# Generated by pormake.
# Topology som, (6)-cn, num edge types: 1
# Building blocks:
#     Node 0, Type 0, BuildingBlock: GEDQOX_clean_sbu_0, # of connection points: 6
#     Node 1, Type 0, BuildingBlock: GEDQOX_clean_sbu_0, # of connection points: 6
#     Node 2, Type 0, BuildingBlock: GEDQOX_clean_sbu_0, # of connection points: 6
#     Node 3, Type 0, BuildingBlock: GEDQOX_clean_sbu_0, # of connection points: 6
#     Node 4, Type 0, BuildingBlock: GEDQOX_clean_sbu_0, # of connection points: 6
#     Node 5, Type 0, BuildingBlock: GEDQOX_clean_sbu_0, # of connection points: 6
#     Node 6, Type 0, BuildingBlock: GEDQOX_clean_sbu_0, # of connection points: 6
#     Node 7, Type 0, BuildingBlock: GEDQOX_clean_sbu_0, # of connection points: 6
#     Node 8, Type 0, BuildingBlock: GEDQOX_clean_sbu_0, # of connection points: 6
#     Node 9, Type 0, BuildingBlock: GEDQOX_clean_sbu_0, # of connection points: 6
#     Node 10, Type 0, BuildingBlock: GEDQOX_clean_sbu_0, # of connection points: 6
#     Node 11, Type 0, BuildingBlock: GEDQOX_clean_sbu_0, # of connection points: 6
#     Node 12, Type 0, BuildingBlock: GEDQOX_clean_sbu_0, # of connection points: 6
#     Node 13, Type 0, BuildingBlock: GEDQOX_clean_sbu_0, # of connection points: 6
#     Node 14, Type 0, BuildingBlock: GEDQOX_clean_sbu_0, # of connection points: 6
#     Node 15, Type 0, BuildingBlock: GEDQOX_clean_sbu_0, # of connection points: 6
#     Node 16, Type 0, BuildingBlock: GEDQOX_clean_sbu_0, # of connection points: 6
#     Node 17, Type 0, BuildingBlock: GEDQOX_clean_sbu_0, # of connection points: 6
#     Node 18, Type 0, BuildingBlock: GEDQOX_clean_sbu_0, # of connection points: 6
#     Node 19, Type 0, BuildingBlock: GEDQOX_clean_sbu_0, # of connection points: 6
#     Node 20, Type 0, BuildingBlock: GEDQOX_clean_sbu_0, # of connection points: 6
#     Node 21, Type 0, BuildingBlock: GEDQOX_clean_sbu_0, # of connection points: 6
#     Node 22, Type 0, BuildingBlock: GEDQOX_clean_sbu_0, # of connection points: 6
#     Node 23, Type 0, BuildingBlock: GEDQOX_clean_sbu_0, # of connection points: 6
#     Node 24, Type 0, BuildingBlock: GEDQOX_clean_sbu_0, # of connection points: 6
#     Node 25, Type 0, BuildingBlock: GEDQOX_clean_sbu_0, # of connection points: 6
#     Node 26, Type 0, BuildingBlock: GEDQOX_clean_sbu_0, # of connection points: 6
#     Node 27, Type 0, BuildingBlock: GEDQOX_clean_sbu_0, # of connection points: 6
#     Node 28, Type 0, BuildingBlock: GEDQOX_clean_sbu_0, # of connection points: 6
#     Node 29, Type 0, BuildingBlock: GEDQOX_clean_sbu_0, # of connection points: 6
#     Node 30, Type 0, BuildingBlock: GEDQOX_clean_sbu_0, # of connection points: 6
#     Node 31, Type 0, BuildingBlock: GEDQOX_clean_sbu_0, # of connection points: 6
#     Edge 32, Type (0, 0), BuildingBlock: XIVTED_clean_linker_0, # of connection points: 2
#     Edge 33, Type (0, 0), BuildingBlock: XIVTED_clean_linker_0, # of connection points: 2
#     Edge 34, Type (0, 0), BuildingBlock: XIVTED_clean_linker_0, # of connection points: 2
#     Edge 35, Type (0, 0), BuildingBlock: XIVTED_clean_linker_0, # of connection points: 2
#     Edge 36, Type (0, 0), BuildingBlock: XIVTED_clean_linker_0, # of connection points: 2
#     Edge 37, Type (0, 0), BuildingBlock: XIVTED_clean_linker_0, # of connection points: 2
#     Edge 38, Type (0, 0), BuildingBlock: XIVTED_clean_linker_0, # of connection points: 2
#     Edge 39, Type (0, 0), BuildingBlock: XIVTED_clean_linker_0, # of connection points: 2
#     Edge 40, Type (0, 0), BuildingBlock: XIVTED_clean_linker_0, # of connection points: 2
#     Edge 41, Type (0, 0), BuildingBlock: XIVTED_clean_linker_0, # of connection points: 2
#     Edge 42, Type (0, 0), BuildingBlock: XIVTED_clean_linker_0, # of connection points: 2
#     Edge 43, Type (0, 0), BuildingBlock: XIVTED_clean_linker_0, # of connection points: 2
#     Edge 44, Type (0, 0), BuildingBlock: XIVTED_clean_linker_0, # of connection points: 2
#     Edge 45, Type (0, 0), BuildingBlock: XIVTED_clean_linker_0, # of connection points: 2
#     Edge 46, Type (0, 0), BuildingBlock: XIVTED_clean_linker_0, # of connection points: 2
#     Edge 47, Type (0, 0), BuildingBlock: XIVTED_clean_linker_0, # of connection points: 2
#     Edge 48, Type (0, 0), BuildingBlock: XIVTED_clean_linker_0, # of connection points: 2
#     Edge 49, Type (0, 0), BuildingBlock: XIVTED_clean_linker_0, # of connection points: 2
#     Edge 50, Type (0, 0), BuildingBlock: XIVTED_clean_linker_0, # of connection points: 2
#     Edge 51, Type (0, 0), BuildingBlock: XIVTED_clean_linker_0, # of connection points: 2
#     Edge 52, Type (0, 0), BuildingBlock: XIVTED_clean_linker_0, # of connection points: 2
#     Edge 53, Type (0, 0), BuildingBlock: XIVTED_clean_linker_0, # of connection points: 2
#     Edge 54, Type (0, 0), BuildingBlock: XIVTED_clean_linker_0, # of connection points: 2
#     Edge 55, Type (0, 0), BuildingBlock: XIVTED_clean_linker_0, # of connection points: 2
#     Edge 56, Type (0, 0), BuildingBlock: XIVTED_clean_linker_0, # of connection points: 2
#     Edge 57, Type (0, 0), BuildingBlock: XIVTED_clean_linker_0, # of connection points: 2
#     Edge 58, Type (0, 0), BuildingBlock: XIVTED_clean_linker_0, # of connection points: 2
#     Edge 59, Type (0, 0), BuildingBlock: XIVTED_clean_linker_0, # of connection points: 2
#     Edge 60, Type (0, 0), BuildingBlock: XIVTED_clean_linker_0, # of connection points: 2
#     Edge 61, Type (0, 0), BuildingBlock: XIVTED_clean_linker_0, # of connection points: 2
#     Edge 62, Type (0, 0), BuildingBlock: XIVTED_clean_linker_0, # of connection points: 2
#     Edge 63, Type (0, 0), BuildingBlock: XIVTED_clean_linker_0, # of connection points: 2
#     Edge 64, Type (0, 0), BuildingBlock: XIVTED_clean_linker_0, # of connection points: 2
#     Edge 65, Type (0, 0), BuildingBlock: XIVTED_clean_linker_0, # of connection points: 2
#     Edge 66, Type (0, 0), BuildingBlock: XIVTED_clean_linker_0, # of connection points: 2
#     Edge 67, Type (0, 0), BuildingBlock: XIVTED_clean_linker_0, # of connection points: 2
#     Edge 68, Type (0, 0), BuildingBlock: XIVTED_clean_linker_0, # of connection points: 2
#     Edge 69, Type (0, 0), BuildingBlock: XIVTED_clean_linker_0, # of connection points: 2
#     Edge 70, Type (0, 0), BuildingBlock: XIVTED_clean_linker_0, # of connection points: 2
#     Edge 71, Type (0, 0), BuildingBlock: XIVTED_clean_linker_0, # of connection points: 2
#     Edge 72, Type (0, 0), BuildingBlock: XIVTED_clean_linker_0, # of connection points: 2
#     Edge 73, Type (0, 0), BuildingBlock: XIVTED_clean_linker_0, # of connection points: 2
#     Edge 74, Type (0, 0), BuildingBlock: XIVTED_clean_linker_0, # of connection points: 2
#     Edge 75, Type (0, 0), BuildingBlock: XIVTED_clean_linker_0, # of connection points: 2
#     Edge 76, Type (0, 0), BuildingBlock: XIVTED_clean_linker_0, # of connection points: 2
#     Edge 77, Type (0, 0), BuildingBlock: XIVTED_clean_linker_0, # of connection points: 2
#     Edge 78, Type (0, 0), BuildingBlock: XIVTED_clean_linker_0, # of connection points: 2
#     Edge 79, Type (0, 0), BuildingBlock: XIVTED_clean_linker_0, # of connection points: 2
#     Edge 80, Type (0, 0), BuildingBlock: XIVTED_clean_linker_0, # of connection points: 2
#     Edge 81, Type (0, 0), BuildingBlock: XIVTED_clean_linker_0, # of connection points: 2
#     Edge 82, Type (0, 0), BuildingBlock: XIVTED_clean_linker_0, # of connection points: 2
#     Edge 83, Type (0, 0), BuildingBlock: XIVTED_clean_linker_0, # of connection points: 2
#     Edge 84, Type (0, 0), BuildingBlock: XIVTED_clean_linker_0, # of connection points: 2
#     Edge 85, Type (0, 0), BuildingBlock: XIVTED_clean_linker_0, # of connection points: 2
#     Edge 86, Type (0, 0), BuildingBlock: XIVTED_clean_linker_0, # of connection points: 2
#     Edge 87, Type (0, 0), BuildingBlock: XIVTED_clean_linker_0, # of connection points: 2
#     Edge 88, Type (0, 0), BuildingBlock: XIVTED_clean_linker_0, # of connection points: 2
#     Edge 89, Type (0, 0), BuildingBlock: XIVTED_clean_linker_0, # of connection points: 2
#     Edge 90, Type (0, 0), BuildingBlock: XIVTED_clean_linker_0, # of connection points: 2
#     Edge 91, Type (0, 0), BuildingBlock: XIVTED_clean_linker_0, # of connection points: 2
#     Edge 92, Type (0, 0), BuildingBlock: XIVTED_clean_linker_0, # of connection points: 2
#     Edge 93, Type (0, 0), BuildingBlock: XIVTED_clean_linker_0, # of connection points: 2
#     Edge 94, Type (0, 0), BuildingBlock: XIVTED_clean_linker_0, # of connection points: 2
#     Edge 95, Type (0, 0), BuildingBlock: XIVTED_clean_linker_0, # of connection points: 2
#     Edge 96, Type (0, 0), BuildingBlock: XIVTED_clean_linker_0, # of connection points: 2
#     Edge 97, Type (0, 0), BuildingBlock: XIVTED_clean_linker_0, # of connection points: 2
#     Edge 98, Type (0, 0), BuildingBlock: XIVTED_clean_linker_0, # of connection points: 2
#     Edge 99, Type (0, 0), BuildingBlock: XIVTED_clean_linker_0, # of connection points: 2
#     Edge 100, Type (0, 0), BuildingBlock: XIVTED_clean_linker_0, # of connection points: 2
#     Edge 101, Type (0, 0), BuildingBlock: XIVTED_clean_linker_0, # of connection points: 2
#     Edge 102, Type (0, 0), BuildingBlock: XIVTED_clean_linker_0, # of connection points: 2
#     Edge 103, Type (0, 0), BuildingBlock: XIVTED_clean_linker_0, # of connection points: 2
#     Edge 104, Type (0, 0), BuildingBlock: XIVTED_clean_linker_0, # of connection points: 2
#     Edge 105, Type (0, 0), BuildingBlock: XIVTED_clean_linker_0, # of connection points: 2
#     Edge 106, Type (0, 0), BuildingBlock: XIVTED_clean_linker_0, # of connection points: 2
#     Edge 107, Type (0, 0), BuildingBlock: XIVTED_clean_linker_0, # of connection points: 2
#     Edge 108, Type (0, 0), BuildingBlock: XIVTED_clean_linker_0, # of connection points: 2
#     Edge 109, Type (0, 0), BuildingBlock: XIVTED_clean_linker_0, # of connection points: 2
#     Edge 110, Type (0, 0), BuildingBlock: XIVTED_clean_linker_0, # of connection points: 2
#     Edge 111, Type (0, 0), BuildingBlock: XIVTED_clean_linker_0, # of connection points: 2
#     Edge 112, Type (0, 0), BuildingBlock: XIVTED_clean_linker_0, # of connection points: 2
#     Edge 113, Type (0, 0), BuildingBlock: XIVTED_clean_linker_0, # of connection points: 2
#     Edge 114, Type (0, 0), BuildingBlock: XIVTED_clean_linker_0, # of connection points: 2
#     Edge 115, Type (0, 0), BuildingBlock: XIVTED_clean_linker_0, # of connection points: 2
#     Edge 116, Type (0, 0), BuildingBlock: XIVTED_clean_linker_0, # of connection points: 2
#     Edge 117, Type (0, 0), BuildingBlock: XIVTED_clean_linker_0, # of connection points: 2
#     Edge 118, Type (0, 0), BuildingBlock: XIVTED_clean_linker_0, # of connection points: 2
#     Edge 119, Type (0, 0), BuildingBlock: XIVTED_clean_linker_0, # of connection points: 2
#     Edge 120, Type (0, 0), BuildingBlock: XIVTED_clean_linker_0, # of connection points: 2
#     Edge 121, Type (0, 0), BuildingBlock: XIVTED_clean_linker_0, # of connection points: 2
#     Edge 122, Type (0, 0), BuildingBlock: XIVTED_clean_linker_0, # of connection points: 2
#     Edge 123, Type (0, 0), BuildingBlock: XIVTED_clean_linker_0, # of connection points: 2
#     Edge 124, Type (0, 0), BuildingBlock: XIVTED_clean_linker_0, # of connection points: 2
#     Edge 125, Type (0, 0), BuildingBlock: XIVTED_clean_linker_0, # of connection points: 2
#     Edge 126, Type (0, 0), BuildingBlock: XIVTED_clean_linker_0, # of connection points: 2
#     Edge 127, Type (0, 0), BuildingBlock: XIVTED_clean_linker_0, # of connection points: 2
# Relax obj value: 0.188
# Max RMSD: 0.204
# Mean RMSD: 0.203
data_MOF--net-som--node1-GEDQOX_clean_sbu_0--edge1-XIVTED_clean_linker_0
_symmetry_space_group_name_H-M    P1
_symmetry_Int_Tables_number       1
_symmetry_cell_setting            triclinic
loop_
_symmetry_equiv_pos_as_xyz
'x, y, z'
_cell_length_a     15.722655
_cell_length_b     104.41994
_cell_length_c     117.04012
_cell_angle_alpha  90.054569
_cell_angle_beta   89.899259
_cell_angle_gamma 90.007881
loop_
_atom_site_label
_atom_site_type_symbol
_atom_site_fract_x
_atom_site_fract_y
_atom_site_fract_z
_atom_type_partial_charge
Nd0 Nd 0.09537 0.49715 0.0643 0.0
Nd1 Nd 0.08599 0.52729 0.0697 0.0
C2 C 0.08642 0.47356 0.05588 0.0
C3 C 0.04888 0.46064 0.05714 0.0
C4 C 1.02994 0.45361 0.04726 0.0
C5 C 1.00439 0.4408 0.04801 0.0
C6 C 0.99722 0.4347 0.05869 0.0
C7 C 1.01295 0.44193 0.06863 0.0
C8 C 1.0388 0.45478 0.06787 0.0
C9 C 0.12303 0.50408 0.0867 0.0
C10 C 0.90793 0.51071 0.06887 0.0
C11 C 0.08716 0.55017 0.07953 0.0
C12 C 0.10484 0.56392 0.07725 0.0
C13 C 0.16978 0.57021 0.08329 0.0
C14 C 0.18223 0.58343 0.0821 0.0
C15 C 0.12946 0.59073 0.0749 0.0
C16 C 0.0656 0.58437 0.06868 0.0
C17 C 0.05346 0.57114 0.06982 0.0
C18 C 0.08861 0.52295 0.04619 0.0
C19 C 0.26839 0.51333 0.06466 0.0
O20 O 1.03753 0.4829 0.05238 0.0
O21 O 0.14204 0.47719 0.06352 0.0
O22 O 0.15853 0.49432 0.08178 0.0
O23 O 0.06884 0.50918 0.08017 0.0
O24 O 0.9505 0.50035 0.06566 0.0
O25 O 0.94602 0.52154 0.07177 0.0
O26 O 0.15185 0.54226 0.07999 0.0
O27 O 1.01988 0.54511 0.07472 0.0
O28 O 0.08418 0.5343 0.05068 0.0
O29 O 0.0927 0.51501 0.05419 0.0
O30 O 0.22769 0.52191 0.07096 0.0
O31 O 0.22706 0.50439 0.05888 0.0
H32 H 1.03728 0.45792 0.0389 0.0
H33 H 0.99126 0.43562 0.04019 0.0
H34 H 1.00846 0.43754 0.07699 0.0
H35 H 0.0532 0.46 0.07563 0.0
H36 H 0.20974 0.56494 0.08917 0.0
H37 H 0.23141 0.58801 0.08712 0.0
H38 H 1.02455 0.58965 0.06294 0.0
H39 H 1.00271 0.56664 0.06504 0.0
Nd40 Nd 0.23661 0.78025 0.06504 0.0
Nd41 Nd 0.24612 0.75021 0.07026 0.0
C42 C 0.24573 0.80398 0.05697 0.0
C43 C 0.2862 0.81671 0.05815 0.0
C44 C 0.304 0.82379 0.04826 0.0
C45 C 0.3337 0.8364 0.04902 0.0
C46 C 0.34638 0.84227 0.05972 0.0
C47 C 0.3304 0.83502 0.06965 0.0
C48 C 0.30064 0.82237 0.06888 0.0
C49 C 0.2066 0.7732 0.08738 0.0
C50 C 0.42408 0.7668 0.06964 0.0
C51 C 0.24442 0.72733 0.08004 0.0
C52 C 0.22582 0.71361 0.07778 0.0
C53 C 0.16707 0.70711 0.08471 0.0
C54 C 0.15411 0.69391 0.08345 0.0
C55 C 0.20017 0.68685 0.07526 0.0
C56 C 0.25773 0.69343 0.06815 0.0
C57 C 0.27033 0.70665 0.06938 0.0
C58 C 0.24533 0.75447 0.04674 0.0
C59 C 0.06361 0.76409 0.06511 0.0
O60 O 0.29129 0.79453 0.05289 0.0
O61 O 0.19303 0.80039 0.065 0.0
O62 O 0.17024 0.7828 0.08237 0.0
O63 O 0.26216 0.76821 0.08094 0.0
O64 O 0.38148 0.77717 0.06651 0.0
O65 O 0.38597 0.75593 0.07242 0.0
O66 O 0.18013 0.7353 0.08062 0.0
O67 O 0.3116 0.7323 0.07511 0.0
O68 O 0.24914 0.74315 0.05128 0.0
O69 O 0.2407 0.76249 0.0547 0.0
O70 O 0.10407 0.75545 0.07135 0.0
O71 O 0.10515 0.77313 0.05948 0.0
H72 H 0.29256 0.81968 0.0399 0.0
H73 H 0.34394 0.84167 0.04118 0.0
H74 H 0.34051 0.83914 0.07804 0.0
H75 H 0.28739 0.81712 0.07666 0.0
H76 H 0.13251 0.7122 0.09132 0.0
H77 H 0.10998 0.68916 0.08916 0.0
H78 H 0.29341 0.68835 0.06165 0.0
H79 H 0.31605 0.71136 0.06387 0.0
Nd80 Nd 0.09829 0.77939 0.19466 0.0
Nd81 Nd 0.08543 0.75158 0.18992 0.0
C82 C 0.08744 0.80358 0.20173 0.0
C83 C 0.05116 0.81646 0.19932 0.0
C84 C 0.98008 0.82092 0.20545 0.0
C85 C 0.95227 0.83361 0.2043 0.0
C86 C 0.99535 0.84222 0.19706 0.0
C87 C 0.06511 0.83765 0.19071 0.0
C88 C 0.09274 0.82496 0.19184 0.0
C89 C 0.12414 0.77324 0.17191 0.0
C90 C 0.91138 0.76691 0.18944 0.0
C91 C 0.09493 0.72753 0.18249 0.0
C92 C 0.11929 0.7141 0.18499 0.0
C93 C 0.17598 0.70778 0.17762 0.0
C94 C 0.18997 0.69459 0.17863 0.0
C95 C 0.14715 0.68735 0.187 0.0
C96 C 0.09319 0.6938 0.1947 0.0
C97 C 0.07926 0.70702 0.1937 0.0
C98 C 0.06405 0.75754 0.21282 0.0
C99 C 0.27233 0.76423 0.19478 0.0
O100 O 1.03674 0.7945 0.20533 0.0
O101 O 0.14704 0.79929 0.19496 0.0
O102 O 0.16617 0.7819 0.1774 0.0
O103 O 0.06682 0.76848 0.17817 0.0
O104 O 0.95329 0.77567 0.19531 0.0
O105 O 0.95289 0.75771 0.18413 0.0
O106 O 0.15473 0.736 0.18068 0.0
O107 O 1.02918 0.73231 0.18781 0.0
O108 O 1.02339 0.74856 0.20754 0.0
O109 O 0.11878 0.7625 0.20631 0.0
O110 O 0.23008 0.7556 0.18878 0.0
O111 O 0.23097 0.77325 0.20037 0.0
H112 H 0.94742 0.81471 0.21143 0.0
H113 H 0.89894 0.83681 0.20943 0.0
H114 H 0.09913 0.84392 0.18493 0.0
H115 H 0.14819 0.82193 0.18704 0.0
H116 H 0.20732 0.71297 0.1708 0.0
H117 H 0.2332 0.69002 0.17268 0.0
H118 H 0.05864 0.68856 0.2012 0.0
H119 H 1.03474 0.71158 0.19948 0.0
Nd120 Nd 0.23541 0.4989 0.19378 0.0
Nd121 Nd 0.2479 0.52667 0.18856 0.0
C122 C 0.24443 0.47496 0.20146 0.0
C123 C 0.28524 0.46224 0.20024 0.0
C124 C 0.30674 0.4554 0.21013 0.0
C125 C 0.33591 0.44276 0.20942 0.0
C126 C 0.3443 0.4366 0.19876 0.0
C127 C 0.32482 0.44361 0.18882 0.0
C128 C 0.2956 0.45629 0.18955 0.0
C129 C 0.21137 0.50462 0.17096 0.0
C130 C 0.4223 0.5113 0.18835 0.0
C131 C 0.23843 0.55058 0.18084 0.0
C132 C 0.21454 0.56402 0.18341 0.0
C133 C 0.15764 0.57039 0.17614 0.0
C134 C 0.14369 0.58357 0.17725 0.0
C135 C 0.18678 0.59076 0.18562 0.0
C136 C 0.241 0.58426 0.19323 0.0
C137 C 0.25486 0.57105 0.19212 0.0
C138 C 0.26573 0.52125 0.2116 0.0
C139 C 0.06089 0.51393 0.19324 0.0
O140 O 0.28871 0.48438 0.20582 0.0
O141 O 0.19313 0.47869 0.19336 0.0
O142 O 0.16842 0.49609 0.17651 0.0
O143 O 0.2681 0.50948 0.17722 0.0
O144 O 0.38041 0.50257 0.19426 0.0
O145 O 0.38093 0.52045 0.18299 0.0
O146 O 0.17818 0.54213 0.17928 0.0
O147 O 0.30481 0.54582 0.18599 0.0
O148 O 0.30725 0.53012 0.20629 0.0
O149 O 0.21245 0.51613 0.205 0.0
O150 O 0.10357 0.52247 0.18719 0.0
O151 O 0.10171 0.50504 0.19902 0.0
H152 H 0.29841 0.45972 0.21848 0.0
H153 H 0.34898 0.43767 0.21728 0.0
H154 H 0.33162 0.43928 0.18046 0.0
H155 H 0.27944 0.46133 0.18177 0.0
H156 H 0.12602 0.56524 0.16932 0.0
H157 H 0.10023 0.58818 0.17138 0.0
H158 H 0.27575 0.58946 0.19972 0.0
H159 H 0.29948 0.56645 0.19784 0.0
Nd160 Nd 1.00079 0.49892 0.9393 0.0
Nd161 Nd 0.99116 0.52903 0.94513 0.0
C162 C 1.00124 0.47639 0.92885 0.0
C163 C 0.97871 0.46274 0.93025 0.0
C164 C 0.96869 0.45513 0.92048 0.0
C165 C 0.95375 0.44197 0.92145 0.0
C166 C 0.94828 0.43607 0.93224 0.0
C167 C 0.95721 0.4438 0.94206 0.0
C168 C 0.97226 0.45701 0.94107 0.0
C169 C 0.99868 0.50301 0.96286 0.0
C170 C 0.81845 0.51262 0.94499 0.0
C171 C 1.00238 0.55265 0.95348 0.0
C172 C 1.03404 0.56579 0.95099 0.0
C173 C 0.10767 0.57041 0.95641 0.0
C174 C 0.13304 0.58319 0.95509 0.0
C175 C 0.08498 0.59173 0.9484 0.0
C176 C 1.01229 0.58702 0.94279 0.0
C177 C 0.98707 0.57423 0.94408 0.0
C178 C 0.96319 0.52247 0.92264 0.0
C179 C 0.17867 0.5154 0.94064 0.0
O180 O 0.93908 0.48468 0.92781 0.0
O181 O 0.06463 0.48068 0.93501 0.0
O182 O 1.00273 0.49169 0.95829 0.0
O183 O 0.99404 0.511 0.95493 0.0
O184 O 0.85857 0.50406 0.93859 0.0
O185 O 0.86025 0.52156 0.95074 0.0
O186 O 0.05813 0.54367 0.95565 0.0
O187 O 0.93731 0.54844 0.94763 0.0
O188 O 0.92897 0.53228 0.92763 0.0
O189 O 1.01732 0.51726 0.92911 0.0
O190 O 0.13603 0.52559 0.94424 0.0
O191 O 0.14053 0.50477 0.93722 0.0
H192 H 0.97422 0.45934 0.91205 0.0
H193 H 0.94876 0.43637 0.91369 0.0
H194 H 0.95242 0.43965 0.95051 0.0
H195 H 0.97992 0.46271 0.94874 0.0
H196 H 0.14456 0.56422 0.96193 0.0
H197 H 0.18874 0.5865 0.95965 0.0
H198 H 0.97433 0.59325 0.93744 0.0
H199 H 0.92964 0.57106 0.93983 0.0
Nd200 Nd 0.83953 0.27581 0.93883 0.0
Nd201 Nd 0.85009 0.24809 0.94512 0.0
C202 C 0.84958 0.29928 0.9301 0.0
C203 C 0.87418 0.31283 0.93177 0.0
C204 C 0.89919 0.31998 0.92221 0.0
C205 C 0.91143 0.33322 0.92305 0.0
C206 C 0.899 0.33964 0.93349 0.0
C207 C 0.8775 0.33236 0.94321 0.0
C208 C 0.8648 0.31907 0.94235 0.0
C209 C 0.81844 0.27121 0.96202 0.0
C210 C 1.02571 0.26315 0.9443 0.0
C211 C 0.83728 0.22465 0.95387 0.0
C212 C 0.79521 0.21201 0.95273 0.0
C213 C 0.77458 0.20515 0.96265 0.0
C214 C 0.74313 0.19263 0.96195 0.0
C215 C 0.73153 0.18662 0.95129 0.0
C216 C 0.75037 0.19366 0.94132 0.0
C217 C 0.78184 0.20622 0.94203 0.0
C218 C 0.88087 0.25253 0.92224 0.0
C219 C 0.66454 0.26043 0.93885 0.0
O220 O 0.90914 0.29068 0.92874 0.0
O221 O 0.78455 0.29502 0.9359 0.0
O222 O 0.77847 0.28001 0.95643 0.0
O223 O 0.87198 0.2658 0.95563 0.0
O224 O 0.98386 0.27163 0.93809 0.0
O225 O 0.98431 0.25434 0.95017 0.0
O226 O 0.79213 0.23434 0.95752 0.0
O227 O 0.892 0.22788 0.94598 0.0
O228 O 0.91808 0.24388 0.92834 0.0
O229 O 0.82303 0.25807 0.92796 0.0
O230 O 0.70552 0.25187 0.94501 0.0
O231 O 0.7065 0.26945 0.93335 0.0
H232 H 0.90659 0.31538 0.91396 0.0
H233 H 0.92942 0.33847 0.91544 0.0
H234 H 0.86708 0.33699 0.95137 0.0
H235 H 0.84513 0.31376 0.94984 0.0
H236 H 0.7851 0.20937 0.97099 0.0
H237 H 0.73064 0.18752 0.96982 0.0
H238 H 0.74118 0.18944 0.93296 0.0
H239 H 0.79721 0.2113 0.93423 0.0
Nd240 Nd 0.99401 0.27864 0.8209 0.0
Nd241 Nd 0.99019 0.24735 0.81414 0.0
C242 C 0.99371 0.3009 0.83176 0.0
C243 C 0.97763 0.31471 0.8302 0.0
C244 C 0.96563 0.32241 0.83987 0.0
C245 C 0.9531 0.33561 0.83877 0.0
C246 C 0.95205 0.34145 0.82793 0.0
C247 C 0.96395 0.33367 0.8182 0.0
C248 C 0.97653 0.32041 0.81933 0.0
C249 C 0.99656 0.27404 0.79741 0.0
C250 C 0.81211 0.26377 0.81662 0.0
C251 C 0.9926 0.22511 0.80329 0.0
C252 C 1.02342 0.21181 0.80464 0.0
C253 C 0.05229 0.20512 0.795 0.0
C254 C 0.07935 0.1924 0.7959 0.0
C255 C 0.07816 0.18602 0.8065 0.0
C256 C 0.04955 0.19279 0.81619 0.0
C257 C 1.02268 0.20557 0.81528 0.0
C258 C 0.98963 0.25156 0.83765 0.0
C259 C 0.17184 0.26196 0.81896 0.0
O260 O 0.92778 0.29322 0.83152 0.0
O261 O 0.06097 0.29611 0.82669 0.0
O262 O 1.00091 0.28548 0.80179 0.0
O263 O 0.98883 0.26631 0.80552 0.0
O264 O 0.8525 0.27331 0.82179 0.0
O265 O 0.852 0.25407 0.81157 0.0
O266 O 0.05025 0.23403 0.8017 0.0
O267 O 0.92981 0.22881 0.80992 0.0
O268 O 0.99121 0.24023 0.83302 0.0
O269 O 0.99179 0.2597 0.82975 0.0
O270 O 0.13199 0.25243 0.81373 0.0
O271 O 0.13147 0.27171 0.82386 0.0
H272 H 0.96687 0.31822 0.84834 0.0
H273 H 0.94579 0.34126 0.84647 0.0
H274 H 0.96273 0.33779 0.80972 0.0
H275 H 0.98569 0.31462 0.81174 0.0
H276 H 0.05308 0.20972 0.7867 0.0
H277 H 0.09968 0.18748 0.78822 0.0
H278 H 0.04866 0.18826 0.82451 0.0
H279 H 1.00107 0.21055 0.82287 0.0
Nd280 Nd 0.8333 0.50161 0.82095 0.0
Nd281 Nd 0.84872 0.52948 0.81575 0.0
C282 C 0.83933 0.47786 0.82906 0.0
C283 C 0.86818 0.46448 0.8276 0.0
C284 C 0.88977 0.45743 0.83736 0.0
C285 C 0.90467 0.44425 0.83665 0.0
C286 C 0.89833 0.43778 0.82613 0.0
C287 C 0.88063 0.44497 0.81624 0.0
C288 C 0.8653 0.4582 0.81697 0.0
C289 C 0.81367 0.50717 0.79797 0.0
C290 C 1.02159 0.51383 0.81567 0.0
C291 C 0.8401 0.55362 0.80848 0.0
C292 C 0.80488 0.56662 0.81077 0.0
C293 C 0.73025 0.57082 0.80532 0.0
C294 C 0.70311 0.58358 0.80635 0.0
C295 C 0.75034 0.5925 0.81277 0.0
C296 C 0.82382 0.58819 0.81844 0.0
C297 C 0.8508 0.57546 0.81743 0.0
C298 C 0.87263 0.52352 0.83851 0.0
C299 C 0.66029 0.51731 0.82083 0.0
O300 O 0.89484 0.48666 0.83182 0.0
O301 O 0.7803 0.48206 0.82219 0.0
O302 O 0.77224 0.49832 0.80334 0.0
O303 O 0.86814 0.51222 0.80446 0.0
O304 O 0.97857 0.50519 0.82157 0.0
O305 O 0.98131 0.52303 0.81018 0.0
O306 O 0.78895 0.54457 0.80493 0.0
O307 O 0.89896 0.5493 0.81533 0.0
O308 O 0.91585 0.53205 0.83301 0.0
O309 O 0.81502 0.51887 0.83226 0.0
O310 O 0.70354 0.52596 0.815 0.0
O311 O 0.70028 0.50808 0.82628 0.0
H312 H 0.89211 0.46204 0.84565 0.0
H313 H 0.91963 0.43906 0.8444 0.0
H314 H 0.87494 0.4403 0.80801 0.0
H315 H 0.84838 0.46342 0.80931 0.0
H316 H 0.69404 0.56435 0.79997 0.0
H317 H 0.64676 0.58655 0.80175 0.0
H318 H 0.8612 0.59471 0.82359 0.0
H319 H 0.90906 0.57264 0.82166 0.0
Nd320 Nd 0.10135 0.99854 0.5657 0.0
Nd321 Nd 0.08889 0.02622 0.57091 0.0
C322 C 0.09212 0.97469 0.55784 0.0
C323 C 0.05187 0.96194 0.559 0.0
C324 C 1.02993 0.95519 0.54908 0.0
C325 C 1.00263 0.94246 0.5497 0.0
C326 C 0.99676 0.93614 0.56029 0.0
C327 C 1.01536 0.9431 0.57029 0.0
C328 C 1.04288 0.95587 0.56966 0.0
C329 C 0.1273 1.00419 0.58852 0.0
C330 C 0.91448 1.01086 0.57136 0.0
C331 C 0.10027 0.05016 0.57856 0.0
C332 C 0.1208 0.06359 0.57549 0.0
C333 C 0.18139 0.0703 0.58194 0.0
C334 C 0.19442 0.08342 0.58023 0.0
C335 C 0.14665 0.09018 0.57206 0.0
C336 C 0.08781 0.08335 0.56535 0.0
C337 C 0.07504 0.07021 0.56703 0.0
C338 C 0.06875 0.02074 0.54789 0.0
C339 C 0.2757 1.0135 0.56627 0.0
O340 O 0.04715 0.9841 0.55364 0.0
O341 O 0.14409 0.97837 0.56589 0.0
O342 O 0.1696 0.99567 0.58285 0.0
O343 O 0.07 1.00909 0.58237 0.0
O344 O 0.95622 1.00211 0.56545 0.0
O345 O 0.95599 0.02008 0.57662 0.0
O346 O 0.16246 0.04191 0.57931 0.0
O347 O 1.03106 0.04516 0.57433 0.0
O348 O 1.02786 0.02964 0.55326 0.0
O349 O 0.12289 0.01569 0.55439 0.0
O350 O 0.23292 0.0219 0.57246 0.0
O351 O 0.2348 1.00471 0.56036 0.0
H352 H 1.03647 0.95965 0.54076 0.0
H353 H 0.9873 0.9375 0.54184 0.0
H354 H 1.01197 0.93854 0.57859 0.0
H355 H 0.05959 0.96085 0.57746 0.0
H356 H 0.21682 0.06546 0.5886 0.0
H357 H 0.23956 0.08837 0.58565 0.0
H358 H 0.05081 0.08821 0.55887 0.0
H359 H 1.0278 0.06532 0.5619 0.0
Nd360 Nd 0.24045 0.28003 0.56637 0.0
Nd361 Nd 0.24881 0.25012 0.56949 0.0
C362 C 0.24974 0.30503 0.56273 0.0
C363 C 0.2967 0.31705 0.56029 0.0
C364 C 0.26945 0.32494 0.55131 0.0
C365 C 0.30023 0.33748 0.55025 0.0
C366 C 0.35866 0.34247 0.5582 0.0
C367 C 0.38923 0.3343 0.56684 0.0
C368 C 0.35864 0.32175 0.56787 0.0
C369 C 0.19816 0.27071 0.58771 0.0
C370 C 0.42643 0.26602 0.5691 0.0
C371 C 0.2463 0.22668 0.57815 0.0
C372 C 0.22956 0.21304 0.57536 0.0
C373 C 0.16501 0.20642 0.5812 0.0
C374 C 0.15381 0.19323 0.57962 0.0
C375 C 0.20745 0.18631 0.57221 0.0
C376 C 0.2708 0.193 0.56616 0.0
C377 C 0.28171 0.20621 0.56771 0.0
C378 C 0.25954 0.25561 0.54631 0.0
C379 C 0.06556 0.26441 0.56442 0.0
O380 O 0.23279 0.29685 0.55452 0.0
O381 O 0.26102 0.29962 0.57269 0.0
O382 O 0.15704 0.27973 0.58252 0.0
O383 O 0.25975 0.26685 0.58167 0.0
O384 O 0.38445 0.27608 0.56519 0.0
O385 O 0.38703 0.2557 0.57289 0.0
O386 O 0.18125 0.23451 0.57876 0.0
O387 O 0.31418 0.23201 0.57373 0.0
O388 O 0.25973 0.2441 0.55046 0.0
O389 O 0.25212 0.26349 0.5544 0.0
O390 O 0.10522 0.2548 0.56954 0.0
O391 O 0.10712 0.27448 0.56046 0.0
H392 H 0.22129 0.32162 0.5454 0.0
H393 H 0.27648 0.34336 0.54334 0.0
H394 H 0.43364 0.33778 0.57318 0.0
H395 H 0.3806 0.31596 0.57495 0.0
H396 H 0.12453 0.2114 0.58725 0.0
H397 H 0.10502 0.18838 0.58452 0.0
H398 H 0.31249 0.18802 0.56028 0.0
H399 H 0.3322 0.21099 0.56307 0.0
Nd400 Nd 0.09013 0.27829 0.69493 0.0
Nd401 Nd 0.07603 0.25025 0.6902 0.0
C402 C 0.08303 0.30237 0.7023 0.0
C403 C 1.04265 0.31512 0.70113 0.0
C404 C 1.02505 0.32221 0.71103 0.0
C405 C 0.99653 0.33488 0.7103 0.0
C406 C 0.98486 0.34081 0.69962 0.0
C407 C 1.00039 0.33354 0.68967 0.0
C408 C 1.029 0.32083 0.69042 0.0
C409 C 0.11308 0.27192 0.6722 0.0
C410 C 0.90237 0.26594 0.68996 0.0
C411 C 0.08404 0.22626 0.68261 0.0
C412 C 0.11089 0.21285 0.68484 0.0
C413 C 0.16996 0.20699 0.67751 0.0
C414 C 0.18659 0.19384 0.67828 0.0
C415 C 0.14405 0.18618 0.68638 0.0
C416 C 0.08739 0.19217 0.69403 0.0
C417 C 0.07087 0.20534 0.69326 0.0
C418 C 0.05856 0.25632 0.71314 0.0
C419 C 0.26392 0.26288 0.69461 0.0
O420 O 1.03931 0.29307 0.70695 0.0
O421 O 0.13248 0.29846 0.69402 0.0
O422 O 0.15644 0.28057 0.67754 0.0
O423 O 0.05641 0.26726 0.67863 0.0
O424 O 0.94503 0.27485 0.69553 0.0
O425 O 0.94273 0.25649 0.68483 0.0
O426 O 0.14204 0.23486 0.68031 0.0
O427 O 1.02048 0.23088 0.6885 0.0
O428 O 1.01809 0.24714 0.7081 0.0
O429 O 0.11164 0.26128 0.70639 0.0
O430 O 0.22068 0.2541 0.68892 0.0
O431 O 0.22394 0.27214 0.70008 0.0
H432 H 1.03598 0.31807 0.71939 0.0
H433 H 0.98659 0.34016 0.71816 0.0
H434 H 0.991 0.3377 0.68129 0.0
H435 H 1.04216 0.31559 0.68262 0.0
H436 H 0.20131 0.2125 0.67089 0.0
H437 H 0.23179 0.18964 0.67238 0.0
H438 H 0.05282 0.18661 0.70031 0.0
H439 H 1.02443 0.20951 0.699 0.0
Nd440 Nd 0.23823 0.99625 0.69537 0.0
Nd441 Nd 0.24528 0.02635 0.69013 0.0
C442 C 0.24897 0.97257 0.70352 0.0
C443 C 0.28854 0.95981 0.70206 0.0
C444 C 0.31234 0.95291 0.71181 0.0
C445 C 0.3416 0.9403 0.71089 0.0
C446 C 0.34776 0.93424 0.70017 0.0
C447 C 0.3257 0.9413 0.69035 0.0
C448 C 0.29643 0.95396 0.69129 0.0
C449 C 0.20905 1.00322 0.67301 0.0
C450 C 0.42457 1.01008 0.69077 0.0
C451 C 0.24322 0.04917 0.68025 0.0
C452 C 0.2229 0.06287 0.68217 0.0
C453 C 0.17342 0.06942 0.67411 0.0
C454 C 0.16082 0.08266 0.67501 0.0
C455 C 0.19787 0.08972 0.68398 0.0
C456 C 0.24523 0.08305 0.69227 0.0
C457 C 0.25764 0.06978 0.69138 0.0
C458 C 0.24312 0.02201 0.71364 0.0
C459 C 0.06403 1.01215 0.69534 0.0
O460 O 0.29645 0.982 0.70722 0.0
O461 O 0.19333 0.97619 0.69588 0.0
O462 O 0.17383 0.99347 0.67796 0.0
O463 O 0.26347 1.00835 0.67951 0.0
O464 O 0.38292 0.99964 0.69398 0.0
O465 O 0.38551 0.02084 0.68793 0.0
O466 O 0.17992 0.04103 0.67947 0.0
O467 O 0.30945 0.04446 0.68556 0.0
O468 O 0.24623 0.03336 0.70914 0.0
O469 O 0.23998 0.01403 0.70566 0.0
O470 O 0.10367 0.02086 0.68905 0.0
O471 O 0.10643 1.00324 0.70099 0.0
H472 H 0.30601 0.95717 0.72022 0.0
H473 H 0.3567 0.93516 0.71866 0.0
H474 H 0.3307 0.93704 0.68194 0.0
H475 H 0.27849 0.95908 0.68361 0.0
H476 H 0.14602 0.06433 0.66693 0.0
H477 H 0.12259 0.08738 0.66858 0.0
H478 H 0.27533 0.08813 0.69924 0.0
H479 H 0.29627 0.06501 0.69773 0.0
Nd480 Nd 0.99436 1.00139 0.43989 0.0
Nd481 Nd 0.98168 0.02914 0.44521 0.0
C482 C 0.98415 0.97764 0.43183 0.0
C483 C 0.95315 0.96446 0.43388 0.0
C484 C 0.91682 0.95764 0.42479 0.0
C485 C 0.89695 0.94464 0.42595 0.0
C486 C 0.9132 0.93814 0.43624 0.0
C487 C 0.94699 0.94513 0.44549 0.0
C488 C 0.96676 0.95815 0.44432 0.0
C489 C 1.01438 1.0068 0.46292 0.0
C490 C 0.80732 0.01396 0.44517 0.0
C491 C 0.99289 0.05313 0.45272 0.0
C492 C 1.03239 0.06587 0.45072 0.0
C493 C 0.0971 0.0703 0.45798 0.0
C494 C 0.12702 0.08291 0.45717 0.0
C495 C 0.09251 0.09146 0.44912 0.0
C496 C 1.02957 0.08689 0.44161 0.0
C497 C 0.99976 0.07428 0.44241 0.0
C498 C 0.95664 0.02347 0.42241 0.0
C499 C 0.16877 0.01669 0.43982 0.0
O500 O 0.92876 0.98654 0.42935 0.0
O501 O 0.04637 0.98181 0.4382 0.0
O502 O 0.05531 0.99791 0.45753 0.0
O503 O 0.96042 1.01194 0.45643 0.0
O504 O 0.84952 1.00533 0.43915 0.0
O505 O 0.84852 0.02299 0.45076 0.0
O506 O 1.04059 0.04382 0.45657 0.0
O507 O 0.93561 0.04917 0.44547 0.0
O508 O 0.91402 0.03197 0.42804 0.0
O509 O 1.01404 0.01862 0.42858 0.0
O510 O 0.12666 0.0254 0.44574 0.0
O511 O 0.12761 1.00755 0.4344 0.0
H512 H 0.90651 0.96226 0.41662 0.0
H513 H 0.87208 0.93958 0.4186 0.0
H514 H 0.95916 0.94049 0.4536 0.0
H515 H 0.99468 0.96319 0.45149 0.0
H516 H 0.12307 0.06412 0.46454 0.0
H517 H 0.17649 0.086 0.46298 0.0
H518 H 1.00066 0.09321 0.4354 0.0
H519 H 0.94912 0.07128 0.43675 0.0
Nd520 Nd 0.8479 0.77819 0.43937 0.0
Nd521 Nd 0.84834 0.74817 0.44604 0.0
C522 C 0.87218 0.80129 0.43061 0.0
C523 C 0.85634 0.81511 0.43242 0.0
C524 C 0.83228 0.82277 0.42313 0.0
C525 C 0.82817 0.83612 0.42424 0.0
C526 C 0.84864 0.84209 0.43466 0.0
C527 C 0.86954 0.83434 0.44408 0.0
C528 C 0.87321 0.821 0.44298 0.0
C529 C 0.82315 0.77283 0.46222 0.0
C530 C 1.02779 0.76265 0.44217 0.0
C531 C 0.84299 0.72591 0.45685 0.0
C532 C 0.81152 0.71265 0.45552 0.0
C533 C 0.79683 0.70524 0.4653 0.0
C534 C 0.76989 0.69251 0.46435 0.0
C535 C 0.75689 0.68686 0.45356 0.0
C536 C 0.7714 0.69436 0.44374 0.0
C537 C 0.79828 0.70714 0.44471 0.0
C538 C 0.84969 0.75137 0.4224 0.0
C539 C 0.66773 0.76323 0.4413 0.0
O540 O 0.92516 0.79569 0.43764 0.0
O541 O 0.8081 0.79396 0.42767 0.0
O542 O 0.79307 0.78292 0.45716 0.0
O543 O 0.87172 0.76674 0.45554 0.0
O544 O 0.98567 0.77154 0.43647 0.0
O545 O 0.98838 0.75372 0.44819 0.0
O546 O 0.78599 0.73493 0.45834 0.0
O547 O 0.90594 0.72942 0.45019 0.0
O548 O 0.84719 0.74026 0.42735 0.0
O549 O 0.84807 0.75979 0.43002 0.0
O550 O 0.70762 0.75397 0.44686 0.0
O551 O 0.70872 0.77268 0.43612 0.0
H552 H 0.81956 0.81846 0.41488 0.0
H553 H 0.81247 0.84178 0.41678 0.0
H554 H 0.88423 0.83859 0.45228 0.0
H555 H 0.89161 0.81533 0.45032 0.0
H556 H 0.80713 0.70928 0.47372 0.0
H557 H 0.7608 0.68703 0.47211 0.0
H558 H 0.7612 0.6904 0.4353 0.0
H559 H 0.80908 0.7127 0.43703 0.0
Nd560 Nd 0.99489 0.77676 0.32103 0.0
Nd561 Nd 0.98489 0.74927 0.31466 0.0
C562 C 0.98148 0.80033 0.3295 0.0
C563 C 0.96263 0.81394 0.32693 0.0
C564 C 0.90745 0.8207 0.33417 0.0
C565 C 0.89665 0.83393 0.33295 0.0
C566 C 0.94115 0.84076 0.32447 0.0
C567 C 0.99392 0.83387 0.31691 0.0
C568 C 1.0047 0.8206 0.31814 0.0
C569 C 1.01657 0.77236 0.29779 0.0
C570 C 0.80957 0.76404 0.31579 0.0
C571 C 1.00002 0.72581 0.30598 0.0
C572 C 1.03537 0.71286 0.30827 0.0
C573 C 0.10026 0.70797 0.30125 0.0
C574 C 0.1281 0.6953 0.30245 0.0
C575 C 0.0912 0.68714 0.31065 0.0
C576 C 1.02764 0.69215 0.31786 0.0
C577 C 1.00006 0.70484 0.3167 0.0
C578 C 0.95469 0.75328 0.33763 0.0
C579 C 0.17023 0.76172 0.3208 0.0
O580 O 0.91877 0.79213 0.32952 0.0
O581 O 0.05194 0.79549 0.32548 0.0
O582 O 0.05638 0.78111 0.30347 0.0
O583 O 0.96295 0.76691 0.30411 0.0
O584 O 0.85157 0.77209 0.3224 0.0
O585 O 0.85128 0.75566 0.30947 0.0
O586 O 0.05304 0.73511 0.30367 0.0
O587 O 0.93548 0.72962 0.31214 0.0
O588 O 0.91871 0.74459 0.33146 0.0
O589 O 1.01171 0.75904 0.33196 0.0
O590 O 0.12914 0.75336 0.31442 0.0
O591 O 0.1281 0.77054 0.32653 0.0
H592 H 0.87443 0.8158 0.34103 0.0
H593 H 0.85423 0.83885 0.33879 0.0
H594 H 1.02959 0.8388 0.31032 0.0
H595 H 0.0479 0.81565 0.31243 0.0
H596 H 0.12796 0.71386 0.29459 0.0
H597 H 0.17646 0.69175 0.29665 0.0
H598 H 0.99862 0.68622 0.32438 0.0
H599 H 0.94977 0.70826 0.32225 0.0
Nd600 Nd 0.83923 1.00145 0.32011 0.0
Nd601 Nd 0.85458 0.02927 0.31489 0.0
C602 C 0.84687 0.97755 0.32789 0.0
C603 C 0.87208 0.9641 0.32554 0.0
C604 C 0.93061 0.95805 0.33279 0.0
C605 C 0.94576 0.94488 0.33192 0.0
C606 C 0.90226 0.93737 0.32381 0.0
C607 C 0.84632 0.94354 0.31622 0.0
C608 C 0.83125 0.95675 0.31708 0.0
C609 C 0.82039 1.00699 0.29711 0.0
C610 C 1.02776 1.01379 0.3153 0.0
C611 C 0.8471 0.05322 0.30724 0.0
C612 C 0.80526 0.06586 0.30841 0.0
C613 C 0.78397 0.07267 0.2985 0.0
C614 C 0.75349 0.08524 0.29919 0.0
C615 C 0.74365 0.09135 0.30985 0.0
C616 C 0.763 0.08437 0.31981 0.0
C617 C 0.79344 0.07176 0.3191 0.0
C618 C 0.87968 0.02342 0.33764 0.0
C619 C 0.66633 0.01724 0.32038 0.0
O620 O 0.90619 0.98606 0.32982 0.0
O621 O 0.78218 0.98225 0.32231 0.0
O622 O 0.77875 0.99814 0.30243 0.0
O623 O 0.87455 1.01201 0.30366 0.0
O624 O 0.98421 1.00522 0.3212 0.0
O625 O 0.988 0.02293 0.30968 0.0
O626 O 0.80414 0.0438 0.30266 0.0
O627 O 0.89671 0.04947 0.31553 0.0
O628 O 0.9232 0.03183 0.33203 0.0
O629 O 0.82158 0.01872 0.33148 0.0
O630 O 0.70918 0.02595 0.31457 0.0
O631 O 0.70662 1.00792 0.32566 0.0
H632 H 0.96261 0.96345 0.33943 0.0
H633 H 0.99046 0.94052 0.33778 0.0
H634 H 0.81115 0.93809 0.30993 0.0
H635 H 0.78529 0.96108 0.31139 0.0
H636 H 0.79337 0.06839 0.29015 0.0
H637 H 0.7405 0.09032 0.29133 0.0
H638 H 0.75511 0.08867 0.32817 0.0
H639 H 0.80937 0.06673 0.3269 0.0
Nd640 Nd 0.61179 0.49894 0.5649 0.0
Nd641 Nd 0.59682 0.52645 0.57091 0.0
C642 C 0.60303 0.4753 0.55651 0.0
C643 C 0.56489 0.46239 0.55798 0.0
C644 C 0.51469 0.4572 0.54921 0.0
C645 C 0.48679 0.44447 0.54971 0.0
C646 C 0.50901 0.43657 0.55898 0.0
C647 C 0.5573 0.44189 0.56792 0.0
C648 C 0.58489 0.45464 0.56743 0.0
C649 C 0.63434 0.50378 0.58791 0.0
C650 C 0.42365 0.51086 0.5705 0.0
C651 C 0.60493 0.55011 0.57927 0.0
C652 C 0.62883 0.56361 0.57694 0.0
C653 C 0.68983 0.5696 0.58386 0.0
C654 C 0.70477 0.58278 0.58298 0.0
C655 C 0.65854 0.59034 0.57521 0.0
C656 C 0.59984 0.58423 0.56795 0.0
C657 C 0.58505 0.57102 0.56881 0.0
C658 C 0.57984 0.52176 0.54772 0.0
C659 C 0.78495 0.51425 0.56597 0.0
O660 O 0.55436 0.48465 0.55299 0.0
O661 O 0.65956 0.47904 0.56396 0.0
O662 O 0.6774 0.49544 0.58214 0.0
O663 O 0.57772 0.50884 0.58177 0.0
O664 O 0.46662 0.50246 0.56434 0.0
O665 O 0.46398 0.51986 0.5762 0.0
O666 O 0.66534 0.54166 0.58067 0.0
O667 O 0.53878 0.54544 0.57399 0.0
O668 O 0.53745 0.53038 0.55324 0.0
O669 O 0.63349 0.51656 0.55419 0.0
O670 O 0.74132 0.52245 0.57228 0.0
O671 O 0.74503 0.50553 0.55985 0.0
H672 H 0.49919 0.46288 0.54175 0.0
H673 H 0.45051 0.44068 0.54261 0.0
H674 H 0.57454 0.43615 0.57526 0.0
H675 H 0.62362 0.45831 0.57434 0.0
H676 H 0.72418 0.56416 0.59023 0.0
H677 H 0.75162 0.58709 0.58857 0.0
H678 H 0.56251 0.58971 0.56193 0.0
H679 H 0.53717 0.56673 0.56338 0.0
Nd680 Nd 0.73566 0.78025 0.56453 0.0
Nd681 Nd 0.74572 0.75022 0.56964 0.0
C682 C 0.74441 0.80401 0.55655 0.0
C683 C 0.78528 0.81669 0.55786 0.0
C684 C 0.80581 0.82369 0.54802 0.0
C685 C 0.83615 0.83625 0.54887 0.0
C686 C 0.84666 0.84214 0.5596 0.0
C687 C 0.82791 0.83497 0.56949 0.0
C688 C 0.79758 0.82237 0.56863 0.0
C689 C 0.70704 0.77307 0.58688 0.0
C690 C 0.92343 0.76685 0.56898 0.0
C691 C 0.74536 0.72742 0.57952 0.0
C692 C 0.72565 0.71371 0.57758 0.0
C693 C 0.67852 0.70701 0.58582 0.0
C694 C 0.66664 0.69377 0.58487 0.0
C695 C 0.70207 0.68687 0.57568 0.0
C696 C 0.74689 0.69369 0.56721 0.0
C697 C 0.75859 0.70697 0.56815 0.0
C698 C 0.74393 0.75454 0.54614 0.0
C699 C 0.56287 0.76403 0.56452 0.0
O700 O 0.78983 0.79458 0.5524 0.0
O701 O 0.69165 0.80036 0.56456 0.0
O702 O 0.67012 0.78268 0.58196 0.0
O703 O 0.76224 0.76816 0.58034 0.0
O704 O 0.8807 0.77721 0.56587 0.0
O705 O 0.88544 0.75598 0.57177 0.0
O706 O 0.68161 0.73546 0.58037 0.0
O707 O 0.81116 0.73221 0.57414 0.0
O708 O 0.74816 0.74321 0.55065 0.0
O709 O 0.73957 0.76255 0.55411 0.0
O710 O 0.60341 0.75533 0.57069 0.0
O711 O 0.6043 0.77312 0.55896 0.0
H712 H 0.79606 0.81956 0.53963 0.0
H713 H 0.84864 0.84149 0.54106 0.0
H714 H 0.8363 0.83911 0.57789 0.0
H715 H 0.78225 0.81716 0.57636 0.0
H716 H 0.65249 0.71199 0.59316 0.0
H717 H 0.63032 0.68892 0.59144 0.0
H718 H 0.77564 0.68872 0.56006 0.0
H719 H 0.7953 0.71187 0.56165 0.0
Nd720 Nd 0.59446 0.77735 0.6941 0.0
Nd721 Nd 0.57881 0.74961 0.6892 0.0
C722 C 0.58778 0.8014 0.70156 0.0
C723 C 0.54762 0.81417 0.70052 0.0
C724 C 0.52892 0.82105 0.71052 0.0
C725 C 0.50209 0.83381 0.70995 0.0
C726 C 0.49343 0.84004 0.69935 0.0
C727 C 0.50877 0.83295 0.68931 0.0
C728 C 0.53585 0.82016 0.68988 0.0
C729 C 0.61885 0.77125 0.67134 0.0
C730 C 0.40605 0.76535 0.68888 0.0
C731 C 0.5842 0.72563 0.68157 0.0
C732 C 0.61321 0.71233 0.68346 0.0
C733 C 0.63546 0.70487 0.67396 0.0
C734 C 0.65273 0.6918 0.67516 0.0
C735 C 0.6483 0.68583 0.68593 0.0
C736 C 0.62832 0.69345 0.69553 0.0
C737 C 0.61087 0.70656 0.6943 0.0
C738 C 0.55968 0.75553 0.71216 0.0
C739 C 0.76765 0.7618 0.69401 0.0
O740 O 0.54431 0.79208 0.70623 0.0
O741 O 0.63675 0.79753 0.69323 0.0
O742 O 0.66311 0.77963 0.67688 0.0
O743 O 0.56091 0.76665 0.6776 0.0
O744 O 0.44898 0.77411 0.69461 0.0
O745 O 0.44633 0.75598 0.68365 0.0
O746 O 0.64006 0.73431 0.67864 0.0
O747 O 0.5249 0.73008 0.6883 0.0
O748 O 0.51674 0.74679 0.70688 0.0
O749 O 0.61466 0.76031 0.70558 0.0
O750 O 0.72424 0.75305 0.68831 0.0
O751 O 0.72779 0.77113 0.69938 0.0
H752 H 0.53768 0.81666 0.71882 0.0
H753 H 0.48933 0.83886 0.71785 0.0
H754 H 0.50318 0.83744 0.681 0.0
H755 H 0.55008 0.81509 0.68203 0.0
H756 H 0.63668 0.70907 0.66549 0.0
H757 H 0.66643 0.68629 0.66753 0.0
H758 H 0.62544 0.68926 0.70398 0.0
H759 H 0.59366 0.71211 0.70178 0.0
Nd760 Nd 0.74491 0.49792 0.69542 0.0
Nd761 Nd 0.75802 0.52564 0.68977 0.0
C762 C 0.75364 0.47413 0.70344 0.0
C763 C 0.79181 0.46123 0.70217 0.0
C764 C 0.81543 0.4545 0.71204 0.0
C765 C 0.84055 0.44167 0.71138 0.0
C766 C 0.84254 0.4352 0.70082 0.0
C767 C 0.82229 0.44213 0.69086 0.0
C768 C 0.79693 0.45501 0.69153 0.0
C769 C 0.72078 0.50323 0.67253 0.0
C770 C 0.93206 0.51017 0.68983 0.0
C771 C 0.75096 0.54928 0.6814 0.0
C772 C 0.7251 0.56276 0.68305 0.0
C773 C 0.70688 0.57016 0.67337 0.0
C774 C 0.69473 0.58338 0.67432 0.0
C775 C 0.70038 0.58953 0.68499 0.0
C776 C 0.71468 0.58201 0.69478 0.0
C777 C 0.72737 0.56873 0.69381 0.0
C778 C 0.77745 0.52054 0.71285 0.0
C779 C 0.57068 0.51319 0.69499 0.0
O780 O 0.80092 0.48347 0.70732 0.0
O781 O 0.69977 0.47787 0.69565 0.0
O782 O 0.67796 0.49479 0.67821 0.0
O783 O 0.77763 0.50819 0.67871 0.0
O784 O 0.89001 0.50158 0.69588 0.0
O785 O 0.89083 0.51921 0.6843 0.0
O786 O 0.69262 0.54065 0.67937 0.0
O787 O 0.81308 0.54497 0.6877 0.0
O788 O 0.81876 0.52932 0.70738 0.0
O789 O 0.72337 0.51537 0.70639 0.0
O790 O 0.61314 0.52171 0.68889 0.0
O791 O 0.61163 0.50426 0.70073 0.0
H792 H 0.81186 0.45907 0.72034 0.0
H793 H 0.85724 0.43674 0.7192 0.0
H794 H 0.82268 0.43747 0.68259 0.0
H795 H 0.77882 0.45995 0.68378 0.0
H796 H 0.70507 0.56577 0.66498 0.0
H797 H 0.68239 0.58884 0.66663 0.0
H798 H 0.71971 0.58644 0.70312 0.0
H799 H 0.74175 0.56322 0.70141 0.0
Nd800 Nd 0.50511 0.50188 0.44047 0.0
Nd801 Nd 0.50013 0.53156 0.44501 0.0
C802 C 0.48383 0.47726 0.4364 0.0
C803 C 0.46969 0.46334 0.43469 0.0
C804 C 0.50288 0.45688 0.42514 0.0
C805 C 0.49368 0.44355 0.42407 0.0
C806 C 0.45113 0.4364 0.43255 0.0
C807 C 0.41722 0.44297 0.44202 0.0
C808 C 0.42626 0.45623 0.44306 0.0
C809 C 0.5383 0.50971 0.46255 0.0
C810 C 0.32195 0.51664 0.44202 0.0
C811 C 0.50599 0.55415 0.45532 0.0
C812 C 0.53825 0.56741 0.45426 0.0
C813 C 0.55623 0.57432 0.46424 0.0
C814 C 0.58089 0.58718 0.46366 0.0
C815 C 0.58811 0.59346 0.45306 0.0
C816 C 0.57234 0.58639 0.44303 0.0
C817 C 0.54745 0.57348 0.44362 0.0
C818 C 0.49334 0.5277 0.42161 0.0
C819 C 0.68278 0.51707 0.43955 0.0
O820 O 0.52894 0.48453 0.42953 0.0
O821 O 0.44899 0.48327 0.44504 0.0
O822 O 0.57896 0.5006 0.45739 0.0
O823 O 0.48139 0.51424 0.45613 0.0
O824 O 0.36536 0.50723 0.43721 0.0
O825 O 0.36021 0.52617 0.44736 0.0
O826 O 0.56165 0.54505 0.45719 0.0
O827 O 0.44466 0.55067 0.44842 0.0
O828 O 0.49547 0.53886 0.42648 0.0
O829 O 0.49817 0.51908 0.42913 0.0
O830 O 0.64294 0.52671 0.44462 0.0
O831 O 0.64181 0.50694 0.43557 0.0
H832 H 0.5368 0.46209 0.41855 0.0
H833 H 0.51977 0.43887 0.41659 0.0
H834 H 0.38541 0.43782 0.44882 0.0
H835 H 0.40051 0.46087 0.45059 0.0
H836 H 0.54984 0.56982 0.47254 0.0
H837 H 0.59408 0.59221 0.47155 0.0
H838 H 0.57682 0.59091 0.43473 0.0
H839 H 0.53394 0.56832 0.4358 0.0
Nd840 Nd 0.34424 0.27738 0.43886 0.0
Nd841 Nd 0.35351 0.2475 0.44499 0.0
C842 C 0.34617 0.29965 0.42805 0.0
C843 C 0.36812 0.31332 0.42951 0.0
C844 C 0.40294 0.32009 0.42027 0.0
C845 C 0.41693 0.3333 0.42103 0.0
C846 C 0.39596 0.34007 0.43105 0.0
C847 C 0.36316 0.33318 0.44042 0.0
C848 C 0.34954 0.31994 0.43967 0.0
C849 C 0.34663 0.27391 0.46249 0.0
C850 C 0.52643 0.26371 0.44459 0.0
C851 C 0.34213 0.22404 0.45359 0.0
C852 C 0.30498 0.21112 0.45182 0.0
C853 C 0.24965 0.20604 0.46008 0.0
C854 C 0.22172 0.19333 0.45935 0.0
C855 C 0.24893 0.18533 0.45036 0.0
C856 C 0.30219 0.19057 0.44188 0.0
C857 C 0.32999 0.2033 0.44261 0.0
C858 C 0.38158 0.25374 0.42239 0.0
C859 C 0.16604 0.26098 0.44029 0.0
O860 O 0.40878 0.29139 0.4274 0.0
O861 O 0.28063 0.29535 0.43382 0.0
O862 O 0.34262 0.2851 0.45769 0.0
O863 O 0.3507 0.26566 0.45472 0.0
O864 O 0.48629 0.27212 0.43807 0.0
O865 O 0.48463 0.25489 0.45046 0.0
O866 O 0.29115 0.23339 0.45657 0.0
O867 O 0.40273 0.22775 0.44668 0.0
O868 O 0.41719 0.24416 0.42754 0.0
O869 O 0.3271 0.25896 0.42884 0.0
O870 O 0.20863 0.25076 0.44379 0.0
O871 O 0.20419 0.27166 0.43701 0.0
H872 H 0.41732 0.31519 0.41233 0.0
H873 H 0.44144 0.33829 0.41361 0.0
H874 H 0.3475 0.33804 0.44833 0.0
H875 H 0.32296 0.31494 0.44695 0.0
H876 H 0.22963 0.21181 0.46729 0.0
H877 H 0.17951 0.18974 0.46592 0.0
H878 H 0.32515 0.1847 0.4349 0.0
H879 H 0.373 0.20687 0.43611 0.0
Nd880 Nd 0.50465 0.27572 0.32046 0.0
Nd881 Nd 0.49035 0.24787 0.31507 0.0
C882 C 0.49616 0.29936 0.32884 0.0
C883 C 0.46751 0.31273 0.32707 0.0
C884 C 0.4201 0.3188 0.33568 0.0
C885 C 0.40242 0.33192 0.33507 0.0
C886 C 0.43217 0.33933 0.32584 0.0
C887 C 0.47699 0.33311 0.317 0.0
C888 C 0.49455 0.31997 0.31761 0.0
C889 C 0.52302 0.27041 0.2974 0.0
C890 C 0.31674 0.26333 0.31545 0.0
C891 C 0.498 0.22397 0.30727 0.0
C892 C 0.53811 0.21121 0.30841 0.0
C893 C 0.55791 0.2043 0.29847 0.0
C894 C 0.58516 0.19157 0.29913 0.0
C895 C 0.59312 0.1854 0.30976 0.0
C896 C 0.57656 0.19251 0.31976 0.0
C897 C 0.54911 0.20528 0.31909 0.0
C898 C 0.46602 0.25367 0.3379 0.0
C899 C 0.67829 0.26004 0.32031 0.0
O900 O 0.43932 0.29057 0.33107 0.0
O901 O 0.55877 0.29513 0.32254 0.0
O902 O 0.56296 0.27947 0.30268 0.0
O903 O 0.46987 0.26518 0.30399 0.0
O904 O 0.35975 0.27195 0.32136 0.0
O905 O 0.35693 0.25418 0.30986 0.0
O906 O 0.54275 0.23334 0.30292 0.0
O907 O 0.44702 0.22772 0.31543 0.0
O908 O 0.42248 0.24523 0.33232 0.0
O909 O 0.5236 0.25837 0.33165 0.0
O910 O 0.6355 0.25129 0.31456 0.0
O911 O 0.63808 0.26936 0.32564 0.0
H912 H 0.39888 0.31347 0.34309 0.0
H913 H 0.3664 0.3363 0.34193 0.0
H914 H 0.50159 0.33849 0.30981 0.0
H915 H 0.53167 0.31559 0.31085 0.0
H916 H 0.54981 0.20865 0.29014 0.0
H917 H 0.59888 0.18649 0.29126 0.0
H918 H 0.58156 0.18807 0.32808 0.0
H919 H 0.53406 0.21037 0.3269 0.0
Nd920 Nd 0.33265 0.50138 0.31883 0.0
Nd921 Nd 0.33551 0.53098 0.31484 0.0
C922 C 0.35379 0.47669 0.32249 0.0
C923 C 0.36801 0.46276 0.3241 0.0
C924 C 0.3288 0.45605 0.33308 0.0
C925 C 0.33603 0.44267 0.33383 0.0
C926 C 0.38223 0.43573 0.32557 0.0
C927 C 0.42319 0.44253 0.31677 0.0
C928 C 0.41614 0.45585 0.31605 0.0
C929 C 0.29781 0.5095 0.29687 0.0
C930 C 0.51484 0.51631 0.31725 0.0
C931 C 0.32735 0.55403 0.30543 0.0
C932 C 0.29773 0.56734 0.30766 0.0
C933 C 0.22335 0.57193 0.30242 0.0
C934 C 0.19859 0.58475 0.30368 0.0
C935 C 0.24801 0.59335 0.31013 0.0
C936 C 0.3218 0.5887 0.31551 0.0
C937 C 0.3464 0.57587 0.31428 0.0
C938 C 0.34466 0.52685 0.33819 0.0
C939 C 0.15405 0.51617 0.32005 0.0
O940 O 0.3082 0.48383 0.32941 0.0
O941 O 0.38971 0.48286 0.31403 0.0
O942 O 0.25776 0.5003 0.30196 0.0
O943 O 0.35478 0.514 0.3033 0.0
O944 O 0.47246 0.50678 0.32202 0.0
O945 O 0.47536 0.52583 0.31208 0.0
O946 O 0.26957 0.54515 0.3038 0.0
O947 O 0.39325 0.54987 0.31118 0.0
O948 O 0.34154 0.53803 0.33343 0.0
O949 O 0.33967 0.51827 0.33061 0.0
O950 O 0.19306 0.52585 0.31496 0.0
O951 O 0.19611 0.50616 0.32401 0.0
H952 H 0.29086 0.46108 0.33938 0.0
H953 H 0.30322 0.43775 0.34068 0.0
H954 H 0.46061 0.43755 0.31039 0.0
H955 H 0.44727 0.4607 0.30901 0.0
H956 H 0.18509 0.56567 0.29713 0.0
H957 H 0.14203 0.588 0.29929 0.0
H958 H 0.36088 0.59499 0.32066 0.0
H959 H 0.40441 0.57273 0.31839 0.0
Nd960 Nd 0.60121 0.9988 0.06394 0.0
Nd961 Nd 0.58572 0.02646 0.06936 0.0
C962 C 0.59389 0.9749 0.05612 0.0
C963 C 0.55432 0.96209 0.05732 0.0
C964 C 0.53102 0.95538 0.04743 0.0
C965 C 0.50435 0.94261 0.04806 0.0
C966 C 0.50049 0.93621 0.05863 0.0
C967 C 0.52049 0.94312 0.06861 0.0
C968 C 0.54736 0.95593 0.06796 0.0
C969 C 0.62478 1.00436 0.08681 0.0
C970 C 0.4128 1.01073 0.06934 0.0
C971 C 0.59119 0.05022 0.07752 0.0
C972 C 0.61949 0.06357 0.07578 0.0
C973 C 0.64017 0.07097 0.08537 0.0
C974 C 0.65699 0.08406 0.0843 0.0
C975 C 0.6537 0.09011 0.07356 0.0
C976 C 0.63521 0.08257 0.06387 0.0
C977 C 0.6182 0.06943 0.06497 0.0
C978 C 0.56737 0.02113 0.04629 0.0
C979 C 0.77443 0.01432 0.06434 0.0
O980 O 0.54851 0.98424 0.05186 0.0
O981 O 0.6455 0.9787 0.06416 0.0
O982 O 0.66874 0.99603 0.08115 0.0
O983 O 0.56731 1.00914 0.08061 0.0
O984 O 0.45584 1.00212 0.06344 0.0
O985 O 0.45299 0.01996 0.07478 0.0
O986 O 0.64784 0.04152 0.08007 0.0
O987 O 0.53109 0.04589 0.07088 0.0
O988 O 0.52486 0.02981 0.05172 0.0
O989 O 0.62182 0.01612 0.05279 0.0
O990 O 0.73097 0.02291 0.07025 0.0
O991 O 0.73457 1.00518 0.05873 0.0
H992 H 0.53599 0.95991 0.03912 0.0
H993 H 0.4879 0.9377 0.04022 0.0
H994 H 0.51869 0.9385 0.07688 0.0
H995 H 0.56515 0.96086 0.07575 0.0
H996 H 0.64055 0.06668 0.09381 0.0
H997 H 0.66954 0.08952 0.09198 0.0
H998 H 0.63323 0.08683 0.05545 0.0
H999 H 0.6022 0.06392 0.05743 0.0
Nd1000 Nd 0.73614 0.27841 0.065 0.0
Nd1001 Nd 0.74941 0.2506 0.06994 0.0
C1002 C 0.74494 0.30244 0.05757 0.0
C1003 C 0.78603 0.31512 0.05885 0.0
C1004 C 0.80881 0.32193 0.04899 0.0
C1005 C 0.83834 0.33455 0.04974 0.0
C1006 C 0.84578 0.3407 0.06041 0.0
C1007 C 0.825 0.33371 0.07033 0.0
C1008 C 0.79544 0.32106 0.06956 0.0
C1009 C 0.71084 0.27236 0.08776 0.0
C1010 C 0.92328 0.2661 0.07035 0.0
C1011 C 0.74255 0.22674 0.07778 0.0
C1012 C 0.71692 0.21328 0.07595 0.0
C1013 C 0.69667 0.2058 0.08552 0.0
C1014 C 0.68496 0.19258 0.08445 0.0
C1015 C 0.69313 0.18652 0.07376 0.0
C1016 C 0.70947 0.19412 0.06407 0.0
C1017 C 0.7217 0.20739 0.06516 0.0
C1018 C 0.77002 0.25638 0.047 0.0
C1019 C 0.56192 0.26314 0.06501 0.0
O1020 O 0.78881 0.29308 0.05304 0.0
O1021 O 0.69412 0.29862 0.06572 0.0
O1022 O 0.66752 0.28085 0.08223 0.0
O1023 O 0.76835 0.26766 0.08149 0.0
O1024 O 0.88137 0.27488 0.06453 0.0
O1025 O 0.88189 0.25687 0.07562 0.0
O1026 O 0.68423 0.2353 0.08005 0.0
O1027 O 0.80439 0.23121 0.07149 0.0
O1028 O 0.81124 0.24749 0.0523 0.0
O1029 O 0.71535 0.26136 0.05353 0.0
O1030 O 0.60432 0.2544 0.07084 0.0
O1031 O 0.60288 0.27231 0.05957 0.0
H1032 H 0.80121 0.31762 0.04063 0.0
H1033 H 0.85243 0.33962 0.0419 0.0
H1034 H 0.83103 0.33805 0.0787 0.0
H1035 H 0.77827 0.31603 0.07732 0.0
H1036 H 0.69295 0.21013 0.09392 0.0
H1037 H 0.67101 0.18706 0.09205 0.0
H1038 H 0.71648 0.18975 0.05573 0.0
H1039 H 0.73771 0.21296 0.05766 0.0
Nd1040 Nd 0.59488 0.27998 0.19465 0.0
Nd1041 Nd 0.5846 0.24986 0.18938 0.0
C1042 C 0.58678 0.30371 0.20279 0.0
C1043 C 0.5479 0.31656 0.20164 0.0
C1044 C 0.52838 0.32349 0.21158 0.0
C1045 C 0.50228 0.33628 0.21092 0.0
C1046 C 0.49515 0.3425 0.2003 0.0
C1047 C 0.51139 0.33536 0.1903 0.0
C1048 C 0.53775 0.32253 0.19097 0.0
C1049 C 0.62273 0.27287 0.17226 0.0
C1050 C 0.40706 0.26655 0.1902 0.0
C1051 C 0.5835 0.22714 0.17927 0.0
C1052 C 0.60614 0.21351 0.18079 0.0
C1053 C 0.61987 0.20593 0.17108 0.0
C1054 C 0.63484 0.19278 0.17211 0.0
C1055 C 0.63662 0.18685 0.18292 0.0
C1056 C 0.62405 0.19455 0.19268 0.0
C1057 C 0.60899 0.20775 0.19163 0.0
C1058 C 0.58796 0.25422 0.21289 0.0
C1059 C 0.76762 0.26362 0.1946 0.0
O1060 O 0.54022 0.29432 0.20679 0.0
O1061 O 0.63985 0.30003 0.19482 0.0
O1062 O 0.65951 0.2825 0.17719 0.0
O1063 O 0.56782 0.26791 0.17881 0.0
O1064 O 0.4498 0.27689 0.1934 0.0
O1065 O 0.44502 0.25571 0.18729 0.0
O1066 O 0.64553 0.23542 0.17799 0.0
O1067 O 0.52054 0.23154 0.18548 0.0
O1068 O 0.58299 0.24288 0.20839 0.0
O1069 O 0.59188 0.26219 0.20491 0.0
O1070 O 0.72713 0.25487 0.18847 0.0
O1071 O 0.72625 0.27276 0.20014 0.0
H1072 H 0.53583 0.31911 0.2199 0.0
H1073 H 0.48877 0.34137 0.21879 0.0
H1074 H 0.507 0.33983 0.18198 0.0
H1075 H 0.55261 0.31742 0.18316 0.0
H1076 H 0.61716 0.21015 0.16263 0.0
H1077 H 0.64273 0.1872 0.16438 0.0
H1078 H 0.62596 0.19038 0.20114 0.0
H1079 H 0.59848 0.21343 0.19925 0.0
Nd1080 Nd 0.73379 0.99874 0.1943 0.0
Nd1081 Nd 0.74937 0.02645 0.18915 0.0
C1082 C 0.74268 0.97465 0.20166 0.0
C1083 C 0.77848 0.96171 0.19933 0.0
C1084 C 0.84906 0.95723 0.20552 0.0
C1085 C 0.87663 0.94452 0.2044 0.0
C1086 C 0.8338 0.93591 0.19714 0.0
C1087 C 0.76445 0.94049 0.19075 0.0
C1088 C 0.73707 0.9532 0.19185 0.0
C1089 C 0.71054 1.00447 0.17146 0.0
C1090 C 0.92224 1.01081 0.1892 0.0
C1091 C 0.74394 0.05028 0.18119 0.0
C1092 C 0.71611 0.06371 0.18273 0.0
C1093 C 0.69389 0.07082 0.17302 0.0
C1094 C 0.67992 0.08402 0.17379 0.0
C1095 C 0.68779 0.09046 0.1843 0.0
C1096 C 0.70616 0.08321 0.19414 0.0
C1097 C 0.72058 0.06997 0.19336 0.0
C1098 C 0.76869 0.02083 0.21215 0.0
C1099 C 0.56087 0.01432 0.19429 0.0
O1100 O 0.79374 0.98372 0.20518 0.0
O1101 O 0.68358 0.97893 0.19483 0.0
O1102 O 0.6672 0.99601 0.17702 0.0
O1103 O 0.76774 1.00924 0.17772 0.0
O1104 O 0.87897 1.00222 0.19509 0.0
O1105 O 0.88216 0.02 0.18372 0.0
O1106 O 0.68773 0.04158 0.17847 0.0
O1107 O 0.80321 0.04596 0.18796 0.0
O1108 O 0.81101 0.02959 0.20679 0.0
O1109 O 0.71386 0.01593 0.20564 0.0
O1110 O 0.60408 0.02291 0.18837 0.0
O1111 O 0.60107 1.00516 0.19982 0.0
H1112 H 0.88158 0.96345 0.2115 0.0
H1113 H 0.92962 0.94131 0.20956 0.0
H1114 H 0.73063 0.93421 0.18496 0.0
H1115 H 0.68199 0.95624 0.18702 0.0
H1116 H 0.69033 0.06622 0.16473 0.0
H1117 H 0.6644 0.08924 0.16607 0.0
H1118 H 0.71304 0.08786 0.20236 0.0
H1119 H 0.73802 0.06471 0.20097 0.0
Nd1120 Nd 0.47997 1.0014 0.93877 0.0
Nd1121 Nd 0.47761 0.03143 0.94488 0.0
C1122 C 0.45133 0.97799 0.931 0.0
C1123 C 0.46894 0.96409 0.93159 0.0
C1124 C 0.4667 0.95694 0.92145 0.0
C1125 C 0.4682 0.94356 0.92176 0.0
C1126 C 0.47195 0.93699 0.93224 0.0
C1127 C 0.47891 0.94418 0.94238 0.0
C1128 C 0.47705 0.95762 0.94206 0.0
C1129 C 0.50958 1.00762 0.96133 0.0
C1130 C 0.29893 0.01685 0.94142 0.0
C1131 C 0.48427 0.05374 0.95564 0.0
C1132 C 0.51605 0.06701 0.95448 0.0
C1133 C 0.53286 0.07415 0.96437 0.0
C1134 C 0.55706 0.08702 0.96363 0.0
C1135 C 0.56499 0.0931 0.95294 0.0
C1136 C 0.55028 0.0858 0.943 0.0
C1137 C 0.5259 0.07289 0.94376 0.0
C1138 C 0.47256 0.02793 0.9213 0.0
C1139 C 0.65929 0.01652 0.9396 0.0
O1140 O 0.50806 0.98564 0.92641 0.0
O1141 O 0.40965 0.98316 0.93954 0.0
O1142 O 0.54359 0.99784 0.95619 0.0
O1143 O 0.45702 1.01313 0.95483 0.0
O1144 O 0.3416 1.00782 0.93594 0.0
O1145 O 0.33782 0.02594 0.94728 0.0
O1146 O 0.54064 0.04464 0.95716 0.0
O1147 O 0.4215 0.05031 0.94895 0.0
O1148 O 0.47489 0.03909 0.92619 0.0
O1149 O 0.47614 0.01953 0.92895 0.0
O1150 O 0.6193 0.02598 0.94494 0.0
O1151 O 0.61857 1.0067 0.93496 0.0
H1152 H 0.46016 0.96172 0.91328 0.0
H1153 H 0.46428 0.93834 0.91377 0.0
H1154 H 0.48157 0.93944 0.95059 0.0
H1155 H 0.47857 0.96292 0.95002 0.0
H1156 H 0.52594 0.0698 0.97273 0.0
H1157 H 0.5694 0.09223 0.97146 0.0
H1158 H 0.55522 0.09016 0.93463 0.0
H1159 H 0.51326 0.06757 0.936 0.0
Nd1160 Nd 0.34543 0.77762 0.93979 0.0
Nd1161 Nd 0.35456 0.74759 0.94503 0.0
C1162 C 0.34708 0.80049 0.92998 0.0
C1163 C 0.36492 0.81427 0.93214 0.0
C1164 C 0.44823 0.8192 0.93186 0.0
C1165 C 0.46274 0.83242 0.93284 0.0
C1166 C 0.39427 0.84101 0.93401 0.0
C1167 C 0.31129 0.83601 0.93456 0.0
C1168 C 0.29684 0.82284 0.9336 0.0
C1169 C 0.34563 0.77335 0.96332 0.0
C1170 C 0.52743 0.76377 0.94507 0.0
C1171 C 0.34278 0.72382 0.95297 0.0
C1172 C 0.30782 0.71086 0.95058 0.0
C1173 C 0.2422 0.70592 0.95746 0.0
C1174 C 0.21497 0.69322 0.95621 0.0
C1175 C 0.25322 0.68508 0.9481 0.0
C1176 C 0.31753 0.69012 0.94103 0.0
C1177 C 0.34454 0.70284 0.94226 0.0
C1178 C 0.38345 0.75457 0.92261 0.0
C1179 C 0.16718 0.76121 0.94064 0.0
O1180 O 0.41118 0.79246 0.92942 0.0
O1181 O 0.27989 0.79556 0.93494 0.0
O1182 O 0.34212 0.78467 0.95878 0.0
O1183 O 0.35061 0.76534 0.95536 0.0
O1184 O 0.48727 0.77233 0.93872 0.0
O1185 O 0.4855 0.75482 0.95077 0.0
O1186 O 0.28971 0.73295 0.95581 0.0
O1187 O 0.40557 0.72791 0.9466 0.0
O1188 O 0.41849 0.74479 0.92752 0.0
O1189 O 0.32882 0.75959 0.92915 0.0
O1190 O 0.20971 0.75089 0.94391 0.0
O1191 O 0.20545 0.77198 0.93762 0.0
H1192 H 0.50218 0.81289 0.93063 0.0
H1193 H 0.5274 0.83594 0.93227 0.0
H1194 H 0.25709 0.8423 0.93562 0.0
H1195 H 0.23185 0.81939 0.93376 0.0
H1196 H 0.21346 0.71179 0.96406 0.0
H1197 H 0.16603 0.68965 0.96189 0.0
H1198 H 0.34763 0.6842 0.93459 0.0
H1199 H 0.39554 0.70627 0.93683 0.0
Nd1200 Nd 0.50264 0.77721 0.82005 0.0
Nd1201 Nd 0.48748 0.74929 0.81536 0.0
C1202 C 0.49517 0.80127 0.82753 0.0
C1203 C 0.46736 0.81468 0.82552 0.0
C1204 C 0.41093 0.82049 0.83326 0.0
C1205 C 0.39413 0.83365 0.83269 0.0
C1206 C 0.43383 0.8414 0.8244 0.0
C1207 C 0.48772 0.83546 0.81636 0.0
C1208 C 0.50444 0.82228 0.81692 0.0
C1209 C 0.52252 0.77111 0.79713 0.0
C1210 C 0.31447 0.76483 0.81517 0.0
C1211 C 0.4964 0.72502 0.8084 0.0
C1212 C 0.5334 0.71213 0.81062 0.0
C1213 C 0.60044 0.70748 0.80381 0.0
C1214 C 0.6283 0.69477 0.80482 0.0
C1215 C 0.5893 0.68632 0.81261 0.0
C1216 C 0.52363 0.69107 0.81961 0.0
C1217 C 0.49597 0.70378 0.81862 0.0
C1218 C 0.46278 0.75568 0.83805 0.0
C1219 C 0.67567 0.76154 0.82035 0.0
O1220 O 0.43836 0.7926 0.83016 0.0
O1221 O 0.55708 0.7967 0.82129 0.0
O1222 O 0.56405 0.78005 0.80235 0.0
O1223 O 0.46799 0.76623 0.80373 0.0
O1224 O 0.35751 0.77355 0.82095 0.0
O1225 O 0.35478 0.75555 0.80976 0.0
O1226 O 0.54573 0.73409 0.80444 0.0
O1227 O 0.43919 0.72936 0.81552 0.0
O1228 O 0.41959 0.74709 0.83262 0.0
O1229 O 0.52064 0.76024 0.83175 0.0
O1230 O 0.6327 0.75274 0.81467 0.0
O1231 O 0.63542 0.77092 0.82559 0.0
H1232 H 0.38191 0.81493 0.84004 0.0
H1233 H 0.35105 0.8378 0.8389 0.0
H1234 H 0.52007 0.84109 0.80991 0.0
H1235 H 0.54887 0.81816 0.81087 0.0
H1236 H 0.62974 0.71356 0.79743 0.0
H1237 H 0.67834 0.69144 0.79919 0.0
H1238 H 0.49287 0.68493 0.82582 0.0
H1239 H 0.44365 0.70695 0.82395 0.0
Nd1240 Nd 0.32909 1.00082 0.82118 0.0
Nd1241 Nd 0.33289 0.03061 0.81378 0.0
C1242 C 0.3351 0.97852 0.83196 0.0
C1243 C 0.35301 0.96474 0.83002 0.0
C1244 C 0.40501 0.95812 0.83775 0.0
C1245 C 0.4171 0.94488 0.83673 0.0
C1246 C 0.37707 0.93787 0.82796 0.0
C1247 C 0.3268 0.9446 0.82002 0.0
C1248 C 0.31492 0.95787 0.82103 0.0
C1249 C 0.32828 1.00372 0.79741 0.0
C1250 C 0.5086 0.01492 0.81512 0.0
C1251 C 0.31832 0.05311 0.80338 0.0
C1252 C 0.2861 0.06631 0.80467 0.0
C1253 C 0.27899 0.074 0.79492 0.0
C1254 C 0.25468 0.08684 0.79586 0.0
C1255 C 0.23685 0.09232 0.80659 0.0
C1256 C 0.2418 0.08446 0.81636 0.0
C1257 C 0.26651 0.07157 0.81541 0.0
C1258 C 0.36524 0.02618 0.83659 0.0
C1259 C 0.1485 0.01665 0.81949 0.0
O1260 O 0.39939 0.98652 0.83168 0.0
O1261 O 0.26587 0.98324 0.82739 0.0
O1262 O 0.32487 0.99263 0.80238 0.0
O1263 O 0.33341 1.01195 0.80511 0.0
O1264 O 0.46949 1.0068 0.82204 0.0
O1265 O 0.4657 0.02323 0.8088 0.0
O1266 O 0.26254 0.04389 0.8023 0.0
O1267 O 0.3835 0.04986 0.80966 0.0
O1268 O 0.39222 0.036 0.83087 0.0
O1269 O 0.31266 0.01982 0.83064 0.0
O1270 O 0.18917 0.02673 0.81532 0.0
O1271 O 0.18847 1.00633 0.8233 0.0
H1272 H 0.43517 0.96318 0.84475 0.0
H1273 H 0.4576 0.94012 0.84288 0.0
H1274 H 0.29434 0.93956 0.81321 0.0
H1275 H 0.27442 0.9627 0.81492 0.0
H1276 H 0.29362 0.07012 0.78656 0.0
H1277 H 0.25002 0.0925 0.78813 0.0
H1278 H 0.22898 0.08836 0.82476 0.0
H1279 H 0.27178 0.06578 0.82305 0.0
H1280 H 0.05735 0.4154 0.045 0.0
H1281 H 0.78488 0.35965 0.07468 0.0
H1282 H 0.89235 0.42202 0.07391 0.0
H1283 H 0.96649 0.35328 0.04756 0.0
H1284 H 0.82377 0.38235 0.07481 0.0
H1285 H 1.02351 0.39264 0.04588 0.0
C1286 C 1.01345 0.41209 0.0515 0.0
C1287 C 0.97714 0.42072 0.05933 0.0
C1288 C 0.85531 0.37597 0.06887 0.0
C1289 C 0.93868 0.39445 0.06048 0.0
C1290 C 0.83357 0.36296 0.06883 0.0
C1291 C 0.87213 0.35445 0.06106 0.0
C1292 C 0.91604 0.38058 0.06106 0.0
C1293 C 0.93385 0.35944 0.05358 0.0
C1294 C 0.99462 0.39903 0.05205 0.0
C1295 C 0.92223 0.41574 0.06773 0.0
N1296 N 0.95354 0.37212 0.05375 0.0
N1297 N 0.90439 0.40297 0.06804 0.0
H1298 H 0.55305 0.91722 0.04404 0.0
H1299 H 0.29333 0.86088 0.0749 0.0
H1300 H 0.40153 0.92322 0.07436 0.0
H1301 H 0.46073 0.85513 0.04608 0.0
H1302 H 0.33281 0.88356 0.07513 0.0
H1303 H 0.51862 0.89447 0.04473 0.0
C1304 C 0.51193 0.91379 0.05081 0.0
C1305 C 0.47963 0.92224 0.0591 0.0
C1306 C 0.3611 0.87732 0.06878 0.0
C1307 C 0.44063 0.89597 0.06003 0.0
C1308 C 0.33904 0.86432 0.06869 0.0
C1309 C 0.37335 0.85599 0.06042 0.0
C1310 C 0.41788 0.8821 0.06054 0.0
C1311 C 0.43133 0.86114 0.05249 0.0
C1312 C 0.4928 0.90073 0.05125 0.0
C1313 C 0.4283 0.91709 0.06781 0.0
N1314 N 0.4514 0.87382 0.05274 0.0
N1315 N 0.41013 0.90432 0.06802 0.0
H1316 H 0.99506 0.92555 0.19699 0.0
H1317 H 0.83403 0.85256 0.19684 0.0
H1318 H 0.73031 0.9147 0.1961 0.0
H1319 H 0.09879 0.86343 0.19611 0.0
H1320 H 0.79479 0.87523 0.19654 0.0
H1321 H 1.03426 0.90288 0.19665 0.0
C1322 C 0.94509 0.91842 0.19674 0.0
C1323 C 0.85914 0.92211 0.19657 0.0
C1324 C 0.86149 0.87266 0.19641 0.0
C1325 C 0.90376 0.89602 0.19612 0.0
C1326 C 0.884 0.85969 0.19664 0.0
C1327 C 0.96996 0.85601 0.19649 0.0
C1328 C 0.92529 0.8821 0.1961 0.0
C1329 C 1.03171 0.86575 0.19607 0.0
C1330 C 0.96757 0.90545 0.19649 0.0
C1331 C 0.79738 0.91237 0.19609 0.0
N1332 N 1.00822 0.8783 0.19593 0.0
N1333 N 0.82085 0.89982 0.19592 0.0
H1334 H 0.28497 0.4177 0.18432 0.0
H1335 H 0.5534 0.36172 0.21422 0.0
H1336 H 0.46275 0.42388 0.21184 0.0
H1337 H 0.39135 0.35529 0.18506 0.0
H1338 H 0.51947 0.38448 0.21343 0.0
H1339 H 0.32341 0.39498 0.1842 0.0
C1340 C 0.33272 0.41435 0.19027 0.0
C1341 C 0.37033 0.42281 0.19814 0.0
C1342 C 0.49123 0.37812 0.20719 0.0
C1343 C 0.41372 0.39665 0.19815 0.0
C1344 C 0.5101 0.36506 0.20769 0.0
C1345 C 0.47471 0.35647 0.19975 0.0
C1346 C 0.43619 0.38276 0.19871 0.0
C1347 C 0.42056 0.36152 0.19132 0.0
C1348 C 0.35419 0.40132 0.19024 0.0
C1349 C 0.43082 0.41776 0.20574 0.0
N1350 N 0.40271 0.3743 0.19105 0.0
N1351 N 0.4503 0.40507 0.20557 0.0
H1352 H 0.97929 0.6127 0.9487 0.0
H1353 H 0.35715 0.66418 0.94502 0.0
H1354 H 0.24465 0.60243 0.94646 0.0
H1355 H 0.09329 0.67439 0.94958 0.0
H1356 H 0.31647 0.6416 0.94445 0.0
H1357 H 1.01916 0.6353 0.94796 0.0
C1358 C 0.04596 0.61517 0.94795 0.0
C1359 C 0.10863 0.60557 0.94763 0.0
C1360 C 0.26738 0.64877 0.94555 0.0
C1361 C 0.15493 0.63158 0.94692 0.0
C1362 C 0.2905 0.66171 0.94579 0.0
C1363 C 0.22862 0.67127 0.94735 0.0
C1364 C 0.18157 0.64529 0.94683 0.0
C1365 C 0.14341 0.66739 0.9485 0.0
C1366 C 0.06872 0.62811 0.94761 0.0
C1367 C 0.1941 0.60945 0.94686 0.0
N1368 N 0.12249 0.65473 0.94822 0.0
N1369 N 0.21464 0.62211 0.94652 0.0
H1370 H 0.78452 0.16761 0.93651 0.0
H1371 H 0.5078 0.11261 0.9667 0.0
H1372 H 0.6128 0.17432 0.96469 0.0
H1373 H 0.67019 0.10556 0.93761 0.0
H1374 H 0.54508 0.13526 0.96586 0.0
H1375 H 0.74144 0.14508 0.93635 0.0
C1376 C 0.73713 0.16441 0.94259 0.0
C1377 C 0.70263 0.17297 0.95066 0.0
C1378 C 0.5726 0.12879 0.95964 0.0
C1379 C 0.65383 0.14701 0.95062 0.0
C1380 C 0.55176 0.11579 0.96016 0.0
C1381 C 0.58633 0.10706 0.95227 0.0
C1382 C 0.62875 0.13322 0.95117 0.0
C1383 C 0.64146 0.1119 0.94383 0.0
C1384 C 0.713 0.15149 0.94254 0.0
C1385 C 0.64239 0.16812 0.95843 0.0
N1386 N 0.6612 0.12462 0.94354 0.0
N1387 N 0.62025 0.15552 0.95823 0.0
H1388 H 0.21229 0.17434 0.79562 0.0
H1389 H 0.11612 0.10403 0.82023 0.0
H1390 H 1.00802 0.16645 0.81927 0.0
H1391 H 0.30916 0.11243 0.79508 0.0
H1392 H 0.08034 0.1269 0.82099 0.0
H1393 H 0.25269 0.1518 0.79622 0.0
C1394 C 0.17563 0.16787 0.80092 0.0
C1395 C 0.10604 0.17235 0.80732 0.0
C1396 C 0.13059 0.12372 0.81532 0.0
C1397 C 0.15279 0.14637 0.80814 0.0
C1398 C 0.15136 0.11067 0.81492 0.0
C1399 C 0.21536 0.10623 0.8075 0.0
C1400 C 0.17441 0.13244 0.8083 0.0
C1401 C 0.25831 0.11531 0.80077 0.0
C1402 C 0.19908 0.15497 0.8013 0.0
C1403 C 0.06242 0.16349 0.81424 0.0
N1404 N 0.23703 0.12792 0.80132 0.0
N1405 N 0.0862 0.15093 0.81442 0.0
H1406 H 0.75003 0.67586 0.81118 0.0
H1407 H 0.58945 0.6029 0.81441 0.0
H1408 H 0.4865 0.66515 0.81508 0.0
H1409 H 0.85372 0.61375 0.81199 0.0
H1410 H 0.55039 0.6256 0.81463 0.0
H1411 H 0.78907 0.65318 0.81144 0.0
C1412 C 0.70026 0.66877 0.81207 0.0
C1413 C 0.61472 0.67251 0.81311 0.0
C1414 C 0.61696 0.62301 0.81409 0.0
C1415 C 0.65923 0.64639 0.81348 0.0
C1416 C 0.63934 0.61003 0.8139 0.0
C1417 C 0.72515 0.60632 0.8132 0.0
C1418 C 0.68069 0.63245 0.81351 0.0
C1419 C 0.78686 0.61608 0.81271 0.0
C1420 C 0.72269 0.65579 0.81227 0.0
C1421 C 0.55335 0.6628 0.8144 0.0
N1422 N 0.76345 0.62863 0.81284 0.0
N1423 N 0.57673 0.65024 0.81451 0.0
H1424 H 0.89408 0.92342 0.57572 0.0
H1425 H 0.96616 0.85465 0.54656 0.0
H1426 H 0.05159 0.91699 0.54604 0.0
H1427 H 0.79032 0.86093 0.57436 0.0
H1428 H 1.00373 0.87731 0.54705 0.0
H1429 H 0.86111 0.90047 0.5762 0.0
C1430 C 0.92197 0.9172 0.56933 0.0
C1431 C 0.97527 0.92221 0.56078 0.0
C1432 C 0.95704 0.87375 0.55308 0.0
C1433 C 0.93764 0.89589 0.56126 0.0
C1434 C 0.93524 0.86078 0.55277 0.0
C1435 C 0.8744 0.85581 0.56037 0.0
C1436 C 0.91796 0.88192 0.56106 0.0
C1437 C 0.83806 0.86426 0.56839 0.0
C1438 C 0.90282 0.9041 0.56958 0.0
C1439 C 1.00897 0.91365 0.55267 0.0
N1440 N 0.86009 0.87688 0.56849 0.0
N1441 N 0.98966 0.90097 0.55312 0.0
H1442 H 0.51456 0.35338 0.56304 0.0
H1443 H 0.35771 0.42554 0.5524 0.0
H1444 H 0.2589 0.36329 0.55296 0.0
H1445 H 0.60561 0.41595 0.56564 0.0
H1446 H 0.32198 0.40274 0.55195 0.0
H1447 H 0.55057 0.37616 0.56348 0.0
C1448 C 0.46586 0.36031 0.56092 0.0
C1449 C 0.38344 0.35631 0.55793 0.0
C1450 C 0.38415 0.40562 0.55498 0.0
C1451 C 0.42471 0.38253 0.55834 0.0
C1452 C 0.40475 0.41865 0.5552 0.0
C1453 C 0.48487 0.42273 0.55907 0.0
C1454 C 0.44418 0.39651 0.55859 0.0
C1455 C 0.5427 0.41331 0.56272 0.0
C1456 C 0.48663 0.37335 0.56114 0.0
C1457 C 0.32364 0.36582 0.55512 0.0
N1458 N 0.52136 0.40068 0.56236 0.0
N1459 N 0.34541 0.37843 0.55541 0.0
H1460 H 1.04023 0.35928 0.68447 0.0
H1461 H 0.78901 0.41641 0.71551 0.0
H1462 H 0.87218 0.35401 0.71329 0.0
H1463 H 0.93853 0.42188 0.68495 0.0
H1464 H 0.82063 0.39357 0.71481 0.0
H1465 H 1.00363 0.38206 0.68427 0.0
C1466 C 0.99497 0.36284 0.69069 0.0
C1467 C 0.95962 0.35462 0.69895 0.0
C1468 C 0.84661 0.39973 0.70824 0.0
C1469 C 0.91843 0.38086 0.69886 0.0
C1470 C 0.8291 0.41284 0.70868 0.0
C1471 C 0.86167 0.42118 0.70033 0.0
C1472 C 0.89744 0.3948 0.69939 0.0
C1473 C 0.91161 0.41585 0.69155 0.0
C1474 C 0.97456 0.37591 0.69061 0.0
C1475 C 0.90235 0.35994 0.70688 0.0
N1476 N 0.92824 0.40303 0.69133 0.0
N1477 N 0.8839 0.37267 0.70666 0.0
H1478 H 0.38689 0.85272 0.68442 0.0
H1479 H 0.47092 0.92174 0.71254 0.0
H1480 H 0.55314 0.85928 0.71313 0.0
H1481 H 0.28561 0.91532 0.68598 0.0
H1482 H 0.50724 0.89903 0.71201 0.0
H1483 H 0.35471 0.87571 0.68397 0.0
C1484 C 0.41687 0.85898 0.6906 0.0
C1485 C 0.47241 0.85399 0.69888 0.0
C1486 C 0.45873 0.90257 0.70627 0.0
C1487 C 0.4357 0.88035 0.69842 0.0
C1488 C 0.43764 0.91557 0.7066 0.0
C1489 C 0.37452 0.92052 0.69935 0.0
C1490 C 0.41668 0.89435 0.69863 0.0
C1491 C 0.33515 0.91202 0.69166 0.0
C1492 C 0.39817 0.8721 0.69037 0.0
C1493 C 0.50877 0.8626 0.70672 0.0
N1494 N 0.35659 0.89937 0.69154 0.0
N1495 N 0.48985 0.87529 0.70629 0.0
H1496 H 0.11555 0.10735 0.43052 0.0
H1497 H 0.23595 0.16872 0.46847 0.0
H1498 H 0.12825 0.10715 0.46736 0.0
H1499 H 0.20863 0.17014 0.4318 0.0
H1500 H 0.19899 0.14606 0.46806 0.0
H1501 H 0.15262 0.13013 0.43065 0.0
C1502 C 0.12598 0.11207 0.43864 0.0
C1503 C 0.11875 0.10523 0.44895 0.0
C1504 C 0.20088 0.15131 0.46009 0.0
C1505 C 0.16191 0.13137 0.44914 0.0
C1506 C 0.2214 0.16433 0.46032 0.0
C1507 C 0.22504 0.17147 0.45015 0.0
C1508 C 0.18389 0.14526 0.44962 0.0
C1509 C 0.20745 0.16505 0.43985 0.0
C1510 C 0.1475 0.12508 0.4387 0.0
C1511 C 0.13431 0.11189 0.45918 0.0
N1512 N 0.18762 0.15235 0.43984 0.0
N1513 N 0.15491 0.12454 0.45901 0.0
H1514 H 0.80828 0.6684 0.4381 0.0
H1515 H 0.53132 0.61264 0.46716 0.0
H1516 H 0.64124 0.67404 0.46697 0.0
H1517 H 0.69333 0.60622 0.43791 0.0
H1518 H 0.56971 0.63525 0.46683 0.0
H1519 H 0.76474 0.64587 0.43737 0.0
C1520 C 0.76198 0.66496 0.44423 0.0
C1521 C 0.72887 0.6732 0.45266 0.0
C1522 C 0.59697 0.62893 0.46046 0.0
C1523 C 0.67933 0.6473 0.45193 0.0
C1524 C 0.57544 0.61596 0.46069 0.0
C1525 C 0.60968 0.60741 0.45262 0.0
C1526 C 0.65347 0.63353 0.45211 0.0
C1527 C 0.66495 0.61242 0.44428 0.0
C1528 C 0.73753 0.65205 0.44385 0.0
C1529 C 0.66981 0.66807 0.46045 0.0
N1530 N 0.68542 0.62512 0.44427 0.0
N1531 N 0.64724 0.65551 0.4599 0.0
H1532 H 0.08856 0.6039 0.31269 0.0
H1533 H 0.25139 0.67664 0.30886 0.0
H1534 H 0.35286 0.61443 0.30936 0.0
H1535 H 0.98857 0.66614 0.31393 0.0
H1536 H 0.28995 0.65394 0.3092 0.0
H1537 H 0.05088 0.62662 0.31332 0.0
C1538 C 0.13874 0.61097 0.31207 0.0
C1539 C 0.22412 0.60718 0.31095 0.0
C1540 C 0.22386 0.6566 0.31029 0.0
C1541 C 0.18128 0.63332 0.31173 0.0
C1542 C 0.2017 0.66958 0.31003 0.0
C1543 C 0.11648 0.67337 0.31135 0.0
C1544 C 0.1604 0.64726 0.3118 0.0
C1545 C 0.05518 0.66373 0.31301 0.0
C1546 C 0.11718 0.62397 0.31249 0.0
C1547 C 0.28633 0.61684 0.31036 0.0
N1548 N 0.07825 0.65116 0.31314 0.0
N1549 N 0.26368 0.62942 0.31071 0.0
H1550 H 0.62374 0.10369 0.29678 0.0
H1551 H 0.69834 0.17291 0.32499 0.0
H1552 H 0.80102 0.11039 0.32426 0.0
H1553 H 0.53642 0.16601 0.29589 0.0
H1554 H 0.73165 0.14997 0.32561 0.0
H1555 H 0.58628 0.12636 0.29705 0.0
C1556 C 0.655 0.10991 0.30287 0.0
C1557 C 0.71616 0.10505 0.31046 0.0
C1558 C 0.68888 0.15349 0.31909 0.0
C1559 C 0.67274 0.13118 0.31088 0.0
C1560 C 0.66954 0.16659 0.31876 0.0
C1561 C 0.61486 0.17147 0.31033 0.0
C1562 C 0.65295 0.14516 0.31098 0.0
C1563 C 0.58009 0.16278 0.30242 0.0
C1564 C 0.63326 0.12289 0.30305 0.0
C1565 C 0.75299 0.11362 0.31831 0.0
N1566 N 0.59965 0.15011 0.30295 0.0
N1567 N 0.731 0.12625 0.31829 0.0
H1568 H 1.00864 0.51388 0.10223 0.0
H1569 H 0.32935 0.51297 0.15527 0.0
H1570 H 0.2682 0.50113 0.09887 0.0
H1571 H 0.06624 0.50198 0.15864 0.0
H1572 H 0.30869 0.51512 0.13448 0.0
H1573 H 1.03029 0.5161 0.12302 0.0
C1574 C 0.07049 0.5118 0.10584 0.0
C1575 C 0.1366 0.50723 0.09889 0.0
C1576 C 0.25544 0.51238 0.13982 0.0
C1577 C 0.16207 0.50994 0.12246 0.0
C1578 C 0.2671 0.51119 0.15165 0.0
C1579 C 0.19958 0.50716 0.15862 0.0
C1580 C 0.17517 0.50987 0.13503 0.0
C1581 C 0.12013 0.50496 0.15352 0.0
C1582 C 0.08266 0.51299 0.11767 0.0
C1583 C 0.21546 0.50458 0.10398 0.0
N1584 N 0.10998 0.50638 0.14204 0.0
N1585 N 0.22614 0.50599 0.11545 0.0
H1586 H 0.05947 0.77569 0.09927 0.0
H1587 H 0.27052 0.77573 0.15982 0.0
H1588 H 0.32076 0.76413 0.10329 0.0
H1589 H 1.00761 0.7649 0.15597 0.0
H1590 H 0.291 0.77312 0.13917 0.0
H1591 H 1.03805 0.77328 0.11992 0.0
C1592 C 0.11211 0.7725 0.10451 0.0
C1593 C 0.19204 0.77012 0.09959 0.0
C1594 C 0.22908 0.77117 0.14285 0.0
C1595 C 0.16852 0.76766 0.12325 0.0
C1596 C 0.21719 0.77272 0.15462 0.0
C1597 C 0.13714 0.77058 0.15959 0.0
C1598 C 0.15981 0.76781 0.13593 0.0
C1599 C 0.07033 0.76663 0.15247 0.0
C1600 C 0.09974 0.7711 0.11627 0.0
C1601 C 0.25809 0.76601 0.10675 0.0
N1602 N 0.08274 0.7656 0.14096 0.0
N1603 N 0.24534 0.76515 0.11826 0.0
H1604 H 1.02035 0.52553 0.85028 0.0
H1605 H 0.81517 0.52508 0.91114 0.0
H1606 H 0.75719 0.515 0.85453 0.0
H1607 H 0.07529 0.51315 0.90653 0.0
H1608 H 0.79163 0.52275 0.89054 0.0
H1609 H 1.04284 0.52246 0.87081 0.0
C1610 C 0.96744 0.52249 0.85555 0.0
C1611 C 0.8867 0.52059 0.85074 0.0
C1612 C 0.8535 0.52045 0.89404 0.0
C1613 C 0.91163 0.51728 0.87426 0.0
C1614 C 0.86707 0.52181 0.90578 0.0
C1615 C 0.94732 0.51932 0.9105 0.0
C1616 C 0.92143 0.51696 0.88691 0.0
C1617 C 1.01242 0.51511 0.9032 0.0
C1618 C 0.98043 0.52067 0.86725 0.0
C1619 C 0.82041 0.51657 0.85793 0.0
N1620 N 0.99856 0.51431 0.89171 0.0
N1621 N 0.8339 0.51528 0.86938 0.0
H1622 H 0.92318 0.2726 0.84916 0.0
H1623 H 0.99948 0.23976 0.9101 0.0
H1624 H 1.03395 0.23533 0.85447 0.0
H1625 H 0.80656 0.26878 0.90611 0.0
H1626 H 1.03095 0.24107 0.88987 0.0
H1627 H 0.89694 0.27422 0.86999 0.0
C1628 C 0.94314 0.26488 0.85471 0.0
C1629 C 0.98108 0.25382 0.85011 0.0
C1630 C 0.98156 0.24718 0.89334 0.0
C1631 C 0.95151 0.25559 0.87376 0.0
C1632 C 0.9634 0.24644 0.90495 0.0
C1633 C 0.8993 0.25404 0.90984 0.0
C1634 C 0.9358 0.25563 0.88636 0.0
C1635 C 0.85587 0.26265 0.90267 0.0
C1636 C 0.92748 0.26575 0.86655 0.0
C1637 C 1.00461 0.24402 0.85764 0.0
N1638 N 0.8747 0.26319 0.89124 0.0
N1639 N 0.98973 0.24516 0.86901 0.0
H1640 H 0.27366 1.00149 0.60053 0.0
H1641 H 0.06249 1.00048 0.66112 0.0
H1642 H 1.01067 1.01223 0.60458 0.0
H1643 H 0.32267 1.0127 0.65719 0.0
H1644 H 1.04125 1.0031 0.64049 0.0
H1645 H 0.29392 1.00383 0.62121 0.0
C1646 C 0.22027 1.00441 0.60579 0.0
C1647 C 0.14026 1.00662 0.60087 0.0
C1648 C 0.10264 1.00538 0.64416 0.0
C1649 C 0.16268 1.00907 0.62454 0.0
C1650 C 0.11491 1.00385 0.6559 0.0
C1651 C 0.19448 1.00637 0.66083 0.0
C1652 C 0.17121 1.00906 0.63721 0.0
C1653 C 0.26027 1.01072 0.65371 0.0
C1654 C 0.23204 1.00581 0.61756 0.0
C1655 C 0.07336 1.01045 0.60805 0.0
N1656 N 0.24769 1.01169 0.64221 0.0
N1657 N 0.08564 1.01133 0.61956 0.0
H1658 H 0.31526 0.26241 0.60347 0.0
H1659 H 0.99457 0.26307 0.65678 0.0
H1660 H 0.05114 0.27267 0.59987 0.0
H1661 H 0.25704 0.27455 0.65959 0.0
H1662 H 1.01422 0.26056 0.63598 0.0
H1663 H 0.2942 0.26067 0.62427 0.0
C1664 C 0.25257 0.26405 0.60703 0.0
C1665 C 0.18494 0.26777 0.59998 0.0
C1666 C 0.06756 0.2635 0.6412 0.0
C1667 C 0.16026 0.26566 0.62365 0.0
C1668 C 0.05647 0.26489 0.65304 0.0
C1669 C 0.12411 0.26914 0.65986 0.0
C1670 C 0.14738 0.26604 0.63625 0.0
C1671 C 0.20305 0.27138 0.6546 0.0
C1672 C 0.24072 0.26313 0.61888 0.0
C1673 C 0.10505 0.26986 0.60504 0.0
N1674 N 0.21262 0.26978 0.64313 0.0
N1675 N 0.09484 0.26877 0.61656 0.0
H1676 H 0.81103 0.02646 0.41032 0.0
H1677 H 1.02589 0.02593 0.34969 0.0
H1678 H 0.07324 0.01523 0.40639 0.0
H1679 H 0.76207 0.01562 0.35368 0.0
H1680 H 0.04549 0.02376 0.37038 0.0
H1681 H 0.79123 0.02425 0.38964 0.0
C1682 C 0.86435 0.02345 0.40509 0.0
C1683 C 0.94401 0.02107 0.41005 0.0
C1684 C 0.98355 0.02184 0.36672 0.0
C1685 C 0.92212 0.01877 0.38636 0.0
C1686 C 0.97217 0.02313 0.35494 0.0
C1687 C 0.89213 0.021 0.35 0.0
C1688 C 0.91381 0.01875 0.37369 0.0
C1689 C 0.8248 0.01733 0.35716 0.0
C1690 C 0.85285 0.02214 0.39331 0.0
C1691 C 1.01082 0.01714 0.4029 0.0
N1692 N 0.83677 0.01653 0.36869 0.0
N1693 N 0.99879 0.01633 0.39138 0.0
H1694 H 0.84417 0.73911 0.3499 0.0
H1695 H 0.90858 0.77267 0.41072 0.0
H1696 H 1.0251 0.76986 0.35382 0.0
H1697 H 0.81616 0.73421 0.40572 0.0
H1698 H 0.93491 0.77428 0.38992 0.0
H1699 H 0.81513 0.73984 0.37023 0.0
C1700 C 0.87816 0.74604 0.35505 0.0
C1701 C 0.93813 0.75432 0.35012 0.0
C1702 C 0.90856 0.76554 0.39342 0.0
C1703 C 0.90428 0.75525 0.37369 0.0
C1704 C 0.89294 0.76465 0.40524 0.0
C1705 C 0.85992 0.75329 0.40992 0.0
C1706 C 0.88941 0.75507 0.38629 0.0
C1707 C 0.84161 0.74314 0.40249 0.0
C1708 C 0.86142 0.74644 0.36672 0.0
C1709 C 0.97903 0.76321 0.35729 0.0
N1710 N 0.85623 0.7443 0.3911 0.0
N1711 N 0.96144 0.76344 0.36876 0.0
H1712 H 0.51667 0.51185 0.6038 0.0
H1713 H 0.83791 0.51162 0.65673 0.0
H1714 H 0.77885 0.50044 0.6002 0.0
H1715 H 0.57609 0.49999 0.66023 0.0
H1716 H 0.81689 0.51347 0.63592 0.0
H1717 H 0.53744 0.51343 0.62464 0.0
C1718 C 0.57872 0.50984 0.60738 0.0
C1719 C 0.64597 0.50589 0.60032 0.0
C1720 C 0.76402 0.51063 0.6413 0.0
C1721 C 0.67051 0.50793 0.62397 0.0
C1722 C 0.77588 0.50962 0.65314 0.0
C1723 C 0.70882 0.50553 0.66016 0.0
C1724 C 0.68399 0.50787 0.63654 0.0
C1725 C 0.62963 0.50305 0.65508 0.0
C1726 C 0.59043 0.51069 0.61924 0.0
C1727 C 0.72516 0.50339 0.60538 0.0
N1728 N 0.61926 0.50429 0.64359 0.0
N1729 N 0.73539 0.50449 0.61689 0.0
H1730 H 0.82079 0.76295 0.6023 0.0
H1731 H 0.4991 0.76379 0.65551 0.0
H1732 H 0.5621 0.77612 0.59922 0.0
H1733 H 0.76453 0.77332 0.65899 0.0
H1734 H 0.51946 0.76206 0.63466 0.0
H1735 H 0.7988 0.76043 0.62306 0.0
C1736 C 0.75906 0.76508 0.60596 0.0
C1737 C 0.69333 0.76985 0.59908 0.0
C1738 C 0.57327 0.76439 0.64004 0.0
C1739 C 0.66741 0.76679 0.62266 0.0
C1740 C 0.56177 0.76532 0.6519 0.0
C1741 C 0.63009 0.76882 0.65894 0.0
C1742 C 0.6541 0.76661 0.63525 0.0
C1743 C 0.71003 0.77073 0.65384 0.0
C1744 C 0.74669 0.76371 0.61778 0.0
C1745 C 0.61462 0.77253 0.60425 0.0
N1746 N 0.71994 0.76958 0.64232 0.0
N1747 N 0.60374 0.77095 0.61571 0.0
H1748 H 0.3801 0.5046 0.35055 0.0
H1749 H 0.49938 0.54619 0.40568 0.0
H1750 H 0.34731 0.54542 0.35411 0.0
H1751 H 0.45418 0.50564 0.40915 0.0
H1752 H 0.46278 0.54485 0.38563 0.0
H1753 H 0.41984 0.50352 0.37103 0.0
C1754 C 0.38039 0.51328 0.35564 0.0
C1755 C 0.36073 0.52514 0.3506 0.0
C1756 C 0.46069 0.53618 0.3907 0.0
C1757 C 0.40717 0.52401 0.37378 0.0
C1758 C 0.48214 0.53694 0.40219 0.0
C1759 C 0.47934 0.52604 0.40915 0.0
C1760 C 0.4358 0.52442 0.38594 0.0
C1761 C 0.45707 0.51429 0.40407 0.0
C1762 C 0.40325 0.51266 0.36728 0.0
C1763 C 0.36241 0.53608 0.35755 0.0
N1764 N 0.43569 0.51377 0.39273 0.0
N1765 N 0.38564 0.53524 0.36867 0.0
H1766 H 0.52813 0.25056 0.41052 0.0
H1767 H 0.31887 0.25162 0.34989 0.0
H1768 H 0.26919 0.26326 0.40648 0.0
H1769 H 0.58316 0.26156 0.35392 0.0
H1770 H 0.29816 0.2542 0.37054 0.0
H1771 H 0.55029 0.25297 0.38989 0.0
C1772 C 0.47616 0.25398 0.40528 0.0
C1773 C 0.39665 0.25669 0.41018 0.0
C1774 C 0.36045 0.25596 0.3669 0.0
C1775 C 0.42101 0.25916 0.38654 0.0
C1776 C 0.37246 0.25443 0.35514 0.0
C1777 C 0.45296 0.25632 0.35022 0.0
C1778 C 0.42999 0.25905 0.37387 0.0
C1779 C 0.5201 0.26002 0.35738 0.0
C1780 C 0.48897 0.25539 0.39352 0.0
C1781 C 0.3315 0.26111 0.40302 0.0
N1782 N 0.50752 0.26104 0.36889 0.0
N1783 N 0.34459 0.26197 0.39151 0.0
H1784 H 0.82882 1.0126 0.15564 0.0
H1785 H 0.50696 1.01256 0.10265 0.0
H1786 H 0.56578 1.00162 0.15914 0.0
H1787 H 0.76972 1.00144 0.09911 0.0
H1788 H 0.52787 0.01441 0.12346 0.0
H1789 H 0.80817 0.01437 0.13481 0.0
C1790 C 0.76661 1.01074 0.15204 0.0
C1791 C 0.69908 1.00684 0.15908 0.0
C1792 C 0.58099 1.01169 0.11808 0.0
C1793 C 0.67469 1.00908 0.13542 0.0
C1794 C 0.56918 1.01068 0.10623 0.0
C1795 C 0.63653 1.00672 0.09919 0.0
C1796 C 0.66123 1.00906 0.12284 0.0
C1797 C 0.71593 1.00439 0.10427 0.0
C1798 C 0.75495 1.0117 0.14019 0.0
C1799 C 0.61969 1.00452 0.15399 0.0
N1800 N 0.72621 1.00562 0.11576 0.0
N1801 N 0.60957 1.00571 0.14249 0.0
H1802 H 0.82893 0.26412 0.10348 0.0
H1803 H 0.50736 0.26341 0.15669 0.0
H1804 H 0.56563 0.27497 0.10018 0.0
H1805 H 0.76811 0.27557 0.15999 0.0
H1806 H 0.52883 0.26128 0.13588 0.0
H1807 H 0.80813 0.26204 0.1243 0.0
C1808 C 0.7666 0.26589 0.10712 0.0
C1809 C 0.69908 0.26984 0.10014 0.0
C1810 C 0.58149 0.26424 0.14121 0.0
C1811 C 0.6745 0.26722 0.12379 0.0
C1812 C 0.56942 0.26538 0.15306 0.0
C1813 C 0.63594 0.26975 0.16002 0.0
C1814 C 0.66121 0.26716 0.13638 0.0
C1815 C 0.71503 0.27227 0.15489 0.0
C1816 C 0.75485 0.26474 0.11896 0.0
C1817 C 0.61956 0.27203 0.10528 0.0
N1818 N 0.72558 0.27091 0.1434 0.0
N1819 N 0.60935 0.27066 0.11677 0.0
H1820 H 0.46656 0.04139 0.84916 0.0
H1821 H 0.42308 1.00605 0.90951 0.0
H1822 H 0.30763 1.0079 0.85236 0.0
H1823 H 0.49479 0.04553 0.90471 0.0
H1824 H 0.39683 1.00431 0.8887 0.0
H1825 H 0.49574 0.04061 0.86941 0.0
C1826 C 0.43753 0.03381 0.85413 0.0
C1827 C 0.38352 0.02479 0.84901 0.0
C1828 C 0.41854 1.01331 0.89225 0.0
C1829 C 0.41748 0.02382 0.87257 0.0
C1830 C 0.43408 0.01429 0.90408 0.0
C1831 C 0.4615 0.02596 0.90883 0.0
C1832 C 0.43193 0.02403 0.88519 0.0
C1833 C 0.47388 0.03635 0.90145 0.0
C1834 C 0.4543 0.03339 0.86578 0.0
C1835 C 0.349 0.01512 0.85598 0.0
N1836 N 0.45936 0.03512 0.89008 0.0
N1837 N 0.36642 0.01489 0.86746 0.0
H1838 H 0.31619 0.75389 0.85017 0.0
H1839 H 0.52929 0.75152 0.91055 0.0
H1840 H 0.58164 0.7632 0.85401 0.0
H1841 H 0.27055 0.76448 0.90694 0.0
H1842 H 0.55044 0.75428 0.88993 0.0
H1843 H 0.29695 0.75622 0.87086 0.0
C1844 C 0.37034 0.75652 0.85538 0.0
C1845 C 0.45071 0.75831 0.8504 0.0
C1846 C 0.4894 0.75669 0.89366 0.0
C1847 C 0.42943 0.76073 0.87411 0.0
C1848 C 0.47716 0.75508 0.9054 0.0
C1849 C 0.398 0.75776 0.91043 0.0
C1850 C 0.42119 0.76063 0.88679 0.0
C1851 C 0.33262 0.76235 0.90339 0.0
C1852 C 0.35917 0.7579 0.86717 0.0
C1853 C 0.51863 0.76176 0.85753 0.0
N1854 N 0.34514 0.76341 0.89188 0.0
N1855 N 0.50683 0.76263 0.86906 0.0
H1856 H 0.32462 0.66868 0.07216 0.0
H1857 H 1.00366 0.60898 0.07433 0.0
H1858 H 0.05329 0.67255 0.07655 0.0
H1859 H 0.2768 0.60499 0.07403 0.0
H1860 H 1.02016 0.63225 0.07376 0.0
H1861 H 0.30776 0.64541 0.07143 0.0
C1862 C 0.26134 0.66466 0.07287 0.0
C1863 C 0.19027 0.67265 0.07442 0.0
C1864 C 0.07655 0.62629 0.07379 0.0
C1865 C 0.1706 0.64589 0.0737 0.0
C1866 C 0.06718 0.61298 0.07404 0.0
C1867 C 0.13895 0.60495 0.07422 0.0
C1868 C 0.15833 0.63172 0.07368 0.0
C1869 C 0.21962 0.61076 0.07402 0.0
C1870 C 0.25185 0.65134 0.07253 0.0
C1871 C 0.11006 0.66681 0.07547 0.0
N1872 N 0.22709 0.62376 0.07375 0.0
N1873 N 0.10244 0.65382 0.07508 0.0
H1874 H 0.15565 0.67121 0.20567 0.0
H1875 H 0.17826 0.60739 0.16754 0.0
H1876 H 0.15482 0.67081 0.1688 0.0
H1877 H 0.17919 0.60681 0.20441 0.0
H1878 H 0.16848 0.63066 0.16804 0.0
H1879 H 0.16383 0.64776 0.20559 0.0
C1880 C 0.15711 0.66622 0.19756 0.0
C1881 C 0.15494 0.67308 0.18722 0.0
C1882 C 0.17062 0.62547 0.17604 0.0
C1883 C 0.1646 0.64618 0.18707 0.0
C1884 C 0.1755 0.61212 0.17576 0.0
C1885 C 0.17898 0.60503 0.18595 0.0
C1886 C 0.16925 0.63191 0.18658 0.0
C1887 C 0.17732 0.61183 0.19633 0.0
C1888 C 0.1621 0.65282 0.19752 0.0
C1889 C 0.15787 0.66603 0.17699 0.0
N1890 N 0.17247 0.62487 0.19638 0.0
N1891 N 0.1624 0.65303 0.17718 0.0
H1892 H 0.9725 0.35485 0.95009 0.0
H1893 H 0.84719 0.42063 0.91891 0.0
H1894 H 0.83677 0.35704 0.91815 0.0
H1895 H 1.01902 0.41905 0.9476 0.0
H1896 H 0.83349 0.39739 0.91962 0.0
H1897 H 0.9808 0.37835 0.95044 0.0
C1898 C 0.94418 0.36026 0.94318 0.0
C1899 C 0.90448 0.35392 0.93403 0.0
C1900 C 0.87415 0.40211 0.92578 0.0
C1901 C 0.9136 0.38082 0.93439 0.0
C1902 C 0.88236 0.41542 0.92535 0.0
C1903 C 0.93509 0.4219 0.93313 0.0
C1904 C 0.91863 0.39509 0.93408 0.0
C1905 C 0.97715 0.41455 0.94147 0.0
C1906 C 0.94927 0.37367 0.94336 0.0
C1907 C 0.86933 0.36145 0.92528 0.0
N1908 N 0.96828 0.40156 0.94169 0.0
N1909 N 0.87465 0.37444 0.92569 0.0
H1910 H 0.98137 0.42269 0.81023 0.0
H1911 H 0.84495 0.35682 0.84043 0.0
H1912 H 0.83021 0.4203 0.84095 0.0
H1913 H 1.02918 0.35848 0.81309 0.0
H1914 H 0.83067 0.38003 0.83957 0.0
H1915 H 0.99144 0.39921 0.80997 0.0
C1916 C 0.95011 0.41725 0.81689 0.0
C1917 C 0.9055 0.42352 0.82568 0.0
C1918 C 0.87424 0.37534 0.83374 0.0
C1919 C 0.91655 0.39664 0.82542 0.0
C1920 C 0.88277 0.36205 0.83426 0.0
C1921 C 0.93914 0.3556 0.82691 0.0
C1922 C 0.92211 0.38238 0.82578 0.0
C1923 C 0.98457 0.36297 0.81889 0.0
C1924 C 0.95617 0.40384 0.81676 0.0
C1925 C 0.8666 0.41594 0.83412 0.0
N1926 N 0.97534 0.37595 0.81857 0.0
N1927 N 0.87297 0.40296 0.83376 0.0
H1928 H 1.02029 0.10804 0.56913 0.0
H1929 H 0.33532 0.16842 0.5712 0.0
H1930 H 0.29259 0.10475 0.57264 0.0
H1931 H 0.06175 0.17173 0.57101 0.0
H1932 H 0.32136 0.14513 0.57027 0.0
H1933 H 1.03488 0.13132 0.56831 0.0
C1934 C 0.08332 0.11219 0.5696 0.0
C1935 C 0.15533 0.10436 0.57096 0.0
C1936 C 0.26434 0.15094 0.57039 0.0
C1937 C 0.17238 0.13114 0.57017 0.0
C1938 C 0.27225 0.16427 0.57084 0.0
C1939 C 0.19959 0.1721 0.57119 0.0
C1940 C 0.18314 0.14532 0.57024 0.0
C1941 C 0.11956 0.1661 0.5709 0.0
C1942 C 0.09151 0.12551 0.56922 0.0
C1943 C 0.23516 0.11037 0.57172 0.0
N1944 N 0.11352 0.15311 0.57044 0.0
N1945 N 0.24149 0.12336 0.57132 0.0
H1946 H 0.15123 0.1697 0.70482 0.0
H1947 H 0.2012 0.1067 0.66607 0.0
H1948 H 0.16086 0.17003 0.66796 0.0
H1949 H 0.17766 0.10545 0.7028 0.0
H1950 H 0.18906 0.12995 0.66677 0.0
H1951 H 0.16394 0.14632 0.70443 0.0
C1952 C 0.15591 0.16489 0.69664 0.0
C1953 C 0.15517 0.17194 0.68641 0.0
C1954 C 0.18641 0.12461 0.6747 0.0
C1955 C 0.17029 0.14509 0.68592 0.0
C1956 C 0.1927 0.11128 0.67429 0.0
C1957 C 0.18991 0.10399 0.68438 0.0
C1958 C 0.17739 0.13086 0.68527 0.0
C1959 C 0.18091 0.11061 0.6948 0.0
C1960 C 0.16351 0.15153 0.69644 0.0
C1961 C 0.16258 0.16511 0.67609 0.0
N1962 N 0.17488 0.12364 0.69497 0.0
N1963 N 0.16965 0.15213 0.67612 0.0
H1964 H 0.7391 0.85997 0.42557 0.0
H1965 H 1.01317 0.92018 0.44691 0.0
H1966 H 0.96782 0.85676 0.44569 0.0
H1967 H 0.78191 0.92376 0.42735 0.0
H1968 H 0.99386 0.89699 0.44722 0.0
H1969 H 0.75097 0.88332 0.42655 0.0
C1970 C 0.79181 0.86416 0.43019 0.0
C1971 C 0.85246 0.85634 0.43556 0.0
C1972 C 0.94706 0.90284 0.4429 0.0
C1973 C 0.86635 0.88313 0.43676 0.0
C1974 C 0.9577 0.91613 0.44279 0.0
C1975 C 0.89916 0.92402 0.43708 0.0
C1976 C 0.87737 0.8973 0.43725 0.0
C1977 C 0.82939 0.9181 0.43173 0.0
C1978 C 0.79836 0.87751 0.4308 0.0
C1979 C 0.91885 0.86236 0.44155 0.0
N1980 N 0.82061 0.90513 0.43191 0.0
N1981 N 0.92414 0.87535 0.44194 0.0
H1982 H 0.93428 0.8564 0.30545 0.0
H1983 H 0.91493 0.92125 0.34222 0.0
H1984 H 0.93668 0.85781 0.3423 0.0
H1985 H 0.90857 0.92083 0.30536 0.0
H1986 H 0.926 0.89799 0.34219 0.0
H1987 H 0.92729 0.87986 0.30502 0.0
C1988 C 0.93353 0.86161 0.31345 0.0
C1989 C 0.93558 0.85504 0.32393 0.0
C1990 C 0.92242 0.90296 0.33409 0.0
C1991 C 0.92728 0.88195 0.3235 0.0
C1992 C 0.9168 0.9163 0.33409 0.0
C1993 C 0.91132 0.92311 0.32377 0.0
C1994 C 0.92252 0.89623 0.32369 0.0
C1995 C 0.91195 0.91603 0.31353 0.0
C1996 C 0.92918 0.87502 0.3132 0.0
C1997 C 0.93365 0.86237 0.33401 0.0
N1998 N 0.9175 0.903 0.31375 0.0
N1999 N 0.92971 0.87537 0.33353 0.0
H2000 H 0.67939 0.60641 0.59355 0.0
H2001 H 0.67774 0.67127 0.55688 0.0
H2002 H 0.65767 0.6069 0.55679 0.0
H2003 H 0.71209 0.66979 0.59344 0.0
H2004 H 0.66955 0.64784 0.55651 0.0
H2005 H 0.69126 0.62966 0.5935 0.0
C2006 C 0.67805 0.61137 0.58543 0.0
C2007 C 0.66801 0.60459 0.57515 0.0
C2008 C 0.67875 0.65266 0.56461 0.0
C2009 C 0.68003 0.63145 0.57506 0.0
C2010 C 0.68381 0.66605 0.56483 0.0
C2011 C 0.69526 0.6726 0.57522 0.0
C2012 C 0.68532 0.64571 0.57485 0.0
C2013 C 0.70166 0.66526 0.58525 0.0
C2014 C 0.68416 0.62471 0.58542 0.0
C2015 C 0.66458 0.61168 0.56494 0.0
N2016 N 0.69663 0.65227 0.5848 0.0
N2017 N 0.67058 0.6247 0.56516 0.0
H2018 H 0.7764 0.60704 0.67093 0.0
H2019 H 0.56394 0.66869 0.69988 0.0
H2020 H 0.61543 0.60458 0.70073 0.0
H2021 H 0.76166 0.67051 0.67429 0.0
H2022 H 0.57975 0.64537 0.70039 0.0
H2023 H 0.76766 0.63033 0.67183 0.0
C2024 C 0.73872 0.6114 0.67764 0.0
C2025 C 0.69594 0.60379 0.68571 0.0
C2026 C 0.61993 0.6509 0.69471 0.0
C2027 C 0.68619 0.63063 0.68686 0.0
C2028 C 0.61139 0.66425 0.69446 0.0
C2029 C 0.66115 0.67168 0.68697 0.0
C2030 C 0.67833 0.64486 0.68737 0.0
C2031 C 0.72058 0.66525 0.68004 0.0
C2032 C 0.73428 0.62473 0.6782 0.0
C2033 C 0.64962 0.61004 0.69435 0.0
N2034 N 0.72707 0.65227 0.68037 0.0
N2035 N 0.64548 0.62309 0.69465 0.0
H2036 H 0.56914 0.41897 0.42463 0.0
H2037 H 0.28595 0.35758 0.44044 0.0
H2038 H 0.31557 0.42121 0.4387 0.0
H2039 H 0.52605 0.35506 0.42266 0.0
H2040 H 0.29932 0.38088 0.44065 0.0
H2041 H 0.55674 0.39562 0.4242 0.0
C2042 C 0.51054 0.41459 0.42753 0.0
C2043 C 0.44342 0.42216 0.43174 0.0
C2044 C 0.34919 0.37525 0.43671 0.0
C2045 C 0.42943 0.39531 0.43145 0.0
C2046 C 0.34193 0.36191 0.43667 0.0
C2047 C 0.40503 0.35429 0.43154 0.0
C2048 C 0.42028 0.3811 0.43162 0.0
C2049 C 0.47538 0.36052 0.42661 0.0
C2050 C 0.50378 0.40123 0.42736 0.0
C2051 C 0.36965 0.41584 0.43556 0.0
N2052 N 0.48115 0.37353 0.42679 0.0
N2053 N 0.3648 0.40283 0.43535 0.0
H2054 H 0.39637 0.35498 0.30751 0.0
H2055 H 0.40146 0.41996 0.34425 0.0
H2056 H 0.44094 0.35618 0.34388 0.0
H2057 H 0.37189 0.41885 0.30761 0.0
H2058 H 0.40972 0.39655 0.34442 0.0
H2059 H 0.38225 0.3783 0.30748 0.0
C2060 C 0.40335 0.36012 0.31549 0.0
C2061 C 0.4199 0.35352 0.32571 0.0
C2062 C 0.40141 0.40143 0.33634 0.0
C2063 C 0.40305 0.38033 0.32575 0.0
C2064 C 0.39623 0.41481 0.33624 0.0
C2065 C 0.38638 0.42144 0.32589 0.0
C2066 C 0.3963 0.39457 0.32602 0.0
C2067 C 0.38092 0.4142 0.31578 0.0
C2068 C 0.39488 0.37346 0.31547 0.0
C2069 C 0.42694 0.36077 0.33581 0.0
N2070 N 0.38594 0.4012 0.3161 0.0
N2071 N 0.41868 0.37374 0.33556 0.0
H2072 H 0.76569 0.10534 0.08544 0.0
H2073 H 0.61229 0.1716 0.0576 0.0
H2074 H 0.57051 0.10734 0.05961 0.0
H2075 H 0.76621 0.16891 0.08798 0.0
H2076 H 0.60684 0.1481 0.05674 0.0
H2077 H 0.77732 0.12862 0.08501 0.0
C2078 C 0.72509 0.11065 0.07968 0.0
C2079 C 0.66636 0.10427 0.07264 0.0
C2080 C 0.64174 0.15268 0.06359 0.0
C2081 C 0.68028 0.13111 0.072 0.0
C2082 C 0.64516 0.16608 0.06406 0.0
C2083 C 0.68915 0.17227 0.07293 0.0
C2084 C 0.68349 0.14538 0.07198 0.0
C2085 C 0.73027 0.1646 0.0811 0.0
C2086 C 0.73205 0.12398 0.0794 0.0
C2087 C 0.61717 0.11176 0.06514 0.0
N2088 N 0.72651 0.15161 0.08041 0.0
N2089 N 0.62499 0.12476 0.06505 0.0
H2090 H 0.74279 0.1715 0.17019 0.0
H2091 H 0.60737 0.10558 0.20041 0.0
H2092 H 0.56065 0.16976 0.19779 0.0
H2093 H 0.75486 0.10793 0.16937 0.0
H2094 H 0.59831 0.12907 0.20076 0.0
H2095 H 0.75662 0.14827 0.17093 0.0
C2096 C 0.7054 0.16626 0.1764 0.0
C2097 C 0.64976 0.17269 0.18386 0.0
C2098 C 0.63256 0.12442 0.19387 0.0
C2099 C 0.66627 0.14589 0.18485 0.0
C2100 C 0.63806 0.11102 0.1937 0.0
C2101 C 0.68134 0.10472 0.18479 0.0
C2102 C 0.67141 0.13162 0.18515 0.0
C2103 C 0.71951 0.1123 0.17629 0.0
C2104 C 0.71366 0.15295 0.17685 0.0
C2105 C 0.6048 0.16529 0.19191 0.0
N2106 N 0.71372 0.12529 0.17669 0.0
N2107 N 0.61378 0.15231 0.19216 0.0
H2108 H 0.52008 0.85484 0.94494 0.0
H2109 H 0.36155 0.92221 0.91995 0.0
H2110 H 0.3011 0.85952 0.92316 0.0
H2111 H 0.55915 0.91933 0.94535 0.0
H2112 H 0.34447 0.89903 0.92047 0.0
H2113 H 0.54117 0.87814 0.94467 0.0
C2114 C 0.47655 0.86074 0.94008 0.0
C2115 C 0.40839 0.85516 0.93411 0.0
C2116 C 0.39174 0.90342 0.92594 0.0
C2117 C 0.43215 0.88185 0.93378 0.0
C2118 C 0.40203 0.91669 0.92558 0.0
C2119 C 0.46245 0.92277 0.93254 0.0
C2120 C 0.44238 0.89604 0.93329 0.0
C2121 C 0.51158 0.91507 0.93986 0.0
C2122 C 0.48839 0.87405 0.93999 0.0
C2123 C 0.35367 0.86334 0.92806 0.0
N2124 N 0.50074 0.90211 0.94001 0.0
N2125 N 0.36688 0.8762 0.92803 0.0
H2126 H 0.42034 0.85809 0.80616 0.0
H2127 H 0.38169 0.92067 0.84572 0.0
H2128 H 0.42324 0.85737 0.84303 0.0
H2129 H 0.3905 0.92232 0.80889 0.0
H2130 H 0.39493 0.89745 0.84473 0.0
H2131 H 0.40701 0.88146 0.80682 0.0
C2132 C 0.41831 0.86281 0.81439 0.0
C2133 C 0.42267 0.85564 0.82455 0.0
C2134 C 0.39408 0.90286 0.83685 0.0
C2135 C 0.40687 0.8825 0.82536 0.0
C2136 C 0.38715 0.91619 0.83741 0.0
C2137 C 0.38546 0.92359 0.82738 0.0
C2138 C 0.39926 0.89673 0.82618 0.0
C2139 C 0.39071 0.91708 0.81686 0.0
C2140 C 0.41034 0.87617 0.81476 0.0
C2141 C 0.41864 0.86237 0.83496 0.0
N2142 N 0.39746 0.90406 0.81654 0.0
N2143 N 0.41112 0.87535 0.83508 0.0
H2144 H 0.80188 0.49162 0.06107 0.0
H2145 H 0.37519 0.53109 0.07417 0.0
H2146 H 0.79768 0.52927 0.07637 0.0
H2147 H 0.37748 0.49528 0.05571 0.0
H2148 H 0.52981 0.53017 0.07552 0.0
H2149 H 0.64649 0.49221 0.05981 0.0
C2150 C 0.76847 0.49997 0.06425 0.0
C2151 C 0.81337 0.51041 0.06883 0.0
C2152 C 0.49665 0.52252 0.07113 0.0
C2153 C 0.63516 0.51117 0.06732 0.0
C2154 C 0.40813 0.52305 0.07034 0.0
C2155 C 0.36289 0.51325 0.0648 0.0
C2156 C 0.54084 0.51208 0.06642 0.0
C2157 C 0.4095 0.50308 0.06002 0.0
C2158 C 0.67966 0.50032 0.06347 0.0
C2159 C 0.76623 0.52098 0.07275 0.0
N2160 N 0.49581 0.50273 0.06098 0.0
N2161 N 0.68001 0.52109 0.07189 0.0
H2162 H 0.53025 0.78594 0.06195 0.0
H2163 H 0.95654 0.74622 0.07442 0.0
H2164 H 0.53423 0.74819 0.07696 0.0
H2165 H 0.95474 0.78226 0.05638 0.0
H2166 H 0.80196 0.74717 0.07584 0.0
H2167 H 0.68563 0.78533 0.06058 0.0
C2168 C 0.56361 0.77757 0.06505 0.0
C2169 C 0.51865 0.7671 0.06958 0.0
C2170 C 0.8352 0.75486 0.07153 0.0
C2171 C 0.69685 0.7663 0.06794 0.0
C2172 C 0.92372 0.75431 0.07069 0.0
C2173 C 0.9691 0.76417 0.06525 0.0
C2174 C 0.79115 0.76538 0.06697 0.0
C2175 C 0.92261 0.77441 0.0606 0.0
C2176 C 0.65242 0.7772 0.0642 0.0
C2177 C 0.56573 0.75649 0.07339 0.0
N2178 N 0.8363 0.77477 0.06161 0.0
N2179 N 0.65193 0.75637 0.07247 0.0
H2180 H 0.80351 0.75002 0.17881 0.0
H2181 H 0.3805 0.78102 0.20545 0.0
H2182 H 0.8034 0.78358 0.20039 0.0
H2183 H 0.37988 0.74784 0.18343 0.0
H2184 H 0.53534 0.78195 0.20386 0.0
H2185 H 0.64854 0.74916 0.18027 0.0
C2186 C 0.77098 0.75728 0.18379 0.0
C2187 C 0.81688 0.7669 0.18948 0.0
C2188 C 0.50142 0.77444 0.1994 0.0
C2189 C 0.63889 0.76588 0.19128 0.0
C2190 C 0.41285 0.77387 0.20034 0.0
C2191 C 0.36679 0.76432 0.19458 0.0
C2192 C 0.54467 0.76541 0.19263 0.0
C2193 C 0.41252 0.75535 0.18805 0.0
C2194 C 0.68234 0.75675 0.18465 0.0
C2195 C 0.77092 0.776 0.19583 0.0
N2196 N 0.49874 0.75614 0.18724 0.0
N2197 N 0.68466 0.77524 0.19658 0.0
H2198 H 0.95263 0.49738 0.20416 0.0
H2199 H 0.52994 0.52798 0.17742 0.0
H2200 H 0.95375 0.53004 0.18157 0.0
H2201 H 0.53024 0.49476 0.19935 0.0
H2202 H 0.68494 0.5288 0.1787 0.0
H2203 H 0.79792 0.49644 0.20264 0.0
C2204 C 0.9204 0.50442 0.19893 0.0
C2205 C 0.96654 0.51382 0.19299 0.0
C2206 C 0.65117 0.5213 0.1832 0.0
C2207 C 0.7888 0.51272 0.19114 0.0
C2208 C 0.56252 0.52079 0.18244 0.0
C2209 C 0.5167 0.51128 0.18829 0.0
C2210 C 0.69464 0.51225 0.18988 0.0
C2211 C 0.56268 0.50226 0.19468 0.0
C2212 C 0.8319 0.50384 0.19804 0.0
C2213 C 0.921 0.52264 0.18632 0.0
N2214 N 0.64894 0.50299 0.19533 0.0
N2215 N 0.83478 0.52186 0.18557 0.0
H2216 H 0.71123 0.49489 0.93553 0.0
H2217 H 0.28451 0.53418 0.94909 0.0
H2218 H 0.70954 0.53058 0.95418 0.0
H2219 H 0.2893 0.49704 0.93285 0.0
H2220 H 0.43984 0.53352 0.95051 0.0
H2221 H 0.55667 0.49583 0.93426 0.0
C2222 C 0.67844 0.5029 0.93943 0.0
C2223 C 0.72389 0.51266 0.94499 0.0
C2224 C 0.40682 0.52554 0.94661 0.0
C2225 C 0.54582 0.51386 0.94345 0.0
C2226 C 0.31803 0.52593 0.94574 0.0
C2227 C 0.27329 0.51565 0.94084 0.0
C2228 C 0.45148 0.5148 0.94253 0.0
C2229 C 0.32059 0.50519 0.93671 0.0
C2230 C 0.58991 0.50344 0.93867 0.0
C2231 C 0.67738 0.5228 0.94985 0.0
N2232 N 0.40676 0.50504 0.93766 0.0
N2233 N 0.59102 0.52316 0.94893 0.0
H2234 H 0.55673 0.27723 0.92806 0.0
H2235 H 0.13414 0.24647 0.95505 0.0
H2236 H 0.55648 0.24383 0.94977 0.0
H2237 H 0.13295 0.2794 0.93277 0.0
H2238 H 0.28895 0.24552 0.95337 0.0
H2239 H 0.40165 0.27809 0.92952 0.0
C2240 C 0.52416 0.27001 0.93306 0.0
C2241 C 0.57005 0.26044 0.9388 0.0
C2242 C 0.25489 0.25298 0.94887 0.0
C2243 C 0.39208 0.26146 0.94061 0.0
C2244 C 0.16635 0.25357 0.94987 0.0
C2245 C 0.12015 0.26304 0.94405 0.0
C2246 C 0.29793 0.26193 0.94201 0.0
C2247 C 0.16569 0.27193 0.93743 0.0
C2248 C 0.43549 0.27054 0.93392 0.0
C2249 C 0.52406 0.25138 0.94518 0.0
N2250 N 0.25187 0.27114 0.93657 0.0
N2251 N 0.43785 0.25214 0.94594 0.0
H2252 H 0.7053 0.28191 0.82577 0.0
H2253 H 0.27907 0.24368 0.81018 0.0
H2254 H 0.70267 0.24569 0.80791 0.0
H2255 H 0.28094 0.28007 0.82774 0.0
H2256 H 0.43407 0.24416 0.8095 0.0
H2257 H 0.55024 0.28139 0.8266 0.0
C2258 C 0.67232 0.27385 0.82198 0.0
C2259 C 0.7176 0.26382 0.81676 0.0
C2260 C 0.40064 0.25203 0.81353 0.0
C2261 C 0.53927 0.26316 0.81774 0.0
C2262 C 0.31188 0.25176 0.81394 0.0
C2263 C 0.26638 0.26186 0.81903 0.0
C2264 C 0.44476 0.26248 0.81821 0.0
C2265 C 0.31297 0.27206 0.82374 0.0
C2266 C 0.58355 0.27357 0.82248 0.0
C2267 C 0.67084 0.25366 0.81202 0.0
N2268 N 0.39944 0.27211 0.8232 0.0
N2269 N 0.58442 0.25358 0.81264 0.0
H2270 H 0.12697 0.49687 0.8266 0.0
H2271 H 0.555 0.53436 0.80995 0.0
H2272 H 0.1319 0.53073 0.80548 0.0
H2273 H 0.54983 0.50039 0.83094 0.0
H2274 H 0.4001 0.53334 0.80841 0.0
H2275 H 0.28179 0.4979 0.82814 0.0
C2276 C 0.16054 0.50447 0.8222 0.0
C2277 C 0.11604 0.51372 0.81588 0.0
C2278 C 0.4328 0.52614 0.81338 0.0
C2279 C 0.29384 0.51504 0.81772 0.0
C2280 C 0.52138 0.52674 0.81431 0.0
C2281 C 0.56583 0.51744 0.82059 0.0
C2282 C 0.38799 0.51616 0.81875 0.0
C2283 C 0.5185 0.50778 0.82602 0.0
C2284 C 0.24908 0.50508 0.82313 0.0
C2285 C 0.16329 0.52337 0.81043 0.0
N2286 N 0.43237 0.50737 0.82495 0.0
N2287 N 0.24942 0.52379 0.8115 0.0
H2288 H 0.38427 0.99696 0.55534 0.0
H2289 H 0.80669 0.02758 0.58226 0.0
H2290 H 0.38262 0.02952 0.5781 0.0
H2291 H 0.80651 0.99423 0.56044 0.0
H2292 H 0.65164 0.02838 0.58097 0.0
H2293 H 0.53897 0.996 0.55695 0.0
C2294 C 0.41638 1.00397 0.56063 0.0
C2295 C 0.37009 1.01335 0.56658 0.0
C2296 C 0.68546 0.02085 0.5765 0.0
C2297 C 0.54783 1.01223 0.56854 0.0
C2298 C 0.77413 0.02036 0.57727 0.0
C2299 C 0.82002 1.01082 0.57145 0.0
C2300 C 0.64201 1.01177 0.56984 0.0
C2301 C 0.77404 1.00175 0.56509 0.0
C2302 C 0.50487 1.00338 0.56158 0.0
C2303 C 0.41549 0.02213 0.57333 0.0
N2304 N 0.68778 1.00248 0.56442 0.0
N2305 N 0.50169 0.02134 0.57414 0.0
H2306 H 0.53453 0.24722 0.57653 0.0
H2307 H 0.959 0.28307 0.5561 0.0
H2308 H 0.53426 0.28457 0.5607 0.0
H2309 H 0.95623 0.24596 0.57235 0.0
H2310 H 0.80376 0.28365 0.55725 0.0
H2311 H 0.68897 0.24665 0.57492 0.0
C2312 C 0.56683 0.25535 0.57276 0.0
C2313 C 0.52089 0.26597 0.56876 0.0
C2314 C 0.83713 0.27536 0.56052 0.0
C2315 C 0.69875 0.26531 0.5668 0.0
C2316 C 0.9259 0.27499 0.55983 0.0
C2317 C 0.97113 0.26445 0.56415 0.0
C2318 C 0.79299 0.26512 0.56558 0.0
C2319 C 0.92441 0.25429 0.56891 0.0
C2320 C 0.65529 0.25499 0.57181 0.0
C2321 C 0.56678 0.27619 0.56393 0.0
N2322 N 0.83814 0.25491 0.56952 0.0
N2323 N 0.65308 0.27559 0.56307 0.0
H2324 H 0.79648 0.28343 0.70018 0.0
H2325 H 0.36918 0.24577 0.68376 0.0
H2326 H 0.79283 0.24875 0.68006 0.0
H2327 H 0.37393 0.27998 0.70449 0.0
H2328 H 0.52413 0.24673 0.68223 0.0
H2329 H 0.64147 0.28259 0.70146 0.0
C2330 C 0.76316 0.27568 0.69595 0.0
C2331 C 0.80802 0.26614 0.69001 0.0
C2332 C 0.4913 0.25401 0.68715 0.0
C2333 C 0.63011 0.26506 0.69154 0.0
C2334 C 0.40273 0.25344 0.68806 0.0
C2335 C 0.35823 0.2628 0.69428 0.0
C2336 C 0.53596 0.26402 0.69247 0.0
C2337 C 0.40536 0.27254 0.69962 0.0
C2338 C 0.67453 0.27518 0.69673 0.0
C2339 C 0.76113 0.25633 0.68473 0.0
N2340 N 0.49148 0.27291 0.69857 0.0
N2341 N 0.67489 0.25602 0.68565 0.0
H2342 H 0.95723 0.99409 0.70471 0.0
H2343 H 0.5326 0.02864 0.68278 0.0
H2344 H 0.95492 0.02947 0.68565 0.0
H2345 H 0.53281 0.99146 0.6989 0.0
H2346 H 0.6872 0.02917 0.68411 0.0
H2347 H 0.80196 0.99322 0.70332 0.0
C2348 C 0.92421 1.00173 0.70031 0.0
C2349 C 0.96954 1.01188 0.6953 0.0
C2350 C 0.6536 0.02086 0.68732 0.0
C2351 C 0.79153 1.01088 0.69361 0.0
C2352 C 0.56504 0.02053 0.68654 0.0
C2353 C 0.51914 1.00998 0.69073 0.0
C2354 C 0.69724 1.0106 0.69239 0.0
C2355 C 0.56527 0.99978 0.69552 0.0
C2356 C 0.83548 1.00118 0.69947 0.0
C2357 C 0.92302 0.02145 0.68965 0.0
N2358 N 0.65165 1.00037 0.69626 0.0
N2359 N 0.83684 0.02071 0.68896 0.0
H2360 H 0.69906 0.03068 0.45596 0.0
H2361 H 0.27695 0.99993 0.42906 0.0
H2362 H 0.70002 0.9976 0.4338 0.0
H2363 H 0.27629 0.03324 0.45094 0.0
H2364 H 0.43181 0.99905 0.43055 0.0
H2365 H 0.54427 0.03163 0.45438 0.0
C2366 C 0.66679 0.02355 0.45082 0.0
C2367 C 0.71291 0.01403 0.44501 0.0
C2368 C 0.39787 1.00658 0.43499 0.0
C2369 C 0.53516 0.01514 0.44308 0.0
C2370 C 0.30929 1.00713 0.43411 0.0
C2371 C 0.26322 0.01668 0.43988 0.0
C2372 C 0.44106 0.01564 0.44172 0.0
C2373 C 0.30893 0.02571 0.44633 0.0
C2374 C 0.57826 0.02413 0.44989 0.0
C2375 C 0.66732 1.00509 0.43846 0.0
N2376 N 0.39514 0.02494 0.44709 0.0
N2377 N 0.58114 1.00589 0.43765 0.0
H2378 H 0.5621 0.74512 0.45054 0.0
H2379 H 0.13189 0.78033 0.43191 0.0
H2380 H 0.55744 0.78079 0.43188 0.0
H2381 H 0.13916 0.74543 0.45166 0.0
H2382 H 0.28715 0.78054 0.43153 0.0
H2383 H 0.4073 0.74497 0.45068 0.0
C2384 C 0.52869 0.75294 0.44644 0.0
C2385 C 0.57332 0.763 0.44118 0.0
C2386 C 0.2548 0.77283 0.43594 0.0
C2387 C 0.39496 0.76286 0.44135 0.0
C2388 C 0.16599 0.77268 0.43615 0.0
C2389 C 0.12208 0.76283 0.44182 0.0
C2390 C 0.30039 0.76304 0.4414 0.0
C2391 C 0.17003 0.75323 0.44719 0.0
C2392 C 0.43999 0.75284 0.44655 0.0
C2393 C 0.52598 0.77283 0.43603 0.0
N2394 N 0.25646 0.75357 0.44684 0.0
N2395 N 0.43942 0.77251 0.43625 0.0
H2396 H 0.27839 0.77814 0.33203 0.0
H2397 H 0.70079 0.74785 0.30446 0.0
H2398 H 0.27799 0.74545 0.30942 0.0
H2399 H 0.70271 0.7798 0.32789 0.0
H2400 H 0.54578 0.74702 0.30599 0.0
H2401 H 0.43364 0.77886 0.33072 0.0
C2402 C 0.31084 0.77105 0.32686 0.0
C2403 C 0.26475 0.76172 0.32083 0.0
C2404 C 0.58006 0.75424 0.31078 0.0
C2405 C 0.44288 0.76258 0.3192 0.0
C2406 C 0.66869 0.75475 0.30987 0.0
C2407 C 0.71513 0.76392 0.31605 0.0
C2408 C 0.53717 0.76296 0.31791 0.0
C2409 C 0.66977 0.77257 0.32296 0.0
C2410 C 0.39961 0.7715 0.32608 0.0
C2411 C 0.31058 0.75282 0.31423 0.0
N2412 N 0.58351 0.77186 0.32371 0.0
N2413 N 0.39686 0.7535 0.31356 0.0
H2414 H 0.13266 0.99701 0.32655 0.0
H2415 H 0.56064 0.03444 0.3098 0.0
H2416 H 0.13838 0.03063 0.30512 0.0
H2417 H 0.5563 1.0003 0.33056 0.0
H2418 H 0.40573 0.03349 0.3084 0.0
H2419 H 0.28751 0.99808 0.3282 0.0
C2420 C 0.1664 1.00457 0.32212 0.0
C2421 C 0.12215 1.01373 0.31567 0.0
C2422 C 0.43859 0.02623 0.3133 0.0
C2423 C 0.29984 0.01509 0.31763 0.0
C2424 C 0.52719 0.0268 0.31415 0.0
C2425 C 0.57188 0.01744 0.32031 0.0
C2426 C 0.39398 0.01621 0.31864 0.0
C2427 C 0.52476 1.00774 0.32573 0.0
C2428 C 0.25493 1.0052 0.32311 0.0
C2429 C 0.16957 0.02333 0.31017 0.0
N2430 N 0.43857 1.00736 0.32474 0.0
N2431 N 0.25562 0.02378 0.3113 0.0
H2432 H 0.31805 0.49426 0.55914 0.0
H2433 H 0.88984 0.53038 0.57799 0.0
H2434 H 0.31365 0.5272 0.58145 0.0
H2435 H 0.89545 0.49804 0.55499 0.0
H2436 H 0.04478 0.52932 0.57945 0.0
H2437 H 0.16304 0.49519 0.5579 0.0
C2438 C 0.28456 0.50163 0.56385 0.0
C2439 C 0.32924 0.51066 0.57041 0.0
C2440 C 1.01216 0.52247 0.57406 0.0
C2441 C 0.15128 0.51186 0.56894 0.0
C2442 C 0.92358 0.5231 0.57318 0.0
C2443 C 0.87931 0.5143 0.56634 0.0
C2444 C 0.05707 0.51295 0.56807 0.0
C2445 C 0.92668 0.50505 0.56035 0.0
C2446 C 0.19592 0.50219 0.5631 0.0
C2447 C 0.28211 0.52002 0.5763 0.0
N2448 N 1.0128 0.50461 0.56138 0.0
N2449 N 0.19588 0.52039 0.5754 0.0
H2450 H 0.45561 0.74614 0.57379 0.0
H2451 H 1.02975 0.78597 0.56127 0.0
H2452 H 0.45425 0.78222 0.55579 0.0
H2453 H 1.03339 0.74824 0.57632 0.0
H2454 H 0.18517 0.78533 0.55992 0.0
H2455 H 0.301 0.74713 0.57519 0.0
C2456 C 0.42288 0.75425 0.57006 0.0
C2457 C 0.46838 0.76411 0.56465 0.0
C2458 C 0.15186 0.77721 0.56354 0.0
C2459 C 0.29045 0.76535 0.56634 0.0
C2460 C 0.06304 0.7776 0.56438 0.0
C2461 C 1.01799 0.76714 0.56892 0.0
C2462 C 0.19617 0.76631 0.56729 0.0
C2463 C 0.06496 0.75653 0.57275 0.0
C2464 C 0.33436 0.75482 0.57089 0.0
C2465 C 0.42203 0.77437 0.56001 0.0
N2466 N 0.15115 0.75639 0.57183 0.0
N2467 N 0.33573 0.77475 0.561 0.0
H2468 H 0.87313 0.74474 0.6831 0.0
H2469 H 0.30009 0.78262 0.6994 0.0
H2470 H 0.87763 0.77884 0.70399 0.0
H2471 H 0.29645 0.74827 0.67885 0.0
H2472 H 0.14515 0.78161 0.70087 0.0
H2473 H 1.02805 0.74582 0.68148 0.0
C2474 C 0.90662 0.7524 0.68743 0.0
C2475 C 0.86203 0.7617 0.69371 0.0
C2476 C 0.17819 0.77432 0.696 0.0
C2477 C 1.03973 0.76308 0.69178 0.0
C2478 C 0.26678 0.77492 0.69512 0.0
C2479 C 0.31165 0.76552 0.68899 0.0
C2480 C 0.13382 0.76422 0.69074 0.0
C2481 C 0.26476 0.75575 0.68366 0.0
C2482 C 0.99518 0.75304 0.68646 0.0
C2483 C 0.9091 0.77144 0.69907 0.0
N2484 N 0.1786 0.75533 0.68468 0.0
N2485 N 0.99518 0.77188 0.69796 0.0
H2486 H 1.03985 0.5267 0.67874 0.0
H2487 H 0.46254 0.49673 0.70607 0.0
H2488 H 1.03998 0.49391 0.70118 0.0
H2489 H 0.46322 0.52923 0.68329 0.0
H2490 H 0.30783 0.49571 0.70453 0.0
H2491 H 0.19472 0.52766 0.68016 0.0
C2492 C 0.07237 0.51963 0.6839 0.0
C2493 C 1.02651 0.5102 0.68985 0.0
C2494 C 0.34172 0.50309 0.69989 0.0
C2495 C 0.20438 0.51134 0.6916 0.0
C2496 C 0.43023 0.50372 0.7008 0.0
C2497 C 0.47626 0.51309 0.69481 0.0
C2498 C 0.29851 0.51189 0.69293 0.0
C2499 C 0.43058 0.52185 0.68809 0.0
C2500 C 0.16095 0.52022 0.68474 0.0
C2501 C 0.07245 0.50133 0.69643 0.0
N2502 N 0.34438 0.52101 0.68731 0.0
N2503 N 0.15866 0.50215 0.69715 0.0
H2504 H 0.78866 0.53624 0.44676 0.0
H2505 H 0.21869 0.49832 0.43247 0.0
H2506 H 0.79248 0.49868 0.43128 0.0
H2507 H 0.21011 0.53484 0.44978 0.0
H2508 H 0.06348 0.49855 0.43121 0.0
H2509 H 0.94345 0.53622 0.44701 0.0
C2510 C 0.82191 0.52799 0.44335 0.0
C2511 C 0.77706 0.51741 0.43902 0.0
C2512 C 0.0956 0.50651 0.43528 0.0
C2513 C 0.95536 0.51733 0.43934 0.0
C2514 C 0.18433 0.50639 0.43601 0.0
C2515 C 0.22779 0.51657 0.44126 0.0
C2516 C 0.04982 0.51689 0.43981 0.0
C2517 C 0.1796 0.52676 0.44568 0.0
C2518 C 0.91059 0.52798 0.44352 0.0
C2519 C 0.82416 0.50704 0.43471 0.0
N2520 N 0.09339 0.52666 0.44485 0.0
N2521 N 0.91072 0.50724 0.43501 0.0
H2522 H 0.06004 0.24219 0.44869 0.0
H2523 H 0.63361 0.28132 0.43493 0.0
H2524 H 0.05571 0.27931 0.43247 0.0
H2525 H 0.63516 0.24589 0.45391 0.0
H2526 H 0.78822 0.28038 0.43365 0.0
H2527 H 0.90466 0.24284 0.45007 0.0
C2528 C 1.02661 0.25043 0.44534 0.0
C2529 C 0.07147 0.26071 0.44046 0.0
C2530 C 0.75493 0.27282 0.43814 0.0
C2531 C 0.89328 0.26154 0.4421 0.0
C2532 C 0.66639 0.27336 0.4389 0.0
C2533 C 0.62093 0.26367 0.44455 0.0
C2534 C 0.79895 0.26248 0.44301 0.0
C2535 C 0.66736 0.25361 0.44951 0.0
C2536 C 0.9378 0.25082 0.44619 0.0
C2537 C 1.0243 0.27115 0.43632 0.0
N2538 N 0.75373 0.25325 0.44858 0.0
N2539 N 0.93811 0.2713 0.43725 0.0
H2540 H 0.21137 0.28026 0.3265 0.0
H2541 H 0.78401 0.24283 0.30968 0.0
H2542 H 0.20674 0.24643 0.30527 0.0
H2543 H 0.78809 0.27703 0.33043 0.0
H2544 H 0.93897 0.24376 0.30828 0.0
H2545 H 0.05648 0.27925 0.32803 0.0
C2546 C 0.17786 0.27266 0.32209 0.0
C2547 C 0.2224 0.26342 0.31573 0.0
C2548 C 0.90602 0.25104 0.31317 0.0
C2549 C 0.04466 0.26214 0.31755 0.0
C2550 C 0.81741 0.25049 0.31402 0.0
C2551 C 0.77267 0.25987 0.32019 0.0
C2552 C 0.95053 0.26106 0.31852 0.0
C2553 C 0.81968 0.26957 0.3256 0.0
C2554 C 0.0893 0.27207 0.323 0.0
C2555 C 0.17528 0.25378 0.31025 0.0
N2556 N 0.90587 0.26993 0.32461 0.0
N2557 N 0.08915 0.25338 0.31131 0.0
H2558 H 0.04667 0.49768 0.32864 0.0
H2559 H 0.62422 0.53473 0.30934 0.0
H2560 H 0.04586 0.53489 0.31255 0.0
H2561 H 0.62065 0.49821 0.32662 0.0
H2562 H 0.779 0.53489 0.3106 0.0
H2563 H 0.891 0.49773 0.3283 0.0
C2564 C 1.01395 0.50589 0.3251 0.0
C2565 C 0.05975 0.51628 0.32059 0.0
C2566 C 0.74445 0.52684 0.31413 0.0
C2567 C 0.8814 0.51635 0.32011 0.0
C2568 C 0.65587 0.52673 0.31339 0.0
C2569 C 0.60906 0.51643 0.31786 0.0
C2570 C 0.78701 0.51657 0.31935 0.0
C2571 C 0.65394 0.50635 0.32304 0.0
C2572 C 0.92499 0.5059 0.32488 0.0
C2573 C 1.0136 0.52664 0.3161 0.0
N2574 N 0.74035 0.50667 0.32363 0.0
N2575 N 0.92723 0.52638 0.31595 0.0
H2576 H 0.8796 0.03107 0.07562 0.0
H2577 H 0.30714 0.99373 0.05847 0.0
H2578 H 0.88471 0.99756 0.054 0.0
H2579 H 0.30288 0.02754 0.07972 0.0
H2580 H 0.15223 0.99474 0.05705 0.0
H2581 H 1.03447 0.02997 0.07721 0.0
C2582 C 0.91322 0.02353 0.07113 0.0
C2583 C 0.8688 0.01441 0.06465 0.0
C2584 C 0.18512 1.00192 0.06206 0.0
C2585 C 0.04648 1.01301 0.06654 0.0
C2586 C 0.2737 1.00131 0.06292 0.0
C2587 C 0.31839 1.01056 0.06923 0.0
C2588 C 0.14058 1.01186 0.06754 0.0
C2589 C 0.27133 0.02019 0.07477 0.0
C2590 C 1.00175 0.02288 0.07208 0.0
C2591 C 0.91604 1.00483 0.05907 0.0
N2592 N 0.18518 0.0206 0.07377 0.0
N2593 N 1.00211 1.00437 0.06017 0.0
H2594 H 1.0307 0.24923 0.08103 0.0
H2595 H 0.45408 0.27995 0.05436 0.0
H2596 H 1.03156 0.28272 0.05943 0.0
H2597 H 0.45413 0.24673 0.0763 0.0
H2598 H 0.29939 0.28096 0.05597 0.0
H2599 H 0.18559 0.24828 0.07956 0.0
C2600 C 0.06339 0.25646 0.07605 0.0
C2601 C 1.01773 0.26608 0.07034 0.0
C2602 C 0.33313 0.27342 0.06041 0.0
C2603 C 0.1956 0.26495 0.06853 0.0
C2604 C 0.42163 0.2728 0.05946 0.0
C2605 C 0.4675 0.26322 0.0652 0.0
C2606 C 0.28974 0.26441 0.06716 0.0
C2607 C 0.42163 0.25426 0.0717 0.0
C2608 C 0.15198 0.25587 0.07518 0.0
C2609 C 0.06387 0.27514 0.06399 0.0
N2610 N 0.33543 0.2551 0.07252 0.0
N2611 N 0.15009 0.27433 0.06323 0.0
H2612 H 0.87505 0.24573 0.18534 0.0
H2613 H 0.30066 0.28559 0.19809 0.0
H2614 H 0.87611 0.2818 0.2034 0.0
H2615 H 0.29719 0.24798 0.18271 0.0
H2616 H 0.14524 0.2849 0.19944 0.0
H2617 H 1.02968 0.24674 0.18397 0.0
C2618 C 0.90771 0.25384 0.18909 0.0
C2619 C 0.86212 0.26369 0.19451 0.0
C2620 C 0.17858 0.27682 0.19574 0.0
C2621 C 1.04006 0.26497 0.19285 0.0
C2622 C 0.2674 0.27723 0.19491 0.0
C2623 C 0.3125 0.26682 0.19028 0.0
C2624 C 0.13434 0.26594 0.1919 0.0
C2625 C 0.26559 0.25624 0.18636 0.0
C2626 C 0.99624 0.25442 0.18827 0.0
C2627 C 0.90839 0.27396 0.19918 0.0
N2628 N 0.1794 0.25607 0.18728 0.0
N2629 N 0.99469 0.27435 0.19821 0.0
H2630 H 0.45554 0.0312 0.18325 0.0
H2631 H 1.02756 0.99383 0.20015 0.0
H2632 H 0.4506 0.99748 0.20455 0.0
H2633 H 1.0326 0.02765 0.17897 0.0
H2634 H 0.18247 0.99485 0.20166 0.0
H2635 H 0.30068 0.03015 0.18171 0.0
C2636 C 0.42196 0.02363 0.18768 0.0
C2637 C 0.46645 0.01442 0.19405 0.0
C2638 C 0.14975 1.00202 0.19665 0.0
C2639 C 0.28866 1.01309 0.19222 0.0
C2640 C 0.06117 1.00142 0.19574 0.0
C2641 C 1.01668 1.01067 0.18941 0.0
C2642 C 0.19451 1.01196 0.19121 0.0
C2643 C 0.06397 0.0203 0.18392 0.0
C2644 C 0.33341 0.023 0.18676 0.0
C2645 C 0.41921 1.00481 0.19956 0.0
N2646 N 0.1501 0.02071 0.18498 0.0
N2647 N 0.33308 1.00437 0.1985 0.0
H2648 H 0.76434 0.03503 0.94827 0.0
H2649 H 0.19584 0.99921 0.93094 0.0
H2650 H 0.7701 0.99883 0.93039 0.0
H2651 H 0.18668 0.03423 0.95056 0.0
H2652 H 1.04069 0.9992 0.93007 0.0
H2653 H 0.91908 0.0352 0.94848 0.0
C2654 C 0.79798 0.02711 0.94434 0.0
C2655 C 0.75366 0.01687 0.93931 0.0
C2656 C 0.07261 1.00689 0.93456 0.0
C2657 C 0.932 0.01703 0.93957 0.0
C2658 C 0.16136 1.00691 0.93507 0.0
C2659 C 0.2047 0.01674 0.94085 0.0
C2660 C 1.02653 0.01678 0.93984 0.0
C2661 C 0.15626 0.02645 0.94602 0.0
C2662 C 0.88665 0.02722 0.94449 0.0
C2663 C 0.80132 1.00692 0.93436 0.0
N2664 N 0.06992 0.02622 0.94539 0.0
N2665 N 0.88788 1.00724 0.93464 0.0
H2666 H 0.06119 0.74214 0.94852 0.0
H2667 H 0.6345 0.78167 0.93583 0.0
H2668 H 0.05676 0.77979 0.9333 0.0
H2669 H 0.63633 0.74566 0.95392 0.0
H2670 H 0.7891 0.78079 0.9345 0.0
H2671 H 0.90583 0.74274 0.94993 0.0
C2672 C 1.02774 0.7505 0.94539 0.0
C2673 C 0.07258 0.76094 0.94078 0.0
C2674 C 0.75589 0.77309 0.9388 0.0
C2675 C 0.89436 0.7617 0.94246 0.0
C2676 C 0.66734 0.7736 0.93959 0.0
C2677 C 0.62195 0.76373 0.94501 0.0
C2678 C 0.8 0.7626 0.9434 0.0
C2679 C 0.66848 0.75352 0.94971 0.0
C2680 C 0.93893 0.75085 0.94626 0.0
C2681 C 1.02537 0.77151 0.93692 0.0
N2682 N 0.75485 0.75319 0.94875 0.0
N2683 N 0.93916 0.77162 0.93786 0.0
H2684 H 0.20905 0.78196 0.82596 0.0
H2685 H 0.78126 0.7442 0.80984 0.0
H2686 H 0.20426 0.74774 0.80525 0.0
H2687 H 0.78583 0.77867 0.83023 0.0
H2688 H 0.93621 0.74514 0.80833 0.0
H2689 H 0.05418 0.78095 0.82756 0.0
C2690 C 0.1755 0.77428 0.82167 0.0
C2691 C 0.22004 0.76492 0.81544 0.0
C2692 C 0.90338 0.75247 0.81317 0.0
C2693 C 1.04222 0.76365 0.81735 0.0
C2694 C 0.81477 0.75192 0.81408 0.0
C2695 C 0.77013 0.76137 0.82018 0.0
C2696 C 0.94804 0.76256 0.81838 0.0
C2697 C 0.81731 0.77115 0.82545 0.0
C2698 C 0.08694 0.77369 0.82263 0.0
C2699 C 0.17283 0.75518 0.81012 0.0
N2700 N 0.90349 0.77151 0.82441 0.0
N2701 N 0.08669 0.75478 0.81121 0.0
H2702 H 0.6162 0.03226 0.8048 0.0
H2703 H 1.03987 0.99852 0.82824 0.0
H2704 H 0.61703 0.99808 0.82553 0.0
H2705 H 1.04066 0.0347 0.8104 0.0
H2706 H 0.88505 0.99802 0.82688 0.0
H2707 H 0.77174 0.03295 0.80604 0.0
C2708 C 0.64894 0.02485 0.80954 0.0
C2709 C 0.60313 0.01511 0.81507 0.0
C2710 C 0.91899 1.0061 0.8233 0.0
C2711 C 0.78134 0.01589 0.81658 0.0
C2712 C 1.00764 1.00641 0.8241 0.0
C2713 C 0.05386 0.01668 0.81944 0.0
C2714 C 0.87569 0.01609 0.81776 0.0
C2715 C 1.00802 0.0266 0.81415 0.0
C2716 C 0.73779 0.02529 0.81029 0.0
C2717 C 0.64928 1.00581 0.82114 0.0
N2718 N 0.92167 0.02603 0.81342 0.0
N2719 N 0.73552 1.00644 0.82173 0.0
H2720 H 0.06706 0.53991 0.02877 0.0
H2721 H 1.01925 0.48598 0.98028 0.0
H2722 H 0.08683 0.49946 0.03555 0.0
H2723 H 1.0029 0.52647 0.97348 0.0
H2724 H 1.04272 0.49068 1.00052 0.0
H2725 H 0.04404 0.53518 0.00854 0.0
C2726 C 0.06683 0.53001 0.02598 0.0
C2727 C 0.07865 0.52005 0.03386 0.0
C2728 C 1.0339 0.49855 0.99463 0.0
C2729 C 0.05181 0.51454 0.01065 0.0
C2730 C 1.02029 0.49587 0.98307 0.0
C2731 C 1.00913 0.50585 0.97519 0.0
C2732 C 1.03647 0.51133 0.99839 0.0
C2733 C 1.01123 0.51849 0.97927 0.0
C2734 C 0.05348 0.52732 0.01442 0.0
C2735 C 0.07767 0.50741 0.02977 0.0
N2736 N 1.02475 0.52087 0.99058 0.0
N2737 N 0.06432 0.50502 0.01846 0.0
H2738 H 0.32518 0.79052 0.98063 0.0
H2739 H 0.26686 0.73728 0.02946 0.0
H2740 H 0.33794 0.74994 0.97408 0.0
H2741 H 0.25017 0.77785 0.03588 0.0
H2742 H 0.29237 0.74169 0.00922 0.0
H2743 H 0.29907 0.78608 1.00086 0.0
C2744 C 0.32282 0.78065 0.98347 0.0
C2745 C 0.33377 0.77058 0.97566 0.0
C2746 C 0.28304 0.74965 0.01502 0.0
C2747 C 0.30333 0.7654 0.99887 0.0
C2748 C 0.26826 0.74714 0.02659 0.0
C2749 C 0.25655 0.75722 0.03439 0.0
C2750 C 0.28632 0.76237 0.01115 0.0
C2751 C 0.25911 0.76979 0.03018 0.0
C2752 C 0.30768 0.77813 0.99503 0.0
C2753 C 0.32989 0.75799 0.97981 0.0
N2754 N 0.27388 0.77201 0.01887 0.0
N2755 N 0.31489 0.75576 0.99112 0.0
H2756 H 0.12238 0.7847 0.28282 0.0
H2757 H 0.95763 0.74578 0.22793 0.0
H2758 H 0.92969 0.75537 0.28426 0.0
H2759 H 0.15366 0.77459 0.22617 0.0
H2760 H 0.94616 0.74936 0.24851 0.0
H2761 H 0.13473 0.78131 0.26216 0.0
C2762 C 0.08258 0.77755 0.27878 0.0
C2763 C 1.02466 0.77034 0.28527 0.0
C2764 C 0.99179 0.75491 0.24366 0.0
C2765 C 1.03851 0.76639 0.26158 0.0
C2766 C 0.99839 0.75287 0.23189 0.0
C2767 C 0.05696 0.75986 0.22532 0.0
C2768 C 0.04404 0.76405 0.24899 0.0
C2769 C 0.10784 0.76896 0.23091 0.0
C2770 C 0.08969 0.77562 0.26697 0.0
C2771 C 0.97495 0.76118 0.27959 0.0
N2772 N 0.10026 0.77078 0.24242 0.0
N2773 N 0.98296 0.75948 0.26809 0.0
H2774 H 0.17023 0.50493 0.22481 0.0
H2775 H 0.38928 0.52652 0.28383 0.0
H2776 H 0.3675 0.53351 0.22699 0.0
H2777 H 0.18916 0.49839 0.28166 0.0
H2778 H 0.38049 0.52957 0.26308 0.0
H2779 H 0.17525 0.50251 0.24565 0.0
C2780 C 0.21456 0.51069 0.22968 0.0
C2781 C 0.26835 0.51945 0.22416 0.0
C2782 C 0.3383 0.52275 0.26714 0.0
C2783 C 0.27459 0.51677 0.24802 0.0
C2784 C 0.34324 0.52104 0.27899 0.0
C2785 C 0.29014 0.51215 0.28447 0.0
C2786 C 0.27987 0.51552 0.26071 0.0
C2787 C 0.23151 0.50531 0.27778 0.0
C2788 C 0.21741 0.50933 0.24157 0.0
C2789 C 0.32475 0.52666 0.23089 0.0
N2790 N 0.22817 0.5071 0.26628 0.0
N2791 N 0.32639 0.52516 0.24244 0.0
H2792 H 0.71242 0.28346 0.97701 0.0
H2793 H 0.87683 0.2446 0.03191 0.0
H2794 H 0.9055 0.25419 0.97553 0.0
H2795 H 0.68043 0.27336 0.03361 0.0
H2796 H 0.88856 0.24816 0.01132 0.0
H2797 H 0.69987 0.28005 0.99765 0.0
C2798 C 0.75227 0.27631 0.98104 0.0
C2799 C 0.81035 0.26913 0.97453 0.0
C2800 C 0.84279 0.25371 0.01616 0.0
C2801 C 0.79626 0.26515 0.99823 0.0
C2802 C 0.83597 0.25169 0.02794 0.0
C2803 C 0.77723 0.25867 0.0345 0.0
C2804 C 0.79053 0.26282 0.01082 0.0
C2805 C 0.72631 0.26774 0.02888 0.0
C2806 C 0.74504 0.27437 0.99284 0.0
C2807 C 0.86011 0.25997 0.98021 0.0
N2808 N 0.73412 0.26955 0.01738 0.0
N2809 N 0.85198 0.25826 0.99171 0.0
H2810 H 0.96917 0.25107 0.78646 0.0
H2811 H 0.12773 0.27634 0.72522 0.0
H2812 H 0.04835 0.29 0.78039 0.0
H2813 H 0.97649 0.24222 0.72942 0.0
H2814 H 0.11464 0.28048 0.74582 0.0
H2815 H 0.98675 0.24654 0.76596 0.0
C2816 C 0.99062 0.25863 0.78082 0.0
C2817 C 1.00736 0.27092 0.78512 0.0
C2818 C 0.08442 0.27208 0.74223 0.0
C2819 C 1.02801 0.26583 0.7617 0.0
C2820 C 0.09211 0.2697 0.73048 0.0
C2821 C 0.05313 0.25893 0.7256 0.0
C2822 C 1.03835 0.26353 0.74918 0.0
C2823 C 1.00746 0.25065 0.73282 0.0
C2824 C 1.00034 0.25607 0.76913 0.0
C2825 C 1.03454 0.2804 0.77743 0.0
N2826 N 1.00163 0.25309 0.74423 0.0
N2827 N 0.04432 0.27765 0.76613 0.0
H2828 H 0.70718 0.49532 0.78296 0.0
H2829 H 0.88346 0.53257 0.72784 0.0
H2830 H 0.90595 0.52372 0.78449 0.0
H2831 H 0.68572 0.50401 0.72636 0.0
H2832 H 0.89263 0.5295 0.74853 0.0
H2833 H 0.698 0.49846 0.7623 0.0
C2834 C 0.74899 0.50223 0.77894 0.0
C2835 C 0.80767 0.50924 0.78546 0.0
C2836 C 0.84716 0.5239 0.7437 0.0
C2837 C 0.79746 0.5129 0.76173 0.0
C2838 C 0.84187 0.52565 0.73188 0.0
C2839 C 0.78348 0.51857 0.72537 0.0
C2840 C 0.79368 0.51498 0.74911 0.0
C2841 C 0.73144 0.5097 0.73106 0.0
C2842 C 0.7437 0.50401 0.76712 0.0
C2843 C 0.85999 0.51809 0.77979 0.0
N2844 N 0.73771 0.50816 0.74259 0.0
N2845 N 0.8537 0.51966 0.76826 0.0
H2846 H 0.15771 1.00358 0.53465 0.0
H2847 H 0.92576 0.02398 0.47617 0.0
H2848 H 0.96371 0.03267 0.53269 0.0
H2849 H 0.11954 0.99485 0.4781 0.0
H2850 H 0.93884 0.02735 0.49685 0.0
H2851 H 0.14478 1.0002 0.51397 0.0
C2852 C 0.11249 1.00926 0.52986 0.0
C2853 C 0.06197 0.01845 0.5354 0.0
C2854 C 0.9785 0.02021 0.49276 0.0
C2855 C 0.04658 0.01464 0.51171 0.0
C2856 C 0.97097 0.01829 0.48095 0.0
C2857 C 1.02138 1.00909 0.47541 0.0
C2858 C 1.03695 1.01289 0.4991 0.0
C2859 C 0.07921 1.00202 0.48202 0.0
C2860 C 0.10505 1.00733 0.51805 0.0
C2861 C 1.00413 0.0255 0.52878 0.0
N2862 N 0.08535 1.00406 0.49349 0.0
N2863 N 0.99808 0.02347 0.51731 0.0
H2864 H 0.32845 0.29147 0.47963 0.0
H2865 H 0.27652 0.23862 0.5289 0.0
H2866 H 0.34271 0.25079 0.47366 0.0
H2867 H 0.26956 0.2792 0.53564 0.0
H2868 H 0.29949 0.24305 0.50867 0.0
H2869 H 0.30701 0.28736 0.50005 0.0
C2870 C 0.32737 0.28166 0.48263 0.0
C2871 C 0.33729 0.27145 0.47492 0.0
C2872 C 0.29291 0.25102 0.51453 0.0
C2873 C 0.31227 0.26666 0.49833 0.0
C2874 C 0.2796 0.2485 0.52611 0.0
C2875 C 0.27096 0.25856 0.53399 0.0
C2876 C 0.29773 0.26374 0.51069 0.0
C2877 C 0.27567 0.27116 0.52986 0.0
C2878 C 0.31497 0.27932 0.4943 0.0
C2879 C 0.33523 0.25894 0.47929 0.0
N2880 N 0.28877 0.27339 0.51849 0.0
N2881 N 0.3228 0.25691 0.49067 0.0
H2882 H 0.30398 0.98619 0.78036 0.0
H2883 H 0.26186 0.03916 0.73097 0.0
H2884 H 0.32699 0.02679 0.78625 0.0
H2885 H 0.24596 0.9986 0.72448 0.0
H2886 H 0.283 0.03473 0.75127 0.0
H2887 H 0.28152 0.9904 0.75997 0.0
C2888 C 0.30445 0.996 0.77735 0.0
C2889 C 0.31716 1.00617 0.78501 0.0
C2890 C 0.27484 0.02677 0.74544 0.0
C2891 C 0.29113 1.01107 0.76167 0.0
C2892 C 0.26255 0.0293 0.73383 0.0
C2893 C 0.2523 0.01923 0.72601 0.0
C2894 C 0.27692 0.01405 0.74933 0.0
C2895 C 0.25382 1.00664 0.73021 0.0
C2896 C 0.2915 0.9984 0.76571 0.0
C2897 C 0.31712 0.01868 0.78065 0.0
N2898 N 0.26602 1.0044 0.74158 0.0
N2899 N 0.3042 0.02077 0.7693 0.0
H2900 H 0.76088 0.78903 0.4785 0.0
H2901 H 0.77477 0.73749 0.52903 0.0
H2902 H 0.86273 0.75099 0.47423 0.0
H2903 H 0.73659 0.77781 0.53507 0.0
H2904 H 0.79609 0.74192 0.50871 0.0
H2905 H 0.74238 0.78486 0.49894 0.0
C2906 C 0.77912 0.77977 0.48186 0.0
C2907 C 0.813 0.77031 0.47463 0.0
C2908 C 0.78322 0.74982 0.51446 0.0
C2909 C 0.79099 0.76542 0.49806 0.0
C2910 C 0.77067 0.74729 0.52607 0.0
C2911 C 0.75396 0.7573 0.53377 0.0
C2912 C 0.77837 0.76246 0.51043 0.0
C2913 C 0.74947 0.76982 0.52943 0.0
C2914 C 0.76873 0.77742 0.49355 0.0
C2915 C 0.83605 0.75853 0.47948 0.0
N2916 N 0.76137 0.77204 0.51805 0.0
N2917 N 0.82404 0.75639 0.49086 0.0
H2918 H 0.67711 1.00402 0.2254 0.0
H2919 H 0.91113 0.02396 0.2839 0.0
H2920 H 0.87552 0.03244 0.22732 0.0
H2921 H 0.71421 0.9953 0.28192 0.0
H2922 H 0.89873 0.02731 0.26321 0.0
H2923 H 0.68944 1.00069 0.24609 0.0
C2924 C 0.72318 1.00956 0.23018 0.0
C2925 C 0.77512 0.01855 0.22464 0.0
C2926 C 0.85824 0.02028 0.2673 0.0
C2927 C 0.78983 0.0148 0.24833 0.0
C2928 C 0.86537 0.01837 0.27911 0.0
C2929 C 0.81389 1.0093 0.28463 0.0
C2930 C 0.79909 1.01308 0.26094 0.0
C2931 C 0.75539 1.00237 0.27801 0.0
C2932 C 0.73028 1.00766 0.242 0.0
C2933 C 0.83401 0.02544 0.23125 0.0
N2934 N 0.74964 1.00438 0.26654 0.0
N2935 N 0.83969 0.02343 0.24272 0.0
H2936 H 0.67442 0.50558 0.53428 0.0
H2937 H 0.44733 0.52672 0.47571 0.0
H2938 H 0.47607 0.53403 0.53257 0.0
H2939 H 0.64864 0.49876 0.47758 0.0
H2940 H 0.45843 0.52992 0.49645 0.0
H2941 H 0.66682 0.50312 0.51347 0.0
C2942 C 0.62935 0.51132 0.52952 0.0
C2943 C 0.57599 0.52004 0.53515 0.0
C2944 C 0.50035 0.52311 0.49232 0.0
C2945 C 0.56673 0.5173 0.51132 0.0
C2946 C 0.49408 0.5213 0.48048 0.0
C2947 C 0.54688 0.51243 0.47493 0.0
C2948 C 0.55982 0.51597 0.49865 0.0
C2949 C 0.60648 0.50568 0.48152 0.0
C2950 C 0.62501 0.50992 0.51763 0.0
C2951 C 0.51854 0.5272 0.52856 0.0
N2952 N 0.61111 0.50755 0.493 0.0
N2953 N 0.51542 0.52567 0.51701 0.0
H2954 H 0.62985 0.78249 0.78188 0.0
H2955 H 0.45192 0.74421 0.7274 0.0
H2956 H 0.42983 0.75433 0.78392 0.0
H2957 H 0.65325 0.77216 0.7254 0.0
H2958 H 0.44257 0.74784 0.74802 0.0
H2959 H 0.63934 0.77884 0.76127 0.0
C2960 C 0.58782 0.77553 0.77798 0.0
C2961 C 0.5287 0.76874 0.78464 0.0
C2962 C 0.48888 0.75319 0.7431 0.0
C2963 C 0.5393 0.76449 0.76095 0.0
C2964 C 0.49428 0.75112 0.73131 0.0
C2965 C 0.55373 0.75786 0.72466 0.0
C2966 C 0.54326 0.76209 0.74836 0.0
C2967 C 0.6067 0.76672 0.7302 0.0
C2968 C 0.59331 0.77345 0.76619 0.0
C2969 C 0.47615 0.75981 0.77912 0.0
N2970 N 0.60026 0.76857 0.74171 0.0
N2971 N 0.48262 0.75795 0.76761 0.0
H2972 H 0.45744 0.2504 0.28497 0.0
H2973 H 0.61213 0.27713 0.22411 0.0
H2974 H 0.60486 0.28499 0.28141 0.0
H2975 H 0.54363 0.23768 0.22985 0.0
H2976 H 0.59509 0.28126 0.2447 0.0
H2977 H 0.47297 0.24658 0.26435 0.0
C2978 C 0.49274 0.25721 0.27984 0.0
C2979 C 0.52991 0.26802 0.28491 0.0
C2980 C 0.58392 0.2717 0.24144 0.0
C2981 C 0.54747 0.26379 0.26131 0.0
C2982 C 0.59349 0.26936 0.2297 0.0
C2983 C 0.57944 0.25705 0.22527 0.0
C2984 C 0.55886 0.2617 0.24877 0.0
C2985 C 0.5554 0.24731 0.2329 0.0
C2986 C 0.50185 0.25502 0.26809 0.0
C2987 C 0.57525 0.27652 0.27786 0.0
N2988 N 0.54545 0.24985 0.24423 0.0
N2989 N 0.58242 0.27426 0.26643 0.0
H2990 H 0.6573 1.0042 0.03289 0.0
H2991 H 0.43079 0.02604 0.97441 0.0
H2992 H 0.46453 0.03349 0.03113 0.0
H2993 H 0.61357 0.99535 0.97642 0.0
H2994 H 0.44647 0.02954 0.99505 0.0
H2995 H 0.64592 1.00127 0.01213 0.0
C2996 C 0.61273 1.01003 0.02813 0.0
C2997 C 0.56195 0.01912 0.03375 0.0
C2998 C 0.48328 0.02204 0.99098 0.0
C2999 C 0.54845 0.01585 0.00997 0.0
C3000 C 0.47439 0.02007 0.97919 0.0
C3001 C 0.5206 1.01035 0.9737 0.0
C3002 C 0.53895 0.01426 0.99734 0.0
C3003 C 0.57642 1.00292 0.98031 0.0
C3004 C 0.60617 1.00836 0.01628 0.0
C3005 C 0.50503 0.02638 0.02715 0.0
N3006 N 0.58388 1.00501 0.99175 0.0
N3007 N 0.49988 0.0246 0.01565 0.0
loop_
_geom_bond_atom_site_label_1
_geom_bond_atom_site_label_2
_geom_bond_distance
_geom_bond_site_symmetry_2
_ccdc_geom_bond_type
Nd0 C2 2.836 1_455 S
Nd0 O20 2.500 1_455 S
Nd0 O21 2.488 1_455 S
Nd0 O22 2.487 . S
Nd0 O23 2.682 . S
Nd0 O24 2.410 1_455 S
Nd0 O29 2.414 . S
Nd0 O31 2.424 . S
Nd1 C11 2.836 . S
Nd1 O23 2.414 . S
Nd1 O25 2.424 1_455 S
Nd1 O26 2.500 . S
Nd1 O27 2.492 . S
Nd1 O28 2.487 . S
Nd1 O29 2.682 . S
Nd1 O30 2.410 . S
C2 Nd0 2.836 1_655 S
C2 C3 1.498 . S
C2 O20 1.258 . S
C2 O21 1.243 . S
C3 C2 1.498 . S
C3 C4 1.366 . S
C3 C8 1.407 . S
C4 C3 1.366 . S
C4 C5 1.392 . S
C4 H32 0.930 . S
C5 C4 1.392 . S
C5 C6 1.398 . S
C5 H33 0.929 . S
C6 C5 1.398 . S
C6 C7 1.352 . S
C7 C6 1.352 . S
C7 C8 1.384 . S
C7 H34 0.930 . S
C8 C3 1.407 . S
C8 C7 1.384 . S
C8 H35 0.929 . S
C9 O22 1.241 . S
C9 O23 1.273 . S
C10 O24 1.251 . S
C10 O25 1.268 . S
C11 Nd1 2.836 . S
C11 C12 1.498 . S
C11 O26 1.258 . S
C11 O27 1.239 . S
C12 C11 1.498 . S
C12 C13 1.366 . S
C12 C17 1.407 . S
C13 C12 1.366 . S
C13 C14 1.392 . S
C13 H36 0.930 . S
C14 C13 1.392 . S
C14 C15 1.398 . S
C14 H37 0.929 . S
C15 C14 1.398 . S
C15 C16 1.352 . S
C16 C15 1.352 . S
C16 C17 1.384 . S
C16 H38 0.930 . S
C17 C12 1.407 . S
C17 C16 1.384 . S
C17 H39 0.929 . S
C18 O28 1.241 . S
C18 O29 1.273 . S
C19 O30 1.251 . S
C19 O31 1.268 . S
O20 Nd0 2.500 1_655 S
O20 C2 1.258 . S
O21 Nd0 2.488 1_655 S
O21 C2 1.243 . S
O22 Nd0 2.487 . S
O22 C9 1.241 . S
O23 Nd0 2.682 . S
O23 Nd1 2.414 . S
O23 C9 1.273 . S
O24 Nd0 2.410 1_655 S
O24 C10 1.251 . S
O25 Nd1 2.424 1_655 S
O25 C10 1.268 . S
O26 Nd1 2.500 . S
O26 C11 1.258 . S
O27 Nd1 2.492 . S
O27 C11 1.239 . S
O28 Nd1 2.487 . S
O28 C18 1.241 . S
O29 Nd0 2.414 . S
O29 Nd1 2.682 . S
O29 C18 1.273 . S
O30 Nd1 2.410 . S
O30 C19 1.251 . S
O31 Nd0 2.424 . S
O31 C19 1.268 . S
H32 C4 0.930 . S
H33 C5 0.929 . S
H34 C7 0.930 . S
H35 C8 0.929 . S
H36 C13 0.930 . S
H37 C14 0.929 . S
H38 C16 0.930 . S
H39 C17 0.929 . S
Nd40 C42 2.836 . S
Nd40 O60 2.500 . S
Nd40 O61 2.492 . S
Nd40 O62 2.487 . S
Nd40 O63 2.682 . S
Nd40 O64 2.410 . S
Nd40 O69 2.414 . S
Nd40 O71 2.424 . S
Nd41 C51 2.836 . S
Nd41 O63 2.414 . S
Nd41 O65 2.424 . S
Nd41 O66 2.500 . S
Nd41 O67 2.492 . S
Nd41 O68 2.487 . S
Nd41 O69 2.682 . S
Nd41 O70 2.410 . S
C42 Nd40 2.836 . S
C42 C43 1.498 . S
C42 O60 1.258 . S
C42 O61 1.239 . S
C43 C42 1.498 . S
C43 C44 1.366 . S
C43 C48 1.407 . S
C44 C43 1.366 . S
C44 C45 1.392 . S
C44 H72 0.930 . S
C45 C44 1.392 . S
C45 C46 1.398 . S
C45 H73 0.929 . S
C46 C45 1.398 . S
C46 C47 1.352 . S
C47 C46 1.352 . S
C47 C48 1.384 . S
C47 H74 0.930 . S
C48 C43 1.407 . S
C48 C47 1.384 . S
C48 H75 0.929 . S
C49 O62 1.241 . S
C49 O63 1.273 . S
C50 O64 1.251 . S
C50 O65 1.268 . S
C51 Nd41 2.836 . S
C51 C52 1.498 . S
C51 O66 1.258 . S
C51 O67 1.239 . S
C52 C51 1.498 . S
C52 C53 1.366 . S
C52 C57 1.407 . S
C53 C52 1.366 . S
C53 C54 1.392 . S
C53 H76 0.930 . S
C54 C53 1.392 . S
C54 C55 1.398 . S
C54 H77 0.929 1_455 S
C55 C54 1.398 . S
C55 C56 1.352 . S
C56 C55 1.352 . S
C56 C57 1.384 . S
C56 H78 0.930 . S
C57 C52 1.407 . S
C57 C56 1.384 . S
C57 H79 0.929 . S
C58 O68 1.241 . S
C58 O69 1.273 . S
C59 O70 1.251 . S
C59 O71 1.268 . S
O60 Nd40 2.500 . S
O60 C42 1.258 . S
O61 Nd40 2.492 . S
O61 C42 1.239 . S
O62 Nd40 2.487 . S
O62 C49 1.241 . S
O63 Nd40 2.682 . S
O63 Nd41 2.414 . S
O63 C49 1.273 . S
O64 Nd40 2.410 . S
O64 C50 1.251 . S
O65 Nd41 2.424 . S
O65 C50 1.268 . S
O66 Nd41 2.500 . S
O66 C51 1.258 . S
O67 Nd41 2.492 . S
O67 C51 1.239 . S
O68 Nd41 2.487 . S
O68 C58 1.241 . S
O69 Nd40 2.414 . S
O69 Nd41 2.682 . S
O69 C58 1.273 . S
O70 Nd41 2.410 . S
O70 C59 1.251 . S
O71 Nd40 2.424 . S
O71 C59 1.268 . S
H72 C44 0.930 . S
H73 C45 0.929 . S
H74 C47 0.930 . S
H75 C48 0.929 . S
H76 C53 0.930 . S
H77 C54 0.929 1_655 S
H78 C56 0.930 . S
H79 C57 0.929 . S
Nd80 C82 2.836 1_455 S
Nd80 O100 2.500 1_455 S
Nd80 O101 2.486 1_455 S
Nd80 O102 2.487 . S
Nd80 O103 2.682 . S
Nd80 O104 2.410 1_455 S
Nd80 O109 2.414 . S
Nd80 O111 2.424 . S
Nd81 C91 2.836 . S
Nd81 O103 2.414 . S
Nd81 O105 2.424 1_455 S
Nd81 O106 2.500 . S
Nd81 O107 2.492 . S
Nd81 O108 2.487 . S
Nd81 O109 2.682 . S
Nd81 O110 2.410 . S
C82 Nd80 2.836 1_655 S
C82 C83 1.498 . S
C82 O100 1.258 . S
C82 O101 1.245 . S
C83 C82 1.498 . S
C83 C84 1.366 . S
C83 C88 1.407 . S
C84 C83 1.366 . S
C84 C85 1.392 . S
C84 H112 0.930 . S
C85 C84 1.392 . S
C85 C86 1.398 . S
C85 H113 0.929 . S
C86 C85 1.398 . S
C86 C87 1.352 . S
C87 C86 1.352 . S
C87 C88 1.384 . S
C87 H114 0.930 . S
C88 C83 1.407 . S
C88 C87 1.384 . S
C88 H115 0.929 . S
C89 O102 1.241 . S
C89 O103 1.273 . S
C90 O104 1.251 . S
C90 O105 1.268 . S
C91 Nd81 2.836 . S
C91 C92 1.498 . S
C91 O106 1.258 . S
C91 O107 1.239 . S
C92 C91 1.498 . S
C92 C93 1.366 . S
C92 C97 1.407 . S
C93 C92 1.366 . S
C93 C94 1.392 . S
C93 H116 0.930 . S
C94 C93 1.392 . S
C94 C95 1.398 . S
C94 H117 0.929 . S
C95 C94 1.398 . S
C95 C96 1.352 . S
C96 C95 1.352 . S
C96 C97 1.384 . S
C96 H118 0.930 . S
C97 C92 1.407 . S
C97 C96 1.384 . S
C97 H119 0.929 . S
C98 O108 1.241 . S
C98 O109 1.273 . S
C99 O110 1.251 . S
C99 O111 1.268 . S
O100 Nd80 2.500 1_655 S
O100 C82 1.258 . S
O101 Nd80 2.486 1_655 S
O101 C82 1.245 . S
O102 Nd80 2.487 . S
O102 C89 1.241 . S
O103 Nd80 2.682 . S
O103 Nd81 2.414 . S
O103 C89 1.273 . S
O104 Nd80 2.410 1_655 S
O104 C90 1.251 . S
O105 Nd81 2.424 1_655 S
O105 C90 1.268 . S
O106 Nd81 2.500 . S
O106 C91 1.258 . S
O107 Nd81 2.492 . S
O107 C91 1.239 . S
O108 Nd81 2.487 . S
O108 C98 1.241 . S
O109 Nd80 2.414 . S
O109 Nd81 2.682 . S
O109 C98 1.273 . S
O110 Nd81 2.410 . S
O110 C99 1.251 . S
O111 Nd80 2.424 . S
O111 C99 1.268 . S
H112 C84 0.930 . S
H113 C85 0.929 . S
H114 C87 0.930 . S
H115 C88 0.929 . S
H116 C93 0.930 . S
H117 C94 0.929 . S
H118 C96 0.930 . S
H119 C97 0.929 . S
Nd120 C122 2.836 . S
Nd120 O140 2.500 . S
Nd120 O141 2.492 . S
Nd120 O142 2.487 . S
Nd120 O143 2.682 . S
Nd120 O144 2.410 . S
Nd120 O149 2.414 . S
Nd120 O151 2.424 . S
Nd121 C131 2.836 . S
Nd121 O143 2.414 . S
Nd121 O145 2.424 . S
Nd121 O146 2.500 . S
Nd121 O147 2.492 . S
Nd121 O148 2.487 . S
Nd121 O149 2.682 . S
Nd121 O150 2.410 . S
C122 Nd120 2.836 . S
C122 C123 1.498 . S
C122 O140 1.258 . S
C122 O141 1.239 . S
C123 C122 1.498 . S
C123 C124 1.366 . S
C123 C128 1.407 . S
C124 C123 1.366 . S
C124 C125 1.392 . S
C124 H152 0.930 . S
C125 C124 1.392 . S
C125 C126 1.398 . S
C125 H153 0.929 . S
C126 C125 1.398 . S
C126 C127 1.352 . S
C127 C126 1.352 . S
C127 C128 1.384 . S
C127 H154 0.930 . S
C128 C123 1.407 . S
C128 C127 1.384 . S
C128 H155 0.929 . S
C129 O142 1.241 . S
C129 O143 1.273 . S
C130 O144 1.251 . S
C130 O145 1.268 . S
C131 Nd121 2.836 . S
C131 C132 1.498 . S
C131 O146 1.258 . S
C131 O147 1.239 . S
C132 C131 1.498 . S
C132 C133 1.366 . S
C132 C137 1.407 . S
C133 C132 1.366 . S
C133 C134 1.392 . S
C133 H156 0.930 . S
C134 C133 1.392 . S
C134 C135 1.398 . S
C134 H157 0.929 1_455 S
C135 C134 1.398 . S
C135 C136 1.352 . S
C136 C135 1.352 . S
C136 C137 1.384 . S
C136 H158 0.930 . S
C137 C132 1.407 . S
C137 C136 1.384 . S
C137 H159 0.929 . S
C138 O148 1.241 . S
C138 O149 1.273 . S
C139 O150 1.251 . S
C139 O151 1.268 . S
O140 Nd120 2.500 . S
O140 C122 1.258 . S
O141 Nd120 2.492 . S
O141 C122 1.239 . S
O142 Nd120 2.487 . S
O142 C129 1.241 . S
O143 Nd120 2.682 . S
O143 Nd121 2.414 . S
O143 C129 1.273 . S
O144 Nd120 2.410 . S
O144 C130 1.251 . S
O145 Nd121 2.424 . S
O145 C130 1.268 . S
O146 Nd121 2.500 . S
O146 C131 1.258 . S
O147 Nd121 2.492 . S
O147 C131 1.239 . S
O148 Nd121 2.487 . S
O148 C138 1.241 . S
O149 Nd120 2.414 . S
O149 Nd121 2.682 . S
O149 C138 1.273 . S
O150 Nd121 2.410 . S
O150 C139 1.251 . S
O151 Nd120 2.424 . S
O151 C139 1.268 . S
H152 C124 0.930 . S
H153 C125 0.929 . S
H154 C127 0.930 . S
H155 C128 0.929 . S
H156 C133 0.930 . S
H157 C134 0.929 1_655 S
H158 C136 0.930 . S
H159 C137 0.929 . S
Nd160 C162 2.836 . S
Nd160 O180 2.500 . S
Nd160 O181 2.492 . S
Nd160 O182 2.487 . S
Nd160 O183 2.682 . S
Nd160 O184 2.410 . S
Nd160 O189 2.414 . S
Nd160 O191 2.424 1_655 S
Nd161 C171 2.836 1_655 S
Nd161 O183 2.414 . S
Nd161 O185 2.424 . S
Nd161 O186 2.500 1_655 S
Nd161 O187 2.488 1_655 S
Nd161 O188 2.487 . S
Nd161 O189 2.682 . S
Nd161 O190 2.410 1_655 S
C162 Nd160 2.836 . S
C162 C163 1.498 . S
C162 O180 1.258 . S
C162 O181 1.239 . S
C163 C162 1.498 . S
C163 C164 1.366 . S
C163 C168 1.407 . S
C164 C163 1.366 . S
C164 C165 1.392 . S
C164 H192 0.930 . S
C165 C164 1.392 . S
C165 C166 1.398 . S
C165 H193 0.929 . S
C166 C165 1.398 . S
C166 C167 1.352 . S
C167 C166 1.352 . S
C167 C168 1.384 . S
C167 H194 0.930 . S
C168 C163 1.407 . S
C168 C167 1.384 . S
C168 H195 0.929 . S
C169 O182 1.241 . S
C169 O183 1.273 . S
C170 O184 1.251 . S
C170 O185 1.268 . S
C171 Nd161 2.836 1_455 S
C171 C172 1.498 . S
C171 O186 1.258 . S
C171 O187 1.243 . S
C172 C171 1.498 . S
C172 C173 1.366 . S
C172 C177 1.407 . S
C173 C172 1.366 . S
C173 C174 1.392 . S
C173 H196 0.930 . S
C174 C173 1.392 . S
C174 C175 1.398 . S
C174 H197 0.929 . S
C175 C174 1.398 . S
C175 C176 1.352 . S
C176 C175 1.352 . S
C176 C177 1.384 . S
C176 H198 0.930 . S
C177 C172 1.407 . S
C177 C176 1.384 . S
C177 H199 0.929 . S
C178 O188 1.241 . S
C178 O189 1.273 . S
C179 O190 1.251 . S
C179 O191 1.268 . S
O180 Nd160 2.500 . S
O180 C162 1.258 . S
O181 Nd160 2.492 . S
O181 C162 1.239 . S
O182 Nd160 2.487 . S
O182 C169 1.241 . S
O183 Nd160 2.682 . S
O183 Nd161 2.414 . S
O183 C169 1.273 . S
O184 Nd160 2.410 . S
O184 C170 1.251 . S
O185 Nd161 2.424 . S
O185 C170 1.268 . S
O186 Nd161 2.500 1_455 S
O186 C171 1.258 . S
O187 Nd161 2.488 1_455 S
O187 C171 1.243 . S
O188 Nd161 2.487 . S
O188 C178 1.241 . S
O189 Nd160 2.414 . S
O189 Nd161 2.682 . S
O189 C178 1.273 . S
O190 Nd161 2.410 1_455 S
O190 C179 1.251 . S
O191 Nd160 2.424 1_455 S
O191 C179 1.268 . S
H192 C164 0.930 . S
H193 C165 0.929 . S
H194 C167 0.930 . S
H195 C168 0.929 . S
H196 C173 0.930 . S
H197 C174 0.929 . S
H198 C176 0.930 . S
H199 C177 0.929 . S
Nd200 C202 2.836 . S
Nd200 O220 2.500 . S
Nd200 O221 2.492 . S
Nd200 O222 2.487 . S
Nd200 O223 2.682 . S
Nd200 O224 2.410 . S
Nd200 O229 2.414 . S
Nd200 O231 2.424 . S
Nd201 C211 2.836 . S
Nd201 O223 2.414 . S
Nd201 O225 2.424 . S
Nd201 O226 2.500 . S
Nd201 O227 2.492 . S
Nd201 O228 2.487 . S
Nd201 O229 2.682 . S
Nd201 O230 2.410 . S
C202 Nd200 2.836 . S
C202 C203 1.498 . S
C202 O220 1.258 . S
C202 O221 1.239 . S
C203 C202 1.498 . S
C203 C204 1.366 . S
C203 C208 1.407 . S
C204 C203 1.366 . S
C204 C205 1.392 . S
C204 H232 0.930 . S
C205 C204 1.392 . S
C205 C206 1.398 . S
C205 H233 0.929 1_655 S
C206 C205 1.398 . S
C206 C207 1.352 . S
C207 C206 1.352 . S
C207 C208 1.384 . S
C207 H234 0.930 . S
C208 C203 1.407 . S
C208 C207 1.384 . S
C208 H235 0.929 . S
C209 O222 1.241 . S
C209 O223 1.273 . S
C210 O224 1.251 . S
C210 O225 1.268 . S
C211 Nd201 2.836 . S
C211 C212 1.498 . S
C211 O226 1.258 . S
C211 O227 1.239 . S
C212 C211 1.498 . S
C212 C213 1.366 . S
C212 C217 1.407 . S
C213 C212 1.366 . S
C213 C214 1.392 . S
C213 H236 0.930 . S
C214 C213 1.392 . S
C214 C215 1.398 . S
C214 H237 0.929 . S
C215 C214 1.398 . S
C215 C216 1.352 . S
C216 C215 1.352 . S
C216 C217 1.384 . S
C216 H238 0.930 . S
C217 C212 1.407 . S
C217 C216 1.384 . S
C217 H239 0.929 . S
C218 O228 1.241 . S
C218 O229 1.273 . S
C219 O230 1.251 . S
C219 O231 1.268 . S
O220 Nd200 2.500 . S
O220 C202 1.258 . S
O221 Nd200 2.492 . S
O221 C202 1.239 . S
O222 Nd200 2.487 . S
O222 C209 1.241 . S
O223 Nd200 2.682 . S
O223 Nd201 2.414 . S
O223 C209 1.273 . S
O224 Nd200 2.410 . S
O224 C210 1.251 . S
O225 Nd201 2.424 . S
O225 C210 1.268 . S
O226 Nd201 2.500 . S
O226 C211 1.258 . S
O227 Nd201 2.492 . S
O227 C211 1.239 . S
O228 Nd201 2.487 . S
O228 C218 1.241 . S
O229 Nd200 2.414 . S
O229 Nd201 2.682 . S
O229 C218 1.273 . S
O230 Nd201 2.410 . S
O230 C219 1.251 . S
O231 Nd200 2.424 . S
O231 C219 1.268 . S
H232 C204 0.930 . S
H233 C205 0.929 1_455 S
H234 C207 0.930 . S
H235 C208 0.929 . S
H236 C213 0.930 . S
H237 C214 0.929 . S
H238 C216 0.930 . S
H239 C217 0.929 . S
Nd240 C242 2.836 . S
Nd240 O260 2.500 . S
Nd240 O261 2.492 . S
Nd240 O262 2.487 . S
Nd240 O263 2.682 . S
Nd240 O264 2.410 . S
Nd240 O269 2.414 . S
Nd240 O271 2.424 1_655 S
Nd241 C251 2.836 1_655 S
Nd241 O263 2.414 . S
Nd241 O265 2.424 . S
Nd241 O266 2.500 1_655 S
Nd241 O267 2.486 1_655 S
Nd241 O268 2.487 . S
Nd241 O269 2.682 . S
Nd241 O270 2.410 1_655 S
C242 Nd240 2.836 . S
C242 C243 1.498 . S
C242 O260 1.258 . S
C242 O261 1.239 . S
C243 C242 1.498 . S
C243 C244 1.366 . S
C243 C248 1.407 . S
C244 C243 1.366 . S
C244 C245 1.392 . S
C244 H272 0.930 . S
C245 C244 1.392 . S
C245 C246 1.398 . S
C245 H273 0.929 . S
C246 C245 1.398 . S
C246 C247 1.352 . S
C247 C246 1.352 . S
C247 C248 1.384 . S
C247 H274 0.930 . S
C248 C243 1.407 . S
C248 C247 1.384 . S
C248 H275 0.929 . S
C249 O262 1.241 . S
C249 O263 1.273 . S
C250 O264 1.251 . S
C250 O265 1.268 . S
C251 Nd241 2.836 1_455 S
C251 C252 1.498 . S
C251 O266 1.258 . S
C251 O267 1.245 . S
C252 C251 1.498 . S
C252 C253 1.366 . S
C252 C257 1.407 . S
C253 C252 1.366 . S
C253 C254 1.392 . S
C253 H276 0.930 . S
C254 C253 1.392 . S
C254 C255 1.398 . S
C254 H277 0.929 . S
C255 C254 1.398 . S
C255 C256 1.352 . S
C256 C255 1.352 . S
C256 C257 1.384 . S
C256 H278 0.930 . S
C257 C252 1.407 . S
C257 C256 1.384 . S
C257 H279 0.929 . S
C258 O268 1.241 . S
C258 O269 1.273 . S
C259 O270 1.251 . S
C259 O271 1.268 . S
O260 Nd240 2.500 . S
O260 C242 1.258 . S
O261 Nd240 2.492 . S
O261 C242 1.239 . S
O262 Nd240 2.487 . S
O262 C249 1.241 . S
O263 Nd240 2.682 . S
O263 Nd241 2.414 . S
O263 C249 1.273 . S
O264 Nd240 2.410 . S
O264 C250 1.251 . S
O265 Nd241 2.424 . S
O265 C250 1.268 . S
O266 Nd241 2.500 1_455 S
O266 C251 1.258 . S
O267 Nd241 2.486 1_455 S
O267 C251 1.245 . S
O268 Nd241 2.487 . S
O268 C258 1.241 . S
O269 Nd240 2.414 . S
O269 Nd241 2.682 . S
O269 C258 1.273 . S
O270 Nd241 2.410 1_455 S
O270 C259 1.251 . S
O271 Nd240 2.424 1_455 S
O271 C259 1.268 . S
H272 C244 0.930 . S
H273 C245 0.929 . S
H274 C247 0.930 . S
H275 C248 0.929 . S
H276 C253 0.930 . S
H277 C254 0.929 . S
H278 C256 0.930 . S
H279 C257 0.929 . S
Nd280 C282 2.836 . S
Nd280 O300 2.500 . S
Nd280 O301 2.492 . S
Nd280 O302 2.487 . S
Nd280 O303 2.682 . S
Nd280 O304 2.410 . S
Nd280 O309 2.414 . S
Nd280 O311 2.424 . S
Nd281 C291 2.836 . S
Nd281 O303 2.414 . S
Nd281 O305 2.424 . S
Nd281 O306 2.500 . S
Nd281 O307 2.492 . S
Nd281 O308 2.487 . S
Nd281 O309 2.682 . S
Nd281 O310 2.410 . S
C282 Nd280 2.836 . S
C282 C283 1.498 . S
C282 O300 1.258 . S
C282 O301 1.239 . S
C283 C282 1.498 . S
C283 C284 1.366 . S
C283 C288 1.407 . S
C284 C283 1.366 . S
C284 C285 1.392 . S
C284 H312 0.930 . S
C285 C284 1.392 . S
C285 C286 1.398 . S
C285 H313 0.929 1_655 S
C286 C285 1.398 . S
C286 C287 1.352 . S
C287 C286 1.352 . S
C287 C288 1.384 . S
C287 H314 0.930 . S
C288 C283 1.407 . S
C288 C287 1.384 . S
C288 H315 0.929 . S
C289 O302 1.241 . S
C289 O303 1.273 . S
C290 O304 1.251 . S
C290 O305 1.268 . S
C291 Nd281 2.836 . S
C291 C292 1.498 . S
C291 O306 1.258 . S
C291 O307 1.239 . S
C292 C291 1.498 . S
C292 C293 1.366 . S
C292 C297 1.407 . S
C293 C292 1.366 . S
C293 C294 1.392 . S
C293 H316 0.930 . S
C294 C293 1.392 . S
C294 C295 1.398 . S
C294 H317 0.929 . S
C295 C294 1.398 . S
C295 C296 1.352 . S
C296 C295 1.352 . S
C296 C297 1.384 . S
C296 H318 0.930 . S
C297 C292 1.407 . S
C297 C296 1.384 . S
C297 H319 0.929 . S
C298 O308 1.241 . S
C298 O309 1.273 . S
C299 O310 1.251 . S
C299 O311 1.268 . S
O300 Nd280 2.500 . S
O300 C282 1.258 . S
O301 Nd280 2.492 . S
O301 C282 1.239 . S
O302 Nd280 2.487 . S
O302 C289 1.241 . S
O303 Nd280 2.682 . S
O303 Nd281 2.414 . S
O303 C289 1.273 . S
O304 Nd280 2.410 . S
O304 C290 1.251 . S
O305 Nd281 2.424 . S
O305 C290 1.268 . S
O306 Nd281 2.500 . S
O306 C291 1.258 . S
O307 Nd281 2.492 . S
O307 C291 1.239 . S
O308 Nd281 2.487 . S
O308 C298 1.241 . S
O309 Nd280 2.414 . S
O309 Nd281 2.682 . S
O309 C298 1.273 . S
O310 Nd281 2.410 . S
O310 C299 1.251 . S
O311 Nd280 2.424 . S
O311 C299 1.268 . S
H312 C284 0.930 . S
H313 C285 0.929 1_455 S
H314 C287 0.930 . S
H315 C288 0.929 . S
H316 C293 0.930 . S
H317 C294 0.929 . S
H318 C296 0.930 . S
H319 C297 0.929 . S
Nd320 C322 2.836 1_455 S
Nd320 O340 2.500 1_455 S
Nd320 O341 2.495 . S
Nd320 O342 2.487 . S
Nd320 O343 2.682 1_565 S
Nd320 O344 2.410 1_455 S
Nd320 O349 2.414 . S
Nd320 O351 2.424 . S
Nd321 C331 2.836 . S
Nd321 O343 2.414 . S
Nd321 O345 2.424 1_455 S
Nd321 O346 2.500 . S
Nd321 O347 2.492 . S
Nd321 O348 2.487 . S
Nd321 O349 2.682 1_545 S
Nd321 O350 2.410 . S
C322 Nd320 2.836 1_655 S
C322 C323 1.498 . S
C322 O340 1.258 . S
C322 O341 1.236 1_655 S
C323 C322 1.498 . S
C323 C324 1.366 . S
C323 C328 1.407 . S
C324 C323 1.366 . S
C324 C325 1.392 . S
C324 H352 0.930 . S
C325 C324 1.392 . S
C325 C326 1.398 . S
C325 H353 0.929 . S
C326 C325 1.398 . S
C326 C327 1.352 . S
C327 C326 1.352 . S
C327 C328 1.384 . S
C327 H354 0.930 . S
C328 C323 1.407 . S
C328 C327 1.384 . S
C328 H355 0.929 . S
C329 O342 1.241 . S
C329 O343 1.273 1_565 S
C330 O344 1.251 . S
C330 O345 1.268 1_565 S
C331 Nd321 2.836 . S
C331 C332 1.498 . S
C331 O346 1.258 . S
C331 O347 1.239 . S
C332 C331 1.498 . S
C332 C333 1.366 . S
C332 C337 1.407 . S
C333 C332 1.366 . S
C333 C334 1.392 . S
C333 H356 0.930 . S
C334 C333 1.392 . S
C334 C335 1.398 . S
C334 H357 0.929 . S
C335 C334 1.398 . S
C335 C336 1.352 . S
C336 C335 1.352 . S
C336 C337 1.384 . S
C336 H358 0.930 . S
C337 C332 1.407 . S
C337 C336 1.384 . S
C337 H359 0.929 . S
C338 O348 1.241 . S
C338 O349 1.273 1_545 S
C339 O350 1.251 . S
C339 O351 1.268 1_545 S
O340 Nd320 2.500 1_655 S
O340 C322 1.258 . S
O341 Nd320 2.495 . S
O341 C322 1.236 1_455 S
O342 Nd320 2.487 . S
O342 C329 1.241 . S
O343 Nd320 2.682 1_545 S
O343 Nd321 2.414 . S
O343 C329 1.273 1_545 S
O344 Nd320 2.410 1_655 S
O344 C330 1.251 . S
O345 Nd321 2.424 1_655 S
O345 C330 1.268 1_545 S
O346 Nd321 2.500 . S
O346 C331 1.258 . S
O347 Nd321 2.492 . S
O347 C331 1.239 . S
O348 Nd321 2.487 . S
O348 C338 1.241 . S
O349 Nd320 2.414 . S
O349 Nd321 2.682 1_565 S
O349 C338 1.273 1_565 S
O350 Nd321 2.410 . S
O350 C339 1.251 . S
O351 Nd320 2.424 . S
O351 C339 1.268 1_565 S
H352 C324 0.930 . S
H353 C325 0.929 . S
H354 C327 0.930 . S
H355 C328 0.929 . S
H356 C333 0.930 . S
H357 C334 0.929 . S
H358 C336 0.930 . S
H359 C337 0.929 . S
Nd360 C362 2.836 . S
Nd360 O380 2.500 . S
Nd360 O381 2.492 . S
Nd360 O382 2.487 . S
Nd360 O383 2.682 . S
Nd360 O384 2.410 . S
Nd360 O389 2.414 . S
Nd360 O391 2.424 . S
Nd361 C371 2.836 . S
Nd361 O383 2.414 . S
Nd361 O385 2.424 . S
Nd361 O386 2.500 . S
Nd361 O387 2.492 . S
Nd361 O388 2.487 . S
Nd361 O389 2.682 . S
Nd361 O390 2.410 . S
C362 Nd360 2.836 . S
C362 C363 1.498 . S
C362 O380 1.258 . S
C362 O381 1.239 . S
C363 C362 1.498 . S
C363 C364 1.366 . S
C363 C368 1.407 . S
C364 C363 1.366 . S
C364 C365 1.392 . S
C364 H392 0.930 . S
C365 C364 1.392 . S
C365 C366 1.398 . S
C365 H393 0.929 . S
C366 C365 1.398 . S
C366 C367 1.352 . S
C367 C366 1.352 . S
C367 C368 1.384 . S
C367 H394 0.930 . S
C368 C363 1.407 . S
C368 C367 1.384 . S
C368 H395 0.929 . S
C369 O382 1.241 . S
C369 O383 1.273 . S
C370 O384 1.251 . S
C370 O385 1.268 . S
C371 Nd361 2.836 . S
C371 C372 1.498 . S
C371 O386 1.258 . S
C371 O387 1.239 . S
C372 C371 1.498 . S
C372 C373 1.366 . S
C372 C377 1.407 . S
C373 C372 1.366 . S
C373 C374 1.392 . S
C373 H396 0.930 . S
C374 C373 1.392 . S
C374 C375 1.398 . S
C374 H397 0.929 1_455 S
C375 C374 1.398 . S
C375 C376 1.352 . S
C376 C375 1.352 . S
C376 C377 1.384 . S
C376 H398 0.930 . S
C377 C372 1.407 . S
C377 C376 1.384 . S
C377 H399 0.929 . S
C378 O388 1.241 . S
C378 O389 1.273 . S
C379 O390 1.251 . S
C379 O391 1.268 . S
O380 Nd360 2.500 . S
O380 C362 1.258 . S
O381 Nd360 2.492 . S
O381 C362 1.239 . S
O382 Nd360 2.487 . S
O382 C369 1.241 . S
O383 Nd360 2.682 . S
O383 Nd361 2.414 . S
O383 C369 1.273 . S
O384 Nd360 2.410 . S
O384 C370 1.251 . S
O385 Nd361 2.424 . S
O385 C370 1.268 . S
O386 Nd361 2.500 . S
O386 C371 1.258 . S
O387 Nd361 2.492 . S
O387 C371 1.239 . S
O388 Nd361 2.487 . S
O388 C378 1.241 . S
O389 Nd360 2.414 . S
O389 Nd361 2.682 . S
O389 C378 1.273 . S
O390 Nd361 2.410 . S
O390 C379 1.251 . S
O391 Nd360 2.424 . S
O391 C379 1.268 . S
H392 C364 0.930 . S
H393 C365 0.929 . S
H394 C367 0.930 . S
H395 C368 0.929 . S
H396 C373 0.930 . S
H397 C374 0.929 1_655 S
H398 C376 0.930 . S
H399 C377 0.929 . S
Nd400 C402 2.836 1_455 S
Nd400 O420 2.500 1_455 S
Nd400 O421 2.486 1_455 S
Nd400 O422 2.487 . S
Nd400 O423 2.682 . S
Nd400 O424 2.410 1_455 S
Nd400 O429 2.414 . S
Nd400 O431 2.424 . S
Nd401 C411 2.836 . S
Nd401 O423 2.414 . S
Nd401 O425 2.424 1_455 S
Nd401 O426 2.500 . S
Nd401 O427 2.492 . S
Nd401 O428 2.487 . S
Nd401 O429 2.682 . S
Nd401 O430 2.410 . S
C402 Nd400 2.836 1_655 S
C402 C403 1.498 . S
C402 O420 1.258 . S
C402 O421 1.245 . S
C403 C402 1.498 . S
C403 C404 1.366 . S
C403 C408 1.407 . S
C404 C403 1.366 . S
C404 C405 1.392 . S
C404 H432 0.930 . S
C405 C404 1.392 . S
C405 C406 1.398 . S
C405 H433 0.929 . S
C406 C405 1.398 . S
C406 C407 1.352 . S
C407 C406 1.352 . S
C407 C408 1.384 . S
C407 H434 0.930 . S
C408 C403 1.407 . S
C408 C407 1.384 . S
C408 H435 0.929 . S
C409 O422 1.241 . S
C409 O423 1.273 . S
C410 O424 1.251 . S
C410 O425 1.268 . S
C411 Nd401 2.836 . S
C411 C412 1.498 . S
C411 O426 1.258 . S
C411 O427 1.239 . S
C412 C411 1.498 . S
C412 C413 1.366 . S
C412 C417 1.407 . S
C413 C412 1.366 . S
C413 C414 1.392 . S
C413 H436 0.930 . S
C414 C413 1.392 . S
C414 C415 1.398 . S
C414 H437 0.929 . S
C415 C414 1.398 . S
C415 C416 1.352 . S
C416 C415 1.352 . S
C416 C417 1.384 . S
C416 H438 0.930 . S
C417 C412 1.407 . S
C417 C416 1.384 . S
C417 H439 0.929 . S
C418 O428 1.241 . S
C418 O429 1.273 . S
C419 O430 1.251 . S
C419 O431 1.268 . S
O420 Nd400 2.500 1_655 S
O420 C402 1.258 . S
O421 Nd400 2.486 1_655 S
O421 C402 1.245 . S
O422 Nd400 2.487 . S
O422 C409 1.241 . S
O423 Nd400 2.682 . S
O423 Nd401 2.414 . S
O423 C409 1.273 . S
O424 Nd400 2.410 1_655 S
O424 C410 1.251 . S
O425 Nd401 2.424 1_655 S
O425 C410 1.268 . S
O426 Nd401 2.500 . S
O426 C411 1.258 . S
O427 Nd401 2.492 . S
O427 C411 1.239 . S
O428 Nd401 2.487 . S
O428 C418 1.241 . S
O429 Nd400 2.414 . S
O429 Nd401 2.682 . S
O429 C418 1.273 . S
O430 Nd401 2.410 . S
O430 C419 1.251 . S
O431 Nd400 2.424 . S
O431 C419 1.268 . S
H432 C404 0.930 . S
H433 C405 0.929 . S
H434 C407 0.930 . S
H435 C408 0.929 . S
H436 C413 0.930 . S
H437 C414 0.929 . S
H438 C416 0.930 . S
H439 C417 0.929 . S
Nd440 C442 2.836 . S
Nd440 O460 2.500 . S
Nd440 O461 2.492 . S
Nd440 O462 2.487 . S
Nd440 O463 2.682 1_565 S
Nd440 O464 2.410 . S
Nd440 O469 2.414 . S
Nd440 O471 2.424 . S
Nd441 C451 2.836 . S
Nd441 O463 2.414 . S
Nd441 O465 2.424 . S
Nd441 O466 2.500 . S
Nd441 O467 2.492 . S
Nd441 O468 2.487 . S
Nd441 O469 2.682 1_545 S
Nd441 O470 2.410 . S
C442 Nd440 2.836 . S
C442 C443 1.498 . S
C442 O460 1.258 . S
C442 O461 1.239 . S
C443 C442 1.498 . S
C443 C444 1.366 . S
C443 C448 1.407 . S
C444 C443 1.366 . S
C444 C445 1.392 . S
C444 H472 0.930 . S
C445 C444 1.392 . S
C445 C446 1.398 . S
C445 H473 0.929 . S
C446 C445 1.398 . S
C446 C447 1.352 . S
C447 C446 1.352 . S
C447 C448 1.384 . S
C447 H474 0.930 . S
C448 C443 1.407 . S
C448 C447 1.384 . S
C448 H475 0.929 . S
C449 O462 1.241 . S
C449 O463 1.273 1_565 S
C450 O464 1.251 . S
C450 O465 1.268 1_565 S
C451 Nd441 2.836 . S
C451 C452 1.498 . S
C451 O466 1.258 . S
C451 O467 1.239 . S
C452 C451 1.498 . S
C452 C453 1.366 . S
C452 C457 1.407 . S
C453 C452 1.366 . S
C453 C454 1.392 . S
C453 H476 0.930 . S
C454 C453 1.392 . S
C454 C455 1.398 . S
C454 H477 0.929 1_455 S
C455 C454 1.398 . S
C455 C456 1.352 . S
C456 C455 1.352 . S
C456 C457 1.384 . S
C456 H478 0.930 . S
C457 C452 1.407 . S
C457 C456 1.384 . S
C457 H479 0.929 . S
C458 O468 1.241 . S
C458 O469 1.273 1_545 S
C459 O470 1.251 . S
C459 O471 1.268 1_545 S
O460 Nd440 2.500 . S
O460 C442 1.258 . S
O461 Nd440 2.492 . S
O461 C442 1.239 . S
O462 Nd440 2.487 . S
O462 C449 1.241 . S
O463 Nd440 2.682 1_545 S
O463 Nd441 2.414 . S
O463 C449 1.273 1_545 S
O464 Nd440 2.410 . S
O464 C450 1.251 . S
O465 Nd441 2.424 . S
O465 C450 1.268 1_545 S
O466 Nd441 2.500 . S
O466 C451 1.258 . S
O467 Nd441 2.492 . S
O467 C451 1.239 . S
O468 Nd441 2.487 . S
O468 C458 1.241 . S
O469 Nd440 2.414 . S
O469 Nd441 2.682 1_565 S
O469 C458 1.273 1_565 S
O470 Nd441 2.410 . S
O470 C459 1.251 . S
O471 Nd440 2.424 . S
O471 C459 1.268 1_565 S
H472 C444 0.930 . S
H473 C445 0.929 . S
H474 C447 0.930 . S
H475 C448 0.929 . S
H476 C453 0.930 . S
H477 C454 0.929 1_655 S
H478 C456 0.930 . S
H479 C457 0.929 . S
Nd480 C482 2.836 . S
Nd480 O500 2.500 . S
Nd480 O501 2.492 . S
Nd480 O502 2.487 . S
Nd480 O503 2.682 1_565 S
Nd480 O504 2.410 . S
Nd480 O509 2.414 . S
Nd480 O511 2.424 1_655 S
Nd481 C491 2.836 1_655 S
Nd481 O503 2.414 . S
Nd481 O505 2.424 . S
Nd481 O506 2.500 1_655 S
Nd481 O507 2.495 . S
Nd481 O508 2.487 . S
Nd481 O509 2.682 1_545 S
Nd481 O510 2.410 1_655 S
C482 Nd480 2.836 . S
C482 C483 1.498 . S
C482 O500 1.258 . S
C482 O501 1.239 . S
C483 C482 1.498 . S
C483 C484 1.366 . S
C483 C488 1.407 . S
C484 C483 1.366 . S
C484 C485 1.392 . S
C484 H512 0.930 . S
C485 C484 1.392 . S
C485 C486 1.398 . S
C485 H513 0.929 . S
C486 C485 1.398 . S
C486 C487 1.352 . S
C487 C486 1.352 . S
C487 C488 1.384 . S
C487 H514 0.930 . S
C488 C483 1.407 . S
C488 C487 1.384 . S
C488 H515 0.929 . S
C489 O502 1.241 . S
C489 O503 1.273 1_565 S
C490 O504 1.251 . S
C490 O505 1.268 1_565 S
C491 Nd481 2.836 1_455 S
C491 C492 1.498 . S
C491 O506 1.258 . S
C491 O507 1.236 1_455 S
C492 C491 1.498 . S
C492 C493 1.366 . S
C492 C497 1.407 . S
C493 C492 1.366 . S
C493 C494 1.392 . S
C493 H516 0.930 . S
C494 C493 1.392 . S
C494 C495 1.398 . S
C494 H517 0.929 . S
C495 C494 1.398 . S
C495 C496 1.352 . S
C496 C495 1.352 . S
C496 C497 1.384 . S
C496 H518 0.930 . S
C497 C492 1.407 . S
C497 C496 1.384 . S
C497 H519 0.929 . S
C498 O508 1.241 . S
C498 O509 1.273 1_545 S
C499 O510 1.251 . S
C499 O511 1.268 1_545 S
O500 Nd480 2.500 . S
O500 C482 1.258 . S
O501 Nd480 2.492 . S
O501 C482 1.239 . S
O502 Nd480 2.487 . S
O502 C489 1.241 . S
O503 Nd480 2.682 1_545 S
O503 Nd481 2.414 . S
O503 C489 1.273 1_545 S
O504 Nd480 2.410 . S
O504 C490 1.251 . S
O505 Nd481 2.424 . S
O505 C490 1.268 1_545 S
O506 Nd481 2.500 1_455 S
O506 C491 1.258 . S
O507 Nd481 2.495 . S
O507 C491 1.236 1_655 S
O508 Nd481 2.487 . S
O508 C498 1.241 . S
O509 Nd480 2.414 . S
O509 Nd481 2.682 1_565 S
O509 C498 1.273 1_565 S
O510 Nd481 2.410 1_455 S
O510 C499 1.251 . S
O511 Nd480 2.424 1_455 S
O511 C499 1.268 1_565 S
H512 C484 0.930 . S
H513 C485 0.929 . S
H514 C487 0.930 . S
H515 C488 0.929 . S
H516 C493 0.930 . S
H517 C494 0.929 . S
H518 C496 0.930 . S
H519 C497 0.929 . S
Nd520 C522 2.836 . S
Nd520 O540 2.500 . S
Nd520 O541 2.492 . S
Nd520 O542 2.487 . S
Nd520 O543 2.682 . S
Nd520 O544 2.410 . S
Nd520 O549 2.414 . S
Nd520 O551 2.424 . S
Nd521 C531 2.836 . S
Nd521 O543 2.414 . S
Nd521 O545 2.424 . S
Nd521 O546 2.500 . S
Nd521 O547 2.492 . S
Nd521 O548 2.487 . S
Nd521 O549 2.682 . S
Nd521 O550 2.410 . S
C522 Nd520 2.836 . S
C522 C523 1.498 . S
C522 O540 1.258 . S
C522 O541 1.239 . S
C523 C522 1.498 . S
C523 C524 1.366 . S
C523 C528 1.407 . S
C524 C523 1.366 . S
C524 C525 1.392 . S
C524 H552 0.930 . S
C525 C524 1.392 . S
C525 C526 1.398 . S
C525 H553 0.929 1_655 S
C526 C525 1.398 . S
C526 C527 1.352 . S
C527 C526 1.352 . S
C527 C528 1.384 . S
C527 H554 0.930 . S
C528 C523 1.407 . S
C528 C527 1.384 . S
C528 H555 0.929 . S
C529 O542 1.241 . S
C529 O543 1.273 . S
C530 O544 1.251 . S
C530 O545 1.268 . S
C531 Nd521 2.836 . S
C531 C532 1.498 . S
C531 O546 1.258 . S
C531 O547 1.239 . S
C532 C531 1.498 . S
C532 C533 1.366 . S
C532 C537 1.407 . S
C533 C532 1.366 . S
C533 C534 1.392 . S
C533 H556 0.930 . S
C534 C533 1.392 . S
C534 C535 1.398 . S
C534 H557 0.929 . S
C535 C534 1.398 . S
C535 C536 1.352 . S
C536 C535 1.352 . S
C536 C537 1.384 . S
C536 H558 0.930 . S
C537 C532 1.407 . S
C537 C536 1.384 . S
C537 H559 0.929 . S
C538 O548 1.241 . S
C538 O549 1.273 . S
C539 O550 1.251 . S
C539 O551 1.268 . S
O540 Nd520 2.500 . S
O540 C522 1.258 . S
O541 Nd520 2.492 . S
O541 C522 1.239 . S
O542 Nd520 2.487 . S
O542 C529 1.241 . S
O543 Nd520 2.682 . S
O543 Nd521 2.414 . S
O543 C529 1.273 . S
O544 Nd520 2.410 . S
O544 C530 1.251 . S
O545 Nd521 2.424 . S
O545 C530 1.268 . S
O546 Nd521 2.500 . S
O546 C531 1.258 . S
O547 Nd521 2.492 . S
O547 C531 1.239 . S
O548 Nd521 2.487 . S
O548 C538 1.241 . S
O549 Nd520 2.414 . S
O549 Nd521 2.682 . S
O549 C538 1.273 . S
O550 Nd521 2.410 . S
O550 C539 1.251 . S
O551 Nd520 2.424 . S
O551 C539 1.268 . S
H552 C524 0.930 . S
H553 C525 0.929 1_455 S
H554 C527 0.930 . S
H555 C528 0.929 . S
H556 C533 0.930 . S
H557 C534 0.929 . S
H558 C536 0.930 . S
H559 C537 0.929 . S
Nd560 C562 2.836 . S
Nd560 O580 2.500 . S
Nd560 O581 2.492 . S
Nd560 O582 2.487 . S
Nd560 O583 2.682 . S
Nd560 O584 2.410 . S
Nd560 O589 2.414 . S
Nd560 O591 2.424 1_655 S
Nd561 C571 2.836 1_655 S
Nd561 O583 2.414 . S
Nd561 O585 2.424 . S
Nd561 O586 2.500 1_655 S
Nd561 O587 2.486 1_655 S
Nd561 O588 2.487 . S
Nd561 O589 2.682 . S
Nd561 O590 2.410 1_655 S
C562 Nd560 2.836 . S
C562 C563 1.498 . S
C562 O580 1.258 . S
C562 O581 1.239 . S
C563 C562 1.498 . S
C563 C564 1.366 . S
C563 C568 1.407 . S
C564 C563 1.366 . S
C564 C565 1.392 . S
C564 H592 0.930 . S
C565 C564 1.392 . S
C565 C566 1.398 . S
C565 H593 0.929 . S
C566 C565 1.398 . S
C566 C567 1.352 . S
C567 C566 1.352 . S
C567 C568 1.384 . S
C567 H594 0.930 . S
C568 C563 1.407 . S
C568 C567 1.384 . S
C568 H595 0.929 . S
C569 O582 1.241 . S
C569 O583 1.273 . S
C570 O584 1.251 . S
C570 O585 1.268 . S
C571 Nd561 2.836 1_455 S
C571 C572 1.498 . S
C571 O586 1.258 . S
C571 O587 1.245 . S
C572 C571 1.498 . S
C572 C573 1.366 . S
C572 C577 1.407 . S
C573 C572 1.366 . S
C573 C574 1.392 . S
C573 H596 0.930 . S
C574 C573 1.392 . S
C574 C575 1.398 . S
C574 H597 0.929 . S
C575 C574 1.398 . S
C575 C576 1.352 . S
C576 C575 1.352 . S
C576 C577 1.384 . S
C576 H598 0.930 . S
C577 C572 1.407 . S
C577 C576 1.384 . S
C577 H599 0.929 . S
C578 O588 1.241 . S
C578 O589 1.273 . S
C579 O590 1.251 . S
C579 O591 1.268 . S
O580 Nd560 2.500 . S
O580 C562 1.258 . S
O581 Nd560 2.492 . S
O581 C562 1.239 . S
O582 Nd560 2.487 . S
O582 C569 1.241 . S
O583 Nd560 2.682 . S
O583 Nd561 2.414 . S
O583 C569 1.273 . S
O584 Nd560 2.410 . S
O584 C570 1.251 . S
O585 Nd561 2.424 . S
O585 C570 1.268 . S
O586 Nd561 2.500 1_455 S
O586 C571 1.258 . S
O587 Nd561 2.486 1_455 S
O587 C571 1.245 . S
O588 Nd561 2.487 . S
O588 C578 1.241 . S
O589 Nd560 2.414 . S
O589 Nd561 2.682 . S
O589 C578 1.273 . S
O590 Nd561 2.410 1_455 S
O590 C579 1.251 . S
O591 Nd560 2.424 1_455 S
O591 C579 1.268 . S
H592 C564 0.930 . S
H593 C565 0.929 . S
H594 C567 0.930 . S
H595 C568 0.929 . S
H596 C573 0.930 . S
H597 C574 0.929 . S
H598 C576 0.930 . S
H599 C577 0.929 . S
Nd600 C602 2.836 . S
Nd600 O620 2.500 . S
Nd600 O621 2.492 . S
Nd600 O622 2.487 . S
Nd600 O623 2.682 1_565 S
Nd600 O624 2.410 . S
Nd600 O629 2.414 . S
Nd600 O631 2.424 . S
Nd601 C611 2.836 . S
Nd601 O623 2.414 . S
Nd601 O625 2.424 . S
Nd601 O626 2.500 . S
Nd601 O627 2.492 . S
Nd601 O628 2.487 . S
Nd601 O629 2.682 1_545 S
Nd601 O630 2.410 . S
C602 Nd600 2.836 . S
C602 C603 1.498 . S
C602 O620 1.258 . S
C602 O621 1.239 . S
C603 C602 1.498 . S
C603 C604 1.366 . S
C603 C608 1.407 . S
C604 C603 1.366 . S
C604 C605 1.392 . S
C604 H632 0.930 . S
C605 C604 1.392 . S
C605 C606 1.398 . S
C605 H633 0.929 1_655 S
C606 C605 1.398 . S
C606 C607 1.352 . S
C607 C606 1.352 . S
C607 C608 1.384 . S
C607 H634 0.930 . S
C608 C603 1.407 . S
C608 C607 1.384 . S
C608 H635 0.929 . S
C609 O622 1.241 . S
C609 O623 1.273 1_565 S
C610 O624 1.251 . S
C610 O625 1.268 1_565 S
C611 Nd601 2.836 . S
C611 C612 1.498 . S
C611 O626 1.258 . S
C611 O627 1.239 . S
C612 C611 1.498 . S
C612 C613 1.366 . S
C612 C617 1.407 . S
C613 C612 1.366 . S
C613 C614 1.392 . S
C613 H636 0.930 . S
C614 C613 1.392 . S
C614 C615 1.398 . S
C614 H637 0.929 . S
C615 C614 1.398 . S
C615 C616 1.352 . S
C616 C615 1.352 . S
C616 C617 1.384 . S
C616 H638 0.930 . S
C617 C612 1.407 . S
C617 C616 1.384 . S
C617 H639 0.929 . S
C618 O628 1.241 . S
C618 O629 1.273 1_545 S
C619 O630 1.251 . S
C619 O631 1.268 1_545 S
O620 Nd600 2.500 . S
O620 C602 1.258 . S
O621 Nd600 2.492 . S
O621 C602 1.239 . S
O622 Nd600 2.487 . S
O622 C609 1.241 . S
O623 Nd600 2.682 1_545 S
O623 Nd601 2.414 . S
O623 C609 1.273 1_545 S
O624 Nd600 2.410 . S
O624 C610 1.251 . S
O625 Nd601 2.424 . S
O625 C610 1.268 1_545 S
O626 Nd601 2.500 . S
O626 C611 1.258 . S
O627 Nd601 2.492 . S
O627 C611 1.239 . S
O628 Nd601 2.487 . S
O628 C618 1.241 . S
O629 Nd600 2.414 . S
O629 Nd601 2.682 1_565 S
O629 C618 1.273 1_565 S
O630 Nd601 2.410 . S
O630 C619 1.251 . S
O631 Nd600 2.424 . S
O631 C619 1.268 1_565 S
H632 C604 0.930 . S
H633 C605 0.929 1_455 S
H634 C607 0.930 . S
H635 C608 0.929 . S
H636 C613 0.930 . S
H637 C614 0.929 . S
H638 C616 0.930 . S
H639 C617 0.929 . S
Nd640 C642 2.836 . S
Nd640 O660 2.500 . S
Nd640 O661 2.492 . S
Nd640 O662 2.487 . S
Nd640 O663 2.682 . S
Nd640 O664 2.410 . S
Nd640 O669 2.414 . S
Nd640 O671 2.424 . S
Nd641 C651 2.836 . S
Nd641 O663 2.414 . S
Nd641 O665 2.424 . S
Nd641 O666 2.500 . S
Nd641 O667 2.492 . S
Nd641 O668 2.487 . S
Nd641 O669 2.682 . S
Nd641 O670 2.410 . S
C642 Nd640 2.836 . S
C642 C643 1.498 . S
C642 O660 1.258 . S
C642 O661 1.239 . S
C643 C642 1.498 . S
C643 C644 1.366 . S
C643 C648 1.407 . S
C644 C643 1.366 . S
C644 C645 1.392 . S
C644 H672 0.930 . S
C645 C644 1.392 . S
C645 C646 1.398 . S
C645 H673 0.929 . S
C646 C645 1.398 . S
C646 C647 1.352 . S
C647 C646 1.352 . S
C647 C648 1.384 . S
C647 H674 0.930 . S
C648 C643 1.407 . S
C648 C647 1.384 . S
C648 H675 0.929 . S
C649 O662 1.241 . S
C649 O663 1.273 . S
C650 O664 1.251 . S
C650 O665 1.268 . S
C651 Nd641 2.836 . S
C651 C652 1.498 . S
C651 O666 1.258 . S
C651 O667 1.239 . S
C652 C651 1.498 . S
C652 C653 1.366 . S
C652 C657 1.407 . S
C653 C652 1.366 . S
C653 C654 1.392 . S
C653 H676 0.930 . S
C654 C653 1.392 . S
C654 C655 1.398 . S
C654 H677 0.929 . S
C655 C654 1.398 . S
C655 C656 1.352 . S
C656 C655 1.352 . S
C656 C657 1.384 . S
C656 H678 0.930 . S
C657 C652 1.407 . S
C657 C656 1.384 . S
C657 H679 0.929 . S
C658 O668 1.241 . S
C658 O669 1.273 . S
C659 O670 1.251 . S
C659 O671 1.268 . S
O660 Nd640 2.500 . S
O660 C642 1.258 . S
O661 Nd640 2.492 . S
O661 C642 1.239 . S
O662 Nd640 2.487 . S
O662 C649 1.241 . S
O663 Nd640 2.682 . S
O663 Nd641 2.414 . S
O663 C649 1.273 . S
O664 Nd640 2.410 . S
O664 C650 1.251 . S
O665 Nd641 2.424 . S
O665 C650 1.268 . S
O666 Nd641 2.500 . S
O666 C651 1.258 . S
O667 Nd641 2.492 . S
O667 C651 1.239 . S
O668 Nd641 2.487 . S
O668 C658 1.241 . S
O669 Nd640 2.414 . S
O669 Nd641 2.682 . S
O669 C658 1.273 . S
O670 Nd641 2.410 . S
O670 C659 1.251 . S
O671 Nd640 2.424 . S
O671 C659 1.268 . S
H672 C644 0.930 . S
H673 C645 0.929 . S
H674 C647 0.930 . S
H675 C648 0.929 . S
H676 C653 0.930 . S
H677 C654 0.929 . S
H678 C656 0.930 . S
H679 C657 0.929 . S
Nd680 C682 2.836 . S
Nd680 O700 2.500 . S
Nd680 O701 2.492 . S
Nd680 O702 2.487 . S
Nd680 O703 2.682 . S
Nd680 O704 2.410 . S
Nd680 O709 2.414 . S
Nd680 O711 2.424 . S
Nd681 C691 2.836 . S
Nd681 O703 2.414 . S
Nd681 O705 2.424 . S
Nd681 O706 2.500 . S
Nd681 O707 2.492 . S
Nd681 O708 2.487 . S
Nd681 O709 2.682 . S
Nd681 O710 2.410 . S
C682 Nd680 2.836 . S
C682 C683 1.498 . S
C682 O700 1.258 . S
C682 O701 1.239 . S
C683 C682 1.498 . S
C683 C684 1.366 . S
C683 C688 1.407 . S
C684 C683 1.366 . S
C684 C685 1.392 . S
C684 H712 0.930 . S
C685 C684 1.392 . S
C685 C686 1.398 . S
C685 H713 0.929 . S
C686 C685 1.398 . S
C686 C687 1.352 . S
C687 C686 1.352 . S
C687 C688 1.384 . S
C687 H714 0.930 . S
C688 C683 1.407 . S
C688 C687 1.384 . S
C688 H715 0.929 . S
C689 O702 1.241 . S
C689 O703 1.273 . S
C690 O704 1.251 . S
C690 O705 1.268 . S
C691 Nd681 2.836 . S
C691 C692 1.498 . S
C691 O706 1.258 . S
C691 O707 1.239 . S
C692 C691 1.498 . S
C692 C693 1.366 . S
C692 C697 1.407 . S
C693 C692 1.366 . S
C693 C694 1.392 . S
C693 H716 0.930 . S
C694 C693 1.392 . S
C694 C695 1.398 . S
C694 H717 0.929 . S
C695 C694 1.398 . S
C695 C696 1.352 . S
C696 C695 1.352 . S
C696 C697 1.384 . S
C696 H718 0.930 . S
C697 C692 1.407 . S
C697 C696 1.384 . S
C697 H719 0.929 . S
C698 O708 1.241 . S
C698 O709 1.273 . S
C699 O710 1.251 . S
C699 O711 1.268 . S
O700 Nd680 2.500 . S
O700 C682 1.258 . S
O701 Nd680 2.492 . S
O701 C682 1.239 . S
O702 Nd680 2.487 . S
O702 C689 1.241 . S
O703 Nd680 2.682 . S
O703 Nd681 2.414 . S
O703 C689 1.273 . S
O704 Nd680 2.410 . S
O704 C690 1.251 . S
O705 Nd681 2.424 . S
O705 C690 1.268 . S
O706 Nd681 2.500 . S
O706 C691 1.258 . S
O707 Nd681 2.492 . S
O707 C691 1.239 . S
O708 Nd681 2.487 . S
O708 C698 1.241 . S
O709 Nd680 2.414 . S
O709 Nd681 2.682 . S
O709 C698 1.273 . S
O710 Nd681 2.410 . S
O710 C699 1.251 . S
O711 Nd680 2.424 . S
O711 C699 1.268 . S
H712 C684 0.930 . S
H713 C685 0.929 . S
H714 C687 0.930 . S
H715 C688 0.929 . S
H716 C693 0.930 . S
H717 C694 0.929 . S
H718 C696 0.930 . S
H719 C697 0.929 . S
Nd720 C722 2.836 . S
Nd720 O740 2.500 . S
Nd720 O741 2.492 . S
Nd720 O742 2.487 . S
Nd720 O743 2.682 . S
Nd720 O744 2.410 . S
Nd720 O749 2.414 . S
Nd720 O751 2.424 . S
Nd721 C731 2.836 . S
Nd721 O743 2.414 . S
Nd721 O745 2.424 . S
Nd721 O746 2.500 . S
Nd721 O747 2.492 . S
Nd721 O748 2.487 . S
Nd721 O749 2.682 . S
Nd721 O750 2.410 . S
C722 Nd720 2.836 . S
C722 C723 1.498 . S
C722 O740 1.258 . S
C722 O741 1.239 . S
C723 C722 1.498 . S
C723 C724 1.366 . S
C723 C728 1.407 . S
C724 C723 1.366 . S
C724 C725 1.392 . S
C724 H752 0.930 . S
C725 C724 1.392 . S
C725 C726 1.398 . S
C725 H753 0.929 . S
C726 C725 1.398 . S
C726 C727 1.352 . S
C727 C726 1.352 . S
C727 C728 1.384 . S
C727 H754 0.930 . S
C728 C723 1.407 . S
C728 C727 1.384 . S
C728 H755 0.929 . S
C729 O742 1.241 . S
C729 O743 1.273 . S
C730 O744 1.251 . S
C730 O745 1.268 . S
C731 Nd721 2.836 . S
C731 C732 1.498 . S
C731 O746 1.258 . S
C731 O747 1.239 . S
C732 C731 1.498 . S
C732 C733 1.366 . S
C732 C737 1.407 . S
C733 C732 1.366 . S
C733 C734 1.392 . S
C733 H756 0.930 . S
C734 C733 1.392 . S
C734 C735 1.398 . S
C734 H757 0.929 . S
C735 C734 1.398 . S
C735 C736 1.352 . S
C736 C735 1.352 . S
C736 C737 1.384 . S
C736 H758 0.930 . S
C737 C732 1.407 . S
C737 C736 1.384 . S
C737 H759 0.929 . S
C738 O748 1.241 . S
C738 O749 1.273 . S
C739 O750 1.251 . S
C739 O751 1.268 . S
O740 Nd720 2.500 . S
O740 C722 1.258 . S
O741 Nd720 2.492 . S
O741 C722 1.239 . S
O742 Nd720 2.487 . S
O742 C729 1.241 . S
O743 Nd720 2.682 . S
O743 Nd721 2.414 . S
O743 C729 1.273 . S
O744 Nd720 2.410 . S
O744 C730 1.251 . S
O745 Nd721 2.424 . S
O745 C730 1.268 . S
O746 Nd721 2.500 . S
O746 C731 1.258 . S
O747 Nd721 2.492 . S
O747 C731 1.239 . S
O748 Nd721 2.487 . S
O748 C738 1.241 . S
O749 Nd720 2.414 . S
O749 Nd721 2.682 . S
O749 C738 1.273 . S
O750 Nd721 2.410 . S
O750 C739 1.251 . S
O751 Nd720 2.424 . S
O751 C739 1.268 . S
H752 C724 0.930 . S
H753 C725 0.929 . S
H754 C727 0.930 . S
H755 C728 0.929 . S
H756 C733 0.930 . S
H757 C734 0.929 . S
H758 C736 0.930 . S
H759 C737 0.929 . S
Nd760 C762 2.836 . S
Nd760 O780 2.500 . S
Nd760 O781 2.492 . S
Nd760 O782 2.487 . S
Nd760 O783 2.682 . S
Nd760 O784 2.410 . S
Nd760 O789 2.414 . S
Nd760 O791 2.424 . S
Nd761 C771 2.836 . S
Nd761 O783 2.414 . S
Nd761 O785 2.424 . S
Nd761 O786 2.500 . S
Nd761 O787 2.492 . S
Nd761 O788 2.487 . S
Nd761 O789 2.682 . S
Nd761 O790 2.410 . S
C762 Nd760 2.836 . S
C762 C763 1.498 . S
C762 O780 1.258 . S
C762 O781 1.239 . S
C763 C762 1.498 . S
C763 C764 1.366 . S
C763 C768 1.407 . S
C764 C763 1.366 . S
C764 C765 1.392 . S
C764 H792 0.930 . S
C765 C764 1.392 . S
C765 C766 1.398 . S
C765 H793 0.929 . S
C766 C765 1.398 . S
C766 C767 1.352 . S
C767 C766 1.352 . S
C767 C768 1.384 . S
C767 H794 0.930 . S
C768 C763 1.407 . S
C768 C767 1.384 . S
C768 H795 0.929 . S
C769 O782 1.241 . S
C769 O783 1.273 . S
C770 O784 1.251 . S
C770 O785 1.268 . S
C771 Nd761 2.836 . S
C771 C772 1.498 . S
C771 O786 1.258 . S
C771 O787 1.239 . S
C772 C771 1.498 . S
C772 C773 1.366 . S
C772 C777 1.407 . S
C773 C772 1.366 . S
C773 C774 1.392 . S
C773 H796 0.930 . S
C774 C773 1.392 . S
C774 C775 1.398 . S
C774 H797 0.929 . S
C775 C774 1.398 . S
C775 C776 1.352 . S
C776 C775 1.352 . S
C776 C777 1.384 . S
C776 H798 0.930 . S
C777 C772 1.407 . S
C777 C776 1.384 . S
C777 H799 0.929 . S
C778 O788 1.241 . S
C778 O789 1.273 . S
C779 O790 1.251 . S
C779 O791 1.268 . S
O780 Nd760 2.500 . S
O780 C762 1.258 . S
O781 Nd760 2.492 . S
O781 C762 1.239 . S
O782 Nd760 2.487 . S
O782 C769 1.241 . S
O783 Nd760 2.682 . S
O783 Nd761 2.414 . S
O783 C769 1.273 . S
O784 Nd760 2.410 . S
O784 C770 1.251 . S
O785 Nd761 2.424 . S
O785 C770 1.268 . S
O786 Nd761 2.500 . S
O786 C771 1.258 . S
O787 Nd761 2.492 . S
O787 C771 1.239 . S
O788 Nd761 2.487 . S
O788 C778 1.241 . S
O789 Nd760 2.414 . S
O789 Nd761 2.682 . S
O789 C778 1.273 . S
O790 Nd761 2.410 . S
O790 C779 1.251 . S
O791 Nd760 2.424 . S
O791 C779 1.268 . S
H792 C764 0.930 . S
H793 C765 0.929 . S
H794 C767 0.930 . S
H795 C768 0.929 . S
H796 C773 0.930 . S
H797 C774 0.929 . S
H798 C776 0.930 . S
H799 C777 0.929 . S
Nd800 C802 2.836 . S
Nd800 O820 2.500 . S
Nd800 O821 2.492 . S
Nd800 O822 2.487 . S
Nd800 O823 2.682 . S
Nd800 O824 2.410 . S
Nd800 O829 2.414 . S
Nd800 O831 2.424 . S
Nd801 C811 2.836 . S
Nd801 O823 2.414 . S
Nd801 O825 2.424 . S
Nd801 O826 2.500 . S
Nd801 O827 2.492 . S
Nd801 O828 2.487 . S
Nd801 O829 2.682 . S
Nd801 O830 2.410 . S
C802 Nd800 2.836 . S
C802 C803 1.498 . S
C802 O820 1.258 . S
C802 O821 1.239 . S
C803 C802 1.498 . S
C803 C804 1.366 . S
C803 C808 1.407 . S
C804 C803 1.366 . S
C804 C805 1.392 . S
C804 H832 0.930 . S
C805 C804 1.392 . S
C805 C806 1.398 . S
C805 H833 0.929 . S
C806 C805 1.398 . S
C806 C807 1.352 . S
C807 C806 1.352 . S
C807 C808 1.384 . S
C807 H834 0.930 . S
C808 C803 1.407 . S
C808 C807 1.384 . S
C808 H835 0.929 . S
C809 O822 1.241 . S
C809 O823 1.273 . S
C810 O824 1.251 . S
C810 O825 1.268 . S
C811 Nd801 2.836 . S
C811 C812 1.498 . S
C811 O826 1.258 . S
C811 O827 1.239 . S
C812 C811 1.498 . S
C812 C813 1.366 . S
C812 C817 1.407 . S
C813 C812 1.366 . S
C813 C814 1.392 . S
C813 H836 0.930 . S
C814 C813 1.392 . S
C814 C815 1.398 . S
C814 H837 0.929 . S
C815 C814 1.398 . S
C815 C816 1.352 . S
C816 C815 1.352 . S
C816 C817 1.384 . S
C816 H838 0.930 . S
C817 C812 1.407 . S
C817 C816 1.384 . S
C817 H839 0.929 . S
C818 O828 1.241 . S
C818 O829 1.273 . S
C819 O830 1.251 . S
C819 O831 1.268 . S
O820 Nd800 2.500 . S
O820 C802 1.258 . S
O821 Nd800 2.492 . S
O821 C802 1.239 . S
O822 Nd800 2.487 . S
O822 C809 1.241 . S
O823 Nd800 2.682 . S
O823 Nd801 2.414 . S
O823 C809 1.273 . S
O824 Nd800 2.410 . S
O824 C810 1.251 . S
O825 Nd801 2.424 . S
O825 C810 1.268 . S
O826 Nd801 2.500 . S
O826 C811 1.258 . S
O827 Nd801 2.492 . S
O827 C811 1.239 . S
O828 Nd801 2.487 . S
O828 C818 1.241 . S
O829 Nd800 2.414 . S
O829 Nd801 2.682 . S
O829 C818 1.273 . S
O830 Nd801 2.410 . S
O830 C819 1.251 . S
O831 Nd800 2.424 . S
O831 C819 1.268 . S
H832 C804 0.930 . S
H833 C805 0.929 . S
H834 C807 0.930 . S
H835 C808 0.929 . S
H836 C813 0.930 . S
H837 C814 0.929 . S
H838 C816 0.930 . S
H839 C817 0.929 . S
Nd840 C842 2.836 . S
Nd840 O860 2.500 . S
Nd840 O861 2.492 . S
Nd840 O862 2.487 . S
Nd840 O863 2.682 . S
Nd840 O864 2.410 . S
Nd840 O869 2.414 . S
Nd840 O871 2.424 . S
Nd841 C851 2.836 . S
Nd841 O863 2.414 . S
Nd841 O865 2.424 . S
Nd841 O866 2.500 . S
Nd841 O867 2.492 . S
Nd841 O868 2.487 . S
Nd841 O869 2.682 . S
Nd841 O870 2.410 . S
C842 Nd840 2.836 . S
C842 C843 1.498 . S
C842 O860 1.258 . S
C842 O861 1.239 . S
C843 C842 1.498 . S
C843 C844 1.366 . S
C843 C848 1.407 . S
C844 C843 1.366 . S
C844 C845 1.392 . S
C844 H872 0.930 . S
C845 C844 1.392 . S
C845 C846 1.398 . S
C845 H873 0.929 . S
C846 C845 1.398 . S
C846 C847 1.352 . S
C847 C846 1.352 . S
C847 C848 1.384 . S
C847 H874 0.930 . S
C848 C843 1.407 . S
C848 C847 1.384 . S
C848 H875 0.929 . S
C849 O862 1.241 . S
C849 O863 1.273 . S
C850 O864 1.251 . S
C850 O865 1.268 . S
C851 Nd841 2.836 . S
C851 C852 1.498 . S
C851 O866 1.258 . S
C851 O867 1.239 . S
C852 C851 1.498 . S
C852 C853 1.366 . S
C852 C857 1.407 . S
C853 C852 1.366 . S
C853 C854 1.392 . S
C853 H876 0.930 . S
C854 C853 1.392 . S
C854 C855 1.398 . S
C854 H877 0.929 . S
C855 C854 1.398 . S
C855 C856 1.352 . S
C856 C855 1.352 . S
C856 C857 1.384 . S
C856 H878 0.930 . S
C857 C852 1.407 . S
C857 C856 1.384 . S
C857 H879 0.929 . S
C858 O868 1.241 . S
C858 O869 1.273 . S
C859 O870 1.251 . S
C859 O871 1.268 . S
O860 Nd840 2.500 . S
O860 C842 1.258 . S
O861 Nd840 2.492 . S
O861 C842 1.239 . S
O862 Nd840 2.487 . S
O862 C849 1.241 . S
O863 Nd840 2.682 . S
O863 Nd841 2.414 . S
O863 C849 1.273 . S
O864 Nd840 2.410 . S
O864 C850 1.251 . S
O865 Nd841 2.424 . S
O865 C850 1.268 . S
O866 Nd841 2.500 . S
O866 C851 1.258 . S
O867 Nd841 2.492 . S
O867 C851 1.239 . S
O868 Nd841 2.487 . S
O868 C858 1.241 . S
O869 Nd840 2.414 . S
O869 Nd841 2.682 . S
O869 C858 1.273 . S
O870 Nd841 2.410 . S
O870 C859 1.251 . S
O871 Nd840 2.424 . S
O871 C859 1.268 . S
H872 C844 0.930 . S
H873 C845 0.929 . S
H874 C847 0.930 . S
H875 C848 0.929 . S
H876 C853 0.930 . S
H877 C854 0.929 . S
H878 C856 0.930 . S
H879 C857 0.929 . S
Nd880 C882 2.836 . S
Nd880 O900 2.500 . S
Nd880 O901 2.492 . S
Nd880 O902 2.487 . S
Nd880 O903 2.682 . S
Nd880 O904 2.410 . S
Nd880 O909 2.414 . S
Nd880 O911 2.424 . S
Nd881 C891 2.836 . S
Nd881 O903 2.414 . S
Nd881 O905 2.424 . S
Nd881 O906 2.500 . S
Nd881 O907 2.492 . S
Nd881 O908 2.487 . S
Nd881 O909 2.682 . S
Nd881 O910 2.410 . S
C882 Nd880 2.836 . S
C882 C883 1.498 . S
C882 O900 1.258 . S
C882 O901 1.239 . S
C883 C882 1.498 . S
C883 C884 1.366 . S
C883 C888 1.407 . S
C884 C883 1.366 . S
C884 C885 1.392 . S
C884 H912 0.930 . S
C885 C884 1.392 . S
C885 C886 1.398 . S
C885 H913 0.929 . S
C886 C885 1.398 . S
C886 C887 1.352 . S
C887 C886 1.352 . S
C887 C888 1.384 . S
C887 H914 0.930 . S
C888 C883 1.407 . S
C888 C887 1.384 . S
C888 H915 0.929 . S
C889 O902 1.241 . S
C889 O903 1.273 . S
C890 O904 1.251 . S
C890 O905 1.268 . S
C891 Nd881 2.836 . S
C891 C892 1.498 . S
C891 O906 1.258 . S
C891 O907 1.239 . S
C892 C891 1.498 . S
C892 C893 1.366 . S
C892 C897 1.407 . S
C893 C892 1.366 . S
C893 C894 1.392 . S
C893 H916 0.930 . S
C894 C893 1.392 . S
C894 C895 1.398 . S
C894 H917 0.929 . S
C895 C894 1.398 . S
C895 C896 1.352 . S
C896 C895 1.352 . S
C896 C897 1.384 . S
C896 H918 0.930 . S
C897 C892 1.407 . S
C897 C896 1.384 . S
C897 H919 0.929 . S
C898 O908 1.241 . S
C898 O909 1.273 . S
C899 O910 1.251 . S
C899 O911 1.268 . S
O900 Nd880 2.500 . S
O900 C882 1.258 . S
O901 Nd880 2.492 . S
O901 C882 1.239 . S
O902 Nd880 2.487 . S
O902 C889 1.241 . S
O903 Nd880 2.682 . S
O903 Nd881 2.414 . S
O903 C889 1.273 . S
O904 Nd880 2.410 . S
O904 C890 1.251 . S
O905 Nd881 2.424 . S
O905 C890 1.268 . S
O906 Nd881 2.500 . S
O906 C891 1.258 . S
O907 Nd881 2.492 . S
O907 C891 1.239 . S
O908 Nd881 2.487 . S
O908 C898 1.241 . S
O909 Nd880 2.414 . S
O909 Nd881 2.682 . S
O909 C898 1.273 . S
O910 Nd881 2.410 . S
O910 C899 1.251 . S
O911 Nd880 2.424 . S
O911 C899 1.268 . S
H912 C884 0.930 . S
H913 C885 0.929 . S
H914 C887 0.930 . S
H915 C888 0.929 . S
H916 C893 0.930 . S
H917 C894 0.929 . S
H918 C896 0.930 . S
H919 C897 0.929 . S
Nd920 C922 2.836 . S
Nd920 O940 2.500 . S
Nd920 O941 2.492 . S
Nd920 O942 2.487 . S
Nd920 O943 2.682 . S
Nd920 O944 2.410 . S
Nd920 O949 2.414 . S
Nd920 O951 2.424 . S
Nd921 C931 2.836 . S
Nd921 O943 2.414 . S
Nd921 O945 2.424 . S
Nd921 O946 2.500 . S
Nd921 O947 2.492 . S
Nd921 O948 2.487 . S
Nd921 O949 2.682 . S
Nd921 O950 2.410 . S
C922 Nd920 2.836 . S
C922 C923 1.498 . S
C922 O940 1.258 . S
C922 O941 1.239 . S
C923 C922 1.498 . S
C923 C924 1.366 . S
C923 C928 1.407 . S
C924 C923 1.366 . S
C924 C925 1.392 . S
C924 H952 0.930 . S
C925 C924 1.392 . S
C925 C926 1.398 . S
C925 H953 0.929 . S
C926 C925 1.398 . S
C926 C927 1.352 . S
C927 C926 1.352 . S
C927 C928 1.384 . S
C927 H954 0.930 . S
C928 C923 1.407 . S
C928 C927 1.384 . S
C928 H955 0.929 . S
C929 O942 1.241 . S
C929 O943 1.273 . S
C930 O944 1.251 . S
C930 O945 1.268 . S
C931 Nd921 2.836 . S
C931 C932 1.498 . S
C931 O946 1.258 . S
C931 O947 1.239 . S
C932 C931 1.498 . S
C932 C933 1.366 . S
C932 C937 1.407 . S
C933 C932 1.366 . S
C933 C934 1.392 . S
C933 H956 0.930 . S
C934 C933 1.392 . S
C934 C935 1.398 . S
C934 H957 0.929 . S
C935 C934 1.398 . S
C935 C936 1.352 . S
C936 C935 1.352 . S
C936 C937 1.384 . S
C936 H958 0.930 . S
C937 C932 1.407 . S
C937 C936 1.384 . S
C937 H959 0.929 . S
C938 O948 1.241 . S
C938 O949 1.273 . S
C939 O950 1.251 . S
C939 O951 1.268 . S
O940 Nd920 2.500 . S
O940 C922 1.258 . S
O941 Nd920 2.492 . S
O941 C922 1.239 . S
O942 Nd920 2.487 . S
O942 C929 1.241 . S
O943 Nd920 2.682 . S
O943 Nd921 2.414 . S
O943 C929 1.273 . S
O944 Nd920 2.410 . S
O944 C930 1.251 . S
O945 Nd921 2.424 . S
O945 C930 1.268 . S
O946 Nd921 2.500 . S
O946 C931 1.258 . S
O947 Nd921 2.492 . S
O947 C931 1.239 . S
O948 Nd921 2.487 . S
O948 C938 1.241 . S
O949 Nd920 2.414 . S
O949 Nd921 2.682 . S
O949 C938 1.273 . S
O950 Nd921 2.410 . S
O950 C939 1.251 . S
O951 Nd920 2.424 . S
O951 C939 1.268 . S
H952 C924 0.930 . S
H953 C925 0.929 . S
H954 C927 0.930 . S
H955 C928 0.929 . S
H956 C933 0.930 . S
H957 C934 0.929 . S
H958 C936 0.930 . S
H959 C937 0.929 . S
Nd960 C962 2.836 . S
Nd960 O980 2.500 . S
Nd960 O981 2.492 . S
Nd960 O982 2.487 . S
Nd960 O983 2.682 1_565 S
Nd960 O984 2.410 . S
Nd960 O989 2.414 . S
Nd960 O991 2.424 . S
Nd961 C971 2.836 . S
Nd961 O983 2.414 . S
Nd961 O985 2.424 . S
Nd961 O986 2.500 . S
Nd961 O987 2.492 . S
Nd961 O988 2.487 . S
Nd961 O989 2.682 1_545 S
Nd961 O990 2.410 . S
C962 Nd960 2.836 . S
C962 C963 1.498 . S
C962 O980 1.258 . S
C962 O981 1.239 . S
C963 C962 1.498 . S
C963 C964 1.366 . S
C963 C968 1.407 . S
C964 C963 1.366 . S
C964 C965 1.392 . S
C964 H992 0.930 . S
C965 C964 1.392 . S
C965 C966 1.398 . S
C965 H993 0.929 . S
C966 C965 1.398 . S
C966 C967 1.352 . S
C967 C966 1.352 . S
C967 C968 1.384 . S
C967 H994 0.930 . S
C968 C963 1.407 . S
C968 C967 1.384 . S
C968 H995 0.929 . S
C969 O982 1.241 . S
C969 O983 1.273 1_565 S
C970 O984 1.251 . S
C970 O985 1.268 1_565 S
C971 Nd961 2.836 . S
C971 C972 1.498 . S
C971 O986 1.258 . S
C971 O987 1.239 . S
C972 C971 1.498 . S
C972 C973 1.366 . S
C972 C977 1.407 . S
C973 C972 1.366 . S
C973 C974 1.392 . S
C973 H996 0.930 . S
C974 C973 1.392 . S
C974 C975 1.398 . S
C974 H997 0.929 . S
C975 C974 1.398 . S
C975 C976 1.352 . S
C976 C975 1.352 . S
C976 C977 1.384 . S
C976 H998 0.930 . S
C977 C972 1.407 . S
C977 C976 1.384 . S
C977 H999 0.929 . S
C978 O988 1.241 . S
C978 O989 1.273 1_545 S
C979 O990 1.251 . S
C979 O991 1.268 1_545 S
O980 Nd960 2.500 . S
O980 C962 1.258 . S
O981 Nd960 2.492 . S
O981 C962 1.239 . S
O982 Nd960 2.487 . S
O982 C969 1.241 . S
O983 Nd960 2.682 1_545 S
O983 Nd961 2.414 . S
O983 C969 1.273 1_545 S
O984 Nd960 2.410 . S
O984 C970 1.251 . S
O985 Nd961 2.424 . S
O985 C970 1.268 1_545 S
O986 Nd961 2.500 . S
O986 C971 1.258 . S
O987 Nd961 2.492 . S
O987 C971 1.239 . S
O988 Nd961 2.487 . S
O988 C978 1.241 . S
O989 Nd960 2.414 . S
O989 Nd961 2.682 1_565 S
O989 C978 1.273 1_565 S
O990 Nd961 2.410 . S
O990 C979 1.251 . S
O991 Nd960 2.424 . S
O991 C979 1.268 1_565 S
H992 C964 0.930 . S
H993 C965 0.929 . S
H994 C967 0.930 . S
H995 C968 0.929 . S
H996 C973 0.930 . S
H997 C974 0.929 . S
H998 C976 0.930 . S
H999 C977 0.929 . S
Nd1000 C1002 2.836 . S
Nd1000 O1020 2.500 . S
Nd1000 O1021 2.492 . S
Nd1000 O1022 2.487 . S
Nd1000 O1023 2.682 . S
Nd1000 O1024 2.410 . S
Nd1000 O1029 2.414 . S
Nd1000 O1031 2.424 . S
Nd1001 C1011 2.836 . S
Nd1001 O1023 2.414 . S
Nd1001 O1025 2.424 . S
Nd1001 O1026 2.500 . S
Nd1001 O1027 2.492 . S
Nd1001 O1028 2.487 . S
Nd1001 O1029 2.682 . S
Nd1001 O1030 2.410 . S
C1002 Nd1000 2.836 . S
C1002 C1003 1.498 . S
C1002 O1020 1.258 . S
C1002 O1021 1.239 . S
C1003 C1002 1.498 . S
C1003 C1004 1.366 . S
C1003 C1008 1.407 . S
C1004 C1003 1.366 . S
C1004 C1005 1.392 . S
C1004 H1032 0.930 . S
C1005 C1004 1.392 . S
C1005 C1006 1.398 . S
C1005 H1033 0.929 . S
C1006 C1005 1.398 . S
C1006 C1007 1.352 . S
C1007 C1006 1.352 . S
C1007 C1008 1.384 . S
C1007 H1034 0.930 . S
C1008 C1003 1.407 . S
C1008 C1007 1.384 . S
C1008 H1035 0.929 . S
C1009 O1022 1.241 . S
C1009 O1023 1.273 . S
C1010 O1024 1.251 . S
C1010 O1025 1.268 . S
C1011 Nd1001 2.836 . S
C1011 C1012 1.498 . S
C1011 O1026 1.258 . S
C1011 O1027 1.239 . S
C1012 C1011 1.498 . S
C1012 C1013 1.366 . S
C1012 C1017 1.407 . S
C1013 C1012 1.366 . S
C1013 C1014 1.392 . S
C1013 H1036 0.930 . S
C1014 C1013 1.392 . S
C1014 C1015 1.398 . S
C1014 H1037 0.929 . S
C1015 C1014 1.398 . S
C1015 C1016 1.352 . S
C1016 C1015 1.352 . S
C1016 C1017 1.384 . S
C1016 H1038 0.930 . S
C1017 C1012 1.407 . S
C1017 C1016 1.384 . S
C1017 H1039 0.929 . S
C1018 O1028 1.241 . S
C1018 O1029 1.273 . S
C1019 O1030 1.251 . S
C1019 O1031 1.268 . S
O1020 Nd1000 2.500 . S
O1020 C1002 1.258 . S
O1021 Nd1000 2.492 . S
O1021 C1002 1.239 . S
O1022 Nd1000 2.487 . S
O1022 C1009 1.241 . S
O1023 Nd1000 2.682 . S
O1023 Nd1001 2.414 . S
O1023 C1009 1.273 . S
O1024 Nd1000 2.410 . S
O1024 C1010 1.251 . S
O1025 Nd1001 2.424 . S
O1025 C1010 1.268 . S
O1026 Nd1001 2.500 . S
O1026 C1011 1.258 . S
O1027 Nd1001 2.492 . S
O1027 C1011 1.239 . S
O1028 Nd1001 2.487 . S
O1028 C1018 1.241 . S
O1029 Nd1000 2.414 . S
O1029 Nd1001 2.682 . S
O1029 C1018 1.273 . S
O1030 Nd1001 2.410 . S
O1030 C1019 1.251 . S
O1031 Nd1000 2.424 . S
O1031 C1019 1.268 . S
H1032 C1004 0.930 . S
H1033 C1005 0.929 . S
H1034 C1007 0.930 . S
H1035 C1008 0.929 . S
H1036 C1013 0.930 . S
H1037 C1014 0.929 . S
H1038 C1016 0.930 . S
H1039 C1017 0.929 . S
Nd1040 C1042 2.836 . S
Nd1040 O1060 2.500 . S
Nd1040 O1061 2.492 . S
Nd1040 O1062 2.487 . S
Nd1040 O1063 2.682 . S
Nd1040 O1064 2.410 . S
Nd1040 O1069 2.414 . S
Nd1040 O1071 2.424 . S
Nd1041 C1051 2.836 . S
Nd1041 O1063 2.414 . S
Nd1041 O1065 2.424 . S
Nd1041 O1066 2.500 . S
Nd1041 O1067 2.492 . S
Nd1041 O1068 2.487 . S
Nd1041 O1069 2.682 . S
Nd1041 O1070 2.410 . S
C1042 Nd1040 2.836 . S
C1042 C1043 1.498 . S
C1042 O1060 1.258 . S
C1042 O1061 1.239 . S
C1043 C1042 1.498 . S
C1043 C1044 1.366 . S
C1043 C1048 1.407 . S
C1044 C1043 1.366 . S
C1044 C1045 1.392 . S
C1044 H1072 0.930 . S
C1045 C1044 1.392 . S
C1045 C1046 1.398 . S
C1045 H1073 0.929 . S
C1046 C1045 1.398 . S
C1046 C1047 1.352 . S
C1047 C1046 1.352 . S
C1047 C1048 1.384 . S
C1047 H1074 0.930 . S
C1048 C1043 1.407 . S
C1048 C1047 1.384 . S
C1048 H1075 0.929 . S
C1049 O1062 1.241 . S
C1049 O1063 1.273 . S
C1050 O1064 1.251 . S
C1050 O1065 1.268 . S
C1051 Nd1041 2.836 . S
C1051 C1052 1.498 . S
C1051 O1066 1.258 . S
C1051 O1067 1.239 . S
C1052 C1051 1.498 . S
C1052 C1053 1.366 . S
C1052 C1057 1.407 . S
C1053 C1052 1.366 . S
C1053 C1054 1.392 . S
C1053 H1076 0.930 . S
C1054 C1053 1.392 . S
C1054 C1055 1.398 . S
C1054 H1077 0.929 . S
C1055 C1054 1.398 . S
C1055 C1056 1.352 . S
C1056 C1055 1.352 . S
C1056 C1057 1.384 . S
C1056 H1078 0.930 . S
C1057 C1052 1.407 . S
C1057 C1056 1.384 . S
C1057 H1079 0.929 . S
C1058 O1068 1.241 . S
C1058 O1069 1.273 . S
C1059 O1070 1.251 . S
C1059 O1071 1.268 . S
O1060 Nd1040 2.500 . S
O1060 C1042 1.258 . S
O1061 Nd1040 2.492 . S
O1061 C1042 1.239 . S
O1062 Nd1040 2.487 . S
O1062 C1049 1.241 . S
O1063 Nd1040 2.682 . S
O1063 Nd1041 2.414 . S
O1063 C1049 1.273 . S
O1064 Nd1040 2.410 . S
O1064 C1050 1.251 . S
O1065 Nd1041 2.424 . S
O1065 C1050 1.268 . S
O1066 Nd1041 2.500 . S
O1066 C1051 1.258 . S
O1067 Nd1041 2.492 . S
O1067 C1051 1.239 . S
O1068 Nd1041 2.487 . S
O1068 C1058 1.241 . S
O1069 Nd1040 2.414 . S
O1069 Nd1041 2.682 . S
O1069 C1058 1.273 . S
O1070 Nd1041 2.410 . S
O1070 C1059 1.251 . S
O1071 Nd1040 2.424 . S
O1071 C1059 1.268 . S
H1072 C1044 0.930 . S
H1073 C1045 0.929 . S
H1074 C1047 0.930 . S
H1075 C1048 0.929 . S
H1076 C1053 0.930 . S
H1077 C1054 0.929 . S
H1078 C1056 0.930 . S
H1079 C1057 0.929 . S
Nd1080 C1082 2.836 . S
Nd1080 O1100 2.500 . S
Nd1080 O1101 2.492 . S
Nd1080 O1102 2.487 . S
Nd1080 O1103 2.682 1_565 S
Nd1080 O1104 2.410 . S
Nd1080 O1109 2.414 . S
Nd1080 O1111 2.424 . S
Nd1081 C1091 2.836 . S
Nd1081 O1103 2.414 . S
Nd1081 O1105 2.424 . S
Nd1081 O1106 2.500 . S
Nd1081 O1107 2.492 . S
Nd1081 O1108 2.487 . S
Nd1081 O1109 2.682 1_545 S
Nd1081 O1110 2.410 . S
C1082 Nd1080 2.836 . S
C1082 C1083 1.498 . S
C1082 O1100 1.258 . S
C1082 O1101 1.239 . S
C1083 C1082 1.498 . S
C1083 C1084 1.366 . S
C1083 C1088 1.407 . S
C1084 C1083 1.366 . S
C1084 C1085 1.392 . S
C1084 H1112 0.930 . S
C1085 C1084 1.392 . S
C1085 C1086 1.398 . S
C1085 H1113 0.929 . S
C1086 C1085 1.398 . S
C1086 C1087 1.352 . S
C1087 C1086 1.352 . S
C1087 C1088 1.384 . S
C1087 H1114 0.930 . S
C1088 C1083 1.407 . S
C1088 C1087 1.384 . S
C1088 H1115 0.929 . S
C1089 O1102 1.241 . S
C1089 O1103 1.273 1_565 S
C1090 O1104 1.251 . S
C1090 O1105 1.268 1_565 S
C1091 Nd1081 2.836 . S
C1091 C1092 1.498 . S
C1091 O1106 1.258 . S
C1091 O1107 1.239 . S
C1092 C1091 1.498 . S
C1092 C1093 1.366 . S
C1092 C1097 1.407 . S
C1093 C1092 1.366 . S
C1093 C1094 1.392 . S
C1093 H1116 0.930 . S
C1094 C1093 1.392 . S
C1094 C1095 1.398 . S
C1094 H1117 0.929 . S
C1095 C1094 1.398 . S
C1095 C1096 1.352 . S
C1096 C1095 1.352 . S
C1096 C1097 1.384 . S
C1096 H1118 0.930 . S
C1097 C1092 1.407 . S
C1097 C1096 1.384 . S
C1097 H1119 0.929 . S
C1098 O1108 1.241 . S
C1098 O1109 1.273 1_545 S
C1099 O1110 1.251 . S
C1099 O1111 1.268 1_545 S
O1100 Nd1080 2.500 . S
O1100 C1082 1.258 . S
O1101 Nd1080 2.492 . S
O1101 C1082 1.239 . S
O1102 Nd1080 2.487 . S
O1102 C1089 1.241 . S
O1103 Nd1080 2.682 1_545 S
O1103 Nd1081 2.414 . S
O1103 C1089 1.273 1_545 S
O1104 Nd1080 2.410 . S
O1104 C1090 1.251 . S
O1105 Nd1081 2.424 . S
O1105 C1090 1.268 1_545 S
O1106 Nd1081 2.500 . S
O1106 C1091 1.258 . S
O1107 Nd1081 2.492 . S
O1107 C1091 1.239 . S
O1108 Nd1081 2.487 . S
O1108 C1098 1.241 . S
O1109 Nd1080 2.414 . S
O1109 Nd1081 2.682 1_565 S
O1109 C1098 1.273 1_565 S
O1110 Nd1081 2.410 . S
O1110 C1099 1.251 . S
O1111 Nd1080 2.424 . S
O1111 C1099 1.268 1_565 S
H1112 C1084 0.930 . S
H1113 C1085 0.929 . S
H1114 C1087 0.930 . S
H1115 C1088 0.929 . S
H1116 C1093 0.930 . S
H1117 C1094 0.929 . S
H1118 C1096 0.930 . S
H1119 C1097 0.929 . S
Nd1120 C1122 2.836 . S
Nd1120 O1140 2.500 . S
Nd1120 O1141 2.492 . S
Nd1120 O1142 2.487 . S
Nd1120 O1143 2.682 1_565 S
Nd1120 O1144 2.410 . S
Nd1120 O1149 2.414 . S
Nd1120 O1151 2.424 . S
Nd1121 C1131 2.836 . S
Nd1121 O1143 2.414 . S
Nd1121 O1145 2.424 . S
Nd1121 O1146 2.500 . S
Nd1121 O1147 2.492 . S
Nd1121 O1148 2.487 . S
Nd1121 O1149 2.682 1_545 S
Nd1121 O1150 2.410 . S
C1122 Nd1120 2.836 . S
C1122 C1123 1.498 . S
C1122 O1140 1.258 . S
C1122 O1141 1.239 . S
C1123 C1122 1.498 . S
C1123 C1124 1.366 . S
C1123 C1128 1.407 . S
C1124 C1123 1.366 . S
C1124 C1125 1.392 . S
C1124 H1152 0.930 . S
C1125 C1124 1.392 . S
C1125 C1126 1.398 . S
C1125 H1153 0.929 . S
C1126 C1125 1.398 . S
C1126 C1127 1.352 . S
C1127 C1126 1.352 . S
C1127 C1128 1.384 . S
C1127 H1154 0.930 . S
C1128 C1123 1.407 . S
C1128 C1127 1.384 . S
C1128 H1155 0.929 . S
C1129 O1142 1.241 . S
C1129 O1143 1.273 1_565 S
C1130 O1144 1.251 . S
C1130 O1145 1.268 1_565 S
C1131 Nd1121 2.836 . S
C1131 C1132 1.498 . S
C1131 O1146 1.258 . S
C1131 O1147 1.239 . S
C1132 C1131 1.498 . S
C1132 C1133 1.366 . S
C1132 C1137 1.407 . S
C1133 C1132 1.366 . S
C1133 C1134 1.392 . S
C1133 H1156 0.930 . S
C1134 C1133 1.392 . S
C1134 C1135 1.398 . S
C1134 H1157 0.929 . S
C1135 C1134 1.398 . S
C1135 C1136 1.352 . S
C1136 C1135 1.352 . S
C1136 C1137 1.384 . S
C1136 H1158 0.930 . S
C1137 C1132 1.407 . S
C1137 C1136 1.384 . S
C1137 H1159 0.929 . S
C1138 O1148 1.241 . S
C1138 O1149 1.273 1_545 S
C1139 O1150 1.251 . S
C1139 O1151 1.268 1_545 S
O1140 Nd1120 2.500 . S
O1140 C1122 1.258 . S
O1141 Nd1120 2.492 . S
O1141 C1122 1.239 . S
O1142 Nd1120 2.487 . S
O1142 C1129 1.241 . S
O1143 Nd1120 2.682 1_545 S
O1143 Nd1121 2.414 . S
O1143 C1129 1.273 1_545 S
O1144 Nd1120 2.410 . S
O1144 C1130 1.251 . S
O1145 Nd1121 2.424 . S
O1145 C1130 1.268 1_545 S
O1146 Nd1121 2.500 . S
O1146 C1131 1.258 . S
O1147 Nd1121 2.492 . S
O1147 C1131 1.239 . S
O1148 Nd1121 2.487 . S
O1148 C1138 1.241 . S
O1149 Nd1120 2.414 . S
O1149 Nd1121 2.682 1_565 S
O1149 C1138 1.273 1_565 S
O1150 Nd1121 2.410 . S
O1150 C1139 1.251 . S
O1151 Nd1120 2.424 . S
O1151 C1139 1.268 1_565 S
H1152 C1124 0.930 . S
H1153 C1125 0.929 . S
H1154 C1127 0.930 . S
H1155 C1128 0.929 . S
H1156 C1133 0.930 . S
H1157 C1134 0.929 . S
H1158 C1136 0.930 . S
H1159 C1137 0.929 . S
Nd1160 C1162 2.836 . S
Nd1160 O1180 2.500 . S
Nd1160 O1181 2.492 . S
Nd1160 O1182 2.487 . S
Nd1160 O1183 2.682 . S
Nd1160 O1184 2.410 . S
Nd1160 O1189 2.414 . S
Nd1160 O1191 2.424 . S
Nd1161 C1171 2.836 . S
Nd1161 O1183 2.414 . S
Nd1161 O1185 2.424 . S
Nd1161 O1186 2.500 . S
Nd1161 O1187 2.492 . S
Nd1161 O1188 2.487 . S
Nd1161 O1189 2.682 . S
Nd1161 O1190 2.410 . S
C1162 Nd1160 2.836 . S
C1162 C1163 1.498 . S
C1162 O1180 1.258 . S
C1162 O1181 1.239 . S
C1163 C1162 1.498 . S
C1163 C1164 1.366 . S
C1163 C1168 1.407 . S
C1164 C1163 1.366 . S
C1164 C1165 1.392 . S
C1164 H1192 0.930 . S
C1165 C1164 1.392 . S
C1165 C1166 1.398 . S
C1165 H1193 0.929 . S
C1166 C1165 1.398 . S
C1166 C1167 1.352 . S
C1167 C1166 1.352 . S
C1167 C1168 1.384 . S
C1167 H1194 0.930 . S
C1168 C1163 1.407 . S
C1168 C1167 1.384 . S
C1168 H1195 0.929 . S
C1169 O1182 1.241 . S
C1169 O1183 1.273 . S
C1170 O1184 1.251 . S
C1170 O1185 1.268 . S
C1171 Nd1161 2.836 . S
C1171 C1172 1.498 . S
C1171 O1186 1.258 . S
C1171 O1187 1.239 . S
C1172 C1171 1.498 . S
C1172 C1173 1.366 . S
C1172 C1177 1.407 . S
C1173 C1172 1.366 . S
C1173 C1174 1.392 . S
C1173 H1196 0.930 . S
C1174 C1173 1.392 . S
C1174 C1175 1.398 . S
C1174 H1197 0.929 . S
C1175 C1174 1.398 . S
C1175 C1176 1.352 . S
C1176 C1175 1.352 . S
C1176 C1177 1.384 . S
C1176 H1198 0.930 . S
C1177 C1172 1.407 . S
C1177 C1176 1.384 . S
C1177 H1199 0.929 . S
C1178 O1188 1.241 . S
C1178 O1189 1.273 . S
C1179 O1190 1.251 . S
C1179 O1191 1.268 . S
O1180 Nd1160 2.500 . S
O1180 C1162 1.258 . S
O1181 Nd1160 2.492 . S
O1181 C1162 1.239 . S
O1182 Nd1160 2.487 . S
O1182 C1169 1.241 . S
O1183 Nd1160 2.682 . S
O1183 Nd1161 2.414 . S
O1183 C1169 1.273 . S
O1184 Nd1160 2.410 . S
O1184 C1170 1.251 . S
O1185 Nd1161 2.424 . S
O1185 C1170 1.268 . S
O1186 Nd1161 2.500 . S
O1186 C1171 1.258 . S
O1187 Nd1161 2.492 . S
O1187 C1171 1.239 . S
O1188 Nd1161 2.487 . S
O1188 C1178 1.241 . S
O1189 Nd1160 2.414 . S
O1189 Nd1161 2.682 . S
O1189 C1178 1.273 . S
O1190 Nd1161 2.410 . S
O1190 C1179 1.251 . S
O1191 Nd1160 2.424 . S
O1191 C1179 1.268 . S
H1192 C1164 0.930 . S
H1193 C1165 0.929 . S
H1194 C1167 0.930 . S
H1195 C1168 0.929 . S
H1196 C1173 0.930 . S
H1197 C1174 0.929 . S
H1198 C1176 0.930 . S
H1199 C1177 0.929 . S
Nd1200 C1202 2.836 . S
Nd1200 O1220 2.500 . S
Nd1200 O1221 2.492 . S
Nd1200 O1222 2.487 . S
Nd1200 O1223 2.682 . S
Nd1200 O1224 2.410 . S
Nd1200 O1229 2.414 . S
Nd1200 O1231 2.424 . S
Nd1201 C1211 2.836 . S
Nd1201 O1223 2.414 . S
Nd1201 O1225 2.424 . S
Nd1201 O1226 2.500 . S
Nd1201 O1227 2.492 . S
Nd1201 O1228 2.487 . S
Nd1201 O1229 2.682 . S
Nd1201 O1230 2.410 . S
C1202 Nd1200 2.836 . S
C1202 C1203 1.498 . S
C1202 O1220 1.258 . S
C1202 O1221 1.239 . S
C1203 C1202 1.498 . S
C1203 C1204 1.366 . S
C1203 C1208 1.407 . S
C1204 C1203 1.366 . S
C1204 C1205 1.392 . S
C1204 H1232 0.930 . S
C1205 C1204 1.392 . S
C1205 C1206 1.398 . S
C1205 H1233 0.929 . S
C1206 C1205 1.398 . S
C1206 C1207 1.352 . S
C1207 C1206 1.352 . S
C1207 C1208 1.384 . S
C1207 H1234 0.930 . S
C1208 C1203 1.407 . S
C1208 C1207 1.384 . S
C1208 H1235 0.929 . S
C1209 O1222 1.241 . S
C1209 O1223 1.273 . S
C1210 O1224 1.251 . S
C1210 O1225 1.268 . S
C1211 Nd1201 2.836 . S
C1211 C1212 1.498 . S
C1211 O1226 1.258 . S
C1211 O1227 1.239 . S
C1212 C1211 1.498 . S
C1212 C1213 1.366 . S
C1212 C1217 1.407 . S
C1213 C1212 1.366 . S
C1213 C1214 1.392 . S
C1213 H1236 0.930 . S
C1214 C1213 1.392 . S
C1214 C1215 1.398 . S
C1214 H1237 0.929 . S
C1215 C1214 1.398 . S
C1215 C1216 1.352 . S
C1216 C1215 1.352 . S
C1216 C1217 1.384 . S
C1216 H1238 0.930 . S
C1217 C1212 1.407 . S
C1217 C1216 1.384 . S
C1217 H1239 0.929 . S
C1218 O1228 1.241 . S
C1218 O1229 1.273 . S
C1219 O1230 1.251 . S
C1219 O1231 1.268 . S
O1220 Nd1200 2.500 . S
O1220 C1202 1.258 . S
O1221 Nd1200 2.492 . S
O1221 C1202 1.239 . S
O1222 Nd1200 2.487 . S
O1222 C1209 1.241 . S
O1223 Nd1200 2.682 . S
O1223 Nd1201 2.414 . S
O1223 C1209 1.273 . S
O1224 Nd1200 2.410 . S
O1224 C1210 1.251 . S
O1225 Nd1201 2.424 . S
O1225 C1210 1.268 . S
O1226 Nd1201 2.500 . S
O1226 C1211 1.258 . S
O1227 Nd1201 2.492 . S
O1227 C1211 1.239 . S
O1228 Nd1201 2.487 . S
O1228 C1218 1.241 . S
O1229 Nd1200 2.414 . S
O1229 Nd1201 2.682 . S
O1229 C1218 1.273 . S
O1230 Nd1201 2.410 . S
O1230 C1219 1.251 . S
O1231 Nd1200 2.424 . S
O1231 C1219 1.268 . S
H1232 C1204 0.930 . S
H1233 C1205 0.929 . S
H1234 C1207 0.930 . S
H1235 C1208 0.929 . S
H1236 C1213 0.930 . S
H1237 C1214 0.929 . S
H1238 C1216 0.930 . S
H1239 C1217 0.929 . S
Nd1240 C1242 2.836 . S
Nd1240 O1260 2.500 . S
Nd1240 O1261 2.492 . S
Nd1240 O1262 2.487 . S
Nd1240 O1263 2.682 1_565 S
Nd1240 O1264 2.410 . S
Nd1240 O1269 2.414 . S
Nd1240 O1271 2.424 . S
Nd1241 C1251 2.836 . S
Nd1241 O1263 2.414 . S
Nd1241 O1265 2.424 . S
Nd1241 O1266 2.500 . S
Nd1241 O1267 2.492 . S
Nd1241 O1268 2.487 . S
Nd1241 O1269 2.682 1_545 S
Nd1241 O1270 2.410 . S
C1242 Nd1240 2.836 . S
C1242 C1243 1.498 . S
C1242 O1260 1.258 . S
C1242 O1261 1.239 . S
C1243 C1242 1.498 . S
C1243 C1244 1.366 . S
C1243 C1248 1.407 . S
C1244 C1243 1.366 . S
C1244 C1245 1.392 . S
C1244 H1272 0.930 . S
C1245 C1244 1.392 . S
C1245 C1246 1.398 . S
C1245 H1273 0.929 . S
C1246 C1245 1.398 . S
C1246 C1247 1.352 . S
C1247 C1246 1.352 . S
C1247 C1248 1.384 . S
C1247 H1274 0.930 . S
C1248 C1243 1.407 . S
C1248 C1247 1.384 . S
C1248 H1275 0.929 . S
C1249 O1262 1.241 . S
C1249 O1263 1.273 1_565 S
C1250 O1264 1.251 . S
C1250 O1265 1.268 1_565 S
C1251 Nd1241 2.836 . S
C1251 C1252 1.498 . S
C1251 O1266 1.258 . S
C1251 O1267 1.239 . S
C1252 C1251 1.498 . S
C1252 C1253 1.366 . S
C1252 C1257 1.407 . S
C1253 C1252 1.366 . S
C1253 C1254 1.392 . S
C1253 H1276 0.930 . S
C1254 C1253 1.392 . S
C1254 C1255 1.398 . S
C1254 H1277 0.929 . S
C1255 C1254 1.398 . S
C1255 C1256 1.352 . S
C1256 C1255 1.352 . S
C1256 C1257 1.384 . S
C1256 H1278 0.930 . S
C1257 C1252 1.407 . S
C1257 C1256 1.384 . S
C1257 H1279 0.929 . S
C1258 O1268 1.241 . S
C1258 O1269 1.273 1_545 S
C1259 O1270 1.251 . S
C1259 O1271 1.268 1_545 S
O1260 Nd1240 2.500 . S
O1260 C1242 1.258 . S
O1261 Nd1240 2.492 . S
O1261 C1242 1.239 . S
O1262 Nd1240 2.487 . S
O1262 C1249 1.241 . S
O1263 Nd1240 2.682 1_545 S
O1263 Nd1241 2.414 . S
O1263 C1249 1.273 1_545 S
O1264 Nd1240 2.410 . S
O1264 C1250 1.251 . S
O1265 Nd1241 2.424 . S
O1265 C1250 1.268 1_545 S
O1266 Nd1241 2.500 . S
O1266 C1251 1.258 . S
O1267 Nd1241 2.492 . S
O1267 C1251 1.239 . S
O1268 Nd1241 2.487 . S
O1268 C1258 1.241 . S
O1269 Nd1240 2.414 . S
O1269 Nd1241 2.682 1_565 S
O1269 C1258 1.273 1_565 S
O1270 Nd1241 2.410 . S
O1270 C1259 1.251 . S
O1271 Nd1240 2.424 . S
O1271 C1259 1.268 1_565 S
H1272 C1244 0.930 . S
H1273 C1245 0.929 . S
H1274 C1247 0.930 . S
H1275 C1248 0.929 . S
H1276 C1253 0.930 . S
H1277 C1254 0.929 . S
H1278 C1256 0.930 . S
H1279 C1257 0.929 . S
H1280 C1286 0.930 . S
H1281 C1290 0.930 . S
H1282 C1295 0.929 . S
H1283 C1293 0.929 . S
H1284 C1288 0.929 . S
H1285 C1294 0.929 . S
C1286 H1280 0.930 . S
C1286 C1287 1.367 . S
C1286 C1294 1.378 . S
C1287 C1286 1.367 . S
C1287 C1295 1.433 . S
C1288 H1284 0.929 . S
C1288 C1290 1.378 . S
C1288 C1292 1.350 . S
C1289 C1292 1.463 . S
C1289 C1294 1.350 . S
C1289 N1297 1.427 . S
C1290 H1281 0.930 . S
C1290 C1288 1.378 . S
C1290 C1291 1.367 . S
C1291 C1290 1.367 . S
C1291 C1293 1.433 . S
C1292 C1288 1.350 . S
C1292 C1289 1.463 . S
C1292 N1296 1.427 . S
C1293 H1283 0.929 . S
C1293 C1291 1.433 . S
C1293 N1296 1.384 . S
C1294 H1285 0.929 . S
C1294 C1286 1.378 . S
C1294 C1289 1.350 . S
C1295 H1282 0.929 . S
C1295 C1287 1.433 . S
C1295 N1297 1.384 . S
N1296 C1292 1.427 . S
N1296 C1293 1.384 . S
N1297 C1289 1.427 . S
N1297 C1295 1.384 . S
H1298 C1304 0.930 . S
H1299 C1308 0.930 . S
H1300 C1313 0.929 . S
H1301 C1311 0.929 . S
H1302 C1306 0.929 . S
H1303 C1312 0.929 . S
C1304 H1298 0.930 . S
C1304 C1305 1.367 . S
C1304 C1312 1.378 . S
C1305 C1304 1.367 . S
C1305 C1313 1.433 . S
C1306 H1302 0.929 . S
C1306 C1308 1.378 . S
C1306 C1310 1.350 . S
C1307 C1310 1.463 . S
C1307 C1312 1.350 . S
C1307 N1315 1.427 . S
C1308 H1299 0.930 . S
C1308 C1306 1.378 . S
C1308 C1309 1.367 . S
C1309 C1308 1.367 . S
C1309 C1311 1.433 . S
C1310 C1306 1.350 . S
C1310 C1307 1.463 . S
C1310 N1314 1.427 . S
C1311 H1301 0.929 . S
C1311 C1309 1.433 . S
C1311 N1314 1.384 . S
C1312 H1303 0.929 . S
C1312 C1304 1.378 . S
C1312 C1307 1.350 . S
C1313 H1300 0.929 . S
C1313 C1305 1.433 . S
C1313 N1315 1.384 . S
N1314 C1310 1.427 . S
N1314 C1311 1.384 . S
N1315 C1307 1.427 . S
N1315 C1313 1.384 . S
H1316 C1322 0.930 1_455 S
H1317 C1326 0.930 . S
H1318 C1331 0.929 . S
H1319 C1329 0.929 . S
H1320 C1324 0.929 . S
H1321 C1330 0.929 1_455 S
C1322 H1316 0.930 1_655 S
C1322 C1323 1.367 . S
C1322 C1330 1.378 . S
C1323 C1322 1.367 . S
C1323 C1331 1.433 . S
C1324 H1320 0.929 . S
C1324 C1326 1.378 . S
C1324 C1328 1.350 . S
C1325 C1328 1.463 . S
C1325 C1330 1.350 . S
C1325 N1333 1.427 . S
C1326 H1317 0.930 . S
C1326 C1324 1.378 . S
C1326 C1327 1.367 . S
C1327 C1326 1.367 . S
C1327 C1329 1.433 . S
C1328 C1324 1.350 . S
C1328 C1325 1.463 . S
C1328 N1332 1.427 . S
C1329 H1319 0.929 . S
C1329 C1327 1.433 . S
C1329 N1332 1.384 . S
C1330 H1321 0.929 1_655 S
C1330 C1322 1.378 . S
C1330 C1325 1.350 . S
C1331 H1318 0.929 . S
C1331 C1323 1.433 . S
C1331 N1333 1.384 . S
N1332 C1328 1.427 . S
N1332 C1329 1.384 . S
N1333 C1325 1.427 . S
N1333 C1331 1.384 . S
H1334 C1340 0.930 . S
H1335 C1344 0.930 . S
H1336 C1349 0.929 . S
H1337 C1347 0.929 . S
H1338 C1342 0.929 . S
H1339 C1348 0.929 . S
C1340 H1334 0.930 . S
C1340 C1341 1.367 . S
C1340 C1348 1.378 . S
C1341 C1340 1.367 . S
C1341 C1349 1.433 . S
C1342 H1338 0.929 . S
C1342 C1344 1.378 . S
C1342 C1346 1.350 . S
C1343 C1346 1.463 . S
C1343 C1348 1.350 . S
C1343 N1351 1.427 . S
C1344 H1335 0.930 . S
C1344 C1342 1.378 . S
C1344 C1345 1.367 . S
C1345 C1344 1.367 . S
C1345 C1347 1.433 . S
C1346 C1342 1.350 . S
C1346 C1343 1.463 . S
C1346 N1350 1.427 . S
C1347 H1337 0.929 . S
C1347 C1345 1.433 . S
C1347 N1350 1.384 . S
C1348 H1339 0.929 . S
C1348 C1340 1.378 . S
C1348 C1343 1.350 . S
C1349 H1336 0.929 . S
C1349 C1341 1.433 . S
C1349 N1351 1.384 . S
N1350 C1346 1.427 . S
N1350 C1347 1.384 . S
N1351 C1343 1.427 . S
N1351 C1349 1.384 . S
H1352 C1358 0.930 . S
H1353 C1362 0.930 . S
H1354 C1367 0.929 . S
H1355 C1365 0.929 1_655 S
H1356 C1360 0.929 . S
H1357 C1366 0.929 . S
C1358 H1352 0.930 . S
C1358 C1359 1.367 . S
C1358 C1366 1.378 . S
C1359 C1358 1.367 . S
C1359 C1367 1.433 . S
C1360 H1356 0.929 . S
C1360 C1362 1.378 . S
C1360 C1364 1.350 . S
C1361 C1364 1.463 . S
C1361 C1366 1.350 . S
C1361 N1369 1.427 . S
C1362 H1353 0.930 . S
C1362 C1360 1.378 . S
C1362 C1363 1.367 . S
C1363 C1362 1.367 . S
C1363 C1365 1.433 . S
C1364 C1360 1.350 . S
C1364 C1361 1.463 . S
C1364 N1368 1.427 . S
C1365 H1355 0.929 1_455 S
C1365 C1363 1.433 . S
C1365 N1368 1.384 . S
C1366 H1357 0.929 . S
C1366 C1358 1.378 . S
C1366 C1361 1.350 . S
C1367 H1354 0.929 . S
C1367 C1359 1.433 . S
C1367 N1369 1.384 . S
N1368 C1364 1.427 . S
N1368 C1365 1.384 . S
N1369 C1361 1.427 . S
N1369 C1367 1.384 . S
H1370 C1376 0.930 . S
H1371 C1380 0.930 . S
H1372 C1385 0.929 . S
H1373 C1383 0.929 . S
H1374 C1378 0.929 . S
H1375 C1384 0.929 . S
C1376 H1370 0.930 . S
C1376 C1377 1.367 . S
C1376 C1384 1.378 . S
C1377 C1376 1.367 . S
C1377 C1385 1.433 . S
C1378 H1374 0.929 . S
C1378 C1380 1.378 . S
C1378 C1382 1.350 . S
C1379 C1382 1.463 . S
C1379 C1384 1.350 . S
C1379 N1387 1.427 . S
C1380 H1371 0.930 . S
C1380 C1378 1.378 . S
C1380 C1381 1.367 . S
C1381 C1380 1.367 . S
C1381 C1383 1.433 . S
C1382 C1378 1.350 . S
C1382 C1379 1.463 . S
C1382 N1386 1.427 . S
C1383 H1373 0.929 . S
C1383 C1381 1.433 . S
C1383 N1386 1.384 . S
C1384 H1375 0.929 . S
C1384 C1376 1.378 . S
C1384 C1379 1.350 . S
C1385 H1372 0.929 . S
C1385 C1377 1.433 . S
C1385 N1387 1.384 . S
N1386 C1382 1.427 . S
N1386 C1383 1.384 . S
N1387 C1379 1.427 . S
N1387 C1385 1.384 . S
H1388 C1394 0.930 . S
H1389 C1398 0.930 1_655 S
H1390 C1403 0.929 . S
H1391 C1401 0.929 . S
H1392 C1396 0.929 . S
H1393 C1402 0.929 . S
C1394 H1388 0.930 . S
C1394 C1395 1.367 . S
C1394 C1402 1.378 . S
C1395 C1394 1.367 . S
C1395 C1403 1.433 . S
C1396 H1392 0.929 . S
C1396 C1398 1.378 . S
C1396 C1400 1.350 . S
C1397 C1400 1.463 . S
C1397 C1402 1.350 . S
C1397 N1405 1.427 . S
C1398 H1389 0.930 1_455 S
C1398 C1396 1.378 . S
C1398 C1399 1.367 . S
C1399 C1398 1.367 . S
C1399 C1401 1.433 . S
C1400 C1396 1.350 . S
C1400 C1397 1.463 . S
C1400 N1404 1.427 . S
C1401 H1391 0.929 . S
C1401 C1399 1.433 . S
C1401 N1404 1.384 . S
C1402 H1393 0.929 . S
C1402 C1394 1.378 . S
C1402 C1397 1.350 . S
C1403 H1390 0.929 . S
C1403 C1395 1.433 . S
C1403 N1405 1.384 . S
N1404 C1400 1.427 . S
N1404 C1401 1.384 . S
N1405 C1397 1.427 . S
N1405 C1403 1.384 . S
H1406 C1412 0.930 . S
H1407 C1416 0.930 . S
H1408 C1421 0.929 . S
H1409 C1419 0.929 . S
H1410 C1414 0.929 . S
H1411 C1420 0.929 . S
C1412 H1406 0.930 . S
C1412 C1413 1.367 . S
C1412 C1420 1.378 . S
C1413 C1412 1.367 . S
C1413 C1421 1.433 . S
C1414 H1410 0.929 . S
C1414 C1416 1.378 . S
C1414 C1418 1.350 . S
C1415 C1418 1.463 . S
C1415 C1420 1.350 . S
C1415 N1423 1.427 . S
C1416 H1407 0.930 . S
C1416 C1414 1.378 . S
C1416 C1417 1.367 . S
C1417 C1416 1.367 . S
C1417 C1419 1.433 . S
C1418 C1414 1.350 . S
C1418 C1415 1.463 . S
C1418 N1422 1.427 . S
C1419 H1409 0.929 . S
C1419 C1417 1.433 . S
C1419 N1422 1.384 . S
C1420 H1411 0.929 . S
C1420 C1412 1.378 . S
C1420 C1415 1.350 . S
C1421 H1408 0.929 . S
C1421 C1413 1.433 . S
C1421 N1423 1.384 . S
N1422 C1418 1.427 . S
N1422 C1419 1.384 . S
N1423 C1415 1.427 . S
N1423 C1421 1.384 . S
H1424 C1430 0.930 . S
H1425 C1434 0.930 . S
H1426 C1439 0.929 . S
H1427 C1437 0.929 . S
H1428 C1432 0.929 . S
H1429 C1438 0.929 . S
C1430 H1424 0.930 . S
C1430 C1431 1.367 . S
C1430 C1438 1.378 . S
C1431 C1430 1.367 . S
C1431 C1439 1.433 . S
C1432 H1428 0.929 . S
C1432 C1434 1.378 . S
C1432 C1436 1.350 . S
C1433 C1436 1.463 . S
C1433 C1438 1.350 . S
C1433 N1441 1.427 . S
C1434 H1425 0.930 . S
C1434 C1432 1.378 . S
C1434 C1435 1.367 . S
C1435 C1434 1.367 . S
C1435 C1437 1.433 . S
C1436 C1432 1.350 . S
C1436 C1433 1.463 . S
C1436 N1440 1.427 . S
C1437 H1427 0.929 . S
C1437 C1435 1.433 . S
C1437 N1440 1.384 . S
C1438 H1429 0.929 . S
C1438 C1430 1.378 . S
C1438 C1433 1.350 . S
C1439 H1426 0.929 . S
C1439 C1431 1.433 . S
C1439 N1441 1.384 . S
N1440 C1436 1.427 . S
N1440 C1437 1.384 . S
N1441 C1433 1.427 . S
N1441 C1439 1.384 . S
H1442 C1448 0.930 . S
H1443 C1452 0.930 . S
H1444 C1457 0.929 . S
H1445 C1455 0.929 . S
H1446 C1450 0.929 . S
H1447 C1456 0.929 . S
C1448 H1442 0.930 . S
C1448 C1449 1.367 . S
C1448 C1456 1.378 . S
C1449 C1448 1.367 . S
C1449 C1457 1.433 . S
C1450 H1446 0.929 . S
C1450 C1452 1.378 . S
C1450 C1454 1.350 . S
C1451 C1454 1.463 . S
C1451 C1456 1.350 . S
C1451 N1459 1.427 . S
C1452 H1443 0.930 . S
C1452 C1450 1.378 . S
C1452 C1453 1.367 . S
C1453 C1452 1.367 . S
C1453 C1455 1.433 . S
C1454 C1450 1.350 . S
C1454 C1451 1.463 . S
C1454 N1458 1.427 . S
C1455 H1445 0.929 . S
C1455 C1453 1.433 . S
C1455 N1458 1.384 . S
C1456 H1447 0.929 . S
C1456 C1448 1.378 . S
C1456 C1451 1.350 . S
C1457 H1444 0.929 . S
C1457 C1449 1.433 . S
C1457 N1459 1.384 . S
N1458 C1454 1.427 . S
N1458 C1455 1.384 . S
N1459 C1451 1.427 . S
N1459 C1457 1.384 . S
H1460 C1466 0.930 . S
H1461 C1470 0.930 . S
H1462 C1475 0.929 . S
H1463 C1473 0.929 . S
H1464 C1468 0.929 . S
H1465 C1474 0.929 . S
C1466 H1460 0.930 . S
C1466 C1467 1.367 . S
C1466 C1474 1.378 . S
C1467 C1466 1.367 . S
C1467 C1475 1.433 . S
C1468 H1464 0.929 . S
C1468 C1470 1.378 . S
C1468 C1472 1.350 . S
C1469 C1472 1.463 . S
C1469 C1474 1.350 . S
C1469 N1477 1.427 . S
C1470 H1461 0.930 . S
C1470 C1468 1.378 . S
C1470 C1471 1.367 . S
C1471 C1470 1.367 . S
C1471 C1473 1.433 . S
C1472 C1468 1.350 . S
C1472 C1469 1.463 . S
C1472 N1476 1.427 . S
C1473 H1463 0.929 . S
C1473 C1471 1.433 . S
C1473 N1476 1.384 . S
C1474 H1465 0.929 . S
C1474 C1466 1.378 . S
C1474 C1469 1.350 . S
C1475 H1462 0.929 . S
C1475 C1467 1.433 . S
C1475 N1477 1.384 . S
N1476 C1472 1.427 . S
N1476 C1473 1.384 . S
N1477 C1469 1.427 . S
N1477 C1475 1.384 . S
H1478 C1484 0.930 . S
H1479 C1488 0.930 . S
H1480 C1493 0.929 . S
H1481 C1491 0.929 . S
H1482 C1486 0.929 . S
H1483 C1492 0.929 . S
C1484 H1478 0.930 . S
C1484 C1485 1.367 . S
C1484 C1492 1.378 . S
C1485 C1484 1.367 . S
C1485 C1493 1.433 . S
C1486 H1482 0.929 . S
C1486 C1488 1.378 . S
C1486 C1490 1.350 . S
C1487 C1490 1.463 . S
C1487 C1492 1.350 . S
C1487 N1495 1.427 . S
C1488 H1479 0.930 . S
C1488 C1486 1.378 . S
C1488 C1489 1.367 . S
C1489 C1488 1.367 . S
C1489 C1491 1.433 . S
C1490 C1486 1.350 . S
C1490 C1487 1.463 . S
C1490 N1494 1.427 . S
C1491 H1481 0.929 . S
C1491 C1489 1.433 . S
C1491 N1494 1.384 . S
C1492 H1483 0.929 . S
C1492 C1484 1.378 . S
C1492 C1487 1.350 . S
C1493 H1480 0.929 . S
C1493 C1485 1.433 . S
C1493 N1495 1.384 . S
N1494 C1490 1.427 . S
N1494 C1491 1.384 . S
N1495 C1487 1.427 . S
N1495 C1493 1.384 . S
H1496 C1502 0.930 . S
H1497 C1506 0.930 . S
H1498 C1511 0.929 . S
H1499 C1509 0.929 . S
H1500 C1504 0.929 . S
H1501 C1510 0.929 . S
C1502 H1496 0.930 . S
C1502 C1503 1.367 . S
C1502 C1510 1.378 . S
C1503 C1502 1.367 . S
C1503 C1511 1.433 . S
C1504 H1500 0.929 . S
C1504 C1506 1.378 . S
C1504 C1508 1.350 . S
C1505 C1508 1.463 . S
C1505 C1510 1.350 . S
C1505 N1513 1.427 . S
C1506 H1497 0.930 . S
C1506 C1504 1.378 . S
C1506 C1507 1.367 . S
C1507 C1506 1.367 . S
C1507 C1509 1.433 . S
C1508 C1504 1.350 . S
C1508 C1505 1.463 . S
C1508 N1512 1.427 . S
C1509 H1499 0.929 . S
C1509 C1507 1.433 . S
C1509 N1512 1.384 . S
C1510 H1501 0.929 . S
C1510 C1502 1.378 . S
C1510 C1505 1.350 . S
C1511 H1498 0.929 . S
C1511 C1503 1.433 . S
C1511 N1513 1.384 . S
N1512 C1508 1.427 . S
N1512 C1509 1.384 . S
N1513 C1505 1.427 . S
N1513 C1511 1.384 . S
H1514 C1520 0.930 . S
H1515 C1524 0.930 . S
H1516 C1529 0.929 . S
H1517 C1527 0.929 . S
H1518 C1522 0.929 . S
H1519 C1528 0.929 . S
C1520 H1514 0.930 . S
C1520 C1521 1.367 . S
C1520 C1528 1.378 . S
C1521 C1520 1.367 . S
C1521 C1529 1.433 . S
C1522 H1518 0.929 . S
C1522 C1524 1.378 . S
C1522 C1526 1.350 . S
C1523 C1526 1.463 . S
C1523 C1528 1.350 . S
C1523 N1531 1.427 . S
C1524 H1515 0.930 . S
C1524 C1522 1.378 . S
C1524 C1525 1.367 . S
C1525 C1524 1.367 . S
C1525 C1527 1.433 . S
C1526 C1522 1.350 . S
C1526 C1523 1.463 . S
C1526 N1530 1.427 . S
C1527 H1517 0.929 . S
C1527 C1525 1.433 . S
C1527 N1530 1.384 . S
C1528 H1519 0.929 . S
C1528 C1520 1.378 . S
C1528 C1523 1.350 . S
C1529 H1516 0.929 . S
C1529 C1521 1.433 . S
C1529 N1531 1.384 . S
N1530 C1526 1.427 . S
N1530 C1527 1.384 . S
N1531 C1523 1.427 . S
N1531 C1529 1.384 . S
H1532 C1538 0.930 1_655 S
H1533 C1542 0.930 . S
H1534 C1547 0.929 . S
H1535 C1545 0.929 . S
H1536 C1540 0.929 . S
H1537 C1546 0.929 1_655 S
C1538 H1532 0.930 1_455 S
C1538 C1539 1.367 . S
C1538 C1546 1.378 . S
C1539 C1538 1.367 . S
C1539 C1547 1.433 . S
C1540 H1536 0.929 . S
C1540 C1542 1.378 . S
C1540 C1544 1.350 . S
C1541 C1544 1.463 . S
C1541 C1546 1.350 . S
C1541 N1549 1.427 . S
C1542 H1533 0.930 . S
C1542 C1540 1.378 . S
C1542 C1543 1.367 . S
C1543 C1542 1.367 . S
C1543 C1545 1.433 . S
C1544 C1540 1.350 . S
C1544 C1541 1.463 . S
C1544 N1548 1.427 . S
C1545 H1535 0.929 . S
C1545 C1543 1.433 . S
C1545 N1548 1.384 . S
C1546 H1537 0.929 1_455 S
C1546 C1538 1.378 . S
C1546 C1541 1.350 . S
C1547 H1534 0.929 . S
C1547 C1539 1.433 . S
C1547 N1549 1.384 . S
N1548 C1544 1.427 . S
N1548 C1545 1.384 . S
N1549 C1541 1.427 . S
N1549 C1547 1.384 . S
H1550 C1556 0.930 . S
H1551 C1560 0.930 . S
H1552 C1565 0.929 . S
H1553 C1563 0.929 . S
H1554 C1558 0.929 . S
H1555 C1564 0.929 . S
C1556 H1550 0.930 . S
C1556 C1557 1.367 . S
C1556 C1564 1.378 . S
C1557 C1556 1.367 . S
C1557 C1565 1.433 . S
C1558 H1554 0.929 . S
C1558 C1560 1.378 . S
C1558 C1562 1.350 . S
C1559 C1562 1.463 . S
C1559 C1564 1.350 . S
C1559 N1567 1.427 . S
C1560 H1551 0.930 . S
C1560 C1558 1.378 . S
C1560 C1561 1.367 . S
C1561 C1560 1.367 . S
C1561 C1563 1.433 . S
C1562 C1558 1.350 . S
C1562 C1559 1.463 . S
C1562 N1566 1.427 . S
C1563 H1553 0.929 . S
C1563 C1561 1.433 . S
C1563 N1566 1.384 . S
C1564 H1555 0.929 . S
C1564 C1556 1.378 . S
C1564 C1559 1.350 . S
C1565 H1552 0.929 . S
C1565 C1557 1.433 . S
C1565 N1567 1.384 . S
N1566 C1562 1.427 . S
N1566 C1563 1.384 . S
N1567 C1559 1.427 . S
N1567 C1565 1.384 . S
H1568 C1574 0.930 1_655 S
H1569 C1578 0.930 . S
H1570 C1583 0.929 . S
H1571 C1581 0.929 . S
H1572 C1576 0.929 . S
H1573 C1582 0.929 . S
C1574 H1568 0.930 1_455 S
C1574 C1575 1.367 . S
C1574 C1582 1.378 . S
C1575 C1574 1.367 . S
C1575 C1583 1.433 . S
C1576 H1572 0.929 . S
C1576 C1578 1.378 . S
C1576 C1580 1.350 . S
C1577 C1580 1.463 . S
C1577 C1582 1.350 . S
C1577 N1585 1.427 . S
C1578 H1569 0.930 . S
C1578 C1576 1.378 . S
C1578 C1579 1.367 . S
C1579 C1578 1.367 . S
C1579 C1581 1.433 . S
C1580 C1576 1.350 . S
C1580 C1577 1.463 . S
C1580 N1584 1.427 . S
C1581 H1571 0.929 . S
C1581 C1579 1.433 . S
C1581 N1584 1.384 . S
C1582 H1573 0.929 . S
C1582 C1574 1.378 . S
C1582 C1577 1.350 . S
C1583 H1570 0.929 . S
C1583 C1575 1.433 . S
C1583 N1585 1.384 . S
N1584 C1580 1.427 . S
N1584 C1581 1.384 . S
N1585 C1577 1.427 . S
N1585 C1583 1.384 . S
H1586 C1592 0.930 . S
H1587 C1596 0.930 . S
H1588 C1601 0.929 . S
H1589 C1599 0.929 1_655 S
H1590 C1594 0.929 . S
H1591 C1600 0.929 . S
C1592 H1586 0.930 . S
C1592 C1593 1.367 . S
C1592 C1600 1.378 . S
C1593 C1592 1.367 . S
C1593 C1601 1.433 . S
C1594 H1590 0.929 . S
C1594 C1596 1.378 . S
C1594 C1598 1.350 . S
C1595 C1598 1.463 . S
C1595 C1600 1.350 . S
C1595 N1603 1.427 . S
C1596 H1587 0.930 . S
C1596 C1594 1.378 . S
C1596 C1597 1.367 . S
C1597 C1596 1.367 . S
C1597 C1599 1.433 . S
C1598 C1594 1.350 . S
C1598 C1595 1.463 . S
C1598 N1602 1.427 . S
C1599 H1589 0.929 1_455 S
C1599 C1597 1.433 . S
C1599 N1602 1.384 . S
C1600 H1591 0.929 . S
C1600 C1592 1.378 . S
C1600 C1595 1.350 . S
C1601 H1588 0.929 . S
C1601 C1593 1.433 . S
C1601 N1603 1.384 . S
N1602 C1598 1.427 . S
N1602 C1599 1.384 . S
N1603 C1595 1.427 . S
N1603 C1601 1.384 . S
H1604 C1610 0.930 . S
H1605 C1614 0.930 . S
H1606 C1619 0.929 . S
H1607 C1617 0.929 . S
H1608 C1612 0.929 . S
H1609 C1618 0.929 . S
C1610 H1604 0.930 . S
C1610 C1611 1.367 . S
C1610 C1618 1.378 . S
C1611 C1610 1.367 . S
C1611 C1619 1.433 . S
C1612 H1608 0.929 . S
C1612 C1614 1.378 . S
C1612 C1616 1.350 . S
C1613 C1616 1.463 . S
C1613 C1618 1.350 . S
C1613 N1621 1.427 . S
C1614 H1605 0.930 . S
C1614 C1612 1.378 . S
C1614 C1615 1.367 . S
C1615 C1614 1.367 . S
C1615 C1617 1.433 . S
C1616 C1612 1.350 . S
C1616 C1613 1.463 . S
C1616 N1620 1.427 . S
C1617 H1607 0.929 . S
C1617 C1615 1.433 . S
C1617 N1620 1.384 . S
C1618 H1609 0.929 . S
C1618 C1610 1.378 . S
C1618 C1613 1.350 . S
C1619 H1606 0.929 . S
C1619 C1611 1.433 . S
C1619 N1621 1.384 . S
N1620 C1616 1.427 . S
N1620 C1617 1.384 . S
N1621 C1613 1.427 . S
N1621 C1619 1.384 . S
H1622 C1628 0.930 . S
H1623 C1632 0.930 . S
H1624 C1637 0.929 1_455 S
H1625 C1635 0.929 . S
H1626 C1630 0.929 . S
H1627 C1636 0.929 . S
C1628 H1622 0.930 . S
C1628 C1629 1.367 . S
C1628 C1636 1.378 . S
C1629 C1628 1.367 . S
C1629 C1637 1.433 . S
C1630 H1626 0.929 . S
C1630 C1632 1.378 . S
C1630 C1634 1.350 . S
C1631 C1634 1.463 . S
C1631 C1636 1.350 . S
C1631 N1639 1.427 . S
C1632 H1623 0.930 . S
C1632 C1630 1.378 . S
C1632 C1633 1.367 . S
C1633 C1632 1.367 . S
C1633 C1635 1.433 . S
C1634 C1630 1.350 . S
C1634 C1631 1.463 . S
C1634 N1638 1.427 . S
C1635 H1625 0.929 . S
C1635 C1633 1.433 . S
C1635 N1638 1.384 . S
C1636 H1627 0.929 . S
C1636 C1628 1.378 . S
C1636 C1631 1.350 . S
C1637 H1624 0.929 1_655 S
C1637 C1629 1.433 . S
C1637 N1639 1.384 . S
N1638 C1634 1.427 . S
N1638 C1635 1.384 . S
N1639 C1631 1.427 . S
N1639 C1637 1.384 . S
H1640 C1646 0.930 . S
H1641 C1650 0.930 . S
H1642 C1655 0.929 . S
H1643 C1653 0.929 . S
H1644 C1648 0.929 . S
H1645 C1654 0.929 . S
C1646 H1640 0.930 . S
C1646 C1647 1.429 . S
C1646 C1654 1.378 . S
C1647 C1646 1.429 . S
C1647 C1655 1.372 1_545 S
C1648 H1644 0.929 . S
C1648 C1650 1.378 . S
C1648 C1652 1.333 1_565 S
C1649 C1652 1.461 . S
C1649 C1654 1.421 . S
C1649 N1657 1.357 1_545 S
C1650 H1641 0.930 . S
C1650 C1648 1.378 . S
C1650 C1651 1.341 1_565 S
C1651 C1650 1.341 1_545 S
C1651 C1653 1.459 . S
C1652 C1648 1.333 1_545 S
C1652 C1649 1.461 . S
C1652 N1656 1.445 . S
C1653 H1643 0.929 . S
C1653 C1651 1.459 . S
C1653 N1656 1.384 . S
C1654 H1645 0.929 . S
C1654 C1646 1.378 . S
C1654 C1649 1.421 . S
C1655 H1642 0.929 . S
C1655 C1647 1.372 1_565 S
C1655 N1657 1.384 . S
N1656 C1652 1.445 . S
N1656 C1653 1.384 . S
N1657 C1649 1.357 1_565 S
N1657 C1655 1.384 . S
H1658 C1664 0.930 . S
H1659 C1668 0.930 1_655 S
H1660 C1673 0.929 . S
H1661 C1671 0.929 . S
H1662 C1666 0.929 . S
H1663 C1672 0.929 . S
C1664 H1658 0.930 . S
C1664 C1665 1.367 . S
C1664 C1672 1.378 . S
C1665 C1664 1.367 . S
C1665 C1673 1.433 . S
C1666 H1662 0.929 . S
C1666 C1668 1.378 . S
C1666 C1670 1.350 . S
C1667 C1670 1.463 . S
C1667 C1672 1.350 . S
C1667 N1675 1.427 . S
C1668 H1659 0.930 1_455 S
C1668 C1666 1.378 . S
C1668 C1669 1.367 . S
C1669 C1668 1.367 . S
C1669 C1671 1.433 . S
C1670 C1666 1.350 . S
C1670 C1667 1.463 . S
C1670 N1674 1.427 . S
C1671 H1661 0.929 . S
C1671 C1669 1.433 . S
C1671 N1674 1.384 . S
C1672 H1663 0.929 . S
C1672 C1664 1.378 . S
C1672 C1667 1.350 . S
C1673 H1660 0.929 . S
C1673 C1665 1.433 . S
C1673 N1675 1.384 . S
N1674 C1670 1.427 . S
N1674 C1671 1.384 . S
N1675 C1667 1.427 . S
N1675 C1673 1.384 . S
H1676 C1682 0.930 . S
H1677 C1686 0.930 . S
H1678 C1691 0.929 . S
H1679 C1689 0.929 . S
H1680 C1684 0.929 . S
H1681 C1690 0.929 . S
C1682 H1676 0.930 . S
C1682 C1683 1.430 . S
C1682 C1690 1.378 . S
C1683 C1682 1.430 . S
C1683 C1691 1.371 1_565 S
C1684 H1680 0.929 . S
C1684 C1686 1.378 . S
C1684 C1688 1.333 1_545 S
C1685 C1688 1.461 . S
C1685 C1690 1.422 . S
C1685 N1693 1.357 1_565 S
C1686 H1677 0.930 . S
C1686 C1684 1.378 . S
C1686 C1687 1.341 1_545 S
C1687 C1686 1.341 1_565 S
C1687 C1689 1.459 . S
C1688 C1684 1.333 1_565 S
C1688 C1685 1.461 . S
C1688 N1692 1.445 . S
C1689 H1679 0.929 . S
C1689 C1687 1.459 . S
C1689 N1692 1.384 . S
C1690 H1681 0.929 . S
C1690 C1682 1.378 . S
C1690 C1685 1.422 . S
C1691 H1678 0.929 . S
C1691 C1683 1.371 1_545 S
C1691 N1693 1.384 . S
N1692 C1688 1.445 . S
N1692 C1689 1.384 . S
N1693 C1685 1.357 1_545 S
N1693 C1691 1.384 . S
H1694 C1700 0.930 . S
H1695 C1704 0.930 . S
H1696 C1709 0.929 1_455 S
H1697 C1707 0.929 . S
H1698 C1702 0.929 . S
H1699 C1708 0.929 . S
C1700 H1694 0.930 . S
C1700 C1701 1.367 . S
C1700 C1708 1.378 . S
C1701 C1700 1.367 . S
C1701 C1709 1.433 . S
C1702 H1698 0.929 . S
C1702 C1704 1.378 . S
C1702 C1706 1.350 . S
C1703 C1706 1.463 . S
C1703 C1708 1.350 . S
C1703 N1711 1.427 . S
C1704 H1695 0.930 . S
C1704 C1702 1.378 . S
C1704 C1705 1.367 . S
C1705 C1704 1.367 . S
C1705 C1707 1.433 . S
C1706 C1702 1.350 . S
C1706 C1703 1.463 . S
C1706 N1710 1.427 . S
C1707 H1697 0.929 . S
C1707 C1705 1.433 . S
C1707 N1710 1.384 . S
C1708 H1699 0.929 . S
C1708 C1700 1.378 . S
C1708 C1703 1.350 . S
C1709 H1696 0.929 1_655 S
C1709 C1701 1.433 . S
C1709 N1711 1.384 . S
N1710 C1706 1.427 . S
N1710 C1707 1.384 . S
N1711 C1703 1.427 . S
N1711 C1709 1.384 . S
H1712 C1718 0.930 . S
H1713 C1722 0.930 . S
H1714 C1727 0.929 . S
H1715 C1725 0.929 . S
H1716 C1720 0.929 . S
H1717 C1726 0.929 . S
C1718 H1712 0.930 . S
C1718 C1719 1.367 . S
C1718 C1726 1.378 . S
C1719 C1718 1.367 . S
C1719 C1727 1.433 . S
C1720 H1716 0.929 . S
C1720 C1722 1.378 . S
C1720 C1724 1.350 . S
C1721 C1724 1.463 . S
C1721 C1726 1.350 . S
C1721 N1729 1.427 . S
C1722 H1713 0.930 . S
C1722 C1720 1.378 . S
C1722 C1723 1.367 . S
C1723 C1722 1.367 . S
C1723 C1725 1.433 . S
C1724 C1720 1.350 . S
C1724 C1721 1.463 . S
C1724 N1728 1.427 . S
C1725 H1715 0.929 . S
C1725 C1723 1.433 . S
C1725 N1728 1.384 . S
C1726 H1717 0.929 . S
C1726 C1718 1.378 . S
C1726 C1721 1.350 . S
C1727 H1714 0.929 . S
C1727 C1719 1.433 . S
C1727 N1729 1.384 . S
N1728 C1724 1.427 . S
N1728 C1725 1.384 . S
N1729 C1721 1.427 . S
N1729 C1727 1.384 . S
H1730 C1736 0.930 . S
H1731 C1740 0.930 . S
H1732 C1745 0.929 . S
H1733 C1743 0.929 . S
H1734 C1738 0.929 . S
H1735 C1744 0.929 . S
C1736 H1730 0.930 . S
C1736 C1737 1.367 . S
C1736 C1744 1.378 . S
C1737 C1736 1.367 . S
C1737 C1745 1.433 . S
C1738 H1734 0.929 . S
C1738 C1740 1.378 . S
C1738 C1742 1.350 . S
C1739 C1742 1.463 . S
C1739 C1744 1.350 . S
C1739 N1747 1.427 . S
C1740 H1731 0.930 . S
C1740 C1738 1.378 . S
C1740 C1741 1.367 . S
C1741 C1740 1.367 . S
C1741 C1743 1.433 . S
C1742 C1738 1.350 . S
C1742 C1739 1.463 . S
C1742 N1746 1.427 . S
C1743 H1733 0.929 . S
C1743 C1741 1.433 . S
C1743 N1746 1.384 . S
C1744 H1735 0.929 . S
C1744 C1736 1.378 . S
C1744 C1739 1.350 . S
C1745 H1732 0.929 . S
C1745 C1737 1.433 . S
C1745 N1747 1.384 . S
N1746 C1742 1.427 . S
N1746 C1743 1.384 . S
N1747 C1739 1.427 . S
N1747 C1745 1.384 . S
H1748 C1754 0.930 . S
H1749 C1758 0.930 . S
H1750 C1763 0.929 . S
H1751 C1761 0.929 . S
H1752 C1756 0.929 . S
H1753 C1762 0.929 . S
C1754 H1748 0.930 . S
C1754 C1755 1.367 . S
C1754 C1762 1.378 . S
C1755 C1754 1.367 . S
C1755 C1763 1.433 . S
C1756 H1752 0.929 . S
C1756 C1758 1.378 . S
C1756 C1760 1.350 . S
C1757 C1760 1.463 . S
C1757 C1762 1.350 . S
C1757 N1765 1.427 . S
C1758 H1749 0.930 . S
C1758 C1756 1.378 . S
C1758 C1759 1.367 . S
C1759 C1758 1.367 . S
C1759 C1761 1.433 . S
C1760 C1756 1.350 . S
C1760 C1757 1.463 . S
C1760 N1764 1.427 . S
C1761 H1751 0.929 . S
C1761 C1759 1.433 . S
C1761 N1764 1.384 . S
C1762 H1753 0.929 . S
C1762 C1754 1.378 . S
C1762 C1757 1.350 . S
C1763 H1750 0.929 . S
C1763 C1755 1.433 . S
C1763 N1765 1.384 . S
N1764 C1760 1.427 . S
N1764 C1761 1.384 . S
N1765 C1757 1.427 . S
N1765 C1763 1.384 . S
H1766 C1772 0.930 . S
H1767 C1776 0.930 . S
H1768 C1781 0.929 . S
H1769 C1779 0.929 . S
H1770 C1774 0.929 . S
H1771 C1780 0.929 . S
C1772 H1766 0.930 . S
C1772 C1773 1.367 . S
C1772 C1780 1.378 . S
C1773 C1772 1.367 . S
C1773 C1781 1.433 . S
C1774 H1770 0.929 . S
C1774 C1776 1.378 . S
C1774 C1778 1.350 . S
C1775 C1778 1.463 . S
C1775 C1780 1.350 . S
C1775 N1783 1.427 . S
C1776 H1767 0.930 . S
C1776 C1774 1.378 . S
C1776 C1777 1.367 . S
C1777 C1776 1.367 . S
C1777 C1779 1.433 . S
C1778 C1774 1.350 . S
C1778 C1775 1.463 . S
C1778 N1782 1.427 . S
C1779 H1769 0.929 . S
C1779 C1777 1.433 . S
C1779 N1782 1.384 . S
C1780 H1771 0.929 . S
C1780 C1772 1.378 . S
C1780 C1775 1.350 . S
C1781 H1768 0.929 . S
C1781 C1773 1.433 . S
C1781 N1783 1.384 . S
N1782 C1778 1.427 . S
N1782 C1779 1.384 . S
N1783 C1775 1.427 . S
N1783 C1781 1.384 . S
H1784 C1790 0.930 . S
H1785 C1794 0.930 . S
H1786 C1799 0.929 . S
H1787 C1797 0.929 . S
H1788 C1792 0.929 . S
H1789 C1798 0.929 . S
C1790 H1784 0.930 . S
C1790 C1791 1.419 . S
C1790 C1798 1.378 . S
C1791 C1790 1.419 . S
C1791 C1799 1.382 1_545 S
C1792 H1788 0.929 . S
C1792 C1794 1.378 . S
C1792 C1796 1.332 1_565 S
C1793 C1796 1.461 . S
C1793 C1798 1.409 . S
C1793 N1801 1.370 1_545 S
C1794 H1785 0.930 . S
C1794 C1792 1.378 . S
C1794 C1795 1.343 1_565 S
C1795 C1794 1.343 1_545 S
C1795 C1797 1.458 . S
C1796 C1792 1.332 1_545 S
C1796 C1793 1.461 . S
C1796 N1800 1.446 . S
C1797 H1787 0.929 . S
C1797 C1795 1.458 . S
C1797 N1800 1.384 . S
C1798 H1789 0.929 . S
C1798 C1790 1.378 . S
C1798 C1793 1.409 . S
C1799 H1786 0.929 . S
C1799 C1791 1.382 1_565 S
C1799 N1801 1.384 . S
N1800 C1796 1.446 . S
N1800 C1797 1.384 . S
N1801 C1793 1.370 1_565 S
N1801 C1799 1.384 . S
H1802 C1808 0.930 . S
H1803 C1812 0.930 . S
H1804 C1817 0.929 . S
H1805 C1815 0.929 . S
H1806 C1810 0.929 . S
H1807 C1816 0.929 . S
C1808 H1802 0.930 . S
C1808 C1809 1.367 . S
C1808 C1816 1.378 . S
C1809 C1808 1.367 . S
C1809 C1817 1.433 . S
C1810 H1806 0.929 . S
C1810 C1812 1.378 . S
C1810 C1814 1.350 . S
C1811 C1814 1.463 . S
C1811 C1816 1.350 . S
C1811 N1819 1.427 . S
C1812 H1803 0.930 . S
C1812 C1810 1.378 . S
C1812 C1813 1.367 . S
C1813 C1812 1.367 . S
C1813 C1815 1.433 . S
C1814 C1810 1.350 . S
C1814 C1811 1.463 . S
C1814 N1818 1.427 . S
C1815 H1805 0.929 . S
C1815 C1813 1.433 . S
C1815 N1818 1.384 . S
C1816 H1807 0.929 . S
C1816 C1808 1.378 . S
C1816 C1811 1.350 . S
C1817 H1804 0.929 . S
C1817 C1809 1.433 . S
C1817 N1819 1.384 . S
N1818 C1814 1.427 . S
N1818 C1815 1.384 . S
N1819 C1811 1.427 . S
N1819 C1817 1.384 . S
H1820 C1826 0.930 . S
H1821 C1830 0.930 . S
H1822 C1835 0.929 . S
H1823 C1833 0.929 . S
H1824 C1828 0.929 . S
H1825 C1834 0.929 . S
C1826 H1820 0.930 . S
C1826 C1827 1.341 1_545 S
C1826 C1834 1.378 . S
C1827 C1826 1.341 1_565 S
C1827 C1835 1.460 . S
C1828 H1824 0.929 . S
C1828 C1830 1.378 . S
C1828 C1832 1.350 . S
C1829 C1832 1.464 . S
C1829 C1834 1.334 1_565 S
C1829 N1837 1.443 . S
C1830 H1821 0.930 . S
C1830 C1828 1.378 . S
C1830 C1831 1.440 . S
C1831 C1830 1.440 . S
C1831 C1833 1.360 1_565 S
C1832 C1828 1.350 . S
C1832 C1829 1.464 . S
C1832 N1836 1.427 1_565 S
C1833 H1823 0.929 . S
C1833 C1831 1.360 1_545 S
C1833 N1836 1.384 . S
C1834 H1825 0.929 . S
C1834 C1826 1.378 . S
C1834 C1829 1.334 1_545 S
C1835 H1822 0.929 . S
C1835 C1827 1.460 . S
C1835 N1837 1.384 . S
N1836 C1832 1.427 1_545 S
N1836 C1833 1.384 . S
N1837 C1829 1.443 . S
N1837 C1835 1.384 . S
H1838 C1844 0.930 . S
H1839 C1848 0.930 . S
H1840 C1853 0.929 . S
H1841 C1851 0.929 . S
H1842 C1846 0.929 . S
H1843 C1852 0.929 . S
C1844 H1838 0.930 . S
C1844 C1845 1.367 . S
C1844 C1852 1.378 . S
C1845 C1844 1.367 . S
C1845 C1853 1.433 . S
C1846 H1842 0.929 . S
C1846 C1848 1.378 . S
C1846 C1850 1.350 . S
C1847 C1850 1.463 . S
C1847 C1852 1.350 . S
C1847 N1855 1.427 . S
C1848 H1839 0.930 . S
C1848 C1846 1.378 . S
C1848 C1849 1.367 . S
C1849 C1848 1.367 . S
C1849 C1851 1.433 . S
C1850 C1846 1.350 . S
C1850 C1847 1.463 . S
C1850 N1854 1.427 . S
C1851 H1841 0.929 . S
C1851 C1849 1.433 . S
C1851 N1854 1.384 . S
C1852 H1843 0.929 . S
C1852 C1844 1.378 . S
C1852 C1847 1.350 . S
C1853 H1840 0.929 . S
C1853 C1845 1.433 . S
C1853 N1855 1.384 . S
N1854 C1850 1.427 . S
N1854 C1851 1.384 . S
N1855 C1847 1.427 . S
N1855 C1853 1.384 . S
H1856 C1862 0.930 . S
H1857 C1866 0.930 . S
H1858 C1871 0.929 . S
H1859 C1869 0.929 . S
H1860 C1864 0.929 . S
H1861 C1870 0.929 . S
C1862 H1856 0.930 . S
C1862 C1863 1.367 . S
C1862 C1870 1.378 . S
C1863 C1862 1.367 . S
C1863 C1871 1.433 1_455 S
C1864 H1860 0.929 . S
C1864 C1866 1.378 . S
C1864 C1868 1.350 . S
C1865 C1868 1.463 . S
C1865 C1870 1.350 . S
C1865 N1873 1.427 . S
C1866 H1857 0.930 . S
C1866 C1864 1.378 . S
C1866 C1867 1.367 . S
C1867 C1866 1.367 . S
C1867 C1869 1.433 . S
C1868 C1864 1.350 . S
C1868 C1865 1.463 . S
C1868 N1872 1.427 . S
C1869 H1859 0.929 . S
C1869 C1867 1.433 . S
C1869 N1872 1.384 . S
C1870 H1861 0.929 . S
C1870 C1862 1.378 . S
C1870 C1865 1.350 . S
C1871 H1858 0.929 . S
C1871 C1863 1.433 1_655 S
C1871 N1873 1.384 1_655 S
N1872 C1868 1.427 . S
N1872 C1869 1.384 . S
N1873 C1865 1.427 . S
N1873 C1871 1.384 1_455 S
H1874 C1880 0.930 . S
H1875 C1884 0.930 . S
H1876 C1889 0.929 . S
H1877 C1887 0.929 . S
H1878 C1882 0.929 . S
H1879 C1888 0.929 . S
C1880 H1874 0.930 . S
C1880 C1881 1.367 . S
C1880 C1888 1.378 . S
C1881 C1880 1.367 . S
C1881 C1889 1.433 . S
C1882 H1878 0.929 . S
C1882 C1884 1.378 . S
C1882 C1886 1.350 . S
C1883 C1886 1.463 . S
C1883 C1888 1.350 . S
C1883 N1891 1.427 . S
C1884 H1875 0.930 . S
C1884 C1882 1.378 . S
C1884 C1885 1.367 . S
C1885 C1884 1.367 . S
C1885 C1887 1.433 . S
C1886 C1882 1.350 . S
C1886 C1883 1.463 . S
C1886 N1890 1.427 . S
C1887 H1877 0.929 . S
C1887 C1885 1.433 . S
C1887 N1890 1.384 . S
C1888 H1879 0.929 . S
C1888 C1880 1.378 . S
C1888 C1883 1.350 . S
C1889 H1876 0.929 . S
C1889 C1881 1.433 . S
C1889 N1891 1.384 . S
N1890 C1886 1.427 . S
N1890 C1887 1.384 . S
N1891 C1883 1.427 . S
N1891 C1889 1.384 . S
H1892 C1898 0.930 1_455 S
H1893 C1902 0.930 . S
H1894 C1907 0.929 . S
H1895 C1905 0.929 . S
H1896 C1900 0.929 . S
H1897 C1906 0.929 . S
C1898 H1892 0.930 1_655 S
C1898 C1899 1.367 . S
C1898 C1906 1.378 . S
C1899 C1898 1.367 . S
C1899 C1907 1.433 . S
C1900 H1896 0.929 . S
C1900 C1902 1.378 . S
C1900 C1904 1.350 . S
C1901 C1904 1.463 . S
C1901 C1906 1.350 . S
C1901 N1909 1.427 . S
C1902 H1893 0.930 . S
C1902 C1900 1.378 . S
C1902 C1903 1.367 . S
C1903 C1902 1.367 . S
C1903 C1905 1.433 . S
C1904 C1900 1.350 . S
C1904 C1901 1.463 . S
C1904 N1908 1.427 . S
C1905 H1895 0.929 . S
C1905 C1903 1.433 . S
C1905 N1908 1.384 . S
C1906 H1897 0.929 . S
C1906 C1898 1.378 . S
C1906 C1901 1.350 . S
C1907 H1894 0.929 . S
C1907 C1899 1.433 . S
C1907 N1909 1.384 . S
N1908 C1904 1.427 . S
N1908 C1905 1.384 . S
N1909 C1901 1.427 . S
N1909 C1907 1.384 . S
H1910 C1916 0.930 1_455 S
H1911 C1920 0.930 . S
H1912 C1925 0.929 . S
H1913 C1923 0.929 . S
H1914 C1918 0.929 . S
H1915 C1924 0.929 . S
C1916 H1910 0.930 1_655 S
C1916 C1917 1.367 . S
C1916 C1924 1.378 . S
C1917 C1916 1.367 . S
C1917 C1925 1.433 . S
C1918 H1914 0.929 . S
C1918 C1920 1.378 . S
C1918 C1922 1.350 . S
C1919 C1922 1.463 . S
C1919 C1924 1.350 . S
C1919 N1927 1.427 . S
C1920 H1911 0.930 . S
C1920 C1918 1.378 . S
C1920 C1921 1.367 . S
C1921 C1920 1.367 . S
C1921 C1923 1.433 . S
C1922 C1918 1.350 . S
C1922 C1919 1.463 . S
C1922 N1926 1.427 . S
C1923 H1913 0.929 . S
C1923 C1921 1.433 . S
C1923 N1926 1.384 . S
C1924 H1915 0.929 . S
C1924 C1916 1.378 . S
C1924 C1919 1.350 . S
C1925 H1912 0.929 . S
C1925 C1917 1.433 . S
C1925 N1927 1.384 . S
N1926 C1922 1.427 . S
N1926 C1923 1.384 . S
N1927 C1919 1.427 . S
N1927 C1925 1.384 . S
H1928 C1934 0.930 . S
H1929 C1938 0.930 . S
H1930 C1943 0.929 . S
H1931 C1941 0.929 . S
H1932 C1936 0.929 . S
H1933 C1942 0.929 . S
C1934 H1928 0.930 . S
C1934 C1935 1.367 . S
C1934 C1942 1.378 . S
C1935 C1934 1.367 . S
C1935 C1943 1.433 . S
C1936 H1932 0.929 . S
C1936 C1938 1.378 . S
C1936 C1940 1.350 . S
C1937 C1940 1.463 . S
C1937 C1942 1.350 . S
C1937 N1945 1.427 . S
C1938 H1929 0.930 . S
C1938 C1936 1.378 . S
C1938 C1939 1.367 . S
C1939 C1938 1.367 . S
C1939 C1941 1.433 1_455 S
C1940 C1936 1.350 . S
C1940 C1937 1.463 . S
C1940 N1944 1.427 . S
C1941 H1931 0.929 . S
C1941 C1939 1.433 1_655 S
C1941 N1944 1.384 1_655 S
C1942 H1933 0.929 . S
C1942 C1934 1.378 . S
C1942 C1937 1.350 . S
C1943 H1930 0.929 . S
C1943 C1935 1.433 . S
C1943 N1945 1.384 . S
N1944 C1940 1.427 . S
N1944 C1941 1.384 1_455 S
N1945 C1937 1.427 . S
N1945 C1943 1.384 . S
H1946 C1952 0.930 . S
H1947 C1956 0.930 . S
H1948 C1961 0.929 . S
H1949 C1959 0.929 . S
H1950 C1954 0.929 . S
H1951 C1960 0.929 . S
C1952 H1946 0.930 . S
C1952 C1953 1.367 . S
C1952 C1960 1.378 . S
C1953 C1952 1.367 . S
C1953 C1961 1.433 . S
C1954 H1950 0.929 . S
C1954 C1956 1.378 . S
C1954 C1958 1.350 . S
C1955 C1958 1.463 . S
C1955 C1960 1.350 . S
C1955 N1963 1.427 . S
C1956 H1947 0.930 . S
C1956 C1954 1.378 . S
C1956 C1957 1.367 . S
C1957 C1956 1.367 . S
C1957 C1959 1.433 . S
C1958 C1954 1.350 . S
C1958 C1955 1.463 . S
C1958 N1962 1.427 . S
C1959 H1949 0.929 . S
C1959 C1957 1.433 . S
C1959 N1962 1.384 . S
C1960 H1951 0.929 . S
C1960 C1952 1.378 . S
C1960 C1955 1.350 . S
C1961 H1948 0.929 . S
C1961 C1953 1.433 . S
C1961 N1963 1.384 . S
N1962 C1958 1.427 . S
N1962 C1959 1.384 . S
N1963 C1955 1.427 . S
N1963 C1961 1.384 . S
H1964 C1970 0.930 . S
H1965 C1974 0.930 . S
H1966 C1979 0.929 1_455 S
H1967 C1977 0.929 . S
H1968 C1972 0.929 . S
H1969 C1978 0.929 . S
C1970 H1964 0.930 . S
C1970 C1971 1.367 . S
C1970 C1978 1.378 . S
C1971 C1970 1.367 . S
C1971 C1979 1.433 . S
C1972 H1968 0.929 . S
C1972 C1974 1.378 . S
C1972 C1976 1.350 . S
C1973 C1976 1.463 . S
C1973 C1978 1.350 . S
C1973 N1981 1.427 . S
C1974 H1965 0.930 . S
C1974 C1972 1.378 . S
C1974 C1975 1.367 . S
C1975 C1974 1.367 . S
C1975 C1977 1.433 . S
C1976 C1972 1.350 . S
C1976 C1973 1.463 . S
C1976 N1980 1.427 . S
C1977 H1967 0.929 . S
C1977 C1975 1.433 . S
C1977 N1980 1.384 . S
C1978 H1969 0.929 . S
C1978 C1970 1.378 . S
C1978 C1973 1.350 . S
C1979 H1966 0.929 1_655 S
C1979 C1971 1.433 . S
C1979 N1981 1.384 . S
N1980 C1976 1.427 . S
N1980 C1977 1.384 . S
N1981 C1973 1.427 . S
N1981 C1979 1.384 . S
H1982 C1988 0.930 . S
H1983 C1992 0.930 . S
H1984 C1997 0.929 . S
H1985 C1995 0.929 . S
H1986 C1990 0.929 . S
H1987 C1996 0.929 . S
C1988 H1982 0.930 . S
C1988 C1989 1.367 . S
C1988 C1996 1.378 . S
C1989 C1988 1.367 . S
C1989 C1997 1.433 . S
C1990 H1986 0.929 . S
C1990 C1992 1.378 . S
C1990 C1994 1.350 . S
C1991 C1994 1.463 . S
C1991 C1996 1.350 . S
C1991 N1999 1.427 . S
C1992 H1983 0.930 . S
C1992 C1990 1.378 . S
C1992 C1993 1.367 . S
C1993 C1992 1.367 . S
C1993 C1995 1.433 . S
C1994 C1990 1.350 . S
C1994 C1991 1.463 . S
C1994 N1998 1.427 . S
C1995 H1985 0.929 . S
C1995 C1993 1.433 . S
C1995 N1998 1.384 . S
C1996 H1987 0.929 . S
C1996 C1988 1.378 . S
C1996 C1991 1.350 . S
C1997 H1984 0.929 . S
C1997 C1989 1.433 . S
C1997 N1999 1.384 . S
N1998 C1994 1.427 . S
N1998 C1995 1.384 . S
N1999 C1991 1.427 . S
N1999 C1997 1.384 . S
H2000 C2006 0.930 . S
H2001 C2010 0.930 . S
H2002 C2015 0.929 . S
H2003 C2013 0.929 . S
H2004 C2008 0.929 . S
H2005 C2014 0.929 . S
C2006 H2000 0.930 . S
C2006 C2007 1.367 . S
C2006 C2014 1.378 . S
C2007 C2006 1.367 . S
C2007 C2015 1.433 . S
C2008 H2004 0.929 . S
C2008 C2010 1.378 . S
C2008 C2012 1.350 . S
C2009 C2012 1.463 . S
C2009 C2014 1.350 . S
C2009 N2017 1.427 . S
C2010 H2001 0.930 . S
C2010 C2008 1.378 . S
C2010 C2011 1.367 . S
C2011 C2010 1.367 . S
C2011 C2013 1.433 . S
C2012 C2008 1.350 . S
C2012 C2009 1.463 . S
C2012 N2016 1.427 . S
C2013 H2003 0.929 . S
C2013 C2011 1.433 . S
C2013 N2016 1.384 . S
C2014 H2005 0.929 . S
C2014 C2006 1.378 . S
C2014 C2009 1.350 . S
C2015 H2002 0.929 . S
C2015 C2007 1.433 . S
C2015 N2017 1.384 . S
N2016 C2012 1.427 . S
N2016 C2013 1.384 . S
N2017 C2009 1.427 . S
N2017 C2015 1.384 . S
H2018 C2024 0.930 . S
H2019 C2028 0.930 . S
H2020 C2033 0.929 . S
H2021 C2031 0.929 . S
H2022 C2026 0.929 . S
H2023 C2032 0.929 . S
C2024 H2018 0.930 . S
C2024 C2025 1.367 . S
C2024 C2032 1.378 . S
C2025 C2024 1.367 . S
C2025 C2033 1.433 . S
C2026 H2022 0.929 . S
C2026 C2028 1.378 . S
C2026 C2030 1.350 . S
C2027 C2030 1.463 . S
C2027 C2032 1.350 . S
C2027 N2035 1.427 . S
C2028 H2019 0.930 . S
C2028 C2026 1.378 . S
C2028 C2029 1.367 . S
C2029 C2028 1.367 . S
C2029 C2031 1.433 . S
C2030 C2026 1.350 . S
C2030 C2027 1.463 . S
C2030 N2034 1.427 . S
C2031 H2021 0.929 . S
C2031 C2029 1.433 . S
C2031 N2034 1.384 . S
C2032 H2023 0.929 . S
C2032 C2024 1.378 . S
C2032 C2027 1.350 . S
C2033 H2020 0.929 . S
C2033 C2025 1.433 . S
C2033 N2035 1.384 . S
N2034 C2030 1.427 . S
N2034 C2031 1.384 . S
N2035 C2027 1.427 . S
N2035 C2033 1.384 . S
H2036 C2042 0.930 . S
H2037 C2046 0.930 . S
H2038 C2051 0.929 . S
H2039 C2049 0.929 . S
H2040 C2044 0.929 . S
H2041 C2050 0.929 . S
C2042 H2036 0.930 . S
C2042 C2043 1.367 . S
C2042 C2050 1.378 . S
C2043 C2042 1.367 . S
C2043 C2051 1.433 . S
C2044 H2040 0.929 . S
C2044 C2046 1.378 . S
C2044 C2048 1.350 . S
C2045 C2048 1.463 . S
C2045 C2050 1.350 . S
C2045 N2053 1.427 . S
C2046 H2037 0.930 . S
C2046 C2044 1.378 . S
C2046 C2047 1.367 . S
C2047 C2046 1.367 . S
C2047 C2049 1.433 . S
C2048 C2044 1.350 . S
C2048 C2045 1.463 . S
C2048 N2052 1.427 . S
C2049 H2039 0.929 . S
C2049 C2047 1.433 . S
C2049 N2052 1.384 . S
C2050 H2041 0.929 . S
C2050 C2042 1.378 . S
C2050 C2045 1.350 . S
C2051 H2038 0.929 . S
C2051 C2043 1.433 . S
C2051 N2053 1.384 . S
N2052 C2048 1.427 . S
N2052 C2049 1.384 . S
N2053 C2045 1.427 . S
N2053 C2051 1.384 . S
H2054 C2060 0.930 . S
H2055 C2064 0.930 . S
H2056 C2069 0.929 . S
H2057 C2067 0.929 . S
H2058 C2062 0.929 . S
H2059 C2068 0.929 . S
C2060 H2054 0.930 . S
C2060 C2061 1.367 . S
C2060 C2068 1.378 . S
C2061 C2060 1.367 . S
C2061 C2069 1.433 . S
C2062 H2058 0.929 . S
C2062 C2064 1.378 . S
C2062 C2066 1.350 . S
C2063 C2066 1.463 . S
C2063 C2068 1.350 . S
C2063 N2071 1.427 . S
C2064 H2055 0.930 . S
C2064 C2062 1.378 . S
C2064 C2065 1.367 . S
C2065 C2064 1.367 . S
C2065 C2067 1.433 . S
C2066 C2062 1.350 . S
C2066 C2063 1.463 . S
C2066 N2070 1.427 . S
C2067 H2057 0.929 . S
C2067 C2065 1.433 . S
C2067 N2070 1.384 . S
C2068 H2059 0.929 . S
C2068 C2060 1.378 . S
C2068 C2063 1.350 . S
C2069 H2056 0.929 . S
C2069 C2061 1.433 . S
C2069 N2071 1.384 . S
N2070 C2066 1.427 . S
N2070 C2067 1.384 . S
N2071 C2063 1.427 . S
N2071 C2069 1.384 . S
H2072 C2078 0.930 . S
H2073 C2082 0.930 . S
H2074 C2087 0.929 . S
H2075 C2085 0.929 . S
H2076 C2080 0.929 . S
H2077 C2086 0.929 . S
C2078 H2072 0.930 . S
C2078 C2079 1.367 . S
C2078 C2086 1.378 . S
C2079 C2078 1.367 . S
C2079 C2087 1.433 . S
C2080 H2076 0.929 . S
C2080 C2082 1.378 . S
C2080 C2084 1.350 . S
C2081 C2084 1.463 . S
C2081 C2086 1.350 . S
C2081 N2089 1.427 . S
C2082 H2073 0.930 . S
C2082 C2080 1.378 . S
C2082 C2083 1.367 . S
C2083 C2082 1.367 . S
C2083 C2085 1.433 . S
C2084 C2080 1.350 . S
C2084 C2081 1.463 . S
C2084 N2088 1.427 . S
C2085 H2075 0.929 . S
C2085 C2083 1.433 . S
C2085 N2088 1.384 . S
C2086 H2077 0.929 . S
C2086 C2078 1.378 . S
C2086 C2081 1.350 . S
C2087 H2074 0.929 . S
C2087 C2079 1.433 . S
C2087 N2089 1.384 . S
N2088 C2084 1.427 . S
N2088 C2085 1.384 . S
N2089 C2081 1.427 . S
N2089 C2087 1.384 . S
H2090 C2096 0.930 . S
H2091 C2100 0.930 . S
H2092 C2105 0.929 . S
H2093 C2103 0.929 . S
H2094 C2098 0.929 . S
H2095 C2104 0.929 . S
C2096 H2090 0.930 . S
C2096 C2097 1.367 . S
C2096 C2104 1.378 . S
C2097 C2096 1.367 . S
C2097 C2105 1.433 . S
C2098 H2094 0.929 . S
C2098 C2100 1.378 . S
C2098 C2102 1.350 . S
C2099 C2102 1.463 . S
C2099 C2104 1.350 . S
C2099 N2107 1.427 . S
C2100 H2091 0.930 . S
C2100 C2098 1.378 . S
C2100 C2101 1.367 . S
C2101 C2100 1.367 . S
C2101 C2103 1.433 . S
C2102 C2098 1.350 . S
C2102 C2099 1.463 . S
C2102 N2106 1.427 . S
C2103 H2093 0.929 . S
C2103 C2101 1.433 . S
C2103 N2106 1.384 . S
C2104 H2095 0.929 . S
C2104 C2096 1.378 . S
C2104 C2099 1.350 . S
C2105 H2092 0.929 . S
C2105 C2097 1.433 . S
C2105 N2107 1.384 . S
N2106 C2102 1.427 . S
N2106 C2103 1.384 . S
N2107 C2099 1.427 . S
N2107 C2105 1.384 . S
H2108 C2114 0.930 . S
H2109 C2118 0.930 . S
H2110 C2123 0.929 . S
H2111 C2121 0.929 . S
H2112 C2116 0.929 . S
H2113 C2122 0.929 . S
C2114 H2108 0.930 . S
C2114 C2115 1.367 . S
C2114 C2122 1.378 . S
C2115 C2114 1.367 . S
C2115 C2123 1.433 . S
C2116 H2112 0.929 . S
C2116 C2118 1.378 . S
C2116 C2120 1.350 . S
C2117 C2120 1.463 . S
C2117 C2122 1.350 . S
C2117 N2125 1.427 . S
C2118 H2109 0.930 . S
C2118 C2116 1.378 . S
C2118 C2119 1.367 . S
C2119 C2118 1.367 . S
C2119 C2121 1.433 . S
C2120 C2116 1.350 . S
C2120 C2117 1.463 . S
C2120 N2124 1.427 . S
C2121 H2111 0.929 . S
C2121 C2119 1.433 . S
C2121 N2124 1.384 . S
C2122 H2113 0.929 . S
C2122 C2114 1.378 . S
C2122 C2117 1.350 . S
C2123 H2110 0.929 . S
C2123 C2115 1.433 . S
C2123 N2125 1.384 . S
N2124 C2120 1.427 . S
N2124 C2121 1.384 . S
N2125 C2117 1.427 . S
N2125 C2123 1.384 . S
H2126 C2132 0.930 . S
H2127 C2136 0.930 . S
H2128 C2141 0.929 . S
H2129 C2139 0.929 . S
H2130 C2134 0.929 . S
H2131 C2140 0.929 . S
C2132 H2126 0.930 . S
C2132 C2133 1.367 . S
C2132 C2140 1.378 . S
C2133 C2132 1.367 . S
C2133 C2141 1.433 . S
C2134 H2130 0.929 . S
C2134 C2136 1.378 . S
C2134 C2138 1.350 . S
C2135 C2138 1.463 . S
C2135 C2140 1.350 . S
C2135 N2143 1.427 . S
C2136 H2127 0.930 . S
C2136 C2134 1.378 . S
C2136 C2137 1.367 . S
C2137 C2136 1.367 . S
C2137 C2139 1.433 . S
C2138 C2134 1.350 . S
C2138 C2135 1.463 . S
C2138 N2142 1.427 . S
C2139 H2129 0.929 . S
C2139 C2137 1.433 . S
C2139 N2142 1.384 . S
C2140 H2131 0.929 . S
C2140 C2132 1.378 . S
C2140 C2135 1.350 . S
C2141 H2128 0.929 . S
C2141 C2133 1.433 . S
C2141 N2143 1.384 . S
N2142 C2138 1.427 . S
N2142 C2139 1.384 . S
N2143 C2135 1.427 . S
N2143 C2141 1.384 . S
H2144 C2150 0.930 . S
H2145 C2154 0.930 . S
H2146 C2159 0.929 . S
H2147 C2157 0.929 . S
H2148 C2152 0.929 . S
H2149 C2158 0.929 . S
C2150 H2144 0.930 . S
C2150 C2151 1.367 . S
C2150 C2158 1.378 . S
C2151 C2150 1.367 . S
C2151 C2159 1.433 . S
C2152 H2148 0.929 . S
C2152 C2154 1.378 . S
C2152 C2156 1.350 . S
C2153 C2156 1.463 . S
C2153 C2158 1.350 . S
C2153 N2161 1.427 . S
C2154 H2145 0.930 . S
C2154 C2152 1.378 . S
C2154 C2155 1.367 . S
C2155 C2154 1.367 . S
C2155 C2157 1.433 . S
C2156 C2152 1.350 . S
C2156 C2153 1.463 . S
C2156 N2160 1.427 . S
C2157 H2147 0.929 . S
C2157 C2155 1.433 . S
C2157 N2160 1.384 . S
C2158 H2149 0.929 . S
C2158 C2150 1.378 . S
C2158 C2153 1.350 . S
C2159 H2146 0.929 . S
C2159 C2151 1.433 . S
C2159 N2161 1.384 . S
N2160 C2156 1.427 . S
N2160 C2157 1.384 . S
N2161 C2153 1.427 . S
N2161 C2159 1.384 . S
H2162 C2168 0.930 . S
H2163 C2172 0.930 . S
H2164 C2177 0.929 . S
H2165 C2175 0.929 . S
H2166 C2170 0.929 . S
H2167 C2176 0.929 . S
C2168 H2162 0.930 . S
C2168 C2169 1.367 . S
C2168 C2176 1.378 . S
C2169 C2168 1.367 . S
C2169 C2177 1.433 . S
C2170 H2166 0.929 . S
C2170 C2172 1.378 . S
C2170 C2174 1.350 . S
C2171 C2174 1.463 . S
C2171 C2176 1.350 . S
C2171 N2179 1.427 . S
C2172 H2163 0.930 . S
C2172 C2170 1.378 . S
C2172 C2173 1.367 . S
C2173 C2172 1.367 . S
C2173 C2175 1.433 . S
C2174 C2170 1.350 . S
C2174 C2171 1.463 . S
C2174 N2178 1.427 . S
C2175 H2165 0.929 . S
C2175 C2173 1.433 . S
C2175 N2178 1.384 . S
C2176 H2167 0.929 . S
C2176 C2168 1.378 . S
C2176 C2171 1.350 . S
C2177 H2164 0.929 . S
C2177 C2169 1.433 . S
C2177 N2179 1.384 . S
N2178 C2174 1.427 . S
N2178 C2175 1.384 . S
N2179 C2171 1.427 . S
N2179 C2177 1.384 . S
H2180 C2186 0.930 . S
H2181 C2190 0.930 . S
H2182 C2195 0.929 . S
H2183 C2193 0.929 . S
H2184 C2188 0.929 . S
H2185 C2194 0.929 . S
C2186 H2180 0.930 . S
C2186 C2187 1.367 . S
C2186 C2194 1.378 . S
C2187 C2186 1.367 . S
C2187 C2195 1.433 . S
C2188 H2184 0.929 . S
C2188 C2190 1.378 . S
C2188 C2192 1.350 . S
C2189 C2192 1.463 . S
C2189 C2194 1.350 . S
C2189 N2197 1.427 . S
C2190 H2181 0.930 . S
C2190 C2188 1.378 . S
C2190 C2191 1.367 . S
C2191 C2190 1.367 . S
C2191 C2193 1.433 . S
C2192 C2188 1.350 . S
C2192 C2189 1.463 . S
C2192 N2196 1.427 . S
C2193 H2183 0.929 . S
C2193 C2191 1.433 . S
C2193 N2196 1.384 . S
C2194 H2185 0.929 . S
C2194 C2186 1.378 . S
C2194 C2189 1.350 . S
C2195 H2182 0.929 . S
C2195 C2187 1.433 . S
C2195 N2197 1.384 . S
N2196 C2192 1.427 . S
N2196 C2193 1.384 . S
N2197 C2189 1.427 . S
N2197 C2195 1.384 . S
H2198 C2204 0.930 . S
H2199 C2208 0.930 . S
H2200 C2213 0.929 . S
H2201 C2211 0.929 . S
H2202 C2206 0.929 . S
H2203 C2212 0.929 . S
C2204 H2198 0.930 . S
C2204 C2205 1.367 . S
C2204 C2212 1.378 . S
C2205 C2204 1.367 . S
C2205 C2213 1.433 . S
C2206 H2202 0.929 . S
C2206 C2208 1.378 . S
C2206 C2210 1.350 . S
C2207 C2210 1.463 . S
C2207 C2212 1.350 . S
C2207 N2215 1.427 . S
C2208 H2199 0.930 . S
C2208 C2206 1.378 . S
C2208 C2209 1.367 . S
C2209 C2208 1.367 . S
C2209 C2211 1.433 . S
C2210 C2206 1.350 . S
C2210 C2207 1.463 . S
C2210 N2214 1.427 . S
C2211 H2201 0.929 . S
C2211 C2209 1.433 . S
C2211 N2214 1.384 . S
C2212 H2203 0.929 . S
C2212 C2204 1.378 . S
C2212 C2207 1.350 . S
C2213 H2200 0.929 . S
C2213 C2205 1.433 . S
C2213 N2215 1.384 . S
N2214 C2210 1.427 . S
N2214 C2211 1.384 . S
N2215 C2207 1.427 . S
N2215 C2213 1.384 . S
H2216 C2222 0.930 . S
H2217 C2226 0.930 . S
H2218 C2231 0.929 . S
H2219 C2229 0.929 . S
H2220 C2224 0.929 . S
H2221 C2230 0.929 . S
C2222 H2216 0.930 . S
C2222 C2223 1.367 . S
C2222 C2230 1.378 . S
C2223 C2222 1.367 . S
C2223 C2231 1.433 . S
C2224 H2220 0.929 . S
C2224 C2226 1.378 . S
C2224 C2228 1.350 . S
C2225 C2228 1.463 . S
C2225 C2230 1.350 . S
C2225 N2233 1.427 . S
C2226 H2217 0.930 . S
C2226 C2224 1.378 . S
C2226 C2227 1.367 . S
C2227 C2226 1.367 . S
C2227 C2229 1.433 . S
C2228 C2224 1.350 . S
C2228 C2225 1.463 . S
C2228 N2232 1.427 . S
C2229 H2219 0.929 . S
C2229 C2227 1.433 . S
C2229 N2232 1.384 . S
C2230 H2221 0.929 . S
C2230 C2222 1.378 . S
C2230 C2225 1.350 . S
C2231 H2218 0.929 . S
C2231 C2223 1.433 . S
C2231 N2233 1.384 . S
N2232 C2228 1.427 . S
N2232 C2229 1.384 . S
N2233 C2225 1.427 . S
N2233 C2231 1.384 . S
H2234 C2240 0.930 . S
H2235 C2244 0.930 . S
H2236 C2249 0.929 . S
H2237 C2247 0.929 . S
H2238 C2242 0.929 . S
H2239 C2248 0.929 . S
C2240 H2234 0.930 . S
C2240 C2241 1.367 . S
C2240 C2248 1.378 . S
C2241 C2240 1.367 . S
C2241 C2249 1.433 . S
C2242 H2238 0.929 . S
C2242 C2244 1.378 . S
C2242 C2246 1.350 . S
C2243 C2246 1.463 . S
C2243 C2248 1.350 . S
C2243 N2251 1.427 . S
C2244 H2235 0.930 . S
C2244 C2242 1.378 . S
C2244 C2245 1.367 . S
C2245 C2244 1.367 . S
C2245 C2247 1.433 . S
C2246 C2242 1.350 . S
C2246 C2243 1.463 . S
C2246 N2250 1.427 . S
C2247 H2237 0.929 . S
C2247 C2245 1.433 . S
C2247 N2250 1.384 . S
C2248 H2239 0.929 . S
C2248 C2240 1.378 . S
C2248 C2243 1.350 . S
C2249 H2236 0.929 . S
C2249 C2241 1.433 . S
C2249 N2251 1.384 . S
N2250 C2246 1.427 . S
N2250 C2247 1.384 . S
N2251 C2243 1.427 . S
N2251 C2249 1.384 . S
H2252 C2258 0.930 . S
H2253 C2262 0.930 . S
H2254 C2267 0.929 . S
H2255 C2265 0.929 . S
H2256 C2260 0.929 . S
H2257 C2266 0.929 . S
C2258 H2252 0.930 . S
C2258 C2259 1.367 . S
C2258 C2266 1.378 . S
C2259 C2258 1.367 . S
C2259 C2267 1.433 . S
C2260 H2256 0.929 . S
C2260 C2262 1.378 . S
C2260 C2264 1.350 . S
C2261 C2264 1.463 . S
C2261 C2266 1.350 . S
C2261 N2269 1.427 . S
C2262 H2253 0.930 . S
C2262 C2260 1.378 . S
C2262 C2263 1.367 . S
C2263 C2262 1.367 . S
C2263 C2265 1.433 . S
C2264 C2260 1.350 . S
C2264 C2261 1.463 . S
C2264 N2268 1.427 . S
C2265 H2255 0.929 . S
C2265 C2263 1.433 . S
C2265 N2268 1.384 . S
C2266 H2257 0.929 . S
C2266 C2258 1.378 . S
C2266 C2261 1.350 . S
C2267 H2254 0.929 . S
C2267 C2259 1.433 . S
C2267 N2269 1.384 . S
N2268 C2264 1.427 . S
N2268 C2265 1.384 . S
N2269 C2261 1.427 . S
N2269 C2267 1.384 . S
H2270 C2276 0.930 . S
H2271 C2280 0.930 . S
H2272 C2285 0.929 . S
H2273 C2283 0.929 . S
H2274 C2278 0.929 . S
H2275 C2284 0.929 . S
C2276 H2270 0.930 . S
C2276 C2277 1.367 . S
C2276 C2284 1.378 . S
C2277 C2276 1.367 . S
C2277 C2285 1.433 . S
C2278 H2274 0.929 . S
C2278 C2280 1.378 . S
C2278 C2282 1.350 . S
C2279 C2282 1.463 . S
C2279 C2284 1.350 . S
C2279 N2287 1.427 . S
C2280 H2271 0.930 . S
C2280 C2278 1.378 . S
C2280 C2281 1.367 . S
C2281 C2280 1.367 . S
C2281 C2283 1.433 . S
C2282 C2278 1.350 . S
C2282 C2279 1.463 . S
C2282 N2286 1.427 . S
C2283 H2273 0.929 . S
C2283 C2281 1.433 . S
C2283 N2286 1.384 . S
C2284 H2275 0.929 . S
C2284 C2276 1.378 . S
C2284 C2279 1.350 . S
C2285 H2272 0.929 . S
C2285 C2277 1.433 . S
C2285 N2287 1.384 . S
N2286 C2282 1.427 . S
N2286 C2283 1.384 . S
N2287 C2279 1.427 . S
N2287 C2285 1.384 . S
H2288 C2294 0.930 . S
H2289 C2298 0.930 . S
H2290 C2303 0.929 . S
H2291 C2301 0.929 . S
H2292 C2296 0.929 . S
H2293 C2302 0.929 . S
C2294 H2288 0.930 . S
C2294 C2295 1.367 1_565 S
C2294 C2302 1.378 . S
C2295 C2294 1.367 1_545 S
C2295 C2303 1.433 . S
C2296 H2292 0.929 . S
C2296 C2298 1.378 . S
C2296 C2300 1.317 1_545 S
C2297 C2300 1.450 1_545 S
C2297 C2302 1.324 1_545 S
C2297 N2305 1.468 . S
C2298 H2289 0.930 . S
C2298 C2296 1.378 . S
C2298 C2299 1.367 1_545 S
C2299 C2298 1.367 1_565 S
C2299 C2301 1.433 . S
C2300 C2296 1.317 1_565 S
C2300 C2297 1.450 1_565 S
C2300 N2304 1.481 . S
C2301 H2291 0.929 . S
C2301 C2299 1.433 . S
C2301 N2304 1.384 . S
C2302 H2293 0.929 . S
C2302 C2294 1.378 . S
C2302 C2297 1.324 1_565 S
C2303 H2290 0.929 . S
C2303 C2295 1.433 . S
C2303 N2305 1.384 . S
N2304 C2300 1.481 . S
N2304 C2301 1.384 . S
N2305 C2297 1.468 . S
N2305 C2303 1.384 . S
H2306 C2312 0.930 . S
H2307 C2316 0.930 . S
H2308 C2321 0.929 . S
H2309 C2319 0.929 . S
H2310 C2314 0.929 . S
H2311 C2320 0.929 . S
C2312 H2306 0.930 . S
C2312 C2313 1.367 . S
C2312 C2320 1.378 . S
C2313 C2312 1.367 . S
C2313 C2321 1.433 . S
C2314 H2310 0.929 . S
C2314 C2316 1.378 . S
C2314 C2318 1.350 . S
C2315 C2318 1.463 . S
C2315 C2320 1.350 . S
C2315 N2323 1.427 . S
C2316 H2307 0.930 . S
C2316 C2314 1.378 . S
C2316 C2317 1.367 . S
C2317 C2316 1.367 . S
C2317 C2319 1.433 . S
C2318 C2314 1.350 . S
C2318 C2315 1.463 . S
C2318 N2322 1.427 . S
C2319 H2309 0.929 . S
C2319 C2317 1.433 . S
C2319 N2322 1.384 . S
C2320 H2311 0.929 . S
C2320 C2312 1.378 . S
C2320 C2315 1.350 . S
C2321 H2308 0.929 . S
C2321 C2313 1.433 . S
C2321 N2323 1.384 . S
N2322 C2318 1.427 . S
N2322 C2319 1.384 . S
N2323 C2315 1.427 . S
N2323 C2321 1.384 . S
H2324 C2330 0.930 . S
H2325 C2334 0.930 . S
H2326 C2339 0.929 . S
H2327 C2337 0.929 . S
H2328 C2332 0.929 . S
H2329 C2338 0.929 . S
C2330 H2324 0.930 . S
C2330 C2331 1.367 . S
C2330 C2338 1.378 . S
C2331 C2330 1.367 . S
C2331 C2339 1.433 . S
C2332 H2328 0.929 . S
C2332 C2334 1.378 . S
C2332 C2336 1.350 . S
C2333 C2336 1.463 . S
C2333 C2338 1.350 . S
C2333 N2341 1.427 . S
C2334 H2325 0.930 . S
C2334 C2332 1.378 . S
C2334 C2335 1.367 . S
C2335 C2334 1.367 . S
C2335 C2337 1.433 . S
C2336 C2332 1.350 . S
C2336 C2333 1.463 . S
C2336 N2340 1.427 . S
C2337 H2327 0.929 . S
C2337 C2335 1.433 . S
C2337 N2340 1.384 . S
C2338 H2329 0.929 . S
C2338 C2330 1.378 . S
C2338 C2333 1.350 . S
C2339 H2326 0.929 . S
C2339 C2331 1.433 . S
C2339 N2341 1.384 . S
N2340 C2336 1.427 . S
N2340 C2337 1.384 . S
N2341 C2333 1.427 . S
N2341 C2339 1.384 . S
H2342 C2348 0.930 . S
H2343 C2352 0.930 . S
H2344 C2357 0.929 . S
H2345 C2355 0.929 . S
H2346 C2350 0.929 . S
H2347 C2356 0.929 . S
C2348 H2342 0.930 . S
C2348 C2349 1.367 1_565 S
C2348 C2356 1.378 . S
C2349 C2348 1.367 1_545 S
C2349 C2357 1.433 . S
C2350 H2346 0.929 . S
C2350 C2352 1.378 . S
C2350 C2354 1.299 1_545 S
C2351 C2354 1.453 1_545 S
C2351 C2356 1.312 1_545 S
C2351 N2359 1.477 . S
C2352 H2343 0.930 . S
C2352 C2350 1.378 . S
C2352 C2353 1.367 1_545 S
C2353 C2352 1.367 1_565 S
C2353 C2355 1.433 . S
C2354 C2350 1.299 1_565 S
C2354 C2351 1.453 1_565 S
C2354 N2358 1.494 . S
C2355 H2345 0.929 . S
C2355 C2353 1.433 . S
C2355 N2358 1.384 . S
C2356 H2347 0.929 . S
C2356 C2348 1.378 . S
C2356 C2351 1.312 1_565 S
C2357 H2344 0.929 . S
C2357 C2349 1.433 . S
C2357 N2359 1.384 . S
N2358 C2354 1.494 . S
N2358 C2355 1.384 . S
N2359 C2351 1.477 . S
N2359 C2357 1.384 . S
H2360 C2366 0.930 . S
H2361 C2370 0.930 . S
H2362 C2375 0.929 . S
H2363 C2373 0.929 . S
H2364 C2368 0.929 . S
H2365 C2374 0.929 . S
C2366 H2360 0.930 . S
C2366 C2367 1.367 1_545 S
C2366 C2374 1.378 . S
C2367 C2366 1.367 1_565 S
C2367 C2375 1.433 . S
C2368 H2364 0.929 . S
C2368 C2370 1.378 . S
C2368 C2372 1.302 1_565 S
C2369 C2372 1.453 1_565 S
C2369 C2374 1.314 1_565 S
C2369 N2377 1.475 . S
C2370 H2361 0.930 . S
C2370 C2368 1.378 . S
C2370 C2371 1.367 1_565 S
C2371 C2370 1.367 1_545 S
C2371 C2373 1.433 . S
C2372 C2368 1.302 1_545 S
C2372 C2369 1.453 1_545 S
C2372 N2376 1.492 . S
C2373 H2363 0.929 . S
C2373 C2371 1.433 . S
C2373 N2376 1.384 . S
C2374 H2365 0.929 . S
C2374 C2366 1.378 . S
C2374 C2369 1.314 1_545 S
C2375 H2362 0.929 . S
C2375 C2367 1.433 . S
C2375 N2377 1.384 . S
N2376 C2372 1.492 . S
N2376 C2373 1.384 . S
N2377 C2369 1.475 . S
N2377 C2375 1.384 . S
H2378 C2384 0.930 . S
H2379 C2388 0.930 . S
H2380 C2393 0.929 . S
H2381 C2391 0.929 . S
H2382 C2386 0.929 . S
H2383 C2392 0.929 . S
C2384 H2378 0.930 . S
C2384 C2385 1.367 . S
C2384 C2392 1.378 . S
C2385 C2384 1.367 . S
C2385 C2393 1.433 . S
C2386 H2382 0.929 . S
C2386 C2388 1.378 . S
C2386 C2390 1.350 . S
C2387 C2390 1.463 . S
C2387 C2392 1.350 . S
C2387 N2395 1.427 . S
C2388 H2379 0.930 . S
C2388 C2386 1.378 . S
C2388 C2389 1.367 . S
C2389 C2388 1.367 . S
C2389 C2391 1.433 . S
C2390 C2386 1.350 . S
C2390 C2387 1.463 . S
C2390 N2394 1.427 . S
C2391 H2381 0.929 . S
C2391 C2389 1.433 . S
C2391 N2394 1.384 . S
C2392 H2383 0.929 . S
C2392 C2384 1.378 . S
C2392 C2387 1.350 . S
C2393 H2380 0.929 . S
C2393 C2385 1.433 . S
C2393 N2395 1.384 . S
N2394 C2390 1.427 . S
N2394 C2391 1.384 . S
N2395 C2387 1.427 . S
N2395 C2393 1.384 . S
H2396 C2402 0.930 . S
H2397 C2406 0.930 . S
H2398 C2411 0.929 . S
H2399 C2409 0.929 . S
H2400 C2404 0.929 . S
H2401 C2410 0.929 . S
C2402 H2396 0.930 . S
C2402 C2403 1.367 . S
C2402 C2410 1.378 . S
C2403 C2402 1.367 . S
C2403 C2411 1.433 . S
C2404 H2400 0.929 . S
C2404 C2406 1.378 . S
C2404 C2408 1.350 . S
C2405 C2408 1.463 . S
C2405 C2410 1.350 . S
C2405 N2413 1.427 . S
C2406 H2397 0.930 . S
C2406 C2404 1.378 . S
C2406 C2407 1.367 . S
C2407 C2406 1.367 . S
C2407 C2409 1.433 . S
C2408 C2404 1.350 . S
C2408 C2405 1.463 . S
C2408 N2412 1.427 . S
C2409 H2399 0.929 . S
C2409 C2407 1.433 . S
C2409 N2412 1.384 . S
C2410 H2401 0.929 . S
C2410 C2402 1.378 . S
C2410 C2405 1.350 . S
C2411 H2398 0.929 . S
C2411 C2403 1.433 . S
C2411 N2413 1.384 . S
N2412 C2408 1.427 . S
N2412 C2409 1.384 . S
N2413 C2405 1.427 . S
N2413 C2411 1.384 . S
H2414 C2420 0.930 . S
H2415 C2424 0.930 . S
H2416 C2429 0.929 . S
H2417 C2427 0.929 . S
H2418 C2422 0.929 . S
H2419 C2428 0.929 . S
C2420 H2414 0.930 . S
C2420 C2421 1.367 . S
C2420 C2428 1.378 . S
C2421 C2420 1.367 . S
C2421 C2429 1.433 1_565 S
C2422 H2418 0.929 . S
C2422 C2424 1.378 . S
C2422 C2426 1.350 . S
C2423 C2426 1.463 1_565 S
C2423 C2428 1.350 . S
C2423 N2431 1.427 1_565 S
C2424 H2415 0.930 . S
C2424 C2422 1.378 . S
C2424 C2425 1.367 . S
C2425 C2424 1.367 . S
C2425 C2427 1.433 1_545 S
C2426 C2422 1.350 . S
C2426 C2423 1.463 1_545 S
C2426 N2430 1.427 1_545 S
C2427 H2417 0.929 . S
C2427 C2425 1.433 1_565 S
C2427 N2430 1.384 . S
C2428 H2419 0.929 . S
C2428 C2420 1.378 . S
C2428 C2423 1.350 . S
C2429 H2416 0.929 . S
C2429 C2421 1.433 1_545 S
C2429 N2431 1.384 . S
N2430 C2426 1.427 1_565 S
N2430 C2427 1.384 . S
N2431 C2423 1.427 1_545 S
N2431 C2429 1.384 . S
H2432 C2438 0.930 . S
H2433 C2442 0.930 . S
H2434 C2447 0.929 . S
H2435 C2445 0.929 . S
H2436 C2440 0.929 . S
H2437 C2446 0.929 . S
C2438 H2432 0.930 . S
C2438 C2439 1.367 . S
C2438 C2446 1.378 . S
C2439 C2438 1.367 . S
C2439 C2447 1.433 . S
C2440 H2436 0.929 . S
C2440 C2442 1.378 . S
C2440 C2444 1.350 . S
C2441 C2444 1.463 1_455 S
C2441 C2446 1.350 . S
C2441 N2449 1.427 . S
C2442 H2433 0.930 . S
C2442 C2440 1.378 . S
C2442 C2443 1.367 . S
C2443 C2442 1.367 . S
C2443 C2445 1.433 . S
C2444 C2440 1.350 . S
C2444 C2441 1.463 1_655 S
C2444 N2448 1.427 . S
C2445 H2435 0.929 . S
C2445 C2443 1.433 . S
C2445 N2448 1.384 . S
C2446 H2437 0.929 . S
C2446 C2438 1.378 . S
C2446 C2441 1.350 . S
C2447 H2434 0.929 . S
C2447 C2439 1.433 . S
C2447 N2449 1.384 . S
N2448 C2444 1.427 . S
N2448 C2445 1.384 . S
N2449 C2441 1.427 . S
N2449 C2447 1.384 . S
H2450 C2456 0.930 . S
H2451 C2460 0.930 . S
H2452 C2465 0.929 . S
H2453 C2463 0.929 . S
H2454 C2458 0.929 . S
H2455 C2464 0.929 . S
C2456 H2450 0.930 . S
C2456 C2457 1.367 . S
C2456 C2464 1.378 . S
C2457 C2456 1.367 . S
C2457 C2465 1.433 . S
C2458 H2454 0.929 . S
C2458 C2460 1.378 . S
C2458 C2462 1.350 . S
C2459 C2462 1.463 . S
C2459 C2464 1.350 . S
C2459 N2467 1.427 . S
C2460 H2451 0.930 . S
C2460 C2458 1.378 . S
C2460 C2461 1.367 . S
C2461 C2460 1.367 . S
C2461 C2463 1.433 . S
C2462 C2458 1.350 . S
C2462 C2459 1.463 . S
C2462 N2466 1.427 . S
C2463 H2453 0.929 . S
C2463 C2461 1.433 . S
C2463 N2466 1.384 . S
C2464 H2455 0.929 . S
C2464 C2456 1.378 . S
C2464 C2459 1.350 . S
C2465 H2452 0.929 . S
C2465 C2457 1.433 . S
C2465 N2467 1.384 . S
N2466 C2462 1.427 . S
N2466 C2463 1.384 . S
N2467 C2459 1.427 . S
N2467 C2465 1.384 . S
H2468 C2474 0.930 . S
H2469 C2478 0.930 . S
H2470 C2483 0.929 . S
H2471 C2481 0.929 . S
H2472 C2476 0.929 . S
H2473 C2482 0.929 . S
C2474 H2468 0.930 . S
C2474 C2475 1.367 . S
C2474 C2482 1.378 . S
C2475 C2474 1.367 . S
C2475 C2483 1.433 . S
C2476 H2472 0.929 . S
C2476 C2478 1.378 . S
C2476 C2480 1.350 . S
C2477 C2480 1.463 1_655 S
C2477 C2482 1.350 . S
C2477 N2485 1.427 . S
C2478 H2469 0.930 . S
C2478 C2476 1.378 . S
C2478 C2479 1.367 . S
C2479 C2478 1.367 . S
C2479 C2481 1.433 . S
C2480 C2476 1.350 . S
C2480 C2477 1.463 1_455 S
C2480 N2484 1.427 . S
C2481 H2471 0.929 . S
C2481 C2479 1.433 . S
C2481 N2484 1.384 . S
C2482 H2473 0.929 . S
C2482 C2474 1.378 . S
C2482 C2477 1.350 . S
C2483 H2470 0.929 . S
C2483 C2475 1.433 . S
C2483 N2485 1.384 . S
N2484 C2480 1.427 . S
N2484 C2481 1.384 . S
N2485 C2477 1.427 . S
N2485 C2483 1.384 . S
H2486 C2492 0.930 . S
H2487 C2496 0.930 . S
H2488 C2501 0.929 . S
H2489 C2499 0.929 . S
H2490 C2494 0.929 . S
H2491 C2500 0.929 . S
C2492 H2486 0.930 . S
C2492 C2493 1.367 . S
C2492 C2500 1.378 . S
C2493 C2492 1.367 . S
C2493 C2501 1.433 . S
C2494 H2490 0.929 . S
C2494 C2496 1.378 . S
C2494 C2498 1.350 . S
C2495 C2498 1.463 . S
C2495 C2500 1.350 . S
C2495 N2503 1.427 . S
C2496 H2487 0.930 . S
C2496 C2494 1.378 . S
C2496 C2497 1.367 . S
C2497 C2496 1.367 . S
C2497 C2499 1.433 . S
C2498 C2494 1.350 . S
C2498 C2495 1.463 . S
C2498 N2502 1.427 . S
C2499 H2489 0.929 . S
C2499 C2497 1.433 . S
C2499 N2502 1.384 . S
C2500 H2491 0.929 . S
C2500 C2492 1.378 . S
C2500 C2495 1.350 . S
C2501 H2488 0.929 . S
C2501 C2493 1.433 . S
C2501 N2503 1.384 . S
N2502 C2498 1.427 . S
N2502 C2499 1.384 . S
N2503 C2495 1.427 . S
N2503 C2501 1.384 . S
H2504 C2510 0.930 . S
H2505 C2514 0.930 . S
H2506 C2519 0.929 . S
H2507 C2517 0.929 . S
H2508 C2512 0.929 . S
H2509 C2518 0.929 . S
C2510 H2504 0.930 . S
C2510 C2511 1.367 . S
C2510 C2518 1.378 . S
C2511 C2510 1.367 . S
C2511 C2519 1.433 . S
C2512 H2508 0.929 . S
C2512 C2514 1.378 . S
C2512 C2516 1.350 . S
C2513 C2516 1.463 1_655 S
C2513 C2518 1.350 . S
C2513 N2521 1.427 . S
C2514 H2505 0.930 . S
C2514 C2512 1.378 . S
C2514 C2515 1.367 . S
C2515 C2514 1.367 . S
C2515 C2517 1.433 . S
C2516 C2512 1.350 . S
C2516 C2513 1.463 1_455 S
C2516 N2520 1.427 . S
C2517 H2507 0.929 . S
C2517 C2515 1.433 . S
C2517 N2520 1.384 . S
C2518 H2509 0.929 . S
C2518 C2510 1.378 . S
C2518 C2513 1.350 . S
C2519 H2506 0.929 . S
C2519 C2511 1.433 . S
C2519 N2521 1.384 . S
N2520 C2516 1.427 . S
N2520 C2517 1.384 . S
N2521 C2513 1.427 . S
N2521 C2519 1.384 . S
H2522 C2528 0.930 . S
H2523 C2532 0.930 . S
H2524 C2537 0.929 . S
H2525 C2535 0.929 . S
H2526 C2530 0.929 . S
H2527 C2536 0.929 . S
C2528 H2522 0.930 . S
C2528 C2529 1.367 . S
C2528 C2536 1.378 . S
C2529 C2528 1.367 . S
C2529 C2537 1.433 . S
C2530 H2526 0.929 . S
C2530 C2532 1.378 . S
C2530 C2534 1.350 . S
C2531 C2534 1.463 . S
C2531 C2536 1.350 . S
C2531 N2539 1.427 . S
C2532 H2523 0.930 . S
C2532 C2530 1.378 . S
C2532 C2533 1.367 . S
C2533 C2532 1.367 . S
C2533 C2535 1.433 . S
C2534 C2530 1.350 . S
C2534 C2531 1.463 . S
C2534 N2538 1.427 . S
C2535 H2525 0.929 . S
C2535 C2533 1.433 . S
C2535 N2538 1.384 . S
C2536 H2527 0.929 . S
C2536 C2528 1.378 . S
C2536 C2531 1.350 . S
C2537 H2524 0.929 . S
C2537 C2529 1.433 . S
C2537 N2539 1.384 . S
N2538 C2534 1.427 . S
N2538 C2535 1.384 . S
N2539 C2531 1.427 . S
N2539 C2537 1.384 . S
H2540 C2546 0.930 . S
H2541 C2550 0.930 . S
H2542 C2555 0.929 . S
H2543 C2553 0.929 . S
H2544 C2548 0.929 . S
H2545 C2554 0.929 . S
C2546 H2540 0.930 . S
C2546 C2547 1.367 . S
C2546 C2554 1.378 . S
C2547 C2546 1.367 . S
C2547 C2555 1.433 . S
C2548 H2544 0.929 . S
C2548 C2550 1.378 . S
C2548 C2552 1.350 . S
C2549 C2552 1.463 1_455 S
C2549 C2554 1.350 . S
C2549 N2557 1.427 . S
C2550 H2541 0.930 . S
C2550 C2548 1.378 . S
C2550 C2551 1.367 . S
C2551 C2550 1.367 . S
C2551 C2553 1.433 . S
C2552 C2548 1.350 . S
C2552 C2549 1.463 1_655 S
C2552 N2556 1.427 . S
C2553 H2543 0.929 . S
C2553 C2551 1.433 . S
C2553 N2556 1.384 . S
C2554 H2545 0.929 . S
C2554 C2546 1.378 . S
C2554 C2549 1.350 . S
C2555 H2542 0.929 . S
C2555 C2547 1.433 . S
C2555 N2557 1.384 . S
N2556 C2552 1.427 . S
N2556 C2553 1.384 . S
N2557 C2549 1.427 . S
N2557 C2555 1.384 . S
H2558 C2564 0.930 . S
H2559 C2568 0.930 . S
H2560 C2573 0.929 . S
H2561 C2571 0.929 . S
H2562 C2566 0.929 . S
H2563 C2572 0.929 . S
C2564 H2558 0.930 . S
C2564 C2565 1.367 . S
C2564 C2572 1.378 . S
C2565 C2564 1.367 . S
C2565 C2573 1.433 . S
C2566 H2562 0.929 . S
C2566 C2568 1.378 . S
C2566 C2570 1.350 . S
C2567 C2570 1.463 . S
C2567 C2572 1.350 . S
C2567 N2575 1.427 . S
C2568 H2559 0.930 . S
C2568 C2566 1.378 . S
C2568 C2569 1.367 . S
C2569 C2568 1.367 . S
C2569 C2571 1.433 . S
C2570 C2566 1.350 . S
C2570 C2567 1.463 . S
C2570 N2574 1.427 . S
C2571 H2561 0.929 . S
C2571 C2569 1.433 . S
C2571 N2574 1.384 . S
C2572 H2563 0.929 . S
C2572 C2564 1.378 . S
C2572 C2567 1.350 . S
C2573 H2560 0.929 . S
C2573 C2565 1.433 . S
C2573 N2575 1.384 . S
N2574 C2570 1.427 . S
N2574 C2571 1.384 . S
N2575 C2567 1.427 . S
N2575 C2573 1.384 . S
H2576 C2582 0.930 . S
H2577 C2586 0.930 . S
H2578 C2591 0.929 . S
H2579 C2589 0.929 . S
H2580 C2584 0.929 . S
H2581 C2590 0.929 . S
C2582 H2576 0.930 . S
C2582 C2583 1.367 . S
C2582 C2590 1.378 . S
C2583 C2582 1.367 . S
C2583 C2591 1.433 1_545 S
C2584 H2580 0.929 . S
C2584 C2586 1.378 . S
C2584 C2588 1.350 . S
C2585 C2588 1.463 1_645 S
C2585 C2590 1.350 . S
C2585 N2593 1.427 1_545 S
C2586 H2577 0.930 . S
C2586 C2584 1.378 . S
C2586 C2587 1.367 . S
C2587 C2586 1.367 . S
C2587 C2589 1.433 1_565 S
C2588 C2584 1.350 . S
C2588 C2585 1.463 1_465 S
C2588 N2592 1.427 1_565 S
C2589 H2579 0.929 . S
C2589 C2587 1.433 1_545 S
C2589 N2592 1.384 . S
C2590 H2581 0.929 . S
C2590 C2582 1.378 . S
C2590 C2585 1.350 . S
C2591 H2578 0.929 . S
C2591 C2583 1.433 1_565 S
C2591 N2593 1.384 . S
N2592 C2588 1.427 1_545 S
N2592 C2589 1.384 . S
N2593 C2585 1.427 1_565 S
N2593 C2591 1.384 . S
H2594 C2600 0.930 . S
H2595 C2604 0.930 . S
H2596 C2609 0.929 . S
H2597 C2607 0.929 . S
H2598 C2602 0.929 . S
H2599 C2608 0.929 . S
C2600 H2594 0.930 . S
C2600 C2601 1.367 . S
C2600 C2608 1.378 . S
C2601 C2600 1.367 . S
C2601 C2609 1.433 . S
C2602 H2598 0.929 . S
C2602 C2604 1.378 . S
C2602 C2606 1.350 . S
C2603 C2606 1.463 . S
C2603 C2608 1.350 . S
C2603 N2611 1.427 . S
C2604 H2595 0.930 . S
C2604 C2602 1.378 . S
C2604 C2605 1.367 . S
C2605 C2604 1.367 . S
C2605 C2607 1.433 . S
C2606 C2602 1.350 . S
C2606 C2603 1.463 . S
C2606 N2610 1.427 . S
C2607 H2597 0.929 . S
C2607 C2605 1.433 . S
C2607 N2610 1.384 . S
C2608 H2599 0.929 . S
C2608 C2600 1.378 . S
C2608 C2603 1.350 . S
C2609 H2596 0.929 . S
C2609 C2601 1.433 . S
C2609 N2611 1.384 . S
N2610 C2606 1.427 . S
N2610 C2607 1.384 . S
N2611 C2603 1.427 . S
N2611 C2609 1.384 . S
H2612 C2618 0.930 . S
H2613 C2622 0.930 . S
H2614 C2627 0.929 . S
H2615 C2625 0.929 . S
H2616 C2620 0.929 . S
H2617 C2626 0.929 . S
C2618 H2612 0.930 . S
C2618 C2619 1.367 . S
C2618 C2626 1.378 . S
C2619 C2618 1.367 . S
C2619 C2627 1.433 . S
C2620 H2616 0.929 . S
C2620 C2622 1.378 . S
C2620 C2624 1.350 . S
C2621 C2624 1.463 1_655 S
C2621 C2626 1.350 . S
C2621 N2629 1.427 . S
C2622 H2613 0.930 . S
C2622 C2620 1.378 . S
C2622 C2623 1.367 . S
C2623 C2622 1.367 . S
C2623 C2625 1.433 . S
C2624 C2620 1.350 . S
C2624 C2621 1.463 1_455 S
C2624 N2628 1.427 . S
C2625 H2615 0.929 . S
C2625 C2623 1.433 . S
C2625 N2628 1.384 . S
C2626 H2617 0.929 . S
C2626 C2618 1.378 . S
C2626 C2621 1.350 . S
C2627 H2614 0.929 . S
C2627 C2619 1.433 . S
C2627 N2629 1.384 . S
N2628 C2624 1.427 . S
N2628 C2625 1.384 . S
N2629 C2621 1.427 . S
N2629 C2627 1.384 . S
H2630 C2636 0.930 . S
H2631 C2640 0.930 . S
H2632 C2645 0.929 . S
H2633 C2643 0.929 . S
H2634 C2638 0.929 . S
H2635 C2644 0.929 . S
C2636 H2630 0.930 . S
C2636 C2637 1.367 . S
C2636 C2644 1.378 . S
C2637 C2636 1.367 . S
C2637 C2645 1.433 1_545 S
C2638 H2634 0.929 . S
C2638 C2640 1.378 . S
C2638 C2642 1.350 . S
C2639 C2642 1.463 1_545 S
C2639 C2644 1.350 . S
C2639 N2647 1.427 1_545 S
C2640 H2631 0.930 . S
C2640 C2638 1.378 . S
C2640 C2641 1.367 . S
C2641 C2640 1.367 . S
C2641 C2643 1.433 1_565 S
C2642 C2638 1.350 . S
C2642 C2639 1.463 1_565 S
C2642 N2646 1.427 1_565 S
C2643 H2633 0.929 . S
C2643 C2641 1.433 1_545 S
C2643 N2646 1.384 . S
C2644 H2635 0.929 . S
C2644 C2636 1.378 . S
C2644 C2639 1.350 . S
C2645 H2632 0.929 . S
C2645 C2637 1.433 1_565 S
C2645 N2647 1.384 . S
N2646 C2642 1.427 1_545 S
N2646 C2643 1.384 . S
N2647 C2639 1.427 1_565 S
N2647 C2645 1.384 . S
H2648 C2654 0.930 . S
H2649 C2658 0.930 . S
H2650 C2663 0.929 . S
H2651 C2661 0.929 . S
H2652 C2656 0.929 . S
H2653 C2662 0.929 . S
C2654 H2648 0.930 . S
C2654 C2655 1.367 . S
C2654 C2662 1.378 . S
C2655 C2654 1.367 . S
C2655 C2663 1.433 1_545 S
C2656 H2652 0.929 . S
C2656 C2658 1.378 . S
C2656 C2660 1.350 . S
C2657 C2660 1.463 1_645 S
C2657 C2662 1.350 . S
C2657 N2665 1.427 1_545 S
C2658 H2649 0.930 . S
C2658 C2656 1.378 . S
C2658 C2659 1.367 . S
C2659 C2658 1.367 . S
C2659 C2661 1.433 1_565 S
C2660 C2656 1.350 . S
C2660 C2657 1.463 1_465 S
C2660 N2664 1.427 1_565 S
C2661 H2651 0.929 . S
C2661 C2659 1.433 1_545 S
C2661 N2664 1.384 . S
C2662 H2653 0.929 . S
C2662 C2654 1.378 . S
C2662 C2657 1.350 . S
C2663 H2650 0.929 . S
C2663 C2655 1.433 1_565 S
C2663 N2665 1.384 . S
N2664 C2660 1.427 1_545 S
N2664 C2661 1.384 . S
N2665 C2657 1.427 1_565 S
N2665 C2663 1.384 . S
H2666 C2672 0.930 . S
H2667 C2676 0.930 . S
H2668 C2681 0.929 . S
H2669 C2679 0.929 . S
H2670 C2674 0.929 . S
H2671 C2680 0.929 . S
C2672 H2666 0.930 . S
C2672 C2673 1.367 . S
C2672 C2680 1.378 . S
C2673 C2672 1.367 . S
C2673 C2681 1.433 . S
C2674 H2670 0.929 . S
C2674 C2676 1.378 . S
C2674 C2678 1.350 . S
C2675 C2678 1.463 . S
C2675 C2680 1.350 . S
C2675 N2683 1.427 . S
C2676 H2667 0.930 . S
C2676 C2674 1.378 . S
C2676 C2677 1.367 . S
C2677 C2676 1.367 . S
C2677 C2679 1.433 . S
C2678 C2674 1.350 . S
C2678 C2675 1.463 . S
C2678 N2682 1.427 . S
C2679 H2669 0.929 . S
C2679 C2677 1.433 . S
C2679 N2682 1.384 . S
C2680 H2671 0.929 . S
C2680 C2672 1.378 . S
C2680 C2675 1.350 . S
C2681 H2668 0.929 . S
C2681 C2673 1.433 . S
C2681 N2683 1.384 . S
N2682 C2678 1.427 . S
N2682 C2679 1.384 . S
N2683 C2675 1.427 . S
N2683 C2681 1.384 . S
H2684 C2690 0.930 . S
H2685 C2694 0.930 . S
H2686 C2699 0.929 . S
H2687 C2697 0.929 . S
H2688 C2692 0.929 . S
H2689 C2698 0.929 . S
C2690 H2684 0.930 . S
C2690 C2691 1.367 . S
C2690 C2698 1.378 . S
C2691 C2690 1.367 . S
C2691 C2699 1.433 . S
C2692 H2688 0.929 . S
C2692 C2694 1.378 . S
C2692 C2696 1.350 . S
C2693 C2696 1.463 1_455 S
C2693 C2698 1.350 . S
C2693 N2701 1.427 . S
C2694 H2685 0.930 . S
C2694 C2692 1.378 . S
C2694 C2695 1.367 . S
C2695 C2694 1.367 . S
C2695 C2697 1.433 . S
C2696 C2692 1.350 . S
C2696 C2693 1.463 1_655 S
C2696 N2700 1.427 . S
C2697 H2687 0.929 . S
C2697 C2695 1.433 . S
C2697 N2700 1.384 . S
C2698 H2689 0.929 . S
C2698 C2690 1.378 . S
C2698 C2693 1.350 . S
C2699 H2686 0.929 . S
C2699 C2691 1.433 . S
C2699 N2701 1.384 . S
N2700 C2696 1.427 . S
N2700 C2697 1.384 . S
N2701 C2693 1.427 . S
N2701 C2699 1.384 . S
H2702 C2708 0.917 1_545 S
H2703 C2712 0.917 1_565 S
H2704 C2717 0.929 . S
H2705 C2715 0.929 . S
H2706 C2710 0.929 . S
H2707 C2716 0.929 . S
C2708 H2702 0.917 1_565 S
C2708 C2709 1.390 . S
C2708 C2716 1.369 1_565 S
C2709 C2708 1.390 . S
C2709 C2717 1.433 . S
C2710 H2706 0.929 . S
C2710 C2712 1.367 1_565 S
C2710 C2714 1.350 1_565 S
C2711 C2714 1.453 1_565 S
C2711 C2716 1.338 1_565 S
C2711 N2719 1.457 . S
C2712 H2703 0.917 1_545 S
C2712 C2710 1.367 1_545 S
C2712 C2713 1.398 . S
C2713 C2712 1.398 . S
C2713 C2715 1.433 . S
C2714 C2710 1.350 1_545 S
C2714 C2711 1.453 1_545 S
C2714 N2718 1.427 . S
C2715 H2705 0.929 . S
C2715 C2713 1.433 . S
C2715 N2718 1.384 . S
C2716 H2707 0.929 . S
C2716 C2708 1.369 1_545 S
C2716 C2711 1.338 1_545 S
C2717 H2704 0.929 . S
C2717 C2709 1.433 . S
C2717 N2719 1.384 . S
N2718 C2714 1.427 . S
N2718 C2715 1.384 . S
N2719 C2711 1.457 . S
N2719 C2717 1.384 . S
H2720 C2726 0.930 . S
H2721 C2730 0.930 . S
H2722 C2735 0.929 . S
H2723 C2733 0.929 . S
H2724 C2728 0.929 . S
H2725 C2734 0.929 . S
C2726 H2720 0.930 . S
C2726 C2727 1.367 1_655 S
C2726 C2734 1.378 . S
C2727 C2726 1.367 1_455 S
C2727 C2735 1.433 . S
C2728 H2724 0.929 . S
C2728 C2730 1.378 . S
C2728 C2732 1.350 . S
C2729 C2732 1.463 1_654 S
C2729 C2734 1.350 . S
C2729 N2737 1.428 1_655 S
C2730 H2721 0.930 . S
C2730 C2728 1.378 . S
C2730 C2731 1.367 1_455 S
C2731 C2730 1.367 1_655 S
C2731 C2733 1.433 . S
C2732 C2728 1.350 . S
C2732 C2729 1.463 1_456 S
C2732 N2736 1.428 1_455 S
C2733 H2723 0.929 . S
C2733 C2731 1.433 . S
C2733 N2736 1.384 . S
C2734 H2725 0.929 . S
C2734 C2726 1.378 . S
C2734 C2729 1.350 . S
C2735 H2722 0.929 . S
C2735 C2727 1.433 . S
C2735 N2737 1.384 . S
N2736 C2732 1.428 1_655 S
N2736 C2733 1.384 . S
N2737 C2729 1.428 1_455 S
N2737 C2735 1.384 . S
H2738 C2744 0.930 . S
H2739 C2748 0.930 . S
H2740 C2753 0.929 . S
H2741 C2751 0.929 . S
H2742 C2746 0.929 . S
H2743 C2752 0.929 . S
C2744 H2738 0.930 . S
C2744 C2745 1.367 . S
C2744 C2752 1.378 . S
C2745 C2744 1.367 . S
C2745 C2753 1.433 . S
C2746 H2742 0.929 . S
C2746 C2748 1.378 . S
C2746 C2750 1.350 . S
C2747 C2750 1.463 1_556 S
C2747 C2752 1.350 . S
C2747 N2755 1.427 . S
C2748 H2739 0.930 . S
C2748 C2746 1.378 . S
C2748 C2749 1.367 . S
C2749 C2748 1.367 . S
C2749 C2751 1.433 . S
C2750 C2746 1.350 . S
C2750 C2747 1.463 1_554 S
C2750 N2754 1.427 . S
C2751 H2741 0.929 . S
C2751 C2749 1.433 . S
C2751 N2754 1.384 . S
C2752 H2743 0.929 . S
C2752 C2744 1.378 . S
C2752 C2747 1.350 . S
C2753 H2740 0.929 . S
C2753 C2745 1.433 . S
C2753 N2755 1.384 . S
N2754 C2750 1.427 . S
N2754 C2751 1.384 . S
N2755 C2747 1.427 . S
N2755 C2753 1.384 . S
H2756 C2762 0.930 . S
H2757 C2766 0.930 . S
H2758 C2771 0.929 . S
H2759 C2769 0.929 . S
H2760 C2764 0.929 . S
H2761 C2770 0.929 . S
C2762 H2756 0.930 . S
C2762 C2763 1.359 1_455 S
C2762 C2770 1.378 . S
C2763 C2762 1.359 1_655 S
C2763 C2771 1.441 . S
C2764 H2760 0.929 . S
C2764 C2766 1.378 . S
C2764 C2768 1.357 . S
C2765 C2768 1.462 1_455 S
C2765 C2770 1.350 . S
C2765 N2773 1.427 1_455 S
C2766 H2757 0.930 . S
C2766 C2764 1.378 . S
C2766 C2767 1.367 1_655 S
C2767 C2766 1.367 1_455 S
C2767 C2769 1.433 . S
C2768 C2764 1.357 . S
C2768 C2765 1.462 1_655 S
C2768 N2772 1.420 1_655 S
C2769 H2759 0.929 . S
C2769 C2767 1.433 . S
C2769 N2772 1.384 . S
C2770 H2761 0.929 . S
C2770 C2762 1.378 . S
C2770 C2765 1.350 . S
C2771 H2758 0.929 . S
C2771 C2763 1.441 . S
C2771 N2773 1.384 . S
N2772 C2768 1.420 1_455 S
N2772 C2769 1.384 . S
N2773 C2765 1.427 1_655 S
N2773 C2771 1.384 . S
H2774 C2780 0.930 . S
H2775 C2784 0.930 . S
H2776 C2789 0.929 . S
H2777 C2787 0.929 . S
H2778 C2782 0.929 . S
H2779 C2788 0.929 . S
C2780 H2774 0.930 . S
C2780 C2781 1.367 . S
C2780 C2788 1.378 . S
C2781 C2780 1.367 . S
C2781 C2789 1.433 . S
C2782 H2778 0.929 . S
C2782 C2784 1.378 . S
C2782 C2786 1.350 . S
C2783 C2786 1.463 . S
C2783 C2788 1.350 . S
C2783 N2791 1.427 . S
C2784 H2775 0.930 . S
C2784 C2782 1.378 . S
C2784 C2785 1.367 . S
C2785 C2784 1.367 . S
C2785 C2787 1.433 . S
C2786 C2782 1.350 . S
C2786 C2783 1.463 . S
C2786 N2790 1.427 . S
C2787 H2777 0.929 . S
C2787 C2785 1.433 . S
C2787 N2790 1.384 . S
C2788 H2779 0.929 . S
C2788 C2780 1.378 . S
C2788 C2783 1.350 . S
C2789 H2776 0.929 . S
C2789 C2781 1.433 . S
C2789 N2791 1.384 . S
N2790 C2786 1.427 . S
N2790 C2787 1.384 . S
N2791 C2783 1.427 . S
N2791 C2789 1.384 . S
H2792 C2798 0.930 . S
H2793 C2802 0.930 . S
H2794 C2807 0.929 . S
H2795 C2805 0.929 . S
H2796 C2800 0.929 . S
H2797 C2806 0.929 . S
C2798 H2792 0.930 . S
C2798 C2799 1.367 . S
C2798 C2806 1.378 . S
C2799 C2798 1.367 . S
C2799 C2807 1.433 . S
C2800 H2796 0.929 . S
C2800 C2802 1.378 . S
C2800 C2804 1.350 . S
C2801 C2804 1.463 1_556 S
C2801 C2806 1.350 . S
C2801 N2809 1.427 . S
C2802 H2793 0.930 . S
C2802 C2800 1.378 . S
C2802 C2803 1.367 . S
C2803 C2802 1.367 . S
C2803 C2805 1.433 . S
C2804 C2800 1.350 . S
C2804 C2801 1.463 1_554 S
C2804 N2808 1.427 . S
C2805 H2795 0.929 . S
C2805 C2803 1.433 . S
C2805 N2808 1.384 . S
C2806 H2797 0.929 . S
C2806 C2798 1.378 . S
C2806 C2801 1.350 . S
C2807 H2794 0.929 . S
C2807 C2799 1.433 . S
C2807 N2809 1.384 . S
N2808 C2804 1.427 . S
N2808 C2805 1.384 . S
N2809 C2801 1.427 . S
N2809 C2807 1.384 . S
H2810 C2816 0.930 . S
H2811 C2820 0.930 . S
H2812 C2825 0.929 . S
H2813 C2823 0.929 . S
H2814 C2818 0.929 . S
H2815 C2824 0.929 . S
C2816 H2810 0.930 . S
C2816 C2817 1.367 . S
C2816 C2824 1.378 . S
C2817 C2816 1.367 . S
C2817 C2825 1.433 1_655 S
C2818 H2814 0.929 . S
C2818 C2820 1.378 . S
C2818 C2822 1.350 . S
C2819 C2822 1.463 1_655 S
C2819 C2824 1.350 . S
C2819 N2827 1.427 1_655 S
C2820 H2811 0.930 . S
C2820 C2818 1.378 . S
C2820 C2821 1.367 . S
C2821 C2820 1.367 . S
C2821 C2823 1.433 1_455 S
C2822 C2818 1.350 . S
C2822 C2819 1.463 1_455 S
C2822 N2826 1.427 1_455 S
C2823 H2813 0.929 . S
C2823 C2821 1.433 1_655 S
C2823 N2826 1.384 . S
C2824 H2815 0.929 . S
C2824 C2816 1.378 . S
C2824 C2819 1.350 . S
C2825 H2812 0.929 . S
C2825 C2817 1.433 1_455 S
C2825 N2827 1.384 . S
N2826 C2822 1.427 1_655 S
N2826 C2823 1.384 . S
N2827 C2819 1.427 1_455 S
N2827 C2825 1.384 . S
H2828 C2834 0.930 . S
H2829 C2838 0.930 . S
H2830 C2843 0.929 . S
H2831 C2841 0.929 . S
H2832 C2836 0.929 . S
H2833 C2842 0.929 . S
C2834 H2828 0.930 . S
C2834 C2835 1.367 . S
C2834 C2842 1.378 . S
C2835 C2834 1.367 . S
C2835 C2843 1.433 . S
C2836 H2832 0.929 . S
C2836 C2838 1.378 . S
C2836 C2840 1.350 . S
C2837 C2840 1.463 . S
C2837 C2842 1.350 . S
C2837 N2845 1.427 . S
C2838 H2829 0.930 . S
C2838 C2836 1.378 . S
C2838 C2839 1.367 . S
C2839 C2838 1.367 . S
C2839 C2841 1.433 . S
C2840 C2836 1.350 . S
C2840 C2837 1.463 . S
C2840 N2844 1.427 . S
C2841 H2831 0.929 . S
C2841 C2839 1.433 . S
C2841 N2844 1.384 . S
C2842 H2833 0.929 . S
C2842 C2834 1.378 . S
C2842 C2837 1.350 . S
C2843 H2830 0.929 . S
C2843 C2835 1.433 . S
C2843 N2845 1.384 . S
N2844 C2840 1.427 . S
N2844 C2841 1.384 . S
N2845 C2837 1.427 . S
N2845 C2843 1.384 . S
H2846 C2852 0.930 . S
H2847 C2856 0.930 . S
H2848 C2861 0.929 . S
H2849 C2859 0.929 . S
H2850 C2854 0.929 . S
H2851 C2860 0.929 . S
C2852 H2846 0.930 . S
C2852 C2853 1.439 1_655 S
C2852 C2860 1.378 . S
C2853 C2852 1.439 1_455 S
C2853 C2861 1.360 1_565 S
C2854 H2850 0.929 . S
C2854 C2856 1.378 . S
C2854 C2858 1.375 . S
C2855 C2858 1.459 1_665 S
C2855 C2860 1.392 . S
C2855 N2863 1.386 1_665 S
C2856 H2847 0.930 . S
C2856 C2854 1.378 . S
C2856 C2857 1.422 1_455 S
C2857 C2856 1.422 1_655 S
C2857 C2859 1.377 1_545 S
C2858 C2854 1.375 . S
C2858 C2855 1.459 1_445 S
C2858 N2862 1.403 1_445 S
C2859 H2849 0.929 . S
C2859 C2857 1.377 1_565 S
C2859 N2862 1.384 . S
C2860 H2851 0.929 . S
C2860 C2852 1.378 . S
C2860 C2855 1.392 . S
C2861 H2848 0.929 . S
C2861 C2853 1.360 1_545 S
C2861 N2863 1.384 . S
N2862 C2858 1.403 1_665 S
N2862 C2859 1.384 . S
N2863 C2855 1.386 1_445 S
N2863 C2861 1.384 . S
H2864 C2870 0.930 . S
H2865 C2874 0.930 . S
H2866 C2879 0.929 . S
H2867 C2877 0.929 . S
H2868 C2872 0.929 . S
H2869 C2878 0.929 . S
C2870 H2864 0.930 . S
C2870 C2871 1.367 . S
C2870 C2878 1.378 . S
C2871 C2870 1.367 . S
C2871 C2879 1.433 . S
C2872 H2868 0.929 . S
C2872 C2874 1.378 . S
C2872 C2876 1.350 . S
C2873 C2876 1.463 . S
C2873 C2878 1.350 . S
C2873 N2881 1.427 . S
C2874 H2865 0.930 . S
C2874 C2872 1.378 . S
C2874 C2875 1.367 . S
C2875 C2874 1.367 . S
C2875 C2877 1.433 . S
C2876 C2872 1.350 . S
C2876 C2873 1.463 . S
C2876 N2880 1.427 . S
C2877 H2867 0.929 . S
C2877 C2875 1.433 . S
C2877 N2880 1.384 . S
C2878 H2869 0.929 . S
C2878 C2870 1.378 . S
C2878 C2873 1.350 . S
C2879 H2866 0.929 . S
C2879 C2871 1.433 . S
C2879 N2881 1.384 . S
N2880 C2876 1.427 . S
N2880 C2877 1.384 . S
N2881 C2873 1.427 . S
N2881 C2879 1.384 . S
H2882 C2888 0.930 . S
H2883 C2892 0.930 . S
H2884 C2897 0.929 . S
H2885 C2895 0.929 . S
H2886 C2890 0.929 . S
H2887 C2896 0.929 . S
C2888 H2882 0.930 . S
C2888 C2889 1.335 1_565 S
C2888 C2896 1.378 . S
C2889 C2888 1.335 1_545 S
C2889 C2897 1.465 . S
C2890 H2886 0.929 . S
C2890 C2892 1.378 . S
C2890 C2894 1.371 . S
C2891 C2894 1.462 1_565 S
C2891 C2896 1.353 . S
C2891 N2899 1.424 1_565 S
C2892 H2883 0.930 . S
C2892 C2890 1.378 . S
C2892 C2893 1.353 1_545 S
C2893 C2892 1.353 1_565 S
C2893 C2895 1.447 . S
C2894 C2890 1.371 . S
C2894 C2891 1.462 1_545 S
C2894 N2898 1.405 1_545 S
C2895 H2885 0.929 . S
C2895 C2893 1.447 . S
C2895 N2898 1.384 . S
C2896 H2887 0.929 . S
C2896 C2888 1.378 . S
C2896 C2891 1.353 . S
C2897 H2884 0.929 . S
C2897 C2889 1.465 . S
C2897 N2899 1.384 . S
N2898 C2894 1.405 1_565 S
N2898 C2895 1.384 . S
N2899 C2891 1.424 1_545 S
N2899 C2897 1.384 . S
H2900 C2906 0.930 . S
H2901 C2910 0.930 . S
H2902 C2915 0.929 . S
H2903 C2913 0.929 . S
H2904 C2908 0.929 . S
H2905 C2914 0.929 . S
C2906 H2900 0.930 . S
C2906 C2907 1.367 . S
C2906 C2914 1.378 . S
C2907 C2906 1.367 . S
C2907 C2915 1.433 . S
C2908 H2904 0.929 . S
C2908 C2910 1.378 . S
C2908 C2912 1.350 . S
C2909 C2912 1.463 . S
C2909 C2914 1.350 . S
C2909 N2917 1.427 . S
C2910 H2901 0.930 . S
C2910 C2908 1.378 . S
C2910 C2911 1.367 . S
C2911 C2910 1.367 . S
C2911 C2913 1.433 . S
C2912 C2908 1.350 . S
C2912 C2909 1.463 . S
C2912 N2916 1.427 . S
C2913 H2903 0.929 . S
C2913 C2911 1.433 . S
C2913 N2916 1.384 . S
C2914 H2905 0.929 . S
C2914 C2906 1.378 . S
C2914 C2909 1.350 . S
C2915 H2902 0.929 . S
C2915 C2907 1.433 . S
C2915 N2917 1.384 . S
N2916 C2912 1.427 . S
N2916 C2913 1.384 . S
N2917 C2909 1.427 . S
N2917 C2915 1.384 . S
H2918 C2924 0.930 . S
H2919 C2928 0.930 . S
H2920 C2933 0.929 . S
H2921 C2931 0.929 . S
H2922 C2926 0.929 . S
H2923 C2932 0.929 . S
C2924 H2918 0.930 . S
C2924 C2925 1.348 1_545 S
C2924 C2932 1.378 . S
C2925 C2924 1.348 1_565 S
C2925 C2933 1.453 . S
C2926 H2922 0.929 . S
C2926 C2928 1.378 . S
C2926 C2930 1.351 . S
C2927 C2930 1.462 . S
C2927 C2932 1.351 1_565 S
C2927 N2935 1.426 . S
C2928 H2919 0.930 . S
C2928 C2926 1.378 . S
C2928 C2929 1.355 1_565 S
C2929 C2928 1.355 1_545 S
C2929 C2931 1.445 . S
C2930 C2926 1.351 . S
C2930 C2927 1.462 . S
C2930 N2934 1.426 1_565 S
C2931 H2921 0.929 . S
C2931 C2929 1.445 . S
C2931 N2934 1.384 . S
C2932 H2923 0.929 . S
C2932 C2924 1.378 . S
C2932 C2927 1.351 1_545 S
C2933 H2920 0.929 . S
C2933 C2925 1.453 . S
C2933 N2935 1.384 . S
N2934 C2930 1.426 1_545 S
N2934 C2931 1.384 . S
N2935 C2927 1.426 . S
N2935 C2933 1.384 . S
H2936 C2942 0.930 . S
H2937 C2946 0.930 . S
H2938 C2951 0.929 . S
H2939 C2949 0.929 . S
H2940 C2944 0.929 . S
H2941 C2950 0.929 . S
C2942 H2936 0.930 . S
C2942 C2943 1.367 . S
C2942 C2950 1.378 . S
C2943 C2942 1.367 . S
C2943 C2951 1.433 . S
C2944 H2940 0.929 . S
C2944 C2946 1.378 . S
C2944 C2948 1.350 . S
C2945 C2948 1.463 . S
C2945 C2950 1.350 . S
C2945 N2953 1.427 . S
C2946 H2937 0.930 . S
C2946 C2944 1.378 . S
C2946 C2947 1.367 . S
C2947 C2946 1.367 . S
C2947 C2949 1.433 . S
C2948 C2944 1.350 . S
C2948 C2945 1.463 . S
C2948 N2952 1.427 . S
C2949 H2939 0.929 . S
C2949 C2947 1.433 . S
C2949 N2952 1.384 . S
C2950 H2941 0.929 . S
C2950 C2942 1.378 . S
C2950 C2945 1.350 . S
C2951 H2938 0.929 . S
C2951 C2943 1.433 . S
C2951 N2953 1.384 . S
N2952 C2948 1.427 . S
N2952 C2949 1.384 . S
N2953 C2945 1.427 . S
N2953 C2951 1.384 . S
H2954 C2960 0.930 . S
H2955 C2964 0.930 . S
H2956 C2969 0.929 . S
H2957 C2967 0.929 . S
H2958 C2962 0.929 . S
H2959 C2968 0.929 . S
C2960 H2954 0.930 . S
C2960 C2961 1.367 . S
C2960 C2968 1.378 . S
C2961 C2960 1.367 . S
C2961 C2969 1.433 . S
C2962 H2958 0.929 . S
C2962 C2964 1.378 . S
C2962 C2966 1.350 . S
C2963 C2966 1.463 . S
C2963 C2968 1.350 . S
C2963 N2971 1.427 . S
C2964 H2955 0.930 . S
C2964 C2962 1.378 . S
C2964 C2965 1.367 . S
C2965 C2964 1.367 . S
C2965 C2967 1.433 . S
C2966 C2962 1.350 . S
C2966 C2963 1.463 . S
C2966 N2970 1.427 . S
C2967 H2957 0.929 . S
C2967 C2965 1.433 . S
C2967 N2970 1.384 . S
C2968 H2959 0.929 . S
C2968 C2960 1.378 . S
C2968 C2963 1.350 . S
C2969 H2956 0.929 . S
C2969 C2961 1.433 . S
C2969 N2971 1.384 . S
N2970 C2966 1.427 . S
N2970 C2967 1.384 . S
N2971 C2963 1.427 . S
N2971 C2969 1.384 . S
H2972 C2978 0.930 . S
H2973 C2982 0.930 . S
H2974 C2987 0.929 . S
H2975 C2985 0.929 . S
H2976 C2980 0.929 . S
H2977 C2986 0.929 . S
C2978 H2972 0.930 . S
C2978 C2979 1.367 . S
C2978 C2986 1.378 . S
C2979 C2978 1.367 . S
C2979 C2987 1.433 . S
C2980 H2976 0.929 . S
C2980 C2982 1.378 . S
C2980 C2984 1.350 . S
C2981 C2984 1.463 . S
C2981 C2986 1.350 . S
C2981 N2989 1.427 . S
C2982 H2973 0.930 . S
C2982 C2980 1.378 . S
C2982 C2983 1.367 . S
C2983 C2982 1.367 . S
C2983 C2985 1.433 . S
C2984 C2980 1.350 . S
C2984 C2981 1.463 . S
C2984 N2988 1.427 . S
C2985 H2975 0.929 . S
C2985 C2983 1.433 . S
C2985 N2988 1.384 . S
C2986 H2977 0.929 . S
C2986 C2978 1.378 . S
C2986 C2981 1.350 . S
C2987 H2974 0.929 . S
C2987 C2979 1.433 . S
C2987 N2989 1.384 . S
N2988 C2984 1.427 . S
N2988 C2985 1.384 . S
N2989 C2981 1.427 . S
N2989 C2987 1.384 . S
H2990 C2996 0.930 . S
H2991 C3000 0.930 . S
H2992 C3005 0.929 . S
H2993 C3003 0.929 . S
H2994 C2998 0.929 . S
H2995 C3004 0.929 . S
C2996 H2990 0.930 . S
C2996 C2997 1.403 . S
C2996 C3004 1.378 . S
C2997 C2996 1.403 . S
C2997 C3005 1.399 1_565 S
C2998 H2994 0.929 . S
C2998 C3000 1.378 . S
C2998 C3002 1.356 . S
C2999 C3002 1.461 1_564 S
C2999 C3004 1.366 . S
C2999 N3007 1.413 1_565 S
C3000 H2991 0.930 . S
C3000 C2998 1.378 . S
C3000 C3001 1.393 . S
C3001 C3000 1.393 . S
C3001 C3003 1.408 1_545 S
C3002 C2998 1.356 . S
C3002 C2999 1.461 1_546 S
C3002 N3006 1.422 1_545 S
C3003 H2993 0.929 . S
C3003 C3001 1.408 1_565 S
C3003 N3006 1.384 . S
C3004 H2995 0.929 . S
C3004 C2996 1.378 . S
C3004 C2999 1.366 . S
C3005 H2992 0.929 . S
C3005 C2997 1.399 1_545 S
C3005 N3007 1.384 . S
N3006 C3002 1.422 1_565 S
N3006 C3003 1.384 . S
N3007 C2999 1.413 1_545 S
N3007 C3005 1.384 . S
C1287 C6 2.134 . S
C1291 C1006 2.134 . S
C1305 C966 2.109 . S
C1309 C46 2.097 . S
C1323 C1086 2.120 . S
C1327 C86 2.109 . S
C1341 C126 2.133 . S
C1345 C1046 2.134 . S
C1359 C175 2.130 . S
C1363 C1175 2.130 . S
C1377 C215 2.109 . S
C1381 C1135 2.099 . S
C1395 C255 2.120 . S
C1399 C1255 2.109 . S
C1413 C1215 2.143 . S
C1417 C295 2.143 . S
C1431 C326 2.117 . S
C1435 C686 2.108 . S
C1449 C366 2.143 . S
C1453 C646 2.143 . S
C1467 C406 2.132 . S
C1471 C766 2.133 . S
C1485 C726 2.117 . S
C1489 C446 2.107 . S
C1503 C495 2.111 . S
C1507 C855 2.101 . S
C1521 C535 2.132 . S
C1525 C815 2.133 . S
C1539 C935 2.143 . S
C1543 C575 2.143 . S
C1557 C615 2.118 . S
C1561 C895 2.107 . S
C1575 C9 1.486 . S
C1579 C129 1.478 . S
C1593 C49 1.476 . S
C1597 C89 1.487 . S
C1611 C298 1.484 . S
C1615 C178 1.472 . S
C1629 C258 1.487 . S
C1633 C218 1.476 . S
C1647 C329 1.461 1_545 S
C1651 C449 1.461 1_545 S
C1665 C369 1.479 . S
C1669 C409 1.470 . S
C1683 C498 1.461 1_565 S
C1687 C618 1.461 1_565 S
C1701 C578 1.466 . S
C1705 C538 1.474 . S
C1719 C649 1.487 . S
C1723 C769 1.474 . S
C1737 C689 1.491 . S
C1741 C729 1.479 . S
C1755 C938 1.486 . S
C1759 C818 1.472 . S
C1773 C858 1.479 . S
C1777 C898 1.482 . S
C1791 C1089 1.465 1_545 S
C1795 C969 1.465 1_545 S
C1809 C1009 1.480 . S
C1813 C1049 1.467 . S
C1827 C1258 1.463 1_565 S
C1831 C1138 1.463 1_565 S
C1845 C1218 1.464 . S
C1849 C1178 1.478 . S
C1863 C55 2.198 . S
C1867 C15 2.198 . S
C1881 C95 2.204 . S
C1885 C135 2.205 . S
C1899 C206 2.210 . S
C1903 C166 2.211 . S
C1917 C286 2.211 . S
C1921 C246 2.212 . S
C1935 C335 2.221 . S
C1939 C375 2.233 . S
C1953 C415 2.227 . S
C1957 C455 2.238 . S
C1971 C526 2.223 . S
C1975 C486 2.233 . S
C1989 C566 2.231 . S
C1993 C606 2.242 . S
C2007 C655 2.206 . S
C2011 C695 2.205 . S
C2025 C775 2.199 . S
C2029 C735 2.198 . S
C2043 C806 2.199 . S
C2047 C846 2.199 . S
C2061 C886 2.211 . S
C2065 C926 2.211 . S
C2079 C975 2.232 . S
C2083 C1015 2.242 . S
C2097 C1055 2.233 . S
C2101 C1095 2.242 . S
C2115 C1166 2.236 . S
C2119 C1126 2.247 . S
C2133 C1206 2.230 . S
C2137 C1246 2.241 . S
C2151 C10 2.450 . S
C2155 C19 2.450 . S
C2169 C50 2.447 . S
C2173 C59 2.447 1_655 S
C2187 C90 2.441 . S
C2191 C99 2.441 . S
C2205 C139 2.445 1_655 S
C2209 C130 2.445 . S
C2223 C170 2.447 . S
C2227 C179 2.447 . S
C2241 C219 2.441 . S
C2245 C210 2.441 1_455 S
C2259 C250 2.447 . S
C2263 C259 2.447 . S
C2277 C290 2.450 1_455 S
C2281 C299 2.450 . S
C2295 C339 2.445 . S
C2299 C330 2.445 . S
C2313 C370 2.442 . S
C2317 C379 2.442 1_655 S
C2331 C410 2.447 . S
C2335 C419 2.447 . S
C2349 C459 2.441 1_655 S
C2353 C450 2.441 . S
C2367 C490 2.442 . S
C2371 C499 2.442 . S
C2385 C539 2.446 . S
C2389 C530 2.446 1_455 S
C2403 C579 2.441 . S
C2407 C570 2.441 . S
C2421 C610 2.449 1_455 S
C2425 C619 2.449 . S
C2439 C650 2.450 . S
C2443 C659 2.450 . S
C2457 C699 2.449 . S
C2461 C690 2.449 1_455 S
C2475 C739 2.445 . S
C2479 C730 2.445 . S
C2493 C770 2.444 1_455 S
C2497 C779 2.444 . S
C2511 C819 2.449 . S
C2515 C810 2.449 . S
C2529 C859 2.448 1_655 S
C2533 C850 2.448 . S
C2547 C890 2.449 . S
C2551 C899 2.449 . S
C2565 C939 2.443 1_655 S
C2569 C930 2.443 . S
C2583 C979 2.450 . S
C2587 C970 2.450 . S
C2601 C1010 2.443 1_455 S
C2605 C1019 2.443 . S
C2619 C1059 2.446 . S
C2623 C1050 2.446 . S
C2637 C1099 2.449 . S
C2641 C1090 2.449 1_455 S
C2655 C1139 2.450 . S
C2659 C1130 2.450 . S
C2673 C1179 2.450 1_655 S
C2677 C1170 2.450 . S
C2691 C1210 2.449 . S
C2695 C1219 2.449 . S
C2709 C1250 2.443 . S
C2713 C1259 2.443 1_655 S
C2727 C18 1.468 . S
C2731 C169 1.468 . S
C2745 C1169 1.469 . S
C2749 C58 1.469 . S
C2763 C569 1.471 . S
C2767 C98 1.471 . S
C2781 C138 1.469 . S
C2785 C929 1.469 . S
C2799 C209 1.475 . S
C2803 C1018 1.475 . S
C2817 C249 1.482 . S
C2821 C418 1.482 . S
C2835 C289 1.469 . S
C2839 C778 1.469 . S
C2853 C338 1.458 1_565 S
C2857 C489 1.458 1_545 S
C2871 C849 1.469 . S
C2875 C378 1.469 . S
C2889 C1249 1.457 1_545 S
C2893 C458 1.457 1_565 S
C2907 C529 1.470 . S
C2911 C698 1.470 . S
C2925 C1098 1.457 1_565 S
C2929 C609 1.457 1_545 S
C2943 C658 1.470 . S
C2947 C809 1.470 . S
C2961 C1209 1.471 . S
C2965 C738 1.471 . S
C2979 C889 1.482 . S
C2983 C1058 1.482 . S
C2997 C978 1.457 1_565 S
C3001 C1129 1.457 1_545 S
