# Generated by pormake.
# Topology wse, (4)-cn, num edge types: 1
# Building blocks:
#     Node 0, Type 0, BuildingBlock: KUFVIS_clean_sbu_0, # of connection points: 4
#     Node 1, Type 0, BuildingBlock: KUFVIS_clean_sbu_0, # of connection points: 4
#     Node 2, Type 0, BuildingBlock: KUFVIS_clean_sbu_0, # of connection points: 4
#     Node 3, Type 0, BuildingBlock: KUFVIS_clean_sbu_0, # of connection points: 4
#     Node 4, Type 0, BuildingBlock: KUFVIS_clean_sbu_0, # of connection points: 4
#     Node 5, Type 0, BuildingBlock: KUFVIS_clean_sbu_0, # of connection points: 4
#     Node 6, Type 0, BuildingBlock: KUFVIS_clean_sbu_0, # of connection points: 4
#     Node 7, Type 0, BuildingBlock: KUFVIS_clean_sbu_0, # of connection points: 4
#     Node 8, Type 0, BuildingBlock: KUFVIS_clean_sbu_0, # of connection points: 4
#     Node 9, Type 0, BuildingBlock: KUFVIS_clean_sbu_0, # of connection points: 4
#     Node 10, Type 0, BuildingBlock: KUFVIS_clean_sbu_0, # of connection points: 4
#     Node 11, Type 0, BuildingBlock: KUFVIS_clean_sbu_0, # of connection points: 4
#     Node 12, Type 0, BuildingBlock: KUFVIS_clean_sbu_0, # of connection points: 4
#     Node 13, Type 0, BuildingBlock: KUFVIS_clean_sbu_0, # of connection points: 4
#     Node 14, Type 0, BuildingBlock: KUFVIS_clean_sbu_0, # of connection points: 4
#     Node 15, Type 0, BuildingBlock: KUFVIS_clean_sbu_0, # of connection points: 4
#     Node 16, Type 0, BuildingBlock: KUFVIS_clean_sbu_0, # of connection points: 4
#     Node 17, Type 0, BuildingBlock: KUFVIS_clean_sbu_0, # of connection points: 4
#     Node 18, Type 0, BuildingBlock: KUFVIS_clean_sbu_0, # of connection points: 4
#     Node 19, Type 0, BuildingBlock: KUFVIS_clean_sbu_0, # of connection points: 4
#     Node 20, Type 0, BuildingBlock: KUFVIS_clean_sbu_0, # of connection points: 4
#     Node 21, Type 0, BuildingBlock: KUFVIS_clean_sbu_0, # of connection points: 4
#     Node 22, Type 0, BuildingBlock: KUFVIS_clean_sbu_0, # of connection points: 4
#     Node 23, Type 0, BuildingBlock: KUFVIS_clean_sbu_0, # of connection points: 4
#     Node 24, Type 0, BuildingBlock: KUFVIS_clean_sbu_0, # of connection points: 4
#     Node 25, Type 0, BuildingBlock: KUFVIS_clean_sbu_0, # of connection points: 4
#     Node 26, Type 0, BuildingBlock: KUFVIS_clean_sbu_0, # of connection points: 4
#     Node 27, Type 0, BuildingBlock: KUFVIS_clean_sbu_0, # of connection points: 4
#     Node 28, Type 0, BuildingBlock: KUFVIS_clean_sbu_0, # of connection points: 4
#     Node 29, Type 0, BuildingBlock: KUFVIS_clean_sbu_0, # of connection points: 4
#     Node 30, Type 0, BuildingBlock: KUFVIS_clean_sbu_0, # of connection points: 4
#     Node 31, Type 0, BuildingBlock: KUFVIS_clean_sbu_0, # of connection points: 4
#     Node 32, Type 0, BuildingBlock: KUFVIS_clean_sbu_0, # of connection points: 4
#     Node 33, Type 0, BuildingBlock: KUFVIS_clean_sbu_0, # of connection points: 4
#     Node 34, Type 0, BuildingBlock: KUFVIS_clean_sbu_0, # of connection points: 4
#     Node 35, Type 0, BuildingBlock: KUFVIS_clean_sbu_0, # of connection points: 4
#     Node 36, Type 0, BuildingBlock: KUFVIS_clean_sbu_0, # of connection points: 4
#     Node 37, Type 0, BuildingBlock: KUFVIS_clean_sbu_0, # of connection points: 4
#     Node 38, Type 0, BuildingBlock: KUFVIS_clean_sbu_0, # of connection points: 4
#     Node 39, Type 0, BuildingBlock: KUFVIS_clean_sbu_0, # of connection points: 4
#     Node 40, Type 0, BuildingBlock: KUFVIS_clean_sbu_0, # of connection points: 4
#     Node 41, Type 0, BuildingBlock: KUFVIS_clean_sbu_0, # of connection points: 4
#     Node 42, Type 0, BuildingBlock: KUFVIS_clean_sbu_0, # of connection points: 4
#     Node 43, Type 0, BuildingBlock: KUFVIS_clean_sbu_0, # of connection points: 4
#     Node 44, Type 0, BuildingBlock: KUFVIS_clean_sbu_0, # of connection points: 4
#     Node 45, Type 0, BuildingBlock: KUFVIS_clean_sbu_0, # of connection points: 4
#     Node 46, Type 0, BuildingBlock: KUFVIS_clean_sbu_0, # of connection points: 4
#     Node 47, Type 0, BuildingBlock: KUFVIS_clean_sbu_0, # of connection points: 4
#     Node 48, Type 0, BuildingBlock: KUFVIS_clean_sbu_0, # of connection points: 4
#     Node 49, Type 0, BuildingBlock: KUFVIS_clean_sbu_0, # of connection points: 4
#     Node 50, Type 0, BuildingBlock: KUFVIS_clean_sbu_0, # of connection points: 4
#     Node 51, Type 0, BuildingBlock: KUFVIS_clean_sbu_0, # of connection points: 4
#     Node 52, Type 0, BuildingBlock: KUFVIS_clean_sbu_0, # of connection points: 4
#     Node 53, Type 0, BuildingBlock: KUFVIS_clean_sbu_0, # of connection points: 4
#     Node 54, Type 0, BuildingBlock: KUFVIS_clean_sbu_0, # of connection points: 4
#     Node 55, Type 0, BuildingBlock: KUFVIS_clean_sbu_0, # of connection points: 4
#     Node 56, Type 0, BuildingBlock: KUFVIS_clean_sbu_0, # of connection points: 4
#     Node 57, Type 0, BuildingBlock: KUFVIS_clean_sbu_0, # of connection points: 4
#     Node 58, Type 0, BuildingBlock: KUFVIS_clean_sbu_0, # of connection points: 4
#     Node 59, Type 0, BuildingBlock: KUFVIS_clean_sbu_0, # of connection points: 4
#     Node 60, Type 0, BuildingBlock: KUFVIS_clean_sbu_0, # of connection points: 4
#     Node 61, Type 0, BuildingBlock: KUFVIS_clean_sbu_0, # of connection points: 4
#     Node 62, Type 0, BuildingBlock: KUFVIS_clean_sbu_0, # of connection points: 4
#     Node 63, Type 0, BuildingBlock: KUFVIS_clean_sbu_0, # of connection points: 4
#     Node 64, Type 0, BuildingBlock: KUFVIS_clean_sbu_0, # of connection points: 4
#     Node 65, Type 0, BuildingBlock: KUFVIS_clean_sbu_0, # of connection points: 4
#     Node 66, Type 0, BuildingBlock: KUFVIS_clean_sbu_0, # of connection points: 4
#     Node 67, Type 0, BuildingBlock: KUFVIS_clean_sbu_0, # of connection points: 4
#     Node 68, Type 0, BuildingBlock: KUFVIS_clean_sbu_0, # of connection points: 4
#     Node 69, Type 0, BuildingBlock: KUFVIS_clean_sbu_0, # of connection points: 4
#     Node 70, Type 0, BuildingBlock: KUFVIS_clean_sbu_0, # of connection points: 4
#     Node 71, Type 0, BuildingBlock: KUFVIS_clean_sbu_0, # of connection points: 4
#     Node 72, Type 0, BuildingBlock: KUFVIS_clean_sbu_0, # of connection points: 4
#     Node 73, Type 0, BuildingBlock: KUFVIS_clean_sbu_0, # of connection points: 4
#     Node 74, Type 0, BuildingBlock: KUFVIS_clean_sbu_0, # of connection points: 4
#     Node 75, Type 0, BuildingBlock: KUFVIS_clean_sbu_0, # of connection points: 4
#     Node 76, Type 0, BuildingBlock: KUFVIS_clean_sbu_0, # of connection points: 4
#     Node 77, Type 0, BuildingBlock: KUFVIS_clean_sbu_0, # of connection points: 4
#     Node 78, Type 0, BuildingBlock: KUFVIS_clean_sbu_0, # of connection points: 4
#     Node 79, Type 0, BuildingBlock: KUFVIS_clean_sbu_0, # of connection points: 4
#     Node 80, Type 0, BuildingBlock: KUFVIS_clean_sbu_0, # of connection points: 4
#     Node 81, Type 0, BuildingBlock: KUFVIS_clean_sbu_0, # of connection points: 4
#     Node 82, Type 0, BuildingBlock: KUFVIS_clean_sbu_0, # of connection points: 4
#     Node 83, Type 0, BuildingBlock: KUFVIS_clean_sbu_0, # of connection points: 4
#     Node 84, Type 0, BuildingBlock: KUFVIS_clean_sbu_0, # of connection points: 4
#     Node 85, Type 0, BuildingBlock: KUFVIS_clean_sbu_0, # of connection points: 4
#     Node 86, Type 0, BuildingBlock: KUFVIS_clean_sbu_0, # of connection points: 4
#     Node 87, Type 0, BuildingBlock: KUFVIS_clean_sbu_0, # of connection points: 4
#     Node 88, Type 0, BuildingBlock: KUFVIS_clean_sbu_0, # of connection points: 4
#     Node 89, Type 0, BuildingBlock: KUFVIS_clean_sbu_0, # of connection points: 4
#     Node 90, Type 0, BuildingBlock: KUFVIS_clean_sbu_0, # of connection points: 4
#     Node 91, Type 0, BuildingBlock: KUFVIS_clean_sbu_0, # of connection points: 4
#     Node 92, Type 0, BuildingBlock: KUFVIS_clean_sbu_0, # of connection points: 4
#     Node 93, Type 0, BuildingBlock: KUFVIS_clean_sbu_0, # of connection points: 4
#     Node 94, Type 0, BuildingBlock: KUFVIS_clean_sbu_0, # of connection points: 4
#     Node 95, Type 0, BuildingBlock: KUFVIS_clean_sbu_0, # of connection points: 4
#     Edge 96, Type (0, 0), None
#     Edge 97, Type (0, 0), None
#     Edge 98, Type (0, 0), None
#     Edge 99, Type (0, 0), None
#     Edge 100, Type (0, 0), None
#     Edge 101, Type (0, 0), None
#     Edge 102, Type (0, 0), None
#     Edge 103, Type (0, 0), None
#     Edge 104, Type (0, 0), None
#     Edge 105, Type (0, 0), None
#     Edge 106, Type (0, 0), None
#     Edge 107, Type (0, 0), None
#     Edge 108, Type (0, 0), None
#     Edge 109, Type (0, 0), None
#     Edge 110, Type (0, 0), None
#     Edge 111, Type (0, 0), None
#     Edge 112, Type (0, 0), None
#     Edge 113, Type (0, 0), None
#     Edge 114, Type (0, 0), None
#     Edge 115, Type (0, 0), None
#     Edge 116, Type (0, 0), None
#     Edge 117, Type (0, 0), None
#     Edge 118, Type (0, 0), None
#     Edge 119, Type (0, 0), None
#     Edge 120, Type (0, 0), None
#     Edge 121, Type (0, 0), None
#     Edge 122, Type (0, 0), None
#     Edge 123, Type (0, 0), None
#     Edge 124, Type (0, 0), None
#     Edge 125, Type (0, 0), None
#     Edge 126, Type (0, 0), None
#     Edge 127, Type (0, 0), None
#     Edge 128, Type (0, 0), None
#     Edge 129, Type (0, 0), None
#     Edge 130, Type (0, 0), None
#     Edge 131, Type (0, 0), None
#     Edge 132, Type (0, 0), None
#     Edge 133, Type (0, 0), None
#     Edge 134, Type (0, 0), None
#     Edge 135, Type (0, 0), None
#     Edge 136, Type (0, 0), None
#     Edge 137, Type (0, 0), None
#     Edge 138, Type (0, 0), None
#     Edge 139, Type (0, 0), None
#     Edge 140, Type (0, 0), None
#     Edge 141, Type (0, 0), None
#     Edge 142, Type (0, 0), None
#     Edge 143, Type (0, 0), None
#     Edge 144, Type (0, 0), None
#     Edge 145, Type (0, 0), None
#     Edge 146, Type (0, 0), None
#     Edge 147, Type (0, 0), None
#     Edge 148, Type (0, 0), None
#     Edge 149, Type (0, 0), None
#     Edge 150, Type (0, 0), None
#     Edge 151, Type (0, 0), None
#     Edge 152, Type (0, 0), None
#     Edge 153, Type (0, 0), None
#     Edge 154, Type (0, 0), None
#     Edge 155, Type (0, 0), None
#     Edge 156, Type (0, 0), None
#     Edge 157, Type (0, 0), None
#     Edge 158, Type (0, 0), None
#     Edge 159, Type (0, 0), None
#     Edge 160, Type (0, 0), None
#     Edge 161, Type (0, 0), None
#     Edge 162, Type (0, 0), None
#     Edge 163, Type (0, 0), None
#     Edge 164, Type (0, 0), None
#     Edge 165, Type (0, 0), None
#     Edge 166, Type (0, 0), None
#     Edge 167, Type (0, 0), None
#     Edge 168, Type (0, 0), None
#     Edge 169, Type (0, 0), None
#     Edge 170, Type (0, 0), None
#     Edge 171, Type (0, 0), None
#     Edge 172, Type (0, 0), None
#     Edge 173, Type (0, 0), None
#     Edge 174, Type (0, 0), None
#     Edge 175, Type (0, 0), None
#     Edge 176, Type (0, 0), None
#     Edge 177, Type (0, 0), None
#     Edge 178, Type (0, 0), None
#     Edge 179, Type (0, 0), None
#     Edge 180, Type (0, 0), None
#     Edge 181, Type (0, 0), None
#     Edge 182, Type (0, 0), None
#     Edge 183, Type (0, 0), None
#     Edge 184, Type (0, 0), None
#     Edge 185, Type (0, 0), None
#     Edge 186, Type (0, 0), None
#     Edge 187, Type (0, 0), None
#     Edge 188, Type (0, 0), None
#     Edge 189, Type (0, 0), None
#     Edge 190, Type (0, 0), None
#     Edge 191, Type (0, 0), None
#     Edge 192, Type (0, 0), None
#     Edge 193, Type (0, 0), None
#     Edge 194, Type (0, 0), None
#     Edge 195, Type (0, 0), None
#     Edge 196, Type (0, 0), None
#     Edge 197, Type (0, 0), None
#     Edge 198, Type (0, 0), None
#     Edge 199, Type (0, 0), None
#     Edge 200, Type (0, 0), None
#     Edge 201, Type (0, 0), None
#     Edge 202, Type (0, 0), None
#     Edge 203, Type (0, 0), None
#     Edge 204, Type (0, 0), None
#     Edge 205, Type (0, 0), None
#     Edge 206, Type (0, 0), None
#     Edge 207, Type (0, 0), None
#     Edge 208, Type (0, 0), None
#     Edge 209, Type (0, 0), None
#     Edge 210, Type (0, 0), None
#     Edge 211, Type (0, 0), None
#     Edge 212, Type (0, 0), None
#     Edge 213, Type (0, 0), None
#     Edge 214, Type (0, 0), None
#     Edge 215, Type (0, 0), None
#     Edge 216, Type (0, 0), None
#     Edge 217, Type (0, 0), None
#     Edge 218, Type (0, 0), None
#     Edge 219, Type (0, 0), None
#     Edge 220, Type (0, 0), None
#     Edge 221, Type (0, 0), None
#     Edge 222, Type (0, 0), None
#     Edge 223, Type (0, 0), None
#     Edge 224, Type (0, 0), None
#     Edge 225, Type (0, 0), None
#     Edge 226, Type (0, 0), None
#     Edge 227, Type (0, 0), None
#     Edge 228, Type (0, 0), None
#     Edge 229, Type (0, 0), None
#     Edge 230, Type (0, 0), None
#     Edge 231, Type (0, 0), None
#     Edge 232, Type (0, 0), None
#     Edge 233, Type (0, 0), None
#     Edge 234, Type (0, 0), None
#     Edge 235, Type (0, 0), None
#     Edge 236, Type (0, 0), None
#     Edge 237, Type (0, 0), None
#     Edge 238, Type (0, 0), None
#     Edge 239, Type (0, 0), None
#     Edge 240, Type (0, 0), None
#     Edge 241, Type (0, 0), None
#     Edge 242, Type (0, 0), None
#     Edge 243, Type (0, 0), None
#     Edge 244, Type (0, 0), None
#     Edge 245, Type (0, 0), None
#     Edge 246, Type (0, 0), None
#     Edge 247, Type (0, 0), None
#     Edge 248, Type (0, 0), None
#     Edge 249, Type (0, 0), None
#     Edge 250, Type (0, 0), None
#     Edge 251, Type (0, 0), None
#     Edge 252, Type (0, 0), None
#     Edge 253, Type (0, 0), None
#     Edge 254, Type (0, 0), None
#     Edge 255, Type (0, 0), None
#     Edge 256, Type (0, 0), None
#     Edge 257, Type (0, 0), None
#     Edge 258, Type (0, 0), None
#     Edge 259, Type (0, 0), None
#     Edge 260, Type (0, 0), None
#     Edge 261, Type (0, 0), None
#     Edge 262, Type (0, 0), None
#     Edge 263, Type (0, 0), None
#     Edge 264, Type (0, 0), None
#     Edge 265, Type (0, 0), None
#     Edge 266, Type (0, 0), None
#     Edge 267, Type (0, 0), None
#     Edge 268, Type (0, 0), None
#     Edge 269, Type (0, 0), None
#     Edge 270, Type (0, 0), None
#     Edge 271, Type (0, 0), None
#     Edge 272, Type (0, 0), None
#     Edge 273, Type (0, 0), None
#     Edge 274, Type (0, 0), None
#     Edge 275, Type (0, 0), None
#     Edge 276, Type (0, 0), None
#     Edge 277, Type (0, 0), None
#     Edge 278, Type (0, 0), None
#     Edge 279, Type (0, 0), None
#     Edge 280, Type (0, 0), None
#     Edge 281, Type (0, 0), None
#     Edge 282, Type (0, 0), None
#     Edge 283, Type (0, 0), None
#     Edge 284, Type (0, 0), None
#     Edge 285, Type (0, 0), None
#     Edge 286, Type (0, 0), None
#     Edge 287, Type (0, 0), None
# Relax obj value: 0.280
# Max RMSD: 0.138
# Mean RMSD: 0.136
data_MOF--net-wse--node1-KUFVIS_clean_sbu_0--edge1-none
_symmetry_space_group_name_H-M    P1
_symmetry_Int_Tables_number       1
_symmetry_cell_setting            triclinic
loop_
_symmetry_equiv_pos_as_xyz
'x, y, z'
_cell_length_a     46.731528
_cell_length_b     46.752932
_cell_length_c     46.746801
_cell_angle_alpha  90.025764
_cell_angle_beta   89.963698
_cell_angle_gamma 90.023469
loop_
_atom_site_label
_atom_site_type_symbol
_atom_site_fract_x
_atom_site_fract_y
_atom_site_fract_z
_atom_type_partial_charge
Mn0 Mn 0.06603 0.14915 0.41274 0.0
Mn1 Mn 0.05664 0.17158 0.48361 0.0
C2 C 0.08232 0.122 0.47404 0.0
C3 C 0.09274 0.11247 0.38339 0.0
C4 C 0.08777 0.21678 0.39714 0.0
O5 O 0.03299 0.1104 0.40739 0.0
O6 O 0.0343 0.124 0.44534 0.0
C7 C 0.96548 0.17132 0.5456 0.0
N8 N 0.00759 0.18493 0.52665 0.0
C9 C 0.01453 0.18248 0.58792 0.0
C10 C 0.98737 0.16854 0.59749 0.0
C11 C 0.96304 0.16259 0.57798 0.0
C12 C 0.02773 0.19036 0.5526 0.0
H13 H 0.94513 0.16693 0.53937 0.0
C14 C 0.01292 0.10832 0.42664 0.0
O15 O 0.09279 0.13869 0.37898 0.0
O16 O 0.07489 0.10682 0.40286 0.0
N17 N 0.07805 0.19823 0.53438 0.0
C18 C 0.10634 0.21143 0.54042 0.0
C19 C 0.11469 0.23662 0.5585 0.0
C20 C 0.0913 0.25659 0.57258 0.0
C21 C 0.03722 0.22739 0.56737 0.0
C22 C 0.04988 0.20447 0.55043 0.0
H23 H 0.12476 0.20189 0.53068 0.0
O24 O 0.07996 0.14266 0.45628 0.0
O25 O 0.08014 0.1438 0.45773 0.0
O26 O 0.09221 0.19198 0.41107 0.0
O27 O 0.0884 0.18989 0.41754 0.0
C28 C 0.02262 0.20915 0.59872 0.0
C29 C 0.02936 0.18272 0.61215 0.0
H30 H 0.98334 0.16285 0.61973 0.0
H31 H 0.9433 0.15601 0.58784 0.0
H32 H 0.10454 0.24941 0.57099 0.0
H33 H 0.08771 0.28228 0.56769 0.0
H34 H 0.01828 0.21784 0.62128 0.0
H35 H 0.02323 0.17621 0.63374 0.0
Mn36 Mn 0.83912 0.0751 0.4124 0.0
Mn37 Mn 0.80937 0.05613 0.48376 0.0
C38 C 0.85992 0.0825 0.47613 0.0
C39 C 0.87199 0.08775 0.38086 0.0
C40 C 0.76623 0.08964 0.39689 0.0
O41 O 0.87155 0.03438 0.40707 0.0
O42 O 0.85706 0.03432 0.44506 0.0
C43 C 0.81003 0.96514 0.54553 0.0
N44 N 0.79621 0.00725 0.52678 0.0
C45 C 0.79855 0.01416 0.58804 0.0
C46 C 0.81268 0.9869 0.59754 0.0
C47 C 0.81866 0.96262 0.57792 0.0
C48 C 0.79063 0.02743 0.55259 0.0
H49 H 0.81446 0.94484 0.53915 0.0
C50 C 0.8725 0.01348 0.42594 0.0
O51 O 0.84612 0.08251 0.37138 0.0
O52 O 0.88013 0.07372 0.40368 0.0
N53 N 0.7829 0.0778 0.53432 0.0
C54 C 0.77053 0.10622 0.54002 0.0
C55 C 0.7461 0.11557 0.5574 0.0
C56 C 0.72775 0.09395 0.57181 0.0
C57 C 0.75518 0.03797 0.56664 0.0
C58 C 0.77655 0.05011 0.55033 0.0
H59 H 0.78009 0.12425 0.53012 0.0
O60 O 0.84004 0.07772 0.45802 0.0
O61 O 0.83917 0.07741 0.45942 0.0
O62 O 0.79088 0.0879 0.41155 0.0
O63 O 0.79261 0.08695 0.41765 0.0
C64 C 0.77232 0.02229 0.59855 0.0
C65 C 0.79854 0.02905 0.61231 0.0
H66 H 0.81835 0.9829 0.61976 0.0
H67 H 0.82523 0.94288 0.5877 0.0
H68 H 0.73387 0.10534 0.57099 0.0
H69 H 0.70078 0.09 0.56811 0.0
H70 H 0.76343 0.01789 0.62122 0.0
H71 H 0.80494 0.02286 0.63387 0.0
Mn72 Mn 0.90629 0.83904 0.41249 0.0
Mn73 Mn 0.92527 0.80912 0.48388 0.0
C74 C 0.89879 0.85967 0.47629 0.0
C75 C 0.8937 0.87195 0.3809 0.0
C76 C 0.89179 0.76602 0.39682 0.0
O77 O 0.94721 0.87121 0.40714 0.0
O78 O 0.94712 0.85682 0.44521 0.0
C79 C 0.01631 0.80962 0.54563 0.0
N80 N 0.9743 0.79611 0.52697 0.0
C81 C 0.96712 0.79833 0.58806 0.0
C82 C -0.00565 0.81222 0.59767 0.0
C83 C 0.01879 0.81825 0.57807 0.0
C84 C 0.95417 0.7907 0.55274 0.0
H85 H 0.03658 0.81413 0.53922 0.0
C86 C 0.968 0.87225 0.42611 0.0
O87 O 0.89904 0.8461 0.37144 0.0
O88 O 0.90746 0.88008 0.40389 0.0
N89 N 0.90416 0.78248 0.53488 0.0
C90 C 0.87574 0.76945 0.54096 0.0
C91 C 0.86747 0.74399 0.55927 0.0
C92 C 0.89186 0.72315 0.57336 0.0
C93 C 0.94524 0.75223 0.56782 0.0
C94 C 0.93325 0.77582 0.54985 0.0
H95 H 0.85731 0.77915 0.53104 0.0
O96 O 0.90368 0.83985 0.45814 0.0
O97 O 0.90401 0.83896 0.45954 0.0
O98 O 0.89366 0.79072 0.41143 0.0
O99 O 0.89458 0.79245 0.41754 0.0
C100 C 0.95909 0.77135 0.59883 0.0
C101 C 0.95214 0.7978 0.61226 0.0
H102 H -0.00171 0.81802 0.61987 0.0
H103 H 0.03854 0.82488 0.58781 0.0
H104 H 0.87723 0.73102 0.57146 0.0
H105 H 0.89435 0.69813 0.56793 0.0
H106 H 0.96328 0.76286 0.62142 0.0
H107 H 0.95823 0.80458 0.63378 0.0
Mn108 Mn 0.14251 0.90587 0.41242 0.0
Mn109 Mn 0.17229 0.92485 0.48384 0.0
C110 C 0.12173 0.8984 0.47615 0.0
C111 C 0.10962 0.89333 0.38083 0.0
C112 C 0.21543 0.89144 0.39684 0.0
O113 O 0.11009 0.94656 0.40718 0.0
O114 O 0.12466 0.94659 0.4452 0.0
C115 C 0.17151 0.01575 0.54573 0.0
N116 N 0.18542 0.97363 0.52693 0.0
C117 C 0.1829 0.96672 0.58815 0.0
C118 C 0.16875 -0.0061 0.59768 0.0
C119 C 0.16279 0.0182 0.57812 0.0
C120 C 0.19091 0.9535 0.5528 0.0
H121 H 0.16709 0.03603 0.53938 0.0
C122 C 0.10925 0.96738 0.42613 0.0
O123 O 0.13551 0.89857 0.37137 0.0
O124 O 0.10149 0.90726 0.40374 0.0
N125 N 0.19871 0.90322 0.53443 0.0
C126 C 0.21146 0.87486 0.54019 0.0
C127 C 0.23618 0.86589 0.55782 0.0
C128 C 0.25517 0.88813 0.57209 0.0
C129 C 0.22689 0.94337 0.56706 0.0
C130 C 0.20492 0.93095 0.55064 0.0
H131 H 0.2019 0.85668 0.53036 0.0
O132 O 0.14163 0.90323 0.45804 0.0
O133 O 0.1425 0.90355 0.45944 0.0
O134 O 0.19077 0.8932 0.41152 0.0
O135 O 0.18904 0.89415 0.41763 0.0
C136 C 0.20938 0.95861 0.59879 0.0
C137 C 0.18304 0.95186 0.61237 0.0
H138 H 0.16297 -0.00216 0.61989 0.0
H139 H 0.15617 0.0379 0.58797 0.0
H140 H 0.24867 0.87609 0.57098 0.0
H141 H 0.28164 0.89214 0.56784 0.0
H142 H 0.21819 0.96302 0.62136 0.0
H143 H 0.1766 0.95796 0.63396 0.0
Mn144 Mn 0.07548 0.83902 0.56898 0.0
Mn145 Mn 0.05646 0.80914 0.4976 0.0
C146 C 0.08295 0.85967 0.50522 0.0
C147 C 0.08807 0.87193 0.60052 0.0
C148 C 0.08994 0.76605 0.58459 0.0
O149 O 0.03461 0.87122 0.57435 0.0
O150 O 0.03466 0.85681 0.53629 0.0
C151 C 0.96545 0.80965 0.43584 0.0
N152 N 0.00747 0.79611 0.45451 0.0
C153 C 0.01461 0.79835 0.39337 0.0
C154 C 0.98738 0.81226 0.38379 0.0
C155 C 0.96297 0.81827 0.40341 0.0
C156 C 0.02762 0.79065 0.42872 0.0
H157 H 0.94518 0.81414 0.44225 0.0
C158 C 0.0138 0.87226 0.5554 0.0
O159 O 0.08278 0.84609 0.61001 0.0
O160 O 0.0742 0.88004 0.57759 0.0
N161 N 0.0777 0.78254 0.44671 0.0
C162 C 0.10611 0.76968 0.44074 0.0
C163 C 0.11463 0.74449 0.42263 0.0
C164 C 0.09095 0.72408 0.4084 0.0
C165 C 0.03683 0.7528 0.41386 0.0
C166 C 0.04898 0.77597 0.43141 0.0
H167 H 0.12446 0.77937 0.45066 0.0
O168 O 0.07809 0.83983 0.52335 0.0
O169 O 0.07777 0.83895 0.52194 0.0
O170 O 0.08809 0.79073 0.56997 0.0
O171 O 0.08716 0.79246 0.56385 0.0
C172 C 0.02262 0.77155 0.38265 0.0
C173 C 0.02955 0.79797 0.36915 0.0
H174 H 0.98345 0.81809 0.3616 0.0
H175 H 0.94323 0.82489 0.39366 0.0
H176 H 0.1048 0.73171 0.41005 0.0
H177 H 0.08809 0.69874 0.41347 0.0
H178 H 0.0184 0.76299 0.36004 0.0
H179 H 0.02345 0.80466 0.34762 0.0
Mn180 Mn 0.14255 0.07506 0.56918 0.0
Mn181 Mn 0.1722 0.05607 0.49772 0.0
C182 C 0.1217 0.08285 0.50564 0.0
C183 C 0.10957 0.08779 0.60049 0.0
C184 C 0.21555 0.08951 0.58466 0.0
O185 O 0.10994 0.03437 0.57438 0.0
O186 O 0.12443 0.0343 0.53636 0.0
C187 C 0.17178 0.96517 0.43579 0.0
N188 N 0.18533 0.00733 0.45455 0.0
C189 C 0.18285 0.01416 0.39329 0.0
C190 C 0.16905 0.98694 0.38381 0.0
C191 C 0.16307 0.96266 0.40342 0.0
C192 C 0.19083 0.02745 0.42862 0.0
H193 H 0.16734 0.94486 0.44214 0.0
C194 C 0.10901 0.01345 0.55547 0.0
O195 O 0.13543 0.08275 0.61011 0.0
O196 O 0.10153 0.07349 0.5778 0.0
N197 N 0.19861 0.07776 0.44701 0.0
C198 C 0.21157 0.1061 0.44124 0.0
C199 C 0.23636 0.11497 0.42347 0.0
C200 C 0.25539 0.09259 0.40929 0.0
C201 C 0.22678 0.03758 0.41432 0.0
C202 C 0.20471 0.05011 0.43066 0.0
H203 H 0.20199 0.12435 0.45096 0.0
O204 O 0.14155 0.07769 0.52364 0.0
O205 O 0.14243 0.07735 0.52224 0.0
O206 O 0.19084 0.08789 0.57004 0.0
O207 O 0.18911 0.08694 0.56394 0.0
C208 C 0.20927 0.02236 0.38259 0.0
C209 C 0.18289 0.02904 0.3691 0.0
H210 H 0.16332 0.98294 0.36161 0.0
H211 H 0.15645 0.94293 0.39363 0.0
H212 H 0.24891 0.10468 0.41044 0.0
H213 H 0.28183 0.08847 0.41363 0.0
H214 H 0.21813 0.01798 0.36002 0.0
H215 H 0.17647 0.0229 0.34752 0.0
Mn216 Mn 0.90619 0.14223 0.56912 0.0
Mn217 Mn 0.92497 0.17199 0.49758 0.0
C218 C 0.89844 0.12149 0.50547 0.0
C219 C 0.89352 0.10929 0.60061 0.0
C220 C 0.89179 0.21519 0.58472 0.0
O221 O 0.9469 0.10972 0.57423 0.0
O222 O 0.94682 0.12426 0.53637 0.0
C223 C 0.01545 0.17109 0.43504 0.0
N224 N 0.97365 0.18514 0.45433 0.0
C225 C 0.96601 0.18239 0.39335 0.0
C226 C -0.00749 0.16832 0.38339 0.0
C227 C 0.01678 0.1623 0.40217 0.0
C228 C 0.95345 0.19047 0.42852 0.0
H229 H 0.03575 0.16659 0.4414 0.0
C230 C 0.96778 0.10877 0.55528 0.0
O231 O 0.89876 0.13514 0.61013 0.0
O232 O 0.90753 0.10121 0.57773 0.0
N233 N 0.90366 0.19855 0.44666 0.0
C234 C 0.87535 0.2119 0.44063 0.0
C235 C 0.86724 0.23739 0.42234 0.0
C236 C 0.8915 0.25811 0.40841 0.0
C237 C 0.94473 0.22854 0.41357 0.0
C238 C 0.93227 0.20499 0.4311 0.0
H239 H 0.85685 0.20221 0.45042 0.0
O240 O 0.9035 0.14134 0.52353 0.0
O241 O 0.90382 0.14221 0.52213 0.0
O242 O 0.8934 0.1905 0.57006 0.0
O243 O 0.89433 0.18878 0.56395 0.0
C244 C 0.95867 0.20989 0.3825 0.0
C245 C 0.95153 0.18361 0.36894 0.0
H246 H -0.0036 0.1626 0.36111 0.0
H247 H 0.0347 0.15539 0.38968 0.0
H248 H 0.87721 0.25048 0.41035 0.0
H249 H 0.89457 0.28331 0.41373 0.0
H250 H 0.96301 0.21831 0.35998 0.0
H251 H 0.95739 0.17687 0.34731 0.0
Mn252 Mn 0.83939 0.90594 0.56895 0.0
Mn253 Mn 0.8095 0.92491 0.49758 0.0
C254 C 0.86009 0.89851 0.50512 0.0
C255 C 0.87229 0.89337 0.60056 0.0
C256 C 0.76631 0.89145 0.58458 0.0
O257 O 0.87162 0.9468 0.57431 0.0
O258 O 0.85717 0.94674 0.53632 0.0
C259 C 0.80994 0.01593 0.43571 0.0
N260 N 0.79646 0.97392 0.45448 0.0
C261 C 0.7987 0.96675 0.39336 0.0
C262 C 0.81255 -0.00603 0.38372 0.0
C263 C 0.8186 0.01836 0.40327 0.0
C264 C 0.79095 0.95377 0.42879 0.0
H265 H 0.81438 0.03621 0.4421 0.0
C266 C 0.87259 0.96764 0.55539 0.0
O267 O 0.84642 0.89868 0.61 0.0
O268 O 0.88044 0.90717 0.57759 0.0
N269 N 0.78293 0.90369 0.4467 0.0
C270 C 0.77035 0.87525 0.4408 0.0
C271 C 0.74534 0.86643 0.4229 0.0
C272 C 0.72518 0.8896 0.40852 0.0
C273 C 0.75332 0.94446 0.41409 0.0
C274 C 0.77618 0.93243 0.43165 0.0
H275 H 0.78004 0.85702 0.45079 0.0
O276 O 0.84024 0.90335 0.52329 0.0
O277 O 0.83936 0.90367 0.52189 0.0
O278 O 0.79104 0.89334 0.56998 0.0
O279 O 0.79275 0.89427 0.56388 0.0
C280 C 0.77201 0.95891 0.38279 0.0
C281 C 0.79832 0.95184 0.36907 0.0
H282 H 0.81832 -0.00212 0.3615 0.0
H283 H 0.82526 0.03805 0.39345 0.0
H284 H 0.73276 0.87615 0.40994 0.0
H285 H 0.69966 0.89227 0.41332 0.0
H286 H 0.76347 0.96314 0.36012 0.0
H287 H 0.80502 0.9579 0.34753 0.0
Mn288 Mn 0.41249 0.07505 0.14229 0.0
Mn289 Mn 0.48398 0.05636 0.17214 0.0
C290 C 0.47622 0.08286 0.12161 0.0
C291 C 0.38102 0.08777 0.10935 0.0
C292 C 0.3968 0.08941 0.21533 0.0
O293 O 0.40729 0.03425 0.10989 0.0
O294 O 0.44511 0.03443 0.12438 0.0
C295 C 0.54677 0.96596 0.17117 0.0
N296 N 0.52719 0.00764 0.18527 0.0
C297 C 0.58811 0.01565 0.18257 0.0
C298 C 0.59842 0.98926 0.16841 0.0
C299 C 0.5798 0.96491 0.16239 0.0
C300 C 0.55287 0.0279 0.19062 0.0
H301 H 0.54036 0.94568 0.16673 0.0
C302 C 0.42622 0.01339 0.10887 0.0
O303 O 0.37149 0.08247 0.13519 0.0
O304 O 0.40394 0.07386 0.10124 0.0
N305 N 0.53502 0.0775 0.19882 0.0
C306 C 0.54113 0.10587 0.21206 0.0
C307 C 0.55952 0.11398 0.23772 0.0
C308 C 0.57346 0.08926 0.25878 0.0
C309 C 0.56802 0.03632 0.22934 0.0
C310 C 0.54985 0.04837 0.20555 0.0
H311 H 0.53128 0.12435 0.20232 0.0
O312 O 0.45812 0.07774 0.14142 0.0
O313 O 0.45951 0.07742 0.1423 0.0
O314 O 0.41146 0.08779 0.19062 0.0
O315 O 0.41756 0.08688 0.18891 0.0
C316 C 0.5989 0.02273 0.21025 0.0
C317 C 0.61259 0.03017 0.18408 0.0
H318 H 0.62071 0.98556 0.1626 0.0
H319 H 0.59265 0.94728 0.15534 0.0
H320 H 0.57143 0.10422 0.25088 0.0
H321 H 0.56794 0.08679 0.28371 0.0
H322 H 0.62146 0.01845 0.21852 0.0
H323 H 0.63424 0.02442 0.1772 0.0
Mn324 Mn 0.90627 0.41233 0.14209 0.0
Mn325 Mn 0.92535 0.48369 0.17205 0.0
C326 C 0.89885 0.47608 0.1215 0.0
C327 C 0.89367 0.38078 0.10916 0.0
C328 C 0.89172 0.3967 0.21507 0.0
O329 O 0.94723 0.40699 0.10995 0.0
O330 O 0.94717 0.44506 0.12434 0.0
C331 C 0.01635 0.54549 0.17161 0.0
N332 N 0.97431 0.5268 0.18519 0.0
C333 C 0.96727 0.58795 0.18289 0.0
C334 C -0.00549 0.59753 0.16895 0.0
C335 C 0.01889 0.57794 0.16294 0.0
C336 C 0.95417 0.55262 0.19064 0.0
H337 H 0.03664 0.53916 0.16705 0.0
C338 C 0.96804 0.42598 0.10888 0.0
O339 O 0.89897 0.3713 0.135 0.0
O340 O 0.90752 0.40374 0.10104 0.0
N341 N 0.90405 0.53451 0.19867 0.0
C342 C 0.87565 0.54044 0.21159 0.0
C343 C 0.86712 0.5585 0.23677 0.0
C344 C 0.89067 0.57273 0.25707 0.0
C345 C 0.94486 0.56741 0.22827 0.0
C346 C 0.93261 0.55002 0.20517 0.0
H347 H 0.8573 0.53054 0.20192 0.0
O348 O 0.90371 0.45795 0.14134 0.0
O349 O 0.90404 0.45936 0.14222 0.0
O350 O 0.89366 0.41133 0.1904 0.0
O351 O 0.8946 0.41745 0.18868 0.0
C352 C 0.9592 0.59868 0.20966 0.0
C353 C 0.95237 0.61215 0.18323 0.0
H354 H -0.00151 0.61972 0.16319 0.0
H355 H 0.03864 0.58769 0.15631 0.0
H356 H 0.877 0.5711 0.24954 0.0
H357 H 0.89367 0.56771 0.2825 0.0
H358 H 0.96346 0.62126 0.21828 0.0
H359 H 0.95849 0.63369 0.17658 0.0
Mn360 Mn 0.56892 0.91619 0.15029 0.0
Mn361 Mn 0.49823 0.92462 0.17162 0.0
C362 C 0.50812 0.89909 0.12244 0.0
C363 C 0.59725 0.88738 0.11411 0.0
C364 C 0.58477 0.89384 0.21733 0.0
O365 O 0.57435 0.94833 0.11073 0.0
O366 O 0.53647 0.94702 0.12412 0.0
C367 C 0.43601 0.01583 0.17142 0.0
N368 N 0.45515 0.97378 0.18495 0.0
C369 C 0.3939 0.96662 0.18264 0.0
C370 C 0.38409 -0.00618 0.16874 0.0
C371 C 0.4036 0.0182 0.16276 0.0
C372 C 0.42927 0.95361 0.19038 0.0
H373 H 0.44225 0.03618 0.16707 0.0
C374 C 0.55516 0.96846 0.10843 0.0
O375 O 0.59873 0.88535 0.14046 0.0
O376 O 0.58011 0.90723 0.108 0.0
N377 N 0.44723 0.90341 0.19838 0.0
C378 C 0.44105 0.8751 0.21155 0.0
C379 C 0.42278 0.86691 0.23692 0.0
C380 C 0.40867 0.89091 0.25744 0.0
C381 C 0.41421 0.94452 0.22827 0.0
C382 C 0.43179 0.93213 0.20491 0.0
H383 H 0.45087 0.85663 0.20195 0.0
O384 O 0.52592 0.90077 0.14316 0.0
O385 O 0.52445 0.90047 0.14431 0.0
O386 O 0.57083 0.88956 0.19261 0.0
O387 O 0.56445 0.89319 0.19035 0.0
C388 C 0.38311 0.95867 0.2095 0.0
C389 C 0.36961 0.95177 0.18309 0.0
H390 H 0.36184 -0.00218 0.16313 0.0
H391 H 0.39374 0.03793 0.1562 0.0
H392 H 0.41044 0.87685 0.2498 0.0
H393 H 0.41383 0.89388 0.2827 0.0
H394 H 0.3605 0.96291 0.21805 0.0
H395 H 0.34804 0.95786 0.17646 0.0
Mn396 Mn 0.0756 0.56884 0.14221 0.0
Mn397 Mn 0.05652 0.49741 0.17206 0.0
C398 C 0.08304 0.50507 0.12152 0.0
C399 C 0.08824 0.6004 0.10929 0.0
C400 C 0.09005 0.58451 0.21522 0.0
O401 O 0.03475 0.57414 0.10999 0.0
O402 O 0.03477 0.53604 0.12439 0.0
C403 C 0.96543 0.43568 0.17156 0.0
N404 N 0.00744 0.45433 0.18502 0.0
C405 C 0.01457 0.39326 0.18283 0.0
C406 C 0.98731 0.38363 0.16898 0.0
C407 C 0.96289 0.40325 0.16294 0.0
C408 C 0.02752 0.42856 0.1904 0.0
H409 H 0.94517 0.44208 0.16703 0.0
C410 C 0.01394 0.55516 0.10897 0.0
O411 O 0.08294 0.60986 0.13515 0.0
O412 O 0.07437 0.57745 0.10118 0.0
N413 N 0.07749 0.44637 0.19869 0.0
C414 C 0.1059 0.44023 0.21183 0.0
C415 C 0.11395 0.42177 0.23745 0.0
C416 C 0.08906 0.40778 0.25851 0.0
C417 C 0.03625 0.41333 0.22921 0.0
C418 C 0.04818 0.43155 0.20539 0.0
H419 H 0.12442 0.45013 0.2021 0.0
O420 O 0.07817 0.52321 0.14137 0.0
O421 O 0.07784 0.5218 0.14224 0.0
O422 O 0.08825 0.5699 0.19051 0.0
O423 O 0.08732 0.56378 0.18878 0.0
C424 C 0.0226 0.38244 0.20991 0.0
C425 C 0.02955 0.3691 0.18341 0.0
H426 H 0.98332 0.36144 0.16322 0.0
H427 H 0.94312 0.39353 0.15632 0.0
H428 H 0.10416 0.40985 0.25056 0.0
H429 H 0.08672 0.4134 0.2834 0.0
H430 H 0.01839 0.35987 0.21836 0.0
H431 H 0.02343 0.34759 0.17657 0.0
Mn432 Mn 0.41228 0.90586 0.83917 0.0
Mn433 Mn 0.48369 0.92497 0.80932 0.0
C434 C 0.47583 0.89808 0.85982 0.0
C435 C 0.381 0.89326 0.87221 0.0
C436 C 0.39689 0.89141 0.76612 0.0
O437 O 0.40705 0.9467 0.87152 0.0
O438 O 0.44512 0.94673 0.85703 0.0
C439 C 0.54554 0.01581 0.80979 0.0
N440 N 0.52691 0.97358 0.796 0.0
C441 C 0.58835 0.96696 0.7986 0.0
C442 C 0.59755 -0.0058 0.8126 0.0
C443 C 0.57788 0.01839 0.81853 0.0
C444 C 0.55282 0.95338 0.79037 0.0
H445 H 0.5392 0.03613 0.81424 0.0
C446 C 0.42601 0.96756 0.87244 0.0
O447 O 0.37134 0.89835 0.84637 0.0
O448 O 0.40374 0.90751 0.88021 0.0
N449 N 0.534 0.90274 0.78309 0.0
C450 C 0.53957 0.87434 0.77051 0.0
C451 C 0.55665 0.86465 0.74654 0.0
C452 C 0.57076 0.88537 0.73063 0.0
C453 C 0.56615 0.94105 0.75781 0.0
C454 C 0.55113 0.92926 0.77741 0.0
H455 H 0.52994 0.85642 0.77983 0.0
O456 O 0.45781 0.90328 0.84001 0.0
O457 O 0.45922 0.90362 0.83912 0.0
O458 O 0.41147 0.8933 0.79083 0.0
O459 O 0.41758 0.89427 0.79252 0.0
C460 C 0.59877 0.9583 0.7729 0.0
C461 C 0.61251 0.95196 0.79901 0.0
H462 H 0.61975 -0.00178 0.81835 0.0
H463 H 0.58766 0.03814 0.82515 0.0
H464 H 0.57052 0.87554 0.73439 0.0
H465 H 0.5681 0.89063 0.70163 0.0
H466 H 0.62141 0.96305 0.76361 0.0
H467 H 0.63413 0.95831 0.80512 0.0
Mn468 Mn 0.07526 0.41217 0.83914 0.0
Mn469 Mn 0.05632 0.48358 0.80932 0.0
C470 C 0.08276 0.47591 0.85989 0.0
C471 C 0.08783 0.3806 0.87206 0.0
C472 C 0.08977 0.39658 0.76608 0.0
O473 O 0.0344 0.40686 0.87145 0.0
O474 O 0.03446 0.44488 0.85701 0.0
C475 C 0.96536 0.54539 0.80988 0.0
N476 N 0.00743 0.52669 0.79625 0.0
C477 C 0.01445 0.58783 0.79865 0.0
C478 C 0.98725 0.59737 0.81258 0.0
C479 C 0.96288 0.57778 0.81858 0.0
C480 C 0.02755 0.55256 0.79083 0.0
H481 H 0.94507 0.539 0.81435 0.0
C482 C 0.01357 0.42579 0.87244 0.0
O483 O 0.08258 0.37115 0.84619 0.0
O484 O 0.07394 0.40353 0.88018 0.0
N485 N 0.07772 0.53446 0.78281 0.0
C486 C 0.10609 0.54041 0.76978 0.0
C487 C 0.1146 0.55847 0.74461 0.0
C488 C 0.09112 0.57259 0.7244 0.0
C489 C 0.03696 0.56732 0.75338 0.0
C490 C 0.04931 0.55014 0.77642 0.0
H491 H 0.12445 0.53057 0.77942 0.0
O492 O 0.07788 0.4578 0.84002 0.0
O493 O 0.07756 0.45921 0.83915 0.0
O494 O 0.08793 0.41118 0.7908 0.0
O495 O 0.087 0.41728 0.79252 0.0
C496 C 0.02256 0.59862 0.77187 0.0
C497 C 0.02935 0.61203 0.79833 0.0
H498 H 0.98327 0.61958 0.81832 0.0
H499 H 0.94315 0.58756 0.82521 0.0
H500 H 0.10463 0.57099 0.7318 0.0
H501 H 0.08791 0.56759 0.69887 0.0
H502 H 0.01827 0.62116 0.76324 0.0
H503 H 0.02327 0.63358 0.80495 0.0
Mn504 Mn 0.56892 0.07516 0.83915 0.0
Mn505 Mn 0.4975 0.05613 0.80932 0.0
C506 C 0.50515 0.08257 0.85988 0.0
C507 C 0.60052 0.08758 0.87206 0.0
C508 C 0.58452 0.08959 0.76626 0.0
O509 O 0.57414 0.03448 0.87153 0.0
O510 O 0.53607 0.03443 0.8569 0.0
C511 C 0.43578 0.96514 0.80988 0.0
N512 N 0.4544 0.0073 0.79621 0.0
C513 C 0.39317 0.01414 0.79866 0.0
C514 C 0.38383 0.9869 0.81261 0.0
C515 C 0.40341 0.96262 0.81858 0.0
C516 C 0.42855 0.02743 0.7907 0.0
H517 H 0.44216 0.94484 0.81433 0.0
C518 C 0.55516 0.01369 0.87228 0.0
O519 O 0.60998 0.08239 0.84618 0.0
O520 O 0.57759 0.07364 0.88017 0.0
N521 N 0.44693 0.07776 0.7829 0.0
C522 C 0.44122 0.10612 0.77028 0.0
C523 C 0.4237 0.11524 0.74568 0.0
C524 C 0.40939 0.09324 0.72696 0.0
C525 C 0.41442 0.03772 0.75494 0.0
C526 C 0.43075 0.05006 0.77667 0.0
H527 H 0.45108 0.12425 0.77982 0.0
O528 O 0.52327 0.07778 0.83999 0.0
O529 O 0.52187 0.07746 0.83911 0.0
O530 O 0.56984 0.08776 0.7909 0.0
O531 O 0.56372 0.08681 0.79262 0.0
C532 C 0.38259 0.02229 0.77229 0.0
C533 C 0.36895 0.029 0.7986 0.0
H534 H 0.36161 0.9829 0.81834 0.0
H535 H 0.39363 0.94287 0.82519 0.0
H536 H 0.41038 0.105 0.73329 0.0
H537 H 0.41346 0.08921 0.70029 0.0
H538 H 0.35999 0.01788 0.76344 0.0
H539 H 0.34737 0.02284 0.80503 0.0
Mn540 Mn 0.90614 0.56872 0.83914 0.0
Mn541 Mn 0.9251 0.49734 0.80935 0.0
C542 C 0.89865 0.505 0.85991 0.0
C543 C 0.89358 0.60029 0.87204 0.0
C544 C 0.89167 0.58429 0.76622 0.0
O545 O 0.94688 0.57402 0.87153 0.0
O546 O 0.94689 0.53603 0.85703 0.0
C547 C 0.01604 0.43556 0.80987 0.0
N548 N 0.97397 0.45426 0.79625 0.0
C549 C 0.967 0.39309 0.79862 0.0
C550 C -0.00581 0.38357 0.81255 0.0
C551 C 0.01853 0.40317 0.81852 0.0
C552 C 0.95383 0.4284 0.79077 0.0
H553 H 0.03633 0.44194 0.81433 0.0
C554 C 0.96775 0.55511 0.87249 0.0
O555 O 0.89881 0.60974 0.84617 0.0
O556 O 0.90753 0.57741 0.88015 0.0
N557 N 0.9036 0.44662 0.78285 0.0
C558 C 0.87523 0.44077 0.77004 0.0
C559 C 0.86646 0.42295 0.74513 0.0
C560 C 0.88926 0.4087 0.72551 0.0
C561 C 0.94409 0.4139 0.75401 0.0
C562 C 0.93169 0.43071 0.77652 0.0
H563 H 0.85697 0.45063 0.77966 0.0
O564 O 0.90349 0.5231 0.84003 0.0
O565 O 0.90381 0.5217 0.83916 0.0
O566 O 0.89342 0.56964 0.79088 0.0
O567 O 0.89437 0.56354 0.79261 0.0
C568 C 0.9589 0.38239 0.77203 0.0
C569 C 0.95211 0.36887 0.79842 0.0
H570 H -0.00183 0.36136 0.81828 0.0
H571 H 0.03827 0.39339 0.82512 0.0
H572 H 0.87653 0.41003 0.73253 0.0
H573 H 0.89286 0.4133 0.69955 0.0
H574 H 0.96322 0.35981 0.7633 0.0
H575 H 0.95822 0.34732 0.80495 0.0
Mn576 Mn 0.14241 0.41234 0.07524 0.0
Mn577 Mn 0.17229 0.48371 0.05628 0.0
C578 C 0.1217 0.47608 0.08268 0.0
C579 C 0.1095 0.38073 0.08776 0.0
C580 C 0.2154 0.39678 0.08974 0.0
O581 O 0.11009 0.40702 0.03446 0.0
O582 O 0.1246 0.44502 0.03448 0.0
C583 C 0.17153 0.54527 0.96541 0.0
N584 N 0.18545 0.5268 0.00743 0.0
C585 C 0.18307 0.58801 0.01436 0.0
C586 C 0.16886 0.59728 0.98721 0.0
C587 C 0.16288 0.57766 0.9629 0.0
C588 C 0.19096 0.55266 0.02758 0.0
H589 H 0.16707 0.5389 0.94512 0.0
C590 C 0.10913 0.42595 0.01362 0.0
O591 O 0.13537 0.37129 0.08248 0.0
O592 O 0.10137 0.40365 0.07388 0.0
N593 N 0.19878 0.53438 0.07787 0.0
C594 C 0.21147 0.54016 0.10624 0.0
C595 C 0.23622 0.55783 0.11522 0.0
C596 C 0.25538 0.57213 0.09288 0.0
C597 C 0.2272 0.56698 0.03762 0.0
C598 C 0.20509 0.55042 0.04999 0.0
H599 H 0.20188 0.5303 0.12443 0.0
O600 O 0.14157 0.45796 0.07788 0.0
O601 O 0.14244 0.45936 0.07756 0.0
O602 O 0.19072 0.4114 0.0879 0.0
O603 O 0.189 0.41751 0.08696 0.0
C604 C 0.20954 0.59865 0.02248 0.0
C605 C 0.18319 0.61223 0.02924 0.0
H606 H 0.16315 0.61948 0.98323 0.0
H607 H 0.15629 0.58745 0.94316 0.0
H608 H 0.2487 0.57099 0.10507 0.0
H609 H 0.28171 0.56783 0.08905 0.0
H610 H 0.21834 0.62124 0.01813 0.0
H611 H 0.17673 0.63379 0.0231 0.0
Mn612 Mn 0.14225 0.56866 0.90618 0.0
Mn613 Mn 0.17208 0.49727 0.92516 0.0
C614 C 0.1215 0.50491 0.8987 0.0
C615 C 0.10935 0.60023 0.8936 0.0
C616 C 0.21533 0.58428 0.89168 0.0
O617 O 0.10994 0.57398 0.94702 0.0
O618 O 0.12439 0.53597 0.94699 0.0
C619 C 0.17177 0.4357 0.01608 0.0
N620 N 0.1851 0.45416 0.97408 0.0
C621 C 0.18275 0.39304 0.96706 0.0
C622 C 0.1691 0.38372 -0.00579 0.0
C623 C 0.16309 0.40331 0.01858 0.0
C624 C 0.19052 0.42832 0.95397 0.0
H625 H 0.16729 0.4421 0.03636 0.0
C626 C 0.10897 0.55506 0.96787 0.0
O627 O 0.13522 0.60969 0.89886 0.0
O628 O 0.10121 0.5773 0.90749 0.0
N629 N 0.19861 0.44635 0.90385 0.0
C630 C 0.21164 0.44038 0.87548 0.0
C631 C 0.23688 0.42227 0.86703 0.0
C632 C 0.25725 0.40814 0.89071 0.0
C633 C 0.22824 0.41349 0.94471 0.0
C634 C 0.20506 0.43086 0.93242 0.0
H635 H 0.20198 0.45024 0.8571 0.0
O636 O 0.14137 0.52303 0.90358 0.0
O637 O 0.14225 0.52163 0.9039 0.0
O638 O 0.1906 0.56967 0.89352 0.0
O639 O 0.18888 0.56357 0.89445 0.0
C640 C 0.20957 0.38226 0.95898 0.0
C641 C 0.1831 0.36884 0.95215 0.0
H642 H 0.1634 0.36151 -0.00178 0.0
H643 H 0.15646 0.39355 0.03831 0.0
H644 H 0.24971 0.40981 0.87694 0.0
H645 H 0.28266 0.41326 0.89372 0.0
H646 H 0.21816 0.3597 0.96325 0.0
H647 H 0.17642 0.3473 0.95825 0.0
Mn648 Mn 0.41232 0.14202 0.90617 0.0
Mn649 Mn 0.48377 0.17184 0.92512 0.0
C650 C 0.47607 0.12127 0.89868 0.0
C651 C 0.38076 0.10911 0.89355 0.0
C652 C 0.39672 0.21506 0.89173 0.0
O653 O 0.40701 0.10969 0.94697 0.0
O654 O 0.44507 0.12414 0.94694 0.0
C655 C 0.54587 0.17152 0.01601 0.0
N656 N 0.5269 0.18487 0.974 0.0
C657 C 0.58804 0.18248 0.96698 0.0
C658 C 0.59787 0.16883 -0.0059 0.0
C659 C 0.57827 0.16284 0.01847 0.0
C660 C 0.5528 0.19027 0.9539 0.0
H661 H 0.53947 0.16707 0.0363 0.0
C662 C 0.42596 0.10872 0.9678 0.0
O663 O 0.37128 0.13496 0.89884 0.0
O664 O 0.40367 0.101 0.90744 0.0
N665 N 0.53472 0.19834 0.90377 0.0
C666 C 0.54071 0.21144 0.87543 0.0
C667 C 0.55887 0.2367 0.86706 0.0
C668 C 0.57293 0.25706 0.89077 0.0
C669 C 0.56763 0.2279 0.94461 0.0
C670 C 0.55038 0.20472 0.93224 0.0
H671 H 0.53089 0.2018 0.85702 0.0
O672 O 0.45797 0.14114 0.90354 0.0
O673 O 0.45937 0.14201 0.90386 0.0
O674 O 0.41131 0.19034 0.89352 0.0
O675 O 0.41742 0.18862 0.89444 0.0
C676 C 0.59889 0.20934 0.95887 0.0
C677 C 0.61223 0.18286 0.95208 0.0
H678 H 0.62008 0.1631 -0.00194 0.0
H679 H 0.58806 0.15621 0.03819 0.0
H680 H 0.57123 0.24959 0.87704 0.0
H681 H 0.5678 0.28249 0.89396 0.0
H682 H 0.62143 0.21797 0.96316 0.0
H683 H 0.63379 0.17624 0.95814 0.0
Mn684 Mn 0.83917 0.41212 0.90616 0.0
Mn685 Mn 0.80932 0.48353 0.92513 0.0
C686 C 0.85991 0.47588 0.89871 0.0
C687 C 0.87207 0.38056 0.8936 0.0
C688 C 0.76622 0.39653 0.89165 0.0
O689 O 0.87152 0.40681 0.94691 0.0
O690 O 0.85697 0.44473 0.9469 0.0
C691 C 0.81009 0.5456 0.01608 0.0
N692 N 0.79625 0.52666 0.9741 0.0
C693 C 0.79851 0.5878 0.96705 0.0
C694 C 0.8127 0.59763 -0.00578 0.0
C695 C 0.81873 0.57802 0.0186 0.0
C696 C 0.79081 0.55246 0.95399 0.0
H697 H 0.81461 0.53921 0.03635 0.0
C698 C 0.87244 0.42571 0.96778 0.0
O699 O 0.84619 0.37109 0.89887 0.0
O700 O 0.8802 0.40346 0.90755 0.0
N701 N 0.78277 0.53444 0.9039 0.0
C702 C 0.76982 0.54042 0.87552 0.0
C703 C 0.74456 0.55857 0.8671 0.0
C704 C 0.72405 0.57273 0.89092 0.0
C705 C 0.75292 0.56734 0.94483 0.0
C706 C 0.7762 0.54979 0.93262 0.0
H707 H 0.77951 0.53053 0.85713 0.0
O708 O 0.84004 0.45775 0.90356 0.0
O709 O 0.83917 0.45915 0.90388 0.0
O710 O 0.7909 0.41117 0.89345 0.0
O711 O 0.79263 0.41728 0.89439 0.0
C712 C 0.7717 0.59853 0.95902 0.0
C713 C 0.79816 0.612 0.95212 0.0
H714 H 0.81847 0.61983 -0.00181 0.0
H715 H 0.82535 0.58775 0.03835 0.0
H716 H 0.7317 0.57103 0.87694 0.0
H717 H 0.69873 0.56758 0.89379 0.0
H718 H 0.76313 0.62111 0.96327 0.0
H719 H 0.80485 0.63353 0.95823 0.0
Mn720 Mn 0.5686 0.83068 0.91632 0.0
Mn721 Mn 0.49794 0.80939 0.9248 0.0
C722 C 0.50798 0.85858 0.89899 0.0
C723 C 0.59688 0.86657 0.88708 0.0
C724 C 0.58452 0.76369 0.894 0.0
O725 O 0.57391 0.87028 0.94836 0.0
O726 O 0.5358 0.85685 0.94707 0.0
C727 C 0.43612 0.80983 0.01589 0.0
N728 N 0.45482 0.79603 0.97373 0.0
C729 C 0.3935 0.79864 0.967 0.0
C730 C 0.38429 0.81273 -0.00588 0.0
C731 C 0.40382 0.81861 0.01838 0.0
C732 C 0.42876 0.79064 0.95362 0.0
H733 H 0.44233 0.81418 0.03628 0.0
C734 C 0.55456 0.87244 0.96834 0.0
O735 O 0.59805 0.84022 0.88501 0.0
O736 O 0.57987 0.87284 0.907 0.0
N737 N 0.44725 0.78283 0.90314 0.0
C738 C 0.4413 0.76957 0.8749 0.0
C739 C 0.42338 0.74459 0.86645 0.0
C740 C 0.4093 0.72541 0.88923 0.0
C741 C 0.41424 0.75462 0.94358 0.0
C742 C 0.4305 0.77697 0.9307 0.0
H743 H 0.45096 0.77902 0.85652 0.0
O744 O 0.52567 0.8378 0.90084 0.0
O745 O 0.5242 0.83663 0.90055 0.0
O746 O 0.57058 0.7884 0.88969 0.0
O747 O 0.56417 0.79066 0.89334 0.0
C748 C 0.38265 0.77214 0.95868 0.0
C749 C 0.36933 0.79859 0.95218 0.0
H750 H 0.36205 0.81834 -0.00177 0.0
H751 H 0.39398 0.82514 0.03815 0.0
H752 H 0.41068 0.73195 0.87692 0.0
H753 H 0.41386 0.69915 0.8936 0.0
H754 H 0.36014 0.76328 0.96309 0.0
H755 H 0.34772 0.80495 0.95839 0.0
Mn756 Mn 0.83947 0.56885 0.07531 0.0
Mn757 Mn 0.80956 0.49752 0.05625 0.0
C758 C 0.86012 0.50511 0.08274 0.0
C759 C 0.87243 0.60038 0.08794 0.0
C760 C 0.76642 0.5845 0.0898 0.0
O761 O 0.87168 0.5742 0.0344 0.0
O762 O 0.85729 0.53611 0.03443 0.0
C763 C 0.80982 0.43554 0.96533 0.0
N764 N 0.79648 0.45448 0.00734 0.0
C765 C 0.79889 0.39335 0.01432 0.0
C766 C 0.81254 0.38357 0.98719 0.0
C767 C 0.8185 0.40314 0.96284 0.0
C768 C 0.79104 0.42862 0.02745 0.0
H769 H 0.81427 0.44192 0.94505 0.0
C770 C 0.87273 0.55524 0.01359 0.0
O771 O 0.84658 0.60986 0.08267 0.0
O772 O 0.88053 0.57743 0.07407 0.0
N773 N 0.78298 0.44674 0.07765 0.0
C774 C 0.77009 0.44085 0.10602 0.0
C775 C 0.74504 0.42289 0.11467 0.0
C776 C 0.72507 0.40864 0.0915 0.0
C777 C 0.7538 0.41392 0.03699 0.0
C778 C 0.77661 0.43102 0.04931 0.0
H779 H 0.77973 0.45073 0.12433 0.0
O780 O 0.84027 0.52323 0.07788 0.0
O781 O 0.83939 0.52183 0.07756 0.0
O782 O 0.79112 0.56989 0.08792 0.0
O783 O 0.79285 0.56378 0.08699 0.0
C784 C 0.77216 0.38256 0.02243 0.0
C785 C 0.79861 0.36915 0.02921 0.0
H786 H 0.81834 0.36138 0.98324 0.0
H787 H 0.82514 0.39335 0.94312 0.0
H788 H 0.73236 0.41012 0.1047 0.0
H789 H 0.6994 0.41346 0.08821 0.0
H790 H 0.7635 0.35999 0.01812 0.0
H791 H 0.80521 0.3476 0.02313 0.0
Mn792 Mn 0.41234 0.83911 0.07513 0.0
Mn793 Mn 0.48391 0.80919 0.05635 0.0
C794 C 0.47581 0.85963 0.08327 0.0
C795 C 0.38107 0.87216 0.08767 0.0
C796 C 0.39693 0.76623 0.08954 0.0
O797 O 0.40735 0.87156 0.03435 0.0
O798 O 0.44515 0.85692 0.03451 0.0
C799 C 0.54657 0.8098 0.9663 0.0
N800 N 0.52738 0.79571 0.00815 0.0
C801 C 0.58864 0.79877 0.01555 0.0
C802 C 0.59824 0.81272 0.98922 0.0
C803 C 0.5795 0.8187 0.96508 0.0
C804 C 0.55333 0.79022 0.02843 0.0
H805 H 0.54022 0.8143 0.946 0.0
C806 C 0.42635 0.87246 0.01351 0.0
O807 O 0.37137 0.84635 0.08248 0.0
O808 O 0.40386 0.88018 0.07347 0.0
N809 N 0.53435 0.78282 0.07854 0.0
C810 C 0.54004 0.76956 0.1068 0.0
C811 C 0.55762 0.74492 0.11574 0.0
C812 C 0.57162 0.72696 0.09396 0.0
C813 C 0.56717 0.75583 0.03905 0.0
C814 C 0.55165 0.77712 0.05184 0.0
H815 H 0.53049 0.779 0.12502 0.0
O816 O 0.45782 0.83986 0.07787 0.0
O817 O 0.45922 0.83897 0.07753 0.0
O818 O 0.4116 0.79087 0.08776 0.0
O819 O 0.41775 0.79256 0.08681 0.0
C820 C 0.59924 0.77203 0.02319 0.0
C821 C 0.61301 0.79809 0.03005 0.0
H822 H 0.62052 0.81852 0.98541 0.0
H823 H 0.59235 0.82572 0.94739 0.0
H824 H 0.57064 0.73229 0.10502 0.0
H825 H 0.5677 0.69958 0.08863 0.0
H826 H 0.62173 0.76308 0.01856 0.0
H827 H 0.63475 0.80434 0.02408 0.0
Mn828 Mn 0.56918 0.14229 0.07521 0.0
Mn829 Mn 0.49778 0.17205 0.05626 0.0
C830 C 0.50543 0.1215 0.08267 0.0
C831 C 0.60075 0.10946 0.08787 0.0
C832 C 0.58474 0.21522 0.08971 0.0
O833 O 0.57449 0.10991 0.03444 0.0
O834 O 0.53652 0.12439 0.03445 0.0
C835 C 0.43571 0.17126 0.96542 0.0
N836 N 0.45471 0.18519 0.00746 0.0
C837 C 0.39345 0.18272 0.01436 0.0
C838 C 0.38369 0.16854 0.98722 0.0
C839 C 0.40332 0.16257 0.96291 0.0
C840 C 0.42879 0.19067 0.0276 0.0
H841 H 0.4421 0.16679 0.94513 0.0
C842 C 0.55559 0.10893 0.01357 0.0
O843 O 0.61022 0.13531 0.08255 0.0
O844 O 0.57786 0.10128 0.07395 0.0
N845 N 0.4471 0.19849 0.07791 0.0
C846 C 0.44128 0.21131 0.10626 0.0
C847 C 0.42356 0.23611 0.11514 0.0
C848 C 0.40933 0.25529 0.09271 0.0
C849 C 0.41442 0.22684 0.03765 0.0
C850 C 0.43091 0.20468 0.05012 0.0
H851 H 0.45109 0.20176 0.12448 0.0
O852 O 0.52354 0.14139 0.07785 0.0
O853 O 0.52214 0.14226 0.07753 0.0
O854 O 0.57008 0.19055 0.08793 0.0
O855 O 0.56397 0.18883 0.08698 0.0
C856 C 0.38276 0.20919 0.02254 0.0
C857 C 0.36923 0.18282 0.02923 0.0
H858 H 0.36147 0.16282 0.98322 0.0
H859 H 0.39354 0.15598 0.94317 0.0
H860 H 0.41053 0.24863 0.10495 0.0
H861 H 0.41373 0.28158 0.08877 0.0
H862 H 0.3602 0.218 0.01817 0.0
H863 H 0.34765 0.17636 0.02309 0.0
Mn864 Mn 0.90263 0.83101 0.56179 0.0
Mn865 Mn 0.9277 0.81188 0.52838 0.0
C866 C 0.89689 0.85198 0.50747 0.0
C867 C 0.878 0.86346 0.59469 0.0
C868 C 0.97082 0.87867 0.56195 0.0
O869 O 0.87193 0.79303 0.58794 0.0
O870 O 0.87816 0.79397 0.58162 0.0
C871 C 0.88982 0.75285 0.49556 0.0
N872 N 0.92387 0.76428 0.49868 0.0
C873 C 0.93167 0.71651 0.43975 0.0
C874 C 0.89266 0.70906 0.44546 0.0
C875 C 0.87476 0.72451 0.47295 0.0
C876 C 0.94939 0.7518 0.47928 0.0
H877 H 0.88 0.73791 0.48445 0.0
C878 C 0.86495 0.76752 0.6037 0.0
O879 O 0.90178 0.8519 0.60099 0.0
O880 O 0.86826 0.85497 0.57091 0.0
N881 N 0.96307 0.80288 0.48499 0.0
C882 C 0.96816 0.83173 0.47996 0.0
C883 C -0.00801 0.8454 0.45923 0.0
C884 C 0.00172 0.83023 0.42805 0.0
C885 C 0.98596 0.77067 0.42564 0.0
C886 C 0.97092 0.77406 0.4696 0.0
H887 H 0.98159 0.83881 0.46952 0.0
O888 O 0.90408 0.866 0.52938 0.0
O889 O 0.89351 0.82716 0.51464 0.0
O890 O 0.94323 0.8658 0.56147 0.0
O891 O 0.94405 0.86126 0.55777 0.0
C892 C 0.95455 0.7272 0.40781 0.0
C893 C 0.95178 0.70395 0.41918 0.0
H894 H 0.91201 0.71014 0.43994 0.0
H895 H 0.8507 0.71634 0.47185 0.0
H896 H -0.00029 0.8707 0.46665 0.0
H897 H 0.01092 0.83851 0.44724 0.0
H898 H 0.94703 0.72434 0.38514 0.0
H899 H 0.95932 0.69071 0.40226 0.0
Mn900 Mn 0.15028 0.90252 0.56153 0.0
Mn901 Mn 0.16964 0.92756 0.52811 0.0
C902 C 0.12936 0.89656 0.50731 0.0
C903 C 0.11798 0.8777 0.59456 0.0
C904 C 0.10269 0.97049 0.56204 0.0
O905 O 0.18847 0.87278 0.58761 0.0
O906 O 0.1879 0.87922 0.58121 0.0
C907 C 0.22904 0.88993 0.49575 0.0
N908 N 0.2175 0.92382 0.49896 0.0
C909 C 0.26492 0.93142 0.43978 0.0
C910 C 0.27237 0.89248 0.44543 0.0
C911 C 0.257 0.87463 0.4729 0.0
C912 C 0.22967 0.94919 0.47934 0.0
H913 H 0.24373 0.87994 0.48451 0.0
C914 C 0.21378 0.86562 0.6031 0.0
O915 O 0.12948 0.90154 0.60083 0.0
O916 O 0.12646 0.86799 0.57076 0.0
N917 N 0.17847 0.96271 0.48489 0.0
C918 C 0.14964 0.96774 0.4799 0.0
C919 C 0.13586 -0.00838 0.45923 0.0
C920 C 0.15115 0.00152 0.42818 0.0
C921 C 0.21079 0.98566 0.42569 0.0
C922 C 0.20732 0.97064 0.46961 0.0
H923 H 0.14257 0.98116 0.46953 0.0
O924 O 0.11531 0.90381 0.52919 0.0
O925 O 0.15418 0.89324 0.51446 0.0
O926 O 0.11535 0.94285 0.56132 0.0
O927 O 0.11995 0.94366 0.55767 0.0
C928 C 0.25423 0.9543 0.40778 0.0
C929 C 0.27745 0.95153 0.41911 0.0
H930 H 0.27126 0.91182 0.43994 0.0
H931 H 0.26505 0.85052 0.47176 0.0
H932 H 0.11053 -0.0007 0.46666 0.0
H933 H 0.14288 0.01056 0.44744 0.0
H934 H 0.257 0.94665 0.38512 0.0
H935 H 0.29067 0.95902 0.4021 0.0
Mn936 Mn 0.07895 0.14975 0.56069 0.0
Mn937 Mn 0.05386 0.16912 0.52779 0.0
C938 C 0.08485 0.12907 0.50578 0.0
C939 C 0.10359 0.11754 0.59396 0.0
C940 C 0.01076 0.1023 0.56168 0.0
O941 O 0.10875 0.18781 0.58734 0.0
O942 O 0.10243 0.18714 0.58097 0.0
C943 C 0.09154 0.22834 0.49564 0.0
N944 N 0.0576 0.21662 0.49856 0.0
C945 C 0.05006 0.26396 0.43958 0.0
C946 C 0.08894 0.27165 0.44552 0.0
C947 C 0.10675 0.25651 0.47302 0.0
C948 C 0.03217 0.2289 0.47897 0.0
H949 H 0.10147 0.24317 0.48454 0.0
C950 C 0.11614 0.21315 0.60295 0.0
O951 O 0.07971 0.12903 0.60007 0.0
O952 O 0.11328 0.12573 0.57004 0.0
N953 N 0.01873 0.17813 0.48448 0.0
C954 C 0.01321 0.14956 0.47963 0.0
C955 C 0.98923 0.13583 0.45925 0.0
C956 C 0.97896 0.15066 0.42832 0.0
C957 C -0.0048 0.21027 0.4254 0.0
C958 C 0.01053 0.20672 0.46925 0.0
H959 H -0.00031 0.14265 0.46919 0.0
O960 O 0.07681 0.11514 0.52755 0.0
O961 O 0.08829 0.15376 0.51359 0.0
O962 O 0.03839 0.11503 0.56092 0.0
O963 O 0.03761 0.11959 0.55728 0.0
C964 C 0.02728 0.25341 0.40754 0.0
C965 C 0.03011 0.27655 0.41892 0.0
H966 H 0.06966 0.27039 0.43991 0.0
H967 H 0.13082 0.26473 0.47198 0.0
H968 H 0.98172 0.1106 0.46695 0.0
H969 H 0.96959 0.14265 0.44776 0.0
H970 H 0.0357 0.25579 0.38522 0.0
H971 H 0.02206 0.2897 0.40199 0.0
Mn972 Mn 0.83127 0.07861 0.56155 0.0
Mn973 Mn 0.81196 0.05345 0.52808 0.0
C974 C 0.85226 0.08437 0.5073 0.0
C975 C 0.86363 0.10344 0.59455 0.0
C976 C 0.87881 0.01059 0.56198 0.0
O977 O 0.79295 0.1081 0.5878 0.0
O978 O 0.7935 0.10167 0.58136 0.0
C979 C 0.75238 0.091 0.4959 0.0
N980 N 0.76398 0.05717 0.49899 0.0
C981 C 0.71679 0.04964 0.43985 0.0
C982 C 0.7093 0.08856 0.44552 0.0
C983 C 0.72457 0.10638 0.47303 0.0
C984 C 0.75195 0.03185 0.47928 0.0
H985 H 0.73778 0.10105 0.48465 0.0
C986 C 0.76762 0.11509 0.60329 0.0
O987 O 0.85209 0.07963 0.60083 0.0
O988 O 0.85519 0.11311 0.57073 0.0
N989 N 0.80316 0.01831 0.4848 0.0
C990 C 0.83201 0.01319 0.4798 0.0
C991 C 0.84584 0.98934 0.45907 0.0
C992 C 0.83063 0.97959 0.42799 0.0
C993 C 0.77089 -0.00453 0.42563 0.0
C994 C 0.7743 0.01046 0.46954 0.0
H995 H 0.83909 -0.00024 0.46936 0.0
O996 O 0.86626 0.07711 0.52917 0.0
O997 O 0.82745 0.08778 0.51447 0.0
O998 O 0.86602 0.03816 0.56143 0.0
O999 O 0.86145 0.03734 0.5577 0.0
C1000 C 0.72751 0.02687 0.40789 0.0
C1001 C 0.70426 0.02959 0.41918 0.0
H1002 H 0.71044 0.06925 0.44004 0.0
H1003 H 0.71656 0.13051 0.47188 0.0
H1004 H 0.87115 0.98163 0.46643 0.0
H1005 H 0.83888 0.97027 0.44719 0.0
H1006 H 0.72476 0.03456 0.38526 0.0
H1007 H 0.69107 0.02204 0.40218 0.0
Mn1008 Mn 0.90231 0.14995 0.42002 0.0
Mn1009 Mn 0.9274 0.16921 0.45327 0.0
C1010 C 0.89647 0.12916 0.47434 0.0
C1011 C 0.87774 0.11761 0.38702 0.0
C1012 C 0.97008 0.10203 0.42013 0.0
O1013 O 0.87199 0.18797 0.39389 0.0
O1014 O 0.87828 0.18714 0.40022 0.0
C1015 C 0.88974 0.22823 0.48593 0.0
N1016 N 0.92376 0.21679 0.48268 0.0
C1017 C 0.93164 0.26444 0.54171 0.0
C1018 C 0.89264 0.2719 0.53606 0.0
C1019 C 0.87471 0.2565 0.50861 0.0
C1020 C 0.94932 0.2292 0.50207 0.0
H1021 H 0.87994 0.24312 0.49708 0.0
C1022 C 0.86477 0.21339 0.37824 0.0
O1023 O 0.90155 0.12921 0.38076 0.0
O1024 O 0.86795 0.12596 0.41086 0.0
N1025 N 0.96288 0.17798 0.49644 0.0
C1026 C 0.96784 0.14916 0.5016 0.0
C1027 C -0.00816 0.13554 0.52204 0.0
C1028 C 0.00176 0.15077 0.55306 0.0
C1029 C 0.98603 0.2103 0.55559 0.0
C1030 C 0.97089 0.20684 0.51172 0.0
H1031 H 0.98138 0.14207 0.51188 0.0
O1032 O 0.90355 0.11505 0.45247 0.0
O1033 O 0.89316 0.15399 0.46714 0.0
O1034 O 0.9425 0.11484 0.42061 0.0
O1035 O 0.94334 0.11938 0.42413 0.0
C1036 C 0.95451 0.25373 0.5736 0.0
C1037 C 0.95176 0.27695 0.56229 0.0
H1038 H 0.91198 0.2708 0.54156 0.0
H1039 H 0.85065 0.26468 0.50971 0.0
H1040 H -0.00043 0.11026 0.5146 0.0
H1041 H 0.01094 0.1425 0.53384 0.0
H1042 H 0.94686 0.25647 0.59625 0.0
H1043 H 0.95935 0.29016 0.57924 0.0
Mn1044 Mn 0.83134 0.90235 0.41959 0.0
Mn1045 Mn 0.81229 0.92738 0.45297 0.0
C1046 C 0.85239 0.8966 0.47393 0.0
C1047 C 0.86377 0.87766 0.38671 0.0
C1048 C 0.87908 0.97049 0.41929 0.0
O1049 O 0.79321 0.87201 0.39332 0.0
O1050 O 0.79406 0.87823 0.39964 0.0
C1051 C 0.75291 0.88967 0.48568 0.0
N1052 N 0.76446 0.92361 0.4826 0.0
C1053 C 0.71688 0.93136 0.54156 0.0
C1054 C 0.70938 0.8924 0.53592 0.0
C1055 C 0.72475 0.87451 0.50843 0.0
C1056 C 0.75219 0.94904 0.50206 0.0
H1057 H 0.73808 0.87978 0.49687 0.0
C1058 C 0.76773 0.8651 0.37759 0.0
O1059 O 0.85227 0.90146 0.3804 0.0
O1060 O 0.85523 0.86792 0.41047 0.0
N1061 N 0.80343 0.96269 0.4964 0.0
C1062 C 0.83228 0.96778 0.50148 0.0
C1063 C 0.84567 -0.00831 0.52218 0.0
C1064 C 0.83032 0.0015 0.55324 0.0
C1065 C 0.77103 0.98563 0.55564 0.0
C1066 C 0.77452 0.97054 0.51172 0.0
H1067 H 0.83932 0.98124 0.5119 0.0
O1068 O 0.86637 0.90386 0.452 0.0
O1069 O 0.82757 0.89319 0.46676 0.0
O1070 O 0.86625 0.94288 0.41983 0.0
O1071 O 0.86173 0.94371 0.42349 0.0
C1072 C 0.72751 0.95433 0.5735 0.0
C1073 C 0.70432 0.95153 0.56214 0.0
H1074 H 0.71049 0.91174 0.54141 0.0
H1075 H 0.71664 0.85043 0.50957 0.0
H1076 H 0.871 -0.00058 0.51483 0.0
H1077 H 0.83867 0.01071 0.53404 0.0
H1078 H 0.72467 0.94674 0.59616 0.0
H1079 H 0.69107 0.95901 0.57908 0.0
Mn1080 Mn 0.07907 0.83104 0.41973 0.0
Mn1081 Mn 0.05398 0.81184 0.45317 0.0
C1082 C 0.08484 0.85199 0.47404 0.0
C1083 C 0.1038 0.86345 0.38682 0.0
C1084 C 0.01098 0.87867 0.41955 0.0
O1085 O 0.10948 0.79299 0.39358 0.0
O1086 O 0.1032 0.79382 0.39992 0.0
C1087 C 0.09173 0.75269 0.48581 0.0
N1088 N 0.05773 0.76413 0.48268 0.0
C1089 C 0.04998 0.71648 0.54165 0.0
C1090 C 0.08898 0.70907 0.53594 0.0
C1091 C 0.10686 0.72449 0.50846 0.0
C1092 C 0.03224 0.75172 0.50216 0.0
H1093 H 0.1016 0.73784 0.49694 0.0
C1094 C 0.11654 0.76755 0.37787 0.0
O1095 O 0.07999 0.85191 0.38052 0.0
O1096 O 0.1135 0.855 0.41061 0.0
N1097 N 0.01866 0.80282 0.49652 0.0
C1098 C 0.01361 0.83168 0.50152 0.0
C1099 C 0.98981 0.84539 0.52226 0.0
C1100 C 0.9801 0.83026 0.55344 0.0
C1101 C -0.00423 0.77063 0.55581 0.0
C1102 C 0.01077 0.77399 0.51186 0.0
H1103 H 0.00019 0.83879 0.51196 0.0
O1104 O 0.07765 0.86601 0.45215 0.0
O1105 O 0.08821 0.82718 0.46686 0.0
O1106 O 0.03856 0.86584 0.42006 0.0
O1107 O 0.03773 0.86128 0.42376 0.0
C1108 C 0.02718 0.7272 0.57361 0.0
C1109 C 0.02993 0.70393 0.56225 0.0
H1110 H 0.06964 0.71014 0.54145 0.0
H1111 H 0.13094 0.71638 0.50957 0.0
H1112 H 0.98213 0.87069 0.51485 0.0
H1113 H 0.97086 0.83851 0.53424 0.0
H1114 H 0.03472 0.72436 0.59628 0.0
H1115 H 0.02237 0.6907 0.5792 0.0
Mn1116 Mn 0.15131 0.07692 0.42077 0.0
Mn1117 Mn 0.16955 0.05332 0.45347 0.0
C1118 C 0.12945 0.08465 0.47461 0.0
C1119 C 0.1203 0.10224 0.38979 0.0
C1120 C 0.1026 0.01021 0.41958 0.0
O1121 O 0.18858 0.10786 0.39429 0.0
O1122 O 0.18784 0.10156 0.4004 0.0
C1123 C 0.22885 0.09109 0.4857 0.0
N1124 N 0.21731 0.05718 0.48251 0.0
C1125 C 0.26461 0.04967 0.54168 0.0
C1126 C 0.2721 0.08862 0.536 0.0
C1127 C 0.2568 0.10644 0.5085 0.0
C1128 C 0.22941 0.03184 0.50213 0.0
H1129 H 0.24353 0.10112 0.4969 0.0
C1130 C 0.21367 0.11525 0.37846 0.0
O1131 O 0.13007 0.07807 0.38206 0.0
O1132 O 0.12917 0.11146 0.41345 0.0
N1133 N 0.17823 0.01819 0.49661 0.0
C1134 C 0.1494 0.01314 0.50164 0.0
C1135 C 0.13593 0.98924 0.5223 0.0
C1136 C 0.1512 0.97937 0.5533 0.0
C1137 C 0.21052 -0.00469 0.55579 0.0
C1138 C 0.20707 0.01035 0.51187 0.0
H1139 H 0.14229 -0.00031 0.51201 0.0
O1140 O 0.11579 0.07671 0.45283 0.0
O1141 O 0.15439 0.08747 0.46767 0.0
O1142 O 0.11507 0.03788 0.42118 0.0
O1143 O 0.11964 0.03712 0.42427 0.0
C1144 C 0.25394 0.02676 0.57363 0.0
C1145 C 0.27715 0.02955 0.56227 0.0
H1146 H 0.27097 0.06929 0.54151 0.0
H1147 H 0.26486 0.13056 0.50958 0.0
H1148 H 0.11062 0.98151 0.51493 0.0
H1149 H 0.14294 0.97016 0.53406 0.0
H1150 H 0.25668 0.03448 0.59625 0.0
H1151 H 0.29036 0.02192 0.57919 0.0
Mn1152 Mn 0.56039 0.90494 0.82984 0.0
Mn1153 Mn 0.52778 0.92798 0.8118 0.0
C1154 C 0.50679 0.89637 0.85199 0.0
C1155 C 0.59018 0.87891 0.86069 0.0
C1156 C 0.56193 0.97099 0.87878 0.0
O1157 O 0.58692 0.87437 0.79275 0.0
O1158 O 0.58083 0.88086 0.79327 0.0
C1159 C 0.49605 0.8903 0.75208 0.0
N1160 N 0.49926 0.92407 0.76373 0.0
C1161 C 0.4399 0.93136 0.71677 0.0
C1162 C 0.44552 0.89245 0.7093 0.0
C1163 C 0.47302 0.87467 0.72456 0.0
C1164 C 0.47941 0.94924 0.75194 0.0
H1165 H 0.48472 0.88006 0.73767 0.0
C1166 C 0.6028 0.86741 0.76784 0.0
O1167 O 0.59884 0.90304 0.85159 0.0
O1168 O 0.56652 0.87033 0.85141 0.0
N1169 N 0.48483 0.96285 0.80316 0.0
C1170 C 0.47986 0.96783 0.83199 0.0
C1171 C 0.45903 -0.00832 0.84563 0.0
C1172 C 0.42798 0.00149 0.83038 0.0
C1173 C 0.42576 0.98562 0.77089 0.0
C1174 C 0.46964 0.97066 0.77431 0.0
H1175 H 0.46949 0.98124 0.83907 0.0
O1176 O 0.52854 0.90447 0.86552 0.0
O1177 O 0.51357 0.89383 0.82703 0.0
O1178 O 0.55988 0.94331 0.86649 0.0
O1179 O 0.55699 0.94403 0.86191 0.0
C1180 C 0.40792 0.95424 0.72744 0.0
C1181 C 0.41927 0.95148 0.70421 0.0
H1182 H 0.44005 0.91177 0.71043 0.0
H1183 H 0.47186 0.85049 0.71665 0.0
H1184 H 0.46642 -0.00063 0.87095 0.0
H1185 H 0.4472 0.01069 0.83867 0.0
H1186 H 0.38527 0.9466 0.72466 0.0
H1187 H 0.40231 0.95898 0.69099 0.0
Mn1188 Mn 0.07883 0.56135 0.83132 0.0
Mn1189 Mn 0.05375 0.52797 0.81203 0.0
C1190 C 0.08462 0.50708 0.85223 0.0
C1191 C 0.10358 0.59428 0.86371 0.0
C1192 C 0.01069 0.56168 0.87891 0.0
O1193 O 0.10906 0.5875 0.79322 0.0
O1194 O 0.10273 0.58113 0.79396 0.0
C1195 C 0.0916 0.4954 0.75291 0.0
N1196 N 0.0576 0.49857 0.76438 0.0
C1197 C 0.04991 0.43953 0.71674 0.0
C1198 C 0.08891 0.44522 0.7093 0.0
C1199 C 0.10679 0.4727 0.72473 0.0
C1200 C 0.03215 0.47908 0.75204 0.0
H1201 H 0.10151 0.48424 0.73808 0.0
C1202 C 0.11629 0.60311 0.76781 0.0
O1203 O 0.07977 0.60058 0.85219 0.0
O1204 O 0.11328 0.57048 0.85523 0.0
N1205 N 0.01847 0.48468 0.80319 0.0
C1206 C 0.0134 0.47964 0.83203 0.0
C1207 C 0.98953 0.45895 0.84565 0.0
C1208 C 0.97974 0.42787 0.8304 0.0
C1209 C -0.00444 0.42544 0.77088 0.0
C1210 C 0.01061 0.46937 0.77434 0.0
H1211 H -6e-05 0.46922 0.83909 0.0
O1212 O 0.07738 0.52896 0.86628 0.0
O1213 O 0.08799 0.51426 0.82741 0.0
O1214 O 0.0383 0.56112 0.86612 0.0
O1215 O 0.03749 0.55743 0.86156 0.0
C1216 C 0.027 0.40759 0.7274 0.0
C1217 C 0.02978 0.41896 0.70418 0.0
H1218 H 0.06956 0.43971 0.71039 0.0
H1219 H 0.13089 0.4716 0.71661 0.0
H1220 H 0.98181 0.46632 0.87097 0.0
H1221 H 0.97052 0.44707 0.83869 0.0
H1222 H 0.03458 0.38494 0.72458 0.0
H1223 H 0.02222 0.40204 0.69094 0.0
Mn1224 Mn 0.41976 0.07849 0.83131 0.0
Mn1225 Mn 0.45323 0.0534 0.81194 0.0
C1226 C 0.47398 0.08439 0.85224 0.0
C1227 C 0.38673 0.10332 0.86364 0.0
C1228 C 0.4193 0.0105 0.87888 0.0
O1229 O 0.39364 0.10808 0.79307 0.0
O1230 O 0.40007 0.10164 0.79362 0.0
C1231 C 0.48559 0.09103 0.75252 0.0
N1232 N 0.48237 0.05717 0.76406 0.0
C1233 C 0.54159 0.04957 0.71667 0.0
C1234 C 0.53596 0.08852 0.70924 0.0
C1235 C 0.50847 0.10637 0.72461 0.0
C1236 C 0.502 0.03181 0.75193 0.0
H1237 H 0.49684 0.10105 0.73786 0.0
C1238 C 0.37818 0.11519 0.76775 0.0
O1239 O 0.38045 0.07949 0.85215 0.0
O1240 O 0.41055 0.11301 0.85516 0.0
N1241 N 0.49645 0.01828 0.8031 0.0
C1242 C 0.50141 0.01324 0.8319 0.0
C1243 C 0.52229 0.98936 0.84548 0.0
C1244 C 0.55335 0.97938 0.83012 0.0
C1245 C 0.55563 -0.00471 0.77081 0.0
C1246 C 0.51172 0.01036 0.77428 0.0
H1247 H 0.51178 -0.00017 0.83896 0.0
O1248 O 0.45208 0.07715 0.86629 0.0
O1249 O 0.46684 0.08772 0.82742 0.0
O1250 O 0.41992 0.0381 0.86614 0.0
O1251 O 0.42362 0.03728 0.86155 0.0
C1252 C 0.57365 0.02653 0.72733 0.0
C1253 C 0.56228 0.02939 0.70419 0.0
H1254 H 0.54145 0.06916 0.71033 0.0
H1255 H 0.50963 0.13049 0.71659 0.0
H1256 H 0.51485 0.98169 0.87082 0.0
H1257 H 0.53406 0.97052 0.83843 0.0
H1258 H 0.59631 0.03422 0.72458 0.0
H1259 H 0.57928 0.02201 0.69094 0.0
Mn1260 Mn 0.90258 0.41958 0.83132 0.0
Mn1261 Mn 0.92771 0.45303 0.81199 0.0
C1262 C 0.89677 0.47384 0.85225 0.0
C1263 C 0.87784 0.38658 0.86371 0.0
C1264 C 0.97062 0.41922 0.87887 0.0
O1265 O 0.87265 0.39346 0.79315 0.0
O1266 O 0.87904 0.39986 0.7938 0.0
C1267 C 0.89003 0.48545 0.75274 0.0
N1268 N 0.92397 0.48229 0.76422 0.0
C1269 C 0.93164 0.54138 0.71676 0.0
C1270 C 0.89266 0.53569 0.70933 0.0
C1271 C 0.87479 0.50821 0.7247 0.0
C1272 C 0.9494 0.50186 0.75197 0.0
H1273 H 0.88008 0.49664 0.73799 0.0
C1274 C 0.86547 0.37791 0.76777 0.0
O1275 O 0.90165 0.38031 0.85213 0.0
O1276 O 0.86812 0.41038 0.85529 0.0
N1277 N 0.96295 0.49629 0.80313 0.0
C1278 C 0.968 0.50129 0.83197 0.0
C1279 C -0.00819 0.52199 0.84564 0.0
C1280 C 0.00162 0.55307 0.83045 0.0
C1281 C 0.98588 0.55551 0.77089 0.0
C1282 C 0.97087 0.51159 0.77429 0.0
H1283 H 0.98143 0.5117 0.83906 0.0
O1284 O 0.904 0.45197 0.86629 0.0
O1285 O 0.89341 0.46666 0.82744 0.0
O1286 O 0.94303 0.41979 0.8661 0.0
O1287 O 0.94385 0.42349 0.86153 0.0
C1288 C 0.95447 0.57335 0.72747 0.0
C1289 C 0.95173 0.56201 0.70422 0.0
H1290 H 0.912 0.5412 0.71042 0.0
H1291 H 0.85069 0.50933 0.71662 0.0
H1292 H -0.00051 0.5146 0.87095 0.0
H1293 H 0.01086 0.53386 0.8387 0.0
H1294 H 0.94686 0.596 0.72469 0.0
H1295 H 0.95929 0.57899 0.691 0.0
Mn1296 Mn 0.56175 0.07924 0.15018 0.0
Mn1297 Mn 0.52848 0.05414 0.16926 0.0
C1298 C 0.50737 0.08494 0.12933 0.0
C1299 C 0.59471 0.10378 0.11776 0.0
C1300 C 0.56154 0.01138 0.10218 0.0
O1301 O 0.58795 0.10987 0.18821 0.0
O1302 O 0.58166 0.1037 0.18721 0.0
C1303 C 0.4956 0.09171 0.22836 0.0
N1304 N 0.49878 0.0577 0.21688 0.0
C1305 C 0.43983 0.04967 0.26459 0.0
C1306 C 0.44549 0.08866 0.27212 0.0
C1307 C 0.47295 0.10663 0.25673 0.0
C1308 C 0.47947 0.03209 0.22933 0.0
H1309 H 0.48447 0.10144 0.24332 0.0
C1310 C 0.60372 0.11681 0.21375 0.0
O1311 O 0.60099 0.08001 0.12937 0.0
O1312 O 0.5709 0.11356 0.12618 0.0
N1313 N 0.48517 0.01851 0.17801 0.0
C1314 C 0.47998 0.01352 0.14916 0.0
C1315 C 0.45973 0.98943 0.13555 0.0
C1316 C 0.42867 0.97952 0.15083 0.0
C1317 C 0.42599 -0.0047 0.2104 0.0
C1318 C 0.46987 0.01051 0.20695 0.0
H1319 H 0.46972 -6e-05 0.14203 0.0
O1320 O 0.52929 0.07791 0.11524 0.0
O1321 O 0.51456 0.08828 0.15416 0.0
O1322 O 0.56112 0.03897 0.11503 0.0
O1323 O 0.55761 0.03812 0.11953 0.0
C1324 C 0.408 0.0268 0.25387 0.0
C1325 C 0.41927 0.02955 0.27712 0.0
H1326 H 0.44 0.06932 0.27099 0.0
H1327 H 0.47183 0.13066 0.26496 0.0
H1328 H 0.46713 0.98165 0.11025 0.0
H1329 H 0.44788 0.97034 0.14252 0.0
H1330 H 0.38534 0.0344 0.25665 0.0
H1331 H 0.40232 0.02194 0.29035 0.0
Mn1332 Mn 0.90287 0.5615 0.15018 0.0
Mn1333 Mn 0.92792 0.52807 0.16941 0.0
C1334 C 0.897 0.50724 0.1292 0.0
C1335 C 0.87818 0.59444 0.11783 0.0
C1336 C 0.97101 0.56169 0.10255 0.0
O1337 O 0.8725 0.58757 0.18826 0.0
O1338 O 0.87881 0.58122 0.18747 0.0
C1339 C 0.89008 0.49544 0.22855 0.0
N1340 N 0.92409 0.49861 0.21711 0.0
C1341 C 0.93169 0.43962 0.26475 0.0
C1342 C 0.89269 0.44532 0.27217 0.0
C1343 C 0.87487 0.47277 0.25674 0.0
C1344 C 0.94953 0.47911 0.22949 0.0
H1345 H 0.88016 0.48429 0.24339 0.0
C1346 C 0.86535 0.60323 0.2137 0.0
O1347 O 0.902 0.60073 0.12935 0.0
O1348 O 0.86844 0.57065 0.12629 0.0
N1349 N 0.96316 0.48479 0.17838 0.0
C1350 C 0.96821 0.47978 0.14951 0.0
C1351 C -0.00798 0.45906 0.13578 0.0
C1352 C 0.00163 0.42784 0.15087 0.0
C1353 C 0.98593 0.42547 0.21053 0.0
C1354 C 0.971 0.46941 0.20721 0.0
H1355 H 0.98163 0.46937 0.14239 0.0
O1356 O 0.9042 0.52913 0.11517 0.0
O1357 O 0.89366 0.51439 0.15404 0.0
O1358 O 0.9434 0.56116 0.11534 0.0
O1359 O 0.94422 0.55747 0.11991 0.0
C1360 C 0.95446 0.40766 0.254 0.0
C1361 C 0.95169 0.41903 0.27728 0.0
H1362 H 0.91201 0.43982 0.27109 0.0
H1363 H 0.85077 0.47165 0.26485 0.0
H1364 H -0.00023 0.46653 0.1105 0.0
H1365 H 0.01087 0.44703 0.14263 0.0
H1366 H 0.94693 0.38499 0.25686 0.0
H1367 H 0.95918 0.40211 0.29052 0.0
Mn1368 Mn 0.42104 0.90211 0.14989 0.0
Mn1369 Mn 0.45382 0.92723 0.16914 0.0
C1370 C 0.47625 0.89648 0.12934 0.0
C1371 C 0.38762 0.87787 0.11748 0.0
C1372 C 0.41998 0.97032 0.10243 0.0
O1373 O 0.39416 0.87202 0.18789 0.0
O1374 O 0.40049 0.87823 0.18708 0.0
C1375 C 0.48606 0.88966 0.22838 0.0
N1376 N 0.48321 0.92362 0.21666 0.0
C1377 C 0.5421 0.93132 0.26405 0.0
C1378 C 0.53615 0.89246 0.27177 0.0
C1379 C 0.50861 0.8746 0.25665 0.0
C1380 C 0.50273 0.94911 0.22904 0.0
H1381 H 0.49713 0.87983 0.24328 0.0
C1382 C 0.37839 0.86481 0.21332 0.0
O1383 O 0.38162 0.90165 0.1292 0.0
O1384 O 0.41151 0.86802 0.12557 0.0
N1385 N 0.49727 0.96247 0.17826 0.0
C1386 C 0.50212 0.96809 0.14969 0.0
C1387 C 0.52233 -0.00788 0.13593 0.0
C1388 C 0.55319 0.0025 0.15075 0.0
C1389 C 0.55632 0.98617 0.21042 0.0
C1390 C 0.51246 0.97076 0.20684 0.0
H1391 H 0.51256 0.98163 0.14274 0.0
O1392 O 0.45452 0.90467 0.11545 0.0
O1393 O 0.46821 0.89282 0.15393 0.0
O1394 O 0.42069 0.94275 0.11525 0.0
O1395 O 0.42433 0.94353 0.11976 0.0
C1396 C 0.5741 0.95408 0.25347 0.0
C1397 C 0.56274 0.95125 0.27663 0.0
H1398 H 0.54176 0.91171 0.2705 0.0
H1399 H 0.50964 0.85057 0.26491 0.0
H1400 H 0.51469 -0.0004 0.1107 0.0
H1401 H 0.53374 0.01197 0.14278 0.0
H1402 H 0.59638 0.94561 0.25581 0.0
H1403 H 0.57966 0.95951 0.28973 0.0
Mn1404 Mn 0.07915 0.41956 0.15012 0.0
Mn1405 Mn 0.0541 0.45295 0.16926 0.0
C1406 C 0.08492 0.4739 0.1292 0.0
C1407 C 0.10374 0.38669 0.11765 0.0
C1408 C 0.01102 0.41944 0.10245 0.0
O1409 O 0.10994 0.39343 0.188 0.0
O1410 O 0.10374 0.39973 0.18701 0.0
C1411 C 0.092 0.4858 0.22818 0.0
N1412 N 0.05792 0.48269 0.21681 0.0
C1413 C 0.05012 0.54157 0.26468 0.0
C1414 C 0.08914 0.53586 0.27208 0.0
C1415 C 0.10702 0.50836 0.25659 0.0
C1416 C 0.03238 0.50203 0.22939 0.0
H1417 H 0.10179 0.49688 0.24315 0.0
C1418 C 0.11683 0.37762 0.21353 0.0
O1419 O 0.07994 0.38038 0.12924 0.0
O1420 O 0.1135 0.41048 0.12609 0.0
N1421 N 0.01874 0.49635 0.17842 0.0
C1422 C 0.01358 0.50131 0.14968 0.0
C1423 C 0.98976 0.522 0.13596 0.0
C1424 C 0.98012 0.55322 0.15102 0.0
C1425 C -0.00415 0.55566 0.21055 0.0
C1426 C 0.01084 0.51174 0.20719 0.0
H1427 H 0.00046 0.51184 0.14218 0.0
O1428 O 0.07772 0.452 0.11516 0.0
O1429 O 0.0883 0.46671 0.15401 0.0
O1430 O 0.03858 0.4199 0.11535 0.0
O1431 O 0.03775 0.4236 0.11988 0.0
C1432 C 0.02723 0.57351 0.25405 0.0
C1433 C 0.03002 0.56211 0.27726 0.0
H1434 H 0.06979 0.54138 0.27103 0.0
H1435 H 0.13107 0.50945 0.26477 0.0
H1436 H 0.98221 0.51471 0.11053 0.0
H1437 H 0.9709 0.534 0.14278 0.0
H1438 H 0.03479 0.59618 0.25689 0.0
H1439 H 0.02245 0.57899 0.29051 0.0
Mn1440 Mn 0.83129 0.56134 0.9026 0.0
Mn1441 Mn 0.81206 0.52798 0.92766 0.0
C1442 C 0.85223 0.50704 0.89682 0.0
C1443 C 0.86369 0.59426 0.87787 0.0
C1444 C 0.87891 0.56157 0.9707 0.0
O1445 O 0.79329 0.58749 0.8722 0.0
O1446 O 0.79412 0.58116 0.87847 0.0
C1447 C 0.75293 0.4953 0.88985 0.0
N1448 N 0.76436 0.49846 0.92386 0.0
C1449 C 0.71667 0.43947 0.9316 0.0
C1450 C 0.70925 0.44514 0.89261 0.0
C1451 C 0.7247 0.47262 0.87473 0.0
C1452 C 0.75194 0.47902 0.94933 0.0
H1453 H 0.73806 0.48415 0.87999 0.0
C1454 C 0.76785 0.60319 0.86511 0.0
O1455 O 0.85216 0.60056 0.90169 0.0
O1456 O 0.85526 0.57044 0.86818 0.0
N1457 N 0.80315 0.48467 0.96295 0.0
C1458 C 0.83204 0.4796 0.96793 0.0
C1459 C 0.84595 0.45919 -0.00828 0.0
C1460 C 0.83069 0.42815 0.00152 0.0
C1461 C 0.77081 0.42541 0.98584 0.0
C1462 C 0.77426 0.46933 0.97083 0.0
H1463 H 0.83912 0.4692 0.98139 0.0
O1464 O 0.86627 0.52894 0.90402 0.0
O1465 O 0.82741 0.51422 0.89344 0.0
O1466 O 0.86611 0.56103 0.9431 0.0
O1467 O 0.86156 0.55736 0.94393 0.0
C1468 C 0.72736 0.40752 0.95446 0.0
C1469 C 0.70413 0.41886 0.9517 0.0
H1470 H 0.71032 0.43964 0.91196 0.0
H1471 H 0.71658 0.47151 0.85066 0.0
H1472 H 0.87127 0.46652 -0.00059 0.0
H1473 H 0.83896 0.44737 0.01084 0.0
H1474 H 0.72457 0.38485 0.94687 0.0
H1475 H 0.6909 0.40188 0.95921 0.0
Mn1476 Mn 0.83144 0.41969 0.07878 0.0
Mn1477 Mn 0.81221 0.45318 0.05367 0.0
C1478 C 0.85244 0.47394 0.08461 0.0
C1479 C 0.86376 0.38669 0.10346 0.0
C1480 C 0.87909 0.41938 0.01067 0.0
O1481 O 0.79327 0.3936 0.10892 0.0
O1482 O 0.794 0.39999 0.10256 0.0
C1483 C 0.75301 0.4857 0.09144 0.0
N1484 N 0.7645 0.48254 0.05747 0.0
C1485 C 0.71692 0.54156 0.04986 0.0
C1486 C 0.70947 0.53588 0.08884 0.0
C1487 C 0.72487 0.50841 0.10667 0.0
C1488 C 0.7522 0.50207 0.03204 0.0
H1489 H 0.7382 0.49686 0.10138 0.0
C1490 C 0.76785 0.37799 0.11605 0.0
O1491 O 0.85223 0.38043 0.07965 0.0
O1492 O 0.85531 0.41047 0.11321 0.0
N1493 N 0.80328 0.4965 0.01844 0.0
C1494 C 0.83211 0.50148 0.01329 0.0
C1495 C 0.84552 0.52198 0.98955 0.0
C1496 C 0.83039 0.55316 0.97987 0.0
C1497 C 0.7711 0.55574 -0.00441 0.0
C1498 C 0.77448 0.51181 0.01057 0.0
H1499 H 0.83919 0.51192 -0.00011 0.0
O1500 O 0.86646 0.45205 0.07739 0.0
O1501 O 0.8276 0.46679 0.08796 0.0
O1502 O 0.86624 0.4199 0.03825 0.0
O1503 O 0.86168 0.42363 0.03744 0.0
C1504 C 0.72762 0.57353 0.02702 0.0
C1505 C 0.70436 0.56213 0.0298 0.0
H1506 H 0.71057 0.54137 0.06951 0.0
H1507 H 0.71677 0.50952 0.13077 0.0
H1508 H 0.87081 0.51452 0.98183 0.0
H1509 H 0.83865 0.53396 0.97067 0.0
H1510 H 0.72476 0.59619 0.03457 0.0
H1511 H 0.69113 0.57904 0.02226 0.0
Mn1512 Mn 0.5603 0.8299 0.07661 0.0
Mn1513 Mn 0.52795 0.81169 0.05354 0.0
C1514 C 0.50669 0.85178 0.08516 0.0
C1515 C 0.59028 0.86092 0.10203 0.0
C1516 C 0.56137 0.87911 0.01087 0.0
O1517 O 0.58672 0.79288 0.10751 0.0
O1518 O 0.58069 0.79346 0.10108 0.0
C1519 C 0.49587 0.75233 0.09112 0.0
N1520 N 0.4993 0.76385 0.05725 0.0
C1521 C 0.43996 0.71664 0.04962 0.0
C1522 C 0.44552 0.70919 0.08857 0.0
C1523 C 0.47291 0.72454 0.10648 0.0
C1524 C 0.47964 0.75185 0.03188 0.0
H1525 H 0.48457 0.73776 0.10118 0.0
C1526 C 0.60248 0.76791 0.11497 0.0
O1527 O 0.59887 0.85142 0.07801 0.0
O1528 O 0.56663 0.85179 0.11093 0.0
N1529 N 0.48518 0.80323 0.01838 0.0
C1530 C 0.48006 0.8321 0.01368 0.0
C1531 C 0.45948 0.84549 0.98969 0.0
C1532 C 0.42848 0.83021 0.9797 0.0
C1533 C 0.42619 0.77089 -0.00471 0.0
C1534 C 0.46997 0.77432 0.01039 0.0
H1535 H 0.46992 0.83926 0.00013 0.0
O1536 O 0.52844 0.86546 0.07733 0.0
O1537 O 0.51348 0.82679 0.08763 0.0
O1538 O 0.55937 0.86685 0.03854 0.0
O1539 O 0.55667 0.8623 0.03782 0.0
C1540 C 0.40803 0.72742 0.02675 0.0
C1541 C 0.41929 0.70417 0.0295 0.0
H1542 H 0.44009 0.7103 0.06924 0.0
H1543 H 0.47175 0.71652 0.13062 0.0
H1544 H 0.46695 0.8708 0.98197 0.0
H1545 H 0.44771 0.83853 0.97068 0.0
H1546 H 0.38533 0.7247 0.03436 0.0
H1547 H 0.40223 0.69096 0.02209 0.0
Mn1548 Mn 0.15042 0.56147 0.07872 0.0
Mn1549 Mn 0.1697 0.52803 0.05363 0.0
C1550 C 0.12939 0.50724 0.08456 0.0
C1551 C 0.11815 0.59449 0.10352 0.0
C1552 C 0.10282 0.56188 0.01074 0.0
O1553 O 0.18862 0.58762 0.10851 0.0
O1554 O 0.18801 0.58122 0.1021 0.0
C1555 C 0.22903 0.49569 0.0913 0.0
N1556 N 0.21752 0.49885 0.05739 0.0
C1557 C 0.26491 0.43974 0.0498 0.0
C1558 C 0.27234 0.4454 0.08875 0.0
C1559 C 0.25698 0.47288 0.1066 0.0
C1560 C 0.2297 0.47923 0.03201 0.0
H1561 H 0.24372 0.48447 0.10129 0.0
C1562 C 0.21397 0.60315 0.11565 0.0
O1563 O 0.12966 0.60074 0.07968 0.0
O1564 O 0.12661 0.5707 0.11324 0.0
N1565 N 0.17853 0.48479 0.01844 0.0
C1566 C 0.14967 0.47979 0.0134 0.0
C1567 C 0.13572 0.45886 0.98965 0.0
C1568 C 0.1509 0.42776 0.9799 0.0
C1569 C 0.21078 0.42559 -0.00443 0.0
C1570 C 0.20738 0.4695 0.01056 0.0
H1571 H 0.14259 0.46938 -2e-05 0.0
O1572 O 0.11539 0.52914 0.07735 0.0
O1573 O 0.15422 0.51439 0.08793 0.0
O1574 O 0.11557 0.56128 0.03833 0.0
O1575 O 0.12015 0.55758 0.03751 0.0
C1576 C 0.25421 0.40778 0.02698 0.0
C1577 C 0.27747 0.41913 0.02972 0.0
H1578 H 0.27124 0.43992 0.06943 0.0
H1579 H 0.26501 0.47174 0.13071 0.0
H1580 H 0.11041 0.46624 0.98197 0.0
H1581 H 0.14265 0.44696 0.97064 0.0
H1582 H 0.25701 0.38512 0.03456 0.0
H1583 H 0.29069 0.40217 0.02217 0.0
Mn1584 Mn 0.42003 0.15002 0.07872 0.0
Mn1585 Mn 0.45349 0.16944 0.05357 0.0
C1586 C 0.47426 0.12914 0.08454 0.0
C1587 C 0.38702 0.11767 0.10356 0.0
C1588 C 0.41966 0.10252 0.01065 0.0
O1589 O 0.39389 0.18824 0.10844 0.0
O1590 O 0.40032 0.18766 0.102 0.0
C1591 C 0.48583 0.22874 0.09128 0.0
N1592 N 0.48265 0.21723 0.05736 0.0
C1593 C 0.54184 0.26465 0.04977 0.0
C1594 C 0.53614 0.27209 0.08873 0.0
C1595 C 0.50864 0.25673 0.10658 0.0
C1596 C 0.5023 0.22941 0.03197 0.0
H1597 H 0.49705 0.24345 0.10127 0.0
C1598 C 0.37841 0.21357 0.11567 0.0
O1599 O 0.38075 0.12917 0.07974 0.0
O1600 O 0.41083 0.12615 0.11323 0.0
N1601 N 0.49675 0.17821 0.01841 0.0
C1602 C 0.50175 0.14937 0.01339 0.0
C1603 C 0.52215 0.13548 0.98961 0.0
C1604 C 0.55324 0.15068 0.97981 0.0
C1605 C 0.556 0.2105 -0.00448 0.0
C1606 C 0.51205 0.20707 0.01051 0.0
H1607 H 0.51216 0.14228 -5e-05 0.0
O1608 O 0.45238 0.11508 0.07733 0.0
O1609 O 0.4671 0.15396 0.08788 0.0
O1610 O 0.42025 0.11525 0.03827 0.0
O1611 O 0.42395 0.11984 0.03745 0.0
C1612 C 0.57384 0.25392 0.02697 0.0
C1613 C 0.56251 0.27717 0.02971 0.0
H1614 H 0.54164 0.27099 0.0694 0.0
H1615 H 0.50976 0.26478 0.13069 0.0
H1616 H 0.51476 0.11016 0.98192 0.0
H1617 H 0.53401 0.14242 0.97054 0.0
H1618 H 0.59649 0.2567 0.03459 0.0
H1619 H 0.57952 0.29038 0.02216 0.0
Mn1620 Mn 0.1501 0.41946 0.90261 0.0
Mn1621 Mn 0.16933 0.45285 0.9277 0.0
C1622 C 0.12916 0.47374 0.89684 0.0
C1623 C 0.11772 0.38654 0.87786 0.0
C1624 C 0.10245 0.41915 0.97074 0.0
O1625 O 0.18818 0.39331 0.87231 0.0
O1626 O 0.18738 0.39966 0.87862 0.0
C1627 C 0.22846 0.48548 0.88984 0.0
N1628 N 0.217 0.48233 0.92385 0.0
C1629 C 0.26469 0.54134 0.93156 0.0
C1630 C 0.27214 0.53565 0.89256 0.0
C1631 C 0.2567 0.50816 0.87469 0.0
C1632 C 0.22936 0.50178 0.9493 0.0
H1633 H 0.24333 0.49663 0.87996 0.0
C1634 C 0.21361 0.37765 0.86515 0.0
O1635 O 0.12921 0.38024 0.90168 0.0
O1636 O 0.12621 0.41034 0.86817 0.0
N1637 N 0.17821 0.49615 0.96298 0.0
C1638 C 0.14936 0.5012 0.96806 0.0
C1639 C 0.13602 0.52214 -0.00814 0.0
C1640 C 0.15131 0.55321 0.00166 0.0
C1641 C 0.21052 0.55541 0.98589 0.0
C1642 C 0.20707 0.51148 0.97083 0.0
H1643 H 0.14226 0.51159 0.98151 0.0
O1644 O 0.11512 0.45185 0.90406 0.0
O1645 O 0.154 0.46657 0.89347 0.0
O1646 O 0.11529 0.41968 0.94315 0.0
O1647 O 0.11984 0.42338 0.94396 0.0
C1648 C 0.25404 0.57327 0.9545 0.0
C1649 C 0.27724 0.5619 0.9517 0.0
H1650 H 0.27106 0.54116 0.91191 0.0
H1651 H 0.26483 0.50926 0.8506 0.0
H1652 H 0.11069 0.51478 -0.00041 0.0
H1653 H 0.14299 0.53401 0.01085 0.0
H1654 H 0.25687 0.59592 0.94691 0.0
H1655 H 0.2905 0.57881 0.95924 0.0
Mn1656 Mn 0.56157 0.14984 0.9026 0.0
Mn1657 Mn 0.52816 0.16911 0.92767 0.0
C1658 C 0.50726 0.12892 0.89682 0.0
C1659 C 0.59451 0.11745 0.87788 0.0
C1660 C 0.56188 0.10226 0.97068 0.0
O1661 O 0.58772 0.1879 0.87234 0.0
O1662 O 0.58135 0.18714 0.87867 0.0
C1663 C 0.49557 0.22813 0.88982 0.0
N1664 N 0.49874 0.21671 0.92383 0.0
C1665 C 0.43968 0.26434 0.93158 0.0
C1666 C 0.44539 0.27175 0.89258 0.0
C1667 C 0.4729 0.25633 0.87469 0.0
C1668 C 0.47927 0.22909 0.94931 0.0
H1669 H 0.48444 0.24298 0.87994 0.0
C1670 C 0.60336 0.21332 0.86512 0.0
O1671 O 0.60081 0.129 0.90168 0.0
O1672 O 0.5707 0.12589 0.86818 0.0
N1673 N 0.48486 0.17799 0.96296 0.0
C1674 C 0.47982 0.14918 0.96804 0.0
C1675 C 0.45938 0.13579 -0.00818 0.0
C1676 C 0.4283 0.15102 0.00166 0.0
C1677 C 0.42559 0.21024 0.98592 0.0
C1678 C 0.46954 0.20681 0.97085 0.0
H1679 H 0.46939 0.14211 0.98148 0.0
O1680 O 0.52913 0.11488 0.90405 0.0
O1681 O 0.51446 0.15373 0.89344 0.0
O1682 O 0.56132 0.11504 0.94309 0.0
O1683 O 0.55764 0.11961 0.9439 0.0
C1684 C 0.40773 0.25369 0.95452 0.0
C1685 C 0.41911 0.2769 0.95174 0.0
H1686 H 0.43986 0.27069 0.91193 0.0
H1687 H 0.47182 0.26446 0.85061 0.0
H1688 H 0.46676 0.11048 -0.00049 0.0
H1689 H 0.44751 0.14274 0.01085 0.0
H1690 H 0.38508 0.25649 0.94692 0.0
H1691 H 0.40219 0.29014 0.95932 0.0
Mn1692 Mn 0.42109 0.83129 0.90252 0.0
Mn1693 Mn 0.45391 0.81173 0.92771 0.0
C1694 C 0.47613 0.85175 0.89656 0.0
C1695 C 0.38759 0.86349 0.87804 0.0
C1696 C 0.41984 0.87866 0.97059 0.0
O1697 O 0.39433 0.79315 0.87322 0.0
O1698 O 0.40075 0.79365 0.87966 0.0
C1699 C 0.4858 0.75255 0.8901 0.0
N1700 N 0.4828 0.76426 0.924 0.0
C1701 C 0.54192 0.717 0.93151 0.0
C1702 C 0.53601 0.70934 0.89265 0.0
C1703 C 0.5085 0.72447 0.87482 0.0
C1704 C 0.50245 0.75205 0.94941 0.0
H1705 H 0.49694 0.73779 0.88011 0.0
C1706 C 0.37884 0.76787 0.86574 0.0
O1707 O 0.38161 0.85192 0.90191 0.0
O1708 O 0.4115 0.85537 0.86825 0.0
N1709 N 0.49709 0.80265 0.96273 0.0
C1710 C 0.50184 0.83111 0.9684 0.0
C1711 C 0.52252 0.84506 -0.00768 0.0
C1712 C 0.55341 0.83017 0.00289 0.0
C1713 C 0.55608 0.7706 0.98653 0.0
C1714 C 0.51224 0.77422 0.97109 0.0
H1715 H 0.51223 0.83802 0.98187 0.0
O1716 O 0.45444 0.86573 0.90477 0.0
O1717 O 0.46814 0.82712 0.89313 0.0
O1718 O 0.42067 0.8659 0.94302 0.0
O1719 O 0.42436 0.86131 0.94379 0.0
C1720 C 0.57404 0.72749 0.95448 0.0
C1721 C 0.56258 0.70444 0.95155 0.0
H1722 H 0.54162 0.71059 0.91194 0.0
H1723 H 0.50954 0.71632 0.85073 0.0
H1724 H 0.51468 0.8703 -0.00024 0.0
H1725 H 0.53386 0.83818 0.01179 0.0
H1726 H 0.59633 0.72517 0.94596 0.0
H1727 H 0.57948 0.69131 0.95971 0.0
Mn1728 Mn 0.56622 0.65188 0.91383 0.0
Mn1729 Mn 0.55817 0.67276 0.98426 0.0
C1730 C 0.58408 0.62381 0.97418 0.0
C1731 C 0.59654 0.6165 0.88625 0.0
C1732 C 0.58833 0.71892 0.89782 0.0
O1733 O 0.53425 0.61212 0.90869 0.0
O1734 O 0.5356 0.62533 0.94645 0.0
C1735 C 0.46554 0.67196 0.04503 0.0
N1736 N 0.50941 0.6862 0.02496 0.0
C1737 C 0.51791 0.68438 0.08605 0.0
C1738 C 0.48896 0.66985 0.09663 0.0
C1739 C 0.46463 0.66357 0.07818 0.0
C1740 C 0.53006 0.69229 0.04993 0.0
H1741 H 0.44514 0.66786 0.039 0.0
C1742 C 0.51404 0.60989 0.92789 0.0
O1743 O 0.59881 0.64283 0.88578 0.0
O1744 O 0.57592 0.60994 0.90222 0.0
N1745 N 0.57993 0.69975 0.032 0.0
C1746 C 0.60869 0.71067 0.03758 0.0
C1747 C 0.61928 0.73442 0.05451 0.0
C1748 C 0.59886 0.7525 0.06944 0.0
C1749 C 0.54018 0.72822 0.06339 0.0
C1750 C 0.55136 0.70754 0.04602 0.0
H1751 H 0.62627 0.7009 0.02734 0.0
O1752 O 0.58209 0.64457 0.95651 0.0
O1753 O 0.5824 0.64572 0.95796 0.0
O1754 O 0.59304 0.69416 0.91157 0.0
O1755 O 0.58928 0.69183 0.91793 0.0
C1756 C 0.52414 0.71098 0.09545 0.0
C1757 C 0.53236 0.68586 0.11098 0.0
H1758 H 0.48541 0.66431 0.11902 0.0
H1759 H 0.44697 0.65661 0.09115 0.0
H1760 H 0.60945 0.74597 0.06885 0.0
H1761 H 0.59772 0.78012 0.06745 0.0
H1762 H 0.5199 0.71924 0.11867 0.0
H1763 H 0.52664 0.67906 0.1326 0.0
Mn1764 Mn 0.32894 0.56598 0.91369 0.0
Mn1765 Mn 0.3083 0.55777 0.98426 0.0
C1766 C 0.35744 0.58384 0.97403 0.0
C1767 C 0.36459 0.59623 0.88621 0.0
C1768 C 0.26016 0.58769 0.89896 0.0
O1769 O 0.36896 0.53399 0.90872 0.0
O1770 O 0.35608 0.53538 0.94648 0.0
C1771 C 0.30952 0.46533 0.04519 0.0
N1772 N 0.29528 0.50918 0.02504 0.0
C1773 C 0.29713 0.51778 0.08616 0.0
C1774 C 0.31161 0.48885 0.0967 0.0
C1775 C 0.31799 0.46448 0.07823 0.0
C1776 C 0.28926 0.52984 0.05018 0.0
H1777 H 0.31381 0.44497 0.03904 0.0
C1778 C 0.37149 0.51377 0.92787 0.0
O1779 O 0.33826 0.59858 0.8858 0.0
O1780 O 0.37103 0.57554 0.90206 0.0
N1781 N 0.2818 0.57954 0.03212 0.0
C1782 C 0.26998 0.60816 0.03785 0.0
C1783 C 0.24547 0.61799 0.05521 0.0
C1784 C 0.22602 0.59654 0.06997 0.0
C1785 C 0.25229 0.53932 0.0641 0.0
C1786 C 0.27421 0.55092 0.04653 0.0
H1787 H 0.27983 0.62603 0.02778 0.0
O1788 O 0.33665 0.58178 0.95639 0.0
O1789 O 0.3355 0.58209 0.95788 0.0
O1790 O 0.28609 0.59291 0.9109 0.0
O1791 O 0.28829 0.58857 0.91758 0.0
C1792 C 0.27025 0.52419 0.09583 0.0
C1793 C 0.29566 0.53232 0.11093 0.0
H1794 H 0.31716 0.48529 0.11909 0.0
H1795 H 0.32498 0.44681 0.09116 0.0
H1796 H 0.23332 0.60843 0.06912 0.0
H1797 H 0.19944 0.59481 0.06649 0.0
H1798 H 0.26199 0.52005 0.11888 0.0
H1799 H 0.30245 0.52659 0.13257 0.0
Mn1800 Mn 0.41509 0.32862 0.91377 0.0
Mn1801 Mn 0.42323 0.308 0.98432 0.0
C1802 C 0.39725 0.35707 0.9742 0.0
C1803 C 0.38496 0.36425 0.88622 0.0
C1804 C 0.39327 0.2599 0.89896 0.0
O1805 O 0.44711 0.3686 0.90876 0.0
O1806 O 0.44572 0.35574 0.94654 0.0
C1807 C 0.51625 0.30926 0.04509 0.0
N1808 N 0.47241 0.29498 0.02501 0.0
C1809 C 0.46375 0.29682 0.08612 0.0
C1810 C 0.4927 0.31132 0.09667 0.0
C1811 C 0.5171 0.31769 0.0782 0.0
C1812 C 0.45172 0.28893 0.05013 0.0
H1813 H 0.53664 0.31347 0.03897 0.0
C1814 C 0.46733 0.37117 0.92793 0.0
O1815 O 0.38259 0.33793 0.88577 0.0
O1816 O 0.4056 0.37069 0.90218 0.0
N1817 N 0.40202 0.28141 0.03217 0.0
C1818 C 0.37335 0.26968 0.03789 0.0
C1819 C 0.36343 0.24523 0.05523 0.0
C1820 C 0.38485 0.22578 0.07003 0.0
C1821 C 0.44225 0.25187 0.06406 0.0
C1822 C 0.43074 0.27378 0.04641 0.0
H1823 H 0.35551 0.27953 0.02779 0.0
O1824 O 0.39928 0.33632 0.9565 0.0
O1825 O 0.39897 0.33517 0.95798 0.0
O1826 O 0.38814 0.28578 0.91101 0.0
O1827 O 0.39242 0.28798 0.91766 0.0
C1828 C 0.45736 0.26995 0.09575 0.0
C1829 C 0.44918 0.29533 0.11089 0.0
H1830 H 0.49624 0.31689 0.11905 0.0
H1831 H 0.53475 0.32468 0.09115 0.0
H1832 H 0.37294 0.23316 0.06917 0.0
H1833 H 0.38634 0.19923 0.06658 0.0
H1834 H 0.46146 0.26175 0.11883 0.0
H1835 H 0.45489 0.30217 0.13253 0.0
Mn1836 Mn 0.65263 0.41485 0.9137 0.0
Mn1837 Mn 0.67311 0.423 0.98423 0.0
C1838 C 0.62396 0.39705 0.97405 0.0
C1839 C 0.61713 0.38457 0.88623 0.0
C1840 C 0.7214 0.39314 0.8989 0.0
O1841 O 0.61248 0.44669 0.90867 0.0
O1842 O 0.62533 0.44537 0.94623 0.0
C1843 C 0.67233 0.51594 0.0452 0.0
N1844 N 0.68664 0.47213 0.02507 0.0
C1845 C 0.68476 0.46345 0.08617 0.0
C1846 C 0.67026 0.49238 0.09676 0.0
C1847 C 0.66385 0.51678 0.07831 0.0
C1848 C 0.69261 0.4515 0.05018 0.0
H1849 H 0.668 0.53629 0.03911 0.0
C1850 C 0.60984 0.46702 0.92776 0.0
O1851 O 0.64346 0.38207 0.88603 0.0
O1852 O 0.61061 0.40543 0.90186 0.0
N1853 N 0.70016 0.40193 0.03226 0.0
C1854 C 0.71213 0.3733 0.03811 0.0
C1855 C 0.73693 0.36376 0.05574 0.0
C1856 C 0.75719 0.38602 0.07051 0.0
C1857 C 0.73045 0.44253 0.06448 0.0
C1858 C 0.70783 0.43097 0.04636 0.0
H1859 H 0.70224 0.35531 0.028 0.0
O1860 O 0.64476 0.39906 0.95638 0.0
O1861 O 0.6459 0.39875 0.95786 0.0
O1862 O 0.69547 0.38791 0.91084 0.0
O1863 O 0.69326 0.39223 0.9175 0.0
C1864 C 0.7118 0.45712 0.09589 0.0
C1865 C 0.68632 0.44887 0.11089 0.0
H1866 H 0.66469 0.49593 0.11915 0.0
H1867 H 0.65681 0.53445 0.09123 0.0
H1868 H 0.74928 0.37308 0.06936 0.0
H1869 H 0.78309 0.38734 0.06642 0.0
H1870 H 0.71994 0.46119 0.11891 0.0
H1871 H 0.67939 0.45457 0.13253 0.0
Mn1872 Mn 0.56647 0.32871 0.06773 0.0
Mn1873 Mn 0.55834 0.30817 -0.00282 0.0
C1874 C 0.58429 0.35729 0.00736 0.0
C1875 C 0.59674 0.36421 0.0952 0.0
C1876 C 0.58817 0.26002 0.08254 0.0
O1877 O 0.53462 0.36883 0.0728 0.0
O1878 O 0.53595 0.35592 0.03524 0.0
C1879 C 0.46528 0.30896 0.93621 0.0
N1880 N 0.50909 0.29472 0.95631 0.0
C1881 C 0.51787 0.29643 0.89526 0.0
C1882 C 0.48891 0.31094 0.88464 0.0
C1883 C 0.46445 0.31739 0.90309 0.0
C1884 C 0.52973 0.28871 0.93128 0.0
H1885 H 0.4449 0.3133 0.94232 0.0
C1886 C 0.51428 0.3714 0.05374 0.0
O1887 O 0.59923 0.3379 0.09539 0.0
O1888 O 0.57588 0.37072 0.07957 0.0
N1889 N 0.57924 0.2811 0.94906 0.0
C1890 C 0.60793 0.26923 0.94314 0.0
C1891 C 0.61743 0.24434 0.9254 0.0
C1892 C 0.59483 0.22375 0.91057 0.0
C1893 C 0.5385 0.25039 0.9168 0.0
C1894 C 0.54987 0.2733 0.93532 0.0
H1895 H 0.62593 0.27917 0.95331 0.0
O1896 O 0.58229 0.33652 0.02502 0.0
O1897 O 0.5826 0.33538 0.02355 0.0
O1898 O 0.59338 0.2859 0.07053 0.0
O1899 O 0.58909 0.28811 0.0639 0.0
C1900 C 0.52415 0.26936 0.88557 0.0
C1901 C 0.53255 0.29478 0.87054 0.0
H1902 H 0.48543 0.31659 0.86227 0.0
H1903 H 0.44678 0.32444 0.89023 0.0
H1904 H 0.60826 0.23197 0.91183 0.0
H1905 H 0.59393 0.19815 0.91485 0.0
H1906 H 0.52018 0.26127 0.8625 0.0
H1907 H 0.52684 0.30178 0.84893 0.0
Mn1908 Mn 0.6528 0.5661 0.06768 0.0
Mn1909 Mn 0.67337 0.55802 -0.00287 0.0
C1910 C 0.62424 0.58397 0.00734 0.0
C1911 C 0.61743 0.59652 0.09527 0.0
C1912 C 0.72158 0.58791 0.08249 0.0
O1913 O 0.61271 0.53419 0.07271 0.0
O1914 O 0.62556 0.53556 0.03497 0.0
C1915 C 0.67205 0.46504 0.93624 0.0
N1916 N 0.68626 0.50885 0.95632 0.0
C1917 C 0.68455 0.51756 0.89528 0.0
C1918 C 0.67008 0.48863 0.88467 0.0
C1919 C 0.66364 0.4642 0.90311 0.0
C1920 C 0.69226 0.52945 0.93122 0.0
H1921 H 0.6678 0.44468 0.94236 0.0
C1922 C 0.6101 0.51395 0.05355 0.0
O1923 O 0.64376 0.59884 0.0955 0.0
O1924 O 0.61083 0.57579 0.07952 0.0
N1925 N 0.70001 0.57894 0.94902 0.0
C1926 C 0.71213 0.60759 0.94307 0.0
C1927 C 0.7372 0.61689 0.92522 0.0
C1928 C 0.75796 0.59397 0.91051 0.0
C1929 C 0.73078 0.53813 0.91664 0.0
C1930 C 0.70769 0.54956 0.93518 0.0
H1931 H 0.70218 0.62567 0.95318 0.0
O1932 O 0.64501 0.58195 0.02501 0.0
O1933 O 0.64615 0.58226 0.02353 0.0
O1934 O 0.69563 0.59314 0.07061 0.0
O1935 O 0.69343 0.58881 0.06393 0.0
C1936 C 0.71175 0.52392 0.88547 0.0
C1937 C 0.68625 0.53222 0.8706 0.0
H1938 H 0.6645 0.48511 0.86229 0.0
H1939 H 0.65662 0.44654 0.89019 0.0
H1940 H 0.74973 0.6077 0.91186 0.0
H1941 H 0.78343 0.59289 0.91505 0.0
H1942 H 0.71986 0.51989 0.86247 0.0
H1943 H 0.67927 0.52653 0.84897 0.0
Mn1944 Mn 0.41528 0.6527 0.06769 0.0
Mn1945 Mn 0.42349 0.67323 -0.00281 0.0
C1946 C 0.39764 0.62408 0.00723 0.0
C1947 C 0.38514 0.61706 0.09513 0.0
C1948 C 0.39359 0.72149 0.08243 0.0
O1949 O 0.44701 0.61249 0.07285 0.0
O1950 O 0.44581 0.62539 0.03546 0.0
C1951 C 0.51629 0.67217 0.93621 0.0
N1952 N 0.47243 0.68651 0.95648 0.0
C1953 C 0.46374 0.68461 0.89538 0.0
C1954 C 0.49266 0.66995 0.88473 0.0
C1955 C 0.5171 0.66361 0.90315 0.0
C1956 C 0.45177 0.69254 0.9315 0.0
H1957 H 0.53671 0.6679 0.94238 0.0
C1958 C 0.46753 0.6098 0.05379 0.0
O1959 O 0.3825 0.64337 0.09529 0.0
O1960 O 0.40611 0.61063 0.07955 0.0
N1961 N 0.40204 0.69983 0.9492 0.0
C1962 C 0.37333 0.71122 0.94349 0.0
C1963 C 0.36325 0.7356 0.9263 0.0
C1964 C 0.38454 0.75511 0.91133 0.0
C1965 C 0.4424 0.72966 0.91744 0.0
C1966 C 0.43102 0.70778 0.9354 0.0
H1967 H 0.35555 0.70132 0.9537 0.0
O1968 O 0.39961 0.64482 0.02495 0.0
O1969 O 0.3993 0.64595 0.02347 0.0
O1970 O 0.38842 0.69558 0.07044 0.0
O1971 O 0.39273 0.69341 0.06383 0.0
C1972 C 0.45741 0.71125 0.88578 0.0
C1973 C 0.44903 0.68591 0.87062 0.0
H1974 H 0.49606 0.66417 0.86237 0.0
H1975 H 0.53475 0.65651 0.89022 0.0
H1976 H 0.37267 0.74754 0.91222 0.0
H1977 H 0.38535 0.78169 0.91451 0.0
H1978 H 0.46146 0.71938 0.86259 0.0
H1979 H 0.45472 0.67898 0.849 0.0
Mn1980 Mn 0.32902 0.41514 0.06765 0.0
Mn1981 Mn 0.30848 0.42324 -0.0029 0.0
C1982 C 0.35761 0.3973 0.00726 0.0
C1983 C 0.36438 0.38472 0.09517 0.0
C1984 C 0.26024 0.39337 0.08248 0.0
O1985 O 0.36913 0.44702 0.07267 0.0
O1986 O 0.35628 0.44563 0.03504 0.0
C1987 C 0.30926 0.51577 0.93614 0.0
N1988 N 0.29498 0.47195 0.95629 0.0
C1989 C 0.2968 0.46323 0.89522 0.0
C1990 C 0.31132 0.49218 0.88463 0.0
C1991 C 0.31776 0.51661 0.90308 0.0
C1992 C 0.28902 0.45133 0.93122 0.0
H1993 H 0.31363 0.53612 0.94231 0.0
C1994 C 0.37175 0.46728 0.05356 0.0
O1995 O 0.33804 0.38234 0.09536 0.0
O1996 O 0.37098 0.40549 0.07947 0.0
N1997 N 0.28136 0.40184 0.94902 0.0
C1998 C 0.26933 0.37318 0.94311 0.0
C1999 C 0.24437 0.36377 0.92534 0.0
C2000 C 0.22376 0.38648 0.91059 0.0
C2001 C 0.25069 0.44259 0.91673 0.0
C2002 C 0.27365 0.43115 0.93518 0.0
H2003 H 0.27925 0.35515 0.95324 0.0
O2004 O 0.33683 0.39932 0.02494 0.0
O2005 O 0.33569 0.39902 0.02346 0.0
O2006 O 0.28616 0.38817 0.07052 0.0
O2007 O 0.28837 0.39247 0.06386 0.0
C2008 C 0.26968 0.4569 0.8855 0.0
C2009 C 0.29516 0.44859 0.87052 0.0
H2010 H 0.31695 0.49571 0.86226 0.0
H2011 H 0.3248 0.53429 0.8902 0.0
H2012 H 0.23194 0.37297 0.91188 0.0
H2013 H 0.19817 0.38752 0.91499 0.0
H2014 H 0.26159 0.46091 0.86247 0.0
H2015 H 0.30216 0.45431 0.84891 0.0
Mn2016 Mn 0.91376 0.56602 0.65267 0.0
Mn2017 Mn 0.98431 0.55786 0.6732 0.0
C2018 C 0.97417 0.58386 0.62407 0.0
C2019 C 0.88635 0.59629 0.61717 0.0
C2020 C 0.89889 0.58772 0.7214 0.0
O2021 O 0.90874 0.53415 0.61254 0.0
O2022 O 0.94633 0.53547 0.62544 0.0
C2023 C 0.0453 0.46511 0.67214 0.0
N2024 N 0.02519 0.50892 0.68642 0.0
C2025 C 0.08627 0.51763 0.68462 0.0
C2026 C 0.09688 0.48869 0.67011 0.0
C2027 C 0.07842 0.46427 0.66369 0.0
C2028 C 0.05027 0.52955 0.69241 0.0
H2029 H 0.03919 0.44475 0.6678 0.0
C2030 C 0.92783 0.51382 0.60996 0.0
O2031 O 0.88619 0.59884 0.64349 0.0
O2032 O 0.90196 0.57541 0.61065 0.0
N2033 N 0.03245 0.57907 0.70003 0.0
C2034 C 0.03833 0.60773 0.71195 0.0
C2035 C 0.05602 0.61724 0.73681 0.0
C2036 C 0.07081 0.59479 0.75725 0.0
C2037 C 0.06467 0.53839 0.73054 0.0
C2038 C 0.04632 0.54985 0.70775 0.0
H2039 H 0.02819 0.62572 0.70204 0.0
O2040 O 0.95649 0.5818 0.64486 0.0
O2041 O 0.95797 0.5821 0.646 0.0
O2042 O 0.91093 0.59291 0.69552 0.0
O2043 O 0.91756 0.58862 0.6933 0.0
C2044 C 0.09597 0.52394 0.7117 0.0
C2045 C 0.11101 0.53225 0.68625 0.0
H2046 H 0.11926 0.48517 0.66449 0.0
H2047 H 0.09131 0.4466 0.65664 0.0
H2048 H 0.0696 0.60801 0.74915 0.0
H2049 H 0.06657 0.59373 0.78296 0.0
H2050 H 0.11902 0.51993 0.7198 0.0
H2051 H 0.13263 0.52654 0.67927 0.0
Mn2052 Mn 0.41525 0.91341 0.65257 0.0
Mn2053 Mn 0.42342 0.98396 0.67315 0.0
C2054 C 0.39747 0.97376 0.62405 0.0
C2055 C 0.38503 0.88596 0.61695 0.0
C2056 C 0.39346 0.89865 0.72132 0.0
O2057 O 0.44722 0.90843 0.6125 0.0
O2058 O 0.4459 0.94614 0.62542 0.0
C2059 C 0.51599 0.04499 0.67208 0.0
N2060 N 0.47208 0.02486 0.68641 0.0
C2061 C 0.46356 0.08598 0.68452 0.0
C2062 C 0.49253 0.0965 0.67001 0.0
C2063 C 0.51688 0.07805 0.66362 0.0
C2064 C 0.45142 0.04999 0.69245 0.0
H2065 H 0.5364 0.03888 0.66788 0.0
C2066 C 0.46751 0.92758 0.60999 0.0
O2067 O 0.38256 0.88563 0.64328 0.0
O2068 O 0.40585 0.90171 0.6105 0.0
N2069 N 0.40163 0.03186 0.69988 0.0
C2070 C 0.373 0.03751 0.71167 0.0
C2071 C 0.36303 0.05474 0.73604 0.0
C2072 C 0.38417 0.06949 0.75503 0.0
C2073 C 0.44167 0.06372 0.72897 0.0
C2074 C 0.43009 0.0464 0.70741 0.0
H2075 H 0.35518 0.02744 0.70187 0.0
O2076 O 0.39947 0.9561 0.64483 0.0
O2077 O 0.39916 0.95758 0.64597 0.0
O2078 O 0.38833 0.91064 0.69543 0.0
O2079 O 0.39263 0.91729 0.69323 0.0
C2080 C 0.45712 0.09559 0.71132 0.0
C2081 C 0.44906 0.11074 0.68594 0.0
H2082 H 0.49613 0.11887 0.66446 0.0
H2083 H 0.53457 0.09097 0.65664 0.0
H2084 H 0.37271 0.06876 0.74807 0.0
H2085 H 0.38603 0.06629 0.78196 0.0
H2086 H 0.4613 0.11865 0.71961 0.0
H2087 H 0.45482 0.13238 0.67918 0.0
Mn2088 Mn 0.0678 0.41492 0.65249 0.0
Mn2089 Mn -0.00279 0.42308 0.67311 0.0
C2090 C 0.00741 0.3971 0.62401 0.0
C2091 C 0.09536 0.38471 0.61687 0.0
C2092 C 0.08253 0.39316 0.72124 0.0
O2093 O 0.07285 0.4469 0.61249 0.0
O2094 O 0.03507 0.44553 0.62536 0.0
C2095 C 0.93632 0.51579 0.67212 0.0
N2096 N 0.95639 0.47197 0.68637 0.0
C2097 C 0.89528 0.46331 0.68457 0.0
C2098 C 0.88473 0.49225 0.67009 0.0
C2099 C 0.9032 0.51665 0.66369 0.0
C2100 C 0.93126 0.45132 0.69239 0.0
H2101 H 0.94244 0.53617 0.66789 0.0
C2102 C 0.05367 0.46712 0.60991 0.0
O2103 O 0.09578 0.38239 0.64319 0.0
O2104 O 0.07944 0.40536 0.61041 0.0
N2105 N 0.94919 0.40168 0.69996 0.0
C2106 C 0.94339 0.37305 0.71182 0.0
C2107 C 0.92588 0.36334 0.73646 0.0
C2108 C 0.91109 0.38519 0.75635 0.0
C2109 C 0.91711 0.4421 0.72989 0.0
C2110 C 0.935 0.43056 0.70759 0.0
H2111 H 0.9535 0.35513 0.70194 0.0
O2112 O 0.02508 0.39912 0.64478 0.0
O2113 O 0.0236 0.39881 0.64592 0.0
O2114 O 0.07057 0.38798 0.69533 0.0
O2115 O 0.0639 0.39229 0.69313 0.0
C2116 C 0.88557 0.45694 0.71153 0.0
C2117 C 0.87053 0.44873 0.68609 0.0
H2118 H 0.86235 0.49579 0.66452 0.0
H2119 H 0.89029 0.53431 0.65669 0.0
H2120 H 0.91209 0.37276 0.74869 0.0
H2121 H 0.91487 0.38664 0.78255 0.0
H2122 H 0.86251 0.46101 0.71972 0.0
H2123 H 0.8489 0.45444 0.67923 0.0
Mn2124 Mn 0.56631 0.06754 0.6527 0.0
Mn2125 Mn 0.55811 -0.00288 0.67313 0.0
C2126 C 0.58404 0.00721 0.62402 0.0
C2127 C 0.59654 0.09495 0.61713 0.0
C2128 C 0.58792 0.08227 0.7215 0.0
O2129 O 0.53449 0.07254 0.61252 0.0
O2130 O 0.53574 0.03503 0.62542 0.0
C2131 C 0.46554 0.93596 0.67214 0.0
N2132 N 0.50946 0.9562 0.68654 0.0
C2133 C 0.51794 0.89496 0.68455 0.0
C2134 C 0.48897 0.88444 0.66997 0.0
C2135 C 0.46466 0.90291 0.66364 0.0
C2136 C 0.53022 0.9312 0.69266 0.0
H2137 H 0.44514 0.94202 0.66786 0.0
C2138 C 0.5141 0.05348 0.60993 0.0
O2139 O 0.59915 0.09508 0.64344 0.0
O2140 O 0.57556 0.07943 0.61066 0.0
N2141 N 0.58028 0.94953 0.69957 0.0
C2142 C 0.60897 0.94412 0.71075 0.0
C2143 C 0.61971 0.92766 0.73429 0.0
C2144 C 0.6 0.91317 0.75058 0.0
C2145 C 0.54167 0.91856 0.72646 0.0
C2146 C 0.55254 0.93476 0.70714 0.0
H2147 H 0.62645 0.95412 0.70115 0.0
O2148 O 0.58212 0.02487 0.64482 0.0
O2149 O 0.58243 0.02339 0.64595 0.0
O2150 O 0.59318 0.07038 0.69556 0.0
O2151 O 0.58882 0.06372 0.69336 0.0
C2152 C 0.52458 0.88572 0.7108 0.0
C2153 C 0.53246 0.87014 0.6857 0.0
H2154 H 0.48542 0.86207 0.66436 0.0
H2155 H 0.44696 0.88998 0.65665 0.0
H2156 H 0.60944 0.91308 0.74586 0.0
H2157 H 0.59804 0.91438 0.77992 0.0
H2158 H 0.52007 0.86251 0.71932 0.0
H2159 H 0.52661 0.84846 0.67912 0.0
Mn2160 Mn 0.91376 0.41497 0.32873 0.0
Mn2161 Mn 0.98435 0.42318 0.3082 0.0
C2162 C 0.97413 0.3972 0.35736 0.0
C2163 C 0.88629 0.3847 0.36426 0.0
C2164 C 0.899 0.39332 0.25988 0.0
O2165 O 0.90871 0.44683 0.36889 0.0
O2166 O 0.94631 0.44554 0.35602 0.0
C2167 C 0.04541 0.51599 0.30928 0.0
N2168 N 0.0253 0.47224 0.29507 0.0
C2169 C 0.08631 0.46339 0.29673 0.0
C2170 C 0.09699 0.49233 0.3112 0.0
C2171 C 0.07855 0.51682 0.31768 0.0
C2172 C 0.05033 0.45165 0.28911 0.0
H2173 H 0.0393 0.53633 0.31363 0.0
C2174 C 0.92779 0.46719 0.37151 0.0
O2175 O 0.88614 0.38216 0.33794 0.0
O2176 O 0.90188 0.40561 0.37076 0.0
N2177 N 0.03272 0.40228 0.28128 0.0
C2178 C 0.03887 0.37358 0.269 0.0
C2179 C 0.05702 0.36461 0.24357 0.0
C2180 C 0.07162 0.38857 0.22222 0.0
C2181 C 0.06531 0.44336 0.24986 0.0
C2182 C 0.04608 0.43219 0.27347 0.0
H2183 H 0.02875 0.35539 0.279 0.0
O2184 O 0.95647 0.39921 0.33659 0.0
O2185 O 0.95795 0.39891 0.33545 0.0
O2186 O 0.91082 0.38802 0.28585 0.0
O2187 O 0.9175 0.39237 0.28807 0.0
C2188 C 0.09616 0.45707 0.26938 0.0
C2189 C 0.11092 0.44859 0.29489 0.0
H2190 H 0.11935 0.49579 0.31686 0.0
H2191 H 0.09143 0.53449 0.32475 0.0
H2192 H 0.06998 0.37366 0.23074 0.0
H2193 H 0.06654 0.38924 0.19721 0.0
H2194 H 0.11917 0.46103 0.26136 0.0
H2195 H 0.13254 0.45431 0.302 0.0
Mn2196 Mn 0.56647 0.91355 0.32913 0.0
Mn2197 Mn 0.55839 0.98415 0.30827 0.0
C2198 C 0.5844 0.97386 0.35722 0.0
C2199 C 0.59669 0.88622 0.36464 0.0
C2200 C 0.58848 0.89762 0.26212 0.0
O2201 O 0.53454 0.90843 0.369 0.0
O2202 O 0.5359 0.94613 0.35576 0.0
C2203 C 0.46533 0.04499 0.30928 0.0
N2204 N 0.50916 0.02504 0.29516 0.0
C2205 C 0.51789 0.08604 0.29699 0.0
C2206 C 0.48892 0.09661 0.31141 0.0
C2207 C 0.46445 0.07813 0.31773 0.0
C2208 C 0.52973 0.05014 0.28931 0.0
H2209 H 0.44497 0.03885 0.31355 0.0
C2210 C 0.51432 0.92759 0.37131 0.0
O2211 O 0.59925 0.88591 0.33832 0.0
O2212 O 0.57584 0.90191 0.37113 0.0
N2213 N 0.57913 0.03252 0.28135 0.0
C2214 C 0.60785 0.03867 0.26917 0.0
C2215 C 0.61688 0.05695 0.24394 0.0
C2216 C 0.59298 0.07165 0.22275 0.0
C2217 C 0.53805 0.06519 0.25018 0.0
C2218 C 0.54929 0.04599 0.27368 0.0
H2219 H 0.62602 0.02847 0.27909 0.0
O2220 O 0.58226 0.95624 0.33645 0.0
O2221 O 0.58256 0.95769 0.33529 0.0
O2222 O 0.59324 0.91138 0.28685 0.0
O2223 O 0.58951 0.91776 0.28922 0.0
C2224 C 0.52421 0.09595 0.26966 0.0
C2225 C 0.5326 0.11071 0.29519 0.0
H2226 H 0.48546 0.11894 0.31718 0.0
H2227 H 0.44679 0.09103 0.32477 0.0
H2228 H 0.60784 0.07001 0.23126 0.0
H2229 H 0.59212 0.06675 0.19783 0.0
H2230 H 0.52023 0.11892 0.26165 0.0
H2231 H 0.52688 0.13231 0.30228 0.0
Mn2232 Mn 0.06789 0.56618 0.32884 0.0
Mn2233 Mn -0.00269 0.55799 0.30829 0.0
C2234 C 0.00745 0.58394 0.35739 0.0
C2235 C 0.09538 0.59634 0.36449 0.0
C2236 C 0.08274 0.58791 0.26007 0.0
O2237 O 0.07286 0.53425 0.36889 0.0
O2238 O 0.03511 0.53557 0.35605 0.0
C2239 C 0.93641 0.46522 0.30934 0.0
N2240 N 0.95649 0.50901 0.2951 0.0
C2241 C 0.89542 0.51771 0.29692 0.0
C2242 C 0.88482 0.48878 0.31138 0.0
C2243 C 0.90326 0.46436 0.31777 0.0
C2244 C 0.93137 0.52963 0.28914 0.0
H2245 H 0.9425 0.44488 0.3136 0.0
C2246 C 0.05369 0.51399 0.3715 0.0
O2247 O 0.09578 0.59877 0.33817 0.0
O2248 O 0.07954 0.57559 0.37093 0.0
N2249 N 0.94919 0.57916 0.28143 0.0
C2250 C 0.94328 0.6078 0.26938 0.0
C2251 C 0.92553 0.61719 0.24443 0.0
C2252 C 0.91082 0.59451 0.22385 0.0
C2253 C 0.91692 0.53841 0.25086 0.0
C2254 C 0.93527 0.5499 0.27377 0.0
H2255 H 0.95338 0.62585 0.2793 0.0
O2256 O 0.02516 0.58196 0.33663 0.0
O2257 O 0.02368 0.58227 0.33549 0.0
O2258 O 0.07079 0.59314 0.28601 0.0
O2259 O 0.06412 0.58883 0.28822 0.0
C2260 C 0.88566 0.52404 0.26975 0.0
C2261 C 0.87072 0.53231 0.29525 0.0
H2262 H 0.86243 0.48523 0.31696 0.0
H2263 H 0.89033 0.4467 0.32478 0.0
H2264 H 0.91208 0.60793 0.23196 0.0
H2265 H 0.91523 0.59334 0.19821 0.0
H2266 H 0.86265 0.52 0.26165 0.0
H2267 H 0.84908 0.52659 0.30221 0.0
Mn2268 Mn 0.41514 0.06752 0.32883 0.0
Mn2269 Mn 0.42341 -0.00306 0.30815 0.0
C2270 C 0.39735 0.00712 0.35728 0.0
C2271 C 0.38503 0.09501 0.36453 0.0
C2272 C 0.39343 0.08233 0.26016 0.0
O2273 O 0.44704 0.07254 0.36892 0.0
O2274 O 0.44572 0.03488 0.356 0.0
C2275 C 0.51653 0.93611 0.30895 0.0
N2276 N 0.47271 0.95619 0.2948 0.0
C2277 C 0.4639 0.89519 0.2967 0.0
C2278 C 0.49281 0.88458 0.3112 0.0
C2279 C 0.51732 0.90301 0.3175 0.0
C2280 C 0.45208 0.9311 0.2889 0.0
H2281 H 0.53693 0.9423 0.31319 0.0
C2282 C 0.46732 0.05341 0.37154 0.0
O2283 O 0.38256 0.09537 0.3382 0.0
O2284 O 0.4058 0.07919 0.37093 0.0
N2285 N 0.40255 0.94873 0.28119 0.0
C2286 C 0.37388 0.94275 0.26915 0.0
C2287 C 0.36458 0.92494 0.24408 0.0
C2288 C 0.38755 0.91018 0.22331 0.0
C2289 C 0.44344 0.91636 0.25036 0.0
C2290 C 0.43205 0.93505 0.27345 0.0
H2291 H 0.3558 0.95288 0.2791 0.0
O2292 O 0.3994 0.0248 0.33653 0.0
O2293 O 0.3991 0.02331 0.33538 0.0
O2294 O 0.38826 0.07023 0.286 0.0
O2295 O 0.39253 0.06359 0.2882 0.0
C2296 C 0.45747 0.88527 0.26964 0.0
C2297 C 0.44909 0.87055 0.29522 0.0
H2298 H 0.49619 0.86225 0.31702 0.0
H2299 H 0.53491 0.89008 0.32459 0.0
H2300 H 0.37372 0.91154 0.23158 0.0
H2301 H 0.38854 0.91469 0.19789 0.0
H2302 H 0.46142 0.86223 0.26159 0.0
H2303 H 0.45475 0.84893 0.30224 0.0
Mn2304 Mn 0.65275 0.9135 0.56623 0.0
Mn2305 Mn 0.67326 0.98402 0.55811 0.0
C2306 C 0.62415 0.97377 0.58409 0.0
C2307 C 0.61726 0.886 0.59659 0.0
C2308 C 0.72151 0.89881 0.58794 0.0
O2309 O 0.61263 0.90854 0.53435 0.0
O2310 O 0.6255 0.94628 0.53569 0.0
C2311 C 0.67213 0.04496 0.46544 0.0
N2312 N 0.68642 0.02488 0.50936 0.0
C2313 C 0.68441 0.08603 0.51787 0.0
C2314 C 0.66996 0.0965 0.48893 0.0
C2315 C 0.66365 0.07803 0.46458 0.0
C2316 C 0.69241 0.05009 0.53003 0.0
H2317 H 0.66792 0.03888 0.44505 0.0
C2318 C 0.61002 0.92772 0.51413 0.0
O2319 O 0.64359 0.88579 0.599 0.0
O2320 O 0.61074 0.90167 0.57578 0.0
N2321 N 0.69977 0.03186 0.57986 0.0
C2322 C 0.71167 0.0375 0.60845 0.0
C2323 C 0.73601 0.05468 0.61839 0.0
C2324 C 0.75468 0.06932 0.59741 0.0
C2325 C 0.72845 0.06371 0.54003 0.0
C2326 C 0.70715 0.04671 0.55167 0.0
H2327 H 0.7019 0.02752 0.62627 0.0
O2328 O 0.64495 0.95614 0.5821 0.0
O2329 O 0.6461 0.95763 0.58242 0.0
O2330 O 0.69556 0.91067 0.59319 0.0
O2331 O 0.69336 0.91738 0.58884 0.0
C2332 C 0.71117 0.09571 0.52443 0.0
C2333 C 0.68572 0.11076 0.53238 0.0
H2334 H 0.66438 0.11887 0.48535 0.0
H2335 H 0.65669 0.09099 0.44694 0.0
H2336 H 0.74811 0.0687 0.60858 0.0
H2337 H 0.78191 0.06622 0.59503 0.0
H2338 H 0.71954 0.11873 0.5202 0.0
H2339 H 0.67905 0.13242 0.52662 0.0
Mn2340 Mn 0.6527 0.0677 0.41516 0.0
Mn2341 Mn 0.67323 -0.00296 0.42332 0.0
C2342 C 0.62411 0.00741 0.39729 0.0
C2343 C 0.61709 0.09507 0.385 0.0
C2344 C 0.72141 0.08246 0.39351 0.0
O2345 O 0.61252 0.07265 0.44705 0.0
O2346 O 0.62545 0.03503 0.44571 0.0
C2347 C 0.67229 0.93594 0.51601 0.0
N2348 N 0.6866 0.95601 0.47209 0.0
C2349 C 0.6846 0.89492 0.46352 0.0
C2350 C 0.67013 0.88441 0.49246 0.0
C2351 C 0.66376 0.90287 0.51687 0.0
C2352 C 0.69247 0.93078 0.45149 0.0
H2353 H 0.66794 0.94203 0.53638 0.0
C2354 C 0.60997 0.05353 0.46736 0.0
O2355 O 0.64342 0.09527 0.38238 0.0
O2356 O 0.61063 0.07948 0.40593 0.0
N2357 N 0.70012 0.94884 0.40192 0.0
C2358 C 0.71254 0.94295 0.37335 0.0
C2359 C 0.73756 0.92513 0.36415 0.0
C2360 C 0.75799 0.91056 0.38687 0.0
C2361 C 0.73041 0.9164 0.44263 0.0
C2362 C 0.70753 0.93441 0.43085 0.0
H2363 H 0.70269 0.95295 0.35524 0.0
O2364 O 0.64492 0.02502 0.3994 0.0
O2365 O 0.64607 0.02353 0.3991 0.0
O2366 O 0.69555 0.07043 0.3883 0.0
O2367 O 0.69332 0.06377 0.39259 0.0
C2368 C 0.71176 0.88505 0.45705 0.0
C2369 C 0.68617 0.87023 0.44897 0.0
H2370 H 0.66446 0.86206 0.49602 0.0
H2371 H 0.65672 0.88997 0.53455 0.0
H2372 H 0.75012 0.91186 0.37357 0.0
H2373 H 0.7837 0.91503 0.38869 0.0
H2374 H 0.71995 0.86213 0.46114 0.0
H2375 H 0.6793 0.84859 0.45471 0.0
Mn2376 Mn 0.91382 0.65243 0.41516 0.0
Mn2377 Mn 0.98442 0.67295 0.42328 0.0
C2378 C 0.9742 0.62387 0.39731 0.0
C2379 C 0.88631 0.61692 0.38488 0.0
C2380 C 0.89909 0.7212 0.39343 0.0
O2381 O 0.90879 0.61234 0.44706 0.0
O2382 O 0.94657 0.62517 0.44571 0.0
C2383 C 0.04528 0.67188 0.51605 0.0
N2384 N 0.02525 0.6861 0.47224 0.0
C2385 C 0.08632 0.68433 0.46351 0.0
C2386 C 0.0969 0.66989 0.49244 0.0
C2387 C 0.07842 0.66347 0.51688 0.0
C2388 C 0.0504 0.69207 0.45162 0.0
H2389 H 0.03915 0.66761 0.5364 0.0
C2390 C 0.92795 0.60971 0.46729 0.0
O2391 O 0.88608 0.64323 0.38244 0.0
O2392 O 0.90202 0.61042 0.40567 0.0
N2393 N 0.03261 0.69984 0.4021 0.0
C2394 C 0.03858 0.71199 0.37347 0.0
C2395 C 0.05642 0.73703 0.36419 0.0
C2396 C 0.07108 0.75772 0.38707 0.0
C2397 C 0.06494 0.73048 0.44291 0.0
C2398 C 0.04652 0.70746 0.43141 0.0
H2399 H 0.02849 0.70207 0.35538 0.0
O2400 O 0.95653 0.64463 0.39932 0.0
O2401 O 0.95801 0.64577 0.39901 0.0
O2402 O 0.91096 0.69525 0.38817 0.0
O2403 O 0.91765 0.69304 0.3925 0.0
C2404 C 0.09614 0.71153 0.45715 0.0
C2405 C 0.11102 0.68602 0.44887 0.0
H2406 H 0.11928 0.66431 0.49598 0.0
H2407 H 0.09134 0.65646 0.53453 0.0
H2408 H 0.06976 0.74957 0.37344 0.0
H2409 H 0.06657 0.78324 0.38831 0.0
H2410 H 0.11914 0.71964 0.46117 0.0
H2411 H 0.13265 0.67907 0.45457 0.0
Mn2412 Mn 0.32896 0.91349 0.4151 0.0
Mn2413 Mn 0.30847 0.98396 0.42329 0.0
C2414 C 0.35762 0.97383 0.39732 0.0
C2415 C 0.3645 0.88607 0.38485 0.0
C2416 C 0.26022 0.89866 0.39344 0.0
O2417 O 0.36912 0.90846 0.44691 0.0
O2418 O 0.35622 0.94596 0.44564 0.0
C2419 C 0.30928 0.04505 0.51608 0.0
N2420 N 0.29496 0.02488 0.47221 0.0
C2421 C 0.29687 0.08599 0.4636 0.0
C2422 C 0.31141 0.09657 0.49256 0.0
C2423 C 0.31778 0.07812 0.51695 0.0
C2424 C 0.28895 0.04993 0.45154 0.0
H2425 H 0.31358 0.03896 0.53647 0.0
C2426 C 0.37171 0.92751 0.46729 0.0
O2427 O 0.33818 0.88592 0.38227 0.0
O2428 O 0.371 0.90162 0.40579 0.0
N2429 N 0.28161 0.03194 0.40182 0.0
C2430 C 0.27001 0.03762 0.37316 0.0
C2431 C 0.24564 0.05484 0.36318 0.0
C2432 C 0.22636 0.06967 0.38444 0.0
C2433 C 0.25212 0.06378 0.44203 0.0
C2434 C 0.27389 0.04615 0.43053 0.0
H2435 H 0.27985 0.02751 0.35534 0.0
O2436 O 0.33682 0.95616 0.39931 0.0
O2437 O 0.33569 0.95764 0.399 0.0
O2438 O 0.28612 0.91065 0.38822 0.0
O2439 O 0.28834 0.91728 0.39253 0.0
C2440 C 0.27013 0.09556 0.45724 0.0
C2441 C 0.29549 0.11077 0.44902 0.0
H2442 H 0.31708 0.11893 0.49606 0.0
H2443 H 0.32481 0.091 0.53464 0.0
H2444 H 0.23364 0.06887 0.37273 0.0
H2445 H 0.19965 0.06639 0.38588 0.0
H2446 H 0.26189 0.11867 0.46136 0.0
H2447 H 0.30233 0.13239 0.45476 0.0
Mn2448 Mn 0.06783 0.32898 0.41515 0.0
Mn2449 Mn -0.00269 0.30807 0.42328 0.0
C2450 C 0.00746 0.3571 0.39727 0.0
C2451 C 0.09529 0.36454 0.38495 0.0
C2452 C 0.08389 0.26166 0.39329 0.0
O2453 O 0.07293 0.36885 0.44706 0.0
O2454 O 0.03526 0.3556 0.44574 0.0
C2455 C 0.93633 0.30911 0.51616 0.0
N2456 N 0.95639 0.29497 0.47236 0.0
C2457 C 0.89536 0.29668 0.46366 0.0
C2458 C 0.88473 0.31114 0.49262 0.0
C2459 C 0.90319 0.31752 0.51706 0.0
C2460 C 0.93136 0.28899 0.45178 0.0
H2461 H 0.94246 0.31334 0.53653 0.0
C2462 C 0.05378 0.37114 0.46732 0.0
O2463 O 0.09572 0.33821 0.38252 0.0
O2464 O 0.0794 0.37101 0.40567 0.0
N2465 N 0.94903 0.28117 0.40232 0.0
C2466 C 0.94301 0.26937 0.37359 0.0
C2467 C 0.92502 0.24444 0.36419 0.0
C2468 C 0.91011 0.22359 0.38728 0.0
C2469 C 0.91656 0.25026 0.44324 0.0
C2470 C 0.93553 0.27339 0.43199 0.0
H2471 H 0.95328 0.27931 0.35555 0.0
O2472 O 0.02512 0.33634 0.39935 0.0
O2473 O 0.02366 0.33518 0.39905 0.0
O2474 O 0.07023 0.2865 0.38849 0.0
O2475 O 0.06387 0.28884 0.39227 0.0
C2476 C 0.88558 0.26952 0.45742 0.0
C2477 C 0.87065 0.29496 0.44898 0.0
H2478 H 0.86237 0.31683 0.4961 0.0
H2479 H 0.89029 0.32454 0.53473 0.0
H2480 H 0.91155 0.23202 0.37324 0.0
H2481 H 0.91454 0.19833 0.38795 0.0
H2482 H 0.86252 0.26149 0.4614 0.0
H2483 H 0.84904 0.30202 0.45468 0.0
Mn2484 Mn 0.32899 0.06751 0.56631 0.0
Mn2485 Mn 0.30832 -0.00301 0.55812 0.0
C2486 C 0.35738 0.00715 0.58412 0.0
C2487 C 0.36464 0.09497 0.59654 0.0
C2488 C 0.26039 0.08242 0.58812 0.0
O2489 O 0.36901 0.07252 0.53432 0.0
O2490 O 0.35605 0.03478 0.53565 0.0
C2491 C 0.30954 0.93606 0.46537 0.0
N2492 N 0.29523 0.95616 0.50924 0.0
C2493 C 0.29711 0.89506 0.5178 0.0
C2494 C 0.31163 0.88453 0.48885 0.0
C2495 C 0.318 0.90298 0.46449 0.0
C2496 C 0.28919 0.93104 0.5299 0.0
H2497 H 0.31374 0.94217 0.44498 0.0
C2498 C 0.37151 0.05337 0.51407 0.0
O2499 O 0.3383 0.09541 0.59891 0.0
O2500 O 0.37109 0.07909 0.57583 0.0
N2501 N 0.28167 0.94907 0.57964 0.0
C2502 C 0.26993 0.94338 0.60828 0.0
C2503 C 0.24552 0.92607 0.61821 0.0
C2504 C 0.22629 0.91127 0.59692 0.0
C2505 C 0.25236 0.91716 0.53948 0.0
C2506 C 0.27411 0.93469 0.55103 0.0
H2507 H 0.27975 0.95348 0.62611 0.0
O2508 O 0.33662 0.02482 0.5821 0.0
O2509 O 0.33547 0.02334 0.58241 0.0
O2510 O 0.28618 0.07023 0.59321 0.0
O2511 O 0.28839 0.0636 0.58896 0.0
C2512 C 0.27026 0.88541 0.5242 0.0
C2513 C 0.29565 0.87029 0.53231 0.0
H2514 H 0.31721 0.86216 0.48528 0.0
H2515 H 0.32498 0.89005 0.44682 0.0
H2516 H 0.23349 0.91207 0.60862 0.0
H2517 H 0.19957 0.91458 0.59525 0.0
H2518 H 0.26201 0.86235 0.52005 0.0
H2519 H 0.30246 0.84865 0.52658 0.0
Mn2520 Mn 0.91381 0.32865 0.56637 0.0
Mn2521 Mn 0.98434 0.30798 0.55809 0.0
C2522 C 0.97428 0.3571 0.58411 0.0
C2523 C 0.8863 0.36429 0.59652 0.0
C2524 C 0.89888 0.26001 0.58812 0.0
O2525 O 0.90878 0.36872 0.53446 0.0
O2526 O 0.94636 0.35579 0.53576 0.0
C2527 C 0.04527 0.30881 0.46515 0.0
N2528 N 0.02509 0.29459 0.50897 0.0
C2529 C 0.08615 0.2965 0.5177 0.0
C2530 C 0.09679 0.31106 0.48877 0.0
C2531 C 0.07837 0.31738 0.46431 0.0
C2532 C 0.05013 0.28864 0.52961 0.0
H2533 H 0.03913 0.31306 0.44475 0.0
C2534 C 0.92788 0.37131 0.51413 0.0
O2535 O 0.8859 0.33798 0.59895 0.0
O2536 O 0.90217 0.37074 0.57579 0.0
N2537 N 0.0324 0.28109 0.57924 0.0
C2538 C 0.03821 0.26937 0.60792 0.0
C2539 C 0.05573 0.24465 0.6176 0.0
C2540 C 0.07065 0.22445 0.59547 0.0
C2541 C 0.06453 0.25074 0.5386 0.0
C2542 C 0.0462 0.27329 0.55001 0.0
H2543 H 0.02801 0.27928 0.62586 0.0
O2544 O 0.95655 0.33636 0.58208 0.0
O2545 O 0.95803 0.33522 0.58239 0.0
O2546 O 0.91103 0.28583 0.59325 0.0
O2547 O 0.91765 0.28803 0.58899 0.0
C2548 C 0.09591 0.26962 0.5241 0.0
C2549 C 0.11085 0.29511 0.53243 0.0
H2550 H 0.11915 0.31681 0.48533 0.0
H2551 H 0.0913 0.32447 0.44669 0.0
H2552 H 0.06951 0.23246 0.60836 0.0
H2553 H 0.06671 0.19856 0.59452 0.0
H2554 H 0.11902 0.26154 0.52012 0.0
H2555 H 0.13248 0.30208 0.52673 0.0
Mn2556 Mn 0.06787 0.65243 0.56625 0.0
Mn2557 Mn -0.00274 0.67298 0.5581 0.0
C2558 C 0.00746 0.62384 0.58407 0.0
C2559 C 0.09533 0.61695 0.59655 0.0
C2560 C 0.08265 0.72123 0.58796 0.0
O2561 O 0.0729 0.61233 0.53433 0.0
O2562 O 0.03526 0.62518 0.53569 0.0
C2563 C 0.93631 0.67193 0.46532 0.0
N2564 N 0.95639 0.68616 0.50911 0.0
C2565 C 0.89535 0.68435 0.51792 0.0
C2566 C 0.88472 0.66988 0.48901 0.0
C2567 C 0.90317 0.66348 0.46452 0.0
C2568 C 0.9313 0.69207 0.52972 0.0
H2569 H 0.94243 0.66759 0.44497 0.0
C2570 C 0.05379 0.60971 0.51403 0.0
O2571 O 0.09553 0.64327 0.59903 0.0
O2572 O 0.07967 0.61043 0.57572 0.0
N2573 N 0.94896 0.69985 0.57914 0.0
C2574 C 0.94287 0.71209 0.60781 0.0
C2575 C 0.92484 0.73737 0.61689 0.0
C2576 C 0.91026 0.7585 0.59335 0.0
C2577 C 0.9165 0.73099 0.53816 0.0
C2578 C 0.93538 0.70757 0.54948 0.0
H2579 H 0.95296 0.70213 0.62597 0.0
O2580 O 0.02514 0.64461 0.58202 0.0
O2581 O 0.02365 0.64575 0.58233 0.0
O2582 O 0.07075 0.69528 0.59321 0.0
O2583 O 0.06407 0.69307 0.58889 0.0
C2584 C 0.88552 0.71166 0.52426 0.0
C2585 C 0.87068 0.68615 0.53264 0.0
H2586 H 0.86237 0.66413 0.48556 0.0
H2587 H 0.89027 0.65642 0.44686 0.0
H2588 H 0.91177 0.75009 0.60778 0.0
H2589 H 0.91516 0.78367 0.59244 0.0
H2590 H 0.86253 0.7197 0.52027 0.0
H2591 H 0.84906 0.67909 0.52694 0.0
Mn2592 Mn 0.40282 0.32815 0.05794 0.0
Mn2593 Mn 0.42572 0.31096 0.0265 0.0
C2594 C 0.39479 0.35019 0.00322 0.0
C2595 C 0.3772 0.35886 0.0877 0.0
C2596 C 0.46886 0.37779 0.06027 0.0
O2597 O 0.37102 0.29138 0.08564 0.0
O2598 O 0.37676 0.29244 0.07983 0.0
C2599 C 0.3891 0.25035 -0.00575 0.0
N2600 N 0.42277 0.26273 -0.0031 0.0
C2601 C 0.43075 0.21649 0.94032 0.0
C2602 C 0.39181 0.2086 0.94544 0.0
C2603 C 0.37371 0.22261 0.97351 0.0
C2604 C 0.44796 0.25089 0.97996 0.0
H2605 H 0.37894 0.23561 0.98538 0.0
C2606 C 0.36395 0.26631 0.1019 0.0
O2607 O 0.40136 0.34983 0.09635 0.0
O2608 O 0.36863 0.34992 0.06388 0.0
N2609 N 0.46114 0.30202 0.98565 0.0
C2610 C 0.46705 0.33052 0.98065 0.0
C2611 C 0.49404 0.34398 0.96044 0.0
C2612 C 0.50471 0.32877 0.9295 0.0
C2613 C 0.48535 0.26956 0.92688 0.0
C2614 C 0.46951 0.27327 0.9706 0.0
H2615 H 0.48079 0.33734 0.97034 0.0
O2616 O 0.40398 0.36336 0.02483 0.0
O2617 O 0.3917 0.32548 0.01092 0.0
O2618 O 0.44111 0.36548 0.05788 0.0
O2619 O 0.44182 0.36114 0.05536 0.0
C2620 C 0.4533 0.22665 0.9094 0.0
C2621 C 0.45129 0.2035 0.91986 0.0
H2622 H 0.41127 0.21013 0.9402 0.0
H2623 H 0.34961 0.21448 0.97217 0.0
H2624 H 0.50175 0.36912 0.96828 0.0
H2625 H 0.51346 0.33695 0.949 0.0
H2626 H 0.44422 0.22394 0.88747 0.0
H2627 H 0.45927 0.18943 0.90287 0.0
Mn2628 Mn 0.65331 0.40255 0.05785 0.0
Mn2629 Mn 0.67052 0.42542 0.02653 0.0
C2630 C 0.63134 0.39455 0.00308 0.0
C2631 C 0.62254 0.37708 0.08758 0.0
C2632 C 0.60366 0.46857 0.06007 0.0
O2633 O 0.68995 0.3705 0.08556 0.0
O2634 O 0.6888 0.3762 0.07979 0.0
C2635 C 0.73101 0.38872 -0.0059 0.0
N2636 N 0.7187 0.42244 -0.00318 0.0
C2637 C 0.76456 0.43056 0.94026 0.0
C2638 C 0.77246 0.39163 0.94537 0.0
C2639 C 0.75842 0.37353 0.97344 0.0
C2640 C 0.73012 0.44773 0.97997 0.0
H2641 H 0.74535 0.3787 0.98528 0.0
C2642 C 0.71509 0.36346 0.1019 0.0
O2643 O 0.63167 0.40121 0.09627 0.0
O2644 O 0.63142 0.36848 0.06373 0.0
N2645 N 0.67878 0.46094 0.98571 0.0
C2646 C 0.65019 0.46668 0.98058 0.0
C2647 C 0.63684 0.49374 0.96046 0.0
C2648 C 0.65218 0.5044 0.92956 0.0
C2649 C 0.71146 0.48511 0.92692 0.0
C2650 C 0.70767 0.46929 0.97066 0.0
H2651 H 0.64335 0.48048 0.97036 0.0
O2652 O 0.61814 0.40374 0.02468 0.0
O2653 O 0.65605 0.39146 0.01082 0.0
O2654 O 0.61598 0.44083 0.05773 0.0
O2655 O 0.6203 0.44154 0.05525 0.0
C2656 C 0.75439 0.45305 0.90938 0.0
C2657 C 0.77754 0.45108 0.91981 0.0
H2658 H 0.77094 0.41108 0.94013 0.0
H2659 H 0.76664 0.34947 0.97211 0.0
H2660 H 0.61171 0.50157 0.96826 0.0
H2661 H 0.64399 0.51315 0.94906 0.0
H2662 H 0.75709 0.44392 0.88746 0.0
H2663 H 0.79161 0.45913 0.90282 0.0
Mn2664 Mn 0.57911 0.65315 0.05803 0.0
Mn2665 Mn 0.55619 0.67026 0.02654 0.0
C2666 C 0.58713 0.6311 0.00323 0.0
C2667 C 0.60468 0.62241 0.0878 0.0
C2668 C 0.51296 0.60347 0.06031 0.0
O2669 O 0.61047 0.69003 0.08603 0.0
O2670 O 0.60476 0.68903 0.08019 0.0
C2671 C 0.59286 0.73104 -0.00555 0.0
N2672 N 0.5593 0.71866 -0.00312 0.0
C2673 C 0.55111 0.76486 0.94085 0.0
C2674 C 0.58993 0.77292 0.94634 0.0
C2675 C 0.6079 0.75831 0.97397 0.0
C2676 C 0.53368 0.73011 0.98001 0.0
H2677 H 0.60258 0.74526 0.98568 0.0
C2678 C 0.61722 0.71499 0.10237 0.0
O2679 O 0.5805 0.63144 0.09642 0.0
O2680 O 0.61331 0.63136 0.064 0.0
N2681 N 0.52038 0.67914 0.98563 0.0
C2682 C 0.51448 0.65068 0.9806 0.0
C2683 C 0.48745 0.6372 0.96045 0.0
C2684 C 0.47678 0.65241 0.9297 0.0
C2685 C 0.49622 0.71156 0.92703 0.0
C2686 C 0.51212 0.70784 0.97062 0.0
H2687 H 0.50069 0.64379 0.97032 0.0
O2688 O 0.57782 0.61798 0.02483 0.0
O2689 O 0.59029 0.65577 0.011 0.0
O2690 O 0.54072 0.61586 0.05806 0.0
O2691 O 0.54002 0.62016 0.0555 0.0
C2692 C 0.52811 0.75459 0.9093 0.0
C2693 C 0.53094 0.77766 0.92047 0.0
H2694 H 0.57065 0.77144 0.94097 0.0
H2695 H 0.63203 0.76637 0.97265 0.0
H2696 H 0.4798 0.61198 0.96818 0.0
H2697 H 0.46782 0.64423 0.94915 0.0
H2698 H 0.53663 0.75701 0.88709 0.0
H2699 H 0.52264 0.79094 0.90371 0.0
Mn2700 Mn 0.32859 0.57862 0.05778 0.0
Mn2701 Mn 0.31131 0.55576 0.0264 0.0
C2702 C 0.35061 0.58674 0.00306 0.0
C2703 C 0.35939 0.60409 0.08749 0.0
C2704 C 0.3782 0.51266 0.06004 0.0
O2705 O 0.29182 0.61037 0.08547 0.0
O2706 O 0.29285 0.60461 0.07966 0.0
C2707 C 0.25075 0.59242 -0.00578 0.0
N2708 N 0.26309 0.55875 -0.0031 0.0
C2709 C 0.21681 0.55027 0.94029 0.0
C2710 C 0.20896 0.58919 0.94541 0.0
C2711 C 0.22297 0.60727 0.97348 0.0
C2712 C 0.25118 0.53305 0.97996 0.0
H2713 H 0.23597 0.60206 0.98535 0.0
C2714 C 0.26676 0.6175 0.10172 0.0
O2715 O 0.35022 0.58 0.09622 0.0
O2716 O 0.35049 0.61268 0.06367 0.0
N2717 N 0.30225 0.51984 0.9856 0.0
C2718 C 0.33046 0.51401 0.9803 0.0
C2719 C 0.34389 0.48703 0.96006 0.0
C2720 C 0.32908 0.47636 0.92948 0.0
C2721 C 0.26986 0.49568 0.92687 0.0
C2722 C 0.27355 0.51151 0.97059 0.0
H2723 H 0.33895 0.50057 0.97066 0.0
O2724 O 0.36379 0.57751 0.02462 0.0
O2725 O 0.32589 0.58979 0.0108 0.0
O2726 O 0.36591 0.5404 0.05767 0.0
O2727 O 0.36158 0.53971 0.05517 0.0
C2728 C 0.22698 0.52775 0.90938 0.0
C2729 C 0.20382 0.52974 0.91984 0.0
H2730 H 0.21047 0.56974 0.94017 0.0
H2731 H 0.21484 0.63136 0.97215 0.0
H2732 H 0.3695 0.47931 0.9682 0.0
H2733 H 0.33726 0.46767 0.94905 0.0
H2734 H 0.2243 0.53684 0.88746 0.0
H2735 H 0.18975 0.52173 0.90287 0.0
Mn2736 Mn 0.40264 0.65311 0.92341 0.0
Mn2737 Mn 0.42554 0.67018 0.95467 0.0
C2738 C 0.39466 0.63099 0.97819 0.0
C2739 C 0.37731 0.62216 0.8937 0.0
C2740 C 0.46877 0.60355 0.92132 0.0
O2741 O 0.37083 0.68989 0.89551 0.0
O2742 O 0.37647 0.68876 0.90126 0.0
C2743 C 0.38903 0.73099 0.98698 0.0
N2744 N 0.42263 0.7185 0.98444 0.0
C2745 C 0.43118 0.76456 0.04093 0.0
C2746 C 0.39232 0.77256 0.03582 0.0
C2747 C 0.37424 0.75865 0.00776 0.0
C2748 C 0.44835 0.73014 0.00132 0.0
H2749 H 0.37945 0.7457 -0.00412 0.0
C2750 C 0.36399 0.71503 0.87918 0.0
O2751 O 0.40143 0.63137 0.88503 0.0
O2752 O 0.36859 0.63113 0.91747 0.0
N2753 N 0.46142 0.67843 -0.00445 0.0
C2754 C 0.46712 0.64981 0.00077 0.0
C2755 C 0.49425 0.63662 0.02061 0.0
C2756 C 0.50492 0.65213 0.05167 0.0
C2757 C 0.4856 0.71135 0.0543 0.0
C2758 C 0.46981 0.70751 0.0106 0.0
H2759 H 0.48182 0.64461 0.01056 0.0
O2760 O 0.40391 0.61787 0.95656 0.0
O2761 O 0.39154 0.65569 0.97045 0.0
O2762 O 0.44104 0.61592 0.92349 0.0
O2763 O 0.44176 0.6202 0.926 0.0
C2764 C 0.45357 0.75435 0.07179 0.0
C2765 C 0.45174 0.77747 0.06151 0.0
H2766 H 0.41176 0.77096 0.04105 0.0
H2767 H 0.35012 0.76674 0.0092 0.0
H2768 H 0.50179 0.61168 0.01325 0.0
H2769 H 0.51398 0.64393 0.03233 0.0
H2770 H 0.44428 0.75695 0.09368 0.0
H2771 H 0.45967 0.79142 0.07865 0.0
Mn2772 Mn 0.32823 0.40232 0.92344 0.0
Mn2773 Mn 0.3111 0.42515 0.95478 0.0
C2774 C 0.35022 0.39431 0.97823 0.0
C2775 C 0.35902 0.37696 0.89366 0.0
C2776 C 0.37795 0.46839 0.92134 0.0
O2777 O 0.29161 0.37002 0.89572 0.0
O2778 O 0.29285 0.37568 0.90147 0.0
C2779 C 0.25072 0.38835 0.98737 0.0
N2780 N 0.26298 0.42212 0.98464 0.0
C2781 C 0.21701 0.43079 0.04116 0.0
C2782 C 0.20912 0.39183 0.03603 0.0
C2783 C 0.2232 0.3737 0.00797 0.0
C2784 C 0.2515 0.44792 0.00141 0.0
H2785 H 0.23631 0.37886 -0.00384 0.0
C2786 C 0.26639 0.36308 0.87932 0.0
O2787 O 0.3499 0.4011 0.88504 0.0
O2788 O 0.35008 0.36827 0.91746 0.0
N2789 N 0.3028 0.46116 -0.00437 0.0
C2790 C 0.33132 0.46705 0.00069 0.0
C2791 C 0.34465 0.49404 0.02084 0.0
C2792 C 0.32935 0.50475 0.05179 0.0
C2793 C 0.27015 0.4854 0.05445 0.0
C2794 C 0.27395 0.46951 0.01071 0.0
H2795 H 0.33791 0.48062 0.01134 0.0
O2796 O 0.36342 0.40348 0.95662 0.0
O2797 O 0.3255 0.39122 0.97048 0.0
O2798 O 0.3656 0.44065 0.92365 0.0
O2799 O 0.36129 0.44136 0.92614 0.0
C2800 C 0.22717 0.45334 0.07199 0.0
C2801 C 0.20403 0.4514 0.0616 0.0
H2802 H 0.21063 0.41132 0.04129 0.0
H2803 H 0.21498 0.34965 0.0093 0.0
H2804 H 0.36978 0.50162 0.01306 0.0
H2805 H 0.33757 0.51354 0.03226 0.0
H2806 H 0.22449 0.44421 0.09392 0.0
H2807 H 0.18998 0.45937 0.07861 0.0
Mn2808 Mn 0.57883 0.32794 0.92349 0.0
Mn2809 Mn 0.55596 0.31083 0.95477 0.0
C2810 C 0.58676 0.34995 0.97832 0.0
C2811 C 0.60424 0.35878 0.89383 0.0
C2812 C 0.51273 0.37761 0.92141 0.0
O2813 O 0.61114 0.29134 0.89566 0.0
O2814 O 0.60549 0.29258 0.90141 0.0
C2815 C 0.59274 0.25044 0.98734 0.0
N2816 N 0.55896 0.26269 0.98464 0.0
C2817 C 0.55075 0.21676 0.04112 0.0
C2818 C 0.58972 0.20886 0.03599 0.0
C2819 C 0.60789 0.22291 0.00792 0.0
C2820 C 0.53367 0.25119 0.00139 0.0
H2821 H 0.60274 0.23601 -0.00388 0.0
C2822 C 0.61802 0.26611 0.87922 0.0
O2823 O 0.58013 0.34962 0.88513 0.0
O2824 O 0.61286 0.34989 0.91766 0.0
N2825 N 0.52041 0.30253 -0.00438 0.0
C2826 C 0.51469 0.33112 0.0008 0.0
C2827 C 0.48758 0.34445 0.02094 0.0
C2828 C 0.47683 0.32905 0.05179 0.0
C2829 C 0.49616 0.26987 0.05441 0.0
C2830 C 0.51207 0.27364 0.01069 0.0
H2831 H 0.50087 0.33795 0.01104 0.0
O2832 O 0.57755 0.36311 0.95673 0.0
O2833 O 0.58989 0.32526 0.97053 0.0
O2834 O 0.54048 0.36527 0.9237 0.0
O2835 O 0.53977 0.36097 0.92617 0.0
C2836 C 0.52819 0.22694 0.07193 0.0
C2837 C 0.53012 0.20379 0.06154 0.0
H2838 H 0.57024 0.21037 0.04126 0.0
H2839 H 0.63195 0.21469 0.00924 0.0
H2840 H 0.47974 0.36958 0.01321 0.0
H2841 H 0.46814 0.33728 0.03232 0.0
H2842 H 0.5373 0.22429 0.09386 0.0
H2843 H 0.52212 0.18977 0.07856 0.0
Mn2844 Mn 0.65316 0.57852 0.9235 0.0
Mn2845 Mn 0.67025 0.55567 0.95485 0.0
C2846 C 0.63109 0.58649 0.97831 0.0
C2847 C 0.62247 0.60387 0.8937 0.0
C2848 C 0.60343 0.51244 0.92126 0.0
O2849 O 0.6898 0.61084 0.89578 0.0
O2850 O 0.68854 0.60518 0.90154 0.0
C2851 C 0.73051 0.59251 0.98743 0.0
N2852 N 0.71829 0.55871 0.98469 0.0
C2853 C 0.76481 0.55056 0.04117 0.0
C2854 C 0.77267 0.58953 0.03605 0.0
C2855 C 0.7586 0.60764 0.008 0.0
C2856 C 0.73039 0.53338 0.00144 0.0
H2857 H 0.74549 0.60248 -0.0038 0.0
C2858 C 0.71505 0.61776 0.87936 0.0
O2859 O 0.6316 0.57972 0.8851 0.0
O2860 O 0.63129 0.61255 0.91754 0.0
N2861 N 0.67925 0.52012 -0.00429 0.0
C2862 C 0.65072 0.51422 0.00078 0.0
C2863 C 0.63728 0.48722 0.02096 0.0
C2864 C 0.65252 0.47652 0.05185 0.0
C2865 C 0.71172 0.4959 0.0545 0.0
C2866 C 0.70801 0.51176 0.01077 0.0
H2867 H 0.64391 0.50047 0.01109 0.0
O2868 O 0.61793 0.57729 0.9567 0.0
O2869 O 0.65582 0.58961 0.97055 0.0
O2870 O 0.61579 0.54018 0.92362 0.0
O2871 O 0.62011 0.53947 0.92612 0.0
C2872 C 0.75464 0.52799 0.07201 0.0
C2873 C 0.77779 0.52999 0.06155 0.0
H2874 H 0.77118 0.57005 0.04131 0.0
H2875 H 0.76684 0.63169 0.0093 0.0
H2876 H 0.61213 0.47952 0.01317 0.0
H2877 H 0.64436 0.46775 0.03233 0.0
H2878 H 0.75732 0.5371 0.09393 0.0
H2879 H 0.79184 0.52196 0.07849 0.0
Mn2880 Mn 0.05813 0.40244 0.32822 0.0
Mn2881 Mn 0.02687 0.42522 0.31119 0.0
C2882 C 0.00325 0.39448 0.35025 0.0
C2883 C 0.08777 0.37726 0.35909 0.0
C2884 C 0.0602 0.46859 0.37794 0.0
O2885 O 0.08595 0.36974 0.29175 0.0
O2886 O 0.08023 0.37532 0.29315 0.0
C2887 C -0.00596 0.38824 0.25109 0.0
N2888 N -0.00321 0.42213 0.26323 0.0
C2889 C 0.94035 0.43066 0.21683 0.0
C2890 C 0.94549 0.39166 0.20897 0.0
C2891 C 0.97355 0.37352 0.22308 0.0
C2892 C 0.98012 0.44776 0.25129 0.0
H2893 H 0.98529 0.37862 0.23628 0.0
C2894 C 0.10248 0.36308 0.26637 0.0
O2895 O 0.09648 0.40135 0.34987 0.0
O2896 O 0.06396 0.36854 0.35023 0.0
N2897 N 0.98592 0.46108 0.30256 0.0
C2898 C 0.98073 0.46683 0.33116 0.0
C2899 C 0.96058 0.4939 0.34455 0.0
C2900 C 0.92972 0.50459 0.32921 0.0
C2901 C 0.92708 0.48526 0.26996 0.0
C2902 C 0.97083 0.4694 0.2737 0.0
H2903 H 0.97052 0.48064 0.33807 0.0
O2904 O 0.02483 0.40373 0.36341 0.0
O2905 O 0.01105 0.39135 0.32553 0.0
O2906 O 0.05791 0.44085 0.36556 0.0
O2907 O 0.05545 0.44155 0.36128 0.0
C2908 C 0.90956 0.45317 0.22703 0.0
C2909 C 0.91999 0.45123 0.20387 0.0
H2910 H 0.94022 0.41114 0.21046 0.0
H2911 H 0.97225 0.34949 0.21478 0.0
H2912 H 0.96829 0.50174 0.3697 0.0
H2913 H 0.94922 0.51335 0.3374 0.0
H2914 H 0.88765 0.44404 0.22433 0.0
H2915 H 0.90305 0.45929 0.18981 0.0
Mn2916 Mn 0.57896 0.05785 0.32829 0.0
Mn2917 Mn 0.55616 0.02656 0.31119 0.0
C2918 C 0.58691 0.00299 0.35019 0.0
C2919 C 0.60418 0.08738 0.35926 0.0
C2920 C 0.51276 0.05989 0.37802 0.0
O2921 O 0.61165 0.08579 0.29188 0.0
O2922 O 0.60604 0.08005 0.29326 0.0
C2923 C 0.59327 -0.00618 0.25121 0.0
N2924 N 0.55938 -0.00349 0.2632 0.0
C2925 C 0.55129 0.94054 0.21608 0.0
C2926 C 0.59019 0.94616 0.20809 0.0
C2927 C 0.60826 0.9737 0.22295 0.0
C2928 C 0.53398 0.97983 0.25101 0.0
H2929 H 0.60309 0.98521 0.23629 0.0
C2930 C 0.61829 0.10242 0.26658 0.0
O2931 O 0.58012 0.09616 0.35003 0.0
O2932 O 0.61282 0.06356 0.35038 0.0
N2933 N 0.52056 0.98557 0.30207 0.0
C2934 C 0.51474 0.98052 0.33067 0.0
C2935 C 0.4878 0.96032 0.34418 0.0
C2936 C 0.47715 0.92952 0.32893 0.0
C2937 C 0.49641 0.92681 0.26958 0.0
C2938 C 0.51231 0.97045 0.27328 0.0
H2939 H 0.501 0.97023 0.33758 0.0
O2940 O 0.57759 0.02452 0.36338 0.0
O2941 O 0.59007 0.01082 0.3255 0.0
O2942 O 0.54051 0.05763 0.3656 0.0
O2943 O 0.53981 0.05514 0.36131 0.0
C2944 C 0.52835 0.90899 0.2265 0.0
C2945 C 0.53114 0.92013 0.20337 0.0
H2946 H 0.57089 0.94071 0.20952 0.0
H2947 H 0.63228 0.9725 0.21464 0.0
H2948 H 0.48001 0.96804 0.36935 0.0
H2949 H 0.46821 0.94896 0.3371 0.0
H2950 H 0.53687 0.88679 0.22409 0.0
H2951 H 0.52283 0.90332 0.19008 0.0
Mn2952 Mn 0.92358 0.57864 0.32827 0.0
Mn2953 Mn 0.95498 0.55583 0.31113 0.0
C2954 C 0.97837 0.58666 0.35028 0.0
C2955 C 0.89385 0.60409 0.35904 0.0
C2956 C 0.92127 0.5126 0.37794 0.0
O2957 O 0.89589 0.61085 0.29166 0.0
O2958 O 0.90166 0.60518 0.29287 0.0
C2959 C 0.98755 0.59264 0.25083 0.0
N2960 N 0.98483 0.55886 0.26306 0.0
C2961 C 0.04141 0.55054 0.21682 0.0
C2962 C 0.03629 0.58948 0.20899 0.0
C2963 C 0.00822 0.60757 0.22307 0.0
C2964 C 0.0017 0.53331 0.25126 0.0
H2965 H -0.0036 0.60239 0.23616 0.0
C2966 C 0.87952 0.6178 0.26646 0.0
O2967 O 0.88517 0.57995 0.34993 0.0
O2968 O 0.91769 0.61271 0.35013 0.0
N2969 N -0.00408 0.52009 0.30238 0.0
C2970 C 0.00094 0.51421 0.33089 0.0
C2971 C 0.02114 0.48725 0.34435 0.0
C2972 C 0.05209 0.47663 0.32915 0.0
C2973 C 0.05478 0.49593 0.26987 0.0
C2974 C 0.01102 0.51175 0.27359 0.0
H2975 H 0.01126 0.50048 0.33771 0.0
O2976 O 0.95675 0.57745 0.36344 0.0
O2977 O 0.97064 0.58978 0.32557 0.0
O2978 O 0.92365 0.54034 0.36561 0.0
O2979 O 0.92616 0.53963 0.36129 0.0
C2980 C 0.07233 0.52801 0.22697 0.0
C2981 C 0.06182 0.53005 0.20382 0.0
H2982 H 0.04154 0.57004 0.21048 0.0
H2983 H 0.00953 0.63162 0.21485 0.0
H2984 H 0.0133 0.47954 0.36949 0.0
H2985 H 0.03256 0.46779 0.33729 0.0
H2986 H 0.09426 0.53709 0.22424 0.0
H2987 H 0.07874 0.52198 0.18973 0.0
Mn2988 Mn 0.40282 0.92322 0.32808 0.0
Mn2989 Mn 0.42572 0.95453 0.31096 0.0
C2990 C 0.39486 0.97799 0.35014 0.0
C2991 C 0.37745 0.8937 0.35909 0.0
C2992 C 0.46894 0.92109 0.37767 0.0
O2993 O 0.37045 0.89543 0.29147 0.0
O2994 O 0.37609 0.90118 0.29274 0.0
C2995 C 0.389 0.98709 0.25068 0.0
N2996 N 0.42279 0.98441 0.2629 0.0
C2997 C 0.43098 0.04091 0.21666 0.0
C2998 C 0.39206 0.0357 0.20878 0.0
C2999 C 0.37396 0.00769 0.22288 0.0
C3000 C 0.44821 0.00132 0.2511 0.0
H3001 H 0.37911 -0.00407 0.23599 0.0
C3002 C 0.36365 0.87899 0.26616 0.0
O3003 O 0.40151 0.88491 0.34986 0.0
O3004 O 0.36885 0.9175 0.35016 0.0
N3005 N 0.46133 -0.00445 0.30236 0.0
C3006 C 0.46703 0.00061 0.33096 0.0
C3007 C 0.49402 0.02075 0.34446 0.0
C3008 C 0.50461 0.05175 0.3293 0.0
C3009 C 0.48547 0.05441 0.26991 0.0
C3010 C 0.46972 0.01067 0.27354 0.0
H3011 H 0.48079 0.01083 0.33789 0.0
O3012 O 0.40412 0.95642 0.36329 0.0
O3013 O 0.39176 0.97024 0.32541 0.0
O3014 O 0.44123 0.92333 0.36528 0.0
O3015 O 0.44195 0.92584 0.36097 0.0
C3016 C 0.45341 0.07195 0.22696 0.0
C3017 C 0.45141 0.06146 0.20378 0.0
H3018 H 0.41149 0.04098 0.2103 0.0
H3019 H 0.34988 0.00903 0.2147 0.0
H3020 H 0.50184 0.01292 0.36957 0.0
H3021 H 0.5134 0.03226 0.33742 0.0
H3022 H 0.44428 0.09386 0.22431 0.0
H3023 H 0.4594 0.07849 0.18977 0.0
Mn3024 Mn 0.05806 0.57859 0.65317 0.0
Mn3025 Mn 0.02672 0.55571 0.67032 0.0
C3026 C 0.00327 0.58658 0.63117 0.0
C3027 C 0.08776 0.60408 0.62237 0.0
C3028 C 0.0602 0.5125 0.60349 0.0
O3029 O 0.08584 0.61077 0.68983 0.0
O3030 O 0.08007 0.6051 0.68862 0.0
C3031 C -0.00583 0.59248 0.73074 0.0
N3032 N -0.00312 0.55873 0.71846 0.0
C3033 C 0.94028 0.55031 0.76465 0.0
C3034 C 0.94541 0.58926 0.77256 0.0
C3035 C 0.97349 0.60739 0.7585 0.0
C3036 C 0.98002 0.53318 0.73018 0.0
H3037 H 0.98531 0.60223 0.7454 0.0
C3038 C 0.10222 0.61771 0.71503 0.0
O3039 O 0.09645 0.57995 0.63146 0.0
O3040 O 0.06392 0.61266 0.6313 0.0
N3041 N 0.9858 0.51994 0.67887 0.0
C3042 C 0.98067 0.51418 0.65029 0.0
C3043 C 0.96053 0.48711 0.63694 0.0
C3044 C 0.92964 0.4764 0.65231 0.0
C3045 C 0.92698 0.49573 0.71151 0.0
C3046 C 0.97072 0.5116 0.70773 0.0
H3047 H 0.97042 0.50039 0.64347 0.0
O3048 O 0.02488 0.57739 0.61798 0.0
O3049 O 0.01101 0.58965 0.65589 0.0
O3050 O 0.0579 0.54024 0.61585 0.0
O3051 O 0.0554 0.53953 0.62016 0.0
C3052 C 0.90943 0.52777 0.75447 0.0
C3053 C 0.91984 0.52972 0.77762 0.0
H3054 H 0.94014 0.56979 0.77104 0.0
H3055 H 0.97216 0.63145 0.76671 0.0
H3056 H 0.96831 0.47929 0.6118 0.0
H3057 H 0.94914 0.46769 0.64409 0.0
H3058 H 0.88749 0.53686 0.75714 0.0
H3059 H 0.90283 0.52171 0.79165 0.0
Mn3060 Mn 0.40273 0.05758 0.65317 0.0
Mn3061 Mn 0.42555 0.0262 0.6704 0.0
C3062 C 0.39459 0.00287 0.63115 0.0
C3063 C 0.37733 0.08746 0.62246 0.0
C3064 C 0.46872 0.06 0.60352 0.0
O3065 O 0.37108 0.08521 0.68998 0.0
O3066 O 0.37685 0.07939 0.68897 0.0
C3067 C 0.38888 -0.00595 0.73108 0.0
N3068 N 0.42252 -0.00323 0.71867 0.0
C3069 C 0.43095 0.94002 0.76462 0.0
C3070 C 0.39201 0.9451 0.77253 0.0
C3071 C 0.37391 0.97316 0.75854 0.0
C3072 C 0.44813 0.97977 0.7302 0.0
H3073 H 0.37914 0.98505 0.74556 0.0
C3074 C 0.36394 0.10141 0.71498 0.0
O3075 O 0.40148 0.09606 0.63162 0.0
O3076 O 0.36862 0.06366 0.63135 0.0
N3077 N 0.46136 0.98538 0.67898 0.0
C3078 C 0.46726 0.98033 0.65049 0.0
C3079 C 0.49429 0.96017 0.63712 0.0
C3080 C 0.50508 0.92938 0.65249 0.0
C3081 C 0.48562 0.92675 0.71152 0.0
C3082 C 0.46971 0.97042 0.70775 0.0
H3083 H 0.48102 0.97004 0.64372 0.0
O3084 O 0.40385 0.02445 0.61798 0.0
O3085 O 0.39149 0.0106 0.65586 0.0
O3086 O 0.44096 0.05753 0.6158 0.0
O3087 O 0.44165 0.05504 0.62015 0.0
C3088 C 0.45355 0.90921 0.75449 0.0
C3089 C 0.45165 0.91956 0.77761 0.0
H3090 H 0.41151 0.93986 0.771 0.0
H3091 H 0.34979 0.9718 0.76667 0.0
H3092 H 0.50198 0.96794 0.61195 0.0
H3093 H 0.51377 0.94887 0.64424 0.0
H3094 H 0.44439 0.88728 0.75713 0.0
H3095 H 0.45951 0.90251 0.79163 0.0
Mn3096 Mn 0.92355 0.40245 0.65319 0.0
Mn3097 Mn 0.95494 0.42527 0.67037 0.0
C3098 C 0.97832 0.39438 0.63113 0.0
C3099 C 0.89377 0.37706 0.62241 0.0
C3100 C 0.92129 0.46843 0.60353 0.0
O3101 O 0.89582 0.37049 0.68989 0.0
O3102 O 0.90161 0.37621 0.68879 0.0
C3103 C 0.98724 0.3886 0.73085 0.0
N3104 N 0.98456 0.4223 0.71855 0.0
C3105 C 0.04117 0.4306 0.76461 0.0
C3106 C 0.03604 0.39167 0.77247 0.0
C3107 C 0.00797 0.37357 0.75844 0.0
C3108 C 0.00151 0.44779 0.73023 0.0
H3109 H -0.00387 0.37877 0.74541 0.0
C3110 C 0.8795 0.36342 0.715 0.0
O3111 O 0.88512 0.40118 0.63157 0.0
O3112 O 0.91756 0.36839 0.63133 0.0
N3113 N -0.00416 0.46097 0.67908 0.0
C3114 C 0.00088 0.46685 0.65056 0.0
C3115 C 0.02109 0.49382 0.6371 0.0
C3116 C 0.052 0.50451 0.65232 0.0
C3117 C 0.0546 0.48518 0.71155 0.0
C3118 C 0.01087 0.46935 0.70784 0.0
H3119 H 0.01119 0.48058 0.64374 0.0
O3120 O 0.95673 0.4036 0.61798 0.0
O3121 O 0.97057 0.39128 0.65585 0.0
O3122 O 0.92368 0.44069 0.61583 0.0
O3123 O 0.92618 0.44139 0.62017 0.0
C3124 C 0.07208 0.45313 0.75445 0.0
C3125 C 0.06163 0.45115 0.7776 0.0
H3126 H 0.04129 0.41112 0.77097 0.0
H3127 H 0.00929 0.3495 0.76661 0.0
H3128 H 0.01329 0.50151 0.61196 0.0
H3129 H 0.03249 0.51328 0.64416 0.0
H3130 H 0.09401 0.44403 0.75713 0.0
H3131 H 0.07861 0.45913 0.79166 0.0
Mn3132 Mn 0.57877 0.92345 0.65312 0.0
Mn3133 Mn 0.55586 0.95486 0.67037 0.0
C3134 C 0.58693 0.9781 0.63109 0.0
C3135 C 0.60442 0.89356 0.62245 0.0
C3136 C 0.51286 0.92104 0.60357 0.0
O3137 O 0.6097 0.89579 0.69003 0.0
O3138 O 0.60386 0.90165 0.68916 0.0
C3139 C 0.59222 0.98653 0.73162 0.0
N3140 N 0.55877 0.98401 0.71894 0.0
C3141 C 0.55052 0.0409 0.76449 0.0
C3142 C 0.5894 0.03587 0.77244 0.0
C3143 C 0.60746 0.00772 0.7586 0.0
C3144 C 0.53326 0.00123 0.73018 0.0
H3145 H 0.60217 -0.0043 0.7458 0.0
C3146 C 0.61646 0.87966 0.71483 0.0
O3147 O 0.58025 0.88494 0.63153 0.0
O3148 O 0.61303 0.91738 0.63137 0.0
N3149 N 0.52013 -0.00439 0.67878 0.0
C3150 C 0.51443 0.00073 0.65021 0.0
C3151 C 0.48736 0.02082 0.6369 0.0
C3152 C 0.47656 0.05158 0.65232 0.0
C3153 C 0.4959 0.05425 0.71148 0.0
C3154 C 0.51175 0.01056 0.70767 0.0
H3155 H 0.50051 0.01081 0.64346 0.0
O3156 O 0.57768 0.95651 0.61793 0.0
O3157 O 0.59001 0.9704 0.65576 0.0
O3158 O 0.54062 0.92344 0.61581 0.0
O3159 O 0.53991 0.92595 0.62015 0.0
C3160 C 0.52796 0.07177 0.7544 0.0
C3161 C 0.5299 0.06137 0.77752 0.0
H3162 H 0.56994 0.04108 0.77089 0.0
H3163 H 0.63162 0.00917 0.76659 0.0
H3164 H 0.4795 0.01299 0.61178 0.0
H3165 H 0.46786 0.03209 0.64411 0.0
H3166 H 0.53712 0.09369 0.75706 0.0
H3167 H 0.52187 0.07838 0.79155 0.0
Mn3168 Mn 0.32831 0.05769 0.4027 0.0
Mn3169 Mn 0.31114 0.02637 0.42554 0.0
C3170 C 0.35036 0.00295 0.39462 0.0
C3171 C 0.35915 0.08747 0.37733 0.0
C3172 C 0.37795 0.05991 0.46871 0.0
O3173 O 0.29157 0.08543 0.3709 0.0
O3174 O 0.29264 0.07965 0.37661 0.0
C3175 C 0.25044 -0.00589 0.38892 0.0
N3176 N 0.26284 -0.00323 0.42256 0.0
C3177 C 0.21705 0.94007 0.43086 0.0
C3178 C 0.20913 0.94515 0.39194 0.0
C3179 C 0.22313 0.97323 0.37383 0.0
C3180 C 0.25146 0.97977 0.44803 0.0
H3181 H 0.23612 0.98512 0.37904 0.0
C3182 C 0.2665 0.10168 0.36388 0.0
O3183 O 0.34996 0.09613 0.40145 0.0
O3184 O 0.35022 0.06367 0.36864 0.0
N3185 N 0.30285 0.98549 0.46123 0.0
C3186 C 0.33143 0.98035 0.46695 0.0
C3187 C 0.34474 0.96027 0.49403 0.0
C3188 C 0.32933 0.92945 0.50478 0.0
C3189 C 0.27013 0.92677 0.48545 0.0
C3190 C 0.27394 0.97047 0.46959 0.0
H3191 H 0.33824 0.97014 0.48076 0.0
O3192 O 0.3635 0.02454 0.40388 0.0
O3193 O 0.32566 0.01069 0.39151 0.0
O3194 O 0.36564 0.05758 0.44096 0.0
O3195 O 0.36133 0.0551 0.44167 0.0
C3196 C 0.22719 0.90922 0.45341 0.0
C3197 C 0.20406 0.91962 0.45146 0.0
H3198 H 0.21066 0.93991 0.4114 0.0
H3199 H 0.21499 0.97187 0.34974 0.0
H3200 H 0.36988 0.96802 0.50186 0.0
H3201 H 0.33754 0.94895 0.51353 0.0
H3202 H 0.22455 0.8873 0.44426 0.0
H3203 H 0.19004 0.9026 0.45948 0.0
Mn3204 Mn 0.32842 0.92331 0.57871 0.0
Mn3205 Mn 0.31121 0.95475 0.55586 0.0
C3206 C 0.35045 0.97803 0.58682 0.0
C3207 C 0.35918 0.89351 0.60415 0.0
C3208 C 0.3781 0.92099 0.51269 0.0
O3209 O 0.29161 0.89565 0.61043 0.0
O3210 O 0.29264 0.90147 0.60467 0.0
C3211 C 0.25055 0.98694 0.59251 0.0
N3212 N 0.26295 0.98425 0.55886 0.0
C3213 C 0.21674 0.04091 0.55062 0.0
C3214 C 0.20882 0.03582 0.58955 0.0
C3215 C 0.22286 0.00777 0.60763 0.0
C3216 C 0.25118 0.00126 0.5334 0.0
H3217 H 0.23587 -0.00409 0.6024 0.0
C3218 C 0.26656 0.8794 0.6175 0.0
O3219 O 0.35004 0.88486 0.58002 0.0
O3220 O 0.35027 0.91731 0.61281 0.0
N3221 N 0.30234 -0.00437 0.52022 0.0
C3222 C 0.33085 0.00064 0.5143 0.0
C3223 C 0.34431 0.02083 0.48733 0.0
C3224 C 0.32906 0.05167 0.47662 0.0
C3225 C 0.26989 0.0543 0.49601 0.0
C3226 C 0.2736 0.01063 0.51186 0.0
H3227 H 0.33767 0.01094 0.50057 0.0
O3228 O 0.36363 0.95645 0.57758 0.0
O3229 O 0.32573 0.9703 0.58991 0.0
O3230 O 0.36578 0.92338 0.54044 0.0
O3231 O 0.36144 0.9259 0.53974 0.0
C3232 C 0.22692 0.07184 0.52803 0.0
C3233 C 0.20378 0.06135 0.53005 0.0
H3234 H 0.21034 0.04106 0.5701 0.0
H3235 H 0.21469 0.0091 0.63173 0.0
H3236 H 0.36948 0.01304 0.47965 0.0
H3237 H 0.33725 0.03218 0.46785 0.0
H3238 H 0.22428 0.0938 0.53707 0.0
H3239 H 0.18979 0.07836 0.52212 0.0
Mn3240 Mn 0.05816 0.32788 0.57882 0.0
Mn3241 Mn 0.02676 0.31078 0.5559 0.0
C3242 C 0.00337 0.34996 0.58683 0.0
C3243 C 0.08791 0.35877 0.60417 0.0
C3244 C 0.06028 0.37748 0.51268 0.0
O3245 O 0.0859 0.29117 0.61093 0.0
O3246 O 0.08014 0.29238 0.60527 0.0
C3247 C -0.00575 0.25028 0.59256 0.0
N3248 N -0.0031 0.26262 0.55885 0.0
C3249 C 0.94039 0.21653 0.55056 0.0
C3250 C 0.94551 0.20861 0.58945 0.0
C3251 C 0.97354 0.22265 0.60754 0.0
C3252 C 0.98 0.25098 0.53334 0.0
H3253 H 0.98537 0.23569 0.60235 0.0
C3254 C 0.10228 0.26595 0.61776 0.0
O3255 O 0.09655 0.3496 0.58004 0.0
O3256 O 0.06411 0.34981 0.61287 0.0
N3257 N 0.98579 0.3023 0.52018 0.0
C3258 C 0.9807 0.33089 0.51443 0.0
C3259 C 0.96059 0.3443 0.48741 0.0
C3260 C 0.92962 0.32904 0.47684 0.0
C3261 C 0.92697 0.26972 0.49608 0.0
C3262 C 0.9707 0.27343 0.51184 0.0
H3263 H 0.97046 0.33775 0.50065 0.0
O3264 O 0.02502 0.36311 0.57765 0.0
O3265 O 0.01108 0.32524 0.5899 0.0
O3266 O 0.05803 0.36509 0.5404 0.0
O3267 O 0.0555 0.36079 0.53968 0.0
C3268 C 0.90941 0.22678 0.52811 0.0
C3269 C 0.91988 0.20362 0.53011 0.0
H3270 H 0.94028 0.21015 0.57004 0.0
H3271 H 0.97216 0.21448 0.63162 0.0
H3272 H 0.96842 0.3694 0.47954 0.0
H3273 H 0.9491 0.3372 0.46802 0.0
H3274 H 0.88747 0.22412 0.53724 0.0
H3275 H 0.90284 0.18962 0.52214 0.0
Mn3276 Mn 0.65306 0.05752 0.57861 0.0
Mn3277 Mn 0.67039 0.02613 0.55577 0.0
C3278 C 0.63106 0.00286 0.58677 0.0
C3279 C 0.62229 0.08727 0.60415 0.0
C3280 C 0.6035 0.06001 0.51273 0.0
O3281 O 0.68985 0.0851 0.6101 0.0
O3282 O 0.68891 0.07926 0.60427 0.0
C3283 C 0.73104 -0.00584 0.59233 0.0
N3284 N 0.71866 -0.00312 0.5587 0.0
C3285 C 0.76474 0.94004 0.55054 0.0
C3286 C 0.77256 0.94516 0.58946 0.0
C3287 C 0.75858 0.97323 0.60753 0.0
C3288 C 0.73039 0.97975 0.53326 0.0
H3289 H 0.74562 0.98514 0.60229 0.0
C3290 C 0.71481 0.10124 0.61729 0.0
O3291 O 0.63146 0.09599 0.58005 0.0
O3292 O 0.63117 0.06344 0.61273 0.0
N3293 N 0.67925 0.98535 0.52016 0.0
C3294 C 0.65074 0.98039 0.51433 0.0
C3295 C 0.63726 0.96023 0.48738 0.0
C3296 C 0.65242 0.92934 0.47664 0.0
C3297 C 0.71168 0.92663 0.49589 0.0
C3298 C 0.70798 0.97035 0.5117 0.0
H3299 H 0.64392 0.97011 0.50062 0.0
O3300 O 0.61788 0.0244 0.57749 0.0
O3301 O 0.65577 0.01059 0.58984 0.0
O3302 O 0.61573 0.05751 0.54047 0.0
O3303 O 0.6201 0.05502 0.53978 0.0
C3304 C 0.75457 0.90909 0.52801 0.0
C3305 C 0.77772 0.91954 0.52999 0.0
H3306 H 0.77106 0.93992 0.57 0.0
H3307 H 0.76665 0.97187 0.63164 0.0
H3308 H 0.61211 0.96809 0.47973 0.0
H3309 H 0.64431 0.94887 0.46793 0.0
H3310 H 0.75723 0.88716 0.53714 0.0
H3311 H 0.79179 0.90254 0.52199 0.0
Mn3312 Mn 0.92354 0.65292 0.57885 0.0
Mn3313 Mn 0.95482 0.67003 0.55602 0.0
C3314 C 0.97836 0.63094 0.58678 0.0
C3315 C 0.89395 0.62206 0.60425 0.0
C3316 C 0.92142 0.60325 0.5127 0.0
O3317 O 0.89573 0.68942 0.61139 0.0
O3318 O 0.90147 0.6881 0.60576 0.0
C3319 C 0.98755 0.73018 0.59297 0.0
N3320 N 0.98482 0.71802 0.55911 0.0
C3321 C 0.04135 0.76437 0.55062 0.0
C3322 C 0.03618 0.77223 0.58961 0.0
C3323 C 0.0081 0.75812 0.60775 0.0
C3324 C 0.00158 0.72991 0.53349 0.0
H3325 H -0.00367 0.74495 0.60263 0.0
C3326 C 0.87926 0.71472 0.61821 0.0
O3327 O 0.8852 0.63119 0.58016 0.0
O3328 O 0.91779 0.63097 0.61283 0.0
N3329 N -0.00423 0.67865 0.52018 0.0
C3330 C 0.00092 0.65008 0.51442 0.0
C3331 C 0.02108 0.6367 0.48735 0.0
C3332 C 0.052 0.65202 0.47667 0.0
C3333 C 0.05466 0.71126 0.49599 0.0
C3334 C 0.01089 0.7075 0.51186 0.0
H3335 H 0.01117 0.64324 0.50062 0.0
O3336 O 0.95678 0.61776 0.57755 0.0
O3337 O 0.97059 0.65565 0.58991 0.0
O3338 O 0.92372 0.61561 0.54045 0.0
O3339 O 0.92619 0.61991 0.53975 0.0
C3340 C 0.07219 0.75419 0.52809 0.0
C3341 C 0.06177 0.77734 0.53006 0.0
H3342 H 0.04146 0.77074 0.57013 0.0
H3343 H 0.00939 0.76639 0.63179 0.0
H3344 H 0.01329 0.61158 0.47953 0.0
H3345 H 0.0325 0.64383 0.46794 0.0
H3346 H 0.09411 0.75689 0.53719 0.0
H3347 H 0.07874 0.79141 0.522 0.0
Mn3348 Mn 0.65326 0.92358 0.40279 0.0
Mn3349 Mn 0.67051 0.95477 0.42554 0.0
C3350 C 0.63134 0.9783 0.39466 0.0
C3351 C 0.62246 0.89388 0.37749 0.0
C3352 C 0.60355 0.92126 0.46876 0.0
O3353 O 0.68984 0.8959 0.37061 0.0
O3354 O 0.68871 0.90167 0.37635 0.0
C3355 C 0.73079 0.9872 0.38863 0.0
N3356 N 0.71857 0.98435 0.42243 0.0
C3357 C 0.7647 0.04105 0.43086 0.0
C3358 C 0.77258 0.03593 0.39188 0.0
C3359 C 0.75845 0.00789 0.37372 0.0
C3360 C 0.73017 0.00123 0.44799 0.0
H3361 H 0.74532 -0.00392 0.37888 0.0
C3362 C 0.71496 0.87959 0.36334 0.0
O3363 O 0.63166 0.88516 0.40157 0.0
O3364 O 0.6313 0.91772 0.36884 0.0
N3365 N 0.67884 -0.00449 0.46129 0.0
C3366 C 0.65025 0.00066 0.46698 0.0
C3367 C 0.6369 0.02075 0.49407 0.0
C3368 C 0.65231 0.05155 0.50487 0.0
C3369 C 0.71149 0.05427 0.48554 0.0
C3370 C 0.7077 0.01056 0.46963 0.0
H3371 H 0.64341 0.01087 0.48079 0.0
O3372 O 0.61812 0.95678 0.40397 0.0
O3373 O 0.65606 0.97052 0.39159 0.0
O3374 O 0.61585 0.92371 0.44101 0.0
O3375 O 0.62018 0.92615 0.44169 0.0
C3376 C 0.7545 0.07189 0.45347 0.0
C3377 C 0.77764 0.06147 0.4515 0.0
H3378 H 0.7711 0.0412 0.41136 0.0
H3379 H 0.7667 0.0092 0.34966 0.0
H3380 H 0.61173 0.013 0.50189 0.0
H3381 H 0.64408 0.03206 0.51353 0.0
H3382 H 0.75714 0.09383 0.44438 0.0
H3383 H 0.79165 0.07847 0.45949 0.0
Mn3384 Mn 0.0581 0.653 0.4026 0.0
Mn3385 Mn 0.02673 0.67012 0.42541 0.0
C3386 C 0.0033 0.63098 0.39458 0.0
C3387 C 0.08785 0.62221 0.37727 0.0
C3388 C 0.06031 0.60328 0.46861 0.0
O3389 O 0.08584 0.68958 0.37031 0.0
O3390 O 0.08007 0.68836 0.37599 0.0
C3391 C -0.00577 0.73037 0.3886 0.0
N3392 N -0.00306 0.71817 0.4224 0.0
C3393 C 0.94037 0.76439 0.4308 0.0
C3394 C 0.94555 0.77223 0.39183 0.0
C3395 C 0.97362 0.75816 0.37372 0.0
C3396 C 0.98008 0.72999 0.44797 0.0
H3397 H 0.98541 0.74505 0.37887 0.0
C3398 C 0.10224 0.7148 0.36333 0.0
O3399 O 0.0965 0.63139 0.40139 0.0
O3400 O 0.06405 0.63109 0.36858 0.0
N3401 N 0.9858 0.67888 0.46119 0.0
C3402 C 0.98076 0.65035 0.46703 0.0
C3403 C 0.96055 0.63686 0.494 0.0
C3404 C 0.92963 0.65203 0.50468 0.0
C3405 C 0.92696 0.71131 0.4854 0.0
C3406 C 0.97072 0.70763 0.46956 0.0
H3407 H 0.97044 0.64351 0.48077 0.0
O3408 O 0.02487 0.61782 0.40381 0.0
O3409 O 0.01106 0.65569 0.39146 0.0
O3410 O 0.05793 0.61563 0.44087 0.0
O3411 O 0.05545 0.61995 0.44158 0.0
C3412 C 0.90946 0.7542 0.45331 0.0
C3413 C 0.91994 0.77736 0.45132 0.0
H3414 H 0.94027 0.77074 0.41129 0.0
H3415 H 0.97234 0.7664 0.34967 0.0
H3416 H 0.96834 0.61172 0.50167 0.0
H3417 H 0.94915 0.64391 0.51351 0.0
H3418 H 0.88755 0.7569 0.44421 0.0
H3419 H 0.90299 0.79143 0.45939 0.0
Mn3420 Mn 0.92345 0.32805 0.40252 0.0
Mn3421 Mn 0.95482 0.31098 0.42537 0.0
C3422 C 0.97835 0.35003 0.39455 0.0
C3423 C 0.89389 0.35895 0.37717 0.0
C3424 C 0.92138 0.37775 0.4687 0.0
O3425 O 0.89551 0.29151 0.37008 0.0
O3426 O 0.90127 0.29283 0.3757 0.0
C3427 C 0.98752 0.25086 0.38839 0.0
N3428 N 0.98487 0.26292 0.42219 0.0
C3429 C 0.04085 0.21604 0.43038 0.0
C3430 C 0.03532 0.20807 0.39149 0.0
C3431 C 0.00772 0.2228 0.37347 0.0
C3432 C 0.00154 0.25086 0.44771 0.0
H3433 H -0.00384 0.23605 0.37867 0.0
C3434 C 0.87892 0.26622 0.36347 0.0
O3435 O 0.88513 0.3498 0.40127 0.0
O3436 O 0.91772 0.35004 0.36855 0.0
N3437 N -0.00419 0.3019 0.46109 0.0
C3438 C 0.00085 0.33048 0.46695 0.0
C3439 C 0.02106 0.34396 0.49388 0.0
C3440 C 0.05183 0.32871 0.50455 0.0
C3441 C 0.05451 0.26943 0.48525 0.0
C3442 C 0.01089 0.27313 0.46935 0.0
H3443 H 0.01112 0.3374 0.48068 0.0
O3444 O 0.95676 0.3632 0.40381 0.0
O3445 O 0.97054 0.32534 0.39142 0.0
O3446 O 0.92364 0.36534 0.44096 0.0
O3447 O 0.92615 0.36104 0.44167 0.0
C3448 C 0.07232 0.22638 0.45334 0.0
C3449 C 0.0612 0.20329 0.45052 0.0
H3450 H 0.04072 0.20949 0.41078 0.0
H3451 H 0.00896 0.21457 0.34942 0.0
H3452 H 0.01334 0.36914 0.50166 0.0
H3453 H 0.03237 0.33688 0.51347 0.0
H3454 H 0.09451 0.22393 0.44483 0.0
H3455 H 0.07793 0.18989 0.45894 0.0
loop_
_geom_bond_atom_site_label_1
_geom_bond_atom_site_label_2
_geom_bond_distance
_geom_bond_site_symmetry_2
_ccdc_geom_bond_type
Mn0 O5 2.095 . S
Mn0 O15 2.162 . S
Mn0 O16 2.297 . S
Mn0 O24 2.385 . S
Mn0 O25 2.209 . S
Mn0 O26 2.094 . S
Mn1 O6 2.121 . S
Mn1 N8 2.275 . S
Mn1 N17 2.282 . S
Mn1 O25 2.215 . S
Mn1 O27 2.117 . S
C2 O24 1.234 . S
C2 O25 1.283 . S
C3 O15 1.281 . S
C3 O16 1.236 . S
C4 O26 1.240 . S
C4 O27 1.264 . S
O5 Mn0 2.095 . S
O5 C14 1.250 . S
O6 Mn1 2.121 . S
O6 C14 1.258 . S
C7 N8 1.302 1_655 S
C7 C11 1.460 . S
C7 H13 0.929 . S
N8 Mn1 2.275 . S
N8 C7 1.302 1_455 S
N8 C12 1.369 . S
C9 C10 1.258 . S
C9 C12 1.431 1_655 S
C9 C29 1.449 . S
C10 C9 1.258 . S
C10 C11 1.477 . S
C10 H30 0.931 . S
C11 C7 1.460 . S
C11 C10 1.477 . S
C11 H31 0.930 . S
C12 N8 1.369 . S
C12 C9 1.431 1_455 S
C12 C22 1.476 . S
H13 C7 0.929 . S
C14 O5 1.250 . S
C14 O6 1.258 . S
O15 Mn0 2.162 . S
O15 C3 1.281 . S
O16 Mn0 2.297 . S
O16 C3 1.236 . S
N17 Mn1 2.282 . S
N17 C18 1.328 . S
N17 C22 1.318 . S
C18 N17 1.328 . S
C18 C19 1.457 . S
C18 H23 0.929 . S
C19 C18 1.457 . S
C19 C20 1.291 . S
C19 H32 0.931 . S
C20 C19 1.291 . S
C20 C21 1.373 . S
C20 H33 0.929 . S
C21 C20 1.373 . S
C21 C22 1.396 . S
C21 C28 1.403 . S
C22 C12 1.476 . S
C22 N17 1.318 . S
C22 C21 1.396 . S
H23 C18 0.929 . S
O24 Mn0 2.385 . S
O24 C2 1.234 . S
O25 Mn0 2.209 . S
O25 Mn1 2.215 . S
O25 C2 1.283 . S
O26 Mn0 2.094 . S
O26 C4 1.240 . S
O27 Mn1 2.117 . S
O27 C4 1.264 . S
C28 C21 1.403 . S
C28 C29 1.399 1_455 S
C28 H34 0.929 . S
C29 C9 1.449 . S
C29 C28 1.399 1_655 S
C29 H35 0.930 . S
H30 C10 0.931 . S
H31 C11 0.930 . S
H32 C19 0.931 . S
H33 C20 0.929 . S
H34 C28 0.929 . S
H35 C29 0.930 . S
Mn36 O41 2.095 . S
Mn36 O51 2.162 . S
Mn36 O52 2.297 . S
Mn36 O60 2.385 . S
Mn36 O61 2.209 . S
Mn36 O62 2.094 . S
Mn37 O42 2.121 . S
Mn37 N44 2.275 . S
Mn37 N53 2.282 . S
Mn37 O61 2.215 . S
Mn37 O63 2.117 . S
C38 O60 1.234 . S
C38 O61 1.283 . S
C39 O51 1.281 . S
C39 O52 1.236 . S
C40 O62 1.240 . S
C40 O63 1.264 . S
O41 Mn36 2.095 . S
O41 C50 1.250 . S
O42 Mn37 2.121 . S
O42 C50 1.258 . S
C43 N44 1.302 1_565 S
C43 C47 1.460 . S
C43 H49 0.929 . S
N44 Mn37 2.275 . S
N44 C43 1.302 1_545 S
N44 C48 1.369 . S
C45 C46 1.258 . S
C45 C48 1.431 1_565 S
C45 C65 1.449 . S
C46 C45 1.258 . S
C46 C47 1.477 . S
C46 H66 0.931 . S
C47 C43 1.460 . S
C47 C46 1.477 . S
C47 H67 0.930 . S
C48 N44 1.369 . S
C48 C45 1.431 1_545 S
C48 C58 1.476 . S
H49 C43 0.929 . S
C50 O41 1.250 . S
C50 O42 1.258 . S
O51 Mn36 2.162 . S
O51 C39 1.281 . S
O52 Mn36 2.297 . S
O52 C39 1.236 . S
N53 Mn37 2.282 . S
N53 C54 1.328 . S
N53 C58 1.318 . S
C54 N53 1.328 . S
C54 C55 1.457 . S
C54 H59 0.929 . S
C55 C54 1.457 . S
C55 C56 1.291 . S
C55 H68 0.931 . S
C56 C55 1.291 . S
C56 C57 1.373 . S
C56 H69 0.929 . S
C57 C56 1.373 . S
C57 C58 1.396 . S
C57 C64 1.403 . S
C58 C48 1.476 . S
C58 N53 1.318 . S
C58 C57 1.396 . S
H59 C54 0.929 . S
O60 Mn36 2.385 . S
O60 C38 1.234 . S
O61 Mn36 2.209 . S
O61 Mn37 2.215 . S
O61 C38 1.283 . S
O62 Mn36 2.094 . S
O62 C40 1.240 . S
O63 Mn37 2.117 . S
O63 C40 1.264 . S
C64 C57 1.403 . S
C64 C65 1.399 1_545 S
C64 H70 0.929 . S
C65 C45 1.449 . S
C65 C64 1.399 1_565 S
C65 H71 0.930 . S
H66 C46 0.931 . S
H67 C47 0.930 . S
H68 C55 0.931 . S
H69 C56 0.929 . S
H70 C64 0.929 . S
H71 C65 0.930 . S
Mn72 O77 2.095 . S
Mn72 O87 2.162 . S
Mn72 O88 2.297 . S
Mn72 O96 2.385 . S
Mn72 O97 2.209 . S
Mn72 O98 2.094 . S
Mn73 O78 2.121 . S
Mn73 N80 2.275 . S
Mn73 N89 2.282 . S
Mn73 O97 2.215 . S
Mn73 O99 2.117 . S
C74 O96 1.234 . S
C74 O97 1.283 . S
C75 O87 1.281 . S
C75 O88 1.236 . S
C76 O98 1.240 . S
C76 O99 1.264 . S
O77 Mn72 2.095 . S
O77 C86 1.250 . S
O78 Mn73 2.121 . S
O78 C86 1.258 . S
C79 N80 1.302 1_455 S
C79 C83 1.460 . S
C79 H85 0.929 . S
N80 Mn73 2.275 . S
N80 C79 1.302 1_655 S
N80 C84 1.369 . S
C81 C82 1.258 . S
C81 C84 1.431 1_455 S
C81 C101 1.449 . S
C82 C81 1.258 . S
C82 C83 1.477 . S
C82 H102 0.931 . S
C83 C79 1.460 . S
C83 C82 1.477 . S
C83 H103 0.930 . S
C84 N80 1.369 . S
C84 C81 1.431 1_655 S
C84 C94 1.476 . S
H85 C79 0.929 . S
C86 O77 1.250 . S
C86 O78 1.258 . S
O87 Mn72 2.162 . S
O87 C75 1.281 . S
O88 Mn72 2.297 . S
O88 C75 1.236 . S
N89 Mn73 2.282 . S
N89 C90 1.328 . S
N89 C94 1.318 . S
C90 N89 1.328 . S
C90 C91 1.457 . S
C90 H95 0.929 . S
C91 C90 1.457 . S
C91 C92 1.291 . S
C91 H104 0.931 . S
C92 C91 1.291 . S
C92 C93 1.373 . S
C92 H105 0.929 . S
C93 C92 1.373 . S
C93 C94 1.396 . S
C93 C100 1.403 . S
C94 C84 1.476 . S
C94 N89 1.318 . S
C94 C93 1.396 . S
H95 C90 0.929 . S
O96 Mn72 2.385 . S
O96 C74 1.234 . S
O97 Mn72 2.209 . S
O97 Mn73 2.215 . S
O97 C74 1.283 . S
O98 Mn72 2.094 . S
O98 C76 1.240 . S
O99 Mn73 2.117 . S
O99 C76 1.264 . S
C100 C93 1.403 . S
C100 C101 1.399 1_655 S
C100 H106 0.929 . S
C101 C81 1.449 . S
C101 C100 1.399 1_455 S
C101 H107 0.930 . S
H102 C82 0.931 . S
H103 C83 0.930 . S
H104 C91 0.931 . S
H105 C92 0.929 . S
H106 C100 0.929 . S
H107 C101 0.930 . S
Mn108 O113 2.095 . S
Mn108 O123 2.162 . S
Mn108 O124 2.297 . S
Mn108 O132 2.385 . S
Mn108 O133 2.209 . S
Mn108 O134 2.094 . S
Mn109 O114 2.121 . S
Mn109 N116 2.275 . S
Mn109 N125 2.282 . S
Mn109 O133 2.215 . S
Mn109 O135 2.117 . S
C110 O132 1.234 . S
C110 O133 1.283 . S
C111 O123 1.281 . S
C111 O124 1.236 . S
C112 O134 1.240 . S
C112 O135 1.264 . S
O113 Mn108 2.095 . S
O113 C122 1.250 . S
O114 Mn109 2.121 . S
O114 C122 1.258 . S
C115 N116 1.302 1_545 S
C115 C119 1.460 . S
C115 H121 0.929 . S
N116 Mn109 2.275 . S
N116 C115 1.302 1_565 S
N116 C120 1.369 . S
C117 C118 1.258 . S
C117 C120 1.431 1_545 S
C117 C137 1.449 . S
C118 C117 1.258 . S
C118 C119 1.477 . S
C118 H138 0.931 . S
C119 C115 1.460 . S
C119 C118 1.477 . S
C119 H139 0.930 . S
C120 N116 1.369 . S
C120 C117 1.431 1_565 S
C120 C130 1.476 . S
H121 C115 0.929 . S
C122 O113 1.250 . S
C122 O114 1.258 . S
O123 Mn108 2.162 . S
O123 C111 1.281 . S
O124 Mn108 2.297 . S
O124 C111 1.236 . S
N125 Mn109 2.282 . S
N125 C126 1.328 . S
N125 C130 1.318 . S
C126 N125 1.328 . S
C126 C127 1.457 . S
C126 H131 0.929 . S
C127 C126 1.457 . S
C127 C128 1.291 . S
C127 H140 0.931 . S
C128 C127 1.291 . S
C128 C129 1.373 . S
C128 H141 0.929 . S
C129 C128 1.373 . S
C129 C130 1.396 . S
C129 C136 1.403 . S
C130 C120 1.476 . S
C130 N125 1.318 . S
C130 C129 1.396 . S
H131 C126 0.929 . S
O132 Mn108 2.385 . S
O132 C110 1.234 . S
O133 Mn108 2.209 . S
O133 Mn109 2.215 . S
O133 C110 1.283 . S
O134 Mn108 2.094 . S
O134 C112 1.240 . S
O135 Mn109 2.117 . S
O135 C112 1.264 . S
C136 C129 1.403 . S
C136 C137 1.399 1_565 S
C136 H142 0.929 . S
C137 C117 1.449 . S
C137 C136 1.399 1_545 S
C137 H143 0.930 . S
H138 C118 0.931 . S
H139 C119 0.930 . S
H140 C127 0.931 . S
H141 C128 0.929 . S
H142 C136 0.929 . S
H143 C137 0.930 . S
Mn144 O149 2.095 . S
Mn144 O159 2.162 . S
Mn144 O160 2.297 . S
Mn144 O168 2.385 . S
Mn144 O169 2.209 . S
Mn144 O170 2.094 . S
Mn145 O150 2.121 . S
Mn145 N152 2.275 . S
Mn145 N161 2.282 . S
Mn145 O169 2.215 . S
Mn145 O171 2.117 . S
C146 O168 1.234 . S
C146 O169 1.283 . S
C147 O159 1.281 . S
C147 O160 1.236 . S
C148 O170 1.240 . S
C148 O171 1.264 . S
O149 Mn144 2.095 . S
O149 C158 1.250 . S
O150 Mn145 2.121 . S
O150 C158 1.258 . S
C151 N152 1.302 1_655 S
C151 C155 1.460 . S
C151 H157 0.929 . S
N152 Mn145 2.275 . S
N152 C151 1.302 1_455 S
N152 C156 1.369 . S
C153 C154 1.258 . S
C153 C156 1.431 1_655 S
C153 C173 1.449 . S
C154 C153 1.258 . S
C154 C155 1.477 . S
C154 H174 0.931 . S
C155 C151 1.460 . S
C155 C154 1.477 . S
C155 H175 0.930 . S
C156 N152 1.369 . S
C156 C153 1.431 1_455 S
C156 C166 1.476 . S
H157 C151 0.929 . S
C158 O149 1.250 . S
C158 O150 1.258 . S
O159 Mn144 2.162 . S
O159 C147 1.281 . S
O160 Mn144 2.297 . S
O160 C147 1.236 . S
N161 Mn145 2.282 . S
N161 C162 1.328 . S
N161 C166 1.318 . S
C162 N161 1.328 . S
C162 C163 1.457 . S
C162 H167 0.929 . S
C163 C162 1.457 . S
C163 C164 1.291 . S
C163 H176 0.931 . S
C164 C163 1.291 . S
C164 C165 1.373 . S
C164 H177 0.929 . S
C165 C164 1.373 . S
C165 C166 1.396 . S
C165 C172 1.403 . S
C166 C156 1.476 . S
C166 N161 1.318 . S
C166 C165 1.396 . S
H167 C162 0.929 . S
O168 Mn144 2.385 . S
O168 C146 1.234 . S
O169 Mn144 2.209 . S
O169 Mn145 2.215 . S
O169 C146 1.283 . S
O170 Mn144 2.094 . S
O170 C148 1.240 . S
O171 Mn145 2.117 . S
O171 C148 1.264 . S
C172 C165 1.403 . S
C172 C173 1.399 1_455 S
C172 H178 0.929 . S
C173 C153 1.449 . S
C173 C172 1.399 1_655 S
C173 H179 0.930 . S
H174 C154 0.931 . S
H175 C155 0.930 . S
H176 C163 0.931 . S
H177 C164 0.929 . S
H178 C172 0.929 . S
H179 C173 0.930 . S
Mn180 O185 2.095 . S
Mn180 O195 2.162 . S
Mn180 O196 2.297 . S
Mn180 O204 2.385 . S
Mn180 O205 2.209 . S
Mn180 O206 2.094 . S
Mn181 O186 2.121 . S
Mn181 N188 2.275 . S
Mn181 N197 2.282 . S
Mn181 O205 2.215 . S
Mn181 O207 2.117 . S
C182 O204 1.234 . S
C182 O205 1.283 . S
C183 O195 1.281 . S
C183 O196 1.236 . S
C184 O206 1.240 . S
C184 O207 1.264 . S
O185 Mn180 2.095 . S
O185 C194 1.250 . S
O186 Mn181 2.121 . S
O186 C194 1.258 . S
C187 N188 1.302 1_565 S
C187 C191 1.460 . S
C187 H193 0.929 . S
N188 Mn181 2.275 . S
N188 C187 1.302 1_545 S
N188 C192 1.369 . S
C189 C190 1.258 . S
C189 C192 1.431 1_565 S
C189 C209 1.449 . S
C190 C189 1.258 . S
C190 C191 1.477 . S
C190 H210 0.931 . S
C191 C187 1.460 . S
C191 C190 1.477 . S
C191 H211 0.930 . S
C192 N188 1.369 . S
C192 C189 1.431 1_545 S
C192 C202 1.476 . S
H193 C187 0.929 . S
C194 O185 1.250 . S
C194 O186 1.258 . S
O195 Mn180 2.162 . S
O195 C183 1.281 . S
O196 Mn180 2.297 . S
O196 C183 1.236 . S
N197 Mn181 2.282 . S
N197 C198 1.328 . S
N197 C202 1.318 . S
C198 N197 1.328 . S
C198 C199 1.457 . S
C198 H203 0.929 . S
C199 C198 1.457 . S
C199 C200 1.291 . S
C199 H212 0.931 . S
C200 C199 1.291 . S
C200 C201 1.373 . S
C200 H213 0.929 . S
C201 C200 1.373 . S
C201 C202 1.396 . S
C201 C208 1.403 . S
C202 C192 1.476 . S
C202 N197 1.318 . S
C202 C201 1.396 . S
H203 C198 0.929 . S
O204 Mn180 2.385 . S
O204 C182 1.234 . S
O205 Mn180 2.209 . S
O205 Mn181 2.215 . S
O205 C182 1.283 . S
O206 Mn180 2.094 . S
O206 C184 1.240 . S
O207 Mn181 2.117 . S
O207 C184 1.264 . S
C208 C201 1.403 . S
C208 C209 1.399 1_545 S
C208 H214 0.929 . S
C209 C189 1.449 . S
C209 C208 1.399 1_565 S
C209 H215 0.930 . S
H210 C190 0.931 . S
H211 C191 0.930 . S
H212 C199 0.931 . S
H213 C200 0.929 . S
H214 C208 0.929 . S
H215 C209 0.930 . S
Mn216 O221 2.095 . S
Mn216 O231 2.162 . S
Mn216 O232 2.297 . S
Mn216 O240 2.385 . S
Mn216 O241 2.209 . S
Mn216 O242 2.094 . S
Mn217 O222 2.121 . S
Mn217 N224 2.275 . S
Mn217 N233 2.282 . S
Mn217 O241 2.215 . S
Mn217 O243 2.117 . S
C218 O240 1.234 . S
C218 O241 1.283 . S
C219 O231 1.281 . S
C219 O232 1.236 . S
C220 O242 1.240 . S
C220 O243 1.264 . S
O221 Mn216 2.095 . S
O221 C230 1.250 . S
O222 Mn217 2.121 . S
O222 C230 1.258 . S
C223 N224 1.302 1_455 S
C223 C227 1.460 . S
C223 H229 0.929 . S
N224 Mn217 2.275 . S
N224 C223 1.302 1_655 S
N224 C228 1.369 . S
C225 C226 1.258 . S
C225 C228 1.431 1_455 S
C225 C245 1.449 . S
C226 C225 1.258 . S
C226 C227 1.477 . S
C226 H246 0.931 . S
C227 C223 1.460 . S
C227 C226 1.477 . S
C227 H247 0.930 . S
C228 N224 1.369 . S
C228 C225 1.431 1_655 S
C228 C238 1.476 . S
H229 C223 0.929 . S
C230 O221 1.250 . S
C230 O222 1.258 . S
O231 Mn216 2.162 . S
O231 C219 1.281 . S
O232 Mn216 2.297 . S
O232 C219 1.236 . S
N233 Mn217 2.282 . S
N233 C234 1.328 . S
N233 C238 1.318 . S
C234 N233 1.328 . S
C234 C235 1.457 . S
C234 H239 0.929 . S
C235 C234 1.457 . S
C235 C236 1.291 . S
C235 H248 0.931 . S
C236 C235 1.291 . S
C236 C237 1.373 . S
C236 H249 0.929 . S
C237 C236 1.373 . S
C237 C238 1.396 . S
C237 C244 1.403 . S
C238 C228 1.476 . S
C238 N233 1.318 . S
C238 C237 1.396 . S
H239 C234 0.929 . S
O240 Mn216 2.385 . S
O240 C218 1.234 . S
O241 Mn216 2.209 . S
O241 Mn217 2.215 . S
O241 C218 1.283 . S
O242 Mn216 2.094 . S
O242 C220 1.240 . S
O243 Mn217 2.117 . S
O243 C220 1.264 . S
C244 C237 1.403 . S
C244 C245 1.399 1_655 S
C244 H250 0.929 . S
C245 C225 1.449 . S
C245 C244 1.399 1_455 S
C245 H251 0.930 . S
H246 C226 0.931 . S
H247 C227 0.930 . S
H248 C235 0.931 . S
H249 C236 0.929 . S
H250 C244 0.929 . S
H251 C245 0.930 . S
Mn252 O257 2.095 . S
Mn252 O267 2.162 . S
Mn252 O268 2.297 . S
Mn252 O276 2.385 . S
Mn252 O277 2.209 . S
Mn252 O278 2.094 . S
Mn253 O258 2.121 . S
Mn253 N260 2.275 . S
Mn253 N269 2.282 . S
Mn253 O277 2.215 . S
Mn253 O279 2.117 . S
C254 O276 1.234 . S
C254 O277 1.283 . S
C255 O267 1.281 . S
C255 O268 1.236 . S
C256 O278 1.240 . S
C256 O279 1.264 . S
O257 Mn252 2.095 . S
O257 C266 1.250 . S
O258 Mn253 2.121 . S
O258 C266 1.258 . S
C259 N260 1.302 1_545 S
C259 C263 1.460 . S
C259 H265 0.929 . S
N260 Mn253 2.275 . S
N260 C259 1.302 1_565 S
N260 C264 1.369 . S
C261 C262 1.258 . S
C261 C264 1.431 1_545 S
C261 C281 1.449 . S
C262 C261 1.258 . S
C262 C263 1.477 . S
C262 H282 0.931 . S
C263 C259 1.460 . S
C263 C262 1.477 . S
C263 H283 0.930 . S
C264 N260 1.369 . S
C264 C261 1.431 1_565 S
C264 C274 1.476 . S
H265 C259 0.929 . S
C266 O257 1.250 . S
C266 O258 1.258 . S
O267 Mn252 2.162 . S
O267 C255 1.281 . S
O268 Mn252 2.297 . S
O268 C255 1.236 . S
N269 Mn253 2.282 . S
N269 C270 1.328 . S
N269 C274 1.318 . S
C270 N269 1.328 . S
C270 C271 1.457 . S
C270 H275 0.929 . S
C271 C270 1.457 . S
C271 C272 1.291 . S
C271 H284 0.931 . S
C272 C271 1.291 . S
C272 C273 1.373 . S
C272 H285 0.929 . S
C273 C272 1.373 . S
C273 C274 1.396 . S
C273 C280 1.403 . S
C274 C264 1.476 . S
C274 N269 1.318 . S
C274 C273 1.396 . S
H275 C270 0.929 . S
O276 Mn252 2.385 . S
O276 C254 1.234 . S
O277 Mn252 2.209 . S
O277 Mn253 2.215 . S
O277 C254 1.283 . S
O278 Mn252 2.094 . S
O278 C256 1.240 . S
O279 Mn253 2.117 . S
O279 C256 1.264 . S
C280 C273 1.403 . S
C280 C281 1.399 1_565 S
C280 H286 0.929 . S
C281 C261 1.449 . S
C281 C280 1.399 1_545 S
C281 H287 0.930 . S
H282 C262 0.931 . S
H283 C263 0.930 . S
H284 C271 0.931 . S
H285 C272 0.929 . S
H286 C280 0.929 . S
H287 C281 0.930 . S
Mn288 O293 2.095 . S
Mn288 O303 2.162 . S
Mn288 O304 2.297 . S
Mn288 O312 2.385 . S
Mn288 O313 2.209 . S
Mn288 O314 2.094 . S
Mn289 O294 2.121 . S
Mn289 N296 2.275 . S
Mn289 N305 2.282 . S
Mn289 O313 2.215 . S
Mn289 O315 2.117 . S
C290 O312 1.234 . S
C290 O313 1.283 . S
C291 O303 1.281 . S
C291 O304 1.236 . S
C292 O314 1.240 . S
C292 O315 1.264 . S
O293 Mn288 2.095 . S
O293 C302 1.250 . S
O294 Mn289 2.121 . S
O294 C302 1.258 . S
C295 N296 1.302 1_565 S
C295 C299 1.460 . S
C295 H301 0.929 . S
N296 Mn289 2.275 . S
N296 C295 1.302 1_545 S
N296 C300 1.369 . S
C297 C298 1.258 . S
C297 C300 1.431 1_565 S
C297 C317 1.449 . S
C298 C297 1.258 . S
C298 C299 1.477 . S
C298 H318 0.931 . S
C299 C295 1.460 . S
C299 C298 1.477 . S
C299 H319 0.930 . S
C300 N296 1.369 . S
C300 C297 1.431 1_545 S
C300 C310 1.476 . S
H301 C295 0.929 . S
C302 O293 1.250 . S
C302 O294 1.258 . S
O303 Mn288 2.162 . S
O303 C291 1.281 . S
O304 Mn288 2.297 . S
O304 C291 1.236 . S
N305 Mn289 2.282 . S
N305 C306 1.328 . S
N305 C310 1.318 . S
C306 N305 1.328 . S
C306 C307 1.457 . S
C306 H311 0.929 . S
C307 C306 1.457 . S
C307 C308 1.291 . S
C307 H320 0.931 . S
C308 C307 1.291 . S
C308 C309 1.373 . S
C308 H321 0.929 . S
C309 C308 1.373 . S
C309 C310 1.396 . S
C309 C316 1.403 . S
C310 C300 1.476 . S
C310 N305 1.318 . S
C310 C309 1.396 . S
H311 C306 0.929 . S
O312 Mn288 2.385 . S
O312 C290 1.234 . S
O313 Mn288 2.209 . S
O313 Mn289 2.215 . S
O313 C290 1.283 . S
O314 Mn288 2.094 . S
O314 C292 1.240 . S
O315 Mn289 2.117 . S
O315 C292 1.264 . S
C316 C309 1.403 . S
C316 C317 1.399 1_545 S
C316 H322 0.929 . S
C317 C297 1.449 . S
C317 C316 1.399 1_565 S
C317 H323 0.930 . S
H318 C298 0.931 . S
H319 C299 0.930 . S
H320 C307 0.931 . S
H321 C308 0.929 . S
H322 C316 0.929 . S
H323 C317 0.930 . S
Mn324 O329 2.095 . S
Mn324 O339 2.162 . S
Mn324 O340 2.297 . S
Mn324 O348 2.385 . S
Mn324 O349 2.209 . S
Mn324 O350 2.094 . S
Mn325 O330 2.121 . S
Mn325 N332 2.275 . S
Mn325 N341 2.282 . S
Mn325 O349 2.215 . S
Mn325 O351 2.117 . S
C326 O348 1.234 . S
C326 O349 1.283 . S
C327 O339 1.281 . S
C327 O340 1.236 . S
C328 O350 1.240 . S
C328 O351 1.264 . S
O329 Mn324 2.095 . S
O329 C338 1.250 . S
O330 Mn325 2.121 . S
O330 C338 1.258 . S
C331 N332 1.302 1_455 S
C331 C335 1.460 . S
C331 H337 0.929 . S
N332 Mn325 2.275 . S
N332 C331 1.302 1_655 S
N332 C336 1.369 . S
C333 C334 1.258 . S
C333 C336 1.431 1_455 S
C333 C353 1.449 . S
C334 C333 1.258 . S
C334 C335 1.477 . S
C334 H354 0.931 . S
C335 C331 1.460 . S
C335 C334 1.477 . S
C335 H355 0.930 . S
C336 N332 1.369 . S
C336 C333 1.431 1_655 S
C336 C346 1.476 . S
H337 C331 0.929 . S
C338 O329 1.250 . S
C338 O330 1.258 . S
O339 Mn324 2.162 . S
O339 C327 1.281 . S
O340 Mn324 2.297 . S
O340 C327 1.236 . S
N341 Mn325 2.282 . S
N341 C342 1.328 . S
N341 C346 1.318 . S
C342 N341 1.328 . S
C342 C343 1.457 . S
C342 H347 0.929 . S
C343 C342 1.457 . S
C343 C344 1.291 . S
C343 H356 0.931 . S
C344 C343 1.291 . S
C344 C345 1.373 . S
C344 H357 0.929 . S
C345 C344 1.373 . S
C345 C346 1.396 . S
C345 C352 1.403 . S
C346 C336 1.476 . S
C346 N341 1.318 . S
C346 C345 1.396 . S
H347 C342 0.929 . S
O348 Mn324 2.385 . S
O348 C326 1.234 . S
O349 Mn324 2.209 . S
O349 Mn325 2.215 . S
O349 C326 1.283 . S
O350 Mn324 2.094 . S
O350 C328 1.240 . S
O351 Mn325 2.117 . S
O351 C328 1.264 . S
C352 C345 1.403 . S
C352 C353 1.399 1_655 S
C352 H358 0.929 . S
C353 C333 1.449 . S
C353 C352 1.399 1_455 S
C353 H359 0.930 . S
H354 C334 0.931 . S
H355 C335 0.930 . S
H356 C343 0.931 . S
H357 C344 0.929 . S
H358 C352 0.929 . S
H359 C353 0.930 . S
Mn360 O365 2.095 . S
Mn360 O375 2.162 . S
Mn360 O376 2.297 . S
Mn360 O384 2.385 . S
Mn360 O385 2.209 . S
Mn360 O386 2.094 . S
Mn361 O366 2.121 . S
Mn361 N368 2.275 . S
Mn361 N377 2.282 . S
Mn361 O385 2.215 . S
Mn361 O387 2.117 . S
C362 O384 1.234 . S
C362 O385 1.283 . S
C363 O375 1.281 . S
C363 O376 1.236 . S
C364 O386 1.240 . S
C364 O387 1.264 . S
O365 Mn360 2.095 . S
O365 C374 1.250 . S
O366 Mn361 2.121 . S
O366 C374 1.258 . S
C367 N368 1.302 1_545 S
C367 C371 1.460 . S
C367 H373 0.929 . S
N368 Mn361 2.275 . S
N368 C367 1.302 1_565 S
N368 C372 1.369 . S
C369 C370 1.258 . S
C369 C372 1.431 1_545 S
C369 C389 1.449 . S
C370 C369 1.258 . S
C370 C371 1.477 . S
C370 H390 0.931 . S
C371 C367 1.460 . S
C371 C370 1.477 . S
C371 H391 0.930 . S
C372 N368 1.369 . S
C372 C369 1.431 1_565 S
C372 C382 1.476 . S
H373 C367 0.929 . S
C374 O365 1.250 . S
C374 O366 1.258 . S
O375 Mn360 2.162 . S
O375 C363 1.281 . S
O376 Mn360 2.297 . S
O376 C363 1.236 . S
N377 Mn361 2.282 . S
N377 C378 1.328 . S
N377 C382 1.318 . S
C378 N377 1.328 . S
C378 C379 1.457 . S
C378 H383 0.929 . S
C379 C378 1.457 . S
C379 C380 1.291 . S
C379 H392 0.931 . S
C380 C379 1.291 . S
C380 C381 1.373 . S
C380 H393 0.929 . S
C381 C380 1.373 . S
C381 C382 1.396 . S
C381 C388 1.403 . S
C382 C372 1.476 . S
C382 N377 1.318 . S
C382 C381 1.396 . S
H383 C378 0.929 . S
O384 Mn360 2.385 . S
O384 C362 1.234 . S
O385 Mn360 2.209 . S
O385 Mn361 2.215 . S
O385 C362 1.283 . S
O386 Mn360 2.094 . S
O386 C364 1.240 . S
O387 Mn361 2.117 . S
O387 C364 1.264 . S
C388 C381 1.403 . S
C388 C389 1.399 1_565 S
C388 H394 0.929 . S
C389 C369 1.449 . S
C389 C388 1.399 1_545 S
C389 H395 0.930 . S
H390 C370 0.931 . S
H391 C371 0.930 . S
H392 C379 0.931 . S
H393 C380 0.929 . S
H394 C388 0.929 . S
H395 C389 0.930 . S
Mn396 O401 2.095 . S
Mn396 O411 2.162 . S
Mn396 O412 2.297 . S
Mn396 O420 2.385 . S
Mn396 O421 2.209 . S
Mn396 O422 2.094 . S
Mn397 O402 2.121 . S
Mn397 N404 2.275 . S
Mn397 N413 2.282 . S
Mn397 O421 2.215 . S
Mn397 O423 2.117 . S
C398 O420 1.234 . S
C398 O421 1.283 . S
C399 O411 1.281 . S
C399 O412 1.236 . S
C400 O422 1.240 . S
C400 O423 1.264 . S
O401 Mn396 2.095 . S
O401 C410 1.250 . S
O402 Mn397 2.121 . S
O402 C410 1.258 . S
C403 N404 1.302 1_655 S
C403 C407 1.460 . S
C403 H409 0.929 . S
N404 Mn397 2.275 . S
N404 C403 1.302 1_455 S
N404 C408 1.369 . S
C405 C406 1.258 . S
C405 C408 1.431 1_655 S
C405 C425 1.449 . S
C406 C405 1.258 . S
C406 C407 1.477 . S
C406 H426 0.931 . S
C407 C403 1.460 . S
C407 C406 1.477 . S
C407 H427 0.930 . S
C408 N404 1.369 . S
C408 C405 1.431 1_455 S
C408 C418 1.476 . S
H409 C403 0.929 . S
C410 O401 1.250 . S
C410 O402 1.258 . S
O411 Mn396 2.162 . S
O411 C399 1.281 . S
O412 Mn396 2.297 . S
O412 C399 1.236 . S
N413 Mn397 2.282 . S
N413 C414 1.328 . S
N413 C418 1.318 . S
C414 N413 1.328 . S
C414 C415 1.457 . S
C414 H419 0.929 . S
C415 C414 1.457 . S
C415 C416 1.291 . S
C415 H428 0.931 . S
C416 C415 1.291 . S
C416 C417 1.373 . S
C416 H429 0.929 . S
C417 C416 1.373 . S
C417 C418 1.396 . S
C417 C424 1.403 . S
C418 C408 1.476 . S
C418 N413 1.318 . S
C418 C417 1.396 . S
H419 C414 0.929 . S
O420 Mn396 2.385 . S
O420 C398 1.234 . S
O421 Mn396 2.209 . S
O421 Mn397 2.215 . S
O421 C398 1.283 . S
O422 Mn396 2.094 . S
O422 C400 1.240 . S
O423 Mn397 2.117 . S
O423 C400 1.264 . S
C424 C417 1.403 . S
C424 C425 1.399 1_455 S
C424 H430 0.929 . S
C425 C405 1.449 . S
C425 C424 1.399 1_655 S
C425 H431 0.930 . S
H426 C406 0.931 . S
H427 C407 0.930 . S
H428 C415 0.931 . S
H429 C416 0.929 . S
H430 C424 0.929 . S
H431 C425 0.930 . S
Mn432 O437 2.095 . S
Mn432 O447 2.162 . S
Mn432 O448 2.297 . S
Mn432 O456 2.385 . S
Mn432 O457 2.209 . S
Mn432 O458 2.094 . S
Mn433 O438 2.121 . S
Mn433 N440 2.275 . S
Mn433 N449 2.282 . S
Mn433 O457 2.215 . S
Mn433 O459 2.117 . S
C434 O456 1.234 . S
C434 O457 1.283 . S
C435 O447 1.281 . S
C435 O448 1.236 . S
C436 O458 1.240 . S
C436 O459 1.264 . S
O437 Mn432 2.095 . S
O437 C446 1.250 . S
O438 Mn433 2.121 . S
O438 C446 1.258 . S
C439 N440 1.302 1_545 S
C439 C443 1.460 . S
C439 H445 0.929 . S
N440 Mn433 2.275 . S
N440 C439 1.302 1_565 S
N440 C444 1.369 . S
C441 C442 1.258 . S
C441 C444 1.431 1_545 S
C441 C461 1.449 . S
C442 C441 1.258 . S
C442 C443 1.477 . S
C442 H462 0.931 . S
C443 C439 1.460 . S
C443 C442 1.477 . S
C443 H463 0.930 . S
C444 N440 1.369 . S
C444 C441 1.431 1_565 S
C444 C454 1.476 . S
H445 C439 0.929 . S
C446 O437 1.250 . S
C446 O438 1.258 . S
O447 Mn432 2.162 . S
O447 C435 1.281 . S
O448 Mn432 2.297 . S
O448 C435 1.236 . S
N449 Mn433 2.282 . S
N449 C450 1.328 . S
N449 C454 1.318 . S
C450 N449 1.328 . S
C450 C451 1.457 . S
C450 H455 0.929 . S
C451 C450 1.457 . S
C451 C452 1.291 . S
C451 H464 0.931 . S
C452 C451 1.291 . S
C452 C453 1.373 . S
C452 H465 0.929 . S
C453 C452 1.373 . S
C453 C454 1.396 . S
C453 C460 1.403 . S
C454 C444 1.476 . S
C454 N449 1.318 . S
C454 C453 1.396 . S
H455 C450 0.929 . S
O456 Mn432 2.385 . S
O456 C434 1.234 . S
O457 Mn432 2.209 . S
O457 Mn433 2.215 . S
O457 C434 1.283 . S
O458 Mn432 2.094 . S
O458 C436 1.240 . S
O459 Mn433 2.117 . S
O459 C436 1.264 . S
C460 C453 1.403 . S
C460 C461 1.399 1_565 S
C460 H466 0.929 . S
C461 C441 1.449 . S
C461 C460 1.399 1_545 S
C461 H467 0.930 . S
H462 C442 0.931 . S
H463 C443 0.930 . S
H464 C451 0.931 . S
H465 C452 0.929 . S
H466 C460 0.929 . S
H467 C461 0.930 . S
Mn468 O473 2.095 . S
Mn468 O483 2.162 . S
Mn468 O484 2.297 . S
Mn468 O492 2.385 . S
Mn468 O493 2.209 . S
Mn468 O494 2.094 . S
Mn469 O474 2.121 . S
Mn469 N476 2.275 . S
Mn469 N485 2.282 . S
Mn469 O493 2.215 . S
Mn469 O495 2.117 . S
C470 O492 1.234 . S
C470 O493 1.283 . S
C471 O483 1.281 . S
C471 O484 1.236 . S
C472 O494 1.240 . S
C472 O495 1.264 . S
O473 Mn468 2.095 . S
O473 C482 1.250 . S
O474 Mn469 2.121 . S
O474 C482 1.258 . S
C475 N476 1.302 1_655 S
C475 C479 1.460 . S
C475 H481 0.929 . S
N476 Mn469 2.275 . S
N476 C475 1.302 1_455 S
N476 C480 1.369 . S
C477 C478 1.258 . S
C477 C480 1.431 1_655 S
C477 C497 1.449 . S
C478 C477 1.258 . S
C478 C479 1.477 . S
C478 H498 0.931 . S
C479 C475 1.460 . S
C479 C478 1.477 . S
C479 H499 0.930 . S
C480 N476 1.369 . S
C480 C477 1.431 1_455 S
C480 C490 1.476 . S
H481 C475 0.929 . S
C482 O473 1.250 . S
C482 O474 1.258 . S
O483 Mn468 2.162 . S
O483 C471 1.281 . S
O484 Mn468 2.297 . S
O484 C471 1.236 . S
N485 Mn469 2.282 . S
N485 C486 1.328 . S
N485 C490 1.318 . S
C486 N485 1.328 . S
C486 C487 1.457 . S
C486 H491 0.929 . S
C487 C486 1.457 . S
C487 C488 1.291 . S
C487 H500 0.931 . S
C488 C487 1.291 . S
C488 C489 1.373 . S
C488 H501 0.929 . S
C489 C488 1.373 . S
C489 C490 1.396 . S
C489 C496 1.403 . S
C490 C480 1.476 . S
C490 N485 1.318 . S
C490 C489 1.396 . S
H491 C486 0.929 . S
O492 Mn468 2.385 . S
O492 C470 1.234 . S
O493 Mn468 2.209 . S
O493 Mn469 2.215 . S
O493 C470 1.283 . S
O494 Mn468 2.094 . S
O494 C472 1.240 . S
O495 Mn469 2.117 . S
O495 C472 1.264 . S
C496 C489 1.403 . S
C496 C497 1.399 1_455 S
C496 H502 0.929 . S
C497 C477 1.449 . S
C497 C496 1.399 1_655 S
C497 H503 0.930 . S
H498 C478 0.931 . S
H499 C479 0.930 . S
H500 C487 0.931 . S
H501 C488 0.929 . S
H502 C496 0.929 . S
H503 C497 0.930 . S
Mn504 O509 2.095 . S
Mn504 O519 2.162 . S
Mn504 O520 2.297 . S
Mn504 O528 2.385 . S
Mn504 O529 2.209 . S
Mn504 O530 2.094 . S
Mn505 O510 2.121 . S
Mn505 N512 2.275 . S
Mn505 N521 2.282 . S
Mn505 O529 2.215 . S
Mn505 O531 2.117 . S
C506 O528 1.234 . S
C506 O529 1.283 . S
C507 O519 1.281 . S
C507 O520 1.236 . S
C508 O530 1.240 . S
C508 O531 1.264 . S
O509 Mn504 2.095 . S
O509 C518 1.250 . S
O510 Mn505 2.121 . S
O510 C518 1.258 . S
C511 N512 1.302 1_565 S
C511 C515 1.460 . S
C511 H517 0.929 . S
N512 Mn505 2.275 . S
N512 C511 1.302 1_545 S
N512 C516 1.369 . S
C513 C514 1.258 . S
C513 C516 1.431 1_565 S
C513 C533 1.449 . S
C514 C513 1.258 . S
C514 C515 1.477 . S
C514 H534 0.931 . S
C515 C511 1.460 . S
C515 C514 1.477 . S
C515 H535 0.930 . S
C516 N512 1.369 . S
C516 C513 1.431 1_545 S
C516 C526 1.476 . S
H517 C511 0.929 . S
C518 O509 1.250 . S
C518 O510 1.258 . S
O519 Mn504 2.162 . S
O519 C507 1.281 . S
O520 Mn504 2.297 . S
O520 C507 1.236 . S
N521 Mn505 2.282 . S
N521 C522 1.328 . S
N521 C526 1.318 . S
C522 N521 1.328 . S
C522 C523 1.457 . S
C522 H527 0.929 . S
C523 C522 1.457 . S
C523 C524 1.291 . S
C523 H536 0.931 . S
C524 C523 1.291 . S
C524 C525 1.373 . S
C524 H537 0.929 . S
C525 C524 1.373 . S
C525 C526 1.396 . S
C525 C532 1.403 . S
C526 C516 1.476 . S
C526 N521 1.318 . S
C526 C525 1.396 . S
H527 C522 0.929 . S
O528 Mn504 2.385 . S
O528 C506 1.234 . S
O529 Mn504 2.209 . S
O529 Mn505 2.215 . S
O529 C506 1.283 . S
O530 Mn504 2.094 . S
O530 C508 1.240 . S
O531 Mn505 2.117 . S
O531 C508 1.264 . S
C532 C525 1.403 . S
C532 C533 1.399 1_545 S
C532 H538 0.929 . S
C533 C513 1.449 . S
C533 C532 1.399 1_565 S
C533 H539 0.930 . S
H534 C514 0.931 . S
H535 C515 0.930 . S
H536 C523 0.931 . S
H537 C524 0.929 . S
H538 C532 0.929 . S
H539 C533 0.930 . S
Mn540 O545 2.095 . S
Mn540 O555 2.162 . S
Mn540 O556 2.297 . S
Mn540 O564 2.385 . S
Mn540 O565 2.209 . S
Mn540 O566 2.094 . S
Mn541 O546 2.121 . S
Mn541 N548 2.275 . S
Mn541 N557 2.282 . S
Mn541 O565 2.215 . S
Mn541 O567 2.117 . S
C542 O564 1.234 . S
C542 O565 1.283 . S
C543 O555 1.281 . S
C543 O556 1.236 . S
C544 O566 1.240 . S
C544 O567 1.264 . S
O545 Mn540 2.095 . S
O545 C554 1.250 . S
O546 Mn541 2.121 . S
O546 C554 1.258 . S
C547 N548 1.302 1_455 S
C547 C551 1.460 . S
C547 H553 0.929 . S
N548 Mn541 2.275 . S
N548 C547 1.302 1_655 S
N548 C552 1.369 . S
C549 C550 1.258 . S
C549 C552 1.431 1_455 S
C549 C569 1.449 . S
C550 C549 1.258 . S
C550 C551 1.477 . S
C550 H570 0.931 . S
C551 C547 1.460 . S
C551 C550 1.477 . S
C551 H571 0.930 . S
C552 N548 1.369 . S
C552 C549 1.431 1_655 S
C552 C562 1.476 . S
H553 C547 0.929 . S
C554 O545 1.250 . S
C554 O546 1.258 . S
O555 Mn540 2.162 . S
O555 C543 1.281 . S
O556 Mn540 2.297 . S
O556 C543 1.236 . S
N557 Mn541 2.282 . S
N557 C558 1.328 . S
N557 C562 1.318 . S
C558 N557 1.328 . S
C558 C559 1.457 . S
C558 H563 0.929 . S
C559 C558 1.457 . S
C559 C560 1.291 . S
C559 H572 0.931 . S
C560 C559 1.291 . S
C560 C561 1.373 . S
C560 H573 0.929 . S
C561 C560 1.373 . S
C561 C562 1.396 . S
C561 C568 1.403 . S
C562 C552 1.476 . S
C562 N557 1.318 . S
C562 C561 1.396 . S
H563 C558 0.929 . S
O564 Mn540 2.385 . S
O564 C542 1.234 . S
O565 Mn540 2.209 . S
O565 Mn541 2.215 . S
O565 C542 1.283 . S
O566 Mn540 2.094 . S
O566 C544 1.240 . S
O567 Mn541 2.117 . S
O567 C544 1.264 . S
C568 C561 1.403 . S
C568 C569 1.399 1_655 S
C568 H574 0.929 . S
C569 C549 1.449 . S
C569 C568 1.399 1_455 S
C569 H575 0.930 . S
H570 C550 0.931 . S
H571 C551 0.930 . S
H572 C559 0.931 . S
H573 C560 0.929 . S
H574 C568 0.929 . S
H575 C569 0.930 . S
Mn576 O581 2.095 . S
Mn576 O591 2.162 . S
Mn576 O592 2.297 . S
Mn576 O600 2.385 . S
Mn576 O601 2.209 . S
Mn576 O602 2.094 . S
Mn577 O582 2.121 . S
Mn577 N584 2.275 . S
Mn577 N593 2.282 . S
Mn577 O601 2.215 . S
Mn577 O603 2.117 . S
C578 O600 1.234 . S
C578 O601 1.283 . S
C579 O591 1.281 . S
C579 O592 1.236 . S
C580 O602 1.240 . S
C580 O603 1.264 . S
O581 Mn576 2.095 . S
O581 C590 1.250 . S
O582 Mn577 2.121 . S
O582 C590 1.258 . S
C583 N584 1.302 1_556 S
C583 C587 1.460 . S
C583 H589 0.929 . S
N584 Mn577 2.275 . S
N584 C583 1.302 1_554 S
N584 C588 1.369 . S
C585 C586 1.258 . S
C585 C588 1.431 1_556 S
C585 C605 1.449 . S
C586 C585 1.258 . S
C586 C587 1.477 . S
C586 H606 0.931 . S
C587 C583 1.460 . S
C587 C586 1.477 . S
C587 H607 0.930 . S
C588 N584 1.369 . S
C588 C585 1.431 1_554 S
C588 C598 1.476 . S
H589 C583 0.929 . S
C590 O581 1.250 . S
C590 O582 1.258 . S
O591 Mn576 2.162 . S
O591 C579 1.281 . S
O592 Mn576 2.297 . S
O592 C579 1.236 . S
N593 Mn577 2.282 . S
N593 C594 1.328 . S
N593 C598 1.318 . S
C594 N593 1.328 . S
C594 C595 1.457 . S
C594 H599 0.929 . S
C595 C594 1.457 . S
C595 C596 1.291 . S
C595 H608 0.931 . S
C596 C595 1.291 . S
C596 C597 1.373 . S
C596 H609 0.929 . S
C597 C596 1.373 . S
C597 C598 1.396 . S
C597 C604 1.403 . S
C598 C588 1.476 . S
C598 N593 1.318 . S
C598 C597 1.396 . S
H599 C594 0.929 . S
O600 Mn576 2.385 . S
O600 C578 1.234 . S
O601 Mn576 2.209 . S
O601 Mn577 2.215 . S
O601 C578 1.283 . S
O602 Mn576 2.094 . S
O602 C580 1.240 . S
O603 Mn577 2.117 . S
O603 C580 1.264 . S
C604 C597 1.403 . S
C604 C605 1.399 1_554 S
C604 H610 0.929 . S
C605 C585 1.449 . S
C605 C604 1.399 1_556 S
C605 H611 0.930 . S
H606 C586 0.931 . S
H607 C587 0.930 . S
H608 C595 0.931 . S
H609 C596 0.929 . S
H610 C604 0.929 . S
H611 C605 0.930 . S
Mn612 O617 2.095 . S
Mn612 O627 2.162 . S
Mn612 O628 2.297 . S
Mn612 O636 2.385 . S
Mn612 O637 2.209 . S
Mn612 O638 2.094 . S
Mn613 O618 2.121 . S
Mn613 N620 2.275 . S
Mn613 N629 2.282 . S
Mn613 O637 2.215 . S
Mn613 O639 2.117 . S
C614 O636 1.234 . S
C614 O637 1.283 . S
C615 O627 1.281 . S
C615 O628 1.236 . S
C616 O638 1.240 . S
C616 O639 1.264 . S
O617 Mn612 2.095 . S
O617 C626 1.250 . S
O618 Mn613 2.121 . S
O618 C626 1.258 . S
C619 N620 1.302 1_554 S
C619 C623 1.460 . S
C619 H625 0.929 . S
N620 Mn613 2.275 . S
N620 C619 1.302 1_556 S
N620 C624 1.369 . S
C621 C622 1.258 . S
C621 C624 1.431 1_554 S
C621 C641 1.449 . S
C622 C621 1.258 . S
C622 C623 1.477 . S
C622 H642 0.931 . S
C623 C619 1.460 . S
C623 C622 1.477 . S
C623 H643 0.930 . S
C624 N620 1.369 . S
C624 C621 1.431 1_556 S
C624 C634 1.476 . S
H625 C619 0.929 . S
C626 O617 1.250 . S
C626 O618 1.258 . S
O627 Mn612 2.162 . S
O627 C615 1.281 . S
O628 Mn612 2.297 . S
O628 C615 1.236 . S
N629 Mn613 2.282 . S
N629 C630 1.328 . S
N629 C634 1.318 . S
C630 N629 1.328 . S
C630 C631 1.457 . S
C630 H635 0.929 . S
C631 C630 1.457 . S
C631 C632 1.291 . S
C631 H644 0.931 . S
C632 C631 1.291 . S
C632 C633 1.373 . S
C632 H645 0.929 . S
C633 C632 1.373 . S
C633 C634 1.396 . S
C633 C640 1.403 . S
C634 C624 1.476 . S
C634 N629 1.318 . S
C634 C633 1.396 . S
H635 C630 0.929 . S
O636 Mn612 2.385 . S
O636 C614 1.234 . S
O637 Mn612 2.209 . S
O637 Mn613 2.215 . S
O637 C614 1.283 . S
O638 Mn612 2.094 . S
O638 C616 1.240 . S
O639 Mn613 2.117 . S
O639 C616 1.264 . S
C640 C633 1.403 . S
C640 C641 1.399 1_556 S
C640 H646 0.929 . S
C641 C621 1.449 . S
C641 C640 1.399 1_554 S
C641 H647 0.930 . S
H642 C622 0.931 . S
H643 C623 0.930 . S
H644 C631 0.931 . S
H645 C632 0.929 . S
H646 C640 0.929 . S
H647 C641 0.930 . S
Mn648 O653 2.095 . S
Mn648 O663 2.162 . S
Mn648 O664 2.297 . S
Mn648 O672 2.385 . S
Mn648 O673 2.209 . S
Mn648 O674 2.094 . S
Mn649 O654 2.121 . S
Mn649 N656 2.275 . S
Mn649 N665 2.282 . S
Mn649 O673 2.215 . S
Mn649 O675 2.117 . S
C650 O672 1.234 . S
C650 O673 1.283 . S
C651 O663 1.281 . S
C651 O664 1.236 . S
C652 O674 1.240 . S
C652 O675 1.264 . S
O653 Mn648 2.095 . S
O653 C662 1.250 . S
O654 Mn649 2.121 . S
O654 C662 1.258 . S
C655 N656 1.302 1_554 S
C655 C659 1.460 . S
C655 H661 0.929 . S
N656 Mn649 2.275 . S
N656 C655 1.302 1_556 S
N656 C660 1.369 . S
C657 C658 1.258 . S
C657 C660 1.431 1_554 S
C657 C677 1.449 . S
C658 C657 1.258 . S
C658 C659 1.477 . S
C658 H678 0.931 . S
C659 C655 1.460 . S
C659 C658 1.477 . S
C659 H679 0.930 . S
C660 N656 1.369 . S
C660 C657 1.431 1_556 S
C660 C670 1.476 . S
H661 C655 0.929 . S
C662 O653 1.250 . S
C662 O654 1.258 . S
O663 Mn648 2.162 . S
O663 C651 1.281 . S
O664 Mn648 2.297 . S
O664 C651 1.236 . S
N665 Mn649 2.282 . S
N665 C666 1.328 . S
N665 C670 1.318 . S
C666 N665 1.328 . S
C666 C667 1.457 . S
C666 H671 0.929 . S
C667 C666 1.457 . S
C667 C668 1.291 . S
C667 H680 0.931 . S
C668 C667 1.291 . S
C668 C669 1.373 . S
C668 H681 0.929 . S
C669 C668 1.373 . S
C669 C670 1.396 . S
C669 C676 1.403 . S
C670 C660 1.476 . S
C670 N665 1.318 . S
C670 C669 1.396 . S
H671 C666 0.929 . S
O672 Mn648 2.385 . S
O672 C650 1.234 . S
O673 Mn648 2.209 . S
O673 Mn649 2.215 . S
O673 C650 1.283 . S
O674 Mn648 2.094 . S
O674 C652 1.240 . S
O675 Mn649 2.117 . S
O675 C652 1.264 . S
C676 C669 1.403 . S
C676 C677 1.399 1_556 S
C676 H682 0.929 . S
C677 C657 1.449 . S
C677 C676 1.399 1_554 S
C677 H683 0.930 . S
H678 C658 0.931 . S
H679 C659 0.930 . S
H680 C667 0.931 . S
H681 C668 0.929 . S
H682 C676 0.929 . S
H683 C677 0.930 . S
Mn684 O689 2.095 . S
Mn684 O699 2.162 . S
Mn684 O700 2.297 . S
Mn684 O708 2.385 . S
Mn684 O709 2.209 . S
Mn684 O710 2.094 . S
Mn685 O690 2.121 . S
Mn685 N692 2.275 . S
Mn685 N701 2.282 . S
Mn685 O709 2.215 . S
Mn685 O711 2.117 . S
C686 O708 1.234 . S
C686 O709 1.283 . S
C687 O699 1.281 . S
C687 O700 1.236 . S
C688 O710 1.240 . S
C688 O711 1.264 . S
O689 Mn684 2.095 . S
O689 C698 1.250 . S
O690 Mn685 2.121 . S
O690 C698 1.258 . S
C691 N692 1.302 1_554 S
C691 C695 1.460 . S
C691 H697 0.929 . S
N692 Mn685 2.275 . S
N692 C691 1.302 1_556 S
N692 C696 1.369 . S
C693 C694 1.258 . S
C693 C696 1.431 1_554 S
C693 C713 1.449 . S
C694 C693 1.258 . S
C694 C695 1.477 . S
C694 H714 0.931 . S
C695 C691 1.460 . S
C695 C694 1.477 . S
C695 H715 0.930 . S
C696 N692 1.369 . S
C696 C693 1.431 1_556 S
C696 C706 1.476 . S
H697 C691 0.929 . S
C698 O689 1.250 . S
C698 O690 1.258 . S
O699 Mn684 2.162 . S
O699 C687 1.281 . S
O700 Mn684 2.297 . S
O700 C687 1.236 . S
N701 Mn685 2.282 . S
N701 C702 1.328 . S
N701 C706 1.318 . S
C702 N701 1.328 . S
C702 C703 1.457 . S
C702 H707 0.929 . S
C703 C702 1.457 . S
C703 C704 1.291 . S
C703 H716 0.931 . S
C704 C703 1.291 . S
C704 C705 1.373 . S
C704 H717 0.929 . S
C705 C704 1.373 . S
C705 C706 1.396 . S
C705 C712 1.403 . S
C706 C696 1.476 . S
C706 N701 1.318 . S
C706 C705 1.396 . S
H707 C702 0.929 . S
O708 Mn684 2.385 . S
O708 C686 1.234 . S
O709 Mn684 2.209 . S
O709 Mn685 2.215 . S
O709 C686 1.283 . S
O710 Mn684 2.094 . S
O710 C688 1.240 . S
O711 Mn685 2.117 . S
O711 C688 1.264 . S
C712 C705 1.403 . S
C712 C713 1.399 1_556 S
C712 H718 0.929 . S
C713 C693 1.449 . S
C713 C712 1.399 1_554 S
C713 H719 0.930 . S
H714 C694 0.931 . S
H715 C695 0.930 . S
H716 C703 0.931 . S
H717 C704 0.929 . S
H718 C712 0.929 . S
H719 C713 0.930 . S
Mn720 O725 2.095 . S
Mn720 O735 2.162 . S
Mn720 O736 2.297 . S
Mn720 O744 2.385 . S
Mn720 O745 2.209 . S
Mn720 O746 2.094 . S
Mn721 O726 2.121 . S
Mn721 N728 2.275 . S
Mn721 N737 2.282 . S
Mn721 O745 2.215 . S
Mn721 O747 2.117 . S
C722 O744 1.234 . S
C722 O745 1.283 . S
C723 O735 1.281 . S
C723 O736 1.236 . S
C724 O746 1.240 . S
C724 O747 1.264 . S
O725 Mn720 2.095 . S
O725 C734 1.250 . S
O726 Mn721 2.121 . S
O726 C734 1.258 . S
C727 N728 1.302 1_554 S
C727 C731 1.460 . S
C727 H733 0.929 . S
N728 Mn721 2.275 . S
N728 C727 1.302 1_556 S
N728 C732 1.369 . S
C729 C730 1.258 . S
C729 C732 1.431 1_554 S
C729 C749 1.449 . S
C730 C729 1.258 . S
C730 C731 1.477 . S
C730 H750 0.931 . S
C731 C727 1.460 . S
C731 C730 1.477 . S
C731 H751 0.930 . S
C732 N728 1.369 . S
C732 C729 1.431 1_556 S
C732 C742 1.476 . S
H733 C727 0.929 . S
C734 O725 1.250 . S
C734 O726 1.258 . S
O735 Mn720 2.162 . S
O735 C723 1.281 . S
O736 Mn720 2.297 . S
O736 C723 1.236 . S
N737 Mn721 2.282 . S
N737 C738 1.328 . S
N737 C742 1.318 . S
C738 N737 1.328 . S
C738 C739 1.457 . S
C738 H743 0.929 . S
C739 C738 1.457 . S
C739 C740 1.291 . S
C739 H752 0.931 . S
C740 C739 1.291 . S
C740 C741 1.373 . S
C740 H753 0.929 . S
C741 C740 1.373 . S
C741 C742 1.396 . S
C741 C748 1.403 . S
C742 C732 1.476 . S
C742 N737 1.318 . S
C742 C741 1.396 . S
H743 C738 0.929 . S
O744 Mn720 2.385 . S
O744 C722 1.234 . S
O745 Mn720 2.209 . S
O745 Mn721 2.215 . S
O745 C722 1.283 . S
O746 Mn720 2.094 . S
O746 C724 1.240 . S
O747 Mn721 2.117 . S
O747 C724 1.264 . S
C748 C741 1.403 . S
C748 C749 1.399 1_556 S
C748 H754 0.929 . S
C749 C729 1.449 . S
C749 C748 1.399 1_554 S
C749 H755 0.930 . S
H750 C730 0.931 . S
H751 C731 0.930 . S
H752 C739 0.931 . S
H753 C740 0.929 . S
H754 C748 0.929 . S
H755 C749 0.930 . S
Mn756 O761 2.095 . S
Mn756 O771 2.162 . S
Mn756 O772 2.297 . S
Mn756 O780 2.385 . S
Mn756 O781 2.209 . S
Mn756 O782 2.094 . S
Mn757 O762 2.121 . S
Mn757 N764 2.275 . S
Mn757 N773 2.282 . S
Mn757 O781 2.215 . S
Mn757 O783 2.117 . S
C758 O780 1.234 . S
C758 O781 1.283 . S
C759 O771 1.281 . S
C759 O772 1.236 . S
C760 O782 1.240 . S
C760 O783 1.264 . S
O761 Mn756 2.095 . S
O761 C770 1.250 . S
O762 Mn757 2.121 . S
O762 C770 1.258 . S
C763 N764 1.302 1_556 S
C763 C767 1.460 . S
C763 H769 0.929 . S
N764 Mn757 2.275 . S
N764 C763 1.302 1_554 S
N764 C768 1.369 . S
C765 C766 1.258 . S
C765 C768 1.431 1_556 S
C765 C785 1.449 . S
C766 C765 1.258 . S
C766 C767 1.477 . S
C766 H786 0.931 . S
C767 C763 1.460 . S
C767 C766 1.477 . S
C767 H787 0.930 . S
C768 N764 1.369 . S
C768 C765 1.431 1_554 S
C768 C778 1.476 . S
H769 C763 0.929 . S
C770 O761 1.250 . S
C770 O762 1.258 . S
O771 Mn756 2.162 . S
O771 C759 1.281 . S
O772 Mn756 2.297 . S
O772 C759 1.236 . S
N773 Mn757 2.282 . S
N773 C774 1.328 . S
N773 C778 1.318 . S
C774 N773 1.328 . S
C774 C775 1.457 . S
C774 H779 0.929 . S
C775 C774 1.457 . S
C775 C776 1.291 . S
C775 H788 0.931 . S
C776 C775 1.291 . S
C776 C777 1.373 . S
C776 H789 0.929 . S
C777 C776 1.373 . S
C777 C778 1.396 . S
C777 C784 1.403 . S
C778 C768 1.476 . S
C778 N773 1.318 . S
C778 C777 1.396 . S
H779 C774 0.929 . S
O780 Mn756 2.385 . S
O780 C758 1.234 . S
O781 Mn756 2.209 . S
O781 Mn757 2.215 . S
O781 C758 1.283 . S
O782 Mn756 2.094 . S
O782 C760 1.240 . S
O783 Mn757 2.117 . S
O783 C760 1.264 . S
C784 C777 1.403 . S
C784 C785 1.399 1_554 S
C784 H790 0.929 . S
C785 C765 1.449 . S
C785 C784 1.399 1_556 S
C785 H791 0.930 . S
H786 C766 0.931 . S
H787 C767 0.930 . S
H788 C775 0.931 . S
H789 C776 0.929 . S
H790 C784 0.929 . S
H791 C785 0.930 . S
Mn792 O797 2.095 . S
Mn792 O807 2.162 . S
Mn792 O808 2.297 . S
Mn792 O816 2.385 . S
Mn792 O817 2.209 . S
Mn792 O818 2.094 . S
Mn793 O798 2.121 . S
Mn793 N800 2.275 . S
Mn793 N809 2.282 . S
Mn793 O817 2.215 . S
Mn793 O819 2.117 . S
C794 O816 1.234 . S
C794 O817 1.283 . S
C795 O807 1.281 . S
C795 O808 1.236 . S
C796 O818 1.240 . S
C796 O819 1.264 . S
O797 Mn792 2.095 . S
O797 C806 1.250 . S
O798 Mn793 2.121 . S
O798 C806 1.258 . S
C799 N800 1.302 1_556 S
C799 C803 1.460 . S
C799 H805 0.929 . S
N800 Mn793 2.275 . S
N800 C799 1.302 1_554 S
N800 C804 1.369 . S
C801 C802 1.258 . S
C801 C804 1.431 1_556 S
C801 C821 1.449 . S
C802 C801 1.258 . S
C802 C803 1.477 . S
C802 H822 0.931 . S
C803 C799 1.460 . S
C803 C802 1.477 . S
C803 H823 0.930 . S
C804 N800 1.369 . S
C804 C801 1.431 1_554 S
C804 C814 1.476 . S
H805 C799 0.929 . S
C806 O797 1.250 . S
C806 O798 1.258 . S
O807 Mn792 2.162 . S
O807 C795 1.281 . S
O808 Mn792 2.297 . S
O808 C795 1.236 . S
N809 Mn793 2.282 . S
N809 C810 1.328 . S
N809 C814 1.318 . S
C810 N809 1.328 . S
C810 C811 1.457 . S
C810 H815 0.929 . S
C811 C810 1.457 . S
C811 C812 1.291 . S
C811 H824 0.931 . S
C812 C811 1.291 . S
C812 C813 1.373 . S
C812 H825 0.929 . S
C813 C812 1.373 . S
C813 C814 1.396 . S
C813 C820 1.403 . S
C814 C804 1.476 . S
C814 N809 1.318 . S
C814 C813 1.396 . S
H815 C810 0.929 . S
O816 Mn792 2.385 . S
O816 C794 1.234 . S
O817 Mn792 2.209 . S
O817 Mn793 2.215 . S
O817 C794 1.283 . S
O818 Mn792 2.094 . S
O818 C796 1.240 . S
O819 Mn793 2.117 . S
O819 C796 1.264 . S
C820 C813 1.403 . S
C820 C821 1.399 1_554 S
C820 H826 0.929 . S
C821 C801 1.449 . S
C821 C820 1.399 1_556 S
C821 H827 0.930 . S
H822 C802 0.931 . S
H823 C803 0.930 . S
H824 C811 0.931 . S
H825 C812 0.929 . S
H826 C820 0.929 . S
H827 C821 0.930 . S
Mn828 O833 2.095 . S
Mn828 O843 2.162 . S
Mn828 O844 2.297 . S
Mn828 O852 2.385 . S
Mn828 O853 2.209 . S
Mn828 O854 2.094 . S
Mn829 O834 2.121 . S
Mn829 N836 2.275 . S
Mn829 N845 2.282 . S
Mn829 O853 2.215 . S
Mn829 O855 2.117 . S
C830 O852 1.234 . S
C830 O853 1.283 . S
C831 O843 1.281 . S
C831 O844 1.236 . S
C832 O854 1.240 . S
C832 O855 1.264 . S
O833 Mn828 2.095 . S
O833 C842 1.250 . S
O834 Mn829 2.121 . S
O834 C842 1.258 . S
C835 N836 1.302 1_556 S
C835 C839 1.460 . S
C835 H841 0.929 . S
N836 Mn829 2.275 . S
N836 C835 1.302 1_554 S
N836 C840 1.369 . S
C837 C838 1.258 . S
C837 C840 1.431 1_556 S
C837 C857 1.449 . S
C838 C837 1.258 . S
C838 C839 1.477 . S
C838 H858 0.931 . S
C839 C835 1.460 . S
C839 C838 1.477 . S
C839 H859 0.930 . S
C840 N836 1.369 . S
C840 C837 1.431 1_554 S
C840 C850 1.476 . S
H841 C835 0.929 . S
C842 O833 1.250 . S
C842 O834 1.258 . S
O843 Mn828 2.162 . S
O843 C831 1.281 . S
O844 Mn828 2.297 . S
O844 C831 1.236 . S
N845 Mn829 2.282 . S
N845 C846 1.328 . S
N845 C850 1.318 . S
C846 N845 1.328 . S
C846 C847 1.457 . S
C846 H851 0.929 . S
C847 C846 1.457 . S
C847 C848 1.291 . S
C847 H860 0.931 . S
C848 C847 1.291 . S
C848 C849 1.373 . S
C848 H861 0.929 . S
C849 C848 1.373 . S
C849 C850 1.396 . S
C849 C856 1.403 . S
C850 C840 1.476 . S
C850 N845 1.318 . S
C850 C849 1.396 . S
H851 C846 0.929 . S
O852 Mn828 2.385 . S
O852 C830 1.234 . S
O853 Mn828 2.209 . S
O853 Mn829 2.215 . S
O853 C830 1.283 . S
O854 Mn828 2.094 . S
O854 C832 1.240 . S
O855 Mn829 2.117 . S
O855 C832 1.264 . S
C856 C849 1.403 . S
C856 C857 1.399 1_554 S
C856 H862 0.929 . S
C857 C837 1.449 . S
C857 C856 1.399 1_556 S
C857 H863 0.930 . S
H858 C838 0.931 . S
H859 C839 0.930 . S
H860 C847 0.931 . S
H861 C848 0.929 . S
H862 C856 0.929 . S
H863 C857 0.930 . S
Mn864 O869 2.095 . S
Mn864 O879 2.162 . S
Mn864 O880 2.297 . S
Mn864 O888 2.385 . S
Mn864 O889 2.209 . S
Mn864 O890 2.094 . S
Mn865 O870 2.121 . S
Mn865 N872 2.257 . S
Mn865 N881 2.282 . S
Mn865 O889 2.215 . S
Mn865 O891 2.117 . S
C866 O888 1.234 . S
C866 O889 1.283 . S
C867 O879 1.281 . S
C867 O880 1.236 . S
C868 O890 1.240 . S
C868 O891 1.264 . S
O869 Mn864 2.095 . S
O869 C878 1.250 . S
O870 Mn865 2.121 . S
O870 C878 1.258 . S
C871 N872 1.326 . S
C871 C875 1.460 . S
C871 H877 0.929 . S
N872 Mn865 2.257 . S
N872 C871 1.326 . S
N872 C876 1.362 . S
C873 C874 1.258 . S
C873 C876 1.431 . S
C873 C893 1.449 . S
C874 C873 1.258 . S
C874 C875 1.477 . S
C874 H894 0.931 . S
C875 C871 1.460 . S
C875 C874 1.477 . S
C875 H895 0.930 . S
C876 N872 1.362 . S
C876 C873 1.431 . S
C876 C886 1.476 . S
H877 C871 0.929 . S
C878 O869 1.250 . S
C878 O870 1.258 . S
O879 Mn864 2.162 . S
O879 C867 1.281 . S
O880 Mn864 2.297 . S
O880 C867 1.236 . S
N881 Mn865 2.282 . S
N881 C882 1.328 1_655 S
N881 C886 1.318 . S
C882 N881 1.328 1_455 S
C882 C883 1.457 . S
C882 H887 0.929 . S
C883 C882 1.457 . S
C883 C884 1.291 . S
C883 H896 0.931 . S
C884 C883 1.291 . S
C884 C885 1.373 1_455 S
C884 H897 0.929 . S
C885 C884 1.373 1_655 S
C885 C886 1.396 . S
C885 C892 1.403 . S
C886 C876 1.476 . S
C886 N881 1.318 . S
C886 C885 1.396 . S
H887 C882 0.929 . S
O888 Mn864 2.385 . S
O888 C866 1.234 . S
O889 Mn864 2.209 . S
O889 Mn865 2.215 . S
O889 C866 1.283 . S
O890 Mn864 2.094 . S
O890 C868 1.240 . S
O891 Mn865 2.117 . S
O891 C868 1.264 . S
C892 C885 1.403 . S
C892 C893 1.399 . S
C892 H898 0.929 . S
C893 C873 1.449 . S
C893 C892 1.399 . S
C893 H899 0.930 . S
H894 C874 0.931 . S
H895 C875 0.930 . S
H896 C883 0.931 . S
H897 C884 0.929 . S
H898 C892 0.929 . S
H899 C893 0.930 . S
Mn900 O905 2.095 . S
Mn900 O915 2.162 . S
Mn900 O916 2.297 . S
Mn900 O924 2.385 . S
Mn900 O925 2.209 . S
Mn900 O926 2.094 . S
Mn901 O906 2.121 . S
Mn901 N908 2.257 . S
Mn901 N917 2.282 . S
Mn901 O925 2.215 . S
Mn901 O927 2.117 . S
C902 O924 1.234 . S
C902 O925 1.283 . S
C903 O915 1.281 . S
C903 O916 1.236 . S
C904 O926 1.240 . S
C904 O927 1.264 . S
O905 Mn900 2.095 . S
O905 C914 1.250 . S
O906 Mn901 2.121 . S
O906 C914 1.258 . S
C907 N908 1.326 . S
C907 C911 1.460 . S
C907 H913 0.929 . S
N908 Mn901 2.257 . S
N908 C907 1.326 . S
N908 C912 1.362 . S
C909 C910 1.258 . S
C909 C912 1.431 . S
C909 C929 1.449 . S
C910 C909 1.258 . S
C910 C911 1.477 . S
C910 H930 0.931 . S
C911 C907 1.460 . S
C911 C910 1.477 . S
C911 H931 0.930 . S
C912 N908 1.362 . S
C912 C909 1.431 . S
C912 C922 1.476 . S
H913 C907 0.929 . S
C914 O905 1.250 . S
C914 O906 1.258 . S
O915 Mn900 2.162 . S
O915 C903 1.281 . S
O916 Mn900 2.297 . S
O916 C903 1.236 . S
N917 Mn901 2.282 . S
N917 C918 1.328 1_565 S
N917 C922 1.318 . S
C918 N917 1.328 1_545 S
C918 C919 1.457 . S
C918 H923 0.929 . S
C919 C918 1.457 . S
C919 C920 1.291 . S
C919 H932 0.931 . S
C920 C919 1.291 . S
C920 C921 1.373 1_545 S
C920 H933 0.929 . S
C921 C920 1.373 1_565 S
C921 C922 1.396 . S
C921 C928 1.403 . S
C922 C912 1.476 . S
C922 N917 1.318 . S
C922 C921 1.396 . S
H923 C918 0.929 . S
O924 Mn900 2.385 . S
O924 C902 1.234 . S
O925 Mn900 2.209 . S
O925 Mn901 2.215 . S
O925 C902 1.283 . S
O926 Mn900 2.094 . S
O926 C904 1.240 . S
O927 Mn901 2.117 . S
O927 C904 1.264 . S
C928 C921 1.403 . S
C928 C929 1.399 . S
C928 H934 0.929 . S
C929 C909 1.449 . S
C929 C928 1.399 . S
C929 H935 0.930 . S
H930 C910 0.931 . S
H931 C911 0.930 . S
H932 C919 0.931 . S
H933 C920 0.929 . S
H934 C928 0.929 . S
H935 C929 0.930 . S
Mn936 O941 2.095 . S
Mn936 O951 2.162 . S
Mn936 O952 2.297 . S
Mn936 O960 2.385 . S
Mn936 O961 2.209 . S
Mn936 O962 2.094 . S
Mn937 O942 2.121 . S
Mn937 N944 2.257 . S
Mn937 N953 2.282 . S
Mn937 O961 2.215 . S
Mn937 O963 2.117 . S
C938 O960 1.234 . S
C938 O961 1.283 . S
C939 O951 1.281 . S
C939 O952 1.236 . S
C940 O962 1.240 . S
C940 O963 1.264 . S
O941 Mn936 2.095 . S
O941 C950 1.250 . S
O942 Mn937 2.121 . S
O942 C950 1.258 . S
C943 N944 1.326 . S
C943 C947 1.460 . S
C943 H949 0.929 . S
N944 Mn937 2.257 . S
N944 C943 1.326 . S
N944 C948 1.362 . S
C945 C946 1.258 . S
C945 C948 1.431 . S
C945 C965 1.449 . S
C946 C945 1.258 . S
C946 C947 1.477 . S
C946 H966 0.931 . S
C947 C943 1.460 . S
C947 C946 1.477 . S
C947 H967 0.930 . S
C948 N944 1.362 . S
C948 C945 1.431 . S
C948 C958 1.476 . S
H949 C943 0.929 . S
C950 O941 1.250 . S
C950 O942 1.258 . S
O951 Mn936 2.162 . S
O951 C939 1.281 . S
O952 Mn936 2.297 . S
O952 C939 1.236 . S
N953 Mn937 2.282 . S
N953 C954 1.328 1_455 S
N953 C958 1.318 . S
C954 N953 1.328 1_655 S
C954 C955 1.457 . S
C954 H959 0.929 . S
C955 C954 1.457 . S
C955 C956 1.291 . S
C955 H968 0.931 . S
C956 C955 1.291 . S
C956 C957 1.373 1_655 S
C956 H969 0.929 . S
C957 C956 1.373 1_455 S
C957 C958 1.396 . S
C957 C964 1.403 . S
C958 C948 1.476 . S
C958 N953 1.318 . S
C958 C957 1.396 . S
H959 C954 0.929 . S
O960 Mn936 2.385 . S
O960 C938 1.234 . S
O961 Mn936 2.209 . S
O961 Mn937 2.215 . S
O961 C938 1.283 . S
O962 Mn936 2.094 . S
O962 C940 1.240 . S
O963 Mn937 2.117 . S
O963 C940 1.264 . S
C964 C957 1.403 . S
C964 C965 1.399 . S
C964 H970 0.929 . S
C965 C945 1.449 . S
C965 C964 1.399 . S
C965 H971 0.930 . S
H966 C946 0.931 . S
H967 C947 0.930 . S
H968 C955 0.931 . S
H969 C956 0.929 . S
H970 C964 0.929 . S
H971 C965 0.930 . S
Mn972 O977 2.095 . S
Mn972 O987 2.162 . S
Mn972 O988 2.297 . S
Mn972 O996 2.385 . S
Mn972 O997 2.209 . S
Mn972 O998 2.094 . S
Mn973 O978 2.121 . S
Mn973 N980 2.257 . S
Mn973 N989 2.282 . S
Mn973 O997 2.215 . S
Mn973 O999 2.117 . S
C974 O996 1.234 . S
C974 O997 1.283 . S
C975 O987 1.281 . S
C975 O988 1.236 . S
C976 O998 1.240 . S
C976 O999 1.264 . S
O977 Mn972 2.095 . S
O977 C986 1.250 . S
O978 Mn973 2.121 . S
O978 C986 1.258 . S
C979 N980 1.326 . S
C979 C983 1.460 . S
C979 H985 0.929 . S
N980 Mn973 2.257 . S
N980 C979 1.326 . S
N980 C984 1.362 . S
C981 C982 1.258 . S
C981 C984 1.431 . S
C981 C1001 1.449 . S
C982 C981 1.258 . S
C982 C983 1.477 . S
C982 H1002 0.931 . S
C983 C979 1.460 . S
C983 C982 1.477 . S
C983 H1003 0.930 . S
C984 N980 1.362 . S
C984 C981 1.431 . S
C984 C994 1.476 . S
H985 C979 0.929 . S
C986 O977 1.250 . S
C986 O978 1.258 . S
O987 Mn972 2.162 . S
O987 C975 1.281 . S
O988 Mn972 2.297 . S
O988 C975 1.236 . S
N989 Mn973 2.282 . S
N989 C990 1.328 1_545 S
N989 C994 1.318 . S
C990 N989 1.328 1_565 S
C990 C991 1.457 . S
C990 H995 0.929 . S
C991 C990 1.457 . S
C991 C992 1.291 . S
C991 H1004 0.931 . S
C992 C991 1.291 . S
C992 C993 1.373 1_565 S
C992 H1005 0.929 . S
C993 C992 1.373 1_545 S
C993 C994 1.396 . S
C993 C1000 1.403 . S
C994 C984 1.476 . S
C994 N989 1.318 . S
C994 C993 1.396 . S
H995 C990 0.929 . S
O996 Mn972 2.385 . S
O996 C974 1.234 . S
O997 Mn972 2.209 . S
O997 Mn973 2.215 . S
O997 C974 1.283 . S
O998 Mn972 2.094 . S
O998 C976 1.240 . S
O999 Mn973 2.117 . S
O999 C976 1.264 . S
C1000 C993 1.403 . S
C1000 C1001 1.399 . S
C1000 H1006 0.929 . S
C1001 C981 1.449 . S
C1001 C1000 1.399 . S
C1001 H1007 0.930 . S
H1002 C982 0.931 . S
H1003 C983 0.930 . S
H1004 C991 0.931 . S
H1005 C992 0.929 . S
H1006 C1000 0.929 . S
H1007 C1001 0.930 . S
Mn1008 O1013 2.095 . S
Mn1008 O1023 2.162 . S
Mn1008 O1024 2.297 . S
Mn1008 O1032 2.385 . S
Mn1008 O1033 2.209 . S
Mn1008 O1034 2.094 . S
Mn1009 O1014 2.121 . S
Mn1009 N1016 2.257 . S
Mn1009 N1025 2.282 . S
Mn1009 O1033 2.215 . S
Mn1009 O1035 2.117 . S
C1010 O1032 1.234 . S
C1010 O1033 1.283 . S
C1011 O1023 1.281 . S
C1011 O1024 1.236 . S
C1012 O1034 1.240 . S
C1012 O1035 1.264 . S
O1013 Mn1008 2.095 . S
O1013 C1022 1.250 . S
O1014 Mn1009 2.121 . S
O1014 C1022 1.258 . S
C1015 N1016 1.326 . S
C1015 C1019 1.460 . S
C1015 H1021 0.929 . S
N1016 Mn1009 2.257 . S
N1016 C1015 1.326 . S
N1016 C1020 1.362 . S
C1017 C1018 1.258 . S
C1017 C1020 1.431 . S
C1017 C1037 1.449 . S
C1018 C1017 1.258 . S
C1018 C1019 1.477 . S
C1018 H1038 0.931 . S
C1019 C1015 1.460 . S
C1019 C1018 1.477 . S
C1019 H1039 0.930 . S
C1020 N1016 1.362 . S
C1020 C1017 1.431 . S
C1020 C1030 1.476 . S
H1021 C1015 0.929 . S
C1022 O1013 1.250 . S
C1022 O1014 1.258 . S
O1023 Mn1008 2.162 . S
O1023 C1011 1.281 . S
O1024 Mn1008 2.297 . S
O1024 C1011 1.236 . S
N1025 Mn1009 2.282 . S
N1025 C1026 1.328 1_655 S
N1025 C1030 1.318 . S
C1026 N1025 1.328 1_455 S
C1026 C1027 1.457 . S
C1026 H1031 0.929 . S
C1027 C1026 1.457 . S
C1027 C1028 1.291 . S
C1027 H1040 0.931 . S
C1028 C1027 1.291 . S
C1028 C1029 1.373 1_455 S
C1028 H1041 0.929 . S
C1029 C1028 1.373 1_655 S
C1029 C1030 1.396 . S
C1029 C1036 1.403 . S
C1030 C1020 1.476 . S
C1030 N1025 1.318 . S
C1030 C1029 1.396 . S
H1031 C1026 0.929 . S
O1032 Mn1008 2.385 . S
O1032 C1010 1.234 . S
O1033 Mn1008 2.209 . S
O1033 Mn1009 2.215 . S
O1033 C1010 1.283 . S
O1034 Mn1008 2.094 . S
O1034 C1012 1.240 . S
O1035 Mn1009 2.117 . S
O1035 C1012 1.264 . S
C1036 C1029 1.403 . S
C1036 C1037 1.399 . S
C1036 H1042 0.929 . S
C1037 C1017 1.449 . S
C1037 C1036 1.399 . S
C1037 H1043 0.930 . S
H1038 C1018 0.931 . S
H1039 C1019 0.930 . S
H1040 C1027 0.931 . S
H1041 C1028 0.929 . S
H1042 C1036 0.929 . S
H1043 C1037 0.930 . S
Mn1044 O1049 2.095 . S
Mn1044 O1059 2.162 . S
Mn1044 O1060 2.297 . S
Mn1044 O1068 2.385 . S
Mn1044 O1069 2.209 . S
Mn1044 O1070 2.094 . S
Mn1045 O1050 2.121 . S
Mn1045 N1052 2.257 . S
Mn1045 N1061 2.282 . S
Mn1045 O1069 2.215 . S
Mn1045 O1071 2.117 . S
C1046 O1068 1.234 . S
C1046 O1069 1.283 . S
C1047 O1059 1.281 . S
C1047 O1060 1.236 . S
C1048 O1070 1.240 . S
C1048 O1071 1.264 . S
O1049 Mn1044 2.095 . S
O1049 C1058 1.250 . S
O1050 Mn1045 2.121 . S
O1050 C1058 1.258 . S
C1051 N1052 1.326 . S
C1051 C1055 1.460 . S
C1051 H1057 0.929 . S
N1052 Mn1045 2.257 . S
N1052 C1051 1.326 . S
N1052 C1056 1.362 . S
C1053 C1054 1.258 . S
C1053 C1056 1.431 . S
C1053 C1073 1.449 . S
C1054 C1053 1.258 . S
C1054 C1055 1.477 . S
C1054 H1074 0.931 . S
C1055 C1051 1.460 . S
C1055 C1054 1.477 . S
C1055 H1075 0.930 . S
C1056 N1052 1.362 . S
C1056 C1053 1.431 . S
C1056 C1066 1.476 . S
H1057 C1051 0.929 . S
C1058 O1049 1.250 . S
C1058 O1050 1.258 . S
O1059 Mn1044 2.162 . S
O1059 C1047 1.281 . S
O1060 Mn1044 2.297 . S
O1060 C1047 1.236 . S
N1061 Mn1045 2.282 . S
N1061 C1062 1.328 1_565 S
N1061 C1066 1.318 . S
C1062 N1061 1.328 1_545 S
C1062 C1063 1.457 . S
C1062 H1067 0.929 . S
C1063 C1062 1.457 . S
C1063 C1064 1.291 . S
C1063 H1076 0.931 . S
C1064 C1063 1.291 . S
C1064 C1065 1.373 1_545 S
C1064 H1077 0.929 . S
C1065 C1064 1.373 1_565 S
C1065 C1066 1.396 . S
C1065 C1072 1.403 . S
C1066 C1056 1.476 . S
C1066 N1061 1.318 . S
C1066 C1065 1.396 . S
H1067 C1062 0.929 . S
O1068 Mn1044 2.385 . S
O1068 C1046 1.234 . S
O1069 Mn1044 2.209 . S
O1069 Mn1045 2.215 . S
O1069 C1046 1.283 . S
O1070 Mn1044 2.094 . S
O1070 C1048 1.240 . S
O1071 Mn1045 2.117 . S
O1071 C1048 1.264 . S
C1072 C1065 1.403 . S
C1072 C1073 1.399 . S
C1072 H1078 0.929 . S
C1073 C1053 1.449 . S
C1073 C1072 1.399 . S
C1073 H1079 0.930 . S
H1074 C1054 0.931 . S
H1075 C1055 0.930 . S
H1076 C1063 0.931 . S
H1077 C1064 0.929 . S
H1078 C1072 0.929 . S
H1079 C1073 0.930 . S
Mn1080 O1085 2.095 . S
Mn1080 O1095 2.162 . S
Mn1080 O1096 2.297 . S
Mn1080 O1104 2.385 . S
Mn1080 O1105 2.209 . S
Mn1080 O1106 2.094 . S
Mn1081 O1086 2.121 . S
Mn1081 N1088 2.257 . S
Mn1081 N1097 2.282 . S
Mn1081 O1105 2.215 . S
Mn1081 O1107 2.117 . S
C1082 O1104 1.234 . S
C1082 O1105 1.283 . S
C1083 O1095 1.281 . S
C1083 O1096 1.236 . S
C1084 O1106 1.240 . S
C1084 O1107 1.264 . S
O1085 Mn1080 2.095 . S
O1085 C1094 1.250 . S
O1086 Mn1081 2.121 . S
O1086 C1094 1.258 . S
C1087 N1088 1.326 . S
C1087 C1091 1.460 . S
C1087 H1093 0.929 . S
N1088 Mn1081 2.257 . S
N1088 C1087 1.326 . S
N1088 C1092 1.362 . S
C1089 C1090 1.258 . S
C1089 C1092 1.431 . S
C1089 C1109 1.449 . S
C1090 C1089 1.258 . S
C1090 C1091 1.477 . S
C1090 H1110 0.931 . S
C1091 C1087 1.460 . S
C1091 C1090 1.477 . S
C1091 H1111 0.930 . S
C1092 N1088 1.362 . S
C1092 C1089 1.431 . S
C1092 C1102 1.476 . S
H1093 C1087 0.929 . S
C1094 O1085 1.250 . S
C1094 O1086 1.258 . S
O1095 Mn1080 2.162 . S
O1095 C1083 1.281 . S
O1096 Mn1080 2.297 . S
O1096 C1083 1.236 . S
N1097 Mn1081 2.282 . S
N1097 C1098 1.328 1_455 S
N1097 C1102 1.318 . S
C1098 N1097 1.328 1_655 S
C1098 C1099 1.457 . S
C1098 H1103 0.929 . S
C1099 C1098 1.457 . S
C1099 C1100 1.291 . S
C1099 H1112 0.931 . S
C1100 C1099 1.291 . S
C1100 C1101 1.373 1_655 S
C1100 H1113 0.929 . S
C1101 C1100 1.373 1_455 S
C1101 C1102 1.396 . S
C1101 C1108 1.403 . S
C1102 C1092 1.476 . S
C1102 N1097 1.318 . S
C1102 C1101 1.396 . S
H1103 C1098 0.929 . S
O1104 Mn1080 2.385 . S
O1104 C1082 1.234 . S
O1105 Mn1080 2.209 . S
O1105 Mn1081 2.215 . S
O1105 C1082 1.283 . S
O1106 Mn1080 2.094 . S
O1106 C1084 1.240 . S
O1107 Mn1081 2.117 . S
O1107 C1084 1.264 . S
C1108 C1101 1.403 . S
C1108 C1109 1.399 . S
C1108 H1114 0.929 . S
C1109 C1089 1.449 . S
C1109 C1108 1.399 . S
C1109 H1115 0.930 . S
H1110 C1090 0.931 . S
H1111 C1091 0.930 . S
H1112 C1099 0.931 . S
H1113 C1100 0.929 . S
H1114 C1108 0.929 . S
H1115 C1109 0.930 . S
Mn1116 O1121 2.095 . S
Mn1116 O1131 2.162 . S
Mn1116 O1132 2.297 . S
Mn1116 O1140 2.385 . S
Mn1116 O1141 2.209 . S
Mn1116 O1142 2.094 . S
Mn1117 O1122 2.121 . S
Mn1117 N1124 2.257 . S
Mn1117 N1133 2.282 . S
Mn1117 O1141 2.215 . S
Mn1117 O1143 2.117 . S
C1118 O1140 1.234 . S
C1118 O1141 1.283 . S
C1119 O1131 1.281 . S
C1119 O1132 1.236 . S
C1120 O1142 1.240 . S
C1120 O1143 1.264 . S
O1121 Mn1116 2.095 . S
O1121 C1130 1.250 . S
O1122 Mn1117 2.121 . S
O1122 C1130 1.258 . S
C1123 N1124 1.326 . S
C1123 C1127 1.460 . S
C1123 H1129 0.929 . S
N1124 Mn1117 2.257 . S
N1124 C1123 1.326 . S
N1124 C1128 1.362 . S
C1125 C1126 1.258 . S
C1125 C1128 1.431 . S
C1125 C1145 1.449 . S
C1126 C1125 1.258 . S
C1126 C1127 1.477 . S
C1126 H1146 0.931 . S
C1127 C1123 1.460 . S
C1127 C1126 1.477 . S
C1127 H1147 0.930 . S
C1128 N1124 1.362 . S
C1128 C1125 1.431 . S
C1128 C1138 1.476 . S
H1129 C1123 0.929 . S
C1130 O1121 1.250 . S
C1130 O1122 1.258 . S
O1131 Mn1116 2.162 . S
O1131 C1119 1.281 . S
O1132 Mn1116 2.297 . S
O1132 C1119 1.236 . S
N1133 Mn1117 2.282 . S
N1133 C1134 1.328 1_545 S
N1133 C1138 1.318 . S
C1134 N1133 1.328 1_565 S
C1134 C1135 1.457 . S
C1134 H1139 0.929 . S
C1135 C1134 1.457 . S
C1135 C1136 1.291 . S
C1135 H1148 0.931 . S
C1136 C1135 1.291 . S
C1136 C1137 1.373 1_565 S
C1136 H1149 0.929 . S
C1137 C1136 1.373 1_545 S
C1137 C1138 1.396 . S
C1137 C1144 1.403 . S
C1138 C1128 1.476 . S
C1138 N1133 1.318 . S
C1138 C1137 1.396 . S
H1139 C1134 0.929 . S
O1140 Mn1116 2.385 . S
O1140 C1118 1.234 . S
O1141 Mn1116 2.209 . S
O1141 Mn1117 2.215 . S
O1141 C1118 1.283 . S
O1142 Mn1116 2.094 . S
O1142 C1120 1.240 . S
O1143 Mn1117 2.117 . S
O1143 C1120 1.264 . S
C1144 C1137 1.403 . S
C1144 C1145 1.399 . S
C1144 H1150 0.929 . S
C1145 C1125 1.449 . S
C1145 C1144 1.399 . S
C1145 H1151 0.930 . S
H1146 C1126 0.931 . S
H1147 C1127 0.930 . S
H1148 C1135 0.931 . S
H1149 C1136 0.929 . S
H1150 C1144 0.929 . S
H1151 C1145 0.930 . S
Mn1152 O1157 2.095 . S
Mn1152 O1167 2.162 . S
Mn1152 O1168 2.297 . S
Mn1152 O1176 2.385 . S
Mn1152 O1177 2.209 . S
Mn1152 O1178 2.094 . S
Mn1153 O1158 2.121 . S
Mn1153 N1160 2.257 . S
Mn1153 N1169 2.282 . S
Mn1153 O1177 2.215 . S
Mn1153 O1179 2.117 . S
C1154 O1176 1.234 . S
C1154 O1177 1.283 . S
C1155 O1167 1.281 . S
C1155 O1168 1.236 . S
C1156 O1178 1.240 . S
C1156 O1179 1.264 . S
O1157 Mn1152 2.095 . S
O1157 C1166 1.250 . S
O1158 Mn1153 2.121 . S
O1158 C1166 1.258 . S
C1159 N1160 1.326 . S
C1159 C1163 1.460 . S
C1159 H1165 0.929 . S
N1160 Mn1153 2.257 . S
N1160 C1159 1.326 . S
N1160 C1164 1.362 . S
C1161 C1162 1.258 . S
C1161 C1164 1.431 . S
C1161 C1181 1.449 . S
C1162 C1161 1.258 . S
C1162 C1163 1.477 . S
C1162 H1182 0.931 . S
C1163 C1159 1.460 . S
C1163 C1162 1.477 . S
C1163 H1183 0.930 . S
C1164 N1160 1.362 . S
C1164 C1161 1.431 . S
C1164 C1174 1.476 . S
H1165 C1159 0.929 . S
C1166 O1157 1.250 . S
C1166 O1158 1.258 . S
O1167 Mn1152 2.162 . S
O1167 C1155 1.281 . S
O1168 Mn1152 2.297 . S
O1168 C1155 1.236 . S
N1169 Mn1153 2.282 . S
N1169 C1170 1.328 1_565 S
N1169 C1174 1.318 . S
C1170 N1169 1.328 1_545 S
C1170 C1171 1.457 . S
C1170 H1175 0.929 . S
C1171 C1170 1.457 . S
C1171 C1172 1.291 . S
C1171 H1184 0.931 . S
C1172 C1171 1.291 . S
C1172 C1173 1.373 1_545 S
C1172 H1185 0.929 . S
C1173 C1172 1.373 1_565 S
C1173 C1174 1.396 . S
C1173 C1180 1.403 . S
C1174 C1164 1.476 . S
C1174 N1169 1.318 . S
C1174 C1173 1.396 . S
H1175 C1170 0.929 . S
O1176 Mn1152 2.385 . S
O1176 C1154 1.234 . S
O1177 Mn1152 2.209 . S
O1177 Mn1153 2.215 . S
O1177 C1154 1.283 . S
O1178 Mn1152 2.094 . S
O1178 C1156 1.240 . S
O1179 Mn1153 2.117 . S
O1179 C1156 1.264 . S
C1180 C1173 1.403 . S
C1180 C1181 1.399 . S
C1180 H1186 0.929 . S
C1181 C1161 1.449 . S
C1181 C1180 1.399 . S
C1181 H1187 0.930 . S
H1182 C1162 0.931 . S
H1183 C1163 0.930 . S
H1184 C1171 0.931 . S
H1185 C1172 0.929 . S
H1186 C1180 0.929 . S
H1187 C1181 0.930 . S
Mn1188 O1193 2.095 . S
Mn1188 O1203 2.162 . S
Mn1188 O1204 2.297 . S
Mn1188 O1212 2.385 . S
Mn1188 O1213 2.209 . S
Mn1188 O1214 2.094 . S
Mn1189 O1194 2.121 . S
Mn1189 N1196 2.257 . S
Mn1189 N1205 2.282 . S
Mn1189 O1213 2.215 . S
Mn1189 O1215 2.117 . S
C1190 O1212 1.234 . S
C1190 O1213 1.283 . S
C1191 O1203 1.281 . S
C1191 O1204 1.236 . S
C1192 O1214 1.240 . S
C1192 O1215 1.264 . S
O1193 Mn1188 2.095 . S
O1193 C1202 1.250 . S
O1194 Mn1189 2.121 . S
O1194 C1202 1.258 . S
C1195 N1196 1.326 . S
C1195 C1199 1.460 . S
C1195 H1201 0.929 . S
N1196 Mn1189 2.257 . S
N1196 C1195 1.326 . S
N1196 C1200 1.362 . S
C1197 C1198 1.258 . S
C1197 C1200 1.431 . S
C1197 C1217 1.449 . S
C1198 C1197 1.258 . S
C1198 C1199 1.477 . S
C1198 H1218 0.931 . S
C1199 C1195 1.460 . S
C1199 C1198 1.477 . S
C1199 H1219 0.930 . S
C1200 N1196 1.362 . S
C1200 C1197 1.431 . S
C1200 C1210 1.476 . S
H1201 C1195 0.929 . S
C1202 O1193 1.250 . S
C1202 O1194 1.258 . S
O1203 Mn1188 2.162 . S
O1203 C1191 1.281 . S
O1204 Mn1188 2.297 . S
O1204 C1191 1.236 . S
N1205 Mn1189 2.282 . S
N1205 C1206 1.328 1_455 S
N1205 C1210 1.318 . S
C1206 N1205 1.328 1_655 S
C1206 C1207 1.457 . S
C1206 H1211 0.929 . S
C1207 C1206 1.457 . S
C1207 C1208 1.291 . S
C1207 H1220 0.931 . S
C1208 C1207 1.291 . S
C1208 C1209 1.373 1_655 S
C1208 H1221 0.929 . S
C1209 C1208 1.373 1_455 S
C1209 C1210 1.396 . S
C1209 C1216 1.403 . S
C1210 C1200 1.476 . S
C1210 N1205 1.318 . S
C1210 C1209 1.396 . S
H1211 C1206 0.929 . S
O1212 Mn1188 2.385 . S
O1212 C1190 1.234 . S
O1213 Mn1188 2.209 . S
O1213 Mn1189 2.215 . S
O1213 C1190 1.283 . S
O1214 Mn1188 2.094 . S
O1214 C1192 1.240 . S
O1215 Mn1189 2.117 . S
O1215 C1192 1.264 . S
C1216 C1209 1.403 . S
C1216 C1217 1.399 . S
C1216 H1222 0.929 . S
C1217 C1197 1.449 . S
C1217 C1216 1.399 . S
C1217 H1223 0.930 . S
H1218 C1198 0.931 . S
H1219 C1199 0.930 . S
H1220 C1207 0.931 . S
H1221 C1208 0.929 . S
H1222 C1216 0.929 . S
H1223 C1217 0.930 . S
Mn1224 O1229 2.095 . S
Mn1224 O1239 2.162 . S
Mn1224 O1240 2.297 . S
Mn1224 O1248 2.385 . S
Mn1224 O1249 2.209 . S
Mn1224 O1250 2.094 . S
Mn1225 O1230 2.121 . S
Mn1225 N1232 2.257 . S
Mn1225 N1241 2.282 . S
Mn1225 O1249 2.215 . S
Mn1225 O1251 2.117 . S
C1226 O1248 1.234 . S
C1226 O1249 1.283 . S
C1227 O1239 1.281 . S
C1227 O1240 1.236 . S
C1228 O1250 1.240 . S
C1228 O1251 1.264 . S
O1229 Mn1224 2.095 . S
O1229 C1238 1.250 . S
O1230 Mn1225 2.121 . S
O1230 C1238 1.258 . S
C1231 N1232 1.326 . S
C1231 C1235 1.460 . S
C1231 H1237 0.929 . S
N1232 Mn1225 2.257 . S
N1232 C1231 1.326 . S
N1232 C1236 1.362 . S
C1233 C1234 1.258 . S
C1233 C1236 1.431 . S
C1233 C1253 1.449 . S
C1234 C1233 1.258 . S
C1234 C1235 1.477 . S
C1234 H1254 0.931 . S
C1235 C1231 1.460 . S
C1235 C1234 1.477 . S
C1235 H1255 0.930 . S
C1236 N1232 1.362 . S
C1236 C1233 1.431 . S
C1236 C1246 1.476 . S
H1237 C1231 0.929 . S
C1238 O1229 1.250 . S
C1238 O1230 1.258 . S
O1239 Mn1224 2.162 . S
O1239 C1227 1.281 . S
O1240 Mn1224 2.297 . S
O1240 C1227 1.236 . S
N1241 Mn1225 2.282 . S
N1241 C1242 1.328 1_545 S
N1241 C1246 1.318 . S
C1242 N1241 1.328 1_565 S
C1242 C1243 1.457 . S
C1242 H1247 0.929 . S
C1243 C1242 1.457 . S
C1243 C1244 1.291 . S
C1243 H1256 0.931 . S
C1244 C1243 1.291 . S
C1244 C1245 1.373 1_565 S
C1244 H1257 0.929 . S
C1245 C1244 1.373 1_545 S
C1245 C1246 1.396 . S
C1245 C1252 1.403 . S
C1246 C1236 1.476 . S
C1246 N1241 1.318 . S
C1246 C1245 1.396 . S
H1247 C1242 0.929 . S
O1248 Mn1224 2.385 . S
O1248 C1226 1.234 . S
O1249 Mn1224 2.209 . S
O1249 Mn1225 2.215 . S
O1249 C1226 1.283 . S
O1250 Mn1224 2.094 . S
O1250 C1228 1.240 . S
O1251 Mn1225 2.117 . S
O1251 C1228 1.264 . S
C1252 C1245 1.403 . S
C1252 C1253 1.399 . S
C1252 H1258 0.929 . S
C1253 C1233 1.449 . S
C1253 C1252 1.399 . S
C1253 H1259 0.930 . S
H1254 C1234 0.931 . S
H1255 C1235 0.930 . S
H1256 C1243 0.931 . S
H1257 C1244 0.929 . S
H1258 C1252 0.929 . S
H1259 C1253 0.930 . S
Mn1260 O1265 2.095 . S
Mn1260 O1275 2.162 . S
Mn1260 O1276 2.297 . S
Mn1260 O1284 2.385 . S
Mn1260 O1285 2.209 . S
Mn1260 O1286 2.094 . S
Mn1261 O1266 2.121 . S
Mn1261 N1268 2.257 . S
Mn1261 N1277 2.282 . S
Mn1261 O1285 2.215 . S
Mn1261 O1287 2.117 . S
C1262 O1284 1.234 . S
C1262 O1285 1.283 . S
C1263 O1275 1.281 . S
C1263 O1276 1.236 . S
C1264 O1286 1.240 . S
C1264 O1287 1.264 . S
O1265 Mn1260 2.095 . S
O1265 C1274 1.250 . S
O1266 Mn1261 2.121 . S
O1266 C1274 1.258 . S
C1267 N1268 1.326 . S
C1267 C1271 1.460 . S
C1267 H1273 0.929 . S
N1268 Mn1261 2.257 . S
N1268 C1267 1.326 . S
N1268 C1272 1.362 . S
C1269 C1270 1.258 . S
C1269 C1272 1.431 . S
C1269 C1289 1.449 . S
C1270 C1269 1.258 . S
C1270 C1271 1.477 . S
C1270 H1290 0.931 . S
C1271 C1267 1.460 . S
C1271 C1270 1.477 . S
C1271 H1291 0.930 . S
C1272 N1268 1.362 . S
C1272 C1269 1.431 . S
C1272 C1282 1.476 . S
H1273 C1267 0.929 . S
C1274 O1265 1.250 . S
C1274 O1266 1.258 . S
O1275 Mn1260 2.162 . S
O1275 C1263 1.281 . S
O1276 Mn1260 2.297 . S
O1276 C1263 1.236 . S
N1277 Mn1261 2.282 . S
N1277 C1278 1.328 1_655 S
N1277 C1282 1.318 . S
C1278 N1277 1.328 1_455 S
C1278 C1279 1.457 . S
C1278 H1283 0.929 . S
C1279 C1278 1.457 . S
C1279 C1280 1.291 . S
C1279 H1292 0.931 . S
C1280 C1279 1.291 . S
C1280 C1281 1.373 1_455 S
C1280 H1293 0.929 . S
C1281 C1280 1.373 1_655 S
C1281 C1282 1.396 . S
C1281 C1288 1.403 . S
C1282 C1272 1.476 . S
C1282 N1277 1.318 . S
C1282 C1281 1.396 . S
H1283 C1278 0.929 . S
O1284 Mn1260 2.385 . S
O1284 C1262 1.234 . S
O1285 Mn1260 2.209 . S
O1285 Mn1261 2.215 . S
O1285 C1262 1.283 . S
O1286 Mn1260 2.094 . S
O1286 C1264 1.240 . S
O1287 Mn1261 2.117 . S
O1287 C1264 1.264 . S
C1288 C1281 1.403 . S
C1288 C1289 1.399 . S
C1288 H1294 0.929 . S
C1289 C1269 1.449 . S
C1289 C1288 1.399 . S
C1289 H1295 0.930 . S
H1290 C1270 0.931 . S
H1291 C1271 0.930 . S
H1292 C1279 0.931 . S
H1293 C1280 0.929 . S
H1294 C1288 0.929 . S
H1295 C1289 0.930 . S
Mn1296 O1301 2.095 . S
Mn1296 O1311 2.162 . S
Mn1296 O1312 2.297 . S
Mn1296 O1320 2.385 . S
Mn1296 O1321 2.209 . S
Mn1296 O1322 2.094 . S
Mn1297 O1302 2.121 . S
Mn1297 N1304 2.257 . S
Mn1297 N1313 2.282 . S
Mn1297 O1321 2.215 . S
Mn1297 O1323 2.117 . S
C1298 O1320 1.234 . S
C1298 O1321 1.283 . S
C1299 O1311 1.281 . S
C1299 O1312 1.236 . S
C1300 O1322 1.240 . S
C1300 O1323 1.264 . S
O1301 Mn1296 2.095 . S
O1301 C1310 1.250 . S
O1302 Mn1297 2.121 . S
O1302 C1310 1.258 . S
C1303 N1304 1.326 . S
C1303 C1307 1.460 . S
C1303 H1309 0.929 . S
N1304 Mn1297 2.257 . S
N1304 C1303 1.326 . S
N1304 C1308 1.362 . S
C1305 C1306 1.258 . S
C1305 C1308 1.431 . S
C1305 C1325 1.449 . S
C1306 C1305 1.258 . S
C1306 C1307 1.477 . S
C1306 H1326 0.931 . S
C1307 C1303 1.460 . S
C1307 C1306 1.477 . S
C1307 H1327 0.930 . S
C1308 N1304 1.362 . S
C1308 C1305 1.431 . S
C1308 C1318 1.476 . S
H1309 C1303 0.929 . S
C1310 O1301 1.250 . S
C1310 O1302 1.258 . S
O1311 Mn1296 2.162 . S
O1311 C1299 1.281 . S
O1312 Mn1296 2.297 . S
O1312 C1299 1.236 . S
N1313 Mn1297 2.282 . S
N1313 C1314 1.328 1_545 S
N1313 C1318 1.318 . S
C1314 N1313 1.328 1_565 S
C1314 C1315 1.457 . S
C1314 H1319 0.929 . S
C1315 C1314 1.457 . S
C1315 C1316 1.291 . S
C1315 H1328 0.931 . S
C1316 C1315 1.291 . S
C1316 C1317 1.373 1_565 S
C1316 H1329 0.929 . S
C1317 C1316 1.373 1_545 S
C1317 C1318 1.396 . S
C1317 C1324 1.403 . S
C1318 C1308 1.476 . S
C1318 N1313 1.318 . S
C1318 C1317 1.396 . S
H1319 C1314 0.929 . S
O1320 Mn1296 2.385 . S
O1320 C1298 1.234 . S
O1321 Mn1296 2.209 . S
O1321 Mn1297 2.215 . S
O1321 C1298 1.283 . S
O1322 Mn1296 2.094 . S
O1322 C1300 1.240 . S
O1323 Mn1297 2.117 . S
O1323 C1300 1.264 . S
C1324 C1317 1.403 . S
C1324 C1325 1.399 . S
C1324 H1330 0.929 . S
C1325 C1305 1.449 . S
C1325 C1324 1.399 . S
C1325 H1331 0.930 . S
H1326 C1306 0.931 . S
H1327 C1307 0.930 . S
H1328 C1315 0.931 . S
H1329 C1316 0.929 . S
H1330 C1324 0.929 . S
H1331 C1325 0.930 . S
Mn1332 O1337 2.095 . S
Mn1332 O1347 2.162 . S
Mn1332 O1348 2.297 . S
Mn1332 O1356 2.385 . S
Mn1332 O1357 2.209 . S
Mn1332 O1358 2.094 . S
Mn1333 O1338 2.121 . S
Mn1333 N1340 2.257 . S
Mn1333 N1349 2.282 . S
Mn1333 O1357 2.215 . S
Mn1333 O1359 2.117 . S
C1334 O1356 1.234 . S
C1334 O1357 1.283 . S
C1335 O1347 1.281 . S
C1335 O1348 1.236 . S
C1336 O1358 1.240 . S
C1336 O1359 1.264 . S
O1337 Mn1332 2.095 . S
O1337 C1346 1.250 . S
O1338 Mn1333 2.121 . S
O1338 C1346 1.258 . S
C1339 N1340 1.326 . S
C1339 C1343 1.460 . S
C1339 H1345 0.929 . S
N1340 Mn1333 2.257 . S
N1340 C1339 1.326 . S
N1340 C1344 1.362 . S
C1341 C1342 1.258 . S
C1341 C1344 1.431 . S
C1341 C1361 1.449 . S
C1342 C1341 1.258 . S
C1342 C1343 1.477 . S
C1342 H1362 0.931 . S
C1343 C1339 1.460 . S
C1343 C1342 1.477 . S
C1343 H1363 0.930 . S
C1344 N1340 1.362 . S
C1344 C1341 1.431 . S
C1344 C1354 1.476 . S
H1345 C1339 0.929 . S
C1346 O1337 1.250 . S
C1346 O1338 1.258 . S
O1347 Mn1332 2.162 . S
O1347 C1335 1.281 . S
O1348 Mn1332 2.297 . S
O1348 C1335 1.236 . S
N1349 Mn1333 2.282 . S
N1349 C1350 1.328 1_655 S
N1349 C1354 1.318 . S
C1350 N1349 1.328 1_455 S
C1350 C1351 1.457 . S
C1350 H1355 0.929 . S
C1351 C1350 1.457 . S
C1351 C1352 1.291 . S
C1351 H1364 0.931 . S
C1352 C1351 1.291 . S
C1352 C1353 1.373 1_455 S
C1352 H1365 0.929 . S
C1353 C1352 1.373 1_655 S
C1353 C1354 1.396 . S
C1353 C1360 1.403 . S
C1354 C1344 1.476 . S
C1354 N1349 1.318 . S
C1354 C1353 1.396 . S
H1355 C1350 0.929 . S
O1356 Mn1332 2.385 . S
O1356 C1334 1.234 . S
O1357 Mn1332 2.209 . S
O1357 Mn1333 2.215 . S
O1357 C1334 1.283 . S
O1358 Mn1332 2.094 . S
O1358 C1336 1.240 . S
O1359 Mn1333 2.117 . S
O1359 C1336 1.264 . S
C1360 C1353 1.403 . S
C1360 C1361 1.399 . S
C1360 H1366 0.929 . S
C1361 C1341 1.449 . S
C1361 C1360 1.399 . S
C1361 H1367 0.930 . S
H1362 C1342 0.931 . S
H1363 C1343 0.930 . S
H1364 C1351 0.931 . S
H1365 C1352 0.929 . S
H1366 C1360 0.929 . S
H1367 C1361 0.930 . S
Mn1368 O1373 2.095 . S
Mn1368 O1383 2.162 . S
Mn1368 O1384 2.297 . S
Mn1368 O1392 2.385 . S
Mn1368 O1393 2.209 . S
Mn1368 O1394 2.094 . S
Mn1369 O1374 2.121 . S
Mn1369 N1376 2.257 . S
Mn1369 N1385 2.282 . S
Mn1369 O1393 2.215 . S
Mn1369 O1395 2.117 . S
C1370 O1392 1.234 . S
C1370 O1393 1.283 . S
C1371 O1383 1.281 . S
C1371 O1384 1.236 . S
C1372 O1394 1.240 . S
C1372 O1395 1.264 . S
O1373 Mn1368 2.095 . S
O1373 C1382 1.250 . S
O1374 Mn1369 2.121 . S
O1374 C1382 1.258 . S
C1375 N1376 1.326 . S
C1375 C1379 1.460 . S
C1375 H1381 0.929 . S
N1376 Mn1369 2.257 . S
N1376 C1375 1.326 . S
N1376 C1380 1.362 . S
C1377 C1378 1.258 . S
C1377 C1380 1.431 . S
C1377 C1397 1.449 . S
C1378 C1377 1.258 . S
C1378 C1379 1.477 . S
C1378 H1398 0.931 . S
C1379 C1375 1.460 . S
C1379 C1378 1.477 . S
C1379 H1399 0.930 . S
C1380 N1376 1.362 . S
C1380 C1377 1.431 . S
C1380 C1390 1.476 . S
H1381 C1375 0.929 . S
C1382 O1373 1.250 . S
C1382 O1374 1.258 . S
O1383 Mn1368 2.162 . S
O1383 C1371 1.281 . S
O1384 Mn1368 2.297 . S
O1384 C1371 1.236 . S
N1385 Mn1369 2.282 . S
N1385 C1386 1.328 1_565 S
N1385 C1390 1.318 . S
C1386 N1385 1.328 1_545 S
C1386 C1387 1.457 . S
C1386 H1391 0.929 . S
C1387 C1386 1.457 . S
C1387 C1388 1.291 . S
C1387 H1400 0.931 . S
C1388 C1387 1.291 . S
C1388 C1389 1.373 1_545 S
C1388 H1401 0.929 . S
C1389 C1388 1.373 1_565 S
C1389 C1390 1.396 . S
C1389 C1396 1.403 . S
C1390 C1380 1.476 . S
C1390 N1385 1.318 . S
C1390 C1389 1.396 . S
H1391 C1386 0.929 . S
O1392 Mn1368 2.385 . S
O1392 C1370 1.234 . S
O1393 Mn1368 2.209 . S
O1393 Mn1369 2.215 . S
O1393 C1370 1.283 . S
O1394 Mn1368 2.094 . S
O1394 C1372 1.240 . S
O1395 Mn1369 2.117 . S
O1395 C1372 1.264 . S
C1396 C1389 1.403 . S
C1396 C1397 1.399 . S
C1396 H1402 0.929 . S
C1397 C1377 1.449 . S
C1397 C1396 1.399 . S
C1397 H1403 0.930 . S
H1398 C1378 0.931 . S
H1399 C1379 0.930 . S
H1400 C1387 0.931 . S
H1401 C1388 0.929 . S
H1402 C1396 0.929 . S
H1403 C1397 0.930 . S
Mn1404 O1409 2.095 . S
Mn1404 O1419 2.162 . S
Mn1404 O1420 2.297 . S
Mn1404 O1428 2.385 . S
Mn1404 O1429 2.209 . S
Mn1404 O1430 2.094 . S
Mn1405 O1410 2.121 . S
Mn1405 N1412 2.257 . S
Mn1405 N1421 2.282 . S
Mn1405 O1429 2.215 . S
Mn1405 O1431 2.117 . S
C1406 O1428 1.234 . S
C1406 O1429 1.283 . S
C1407 O1419 1.281 . S
C1407 O1420 1.236 . S
C1408 O1430 1.240 . S
C1408 O1431 1.264 . S
O1409 Mn1404 2.095 . S
O1409 C1418 1.250 . S
O1410 Mn1405 2.121 . S
O1410 C1418 1.258 . S
C1411 N1412 1.326 . S
C1411 C1415 1.460 . S
C1411 H1417 0.929 . S
N1412 Mn1405 2.257 . S
N1412 C1411 1.326 . S
N1412 C1416 1.362 . S
C1413 C1414 1.258 . S
C1413 C1416 1.431 . S
C1413 C1433 1.449 . S
C1414 C1413 1.258 . S
C1414 C1415 1.477 . S
C1414 H1434 0.931 . S
C1415 C1411 1.460 . S
C1415 C1414 1.477 . S
C1415 H1435 0.930 . S
C1416 N1412 1.362 . S
C1416 C1413 1.431 . S
C1416 C1426 1.476 . S
H1417 C1411 0.929 . S
C1418 O1409 1.250 . S
C1418 O1410 1.258 . S
O1419 Mn1404 2.162 . S
O1419 C1407 1.281 . S
O1420 Mn1404 2.297 . S
O1420 C1407 1.236 . S
N1421 Mn1405 2.282 . S
N1421 C1422 1.328 1_455 S
N1421 C1426 1.318 . S
C1422 N1421 1.328 1_655 S
C1422 C1423 1.457 . S
C1422 H1427 0.929 . S
C1423 C1422 1.457 . S
C1423 C1424 1.291 . S
C1423 H1436 0.931 . S
C1424 C1423 1.291 . S
C1424 C1425 1.373 1_655 S
C1424 H1437 0.929 . S
C1425 C1424 1.373 1_455 S
C1425 C1426 1.396 . S
C1425 C1432 1.403 . S
C1426 C1416 1.476 . S
C1426 N1421 1.318 . S
C1426 C1425 1.396 . S
H1427 C1422 0.929 . S
O1428 Mn1404 2.385 . S
O1428 C1406 1.234 . S
O1429 Mn1404 2.209 . S
O1429 Mn1405 2.215 . S
O1429 C1406 1.283 . S
O1430 Mn1404 2.094 . S
O1430 C1408 1.240 . S
O1431 Mn1405 2.117 . S
O1431 C1408 1.264 . S
C1432 C1425 1.403 . S
C1432 C1433 1.399 . S
C1432 H1438 0.929 . S
C1433 C1413 1.449 . S
C1433 C1432 1.399 . S
C1433 H1439 0.930 . S
H1434 C1414 0.931 . S
H1435 C1415 0.930 . S
H1436 C1423 0.931 . S
H1437 C1424 0.929 . S
H1438 C1432 0.929 . S
H1439 C1433 0.930 . S
Mn1440 O1445 2.095 . S
Mn1440 O1455 2.162 . S
Mn1440 O1456 2.297 . S
Mn1440 O1464 2.385 . S
Mn1440 O1465 2.209 . S
Mn1440 O1466 2.094 . S
Mn1441 O1446 2.121 . S
Mn1441 N1448 2.257 . S
Mn1441 N1457 2.282 . S
Mn1441 O1465 2.215 . S
Mn1441 O1467 2.117 . S
C1442 O1464 1.234 . S
C1442 O1465 1.283 . S
C1443 O1455 1.281 . S
C1443 O1456 1.236 . S
C1444 O1466 1.240 . S
C1444 O1467 1.264 . S
O1445 Mn1440 2.095 . S
O1445 C1454 1.250 . S
O1446 Mn1441 2.121 . S
O1446 C1454 1.258 . S
C1447 N1448 1.326 . S
C1447 C1451 1.460 . S
C1447 H1453 0.929 . S
N1448 Mn1441 2.257 . S
N1448 C1447 1.326 . S
N1448 C1452 1.362 . S
C1449 C1450 1.258 . S
C1449 C1452 1.431 . S
C1449 C1469 1.449 . S
C1450 C1449 1.258 . S
C1450 C1451 1.477 . S
C1450 H1470 0.931 . S
C1451 C1447 1.460 . S
C1451 C1450 1.477 . S
C1451 H1471 0.930 . S
C1452 N1448 1.362 . S
C1452 C1449 1.431 . S
C1452 C1462 1.476 . S
H1453 C1447 0.929 . S
C1454 O1445 1.250 . S
C1454 O1446 1.258 . S
O1455 Mn1440 2.162 . S
O1455 C1443 1.281 . S
O1456 Mn1440 2.297 . S
O1456 C1443 1.236 . S
N1457 Mn1441 2.282 . S
N1457 C1458 1.328 1_556 S
N1457 C1462 1.318 . S
C1458 N1457 1.328 1_554 S
C1458 C1459 1.457 . S
C1458 H1463 0.929 . S
C1459 C1458 1.457 . S
C1459 C1460 1.291 . S
C1459 H1472 0.931 . S
C1460 C1459 1.291 . S
C1460 C1461 1.373 1_554 S
C1460 H1473 0.929 . S
C1461 C1460 1.373 1_556 S
C1461 C1462 1.396 . S
C1461 C1468 1.403 . S
C1462 C1452 1.476 . S
C1462 N1457 1.318 . S
C1462 C1461 1.396 . S
H1463 C1458 0.929 . S
O1464 Mn1440 2.385 . S
O1464 C1442 1.234 . S
O1465 Mn1440 2.209 . S
O1465 Mn1441 2.215 . S
O1465 C1442 1.283 . S
O1466 Mn1440 2.094 . S
O1466 C1444 1.240 . S
O1467 Mn1441 2.117 . S
O1467 C1444 1.264 . S
C1468 C1461 1.403 . S
C1468 C1469 1.399 . S
C1468 H1474 0.929 . S
C1469 C1449 1.449 . S
C1469 C1468 1.399 . S
C1469 H1475 0.930 . S
H1470 C1450 0.931 . S
H1471 C1451 0.930 . S
H1472 C1459 0.931 . S
H1473 C1460 0.929 . S
H1474 C1468 0.929 . S
H1475 C1469 0.930 . S
Mn1476 O1481 2.095 . S
Mn1476 O1491 2.162 . S
Mn1476 O1492 2.297 . S
Mn1476 O1500 2.385 . S
Mn1476 O1501 2.209 . S
Mn1476 O1502 2.094 . S
Mn1477 O1482 2.121 . S
Mn1477 N1484 2.257 . S
Mn1477 N1493 2.282 . S
Mn1477 O1501 2.215 . S
Mn1477 O1503 2.117 . S
C1478 O1500 1.234 . S
C1478 O1501 1.283 . S
C1479 O1491 1.281 . S
C1479 O1492 1.236 . S
C1480 O1502 1.240 . S
C1480 O1503 1.264 . S
O1481 Mn1476 2.095 . S
O1481 C1490 1.250 . S
O1482 Mn1477 2.121 . S
O1482 C1490 1.258 . S
C1483 N1484 1.326 . S
C1483 C1487 1.460 . S
C1483 H1489 0.929 . S
N1484 Mn1477 2.257 . S
N1484 C1483 1.326 . S
N1484 C1488 1.362 . S
C1485 C1486 1.258 . S
C1485 C1488 1.431 . S
C1485 C1505 1.449 . S
C1486 C1485 1.258 . S
C1486 C1487 1.477 . S
C1486 H1506 0.931 . S
C1487 C1483 1.460 . S
C1487 C1486 1.477 . S
C1487 H1507 0.930 . S
C1488 N1484 1.362 . S
C1488 C1485 1.431 . S
C1488 C1498 1.476 . S
H1489 C1483 0.929 . S
C1490 O1481 1.250 . S
C1490 O1482 1.258 . S
O1491 Mn1476 2.162 . S
O1491 C1479 1.281 . S
O1492 Mn1476 2.297 . S
O1492 C1479 1.236 . S
N1493 Mn1477 2.282 . S
N1493 C1494 1.328 1_554 S
N1493 C1498 1.318 . S
C1494 N1493 1.328 1_556 S
C1494 C1495 1.457 . S
C1494 H1499 0.929 . S
C1495 C1494 1.457 . S
C1495 C1496 1.291 . S
C1495 H1508 0.931 . S
C1496 C1495 1.291 . S
C1496 C1497 1.373 1_556 S
C1496 H1509 0.929 . S
C1497 C1496 1.373 1_554 S
C1497 C1498 1.396 . S
C1497 C1504 1.403 . S
C1498 C1488 1.476 . S
C1498 N1493 1.318 . S
C1498 C1497 1.396 . S
H1499 C1494 0.929 . S
O1500 Mn1476 2.385 . S
O1500 C1478 1.234 . S
O1501 Mn1476 2.209 . S
O1501 Mn1477 2.215 . S
O1501 C1478 1.283 . S
O1502 Mn1476 2.094 . S
O1502 C1480 1.240 . S
O1503 Mn1477 2.117 . S
O1503 C1480 1.264 . S
C1504 C1497 1.403 . S
C1504 C1505 1.399 . S
C1504 H1510 0.929 . S
C1505 C1485 1.449 . S
C1505 C1504 1.399 . S
C1505 H1511 0.930 . S
H1506 C1486 0.931 . S
H1507 C1487 0.930 . S
H1508 C1495 0.931 . S
H1509 C1496 0.929 . S
H1510 C1504 0.929 . S
H1511 C1505 0.930 . S
Mn1512 O1517 2.095 . S
Mn1512 O1527 2.162 . S
Mn1512 O1528 2.297 . S
Mn1512 O1536 2.385 . S
Mn1512 O1537 2.209 . S
Mn1512 O1538 2.094 . S
Mn1513 O1518 2.121 . S
Mn1513 N1520 2.257 . S
Mn1513 N1529 2.282 . S
Mn1513 O1537 2.215 . S
Mn1513 O1539 2.117 . S
C1514 O1536 1.234 . S
C1514 O1537 1.283 . S
C1515 O1527 1.281 . S
C1515 O1528 1.236 . S
C1516 O1538 1.240 . S
C1516 O1539 1.264 . S
O1517 Mn1512 2.095 . S
O1517 C1526 1.250 . S
O1518 Mn1513 2.121 . S
O1518 C1526 1.258 . S
C1519 N1520 1.326 . S
C1519 C1523 1.460 . S
C1519 H1525 0.929 . S
N1520 Mn1513 2.257 . S
N1520 C1519 1.326 . S
N1520 C1524 1.362 . S
C1521 C1522 1.258 . S
C1521 C1524 1.431 . S
C1521 C1541 1.449 . S
C1522 C1521 1.258 . S
C1522 C1523 1.477 . S
C1522 H1542 0.931 . S
C1523 C1519 1.460 . S
C1523 C1522 1.477 . S
C1523 H1543 0.930 . S
C1524 N1520 1.362 . S
C1524 C1521 1.431 . S
C1524 C1534 1.476 . S
H1525 C1519 0.929 . S
C1526 O1517 1.250 . S
C1526 O1518 1.258 . S
O1527 Mn1512 2.162 . S
O1527 C1515 1.281 . S
O1528 Mn1512 2.297 . S
O1528 C1515 1.236 . S
N1529 Mn1513 2.282 . S
N1529 C1530 1.328 1_554 S
N1529 C1534 1.318 . S
C1530 N1529 1.328 1_556 S
C1530 C1531 1.457 . S
C1530 H1535 0.929 . S
C1531 C1530 1.457 . S
C1531 C1532 1.291 . S
C1531 H1544 0.931 . S
C1532 C1531 1.291 . S
C1532 C1533 1.373 1_556 S
C1532 H1545 0.929 . S
C1533 C1532 1.373 1_554 S
C1533 C1534 1.396 . S
C1533 C1540 1.403 . S
C1534 C1524 1.476 . S
C1534 N1529 1.318 . S
C1534 C1533 1.396 . S
H1535 C1530 0.929 . S
O1536 Mn1512 2.385 . S
O1536 C1514 1.234 . S
O1537 Mn1512 2.209 . S
O1537 Mn1513 2.215 . S
O1537 C1514 1.283 . S
O1538 Mn1512 2.094 . S
O1538 C1516 1.240 . S
O1539 Mn1513 2.117 . S
O1539 C1516 1.264 . S
C1540 C1533 1.403 . S
C1540 C1541 1.399 . S
C1540 H1546 0.929 . S
C1541 C1521 1.449 . S
C1541 C1540 1.399 . S
C1541 H1547 0.930 . S
H1542 C1522 0.931 . S
H1543 C1523 0.930 . S
H1544 C1531 0.931 . S
H1545 C1532 0.929 . S
H1546 C1540 0.929 . S
H1547 C1541 0.930 . S
Mn1548 O1553 2.095 . S
Mn1548 O1563 2.162 . S
Mn1548 O1564 2.297 . S
Mn1548 O1572 2.385 . S
Mn1548 O1573 2.209 . S
Mn1548 O1574 2.094 . S
Mn1549 O1554 2.121 . S
Mn1549 N1556 2.257 . S
Mn1549 N1565 2.282 . S
Mn1549 O1573 2.215 . S
Mn1549 O1575 2.117 . S
C1550 O1572 1.234 . S
C1550 O1573 1.283 . S
C1551 O1563 1.281 . S
C1551 O1564 1.236 . S
C1552 O1574 1.240 . S
C1552 O1575 1.264 . S
O1553 Mn1548 2.095 . S
O1553 C1562 1.250 . S
O1554 Mn1549 2.121 . S
O1554 C1562 1.258 . S
C1555 N1556 1.326 . S
C1555 C1559 1.460 . S
C1555 H1561 0.929 . S
N1556 Mn1549 2.257 . S
N1556 C1555 1.326 . S
N1556 C1560 1.362 . S
C1557 C1558 1.258 . S
C1557 C1560 1.431 . S
C1557 C1577 1.449 . S
C1558 C1557 1.258 . S
C1558 C1559 1.477 . S
C1558 H1578 0.931 . S
C1559 C1555 1.460 . S
C1559 C1558 1.477 . S
C1559 H1579 0.930 . S
C1560 N1556 1.362 . S
C1560 C1557 1.431 . S
C1560 C1570 1.476 . S
H1561 C1555 0.929 . S
C1562 O1553 1.250 . S
C1562 O1554 1.258 . S
O1563 Mn1548 2.162 . S
O1563 C1551 1.281 . S
O1564 Mn1548 2.297 . S
O1564 C1551 1.236 . S
N1565 Mn1549 2.282 . S
N1565 C1566 1.328 1_554 S
N1565 C1570 1.318 . S
C1566 N1565 1.328 1_556 S
C1566 C1567 1.457 . S
C1566 H1571 0.929 . S
C1567 C1566 1.457 . S
C1567 C1568 1.291 . S
C1567 H1580 0.931 . S
C1568 C1567 1.291 . S
C1568 C1569 1.373 1_556 S
C1568 H1581 0.929 . S
C1569 C1568 1.373 1_554 S
C1569 C1570 1.396 . S
C1569 C1576 1.403 . S
C1570 C1560 1.476 . S
C1570 N1565 1.318 . S
C1570 C1569 1.396 . S
H1571 C1566 0.929 . S
O1572 Mn1548 2.385 . S
O1572 C1550 1.234 . S
O1573 Mn1548 2.209 . S
O1573 Mn1549 2.215 . S
O1573 C1550 1.283 . S
O1574 Mn1548 2.094 . S
O1574 C1552 1.240 . S
O1575 Mn1549 2.117 . S
O1575 C1552 1.264 . S
C1576 C1569 1.403 . S
C1576 C1577 1.399 . S
C1576 H1582 0.929 . S
C1577 C1557 1.449 . S
C1577 C1576 1.399 . S
C1577 H1583 0.930 . S
H1578 C1558 0.931 . S
H1579 C1559 0.930 . S
H1580 C1567 0.931 . S
H1581 C1568 0.929 . S
H1582 C1576 0.929 . S
H1583 C1577 0.930 . S
Mn1584 O1589 2.095 . S
Mn1584 O1599 2.162 . S
Mn1584 O1600 2.297 . S
Mn1584 O1608 2.385 . S
Mn1584 O1609 2.209 . S
Mn1584 O1610 2.094 . S
Mn1585 O1590 2.121 . S
Mn1585 N1592 2.257 . S
Mn1585 N1601 2.282 . S
Mn1585 O1609 2.215 . S
Mn1585 O1611 2.117 . S
C1586 O1608 1.234 . S
C1586 O1609 1.283 . S
C1587 O1599 1.281 . S
C1587 O1600 1.236 . S
C1588 O1610 1.240 . S
C1588 O1611 1.264 . S
O1589 Mn1584 2.095 . S
O1589 C1598 1.250 . S
O1590 Mn1585 2.121 . S
O1590 C1598 1.258 . S
C1591 N1592 1.326 . S
C1591 C1595 1.460 . S
C1591 H1597 0.929 . S
N1592 Mn1585 2.257 . S
N1592 C1591 1.326 . S
N1592 C1596 1.362 . S
C1593 C1594 1.258 . S
C1593 C1596 1.431 . S
C1593 C1613 1.449 . S
C1594 C1593 1.258 . S
C1594 C1595 1.477 . S
C1594 H1614 0.931 . S
C1595 C1591 1.460 . S
C1595 C1594 1.477 . S
C1595 H1615 0.930 . S
C1596 N1592 1.362 . S
C1596 C1593 1.431 . S
C1596 C1606 1.476 . S
H1597 C1591 0.929 . S
C1598 O1589 1.250 . S
C1598 O1590 1.258 . S
O1599 Mn1584 2.162 . S
O1599 C1587 1.281 . S
O1600 Mn1584 2.297 . S
O1600 C1587 1.236 . S
N1601 Mn1585 2.282 . S
N1601 C1602 1.328 1_554 S
N1601 C1606 1.318 . S
C1602 N1601 1.328 1_556 S
C1602 C1603 1.457 . S
C1602 H1607 0.929 . S
C1603 C1602 1.457 . S
C1603 C1604 1.291 . S
C1603 H1616 0.931 . S
C1604 C1603 1.291 . S
C1604 C1605 1.373 1_556 S
C1604 H1617 0.929 . S
C1605 C1604 1.373 1_554 S
C1605 C1606 1.396 . S
C1605 C1612 1.403 . S
C1606 C1596 1.476 . S
C1606 N1601 1.318 . S
C1606 C1605 1.396 . S
H1607 C1602 0.929 . S
O1608 Mn1584 2.385 . S
O1608 C1586 1.234 . S
O1609 Mn1584 2.209 . S
O1609 Mn1585 2.215 . S
O1609 C1586 1.283 . S
O1610 Mn1584 2.094 . S
O1610 C1588 1.240 . S
O1611 Mn1585 2.117 . S
O1611 C1588 1.264 . S
C1612 C1605 1.403 . S
C1612 C1613 1.399 . S
C1612 H1618 0.929 . S
C1613 C1593 1.449 . S
C1613 C1612 1.399 . S
C1613 H1619 0.930 . S
H1614 C1594 0.931 . S
H1615 C1595 0.930 . S
H1616 C1603 0.931 . S
H1617 C1604 0.929 . S
H1618 C1612 0.929 . S
H1619 C1613 0.930 . S
Mn1620 O1625 2.095 . S
Mn1620 O1635 2.162 . S
Mn1620 O1636 2.297 . S
Mn1620 O1644 2.385 . S
Mn1620 O1645 2.209 . S
Mn1620 O1646 2.094 . S
Mn1621 O1626 2.121 . S
Mn1621 N1628 2.257 . S
Mn1621 N1637 2.282 . S
Mn1621 O1645 2.215 . S
Mn1621 O1647 2.117 . S
C1622 O1644 1.234 . S
C1622 O1645 1.283 . S
C1623 O1635 1.281 . S
C1623 O1636 1.236 . S
C1624 O1646 1.240 . S
C1624 O1647 1.264 . S
O1625 Mn1620 2.095 . S
O1625 C1634 1.250 . S
O1626 Mn1621 2.121 . S
O1626 C1634 1.258 . S
C1627 N1628 1.326 . S
C1627 C1631 1.460 . S
C1627 H1633 0.929 . S
N1628 Mn1621 2.257 . S
N1628 C1627 1.326 . S
N1628 C1632 1.362 . S
C1629 C1630 1.258 . S
C1629 C1632 1.431 . S
C1629 C1649 1.449 . S
C1630 C1629 1.258 . S
C1630 C1631 1.477 . S
C1630 H1650 0.931 . S
C1631 C1627 1.460 . S
C1631 C1630 1.477 . S
C1631 H1651 0.930 . S
C1632 N1628 1.362 . S
C1632 C1629 1.431 . S
C1632 C1642 1.476 . S
H1633 C1627 0.929 . S
C1634 O1625 1.250 . S
C1634 O1626 1.258 . S
O1635 Mn1620 2.162 . S
O1635 C1623 1.281 . S
O1636 Mn1620 2.297 . S
O1636 C1623 1.236 . S
N1637 Mn1621 2.282 . S
N1637 C1638 1.328 1_556 S
N1637 C1642 1.318 . S
C1638 N1637 1.328 1_554 S
C1638 C1639 1.457 . S
C1638 H1643 0.929 . S
C1639 C1638 1.457 . S
C1639 C1640 1.291 . S
C1639 H1652 0.931 . S
C1640 C1639 1.291 . S
C1640 C1641 1.373 1_554 S
C1640 H1653 0.929 . S
C1641 C1640 1.373 1_556 S
C1641 C1642 1.396 . S
C1641 C1648 1.403 . S
C1642 C1632 1.476 . S
C1642 N1637 1.318 . S
C1642 C1641 1.396 . S
H1643 C1638 0.929 . S
O1644 Mn1620 2.385 . S
O1644 C1622 1.234 . S
O1645 Mn1620 2.209 . S
O1645 Mn1621 2.215 . S
O1645 C1622 1.283 . S
O1646 Mn1620 2.094 . S
O1646 C1624 1.240 . S
O1647 Mn1621 2.117 . S
O1647 C1624 1.264 . S
C1648 C1641 1.403 . S
C1648 C1649 1.399 . S
C1648 H1654 0.929 . S
C1649 C1629 1.449 . S
C1649 C1648 1.399 . S
C1649 H1655 0.930 . S
H1650 C1630 0.931 . S
H1651 C1631 0.930 . S
H1652 C1639 0.931 . S
H1653 C1640 0.929 . S
H1654 C1648 0.929 . S
H1655 C1649 0.930 . S
Mn1656 O1661 2.095 . S
Mn1656 O1671 2.162 . S
Mn1656 O1672 2.297 . S
Mn1656 O1680 2.385 . S
Mn1656 O1681 2.209 . S
Mn1656 O1682 2.094 . S
Mn1657 O1662 2.121 . S
Mn1657 N1664 2.257 . S
Mn1657 N1673 2.282 . S
Mn1657 O1681 2.215 . S
Mn1657 O1683 2.117 . S
C1658 O1680 1.234 . S
C1658 O1681 1.283 . S
C1659 O1671 1.281 . S
C1659 O1672 1.236 . S
C1660 O1682 1.240 . S
C1660 O1683 1.264 . S
O1661 Mn1656 2.095 . S
O1661 C1670 1.250 . S
O1662 Mn1657 2.121 . S
O1662 C1670 1.258 . S
C1663 N1664 1.326 . S
C1663 C1667 1.460 . S
C1663 H1669 0.929 . S
N1664 Mn1657 2.257 . S
N1664 C1663 1.326 . S
N1664 C1668 1.362 . S
C1665 C1666 1.258 . S
C1665 C1668 1.431 . S
C1665 C1685 1.449 . S
C1666 C1665 1.258 . S
C1666 C1667 1.477 . S
C1666 H1686 0.931 . S
C1667 C1663 1.460 . S
C1667 C1666 1.477 . S
C1667 H1687 0.930 . S
C1668 N1664 1.362 . S
C1668 C1665 1.431 . S
C1668 C1678 1.476 . S
H1669 C1663 0.929 . S
C1670 O1661 1.250 . S
C1670 O1662 1.258 . S
O1671 Mn1656 2.162 . S
O1671 C1659 1.281 . S
O1672 Mn1656 2.297 . S
O1672 C1659 1.236 . S
N1673 Mn1657 2.282 . S
N1673 C1674 1.328 1_556 S
N1673 C1678 1.318 . S
C1674 N1673 1.328 1_554 S
C1674 C1675 1.457 . S
C1674 H1679 0.929 . S
C1675 C1674 1.457 . S
C1675 C1676 1.291 . S
C1675 H1688 0.931 . S
C1676 C1675 1.291 . S
C1676 C1677 1.373 1_554 S
C1676 H1689 0.929 . S
C1677 C1676 1.373 1_556 S
C1677 C1678 1.396 . S
C1677 C1684 1.403 . S
C1678 C1668 1.476 . S
C1678 N1673 1.318 . S
C1678 C1677 1.396 . S
H1679 C1674 0.929 . S
O1680 Mn1656 2.385 . S
O1680 C1658 1.234 . S
O1681 Mn1656 2.209 . S
O1681 Mn1657 2.215 . S
O1681 C1658 1.283 . S
O1682 Mn1656 2.094 . S
O1682 C1660 1.240 . S
O1683 Mn1657 2.117 . S
O1683 C1660 1.264 . S
C1684 C1677 1.403 . S
C1684 C1685 1.399 . S
C1684 H1690 0.929 . S
C1685 C1665 1.449 . S
C1685 C1684 1.399 . S
C1685 H1691 0.930 . S
H1686 C1666 0.931 . S
H1687 C1667 0.930 . S
H1688 C1675 0.931 . S
H1689 C1676 0.929 . S
H1690 C1684 0.929 . S
H1691 C1685 0.930 . S
Mn1692 O1697 2.095 . S
Mn1692 O1707 2.162 . S
Mn1692 O1708 2.297 . S
Mn1692 O1716 2.385 . S
Mn1692 O1717 2.209 . S
Mn1692 O1718 2.094 . S
Mn1693 O1698 2.121 . S
Mn1693 N1700 2.257 . S
Mn1693 N1709 2.282 . S
Mn1693 O1717 2.215 . S
Mn1693 O1719 2.117 . S
C1694 O1716 1.234 . S
C1694 O1717 1.283 . S
C1695 O1707 1.281 . S
C1695 O1708 1.236 . S
C1696 O1718 1.240 . S
C1696 O1719 1.264 . S
O1697 Mn1692 2.095 . S
O1697 C1706 1.250 . S
O1698 Mn1693 2.121 . S
O1698 C1706 1.258 . S
C1699 N1700 1.326 . S
C1699 C1703 1.460 . S
C1699 H1705 0.929 . S
N1700 Mn1693 2.257 . S
N1700 C1699 1.326 . S
N1700 C1704 1.362 . S
C1701 C1702 1.258 . S
C1701 C1704 1.431 . S
C1701 C1721 1.449 . S
C1702 C1701 1.258 . S
C1702 C1703 1.477 . S
C1702 H1722 0.931 . S
C1703 C1699 1.460 . S
C1703 C1702 1.477 . S
C1703 H1723 0.930 . S
C1704 N1700 1.362 . S
C1704 C1701 1.431 . S
C1704 C1714 1.476 . S
H1705 C1699 0.929 . S
C1706 O1697 1.250 . S
C1706 O1698 1.258 . S
O1707 Mn1692 2.162 . S
O1707 C1695 1.281 . S
O1708 Mn1692 2.297 . S
O1708 C1695 1.236 . S
N1709 Mn1693 2.282 . S
N1709 C1710 1.328 1_556 S
N1709 C1714 1.318 . S
C1710 N1709 1.328 1_554 S
C1710 C1711 1.457 . S
C1710 H1715 0.929 . S
C1711 C1710 1.457 . S
C1711 C1712 1.291 . S
C1711 H1724 0.931 . S
C1712 C1711 1.291 . S
C1712 C1713 1.373 1_554 S
C1712 H1725 0.929 . S
C1713 C1712 1.373 1_556 S
C1713 C1714 1.396 . S
C1713 C1720 1.403 . S
C1714 C1704 1.476 . S
C1714 N1709 1.318 . S
C1714 C1713 1.396 . S
H1715 C1710 0.929 . S
O1716 Mn1692 2.385 . S
O1716 C1694 1.234 . S
O1717 Mn1692 2.209 . S
O1717 Mn1693 2.215 . S
O1717 C1694 1.283 . S
O1718 Mn1692 2.094 . S
O1718 C1696 1.240 . S
O1719 Mn1693 2.117 . S
O1719 C1696 1.264 . S
C1720 C1713 1.403 . S
C1720 C1721 1.399 . S
C1720 H1726 0.929 . S
C1721 C1701 1.449 . S
C1721 C1720 1.399 . S
C1721 H1727 0.930 . S
H1722 C1702 0.931 . S
H1723 C1703 0.930 . S
H1724 C1711 0.931 . S
H1725 C1712 0.929 . S
H1726 C1720 0.929 . S
H1727 C1721 0.930 . S
Mn1728 O1733 2.095 . S
Mn1728 O1743 2.162 . S
Mn1728 O1744 2.297 . S
Mn1728 O1752 2.385 . S
Mn1728 O1753 2.209 . S
Mn1728 O1754 2.094 . S
Mn1729 O1734 2.121 . S
Mn1729 N1736 2.257 1_556 S
Mn1729 N1745 2.282 1_556 S
Mn1729 O1753 2.215 . S
Mn1729 O1755 2.117 . S
C1730 O1752 1.234 . S
C1730 O1753 1.283 . S
C1731 O1743 1.281 . S
C1731 O1744 1.236 . S
C1732 O1754 1.240 . S
C1732 O1755 1.264 . S
O1733 Mn1728 2.095 . S
O1733 C1742 1.250 . S
O1734 Mn1729 2.121 . S
O1734 C1742 1.258 . S
C1735 N1736 1.326 . S
C1735 C1739 1.460 . S
C1735 H1741 0.929 1_554 S
N1736 Mn1729 2.257 1_554 S
N1736 C1735 1.326 . S
N1736 C1740 1.362 . S
C1737 C1738 1.258 . S
C1737 C1740 1.431 . S
C1737 C1757 1.449 . S
C1738 C1737 1.258 . S
C1738 C1739 1.477 . S
C1738 H1758 0.931 . S
C1739 C1735 1.460 . S
C1739 C1738 1.477 . S
C1739 H1759 0.930 . S
C1740 N1736 1.362 . S
C1740 C1737 1.431 . S
C1740 C1750 1.476 . S
H1741 C1735 0.929 1_556 S
C1742 O1733 1.250 . S
C1742 O1734 1.258 . S
O1743 Mn1728 2.162 . S
O1743 C1731 1.281 . S
O1744 Mn1728 2.297 . S
O1744 C1731 1.236 . S
N1745 Mn1729 2.282 1_554 S
N1745 C1746 1.328 . S
N1745 C1750 1.318 . S
C1746 N1745 1.328 . S
C1746 C1747 1.457 . S
C1746 H1751 0.929 1_554 S
C1747 C1746 1.457 . S
C1747 C1748 1.291 . S
C1747 H1760 0.931 . S
C1748 C1747 1.291 . S
C1748 C1749 1.373 . S
C1748 H1761 0.929 . S
C1749 C1748 1.373 . S
C1749 C1750 1.396 . S
C1749 C1756 1.403 . S
C1750 C1740 1.476 . S
C1750 N1745 1.318 . S
C1750 C1749 1.396 . S
H1751 C1746 0.929 1_556 S
O1752 Mn1728 2.385 . S
O1752 C1730 1.234 . S
O1753 Mn1728 2.209 . S
O1753 Mn1729 2.215 . S
O1753 C1730 1.283 . S
O1754 Mn1728 2.094 . S
O1754 C1732 1.240 . S
O1755 Mn1729 2.117 . S
O1755 C1732 1.264 . S
C1756 C1749 1.403 . S
C1756 C1757 1.399 . S
C1756 H1762 0.929 . S
C1757 C1737 1.449 . S
C1757 C1756 1.399 . S
C1757 H1763 0.930 . S
H1758 C1738 0.931 . S
H1759 C1739 0.930 . S
H1760 C1747 0.931 . S
H1761 C1748 0.929 . S
H1762 C1756 0.929 . S
H1763 C1757 0.930 . S
Mn1764 O1769 2.095 . S
Mn1764 O1779 2.162 . S
Mn1764 O1780 2.297 . S
Mn1764 O1788 2.385 . S
Mn1764 O1789 2.209 . S
Mn1764 O1790 2.094 . S
Mn1765 O1770 2.121 . S
Mn1765 N1772 2.257 1_556 S
Mn1765 N1781 2.282 1_556 S
Mn1765 O1789 2.215 . S
Mn1765 O1791 2.117 . S
C1766 O1788 1.234 . S
C1766 O1789 1.283 . S
C1767 O1779 1.281 . S
C1767 O1780 1.236 . S
C1768 O1790 1.240 . S
C1768 O1791 1.264 . S
O1769 Mn1764 2.095 . S
O1769 C1778 1.250 . S
O1770 Mn1765 2.121 . S
O1770 C1778 1.258 . S
C1771 N1772 1.326 . S
C1771 C1775 1.460 . S
C1771 H1777 0.929 1_554 S
N1772 Mn1765 2.257 1_554 S
N1772 C1771 1.326 . S
N1772 C1776 1.362 . S
C1773 C1774 1.258 . S
C1773 C1776 1.431 . S
C1773 C1793 1.449 . S
C1774 C1773 1.258 . S
C1774 C1775 1.477 . S
C1774 H1794 0.931 . S
C1775 C1771 1.460 . S
C1775 C1774 1.477 . S
C1775 H1795 0.930 . S
C1776 N1772 1.362 . S
C1776 C1773 1.431 . S
C1776 C1786 1.476 . S
H1777 C1771 0.929 1_556 S
C1778 O1769 1.250 . S
C1778 O1770 1.258 . S
O1779 Mn1764 2.162 . S
O1779 C1767 1.281 . S
O1780 Mn1764 2.297 . S
O1780 C1767 1.236 . S
N1781 Mn1765 2.282 1_554 S
N1781 C1782 1.328 . S
N1781 C1786 1.318 . S
C1782 N1781 1.328 . S
C1782 C1783 1.457 . S
C1782 H1787 0.929 1_554 S
C1783 C1782 1.457 . S
C1783 C1784 1.291 . S
C1783 H1796 0.931 . S
C1784 C1783 1.291 . S
C1784 C1785 1.373 . S
C1784 H1797 0.929 . S
C1785 C1784 1.373 . S
C1785 C1786 1.396 . S
C1785 C1792 1.403 . S
C1786 C1776 1.476 . S
C1786 N1781 1.318 . S
C1786 C1785 1.396 . S
H1787 C1782 0.929 1_556 S
O1788 Mn1764 2.385 . S
O1788 C1766 1.234 . S
O1789 Mn1764 2.209 . S
O1789 Mn1765 2.215 . S
O1789 C1766 1.283 . S
O1790 Mn1764 2.094 . S
O1790 C1768 1.240 . S
O1791 Mn1765 2.117 . S
O1791 C1768 1.264 . S
C1792 C1785 1.403 . S
C1792 C1793 1.399 . S
C1792 H1798 0.929 . S
C1793 C1773 1.449 . S
C1793 C1792 1.399 . S
C1793 H1799 0.930 . S
H1794 C1774 0.931 . S
H1795 C1775 0.930 . S
H1796 C1783 0.931 . S
H1797 C1784 0.929 . S
H1798 C1792 0.929 . S
H1799 C1793 0.930 . S
Mn1800 O1805 2.095 . S
Mn1800 O1815 2.162 . S
Mn1800 O1816 2.297 . S
Mn1800 O1824 2.385 . S
Mn1800 O1825 2.209 . S
Mn1800 O1826 2.094 . S
Mn1801 O1806 2.121 . S
Mn1801 N1808 2.257 1_556 S
Mn1801 N1817 2.282 1_556 S
Mn1801 O1825 2.215 . S
Mn1801 O1827 2.117 . S
C1802 O1824 1.234 . S
C1802 O1825 1.283 . S
C1803 O1815 1.281 . S
C1803 O1816 1.236 . S
C1804 O1826 1.240 . S
C1804 O1827 1.264 . S
O1805 Mn1800 2.095 . S
O1805 C1814 1.250 . S
O1806 Mn1801 2.121 . S
O1806 C1814 1.258 . S
C1807 N1808 1.326 . S
C1807 C1811 1.460 . S
C1807 H1813 0.929 1_554 S
N1808 Mn1801 2.257 1_554 S
N1808 C1807 1.326 . S
N1808 C1812 1.362 . S
C1809 C1810 1.258 . S
C1809 C1812 1.431 . S
C1809 C1829 1.449 . S
C1810 C1809 1.258 . S
C1810 C1811 1.477 . S
C1810 H1830 0.931 . S
C1811 C1807 1.460 . S
C1811 C1810 1.477 . S
C1811 H1831 0.930 . S
C1812 N1808 1.362 . S
C1812 C1809 1.431 . S
C1812 C1822 1.476 . S
H1813 C1807 0.929 1_556 S
C1814 O1805 1.250 . S
C1814 O1806 1.258 . S
O1815 Mn1800 2.162 . S
O1815 C1803 1.281 . S
O1816 Mn1800 2.297 . S
O1816 C1803 1.236 . S
N1817 Mn1801 2.282 1_554 S
N1817 C1818 1.328 . S
N1817 C1822 1.318 . S
C1818 N1817 1.328 . S
C1818 C1819 1.457 . S
C1818 H1823 0.929 1_554 S
C1819 C1818 1.457 . S
C1819 C1820 1.291 . S
C1819 H1832 0.931 . S
C1820 C1819 1.291 . S
C1820 C1821 1.373 . S
C1820 H1833 0.929 . S
C1821 C1820 1.373 . S
C1821 C1822 1.396 . S
C1821 C1828 1.403 . S
C1822 C1812 1.476 . S
C1822 N1817 1.318 . S
C1822 C1821 1.396 . S
H1823 C1818 0.929 1_556 S
O1824 Mn1800 2.385 . S
O1824 C1802 1.234 . S
O1825 Mn1800 2.209 . S
O1825 Mn1801 2.215 . S
O1825 C1802 1.283 . S
O1826 Mn1800 2.094 . S
O1826 C1804 1.240 . S
O1827 Mn1801 2.117 . S
O1827 C1804 1.264 . S
C1828 C1821 1.403 . S
C1828 C1829 1.399 . S
C1828 H1834 0.929 . S
C1829 C1809 1.449 . S
C1829 C1828 1.399 . S
C1829 H1835 0.930 . S
H1830 C1810 0.931 . S
H1831 C1811 0.930 . S
H1832 C1819 0.931 . S
H1833 C1820 0.929 . S
H1834 C1828 0.929 . S
H1835 C1829 0.930 . S
Mn1836 O1841 2.095 . S
Mn1836 O1851 2.162 . S
Mn1836 O1852 2.297 . S
Mn1836 O1860 2.385 . S
Mn1836 O1861 2.209 . S
Mn1836 O1862 2.094 . S
Mn1837 O1842 2.121 . S
Mn1837 N1844 2.257 1_556 S
Mn1837 N1853 2.282 1_556 S
Mn1837 O1861 2.215 . S
Mn1837 O1863 2.117 . S
C1838 O1860 1.234 . S
C1838 O1861 1.283 . S
C1839 O1851 1.281 . S
C1839 O1852 1.236 . S
C1840 O1862 1.240 . S
C1840 O1863 1.264 . S
O1841 Mn1836 2.095 . S
O1841 C1850 1.250 . S
O1842 Mn1837 2.121 . S
O1842 C1850 1.258 . S
C1843 N1844 1.326 . S
C1843 C1847 1.460 . S
C1843 H1849 0.929 1_554 S
N1844 Mn1837 2.257 1_554 S
N1844 C1843 1.326 . S
N1844 C1848 1.362 . S
C1845 C1846 1.258 . S
C1845 C1848 1.431 . S
C1845 C1865 1.449 . S
C1846 C1845 1.258 . S
C1846 C1847 1.477 . S
C1846 H1866 0.931 . S
C1847 C1843 1.460 . S
C1847 C1846 1.477 . S
C1847 H1867 0.930 . S
C1848 N1844 1.362 . S
C1848 C1845 1.431 . S
C1848 C1858 1.476 . S
H1849 C1843 0.929 1_556 S
C1850 O1841 1.250 . S
C1850 O1842 1.258 . S
O1851 Mn1836 2.162 . S
O1851 C1839 1.281 . S
O1852 Mn1836 2.297 . S
O1852 C1839 1.236 . S
N1853 Mn1837 2.282 1_554 S
N1853 C1854 1.328 . S
N1853 C1858 1.318 . S
C1854 N1853 1.328 . S
C1854 C1855 1.457 . S
C1854 H1859 0.929 1_554 S
C1855 C1854 1.457 . S
C1855 C1856 1.291 . S
C1855 H1868 0.931 . S
C1856 C1855 1.291 . S
C1856 C1857 1.373 . S
C1856 H1869 0.929 . S
C1857 C1856 1.373 . S
C1857 C1858 1.396 . S
C1857 C1864 1.403 . S
C1858 C1848 1.476 . S
C1858 N1853 1.318 . S
C1858 C1857 1.396 . S
H1859 C1854 0.929 1_556 S
O1860 Mn1836 2.385 . S
O1860 C1838 1.234 . S
O1861 Mn1836 2.209 . S
O1861 Mn1837 2.215 . S
O1861 C1838 1.283 . S
O1862 Mn1836 2.094 . S
O1862 C1840 1.240 . S
O1863 Mn1837 2.117 . S
O1863 C1840 1.264 . S
C1864 C1857 1.403 . S
C1864 C1865 1.399 . S
C1864 H1870 0.929 . S
C1865 C1845 1.449 . S
C1865 C1864 1.399 . S
C1865 H1871 0.930 . S
H1866 C1846 0.931 . S
H1867 C1847 0.930 . S
H1868 C1855 0.931 . S
H1869 C1856 0.929 . S
H1870 C1864 0.929 . S
H1871 C1865 0.930 . S
Mn1872 O1877 2.095 . S
Mn1872 O1887 2.162 . S
Mn1872 O1888 2.297 . S
Mn1872 O1896 2.385 . S
Mn1872 O1897 2.209 . S
Mn1872 O1898 2.094 . S
Mn1873 O1878 2.121 . S
Mn1873 N1880 2.257 1_554 S
Mn1873 N1889 2.282 1_554 S
Mn1873 O1897 2.215 . S
Mn1873 O1899 2.117 . S
C1874 O1896 1.234 . S
C1874 O1897 1.283 . S
C1875 O1887 1.281 . S
C1875 O1888 1.236 . S
C1876 O1898 1.240 . S
C1876 O1899 1.264 . S
O1877 Mn1872 2.095 . S
O1877 C1886 1.250 . S
O1878 Mn1873 2.121 . S
O1878 C1886 1.258 . S
C1879 N1880 1.326 . S
C1879 C1883 1.460 . S
C1879 H1885 0.929 1_556 S
N1880 Mn1873 2.257 1_556 S
N1880 C1879 1.326 . S
N1880 C1884 1.362 . S
C1881 C1882 1.258 . S
C1881 C1884 1.431 . S
C1881 C1901 1.449 . S
C1882 C1881 1.258 . S
C1882 C1883 1.477 . S
C1882 H1902 0.931 . S
C1883 C1879 1.460 . S
C1883 C1882 1.477 . S
C1883 H1903 0.930 . S
C1884 N1880 1.362 . S
C1884 C1881 1.431 . S
C1884 C1894 1.476 . S
H1885 C1879 0.929 1_554 S
C1886 O1877 1.250 . S
C1886 O1878 1.258 . S
O1887 Mn1872 2.162 . S
O1887 C1875 1.281 . S
O1888 Mn1872 2.297 . S
O1888 C1875 1.236 . S
N1889 Mn1873 2.282 1_556 S
N1889 C1890 1.328 . S
N1889 C1894 1.318 . S
C1890 N1889 1.328 . S
C1890 C1891 1.457 . S
C1890 H1895 0.929 1_556 S
C1891 C1890 1.457 . S
C1891 C1892 1.291 . S
C1891 H1904 0.931 . S
C1892 C1891 1.291 . S
C1892 C1893 1.373 . S
C1892 H1905 0.929 . S
C1893 C1892 1.373 . S
C1893 C1894 1.396 . S
C1893 C1900 1.403 . S
C1894 C1884 1.476 . S
C1894 N1889 1.318 . S
C1894 C1893 1.396 . S
H1895 C1890 0.929 1_554 S
O1896 Mn1872 2.385 . S
O1896 C1874 1.234 . S
O1897 Mn1872 2.209 . S
O1897 Mn1873 2.215 . S
O1897 C1874 1.283 . S
O1898 Mn1872 2.094 . S
O1898 C1876 1.240 . S
O1899 Mn1873 2.117 . S
O1899 C1876 1.264 . S
C1900 C1893 1.403 . S
C1900 C1901 1.399 . S
C1900 H1906 0.929 . S
C1901 C1881 1.449 . S
C1901 C1900 1.399 . S
C1901 H1907 0.930 . S
H1902 C1882 0.931 . S
H1903 C1883 0.930 . S
H1904 C1891 0.931 . S
H1905 C1892 0.929 . S
H1906 C1900 0.929 . S
H1907 C1901 0.930 . S
Mn1908 O1913 2.095 . S
Mn1908 O1923 2.162 . S
Mn1908 O1924 2.297 . S
Mn1908 O1932 2.385 . S
Mn1908 O1933 2.209 . S
Mn1908 O1934 2.094 . S
Mn1909 O1914 2.121 . S
Mn1909 N1916 2.257 1_554 S
Mn1909 N1925 2.282 1_554 S
Mn1909 O1933 2.215 . S
Mn1909 O1935 2.117 . S
C1910 O1932 1.234 . S
C1910 O1933 1.283 . S
C1911 O1923 1.281 . S
C1911 O1924 1.236 . S
C1912 O1934 1.240 . S
C1912 O1935 1.264 . S
O1913 Mn1908 2.095 . S
O1913 C1922 1.250 . S
O1914 Mn1909 2.121 . S
O1914 C1922 1.258 . S
C1915 N1916 1.326 . S
C1915 C1919 1.460 . S
C1915 H1921 0.929 1_556 S
N1916 Mn1909 2.257 1_556 S
N1916 C1915 1.326 . S
N1916 C1920 1.362 . S
C1917 C1918 1.258 . S
C1917 C1920 1.431 . S
C1917 C1937 1.449 . S
C1918 C1917 1.258 . S
C1918 C1919 1.477 . S
C1918 H1938 0.931 . S
C1919 C1915 1.460 . S
C1919 C1918 1.477 . S
C1919 H1939 0.930 . S
C1920 N1916 1.362 . S
C1920 C1917 1.431 . S
C1920 C1930 1.476 . S
H1921 C1915 0.929 1_554 S
C1922 O1913 1.250 . S
C1922 O1914 1.258 . S
O1923 Mn1908 2.162 . S
O1923 C1911 1.281 . S
O1924 Mn1908 2.297 . S
O1924 C1911 1.236 . S
N1925 Mn1909 2.282 1_556 S
N1925 C1926 1.328 . S
N1925 C1930 1.318 . S
C1926 N1925 1.328 . S
C1926 C1927 1.457 . S
C1926 H1931 0.929 1_556 S
C1927 C1926 1.457 . S
C1927 C1928 1.291 . S
C1927 H1940 0.931 . S
C1928 C1927 1.291 . S
C1928 C1929 1.373 . S
C1928 H1941 0.929 . S
C1929 C1928 1.373 . S
C1929 C1930 1.396 . S
C1929 C1936 1.403 . S
C1930 C1920 1.476 . S
C1930 N1925 1.318 . S
C1930 C1929 1.396 . S
H1931 C1926 0.929 1_554 S
O1932 Mn1908 2.385 . S
O1932 C1910 1.234 . S
O1933 Mn1908 2.209 . S
O1933 Mn1909 2.215 . S
O1933 C1910 1.283 . S
O1934 Mn1908 2.094 . S
O1934 C1912 1.240 . S
O1935 Mn1909 2.117 . S
O1935 C1912 1.264 . S
C1936 C1929 1.403 . S
C1936 C1937 1.399 . S
C1936 H1942 0.929 . S
C1937 C1917 1.449 . S
C1937 C1936 1.399 . S
C1937 H1943 0.930 . S
H1938 C1918 0.931 . S
H1939 C1919 0.930 . S
H1940 C1927 0.931 . S
H1941 C1928 0.929 . S
H1942 C1936 0.929 . S
H1943 C1937 0.930 . S
Mn1944 O1949 2.095 . S
Mn1944 O1959 2.162 . S
Mn1944 O1960 2.297 . S
Mn1944 O1968 2.385 . S
Mn1944 O1969 2.209 . S
Mn1944 O1970 2.094 . S
Mn1945 O1950 2.121 . S
Mn1945 N1952 2.257 1_554 S
Mn1945 N1961 2.282 1_554 S
Mn1945 O1969 2.215 . S
Mn1945 O1971 2.117 . S
C1946 O1968 1.234 . S
C1946 O1969 1.283 . S
C1947 O1959 1.281 . S
C1947 O1960 1.236 . S
C1948 O1970 1.240 . S
C1948 O1971 1.264 . S
O1949 Mn1944 2.095 . S
O1949 C1958 1.250 . S
O1950 Mn1945 2.121 . S
O1950 C1958 1.258 . S
C1951 N1952 1.326 . S
C1951 C1955 1.460 . S
C1951 H1957 0.929 1_556 S
N1952 Mn1945 2.257 1_556 S
N1952 C1951 1.326 . S
N1952 C1956 1.362 . S
C1953 C1954 1.258 . S
C1953 C1956 1.431 . S
C1953 C1973 1.449 . S
C1954 C1953 1.258 . S
C1954 C1955 1.477 . S
C1954 H1974 0.931 . S
C1955 C1951 1.460 . S
C1955 C1954 1.477 . S
C1955 H1975 0.930 . S
C1956 N1952 1.362 . S
C1956 C1953 1.431 . S
C1956 C1966 1.476 . S
H1957 C1951 0.929 1_554 S
C1958 O1949 1.250 . S
C1958 O1950 1.258 . S
O1959 Mn1944 2.162 . S
O1959 C1947 1.281 . S
O1960 Mn1944 2.297 . S
O1960 C1947 1.236 . S
N1961 Mn1945 2.282 1_556 S
N1961 C1962 1.328 . S
N1961 C1966 1.318 . S
C1962 N1961 1.328 . S
C1962 C1963 1.457 . S
C1962 H1967 0.929 1_556 S
C1963 C1962 1.457 . S
C1963 C1964 1.291 . S
C1963 H1976 0.931 . S
C1964 C1963 1.291 . S
C1964 C1965 1.373 . S
C1964 H1977 0.929 . S
C1965 C1964 1.373 . S
C1965 C1966 1.396 . S
C1965 C1972 1.403 . S
C1966 C1956 1.476 . S
C1966 N1961 1.318 . S
C1966 C1965 1.396 . S
H1967 C1962 0.929 1_554 S
O1968 Mn1944 2.385 . S
O1968 C1946 1.234 . S
O1969 Mn1944 2.209 . S
O1969 Mn1945 2.215 . S
O1969 C1946 1.283 . S
O1970 Mn1944 2.094 . S
O1970 C1948 1.240 . S
O1971 Mn1945 2.117 . S
O1971 C1948 1.264 . S
C1972 C1965 1.403 . S
C1972 C1973 1.399 . S
C1972 H1978 0.929 . S
C1973 C1953 1.449 . S
C1973 C1972 1.399 . S
C1973 H1979 0.930 . S
H1974 C1954 0.931 . S
H1975 C1955 0.930 . S
H1976 C1963 0.931 . S
H1977 C1964 0.929 . S
H1978 C1972 0.929 . S
H1979 C1973 0.930 . S
Mn1980 O1985 2.095 . S
Mn1980 O1995 2.162 . S
Mn1980 O1996 2.297 . S
Mn1980 O2004 2.385 . S
Mn1980 O2005 2.209 . S
Mn1980 O2006 2.094 . S
Mn1981 O1986 2.121 . S
Mn1981 N1988 2.257 1_554 S
Mn1981 N1997 2.282 1_554 S
Mn1981 O2005 2.215 . S
Mn1981 O2007 2.117 . S
C1982 O2004 1.234 . S
C1982 O2005 1.283 . S
C1983 O1995 1.281 . S
C1983 O1996 1.236 . S
C1984 O2006 1.240 . S
C1984 O2007 1.264 . S
O1985 Mn1980 2.095 . S
O1985 C1994 1.250 . S
O1986 Mn1981 2.121 . S
O1986 C1994 1.258 . S
C1987 N1988 1.326 . S
C1987 C1991 1.460 . S
C1987 H1993 0.929 1_556 S
N1988 Mn1981 2.257 1_556 S
N1988 C1987 1.326 . S
N1988 C1992 1.362 . S
C1989 C1990 1.258 . S
C1989 C1992 1.431 . S
C1989 C2009 1.449 . S
C1990 C1989 1.258 . S
C1990 C1991 1.477 . S
C1990 H2010 0.931 . S
C1991 C1987 1.460 . S
C1991 C1990 1.477 . S
C1991 H2011 0.930 . S
C1992 N1988 1.362 . S
C1992 C1989 1.431 . S
C1992 C2002 1.476 . S
H1993 C1987 0.929 1_554 S
C1994 O1985 1.250 . S
C1994 O1986 1.258 . S
O1995 Mn1980 2.162 . S
O1995 C1983 1.281 . S
O1996 Mn1980 2.297 . S
O1996 C1983 1.236 . S
N1997 Mn1981 2.282 1_556 S
N1997 C1998 1.328 . S
N1997 C2002 1.318 . S
C1998 N1997 1.328 . S
C1998 C1999 1.457 . S
C1998 H2003 0.929 1_556 S
C1999 C1998 1.457 . S
C1999 C2000 1.291 . S
C1999 H2012 0.931 . S
C2000 C1999 1.291 . S
C2000 C2001 1.373 . S
C2000 H2013 0.929 . S
C2001 C2000 1.373 . S
C2001 C2002 1.396 . S
C2001 C2008 1.403 . S
C2002 C1992 1.476 . S
C2002 N1997 1.318 . S
C2002 C2001 1.396 . S
H2003 C1998 0.929 1_554 S
O2004 Mn1980 2.385 . S
O2004 C1982 1.234 . S
O2005 Mn1980 2.209 . S
O2005 Mn1981 2.215 . S
O2005 C1982 1.283 . S
O2006 Mn1980 2.094 . S
O2006 C1984 1.240 . S
O2007 Mn1981 2.117 . S
O2007 C1984 1.264 . S
C2008 C2001 1.403 . S
C2008 C2009 1.399 . S
C2008 H2014 0.929 . S
C2009 C1989 1.449 . S
C2009 C2008 1.399 . S
C2009 H2015 0.930 . S
H2010 C1990 0.931 . S
H2011 C1991 0.930 . S
H2012 C1999 0.931 . S
H2013 C2000 0.929 . S
H2014 C2008 0.929 . S
H2015 C2009 0.930 . S
Mn2016 O2021 2.095 . S
Mn2016 O2031 2.162 . S
Mn2016 O2032 2.297 . S
Mn2016 O2040 2.385 . S
Mn2016 O2041 2.209 . S
Mn2016 O2042 2.094 . S
Mn2017 O2022 2.121 . S
Mn2017 N2024 2.257 1_655 S
Mn2017 N2033 2.282 1_655 S
Mn2017 O2041 2.215 . S
Mn2017 O2043 2.117 . S
C2018 O2040 1.234 . S
C2018 O2041 1.283 . S
C2019 O2031 1.281 . S
C2019 O2032 1.236 . S
C2020 O2042 1.240 . S
C2020 O2043 1.264 . S
O2021 Mn2016 2.095 . S
O2021 C2030 1.250 . S
O2022 Mn2017 2.121 . S
O2022 C2030 1.258 . S
C2023 N2024 1.326 . S
C2023 C2027 1.460 . S
C2023 H2029 0.929 1_455 S
N2024 Mn2017 2.257 1_455 S
N2024 C2023 1.326 . S
N2024 C2028 1.362 . S
C2025 C2026 1.258 . S
C2025 C2028 1.431 . S
C2025 C2045 1.449 . S
C2026 C2025 1.258 . S
C2026 C2027 1.477 . S
C2026 H2046 0.931 . S
C2027 C2023 1.460 . S
C2027 C2026 1.477 . S
C2027 H2047 0.930 . S
C2028 N2024 1.362 . S
C2028 C2025 1.431 . S
C2028 C2038 1.476 . S
H2029 C2023 0.929 1_655 S
C2030 O2021 1.250 . S
C2030 O2022 1.258 . S
O2031 Mn2016 2.162 . S
O2031 C2019 1.281 . S
O2032 Mn2016 2.297 . S
O2032 C2019 1.236 . S
N2033 Mn2017 2.282 1_455 S
N2033 C2034 1.328 . S
N2033 C2038 1.318 . S
C2034 N2033 1.328 . S
C2034 C2035 1.457 . S
C2034 H2039 0.929 1_455 S
C2035 C2034 1.457 . S
C2035 C2036 1.291 . S
C2035 H2048 0.931 . S
C2036 C2035 1.291 . S
C2036 C2037 1.373 . S
C2036 H2049 0.929 . S
C2037 C2036 1.373 . S
C2037 C2038 1.396 . S
C2037 C2044 1.403 . S
C2038 C2028 1.476 . S
C2038 N2033 1.318 . S
C2038 C2037 1.396 . S
H2039 C2034 0.929 1_655 S
O2040 Mn2016 2.385 . S
O2040 C2018 1.234 . S
O2041 Mn2016 2.209 . S
O2041 Mn2017 2.215 . S
O2041 C2018 1.283 . S
O2042 Mn2016 2.094 . S
O2042 C2020 1.240 . S
O2043 Mn2017 2.117 . S
O2043 C2020 1.264 . S
C2044 C2037 1.403 . S
C2044 C2045 1.399 . S
C2044 H2050 0.929 . S
C2045 C2025 1.449 . S
C2045 C2044 1.399 . S
C2045 H2051 0.930 . S
H2046 C2026 0.931 . S
H2047 C2027 0.930 . S
H2048 C2035 0.931 . S
H2049 C2036 0.929 . S
H2050 C2044 0.929 . S
H2051 C2045 0.930 . S
Mn2052 O2057 2.095 . S
Mn2052 O2067 2.162 . S
Mn2052 O2068 2.297 . S
Mn2052 O2076 2.385 . S
Mn2052 O2077 2.209 . S
Mn2052 O2078 2.094 . S
Mn2053 O2058 2.121 . S
Mn2053 N2060 2.257 1_565 S
Mn2053 N2069 2.282 1_565 S
Mn2053 O2077 2.215 . S
Mn2053 O2079 2.117 . S
C2054 O2076 1.234 . S
C2054 O2077 1.283 . S
C2055 O2067 1.281 . S
C2055 O2068 1.236 . S
C2056 O2078 1.240 . S
C2056 O2079 1.264 . S
O2057 Mn2052 2.095 . S
O2057 C2066 1.250 . S
O2058 Mn2053 2.121 . S
O2058 C2066 1.258 . S
C2059 N2060 1.326 . S
C2059 C2063 1.460 . S
C2059 H2065 0.929 1_545 S
N2060 Mn2053 2.257 1_545 S
N2060 C2059 1.326 . S
N2060 C2064 1.362 . S
C2061 C2062 1.258 . S
C2061 C2064 1.431 . S
C2061 C2081 1.449 . S
C2062 C2061 1.258 . S
C2062 C2063 1.477 . S
C2062 H2082 0.931 . S
C2063 C2059 1.460 . S
C2063 C2062 1.477 . S
C2063 H2083 0.930 . S
C2064 N2060 1.362 . S
C2064 C2061 1.431 . S
C2064 C2074 1.476 . S
H2065 C2059 0.929 1_565 S
C2066 O2057 1.250 . S
C2066 O2058 1.258 . S
O2067 Mn2052 2.162 . S
O2067 C2055 1.281 . S
O2068 Mn2052 2.297 . S
O2068 C2055 1.236 . S
N2069 Mn2053 2.282 1_545 S
N2069 C2070 1.328 . S
N2069 C2074 1.318 . S
C2070 N2069 1.328 . S
C2070 C2071 1.457 . S
C2070 H2075 0.929 1_545 S
C2071 C2070 1.457 . S
C2071 C2072 1.291 . S
C2071 H2084 0.931 . S
C2072 C2071 1.291 . S
C2072 C2073 1.373 . S
C2072 H2085 0.929 . S
C2073 C2072 1.373 . S
C2073 C2074 1.396 . S
C2073 C2080 1.403 . S
C2074 C2064 1.476 . S
C2074 N2069 1.318 . S
C2074 C2073 1.396 . S
H2075 C2070 0.929 1_565 S
O2076 Mn2052 2.385 . S
O2076 C2054 1.234 . S
O2077 Mn2052 2.209 . S
O2077 Mn2053 2.215 . S
O2077 C2054 1.283 . S
O2078 Mn2052 2.094 . S
O2078 C2056 1.240 . S
O2079 Mn2053 2.117 . S
O2079 C2056 1.264 . S
C2080 C2073 1.403 . S
C2080 C2081 1.399 . S
C2080 H2086 0.929 . S
C2081 C2061 1.449 . S
C2081 C2080 1.399 . S
C2081 H2087 0.930 . S
H2082 C2062 0.931 . S
H2083 C2063 0.930 . S
H2084 C2071 0.931 . S
H2085 C2072 0.929 . S
H2086 C2080 0.929 . S
H2087 C2081 0.930 . S
Mn2088 O2093 2.095 . S
Mn2088 O2103 2.162 . S
Mn2088 O2104 2.297 . S
Mn2088 O2112 2.385 . S
Mn2088 O2113 2.209 . S
Mn2088 O2114 2.094 . S
Mn2089 O2094 2.121 . S
Mn2089 N2096 2.257 1_455 S
Mn2089 N2105 2.282 1_455 S
Mn2089 O2113 2.215 . S
Mn2089 O2115 2.117 . S
C2090 O2112 1.234 . S
C2090 O2113 1.283 . S
C2091 O2103 1.281 . S
C2091 O2104 1.236 . S
C2092 O2114 1.240 . S
C2092 O2115 1.264 . S
O2093 Mn2088 2.095 . S
O2093 C2102 1.250 . S
O2094 Mn2089 2.121 . S
O2094 C2102 1.258 . S
C2095 N2096 1.326 . S
C2095 C2099 1.460 . S
C2095 H2101 0.929 1_655 S
N2096 Mn2089 2.257 1_655 S
N2096 C2095 1.326 . S
N2096 C2100 1.362 . S
C2097 C2098 1.258 . S
C2097 C2100 1.431 . S
C2097 C2117 1.449 . S
C2098 C2097 1.258 . S
C2098 C2099 1.477 . S
C2098 H2118 0.931 . S
C2099 C2095 1.460 . S
C2099 C2098 1.477 . S
C2099 H2119 0.930 . S
C2100 N2096 1.362 . S
C2100 C2097 1.431 . S
C2100 C2110 1.476 . S
H2101 C2095 0.929 1_455 S
C2102 O2093 1.250 . S
C2102 O2094 1.258 . S
O2103 Mn2088 2.162 . S
O2103 C2091 1.281 . S
O2104 Mn2088 2.297 . S
O2104 C2091 1.236 . S
N2105 Mn2089 2.282 1_655 S
N2105 C2106 1.328 . S
N2105 C2110 1.318 . S
C2106 N2105 1.328 . S
C2106 C2107 1.457 . S
C2106 H2111 0.929 1_655 S
C2107 C2106 1.457 . S
C2107 C2108 1.291 . S
C2107 H2120 0.931 . S
C2108 C2107 1.291 . S
C2108 C2109 1.373 . S
C2108 H2121 0.929 . S
C2109 C2108 1.373 . S
C2109 C2110 1.396 . S
C2109 C2116 1.403 . S
C2110 C2100 1.476 . S
C2110 N2105 1.318 . S
C2110 C2109 1.396 . S
H2111 C2106 0.929 1_455 S
O2112 Mn2088 2.385 . S
O2112 C2090 1.234 . S
O2113 Mn2088 2.209 . S
O2113 Mn2089 2.215 . S
O2113 C2090 1.283 . S
O2114 Mn2088 2.094 . S
O2114 C2092 1.240 . S
O2115 Mn2089 2.117 . S
O2115 C2092 1.264 . S
C2116 C2109 1.403 . S
C2116 C2117 1.399 . S
C2116 H2122 0.929 . S
C2117 C2097 1.449 . S
C2117 C2116 1.399 . S
C2117 H2123 0.930 . S
H2118 C2098 0.931 . S
H2119 C2099 0.930 . S
H2120 C2107 0.931 . S
H2121 C2108 0.929 . S
H2122 C2116 0.929 . S
H2123 C2117 0.930 . S
Mn2124 O2129 2.095 . S
Mn2124 O2139 2.162 . S
Mn2124 O2140 2.297 . S
Mn2124 O2148 2.385 . S
Mn2124 O2149 2.209 . S
Mn2124 O2150 2.094 . S
Mn2125 O2130 2.121 . S
Mn2125 N2132 2.257 1_545 S
Mn2125 N2141 2.282 1_545 S
Mn2125 O2149 2.215 . S
Mn2125 O2151 2.117 . S
C2126 O2148 1.234 . S
C2126 O2149 1.283 . S
C2127 O2139 1.281 . S
C2127 O2140 1.236 . S
C2128 O2150 1.240 . S
C2128 O2151 1.264 . S
O2129 Mn2124 2.095 . S
O2129 C2138 1.250 . S
O2130 Mn2125 2.121 . S
O2130 C2138 1.258 . S
C2131 N2132 1.326 . S
C2131 C2135 1.460 . S
C2131 H2137 0.929 1_565 S
N2132 Mn2125 2.257 1_565 S
N2132 C2131 1.326 . S
N2132 C2136 1.362 . S
C2133 C2134 1.258 . S
C2133 C2136 1.431 . S
C2133 C2153 1.449 . S
C2134 C2133 1.258 . S
C2134 C2135 1.477 . S
C2134 H2154 0.931 . S
C2135 C2131 1.460 . S
C2135 C2134 1.477 . S
C2135 H2155 0.930 . S
C2136 N2132 1.362 . S
C2136 C2133 1.431 . S
C2136 C2146 1.476 . S
H2137 C2131 0.929 1_545 S
C2138 O2129 1.250 . S
C2138 O2130 1.258 . S
O2139 Mn2124 2.162 . S
O2139 C2127 1.281 . S
O2140 Mn2124 2.297 . S
O2140 C2127 1.236 . S
N2141 Mn2125 2.282 1_565 S
N2141 C2142 1.328 . S
N2141 C2146 1.318 . S
C2142 N2141 1.328 . S
C2142 C2143 1.457 . S
C2142 H2147 0.929 1_565 S
C2143 C2142 1.457 . S
C2143 C2144 1.291 . S
C2143 H2156 0.931 . S
C2144 C2143 1.291 . S
C2144 C2145 1.373 . S
C2144 H2157 0.929 . S
C2145 C2144 1.373 . S
C2145 C2146 1.396 . S
C2145 C2152 1.403 . S
C2146 C2136 1.476 . S
C2146 N2141 1.318 . S
C2146 C2145 1.396 . S
H2147 C2142 0.929 1_545 S
O2148 Mn2124 2.385 . S
O2148 C2126 1.234 . S
O2149 Mn2124 2.209 . S
O2149 Mn2125 2.215 . S
O2149 C2126 1.283 . S
O2150 Mn2124 2.094 . S
O2150 C2128 1.240 . S
O2151 Mn2125 2.117 . S
O2151 C2128 1.264 . S
C2152 C2145 1.403 . S
C2152 C2153 1.399 . S
C2152 H2158 0.929 . S
C2153 C2133 1.449 . S
C2153 C2152 1.399 . S
C2153 H2159 0.930 . S
H2154 C2134 0.931 . S
H2155 C2135 0.930 . S
H2156 C2143 0.931 . S
H2157 C2144 0.929 . S
H2158 C2152 0.929 . S
H2159 C2153 0.930 . S
Mn2160 O2165 2.095 . S
Mn2160 O2175 2.162 . S
Mn2160 O2176 2.297 . S
Mn2160 O2184 2.385 . S
Mn2160 O2185 2.209 . S
Mn2160 O2186 2.094 . S
Mn2161 O2166 2.121 . S
Mn2161 N2168 2.257 1_655 S
Mn2161 N2177 2.282 1_655 S
Mn2161 O2185 2.215 . S
Mn2161 O2187 2.117 . S
C2162 O2184 1.234 . S
C2162 O2185 1.283 . S
C2163 O2175 1.281 . S
C2163 O2176 1.236 . S
C2164 O2186 1.240 . S
C2164 O2187 1.264 . S
O2165 Mn2160 2.095 . S
O2165 C2174 1.250 . S
O2166 Mn2161 2.121 . S
O2166 C2174 1.258 . S
C2167 N2168 1.326 . S
C2167 C2171 1.460 . S
C2167 H2173 0.929 1_455 S
N2168 Mn2161 2.257 1_455 S
N2168 C2167 1.326 . S
N2168 C2172 1.362 . S
C2169 C2170 1.258 . S
C2169 C2172 1.431 . S
C2169 C2189 1.449 . S
C2170 C2169 1.258 . S
C2170 C2171 1.477 . S
C2170 H2190 0.931 . S
C2171 C2167 1.460 . S
C2171 C2170 1.477 . S
C2171 H2191 0.930 . S
C2172 N2168 1.362 . S
C2172 C2169 1.431 . S
C2172 C2182 1.476 . S
H2173 C2167 0.929 1_655 S
C2174 O2165 1.250 . S
C2174 O2166 1.258 . S
O2175 Mn2160 2.162 . S
O2175 C2163 1.281 . S
O2176 Mn2160 2.297 . S
O2176 C2163 1.236 . S
N2177 Mn2161 2.282 1_455 S
N2177 C2178 1.328 . S
N2177 C2182 1.318 . S
C2178 N2177 1.328 . S
C2178 C2179 1.457 . S
C2178 H2183 0.929 1_455 S
C2179 C2178 1.457 . S
C2179 C2180 1.291 . S
C2179 H2192 0.931 . S
C2180 C2179 1.291 . S
C2180 C2181 1.373 . S
C2180 H2193 0.929 . S
C2181 C2180 1.373 . S
C2181 C2182 1.396 . S
C2181 C2188 1.403 . S
C2182 C2172 1.476 . S
C2182 N2177 1.318 . S
C2182 C2181 1.396 . S
H2183 C2178 0.929 1_655 S
O2184 Mn2160 2.385 . S
O2184 C2162 1.234 . S
O2185 Mn2160 2.209 . S
O2185 Mn2161 2.215 . S
O2185 C2162 1.283 . S
O2186 Mn2160 2.094 . S
O2186 C2164 1.240 . S
O2187 Mn2161 2.117 . S
O2187 C2164 1.264 . S
C2188 C2181 1.403 . S
C2188 C2189 1.399 . S
C2188 H2194 0.929 . S
C2189 C2169 1.449 . S
C2189 C2188 1.399 . S
C2189 H2195 0.930 . S
H2190 C2170 0.931 . S
H2191 C2171 0.930 . S
H2192 C2179 0.931 . S
H2193 C2180 0.929 . S
H2194 C2188 0.929 . S
H2195 C2189 0.930 . S
Mn2196 O2201 2.095 . S
Mn2196 O2211 2.162 . S
Mn2196 O2212 2.297 . S
Mn2196 O2220 2.385 . S
Mn2196 O2221 2.209 . S
Mn2196 O2222 2.094 . S
Mn2197 O2202 2.121 . S
Mn2197 N2204 2.257 1_565 S
Mn2197 N2213 2.282 1_565 S
Mn2197 O2221 2.215 . S
Mn2197 O2223 2.117 . S
C2198 O2220 1.234 . S
C2198 O2221 1.283 . S
C2199 O2211 1.281 . S
C2199 O2212 1.236 . S
C2200 O2222 1.240 . S
C2200 O2223 1.264 . S
O2201 Mn2196 2.095 . S
O2201 C2210 1.250 . S
O2202 Mn2197 2.121 . S
O2202 C2210 1.258 . S
C2203 N2204 1.326 . S
C2203 C2207 1.460 . S
C2203 H2209 0.929 1_545 S
N2204 Mn2197 2.257 1_545 S
N2204 C2203 1.326 . S
N2204 C2208 1.362 . S
C2205 C2206 1.258 . S
C2205 C2208 1.431 . S
C2205 C2225 1.449 . S
C2206 C2205 1.258 . S
C2206 C2207 1.477 . S
C2206 H2226 0.931 . S
C2207 C2203 1.460 . S
C2207 C2206 1.477 . S
C2207 H2227 0.930 . S
C2208 N2204 1.362 . S
C2208 C2205 1.431 . S
C2208 C2218 1.476 . S
H2209 C2203 0.929 1_565 S
C2210 O2201 1.250 . S
C2210 O2202 1.258 . S
O2211 Mn2196 2.162 . S
O2211 C2199 1.281 . S
O2212 Mn2196 2.297 . S
O2212 C2199 1.236 . S
N2213 Mn2197 2.282 1_545 S
N2213 C2214 1.328 . S
N2213 C2218 1.318 . S
C2214 N2213 1.328 . S
C2214 C2215 1.457 . S
C2214 H2219 0.929 1_545 S
C2215 C2214 1.457 . S
C2215 C2216 1.291 . S
C2215 H2228 0.931 . S
C2216 C2215 1.291 . S
C2216 C2217 1.373 . S
C2216 H2229 0.929 . S
C2217 C2216 1.373 . S
C2217 C2218 1.396 . S
C2217 C2224 1.403 . S
C2218 C2208 1.476 . S
C2218 N2213 1.318 . S
C2218 C2217 1.396 . S
H2219 C2214 0.929 1_565 S
O2220 Mn2196 2.385 . S
O2220 C2198 1.234 . S
O2221 Mn2196 2.209 . S
O2221 Mn2197 2.215 . S
O2221 C2198 1.283 . S
O2222 Mn2196 2.094 . S
O2222 C2200 1.240 . S
O2223 Mn2197 2.117 . S
O2223 C2200 1.264 . S
C2224 C2217 1.403 . S
C2224 C2225 1.399 . S
C2224 H2230 0.929 . S
C2225 C2205 1.449 . S
C2225 C2224 1.399 . S
C2225 H2231 0.930 . S
H2226 C2206 0.931 . S
H2227 C2207 0.930 . S
H2228 C2215 0.931 . S
H2229 C2216 0.929 . S
H2230 C2224 0.929 . S
H2231 C2225 0.930 . S
Mn2232 O2237 2.095 . S
Mn2232 O2247 2.162 . S
Mn2232 O2248 2.297 . S
Mn2232 O2256 2.385 . S
Mn2232 O2257 2.209 . S
Mn2232 O2258 2.094 . S
Mn2233 O2238 2.121 . S
Mn2233 N2240 2.257 1_455 S
Mn2233 N2249 2.282 1_455 S
Mn2233 O2257 2.215 . S
Mn2233 O2259 2.117 . S
C2234 O2256 1.234 . S
C2234 O2257 1.283 . S
C2235 O2247 1.281 . S
C2235 O2248 1.236 . S
C2236 O2258 1.240 . S
C2236 O2259 1.264 . S
O2237 Mn2232 2.095 . S
O2237 C2246 1.250 . S
O2238 Mn2233 2.121 . S
O2238 C2246 1.258 . S
C2239 N2240 1.326 . S
C2239 C2243 1.460 . S
C2239 H2245 0.929 1_655 S
N2240 Mn2233 2.257 1_655 S
N2240 C2239 1.326 . S
N2240 C2244 1.362 . S
C2241 C2242 1.258 . S
C2241 C2244 1.431 . S
C2241 C2261 1.449 . S
C2242 C2241 1.258 . S
C2242 C2243 1.477 . S
C2242 H2262 0.931 . S
C2243 C2239 1.460 . S
C2243 C2242 1.477 . S
C2243 H2263 0.930 . S
C2244 N2240 1.362 . S
C2244 C2241 1.431 . S
C2244 C2254 1.476 . S
H2245 C2239 0.929 1_455 S
C2246 O2237 1.250 . S
C2246 O2238 1.258 . S
O2247 Mn2232 2.162 . S
O2247 C2235 1.281 . S
O2248 Mn2232 2.297 . S
O2248 C2235 1.236 . S
N2249 Mn2233 2.282 1_655 S
N2249 C2250 1.328 . S
N2249 C2254 1.318 . S
C2250 N2249 1.328 . S
C2250 C2251 1.457 . S
C2250 H2255 0.929 1_655 S
C2251 C2250 1.457 . S
C2251 C2252 1.291 . S
C2251 H2264 0.931 . S
C2252 C2251 1.291 . S
C2252 C2253 1.373 . S
C2252 H2265 0.929 . S
C2253 C2252 1.373 . S
C2253 C2254 1.396 . S
C2253 C2260 1.403 . S
C2254 C2244 1.476 . S
C2254 N2249 1.318 . S
C2254 C2253 1.396 . S
H2255 C2250 0.929 1_455 S
O2256 Mn2232 2.385 . S
O2256 C2234 1.234 . S
O2257 Mn2232 2.209 . S
O2257 Mn2233 2.215 . S
O2257 C2234 1.283 . S
O2258 Mn2232 2.094 . S
O2258 C2236 1.240 . S
O2259 Mn2233 2.117 . S
O2259 C2236 1.264 . S
C2260 C2253 1.403 . S
C2260 C2261 1.399 . S
C2260 H2266 0.929 . S
C2261 C2241 1.449 . S
C2261 C2260 1.399 . S
C2261 H2267 0.930 . S
H2262 C2242 0.931 . S
H2263 C2243 0.930 . S
H2264 C2251 0.931 . S
H2265 C2252 0.929 . S
H2266 C2260 0.929 . S
H2267 C2261 0.930 . S
Mn2268 O2273 2.095 . S
Mn2268 O2283 2.162 . S
Mn2268 O2284 2.297 . S
Mn2268 O2292 2.385 . S
Mn2268 O2293 2.209 . S
Mn2268 O2294 2.094 . S
Mn2269 O2274 2.121 . S
Mn2269 N2276 2.257 1_545 S
Mn2269 N2285 2.282 1_545 S
Mn2269 O2293 2.215 . S
Mn2269 O2295 2.117 . S
C2270 O2292 1.234 . S
C2270 O2293 1.283 . S
C2271 O2283 1.281 . S
C2271 O2284 1.236 . S
C2272 O2294 1.240 . S
C2272 O2295 1.264 . S
O2273 Mn2268 2.095 . S
O2273 C2282 1.250 . S
O2274 Mn2269 2.121 . S
O2274 C2282 1.258 . S
C2275 N2276 1.326 . S
C2275 C2279 1.460 . S
C2275 H2281 0.929 1_565 S
N2276 Mn2269 2.257 1_565 S
N2276 C2275 1.326 . S
N2276 C2280 1.362 . S
C2277 C2278 1.258 . S
C2277 C2280 1.431 . S
C2277 C2297 1.449 . S
C2278 C2277 1.258 . S
C2278 C2279 1.477 . S
C2278 H2298 0.931 . S
C2279 C2275 1.460 . S
C2279 C2278 1.477 . S
C2279 H2299 0.930 . S
C2280 N2276 1.362 . S
C2280 C2277 1.431 . S
C2280 C2290 1.476 . S
H2281 C2275 0.929 1_545 S
C2282 O2273 1.250 . S
C2282 O2274 1.258 . S
O2283 Mn2268 2.162 . S
O2283 C2271 1.281 . S
O2284 Mn2268 2.297 . S
O2284 C2271 1.236 . S
N2285 Mn2269 2.282 1_565 S
N2285 C2286 1.328 . S
N2285 C2290 1.318 . S
C2286 N2285 1.328 . S
C2286 C2287 1.457 . S
C2286 H2291 0.929 1_565 S
C2287 C2286 1.457 . S
C2287 C2288 1.291 . S
C2287 H2300 0.931 . S
C2288 C2287 1.291 . S
C2288 C2289 1.373 . S
C2288 H2301 0.929 . S
C2289 C2288 1.373 . S
C2289 C2290 1.396 . S
C2289 C2296 1.403 . S
C2290 C2280 1.476 . S
C2290 N2285 1.318 . S
C2290 C2289 1.396 . S
H2291 C2286 0.929 1_545 S
O2292 Mn2268 2.385 . S
O2292 C2270 1.234 . S
O2293 Mn2268 2.209 . S
O2293 Mn2269 2.215 . S
O2293 C2270 1.283 . S
O2294 Mn2268 2.094 . S
O2294 C2272 1.240 . S
O2295 Mn2269 2.117 . S
O2295 C2272 1.264 . S
C2296 C2289 1.403 . S
C2296 C2297 1.399 . S
C2296 H2302 0.929 . S
C2297 C2277 1.449 . S
C2297 C2296 1.399 . S
C2297 H2303 0.930 . S
H2298 C2278 0.931 . S
H2299 C2279 0.930 . S
H2300 C2287 0.931 . S
H2301 C2288 0.929 . S
H2302 C2296 0.929 . S
H2303 C2297 0.930 . S
Mn2304 O2309 2.095 . S
Mn2304 O2319 2.162 . S
Mn2304 O2320 2.297 . S
Mn2304 O2328 2.385 . S
Mn2304 O2329 2.209 . S
Mn2304 O2330 2.094 . S
Mn2305 O2310 2.121 . S
Mn2305 N2312 2.257 1_565 S
Mn2305 N2321 2.282 1_565 S
Mn2305 O2329 2.215 . S
Mn2305 O2331 2.117 . S
C2306 O2328 1.234 . S
C2306 O2329 1.283 . S
C2307 O2319 1.281 . S
C2307 O2320 1.236 . S
C2308 O2330 1.240 . S
C2308 O2331 1.264 . S
O2309 Mn2304 2.095 . S
O2309 C2318 1.250 . S
O2310 Mn2305 2.121 . S
O2310 C2318 1.258 . S
C2311 N2312 1.326 . S
C2311 C2315 1.460 . S
C2311 H2317 0.929 1_545 S
N2312 Mn2305 2.257 1_545 S
N2312 C2311 1.326 . S
N2312 C2316 1.362 . S
C2313 C2314 1.258 . S
C2313 C2316 1.431 . S
C2313 C2333 1.449 . S
C2314 C2313 1.258 . S
C2314 C2315 1.477 . S
C2314 H2334 0.931 . S
C2315 C2311 1.460 . S
C2315 C2314 1.477 . S
C2315 H2335 0.930 . S
C2316 N2312 1.362 . S
C2316 C2313 1.431 . S
C2316 C2326 1.476 . S
H2317 C2311 0.929 1_565 S
C2318 O2309 1.250 . S
C2318 O2310 1.258 . S
O2319 Mn2304 2.162 . S
O2319 C2307 1.281 . S
O2320 Mn2304 2.297 . S
O2320 C2307 1.236 . S
N2321 Mn2305 2.282 1_545 S
N2321 C2322 1.328 . S
N2321 C2326 1.318 . S
C2322 N2321 1.328 . S
C2322 C2323 1.457 . S
C2322 H2327 0.929 1_545 S
C2323 C2322 1.457 . S
C2323 C2324 1.291 . S
C2323 H2336 0.931 . S
C2324 C2323 1.291 . S
C2324 C2325 1.373 . S
C2324 H2337 0.929 . S
C2325 C2324 1.373 . S
C2325 C2326 1.396 . S
C2325 C2332 1.403 . S
C2326 C2316 1.476 . S
C2326 N2321 1.318 . S
C2326 C2325 1.396 . S
H2327 C2322 0.929 1_565 S
O2328 Mn2304 2.385 . S
O2328 C2306 1.234 . S
O2329 Mn2304 2.209 . S
O2329 Mn2305 2.215 . S
O2329 C2306 1.283 . S
O2330 Mn2304 2.094 . S
O2330 C2308 1.240 . S
O2331 Mn2305 2.117 . S
O2331 C2308 1.264 . S
C2332 C2325 1.403 . S
C2332 C2333 1.399 . S
C2332 H2338 0.929 . S
C2333 C2313 1.449 . S
C2333 C2332 1.399 . S
C2333 H2339 0.930 . S
H2334 C2314 0.931 . S
H2335 C2315 0.930 . S
H2336 C2323 0.931 . S
H2337 C2324 0.929 . S
H2338 C2332 0.929 . S
H2339 C2333 0.930 . S
Mn2340 O2345 2.095 . S
Mn2340 O2355 2.162 . S
Mn2340 O2356 2.297 . S
Mn2340 O2364 2.385 . S
Mn2340 O2365 2.209 . S
Mn2340 O2366 2.094 . S
Mn2341 O2346 2.121 . S
Mn2341 N2348 2.257 1_545 S
Mn2341 N2357 2.282 1_545 S
Mn2341 O2365 2.215 . S
Mn2341 O2367 2.117 . S
C2342 O2364 1.234 . S
C2342 O2365 1.283 . S
C2343 O2355 1.281 . S
C2343 O2356 1.236 . S
C2344 O2366 1.240 . S
C2344 O2367 1.264 . S
O2345 Mn2340 2.095 . S
O2345 C2354 1.250 . S
O2346 Mn2341 2.121 . S
O2346 C2354 1.258 . S
C2347 N2348 1.326 . S
C2347 C2351 1.460 . S
C2347 H2353 0.929 1_565 S
N2348 Mn2341 2.257 1_565 S
N2348 C2347 1.326 . S
N2348 C2352 1.362 . S
C2349 C2350 1.258 . S
C2349 C2352 1.431 . S
C2349 C2369 1.449 . S
C2350 C2349 1.258 . S
C2350 C2351 1.477 . S
C2350 H2370 0.931 . S
C2351 C2347 1.460 . S
C2351 C2350 1.477 . S
C2351 H2371 0.930 . S
C2352 N2348 1.362 . S
C2352 C2349 1.431 . S
C2352 C2362 1.476 . S
H2353 C2347 0.929 1_545 S
C2354 O2345 1.250 . S
C2354 O2346 1.258 . S
O2355 Mn2340 2.162 . S
O2355 C2343 1.281 . S
O2356 Mn2340 2.297 . S
O2356 C2343 1.236 . S
N2357 Mn2341 2.282 1_565 S
N2357 C2358 1.328 . S
N2357 C2362 1.318 . S
C2358 N2357 1.328 . S
C2358 C2359 1.457 . S
C2358 H2363 0.929 1_565 S
C2359 C2358 1.457 . S
C2359 C2360 1.291 . S
C2359 H2372 0.931 . S
C2360 C2359 1.291 . S
C2360 C2361 1.373 . S
C2360 H2373 0.929 . S
C2361 C2360 1.373 . S
C2361 C2362 1.396 . S
C2361 C2368 1.403 . S
C2362 C2352 1.476 . S
C2362 N2357 1.318 . S
C2362 C2361 1.396 . S
H2363 C2358 0.929 1_545 S
O2364 Mn2340 2.385 . S
O2364 C2342 1.234 . S
O2365 Mn2340 2.209 . S
O2365 Mn2341 2.215 . S
O2365 C2342 1.283 . S
O2366 Mn2340 2.094 . S
O2366 C2344 1.240 . S
O2367 Mn2341 2.117 . S
O2367 C2344 1.264 . S
C2368 C2361 1.403 . S
C2368 C2369 1.399 . S
C2368 H2374 0.929 . S
C2369 C2349 1.449 . S
C2369 C2368 1.399 . S
C2369 H2375 0.930 . S
H2370 C2350 0.931 . S
H2371 C2351 0.930 . S
H2372 C2359 0.931 . S
H2373 C2360 0.929 . S
H2374 C2368 0.929 . S
H2375 C2369 0.930 . S
Mn2376 O2381 2.095 . S
Mn2376 O2391 2.162 . S
Mn2376 O2392 2.297 . S
Mn2376 O2400 2.385 . S
Mn2376 O2401 2.209 . S
Mn2376 O2402 2.094 . S
Mn2377 O2382 2.121 . S
Mn2377 N2384 2.257 1_655 S
Mn2377 N2393 2.282 1_655 S
Mn2377 O2401 2.215 . S
Mn2377 O2403 2.117 . S
C2378 O2400 1.234 . S
C2378 O2401 1.283 . S
C2379 O2391 1.281 . S
C2379 O2392 1.236 . S
C2380 O2402 1.240 . S
C2380 O2403 1.264 . S
O2381 Mn2376 2.095 . S
O2381 C2390 1.250 . S
O2382 Mn2377 2.121 . S
O2382 C2390 1.258 . S
C2383 N2384 1.326 . S
C2383 C2387 1.460 . S
C2383 H2389 0.929 1_455 S
N2384 Mn2377 2.257 1_455 S
N2384 C2383 1.326 . S
N2384 C2388 1.362 . S
C2385 C2386 1.258 . S
C2385 C2388 1.431 . S
C2385 C2405 1.449 . S
C2386 C2385 1.258 . S
C2386 C2387 1.477 . S
C2386 H2406 0.931 . S
C2387 C2383 1.460 . S
C2387 C2386 1.477 . S
C2387 H2407 0.930 . S
C2388 N2384 1.362 . S
C2388 C2385 1.431 . S
C2388 C2398 1.476 . S
H2389 C2383 0.929 1_655 S
C2390 O2381 1.250 . S
C2390 O2382 1.258 . S
O2391 Mn2376 2.162 . S
O2391 C2379 1.281 . S
O2392 Mn2376 2.297 . S
O2392 C2379 1.236 . S
N2393 Mn2377 2.282 1_455 S
N2393 C2394 1.328 . S
N2393 C2398 1.318 . S
C2394 N2393 1.328 . S
C2394 C2395 1.457 . S
C2394 H2399 0.929 1_455 S
C2395 C2394 1.457 . S
C2395 C2396 1.291 . S
C2395 H2408 0.931 . S
C2396 C2395 1.291 . S
C2396 C2397 1.373 . S
C2396 H2409 0.929 . S
C2397 C2396 1.373 . S
C2397 C2398 1.396 . S
C2397 C2404 1.403 . S
C2398 C2388 1.476 . S
C2398 N2393 1.318 . S
C2398 C2397 1.396 . S
H2399 C2394 0.929 1_655 S
O2400 Mn2376 2.385 . S
O2400 C2378 1.234 . S
O2401 Mn2376 2.209 . S
O2401 Mn2377 2.215 . S
O2401 C2378 1.283 . S
O2402 Mn2376 2.094 . S
O2402 C2380 1.240 . S
O2403 Mn2377 2.117 . S
O2403 C2380 1.264 . S
C2404 C2397 1.403 . S
C2404 C2405 1.399 . S
C2404 H2410 0.929 . S
C2405 C2385 1.449 . S
C2405 C2404 1.399 . S
C2405 H2411 0.930 . S
H2406 C2386 0.931 . S
H2407 C2387 0.930 . S
H2408 C2395 0.931 . S
H2409 C2396 0.929 . S
H2410 C2404 0.929 . S
H2411 C2405 0.930 . S
Mn2412 O2417 2.095 . S
Mn2412 O2427 2.162 . S
Mn2412 O2428 2.297 . S
Mn2412 O2436 2.385 . S
Mn2412 O2437 2.209 . S
Mn2412 O2438 2.094 . S
Mn2413 O2418 2.121 . S
Mn2413 N2420 2.257 1_565 S
Mn2413 N2429 2.282 1_565 S
Mn2413 O2437 2.215 . S
Mn2413 O2439 2.117 . S
C2414 O2436 1.234 . S
C2414 O2437 1.283 . S
C2415 O2427 1.281 . S
C2415 O2428 1.236 . S
C2416 O2438 1.240 . S
C2416 O2439 1.264 . S
O2417 Mn2412 2.095 . S
O2417 C2426 1.250 . S
O2418 Mn2413 2.121 . S
O2418 C2426 1.258 . S
C2419 N2420 1.326 . S
C2419 C2423 1.460 . S
C2419 H2425 0.929 1_545 S
N2420 Mn2413 2.257 1_545 S
N2420 C2419 1.326 . S
N2420 C2424 1.362 . S
C2421 C2422 1.258 . S
C2421 C2424 1.431 . S
C2421 C2441 1.449 . S
C2422 C2421 1.258 . S
C2422 C2423 1.477 . S
C2422 H2442 0.931 . S
C2423 C2419 1.460 . S
C2423 C2422 1.477 . S
C2423 H2443 0.930 . S
C2424 N2420 1.362 . S
C2424 C2421 1.431 . S
C2424 C2434 1.476 . S
H2425 C2419 0.929 1_565 S
C2426 O2417 1.250 . S
C2426 O2418 1.258 . S
O2427 Mn2412 2.162 . S
O2427 C2415 1.281 . S
O2428 Mn2412 2.297 . S
O2428 C2415 1.236 . S
N2429 Mn2413 2.282 1_545 S
N2429 C2430 1.328 . S
N2429 C2434 1.318 . S
C2430 N2429 1.328 . S
C2430 C2431 1.457 . S
C2430 H2435 0.929 1_545 S
C2431 C2430 1.457 . S
C2431 C2432 1.291 . S
C2431 H2444 0.931 . S
C2432 C2431 1.291 . S
C2432 C2433 1.373 . S
C2432 H2445 0.929 . S
C2433 C2432 1.373 . S
C2433 C2434 1.396 . S
C2433 C2440 1.403 . S
C2434 C2424 1.476 . S
C2434 N2429 1.318 . S
C2434 C2433 1.396 . S
H2435 C2430 0.929 1_565 S
O2436 Mn2412 2.385 . S
O2436 C2414 1.234 . S
O2437 Mn2412 2.209 . S
O2437 Mn2413 2.215 . S
O2437 C2414 1.283 . S
O2438 Mn2412 2.094 . S
O2438 C2416 1.240 . S
O2439 Mn2413 2.117 . S
O2439 C2416 1.264 . S
C2440 C2433 1.403 . S
C2440 C2441 1.399 . S
C2440 H2446 0.929 . S
C2441 C2421 1.449 . S
C2441 C2440 1.399 . S
C2441 H2447 0.930 . S
H2442 C2422 0.931 . S
H2443 C2423 0.930 . S
H2444 C2431 0.931 . S
H2445 C2432 0.929 . S
H2446 C2440 0.929 . S
H2447 C2441 0.930 . S
Mn2448 O2453 2.095 . S
Mn2448 O2463 2.162 . S
Mn2448 O2464 2.297 . S
Mn2448 O2472 2.385 . S
Mn2448 O2473 2.209 . S
Mn2448 O2474 2.094 . S
Mn2449 O2454 2.121 . S
Mn2449 N2456 2.257 1_455 S
Mn2449 N2465 2.282 1_455 S
Mn2449 O2473 2.215 . S
Mn2449 O2475 2.117 . S
C2450 O2472 1.234 . S
C2450 O2473 1.283 . S
C2451 O2463 1.281 . S
C2451 O2464 1.236 . S
C2452 O2474 1.240 . S
C2452 O2475 1.264 . S
O2453 Mn2448 2.095 . S
O2453 C2462 1.250 . S
O2454 Mn2449 2.121 . S
O2454 C2462 1.258 . S
C2455 N2456 1.326 . S
C2455 C2459 1.460 . S
C2455 H2461 0.929 1_655 S
N2456 Mn2449 2.257 1_655 S
N2456 C2455 1.326 . S
N2456 C2460 1.362 . S
C2457 C2458 1.258 . S
C2457 C2460 1.431 . S
C2457 C2477 1.449 . S
C2458 C2457 1.258 . S
C2458 C2459 1.477 . S
C2458 H2478 0.931 . S
C2459 C2455 1.460 . S
C2459 C2458 1.477 . S
C2459 H2479 0.930 . S
C2460 N2456 1.362 . S
C2460 C2457 1.431 . S
C2460 C2470 1.476 . S
H2461 C2455 0.929 1_455 S
C2462 O2453 1.250 . S
C2462 O2454 1.258 . S
O2463 Mn2448 2.162 . S
O2463 C2451 1.281 . S
O2464 Mn2448 2.297 . S
O2464 C2451 1.236 . S
N2465 Mn2449 2.282 1_655 S
N2465 C2466 1.328 . S
N2465 C2470 1.318 . S
C2466 N2465 1.328 . S
C2466 C2467 1.457 . S
C2466 H2471 0.929 1_655 S
C2467 C2466 1.457 . S
C2467 C2468 1.291 . S
C2467 H2480 0.931 . S
C2468 C2467 1.291 . S
C2468 C2469 1.373 . S
C2468 H2481 0.929 . S
C2469 C2468 1.373 . S
C2469 C2470 1.396 . S
C2469 C2476 1.403 . S
C2470 C2460 1.476 . S
C2470 N2465 1.318 . S
C2470 C2469 1.396 . S
H2471 C2466 0.929 1_455 S
O2472 Mn2448 2.385 . S
O2472 C2450 1.234 . S
O2473 Mn2448 2.209 . S
O2473 Mn2449 2.215 . S
O2473 C2450 1.283 . S
O2474 Mn2448 2.094 . S
O2474 C2452 1.240 . S
O2475 Mn2449 2.117 . S
O2475 C2452 1.264 . S
C2476 C2469 1.403 . S
C2476 C2477 1.399 . S
C2476 H2482 0.929 . S
C2477 C2457 1.449 . S
C2477 C2476 1.399 . S
C2477 H2483 0.930 . S
H2478 C2458 0.931 . S
H2479 C2459 0.930 . S
H2480 C2467 0.931 . S
H2481 C2468 0.929 . S
H2482 C2476 0.929 . S
H2483 C2477 0.930 . S
Mn2484 O2489 2.095 . S
Mn2484 O2499 2.162 . S
Mn2484 O2500 2.297 . S
Mn2484 O2508 2.385 . S
Mn2484 O2509 2.209 . S
Mn2484 O2510 2.094 . S
Mn2485 O2490 2.121 . S
Mn2485 N2492 2.257 1_545 S
Mn2485 N2501 2.282 1_545 S
Mn2485 O2509 2.215 . S
Mn2485 O2511 2.117 . S
C2486 O2508 1.234 . S
C2486 O2509 1.283 . S
C2487 O2499 1.281 . S
C2487 O2500 1.236 . S
C2488 O2510 1.240 . S
C2488 O2511 1.264 . S
O2489 Mn2484 2.095 . S
O2489 C2498 1.250 . S
O2490 Mn2485 2.121 . S
O2490 C2498 1.258 . S
C2491 N2492 1.326 . S
C2491 C2495 1.460 . S
C2491 H2497 0.929 1_565 S
N2492 Mn2485 2.257 1_565 S
N2492 C2491 1.326 . S
N2492 C2496 1.362 . S
C2493 C2494 1.258 . S
C2493 C2496 1.431 . S
C2493 C2513 1.449 . S
C2494 C2493 1.258 . S
C2494 C2495 1.477 . S
C2494 H2514 0.931 . S
C2495 C2491 1.460 . S
C2495 C2494 1.477 . S
C2495 H2515 0.930 . S
C2496 N2492 1.362 . S
C2496 C2493 1.431 . S
C2496 C2506 1.476 . S
H2497 C2491 0.929 1_545 S
C2498 O2489 1.250 . S
C2498 O2490 1.258 . S
O2499 Mn2484 2.162 . S
O2499 C2487 1.281 . S
O2500 Mn2484 2.297 . S
O2500 C2487 1.236 . S
N2501 Mn2485 2.282 1_565 S
N2501 C2502 1.328 . S
N2501 C2506 1.318 . S
C2502 N2501 1.328 . S
C2502 C2503 1.457 . S
C2502 H2507 0.929 1_565 S
C2503 C2502 1.457 . S
C2503 C2504 1.291 . S
C2503 H2516 0.931 . S
C2504 C2503 1.291 . S
C2504 C2505 1.373 . S
C2504 H2517 0.929 . S
C2505 C2504 1.373 . S
C2505 C2506 1.396 . S
C2505 C2512 1.403 . S
C2506 C2496 1.476 . S
C2506 N2501 1.318 . S
C2506 C2505 1.396 . S
H2507 C2502 0.929 1_545 S
O2508 Mn2484 2.385 . S
O2508 C2486 1.234 . S
O2509 Mn2484 2.209 . S
O2509 Mn2485 2.215 . S
O2509 C2486 1.283 . S
O2510 Mn2484 2.094 . S
O2510 C2488 1.240 . S
O2511 Mn2485 2.117 . S
O2511 C2488 1.264 . S
C2512 C2505 1.403 . S
C2512 C2513 1.399 . S
C2512 H2518 0.929 . S
C2513 C2493 1.449 . S
C2513 C2512 1.399 . S
C2513 H2519 0.930 . S
H2514 C2494 0.931 . S
H2515 C2495 0.930 . S
H2516 C2503 0.931 . S
H2517 C2504 0.929 . S
H2518 C2512 0.929 . S
H2519 C2513 0.930 . S
Mn2520 O2525 2.095 . S
Mn2520 O2535 2.162 . S
Mn2520 O2536 2.297 . S
Mn2520 O2544 2.385 . S
Mn2520 O2545 2.209 . S
Mn2520 O2546 2.094 . S
Mn2521 O2526 2.121 . S
Mn2521 N2528 2.257 1_655 S
Mn2521 N2537 2.282 1_655 S
Mn2521 O2545 2.215 . S
Mn2521 O2547 2.117 . S
C2522 O2544 1.234 . S
C2522 O2545 1.283 . S
C2523 O2535 1.281 . S
C2523 O2536 1.236 . S
C2524 O2546 1.240 . S
C2524 O2547 1.264 . S
O2525 Mn2520 2.095 . S
O2525 C2534 1.250 . S
O2526 Mn2521 2.121 . S
O2526 C2534 1.258 . S
C2527 N2528 1.326 . S
C2527 C2531 1.460 . S
C2527 H2533 0.929 1_455 S
N2528 Mn2521 2.257 1_455 S
N2528 C2527 1.326 . S
N2528 C2532 1.362 . S
C2529 C2530 1.258 . S
C2529 C2532 1.431 . S
C2529 C2549 1.449 . S
C2530 C2529 1.258 . S
C2530 C2531 1.477 . S
C2530 H2550 0.931 . S
C2531 C2527 1.460 . S
C2531 C2530 1.477 . S
C2531 H2551 0.930 . S
C2532 N2528 1.362 . S
C2532 C2529 1.431 . S
C2532 C2542 1.476 . S
H2533 C2527 0.929 1_655 S
C2534 O2525 1.250 . S
C2534 O2526 1.258 . S
O2535 Mn2520 2.162 . S
O2535 C2523 1.281 . S
O2536 Mn2520 2.297 . S
O2536 C2523 1.236 . S
N2537 Mn2521 2.282 1_455 S
N2537 C2538 1.328 . S
N2537 C2542 1.318 . S
C2538 N2537 1.328 . S
C2538 C2539 1.457 . S
C2538 H2543 0.929 1_455 S
C2539 C2538 1.457 . S
C2539 C2540 1.291 . S
C2539 H2552 0.931 . S
C2540 C2539 1.291 . S
C2540 C2541 1.373 . S
C2540 H2553 0.929 . S
C2541 C2540 1.373 . S
C2541 C2542 1.396 . S
C2541 C2548 1.403 . S
C2542 C2532 1.476 . S
C2542 N2537 1.318 . S
C2542 C2541 1.396 . S
H2543 C2538 0.929 1_655 S
O2544 Mn2520 2.385 . S
O2544 C2522 1.234 . S
O2545 Mn2520 2.209 . S
O2545 Mn2521 2.215 . S
O2545 C2522 1.283 . S
O2546 Mn2520 2.094 . S
O2546 C2524 1.240 . S
O2547 Mn2521 2.117 . S
O2547 C2524 1.264 . S
C2548 C2541 1.403 . S
C2548 C2549 1.399 . S
C2548 H2554 0.929 . S
C2549 C2529 1.449 . S
C2549 C2548 1.399 . S
C2549 H2555 0.930 . S
H2550 C2530 0.931 . S
H2551 C2531 0.930 . S
H2552 C2539 0.931 . S
H2553 C2540 0.929 . S
H2554 C2548 0.929 . S
H2555 C2549 0.930 . S
Mn2556 O2561 2.095 . S
Mn2556 O2571 2.162 . S
Mn2556 O2572 2.297 . S
Mn2556 O2580 2.385 . S
Mn2556 O2581 2.209 . S
Mn2556 O2582 2.094 . S
Mn2557 O2562 2.121 . S
Mn2557 N2564 2.257 1_455 S
Mn2557 N2573 2.282 1_455 S
Mn2557 O2581 2.215 . S
Mn2557 O2583 2.117 . S
C2558 O2580 1.234 . S
C2558 O2581 1.283 . S
C2559 O2571 1.281 . S
C2559 O2572 1.236 . S
C2560 O2582 1.240 . S
C2560 O2583 1.264 . S
O2561 Mn2556 2.095 . S
O2561 C2570 1.250 . S
O2562 Mn2557 2.121 . S
O2562 C2570 1.258 . S
C2563 N2564 1.326 . S
C2563 C2567 1.460 . S
C2563 H2569 0.929 1_655 S
N2564 Mn2557 2.257 1_655 S
N2564 C2563 1.326 . S
N2564 C2568 1.362 . S
C2565 C2566 1.258 . S
C2565 C2568 1.431 . S
C2565 C2585 1.449 . S
C2566 C2565 1.258 . S
C2566 C2567 1.477 . S
C2566 H2586 0.931 . S
C2567 C2563 1.460 . S
C2567 C2566 1.477 . S
C2567 H2587 0.930 . S
C2568 N2564 1.362 . S
C2568 C2565 1.431 . S
C2568 C2578 1.476 . S
H2569 C2563 0.929 1_455 S
C2570 O2561 1.250 . S
C2570 O2562 1.258 . S
O2571 Mn2556 2.162 . S
O2571 C2559 1.281 . S
O2572 Mn2556 2.297 . S
O2572 C2559 1.236 . S
N2573 Mn2557 2.282 1_655 S
N2573 C2574 1.328 . S
N2573 C2578 1.318 . S
C2574 N2573 1.328 . S
C2574 C2575 1.457 . S
C2574 H2579 0.929 1_655 S
C2575 C2574 1.457 . S
C2575 C2576 1.291 . S
C2575 H2588 0.931 . S
C2576 C2575 1.291 . S
C2576 C2577 1.373 . S
C2576 H2589 0.929 . S
C2577 C2576 1.373 . S
C2577 C2578 1.396 . S
C2577 C2584 1.403 . S
C2578 C2568 1.476 . S
C2578 N2573 1.318 . S
C2578 C2577 1.396 . S
H2579 C2574 0.929 1_455 S
O2580 Mn2556 2.385 . S
O2580 C2558 1.234 . S
O2581 Mn2556 2.209 . S
O2581 Mn2557 2.215 . S
O2581 C2558 1.283 . S
O2582 Mn2556 2.094 . S
O2582 C2560 1.240 . S
O2583 Mn2557 2.117 . S
O2583 C2560 1.264 . S
C2584 C2577 1.403 . S
C2584 C2585 1.399 . S
C2584 H2590 0.929 . S
C2585 C2565 1.449 . S
C2585 C2584 1.399 . S
C2585 H2591 0.930 . S
H2586 C2566 0.931 . S
H2587 C2567 0.930 . S
H2588 C2575 0.931 . S
H2589 C2576 0.929 . S
H2590 C2584 0.929 . S
H2591 C2585 0.930 . S
Mn2592 O2597 2.095 . S
Mn2592 O2607 2.162 . S
Mn2592 O2608 2.297 . S
Mn2592 O2616 2.385 . S
Mn2592 O2617 2.209 . S
Mn2592 O2618 2.094 . S
Mn2593 O2598 2.121 . S
Mn2593 N2600 2.257 . S
Mn2593 N2609 2.282 . S
Mn2593 O2617 2.215 . S
Mn2593 O2619 2.117 . S
C2594 O2616 1.234 . S
C2594 O2617 1.283 . S
C2595 O2607 1.281 . S
C2595 O2608 1.236 . S
C2596 O2618 1.240 . S
C2596 O2619 1.264 . S
O2597 Mn2592 2.095 . S
O2597 C2606 1.250 . S
O2598 Mn2593 2.121 . S
O2598 C2606 1.258 . S
C2599 N2600 1.326 . S
C2599 C2603 1.460 1_554 S
C2599 H2605 0.929 . S
N2600 Mn2593 2.257 . S
N2600 C2599 1.326 . S
N2600 C2604 1.362 1_554 S
C2601 C2602 1.258 . S
C2601 C2604 1.431 . S
C2601 C2621 1.449 . S
C2602 C2601 1.258 . S
C2602 C2603 1.477 . S
C2602 H2622 0.931 . S
C2603 C2599 1.460 1_556 S
C2603 C2602 1.477 . S
C2603 H2623 0.930 . S
C2604 N2600 1.362 1_556 S
C2604 C2601 1.431 . S
C2604 C2614 1.476 . S
H2605 C2599 0.929 . S
C2606 O2597 1.250 . S
C2606 O2598 1.258 . S
O2607 Mn2592 2.162 . S
O2607 C2595 1.281 . S
O2608 Mn2592 2.297 . S
O2608 C2595 1.236 . S
N2609 Mn2593 2.282 . S
N2609 C2610 1.328 . S
N2609 C2614 1.318 1_554 S
C2610 N2609 1.328 . S
C2610 C2611 1.457 1_554 S
C2610 H2615 0.929 . S
C2611 C2610 1.457 1_556 S
C2611 C2612 1.291 . S
C2611 H2624 0.931 . S
C2612 C2611 1.291 . S
C2612 C2613 1.373 . S
C2612 H2625 0.929 . S
C2613 C2612 1.373 . S
C2613 C2614 1.396 . S
C2613 C2620 1.403 . S
C2614 C2604 1.476 . S
C2614 N2609 1.318 1_556 S
C2614 C2613 1.396 . S
H2615 C2610 0.929 . S
O2616 Mn2592 2.385 . S
O2616 C2594 1.234 . S
O2617 Mn2592 2.209 . S
O2617 Mn2593 2.215 . S
O2617 C2594 1.283 . S
O2618 Mn2592 2.094 . S
O2618 C2596 1.240 . S
O2619 Mn2593 2.117 . S
O2619 C2596 1.264 . S
C2620 C2613 1.403 . S
C2620 C2621 1.399 . S
C2620 H2626 0.929 . S
C2621 C2601 1.449 . S
C2621 C2620 1.399 . S
C2621 H2627 0.930 . S
H2622 C2602 0.931 . S
H2623 C2603 0.930 . S
H2624 C2611 0.931 . S
H2625 C2612 0.929 . S
H2626 C2620 0.929 . S
H2627 C2621 0.930 . S
Mn2628 O2633 2.095 . S
Mn2628 O2643 2.162 . S
Mn2628 O2644 2.297 . S
Mn2628 O2652 2.385 . S
Mn2628 O2653 2.209 . S
Mn2628 O2654 2.094 . S
Mn2629 O2634 2.121 . S
Mn2629 N2636 2.257 . S
Mn2629 N2645 2.282 . S
Mn2629 O2653 2.215 . S
Mn2629 O2655 2.117 . S
C2630 O2652 1.234 . S
C2630 O2653 1.283 . S
C2631 O2643 1.281 . S
C2631 O2644 1.236 . S
C2632 O2654 1.240 . S
C2632 O2655 1.264 . S
O2633 Mn2628 2.095 . S
O2633 C2642 1.250 . S
O2634 Mn2629 2.121 . S
O2634 C2642 1.258 . S
C2635 N2636 1.326 . S
C2635 C2639 1.460 1_554 S
C2635 H2641 0.929 . S
N2636 Mn2629 2.257 . S
N2636 C2635 1.326 . S
N2636 C2640 1.362 1_554 S
C2637 C2638 1.258 . S
C2637 C2640 1.431 . S
C2637 C2657 1.449 . S
C2638 C2637 1.258 . S
C2638 C2639 1.477 . S
C2638 H2658 0.931 . S
C2639 C2635 1.460 1_556 S
C2639 C2638 1.477 . S
C2639 H2659 0.930 . S
C2640 N2636 1.362 1_556 S
C2640 C2637 1.431 . S
C2640 C2650 1.476 . S
H2641 C2635 0.929 . S
C2642 O2633 1.250 . S
C2642 O2634 1.258 . S
O2643 Mn2628 2.162 . S
O2643 C2631 1.281 . S
O2644 Mn2628 2.297 . S
O2644 C2631 1.236 . S
N2645 Mn2629 2.282 . S
N2645 C2646 1.328 . S
N2645 C2650 1.318 1_554 S
C2646 N2645 1.328 . S
C2646 C2647 1.457 1_554 S
C2646 H2651 0.929 . S
C2647 C2646 1.457 1_556 S
C2647 C2648 1.291 . S
C2647 H2660 0.931 . S
C2648 C2647 1.291 . S
C2648 C2649 1.373 . S
C2648 H2661 0.929 . S
C2649 C2648 1.373 . S
C2649 C2650 1.396 . S
C2649 C2656 1.403 . S
C2650 C2640 1.476 . S
C2650 N2645 1.318 1_556 S
C2650 C2649 1.396 . S
H2651 C2646 0.929 . S
O2652 Mn2628 2.385 . S
O2652 C2630 1.234 . S
O2653 Mn2628 2.209 . S
O2653 Mn2629 2.215 . S
O2653 C2630 1.283 . S
O2654 Mn2628 2.094 . S
O2654 C2632 1.240 . S
O2655 Mn2629 2.117 . S
O2655 C2632 1.264 . S
C2656 C2649 1.403 . S
C2656 C2657 1.399 . S
C2656 H2662 0.929 . S
C2657 C2637 1.449 . S
C2657 C2656 1.399 . S
C2657 H2663 0.930 . S
H2658 C2638 0.931 . S
H2659 C2639 0.930 . S
H2660 C2647 0.931 . S
H2661 C2648 0.929 . S
H2662 C2656 0.929 . S
H2663 C2657 0.930 . S
Mn2664 O2669 2.095 . S
Mn2664 O2679 2.162 . S
Mn2664 O2680 2.297 . S
Mn2664 O2688 2.385 . S
Mn2664 O2689 2.209 . S
Mn2664 O2690 2.094 . S
Mn2665 O2670 2.121 . S
Mn2665 N2672 2.257 . S
Mn2665 N2681 2.282 . S
Mn2665 O2689 2.215 . S
Mn2665 O2691 2.117 . S
C2666 O2688 1.234 . S
C2666 O2689 1.283 . S
C2667 O2679 1.281 . S
C2667 O2680 1.236 . S
C2668 O2690 1.240 . S
C2668 O2691 1.264 . S
O2669 Mn2664 2.095 . S
O2669 C2678 1.250 . S
O2670 Mn2665 2.121 . S
O2670 C2678 1.258 . S
C2671 N2672 1.326 . S
C2671 C2675 1.460 1_554 S
C2671 H2677 0.929 . S
N2672 Mn2665 2.257 . S
N2672 C2671 1.326 . S
N2672 C2676 1.362 1_554 S
C2673 C2674 1.258 . S
C2673 C2676 1.431 . S
C2673 C2693 1.449 . S
C2674 C2673 1.258 . S
C2674 C2675 1.477 . S
C2674 H2694 0.931 . S
C2675 C2671 1.460 1_556 S
C2675 C2674 1.477 . S
C2675 H2695 0.930 . S
C2676 N2672 1.362 1_556 S
C2676 C2673 1.431 . S
C2676 C2686 1.476 . S
H2677 C2671 0.929 . S
C2678 O2669 1.250 . S
C2678 O2670 1.258 . S
O2679 Mn2664 2.162 . S
O2679 C2667 1.281 . S
O2680 Mn2664 2.297 . S
O2680 C2667 1.236 . S
N2681 Mn2665 2.282 . S
N2681 C2682 1.328 . S
N2681 C2686 1.318 1_554 S
C2682 N2681 1.328 . S
C2682 C2683 1.457 1_554 S
C2682 H2687 0.929 . S
C2683 C2682 1.457 1_556 S
C2683 C2684 1.291 . S
C2683 H2696 0.931 . S
C2684 C2683 1.291 . S
C2684 C2685 1.373 . S
C2684 H2697 0.929 . S
C2685 C2684 1.373 . S
C2685 C2686 1.396 . S
C2685 C2692 1.403 . S
C2686 C2676 1.476 . S
C2686 N2681 1.318 1_556 S
C2686 C2685 1.396 . S
H2687 C2682 0.929 . S
O2688 Mn2664 2.385 . S
O2688 C2666 1.234 . S
O2689 Mn2664 2.209 . S
O2689 Mn2665 2.215 . S
O2689 C2666 1.283 . S
O2690 Mn2664 2.094 . S
O2690 C2668 1.240 . S
O2691 Mn2665 2.117 . S
O2691 C2668 1.264 . S
C2692 C2685 1.403 . S
C2692 C2693 1.399 . S
C2692 H2698 0.929 . S
C2693 C2673 1.449 . S
C2693 C2692 1.399 . S
C2693 H2699 0.930 . S
H2694 C2674 0.931 . S
H2695 C2675 0.930 . S
H2696 C2683 0.931 . S
H2697 C2684 0.929 . S
H2698 C2692 0.929 . S
H2699 C2693 0.930 . S
Mn2700 O2705 2.095 . S
Mn2700 O2715 2.162 . S
Mn2700 O2716 2.297 . S
Mn2700 O2724 2.385 . S
Mn2700 O2725 2.209 . S
Mn2700 O2726 2.094 . S
Mn2701 O2706 2.121 . S
Mn2701 N2708 2.257 . S
Mn2701 N2717 2.282 . S
Mn2701 O2725 2.215 . S
Mn2701 O2727 2.117 . S
C2702 O2724 1.234 . S
C2702 O2725 1.283 . S
C2703 O2715 1.281 . S
C2703 O2716 1.236 . S
C2704 O2726 1.240 . S
C2704 O2727 1.264 . S
O2705 Mn2700 2.095 . S
O2705 C2714 1.250 . S
O2706 Mn2701 2.121 . S
O2706 C2714 1.258 . S
C2707 N2708 1.326 . S
C2707 C2711 1.460 1_554 S
C2707 H2713 0.929 . S
N2708 Mn2701 2.257 . S
N2708 C2707 1.326 . S
N2708 C2712 1.362 1_554 S
C2709 C2710 1.258 . S
C2709 C2712 1.431 . S
C2709 C2729 1.449 . S
C2710 C2709 1.258 . S
C2710 C2711 1.477 . S
C2710 H2730 0.931 . S
C2711 C2707 1.460 1_556 S
C2711 C2710 1.477 . S
C2711 H2731 0.930 . S
C2712 N2708 1.362 1_556 S
C2712 C2709 1.431 . S
C2712 C2722 1.476 . S
H2713 C2707 0.929 . S
C2714 O2705 1.250 . S
C2714 O2706 1.258 . S
O2715 Mn2700 2.162 . S
O2715 C2703 1.281 . S
O2716 Mn2700 2.297 . S
O2716 C2703 1.236 . S
N2717 Mn2701 2.282 . S
N2717 C2718 1.328 . S
N2717 C2722 1.318 1_554 S
C2718 N2717 1.328 . S
C2718 C2719 1.457 1_554 S
C2718 H2723 0.929 . S
C2719 C2718 1.457 1_556 S
C2719 C2720 1.291 . S
C2719 H2732 0.931 . S
C2720 C2719 1.291 . S
C2720 C2721 1.373 . S
C2720 H2733 0.929 . S
C2721 C2720 1.373 . S
C2721 C2722 1.396 . S
C2721 C2728 1.403 . S
C2722 C2712 1.476 . S
C2722 N2717 1.318 1_556 S
C2722 C2721 1.396 . S
H2723 C2718 0.929 . S
O2724 Mn2700 2.385 . S
O2724 C2702 1.234 . S
O2725 Mn2700 2.209 . S
O2725 Mn2701 2.215 . S
O2725 C2702 1.283 . S
O2726 Mn2700 2.094 . S
O2726 C2704 1.240 . S
O2727 Mn2701 2.117 . S
O2727 C2704 1.264 . S
C2728 C2721 1.403 . S
C2728 C2729 1.399 . S
C2728 H2734 0.929 . S
C2729 C2709 1.449 . S
C2729 C2728 1.399 . S
C2729 H2735 0.930 . S
H2730 C2710 0.931 . S
H2731 C2711 0.930 . S
H2732 C2719 0.931 . S
H2733 C2720 0.929 . S
H2734 C2728 0.929 . S
H2735 C2729 0.930 . S
Mn2736 O2741 2.095 . S
Mn2736 O2751 2.162 . S
Mn2736 O2752 2.297 . S
Mn2736 O2760 2.385 . S
Mn2736 O2761 2.209 . S
Mn2736 O2762 2.094 . S
Mn2737 O2742 2.121 . S
Mn2737 N2744 2.257 . S
Mn2737 N2753 2.282 . S
Mn2737 O2761 2.215 . S
Mn2737 O2763 2.117 . S
C2738 O2760 1.234 . S
C2738 O2761 1.283 . S
C2739 O2751 1.281 . S
C2739 O2752 1.236 . S
C2740 O2762 1.240 . S
C2740 O2763 1.264 . S
O2741 Mn2736 2.095 . S
O2741 C2750 1.250 . S
O2742 Mn2737 2.121 . S
O2742 C2750 1.258 . S
C2743 N2744 1.326 . S
C2743 C2747 1.460 1_556 S
C2743 H2749 0.929 . S
N2744 Mn2737 2.257 . S
N2744 C2743 1.326 . S
N2744 C2748 1.362 1_556 S
C2745 C2746 1.258 . S
C2745 C2748 1.431 . S
C2745 C2765 1.449 . S
C2746 C2745 1.258 . S
C2746 C2747 1.477 . S
C2746 H2766 0.931 . S
C2747 C2743 1.460 1_554 S
C2747 C2746 1.477 . S
C2747 H2767 0.930 . S
C2748 N2744 1.362 1_554 S
C2748 C2745 1.431 . S
C2748 C2758 1.476 . S
H2749 C2743 0.929 . S
C2750 O2741 1.250 . S
C2750 O2742 1.258 . S
O2751 Mn2736 2.162 . S
O2751 C2739 1.281 . S
O2752 Mn2736 2.297 . S
O2752 C2739 1.236 . S
N2753 Mn2737 2.282 . S
N2753 C2754 1.328 . S
N2753 C2758 1.318 1_556 S
C2754 N2753 1.328 . S
C2754 C2755 1.457 1_556 S
C2754 H2759 0.929 . S
C2755 C2754 1.457 1_554 S
C2755 C2756 1.291 . S
C2755 H2768 0.931 . S
C2756 C2755 1.291 . S
C2756 C2757 1.373 . S
C2756 H2769 0.929 . S
C2757 C2756 1.373 . S
C2757 C2758 1.396 . S
C2757 C2764 1.403 . S
C2758 C2748 1.476 . S
C2758 N2753 1.318 1_554 S
C2758 C2757 1.396 . S
H2759 C2754 0.929 . S
O2760 Mn2736 2.385 . S
O2760 C2738 1.234 . S
O2761 Mn2736 2.209 . S
O2761 Mn2737 2.215 . S
O2761 C2738 1.283 . S
O2762 Mn2736 2.094 . S
O2762 C2740 1.240 . S
O2763 Mn2737 2.117 . S
O2763 C2740 1.264 . S
C2764 C2757 1.403 . S
C2764 C2765 1.399 . S
C2764 H2770 0.929 . S
C2765 C2745 1.449 . S
C2765 C2764 1.399 . S
C2765 H2771 0.930 . S
H2766 C2746 0.931 . S
H2767 C2747 0.930 . S
H2768 C2755 0.931 . S
H2769 C2756 0.929 . S
H2770 C2764 0.929 . S
H2771 C2765 0.930 . S
Mn2772 O2777 2.095 . S
Mn2772 O2787 2.162 . S
Mn2772 O2788 2.297 . S
Mn2772 O2796 2.385 . S
Mn2772 O2797 2.209 . S
Mn2772 O2798 2.094 . S
Mn2773 O2778 2.121 . S
Mn2773 N2780 2.257 . S
Mn2773 N2789 2.282 . S
Mn2773 O2797 2.215 . S
Mn2773 O2799 2.117 . S
C2774 O2796 1.234 . S
C2774 O2797 1.283 . S
C2775 O2787 1.281 . S
C2775 O2788 1.236 . S
C2776 O2798 1.240 . S
C2776 O2799 1.264 . S
O2777 Mn2772 2.095 . S
O2777 C2786 1.250 . S
O2778 Mn2773 2.121 . S
O2778 C2786 1.258 . S
C2779 N2780 1.326 . S
C2779 C2783 1.460 1_556 S
C2779 H2785 0.929 . S
N2780 Mn2773 2.257 . S
N2780 C2779 1.326 . S
N2780 C2784 1.362 1_556 S
C2781 C2782 1.258 . S
C2781 C2784 1.431 . S
C2781 C2801 1.449 . S
C2782 C2781 1.258 . S
C2782 C2783 1.477 . S
C2782 H2802 0.931 . S
C2783 C2779 1.460 1_554 S
C2783 C2782 1.477 . S
C2783 H2803 0.930 . S
C2784 N2780 1.362 1_554 S
C2784 C2781 1.431 . S
C2784 C2794 1.476 . S
H2785 C2779 0.929 . S
C2786 O2777 1.250 . S
C2786 O2778 1.258 . S
O2787 Mn2772 2.162 . S
O2787 C2775 1.281 . S
O2788 Mn2772 2.297 . S
O2788 C2775 1.236 . S
N2789 Mn2773 2.282 . S
N2789 C2790 1.328 . S
N2789 C2794 1.318 1_556 S
C2790 N2789 1.328 . S
C2790 C2791 1.457 1_556 S
C2790 H2795 0.929 . S
C2791 C2790 1.457 1_554 S
C2791 C2792 1.291 . S
C2791 H2804 0.931 . S
C2792 C2791 1.291 . S
C2792 C2793 1.373 . S
C2792 H2805 0.929 . S
C2793 C2792 1.373 . S
C2793 C2794 1.396 . S
C2793 C2800 1.403 . S
C2794 C2784 1.476 . S
C2794 N2789 1.318 1_554 S
C2794 C2793 1.396 . S
H2795 C2790 0.929 . S
O2796 Mn2772 2.385 . S
O2796 C2774 1.234 . S
O2797 Mn2772 2.209 . S
O2797 Mn2773 2.215 . S
O2797 C2774 1.283 . S
O2798 Mn2772 2.094 . S
O2798 C2776 1.240 . S
O2799 Mn2773 2.117 . S
O2799 C2776 1.264 . S
C2800 C2793 1.403 . S
C2800 C2801 1.399 . S
C2800 H2806 0.929 . S
C2801 C2781 1.449 . S
C2801 C2800 1.399 . S
C2801 H2807 0.930 . S
H2802 C2782 0.931 . S
H2803 C2783 0.930 . S
H2804 C2791 0.931 . S
H2805 C2792 0.929 . S
H2806 C2800 0.929 . S
H2807 C2801 0.930 . S
Mn2808 O2813 2.095 . S
Mn2808 O2823 2.162 . S
Mn2808 O2824 2.297 . S
Mn2808 O2832 2.385 . S
Mn2808 O2833 2.209 . S
Mn2808 O2834 2.094 . S
Mn2809 O2814 2.121 . S
Mn2809 N2816 2.257 . S
Mn2809 N2825 2.282 . S
Mn2809 O2833 2.215 . S
Mn2809 O2835 2.117 . S
C2810 O2832 1.234 . S
C2810 O2833 1.283 . S
C2811 O2823 1.281 . S
C2811 O2824 1.236 . S
C2812 O2834 1.240 . S
C2812 O2835 1.264 . S
O2813 Mn2808 2.095 . S
O2813 C2822 1.250 . S
O2814 Mn2809 2.121 . S
O2814 C2822 1.258 . S
C2815 N2816 1.326 . S
C2815 C2819 1.460 1_556 S
C2815 H2821 0.929 . S
N2816 Mn2809 2.257 . S
N2816 C2815 1.326 . S
N2816 C2820 1.362 1_556 S
C2817 C2818 1.258 . S
C2817 C2820 1.431 . S
C2817 C2837 1.449 . S
C2818 C2817 1.258 . S
C2818 C2819 1.477 . S
C2818 H2838 0.931 . S
C2819 C2815 1.460 1_554 S
C2819 C2818 1.477 . S
C2819 H2839 0.930 . S
C2820 N2816 1.362 1_554 S
C2820 C2817 1.431 . S
C2820 C2830 1.476 . S
H2821 C2815 0.929 . S
C2822 O2813 1.250 . S
C2822 O2814 1.258 . S
O2823 Mn2808 2.162 . S
O2823 C2811 1.281 . S
O2824 Mn2808 2.297 . S
O2824 C2811 1.236 . S
N2825 Mn2809 2.282 . S
N2825 C2826 1.328 . S
N2825 C2830 1.318 1_556 S
C2826 N2825 1.328 . S
C2826 C2827 1.457 1_556 S
C2826 H2831 0.929 . S
C2827 C2826 1.457 1_554 S
C2827 C2828 1.291 . S
C2827 H2840 0.931 . S
C2828 C2827 1.291 . S
C2828 C2829 1.373 . S
C2828 H2841 0.929 . S
C2829 C2828 1.373 . S
C2829 C2830 1.396 . S
C2829 C2836 1.403 . S
C2830 C2820 1.476 . S
C2830 N2825 1.318 1_554 S
C2830 C2829 1.396 . S
H2831 C2826 0.929 . S
O2832 Mn2808 2.385 . S
O2832 C2810 1.234 . S
O2833 Mn2808 2.209 . S
O2833 Mn2809 2.215 . S
O2833 C2810 1.283 . S
O2834 Mn2808 2.094 . S
O2834 C2812 1.240 . S
O2835 Mn2809 2.117 . S
O2835 C2812 1.264 . S
C2836 C2829 1.403 . S
C2836 C2837 1.399 . S
C2836 H2842 0.929 . S
C2837 C2817 1.449 . S
C2837 C2836 1.399 . S
C2837 H2843 0.930 . S
H2838 C2818 0.931 . S
H2839 C2819 0.930 . S
H2840 C2827 0.931 . S
H2841 C2828 0.929 . S
H2842 C2836 0.929 . S
H2843 C2837 0.930 . S
Mn2844 O2849 2.095 . S
Mn2844 O2859 2.162 . S
Mn2844 O2860 2.297 . S
Mn2844 O2868 2.385 . S
Mn2844 O2869 2.209 . S
Mn2844 O2870 2.094 . S
Mn2845 O2850 2.121 . S
Mn2845 N2852 2.257 . S
Mn2845 N2861 2.282 . S
Mn2845 O2869 2.215 . S
Mn2845 O2871 2.117 . S
C2846 O2868 1.234 . S
C2846 O2869 1.283 . S
C2847 O2859 1.281 . S
C2847 O2860 1.236 . S
C2848 O2870 1.240 . S
C2848 O2871 1.264 . S
O2849 Mn2844 2.095 . S
O2849 C2858 1.250 . S
O2850 Mn2845 2.121 . S
O2850 C2858 1.258 . S
C2851 N2852 1.326 . S
C2851 C2855 1.460 1_556 S
C2851 H2857 0.929 . S
N2852 Mn2845 2.257 . S
N2852 C2851 1.326 . S
N2852 C2856 1.362 1_556 S
C2853 C2854 1.258 . S
C2853 C2856 1.431 . S
C2853 C2873 1.449 . S
C2854 C2853 1.258 . S
C2854 C2855 1.477 . S
C2854 H2874 0.931 . S
C2855 C2851 1.460 1_554 S
C2855 C2854 1.477 . S
C2855 H2875 0.930 . S
C2856 N2852 1.362 1_554 S
C2856 C2853 1.431 . S
C2856 C2866 1.476 . S
H2857 C2851 0.929 . S
C2858 O2849 1.250 . S
C2858 O2850 1.258 . S
O2859 Mn2844 2.162 . S
O2859 C2847 1.281 . S
O2860 Mn2844 2.297 . S
O2860 C2847 1.236 . S
N2861 Mn2845 2.282 . S
N2861 C2862 1.328 . S
N2861 C2866 1.318 1_556 S
C2862 N2861 1.328 . S
C2862 C2863 1.457 1_556 S
C2862 H2867 0.929 . S
C2863 C2862 1.457 1_554 S
C2863 C2864 1.291 . S
C2863 H2876 0.931 . S
C2864 C2863 1.291 . S
C2864 C2865 1.373 . S
C2864 H2877 0.929 . S
C2865 C2864 1.373 . S
C2865 C2866 1.396 . S
C2865 C2872 1.403 . S
C2866 C2856 1.476 . S
C2866 N2861 1.318 1_554 S
C2866 C2865 1.396 . S
H2867 C2862 0.929 . S
O2868 Mn2844 2.385 . S
O2868 C2846 1.234 . S
O2869 Mn2844 2.209 . S
O2869 Mn2845 2.215 . S
O2869 C2846 1.283 . S
O2870 Mn2844 2.094 . S
O2870 C2848 1.240 . S
O2871 Mn2845 2.117 . S
O2871 C2848 1.264 . S
C2872 C2865 1.403 . S
C2872 C2873 1.399 . S
C2872 H2878 0.929 . S
C2873 C2853 1.449 . S
C2873 C2872 1.399 . S
C2873 H2879 0.930 . S
H2874 C2854 0.931 . S
H2875 C2855 0.930 . S
H2876 C2863 0.931 . S
H2877 C2864 0.929 . S
H2878 C2872 0.929 . S
H2879 C2873 0.930 . S
Mn2880 O2885 2.095 . S
Mn2880 O2895 2.162 . S
Mn2880 O2896 2.297 . S
Mn2880 O2904 2.385 . S
Mn2880 O2905 2.209 . S
Mn2880 O2906 2.094 . S
Mn2881 O2886 2.121 . S
Mn2881 N2888 2.257 . S
Mn2881 N2897 2.282 . S
Mn2881 O2905 2.215 . S
Mn2881 O2907 2.117 . S
C2882 O2904 1.234 . S
C2882 O2905 1.283 . S
C2883 O2895 1.281 . S
C2883 O2896 1.236 . S
C2884 O2906 1.240 . S
C2884 O2907 1.264 . S
O2885 Mn2880 2.095 . S
O2885 C2894 1.250 . S
O2886 Mn2881 2.121 . S
O2886 C2894 1.258 . S
C2887 N2888 1.326 . S
C2887 C2891 1.460 1_455 S
C2887 H2893 0.929 . S
N2888 Mn2881 2.257 . S
N2888 C2887 1.326 . S
N2888 C2892 1.362 1_455 S
C2889 C2890 1.258 . S
C2889 C2892 1.431 . S
C2889 C2909 1.449 . S
C2890 C2889 1.258 . S
C2890 C2891 1.477 . S
C2890 H2910 0.931 . S
C2891 C2887 1.460 1_655 S
C2891 C2890 1.477 . S
C2891 H2911 0.930 . S
C2892 N2888 1.362 1_655 S
C2892 C2889 1.431 . S
C2892 C2902 1.476 . S
H2893 C2887 0.929 . S
C2894 O2885 1.250 . S
C2894 O2886 1.258 . S
O2895 Mn2880 2.162 . S
O2895 C2883 1.281 . S
O2896 Mn2880 2.297 . S
O2896 C2883 1.236 . S
N2897 Mn2881 2.282 . S
N2897 C2898 1.328 . S
N2897 C2902 1.318 1_455 S
C2898 N2897 1.328 . S
C2898 C2899 1.457 1_455 S
C2898 H2903 0.929 . S
C2899 C2898 1.457 1_655 S
C2899 C2900 1.291 . S
C2899 H2912 0.931 . S
C2900 C2899 1.291 . S
C2900 C2901 1.373 . S
C2900 H2913 0.929 . S
C2901 C2900 1.373 . S
C2901 C2902 1.396 . S
C2901 C2908 1.403 . S
C2902 C2892 1.476 . S
C2902 N2897 1.318 1_655 S
C2902 C2901 1.396 . S
H2903 C2898 0.929 . S
O2904 Mn2880 2.385 . S
O2904 C2882 1.234 . S
O2905 Mn2880 2.209 . S
O2905 Mn2881 2.215 . S
O2905 C2882 1.283 . S
O2906 Mn2880 2.094 . S
O2906 C2884 1.240 . S
O2907 Mn2881 2.117 . S
O2907 C2884 1.264 . S
C2908 C2901 1.403 . S
C2908 C2909 1.399 . S
C2908 H2914 0.929 . S
C2909 C2889 1.449 . S
C2909 C2908 1.399 . S
C2909 H2915 0.930 . S
H2910 C2890 0.931 . S
H2911 C2891 0.930 . S
H2912 C2899 0.931 . S
H2913 C2900 0.929 . S
H2914 C2908 0.929 . S
H2915 C2909 0.930 . S
Mn2916 O2921 2.095 . S
Mn2916 O2931 2.162 . S
Mn2916 O2932 2.297 . S
Mn2916 O2940 2.385 . S
Mn2916 O2941 2.209 . S
Mn2916 O2942 2.094 . S
Mn2917 O2922 2.121 . S
Mn2917 N2924 2.257 . S
Mn2917 N2933 2.282 . S
Mn2917 O2941 2.215 . S
Mn2917 O2943 2.117 . S
C2918 O2940 1.234 . S
C2918 O2941 1.283 . S
C2919 O2931 1.281 . S
C2919 O2932 1.236 . S
C2920 O2942 1.240 . S
C2920 O2943 1.264 . S
O2921 Mn2916 2.095 . S
O2921 C2930 1.250 . S
O2922 Mn2917 2.121 . S
O2922 C2930 1.258 . S
C2923 N2924 1.326 . S
C2923 C2927 1.460 1_545 S
C2923 H2929 0.929 . S
N2924 Mn2917 2.257 . S
N2924 C2923 1.326 . S
N2924 C2928 1.362 1_545 S
C2925 C2926 1.258 . S
C2925 C2928 1.431 . S
C2925 C2945 1.449 . S
C2926 C2925 1.258 . S
C2926 C2927 1.477 . S
C2926 H2946 0.931 . S
C2927 C2923 1.460 1_565 S
C2927 C2926 1.477 . S
C2927 H2947 0.930 . S
C2928 N2924 1.362 1_565 S
C2928 C2925 1.431 . S
C2928 C2938 1.476 . S
H2929 C2923 0.929 . S
C2930 O2921 1.250 . S
C2930 O2922 1.258 . S
O2931 Mn2916 2.162 . S
O2931 C2919 1.281 . S
O2932 Mn2916 2.297 . S
O2932 C2919 1.236 . S
N2933 Mn2917 2.282 . S
N2933 C2934 1.328 . S
N2933 C2938 1.318 1_545 S
C2934 N2933 1.328 . S
C2934 C2935 1.457 1_545 S
C2934 H2939 0.929 . S
C2935 C2934 1.457 1_565 S
C2935 C2936 1.291 . S
C2935 H2948 0.931 . S
C2936 C2935 1.291 . S
C2936 C2937 1.373 . S
C2936 H2949 0.929 . S
C2937 C2936 1.373 . S
C2937 C2938 1.396 . S
C2937 C2944 1.403 . S
C2938 C2928 1.476 . S
C2938 N2933 1.318 1_565 S
C2938 C2937 1.396 . S
H2939 C2934 0.929 . S
O2940 Mn2916 2.385 . S
O2940 C2918 1.234 . S
O2941 Mn2916 2.209 . S
O2941 Mn2917 2.215 . S
O2941 C2918 1.283 . S
O2942 Mn2916 2.094 . S
O2942 C2920 1.240 . S
O2943 Mn2917 2.117 . S
O2943 C2920 1.264 . S
C2944 C2937 1.403 . S
C2944 C2945 1.399 . S
C2944 H2950 0.929 . S
C2945 C2925 1.449 . S
C2945 C2944 1.399 . S
C2945 H2951 0.930 . S
H2946 C2926 0.931 . S
H2947 C2927 0.930 . S
H2948 C2935 0.931 . S
H2949 C2936 0.929 . S
H2950 C2944 0.929 . S
H2951 C2945 0.930 . S
Mn2952 O2957 2.095 . S
Mn2952 O2967 2.162 . S
Mn2952 O2968 2.297 . S
Mn2952 O2976 2.385 . S
Mn2952 O2977 2.209 . S
Mn2952 O2978 2.094 . S
Mn2953 O2958 2.121 . S
Mn2953 N2960 2.257 . S
Mn2953 N2969 2.282 . S
Mn2953 O2977 2.215 . S
Mn2953 O2979 2.117 . S
C2954 O2976 1.234 . S
C2954 O2977 1.283 . S
C2955 O2967 1.281 . S
C2955 O2968 1.236 . S
C2956 O2978 1.240 . S
C2956 O2979 1.264 . S
O2957 Mn2952 2.095 . S
O2957 C2966 1.250 . S
O2958 Mn2953 2.121 . S
O2958 C2966 1.258 . S
C2959 N2960 1.326 . S
C2959 C2963 1.460 1_655 S
C2959 H2965 0.929 . S
N2960 Mn2953 2.257 . S
N2960 C2959 1.326 . S
N2960 C2964 1.362 1_655 S
C2961 C2962 1.258 . S
C2961 C2964 1.431 . S
C2961 C2981 1.449 . S
C2962 C2961 1.258 . S
C2962 C2963 1.477 . S
C2962 H2982 0.931 . S
C2963 C2959 1.460 1_455 S
C2963 C2962 1.477 . S
C2963 H2983 0.930 . S
C2964 N2960 1.362 1_455 S
C2964 C2961 1.431 . S
C2964 C2974 1.476 . S
H2965 C2959 0.929 . S
C2966 O2957 1.250 . S
C2966 O2958 1.258 . S
O2967 Mn2952 2.162 . S
O2967 C2955 1.281 . S
O2968 Mn2952 2.297 . S
O2968 C2955 1.236 . S
N2969 Mn2953 2.282 . S
N2969 C2970 1.328 . S
N2969 C2974 1.318 1_655 S
C2970 N2969 1.328 . S
C2970 C2971 1.457 1_655 S
C2970 H2975 0.929 . S
C2971 C2970 1.457 1_455 S
C2971 C2972 1.291 . S
C2971 H2984 0.931 . S
C2972 C2971 1.291 . S
C2972 C2973 1.373 . S
C2972 H2985 0.929 . S
C2973 C2972 1.373 . S
C2973 C2974 1.396 . S
C2973 C2980 1.403 . S
C2974 C2964 1.476 . S
C2974 N2969 1.318 1_455 S
C2974 C2973 1.396 . S
H2975 C2970 0.929 . S
O2976 Mn2952 2.385 . S
O2976 C2954 1.234 . S
O2977 Mn2952 2.209 . S
O2977 Mn2953 2.215 . S
O2977 C2954 1.283 . S
O2978 Mn2952 2.094 . S
O2978 C2956 1.240 . S
O2979 Mn2953 2.117 . S
O2979 C2956 1.264 . S
C2980 C2973 1.403 . S
C2980 C2981 1.399 . S
C2980 H2986 0.929 . S
C2981 C2961 1.449 . S
C2981 C2980 1.399 . S
C2981 H2987 0.930 . S
H2982 C2962 0.931 . S
H2983 C2963 0.930 . S
H2984 C2971 0.931 . S
H2985 C2972 0.929 . S
H2986 C2980 0.929 . S
H2987 C2981 0.930 . S
Mn2988 O2993 2.095 . S
Mn2988 O3003 2.162 . S
Mn2988 O3004 2.297 . S
Mn2988 O3012 2.385 . S
Mn2988 O3013 2.209 . S
Mn2988 O3014 2.094 . S
Mn2989 O2994 2.121 . S
Mn2989 N2996 2.257 . S
Mn2989 N3005 2.282 . S
Mn2989 O3013 2.215 . S
Mn2989 O3015 2.117 . S
C2990 O3012 1.234 . S
C2990 O3013 1.283 . S
C2991 O3003 1.281 . S
C2991 O3004 1.236 . S
C2992 O3014 1.240 . S
C2992 O3015 1.264 . S
O2993 Mn2988 2.095 . S
O2993 C3002 1.250 . S
O2994 Mn2989 2.121 . S
O2994 C3002 1.258 . S
C2995 N2996 1.326 . S
C2995 C2999 1.460 1_565 S
C2995 H3001 0.929 . S
N2996 Mn2989 2.257 . S
N2996 C2995 1.326 . S
N2996 C3000 1.362 1_565 S
C2997 C2998 1.258 . S
C2997 C3000 1.431 . S
C2997 C3017 1.449 . S
C2998 C2997 1.258 . S
C2998 C2999 1.477 . S
C2998 H3018 0.931 . S
C2999 C2995 1.460 1_545 S
C2999 C2998 1.477 . S
C2999 H3019 0.930 . S
C3000 N2996 1.362 1_545 S
C3000 C2997 1.431 . S
C3000 C3010 1.476 . S
H3001 C2995 0.929 . S
C3002 O2993 1.250 . S
C3002 O2994 1.258 . S
O3003 Mn2988 2.162 . S
O3003 C2991 1.281 . S
O3004 Mn2988 2.297 . S
O3004 C2991 1.236 . S
N3005 Mn2989 2.282 . S
N3005 C3006 1.328 . S
N3005 C3010 1.318 1_565 S
C3006 N3005 1.328 . S
C3006 C3007 1.457 1_565 S
C3006 H3011 0.929 . S
C3007 C3006 1.457 1_545 S
C3007 C3008 1.291 . S
C3007 H3020 0.931 . S
C3008 C3007 1.291 . S
C3008 C3009 1.373 . S
C3008 H3021 0.929 . S
C3009 C3008 1.373 . S
C3009 C3010 1.396 . S
C3009 C3016 1.403 . S
C3010 C3000 1.476 . S
C3010 N3005 1.318 1_545 S
C3010 C3009 1.396 . S
H3011 C3006 0.929 . S
O3012 Mn2988 2.385 . S
O3012 C2990 1.234 . S
O3013 Mn2988 2.209 . S
O3013 Mn2989 2.215 . S
O3013 C2990 1.283 . S
O3014 Mn2988 2.094 . S
O3014 C2992 1.240 . S
O3015 Mn2989 2.117 . S
O3015 C2992 1.264 . S
C3016 C3009 1.403 . S
C3016 C3017 1.399 . S
C3016 H3022 0.929 . S
C3017 C2997 1.449 . S
C3017 C3016 1.399 . S
C3017 H3023 0.930 . S
H3018 C2998 0.931 . S
H3019 C2999 0.930 . S
H3020 C3007 0.931 . S
H3021 C3008 0.929 . S
H3022 C3016 0.929 . S
H3023 C3017 0.930 . S
Mn3024 O3029 2.095 . S
Mn3024 O3039 2.162 . S
Mn3024 O3040 2.297 . S
Mn3024 O3048 2.385 . S
Mn3024 O3049 2.209 . S
Mn3024 O3050 2.094 . S
Mn3025 O3030 2.121 . S
Mn3025 N3032 2.257 . S
Mn3025 N3041 2.282 . S
Mn3025 O3049 2.215 . S
Mn3025 O3051 2.117 . S
C3026 O3048 1.234 . S
C3026 O3049 1.283 . S
C3027 O3039 1.281 . S
C3027 O3040 1.236 . S
C3028 O3050 1.240 . S
C3028 O3051 1.264 . S
O3029 Mn3024 2.095 . S
O3029 C3038 1.250 . S
O3030 Mn3025 2.121 . S
O3030 C3038 1.258 . S
C3031 N3032 1.326 . S
C3031 C3035 1.460 1_455 S
C3031 H3037 0.929 . S
N3032 Mn3025 2.257 . S
N3032 C3031 1.326 . S
N3032 C3036 1.362 1_455 S
C3033 C3034 1.258 . S
C3033 C3036 1.431 . S
C3033 C3053 1.449 . S
C3034 C3033 1.258 . S
C3034 C3035 1.477 . S
C3034 H3054 0.931 . S
C3035 C3031 1.460 1_655 S
C3035 C3034 1.477 . S
C3035 H3055 0.930 . S
C3036 N3032 1.362 1_655 S
C3036 C3033 1.431 . S
C3036 C3046 1.476 . S
H3037 C3031 0.929 . S
C3038 O3029 1.250 . S
C3038 O3030 1.258 . S
O3039 Mn3024 2.162 . S
O3039 C3027 1.281 . S
O3040 Mn3024 2.297 . S
O3040 C3027 1.236 . S
N3041 Mn3025 2.282 . S
N3041 C3042 1.328 . S
N3041 C3046 1.318 1_455 S
C3042 N3041 1.328 . S
C3042 C3043 1.457 1_455 S
C3042 H3047 0.929 . S
C3043 C3042 1.457 1_655 S
C3043 C3044 1.291 . S
C3043 H3056 0.931 . S
C3044 C3043 1.291 . S
C3044 C3045 1.373 . S
C3044 H3057 0.929 . S
C3045 C3044 1.373 . S
C3045 C3046 1.396 . S
C3045 C3052 1.403 . S
C3046 C3036 1.476 . S
C3046 N3041 1.318 1_655 S
C3046 C3045 1.396 . S
H3047 C3042 0.929 . S
O3048 Mn3024 2.385 . S
O3048 C3026 1.234 . S
O3049 Mn3024 2.209 . S
O3049 Mn3025 2.215 . S
O3049 C3026 1.283 . S
O3050 Mn3024 2.094 . S
O3050 C3028 1.240 . S
O3051 Mn3025 2.117 . S
O3051 C3028 1.264 . S
C3052 C3045 1.403 . S
C3052 C3053 1.399 . S
C3052 H3058 0.929 . S
C3053 C3033 1.449 . S
C3053 C3052 1.399 . S
C3053 H3059 0.930 . S
H3054 C3034 0.931 . S
H3055 C3035 0.930 . S
H3056 C3043 0.931 . S
H3057 C3044 0.929 . S
H3058 C3052 0.929 . S
H3059 C3053 0.930 . S
Mn3060 O3065 2.095 . S
Mn3060 O3075 2.162 . S
Mn3060 O3076 2.297 . S
Mn3060 O3084 2.385 . S
Mn3060 O3085 2.209 . S
Mn3060 O3086 2.094 . S
Mn3061 O3066 2.121 . S
Mn3061 N3068 2.257 . S
Mn3061 N3077 2.282 . S
Mn3061 O3085 2.215 . S
Mn3061 O3087 2.117 . S
C3062 O3084 1.234 . S
C3062 O3085 1.283 . S
C3063 O3075 1.281 . S
C3063 O3076 1.236 . S
C3064 O3086 1.240 . S
C3064 O3087 1.264 . S
O3065 Mn3060 2.095 . S
O3065 C3074 1.250 . S
O3066 Mn3061 2.121 . S
O3066 C3074 1.258 . S
C3067 N3068 1.326 . S
C3067 C3071 1.460 1_545 S
C3067 H3073 0.929 . S
N3068 Mn3061 2.257 . S
N3068 C3067 1.326 . S
N3068 C3072 1.362 1_545 S
C3069 C3070 1.258 . S
C3069 C3072 1.431 . S
C3069 C3089 1.449 . S
C3070 C3069 1.258 . S
C3070 C3071 1.477 . S
C3070 H3090 0.931 . S
C3071 C3067 1.460 1_565 S
C3071 C3070 1.477 . S
C3071 H3091 0.930 . S
C3072 N3068 1.362 1_565 S
C3072 C3069 1.431 . S
C3072 C3082 1.476 . S
H3073 C3067 0.929 . S
C3074 O3065 1.250 . S
C3074 O3066 1.258 . S
O3075 Mn3060 2.162 . S
O3075 C3063 1.281 . S
O3076 Mn3060 2.297 . S
O3076 C3063 1.236 . S
N3077 Mn3061 2.282 . S
N3077 C3078 1.328 . S
N3077 C3082 1.318 1_545 S
C3078 N3077 1.328 . S
C3078 C3079 1.457 1_545 S
C3078 H3083 0.929 . S
C3079 C3078 1.457 1_565 S
C3079 C3080 1.291 . S
C3079 H3092 0.931 . S
C3080 C3079 1.291 . S
C3080 C3081 1.373 . S
C3080 H3093 0.929 . S
C3081 C3080 1.373 . S
C3081 C3082 1.396 . S
C3081 C3088 1.403 . S
C3082 C3072 1.476 . S
C3082 N3077 1.318 1_565 S
C3082 C3081 1.396 . S
H3083 C3078 0.929 . S
O3084 Mn3060 2.385 . S
O3084 C3062 1.234 . S
O3085 Mn3060 2.209 . S
O3085 Mn3061 2.215 . S
O3085 C3062 1.283 . S
O3086 Mn3060 2.094 . S
O3086 C3064 1.240 . S
O3087 Mn3061 2.117 . S
O3087 C3064 1.264 . S
C3088 C3081 1.403 . S
C3088 C3089 1.399 . S
C3088 H3094 0.929 . S
C3089 C3069 1.449 . S
C3089 C3088 1.399 . S
C3089 H3095 0.930 . S
H3090 C3070 0.931 . S
H3091 C3071 0.930 . S
H3092 C3079 0.931 . S
H3093 C3080 0.929 . S
H3094 C3088 0.929 . S
H3095 C3089 0.930 . S
Mn3096 O3101 2.095 . S
Mn3096 O3111 2.162 . S
Mn3096 O3112 2.297 . S
Mn3096 O3120 2.385 . S
Mn3096 O3121 2.209 . S
Mn3096 O3122 2.094 . S
Mn3097 O3102 2.121 . S
Mn3097 N3104 2.257 . S
Mn3097 N3113 2.282 . S
Mn3097 O3121 2.215 . S
Mn3097 O3123 2.117 . S
C3098 O3120 1.234 . S
C3098 O3121 1.283 . S
C3099 O3111 1.281 . S
C3099 O3112 1.236 . S
C3100 O3122 1.240 . S
C3100 O3123 1.264 . S
O3101 Mn3096 2.095 . S
O3101 C3110 1.250 . S
O3102 Mn3097 2.121 . S
O3102 C3110 1.258 . S
C3103 N3104 1.326 . S
C3103 C3107 1.460 1_655 S
C3103 H3109 0.929 . S
N3104 Mn3097 2.257 . S
N3104 C3103 1.326 . S
N3104 C3108 1.362 1_655 S
C3105 C3106 1.258 . S
C3105 C3108 1.431 . S
C3105 C3125 1.449 . S
C3106 C3105 1.258 . S
C3106 C3107 1.477 . S
C3106 H3126 0.931 . S
C3107 C3103 1.460 1_455 S
C3107 C3106 1.477 . S
C3107 H3127 0.930 . S
C3108 N3104 1.362 1_455 S
C3108 C3105 1.431 . S
C3108 C3118 1.476 . S
H3109 C3103 0.929 . S
C3110 O3101 1.250 . S
C3110 O3102 1.258 . S
O3111 Mn3096 2.162 . S
O3111 C3099 1.281 . S
O3112 Mn3096 2.297 . S
O3112 C3099 1.236 . S
N3113 Mn3097 2.282 . S
N3113 C3114 1.328 . S
N3113 C3118 1.318 1_655 S
C3114 N3113 1.328 . S
C3114 C3115 1.457 1_655 S
C3114 H3119 0.929 . S
C3115 C3114 1.457 1_455 S
C3115 C3116 1.291 . S
C3115 H3128 0.931 . S
C3116 C3115 1.291 . S
C3116 C3117 1.373 . S
C3116 H3129 0.929 . S
C3117 C3116 1.373 . S
C3117 C3118 1.396 . S
C3117 C3124 1.403 . S
C3118 C3108 1.476 . S
C3118 N3113 1.318 1_455 S
C3118 C3117 1.396 . S
H3119 C3114 0.929 . S
O3120 Mn3096 2.385 . S
O3120 C3098 1.234 . S
O3121 Mn3096 2.209 . S
O3121 Mn3097 2.215 . S
O3121 C3098 1.283 . S
O3122 Mn3096 2.094 . S
O3122 C3100 1.240 . S
O3123 Mn3097 2.117 . S
O3123 C3100 1.264 . S
C3124 C3117 1.403 . S
C3124 C3125 1.399 . S
C3124 H3130 0.929 . S
C3125 C3105 1.449 . S
C3125 C3124 1.399 . S
C3125 H3131 0.930 . S
H3126 C3106 0.931 . S
H3127 C3107 0.930 . S
H3128 C3115 0.931 . S
H3129 C3116 0.929 . S
H3130 C3124 0.929 . S
H3131 C3125 0.930 . S
Mn3132 O3137 2.095 . S
Mn3132 O3147 2.162 . S
Mn3132 O3148 2.297 . S
Mn3132 O3156 2.385 . S
Mn3132 O3157 2.209 . S
Mn3132 O3158 2.094 . S
Mn3133 O3138 2.121 . S
Mn3133 N3140 2.257 . S
Mn3133 N3149 2.282 . S
Mn3133 O3157 2.215 . S
Mn3133 O3159 2.117 . S
C3134 O3156 1.234 . S
C3134 O3157 1.283 . S
C3135 O3147 1.281 . S
C3135 O3148 1.236 . S
C3136 O3158 1.240 . S
C3136 O3159 1.264 . S
O3137 Mn3132 2.095 . S
O3137 C3146 1.250 . S
O3138 Mn3133 2.121 . S
O3138 C3146 1.258 . S
C3139 N3140 1.326 . S
C3139 C3143 1.460 1_565 S
C3139 H3145 0.929 . S
N3140 Mn3133 2.257 . S
N3140 C3139 1.326 . S
N3140 C3144 1.362 1_565 S
C3141 C3142 1.258 . S
C3141 C3144 1.431 . S
C3141 C3161 1.449 . S
C3142 C3141 1.258 . S
C3142 C3143 1.477 . S
C3142 H3162 0.931 . S
C3143 C3139 1.460 1_545 S
C3143 C3142 1.477 . S
C3143 H3163 0.930 . S
C3144 N3140 1.362 1_545 S
C3144 C3141 1.431 . S
C3144 C3154 1.476 . S
H3145 C3139 0.929 . S
C3146 O3137 1.250 . S
C3146 O3138 1.258 . S
O3147 Mn3132 2.162 . S
O3147 C3135 1.281 . S
O3148 Mn3132 2.297 . S
O3148 C3135 1.236 . S
N3149 Mn3133 2.282 . S
N3149 C3150 1.328 . S
N3149 C3154 1.318 1_565 S
C3150 N3149 1.328 . S
C3150 C3151 1.457 1_565 S
C3150 H3155 0.929 . S
C3151 C3150 1.457 1_545 S
C3151 C3152 1.291 . S
C3151 H3164 0.931 . S
C3152 C3151 1.291 . S
C3152 C3153 1.373 . S
C3152 H3165 0.929 . S
C3153 C3152 1.373 . S
C3153 C3154 1.396 . S
C3153 C3160 1.403 . S
C3154 C3144 1.476 . S
C3154 N3149 1.318 1_545 S
C3154 C3153 1.396 . S
H3155 C3150 0.929 . S
O3156 Mn3132 2.385 . S
O3156 C3134 1.234 . S
O3157 Mn3132 2.209 . S
O3157 Mn3133 2.215 . S
O3157 C3134 1.283 . S
O3158 Mn3132 2.094 . S
O3158 C3136 1.240 . S
O3159 Mn3133 2.117 . S
O3159 C3136 1.264 . S
C3160 C3153 1.403 . S
C3160 C3161 1.399 . S
C3160 H3166 0.929 . S
C3161 C3141 1.449 . S
C3161 C3160 1.399 . S
C3161 H3167 0.930 . S
H3162 C3142 0.931 . S
H3163 C3143 0.930 . S
H3164 C3151 0.931 . S
H3165 C3152 0.929 . S
H3166 C3160 0.929 . S
H3167 C3161 0.930 . S
Mn3168 O3173 2.095 . S
Mn3168 O3183 2.162 . S
Mn3168 O3184 2.297 . S
Mn3168 O3192 2.385 . S
Mn3168 O3193 2.209 . S
Mn3168 O3194 2.094 . S
Mn3169 O3174 2.121 . S
Mn3169 N3176 2.257 . S
Mn3169 N3185 2.282 . S
Mn3169 O3193 2.215 . S
Mn3169 O3195 2.117 . S
C3170 O3192 1.234 . S
C3170 O3193 1.283 . S
C3171 O3183 1.281 . S
C3171 O3184 1.236 . S
C3172 O3194 1.240 . S
C3172 O3195 1.264 . S
O3173 Mn3168 2.095 . S
O3173 C3182 1.250 . S
O3174 Mn3169 2.121 . S
O3174 C3182 1.258 . S
C3175 N3176 1.326 . S
C3175 C3179 1.460 1_545 S
C3175 H3181 0.929 . S
N3176 Mn3169 2.257 . S
N3176 C3175 1.326 . S
N3176 C3180 1.362 1_545 S
C3177 C3178 1.258 . S
C3177 C3180 1.431 . S
C3177 C3197 1.449 . S
C3178 C3177 1.258 . S
C3178 C3179 1.477 . S
C3178 H3198 0.931 . S
C3179 C3175 1.460 1_565 S
C3179 C3178 1.477 . S
C3179 H3199 0.930 . S
C3180 N3176 1.362 1_565 S
C3180 C3177 1.431 . S
C3180 C3190 1.476 . S
H3181 C3175 0.929 . S
C3182 O3173 1.250 . S
C3182 O3174 1.258 . S
O3183 Mn3168 2.162 . S
O3183 C3171 1.281 . S
O3184 Mn3168 2.297 . S
O3184 C3171 1.236 . S
N3185 Mn3169 2.282 . S
N3185 C3186 1.328 . S
N3185 C3190 1.318 1_545 S
C3186 N3185 1.328 . S
C3186 C3187 1.457 1_545 S
C3186 H3191 0.929 . S
C3187 C3186 1.457 1_565 S
C3187 C3188 1.291 . S
C3187 H3200 0.931 . S
C3188 C3187 1.291 . S
C3188 C3189 1.373 . S
C3188 H3201 0.929 . S
C3189 C3188 1.373 . S
C3189 C3190 1.396 . S
C3189 C3196 1.403 . S
C3190 C3180 1.476 . S
C3190 N3185 1.318 1_565 S
C3190 C3189 1.396 . S
H3191 C3186 0.929 . S
O3192 Mn3168 2.385 . S
O3192 C3170 1.234 . S
O3193 Mn3168 2.209 . S
O3193 Mn3169 2.215 . S
O3193 C3170 1.283 . S
O3194 Mn3168 2.094 . S
O3194 C3172 1.240 . S
O3195 Mn3169 2.117 . S
O3195 C3172 1.264 . S
C3196 C3189 1.403 . S
C3196 C3197 1.399 . S
C3196 H3202 0.929 . S
C3197 C3177 1.449 . S
C3197 C3196 1.399 . S
C3197 H3203 0.930 . S
H3198 C3178 0.931 . S
H3199 C3179 0.930 . S
H3200 C3187 0.931 . S
H3201 C3188 0.929 . S
H3202 C3196 0.929 . S
H3203 C3197 0.930 . S
Mn3204 O3209 2.095 . S
Mn3204 O3219 2.162 . S
Mn3204 O3220 2.297 . S
Mn3204 O3228 2.385 . S
Mn3204 O3229 2.209 . S
Mn3204 O3230 2.094 . S
Mn3205 O3210 2.121 . S
Mn3205 N3212 2.257 . S
Mn3205 N3221 2.282 . S
Mn3205 O3229 2.215 . S
Mn3205 O3231 2.117 . S
C3206 O3228 1.234 . S
C3206 O3229 1.283 . S
C3207 O3219 1.281 . S
C3207 O3220 1.236 . S
C3208 O3230 1.240 . S
C3208 O3231 1.264 . S
O3209 Mn3204 2.095 . S
O3209 C3218 1.250 . S
O3210 Mn3205 2.121 . S
O3210 C3218 1.258 . S
C3211 N3212 1.326 . S
C3211 C3215 1.460 1_565 S
C3211 H3217 0.929 . S
N3212 Mn3205 2.257 . S
N3212 C3211 1.326 . S
N3212 C3216 1.362 1_565 S
C3213 C3214 1.258 . S
C3213 C3216 1.431 . S
C3213 C3233 1.449 . S
C3214 C3213 1.258 . S
C3214 C3215 1.477 . S
C3214 H3234 0.931 . S
C3215 C3211 1.460 1_545 S
C3215 C3214 1.477 . S
C3215 H3235 0.930 . S
C3216 N3212 1.362 1_545 S
C3216 C3213 1.431 . S
C3216 C3226 1.476 . S
H3217 C3211 0.929 . S
C3218 O3209 1.250 . S
C3218 O3210 1.258 . S
O3219 Mn3204 2.162 . S
O3219 C3207 1.281 . S
O3220 Mn3204 2.297 . S
O3220 C3207 1.236 . S
N3221 Mn3205 2.282 . S
N3221 C3222 1.328 . S
N3221 C3226 1.318 1_565 S
C3222 N3221 1.328 . S
C3222 C3223 1.457 1_565 S
C3222 H3227 0.929 . S
C3223 C3222 1.457 1_545 S
C3223 C3224 1.291 . S
C3223 H3236 0.931 . S
C3224 C3223 1.291 . S
C3224 C3225 1.373 . S
C3224 H3237 0.929 . S
C3225 C3224 1.373 . S
C3225 C3226 1.396 . S
C3225 C3232 1.403 . S
C3226 C3216 1.476 . S
C3226 N3221 1.318 1_545 S
C3226 C3225 1.396 . S
H3227 C3222 0.929 . S
O3228 Mn3204 2.385 . S
O3228 C3206 1.234 . S
O3229 Mn3204 2.209 . S
O3229 Mn3205 2.215 . S
O3229 C3206 1.283 . S
O3230 Mn3204 2.094 . S
O3230 C3208 1.240 . S
O3231 Mn3205 2.117 . S
O3231 C3208 1.264 . S
C3232 C3225 1.403 . S
C3232 C3233 1.399 . S
C3232 H3238 0.929 . S
C3233 C3213 1.449 . S
C3233 C3232 1.399 . S
C3233 H3239 0.930 . S
H3234 C3214 0.931 . S
H3235 C3215 0.930 . S
H3236 C3223 0.931 . S
H3237 C3224 0.929 . S
H3238 C3232 0.929 . S
H3239 C3233 0.930 . S
Mn3240 O3245 2.095 . S
Mn3240 O3255 2.162 . S
Mn3240 O3256 2.297 . S
Mn3240 O3264 2.385 . S
Mn3240 O3265 2.209 . S
Mn3240 O3266 2.094 . S
Mn3241 O3246 2.121 . S
Mn3241 N3248 2.257 . S
Mn3241 N3257 2.282 . S
Mn3241 O3265 2.215 . S
Mn3241 O3267 2.117 . S
C3242 O3264 1.234 . S
C3242 O3265 1.283 . S
C3243 O3255 1.281 . S
C3243 O3256 1.236 . S
C3244 O3266 1.240 . S
C3244 O3267 1.264 . S
O3245 Mn3240 2.095 . S
O3245 C3254 1.250 . S
O3246 Mn3241 2.121 . S
O3246 C3254 1.258 . S
C3247 N3248 1.326 . S
C3247 C3251 1.460 1_455 S
C3247 H3253 0.929 . S
N3248 Mn3241 2.257 . S
N3248 C3247 1.326 . S
N3248 C3252 1.362 1_455 S
C3249 C3250 1.258 . S
C3249 C3252 1.431 . S
C3249 C3269 1.449 . S
C3250 C3249 1.258 . S
C3250 C3251 1.477 . S
C3250 H3270 0.931 . S
C3251 C3247 1.460 1_655 S
C3251 C3250 1.477 . S
C3251 H3271 0.930 . S
C3252 N3248 1.362 1_655 S
C3252 C3249 1.431 . S
C3252 C3262 1.476 . S
H3253 C3247 0.929 . S
C3254 O3245 1.250 . S
C3254 O3246 1.258 . S
O3255 Mn3240 2.162 . S
O3255 C3243 1.281 . S
O3256 Mn3240 2.297 . S
O3256 C3243 1.236 . S
N3257 Mn3241 2.282 . S
N3257 C3258 1.328 . S
N3257 C3262 1.318 1_455 S
C3258 N3257 1.328 . S
C3258 C3259 1.457 1_455 S
C3258 H3263 0.929 . S
C3259 C3258 1.457 1_655 S
C3259 C3260 1.291 . S
C3259 H3272 0.931 . S
C3260 C3259 1.291 . S
C3260 C3261 1.373 . S
C3260 H3273 0.929 . S
C3261 C3260 1.373 . S
C3261 C3262 1.396 . S
C3261 C3268 1.403 . S
C3262 C3252 1.476 . S
C3262 N3257 1.318 1_655 S
C3262 C3261 1.396 . S
H3263 C3258 0.929 . S
O3264 Mn3240 2.385 . S
O3264 C3242 1.234 . S
O3265 Mn3240 2.209 . S
O3265 Mn3241 2.215 . S
O3265 C3242 1.283 . S
O3266 Mn3240 2.094 . S
O3266 C3244 1.240 . S
O3267 Mn3241 2.117 . S
O3267 C3244 1.264 . S
C3268 C3261 1.403 . S
C3268 C3269 1.399 . S
C3268 H3274 0.929 . S
C3269 C3249 1.449 . S
C3269 C3268 1.399 . S
C3269 H3275 0.930 . S
H3270 C3250 0.931 . S
H3271 C3251 0.930 . S
H3272 C3259 0.931 . S
H3273 C3260 0.929 . S
H3274 C3268 0.929 . S
H3275 C3269 0.930 . S
Mn3276 O3281 2.095 . S
Mn3276 O3291 2.162 . S
Mn3276 O3292 2.297 . S
Mn3276 O3300 2.385 . S
Mn3276 O3301 2.209 . S
Mn3276 O3302 2.094 . S
Mn3277 O3282 2.121 . S
Mn3277 N3284 2.257 . S
Mn3277 N3293 2.282 . S
Mn3277 O3301 2.215 . S
Mn3277 O3303 2.117 . S
C3278 O3300 1.234 . S
C3278 O3301 1.283 . S
C3279 O3291 1.281 . S
C3279 O3292 1.236 . S
C3280 O3302 1.240 . S
C3280 O3303 1.264 . S
O3281 Mn3276 2.095 . S
O3281 C3290 1.250 . S
O3282 Mn3277 2.121 . S
O3282 C3290 1.258 . S
C3283 N3284 1.326 . S
C3283 C3287 1.460 1_545 S
C3283 H3289 0.929 . S
N3284 Mn3277 2.257 . S
N3284 C3283 1.326 . S
N3284 C3288 1.362 1_545 S
C3285 C3286 1.258 . S
C3285 C3288 1.431 . S
C3285 C3305 1.449 . S
C3286 C3285 1.258 . S
C3286 C3287 1.477 . S
C3286 H3306 0.931 . S
C3287 C3283 1.460 1_565 S
C3287 C3286 1.477 . S
C3287 H3307 0.930 . S
C3288 N3284 1.362 1_565 S
C3288 C3285 1.431 . S
C3288 C3298 1.476 . S
H3289 C3283 0.929 . S
C3290 O3281 1.250 . S
C3290 O3282 1.258 . S
O3291 Mn3276 2.162 . S
O3291 C3279 1.281 . S
O3292 Mn3276 2.297 . S
O3292 C3279 1.236 . S
N3293 Mn3277 2.282 . S
N3293 C3294 1.328 . S
N3293 C3298 1.318 1_545 S
C3294 N3293 1.328 . S
C3294 C3295 1.457 1_545 S
C3294 H3299 0.929 . S
C3295 C3294 1.457 1_565 S
C3295 C3296 1.291 . S
C3295 H3308 0.931 . S
C3296 C3295 1.291 . S
C3296 C3297 1.373 . S
C3296 H3309 0.929 . S
C3297 C3296 1.373 . S
C3297 C3298 1.396 . S
C3297 C3304 1.403 . S
C3298 C3288 1.476 . S
C3298 N3293 1.318 1_565 S
C3298 C3297 1.396 . S
H3299 C3294 0.929 . S
O3300 Mn3276 2.385 . S
O3300 C3278 1.234 . S
O3301 Mn3276 2.209 . S
O3301 Mn3277 2.215 . S
O3301 C3278 1.283 . S
O3302 Mn3276 2.094 . S
O3302 C3280 1.240 . S
O3303 Mn3277 2.117 . S
O3303 C3280 1.264 . S
C3304 C3297 1.403 . S
C3304 C3305 1.399 . S
C3304 H3310 0.929 . S
C3305 C3285 1.449 . S
C3305 C3304 1.399 . S
C3305 H3311 0.930 . S
H3306 C3286 0.931 . S
H3307 C3287 0.930 . S
H3308 C3295 0.931 . S
H3309 C3296 0.929 . S
H3310 C3304 0.929 . S
H3311 C3305 0.930 . S
Mn3312 O3317 2.095 . S
Mn3312 O3327 2.162 . S
Mn3312 O3328 2.297 . S
Mn3312 O3336 2.385 . S
Mn3312 O3337 2.209 . S
Mn3312 O3338 2.094 . S
Mn3313 O3318 2.121 . S
Mn3313 N3320 2.257 . S
Mn3313 N3329 2.282 . S
Mn3313 O3337 2.215 . S
Mn3313 O3339 2.117 . S
C3314 O3336 1.234 . S
C3314 O3337 1.283 . S
C3315 O3327 1.281 . S
C3315 O3328 1.236 . S
C3316 O3338 1.240 . S
C3316 O3339 1.264 . S
O3317 Mn3312 2.095 . S
O3317 C3326 1.250 . S
O3318 Mn3313 2.121 . S
O3318 C3326 1.258 . S
C3319 N3320 1.326 . S
C3319 C3323 1.460 1_655 S
C3319 H3325 0.929 . S
N3320 Mn3313 2.257 . S
N3320 C3319 1.326 . S
N3320 C3324 1.362 1_655 S
C3321 C3322 1.258 . S
C3321 C3324 1.431 . S
C3321 C3341 1.449 . S
C3322 C3321 1.258 . S
C3322 C3323 1.477 . S
C3322 H3342 0.931 . S
C3323 C3319 1.460 1_455 S
C3323 C3322 1.477 . S
C3323 H3343 0.930 . S
C3324 N3320 1.362 1_455 S
C3324 C3321 1.431 . S
C3324 C3334 1.476 . S
H3325 C3319 0.929 . S
C3326 O3317 1.250 . S
C3326 O3318 1.258 . S
O3327 Mn3312 2.162 . S
O3327 C3315 1.281 . S
O3328 Mn3312 2.297 . S
O3328 C3315 1.236 . S
N3329 Mn3313 2.282 . S
N3329 C3330 1.328 . S
N3329 C3334 1.318 1_655 S
C3330 N3329 1.328 . S
C3330 C3331 1.457 1_655 S
C3330 H3335 0.929 . S
C3331 C3330 1.457 1_455 S
C3331 C3332 1.291 . S
C3331 H3344 0.931 . S
C3332 C3331 1.291 . S
C3332 C3333 1.373 . S
C3332 H3345 0.929 . S
C3333 C3332 1.373 . S
C3333 C3334 1.396 . S
C3333 C3340 1.403 . S
C3334 C3324 1.476 . S
C3334 N3329 1.318 1_455 S
C3334 C3333 1.396 . S
H3335 C3330 0.929 . S
O3336 Mn3312 2.385 . S
O3336 C3314 1.234 . S
O3337 Mn3312 2.209 . S
O3337 Mn3313 2.215 . S
O3337 C3314 1.283 . S
O3338 Mn3312 2.094 . S
O3338 C3316 1.240 . S
O3339 Mn3313 2.117 . S
O3339 C3316 1.264 . S
C3340 C3333 1.403 . S
C3340 C3341 1.399 . S
C3340 H3346 0.929 . S
C3341 C3321 1.449 . S
C3341 C3340 1.399 . S
C3341 H3347 0.930 . S
H3342 C3322 0.931 . S
H3343 C3323 0.930 . S
H3344 C3331 0.931 . S
H3345 C3332 0.929 . S
H3346 C3340 0.929 . S
H3347 C3341 0.930 . S
Mn3348 O3353 2.095 . S
Mn3348 O3363 2.162 . S
Mn3348 O3364 2.297 . S
Mn3348 O3372 2.385 . S
Mn3348 O3373 2.209 . S
Mn3348 O3374 2.094 . S
Mn3349 O3354 2.121 . S
Mn3349 N3356 2.257 . S
Mn3349 N3365 2.282 . S
Mn3349 O3373 2.215 . S
Mn3349 O3375 2.117 . S
C3350 O3372 1.234 . S
C3350 O3373 1.283 . S
C3351 O3363 1.281 . S
C3351 O3364 1.236 . S
C3352 O3374 1.240 . S
C3352 O3375 1.264 . S
O3353 Mn3348 2.095 . S
O3353 C3362 1.250 . S
O3354 Mn3349 2.121 . S
O3354 C3362 1.258 . S
C3355 N3356 1.326 . S
C3355 C3359 1.460 1_565 S
C3355 H3361 0.929 . S
N3356 Mn3349 2.257 . S
N3356 C3355 1.326 . S
N3356 C3360 1.362 1_565 S
C3357 C3358 1.258 . S
C3357 C3360 1.431 . S
C3357 C3377 1.449 . S
C3358 C3357 1.258 . S
C3358 C3359 1.477 . S
C3358 H3378 0.931 . S
C3359 C3355 1.460 1_545 S
C3359 C3358 1.477 . S
C3359 H3379 0.930 . S
C3360 N3356 1.362 1_545 S
C3360 C3357 1.431 . S
C3360 C3370 1.476 . S
H3361 C3355 0.929 . S
C3362 O3353 1.250 . S
C3362 O3354 1.258 . S
O3363 Mn3348 2.162 . S
O3363 C3351 1.281 . S
O3364 Mn3348 2.297 . S
O3364 C3351 1.236 . S
N3365 Mn3349 2.282 . S
N3365 C3366 1.328 . S
N3365 C3370 1.318 1_565 S
C3366 N3365 1.328 . S
C3366 C3367 1.457 1_565 S
C3366 H3371 0.929 . S
C3367 C3366 1.457 1_545 S
C3367 C3368 1.291 . S
C3367 H3380 0.931 . S
C3368 C3367 1.291 . S
C3368 C3369 1.373 . S
C3368 H3381 0.929 . S
C3369 C3368 1.373 . S
C3369 C3370 1.396 . S
C3369 C3376 1.403 . S
C3370 C3360 1.476 . S
C3370 N3365 1.318 1_545 S
C3370 C3369 1.396 . S
H3371 C3366 0.929 . S
O3372 Mn3348 2.385 . S
O3372 C3350 1.234 . S
O3373 Mn3348 2.209 . S
O3373 Mn3349 2.215 . S
O3373 C3350 1.283 . S
O3374 Mn3348 2.094 . S
O3374 C3352 1.240 . S
O3375 Mn3349 2.117 . S
O3375 C3352 1.264 . S
C3376 C3369 1.403 . S
C3376 C3377 1.399 . S
C3376 H3382 0.929 . S
C3377 C3357 1.449 . S
C3377 C3376 1.399 . S
C3377 H3383 0.930 . S
H3378 C3358 0.931 . S
H3379 C3359 0.930 . S
H3380 C3367 0.931 . S
H3381 C3368 0.929 . S
H3382 C3376 0.929 . S
H3383 C3377 0.930 . S
Mn3384 O3389 2.095 . S
Mn3384 O3399 2.162 . S
Mn3384 O3400 2.297 . S
Mn3384 O3408 2.385 . S
Mn3384 O3409 2.209 . S
Mn3384 O3410 2.094 . S
Mn3385 O3390 2.121 . S
Mn3385 N3392 2.257 . S
Mn3385 N3401 2.282 . S
Mn3385 O3409 2.215 . S
Mn3385 O3411 2.117 . S
C3386 O3408 1.234 . S
C3386 O3409 1.283 . S
C3387 O3399 1.281 . S
C3387 O3400 1.236 . S
C3388 O3410 1.240 . S
C3388 O3411 1.264 . S
O3389 Mn3384 2.095 . S
O3389 C3398 1.250 . S
O3390 Mn3385 2.121 . S
O3390 C3398 1.258 . S
C3391 N3392 1.326 . S
C3391 C3395 1.460 1_455 S
C3391 H3397 0.929 . S
N3392 Mn3385 2.257 . S
N3392 C3391 1.326 . S
N3392 C3396 1.362 1_455 S
C3393 C3394 1.258 . S
C3393 C3396 1.431 . S
C3393 C3413 1.449 . S
C3394 C3393 1.258 . S
C3394 C3395 1.477 . S
C3394 H3414 0.931 . S
C3395 C3391 1.460 1_655 S
C3395 C3394 1.477 . S
C3395 H3415 0.930 . S
C3396 N3392 1.362 1_655 S
C3396 C3393 1.431 . S
C3396 C3406 1.476 . S
H3397 C3391 0.929 . S
C3398 O3389 1.250 . S
C3398 O3390 1.258 . S
O3399 Mn3384 2.162 . S
O3399 C3387 1.281 . S
O3400 Mn3384 2.297 . S
O3400 C3387 1.236 . S
N3401 Mn3385 2.282 . S
N3401 C3402 1.328 . S
N3401 C3406 1.318 1_455 S
C3402 N3401 1.328 . S
C3402 C3403 1.457 1_455 S
C3402 H3407 0.929 . S
C3403 C3402 1.457 1_655 S
C3403 C3404 1.291 . S
C3403 H3416 0.931 . S
C3404 C3403 1.291 . S
C3404 C3405 1.373 . S
C3404 H3417 0.929 . S
C3405 C3404 1.373 . S
C3405 C3406 1.396 . S
C3405 C3412 1.403 . S
C3406 C3396 1.476 . S
C3406 N3401 1.318 1_655 S
C3406 C3405 1.396 . S
H3407 C3402 0.929 . S
O3408 Mn3384 2.385 . S
O3408 C3386 1.234 . S
O3409 Mn3384 2.209 . S
O3409 Mn3385 2.215 . S
O3409 C3386 1.283 . S
O3410 Mn3384 2.094 . S
O3410 C3388 1.240 . S
O3411 Mn3385 2.117 . S
O3411 C3388 1.264 . S
C3412 C3405 1.403 . S
C3412 C3413 1.399 . S
C3412 H3418 0.929 . S
C3413 C3393 1.449 . S
C3413 C3412 1.399 . S
C3413 H3419 0.930 . S
H3414 C3394 0.931 . S
H3415 C3395 0.930 . S
H3416 C3403 0.931 . S
H3417 C3404 0.929 . S
H3418 C3412 0.929 . S
H3419 C3413 0.930 . S
Mn3420 O3425 2.095 . S
Mn3420 O3435 2.162 . S
Mn3420 O3436 2.297 . S
Mn3420 O3444 2.385 . S
Mn3420 O3445 2.209 . S
Mn3420 O3446 2.094 . S
Mn3421 O3426 2.121 . S
Mn3421 N3428 2.257 . S
Mn3421 N3437 2.282 . S
Mn3421 O3445 2.215 . S
Mn3421 O3447 2.117 . S
C3422 O3444 1.234 . S
C3422 O3445 1.283 . S
C3423 O3435 1.281 . S
C3423 O3436 1.236 . S
C3424 O3446 1.240 . S
C3424 O3447 1.264 . S
O3425 Mn3420 2.095 . S
O3425 C3434 1.250 . S
O3426 Mn3421 2.121 . S
O3426 C3434 1.258 . S
C3427 N3428 1.326 . S
C3427 C3431 1.460 1_655 S
C3427 H3433 0.929 . S
N3428 Mn3421 2.257 . S
N3428 C3427 1.326 . S
N3428 C3432 1.362 1_655 S
C3429 C3430 1.258 . S
C3429 C3432 1.431 . S
C3429 C3449 1.449 . S
C3430 C3429 1.258 . S
C3430 C3431 1.477 . S
C3430 H3450 0.931 . S
C3431 C3427 1.460 1_455 S
C3431 C3430 1.477 . S
C3431 H3451 0.930 . S
C3432 N3428 1.362 1_455 S
C3432 C3429 1.431 . S
C3432 C3442 1.476 . S
H3433 C3427 0.929 . S
C3434 O3425 1.250 . S
C3434 O3426 1.258 . S
O3435 Mn3420 2.162 . S
O3435 C3423 1.281 . S
O3436 Mn3420 2.297 . S
O3436 C3423 1.236 . S
N3437 Mn3421 2.282 . S
N3437 C3438 1.328 . S
N3437 C3442 1.318 1_655 S
C3438 N3437 1.328 . S
C3438 C3439 1.457 1_655 S
C3438 H3443 0.929 . S
C3439 C3438 1.457 1_455 S
C3439 C3440 1.291 . S
C3439 H3452 0.931 . S
C3440 C3439 1.291 . S
C3440 C3441 1.373 . S
C3440 H3453 0.929 . S
C3441 C3440 1.373 . S
C3441 C3442 1.396 . S
C3441 C3448 1.403 . S
C3442 C3432 1.476 . S
C3442 N3437 1.318 1_455 S
C3442 C3441 1.396 . S
H3443 C3438 0.929 . S
O3444 Mn3420 2.385 . S
O3444 C3422 1.234 . S
O3445 Mn3420 2.209 . S
O3445 Mn3421 2.215 . S
O3445 C3422 1.283 . S
O3446 Mn3420 2.094 . S
O3446 C3424 1.240 . S
O3447 Mn3421 2.117 . S
O3447 C3424 1.264 . S
C3448 C3441 1.403 . S
C3448 C3449 1.399 . S
C3448 H3454 0.929 . S
C3449 C3429 1.449 . S
C3449 C3448 1.399 . S
C3449 H3455 0.930 . S
H3450 C3430 0.931 . S
H3451 C3431 0.930 . S
H3452 C3439 0.931 . S
H3453 C3440 0.929 . S
H3454 C3448 0.929 . S
H3455 C3449 0.930 . S
C3 C1119 1.633 . S
C39 C1011 1.633 . S
C1047 C75 1.633 . S
C1083 C111 1.633 . S
C903 C147 1.633 . S
C939 C183 1.633 . S
C219 C975 1.633 . S
C867 C255 1.633 . S
C291 C1587 1.633 . S
C327 C1479 1.633 . S
C363 C1515 1.633 . S
C399 C1551 1.633 . S
C435 C1695 1.633 . S
C471 C1623 1.633 . S
C507 C1659 1.633 . S
C1443 C543 1.633 . S
C579 C1407 1.633 . S
C1191 C615 1.633 . S
C1227 C651 1.633 . S
C687 C1263 1.633 . S
C1155 C723 1.633 . S
C1335 C759 1.633 . S
C795 C1371 1.633 . S
C831 C1299 1.633 . S
C2847 C1731 1.633 . S
C2739 C1767 1.633 . S
C1803 C2775 1.633 . S
C2811 C1839 1.633 . S
C1875 C2631 1.633 . S
C1911 C2667 1.633 . S
C2703 C1947 1.633 . S
C2595 C1983 1.633 . S
C3315 C2019 1.633 . S
C3207 C2055 1.633 . S
C2091 C3243 1.633 . S
C2127 C3279 1.633 . S
C3423 C2163 1.633 . S
C3351 C2199 1.633 . S
C3387 C2235 1.633 . S
C2271 C3171 1.633 . S
C3135 C2307 1.633 . S
C2343 C2919 1.633 . S
C2955 C2379 1.633 . S
C2991 C2415 1.633 . S
C2883 C2451 1.633 . S
C2487 C3063 1.633 . S
C2523 C3099 1.633 . S
C3027 C2559 1.633 . S
C4 C2452 0.983 . S
C40 C2344 0.983 . S
C76 C2380 0.983 . S
C112 C2416 0.983 . S
C2560 C148 0.983 . S
C184 C2488 0.983 . S
C2524 C220 0.983 . S
C256 C2308 0.983 . S
C2272 C292 0.983 . S
C328 C2164 0.983 . S
C2200 C364 0.983 . S
C400 C2236 0.983 . S
C436 C2056 0.983 . S
C472 C2092 0.983 . S
C2128 C508 0.983 . S
C2020 C544 0.983 . S
C580 C1984 0.983 . S
C616 C1768 0.983 . S
C652 C1804 0.983 . S
C688 C1840 0.983 . S
C724 C1732 0.983 . S
C1912 C760 0.983 . S
C1948 C796 0.983 . S
C832 C1876 0.983 . S
C878 C3326 2.127 . S
C914 C3218 2.127 . S
C950 C3254 2.127 . S
C986 C3290 2.127 . S
C1022 C3434 2.127 . S
C3362 C1058 2.127 . S
C1094 C3398 2.127 . S
C1130 C3182 2.127 . S
C3146 C1166 2.127 . S
C3038 C1202 2.127 . S
C3074 C1238 2.127 . S
C3110 C1274 2.127 . S
C1310 C2930 2.127 . S
C1346 C2966 2.127 . S
C1382 C3002 2.127 . S
C2894 C1418 2.127 . S
C2858 C1454 2.127 . S
C1490 C2642 2.127 . S
C2678 C1526 2.127 . S
C2714 C1562 2.127 . S
C1598 C2606 2.127 . S
C1634 C2786 2.127 . S
C2822 C1670 2.127 . S
C1706 C2750 2.127 . S
C14 C1012 1.275 1_455 S
C50 C1048 1.275 1_545 S
C86 C1084 1.275 1_655 S
C122 C1120 1.275 1_565 S
C868 C158 1.275 1_655 S
C194 C904 1.275 1_545 S
C940 C230 1.275 1_455 S
C976 C266 1.275 1_545 S
C302 C1372 1.275 1_545 S
C1408 C338 1.275 1_455 S
C374 C1300 1.275 1_565 S
C410 C1336 1.275 1_455 S
C446 C1228 1.275 1_565 S
C482 C1264 1.275 1_455 S
C518 C1156 1.275 1_545 S
C1192 C554 1.275 1_455 S
C590 C1624 1.275 1_554 S
C626 C1552 1.275 1_556 S
C1588 C662 1.275 1_554 S
C698 C1480 1.275 1_556 S
C1516 C734 1.275 1_554 S
C770 C1444 1.275 1_554 S
C1696 C806 1.275 1_556 S
C1660 C842 1.275 1_556 S
C1742 C2740 1.275 . S
C1778 C2776 1.275 . S
C1814 C2812 1.275 . S
C2848 C1850 1.275 . S
C1886 C2596 1.275 . S
C1922 C2632 1.275 . S
C1958 C2668 1.275 . S
C1994 C2704 1.275 . S
C2030 C3100 1.275 . S
C3136 C2066 1.275 . S
C3028 C2102 1.275 . S
C3064 C2138 1.275 . S
C2174 C2956 1.275 . S
C2992 C2210 1.275 . S
C2246 C2884 1.275 . S
C2920 C2282 1.275 . S
C3352 C2318 1.275 . S
C3280 C2354 1.275 . S
C2390 C3316 1.275 . S
C2426 C3208 1.275 . S
C3244 C2462 1.275 . S
C2498 C3172 1.275 . S
C3424 C2534 1.275 . S
C3388 C2570 1.275 . S
C938 C2 1.817 . S
C38 C974 1.817 . S
C866 C74 1.817 . S
C110 C902 1.817 . S
C1082 C146 1.817 . S
C1118 C182 1.817 . S
C218 C1010 1.817 . S
C1046 C254 1.817 . S
C290 C1298 1.817 . S
C326 C1334 1.817 . S
C1370 C362 1.817 . S
C398 C1406 1.817 . S
C434 C1154 1.817 . S
C1190 C470 1.817 . S
C1226 C506 1.817 . S
C1262 C542 1.817 . S
C578 C1550 1.817 . S
C1622 C614 1.817 . S
C650 C1658 1.817 . S
C1442 C686 1.817 . S
C1694 C722 1.817 . S
C1478 C758 1.817 . S
C794 C1514 1.817 . S
C830 C1586 1.817 . S
C1730 C2666 1.817 1_556 S
C2702 C1766 1.817 1_554 S
C2594 C1802 1.817 1_554 S
C2630 C1838 1.817 1_554 S
C1874 C2810 1.817 1_554 S
C2846 C1910 1.817 1_556 S
C1946 C2738 1.817 1_554 S
C2774 C1982 1.817 1_556 S
C2018 C3026 1.817 1_655 S
C3062 C2054 1.817 1_545 S
C2090 C3098 1.817 1_455 S
C3134 C2126 1.817 1_565 S
C2882 C2162 1.817 1_455 S
C2918 C2198 1.817 1_545 S
C2954 C2234 1.817 1_655 S
C2990 C2270 1.817 1_565 S
C2306 C3278 1.817 1_565 S
C3350 C2342 1.817 1_565 S
C3386 C2378 1.817 1_455 S
C3170 C2414 1.817 1_545 S
C3422 C2450 1.817 1_655 S
C2486 C3206 1.817 1_545 S
C2522 C3242 1.817 1_655 S
C3314 C2558 1.817 1_655 S
