# Generated by pormake.
# Topology fcg, (5)-cn, num edge types: 1
# Building blocks:
#     Node 0, Type 0, BuildingBlock: XOMCOT_clean_sbu_1, # of connection points: 5
#     Node 1, Type 0, BuildingBlock: XOMCOT_clean_sbu_1, # of connection points: 5
#     Node 2, Type 0, BuildingBlock: XOMCOT_clean_sbu_1, # of connection points: 5
#     Node 3, Type 0, BuildingBlock: XOMCOT_clean_sbu_1, # of connection points: 5
#     Node 4, Type 0, BuildingBlock: XOMCOT_clean_sbu_1, # of connection points: 5
#     Node 5, Type 0, BuildingBlock: XOMCOT_clean_sbu_1, # of connection points: 5
#     Node 6, Type 0, BuildingBlock: XOMCOT_clean_sbu_1, # of connection points: 5
#     Node 7, Type 0, BuildingBlock: XOMCOT_clean_sbu_1, # of connection points: 5
#     Node 8, Type 0, BuildingBlock: XOMCOT_clean_sbu_1, # of connection points: 5
#     Node 9, Type 0, BuildingBlock: XOMCOT_clean_sbu_1, # of connection points: 5
#     Node 10, Type 0, BuildingBlock: XOMCOT_clean_sbu_1, # of connection points: 5
#     Node 11, Type 0, BuildingBlock: XOMCOT_clean_sbu_1, # of connection points: 5
#     Node 12, Type 0, BuildingBlock: XOMCOT_clean_sbu_1, # of connection points: 5
#     Node 13, Type 0, BuildingBlock: XOMCOT_clean_sbu_1, # of connection points: 5
#     Node 14, Type 0, BuildingBlock: XOMCOT_clean_sbu_1, # of connection points: 5
#     Node 15, Type 0, BuildingBlock: XOMCOT_clean_sbu_1, # of connection points: 5
#     Node 16, Type 0, BuildingBlock: XOMCOT_clean_sbu_1, # of connection points: 5
#     Node 17, Type 0, BuildingBlock: XOMCOT_clean_sbu_1, # of connection points: 5
#     Node 18, Type 0, BuildingBlock: XOMCOT_clean_sbu_1, # of connection points: 5
#     Node 19, Type 0, BuildingBlock: XOMCOT_clean_sbu_1, # of connection points: 5
#     Node 20, Type 0, BuildingBlock: XOMCOT_clean_sbu_1, # of connection points: 5
#     Node 21, Type 0, BuildingBlock: XOMCOT_clean_sbu_1, # of connection points: 5
#     Node 22, Type 0, BuildingBlock: XOMCOT_clean_sbu_1, # of connection points: 5
#     Node 23, Type 0, BuildingBlock: XOMCOT_clean_sbu_1, # of connection points: 5
#     Node 24, Type 0, BuildingBlock: XOMCOT_clean_sbu_1, # of connection points: 5
#     Node 25, Type 0, BuildingBlock: XOMCOT_clean_sbu_1, # of connection points: 5
#     Node 26, Type 0, BuildingBlock: XOMCOT_clean_sbu_1, # of connection points: 5
#     Node 27, Type 0, BuildingBlock: XOMCOT_clean_sbu_1, # of connection points: 5
#     Node 28, Type 0, BuildingBlock: XOMCOT_clean_sbu_1, # of connection points: 5
#     Node 29, Type 0, BuildingBlock: XOMCOT_clean_sbu_1, # of connection points: 5
#     Node 30, Type 0, BuildingBlock: XOMCOT_clean_sbu_1, # of connection points: 5
#     Node 31, Type 0, BuildingBlock: XOMCOT_clean_sbu_1, # of connection points: 5
#     Node 32, Type 0, BuildingBlock: XOMCOT_clean_sbu_1, # of connection points: 5
#     Node 33, Type 0, BuildingBlock: XOMCOT_clean_sbu_1, # of connection points: 5
#     Node 34, Type 0, BuildingBlock: XOMCOT_clean_sbu_1, # of connection points: 5
#     Node 35, Type 0, BuildingBlock: XOMCOT_clean_sbu_1, # of connection points: 5
#     Node 36, Type 0, BuildingBlock: XOMCOT_clean_sbu_1, # of connection points: 5
#     Node 37, Type 0, BuildingBlock: XOMCOT_clean_sbu_1, # of connection points: 5
#     Node 38, Type 0, BuildingBlock: XOMCOT_clean_sbu_1, # of connection points: 5
#     Node 39, Type 0, BuildingBlock: XOMCOT_clean_sbu_1, # of connection points: 5
#     Node 40, Type 0, BuildingBlock: XOMCOT_clean_sbu_1, # of connection points: 5
#     Node 41, Type 0, BuildingBlock: XOMCOT_clean_sbu_1, # of connection points: 5
#     Node 42, Type 0, BuildingBlock: XOMCOT_clean_sbu_1, # of connection points: 5
#     Node 43, Type 0, BuildingBlock: XOMCOT_clean_sbu_1, # of connection points: 5
#     Node 44, Type 0, BuildingBlock: XOMCOT_clean_sbu_1, # of connection points: 5
#     Node 45, Type 0, BuildingBlock: XOMCOT_clean_sbu_1, # of connection points: 5
#     Node 46, Type 0, BuildingBlock: XOMCOT_clean_sbu_1, # of connection points: 5
#     Node 47, Type 0, BuildingBlock: XOMCOT_clean_sbu_1, # of connection points: 5
#     Edge 48, Type (0, 0), BuildingBlock: CIFDUS_clean_linker_0, # of connection points: 2
#     Edge 49, Type (0, 0), BuildingBlock: CIFDUS_clean_linker_0, # of connection points: 2
#     Edge 50, Type (0, 0), BuildingBlock: CIFDUS_clean_linker_0, # of connection points: 2
#     Edge 51, Type (0, 0), BuildingBlock: CIFDUS_clean_linker_0, # of connection points: 2
#     Edge 52, Type (0, 0), BuildingBlock: CIFDUS_clean_linker_0, # of connection points: 2
#     Edge 53, Type (0, 0), BuildingBlock: CIFDUS_clean_linker_0, # of connection points: 2
#     Edge 54, Type (0, 0), BuildingBlock: CIFDUS_clean_linker_0, # of connection points: 2
#     Edge 55, Type (0, 0), BuildingBlock: CIFDUS_clean_linker_0, # of connection points: 2
#     Edge 56, Type (0, 0), BuildingBlock: CIFDUS_clean_linker_0, # of connection points: 2
#     Edge 57, Type (0, 0), BuildingBlock: CIFDUS_clean_linker_0, # of connection points: 2
#     Edge 58, Type (0, 0), BuildingBlock: CIFDUS_clean_linker_0, # of connection points: 2
#     Edge 59, Type (0, 0), BuildingBlock: CIFDUS_clean_linker_0, # of connection points: 2
#     Edge 60, Type (0, 0), BuildingBlock: CIFDUS_clean_linker_0, # of connection points: 2
#     Edge 61, Type (0, 0), BuildingBlock: CIFDUS_clean_linker_0, # of connection points: 2
#     Edge 62, Type (0, 0), BuildingBlock: CIFDUS_clean_linker_0, # of connection points: 2
#     Edge 63, Type (0, 0), BuildingBlock: CIFDUS_clean_linker_0, # of connection points: 2
#     Edge 64, Type (0, 0), BuildingBlock: CIFDUS_clean_linker_0, # of connection points: 2
#     Edge 65, Type (0, 0), BuildingBlock: CIFDUS_clean_linker_0, # of connection points: 2
#     Edge 66, Type (0, 0), BuildingBlock: CIFDUS_clean_linker_0, # of connection points: 2
#     Edge 67, Type (0, 0), BuildingBlock: CIFDUS_clean_linker_0, # of connection points: 2
#     Edge 68, Type (0, 0), BuildingBlock: CIFDUS_clean_linker_0, # of connection points: 2
#     Edge 69, Type (0, 0), BuildingBlock: CIFDUS_clean_linker_0, # of connection points: 2
#     Edge 70, Type (0, 0), BuildingBlock: CIFDUS_clean_linker_0, # of connection points: 2
#     Edge 71, Type (0, 0), BuildingBlock: CIFDUS_clean_linker_0, # of connection points: 2
#     Edge 72, Type (0, 0), BuildingBlock: CIFDUS_clean_linker_0, # of connection points: 2
#     Edge 73, Type (0, 0), BuildingBlock: CIFDUS_clean_linker_0, # of connection points: 2
#     Edge 74, Type (0, 0), BuildingBlock: CIFDUS_clean_linker_0, # of connection points: 2
#     Edge 75, Type (0, 0), BuildingBlock: CIFDUS_clean_linker_0, # of connection points: 2
#     Edge 76, Type (0, 0), BuildingBlock: CIFDUS_clean_linker_0, # of connection points: 2
#     Edge 77, Type (0, 0), BuildingBlock: CIFDUS_clean_linker_0, # of connection points: 2
#     Edge 78, Type (0, 0), BuildingBlock: CIFDUS_clean_linker_0, # of connection points: 2
#     Edge 79, Type (0, 0), BuildingBlock: CIFDUS_clean_linker_0, # of connection points: 2
#     Edge 80, Type (0, 0), BuildingBlock: CIFDUS_clean_linker_0, # of connection points: 2
#     Edge 81, Type (0, 0), BuildingBlock: CIFDUS_clean_linker_0, # of connection points: 2
#     Edge 82, Type (0, 0), BuildingBlock: CIFDUS_clean_linker_0, # of connection points: 2
#     Edge 83, Type (0, 0), BuildingBlock: CIFDUS_clean_linker_0, # of connection points: 2
#     Edge 84, Type (0, 0), BuildingBlock: CIFDUS_clean_linker_0, # of connection points: 2
#     Edge 85, Type (0, 0), BuildingBlock: CIFDUS_clean_linker_0, # of connection points: 2
#     Edge 86, Type (0, 0), BuildingBlock: CIFDUS_clean_linker_0, # of connection points: 2
#     Edge 87, Type (0, 0), BuildingBlock: CIFDUS_clean_linker_0, # of connection points: 2
#     Edge 88, Type (0, 0), BuildingBlock: CIFDUS_clean_linker_0, # of connection points: 2
#     Edge 89, Type (0, 0), BuildingBlock: CIFDUS_clean_linker_0, # of connection points: 2
#     Edge 90, Type (0, 0), BuildingBlock: CIFDUS_clean_linker_0, # of connection points: 2
#     Edge 91, Type (0, 0), BuildingBlock: CIFDUS_clean_linker_0, # of connection points: 2
#     Edge 92, Type (0, 0), BuildingBlock: CIFDUS_clean_linker_0, # of connection points: 2
#     Edge 93, Type (0, 0), BuildingBlock: CIFDUS_clean_linker_0, # of connection points: 2
#     Edge 94, Type (0, 0), BuildingBlock: CIFDUS_clean_linker_0, # of connection points: 2
#     Edge 95, Type (0, 0), BuildingBlock: CIFDUS_clean_linker_0, # of connection points: 2
#     Edge 96, Type (0, 0), BuildingBlock: CIFDUS_clean_linker_0, # of connection points: 2
#     Edge 97, Type (0, 0), BuildingBlock: CIFDUS_clean_linker_0, # of connection points: 2
#     Edge 98, Type (0, 0), BuildingBlock: CIFDUS_clean_linker_0, # of connection points: 2
#     Edge 99, Type (0, 0), BuildingBlock: CIFDUS_clean_linker_0, # of connection points: 2
#     Edge 100, Type (0, 0), BuildingBlock: CIFDUS_clean_linker_0, # of connection points: 2
#     Edge 101, Type (0, 0), BuildingBlock: CIFDUS_clean_linker_0, # of connection points: 2
#     Edge 102, Type (0, 0), BuildingBlock: CIFDUS_clean_linker_0, # of connection points: 2
#     Edge 103, Type (0, 0), BuildingBlock: CIFDUS_clean_linker_0, # of connection points: 2
#     Edge 104, Type (0, 0), BuildingBlock: CIFDUS_clean_linker_0, # of connection points: 2
#     Edge 105, Type (0, 0), BuildingBlock: CIFDUS_clean_linker_0, # of connection points: 2
#     Edge 106, Type (0, 0), BuildingBlock: CIFDUS_clean_linker_0, # of connection points: 2
#     Edge 107, Type (0, 0), BuildingBlock: CIFDUS_clean_linker_0, # of connection points: 2
#     Edge 108, Type (0, 0), BuildingBlock: CIFDUS_clean_linker_0, # of connection points: 2
#     Edge 109, Type (0, 0), BuildingBlock: CIFDUS_clean_linker_0, # of connection points: 2
#     Edge 110, Type (0, 0), BuildingBlock: CIFDUS_clean_linker_0, # of connection points: 2
#     Edge 111, Type (0, 0), BuildingBlock: CIFDUS_clean_linker_0, # of connection points: 2
#     Edge 112, Type (0, 0), BuildingBlock: CIFDUS_clean_linker_0, # of connection points: 2
#     Edge 113, Type (0, 0), BuildingBlock: CIFDUS_clean_linker_0, # of connection points: 2
#     Edge 114, Type (0, 0), BuildingBlock: CIFDUS_clean_linker_0, # of connection points: 2
#     Edge 115, Type (0, 0), BuildingBlock: CIFDUS_clean_linker_0, # of connection points: 2
#     Edge 116, Type (0, 0), BuildingBlock: CIFDUS_clean_linker_0, # of connection points: 2
#     Edge 117, Type (0, 0), BuildingBlock: CIFDUS_clean_linker_0, # of connection points: 2
#     Edge 118, Type (0, 0), BuildingBlock: CIFDUS_clean_linker_0, # of connection points: 2
#     Edge 119, Type (0, 0), BuildingBlock: CIFDUS_clean_linker_0, # of connection points: 2
#     Edge 120, Type (0, 0), BuildingBlock: CIFDUS_clean_linker_0, # of connection points: 2
#     Edge 121, Type (0, 0), BuildingBlock: CIFDUS_clean_linker_0, # of connection points: 2
#     Edge 122, Type (0, 0), BuildingBlock: CIFDUS_clean_linker_0, # of connection points: 2
#     Edge 123, Type (0, 0), BuildingBlock: CIFDUS_clean_linker_0, # of connection points: 2
#     Edge 124, Type (0, 0), BuildingBlock: CIFDUS_clean_linker_0, # of connection points: 2
#     Edge 125, Type (0, 0), BuildingBlock: CIFDUS_clean_linker_0, # of connection points: 2
#     Edge 126, Type (0, 0), BuildingBlock: CIFDUS_clean_linker_0, # of connection points: 2
#     Edge 127, Type (0, 0), BuildingBlock: CIFDUS_clean_linker_0, # of connection points: 2
#     Edge 128, Type (0, 0), BuildingBlock: CIFDUS_clean_linker_0, # of connection points: 2
#     Edge 129, Type (0, 0), BuildingBlock: CIFDUS_clean_linker_0, # of connection points: 2
#     Edge 130, Type (0, 0), BuildingBlock: CIFDUS_clean_linker_0, # of connection points: 2
#     Edge 131, Type (0, 0), BuildingBlock: CIFDUS_clean_linker_0, # of connection points: 2
#     Edge 132, Type (0, 0), BuildingBlock: CIFDUS_clean_linker_0, # of connection points: 2
#     Edge 133, Type (0, 0), BuildingBlock: CIFDUS_clean_linker_0, # of connection points: 2
#     Edge 134, Type (0, 0), BuildingBlock: CIFDUS_clean_linker_0, # of connection points: 2
#     Edge 135, Type (0, 0), BuildingBlock: CIFDUS_clean_linker_0, # of connection points: 2
#     Edge 136, Type (0, 0), BuildingBlock: CIFDUS_clean_linker_0, # of connection points: 2
#     Edge 137, Type (0, 0), BuildingBlock: CIFDUS_clean_linker_0, # of connection points: 2
#     Edge 138, Type (0, 0), BuildingBlock: CIFDUS_clean_linker_0, # of connection points: 2
#     Edge 139, Type (0, 0), BuildingBlock: CIFDUS_clean_linker_0, # of connection points: 2
#     Edge 140, Type (0, 0), BuildingBlock: CIFDUS_clean_linker_0, # of connection points: 2
#     Edge 141, Type (0, 0), BuildingBlock: CIFDUS_clean_linker_0, # of connection points: 2
#     Edge 142, Type (0, 0), BuildingBlock: CIFDUS_clean_linker_0, # of connection points: 2
#     Edge 143, Type (0, 0), BuildingBlock: CIFDUS_clean_linker_0, # of connection points: 2
#     Edge 144, Type (0, 0), BuildingBlock: CIFDUS_clean_linker_0, # of connection points: 2
#     Edge 145, Type (0, 0), BuildingBlock: CIFDUS_clean_linker_0, # of connection points: 2
#     Edge 146, Type (0, 0), BuildingBlock: CIFDUS_clean_linker_0, # of connection points: 2
#     Edge 147, Type (0, 0), BuildingBlock: CIFDUS_clean_linker_0, # of connection points: 2
#     Edge 148, Type (0, 0), BuildingBlock: CIFDUS_clean_linker_0, # of connection points: 2
#     Edge 149, Type (0, 0), BuildingBlock: CIFDUS_clean_linker_0, # of connection points: 2
#     Edge 150, Type (0, 0), BuildingBlock: CIFDUS_clean_linker_0, # of connection points: 2
#     Edge 151, Type (0, 0), BuildingBlock: CIFDUS_clean_linker_0, # of connection points: 2
#     Edge 152, Type (0, 0), BuildingBlock: CIFDUS_clean_linker_0, # of connection points: 2
#     Edge 153, Type (0, 0), BuildingBlock: CIFDUS_clean_linker_0, # of connection points: 2
#     Edge 154, Type (0, 0), BuildingBlock: CIFDUS_clean_linker_0, # of connection points: 2
#     Edge 155, Type (0, 0), BuildingBlock: CIFDUS_clean_linker_0, # of connection points: 2
#     Edge 156, Type (0, 0), BuildingBlock: CIFDUS_clean_linker_0, # of connection points: 2
#     Edge 157, Type (0, 0), BuildingBlock: CIFDUS_clean_linker_0, # of connection points: 2
#     Edge 158, Type (0, 0), BuildingBlock: CIFDUS_clean_linker_0, # of connection points: 2
#     Edge 159, Type (0, 0), BuildingBlock: CIFDUS_clean_linker_0, # of connection points: 2
#     Edge 160, Type (0, 0), BuildingBlock: CIFDUS_clean_linker_0, # of connection points: 2
#     Edge 161, Type (0, 0), BuildingBlock: CIFDUS_clean_linker_0, # of connection points: 2
#     Edge 162, Type (0, 0), BuildingBlock: CIFDUS_clean_linker_0, # of connection points: 2
#     Edge 163, Type (0, 0), BuildingBlock: CIFDUS_clean_linker_0, # of connection points: 2
#     Edge 164, Type (0, 0), BuildingBlock: CIFDUS_clean_linker_0, # of connection points: 2
#     Edge 165, Type (0, 0), BuildingBlock: CIFDUS_clean_linker_0, # of connection points: 2
#     Edge 166, Type (0, 0), BuildingBlock: CIFDUS_clean_linker_0, # of connection points: 2
#     Edge 167, Type (0, 0), BuildingBlock: CIFDUS_clean_linker_0, # of connection points: 2
# Relax obj value: 0.360
# Max RMSD: 0.247
# Mean RMSD: 0.247
data_MOF--net-fcg--node1-XOMCOT_clean_sbu_1--edge1-CIFDUS_clean_linker_0
_symmetry_space_group_name_H-M    P1
_symmetry_Int_Tables_number       1
_symmetry_cell_setting            triclinic
loop_
_symmetry_equiv_pos_as_xyz
'x, y, z'
_cell_length_a     59.297681
_cell_length_b     59.290248
_cell_length_c     59.273183
_cell_angle_alpha  90.024902
_cell_angle_beta   89.985002
_cell_angle_gamma 89.988614
loop_
_atom_site_label
_atom_site_type_symbol
_atom_site_fract_x
_atom_site_fract_y
_atom_site_fract_z
_atom_type_partial_charge
C0 C 0.13855 0.2868 0.14219 0.0
C1 C 0.16 0.27847 0.13831 0.0
N2 N 0.15805 0.25747 0.1298 0.0
N3 N 0.12331 0.27091 0.13641 0.0
C4 C 0.13576 0.25345 0.12885 0.0
H5 H 0.13443 0.30319 0.14905 0.0
Co6 Co 0.09189 0.26941 0.13805 0.0
C7 C 0.088 0.21983 0.14886 0.0
O8 O 0.07279 0.21474 0.13358 0.0
N9 N 0.06048 0.26685 0.13972 0.0
C10 C 0.02603 0.25719 0.151 0.0
C11 C 0.04824 0.25928 0.15738 0.0
C12 C 0.04532 0.26941 0.12292 0.0
N13 N 0.02424 0.26346 0.12923 0.0
O14 O 0.0917 0.25815 0.10761 0.0
H15 H 0.05512 0.2548 0.17366 0.0
H16 H 0.04976 0.27471 0.10606 0.0
O17 O 0.09512 0.23995 0.15073 0.0
C18 C 0.09452 0.2756 0.09532 0.0
O19 O 0.09382 0.29546 0.10519 0.0
N20 N 0.0927 0.28267 0.16678 0.0
C21 C 0.10172 0.30853 0.205 0.0
C22 C 0.10308 0.28493 0.20582 0.0
C23 C 0.0986 0.27228 0.18648 0.0
C24 C 0.08975 0.30544 0.1661 0.0
C25 C 0.09432 0.31876 0.185 0.0
H26 H 0.10081 0.25431 0.18739 0.0
H27 H 0.08514 0.31342 0.15035 0.0
H28 H 0.1285 0.23766 0.12329 0.0
H29 H 0.17573 0.28715 0.14154 0.0
H30 H 0.01232 0.25144 0.16158 0.0
H31 H 0.10885 0.27636 0.22088 0.0
H32 H 0.09285 0.33692 0.18374 0.0
C33 C 0.71122 0.1315 0.12479 0.0
C34 C 0.7205 0.15218 0.11975 0.0
N35 N 0.74296 0.15104 0.12327 0.0
N36 N 0.72773 0.11749 0.1316 0.0
C37 C 0.74681 0.12979 0.13037 0.0
H38 H 0.69369 0.12677 0.12303 0.0
Co39 Co 0.72509 0.08721 0.13815 0.0
C40 C 0.76187 0.07712 0.17102 0.0
O41 O 0.74959 0.06125 0.18037 0.0
N42 N 0.72249 0.05594 0.14426 0.0
C43 C 0.71318 0.02203 0.15763 0.0
C44 C 0.70834 0.04471 0.15826 0.0
C45 C 0.73558 0.03951 0.13523 0.0
N46 N 0.73028 0.01891 0.14312 0.0
O47 O 0.73978 0.08118 0.11 0.0
H48 H 0.6954 0.05223 0.16859 0.0
H49 H 0.74898 0.04245 0.1232 0.0
O50 O 0.75418 0.088 0.15403 0.0
C51 C 0.72707 0.07418 0.09414 0.0
O52 O 0.70637 0.06795 0.09898 0.0
N53 N 0.70888 0.09502 0.16437 0.0
C54 C 0.68005 0.11469 0.19602 0.0
C55 C 0.70343 0.11493 0.19927 0.0
C56 C 0.7176 0.10559 0.18294 0.0
C57 C 0.6861 0.09454 0.16108 0.0
C58 C 0.67135 0.10423 0.17671 0.0
H59 H 0.73542 0.10848 0.1847 0.0
H60 H 0.67944 0.08735 0.14568 0.0
H61 H 0.7633 0.12315 0.13424 0.0
H62 H 0.71144 0.16663 0.11326 0.0
H63 H 0.70444 0.00876 0.16663 0.0
H64 H 0.71076 0.12366 0.21356 0.0
H65 H 0.65338 0.1041 0.17345 0.0
C66 C 0.86099 0.6998 0.16231 0.0
C67 C 0.83883 0.70685 0.16106 0.0
N68 N 0.83857 0.72785 0.15236 0.0
N69 N 0.87447 0.71652 0.15479 0.0
C70 C 0.8603 0.73309 0.14855 0.0
H71 H 0.86691 0.6839 0.169 0.0
Co72 Co 0.90565 0.71899 0.15435 0.0
C73 C 0.90419 0.76963 0.15715 0.0
O74 O 0.90665 0.77321 0.13543 0.0
N75 N 0.93678 0.72204 0.15391 0.0
C76 C 0.97136 0.73425 0.16151 0.0
C77 C 0.94968 0.73242 0.16954 0.0
C78 C 0.95097 0.71739 0.13676 0.0
N79 N 0.97204 0.72489 0.14082 0.0
O80 O 0.90393 0.72807 0.12335 0.0
H81 H 0.94352 0.73905 0.18539 0.0
H82 H 0.94576 0.70968 0.12108 0.0
O83 O 0.90351 0.74961 0.16488 0.0
C84 C 0.90095 0.71079 0.11093 0.0
O85 O 0.90125 0.69083 0.12059 0.0
N86 N 0.90667 0.70842 0.18405 0.0
C87 C 0.89924 0.68553 0.22427 0.0
C88 C 0.8933 0.70828 0.22221 0.0
C89 C 0.89677 0.71935 0.20178 0.0
C90 C 0.91397 0.68675 0.18626 0.0
C91 C 0.91022 0.67484 0.20626 0.0
H92 H 0.8897 0.73597 0.19981 0.0
H93 H 0.92119 0.67817 0.17186 0.0
H94 H 0.86592 0.74919 0.14217 0.0
H95 H 0.82416 0.69747 0.16654 0.0
H96 H 0.98542 0.74214 0.17007 0.0
H97 H 0.88422 0.71684 0.23557 0.0
H98 H 0.91474 0.65717 0.20723 0.0
C99 C 0.28955 0.85384 0.13735 0.0
C100 C 0.27944 0.8336 0.13171 0.0
N101 N 0.258 0.83787 0.12542 0.0
N102 N 0.27437 0.87057 0.13486 0.0
C103 C 0.25548 0.86031 0.12752 0.0
H104 H 0.30677 0.85618 0.14289 0.0
Co105 Co 0.27666 0.90145 0.13916 0.0
C106 C 0.22927 0.91354 0.14967 0.0
O107 O 0.22909 0.93093 0.13594 0.0
N108 N 0.27833 0.93269 0.14347 0.0
C109 C 0.2728 0.96682 0.1581 0.0
C110 C 0.27283 0.94405 0.16247 0.0
C111 C 0.28205 0.94895 0.12794 0.0
N112 N 0.27852 0.96981 0.13634 0.0
O113 O 0.26495 0.90539 0.10941 0.0
H114 H 0.26801 0.93624 0.17824 0.0
H115 H 0.28616 0.94564 0.1105 0.0
O116 O 0.24687 0.90146 0.15166 0.0
C117 C 0.28018 0.90301 0.09444 0.0
O118 O 0.30134 0.90196 0.10099 0.0
N119 N 0.2894 0.89657 0.16766 0.0
C120 C 0.31298 0.88529 0.20669 0.0
C121 C 0.28956 0.88247 0.20559 0.0
C122 C 0.27807 0.88789 0.18578 0.0
C123 C 0.31209 0.90003 0.16865 0.0
C124 C 0.32429 0.89435 0.188 0.0
H125 H 0.26027 0.88426 0.18493 0.0
H126 H 0.32084 0.90649 0.154 0.0
H127 H 0.23996 0.86924 0.12401 0.0
H128 H 0.28731 0.81713 0.132 0.0
H129 H 0.26857 0.98012 0.16988 0.0
H130 H 0.28035 0.87506 0.21953 0.0
H131 H 0.34241 0.89663 0.18823 0.0
C132 C 0.13303 0.71521 0.85832 0.0
C133 C 0.15398 0.72407 0.86316 0.0
N134 N 0.1514 0.74604 0.86843 0.0
N135 N 0.1174 0.73162 0.86027 0.0
C136 C 0.12911 0.75005 0.86663 0.0
H137 H 0.12942 0.69789 0.85391 0.0
Co138 Co 0.08618 0.7299 0.8567 0.0
C139 C 0.083 0.78033 0.85082 0.0
O140 O 0.07978 0.78521 0.87219 0.0
N141 N 0.05482 0.72885 0.85313 0.0
C142 C 0.02078 0.73534 0.8388 0.0
C143 C 0.04343 0.73399 0.83409 0.0
C144 C 0.03865 0.72695 0.86915 0.0
N145 N 0.0178 0.73109 0.86091 0.0
O146 O 0.08296 0.74057 0.88698 0.0
H147 H 0.05116 0.73774 0.818 0.0
H148 H 0.04215 0.72395 0.88679 0.0
O149 O 0.08567 0.75997 0.84455 0.0
C150 C 0.08748 0.72415 0.90007 0.0
O151 O 0.0899 0.70397 0.89118 0.0
N152 N 0.09063 0.7176 0.82779 0.0
C153 C 0.10896 0.69452 0.79098 0.0
C154 C 0.10761 0.71817 0.79109 0.0
C155 C 0.09892 0.72939 0.80982 0.0
C156 C 0.08967 0.69464 0.8271 0.0
C157 C 0.09893 0.68271 0.80893 0.0
H158 H 0.10041 0.74748 0.81023 0.0
H159 H 0.08349 0.68551 0.84164 0.0
H160 H 0.12143 0.7662 0.8699 0.0
H161 H 0.16978 0.71493 0.86313 0.0
H162 H 0.0076 0.73968 0.82694 0.0
H163 H 0.11443 0.72811 0.77737 0.0
H164 H 0.09961 0.66449 0.80979 0.0
C165 C 0.28776 0.14366 0.87258 0.0
C166 C 0.27932 0.16395 0.88034 0.0
N167 N 0.25663 0.16258 0.88052 0.0
N168 N 0.27039 0.1297 0.8681 0.0
C169 C 0.25172 0.14173 0.87303 0.0
H170 H 0.30534 0.13892 0.87155 0.0
Co171 Co 0.27113 0.09893 0.8627 0.0
C172 C 0.22261 0.09322 0.85036 0.0
O173 O 0.21733 0.08187 0.86864 0.0
N174 N 0.27132 0.06783 0.85755 0.0
C175 C 0.26419 0.03407 0.8428 0.0
C176 C 0.26357 0.05696 0.83907 0.0
C177 C 0.27704 0.05122 0.87203 0.0
N178 N 0.27264 0.03059 0.86357 0.0
O179 O 0.25748 0.09476 0.8914 0.0
H180 H 0.25728 0.06518 0.82404 0.0
H181 H 0.28351 0.05405 0.88882 0.0
O182 O 0.24255 0.1006 0.84757 0.0
C183 C 0.27295 0.09528 0.90628 0.0
O184 O 0.29407 0.09507 0.89952 0.0
N185 N 0.28597 0.10388 0.83544 0.0
C186 C 0.31128 0.11332 0.79716 0.0
C187 C 0.28951 0.1221 0.79958 0.0
C188 C 0.27728 0.11756 0.81909 0.0
C189 C 0.30715 0.09519 0.83342 0.0
C190 C 0.32022 0.09979 0.81434 0.0
H191 H 0.26119 0.12578 0.8214 0.0
H192 H 0.3141 0.08506 0.84691 0.0
H193 H 0.23487 0.13475 0.87294 0.0
H194 H 0.28907 0.17825 0.88614 0.0
H195 H 0.25877 0.02101 0.83124 0.0
H196 H 0.2824 0.1332 0.78692 0.0
H197 H 0.33715 0.09304 0.81309 0.0
C198 C 0.85921 0.28557 0.86241 0.0
C199 C 0.83917 0.27717 0.87075 0.0
N200 N 0.84233 0.25532 0.87618 0.0
N201 N 0.87482 0.26903 0.86259 0.0
C202 C 0.86403 0.25092 0.87115 0.0
H203 H 0.86235 0.30274 0.85714 0.0
Co204 Co 0.9054 0.27097 0.85587 0.0
C205 C 0.90793 0.22032 0.85027 0.0
O206 O 0.91178 0.215 0.87143 0.0
N207 N 0.93626 0.27226 0.84923 0.0
C208 C 0.96898 0.26574 0.83204 0.0
C209 C 0.94598 0.26694 0.82931 0.0
C210 C 0.95374 0.27444 0.86371 0.0
N211 N 0.97381 0.2703 0.85376 0.0
O212 O 0.91157 0.26097 0.88567 0.0
H213 H 0.93689 0.26296 0.81401 0.0
H214 H 0.95182 0.27759 0.88156 0.0
O215 O 0.90527 0.24079 0.84441 0.0
C216 C 0.90974 0.27741 0.89939 0.0
O217 O 0.90793 0.29788 0.89105 0.0
N218 N 0.89813 0.28244 0.8273 0.0
C219 C 0.87877 0.30456 0.79049 0.0
C220 C 0.87824 0.28094 0.79213 0.0
C221 C 0.88753 0.27025 0.81087 0.0
C222 C 0.90034 0.30521 0.82526 0.0
C223 C 0.89067 0.31667 0.80704 0.0
H224 H 0.8849 0.25235 0.81256 0.0
H225 H 0.9083 0.31468 0.83868 0.0
H226 H 0.87218 0.23507 0.87483 0.0
H227 H 0.82361 0.28647 0.87288 0.0
H228 H 0.98112 0.26125 0.81916 0.0
H229 H 0.86976 0.27075 0.77957 0.0
H230 H 0.89138 0.33491 0.80673 0.0
C231 C 0.69948 0.84235 0.88341 0.0
C232 C 0.70829 0.82326 0.89345 0.0
N233 N 0.73045 0.82674 0.89737 0.0
N234 N 0.71607 0.85765 0.88095 0.0
C235 C 0.73463 0.84766 0.88954 0.0
H236 H 0.68202 0.8452 0.87896 0.0
Co237 Co 0.71462 0.88779 0.87251 0.0
C238 C 0.7627 0.89501 0.86065 0.0
O239 O 0.76559 0.91003 0.87669 0.0
N240 N 0.71395 0.91844 0.86448 0.0
C241 C 0.72243 0.95094 0.84767 0.0
C242 C 0.72167 0.92783 0.84519 0.0
C243 C 0.70951 0.93618 0.87809 0.0
N244 N 0.71481 0.95605 0.86843 0.0
O245 O 0.7272 0.89506 0.90112 0.0
H246 H 0.72758 0.91841 0.83071 0.0
H247 H 0.70379 0.93468 0.89531 0.0
O248 O 0.74374 0.88522 0.8584 0.0
C249 C 0.71137 0.8956 0.91564 0.0
O250 O 0.6904 0.89453 0.90851 0.0
N251 N 0.70071 0.87979 0.84528 0.0
C252 C 0.67641 0.86521 0.80772 0.0
C253 C 0.69789 0.85648 0.81233 0.0
C254 C 0.70965 0.86379 0.83134 0.0
C255 C 0.67985 0.88851 0.84114 0.0
C256 C 0.6674 0.8815 0.82236 0.0
H257 H 0.72547 0.85577 0.83542 0.0
H258 H 0.67262 0.90061 0.85274 0.0
H259 H 0.75065 0.85621 0.89128 0.0
H260 H 0.69898 0.80819 0.89784 0.0
H261 H 0.72863 0.96297 0.83542 0.0
H262 H 0.70519 0.8434 0.80186 0.0
H263 H 0.65083 0.88862 0.81945 0.0
C264 C 0.14811 0.1388 0.28658 0.0
C265 C 0.14385 0.1584 0.27468 0.0
N266 N 0.13652 0.15266 0.25393 0.0
N267 N 0.14375 0.12097 0.27313 0.0
C268 C 0.13669 0.13001 0.25349 0.0
H269 H 0.15411 0.13763 0.30377 0.0
Co270 Co 0.14606 0.09008 0.27783 0.0
C271 C 0.16167 0.07522 0.2316 0.0
O272 O 0.14941 0.05683 0.23001 0.0
N273 N 0.14829 0.05885 0.28179 0.0
C274 C 0.16039 0.02345 0.27887 0.0
C275 C 0.1665 0.0458 0.27758 0.0
C276 C 0.13154 0.04407 0.28629 0.0
N277 N 0.1384 0.0225 0.28432 0.0
O278 O 0.11687 0.08694 0.26464 0.0
H279 H 0.18289 0.05212 0.27264 0.0
H280 H 0.1143 0.04885 0.28971 0.0
O281 O 0.16047 0.08763 0.24905 0.0
C282 C 0.10177 0.09125 0.27931 0.0
O283 O 0.10795 0.09331 0.30051 0.0
N284 N 0.17403 0.09419 0.292 0.0
C285 C 0.21242 0.10484 0.31697 0.0
C286 C 0.21208 0.1078 0.29352 0.0
C287 C 0.19264 0.10265 0.28136 0.0
C288 C 0.17418 0.09069 0.31472 0.0
C289 C 0.19323 0.09598 0.3276 0.0
H290 H 0.1924 0.10652 0.26361 0.0
H291 H 0.15915 0.08446 0.32297 0.0
H292 H 0.13207 0.12007 0.23888 0.0
H293 H 0.1458 0.17548 0.28085 0.0
H294 H 0.17108 0.00902 0.27551 0.0
H295 H 0.22634 0.11515 0.28476 0.0
H296 H 0.19282 0.09357 0.3457 0.0
C297 C 0.86685 0.14111 0.28951 0.0
C298 C 0.84638 0.13261 0.28253 0.0
N299 N 0.84781 0.12777 0.26034 0.0
N300 N 0.88102 0.14166 0.27175 0.0
C301 C 0.86893 0.13357 0.25424 0.0
H302 H 0.87144 0.14554 0.3066 0.0
Co303 Co 0.91184 0.14692 0.27195 0.0
C304 C 0.92003 0.16054 0.22448 0.0
O305 O 0.93669 0.14616 0.22186 0.0
N306 N 0.94298 0.15193 0.27204 0.0
C307 C 0.9773 0.16559 0.26532 0.0
C308 C 0.9545 0.17006 0.2644 0.0
C309 C 0.95908 0.13709 0.27827 0.0
N310 N 0.97999 0.14485 0.27409 0.0
O311 O 0.91596 0.11799 0.25838 0.0
H312 H 0.9468 0.18526 0.25789 0.0
H313 H 0.9557 0.12054 0.28505 0.0
O314 O 0.90935 0.16139 0.24308 0.0
C315 C 0.91517 0.10312 0.27386 0.0
O316 O 0.91443 0.10995 0.29496 0.0
N317 N 0.90709 0.17434 0.28676 0.0
C318 C 0.89373 0.20986 0.31446 0.0
C319 C 0.88883 0.21013 0.29133 0.0
C320 C 0.89543 0.19206 0.27777 0.0
C321 C 0.91294 0.17427 0.30898 0.0
C322 C 0.90635 0.19187 0.32321 0.0
H323 H 0.8899 0.19185 0.26045 0.0
H324 H 0.92173 0.15987 0.31592 0.0
H325 H 0.87603 0.13045 0.2377 0.0
H326 H 0.83184 0.12956 0.29314 0.0
H327 H 0.99081 0.17662 0.25994 0.0
H328 H 0.87874 0.2235 0.28403 0.0
H329 H 0.91044 0.19107 0.341 0.0
C330 C 0.86015 0.86462 0.29173 0.0
C331 C 0.86532 0.84443 0.28151 0.0
N332 N 0.87113 0.84858 0.2599 0.0
N333 N 0.8625 0.88137 0.27656 0.0
C334 C 0.8692 0.87111 0.25738 0.0
H335 H 0.85568 0.86699 0.30925 0.0
Co336 Co 0.8608 0.91216 0.28163 0.0
C337 C 0.83441 0.93017 0.24288 0.0
O338 O 0.82827 0.9479 0.25461 0.0
N339 N 0.85981 0.94384 0.28689 0.0
C340 C 0.85191 0.97848 0.29942 0.0
C341 C 0.8454 0.95627 0.29962 0.0
C342 C 0.87475 0.95925 0.27895 0.0
N343 N 0.87022 0.98023 0.28629 0.0
O344 O 0.89107 0.91443 0.27087 0.0
H345 H 0.83085 0.95006 0.30854 0.0
H346 H 0.88909 0.95529 0.2684 0.0
O347 O 0.84841 0.91605 0.25128 0.0
C348 C 0.90387 0.91101 0.28778 0.0
O349 O 0.89451 0.91016 0.30788 0.0
N350 N 0.832 0.90792 0.29405 0.0
C351 C 0.79352 0.89406 0.31732 0.0
C352 C 0.79424 0.89343 0.29368 0.0
C353 C 0.81377 0.89998 0.28239 0.0
C354 C 0.83179 0.9081 0.31706 0.0
C355 C 0.81259 0.90167 0.32904 0.0
H356 H 0.81456 0.89704 0.26449 0.0
H357 H 0.84685 0.91296 0.32615 0.0
H358 H 0.87378 0.88018 0.24222 0.0
H359 H 0.86519 0.82803 0.28952 0.0
H360 H 0.84415 0.99224 0.30859 0.0
H361 H 0.78031 0.88664 0.28401 0.0
H362 H 0.81287 0.90219 0.3473 0.0
C363 C 0.13366 0.88162 0.2826 0.0
C364 C 0.15199 0.88768 0.26973 0.0
N365 N 0.15144 0.87547 0.25063 0.0
N366 N 0.12145 0.86605 0.27136 0.0
C367 C 0.13298 0.86236 0.25207 0.0
H368 H 0.12862 0.88928 0.29838 0.0
Co369 Co 0.09227 0.85832 0.27939 0.0
C370 C 0.07263 0.83235 0.24006 0.0
O371 O 0.05332 0.82846 0.25016 0.0
N372 N 0.06241 0.85134 0.28844 0.0
C373 C 0.03301 0.83786 0.30759 0.0
C374 C 0.05561 0.83535 0.30325 0.0
C375 C 0.04334 0.86317 0.28393 0.0
N376 N 0.02536 0.85545 0.29551 0.0
O377 O 0.08302 0.88655 0.2673 0.0
H378 H 0.06634 0.82302 0.31125 0.0
H379 H 0.04268 0.87783 0.27312 0.0
O380 O 0.08795 0.84384 0.24998 0.0
C381 C 0.08202 0.90231 0.28187 0.0
O382 O 0.08114 0.89678 0.30333 0.0
N383 N 0.10334 0.83174 0.29231 0.0
C384 C 0.12511 0.79702 0.31536 0.0
C385 C 0.11598 0.79333 0.29384 0.0
C386 C 0.10527 0.81097 0.28248 0.0
C387 C 0.11171 0.83548 0.31337 0.0
C388 C 0.12266 0.81837 0.32522 0.0
H389 H 0.09909 0.80778 0.26573 0.0
H390 H 0.11017 0.85207 0.32083 0.0
H391 H 0.12724 0.8516 0.23855 0.0
H392 H 0.16417 0.90073 0.27358 0.0
H393 H 0.02311 0.82793 0.31929 0.0
H394 H 0.11777 0.77716 0.28551 0.0
H395 H 0.12927 0.82188 0.34189 0.0
C396 C 0.13031 0.86367 0.71005 0.0
C397 C 0.1225 0.84497 0.72132 0.0
N398 N 0.11901 0.85057 0.74312 0.0
N399 N 0.13206 0.88096 0.7247 0.0
C400 C 0.12511 0.87246 0.74466 0.0
H401 H 0.1337 0.86474 0.69217 0.0
Co402 Co 0.13822 0.91101 0.71843 0.0
C403 C 0.17074 0.92558 0.75427 0.0
O404 O 0.17752 0.94306 0.74254 0.0
N405 N 0.14375 0.94204 0.71181 0.0
C406 C 0.1556 0.97381 0.69545 0.0
C407 C 0.15958 0.95116 0.69804 0.0
C408 C 0.13076 0.95995 0.71778 0.0
N409 N 0.13748 0.97925 0.70788 0.0
O410 O 0.11098 0.91844 0.73354 0.0
H411 H 0.17311 0.94215 0.68987 0.0
H412 H 0.11582 0.95892 0.72816 0.0
O413 O 0.1551 0.91285 0.74665 0.0
C414 C 0.09438 0.91887 0.71992 0.0
O415 O 0.09859 0.91863 0.69815 0.0
N416 N 0.1638 0.90194 0.70212 0.0
C417 C 0.19612 0.88284 0.67378 0.0
C418 C 0.19957 0.88369 0.69716 0.0
C419 C 0.18301 0.89294 0.71112 0.0
C420 C 0.16018 0.90123 0.67941 0.0
C421 C 0.17618 0.89187 0.66489 0.0
H422 H 0.18533 0.89165 0.72909 0.0
H423 H 0.14447 0.90755 0.67263 0.0
H424 H 0.12337 0.8826 0.75974 0.0
H425 H 0.11927 0.82865 0.71382 0.0
H426 H 0.16476 0.98528 0.68459 0.0
H427 H 0.21443 0.87623 0.70472 0.0
H428 H 0.17282 0.89138 0.64694 0.0
C429 C 0.13748 0.13071 0.7068 0.0
C430 C 0.15681 0.12321 0.7173 0.0
N431 N 0.15288 0.12217 0.73971 0.0
N432 N 0.12158 0.13458 0.72256 0.0
C433 C 0.13137 0.12906 0.74232 0.0
H434 H 0.13504 0.13284 0.68884 0.0
Co435 Co 0.09179 0.14308 0.71861 0.0
C436 C 0.07847 0.16211 0.76335 0.0
O437 O 0.05738 0.15553 0.76184 0.0
N438 N 0.06143 0.15159 0.71468 0.0
C439 C 0.03026 0.17204 0.71011 0.0
C440 C 0.0532 0.17283 0.71328 0.0
C441 C 0.04302 0.13824 0.71264 0.0
N442 N 0.02396 0.15028 0.70986 0.0
O443 O 0.08327 0.11489 0.73169 0.0
H444 H 0.06313 0.18805 0.71463 0.0
H445 H 0.04342 0.12003 0.71278 0.0
O446 O 0.09247 0.15773 0.74767 0.0
C447 C 0.08423 0.10074 0.71551 0.0
O448 O 0.08564 0.10877 0.69487 0.0
N449 N 0.10145 0.16934 0.70408 0.0
C450 C 0.1204 0.20294 0.67738 0.0
C451 C 0.12076 0.20475 0.70095 0.0
C452 C 0.11147 0.18753 0.71411 0.0
C453 C 0.10025 0.16776 0.68119 0.0
C454 C 0.1098 0.18432 0.66747 0.0
H455 H 0.11311 0.1886 0.73221 0.0
H456 H 0.09263 0.15304 0.67358 0.0
H457 H 0.12275 0.13001 0.75835 0.0
H458 H 0.17236 0.11851 0.70898 0.0
H459 H 0.01903 0.18633 0.70828 0.0
H460 H 0.12914 0.2188 0.70911 0.0
H461 H 0.10933 0.18237 0.6493 0.0
C462 C 0.86141 0.14319 0.70649 0.0
C463 C 0.86779 0.16135 0.71935 0.0
N464 N 0.87338 0.15387 0.74009 0.0
N465 N 0.86264 0.12433 0.71912 0.0
C466 C 0.86995 0.13137 0.73952 0.0
H467 H 0.85716 0.14366 0.68878 0.0
Co468 Co 0.85979 0.09488 0.70895 0.0
C469 C 0.82992 0.07239 0.74197 0.0
O470 O 0.82139 0.06049 0.72532 0.0
N471 N 0.85796 0.06483 0.69844 0.0
C472 C 0.85278 0.03398 0.67776 0.0
C473 C 0.85127 0.05702 0.67809 0.0
C474 C 0.86436 0.04604 0.70983 0.0
N475 N 0.86081 0.02703 0.6978 0.0
O476 O 0.88941 0.08897 0.72001 0.0
H477 H 0.8457 0.06703 0.66403 0.0
H478 H 0.87066 0.04627 0.72697 0.0
O479 O 0.84584 0.08644 0.73793 0.0
C480 C 0.90251 0.09477 0.70399 0.0
O481 O 0.89344 0.09937 0.68427 0.0
N482 N 0.83162 0.10265 0.69624 0.0
C483 C 0.79576 0.12344 0.67388 0.0
C484 C 0.79448 0.11893 0.69703 0.0
C485 C 0.81285 0.10911 0.70804 0.0
C486 C 0.83315 0.10735 0.67378 0.0
C487 C 0.81534 0.11736 0.66219 0.0
H488 H 0.81239 0.10849 0.72618 0.0
H489 H 0.84893 0.10464 0.66505 0.0
H490 H 0.87404 0.11999 0.7532 0.0
H491 H 0.86879 0.17865 0.71363 0.0
H492 H 0.84839 0.02314 0.66373 0.0
H493 H 0.78005 0.12437 0.70684 0.0
H494 H 0.81723 0.12111 0.6444 0.0
C495 C 0.85655 0.85874 0.72197 0.0
C496 C 0.83587 0.86144 0.73228 0.0
N497 N 0.83938 0.86696 0.75408 0.0
N498 N 0.87295 0.86232 0.73729 0.0
C499 C 0.86196 0.86748 0.75653 0.0
H500 H 0.85946 0.85446 0.70447 0.0
Co501 Co 0.9041 0.86139 0.73314 0.0
C502 C 0.91058 0.85334 0.78328 0.0
O503 O 0.91008 0.87437 0.79025 0.0
N504 N 0.93532 0.86038 0.72956 0.0
C505 C 0.97084 0.84919 0.73381 0.0
C506 C 0.94864 0.84278 0.73521 0.0
C507 C 0.94982 0.87716 0.72431 0.0
N508 N 0.97148 0.87081 0.72704 0.0
O509 O 0.90587 0.89183 0.74399 0.0
H510 H 0.94259 0.82654 0.74084 0.0
H511 H 0.9447 0.89405 0.71971 0.0
O512 O 0.90806 0.84858 0.76253 0.0
C513 C 0.89979 0.90366 0.72709 0.0
O514 O 0.89644 0.89337 0.70772 0.0
N515 N 0.90134 0.83254 0.72072 0.0
C516 C 0.89032 0.79344 0.69716 0.0
C517 C 0.88721 0.79467 0.72058 0.0
C518 C 0.8926 0.81449 0.73206 0.0
C519 C 0.90531 0.83137 0.69812 0.0
C520 C 0.89991 0.81194 0.68596 0.0
H521 H 0.88848 0.81565 0.74977 0.0
H522 H 0.91173 0.84602 0.68934 0.0
H523 H 0.87037 0.87143 0.77214 0.0
H524 H 0.81959 0.85968 0.72424 0.0
H525 H 0.98539 0.8389 0.73779 0.0
H526 H 0.87941 0.78093 0.72976 0.0
H527 H 0.9026 0.81162 0.66789 0.0
C528 C 0.29622 0.11931 0.14139 0.0
C529 C 0.28615 0.11227 0.16117 0.0
N530 N 0.26559 0.12176 0.16226 0.0
N531 N 0.28176 0.13271 0.12998 0.0
C532 C 0.26337 0.13403 0.14336 0.0
H533 H 0.31212 0.1133 0.13478 0.0
Co534 Co 0.28283 0.13924 0.09925 0.0
C535 C 0.23629 0.15531 0.09218 0.0
O536 O 0.2325 0.13941 0.07721 0.0
N537 N 0.28348 0.1455 0.06826 0.0
C538 C 0.27649 0.16136 0.03493 0.0
C539 C 0.27723 0.16482 0.05787 0.0
C540 C 0.28705 0.1308 0.05122 0.0
N541 N 0.28263 0.13992 0.0309 0.0
O542 O 0.26646 0.11196 0.09427 0.0
H543 H 0.27228 0.18015 0.06638 0.0
H544 H 0.29158 0.11333 0.05351 0.0
O545 O 0.25541 0.15654 0.10186 0.0
C546 C 0.27997 0.09527 0.09344 0.0
O547 O 0.30174 0.09936 0.09232 0.0
N548 N 0.3005 0.1646 0.10513 0.0
C549 C 0.33054 0.19726 0.12038 0.0
C550 C 0.30795 0.20279 0.11609 0.0
C551 C 0.2931 0.18614 0.1086 0.0
C552 C 0.32265 0.15925 0.10799 0.0
C553 C 0.33797 0.1753 0.11581 0.0
H554 H 0.27568 0.19067 0.1062 0.0
H555 H 0.3282 0.14212 0.1051 0.0
H556 H 0.2476 0.14176 0.1385 0.0
H557 H 0.29275 0.10008 0.17305 0.0
H558 H 0.27134 0.17346 0.02226 0.0
H559 H 0.30155 0.21955 0.11956 0.0
H560 H 0.35533 0.17045 0.11878 0.0
C561 C 0.29656 0.87135 0.85638 0.0
C562 C 0.28895 0.88045 0.83635 0.0
N563 N 0.26636 0.88276 0.83767 0.0
N564 N 0.27879 0.86795 0.87013 0.0
C565 C 0.26071 0.87501 0.85827 0.0
H566 H 0.31394 0.86829 0.86101 0.0
Co567 Co 0.27855 0.8604 0.90051 0.0
C568 C 0.23037 0.84813 0.90496 0.0
O569 O 0.22652 0.86473 0.91913 0.0
N570 N 0.27783 0.85342 0.93125 0.0
C571 C 0.26927 0.83812 0.96443 0.0
C572 C 0.269 0.83502 0.94138 0.0
C573 C 0.28392 0.8671 0.9484 0.0
N574 N 0.27866 0.85833 0.9687 0.0
O575 O 0.26442 0.88867 0.90616 0.0
H576 H 0.26213 0.8206 0.93257 0.0
H577 H 0.29122 0.88364 0.94613 0.0
O578 O 0.24997 0.84544 0.89662 0.0
C579 C 0.27855 0.90482 0.90623 0.0
O580 O 0.30018 0.89993 0.90608 0.0
N581 N 0.29361 0.83331 0.89413 0.0
C582 C 0.31996 0.79699 0.88037 0.0
C583 C 0.29918 0.80129 0.87007 0.0
C584 C 0.2862 0.8195 0.87724 0.0
C585 C 0.31367 0.82918 0.90462 0.0
C586 C 0.32704 0.81081 0.89818 0.0
H587 H 0.27079 0.82324 0.86828 0.0
H588 H 0.3197 0.84061 0.91751 0.0
H589 H 0.24386 0.8759 0.86522 0.0
H590 H 0.2993 0.88545 0.82216 0.0
H591 H 0.26291 0.82655 0.97704 0.0
H592 H 0.29332 0.791 0.85614 0.0
H593 H 0.34318 0.80803 0.90629 0.0
C594 C 0.11285 0.2972 0.86094 0.0
C595 C 0.10297 0.28697 0.84256 0.0
N596 N 0.10645 0.26459 0.8442 0.0
N597 N 0.12246 0.2813 0.87405 0.0
C598 C 0.11827 0.26161 0.86338 0.0
H599 H 0.11192 0.31491 0.86519 0.0
Co600 Co 0.13265 0.28564 0.90327 0.0
C601 C 0.15579 0.2425 0.91674 0.0
O602 O 0.15488 0.24662 0.93846 0.0
N603 N 0.14243 0.29054 0.93348 0.0
C604 C 0.16215 0.301 0.9638 0.0
C605 C 0.16217 0.29954 0.94067 0.0
C606 C 0.13087 0.28653 0.95286 0.0
N607 N 0.14249 0.29271 0.9714 0.0
O608 O 0.10496 0.27288 0.91319 0.0
H609 H 0.1759 0.30496 0.93003 0.0
H610 H 0.11412 0.2794 0.9536 0.0
O611 O 0.14699 0.25613 0.9026 0.0
C612 C 0.08979 0.28784 0.91594 0.0
O613 O 0.09599 0.30909 0.91711 0.0
N614 N 0.15874 0.29949 0.8918 0.0
C615 C 0.19341 0.32419 0.87182 0.0
C616 C 0.19566 0.30092 0.87526 0.0
C617 C 0.17803 0.28878 0.88504 0.0
C618 C 0.15642 0.32217 0.88892 0.0
C619 C 0.17351 0.33487 0.87882 0.0
H620 H 0.18008 0.27082 0.88675 0.0
H621 H 0.141 0.33037 0.8942 0.0
H622 H 0.12216 0.24523 0.87037 0.0
H623 H 0.09339 0.29524 0.8294 0.0
H624 H 0.17554 0.3077 0.97424 0.0
H625 H 0.21067 0.29205 0.86978 0.0
H626 H 0.17119 0.35284 0.87648 0.0
C627 C 0.71757 0.11114 0.85925 0.0
C628 C 0.72875 0.10529 0.83973 0.0
N629 N 0.75087 0.10953 0.84266 0.0
N630 N 0.73263 0.11898 0.87435 0.0
C631 C 0.75278 0.11781 0.86375 0.0
H632 H 0.69979 0.10891 0.86262 0.0
Co633 Co 0.72664 0.12471 0.90447 0.0
C634 C 0.76127 0.15791 0.91906 0.0
O635 O 0.74715 0.16609 0.93402 0.0
N636 N 0.72048 0.12972 0.93575 0.0
C637 C 0.70794 0.14268 0.96885 0.0
C638 C 0.70589 0.1442 0.94582 0.0
C639 C 0.73087 0.11937 0.95335 0.0
N640 N 0.72358 0.12702 0.9735 0.0
O641 O 0.74032 0.09644 0.91112 0.0
H642 H 0.6949 0.15592 0.93735 0.0
H643 H 0.744 0.10683 0.95158 0.0
O644 O 0.75556 0.14081 0.90717 0.0
C645 C 0.7249 0.08151 0.91235 0.0
O646 O 0.70384 0.08832 0.91373 0.0
N647 N 0.71134 0.15106 0.89576 0.0
C648 C 0.68432 0.18471 0.87684 0.0
C649 C 0.7079 0.1865 0.87649 0.0
C650 C 0.72112 0.16928 0.88558 0.0
C651 C 0.68847 0.14859 0.89537 0.0
C652 C 0.67461 0.16538 0.88639 0.0
H653 H 0.73909 0.17017 0.88312 0.0
H654 H 0.68098 0.13334 0.90202 0.0
H655 H 0.76874 0.1216 0.87172 0.0
H656 H 0.72128 0.09804 0.82472 0.0
H657 H 0.69858 0.15227 0.98128 0.0
H658 H 0.71614 0.20061 0.86832 0.0
H659 H 0.65649 0.16314 0.88678 0.0
C660 C 0.87135 0.71672 0.87088 0.0
C661 C 0.87757 0.73202 0.85453 0.0
N662 N 0.87757 0.75279 0.86383 0.0
N663 N 0.86735 0.72786 0.89028 0.0
C664 C 0.8714 0.74973 0.88548 0.0
H665 H 0.8703 0.69861 0.86891 0.0
Co666 Co 0.86119 0.71572 0.9183 0.0
C667 C 0.82987 0.74861 0.94028 0.0
O668 O 0.82203 0.733 0.95389 0.0
N669 N 0.85559 0.7032 0.94741 0.0
C670 C 0.84424 0.68165 0.97606 0.0
C671 C 0.84165 0.68617 0.95354 0.0
C672 C 0.86612 0.70894 0.96694 0.0
N673 N 0.85971 0.69589 0.98445 0.0
O674 O 0.88991 0.7267 0.92784 0.0
H675 H 0.83007 0.6773 0.94276 0.0
H676 H 0.87875 0.72203 0.96826 0.0
O677 O 0.84619 0.74394 0.92694 0.0
C678 C 0.90511 0.71151 0.92812 0.0
O679 O 0.89891 0.69026 0.92706 0.0
N680 N 0.83422 0.70374 0.90655 0.0
C681 C 0.79769 0.68262 0.88565 0.0
C682 C 0.7974 0.70588 0.88989 0.0
C683 C 0.81602 0.71621 0.89986 0.0
C684 C 0.83551 0.68147 0.90094 0.0
C685 C 0.81725 0.67043 0.89095 0.0
H686 H 0.81596 0.7343 0.90113 0.0
H687 H 0.8507 0.67211 0.90476 0.0
H688 H 0.87092 0.76307 0.89792 0.0
H689 H 0.88182 0.72815 0.8372 0.0
H690 H 0.83546 0.66875 0.98554 0.0
H691 H 0.78317 0.71619 0.88489 0.0
H692 H 0.81842 0.65251 0.8876 0.0
C693 C 0.70374 0.87763 0.14628 0.0
C694 C 0.71175 0.88875 0.16516 0.0
N695 N 0.73444 0.88854 0.16446 0.0
N696 N 0.72136 0.87021 0.13383 0.0
C697 C 0.73964 0.87748 0.14535 0.0
H698 H 0.68621 0.87632 0.1417 0.0
Co699 Co 0.72484 0.85793 0.10455 0.0
C700 C 0.75326 0.82877 0.13321 0.0
O701 O 0.73744 0.82882 0.14876 0.0
N702 N 0.72942 0.84663 0.07534 0.0
C703 C 0.74435 0.829 0.04575 0.0
C704 C 0.74208 0.82883 0.06878 0.0
C705 C 0.7242 0.85726 0.05588 0.0
N706 N 0.73335 0.84711 0.0376 0.0
O707 O 0.74394 0.88315 0.09785 0.0
H708 H 0.75044 0.8171 0.07991 0.0
H709 H 0.71504 0.87296 0.05526 0.0
O710 O 0.75059 0.84022 0.1151 0.0
C711 C 0.73239 0.90019 0.09171 0.0
O712 O 0.71059 0.89765 0.08871 0.0
N713 N 0.70443 0.834 0.11065 0.0
C714 C 0.67257 0.80242 0.12485 0.0
C715 C 0.69439 0.79563 0.11886 0.0
C716 C 0.70994 0.81161 0.11142 0.0
C717 C 0.68251 0.84033 0.11348 0.0
C718 C 0.6664 0.82496 0.12126 0.0
H719 H 0.72659 0.8058 0.10719 0.0
H720 H 0.67763 0.85758 0.11027 0.0
H721 H 0.75666 0.8758 0.13901 0.0
H722 H 0.70161 0.89682 0.17802 0.0
H723 H 0.75408 0.81707 0.03594 0.0
H724 H 0.69978 0.77829 0.12089 0.0
H725 H 0.64941 0.8307 0.12475 0.0
C726 C 0.11415 0.70726 0.13179 0.0
C727 C 0.10434 0.71533 0.15127 0.0
N728 N 0.10477 0.73808 0.15065 0.0
N729 N 0.12082 0.72485 0.11907 0.0
C730 C 0.11493 0.74335 0.13097 0.0
H731 H 0.11561 0.68976 0.12682 0.0
Co732 Co 0.13118 0.72411 0.08956 0.0
C733 C 0.15022 0.76957 0.0845 0.0
O734 O 0.13636 0.77394 0.06778 0.0
N735 N 0.14145 0.72375 0.05961 0.0
C736 C 0.16384 0.72411 0.02946 0.0
C737 C 0.16315 0.72451 0.05265 0.0
C738 C 0.12929 0.72327 0.04032 0.0
N739 N 0.1425 0.72349 0.02183 0.0
O740 O 0.1055 0.74135 0.08144 0.0
H741 H 0.1776 0.72536 0.06376 0.0
H742 H 0.11111 0.72246 0.03965 0.0
O743 O 0.14904 0.75075 0.09476 0.0
C744 C 0.08888 0.72797 0.07915 0.0
O745 O 0.09323 0.70632 0.07696 0.0
N746 N 0.15517 0.70579 0.09849 0.0
C747 C 0.18785 0.67569 0.11346 0.0
C748 C 0.18678 0.6976 0.12222 0.0
C749 C 0.17007 0.71229 0.11478 0.0
C750 C 0.1557 0.68443 0.08998 0.0
C751 C 0.17199 0.66901 0.09726 0.0
H752 H 0.16861 0.72858 0.12277 0.0
H753 H 0.14322 0.67928 0.0777 0.0
H754 H 0.11685 0.76036 0.12466 0.0
H755 H 0.09713 0.70522 0.16464 0.0
H756 H 0.17881 0.72443 0.01901 0.0
H757 H 0.19834 0.70311 0.13526 0.0
H758 H 0.17222 0.65212 0.0903 0.0
C759 C 0.88722 0.29479 0.12875 0.0
C760 C 0.89498 0.28552 0.14869 0.0
N761 N 0.88294 0.26673 0.15278 0.0
N762 N 0.87072 0.28157 0.12033 0.0
C763 C 0.86856 0.26466 0.13542 0.0
H764 H 0.8946 0.30893 0.1199 0.0
Co765 Co 0.86074 0.2805 0.09056 0.0
C766 C 0.81617 0.25925 0.09508 0.0
O767 O 0.80791 0.2759 0.08298 0.0
N768 N 0.85232 0.27803 0.05982 0.0
C769 C 0.84601 0.26004 0.02739 0.0
C770 C 0.84255 0.25975 0.05017 0.0
C771 C 0.86215 0.28882 0.04222 0.0
N772 N 0.85875 0.27807 0.02241 0.0
O773 O 0.88315 0.25788 0.08572 0.0
H774 H 0.83582 0.24535 0.05899 0.0
H775 H 0.87366 0.30284 0.04419 0.0
O776 O 0.83746 0.25803 0.09875 0.0
C777 C 0.90146 0.26777 0.08032 0.0
O778 O 0.90044 0.28925 0.07499 0.0
N779 N 0.83988 0.30443 0.09641 0.0
C780 C 0.80879 0.33831 0.10661 0.0
C781 C 0.8132 0.32112 0.12202 0.0
C782 C 0.82868 0.3044 0.11664 0.0
C783 C 0.83659 0.32185 0.08163 0.0
C784 C 0.82065 0.33875 0.08619 0.0
H785 H 0.83089 0.29086 0.12858 0.0
H786 H 0.84608 0.32278 0.06617 0.0
H787 H 0.85839 0.24977 0.13272 0.0
H788 H 0.90919 0.29126 0.1586 0.0
H789 H 0.84123 0.24685 0.01569 0.0
H790 H 0.80416 0.3202 0.13789 0.0
H791 H 0.81768 0.35202 0.07399 0.0
C792 C 0.6334 0.78278 0.60792 0.0
C793 C 0.65255 0.77161 0.60114 0.0
N794 N 0.65328 0.75161 0.61188 0.0
N795 N 0.62213 0.76994 0.62291 0.0
C796 C 0.63475 0.75107 0.62506 0.0
H797 H 0.62744 0.79877 0.60147 0.0
Co798 Co 0.59301 0.77612 0.6327 0.0
C799 C 0.58231 0.72821 0.64649 0.0
O800 O 0.56725 0.72387 0.63084 0.0
N801 N 0.56321 0.78263 0.64196 0.0
C802 C 0.53384 0.80246 0.65428 0.0
C803 C 0.55674 0.79963 0.65572 0.0
C804 C 0.54369 0.77526 0.63257 0.0
N805 N 0.52567 0.78735 0.63945 0.0
O806 O 0.58259 0.764 0.60476 0.0
H807 H 0.56796 0.81074 0.66479 0.0
H808 H 0.54287 0.76287 0.6192 0.0
O809 O 0.59179 0.74742 0.64736 0.0
C810 C 0.57851 0.77969 0.59069 0.0
O811 O 0.57773 0.80054 0.59822 0.0
N812 N 0.60467 0.78925 0.65909 0.0
C813 C 0.62545 0.81124 0.69511 0.0
C814 C 0.61259 0.79171 0.69874 0.0
C815 C 0.60227 0.78093 0.68046 0.0
C816 C 0.61622 0.80877 0.65546 0.0
C817 C 0.62693 0.81992 0.67317 0.0
H818 H 0.5922 0.76609 0.68361 0.0
H819 H 0.61724 0.81568 0.63862 0.0
H820 H 0.62987 0.73657 0.63495 0.0
H821 H 0.66466 0.77749 0.5888 0.0
H822 H 0.52419 0.81587 0.66208 0.0
H823 H 0.61089 0.78457 0.71548 0.0
H824 H 0.63625 0.83525 0.66974 0.0
C825 C 0.20026 0.64473 0.63375 0.0
C826 C 0.20864 0.66513 0.62632 0.0
N827 N 0.23072 0.66246 0.62156 0.0
N828 N 0.21703 0.62938 0.63359 0.0
C829 C 0.23531 0.64072 0.62618 0.0
H830 H 0.1829 0.64105 0.63798 0.0
Co831 Co 0.21558 0.59831 0.63753 0.0
C832 C 0.26509 0.59453 0.64674 0.0
O833 O 0.27057 0.58858 0.62611 0.0
N834 N 0.21493 0.56708 0.64135 0.0
C835 C 0.22307 0.53298 0.65466 0.0
C836 C 0.22169 0.55557 0.65981 0.0
C837 C 0.21188 0.55112 0.62537 0.0
N838 N 0.21701 0.53028 0.63294 0.0
O839 O 0.22806 0.59483 0.60786 0.0
H840 H 0.22652 0.56325 0.67564 0.0
H841 H 0.20737 0.55478 0.60809 0.0
O842 O 0.24468 0.59871 0.65179 0.0
C843 C 0.2121 0.5987 0.59397 0.0
O844 O 0.19156 0.60108 0.60199 0.0
N845 N 0.20145 0.60261 0.66545 0.0
C846 C 0.17467 0.61691 0.70148 0.0
C847 C 0.19803 0.62087 0.70137 0.0
C848 C 0.21106 0.61396 0.68304 0.0
C849 C 0.1791 0.59732 0.66583 0.0
C850 C 0.16536 0.60432 0.68369 0.0
H851 H 0.2285 0.61908 0.68247 0.0
H852 H 0.17164 0.58886 0.65149 0.0
H853 H 0.25133 0.63277 0.62262 0.0
H854 H 0.1991 0.68052 0.62399 0.0
H855 H 0.22866 0.51966 0.66582 0.0
H856 H 0.20609 0.63017 0.71487 0.0
H857 H 0.14741 0.60107 0.68283 0.0
C858 C 0.35427 0.2088 0.64419 0.0
C859 C 0.33498 0.221 0.63996 0.0
N860 N 0.34094 0.24167 0.63248 0.0
N861 N 0.37236 0.22178 0.63969 0.0
C862 C 0.36371 0.2416 0.63259 0.0
H863 H 0.35492 0.19143 0.64965 0.0
Co864 Co 0.40283 0.21459 0.63995 0.0
C865 C 0.42413 0.25146 0.66672 0.0
O866 O 0.44069 0.23821 0.67315 0.0
N867 N 0.4339 0.20745 0.63937 0.0
C868 C 0.46662 0.18902 0.63968 0.0
C869 C 0.44483 0.18912 0.64748 0.0
C870 C 0.44974 0.2184 0.62703 0.0
N871 N 0.46959 0.20742 0.62684 0.0
O872 O 0.40511 0.22707 0.61051 0.0
H873 H 0.43755 0.17582 0.65744 0.0
H874 H 0.44644 0.2334 0.61716 0.0
O875 O 0.40897 0.24392 0.6534 0.0
C876 C 0.40455 0.2124 0.59487 0.0
O877 O 0.40517 0.19093 0.60036 0.0
N878 N 0.39902 0.2007 0.6682 0.0
C879 C 0.38625 0.17529 0.70564 0.0
C880 C 0.38936 0.19864 0.70747 0.0
C881 C 0.39524 0.21115 0.68841 0.0
C882 C 0.39578 0.17802 0.66616 0.0
C883 C 0.38967 0.16494 0.6847 0.0
H884 H 0.39526 0.22923 0.68989 0.0
H885 H 0.3974 0.17015 0.64977 0.0
H886 H 0.37412 0.25535 0.6267 0.0
H887 H 0.31794 0.21484 0.64199 0.0
H888 H 0.47901 0.17585 0.64225 0.0
H889 H 0.38592 0.20735 0.72318 0.0
H890 H 0.38705 0.14699 0.68252 0.0
C891 C 0.79205 0.3632 0.62167 0.0
C892 C 0.78361 0.34334 0.61274 0.0
N893 N 0.76097 0.34399 0.61444 0.0
N894 N 0.77467 0.37612 0.6287 0.0
C895 C 0.75611 0.36395 0.62395 0.0
H896 H 0.80953 0.36837 0.62192 0.0
Co897 Co 0.77399 0.40614 0.6375 0.0
C898 C 0.72561 0.41069 0.65003 0.0
O899 O 0.72234 0.428 0.6366 0.0
N900 N 0.77266 0.43646 0.64634 0.0
C901 C 0.76539 0.46736 0.66638 0.0
C902 C 0.76774 0.44431 0.66717 0.0
C903 C 0.77335 0.45509 0.63325 0.0
N904 N 0.76882 0.47409 0.64497 0.0
O905 O 0.76076 0.41286 0.60877 0.0
H906 H 0.76507 0.43392 0.6819 0.0
H907 H 0.77607 0.45475 0.61525 0.0
O908 O 0.74496 0.40148 0.65121 0.0
C909 C 0.7771 0.4143 0.59484 0.0
O910 O 0.79763 0.4156 0.60314 0.0
N911 N 0.78891 0.39857 0.6643 0.0
C912 C 0.8164 0.38195 0.69873 0.0
C913 C 0.7928 0.38081 0.70041 0.0
C914 C 0.77935 0.38894 0.68291 0.0
C915 C 0.81171 0.40094 0.66285 0.0
C916 C 0.82581 0.39269 0.67984 0.0
H917 H 0.76138 0.38691 0.68432 0.0
H918 H 0.81902 0.40833 0.64786 0.0
H919 H 0.73909 0.37022 0.62577 0.0
H920 H 0.79325 0.32984 0.6051 0.0
H921 H 0.76124 0.47825 0.68044 0.0
H922 H 0.78471 0.37317 0.7149 0.0
H923 H 0.8439 0.3938 0.67764 0.0
C924 C 0.65024 0.20931 0.3625 0.0
C925 C 0.67094 0.21689 0.37005 0.0
N926 N 0.6691 0.23904 0.37494 0.0
N927 N 0.63554 0.22666 0.36267 0.0
C928 C 0.64753 0.24441 0.37033 0.0
H929 H 0.646 0.19217 0.35791 0.0
Co930 Co 0.60449 0.22703 0.35771 0.0
C931 C 0.60525 0.2765 0.34728 0.0
O932 O 0.59913 0.28285 0.36761 0.0
N933 N 0.57341 0.22808 0.35297 0.0
C934 C 0.5396 0.23736 0.33967 0.0
C935 C 0.56242 0.23742 0.33535 0.0
C936 C 0.55696 0.22206 0.36754 0.0
N937 N 0.53626 0.22774 0.35996 0.0
O938 O 0.60079 0.24046 0.38682 0.0
H939 H 0.57052 0.24442 0.32058 0.0
H940 H 0.5601 0.21447 0.38382 0.0
O941 O 0.60754 0.25566 0.34266 0.0
C942 C 0.603 0.22426 0.40078 0.0
O943 O 0.60406 0.20359 0.39278 0.0
N944 N 0.60861 0.21176 0.33046 0.0
C945 C 0.62122 0.1823 0.29612 0.0
C946 C 0.62754 0.20507 0.29532 0.0
C947 C 0.62136 0.21951 0.3129 0.0
C948 C 0.60138 0.18996 0.33092 0.0
C949 C 0.6076 0.17486 0.31394 0.0
H950 H 0.62819 0.23637 0.3131 0.0
H951 H 0.59187 0.18394 0.34528 0.0
H952 H 0.6402 0.26073 0.37382 0.0
H953 H 0.68602 0.20681 0.37211 0.0
H954 H 0.5265 0.24395 0.3288 0.0
H955 H 0.63848 0.21125 0.28205 0.0
H956 H 0.60254 0.15735 0.31516 0.0
C957 C 0.78387 0.64551 0.38593 0.0
C958 C 0.77294 0.66475 0.39336 0.0
N959 N 0.75078 0.66246 0.38887 0.0
N960 N 0.76856 0.6313 0.37693 0.0
C961 C 0.74864 0.64211 0.37907 0.0
H962 H 0.8016 0.64169 0.38788 0.0
Co963 Co 0.7718 0.60122 0.36855 0.0
C964 C 0.72757 0.59108 0.34668 0.0
O965 O 0.7252 0.5713 0.35636 0.0
N966 N 0.77434 0.57055 0.36003 0.0
C967 C 0.7737 0.53925 0.33919 0.0
C968 C 0.77499 0.56239 0.33872 0.0
C969 C 0.77281 0.55189 0.37309 0.0
N970 N 0.77223 0.53269 0.36087 0.0
O971 O 0.7561 0.59346 0.39561 0.0
H972 H 0.77533 0.5726 0.32362 0.0
H973 H 0.77094 0.55221 0.39119 0.0
O974 O 0.74462 0.60331 0.3511 0.0
C975 C 0.77205 0.59211 0.41 0.0
O976 O 0.79291 0.59217 0.40243 0.0
N977 N 0.78915 0.60985 0.34371 0.0
C978 C 0.81927 0.62212 0.30992 0.0
C979 C 0.79615 0.62637 0.3075 0.0
C980 C 0.78133 0.62044 0.32481 0.0
C981 C 0.8116 0.60577 0.34641 0.0
C982 C 0.82705 0.6119 0.32972 0.0
H983 H 0.76373 0.62459 0.32294 0.0
H984 H 0.81753 0.59779 0.3617 0.0
H985 H 0.73253 0.63469 0.37486 0.0
H986 H 0.78058 0.67908 0.4017 0.0
H987 H 0.77353 0.52815 0.32469 0.0
H988 H 0.78968 0.63467 0.29256 0.0
H989 H 0.84484 0.60855 0.33217 0.0
C990 C 0.36276 0.78137 0.38826 0.0
C991 C 0.34271 0.77162 0.39503 0.0
N992 N 0.33865 0.75386 0.38149 0.0
N993 N 0.37147 0.76935 0.37099 0.0
C994 C 0.35609 0.75302 0.36706 0.0
H995 H 0.37135 0.79508 0.39667 0.0
Co996 Co 0.40109 0.7704 0.36036 0.0
C997 C 0.40723 0.72308 0.34476 0.0
O998 O 0.42538 0.72001 0.35709 0.0
N999 N 0.43093 0.77105 0.34954 0.0
C1000 C 0.46002 0.7696 0.32581 0.0
C1001 C 0.437 0.76813 0.32773 0.0
C1002 C 0.45071 0.7739 0.36057 0.0
N1003 N 0.46857 0.77312 0.3465 0.0
O1004 O 0.41013 0.75537 0.38744 0.0
H1005 H 0.42543 0.76499 0.314 0.0
H1006 H 0.45226 0.77686 0.37845 0.0
O1007 O 0.39705 0.74198 0.34514 0.0
C1008 C 0.41545 0.76892 0.40324 0.0
O1009 O 0.41748 0.79048 0.39851 0.0
N1010 N 0.39138 0.78654 0.33495 0.0
C1011 C 0.37814 0.8137 0.29901 0.0
C1012 C 0.37267 0.79076 0.29935 0.0
C1013 C 0.3791 0.77753 0.31767 0.0
C1014 C 0.3966 0.80894 0.33506 0.0
C1015 C 0.39 0.82294 0.31724 0.0
H1016 H 0.37403 0.76014 0.31785 0.0
H1017 H 0.40594 0.81593 0.3491 0.0
H1018 H 0.35839 0.73934 0.3553 0.0
H1019 H 0.33267 0.77632 0.40955 0.0
H1020 H 0.46977 0.76805 0.31043 0.0
H1021 H 0.3631 0.78322 0.28572 0.0
H1022 H 0.39431 0.84069 0.31755 0.0
C1023 C 0.21149 0.34999 0.35334 0.0
C1024 C 0.22487 0.33113 0.3556 0.0
N1025 N 0.2459 0.33791 0.3609 0.0
N1026 N 0.22419 0.36853 0.35685 0.0
C1027 C 0.245 0.3606 0.36159 0.0
H1028 H 0.19365 0.35014 0.34962 0.0
Co1029 Co 0.21573 0.39862 0.35691 0.0
C1030 C 0.24766 0.42066 0.32543 0.0
O1031 O 0.23145 0.4344 0.31913 0.0
N1032 N 0.20758 0.42943 0.35797 0.0
C1033 C 0.18899 0.46175 0.36264 0.0
C1034 C 0.18716 0.43948 0.3564 0.0
C1035 C 0.22147 0.44605 0.36529 0.0
N1036 N 0.21059 0.46575 0.36811 0.0
O1037 O 0.22975 0.40177 0.38583 0.0
H1038 H 0.17149 0.43125 0.35236 0.0
H1039 H 0.23902 0.44346 0.36962 0.0
O1040 O 0.24385 0.40612 0.34096 0.0
C1041 C 0.21498 0.403 0.40141 0.0
O1042 O 0.19355 0.40357 0.39582 0.0
N1043 N 0.20013 0.39392 0.32949 0.0
C1044 C 0.17329 0.38009 0.29322 0.0
C1045 C 0.1968 0.38137 0.29106 0.0
C1046 C 0.20995 0.38773 0.30954 0.0
C1047 C 0.17737 0.39189 0.33208 0.0
C1048 C 0.16359 0.38544 0.3141 0.0
H1049 H 0.22798 0.38612 0.30801 0.0
H1050 H 0.16995 0.39406 0.34859 0.0
H1051 H 0.25925 0.37132 0.36549 0.0
H1052 H 0.21944 0.31377 0.35403 0.0
H1053 H 0.1754 0.47388 0.36384 0.0
H1054 H 0.20509 0.37621 0.27561 0.0
H1055 H 0.14557 0.38404 0.31674 0.0
C1056 C 0.63669 0.64353 0.78382 0.0
C1057 C 0.63289 0.66263 0.77121 0.0
N1058 N 0.62779 0.65626 0.75 0.0
N1059 N 0.63439 0.62525 0.77049 0.0
C1060 C 0.62868 0.63353 0.75004 0.0
H1061 H 0.64065 0.64305 0.80161 0.0
Co1062 Co 0.63695 0.59526 0.77893 0.0
C1063 C 0.66536 0.57388 0.7436 0.0
O1064 O 0.67267 0.55921 0.75852 0.0
N1065 N 0.63858 0.56455 0.78764 0.0
C1066 C 0.64033 0.53281 0.80764 0.0
C1067 C 0.6453 0.55538 0.80744 0.0
C1068 C 0.62949 0.54695 0.77614 0.0
N1069 N 0.63043 0.52758 0.78797 0.0
O1070 O 0.60717 0.59039 0.76774 0.0
H1071 H 0.65241 0.56428 0.82156 0.0
H1072 H 0.62149 0.54851 0.75981 0.0
O1073 O 0.65041 0.58837 0.74938 0.0
C1074 C 0.5926 0.58815 0.78339 0.0
O1075 O 0.59956 0.58692 0.8044 0.0
N1076 N 0.6655 0.60175 0.79157 0.0
C1077 C 0.70382 0.61718 0.81433 0.0
C1078 C 0.70376 0.61513 0.79077 0.0
C1079 C 0.68429 0.60791 0.77967 0.0
C1080 C 0.66496 0.60477 0.81436 0.0
C1081 C 0.68402 0.61191 0.82614 0.0
H1082 H 0.68415 0.60876 0.76155 0.0
H1083 H 0.64933 0.60225 0.82341 0.0
H1084 H 0.6253 0.6231 0.73543 0.0
H1085 H 0.63341 0.67985 0.77726 0.0
H1086 H 0.64315 0.5212 0.82146 0.0
H1087 H 0.71826 0.62018 0.78086 0.0
H1088 H 0.68308 0.61369 0.8443 0.0
C1089 C 0.3559 0.63368 0.78593 0.0
C1090 C 0.33567 0.62753 0.77614 0.0
N1091 N 0.33987 0.61989 0.75509 0.0
N1092 N 0.37266 0.63011 0.771 0.0
C1093 C 0.36242 0.6213 0.75272 0.0
H1094 H 0.35812 0.64105 0.80248 0.0
Co1095 Co 0.40338 0.63689 0.77221 0.0
C1096 C 0.40472 0.6444 0.72182 0.0
O1097 O 0.41026 0.62384 0.71572 0.0
N1098 N 0.43424 0.64379 0.77224 0.0
C1099 C 0.46598 0.66209 0.76419 0.0
C1100 C 0.44306 0.66404 0.76663 0.0
C1101 C 0.45225 0.6298 0.77321 0.0
N1102 N 0.47173 0.6405 0.76813 0.0
O1103 O 0.40946 0.60706 0.76144 0.0
H1104 H 0.43333 0.6791 0.7633 0.0
H1105 H 0.45102 0.61185 0.77619 0.0
O1106 O 0.40189 0.64929 0.74249 0.0
C1107 C 0.40729 0.59394 0.77834 0.0
O1108 O 0.40542 0.60309 0.79847 0.0
N1109 N 0.39653 0.66533 0.7844 0.0
C1110 C 0.38346 0.70498 0.80622 0.0
C1111 C 0.37581 0.70004 0.78436 0.0
C1112 C 0.38245 0.68014 0.77378 0.0
C1113 C 0.40422 0.66974 0.80561 0.0
C1114 C 0.39804 0.68959 0.81679 0.0
H1115 H 0.37536 0.6762 0.75747 0.0
H1116 H 0.41492 0.65759 0.81403 0.0
H1117 H 0.37148 0.61604 0.73784 0.0
H1118 H 0.31916 0.6294 0.78368 0.0
H1119 H 0.47744 0.67543 0.75932 0.0
H1120 H 0.36399 0.71099 0.77576 0.0
H1121 H 0.40443 0.6927 0.83362 0.0
C1122 C 0.38039 0.35754 0.79205 0.0
C1123 C 0.38994 0.33807 0.78369 0.0
N1124 N 0.39212 0.34025 0.76115 0.0
N1125 N 0.37654 0.37184 0.77482 0.0
C1126 C 0.38387 0.36087 0.75625 0.0
H1127 H 0.37711 0.36133 0.80959 0.0
Co1128 Co 0.36717 0.40159 0.77671 0.0
C1129 C 0.34959 0.41259 0.73106 0.0
O1130 O 0.3567 0.43354 0.7318 0.0
N1131 N 0.35777 0.43203 0.77866 0.0
C1132 C 0.33634 0.46285 0.78088 0.0
C1133 C 0.33628 0.43973 0.77919 0.0
C1134 C 0.37054 0.45096 0.77964 0.0
N1135 N 0.35789 0.46979 0.78097 0.0
O1136 O 0.39569 0.41011 0.76441 0.0
H1137 H 0.32136 0.42931 0.77824 0.0
H1138 H 0.38875 0.45116 0.77968 0.0
O1139 O 0.35367 0.39908 0.74724 0.0
C1140 C 0.40908 0.41114 0.78121 0.0
O1141 O 0.40023 0.41069 0.80156 0.0
N1142 N 0.34042 0.39207 0.79054 0.0
C1143 C 0.30439 0.37599 0.81603 0.0
C1144 C 0.30515 0.37239 0.79266 0.0
C1145 C 0.32352 0.38029 0.78021 0.0
C1146 C 0.33983 0.39594 0.81319 0.0
C1147 C 0.32197 0.388 0.8263 0.0
H1148 H 0.32429 0.37634 0.76245 0.0
H1149 H 0.3536 0.40489 0.82115 0.0
H1150 H 0.38418 0.36832 0.73959 0.0
H1151 H 0.39505 0.32353 0.79347 0.0
H1152 H 0.32172 0.47376 0.78182 0.0
H1153 H 0.29208 0.36279 0.78423 0.0
H1154 H 0.32197 0.39107 0.84431 0.0
C1155 C 0.64661 0.35584 0.78841 0.0
C1156 C 0.66433 0.358 0.7736 0.0
N1157 N 0.65591 0.36325 0.75319 0.0
N1158 N 0.62709 0.35927 0.77723 0.0
C1159 C 0.63335 0.3641 0.75585 0.0
H1160 H 0.64796 0.3521 0.80619 0.0
Co1161 Co 0.59797 0.35814 0.78875 0.0
C1162 C 0.57216 0.32981 0.75661 0.0
O1163 O 0.55893 0.32308 0.77305 0.0
N1164 N 0.56812 0.35782 0.80042 0.0
C1165 C 0.53804 0.3566 0.8229 0.0
C1166 C 0.56004 0.3499 0.82026 0.0
C1167 C 0.55038 0.369 0.79126 0.0
N1168 N 0.53206 0.36867 0.8047 0.0
O1169 O 0.59296 0.3879 0.77735 0.0
H1170 H 0.56937 0.34057 0.83271 0.0
H1171 H 0.55119 0.37821 0.77552 0.0
O1172 O 0.58775 0.34419 0.76064 0.0
C1173 C 0.59496 0.40125 0.79407 0.0
O1174 O 0.599 0.39261 0.81409 0.0
N1175 N 0.60477 0.32997 0.8018 0.0
C1176 C 0.62479 0.29407 0.82487 0.0
C1177 C 0.61905 0.29202 0.80199 0.0
C1178 C 0.60944 0.31034 0.79061 0.0
C1179 C 0.6104 0.33218 0.82398 0.0
C1180 C 0.61997 0.31438 0.83593 0.0
H1181 H 0.60741 0.30905 0.7726 0.0
H1182 H 0.60831 0.34832 0.83224 0.0
H1183 H 0.62159 0.36801 0.74244 0.0
H1184 H 0.68206 0.35629 0.77759 0.0
H1185 H 0.52744 0.35342 0.83744 0.0
H1186 H 0.62325 0.27691 0.79261 0.0
H1187 H 0.62425 0.31681 0.85353 0.0
C1188 C 0.65482 0.36243 0.20777 0.0
C1189 C 0.65201 0.34248 0.21935 0.0
N1190 N 0.64466 0.34729 0.24037 0.0
N1191 N 0.64946 0.37973 0.2215 0.0
C1192 C 0.64342 0.37 0.24116 0.0
H1193 H 0.65973 0.36414 0.19028 0.0
Co1194 Co 0.64676 0.41017 0.21502 0.0
C1195 C 0.67444 0.43263 0.25005 0.0
O1196 O 0.68008 0.44823 0.23536 0.0
N1197 N 0.64282 0.44118 0.20876 0.0
C1198 C 0.63513 0.47368 0.19155 0.0
C1199 C 0.64359 0.4523 0.18884 0.0
C1200 C 0.63358 0.45631 0.22325 0.0
N1201 N 0.62891 0.47612 0.21318 0.0
O1202 O 0.61742 0.40958 0.22814 0.0
H1203 H 0.64849 0.44532 0.17283 0.0
H1204 H 0.6292 0.45246 0.24055 0.0
O1205 O 0.66063 0.41709 0.24426 0.0
C1206 C 0.60187 0.4082 0.21342 0.0
O1207 O 0.60732 0.40986 0.19199 0.0
N1208 N 0.67518 0.40927 0.20046 0.0
C1209 C 0.7144 0.40181 0.17504 0.0
C1210 C 0.71472 0.40046 0.19871 0.0
C1211 C 0.69494 0.40386 0.21103 0.0
C1212 C 0.67428 0.40927 0.17748 0.0
C1213 C 0.69372 0.40641 0.16448 0.0
H1214 H 0.69543 0.40055 0.2289 0.0
H1215 H 0.65816 0.41027 0.16908 0.0
H1216 H 0.63697 0.37947 0.25537 0.0
H1217 H 0.65471 0.32575 0.21257 0.0
H1218 H 0.63292 0.48623 0.17847 0.0
H1219 H 0.72982 0.39552 0.2077 0.0
H1220 H 0.69228 0.40712 0.1463 0.0
C1221 C 0.63505 0.62687 0.21038 0.0
C1222 C 0.65448 0.61778 0.21956 0.0
N1223 N 0.64938 0.60994 0.24023 0.0
N1224 N 0.6182 0.62519 0.22562 0.0
C1225 C 0.62754 0.61471 0.2435 0.0
H1226 H 0.6336 0.63505 0.19414 0.0
Co1227 Co 0.58882 0.63612 0.22594 0.0
C1228 C 0.5852 0.64867 0.27416 0.0
O1229 O 0.5669 0.6365 0.27704 0.0
N1230 N 0.55926 0.6473 0.22709 0.0
C1231 C 0.53028 0.67079 0.23132 0.0
C1232 C 0.55335 0.66878 0.23197 0.0
C1233 C 0.53944 0.63652 0.22384 0.0
N1234 N 0.52164 0.65043 0.22633 0.0
O1235 O 0.57957 0.60807 0.23893 0.0
H1236 H 0.56509 0.68219 0.23584 0.0
H1237 H 0.53789 0.61894 0.21934 0.0
O1238 O 0.59473 0.64935 0.25494 0.0
C1239 C 0.57586 0.59468 0.22253 0.0
O1240 O 0.57562 0.60307 0.202 0.0
N1241 N 0.59821 0.66238 0.21116 0.0
C1242 C 0.61299 0.69752 0.18371 0.0
C1243 C 0.61953 0.69641 0.20643 0.0
C1244 C 0.61215 0.67851 0.21986 0.0
C1245 C 0.59138 0.6634 0.18924 0.0
C1246 C 0.59861 0.68082 0.17517 0.0
H1247 H 0.61827 0.67733 0.23692 0.0
H1248 H 0.58064 0.65026 0.18255 0.0
H1249 H 0.61875 0.6116 0.25921 0.0
H1250 H 0.67112 0.61764 0.21204 0.0
H1251 H 0.52059 0.68596 0.23439 0.0
H1252 H 0.63099 0.70876 0.2135 0.0
H1253 H 0.59319 0.6811 0.15772 0.0
C1254 C 0.34661 0.64185 0.20943 0.0
C1255 C 0.34802 0.65996 0.22388 0.0
N1256 N 0.35543 0.65242 0.24397 0.0
N1257 N 0.35277 0.62295 0.22054 0.0
C1258 C 0.35816 0.63002 0.2415 0.0
H1259 H 0.34194 0.64265 0.19184 0.0
Co1260 Co 0.3558 0.59344 0.21006 0.0
C1261 C 0.32805 0.56655 0.24232 0.0
O1262 O 0.32377 0.55112 0.22698 0.0
N1263 N 0.35962 0.56359 0.19983 0.0
C1264 C 0.36376 0.53299 0.17847 0.0
C1265 C 0.35487 0.55432 0.17951 0.0
C1266 C 0.37126 0.54729 0.21086 0.0
N1267 N 0.37406 0.52866 0.19816 0.0
O1268 O 0.38472 0.59205 0.22408 0.0
H1269 H 0.34633 0.56246 0.16572 0.0
H1270 H 0.37848 0.54939 0.2275 0.0
O1271 O 0.34086 0.58316 0.23744 0.0
C1272 C 0.39841 0.60191 0.2108 0.0
O1273 O 0.39083 0.60915 0.19126 0.0
N1274 N 0.32844 0.59659 0.19445 0.0
C1275 C 0.2936 0.61365 0.16793 0.0
C1276 C 0.28952 0.60701 0.19026 0.0
C1277 C 0.30732 0.59889 0.20345 0.0
C1278 C 0.33239 0.60248 0.17259 0.0
C1279 C 0.31521 0.61072 0.15894 0.0
H1280 H 0.30429 0.5964 0.22118 0.0
H1281 H 0.34945 0.60212 0.16612 0.0
H1282 H 0.36431 0.61896 0.25466 0.0
H1283 H 0.34469 0.67743 0.21973 0.0
H1284 H 0.3633 0.52173 0.16408 0.0
H1285 H 0.27318 0.60975 0.19797 0.0
H1286 H 0.31908 0.61593 0.14185 0.0
C1287 C 0.36254 0.37667 0.2106 0.0
C1288 C 0.34255 0.38263 0.22095 0.0
N1289 N 0.34499 0.37962 0.24335 0.0
N1290 N 0.3774 0.37009 0.22649 0.0
C1291 C 0.3662 0.37208 0.24622 0.0
H1292 H 0.36632 0.37788 0.19279 0.0
Co1293 Co 0.408 0.36417 0.22308 0.0
C1294 C 0.41772 0.34751 0.26944 0.0
O1295 O 0.43119 0.36437 0.27443 0.0
N1296 N 0.43903 0.35834 0.22027 0.0
C1297 C 0.47267 0.34208 0.22413 0.0
C1298 C 0.44972 0.33894 0.2257 0.0
C1299 C 0.45581 0.37277 0.21483 0.0
N1300 N 0.47635 0.36338 0.21729 0.0
O1301 O 0.41392 0.39195 0.23832 0.0
H1302 H 0.44139 0.32367 0.23118 0.0
H1303 H 0.45328 0.39015 0.21004 0.0
O1304 O 0.40785 0.34683 0.25041 0.0
C1305 C 0.4133 0.40659 0.22259 0.0
O1306 O 0.41151 0.39942 0.20166 0.0
N1307 N 0.4013 0.33831 0.2065 0.0
C1308 C 0.3884 0.30327 0.17808 0.0
C1309 C 0.38109 0.30384 0.20056 0.0
C1310 C 0.38743 0.32175 0.21441 0.0
C1311 C 0.40868 0.338 0.18472 0.0
C1312 C 0.40241 0.32057 0.17016 0.0
H1313 H 0.3803 0.32282 0.23114 0.0
H1314 H 0.419 0.35169 0.17848 0.0
H1315 H 0.37379 0.36931 0.26258 0.0
H1316 H 0.32755 0.38901 0.21274 0.0
H1317 H 0.48563 0.32979 0.22788 0.0
H1318 H 0.3697 0.29113 0.20707 0.0
H1319 H 0.40818 0.32078 0.15282 0.0
C1320 C 0.78722 0.63116 0.64714 0.0
C1321 C 0.77363 0.62507 0.66496 0.0
N1322 N 0.75202 0.62674 0.65825 0.0
N1323 N 0.77414 0.63651 0.62933 0.0
C1324 C 0.75274 0.63367 0.63664 0.0
H1325 H 0.80542 0.63011 0.64665 0.0
Co1326 Co 0.78411 0.63899 0.59993 0.0
C1327 C 0.75082 0.66804 0.57613 0.0
O1328 O 0.76631 0.67463 0.56174 0.0
N1329 N 0.79436 0.64033 0.56977 0.0
C1330 C 0.81603 0.64093 0.53912 0.0
C1331 C 0.81451 0.64703 0.56143 0.0
C1332 C 0.78393 0.63041 0.552 0.0
N1333 N 0.79678 0.63049 0.53329 0.0
O1334 O 0.77164 0.60994 0.59444 0.0
H1335 H 0.82797 0.65467 0.57093 0.0
H1336 H 0.76774 0.62204 0.55309 0.0
O1337 O 0.75581 0.65382 0.59158 0.0
C1338 C 0.78678 0.59476 0.59329 0.0
O1339 O 0.8081 0.60082 0.59333 0.0
N1340 N 0.79795 0.66658 0.60726 0.0
C1341 C 0.82259 0.70303 0.62413 0.0
C1342 C 0.79953 0.70522 0.61936 0.0
C1343 C 0.78738 0.68666 0.6114 0.0
C1344 C 0.82016 0.664 0.61259 0.0
C1345 C 0.83289 0.68204 0.62069 0.0
H1346 H 0.7694 0.6884 0.6098 0.0
H1347 H 0.82798 0.64761 0.61078 0.0
H1348 H 0.73807 0.63458 0.62583 0.0
H1349 H 0.77916 0.61882 0.68121 0.0
H1350 H 0.83057 0.64304 0.52827 0.0
H1351 H 0.79069 0.72085 0.62274 0.0
H1352 H 0.85058 0.67949 0.62443 0.0
C1353 C 0.7926 0.3864 0.35859 0.0
C1354 C 0.78061 0.39349 0.34001 0.0
N1355 N 0.75879 0.38802 0.34314 0.0
N1356 N 0.77837 0.37651 0.37329 0.0
C1357 C 0.75788 0.37773 0.36339 0.0
H1358 H 0.81029 0.38946 0.36178 0.0
Co1359 Co 0.78543 0.36965 0.40291 0.0
C1360 C 0.75183 0.33527 0.4178 0.0
O1361 O 0.76574 0.32759 0.43321 0.0
N1362 N 0.79289 0.36361 0.4336 0.0
C1363 C 0.81167 0.35446 0.46485 0.0
C1364 C 0.81021 0.35129 0.44196 0.0
C1365 C 0.78375 0.37355 0.45212 0.0
N1366 N 0.79509 0.36854 0.47118 0.0
O1367 O 0.77029 0.39668 0.41129 0.0
H1368 H 0.82183 0.34125 0.43225 0.0
H1369 H 0.76999 0.38551 0.4516 0.0
O1370 O 0.75759 0.35208 0.40554 0.0
C1371 C 0.7842 0.41262 0.415 0.0
O1372 O 0.80577 0.40781 0.41661 0.0
N1373 N 0.80203 0.34462 0.39267 0.0
C1374 C 0.83104 0.31342 0.37267 0.0
C1375 C 0.80809 0.30849 0.37542 0.0
C1376 C 0.79372 0.32455 0.38494 0.0
C1377 C 0.82423 0.34983 0.38966 0.0
C1378 C 0.83908 0.33443 0.37983 0.0
H1379 H 0.77594 0.32102 0.38492 0.0
H1380 H 0.83037 0.36622 0.39482 0.0
H1381 H 0.74232 0.37277 0.37152 0.0
H1382 H 0.78727 0.40259 0.32565 0.0
H1383 H 0.82469 0.3479 0.47585 0.0
H1384 H 0.80112 0.29276 0.36926 0.0
H1385 H 0.85665 0.33898 0.37769 0.0
C1386 C 0.64567 0.78395 0.35455 0.0
C1387 C 0.6448 0.76887 0.33691 0.0
N1388 N 0.63695 0.74911 0.34486 0.0
N1389 N 0.63871 0.77359 0.37359 0.0
C1390 C 0.63335 0.75243 0.36705 0.0
H1391 H 0.65068 0.80143 0.35338 0.0
Co1392 Co 0.63545 0.78528 0.40262 0.0
C1393 C 0.66217 0.75337 0.43097 0.0
O1394 O 0.66604 0.76889 0.4463 0.0
N1395 N 0.63137 0.79686 0.4321 0.0
C1396 C 0.62756 0.81962 0.46177 0.0
C1397 C 0.63669 0.81736 0.44065 0.0
C1398 C 0.61908 0.78696 0.44869 0.0
N1399 N 0.61644 0.80055 0.46674 0.0
O1400 O 0.60604 0.77228 0.40398 0.0
H1401 H 0.64588 0.83052 0.43224 0.0
H1402 H 0.6114 0.77047 0.4472 0.0
O1403 O 0.64939 0.75791 0.41421 0.0
C1404 C 0.59289 0.7858 0.39372 0.0
O1405 O 0.60125 0.80489 0.38615 0.0
N1406 N 0.66352 0.79973 0.39944 0.0
C1407 C 0.70108 0.82489 0.38623 0.0
C1408 C 0.70318 0.80191 0.3915 0.0
C1409 C 0.68412 0.78952 0.39768 0.0
C1410 C 0.66115 0.82183 0.39363 0.0
C1411 C 0.67971 0.83487 0.38762 0.0
H1412 H 0.68593 0.77156 0.39938 0.0
H1413 H 0.64449 0.82926 0.3931 0.0
H1414 H 0.62675 0.73972 0.37838 0.0
H1415 H 0.64888 0.77238 0.31946 0.0
H1416 H 0.62858 0.83437 0.4725 0.0
H1417 H 0.71914 0.79324 0.38961 0.0
H1418 H 0.67717 0.85248 0.3835 0.0
C1419 C 0.21307 0.60677 0.35808 0.0
C1420 C 0.2242 0.59876 0.33927 0.0
N1421 N 0.24622 0.60399 0.34127 0.0
N1422 N 0.22806 0.61694 0.3718 0.0
C1423 C 0.24809 0.61493 0.36113 0.0
H1424 H 0.19531 0.60489 0.36179 0.0
Co1425 Co 0.22248 0.62801 0.40055 0.0
C1426 C 0.26615 0.64671 0.41499 0.0
O1427 O 0.26551 0.6352 0.43392 0.0
N1428 N 0.21714 0.63931 0.43004 0.0
C1429 C 0.21289 0.66325 0.45877 0.0
C1430 C 0.21569 0.66136 0.43585 0.0
C1431 C 0.21563 0.62822 0.44998 0.0
N1432 N 0.21303 0.64238 0.46758 0.0
O1433 O 0.23586 0.60118 0.41213 0.0
H1434 H 0.21712 0.67535 0.42425 0.0
H1435 H 0.21653 0.61013 0.45186 0.0
O1436 O 0.25064 0.64417 0.40037 0.0
C1437 C 0.21959 0.58728 0.41421 0.0
O1438 O 0.19887 0.59486 0.41193 0.0
N1439 N 0.20763 0.65278 0.38795 0.0
C1440 C 0.1818 0.68698 0.36871 0.0
C1441 C 0.20509 0.68575 0.36472 0.0
C1442 C 0.2177 0.66833 0.37429 0.0
C1443 C 0.18497 0.65341 0.39168 0.0
C1444 C 0.17172 0.67046 0.38232 0.0
H1445 H 0.2354 0.66713 0.37027 0.0
H1446 H 0.17718 0.64055 0.40202 0.0
H1447 H 0.26394 0.62064 0.36811 0.0
H1448 H 0.21668 0.58985 0.32522 0.0
H1449 H 0.2114 0.67875 0.46832 0.0
H1450 H 0.21341 0.69783 0.35382 0.0
H1451 H 0.15379 0.67078 0.38581 0.0
C1452 C 0.37368 0.20512 0.3531 0.0
C1453 C 0.38103 0.21465 0.3331 0.0
N1454 N 0.38449 0.23685 0.33665 0.0
N1455 N 0.37223 0.22141 0.36893 0.0
C1456 C 0.37894 0.24037 0.35835 0.0
H1457 H 0.37021 0.18746 0.35598 0.0
Co1458 Co 0.36609 0.22087 0.39968 0.0
C1459 C 0.35224 0.26918 0.40426 0.0
O1460 O 0.36779 0.27401 0.4193 0.0
N1461 N 0.36013 0.22099 0.43049 0.0
C1462 C 0.34504 0.22851 0.46399 0.0
C1463 C 0.34181 0.22951 0.44105 0.0
C1464 C 0.37399 0.21443 0.44731 0.0
N1465 N 0.3653 0.21905 0.46781 0.0
O1466 O 0.3944 0.23558 0.40449 0.0
H1467 H 0.32729 0.23664 0.43267 0.0
H1468 H 0.39051 0.2072 0.44466 0.0
O1469 O 0.35073 0.24929 0.39633 0.0
C1470 C 0.41061 0.22148 0.40388 0.0
O1471 O 0.40572 0.19986 0.40353 0.0
N1472 N 0.3393 0.20485 0.3945 0.0
C1473 C 0.30302 0.17663 0.38445 0.0
C1474 C 0.30018 0.20008 0.38534 0.0
C1475 C 0.31853 0.21393 0.39033 0.0
C1476 C 0.34219 0.18206 0.39458 0.0
C1477 C 0.32432 0.16759 0.38939 0.0
H1478 H 0.31576 0.23186 0.39061 0.0
H1479 H 0.35869 0.17512 0.39812 0.0
H1480 H 0.37999 0.25658 0.36662 0.0
H1481 H 0.38411 0.20583 0.31741 0.0
H1482 H 0.33349 0.23439 0.47686 0.0
H1483 H 0.28406 0.20776 0.38148 0.0
H1484 H 0.32717 0.14955 0.38906 0.0
C1485 C 0.21204 0.38472 0.63407 0.0
C1486 C 0.22141 0.39366 0.65347 0.0
N1487 N 0.24352 0.38845 0.65364 0.0
N1488 N 0.22831 0.37418 0.62214 0.0
C1489 C 0.24718 0.37672 0.63458 0.0
H1490 H 0.1949 0.38705 0.62829 0.0
Co1491 Co 0.2272 0.36485 0.59225 0.0
C1492 C 0.27569 0.35099 0.59046 0.0
O1493 O 0.28278 0.3696 0.58076 0.0
N1494 N 0.22685 0.3555 0.56195 0.0
C1495 C 0.23197 0.33403 0.53156 0.0
C1496 C 0.22978 0.33411 0.55465 0.0
C1497 C 0.22724 0.36808 0.54292 0.0
N1498 N 0.23049 0.35546 0.52421 0.0
O1499 O 0.24225 0.39217 0.58469 0.0
H1500 H 0.23119 0.31952 0.56549 0.0
H1501 H 0.22632 0.38626 0.54273 0.0
O1502 O 0.25499 0.34856 0.59556 0.0
C1503 C 0.22763 0.40779 0.58265 0.0
O1504 O 0.20635 0.40195 0.58043 0.0
N1505 N 0.21077 0.33936 0.6009 0.0
C1506 C 0.18209 0.30608 0.61745 0.0
C1507 C 0.20502 0.30603 0.62308 0.0
C1508 C 0.21903 0.3231 0.61499 0.0
C1509 C 0.18859 0.33946 0.59492 0.0
C1510 C 0.17385 0.32298 0.60312 0.0
H1511 H 0.23622 0.32368 0.62093 0.0
H1512 H 0.18218 0.35288 0.58434 0.0
H1513 H 0.26381 0.37185 0.629 0.0
H1514 H 0.21287 0.40389 0.66596 0.0
H1515 H 0.23472 0.31935 0.52106 0.0
H1516 H 0.21183 0.29354 0.63455 0.0
H1517 H 0.15617 0.32361 0.5986 0.0
C1518 C 0.60857 0.21892 0.63624 0.0
C1519 C 0.60069 0.22968 0.65532 0.0
N1520 N 0.6055 0.25182 0.65349 0.0
N1521 N 0.61826 0.23426 0.62257 0.0
C1522 C 0.61597 0.25412 0.63346 0.0
H1523 H 0.60716 0.20113 0.63245 0.0
Co1524 Co 0.63002 0.22929 0.59401 0.0
C1525 C 0.65375 0.27185 0.582 0.0
O1526 O 0.64897 0.27044 0.56042 0.0
N1527 N 0.64202 0.22428 0.5648 0.0
C1528 C 0.6662 0.21836 0.53659 0.0
C1529 C 0.66396 0.22069 0.55953 0.0
C1530 C 0.63139 0.22443 0.54457 0.0
N1531 N 0.64571 0.22087 0.52727 0.0
O1532 O 0.60414 0.24402 0.58214 0.0
H1533 H 0.67771 0.22024 0.57147 0.0
H1534 H 0.61352 0.22708 0.5423 0.0
O1535 O 0.64653 0.25714 0.59585 0.0
C1536 C 0.58934 0.22864 0.57974 0.0
O1537 O 0.59611 0.20752 0.58048 0.0
N1538 N 0.6539 0.2134 0.60693 0.0
C1539 C 0.68662 0.18578 0.62604 0.0
C1540 C 0.68739 0.20922 0.62912 0.0
C1541 C 0.67064 0.22277 0.61968 0.0
C1542 C 0.65262 0.19063 0.60414 0.0
C1543 C 0.66886 0.17645 0.61356 0.0
H1544 H 0.67113 0.24068 0.62291 0.0
H1545 H 0.63888 0.18351 0.59448 0.0
H1546 H 0.62125 0.27016 0.6266 0.0
H1547 H 0.59235 0.22181 0.66953 0.0
H1548 H 0.68172 0.21547 0.52741 0.0
H1549 H 0.70061 0.21695 0.63909 0.0
H1550 H 0.6677 0.15842 0.61088 0.0
C1551 C 0.36232 0.7875 0.6384 0.0
C1552 C 0.36751 0.77614 0.65801 0.0
N1553 N 0.37232 0.75449 0.65278 0.0
N1554 N 0.36361 0.773 0.62095 0.0
C1555 C 0.36982 0.75319 0.6302 0.0
H1556 H 0.35815 0.80519 0.63698 0.0
Co1557 Co 0.36005 0.77782 0.59026 0.0
C1558 C 0.32794 0.74219 0.57589 0.0
O1559 O 0.32016 0.75542 0.55995 0.0
N1560 N 0.35703 0.78226 0.55862 0.0
C1561 C 0.34614 0.79227 0.52399 0.0
C1562 C 0.34334 0.79616 0.54668 0.0
C1563 C 0.36818 0.77038 0.54256 0.0
N1564 N 0.36178 0.77611 0.52156 0.0
O1565 O 0.38894 0.76413 0.58594 0.0
H1566 H 0.33129 0.80787 0.55361 0.0
H1567 H 0.38031 0.75721 0.54604 0.0
O1568 O 0.34444 0.74876 0.58814 0.0
C1569 C 0.40321 0.78017 0.58668 0.0
O1570 O 0.39542 0.80093 0.58611 0.0
N1571 N 0.33311 0.79339 0.59634 0.0
C1572 C 0.29964 0.82176 0.61341 0.0
C1573 C 0.29702 0.79827 0.61409 0.0
C1574 C 0.3142 0.78434 0.60596 0.0
C1575 C 0.33593 0.81621 0.59572 0.0
C1576 C 0.3193 0.83071 0.60388 0.0
H1577 H 0.31282 0.7665 0.60903 0.0
H1578 H 0.35159 0.82315 0.58943 0.0
H1579 H 0.37321 0.73828 0.62026 0.0
H1580 H 0.36777 0.78342 0.67474 0.0
H1581 H 0.3374 0.80063 0.51031 0.0
H1582 H 0.2825 0.7907 0.62218 0.0
H1583 H 0.3221 0.84876 0.6033 0.0
H1584 H 0.11927 0.25951 0.99234 0.0
H1585 H 0.14867 0.32528 0.00209 0.0
H1586 H 0.13592 0.32562 0.04121 0.0
H1587 H 0.11671 0.30753 0.07239 0.0
H1588 H 0.08868 0.24086 0.06473 0.0
H1589 H 0.10064 0.2404 0.02495 0.0
C1590 C 0.12274 0.27387 0.00311 0.0
C1591 C 0.13485 0.2924 0.99443 0.0
C1592 C 0.11565 0.27375 0.02582 0.0
C1593 C 0.13956 0.31082 0.00851 0.0
C1594 C 0.1322 0.31104 0.03082 0.0
C1595 C 0.11303 0.29288 0.06205 0.0
C1596 C 0.10154 0.27436 0.07139 0.0
C1597 C 0.12027 0.29264 0.03961 0.0
C1598 C 0.0974 0.25536 0.05786 0.0
C1599 C 0.10422 0.25514 0.03516 0.0
H1600 H 0.74133 0.11344 0.07645 0.0
H1601 H 0.72337 0.04531 0.05879 0.0
H1602 H 0.72397 0.05519 0.01863 0.0
H1603 H 0.7244 0.08459 0.98902 0.0
H1604 H 0.73712 0.15357 0.00756 0.0
H1605 H 0.7439 0.14226 0.04676 0.0
C1606 C 0.7383 0.10064 0.0637 0.0
C1607 C 0.73273 0.07861 0.07037 0.0
C1608 C 0.73733 0.1068 0.04082 0.0
C1609 C 0.72802 0.06229 0.05388 0.0
C1610 C 0.72816 0.068 0.03098 0.0
C1611 C 0.72915 0.09694 0.00165 0.0
C1612 C 0.73038 0.11981 0.99562 0.0
C1613 C 0.73202 0.09038 0.0243 0.0
C1614 C 0.7361 0.13589 0.01203 0.0
C1615 C 0.73994 0.12942 0.03436 0.0
H1616 H 0.8929 0.67639 0.08241 0.0
H1617 H 0.8968 0.74902 0.08474 0.0
H1618 H 0.88539 0.75094 0.04496 0.0
H1619 H 0.87241 0.7316 0.00993 0.0
H1620 H 0.86763 0.65903 0.00943 0.0
H1621 H 0.88122 0.65746 0.04815 0.0
C1622 C 0.89142 0.69271 0.07428 0.0
C1623 C 0.89566 0.71254 0.08657 0.0
C1624 C 0.88453 0.69366 0.05173 0.0
C1625 C 0.89364 0.73349 0.07565 0.0
C1626 C 0.88706 0.73458 0.05293 0.0
C1627 C 0.87458 0.71551 0.01833 0.0
C1628 C 0.86883 0.69546 0.00695 0.0
C1629 C 0.88219 0.71475 0.04085 0.0
C1630 C 0.87156 0.67468 0.01798 0.0
C1631 C 0.87944 0.67376 0.04007 0.0
H1632 H 0.24901 0.85866 0.00304 0.0
H1633 H 0.31447 0.88244 0.98242 0.0
H1634 H 0.31996 0.90028 0.01926 0.0
H1635 H 0.30695 0.90729 0.05789 0.0
H1636 H 0.24101 0.88456 0.07853 0.0
H1637 H 0.23462 0.86845 0.04103 0.0
C1638 C 0.26445 0.86772 0.00674 0.0
C1639 C 0.28148 0.86904 0.99027 0.0
C1640 C 0.26727 0.87824 0.02782 0.0
C1641 C 0.30122 0.88122 0.99494 0.0
C1642 C 0.30434 0.89139 0.01595 0.0
C1643 C 0.29104 0.8991 0.05406 0.0
C1644 C 0.27451 0.89705 0.07093 0.0
C1645 C 0.28757 0.88982 0.03257 0.0
C1646 C 0.25392 0.88652 0.06575 0.0
C1647 C 0.25036 0.87711 0.04438 0.0
H1648 H 0.10806 0.74593 0.00251 0.0
H1649 H 0.16101 0.69789 0.98946 0.0
H1650 H 0.14835 0.69397 0.95041 0.0
H1651 H 0.12191 0.70352 0.92043 0.0
H1652 H 0.07027 0.7534 0.9317 0.0
H1653 H 0.0827 0.75753 0.97112 0.0
C1654 C 0.11671 0.73464 0.99101 0.0
C1655 C 0.13531 0.72206 0.99873 0.0
C1656 C 0.10957 0.73284 0.96845 0.0
C1657 C 0.14673 0.70774 0.98375 0.0
C1658 C 0.13945 0.70546 0.96152 0.0
C1659 C 0.1133 0.71524 0.93156 0.0
C1660 C 0.09496 0.72785 0.92347 0.0
C1661 C 0.12084 0.7178 0.95377 0.0
C1662 C 0.08434 0.74344 0.93775 0.0
C1663 C 0.09142 0.74573 0.96021 0.0
H1664 H 0.29856 0.08522 0.94221 0.0
H1665 H 0.23736 0.11943 0.92292 0.0
H1666 H 0.23471 0.13636 0.96055 0.0
H1667 H 0.25193 0.14399 0.9978 0.0
H1668 H 0.31299 0.10945 0.01672 0.0
H1669 H 0.31373 0.09008 0.98027 0.0
C1670 C 0.28439 0.09603 0.94643 0.0
C1671 C 0.2682 0.10113 0.92993 0.0
C1672 C 0.28323 0.10591 0.96784 0.0
C1673 C 0.24987 0.11507 0.9355 0.0
C1674 C 0.24853 0.12497 0.95689 0.0
C1675 C 0.26537 0.13225 0.99381 0.0
C1676 C 0.2826 0.12834 0.00963 0.0
C1677 C 0.26548 0.121 0.97296 0.0
C1678 C 0.29966 0.11271 0.00467 0.0
C1679 C 0.30006 0.10166 0.9839 0.0
H1680 H 0.87449 0.24625 0.99419 0.0
H1681 H 0.86989 0.31816 0.0039 0.0
H1682 H 0.88805 0.32436 0.96723 0.0
H1683 H 0.90229 0.30917 0.93143 0.0
H1684 H 0.90544 0.23708 0.92138 0.0
H1685 H 0.89088 0.23105 0.95946 0.0
C1686 C 0.87728 0.26329 0.98821 0.0
C1687 C 0.87042 0.28178 0.00145 0.0
C1688 C 0.88753 0.26663 0.96719 0.0
C1689 C 0.87492 0.30373 0.99388 0.0
C1690 C 0.88524 0.30723 0.97296 0.0
C1691 C 0.9001 0.29211 0.93765 0.0
C1692 C 0.90479 0.27359 0.92352 0.0
C1693 C 0.89124 0.28879 0.95933 0.0
C1694 C 0.90197 0.25162 0.9319 0.0
C1695 C 0.8935 0.24816 0.95361 0.0
H1696 H 0.70432 0.87682 0.01893 0.0
H1697 H 0.76311 0.83636 0.00422 0.0
H1698 H 0.76311 0.84998 0.96553 0.0
H1699 H 0.74529 0.87202 0.93521 0.0
H1700 H 0.68625 0.91184 0.95 0.0
H1701 H 0.6882 0.90071 0.98962 0.0
C1702 C 0.71739 0.87121 0.00748 0.0
C1703 C 0.73355 0.8554 0.01468 0.0
C1704 C 0.71751 0.87933 0.98527 0.0
C1705 C 0.75012 0.84814 0.99924 0.0
C1706 C 0.75032 0.85612 0.97708 0.0
C1707 C 0.73326 0.87871 0.94727 0.0
C1708 C 0.71575 0.89283 0.93986 0.0
C1709 C 0.734 0.8716 0.96986 0.0
C1710 C 0.69994 0.90103 0.95546 0.0
C1711 C 0.70093 0.89453 0.97804 0.0
H1712 H 0.06462 0.09034 0.30537 0.0
H1713 H 0.08778 0.10876 0.23894 0.0
H1714 H 0.0518 0.12763 0.2314 0.0
H1715 H 0.01457 0.14112 0.24501 0.0
H1716 H 0.99132 0.12115 0.31086 0.0
H1717 H 0.02655 0.10069 0.31751 0.0
C1718 C 0.06163 0.09817 0.2891 0.0
C1719 C 0.07883 0.09834 0.2728 0.0
C1720 C 0.04103 0.10896 0.28498 0.0
C1721 C 0.07474 0.10836 0.25172 0.0
C1722 C 0.05426 0.11932 0.2475 0.0
C1723 C 0.01739 0.1323 0.26078 0.0
C1724 C 0.0007 0.13283 0.27762 0.0
C1725 C 0.03748 0.12019 0.26422 0.0
C1726 C 0.0041 0.12097 0.2978 0.0
C1727 C 0.02416 0.1093 0.30156 0.0
H1728 H 0.87154 0.00934 0.25177 0.0
H1729 H 0.8995 0.99466 0.31705 0.0
H1730 H 0.91948 0.03084 0.31716 0.0
H1731 H 0.9248 0.06821 0.30089 0.0
H1732 H 0.89538 0.08446 0.23641 0.0
H1733 H 0.88056 0.04596 0.23327 0.0
C1734 C 0.88244 0.01406 0.26566 0.0
C1735 C 0.88426 -0.00029 0.2844 0.0
C1736 C 0.89344 0.03508 0.26572 0.0
C1737 C 0.89811 0.00569 0.30255 0.0
C1738 C 0.9094 0.02629 0.3026 0.0
C1739 C 0.91554 0.06318 0.28592 0.0
C1740 C 0.91101 0.0791 0.269 0.0
C1741 C 0.90662 0.04137 0.2846 0.0
C1742 C 0.89918 0.0724 0.2496 0.0
C1743 C 0.89051 0.05048 0.24793 0.0
H1744 H 0.0014 0.87545 0.26226 0.0
H1745 H 0.0004 0.85916 0.33315 0.0
H1746 H 0.96342 0.87658 0.33705 0.0
H1747 H 0.93113 0.89526 0.32045 0.0
H1748 H 0.92995 0.91021 0.24922 0.0
H1749 H 0.96824 0.89488 0.24533 0.0
C1750 C 0.99304 0.87586 0.27852 0.0
C1751 C 0.00351 0.86587 0.29737 0.0
C1752 C 0.97153 0.88574 0.28059 0.0
C1753 C 0.99252 0.86636 0.31835 0.0
C1754 C 0.97145 0.87647 0.32062 0.0
C1755 C 0.93923 0.89542 0.30404 0.0
C1756 C 0.9277 0.90397 0.28516 0.0
C1757 C 0.96077 0.88605 0.30186 0.0
C1758 C 0.93849 0.90382 0.26404 0.0
C1759 C 0.96033 0.89496 0.26181 0.0
H1760 H 0.07564 0.94052 0.30601 0.0
H1761 H 0.10618 0.91537 0.24487 0.0
H1762 H 0.12636 0.95092 0.24004 0.0
H1763 H 0.13817 0.98783 0.25528 0.0
H1764 H 0.10701 0.01336 0.31573 0.0
H1765 H 0.08423 0.979 0.31888 0.0
C1766 C 0.08631 0.94304 0.29135 0.0
C1767 C 0.08945 0.92532 0.27589 0.0
C1768 C 0.09806 0.96343 0.28882 0.0
C1769 C 0.10327 0.92881 0.25692 0.0
C1770 C 0.11506 0.94904 0.25429 0.0
C1771 C 0.12636 0.98576 0.26909 0.0
C1772 C 0.12447 0.00274 0.28552 0.0
C1773 C 0.1131 0.96618 0.2705 0.0
C1774 C 0.10875 0.00032 0.30305 0.0
C1775 C 0.09577 0.98074 0.30481 0.0
H1776 H 0.00668 0.87224 0.75525 0.0
H1777 H 0.98031 0.9003 0.69369 0.0
H1778 H 0.01576 0.92067 0.68745 0.0
H1779 H 0.05551 0.92684 0.69753 0.0
H1780 H 0.08165 0.89909 0.75953 0.0
H1781 H 0.04487 0.88258 0.76793 0.0
C1782 C 0.00875 0.88296 0.74058 0.0
C1783 C 0.99126 0.88454 0.72468 0.0
C1784 C 0.02903 0.89466 0.73728 0.0
C1785 C 0.99371 0.89884 0.70601 0.0
C1786 C 0.01394 0.9104 0.70245 0.0
C1787 C 0.05299 0.9176 0.71312 0.0
C1788 C 0.07129 0.91396 0.72774 0.0
C1789 C 0.03189 0.90796 0.7177 0.0
C1790 C 0.06782 0.90216 0.748 0.0
C1791 C 0.04685 0.89252 0.75271 0.0
H1792 H 0.08881 0.06898 0.68353 0.0
H1793 H 0.09191 0.07834 0.75566 0.0
H1794 H 0.10726 0.0401 0.75996 0.0
H1795 H 0.12344 0.00534 0.74241 0.0
H1796 H 0.12343 0.99908 0.67004 0.0
H1797 H 0.10343 0.03491 0.6665 0.0
C1798 C 0.09255 0.06266 0.70029 0.0
C1799 C 0.08929 0.07656 0.71924 0.0
C1800 C 0.10228 0.0413 0.70248 0.0
C1801 C 0.09415 0.06795 0.74079 0.0
C1802 C 0.10313 0.04617 0.74322 0.0
C1803 C 0.11883 0.01191 0.72599 0.0
C1804 C 0.12496 -0.00011 0.70645 0.0
C1805 C 0.10786 0.03292 0.7241 0.0
C1806 C 0.11907 0.00834 0.68518 0.0
C1807 C 0.10758 0.02871 0.68319 0.0
H1808 H 0.00315 0.11682 0.73251 0.0
H1809 H 0.99483 0.16485 0.67864 0.0
H1810 H 0.95672 0.1509 0.67157 0.0
H1811 H 0.92588 0.12574 0.68094 0.0
H1812 H 0.93186 0.07932 0.7366 0.0
H1813 H 0.97092 0.09187 0.74289 0.0
C1814 C 0.99291 0.12404 0.7192 0.0
C1815 C 0.00164 0.14174 0.706 0.0
C1816 C 0.97076 0.11626 0.71563 0.0
C1817 C 0.98829 0.15132 0.689 0.0
C1818 C 0.96659 0.1433 0.68494 0.0
C1819 C 0.93575 0.11814 0.69434 0.0
C1820 C 0.92617 0.10136 0.70808 0.0
C1821 C 0.95769 0.12586 0.69817 0.0
C1822 C 0.93899 0.09215 0.72573 0.0
C1823 C 0.96126 0.09934 0.7293 0.0
H1824 H 0.89246 0.00973 0.72605 0.0
H1825 H 0.83449 0.99231 0.68566 0.0
H1826 H 0.84041 0.95254 0.69352 0.0
H1827 H 0.86377 0.92261 0.70863 0.0
H1828 H 0.9221 0.93821 0.74895 0.0
H1829 H 0.91413 0.97884 0.74493 0.0
C1830 C 0.88101 0.99719 0.71931 0.0
C1831 C 0.86336 0.00392 0.70484 0.0
C1832 C 0.8846 0.9741 0.72386 0.0
C1833 C 0.84855 0.98753 0.69627 0.0
C1834 C 0.85183 0.96479 0.70088 0.0
C1835 C 0.8746 0.93493 0.71678 0.0
C1836 C 0.89359 0.92764 0.72882 0.0
C1837 C 0.87009 0.95789 0.7141 0.0
C1838 C 0.90734 0.94358 0.73963 0.0
C1839 C 0.90286 0.96674 0.73715 0.0
H1840 H 0.30022 0.05675 0.08081 0.0
H1841 H 0.24412 0.08233 0.11941 0.0
H1842 H 0.23805 0.04488 0.13577 0.0
H1843 H 0.25137 0.00583 0.14186 0.0
H1844 H 0.30772 0.98075 0.10334 0.0
H1845 H 0.31106 0.01703 0.08407 0.0
C1846 C 0.28634 0.05397 0.09243 0.0
C1847 C 0.27264 0.07217 0.09892 0.0
C1848 C 0.28327 0.03259 0.10201 0.0
C1849 C 0.25469 0.06846 0.11393 0.0
C1850 C 0.25142 0.04713 0.12351 0.0
C1851 C 0.26435 0.00838 0.12924 0.0
C1852 C 0.27952 0.99081 0.12423 0.0
C1853 C 0.26607 0.02926 0.11818 0.0
C1854 C 0.29591 0.99406 0.10745 0.0
C1855 C 0.29783 0.01478 0.09649 0.0
H1856 H 0.24478 0.99489 0.86196 0.0
H1857 H 0.30701 0.0189 0.89076 0.0
H1858 H 0.31311 0.98236 0.90889 0.0
H1859 H 0.30209 0.94288 0.91415 0.0
H1860 H 0.23963 0.91869 0.88576 0.0
H1861 H 0.23197 0.95611 0.87017 0.0
C1862 C 0.25964 0.99202 0.87221 0.0
C1863 C 0.27561 0.00935 0.87483 0.0
C1864 C 0.26287 0.97106 0.88274 0.0
C1865 C 0.29456 0.00574 0.88854 0.0
C1866 C 0.29804 0.98488 0.89885 0.0
C1867 C 0.2866 0.94593 0.90489 0.0
C1868 C 0.2715 0.92809 0.90103 0.0
C1869 C 0.28247 0.96734 0.89581 0.0
C1870 C 0.25144 0.93222 0.88912 0.0
C1871 C 0.24717 0.95355 0.88 0.0
H1872 H 0.07341 0.25677 0.88673 0.0
H1873 H 0.05305 0.30888 0.93322 0.0
H1874 H 0.01445 0.30709 0.91878 0.0
H1875 H 0.98773 0.29376 0.89006 0.0
H1876 H 0.00879 0.2433 0.84205 0.0
H1877 H 0.04591 0.24155 0.85974 0.0
C1878 C 0.06036 0.26725 0.89412 0.0
C1879 C 0.06594 0.2828 0.91114 0.0
C1880 C 0.0385 0.26686 0.88502 0.0
C1881 C 0.04903 0.29667 0.92022 0.0
C1882 C 0.02704 0.2958 0.91182 0.0
C1883 C 0.00035 0.28221 0.88364 0.0
C1884 C 0.99553 0.26888 0.86461 0.0
C1885 C 0.02177 0.28148 0.89374 0.0
C1886 C 0.01218 0.25411 0.85636 0.0
C1887 C 0.03338 0.25298 0.86657 0.0
H1888 H 0.74591 0.98902 0.86464 0.0
H1889 H 0.68323 0.97155 0.89701 0.0
H1890 H 0.68231 0.00824 0.91583 0.0
H1891 H 0.69814 0.04593 0.9213 0.0
H1892 H 0.76084 0.06394 0.88913 0.0
H1893 H 0.76332 0.02621 0.87243 0.0
C1894 C 0.73204 0.99338 0.87573 0.0
C1895 C 0.71447 0.97779 0.87923 0.0
C1896 C 0.73181 0.01442 0.88671 0.0
C1897 C 0.69685 0.98334 0.89405 0.0
C1898 C 0.69636 0.00427 0.90481 0.0
C1899 C 0.71257 0.04147 0.91095 0.0
C1900 C 0.72926 0.05768 0.90645 0.0
C1901 C 0.71363 0.01999 0.90111 0.0
C1902 C 0.7479 0.05167 0.89307 0.0
C1903 C 0.74916 0.0302 0.88328 0.0
H1904 H 0.0062 0.70738 0.89794 0.0
H1905 H 0.98237 0.75843 0.85196 0.0
H1906 H 0.94611 0.7595 0.87138 0.0
H1907 H 0.92003 0.74354 0.8993 0.0
H1908 H 0.94274 0.69046 0.94342 0.0
H1909 H 0.98077 0.69313 0.92755 0.0
C1910 C 0.99318 0.71896 0.89242 0.0
C1911 C 0.99693 0.73259 0.87336 0.0
C1912 C 0.97222 0.71929 0.90353 0.0
C1913 C 0.97979 0.7474 0.86628 0.0
C1914 C 0.9591 0.74818 0.8775 0.0
C1915 C 0.93349 0.73307 0.90591 0.0
C1916 C 0.92874 0.71703 0.9227 0.0
C1917 C 0.95497 0.73391 0.8959 0.0
C1918 C 0.94615 0.7031 0.93067 0.0
C1919 C 0.96781 0.70447 0.92144 0.0
H1920 H 0.75326 0.91787 0.12811 0.0
H1921 H 0.72852 0.93448 0.06189 0.0
H1922 H 0.72972 0.97468 0.07121 0.0
H1923 H 0.73032 0.00403 0.10069 0.0
H1924 H 0.74842 0.9862 0.16863 0.0
H1925 H 0.75746 0.94766 0.15647 0.0
C1926 C 0.74887 0.93033 0.11552 0.0
C1927 C 0.74089 0.92334 0.09434 0.0
C1928 C 0.74784 0.95318 0.12166 0.0
C1929 C 0.73493 0.93961 0.07822 0.0
C1930 C 0.73532 0.96253 0.08367 0.0
C1931 C 0.73675 0.99172 0.1126 0.0
C1932 C 0.73876 0.99764 0.13543 0.0
C1933 C 0.74056 0.96938 0.10571 0.0
C1934 C 0.74672 0.98173 0.15099 0.0
C1935 C 0.75178 0.95978 0.14406 0.0
H1936 H 0.05051 0.70441 0.07362 0.0
H1937 H 0.07648 0.76601 0.10241 0.0
H1938 H 0.04153 0.77104 0.1237 0.0
H1939 H 0.0055 0.75545 0.13737 0.0
H1940 H 0.98069 0.69294 0.10962 0.0
H1941 H 0.0133 0.69072 0.08463 0.0
C1942 C 0.04833 0.71922 0.08416 0.0
C1943 C 0.06612 0.73465 0.08663 0.0
C1944 C 0.02856 0.7216 0.09684 0.0
C1945 C 0.06301 0.75388 0.10017 0.0
C1946 C 0.04314 0.75662 0.11257 0.0
C1947 C 0.0073 0.74134 0.12589 0.0
C1948 C 0.99088 0.72421 0.12556 0.0
C1949 C 0.02617 0.74013 0.11166 0.0
C1950 C 0.99309 0.70632 0.11017 0.0
C1951 C 0.01174 0.70503 0.09591 0.0
H1952 H 0.98688 0.2376 0.13438 0.0
H1953 H 0.01618 0.28977 0.09286 0.0
H1954 H 0.98158 0.29215 0.07099 0.0
H1955 H 0.94186 0.2828 0.06644 0.0
H1956 H 0.91102 0.23291 0.10947 0.0
H1957 H 0.94755 0.22567 0.1274 0.0
C1958 C 0.9857 0.2495 0.12057 0.0
C1959 C 0.00413 0.26369 0.11551 0.0
C1960 C 0.96551 0.25107 0.1082 0.0
C1961 C 0.00242 0.27859 0.09714 0.0
C1962 C 0.98257 0.28003 0.08464 0.0
C1963 C 0.94319 0.27001 0.07945 0.0
C1964 C 0.92373 0.25856 0.08672 0.0
C1965 C 0.96387 0.26676 0.09037 0.0
C1966 C 0.92576 0.24187 0.10344 0.0
C1967 C 0.94657 0.238 0.11395 0.0
H1968 H 0.56534 0.80795 0.55779 0.0
H1969 H 0.59731 0.74352 0.56857 0.0
H1970 H 0.60959 0.7428 0.5291 0.0
H1971 H 0.61642 0.7637 0.49333 0.0
H1972 H 0.5867 0.82938 0.48459 0.0
H1973 H 0.56831 0.8265 0.52133 0.0
C1974 C 0.57457 0.79349 0.55139 0.0
C1975 C 0.58062 0.77597 0.56612 0.0
C1976 C 0.5823 0.79365 0.52908 0.0
C1977 C 0.59238 0.75723 0.55754 0.0
C1978 C 0.59963 0.75693 0.53503 0.0
C1979 C 0.60549 0.77704 0.49939 0.0
C1980 C 0.60304 0.79684 0.48657 0.0
C1981 C 0.59549 0.77551 0.5209 0.0
C1982 C 0.58899 0.81418 0.49445 0.0
C1983 C 0.57848 0.81251 0.51539 0.0
H1984 H 0.23734 0.61189 0.49096 0.0
H1985 H 0.18335 0.66019 0.49657 0.0
H1986 H 0.17844 0.65067 0.53639 0.0
H1987 H 0.18916 0.62857 0.56925 0.0
H1988 H 0.24468 0.58179 0.56545 0.0
H1989 H 0.2496 0.59078 0.5252 0.0
C1990 C 0.22449 0.62017 0.501 0.0
C1991 C 0.21055 0.63657 0.49097 0.0
C1992 C 0.22214 0.61492 0.52405 0.0
C1993 C 0.19422 0.64758 0.50407 0.0
C1994 C 0.1914 0.6421 0.52675 0.0
C1995 C 0.2023 0.62023 0.5596 0.0
C1996 C 0.21632 0.60428 0.57009 0.0
C1997 C 0.20521 0.6258 0.53685 0.0
C1998 C 0.23364 0.59405 0.55761 0.0
C1999 C 0.23638 0.59916 0.53465 0.0
H2000 H 0.36455 0.24731 0.50311 0.0
H2001 H 0.39008 0.18317 0.48044 0.0
H2002 H 0.40644 0.17618 0.51773 0.0
H2003 H 0.4111 0.1873 0.55736 0.0
H2004 H 0.38621 0.25189 0.5799 0.0
H2005 H 0.37223 0.25996 0.54196 0.0
C2006 C 0.37371 0.23184 0.50643 0.0
C2007 C 0.37589 0.21559 0.48931 0.0
C2008 C 0.38322 0.22811 0.52777 0.0
C2009 C 0.38822 0.19583 0.49348 0.0
C2010 C 0.3975 0.19185 0.51475 0.0
C2011 C 0.40287 0.20326 0.55388 0.0
C2012 C 0.39953 0.21889 0.57139 0.0
C2013 C 0.3948 0.20773 0.5321 0.0
C2014 C 0.38905 0.23961 0.56666 0.0
C2015 C 0.3809 0.24416 0.54502 0.0
H2016 H 0.80915 0.41767 0.56301 0.0
H2017 H 0.73934 0.3993 0.572 0.0
H2018 H 0.73813 0.3848 0.53319 0.0
H2019 H 0.75847 0.37394 0.49781 0.0
H2020 H 0.82909 0.38975 0.49163 0.0
H2021 H 0.82858 0.4085 0.52828 0.0
C2022 C 0.79351 0.41077 0.55648 0.0
C2023 C 0.77439 0.40951 0.57044 0.0
C2024 C 0.79326 0.40167 0.53469 0.0
C2025 C 0.75428 0.40061 0.56156 0.0
C2026 C 0.75366 0.39212 0.53944 0.0
C2027 C 0.77359 0.38169 0.50458 0.0
C2028 C 0.79388 0.38033 0.49232 0.0
C2029 C 0.77326 0.392 0.52604 0.0
C2030 C 0.81345 0.39035 0.50104 0.0
C2031 C 0.81311 0.40114 0.52189 0.0
H2032 H 0.61727 0.24761 0.50397 0.0
H2033 H 0.66216 0.19076 0.49789 0.0
H2034 H 0.65279 0.18713 0.45794 0.0
H2035 H 0.63154 0.19956 0.42519 0.0
H2036 H 0.58801 0.25763 0.42948 0.0
H2037 H 0.5972 0.26162 0.46981 0.0
C2038 C 0.62486 0.23444 0.4938 0.0
C2039 C 0.64024 0.21933 0.50374 0.0
C2040 C 0.61967 0.23276 0.47069 0.0
C2041 C 0.65036 0.20256 0.49047 0.0
C2042 C 0.64496 0.20046 0.46771 0.0
C2043 C 0.62395 0.21306 0.43496 0.0
C2044 C 0.60883 0.22806 0.42463 0.0
C2045 C 0.62959 0.21538 0.45773 0.0
C2046 C 0.59961 0.24584 0.43724 0.0
C2047 C 0.60482 0.24804 0.46023 0.0
H2048 H 0.80021 0.57844 0.44233 0.0
H2049 H 0.73688 0.6127 0.43236 0.0
H2050 H 0.73775 0.62597 0.47163 0.0
H2051 H 0.7598 0.63239 0.50696 0.0
H2052 H 0.82491 0.601 0.51408 0.0
H2053 H 0.82032 0.58215 0.47774 0.0
C2054 C 0.78632 0.58842 0.44888 0.0
C2055 C 0.76859 0.59471 0.43451 0.0
C2056 C 0.7876 0.5969 0.47085 0.0
C2057 C 0.75062 0.60747 0.44321 0.0
C2058 C 0.75131 0.61533 0.46555 0.0
C2059 C 0.77273 0.62117 0.50052 0.0
C2060 C 0.7928 0.61823 0.51282 0.0
C2061 C 0.7702 0.6109 0.47922 0.0
C2062 C 0.80956 0.60372 0.50457 0.0
C2063 C 0.80687 0.5929 0.48391 0.0
H2064 H 0.40434 0.77776 0.50701 0.0
H2065 H 0.33758 0.75574 0.48931 0.0
H2066 H 0.3505 0.74569 0.45134 0.0
H2067 H 0.3793 0.74878 0.42174 0.0
H2068 H 0.44418 0.77714 0.4378 0.0
H2069 H 0.43415 0.77827 0.47789 0.0
C2070 C 0.39291 0.77025 0.49486 0.0
C2071 C 0.37015 0.76737 0.50065 0.0
C2072 C 0.40025 0.76563 0.4728 0.0
C2073 C 0.35516 0.75804 0.48494 0.0
C2074 C 0.36256 0.75234 0.46331 0.0
C2075 C 0.39145 0.7545 0.43416 0.0
C2076 C 0.41249 0.76267 0.42703 0.0
C2077 C 0.38487 0.75678 0.45681 0.0
C2078 C 0.428 0.7705 0.4431 0.0
C2079 C 0.42214 0.77142 0.46592 0.0
H2080 H 0.21152 0.39248 0.50609 0.0
H2081 H 0.25481 0.33611 0.49063 0.0
H2082 H 0.25679 0.34803 0.45123 0.0
H2083 H 0.24332 0.37262 0.42042 0.0
H2084 H 0.19816 0.42744 0.43586 0.0
H2085 H 0.20044 0.41857 0.47607 0.0
C2086 C 0.2217 0.38303 0.49421 0.0
C2087 C 0.23279 0.36331 0.50129 0.0
C2088 C 0.22257 0.38985 0.47154 0.0
C2089 C 0.24571 0.3511 0.48555 0.0
C2090 C 0.247 0.358 0.46303 0.0
C2091 C 0.23458 0.38298 0.43274 0.0
C2092 C 0.22079 0.40078 0.4254 0.0
C2093 C 0.23515 0.37711 0.45573 0.0
C2094 C 0.20901 0.41377 0.4413 0.0
C2095 C 0.21015 0.40859 0.46422 0.0
H2096 H 0.48879 0.60546 0.79136 0.0
H2097 H 0.50444 0.65355 0.73912 0.0
H2098 H 0.54291 0.6391 0.73681 0.0
H2099 H 0.57311 0.6152 0.75217 0.0
H2100 H 0.55802 0.56873 0.80601 0.0
H2101 H 0.51825 0.57955 0.80471 0.0
C2102 C 0.50053 0.6125 0.77924 0.0
C2103 C 0.49385 0.63074 0.76568 0.0
C2104 C 0.52273 0.60429 0.77821 0.0
C2105 C 0.50931 0.63983 0.75013 0.0
C2106 C 0.53127 0.63147 0.74867 0.0
C2107 C 0.56096 0.60702 0.76315 0.0
C2108 C 0.56834 0.59114 0.77908 0.0
C2109 C 0.53832 0.61402 0.76296 0.0
C2110 C 0.5526 0.58098 0.79358 0.0
C2111 C 0.52992 0.58726 0.79295 0.0
H2112 H 0.37988 0.56987 0.80486 0.0
H2113 H 0.42103 0.56442 0.74515 0.0
H2114 H 0.41014 0.52454 0.74121 0.0
H2115 H 0.38813 0.49137 0.75488 0.0
H2116 H 0.3447 0.49907 0.81259 0.0
H2117 H 0.35727 0.53807 0.81738 0.0
C2118 C 0.38669 0.55993 0.79108 0.0
C2119 C 0.40154 0.56988 0.77552 0.0
C2120 C 0.37984 0.53749 0.78862 0.0
C2121 C 0.4097 0.55699 0.75741 0.0
C2122 C 0.40347 0.53426 0.75519 0.0
C2123 C 0.38163 0.5017 0.7685 0.0
C2124 C 0.36567 0.49255 0.78351 0.0
C2125 C 0.38848 0.52434 0.77069 0.0
C2126 C 0.35695 0.50595 0.80092 0.0
C2127 C 0.36416 0.52815 0.80365 0.0
H2128 H 0.50675 0.37218 0.76702 0.0
H2129 H 0.51142 0.3933 0.83641 0.0
H2130 H 0.47489 0.412 0.83367 0.0
H2131 H 0.44019 0.41876 0.8131 0.0
H2132 H 0.43301 0.39524 0.74463 0.0
H2133 H 0.47214 0.3817 0.74506 0.0
C2134 C 0.49977 0.38117 0.78134 0.0
C2135 C 0.51148 0.38117 0.80199 0.0
C2136 C 0.47839 0.39146 0.77975 0.0
C2137 C 0.50243 0.39279 0.82053 0.0
C2138 C 0.48164 0.40355 0.81892 0.0
C2139 C 0.44727 0.41102 0.79809 0.0
C2140 C 0.43369 0.40787 0.77893 0.0
C2141 C 0.46924 0.40247 0.79884 0.0
C2142 C 0.44317 0.39799 0.75956 0.0
C2143 C 0.46546 0.39001 0.75991 0.0
H2144 H 0.61141 0.4278 0.76008 0.0
H2145 H 0.57655 0.42982 0.82393 0.0
H2146 H 0.58219 0.47043 0.82628 0.0
H2147 H 0.60198 0.50409 0.81323 0.0
H2148 H 0.63783 0.50313 0.75022 0.0
H2149 H 0.62682 0.46353 0.74418 0.0
C2150 C 0.60449 0.43734 0.77409 0.0
C2151 C 0.59378 0.42594 0.79193 0.0
C2152 C 0.60836 0.46075 0.77564 0.0
C2153 C 0.58504 0.43831 0.81014 0.0
C2154 C 0.58833 0.46149 0.81155 0.0
C2155 C 0.60698 0.49522 0.79802 0.0
C2156 C 0.62085 0.5061 0.78233 0.0
C2157 C 0.60077 0.47267 0.79491 0.0
C2158 C 0.62713 0.49483 0.76248 0.0
C2159 C 0.62093 0.47225 0.75914 0.0
H2160 H 0.56394 0.4151 0.18928 0.0
H2161 H 0.58825 0.38515 0.25096 0.0
H2162 H 0.5511 0.36842 0.25771 0.0
H2163 H 0.51232 0.36035 0.24462 0.0
H2164 H 0.48794 0.39146 0.18369 0.0
H2165 H 0.52454 0.4097 0.17794 0.0
C2166 C 0.56101 0.40514 0.20435 0.0
C2167 C 0.57877 0.40126 0.21954 0.0
C2168 C 0.53971 0.39558 0.20806 0.0
C2169 C 0.57476 0.3885 0.2391 0.0
C2170 C 0.5536 0.37876 0.24285 0.0
C2171 C 0.51516 0.3711 0.2301 0.0
C2172 C 0.49772 0.37438 0.21438 0.0
C2173 C 0.53609 0.38181 0.22719 0.0
C2174 C 0.50124 0.38872 0.19589 0.0
C2175 C 0.52211 0.3991 0.19263 0.0
H2176 H 0.59147 0.49485 0.19721 0.0
H2177 H 0.64094 0.50007 0.24994 0.0
H2178 H 0.62536 0.5368 0.26139 0.0
H2179 H 0.60189 0.57005 0.25146 0.0
H2180 H 0.55307 0.5642 0.19785 0.0
H2181 H 0.5636 0.5249 0.19199 0.0
C2182 C 0.59847 0.50395 0.21147 0.0
C2183 C 0.61743 0.49524 0.22254 0.0
C2184 C 0.58956 0.52493 0.21768 0.0
C2185 C 0.62635 0.50673 0.2412 0.0
C2186 C 0.61753 0.52771 0.24759 0.0
C2187 C 0.59298 0.55988 0.23914 0.0
C2188 C 0.57688 0.56998 0.22494 0.0
C2189 C 0.59968 0.53739 0.23535 0.0
C2190 C 0.56559 0.55674 0.20887 0.0
C2191 C 0.57175 0.53434 0.20537 0.0
H2192 H 0.4203 0.63974 0.19998 0.0
H2193 H 0.42784 0.57774 0.23713 0.0
H2194 H 0.46734 0.58736 0.2454 0.0
H2195 H 0.50008 0.61309 0.24046 0.0
H2196 H 0.49098 0.67577 0.20483 0.0
H2197 H 0.45156 0.6663 0.19749 0.0
C2198 C 0.4306 0.62834 0.20992 0.0
C2199 C 0.42145 0.60794 0.21769 0.0
C2200 C 0.45293 0.63413 0.21477 0.0
C2201 C 0.43468 0.59351 0.23097 0.0
C2202 C 0.45722 0.59898 0.23558 0.0
C2203 C 0.48935 0.62457 0.23112 0.0
C2204 C 0.4983 0.645 0.22301 0.0
C2205 C 0.46659 0.61914 0.22731 0.0
C2206 C 0.48432 0.66003 0.21126 0.0
C2207 C 0.46187 0.65458 0.20701 0.0
H2208 H 0.37225 0.50264 0.23537 0.0
H2209 H 0.40608 0.51131 0.17167 0.0
H2210 H 0.42559 0.47538 0.17658 0.0
H2211 H 0.42834 0.43937 0.19584 0.0
H2212 H 0.39211 0.42808 0.25781 0.0
H2213 H 0.37876 0.46733 0.25735 0.0
C2214 C 0.38427 0.49672 0.22292 0.0
C2215 C 0.38763 0.50925 0.20305 0.0
C2216 C 0.3949 0.47563 0.22558 0.0
C2217 C 0.40311 0.50163 0.18688 0.0
C2218 C 0.41426 0.48118 0.18972 0.0
C2219 C 0.41801 0.44571 0.20958 0.0
C2220 C 0.41106 0.43097 0.22673 0.0
C2221 C 0.40962 0.46771 0.20855 0.0
C2222 C 0.39781 0.43927 0.24453 0.0
C2223 C 0.38992 0.46158 0.24406 0.0
H2224 H 0.79061 0.49085 0.60892 0.0
H2225 H 0.74322 0.50834 0.66132 0.0
H2226 H 0.74202 0.54717 0.64765 0.0
H2227 H 0.75687 0.57684 0.6226 0.0
H2228 H 0.80589 0.55947 0.57178 0.0
H2229 H 0.80337 0.5197 0.58239 0.0
C2230 C 0.77971 0.50303 0.61711 0.0
C2231 C 0.76719 0.4967 0.63622 0.0
C2232 C 0.77922 0.52532 0.60925 0.0
C2233 C 0.75338 0.51284 0.64684 0.0
C2234 C 0.75253 0.53502 0.63892 0.0
C2235 C 0.76644 0.56418 0.61345 0.0
C2236 C 0.78134 0.57083 0.59629 0.0
C2237 C 0.76566 0.54153 0.62035 0.0
C2238 C 0.79419 0.55453 0.58492 0.0
C2239 C 0.79289 0.53188 0.59111 0.0
H2240 H 0.7595 0.42957 0.38081 0.0
H2241 H 0.79653 0.44837 0.44046 0.0
H2242 H 0.79448 0.48815 0.42962 0.0
H2243 H 0.78641 0.51671 0.40087 0.0
H2244 H 0.75184 0.49762 0.33978 0.0
H2245 H 0.749 0.45876 0.3532 0.0
C2246 C 0.76641 0.44252 0.39176 0.0
C2247 C 0.7778 0.43628 0.41157 0.0
C2248 C 0.7662 0.46517 0.3848 0.0
C2249 C 0.78741 0.45298 0.42531 0.0
C2250 C 0.78645 0.47564 0.41898 0.0
C2251 C 0.77792 0.50415 0.39067 0.0
C2252 C 0.76954 0.51004 0.36928 0.0
C2253 C 0.77657 0.48182 0.39839 0.0
C2254 C 0.75883 0.49345 0.35612 0.0
C2255 C 0.75704 0.47126 0.36386 0.0
H2256 H 0.56976 0.79991 0.35764 0.0
H2257 H 0.56371 0.75814 0.41684 0.0
H2258 H 0.524 0.75058 0.40755 0.0
H2259 H 0.49078 0.75691 0.38269 0.0
H2260 H 0.49849 0.79726 0.32273 0.0
H2261 H 0.53792 0.80442 0.33216 0.0
C2262 C 0.55975 0.78917 0.36856 0.0
C2263 C 0.56945 0.77982 0.38804 0.0
C2264 C 0.53729 0.78472 0.36294 0.0
C2265 C 0.5565 0.76554 0.40177 0.0
C2266 C 0.53383 0.76131 0.39649 0.0
C2267 C 0.50119 0.76728 0.37181 0.0
C2268 C 0.49185 0.77669 0.35212 0.0
C2269 C 0.524 0.77099 0.37719 0.0
C2270 C 0.50544 0.7898 0.33788 0.0
C2271 C 0.52791 0.79394 0.34331 0.0
H2272 H 0.19614 0.48631 0.40526 0.0
H2273 H 0.24471 0.49071 0.35162 0.0
H2274 H 0.25582 0.52863 0.36433 0.0
H2275 H 0.2471 0.56245 0.38737 0.0
H2276 H 0.19761 0.55756 0.4404 0.0
H2277 H 0.192 0.51764 0.43203 0.0
C2278 C 0.20943 0.49554 0.39672 0.0
C2279 C 0.21943 0.48621 0.37745 0.0
C2280 C 0.21563 0.51709 0.40419 0.0
C2281 C 0.23682 0.49787 0.36647 0.0
C2282 C 0.2431 0.51947 0.37372 0.0
C2283 C 0.23589 0.55232 0.3977 0.0
C2284 C 0.22284 0.56274 0.41454 0.0
C2285 C 0.2321 0.52954 0.39217 0.0
C2286 C 0.20791 0.54971 0.42748 0.0
C2287 C 0.20449 0.527 0.42251 0.0
H2288 H 0.50072 0.25609 0.35983 0.0
H2289 H 0.52441 0.19265 0.38624 0.0
H2290 H 0.48798 0.18631 0.40448 0.0
H2291 H 0.44865 0.19746 0.41049 0.0
H2292 H 0.42464 0.26101 0.38451 0.0
H2293 H 0.46202 0.2689 0.36879 0.0
C2294 C 0.49783 0.24091 0.36958 0.0
C2295 C 0.51509 0.2247 0.37148 0.0
C2296 C 0.47688 0.23749 0.38016 0.0
C2297 C 0.51137 0.20533 0.38457 0.0
C2298 C 0.49055 0.20169 0.39495 0.0
C2299 C 0.45171 0.21322 0.40171 0.0
C2300 C 0.4339 0.22856 0.39855 0.0
C2301 C 0.4731 0.2175 0.39258 0.0
C2302 C 0.43811 0.24898 0.38728 0.0
C2303 C 0.45942 0.25339 0.37811 0.0
H2304 H 0.24725 0.49655 0.63669 0.0
H2305 H 0.18871 0.51831 0.5995 0.0
H2306 H 0.1889 0.48309 0.57803 0.0
H2307 H 0.20374 0.44497 0.57219 0.0
H2308 H 0.26205 0.42273 0.60955 0.0
H2309 H 0.26426 0.45942 0.62833 0.0
C2310 C 0.23454 0.4935 0.62391 0.0
C2311 C 0.21776 0.50982 0.61988 0.0
C2312 C 0.23487 0.47326 0.61156 0.0
C2313 C 0.20173 0.50597 0.60289 0.0
C2314 C 0.20184 0.48585 0.59065 0.0
C2315 C 0.21725 0.44835 0.58407 0.0
C2316 C 0.23269 0.4312 0.58948 0.0
C2317 C 0.21811 0.46926 0.59509 0.0
C2318 C 0.25012 0.43575 0.60487 0.0
C2319 C 0.25121 0.45664 0.61584 0.0
H2320 H 0.55536 0.20166 0.56736 0.0
H2321 H 0.56919 0.26503 0.60023 0.0
H2322 H 0.53089 0.26556 0.61578 0.0
H2323 H 0.49594 0.24427 0.62542 0.0
H2324 H 0.48485 0.17912 0.5954 0.0
H2325 H 0.51951 0.18279 0.57337 0.0
C2326 C 0.54978 0.21591 0.57744 0.0
C2327 C 0.56507 0.23315 0.58283 0.0
C2328 C 0.52834 0.21543 0.58724 0.0
C2329 C 0.55765 0.25161 0.59573 0.0
C2330 C 0.53586 0.25173 0.60491 0.0
C2331 C 0.50107 0.23121 0.61369 0.0
C2332 C 0.48827 0.21135 0.61205 0.0
C2333 C 0.52145 0.23318 0.60165 0.0
C2334 C 0.4948 0.19436 0.59696 0.0
C2335 C 0.5145 0.1965 0.58439 0.0
H2336 H 0.49851 0.75292 0.62676 0.0
H2337 H 0.50508 0.82534 0.62626 0.0
H2338 H 0.46879 0.82897 0.60748 0.0
H2339 H 0.43467 0.81214 0.59298 0.0
H2340 H 0.42532 0.74002 0.59532 0.0
H2341 H 0.4634 0.73557 0.61105 0.0
C2342 C 0.49188 0.7694 0.62244 0.0
C2343 C 0.50422 0.78886 0.6282 0.0
C2344 C 0.47065 0.7714 0.61185 0.0
C2345 C 0.49563 0.81018 0.62247 0.0
C2346 C 0.47498 0.81226 0.61157 0.0
C2347 C 0.44092 0.79535 0.59668 0.0
C2348 C 0.42711 0.77644 0.59298 0.0
C2349 C 0.46227 0.79305 0.60644 0.0
C2350 C 0.43564 0.75486 0.5979 0.0
C2351 C 0.45734 0.75234 0.60706 0.0
H2352 H 0.13948 0.34918 0.29565 0.0
H2353 H 0.17616 0.39073 0.24849 0.0
H2354 H 0.15572 0.37352 0.21707 0.0
H2355 H 0.12956 0.34473 0.20293 0.0
H2356 H 0.09346 0.30263 0.25002 0.0
H2357 H 0.11135 0.32222 0.28162 0.0
C2358 C 0.14268 0.35481 0.27854 0.0
C2359 C 0.15935 0.37119 0.27441 0.0
C2360 C 0.13105 0.34467 0.26057 0.0
C2361 C 0.16357 0.37798 0.25209 0.0
C2362 C 0.15186 0.3682 0.23414 0.0
C2363 C 0.12522 0.34018 0.22012 0.0
C2364 C 0.1102 0.32226 0.22414 0.0
C2365 C 0.13585 0.35125 0.23816 0.0
C2366 C 0.10509 0.31627 0.2465 0.0
C2367 C 0.11531 0.32746 0.26456 0.0
H2368 H 0.61999 0.18383 0.25024 0.0
H2369 H 0.6448 0.14444 0.30607 0.0
H2370 H 0.66453 0.11927 0.28001 0.0
H2371 H 0.67668 0.10989 0.24138 0.0
H2372 H 0.65061 0.14813 0.18536 0.0
H2373 H 0.62926 0.17219 0.21129 0.0
C2374 C 0.62955 0.16958 0.25659 0.0
C2375 C 0.63104 0.16597 0.27996 0.0
C2376 C 0.64064 0.15503 0.24148 0.0
C2377 C 0.64332 0.14741 0.2881 0.0
C2378 C 0.65469 0.1331 0.27323 0.0
C2379 C 0.6661 0.12336 0.23493 0.0
C2380 C 0.66521 0.12735 0.2116 0.0
C2381 C 0.65375 0.13695 0.24991 0.0
C2382 C 0.65138 0.14471 0.20329 0.0
C2383 C 0.6393 0.15853 0.21811 0.0
H2384 H 0.87164 0.64972 0.22196 0.0
H2385 H 0.90578 0.69306 0.26925 0.0
H2386 H 0.88546 0.67532 0.30062 0.0
H2387 H 0.85508 0.65015 0.31395 0.0
H2388 H 0.81854 0.60965 0.26591 0.0
H2389 H 0.84271 0.62342 0.23538 0.0
C2390 C 0.87502 0.65481 0.23921 0.0
C2391 C 0.89031 0.67239 0.24345 0.0
C2392 C 0.8626 0.64525 0.25691 0.0
C2393 C 0.89418 0.67938 0.26574 0.0
C2394 C 0.88248 0.66935 0.2836 0.0
C2395 C 0.85272 0.64415 0.29682 0.0
C2396 C 0.83516 0.62899 0.29203 0.0
C2397 C 0.86622 0.65268 0.27931 0.0
C2398 C 0.83194 0.62144 0.26982 0.0
C2399 C 0.84574 0.62928 0.25243 0.0
H2400 H 0.34967 0.84939 0.29992 0.0
H2401 H 0.38997 0.80871 0.25516 0.0
H2402 H 0.37504 0.82914 0.22252 0.0
H2403 H 0.34814 0.85633 0.20663 0.0
H2404 H 0.30542 0.89488 0.25107 0.0
H2405 H 0.32363 0.87772 0.28397 0.0
C2406 C 0.35539 0.84535 0.283 0.0
C2407 C 0.37091 0.82776 0.27978 0.0
C2408 C 0.34616 0.85667 0.26432 0.0
C2409 C 0.37803 0.82227 0.25788 0.0
C2410 C 0.36947 0.83389 0.23927 0.0
C2411 C 0.34316 0.86125 0.22354 0.0
C2412 C 0.3256 0.87688 0.22652 0.0
C2413 C 0.35321 0.85081 0.24227 0.0
C2414 C 0.31892 0.88284 0.24846 0.0
C2415 C 0.32929 0.87303 0.26722 0.0
H2416 H 0.10229 0.65255 0.77193 0.0
H2417 H 0.1479 0.70946 0.77143 0.0
H2418 H 0.17139 0.69078 0.74373 0.0
H2419 H 0.17942 0.65863 0.71971 0.0
H2420 H 0.13635 0.59999 0.72179 0.0
H2421 H 0.11161 0.61903 0.74883 0.0
C2422 C 0.11743 0.66084 0.7659 0.0
C2423 C 0.12288 0.68269 0.77361 0.0
C2424 C 0.13146 0.64967 0.75028 0.0
C2425 C 0.14263 0.69305 0.76539 0.0
C2426 C 0.15636 0.68225 0.74969 0.0
C2427 C 0.16491 0.64971 0.72636 0.0
C2428 C 0.15996 0.62777 0.71879 0.0
C2429 C 0.15098 0.66058 0.74207 0.0
C2430 C 0.14057 0.61693 0.72716 0.0
C2431 C 0.12643 0.62778 0.74271 0.0
H2432 H 0.35096 0.14655 0.70488 0.0
H2433 H 0.40062 0.17549 0.74943 0.0
H2434 H 0.38305 0.15658 0.7817 0.0
H2435 H 0.35171 0.13426 0.79747 0.0
H2436 H 0.30076 0.10766 0.75299 0.0
H2437 H 0.32087 0.12285 0.72028 0.0
C2438 C 0.35818 0.14834 0.7216 0.0
C2439 C 0.37707 0.16228 0.72484 0.0
C2440 C 0.34772 0.13788 0.74002 0.0
C2441 C 0.38601 0.16488 0.74662 0.0
C2442 C 0.376 0.15407 0.76502 0.0
C2443 C 0.34535 0.13146 0.78054 0.0
C2444 C 0.32495 0.11984 0.77745 0.0
C2445 C 0.35661 0.14087 0.76196 0.0
C2446 C 0.3165 0.11657 0.75559 0.0
C2447 C 0.32793 0.12529 0.73697 0.0
H2448 H 0.80861 0.34208 0.71982 0.0
H2449 H 0.85729 0.39605 0.71575 0.0
H2450 H 0.8814 0.3765 0.74292 0.0
H2451 H 0.88848 0.34404 0.76805 0.0
H2452 H 0.83769 0.29204 0.7738 0.0
H2453 H 0.81475 0.31093 0.74574 0.0
C2454 C 0.82429 0.34987 0.72512 0.0
C2455 C 0.83097 0.37063 0.7158 0.0
C2456 C 0.83787 0.33876 0.74095 0.0
C2457 C 0.85174 0.38 0.72247 0.0
C2458 C 0.86551 0.36888 0.7381 0.0
C2459 C 0.87233 0.3369 0.76331 0.0
C2460 C 0.86515 0.31636 0.77292 0.0
C2461 C 0.85873 0.34822 0.74748 0.0
C2462 C 0.84416 0.30739 0.76632 0.0
C2463 C 0.8308 0.31833 0.75041 0.0
H2464 H 0.69117 0.85737 0.76505 0.0
H2465 H 0.63194 0.85305 0.80708 0.0
H2466 H 0.6108 0.83616 0.77595 0.0
H2467 H 0.60953 0.82147 0.73703 0.0
H2468 H 0.66892 0.82589 0.69521 0.0
H2469 H 0.68963 0.84375 0.72601 0.0
C2470 C 0.67364 0.85271 0.76739 0.0
C2471 C 0.66317 0.8564 0.78836 0.0
C2472 C 0.66164 0.84292 0.74948 0.0
C2473 C 0.64034 0.85059 0.79104 0.0
C2474 C 0.62829 0.84077 0.7733 0.0
C2475 C 0.62703 0.82628 0.73474 0.0
C2476 C 0.6377 0.82232 0.71391 0.0
C2477 C 0.63883 0.83666 0.75251 0.0
C2478 C 0.66028 0.82892 0.71104 0.0
C2479 C 0.67216 0.83906 0.72865 0.0
H2480 H 0.21178 0.13133 0.35426 0.0
H2481 H 0.25701 0.097 0.30878 0.0
H2482 H 0.2894 0.11468 0.32721 0.0
H2483 H 0.30447 0.14266 0.3538 0.0
H2484 H 0.25911 0.17812 0.39829 0.0
H2485 H 0.22715 0.15714 0.38284 0.0
C2486 C 0.22877 0.12734 0.34874 0.0
C2487 C 0.23204 0.11293 0.33019 0.0
C2488 C 0.24724 0.13796 0.35909 0.0
C2489 C 0.2541 0.10818 0.32294 0.0
C2490 C 0.2726 0.11828 0.33346 0.0
C2491 C 0.28765 0.14544 0.36043 0.0
C2492 C 0.28413 0.16197 0.37708 0.0
C2493 C 0.26933 0.13362 0.35118 0.0
C2494 C 0.26219 0.16565 0.38529 0.0
C2495 C 0.24393 0.15364 0.37649 0.0
H2496 H 0.83641 0.26894 0.38179 0.0
H2497 H 0.85925 0.32182 0.33744 0.0
H2498 H 0.88194 0.29465 0.3162 0.0
H2499 H 0.89341 0.25539 0.30889 0.0
H2500 H 0.87095 0.20264 0.35363 0.0
H2501 H 0.85025 0.23018 0.37626 0.0
C2502 C 0.84647 0.27446 0.36754 0.0
C2503 C 0.8461 0.29724 0.36106 0.0
C2504 C 0.85955 0.25878 0.35552 0.0
C2505 C 0.85939 0.30434 0.34276 0.0
C2506 C 0.87227 0.28881 0.33058 0.0
C2507 C 0.88412 0.25002 0.32371 0.0
C2508 C 0.88364 0.22705 0.32956 0.0
C2509 C 0.87222 0.26594 0.3366 0.0
C2510 C 0.87175 0.22027 0.34893 0.0
C2511 C 0.85977 0.23598 0.36176 0.0
H2512 H 0.70105 0.85543 0.35206 0.0
H2513 H 0.74512 0.82311 0.40018 0.0
H2514 H 0.77755 0.84251 0.38371 0.0
H2515 H 0.79345 0.86714 0.35447 0.0
H2516 H 0.74902 0.90025 0.30724 0.0
H2517 H 0.71649 0.88222 0.32488 0.0
C2518 C 0.71764 0.85297 0.35933 0.0
C2519 C 0.72061 0.83782 0.37736 0.0
C2520 C 0.73613 0.86425 0.3499 0.0
C2521 C 0.74239 0.83445 0.38613 0.0
C2522 C 0.76091 0.84562 0.3768 0.0
C2523 C 0.77662 0.87079 0.34832 0.0
C2524 C 0.77368 0.88497 0.32951 0.0
C2525 C 0.758 0.86036 0.35852 0.0
C2526 C 0.75176 0.88919 0.32152 0.0
C2527 C 0.73316 0.87893 0.33162 0.0
H2528 H 0.19185 0.73158 0.36638 0.0
H2529 H 0.14091 0.68307 0.34785 0.0
H2530 H 0.11863 0.71286 0.33009 0.0
H2531 H 0.11396 0.75264 0.31926 0.0
H2532 H 0.16515 0.801 0.3376 0.0
H2533 H 0.18696 0.77135 0.35604 0.0
C2534 C 0.17593 0.72753 0.35834 0.0
C2535 C 0.16808 0.70516 0.35837 0.0
C2536 C 0.16324 0.74472 0.34817 0.0
C2537 C 0.14723 0.7002 0.34823 0.0
C2538 C 0.13454 0.7172 0.33797 0.0
C2539 C 0.12994 0.75664 0.32722 0.0
C2540 C 0.13792 0.77898 0.32706 0.0
C2541 C 0.14243 0.7395 0.33775 0.0
C2542 C 0.1585 0.78399 0.33771 0.0
C2543 C 0.17105 0.76703 0.34814 0.0
H2544 H 0.25394 0.82035 0.6098 0.0
H2545 H 0.30809 0.85637 0.64239 0.0
H2546 H 0.28085 0.87922 0.66318 0.0
H2547 H 0.24163 0.88764 0.67358 0.0
H2548 H 0.18739 0.85171 0.64107 0.0
H2549 H 0.2146 0.83026 0.61868 0.0
C2550 C 0.25971 0.83327 0.6214 0.0
C2551 C 0.28295 0.83666 0.62458 0.0
C2552 C 0.24395 0.84632 0.63334 0.0
C2553 C 0.29027 0.85361 0.63947 0.0
C2554 C 0.27471 0.86658 0.65148 0.0
C2555 C 0.23582 0.87515 0.66154 0.0
C2556 C 0.21259 0.87119 0.65902 0.0
C2557 C 0.25153 0.86288 0.64877 0.0
C2558 C 0.20521 0.85518 0.64316 0.0
C2559 C 0.22074 0.84282 0.63046 0.0
H2560 H 0.11385 0.24821 0.67508 0.0
H2561 H 0.1545 0.19422 0.64831 0.0
H2562 H 0.17688 0.22131 0.62664 0.0
H2563 H 0.18594 0.26059 0.6167 0.0
H2564 H 0.14419 0.31452 0.64184 0.0
H2565 H 0.12097 0.28733 0.66256 0.0
C2566 C 0.12753 0.24249 0.66436 0.0
C2567 C 0.13269 0.21939 0.66328 0.0
C2568 C 0.14006 0.25812 0.65169 0.0
C2569 C 0.15028 0.21198 0.64926 0.0
C2570 C 0.16308 0.22744 0.63695 0.0
C2571 C 0.17161 0.26628 0.62658 0.0
C2572 C 0.16675 0.28942 0.62788 0.0
C2573 C 0.15828 0.25056 0.63822 0.0
C2574 C 0.1481 0.29671 0.64054 0.0
C2575 C 0.13494 0.28121 0.65247 0.0
H2576 H 0.75047 0.11644 0.67568 0.0
H2577 H 0.80104 0.16014 0.64695 0.0
H2578 H 0.77173 0.18314 0.62945 0.0
H2579 H 0.73174 0.19136 0.62299 0.0
H2580 H 0.68094 0.14752 0.65097 0.0
H2581 H 0.71027 0.12399 0.66807 0.0
C2582 C 0.75499 0.13099 0.66555 0.0
C2583 C 0.77783 0.13657 0.66253 0.0
C2584 C 0.73804 0.14411 0.65547 0.0
C2585 C 0.78356 0.15535 0.64926 0.0
C2586 C 0.76683 0.16859 0.63937 0.0
C2587 C 0.72714 0.17668 0.6329 0.0
C2588 C 0.7043 0.17121 0.63588 0.0
C2589 C 0.74404 0.16321 0.64248 0.0
C2590 C 0.69848 0.15196 0.64841 0.0
C2591 C 0.71521 0.13858 0.65824 0.0
H2592 H 0.85225 0.70173 0.65908 0.0
H2593 H 0.82147 0.74729 0.61142 0.0
H2594 H 0.84094 0.77913 0.62896 0.0
H2595 H 0.86515 0.79418 0.659 0.0
H2596 H 0.89542 0.74872 0.70704 0.0
H2597 H 0.8779 0.71657 0.688 0.0
C2598 C 0.85009 0.71857 0.6523 0.0
C2599 C 0.83543 0.72214 0.63398 0.0
C2600 C 0.8612 0.73679 0.66255 0.0
C2601 C 0.83248 0.74414 0.62565 0.0
C2602 C 0.84367 0.76233 0.63561 0.0
C2603 C 0.86825 0.77719 0.66503 0.0
C2604 C 0.8816 0.7738 0.68435 0.0
C2605 C 0.85787 0.75887 0.65422 0.0
C2606 C 0.88511 0.75174 0.69226 0.0
C2607 C 0.87511 0.73338 0.68139 0.0
H2608 H 0.38847 0.25815 0.18515 0.0
H2609 H 0.36905 0.30889 0.13683 0.0
H2610 H 0.35066 0.28016 0.11359 0.0
H2611 H 0.33738 0.24108 0.10878 0.0
H2612 H 0.35705 0.19041 0.15711 0.0
H2613 H 0.37826 0.21854 0.17847 0.0
C2614 C 0.38038 0.26281 0.1694 0.0
C2615 C 0.37993 0.28553 0.16273 0.0
C2616 C 0.36983 0.24625 0.15621 0.0
C2617 C 0.36968 0.29144 0.14221 0.0
C2618 C 0.35905 0.27507 0.12901 0.0
C2619 C 0.34651 0.23623 0.12388 0.0
C2620 C 0.34558 0.2138 0.13146 0.0
C2621 C 0.3586 0.2525 0.13611 0.0
C2622 C 0.35766 0.20758 0.15088 0.0
C2623 C 0.36965 0.22367 0.16318 0.0
H2624 H 0.33782 0.79535 0.83879 0.0
H2625 H 0.33467 0.75885 0.90149 0.0
H2626 H 0.3556 0.72737 0.88448 0.0
H2627 H 0.37181 0.70923 0.85071 0.0
H2628 H 0.37619 0.74692 0.7885 0.0
H2629 H 0.35769 0.77897 0.80637 0.0
C2630 C 0.34197 0.78055 0.84872 0.0
C2631 C 0.33466 0.77914 0.87119 0.0
C2632 C 0.35401 0.76274 0.83887 0.0
C2633 C 0.34021 0.76013 0.88412 0.0
C2634 C 0.35206 0.74218 0.87437 0.0
C2635 C 0.36919 0.72461 0.84117 0.0
C2636 C 0.37507 0.72545 0.81814 0.0
C2637 C 0.35869 0.74313 0.85162 0.0
C2638 C 0.37135 0.74554 0.80607 0.0
C2639 C 0.36086 0.76395 0.81629 0.0
H2640 H 0.25927 0.37914 0.80866 0.0
H2641 H 0.30842 0.35078 0.85413 0.0
H2642 H 0.27837 0.33272 0.87585 0.0
H2643 H 0.23819 0.32385 0.88108 0.0
H2644 H 0.18888 0.35299 0.8363 0.0
H2645 H 0.21883 0.37202 0.81522 0.0
C2646 C 0.26332 0.36903 0.82336 0.0
C2647 C 0.28597 0.36618 0.82976 0.0
C2648 C 0.24595 0.35886 0.83586 0.0
C2649 C 0.29107 0.35329 0.84898 0.0
C2650 C 0.27393 0.34289 0.86133 0.0
C2651 C 0.23406 0.33443 0.86673 0.0
C2652 C 0.21144 0.33695 0.86015 0.0
C2653 C 0.25133 0.34539 0.85481 0.0
C2654 C 0.2062 0.35092 0.84174 0.0
C2655 C 0.22331 0.36169 0.82962 0.0
H2656 H 0.61752 0.2486 0.82341 0.0
H2657 H 0.66105 0.29912 0.85262 0.0
H2658 H 0.68263 0.26992 0.87182 0.0
H2659 H 0.68967 0.23008 0.87989 0.0
H2660 H 0.64706 0.17919 0.85007 0.0
H2661 H 0.62455 0.20844 0.83173 0.0
C2662 C 0.63177 0.25317 0.83393 0.0
C2663 C 0.63754 0.27602 0.83668 0.0
C2664 C 0.64427 0.23624 0.84487 0.0
C2665 C 0.65596 0.2817 0.85051 0.0
C2666 C 0.66843 0.265 0.8614 0.0
C2667 C 0.67553 0.22537 0.86929 0.0
C2668 C 0.6701 0.20249 0.86635 0.0
C2669 C 0.66279 0.24224 0.85864 0.0
C2670 C 0.65146 0.1967 0.85285 0.0
C2671 C 0.63867 0.21341 0.84221 0.0
H2672 H 0.79752 0.65054 0.85262 0.0
H2673 H 0.75326 0.68971 0.89519 0.0
H2674 H 0.72045 0.67272 0.87713 0.0
H2675 H 0.70432 0.64762 0.84863 0.0
H2676 H 0.74832 0.60763 0.80659 0.0
H2677 H 0.78127 0.62407 0.82512 0.0
C2678 C 0.7807 0.65513 0.85817 0.0
C2679 C 0.77787 0.67145 0.87518 0.0
C2680 C 0.76187 0.64523 0.84775 0.0
C2681 C 0.75593 0.67745 0.88191 0.0
C2682 C 0.73715 0.66766 0.87167 0.0
C2683 C 0.7211 0.64219 0.84375 0.0
C2684 C 0.72383 0.62636 0.82628 0.0
C2685 C 0.73992 0.65165 0.85449 0.0
C2686 C 0.74574 0.61994 0.81985 0.0
C2687 C 0.76458 0.62926 0.83049 0.0
H2688 H 0.66374 0.75888 0.11322 0.0
H2689 H 0.64723 0.80988 0.16244 0.0
H2690 H 0.62622 0.78216 0.18455 0.0
H2691 H 0.61521 0.74269 0.19147 0.0
H2692 H 0.63187 0.69174 0.14226 0.0
H2693 H 0.65014 0.7201 0.1186 0.0
C2694 C 0.65537 0.76393 0.1287 0.0
C2695 C 0.65715 0.78634 0.13626 0.0
C2696 C 0.64352 0.74787 0.14143 0.0
C2697 C 0.64596 0.79276 0.15616 0.0
C2698 C 0.63412 0.77688 0.16892 0.0
C2699 C 0.62276 0.73788 0.17551 0.0
C2700 C 0.62234 0.71517 0.16867 0.0
C2701 C 0.63322 0.75428 0.16198 0.0
C2702 C 0.63188 0.70915 0.14782 0.0
C2703 C 0.64242 0.72533 0.13434 0.0
H2704 H 0.24942 0.60287 0.1608 0.0
H2705 H 0.29963 0.65362 0.1468 0.0
H2706 H 0.27158 0.67664 0.12751 0.0
H2707 H 0.2325 0.68334 0.11632 0.0
H2708 H 0.18188 0.63293 0.12958 0.0
H2709 H 0.21032 0.60861 0.14721 0.0
C2710 C 0.25413 0.61891 0.15339 0.0
C2711 C 0.2765 0.62654 0.15513 0.0
C2712 C 0.23789 0.63209 0.14222 0.0
C2713 C 0.28255 0.64729 0.1454 0.0
C2714 C 0.26652 0.66052 0.13449 0.0
C2715 C 0.22778 0.66696 0.12297 0.0
C2716 C 0.20523 0.65993 0.12187 0.0
C2717 C 0.24413 0.65321 0.13302 0.0
C2718 C 0.19924 0.63859 0.13021 0.0
C2719 C 0.21544 0.62478 0.14039 0.0
H2720 H 0.80925 0.37014 0.13911 0.0
H2721 H 0.76774 0.3414 0.08692 0.0
H2722 H 0.7345 0.36046 0.10246 0.0
H2723 H 0.71684 0.38022 0.13414 0.0
H2724 H 0.75866 0.41051 0.18562 0.0
H2725 H 0.79225 0.39567 0.16719 0.0
C2726 C 0.79301 0.36873 0.13079 0.0
C2727 C 0.79077 0.35456 0.11194 0.0
C2728 C 0.77403 0.37948 0.13999 0.0
C2729 C 0.76975 0.35251 0.1013 0.0
C2730 C 0.75077 0.36318 0.11034 0.0
C2731 C 0.73324 0.38428 0.14107 0.0
C2732 C 0.73498 0.3961 0.16166 0.0
C2733 C 0.75259 0.37601 0.13018 0.0
C2734 C 0.75661 0.40084 0.17026 0.0
C2735 C 0.77591 0.39251 0.15963 0.0
H2736 H 0.1038 0.14536 0.22338 0.0
H2737 H 0.1555 0.19253 0.24304 0.0
H2738 H 0.14622 0.21647 0.21071 0.0
H2739 H 0.12361 0.22378 0.17712 0.0
H2740 H 0.06982 0.17831 0.15873 0.0
H2741 H 0.08047 0.15316 0.18978 0.0
C2742 C 0.11307 0.16084 0.22049 0.0
C2743 C 0.13033 0.16721 0.23553 0.0
C2744 C 0.10749 0.17454 0.20199 0.0
C2745 C 0.14201 0.18745 0.23183 0.0
C2746 C 0.13683 0.201 0.21327 0.0
C2747 C 0.11397 0.20852 0.18 0.0
C2748 C 0.09563 0.20317 0.16586 0.0
C2749 C 0.1196 0.1947 0.1983 0.0
C2750 C 0.08394 0.18287 0.16938 0.0
C2751 C 0.08992 0.16859 0.18723 0.0
H2752 H 0.84159 0.13208 0.21548 0.0
H2753 H 0.81739 0.09689 0.27438 0.0
H2754 H 0.78989 0.07673 0.25138 0.0
H2755 H 0.77198 0.0699 0.21496 0.0
H2756 H 0.79488 0.10581 0.15592 0.0
H2757 H 0.82397 0.12455 0.17846 0.0
C2758 C 0.83038 0.11989 0.22321 0.0
C2759 C 0.83144 0.11613 0.24665 0.0
C2760 C 0.8145 0.10839 0.20985 0.0
C2761 C 0.81666 0.10042 0.25648 0.0
C2762 C 0.80106 0.08874 0.2433 0.0
C2763 C 0.78352 0.08157 0.20688 0.0
C2764 C 0.78127 0.0864 0.18374 0.0
C2765 C 0.79975 0.09267 0.22002 0.0
C2766 C 0.79622 0.10181 0.17369 0.0
C2767 C 0.8128 0.11258 0.18659 0.0
H2768 H 0.91121 0.76986 0.20203 0.0
H2769 H 0.88661 0.8114 0.14765 0.0
H2770 H 0.87453 0.8401 0.17491 0.0
H2771 H 0.86869 0.85194 0.21447 0.0
H2772 H 0.89279 0.80936 0.26839 0.0
H2773 H 0.90661 0.78206 0.241 0.0
C2774 C 0.90311 0.78514 0.19611 0.0
C2775 C 0.89949 0.78836 0.17291 0.0
C2776 C 0.8958 0.80118 0.21182 0.0
C2777 C 0.88961 0.80855 0.16544 0.0
C2778 C 0.88254 0.82486 0.18104 0.0
C2779 C 0.87716 0.83681 0.22021 0.0
C2780 C 0.87949 0.83266 0.24352 0.0
C2781 C 0.8852 0.82115 0.20431 0.0
C2782 C 0.89034 0.81282 0.25064 0.0
C2783 C 0.89845 0.79727 0.23498 0.0
H2784 H 0.21671 0.87387 0.16787 0.0
H2785 H 0.20106 0.94491 0.16816 0.0
H2786 H 0.17522 0.93931 0.19993 0.0
H2787 H 0.15927 0.91444 0.22938 0.0
H2788 H 0.17351 0.8433 0.22778 0.0
H2789 H 0.19795 0.84856 0.19475 0.0
C2790 C 0.20738 0.88806 0.17472 0.0
C2791 C 0.21082 0.90978 0.16587 0.0
C2792 C 0.19265 0.88469 0.19289 0.0
C2793 C 0.19854 0.92802 0.17465 0.0
C2794 C 0.18396 0.92486 0.19293 0.0
C2795 C 0.16783 0.90021 0.2217 0.0
C2796 C 0.1652 0.87861 0.23103 0.0
C2797 C 0.18131 0.90336 0.2025 0.0
C2798 C 0.17569 0.86005 0.22083 0.0
C2799 C 0.18954 0.86308 0.20202 0.0
H2800 H 0.07412 0.77864 0.80634 0.0
H2801 H 0.10221 0.82178 0.85769 0.0
H2802 H 0.11542 0.84806 0.82859 0.0
H2803 H 0.1219 0.8567 0.78842 0.0
H2804 H 0.09346 0.81301 0.73746 0.0
H2805 H 0.07815 0.78864 0.76658 0.0
C2806 C 0.08304 0.79388 0.81116 0.0
C2807 C 0.08744 0.79818 0.83405 0.0
C2808 C 0.09093 0.80854 0.7944 0.0
C2809 C 0.09854 0.81818 0.84015 0.0
C2810 C 0.10629 0.83306 0.82351 0.0
C2811 C 0.11211 0.84205 0.78361 0.0
C2812 C 0.10922 0.83666 0.7606 0.0
C2813 C 0.10303 0.82812 0.80054 0.0
C2814 C 0.09654 0.81742 0.75488 0.0
C2815 C 0.08754 0.80351 0.77157 0.0
H2816 H 0.14246 0.10722 0.7817 0.0
H2817 H 0.19852 0.1227 0.73776 0.0
H2818 H 0.22482 0.11391 0.768 0.0
H2819 H 0.2319 0.10323 0.80694 0.0
H2820 H 0.17642 0.08963 0.852 0.0
H2821 H 0.14972 0.09635 0.82111 0.0
C2822 C 0.16039 0.10891 0.77871 0.0
C2823 C 0.16839 0.11582 0.75737 0.0
C2824 C 0.17548 0.10425 0.79637 0.0
C2825 C 0.19179 0.11725 0.75382 0.0
C2826 C 0.20688 0.11238 0.77119 0.0
C2827 C 0.21398 0.10205 0.8102 0.0
C2828 C 0.20615 0.09642 0.83189 0.0
C2829 C 0.19889 0.10614 0.79255 0.0
C2830 C 0.18287 0.0941 0.8355 0.0
C2831 C 0.16763 0.09798 0.81786 0.0
H2832 H 0.87132 0.14507 0.78488 0.0
H2833 H 0.89789 0.19204 0.73597 0.0
H2834 H 0.91276 0.2155 0.76609 0.0
H2835 H 0.91648 0.22391 0.80605 0.0
H2836 H 0.88996 0.17797 0.85574 0.0
H2837 H 0.87757 0.15235 0.8256 0.0
C2838 C 0.8806 0.16028 0.78084 0.0
C2839 C 0.8831 0.16695 0.75815 0.0
C2840 C 0.88928 0.17376 0.79835 0.0
C2841 C 0.89514 0.18678 0.75322 0.0
C2842 C 0.90386 0.20013 0.77045 0.0
C2843 C 0.90814 0.20819 0.8103 0.0
C2844 C 0.90391 0.20289 0.83299 0.0
C2845 C 0.90072 0.19397 0.79302 0.0
C2846 C 0.89348 0.18232 0.83835 0.0
C2847 C 0.88621 0.16782 0.82112 0.0
H2848 H 0.7584 0.87153 0.82164 0.0
H2849 H 0.80628 0.91071 0.85997 0.0
H2850 H 0.83425 0.90584 0.82995 0.0
H2851 H 0.84463 0.89096 0.79264 0.0
H2852 H 0.79651 0.85119 0.75508 0.0
H2853 H 0.7688 0.85625 0.785 0.0
C2854 C 0.77498 0.87884 0.82367 0.0
C2855 C 0.78023 0.89133 0.84319 0.0
C2856 C 0.79082 0.87611 0.80636 0.0
C2857 C 0.80178 0.90095 0.84519 0.0
C2858 C 0.81776 0.89821 0.828 0.0
C2859 C 0.8282 0.88316 0.79103 0.0
C2860 C 0.82277 0.87062 0.77152 0.0
C2861 C 0.8124 0.88588 0.80848 0.0
C2862 C 0.80113 0.86113 0.76966 0.0
C2863 C 0.78531 0.86386 0.78688 0.0
H2864 H 0.24697 0.08099 0.16792 0.0
H2865 H 0.24269 0.15055 0.18812 0.0
H2866 H 0.20878 0.14246 0.21038 0.0
H2867 H 0.18054 0.11571 0.22374 0.0
H2868 H 0.18371 0.04599 0.20317 0.0
H2869 H 0.21748 0.05403 0.18061 0.0
C2870 C 0.2387 0.09414 0.17758 0.0
C2871 C 0.24739 0.11619 0.17708 0.0
C2872 C 0.21887 0.08942 0.18971 0.0
C2873 C 0.23634 0.13344 0.18885 0.0
C2874 C 0.21695 0.12883 0.20132 0.0
C2875 C 0.18857 0.10225 0.21427 0.0
C2876 C 0.17978 0.08025 0.21524 0.0
C2877 C 0.20804 0.10693 0.20177 0.0
C2878 C 0.1901 0.06309 0.20258 0.0
C2879 C 0.20954 0.06763 0.18991 0.0
H2880 H 0.9212 0.24319 0.15715 0.0
H2881 H 0.85383 0.25043 0.18296 0.0
H2882 H 0.85901 0.21718 0.20701 0.0
H2883 H 0.88236 0.18567 0.21974 0.0
H2884 H 0.94938 0.17695 0.19278 0.0
H2885 H 0.94455 0.21068 0.1694 0.0
C2886 C 0.90793 0.23755 0.16837 0.0
C2887 C 0.88737 0.24929 0.16886 0.0
C2888 C 0.91079 0.21794 0.18138 0.0
C2889 C 0.86989 0.24172 0.18284 0.0
C2890 C 0.87279 0.22266 0.19632 0.0
C2891 C 0.89592 0.19112 0.20871 0.0
C2892 C 0.91623 0.1789 0.20806 0.0
C2893 C 0.89308 0.21053 0.19555 0.0
C2894 C 0.9335 0.18596 0.19344 0.0
C2895 C 0.93084 0.20537 0.18026 0.0
H2896 H 0.77783 0.87676 0.17107 0.0
H2897 H 0.72704 0.92463 0.19175 0.0
H2898 H 0.7545 0.94343 0.21607 0.0
H2899 H 0.79253 0.94547 0.23225 0.0
H2900 H 0.843 0.89696 0.21206 0.0
H2901 H 0.8162 0.87976 0.18589 0.0
C2902 C 0.77277 0.89149 0.18062 0.0
C2903 C 0.75033 0.89927 0.17947 0.0
C2904 C 0.78868 0.90229 0.19439 0.0
C2905 C 0.74404 0.91805 0.19251 0.0
C2906 C 0.75982 0.92896 0.20624 0.0
C2907 C 0.79788 0.93144 0.22179 0.0
C2908 C 0.81984 0.9226 0.22404 0.0
C2909 C 0.78216 0.92118 0.20735 0.0
C2910 C 0.82627 0.90417 0.21058 0.0
C2911 C 0.81089 0.89422 0.19577 0.0
H2912 H 0.05532 0.79202 0.22719 0.0
H2913 H 0.10404 0.84243 0.20783 0.0
H2914 H 0.11811 0.81771 0.17795 0.0
H2915 H 0.11815 0.78076 0.15901 0.0
H2916 H 0.06942 0.73041 0.17857 0.0
H2917 H 0.05384 0.75606 0.20675 0.0
C2918 C 0.06876 0.79777 0.21618 0.0
C2919 C 0.0788 0.81896 0.21989 0.0
C2920 C 0.07695 0.78334 0.19926 0.0
C2921 C 0.09631 0.82605 0.2056 0.0
C2922 C 0.10433 0.81193 0.18847 0.0
C2923 C 0.10395 0.77549 0.16924 0.0
C2924 C 0.09515 0.75356 0.1668 0.0
C2925 C 0.09507 0.79035 0.18545 0.0
C2926 C 0.07686 0.74697 0.18038 0.0
C2927 C 0.06781 0.76171 0.1964 0.0
H2928 H 0.21373 0.93778 0.76422 0.0
H2929 H 0.15976 0.89413 0.78618 0.0
H2930 H 0.1847 0.87718 0.81431 0.0
H2931 H 0.2224 0.87339 0.83122 0.0
H2932 H 0.27657 0.91613 0.80823 0.0
H2933 H 0.25107 0.93454 0.78163 0.0
C2934 C 0.20727 0.92481 0.77539 0.0
C2935 C 0.18484 0.91735 0.77319 0.0
C2936 C 0.22187 0.9147 0.79106 0.0
C2937 C 0.17692 0.90026 0.78758 0.0
C2938 C 0.1912 0.89047 0.80359 0.0
C2939 C 0.22857 0.88685 0.82051 0.0
C2940 C 0.2514 0.89331 0.82166 0.0
C2941 C 0.2138 0.89733 0.80523 0.0
C2942 C 0.2592 0.91058 0.80744 0.0
C2943 C 0.24457 0.92125 0.79236 0.0
H2944 H 0.05527 0.19779 0.77987 0.0
H2945 H 0.11812 0.1618 0.78609 0.0
H2946 H 0.13204 0.19004 0.81277 0.0
H2947 H 0.12712 0.22614 0.83262 0.0
H2948 H 0.06572 0.26393 0.82381 0.0
H2949 H 0.0504 0.23404 0.79976 0.0
C2950 C 0.07183 0.19599 0.78744 0.0
C2951 C 0.08557 0.17766 0.78137 0.0
C2952 C 0.08007 0.2128 0.80199 0.0
C2953 C 0.10723 0.17573 0.79071 0.0
C2954 C 0.11522 0.1919 0.80586 0.0
C2955 C 0.11036 0.22769 0.82549 0.0
C2956 C 0.09756 0.24714 0.82988 0.0
C2957 C 0.10193 0.21069 0.81133 0.0
C2958 C 0.07596 0.2492 0.82038 0.0
C2959 C 0.06716 0.23207 0.80677 0.0
H2960 H 0.83175 0.10517 0.77453 0.0
H2961 H 0.79819 0.04297 0.75689 0.0
H2962 H 0.77105 0.04868 0.78719 0.0
H2963 H 0.75458 0.073 0.81633 0.0
H2964 H 0.78786 0.13485 0.83472 0.0
H2965 H 0.8174 0.12765 0.80661 0.0
C2966 C 0.81881 0.09262 0.77764 0.0
C2967 C 0.81688 0.07379 0.76326 0.0
C2968 C 0.80296 0.09614 0.79499 0.0
C2969 C 0.79996 0.05772 0.76754 0.0
C2970 C 0.78433 0.06101 0.78481 0.0
C2971 C 0.76833 0.08486 0.81413 0.0
C2972 C 0.76891 0.1046 0.82718 0.0
C2973 C 0.78524 0.08048 0.79815 0.0
C2974 C 0.78708 0.1196 0.8247 0.0
C2975 C 0.80392 0.11548 0.80865 0.0
H2976 H 0.88796 0.85005 0.8231 0.0
H2977 H 0.93236 0.81372 0.7784 0.0
H2978 H 0.92704 0.77934 0.8003 0.0
H2979 H 0.90724 0.7588 0.8301 0.0
H2980 H 0.86115 0.79422 0.87381 0.0
H2981 H 0.86974 0.82969 0.85463 0.0
C2982 C 0.89689 0.83472 0.81859 0.0
C2983 C 0.91061 0.83436 0.79928 0.0
C2984 C 0.89316 0.81476 0.83089 0.0
C2985 C 0.92174 0.81434 0.79325 0.0
C2986 C 0.91861 0.79465 0.80568 0.0
C2987 C 0.89904 0.77427 0.83537 0.0
C2988 C 0.88342 0.77382 0.85317 0.0
C2989 C 0.90386 0.7945 0.82412 0.0
C2990 C 0.87332 0.79412 0.86019 0.0
C2991 C 0.87816 0.8144 0.84918 0.0
H2992 H 0.15602 0.22492 0.09829 0.0
H2993 H 0.19941 0.25396 0.14893 0.0
H2994 H 0.22752 0.22453 0.14189 0.0
H2995 H 0.23882 0.1897 0.12256 0.0
H2996 H 0.19526 0.16075 0.07184 0.0
H2997 H 0.16768 0.19065 0.07834 0.0
C2998 C 0.17158 0.22476 0.10788 0.0
C2999 C 0.17554 0.24151 0.12426 0.0
C3000 C 0.18744 0.20766 0.10395 0.0
C3001 C 0.19603 0.24139 0.13613 0.0
C3002 C 0.212 0.22445 0.13224 0.0
C3003 C 0.2234 0.18997 0.11276 0.0
C3004 C 0.21921 0.173 0.09663 0.0
C3005 C 0.20775 0.20737 0.11637 0.0
C3006 C 0.19894 0.17353 0.08437 0.0
C3007 C 0.18319 0.19068 0.08801 0.0
H3008 H 0.23516 0.80905 0.88157 0.0
H3009 H 0.18587 0.84889 0.91746 0.0
H3010 H 0.15713 0.82028 0.90985 0.0
H3011 H 0.14623 0.78401 0.89318 0.0
H3012 H 0.19552 0.74477 0.85663 0.0
H3013 H 0.22429 0.77303 0.86482 0.0
C3014 C 0.21813 0.81164 0.88764 0.0
C3015 C 0.21268 0.83121 0.89996 0.0
C3016 C 0.20178 0.79513 0.88329 0.0
C3017 C 0.19053 0.83404 0.90789 0.0
C3018 C 0.1741 0.81767 0.90357 0.0
C3019 C 0.16318 0.78168 0.88678 0.0
C3020 C 0.16861 0.76226 0.87416 0.0
C3021 C 0.17956 0.79816 0.89128 0.0
C3022 C 0.19088 0.75937 0.86654 0.0
C3023 C 0.2073 0.77563 0.87107 0.0
H3024 H 0.21544 0.17167 0.86441 0.0
H3025 H 0.26205 0.18862 0.9175 0.0
H3026 H 0.23398 0.2137 0.93456 0.0
H3027 H 0.19623 0.23094 0.93412 0.0
H3028 H 0.15054 0.216 0.87956 0.0
H3029 H 0.17798 0.18966 0.86343 0.0
C3030 C 0.21936 0.18091 0.87971 0.0
C3031 C 0.24072 0.17842 0.8897 0.0
C3032 C 0.20323 0.1954 0.88922 0.0
C3033 C 0.24581 0.19056 0.90938 0.0
C3034 C 0.22971 0.20471 0.91922 0.0
C3035 C 0.19218 0.22162 0.9189 0.0
C3036 C 0.1713 0.22504 0.90821 0.0
C3037 C 0.20835 0.2072 0.90932 0.0
C3038 C 0.16645 0.21343 0.88815 0.0
C3039 C 0.18216 0.19848 0.87889 0.0
H3040 H 0.76749 0.20217 0.92831 0.0
H3041 H 0.79715 0.14635 0.89213 0.0
H3042 H 0.8254 0.17177 0.8759 0.0
H3043 H 0.84022 0.21029 0.87047 0.0
H3044 H 0.80906 0.26598 0.90542 0.0
H3045 H 0.78251 0.24015 0.92344 0.0
C3046 C 0.78033 0.1954 0.91716 0.0
C3047 C 0.78026 0.17232 0.91154 0.0
C3048 C 0.79599 0.21018 0.9074 0.0
C3049 C 0.79685 0.16402 0.89677 0.0
C3050 C 0.81292 0.17856 0.88742 0.0
C3051 C 0.82772 0.21671 0.88218 0.0
C3052 C 0.82656 0.24004 0.88657 0.0
C3053 C 0.81242 0.20174 0.89235 0.0
C3054 C 0.81009 0.24818 0.90152 0.0
C3055 C 0.79504 0.23339 0.91195 0.0
H3056 H 0.7758 0.82641 0.89292 0.0
H3057 H 0.72079 0.79414 0.928 0.0
H3058 H 0.74733 0.76891 0.94676 0.0
H3059 H 0.78576 0.75447 0.95136 0.0
H3060 H 0.84073 0.78614 0.91565 0.0
H3061 H 0.81464 0.8137 0.89962 0.0
C3062 C 0.76959 0.8141 0.9049 0.0
C3063 C 0.74622 0.81212 0.90884 0.0
C3064 C 0.78498 0.79965 0.91568 0.0
C3065 C 0.73857 0.7958 0.92425 0.0
C3066 C 0.75378 0.78148 0.93516 0.0
C3067 C 0.79219 0.76769 0.94049 0.0
C3068 C 0.81523 0.76814 0.93469 0.0
C3069 C 0.77699 0.78306 0.93079 0.0
C3070 C 0.82311 0.78533 0.92037 0.0
C3071 C 0.80816 0.80102 0.91107 0.0
H3072 H 0.83476 0.76175 0.1226 0.0
H3073 H 0.80046 0.72872 0.17762 0.0
H3074 H 0.77112 0.75768 0.17693 0.0
H3075 H 0.75617 0.79311 0.16166 0.0
H3076 H 0.79099 0.82637 0.107 0.0
H3077 H 0.81976 0.79688 0.10714 0.0
C3078 C 0.82093 0.76093 0.13453 0.0
C3079 C 0.8199 0.74321 0.15027 0.0
C3080 C 0.80449 0.77786 0.13437 0.0
C3081 C 0.80154 0.74205 0.1652 0.0
C3082 C 0.78492 0.75875 0.16499 0.0
C3083 C 0.77017 0.79406 0.14992 0.0
C3084 C 0.77158 0.81201 0.13448 0.0
C3085 C 0.78643 0.7769 0.14987 0.0
C3086 C 0.78962 0.81279 0.11914 0.0
C3087 C 0.80599 0.79589 0.11913 0.0
H3088 H 0.18711 0.76111 0.11032 0.0
H3089 H 0.1555 0.81324 0.07055 0.0
H3090 H 0.18683 0.83873 0.07894 0.0
H3091 H 0.22294 0.84612 0.09771 0.0
H3092 H 0.25411 0.79412 0.13796 0.0
H3093 H 0.22328 0.76834 0.12877 0.0
C3094 C 0.18688 0.77808 0.10363 0.0
C3095 C 0.1688 0.78531 0.09003 0.0
C3096 C 0.20496 0.79254 0.1084 0.0
C3097 C 0.16912 0.80727 0.08116 0.0
C3098 C 0.18704 0.82183 0.08591 0.0
C3099 C 0.22292 0.82921 0.10464 0.0
C3100 C 0.24073 0.82213 0.1187 0.0
C3101 C 0.20501 0.81464 0.09955 0.0
C3102 C 0.24073 0.79995 0.12699 0.0
C3103 C 0.22301 0.78527 0.12189 0.0
H3104 H 0.73566 0.19586 0.12153 0.0
H3105 H 0.78804 0.14553 0.11617 0.0
H3106 H 0.81586 0.17482 0.10922 0.0
H3107 H 0.82516 0.21481 0.10248 0.0
H3108 H 0.77211 0.26453 0.10522 0.0
H3109 H 0.74481 0.23546 0.1152 0.0
C3110 C 0.75309 0.19121 0.11867 0.0
C3111 C 0.75955 0.16842 0.11939 0.0
C3112 C 0.76899 0.2081 0.11416 0.0
C3113 C 0.78243 0.16288 0.11605 0.0
C3114 C 0.79844 0.17965 0.11191 0.0
C3115 C 0.80767 0.21923 0.10554 0.0
C3116 C 0.8006 0.24168 0.10308 0.0
C3117 C 0.79189 0.20232 0.11072 0.0
C3118 C 0.77788 0.24726 0.10686 0.0
C3119 C 0.76226 0.23068 0.11256 0.0
H3120 H 0.61544 0.73169 0.67763 0.0
H3121 H 0.56387 0.68615 0.65385 0.0
H3122 H 0.57414 0.65909 0.68343 0.0
H3123 H 0.59703 0.64921 0.71714 0.0
H3124 H 0.64709 0.6962 0.74105 0.0
H3125 H 0.63794 0.72209 0.71038 0.0
C3126 C 0.60626 0.71594 0.67887 0.0
C3127 C 0.5887 0.71111 0.66363 0.0
C3128 C 0.61197 0.70077 0.69602 0.0
C3129 C 0.57739 0.69035 0.66538 0.0
C3130 C 0.58324 0.6749 0.68232 0.0
C3131 C 0.60601 0.66504 0.71542 0.0
C3132 C 0.62268 0.67088 0.73133 0.0
C3133 C 0.6004 0.68002 0.69787 0.0
C3134 C 0.63405 0.69152 0.72915 0.0
C3135 C 0.62888 0.70626 0.7116 0.0
H3136 H 0.3468 0.61877 0.70985 0.0
H3137 H 0.29647 0.60646 0.76113 0.0
H3138 H 0.26908 0.59688 0.73195 0.0
H3139 H 0.25931 0.59258 0.69197 0.0
H3140 H 0.30989 0.60383 0.64087 0.0
H3141 H 0.3377 0.61248 0.67016 0.0
C3142 C 0.33004 0.6136 0.71487 0.0
C3143 C 0.32385 0.61337 0.73788 0.0
C3144 C 0.31446 0.6078 0.69802 0.0
C3145 C 0.30173 0.60709 0.74367 0.0
C3146 C 0.28606 0.60147 0.72697 0.0
C3147 C 0.27642 0.59695 0.68722 0.0
C3148 C 0.2825 0.59781 0.66427 0.0
C3149 C 0.29222 0.60192 0.70411 0.0
C3150 C 0.30483 0.60301 0.65841 0.0
C3151 C 0.32067 0.60807 0.67514 0.0
H3152 H 0.44089 0.26316 0.70771 0.0
H3153 H 0.39525 0.28561 0.65564 0.0
H3154 H 0.38208 0.31612 0.68009 0.0
H3155 H 0.38117 0.33428 0.71745 0.0
H3156 H 0.42553 0.3105 0.76994 0.0
H3157 H 0.44137 0.28247 0.74423 0.0
C3158 C 0.4284 0.27499 0.7015 0.0
C3159 C 0.41912 0.27213 0.67984 0.0
C3160 C 0.42036 0.292 0.7159 0.0
C3161 C 0.4027 0.28746 0.67223 0.0
C3162 C 0.39506 0.30483 0.68625 0.0
C3163 C 0.39451 0.32315 0.72315 0.0
C3164 C 0.40203 0.32436 0.74564 0.0
C3165 C 0.40339 0.30692 0.70831 0.0
C3166 C 0.41916 0.30965 0.75286 0.0
C3167 C 0.42834 0.29372 0.73811 0.0
H3168 H 0.72545 0.37235 0.67473 0.0
H3169 H 0.68558 0.43158 0.66065 0.0
H3170 H 0.65892 0.42081 0.69035 0.0
H3171 H 0.64911 0.39634 0.72287 0.0
H3172 H 0.69137 0.33935 0.73847 0.0
H3173 H 0.71524 0.34762 0.70586 0.0
C3174 C 0.71101 0.38303 0.67817 0.0
C3175 C 0.7078 0.40301 0.6658 0.0
C3176 C 0.69631 0.37719 0.69572 0.0
C3177 C 0.68854 0.41618 0.67001 0.0
C3178 C 0.67336 0.41009 0.68708 0.0
C3179 C 0.66339 0.38564 0.71884 0.0
C3180 C 0.66864 0.36733 0.73298 0.0
C3181 C 0.67739 0.39092 0.70041 0.0
C3182 C 0.68725 0.35364 0.72787 0.0
C3183 C 0.70082 0.35834 0.70925 0.0
H3184 H 0.60795 0.26978 0.30225 0.0
H3185 H 0.61693 0.32084 0.35333 0.0
H3186 H 0.63046 0.3473 0.32461 0.0
H3187 H 0.64093 0.35529 0.28524 0.0
H3188 H 0.63131 0.3039 0.23444 0.0
H3189 H 0.61768 0.2779 0.26307 0.0
C3190 C 0.61299 0.28665 0.30717 0.0
C3191 C 0.61164 0.29325 0.32993 0.0
C3192 C 0.62093 0.3016 0.29069 0.0
C3193 C 0.61772 0.31536 0.33591 0.0
C3194 C 0.6256 0.33043 0.31952 0.0
C3195 C 0.63567 0.3385 0.28032 0.0
C3196 C 0.63725 0.33168 0.25757 0.0
C3197 C 0.62744 0.32366 0.29688 0.0
C3198 C 0.63068 0.30964 0.25175 0.0
C3199 C 0.62265 0.29476 0.26812 0.0
H3200 H 0.70026 0.56463 0.32071 0.0
H3201 H 0.72196 0.63348 0.33029 0.0
H3202 H 0.70113 0.64506 0.29683 0.0
H3203 H 0.67668 0.63573 0.26459 0.0
H3204 H 0.6538 0.56765 0.25532 0.0
H3205 H 0.67527 0.55541 0.28865 0.0
C3206 C 0.70019 0.58219 0.31562 0.0
C3207 C 0.71268 0.59813 0.32797 0.0
C3208 C 0.68829 0.58876 0.29617 0.0
C3209 C 0.71258 0.62082 0.32103 0.0
C3210 C 0.70074 0.62749 0.30184 0.0
C3211 C 0.67693 0.61818 0.26975 0.0
C3212 C 0.66439 0.60237 0.25749 0.0
C3213 C 0.68875 0.61158 0.28915 0.0
C3214 C 0.6639 0.57981 0.26447 0.0
C3215 C 0.67595 0.57295 0.28355 0.0
H3216 H 0.36814 0.72269 0.32107 0.0
H3217 H 0.42868 0.68389 0.33219 0.0
H3218 H 0.41706 0.65735 0.30269 0.0
H3219 H 0.39091 0.64701 0.27176 0.0
H3220 H 0.33209 0.68793 0.25959 0.0
H3221 H 0.34204 0.71226 0.29139 0.0
C3222 C 0.37897 0.70859 0.31708 0.0
C3223 C 0.39948 0.7056 0.32863 0.0
C3224 C 0.37252 0.6939 0.29979 0.0
C3225 C 0.41285 0.6867 0.32352 0.0
C3226 C 0.40626 0.67157 0.30659 0.0
C3227 C 0.38019 0.6611 0.27633 0.0
C3228 C 0.36081 0.6658 0.26343 0.0
C3229 C 0.38631 0.67527 0.29433 0.0
C3230 C 0.34716 0.68423 0.26921 0.0
C3231 C 0.35281 0.69804 0.28738 0.0
H3232 H 0.27954 0.38735 0.32615 0.0
H3233 H 0.26019 0.44791 0.29061 0.0
H3234 H 0.28861 0.44045 0.26186 0.0
H3235 H 0.3174 0.41547 0.24538 0.0
H3236 H 0.33741 0.35548 0.28106 0.0
H3237 H 0.31029 0.36386 0.3111 0.0
C3238 C 0.28178 0.39913 0.31234 0.0
C3239 C 0.26757 0.41807 0.3105 0.0
C3240 C 0.29806 0.39464 0.29566 0.0
C3241 C 0.27077 0.43312 0.29243 0.0
C3242 C 0.28696 0.42883 0.27587 0.0
C3243 C 0.31568 0.40424 0.25971 0.0
C3244 C 0.32907 0.38476 0.26093 0.0
C3245 C 0.30033 0.40938 0.27703 0.0
C3246 C 0.32717 0.37055 0.27981 0.0
C3247 C 0.3117 0.37535 0.29695 0.0
H3248 H 0.66501 0.61067 0.71567 0.0
H3249 H 0.69814 0.54668 0.72645 0.0
H3250 H 0.72767 0.55716 0.69988 0.0
H3251 H 0.74662 0.58632 0.67727 0.0
H3252 H 0.71367 0.64985 0.66553 0.0
H3253 H 0.68153 0.63789 0.68887 0.0
C3254 C 0.67837 0.59878 0.71181 0.0
C3255 C 0.67952 0.57805 0.72339 0.0
C3256 C 0.6956 0.60507 0.69675 0.0
C3257 C 0.69694 0.56285 0.71804 0.0
C3258 C 0.71396 0.56888 0.70294 0.0
C3259 C 0.73229 0.5974 0.67982 0.0
C3260 C 0.73251 0.61905 0.6703 0.0
C3261 C 0.71391 0.59026 0.69291 0.0
C3262 C 0.71375 0.6332 0.67304 0.0
C3263 C 0.69547 0.62635 0.68631 0.0
H3264 H 0.40682 0.68924 0.72848 0.0
H3265 H 0.39157 0.63939 0.6777 0.0
H3266 H 0.37992 0.66936 0.65167 0.0
H3267 H 0.3724 0.70942 0.64438 0.0
H3268 H 0.38892 0.75901 0.69528 0.0
H3269 H 0.40105 0.72916 0.72058 0.0
C3270 C 0.401 0.68489 0.71169 0.0
C3271 C 0.39992 0.66214 0.70503 0.0
C3272 C 0.39425 0.7021 0.69701 0.0
C3273 C 0.39267 0.6568 0.68314 0.0
C3274 C 0.38586 0.67391 0.66835 0.0
C3275 C 0.37893 0.71389 0.66083 0.0
C3276 C 0.3796 0.73668 0.66776 0.0
C3277 C 0.38635 0.69661 0.67523 0.0
C3278 C 0.38779 0.74177 0.68945 0.0
C3279 C 0.39495 0.72468 0.70393 0.0
H3280 H 0.3146 0.43719 0.71518 0.0
H3281 H 0.34627 0.3719 0.71053 0.0
H3282 H 0.31581 0.35852 0.68608 0.0
H3283 H 0.27957 0.36505 0.66717 0.0
H3284 H 0.24653 0.42944 0.6735 0.0
H3285 H 0.27783 0.44351 0.69661 0.0
C3286 C 0.31498 0.42019 0.70841 0.0
C3287 C 0.33279 0.40564 0.71416 0.0
C3288 C 0.29695 0.41237 0.69515 0.0
C3289 C 0.33283 0.38342 0.70599 0.0
C3290 C 0.31537 0.37575 0.69219 0.0
C3291 C 0.27927 0.38215 0.67367 0.0
C3292 C 0.26082 0.39619 0.66878 0.0
C3293 C 0.29723 0.38999 0.6869 0.0
C3294 C 0.26042 0.41825 0.67739 0.0
C3295 C 0.27841 0.42633 0.69037 0.0
H3296 H 0.56975 0.25502 0.68126 0.0
H3297 H 0.63151 0.28817 0.66205 0.0
H3298 H 0.62535 0.31706 0.69081 0.0
H3299 H 0.6039 0.33118 0.72329 0.0
H3300 H 0.54216 0.2978 0.74275 0.0
H3301 H 0.54666 0.27098 0.71188 0.0
C3302 C 0.58181 0.26859 0.68342 0.0
C3303 C 0.60113 0.26936 0.66972 0.0
C3304 C 0.57814 0.28515 0.69998 0.0
C3305 C 0.61645 0.28727 0.67234 0.0
C3306 C 0.61297 0.30375 0.68883 0.0
C3307 C 0.59119 0.31831 0.72056 0.0
C3308 C 0.57283 0.31642 0.73549 0.0
C3309 C 0.59404 0.30268 0.70296 0.0
C3310 C 0.55656 0.29959 0.73163 0.0
C3311 C 0.55915 0.28414 0.71403 0.0
H3312 H 0.75306 0.42695 0.32088 0.0
H3313 H 0.72227 0.36251 0.33396 0.0
H3314 H 0.69147 0.37159 0.30786 0.0
H3315 H 0.67523 0.39672 0.27901 0.0
H3316 H 0.7062 0.46147 0.26653 0.0
H3317 H 0.73474 0.45361 0.29502 0.0
C3318 C 0.73958 0.41495 0.31797 0.0
C3319 C 0.74006 0.39395 0.32891 0.0
C3320 C 0.72194 0.42039 0.30316 0.0
C3321 C 0.72223 0.37872 0.32556 0.0
C3322 C 0.70469 0.38391 0.31065 0.0
C3323 C 0.68796 0.4093 0.2828 0.0
C3324 C 0.68869 0.42956 0.27038 0.0
C3325 C 0.70458 0.40456 0.29905 0.0
C3326 C 0.7053 0.44567 0.27564 0.0
C3327 C 0.72173 0.44115 0.29187 0.0
H3328 H 0.62508 0.67086 0.2753 0.0
H3329 H 0.56393 0.66086 0.31348 0.0
H3330 H 0.57567 0.69013 0.34017 0.0
H3331 H 0.60164 0.72112 0.35037 0.0
H3332 H 0.66112 0.73258 0.3102 0.0
H3333 H 0.6515 0.70044 0.28618 0.0
C3334 C 0.61421 0.6751 0.28938 0.0
C3335 C 0.59342 0.66401 0.29209 0.0
C3336 C 0.62069 0.69239 0.30413 0.0
C3337 C 0.57996 0.66922 0.31091 0.0
C3338 C 0.58661 0.68605 0.32609 0.0
C3339 C 0.61261 0.71631 0.33655 0.0
C3340 C 0.632 0.72919 0.33193 0.0
C3341 C 0.60668 0.69812 0.32255 0.0
C3342 C 0.64599 0.72303 0.31384 0.0
C3343 C 0.64053 0.70465 0.3002 0.0
H3344 H 0.25009 0.56729 0.31472 0.0
H3345 H 0.28278 0.62968 0.33272 0.0
H3346 H 0.31254 0.6224 0.30515 0.0
H3347 H 0.32784 0.59959 0.27427 0.0
H3348 H 0.29503 0.53724 0.25582 0.0
H3349 H 0.26699 0.54305 0.28541 0.0
C3350 C 0.26372 0.57927 0.31254 0.0
C3351 C 0.26413 0.59909 0.32558 0.0
C3352 C 0.28081 0.57494 0.29665 0.0
C3353 C 0.28214 0.61427 0.32295 0.0
C3354 C 0.29912 0.61014 0.30714 0.0
C3355 C 0.31477 0.58707 0.27689 0.0
C3356 C 0.3135 0.56809 0.26264 0.0
C3357 C 0.29848 0.59067 0.29371 0.0
C3358 C 0.29643 0.55205 0.26643 0.0
C3359 C 0.28028 0.55541 0.28329 0.0
H3360 H 0.40226 0.30585 0.25897 0.0
H3361 H 0.42759 0.34536 0.31461 0.0
H3362 H 0.42125 0.31348 0.34013 0.0
H3363 H 0.40678 0.27529 0.34669 0.0
H3364 H 0.37943 0.23682 0.29124 0.0
H3365 H 0.38867 0.2675 0.2653 0.0
C3366 C 0.40614 0.30769 0.27671 0.0
C3367 C 0.41489 0.32818 0.28496 0.0
C3368 C 0.40223 0.28947 0.29121 0.0
C3369 C 0.42065 0.32986 0.30787 0.0
C3370 C 0.41701 0.31166 0.32244 0.0
C3371 C 0.40264 0.27362 0.32898 0.0
C3372 C 0.39204 0.25386 0.321 0.0
C3373 C 0.40749 0.29152 0.31432 0.0
C3374 C 0.38761 0.25175 0.29783 0.0
C3375 C 0.39272 0.26937 0.28304 0.0
H3376 H 0.72332 0.67244 0.61272 0.0
H3377 H 0.73185 0.69449 0.54384 0.0
H3378 H 0.70161 0.72199 0.54867 0.0
H3379 H 0.67489 0.74174 0.57325 0.0
H3380 H 0.66698 0.72062 0.64239 0.0
H3381 H 0.69475 0.69062 0.63664 0.0
C3382 C 0.71825 0.68291 0.59861 0.0
C3383 C 0.7299 0.68148 0.57797 0.0
C3384 C 0.7012 0.69907 0.60166 0.0
C3385 C 0.72323 0.69534 0.55994 0.0
C3386 C 0.70601 0.71114 0.56271 0.0
C3387 C 0.67935 0.73066 0.58709 0.0
C3388 C 0.66917 0.7336 0.6083 0.0
C3389 C 0.69534 0.71357 0.58367 0.0
C3390 C 0.67463 0.7187 0.62591 0.0
C3391 C 0.69052 0.70159 0.62264 0.0
H3392 H 0.6721 0.28404 0.36959 0.0
H3393 H 0.70349 0.22734 0.40264 0.0
H3394 H 0.73088 0.25258 0.42032 0.0
H3395 H 0.74624 0.29057 0.42583 0.0
H3396 H 0.71548 0.34723 0.39204 0.0
H3397 H 0.68706 0.32222 0.37565 0.0
C3398 C 0.68481 0.27722 0.38082 0.0
C3399 C 0.68573 0.2538 0.38478 0.0
C3400 C 0.70045 0.29184 0.39095 0.0
C3401 C 0.70258 0.24522 0.39905 0.0
C3402 C 0.71811 0.25967 0.40933 0.0
C3403 C 0.73311 0.29755 0.41519 0.0
C3404 C 0.73291 0.32079 0.41028 0.0
C3405 C 0.71721 0.283 0.40538 0.0
C3406 C 0.71599 0.32943 0.39611 0.0
C3407 C 0.6998 0.31512 0.38667 0.0
H3408 H 0.74607 0.68795 0.42635 0.0
H3409 H 0.71423 0.67048 0.36338 0.0
H3410 H 0.68242 0.69511 0.37218 0.0
H3411 H 0.66453 0.72276 0.39684 0.0
H3412 H 0.69622 0.74109 0.45981 0.0
H3413 H 0.72684 0.71454 0.45227 0.0
C3414 C 0.73221 0.68972 0.41457 0.0
C3415 C 0.73254 0.6776 0.39417 0.0
C3416 C 0.71381 0.70379 0.41987 0.0
C3417 C 0.71428 0.67963 0.37919 0.0
C3418 C 0.6961 0.69367 0.38423 0.0
C3419 C 0.6779 0.72075 0.40915 0.0
C3420 C 0.67806 0.73409 0.42881 0.0
C3421 C 0.69573 0.7059 0.40447 0.0
C3422 C 0.6956 0.7311 0.44452 0.0
C3423 C 0.71327 0.71605 0.44012 0.0
H3424 H 0.32948 0.73228 0.42015 0.0
H3425 H 0.31356 0.73434 0.3494 0.0
H3426 H 0.29031 0.70038 0.35326 0.0
H3427 H 0.27553 0.66971 0.37659 0.0
H3428 H 0.29219 0.66684 0.44741 0.0
H3429 H 0.31478 0.70114 0.44366 0.0
C3430 C 0.32049 0.72548 0.40579 0.0
C3431 C 0.32273 0.73591 0.38464 0.0
C3432 C 0.30781 0.70559 0.40806 0.0
C3433 C 0.31168 0.72665 0.36587 0.0
C3434 C 0.29861 0.7072 0.36805 0.0
C3435 C 0.28406 0.67658 0.39124 0.0
C3436 C 0.28204 0.66578 0.41227 0.0
C3437 C 0.29676 0.6964 0.38902 0.0
C3438 C 0.29356 0.67471 0.43098 0.0
C3439 C 0.3063 0.69446 0.42891 0.0
H3440 H 0.27882 0.3455 0.39133 0.0
H3441 H 0.25622 0.29871 0.34045 0.0
H3442 H 0.28835 0.27413 0.34835 0.0
H3443 H 0.32208 0.26557 0.37017 0.0
H3444 H 0.34389 0.31085 0.42286 0.0
H3445 H 0.31325 0.33687 0.41328 0.0
C3446 C 0.28111 0.33003 0.38185 0.0
C3447 C 0.26519 0.32386 0.36534 0.0
C3448 C 0.29948 0.31584 0.38673 0.0
C3449 C 0.26813 0.30364 0.35338 0.0
C3450 C 0.28653 0.28967 0.35782 0.0
C3451 C 0.3201 0.28102 0.37976 0.0
C3452 C 0.33507 0.28604 0.39749 0.0
C3453 C 0.30216 0.2955 0.37459 0.0
C3454 C 0.33257 0.30651 0.4092 0.0
C3455 C 0.31499 0.32134 0.40379 0.0
H3456 H 0.35192 0.2856 0.62507 0.0
H3457 H 0.2965 0.2383 0.62148 0.0
H3458 H 0.27189 0.26796 0.60783 0.0
H3459 H 0.26588 0.30707 0.59665 0.0
H3460 H 0.32105 0.35442 0.59877 0.0
H3461 H 0.34625 0.3246 0.61244 0.0
C3462 C 0.33458 0.28154 0.62109 0.0
C3463 C 0.32628 0.25948 0.62449 0.0
C3464 C 0.32048 0.29865 0.61273 0.0
C3465 C 0.30351 0.255 0.61948 0.0
C3466 C 0.28936 0.27197 0.61145 0.0
C3467 C 0.28341 0.31092 0.60018 0.0
C3468 C 0.29157 0.33295 0.59694 0.0
C3469 C 0.29766 0.29381 0.60804 0.0
C3470 C 0.31441 0.33756 0.60108 0.0
C3471 C 0.32875 0.32056 0.60902 0.0
H3472 H 0.72202 0.33356 0.63415 0.0
H3473 H 0.7627 0.32011 0.57548 0.0
H3474 H 0.73201 0.29759 0.55911 0.0
H3475 H 0.69315 0.28245 0.56149 0.0
H3476 H 0.65352 0.29524 0.62115 0.0
H3477 H 0.68401 0.31794 0.637 0.0
C3478 C 0.72414 0.32561 0.6178 0.0
C3479 C 0.74445 0.32845 0.60596 0.0
C3480 C 0.70647 0.31302 0.60857 0.0
C3481 C 0.74725 0.31788 0.58496 0.0
C3482 C 0.72964 0.30528 0.57553 0.0
C3483 C 0.69113 0.29059 0.57777 0.0
C3484 C 0.67105 0.28765 0.59002 0.0
C3485 C 0.70906 0.30298 0.58709 0.0
C3486 C 0.66877 0.29758 0.61138 0.0
C3487 C 0.68623 0.31039 0.62049 0.0
H3488 H 0.27561 0.6653 0.6276 0.0
H3489 H 0.21985 0.69508 0.59166 0.0
H3490 H 0.24561 0.72104 0.57269 0.0
H3491 H 0.28365 0.73574 0.56697 0.0
H3492 H 0.33947 0.70756 0.60425 0.0
H3493 H 0.31408 0.68001 0.62164 0.0
C3494 C 0.26916 0.67741 0.61553 0.0
C3495 C 0.24584 0.67833 0.61109 0.0
C3496 C 0.28409 0.69234 0.60476 0.0
C3497 C 0.23764 0.69428 0.59562 0.0
C3498 C 0.2524 0.70897 0.58462 0.0
C3499 C 0.29041 0.72334 0.5786 0.0
C3500 C 0.3135 0.72354 0.5841 0.0
C3501 C 0.27562 0.70816 0.58909 0.0
C3502 C 0.3218 0.70763 0.59958 0.0
C3503 C 0.30727 0.69199 0.60963 0.0
loop_
_geom_bond_atom_site_label_1
_geom_bond_atom_site_label_2
_geom_bond_distance
_geom_bond_site_symmetry_2
_ccdc_geom_bond_type
C0 C1 1.351 . S
C0 N3 1.368 . S
C0 H5 0.931 . S
C1 C0 1.351 . S
C1 N2 1.373 . S
C1 H29 0.930 . S
N2 C1 1.373 . S
N2 C4 1.340 . S
N3 C0 1.368 . S
N3 C4 1.321 . S
N3 Co6 2.135 . S
C4 N2 1.340 . S
C4 N3 1.321 . S
C4 H28 0.930 . S
H5 C0 0.931 . S
Co6 N3 2.135 . S
Co6 N9 2.121 . S
Co6 O14 2.055 . S
Co6 O17 2.039 . S
Co6 N20 2.140 . S
C7 O8 1.227 . S
C7 O17 1.265 . S
O8 C7 1.227 . S
N9 Co6 2.121 . S
N9 C11 1.375 . S
N9 C12 1.313 . S
C10 C11 1.338 . S
C10 N13 1.377 . S
C10 H30 0.930 . S
C11 N9 1.375 . S
C11 C10 1.338 . S
C11 H15 0.931 . S
C12 N9 1.313 . S
C12 N13 1.344 . S
C12 H16 0.930 . S
N13 C10 1.377 . S
N13 C12 1.344 . S
O14 Co6 2.055 . S
O14 C18 1.253 . S
H15 C11 0.931 . S
H16 C12 0.930 . S
O17 Co6 2.039 . S
O17 C7 1.265 . S
C18 O14 1.253 . S
C18 O19 1.227 . S
O19 C18 1.227 . S
N20 Co6 2.140 . S
N20 C23 1.346 . S
N20 C24 1.345 . S
C21 C22 1.387 . S
C21 C25 1.391 . S
C22 C21 1.387 . S
C22 C23 1.369 . S
C22 H31 0.929 . S
C23 N20 1.346 . S
C23 C22 1.369 . S
C23 H26 0.928 . S
C24 N20 1.345 . S
C24 C25 1.371 . S
C24 H27 0.931 . S
C25 C21 1.391 . S
C25 C24 1.371 . S
C25 H32 0.930 . S
H26 C23 0.928 . S
H27 C24 0.931 . S
H28 C4 0.930 . S
H29 C1 0.930 . S
H30 C10 0.930 . S
H31 C22 0.929 . S
H32 C25 0.930 . S
C33 C34 1.351 . S
C33 N36 1.368 . S
C33 H38 0.931 . S
C34 C33 1.351 . S
C34 N35 1.373 . S
C34 H62 0.930 . S
N35 C34 1.373 . S
N35 C37 1.340 . S
N36 C33 1.368 . S
N36 C37 1.321 . S
N36 Co39 2.135 . S
C37 N35 1.340 . S
C37 N36 1.321 . S
C37 H61 0.930 . S
H38 C33 0.931 . S
Co39 N36 2.135 . S
Co39 N42 2.121 . S
Co39 O47 2.055 . S
Co39 O50 2.039 . S
Co39 N53 2.140 . S
C40 O41 1.227 . S
C40 O50 1.265 . S
O41 C40 1.227 . S
N42 Co39 2.121 . S
N42 C44 1.375 . S
N42 C45 1.313 . S
C43 C44 1.338 . S
C43 N46 1.377 . S
C43 H63 0.930 . S
C44 N42 1.375 . S
C44 C43 1.338 . S
C44 H48 0.931 . S
C45 N42 1.313 . S
C45 N46 1.344 . S
C45 H49 0.930 . S
N46 C43 1.377 . S
N46 C45 1.344 . S
O47 Co39 2.055 . S
O47 C51 1.253 . S
H48 C44 0.931 . S
H49 C45 0.930 . S
O50 Co39 2.039 . S
O50 C40 1.265 . S
C51 O47 1.253 . S
C51 O52 1.227 . S
O52 C51 1.227 . S
N53 Co39 2.140 . S
N53 C56 1.346 . S
N53 C57 1.345 . S
C54 C55 1.387 . S
C54 C58 1.391 . S
C55 C54 1.387 . S
C55 C56 1.369 . S
C55 H64 0.929 . S
C56 N53 1.346 . S
C56 C55 1.369 . S
C56 H59 0.928 . S
C57 N53 1.345 . S
C57 C58 1.371 . S
C57 H60 0.931 . S
C58 C54 1.391 . S
C58 C57 1.371 . S
C58 H65 0.930 . S
H59 C56 0.928 . S
H60 C57 0.931 . S
H61 C37 0.930 . S
H62 C34 0.930 . S
H63 C43 0.930 . S
H64 C55 0.929 . S
H65 C58 0.930 . S
C66 C67 1.351 . S
C66 N69 1.368 . S
C66 H71 0.931 . S
C67 C66 1.351 . S
C67 N68 1.373 . S
C67 H95 0.930 . S
N68 C67 1.373 . S
N68 C70 1.340 . S
N69 C66 1.368 . S
N69 C70 1.321 . S
N69 Co72 2.135 . S
C70 N68 1.340 . S
C70 N69 1.321 . S
C70 H94 0.930 . S
H71 C66 0.931 . S
Co72 N69 2.135 . S
Co72 N75 2.121 . S
Co72 O80 2.055 . S
Co72 O83 2.039 . S
Co72 N86 2.140 . S
C73 O74 1.227 . S
C73 O83 1.265 . S
O74 C73 1.227 . S
N75 Co72 2.121 . S
N75 C77 1.375 . S
N75 C78 1.313 . S
C76 C77 1.338 . S
C76 N79 1.377 . S
C76 H96 0.930 . S
C77 N75 1.375 . S
C77 C76 1.338 . S
C77 H81 0.931 . S
C78 N75 1.313 . S
C78 N79 1.344 . S
C78 H82 0.930 . S
N79 C76 1.377 . S
N79 C78 1.344 . S
O80 Co72 2.055 . S
O80 C84 1.253 . S
H81 C77 0.931 . S
H82 C78 0.930 . S
O83 Co72 2.039 . S
O83 C73 1.265 . S
C84 O80 1.253 . S
C84 O85 1.227 . S
O85 C84 1.227 . S
N86 Co72 2.140 . S
N86 C89 1.346 . S
N86 C90 1.345 . S
C87 C88 1.387 . S
C87 C91 1.391 . S
C88 C87 1.387 . S
C88 C89 1.369 . S
C88 H97 0.929 . S
C89 N86 1.346 . S
C89 C88 1.369 . S
C89 H92 0.928 . S
C90 N86 1.345 . S
C90 C91 1.371 . S
C90 H93 0.931 . S
C91 C87 1.391 . S
C91 C90 1.371 . S
C91 H98 0.930 . S
H92 C89 0.928 . S
H93 C90 0.931 . S
H94 C70 0.930 . S
H95 C67 0.930 . S
H96 C76 0.930 . S
H97 C88 0.929 . S
H98 C91 0.930 . S
C99 C100 1.351 . S
C99 N102 1.368 . S
C99 H104 0.931 . S
C100 C99 1.351 . S
C100 N101 1.373 . S
C100 H128 0.930 . S
N101 C100 1.373 . S
N101 C103 1.340 . S
N102 C99 1.368 . S
N102 C103 1.321 . S
N102 Co105 2.135 . S
C103 N101 1.340 . S
C103 N102 1.321 . S
C103 H127 0.930 . S
H104 C99 0.931 . S
Co105 N102 2.135 . S
Co105 N108 2.121 . S
Co105 O113 2.055 . S
Co105 O116 2.039 . S
Co105 N119 2.140 . S
C106 O107 1.227 . S
C106 O116 1.265 . S
O107 C106 1.227 . S
N108 Co105 2.121 . S
N108 C110 1.375 . S
N108 C111 1.313 . S
C109 C110 1.338 . S
C109 N112 1.377 . S
C109 H129 0.930 . S
C110 N108 1.375 . S
C110 C109 1.338 . S
C110 H114 0.931 . S
C111 N108 1.313 . S
C111 N112 1.344 . S
C111 H115 0.930 . S
N112 C109 1.377 . S
N112 C111 1.344 . S
O113 Co105 2.055 . S
O113 C117 1.253 . S
H114 C110 0.931 . S
H115 C111 0.930 . S
O116 Co105 2.039 . S
O116 C106 1.265 . S
C117 O113 1.253 . S
C117 O118 1.227 . S
O118 C117 1.227 . S
N119 Co105 2.140 . S
N119 C122 1.346 . S
N119 C123 1.345 . S
C120 C121 1.387 . S
C120 C124 1.391 . S
C121 C120 1.387 . S
C121 C122 1.369 . S
C121 H130 0.929 . S
C122 N119 1.346 . S
C122 C121 1.369 . S
C122 H125 0.928 . S
C123 N119 1.345 . S
C123 C124 1.371 . S
C123 H126 0.931 . S
C124 C120 1.391 . S
C124 C123 1.371 . S
C124 H131 0.930 . S
H125 C122 0.928 . S
H126 C123 0.931 . S
H127 C103 0.930 . S
H128 C100 0.930 . S
H129 C109 0.930 . S
H130 C121 0.929 . S
H131 C124 0.930 . S
C132 C133 1.351 . S
C132 N135 1.368 . S
C132 H137 0.931 . S
C133 C132 1.351 . S
C133 N134 1.373 . S
C133 H161 0.930 . S
N134 C133 1.373 . S
N134 C136 1.340 . S
N135 C132 1.368 . S
N135 C136 1.321 . S
N135 Co138 2.135 . S
C136 N134 1.340 . S
C136 N135 1.321 . S
C136 H160 0.930 . S
H137 C132 0.931 . S
Co138 N135 2.135 . S
Co138 N141 2.121 . S
Co138 O146 2.055 . S
Co138 O149 2.039 . S
Co138 N152 2.140 . S
C139 O140 1.227 . S
C139 O149 1.265 . S
O140 C139 1.227 . S
N141 Co138 2.121 . S
N141 C143 1.375 . S
N141 C144 1.313 . S
C142 C143 1.338 . S
C142 N145 1.377 . S
C142 H162 0.930 . S
C143 N141 1.375 . S
C143 C142 1.338 . S
C143 H147 0.931 . S
C144 N141 1.313 . S
C144 N145 1.344 . S
C144 H148 0.930 . S
N145 C142 1.377 . S
N145 C144 1.344 . S
O146 Co138 2.055 . S
O146 C150 1.253 . S
H147 C143 0.931 . S
H148 C144 0.930 . S
O149 Co138 2.039 . S
O149 C139 1.265 . S
C150 O146 1.253 . S
C150 O151 1.227 . S
O151 C150 1.227 . S
N152 Co138 2.140 . S
N152 C155 1.346 . S
N152 C156 1.345 . S
C153 C154 1.387 . S
C153 C157 1.391 . S
C154 C153 1.387 . S
C154 C155 1.369 . S
C154 H163 0.929 . S
C155 N152 1.346 . S
C155 C154 1.369 . S
C155 H158 0.928 . S
C156 N152 1.345 . S
C156 C157 1.371 . S
C156 H159 0.931 . S
C157 C153 1.391 . S
C157 C156 1.371 . S
C157 H164 0.930 . S
H158 C155 0.928 . S
H159 C156 0.931 . S
H160 C136 0.930 . S
H161 C133 0.930 . S
H162 C142 0.930 . S
H163 C154 0.929 . S
H164 C157 0.930 . S
C165 C166 1.351 . S
C165 N168 1.368 . S
C165 H170 0.931 . S
C166 C165 1.351 . S
C166 N167 1.373 . S
C166 H194 0.930 . S
N167 C166 1.373 . S
N167 C169 1.340 . S
N168 C165 1.368 . S
N168 C169 1.321 . S
N168 Co171 2.135 . S
C169 N167 1.340 . S
C169 N168 1.321 . S
C169 H193 0.930 . S
H170 C165 0.931 . S
Co171 N168 2.135 . S
Co171 N174 2.121 . S
Co171 O179 2.055 . S
Co171 O182 2.039 . S
Co171 N185 2.140 . S
C172 O173 1.227 . S
C172 O182 1.265 . S
O173 C172 1.227 . S
N174 Co171 2.121 . S
N174 C176 1.375 . S
N174 C177 1.313 . S
C175 C176 1.338 . S
C175 N178 1.377 . S
C175 H195 0.930 . S
C176 N174 1.375 . S
C176 C175 1.338 . S
C176 H180 0.931 . S
C177 N174 1.313 . S
C177 N178 1.344 . S
C177 H181 0.930 . S
N178 C175 1.377 . S
N178 C177 1.344 . S
O179 Co171 2.055 . S
O179 C183 1.253 . S
H180 C176 0.931 . S
H181 C177 0.930 . S
O182 Co171 2.039 . S
O182 C172 1.265 . S
C183 O179 1.253 . S
C183 O184 1.227 . S
O184 C183 1.227 . S
N185 Co171 2.140 . S
N185 C188 1.346 . S
N185 C189 1.345 . S
C186 C187 1.387 . S
C186 C190 1.391 . S
C187 C186 1.387 . S
C187 C188 1.369 . S
C187 H196 0.929 . S
C188 N185 1.346 . S
C188 C187 1.369 . S
C188 H191 0.928 . S
C189 N185 1.345 . S
C189 C190 1.371 . S
C189 H192 0.931 . S
C190 C186 1.391 . S
C190 C189 1.371 . S
C190 H197 0.930 . S
H191 C188 0.928 . S
H192 C189 0.931 . S
H193 C169 0.930 . S
H194 C166 0.930 . S
H195 C175 0.930 . S
H196 C187 0.929 . S
H197 C190 0.930 . S
C198 C199 1.351 . S
C198 N201 1.368 . S
C198 H203 0.931 . S
C199 C198 1.351 . S
C199 N200 1.373 . S
C199 H227 0.930 . S
N200 C199 1.373 . S
N200 C202 1.340 . S
N201 C198 1.368 . S
N201 C202 1.321 . S
N201 Co204 2.135 . S
C202 N200 1.340 . S
C202 N201 1.321 . S
C202 H226 0.930 . S
H203 C198 0.931 . S
Co204 N201 2.135 . S
Co204 N207 2.121 . S
Co204 O212 2.055 . S
Co204 O215 2.039 . S
Co204 N218 2.140 . S
C205 O206 1.227 . S
C205 O215 1.265 . S
O206 C205 1.227 . S
N207 Co204 2.121 . S
N207 C209 1.375 . S
N207 C210 1.313 . S
C208 C209 1.338 . S
C208 N211 1.377 . S
C208 H228 0.930 . S
C209 N207 1.375 . S
C209 C208 1.338 . S
C209 H213 0.931 . S
C210 N207 1.313 . S
C210 N211 1.344 . S
C210 H214 0.930 . S
N211 C208 1.377 . S
N211 C210 1.344 . S
O212 Co204 2.055 . S
O212 C216 1.253 . S
H213 C209 0.931 . S
H214 C210 0.930 . S
O215 Co204 2.039 . S
O215 C205 1.265 . S
C216 O212 1.253 . S
C216 O217 1.227 . S
O217 C216 1.227 . S
N218 Co204 2.140 . S
N218 C221 1.346 . S
N218 C222 1.345 . S
C219 C220 1.387 . S
C219 C223 1.391 . S
C220 C219 1.387 . S
C220 C221 1.369 . S
C220 H229 0.929 . S
C221 N218 1.346 . S
C221 C220 1.369 . S
C221 H224 0.928 . S
C222 N218 1.345 . S
C222 C223 1.371 . S
C222 H225 0.931 . S
C223 C219 1.391 . S
C223 C222 1.371 . S
C223 H230 0.930 . S
H224 C221 0.928 . S
H225 C222 0.931 . S
H226 C202 0.930 . S
H227 C199 0.930 . S
H228 C208 0.930 . S
H229 C220 0.929 . S
H230 C223 0.930 . S
C231 C232 1.351 . S
C231 N234 1.368 . S
C231 H236 0.931 . S
C232 C231 1.351 . S
C232 N233 1.373 . S
C232 H260 0.930 . S
N233 C232 1.373 . S
N233 C235 1.340 . S
N234 C231 1.368 . S
N234 C235 1.321 . S
N234 Co237 2.135 . S
C235 N233 1.340 . S
C235 N234 1.321 . S
C235 H259 0.930 . S
H236 C231 0.931 . S
Co237 N234 2.135 . S
Co237 N240 2.121 . S
Co237 O245 2.055 . S
Co237 O248 2.039 . S
Co237 N251 2.140 . S
C238 O239 1.227 . S
C238 O248 1.265 . S
O239 C238 1.227 . S
N240 Co237 2.121 . S
N240 C242 1.375 . S
N240 C243 1.313 . S
C241 C242 1.338 . S
C241 N244 1.377 . S
C241 H261 0.930 . S
C242 N240 1.375 . S
C242 C241 1.338 . S
C242 H246 0.931 . S
C243 N240 1.313 . S
C243 N244 1.344 . S
C243 H247 0.930 . S
N244 C241 1.377 . S
N244 C243 1.344 . S
O245 Co237 2.055 . S
O245 C249 1.253 . S
H246 C242 0.931 . S
H247 C243 0.930 . S
O248 Co237 2.039 . S
O248 C238 1.265 . S
C249 O245 1.253 . S
C249 O250 1.227 . S
O250 C249 1.227 . S
N251 Co237 2.140 . S
N251 C254 1.346 . S
N251 C255 1.345 . S
C252 C253 1.387 . S
C252 C256 1.391 . S
C253 C252 1.387 . S
C253 C254 1.369 . S
C253 H262 0.929 . S
C254 N251 1.346 . S
C254 C253 1.369 . S
C254 H257 0.928 . S
C255 N251 1.345 . S
C255 C256 1.371 . S
C255 H258 0.931 . S
C256 C252 1.391 . S
C256 C255 1.371 . S
C256 H263 0.930 . S
H257 C254 0.928 . S
H258 C255 0.931 . S
H259 C235 0.930 . S
H260 C232 0.930 . S
H261 C241 0.930 . S
H262 C253 0.929 . S
H263 C256 0.930 . S
C264 C265 1.351 . S
C264 N267 1.368 . S
C264 H269 0.931 . S
C265 C264 1.351 . S
C265 N266 1.373 . S
C265 H293 0.930 . S
N266 C265 1.373 . S
N266 C268 1.340 . S
N267 C264 1.368 . S
N267 C268 1.321 . S
N267 Co270 2.135 . S
C268 N266 1.340 . S
C268 N267 1.321 . S
C268 H292 0.930 . S
H269 C264 0.931 . S
Co270 N267 2.135 . S
Co270 N273 2.121 . S
Co270 O278 2.055 . S
Co270 O281 2.039 . S
Co270 N284 2.140 . S
C271 O272 1.227 . S
C271 O281 1.265 . S
O272 C271 1.227 . S
N273 Co270 2.121 . S
N273 C275 1.375 . S
N273 C276 1.313 . S
C274 C275 1.338 . S
C274 N277 1.377 . S
C274 H294 0.930 . S
C275 N273 1.375 . S
C275 C274 1.338 . S
C275 H279 0.931 . S
C276 N273 1.313 . S
C276 N277 1.344 . S
C276 H280 0.930 . S
N277 C274 1.377 . S
N277 C276 1.344 . S
O278 Co270 2.055 . S
O278 C282 1.253 . S
H279 C275 0.931 . S
H280 C276 0.930 . S
O281 Co270 2.039 . S
O281 C271 1.265 . S
C282 O278 1.253 . S
C282 O283 1.227 . S
O283 C282 1.227 . S
N284 Co270 2.140 . S
N284 C287 1.346 . S
N284 C288 1.345 . S
C285 C286 1.387 . S
C285 C289 1.391 . S
C286 C285 1.387 . S
C286 C287 1.369 . S
C286 H295 0.929 . S
C287 N284 1.346 . S
C287 C286 1.369 . S
C287 H290 0.928 . S
C288 N284 1.345 . S
C288 C289 1.371 . S
C288 H291 0.931 . S
C289 C285 1.391 . S
C289 C288 1.371 . S
C289 H296 0.930 . S
H290 C287 0.928 . S
H291 C288 0.931 . S
H292 C268 0.930 . S
H293 C265 0.930 . S
H294 C274 0.930 . S
H295 C286 0.929 . S
H296 C289 0.930 . S
C297 C298 1.351 . S
C297 N300 1.368 . S
C297 H302 0.931 . S
C298 C297 1.351 . S
C298 N299 1.373 . S
C298 H326 0.930 . S
N299 C298 1.373 . S
N299 C301 1.340 . S
N300 C297 1.368 . S
N300 C301 1.321 . S
N300 Co303 2.135 . S
C301 N299 1.340 . S
C301 N300 1.321 . S
C301 H325 0.930 . S
H302 C297 0.931 . S
Co303 N300 2.135 . S
Co303 N306 2.121 . S
Co303 O311 2.055 . S
Co303 O314 2.039 . S
Co303 N317 2.140 . S
C304 O305 1.227 . S
C304 O314 1.265 . S
O305 C304 1.227 . S
N306 Co303 2.121 . S
N306 C308 1.375 . S
N306 C309 1.313 . S
C307 C308 1.338 . S
C307 N310 1.377 . S
C307 H327 0.930 . S
C308 N306 1.375 . S
C308 C307 1.338 . S
C308 H312 0.931 . S
C309 N306 1.313 . S
C309 N310 1.344 . S
C309 H313 0.930 . S
N310 C307 1.377 . S
N310 C309 1.344 . S
O311 Co303 2.055 . S
O311 C315 1.253 . S
H312 C308 0.931 . S
H313 C309 0.930 . S
O314 Co303 2.039 . S
O314 C304 1.265 . S
C315 O311 1.253 . S
C315 O316 1.227 . S
O316 C315 1.227 . S
N317 Co303 2.140 . S
N317 C320 1.346 . S
N317 C321 1.345 . S
C318 C319 1.387 . S
C318 C322 1.391 . S
C319 C318 1.387 . S
C319 C320 1.369 . S
C319 H328 0.929 . S
C320 N317 1.346 . S
C320 C319 1.369 . S
C320 H323 0.928 . S
C321 N317 1.345 . S
C321 C322 1.371 . S
C321 H324 0.931 . S
C322 C318 1.391 . S
C322 C321 1.371 . S
C322 H329 0.930 . S
H323 C320 0.928 . S
H324 C321 0.931 . S
H325 C301 0.930 . S
H326 C298 0.930 . S
H327 C307 0.930 . S
H328 C319 0.929 . S
H329 C322 0.930 . S
C330 C331 1.351 . S
C330 N333 1.368 . S
C330 H335 0.931 . S
C331 C330 1.351 . S
C331 N332 1.373 . S
C331 H359 0.930 . S
N332 C331 1.373 . S
N332 C334 1.340 . S
N333 C330 1.368 . S
N333 C334 1.321 . S
N333 Co336 2.135 . S
C334 N332 1.340 . S
C334 N333 1.321 . S
C334 H358 0.930 . S
H335 C330 0.931 . S
Co336 N333 2.135 . S
Co336 N339 2.121 . S
Co336 O344 2.055 . S
Co336 O347 2.039 . S
Co336 N350 2.140 . S
C337 O338 1.227 . S
C337 O347 1.265 . S
O338 C337 1.227 . S
N339 Co336 2.121 . S
N339 C341 1.375 . S
N339 C342 1.313 . S
C340 C341 1.338 . S
C340 N343 1.377 . S
C340 H360 0.930 . S
C341 N339 1.375 . S
C341 C340 1.338 . S
C341 H345 0.931 . S
C342 N339 1.313 . S
C342 N343 1.344 . S
C342 H346 0.930 . S
N343 C340 1.377 . S
N343 C342 1.344 . S
O344 Co336 2.055 . S
O344 C348 1.253 . S
H345 C341 0.931 . S
H346 C342 0.930 . S
O347 Co336 2.039 . S
O347 C337 1.265 . S
C348 O344 1.253 . S
C348 O349 1.227 . S
O349 C348 1.227 . S
N350 Co336 2.140 . S
N350 C353 1.346 . S
N350 C354 1.345 . S
C351 C352 1.387 . S
C351 C355 1.391 . S
C352 C351 1.387 . S
C352 C353 1.369 . S
C352 H361 0.929 . S
C353 N350 1.346 . S
C353 C352 1.369 . S
C353 H356 0.928 . S
C354 N350 1.345 . S
C354 C355 1.371 . S
C354 H357 0.931 . S
C355 C351 1.391 . S
C355 C354 1.371 . S
C355 H362 0.930 . S
H356 C353 0.928 . S
H357 C354 0.931 . S
H358 C334 0.930 . S
H359 C331 0.930 . S
H360 C340 0.930 . S
H361 C352 0.929 . S
H362 C355 0.930 . S
C363 C364 1.351 . S
C363 N366 1.368 . S
C363 H368 0.931 . S
C364 C363 1.351 . S
C364 N365 1.373 . S
C364 H392 0.930 . S
N365 C364 1.373 . S
N365 C367 1.340 . S
N366 C363 1.368 . S
N366 C367 1.321 . S
N366 Co369 2.135 . S
C367 N365 1.340 . S
C367 N366 1.321 . S
C367 H391 0.930 . S
H368 C363 0.931 . S
Co369 N366 2.135 . S
Co369 N372 2.121 . S
Co369 O377 2.055 . S
Co369 O380 2.039 . S
Co369 N383 2.140 . S
C370 O371 1.227 . S
C370 O380 1.265 . S
O371 C370 1.227 . S
N372 Co369 2.121 . S
N372 C374 1.375 . S
N372 C375 1.313 . S
C373 C374 1.338 . S
C373 N376 1.377 . S
C373 H393 0.930 . S
C374 N372 1.375 . S
C374 C373 1.338 . S
C374 H378 0.931 . S
C375 N372 1.313 . S
C375 N376 1.344 . S
C375 H379 0.930 . S
N376 C373 1.377 . S
N376 C375 1.344 . S
O377 Co369 2.055 . S
O377 C381 1.253 . S
H378 C374 0.931 . S
H379 C375 0.930 . S
O380 Co369 2.039 . S
O380 C370 1.265 . S
C381 O377 1.253 . S
C381 O382 1.227 . S
O382 C381 1.227 . S
N383 Co369 2.140 . S
N383 C386 1.346 . S
N383 C387 1.345 . S
C384 C385 1.387 . S
C384 C388 1.391 . S
C385 C384 1.387 . S
C385 C386 1.369 . S
C385 H394 0.929 . S
C386 N383 1.346 . S
C386 C385 1.369 . S
C386 H389 0.928 . S
C387 N383 1.345 . S
C387 C388 1.371 . S
C387 H390 0.931 . S
C388 C384 1.391 . S
C388 C387 1.371 . S
C388 H395 0.930 . S
H389 C386 0.928 . S
H390 C387 0.931 . S
H391 C367 0.930 . S
H392 C364 0.930 . S
H393 C373 0.930 . S
H394 C385 0.929 . S
H395 C388 0.930 . S
C396 C397 1.351 . S
C396 N399 1.368 . S
C396 H401 0.931 . S
C397 C396 1.351 . S
C397 N398 1.373 . S
C397 H425 0.930 . S
N398 C397 1.373 . S
N398 C400 1.340 . S
N399 C396 1.368 . S
N399 C400 1.321 . S
N399 Co402 2.135 . S
C400 N398 1.340 . S
C400 N399 1.321 . S
C400 H424 0.930 . S
H401 C396 0.931 . S
Co402 N399 2.135 . S
Co402 N405 2.121 . S
Co402 O410 2.055 . S
Co402 O413 2.039 . S
Co402 N416 2.140 . S
C403 O404 1.227 . S
C403 O413 1.265 . S
O404 C403 1.227 . S
N405 Co402 2.121 . S
N405 C407 1.375 . S
N405 C408 1.313 . S
C406 C407 1.338 . S
C406 N409 1.377 . S
C406 H426 0.930 . S
C407 N405 1.375 . S
C407 C406 1.338 . S
C407 H411 0.931 . S
C408 N405 1.313 . S
C408 N409 1.344 . S
C408 H412 0.930 . S
N409 C406 1.377 . S
N409 C408 1.344 . S
O410 Co402 2.055 . S
O410 C414 1.253 . S
H411 C407 0.931 . S
H412 C408 0.930 . S
O413 Co402 2.039 . S
O413 C403 1.265 . S
C414 O410 1.253 . S
C414 O415 1.227 . S
O415 C414 1.227 . S
N416 Co402 2.140 . S
N416 C419 1.346 . S
N416 C420 1.345 . S
C417 C418 1.387 . S
C417 C421 1.391 . S
C418 C417 1.387 . S
C418 C419 1.369 . S
C418 H427 0.929 . S
C419 N416 1.346 . S
C419 C418 1.369 . S
C419 H422 0.928 . S
C420 N416 1.345 . S
C420 C421 1.371 . S
C420 H423 0.931 . S
C421 C417 1.391 . S
C421 C420 1.371 . S
C421 H428 0.930 . S
H422 C419 0.928 . S
H423 C420 0.931 . S
H424 C400 0.930 . S
H425 C397 0.930 . S
H426 C406 0.930 . S
H427 C418 0.929 . S
H428 C421 0.930 . S
C429 C430 1.351 . S
C429 N432 1.368 . S
C429 H434 0.931 . S
C430 C429 1.351 . S
C430 N431 1.373 . S
C430 H458 0.930 . S
N431 C430 1.373 . S
N431 C433 1.340 . S
N432 C429 1.368 . S
N432 C433 1.321 . S
N432 Co435 2.135 . S
C433 N431 1.340 . S
C433 N432 1.321 . S
C433 H457 0.930 . S
H434 C429 0.931 . S
Co435 N432 2.135 . S
Co435 N438 2.121 . S
Co435 O443 2.055 . S
Co435 O446 2.039 . S
Co435 N449 2.140 . S
C436 O437 1.227 . S
C436 O446 1.265 . S
O437 C436 1.227 . S
N438 Co435 2.121 . S
N438 C440 1.375 . S
N438 C441 1.313 . S
C439 C440 1.338 . S
C439 N442 1.377 . S
C439 H459 0.930 . S
C440 N438 1.375 . S
C440 C439 1.338 . S
C440 H444 0.931 . S
C441 N438 1.313 . S
C441 N442 1.344 . S
C441 H445 0.930 . S
N442 C439 1.377 . S
N442 C441 1.344 . S
O443 Co435 2.055 . S
O443 C447 1.253 . S
H444 C440 0.931 . S
H445 C441 0.930 . S
O446 Co435 2.039 . S
O446 C436 1.265 . S
C447 O443 1.253 . S
C447 O448 1.227 . S
O448 C447 1.227 . S
N449 Co435 2.140 . S
N449 C452 1.346 . S
N449 C453 1.345 . S
C450 C451 1.387 . S
C450 C454 1.391 . S
C451 C450 1.387 . S
C451 C452 1.369 . S
C451 H460 0.929 . S
C452 N449 1.346 . S
C452 C451 1.369 . S
C452 H455 0.928 . S
C453 N449 1.345 . S
C453 C454 1.371 . S
C453 H456 0.931 . S
C454 C450 1.391 . S
C454 C453 1.371 . S
C454 H461 0.930 . S
H455 C452 0.928 . S
H456 C453 0.931 . S
H457 C433 0.930 . S
H458 C430 0.930 . S
H459 C439 0.930 . S
H460 C451 0.929 . S
H461 C454 0.930 . S
C462 C463 1.351 . S
C462 N465 1.368 . S
C462 H467 0.931 . S
C463 C462 1.351 . S
C463 N464 1.373 . S
C463 H491 0.930 . S
N464 C463 1.373 . S
N464 C466 1.340 . S
N465 C462 1.368 . S
N465 C466 1.321 . S
N465 Co468 2.135 . S
C466 N464 1.340 . S
C466 N465 1.321 . S
C466 H490 0.930 . S
H467 C462 0.931 . S
Co468 N465 2.135 . S
Co468 N471 2.121 . S
Co468 O476 2.055 . S
Co468 O479 2.039 . S
Co468 N482 2.140 . S
C469 O470 1.227 . S
C469 O479 1.265 . S
O470 C469 1.227 . S
N471 Co468 2.121 . S
N471 C473 1.375 . S
N471 C474 1.313 . S
C472 C473 1.338 . S
C472 N475 1.377 . S
C472 H492 0.930 . S
C473 N471 1.375 . S
C473 C472 1.338 . S
C473 H477 0.931 . S
C474 N471 1.313 . S
C474 N475 1.344 . S
C474 H478 0.930 . S
N475 C472 1.377 . S
N475 C474 1.344 . S
O476 Co468 2.055 . S
O476 C480 1.253 . S
H477 C473 0.931 . S
H478 C474 0.930 . S
O479 Co468 2.039 . S
O479 C469 1.265 . S
C480 O476 1.253 . S
C480 O481 1.227 . S
O481 C480 1.227 . S
N482 Co468 2.140 . S
N482 C485 1.346 . S
N482 C486 1.345 . S
C483 C484 1.387 . S
C483 C487 1.391 . S
C484 C483 1.387 . S
C484 C485 1.369 . S
C484 H493 0.929 . S
C485 N482 1.346 . S
C485 C484 1.369 . S
C485 H488 0.928 . S
C486 N482 1.345 . S
C486 C487 1.371 . S
C486 H489 0.931 . S
C487 C483 1.391 . S
C487 C486 1.371 . S
C487 H494 0.930 . S
H488 C485 0.928 . S
H489 C486 0.931 . S
H490 C466 0.930 . S
H491 C463 0.930 . S
H492 C472 0.930 . S
H493 C484 0.929 . S
H494 C487 0.930 . S
C495 C496 1.351 . S
C495 N498 1.368 . S
C495 H500 0.931 . S
C496 C495 1.351 . S
C496 N497 1.373 . S
C496 H524 0.930 . S
N497 C496 1.373 . S
N497 C499 1.340 . S
N498 C495 1.368 . S
N498 C499 1.321 . S
N498 Co501 2.135 . S
C499 N497 1.340 . S
C499 N498 1.321 . S
C499 H523 0.930 . S
H500 C495 0.931 . S
Co501 N498 2.135 . S
Co501 N504 2.121 . S
Co501 O509 2.055 . S
Co501 O512 2.039 . S
Co501 N515 2.140 . S
C502 O503 1.227 . S
C502 O512 1.265 . S
O503 C502 1.227 . S
N504 Co501 2.121 . S
N504 C506 1.375 . S
N504 C507 1.313 . S
C505 C506 1.338 . S
C505 N508 1.377 . S
C505 H525 0.930 . S
C506 N504 1.375 . S
C506 C505 1.338 . S
C506 H510 0.931 . S
C507 N504 1.313 . S
C507 N508 1.344 . S
C507 H511 0.930 . S
N508 C505 1.377 . S
N508 C507 1.344 . S
O509 Co501 2.055 . S
O509 C513 1.253 . S
H510 C506 0.931 . S
H511 C507 0.930 . S
O512 Co501 2.039 . S
O512 C502 1.265 . S
C513 O509 1.253 . S
C513 O514 1.227 . S
O514 C513 1.227 . S
N515 Co501 2.140 . S
N515 C518 1.346 . S
N515 C519 1.345 . S
C516 C517 1.387 . S
C516 C520 1.391 . S
C517 C516 1.387 . S
C517 C518 1.369 . S
C517 H526 0.929 . S
C518 N515 1.346 . S
C518 C517 1.369 . S
C518 H521 0.928 . S
C519 N515 1.345 . S
C519 C520 1.371 . S
C519 H522 0.931 . S
C520 C516 1.391 . S
C520 C519 1.371 . S
C520 H527 0.930 . S
H521 C518 0.928 . S
H522 C519 0.931 . S
H523 C499 0.930 . S
H524 C496 0.930 . S
H525 C505 0.930 . S
H526 C517 0.929 . S
H527 C520 0.930 . S
C528 C529 1.351 . S
C528 N531 1.368 . S
C528 H533 0.931 . S
C529 C528 1.351 . S
C529 N530 1.373 . S
C529 H557 0.930 . S
N530 C529 1.373 . S
N530 C532 1.340 . S
N531 C528 1.368 . S
N531 C532 1.321 . S
N531 Co534 2.135 . S
C532 N530 1.340 . S
C532 N531 1.321 . S
C532 H556 0.930 . S
H533 C528 0.931 . S
Co534 N531 2.135 . S
Co534 N537 2.121 . S
Co534 O542 2.055 . S
Co534 O545 2.039 . S
Co534 N548 2.140 . S
C535 O536 1.227 . S
C535 O545 1.265 . S
O536 C535 1.227 . S
N537 Co534 2.121 . S
N537 C539 1.375 . S
N537 C540 1.313 . S
C538 C539 1.338 . S
C538 N541 1.377 . S
C538 H558 0.930 . S
C539 N537 1.375 . S
C539 C538 1.338 . S
C539 H543 0.931 . S
C540 N537 1.313 . S
C540 N541 1.344 . S
C540 H544 0.930 . S
N541 C538 1.377 . S
N541 C540 1.344 . S
O542 Co534 2.055 . S
O542 C546 1.253 . S
H543 C539 0.931 . S
H544 C540 0.930 . S
O545 Co534 2.039 . S
O545 C535 1.265 . S
C546 O542 1.253 . S
C546 O547 1.227 . S
O547 C546 1.227 . S
N548 Co534 2.140 . S
N548 C551 1.346 . S
N548 C552 1.345 . S
C549 C550 1.387 . S
C549 C553 1.391 . S
C550 C549 1.387 . S
C550 C551 1.369 . S
C550 H559 0.929 . S
C551 N548 1.346 . S
C551 C550 1.369 . S
C551 H554 0.928 . S
C552 N548 1.345 . S
C552 C553 1.371 . S
C552 H555 0.931 . S
C553 C549 1.391 . S
C553 C552 1.371 . S
C553 H560 0.930 . S
H554 C551 0.928 . S
H555 C552 0.931 . S
H556 C532 0.930 . S
H557 C529 0.930 . S
H558 C538 0.930 . S
H559 C550 0.929 . S
H560 C553 0.930 . S
C561 C562 1.351 . S
C561 N564 1.368 . S
C561 H566 0.931 . S
C562 C561 1.351 . S
C562 N563 1.373 . S
C562 H590 0.930 . S
N563 C562 1.373 . S
N563 C565 1.340 . S
N564 C561 1.368 . S
N564 C565 1.321 . S
N564 Co567 2.135 . S
C565 N563 1.340 . S
C565 N564 1.321 . S
C565 H589 0.930 . S
H566 C561 0.931 . S
Co567 N564 2.135 . S
Co567 N570 2.121 . S
Co567 O575 2.055 . S
Co567 O578 2.039 . S
Co567 N581 2.140 . S
C568 O569 1.227 . S
C568 O578 1.265 . S
O569 C568 1.227 . S
N570 Co567 2.121 . S
N570 C572 1.375 . S
N570 C573 1.313 . S
C571 C572 1.338 . S
C571 N574 1.377 . S
C571 H591 0.930 . S
C572 N570 1.375 . S
C572 C571 1.338 . S
C572 H576 0.931 . S
C573 N570 1.313 . S
C573 N574 1.344 . S
C573 H577 0.930 . S
N574 C571 1.377 . S
N574 C573 1.344 . S
O575 Co567 2.055 . S
O575 C579 1.253 . S
H576 C572 0.931 . S
H577 C573 0.930 . S
O578 Co567 2.039 . S
O578 C568 1.265 . S
C579 O575 1.253 . S
C579 O580 1.227 . S
O580 C579 1.227 . S
N581 Co567 2.140 . S
N581 C584 1.346 . S
N581 C585 1.345 . S
C582 C583 1.387 . S
C582 C586 1.391 . S
C583 C582 1.387 . S
C583 C584 1.369 . S
C583 H592 0.929 . S
C584 N581 1.346 . S
C584 C583 1.369 . S
C584 H587 0.928 . S
C585 N581 1.345 . S
C585 C586 1.371 . S
C585 H588 0.931 . S
C586 C582 1.391 . S
C586 C585 1.371 . S
C586 H593 0.930 . S
H587 C584 0.928 . S
H588 C585 0.931 . S
H589 C565 0.930 . S
H590 C562 0.930 . S
H591 C571 0.930 . S
H592 C583 0.929 . S
H593 C586 0.930 . S
C594 C595 1.351 . S
C594 N597 1.368 . S
C594 H599 0.931 . S
C595 C594 1.351 . S
C595 N596 1.373 . S
C595 H623 0.930 . S
N596 C595 1.373 . S
N596 C598 1.340 . S
N597 C594 1.368 . S
N597 C598 1.321 . S
N597 Co600 2.135 . S
C598 N596 1.340 . S
C598 N597 1.321 . S
C598 H622 0.930 . S
H599 C594 0.931 . S
Co600 N597 2.135 . S
Co600 N603 2.121 . S
Co600 O608 2.055 . S
Co600 O611 2.039 . S
Co600 N614 2.140 . S
C601 O602 1.227 . S
C601 O611 1.265 . S
O602 C601 1.227 . S
N603 Co600 2.121 . S
N603 C605 1.375 . S
N603 C606 1.313 . S
C604 C605 1.338 . S
C604 N607 1.377 . S
C604 H624 0.930 . S
C605 N603 1.375 . S
C605 C604 1.338 . S
C605 H609 0.931 . S
C606 N603 1.313 . S
C606 N607 1.344 . S
C606 H610 0.930 . S
N607 C604 1.377 . S
N607 C606 1.344 . S
O608 Co600 2.055 . S
O608 C612 1.253 . S
H609 C605 0.931 . S
H610 C606 0.930 . S
O611 Co600 2.039 . S
O611 C601 1.265 . S
C612 O608 1.253 . S
C612 O613 1.227 . S
O613 C612 1.227 . S
N614 Co600 2.140 . S
N614 C617 1.346 . S
N614 C618 1.345 . S
C615 C616 1.387 . S
C615 C619 1.391 . S
C616 C615 1.387 . S
C616 C617 1.369 . S
C616 H625 0.929 . S
C617 N614 1.346 . S
C617 C616 1.369 . S
C617 H620 0.928 . S
C618 N614 1.345 . S
C618 C619 1.371 . S
C618 H621 0.931 . S
C619 C615 1.391 . S
C619 C618 1.371 . S
C619 H626 0.930 . S
H620 C617 0.928 . S
H621 C618 0.931 . S
H622 C598 0.930 . S
H623 C595 0.930 . S
H624 C604 0.930 . S
H625 C616 0.929 . S
H626 C619 0.930 . S
C627 C628 1.351 . S
C627 N630 1.368 . S
C627 H632 0.931 . S
C628 C627 1.351 . S
C628 N629 1.373 . S
C628 H656 0.930 . S
N629 C628 1.373 . S
N629 C631 1.340 . S
N630 C627 1.368 . S
N630 C631 1.321 . S
N630 Co633 2.135 . S
C631 N629 1.340 . S
C631 N630 1.321 . S
C631 H655 0.930 . S
H632 C627 0.931 . S
Co633 N630 2.135 . S
Co633 N636 2.121 . S
Co633 O641 2.055 . S
Co633 O644 2.039 . S
Co633 N647 2.140 . S
C634 O635 1.227 . S
C634 O644 1.265 . S
O635 C634 1.227 . S
N636 Co633 2.121 . S
N636 C638 1.375 . S
N636 C639 1.313 . S
C637 C638 1.338 . S
C637 N640 1.377 . S
C637 H657 0.930 . S
C638 N636 1.375 . S
C638 C637 1.338 . S
C638 H642 0.931 . S
C639 N636 1.313 . S
C639 N640 1.344 . S
C639 H643 0.930 . S
N640 C637 1.377 . S
N640 C639 1.344 . S
O641 Co633 2.055 . S
O641 C645 1.253 . S
H642 C638 0.931 . S
H643 C639 0.930 . S
O644 Co633 2.039 . S
O644 C634 1.265 . S
C645 O641 1.253 . S
C645 O646 1.227 . S
O646 C645 1.227 . S
N647 Co633 2.140 . S
N647 C650 1.346 . S
N647 C651 1.345 . S
C648 C649 1.387 . S
C648 C652 1.391 . S
C649 C648 1.387 . S
C649 C650 1.369 . S
C649 H658 0.929 . S
C650 N647 1.346 . S
C650 C649 1.369 . S
C650 H653 0.928 . S
C651 N647 1.345 . S
C651 C652 1.371 . S
C651 H654 0.931 . S
C652 C648 1.391 . S
C652 C651 1.371 . S
C652 H659 0.930 . S
H653 C650 0.928 . S
H654 C651 0.931 . S
H655 C631 0.930 . S
H656 C628 0.930 . S
H657 C637 0.930 . S
H658 C649 0.929 . S
H659 C652 0.930 . S
C660 C661 1.351 . S
C660 N663 1.368 . S
C660 H665 0.931 . S
C661 C660 1.351 . S
C661 N662 1.373 . S
C661 H689 0.930 . S
N662 C661 1.373 . S
N662 C664 1.340 . S
N663 C660 1.368 . S
N663 C664 1.321 . S
N663 Co666 2.135 . S
C664 N662 1.340 . S
C664 N663 1.321 . S
C664 H688 0.930 . S
H665 C660 0.931 . S
Co666 N663 2.135 . S
Co666 N669 2.121 . S
Co666 O674 2.055 . S
Co666 O677 2.039 . S
Co666 N680 2.140 . S
C667 O668 1.227 . S
C667 O677 1.265 . S
O668 C667 1.227 . S
N669 Co666 2.121 . S
N669 C671 1.375 . S
N669 C672 1.313 . S
C670 C671 1.338 . S
C670 N673 1.377 . S
C670 H690 0.930 . S
C671 N669 1.375 . S
C671 C670 1.338 . S
C671 H675 0.931 . S
C672 N669 1.313 . S
C672 N673 1.344 . S
C672 H676 0.930 . S
N673 C670 1.377 . S
N673 C672 1.344 . S
O674 Co666 2.055 . S
O674 C678 1.253 . S
H675 C671 0.931 . S
H676 C672 0.930 . S
O677 Co666 2.039 . S
O677 C667 1.265 . S
C678 O674 1.253 . S
C678 O679 1.227 . S
O679 C678 1.227 . S
N680 Co666 2.140 . S
N680 C683 1.346 . S
N680 C684 1.345 . S
C681 C682 1.387 . S
C681 C685 1.391 . S
C682 C681 1.387 . S
C682 C683 1.369 . S
C682 H691 0.929 . S
C683 N680 1.346 . S
C683 C682 1.369 . S
C683 H686 0.928 . S
C684 N680 1.345 . S
C684 C685 1.371 . S
C684 H687 0.931 . S
C685 C681 1.391 . S
C685 C684 1.371 . S
C685 H692 0.930 . S
H686 C683 0.928 . S
H687 C684 0.931 . S
H688 C664 0.930 . S
H689 C661 0.930 . S
H690 C670 0.930 . S
H691 C682 0.929 . S
H692 C685 0.930 . S
C693 C694 1.351 . S
C693 N696 1.368 . S
C693 H698 0.931 . S
C694 C693 1.351 . S
C694 N695 1.373 . S
C694 H722 0.930 . S
N695 C694 1.373 . S
N695 C697 1.340 . S
N696 C693 1.368 . S
N696 C697 1.321 . S
N696 Co699 2.135 . S
C697 N695 1.340 . S
C697 N696 1.321 . S
C697 H721 0.930 . S
H698 C693 0.931 . S
Co699 N696 2.135 . S
Co699 N702 2.121 . S
Co699 O707 2.055 . S
Co699 O710 2.039 . S
Co699 N713 2.140 . S
C700 O701 1.227 . S
C700 O710 1.265 . S
O701 C700 1.227 . S
N702 Co699 2.121 . S
N702 C704 1.375 . S
N702 C705 1.313 . S
C703 C704 1.338 . S
C703 N706 1.377 . S
C703 H723 0.930 . S
C704 N702 1.375 . S
C704 C703 1.338 . S
C704 H708 0.931 . S
C705 N702 1.313 . S
C705 N706 1.344 . S
C705 H709 0.930 . S
N706 C703 1.377 . S
N706 C705 1.344 . S
O707 Co699 2.055 . S
O707 C711 1.253 . S
H708 C704 0.931 . S
H709 C705 0.930 . S
O710 Co699 2.039 . S
O710 C700 1.265 . S
C711 O707 1.253 . S
C711 O712 1.227 . S
O712 C711 1.227 . S
N713 Co699 2.140 . S
N713 C716 1.346 . S
N713 C717 1.345 . S
C714 C715 1.387 . S
C714 C718 1.391 . S
C715 C714 1.387 . S
C715 C716 1.369 . S
C715 H724 0.929 . S
C716 N713 1.346 . S
C716 C715 1.369 . S
C716 H719 0.928 . S
C717 N713 1.345 . S
C717 C718 1.371 . S
C717 H720 0.931 . S
C718 C714 1.391 . S
C718 C717 1.371 . S
C718 H725 0.930 . S
H719 C716 0.928 . S
H720 C717 0.931 . S
H721 C697 0.930 . S
H722 C694 0.930 . S
H723 C703 0.930 . S
H724 C715 0.929 . S
H725 C718 0.930 . S
C726 C727 1.351 . S
C726 N729 1.368 . S
C726 H731 0.931 . S
C727 C726 1.351 . S
C727 N728 1.373 . S
C727 H755 0.930 . S
N728 C727 1.373 . S
N728 C730 1.340 . S
N729 C726 1.368 . S
N729 C730 1.321 . S
N729 Co732 2.135 . S
C730 N728 1.340 . S
C730 N729 1.321 . S
C730 H754 0.930 . S
H731 C726 0.931 . S
Co732 N729 2.135 . S
Co732 N735 2.121 . S
Co732 O740 2.055 . S
Co732 O743 2.039 . S
Co732 N746 2.140 . S
C733 O734 1.227 . S
C733 O743 1.265 . S
O734 C733 1.227 . S
N735 Co732 2.121 . S
N735 C737 1.375 . S
N735 C738 1.313 . S
C736 C737 1.338 . S
C736 N739 1.377 . S
C736 H756 0.930 . S
C737 N735 1.375 . S
C737 C736 1.338 . S
C737 H741 0.931 . S
C738 N735 1.313 . S
C738 N739 1.344 . S
C738 H742 0.930 . S
N739 C736 1.377 . S
N739 C738 1.344 . S
O740 Co732 2.055 . S
O740 C744 1.253 . S
H741 C737 0.931 . S
H742 C738 0.930 . S
O743 Co732 2.039 . S
O743 C733 1.265 . S
C744 O740 1.253 . S
C744 O745 1.227 . S
O745 C744 1.227 . S
N746 Co732 2.140 . S
N746 C749 1.346 . S
N746 C750 1.345 . S
C747 C748 1.387 . S
C747 C751 1.391 . S
C748 C747 1.387 . S
C748 C749 1.369 . S
C748 H757 0.929 . S
C749 N746 1.346 . S
C749 C748 1.369 . S
C749 H752 0.928 . S
C750 N746 1.345 . S
C750 C751 1.371 . S
C750 H753 0.931 . S
C751 C747 1.391 . S
C751 C750 1.371 . S
C751 H758 0.930 . S
H752 C749 0.928 . S
H753 C750 0.931 . S
H754 C730 0.930 . S
H755 C727 0.930 . S
H756 C736 0.930 . S
H757 C748 0.929 . S
H758 C751 0.930 . S
C759 C760 1.351 . S
C759 N762 1.368 . S
C759 H764 0.931 . S
C760 C759 1.351 . S
C760 N761 1.373 . S
C760 H788 0.930 . S
N761 C760 1.373 . S
N761 C763 1.340 . S
N762 C759 1.368 . S
N762 C763 1.321 . S
N762 Co765 2.135 . S
C763 N761 1.340 . S
C763 N762 1.321 . S
C763 H787 0.930 . S
H764 C759 0.931 . S
Co765 N762 2.135 . S
Co765 N768 2.121 . S
Co765 O773 2.055 . S
Co765 O776 2.039 . S
Co765 N779 2.140 . S
C766 O767 1.227 . S
C766 O776 1.265 . S
O767 C766 1.227 . S
N768 Co765 2.121 . S
N768 C770 1.375 . S
N768 C771 1.313 . S
C769 C770 1.338 . S
C769 N772 1.377 . S
C769 H789 0.930 . S
C770 N768 1.375 . S
C770 C769 1.338 . S
C770 H774 0.931 . S
C771 N768 1.313 . S
C771 N772 1.344 . S
C771 H775 0.930 . S
N772 C769 1.377 . S
N772 C771 1.344 . S
O773 Co765 2.055 . S
O773 C777 1.253 . S
H774 C770 0.931 . S
H775 C771 0.930 . S
O776 Co765 2.039 . S
O776 C766 1.265 . S
C777 O773 1.253 . S
C777 O778 1.227 . S
O778 C777 1.227 . S
N779 Co765 2.140 . S
N779 C782 1.346 . S
N779 C783 1.345 . S
C780 C781 1.387 . S
C780 C784 1.391 . S
C781 C780 1.387 . S
C781 C782 1.369 . S
C781 H790 0.929 . S
C782 N779 1.346 . S
C782 C781 1.369 . S
C782 H785 0.928 . S
C783 N779 1.345 . S
C783 C784 1.371 . S
C783 H786 0.931 . S
C784 C780 1.391 . S
C784 C783 1.371 . S
C784 H791 0.930 . S
H785 C782 0.928 . S
H786 C783 0.931 . S
H787 C763 0.930 . S
H788 C760 0.930 . S
H789 C769 0.930 . S
H790 C781 0.929 . S
H791 C784 0.930 . S
C792 C793 1.351 . S
C792 N795 1.368 . S
C792 H797 0.931 . S
C793 C792 1.351 . S
C793 N794 1.373 . S
C793 H821 0.930 . S
N794 C793 1.373 . S
N794 C796 1.340 . S
N795 C792 1.368 . S
N795 C796 1.321 . S
N795 Co798 2.135 . S
C796 N794 1.340 . S
C796 N795 1.321 . S
C796 H820 0.930 . S
H797 C792 0.931 . S
Co798 N795 2.135 . S
Co798 N801 2.121 . S
Co798 O806 2.055 . S
Co798 O809 2.039 . S
Co798 N812 2.140 . S
C799 O800 1.227 . S
C799 O809 1.265 . S
O800 C799 1.227 . S
N801 Co798 2.121 . S
N801 C803 1.375 . S
N801 C804 1.313 . S
C802 C803 1.338 . S
C802 N805 1.377 . S
C802 H822 0.930 . S
C803 N801 1.375 . S
C803 C802 1.338 . S
C803 H807 0.931 . S
C804 N801 1.313 . S
C804 N805 1.344 . S
C804 H808 0.930 . S
N805 C802 1.377 . S
N805 C804 1.344 . S
O806 Co798 2.055 . S
O806 C810 1.253 . S
H807 C803 0.931 . S
H808 C804 0.930 . S
O809 Co798 2.039 . S
O809 C799 1.265 . S
C810 O806 1.253 . S
C810 O811 1.227 . S
O811 C810 1.227 . S
N812 Co798 2.140 . S
N812 C815 1.346 . S
N812 C816 1.345 . S
C813 C814 1.387 . S
C813 C817 1.391 . S
C814 C813 1.387 . S
C814 C815 1.369 . S
C814 H823 0.929 . S
C815 N812 1.346 . S
C815 C814 1.369 . S
C815 H818 0.928 . S
C816 N812 1.345 . S
C816 C817 1.371 . S
C816 H819 0.931 . S
C817 C813 1.391 . S
C817 C816 1.371 . S
C817 H824 0.930 . S
H818 C815 0.928 . S
H819 C816 0.931 . S
H820 C796 0.930 . S
H821 C793 0.930 . S
H822 C802 0.930 . S
H823 C814 0.929 . S
H824 C817 0.930 . S
C825 C826 1.351 . S
C825 N828 1.368 . S
C825 H830 0.931 . S
C826 C825 1.351 . S
C826 N827 1.373 . S
C826 H854 0.930 . S
N827 C826 1.373 . S
N827 C829 1.340 . S
N828 C825 1.368 . S
N828 C829 1.321 . S
N828 Co831 2.135 . S
C829 N827 1.340 . S
C829 N828 1.321 . S
C829 H853 0.930 . S
H830 C825 0.931 . S
Co831 N828 2.135 . S
Co831 N834 2.121 . S
Co831 O839 2.055 . S
Co831 O842 2.039 . S
Co831 N845 2.140 . S
C832 O833 1.227 . S
C832 O842 1.265 . S
O833 C832 1.227 . S
N834 Co831 2.121 . S
N834 C836 1.375 . S
N834 C837 1.313 . S
C835 C836 1.338 . S
C835 N838 1.377 . S
C835 H855 0.930 . S
C836 N834 1.375 . S
C836 C835 1.338 . S
C836 H840 0.931 . S
C837 N834 1.313 . S
C837 N838 1.344 . S
C837 H841 0.930 . S
N838 C835 1.377 . S
N838 C837 1.344 . S
O839 Co831 2.055 . S
O839 C843 1.253 . S
H840 C836 0.931 . S
H841 C837 0.930 . S
O842 Co831 2.039 . S
O842 C832 1.265 . S
C843 O839 1.253 . S
C843 O844 1.227 . S
O844 C843 1.227 . S
N845 Co831 2.140 . S
N845 C848 1.346 . S
N845 C849 1.345 . S
C846 C847 1.387 . S
C846 C850 1.391 . S
C847 C846 1.387 . S
C847 C848 1.369 . S
C847 H856 0.929 . S
C848 N845 1.346 . S
C848 C847 1.369 . S
C848 H851 0.928 . S
C849 N845 1.345 . S
C849 C850 1.371 . S
C849 H852 0.931 . S
C850 C846 1.391 . S
C850 C849 1.371 . S
C850 H857 0.930 . S
H851 C848 0.928 . S
H852 C849 0.931 . S
H853 C829 0.930 . S
H854 C826 0.930 . S
H855 C835 0.930 . S
H856 C847 0.929 . S
H857 C850 0.930 . S
C858 C859 1.351 . S
C858 N861 1.368 . S
C858 H863 0.931 . S
C859 C858 1.351 . S
C859 N860 1.373 . S
C859 H887 0.930 . S
N860 C859 1.373 . S
N860 C862 1.340 . S
N861 C858 1.368 . S
N861 C862 1.321 . S
N861 Co864 2.135 . S
C862 N860 1.340 . S
C862 N861 1.321 . S
C862 H886 0.930 . S
H863 C858 0.931 . S
Co864 N861 2.135 . S
Co864 N867 2.121 . S
Co864 O872 2.055 . S
Co864 O875 2.039 . S
Co864 N878 2.140 . S
C865 O866 1.227 . S
C865 O875 1.265 . S
O866 C865 1.227 . S
N867 Co864 2.121 . S
N867 C869 1.375 . S
N867 C870 1.313 . S
C868 C869 1.338 . S
C868 N871 1.377 . S
C868 H888 0.930 . S
C869 N867 1.375 . S
C869 C868 1.338 . S
C869 H873 0.931 . S
C870 N867 1.313 . S
C870 N871 1.344 . S
C870 H874 0.930 . S
N871 C868 1.377 . S
N871 C870 1.344 . S
O872 Co864 2.055 . S
O872 C876 1.253 . S
H873 C869 0.931 . S
H874 C870 0.930 . S
O875 Co864 2.039 . S
O875 C865 1.265 . S
C876 O872 1.253 . S
C876 O877 1.227 . S
O877 C876 1.227 . S
N878 Co864 2.140 . S
N878 C881 1.346 . S
N878 C882 1.345 . S
C879 C880 1.387 . S
C879 C883 1.391 . S
C880 C879 1.387 . S
C880 C881 1.369 . S
C880 H889 0.929 . S
C881 N878 1.346 . S
C881 C880 1.369 . S
C881 H884 0.928 . S
C882 N878 1.345 . S
C882 C883 1.371 . S
C882 H885 0.931 . S
C883 C879 1.391 . S
C883 C882 1.371 . S
C883 H890 0.930 . S
H884 C881 0.928 . S
H885 C882 0.931 . S
H886 C862 0.930 . S
H887 C859 0.930 . S
H888 C868 0.930 . S
H889 C880 0.929 . S
H890 C883 0.930 . S
C891 C892 1.351 . S
C891 N894 1.368 . S
C891 H896 0.931 . S
C892 C891 1.351 . S
C892 N893 1.373 . S
C892 H920 0.930 . S
N893 C892 1.373 . S
N893 C895 1.340 . S
N894 C891 1.368 . S
N894 C895 1.321 . S
N894 Co897 2.135 . S
C895 N893 1.340 . S
C895 N894 1.321 . S
C895 H919 0.930 . S
H896 C891 0.931 . S
Co897 N894 2.135 . S
Co897 N900 2.121 . S
Co897 O905 2.055 . S
Co897 O908 2.039 . S
Co897 N911 2.140 . S
C898 O899 1.227 . S
C898 O908 1.265 . S
O899 C898 1.227 . S
N900 Co897 2.121 . S
N900 C902 1.375 . S
N900 C903 1.313 . S
C901 C902 1.338 . S
C901 N904 1.377 . S
C901 H921 0.930 . S
C902 N900 1.375 . S
C902 C901 1.338 . S
C902 H906 0.931 . S
C903 N900 1.313 . S
C903 N904 1.344 . S
C903 H907 0.930 . S
N904 C901 1.377 . S
N904 C903 1.344 . S
O905 Co897 2.055 . S
O905 C909 1.253 . S
H906 C902 0.931 . S
H907 C903 0.930 . S
O908 Co897 2.039 . S
O908 C898 1.265 . S
C909 O905 1.253 . S
C909 O910 1.227 . S
O910 C909 1.227 . S
N911 Co897 2.140 . S
N911 C914 1.346 . S
N911 C915 1.345 . S
C912 C913 1.387 . S
C912 C916 1.391 . S
C913 C912 1.387 . S
C913 C914 1.369 . S
C913 H922 0.929 . S
C914 N911 1.346 . S
C914 C913 1.369 . S
C914 H917 0.928 . S
C915 N911 1.345 . S
C915 C916 1.371 . S
C915 H918 0.931 . S
C916 C912 1.391 . S
C916 C915 1.371 . S
C916 H923 0.930 . S
H917 C914 0.928 . S
H918 C915 0.931 . S
H919 C895 0.930 . S
H920 C892 0.930 . S
H921 C901 0.930 . S
H922 C913 0.929 . S
H923 C916 0.930 . S
C924 C925 1.351 . S
C924 N927 1.368 . S
C924 H929 0.931 . S
C925 C924 1.351 . S
C925 N926 1.373 . S
C925 H953 0.930 . S
N926 C925 1.373 . S
N926 C928 1.340 . S
N927 C924 1.368 . S
N927 C928 1.321 . S
N927 Co930 2.135 . S
C928 N926 1.340 . S
C928 N927 1.321 . S
C928 H952 0.930 . S
H929 C924 0.931 . S
Co930 N927 2.135 . S
Co930 N933 2.121 . S
Co930 O938 2.055 . S
Co930 O941 2.039 . S
Co930 N944 2.140 . S
C931 O932 1.227 . S
C931 O941 1.265 . S
O932 C931 1.227 . S
N933 Co930 2.121 . S
N933 C935 1.375 . S
N933 C936 1.313 . S
C934 C935 1.338 . S
C934 N937 1.377 . S
C934 H954 0.930 . S
C935 N933 1.375 . S
C935 C934 1.338 . S
C935 H939 0.931 . S
C936 N933 1.313 . S
C936 N937 1.344 . S
C936 H940 0.930 . S
N937 C934 1.377 . S
N937 C936 1.344 . S
O938 Co930 2.055 . S
O938 C942 1.253 . S
H939 C935 0.931 . S
H940 C936 0.930 . S
O941 Co930 2.039 . S
O941 C931 1.265 . S
C942 O938 1.253 . S
C942 O943 1.227 . S
O943 C942 1.227 . S
N944 Co930 2.140 . S
N944 C947 1.346 . S
N944 C948 1.345 . S
C945 C946 1.387 . S
C945 C949 1.391 . S
C946 C945 1.387 . S
C946 C947 1.369 . S
C946 H955 0.929 . S
C947 N944 1.346 . S
C947 C946 1.369 . S
C947 H950 0.928 . S
C948 N944 1.345 . S
C948 C949 1.371 . S
C948 H951 0.931 . S
C949 C945 1.391 . S
C949 C948 1.371 . S
C949 H956 0.930 . S
H950 C947 0.928 . S
H951 C948 0.931 . S
H952 C928 0.930 . S
H953 C925 0.930 . S
H954 C934 0.930 . S
H955 C946 0.929 . S
H956 C949 0.930 . S
C957 C958 1.351 . S
C957 N960 1.368 . S
C957 H962 0.931 . S
C958 C957 1.351 . S
C958 N959 1.373 . S
C958 H986 0.930 . S
N959 C958 1.373 . S
N959 C961 1.340 . S
N960 C957 1.368 . S
N960 C961 1.321 . S
N960 Co963 2.135 . S
C961 N959 1.340 . S
C961 N960 1.321 . S
C961 H985 0.930 . S
H962 C957 0.931 . S
Co963 N960 2.135 . S
Co963 N966 2.121 . S
Co963 O971 2.055 . S
Co963 O974 2.039 . S
Co963 N977 2.140 . S
C964 O965 1.227 . S
C964 O974 1.265 . S
O965 C964 1.227 . S
N966 Co963 2.121 . S
N966 C968 1.375 . S
N966 C969 1.313 . S
C967 C968 1.338 . S
C967 N970 1.377 . S
C967 H987 0.930 . S
C968 N966 1.375 . S
C968 C967 1.338 . S
C968 H972 0.931 . S
C969 N966 1.313 . S
C969 N970 1.344 . S
C969 H973 0.930 . S
N970 C967 1.377 . S
N970 C969 1.344 . S
O971 Co963 2.055 . S
O971 C975 1.253 . S
H972 C968 0.931 . S
H973 C969 0.930 . S
O974 Co963 2.039 . S
O974 C964 1.265 . S
C975 O971 1.253 . S
C975 O976 1.227 . S
O976 C975 1.227 . S
N977 Co963 2.140 . S
N977 C980 1.346 . S
N977 C981 1.345 . S
C978 C979 1.387 . S
C978 C982 1.391 . S
C979 C978 1.387 . S
C979 C980 1.369 . S
C979 H988 0.929 . S
C980 N977 1.346 . S
C980 C979 1.369 . S
C980 H983 0.928 . S
C981 N977 1.345 . S
C981 C982 1.371 . S
C981 H984 0.931 . S
C982 C978 1.391 . S
C982 C981 1.371 . S
C982 H989 0.930 . S
H983 C980 0.928 . S
H984 C981 0.931 . S
H985 C961 0.930 . S
H986 C958 0.930 . S
H987 C967 0.930 . S
H988 C979 0.929 . S
H989 C982 0.930 . S
C990 C991 1.351 . S
C990 N993 1.368 . S
C990 H995 0.931 . S
C991 C990 1.351 . S
C991 N992 1.373 . S
C991 H1019 0.930 . S
N992 C991 1.373 . S
N992 C994 1.340 . S
N993 C990 1.368 . S
N993 C994 1.321 . S
N993 Co996 2.135 . S
C994 N992 1.340 . S
C994 N993 1.321 . S
C994 H1018 0.930 . S
H995 C990 0.931 . S
Co996 N993 2.135 . S
Co996 N999 2.121 . S
Co996 O1004 2.055 . S
Co996 O1007 2.039 . S
Co996 N1010 2.140 . S
C997 O998 1.227 . S
C997 O1007 1.265 . S
O998 C997 1.227 . S
N999 Co996 2.121 . S
N999 C1001 1.375 . S
N999 C1002 1.313 . S
C1000 C1001 1.338 . S
C1000 N1003 1.377 . S
C1000 H1020 0.930 . S
C1001 N999 1.375 . S
C1001 C1000 1.338 . S
C1001 H1005 0.931 . S
C1002 N999 1.313 . S
C1002 N1003 1.344 . S
C1002 H1006 0.930 . S
N1003 C1000 1.377 . S
N1003 C1002 1.344 . S
O1004 Co996 2.055 . S
O1004 C1008 1.253 . S
H1005 C1001 0.931 . S
H1006 C1002 0.930 . S
O1007 Co996 2.039 . S
O1007 C997 1.265 . S
C1008 O1004 1.253 . S
C1008 O1009 1.227 . S
O1009 C1008 1.227 . S
N1010 Co996 2.140 . S
N1010 C1013 1.346 . S
N1010 C1014 1.345 . S
C1011 C1012 1.387 . S
C1011 C1015 1.391 . S
C1012 C1011 1.387 . S
C1012 C1013 1.369 . S
C1012 H1021 0.929 . S
C1013 N1010 1.346 . S
C1013 C1012 1.369 . S
C1013 H1016 0.928 . S
C1014 N1010 1.345 . S
C1014 C1015 1.371 . S
C1014 H1017 0.931 . S
C1015 C1011 1.391 . S
C1015 C1014 1.371 . S
C1015 H1022 0.930 . S
H1016 C1013 0.928 . S
H1017 C1014 0.931 . S
H1018 C994 0.930 . S
H1019 C991 0.930 . S
H1020 C1000 0.930 . S
H1021 C1012 0.929 . S
H1022 C1015 0.930 . S
C1023 C1024 1.351 . S
C1023 N1026 1.368 . S
C1023 H1028 0.931 . S
C1024 C1023 1.351 . S
C1024 N1025 1.373 . S
C1024 H1052 0.930 . S
N1025 C1024 1.373 . S
N1025 C1027 1.340 . S
N1026 C1023 1.368 . S
N1026 C1027 1.321 . S
N1026 Co1029 2.135 . S
C1027 N1025 1.340 . S
C1027 N1026 1.321 . S
C1027 H1051 0.930 . S
H1028 C1023 0.931 . S
Co1029 N1026 2.135 . S
Co1029 N1032 2.121 . S
Co1029 O1037 2.055 . S
Co1029 O1040 2.039 . S
Co1029 N1043 2.140 . S
C1030 O1031 1.227 . S
C1030 O1040 1.265 . S
O1031 C1030 1.227 . S
N1032 Co1029 2.121 . S
N1032 C1034 1.375 . S
N1032 C1035 1.313 . S
C1033 C1034 1.338 . S
C1033 N1036 1.377 . S
C1033 H1053 0.930 . S
C1034 N1032 1.375 . S
C1034 C1033 1.338 . S
C1034 H1038 0.931 . S
C1035 N1032 1.313 . S
C1035 N1036 1.344 . S
C1035 H1039 0.930 . S
N1036 C1033 1.377 . S
N1036 C1035 1.344 . S
O1037 Co1029 2.055 . S
O1037 C1041 1.253 . S
H1038 C1034 0.931 . S
H1039 C1035 0.930 . S
O1040 Co1029 2.039 . S
O1040 C1030 1.265 . S
C1041 O1037 1.253 . S
C1041 O1042 1.227 . S
O1042 C1041 1.227 . S
N1043 Co1029 2.140 . S
N1043 C1046 1.346 . S
N1043 C1047 1.345 . S
C1044 C1045 1.387 . S
C1044 C1048 1.391 . S
C1045 C1044 1.387 . S
C1045 C1046 1.369 . S
C1045 H1054 0.929 . S
C1046 N1043 1.346 . S
C1046 C1045 1.369 . S
C1046 H1049 0.928 . S
C1047 N1043 1.345 . S
C1047 C1048 1.371 . S
C1047 H1050 0.931 . S
C1048 C1044 1.391 . S
C1048 C1047 1.371 . S
C1048 H1055 0.930 . S
H1049 C1046 0.928 . S
H1050 C1047 0.931 . S
H1051 C1027 0.930 . S
H1052 C1024 0.930 . S
H1053 C1033 0.930 . S
H1054 C1045 0.929 . S
H1055 C1048 0.930 . S
C1056 C1057 1.351 . S
C1056 N1059 1.368 . S
C1056 H1061 0.931 . S
C1057 C1056 1.351 . S
C1057 N1058 1.373 . S
C1057 H1085 0.930 . S
N1058 C1057 1.373 . S
N1058 C1060 1.340 . S
N1059 C1056 1.368 . S
N1059 C1060 1.321 . S
N1059 Co1062 2.135 . S
C1060 N1058 1.340 . S
C1060 N1059 1.321 . S
C1060 H1084 0.930 . S
H1061 C1056 0.931 . S
Co1062 N1059 2.135 . S
Co1062 N1065 2.121 . S
Co1062 O1070 2.055 . S
Co1062 O1073 2.039 . S
Co1062 N1076 2.140 . S
C1063 O1064 1.227 . S
C1063 O1073 1.265 . S
O1064 C1063 1.227 . S
N1065 Co1062 2.121 . S
N1065 C1067 1.375 . S
N1065 C1068 1.313 . S
C1066 C1067 1.338 . S
C1066 N1069 1.377 . S
C1066 H1086 0.930 . S
C1067 N1065 1.375 . S
C1067 C1066 1.338 . S
C1067 H1071 0.931 . S
C1068 N1065 1.313 . S
C1068 N1069 1.344 . S
C1068 H1072 0.930 . S
N1069 C1066 1.377 . S
N1069 C1068 1.344 . S
O1070 Co1062 2.055 . S
O1070 C1074 1.253 . S
H1071 C1067 0.931 . S
H1072 C1068 0.930 . S
O1073 Co1062 2.039 . S
O1073 C1063 1.265 . S
C1074 O1070 1.253 . S
C1074 O1075 1.227 . S
O1075 C1074 1.227 . S
N1076 Co1062 2.140 . S
N1076 C1079 1.346 . S
N1076 C1080 1.345 . S
C1077 C1078 1.387 . S
C1077 C1081 1.391 . S
C1078 C1077 1.387 . S
C1078 C1079 1.369 . S
C1078 H1087 0.929 . S
C1079 N1076 1.346 . S
C1079 C1078 1.369 . S
C1079 H1082 0.928 . S
C1080 N1076 1.345 . S
C1080 C1081 1.371 . S
C1080 H1083 0.931 . S
C1081 C1077 1.391 . S
C1081 C1080 1.371 . S
C1081 H1088 0.930 . S
H1082 C1079 0.928 . S
H1083 C1080 0.931 . S
H1084 C1060 0.930 . S
H1085 C1057 0.930 . S
H1086 C1066 0.930 . S
H1087 C1078 0.929 . S
H1088 C1081 0.930 . S
C1089 C1090 1.351 . S
C1089 N1092 1.368 . S
C1089 H1094 0.931 . S
C1090 C1089 1.351 . S
C1090 N1091 1.373 . S
C1090 H1118 0.930 . S
N1091 C1090 1.373 . S
N1091 C1093 1.340 . S
N1092 C1089 1.368 . S
N1092 C1093 1.321 . S
N1092 Co1095 2.135 . S
C1093 N1091 1.340 . S
C1093 N1092 1.321 . S
C1093 H1117 0.930 . S
H1094 C1089 0.931 . S
Co1095 N1092 2.135 . S
Co1095 N1098 2.121 . S
Co1095 O1103 2.055 . S
Co1095 O1106 2.039 . S
Co1095 N1109 2.140 . S
C1096 O1097 1.227 . S
C1096 O1106 1.265 . S
O1097 C1096 1.227 . S
N1098 Co1095 2.121 . S
N1098 C1100 1.375 . S
N1098 C1101 1.313 . S
C1099 C1100 1.338 . S
C1099 N1102 1.377 . S
C1099 H1119 0.930 . S
C1100 N1098 1.375 . S
C1100 C1099 1.338 . S
C1100 H1104 0.931 . S
C1101 N1098 1.313 . S
C1101 N1102 1.344 . S
C1101 H1105 0.930 . S
N1102 C1099 1.377 . S
N1102 C1101 1.344 . S
O1103 Co1095 2.055 . S
O1103 C1107 1.253 . S
H1104 C1100 0.931 . S
H1105 C1101 0.930 . S
O1106 Co1095 2.039 . S
O1106 C1096 1.265 . S
C1107 O1103 1.253 . S
C1107 O1108 1.227 . S
O1108 C1107 1.227 . S
N1109 Co1095 2.140 . S
N1109 C1112 1.346 . S
N1109 C1113 1.345 . S
C1110 C1111 1.387 . S
C1110 C1114 1.391 . S
C1111 C1110 1.387 . S
C1111 C1112 1.369 . S
C1111 H1120 0.929 . S
C1112 N1109 1.346 . S
C1112 C1111 1.369 . S
C1112 H1115 0.928 . S
C1113 N1109 1.345 . S
C1113 C1114 1.371 . S
C1113 H1116 0.931 . S
C1114 C1110 1.391 . S
C1114 C1113 1.371 . S
C1114 H1121 0.930 . S
H1115 C1112 0.928 . S
H1116 C1113 0.931 . S
H1117 C1093 0.930 . S
H1118 C1090 0.930 . S
H1119 C1099 0.930 . S
H1120 C1111 0.929 . S
H1121 C1114 0.930 . S
C1122 C1123 1.351 . S
C1122 N1125 1.368 . S
C1122 H1127 0.931 . S
C1123 C1122 1.351 . S
C1123 N1124 1.373 . S
C1123 H1151 0.930 . S
N1124 C1123 1.373 . S
N1124 C1126 1.340 . S
N1125 C1122 1.368 . S
N1125 C1126 1.321 . S
N1125 Co1128 2.135 . S
C1126 N1124 1.340 . S
C1126 N1125 1.321 . S
C1126 H1150 0.930 . S
H1127 C1122 0.931 . S
Co1128 N1125 2.135 . S
Co1128 N1131 2.121 . S
Co1128 O1136 2.055 . S
Co1128 O1139 2.039 . S
Co1128 N1142 2.140 . S
C1129 O1130 1.227 . S
C1129 O1139 1.265 . S
O1130 C1129 1.227 . S
N1131 Co1128 2.121 . S
N1131 C1133 1.375 . S
N1131 C1134 1.313 . S
C1132 C1133 1.338 . S
C1132 N1135 1.377 . S
C1132 H1152 0.930 . S
C1133 N1131 1.375 . S
C1133 C1132 1.338 . S
C1133 H1137 0.931 . S
C1134 N1131 1.313 . S
C1134 N1135 1.344 . S
C1134 H1138 0.930 . S
N1135 C1132 1.377 . S
N1135 C1134 1.344 . S
O1136 Co1128 2.055 . S
O1136 C1140 1.253 . S
H1137 C1133 0.931 . S
H1138 C1134 0.930 . S
O1139 Co1128 2.039 . S
O1139 C1129 1.265 . S
C1140 O1136 1.253 . S
C1140 O1141 1.227 . S
O1141 C1140 1.227 . S
N1142 Co1128 2.140 . S
N1142 C1145 1.346 . S
N1142 C1146 1.345 . S
C1143 C1144 1.387 . S
C1143 C1147 1.391 . S
C1144 C1143 1.387 . S
C1144 C1145 1.369 . S
C1144 H1153 0.929 . S
C1145 N1142 1.346 . S
C1145 C1144 1.369 . S
C1145 H1148 0.928 . S
C1146 N1142 1.345 . S
C1146 C1147 1.371 . S
C1146 H1149 0.931 . S
C1147 C1143 1.391 . S
C1147 C1146 1.371 . S
C1147 H1154 0.930 . S
H1148 C1145 0.928 . S
H1149 C1146 0.931 . S
H1150 C1126 0.930 . S
H1151 C1123 0.930 . S
H1152 C1132 0.930 . S
H1153 C1144 0.929 . S
H1154 C1147 0.930 . S
C1155 C1156 1.351 . S
C1155 N1158 1.368 . S
C1155 H1160 0.931 . S
C1156 C1155 1.351 . S
C1156 N1157 1.373 . S
C1156 H1184 0.930 . S
N1157 C1156 1.373 . S
N1157 C1159 1.340 . S
N1158 C1155 1.368 . S
N1158 C1159 1.321 . S
N1158 Co1161 2.135 . S
C1159 N1157 1.340 . S
C1159 N1158 1.321 . S
C1159 H1183 0.930 . S
H1160 C1155 0.931 . S
Co1161 N1158 2.135 . S
Co1161 N1164 2.121 . S
Co1161 O1169 2.055 . S
Co1161 O1172 2.039 . S
Co1161 N1175 2.140 . S
C1162 O1163 1.227 . S
C1162 O1172 1.265 . S
O1163 C1162 1.227 . S
N1164 Co1161 2.121 . S
N1164 C1166 1.375 . S
N1164 C1167 1.313 . S
C1165 C1166 1.338 . S
C1165 N1168 1.377 . S
C1165 H1185 0.930 . S
C1166 N1164 1.375 . S
C1166 C1165 1.338 . S
C1166 H1170 0.931 . S
C1167 N1164 1.313 . S
C1167 N1168 1.344 . S
C1167 H1171 0.930 . S
N1168 C1165 1.377 . S
N1168 C1167 1.344 . S
O1169 Co1161 2.055 . S
O1169 C1173 1.253 . S
H1170 C1166 0.931 . S
H1171 C1167 0.930 . S
O1172 Co1161 2.039 . S
O1172 C1162 1.265 . S
C1173 O1169 1.253 . S
C1173 O1174 1.227 . S
O1174 C1173 1.227 . S
N1175 Co1161 2.140 . S
N1175 C1178 1.346 . S
N1175 C1179 1.345 . S
C1176 C1177 1.387 . S
C1176 C1180 1.391 . S
C1177 C1176 1.387 . S
C1177 C1178 1.369 . S
C1177 H1186 0.929 . S
C1178 N1175 1.346 . S
C1178 C1177 1.369 . S
C1178 H1181 0.928 . S
C1179 N1175 1.345 . S
C1179 C1180 1.371 . S
C1179 H1182 0.931 . S
C1180 C1176 1.391 . S
C1180 C1179 1.371 . S
C1180 H1187 0.930 . S
H1181 C1178 0.928 . S
H1182 C1179 0.931 . S
H1183 C1159 0.930 . S
H1184 C1156 0.930 . S
H1185 C1165 0.930 . S
H1186 C1177 0.929 . S
H1187 C1180 0.930 . S
C1188 C1189 1.351 . S
C1188 N1191 1.368 . S
C1188 H1193 0.931 . S
C1189 C1188 1.351 . S
C1189 N1190 1.373 . S
C1189 H1217 0.930 . S
N1190 C1189 1.373 . S
N1190 C1192 1.340 . S
N1191 C1188 1.368 . S
N1191 C1192 1.321 . S
N1191 Co1194 2.135 . S
C1192 N1190 1.340 . S
C1192 N1191 1.321 . S
C1192 H1216 0.930 . S
H1193 C1188 0.931 . S
Co1194 N1191 2.135 . S
Co1194 N1197 2.121 . S
Co1194 O1202 2.055 . S
Co1194 O1205 2.039 . S
Co1194 N1208 2.140 . S
C1195 O1196 1.227 . S
C1195 O1205 1.265 . S
O1196 C1195 1.227 . S
N1197 Co1194 2.121 . S
N1197 C1199 1.375 . S
N1197 C1200 1.313 . S
C1198 C1199 1.338 . S
C1198 N1201 1.377 . S
C1198 H1218 0.930 . S
C1199 N1197 1.375 . S
C1199 C1198 1.338 . S
C1199 H1203 0.931 . S
C1200 N1197 1.313 . S
C1200 N1201 1.344 . S
C1200 H1204 0.930 . S
N1201 C1198 1.377 . S
N1201 C1200 1.344 . S
O1202 Co1194 2.055 . S
O1202 C1206 1.253 . S
H1203 C1199 0.931 . S
H1204 C1200 0.930 . S
O1205 Co1194 2.039 . S
O1205 C1195 1.265 . S
C1206 O1202 1.253 . S
C1206 O1207 1.227 . S
O1207 C1206 1.227 . S
N1208 Co1194 2.140 . S
N1208 C1211 1.346 . S
N1208 C1212 1.345 . S
C1209 C1210 1.387 . S
C1209 C1213 1.391 . S
C1210 C1209 1.387 . S
C1210 C1211 1.369 . S
C1210 H1219 0.929 . S
C1211 N1208 1.346 . S
C1211 C1210 1.369 . S
C1211 H1214 0.928 . S
C1212 N1208 1.345 . S
C1212 C1213 1.371 . S
C1212 H1215 0.931 . S
C1213 C1209 1.391 . S
C1213 C1212 1.371 . S
C1213 H1220 0.930 . S
H1214 C1211 0.928 . S
H1215 C1212 0.931 . S
H1216 C1192 0.930 . S
H1217 C1189 0.930 . S
H1218 C1198 0.930 . S
H1219 C1210 0.929 . S
H1220 C1213 0.930 . S
C1221 C1222 1.351 . S
C1221 N1224 1.368 . S
C1221 H1226 0.931 . S
C1222 C1221 1.351 . S
C1222 N1223 1.373 . S
C1222 H1250 0.930 . S
N1223 C1222 1.373 . S
N1223 C1225 1.340 . S
N1224 C1221 1.368 . S
N1224 C1225 1.321 . S
N1224 Co1227 2.135 . S
C1225 N1223 1.340 . S
C1225 N1224 1.321 . S
C1225 H1249 0.930 . S
H1226 C1221 0.931 . S
Co1227 N1224 2.135 . S
Co1227 N1230 2.121 . S
Co1227 O1235 2.055 . S
Co1227 O1238 2.039 . S
Co1227 N1241 2.140 . S
C1228 O1229 1.227 . S
C1228 O1238 1.265 . S
O1229 C1228 1.227 . S
N1230 Co1227 2.121 . S
N1230 C1232 1.375 . S
N1230 C1233 1.313 . S
C1231 C1232 1.338 . S
C1231 N1234 1.377 . S
C1231 H1251 0.930 . S
C1232 N1230 1.375 . S
C1232 C1231 1.338 . S
C1232 H1236 0.931 . S
C1233 N1230 1.313 . S
C1233 N1234 1.344 . S
C1233 H1237 0.930 . S
N1234 C1231 1.377 . S
N1234 C1233 1.344 . S
O1235 Co1227 2.055 . S
O1235 C1239 1.253 . S
H1236 C1232 0.931 . S
H1237 C1233 0.930 . S
O1238 Co1227 2.039 . S
O1238 C1228 1.265 . S
C1239 O1235 1.253 . S
C1239 O1240 1.227 . S
O1240 C1239 1.227 . S
N1241 Co1227 2.140 . S
N1241 C1244 1.346 . S
N1241 C1245 1.345 . S
C1242 C1243 1.387 . S
C1242 C1246 1.391 . S
C1243 C1242 1.387 . S
C1243 C1244 1.369 . S
C1243 H1252 0.929 . S
C1244 N1241 1.346 . S
C1244 C1243 1.369 . S
C1244 H1247 0.928 . S
C1245 N1241 1.345 . S
C1245 C1246 1.371 . S
C1245 H1248 0.931 . S
C1246 C1242 1.391 . S
C1246 C1245 1.371 . S
C1246 H1253 0.930 . S
H1247 C1244 0.928 . S
H1248 C1245 0.931 . S
H1249 C1225 0.930 . S
H1250 C1222 0.930 . S
H1251 C1231 0.930 . S
H1252 C1243 0.929 . S
H1253 C1246 0.930 . S
C1254 C1255 1.351 . S
C1254 N1257 1.368 . S
C1254 H1259 0.931 . S
C1255 C1254 1.351 . S
C1255 N1256 1.373 . S
C1255 H1283 0.930 . S
N1256 C1255 1.373 . S
N1256 C1258 1.340 . S
N1257 C1254 1.368 . S
N1257 C1258 1.321 . S
N1257 Co1260 2.135 . S
C1258 N1256 1.340 . S
C1258 N1257 1.321 . S
C1258 H1282 0.930 . S
H1259 C1254 0.931 . S
Co1260 N1257 2.135 . S
Co1260 N1263 2.121 . S
Co1260 O1268 2.055 . S
Co1260 O1271 2.039 . S
Co1260 N1274 2.140 . S
C1261 O1262 1.227 . S
C1261 O1271 1.265 . S
O1262 C1261 1.227 . S
N1263 Co1260 2.121 . S
N1263 C1265 1.375 . S
N1263 C1266 1.313 . S
C1264 C1265 1.338 . S
C1264 N1267 1.377 . S
C1264 H1284 0.930 . S
C1265 N1263 1.375 . S
C1265 C1264 1.338 . S
C1265 H1269 0.931 . S
C1266 N1263 1.313 . S
C1266 N1267 1.344 . S
C1266 H1270 0.930 . S
N1267 C1264 1.377 . S
N1267 C1266 1.344 . S
O1268 Co1260 2.055 . S
O1268 C1272 1.253 . S
H1269 C1265 0.931 . S
H1270 C1266 0.930 . S
O1271 Co1260 2.039 . S
O1271 C1261 1.265 . S
C1272 O1268 1.253 . S
C1272 O1273 1.227 . S
O1273 C1272 1.227 . S
N1274 Co1260 2.140 . S
N1274 C1277 1.346 . S
N1274 C1278 1.345 . S
C1275 C1276 1.387 . S
C1275 C1279 1.391 . S
C1276 C1275 1.387 . S
C1276 C1277 1.369 . S
C1276 H1285 0.929 . S
C1277 N1274 1.346 . S
C1277 C1276 1.369 . S
C1277 H1280 0.928 . S
C1278 N1274 1.345 . S
C1278 C1279 1.371 . S
C1278 H1281 0.931 . S
C1279 C1275 1.391 . S
C1279 C1278 1.371 . S
C1279 H1286 0.930 . S
H1280 C1277 0.928 . S
H1281 C1278 0.931 . S
H1282 C1258 0.930 . S
H1283 C1255 0.930 . S
H1284 C1264 0.930 . S
H1285 C1276 0.929 . S
H1286 C1279 0.930 . S
C1287 C1288 1.351 . S
C1287 N1290 1.368 . S
C1287 H1292 0.931 . S
C1288 C1287 1.351 . S
C1288 N1289 1.373 . S
C1288 H1316 0.930 . S
N1289 C1288 1.373 . S
N1289 C1291 1.340 . S
N1290 C1287 1.368 . S
N1290 C1291 1.321 . S
N1290 Co1293 2.135 . S
C1291 N1289 1.340 . S
C1291 N1290 1.321 . S
C1291 H1315 0.930 . S
H1292 C1287 0.931 . S
Co1293 N1290 2.135 . S
Co1293 N1296 2.121 . S
Co1293 O1301 2.055 . S
Co1293 O1304 2.039 . S
Co1293 N1307 2.140 . S
C1294 O1295 1.227 . S
C1294 O1304 1.265 . S
O1295 C1294 1.227 . S
N1296 Co1293 2.121 . S
N1296 C1298 1.375 . S
N1296 C1299 1.313 . S
C1297 C1298 1.338 . S
C1297 N1300 1.377 . S
C1297 H1317 0.930 . S
C1298 N1296 1.375 . S
C1298 C1297 1.338 . S
C1298 H1302 0.931 . S
C1299 N1296 1.313 . S
C1299 N1300 1.344 . S
C1299 H1303 0.930 . S
N1300 C1297 1.377 . S
N1300 C1299 1.344 . S
O1301 Co1293 2.055 . S
O1301 C1305 1.253 . S
H1302 C1298 0.931 . S
H1303 C1299 0.930 . S
O1304 Co1293 2.039 . S
O1304 C1294 1.265 . S
C1305 O1301 1.253 . S
C1305 O1306 1.227 . S
O1306 C1305 1.227 . S
N1307 Co1293 2.140 . S
N1307 C1310 1.346 . S
N1307 C1311 1.345 . S
C1308 C1309 1.387 . S
C1308 C1312 1.391 . S
C1309 C1308 1.387 . S
C1309 C1310 1.369 . S
C1309 H1318 0.929 . S
C1310 N1307 1.346 . S
C1310 C1309 1.369 . S
C1310 H1313 0.928 . S
C1311 N1307 1.345 . S
C1311 C1312 1.371 . S
C1311 H1314 0.931 . S
C1312 C1308 1.391 . S
C1312 C1311 1.371 . S
C1312 H1319 0.930 . S
H1313 C1310 0.928 . S
H1314 C1311 0.931 . S
H1315 C1291 0.930 . S
H1316 C1288 0.930 . S
H1317 C1297 0.930 . S
H1318 C1309 0.929 . S
H1319 C1312 0.930 . S
C1320 C1321 1.351 . S
C1320 N1323 1.368 . S
C1320 H1325 0.931 . S
C1321 C1320 1.351 . S
C1321 N1322 1.373 . S
C1321 H1349 0.930 . S
N1322 C1321 1.373 . S
N1322 C1324 1.340 . S
N1323 C1320 1.368 . S
N1323 C1324 1.321 . S
N1323 Co1326 2.135 . S
C1324 N1322 1.340 . S
C1324 N1323 1.321 . S
C1324 H1348 0.930 . S
H1325 C1320 0.931 . S
Co1326 N1323 2.135 . S
Co1326 N1329 2.121 . S
Co1326 O1334 2.055 . S
Co1326 O1337 2.039 . S
Co1326 N1340 2.140 . S
C1327 O1328 1.227 . S
C1327 O1337 1.265 . S
O1328 C1327 1.227 . S
N1329 Co1326 2.121 . S
N1329 C1331 1.375 . S
N1329 C1332 1.313 . S
C1330 C1331 1.338 . S
C1330 N1333 1.377 . S
C1330 H1350 0.930 . S
C1331 N1329 1.375 . S
C1331 C1330 1.338 . S
C1331 H1335 0.931 . S
C1332 N1329 1.313 . S
C1332 N1333 1.344 . S
C1332 H1336 0.930 . S
N1333 C1330 1.377 . S
N1333 C1332 1.344 . S
O1334 Co1326 2.055 . S
O1334 C1338 1.253 . S
H1335 C1331 0.931 . S
H1336 C1332 0.930 . S
O1337 Co1326 2.039 . S
O1337 C1327 1.265 . S
C1338 O1334 1.253 . S
C1338 O1339 1.227 . S
O1339 C1338 1.227 . S
N1340 Co1326 2.140 . S
N1340 C1343 1.346 . S
N1340 C1344 1.345 . S
C1341 C1342 1.387 . S
C1341 C1345 1.391 . S
C1342 C1341 1.387 . S
C1342 C1343 1.369 . S
C1342 H1351 0.929 . S
C1343 N1340 1.346 . S
C1343 C1342 1.369 . S
C1343 H1346 0.928 . S
C1344 N1340 1.345 . S
C1344 C1345 1.371 . S
C1344 H1347 0.931 . S
C1345 C1341 1.391 . S
C1345 C1344 1.371 . S
C1345 H1352 0.930 . S
H1346 C1343 0.928 . S
H1347 C1344 0.931 . S
H1348 C1324 0.930 . S
H1349 C1321 0.930 . S
H1350 C1330 0.930 . S
H1351 C1342 0.929 . S
H1352 C1345 0.930 . S
C1353 C1354 1.351 . S
C1353 N1356 1.368 . S
C1353 H1358 0.931 . S
C1354 C1353 1.351 . S
C1354 N1355 1.373 . S
C1354 H1382 0.930 . S
N1355 C1354 1.373 . S
N1355 C1357 1.340 . S
N1356 C1353 1.368 . S
N1356 C1357 1.321 . S
N1356 Co1359 2.135 . S
C1357 N1355 1.340 . S
C1357 N1356 1.321 . S
C1357 H1381 0.930 . S
H1358 C1353 0.931 . S
Co1359 N1356 2.135 . S
Co1359 N1362 2.121 . S
Co1359 O1367 2.055 . S
Co1359 O1370 2.039 . S
Co1359 N1373 2.140 . S
C1360 O1361 1.227 . S
C1360 O1370 1.265 . S
O1361 C1360 1.227 . S
N1362 Co1359 2.121 . S
N1362 C1364 1.375 . S
N1362 C1365 1.313 . S
C1363 C1364 1.338 . S
C1363 N1366 1.377 . S
C1363 H1383 0.930 . S
C1364 N1362 1.375 . S
C1364 C1363 1.338 . S
C1364 H1368 0.931 . S
C1365 N1362 1.313 . S
C1365 N1366 1.344 . S
C1365 H1369 0.930 . S
N1366 C1363 1.377 . S
N1366 C1365 1.344 . S
O1367 Co1359 2.055 . S
O1367 C1371 1.253 . S
H1368 C1364 0.931 . S
H1369 C1365 0.930 . S
O1370 Co1359 2.039 . S
O1370 C1360 1.265 . S
C1371 O1367 1.253 . S
C1371 O1372 1.227 . S
O1372 C1371 1.227 . S
N1373 Co1359 2.140 . S
N1373 C1376 1.346 . S
N1373 C1377 1.345 . S
C1374 C1375 1.387 . S
C1374 C1378 1.391 . S
C1375 C1374 1.387 . S
C1375 C1376 1.369 . S
C1375 H1384 0.929 . S
C1376 N1373 1.346 . S
C1376 C1375 1.369 . S
C1376 H1379 0.928 . S
C1377 N1373 1.345 . S
C1377 C1378 1.371 . S
C1377 H1380 0.931 . S
C1378 C1374 1.391 . S
C1378 C1377 1.371 . S
C1378 H1385 0.930 . S
H1379 C1376 0.928 . S
H1380 C1377 0.931 . S
H1381 C1357 0.930 . S
H1382 C1354 0.930 . S
H1383 C1363 0.930 . S
H1384 C1375 0.929 . S
H1385 C1378 0.930 . S
C1386 C1387 1.351 . S
C1386 N1389 1.368 . S
C1386 H1391 0.931 . S
C1387 C1386 1.351 . S
C1387 N1388 1.373 . S
C1387 H1415 0.930 . S
N1388 C1387 1.373 . S
N1388 C1390 1.340 . S
N1389 C1386 1.368 . S
N1389 C1390 1.321 . S
N1389 Co1392 2.135 . S
C1390 N1388 1.340 . S
C1390 N1389 1.321 . S
C1390 H1414 0.930 . S
H1391 C1386 0.931 . S
Co1392 N1389 2.135 . S
Co1392 N1395 2.121 . S
Co1392 O1400 2.055 . S
Co1392 O1403 2.039 . S
Co1392 N1406 2.140 . S
C1393 O1394 1.227 . S
C1393 O1403 1.265 . S
O1394 C1393 1.227 . S
N1395 Co1392 2.121 . S
N1395 C1397 1.375 . S
N1395 C1398 1.313 . S
C1396 C1397 1.338 . S
C1396 N1399 1.377 . S
C1396 H1416 0.930 . S
C1397 N1395 1.375 . S
C1397 C1396 1.338 . S
C1397 H1401 0.931 . S
C1398 N1395 1.313 . S
C1398 N1399 1.344 . S
C1398 H1402 0.930 . S
N1399 C1396 1.377 . S
N1399 C1398 1.344 . S
O1400 Co1392 2.055 . S
O1400 C1404 1.253 . S
H1401 C1397 0.931 . S
H1402 C1398 0.930 . S
O1403 Co1392 2.039 . S
O1403 C1393 1.265 . S
C1404 O1400 1.253 . S
C1404 O1405 1.227 . S
O1405 C1404 1.227 . S
N1406 Co1392 2.140 . S
N1406 C1409 1.346 . S
N1406 C1410 1.345 . S
C1407 C1408 1.387 . S
C1407 C1411 1.391 . S
C1408 C1407 1.387 . S
C1408 C1409 1.369 . S
C1408 H1417 0.929 . S
C1409 N1406 1.346 . S
C1409 C1408 1.369 . S
C1409 H1412 0.928 . S
C1410 N1406 1.345 . S
C1410 C1411 1.371 . S
C1410 H1413 0.931 . S
C1411 C1407 1.391 . S
C1411 C1410 1.371 . S
C1411 H1418 0.930 . S
H1412 C1409 0.928 . S
H1413 C1410 0.931 . S
H1414 C1390 0.930 . S
H1415 C1387 0.930 . S
H1416 C1396 0.930 . S
H1417 C1408 0.929 . S
H1418 C1411 0.930 . S
C1419 C1420 1.351 . S
C1419 N1422 1.368 . S
C1419 H1424 0.931 . S
C1420 C1419 1.351 . S
C1420 N1421 1.373 . S
C1420 H1448 0.930 . S
N1421 C1420 1.373 . S
N1421 C1423 1.340 . S
N1422 C1419 1.368 . S
N1422 C1423 1.321 . S
N1422 Co1425 2.135 . S
C1423 N1421 1.340 . S
C1423 N1422 1.321 . S
C1423 H1447 0.930 . S
H1424 C1419 0.931 . S
Co1425 N1422 2.135 . S
Co1425 N1428 2.121 . S
Co1425 O1433 2.055 . S
Co1425 O1436 2.039 . S
Co1425 N1439 2.140 . S
C1426 O1427 1.227 . S
C1426 O1436 1.265 . S
O1427 C1426 1.227 . S
N1428 Co1425 2.121 . S
N1428 C1430 1.375 . S
N1428 C1431 1.313 . S
C1429 C1430 1.338 . S
C1429 N1432 1.377 . S
C1429 H1449 0.930 . S
C1430 N1428 1.375 . S
C1430 C1429 1.338 . S
C1430 H1434 0.931 . S
C1431 N1428 1.313 . S
C1431 N1432 1.344 . S
C1431 H1435 0.930 . S
N1432 C1429 1.377 . S
N1432 C1431 1.344 . S
O1433 Co1425 2.055 . S
O1433 C1437 1.253 . S
H1434 C1430 0.931 . S
H1435 C1431 0.930 . S
O1436 Co1425 2.039 . S
O1436 C1426 1.265 . S
C1437 O1433 1.253 . S
C1437 O1438 1.227 . S
O1438 C1437 1.227 . S
N1439 Co1425 2.140 . S
N1439 C1442 1.346 . S
N1439 C1443 1.345 . S
C1440 C1441 1.387 . S
C1440 C1444 1.391 . S
C1441 C1440 1.387 . S
C1441 C1442 1.369 . S
C1441 H1450 0.929 . S
C1442 N1439 1.346 . S
C1442 C1441 1.369 . S
C1442 H1445 0.928 . S
C1443 N1439 1.345 . S
C1443 C1444 1.371 . S
C1443 H1446 0.931 . S
C1444 C1440 1.391 . S
C1444 C1443 1.371 . S
C1444 H1451 0.930 . S
H1445 C1442 0.928 . S
H1446 C1443 0.931 . S
H1447 C1423 0.930 . S
H1448 C1420 0.930 . S
H1449 C1429 0.930 . S
H1450 C1441 0.929 . S
H1451 C1444 0.930 . S
C1452 C1453 1.351 . S
C1452 N1455 1.368 . S
C1452 H1457 0.931 . S
C1453 C1452 1.351 . S
C1453 N1454 1.373 . S
C1453 H1481 0.930 . S
N1454 C1453 1.373 . S
N1454 C1456 1.340 . S
N1455 C1452 1.368 . S
N1455 C1456 1.321 . S
N1455 Co1458 2.135 . S
C1456 N1454 1.340 . S
C1456 N1455 1.321 . S
C1456 H1480 0.930 . S
H1457 C1452 0.931 . S
Co1458 N1455 2.135 . S
Co1458 N1461 2.121 . S
Co1458 O1466 2.055 . S
Co1458 O1469 2.039 . S
Co1458 N1472 2.140 . S
C1459 O1460 1.227 . S
C1459 O1469 1.265 . S
O1460 C1459 1.227 . S
N1461 Co1458 2.121 . S
N1461 C1463 1.375 . S
N1461 C1464 1.313 . S
C1462 C1463 1.338 . S
C1462 N1465 1.377 . S
C1462 H1482 0.930 . S
C1463 N1461 1.375 . S
C1463 C1462 1.338 . S
C1463 H1467 0.931 . S
C1464 N1461 1.313 . S
C1464 N1465 1.344 . S
C1464 H1468 0.930 . S
N1465 C1462 1.377 . S
N1465 C1464 1.344 . S
O1466 Co1458 2.055 . S
O1466 C1470 1.253 . S
H1467 C1463 0.931 . S
H1468 C1464 0.930 . S
O1469 Co1458 2.039 . S
O1469 C1459 1.265 . S
C1470 O1466 1.253 . S
C1470 O1471 1.227 . S
O1471 C1470 1.227 . S
N1472 Co1458 2.140 . S
N1472 C1475 1.346 . S
N1472 C1476 1.345 . S
C1473 C1474 1.387 . S
C1473 C1477 1.391 . S
C1474 C1473 1.387 . S
C1474 C1475 1.369 . S
C1474 H1483 0.929 . S
C1475 N1472 1.346 . S
C1475 C1474 1.369 . S
C1475 H1478 0.928 . S
C1476 N1472 1.345 . S
C1476 C1477 1.371 . S
C1476 H1479 0.931 . S
C1477 C1473 1.391 . S
C1477 C1476 1.371 . S
C1477 H1484 0.930 . S
H1478 C1475 0.928 . S
H1479 C1476 0.931 . S
H1480 C1456 0.930 . S
H1481 C1453 0.930 . S
H1482 C1462 0.930 . S
H1483 C1474 0.929 . S
H1484 C1477 0.930 . S
C1485 C1486 1.351 . S
C1485 N1488 1.368 . S
C1485 H1490 0.931 . S
C1486 C1485 1.351 . S
C1486 N1487 1.373 . S
C1486 H1514 0.930 . S
N1487 C1486 1.373 . S
N1487 C1489 1.340 . S
N1488 C1485 1.368 . S
N1488 C1489 1.321 . S
N1488 Co1491 2.135 . S
C1489 N1487 1.340 . S
C1489 N1488 1.321 . S
C1489 H1513 0.930 . S
H1490 C1485 0.931 . S
Co1491 N1488 2.135 . S
Co1491 N1494 2.121 . S
Co1491 O1499 2.055 . S
Co1491 O1502 2.039 . S
Co1491 N1505 2.140 . S
C1492 O1493 1.227 . S
C1492 O1502 1.265 . S
O1493 C1492 1.227 . S
N1494 Co1491 2.121 . S
N1494 C1496 1.375 . S
N1494 C1497 1.313 . S
C1495 C1496 1.338 . S
C1495 N1498 1.377 . S
C1495 H1515 0.930 . S
C1496 N1494 1.375 . S
C1496 C1495 1.338 . S
C1496 H1500 0.931 . S
C1497 N1494 1.313 . S
C1497 N1498 1.344 . S
C1497 H1501 0.930 . S
N1498 C1495 1.377 . S
N1498 C1497 1.344 . S
O1499 Co1491 2.055 . S
O1499 C1503 1.253 . S
H1500 C1496 0.931 . S
H1501 C1497 0.930 . S
O1502 Co1491 2.039 . S
O1502 C1492 1.265 . S
C1503 O1499 1.253 . S
C1503 O1504 1.227 . S
O1504 C1503 1.227 . S
N1505 Co1491 2.140 . S
N1505 C1508 1.346 . S
N1505 C1509 1.345 . S
C1506 C1507 1.387 . S
C1506 C1510 1.391 . S
C1507 C1506 1.387 . S
C1507 C1508 1.369 . S
C1507 H1516 0.929 . S
C1508 N1505 1.346 . S
C1508 C1507 1.369 . S
C1508 H1511 0.928 . S
C1509 N1505 1.345 . S
C1509 C1510 1.371 . S
C1509 H1512 0.931 . S
C1510 C1506 1.391 . S
C1510 C1509 1.371 . S
C1510 H1517 0.930 . S
H1511 C1508 0.928 . S
H1512 C1509 0.931 . S
H1513 C1489 0.930 . S
H1514 C1486 0.930 . S
H1515 C1495 0.930 . S
H1516 C1507 0.929 . S
H1517 C1510 0.930 . S
C1518 C1519 1.351 . S
C1518 N1521 1.368 . S
C1518 H1523 0.931 . S
C1519 C1518 1.351 . S
C1519 N1520 1.373 . S
C1519 H1547 0.930 . S
N1520 C1519 1.373 . S
N1520 C1522 1.340 . S
N1521 C1518 1.368 . S
N1521 C1522 1.321 . S
N1521 Co1524 2.135 . S
C1522 N1520 1.340 . S
C1522 N1521 1.321 . S
C1522 H1546 0.930 . S
H1523 C1518 0.931 . S
Co1524 N1521 2.135 . S
Co1524 N1527 2.121 . S
Co1524 O1532 2.055 . S
Co1524 O1535 2.039 . S
Co1524 N1538 2.140 . S
C1525 O1526 1.227 . S
C1525 O1535 1.265 . S
O1526 C1525 1.227 . S
N1527 Co1524 2.121 . S
N1527 C1529 1.375 . S
N1527 C1530 1.313 . S
C1528 C1529 1.338 . S
C1528 N1531 1.377 . S
C1528 H1548 0.930 . S
C1529 N1527 1.375 . S
C1529 C1528 1.338 . S
C1529 H1533 0.931 . S
C1530 N1527 1.313 . S
C1530 N1531 1.344 . S
C1530 H1534 0.930 . S
N1531 C1528 1.377 . S
N1531 C1530 1.344 . S
O1532 Co1524 2.055 . S
O1532 C1536 1.253 . S
H1533 C1529 0.931 . S
H1534 C1530 0.930 . S
O1535 Co1524 2.039 . S
O1535 C1525 1.265 . S
C1536 O1532 1.253 . S
C1536 O1537 1.227 . S
O1537 C1536 1.227 . S
N1538 Co1524 2.140 . S
N1538 C1541 1.346 . S
N1538 C1542 1.345 . S
C1539 C1540 1.387 . S
C1539 C1543 1.391 . S
C1540 C1539 1.387 . S
C1540 C1541 1.369 . S
C1540 H1549 0.929 . S
C1541 N1538 1.346 . S
C1541 C1540 1.369 . S
C1541 H1544 0.928 . S
C1542 N1538 1.345 . S
C1542 C1543 1.371 . S
C1542 H1545 0.931 . S
C1543 C1539 1.391 . S
C1543 C1542 1.371 . S
C1543 H1550 0.930 . S
H1544 C1541 0.928 . S
H1545 C1542 0.931 . S
H1546 C1522 0.930 . S
H1547 C1519 0.930 . S
H1548 C1528 0.930 . S
H1549 C1540 0.929 . S
H1550 C1543 0.930 . S
C1551 C1552 1.351 . S
C1551 N1554 1.368 . S
C1551 H1556 0.931 . S
C1552 C1551 1.351 . S
C1552 N1553 1.373 . S
C1552 H1580 0.930 . S
N1553 C1552 1.373 . S
N1553 C1555 1.340 . S
N1554 C1551 1.368 . S
N1554 C1555 1.321 . S
N1554 Co1557 2.135 . S
C1555 N1553 1.340 . S
C1555 N1554 1.321 . S
C1555 H1579 0.930 . S
H1556 C1551 0.931 . S
Co1557 N1554 2.135 . S
Co1557 N1560 2.121 . S
Co1557 O1565 2.055 . S
Co1557 O1568 2.039 . S
Co1557 N1571 2.140 . S
C1558 O1559 1.227 . S
C1558 O1568 1.265 . S
O1559 C1558 1.227 . S
N1560 Co1557 2.121 . S
N1560 C1562 1.375 . S
N1560 C1563 1.313 . S
C1561 C1562 1.338 . S
C1561 N1564 1.377 . S
C1561 H1581 0.930 . S
C1562 N1560 1.375 . S
C1562 C1561 1.338 . S
C1562 H1566 0.931 . S
C1563 N1560 1.313 . S
C1563 N1564 1.344 . S
C1563 H1567 0.930 . S
N1564 C1561 1.377 . S
N1564 C1563 1.344 . S
O1565 Co1557 2.055 . S
O1565 C1569 1.253 . S
H1566 C1562 0.931 . S
H1567 C1563 0.930 . S
O1568 Co1557 2.039 . S
O1568 C1558 1.265 . S
C1569 O1565 1.253 . S
C1569 O1570 1.227 . S
O1570 C1569 1.227 . S
N1571 Co1557 2.140 . S
N1571 C1574 1.346 . S
N1571 C1575 1.345 . S
C1572 C1573 1.387 . S
C1572 C1576 1.391 . S
C1573 C1572 1.387 . S
C1573 C1574 1.369 . S
C1573 H1582 0.929 . S
C1574 N1571 1.346 . S
C1574 C1573 1.369 . S
C1574 H1577 0.928 . S
C1575 N1571 1.345 . S
C1575 C1576 1.371 . S
C1575 H1578 0.931 . S
C1576 C1572 1.391 . S
C1576 C1575 1.371 . S
C1576 H1583 0.930 . S
H1577 C1574 0.928 . S
H1578 C1575 0.931 . S
H1579 C1555 0.930 . S
H1580 C1552 0.930 . S
H1581 C1561 0.930 . S
H1582 C1573 0.929 . S
H1583 C1576 0.930 . S
H1584 C1590 0.943 . S
H1585 C1593 0.930 . S
H1586 C1594 0.930 . S
H1587 C1595 0.930 . S
H1588 C1598 0.930 . S
H1589 C1599 0.930 . S
C1590 H1584 0.943 . S
C1590 C1591 1.374 . S
C1590 C1592 1.383 1_556 S
C1591 C1590 1.374 . S
C1591 C1593 1.419 . S
C1592 C1590 1.383 1_554 S
C1592 C1597 1.425 . S
C1592 C1599 1.409 . S
C1593 H1585 0.930 . S
C1593 C1591 1.419 . S
C1593 C1594 1.362 1_556 S
C1594 H1586 0.930 . S
C1594 C1593 1.362 1_554 S
C1594 C1597 1.409 . S
C1595 H1587 0.930 . S
C1595 C1596 1.355 . S
C1595 C1597 1.415 . S
C1596 C1595 1.355 . S
C1596 C1598 1.419 . S
C1597 C1592 1.425 . S
C1597 C1594 1.409 . S
C1597 C1595 1.415 . S
C1598 H1588 0.930 . S
C1598 C1596 1.419 . S
C1598 C1599 1.362 . S
C1599 H1589 0.930 . S
C1599 C1592 1.409 . S
C1599 C1598 1.362 . S
H1600 C1606 0.930 . S
H1601 C1609 0.930 . S
H1602 C1610 0.930 . S
H1603 C1611 0.930 . S
H1604 C1614 0.928 1_556 S
H1605 C1615 0.930 . S
C1606 H1600 0.930 . S
C1606 C1607 1.355 . S
C1606 C1608 1.415 . S
C1607 C1606 1.355 . S
C1607 C1609 1.419 . S
C1608 C1606 1.415 . S
C1608 C1613 1.425 . S
C1608 C1615 1.409 . S
C1609 H1601 0.930 . S
C1609 C1607 1.419 . S
C1609 C1610 1.362 . S
C1610 H1602 0.930 . S
C1610 C1609 1.362 . S
C1610 C1613 1.409 . S
C1611 H1603 0.930 . S
C1611 C1612 1.355 . S
C1611 C1613 1.415 1_556 S
C1612 C1611 1.355 . S
C1612 C1614 1.417 1_556 S
C1613 C1608 1.425 . S
C1613 C1610 1.409 . S
C1613 C1611 1.415 1_554 S
C1614 H1604 0.928 1_554 S
C1614 C1612 1.417 1_554 S
C1614 C1615 1.366 . S
C1615 H1605 0.930 . S
C1615 C1608 1.409 . S
C1615 C1614 1.366 . S
H1616 C1622 0.930 . S
H1617 C1625 0.930 . S
H1618 C1626 0.930 . S
H1619 C1627 0.930 . S
H1620 C1630 0.930 1_556 S
H1621 C1631 0.930 . S
C1622 H1616 0.930 . S
C1622 C1623 1.355 . S
C1622 C1624 1.415 . S
C1623 C1622 1.355 . S
C1623 C1625 1.419 . S
C1624 C1622 1.415 . S
C1624 C1629 1.425 . S
C1624 C1631 1.409 . S
C1625 H1617 0.930 . S
C1625 C1623 1.419 . S
C1625 C1626 1.362 . S
C1626 H1618 0.930 . S
C1626 C1625 1.362 . S
C1626 C1629 1.409 . S
C1627 H1619 0.930 . S
C1627 C1628 1.355 . S
C1627 C1629 1.415 1_556 S
C1628 C1627 1.355 . S
C1628 C1630 1.419 1_556 S
C1629 C1624 1.425 . S
C1629 C1626 1.409 . S
C1629 C1627 1.415 1_554 S
C1630 H1620 0.930 1_554 S
C1630 C1628 1.419 1_554 S
C1630 C1631 1.362 . S
C1631 H1621 0.930 . S
C1631 C1624 1.409 . S
C1631 C1630 1.362 . S
H1632 C1638 0.930 1_556 S
H1633 C1641 0.930 . S
H1634 C1642 0.930 . S
H1635 C1643 0.930 . S
H1636 C1646 0.930 . S
H1637 C1647 0.930 . S
C1638 H1632 0.930 1_554 S
C1638 C1639 1.355 1_554 S
C1638 C1640 1.415 . S
C1639 C1638 1.355 1_556 S
C1639 C1641 1.419 . S
C1640 C1638 1.415 . S
C1640 C1645 1.425 . S
C1640 C1647 1.409 . S
C1641 H1633 0.930 . S
C1641 C1639 1.419 . S
C1641 C1642 1.362 1_556 S
C1642 H1634 0.930 . S
C1642 C1641 1.362 1_554 S
C1642 C1645 1.409 . S
C1643 H1635 0.930 . S
C1643 C1644 1.355 . S
C1643 C1645 1.415 . S
C1644 C1643 1.355 . S
C1644 C1646 1.419 . S
C1645 C1640 1.425 . S
C1645 C1642 1.409 . S
C1645 C1643 1.415 . S
C1646 H1636 0.930 . S
C1646 C1644 1.419 . S
C1646 C1647 1.362 . S
C1647 H1637 0.930 . S
C1647 C1640 1.409 . S
C1647 C1646 1.362 . S
H1648 C1654 0.930 . S
H1649 C1657 0.930 1_554 S
H1650 C1658 0.930 . S
H1651 C1659 0.930 . S
H1652 C1662 0.930 . S
H1653 C1663 0.930 . S
C1654 H1648 0.930 . S
C1654 C1655 1.355 . S
C1654 C1656 1.415 1_554 S
C1655 C1654 1.355 . S
C1655 C1657 1.419 1_554 S
C1656 C1654 1.415 1_556 S
C1656 C1661 1.425 . S
C1656 C1663 1.409 . S
C1657 H1649 0.930 1_556 S
C1657 C1655 1.419 1_556 S
C1657 C1658 1.362 . S
C1658 H1650 0.930 . S
C1658 C1657 1.362 . S
C1658 C1661 1.409 . S
C1659 H1651 0.930 . S
C1659 C1660 1.355 . S
C1659 C1661 1.415 . S
C1660 C1659 1.355 . S
C1660 C1662 1.419 . S
C1661 C1656 1.425 . S
C1661 C1658 1.409 . S
C1661 C1659 1.415 . S
C1662 H1652 0.930 . S
C1662 C1660 1.419 . S
C1662 C1663 1.362 . S
C1663 H1653 0.930 . S
C1663 C1656 1.409 . S
C1663 C1662 1.362 . S
H1664 C1670 0.930 . S
H1665 C1673 0.930 . S
H1666 C1674 0.930 . S
H1667 C1675 0.930 . S
H1668 C1678 0.930 . S
H1669 C1679 0.930 . S
C1670 H1664 0.930 . S
C1670 C1671 1.355 . S
C1670 C1672 1.415 . S
C1671 C1670 1.355 . S
C1671 C1673 1.419 . S
C1672 C1670 1.415 . S
C1672 C1677 1.425 . S
C1672 C1679 1.409 . S
C1673 H1665 0.930 . S
C1673 C1671 1.419 . S
C1673 C1674 1.362 . S
C1674 H1666 0.930 . S
C1674 C1673 1.362 . S
C1674 C1677 1.409 . S
C1675 H1667 0.930 . S
C1675 C1676 1.355 . S
C1675 C1677 1.415 1_554 S
C1676 C1675 1.355 . S
C1676 C1678 1.419 . S
C1677 C1672 1.425 . S
C1677 C1674 1.409 . S
C1677 C1675 1.415 1_556 S
C1678 H1668 0.930 . S
C1678 C1676 1.419 . S
C1678 C1679 1.362 1_554 S
C1679 H1669 0.930 . S
C1679 C1672 1.409 . S
C1679 C1678 1.362 1_556 S
H1680 C1686 0.930 . S
H1681 C1689 0.930 . S
H1682 C1690 0.930 . S
H1683 C1691 0.930 . S
H1684 C1694 0.930 . S
H1685 C1695 0.930 . S
C1686 H1680 0.930 . S
C1686 C1687 1.355 1_556 S
C1686 C1688 1.415 . S
C1687 C1686 1.355 1_554 S
C1687 C1689 1.419 . S
C1688 C1686 1.415 . S
C1688 C1693 1.425 . S
C1688 C1695 1.409 . S
C1689 H1681 0.930 . S
C1689 C1687 1.419 . S
C1689 C1690 1.362 1_554 S
C1690 H1682 0.930 . S
C1690 C1689 1.362 1_556 S
C1690 C1693 1.409 . S
C1691 H1683 0.930 . S
C1691 C1692 1.355 . S
C1691 C1693 1.415 . S
C1692 C1691 1.355 . S
C1692 C1694 1.419 . S
C1693 C1688 1.425 . S
C1693 C1690 1.409 . S
C1693 C1691 1.415 . S
C1694 H1684 0.930 . S
C1694 C1692 1.419 . S
C1694 C1695 1.362 . S
C1695 H1685 0.930 . S
C1695 C1688 1.409 . S
C1695 C1694 1.362 . S
H1696 C1702 0.930 . S
H1697 C1705 0.937 . S
H1698 C1706 0.930 . S
H1699 C1707 0.930 . S
H1700 C1710 0.930 . S
H1701 C1711 0.930 . S
C1702 H1696 0.930 . S
C1702 C1703 1.355 . S
C1702 C1704 1.415 1_554 S
C1703 C1702 1.355 . S
C1703 C1705 1.427 . S
C1704 C1702 1.415 1_556 S
C1704 C1709 1.425 . S
C1704 C1711 1.409 . S
C1705 H1697 0.937 . S
C1705 C1703 1.427 . S
C1705 C1706 1.348 1_554 S
C1706 H1698 0.930 . S
C1706 C1705 1.348 1_556 S
C1706 C1709 1.409 . S
C1707 H1699 0.930 . S
C1707 C1708 1.355 . S
C1707 C1709 1.415 . S
C1708 C1707 1.355 . S
C1708 C1710 1.419 . S
C1709 C1704 1.425 . S
C1709 C1706 1.409 . S
C1709 C1707 1.415 . S
C1710 H1700 0.930 . S
C1710 C1708 1.419 . S
C1710 C1711 1.362 . S
C1711 H1701 0.930 . S
C1711 C1704 1.409 . S
C1711 C1710 1.362 . S
H1712 C1718 0.930 . S
H1713 C1721 0.930 . S
H1714 C1722 0.930 . S
H1715 C1723 0.930 . S
H1716 C1726 0.930 . S
H1717 C1727 0.930 . S
C1718 H1712 0.930 . S
C1718 C1719 1.355 . S
C1718 C1720 1.415 . S
C1719 C1718 1.355 . S
C1719 C1721 1.419 . S
C1720 C1718 1.415 . S
C1720 C1725 1.425 . S
C1720 C1727 1.409 . S
C1721 H1713 0.930 . S
C1721 C1719 1.419 . S
C1721 C1722 1.362 . S
C1722 H1714 0.930 . S
C1722 C1721 1.362 . S
C1722 C1725 1.409 . S
C1723 H1715 0.930 . S
C1723 C1724 1.355 1_455 S
C1723 C1725 1.415 . S
C1724 C1723 1.355 1_655 S
C1724 C1726 1.419 . S
C1725 C1720 1.425 . S
C1725 C1722 1.409 . S
C1725 C1723 1.415 . S
C1726 H1716 0.930 . S
C1726 C1724 1.419 . S
C1726 C1727 1.362 1_655 S
C1727 H1717 0.930 . S
C1727 C1720 1.409 . S
C1727 C1726 1.362 1_455 S
H1728 C1734 0.930 . S
H1729 C1737 0.930 1_565 S
H1730 C1738 0.930 . S
H1731 C1739 0.930 . S
H1732 C1742 0.930 . S
H1733 C1743 0.930 . S
C1734 H1728 0.930 . S
C1734 C1735 1.355 . S
C1734 C1736 1.415 1_565 S
C1735 C1734 1.355 . S
C1735 C1737 1.419 1_565 S
C1736 C1734 1.415 1_545 S
C1736 C1741 1.425 . S
C1736 C1743 1.409 . S
C1737 H1729 0.930 1_545 S
C1737 C1735 1.419 1_545 S
C1737 C1738 1.362 . S
C1738 H1730 0.930 . S
C1738 C1737 1.362 . S
C1738 C1741 1.409 . S
C1739 H1731 0.930 . S
C1739 C1740 1.355 . S
C1739 C1741 1.415 . S
C1740 C1739 1.355 . S
C1740 C1742 1.419 . S
C1741 C1736 1.425 . S
C1741 C1738 1.409 . S
C1741 C1739 1.415 . S
C1742 H1732 0.930 . S
C1742 C1740 1.419 . S
C1742 C1743 1.362 . S
C1743 H1733 0.930 . S
C1743 C1736 1.409 . S
C1743 C1742 1.362 . S
H1744 C1750 0.930 . S
H1745 C1753 0.930 . S
H1746 C1754 0.930 . S
H1747 C1755 0.930 . S
H1748 C1758 0.930 . S
H1749 C1759 0.930 . S
C1750 H1744 0.930 . S
C1750 C1751 1.355 1_655 S
C1750 C1752 1.415 . S
C1751 C1750 1.355 1_455 S
C1751 C1753 1.419 . S
C1752 C1750 1.415 . S
C1752 C1757 1.425 . S
C1752 C1759 1.409 . S
C1753 H1745 0.930 . S
C1753 C1751 1.419 . S
C1753 C1754 1.362 1_455 S
C1754 H1746 0.930 . S
C1754 C1753 1.362 1_655 S
C1754 C1757 1.409 . S
C1755 H1747 0.930 . S
C1755 C1756 1.355 . S
C1755 C1757 1.415 . S
C1756 C1755 1.355 . S
C1756 C1758 1.419 . S
C1757 C1752 1.425 . S
C1757 C1754 1.409 . S
C1757 C1755 1.415 . S
C1758 H1748 0.930 . S
C1758 C1756 1.419 . S
C1758 C1759 1.362 . S
C1759 H1749 0.930 . S
C1759 C1752 1.409 . S
C1759 C1758 1.362 . S
H1760 C1766 0.930 . S
H1761 C1769 0.930 . S
H1762 C1770 0.930 . S
H1763 C1771 0.930 . S
H1764 C1774 0.945 . S
H1765 C1775 0.930 . S
C1766 H1760 0.930 . S
C1766 C1767 1.355 . S
C1766 C1768 1.415 . S
C1767 C1766 1.355 . S
C1767 C1769 1.419 . S
C1768 C1766 1.415 . S
C1768 C1773 1.425 . S
C1768 C1775 1.409 . S
C1769 H1761 0.930 . S
C1769 C1767 1.419 . S
C1769 C1770 1.362 . S
C1770 H1762 0.930 . S
C1770 C1769 1.362 . S
C1770 C1773 1.409 . S
C1771 H1763 0.930 . S
C1771 C1772 1.355 . S
C1771 C1773 1.415 1_545 S
C1772 C1771 1.355 . S
C1772 C1774 1.437 . S
C1773 C1768 1.425 . S
C1773 C1770 1.409 . S
C1773 C1771 1.415 1_565 S
C1774 H1764 0.945 . S
C1774 C1772 1.437 . S
C1774 C1775 1.330 1_545 S
C1775 H1765 0.930 . S
C1775 C1768 1.409 . S
C1775 C1774 1.330 1_565 S
H1776 C1782 0.930 . S
H1777 C1785 0.930 . S
H1778 C1786 0.930 . S
H1779 C1787 0.930 . S
H1780 C1790 0.930 . S
H1781 C1791 0.930 . S
C1782 H1776 0.930 . S
C1782 C1783 1.355 1_455 S
C1782 C1784 1.415 . S
C1783 C1782 1.355 1_655 S
C1783 C1785 1.419 . S
C1784 C1782 1.415 . S
C1784 C1789 1.425 . S
C1784 C1791 1.409 . S
C1785 H1777 0.930 . S
C1785 C1783 1.419 . S
C1785 C1786 1.362 1_655 S
C1786 H1778 0.930 . S
C1786 C1785 1.362 1_455 S
C1786 C1789 1.409 . S
C1787 H1779 0.930 . S
C1787 C1788 1.355 . S
C1787 C1789 1.415 . S
C1788 C1787 1.355 . S
C1788 C1790 1.419 . S
C1789 C1784 1.425 . S
C1789 C1786 1.409 . S
C1789 C1787 1.415 . S
C1790 H1780 0.930 . S
C1790 C1788 1.419 . S
C1790 C1791 1.362 . S
C1791 H1781 0.930 . S
C1791 C1784 1.409 . S
C1791 C1790 1.362 . S
H1792 C1798 0.930 . S
H1793 C1801 0.930 . S
H1794 C1802 0.930 . S
H1795 C1803 0.930 . S
H1796 C1806 0.930 . S
H1797 C1807 0.930 . S
C1798 H1792 0.930 . S
C1798 C1799 1.355 . S
C1798 C1800 1.415 . S
C1799 C1798 1.355 . S
C1799 C1801 1.419 . S
C1800 C1798 1.415 . S
C1800 C1805 1.425 . S
C1800 C1807 1.409 . S
C1801 H1793 0.930 . S
C1801 C1799 1.419 . S
C1801 C1802 1.362 . S
C1802 H1794 0.930 . S
C1802 C1801 1.362 . S
C1802 C1805 1.409 . S
C1803 H1795 0.930 . S
C1803 C1804 1.355 1_545 S
C1803 C1805 1.415 . S
C1804 C1803 1.355 1_565 S
C1804 C1806 1.419 . S
C1805 C1800 1.425 . S
C1805 C1802 1.409 . S
C1805 C1803 1.415 . S
C1806 H1796 0.930 . S
C1806 C1804 1.419 . S
C1806 C1807 1.362 1_565 S
C1807 H1797 0.930 . S
C1807 C1800 1.409 . S
C1807 C1806 1.362 1_545 S
H1808 C1814 0.930 . S
H1809 C1817 0.930 1_455 S
H1810 C1818 0.930 . S
H1811 C1819 0.930 . S
H1812 C1822 0.930 . S
H1813 C1823 0.930 . S
C1814 H1808 0.930 . S
C1814 C1815 1.355 . S
C1814 C1816 1.415 1_455 S
C1815 C1814 1.355 . S
C1815 C1817 1.419 1_455 S
C1816 C1814 1.415 1_655 S
C1816 C1821 1.425 . S
C1816 C1823 1.409 . S
C1817 H1809 0.930 1_655 S
C1817 C1815 1.419 1_655 S
C1817 C1818 1.362 . S
C1818 H1810 0.930 . S
C1818 C1817 1.362 . S
C1818 C1821 1.409 . S
C1819 H1811 0.930 . S
C1819 C1820 1.355 . S
C1819 C1821 1.415 . S
C1820 C1819 1.355 . S
C1820 C1822 1.419 . S
C1821 C1816 1.425 . S
C1821 C1818 1.409 . S
C1821 C1819 1.415 . S
C1822 H1812 0.930 . S
C1822 C1820 1.419 . S
C1822 C1823 1.362 . S
C1823 H1813 0.930 . S
C1823 C1816 1.409 . S
C1823 C1822 1.362 . S
H1824 C1830 0.930 . S
H1825 C1833 0.930 1_545 S
H1826 C1834 0.930 . S
H1827 C1835 0.930 . S
H1828 C1838 0.930 . S
H1829 C1839 0.930 . S
C1830 H1824 0.930 . S
C1830 C1831 1.355 . S
C1830 C1832 1.415 1_545 S
C1831 C1830 1.355 . S
C1831 C1833 1.419 1_545 S
C1832 C1830 1.415 1_565 S
C1832 C1837 1.425 . S
C1832 C1839 1.409 . S
C1833 H1825 0.930 1_565 S
C1833 C1831 1.419 1_565 S
C1833 C1834 1.362 . S
C1834 H1826 0.930 . S
C1834 C1833 1.362 . S
C1834 C1837 1.409 . S
C1835 H1827 0.930 . S
C1835 C1836 1.355 . S
C1835 C1837 1.415 . S
C1836 C1835 1.355 . S
C1836 C1838 1.419 . S
C1837 C1832 1.425 . S
C1837 C1834 1.409 . S
C1837 C1835 1.415 . S
C1838 H1828 0.930 . S
C1838 C1836 1.419 . S
C1838 C1839 1.362 . S
C1839 H1829 0.930 . S
C1839 C1832 1.409 . S
C1839 C1838 1.362 . S
H1840 C1846 0.930 . S
H1841 C1849 0.930 . S
H1842 C1850 0.930 . S
H1843 C1851 0.930 . S
H1844 C1854 0.930 . S
H1845 C1855 0.930 . S
C1846 H1840 0.930 . S
C1846 C1847 1.355 . S
C1846 C1848 1.415 . S
C1847 C1846 1.355 . S
C1847 C1849 1.419 . S
C1848 C1846 1.415 . S
C1848 C1853 1.425 . S
C1848 C1855 1.409 . S
C1849 H1841 0.930 . S
C1849 C1847 1.419 . S
C1849 C1850 1.362 . S
C1850 H1842 0.930 . S
C1850 C1849 1.362 . S
C1850 C1853 1.409 . S
C1851 H1843 0.930 . S
C1851 C1852 1.355 1_545 S
C1851 C1853 1.415 . S
C1852 C1851 1.355 1_565 S
C1852 C1854 1.419 . S
C1853 C1848 1.425 . S
C1853 C1850 1.409 . S
C1853 C1851 1.415 . S
C1854 H1844 0.930 . S
C1854 C1852 1.419 . S
C1854 C1855 1.362 1_565 S
C1855 H1845 0.930 . S
C1855 C1848 1.409 . S
C1855 C1854 1.362 1_545 S
H1856 C1862 0.930 . S
H1857 C1865 0.939 . S
H1858 C1866 0.930 . S
H1859 C1867 0.930 . S
H1860 C1870 0.930 . S
H1861 C1871 0.930 . S
C1862 H1856 0.930 . S
C1862 C1863 1.355 . S
C1862 C1864 1.415 1_545 S
C1863 C1862 1.355 . S
C1863 C1865 1.430 . S
C1864 C1862 1.415 1_565 S
C1864 C1869 1.425 . S
C1864 C1871 1.409 . S
C1865 H1857 0.939 . S
C1865 C1863 1.430 . S
C1865 C1866 1.342 1_545 S
C1866 H1858 0.930 . S
C1866 C1865 1.342 1_565 S
C1866 C1869 1.409 . S
C1867 H1859 0.930 . S
C1867 C1868 1.355 . S
C1867 C1869 1.415 . S
C1868 C1867 1.355 . S
C1868 C1870 1.419 . S
C1869 C1864 1.425 . S
C1869 C1866 1.409 . S
C1869 C1867 1.415 . S
C1870 H1860 0.930 . S
C1870 C1868 1.419 . S
C1870 C1871 1.362 . S
C1871 H1861 0.930 . S
C1871 C1864 1.409 . S
C1871 C1870 1.362 . S
H1872 C1878 0.930 . S
H1873 C1881 0.930 . S
H1874 C1882 0.930 . S
H1875 C1883 0.930 . S
H1876 C1886 0.930 1_655 S
H1877 C1887 0.930 . S
C1878 H1872 0.930 . S
C1878 C1879 1.355 . S
C1878 C1880 1.415 . S
C1879 C1878 1.355 . S
C1879 C1881 1.419 . S
C1880 C1878 1.415 . S
C1880 C1885 1.425 . S
C1880 C1887 1.409 . S
C1881 H1873 0.930 . S
C1881 C1879 1.419 . S
C1881 C1882 1.362 . S
C1882 H1874 0.930 . S
C1882 C1881 1.362 . S
C1882 C1885 1.409 . S
C1883 H1875 0.930 . S
C1883 C1884 1.355 . S
C1883 C1885 1.415 1_655 S
C1884 C1883 1.355 . S
C1884 C1886 1.419 1_655 S
C1885 C1880 1.425 . S
C1885 C1882 1.409 . S
C1885 C1883 1.415 1_455 S
C1886 H1876 0.930 1_455 S
C1886 C1884 1.419 1_455 S
C1886 C1887 1.362 . S
C1887 H1877 0.930 . S
C1887 C1880 1.409 . S
C1887 C1886 1.362 . S
H1888 C1894 0.930 . S
H1889 C1897 0.930 . S
H1890 C1898 0.930 . S
H1891 C1899 0.930 . S
H1892 C1902 0.930 . S
H1893 C1903 0.930 . S
C1894 H1888 0.930 . S
C1894 C1895 1.355 1_545 S
C1894 C1896 1.415 . S
C1895 C1894 1.355 1_565 S
C1895 C1897 1.419 . S
C1896 C1894 1.415 . S
C1896 C1901 1.425 . S
C1896 C1903 1.409 . S
C1897 H1889 0.930 . S
C1897 C1895 1.419 . S
C1897 C1898 1.362 1_565 S
C1898 H1890 0.930 . S
C1898 C1897 1.362 1_545 S
C1898 C1901 1.409 . S
C1899 H1891 0.930 . S
C1899 C1900 1.355 . S
C1899 C1901 1.415 . S
C1900 C1899 1.355 . S
C1900 C1902 1.419 . S
C1901 C1896 1.425 . S
C1901 C1898 1.409 . S
C1901 C1899 1.415 . S
C1902 H1892 0.930 . S
C1902 C1900 1.419 . S
C1902 C1903 1.362 . S
C1903 H1893 0.930 . S
C1903 C1896 1.409 . S
C1903 C1902 1.362 . S
H1904 C1910 0.930 . S
H1905 C1913 0.935 . S
H1906 C1914 0.930 . S
H1907 C1915 0.930 . S
H1908 C1918 0.930 . S
H1909 C1919 0.930 . S
C1910 H1904 0.930 . S
C1910 C1911 1.355 . S
C1910 C1912 1.415 1_455 S
C1911 C1910 1.355 . S
C1911 C1913 1.426 . S
C1912 C1910 1.415 1_655 S
C1912 C1917 1.425 . S
C1912 C1919 1.409 . S
C1913 H1905 0.935 . S
C1913 C1911 1.426 . S
C1913 C1914 1.351 1_455 S
C1914 H1906 0.930 . S
C1914 C1913 1.351 1_655 S
C1914 C1917 1.409 . S
C1915 H1907 0.930 . S
C1915 C1916 1.355 . S
C1915 C1917 1.415 . S
C1916 C1915 1.355 . S
C1916 C1918 1.419 . S
C1917 C1912 1.425 . S
C1917 C1914 1.409 . S
C1917 C1915 1.415 . S
C1918 H1908 0.930 . S
C1918 C1916 1.419 . S
C1918 C1919 1.362 . S
C1919 H1909 0.930 . S
C1919 C1912 1.409 . S
C1919 C1918 1.362 . S
H1920 C1926 0.930 . S
H1921 C1929 0.930 . S
H1922 C1930 0.930 . S
H1923 C1931 0.930 . S
H1924 C1934 0.920 1_545 S
H1925 C1935 0.930 . S
C1926 H1920 0.930 . S
C1926 C1927 1.355 . S
C1926 C1928 1.415 . S
C1927 C1926 1.355 . S
C1927 C1929 1.419 . S
C1928 C1926 1.415 . S
C1928 C1933 1.425 . S
C1928 C1935 1.409 . S
C1929 H1921 0.930 . S
C1929 C1927 1.419 . S
C1929 C1930 1.362 . S
C1930 H1922 0.930 . S
C1930 C1929 1.362 . S
C1930 C1933 1.409 . S
C1931 H1923 0.930 . S
C1931 C1932 1.355 . S
C1931 C1933 1.415 1_545 S
C1932 C1931 1.355 . S
C1932 C1934 1.404 1_545 S
C1933 C1928 1.425 . S
C1933 C1930 1.409 . S
C1933 C1931 1.415 1_565 S
C1934 H1924 0.920 1_565 S
C1934 C1932 1.404 1_565 S
C1934 C1935 1.388 . S
C1935 H1925 0.930 . S
C1935 C1928 1.409 . S
C1935 C1934 1.388 . S
H1936 C1942 0.930 . S
H1937 C1945 0.930 . S
H1938 C1946 0.930 . S
H1939 C1947 0.930 . S
H1940 C1950 0.930 . S
H1941 C1951 0.930 . S
C1942 H1936 0.930 . S
C1942 C1943 1.355 . S
C1942 C1944 1.415 . S
C1943 C1942 1.355 . S
C1943 C1945 1.419 . S
C1944 C1942 1.415 . S
C1944 C1949 1.425 . S
C1944 C1951 1.409 . S
C1945 H1937 0.930 . S
C1945 C1943 1.419 . S
C1945 C1946 1.362 . S
C1946 H1938 0.930 . S
C1946 C1945 1.362 . S
C1946 C1949 1.409 . S
C1947 H1939 0.930 . S
C1947 C1948 1.355 1_455 S
C1947 C1949 1.415 . S
C1948 C1947 1.355 1_655 S
C1948 C1950 1.419 . S
C1949 C1944 1.425 . S
C1949 C1946 1.409 . S
C1949 C1947 1.415 . S
C1950 H1940 0.930 . S
C1950 C1948 1.419 . S
C1950 C1951 1.362 1_655 S
C1951 H1941 0.930 . S
C1951 C1944 1.409 . S
C1951 C1950 1.362 1_455 S
H1952 C1958 0.930 . S
H1953 C1961 0.930 . S
H1954 C1962 0.930 . S
H1955 C1963 0.930 . S
H1956 C1966 0.930 . S
H1957 C1967 0.930 . S
C1958 H1952 0.930 . S
C1958 C1959 1.355 1_655 S
C1958 C1960 1.415 . S
C1959 C1958 1.355 1_455 S
C1959 C1961 1.419 . S
C1960 C1958 1.415 . S
C1960 C1965 1.425 . S
C1960 C1967 1.409 . S
C1961 H1953 0.930 . S
C1961 C1959 1.419 . S
C1961 C1962 1.362 1_455 S
C1962 H1954 0.930 . S
C1962 C1961 1.362 1_655 S
C1962 C1965 1.409 . S
C1963 H1955 0.930 . S
C1963 C1964 1.355 . S
C1963 C1965 1.415 . S
C1964 C1963 1.355 . S
C1964 C1966 1.419 . S
C1965 C1960 1.425 . S
C1965 C1962 1.409 . S
C1965 C1963 1.415 . S
C1966 H1956 0.930 . S
C1966 C1964 1.419 . S
C1966 C1967 1.362 . S
C1967 H1957 0.930 . S
C1967 C1960 1.409 . S
C1967 C1966 1.362 . S
H1968 C1974 0.930 . S
H1969 C1977 0.930 . S
H1970 C1978 0.930 . S
H1971 C1979 0.930 . S
H1972 C1982 0.930 . S
H1973 C1983 0.930 . S
C1974 H1968 0.930 . S
C1974 C1975 1.355 . S
C1974 C1976 1.415 . S
C1975 C1974 1.355 . S
C1975 C1977 1.419 . S
C1976 C1974 1.415 . S
C1976 C1981 1.425 . S
C1976 C1983 1.409 . S
C1977 H1969 0.930 . S
C1977 C1975 1.419 . S
C1977 C1978 1.362 . S
C1978 H1970 0.930 . S
C1978 C1977 1.362 . S
C1978 C1981 1.409 . S
C1979 H1971 0.930 . S
C1979 C1980 1.355 . S
C1979 C1981 1.415 . S
C1980 C1979 1.355 . S
C1980 C1982 1.419 . S
C1981 C1976 1.425 . S
C1981 C1978 1.409 . S
C1981 C1979 1.415 . S
C1982 H1972 0.930 . S
C1982 C1980 1.419 . S
C1982 C1983 1.362 . S
C1983 H1973 0.930 . S
C1983 C1976 1.409 . S
C1983 C1982 1.362 . S
H1984 C1990 0.930 . S
H1985 C1993 0.930 . S
H1986 C1994 0.930 . S
H1987 C1995 0.930 . S
H1988 C1998 0.930 . S
H1989 C1999 0.930 . S
C1990 H1984 0.930 . S
C1990 C1991 1.355 . S
C1990 C1992 1.415 . S
C1991 C1990 1.355 . S
C1991 C1993 1.419 . S
C1992 C1990 1.415 . S
C1992 C1997 1.425 . S
C1992 C1999 1.409 . S
C1993 H1985 0.930 . S
C1993 C1991 1.419 . S
C1993 C1994 1.362 . S
C1994 H1986 0.930 . S
C1994 C1993 1.362 . S
C1994 C1997 1.409 . S
C1995 H1987 0.930 . S
C1995 C1996 1.355 . S
C1995 C1997 1.415 . S
C1996 C1995 1.355 . S
C1996 C1998 1.419 . S
C1997 C1992 1.425 . S
C1997 C1994 1.409 . S
C1997 C1995 1.415 . S
C1998 H1988 0.930 . S
C1998 C1996 1.419 . S
C1998 C1999 1.362 . S
C1999 H1989 0.930 . S
C1999 C1992 1.409 . S
C1999 C1998 1.362 . S
H2000 C2006 0.930 . S
H2001 C2009 0.930 . S
H2002 C2010 0.930 . S
H2003 C2011 0.930 . S
H2004 C2014 0.930 . S
H2005 C2015 0.930 . S
C2006 H2000 0.930 . S
C2006 C2007 1.355 . S
C2006 C2008 1.415 . S
C2007 C2006 1.355 . S
C2007 C2009 1.419 . S
C2008 C2006 1.415 . S
C2008 C2013 1.425 . S
C2008 C2015 1.409 . S
C2009 H2001 0.930 . S
C2009 C2007 1.419 . S
C2009 C2010 1.362 . S
C2010 H2002 0.930 . S
C2010 C2009 1.362 . S
C2010 C2013 1.409 . S
C2011 H2003 0.930 . S
C2011 C2012 1.355 . S
C2011 C2013 1.415 . S
C2012 C2011 1.355 . S
C2012 C2014 1.419 . S
C2013 C2008 1.425 . S
C2013 C2010 1.409 . S
C2013 C2011 1.415 . S
C2014 H2004 0.930 . S
C2014 C2012 1.419 . S
C2014 C2015 1.362 . S
C2015 H2005 0.930 . S
C2015 C2008 1.409 . S
C2015 C2014 1.362 . S
H2016 C2022 0.930 . S
H2017 C2025 0.930 . S
H2018 C2026 0.930 . S
H2019 C2027 0.930 . S
H2020 C2030 0.930 . S
H2021 C2031 0.930 . S
C2022 H2016 0.930 . S
C2022 C2023 1.355 . S
C2022 C2024 1.415 . S
C2023 C2022 1.355 . S
C2023 C2025 1.419 . S
C2024 C2022 1.415 . S
C2024 C2029 1.425 . S
C2024 C2031 1.409 . S
C2025 H2017 0.930 . S
C2025 C2023 1.419 . S
C2025 C2026 1.362 . S
C2026 H2018 0.930 . S
C2026 C2025 1.362 . S
C2026 C2029 1.409 . S
C2027 H2019 0.930 . S
C2027 C2028 1.355 . S
C2027 C2029 1.415 . S
C2028 C2027 1.355 . S
C2028 C2030 1.419 . S
C2029 C2024 1.425 . S
C2029 C2026 1.409 . S
C2029 C2027 1.415 . S
C2030 H2020 0.930 . S
C2030 C2028 1.419 . S
C2030 C2031 1.362 . S
C2031 H2021 0.930 . S
C2031 C2024 1.409 . S
C2031 C2030 1.362 . S
H2032 C2038 0.930 . S
H2033 C2041 0.930 . S
H2034 C2042 0.930 . S
H2035 C2043 0.930 . S
H2036 C2046 0.930 . S
H2037 C2047 0.930 . S
C2038 H2032 0.930 . S
C2038 C2039 1.355 . S
C2038 C2040 1.415 . S
C2039 C2038 1.355 . S
C2039 C2041 1.419 . S
C2040 C2038 1.415 . S
C2040 C2045 1.425 . S
C2040 C2047 1.409 . S
C2041 H2033 0.930 . S
C2041 C2039 1.419 . S
C2041 C2042 1.362 . S
C2042 H2034 0.930 . S
C2042 C2041 1.362 . S
C2042 C2045 1.409 . S
C2043 H2035 0.930 . S
C2043 C2044 1.355 . S
C2043 C2045 1.415 . S
C2044 C2043 1.355 . S
C2044 C2046 1.419 . S
C2045 C2040 1.425 . S
C2045 C2042 1.409 . S
C2045 C2043 1.415 . S
C2046 H2036 0.930 . S
C2046 C2044 1.419 . S
C2046 C2047 1.362 . S
C2047 H2037 0.930 . S
C2047 C2040 1.409 . S
C2047 C2046 1.362 . S
H2048 C2054 0.930 . S
H2049 C2057 0.930 . S
H2050 C2058 0.930 . S
H2051 C2059 0.930 . S
H2052 C2062 0.930 . S
H2053 C2063 0.930 . S
C2054 H2048 0.930 . S
C2054 C2055 1.355 . S
C2054 C2056 1.415 . S
C2055 C2054 1.355 . S
C2055 C2057 1.419 . S
C2056 C2054 1.415 . S
C2056 C2061 1.425 . S
C2056 C2063 1.409 . S
C2057 H2049 0.930 . S
C2057 C2055 1.419 . S
C2057 C2058 1.362 . S
C2058 H2050 0.930 . S
C2058 C2057 1.362 . S
C2058 C2061 1.409 . S
C2059 H2051 0.930 . S
C2059 C2060 1.355 . S
C2059 C2061 1.415 . S
C2060 C2059 1.355 . S
C2060 C2062 1.419 . S
C2061 C2056 1.425 . S
C2061 C2058 1.409 . S
C2061 C2059 1.415 . S
C2062 H2052 0.930 . S
C2062 C2060 1.419 . S
C2062 C2063 1.362 . S
C2063 H2053 0.930 . S
C2063 C2056 1.409 . S
C2063 C2062 1.362 . S
H2064 C2070 0.930 . S
H2065 C2073 0.930 . S
H2066 C2074 0.930 . S
H2067 C2075 0.930 . S
H2068 C2078 0.930 . S
H2069 C2079 0.930 . S
C2070 H2064 0.930 . S
C2070 C2071 1.355 . S
C2070 C2072 1.415 . S
C2071 C2070 1.355 . S
C2071 C2073 1.419 . S
C2072 C2070 1.415 . S
C2072 C2077 1.425 . S
C2072 C2079 1.409 . S
C2073 H2065 0.930 . S
C2073 C2071 1.419 . S
C2073 C2074 1.362 . S
C2074 H2066 0.930 . S
C2074 C2073 1.362 . S
C2074 C2077 1.409 . S
C2075 H2067 0.930 . S
C2075 C2076 1.355 . S
C2075 C2077 1.415 . S
C2076 C2075 1.355 . S
C2076 C2078 1.419 . S
C2077 C2072 1.425 . S
C2077 C2074 1.409 . S
C2077 C2075 1.415 . S
C2078 H2068 0.930 . S
C2078 C2076 1.419 . S
C2078 C2079 1.362 . S
C2079 H2069 0.930 . S
C2079 C2072 1.409 . S
C2079 C2078 1.362 . S
H2080 C2086 0.930 . S
H2081 C2089 0.930 . S
H2082 C2090 0.930 . S
H2083 C2091 0.930 . S
H2084 C2094 0.930 . S
H2085 C2095 0.930 . S
C2086 H2080 0.930 . S
C2086 C2087 1.355 . S
C2086 C2088 1.415 . S
C2087 C2086 1.355 . S
C2087 C2089 1.419 . S
C2088 C2086 1.415 . S
C2088 C2093 1.425 . S
C2088 C2095 1.409 . S
C2089 H2081 0.930 . S
C2089 C2087 1.419 . S
C2089 C2090 1.362 . S
C2090 H2082 0.930 . S
C2090 C2089 1.362 . S
C2090 C2093 1.409 . S
C2091 H2083 0.930 . S
C2091 C2092 1.355 . S
C2091 C2093 1.415 . S
C2092 C2091 1.355 . S
C2092 C2094 1.419 . S
C2093 C2088 1.425 . S
C2093 C2090 1.409 . S
C2093 C2091 1.415 . S
C2094 H2084 0.930 . S
C2094 C2092 1.419 . S
C2094 C2095 1.362 . S
C2095 H2085 0.930 . S
C2095 C2088 1.409 . S
C2095 C2094 1.362 . S
H2096 C2102 0.930 . S
H2097 C2105 0.930 . S
H2098 C2106 0.930 . S
H2099 C2107 0.930 . S
H2100 C2110 0.930 . S
H2101 C2111 0.930 . S
C2102 H2096 0.930 . S
C2102 C2103 1.355 . S
C2102 C2104 1.415 . S
C2103 C2102 1.355 . S
C2103 C2105 1.419 . S
C2104 C2102 1.415 . S
C2104 C2109 1.425 . S
C2104 C2111 1.409 . S
C2105 H2097 0.930 . S
C2105 C2103 1.419 . S
C2105 C2106 1.362 . S
C2106 H2098 0.930 . S
C2106 C2105 1.362 . S
C2106 C2109 1.409 . S
C2107 H2099 0.930 . S
C2107 C2108 1.355 . S
C2107 C2109 1.415 . S
C2108 C2107 1.355 . S
C2108 C2110 1.419 . S
C2109 C2104 1.425 . S
C2109 C2106 1.409 . S
C2109 C2107 1.415 . S
C2110 H2100 0.930 . S
C2110 C2108 1.419 . S
C2110 C2111 1.362 . S
C2111 H2101 0.930 . S
C2111 C2104 1.409 . S
C2111 C2110 1.362 . S
H2112 C2118 0.930 . S
H2113 C2121 0.930 . S
H2114 C2122 0.930 . S
H2115 C2123 0.930 . S
H2116 C2126 0.930 . S
H2117 C2127 0.930 . S
C2118 H2112 0.930 . S
C2118 C2119 1.355 . S
C2118 C2120 1.415 . S
C2119 C2118 1.355 . S
C2119 C2121 1.419 . S
C2120 C2118 1.415 . S
C2120 C2125 1.425 . S
C2120 C2127 1.409 . S
C2121 H2113 0.930 . S
C2121 C2119 1.419 . S
C2121 C2122 1.362 . S
C2122 H2114 0.930 . S
C2122 C2121 1.362 . S
C2122 C2125 1.409 . S
C2123 H2115 0.930 . S
C2123 C2124 1.355 . S
C2123 C2125 1.415 . S
C2124 C2123 1.355 . S
C2124 C2126 1.419 . S
C2125 C2120 1.425 . S
C2125 C2122 1.409 . S
C2125 C2123 1.415 . S
C2126 H2116 0.930 . S
C2126 C2124 1.419 . S
C2126 C2127 1.362 . S
C2127 H2117 0.930 . S
C2127 C2120 1.409 . S
C2127 C2126 1.362 . S
H2128 C2134 0.930 . S
H2129 C2137 0.930 . S
H2130 C2138 0.930 . S
H2131 C2139 0.930 . S
H2132 C2142 0.930 . S
H2133 C2143 0.930 . S
C2134 H2128 0.930 . S
C2134 C2135 1.355 . S
C2134 C2136 1.415 . S
C2135 C2134 1.355 . S
C2135 C2137 1.419 . S
C2136 C2134 1.415 . S
C2136 C2141 1.425 . S
C2136 C2143 1.409 . S
C2137 H2129 0.930 . S
C2137 C2135 1.419 . S
C2137 C2138 1.362 . S
C2138 H2130 0.930 . S
C2138 C2137 1.362 . S
C2138 C2141 1.409 . S
C2139 H2131 0.930 . S
C2139 C2140 1.355 . S
C2139 C2141 1.415 . S
C2140 C2139 1.355 . S
C2140 C2142 1.419 . S
C2141 C2136 1.425 . S
C2141 C2138 1.409 . S
C2141 C2139 1.415 . S
C2142 H2132 0.930 . S
C2142 C2140 1.419 . S
C2142 C2143 1.362 . S
C2143 H2133 0.930 . S
C2143 C2136 1.409 . S
C2143 C2142 1.362 . S
H2144 C2150 0.930 . S
H2145 C2153 0.930 . S
H2146 C2154 0.930 . S
H2147 C2155 0.930 . S
H2148 C2158 0.930 . S
H2149 C2159 0.930 . S
C2150 H2144 0.930 . S
C2150 C2151 1.355 . S
C2150 C2152 1.415 . S
C2151 C2150 1.355 . S
C2151 C2153 1.419 . S
C2152 C2150 1.415 . S
C2152 C2157 1.425 . S
C2152 C2159 1.409 . S
C2153 H2145 0.930 . S
C2153 C2151 1.419 . S
C2153 C2154 1.362 . S
C2154 H2146 0.930 . S
C2154 C2153 1.362 . S
C2154 C2157 1.409 . S
C2155 H2147 0.930 . S
C2155 C2156 1.355 . S
C2155 C2157 1.415 . S
C2156 C2155 1.355 . S
C2156 C2158 1.419 . S
C2157 C2152 1.425 . S
C2157 C2154 1.409 . S
C2157 C2155 1.415 . S
C2158 H2148 0.930 . S
C2158 C2156 1.419 . S
C2158 C2159 1.362 . S
C2159 H2149 0.930 . S
C2159 C2152 1.409 . S
C2159 C2158 1.362 . S
H2160 C2166 0.930 . S
H2161 C2169 0.930 . S
H2162 C2170 0.930 . S
H2163 C2171 0.930 . S
H2164 C2174 0.930 . S
H2165 C2175 0.930 . S
C2166 H2160 0.930 . S
C2166 C2167 1.355 . S
C2166 C2168 1.415 . S
C2167 C2166 1.355 . S
C2167 C2169 1.419 . S
C2168 C2166 1.415 . S
C2168 C2173 1.425 . S
C2168 C2175 1.409 . S
C2169 H2161 0.930 . S
C2169 C2167 1.419 . S
C2169 C2170 1.362 . S
C2170 H2162 0.930 . S
C2170 C2169 1.362 . S
C2170 C2173 1.409 . S
C2171 H2163 0.930 . S
C2171 C2172 1.355 . S
C2171 C2173 1.415 . S
C2172 C2171 1.355 . S
C2172 C2174 1.419 . S
C2173 C2168 1.425 . S
C2173 C2170 1.409 . S
C2173 C2171 1.415 . S
C2174 H2164 0.930 . S
C2174 C2172 1.419 . S
C2174 C2175 1.362 . S
C2175 H2165 0.930 . S
C2175 C2168 1.409 . S
C2175 C2174 1.362 . S
H2176 C2182 0.930 . S
H2177 C2185 0.930 . S
H2178 C2186 0.930 . S
H2179 C2187 0.930 . S
H2180 C2190 0.930 . S
H2181 C2191 0.930 . S
C2182 H2176 0.930 . S
C2182 C2183 1.355 . S
C2182 C2184 1.415 . S
C2183 C2182 1.355 . S
C2183 C2185 1.419 . S
C2184 C2182 1.415 . S
C2184 C2189 1.425 . S
C2184 C2191 1.409 . S
C2185 H2177 0.930 . S
C2185 C2183 1.419 . S
C2185 C2186 1.362 . S
C2186 H2178 0.930 . S
C2186 C2185 1.362 . S
C2186 C2189 1.409 . S
C2187 H2179 0.930 . S
C2187 C2188 1.355 . S
C2187 C2189 1.415 . S
C2188 C2187 1.355 . S
C2188 C2190 1.419 . S
C2189 C2184 1.425 . S
C2189 C2186 1.409 . S
C2189 C2187 1.415 . S
C2190 H2180 0.930 . S
C2190 C2188 1.419 . S
C2190 C2191 1.362 . S
C2191 H2181 0.930 . S
C2191 C2184 1.409 . S
C2191 C2190 1.362 . S
H2192 C2198 0.930 . S
H2193 C2201 0.930 . S
H2194 C2202 0.930 . S
H2195 C2203 0.930 . S
H2196 C2206 0.930 . S
H2197 C2207 0.930 . S
C2198 H2192 0.930 . S
C2198 C2199 1.355 . S
C2198 C2200 1.415 . S
C2199 C2198 1.355 . S
C2199 C2201 1.419 . S
C2200 C2198 1.415 . S
C2200 C2205 1.425 . S
C2200 C2207 1.409 . S
C2201 H2193 0.930 . S
C2201 C2199 1.419 . S
C2201 C2202 1.362 . S
C2202 H2194 0.930 . S
C2202 C2201 1.362 . S
C2202 C2205 1.409 . S
C2203 H2195 0.930 . S
C2203 C2204 1.355 . S
C2203 C2205 1.415 . S
C2204 C2203 1.355 . S
C2204 C2206 1.419 . S
C2205 C2200 1.425 . S
C2205 C2202 1.409 . S
C2205 C2203 1.415 . S
C2206 H2196 0.930 . S
C2206 C2204 1.419 . S
C2206 C2207 1.362 . S
C2207 H2197 0.930 . S
C2207 C2200 1.409 . S
C2207 C2206 1.362 . S
H2208 C2214 0.930 . S
H2209 C2217 0.930 . S
H2210 C2218 0.930 . S
H2211 C2219 0.930 . S
H2212 C2222 0.930 . S
H2213 C2223 0.930 . S
C2214 H2208 0.930 . S
C2214 C2215 1.355 . S
C2214 C2216 1.415 . S
C2215 C2214 1.355 . S
C2215 C2217 1.419 . S
C2216 C2214 1.415 . S
C2216 C2221 1.425 . S
C2216 C2223 1.409 . S
C2217 H2209 0.930 . S
C2217 C2215 1.419 . S
C2217 C2218 1.362 . S
C2218 H2210 0.930 . S
C2218 C2217 1.362 . S
C2218 C2221 1.409 . S
C2219 H2211 0.930 . S
C2219 C2220 1.355 . S
C2219 C2221 1.415 . S
C2220 C2219 1.355 . S
C2220 C2222 1.419 . S
C2221 C2216 1.425 . S
C2221 C2218 1.409 . S
C2221 C2219 1.415 . S
C2222 H2212 0.930 . S
C2222 C2220 1.419 . S
C2222 C2223 1.362 . S
C2223 H2213 0.930 . S
C2223 C2216 1.409 . S
C2223 C2222 1.362 . S
H2224 C2230 0.930 . S
H2225 C2233 0.930 . S
H2226 C2234 0.930 . S
H2227 C2235 0.930 . S
H2228 C2238 0.930 . S
H2229 C2239 0.930 . S
C2230 H2224 0.930 . S
C2230 C2231 1.355 . S
C2230 C2232 1.415 . S
C2231 C2230 1.355 . S
C2231 C2233 1.419 . S
C2232 C2230 1.415 . S
C2232 C2237 1.425 . S
C2232 C2239 1.409 . S
C2233 H2225 0.930 . S
C2233 C2231 1.419 . S
C2233 C2234 1.362 . S
C2234 H2226 0.930 . S
C2234 C2233 1.362 . S
C2234 C2237 1.409 . S
C2235 H2227 0.930 . S
C2235 C2236 1.355 . S
C2235 C2237 1.415 . S
C2236 C2235 1.355 . S
C2236 C2238 1.419 . S
C2237 C2232 1.425 . S
C2237 C2234 1.409 . S
C2237 C2235 1.415 . S
C2238 H2228 0.930 . S
C2238 C2236 1.419 . S
C2238 C2239 1.362 . S
C2239 H2229 0.930 . S
C2239 C2232 1.409 . S
C2239 C2238 1.362 . S
H2240 C2246 0.930 . S
H2241 C2249 0.930 . S
H2242 C2250 0.930 . S
H2243 C2251 0.930 . S
H2244 C2254 0.930 . S
H2245 C2255 0.930 . S
C2246 H2240 0.930 . S
C2246 C2247 1.355 . S
C2246 C2248 1.415 . S
C2247 C2246 1.355 . S
C2247 C2249 1.419 . S
C2248 C2246 1.415 . S
C2248 C2253 1.425 . S
C2248 C2255 1.409 . S
C2249 H2241 0.930 . S
C2249 C2247 1.419 . S
C2249 C2250 1.362 . S
C2250 H2242 0.930 . S
C2250 C2249 1.362 . S
C2250 C2253 1.409 . S
C2251 H2243 0.930 . S
C2251 C2252 1.355 . S
C2251 C2253 1.415 . S
C2252 C2251 1.355 . S
C2252 C2254 1.419 . S
C2253 C2248 1.425 . S
C2253 C2250 1.409 . S
C2253 C2251 1.415 . S
C2254 H2244 0.930 . S
C2254 C2252 1.419 . S
C2254 C2255 1.362 . S
C2255 H2245 0.930 . S
C2255 C2248 1.409 . S
C2255 C2254 1.362 . S
H2256 C2262 0.930 . S
H2257 C2265 0.930 . S
H2258 C2266 0.930 . S
H2259 C2267 0.930 . S
H2260 C2270 0.930 . S
H2261 C2271 0.930 . S
C2262 H2256 0.930 . S
C2262 C2263 1.355 . S
C2262 C2264 1.415 . S
C2263 C2262 1.355 . S
C2263 C2265 1.419 . S
C2264 C2262 1.415 . S
C2264 C2269 1.425 . S
C2264 C2271 1.409 . S
C2265 H2257 0.930 . S
C2265 C2263 1.419 . S
C2265 C2266 1.362 . S
C2266 H2258 0.930 . S
C2266 C2265 1.362 . S
C2266 C2269 1.409 . S
C2267 H2259 0.930 . S
C2267 C2268 1.355 . S
C2267 C2269 1.415 . S
C2268 C2267 1.355 . S
C2268 C2270 1.419 . S
C2269 C2264 1.425 . S
C2269 C2266 1.409 . S
C2269 C2267 1.415 . S
C2270 H2260 0.930 . S
C2270 C2268 1.419 . S
C2270 C2271 1.362 . S
C2271 H2261 0.930 . S
C2271 C2264 1.409 . S
C2271 C2270 1.362 . S
H2272 C2278 0.930 . S
H2273 C2281 0.930 . S
H2274 C2282 0.930 . S
H2275 C2283 0.930 . S
H2276 C2286 0.930 . S
H2277 C2287 0.930 . S
C2278 H2272 0.930 . S
C2278 C2279 1.355 . S
C2278 C2280 1.415 . S
C2279 C2278 1.355 . S
C2279 C2281 1.419 . S
C2280 C2278 1.415 . S
C2280 C2285 1.425 . S
C2280 C2287 1.409 . S
C2281 H2273 0.930 . S
C2281 C2279 1.419 . S
C2281 C2282 1.362 . S
C2282 H2274 0.930 . S
C2282 C2281 1.362 . S
C2282 C2285 1.409 . S
C2283 H2275 0.930 . S
C2283 C2284 1.355 . S
C2283 C2285 1.415 . S
C2284 C2283 1.355 . S
C2284 C2286 1.419 . S
C2285 C2280 1.425 . S
C2285 C2282 1.409 . S
C2285 C2283 1.415 . S
C2286 H2276 0.930 . S
C2286 C2284 1.419 . S
C2286 C2287 1.362 . S
C2287 H2277 0.930 . S
C2287 C2280 1.409 . S
C2287 C2286 1.362 . S
H2288 C2294 0.930 . S
H2289 C2297 0.930 . S
H2290 C2298 0.930 . S
H2291 C2299 0.930 . S
H2292 C2302 0.930 . S
H2293 C2303 0.930 . S
C2294 H2288 0.930 . S
C2294 C2295 1.355 . S
C2294 C2296 1.415 . S
C2295 C2294 1.355 . S
C2295 C2297 1.419 . S
C2296 C2294 1.415 . S
C2296 C2301 1.425 . S
C2296 C2303 1.409 . S
C2297 H2289 0.930 . S
C2297 C2295 1.419 . S
C2297 C2298 1.362 . S
C2298 H2290 0.930 . S
C2298 C2297 1.362 . S
C2298 C2301 1.409 . S
C2299 H2291 0.930 . S
C2299 C2300 1.355 . S
C2299 C2301 1.415 . S
C2300 C2299 1.355 . S
C2300 C2302 1.419 . S
C2301 C2296 1.425 . S
C2301 C2298 1.409 . S
C2301 C2299 1.415 . S
C2302 H2292 0.930 . S
C2302 C2300 1.419 . S
C2302 C2303 1.362 . S
C2303 H2293 0.930 . S
C2303 C2296 1.409 . S
C2303 C2302 1.362 . S
H2304 C2310 0.930 . S
H2305 C2313 0.930 . S
H2306 C2314 0.930 . S
H2307 C2315 0.930 . S
H2308 C2318 0.930 . S
H2309 C2319 0.930 . S
C2310 H2304 0.930 . S
C2310 C2311 1.355 . S
C2310 C2312 1.415 . S
C2311 C2310 1.355 . S
C2311 C2313 1.419 . S
C2312 C2310 1.415 . S
C2312 C2317 1.425 . S
C2312 C2319 1.409 . S
C2313 H2305 0.930 . S
C2313 C2311 1.419 . S
C2313 C2314 1.362 . S
C2314 H2306 0.930 . S
C2314 C2313 1.362 . S
C2314 C2317 1.409 . S
C2315 H2307 0.930 . S
C2315 C2316 1.355 . S
C2315 C2317 1.415 . S
C2316 C2315 1.355 . S
C2316 C2318 1.419 . S
C2317 C2312 1.425 . S
C2317 C2314 1.409 . S
C2317 C2315 1.415 . S
C2318 H2308 0.930 . S
C2318 C2316 1.419 . S
C2318 C2319 1.362 . S
C2319 H2309 0.930 . S
C2319 C2312 1.409 . S
C2319 C2318 1.362 . S
H2320 C2326 0.930 . S
H2321 C2329 0.930 . S
H2322 C2330 0.930 . S
H2323 C2331 0.930 . S
H2324 C2334 0.930 . S
H2325 C2335 0.930 . S
C2326 H2320 0.930 . S
C2326 C2327 1.355 . S
C2326 C2328 1.415 . S
C2327 C2326 1.355 . S
C2327 C2329 1.419 . S
C2328 C2326 1.415 . S
C2328 C2333 1.425 . S
C2328 C2335 1.409 . S
C2329 H2321 0.930 . S
C2329 C2327 1.419 . S
C2329 C2330 1.362 . S
C2330 H2322 0.930 . S
C2330 C2329 1.362 . S
C2330 C2333 1.409 . S
C2331 H2323 0.930 . S
C2331 C2332 1.355 . S
C2331 C2333 1.415 . S
C2332 C2331 1.355 . S
C2332 C2334 1.419 . S
C2333 C2328 1.425 . S
C2333 C2330 1.409 . S
C2333 C2331 1.415 . S
C2334 H2324 0.930 . S
C2334 C2332 1.419 . S
C2334 C2335 1.362 . S
C2335 H2325 0.930 . S
C2335 C2328 1.409 . S
C2335 C2334 1.362 . S
H2336 C2342 0.930 . S
H2337 C2345 0.930 . S
H2338 C2346 0.930 . S
H2339 C2347 0.930 . S
H2340 C2350 0.930 . S
H2341 C2351 0.930 . S
C2342 H2336 0.930 . S
C2342 C2343 1.355 . S
C2342 C2344 1.415 . S
C2343 C2342 1.355 . S
C2343 C2345 1.419 . S
C2344 C2342 1.415 . S
C2344 C2349 1.425 . S
C2344 C2351 1.409 . S
C2345 H2337 0.930 . S
C2345 C2343 1.419 . S
C2345 C2346 1.362 . S
C2346 H2338 0.930 . S
C2346 C2345 1.362 . S
C2346 C2349 1.409 . S
C2347 H2339 0.930 . S
C2347 C2348 1.355 . S
C2347 C2349 1.415 . S
C2348 C2347 1.355 . S
C2348 C2350 1.419 . S
C2349 C2344 1.425 . S
C2349 C2346 1.409 . S
C2349 C2347 1.415 . S
C2350 H2340 0.930 . S
C2350 C2348 1.419 . S
C2350 C2351 1.362 . S
C2351 H2341 0.930 . S
C2351 C2344 1.409 . S
C2351 C2350 1.362 . S
H2352 C2358 0.930 . S
H2353 C2361 0.930 . S
H2354 C2362 0.930 . S
H2355 C2363 0.930 . S
H2356 C2366 0.930 . S
H2357 C2367 0.930 . S
C2358 H2352 0.930 . S
C2358 C2359 1.355 . S
C2358 C2360 1.415 . S
C2359 C2358 1.355 . S
C2359 C2361 1.419 . S
C2360 C2358 1.415 . S
C2360 C2365 1.425 . S
C2360 C2367 1.409 . S
C2361 H2353 0.930 . S
C2361 C2359 1.419 . S
C2361 C2362 1.362 . S
C2362 H2354 0.930 . S
C2362 C2361 1.362 . S
C2362 C2365 1.409 . S
C2363 H2355 0.930 . S
C2363 C2364 1.355 . S
C2363 C2365 1.415 . S
C2364 C2363 1.355 . S
C2364 C2366 1.419 . S
C2365 C2360 1.425 . S
C2365 C2362 1.409 . S
C2365 C2363 1.415 . S
C2366 H2356 0.930 . S
C2366 C2364 1.419 . S
C2366 C2367 1.362 . S
C2367 H2357 0.930 . S
C2367 C2360 1.409 . S
C2367 C2366 1.362 . S
H2368 C2374 0.930 . S
H2369 C2377 0.930 . S
H2370 C2378 0.930 . S
H2371 C2379 0.930 . S
H2372 C2382 0.930 . S
H2373 C2383 0.930 . S
C2374 H2368 0.930 . S
C2374 C2375 1.355 . S
C2374 C2376 1.415 . S
C2375 C2374 1.355 . S
C2375 C2377 1.419 . S
C2376 C2374 1.415 . S
C2376 C2381 1.425 . S
C2376 C2383 1.409 . S
C2377 H2369 0.930 . S
C2377 C2375 1.419 . S
C2377 C2378 1.362 . S
C2378 H2370 0.930 . S
C2378 C2377 1.362 . S
C2378 C2381 1.409 . S
C2379 H2371 0.930 . S
C2379 C2380 1.355 . S
C2379 C2381 1.415 . S
C2380 C2379 1.355 . S
C2380 C2382 1.419 . S
C2381 C2376 1.425 . S
C2381 C2378 1.409 . S
C2381 C2379 1.415 . S
C2382 H2372 0.930 . S
C2382 C2380 1.419 . S
C2382 C2383 1.362 . S
C2383 H2373 0.930 . S
C2383 C2376 1.409 . S
C2383 C2382 1.362 . S
H2384 C2390 0.930 . S
H2385 C2393 0.930 . S
H2386 C2394 0.930 . S
H2387 C2395 0.930 . S
H2388 C2398 0.930 . S
H2389 C2399 0.930 . S
C2390 H2384 0.930 . S
C2390 C2391 1.355 . S
C2390 C2392 1.415 . S
C2391 C2390 1.355 . S
C2391 C2393 1.419 . S
C2392 C2390 1.415 . S
C2392 C2397 1.425 . S
C2392 C2399 1.409 . S
C2393 H2385 0.930 . S
C2393 C2391 1.419 . S
C2393 C2394 1.362 . S
C2394 H2386 0.930 . S
C2394 C2393 1.362 . S
C2394 C2397 1.409 . S
C2395 H2387 0.930 . S
C2395 C2396 1.355 . S
C2395 C2397 1.415 . S
C2396 C2395 1.355 . S
C2396 C2398 1.419 . S
C2397 C2392 1.425 . S
C2397 C2394 1.409 . S
C2397 C2395 1.415 . S
C2398 H2388 0.930 . S
C2398 C2396 1.419 . S
C2398 C2399 1.362 . S
C2399 H2389 0.930 . S
C2399 C2392 1.409 . S
C2399 C2398 1.362 . S
H2400 C2406 0.930 . S
H2401 C2409 0.930 . S
H2402 C2410 0.930 . S
H2403 C2411 0.930 . S
H2404 C2414 0.930 . S
H2405 C2415 0.930 . S
C2406 H2400 0.930 . S
C2406 C2407 1.355 . S
C2406 C2408 1.415 . S
C2407 C2406 1.355 . S
C2407 C2409 1.419 . S
C2408 C2406 1.415 . S
C2408 C2413 1.425 . S
C2408 C2415 1.409 . S
C2409 H2401 0.930 . S
C2409 C2407 1.419 . S
C2409 C2410 1.362 . S
C2410 H2402 0.930 . S
C2410 C2409 1.362 . S
C2410 C2413 1.409 . S
C2411 H2403 0.930 . S
C2411 C2412 1.355 . S
C2411 C2413 1.415 . S
C2412 C2411 1.355 . S
C2412 C2414 1.419 . S
C2413 C2408 1.425 . S
C2413 C2410 1.409 . S
C2413 C2411 1.415 . S
C2414 H2404 0.930 . S
C2414 C2412 1.419 . S
C2414 C2415 1.362 . S
C2415 H2405 0.930 . S
C2415 C2408 1.409 . S
C2415 C2414 1.362 . S
H2416 C2422 0.930 . S
H2417 C2425 0.930 . S
H2418 C2426 0.930 . S
H2419 C2427 0.930 . S
H2420 C2430 0.930 . S
H2421 C2431 0.930 . S
C2422 H2416 0.930 . S
C2422 C2423 1.355 . S
C2422 C2424 1.415 . S
C2423 C2422 1.355 . S
C2423 C2425 1.419 . S
C2424 C2422 1.415 . S
C2424 C2429 1.425 . S
C2424 C2431 1.409 . S
C2425 H2417 0.930 . S
C2425 C2423 1.419 . S
C2425 C2426 1.362 . S
C2426 H2418 0.930 . S
C2426 C2425 1.362 . S
C2426 C2429 1.409 . S
C2427 H2419 0.930 . S
C2427 C2428 1.355 . S
C2427 C2429 1.415 . S
C2428 C2427 1.355 . S
C2428 C2430 1.419 . S
C2429 C2424 1.425 . S
C2429 C2426 1.409 . S
C2429 C2427 1.415 . S
C2430 H2420 0.930 . S
C2430 C2428 1.419 . S
C2430 C2431 1.362 . S
C2431 H2421 0.930 . S
C2431 C2424 1.409 . S
C2431 C2430 1.362 . S
H2432 C2438 0.930 . S
H2433 C2441 0.930 . S
H2434 C2442 0.930 . S
H2435 C2443 0.930 . S
H2436 C2446 0.930 . S
H2437 C2447 0.930 . S
C2438 H2432 0.930 . S
C2438 C2439 1.355 . S
C2438 C2440 1.415 . S
C2439 C2438 1.355 . S
C2439 C2441 1.419 . S
C2440 C2438 1.415 . S
C2440 C2445 1.425 . S
C2440 C2447 1.409 . S
C2441 H2433 0.930 . S
C2441 C2439 1.419 . S
C2441 C2442 1.362 . S
C2442 H2434 0.930 . S
C2442 C2441 1.362 . S
C2442 C2445 1.409 . S
C2443 H2435 0.930 . S
C2443 C2444 1.355 . S
C2443 C2445 1.415 . S
C2444 C2443 1.355 . S
C2444 C2446 1.419 . S
C2445 C2440 1.425 . S
C2445 C2442 1.409 . S
C2445 C2443 1.415 . S
C2446 H2436 0.930 . S
C2446 C2444 1.419 . S
C2446 C2447 1.362 . S
C2447 H2437 0.930 . S
C2447 C2440 1.409 . S
C2447 C2446 1.362 . S
H2448 C2454 0.930 . S
H2449 C2457 0.930 . S
H2450 C2458 0.930 . S
H2451 C2459 0.930 . S
H2452 C2462 0.930 . S
H2453 C2463 0.930 . S
C2454 H2448 0.930 . S
C2454 C2455 1.355 . S
C2454 C2456 1.415 . S
C2455 C2454 1.355 . S
C2455 C2457 1.419 . S
C2456 C2454 1.415 . S
C2456 C2461 1.425 . S
C2456 C2463 1.409 . S
C2457 H2449 0.930 . S
C2457 C2455 1.419 . S
C2457 C2458 1.362 . S
C2458 H2450 0.930 . S
C2458 C2457 1.362 . S
C2458 C2461 1.409 . S
C2459 H2451 0.930 . S
C2459 C2460 1.355 . S
C2459 C2461 1.415 . S
C2460 C2459 1.355 . S
C2460 C2462 1.419 . S
C2461 C2456 1.425 . S
C2461 C2458 1.409 . S
C2461 C2459 1.415 . S
C2462 H2452 0.930 . S
C2462 C2460 1.419 . S
C2462 C2463 1.362 . S
C2463 H2453 0.930 . S
C2463 C2456 1.409 . S
C2463 C2462 1.362 . S
H2464 C2470 0.930 . S
H2465 C2473 0.930 . S
H2466 C2474 0.930 . S
H2467 C2475 0.930 . S
H2468 C2478 0.930 . S
H2469 C2479 0.930 . S
C2470 H2464 0.930 . S
C2470 C2471 1.355 . S
C2470 C2472 1.415 . S
C2471 C2470 1.355 . S
C2471 C2473 1.419 . S
C2472 C2470 1.415 . S
C2472 C2477 1.425 . S
C2472 C2479 1.409 . S
C2473 H2465 0.930 . S
C2473 C2471 1.419 . S
C2473 C2474 1.362 . S
C2474 H2466 0.930 . S
C2474 C2473 1.362 . S
C2474 C2477 1.409 . S
C2475 H2467 0.930 . S
C2475 C2476 1.355 . S
C2475 C2477 1.415 . S
C2476 C2475 1.355 . S
C2476 C2478 1.419 . S
C2477 C2472 1.425 . S
C2477 C2474 1.409 . S
C2477 C2475 1.415 . S
C2478 H2468 0.930 . S
C2478 C2476 1.419 . S
C2478 C2479 1.362 . S
C2479 H2469 0.930 . S
C2479 C2472 1.409 . S
C2479 C2478 1.362 . S
H2480 C2486 0.930 . S
H2481 C2489 0.930 . S
H2482 C2490 0.930 . S
H2483 C2491 0.930 . S
H2484 C2494 0.930 . S
H2485 C2495 0.930 . S
C2486 H2480 0.930 . S
C2486 C2487 1.355 . S
C2486 C2488 1.415 . S
C2487 C2486 1.355 . S
C2487 C2489 1.419 . S
C2488 C2486 1.415 . S
C2488 C2493 1.425 . S
C2488 C2495 1.409 . S
C2489 H2481 0.930 . S
C2489 C2487 1.419 . S
C2489 C2490 1.362 . S
C2490 H2482 0.930 . S
C2490 C2489 1.362 . S
C2490 C2493 1.409 . S
C2491 H2483 0.930 . S
C2491 C2492 1.355 . S
C2491 C2493 1.415 . S
C2492 C2491 1.355 . S
C2492 C2494 1.419 . S
C2493 C2488 1.425 . S
C2493 C2490 1.409 . S
C2493 C2491 1.415 . S
C2494 H2484 0.930 . S
C2494 C2492 1.419 . S
C2494 C2495 1.362 . S
C2495 H2485 0.930 . S
C2495 C2488 1.409 . S
C2495 C2494 1.362 . S
H2496 C2502 0.930 . S
H2497 C2505 0.930 . S
H2498 C2506 0.930 . S
H2499 C2507 0.930 . S
H2500 C2510 0.930 . S
H2501 C2511 0.930 . S
C2502 H2496 0.930 . S
C2502 C2503 1.355 . S
C2502 C2504 1.415 . S
C2503 C2502 1.355 . S
C2503 C2505 1.419 . S
C2504 C2502 1.415 . S
C2504 C2509 1.425 . S
C2504 C2511 1.409 . S
C2505 H2497 0.930 . S
C2505 C2503 1.419 . S
C2505 C2506 1.362 . S
C2506 H2498 0.930 . S
C2506 C2505 1.362 . S
C2506 C2509 1.409 . S
C2507 H2499 0.930 . S
C2507 C2508 1.355 . S
C2507 C2509 1.415 . S
C2508 C2507 1.355 . S
C2508 C2510 1.419 . S
C2509 C2504 1.425 . S
C2509 C2506 1.409 . S
C2509 C2507 1.415 . S
C2510 H2500 0.930 . S
C2510 C2508 1.419 . S
C2510 C2511 1.362 . S
C2511 H2501 0.930 . S
C2511 C2504 1.409 . S
C2511 C2510 1.362 . S
H2512 C2518 0.930 . S
H2513 C2521 0.930 . S
H2514 C2522 0.930 . S
H2515 C2523 0.930 . S
H2516 C2526 0.930 . S
H2517 C2527 0.930 . S
C2518 H2512 0.930 . S
C2518 C2519 1.355 . S
C2518 C2520 1.415 . S
C2519 C2518 1.355 . S
C2519 C2521 1.419 . S
C2520 C2518 1.415 . S
C2520 C2525 1.425 . S
C2520 C2527 1.409 . S
C2521 H2513 0.930 . S
C2521 C2519 1.419 . S
C2521 C2522 1.362 . S
C2522 H2514 0.930 . S
C2522 C2521 1.362 . S
C2522 C2525 1.409 . S
C2523 H2515 0.930 . S
C2523 C2524 1.355 . S
C2523 C2525 1.415 . S
C2524 C2523 1.355 . S
C2524 C2526 1.419 . S
C2525 C2520 1.425 . S
C2525 C2522 1.409 . S
C2525 C2523 1.415 . S
C2526 H2516 0.930 . S
C2526 C2524 1.419 . S
C2526 C2527 1.362 . S
C2527 H2517 0.930 . S
C2527 C2520 1.409 . S
C2527 C2526 1.362 . S
H2528 C2534 0.930 . S
H2529 C2537 0.930 . S
H2530 C2538 0.930 . S
H2531 C2539 0.930 . S
H2532 C2542 0.930 . S
H2533 C2543 0.930 . S
C2534 H2528 0.930 . S
C2534 C2535 1.355 . S
C2534 C2536 1.415 . S
C2535 C2534 1.355 . S
C2535 C2537 1.419 . S
C2536 C2534 1.415 . S
C2536 C2541 1.425 . S
C2536 C2543 1.409 . S
C2537 H2529 0.930 . S
C2537 C2535 1.419 . S
C2537 C2538 1.362 . S
C2538 H2530 0.930 . S
C2538 C2537 1.362 . S
C2538 C2541 1.409 . S
C2539 H2531 0.930 . S
C2539 C2540 1.355 . S
C2539 C2541 1.415 . S
C2540 C2539 1.355 . S
C2540 C2542 1.419 . S
C2541 C2536 1.425 . S
C2541 C2538 1.409 . S
C2541 C2539 1.415 . S
C2542 H2532 0.930 . S
C2542 C2540 1.419 . S
C2542 C2543 1.362 . S
C2543 H2533 0.930 . S
C2543 C2536 1.409 . S
C2543 C2542 1.362 . S
H2544 C2550 0.930 . S
H2545 C2553 0.930 . S
H2546 C2554 0.930 . S
H2547 C2555 0.930 . S
H2548 C2558 0.930 . S
H2549 C2559 0.930 . S
C2550 H2544 0.930 . S
C2550 C2551 1.355 . S
C2550 C2552 1.415 . S
C2551 C2550 1.355 . S
C2551 C2553 1.419 . S
C2552 C2550 1.415 . S
C2552 C2557 1.425 . S
C2552 C2559 1.409 . S
C2553 H2545 0.930 . S
C2553 C2551 1.419 . S
C2553 C2554 1.362 . S
C2554 H2546 0.930 . S
C2554 C2553 1.362 . S
C2554 C2557 1.409 . S
C2555 H2547 0.930 . S
C2555 C2556 1.355 . S
C2555 C2557 1.415 . S
C2556 C2555 1.355 . S
C2556 C2558 1.419 . S
C2557 C2552 1.425 . S
C2557 C2554 1.409 . S
C2557 C2555 1.415 . S
C2558 H2548 0.930 . S
C2558 C2556 1.419 . S
C2558 C2559 1.362 . S
C2559 H2549 0.930 . S
C2559 C2552 1.409 . S
C2559 C2558 1.362 . S
H2560 C2566 0.930 . S
H2561 C2569 0.930 . S
H2562 C2570 0.930 . S
H2563 C2571 0.930 . S
H2564 C2574 0.930 . S
H2565 C2575 0.930 . S
C2566 H2560 0.930 . S
C2566 C2567 1.355 . S
C2566 C2568 1.415 . S
C2567 C2566 1.355 . S
C2567 C2569 1.419 . S
C2568 C2566 1.415 . S
C2568 C2573 1.425 . S
C2568 C2575 1.409 . S
C2569 H2561 0.930 . S
C2569 C2567 1.419 . S
C2569 C2570 1.362 . S
C2570 H2562 0.930 . S
C2570 C2569 1.362 . S
C2570 C2573 1.409 . S
C2571 H2563 0.930 . S
C2571 C2572 1.355 . S
C2571 C2573 1.415 . S
C2572 C2571 1.355 . S
C2572 C2574 1.419 . S
C2573 C2568 1.425 . S
C2573 C2570 1.409 . S
C2573 C2571 1.415 . S
C2574 H2564 0.930 . S
C2574 C2572 1.419 . S
C2574 C2575 1.362 . S
C2575 H2565 0.930 . S
C2575 C2568 1.409 . S
C2575 C2574 1.362 . S
H2576 C2582 0.930 . S
H2577 C2585 0.930 . S
H2578 C2586 0.930 . S
H2579 C2587 0.930 . S
H2580 C2590 0.930 . S
H2581 C2591 0.930 . S
C2582 H2576 0.930 . S
C2582 C2583 1.355 . S
C2582 C2584 1.415 . S
C2583 C2582 1.355 . S
C2583 C2585 1.419 . S
C2584 C2582 1.415 . S
C2584 C2589 1.425 . S
C2584 C2591 1.409 . S
C2585 H2577 0.930 . S
C2585 C2583 1.419 . S
C2585 C2586 1.362 . S
C2586 H2578 0.930 . S
C2586 C2585 1.362 . S
C2586 C2589 1.409 . S
C2587 H2579 0.930 . S
C2587 C2588 1.355 . S
C2587 C2589 1.415 . S
C2588 C2587 1.355 . S
C2588 C2590 1.419 . S
C2589 C2584 1.425 . S
C2589 C2586 1.409 . S
C2589 C2587 1.415 . S
C2590 H2580 0.930 . S
C2590 C2588 1.419 . S
C2590 C2591 1.362 . S
C2591 H2581 0.930 . S
C2591 C2584 1.409 . S
C2591 C2590 1.362 . S
H2592 C2598 0.930 . S
H2593 C2601 0.930 . S
H2594 C2602 0.930 . S
H2595 C2603 0.930 . S
H2596 C2606 0.930 . S
H2597 C2607 0.930 . S
C2598 H2592 0.930 . S
C2598 C2599 1.355 . S
C2598 C2600 1.415 . S
C2599 C2598 1.355 . S
C2599 C2601 1.419 . S
C2600 C2598 1.415 . S
C2600 C2605 1.425 . S
C2600 C2607 1.409 . S
C2601 H2593 0.930 . S
C2601 C2599 1.419 . S
C2601 C2602 1.362 . S
C2602 H2594 0.930 . S
C2602 C2601 1.362 . S
C2602 C2605 1.409 . S
C2603 H2595 0.930 . S
C2603 C2604 1.355 . S
C2603 C2605 1.415 . S
C2604 C2603 1.355 . S
C2604 C2606 1.419 . S
C2605 C2600 1.425 . S
C2605 C2602 1.409 . S
C2605 C2603 1.415 . S
C2606 H2596 0.930 . S
C2606 C2604 1.419 . S
C2606 C2607 1.362 . S
C2607 H2597 0.930 . S
C2607 C2600 1.409 . S
C2607 C2606 1.362 . S
H2608 C2614 0.930 . S
H2609 C2617 0.930 . S
H2610 C2618 0.930 . S
H2611 C2619 0.930 . S
H2612 C2622 0.930 . S
H2613 C2623 0.930 . S
C2614 H2608 0.930 . S
C2614 C2615 1.355 . S
C2614 C2616 1.415 . S
C2615 C2614 1.355 . S
C2615 C2617 1.419 . S
C2616 C2614 1.415 . S
C2616 C2621 1.425 . S
C2616 C2623 1.409 . S
C2617 H2609 0.930 . S
C2617 C2615 1.419 . S
C2617 C2618 1.362 . S
C2618 H2610 0.930 . S
C2618 C2617 1.362 . S
C2618 C2621 1.409 . S
C2619 H2611 0.930 . S
C2619 C2620 1.355 . S
C2619 C2621 1.415 . S
C2620 C2619 1.355 . S
C2620 C2622 1.419 . S
C2621 C2616 1.425 . S
C2621 C2618 1.409 . S
C2621 C2619 1.415 . S
C2622 H2612 0.930 . S
C2622 C2620 1.419 . S
C2622 C2623 1.362 . S
C2623 H2613 0.930 . S
C2623 C2616 1.409 . S
C2623 C2622 1.362 . S
H2624 C2630 0.930 . S
H2625 C2633 0.930 . S
H2626 C2634 0.930 . S
H2627 C2635 0.930 . S
H2628 C2638 0.930 . S
H2629 C2639 0.930 . S
C2630 H2624 0.930 . S
C2630 C2631 1.355 . S
C2630 C2632 1.415 . S
C2631 C2630 1.355 . S
C2631 C2633 1.419 . S
C2632 C2630 1.415 . S
C2632 C2637 1.425 . S
C2632 C2639 1.409 . S
C2633 H2625 0.930 . S
C2633 C2631 1.419 . S
C2633 C2634 1.362 . S
C2634 H2626 0.930 . S
C2634 C2633 1.362 . S
C2634 C2637 1.409 . S
C2635 H2627 0.930 . S
C2635 C2636 1.355 . S
C2635 C2637 1.415 . S
C2636 C2635 1.355 . S
C2636 C2638 1.419 . S
C2637 C2632 1.425 . S
C2637 C2634 1.409 . S
C2637 C2635 1.415 . S
C2638 H2628 0.930 . S
C2638 C2636 1.419 . S
C2638 C2639 1.362 . S
C2639 H2629 0.930 . S
C2639 C2632 1.409 . S
C2639 C2638 1.362 . S
H2640 C2646 0.930 . S
H2641 C2649 0.930 . S
H2642 C2650 0.930 . S
H2643 C2651 0.930 . S
H2644 C2654 0.930 . S
H2645 C2655 0.930 . S
C2646 H2640 0.930 . S
C2646 C2647 1.355 . S
C2646 C2648 1.415 . S
C2647 C2646 1.355 . S
C2647 C2649 1.419 . S
C2648 C2646 1.415 . S
C2648 C2653 1.425 . S
C2648 C2655 1.409 . S
C2649 H2641 0.930 . S
C2649 C2647 1.419 . S
C2649 C2650 1.362 . S
C2650 H2642 0.930 . S
C2650 C2649 1.362 . S
C2650 C2653 1.409 . S
C2651 H2643 0.930 . S
C2651 C2652 1.355 . S
C2651 C2653 1.415 . S
C2652 C2651 1.355 . S
C2652 C2654 1.419 . S
C2653 C2648 1.425 . S
C2653 C2650 1.409 . S
C2653 C2651 1.415 . S
C2654 H2644 0.930 . S
C2654 C2652 1.419 . S
C2654 C2655 1.362 . S
C2655 H2645 0.930 . S
C2655 C2648 1.409 . S
C2655 C2654 1.362 . S
H2656 C2662 0.930 . S
H2657 C2665 0.930 . S
H2658 C2666 0.930 . S
H2659 C2667 0.930 . S
H2660 C2670 0.930 . S
H2661 C2671 0.930 . S
C2662 H2656 0.930 . S
C2662 C2663 1.355 . S
C2662 C2664 1.415 . S
C2663 C2662 1.355 . S
C2663 C2665 1.419 . S
C2664 C2662 1.415 . S
C2664 C2669 1.425 . S
C2664 C2671 1.409 . S
C2665 H2657 0.930 . S
C2665 C2663 1.419 . S
C2665 C2666 1.362 . S
C2666 H2658 0.930 . S
C2666 C2665 1.362 . S
C2666 C2669 1.409 . S
C2667 H2659 0.930 . S
C2667 C2668 1.355 . S
C2667 C2669 1.415 . S
C2668 C2667 1.355 . S
C2668 C2670 1.419 . S
C2669 C2664 1.425 . S
C2669 C2666 1.409 . S
C2669 C2667 1.415 . S
C2670 H2660 0.930 . S
C2670 C2668 1.419 . S
C2670 C2671 1.362 . S
C2671 H2661 0.930 . S
C2671 C2664 1.409 . S
C2671 C2670 1.362 . S
H2672 C2678 0.930 . S
H2673 C2681 0.930 . S
H2674 C2682 0.930 . S
H2675 C2683 0.930 . S
H2676 C2686 0.930 . S
H2677 C2687 0.930 . S
C2678 H2672 0.930 . S
C2678 C2679 1.355 . S
C2678 C2680 1.415 . S
C2679 C2678 1.355 . S
C2679 C2681 1.419 . S
C2680 C2678 1.415 . S
C2680 C2685 1.425 . S
C2680 C2687 1.409 . S
C2681 H2673 0.930 . S
C2681 C2679 1.419 . S
C2681 C2682 1.362 . S
C2682 H2674 0.930 . S
C2682 C2681 1.362 . S
C2682 C2685 1.409 . S
C2683 H2675 0.930 . S
C2683 C2684 1.355 . S
C2683 C2685 1.415 . S
C2684 C2683 1.355 . S
C2684 C2686 1.419 . S
C2685 C2680 1.425 . S
C2685 C2682 1.409 . S
C2685 C2683 1.415 . S
C2686 H2676 0.930 . S
C2686 C2684 1.419 . S
C2686 C2687 1.362 . S
C2687 H2677 0.930 . S
C2687 C2680 1.409 . S
C2687 C2686 1.362 . S
H2688 C2694 0.930 . S
H2689 C2697 0.930 . S
H2690 C2698 0.930 . S
H2691 C2699 0.930 . S
H2692 C2702 0.930 . S
H2693 C2703 0.930 . S
C2694 H2688 0.930 . S
C2694 C2695 1.355 . S
C2694 C2696 1.415 . S
C2695 C2694 1.355 . S
C2695 C2697 1.419 . S
C2696 C2694 1.415 . S
C2696 C2701 1.425 . S
C2696 C2703 1.409 . S
C2697 H2689 0.930 . S
C2697 C2695 1.419 . S
C2697 C2698 1.362 . S
C2698 H2690 0.930 . S
C2698 C2697 1.362 . S
C2698 C2701 1.409 . S
C2699 H2691 0.930 . S
C2699 C2700 1.355 . S
C2699 C2701 1.415 . S
C2700 C2699 1.355 . S
C2700 C2702 1.419 . S
C2701 C2696 1.425 . S
C2701 C2698 1.409 . S
C2701 C2699 1.415 . S
C2702 H2692 0.930 . S
C2702 C2700 1.419 . S
C2702 C2703 1.362 . S
C2703 H2693 0.930 . S
C2703 C2696 1.409 . S
C2703 C2702 1.362 . S
H2704 C2710 0.930 . S
H2705 C2713 0.930 . S
H2706 C2714 0.930 . S
H2707 C2715 0.930 . S
H2708 C2718 0.930 . S
H2709 C2719 0.930 . S
C2710 H2704 0.930 . S
C2710 C2711 1.355 . S
C2710 C2712 1.415 . S
C2711 C2710 1.355 . S
C2711 C2713 1.419 . S
C2712 C2710 1.415 . S
C2712 C2717 1.425 . S
C2712 C2719 1.409 . S
C2713 H2705 0.930 . S
C2713 C2711 1.419 . S
C2713 C2714 1.362 . S
C2714 H2706 0.930 . S
C2714 C2713 1.362 . S
C2714 C2717 1.409 . S
C2715 H2707 0.930 . S
C2715 C2716 1.355 . S
C2715 C2717 1.415 . S
C2716 C2715 1.355 . S
C2716 C2718 1.419 . S
C2717 C2712 1.425 . S
C2717 C2714 1.409 . S
C2717 C2715 1.415 . S
C2718 H2708 0.930 . S
C2718 C2716 1.419 . S
C2718 C2719 1.362 . S
C2719 H2709 0.930 . S
C2719 C2712 1.409 . S
C2719 C2718 1.362 . S
H2720 C2726 0.930 . S
H2721 C2729 0.930 . S
H2722 C2730 0.930 . S
H2723 C2731 0.930 . S
H2724 C2734 0.930 . S
H2725 C2735 0.930 . S
C2726 H2720 0.930 . S
C2726 C2727 1.355 . S
C2726 C2728 1.415 . S
C2727 C2726 1.355 . S
C2727 C2729 1.419 . S
C2728 C2726 1.415 . S
C2728 C2733 1.425 . S
C2728 C2735 1.409 . S
C2729 H2721 0.930 . S
C2729 C2727 1.419 . S
C2729 C2730 1.362 . S
C2730 H2722 0.930 . S
C2730 C2729 1.362 . S
C2730 C2733 1.409 . S
C2731 H2723 0.930 . S
C2731 C2732 1.355 . S
C2731 C2733 1.415 . S
C2732 C2731 1.355 . S
C2732 C2734 1.419 . S
C2733 C2728 1.425 . S
C2733 C2730 1.409 . S
C2733 C2731 1.415 . S
C2734 H2724 0.930 . S
C2734 C2732 1.419 . S
C2734 C2735 1.362 . S
C2735 H2725 0.930 . S
C2735 C2728 1.409 . S
C2735 C2734 1.362 . S
H2736 C2742 0.930 . S
H2737 C2745 0.930 . S
H2738 C2746 0.930 . S
H2739 C2747 0.930 . S
H2740 C2750 0.930 . S
H2741 C2751 0.930 . S
C2742 H2736 0.930 . S
C2742 C2743 1.355 . S
C2742 C2744 1.415 . S
C2743 C2742 1.355 . S
C2743 C2745 1.419 . S
C2744 C2742 1.415 . S
C2744 C2749 1.425 . S
C2744 C2751 1.409 . S
C2745 H2737 0.930 . S
C2745 C2743 1.419 . S
C2745 C2746 1.362 . S
C2746 H2738 0.930 . S
C2746 C2745 1.362 . S
C2746 C2749 1.409 . S
C2747 H2739 0.930 . S
C2747 C2748 1.355 . S
C2747 C2749 1.415 . S
C2748 C2747 1.355 . S
C2748 C2750 1.419 . S
C2749 C2744 1.425 . S
C2749 C2746 1.409 . S
C2749 C2747 1.415 . S
C2750 H2740 0.930 . S
C2750 C2748 1.419 . S
C2750 C2751 1.362 . S
C2751 H2741 0.930 . S
C2751 C2744 1.409 . S
C2751 C2750 1.362 . S
H2752 C2758 0.930 . S
H2753 C2761 0.930 . S
H2754 C2762 0.930 . S
H2755 C2763 0.930 . S
H2756 C2766 0.930 . S
H2757 C2767 0.930 . S
C2758 H2752 0.930 . S
C2758 C2759 1.355 . S
C2758 C2760 1.415 . S
C2759 C2758 1.355 . S
C2759 C2761 1.419 . S
C2760 C2758 1.415 . S
C2760 C2765 1.425 . S
C2760 C2767 1.409 . S
C2761 H2753 0.930 . S
C2761 C2759 1.419 . S
C2761 C2762 1.362 . S
C2762 H2754 0.930 . S
C2762 C2761 1.362 . S
C2762 C2765 1.409 . S
C2763 H2755 0.930 . S
C2763 C2764 1.355 . S
C2763 C2765 1.415 . S
C2764 C2763 1.355 . S
C2764 C2766 1.419 . S
C2765 C2760 1.425 . S
C2765 C2762 1.409 . S
C2765 C2763 1.415 . S
C2766 H2756 0.930 . S
C2766 C2764 1.419 . S
C2766 C2767 1.362 . S
C2767 H2757 0.930 . S
C2767 C2760 1.409 . S
C2767 C2766 1.362 . S
H2768 C2774 0.930 . S
H2769 C2777 0.930 . S
H2770 C2778 0.930 . S
H2771 C2779 0.930 . S
H2772 C2782 0.930 . S
H2773 C2783 0.930 . S
C2774 H2768 0.930 . S
C2774 C2775 1.355 . S
C2774 C2776 1.415 . S
C2775 C2774 1.355 . S
C2775 C2777 1.419 . S
C2776 C2774 1.415 . S
C2776 C2781 1.425 . S
C2776 C2783 1.409 . S
C2777 H2769 0.930 . S
C2777 C2775 1.419 . S
C2777 C2778 1.362 . S
C2778 H2770 0.930 . S
C2778 C2777 1.362 . S
C2778 C2781 1.409 . S
C2779 H2771 0.930 . S
C2779 C2780 1.355 . S
C2779 C2781 1.415 . S
C2780 C2779 1.355 . S
C2780 C2782 1.419 . S
C2781 C2776 1.425 . S
C2781 C2778 1.409 . S
C2781 C2779 1.415 . S
C2782 H2772 0.930 . S
C2782 C2780 1.419 . S
C2782 C2783 1.362 . S
C2783 H2773 0.930 . S
C2783 C2776 1.409 . S
C2783 C2782 1.362 . S
H2784 C2790 0.930 . S
H2785 C2793 0.930 . S
H2786 C2794 0.930 . S
H2787 C2795 0.930 . S
H2788 C2798 0.930 . S
H2789 C2799 0.930 . S
C2790 H2784 0.930 . S
C2790 C2791 1.355 . S
C2790 C2792 1.415 . S
C2791 C2790 1.355 . S
C2791 C2793 1.419 . S
C2792 C2790 1.415 . S
C2792 C2797 1.425 . S
C2792 C2799 1.409 . S
C2793 H2785 0.930 . S
C2793 C2791 1.419 . S
C2793 C2794 1.362 . S
C2794 H2786 0.930 . S
C2794 C2793 1.362 . S
C2794 C2797 1.409 . S
C2795 H2787 0.930 . S
C2795 C2796 1.355 . S
C2795 C2797 1.415 . S
C2796 C2795 1.355 . S
C2796 C2798 1.419 . S
C2797 C2792 1.425 . S
C2797 C2794 1.409 . S
C2797 C2795 1.415 . S
C2798 H2788 0.930 . S
C2798 C2796 1.419 . S
C2798 C2799 1.362 . S
C2799 H2789 0.930 . S
C2799 C2792 1.409 . S
C2799 C2798 1.362 . S
H2800 C2806 0.930 . S
H2801 C2809 0.930 . S
H2802 C2810 0.930 . S
H2803 C2811 0.930 . S
H2804 C2814 0.930 . S
H2805 C2815 0.930 . S
C2806 H2800 0.930 . S
C2806 C2807 1.355 . S
C2806 C2808 1.415 . S
C2807 C2806 1.355 . S
C2807 C2809 1.419 . S
C2808 C2806 1.415 . S
C2808 C2813 1.425 . S
C2808 C2815 1.409 . S
C2809 H2801 0.930 . S
C2809 C2807 1.419 . S
C2809 C2810 1.362 . S
C2810 H2802 0.930 . S
C2810 C2809 1.362 . S
C2810 C2813 1.409 . S
C2811 H2803 0.930 . S
C2811 C2812 1.355 . S
C2811 C2813 1.415 . S
C2812 C2811 1.355 . S
C2812 C2814 1.419 . S
C2813 C2808 1.425 . S
C2813 C2810 1.409 . S
C2813 C2811 1.415 . S
C2814 H2804 0.930 . S
C2814 C2812 1.419 . S
C2814 C2815 1.362 . S
C2815 H2805 0.930 . S
C2815 C2808 1.409 . S
C2815 C2814 1.362 . S
H2816 C2822 0.930 . S
H2817 C2825 0.930 . S
H2818 C2826 0.930 . S
H2819 C2827 0.930 . S
H2820 C2830 0.930 . S
H2821 C2831 0.930 . S
C2822 H2816 0.930 . S
C2822 C2823 1.355 . S
C2822 C2824 1.415 . S
C2823 C2822 1.355 . S
C2823 C2825 1.419 . S
C2824 C2822 1.415 . S
C2824 C2829 1.425 . S
C2824 C2831 1.409 . S
C2825 H2817 0.930 . S
C2825 C2823 1.419 . S
C2825 C2826 1.362 . S
C2826 H2818 0.930 . S
C2826 C2825 1.362 . S
C2826 C2829 1.409 . S
C2827 H2819 0.930 . S
C2827 C2828 1.355 . S
C2827 C2829 1.415 . S
C2828 C2827 1.355 . S
C2828 C2830 1.419 . S
C2829 C2824 1.425 . S
C2829 C2826 1.409 . S
C2829 C2827 1.415 . S
C2830 H2820 0.930 . S
C2830 C2828 1.419 . S
C2830 C2831 1.362 . S
C2831 H2821 0.930 . S
C2831 C2824 1.409 . S
C2831 C2830 1.362 . S
H2832 C2838 0.930 . S
H2833 C2841 0.930 . S
H2834 C2842 0.930 . S
H2835 C2843 0.930 . S
H2836 C2846 0.930 . S
H2837 C2847 0.930 . S
C2838 H2832 0.930 . S
C2838 C2839 1.355 . S
C2838 C2840 1.415 . S
C2839 C2838 1.355 . S
C2839 C2841 1.419 . S
C2840 C2838 1.415 . S
C2840 C2845 1.425 . S
C2840 C2847 1.409 . S
C2841 H2833 0.930 . S
C2841 C2839 1.419 . S
C2841 C2842 1.362 . S
C2842 H2834 0.930 . S
C2842 C2841 1.362 . S
C2842 C2845 1.409 . S
C2843 H2835 0.930 . S
C2843 C2844 1.355 . S
C2843 C2845 1.415 . S
C2844 C2843 1.355 . S
C2844 C2846 1.419 . S
C2845 C2840 1.425 . S
C2845 C2842 1.409 . S
C2845 C2843 1.415 . S
C2846 H2836 0.930 . S
C2846 C2844 1.419 . S
C2846 C2847 1.362 . S
C2847 H2837 0.930 . S
C2847 C2840 1.409 . S
C2847 C2846 1.362 . S
H2848 C2854 0.930 . S
H2849 C2857 0.930 . S
H2850 C2858 0.930 . S
H2851 C2859 0.930 . S
H2852 C2862 0.930 . S
H2853 C2863 0.930 . S
C2854 H2848 0.930 . S
C2854 C2855 1.355 . S
C2854 C2856 1.415 . S
C2855 C2854 1.355 . S
C2855 C2857 1.419 . S
C2856 C2854 1.415 . S
C2856 C2861 1.425 . S
C2856 C2863 1.409 . S
C2857 H2849 0.930 . S
C2857 C2855 1.419 . S
C2857 C2858 1.362 . S
C2858 H2850 0.930 . S
C2858 C2857 1.362 . S
C2858 C2861 1.409 . S
C2859 H2851 0.930 . S
C2859 C2860 1.355 . S
C2859 C2861 1.415 . S
C2860 C2859 1.355 . S
C2860 C2862 1.419 . S
C2861 C2856 1.425 . S
C2861 C2858 1.409 . S
C2861 C2859 1.415 . S
C2862 H2852 0.930 . S
C2862 C2860 1.419 . S
C2862 C2863 1.362 . S
C2863 H2853 0.930 . S
C2863 C2856 1.409 . S
C2863 C2862 1.362 . S
H2864 C2870 0.930 . S
H2865 C2873 0.930 . S
H2866 C2874 0.930 . S
H2867 C2875 0.930 . S
H2868 C2878 0.930 . S
H2869 C2879 0.930 . S
C2870 H2864 0.930 . S
C2870 C2871 1.355 . S
C2870 C2872 1.415 . S
C2871 C2870 1.355 . S
C2871 C2873 1.419 . S
C2872 C2870 1.415 . S
C2872 C2877 1.425 . S
C2872 C2879 1.409 . S
C2873 H2865 0.930 . S
C2873 C2871 1.419 . S
C2873 C2874 1.362 . S
C2874 H2866 0.930 . S
C2874 C2873 1.362 . S
C2874 C2877 1.409 . S
C2875 H2867 0.930 . S
C2875 C2876 1.355 . S
C2875 C2877 1.415 . S
C2876 C2875 1.355 . S
C2876 C2878 1.419 . S
C2877 C2872 1.425 . S
C2877 C2874 1.409 . S
C2877 C2875 1.415 . S
C2878 H2868 0.930 . S
C2878 C2876 1.419 . S
C2878 C2879 1.362 . S
C2879 H2869 0.930 . S
C2879 C2872 1.409 . S
C2879 C2878 1.362 . S
H2880 C2886 0.930 . S
H2881 C2889 0.930 . S
H2882 C2890 0.930 . S
H2883 C2891 0.930 . S
H2884 C2894 0.930 . S
H2885 C2895 0.930 . S
C2886 H2880 0.930 . S
C2886 C2887 1.355 . S
C2886 C2888 1.415 . S
C2887 C2886 1.355 . S
C2887 C2889 1.419 . S
C2888 C2886 1.415 . S
C2888 C2893 1.425 . S
C2888 C2895 1.409 . S
C2889 H2881 0.930 . S
C2889 C2887 1.419 . S
C2889 C2890 1.362 . S
C2890 H2882 0.930 . S
C2890 C2889 1.362 . S
C2890 C2893 1.409 . S
C2891 H2883 0.930 . S
C2891 C2892 1.355 . S
C2891 C2893 1.415 . S
C2892 C2891 1.355 . S
C2892 C2894 1.419 . S
C2893 C2888 1.425 . S
C2893 C2890 1.409 . S
C2893 C2891 1.415 . S
C2894 H2884 0.930 . S
C2894 C2892 1.419 . S
C2894 C2895 1.362 . S
C2895 H2885 0.930 . S
C2895 C2888 1.409 . S
C2895 C2894 1.362 . S
H2896 C2902 0.930 . S
H2897 C2905 0.930 . S
H2898 C2906 0.930 . S
H2899 C2907 0.930 . S
H2900 C2910 0.930 . S
H2901 C2911 0.930 . S
C2902 H2896 0.930 . S
C2902 C2903 1.355 . S
C2902 C2904 1.415 . S
C2903 C2902 1.355 . S
C2903 C2905 1.419 . S
C2904 C2902 1.415 . S
C2904 C2909 1.425 . S
C2904 C2911 1.409 . S
C2905 H2897 0.930 . S
C2905 C2903 1.419 . S
C2905 C2906 1.362 . S
C2906 H2898 0.930 . S
C2906 C2905 1.362 . S
C2906 C2909 1.409 . S
C2907 H2899 0.930 . S
C2907 C2908 1.355 . S
C2907 C2909 1.415 . S
C2908 C2907 1.355 . S
C2908 C2910 1.419 . S
C2909 C2904 1.425 . S
C2909 C2906 1.409 . S
C2909 C2907 1.415 . S
C2910 H2900 0.930 . S
C2910 C2908 1.419 . S
C2910 C2911 1.362 . S
C2911 H2901 0.930 . S
C2911 C2904 1.409 . S
C2911 C2910 1.362 . S
H2912 C2918 0.930 . S
H2913 C2921 0.930 . S
H2914 C2922 0.930 . S
H2915 C2923 0.930 . S
H2916 C2926 0.930 . S
H2917 C2927 0.930 . S
C2918 H2912 0.930 . S
C2918 C2919 1.355 . S
C2918 C2920 1.415 . S
C2919 C2918 1.355 . S
C2919 C2921 1.419 . S
C2920 C2918 1.415 . S
C2920 C2925 1.425 . S
C2920 C2927 1.409 . S
C2921 H2913 0.930 . S
C2921 C2919 1.419 . S
C2921 C2922 1.362 . S
C2922 H2914 0.930 . S
C2922 C2921 1.362 . S
C2922 C2925 1.409 . S
C2923 H2915 0.930 . S
C2923 C2924 1.355 . S
C2923 C2925 1.415 . S
C2924 C2923 1.355 . S
C2924 C2926 1.419 . S
C2925 C2920 1.425 . S
C2925 C2922 1.409 . S
C2925 C2923 1.415 . S
C2926 H2916 0.930 . S
C2926 C2924 1.419 . S
C2926 C2927 1.362 . S
C2927 H2917 0.930 . S
C2927 C2920 1.409 . S
C2927 C2926 1.362 . S
H2928 C2934 0.930 . S
H2929 C2937 0.930 . S
H2930 C2938 0.930 . S
H2931 C2939 0.930 . S
H2932 C2942 0.930 . S
H2933 C2943 0.930 . S
C2934 H2928 0.930 . S
C2934 C2935 1.355 . S
C2934 C2936 1.415 . S
C2935 C2934 1.355 . S
C2935 C2937 1.419 . S
C2936 C2934 1.415 . S
C2936 C2941 1.425 . S
C2936 C2943 1.409 . S
C2937 H2929 0.930 . S
C2937 C2935 1.419 . S
C2937 C2938 1.362 . S
C2938 H2930 0.930 . S
C2938 C2937 1.362 . S
C2938 C2941 1.409 . S
C2939 H2931 0.930 . S
C2939 C2940 1.355 . S
C2939 C2941 1.415 . S
C2940 C2939 1.355 . S
C2940 C2942 1.419 . S
C2941 C2936 1.425 . S
C2941 C2938 1.409 . S
C2941 C2939 1.415 . S
C2942 H2932 0.930 . S
C2942 C2940 1.419 . S
C2942 C2943 1.362 . S
C2943 H2933 0.930 . S
C2943 C2936 1.409 . S
C2943 C2942 1.362 . S
H2944 C2950 0.930 . S
H2945 C2953 0.930 . S
H2946 C2954 0.930 . S
H2947 C2955 0.930 . S
H2948 C2958 0.930 . S
H2949 C2959 0.930 . S
C2950 H2944 0.930 . S
C2950 C2951 1.355 . S
C2950 C2952 1.415 . S
C2951 C2950 1.355 . S
C2951 C2953 1.419 . S
C2952 C2950 1.415 . S
C2952 C2957 1.425 . S
C2952 C2959 1.409 . S
C2953 H2945 0.930 . S
C2953 C2951 1.419 . S
C2953 C2954 1.362 . S
C2954 H2946 0.930 . S
C2954 C2953 1.362 . S
C2954 C2957 1.409 . S
C2955 H2947 0.930 . S
C2955 C2956 1.355 . S
C2955 C2957 1.415 . S
C2956 C2955 1.355 . S
C2956 C2958 1.419 . S
C2957 C2952 1.425 . S
C2957 C2954 1.409 . S
C2957 C2955 1.415 . S
C2958 H2948 0.930 . S
C2958 C2956 1.419 . S
C2958 C2959 1.362 . S
C2959 H2949 0.930 . S
C2959 C2952 1.409 . S
C2959 C2958 1.362 . S
H2960 C2966 0.930 . S
H2961 C2969 0.930 . S
H2962 C2970 0.930 . S
H2963 C2971 0.930 . S
H2964 C2974 0.930 . S
H2965 C2975 0.930 . S
C2966 H2960 0.930 . S
C2966 C2967 1.355 . S
C2966 C2968 1.415 . S
C2967 C2966 1.355 . S
C2967 C2969 1.419 . S
C2968 C2966 1.415 . S
C2968 C2973 1.425 . S
C2968 C2975 1.409 . S
C2969 H2961 0.930 . S
C2969 C2967 1.419 . S
C2969 C2970 1.362 . S
C2970 H2962 0.930 . S
C2970 C2969 1.362 . S
C2970 C2973 1.409 . S
C2971 H2963 0.930 . S
C2971 C2972 1.355 . S
C2971 C2973 1.415 . S
C2972 C2971 1.355 . S
C2972 C2974 1.419 . S
C2973 C2968 1.425 . S
C2973 C2970 1.409 . S
C2973 C2971 1.415 . S
C2974 H2964 0.930 . S
C2974 C2972 1.419 . S
C2974 C2975 1.362 . S
C2975 H2965 0.930 . S
C2975 C2968 1.409 . S
C2975 C2974 1.362 . S
H2976 C2982 0.930 . S
H2977 C2985 0.930 . S
H2978 C2986 0.930 . S
H2979 C2987 0.930 . S
H2980 C2990 0.930 . S
H2981 C2991 0.930 . S
C2982 H2976 0.930 . S
C2982 C2983 1.355 . S
C2982 C2984 1.415 . S
C2983 C2982 1.355 . S
C2983 C2985 1.419 . S
C2984 C2982 1.415 . S
C2984 C2989 1.425 . S
C2984 C2991 1.409 . S
C2985 H2977 0.930 . S
C2985 C2983 1.419 . S
C2985 C2986 1.362 . S
C2986 H2978 0.930 . S
C2986 C2985 1.362 . S
C2986 C2989 1.409 . S
C2987 H2979 0.930 . S
C2987 C2988 1.355 . S
C2987 C2989 1.415 . S
C2988 C2987 1.355 . S
C2988 C2990 1.419 . S
C2989 C2984 1.425 . S
C2989 C2986 1.409 . S
C2989 C2987 1.415 . S
C2990 H2980 0.930 . S
C2990 C2988 1.419 . S
C2990 C2991 1.362 . S
C2991 H2981 0.930 . S
C2991 C2984 1.409 . S
C2991 C2990 1.362 . S
H2992 C2998 0.930 . S
H2993 C3001 0.930 . S
H2994 C3002 0.930 . S
H2995 C3003 0.930 . S
H2996 C3006 0.930 . S
H2997 C3007 0.930 . S
C2998 H2992 0.930 . S
C2998 C2999 1.355 . S
C2998 C3000 1.415 . S
C2999 C2998 1.355 . S
C2999 C3001 1.419 . S
C3000 C2998 1.415 . S
C3000 C3005 1.425 . S
C3000 C3007 1.409 . S
C3001 H2993 0.930 . S
C3001 C2999 1.419 . S
C3001 C3002 1.362 . S
C3002 H2994 0.930 . S
C3002 C3001 1.362 . S
C3002 C3005 1.409 . S
C3003 H2995 0.930 . S
C3003 C3004 1.355 . S
C3003 C3005 1.415 . S
C3004 C3003 1.355 . S
C3004 C3006 1.419 . S
C3005 C3000 1.425 . S
C3005 C3002 1.409 . S
C3005 C3003 1.415 . S
C3006 H2996 0.930 . S
C3006 C3004 1.419 . S
C3006 C3007 1.362 . S
C3007 H2997 0.930 . S
C3007 C3000 1.409 . S
C3007 C3006 1.362 . S
H3008 C3014 0.930 . S
H3009 C3017 0.930 . S
H3010 C3018 0.930 . S
H3011 C3019 0.930 . S
H3012 C3022 0.930 . S
H3013 C3023 0.930 . S
C3014 H3008 0.930 . S
C3014 C3015 1.355 . S
C3014 C3016 1.415 . S
C3015 C3014 1.355 . S
C3015 C3017 1.419 . S
C3016 C3014 1.415 . S
C3016 C3021 1.425 . S
C3016 C3023 1.409 . S
C3017 H3009 0.930 . S
C3017 C3015 1.419 . S
C3017 C3018 1.362 . S
C3018 H3010 0.930 . S
C3018 C3017 1.362 . S
C3018 C3021 1.409 . S
C3019 H3011 0.930 . S
C3019 C3020 1.355 . S
C3019 C3021 1.415 . S
C3020 C3019 1.355 . S
C3020 C3022 1.419 . S
C3021 C3016 1.425 . S
C3021 C3018 1.409 . S
C3021 C3019 1.415 . S
C3022 H3012 0.930 . S
C3022 C3020 1.419 . S
C3022 C3023 1.362 . S
C3023 H3013 0.930 . S
C3023 C3016 1.409 . S
C3023 C3022 1.362 . S
H3024 C3030 0.930 . S
H3025 C3033 0.930 . S
H3026 C3034 0.930 . S
H3027 C3035 0.930 . S
H3028 C3038 0.930 . S
H3029 C3039 0.930 . S
C3030 H3024 0.930 . S
C3030 C3031 1.355 . S
C3030 C3032 1.415 . S
C3031 C3030 1.355 . S
C3031 C3033 1.419 . S
C3032 C3030 1.415 . S
C3032 C3037 1.425 . S
C3032 C3039 1.409 . S
C3033 H3025 0.930 . S
C3033 C3031 1.419 . S
C3033 C3034 1.362 . S
C3034 H3026 0.930 . S
C3034 C3033 1.362 . S
C3034 C3037 1.409 . S
C3035 H3027 0.930 . S
C3035 C3036 1.355 . S
C3035 C3037 1.415 . S
C3036 C3035 1.355 . S
C3036 C3038 1.419 . S
C3037 C3032 1.425 . S
C3037 C3034 1.409 . S
C3037 C3035 1.415 . S
C3038 H3028 0.930 . S
C3038 C3036 1.419 . S
C3038 C3039 1.362 . S
C3039 H3029 0.930 . S
C3039 C3032 1.409 . S
C3039 C3038 1.362 . S
H3040 C3046 0.930 . S
H3041 C3049 0.930 . S
H3042 C3050 0.930 . S
H3043 C3051 0.930 . S
H3044 C3054 0.930 . S
H3045 C3055 0.930 . S
C3046 H3040 0.930 . S
C3046 C3047 1.355 . S
C3046 C3048 1.415 . S
C3047 C3046 1.355 . S
C3047 C3049 1.419 . S
C3048 C3046 1.415 . S
C3048 C3053 1.425 . S
C3048 C3055 1.409 . S
C3049 H3041 0.930 . S
C3049 C3047 1.419 . S
C3049 C3050 1.362 . S
C3050 H3042 0.930 . S
C3050 C3049 1.362 . S
C3050 C3053 1.409 . S
C3051 H3043 0.930 . S
C3051 C3052 1.355 . S
C3051 C3053 1.415 . S
C3052 C3051 1.355 . S
C3052 C3054 1.419 . S
C3053 C3048 1.425 . S
C3053 C3050 1.409 . S
C3053 C3051 1.415 . S
C3054 H3044 0.930 . S
C3054 C3052 1.419 . S
C3054 C3055 1.362 . S
C3055 H3045 0.930 . S
C3055 C3048 1.409 . S
C3055 C3054 1.362 . S
H3056 C3062 0.930 . S
H3057 C3065 0.930 . S
H3058 C3066 0.930 . S
H3059 C3067 0.930 . S
H3060 C3070 0.930 . S
H3061 C3071 0.930 . S
C3062 H3056 0.930 . S
C3062 C3063 1.355 . S
C3062 C3064 1.415 . S
C3063 C3062 1.355 . S
C3063 C3065 1.419 . S
C3064 C3062 1.415 . S
C3064 C3069 1.425 . S
C3064 C3071 1.409 . S
C3065 H3057 0.930 . S
C3065 C3063 1.419 . S
C3065 C3066 1.362 . S
C3066 H3058 0.930 . S
C3066 C3065 1.362 . S
C3066 C3069 1.409 . S
C3067 H3059 0.930 . S
C3067 C3068 1.355 . S
C3067 C3069 1.415 . S
C3068 C3067 1.355 . S
C3068 C3070 1.419 . S
C3069 C3064 1.425 . S
C3069 C3066 1.409 . S
C3069 C3067 1.415 . S
C3070 H3060 0.930 . S
C3070 C3068 1.419 . S
C3070 C3071 1.362 . S
C3071 H3061 0.930 . S
C3071 C3064 1.409 . S
C3071 C3070 1.362 . S
H3072 C3078 0.930 . S
H3073 C3081 0.930 . S
H3074 C3082 0.930 . S
H3075 C3083 0.930 . S
H3076 C3086 0.930 . S
H3077 C3087 0.930 . S
C3078 H3072 0.930 . S
C3078 C3079 1.355 . S
C3078 C3080 1.415 . S
C3079 C3078 1.355 . S
C3079 C3081 1.419 . S
C3080 C3078 1.415 . S
C3080 C3085 1.425 . S
C3080 C3087 1.409 . S
C3081 H3073 0.930 . S
C3081 C3079 1.419 . S
C3081 C3082 1.362 . S
C3082 H3074 0.930 . S
C3082 C3081 1.362 . S
C3082 C3085 1.409 . S
C3083 H3075 0.930 . S
C3083 C3084 1.355 . S
C3083 C3085 1.415 . S
C3084 C3083 1.355 . S
C3084 C3086 1.419 . S
C3085 C3080 1.425 . S
C3085 C3082 1.409 . S
C3085 C3083 1.415 . S
C3086 H3076 0.930 . S
C3086 C3084 1.419 . S
C3086 C3087 1.362 . S
C3087 H3077 0.930 . S
C3087 C3080 1.409 . S
C3087 C3086 1.362 . S
H3088 C3094 0.930 . S
H3089 C3097 0.930 . S
H3090 C3098 0.930 . S
H3091 C3099 0.930 . S
H3092 C3102 0.930 . S
H3093 C3103 0.930 . S
C3094 H3088 0.930 . S
C3094 C3095 1.355 . S
C3094 C3096 1.415 . S
C3095 C3094 1.355 . S
C3095 C3097 1.419 . S
C3096 C3094 1.415 . S
C3096 C3101 1.425 . S
C3096 C3103 1.409 . S
C3097 H3089 0.930 . S
C3097 C3095 1.419 . S
C3097 C3098 1.362 . S
C3098 H3090 0.930 . S
C3098 C3097 1.362 . S
C3098 C3101 1.409 . S
C3099 H3091 0.930 . S
C3099 C3100 1.355 . S
C3099 C3101 1.415 . S
C3100 C3099 1.355 . S
C3100 C3102 1.419 . S
C3101 C3096 1.425 . S
C3101 C3098 1.409 . S
C3101 C3099 1.415 . S
C3102 H3092 0.930 . S
C3102 C3100 1.419 . S
C3102 C3103 1.362 . S
C3103 H3093 0.930 . S
C3103 C3096 1.409 . S
C3103 C3102 1.362 . S
H3104 C3110 0.930 . S
H3105 C3113 0.930 . S
H3106 C3114 0.930 . S
H3107 C3115 0.930 . S
H3108 C3118 0.930 . S
H3109 C3119 0.930 . S
C3110 H3104 0.930 . S
C3110 C3111 1.355 . S
C3110 C3112 1.415 . S
C3111 C3110 1.355 . S
C3111 C3113 1.419 . S
C3112 C3110 1.415 . S
C3112 C3117 1.425 . S
C3112 C3119 1.409 . S
C3113 H3105 0.930 . S
C3113 C3111 1.419 . S
C3113 C3114 1.362 . S
C3114 H3106 0.930 . S
C3114 C3113 1.362 . S
C3114 C3117 1.409 . S
C3115 H3107 0.930 . S
C3115 C3116 1.355 . S
C3115 C3117 1.415 . S
C3116 C3115 1.355 . S
C3116 C3118 1.419 . S
C3117 C3112 1.425 . S
C3117 C3114 1.409 . S
C3117 C3115 1.415 . S
C3118 H3108 0.930 . S
C3118 C3116 1.419 . S
C3118 C3119 1.362 . S
C3119 H3109 0.930 . S
C3119 C3112 1.409 . S
C3119 C3118 1.362 . S
H3120 C3126 0.930 . S
H3121 C3129 0.930 . S
H3122 C3130 0.930 . S
H3123 C3131 0.930 . S
H3124 C3134 0.930 . S
H3125 C3135 0.930 . S
C3126 H3120 0.930 . S
C3126 C3127 1.355 . S
C3126 C3128 1.415 . S
C3127 C3126 1.355 . S
C3127 C3129 1.419 . S
C3128 C3126 1.415 . S
C3128 C3133 1.425 . S
C3128 C3135 1.409 . S
C3129 H3121 0.930 . S
C3129 C3127 1.419 . S
C3129 C3130 1.362 . S
C3130 H3122 0.930 . S
C3130 C3129 1.362 . S
C3130 C3133 1.409 . S
C3131 H3123 0.930 . S
C3131 C3132 1.355 . S
C3131 C3133 1.415 . S
C3132 C3131 1.355 . S
C3132 C3134 1.419 . S
C3133 C3128 1.425 . S
C3133 C3130 1.409 . S
C3133 C3131 1.415 . S
C3134 H3124 0.930 . S
C3134 C3132 1.419 . S
C3134 C3135 1.362 . S
C3135 H3125 0.930 . S
C3135 C3128 1.409 . S
C3135 C3134 1.362 . S
H3136 C3142 0.930 . S
H3137 C3145 0.930 . S
H3138 C3146 0.930 . S
H3139 C3147 0.930 . S
H3140 C3150 0.930 . S
H3141 C3151 0.930 . S
C3142 H3136 0.930 . S
C3142 C3143 1.355 . S
C3142 C3144 1.415 . S
C3143 C3142 1.355 . S
C3143 C3145 1.419 . S
C3144 C3142 1.415 . S
C3144 C3149 1.425 . S
C3144 C3151 1.409 . S
C3145 H3137 0.930 . S
C3145 C3143 1.419 . S
C3145 C3146 1.362 . S
C3146 H3138 0.930 . S
C3146 C3145 1.362 . S
C3146 C3149 1.409 . S
C3147 H3139 0.930 . S
C3147 C3148 1.355 . S
C3147 C3149 1.415 . S
C3148 C3147 1.355 . S
C3148 C3150 1.419 . S
C3149 C3144 1.425 . S
C3149 C3146 1.409 . S
C3149 C3147 1.415 . S
C3150 H3140 0.930 . S
C3150 C3148 1.419 . S
C3150 C3151 1.362 . S
C3151 H3141 0.930 . S
C3151 C3144 1.409 . S
C3151 C3150 1.362 . S
H3152 C3158 0.930 . S
H3153 C3161 0.930 . S
H3154 C3162 0.930 . S
H3155 C3163 0.930 . S
H3156 C3166 0.930 . S
H3157 C3167 0.930 . S
C3158 H3152 0.930 . S
C3158 C3159 1.355 . S
C3158 C3160 1.415 . S
C3159 C3158 1.355 . S
C3159 C3161 1.419 . S
C3160 C3158 1.415 . S
C3160 C3165 1.425 . S
C3160 C3167 1.409 . S
C3161 H3153 0.930 . S
C3161 C3159 1.419 . S
C3161 C3162 1.362 . S
C3162 H3154 0.930 . S
C3162 C3161 1.362 . S
C3162 C3165 1.409 . S
C3163 H3155 0.930 . S
C3163 C3164 1.355 . S
C3163 C3165 1.415 . S
C3164 C3163 1.355 . S
C3164 C3166 1.419 . S
C3165 C3160 1.425 . S
C3165 C3162 1.409 . S
C3165 C3163 1.415 . S
C3166 H3156 0.930 . S
C3166 C3164 1.419 . S
C3166 C3167 1.362 . S
C3167 H3157 0.930 . S
C3167 C3160 1.409 . S
C3167 C3166 1.362 . S
H3168 C3174 0.930 . S
H3169 C3177 0.930 . S
H3170 C3178 0.930 . S
H3171 C3179 0.930 . S
H3172 C3182 0.930 . S
H3173 C3183 0.930 . S
C3174 H3168 0.930 . S
C3174 C3175 1.355 . S
C3174 C3176 1.415 . S
C3175 C3174 1.355 . S
C3175 C3177 1.419 . S
C3176 C3174 1.415 . S
C3176 C3181 1.425 . S
C3176 C3183 1.409 . S
C3177 H3169 0.930 . S
C3177 C3175 1.419 . S
C3177 C3178 1.362 . S
C3178 H3170 0.930 . S
C3178 C3177 1.362 . S
C3178 C3181 1.409 . S
C3179 H3171 0.930 . S
C3179 C3180 1.355 . S
C3179 C3181 1.415 . S
C3180 C3179 1.355 . S
C3180 C3182 1.419 . S
C3181 C3176 1.425 . S
C3181 C3178 1.409 . S
C3181 C3179 1.415 . S
C3182 H3172 0.930 . S
C3182 C3180 1.419 . S
C3182 C3183 1.362 . S
C3183 H3173 0.930 . S
C3183 C3176 1.409 . S
C3183 C3182 1.362 . S
H3184 C3190 0.930 . S
H3185 C3193 0.930 . S
H3186 C3194 0.930 . S
H3187 C3195 0.930 . S
H3188 C3198 0.930 . S
H3189 C3199 0.930 . S
C3190 H3184 0.930 . S
C3190 C3191 1.355 . S
C3190 C3192 1.415 . S
C3191 C3190 1.355 . S
C3191 C3193 1.419 . S
C3192 C3190 1.415 . S
C3192 C3197 1.425 . S
C3192 C3199 1.409 . S
C3193 H3185 0.930 . S
C3193 C3191 1.419 . S
C3193 C3194 1.362 . S
C3194 H3186 0.930 . S
C3194 C3193 1.362 . S
C3194 C3197 1.409 . S
C3195 H3187 0.930 . S
C3195 C3196 1.355 . S
C3195 C3197 1.415 . S
C3196 C3195 1.355 . S
C3196 C3198 1.419 . S
C3197 C3192 1.425 . S
C3197 C3194 1.409 . S
C3197 C3195 1.415 . S
C3198 H3188 0.930 . S
C3198 C3196 1.419 . S
C3198 C3199 1.362 . S
C3199 H3189 0.930 . S
C3199 C3192 1.409 . S
C3199 C3198 1.362 . S
H3200 C3206 0.930 . S
H3201 C3209 0.930 . S
H3202 C3210 0.930 . S
H3203 C3211 0.930 . S
H3204 C3214 0.930 . S
H3205 C3215 0.930 . S
C3206 H3200 0.930 . S
C3206 C3207 1.355 . S
C3206 C3208 1.415 . S
C3207 C3206 1.355 . S
C3207 C3209 1.419 . S
C3208 C3206 1.415 . S
C3208 C3213 1.425 . S
C3208 C3215 1.409 . S
C3209 H3201 0.930 . S
C3209 C3207 1.419 . S
C3209 C3210 1.362 . S
C3210 H3202 0.930 . S
C3210 C3209 1.362 . S
C3210 C3213 1.409 . S
C3211 H3203 0.930 . S
C3211 C3212 1.355 . S
C3211 C3213 1.415 . S
C3212 C3211 1.355 . S
C3212 C3214 1.419 . S
C3213 C3208 1.425 . S
C3213 C3210 1.409 . S
C3213 C3211 1.415 . S
C3214 H3204 0.930 . S
C3214 C3212 1.419 . S
C3214 C3215 1.362 . S
C3215 H3205 0.930 . S
C3215 C3208 1.409 . S
C3215 C3214 1.362 . S
H3216 C3222 0.930 . S
H3217 C3225 0.930 . S
H3218 C3226 0.930 . S
H3219 C3227 0.930 . S
H3220 C3230 0.930 . S
H3221 C3231 0.930 . S
C3222 H3216 0.930 . S
C3222 C3223 1.355 . S
C3222 C3224 1.415 . S
C3223 C3222 1.355 . S
C3223 C3225 1.419 . S
C3224 C3222 1.415 . S
C3224 C3229 1.425 . S
C3224 C3231 1.409 . S
C3225 H3217 0.930 . S
C3225 C3223 1.419 . S
C3225 C3226 1.362 . S
C3226 H3218 0.930 . S
C3226 C3225 1.362 . S
C3226 C3229 1.409 . S
C3227 H3219 0.930 . S
C3227 C3228 1.355 . S
C3227 C3229 1.415 . S
C3228 C3227 1.355 . S
C3228 C3230 1.419 . S
C3229 C3224 1.425 . S
C3229 C3226 1.409 . S
C3229 C3227 1.415 . S
C3230 H3220 0.930 . S
C3230 C3228 1.419 . S
C3230 C3231 1.362 . S
C3231 H3221 0.930 . S
C3231 C3224 1.409 . S
C3231 C3230 1.362 . S
H3232 C3238 0.930 . S
H3233 C3241 0.930 . S
H3234 C3242 0.930 . S
H3235 C3243 0.930 . S
H3236 C3246 0.930 . S
H3237 C3247 0.930 . S
C3238 H3232 0.930 . S
C3238 C3239 1.355 . S
C3238 C3240 1.415 . S
C3239 C3238 1.355 . S
C3239 C3241 1.419 . S
C3240 C3238 1.415 . S
C3240 C3245 1.425 . S
C3240 C3247 1.409 . S
C3241 H3233 0.930 . S
C3241 C3239 1.419 . S
C3241 C3242 1.362 . S
C3242 H3234 0.930 . S
C3242 C3241 1.362 . S
C3242 C3245 1.409 . S
C3243 H3235 0.930 . S
C3243 C3244 1.355 . S
C3243 C3245 1.415 . S
C3244 C3243 1.355 . S
C3244 C3246 1.419 . S
C3245 C3240 1.425 . S
C3245 C3242 1.409 . S
C3245 C3243 1.415 . S
C3246 H3236 0.930 . S
C3246 C3244 1.419 . S
C3246 C3247 1.362 . S
C3247 H3237 0.930 . S
C3247 C3240 1.409 . S
C3247 C3246 1.362 . S
H3248 C3254 0.930 . S
H3249 C3257 0.930 . S
H3250 C3258 0.930 . S
H3251 C3259 0.930 . S
H3252 C3262 0.930 . S
H3253 C3263 0.930 . S
C3254 H3248 0.930 . S
C3254 C3255 1.355 . S
C3254 C3256 1.415 . S
C3255 C3254 1.355 . S
C3255 C3257 1.419 . S
C3256 C3254 1.415 . S
C3256 C3261 1.425 . S
C3256 C3263 1.409 . S
C3257 H3249 0.930 . S
C3257 C3255 1.419 . S
C3257 C3258 1.362 . S
C3258 H3250 0.930 . S
C3258 C3257 1.362 . S
C3258 C3261 1.409 . S
C3259 H3251 0.930 . S
C3259 C3260 1.355 . S
C3259 C3261 1.415 . S
C3260 C3259 1.355 . S
C3260 C3262 1.419 . S
C3261 C3256 1.425 . S
C3261 C3258 1.409 . S
C3261 C3259 1.415 . S
C3262 H3252 0.930 . S
C3262 C3260 1.419 . S
C3262 C3263 1.362 . S
C3263 H3253 0.930 . S
C3263 C3256 1.409 . S
C3263 C3262 1.362 . S
H3264 C3270 0.930 . S
H3265 C3273 0.930 . S
H3266 C3274 0.930 . S
H3267 C3275 0.930 . S
H3268 C3278 0.930 . S
H3269 C3279 0.930 . S
C3270 H3264 0.930 . S
C3270 C3271 1.355 . S
C3270 C3272 1.415 . S
C3271 C3270 1.355 . S
C3271 C3273 1.419 . S
C3272 C3270 1.415 . S
C3272 C3277 1.425 . S
C3272 C3279 1.409 . S
C3273 H3265 0.930 . S
C3273 C3271 1.419 . S
C3273 C3274 1.362 . S
C3274 H3266 0.930 . S
C3274 C3273 1.362 . S
C3274 C3277 1.409 . S
C3275 H3267 0.930 . S
C3275 C3276 1.355 . S
C3275 C3277 1.415 . S
C3276 C3275 1.355 . S
C3276 C3278 1.419 . S
C3277 C3272 1.425 . S
C3277 C3274 1.409 . S
C3277 C3275 1.415 . S
C3278 H3268 0.930 . S
C3278 C3276 1.419 . S
C3278 C3279 1.362 . S
C3279 H3269 0.930 . S
C3279 C3272 1.409 . S
C3279 C3278 1.362 . S
H3280 C3286 0.930 . S
H3281 C3289 0.930 . S
H3282 C3290 0.930 . S
H3283 C3291 0.930 . S
H3284 C3294 0.930 . S
H3285 C3295 0.930 . S
C3286 H3280 0.930 . S
C3286 C3287 1.355 . S
C3286 C3288 1.415 . S
C3287 C3286 1.355 . S
C3287 C3289 1.419 . S
C3288 C3286 1.415 . S
C3288 C3293 1.425 . S
C3288 C3295 1.409 . S
C3289 H3281 0.930 . S
C3289 C3287 1.419 . S
C3289 C3290 1.362 . S
C3290 H3282 0.930 . S
C3290 C3289 1.362 . S
C3290 C3293 1.409 . S
C3291 H3283 0.930 . S
C3291 C3292 1.355 . S
C3291 C3293 1.415 . S
C3292 C3291 1.355 . S
C3292 C3294 1.419 . S
C3293 C3288 1.425 . S
C3293 C3290 1.409 . S
C3293 C3291 1.415 . S
C3294 H3284 0.930 . S
C3294 C3292 1.419 . S
C3294 C3295 1.362 . S
C3295 H3285 0.930 . S
C3295 C3288 1.409 . S
C3295 C3294 1.362 . S
H3296 C3302 0.930 . S
H3297 C3305 0.930 . S
H3298 C3306 0.930 . S
H3299 C3307 0.930 . S
H3300 C3310 0.930 . S
H3301 C3311 0.930 . S
C3302 H3296 0.930 . S
C3302 C3303 1.355 . S
C3302 C3304 1.415 . S
C3303 C3302 1.355 . S
C3303 C3305 1.419 . S
C3304 C3302 1.415 . S
C3304 C3309 1.425 . S
C3304 C3311 1.409 . S
C3305 H3297 0.930 . S
C3305 C3303 1.419 . S
C3305 C3306 1.362 . S
C3306 H3298 0.930 . S
C3306 C3305 1.362 . S
C3306 C3309 1.409 . S
C3307 H3299 0.930 . S
C3307 C3308 1.355 . S
C3307 C3309 1.415 . S
C3308 C3307 1.355 . S
C3308 C3310 1.419 . S
C3309 C3304 1.425 . S
C3309 C3306 1.409 . S
C3309 C3307 1.415 . S
C3310 H3300 0.930 . S
C3310 C3308 1.419 . S
C3310 C3311 1.362 . S
C3311 H3301 0.930 . S
C3311 C3304 1.409 . S
C3311 C3310 1.362 . S
H3312 C3318 0.930 . S
H3313 C3321 0.930 . S
H3314 C3322 0.930 . S
H3315 C3323 0.930 . S
H3316 C3326 0.930 . S
H3317 C3327 0.930 . S
C3318 H3312 0.930 . S
C3318 C3319 1.355 . S
C3318 C3320 1.415 . S
C3319 C3318 1.355 . S
C3319 C3321 1.419 . S
C3320 C3318 1.415 . S
C3320 C3325 1.425 . S
C3320 C3327 1.409 . S
C3321 H3313 0.930 . S
C3321 C3319 1.419 . S
C3321 C3322 1.362 . S
C3322 H3314 0.930 . S
C3322 C3321 1.362 . S
C3322 C3325 1.409 . S
C3323 H3315 0.930 . S
C3323 C3324 1.355 . S
C3323 C3325 1.415 . S
C3324 C3323 1.355 . S
C3324 C3326 1.419 . S
C3325 C3320 1.425 . S
C3325 C3322 1.409 . S
C3325 C3323 1.415 . S
C3326 H3316 0.930 . S
C3326 C3324 1.419 . S
C3326 C3327 1.362 . S
C3327 H3317 0.930 . S
C3327 C3320 1.409 . S
C3327 C3326 1.362 . S
H3328 C3334 0.930 . S
H3329 C3337 0.930 . S
H3330 C3338 0.930 . S
H3331 C3339 0.930 . S
H3332 C3342 0.930 . S
H3333 C3343 0.930 . S
C3334 H3328 0.930 . S
C3334 C3335 1.355 . S
C3334 C3336 1.415 . S
C3335 C3334 1.355 . S
C3335 C3337 1.419 . S
C3336 C3334 1.415 . S
C3336 C3341 1.425 . S
C3336 C3343 1.409 . S
C3337 H3329 0.930 . S
C3337 C3335 1.419 . S
C3337 C3338 1.362 . S
C3338 H3330 0.930 . S
C3338 C3337 1.362 . S
C3338 C3341 1.409 . S
C3339 H3331 0.930 . S
C3339 C3340 1.355 . S
C3339 C3341 1.415 . S
C3340 C3339 1.355 . S
C3340 C3342 1.419 . S
C3341 C3336 1.425 . S
C3341 C3338 1.409 . S
C3341 C3339 1.415 . S
C3342 H3332 0.930 . S
C3342 C3340 1.419 . S
C3342 C3343 1.362 . S
C3343 H3333 0.930 . S
C3343 C3336 1.409 . S
C3343 C3342 1.362 . S
H3344 C3350 0.930 . S
H3345 C3353 0.930 . S
H3346 C3354 0.930 . S
H3347 C3355 0.930 . S
H3348 C3358 0.930 . S
H3349 C3359 0.930 . S
C3350 H3344 0.930 . S
C3350 C3351 1.355 . S
C3350 C3352 1.415 . S
C3351 C3350 1.355 . S
C3351 C3353 1.419 . S
C3352 C3350 1.415 . S
C3352 C3357 1.425 . S
C3352 C3359 1.409 . S
C3353 H3345 0.930 . S
C3353 C3351 1.419 . S
C3353 C3354 1.362 . S
C3354 H3346 0.930 . S
C3354 C3353 1.362 . S
C3354 C3357 1.409 . S
C3355 H3347 0.930 . S
C3355 C3356 1.355 . S
C3355 C3357 1.415 . S
C3356 C3355 1.355 . S
C3356 C3358 1.419 . S
C3357 C3352 1.425 . S
C3357 C3354 1.409 . S
C3357 C3355 1.415 . S
C3358 H3348 0.930 . S
C3358 C3356 1.419 . S
C3358 C3359 1.362 . S
C3359 H3349 0.930 . S
C3359 C3352 1.409 . S
C3359 C3358 1.362 . S
H3360 C3366 0.930 . S
H3361 C3369 0.930 . S
H3362 C3370 0.930 . S
H3363 C3371 0.930 . S
H3364 C3374 0.930 . S
H3365 C3375 0.930 . S
C3366 H3360 0.930 . S
C3366 C3367 1.355 . S
C3366 C3368 1.415 . S
C3367 C3366 1.355 . S
C3367 C3369 1.419 . S
C3368 C3366 1.415 . S
C3368 C3373 1.425 . S
C3368 C3375 1.409 . S
C3369 H3361 0.930 . S
C3369 C3367 1.419 . S
C3369 C3370 1.362 . S
C3370 H3362 0.930 . S
C3370 C3369 1.362 . S
C3370 C3373 1.409 . S
C3371 H3363 0.930 . S
C3371 C3372 1.355 . S
C3371 C3373 1.415 . S
C3372 C3371 1.355 . S
C3372 C3374 1.419 . S
C3373 C3368 1.425 . S
C3373 C3370 1.409 . S
C3373 C3371 1.415 . S
C3374 H3364 0.930 . S
C3374 C3372 1.419 . S
C3374 C3375 1.362 . S
C3375 H3365 0.930 . S
C3375 C3368 1.409 . S
C3375 C3374 1.362 . S
H3376 C3382 0.930 . S
H3377 C3385 0.930 . S
H3378 C3386 0.930 . S
H3379 C3387 0.930 . S
H3380 C3390 0.930 . S
H3381 C3391 0.930 . S
C3382 H3376 0.930 . S
C3382 C3383 1.355 . S
C3382 C3384 1.415 . S
C3383 C3382 1.355 . S
C3383 C3385 1.419 . S
C3384 C3382 1.415 . S
C3384 C3389 1.425 . S
C3384 C3391 1.409 . S
C3385 H3377 0.930 . S
C3385 C3383 1.419 . S
C3385 C3386 1.362 . S
C3386 H3378 0.930 . S
C3386 C3385 1.362 . S
C3386 C3389 1.409 . S
C3387 H3379 0.930 . S
C3387 C3388 1.355 . S
C3387 C3389 1.415 . S
C3388 C3387 1.355 . S
C3388 C3390 1.419 . S
C3389 C3384 1.425 . S
C3389 C3386 1.409 . S
C3389 C3387 1.415 . S
C3390 H3380 0.930 . S
C3390 C3388 1.419 . S
C3390 C3391 1.362 . S
C3391 H3381 0.930 . S
C3391 C3384 1.409 . S
C3391 C3390 1.362 . S
H3392 C3398 0.930 . S
H3393 C3401 0.930 . S
H3394 C3402 0.930 . S
H3395 C3403 0.930 . S
H3396 C3406 0.930 . S
H3397 C3407 0.930 . S
C3398 H3392 0.930 . S
C3398 C3399 1.355 . S
C3398 C3400 1.415 . S
C3399 C3398 1.355 . S
C3399 C3401 1.419 . S
C3400 C3398 1.415 . S
C3400 C3405 1.425 . S
C3400 C3407 1.409 . S
C3401 H3393 0.930 . S
C3401 C3399 1.419 . S
C3401 C3402 1.362 . S
C3402 H3394 0.930 . S
C3402 C3401 1.362 . S
C3402 C3405 1.409 . S
C3403 H3395 0.930 . S
C3403 C3404 1.355 . S
C3403 C3405 1.415 . S
C3404 C3403 1.355 . S
C3404 C3406 1.419 . S
C3405 C3400 1.425 . S
C3405 C3402 1.409 . S
C3405 C3403 1.415 . S
C3406 H3396 0.930 . S
C3406 C3404 1.419 . S
C3406 C3407 1.362 . S
C3407 H3397 0.930 . S
C3407 C3400 1.409 . S
C3407 C3406 1.362 . S
H3408 C3414 0.930 . S
H3409 C3417 0.930 . S
H3410 C3418 0.930 . S
H3411 C3419 0.930 . S
H3412 C3422 0.930 . S
H3413 C3423 0.930 . S
C3414 H3408 0.930 . S
C3414 C3415 1.355 . S
C3414 C3416 1.415 . S
C3415 C3414 1.355 . S
C3415 C3417 1.419 . S
C3416 C3414 1.415 . S
C3416 C3421 1.425 . S
C3416 C3423 1.409 . S
C3417 H3409 0.930 . S
C3417 C3415 1.419 . S
C3417 C3418 1.362 . S
C3418 H3410 0.930 . S
C3418 C3417 1.362 . S
C3418 C3421 1.409 . S
C3419 H3411 0.930 . S
C3419 C3420 1.355 . S
C3419 C3421 1.415 . S
C3420 C3419 1.355 . S
C3420 C3422 1.419 . S
C3421 C3416 1.425 . S
C3421 C3418 1.409 . S
C3421 C3419 1.415 . S
C3422 H3412 0.930 . S
C3422 C3420 1.419 . S
C3422 C3423 1.362 . S
C3423 H3413 0.930 . S
C3423 C3416 1.409 . S
C3423 C3422 1.362 . S
H3424 C3430 0.930 . S
H3425 C3433 0.930 . S
H3426 C3434 0.930 . S
H3427 C3435 0.930 . S
H3428 C3438 0.930 . S
H3429 C3439 0.930 . S
C3430 H3424 0.930 . S
C3430 C3431 1.355 . S
C3430 C3432 1.415 . S
C3431 C3430 1.355 . S
C3431 C3433 1.419 . S
C3432 C3430 1.415 . S
C3432 C3437 1.425 . S
C3432 C3439 1.409 . S
C3433 H3425 0.930 . S
C3433 C3431 1.419 . S
C3433 C3434 1.362 . S
C3434 H3426 0.930 . S
C3434 C3433 1.362 . S
C3434 C3437 1.409 . S
C3435 H3427 0.930 . S
C3435 C3436 1.355 . S
C3435 C3437 1.415 . S
C3436 C3435 1.355 . S
C3436 C3438 1.419 . S
C3437 C3432 1.425 . S
C3437 C3434 1.409 . S
C3437 C3435 1.415 . S
C3438 H3428 0.930 . S
C3438 C3436 1.419 . S
C3438 C3439 1.362 . S
C3439 H3429 0.930 . S
C3439 C3432 1.409 . S
C3439 C3438 1.362 . S
H3440 C3446 0.930 . S
H3441 C3449 0.930 . S
H3442 C3450 0.930 . S
H3443 C3451 0.930 . S
H3444 C3454 0.930 . S
H3445 C3455 0.930 . S
C3446 H3440 0.930 . S
C3446 C3447 1.355 . S
C3446 C3448 1.415 . S
C3447 C3446 1.355 . S
C3447 C3449 1.419 . S
C3448 C3446 1.415 . S
C3448 C3453 1.425 . S
C3448 C3455 1.409 . S
C3449 H3441 0.930 . S
C3449 C3447 1.419 . S
C3449 C3450 1.362 . S
C3450 H3442 0.930 . S
C3450 C3449 1.362 . S
C3450 C3453 1.409 . S
C3451 H3443 0.930 . S
C3451 C3452 1.355 . S
C3451 C3453 1.415 . S
C3452 C3451 1.355 . S
C3452 C3454 1.419 . S
C3453 C3448 1.425 . S
C3453 C3450 1.409 . S
C3453 C3451 1.415 . S
C3454 H3444 0.930 . S
C3454 C3452 1.419 . S
C3454 C3455 1.362 . S
C3455 H3445 0.930 . S
C3455 C3448 1.409 . S
C3455 C3454 1.362 . S
H3456 C3462 0.930 . S
H3457 C3465 0.930 . S
H3458 C3466 0.930 . S
H3459 C3467 0.930 . S
H3460 C3470 0.930 . S
H3461 C3471 0.930 . S
C3462 H3456 0.930 . S
C3462 C3463 1.355 . S
C3462 C3464 1.415 . S
C3463 C3462 1.355 . S
C3463 C3465 1.419 . S
C3464 C3462 1.415 . S
C3464 C3469 1.425 . S
C3464 C3471 1.409 . S
C3465 H3457 0.930 . S
C3465 C3463 1.419 . S
C3465 C3466 1.362 . S
C3466 H3458 0.930 . S
C3466 C3465 1.362 . S
C3466 C3469 1.409 . S
C3467 H3459 0.930 . S
C3467 C3468 1.355 . S
C3467 C3469 1.415 . S
C3468 C3467 1.355 . S
C3468 C3470 1.419 . S
C3469 C3464 1.425 . S
C3469 C3466 1.409 . S
C3469 C3467 1.415 . S
C3470 H3460 0.930 . S
C3470 C3468 1.419 . S
C3470 C3471 1.362 . S
C3471 H3461 0.930 . S
C3471 C3464 1.409 . S
C3471 C3470 1.362 . S
H3472 C3478 0.930 . S
H3473 C3481 0.930 . S
H3474 C3482 0.930 . S
H3475 C3483 0.930 . S
H3476 C3486 0.930 . S
H3477 C3487 0.930 . S
C3478 H3472 0.930 . S
C3478 C3479 1.355 . S
C3478 C3480 1.415 . S
C3479 C3478 1.355 . S
C3479 C3481 1.419 . S
C3480 C3478 1.415 . S
C3480 C3485 1.425 . S
C3480 C3487 1.409 . S
C3481 H3473 0.930 . S
C3481 C3479 1.419 . S
C3481 C3482 1.362 . S
C3482 H3474 0.930 . S
C3482 C3481 1.362 . S
C3482 C3485 1.409 . S
C3483 H3475 0.930 . S
C3483 C3484 1.355 . S
C3483 C3485 1.415 . S
C3484 C3483 1.355 . S
C3484 C3486 1.419 . S
C3485 C3480 1.425 . S
C3485 C3482 1.409 . S
C3485 C3483 1.415 . S
C3486 H3476 0.930 . S
C3486 C3484 1.419 . S
C3486 C3487 1.362 . S
C3487 H3477 0.930 . S
C3487 C3480 1.409 . S
C3487 C3486 1.362 . S
H3488 C3494 0.930 . S
H3489 C3497 0.930 . S
H3490 C3498 0.930 . S
H3491 C3499 0.930 . S
H3492 C3502 0.930 . S
H3493 C3503 0.930 . S
C3494 H3488 0.930 . S
C3494 C3495 1.355 . S
C3494 C3496 1.415 . S
C3495 C3494 1.355 . S
C3495 C3497 1.419 . S
C3496 C3494 1.415 . S
C3496 C3501 1.425 . S
C3496 C3503 1.409 . S
C3497 H3489 0.930 . S
C3497 C3495 1.419 . S
C3497 C3498 1.362 . S
C3498 H3490 0.930 . S
C3498 C3497 1.362 . S
C3498 C3501 1.409 . S
C3499 H3491 0.930 . S
C3499 C3500 1.355 . S
C3499 C3501 1.415 . S
C3500 C3499 1.355 . S
C3500 C3502 1.419 . S
C3501 C3496 1.425 . S
C3501 C3498 1.409 . S
C3501 C3499 1.415 . S
C3502 H3492 0.930 . S
C3502 C3500 1.419 . S
C3502 C3503 1.362 . S
C3503 H3493 0.930 . S
C3503 C3496 1.409 . S
C3503 C3502 1.362 . S
C1591 N607 1.543 . S
C1596 C18 1.530 . S
C1607 C51 1.565 . S
C1612 N640 1.480 . S
C1623 C84 1.569 . S
C1628 N673 1.502 . S
C1639 N574 1.536 . S
C1644 C117 1.523 . S
C1655 N739 1.526 . S
C1660 C150 1.561 . S
C1671 C183 1.557 . S
C1676 N541 1.532 . S
C1687 N772 1.495 . S
C1692 C216 1.523 . S
C1703 N706 1.496 . S
C1708 C249 1.569 . S
C1719 C282 1.519 . S
C1724 N310 1.522 . S
C1735 N343 1.527 . S
C1740 C315 1.560 . S
C1751 N376 1.513 . S
C1756 C348 1.519 . S
C1767 C381 1.561 . S
C1772 N277 1.526 . S
C1783 N508 1.472 . S
C1788 C414 1.541 . S
C1799 C447 1.519 . S
C1804 N409 1.509 . S
C1815 N442 1.523 . S
C1820 C480 1.562 . S
C1831 N475 1.515 . S
C1836 C513 1.566 . S
C1847 C546 1.519 . S
C1852 N112 1.514 . S
C1863 N178 1.540 . S
C1868 C579 1.548 . S
C1879 C612 1.568 . S
C1884 N211 1.487 . S
C1895 N244 1.488 . S
C1900 C645 1.526 . S
C1911 N145 1.496 . S
C1916 C678 1.569 . S
C1927 C711 1.566 . S
C1932 N46 1.482 . S
C1943 C744 1.519 . S
C1948 N79 1.510 . S
C1959 N13 1.511 . S
C1964 C777 1.519 . S
C1975 C810 1.568 . S
C1980 N1399 1.503 . S
C1991 N1432 1.496 . S
C1996 C843 1.523 . S
C2007 N1465 1.512 . S
C2012 C876 1.519 . S
C2023 C909 1.524 . S
C2028 N1366 1.538 . S
C2039 N1531 1.534 . S
C2044 C942 1.555 . S
C2055 C975 1.568 . S
C2060 N1333 1.508 . S
C2071 N1564 1.473 . S
C2076 C1008 1.539 . S
C2087 N1498 1.493 . S
C2092 C1041 1.569 . S
C2103 N1102 1.469 . S
C2108 C1074 1.550 . S
C2119 C1107 1.564 . S
C2124 N1135 1.521 . S
C2135 N1168 1.502 . S
C2140 C1140 1.520 . S
C2151 C1173 1.559 . S
C2156 N1069 1.472 . S
C2167 C1206 1.523 . S
C2172 N1300 1.535 . S
C2183 N1201 1.498 . S
C2188 C1239 1.569 . S
C2199 C1272 1.563 . S
C2204 N1234 1.523 . S
C2215 N1267 1.482 . S
C2220 C1305 1.530 . S
C2231 N904 1.485 . S
C2236 C1338 1.567 . S
C2247 C1371 1.550 . S
C2252 N970 1.469 . S
C2263 C1404 1.569 . S
C2268 N1003 1.493 . S
C2279 N1036 1.469 . S
C2284 C1437 1.552 . S
C2295 N937 1.524 . S
C2300 C1470 1.562 . S
C2311 N838 1.492 . S
C2316 C1503 1.524 . S
C2327 C1536 1.552 . S
C2332 N871 1.538 . S
C2343 N805 1.490 . S
C2348 C1569 1.525 . S
C2359 C1044 1.526 . S
C2364 C21 1.569 . S
C2375 C945 1.571 . S
C2380 C54 1.597 . S
C2391 C87 1.521 . S
C2396 C978 1.506 . S
C2407 C1011 1.529 . S
C2412 C120 1.505 . S
C2423 C153 1.536 . S
C2428 C846 1.579 . S
C2439 C879 1.515 . S
C2444 C186 1.508 . S
C2455 C912 1.557 . S
C2460 C219 1.516 . S
C2471 C252 1.586 . S
C2476 C813 1.595 . S
C2487 C285 1.511 . S
C2492 C1473 1.511 . S
C2503 C1374 1.558 . S
C2508 C318 1.593 . S
C2519 C1407 1.515 . S
C2524 C351 1.555 . S
C2535 C1440 1.571 . S
C2540 C384 1.597 . S
C2551 C1572 1.593 . S
C2556 C417 1.591 . S
C2567 C450 1.584 . S
C2572 C1506 1.596 . S
C2583 C483 1.564 . S
C2588 C1539 1.522 . S
C2599 C1341 1.507 . S
C2604 C516 1.538 . S
C2615 C1308 1.588 . S
C2620 C549 1.595 . S
C2631 C582 1.507 . S
C2636 C1110 1.537 . S
C2647 C1143 1.587 . S
C2652 C615 1.595 . S
C2663 C1176 1.587 . S
C2668 C648 1.595 . S
C2679 C681 1.506 . S
C2684 C1077 1.534 . S
C2695 C714 1.597 . S
C2700 C1242 1.578 . S
C2711 C1275 1.593 . S
C2716 C747 1.590 . S
C2727 C780 1.508 . S
C2732 C1209 1.515 . S
C2743 N266 1.156 . S
C2748 C7 1.153 . S
C2759 N299 1.281 . S
C2764 C40 1.274 . S
C2775 C73 1.152 . S
C2780 N332 1.156 . S
C2791 C106 1.245 . S
C2796 N365 1.257 . S
C2807 C139 1.260 . S
C2812 N398 1.255 . S
C2823 N431 1.286 . S
C2828 C172 1.283 . S
C2839 N464 1.242 . S
C2844 C205 1.248 . S
C2855 C238 1.248 . S
C2860 N497 1.259 . S
C2871 N530 1.229 . S
C2876 C271 1.216 . S
C2887 N761 1.156 . S
C2892 C304 1.152 . S
C2903 N695 1.211 . S
C2908 C337 1.218 . S
C2919 C370 1.207 . S
C2924 N728 1.200 . S
C2935 C403 1.231 . S
C2940 N563 1.225 . S
C2951 C436 1.153 . S
C2956 N596 1.160 . S
C2967 C469 1.234 . S
C2972 N629 1.246 . S
C2983 C502 1.202 . S
C2988 N662 1.215 . S
C2999 N2 1.218 . S
C3004 C535 1.205 . S
C3015 C568 1.283 . S
C3020 N134 1.284 . S
C3031 N167 1.187 . S
C3036 C601 1.192 . S
C3047 C634 1.271 . S
C3052 N200 1.268 . S
C3063 N233 1.252 . S
C3068 C667 1.258 . S
C3079 N68 1.169 . S
C3084 C700 1.160 . S
C3095 C733 1.283 . S
C3100 N101 1.286 . S
C3111 N35 1.159 . S
C3116 C766 1.152 . S
C3127 C799 1.235 . S
C3132 N1058 1.247 . S
C3143 N1091 1.251 . S
C3148 C832 1.256 . S
C3159 C865 1.223 . S
C3164 N1124 1.216 . S
C3175 C898 1.262 . S
C3180 N1157 1.257 . S
C3191 C931 1.153 . S
C3196 N1190 1.160 . S
C3207 C964 1.172 . S
C3212 N1223 1.184 . S
C3223 C997 1.284 . S
C3228 N1256 1.285 . S
C3239 C1030 1.228 . S
C3244 N1289 1.240 . S
C3255 C1063 1.251 . S
C3260 N1322 1.262 . S
C3271 C1096 1.152 . S
C3276 N1553 1.157 . S
C3287 C1129 1.154 . S
C3292 N1487 1.156 . S
C3303 N1520 1.259 . S
C3308 C1162 1.248 . S
C3319 N1355 1.230 . S
C3324 C1195 1.217 . S
C3335 C1228 1.281 . S
C3340 N1388 1.286 . S
C3351 N1421 1.206 . S
C3356 C1261 1.193 . S
C3367 C1294 1.153 . S
C3372 N1454 1.159 . S
C3383 C1327 1.165 . S
C3388 N794 1.176 . S
C3399 N926 1.187 . S
C3404 C1360 1.192 . S
C3415 N959 1.198 . S
C3420 C1393 1.185 . S
C3431 N992 1.156 . S
C3436 C1426 1.152 . S
C3447 N1025 1.200 . S
C3452 C1459 1.187 . S
C3463 N860 1.163 . S
C3468 C1492 1.165 . S
C3479 N893 1.184 . S
C3484 C1525 1.189 . S
C3495 N827 1.279 . S
C3500 C1558 1.280 . S
