# Generated by pormake.
# Topology nfa, (4)-cn, num edge types: 1
# Building blocks:
#     Node 0, Type 0, BuildingBlock: NAWXER_clean_sbu_0, # of connection points: 4
#     Node 1, Type 0, BuildingBlock: NAWXER_clean_sbu_0, # of connection points: 4
#     Node 2, Type 0, BuildingBlock: NAWXER_clean_sbu_0, # of connection points: 4
#     Node 3, Type 0, BuildingBlock: NAWXER_clean_sbu_0, # of connection points: 4
#     Node 4, Type 0, BuildingBlock: NAWXER_clean_sbu_0, # of connection points: 4
#     Node 5, Type 0, BuildingBlock: NAWXER_clean_sbu_0, # of connection points: 4
#     Node 6, Type 0, BuildingBlock: NAWXER_clean_sbu_0, # of connection points: 4
#     Node 7, Type 0, BuildingBlock: NAWXER_clean_sbu_0, # of connection points: 4
#     Node 8, Type 0, BuildingBlock: NAWXER_clean_sbu_0, # of connection points: 4
#     Node 9, Type 0, BuildingBlock: NAWXER_clean_sbu_0, # of connection points: 4
#     Node 10, Type 0, BuildingBlock: NAWXER_clean_sbu_0, # of connection points: 4
#     Node 11, Type 0, BuildingBlock: NAWXER_clean_sbu_0, # of connection points: 4
#     Node 12, Type 0, BuildingBlock: NAWXER_clean_sbu_0, # of connection points: 4
#     Node 13, Type 0, BuildingBlock: NAWXER_clean_sbu_0, # of connection points: 4
#     Node 14, Type 0, BuildingBlock: NAWXER_clean_sbu_0, # of connection points: 4
#     Node 15, Type 0, BuildingBlock: NAWXER_clean_sbu_0, # of connection points: 4
#     Node 16, Type 0, BuildingBlock: NAWXER_clean_sbu_0, # of connection points: 4
#     Node 17, Type 0, BuildingBlock: NAWXER_clean_sbu_0, # of connection points: 4
#     Node 18, Type 0, BuildingBlock: NAWXER_clean_sbu_0, # of connection points: 4
#     Node 19, Type 0, BuildingBlock: NAWXER_clean_sbu_0, # of connection points: 4
#     Node 20, Type 0, BuildingBlock: NAWXER_clean_sbu_0, # of connection points: 4
#     Node 21, Type 0, BuildingBlock: NAWXER_clean_sbu_0, # of connection points: 4
#     Node 22, Type 0, BuildingBlock: NAWXER_clean_sbu_0, # of connection points: 4
#     Node 23, Type 0, BuildingBlock: NAWXER_clean_sbu_0, # of connection points: 4
#     Edge 24, Type (0, 0), BuildingBlock: XIVTED_clean_linker_0, # of connection points: 2
#     Edge 25, Type (0, 0), BuildingBlock: XIVTED_clean_linker_0, # of connection points: 2
#     Edge 26, Type (0, 0), BuildingBlock: XIVTED_clean_linker_0, # of connection points: 2
#     Edge 27, Type (0, 0), BuildingBlock: XIVTED_clean_linker_0, # of connection points: 2
#     Edge 28, Type (0, 0), BuildingBlock: XIVTED_clean_linker_0, # of connection points: 2
#     Edge 29, Type (0, 0), BuildingBlock: XIVTED_clean_linker_0, # of connection points: 2
#     Edge 30, Type (0, 0), BuildingBlock: XIVTED_clean_linker_0, # of connection points: 2
#     Edge 31, Type (0, 0), BuildingBlock: XIVTED_clean_linker_0, # of connection points: 2
#     Edge 32, Type (0, 0), BuildingBlock: XIVTED_clean_linker_0, # of connection points: 2
#     Edge 33, Type (0, 0), BuildingBlock: XIVTED_clean_linker_0, # of connection points: 2
#     Edge 34, Type (0, 0), BuildingBlock: XIVTED_clean_linker_0, # of connection points: 2
#     Edge 35, Type (0, 0), BuildingBlock: XIVTED_clean_linker_0, # of connection points: 2
#     Edge 36, Type (0, 0), BuildingBlock: XIVTED_clean_linker_0, # of connection points: 2
#     Edge 37, Type (0, 0), BuildingBlock: XIVTED_clean_linker_0, # of connection points: 2
#     Edge 38, Type (0, 0), BuildingBlock: XIVTED_clean_linker_0, # of connection points: 2
#     Edge 39, Type (0, 0), BuildingBlock: XIVTED_clean_linker_0, # of connection points: 2
#     Edge 40, Type (0, 0), BuildingBlock: XIVTED_clean_linker_0, # of connection points: 2
#     Edge 41, Type (0, 0), BuildingBlock: XIVTED_clean_linker_0, # of connection points: 2
#     Edge 42, Type (0, 0), BuildingBlock: XIVTED_clean_linker_0, # of connection points: 2
#     Edge 43, Type (0, 0), BuildingBlock: XIVTED_clean_linker_0, # of connection points: 2
#     Edge 44, Type (0, 0), BuildingBlock: XIVTED_clean_linker_0, # of connection points: 2
#     Edge 45, Type (0, 0), BuildingBlock: XIVTED_clean_linker_0, # of connection points: 2
#     Edge 46, Type (0, 0), BuildingBlock: XIVTED_clean_linker_0, # of connection points: 2
#     Edge 47, Type (0, 0), BuildingBlock: XIVTED_clean_linker_0, # of connection points: 2
#     Edge 48, Type (0, 0), BuildingBlock: XIVTED_clean_linker_0, # of connection points: 2
#     Edge 49, Type (0, 0), BuildingBlock: XIVTED_clean_linker_0, # of connection points: 2
#     Edge 50, Type (0, 0), BuildingBlock: XIVTED_clean_linker_0, # of connection points: 2
#     Edge 51, Type (0, 0), BuildingBlock: XIVTED_clean_linker_0, # of connection points: 2
#     Edge 52, Type (0, 0), BuildingBlock: XIVTED_clean_linker_0, # of connection points: 2
#     Edge 53, Type (0, 0), BuildingBlock: XIVTED_clean_linker_0, # of connection points: 2
#     Edge 54, Type (0, 0), BuildingBlock: XIVTED_clean_linker_0, # of connection points: 2
#     Edge 55, Type (0, 0), BuildingBlock: XIVTED_clean_linker_0, # of connection points: 2
#     Edge 56, Type (0, 0), BuildingBlock: XIVTED_clean_linker_0, # of connection points: 2
#     Edge 57, Type (0, 0), BuildingBlock: XIVTED_clean_linker_0, # of connection points: 2
#     Edge 58, Type (0, 0), BuildingBlock: XIVTED_clean_linker_0, # of connection points: 2
#     Edge 59, Type (0, 0), BuildingBlock: XIVTED_clean_linker_0, # of connection points: 2
#     Edge 60, Type (0, 0), BuildingBlock: XIVTED_clean_linker_0, # of connection points: 2
#     Edge 61, Type (0, 0), BuildingBlock: XIVTED_clean_linker_0, # of connection points: 2
#     Edge 62, Type (0, 0), BuildingBlock: XIVTED_clean_linker_0, # of connection points: 2
#     Edge 63, Type (0, 0), BuildingBlock: XIVTED_clean_linker_0, # of connection points: 2
#     Edge 64, Type (0, 0), BuildingBlock: XIVTED_clean_linker_0, # of connection points: 2
#     Edge 65, Type (0, 0), BuildingBlock: XIVTED_clean_linker_0, # of connection points: 2
#     Edge 66, Type (0, 0), BuildingBlock: XIVTED_clean_linker_0, # of connection points: 2
#     Edge 67, Type (0, 0), BuildingBlock: XIVTED_clean_linker_0, # of connection points: 2
#     Edge 68, Type (0, 0), BuildingBlock: XIVTED_clean_linker_0, # of connection points: 2
#     Edge 69, Type (0, 0), BuildingBlock: XIVTED_clean_linker_0, # of connection points: 2
#     Edge 70, Type (0, 0), BuildingBlock: XIVTED_clean_linker_0, # of connection points: 2
#     Edge 71, Type (0, 0), BuildingBlock: XIVTED_clean_linker_0, # of connection points: 2
# Relax obj value: 0.171
# Max RMSD: 0.184
# Mean RMSD: 0.184
data_MOF--net-nfa--node1-NAWXER_clean_sbu_0--edge1-XIVTED_clean_linker_0
_symmetry_space_group_name_H-M    P1
_symmetry_Int_Tables_number       1
_symmetry_cell_setting            triclinic
loop_
_symmetry_equiv_pos_as_xyz
'x, y, z'
_cell_length_a     40.127139
_cell_length_b     40.056947
_cell_length_c     40.029287
_cell_angle_alpha  90.082441
_cell_angle_beta   89.821757
_cell_angle_gamma 90.195877
loop_
_atom_site_label
_atom_site_type_symbol
_atom_site_fract_x
_atom_site_fract_y
_atom_site_fract_z
_atom_type_partial_charge
C0 C 0.14936 0.38055 0.47792 0.0
C1 C 0.13158 0.4189 0.36312 0.0
O2 O 0.12245 0.39717 0.47377 0.0
Zn3 Zn 0.09581 0.4217 0.43494 0.0
O4 O 0.16952 0.37711 0.45354 0.0
Zn5 Zn 0.14289 0.39972 0.41998 0.0
O6 O 0.1455 0.45051 0.43359 0.0
O7 O 0.09574 0.46967 0.44688 0.0
O8 O 0.15724 0.40355 0.3736 0.0
O9 O 0.10776 0.42578 0.3833 0.0
O10 O 0.05573 0.39355 0.43444 0.0
O11 O 0.101 0.36724 0.4173 0.0
C12 C 0.12678 0.47479 0.44231 0.0
C13 C 0.06975 0.36702 0.42384 0.0
C14 C 0.89396 0.81489 0.58047 0.0
C15 C 0.79932 0.87705 0.62614 0.0
O16 O 0.89952 0.84636 0.58266 0.0
Zn17 Zn 0.87411 0.89004 0.60006 0.0
O18 O 0.86565 0.80341 0.58914 0.0
Zn19 Zn 0.84619 0.8448 0.60473 0.0
O20 O 0.83717 0.87277 0.5605 0.0
O21 O 0.86747 0.91881 0.56118 0.0
O22 O 0.80051 0.84563 0.62143 0.0
O23 O 0.82526 0.89501 0.62084 0.0
O24 O 0.90311 0.90401 0.63583 0.0
O25 O 0.87673 0.85685 0.6472 0.0
C26 C 0.84503 0.90092 0.54752 0.0
C27 C 0.89766 0.87967 0.65549 0.0
C28 C 0.38382 0.70239 0.86576 0.0
C29 C 0.42771 0.59777 0.82017 0.0
O30 O 0.38387 0.67833 0.88678 0.0
Zn31 Zn 0.39826 0.62712 0.88935 0.0
O32 O 0.39187 0.69669 0.83552 0.0
Zn33 Zn 0.40401 0.64972 0.84153 0.0
O34 O 0.3583 0.62206 0.84805 0.0
O35 O 0.35733 0.60407 0.90015 0.0
O36 O 0.42453 0.62562 0.80532 0.0
O37 O 0.41938 0.59531 0.85109 0.0
O38 O 0.43295 0.63207 0.92329 0.0
O39 O 0.44434 0.6568 0.87536 0.0
C40 C 0.34383 0.60565 0.87151 0.0
C41 C 0.45211 0.65038 0.90568 0.0
C42 C 0.58065 0.09083 0.16127 0.0
C43 C 0.66511 0.10346 0.07217 0.0
O44 O 0.60655 0.10768 0.16939 0.0
Zn45 Zn 0.65155 0.12585 0.14796 0.0
O46 O 0.57896 0.07766 0.13232 0.0
Zn47 Zn 0.62196 0.0946 0.11545 0.0
O48 O 0.65864 0.06885 0.1436 0.0
O49 O 0.68669 0.10534 0.17402 0.0
O50 O 0.63887 0.08556 0.07029 0.0
O51 O 0.67139 0.11966 0.09901 0.0
O52 O 0.64246 0.1734 0.15052 0.0
O53 O 0.61063 0.14643 0.11433 0.0
C54 C 0.68219 0.07547 0.16409 0.0
C55 C 0.61911 0.17354 0.12905 0.0
C56 C 0.17259 0.58754 0.10902 0.0
C57 C 0.05993 0.63264 0.10814 0.0
O58 O 0.16782 0.60925 0.1321 0.0
Zn59 Zn 0.12721 0.63832 0.15104 0.0
O60 O 0.1491 0.58028 0.08903 0.0
Zn61 Zn 0.11525 0.60792 0.1089 0.0
O62 O 0.13032 0.65782 0.09787 0.0
O63 O 0.13986 0.68499 0.14492 0.0
O64 O 0.07134 0.61042 0.08849 0.0
O65 O 0.07751 0.64259 0.13291 0.0
O66 O 0.12256 0.62019 0.19543 0.0
O67 O 0.10869 0.58388 0.15628 0.0
C68 C 0.13706 0.68506 0.11325 0.0
C69 C 0.11326 0.59095 0.18719 0.0
C70 C 0.5969 0.88974 0.32635 0.0
C71 C 0.63828 0.92081 0.43734 0.0
O72 O 0.61564 0.86743 0.33942 0.0
Zn73 Zn 0.64283 0.86029 0.38494 0.0
O74 O 0.59156 0.91683 0.34206 0.0
Zn75 Zn 0.6157 0.90634 0.38255 0.0
O76 O 0.66628 0.90981 0.36749 0.0
O77 O 0.69053 0.86085 0.37319 0.0
O78 O 0.61896 0.93844 0.41943 0.0
O79 O 0.6467 0.89163 0.42752 0.0
O80 O 0.62131 0.82065 0.40275 0.0
O81 O 0.58813 0.86451 0.40226 0.0
C82 C 0.69252 0.89186 0.36645 0.0
C83 C 0.59279 0.83338 0.40826 0.0
C84 C 0.35559 0.43349 0.59611 0.0
C85 C 0.45028 0.35681 0.58336 0.0
O86 O 0.35609 0.40943 0.61719 0.0
Zn87 Zn 0.38629 0.36775 0.63006 0.0
O88 O 0.3778 0.43485 0.57335 0.0
Zn89 Zn 0.40386 0.39619 0.58773 0.0
O90 O 0.3741 0.3538 0.57553 0.0
O91 O 0.35973 0.32755 0.62184 0.0
O92 O 0.44453 0.38162 0.56435 0.0
O93 O 0.43119 0.35102 0.60831 0.0
O94 O 0.4001 0.38027 0.67477 0.0
O95 O 0.42087 0.41322 0.63566 0.0
C96 C 0.36026 0.32888 0.59006 0.0
C97 C 0.4174 0.40572 0.66664 0.0
C98 C 0.87357 0.09575 0.93509 0.0
C99 C 0.96977 0.0682 0.86365 0.0
O100 O 0.87127 0.10709 0.90528 0.0
Zn101 Zn 0.89856 0.10472 0.8594 0.0
O102 O 0.89928 0.07925 0.94346 0.0
Zn103 Zn 0.92183 0.07969 0.90017 0.0
O104 O 0.93655 0.13083 0.89288 0.0
O105 O 0.90962 0.15078 0.84924 0.0
O106 O 0.96579 0.05916 0.8939 0.0
O107 O 0.94605 0.08337 0.8487 0.0
O108 O 0.86734 0.0807 0.83158 0.0
O109 O 0.88789 0.04945 0.87189 0.0
C110 C 0.93135 0.15454 0.87206 0.0
C111 C 0.86811 0.05303 0.84708 0.0
C112 C 0.3933 0.13083 0.32183 0.0
C113 C 0.29494 0.10605 0.39138 0.0
O114 O 0.39931 0.11427 0.34845 0.0
Zn115 Zn 0.3737 0.09247 0.38947 0.0
O116 O 0.36381 0.14109 0.31627 0.0
Zn117 Zn 0.34265 0.12095 0.3558 0.0
O118 O 0.36114 0.14815 0.39751 0.0
O119 O 0.3916 0.1152 0.42912 0.0
O120 O 0.29504 0.12427 0.36531 0.0
O121 O 0.32205 0.09283 0.40157 0.0
O122 O 0.38273 0.04569 0.3788 0.0
O123 O 0.34897 0.07007 0.34281 0.0
C124 C 0.3783 0.14358 0.42404 0.0
C125 C 0.36513 0.04437 0.35238 0.0
C126 C 0.13273 0.19364 0.63674 0.0
C127 C 0.10412 0.07935 0.66931 0.0
O128 O 0.15756 0.17742 0.64847 0.0
Zn129 Zn 0.16754 0.12831 0.66697 0.0
O130 O 0.10427 0.17964 0.63527 0.0
Zn131 Zn 0.11734 0.13599 0.65101 0.0
O132 O 0.12594 0.1437 0.70273 0.0
O133 O 0.17849 0.13303 0.7145 0.0
O134 O 0.0844 0.1005 0.65635 0.0
O135 O 0.13509 0.08643 0.6723 0.0
O136 O 0.20051 0.11354 0.63509 0.0
O137 O 0.15072 0.11918 0.61234 0.0
C138 C 0.14916 0.14029 0.72424 0.0
C139 C 0.18181 0.1123 0.6095 0.0
C140 C 0.08533 0.93158 0.86617 0.0
C141 C 0.05778 0.84935 0.95295 0.0
O142 O 0.0976 0.90252 0.86121 0.0
Zn143 Zn 0.09723 0.85432 0.88328 0.0
O144 O 0.06858 0.93722 0.89264 0.0
Zn145 Zn 0.07049 0.89179 0.91063 0.0
O146 O 0.12164 0.88525 0.92492 0.0
O147 O 0.14353 0.84537 0.89379 0.0
O148 O 0.04909 0.87989 0.95314 0.0
O149 O 0.07428 0.83775 0.92811 0.0
O150 O 0.0752 0.82947 0.84835 0.0
O151 O 0.04217 0.86619 0.87283 0.0
C152 C 0.14633 0.86634 0.91753 0.0
C153 C 0.04708 0.84392 0.85031 0.0
C154 C 0.38533 0.92879 0.13456 0.0
C155 C 0.42165 0.87078 0.03237 0.0
O156 O 0.38127 0.89706 0.13519 0.0
Zn157 Zn 0.39141 0.8544 0.10482 0.0
O158 O 0.39765 0.94266 0.10866 0.0
Zn159 Zn 0.40462 0.90195 0.0828 0.0
O160 O 0.35523 0.88534 0.07314 0.0
O161 O 0.34706 0.83582 0.09604 0.0
O162 O 0.42243 0.90223 0.03696 0.0
O163 O 0.41173 0.85162 0.05598 0.0
O164 O 0.42428 0.83192 0.13293 0.0
O165 O 0.4422 0.88007 0.11306 0.0
C166 C 0.33641 0.86002 0.07847 0.0
C167 C 0.44678 0.8544 0.13152 0.0
C168 C 0.43 0.33209 0.11459 0.0
C169 C 0.36195 0.43065 0.13574 0.0
O170 O 0.43596 0.35625 0.09448 0.0
Zn171 Zn 0.42057 0.40659 0.08664 0.0
O172 O 0.4071 0.33487 0.13647 0.0
Zn173 Zn 0.39483 0.38033 0.12588 0.0
O174 O 0.37184 0.37687 0.07829 0.0
O175 O 0.40117 0.40649 0.04205 0.0
O176 O 0.3603 0.4028 0.1509 0.0
O177 O 0.38368 0.43502 0.11262 0.0
O178 O 0.46299 0.42894 0.09644 0.0
O179 O 0.43947 0.4049 0.14025 0.0
C180 C 0.37591 0.38836 0.04876 0.0
C181 C 0.46363 0.42141 0.12733 0.0
C182 C 0.93202 0.90597 0.18153 0.0
C183 C 0.88457 0.80118 0.14093 0.0
O184 O 0.92544 0.90702 0.15018 0.0
Zn185 Zn 0.90455 0.87385 0.11304 0.0
O186 O 0.92686 0.87912 0.19764 0.0
Zn187 Zn 0.90677 0.85395 0.16204 0.0
O188 O 0.94782 0.84223 0.13046 0.0
O189 O 0.94015 0.86471 0.08082 0.0
O190 O 0.89212 0.80867 0.17084 0.0
O191 O 0.88645 0.82348 0.11808 0.0
O192 O 0.86649 0.89949 0.0994 0.0
O193 O 0.86268 0.88254 0.15177 0.0
C194 C 0.95713 0.84619 0.10012 0.0
C195 C 0.85097 0.89922 0.12714 0.0
C196 C 0.09439 0.60988 0.6814 0.0
C197 C 0.13792 0.58072 0.57048 0.0
O198 O 0.11282 0.63277 0.66858 0.0
Zn199 Zn 0.14028 0.641 0.62326 0.0
O200 O 0.08958 0.58287 0.66534 0.0
Zn201 Zn 0.11413 0.59416 0.62512 0.0
O202 O 0.16455 0.59237 0.64074 0.0
O203 O 0.18759 0.64218 0.63537 0.0
O204 O 0.11885 0.56225 0.58806 0.0
O205 O 0.14556 0.60999 0.5807 0.0
O206 O 0.11851 0.67983 0.60499 0.0
O207 O 0.08604 0.6352 0.60499 0.0
C208 C 0.19027 0.61124 0.64209 0.0
C209 C 0.09039 0.66639 0.59891 0.0
C210 C 0.63607 0.80566 0.87388 0.0
C211 C 0.59243 0.90581 0.82074 0.0
O212 O 0.63418 0.83078 0.89367 0.0
Zn213 Zn 0.61769 0.88159 0.89276 0.0
O214 O 0.63026 0.8096 0.84291 0.0
Zn215 Zn 0.61705 0.85619 0.84611 0.0
O216 O 0.66209 0.8842 0.85549 0.0
O217 O 0.65603 0.90758 0.90513 0.0
O218 O 0.59877 0.87772 0.80743 0.0
O219 O 0.59804 0.91022 0.85197 0.0
O220 O 0.58091 0.87662 0.92451 0.0
O221 O 0.57425 0.84902 0.87722 0.0
C222 C 0.67326 0.90315 0.87882 0.0
C223 C 0.56393 0.85663 0.90655 0.0
C224 C 0.91801 0.10098 0.33084 0.0
C225 C 0.86697 0.17558 0.41418 0.0
O226 O 0.92337 0.09283 0.36132 0.0
Zn227 Zn 0.90991 0.10825 0.4107 0.0
O228 O 0.9001 0.12639 0.32446 0.0
Zn229 Zn 0.88965 0.13796 0.37067 0.0
O230 O 0.93674 0.1537 0.38876 0.0
O231 O 0.95262 0.12139 0.4305 0.0
O232 O 0.86409 0.17802 0.38261 0.0
O233 O 0.88183 0.15027 0.42661 0.0
O234 O 0.88465 0.0691 0.4259 0.0
O235 O 0.86006 0.09564 0.38459 0.0
C236 C 0.9577 0.14647 0.41158 0.0
C237 C 0.86091 0.07095 0.40496 0.0
C238 C 0.63241 0.05171 0.57956 0.0
C239 C 0.54045 0.13251 0.57636 0.0
O240 O 0.63606 0.07736 0.59836 0.0
Zn241 Zn 0.61046 0.12142 0.61255 0.0
O242 O 0.6069 0.04959 0.56079 0.0
Zn243 Zn 0.58521 0.0909 0.57577 0.0
O244 O 0.6152 0.13003 0.55582 0.0
O245 O 0.63785 0.15849 0.59728 0.0
O246 O 0.54196 0.10623 0.55844 0.0
O247 O 0.56366 0.13913 0.59711 0.0
O248 O 0.60334 0.11311 0.65968 0.0
O249 O 0.57536 0.07856 0.62699 0.0
C250 C 0.63275 0.15469 0.56613 0.0
C251 C 0.58393 0.08812 0.65635 0.0
C252 C 0.16044 0.38329 0.92698 0.0
C253 C 0.06657 0.40969 0.85338 0.0
O254 O 0.16488 0.37503 0.89637 0.0
Zn255 Zn 0.14006 0.37886 0.84956 0.0
O256 O 0.13331 0.3971 0.936 0.0
Zn257 Zn 0.11242 0.39802 0.89218 0.0
O258 O 0.10434 0.34692 0.88121 0.0
O259 O 0.13269 0.33232 0.83611 0.0
O260 O 0.06706 0.41464 0.88481 0.0
O261 O 0.09226 0.39782 0.83864 0.0
O262 O 0.17019 0.40943 0.82587 0.0
O263 O 0.14425 0.43312 0.86834 0.0
C264 C 0.1122 0.32495 0.85937 0.0
C265 C 0.16536 0.43491 0.84435 0.0
C266 C 0.33583 0.60684 0.44386 0.0
C267 C 0.37576 0.63876 0.33275 0.0
O268 O 0.32899 0.63704 0.43594 0.0
Zn269 Zn 0.33498 0.67033 0.39453 0.0
O270 O 0.35403 0.58944 0.42449 0.0
Zn271 Zn 0.35756 0.62273 0.38902 0.0
O272 O 0.39016 0.6614 0.40801 0.0
O273 O 0.36011 0.70715 0.41296 0.0
O274 O 0.37863 0.61079 0.3474 0.0
O275 O 0.35999 0.66256 0.3473 0.0
O276 O 0.28759 0.67606 0.38423 0.0
O277 O 0.30586 0.62481 0.3764 0.0
C278 C 0.38804 0.6925 0.41558 0.0
C279 C 0.28175 0.64567 0.37689 0.0
C280 C 0.91395 0.63397 0.97408 0.0
C281 C 0.87149 0.5878 0.86897 0.0
O282 O 0.90795 0.65622 0.952 0.0
Zn283 Zn 0.88894 0.65918 0.90237 0.0
O284 O 0.91022 0.60326 0.96689 0.0
Zn285 Zn 0.89384 0.60938 0.92156 0.0
O286 O 0.93512 0.62651 0.89233 0.0
O287 O 0.92554 0.67829 0.8764 0.0
O288 O 0.87931 0.57161 0.89513 0.0
O289 O 0.87356 0.61977 0.86894 0.0
O290 O 0.84758 0.68404 0.91195 0.0
O291 O 0.84802 0.63294 0.93241 0.0
C292 C 0.94404 0.65251 0.87589 0.0
C293 C 0.83331 0.66092 0.92855 0.0
C294 C 0.56321 0.6539 0.04539 0.0
C295 C 0.59197 0.58813 0.14428 0.0
O296 O 0.57352 0.67103 0.07036 0.0
Zn297 Zn 0.59153 0.66455 0.11964 0.0
O298 O 0.55935 0.62249 0.04841 0.0
Zn299 Zn 0.57588 0.61962 0.09439 0.0
O300 O 0.53868 0.64239 0.12507 0.0
O301 O 0.55944 0.68819 0.14758 0.0
O302 O 0.57998 0.57701 0.11702 0.0
O303 O 0.59788 0.61945 0.14748 0.0
O304 O 0.63693 0.68146 0.11276 0.0
O305 O 0.62633 0.63448 0.08582 0.0
C306 C 0.53538 0.66763 0.14451 0.0
C307 C 0.64634 0.65844 0.0929 0.0
C308 C 0.60642 0.3352 0.39822 0.0
C309 C 0.6084 0.44577 0.34633 0.0
O310 O 0.63179 0.34017 0.37931 0.0
Zn311 Zn 0.65289 0.37947 0.34996 0.0
O312 O 0.58415 0.35762 0.40075 0.0
Zn313 Zn 0.6058 0.39102 0.37309 0.0
O314 O 0.60295 0.37212 0.32378 0.0
O315 O 0.65347 0.36312 0.30379 0.0
O316 O 0.5855 0.43425 0.36519 0.0
O317 O 0.63448 0.42837 0.34048 0.0
O318 O 0.69359 0.38684 0.3751 0.0
O319 O 0.6482 0.40138 0.4029 0.0
C320 C 0.62204 0.36381 0.29952 0.0
C321 C 0.67986 0.39787 0.40161 0.0
C322 C 0.887 0.36438 0.68962 0.0
C323 C 0.78814 0.3819 0.62038 0.0
O324 O 0.89142 0.38357 0.66442 0.0
Zn325 Zn 0.86452 0.40474 0.62423 0.0
O326 O 0.85895 0.34996 0.69384 0.0
Zn327 Zn 0.83635 0.37007 0.65558 0.0
O328 O 0.85853 0.34821 0.61277 0.0
O329 O 0.88503 0.38646 0.58324 0.0
O330 O 0.78954 0.36175 0.64494 0.0
O331 O 0.81386 0.39871 0.61174 0.0
O332 O 0.86645 0.45199 0.63774 0.0
O333 O 0.83644 0.42047 0.67166 0.0
C334 C 0.87522 0.35635 0.58672 0.0
C335 C 0.84873 0.44901 0.6641 0.0
H336 H 0.10778 0.37973 0.53201 0.0
H337 H 0.19201 0.22089 0.61669 0.0
H338 H 0.1985 0.33547 0.49449 0.0
H339 H 0.08649 0.24125 0.62031 0.0
H340 H 0.20034 0.27168 0.58375 0.0
H341 H 0.10642 0.33848 0.57667 0.0
C342 C 0.12787 0.3618 0.5335 0.0
C343 C 0.15307 0.36082 0.50902 0.0
C344 C 0.17547 0.26522 0.59218 0.0
C345 C 0.15145 0.31341 0.56031 0.0
C346 C 0.17065 0.23636 0.61115 0.0
C347 C 0.13841 0.22669 0.62114 0.0
C348 C 0.14796 0.28487 0.5836 0.0
C349 C 0.11171 0.24763 0.61298 0.0
C350 C 0.12689 0.33813 0.55896 0.0
C351 C 0.17847 0.33705 0.51259 0.0
N352 N 0.11707 0.2757 0.59461 0.0
N353 N 0.17683 0.31403 0.53757 0.0
H354 H 0.9618 0.89977 0.66579 0.0
H355 H 0.97927 0.85009 0.85402 0.0
H356 H 0.88008 0.84828 0.71369 0.0
H357 H 0.05968 0.83339 0.78429 0.0
H358 H 0.94103 0.85751 0.8067 0.0
H359 H 0.99734 0.8861 0.71358 0.0
C360 C 0.9512 0.8861 0.68662 0.0
C361 C 0.91794 0.87523 0.68591 0.0
C362 C 0.96694 0.85164 0.80191 0.0
C363 C 0.95836 0.85961 0.74041 0.0
C364 C 0.98867 0.84723 0.82878 0.0
C365 C 0.02258 0.84081 0.82301 0.0
C366 C 0.97955 0.8508 0.7692 0.0
C367 C 0.03364 0.83784 0.78984 0.0
C368 C 0.97156 0.87797 0.7136 0.0
C369 C 0.9056 0.85712 0.71335 0.0
N370 N 0.01232 0.84354 0.76415 0.0
N371 N 0.92575 0.85009 0.73971 0.0
H372 H 0.45053 0.81154 0.01831 0.0
H373 H 0.41439 0.75945 0.84196 0.0
H374 H 0.39955 0.89364 0.97158 0.0
H375 H 0.35275 0.72276 0.9225 0.0
H376 H 0.42777 0.8091 0.87604 0.0
H377 H 0.43902 0.77722 0.96911 0.0
C378 C 0.43821 0.82279 0.99709 0.0
C379 C 0.42596 0.85546 0.99902 0.0
C380 C 0.41047 0.79058 0.88556 0.0
C381 C 0.41264 0.81611 0.94299 0.0
C382 C 0.40253 0.76245 0.86611 0.0
C383 C 0.38252 0.73677 0.8795 0.0
C384 C 0.3985 0.79258 0.91844 0.0
C385 C 0.36843 0.74174 0.91125 0.0
C386 C 0.43157 0.80314 0.96919 0.0
C387 C 0.40969 0.86864 0.97088 0.0
N388 N 0.37736 0.76858 0.92993 0.0
N389 N 0.40273 0.8486 0.94412 0.0
H390 H 0.38714 0.12968 0.25322 0.0
H391 H 0.5828 0.09637 0.22865 0.0
H392 H 0.46003 0.13191 0.3321 0.0
H393 H 0.51327 0.08891 0.14705 0.0
H394 H 0.53701 0.10923 0.26633 0.0
H395 H 0.43201 0.11751 0.2129 0.0
C396 C 0.41265 0.12859 0.2619 0.0
C397 C 0.41989 0.13202 0.29606 0.0
C398 C 0.53149 0.10453 0.24028 0.0
C399 C 0.47105 0.11716 0.2504 0.0
C400 C 0.5577 0.09686 0.21875 0.0
C401 C 0.55189 0.0914 0.18465 0.0
C402 C 0.49893 0.10714 0.22778 0.0
C403 C 0.51881 0.09255 0.17326 0.0
C404 C 0.43816 0.12112 0.23898 0.0
C405 C 0.45328 0.12954 0.30603 0.0
N406 N 0.49354 0.1006 0.19474 0.0
N407 N 0.47744 0.12212 0.28343 0.0
H408 H 0.06496 0.86805 0.01881 0.0
H409 H 0.14929 0.69511 0.04761 0.0
H410 H 0.04994 0.78238 0.95523 0.0
H411 H 0.11025 0.74449 0.13513 0.0
H412 H 0.12265 0.73689 0.01268 0.0
H413 H 0.08542 0.83061 0.06307 0.0
C414 C 0.06458 0.84133 0.01466 0.0
C415 C 0.05619 0.82825 0.98315 0.0
C416 C 0.12029 0.73889 0.03958 0.0
C417 C 0.08086 0.78604 0.03263 0.0
C418 C 0.13601 0.71542 0.05955 0.0
C419 C 0.13199 0.71627 0.09432 0.0
C420 C 0.10054 0.76371 0.05433 0.0
C421 C 0.11426 0.74314 0.10841 0.0
C422 C 0.07672 0.82011 0.03971 0.0
C423 C 0.05659 0.79352 0.97897 0.0
N424 N 0.09882 0.7658 0.08829 0.0
N425 N 0.06956 0.77374 0.00304 0.0
H426 H 0.58249 0.82864 0.2994 0.0
H427 H 0.49482 0.90233 0.13726 0.0
H428 H 0.57103 0.93412 0.28123 0.0
H429 H 0.46362 0.80839 0.18023 0.0
H430 H 0.53471 0.90933 0.18241 0.0
H431 H 0.5499 0.8168 0.24894 0.0
C432 C 0.57352 0.84932 0.28456 0.0
C433 C 0.57949 0.88248 0.29454 0.0
C434 C 0.51941 0.88701 0.18174 0.0
C435 C 0.54257 0.86897 0.23674 0.0
C436 C 0.4967 0.88277 0.15582 0.0
C437 C 0.47541 0.85481 0.15501 0.0
C438 C 0.52138 0.86296 0.207 0.0
C439 C 0.47936 0.83039 0.17986 0.0
C440 C 0.55479 0.84248 0.25593 0.0
C441 C 0.56695 0.90823 0.27454 0.0
N442 N 0.50178 0.83511 0.205 0.0
N443 N 0.54921 0.90093 0.24653 0.0
H444 H 0.33658 0.32793 0.52664 0.0
H445 H 0.39527 0.13981 0.49101 0.0
H446 H 0.37091 0.26292 0.60493 0.0
H447 H 0.35934 0.20819 0.41619 0.0
H448 H 0.38604 0.18308 0.53379 0.0
H449 H 0.34105 0.28195 0.48699 0.0
C450 C 0.34412 0.30361 0.53567 0.0
C451 C 0.35305 0.2992 0.56919 0.0
C452 C 0.38032 0.18854 0.50796 0.0
C453 C 0.35972 0.24647 0.5235 0.0
C454 C 0.38595 0.16399 0.48348 0.0
C455 C 0.37813 0.17031 0.44987 0.0
C456 C 0.36675 0.21953 0.4987 0.0
C457 C 0.36571 0.20201 0.4417 0.0
C458 C 0.34714 0.2774 0.51292 0.0
C459 C 0.36321 0.26725 0.57941 0.0
N460 N 0.36034 0.22521 0.46584 0.0
N461 N 0.36674 0.24218 0.55655 0.0
H462 H 0.10701 0.17861 0.76055 0.0
H463 H 0.03223 0.05976 0.89209 0.0
H464 H 0.16217 0.0866 0.76388 0.0
H465 H 0.9835 0.08078 0.79844 0.0
H466 H 0.08561 0.07817 0.86697 0.0
H467 H 0.0677 0.15572 0.80143 0.0
C468 C 0.11198 0.15435 0.77136 0.0
C469 C 0.13795 0.13455 0.75891 0.0
C470 C 0.06315 0.07805 0.85203 0.0
C471 C 0.09261 0.10797 0.80482 0.0
C472 C 0.03282 0.06726 0.86612 0.0
C473 C 0.00316 0.06904 0.84748 0.0
C474 C 0.06336 0.09106 0.81952 0.0
C475 C 0.00547 0.07933 0.814 0.0
C476 C 0.08929 0.14114 0.79428 0.0
C477 C 0.14272 0.10283 0.77321 0.0
N478 N 0.03479 0.09062 0.80141 0.0
N479 N 0.1196 0.09001 0.79478 0.0
H480 H 0.23449 0.60603 0.13091 0.0
H481 H 0.29652 0.41979 0.15062 0.0
H482 H 0.17937 0.52224 0.0914 0.0
H483 H 0.36684 0.49812 0.1273 0.0
H484 H 0.25087 0.45965 0.14336 0.0
H485 H 0.28197 0.56884 0.14129 0.0
C486 C 0.2326 0.57995 0.12395 0.0
C487 C 0.20315 0.5672 0.10996 0.0
C488 C 0.27637 0.46813 0.14036 0.0
C489 C 0.25645 0.52463 0.12313 0.0
C490 C 0.30239 0.44559 0.14498 0.0
C491 C 0.33544 0.45576 0.13959 0.0
C492 C 0.28356 0.50113 0.131 0.0
C493 C 0.34165 0.48937 0.13167 0.0
C494 C 0.25953 0.55882 0.13006 0.0
C495 C 0.20179 0.53316 0.10177 0.0
N496 N 0.3159 0.51095 0.1276 0.0
N497 N 0.2279 0.51292 0.10894 0.0
H498 H 0.8723 0.98527 0.85511 0.0
H499 H 0.68632 0.96604 0.90075 0.0
H500 H 0.80355 0.06378 0.82993 0.0
H501 H 0.72915 0.88576 0.84311 0.0
H502 H 0.73452 1.00109 0.88661 0.0
H503 H 0.82501 0.94617 0.85976 0.0
C504 C 0.84738 0.99403 0.84972 0.0
C505 C 0.84179 0.02771 0.84187 0.0
C506 C 0.73333 0.97573 0.87722 0.0
C507 C 0.788 0.98379 0.84868 0.0
C508 C 0.70613 0.95563 0.88556 0.0
C509 C 0.7039 0.92294 0.87319 0.0
C510 C 0.75891 0.96277 0.85718 0.0
C511 C 0.73004 0.91085 0.85315 0.0
C512 C 0.82054 0.97181 0.85251 0.0
C513 C 0.80899 0.03795 0.83561 0.0
N514 N 0.7568 0.93068 0.84604 0.0
N515 N 0.78322 0.01626 0.83996 0.0
H516 H 0.80833 0.06882 0.36217 0.0
H517 H 0.74626 0.88455 0.40785 0.0
H518 H 0.85804 0.00936 0.43667 0.0
H519 H 0.70956 0.94304 0.32566 0.0
H520 H 0.78915 0.92736 0.41814 0.0
H521 H 0.77215 0.02192 0.34959 0.0
C522 C 0.81152 0.04595 0.37619 0.0
C523 C 0.83643 0.04323 0.40059 0.0
C524 C 0.77229 0.93036 0.39729 0.0
C525 C 0.79478 0.98861 0.38583 0.0
C526 C 0.7482 0.90562 0.39102 0.0
C527 C 0.72467 0.91 0.36546 0.0
C528 C 0.77267 0.95962 0.37789 0.0
C529 C 0.72746 0.93847 0.34532 0.0
C530 C 0.79089 0.01894 0.36875 0.0
C531 C 0.83914 0.01271 0.41776 0.0
N532 N 0.7507 0.96222 0.35214 0.0
N533 N 0.81857 0.98656 0.41005 0.0
H534 H 0.74955 0.08317 0.16512 0.0
H535 H 0.79812 0.89173 0.17004 0.0
H536 H 0.67211 0.00864 0.17276 0.0
H537 H 0.842 0.9605 0.09956 0.0
H538 H 0.75687 0.93464 0.18522 0.0
H539 H 0.79064 0.0385 0.1576 0.0
C540 C 0.74139 0.05739 0.16649 0.0
C541 C 0.70747 0.04948 0.16969 0.0
C542 C 0.77548 0.94008 0.16632 0.0
C543 C 0.75407 0.99863 0.16082 0.0
C544 C 0.79878 0.91567 0.15751 0.0
C545 C 0.82313 0.92248 0.13317 0.0
C546 C 0.77747 0.97176 0.15156 0.0
C547 C 0.82327 0.95404 0.118 0.0
C548 C 0.76472 0.03203 0.16168 0.0
C549 C 0.6981 0.01567 0.17047 0.0
N550 N 0.80107 0.97769 0.12777 0.0
N551 N 0.7213 0.99137 0.16599 0.0
H552 H 0.24264 0.61961 0.59914 0.0
H553 H 0.30518 0.43563 0.64162 0.0
H554 H 0.20932 0.56132 0.68327 0.0
H555 H 0.35186 0.49503 0.56455 0.0
H556 H 0.27039 0.4827 0.65645 0.0
H557 H 0.28515 0.57717 0.58714 0.0
C558 C 0.24535 0.59871 0.61605 0.0
C559 C 0.22278 0.59418 0.64259 0.0
C560 C 0.28816 0.48564 0.63625 0.0
C561 C 0.27027 0.54499 0.62825 0.0
C562 C 0.30797 0.45853 0.62751 0.0
C563 C 0.33163 0.4612 0.60172 0.0
C564 C 0.29162 0.51598 0.61907 0.0
C565 C 0.33388 0.49173 0.5845 0.0
C566 C 0.26919 0.57417 0.6088 0.0
C567 C 0.22649 0.56597 0.66286 0.0
N568 N 0.31413 0.51798 0.59349 0.0
N569 N 0.24943 0.54236 0.65507 0.0
H570 H 0.19046 0.49141 0.45617 0.0
H571 H 0.22693 0.66815 0.41184 0.0
H572 H 0.09804 0.53436 0.42248 0.0
H573 H 0.2598 0.58935 0.34616 0.0
H574 H 0.18033 0.63224 0.43016 0.0
H575 H 0.22019 0.54023 0.43508 0.0
C576 C 0.17623 0.51168 0.44547 0.0
C577 C 0.14171 0.50865 0.44085 0.0
C578 C 0.19711 0.6235 0.41083 0.0
C579 C 0.17583 0.56476 0.41714 0.0
C580 C 0.22351 0.64402 0.40008 0.0
C581 C 0.24754 0.63157 0.37765 0.0
C582 C 0.19527 0.5905 0.39923 0.0
C583 C 0.24211 0.59984 0.36372 0.0
C584 C 0.19328 0.53936 0.43332 0.0
C585 C 0.12463 0.53583 0.42672 0.0
N586 N 0.21721 0.58006 0.37548 0.0
N587 N 0.14198 0.56279 0.41481 0.0
H588 H 0.32428 0.58059 0.8111 0.0
H589 H 0.1623 0.49047 0.88352 0.0
H590 H 0.29553 0.58405 0.91499 0.0
H591 H 0.21794 0.44824 0.80123 0.0
H592 H 0.20296 0.53544 0.88737 0.0
H593 H 0.2778 0.54208 0.80021 0.0
C594 C 0.30784 0.57373 0.8315 0.0
C595 C 0.31372 0.58556 0.86405 0.0
C596 C 0.20607 0.51654 0.86824 0.0
C597 C 0.26059 0.54185 0.85161 0.0
C598 C 0.18277 0.49084 0.86582 0.0
C599 C 0.18683 0.46513 0.8422 0.0
C600 C 0.23358 0.51702 0.84666 0.0
C601 C 0.21387 0.46737 0.81991 0.0
C602 C 0.28155 0.5516 0.82526 0.0
C603 C 0.29193 0.5755 0.88958 0.0
N604 N 0.23639 0.49281 0.8228 0.0
N605 N 0.26627 0.55432 0.8828 0.0
H606 H 0.60317 0.74948 0.85181 0.0
H607 H 0.55579 0.71978 0.03353 0.0
H608 H 0.66299 0.78707 0.93302 0.0
H609 H 0.5748 0.62659 0.9828 0.0
H610 H 0.57899 0.74962 0.98603 0.0
H611 H 0.58144 0.70559 0.88911 0.0
C612 C 0.61296 0.7476 0.87692 0.0
C613 C 0.63468 0.77224 0.88949 0.0
C614 C 0.57694 0.72269 0.9848 0.0
C615 C 0.60892 0.72338 0.93208 0.0
C616 C 0.56356 0.70558 0.01182 0.0
C617 C 0.56391 0.67059 0.01244 0.0
C618 C 0.5897 0.70493 0.95754 0.0
C619 C 0.57416 0.6536 0.98335 0.0
C620 C 0.60015 0.72285 0.89822 0.0
C621 C 0.64605 0.76885 0.92239 0.0
N622 N 0.58714 0.67099 0.95697 0.0
N623 N 0.63227 0.7456 0.94281 0.0
H624 H 0.64784 0.38863 0.24074 0.0
H625 H 0.46663 0.43672 0.19288 0.0
H626 H 0.5604 0.34215 0.28322 0.0
H627 H 0.52875 0.41041 0.10887 0.0
H628 H 0.51129 0.42016 0.23059 0.0
H629 H 0.61354 0.40859 0.19373 0.0
C630 C 0.62185 0.38134 0.23944 0.0
C631 C 0.60684 0.36378 0.26596 0.0
C632 C 0.51543 0.4188 0.20385 0.0
C633 C 0.56775 0.38776 0.21368 0.0
C634 C 0.49021 0.4287 0.18235 0.0
C635 C 0.49398 0.42477 0.14777 0.0
C636 C 0.54468 0.40487 0.19076 0.0
C637 C 0.52501 0.41401 0.13543 0.0
C638 C 0.6023 0.3932 0.21295 0.0
C639 C 0.57292 0.35572 0.26341 0.0
N640 N 0.5492 0.40377 0.15702 0.0
N641 N 0.5544 0.36845 0.23826 0.0
H642 H 0.88523 0.36585 0.51878 0.0
H643 H 0.84946 0.17232 0.47956 0.0
H644 H 0.87021 0.28909 0.59286 0.0
H645 H 0.87119 0.24308 0.40137 0.0
H646 H 0.85259 0.21715 0.5205 0.0
H647 H 0.87921 0.32318 0.47469 0.0
C648 C 0.88136 0.34002 0.5258 0.0
C649 C 0.87826 0.33108 0.55963 0.0
C650 C 0.85631 0.22317 0.49439 0.0
C651 C 0.87044 0.28246 0.50946 0.0
C652 C 0.8541 0.19754 0.47091 0.0
C653 C 0.85987 0.20394 0.43696 0.0
C654 C 0.86477 0.25566 0.48411 0.0
C655 C 0.86611 0.23712 0.42727 0.0
C656 C 0.8775 0.31577 0.50064 0.0
C657 C 0.87269 0.29729 0.5672 0.0
N658 N 0.8688 0.26174 0.45078 0.0
N659 N 0.86881 0.27444 0.54246 0.0
H660 H 0.96943 0.6999 0.83248 0.0
H661 H 0.06439 0.56455 0.7233 0.0
H662 H 0.98322 0.59806 0.86473 0.0
H663 H 0.08397 0.66996 0.71223 0.0
H664 H 0.03235 0.57655 0.77406 0.0
H665 H 0.01006 0.69029 0.78749 0.0
C666 C 0.98136 0.67576 0.83053 0.0
C667 C 0.97266 0.64974 0.85239 0.0
C668 C 0.04394 0.59703 0.76069 0.0
C669 C 0.01849 0.63838 0.80057 0.0
C670 C 0.06215 0.59017 0.73166 0.0
C671 C 0.07691 0.61625 0.71348 0.0
C672 C 0.03989 0.63026 0.77131 0.0
C673 C 0.07315 0.64904 0.72554 0.0
C674 C 0.00446 0.67025 0.80478 0.0
C675 C 0.98891 0.6189 0.84848 0.0
N676 N 0.0547 0.65515 0.75346 0.0
N677 N 0.0106 0.61397 0.82285 0.0
H678 H 0.5772 0.32955 0.45991 0.0
H679 H 0.64902 0.14961 0.50025 0.0
H680 H 0.63901 0.27612 0.38965 0.0
H681 H 0.62666 0.2215 0.5773 0.0
H682 H 0.64203 0.1933 0.45811 0.0
H683 H 0.58849 0.28643 0.50181 0.0
C684 C 0.5925 0.30837 0.45305 0.0
C685 C 0.60708 0.30633 0.4212 0.0
C686 C 0.63931 0.19967 0.48428 0.0
C687 C 0.62059 0.25741 0.46911 0.0
C688 C 0.64368 0.17487 0.50832 0.0
C689 C 0.63886 0.18209 0.5423 0.0
C690 C 0.62913 0.23167 0.49424 0.0
C691 C 0.63122 0.21504 0.55141 0.0
C692 C 0.59938 0.28411 0.47712 0.0
C693 C 0.62721 0.27863 0.41389 0.0
N694 N 0.62599 0.23852 0.52747 0.0
N695 N 0.63335 0.25524 0.43763 0.0
H696 H 0.06089 0.43243 0.79032 0.0
H697 H 0.88014 0.35399 0.75755 0.0
H698 H 0.00347 0.38872 0.8703 0.0
H699 H 0.95265 0.37802 0.68142 0.0
H700 H 0.92142 0.36913 0.80051 0.0
H701 H 0.01603 0.41957 0.75158 0.0
C702 C 0.03829 0.42097 0.79987 0.0
C703 C 0.03577 0.41179 0.83352 0.0
C704 C 0.92828 0.37067 0.77438 0.0
C705 C 0.98468 0.3955 0.78897 0.0
C706 C 0.90494 0.36157 0.74989 0.0
C707 C 0.91296 0.36479 0.71583 0.0
C708 C 0.95958 0.38322 0.76456 0.0
C709 C 0.94526 0.3753 0.70732 0.0
C710 C 0.01286 0.41311 0.77766 0.0
C711 C 0.00611 0.39661 0.84457 0.0
N712 N 0.96714 0.3844 0.73142 0.0
N713 N 0.98177 0.38849 0.82221 0.0
H714 H 0.87236 0.61744 0.02469 0.0
H715 H 0.83669 0.76774 0.10559 0.0
H716 H 0.95761 0.67887 1.00125 0.0
H717 H 0.93491 0.75746 0.14736 0.0
H718 H 0.84585 0.71641 0.07301 0.0
H719 H 0.86274 0.65115 0.07517 0.0
C720 C 0.89003 0.63692 0.03108 0.0
C721 C 0.91602 0.64526 0.00905 0.0
C722 C 0.86484 0.72477 0.09031 0.0
C723 C 0.90503 0.68372 0.06623 0.0
C724 C 0.85954 0.75384 0.10896 0.0
C725 C 0.88467 0.76613 0.12988 0.0
C726 C 0.896 0.7089 0.0916 0.0
C727 C 0.91454 0.74809 0.13229 0.0
C728 C 0.88423 0.65634 0.05955 0.0
C729 C 0.93753 0.6715 0.01783 0.0
N730 N 0.91979 0.7209 0.11258 0.0
N731 N 0.93148 0.68995 0.04575 0.0
H732 H 0.39622 0.59288 0.28635 0.0
H733 H 0.5193 0.71508 0.19208 0.0
H734 H 0.3961 0.69866 0.30678 0.0
H735 H 0.48434 0.62267 0.14867 0.0
H736 H 0.47554 0.71042 0.2349 0.0
H737 H 0.43029 0.60323 0.23662 0.0
C738 C 0.40308 0.61831 0.28017 0.0
C739 C 0.39328 0.64492 0.30071 0.0
C740 C 0.47722 0.6915 0.21563 0.0
C741 C 0.43282 0.65694 0.24418 0.0
C742 C 0.50214 0.69417 0.19114 0.0
C743 C 0.50578 0.6691 0.16684 0.0
C744 C 0.45626 0.66329 0.21609 0.0
C745 C 0.48276 0.64254 0.16696 0.0
C746 C 0.42247 0.62424 0.25175 0.0
C747 C 0.40295 0.67742 0.29151 0.0
N748 N 0.45942 0.64007 0.19146 0.0
N749 N 0.4226 0.68249 0.26418 0.0
H750 H 0.7859 0.93112 0.66436 0.0
H751 H 0.62827 0.98674 0.55539 0.0
H752 H 0.7422 0.8658 0.59083 0.0
H753 H 0.68994 0.05216 0.61496 0.0
H754 H 0.66433 0.93966 0.57131 0.0
H755 H 0.7427 0.97216 0.65312 0.0
C756 C 0.76638 0.92495 0.64672 0.0
C757 C 0.7674 0.89495 0.62878 0.0
C758 C 0.66986 0.96442 0.5807 0.0
C759 C 0.71876 0.94258 0.6143 0.0
C760 C 0.64951 0.99132 0.57139 0.0
C761 C 0.65594 0.02352 0.58392 0.0
C762 C 0.69649 0.96986 0.60286 0.0
C763 C 0.68372 0.02789 0.60476 0.0
C764 C 0.74204 0.94862 0.6398 0.0
C765 C 0.74189 0.88843 0.60564 0.0
N766 N 0.70268 1.00146 0.61366 0.0
N767 N 0.71885 0.91235 0.5986 0.0
H768 H 0.08088 0.53092 0.18268 0.0
H769 H 0.07901 0.42234 0.32079 0.0
H770 H 0.1454 0.58816 0.24725 0.0
H771 H 0.18096 0.45427 0.33254 0.0
H772 H 0.07259 0.4622 0.27497 0.0
H773 H 0.08603 0.48326 0.22062 0.0
C774 C 0.0957 0.53363 0.20511 0.0
C775 C 0.11236 0.56371 0.21208 0.0
C776 C 0.09668 0.45976 0.28681 0.0
C777 C 0.11888 0.50917 0.25509 0.0
C778 C 0.10039 0.43693 0.31282 0.0
C779 C 0.13072 0.4347 0.32997 0.0
C780 C 0.12328 0.48108 0.27857 0.0
C781 C 0.15742 0.45476 0.3194 0.0
C782 C 0.09865 0.50642 0.22667 0.0
C783 C 0.13166 0.56566 0.24122 0.0
N784 N 0.15286 0.47771 0.29482 0.0
N785 N 0.13468 0.53862 0.26147 0.0
H786 H 0.82425 0.96607 0.54128 0.0
H787 H 0.65066 0.89635 0.49898 0.0
H788 H 0.80865 0.86704 0.50172 0.0
H789 H 0.67823 0.97547 0.43148 0.0
H790 H 0.70573 0.90024 0.5247 0.0
H791 H 0.7696 0.98269 0.5186 0.0
C792 C 0.81013 0.94828 0.52659 0.0
C793 C 0.82097 0.91502 0.52346 0.0
C794 C 0.69914 0.91772 0.50518 0.0
C795 C 0.7585 0.93346 0.49917 0.0
C796 C 0.66754 0.91595 0.49095 0.0
C797 C 0.65989 0.9356 0.4631 0.0
C798 C 0.72309 0.93936 0.49158 0.0
C799 C 0.68309 0.96012 0.45316 0.0
C800 C 0.77881 0.95768 0.5142 0.0
C801 C 0.80125 0.89284 0.50485 0.0
N802 N 0.71423 0.96069 0.46674 0.0
N803 N 0.77065 0.9022 0.49417 0.0
H804 H 0.42373 0.53261 0.84061 0.0
H805 H 0.45586 0.46127 0.65686 0.0
H806 H 0.4511 0.59337 0.75579 0.0
H807 H 0.40626 0.40526 0.73463 0.0
H808 H 0.46666 0.50603 0.69671 0.0
H809 H 0.42943 0.48271 0.80583 0.0
C810 C 0.43155 0.53548 0.81484 0.0
C811 C 0.43661 0.56734 0.80102 0.0
C812 C 0.4538 0.48378 0.7052 0.0
C813 C 0.44303 0.5102 0.76108 0.0
C814 C 0.4477 0.45807 0.68247 0.0
C815 C 0.42966 0.42956 0.69224 0.0
C816 C 0.44181 0.4811 0.73805 0.0
C817 C 0.42003 0.42684 0.7259 0.0
C818 C 0.43463 0.50693 0.79498 0.0
C819 C 0.44666 0.56939 0.76746 0.0
N820 N 0.42587 0.45248 0.74751 0.0
N821 N 0.44927 0.54125 0.7486 0.0
H822 H 0.852 0.05135 0.9826 0.0
H823 H 0.69728 0.1567 0.0451 0.0
H824 H 0.82744 0.1456 0.9371 0.0
H825 H 0.69395 0.04922 0.04262 0.0
H826 H 0.74853 0.15549 0.01148 0.0
H827 H 0.79856 0.05264 0.01287 0.0
C828 C 0.8357 0.07262 0.97952 0.0
C829 C 0.84425 0.09854 0.95751 0.0
C830 C 0.73629 0.1322 0.01783 0.0
C831 C 0.78321 0.10001 0.99174 0.0
C832 C 0.70697 0.13289 0.03672 0.0
C833 C 0.69109 0.10304 0.04599 0.0
C834 C 0.75051 0.1014 0.00918 0.0
C835 C 0.70507 0.07278 0.03529 0.0
C836 C 0.80506 0.07309 0.99639 0.0
C837 C 0.82186 0.12518 0.95393 0.0
N838 N 0.73432 0.07268 0.01787 0.0
N839 N 0.79249 0.12535 0.97101 0.0
H840 H 0.26294 0.05201 0.41777 0.0
H841 H 0.24188 0.13444 0.58692 0.0
H842 H 0.26658 0.15945 0.42113 0.0
H843 H 0.15385 0.08117 0.55526 0.0
H844 H 0.26246 0.13341 0.52908 0.0
H845 H 0.23057 0.0521 0.47021 0.0
C846 C 0.25569 0.0756 0.42884 0.0
C847 C 0.26666 0.10582 0.41483 0.0
C848 C 0.23876 0.12176 0.53501 0.0
C849 C 0.23191 0.10591 0.47531 0.0
C850 C 0.22723 0.12195 0.56793 0.0
C851 C 0.19625 0.10766 0.57582 0.0
C852 C 0.21966 0.10637 0.51007 0.0
C853 C 0.17792 0.09234 0.55011 0.0
C854 C 0.23761 0.07559 0.45878 0.0
C855 C 0.25779 0.13572 0.43073 0.0
N856 N 0.19009 0.09172 0.51828 0.0
N857 N 0.24171 0.13501 0.46068 0.0
H858 H 0.13122 0.01783 0.67537 0.0
H859 H 0.04423 0.98521 0.85299 0.0
H860 H 0.05169 0.07954 0.7129 0.0
H861 H 0.12982 0.93218 0.81501 0.0
H862 H 0.04271 0.01761 0.80084 0.0
H863 H 0.12483 0.98141 0.72371 0.0
C864 C 0.11149 0.02292 0.6932 0.0
C865 C 0.09171 0.05146 0.68991 0.0
C866 C 0.06201 0.99916 0.80422 0.0
C867 C 0.08534 0.01091 0.74646 0.0
C868 C 0.06311 0.9809 0.83408 0.0
C869 C 0.08726 0.95598 0.83842 0.0
C870 C 0.0853 0.99253 0.77874 0.0
C871 C 0.11072 0.95107 0.81281 0.0
C872 C 0.10822 0.00249 0.72117 0.0
C873 C 0.067 0.05737 0.71416 0.0
N874 N 0.10908 0.96904 0.78418 0.0
N875 N 0.06487 0.03759 0.74177 0.0
H876 H 0.30507 0.80518 0.05135 0.0
H877 H 0.16613 0.91543 0.96036 0.0
H878 H 0.29619 0.91184 0.0628 0.0
H879 H 0.19247 0.81656 0.92674 0.0
H880 H 0.20976 0.9124 1.00251 0.0
H881 H 0.2585 0.80617 0.01144 0.0
C882 C 0.29276 0.82862 0.04614 0.0
C883 C 0.30436 0.85846 0.06044 0.0
C884 C 0.20621 0.89142 0.9858 0.0
C885 C 0.25178 0.85989 0.0146 0.0
C886 C 0.18138 0.8932 0.96158 0.0
C887 C 0.17578 0.86631 0.93978 0.0
C888 C 0.22544 0.86235 0.98869 0.0
C889 C 0.19621 0.83804 0.94275 0.0
C890 C 0.26656 0.82926 0.02304 0.0
C891 C 0.288 0.88826 0.05233 0.0
N892 N 0.22 0.83668 0.96693 0.0
N893 N 0.26266 0.88823 0.02996 0.0
H894 H 0.31586 0.00736 0.3241 0.0
H895 H 0.42144 0.98129 0.15944 0.0
H896 H 0.42188 0.02425 0.32192 0.0
H897 H 0.33783 0.9171 0.18179 0.0
H898 H 0.41781 0.00441 0.21628 0.0
H899 H 0.32003 0.97809 0.27031 0.0
C900 C 0.34018 0.00366 0.31288 0.0
C901 C 0.3687 0.01734 0.32779 0.0
C902 C 0.40016 0.98541 0.20857 0.0
C903 C 0.37334 0.98616 0.26545 0.0
C904 C 0.40185 0.97267 0.17604 0.0
C905 C 0.3797 0.9475 0.16589 0.0
C906 C 0.37575 0.97332 0.23078 0.0
C907 C 0.35526 0.93662 0.18864 0.0
C908 C 0.34249 0.98746 0.28203 0.0
C909 C 0.39949 0.01314 0.31166 0.0
N910 N 0.3538 0.94971 0.21996 0.0
N911 N 0.40094 0.9985 0.28099 0.0
H912 H 0.58982 0.19447 0.07189 0.0
H913 H 0.44987 0.29624 0.16906 0.0
H914 H 0.59626 0.21605 0.17721 0.0
H915 H 0.46691 0.30732 0.06319 0.0
H916 H 0.49919 0.26033 0.17233 0.0
H917 H 0.54215 0.23211 0.06776 0.0
C918 C 0.58169 0.20791 0.09395 0.0
C919 C 0.59713 0.20254 0.12484 0.0
C920 C 0.49188 0.27041 0.14837 0.0
C921 C 0.54179 0.24432 0.12066 0.0
C922 C 0.46344 0.29037 0.14638 0.0
C923 C 0.45424 0.30455 0.11576 0.0
C924 C 0.51085 0.26432 0.11945 0.0
C925 C 0.47313 0.29676 0.08726 0.0
C926 C 0.55433 0.22909 0.09167 0.0
C927 C 0.58535 0.22003 0.15283 0.0
N928 N 0.50055 0.27718 0.08979 0.0
N929 N 0.55797 0.23979 0.15021 0.0
H930 H 0.96982 0.17757 0.92306 0.0
H931 H 0.08614 0.29105 0.80578 0.0
H932 H 0.94952 0.1935 0.81853 0.0
H933 H 0.09151 0.28984 0.9133 0.0
H934 H 0.04088 0.24951 0.80842 0.0
H935 H 0.01746 0.21528 0.9189 0.0
C936 C 0.97503 0.18953 0.89934 0.0
C937 C 0.95544 0.18259 0.87119 0.0
C938 C 0.05237 0.25799 0.83137 0.0
C939 C 0.01077 0.22515 0.86594 0.0
C940 C 0.07857 0.2812 0.82983 0.0
C941 C 0.09264 0.29369 0.85938 0.0
C942 C 0.04046 0.24723 0.86267 0.0
C943 C 0.08136 0.28075 0.88994 0.0
C944 C 0.00245 0.21084 0.89689 0.0
C945 C 0.96363 0.19854 0.84099 0.0
N946 N 0.05586 0.25844 0.8908 0.0
N947 N 0.99087 0.21888 0.83907 0.0
H948 H 0.01437 0.66262 0.14791 0.0
H949 H 0.95302 0.81029 0.04187 0.0
H950 H 0.04784 0.6573 0.0456 0.0
H951 H 0.01217 0.82258 0.13077 0.0
H952 H 0.97392 0.75273 0.03653 0.0
H953 H 0.99222 0.71824 0.1371 0.0
C954 C 0.01554 0.67245 0.12272 0.0
C955 C 0.03313 0.65542 0.09772 0.0
C956 C 0.98307 0.76857 0.05647 0.0
C957 C 0.00875 0.71929 0.08551 0.0
C958 C 0.97171 0.80157 0.05923 0.0
C959 C 0.98067 0.82111 0.08707 0.0
C960 C 0.00294 0.75543 0.08197 0.0
C961 C 0.00445 0.80829 0.10914 0.0
C962 C 0.00352 0.7044 0.11676 0.0
C963 C 0.03426 0.66956 0.06552 0.0
N964 N 0.01393 0.77593 0.10673 0.0
N965 N 0.02287 0.7012 0.0604 0.0
H966 H 0.45239 0.66979 0.41902 0.0
H967 H 0.53015 0.8537 0.42595 0.0
H968 H 0.39392 0.7595 0.4293 0.0
H969 H 0.58923 0.7648 0.41261 0.0
H970 H 0.48093 0.81889 0.43463 0.0
H971 H 0.50317 0.70328 0.42401 0.0
C972 C 0.45016 0.69647 0.4228 0.0
C973 C 0.41871 0.71183 0.42346 0.0
C974 C 0.50468 0.80692 0.43015 0.0
C975 C 0.47699 0.75044 0.42891 0.0
C976 C 0.53291 0.82681 0.42523 0.0
C977 C 0.56394 0.81222 0.41822 0.0
C978 C 0.50729 0.77204 0.42788 0.0
C979 C 0.56586 0.7772 0.41782 0.0
C980 C 0.47924 0.7156 0.42555 0.0
C981 C 0.41753 0.74653 0.42846 0.0
N982 N 0.53787 0.75833 0.42221 0.0
N983 N 0.4462 0.76464 0.43069 0.0
H984 H 0.02616 0.646 0.58769 0.0
H985 H 0.95795 0.83166 0.56337 0.0
H986 H 0.08916 0.73353 0.58461 0.0
H987 H 0.89444 0.74618 0.58073 0.0
H988 H 0.00606 0.79467 0.56078 0.0
H989 H 0.97803 0.68095 0.57537 0.0
C990 C 0.03 0.67252 0.58405 0.0
C991 C 0.06182 0.68686 0.58755 0.0
C992 C 0.98157 0.78394 0.56475 0.0
C993 C 0.00657 0.72711 0.57349 0.0
C994 C 0.95398 0.80504 0.56609 0.0
C995 C 0.92203 0.79209 0.57266 0.0
C996 C 0.97732 0.74955 0.57004 0.0
C997 C 0.91856 0.75734 0.57581 0.0
C998 C 0.00242 0.69248 0.57707 0.0
C999 C 0.06513 0.72138 0.5824 0.0
N1000 N 0.9459 0.73733 0.57484 0.0
N1001 N 0.03783 0.74034 0.57589 0.0
H1002 H 0.01526 0.3452 0.45996 0.0
H1003 H 0.00688 0.16782 0.37035 0.0
H1004 H 0.0849 0.31469 0.38358 0.0
H1005 H 0.96259 0.18528 0.46687 0.0
H1006 H 0.03508 0.22195 0.37399 0.0
H1007 H 0.99235 0.2881 0.46071 0.0
C1008 C 0.02531 0.32669 0.44299 0.0
C1009 C 0.05189 0.33471 0.42157 0.0
C1010 C 0.01988 0.21367 0.39481 0.0
C1011 C 0.02636 0.2695 0.42268 0.0
C1012 C 0.00426 0.18255 0.39293 0.0
C1013 C 0.98325 0.17178 0.41876 0.0
C1014 C 0.01354 0.23465 0.42226 0.0
C1015 C 0.97947 0.19235 0.44692 0.0
C1016 C 0.01261 0.29403 0.44378 0.0
C1017 C 0.06439 0.3096 0.4005 0.0
N1018 N 0.99403 0.22311 0.44771 0.0
N1019 N 0.0515 0.27825 0.40153 0.0
H1020 H 0.45218 0.67868 0.96843 0.0
H1021 H 0.50801 0.83405 0.87644 0.0
H1022 H 0.508 0.67456 0.87631 0.0
H1023 H 0.56413 0.82599 0.9677 0.0
H1024 H 0.4838 0.77909 0.88722 0.0
H1025 H 0.47754 0.73357 0.98033 0.0
C1026 C 0.47086 0.68852 0.95147 0.0
C1027 C 0.47751 0.67237 0.92093 0.0
C1028 C 0.50034 0.79007 0.90557 0.0
C1029 C 0.50444 0.73537 0.9334 0.0
C1030 C 0.51384 0.82154 0.89967 0.0
C1031 C 0.53832 0.83443 0.92103 0.0
C1032 C 0.51106 0.77155 0.93314 0.0
C1033 C 0.54524 0.81692 0.95067 0.0
C1034 C 0.4847 0.7201 0.95799 0.0
C1035 C 0.50172 0.6864 0.89983 0.0
N1036 N 0.53226 0.78577 0.95554 0.0
N1037 N 0.5133 0.71764 0.90581 0.0
H1038 H 0.56612 0.90412 0.75774 0.0
H1039 H 0.60402 0.09413 0.72188 0.0
H1040 H 0.59547 0.97236 0.83592 0.0
H1041 H 0.54462 0.03241 0.65638 0.0
H1042 H 0.59854 0.05153 0.76543 0.0
H1043 H 0.55585 0.95169 0.7211 0.0
C1044 C 0.57001 0.92914 0.76732 0.0
C1045 C 0.58189 0.93426 0.79983 0.0
C1046 C 0.58621 0.04765 0.74171 0.0
C1047 C 0.57068 0.98886 0.7579 0.0
C1048 C 0.58926 0.07201 0.71686 0.0
C1049 C 0.57521 0.06666 0.68522 0.0
C1050 C 0.56936 0.01763 0.73465 0.0
C1051 C 0.5563 0.03749 0.6802 0.0
C1052 C 0.56407 0.95632 0.74644 0.0
C1053 C 0.58635 0.96726 0.811 0.0
N1054 N 0.55442 0.01387 0.70441 0.0
N1055 N 0.58126 0.9933 0.78989 0.0
H1056 H 0.18299 0.43021 0.97094 0.0
H1057 H 0.34092 0.33198 0.0342 0.0
H1058 H 0.2045 0.33216 0.93212 0.0
H1059 H 0.34571 0.43734 0.01305 0.0
H1060 H 0.28678 0.32909 0.00577 0.0
H1061 H 0.23782 0.43082 0.99831 0.0
C1062 C 0.19884 0.40844 0.96905 0.0
C1063 C 0.18922 0.38094 0.94961 0.0
C1064 C 0.29998 0.3527 0.00693 0.0
C1065 C 0.25167 0.38165 0.98027 0.0
C1066 C 0.33089 0.35429 0.02279 0.0
C1067 C 0.34797 0.3848 0.02526 0.0
C1068 C 0.28557 0.38206 0.99467 0.0
C1069 C 0.33362 0.41322 0.01092 0.0
C1070 C 0.23023 0.40904 0.98413 0.0
C1071 C 0.21101 0.3537 0.94716 0.0
N1072 N 0.30291 0.41131 0.99669 0.0
N1073 N 0.24121 0.35464 0.96244 0.0
H1074 H 0.901 0.10017 0.26403 0.0
H1075 H 0.9586 0.91235 0.24415 0.0
H1076 H 0.96067 0.04861 0.33705 0.0
H1077 H 0.92359 0.97046 0.16071 0.0
H1078 H 0.96298 0.96349 0.27715 0.0
H1079 H 0.91235 0.05509 0.22404 0.0
C1080 C 0.91701 0.07979 0.27145 0.0
C1081 C 0.92948 0.07798 0.30413 0.0
C1082 C 0.95485 0.96519 0.25145 0.0
C1083 C 0.94214 0.02616 0.25876 0.0
C1084 C 0.95238 0.93595 0.23259 0.0
C1085 C 0.94055 0.93707 0.19969 0.0
C1086 C 0.9448 0.99577 0.23757 0.0
C1087 C 0.93287 0.96841 0.18599 0.0
C1088 C 0.92341 0.054 0.24865 0.0
C1089 C 0.95007 0.0509 0.31233 0.0
N1090 N 0.93457 0.99645 0.20516 0.0
N1091 N 0.95532 0.02591 0.29003 0.0
H1092 H 0.14874 0.60812 0.50997 0.0
H1093 H 0.31499 0.54129 0.44892 0.0
H1094 H 0.17878 0.52646 0.57286 0.0
H1095 H 0.30653 0.63751 0.49673 0.0
H1096 H 0.26388 0.52318 0.47824 0.0
H1097 H 0.20298 0.60612 0.48223 0.0
C1098 C 0.16594 0.58839 0.5165 0.0
C1099 C 0.15924 0.56739 0.54366 0.0
C1100 C 0.27399 0.54784 0.48291 0.0
C1101 C 0.22133 0.56538 0.51234 0.0
C1102 C 0.30331 0.55812 0.46659 0.0
C1103 C 0.31482 0.59119 0.47005 0.0
C1104 C 0.2562 0.57106 0.5021 0.0
C1105 C 0.29836 0.61199 0.49295 0.0
C1106 C 0.19704 0.58767 0.50108 0.0
C1107 C 0.18287 0.54277 0.55168 0.0
N1108 N 0.26938 0.60194 0.5073 0.0
N1109 N 0.21343 0.54289 0.53659 0.0
H1110 H 0.68081 0.60734 0.06544 0.0
H1111 H 0.81081 0.71761 0.96091 0.0
H1112 H 0.68231 0.71463 0.07469 0.0
H1113 H 0.78587 0.61475 0.94091 0.0
H1114 H 0.76634 0.71912 0.00369 0.0
H1115 H 0.7245 0.61078 0.02353 0.0
C1116 C 0.69078 0.63169 0.05902 0.0
C1117 C 0.6778 0.66073 0.07357 0.0
C1118 C 0.77034 0.69646 0.98948 0.0
C1119 C 0.72764 0.66503 0.02456 0.0
C1120 C 0.79534 0.69573 0.96478 0.0
C1121 C 0.80195 0.666 0.94734 0.0
C1122 C 0.75222 0.66718 0.99668 0.0
C1123 C 0.7817 0.63815 0.95382 0.0
C1124 C 0.71556 0.6337 0.03474 0.0
C1125 C 0.69181 0.6916 0.06425 0.0
N1126 N 0.7581 0.63936 0.97807 0.0
N1127 N 0.71586 0.69301 0.04005 0.0
H1128 H 0.65238 0.4945 0.32882 0.0
H1129 H 0.55909 0.5296 0.15854 0.0
H1130 H 0.55243 0.45926 0.31087 0.0
H1131 H 0.63224 0.59818 0.19805 0.0
H1132 H 0.56038 0.49874 0.21151 0.0
H1133 H 0.64824 0.53039 0.2795 0.0
C1134 C 0.62915 0.49525 0.31511 0.0
C1135 C 0.60248 0.47445 0.32422 0.0
C1136 C 0.57614 0.52054 0.20847 0.0
C1137 C 0.59824 0.51384 0.26685 0.0
C1138 C 0.57578 0.53784 0.17813 0.0
C1139 C 0.59568 0.56641 0.17388 0.0
C1140 C 0.59693 0.53163 0.23445 0.0
C1141 C 0.61649 0.57628 0.20028 0.0
C1142 C 0.62693 0.51538 0.28678 0.0
C1143 C 0.57324 0.47556 0.3051 0.0
N1144 N 0.61669 0.55885 0.22937 0.0
N1145 N 0.57211 0.49444 0.27689 0.0
H1146 H 0.76597 0.32948 0.58406 0.0
H1147 H 0.67004 0.44225 0.4521 0.0
H1148 H 0.75179 0.43486 0.59992 0.0
H1149 H 0.72865 0.35657 0.42416 0.0
H1150 H 0.69024 0.43696 0.50961 0.0
H1151 H 0.73899 0.33452 0.52936 0.0
C1152 C 0.7556 0.35331 0.57673 0.0
C1153 C 0.76049 0.38172 0.59659 0.0
C1154 C 0.69897 0.4196 0.49077 0.0
C1155 C 0.73099 0.38792 0.53393 0.0
C1156 C 0.68782 0.42284 0.45796 0.0
C1157 C 0.69819 0.40015 0.43333 0.0
C1158 C 0.71985 0.39291 0.49913 0.0
C1159 C 0.72065 0.37499 0.44229 0.0
C1160 C 0.741 0.35634 0.54525 0.0
C1161 C 0.74787 0.41233 0.58545 0.0
N1162 N 0.73042 0.37175 0.47462 0.0
N1163 N 0.73386 0.41471 0.5547 0.0
H1164 H 0.84633 0.52453 0.86148 0.0
H1165 H 0.88333 0.50888 0.66843 0.0
H1166 H 0.87837 0.6106 0.80503 0.0
H1167 H 0.80773 0.45007 0.71821 0.0
H1168 H 0.88514 0.54604 0.71749 0.0
H1169 H 0.83619 0.4948 0.80893 0.0
C1170 C 0.85101 0.53722 0.83804 0.0
C1171 C 0.86303 0.57009 0.83762 0.0
C1172 C 0.86782 0.52524 0.71726 0.0
C1173 C 0.85211 0.53611 0.77746 0.0
C1174 C 0.86665 0.50418 0.68923 0.0
C1175 C 0.84566 0.47606 0.68929 0.0
C1176 C 0.84828 0.5177 0.74553 0.0
C1177 C 0.82469 0.47112 0.71711 0.0
C1178 C 0.84514 0.52033 0.80807 0.0
C1179 C 0.86878 0.58534 0.80647 0.0
N1180 N 0.82696 0.4913 0.74423 0.0
N1181 N 0.86368 0.56809 0.7776 0.0
H1182 H 0.50192 0.16222 0.62258 0.0
H1183 H 0.45689 0.32566 0.5227 0.0
H1184 H 0.5282 0.16611 0.51825 0.0
H1185 H 0.49166 0.32373 0.6244 0.0
H1186 H 0.47449 0.26704 0.51614 0.0
H1187 H 0.483 0.21994 0.61957 0.0
C1188 C 0.50225 0.17483 0.59864 0.0
C1189 C 0.51627 0.15935 0.57058 0.0
C1190 C 0.47906 0.27989 0.53951 0.0
C1191 C 0.4963 0.22595 0.56728 0.0
C1192 C 0.46972 0.31347 0.54307 0.0
C1193 C 0.47309 0.32958 0.57412 0.0
C1194 C 0.49117 0.26257 0.5674 0.0
C1195 C 0.4888 0.31229 0.60004 0.0
C1196 C 0.49221 0.20798 0.59709 0.0
C1197 C 0.51693 0.17707 0.54028 0.0
N1198 N 0.49659 0.2796 0.59633 0.0
N1199 N 0.50753 0.20979 0.53945 0.0
loop_
_geom_bond_atom_site_label_1
_geom_bond_atom_site_label_2
_geom_bond_distance
_geom_bond_site_symmetry_2
_ccdc_geom_bond_type
C0 O2 1.247 . S
C0 O4 1.258 . S
C1 O8 1.247 . S
C1 O9 1.258 . S
O2 C0 1.247 . S
O2 Zn3 2.028 . S
Zn3 O2 2.028 . S
Zn3 O7 2.035 . S
Zn3 O9 2.035 . S
Zn3 O10 2.028 . S
O4 C0 1.258 . S
O4 Zn5 2.035 . S
Zn5 O4 2.035 . S
Zn5 O6 2.028 . S
Zn5 O8 2.028 . S
Zn5 O11 2.035 . S
O6 Zn5 2.028 . S
O6 C12 1.247 . S
O7 Zn3 2.035 . S
O7 C12 1.258 . S
O8 C1 1.247 . S
O8 Zn5 2.028 . S
O9 C1 1.258 . S
O9 Zn3 2.035 . S
O10 Zn3 2.028 . S
O10 C13 1.247 . S
O11 Zn5 2.035 . S
O11 C13 1.258 . S
C12 O6 1.247 . S
C12 O7 1.258 . S
C13 O10 1.247 . S
C13 O11 1.258 . S
C14 O16 1.247 . S
C14 O18 1.258 . S
C15 O22 1.247 . S
C15 O23 1.258 . S
O16 C14 1.247 . S
O16 Zn17 2.028 . S
Zn17 O16 2.028 . S
Zn17 O21 2.035 . S
Zn17 O23 2.035 . S
Zn17 O24 2.028 . S
O18 C14 1.258 . S
O18 Zn19 2.035 . S
Zn19 O18 2.035 . S
Zn19 O20 2.028 . S
Zn19 O22 2.028 . S
Zn19 O25 2.035 . S
O20 Zn19 2.028 . S
O20 C26 1.247 . S
O21 Zn17 2.035 . S
O21 C26 1.258 . S
O22 C15 1.247 . S
O22 Zn19 2.028 . S
O23 C15 1.258 . S
O23 Zn17 2.035 . S
O24 Zn17 2.028 . S
O24 C27 1.247 . S
O25 Zn19 2.035 . S
O25 C27 1.258 . S
C26 O20 1.247 . S
C26 O21 1.258 . S
C27 O24 1.247 . S
C27 O25 1.258 . S
C28 O30 1.247 . S
C28 O32 1.258 . S
C29 O36 1.247 . S
C29 O37 1.258 . S
O30 C28 1.247 . S
O30 Zn31 2.028 . S
Zn31 O30 2.028 . S
Zn31 O35 2.035 . S
Zn31 O37 2.035 . S
Zn31 O38 2.028 . S
O32 C28 1.258 . S
O32 Zn33 2.035 . S
Zn33 O32 2.035 . S
Zn33 O34 2.028 . S
Zn33 O36 2.028 . S
Zn33 O39 2.035 . S
O34 Zn33 2.028 . S
O34 C40 1.247 . S
O35 Zn31 2.035 . S
O35 C40 1.258 . S
O36 C29 1.247 . S
O36 Zn33 2.028 . S
O37 C29 1.258 . S
O37 Zn31 2.035 . S
O38 Zn31 2.028 . S
O38 C41 1.247 . S
O39 Zn33 2.035 . S
O39 C41 1.258 . S
C40 O34 1.247 . S
C40 O35 1.258 . S
C41 O38 1.247 . S
C41 O39 1.258 . S
C42 O44 1.247 . S
C42 O46 1.258 . S
C43 O50 1.247 . S
C43 O51 1.258 . S
O44 C42 1.247 . S
O44 Zn45 2.028 . S
Zn45 O44 2.028 . S
Zn45 O49 2.035 . S
Zn45 O51 2.035 . S
Zn45 O52 2.028 . S
O46 C42 1.258 . S
O46 Zn47 2.035 . S
Zn47 O46 2.035 . S
Zn47 O48 2.028 . S
Zn47 O50 2.028 . S
Zn47 O53 2.035 . S
O48 Zn47 2.028 . S
O48 C54 1.247 . S
O49 Zn45 2.035 . S
O49 C54 1.258 . S
O50 C43 1.247 . S
O50 Zn47 2.028 . S
O51 C43 1.258 . S
O51 Zn45 2.035 . S
O52 Zn45 2.028 . S
O52 C55 1.247 . S
O53 Zn47 2.035 . S
O53 C55 1.258 . S
C54 O48 1.247 . S
C54 O49 1.258 . S
C55 O52 1.247 . S
C55 O53 1.258 . S
C56 O58 1.247 . S
C56 O60 1.258 . S
C57 O64 1.247 . S
C57 O65 1.258 . S
O58 C56 1.247 . S
O58 Zn59 2.028 . S
Zn59 O58 2.028 . S
Zn59 O63 2.035 . S
Zn59 O65 2.035 . S
Zn59 O66 2.028 . S
O60 C56 1.258 . S
O60 Zn61 2.035 . S
Zn61 O60 2.035 . S
Zn61 O62 2.028 . S
Zn61 O64 2.028 . S
Zn61 O67 2.035 . S
O62 Zn61 2.028 . S
O62 C68 1.247 . S
O63 Zn59 2.035 . S
O63 C68 1.258 . S
O64 C57 1.247 . S
O64 Zn61 2.028 . S
O65 C57 1.258 . S
O65 Zn59 2.035 . S
O66 Zn59 2.028 . S
O66 C69 1.247 . S
O67 Zn61 2.035 . S
O67 C69 1.258 . S
C68 O62 1.247 . S
C68 O63 1.258 . S
C69 O66 1.247 . S
C69 O67 1.258 . S
C70 O72 1.247 . S
C70 O74 1.258 . S
C71 O78 1.247 . S
C71 O79 1.258 . S
O72 C70 1.247 . S
O72 Zn73 2.028 . S
Zn73 O72 2.028 . S
Zn73 O77 2.035 . S
Zn73 O79 2.035 . S
Zn73 O80 2.028 . S
O74 C70 1.258 . S
O74 Zn75 2.035 . S
Zn75 O74 2.035 . S
Zn75 O76 2.028 . S
Zn75 O78 2.028 . S
Zn75 O81 2.035 . S
O76 Zn75 2.028 . S
O76 C82 1.247 . S
O77 Zn73 2.035 . S
O77 C82 1.258 . S
O78 C71 1.247 . S
O78 Zn75 2.028 . S
O79 C71 1.258 . S
O79 Zn73 2.035 . S
O80 Zn73 2.028 . S
O80 C83 1.247 . S
O81 Zn75 2.035 . S
O81 C83 1.258 . S
C82 O76 1.247 . S
C82 O77 1.258 . S
C83 O80 1.247 . S
C83 O81 1.258 . S
C84 O86 1.247 . S
C84 O88 1.258 . S
C85 O92 1.247 . S
C85 O93 1.258 . S
O86 C84 1.247 . S
O86 Zn87 2.028 . S
Zn87 O86 2.028 . S
Zn87 O91 2.035 . S
Zn87 O93 2.035 . S
Zn87 O94 2.028 . S
O88 C84 1.258 . S
O88 Zn89 2.035 . S
Zn89 O88 2.035 . S
Zn89 O90 2.028 . S
Zn89 O92 2.028 . S
Zn89 O95 2.035 . S
O90 Zn89 2.028 . S
O90 C96 1.247 . S
O91 Zn87 2.035 . S
O91 C96 1.258 . S
O92 C85 1.247 . S
O92 Zn89 2.028 . S
O93 C85 1.258 . S
O93 Zn87 2.035 . S
O94 Zn87 2.028 . S
O94 C97 1.247 . S
O95 Zn89 2.035 . S
O95 C97 1.258 . S
C96 O90 1.247 . S
C96 O91 1.258 . S
C97 O94 1.247 . S
C97 O95 1.258 . S
C98 O100 1.247 . S
C98 O102 1.258 . S
C99 O106 1.247 . S
C99 O107 1.258 . S
O100 C98 1.247 . S
O100 Zn101 2.028 . S
Zn101 O100 2.028 . S
Zn101 O105 2.035 . S
Zn101 O107 2.035 . S
Zn101 O108 2.028 . S
O102 C98 1.258 . S
O102 Zn103 2.035 . S
Zn103 O102 2.035 . S
Zn103 O104 2.028 . S
Zn103 O106 2.028 . S
Zn103 O109 2.035 . S
O104 Zn103 2.028 . S
O104 C110 1.247 . S
O105 Zn101 2.035 . S
O105 C110 1.258 . S
O106 C99 1.247 . S
O106 Zn103 2.028 . S
O107 C99 1.258 . S
O107 Zn101 2.035 . S
O108 Zn101 2.028 . S
O108 C111 1.247 . S
O109 Zn103 2.035 . S
O109 C111 1.258 . S
C110 O104 1.247 . S
C110 O105 1.258 . S
C111 O108 1.247 . S
C111 O109 1.258 . S
C112 O114 1.247 . S
C112 O116 1.258 . S
C113 O120 1.247 . S
C113 O121 1.258 . S
O114 C112 1.247 . S
O114 Zn115 2.028 . S
Zn115 O114 2.028 . S
Zn115 O119 2.035 . S
Zn115 O121 2.035 . S
Zn115 O122 2.028 . S
O116 C112 1.258 . S
O116 Zn117 2.035 . S
Zn117 O116 2.035 . S
Zn117 O118 2.028 . S
Zn117 O120 2.028 . S
Zn117 O123 2.035 . S
O118 Zn117 2.028 . S
O118 C124 1.247 . S
O119 Zn115 2.035 . S
O119 C124 1.258 . S
O120 C113 1.247 . S
O120 Zn117 2.028 . S
O121 C113 1.258 . S
O121 Zn115 2.035 . S
O122 Zn115 2.028 . S
O122 C125 1.247 . S
O123 Zn117 2.035 . S
O123 C125 1.258 . S
C124 O118 1.247 . S
C124 O119 1.258 . S
C125 O122 1.247 . S
C125 O123 1.258 . S
C126 O128 1.247 . S
C126 O130 1.258 . S
C127 O134 1.247 . S
C127 O135 1.258 . S
O128 C126 1.247 . S
O128 Zn129 2.028 . S
Zn129 O128 2.028 . S
Zn129 O133 2.035 . S
Zn129 O135 2.035 . S
Zn129 O136 2.028 . S
O130 C126 1.258 . S
O130 Zn131 2.035 . S
Zn131 O130 2.035 . S
Zn131 O132 2.028 . S
Zn131 O134 2.028 . S
Zn131 O137 2.035 . S
O132 Zn131 2.028 . S
O132 C138 1.247 . S
O133 Zn129 2.035 . S
O133 C138 1.258 . S
O134 C127 1.247 . S
O134 Zn131 2.028 . S
O135 C127 1.258 . S
O135 Zn129 2.035 . S
O136 Zn129 2.028 . S
O136 C139 1.247 . S
O137 Zn131 2.035 . S
O137 C139 1.258 . S
C138 O132 1.247 . S
C138 O133 1.258 . S
C139 O136 1.247 . S
C139 O137 1.258 . S
C140 O142 1.247 . S
C140 O144 1.258 . S
C141 O148 1.247 . S
C141 O149 1.258 . S
O142 C140 1.247 . S
O142 Zn143 2.028 . S
Zn143 O142 2.028 . S
Zn143 O147 2.035 . S
Zn143 O149 2.035 . S
Zn143 O150 2.028 . S
O144 C140 1.258 . S
O144 Zn145 2.035 . S
Zn145 O144 2.035 . S
Zn145 O146 2.028 . S
Zn145 O148 2.028 . S
Zn145 O151 2.035 . S
O146 Zn145 2.028 . S
O146 C152 1.247 . S
O147 Zn143 2.035 . S
O147 C152 1.258 . S
O148 C141 1.247 . S
O148 Zn145 2.028 . S
O149 C141 1.258 . S
O149 Zn143 2.035 . S
O150 Zn143 2.028 . S
O150 C153 1.247 . S
O151 Zn145 2.035 . S
O151 C153 1.258 . S
C152 O146 1.247 . S
C152 O147 1.258 . S
C153 O150 1.247 . S
C153 O151 1.258 . S
C154 O156 1.247 . S
C154 O158 1.258 . S
C155 O162 1.247 . S
C155 O163 1.258 . S
O156 C154 1.247 . S
O156 Zn157 2.028 . S
Zn157 O156 2.028 . S
Zn157 O161 2.035 . S
Zn157 O163 2.035 . S
Zn157 O164 2.028 . S
O158 C154 1.258 . S
O158 Zn159 2.035 . S
Zn159 O158 2.035 . S
Zn159 O160 2.028 . S
Zn159 O162 2.028 . S
Zn159 O165 2.035 . S
O160 Zn159 2.028 . S
O160 C166 1.247 . S
O161 Zn157 2.035 . S
O161 C166 1.258 . S
O162 C155 1.247 . S
O162 Zn159 2.028 . S
O163 C155 1.258 . S
O163 Zn157 2.035 . S
O164 Zn157 2.028 . S
O164 C167 1.247 . S
O165 Zn159 2.035 . S
O165 C167 1.258 . S
C166 O160 1.247 . S
C166 O161 1.258 . S
C167 O164 1.247 . S
C167 O165 1.258 . S
C168 O170 1.247 . S
C168 O172 1.258 . S
C169 O176 1.247 . S
C169 O177 1.258 . S
O170 C168 1.247 . S
O170 Zn171 2.028 . S
Zn171 O170 2.028 . S
Zn171 O175 2.035 . S
Zn171 O177 2.035 . S
Zn171 O178 2.028 . S
O172 C168 1.258 . S
O172 Zn173 2.035 . S
Zn173 O172 2.035 . S
Zn173 O174 2.028 . S
Zn173 O176 2.028 . S
Zn173 O179 2.035 . S
O174 Zn173 2.028 . S
O174 C180 1.247 . S
O175 Zn171 2.035 . S
O175 C180 1.258 . S
O176 C169 1.247 . S
O176 Zn173 2.028 . S
O177 C169 1.258 . S
O177 Zn171 2.035 . S
O178 Zn171 2.028 . S
O178 C181 1.247 . S
O179 Zn173 2.035 . S
O179 C181 1.258 . S
C180 O174 1.247 . S
C180 O175 1.258 . S
C181 O178 1.247 . S
C181 O179 1.258 . S
C182 O184 1.247 . S
C182 O186 1.258 . S
C183 O190 1.247 . S
C183 O191 1.258 . S
O184 C182 1.247 . S
O184 Zn185 2.028 . S
Zn185 O184 2.028 . S
Zn185 O189 2.035 . S
Zn185 O191 2.035 . S
Zn185 O192 2.028 . S
O186 C182 1.258 . S
O186 Zn187 2.035 . S
Zn187 O186 2.035 . S
Zn187 O188 2.028 . S
Zn187 O190 2.028 . S
Zn187 O193 2.035 . S
O188 Zn187 2.028 . S
O188 C194 1.247 . S
O189 Zn185 2.035 . S
O189 C194 1.258 . S
O190 C183 1.247 . S
O190 Zn187 2.028 . S
O191 C183 1.258 . S
O191 Zn185 2.035 . S
O192 Zn185 2.028 . S
O192 C195 1.247 . S
O193 Zn187 2.035 . S
O193 C195 1.258 . S
C194 O188 1.247 . S
C194 O189 1.258 . S
C195 O192 1.247 . S
C195 O193 1.258 . S
C196 O198 1.247 . S
C196 O200 1.258 . S
C197 O204 1.247 . S
C197 O205 1.258 . S
O198 C196 1.247 . S
O198 Zn199 2.028 . S
Zn199 O198 2.028 . S
Zn199 O203 2.035 . S
Zn199 O205 2.035 . S
Zn199 O206 2.028 . S
O200 C196 1.258 . S
O200 Zn201 2.035 . S
Zn201 O200 2.035 . S
Zn201 O202 2.028 . S
Zn201 O204 2.028 . S
Zn201 O207 2.035 . S
O202 Zn201 2.028 . S
O202 C208 1.247 . S
O203 Zn199 2.035 . S
O203 C208 1.258 . S
O204 C197 1.247 . S
O204 Zn201 2.028 . S
O205 C197 1.258 . S
O205 Zn199 2.035 . S
O206 Zn199 2.028 . S
O206 C209 1.247 . S
O207 Zn201 2.035 . S
O207 C209 1.258 . S
C208 O202 1.247 . S
C208 O203 1.258 . S
C209 O206 1.247 . S
C209 O207 1.258 . S
C210 O212 1.247 . S
C210 O214 1.258 . S
C211 O218 1.247 . S
C211 O219 1.258 . S
O212 C210 1.247 . S
O212 Zn213 2.028 . S
Zn213 O212 2.028 . S
Zn213 O217 2.035 . S
Zn213 O219 2.035 . S
Zn213 O220 2.028 . S
O214 C210 1.258 . S
O214 Zn215 2.035 . S
Zn215 O214 2.035 . S
Zn215 O216 2.028 . S
Zn215 O218 2.028 . S
Zn215 O221 2.035 . S
O216 Zn215 2.028 . S
O216 C222 1.247 . S
O217 Zn213 2.035 . S
O217 C222 1.258 . S
O218 C211 1.247 . S
O218 Zn215 2.028 . S
O219 C211 1.258 . S
O219 Zn213 2.035 . S
O220 Zn213 2.028 . S
O220 C223 1.247 . S
O221 Zn215 2.035 . S
O221 C223 1.258 . S
C222 O216 1.247 . S
C222 O217 1.258 . S
C223 O220 1.247 . S
C223 O221 1.258 . S
C224 O226 1.247 . S
C224 O228 1.258 . S
C225 O232 1.247 . S
C225 O233 1.258 . S
O226 C224 1.247 . S
O226 Zn227 2.028 . S
Zn227 O226 2.028 . S
Zn227 O231 2.035 . S
Zn227 O233 2.035 . S
Zn227 O234 2.028 . S
O228 C224 1.258 . S
O228 Zn229 2.035 . S
Zn229 O228 2.035 . S
Zn229 O230 2.028 . S
Zn229 O232 2.028 . S
Zn229 O235 2.035 . S
O230 Zn229 2.028 . S
O230 C236 1.247 . S
O231 Zn227 2.035 . S
O231 C236 1.258 . S
O232 C225 1.247 . S
O232 Zn229 2.028 . S
O233 C225 1.258 . S
O233 Zn227 2.035 . S
O234 Zn227 2.028 . S
O234 C237 1.247 . S
O235 Zn229 2.035 . S
O235 C237 1.258 . S
C236 O230 1.247 . S
C236 O231 1.258 . S
C237 O234 1.247 . S
C237 O235 1.258 . S
C238 O240 1.247 . S
C238 O242 1.258 . S
C239 O246 1.247 . S
C239 O247 1.258 . S
O240 C238 1.247 . S
O240 Zn241 2.028 . S
Zn241 O240 2.028 . S
Zn241 O245 2.035 . S
Zn241 O247 2.035 . S
Zn241 O248 2.028 . S
O242 C238 1.258 . S
O242 Zn243 2.035 . S
Zn243 O242 2.035 . S
Zn243 O244 2.028 . S
Zn243 O246 2.028 . S
Zn243 O249 2.035 . S
O244 Zn243 2.028 . S
O244 C250 1.247 . S
O245 Zn241 2.035 . S
O245 C250 1.258 . S
O246 C239 1.247 . S
O246 Zn243 2.028 . S
O247 C239 1.258 . S
O247 Zn241 2.035 . S
O248 Zn241 2.028 . S
O248 C251 1.247 . S
O249 Zn243 2.035 . S
O249 C251 1.258 . S
C250 O244 1.247 . S
C250 O245 1.258 . S
C251 O248 1.247 . S
C251 O249 1.258 . S
C252 O254 1.247 . S
C252 O256 1.258 . S
C253 O260 1.247 . S
C253 O261 1.258 . S
O254 C252 1.247 . S
O254 Zn255 2.028 . S
Zn255 O254 2.028 . S
Zn255 O259 2.035 . S
Zn255 O261 2.035 . S
Zn255 O262 2.028 . S
O256 C252 1.258 . S
O256 Zn257 2.035 . S
Zn257 O256 2.035 . S
Zn257 O258 2.028 . S
Zn257 O260 2.028 . S
Zn257 O263 2.035 . S
O258 Zn257 2.028 . S
O258 C264 1.247 . S
O259 Zn255 2.035 . S
O259 C264 1.258 . S
O260 C253 1.247 . S
O260 Zn257 2.028 . S
O261 C253 1.258 . S
O261 Zn255 2.035 . S
O262 Zn255 2.028 . S
O262 C265 1.247 . S
O263 Zn257 2.035 . S
O263 C265 1.258 . S
C264 O258 1.247 . S
C264 O259 1.258 . S
C265 O262 1.247 . S
C265 O263 1.258 . S
C266 O268 1.247 . S
C266 O270 1.258 . S
C267 O274 1.247 . S
C267 O275 1.258 . S
O268 C266 1.247 . S
O268 Zn269 2.028 . S
Zn269 O268 2.028 . S
Zn269 O273 2.035 . S
Zn269 O275 2.035 . S
Zn269 O276 2.028 . S
O270 C266 1.258 . S
O270 Zn271 2.035 . S
Zn271 O270 2.035 . S
Zn271 O272 2.028 . S
Zn271 O274 2.028 . S
Zn271 O277 2.035 . S
O272 Zn271 2.028 . S
O272 C278 1.247 . S
O273 Zn269 2.035 . S
O273 C278 1.258 . S
O274 C267 1.247 . S
O274 Zn271 2.028 . S
O275 C267 1.258 . S
O275 Zn269 2.035 . S
O276 Zn269 2.028 . S
O276 C279 1.247 . S
O277 Zn271 2.035 . S
O277 C279 1.258 . S
C278 O272 1.247 . S
C278 O273 1.258 . S
C279 O276 1.247 . S
C279 O277 1.258 . S
C280 O282 1.247 . S
C280 O284 1.258 . S
C281 O288 1.247 . S
C281 O289 1.258 . S
O282 C280 1.247 . S
O282 Zn283 2.028 . S
Zn283 O282 2.028 . S
Zn283 O287 2.035 . S
Zn283 O289 2.035 . S
Zn283 O290 2.028 . S
O284 C280 1.258 . S
O284 Zn285 2.035 . S
Zn285 O284 2.035 . S
Zn285 O286 2.028 . S
Zn285 O288 2.028 . S
Zn285 O291 2.035 . S
O286 Zn285 2.028 . S
O286 C292 1.247 . S
O287 Zn283 2.035 . S
O287 C292 1.258 . S
O288 C281 1.247 . S
O288 Zn285 2.028 . S
O289 C281 1.258 . S
O289 Zn283 2.035 . S
O290 Zn283 2.028 . S
O290 C293 1.247 . S
O291 Zn285 2.035 . S
O291 C293 1.258 . S
C292 O286 1.247 . S
C292 O287 1.258 . S
C293 O290 1.247 . S
C293 O291 1.258 . S
C294 O296 1.247 . S
C294 O298 1.258 . S
C295 O302 1.247 . S
C295 O303 1.258 . S
O296 C294 1.247 . S
O296 Zn297 2.028 . S
Zn297 O296 2.028 . S
Zn297 O301 2.035 . S
Zn297 O303 2.035 . S
Zn297 O304 2.028 . S
O298 C294 1.258 . S
O298 Zn299 2.035 . S
Zn299 O298 2.035 . S
Zn299 O300 2.028 . S
Zn299 O302 2.028 . S
Zn299 O305 2.035 . S
O300 Zn299 2.028 . S
O300 C306 1.247 . S
O301 Zn297 2.035 . S
O301 C306 1.258 . S
O302 C295 1.247 . S
O302 Zn299 2.028 . S
O303 C295 1.258 . S
O303 Zn297 2.035 . S
O304 Zn297 2.028 . S
O304 C307 1.247 . S
O305 Zn299 2.035 . S
O305 C307 1.258 . S
C306 O300 1.247 . S
C306 O301 1.258 . S
C307 O304 1.247 . S
C307 O305 1.258 . S
C308 O310 1.247 . S
C308 O312 1.258 . S
C309 O316 1.247 . S
C309 O317 1.258 . S
O310 C308 1.247 . S
O310 Zn311 2.028 . S
Zn311 O310 2.028 . S
Zn311 O315 2.035 . S
Zn311 O317 2.035 . S
Zn311 O318 2.028 . S
O312 C308 1.258 . S
O312 Zn313 2.035 . S
Zn313 O312 2.035 . S
Zn313 O314 2.028 . S
Zn313 O316 2.028 . S
Zn313 O319 2.035 . S
O314 Zn313 2.028 . S
O314 C320 1.247 . S
O315 Zn311 2.035 . S
O315 C320 1.258 . S
O316 C309 1.247 . S
O316 Zn313 2.028 . S
O317 C309 1.258 . S
O317 Zn311 2.035 . S
O318 Zn311 2.028 . S
O318 C321 1.247 . S
O319 Zn313 2.035 . S
O319 C321 1.258 . S
C320 O314 1.247 . S
C320 O315 1.258 . S
C321 O318 1.247 . S
C321 O319 1.258 . S
C322 O324 1.247 . S
C322 O326 1.258 . S
C323 O330 1.247 . S
C323 O331 1.258 . S
O324 C322 1.247 . S
O324 Zn325 2.028 . S
Zn325 O324 2.028 . S
Zn325 O329 2.035 . S
Zn325 O331 2.035 . S
Zn325 O332 2.028 . S
O326 C322 1.258 . S
O326 Zn327 2.035 . S
Zn327 O326 2.035 . S
Zn327 O328 2.028 . S
Zn327 O330 2.028 . S
Zn327 O333 2.035 . S
O328 Zn327 2.028 . S
O328 C334 1.247 . S
O329 Zn325 2.035 . S
O329 C334 1.258 . S
O330 C323 1.247 . S
O330 Zn327 2.028 . S
O331 C323 1.258 . S
O331 Zn325 2.035 . S
O332 Zn325 2.028 . S
O332 C335 1.247 . S
O333 Zn327 2.035 . S
O333 C335 1.258 . S
C334 O328 1.247 . S
C334 O329 1.258 . S
C335 O332 1.247 . S
C335 O333 1.258 . S
H336 C342 0.930 . S
H337 C346 0.930 . S
H338 C351 0.929 . S
H339 C349 0.929 . S
H340 C344 0.929 . S
H341 C350 0.929 . S
C342 H336 0.930 . S
C342 C343 1.367 . S
C342 C350 1.378 . S
C343 C342 1.367 . S
C343 C351 1.433 . S
C344 H340 0.929 . S
C344 C346 1.378 . S
C344 C348 1.350 . S
C345 C348 1.463 . S
C345 C350 1.350 . S
C345 N353 1.427 . S
C346 H337 0.930 . S
C346 C344 1.378 . S
C346 C347 1.367 . S
C347 C346 1.367 . S
C347 C349 1.433 . S
C348 C344 1.350 . S
C348 C345 1.463 . S
C348 N352 1.427 . S
C349 H339 0.929 . S
C349 C347 1.433 . S
C349 N352 1.384 . S
C350 H341 0.929 . S
C350 C342 1.378 . S
C350 C345 1.350 . S
C351 H338 0.929 . S
C351 C343 1.433 . S
C351 N353 1.384 . S
N352 C348 1.427 . S
N352 C349 1.384 . S
N353 C345 1.427 . S
N353 C351 1.384 . S
H354 C360 0.930 . S
H355 C364 0.930 . S
H356 C369 0.929 . S
H357 C367 0.929 . S
H358 C362 0.929 1_655 S
H359 C368 0.929 1_455 S
C360 H354 0.930 . S
C360 C361 1.367 . S
C360 C368 1.378 . S
C361 C360 1.367 . S
C361 C369 1.433 . S
C362 H358 0.929 1_455 S
C362 C364 1.378 . S
C362 C366 1.350 . S
C363 C366 1.463 1_655 S
C363 C368 1.350 . S
C363 N371 1.427 . S
C364 H355 0.930 . S
C364 C362 1.378 . S
C364 C365 1.367 . S
C365 C364 1.367 . S
C365 C367 1.433 . S
C366 C362 1.350 . S
C366 C363 1.463 1_455 S
C366 N370 1.427 . S
C367 H357 0.929 . S
C367 C365 1.433 . S
C367 N370 1.384 . S
C368 H359 0.929 1_655 S
C368 C360 1.378 . S
C368 C363 1.350 . S
C369 H356 0.929 . S
C369 C361 1.433 . S
C369 N371 1.384 . S
N370 C366 1.427 . S
N370 C367 1.384 . S
N371 C363 1.427 . S
N371 C369 1.384 . S
H372 C378 0.930 . S
H373 C382 0.930 . S
H374 C387 0.929 . S
H375 C385 0.929 . S
H376 C380 0.929 . S
H377 C386 0.929 . S
C378 H372 0.930 . S
C378 C379 1.367 . S
C378 C386 1.378 . S
C379 C378 1.367 . S
C379 C387 1.433 . S
C380 H376 0.929 . S
C380 C382 1.378 . S
C380 C384 1.350 . S
C381 C384 1.463 1_554 S
C381 C386 1.350 . S
C381 N389 1.427 . S
C382 H373 0.930 . S
C382 C380 1.378 . S
C382 C383 1.367 . S
C383 C382 1.367 . S
C383 C385 1.433 . S
C384 C380 1.350 . S
C384 C381 1.463 1_556 S
C384 N388 1.427 . S
C385 H375 0.929 . S
C385 C383 1.433 . S
C385 N388 1.384 . S
C386 H377 0.929 . S
C386 C378 1.378 . S
C386 C381 1.350 . S
C387 H374 0.929 . S
C387 C379 1.433 . S
C387 N389 1.384 . S
N388 C384 1.427 . S
N388 C385 1.384 . S
N389 C381 1.427 . S
N389 C387 1.384 . S
H390 C396 0.930 . S
H391 C400 0.930 . S
H392 C405 0.929 . S
H393 C403 0.929 . S
H394 C398 0.929 . S
H395 C404 0.929 . S
C396 H390 0.930 . S
C396 C397 1.367 . S
C396 C404 1.378 . S
C397 C396 1.367 . S
C397 C405 1.433 . S
C398 H394 0.929 . S
C398 C400 1.378 . S
C398 C402 1.350 . S
C399 C402 1.463 . S
C399 C404 1.350 . S
C399 N407 1.427 . S
C400 H391 0.930 . S
C400 C398 1.378 . S
C400 C401 1.367 . S
C401 C400 1.367 . S
C401 C403 1.433 . S
C402 C398 1.350 . S
C402 C399 1.463 . S
C402 N406 1.427 . S
C403 H393 0.929 . S
C403 C401 1.433 . S
C403 N406 1.384 . S
C404 H395 0.929 . S
C404 C396 1.378 . S
C404 C399 1.350 . S
C405 H392 0.929 . S
C405 C397 1.433 . S
C405 N407 1.384 . S
N406 C402 1.427 . S
N406 C403 1.384 . S
N407 C399 1.427 . S
N407 C405 1.384 . S
H408 C414 0.930 . S
H409 C418 0.930 . S
H410 C423 0.929 . S
H411 C421 0.929 . S
H412 C416 0.929 1_556 S
H413 C422 0.929 1_554 S
C414 H408 0.930 . S
C414 C415 1.367 . S
C414 C422 1.378 . S
C415 C414 1.367 . S
C415 C423 1.433 . S
C416 H412 0.929 1_554 S
C416 C418 1.378 . S
C416 C420 1.350 . S
C417 C420 1.463 1_556 S
C417 C422 1.350 . S
C417 N425 1.427 . S
C418 H409 0.930 . S
C418 C416 1.378 . S
C418 C419 1.367 . S
C419 C418 1.367 . S
C419 C421 1.433 . S
C420 C416 1.350 . S
C420 C417 1.463 1_554 S
C420 N424 1.427 . S
C421 H411 0.929 . S
C421 C419 1.433 . S
C421 N424 1.384 . S
C422 H413 0.929 1_556 S
C422 C414 1.378 . S
C422 C417 1.350 . S
C423 H410 0.929 . S
C423 C415 1.433 . S
C423 N425 1.384 . S
N424 C420 1.427 . S
N424 C421 1.384 . S
N425 C417 1.427 . S
N425 C423 1.384 . S
H426 C432 0.930 . S
H427 C436 0.930 . S
H428 C441 0.929 . S
H429 C439 0.929 . S
H430 C434 0.929 . S
H431 C440 0.929 . S
C432 H426 0.930 . S
C432 C433 1.367 . S
C432 C440 1.378 . S
C433 C432 1.367 . S
C433 C441 1.433 . S
C434 H430 0.929 . S
C434 C436 1.378 . S
C434 C438 1.350 . S
C435 C438 1.463 . S
C435 C440 1.350 . S
C435 N443 1.427 . S
C436 H427 0.930 . S
C436 C434 1.378 . S
C436 C437 1.367 . S
C437 C436 1.367 . S
C437 C439 1.433 . S
C438 C434 1.350 . S
C438 C435 1.463 . S
C438 N442 1.427 . S
C439 H429 0.929 . S
C439 C437 1.433 . S
C439 N442 1.384 . S
C440 H431 0.929 . S
C440 C432 1.378 . S
C440 C435 1.350 . S
C441 H428 0.929 . S
C441 C433 1.433 . S
C441 N443 1.384 . S
N442 C438 1.427 . S
N442 C439 1.384 . S
N443 C435 1.427 . S
N443 C441 1.384 . S
H444 C450 0.930 . S
H445 C454 0.930 . S
H446 C459 0.929 . S
H447 C457 0.929 . S
H448 C452 0.929 . S
H449 C458 0.929 . S
C450 H444 0.930 . S
C450 C451 1.367 . S
C450 C458 1.378 . S
C451 C450 1.367 . S
C451 C459 1.433 . S
C452 H448 0.929 . S
C452 C454 1.378 . S
C452 C456 1.350 . S
C453 C456 1.463 . S
C453 C458 1.350 . S
C453 N461 1.427 . S
C454 H445 0.930 . S
C454 C452 1.378 . S
C454 C455 1.367 . S
C455 C454 1.367 . S
C455 C457 1.433 . S
C456 C452 1.350 . S
C456 C453 1.463 . S
C456 N460 1.427 . S
C457 H447 0.929 . S
C457 C455 1.433 . S
C457 N460 1.384 . S
C458 H449 0.929 . S
C458 C450 1.378 . S
C458 C453 1.350 . S
C459 H446 0.929 . S
C459 C451 1.433 . S
C459 N461 1.384 . S
N460 C456 1.427 . S
N460 C457 1.384 . S
N461 C453 1.427 . S
N461 C459 1.384 . S
H462 C468 0.930 . S
H463 C472 0.930 . S
H464 C477 0.929 . S
H465 C475 0.929 . S
H466 C470 0.929 1_455 S
H467 C476 0.929 1_655 S
C468 H462 0.930 . S
C468 C469 1.367 . S
C468 C476 1.378 . S
C469 C468 1.367 . S
C469 C477 1.433 . S
C470 H466 0.929 1_655 S
C470 C472 1.378 . S
C470 C474 1.350 . S
C471 C474 1.463 1_455 S
C471 C476 1.350 . S
C471 N479 1.427 . S
C472 H463 0.930 . S
C472 C470 1.378 . S
C472 C473 1.367 . S
C473 C472 1.367 . S
C473 C475 1.433 . S
C474 C470 1.350 . S
C474 C471 1.463 1_655 S
C474 N478 1.427 . S
C475 H465 0.929 . S
C475 C473 1.433 . S
C475 N478 1.384 . S
C476 H467 0.929 1_455 S
C476 C468 1.378 . S
C476 C471 1.350 . S
C477 H464 0.929 . S
C477 C469 1.433 . S
C477 N479 1.384 . S
N478 C474 1.427 . S
N478 C475 1.384 . S
N479 C471 1.427 . S
N479 C477 1.384 . S
H480 C486 0.930 . S
H481 C490 0.930 . S
H482 C495 0.929 . S
H483 C493 0.929 . S
H484 C488 0.929 . S
H485 C494 0.929 . S
C486 H480 0.930 . S
C486 C487 1.367 . S
C486 C494 1.378 . S
C487 C486 1.367 . S
C487 C495 1.433 . S
C488 H484 0.929 . S
C488 C490 1.378 . S
C488 C492 1.350 . S
C489 C492 1.463 . S
C489 C494 1.350 . S
C489 N497 1.427 . S
C490 H481 0.930 . S
C490 C488 1.378 . S
C490 C491 1.367 . S
C491 C490 1.367 . S
C491 C493 1.433 . S
C492 C488 1.350 . S
C492 C489 1.463 . S
C492 N496 1.427 . S
C493 H483 0.929 . S
C493 C491 1.433 . S
C493 N496 1.384 . S
C494 H485 0.929 . S
C494 C486 1.378 . S
C494 C489 1.350 . S
C495 H482 0.929 . S
C495 C487 1.433 . S
C495 N497 1.384 . S
N496 C492 1.427 . S
N496 C493 1.384 . S
N497 C489 1.427 . S
N497 C495 1.384 . S
H498 C504 0.930 . S
H499 C508 0.930 . S
H500 C513 0.929 . S
H501 C511 0.929 . S
H502 C506 0.929 . S
H503 C512 0.929 . S
C504 H498 0.930 . S
C504 C505 1.367 . S
C504 C512 1.378 . S
C505 C504 1.367 . S
C505 C513 1.433 . S
C506 H502 0.929 . S
C506 C508 1.378 . S
C506 C510 1.350 . S
C507 C510 1.463 1_545 S
C507 C512 1.350 . S
C507 N515 1.427 . S
C508 H499 0.930 . S
C508 C506 1.378 . S
C508 C509 1.367 . S
C509 C508 1.367 . S
C509 C511 1.433 . S
C510 C506 1.350 . S
C510 C507 1.463 1_565 S
C510 N514 1.427 . S
C511 H501 0.929 . S
C511 C509 1.433 . S
C511 N514 1.384 . S
C512 H503 0.929 . S
C512 C504 1.378 . S
C512 C507 1.350 . S
C513 H500 0.929 . S
C513 C505 1.433 . S
C513 N515 1.384 . S
N514 C510 1.427 . S
N514 C511 1.384 . S
N515 C507 1.427 . S
N515 C513 1.384 . S
H516 C522 0.930 . S
H517 C526 0.930 . S
H518 C531 0.929 . S
H519 C529 0.929 . S
H520 C524 0.929 . S
H521 C530 0.929 . S
C522 H516 0.930 . S
C522 C523 1.367 . S
C522 C530 1.378 . S
C523 C522 1.367 . S
C523 C531 1.433 . S
C524 H520 0.929 . S
C524 C526 1.378 . S
C524 C528 1.350 . S
C525 C528 1.463 1_545 S
C525 C530 1.350 . S
C525 N533 1.427 . S
C526 H517 0.930 . S
C526 C524 1.378 . S
C526 C527 1.367 . S
C527 C526 1.367 . S
C527 C529 1.433 . S
C528 C524 1.350 . S
C528 C525 1.463 1_565 S
C528 N532 1.427 . S
C529 H519 0.929 . S
C529 C527 1.433 . S
C529 N532 1.384 . S
C530 H521 0.929 . S
C530 C522 1.378 . S
C530 C525 1.350 . S
C531 H518 0.929 . S
C531 C523 1.433 . S
C531 N533 1.384 . S
N532 C528 1.427 . S
N532 C529 1.384 . S
N533 C525 1.427 . S
N533 C531 1.384 . S
H534 C540 0.930 . S
H535 C544 0.930 . S
H536 C549 0.929 . S
H537 C547 0.929 . S
H538 C542 0.929 . S
H539 C548 0.929 . S
C540 H534 0.930 . S
C540 C541 1.367 . S
C540 C548 1.378 . S
C541 C540 1.367 . S
C541 C549 1.433 . S
C542 H538 0.929 . S
C542 C544 1.378 . S
C542 C546 1.350 . S
C543 C546 1.463 1_545 S
C543 C548 1.350 . S
C543 N551 1.427 . S
C544 H535 0.930 . S
C544 C542 1.378 . S
C544 C545 1.367 . S
C545 C544 1.367 . S
C545 C547 1.433 . S
C546 C542 1.350 . S
C546 C543 1.463 1_565 S
C546 N550 1.427 . S
C547 H537 0.929 . S
C547 C545 1.433 . S
C547 N550 1.384 . S
C548 H539 0.929 . S
C548 C540 1.378 . S
C548 C543 1.350 . S
C549 H536 0.929 . S
C549 C541 1.433 . S
C549 N551 1.384 . S
N550 C546 1.427 . S
N550 C547 1.384 . S
N551 C543 1.427 . S
N551 C549 1.384 . S
H552 C558 0.930 . S
H553 C562 0.930 . S
H554 C567 0.929 . S
H555 C565 0.929 . S
H556 C560 0.929 . S
H557 C566 0.929 . S
C558 H552 0.930 . S
C558 C559 1.367 . S
C558 C566 1.378 . S
C559 C558 1.367 . S
C559 C567 1.433 . S
C560 H556 0.929 . S
C560 C562 1.378 . S
C560 C564 1.350 . S
C561 C564 1.463 . S
C561 C566 1.350 . S
C561 N569 1.427 . S
C562 H553 0.930 . S
C562 C560 1.378 . S
C562 C563 1.367 . S
C563 C562 1.367 . S
C563 C565 1.433 . S
C564 C560 1.350 . S
C564 C561 1.463 . S
C564 N568 1.427 . S
C565 H555 0.929 . S
C565 C563 1.433 . S
C565 N568 1.384 . S
C566 H557 0.929 . S
C566 C558 1.378 . S
C566 C561 1.350 . S
C567 H554 0.929 . S
C567 C559 1.433 . S
C567 N569 1.384 . S
N568 C564 1.427 . S
N568 C565 1.384 . S
N569 C561 1.427 . S
N569 C567 1.384 . S
H570 C576 0.930 . S
H571 C580 0.930 . S
H572 C585 0.929 . S
H573 C583 0.929 . S
H574 C578 0.929 . S
H575 C584 0.929 . S
C576 H570 0.930 . S
C576 C577 1.367 . S
C576 C584 1.378 . S
C577 C576 1.367 . S
C577 C585 1.433 . S
C578 H574 0.929 . S
C578 C580 1.378 . S
C578 C582 1.350 . S
C579 C582 1.463 . S
C579 C584 1.350 . S
C579 N587 1.427 . S
C580 H571 0.930 . S
C580 C578 1.378 . S
C580 C581 1.367 . S
C581 C580 1.367 . S
C581 C583 1.433 . S
C582 C578 1.350 . S
C582 C579 1.463 . S
C582 N586 1.427 . S
C583 H573 0.929 . S
C583 C581 1.433 . S
C583 N586 1.384 . S
C584 H575 0.929 . S
C584 C576 1.378 . S
C584 C579 1.350 . S
C585 H572 0.929 . S
C585 C577 1.433 . S
C585 N587 1.384 . S
N586 C582 1.427 . S
N586 C583 1.384 . S
N587 C579 1.427 . S
N587 C585 1.384 . S
H588 C594 0.930 . S
H589 C598 0.930 . S
H590 C603 0.929 . S
H591 C601 0.929 . S
H592 C596 0.929 . S
H593 C602 0.929 . S
C594 H588 0.930 . S
C594 C595 1.367 . S
C594 C602 1.378 . S
C595 C594 1.367 . S
C595 C603 1.433 . S
C596 H592 0.929 . S
C596 C598 1.378 . S
C596 C600 1.350 . S
C597 C600 1.463 . S
C597 C602 1.350 . S
C597 N605 1.427 . S
C598 H589 0.930 . S
C598 C596 1.378 . S
C598 C599 1.367 . S
C599 C598 1.367 . S
C599 C601 1.433 . S
C600 C596 1.350 . S
C600 C597 1.463 . S
C600 N604 1.427 . S
C601 H591 0.929 . S
C601 C599 1.433 . S
C601 N604 1.384 . S
C602 H593 0.929 . S
C602 C594 1.378 . S
C602 C597 1.350 . S
C603 H590 0.929 . S
C603 C595 1.433 . S
C603 N605 1.384 . S
N604 C600 1.427 . S
N604 C601 1.384 . S
N605 C597 1.427 . S
N605 C603 1.384 . S
H606 C612 0.930 . S
H607 C616 0.930 . S
H608 C621 0.929 . S
H609 C619 0.929 . S
H610 C614 0.929 . S
H611 C620 0.929 . S
C612 H606 0.930 . S
C612 C613 1.367 . S
C612 C620 1.378 . S
C613 C612 1.367 . S
C613 C621 1.433 . S
C614 H610 0.929 . S
C614 C616 1.378 . S
C614 C618 1.350 . S
C615 C618 1.463 1_556 S
C615 C620 1.350 . S
C615 N623 1.427 . S
C616 H607 0.930 . S
C616 C614 1.378 . S
C616 C617 1.367 . S
C617 C616 1.367 . S
C617 C619 1.433 . S
C618 C614 1.350 . S
C618 C615 1.463 1_554 S
C618 N622 1.427 . S
C619 H609 0.929 . S
C619 C617 1.433 . S
C619 N622 1.384 . S
C620 H611 0.929 . S
C620 C612 1.378 . S
C620 C615 1.350 . S
C621 H608 0.929 . S
C621 C613 1.433 . S
C621 N623 1.384 . S
N622 C618 1.427 . S
N622 C619 1.384 . S
N623 C615 1.427 . S
N623 C621 1.384 . S
H624 C630 0.930 . S
H625 C634 0.930 . S
H626 C639 0.929 . S
H627 C637 0.929 . S
H628 C632 0.929 . S
H629 C638 0.929 . S
C630 H624 0.930 . S
C630 C631 1.367 . S
C630 C638 1.378 . S
C631 C630 1.367 . S
C631 C639 1.433 . S
C632 H628 0.929 . S
C632 C634 1.378 . S
C632 C636 1.350 . S
C633 C636 1.463 . S
C633 C638 1.350 . S
C633 N641 1.427 . S
C634 H625 0.930 . S
C634 C632 1.378 . S
C634 C635 1.367 . S
C635 C634 1.367 . S
C635 C637 1.433 . S
C636 C632 1.350 . S
C636 C633 1.463 . S
C636 N640 1.427 . S
C637 H627 0.929 . S
C637 C635 1.433 . S
C637 N640 1.384 . S
C638 H629 0.929 . S
C638 C630 1.378 . S
C638 C633 1.350 . S
C639 H626 0.929 . S
C639 C631 1.433 . S
C639 N641 1.384 . S
N640 C636 1.427 . S
N640 C637 1.384 . S
N641 C633 1.427 . S
N641 C639 1.384 . S
H642 C648 0.930 . S
H643 C652 0.930 . S
H644 C657 0.929 . S
H645 C655 0.929 . S
H646 C650 0.929 . S
H647 C656 0.929 . S
C648 H642 0.930 . S
C648 C649 1.367 . S
C648 C656 1.378 . S
C649 C648 1.367 . S
C649 C657 1.433 . S
C650 H646 0.929 . S
C650 C652 1.378 . S
C650 C654 1.350 . S
C651 C654 1.463 . S
C651 C656 1.350 . S
C651 N659 1.427 . S
C652 H643 0.930 . S
C652 C650 1.378 . S
C652 C653 1.367 . S
C653 C652 1.367 . S
C653 C655 1.433 . S
C654 C650 1.350 . S
C654 C651 1.463 . S
C654 N658 1.427 . S
C655 H645 0.929 . S
C655 C653 1.433 . S
C655 N658 1.384 . S
C656 H647 0.929 . S
C656 C648 1.378 . S
C656 C651 1.350 . S
C657 H644 0.929 . S
C657 C649 1.433 . S
C657 N659 1.384 . S
N658 C654 1.427 . S
N658 C655 1.384 . S
N659 C651 1.427 . S
N659 C657 1.384 . S
H660 C666 0.930 . S
H661 C670 0.930 . S
H662 C675 0.929 . S
H663 C673 0.929 . S
H664 C668 0.914 1_655 S
H665 C674 0.929 1_455 S
C666 H660 0.930 . S
C666 C667 1.367 . S
C666 C674 1.378 . S
C667 C666 1.367 . S
C667 C675 1.433 . S
C668 H664 0.914 1_455 S
C668 C670 1.378 . S
C668 C672 1.350 . S
C669 C672 1.463 1_655 S
C669 C674 1.350 . S
C669 N677 1.427 . S
C670 H661 0.930 . S
C670 C668 1.378 . S
C670 C671 1.367 . S
C671 C670 1.367 . S
C671 C673 1.433 . S
C672 C668 1.350 . S
C672 C669 1.463 1_455 S
C672 N676 1.427 . S
C673 H663 0.929 . S
C673 C671 1.433 . S
C673 N676 1.384 . S
C674 H665 0.929 1_655 S
C674 C666 1.378 . S
C674 C669 1.350 . S
C675 H662 0.929 . S
C675 C667 1.433 . S
C675 N677 1.384 . S
N676 C672 1.427 . S
N676 C673 1.384 . S
N677 C669 1.427 . S
N677 C675 1.384 . S
H678 C684 0.930 . S
H679 C688 0.930 . S
H680 C693 0.929 . S
H681 C691 0.929 . S
H682 C686 0.929 . S
H683 C692 0.929 . S
C684 H678 0.930 . S
C684 C685 1.367 . S
C684 C692 1.378 . S
C685 C684 1.367 . S
C685 C693 1.433 . S
C686 H682 0.929 . S
C686 C688 1.378 . S
C686 C690 1.350 . S
C687 C690 1.463 . S
C687 C692 1.350 . S
C687 N695 1.427 . S
C688 H679 0.930 . S
C688 C686 1.378 . S
C688 C689 1.367 . S
C689 C688 1.367 . S
C689 C691 1.433 . S
C690 C686 1.350 . S
C690 C687 1.463 . S
C690 N694 1.427 . S
C691 H681 0.929 . S
C691 C689 1.433 . S
C691 N694 1.384 . S
C692 H683 0.929 . S
C692 C684 1.378 . S
C692 C687 1.350 . S
C693 H680 0.929 . S
C693 C685 1.433 . S
C693 N695 1.384 . S
N694 C690 1.427 . S
N694 C691 1.384 . S
N695 C687 1.427 . S
N695 C693 1.384 . S
H696 C702 0.930 . S
H697 C706 0.930 . S
H698 C711 0.929 . S
H699 C709 0.929 . S
H700 C704 0.929 . S
H701 C710 0.929 . S
C702 H696 0.930 . S
C702 C703 1.367 . S
C702 C710 1.378 . S
C703 C702 1.367 . S
C703 C711 1.433 . S
C704 H700 0.929 . S
C704 C706 1.378 . S
C704 C708 1.350 . S
C705 C708 1.463 1_455 S
C705 C710 1.350 . S
C705 N713 1.427 . S
C706 H697 0.930 . S
C706 C704 1.378 . S
C706 C707 1.367 . S
C707 C706 1.367 . S
C707 C709 1.433 . S
C708 C704 1.350 . S
C708 C705 1.463 1_655 S
C708 N712 1.427 . S
C709 H699 0.929 . S
C709 C707 1.433 . S
C709 N712 1.384 . S
C710 H701 0.929 . S
C710 C702 1.378 . S
C710 C705 1.350 . S
C711 H698 0.929 . S
C711 C703 1.433 . S
C711 N713 1.384 . S
N712 C708 1.427 . S
N712 C709 1.384 . S
N713 C705 1.427 . S
N713 C711 1.384 . S
H714 C720 0.930 . S
H715 C724 0.930 . S
H716 C729 0.929 . S
H717 C727 0.929 . S
H718 C722 0.929 . S
H719 C728 0.929 . S
C720 H714 0.930 . S
C720 C721 1.367 . S
C720 C728 1.378 . S
C721 C720 1.367 . S
C721 C729 1.433 . S
C722 H718 0.929 . S
C722 C724 1.378 . S
C722 C726 1.350 . S
C723 C726 1.463 1_556 S
C723 C728 1.350 . S
C723 N731 1.427 . S
C724 H715 0.930 . S
C724 C722 1.378 . S
C724 C725 1.367 . S
C725 C724 1.367 . S
C725 C727 1.433 . S
C726 C722 1.350 . S
C726 C723 1.463 1_554 S
C726 N730 1.427 . S
C727 H717 0.929 . S
C727 C725 1.433 . S
C727 N730 1.384 . S
C728 H719 0.929 . S
C728 C720 1.378 . S
C728 C723 1.350 . S
C729 H716 0.929 . S
C729 C721 1.433 . S
C729 N731 1.384 . S
N730 C726 1.427 . S
N730 C727 1.384 . S
N731 C723 1.427 . S
N731 C729 1.384 . S
H732 C738 0.930 . S
H733 C742 0.930 . S
H734 C747 0.929 . S
H735 C745 0.929 . S
H736 C740 0.929 . S
H737 C746 0.929 . S
C738 H732 0.930 . S
C738 C739 1.367 . S
C738 C746 1.378 . S
C739 C738 1.367 . S
C739 C747 1.433 . S
C740 H736 0.929 . S
C740 C742 1.378 . S
C740 C744 1.350 . S
C741 C744 1.463 . S
C741 C746 1.350 . S
C741 N749 1.427 . S
C742 H733 0.930 . S
C742 C740 1.378 . S
C742 C743 1.367 . S
C743 C742 1.367 . S
C743 C745 1.433 . S
C744 C740 1.350 . S
C744 C741 1.463 . S
C744 N748 1.427 . S
C745 H735 0.929 . S
C745 C743 1.433 . S
C745 N748 1.384 . S
C746 H737 0.929 . S
C746 C738 1.378 . S
C746 C741 1.350 . S
C747 H734 0.929 . S
C747 C739 1.433 . S
C747 N749 1.384 . S
N748 C744 1.427 . S
N748 C745 1.384 . S
N749 C741 1.427 . S
N749 C747 1.384 . S
H750 C756 0.930 . S
H751 C760 0.930 . S
H752 C765 0.929 . S
H753 C763 0.929 . S
H754 C758 0.929 1_565 S
H755 C764 0.929 1_545 S
C756 H750 0.930 . S
C756 C757 1.367 . S
C756 C764 1.378 . S
C757 C756 1.367 . S
C757 C765 1.433 . S
C758 H754 0.929 1_545 S
C758 C760 1.378 . S
C758 C762 1.350 . S
C759 C762 1.463 1_565 S
C759 C764 1.350 . S
C759 N767 1.427 . S
C760 H751 0.930 . S
C760 C758 1.378 . S
C760 C761 1.367 . S
C761 C760 1.367 . S
C761 C763 1.433 . S
C762 C758 1.350 . S
C762 C759 1.463 1_545 S
C762 N766 1.427 . S
C763 H753 0.929 . S
C763 C761 1.433 . S
C763 N766 1.384 . S
C764 H755 0.929 1_565 S
C764 C756 1.378 . S
C764 C759 1.350 . S
C765 H752 0.929 . S
C765 C757 1.433 . S
C765 N767 1.384 . S
N766 C762 1.427 . S
N766 C763 1.384 . S
N767 C759 1.427 . S
N767 C765 1.384 . S
H768 C774 0.930 . S
H769 C778 0.930 . S
H770 C783 0.929 . S
H771 C781 0.929 . S
H772 C776 0.929 . S
H773 C782 0.929 . S
C774 H768 0.930 . S
C774 C775 1.367 . S
C774 C782 1.378 . S
C775 C774 1.367 . S
C775 C783 1.433 . S
C776 H772 0.929 . S
C776 C778 1.378 . S
C776 C780 1.350 . S
C777 C780 1.463 . S
C777 C782 1.350 . S
C777 N785 1.427 . S
C778 H769 0.930 . S
C778 C776 1.378 . S
C778 C779 1.367 . S
C779 C778 1.367 . S
C779 C781 1.433 . S
C780 C776 1.350 . S
C780 C777 1.463 . S
C780 N784 1.427 . S
C781 H771 0.929 . S
C781 C779 1.433 . S
C781 N784 1.384 . S
C782 H773 0.929 . S
C782 C774 1.378 . S
C782 C777 1.350 . S
C783 H770 0.929 . S
C783 C775 1.433 . S
C783 N785 1.384 . S
N784 C780 1.427 . S
N784 C781 1.384 . S
N785 C777 1.427 . S
N785 C783 1.384 . S
H786 C792 0.930 . S
H787 C796 0.930 . S
H788 C801 0.929 . S
H789 C799 0.929 . S
H790 C794 0.929 . S
H791 C800 0.929 . S
C792 H786 0.930 . S
C792 C793 1.367 . S
C792 C800 1.378 . S
C793 C792 1.367 . S
C793 C801 1.433 . S
C794 H790 0.929 . S
C794 C796 1.378 . S
C794 C798 1.350 . S
C795 C798 1.463 . S
C795 C800 1.350 . S
C795 N803 1.427 . S
C796 H787 0.930 . S
C796 C794 1.378 . S
C796 C797 1.367 . S
C797 C796 1.367 . S
C797 C799 1.433 . S
C798 C794 1.350 . S
C798 C795 1.463 . S
C798 N802 1.427 . S
C799 H789 0.929 . S
C799 C797 1.433 . S
C799 N802 1.384 . S
C800 H791 0.929 . S
C800 C792 1.378 . S
C800 C795 1.350 . S
C801 H788 0.929 . S
C801 C793 1.433 . S
C801 N803 1.384 . S
N802 C798 1.427 . S
N802 C799 1.384 . S
N803 C795 1.427 . S
N803 C801 1.384 . S
H804 C810 0.930 . S
H805 C814 0.930 . S
H806 C819 0.929 . S
H807 C817 0.929 . S
H808 C812 0.929 . S
H809 C818 0.929 . S
C810 H804 0.930 . S
C810 C811 1.367 . S
C810 C818 1.378 . S
C811 C810 1.367 . S
C811 C819 1.433 . S
C812 H808 0.929 . S
C812 C814 1.378 . S
C812 C816 1.350 . S
C813 C816 1.463 . S
C813 C818 1.350 . S
C813 N821 1.427 . S
C814 H805 0.930 . S
C814 C812 1.378 . S
C814 C815 1.367 . S
C815 C814 1.367 . S
C815 C817 1.433 . S
C816 C812 1.350 . S
C816 C813 1.463 . S
C816 N820 1.427 . S
C817 H807 0.929 . S
C817 C815 1.433 . S
C817 N820 1.384 . S
C818 H809 0.929 . S
C818 C810 1.378 . S
C818 C813 1.350 . S
C819 H806 0.929 . S
C819 C811 1.433 . S
C819 N821 1.384 . S
N820 C816 1.427 . S
N820 C817 1.384 . S
N821 C813 1.427 . S
N821 C819 1.384 . S
H822 C828 0.930 . S
H823 C832 0.930 . S
H824 C837 0.929 . S
H825 C835 0.929 . S
H826 C830 0.929 . S
H827 C836 0.929 . S
C828 H822 0.930 . S
C828 C829 1.367 . S
C828 C836 1.378 . S
C829 C828 1.367 . S
C829 C837 1.433 . S
C830 H826 0.929 . S
C830 C832 1.378 . S
C830 C834 1.350 . S
C831 C834 1.463 1_556 S
C831 C836 1.350 . S
C831 N839 1.427 . S
C832 H823 0.930 . S
C832 C830 1.378 . S
C832 C833 1.367 . S
C833 C832 1.367 . S
C833 C835 1.433 . S
C834 C830 1.350 . S
C834 C831 1.463 1_554 S
C834 N838 1.427 . S
C835 H825 0.929 . S
C835 C833 1.433 . S
C835 N838 1.384 . S
C836 H827 0.929 . S
C836 C828 1.378 . S
C836 C831 1.350 . S
C837 H824 0.929 . S
C837 C829 1.433 . S
C837 N839 1.384 . S
N838 C834 1.427 . S
N838 C835 1.384 . S
N839 C831 1.427 . S
N839 C837 1.384 . S
H840 C846 0.930 . S
H841 C850 0.930 . S
H842 C855 0.929 . S
H843 C853 0.929 . S
H844 C848 0.929 . S
H845 C854 0.929 . S
C846 H840 0.930 . S
C846 C847 1.367 . S
C846 C854 1.378 . S
C847 C846 1.367 . S
C847 C855 1.433 . S
C848 H844 0.929 . S
C848 C850 1.378 . S
C848 C852 1.350 . S
C849 C852 1.463 . S
C849 C854 1.350 . S
C849 N857 1.427 . S
C850 H841 0.930 . S
C850 C848 1.378 . S
C850 C851 1.367 . S
C851 C850 1.367 . S
C851 C853 1.433 . S
C852 C848 1.350 . S
C852 C849 1.463 . S
C852 N856 1.427 . S
C853 H843 0.929 . S
C853 C851 1.433 . S
C853 N856 1.384 . S
C854 H845 0.929 . S
C854 C846 1.378 . S
C854 C849 1.350 . S
C855 H842 0.929 . S
C855 C847 1.433 . S
C855 N857 1.384 . S
N856 C852 1.427 . S
N856 C853 1.384 . S
N857 C849 1.427 . S
N857 C855 1.384 . S
H858 C864 0.930 . S
H859 C868 0.930 . S
H860 C873 0.929 . S
H861 C871 0.929 . S
H862 C866 0.942 . S
H863 C872 0.942 . S
C864 H858 0.930 . S
C864 C865 1.367 . S
C864 C872 1.369 1_545 S
C865 C864 1.367 . S
C865 C873 1.433 . S
C866 H862 0.942 . S
C866 C868 1.369 1_545 S
C866 C870 1.345 1_545 S
C867 C870 1.463 1_545 S
C867 C872 1.345 1_545 S
C867 N875 1.427 . S
C868 H859 0.930 . S
C868 C866 1.369 1_565 S
C868 C869 1.367 . S
C869 C868 1.367 . S
C869 C871 1.433 . S
C870 C866 1.345 1_565 S
C870 C867 1.463 1_565 S
C870 N874 1.427 . S
C871 H861 0.929 . S
C871 C869 1.433 . S
C871 N874 1.384 . S
C872 H863 0.942 . S
C872 C864 1.369 1_565 S
C872 C867 1.345 1_565 S
C873 H860 0.929 . S
C873 C865 1.433 . S
C873 N875 1.384 . S
N874 C870 1.427 . S
N874 C871 1.384 . S
N875 C867 1.427 . S
N875 C873 1.384 . S
H876 C882 0.930 . S
H877 C886 0.930 . S
H878 C891 0.929 . S
H879 C889 0.929 . S
H880 C884 0.929 . S
H881 C890 0.929 . S
C882 H876 0.930 . S
C882 C883 1.367 . S
C882 C890 1.378 . S
C883 C882 1.367 . S
C883 C891 1.433 . S
C884 H880 0.929 . S
C884 C886 1.378 . S
C884 C888 1.350 . S
C885 C888 1.463 1_554 S
C885 C890 1.350 . S
C885 N893 1.427 . S
C886 H877 0.930 . S
C886 C884 1.378 . S
C886 C887 1.367 . S
C887 C886 1.367 . S
C887 C889 1.433 . S
C888 C884 1.350 . S
C888 C885 1.463 1_556 S
C888 N892 1.427 . S
C889 H879 0.929 . S
C889 C887 1.433 . S
C889 N892 1.384 . S
C890 H881 0.929 . S
C890 C882 1.378 . S
C890 C885 1.350 . S
C891 H878 0.929 . S
C891 C883 1.433 . S
C891 N893 1.384 . S
N892 C888 1.427 . S
N892 C889 1.384 . S
N893 C885 1.427 . S
N893 C891 1.384 . S
H894 C900 0.930 . S
H895 C904 0.930 . S
H896 C909 0.929 . S
H897 C907 0.929 . S
H898 C902 0.939 . S
H899 C908 0.939 . S
C900 H894 0.930 . S
C900 C901 1.367 . S
C900 C908 1.378 . S
C901 C900 1.367 . S
C901 C909 1.433 . S
C902 H898 0.939 . S
C902 C904 1.378 . S
C902 C906 1.350 . S
C903 C906 1.463 1_545 S
C903 C908 1.350 . S
C903 N911 1.427 . S
C904 H895 0.930 . S
C904 C902 1.378 . S
C904 C905 1.367 . S
C905 C904 1.367 . S
C905 C907 1.433 . S
C906 C902 1.350 . S
C906 C903 1.463 1_565 S
C906 N910 1.427 . S
C907 H897 0.929 . S
C907 C905 1.433 . S
C907 N910 1.384 . S
C908 H899 0.939 . S
C908 C900 1.378 . S
C908 C903 1.350 . S
C909 H896 0.929 . S
C909 C901 1.433 . S
C909 N911 1.384 . S
N910 C906 1.427 . S
N910 C907 1.384 . S
N911 C903 1.427 . S
N911 C909 1.384 . S
H912 C918 0.930 . S
H913 C922 0.930 . S
H914 C927 0.929 . S
H915 C925 0.929 . S
H916 C920 0.929 . S
H917 C926 0.929 . S
C918 H912 0.930 . S
C918 C919 1.367 . S
C918 C926 1.378 . S
C919 C918 1.367 . S
C919 C927 1.433 . S
C920 H916 0.929 . S
C920 C922 1.378 . S
C920 C924 1.350 . S
C921 C924 1.463 . S
C921 C926 1.350 . S
C921 N929 1.427 . S
C922 H913 0.930 . S
C922 C920 1.378 . S
C922 C923 1.367 . S
C923 C922 1.367 . S
C923 C925 1.433 . S
C924 C920 1.350 . S
C924 C921 1.463 . S
C924 N928 1.427 . S
C925 H915 0.929 . S
C925 C923 1.433 . S
C925 N928 1.384 . S
C926 H917 0.929 . S
C926 C918 1.378 . S
C926 C921 1.350 . S
C927 H914 0.929 . S
C927 C919 1.433 . S
C927 N929 1.384 . S
N928 C924 1.427 . S
N928 C925 1.384 . S
N929 C921 1.427 . S
N929 C927 1.384 . S
H930 C936 0.930 . S
H931 C940 0.930 . S
H932 C945 0.929 . S
H933 C943 0.929 . S
H934 C938 0.929 1_655 S
H935 C944 0.929 1_455 S
C936 H930 0.930 . S
C936 C937 1.367 . S
C936 C944 1.378 . S
C937 C936 1.367 . S
C937 C945 1.433 . S
C938 H934 0.929 1_455 S
C938 C940 1.378 . S
C938 C942 1.350 . S
C939 C942 1.463 1_655 S
C939 C944 1.350 . S
C939 N947 1.427 . S
C940 H931 0.930 . S
C940 C938 1.378 . S
C940 C941 1.367 . S
C941 C940 1.367 . S
C941 C943 1.433 . S
C942 C938 1.350 . S
C942 C939 1.463 1_455 S
C942 N946 1.427 . S
C943 H933 0.929 . S
C943 C941 1.433 . S
C943 N946 1.384 . S
C944 H935 0.929 1_655 S
C944 C936 1.378 . S
C944 C939 1.350 . S
C945 H932 0.929 . S
C945 C937 1.433 . S
C945 N947 1.384 . S
N946 C942 1.427 . S
N946 C943 1.384 . S
N947 C939 1.427 . S
N947 C945 1.384 . S
H948 C954 0.930 . S
H949 C958 0.930 . S
H950 C963 0.929 . S
H951 C961 0.929 . S
H952 C956 0.929 . S
H953 C962 0.929 . S
C954 H948 0.930 . S
C954 C955 1.367 . S
C954 C962 1.378 . S
C955 C954 1.367 . S
C955 C963 1.433 . S
C956 H952 0.929 . S
C956 C958 1.378 . S
C956 C960 1.350 . S
C957 C960 1.463 1_455 S
C957 C962 1.350 . S
C957 N965 1.427 . S
C958 H949 0.930 . S
C958 C956 1.378 . S
C958 C959 1.367 . S
C959 C958 1.367 . S
C959 C961 1.433 . S
C960 C956 1.350 . S
C960 C957 1.463 1_655 S
C960 N964 1.427 . S
C961 H951 0.929 . S
C961 C959 1.433 . S
C961 N964 1.384 . S
C962 H953 0.929 . S
C962 C954 1.378 . S
C962 C957 1.350 . S
C963 H950 0.929 . S
C963 C955 1.433 . S
C963 N965 1.384 . S
N964 C960 1.427 . S
N964 C961 1.384 . S
N965 C957 1.427 . S
N965 C963 1.384 . S
H966 C972 0.930 . S
H967 C976 0.930 . S
H968 C981 0.929 . S
H969 C979 0.929 . S
H970 C974 0.929 . S
H971 C980 0.929 . S
C972 H966 0.930 . S
C972 C973 1.367 . S
C972 C980 1.378 . S
C973 C972 1.367 . S
C973 C981 1.433 . S
C974 H970 0.929 . S
C974 C976 1.378 . S
C974 C978 1.350 . S
C975 C978 1.463 . S
C975 C980 1.350 . S
C975 N983 1.427 . S
C976 H967 0.930 . S
C976 C974 1.378 . S
C976 C977 1.367 . S
C977 C976 1.367 . S
C977 C979 1.433 . S
C978 C974 1.350 . S
C978 C975 1.463 . S
C978 N982 1.427 . S
C979 H969 0.929 . S
C979 C977 1.433 . S
C979 N982 1.384 . S
C980 H971 0.929 . S
C980 C972 1.378 . S
C980 C975 1.350 . S
C981 H968 0.929 . S
C981 C973 1.433 . S
C981 N983 1.384 . S
N982 C978 1.427 . S
N982 C979 1.384 . S
N983 C975 1.427 . S
N983 C981 1.384 . S
H984 C990 0.930 . S
H985 C994 0.930 . S
H986 C999 0.929 . S
H987 C997 0.929 . S
H988 C992 0.929 1_455 S
H989 C998 0.929 1_655 S
C990 H984 0.930 . S
C990 C991 1.367 . S
C990 C998 1.378 . S
C991 C990 1.367 . S
C991 C999 1.433 . S
C992 H988 0.929 1_655 S
C992 C994 1.378 . S
C992 C996 1.350 . S
C993 C996 1.463 1_455 S
C993 C998 1.350 . S
C993 N1001 1.427 . S
C994 H985 0.930 . S
C994 C992 1.378 . S
C994 C995 1.367 . S
C995 C994 1.367 . S
C995 C997 1.433 . S
C996 C992 1.350 . S
C996 C993 1.463 1_655 S
C996 N1000 1.427 . S
C997 H987 0.929 . S
C997 C995 1.433 . S
C997 N1000 1.384 . S
C998 H989 0.929 1_455 S
C998 C990 1.378 . S
C998 C993 1.350 . S
C999 H986 0.929 . S
C999 C991 1.433 . S
C999 N1001 1.384 . S
N1000 C996 1.427 . S
N1000 C997 1.384 . S
N1001 C993 1.427 . S
N1001 C999 1.384 . S
H1002 C1008 0.930 . S
H1003 C1012 0.930 . S
H1004 C1017 0.929 . S
H1005 C1015 0.929 . S
H1006 C1010 0.929 . S
H1007 C1016 0.929 . S
C1008 H1002 0.930 . S
C1008 C1009 1.367 . S
C1008 C1016 1.378 1_455 S
C1009 C1008 1.367 . S
C1009 C1017 1.433 . S
C1010 H1006 0.929 . S
C1010 C1012 1.378 1_455 S
C1010 C1014 1.350 1_455 S
C1011 C1014 1.463 1_455 S
C1011 C1016 1.350 1_455 S
C1011 N1019 1.427 . S
C1012 H1003 0.930 . S
C1012 C1010 1.378 1_655 S
C1012 C1013 1.367 . S
C1013 C1012 1.367 . S
C1013 C1015 1.433 . S
C1014 C1010 1.350 1_655 S
C1014 C1011 1.463 1_655 S
C1014 N1018 1.427 . S
C1015 H1005 0.929 . S
C1015 C1013 1.433 . S
C1015 N1018 1.384 . S
C1016 H1007 0.929 . S
C1016 C1008 1.378 1_655 S
C1016 C1011 1.350 1_655 S
C1017 H1004 0.929 . S
C1017 C1009 1.433 . S
C1017 N1019 1.384 . S
N1018 C1014 1.427 . S
N1018 C1015 1.384 . S
N1019 C1011 1.427 . S
N1019 C1017 1.384 . S
H1020 C1026 0.930 . S
H1021 C1030 0.930 . S
H1022 C1035 0.929 . S
H1023 C1033 0.929 . S
H1024 C1028 0.929 . S
H1025 C1034 0.929 . S
C1026 H1020 0.930 . S
C1026 C1027 1.367 . S
C1026 C1034 1.378 . S
C1027 C1026 1.367 . S
C1027 C1035 1.433 . S
C1028 H1024 0.929 . S
C1028 C1030 1.378 . S
C1028 C1032 1.350 . S
C1029 C1032 1.463 . S
C1029 C1034 1.350 . S
C1029 N1037 1.427 . S
C1030 H1021 0.930 . S
C1030 C1028 1.378 . S
C1030 C1031 1.367 . S
C1031 C1030 1.367 . S
C1031 C1033 1.433 . S
C1032 C1028 1.350 . S
C1032 C1029 1.463 . S
C1032 N1036 1.427 . S
C1033 H1023 0.929 . S
C1033 C1031 1.433 . S
C1033 N1036 1.384 . S
C1034 H1025 0.929 . S
C1034 C1026 1.378 . S
C1034 C1029 1.350 . S
C1035 H1022 0.929 . S
C1035 C1027 1.433 . S
C1035 N1037 1.384 . S
N1036 C1032 1.427 . S
N1036 C1033 1.384 . S
N1037 C1029 1.427 . S
N1037 C1035 1.384 . S
H1038 C1044 0.930 . S
H1039 C1048 0.930 . S
H1040 C1053 0.929 . S
H1041 C1051 0.929 . S
H1042 C1046 0.929 . S
H1043 C1052 0.929 . S
C1044 H1038 0.930 . S
C1044 C1045 1.367 . S
C1044 C1052 1.378 . S
C1045 C1044 1.367 . S
C1045 C1053 1.433 . S
C1046 H1042 0.929 . S
C1046 C1048 1.378 . S
C1046 C1050 1.350 . S
C1047 C1050 1.463 1_565 S
C1047 C1052 1.350 . S
C1047 N1055 1.427 . S
C1048 H1039 0.930 . S
C1048 C1046 1.378 . S
C1048 C1049 1.367 . S
C1049 C1048 1.367 . S
C1049 C1051 1.433 . S
C1050 C1046 1.350 . S
C1050 C1047 1.463 1_545 S
C1050 N1054 1.427 . S
C1051 H1041 0.929 . S
C1051 C1049 1.433 . S
C1051 N1054 1.384 . S
C1052 H1043 0.929 . S
C1052 C1044 1.378 . S
C1052 C1047 1.350 . S
C1053 H1040 0.929 . S
C1053 C1045 1.433 . S
C1053 N1055 1.384 . S
N1054 C1050 1.427 . S
N1054 C1051 1.384 . S
N1055 C1047 1.427 . S
N1055 C1053 1.384 . S
H1056 C1062 0.930 . S
H1057 C1066 0.930 . S
H1058 C1071 0.929 . S
H1059 C1069 0.929 . S
H1060 C1064 0.929 1_556 S
H1061 C1070 0.929 1_554 S
C1062 H1056 0.930 . S
C1062 C1063 1.367 . S
C1062 C1070 1.378 . S
C1063 C1062 1.367 . S
C1063 C1071 1.433 . S
C1064 H1060 0.929 1_554 S
C1064 C1066 1.378 . S
C1064 C1068 1.350 . S
C1065 C1068 1.463 1_556 S
C1065 C1070 1.350 . S
C1065 N1073 1.427 . S
C1066 H1057 0.930 . S
C1066 C1064 1.378 . S
C1066 C1067 1.367 . S
C1067 C1066 1.367 . S
C1067 C1069 1.433 . S
C1068 C1064 1.350 . S
C1068 C1065 1.463 1_554 S
C1068 N1072 1.427 . S
C1069 H1059 0.929 . S
C1069 C1067 1.433 . S
C1069 N1072 1.384 . S
C1070 H1061 0.929 1_556 S
C1070 C1062 1.378 . S
C1070 C1065 1.350 . S
C1071 H1058 0.929 . S
C1071 C1063 1.433 . S
C1071 N1073 1.384 . S
N1072 C1068 1.427 . S
N1072 C1069 1.384 . S
N1073 C1065 1.427 . S
N1073 C1071 1.384 . S
H1074 C1080 0.930 . S
H1075 C1084 0.930 . S
H1076 C1089 0.929 . S
H1077 C1087 0.929 . S
H1078 C1082 0.929 . S
H1079 C1088 0.929 . S
C1080 H1074 0.930 . S
C1080 C1081 1.367 . S
C1080 C1088 1.378 . S
C1081 C1080 1.367 . S
C1081 C1089 1.433 . S
C1082 H1078 0.929 . S
C1082 C1084 1.378 . S
C1082 C1086 1.350 . S
C1083 C1086 1.463 1_545 S
C1083 C1088 1.350 . S
C1083 N1091 1.427 . S
C1084 H1075 0.930 . S
C1084 C1082 1.378 . S
C1084 C1085 1.367 . S
C1085 C1084 1.367 . S
C1085 C1087 1.433 . S
C1086 C1082 1.350 . S
C1086 C1083 1.463 1_565 S
C1086 N1090 1.427 . S
C1087 H1077 0.929 . S
C1087 C1085 1.433 . S
C1087 N1090 1.384 . S
C1088 H1079 0.929 . S
C1088 C1080 1.378 . S
C1088 C1083 1.350 . S
C1089 H1076 0.929 . S
C1089 C1081 1.433 . S
C1089 N1091 1.384 . S
N1090 C1086 1.427 . S
N1090 C1087 1.384 . S
N1091 C1083 1.427 . S
N1091 C1089 1.384 . S
H1092 C1098 0.930 . S
H1093 C1102 0.930 . S
H1094 C1107 0.929 . S
H1095 C1105 0.929 . S
H1096 C1100 0.929 . S
H1097 C1106 0.929 . S
C1098 H1092 0.930 . S
C1098 C1099 1.367 . S
C1098 C1106 1.378 . S
C1099 C1098 1.367 . S
C1099 C1107 1.433 . S
C1100 H1096 0.929 . S
C1100 C1102 1.378 . S
C1100 C1104 1.350 . S
C1101 C1104 1.463 . S
C1101 C1106 1.350 . S
C1101 N1109 1.427 . S
C1102 H1093 0.930 . S
C1102 C1100 1.378 . S
C1102 C1103 1.367 . S
C1103 C1102 1.367 . S
C1103 C1105 1.433 . S
C1104 C1100 1.350 . S
C1104 C1101 1.463 . S
C1104 N1108 1.427 . S
C1105 H1095 0.929 . S
C1105 C1103 1.433 . S
C1105 N1108 1.384 . S
C1106 H1097 0.929 . S
C1106 C1098 1.378 . S
C1106 C1101 1.350 . S
C1107 H1094 0.929 . S
C1107 C1099 1.433 . S
C1107 N1109 1.384 . S
N1108 C1104 1.427 . S
N1108 C1105 1.384 . S
N1109 C1101 1.427 . S
N1109 C1107 1.384 . S
H1110 C1116 0.930 . S
H1111 C1120 0.930 . S
H1112 C1125 0.929 . S
H1113 C1123 0.929 . S
H1114 C1118 0.929 . S
H1115 C1124 0.929 . S
C1116 H1110 0.930 . S
C1116 C1117 1.367 . S
C1116 C1124 1.378 . S
C1117 C1116 1.367 . S
C1117 C1125 1.433 . S
C1118 H1114 0.929 . S
C1118 C1120 1.378 . S
C1118 C1122 1.350 . S
C1119 C1122 1.463 1_554 S
C1119 C1124 1.350 . S
C1119 N1127 1.427 . S
C1120 H1111 0.930 . S
C1120 C1118 1.378 . S
C1120 C1121 1.367 . S
C1121 C1120 1.367 . S
C1121 C1123 1.433 . S
C1122 C1118 1.350 . S
C1122 C1119 1.463 1_556 S
C1122 N1126 1.427 . S
C1123 H1113 0.929 . S
C1123 C1121 1.433 . S
C1123 N1126 1.384 . S
C1124 H1115 0.929 . S
C1124 C1116 1.378 . S
C1124 C1119 1.350 . S
C1125 H1112 0.929 . S
C1125 C1117 1.433 . S
C1125 N1127 1.384 . S
N1126 C1122 1.427 . S
N1126 C1123 1.384 . S
N1127 C1119 1.427 . S
N1127 C1125 1.384 . S
H1128 C1134 0.930 . S
H1129 C1138 0.930 . S
H1130 C1143 0.929 . S
H1131 C1141 0.929 . S
H1132 C1136 0.929 . S
H1133 C1142 0.929 . S
C1134 H1128 0.930 . S
C1134 C1135 1.367 . S
C1134 C1142 1.378 . S
C1135 C1134 1.367 . S
C1135 C1143 1.433 . S
C1136 H1132 0.929 . S
C1136 C1138 1.378 . S
C1136 C1140 1.350 . S
C1137 C1140 1.463 . S
C1137 C1142 1.350 . S
C1137 N1145 1.427 . S
C1138 H1129 0.930 . S
C1138 C1136 1.378 . S
C1138 C1139 1.367 . S
C1139 C1138 1.367 . S
C1139 C1141 1.433 . S
C1140 C1136 1.350 . S
C1140 C1137 1.463 . S
C1140 N1144 1.427 . S
C1141 H1131 0.929 . S
C1141 C1139 1.433 . S
C1141 N1144 1.384 . S
C1142 H1133 0.929 . S
C1142 C1134 1.378 . S
C1142 C1137 1.350 . S
C1143 H1130 0.929 . S
C1143 C1135 1.433 . S
C1143 N1145 1.384 . S
N1144 C1140 1.427 . S
N1144 C1141 1.384 . S
N1145 C1137 1.427 . S
N1145 C1143 1.384 . S
H1146 C1152 0.930 . S
H1147 C1156 0.930 . S
H1148 C1161 0.929 . S
H1149 C1159 0.929 . S
H1150 C1154 0.929 . S
H1151 C1160 0.929 . S
C1152 H1146 0.930 . S
C1152 C1153 1.367 . S
C1152 C1160 1.378 . S
C1153 C1152 1.367 . S
C1153 C1161 1.433 . S
C1154 H1150 0.929 . S
C1154 C1156 1.378 . S
C1154 C1158 1.350 . S
C1155 C1158 1.463 . S
C1155 C1160 1.350 . S
C1155 N1163 1.427 . S
C1156 H1147 0.930 . S
C1156 C1154 1.378 . S
C1156 C1157 1.367 . S
C1157 C1156 1.367 . S
C1157 C1159 1.433 . S
C1158 C1154 1.350 . S
C1158 C1155 1.463 . S
C1158 N1162 1.427 . S
C1159 H1149 0.929 . S
C1159 C1157 1.433 . S
C1159 N1162 1.384 . S
C1160 H1151 0.929 . S
C1160 C1152 1.378 . S
C1160 C1155 1.350 . S
C1161 H1148 0.929 . S
C1161 C1153 1.433 . S
C1161 N1163 1.384 . S
N1162 C1158 1.427 . S
N1162 C1159 1.384 . S
N1163 C1155 1.427 . S
N1163 C1161 1.384 . S
H1164 C1170 0.930 . S
H1165 C1174 0.930 . S
H1166 C1179 0.929 . S
H1167 C1177 0.929 . S
H1168 C1172 0.929 . S
H1169 C1178 0.929 . S
C1170 H1164 0.930 . S
C1170 C1171 1.367 . S
C1170 C1178 1.378 . S
C1171 C1170 1.367 . S
C1171 C1179 1.433 . S
C1172 H1168 0.929 . S
C1172 C1174 1.378 . S
C1172 C1176 1.350 . S
C1173 C1176 1.463 . S
C1173 C1178 1.350 . S
C1173 N1181 1.427 . S
C1174 H1165 0.930 . S
C1174 C1172 1.378 . S
C1174 C1175 1.367 . S
C1175 C1174 1.367 . S
C1175 C1177 1.433 . S
C1176 C1172 1.350 . S
C1176 C1173 1.463 . S
C1176 N1180 1.427 . S
C1177 H1167 0.929 . S
C1177 C1175 1.433 . S
C1177 N1180 1.384 . S
C1178 H1169 0.929 . S
C1178 C1170 1.378 . S
C1178 C1173 1.350 . S
C1179 H1166 0.929 . S
C1179 C1171 1.433 . S
C1179 N1181 1.384 . S
N1180 C1176 1.427 . S
N1180 C1177 1.384 . S
N1181 C1173 1.427 . S
N1181 C1179 1.384 . S
H1182 C1188 0.930 . S
H1183 C1192 0.930 . S
H1184 C1197 0.929 . S
H1185 C1195 0.929 . S
H1186 C1190 0.929 . S
H1187 C1196 0.929 . S
C1188 H1182 0.930 . S
C1188 C1189 1.367 . S
C1188 C1196 1.378 . S
C1189 C1188 1.367 . S
C1189 C1197 1.433 . S
C1190 H1186 0.929 . S
C1190 C1192 1.378 . S
C1190 C1194 1.350 . S
C1191 C1194 1.463 . S
C1191 C1196 1.350 . S
C1191 N1199 1.427 . S
C1192 H1183 0.930 . S
C1192 C1190 1.378 . S
C1192 C1193 1.367 . S
C1193 C1192 1.367 . S
C1193 C1195 1.433 . S
C1194 C1190 1.350 . S
C1194 C1191 1.463 . S
C1194 N1198 1.427 . S
C1195 H1185 0.929 . S
C1195 C1193 1.433 . S
C1195 N1198 1.384 . S
C1196 H1187 0.929 . S
C1196 C1188 1.378 . S
C1196 C1191 1.350 . S
C1197 H1184 0.929 . S
C1197 C1189 1.433 . S
C1197 N1199 1.384 . S
N1198 C1194 1.427 . S
N1198 C1195 1.384 . S
N1199 C1191 1.427 . S
N1199 C1197 1.384 . S
C343 C0 1.449 . S
C347 C126 1.449 . S
C361 C27 1.449 . S
C365 C153 1.450 . S
C379 C155 1.450 . S
C383 C28 1.449 . S
C397 C112 1.449 . S
C401 C42 1.450 . S
C415 C141 1.452 . S
C419 C68 1.452 . S
C433 C70 1.449 . S
C437 C167 1.449 . S
C451 C96 1.450 . S
C455 C124 1.449 . S
C469 C138 1.453 . S
C473 C99 1.452 . S
C487 C56 1.453 . S
C491 C169 1.452 . S
C505 C111 1.453 . S
C509 C222 1.453 . S
C523 C237 1.453 . S
C527 C82 1.452 . S
C541 C54 1.449 . S
C545 C195 1.449 . S
C559 C208 1.449 . S
C563 C84 1.449 . S
C577 C12 1.453 . S
C581 C279 1.453 . S
C595 C40 1.449 . S
C599 C265 1.450 . S
C613 C210 1.452 . S
C617 C294 1.453 . S
C631 C320 1.450 . S
C635 C181 1.451 . S
C649 C334 1.451 . S
C653 C225 1.452 . S
C667 C292 1.453 . S
C671 C196 1.453 . S
C685 C308 1.453 . S
C689 C250 1.453 . S
C703 C253 1.453 . S
C707 C322 1.453 . S
C721 C280 1.449 . S
C725 C183 1.449 . S
C739 C267 1.453 . S
C743 C306 1.453 . S
C757 C15 1.450 . S
C761 C238 1.449 . S
C775 C69 0.932 . S
C779 C1 0.935 . S
C793 C26 0.938 . S
C797 C71 0.941 . S
C811 C29 0.932 . S
C815 C97 0.935 . S
C829 C98 0.933 . S
C833 C43 0.938 . S
C847 C113 0.936 . S
C851 C139 0.932 . S
C865 C127 0.941 . S
C869 C140 0.939 . S
C883 C166 0.936 . S
C887 C152 0.940 . S
C901 C125 0.940 . S
C905 C154 0.936 . S
C919 C55 0.937 . S
C923 C168 0.933 . S
C937 C110 0.935 . S
C941 C264 0.932 . S
C955 C57 0.935 . S
C959 C194 0.932 . S
C973 C278 0.934 . S
C977 C83 0.932 . S
C991 C209 0.933 . S
C995 C14 0.931 . S
C1009 C13 0.940 . S
C1013 C236 0.941 . S
C1027 C41 0.938 . S
C1031 C223 0.941 . S
C1045 C211 0.941 . S
C1049 C251 0.941 . S
C1063 C252 0.936 . S
C1067 C180 0.940 . S
C1081 C224 0.941 . S
C1085 C182 0.940 . S
C1099 C197 0.933 . S
C1103 C266 0.931 . S
C1117 C307 0.936 . S
C1121 C293 0.932 . S
C1135 C309 0.941 . S
C1139 C295 0.939 . S
C1153 C323 0.937 . S
C1157 C321 0.941 . S
C1171 C281 0.941 . S
C1175 C335 0.939 . S
C1189 C239 0.934 . S
C1193 C85 0.932 . S
