# Generated by pormake.
# Topology why, (6)-cn, num edge types: 1
# Building blocks:
#     Node 0, Type 0, BuildingBlock: UKALOJ_clean_sbu_0, # of connection points: 6
#     Node 1, Type 0, BuildingBlock: UKALOJ_clean_sbu_0, # of connection points: 6
#     Node 2, Type 0, BuildingBlock: UKALOJ_clean_sbu_0, # of connection points: 6
#     Node 3, Type 0, BuildingBlock: UKALOJ_clean_sbu_0, # of connection points: 6
#     Node 4, Type 0, BuildingBlock: UKALOJ_clean_sbu_0, # of connection points: 6
#     Node 5, Type 0, BuildingBlock: UKALOJ_clean_sbu_0, # of connection points: 6
#     Node 6, Type 0, BuildingBlock: UKALOJ_clean_sbu_0, # of connection points: 6
#     Node 7, Type 0, BuildingBlock: UKALOJ_clean_sbu_0, # of connection points: 6
#     Node 8, Type 0, BuildingBlock: UKALOJ_clean_sbu_0, # of connection points: 6
#     Node 9, Type 0, BuildingBlock: UKALOJ_clean_sbu_0, # of connection points: 6
#     Node 10, Type 0, BuildingBlock: UKALOJ_clean_sbu_0, # of connection points: 6
#     Node 11, Type 0, BuildingBlock: UKALOJ_clean_sbu_0, # of connection points: 6
#     Node 12, Type 0, BuildingBlock: UKALOJ_clean_sbu_0, # of connection points: 6
#     Node 13, Type 0, BuildingBlock: UKALOJ_clean_sbu_0, # of connection points: 6
#     Node 14, Type 0, BuildingBlock: UKALOJ_clean_sbu_0, # of connection points: 6
#     Node 15, Type 0, BuildingBlock: UKALOJ_clean_sbu_0, # of connection points: 6
#     Edge 16, Type (0, 0), BuildingBlock: OJICUG_clean_linker_0, # of connection points: 2
#     Edge 17, Type (0, 0), BuildingBlock: OJICUG_clean_linker_0, # of connection points: 2
#     Edge 18, Type (0, 0), BuildingBlock: OJICUG_clean_linker_0, # of connection points: 2
#     Edge 19, Type (0, 0), BuildingBlock: OJICUG_clean_linker_0, # of connection points: 2
#     Edge 20, Type (0, 0), BuildingBlock: OJICUG_clean_linker_0, # of connection points: 2
#     Edge 21, Type (0, 0), BuildingBlock: OJICUG_clean_linker_0, # of connection points: 2
#     Edge 22, Type (0, 0), BuildingBlock: OJICUG_clean_linker_0, # of connection points: 2
#     Edge 23, Type (0, 0), BuildingBlock: OJICUG_clean_linker_0, # of connection points: 2
#     Edge 24, Type (0, 0), BuildingBlock: OJICUG_clean_linker_0, # of connection points: 2
#     Edge 25, Type (0, 0), BuildingBlock: OJICUG_clean_linker_0, # of connection points: 2
#     Edge 26, Type (0, 0), BuildingBlock: OJICUG_clean_linker_0, # of connection points: 2
#     Edge 27, Type (0, 0), BuildingBlock: OJICUG_clean_linker_0, # of connection points: 2
#     Edge 28, Type (0, 0), BuildingBlock: OJICUG_clean_linker_0, # of connection points: 2
#     Edge 29, Type (0, 0), BuildingBlock: OJICUG_clean_linker_0, # of connection points: 2
#     Edge 30, Type (0, 0), BuildingBlock: OJICUG_clean_linker_0, # of connection points: 2
#     Edge 31, Type (0, 0), BuildingBlock: OJICUG_clean_linker_0, # of connection points: 2
#     Edge 32, Type (0, 0), BuildingBlock: OJICUG_clean_linker_0, # of connection points: 2
#     Edge 33, Type (0, 0), BuildingBlock: OJICUG_clean_linker_0, # of connection points: 2
#     Edge 34, Type (0, 0), BuildingBlock: OJICUG_clean_linker_0, # of connection points: 2
#     Edge 35, Type (0, 0), BuildingBlock: OJICUG_clean_linker_0, # of connection points: 2
#     Edge 36, Type (0, 0), BuildingBlock: OJICUG_clean_linker_0, # of connection points: 2
#     Edge 37, Type (0, 0), BuildingBlock: OJICUG_clean_linker_0, # of connection points: 2
#     Edge 38, Type (0, 0), BuildingBlock: OJICUG_clean_linker_0, # of connection points: 2
#     Edge 39, Type (0, 0), BuildingBlock: OJICUG_clean_linker_0, # of connection points: 2
#     Edge 40, Type (0, 0), BuildingBlock: OJICUG_clean_linker_0, # of connection points: 2
#     Edge 41, Type (0, 0), BuildingBlock: OJICUG_clean_linker_0, # of connection points: 2
#     Edge 42, Type (0, 0), BuildingBlock: OJICUG_clean_linker_0, # of connection points: 2
#     Edge 43, Type (0, 0), BuildingBlock: OJICUG_clean_linker_0, # of connection points: 2
#     Edge 44, Type (0, 0), BuildingBlock: OJICUG_clean_linker_0, # of connection points: 2
#     Edge 45, Type (0, 0), BuildingBlock: OJICUG_clean_linker_0, # of connection points: 2
#     Edge 46, Type (0, 0), BuildingBlock: OJICUG_clean_linker_0, # of connection points: 2
#     Edge 47, Type (0, 0), BuildingBlock: OJICUG_clean_linker_0, # of connection points: 2
#     Edge 48, Type (0, 0), BuildingBlock: OJICUG_clean_linker_0, # of connection points: 2
#     Edge 49, Type (0, 0), BuildingBlock: OJICUG_clean_linker_0, # of connection points: 2
#     Edge 50, Type (0, 0), BuildingBlock: OJICUG_clean_linker_0, # of connection points: 2
#     Edge 51, Type (0, 0), BuildingBlock: OJICUG_clean_linker_0, # of connection points: 2
#     Edge 52, Type (0, 0), BuildingBlock: OJICUG_clean_linker_0, # of connection points: 2
#     Edge 53, Type (0, 0), BuildingBlock: OJICUG_clean_linker_0, # of connection points: 2
#     Edge 54, Type (0, 0), BuildingBlock: OJICUG_clean_linker_0, # of connection points: 2
#     Edge 55, Type (0, 0), BuildingBlock: OJICUG_clean_linker_0, # of connection points: 2
#     Edge 56, Type (0, 0), BuildingBlock: OJICUG_clean_linker_0, # of connection points: 2
#     Edge 57, Type (0, 0), BuildingBlock: OJICUG_clean_linker_0, # of connection points: 2
#     Edge 58, Type (0, 0), BuildingBlock: OJICUG_clean_linker_0, # of connection points: 2
#     Edge 59, Type (0, 0), BuildingBlock: OJICUG_clean_linker_0, # of connection points: 2
#     Edge 60, Type (0, 0), BuildingBlock: OJICUG_clean_linker_0, # of connection points: 2
#     Edge 61, Type (0, 0), BuildingBlock: OJICUG_clean_linker_0, # of connection points: 2
#     Edge 62, Type (0, 0), BuildingBlock: OJICUG_clean_linker_0, # of connection points: 2
#     Edge 63, Type (0, 0), BuildingBlock: OJICUG_clean_linker_0, # of connection points: 2
# Relax obj value: 0.508
# Max RMSD: 0.179
# Mean RMSD: 0.179
data_MOF--net-why--node1-UKALOJ_clean_sbu_0--edge1-OJICUG_clean_linker_0
_symmetry_space_group_name_H-M    P1
_symmetry_Int_Tables_number       1
_symmetry_cell_setting            triclinic
loop_
_symmetry_equiv_pos_as_xyz
'x, y, z'
_cell_length_a     40.141893
_cell_length_b     40.154269
_cell_length_c     18.444687
_cell_angle_alpha  89.993956
_cell_angle_beta   89.999832
_cell_angle_gamma 89.990925
loop_
_atom_site_label
_atom_site_type_symbol
_atom_site_fract_x
_atom_site_fract_y
_atom_site_fract_z
_atom_type_partial_charge
Zn0 Zn 0.33101 0.19373 0.05224 0.0
O1 O 0.32927 0.14506 0.09934 0.0
C2 C 0.30261 0.2294 0.18663 0.0
Zn3 Zn 0.36857 0.20693 0.13273 0.0
C4 C 0.34564 0.13895 0.15648 0.0
O5 O 0.36077 0.1626 0.18714 0.0
C6 C 0.36165 0.26017 1.01992 0.0
O7 O 0.40485 0.18092 0.06547 0.0
O8 O 0.3675 0.17372 0.98002 0.0
N9 N 0.40102 0.21638 0.21204 0.0
C10 C 0.43417 0.2191 0.21434 0.0
C11 C 0.41654 0.22101 0.32372 0.0
N12 N 0.39005 0.2174 0.27988 0.0
N13 N 0.44441 0.22133 0.28367 0.0
C14 C 0.26441 0.1646 1.00203 0.0
C15 C 0.26865 0.16295 0.88689 0.0
N16 N 0.29362 0.17909 0.98433 0.0
N17 N 0.29629 0.17798 0.91278 0.0
N18 N 0.24829 0.15435 0.94193 0.0
H19 H 0.23842 0.1346 0.08139 0.0
H20 H 0.23554 0.17892 0.0945 0.0
H21 H 0.27276 0.15748 0.11805 0.0
C22 C 0.25241 0.15838 0.07818 0.0
C23 C 0.45614 0.22135 0.14879 0.0
H24 H 0.44193 0.23074 0.10147 0.0
H25 H 0.46598 0.19621 0.13596 0.0
H26 H 0.47756 0.23812 0.15915 0.0
O27 O 0.37834 0.25219 0.07611 0.0
O28 O 0.33761 0.24146 0.99946 0.0
C29 C 0.39722 0.16998 1.00265 0.0
O30 O 0.29358 0.21475 0.12854 0.0
O31 O 0.33343 0.23136 0.19955 0.0
Zn32 Zn 0.55151 0.61767 0.38253 0.0
O33 O 0.57544 0.65498 0.31472 0.0
C34 C 0.49865 0.60854 0.26874 0.0
Zn35 Zn 0.56565 0.57978 0.30292 0.0
C36 C 0.58775 0.64696 0.25324 0.0
O37 O 0.58574 0.61681 0.23215 0.0
C38 C 0.53066 0.55101 0.43688 0.0
O39 O 0.61371 0.57866 0.35259 0.0
O40 O 0.59641 0.61245 0.43642 0.0
N41 N 0.58114 0.54243 0.23547 0.0
C42 C 0.59973 0.51548 0.25227 0.0
C43 C 0.59077 0.51405 0.13836 0.0
N44 N 0.57562 0.54156 0.16467 0.0
N45 N 0.60614 0.49747 0.19234 0.0
C46 C 0.51971 0.67618 0.46438 0.0
C47 C 0.5362 0.66593 0.57237 0.0
N48 N 0.53946 0.64943 0.46124 0.0
N49 N 0.54955 0.64291 0.52824 0.0
N50 N 0.51677 0.68648 0.5336 0.0
H51 H 0.51916 0.6867 0.34959 0.0
H52 H 0.50552 0.72065 0.40659 0.0
H53 H 0.47885 0.68528 0.39276 0.0
C54 C 0.50514 0.69323 0.39937 0.0
C55 C 0.61508 0.50886 0.32539 0.0
H56 H 0.64011 0.52056 0.32695 0.0
H57 H 0.61879 0.48205 0.33599 0.0
H58 H 0.59994 0.51915 0.36995 0.0
O59 O 0.54461 0.542 0.37794 0.0
O60 O 0.52912 0.5818 0.45041 0.0
C61 C 0.61992 0.59627 0.40785 0.0
O62 O 0.50575 0.62474 0.326 0.0
O63 O 0.51834 0.5855 0.2475 0.0
Zn64 Zn 0.14212 0.80151 0.63259 0.0
O65 O 0.10586 0.82732 0.56509 0.0
C66 C 0.14899 0.74827 0.51985 0.0
Zn67 Zn 0.17967 0.81462 0.55193 0.0
C68 C 0.11342 0.83815 0.50215 0.0
O69 O 0.14316 0.83455 0.47954 0.0
C70 C 0.20807 0.77904 0.68657 0.0
O71 O 0.1814 0.86327 0.59913 0.0
O72 O 0.14977 0.84588 0.6869 0.0
N73 N 0.21714 0.82933 0.48415 0.0
C74 C 0.24629 0.84393 0.502 0.0
C75 C 0.24211 0.84571 0.38687 0.0
N76 N 0.21451 0.83052 0.4126 0.0
N77 N 0.2624 0.85434 0.44199 0.0
C78 C 0.07637 0.78907 0.71333 0.0
C79 C 0.09376 0.78697 0.82288 0.0
N80 N 0.10953 0.79192 0.71146 0.0
N81 N 0.12035 0.79077 0.7794 0.0
N82 N 0.066 0.7866 0.78249 0.0
H83 H 0.06876 0.77742 0.60044 0.0
H84 H 0.045 0.81224 0.6345 0.0
H85 H 0.0329 0.77047 0.65774 0.0
C86 C 0.05454 0.787 0.64756 0.0
C87 C 0.2582 0.85011 0.57823 0.0
H88 H 0.27199 0.874 0.58165 0.0
H89 H 0.27523 0.82969 0.59443 0.0
H90 H 0.23785 0.85078 0.61808 0.0
O91 O 0.21709 0.79357 0.62831 0.0
O92 O 0.17725 0.7772 0.69966 0.0
C93 C 0.16504 0.86946 0.65624 0.0
O94 O 0.13244 0.75629 0.57619 0.0
O95 O 0.17304 0.76691 0.49911 0.0
Zn96 Zn 0.95833 0.39092 0.88346 0.0
O97 O 0.93231 0.35476 0.81602 0.0
C98 C 0.01158 0.39783 0.77055 0.0
Zn99 Zn 0.9452 0.42858 0.80309 0.0
C100 C 0.92136 0.36247 0.75326 0.0
O101 O 0.92507 0.3922 0.73078 0.0
C102 C 0.98099 0.45677 0.9375 0.0
O103 O 0.89654 0.43045 0.85038 0.0
O104 O 0.91395 0.39869 0.93789 0.0
N105 N 0.93059 0.46607 0.73538 0.0
C106 C 0.91614 0.49529 0.75326 0.0
C107 C 0.91431 0.49112 0.63813 0.0
N108 N 0.92936 0.46345 0.66384 0.0
N109 N 0.90581 0.51145 0.69327 0.0
C110 C 0.97037 0.32524 0.96481 0.0
C111 C 0.97233 0.34277 0.07426 0.0
N112 N 0.96776 0.35839 0.96263 0.0
N113 N 0.96881 0.3693 1.03051 0.0
N114 N 0.97256 0.31494 1.0341 0.0
H115 H 0.98203 0.31753 0.85194 0.0
H116 H 0.94736 0.29361 0.88625 0.0
H117 H 0.98923 0.28181 0.9095 0.0
C118 C 0.97255 0.30332 0.89919 0.0
C119 C 0.91004 0.50724 0.82949 0.0
H120 H 0.90919 0.48688 0.86931 0.0
H121 H 0.88626 0.52123 0.83291 0.0
H122 H 0.9306 0.52409 0.84571 0.0
O123 O 0.9664 0.46587 0.87939 0.0
O124 O 0.9828 0.42595 0.95046 0.0
C125 C 0.89036 0.41401 0.90738 0.0
O126 O 1.00361 0.38115 0.82677 0.0
O127 O 0.99288 0.42189 0.75015 0.0
Zn128 Zn 0.64171 0.80036 0.95859 0.0
O129 O 0.60459 0.82424 1.02667 0.0
C130 C 0.6507 0.74754 0.0724 0.0
Zn131 Zn 0.67965 0.81437 1.03826 0.0
C132 C 0.6126 0.83647 0.0882 0.0
O133 O 0.64277 0.83451 0.10927 0.0
C134 C 0.70819 0.77932 0.90398 0.0
O135 O 0.68082 0.86242 0.98856 0.0
O136 O 0.64695 0.84523 0.90476 0.0
N137 N 0.71721 0.82983 0.10537 0.0
C138 C 0.74417 0.84835 0.08821 0.0
C139 C 0.74558 0.83992 0.20232 0.0
N140 N 0.71809 0.82462 0.17629 0.0
N141 N 0.76218 0.85504 0.14803 0.0
C142 C 0.58278 0.76883 0.87769 0.0
C143 C 0.59253 0.7856 0.7697 0.0
N144 N 0.6096 0.78848 0.88045 0.0
N145 N 0.61581 0.79877 0.81344 0.0
N146 N 0.57209 0.76616 0.80873 0.0
H147 H 0.5725 0.76811 0.99256 0.0
H148 H 0.53862 0.75397 0.93591 0.0
H149 H 0.57445 0.72785 0.94939 0.0
C150 C 0.56607 0.75401 0.94286 0.0
C151 C 0.75073 0.86347 1.01483 0.0
H152 H 0.73939 0.88866 1.01326 0.0
H153 H 0.77755 0.86673 1.00371 0.0
H154 H 0.74007 0.84842 0.97057 0.0
O155 O 0.71725 0.79317 0.963 0.0
O156 O 0.67738 0.77793 0.89038 0.0
C157 C 0.66321 0.86867 0.93332 0.0
O158 O 0.6346 0.75467 1.01501 0.0
O159 O 0.67381 0.76712 0.09376 0.0
Zn160 Zn 0.45847 0.39089 0.70799 0.0
O161 O 0.43272 0.35471 0.77575 0.0
C162 C 0.51149 0.39827 0.82105 0.0
Zn163 Zn 0.44501 0.42851 0.78832 0.0
C164 C 0.42177 0.36234 0.83858 0.0
O165 O 0.42517 0.39214 0.86099 0.0
C166 C 0.48062 0.45686 0.65387 0.0
O167 O 0.39659 0.42965 0.74036 0.0
O168 O 0.41422 0.39805 0.65289 0.0
N169 N 0.43033 0.46636 0.85545 0.0
C170 C 0.41172 0.49329 0.83853 0.0
C171 C 0.4209 0.49498 0.95234 0.0
N172 N 0.43601 0.46741 0.92618 0.0
N173 N 0.40544 0.51146 0.89833 0.0
C174 C 0.4713 0.32511 0.62759 0.0
C175 C 0.47408 0.34256 0.51815 0.0
N176 N 0.46854 0.35826 0.62948 0.0
N177 N 0.47012 0.36911 0.5616 0.0
N178 N 0.47414 0.31478 0.55846 0.0
H179 H 0.48247 0.31735 0.74063 0.0
H180 H 0.44751 0.29399 0.706 0.0
H181 H 0.48924 0.28143 0.68345 0.0
C182 C 0.47291 0.30324 0.69335 0.0
C183 C 0.39609 0.49967 0.76558 0.0
H184 H 0.37077 0.4886 0.76519 0.0
H185 H 0.39305 0.52647 0.75402 0.0
H186 H 0.4107 0.48868 0.72098 0.0
O187 O 0.46588 0.46591 0.71187 0.0
O188 O 0.48269 0.42604 0.64106 0.0
C189 C 0.39052 0.41318 0.68339 0.0
O190 O 0.5036 0.38159 0.76485 0.0
O191 O 0.49271 0.42225 0.84153 0.0
Zn192 Zn 0.86882 0.2083 0.45814 0.0
O193 O 0.90606 0.18419 0.52591 0.0
C194 C 0.85987 0.26113 0.57192 0.0
Zn195 Zn 0.83092 0.19423 0.53773 0.0
C196 C 0.89801 0.17186 0.58736 0.0
O197 O 0.86787 0.17399 0.60851 0.0
C198 C 0.80226 0.2294 0.40379 0.0
O199 O 0.82966 0.14612 0.48819 0.0
O200 O 0.86339 0.16349 0.40429 0.0
N201 N 0.79353 0.17888 0.60515 0.0
C202 C 0.76644 0.16052 0.58823 0.0
C203 C 0.76528 0.16898 0.70234 0.0
N204 N 0.79282 0.1841 0.67607 0.0
N205 N 0.74851 0.15395 0.64818 0.0
C206 C 0.9275 0.23975 0.37617 0.0
C207 C 0.91724 0.22313 0.26829 0.0
N208 N 0.90066 0.22014 0.3794 0.0
N209 N 0.89413 0.20996 0.31247 0.0
N210 N 0.93787 0.2425 0.30696 0.0
H211 H 0.93804 0.2404 0.49093 0.0
H212 H 0.97199 0.25398 0.43385 0.0
H213 H 0.9366 0.28066 0.44759 0.0
C214 C 0.94457 0.25436 0.4411 0.0
C215 C 0.7596 0.14548 0.5149 0.0
H216 H 0.77049 0.1603 0.47053 0.0
H217 H 0.77051 0.1201 0.51339 0.0
H218 H 0.73271 0.14272 0.50392 0.0
O219 O 0.79321 0.21545 0.46269 0.0
O220 O 0.83307 0.23087 0.39027 0.0
C221 C 0.84728 0.13996 0.43289 0.0
O222 O 0.87609 0.254 0.51467 0.0
O223 O 0.83677 0.2415 0.5931 0.0
Zn224 Zn 0.05137 0.61758 0.20947 0.0
O225 O 0.07506 0.65481 0.27765 0.0
C226 C 0.99857 0.60837 0.32316 0.0
Zn227 Zn 0.06559 0.57976 0.28922 0.0
C228 C 0.08727 0.64689 0.33928 0.0
O229 O 0.08544 0.61674 0.36041 0.0
C230 C 0.03082 0.55098 0.15469 0.0
O231 O 0.11372 0.57896 0.23969 0.0
O232 O 0.09625 0.6126 0.15569 0.0
N233 N 0.08122 0.54227 0.35636 0.0
C234 C 0.09995 0.51544 0.33927 0.0
C235 C 0.09101 0.5137 0.45316 0.0
N236 N 0.0757 0.54119 0.42715 0.0
N237 N 0.10645 0.49731 0.39901 0.0
C238 C 0.01961 0.67643 0.12873 0.0
C239 C 0.03624 0.66667 1.02063 0.0
N240 N 0.03929 0.64961 0.13137 0.0
N241 N 0.04948 0.6434 0.0643 0.0
N242 N 0.01684 0.6871 0.05977 0.0
H243 H 0.01898 0.68663 0.24364 0.0
H244 H 0.00493 0.72059 0.1871 0.0
H245 H 0.97868 0.68486 0.20053 0.0
C246 C 0.00488 0.69315 0.19397 0.0
C247 C 0.11537 0.50911 0.2661 0.0
H248 H 0.14034 0.52093 0.26476 0.0
H249 H 0.11919 0.48236 0.25511 0.0
H250 H 0.10019 0.51947 0.22165 0.0
O251 O 0.04472 0.542 0.21374 0.0
O252 O 0.02917 0.58178 0.1412 0.0
C253 C 0.11984 0.59661 0.18442 0.0
O254 O 0.00566 0.62446 0.26577 0.0
O255 O 0.01823 0.58533 0.34458 0.0
Zn256 Zn 0.83103 0.69403 0.55335 0.0
O257 O 0.83 0.64601 0.60333 0.0
C258 C 0.80233 0.72919 0.68713 0.0
Zn259 Zn 0.86897 0.70835 0.63271 0.0
C260 C 0.84771 0.63998 0.65857 0.0
O261 O 0.86381 0.66359 0.68687 0.0
C262 C 0.85968 0.76105 0.51875 0.0
O263 O 0.90625 0.68432 0.56492 0.0
O264 O 0.868 0.67385 0.4826 0.0
N265 N 0.90081 0.7205 0.71124 0.0
C266 C 0.92751 0.74031 0.71423 0.0
C267 C 0.91737 0.72389 0.82231 0.0
N268 N 0.89436 0.71044 0.7783 0.0
N269 N 0.93786 0.74332 0.78341 0.0
C270 C 0.76667 0.65989 0.50308 0.0
C271 C 0.76515 0.66874 0.38913 0.0
N272 N 0.79361 0.67845 0.48611 0.0
N273 N 0.79268 0.68392 0.41529 0.0
N274 N 0.7486 0.65343 0.44323 0.0
H275 H 0.77186 0.61959 0.57791 0.0
H276 H 0.73332 0.64089 0.58699 0.0
H277 H 0.77044 0.65979 0.62073 0.0
C278 C 0.76012 0.6446 0.57628 0.0
C279 C 0.94447 0.75488 0.64911 0.0
H280 H 0.93802 0.74075 0.59945 0.0
H281 H 0.9719 0.75469 0.65633 0.0
H282 H 0.93634 0.78111 0.6423 0.0
O283 O 0.87596 0.75401 0.57596 0.0
O284 O 0.83666 0.74129 0.49764 0.0
C285 C 0.89818 0.67187 0.50361 0.0
O286 O 0.79329 0.71514 0.62834 0.0
O287 O 0.83314 0.7308 0.70054 0.0
Zn288 Zn 0.05125 0.11767 0.88162 0.0
O289 O 0.07514 0.15486 0.81354 0.0
C290 C 0.9985 0.10858 0.76789 0.0
Zn291 Zn 0.06548 0.0798 0.80201 0.0
C292 C 0.08737 0.14689 0.75197 0.0
O293 O 0.08545 0.11674 0.73088 0.0
C294 C 0.0305 0.05112 0.93638 0.0
O295 O 0.1136 0.07887 0.85163 0.0
O296 O 0.09606 0.11249 0.93555 0.0
N297 N 0.08106 0.04234 0.73478 0.0
C298 C 0.09979 0.01549 0.75173 0.0
C299 C 0.09106 0.01401 0.63774 0.0
N300 N 0.07567 0.04142 0.66393 0.0
N301 N 0.10642 0.99751 0.69184 0.0
C302 C 0.01959 0.17655 0.96251 0.0
C303 C 0.03629 0.16675 0.07055 0.0
N304 N 0.03927 0.14973 0.95978 0.0
N305 N 0.0495 0.1435 1.02681 0.0
N306 N 0.01687 0.1872 1.03149 0.0
H307 H 0.01895 0.18685 0.84765 0.0
H308 H 0.00477 0.22071 0.90431 0.0
H309 H 0.97865 0.1849 0.89071 0.0
C310 C 0.00481 0.19328 0.89733 0.0
C311 C 0.11511 0.00903 0.82495 0.0
H312 H 0.14014 0.02072 0.82643 0.0
H313 H 0.11878 0.98226 0.8359 0.0
H314 H 0.09993 0.01943 0.86935 0.0
O315 O 0.0445 0.0421 0.87748 0.0
O316 O 0.02885 0.08192 0.94977 0.0
C317 C 0.11967 0.09647 0.90697 0.0
O318 O 0.00561 0.12471 0.82521 0.0
O319 O 0.01814 0.08548 0.74659 0.0
Zn320 Zn 0.64173 0.30042 0.13168 0.0
O321 O 0.60467 0.32429 0.06344 0.0
C322 C 0.65078 0.24759 1.01792 0.0
Zn323 Zn 0.67972 0.31445 0.05207 0.0
C324 C 0.61271 0.33653 1.00193 0.0
O325 O 0.64288 0.33458 0.9809 0.0
C326 C 0.70819 0.27945 0.18658 0.0
O327 O 0.68083 0.36252 0.10174 0.0
O328 O 0.64693 0.3453 0.18547 0.0
N329 N 0.71735 0.32994 0.98502 0.0
C330 C 0.74427 0.34853 1.00219 0.0
C331 C 0.74576 0.34004 0.88813 0.0
N332 N 0.71828 0.3247 0.91413 0.0
N333 N 0.7623 0.35523 0.9424 0.0
C334 C 0.58273 0.26889 0.21237 0.0
C335 C 0.59234 0.28573 0.32037 0.0
N336 N 0.60954 0.28857 0.2097 0.0
N337 N 0.61565 0.2989 0.27671 0.0
N338 N 0.57197 0.26626 0.28129 0.0
H339 H 0.57252 0.26814 0.09749 0.0
H340 H 0.53866 0.25385 0.15405 0.0
H341 H 0.57461 0.22788 0.14066 0.0
C342 C 0.56611 0.254 0.14718 0.0
C343 C 0.75073 0.3637 0.07555 0.0
H344 H 0.73926 0.38883 0.07708 0.0
H345 H 0.77753 0.36711 0.08671 0.0
H346 H 0.74014 0.34858 0.11981 0.0
O347 O 0.71728 0.29329 0.12755 0.0
O348 O 0.67737 0.27801 0.20007 0.0
C349 C 0.66317 0.36875 0.15693 0.0
O350 O 0.63467 0.25473 0.07528 0.0
O351 O 0.6739 0.26717 0.99658 0.0
Zn352 Zn 0.45845 0.8909 0.38232 0.0
O353 O 0.43258 0.85471 0.31472 0.0
C354 C 0.51138 0.89818 0.26908 0.0
Zn355 Zn 0.44494 0.92853 0.30203 0.0
C356 C 0.42158 0.86235 0.25195 0.0
O357 O 0.42498 0.89214 0.22952 0.0
C358 C 0.48071 0.95687 0.43629 0.0
O359 O 0.39657 0.9298 0.35022 0.0
O360 O 0.41427 0.89816 0.43757 0.0
N361 N 0.43026 0.96633 0.23477 0.0
C362 C 0.41169 0.99329 0.25157 0.0
C363 C 0.42069 0.99477 0.13768 0.0
N364 N 0.43584 0.96725 0.16399 0.0
N365 N 0.40531 0.01135 0.19166 0.0
C366 C 0.47128 0.82513 0.46279 0.0
C367 C 0.47413 0.84261 0.5722 0.0
N368 N 0.46853 0.85828 0.46086 0.0
N369 N 0.47015 0.86915 0.52872 0.0
N370 N 0.47416 0.81481 0.53193 0.0
H371 H 0.48237 0.81735 0.34972 0.0
H372 H 0.44744 0.79398 0.38452 0.0
H373 H 0.48919 0.78145 0.40694 0.0
C374 C 0.47284 0.80324 0.39706 0.0
C375 C 0.39616 0.99979 0.32458 0.0
H376 H 0.3708 0.98881 0.32516 0.0
H377 H 0.39323 0.02661 0.33605 0.0
H378 H 0.41078 0.98879 0.36915 0.0
O379 O 0.46593 0.96593 0.37834 0.0
O380 O 0.48278 0.92605 0.44909 0.0
C381 C 0.39055 0.91335 0.40727 0.0
O382 O 0.50352 0.88152 0.32533 0.0
O383 O 0.4926 0.92217 0.24864 0.0
Zn384 Zn 0.1422 0.30113 0.45805 0.0
O385 O 0.10596 0.32676 0.52591 0.0
C386 C 0.14943 0.24798 0.57106 0.0
Zn387 Zn 0.17984 0.3144 0.53853 0.0
C388 C 0.11362 0.33768 0.58874 0.0
O389 O 0.14343 0.33429 0.61108 0.0
C390 C 0.20828 0.279 0.40396 0.0
O391 O 0.18119 0.36282 0.49065 0.0
O392 O 0.14936 0.34549 0.40326 0.0
N393 N 0.21767 0.32895 0.60582 0.0
C394 C 0.24468 0.34744 0.58899 0.0
C395 C 0.24622 0.33832 0.70284 0.0
N396 N 0.21862 0.3233 0.67657 0.0
N397 N 0.26281 0.35368 0.64886 0.0
C398 C 0.07647 0.28814 0.37746 0.0
C399 C 0.09397 0.28553 0.26803 0.0
N400 N 0.10961 0.29112 0.37941 0.0
N401 N 0.12049 0.28965 0.31153 0.0
N402 N 0.06617 0.28526 0.30832 0.0
H403 H 0.06874 0.2769 0.49048 0.0
H404 H 0.04519 0.31174 0.45585 0.0
H405 H 0.03286 0.26997 0.43322 0.0
C406 C 0.05458 0.2864 0.44318 0.0
C407 C 0.25121 0.36301 0.51604 0.0
H408 H 0.24039 0.38844 0.51567 0.0
H409 H 0.27806 0.36577 0.5045 0.0
H410 H 0.24009 0.34855 0.4714 0.0
O411 O 0.2173 0.29351 0.46223 0.0
O412 O 0.17746 0.27704 0.39096 0.0
C413 C 0.1647 0.36905 0.43375 0.0
O414 O 0.13287 0.2559 0.51469 0.0
O415 O 0.17342 0.26671 0.5917 0.0
Zn416 Zn 0.95808 0.8911 0.20762 0.0
O417 O 0.93201 0.85498 0.27515 0.0
C418 C 0.01115 0.89826 0.3209 0.0
Zn419 Zn 0.94469 0.92875 0.28787 0.0
C420 C 0.92092 0.86269 0.33781 0.0
O421 O 0.92452 0.89245 0.36029 0.0
C422 C 0.98054 0.95701 0.15364 0.0
O423 O 0.89631 0.93025 0.23982 0.0
O424 O 0.91386 0.89856 0.15244 0.0
N425 N 0.9302 0.96658 0.35513 0.0
C426 C 0.91176 0.99364 0.33832 0.0
C427 C 0.92089 0.99513 0.45217 0.0
N428 N 0.93585 0.9675 0.42588 0.0
N429 N 0.90556 0.01175 0.3982 0.0
C430 C 0.9704 0.82535 0.12677 0.0
C431 C 0.97286 0.84283 1.01732 0.0
N432 N 0.96786 0.85851 0.12881 0.0
N433 N 0.96923 0.86938 0.06092 0.0
N434 N 0.97285 0.81502 0.05755 0.0
H435 H 0.98172 0.81765 0.23979 0.0
H436 H 0.94697 0.79395 0.20518 0.0
H437 H 0.98881 0.78183 0.1825 0.0
C438 C 0.97226 0.80347 0.1925 0.0
C439 C 0.89624 1.00023 0.26536 0.0
H440 H 0.87083 0.98935 0.2648 0.0
H441 H 0.8934 0.02708 0.25399 0.0
H442 H 0.91079 0.98921 0.22072 0.0
O443 O 0.96579 0.96609 0.21159 0.0
O444 O 0.98254 0.92618 0.14082 0.0
C445 C 0.89021 0.91383 0.1828 0.0
O446 O 1.00325 0.88153 0.26473 0.0
O447 O 0.99236 0.92226 0.34121 0.0
Zn448 Zn 0.33095 0.69368 1.03795 0.0
O449 O 0.32952 0.64524 0.99022 0.0
C450 C 0.30245 0.72929 0.90368 0.0
Zn451 Zn 0.36852 0.70706 0.95751 0.0
C452 C 0.34591 0.63913 0.93315 0.0
O453 O 0.36106 0.6628 0.9026 0.0
C454 C 0.3614 0.76019 0.07059 0.0
O455 O 0.40478 0.68108 1.025 0.0
O456 O 0.36736 0.67367 0.11031 0.0
N457 N 0.40098 0.7168 0.87839 0.0
C458 C 0.43414 0.71938 0.87605 0.0
C459 C 0.41645 0.72175 0.76675 0.0
N460 N 0.38998 0.7181 0.81059 0.0
N461 N 0.44435 0.72181 0.80672 0.0
C462 C 0.26617 0.6608 0.08905 0.0
C463 C 0.26472 0.67029 0.20276 0.0
N464 N 0.29324 0.67927 0.10552 0.0
N465 N 0.29234 0.68514 0.17619 0.0
N466 N 0.24807 0.6548 0.14905 0.0
H467 H 0.27052 0.61973 1.01596 0.0
H468 H 0.23266 0.64211 1.00519 0.0
H469 H 0.27043 0.65957 0.97143 0.0
C470 C 0.25952 0.64509 1.01631 0.0
C471 C 0.45614 0.72131 0.94157 0.0
H472 H 0.44202 0.73074 0.98898 0.0
H473 H 0.46577 0.69606 0.95419 0.0
H474 H 0.47771 0.73792 0.93135 0.0
O475 O 0.3781 0.75228 1.01437 0.0
O476 O 0.33741 0.74141 0.09099 0.0
C477 C 0.39712 0.67006 0.08776 0.0
O478 O 0.29345 0.71459 0.96174 0.0
O479 O 0.33327 0.73138 0.89079 0.0
Zn480 Zn 0.5515 0.11763 0.70792 0.0
O481 O 0.57541 0.15497 0.77576 0.0
C482 C 0.49868 0.1084 0.82168 0.0
Zn483 Zn 0.56573 0.07976 0.78746 0.0
C484 C 0.58775 0.14696 0.83722 0.0
O485 O 0.58577 0.1168 0.85831 0.0
C486 C 0.53075 0.05096 0.65344 0.0
O487 O 0.61379 0.07874 0.73784 0.0
O488 O 0.59637 0.11249 0.65402 0.0
N489 N 0.58127 0.0424 0.85486 0.0
C490 C 0.59989 0.01548 0.83802 0.0
C491 C 0.59087 0.01395 0.9519 0.0
N492 N 0.5757 0.04146 0.92564 0.0
N493 N 0.60628 0.99742 0.8979 0.0
C494 C 0.51963 0.17612 0.62609 0.0
C495 C 0.5361 0.16588 0.51809 0.0
N496 N 0.5394 0.14939 0.62923 0.0
N497 N 0.54948 0.14287 0.56222 0.0
N498 N 0.51667 0.18643 0.55687 0.0
H499 H 0.51909 0.18663 0.74088 0.0
H500 H 0.50544 0.22058 0.68389 0.0
H501 H 0.47877 0.18521 0.69773 0.0
C502 C 0.50507 0.19317 0.69111 0.0
C503 C 0.61529 0.00893 0.76491 0.0
H504 H 0.64028 0.02069 0.76342 0.0
H505 H 0.61907 0.98214 0.75427 0.0
H506 H 0.60013 0.0192 0.72035 0.0
O507 O 0.54475 0.04195 0.71234 0.0
O508 O 0.52913 0.08176 0.64002 0.0
C509 C 0.61994 0.0964 0.68262 0.0
O510 O 0.50576 0.12464 0.76445 0.0
O511 O 0.5184 0.08537 0.84289 0.0
C512 C 0.48409 0.26025 0.33437 0.0
C513 C 0.47707 0.22835 0.30821 0.0
H514 H 0.52155 0.29778 0.3453 0.0
C515 C 0.5029 0.20652 0.29 0.0
H516 H 0.4641 0.27719 0.34828 0.0
C517 C 0.53547 0.21808 0.28887 0.0
C518 C 0.54194 0.25144 0.30553 0.0
H519 H 0.49742 0.18182 0.2697 0.0
H520 H 0.55509 0.20216 0.26827 0.0
C521 C 0.51663 0.27192 0.33254 0.0
C522 C 0.52332 0.74177 0.58421 0.0
C523 C 0.50236 0.71667 0.55802 0.0
H524 H 0.53 0.79437 0.59553 0.0
C525 C 0.4692 0.72374 0.54046 0.0
H526 H 0.549 0.73638 0.59784 0.0
C527 C 0.45842 0.75657 0.53947 0.0
C528 C 0.48084 0.78207 0.55629 0.0
H529 H 0.45292 0.70429 0.52048 0.0
H530 H 0.43383 0.76238 0.51889 0.0
C531 C 0.51258 0.77462 0.58283 0.0
C532 C 0.00765 0.80206 0.78934 0.0
C533 C 0.03325 0.77985 0.8068 0.0
H534 H 0.95538 0.80721 0.76956 0.0
C535 C 0.02592 0.74813 0.83356 0.0
H536 H 0.01338 0.82663 0.76853 0.0
C537 C 0.99312 0.7372 0.83458 0.0
C538 C 0.96797 0.75794 0.8078 0.0
H539 H 0.04576 0.73086 0.84668 0.0
H540 H 0.98786 0.71152 0.84843 0.0
C541 C 0.97488 0.79109 0.78997 0.0
C542 C 0.95745 0.25654 1.04011 0.0
C543 C 0.97939 0.28223 0.05855 0.0
H544 H 0.95285 0.20441 1.01815 0.0
C545 C 0.01122 0.27501 0.08493 0.0
H546 H 0.93279 0.26217 1.01967 0.0
C547 C 0.02273 0.24242 0.08306 0.0
C548 C 1.00216 0.21726 0.0558 0.0
H549 H 0.02826 0.2949 0.09903 0.0
H550 H 0.04856 0.23736 0.09596 0.0
C551 C 0.96884 0.22392 1.03895 0.0
C552 C 0.5354 0.71815 0.80109 0.0
C553 C 0.542 0.75149 0.78446 0.0
H554 H 0.49721 0.68205 0.8204 0.0
C555 C 0.51677 0.7721 0.75764 0.0
H556 H 0.55497 0.70214 0.82157 0.0
C557 C 0.48417 0.76059 0.75598 0.0
C558 C 0.47703 0.72871 0.78214 0.0
H559 H 0.5218 0.79795 0.74493 0.0
H560 H 0.46424 0.77764 0.74221 0.0
C561 C 0.50278 0.70675 0.80014 0.0
C562 C 0.5125 0.27455 0.50747 0.0
C563 C 0.48078 0.28202 0.53411 0.0
H564 H 0.54889 0.23629 0.4924 0.0
C565 C 0.45836 0.25654 0.55106 0.0
H566 H 0.52991 0.2943 0.49466 0.0
C567 C 0.46912 0.22371 0.5501 0.0
C568 C 0.50226 0.21662 0.53244 0.0
H569 H 0.43379 0.26238 0.57172 0.0
H570 H 0.45284 0.20428 0.57017 0.0
C571 C 0.52321 0.24169 0.5061 0.0
C572 C 0.99323 0.23582 0.25672 0.0
C573 C 0.96808 0.25684 0.28246 0.0
H574 H 0.04587 0.22917 0.24562 0.0
C575 C 0.97509 0.29005 0.2995 0.0
H576 H 0.98788 0.21009 0.24354 0.0
C577 C 0.00791 0.30088 0.30038 0.0
C578 C 0.03346 0.27844 0.28395 0.0
H579 H 0.9556 0.30637 0.31916 0.0
H580 H 0.01367 0.32553 0.32058 0.0
C581 C 0.02608 0.2466 0.25798 0.0
C582 C 0.96893 0.72397 0.05252 0.0
C583 C 1.00222 0.71724 1.03562 0.0
H584 H 0.93297 0.7623 0.07195 0.0
C585 C 0.02288 0.74238 1.00856 0.0
H586 H 0.95288 0.70448 0.07318 0.0
C587 C 0.01147 0.77501 1.00691 0.0
C588 C 0.97965 0.78228 1.03326 0.0
H589 H 0.04869 0.73725 0.99565 0.0
H590 H 0.02857 0.79486 0.99292 0.0
C591 C 0.95763 0.75663 0.05155 0.0
C592 C 0.15916 0.1323 0.97473 0.0
C593 C 0.15416 0.10612 0.92532 0.0
H594 H 0.19199 0.16981 1.01391 0.0
C595 C 0.18129 0.09493 0.88358 0.0
H596 H 0.13878 0.14208 1.00684 0.0
C597 C 0.21239 0.11056 0.88943 0.0
C598 C 0.21674 0.13758 0.93682 0.0
H599 H 0.17813 0.0752 0.84413 0.0
H600 H 0.2329 0.10195 0.85623 0.0
C601 C 0.1898 0.14826 0.97914 0.0
C602 C 0.62818 0.40863 0.22584 0.0
C603 C 0.65387 0.40333 0.17528 0.0
H604 H 0.59143 0.44222 0.26675 0.0
C605 C 0.66484 0.43027 0.13263 0.0
H606 H 0.61863 0.38843 0.25877 0.0
C607 C 0.64943 0.46147 0.13866 0.0
C608 C 0.62297 0.46607 0.18732 0.0
H609 H 0.68414 0.42687 0.09228 0.0
H610 H 0.65767 0.48184 0.10464 0.0
C611 C 0.61249 0.43941 0.23055 0.0
C612 C 0.32894 0.91432 0.3836 0.0
C613 C 0.35612 0.90349 0.42565 0.0
H614 H 0.27744 0.90675 0.35596 0.0
C615 C 0.35129 0.87735 0.4753 0.0
H616 H 0.33197 0.93399 0.34397 0.0
C617 C 0.3208 0.86109 0.47962 0.0
C618 C 0.2938 0.87142 0.43703 0.0
H619 H 0.37172 0.8678 0.50758 0.0
H620 H 0.31879 0.83957 0.51453 0.0
C621 C 0.29798 0.8984 0.3894 0.0
C622 C 0.8462 0.57838 0.63526 0.0
C623 C 0.85739 0.60551 0.67698 0.0
H624 H 0.85328 0.5268 0.60782 0.0
C625 C 0.88361 0.60052 0.72634 0.0
H626 H 0.82644 0.58152 0.59586 0.0
C627 C 0.89962 0.5699 0.73069 0.0
C628 C 0.88896 0.54297 0.68834 0.0
H629 H 0.89338 0.6209 0.75843 0.0
H630 H 0.92119 0.56772 0.76542 0.0
C631 C 0.86189 0.54731 0.64103 0.0
C632 C 0.82017 0.86213 0.10967 0.0
C633 C 0.79338 0.87229 0.1529 0.0
H634 H 0.87104 0.86895 0.08121 0.0
C635 C 0.79765 0.89886 0.20139 0.0
H636 H 0.81768 0.84095 0.07374 0.0
C637 C 0.82865 0.91471 0.20725 0.0
C638 C 0.85571 0.90411 0.1645 0.0
H639 H 0.77719 0.90686 0.23545 0.0
H640 H 0.83182 0.93409 0.2475 0.0
C641 C 0.85072 0.87829 0.1141 0.0
C642 C 0.34559 0.57764 0.95827 0.0
C643 C 0.35579 0.60467 0.91498 0.0
H644 H 0.35395 0.52632 0.98686 0.0
C645 C 0.38141 0.59975 0.86406 0.0
H646 H 0.32637 0.58076 0.99891 0.0
C647 C 0.39779 0.56931 0.85961 0.0
C648 C 0.38804 0.54256 0.90338 0.0
H649 H 0.39044 0.62005 0.83072 0.0
H650 H 0.41881 0.56688 0.8232 0.0
C651 C 0.36165 0.54676 0.95242 0.0
C652 C 0.68151 0.09475 0.70651 0.0
C653 C 0.65447 0.10599 0.66447 0.0
H654 H 0.73314 0.10178 0.73427 0.0
C655 C 0.65961 0.13211 0.61491 0.0
H656 H 0.67823 0.0751 0.7461 0.0
C657 C 0.69035 0.1479 0.61056 0.0
C658 C 0.71711 0.13712 0.65312 0.0
H659 H 0.63933 0.14189 0.58253 0.0
H660 H 0.69305 0.16925 0.57514 0.0
C661 C 0.71267 0.11027 0.7008 0.0
C662 C 0.16569 0.43054 0.4587 0.0
C663 C 0.15515 0.40359 0.41555 0.0
H664 H 0.15791 0.48196 0.4872 0.0
C665 C 0.12956 0.40878 0.36467 0.0
H666 H 0.18491 0.42722 0.49929 0.0
C667 C 0.11355 0.4394 0.36013 0.0
C668 C 0.12362 0.46607 0.40381 0.0
H669 H 0.12028 0.38856 0.33143 0.0
H670 H 0.09254 0.44207 0.32375 0.0
C671 C 0.14998 0.4616 0.45279 0.0
C672 C 0.65977 0.63126 0.47685 0.0
C673 C 0.65449 0.6056 0.42624 0.0
H674 H 0.69334 0.66802 0.51781 0.0
C675 C 0.68145 0.59467 0.38358 0.0
H676 H 0.63955 0.64078 0.50978 0.0
C677 C 0.71265 0.6101 0.38963 0.0
C678 C 0.71722 0.63653 0.43832 0.0
H679 H 0.67807 0.57539 0.3432 0.0
H680 H 0.73302 0.6019 0.35556 0.0
C681 C 0.69055 0.64697 0.48159 0.0
C682 C 0.15005 0.96201 0.6377 0.0
C683 C 0.1237 0.96633 0.68679 0.0
H684 H 0.18506 0.92779 0.5909 0.0
C685 C 0.11373 0.93958 0.73029 0.0
H686 H 0.1579 0.98244 0.60341 0.0
C687 C 0.12985 0.90902 0.72559 0.0
C688 C 0.15543 0.90398 0.67461 0.0
H689 H 0.0927 0.9421 0.76666 0.0
H690 H 0.12065 0.88874 0.75875 0.0
C691 C 0.16586 0.931 0.63156 0.0
C692 C 0.79779 0.39896 0.88865 0.0
C693 C 0.79348 0.37253 0.93751 0.0
H694 H 0.83199 0.43408 0.84217 0.0
C695 C 0.82025 0.36251 0.98096 0.0
H696 H 0.77735 0.40685 0.85439 0.0
C697 C 0.8508 0.37867 0.97641 0.0
C698 C 0.85583 0.40434 0.92566 0.0
H699 H 0.81776 0.34141 1.01714 0.0
H700 H 0.87109 0.36943 1.00952 0.0
C701 C 0.82879 0.41481 0.88267 0.0
C702 C 0.36146 0.04656 0.13745 0.0
C703 C 0.38788 0.04243 0.18644 0.0
H704 H 0.32611 0.08051 0.09092 0.0
C705 C 0.39765 0.06924 0.23002 0.0
H706 H 0.35376 0.02609 0.10314 0.0
C707 C 0.38122 0.09964 0.22553 0.0
C708 C 0.35555 0.1045 0.17468 0.0
H709 H 0.41871 0.06687 0.26633 0.0
H710 H 0.39026 0.11996 0.25878 0.0
C711 C 0.34537 0.07743 0.1315 0.0
C712 C 0.29811 0.39751 0.70264 0.0
C713 C 0.29395 0.371 0.65397 0.0
H714 H 0.3321 0.43291 0.74874 0.0
C715 C 0.32074 0.36109 0.61046 0.0
H716 H 0.27764 0.40533 0.73686 0.0
C717 C 0.35118 0.37746 0.61478 0.0
C718 C 0.35607 0.40323 0.66532 0.0
H719 H 0.31831 0.33998 0.57431 0.0
H720 H 0.37151 0.36832 0.58164 0.0
C721 C 0.32901 0.41357 0.70838 0.0
C722 C 0.88263 0.10032 0.36424 0.0
C723 C 0.85688 0.10544 0.41474 0.0
H724 H 0.91979 0.06709 0.3237 0.0
C725 C 0.84621 0.07846 0.45762 0.0
H726 H 0.89197 0.12057 0.33114 0.0
C727 C 0.86197 0.04741 0.45185 0.0
C728 C 0.88849 0.04303 0.40327 0.0
H729 H 0.82686 0.08172 0.49793 0.0
H730 H 0.85392 0.027 0.48599 0.0
C731 C 0.89869 0.06973 0.35984 0.0
C732 C 0.18135 0.59564 0.20911 0.0
C733 C 0.15434 0.60628 0.16625 0.0
H734 H 0.23285 0.60333 0.23724 0.0
C735 C 0.15942 0.63198 0.11563 0.0
H736 H 0.17812 0.57633 0.2495 0.0
C737 C 0.19004 0.64799 0.11101 0.0
C738 C 0.21677 0.63781 0.15439 0.0
H739 H 0.13915 0.64128 0.08254 0.0
H740 H 0.19268 0.66901 0.07469 0.0
C741 C 0.2124 0.61136 0.20315 0.0
C742 C 0.64953 0.96139 0.95162 0.0
C743 C 0.62312 0.96602 0.90287 0.0
H744 H 0.68418 0.92674 0.99809 0.0
C745 C 0.61266 0.93939 0.85953 0.0
H746 H 0.65775 0.98173 0.98573 0.0
C747 C 0.62833 0.9086 0.86425 0.0
C748 C 0.65396 0.90326 0.91493 0.0
H749 H 0.59164 0.94223 0.82325 0.0
H750 H 0.6188 0.88842 0.83126 0.0
C751 C 0.66492 0.93018 0.95766 0.0
C752 C 0.41918 0.15233 0.88063 0.0
C753 C 0.42234 0.15254 0.95662 0.0
H754 H 0.44078 0.13835 0.77854 0.0
C755 C 0.4495 0.13562 0.98789 0.0
H756 H 0.39857 0.16505 0.85473 0.0
C757 C 0.4731 0.11928 0.94417 0.0
C758 C 0.4706 0.12018 0.86805 0.0
H759 H 0.45253 0.13505 0.04624 0.0
H760 H 0.49415 0.10723 0.96993 0.0
C761 C 0.44326 0.13682 0.83693 0.0
C762 C 0.62199 0.69926 0.23857 0.0
C763 C 0.60524 0.67204 0.20726 0.0
H764 H 0.65072 0.7437 0.22068 0.0
C765 C 0.60605 0.66851 0.13138 0.0
H766 H 0.62217 0.70251 0.29687 0.0
C767 C 0.62198 0.69232 0.08774 0.0
C768 C 0.63852 0.71971 0.11888 0.0
H769 H 0.5935 0.64779 0.10551 0.0
H770 H 0.62091 0.68958 1.02935 0.0
C771 C 0.63879 0.72258 0.19496 0.0
C772 C 0.06642 0.86946 0.336 0.0
C773 C 0.0393 0.88648 0.36704 0.0
H774 H 0.11125 0.84146 0.35405 0.0
C775 C 0.03726 0.88824 0.44315 0.0
H776 H 0.06856 0.86734 0.27764 0.0
C777 C 0.06112 0.87237 0.48703 0.0
C778 C 0.0881 0.85514 0.45589 0.0
H779 H 0.01641 0.90064 0.46886 0.0
H780 H 0.05845 0.87359 0.54542 0.0
C781 C 0.09079 0.85447 0.37983 0.0
C782 C 0.88852 0.31642 0.58729 0.0
C783 C 0.8717 0.28917 0.61831 0.0
H784 H 0.91682 0.36103 0.60528 0.0
C785 C 0.87059 0.28673 0.69443 0.0
H786 H 0.8902 0.31885 0.5289 0.0
C787 C 0.88688 0.31032 0.73825 0.0
C788 C 0.90396 0.33739 0.70709 0.0
H789 H 0.8584 0.26575 0.72012 0.0
H790 H 0.88615 0.30733 0.79661 0.0
C791 C 0.90397 0.34048 0.63109 0.0
C792 C 0.56026 0.87055 0.10302 0.0
C793 C 0.58742 0.85367 0.1343 0.0
H794 H 0.51569 0.89906 0.12102 0.0
C795 C 0.59066 0.85392 0.21024 0.0
H796 H 0.55724 0.87113 1.04467 0.0
C797 C 0.56661 0.86944 0.25397 0.0
C798 C 0.53931 0.88612 0.22281 0.0
H799 H 0.61132 0.84123 0.23605 0.0
H800 H 0.56912 0.86799 0.31236 0.0
C801 C 0.53673 0.88697 0.14673 0.0
C802 C 0.40559 0.3397 0.96097 0.0
C803 C 0.40483 0.33704 0.88492 0.0
H804 H 0.39279 0.31746 0.0632 0.0
C805 C 0.38752 0.31012 0.85381 0.0
H806 H 0.41867 0.36012 0.9867 0.0
C807 C 0.37165 0.28629 0.89772 0.0
C808 C 0.37349 0.28829 0.97383 0.0
H809 H 0.38623 0.30747 0.79542 0.0
H810 H 0.35918 0.26548 0.87203 0.0
C811 C 0.39061 0.31535 1.00484 0.0
C812 C 0.97357 0.1206 0.64535 0.0
C813 C 0.97065 0.12074 0.72141 0.0
H814 H 0.95356 0.13744 0.54353 0.0
C815 C 0.94323 0.13721 0.75263 0.0
H816 H 0.99471 0.10872 0.61958 0.0
C817 C 0.91945 0.15326 0.70907 0.0
C818 C 0.92304 0.15423 0.63322 0.0
H819 H 0.94046 0.13818 0.81102 0.0
H820 H 0.89873 0.16577 0.73501 0.0
C821 C 0.95027 0.1375 0.60183 0.0
C822 C 0.11986 0.69321 0.50501 0.0
C823 C 0.13678 0.72034 0.47377 0.0
H824 H 0.09152 0.64858 0.48722 0.0
C825 C 0.13783 0.72272 0.39765 0.0
H826 H 0.11825 0.69084 0.56342 0.0
C827 C 0.12144 0.69916 0.354 0.0
C828 C 0.10435 0.67216 0.38536 0.0
H829 H 0.15012 0.74361 0.37185 0.0
H830 H 0.12221 0.70203 0.29563 0.0
C831 C 0.10436 0.66912 0.46136 0.0
C832 C 0.91955 0.65311 0.38194 0.0
C833 C 0.92321 0.65421 0.45778 0.0
H834 H 0.94046 0.63787 0.28003 0.0
C835 C 0.95048 0.63756 0.48918 0.0
H836 H 0.89878 0.66556 0.35599 0.0
C837 C 0.97374 0.62059 0.4457 0.0
C838 C 0.97074 0.62058 0.36965 0.0
H839 H 0.95382 0.6376 0.54746 0.0
H840 H 0.99491 0.60877 0.47148 0.0
C841 C 0.94328 0.637 0.33842 0.0
C842 C 0.10475 0.1689 0.62988 0.0
C843 C 0.10458 0.17209 0.70585 0.0
H844 H 0.11887 0.19043 0.52776 0.0
C845 C 0.12161 0.19914 0.73712 0.0
H846 H 0.09196 0.14832 0.60406 0.0
C847 C 0.13811 0.22261 0.69341 0.0
C848 C 0.13722 0.22009 0.6173 0.0
H849 H 0.12226 0.20211 0.79548 0.0
H850 H 0.15034 0.24356 0.71914 0.0
C851 C 0.12037 0.1929 0.58615 0.0
C852 C 0.53691 0.38713 0.94337 0.0
C853 C 0.53944 0.38622 0.86728 0.0
H854 H 0.55744 0.37134 0.04543 0.0
C855 C 0.5667 0.36946 0.83612 0.0
H856 H 0.51591 0.39929 0.96908 0.0
C857 C 0.59074 0.35393 0.87985 0.0
C858 C 0.58754 0.35374 0.9558 0.0
H859 H 0.56917 0.36796 0.77773 0.0
H860 H 0.61137 0.34118 0.85405 0.0
C861 C 0.56043 0.37071 0.98708 0.0
C862 C 0.37148 0.78625 0.19285 0.0
C863 C 0.3732 0.78832 0.11674 0.0
H864 H 0.38616 0.80737 0.29514 0.0
C865 C 0.39023 0.81544 0.08573 0.0
H866 H 0.35908 0.76539 0.21854 0.0
C867 C 0.40523 0.83978 0.12959 0.0
C868 C 0.40458 0.83705 0.20564 0.0
H869 H 0.39234 0.8176 1.02736 0.0
H870 H 0.41824 0.86024 0.10384 0.0
C871 C 0.38736 0.81007 0.23676 0.0
C872 C 0.09106 0.35383 0.71124 0.0
C873 C 0.08833 0.3546 0.63519 0.0
H874 H 0.06891 0.36662 0.81357 0.0
C875 C 0.06137 0.37192 0.60421 0.0
H876 H 0.11151 0.34074 0.73688 0.0
C877 C 0.03758 0.38779 0.64824 0.0
C878 C 0.03966 0.38595 0.72434 0.0
H879 H 0.05867 0.37322 0.54584 0.0
H880 H 0.01675 0.40028 0.62264 0.0
C881 C 0.06674 0.36881 0.75522 0.0
C882 C 0.90332 0.84069 0.45984 0.0
C883 C 0.90351 0.83756 0.38385 0.0
H884 H 0.88947 0.819 0.56193 0.0
C885 C 0.88666 0.81038 0.35257 0.0
H886 H 0.916 0.86131 0.48575 0.0
C887 C 0.87041 0.7867 0.39628 0.0
C888 C 0.87135 0.78917 0.4724 0.0
H889 H 0.88607 0.80737 0.29422 0.0
H890 H 0.85842 0.76564 0.37052 0.0
C891 C 0.88792 0.81654 0.50353 0.0
C892 C 0.44937 0.63568 0.10254 0.0
C893 C 0.42226 0.65266 0.13381 0.0
H894 H 0.49401 0.60725 0.12051 0.0
C895 C 0.41917 0.65255 0.20981 0.0
H896 H 0.45235 0.63503 1.04419 0.0
C897 C 0.44327 0.63707 0.25352 0.0
C898 C 0.47056 0.62035 0.2224 0.0
H899 H 0.39859 0.66533 0.23571 0.0
H900 H 0.44084 0.63867 0.31191 0.0
C901 C 0.473 0.61936 0.14627 0.0
C902 C 0.63881 0.22261 0.89537 0.0
C903 C 0.63858 0.21974 0.97145 0.0
H904 H 0.62214 0.20254 0.79351 0.0
C905 C 0.62207 0.19234 1.00264 0.0
H906 H 0.65072 0.24373 0.86961 0.0
C907 C 0.60611 0.16853 0.95904 0.0
C908 C 0.60525 0.17206 0.88316 0.0
H909 H 0.62103 0.1896 0.06103 0.0
H910 H 0.59358 0.14781 0.98496 0.0
C911 C 0.62199 0.19929 0.85181 0.0
C912 C 0.24367 0.23917 0.23172 0.0
C913 C 0.27823 0.24264 0.24122 0.0
H914 H 0.19485 0.2475 0.27512 0.0
C915 C 0.28963 0.25795 0.30563 0.0
H916 H 0.23386 0.22749 0.18332 0.0
C917 C 0.26723 0.26941 0.35875 0.0
C918 C 0.23268 0.26587 0.34928 0.0
H919 H 0.31606 0.26105 0.31534 0.0
H920 H 0.27702 0.28118 0.40711 0.0
C921 C 0.22128 0.25059 0.28486 0.0
C922 C 0.52111 0.49211 0.48224 0.0
C923 C 0.51746 0.52665 0.4915 0.0
H924 H 0.51275 0.44334 0.52579 0.0
C925 C 0.50188 0.53809 0.55557 0.0
H926 H 0.53309 0.4823 0.43414 0.0
C927 C 0.49026 0.51573 0.60858 0.0
C928 C 0.49391 0.4812 0.59933 0.0
H929 H 0.49863 0.56451 0.56506 0.0
H930 H 0.47827 0.52555 0.65666 0.0
C931 C 0.50952 0.46976 0.53528 0.0
C932 C 0.26701 0.76926 0.7316 0.0
C933 C 0.23246 0.76578 0.74113 0.0
H934 H 0.31585 0.76091 0.77494 0.0
C935 C 0.22107 0.75042 0.8055 0.0
H936 H 0.27682 0.78097 0.68323 0.0
C937 C 0.24349 0.73891 0.85856 0.0
C938 C 0.27804 0.74246 0.84908 0.0
H939 H 0.19465 0.74731 0.81522 0.0
H940 H 0.2337 0.72711 0.90688 0.0
C941 C 0.28942 0.7578 0.78469 0.0
C942 C 0.02096 0.49203 0.10979 0.0
C943 C 0.0178 0.52659 0.09994 0.0
H944 H 0.0122 0.44322 0.06674 0.0
C945 C 1.00281 0.53801 1.03519 0.0
H946 H 0.03248 0.48222 0.15842 0.0
C947 C 0.99128 0.51564 0.98215 0.0
C948 C 0.99436 0.48109 0.99205 0.0
H949 H 0.99998 0.56444 1.02517 0.0
H950 H 0.97982 0.52548 0.93352 0.0
C951 C 0.00941 0.46965 0.05673 0.0
C952 C 0.76708 0.7693 0.85913 0.0
C953 C 0.73252 0.76607 0.8494 0.0
H954 H 0.81588 0.76057 0.81602 0.0
C955 C 0.72107 0.75084 0.78495 0.0
H956 H 0.77691 0.78099 0.90755 0.0
C957 C 0.74343 0.73918 0.73199 0.0
C958 C 0.77799 0.74242 0.74172 0.0
H959 H 0.69463 0.74793 0.77511 0.0
H960 H 0.7336 0.72749 0.68358 0.0
C961 C 0.78944 0.75765 0.80617 0.0
C962 C 0.72102 0.25111 0.30584 0.0
C963 C 0.73251 0.26625 0.2413 0.0
H964 H 0.73352 0.22786 0.40736 0.0
C965 C 0.76707 0.26943 0.23158 0.0
H966 H 0.69458 0.24825 0.31569 0.0
C967 C 0.78941 0.25781 0.28463 0.0
C968 C 0.77793 0.24266 0.34916 0.0
H969 H 0.77692 0.28105 0.18311 0.0
H970 H 0.81585 0.26067 0.27477 0.0
C971 C 0.74337 0.23949 0.35889 0.0
C972 C 1.00177 0.03821 0.05515 0.0
C973 C 0.01737 0.02676 0.9911 0.0
H974 H 0.97817 0.02569 0.15626 0.0
C975 C 0.02108 0.99222 0.98196 0.0
H976 H 0.99848 0.06463 0.06457 0.0
C977 C 0.00952 0.96988 1.03507 0.0
C978 C 0.99389 0.98133 0.09908 0.0
H979 H 0.03307 0.9824 0.93389 0.0
H980 H 0.01277 0.94345 1.02565 0.0
C981 C 0.99019 0.01587 0.10823 0.0
C982 C 0.52129 0.99208 0.6079 0.0
C983 C 0.51758 0.02661 0.59876 0.0
H984 H 0.51297 0.94331 0.56423 0.0
C985 C 0.50195 0.03807 0.53474 0.0
H986 H 0.5333 0.98225 0.65594 0.0
C987 C 0.49034 0.01573 0.48169 0.0
C988 C 0.49404 0.9812 0.49083 0.0
H989 H 0.49866 0.06449 0.52534 0.0
H990 H 0.47831 0.02556 0.43368 0.0
C991 C 0.50971 0.96974 0.55481 0.0
loop_
_geom_bond_atom_site_label_1
_geom_bond_atom_site_label_2
_geom_bond_distance
_geom_bond_site_symmetry_2
_ccdc_geom_bond_type
Zn0 O1 2.055 . S
Zn0 O8 2.046 1_554 S
Zn0 N16 2.036 1_554 S
Zn0 O28 2.053 1_554 S
Zn0 O30 2.066 . S
O1 Zn0 2.055 . S
O1 C4 1.259 . S
C2 O30 1.256 . S
C2 O31 1.244 . S
Zn3 O5 2.046 . S
Zn3 O7 2.055 1_554 S
Zn3 N9 2.036 . S
Zn3 O27 2.066 . S
Zn3 O31 2.053 . S
C4 O1 1.259 . S
C4 O5 1.254 . S
O5 Zn3 2.046 . S
O5 C4 1.254 . S
C6 O27 1.256 1_556 S
C6 O28 1.244 . S
O7 Zn3 2.055 1_556 S
O7 C29 1.259 . S
O8 Zn0 2.046 1_556 S
O8 C29 1.254 . S
N9 Zn3 2.036 . S
N9 C10 1.298 . S
N9 N12 1.398 . S
C10 N9 1.298 . S
C10 N13 1.367 . S
C10 C23 1.481 . S
C11 N12 1.299 . S
C11 N13 1.379 . S
N12 N9 1.398 . S
N12 C11 1.299 . S
N13 C10 1.367 . S
N13 C11 1.379 . S
C14 N16 1.298 . S
C14 N18 1.367 . S
C14 C22 1.481 1_556 S
C15 N17 1.299 . S
C15 N18 1.379 . S
N16 Zn0 2.036 1_556 S
N16 C14 1.298 . S
N16 N17 1.398 . S
N17 C15 1.299 . S
N17 N16 1.398 . S
N18 C14 1.367 . S
N18 C15 1.379 . S
H19 C22 0.980 . S
H20 C22 0.981 . S
H21 C22 0.981 . S
C22 C14 1.481 1_554 S
C22 H19 0.980 . S
C22 H20 0.981 . S
C22 H21 0.981 . S
C23 C10 1.481 . S
C23 H24 0.980 . S
C23 H25 0.981 . S
C23 H26 0.981 . S
H24 C23 0.980 . S
H25 C23 0.981 . S
H26 C23 0.981 . S
O27 Zn3 2.066 . S
O27 C6 1.256 1_554 S
O28 Zn0 2.053 1_556 S
O28 C6 1.244 . S
C29 O7 1.259 . S
C29 O8 1.254 . S
O30 Zn0 2.066 . S
O30 C2 1.256 . S
O31 C2 1.244 . S
O31 Zn3 2.053 . S
Zn32 O33 2.055 . S
Zn32 O40 2.046 . S
Zn32 N48 2.036 . S
Zn32 O60 2.053 . S
Zn32 O62 2.066 . S
O33 Zn32 2.055 . S
O33 C36 1.259 . S
C34 O62 1.256 . S
C34 O63 1.244 . S
Zn35 O37 2.046 . S
Zn35 O39 2.055 . S
Zn35 N41 2.036 . S
Zn35 O59 2.066 . S
Zn35 O63 2.053 . S
C36 O33 1.259 . S
C36 O37 1.254 . S
O37 Zn35 2.046 . S
O37 C36 1.254 . S
C38 O59 1.256 . S
C38 O60 1.244 . S
O39 Zn35 2.055 . S
O39 C61 1.259 . S
O40 Zn32 2.046 . S
O40 C61 1.254 . S
N41 Zn35 2.036 . S
N41 C42 1.298 . S
N41 N44 1.398 . S
C42 N41 1.298 . S
C42 N45 1.367 . S
C42 C55 1.481 . S
C43 N44 1.299 . S
C43 N45 1.379 . S
N44 N41 1.398 . S
N44 C43 1.299 . S
N45 C42 1.367 . S
N45 C43 1.379 . S
C46 N48 1.298 . S
C46 N50 1.367 . S
C46 C54 1.481 . S
C47 N49 1.299 . S
C47 N50 1.379 . S
N48 Zn32 2.036 . S
N48 C46 1.298 . S
N48 N49 1.398 . S
N49 C47 1.299 . S
N49 N48 1.398 . S
N50 C46 1.367 . S
N50 C47 1.379 . S
H51 C54 0.980 . S
H52 C54 0.981 . S
H53 C54 0.981 . S
C54 C46 1.481 . S
C54 H51 0.980 . S
C54 H52 0.981 . S
C54 H53 0.981 . S
C55 C42 1.481 . S
C55 H56 0.980 . S
C55 H57 0.981 . S
C55 H58 0.981 . S
H56 C55 0.980 . S
H57 C55 0.981 . S
H58 C55 0.981 . S
O59 Zn35 2.066 . S
O59 C38 1.256 . S
O60 Zn32 2.053 . S
O60 C38 1.244 . S
C61 O39 1.259 . S
C61 O40 1.254 . S
O62 Zn32 2.066 . S
O62 C34 1.256 . S
O63 C34 1.244 . S
O63 Zn35 2.053 . S
Zn64 O65 2.055 . S
Zn64 O72 2.046 . S
Zn64 N80 2.036 . S
Zn64 O92 2.053 . S
Zn64 O94 2.066 . S
O65 Zn64 2.055 . S
O65 C68 1.259 . S
C66 O94 1.256 . S
C66 O95 1.244 . S
Zn67 O69 2.046 . S
Zn67 O71 2.055 . S
Zn67 N73 2.036 . S
Zn67 O91 2.066 . S
Zn67 O95 2.053 . S
C68 O65 1.259 . S
C68 O69 1.254 . S
O69 Zn67 2.046 . S
O69 C68 1.254 . S
C70 O91 1.256 . S
C70 O92 1.244 . S
O71 Zn67 2.055 . S
O71 C93 1.259 . S
O72 Zn64 2.046 . S
O72 C93 1.254 . S
N73 Zn67 2.036 . S
N73 C74 1.298 . S
N73 N76 1.398 . S
C74 N73 1.298 . S
C74 N77 1.367 . S
C74 C87 1.481 . S
C75 N76 1.299 . S
C75 N77 1.379 . S
N76 N73 1.398 . S
N76 C75 1.299 . S
N77 C74 1.367 . S
N77 C75 1.379 . S
C78 N80 1.298 . S
C78 N82 1.367 . S
C78 C86 1.481 . S
C79 N81 1.299 . S
C79 N82 1.379 . S
N80 Zn64 2.036 . S
N80 C78 1.298 . S
N80 N81 1.398 . S
N81 C79 1.299 . S
N81 N80 1.398 . S
N82 C78 1.367 . S
N82 C79 1.379 . S
H83 C86 0.980 . S
H84 C86 0.981 . S
H85 C86 0.981 . S
C86 C78 1.481 . S
C86 H83 0.980 . S
C86 H84 0.981 . S
C86 H85 0.981 . S
C87 C74 1.481 . S
C87 H88 0.980 . S
C87 H89 0.981 . S
C87 H90 0.981 . S
H88 C87 0.980 . S
H89 C87 0.981 . S
H90 C87 0.981 . S
O91 Zn67 2.066 . S
O91 C70 1.256 . S
O92 Zn64 2.053 . S
O92 C70 1.244 . S
C93 O71 1.259 . S
C93 O72 1.254 . S
O94 Zn64 2.066 . S
O94 C66 1.256 . S
O95 C66 1.244 . S
O95 Zn67 2.053 . S
Zn96 O97 2.055 . S
Zn96 O104 2.046 . S
Zn96 N112 2.036 . S
Zn96 O124 2.053 . S
Zn96 O126 2.066 . S
O97 Zn96 2.055 . S
O97 C100 1.259 . S
C98 O126 1.256 . S
C98 O127 1.244 . S
Zn99 O101 2.046 . S
Zn99 O103 2.055 . S
Zn99 N105 2.036 . S
Zn99 O123 2.066 . S
Zn99 O127 2.053 . S
C100 O97 1.259 . S
C100 O101 1.254 . S
O101 Zn99 2.046 . S
O101 C100 1.254 . S
C102 O123 1.256 . S
C102 O124 1.244 . S
O103 Zn99 2.055 . S
O103 C125 1.259 . S
O104 Zn96 2.046 . S
O104 C125 1.254 . S
N105 Zn99 2.036 . S
N105 C106 1.298 . S
N105 N108 1.398 . S
C106 N105 1.298 . S
C106 N109 1.367 . S
C106 C119 1.481 . S
C107 N108 1.299 . S
C107 N109 1.379 . S
N108 N105 1.398 . S
N108 C107 1.299 . S
N109 C106 1.367 . S
N109 C107 1.379 . S
C110 N112 1.298 . S
C110 N114 1.367 . S
C110 C118 1.481 . S
C111 N113 1.299 . S
C111 N114 1.379 . S
N112 Zn96 2.036 . S
N112 C110 1.298 . S
N112 N113 1.398 . S
N113 C111 1.299 . S
N113 N112 1.398 . S
N114 C110 1.367 . S
N114 C111 1.379 . S
H115 C118 0.980 . S
H116 C118 0.981 . S
H117 C118 0.981 . S
C118 C110 1.481 . S
C118 H115 0.980 . S
C118 H116 0.981 . S
C118 H117 0.981 . S
C119 C106 1.481 . S
C119 H120 0.980 . S
C119 H121 0.981 . S
C119 H122 0.981 . S
H120 C119 0.980 . S
H121 C119 0.981 . S
H122 C119 0.981 . S
O123 Zn99 2.066 . S
O123 C102 1.256 . S
O124 Zn96 2.053 . S
O124 C102 1.244 . S
C125 O103 1.259 . S
C125 O104 1.254 . S
O126 Zn96 2.066 . S
O126 C98 1.256 . S
O127 C98 1.244 . S
O127 Zn99 2.053 . S
Zn128 O129 2.055 1_556 S
Zn128 O136 2.046 . S
Zn128 N144 2.036 . S
Zn128 O156 2.053 . S
Zn128 O158 2.066 . S
O129 Zn128 2.055 1_554 S
O129 C132 1.259 . S
C130 O158 1.256 1_554 S
C130 O159 1.244 . S
Zn131 O133 2.046 1_556 S
Zn131 O135 2.055 . S
Zn131 N137 2.036 1_556 S
Zn131 O155 2.066 . S
Zn131 O159 2.053 1_556 S
C132 O129 1.259 . S
C132 O133 1.254 . S
O133 Zn131 2.046 1_554 S
O133 C132 1.254 . S
C134 O155 1.256 . S
C134 O156 1.244 . S
O135 Zn131 2.055 . S
O135 C157 1.259 . S
O136 Zn128 2.046 . S
O136 C157 1.254 . S
N137 Zn131 2.036 1_554 S
N137 C138 1.298 . S
N137 N140 1.398 . S
C138 N137 1.298 . S
C138 N141 1.367 . S
C138 C151 1.481 1_554 S
C139 N140 1.299 . S
C139 N141 1.379 . S
N140 N137 1.398 . S
N140 C139 1.299 . S
N141 C138 1.367 . S
N141 C139 1.379 . S
C142 N144 1.298 . S
C142 N146 1.367 . S
C142 C150 1.481 . S
C143 N145 1.299 . S
C143 N146 1.379 . S
N144 Zn128 2.036 . S
N144 C142 1.298 . S
N144 N145 1.398 . S
N145 C143 1.299 . S
N145 N144 1.398 . S
N146 C142 1.367 . S
N146 C143 1.379 . S
H147 C150 0.980 . S
H148 C150 0.981 . S
H149 C150 0.981 . S
C150 C142 1.481 . S
C150 H147 0.980 . S
C150 H148 0.981 . S
C150 H149 0.981 . S
C151 C138 1.481 1_556 S
C151 H152 0.980 . S
C151 H153 0.981 . S
C151 H154 0.981 . S
H152 C151 0.980 . S
H153 C151 0.981 . S
H154 C151 0.981 . S
O155 Zn131 2.066 . S
O155 C134 1.256 . S
O156 Zn128 2.053 . S
O156 C134 1.244 . S
C157 O135 1.259 . S
C157 O136 1.254 . S
O158 Zn128 2.066 . S
O158 C130 1.256 1_556 S
O159 C130 1.244 . S
O159 Zn131 2.053 1_554 S
Zn160 O161 2.055 . S
Zn160 O168 2.046 . S
Zn160 N176 2.036 . S
Zn160 O188 2.053 . S
Zn160 O190 2.066 . S
O161 Zn160 2.055 . S
O161 C164 1.259 . S
C162 O190 1.256 . S
C162 O191 1.244 . S
Zn163 O165 2.046 . S
Zn163 O167 2.055 . S
Zn163 N169 2.036 . S
Zn163 O187 2.066 . S
Zn163 O191 2.053 . S
C164 O161 1.259 . S
C164 O165 1.254 . S
O165 Zn163 2.046 . S
O165 C164 1.254 . S
C166 O187 1.256 . S
C166 O188 1.244 . S
O167 Zn163 2.055 . S
O167 C189 1.259 . S
O168 Zn160 2.046 . S
O168 C189 1.254 . S
N169 Zn163 2.036 . S
N169 C170 1.298 . S
N169 N172 1.398 . S
C170 N169 1.298 . S
C170 N173 1.367 . S
C170 C183 1.481 . S
C171 N172 1.299 . S
C171 N173 1.379 . S
N172 N169 1.398 . S
N172 C171 1.299 . S
N173 C170 1.367 . S
N173 C171 1.379 . S
C174 N176 1.298 . S
C174 N178 1.367 . S
C174 C182 1.481 . S
C175 N177 1.299 . S
C175 N178 1.379 . S
N176 Zn160 2.036 . S
N176 C174 1.298 . S
N176 N177 1.398 . S
N177 C175 1.299 . S
N177 N176 1.398 . S
N178 C174 1.367 . S
N178 C175 1.379 . S
H179 C182 0.980 . S
H180 C182 0.981 . S
H181 C182 0.981 . S
C182 C174 1.481 . S
C182 H179 0.980 . S
C182 H180 0.981 . S
C182 H181 0.981 . S
C183 C170 1.481 . S
C183 H184 0.980 . S
C183 H185 0.981 . S
C183 H186 0.981 . S
H184 C183 0.980 . S
H185 C183 0.981 . S
H186 C183 0.981 . S
O187 Zn163 2.066 . S
O187 C166 1.256 . S
O188 Zn160 2.053 . S
O188 C166 1.244 . S
C189 O167 1.259 . S
C189 O168 1.254 . S
O190 Zn160 2.066 . S
O190 C162 1.256 . S
O191 C162 1.244 . S
O191 Zn163 2.053 . S
Zn192 O193 2.055 . S
Zn192 O200 2.046 . S
Zn192 N208 2.036 . S
Zn192 O220 2.053 . S
Zn192 O222 2.066 . S
O193 Zn192 2.055 . S
O193 C196 1.259 . S
C194 O222 1.256 . S
C194 O223 1.244 . S
Zn195 O197 2.046 . S
Zn195 O199 2.055 . S
Zn195 N201 2.036 . S
Zn195 O219 2.066 . S
Zn195 O223 2.053 . S
C196 O193 1.259 . S
C196 O197 1.254 . S
O197 Zn195 2.046 . S
O197 C196 1.254 . S
C198 O219 1.256 . S
C198 O220 1.244 . S
O199 Zn195 2.055 . S
O199 C221 1.259 . S
O200 Zn192 2.046 . S
O200 C221 1.254 . S
N201 Zn195 2.036 . S
N201 C202 1.298 . S
N201 N204 1.398 . S
C202 N201 1.298 . S
C202 N205 1.367 . S
C202 C215 1.481 . S
C203 N204 1.299 . S
C203 N205 1.379 . S
N204 N201 1.398 . S
N204 C203 1.299 . S
N205 C202 1.367 . S
N205 C203 1.379 . S
C206 N208 1.298 . S
C206 N210 1.367 . S
C206 C214 1.481 . S
C207 N209 1.299 . S
C207 N210 1.379 . S
N208 Zn192 2.036 . S
N208 C206 1.298 . S
N208 N209 1.398 . S
N209 C207 1.299 . S
N209 N208 1.398 . S
N210 C206 1.367 . S
N210 C207 1.379 . S
H211 C214 0.980 . S
H212 C214 0.981 . S
H213 C214 0.981 . S
C214 C206 1.481 . S
C214 H211 0.980 . S
C214 H212 0.981 . S
C214 H213 0.981 . S
C215 C202 1.481 . S
C215 H216 0.980 . S
C215 H217 0.981 . S
C215 H218 0.981 . S
H216 C215 0.980 . S
H217 C215 0.981 . S
H218 C215 0.981 . S
O219 Zn195 2.066 . S
O219 C198 1.256 . S
O220 Zn192 2.053 . S
O220 C198 1.244 . S
C221 O199 1.259 . S
C221 O200 1.254 . S
O222 Zn192 2.066 . S
O222 C194 1.256 . S
O223 C194 1.244 . S
O223 Zn195 2.053 . S
Zn224 O225 2.055 . S
Zn224 O232 2.046 . S
Zn224 N240 2.036 . S
Zn224 O252 2.053 . S
Zn224 O254 2.066 . S
O225 Zn224 2.055 . S
O225 C228 1.259 . S
C226 O254 1.256 . S
C226 O255 1.244 . S
Zn227 O229 2.046 . S
Zn227 O231 2.055 . S
Zn227 N233 2.036 . S
Zn227 O251 2.066 . S
Zn227 O255 2.053 . S
C228 O225 1.259 . S
C228 O229 1.254 . S
O229 Zn227 2.046 . S
O229 C228 1.254 . S
C230 O251 1.256 . S
C230 O252 1.244 . S
O231 Zn227 2.055 . S
O231 C253 1.259 . S
O232 Zn224 2.046 . S
O232 C253 1.254 . S
N233 Zn227 2.036 . S
N233 C234 1.298 . S
N233 N236 1.398 . S
C234 N233 1.298 . S
C234 N237 1.367 . S
C234 C247 1.481 . S
C235 N236 1.299 . S
C235 N237 1.379 . S
N236 N233 1.398 . S
N236 C235 1.299 . S
N237 C234 1.367 . S
N237 C235 1.379 . S
C238 N240 1.298 . S
C238 N242 1.367 . S
C238 C246 1.481 . S
C239 N241 1.299 . S
C239 N242 1.379 . S
N240 Zn224 2.036 . S
N240 C238 1.298 . S
N240 N241 1.398 . S
N241 C239 1.299 . S
N241 N240 1.398 . S
N242 C238 1.367 . S
N242 C239 1.379 . S
H243 C246 0.980 . S
H244 C246 0.981 . S
H245 C246 0.981 . S
C246 C238 1.481 . S
C246 H243 0.980 . S
C246 H244 0.981 . S
C246 H245 0.981 . S
C247 C234 1.481 . S
C247 H248 0.980 . S
C247 H249 0.981 . S
C247 H250 0.981 . S
H248 C247 0.980 . S
H249 C247 0.981 . S
H250 C247 0.981 . S
O251 Zn227 2.066 . S
O251 C230 1.256 . S
O252 Zn224 2.053 . S
O252 C230 1.244 . S
C253 O231 1.259 . S
C253 O232 1.254 . S
O254 Zn224 2.066 . S
O254 C226 1.256 . S
O255 C226 1.244 . S
O255 Zn227 2.053 . S
Zn256 O257 2.055 . S
Zn256 O264 2.046 . S
Zn256 N272 2.036 . S
Zn256 O284 2.053 . S
Zn256 O286 2.066 . S
O257 Zn256 2.055 . S
O257 C260 1.259 . S
C258 O286 1.256 . S
C258 O287 1.244 . S
Zn259 O261 2.046 . S
Zn259 O263 2.055 . S
Zn259 N265 2.036 . S
Zn259 O283 2.066 . S
Zn259 O287 2.053 . S
C260 O257 1.259 . S
C260 O261 1.254 . S
O261 Zn259 2.046 . S
O261 C260 1.254 . S
C262 O283 1.256 . S
C262 O284 1.244 . S
O263 Zn259 2.055 . S
O263 C285 1.259 . S
O264 Zn256 2.046 . S
O264 C285 1.254 . S
N265 Zn259 2.036 . S
N265 C266 1.298 . S
N265 N268 1.398 . S
C266 N265 1.298 . S
C266 N269 1.367 . S
C266 C279 1.481 . S
C267 N268 1.299 . S
C267 N269 1.379 . S
N268 N265 1.398 . S
N268 C267 1.299 . S
N269 C266 1.367 . S
N269 C267 1.379 . S
C270 N272 1.298 . S
C270 N274 1.367 . S
C270 C278 1.481 . S
C271 N273 1.299 . S
C271 N274 1.379 . S
N272 Zn256 2.036 . S
N272 C270 1.298 . S
N272 N273 1.398 . S
N273 C271 1.299 . S
N273 N272 1.398 . S
N274 C270 1.367 . S
N274 C271 1.379 . S
H275 C278 0.980 . S
H276 C278 0.981 . S
H277 C278 0.981 . S
C278 C270 1.481 . S
C278 H275 0.980 . S
C278 H276 0.981 . S
C278 H277 0.981 . S
C279 C266 1.481 . S
C279 H280 0.980 . S
C279 H281 0.981 . S
C279 H282 0.981 . S
H280 C279 0.980 . S
H281 C279 0.981 . S
H282 C279 0.981 . S
O283 Zn259 2.066 . S
O283 C262 1.256 . S
O284 Zn256 2.053 . S
O284 C262 1.244 . S
C285 O263 1.259 . S
C285 O264 1.254 . S
O286 Zn256 2.066 . S
O286 C258 1.256 . S
O287 C258 1.244 . S
O287 Zn259 2.053 . S
Zn288 O289 2.055 . S
Zn288 O296 2.046 . S
Zn288 N304 2.036 . S
Zn288 O316 2.053 . S
Zn288 O318 2.066 . S
O289 Zn288 2.055 . S
O289 C292 1.259 . S
C290 O318 1.256 . S
C290 O319 1.244 . S
Zn291 O293 2.046 . S
Zn291 O295 2.055 . S
Zn291 N297 2.036 . S
Zn291 O315 2.066 . S
Zn291 O319 2.053 . S
C292 O289 1.259 . S
C292 O293 1.254 . S
O293 Zn291 2.046 . S
O293 C292 1.254 . S
C294 O315 1.256 . S
C294 O316 1.244 . S
O295 Zn291 2.055 . S
O295 C317 1.259 . S
O296 Zn288 2.046 . S
O296 C317 1.254 . S
N297 Zn291 2.036 . S
N297 C298 1.298 1_545 S
N297 N300 1.398 . S
C298 N297 1.298 1_565 S
C298 N301 1.367 . S
C298 C311 1.481 . S
C299 N300 1.299 1_565 S
C299 N301 1.379 . S
N300 N297 1.398 . S
N300 C299 1.299 1_545 S
N301 C298 1.367 . S
N301 C299 1.379 . S
C302 N304 1.298 . S
C302 N306 1.367 . S
C302 C310 1.481 . S
C303 N305 1.299 . S
C303 N306 1.379 . S
N304 Zn288 2.036 . S
N304 C302 1.298 . S
N304 N305 1.398 . S
N305 C303 1.299 . S
N305 N304 1.398 . S
N306 C302 1.367 . S
N306 C303 1.379 . S
H307 C310 0.980 . S
H308 C310 0.981 . S
H309 C310 0.981 . S
C310 C302 1.481 . S
C310 H307 0.980 . S
C310 H308 0.981 . S
C310 H309 0.981 . S
C311 C298 1.481 . S
C311 H312 0.980 1_565 S
C311 H313 0.981 . S
C311 H314 0.981 . S
H312 C311 0.980 1_545 S
H313 C311 0.981 . S
H314 C311 0.981 . S
O315 Zn291 2.066 . S
O315 C294 1.256 . S
O316 Zn288 2.053 . S
O316 C294 1.244 . S
C317 O295 1.259 . S
C317 O296 1.254 . S
O318 Zn288 2.066 . S
O318 C290 1.256 . S
O319 C290 1.244 . S
O319 Zn291 2.053 . S
Zn320 O321 2.055 1_554 S
Zn320 O328 2.046 . S
Zn320 N336 2.036 . S
Zn320 O348 2.053 . S
Zn320 O350 2.066 . S
O321 Zn320 2.055 1_556 S
O321 C324 1.259 . S
C322 O350 1.256 1_556 S
C322 O351 1.244 . S
Zn323 O325 2.046 1_554 S
Zn323 O327 2.055 . S
Zn323 N329 2.036 1_554 S
Zn323 O347 2.066 . S
Zn323 O351 2.053 1_554 S
C324 O321 1.259 . S
C324 O325 1.254 . S
O325 Zn323 2.046 1_556 S
O325 C324 1.254 . S
C326 O347 1.256 . S
C326 O348 1.244 . S
O327 Zn323 2.055 . S
O327 C349 1.259 . S
O328 Zn320 2.046 . S
O328 C349 1.254 . S
N329 Zn323 2.036 1_556 S
N329 C330 1.298 . S
N329 N332 1.398 . S
C330 N329 1.298 . S
C330 N333 1.367 . S
C330 C343 1.481 1_556 S
C331 N332 1.299 . S
C331 N333 1.379 . S
N332 N329 1.398 . S
N332 C331 1.299 . S
N333 C330 1.367 . S
N333 C331 1.379 . S
C334 N336 1.298 . S
C334 N338 1.367 . S
C334 C342 1.481 . S
C335 N337 1.299 . S
C335 N338 1.379 . S
N336 Zn320 2.036 . S
N336 C334 1.298 . S
N336 N337 1.398 . S
N337 C335 1.299 . S
N337 N336 1.398 . S
N338 C334 1.367 . S
N338 C335 1.379 . S
H339 C342 0.980 . S
H340 C342 0.981 . S
H341 C342 0.981 . S
C342 C334 1.481 . S
C342 H339 0.980 . S
C342 H340 0.981 . S
C342 H341 0.981 . S
C343 C330 1.481 1_554 S
C343 H344 0.980 . S
C343 H345 0.981 . S
C343 H346 0.981 . S
H344 C343 0.980 . S
H345 C343 0.981 . S
H346 C343 0.981 . S
O347 Zn323 2.066 . S
O347 C326 1.256 . S
O348 Zn320 2.053 . S
O348 C326 1.244 . S
C349 O327 1.259 . S
C349 O328 1.254 . S
O350 Zn320 2.066 . S
O350 C322 1.256 1_554 S
O351 C322 1.244 . S
O351 Zn323 2.053 1_556 S
Zn352 O353 2.055 . S
Zn352 O360 2.046 . S
Zn352 N368 2.036 . S
Zn352 O380 2.053 . S
Zn352 O382 2.066 . S
O353 Zn352 2.055 . S
O353 C356 1.259 . S
C354 O382 1.256 . S
C354 O383 1.244 . S
Zn355 O357 2.046 . S
Zn355 O359 2.055 . S
Zn355 N361 2.036 . S
Zn355 O379 2.066 . S
Zn355 O383 2.053 . S
C356 O353 1.259 . S
C356 O357 1.254 . S
O357 Zn355 2.046 . S
O357 C356 1.254 . S
C358 O379 1.256 . S
C358 O380 1.244 . S
O359 Zn355 2.055 . S
O359 C381 1.259 . S
O360 Zn352 2.046 . S
O360 C381 1.254 . S
N361 Zn355 2.036 . S
N361 C362 1.298 1_565 S
N361 N364 1.398 . S
C362 N361 1.298 1_545 S
C362 N365 1.367 . S
C362 C375 1.481 . S
C363 N364 1.299 1_545 S
C363 N365 1.379 . S
N364 N361 1.398 . S
N364 C363 1.299 1_565 S
N365 C362 1.367 . S
N365 C363 1.379 . S
C366 N368 1.298 . S
C366 N370 1.367 . S
C366 C374 1.481 . S
C367 N369 1.299 . S
C367 N370 1.379 . S
N368 Zn352 2.036 . S
N368 C366 1.298 . S
N368 N369 1.398 . S
N369 C367 1.299 . S
N369 N368 1.398 . S
N370 C366 1.367 . S
N370 C367 1.379 . S
H371 C374 0.980 . S
H372 C374 0.981 . S
H373 C374 0.981 . S
C374 C366 1.481 . S
C374 H371 0.980 . S
C374 H372 0.981 . S
C374 H373 0.981 . S
C375 C362 1.481 . S
C375 H376 0.980 1_545 S
C375 H377 0.981 . S
C375 H378 0.981 . S
H376 C375 0.980 1_565 S
H377 C375 0.981 . S
H378 C375 0.981 . S
O379 Zn355 2.066 . S
O379 C358 1.256 . S
O380 Zn352 2.053 . S
O380 C358 1.244 . S
C381 O359 1.259 . S
C381 O360 1.254 . S
O382 Zn352 2.066 . S
O382 C354 1.256 . S
O383 C354 1.244 . S
O383 Zn355 2.053 . S
Zn384 O385 2.055 . S
Zn384 O392 2.046 . S
Zn384 N400 2.036 . S
Zn384 O412 2.053 . S
Zn384 O414 2.066 . S
O385 Zn384 2.055 . S
O385 C388 1.259 . S
C386 O414 1.256 . S
C386 O415 1.244 . S
Zn387 O389 2.046 . S
Zn387 O391 2.055 . S
Zn387 N393 2.036 . S
Zn387 O411 2.066 . S
Zn387 O415 2.053 . S
C388 O385 1.259 . S
C388 O389 1.254 . S
O389 Zn387 2.046 . S
O389 C388 1.254 . S
C390 O411 1.256 . S
C390 O412 1.244 . S
O391 Zn387 2.055 . S
O391 C413 1.259 . S
O392 Zn384 2.046 . S
O392 C413 1.254 . S
N393 Zn387 2.036 . S
N393 C394 1.298 . S
N393 N396 1.398 . S
C394 N393 1.298 . S
C394 N397 1.367 . S
C394 C407 1.481 . S
C395 N396 1.299 . S
C395 N397 1.379 . S
N396 N393 1.398 . S
N396 C395 1.299 . S
N397 C394 1.367 . S
N397 C395 1.379 . S
C398 N400 1.298 . S
C398 N402 1.367 . S
C398 C406 1.481 . S
C399 N401 1.299 . S
C399 N402 1.379 . S
N400 Zn384 2.036 . S
N400 C398 1.298 . S
N400 N401 1.398 . S
N401 C399 1.299 . S
N401 N400 1.398 . S
N402 C398 1.367 . S
N402 C399 1.379 . S
H403 C406 0.980 . S
H404 C406 0.981 . S
H405 C406 0.981 . S
C406 C398 1.481 . S
C406 H403 0.980 . S
C406 H404 0.981 . S
C406 H405 0.981 . S
C407 C394 1.481 . S
C407 H408 0.980 . S
C407 H409 0.981 . S
C407 H410 0.981 . S
H408 C407 0.980 . S
H409 C407 0.981 . S
H410 C407 0.981 . S
O411 Zn387 2.066 . S
O411 C390 1.256 . S
O412 Zn384 2.053 . S
O412 C390 1.244 . S
C413 O391 1.259 . S
C413 O392 1.254 . S
O414 Zn384 2.066 . S
O414 C386 1.256 . S
O415 C386 1.244 . S
O415 Zn387 2.053 . S
Zn416 O417 2.055 . S
Zn416 O424 2.046 . S
Zn416 N432 2.036 . S
Zn416 O444 2.053 . S
Zn416 O446 2.066 . S
O417 Zn416 2.055 . S
O417 C420 1.259 . S
C418 O446 1.256 . S
C418 O447 1.244 . S
Zn419 O421 2.046 . S
Zn419 O423 2.055 . S
Zn419 N425 2.036 . S
Zn419 O443 2.066 . S
Zn419 O447 2.053 . S
C420 O417 1.259 . S
C420 O421 1.254 . S
O421 Zn419 2.046 . S
O421 C420 1.254 . S
C422 O443 1.256 . S
C422 O444 1.244 . S
O423 Zn419 2.055 . S
O423 C445 1.259 . S
O424 Zn416 2.046 . S
O424 C445 1.254 . S
N425 Zn419 2.036 . S
N425 C426 1.298 1_565 S
N425 N428 1.398 . S
C426 N425 1.298 1_545 S
C426 N429 1.367 . S
C426 C439 1.481 . S
C427 N428 1.299 1_545 S
C427 N429 1.379 . S
N428 N425 1.398 . S
N428 C427 1.299 1_565 S
N429 C426 1.367 . S
N429 C427 1.379 . S
C430 N432 1.298 . S
C430 N434 1.367 . S
C430 C438 1.481 . S
C431 N433 1.299 . S
C431 N434 1.379 . S
N432 Zn416 2.036 . S
N432 C430 1.298 . S
N432 N433 1.398 . S
N433 C431 1.299 . S
N433 N432 1.398 . S
N434 C430 1.367 . S
N434 C431 1.379 . S
H435 C438 0.980 . S
H436 C438 0.981 . S
H437 C438 0.981 . S
C438 C430 1.481 . S
C438 H435 0.980 . S
C438 H436 0.981 . S
C438 H437 0.981 . S
C439 C426 1.481 . S
C439 H440 0.980 1_545 S
C439 H441 0.981 . S
C439 H442 0.981 . S
H440 C439 0.980 1_565 S
H441 C439 0.981 . S
H442 C439 0.981 . S
O443 Zn419 2.066 . S
O443 C422 1.256 . S
O444 Zn416 2.053 . S
O444 C422 1.244 . S
C445 O423 1.259 . S
C445 O424 1.254 . S
O446 Zn416 2.066 . S
O446 C418 1.256 . S
O447 C418 1.244 . S
O447 Zn419 2.053 . S
Zn448 O449 2.055 . S
Zn448 O456 2.046 1_556 S
Zn448 N464 2.036 1_556 S
Zn448 O476 2.053 1_556 S
Zn448 O478 2.066 . S
O449 Zn448 2.055 . S
O449 C452 1.259 . S
C450 O478 1.256 . S
C450 O479 1.244 . S
Zn451 O453 2.046 . S
Zn451 O455 2.055 1_556 S
Zn451 N457 2.036 . S
Zn451 O475 2.066 . S
Zn451 O479 2.053 . S
C452 O449 1.259 . S
C452 O453 1.254 . S
O453 Zn451 2.046 . S
O453 C452 1.254 . S
C454 O475 1.256 1_554 S
C454 O476 1.244 . S
O455 Zn451 2.055 1_554 S
O455 C477 1.259 . S
O456 Zn448 2.046 1_554 S
O456 C477 1.254 . S
N457 Zn451 2.036 . S
N457 C458 1.298 . S
N457 N460 1.398 . S
C458 N457 1.298 . S
C458 N461 1.367 . S
C458 C471 1.481 . S
C459 N460 1.299 . S
C459 N461 1.379 . S
N460 N457 1.398 . S
N460 C459 1.299 . S
N461 C458 1.367 . S
N461 C459 1.379 . S
C462 N464 1.298 . S
C462 N466 1.367 . S
C462 C470 1.481 1_554 S
C463 N465 1.299 . S
C463 N466 1.379 . S
N464 Zn448 2.036 1_554 S
N464 C462 1.298 . S
N464 N465 1.398 . S
N465 C463 1.299 . S
N465 N464 1.398 . S
N466 C462 1.367 . S
N466 C463 1.379 . S
H467 C470 0.980 . S
H468 C470 0.981 . S
H469 C470 0.981 . S
C470 C462 1.481 1_556 S
C470 H467 0.980 . S
C470 H468 0.981 . S
C470 H469 0.981 . S
C471 C458 1.481 . S
C471 H472 0.980 . S
C471 H473 0.981 . S
C471 H474 0.981 . S
H472 C471 0.980 . S
H473 C471 0.981 . S
H474 C471 0.981 . S
O475 Zn451 2.066 . S
O475 C454 1.256 1_556 S
O476 Zn448 2.053 1_554 S
O476 C454 1.244 . S
C477 O455 1.259 . S
C477 O456 1.254 . S
O478 Zn448 2.066 . S
O478 C450 1.256 . S
O479 C450 1.244 . S
O479 Zn451 2.053 . S
Zn480 O481 2.055 . S
Zn480 O488 2.046 . S
Zn480 N496 2.036 . S
Zn480 O508 2.053 . S
Zn480 O510 2.066 . S
O481 Zn480 2.055 . S
O481 C484 1.259 . S
C482 O510 1.256 . S
C482 O511 1.244 . S
Zn483 O485 2.046 . S
Zn483 O487 2.055 . S
Zn483 N489 2.036 . S
Zn483 O507 2.066 . S
Zn483 O511 2.053 . S
C484 O481 1.259 . S
C484 O485 1.254 . S
O485 Zn483 2.046 . S
O485 C484 1.254 . S
C486 O507 1.256 . S
C486 O508 1.244 . S
O487 Zn483 2.055 . S
O487 C509 1.259 . S
O488 Zn480 2.046 . S
O488 C509 1.254 . S
N489 Zn483 2.036 . S
N489 C490 1.298 1_545 S
N489 N492 1.398 . S
C490 N489 1.298 1_565 S
C490 N493 1.367 . S
C490 C503 1.481 . S
C491 N492 1.299 1_565 S
C491 N493 1.379 . S
N492 N489 1.398 . S
N492 C491 1.299 1_545 S
N493 C490 1.367 . S
N493 C491 1.379 . S
C494 N496 1.298 . S
C494 N498 1.367 . S
C494 C502 1.481 . S
C495 N497 1.299 . S
C495 N498 1.379 . S
N496 Zn480 2.036 . S
N496 C494 1.298 . S
N496 N497 1.398 . S
N497 C495 1.299 . S
N497 N496 1.398 . S
N498 C494 1.367 . S
N498 C495 1.379 . S
H499 C502 0.980 . S
H500 C502 0.981 . S
H501 C502 0.981 . S
C502 C494 1.481 . S
C502 H499 0.980 . S
C502 H500 0.981 . S
C502 H501 0.981 . S
C503 C490 1.481 . S
C503 H504 0.980 1_565 S
C503 H505 0.981 . S
C503 H506 0.981 . S
H504 C503 0.980 1_545 S
H505 C503 0.981 . S
H506 C503 0.981 . S
O507 Zn483 2.066 . S
O507 C486 1.256 . S
O508 Zn480 2.053 . S
O508 C486 1.244 . S
C509 O487 1.259 . S
C509 O488 1.254 . S
O510 Zn480 2.066 . S
O510 C482 1.256 . S
O511 C482 1.244 . S
O511 Zn483 2.053 . S
C512 C513 1.387 . S
C512 H516 0.950 . S
C512 C521 1.390 . S
C513 C512 1.387 . S
C513 C515 1.387 . S
H514 C521 0.950 . S
C515 C513 1.387 . S
C515 C517 1.390 . S
C515 H519 0.950 . S
H516 C512 0.950 . S
C517 C515 1.390 . S
C517 C518 1.387 . S
C517 H520 0.950 . S
C518 C517 1.387 . S
C518 C521 1.387 . S
H519 C515 0.950 . S
H520 C517 0.950 . S
C521 C512 1.390 . S
C521 H514 0.950 . S
C521 C518 1.387 . S
C522 C523 1.387 . S
C522 H526 0.950 . S
C522 C531 1.390 . S
C523 C522 1.387 . S
C523 C525 1.387 . S
H524 C531 0.950 . S
C525 C523 1.387 . S
C525 C527 1.390 . S
C525 H529 0.950 . S
H526 C522 0.950 . S
C527 C525 1.390 . S
C527 C528 1.387 . S
C527 H530 0.950 . S
C528 C527 1.387 . S
C528 C531 1.387 . S
H529 C525 0.950 . S
H530 C527 0.950 . S
C531 C522 1.390 . S
C531 H524 0.950 . S
C531 C528 1.387 . S
C532 C533 1.387 . S
C532 H536 0.950 . S
C532 C541 1.390 1_455 S
C533 C532 1.387 . S
C533 C535 1.387 . S
H534 C541 0.950 . S
C535 C533 1.387 . S
C535 C537 1.390 1_455 S
C535 H539 0.950 . S
H536 C532 0.950 . S
C537 C535 1.390 1_655 S
C537 C538 1.387 . S
C537 H540 0.950 . S
C538 C537 1.387 . S
C538 C541 1.387 . S
H539 C535 0.950 . S
H540 C537 0.950 . S
C541 C532 1.390 1_655 S
C541 H534 0.950 . S
C541 C538 1.387 . S
C542 C543 1.387 . S
C542 H546 0.950 . S
C542 C551 1.390 1_455 S
C543 C542 1.387 . S
C543 C545 1.387 . S
H544 C551 0.950 . S
C545 C543 1.387 . S
C545 C547 1.390 1_455 S
C545 H549 0.948 1_556 S
H546 C542 0.950 . S
C547 C545 1.390 1_655 S
C547 C548 1.387 . S
C547 H550 0.948 1_556 S
C548 C547 1.387 . S
C548 C551 1.387 . S
H549 C545 0.948 1_554 S
H550 C547 0.948 1_554 S
C551 C542 1.390 1_655 S
C551 H544 0.950 . S
C551 C548 1.387 . S
C552 C553 1.387 . S
C552 H556 0.950 . S
C552 C561 1.390 . S
C553 C552 1.387 . S
C553 C555 1.387 . S
H554 C561 0.950 . S
C555 C553 1.387 . S
C555 C557 1.390 . S
C555 H559 0.950 . S
H556 C552 0.950 . S
C557 C555 1.390 . S
C557 C558 1.387 . S
C557 H560 0.950 . S
C558 C557 1.387 . S
C558 C561 1.387 . S
H559 C555 0.950 . S
H560 C557 0.950 . S
C561 C552 1.390 . S
C561 H554 0.950 . S
C561 C558 1.387 . S
C562 C563 1.387 . S
C562 H566 0.950 . S
C562 C571 1.390 . S
C563 C562 1.387 . S
C563 C565 1.387 . S
H564 C571 0.950 . S
C565 C563 1.387 . S
C565 C567 1.390 . S
C565 H569 0.950 . S
H566 C562 0.950 . S
C567 C565 1.390 . S
C567 C568 1.387 . S
C567 H570 0.950 . S
C568 C567 1.387 . S
C568 C571 1.387 . S
H569 C565 0.950 . S
H570 C567 0.950 . S
C571 C562 1.390 . S
C571 H564 0.950 . S
C571 C568 1.387 . S
C572 C573 1.387 . S
C572 H576 0.950 . S
C572 C581 1.390 1_655 S
C573 C572 1.387 . S
C573 C575 1.387 . S
H574 C581 0.950 . S
C575 C573 1.387 . S
C575 C577 1.390 1_655 S
C575 H579 0.950 . S
H576 C572 0.950 . S
C577 C575 1.390 1_455 S
C577 C578 1.387 . S
C577 H580 0.950 . S
C578 C577 1.387 . S
C578 C581 1.387 . S
H579 C575 0.950 . S
H580 C577 0.950 . S
C581 C572 1.390 1_455 S
C581 H574 0.950 . S
C581 C578 1.387 . S
C582 C583 1.387 . S
C582 H586 0.950 . S
C582 C591 1.390 1_655 S
C583 C582 1.387 . S
C583 C585 1.387 . S
H584 C591 0.950 . S
C585 C583 1.387 . S
C585 C587 1.390 1_655 S
C585 H589 0.948 1_554 S
H586 C582 0.950 . S
C587 C585 1.390 1_455 S
C587 C588 1.387 . S
C587 H590 0.948 1_554 S
C588 C587 1.387 . S
C588 C591 1.387 . S
H589 C585 0.948 1_556 S
H590 C587 0.948 1_556 S
C591 C582 1.390 1_455 S
C591 H584 0.950 . S
C591 C588 1.387 . S
C592 C593 1.387 . S
C592 H596 0.950 . S
C592 C601 1.390 . S
C593 C592 1.387 . S
C593 C595 1.387 . S
H594 C601 0.950 . S
C595 C593 1.387 . S
C595 C597 1.390 . S
C595 H599 0.950 . S
H596 C592 0.950 . S
C597 C595 1.390 . S
C597 C598 1.387 . S
C597 H600 0.950 . S
C598 C597 1.387 . S
C598 C601 1.387 . S
H599 C595 0.950 . S
H600 C597 0.950 . S
C601 C592 1.390 . S
C601 H594 0.950 . S
C601 C598 1.387 . S
C602 C603 1.387 . S
C602 H606 0.950 . S
C602 C611 1.390 . S
C603 C602 1.387 . S
C603 C605 1.387 . S
H604 C611 0.950 . S
C605 C603 1.387 . S
C605 C607 1.390 . S
C605 H609 0.950 . S
H606 C602 0.950 . S
C607 C605 1.390 . S
C607 C608 1.387 . S
C607 H610 0.950 . S
C608 C607 1.387 . S
C608 C611 1.387 . S
H609 C605 0.950 . S
H610 C607 0.950 . S
C611 C602 1.390 . S
C611 H604 0.950 . S
C611 C608 1.387 . S
C612 C613 1.387 . S
C612 H616 0.950 . S
C612 C621 1.390 . S
C613 C612 1.387 . S
C613 C615 1.387 . S
H614 C621 0.950 . S
C615 C613 1.387 . S
C615 C617 1.390 . S
C615 H619 0.950 . S
H616 C612 0.950 . S
C617 C615 1.390 . S
C617 C618 1.387 . S
C617 H620 0.950 . S
C618 C617 1.387 . S
C618 C621 1.387 . S
H619 C615 0.950 . S
H620 C617 0.950 . S
C621 C612 1.390 . S
C621 H614 0.950 . S
C621 C618 1.387 . S
C622 C623 1.387 . S
C622 H626 0.950 . S
C622 C631 1.390 . S
C623 C622 1.387 . S
C623 C625 1.387 . S
H624 C631 0.950 . S
C625 C623 1.387 . S
C625 C627 1.390 . S
C625 H629 0.950 . S
H626 C622 0.950 . S
C627 C625 1.390 . S
C627 C628 1.387 . S
C627 H630 0.950 . S
C628 C627 1.387 . S
C628 C631 1.387 . S
H629 C625 0.950 . S
H630 C627 0.950 . S
C631 C622 1.390 . S
C631 H624 0.950 . S
C631 C628 1.387 . S
C632 C633 1.387 . S
C632 H636 0.950 1_554 S
C632 C641 1.390 . S
C633 C632 1.387 . S
C633 C635 1.387 . S
H634 C641 0.950 . S
C635 C633 1.387 . S
C635 C637 1.390 . S
C635 H639 0.950 . S
H636 C632 0.950 1_556 S
C637 C635 1.390 . S
C637 C638 1.387 . S
C637 H640 0.950 . S
C638 C637 1.387 . S
C638 C641 1.387 . S
H639 C635 0.950 . S
H640 C637 0.950 . S
C641 C632 1.390 . S
C641 H634 0.950 . S
C641 C638 1.387 . S
C642 C643 1.387 . S
C642 H646 0.950 . S
C642 C651 1.390 . S
C643 C642 1.387 . S
C643 C645 1.387 . S
H644 C651 0.950 . S
C645 C643 1.387 . S
C645 C647 1.390 . S
C645 H649 0.950 . S
H646 C642 0.950 . S
C647 C645 1.390 . S
C647 C648 1.387 . S
C647 H650 0.950 . S
C648 C647 1.387 . S
C648 C651 1.387 . S
H649 C645 0.950 . S
H650 C647 0.950 . S
C651 C642 1.390 . S
C651 H644 0.950 . S
C651 C648 1.387 . S
C652 C653 1.387 . S
C652 H656 0.950 . S
C652 C661 1.390 . S
C653 C652 1.387 . S
C653 C655 1.387 . S
H654 C661 0.950 . S
C655 C653 1.387 . S
C655 C657 1.390 . S
C655 H659 0.950 . S
H656 C652 0.950 . S
C657 C655 1.390 . S
C657 C658 1.387 . S
C657 H660 0.950 . S
C658 C657 1.387 . S
C658 C661 1.387 . S
H659 C655 0.950 . S
H660 C657 0.950 . S
C661 C652 1.390 . S
C661 H654 0.950 . S
C661 C658 1.387 . S
C662 C663 1.387 . S
C662 H666 0.950 . S
C662 C671 1.390 . S
C663 C662 1.387 . S
C663 C665 1.387 . S
H664 C671 0.950 . S
C665 C663 1.387 . S
C665 C667 1.390 . S
C665 H669 0.950 . S
H666 C662 0.950 . S
C667 C665 1.390 . S
C667 C668 1.387 . S
C667 H670 0.950 . S
C668 C667 1.387 . S
C668 C671 1.387 . S
H669 C665 0.950 . S
H670 C667 0.950 . S
C671 C662 1.390 . S
C671 H664 0.950 . S
C671 C668 1.387 . S
C672 C673 1.387 . S
C672 H676 0.950 . S
C672 C681 1.390 . S
C673 C672 1.387 . S
C673 C675 1.387 . S
H674 C681 0.950 . S
C675 C673 1.387 . S
C675 C677 1.390 . S
C675 H679 0.950 . S
H676 C672 0.950 . S
C677 C675 1.390 . S
C677 C678 1.387 . S
C677 H680 0.950 . S
C678 C677 1.387 . S
C678 C681 1.387 . S
H679 C675 0.950 . S
H680 C677 0.950 . S
C681 C672 1.390 . S
C681 H674 0.950 . S
C681 C678 1.387 . S
C682 C683 1.387 . S
C682 H686 0.950 . S
C682 C691 1.390 . S
C683 C682 1.387 . S
C683 C685 1.387 . S
H684 C691 0.950 . S
C685 C683 1.387 . S
C685 C687 1.390 . S
C685 H689 0.950 . S
H686 C682 0.950 . S
C687 C685 1.390 . S
C687 C688 1.387 . S
C687 H690 0.950 . S
C688 C687 1.387 . S
C688 C691 1.387 . S
H689 C685 0.950 . S
H690 C687 0.950 . S
C691 C682 1.390 . S
C691 H684 0.950 . S
C691 C688 1.387 . S
C692 C693 1.387 . S
C692 H696 0.950 . S
C692 C701 1.390 . S
C693 C692 1.387 . S
C693 C695 1.387 . S
H694 C701 0.950 . S
C695 C693 1.387 . S
C695 C697 1.390 . S
C695 H699 0.950 1_556 S
H696 C692 0.950 . S
C697 C695 1.390 . S
C697 C698 1.387 . S
C697 H700 0.950 . S
C698 C697 1.387 . S
C698 C701 1.387 . S
H699 C695 0.950 1_554 S
H700 C697 0.950 . S
C701 C692 1.390 . S
C701 H694 0.950 . S
C701 C698 1.387 . S
C702 C703 1.387 . S
C702 H706 0.950 . S
C702 C711 1.390 . S
C703 C702 1.387 . S
C703 C705 1.387 . S
H704 C711 0.950 . S
C705 C703 1.387 . S
C705 C707 1.390 . S
C705 H709 0.950 . S
H706 C702 0.950 . S
C707 C705 1.390 . S
C707 C708 1.387 . S
C707 H710 0.950 . S
C708 C707 1.387 . S
C708 C711 1.387 . S
H709 C705 0.950 . S
H710 C707 0.950 . S
C711 C702 1.390 . S
C711 H704 0.950 . S
C711 C708 1.387 . S
C712 C713 1.387 . S
C712 H716 0.950 . S
C712 C721 1.390 . S
C713 C712 1.387 . S
C713 C715 1.387 . S
H714 C721 0.950 . S
C715 C713 1.387 . S
C715 C717 1.390 . S
C715 H719 0.950 . S
H716 C712 0.950 . S
C717 C715 1.390 . S
C717 C718 1.387 . S
C717 H720 0.950 . S
C718 C717 1.387 . S
C718 C721 1.387 . S
H719 C715 0.950 . S
H720 C717 0.950 . S
C721 C712 1.390 . S
C721 H714 0.950 . S
C721 C718 1.387 . S
C722 C723 1.387 . S
C722 H726 0.950 . S
C722 C731 1.390 . S
C723 C722 1.387 . S
C723 C725 1.387 . S
H724 C731 0.950 . S
C725 C723 1.387 . S
C725 C727 1.390 . S
C725 H729 0.950 . S
H726 C722 0.950 . S
C727 C725 1.390 . S
C727 C728 1.387 . S
C727 H730 0.950 . S
C728 C727 1.387 . S
C728 C731 1.387 . S
H729 C725 0.950 . S
H730 C727 0.950 . S
C731 C722 1.390 . S
C731 H724 0.950 . S
C731 C728 1.387 . S
C732 C733 1.387 . S
C732 H736 0.950 . S
C732 C741 1.390 . S
C733 C732 1.387 . S
C733 C735 1.387 . S
H734 C741 0.950 . S
C735 C733 1.387 . S
C735 C737 1.390 . S
C735 H739 0.950 . S
H736 C732 0.950 . S
C737 C735 1.390 . S
C737 C738 1.387 . S
C737 H740 0.950 1_554 S
C738 C737 1.387 . S
C738 C741 1.387 . S
H739 C735 0.950 . S
H740 C737 0.950 1_556 S
C741 C732 1.390 . S
C741 H734 0.950 . S
C741 C738 1.387 . S
C742 C743 1.387 . S
C742 H746 0.950 . S
C742 C751 1.390 . S
C743 C742 1.387 . S
C743 C745 1.387 . S
H744 C751 0.950 . S
C745 C743 1.387 . S
C745 C747 1.390 . S
C745 H749 0.950 . S
H746 C742 0.950 . S
C747 C745 1.390 . S
C747 C748 1.387 . S
C747 H750 0.950 . S
C748 C747 1.387 . S
C748 C751 1.387 . S
H749 C745 0.950 . S
H750 C747 0.950 . S
C751 C742 1.390 . S
C751 H744 0.950 . S
C751 C748 1.387 . S
C752 C753 1.387 . S
C752 H756 0.950 . S
C752 C761 1.390 . S
C753 C752 1.387 . S
C753 C755 1.387 . S
H754 C761 0.950 . S
C755 C753 1.387 . S
C755 C757 1.390 . S
C755 H759 0.950 . S
H756 C752 0.950 . S
C757 C755 1.390 . S
C757 C758 1.387 . S
C757 H760 0.950 . S
C758 C757 1.387 . S
C758 C761 1.387 . S
H759 C755 0.950 . S
H760 C757 0.950 . S
C761 C752 1.390 . S
C761 H754 0.950 . S
C761 C758 1.387 . S
C762 C763 1.387 . S
C762 H766 0.950 . S
C762 C771 1.390 . S
C763 C762 1.387 . S
C763 C765 1.387 . S
H764 C771 0.950 . S
C765 C763 1.387 . S
C765 C767 1.390 . S
C765 H769 0.950 . S
H766 C762 0.950 . S
C767 C765 1.390 . S
C767 C768 1.387 . S
C767 H770 0.950 . S
C768 C767 1.387 . S
C768 C771 1.387 . S
H769 C765 0.950 . S
H770 C767 0.950 . S
C771 C762 1.390 . S
C771 H764 0.950 . S
C771 C768 1.387 . S
C772 C773 1.387 . S
C772 H776 0.950 . S
C772 C781 1.390 . S
C773 C772 1.387 . S
C773 C775 1.387 . S
H774 C781 0.950 . S
C775 C773 1.387 . S
C775 C777 1.390 . S
C775 H779 0.950 . S
H776 C772 0.950 . S
C777 C775 1.390 . S
C777 C778 1.387 . S
C777 H780 0.950 . S
C778 C777 1.387 . S
C778 C781 1.387 . S
H779 C775 0.950 . S
H780 C777 0.950 . S
C781 C772 1.390 . S
C781 H774 0.950 . S
C781 C778 1.387 . S
C782 C783 1.387 . S
C782 H786 0.950 . S
C782 C791 1.390 . S
C783 C782 1.387 . S
C783 C785 1.387 . S
H784 C791 0.950 . S
C785 C783 1.387 . S
C785 C787 1.390 . S
C785 H789 0.950 . S
H786 C782 0.950 . S
C787 C785 1.390 . S
C787 C788 1.387 . S
C787 H790 0.950 . S
C788 C787 1.387 . S
C788 C791 1.387 . S
H789 C785 0.950 . S
H790 C787 0.950 . S
C791 C782 1.390 . S
C791 H784 0.950 . S
C791 C788 1.387 . S
C792 C793 1.387 . S
C792 H796 0.950 . S
C792 C801 1.390 . S
C793 C792 1.387 . S
C793 C795 1.387 . S
H794 C801 0.950 . S
C795 C793 1.387 . S
C795 C797 1.390 . S
C795 H799 0.950 . S
H796 C792 0.950 . S
C797 C795 1.390 . S
C797 C798 1.387 . S
C797 H800 0.950 . S
C798 C797 1.387 . S
C798 C801 1.387 . S
H799 C795 0.950 . S
H800 C797 0.950 . S
C801 C792 1.390 . S
C801 H794 0.950 . S
C801 C798 1.387 . S
C802 C803 1.387 . S
C802 H806 0.950 . S
C802 C811 1.390 . S
C803 C802 1.387 . S
C803 C805 1.387 . S
H804 C811 0.950 . S
C805 C803 1.387 . S
C805 C807 1.390 . S
C805 H809 0.950 . S
H806 C802 0.950 . S
C807 C805 1.390 . S
C807 C808 1.387 . S
C807 H810 0.950 . S
C808 C807 1.387 . S
C808 C811 1.387 . S
H809 C805 0.950 . S
H810 C807 0.950 . S
C811 C802 1.390 . S
C811 H804 0.950 . S
C811 C808 1.387 . S
C812 C813 1.387 . S
C812 H816 0.950 . S
C812 C821 1.390 . S
C813 C812 1.387 . S
C813 C815 1.387 . S
H814 C821 0.950 . S
C815 C813 1.387 . S
C815 C817 1.390 . S
C815 H819 0.950 . S
H816 C812 0.950 . S
C817 C815 1.390 . S
C817 C818 1.387 . S
C817 H820 0.950 . S
C818 C817 1.387 . S
C818 C821 1.387 . S
H819 C815 0.950 . S
H820 C817 0.950 . S
C821 C812 1.390 . S
C821 H814 0.950 . S
C821 C818 1.387 . S
C822 C823 1.387 . S
C822 H826 0.950 . S
C822 C831 1.390 . S
C823 C822 1.387 . S
C823 C825 1.387 . S
H824 C831 0.950 . S
C825 C823 1.387 . S
C825 C827 1.390 . S
C825 H829 0.950 . S
H826 C822 0.950 . S
C827 C825 1.390 . S
C827 C828 1.387 . S
C827 H830 0.950 . S
C828 C827 1.387 . S
C828 C831 1.387 . S
H829 C825 0.950 . S
H830 C827 0.950 . S
C831 C822 1.390 . S
C831 H824 0.950 . S
C831 C828 1.387 . S
C832 C833 1.387 . S
C832 H836 0.950 . S
C832 C841 1.390 . S
C833 C832 1.387 . S
C833 C835 1.387 . S
H834 C841 0.950 . S
C835 C833 1.387 . S
C835 C837 1.390 . S
C835 H839 0.950 . S
H836 C832 0.950 . S
C837 C835 1.390 . S
C837 C838 1.387 . S
C837 H840 0.950 . S
C838 C837 1.387 . S
C838 C841 1.387 . S
H839 C835 0.950 . S
H840 C837 0.950 . S
C841 C832 1.390 . S
C841 H834 0.950 . S
C841 C838 1.387 . S
C842 C843 1.387 . S
C842 H846 0.950 . S
C842 C851 1.390 . S
C843 C842 1.387 . S
C843 C845 1.387 . S
H844 C851 0.950 . S
C845 C843 1.387 . S
C845 C847 1.390 . S
C845 H849 0.950 . S
H846 C842 0.950 . S
C847 C845 1.390 . S
C847 C848 1.387 . S
C847 H850 0.950 . S
C848 C847 1.387 . S
C848 C851 1.387 . S
H849 C845 0.950 . S
H850 C847 0.950 . S
C851 C842 1.390 . S
C851 H844 0.950 . S
C851 C848 1.387 . S
C852 C853 1.387 . S
C852 H856 0.950 . S
C852 C861 1.390 . S
C853 C852 1.387 . S
C853 C855 1.387 . S
H854 C861 0.950 . S
C855 C853 1.387 . S
C855 C857 1.390 . S
C855 H859 0.950 . S
H856 C852 0.950 . S
C857 C855 1.390 . S
C857 C858 1.387 . S
C857 H860 0.950 . S
C858 C857 1.387 . S
C858 C861 1.387 . S
H859 C855 0.950 . S
H860 C857 0.950 . S
C861 C852 1.390 . S
C861 H854 0.950 . S
C861 C858 1.387 . S
C862 C863 1.387 . S
C862 H866 0.950 . S
C862 C871 1.390 . S
C863 C862 1.387 . S
C863 C865 1.387 . S
H864 C871 0.950 . S
C865 C863 1.387 . S
C865 C867 1.390 . S
C865 H869 0.950 1_554 S
H866 C862 0.950 . S
C867 C865 1.390 . S
C867 C868 1.387 . S
C867 H870 0.950 . S
C868 C867 1.387 . S
C868 C871 1.387 . S
H869 C865 0.950 1_556 S
H870 C867 0.950 . S
C871 C862 1.390 . S
C871 H864 0.950 . S
C871 C868 1.387 . S
C872 C873 1.387 . S
C872 H876 0.950 . S
C872 C881 1.390 . S
C873 C872 1.387 . S
C873 C875 1.387 . S
H874 C881 0.950 . S
C875 C873 1.387 . S
C875 C877 1.390 . S
C875 H879 0.950 . S
H876 C872 0.950 . S
C877 C875 1.390 . S
C877 C878 1.387 . S
C877 H880 0.950 . S
C878 C877 1.387 . S
C878 C881 1.387 . S
H879 C875 0.950 . S
H880 C877 0.950 . S
C881 C872 1.390 . S
C881 H874 0.950 . S
C881 C878 1.387 . S
C882 C883 1.387 . S
C882 H886 0.950 . S
C882 C891 1.390 . S
C883 C882 1.387 . S
C883 C885 1.387 . S
H884 C891 0.950 . S
C885 C883 1.387 . S
C885 C887 1.390 . S
C885 H889 0.950 . S
H886 C882 0.950 . S
C887 C885 1.390 . S
C887 C888 1.387 . S
C887 H890 0.950 . S
C888 C887 1.387 . S
C888 C891 1.387 . S
H889 C885 0.950 . S
H890 C887 0.950 . S
C891 C882 1.390 . S
C891 H884 0.950 . S
C891 C888 1.387 . S
C892 C893 1.387 . S
C892 H896 0.950 . S
C892 C901 1.390 . S
C893 C892 1.387 . S
C893 C895 1.387 . S
H894 C901 0.950 . S
C895 C893 1.387 . S
C895 C897 1.390 . S
C895 H899 0.950 . S
H896 C892 0.950 . S
C897 C895 1.390 . S
C897 C898 1.387 . S
C897 H900 0.950 . S
C898 C897 1.387 . S
C898 C901 1.387 . S
H899 C895 0.950 . S
H900 C897 0.950 . S
C901 C892 1.390 . S
C901 H894 0.950 . S
C901 C898 1.387 . S
C902 C903 1.387 . S
C902 H906 0.950 . S
C902 C911 1.390 . S
C903 C902 1.387 . S
C903 C905 1.387 . S
H904 C911 0.950 . S
C905 C903 1.387 . S
C905 C907 1.390 . S
C905 H909 0.950 . S
H906 C902 0.950 . S
C907 C905 1.390 . S
C907 C908 1.387 . S
C907 H910 0.950 . S
C908 C907 1.387 . S
C908 C911 1.387 . S
H909 C905 0.950 . S
H910 C907 0.950 . S
C911 C902 1.390 . S
C911 H904 0.950 . S
C911 C908 1.387 . S
C912 C913 1.387 . S
C912 H916 0.950 . S
C912 C921 1.390 . S
C913 C912 1.387 . S
C913 C915 1.387 . S
H914 C921 0.950 . S
C915 C913 1.387 . S
C915 C917 1.390 . S
C915 H919 0.950 . S
H916 C912 0.950 . S
C917 C915 1.390 . S
C917 C918 1.387 . S
C917 H920 0.950 . S
C918 C917 1.387 . S
C918 C921 1.387 . S
H919 C915 0.950 . S
H920 C917 0.950 . S
C921 C912 1.390 . S
C921 H914 0.950 . S
C921 C918 1.387 . S
C922 C923 1.387 . S
C922 H926 0.950 . S
C922 C931 1.390 . S
C923 C922 1.387 . S
C923 C925 1.387 . S
H924 C931 0.950 . S
C925 C923 1.387 . S
C925 C927 1.390 . S
C925 H929 0.950 . S
H926 C922 0.950 . S
C927 C925 1.390 . S
C927 C928 1.387 . S
C927 H930 0.950 . S
C928 C927 1.387 . S
C928 C931 1.387 . S
H929 C925 0.950 . S
H930 C927 0.950 . S
C931 C922 1.390 . S
C931 H924 0.950 . S
C931 C928 1.387 . S
C932 C933 1.387 . S
C932 H936 0.950 . S
C932 C941 1.390 . S
C933 C932 1.387 . S
C933 C935 1.387 . S
H934 C941 0.950 . S
C935 C933 1.387 . S
C935 C937 1.390 . S
C935 H939 0.950 . S
H936 C932 0.950 . S
C937 C935 1.390 . S
C937 C938 1.387 . S
C937 H940 0.950 . S
C938 C937 1.387 . S
C938 C941 1.387 . S
H939 C935 0.950 . S
H940 C937 0.950 . S
C941 C932 1.390 . S
C941 H934 0.950 . S
C941 C938 1.387 . S
C942 C943 1.387 . S
C942 H946 0.950 . S
C942 C951 1.390 1_554 S
C943 C942 1.387 . S
C943 C945 1.387 1_455 S
H944 C951 0.950 . S
C945 C943 1.387 1_655 S
C945 C947 1.390 1_554 S
C945 H949 0.950 . S
H946 C942 0.950 . S
C947 C945 1.390 1_556 S
C947 C948 1.387 . S
C947 H950 0.950 . S
C948 C947 1.387 . S
C948 C951 1.387 1_655 S
H949 C945 0.950 . S
H950 C947 0.950 . S
C951 C942 1.390 1_556 S
C951 H944 0.950 . S
C951 C948 1.387 1_455 S
C952 C953 1.387 . S
C952 H956 0.950 . S
C952 C961 1.390 . S
C953 C952 1.387 . S
C953 C955 1.387 . S
H954 C961 0.950 . S
C955 C953 1.387 . S
C955 C957 1.390 . S
C955 H959 0.950 . S
H956 C952 0.950 . S
C957 C955 1.390 . S
C957 C958 1.387 . S
C957 H960 0.950 . S
C958 C957 1.387 . S
C958 C961 1.387 . S
H959 C955 0.950 . S
H960 C957 0.950 . S
C961 C952 1.390 . S
C961 H954 0.950 . S
C961 C958 1.387 . S
C962 C963 1.387 . S
C962 H966 0.950 . S
C962 C971 1.390 . S
C963 C962 1.387 . S
C963 C965 1.387 . S
H964 C971 0.950 . S
C965 C963 1.387 . S
C965 C967 1.390 . S
C965 H969 0.950 . S
H966 C962 0.950 . S
C967 C965 1.390 . S
C967 C968 1.387 . S
C967 H970 0.950 . S
C968 C967 1.387 . S
C968 C971 1.387 . S
H969 C965 0.950 . S
H970 C967 0.950 . S
C971 C962 1.390 . S
C971 H964 0.950 . S
C971 C968 1.387 . S
C972 C973 1.387 1_655 S
C972 H976 0.950 . S
C972 C981 1.390 1_556 S
C973 C972 1.387 1_455 S
C973 C975 1.387 1_545 S
H974 C981 0.950 . S
C975 C973 1.387 1_565 S
C975 C977 1.390 1_556 S
C975 H979 0.950 . S
H976 C972 0.950 . S
C977 C975 1.390 1_554 S
C977 C978 1.387 1_455 S
C977 H980 0.950 . S
C978 C977 1.387 1_655 S
C978 C981 1.387 1_565 S
H979 C975 0.950 . S
H980 C977 0.950 . S
C981 C972 1.390 1_554 S
C981 H974 0.950 . S
C981 C978 1.387 1_545 S
C982 C983 1.387 1_565 S
C982 H986 0.950 . S
C982 C991 1.390 . S
C983 C982 1.387 1_545 S
C983 C985 1.387 . S
H984 C991 0.950 . S
C985 C983 1.387 . S
C985 C987 1.390 . S
C985 H989 0.950 . S
H986 C982 0.950 . S
C987 C985 1.390 . S
C987 C988 1.387 1_545 S
C987 H990 0.950 . S
C988 C987 1.387 1_565 S
C988 C991 1.387 . S
H989 C985 0.950 . S
H990 C987 0.950 . S
C991 C982 1.390 . S
C991 H984 0.950 . S
C991 C988 1.387 . S
C513 N13 0.597 . S
C518 N338 0.597 . S
C523 N50 0.597 . S
C528 N370 0.597 . S
C533 N82 0.587 . S
C538 N269 0.587 . S
C543 N114 0.587 1_455 S
C548 N306 0.587 1_655 S
C553 N146 0.597 . S
C558 N461 0.597 . S
C563 N178 0.587 . S
C568 N498 0.587 . S
C573 N210 0.587 . S
C578 N402 0.587 . S
C583 N242 0.597 1_655 S
C588 N434 0.597 1_455 S
C593 C317 1.089 . S
C598 N18 1.145 . S
C603 C349 1.088 . S
C608 N45 1.143 . S
C613 C381 1.091 . S
C618 N77 1.142 . S
C623 C260 1.090 . S
C628 N109 1.142 . S
C633 N141 1.145 . S
C638 C445 1.091 . S
C643 C452 1.088 . S
C648 N173 1.142 . S
C653 C509 1.090 . S
C658 N205 1.145 . S
C663 C413 1.089 . S
C668 N237 1.142 . S
C673 C61 1.088 . S
C678 N274 1.142 . S
C683 N301 1.144 . S
C688 C93 1.091 . S
C693 N333 1.145 . S
C698 C125 1.091 . S
C703 N365 1.144 . S
C708 C4 1.092 . S
C713 N397 1.145 . S
C718 C189 1.088 . S
C723 C221 1.092 . S
C728 N429 1.144 . S
C733 C253 1.089 . S
C738 N466 1.142 . S
C743 N493 1.142 . S
C748 C157 1.088 . S
C753 C29 2.085 . S
C758 C482 2.093 . S
C763 C36 2.083 . S
C768 C130 2.092 . S
C773 C418 2.092 1_455 S
C778 C68 2.085 . S
C783 C194 2.091 . S
C788 C100 2.084 . S
C793 C132 2.085 . S
C798 C354 2.092 . S
C803 C164 2.085 . S
C808 C6 2.093 . S
C813 C290 2.092 1_655 S
C818 C196 2.085 . S
C823 C66 2.093 . S
C828 C228 2.084 . S
C833 C285 2.085 . S
C838 C226 2.092 1_655 S
C843 C292 2.084 . S
C848 C386 2.092 . S
C853 C162 2.092 . S
C858 C324 2.084 . S
C863 C454 2.093 . S
C868 C356 2.084 . S
C873 C388 2.084 . S
C878 C98 2.093 1_455 S
C883 C420 2.085 . S
C888 C262 2.093 . S
C893 C477 2.085 . S
C898 C34 2.092 . S
C903 C322 2.091 . S
C908 C484 2.083 . S
C913 C2 2.313 . S
C918 C390 2.313 . S
C923 C38 2.313 . S
C928 C166 2.313 . S
C933 C70 2.314 . S
C938 C450 2.314 . S
C943 C230 2.314 . S
C948 C102 2.314 . S
C953 C134 2.314 . S
C958 C258 2.314 . S
C963 C326 2.314 . S
C968 C198 2.314 . S
C973 C294 2.314 . S
C978 C422 2.314 . S
C983 C486 2.314 . S
C988 C358 2.314 . S
