# Generated by pormake.
# Topology ukg, (4)-cn, num edge types: 1
# Building blocks:
#     Node 0, Type 0, BuildingBlock: NAWXER_clean_sbu_0, # of connection points: 4
#     Node 1, Type 0, BuildingBlock: NAWXER_clean_sbu_0, # of connection points: 4
#     Node 2, Type 0, BuildingBlock: NAWXER_clean_sbu_0, # of connection points: 4
#     Node 3, Type 0, BuildingBlock: NAWXER_clean_sbu_0, # of connection points: 4
#     Node 4, Type 0, BuildingBlock: NAWXER_clean_sbu_0, # of connection points: 4
#     Node 5, Type 0, BuildingBlock: NAWXER_clean_sbu_0, # of connection points: 4
#     Node 6, Type 0, BuildingBlock: NAWXER_clean_sbu_0, # of connection points: 4
#     Node 7, Type 0, BuildingBlock: NAWXER_clean_sbu_0, # of connection points: 4
#     Edge 8, Type (0, 0), BuildingBlock: XIVTED_clean_linker_0, # of connection points: 2
#     Edge 9, Type (0, 0), BuildingBlock: XIVTED_clean_linker_0, # of connection points: 2
#     Edge 10, Type (0, 0), BuildingBlock: XIVTED_clean_linker_0, # of connection points: 2
#     Edge 11, Type (0, 0), BuildingBlock: XIVTED_clean_linker_0, # of connection points: 2
#     Edge 12, Type (0, 0), BuildingBlock: XIVTED_clean_linker_0, # of connection points: 2
#     Edge 13, Type (0, 0), BuildingBlock: XIVTED_clean_linker_0, # of connection points: 2
#     Edge 14, Type (0, 0), BuildingBlock: XIVTED_clean_linker_0, # of connection points: 2
#     Edge 15, Type (0, 0), BuildingBlock: XIVTED_clean_linker_0, # of connection points: 2
#     Edge 16, Type (0, 0), BuildingBlock: XIVTED_clean_linker_0, # of connection points: 2
#     Edge 17, Type (0, 0), BuildingBlock: XIVTED_clean_linker_0, # of connection points: 2
#     Edge 18, Type (0, 0), BuildingBlock: XIVTED_clean_linker_0, # of connection points: 2
#     Edge 19, Type (0, 0), BuildingBlock: XIVTED_clean_linker_0, # of connection points: 2
#     Edge 20, Type (0, 0), BuildingBlock: XIVTED_clean_linker_0, # of connection points: 2
#     Edge 21, Type (0, 0), BuildingBlock: XIVTED_clean_linker_0, # of connection points: 2
#     Edge 22, Type (0, 0), BuildingBlock: XIVTED_clean_linker_0, # of connection points: 2
#     Edge 23, Type (0, 0), BuildingBlock: XIVTED_clean_linker_0, # of connection points: 2
# Relax obj value: 0.100
# Max RMSD: 0.242
# Mean RMSD: 0.242
data_MOF--net-ukg--node1-NAWXER_clean_sbu_0--edge1-XIVTED_clean_linker_0
_symmetry_space_group_name_H-M    P1
_symmetry_Int_Tables_number       1
_symmetry_cell_setting            triclinic
loop_
_symmetry_equiv_pos_as_xyz
'x, y, z'
_cell_length_a     31.217318
_cell_length_b     31.215083
_cell_length_c     38.829385
_cell_angle_alpha  90.001906
_cell_angle_beta   90.017696
_cell_angle_gamma 90.006573
loop_
_atom_site_label
_atom_site_type_symbol
_atom_site_fract_x
_atom_site_fract_y
_atom_site_fract_z
_atom_type_partial_charge
C0 C 0.10874 0.675 0.15121 0.0
C1 C 0.97825 0.60725 0.19089 0.0
O2 O 0.10301 0.64702 0.1744 0.0
Zn3 Zn 0.04296 0.63966 0.16885 0.0
O4 O 0.0769 0.68715 0.13266 0.0
Zn5 Zn 0.00896 0.67186 0.13083 0.0
O6 O 0.98221 0.72614 0.13834 0.0
O7 O 0.01763 0.70196 0.1836 0.0
O8 O 0.97097 0.63126 0.16466 0.0
O9 O 0.01629 0.60302 0.20188 0.0
O10 O 0.03547 0.60425 0.12115 0.0
O11 O 0.0002 0.64743 0.08639 0.0
C12 C 0.99461 0.73097 0.16922 0.0
C13 C 0.01803 0.61158 0.09177 0.0
C14 C 0.31927 0.60693 0.64287 0.0
C15 C 0.38899 0.48102 0.68982 0.0
O16 O 0.34828 0.60415 0.6656 0.0
Zn17 Zn 0.35536 0.54338 0.66471 0.0
O18 O 0.30641 0.57298 0.62732 0.0
Zn19 Zn 0.32326 0.50563 0.62876 0.0
O20 O 0.26987 0.47844 0.63804 0.0
O21 O 0.29345 0.51814 0.68121 0.0
O22 O 0.36489 0.47142 0.66415 0.0
O23 O 0.39262 0.51986 0.69906 0.0
O24 O 0.3906 0.53184 0.61768 0.0
O25 O 0.34778 0.49379 0.58459 0.0
C26 C 0.26495 0.49316 0.66825 0.0
C27 C 0.38351 0.5122 0.58921 0.0
C28 C 0.50129 0.76937 0.16896 0.0
C29 C 0.4834 0.88627 0.08791 0.0
O30 O 0.51378 0.77188 0.1379 0.0
Zn31 Zn 0.48973 0.82688 0.12859 0.0
O32 O 0.47936 0.80003 0.18226 0.0
Zn33 Zn 0.45618 0.86252 0.16516 0.0
O34 O 0.39572 0.85728 0.17008 0.0
O35 O 0.42135 0.81436 0.12998 0.0
O36 O 0.46538 0.8949 0.11677 0.0
O37 O 0.50077 0.84995 0.08366 0.0
O38 O 0.52863 0.86579 0.16278 0.0
O39 O 0.48388 0.90095 0.19659 0.0
C40 C 0.38954 0.82846 0.14762 0.0
C41 C 0.52193 0.89242 0.18738 0.0
C42 C 0.11548 0.98764 0.58764 0.0
C43 C 0.23465 0.00207 0.66721 0.0
O44 O 0.15185 0.00474 0.58289 0.0
Zn45 Zn 0.17595 0.9922 0.62728 0.0
O46 O 0.10769 0.96865 0.61626 0.0
Zn47 Zn 0.14183 0.95643 0.66353 0.0
O48 O 0.10507 0.98179 0.6971 0.0
O49 O 0.13579 0.02885 0.66252 0.0
O50 O 0.20405 0.97998 0.68043 0.0
O51 O 0.23155 0.01528 0.63638 0.0
O52 O 0.18921 0.92432 0.62621 0.0
O53 O 0.14685 0.89522 0.66509 0.0
C54 C 0.11077 0.02042 0.68793 0.0
C55 C 0.17538 0.89106 0.64212 0.0
C56 C 0.02393 0.38627 0.81384 0.0
C57 C 0.89302 0.32238 0.85754 0.0
O58 O 0.03158 0.35903 0.83787 0.0
Zn59 Zn 0.99391 0.32004 0.8731 0.0
O60 O 0.98552 0.39543 0.80599 0.0
Zn61 Zn 0.95894 0.35675 0.83783 0.0
O62 O 0.97126 0.38838 0.88582 0.0
O63 O 0.00697 0.34277 0.91808 0.0
O64 O 0.89755 0.35238 0.83583 0.0
O65 O 0.92602 0.30748 0.87315 0.0
O66 O 0.01557 0.26439 0.8631 0.0
O67 O 0.98159 0.29448 0.81934 0.0
C68 C 0.99018 0.37943 0.91422 0.0
C69 C 0.00276 0.26285 0.83206 0.0
C70 C 0.73034 0.49917 0.32903 0.0
C71 C 0.61201 0.48193 0.40896 0.0
O72 O 0.69836 0.48023 0.31479 0.0
Zn73 Zn 0.63559 0.45737 0.33106 0.0
O74 O 0.72864 0.50895 0.36075 0.0
Zn75 Zn 0.67196 0.48812 0.36887 0.0
O76 O 0.68193 0.41972 0.36598 0.0
O77 O 0.63979 0.39676 0.32436 0.0
O78 O 0.64872 0.49817 0.41393 0.0
O79 O 0.60323 0.46533 0.37957 0.0
O80 O 0.59801 0.48743 0.30053 0.0
O81 O 0.63455 0.52985 0.33541 0.0
C82 C 0.66769 0.38899 0.34726 0.0
C83 C 0.60767 0.52486 0.31066 0.0
C84 C 0.51258 0.11671 0.90908 0.0
C85 C 0.49821 0.23467 0.82851 0.0
O86 O 0.53154 0.10838 0.88055 0.0
Zn87 Zn 0.54379 0.14186 0.83297 0.0
O88 O 0.49553 0.15318 0.9134 0.0
Zn89 Zn 0.50786 0.17655 0.86881 0.0
O90 O 0.4713 0.13596 0.8339 0.0
O91 O 0.51825 0.10478 0.79952 0.0
O92 O 0.4846 0.2319 0.85925 0.0
O93 O 0.5204 0.20392 0.81563 0.0
O94 O 0.60507 0.14727 0.83144 0.0
O95 O 0.57555 0.19043 0.86955 0.0
C96 C 0.47963 0.11068 0.80864 0.0
C97 C 0.60892 0.17657 0.85384 0.0
C98 C 0.88556 0.01778 0.40843 0.0
C99 C 0.76676 0.99614 0.32991 0.0
O100 O 0.89304 0.03563 0.37929 0.0
Zn101 Zn 0.85902 0.04331 0.33138 0.0
O102 O 0.84977 -0.00034 0.41341 0.0
Zn103 Zn 0.82523 0.00938 0.36887 0.0
O104 O 0.86386 0.97087 0.33428 0.0
O105 O 0.89705 0.01585 0.2994 0.0
O106 O 0.77055 0.98395 0.36097 0.0
O107 O 0.79653 0.01851 0.31581 0.0
O108 O 0.85175 0.10362 0.32585 0.0
O109 O 0.81068 0.07727 0.36691 0.0
C110 C 0.88958 0.97775 0.3091 0.0
C111 C 0.82322 0.10919 0.34865 0.0
H112 H 0.02931 0.37268 0.9774 0.0
H113 H 0.98384 0.61746 0.02718 0.0
H114 H 0.9603 0.4617 0.91285 0.0
H115 H 0.04796 0.52884 0.09525 0.0
H116 H 0.97722 0.56082 0.98442 0.0
H117 H 0.03779 0.42916 0.02062 0.0
C118 C 0.01578 0.40401 0.97236 0.0
C119 C 0.99403 0.41243 0.94143 0.0
C120 C 0.99284 0.55368 0.00865 0.0
C121 C 0.00388 0.47723 0.99067 0.0
C122 C 0.99675 0.58611 0.03311 0.0
C123 C 0.01643 0.57792 0.06494 0.0
C124 C 0.00869 0.51258 0.01595 0.0
C125 C 0.03255 0.53661 0.07107 0.0
C126 C 0.02073 0.43626 0.99702 0.0
C127 C 0.97727 0.45366 0.93629 0.0
N128 N 0.02823 0.50542 0.04682 0.0
N129 N 0.98262 0.48446 0.96059 0.0
H130 H 0.46535 0.54407 0.59173 0.0
H131 H 0.53013 0.4506 0.40676 0.0
H132 H 0.379 0.47305 0.52622 0.0
H133 H 0.61797 0.51889 0.47287 0.0
H134 H 0.47454 0.45825 0.4505 0.0
H135 H 0.52158 0.53579 0.54842 0.0
C136 C 0.45813 0.52691 0.56819 0.0
C137 C 0.41735 0.50925 0.56262 0.0
C138 C 0.506 0.47147 0.45551 0.0
C139 C 0.48167 0.49944 0.51301 0.0
C140 C 0.53783 0.46703 0.43055 0.0
C141 C 0.57882 0.48417 0.43611 0.0
C142 C 0.5151 0.49331 0.48629 0.0
C143 C 0.58685 0.50515 0.46745 0.0
C144 C 0.4903 0.52208 0.54351 0.0
C145 C 0.40992 0.48723 0.53165 0.0
N146 N 0.55525 0.50923 0.49131 0.0
N147 N 0.44176 0.48293 0.50807 0.0
H148 H 0.52068 0.87933 0.02427 0.0
H149 H 0.47372 0.12312 0.97215 0.0
H150 H 0.45246 0.96841 0.08929 0.0
H151 H 0.54267 0.03426 0.90744 0.0
H152 H 0.46545 0.06681 0.01529 0.0
H153 H 0.52805 0.93536 0.9808 0.0
C154 C 0.50704 0.9106 0.02936 0.0
C155 C 0.48594 0.91916 0.06053 0.0
C156 C 0.48245 0.05963 0.99168 0.0
C157 C 0.49452 0.9836 0.01087 0.0
C158 C 0.48728 0.09182 0.96704 0.0
C159 C 0.50895 0.08344 0.93609 0.0
C160 C 0.49936 0.01869 0.98537 0.0
C161 C 0.52577 0.04223 0.93091 0.0
C162 C 0.51137 0.94263 0.00453 0.0
C163 C 0.46898 0.96033 0.06566 0.0
N164 N 0.52056 0.0114 0.95527 0.0
N165 N 0.47373 0.99102 0.04113 0.0
H166 H 0.96713 0.0503 0.40568 0.0
H167 H 0.03354 0.95654 0.59021 0.0
H168 H 0.88083 0.98086 0.47227 0.0
H169 H 0.12008 0.02721 0.52466 0.0
H170 H 0.97727 0.96521 0.54713 0.0
H171 H 0.02337 0.04312 0.44914 0.0
C172 C 0.9599 0.03377 0.42951 0.0
C173 C 0.91917 0.01611 0.43529 0.0
C174 C 0.00858 0.97879 0.54212 0.0
C175 C 0.98352 0.00752 0.48506 0.0
C176 C 0.0408 0.97375 0.5667 0.0
C177 C 0.08166 0.99115 0.56106 0.0
C178 C 0.01717 0.00141 0.51162 0.0
C179 C 0.08909 0.01321 0.53011 0.0
C180 C 0.99208 0.02958 0.45428 0.0
C181 C 0.91172 0.99497 0.46665 0.0
N182 N 0.05716 0.01774 0.50658 0.0
N183 N 0.94359 0.99117 0.49027 0.0
H184 H 0.16944 0.68248 0.20084 0.0
H185 H 0.35574 0.78406 0.09268 0.0
H186 H 0.14369 0.71599 0.09498 0.0
H187 H 0.32649 0.82676 0.19577 0.0
H188 H 0.28615 0.74665 0.09091 0.0
H189 H 0.2371 0.72147 0.19759 0.0
C190 C 0.17826 0.69763 0.17675 0.0
C191 C 0.15091 0.69609 0.14812 0.0
C192 C 0.29509 0.76462 0.11367 0.0
C193 C 0.22843 0.74035 0.14429 0.0
C194 C 0.33463 0.78579 0.11477 0.0
C195 C 0.3468 0.80854 0.14441 0.0
C196 C 0.26851 0.76528 0.14279 0.0
C197 C 0.31833 0.8098 0.17234 0.0
C198 C 0.21668 0.72007 0.17505 0.0
C199 C 0.16387 0.71663 0.11765 0.0
N200 N 0.28082 0.78794 0.17104 0.0
N201 N 0.20204 0.73778 0.11639 0.0
H202 H 0.35549 0.68607 0.64847 0.0
H203 H 0.139 0.81238 0.65208 0.0
H204 H 0.23701 0.62281 0.62226 0.0
H205 H 0.2555 0.87329 0.61779 0.0
H206 H 0.1739 0.74237 0.64614 0.0
H207 H 0.31967 0.75547 0.64222 0.0
C208 C 0.32201 0.68686 0.64113 0.0
C209 C 0.29908 0.64877 0.63592 0.0
C210 C 0.19156 0.77108 0.63951 0.0
C211 C 0.2579 0.72776 0.62943 0.0
C212 C 0.17179 0.81095 0.64303 0.0
C213 C 0.19449 0.8486 0.6355 0.0
C214 C 0.23462 0.769 0.62931 0.0
C215 C 0.23685 0.84501 0.62376 0.0
C216 C 0.3017 0.72639 0.63743 0.0
C217 C 0.25582 0.65151 0.62635 0.0
N218 N 0.25583 0.80591 0.62157 0.0
N219 N 0.23635 0.6904 0.62397 0.0
H220 H 0.68817 0.14093 0.84517 0.0
H221 H 0.81409 0.35863 0.84802 0.0
H222 H 0.62541 0.25803 0.87579 0.0
H223 H 0.87558 0.24066 0.87819 0.0
H224 H 0.7443 0.32278 0.85207 0.0
H225 H 0.75768 0.17686 0.85108 0.0
C226 C 0.68908 0.17409 0.85335 0.0
C227 C 0.65109 0.19659 0.86001 0.0
C228 C 0.77311 0.30497 0.85816 0.0
C229 C 0.73011 0.2379 0.8661 0.0
C230 C 0.81284 0.3253 0.85574 0.0
C231 C 0.85058 0.30253 0.86278 0.0
C232 C 0.77128 0.26133 0.86673 0.0
C233 C 0.84721 0.25941 0.87272 0.0
C234 C 0.72866 0.19447 0.85684 0.0
C235 C 0.65401 0.2395 0.87059 0.0
N236 N 0.80827 0.23998 0.87388 0.0
N237 N 0.69286 0.25902 0.8728 0.0
H238 H 0.67019 0.32737 0.29772 0.0
H239 H 0.78169 0.14356 0.40465 0.0
H240 H 0.7094 0.35274 0.40237 0.0
H241 H 0.81462 0.16957 0.29876 0.0
H242 H 0.74188 0.21176 0.40653 0.0
H243 H 0.70833 0.25901 0.29989 0.0
C244 C 0.68627 0.31828 0.32134 0.0
C245 C 0.68677 0.3458 0.34989 0.0
C246 C 0.75811 0.20239 0.38306 0.0
C247 C 0.7301 0.26762 0.3525 0.0
C248 C 0.7807 0.16367 0.38193 0.0
C249 C 0.80161 0.15111 0.35155 0.0
C250 C 0.75544 0.22773 0.35328 0.0
C251 C 0.79929 0.17821 0.32278 0.0
C252 C 0.70825 0.27947 0.32243 0.0
C253 C 0.70845 0.33247 0.37975 0.0
N254 N 0.77615 0.21496 0.32422 0.0
N255 N 0.72919 0.2941 0.38038 0.0
H256 H 0.80995 0.52175 0.35216 0.0
H257 H 0.89527 0.59738 0.16922 0.0
H258 H 0.73695 0.50365 0.25885 0.0
H259 H 0.97942 0.57063 0.25482 0.0
H260 H 0.83547 0.5673 0.20211 0.0
H261 H 0.87134 0.54425 0.31751 0.0
C262 C 0.80689 0.52238 0.32437 0.0
C263 C 0.76829 0.51088 0.30835 0.0
C264 C 0.86712 0.56773 0.21353 0.0
C265 C 0.83823 0.53695 0.26862 0.0
C266 C 0.90122 0.58498 0.19484 0.0
C267 C 0.94236 0.58661 0.20934 0.0
C268 C 0.87412 0.55268 0.24715 0.0
C269 C 0.94826 0.56997 0.2426 0.0
C270 C 0.84197 0.53507 0.30462 0.0
C271 C 0.76617 0.51214 0.27224 0.0
N272 N 0.91443 0.55408 0.2605 0.0
N273 N 0.80055 0.52535 0.25358 0.0
H274 H 0.42271 0.48542 0.75479 0.0
H275 H 0.50144 0.24205 0.75838 0.0
H276 H 0.40423 0.39852 0.66957 0.0
H277 H 0.47 0.31306 0.85036 0.0
H278 H 0.47922 0.30363 0.7236 0.0
H279 H 0.45371 0.42661 0.78828 0.0
C280 C 0.42557 0.45409 0.743 0.0
C281 C 0.41065 0.44674 0.70942 0.0
C282 C 0.47741 0.3057 0.75141 0.0
C283 C 0.44621 0.37961 0.74748 0.0
C284 C 0.49022 0.27071 0.77126 0.0
C285 C 0.4873 0.27239 0.8073 0.0
C286 C 0.46222 0.34282 0.76774 0.0
C287 C 0.47244 0.3103 0.82264 0.0
C288 C 0.44305 0.42057 0.76218 0.0
C289 C 0.41503 0.40549 0.69547 0.0
N290 N 0.46049 0.34407 0.80277 0.0
N291 N 0.43246 0.37344 0.71457 0.0
H292 H 0.52905 0.9723 0.2158 0.0
H293 H 0.72497 0.91996 0.33353 0.0
H294 H 0.59695 0.85301 0.20297 0.0
H295 H 0.7246 0.04089 0.27974 0.0
H296 H 0.66537 0.89572 0.29716 0.0
H297 H 0.58943 -0.00022 0.25026 0.0
C298 C 0.5567 0.95205 0.22019 0.0
C299 C 0.55837 0.9105 0.20651 0.0
C300 C 0.67834 0.9276 0.29354 0.0
C301 C 0.62606 0.94099 0.24634 0.0
C302 C 0.71198 0.94152 0.31431 0.0
C303 C 0.72953 0.9824 0.30947 0.0
C304 C 0.66143 0.95526 0.26858 0.0
C305 C 0.7119 0.00905 0.28406 0.0
C306 C 0.59095 0.96772 0.23965 0.0
C307 C 0.59475 0.88538 0.21286 0.0
N308 N 0.67834 0.99518 0.26468 0.0
N309 N 0.62698 0.90079 0.23281 0.0
H310 H 0.02648 0.18287 0.85323 0.0
H311 H 0.10136 0.10431 0.66859 0.0
H312 H 0.00461 0.25816 0.76167 0.0
H313 H 0.07381 0.01662 0.75166 0.0
H314 H 0.07076 0.16269 0.70283 0.0
H315 H 0.04881 0.12277 0.81708 0.0
C316 C 0.02621 0.18668 0.8255 0.0
C317 C 0.01375 0.22556 0.8104 0.0
C318 C 0.07114 0.13058 0.71338 0.0
C319 C 0.03972 0.15714 0.76897 0.0
C320 C 0.08872 0.09731 0.69395 0.0
C321 C 0.09024 0.05558 0.70734 0.0
C322 C 0.0557 0.12216 0.74666 0.0
C323 C 0.07324 0.04829 0.74029 0.0
C324 C 0.0388 0.15234 0.8049 0.0
C325 C 0.01384 0.22867 0.77433 0.0
N326 N 0.05708 0.08134 0.75897 0.0
N327 N 0.0271 0.19503 0.75481 0.0
H328 H 0.02959 0.46636 0.78549 0.0
H329 H 0.22538 0.41574 0.66642 0.0
H330 H 0.09891 0.34763 0.7967 0.0
H331 H 0.22152 0.53828 0.71773 0.0
H332 H 0.16674 0.39086 0.70334 0.0
H333 H 0.08889 0.49471 0.75033 0.0
C334 C 0.0573 0.44639 0.78058 0.0
C335 C 0.05965 0.40474 0.79401 0.0
C336 C 0.17872 0.42322 0.70632 0.0
C337 C 0.12623 0.43629 0.75344 0.0
C338 C 0.21184 0.43752 0.68522 0.0
C339 C 0.22818 0.47907 0.68916 0.0
C340 C 0.16105 0.45107 0.73079 0.0
C341 C 0.20981 0.50595 0.71408 0.0
C342 C 0.09097 0.46258 0.76073 0.0
C343 C 0.09613 0.38004 0.787 0.0
N344 N 0.17676 0.49162 0.73384 0.0
N345 N 0.12779 0.39597 0.76673 0.0
H346 H 0.64836 0.6 0.29713 0.0
H347 H 0.45535 0.7288 0.21932 0.0
H348 H 0.52794 0.53462 0.2826 0.0
H349 H 0.57757 0.72766 0.16754 0.0
H350 H 0.47979 0.6688 0.25568 0.0
H351 H 0.62105 0.6602 0.26277 0.0
C352 C 0.61598 0.59866 0.28712 0.0
C353 C 0.59029 0.56245 0.29253 0.0
C354 C 0.50102 0.68184 0.23627 0.0
C355 C 0.55896 0.631 0.25406 0.0
C356 C 0.48725 0.7159 0.21568 0.0
C357 C 0.51448 0.73275 0.19035 0.0
C358 C 0.54271 0.6659 0.23218 0.0
C359 C 0.55553 0.71514 0.18657 0.0
C360 C 0.60063 0.63273 0.26744 0.0
C361 C 0.54871 0.562 0.27877 0.0
N362 N 0.56867 0.68296 0.2076 0.0
N363 N 0.53408 0.59603 0.26031 0.0
H364 H 0.3964 0.09978 0.829 0.0
H365 H 0.31316 0.02892 0.64464 0.0
H366 H 0.4824 0.07534 0.74422 0.0
H367 H 0.24205 0.00185 0.73743 0.0
H368 H 0.37409 0.05157 0.6799 0.0
H369 H 0.33757 0.06935 0.79516 0.0
C370 C 0.40294 0.08785 0.80334 0.0
C371 C 0.44433 0.09015 0.78937 0.0
C372 C 0.34525 0.04036 0.69251 0.0
C373 C 0.37718 0.05586 0.75047 0.0
C374 C 0.31044 0.02759 0.67243 0.0
C375 C 0.27249 0.01355 0.68815 0.0
C376 C 0.3418 0.03987 0.72855 0.0
C377 C 0.27077 0.01233 0.72426 0.0
C378 C 0.36941 0.07037 0.78412 0.0
C379 C 0.45101 0.07409 0.75603 0.0
N380 N 0.30479 0.02577 0.74328 0.0
N381 N 0.41769 0.05803 0.73756 0.0
H382 H 0.91787 0.77176 0.16538 0.0
H383 H 0.96884 0.97155 0.2794 0.0
H384 H 0.03934 0.7751 0.21832 0.0
H385 H 0.85109 0.90184 0.29485 0.0
H386 H 0.99664 0.9109 0.2454 0.0
H387 H 0.89331 0.8321 0.20082 0.0
C388 C 0.93947 0.78555 0.1842 0.0
C389 C 0.9806 0.76859 0.18909 0.0
C390 C 0.96483 0.90907 0.25646 0.0
C391 C 0.9531 0.83758 0.22889 0.0
C392 C 0.94898 0.94347 0.27565 0.0
C393 C 0.90779 0.94136 0.28997 0.0
C394 C 0.93861 0.87332 0.25067 0.0
C395 C 0.88317 0.90442 0.28445 0.0
C396 C 0.92538 0.81962 0.20444 0.0
C397 C 0.00731 0.78729 0.21399 0.0
N398 N 0.89872 0.87201 0.26475 0.0
N399 N 0.99325 0.82124 0.23283 0.0
loop_
_geom_bond_atom_site_label_1
_geom_bond_atom_site_label_2
_geom_bond_distance
_geom_bond_site_symmetry_2
_ccdc_geom_bond_type
C0 O2 1.247 . S
C0 O4 1.258 . S
C1 O8 1.247 . S
C1 O9 1.258 . S
O2 C0 1.247 . S
O2 Zn3 2.028 . S
Zn3 O2 2.028 . S
Zn3 O7 2.035 . S
Zn3 O9 2.035 1_455 S
Zn3 O10 2.028 . S
O4 C0 1.258 . S
O4 Zn5 2.035 1_455 S
Zn5 O4 2.035 1_655 S
Zn5 O6 2.028 . S
Zn5 O8 2.028 . S
Zn5 O11 2.035 . S
O6 Zn5 2.028 . S
O6 C12 1.247 . S
O7 Zn3 2.035 . S
O7 C12 1.258 1_455 S
O8 C1 1.247 . S
O8 Zn5 2.028 . S
O9 C1 1.258 . S
O9 Zn3 2.035 1_655 S
O10 Zn3 2.028 . S
O10 C13 1.247 . S
O11 Zn5 2.035 . S
O11 C13 1.258 1_655 S
C12 O6 1.247 . S
C12 O7 1.258 1_655 S
C13 O10 1.247 . S
C13 O11 1.258 1_455 S
C14 O16 1.247 . S
C14 O18 1.258 . S
C15 O22 1.247 . S
C15 O23 1.258 . S
O16 C14 1.247 . S
O16 Zn17 2.028 . S
Zn17 O16 2.028 . S
Zn17 O21 2.035 . S
Zn17 O23 2.035 . S
Zn17 O24 2.028 . S
O18 C14 1.258 . S
O18 Zn19 2.035 . S
Zn19 O18 2.035 . S
Zn19 O20 2.028 . S
Zn19 O22 2.028 . S
Zn19 O25 2.035 . S
O20 Zn19 2.028 . S
O20 C26 1.247 . S
O21 Zn17 2.035 . S
O21 C26 1.258 . S
O22 C15 1.247 . S
O22 Zn19 2.028 . S
O23 C15 1.258 . S
O23 Zn17 2.035 . S
O24 Zn17 2.028 . S
O24 C27 1.247 . S
O25 Zn19 2.035 . S
O25 C27 1.258 . S
C26 O20 1.247 . S
C26 O21 1.258 . S
C27 O24 1.247 . S
C27 O25 1.258 . S
C28 O30 1.247 . S
C28 O32 1.258 . S
C29 O36 1.247 . S
C29 O37 1.258 . S
O30 C28 1.247 . S
O30 Zn31 2.028 . S
Zn31 O30 2.028 . S
Zn31 O35 2.035 . S
Zn31 O37 2.035 . S
Zn31 O38 2.028 . S
O32 C28 1.258 . S
O32 Zn33 2.035 . S
Zn33 O32 2.035 . S
Zn33 O34 2.028 . S
Zn33 O36 2.028 . S
Zn33 O39 2.035 . S
O34 Zn33 2.028 . S
O34 C40 1.247 . S
O35 Zn31 2.035 . S
O35 C40 1.258 . S
O36 C29 1.247 . S
O36 Zn33 2.028 . S
O37 C29 1.258 . S
O37 Zn31 2.035 . S
O38 Zn31 2.028 . S
O38 C41 1.247 . S
O39 Zn33 2.035 . S
O39 C41 1.258 . S
C40 O34 1.247 . S
C40 O35 1.258 . S
C41 O38 1.247 . S
C41 O39 1.258 . S
C42 O44 1.247 1_565 S
C42 O46 1.258 . S
C43 O50 1.247 1_545 S
C43 O51 1.258 . S
O44 C42 1.247 1_545 S
O44 Zn45 2.028 . S
Zn45 O44 2.028 . S
Zn45 O49 2.035 . S
Zn45 O51 2.035 . S
Zn45 O52 2.028 1_545 S
O46 C42 1.258 . S
O46 Zn47 2.035 . S
Zn47 O46 2.035 . S
Zn47 O48 2.028 1_565 S
Zn47 O50 2.028 . S
Zn47 O53 2.035 . S
O48 Zn47 2.028 1_545 S
O48 C54 1.247 . S
O49 Zn45 2.035 . S
O49 C54 1.258 . S
O50 C43 1.247 1_565 S
O50 Zn47 2.028 . S
O51 C43 1.258 . S
O51 Zn45 2.035 . S
O52 Zn45 2.028 1_565 S
O52 C55 1.247 . S
O53 Zn47 2.035 . S
O53 C55 1.258 . S
C54 O48 1.247 . S
C54 O49 1.258 . S
C55 O52 1.247 . S
C55 O53 1.258 . S
C56 O58 1.247 . S
C56 O60 1.258 . S
C57 O64 1.247 . S
C57 O65 1.258 . S
O58 C56 1.247 . S
O58 Zn59 2.028 . S
Zn59 O58 2.028 . S
Zn59 O63 2.035 . S
Zn59 O65 2.035 1_455 S
Zn59 O66 2.028 . S
O60 C56 1.258 . S
O60 Zn61 2.035 1_455 S
Zn61 O60 2.035 1_655 S
Zn61 O62 2.028 . S
Zn61 O64 2.028 . S
Zn61 O67 2.035 . S
O62 Zn61 2.028 . S
O62 C68 1.247 . S
O63 Zn59 2.035 . S
O63 C68 1.258 1_455 S
O64 C57 1.247 . S
O64 Zn61 2.028 . S
O65 C57 1.258 . S
O65 Zn59 2.035 1_655 S
O66 Zn59 2.028 . S
O66 C69 1.247 . S
O67 Zn61 2.035 . S
O67 C69 1.258 1_655 S
C68 O62 1.247 . S
C68 O63 1.258 1_655 S
C69 O66 1.247 . S
C69 O67 1.258 1_455 S
C70 O72 1.247 . S
C70 O74 1.258 . S
C71 O78 1.247 . S
C71 O79 1.258 . S
O72 C70 1.247 . S
O72 Zn73 2.028 . S
Zn73 O72 2.028 . S
Zn73 O77 2.035 . S
Zn73 O79 2.035 . S
Zn73 O80 2.028 . S
O74 C70 1.258 . S
O74 Zn75 2.035 . S
Zn75 O74 2.035 . S
Zn75 O76 2.028 . S
Zn75 O78 2.028 . S
Zn75 O81 2.035 . S
O76 Zn75 2.028 . S
O76 C82 1.247 . S
O77 Zn73 2.035 . S
O77 C82 1.258 . S
O78 C71 1.247 . S
O78 Zn75 2.028 . S
O79 C71 1.258 . S
O79 Zn73 2.035 . S
O80 Zn73 2.028 . S
O80 C83 1.247 . S
O81 Zn75 2.035 . S
O81 C83 1.258 . S
C82 O76 1.247 . S
C82 O77 1.258 . S
C83 O80 1.247 . S
C83 O81 1.258 . S
C84 O86 1.247 . S
C84 O88 1.258 . S
C85 O92 1.247 . S
C85 O93 1.258 . S
O86 C84 1.247 . S
O86 Zn87 2.028 . S
Zn87 O86 2.028 . S
Zn87 O91 2.035 . S
Zn87 O93 2.035 . S
Zn87 O94 2.028 . S
O88 C84 1.258 . S
O88 Zn89 2.035 . S
Zn89 O88 2.035 . S
Zn89 O90 2.028 . S
Zn89 O92 2.028 . S
Zn89 O95 2.035 . S
O90 Zn89 2.028 . S
O90 C96 1.247 . S
O91 Zn87 2.035 . S
O91 C96 1.258 . S
O92 C85 1.247 . S
O92 Zn89 2.028 . S
O93 C85 1.258 . S
O93 Zn87 2.035 . S
O94 Zn87 2.028 . S
O94 C97 1.247 . S
O95 Zn89 2.035 . S
O95 C97 1.258 . S
C96 O90 1.247 . S
C96 O91 1.258 . S
C97 O94 1.247 . S
C97 O95 1.258 . S
C98 O100 1.247 . S
C98 O102 1.258 1_545 S
C99 O106 1.247 . S
C99 O107 1.258 1_565 S
O100 C98 1.247 . S
O100 Zn101 2.028 . S
Zn101 O100 2.028 . S
Zn101 O105 2.035 1_545 S
Zn101 O107 2.035 . S
Zn101 O108 2.028 . S
O102 C98 1.258 1_565 S
O102 Zn103 2.035 . S
Zn103 O102 2.035 . S
Zn103 O104 2.028 . S
Zn103 O106 2.028 . S
Zn103 O109 2.035 1_565 S
O104 Zn103 2.028 . S
O104 C110 1.247 . S
O105 Zn101 2.035 1_565 S
O105 C110 1.258 . S
O106 C99 1.247 . S
O106 Zn103 2.028 . S
O107 C99 1.258 1_545 S
O107 Zn101 2.035 . S
O108 Zn101 2.028 . S
O108 C111 1.247 . S
O109 Zn103 2.035 1_545 S
O109 C111 1.258 . S
C110 O104 1.247 . S
C110 O105 1.258 . S
C111 O108 1.247 . S
C111 O109 1.258 . S
H112 C118 0.930 . S
H113 C122 0.930 . S
H114 C127 0.929 . S
H115 C125 0.929 . S
H116 C120 0.929 . S
H117 C126 0.929 . S
C118 H112 0.930 . S
C118 C119 1.367 1_455 S
C118 C126 1.378 . S
C119 C118 1.367 1_655 S
C119 C127 1.433 . S
C120 H116 0.929 . S
C120 C122 1.378 . S
C120 C124 1.350 1_655 S
C121 C124 1.463 1_656 S
C121 C126 1.350 1_655 S
C121 N129 1.427 . S
C122 H113 0.930 . S
C122 C120 1.378 . S
C122 C123 1.367 1_655 S
C123 C122 1.367 1_455 S
C123 C125 1.433 . S
C124 C120 1.350 1_455 S
C124 C121 1.463 1_454 S
C124 N128 1.427 . S
C125 H115 0.929 . S
C125 C123 1.433 . S
C125 N128 1.384 . S
C126 H117 0.929 . S
C126 C118 1.378 . S
C126 C121 1.350 1_455 S
C127 H114 0.929 . S
C127 C119 1.433 . S
C127 N129 1.384 . S
N128 C124 1.427 . S
N128 C125 1.384 . S
N129 C121 1.427 . S
N129 C127 1.384 . S
H130 C136 0.930 . S
H131 C140 0.930 . S
H132 C145 0.929 . S
H133 C143 0.929 . S
H134 C138 0.929 . S
H135 C144 0.929 . S
C136 H130 0.930 . S
C136 C137 1.367 . S
C136 C144 1.378 . S
C137 C136 1.367 . S
C137 C145 1.433 . S
C138 H134 0.929 . S
C138 C140 1.378 . S
C138 C142 1.350 . S
C139 C142 1.463 . S
C139 C144 1.350 . S
C139 N147 1.427 . S
C140 H131 0.930 . S
C140 C138 1.378 . S
C140 C141 1.367 . S
C141 C140 1.367 . S
C141 C143 1.433 . S
C142 C138 1.350 . S
C142 C139 1.463 . S
C142 N146 1.427 . S
C143 H133 0.929 . S
C143 C141 1.433 . S
C143 N146 1.384 . S
C144 H135 0.929 . S
C144 C136 1.378 . S
C144 C139 1.350 . S
C145 H132 0.929 . S
C145 C137 1.433 . S
C145 N147 1.384 . S
N146 C142 1.427 . S
N146 C143 1.384 . S
N147 C139 1.427 . S
N147 C145 1.384 . S
H148 C154 0.930 . S
H149 C158 0.930 . S
H150 C163 0.929 . S
H151 C161 0.929 . S
H152 C156 0.929 1_554 S
H153 C162 0.929 1_556 S
C154 H148 0.930 . S
C154 C155 1.367 . S
C154 C162 1.378 . S
C155 C154 1.367 . S
C155 C163 1.433 . S
C156 H152 0.929 1_556 S
C156 C158 1.378 . S
C156 C160 1.350 . S
C157 C160 1.463 1_564 S
C157 C162 1.350 . S
C157 N165 1.427 . S
C158 H149 0.930 . S
C158 C156 1.378 . S
C158 C159 1.367 . S
C159 C158 1.367 . S
C159 C161 1.433 . S
C160 C156 1.350 . S
C160 C157 1.463 1_546 S
C160 N164 1.427 . S
C161 H151 0.929 . S
C161 C159 1.433 . S
C161 N164 1.384 . S
C162 H153 0.929 1_554 S
C162 C154 1.378 . S
C162 C157 1.350 . S
C163 H150 0.929 . S
C163 C155 1.433 . S
C163 N165 1.384 . S
N164 C160 1.427 . S
N164 C161 1.384 . S
N165 C157 1.427 . S
N165 C163 1.384 . S
H166 C172 0.930 . S
H167 C176 0.930 . S
H168 C181 0.929 . S
H169 C179 0.929 . S
H170 C174 0.929 1_645 S
H171 C180 0.929 1_465 S
C172 H166 0.930 . S
C172 C173 1.367 . S
C172 C180 1.378 . S
C173 C172 1.367 . S
C173 C181 1.433 . S
C174 H170 0.929 1_465 S
C174 C176 1.378 . S
C174 C178 1.350 . S
C175 C178 1.463 1_645 S
C175 C180 1.350 . S
C175 N183 1.427 . S
C176 H167 0.930 . S
C176 C174 1.378 . S
C176 C177 1.367 . S
C177 C176 1.367 . S
C177 C179 1.433 . S
C178 C174 1.350 . S
C178 C175 1.463 1_465 S
C178 N182 1.427 . S
C179 H169 0.929 . S
C179 C177 1.433 . S
C179 N182 1.384 . S
C180 H171 0.929 1_645 S
C180 C172 1.378 . S
C180 C175 1.350 . S
C181 H168 0.929 . S
C181 C173 1.433 . S
C181 N183 1.384 . S
N182 C178 1.427 . S
N182 C179 1.384 . S
N183 C175 1.427 . S
N183 C181 1.384 . S
H184 C190 0.930 . S
H185 C194 0.930 . S
H186 C199 0.929 . S
H187 C197 0.929 . S
H188 C192 0.929 . S
H189 C198 0.929 . S
C190 H184 0.930 . S
C190 C191 1.367 . S
C190 C198 1.378 . S
C191 C190 1.367 . S
C191 C199 1.433 . S
C192 H188 0.929 . S
C192 C194 1.378 . S
C192 C196 1.350 . S
C193 C196 1.463 . S
C193 C198 1.350 . S
C193 N201 1.427 . S
C194 H185 0.930 . S
C194 C192 1.378 . S
C194 C195 1.367 . S
C195 C194 1.367 . S
C195 C197 1.433 . S
C196 C192 1.350 . S
C196 C193 1.463 . S
C196 N200 1.427 . S
C197 H187 0.929 . S
C197 C195 1.433 . S
C197 N200 1.384 . S
C198 H189 0.929 . S
C198 C190 1.378 . S
C198 C193 1.350 . S
C199 H186 0.929 . S
C199 C191 1.433 . S
C199 N201 1.384 . S
N200 C196 1.427 . S
N200 C197 1.384 . S
N201 C193 1.427 . S
N201 C199 1.384 . S
H202 C208 0.930 . S
H203 C212 0.930 . S
H204 C217 0.929 . S
H205 C215 0.929 . S
H206 C210 0.929 . S
H207 C216 0.929 . S
C208 H202 0.930 . S
C208 C209 1.367 . S
C208 C216 1.378 . S
C209 C208 1.367 . S
C209 C217 1.433 . S
C210 H206 0.929 . S
C210 C212 1.378 . S
C210 C214 1.350 . S
C211 C214 1.463 . S
C211 C216 1.350 . S
C211 N219 1.427 . S
C212 H203 0.930 . S
C212 C210 1.378 . S
C212 C213 1.367 . S
C213 C212 1.367 . S
C213 C215 1.433 . S
C214 C210 1.350 . S
C214 C211 1.463 . S
C214 N218 1.427 . S
C215 H205 0.929 . S
C215 C213 1.433 . S
C215 N218 1.384 . S
C216 H207 0.929 . S
C216 C208 1.378 . S
C216 C211 1.350 . S
C217 H204 0.929 . S
C217 C209 1.433 . S
C217 N219 1.384 . S
N218 C214 1.427 . S
N218 C215 1.384 . S
N219 C211 1.427 . S
N219 C217 1.384 . S
H220 C226 0.930 . S
H221 C230 0.930 . S
H222 C235 0.929 . S
H223 C233 0.929 . S
H224 C228 0.929 . S
H225 C234 0.929 . S
C226 H220 0.930 . S
C226 C227 1.367 . S
C226 C234 1.378 . S
C227 C226 1.367 . S
C227 C235 1.433 . S
C228 H224 0.929 . S
C228 C230 1.378 . S
C228 C232 1.350 . S
C229 C232 1.463 . S
C229 C234 1.350 . S
C229 N237 1.427 . S
C230 H221 0.930 . S
C230 C228 1.378 . S
C230 C231 1.367 . S
C231 C230 1.367 . S
C231 C233 1.433 . S
C232 C228 1.350 . S
C232 C229 1.463 . S
C232 N236 1.427 . S
C233 H223 0.929 . S
C233 C231 1.433 . S
C233 N236 1.384 . S
C234 H225 0.929 . S
C234 C226 1.378 . S
C234 C229 1.350 . S
C235 H222 0.929 . S
C235 C227 1.433 . S
C235 N237 1.384 . S
N236 C232 1.427 . S
N236 C233 1.384 . S
N237 C229 1.427 . S
N237 C235 1.384 . S
H238 C244 0.930 . S
H239 C248 0.930 . S
H240 C253 0.929 . S
H241 C251 0.929 . S
H242 C246 0.929 . S
H243 C252 0.929 . S
C244 H238 0.930 . S
C244 C245 1.367 . S
C244 C252 1.378 . S
C245 C244 1.367 . S
C245 C253 1.433 . S
C246 H242 0.929 . S
C246 C248 1.378 . S
C246 C250 1.350 . S
C247 C250 1.463 . S
C247 C252 1.350 . S
C247 N255 1.427 . S
C248 H239 0.930 . S
C248 C246 1.378 . S
C248 C249 1.367 . S
C249 C248 1.367 . S
C249 C251 1.433 . S
C250 C246 1.350 . S
C250 C247 1.463 . S
C250 N254 1.427 . S
C251 H241 0.929 . S
C251 C249 1.433 . S
C251 N254 1.384 . S
C252 H243 0.929 . S
C252 C244 1.378 . S
C252 C247 1.350 . S
C253 H240 0.929 . S
C253 C245 1.433 . S
C253 N255 1.384 . S
N254 C250 1.427 . S
N254 C251 1.384 . S
N255 C247 1.427 . S
N255 C253 1.384 . S
H256 C262 0.930 . S
H257 C266 0.930 . S
H258 C271 0.929 . S
H259 C269 0.929 . S
H260 C264 0.929 . S
H261 C270 0.929 . S
C262 H256 0.930 . S
C262 C263 1.367 . S
C262 C270 1.378 . S
C263 C262 1.367 . S
C263 C271 1.433 . S
C264 H260 0.929 . S
C264 C266 1.378 . S
C264 C268 1.350 . S
C265 C268 1.463 . S
C265 C270 1.350 . S
C265 N273 1.427 . S
C266 H257 0.930 . S
C266 C264 1.378 . S
C266 C267 1.367 . S
C267 C266 1.367 . S
C267 C269 1.433 . S
C268 C264 1.350 . S
C268 C265 1.463 . S
C268 N272 1.427 . S
C269 H259 0.929 . S
C269 C267 1.433 . S
C269 N272 1.384 . S
C270 H261 0.929 . S
C270 C262 1.378 . S
C270 C265 1.350 . S
C271 H258 0.929 . S
C271 C263 1.433 . S
C271 N273 1.384 . S
N272 C268 1.427 . S
N272 C269 1.384 . S
N273 C265 1.427 . S
N273 C271 1.384 . S
H274 C280 0.930 . S
H275 C284 0.930 . S
H276 C289 0.929 . S
H277 C287 0.929 . S
H278 C282 0.929 . S
H279 C288 0.929 . S
C280 H274 0.930 . S
C280 C281 1.367 . S
C280 C288 1.378 . S
C281 C280 1.367 . S
C281 C289 1.433 . S
C282 H278 0.929 . S
C282 C284 1.378 . S
C282 C286 1.350 . S
C283 C286 1.463 . S
C283 C288 1.350 . S
C283 N291 1.427 . S
C284 H275 0.930 . S
C284 C282 1.378 . S
C284 C285 1.367 . S
C285 C284 1.367 . S
C285 C287 1.433 . S
C286 C282 1.350 . S
C286 C283 1.463 . S
C286 N290 1.427 . S
C287 H277 0.929 . S
C287 C285 1.433 . S
C287 N290 1.384 . S
C288 H279 0.929 . S
C288 C280 1.378 . S
C288 C283 1.350 . S
C289 H276 0.929 . S
C289 C281 1.433 . S
C289 N291 1.384 . S
N290 C286 1.427 . S
N290 C287 1.384 . S
N291 C283 1.427 . S
N291 C289 1.384 . S
H292 C298 0.930 . S
H293 C302 0.930 . S
H294 C307 0.929 . S
H295 C305 0.917 1_545 S
H296 C300 0.929 . S
H297 C306 0.929 . S
C298 H292 0.930 . S
C298 C299 1.367 . S
C298 C306 1.378 . S
C299 C298 1.367 . S
C299 C307 1.433 . S
C300 H296 0.929 . S
C300 C302 1.378 . S
C300 C304 1.350 . S
C301 C304 1.463 . S
C301 C306 1.350 . S
C301 N309 1.427 . S
C302 H293 0.930 . S
C302 C300 1.378 . S
C302 C303 1.367 . S
C303 C302 1.367 . S
C303 C305 1.440 . S
C304 C300 1.350 . S
C304 C301 1.463 . S
C304 N308 1.427 . S
C305 H295 0.917 1_565 S
C305 C303 1.440 . S
C305 N308 1.389 . S
C306 H297 0.929 . S
C306 C298 1.378 . S
C306 C301 1.350 . S
C307 H294 0.929 . S
C307 C299 1.433 . S
C307 N309 1.384 . S
N308 C304 1.427 . S
N308 C305 1.389 . S
N309 C301 1.427 . S
N309 C307 1.384 . S
H310 C316 0.930 1_655 S
H311 C320 0.930 . S
H312 C325 0.929 . S
H313 C323 0.929 . S
H314 C318 0.929 . S
H315 C324 0.929 . S
C316 H310 0.930 1_455 S
C316 C317 1.367 . S
C316 C324 1.378 . S
C317 C316 1.367 . S
C317 C325 1.433 . S
C318 H314 0.929 . S
C318 C320 1.378 . S
C318 C322 1.350 . S
C319 C322 1.463 . S
C319 C324 1.350 . S
C319 N327 1.427 . S
C320 H311 0.930 . S
C320 C318 1.378 . S
C320 C321 1.367 . S
C321 C320 1.367 . S
C321 C323 1.433 . S
C322 C318 1.350 . S
C322 C319 1.463 . S
C322 N326 1.427 . S
C323 H313 0.929 . S
C323 C321 1.433 . S
C323 N326 1.384 . S
C324 H315 0.929 . S
C324 C316 1.378 . S
C324 C319 1.350 . S
C325 H312 0.929 . S
C325 C317 1.433 . S
C325 N327 1.384 . S
N326 C322 1.427 . S
N326 C323 1.384 . S
N327 C319 1.427 . S
N327 C325 1.384 . S
H328 C334 0.930 . S
H329 C338 0.930 . S
H330 C343 0.929 . S
H331 C341 0.929 . S
H332 C336 0.929 . S
H333 C342 0.929 . S
C334 H328 0.930 . S
C334 C335 1.367 . S
C334 C342 1.378 . S
C335 C334 1.367 . S
C335 C343 1.433 . S
C336 H332 0.929 . S
C336 C338 1.378 . S
C336 C340 1.350 . S
C337 C340 1.463 . S
C337 C342 1.350 . S
C337 N345 1.427 . S
C338 H329 0.930 . S
C338 C336 1.378 . S
C338 C339 1.367 . S
C339 C338 1.367 . S
C339 C341 1.433 . S
C340 C336 1.350 . S
C340 C337 1.463 . S
C340 N344 1.427 . S
C341 H331 0.929 . S
C341 C339 1.433 . S
C341 N344 1.384 . S
C342 H333 0.929 . S
C342 C334 1.378 . S
C342 C337 1.350 . S
C343 H330 0.929 . S
C343 C335 1.433 . S
C343 N345 1.384 . S
N344 C340 1.427 . S
N344 C341 1.384 . S
N345 C337 1.427 . S
N345 C343 1.384 . S
H346 C352 0.930 . S
H347 C356 0.930 . S
H348 C361 0.929 . S
H349 C359 0.929 . S
H350 C354 0.929 . S
H351 C360 0.929 . S
C352 H346 0.930 . S
C352 C353 1.367 . S
C352 C360 1.378 . S
C353 C352 1.367 . S
C353 C361 1.433 . S
C354 H350 0.929 . S
C354 C356 1.378 . S
C354 C358 1.350 . S
C355 C358 1.463 . S
C355 C360 1.350 . S
C355 N363 1.427 . S
C356 H347 0.930 . S
C356 C354 1.378 . S
C356 C357 1.367 . S
C357 C356 1.367 . S
C357 C359 1.433 . S
C358 C354 1.350 . S
C358 C355 1.463 . S
C358 N362 1.427 . S
C359 H349 0.929 . S
C359 C357 1.433 . S
C359 N362 1.384 . S
C360 H351 0.929 . S
C360 C352 1.378 . S
C360 C355 1.350 . S
C361 H348 0.929 . S
C361 C353 1.433 . S
C361 N363 1.384 . S
N362 C358 1.427 . S
N362 C359 1.384 . S
N363 C355 1.427 . S
N363 C361 1.384 . S
H364 C370 0.930 . S
H365 C374 0.930 . S
H366 C379 0.929 . S
H367 C377 0.929 . S
H368 C372 0.929 . S
H369 C378 0.929 . S
C370 H364 0.930 . S
C370 C371 1.367 . S
C370 C378 1.378 . S
C371 C370 1.367 . S
C371 C379 1.433 . S
C372 H368 0.929 . S
C372 C374 1.378 . S
C372 C376 1.350 . S
C373 C376 1.463 . S
C373 C378 1.350 . S
C373 N381 1.427 . S
C374 H365 0.930 . S
C374 C372 1.378 . S
C374 C375 1.367 . S
C375 C374 1.367 . S
C375 C377 1.433 . S
C376 C372 1.350 . S
C376 C373 1.463 . S
C376 N380 1.427 . S
C377 H367 0.929 . S
C377 C375 1.433 . S
C377 N380 1.384 . S
C378 H369 0.929 . S
C378 C370 1.378 . S
C378 C373 1.350 . S
C379 H366 0.929 . S
C379 C371 1.433 . S
C379 N381 1.384 . S
N380 C376 1.427 . S
N380 C377 1.384 . S
N381 C373 1.427 . S
N381 C379 1.384 . S
H382 C388 0.930 . S
H383 C392 0.930 . S
H384 C397 0.929 1_455 S
H385 C395 0.929 . S
H386 C390 0.929 . S
H387 C396 0.929 . S
C388 H382 0.930 . S
C388 C389 1.367 . S
C388 C396 1.378 . S
C389 C388 1.367 . S
C389 C397 1.433 . S
C390 H386 0.929 . S
C390 C392 1.378 . S
C390 C394 1.350 . S
C391 C394 1.463 . S
C391 C396 1.350 . S
C391 N399 1.427 . S
C392 H383 0.930 . S
C392 C390 1.378 . S
C392 C393 1.367 . S
C393 C392 1.367 . S
C393 C395 1.433 . S
C394 C390 1.350 . S
C394 C391 1.463 . S
C394 N398 1.427 . S
C395 H385 0.929 . S
C395 C393 1.433 . S
C395 N398 1.384 . S
C396 H387 0.929 . S
C396 C388 1.378 . S
C396 C391 1.350 . S
C397 H384 0.929 1_655 S
C397 C389 1.433 . S
C397 N399 1.384 . S
N398 C394 1.427 . S
N398 C395 1.384 . S
N399 C391 1.427 . S
N399 C397 1.384 . S
C119 C68 1.757 . S
C123 C13 1.757 . S
C137 C27 1.768 . S
C141 C71 1.767 . S
C155 C29 1.764 . S
C159 C84 1.764 . S
C173 C98 1.763 . S
C177 C42 1.761 . S
C191 C0 2.131 . S
C195 C40 2.138 . S
C209 C14 2.132 . S
C213 C55 2.137 . S
C227 C97 2.136 . S
C231 C57 2.131 . S
C245 C82 2.132 . S
C249 C111 2.138 . S
C263 C70 1.408 . S
C267 C1 1.389 . S
C281 C15 1.379 . S
C285 C85 1.407 . S
C299 C41 1.382 . S
C303 C99 1.404 . S
C317 C69 1.409 . S
C321 C54 1.387 . S
C335 C56 1.383 . S
C339 C26 1.404 . S
C353 C83 1.386 . S
C357 C28 1.409 . S
C371 C96 1.388 . S
C375 C43 1.406 . S
C389 C12 1.404 . S
C393 C110 1.379 . S
