# Generated by pormake.
# Topology umm, (4)-cn, num edge types: 1
# Building blocks:
#     Node 0, Type 0, BuildingBlock: CEKHIL_clean_sbu_0, # of connection points: 4
#     Node 1, Type 0, BuildingBlock: CEKHIL_clean_sbu_0, # of connection points: 4
#     Node 2, Type 0, BuildingBlock: CEKHIL_clean_sbu_0, # of connection points: 4
#     Node 3, Type 0, BuildingBlock: CEKHIL_clean_sbu_0, # of connection points: 4
#     Node 4, Type 0, BuildingBlock: CEKHIL_clean_sbu_0, # of connection points: 4
#     Node 5, Type 0, BuildingBlock: CEKHIL_clean_sbu_0, # of connection points: 4
#     Node 6, Type 0, BuildingBlock: CEKHIL_clean_sbu_0, # of connection points: 4
#     Node 7, Type 0, BuildingBlock: CEKHIL_clean_sbu_0, # of connection points: 4
#     Node 8, Type 0, BuildingBlock: CEKHIL_clean_sbu_0, # of connection points: 4
#     Node 9, Type 0, BuildingBlock: CEKHIL_clean_sbu_0, # of connection points: 4
#     Node 10, Type 0, BuildingBlock: CEKHIL_clean_sbu_0, # of connection points: 4
#     Node 11, Type 0, BuildingBlock: CEKHIL_clean_sbu_0, # of connection points: 4
#     Edge 12, Type (0, 0), BuildingBlock: XIVTED_clean_linker_0, # of connection points: 2
#     Edge 13, Type (0, 0), BuildingBlock: XIVTED_clean_linker_0, # of connection points: 2
#     Edge 14, Type (0, 0), BuildingBlock: XIVTED_clean_linker_0, # of connection points: 2
#     Edge 15, Type (0, 0), BuildingBlock: XIVTED_clean_linker_0, # of connection points: 2
#     Edge 16, Type (0, 0), BuildingBlock: XIVTED_clean_linker_0, # of connection points: 2
#     Edge 17, Type (0, 0), BuildingBlock: XIVTED_clean_linker_0, # of connection points: 2
#     Edge 18, Type (0, 0), BuildingBlock: XIVTED_clean_linker_0, # of connection points: 2
#     Edge 19, Type (0, 0), BuildingBlock: XIVTED_clean_linker_0, # of connection points: 2
#     Edge 20, Type (0, 0), BuildingBlock: XIVTED_clean_linker_0, # of connection points: 2
#     Edge 21, Type (0, 0), BuildingBlock: XIVTED_clean_linker_0, # of connection points: 2
#     Edge 22, Type (0, 0), BuildingBlock: XIVTED_clean_linker_0, # of connection points: 2
#     Edge 23, Type (0, 0), BuildingBlock: XIVTED_clean_linker_0, # of connection points: 2
#     Edge 24, Type (0, 0), BuildingBlock: XIVTED_clean_linker_0, # of connection points: 2
#     Edge 25, Type (0, 0), BuildingBlock: XIVTED_clean_linker_0, # of connection points: 2
#     Edge 26, Type (0, 0), BuildingBlock: XIVTED_clean_linker_0, # of connection points: 2
#     Edge 27, Type (0, 0), BuildingBlock: XIVTED_clean_linker_0, # of connection points: 2
#     Edge 28, Type (0, 0), BuildingBlock: XIVTED_clean_linker_0, # of connection points: 2
#     Edge 29, Type (0, 0), BuildingBlock: XIVTED_clean_linker_0, # of connection points: 2
#     Edge 30, Type (0, 0), BuildingBlock: XIVTED_clean_linker_0, # of connection points: 2
#     Edge 31, Type (0, 0), BuildingBlock: XIVTED_clean_linker_0, # of connection points: 2
#     Edge 32, Type (0, 0), BuildingBlock: XIVTED_clean_linker_0, # of connection points: 2
#     Edge 33, Type (0, 0), BuildingBlock: XIVTED_clean_linker_0, # of connection points: 2
#     Edge 34, Type (0, 0), BuildingBlock: XIVTED_clean_linker_0, # of connection points: 2
#     Edge 35, Type (0, 0), BuildingBlock: XIVTED_clean_linker_0, # of connection points: 2
# Relax obj value: 0.135
# Max RMSD: 0.386
# Mean RMSD: 0.251
data_MOF--net-umm--node1-CEKHIL_clean_sbu_0--edge1-XIVTED_clean_linker_0
_symmetry_space_group_name_H-M    P1
_symmetry_Int_Tables_number       1
_symmetry_cell_setting            triclinic
loop_
_symmetry_equiv_pos_as_xyz
'x, y, z'
_cell_length_a     56.716266
_cell_length_b     52.728679
_cell_length_c     27.257833
_cell_angle_alpha  89.978265
_cell_angle_beta   90.004702
_cell_angle_gamma 117.64633
loop_
_atom_site_label
_atom_site_type_symbol
_atom_site_fract_x
_atom_site_fract_y
_atom_site_fract_z
_atom_type_partial_charge
Co0 Co 0.37307 0.50875 0.06006 0.0
O1 O 0.33778 0.50384 0.07031 0.0
O2 O 0.34717 0.47494 0.02493 0.0
C3 C 0.38628 0.51867 0.13834 0.0
O4 O 0.4084 0.50807 0.0444 0.0
Co5 Co 0.41888 0.57017 0.07755 0.0
O6 O 0.44128 0.55073 0.06917 0.0
C7 C 0.38742 0.5585 0.98802 0.0
C8 C 0.32934 0.48183 0.04171 0.0
C9 C 0.43331 0.52551 0.05224 0.0
O10 O 0.37629 0.53191 -0.0003 0.0
O11 O 0.40403 0.5782 0.01592 0.0
O12 O 0.37262 0.49219 0.1243 0.0
O13 O 0.38861 0.53776 0.10633 0.0
Co14 Co 0.85995 0.37973 0.41283 0.0
O15 O 0.82759 0.34463 0.42112 0.0
O16 O 0.86266 0.34817 0.38028 0.0
C17 C 0.86336 0.39447 0.49103 0.0
O18 O 0.89722 0.41314 0.39971 0.0
Co19 Co 0.85732 0.43693 0.42933 0.0
O20 O 0.89654 0.45364 0.4245 0.0
C21 C 0.83618 0.40494 0.33815 0.0
C22 C 0.83845 0.33209 0.39569 0.0
C23 C 0.90893 0.4404 0.40845 0.0
O24 O 0.84573 0.38796 0.35036 0.0
O25 O 0.83674 0.42456 0.36649 0.0
O26 O 0.87148 0.37597 0.47886 0.0
O27 O 0.85092 0.40061 0.45725 0.0
Co28 Co 0.43834 0.83398 0.75835 0.0
O29 O 0.43755 0.79736 0.76541 0.0
O30 O 0.46802 0.83436 0.72392 0.0
C31 C 0.43016 0.83988 0.83649 0.0
O32 O 0.44679 0.87505 0.74479 0.0
Co33 Co 0.38846 0.84218 0.77477 0.0
O34 O 0.41378 0.88373 0.77131 0.0
C35 C 0.3927 0.81439 0.68453 0.0
C36 C 0.45877 0.80793 0.73808 0.0
C37 C 0.43715 0.89226 0.75419 0.0
O38 O 0.41652 0.82041 0.69709 0.0
O39 O 0.37715 0.81971 0.7118 0.0
O40 O 0.45403 0.84541 0.82281 0.0
O41 O 0.41154 0.82804 0.80397 0.0
Co42 Co 0.64525 0.49571 0.05569 0.0
O43 O 0.68127 0.50307 0.06561 0.0
O44 O 0.66966 0.52979 0.01904 0.0
C45 C 0.6334 0.48631 0.13448 0.0
O46 O 0.60886 0.49391 0.04033 0.0
Co47 Co 0.60152 0.43397 0.07637 0.0
O48 O 0.57747 0.4515 0.06901 0.0
C49 C 0.63282 0.44526 0.98674 0.0
C50 C 0.68849 0.52457 0.03614 0.0
C51 C 0.58432 0.47612 0.05035 0.0
O52 O 0.64297 0.47206 -0.00337 0.0
O53 O 0.61678 0.42573 0.01557 0.0
O54 O 0.64496 0.51267 0.1191 0.0
O55 O 0.63181 0.4672 0.10323 0.0
Co56 Co 0.156 0.62576 0.41198 0.0
O57 O 0.18834 0.66092 0.41975 0.0
O58 O 0.15309 0.65715 0.37926 0.0
C59 C 0.15289 0.61132 0.49038 0.0
O60 O 0.11871 0.59227 0.39936 0.0
Co61 Co 0.15877 0.5687 0.42869 0.0
O62 O 0.11952 0.55187 0.4243 0.0
C63 C 0.17948 0.60038 0.33703 0.0
C64 C 0.17735 0.67332 0.39432 0.0
C65 C 0.10705 0.56503 0.40829 0.0
O66 O 0.17003 0.61741 0.34939 0.0
O67 O 0.179 0.58079 0.36539 0.0
O68 O 0.14466 0.62971 0.47803 0.0
O69 O 0.16525 0.60507 0.45657 0.0
Co70 Co 0.57306 0.16215 0.76194 0.0
O71 O 0.58057 0.2013 0.76773 0.0
O72 O 0.5457 0.1676 0.72889 0.0
C73 C 0.58078 0.15528 0.83998 0.0
O74 O 0.55851 0.11954 0.75011 0.0
Co75 Co 0.61854 0.14594 0.77704 0.0
O76 O 0.58932 0.10615 0.77229 0.0
C77 C 0.6172 0.17524 0.68677 0.0
C78 C 0.55936 0.19436 0.74142 0.0
C79 C 0.56599 0.10028 0.75768 0.0
O80 O 0.59404 0.17163 0.69934 0.0
O81 O 0.63159 0.1684 0.71446 0.0
O82 O 0.55805 0.15381 0.82749 0.0
O83 O 0.59898 0.16415 0.80638 0.0
Co84 Co 0.44593 0.6009 0.55889 0.0
O85 O 0.44364 0.63592 0.55211 0.0
O86 O 0.47518 0.63096 0.59298 0.0
C87 C 0.43765 0.5867 0.48075 0.0
O88 O 0.45586 0.5693 0.57199 0.0
Co89 Co 0.39707 0.54198 0.54318 0.0
O90 O 0.42334 0.52697 0.54674 0.0
C91 C 0.40073 0.57373 0.63344 0.0
C92 C 0.46491 0.6473 0.57921 0.0
C93 C 0.44675 0.54247 0.5631 0.0
O94 O 0.42435 0.59194 0.62065 0.0
O95 O 0.38543 0.55274 0.60619 0.0
O96 O 0.46136 0.60568 0.494 0.0
O97 O 0.41918 0.57933 0.51371 0.0
Co98 Co 0.86073 0.47763 0.90676 0.0
O99 O 0.82818 0.48002 0.89856 0.0
O100 O 0.86329 0.51207 0.93842 0.0
C101 C 0.86398 0.46585 0.82878 0.0
O102 O 0.89815 0.48179 0.91975 0.0
Co103 Co 0.85835 0.41783 0.89142 0.0
O104 O 0.89756 0.44049 0.89602 0.0
C105 C 0.83716 0.42912 0.98219 0.0
C106 C 0.83895 0.50363 0.92336 0.0
C107 C 0.90991 0.46623 0.91146 0.0
O108 O 0.84679 0.4556 0.9697 0.0
O109 O 0.83766 0.40994 0.9541 0.0
O110 O 0.87198 0.4925 0.84045 0.0
O111 O 0.85172 0.44747 0.86292 0.0
Co112 Co 0.37228 0.8581 0.2598 0.0
O113 O 0.33648 0.82887 0.24976 0.0
O114 O 0.34735 0.86741 0.2953 0.0
C115 C 0.38515 0.86076 0.18148 0.0
O116 O 0.40838 0.89306 0.27525 0.0
Co117 Co 0.41648 0.83999 0.2419 0.0
O118 O 0.44004 0.88165 0.24912 0.0
C119 C 0.38455 0.82075 0.33095 0.0
C120 C 0.32886 0.84306 0.27868 0.0
C121 C 0.43303 0.89961 0.26647 0.0
O122 O 0.37465 0.83749 0.31989 0.0
O123 O 0.40062 0.81679 0.30286 0.0
O124 O 0.37236 0.87454 0.19562 0.0
O125 O 0.38684 0.8436 0.21345 0.0
Co126 Co 0.57937 0.40629 0.55561 0.0
O127 O 0.58422 0.3731 0.54582 0.0
O128 O 0.54997 0.37352 0.58452 0.0
C129 C 0.58958 0.42386 0.47974 0.0
O130 O 0.56712 0.43588 0.57093 0.0
Co131 Co 0.62716 0.46683 0.54774 0.0
O132 O 0.59941 0.47975 0.55166 0.0
C133 C 0.62248 0.43174 0.63407 0.0
C134 C 0.5623 0.35923 0.57044 0.0
C135 C 0.57566 0.4629 0.56499 0.0
O136 O 0.59917 0.41369 0.61935 0.0
O137 O 0.63803 0.45369 0.60895 0.0
O138 O 0.56577 0.40374 0.48952 0.0
O139 O 0.60704 0.43043 0.51434 0.0
Co140 Co 0.15706 0.52792 0.90566 0.0
O141 O 0.18943 0.52513 0.89769 0.0
O142 O 0.15432 0.49372 0.93856 0.0
C143 C 0.15374 0.53905 0.82723 0.0
O144 O 0.11977 0.52414 0.91852 0.0
Co145 Co 0.15972 0.58768 0.88867 0.0
O146 O 0.12048 0.56526 0.89326 0.0
C147 C 0.18046 0.57686 0.98045 0.0
C148 C 0.17855 0.50181 0.92326 0.0
C149 C 0.10807 0.5397 0.90951 0.0
O150 O 0.17116 0.55041 0.9681 0.0
O151 O 0.17987 0.5959 0.95205 0.0
O152 O 0.1456 0.5125 0.83975 0.0
O153 O 0.16615 0.55773 0.86089 0.0
Co154 Co 0.64507 0.14254 0.26008 0.0
O155 O 0.68028 0.17288 0.24923 0.0
O156 O 0.67114 0.13501 0.29559 0.0
C157 C 0.63157 0.13855 0.18199 0.0
O158 O 0.60979 0.10663 0.27641 0.0
Co159 Co 0.59915 0.15805 0.24223 0.0
O160 O 0.57687 0.1163 0.25113 0.0
C161 C 0.63046 0.17794 0.33176 0.0
C162 C 0.68886 0.15964 0.27836 0.0
C163 C 0.58487 0.09914 0.26848 0.0
O164 O 0.64196 0.16288 0.31988 0.0
O165 O 0.61344 0.18059 0.3043 0.0
O166 O 0.64539 0.12594 0.19633 0.0
O167 O 0.62932 0.15559 0.21351 0.0
H168 H 0.37103 0.48463 0.21973 0.0
H169 H 0.46932 0.60705 0.40021 0.0
H170 H 0.42446 0.57026 0.17111 0.0
H171 H 0.3938 0.53914 0.44802 0.0
H172 H 0.45907 0.58852 0.31641 0.0
H173 H 0.38541 0.49935 0.30448 0.0
C174 C 0.38601 0.50642 0.22687 0.0
C175 C 0.39645 0.52639 0.18863 0.0
C176 C 0.44484 0.57764 0.34535 0.0
C177 C 0.41302 0.54313 0.2848 0.0
C178 C 0.45067 0.58812 0.3931 0.0
C179 C 0.43222 0.57474 0.43084 0.0
C180 C 0.4206 0.55338 0.33553 0.0
C181 C 0.4084 0.55023 0.41975 0.0
C182 C 0.39407 0.51479 0.27511 0.0
C183 C 0.41576 0.55432 0.1997 0.0
N184 N 0.40324 0.54029 0.37295 0.0
N185 N 0.42345 0.5619 0.24688 0.0
H186 H 0.86012 0.4425 0.51801 0.0
H187 H 0.86033 0.41432 0.8021 0.0
H188 H 0.87676 0.37618 0.57534 0.0
H189 H 0.87743 0.49729 0.7443 0.0
H190 H 0.86453 0.39887 0.71946 0.0
H191 H 0.86463 0.46217 0.60064 0.0
C192 C 0.86486 0.43217 0.54799 0.0
C193 C 0.86788 0.40757 0.54004 0.0
C194 C 0.86763 0.42055 0.72496 0.0
C195 C 0.87277 0.42974 0.63452 0.0
C196 C 0.86511 0.42933 0.77202 0.0
C197 C 0.86833 0.45703 0.77982 0.0
C198 C 0.87288 0.43944 0.68539 0.0
C199 C 0.87471 0.47571 0.73971 0.0
C200 C 0.86756 0.44348 0.59506 0.0
C201 C 0.87421 0.39515 0.58005 0.0
N202 N 0.87643 0.46644 0.69399 0.0
N203 N 0.8761 0.40616 0.62581 0.0
H204 H 0.38598 0.84293 0.86947 0.0
H205 H 0.42294 0.8467 0.14906 0.0
H206 H 0.46231 0.85234 0.9164 0.0
H207 H 0.36908 0.87819 0.09951 0.0
H208 H 0.43588 0.84534 0.0639 0.0
H209 H 0.37714 0.85242 0.95377 0.0
C210 C 0.40087 0.84706 0.8975 0.0
C211 C 0.42481 0.84666 0.88624 0.0
C212 C 0.42144 0.85283 0.07174 0.0
C213 C 0.41479 0.85724 0.98216 0.0
C214 C 0.41401 0.85352 0.12021 0.0
C215 C 0.39487 0.86244 0.13105 0.0
C216 C 0.40918 0.8605 0.03394 0.0
C217 C 0.38395 0.8712 0.09249 0.0
C218 C 0.3959 0.85263 0.94538 0.0
C219 C 0.44356 0.85238 0.92367 0.0
N220 N 0.39098 0.86962 0.04539 0.0
N221 N 0.43802 0.85709 0.97017 0.0
H222 H 0.6404 0.4469 0.18675 0.0
H223 H 0.55709 0.4322 0.41518 0.0
H224 H 0.61177 0.50948 0.19906 0.0
H225 H 0.63777 0.44635 0.43495 0.0
H226 H 0.56861 0.4515 0.33132 0.0
H227 H 0.63104 0.43577 0.27407 0.0
C228 C 0.63191 0.45808 0.20787 0.0
C229 C 0.62674 0.47905 0.18617 0.0
C230 C 0.58374 0.45066 0.35452 0.0
C231 C 0.61573 0.46615 0.28487 0.0
C232 C 0.57722 0.43955 0.4019 0.0
C233 C 0.59653 0.43757 0.43145 0.0
C234 C 0.6094 0.45882 0.33663 0.0
C235 C 0.62237 0.44753 0.41307 0.0
C236 C 0.62682 0.4519 0.25745 0.0
C237 C 0.61601 0.49321 0.21493 0.0
N238 N 0.62796 0.45719 0.36624 0.0
N239 N 0.61042 0.48619 0.26309 0.0
H240 H 0.13934 0.62995 0.57405 0.0
H241 H 0.14001 0.50673 0.74376 0.0
H242 H 0.15703 0.56396 0.51885 0.0
H243 H 0.15756 0.5904 0.79865 0.0
H244 H 0.13594 0.52241 0.66088 0.0
H245 H 0.1357 0.61039 0.65697 0.0
C246 C 0.14221 0.6112 0.57935 0.0
C247 C 0.14876 0.59868 0.53978 0.0
C248 C 0.14052 0.53722 0.69121 0.0
C249 C 0.14438 0.57617 0.63393 0.0
C250 C 0.14276 0.52829 0.7384 0.0
C251 C 0.14939 0.54743 0.77787 0.0
C252 C 0.14452 0.56528 0.68377 0.0
C253 C 0.1527 0.5751 0.76907 0.0
C254 C 0.14021 0.60014 0.62656 0.0
C255 C 0.15223 0.57441 0.54851 0.0
N256 N 0.15023 0.58323 0.72288 0.0
N257 N 0.15 0.56392 0.59472 0.0
H258 H 0.64567 0.11795 0.10143 0.0
H259 H 0.54947 0.14588 0.92056 0.0
H260 H 0.59357 0.1522 0.14893 0.0
H261 H 0.62272 0.14765 0.87234 0.0
H262 H 0.55901 0.13675 0.00431 0.0
H263 H 0.63081 0.11741 0.01676 0.0
C264 C 0.63087 0.12502 0.09408 0.0
C265 C 0.62099 0.13543 0.13192 0.0
C266 C 0.57289 0.13898 0.97529 0.0
C267 C 0.6039 0.13465 0.03587 0.0
C268 C 0.56747 0.14413 0.92756 0.0
C269 C 0.58554 0.14788 0.88974 0.0
C270 C 0.59638 0.13725 0.98506 0.0
C271 C 0.60845 0.14523 0.90068 0.0
C272 C 0.62252 0.12481 0.04588 0.0
C273 C 0.60187 0.14432 0.12061 0.0
N274 N 0.61329 0.14013 0.94752 0.0
N275 N 0.59395 0.14377 0.07349 0.0
H276 H 0.28513 0.46968 0.09543 0.0
H277 H 0.21698 0.49859 0.86843 0.0
H278 H 0.31109 0.46797 0.94755 0.0
H279 H 0.17678 0.47211 0.00755 0.0
H280 H 0.24888 0.48235 0.89479 0.0
H281 H 0.24278 0.46446 0.06371 0.0
C282 C 0.28148 0.46716 0.05627 0.0
C283 C 0.30156 0.46915 0.02404 0.0
C284 C 0.23281 0.47949 0.91931 0.0
C285 C 0.25356 0.46443 0.98725 0.0
C286 C 0.21459 0.48883 0.9043 0.0
C287 C 0.19431 0.48685 0.936 0.0
C288 C 0.23124 0.46875 0.96699 0.0
C289 C 0.1921 0.47396 0.98196 0.0
C290 C 0.25735 0.46437 0.03814 0.0
C291 C 0.296 0.4662 0.97365 0.0
N292 N 0.2107 0.46595 -0.00348 0.0
N293 N 0.27276 0.46469 0.9567 0.0
H294 H 0.79969 0.29077 0.45043 0.0
H295 H 0.73314 0.1917 0.2248 0.0
H296 H 0.84064 0.30375 0.31225 0.0
H297 H 0.70682 0.165 0.37287 0.0
H298 H 0.77511 0.22948 0.25646 0.0
H299 H 0.76811 0.24244 0.42465 0.0
C300 C 0.8023 0.2832 0.41489 0.0
C301 C 0.82272 0.30135 0.38329 0.0
C302 C 0.76056 0.21489 0.28212 0.0
C303 C 0.78616 0.24608 0.35296 0.0
C304 C 0.73665 0.19318 0.26402 0.0
C305 C 0.71656 0.17513 0.29629 0.0
C306 C 0.76412 0.21917 0.33297 0.0
C307 C 0.72193 0.17823 0.34675 0.0
C308 C 0.78427 0.25555 0.40022 0.0
C309 C 0.82521 0.29043 0.33776 0.0
N310 N 0.74494 0.2003 0.36361 0.0
N311 N 0.80679 0.26369 0.32351 0.0
H312 H 0.45667 0.76007 0.78024 0.0
H313 H 0.46221 0.69252 0.53643 0.0
H314 H 0.48488 0.81378 0.65186 0.0
H315 H 0.48841 0.66719 0.66756 0.0
H316 H 0.47018 0.73729 0.57685 0.0
H317 H 0.46784 0.72529 0.74075 0.0
C318 C 0.46571 0.76475 0.74415 0.0
C319 C 0.46975 0.7896 0.719 0.0
C320 C 0.47483 0.72223 0.59627 0.0
C321 C 0.4819 0.74993 0.67353 0.0
C322 C 0.4702 0.69674 0.57334 0.0
C323 C 0.47458 0.67629 0.59893 0.0
C324 C 0.48299 0.72668 0.64549 0.0
C325 C 0.48489 0.68258 0.64668 0.0
C326 C 0.47218 0.74504 0.72179 0.0
C327 C 0.48151 0.79481 0.67237 0.0
N328 N 0.48811 0.70699 0.66902 0.0
N329 N 0.48659 0.77473 0.6505 0.0
H330 H 0.73334 0.54243 0.09036 0.0
H331 H 0.84684 0.54248 -0.00244 0.0
H332 H 0.70595 0.5346 0.94116 0.0
H333 H 0.7945 0.49846 0.87708 0.0
H334 H 0.81566 0.56022 0.02344 0.0
H335 H 0.77586 0.54746 0.0611 0.0
C336 C 0.73681 0.54313 0.05117 0.0
C337 C 0.71621 0.53837 0.01811 0.0
C338 C 0.811 0.54672 0.9913 0.0
C339 C 0.76478 0.54329 0.98394 0.0
C340 C 0.82898 0.53685 0.97624 0.0
C341 C 0.82301 0.51851 0.9357 0.0
C342 C 0.78693 0.53814 0.96551 0.0
C343 C 0.79967 0.5121 0.90916 0.0
C344 C 0.76117 0.54593 0.03435 0.0
C345 C 0.72147 0.5387 0.96781 0.0
N346 N 0.78246 0.52167 0.92472 0.0
N347 N 0.74498 0.5403 0.95232 0.0
H348 H 0.17411 0.70123 0.31115 0.0
H349 H 0.31169 0.83997 0.37332 0.0
H350 H 0.21689 0.71489 0.44743 0.0
H351 H 0.28385 0.81156 0.22652 0.0
H352 H 0.26912 0.80287 0.40545 0.0
H353 H 0.20658 0.74967 0.28475 0.0
C354 C 0.18989 0.71468 0.33599 0.0
C355 C 0.19302 0.70398 0.38128 0.0
C356 C 0.27204 0.80534 0.36613 0.0
C357 C 0.23004 0.75921 0.35159 0.0
C358 C 0.29618 0.82678 0.34781 0.0
C359 C 0.30123 0.82877 0.29724 0.0
C360 C 0.25284 0.78602 0.33354 0.0
C361 C 0.28068 0.81065 0.2658 0.0
C362 C 0.20848 0.74222 0.32085 0.0
C363 C 0.21395 0.72222 0.41194 0.0
N364 N 0.25753 0.78983 0.28442 0.0
N365 N 0.23174 0.7488 0.39644 0.0
H366 H 0.5891 0.25183 0.75136 0.0
H367 H 0.51872 0.32448 0.62614 0.0
H368 H 0.51692 0.18785 0.68422 0.0
H369 H 0.5886 0.32798 0.55651 0.0
H370 H 0.51222 0.28061 0.6693 0.0
H371 H 0.58404 0.28885 0.7058 0.0
C372 C 0.57187 0.24558 0.72791 0.0
C373 C 0.55351 0.2167 0.72115 0.0
C374 C 0.5285 0.2908 0.64355 0.0
C375 C 0.54769 0.25894 0.66973 0.0
C376 C 0.53227 0.3157 0.61901 0.0
C377 C 0.55441 0.33001 0.58817 0.0
C378 C 0.54724 0.28078 0.6374 0.0
C379 C 0.5714 0.31779 0.58023 0.0
C380 C 0.56911 0.26669 0.70197 0.0
C381 C 0.53156 0.2099 0.69017 0.0
N382 N 0.56781 0.2942 0.60565 0.0
N383 N 0.52931 0.23098 0.66502 0.0
H384 H 0.4289 0.47106 0.0428 0.0
H385 H 0.58769 0.52945 0.03242 0.0
H386 H 0.48635 0.56057 0.03907 0.0
H387 H 0.5308 0.4402 0.04764 0.0
H388 H 0.55051 0.54094 0.02536 0.0
H389 H 0.46567 0.45885 0.03503 0.0
C390 C 0.44912 0.48811 0.03978 0.0
C391 C 0.45444 0.51686 0.04218 0.0
C392 C 0.54621 0.51881 0.02992 0.0
C393 C 0.49666 0.50313 0.03346 0.0
C394 C 0.56747 0.51226 0.03377 0.0
C395 C 0.56251 0.48387 0.04114 0.0
C396 C 0.51976 0.49682 0.03325 0.0
C397 C 0.53575 0.46249 0.04263 0.0
C398 C 0.47015 0.48117 0.03558 0.0
C399 C 0.48117 0.53807 0.03814 0.0
N400 N 0.51551 0.4694 0.039 0.0
N401 N 0.50115 0.5308 0.03427 0.0
H402 H 0.94735 0.42251 0.39563 0.0
H403 H 0.06862 0.58286 0.39497 0.0
H404 H 0.93721 0.49867 0.40293 0.0
H405 H 0.07877 0.50674 0.40367 0.0
H406 H 0.02033 0.55232 0.38851 0.0
H407 H 0.99565 0.45302 0.38916 0.0
C408 C 0.95519 0.44555 0.39545 0.0
C409 C 0.9381 0.45792 0.40036 0.0
C410 C 0.0332 0.54235 0.39158 0.0
C411 C 0.99336 0.49303 0.39303 0.0
C412 C 0.06079 0.55981 0.39511 0.0
C413 C 0.07788 0.54747 0.40039 0.0
C414 C 0.02263 0.51233 0.39305 0.0
C415 C 0.06647 0.51736 0.40031 0.0
C416 C 0.98278 0.463 0.39192 0.0
C417 C 0.94951 0.48803 0.39987 0.0
N418 N 0.03969 0.50092 0.39693 0.0
N419 N 0.9763 0.50445 0.39652 0.0
H420 H 0.57635 0.05499 0.74594 0.0
H421 H 0.42512 0.93675 0.76728 0.0
H422 H 0.51161 0.07649 0.75176 0.0
H423 H 0.48897 0.91846 0.72398 0.0
H424 H 0.45589 0.98798 0.76139 0.0
H425 H 0.54414 0.00466 0.73797 0.0
C426 C 0.55534 0.04913 0.7454 0.0
C427 C 0.54665 0.06996 0.74991 0.0
C428 C 0.46302 0.97268 0.75274 0.0
C429 C 0.50961 0.01227 0.74101 0.0
C430 C 0.4455 0.94344 0.75617 0.0
C431 C 0.45452 0.92322 0.74665 0.0
C432 C 0.48974 0.98167 0.74017 0.0
C433 C 0.48111 0.93318 0.73211 0.0
C434 C 0.53695 0.02038 0.74062 0.0
C435 C 0.51917 0.06112 0.74846 0.0
N436 N 0.49781 0.96167 0.7298 0.0
N437 N 0.50158 0.03286 0.74465 0.0
H438 H 0.43503 0.48583 0.55594 0.0
H439 H 0.58682 0.5192 0.57219 0.0
H440 H 0.49952 0.56973 0.58748 0.0
H441 H 0.52147 0.43335 0.57406 0.0
H442 H 0.55495 0.53806 0.57834 0.0
H443 H 0.46616 0.46592 0.56304 0.0
C444 C 0.45566 0.50005 0.56463 0.0
C445 C 0.46469 0.52955 0.57069 0.0
C446 C 0.5476 0.51509 0.57779 0.0
C447 C 0.50038 0.50693 0.5786 0.0
C448 C 0.56579 0.5043 0.57413 0.0
C449 C 0.55681 0.47465 0.57225 0.0
C450 C 0.52021 0.4961 0.57898 0.0
C451 C 0.52931 0.45637 0.5753 0.0
C452 C 0.4734 0.48865 0.5688 0.0
C453 C 0.49164 0.54688 0.58223 0.0
N454 N 0.51196 0.4674 0.57804 0.0
N455 N 0.50855 0.53535 0.58537 0.0
H456 H 0.06973 0.4836 0.92429 0.0
H457 H 0.94832 0.52265 0.9224 0.0
H458 H 0.07973 0.56972 0.91328 0.0
H459 H 0.93827 0.43634 0.91837 0.0
H460 H 0.99666 0.5405 0.92834 0.0
H461 H 0.02147 0.46593 0.93133 0.0
C462 C 0.06188 0.4988 0.92374 0.0
C463 C 0.07892 0.52816 0.91766 0.0
C464 C 0.9838 0.51764 0.92642 0.0
C465 C 0.02368 0.50815 0.92567 0.0
C466 C 0.95618 0.50746 0.92321 0.0
C467 C 0.93911 0.47797 0.91934 0.0
C468 C 0.99441 0.49819 0.92605 0.0
C469 C 0.95056 0.4593 0.92059 0.0
C470 C 0.0343 0.48872 0.92762 0.0
C471 C 0.06747 0.54685 0.91727 0.0
N472 N 0.97737 0.46969 0.92361 0.0
N473 N 0.0407 0.53655 0.92098 0.0
H474 H 0.42995 0.94974 0.2853 0.0
H475 H 0.58889 0.04877 0.275 0.0
H476 H 0.48649 0.91687 0.26889 0.0
H477 H 0.53219 0.08174 0.28463 0.0
H478 H 0.55186 0.99995 0.28162 0.0
H479 H 0.46735 0.99814 0.29361 0.0
C480 C 0.45011 0.95258 0.28386 0.0
C481 C 0.4549 0.92908 0.27585 0.0
C482 C 0.5476 0.01795 0.28268 0.0
C483 C 0.4979 0.98446 0.28522 0.0
C484 C 0.56879 0.04582 0.27918 0.0
C485 C 0.56373 0.06946 0.27868 0.0
C486 C 0.52118 0.0137 0.28596 0.0
C487 C 0.53713 0.06423 0.28407 0.0
C488 C 0.47151 0.98025 0.28847 0.0
C489 C 0.48162 0.93424 0.27437 0.0
N490 N 0.51697 0.03706 0.28715 0.0
N491 N 0.50197 0.96122 0.27871 0.0
H492 H 0.42355 0.61948 0.69559 0.0
H493 H 0.34693 0.52538 0.92603 0.0
H494 H 0.35838 0.53375 0.68604 0.0
H495 H 0.41652 0.60792 0.93569 0.0
H496 H 0.34403 0.53316 0.83863 0.0
H497 H 0.41432 0.62032 0.78265 0.0
C498 C 0.40705 0.60092 0.71163 0.0
C499 C 0.39211 0.57619 0.68365 0.0
C500 C 0.3597 0.54977 0.85994 0.0
C501 C 0.38157 0.57706 0.78359 0.0
C502 C 0.36141 0.54536 0.90991 0.0
C503 C 0.38244 0.56574 0.93799 0.0
C504 C 0.37927 0.57465 0.83773 0.0
C505 C 0.40021 0.59146 0.91534 0.0
C506 C 0.40179 0.60147 0.76142 0.0
C507 C 0.37066 0.5531 0.70628 0.0
N508 N 0.39851 0.59496 0.86629 0.0
N509 N 0.36631 0.55391 0.75517 0.0
H510 H 0.82183 0.44208 0.29231 0.0
H511 H 0.82171 0.37744 0.02797 0.0
H512 H 0.82881 0.3649 0.2675 0.0
H513 H 0.83052 0.46233 0.05283 0.0
H514 H 0.81293 0.36723 0.11526 0.0
H515 H 0.8136 0.44401 0.20488 0.0
C516 C 0.82122 0.42526 0.26871 0.0
C517 C 0.8266 0.40362 0.28723 0.0
C518 C 0.81645 0.38796 0.10146 0.0
C519 C 0.81728 0.40584 0.18703 0.0
C520 C 0.82142 0.39382 0.05155 0.0
C521 C 0.82745 0.42103 0.03309 0.0
C522 C 0.81748 0.40942 0.13315 0.0
C523 C 0.82646 0.44123 0.06549 0.0
C524 C 0.81658 0.42645 0.21873 0.0
C525 C 0.82526 0.38229 0.2548 0.0
N526 N 0.82194 0.43513 0.11404 0.0
N527 N 0.82107 0.38415 0.20619 0.0
H528 H 0.41542 0.79086 0.6234 0.0
H529 H 0.34344 0.81358 0.39104 0.0
H530 H 0.35081 0.8125 0.63104 0.0
H531 H 0.41187 0.79834 0.38358 0.0
H532 H 0.33873 0.8012 0.47783 0.0
H533 H 0.40706 0.78151 0.53598 0.0
C534 C 0.3992 0.79326 0.60685 0.0
C535 C 0.38421 0.80321 0.63437 0.0
C536 C 0.35454 0.80013 0.45711 0.0
C537 C 0.37471 0.7927 0.53406 0.0
C538 C 0.35729 0.80725 0.40752 0.0
C539 C 0.37855 0.80773 0.38033 0.0
C540 C 0.37331 0.7937 0.47987 0.0
C541 C 0.39544 0.79866 0.40331 0.0
C542 C 0.39443 0.78787 0.55686 0.0
C543 C 0.36311 0.80529 0.61114 0.0
N544 N 0.39276 0.79253 0.45206 0.0
N545 N 0.3593 0.80061 0.56207 0.0
H546 H 0.59754 0.38555 0.69506 0.0
H547 H 0.67458 0.47707 0.92652 0.0
H548 H 0.6656 0.46945 0.6875 0.0
H549 H 0.60354 0.39577 0.93505 0.0
H550 H 0.67831 0.46873 0.83965 0.0
H551 H 0.60617 0.3834 0.78213 0.0
C552 C 0.61453 0.4034 0.71151 0.0
C553 C 0.63045 0.42809 0.68416 0.0
C554 C 0.66214 0.45247 0.86061 0.0
C555 C 0.64034 0.42572 0.78398 0.0
C556 C 0.65997 0.45723 0.91024 0.0
C557 C 0.63829 0.4374 0.93769 0.0
C558 C 0.64231 0.42789 0.83811 0.0
C559 C 0.62034 0.41179 0.91505 0.0
C560 C 0.61946 0.4021 0.76128 0.0
C561 C 0.6525 0.45021 0.70727 0.0
N562 N 0.62244 0.40803 0.86623 0.0
N563 N 0.65651 0.44871 0.75607 0.0
H564 H 0.19445 0.62819 0.02649 0.0
H565 H 0.19412 0.56349 0.29114 0.0
H566 H 0.18758 0.54409 0.05132 0.0
H567 H 0.18635 0.6402 0.26618 0.0
H568 H 0.20259 0.56177 0.20376 0.0
H569 H 0.20238 0.63819 0.11402 0.0
C570 C 0.19501 0.61196 0.05012 0.0
C571 C 0.18978 0.58501 0.03154 0.0
C572 C 0.19936 0.57917 0.21755 0.0
C573 C 0.19875 0.59636 0.1319 0.0
C574 C 0.19458 0.58023 0.26751 0.0
C575 C 0.18897 0.60171 0.286 0.0
C576 C 0.19856 0.59973 0.18581 0.0
C577 C 0.19011 0.62295 0.25352 0.0
C578 C 0.19948 0.61769 0.10017 0.0
C579 C 0.19104 0.56498 0.06404 0.0
N580 N 0.19446 0.62122 0.20493 0.0
N581 N 0.19506 0.57094 0.11271 0.0
H582 H 0.65956 0.17604 0.63667 0.0
H583 H 0.67501 0.19346 0.38722 0.0
H584 H 0.59573 0.19853 0.62217 0.0
H585 H 0.59736 0.18961 0.39018 0.0
H586 H 0.67934 0.20303 0.47488 0.0
H587 H 0.66965 0.18637 0.55023 0.0
C588 C 0.64804 0.18378 0.61551 0.0
C589 C 0.62645 0.18586 0.63657 0.0
C590 C 0.66125 0.19996 0.45678 0.0
C591 C 0.63813 0.19834 0.53705 0.0
C592 C 0.65892 0.19485 0.40644 0.0
C593 C 0.63548 0.19 0.38172 0.0
C594 C 0.63968 0.19954 0.48277 0.0
C595 C 0.61561 0.19285 0.40797 0.0
C596 C 0.65393 0.18994 0.56585 0.0
C597 C 0.61226 0.19606 0.60732 0.0
N598 N 0.61796 0.19689 0.45732 0.0
N599 N 0.6181 0.20149 0.55897 0.0
loop_
_geom_bond_atom_site_label_1
_geom_bond_atom_site_label_2
_geom_bond_distance
_geom_bond_site_symmetry_2
_ccdc_geom_bond_type
Co0 O1 2.216 . S
Co0 O2 2.091 . S
Co0 O4 2.004 . S
Co0 O10 2.021 . S
Co0 O12 2.137 . S
Co0 O13 2.244 . S
O1 Co0 2.216 . S
O1 C8 1.247 . S
O2 Co0 2.091 . S
O2 C8 1.261 . S
C3 O12 1.247 . S
C3 O13 1.272 . S
O4 Co0 2.004 . S
O4 C9 1.259 . S
Co5 O6 2.061 . S
Co5 O11 2.052 . S
Co5 O13 2.135 . S
O6 Co5 2.061 . S
O6 C9 1.235 . S
C7 O10 1.238 1_556 S
C7 O11 1.241 1_556 S
C8 O1 1.247 . S
C8 O2 1.261 . S
C9 O4 1.259 . S
C9 O6 1.235 . S
O10 Co0 2.021 . S
O10 C7 1.238 1_554 S
O11 Co5 2.052 . S
O11 C7 1.241 1_554 S
O12 Co0 2.137 . S
O12 C3 1.247 . S
O13 Co0 2.244 . S
O13 C3 1.272 . S
O13 Co5 2.135 . S
Co14 O15 2.216 . S
Co14 O16 2.091 . S
Co14 O18 2.004 . S
Co14 O24 2.021 . S
Co14 O26 2.137 . S
Co14 O27 2.244 . S
O15 Co14 2.216 . S
O15 C22 1.247 . S
O16 Co14 2.091 . S
O16 C22 1.261 . S
C17 O26 1.247 . S
C17 O27 1.272 . S
O18 Co14 2.004 . S
O18 C23 1.259 . S
Co19 O20 2.061 . S
Co19 O25 2.052 . S
Co19 O27 2.135 . S
O20 Co19 2.061 . S
O20 C23 1.235 . S
C21 O24 1.238 . S
C21 O25 1.241 . S
C22 O15 1.247 . S
C22 O16 1.261 . S
C23 O18 1.259 . S
C23 O20 1.235 . S
O24 Co14 2.021 . S
O24 C21 1.238 . S
O25 Co19 2.052 . S
O25 C21 1.241 . S
O26 Co14 2.137 . S
O26 C17 1.247 . S
O27 Co14 2.244 . S
O27 C17 1.272 . S
O27 Co19 2.135 . S
Co28 O29 2.216 . S
Co28 O30 2.091 . S
Co28 O32 2.004 . S
Co28 O38 2.021 . S
Co28 O40 2.137 . S
Co28 O41 2.244 . S
O29 Co28 2.216 . S
O29 C36 1.247 . S
O30 Co28 2.091 . S
O30 C36 1.261 . S
C31 O40 1.247 . S
C31 O41 1.272 . S
O32 Co28 2.004 . S
O32 C37 1.259 . S
Co33 O34 2.061 . S
Co33 O39 2.052 . S
Co33 O41 2.135 . S
O34 Co33 2.061 . S
O34 C37 1.235 . S
C35 O38 1.238 . S
C35 O39 1.241 . S
C36 O29 1.247 . S
C36 O30 1.261 . S
C37 O32 1.259 . S
C37 O34 1.235 . S
O38 Co28 2.021 . S
O38 C35 1.238 . S
O39 Co33 2.052 . S
O39 C35 1.241 . S
O40 Co28 2.137 . S
O40 C31 1.247 . S
O41 Co28 2.244 . S
O41 C31 1.272 . S
O41 Co33 2.135 . S
Co42 O43 2.216 . S
Co42 O44 2.091 . S
Co42 O46 2.004 . S
Co42 O52 2.021 . S
Co42 O54 2.137 . S
Co42 O55 2.244 . S
O43 Co42 2.216 . S
O43 C50 1.247 . S
O44 Co42 2.091 . S
O44 C50 1.261 . S
C45 O54 1.247 . S
C45 O55 1.272 . S
O46 Co42 2.004 . S
O46 C51 1.259 . S
Co47 O48 2.061 . S
Co47 O53 2.052 . S
Co47 O55 2.135 . S
O48 Co47 2.061 . S
O48 C51 1.235 . S
C49 O52 1.238 1_556 S
C49 O53 1.241 1_556 S
C50 O43 1.247 . S
C50 O44 1.261 . S
C51 O46 1.259 . S
C51 O48 1.235 . S
O52 Co42 2.021 . S
O52 C49 1.238 1_554 S
O53 Co47 2.052 . S
O53 C49 1.241 1_554 S
O54 Co42 2.137 . S
O54 C45 1.247 . S
O55 Co42 2.244 . S
O55 C45 1.272 . S
O55 Co47 2.135 . S
Co56 O57 2.216 . S
Co56 O58 2.091 . S
Co56 O60 2.004 . S
Co56 O66 2.021 . S
Co56 O68 2.137 . S
Co56 O69 2.244 . S
O57 Co56 2.216 . S
O57 C64 1.247 . S
O58 Co56 2.091 . S
O58 C64 1.261 . S
C59 O68 1.247 . S
C59 O69 1.272 . S
O60 Co56 2.004 . S
O60 C65 1.259 . S
Co61 O62 2.061 . S
Co61 O67 2.052 . S
Co61 O69 2.135 . S
O62 Co61 2.061 . S
O62 C65 1.235 . S
C63 O66 1.238 . S
C63 O67 1.241 . S
C64 O57 1.247 . S
C64 O58 1.261 . S
C65 O60 1.259 . S
C65 O62 1.235 . S
O66 Co56 2.021 . S
O66 C63 1.238 . S
O67 Co61 2.052 . S
O67 C63 1.241 . S
O68 Co56 2.137 . S
O68 C59 1.247 . S
O69 Co56 2.244 . S
O69 C59 1.272 . S
O69 Co61 2.135 . S
Co70 O71 2.216 . S
Co70 O72 2.091 . S
Co70 O74 2.004 . S
Co70 O80 2.021 . S
Co70 O82 2.137 . S
Co70 O83 2.244 . S
O71 Co70 2.216 . S
O71 C78 1.247 . S
O72 Co70 2.091 . S
O72 C78 1.261 . S
C73 O82 1.247 . S
C73 O83 1.272 . S
O74 Co70 2.004 . S
O74 C79 1.259 . S
Co75 O76 2.061 . S
Co75 O81 2.052 . S
Co75 O83 2.135 . S
O76 Co75 2.061 . S
O76 C79 1.235 . S
C77 O80 1.238 . S
C77 O81 1.241 . S
C78 O71 1.247 . S
C78 O72 1.261 . S
C79 O74 1.259 . S
C79 O76 1.235 . S
O80 Co70 2.021 . S
O80 C77 1.238 . S
O81 Co75 2.052 . S
O81 C77 1.241 . S
O82 Co70 2.137 . S
O82 C73 1.247 . S
O83 Co70 2.244 . S
O83 C73 1.272 . S
O83 Co75 2.135 . S
Co84 O85 2.216 . S
Co84 O86 2.091 . S
Co84 O88 2.004 . S
Co84 O94 2.021 . S
Co84 O96 2.137 . S
Co84 O97 2.244 . S
O85 Co84 2.216 . S
O85 C92 1.247 . S
O86 Co84 2.091 . S
O86 C92 1.261 . S
C87 O96 1.247 . S
C87 O97 1.272 . S
O88 Co84 2.004 . S
O88 C93 1.259 . S
Co89 O90 2.061 . S
Co89 O95 2.052 . S
Co89 O97 2.135 . S
O90 Co89 2.061 . S
O90 C93 1.235 . S
C91 O94 1.238 . S
C91 O95 1.241 . S
C92 O85 1.247 . S
C92 O86 1.261 . S
C93 O88 1.259 . S
C93 O90 1.235 . S
O94 Co84 2.021 . S
O94 C91 1.238 . S
O95 Co89 2.052 . S
O95 C91 1.241 . S
O96 Co84 2.137 . S
O96 C87 1.247 . S
O97 Co84 2.244 . S
O97 C87 1.272 . S
O97 Co89 2.135 . S
Co98 O99 2.216 . S
Co98 O100 2.091 . S
Co98 O102 2.004 . S
Co98 O108 2.021 . S
Co98 O110 2.137 . S
Co98 O111 2.244 . S
O99 Co98 2.216 . S
O99 C106 1.247 . S
O100 Co98 2.091 . S
O100 C106 1.261 . S
C101 O110 1.247 . S
C101 O111 1.272 . S
O102 Co98 2.004 . S
O102 C107 1.259 . S
Co103 O104 2.061 . S
Co103 O109 2.052 . S
Co103 O111 2.135 . S
O104 Co103 2.061 . S
O104 C107 1.235 . S
C105 O108 1.238 1_554 S
C105 O109 1.241 1_554 S
C106 O99 1.247 . S
C106 O100 1.261 . S
C107 O102 1.259 . S
C107 O104 1.235 . S
O108 Co98 2.021 . S
O108 C105 1.238 1_556 S
O109 Co103 2.052 . S
O109 C105 1.241 1_556 S
O110 Co98 2.137 . S
O110 C101 1.247 . S
O111 Co98 2.244 . S
O111 C101 1.272 . S
O111 Co103 2.135 . S
Co112 O113 2.216 . S
Co112 O114 2.091 . S
Co112 O116 2.004 . S
Co112 O122 2.021 . S
Co112 O124 2.137 . S
Co112 O125 2.244 . S
O113 Co112 2.216 . S
O113 C120 1.247 . S
O114 Co112 2.091 . S
O114 C120 1.261 . S
C115 O124 1.247 . S
C115 O125 1.272 . S
O116 Co112 2.004 . S
O116 C121 1.259 . S
Co117 O118 2.061 . S
Co117 O123 2.052 . S
Co117 O125 2.135 . S
O118 Co117 2.061 . S
O118 C121 1.235 . S
C119 O122 1.238 . S
C119 O123 1.241 . S
C120 O113 1.247 . S
C120 O114 1.261 . S
C121 O116 1.259 . S
C121 O118 1.235 . S
O122 Co112 2.021 . S
O122 C119 1.238 . S
O123 Co117 2.052 . S
O123 C119 1.241 . S
O124 Co112 2.137 . S
O124 C115 1.247 . S
O125 Co112 2.244 . S
O125 C115 1.272 . S
O125 Co117 2.135 . S
Co126 O127 2.216 . S
Co126 O128 2.091 . S
Co126 O130 2.004 . S
Co126 O136 2.021 . S
Co126 O138 2.137 . S
Co126 O139 2.244 . S
O127 Co126 2.216 . S
O127 C134 1.247 . S
O128 Co126 2.091 . S
O128 C134 1.261 . S
C129 O138 1.247 . S
C129 O139 1.272 . S
O130 Co126 2.004 . S
O130 C135 1.259 . S
Co131 O132 2.061 . S
Co131 O137 2.052 . S
Co131 O139 2.135 . S
O132 Co131 2.061 . S
O132 C135 1.235 . S
C133 O136 1.238 . S
C133 O137 1.241 . S
C134 O127 1.247 . S
C134 O128 1.261 . S
C135 O130 1.259 . S
C135 O132 1.235 . S
O136 Co126 2.021 . S
O136 C133 1.238 . S
O137 Co131 2.052 . S
O137 C133 1.241 . S
O138 Co126 2.137 . S
O138 C129 1.247 . S
O139 Co126 2.244 . S
O139 C129 1.272 . S
O139 Co131 2.135 . S
Co140 O141 2.216 . S
Co140 O142 2.091 . S
Co140 O144 2.004 . S
Co140 O150 2.021 . S
Co140 O152 2.137 . S
Co140 O153 2.244 . S
O141 Co140 2.216 . S
O141 C148 1.247 . S
O142 Co140 2.091 . S
O142 C148 1.261 . S
C143 O152 1.247 . S
C143 O153 1.272 . S
O144 Co140 2.004 . S
O144 C149 1.259 . S
Co145 O146 2.061 . S
Co145 O151 2.052 . S
Co145 O153 2.135 . S
O146 Co145 2.061 . S
O146 C149 1.235 . S
C147 O150 1.238 1_554 S
C147 O151 1.241 1_554 S
C148 O141 1.247 . S
C148 O142 1.261 . S
C149 O144 1.259 . S
C149 O146 1.235 . S
O150 Co140 2.021 . S
O150 C147 1.238 1_556 S
O151 Co145 2.052 . S
O151 C147 1.241 1_556 S
O152 Co140 2.137 . S
O152 C143 1.247 . S
O153 Co140 2.244 . S
O153 C143 1.272 . S
O153 Co145 2.135 . S
Co154 O155 2.216 . S
Co154 O156 2.091 . S
Co154 O158 2.004 . S
Co154 O164 2.021 . S
Co154 O166 2.137 . S
Co154 O167 2.244 . S
O155 Co154 2.216 . S
O155 C162 1.247 . S
O156 Co154 2.091 . S
O156 C162 1.261 . S
C157 O166 1.247 . S
C157 O167 1.272 . S
O158 Co154 2.004 . S
O158 C163 1.259 . S
Co159 O160 2.061 . S
Co159 O165 2.052 . S
Co159 O167 2.135 . S
O160 Co159 2.061 . S
O160 C163 1.235 . S
C161 O164 1.238 . S
C161 O165 1.241 . S
C162 O155 1.247 . S
C162 O156 1.261 . S
C163 O158 1.259 . S
C163 O160 1.235 . S
O164 Co154 2.021 . S
O164 C161 1.238 . S
O165 Co159 2.052 . S
O165 C161 1.241 . S
O166 Co154 2.137 . S
O166 C157 1.247 . S
O167 Co154 2.244 . S
O167 C157 1.272 . S
O167 Co159 2.135 . S
H168 C174 0.930 . S
H169 C178 0.930 . S
H170 C183 0.929 . S
H171 C181 0.929 . S
H172 C176 0.929 . S
H173 C182 0.929 . S
C174 H168 0.930 . S
C174 C175 1.367 . S
C174 C182 1.378 . S
C175 C174 1.367 . S
C175 C183 1.433 . S
C176 H172 0.929 . S
C176 C178 1.378 . S
C176 C180 1.350 . S
C177 C180 1.463 . S
C177 C182 1.350 . S
C177 N185 1.427 . S
C178 H169 0.930 . S
C178 C176 1.378 . S
C178 C179 1.367 . S
C179 C178 1.367 . S
C179 C181 1.433 . S
C180 C176 1.350 . S
C180 C177 1.463 . S
C180 N184 1.427 . S
C181 H171 0.929 . S
C181 C179 1.433 . S
C181 N184 1.384 . S
C182 H173 0.929 . S
C182 C174 1.378 . S
C182 C177 1.350 . S
C183 H170 0.929 . S
C183 C175 1.433 . S
C183 N185 1.384 . S
N184 C180 1.427 . S
N184 C181 1.384 . S
N185 C177 1.427 . S
N185 C183 1.384 . S
H186 C192 0.930 . S
H187 C196 0.930 . S
H188 C201 0.929 . S
H189 C199 0.929 . S
H190 C194 0.929 . S
H191 C200 0.929 . S
C192 H186 0.930 . S
C192 C193 1.367 . S
C192 C200 1.378 . S
C193 C192 1.367 . S
C193 C201 1.433 . S
C194 H190 0.929 . S
C194 C196 1.378 . S
C194 C198 1.350 . S
C195 C198 1.463 . S
C195 C200 1.350 . S
C195 N203 1.427 . S
C196 H187 0.930 . S
C196 C194 1.378 . S
C196 C197 1.367 . S
C197 C196 1.367 . S
C197 C199 1.433 . S
C198 C194 1.350 . S
C198 C195 1.463 . S
C198 N202 1.427 . S
C199 H189 0.929 . S
C199 C197 1.433 . S
C199 N202 1.384 . S
C200 H191 0.929 . S
C200 C192 1.378 . S
C200 C195 1.350 . S
C201 H188 0.929 . S
C201 C193 1.433 . S
C201 N203 1.384 . S
N202 C198 1.427 . S
N202 C199 1.384 . S
N203 C195 1.427 . S
N203 C201 1.384 . S
H204 C210 0.930 . S
H205 C214 0.930 . S
H206 C219 0.929 . S
H207 C217 0.929 . S
H208 C212 0.929 . S
H209 C218 0.929 . S
C210 H204 0.930 . S
C210 C211 1.367 . S
C210 C218 1.378 . S
C211 C210 1.367 . S
C211 C219 1.433 . S
C212 H208 0.929 . S
C212 C214 1.378 . S
C212 C216 1.350 . S
C213 C216 1.463 1_556 S
C213 C218 1.350 . S
C213 N221 1.427 . S
C214 H205 0.930 . S
C214 C212 1.378 . S
C214 C215 1.367 . S
C215 C214 1.367 . S
C215 C217 1.433 . S
C216 C212 1.350 . S
C216 C213 1.463 1_554 S
C216 N220 1.427 . S
C217 H207 0.929 . S
C217 C215 1.433 . S
C217 N220 1.384 . S
C218 H209 0.929 . S
C218 C210 1.378 . S
C218 C213 1.350 . S
C219 H206 0.929 . S
C219 C211 1.433 . S
C219 N221 1.384 . S
N220 C216 1.427 . S
N220 C217 1.384 . S
N221 C213 1.427 . S
N221 C219 1.384 . S
H222 C228 0.930 . S
H223 C232 0.930 . S
H224 C237 0.929 . S
H225 C235 0.929 . S
H226 C230 0.929 . S
H227 C236 0.929 . S
C228 H222 0.930 . S
C228 C229 1.367 . S
C228 C236 1.378 . S
C229 C228 1.367 . S
C229 C237 1.433 . S
C230 H226 0.929 . S
C230 C232 1.378 . S
C230 C234 1.350 . S
C231 C234 1.463 . S
C231 C236 1.350 . S
C231 N239 1.427 . S
C232 H223 0.930 . S
C232 C230 1.378 . S
C232 C233 1.367 . S
C233 C232 1.367 . S
C233 C235 1.433 . S
C234 C230 1.350 . S
C234 C231 1.463 . S
C234 N238 1.427 . S
C235 H225 0.929 . S
C235 C233 1.433 . S
C235 N238 1.384 . S
C236 H227 0.929 . S
C236 C228 1.378 . S
C236 C231 1.350 . S
C237 H224 0.929 . S
C237 C229 1.433 . S
C237 N239 1.384 . S
N238 C234 1.427 . S
N238 C235 1.384 . S
N239 C231 1.427 . S
N239 C237 1.384 . S
H240 C246 0.930 . S
H241 C250 0.930 . S
H242 C255 0.929 . S
H243 C253 0.929 . S
H244 C248 0.929 . S
H245 C254 0.929 . S
C246 H240 0.930 . S
C246 C247 1.367 . S
C246 C254 1.378 . S
C247 C246 1.367 . S
C247 C255 1.433 . S
C248 H244 0.929 . S
C248 C250 1.378 . S
C248 C252 1.350 . S
C249 C252 1.463 . S
C249 C254 1.350 . S
C249 N257 1.427 . S
C250 H241 0.930 . S
C250 C248 1.378 . S
C250 C251 1.367 . S
C251 C250 1.367 . S
C251 C253 1.433 . S
C252 C248 1.350 . S
C252 C249 1.463 . S
C252 N256 1.427 . S
C253 H243 0.929 . S
C253 C251 1.433 . S
C253 N256 1.384 . S
C254 H245 0.929 . S
C254 C246 1.378 . S
C254 C249 1.350 . S
C255 H242 0.929 . S
C255 C247 1.433 . S
C255 N257 1.384 . S
N256 C252 1.427 . S
N256 C253 1.384 . S
N257 C249 1.427 . S
N257 C255 1.384 . S
H258 C264 0.930 . S
H259 C268 0.930 . S
H260 C273 0.929 . S
H261 C271 0.929 . S
H262 C266 0.929 . S
H263 C272 0.929 . S
C264 H258 0.930 . S
C264 C265 1.367 . S
C264 C272 1.378 . S
C265 C264 1.367 . S
C265 C273 1.433 . S
C266 H262 0.929 . S
C266 C268 1.378 . S
C266 C270 1.350 . S
C267 C270 1.463 1_554 S
C267 C272 1.350 . S
C267 N275 1.427 . S
C268 H259 0.930 . S
C268 C266 1.378 . S
C268 C269 1.367 . S
C269 C268 1.367 . S
C269 C271 1.433 . S
C270 C266 1.350 . S
C270 C267 1.463 1_556 S
C270 N274 1.427 . S
C271 H261 0.929 . S
C271 C269 1.433 . S
C271 N274 1.384 . S
C272 H263 0.929 . S
C272 C264 1.378 . S
C272 C267 1.350 . S
C273 H260 0.929 . S
C273 C265 1.433 . S
C273 N275 1.384 . S
N274 C270 1.427 . S
N274 C271 1.384 . S
N275 C267 1.427 . S
N275 C273 1.384 . S
H276 C282 0.930 . S
H277 C286 0.930 . S
H278 C291 0.929 . S
H279 C289 0.929 . S
H280 C284 0.929 . S
H281 C290 0.929 . S
C282 H276 0.930 . S
C282 C283 1.367 . S
C282 C290 1.378 . S
C283 C282 1.367 . S
C283 C291 1.433 . S
C284 H280 0.929 . S
C284 C286 1.378 . S
C284 C288 1.350 . S
C285 C288 1.463 1_554 S
C285 C290 1.350 . S
C285 N293 1.427 . S
C286 H277 0.930 . S
C286 C284 1.378 . S
C286 C287 1.367 . S
C287 C286 1.367 . S
C287 C289 1.433 . S
C288 C284 1.350 . S
C288 C285 1.463 1_556 S
C288 N292 1.427 . S
C289 H279 0.929 . S
C289 C287 1.433 . S
C289 N292 1.384 . S
C290 H281 0.929 . S
C290 C282 1.378 . S
C290 C285 1.350 . S
C291 H278 0.929 . S
C291 C283 1.433 . S
C291 N293 1.384 . S
N292 C288 1.427 . S
N292 C289 1.384 . S
N293 C285 1.427 . S
N293 C291 1.384 . S
H294 C300 0.930 . S
H295 C304 0.930 . S
H296 C309 0.929 . S
H297 C307 0.929 . S
H298 C302 0.929 . S
H299 C308 0.929 . S
C300 H294 0.930 . S
C300 C301 1.367 . S
C300 C308 1.378 . S
C301 C300 1.367 . S
C301 C309 1.433 . S
C302 H298 0.929 . S
C302 C304 1.378 . S
C302 C306 1.350 . S
C303 C306 1.463 . S
C303 C308 1.350 . S
C303 N311 1.427 . S
C304 H295 0.930 . S
C304 C302 1.378 . S
C304 C305 1.367 . S
C305 C304 1.367 . S
C305 C307 1.433 . S
C306 C302 1.350 . S
C306 C303 1.463 . S
C306 N310 1.427 . S
C307 H297 0.929 . S
C307 C305 1.433 . S
C307 N310 1.384 . S
C308 H299 0.929 . S
C308 C300 1.378 . S
C308 C303 1.350 . S
C309 H296 0.929 . S
C309 C301 1.433 . S
C309 N311 1.384 . S
N310 C306 1.427 . S
N310 C307 1.384 . S
N311 C303 1.427 . S
N311 C309 1.384 . S
H312 C318 0.930 . S
H313 C322 0.930 . S
H314 C327 0.929 . S
H315 C325 0.929 . S
H316 C320 0.929 . S
H317 C326 0.929 . S
C318 H312 0.930 . S
C318 C319 1.367 . S
C318 C326 1.378 . S
C319 C318 1.367 . S
C319 C327 1.433 . S
C320 H316 0.929 . S
C320 C322 1.378 . S
C320 C324 1.350 . S
C321 C324 1.463 . S
C321 C326 1.350 . S
C321 N329 1.427 . S
C322 H313 0.930 . S
C322 C320 1.378 . S
C322 C323 1.367 . S
C323 C322 1.367 . S
C323 C325 1.433 . S
C324 C320 1.350 . S
C324 C321 1.463 . S
C324 N328 1.427 . S
C325 H315 0.929 . S
C325 C323 1.433 . S
C325 N328 1.384 . S
C326 H317 0.929 . S
C326 C318 1.378 . S
C326 C321 1.350 . S
C327 H314 0.929 . S
C327 C319 1.433 . S
C327 N329 1.384 . S
N328 C324 1.427 . S
N328 C325 1.384 . S
N329 C321 1.427 . S
N329 C327 1.384 . S
H330 C336 0.930 . S
H331 C340 0.930 . S
H332 C345 0.929 . S
H333 C343 0.929 . S
H334 C338 0.929 . S
H335 C344 0.929 . S
C336 H330 0.930 . S
C336 C337 1.367 . S
C336 C344 1.378 . S
C337 C336 1.367 . S
C337 C345 1.433 . S
C338 H334 0.929 . S
C338 C340 1.378 . S
C338 C342 1.350 . S
C339 C342 1.463 1_554 S
C339 C344 1.350 . S
C339 N347 1.427 . S
C340 H331 0.930 . S
C340 C338 1.378 . S
C340 C341 1.367 . S
C341 C340 1.367 . S
C341 C343 1.433 . S
C342 C338 1.350 . S
C342 C339 1.463 1_556 S
C342 N346 1.427 1_556 S
C343 H333 0.929 . S
C343 C341 1.433 . S
C343 N346 1.384 1_556 S
C344 H335 0.929 . S
C344 C336 1.378 . S
C344 C339 1.350 . S
C345 H332 0.929 . S
C345 C337 1.433 . S
C345 N347 1.384 . S
N346 C342 1.427 1_554 S
N346 C343 1.384 1_554 S
N347 C339 1.427 . S
N347 C345 1.384 . S
H348 C354 0.930 . S
H349 C358 0.930 . S
H350 C363 0.929 . S
H351 C361 0.929 . S
H352 C356 0.929 . S
H353 C362 0.929 . S
C354 H348 0.930 . S
C354 C355 1.367 . S
C354 C362 1.378 . S
C355 C354 1.367 . S
C355 C363 1.433 . S
C356 H352 0.929 . S
C356 C358 1.378 . S
C356 C360 1.350 . S
C357 C360 1.463 . S
C357 C362 1.350 . S
C357 N365 1.427 . S
C358 H349 0.930 . S
C358 C356 1.378 . S
C358 C359 1.367 . S
C359 C358 1.367 . S
C359 C361 1.433 . S
C360 C356 1.350 . S
C360 C357 1.463 . S
C360 N364 1.427 . S
C361 H351 0.929 . S
C361 C359 1.433 . S
C361 N364 1.384 . S
C362 H353 0.929 . S
C362 C354 1.378 . S
C362 C357 1.350 . S
C363 H350 0.929 . S
C363 C355 1.433 . S
C363 N365 1.384 . S
N364 C360 1.427 . S
N364 C361 1.384 . S
N365 C357 1.427 . S
N365 C363 1.384 . S
H366 C372 0.930 . S
H367 C376 0.930 . S
H368 C381 0.929 . S
H369 C379 0.929 . S
H370 C374 0.929 . S
H371 C380 0.929 . S
C372 H366 0.930 . S
C372 C373 1.367 . S
C372 C380 1.378 . S
C373 C372 1.367 . S
C373 C381 1.433 . S
C374 H370 0.929 . S
C374 C376 1.378 . S
C374 C378 1.350 . S
C375 C378 1.463 . S
C375 C380 1.350 . S
C375 N383 1.427 . S
C376 H367 0.930 . S
C376 C374 1.378 . S
C376 C377 1.367 . S
C377 C376 1.367 . S
C377 C379 1.433 . S
C378 C374 1.350 . S
C378 C375 1.463 . S
C378 N382 1.427 . S
C379 H369 0.929 . S
C379 C377 1.433 . S
C379 N382 1.384 . S
C380 H371 0.929 . S
C380 C372 1.378 . S
C380 C375 1.350 . S
C381 H368 0.929 . S
C381 C373 1.433 . S
C381 N383 1.384 . S
N382 C378 1.427 . S
N382 C379 1.384 . S
N383 C375 1.427 . S
N383 C381 1.384 . S
H384 C390 0.930 . S
H385 C394 0.930 . S
H386 C399 0.929 . S
H387 C397 0.929 . S
H388 C392 0.929 . S
H389 C398 0.929 . S
C390 H384 0.930 . S
C390 C391 1.367 . S
C390 C398 1.378 . S
C391 C390 1.367 . S
C391 C399 1.433 . S
C392 H388 0.929 . S
C392 C394 1.378 . S
C392 C396 1.350 . S
C393 C396 1.463 . S
C393 C398 1.350 . S
C393 N401 1.427 . S
C394 H385 0.930 . S
C394 C392 1.378 . S
C394 C395 1.367 . S
C395 C394 1.367 . S
C395 C397 1.433 . S
C396 C392 1.350 . S
C396 C393 1.463 . S
C396 N400 1.427 . S
C397 H387 0.929 . S
C397 C395 1.433 . S
C397 N400 1.384 . S
C398 H389 0.929 . S
C398 C390 1.378 . S
C398 C393 1.350 . S
C399 H386 0.929 . S
C399 C391 1.433 . S
C399 N401 1.384 . S
N400 C396 1.427 . S
N400 C397 1.384 . S
N401 C393 1.427 . S
N401 C399 1.384 . S
H402 C408 0.930 . S
H403 C412 0.930 . S
H404 C417 0.929 . S
H405 C415 0.929 . S
H406 C410 0.929 . S
H407 C416 0.929 . S
C408 H402 0.930 . S
C408 C409 1.367 . S
C408 C416 1.378 . S
C409 C408 1.367 . S
C409 C417 1.433 . S
C410 H406 0.929 . S
C410 C412 1.378 . S
C410 C414 1.350 . S
C411 C414 1.463 1_655 S
C411 C416 1.350 . S
C411 N419 1.427 . S
C412 H403 0.930 . S
C412 C410 1.378 . S
C412 C413 1.367 . S
C413 C412 1.367 . S
C413 C415 1.433 . S
C414 C410 1.350 . S
C414 C411 1.463 1_455 S
C414 N418 1.427 . S
C415 H405 0.929 . S
C415 C413 1.433 . S
C415 N418 1.384 . S
C416 H407 0.929 . S
C416 C408 1.378 . S
C416 C411 1.350 . S
C417 H404 0.929 . S
C417 C409 1.433 . S
C417 N419 1.384 . S
N418 C414 1.427 . S
N418 C415 1.384 . S
N419 C411 1.427 . S
N419 C417 1.384 . S
H420 C426 0.930 . S
H421 C430 0.930 . S
H422 C435 0.929 . S
H423 C433 0.929 . S
H424 C428 0.929 . S
H425 C434 0.929 . S
C426 H420 0.930 . S
C426 C427 1.367 . S
C426 C434 1.378 . S
C427 C426 1.367 . S
C427 C435 1.433 . S
C428 H424 0.929 . S
C428 C430 1.378 . S
C428 C432 1.350 . S
C429 C432 1.463 1_545 S
C429 C434 1.350 . S
C429 N437 1.427 . S
C430 H421 0.930 . S
C430 C428 1.378 . S
C430 C431 1.367 . S
C431 C430 1.367 . S
C431 C433 1.433 . S
C432 C428 1.350 . S
C432 C429 1.463 1_565 S
C432 N436 1.427 . S
C433 H423 0.929 . S
C433 C431 1.433 . S
C433 N436 1.384 . S
C434 H425 0.929 . S
C434 C426 1.378 . S
C434 C429 1.350 . S
C435 H422 0.929 . S
C435 C427 1.433 . S
C435 N437 1.384 . S
N436 C432 1.427 . S
N436 C433 1.384 . S
N437 C429 1.427 . S
N437 C435 1.384 . S
H438 C444 0.930 . S
H439 C448 0.930 . S
H440 C453 0.929 . S
H441 C451 0.929 . S
H442 C446 0.929 . S
H443 C452 0.929 . S
C444 H438 0.930 . S
C444 C445 1.367 . S
C444 C452 1.378 . S
C445 C444 1.367 . S
C445 C453 1.433 . S
C446 H442 0.929 . S
C446 C448 1.378 . S
C446 C450 1.350 . S
C447 C450 1.463 . S
C447 C452 1.350 . S
C447 N455 1.427 . S
C448 H439 0.930 . S
C448 C446 1.378 . S
C448 C449 1.367 . S
C449 C448 1.367 . S
C449 C451 1.433 . S
C450 C446 1.350 . S
C450 C447 1.463 . S
C450 N454 1.427 . S
C451 H441 0.929 . S
C451 C449 1.433 . S
C451 N454 1.384 . S
C452 H443 0.929 . S
C452 C444 1.378 . S
C452 C447 1.350 . S
C453 H440 0.929 . S
C453 C445 1.433 . S
C453 N455 1.384 . S
N454 C450 1.427 . S
N454 C451 1.384 . S
N455 C447 1.427 . S
N455 C453 1.384 . S
H456 C462 0.930 . S
H457 C466 0.930 . S
H458 C471 0.929 . S
H459 C469 0.929 . S
H460 C464 0.929 . S
H461 C470 0.929 . S
C462 H456 0.930 . S
C462 C463 1.367 . S
C462 C470 1.378 . S
C463 C462 1.367 . S
C463 C471 1.433 . S
C464 H460 0.929 . S
C464 C466 1.378 . S
C464 C468 1.350 . S
C465 C468 1.463 1_455 S
C465 C470 1.350 . S
C465 N473 1.427 . S
C466 H457 0.930 . S
C466 C464 1.378 . S
C466 C467 1.367 . S
C467 C466 1.367 . S
C467 C469 1.433 . S
C468 C464 1.350 . S
C468 C465 1.463 1_655 S
C468 N472 1.427 . S
C469 H459 0.929 . S
C469 C467 1.433 . S
C469 N472 1.384 . S
C470 H461 0.929 . S
C470 C462 1.378 . S
C470 C465 1.350 . S
C471 H458 0.929 . S
C471 C463 1.433 . S
C471 N473 1.384 . S
N472 C468 1.427 . S
N472 C469 1.384 . S
N473 C465 1.427 . S
N473 C471 1.384 . S
H474 C480 0.930 . S
H475 C484 0.930 . S
H476 C489 0.929 . S
H477 C487 0.929 . S
H478 C482 0.929 . S
H479 C488 0.929 . S
C480 H474 0.930 . S
C480 C481 1.367 . S
C480 C488 1.378 . S
C481 C480 1.367 . S
C481 C489 1.433 . S
C482 H478 0.929 . S
C482 C484 1.378 . S
C482 C486 1.350 . S
C483 C486 1.463 1_565 S
C483 C488 1.350 . S
C483 N491 1.427 1_565 S
C484 H475 0.930 . S
C484 C482 1.378 . S
C484 C485 1.367 . S
C485 C484 1.367 . S
C485 C487 1.433 . S
C486 C482 1.350 . S
C486 C483 1.463 1_545 S
C486 N490 1.427 1_545 S
C487 H477 0.929 . S
C487 C485 1.433 . S
C487 N490 1.384 1_545 S
C488 H479 0.929 . S
C488 C480 1.378 . S
C488 C483 1.350 . S
C489 H476 0.929 . S
C489 C481 1.433 . S
C489 N491 1.384 1_565 S
N490 C486 1.427 1_565 S
N490 C487 1.384 1_565 S
N491 C483 1.427 1_545 S
N491 C489 1.384 1_545 S
H492 C498 0.930 . S
H493 C502 0.930 . S
H494 C507 0.929 . S
H495 C505 0.929 . S
H496 C500 0.929 . S
H497 C506 0.929 . S
C498 H492 0.930 . S
C498 C499 1.367 . S
C498 C506 1.378 . S
C499 C498 1.367 . S
C499 C507 1.433 . S
C500 H496 0.929 . S
C500 C502 1.378 . S
C500 C504 1.350 . S
C501 C504 1.463 . S
C501 C506 1.350 . S
C501 N509 1.427 . S
C502 H493 0.930 . S
C502 C500 1.378 . S
C502 C503 1.367 . S
C503 C502 1.367 . S
C503 C505 1.433 . S
C504 C500 1.350 . S
C504 C501 1.463 . S
C504 N508 1.427 . S
C505 H495 0.929 . S
C505 C503 1.433 . S
C505 N508 1.384 . S
C506 H497 0.929 . S
C506 C498 1.378 . S
C506 C501 1.350 . S
C507 H494 0.929 . S
C507 C499 1.433 . S
C507 N509 1.384 . S
N508 C504 1.427 . S
N508 C505 1.384 . S
N509 C501 1.427 . S
N509 C507 1.384 . S
H510 C516 0.930 . S
H511 C520 0.930 . S
H512 C525 0.929 . S
H513 C523 0.929 . S
H514 C518 0.929 . S
H515 C524 0.929 . S
C516 H510 0.930 . S
C516 C517 1.367 . S
C516 C524 1.378 . S
C517 C516 1.367 . S
C517 C525 1.433 . S
C518 H514 0.929 . S
C518 C520 1.378 . S
C518 C522 1.350 . S
C519 C522 1.463 . S
C519 C524 1.350 . S
C519 N527 1.427 . S
C520 H511 0.930 . S
C520 C518 1.378 . S
C520 C521 1.367 . S
C521 C520 1.367 . S
C521 C523 1.433 . S
C522 C518 1.350 . S
C522 C519 1.463 . S
C522 N526 1.427 . S
C523 H513 0.929 . S
C523 C521 1.433 . S
C523 N526 1.384 . S
C524 H515 0.929 . S
C524 C516 1.378 . S
C524 C519 1.350 . S
C525 H512 0.929 . S
C525 C517 1.433 . S
C525 N527 1.384 . S
N526 C522 1.427 . S
N526 C523 1.384 . S
N527 C519 1.427 . S
N527 C525 1.384 . S
H528 C534 0.930 . S
H529 C538 0.930 . S
H530 C543 0.929 . S
H531 C541 0.929 . S
H532 C536 0.929 . S
H533 C542 0.929 . S
C534 H528 0.930 . S
C534 C535 1.367 . S
C534 C542 1.378 . S
C535 C534 1.367 . S
C535 C543 1.433 . S
C536 H532 0.929 . S
C536 C538 1.378 . S
C536 C540 1.350 . S
C537 C540 1.463 . S
C537 C542 1.350 . S
C537 N545 1.427 . S
C538 H529 0.930 . S
C538 C536 1.378 . S
C538 C539 1.367 . S
C539 C538 1.367 . S
C539 C541 1.433 . S
C540 C536 1.350 . S
C540 C537 1.463 . S
C540 N544 1.427 . S
C541 H531 0.929 . S
C541 C539 1.433 . S
C541 N544 1.384 . S
C542 H533 0.929 . S
C542 C534 1.378 . S
C542 C537 1.350 . S
C543 H530 0.929 . S
C543 C535 1.433 . S
C543 N545 1.384 . S
N544 C540 1.427 . S
N544 C541 1.384 . S
N545 C537 1.427 . S
N545 C543 1.384 . S
H546 C552 0.930 . S
H547 C556 0.930 . S
H548 C561 0.929 . S
H549 C559 0.929 . S
H550 C554 0.929 . S
H551 C560 0.929 . S
C552 H546 0.930 . S
C552 C553 1.367 . S
C552 C560 1.378 . S
C553 C552 1.367 . S
C553 C561 1.433 . S
C554 H550 0.929 . S
C554 C556 1.378 . S
C554 C558 1.350 . S
C555 C558 1.463 . S
C555 C560 1.350 . S
C555 N563 1.427 . S
C556 H547 0.930 . S
C556 C554 1.378 . S
C556 C557 1.367 . S
C557 C556 1.367 . S
C557 C559 1.433 . S
C558 C554 1.350 . S
C558 C555 1.463 . S
C558 N562 1.427 . S
C559 H549 0.929 . S
C559 C557 1.433 . S
C559 N562 1.384 . S
C560 H551 0.929 . S
C560 C552 1.378 . S
C560 C555 1.350 . S
C561 H548 0.929 . S
C561 C553 1.433 . S
C561 N563 1.384 . S
N562 C558 1.427 . S
N562 C559 1.384 . S
N563 C555 1.427 . S
N563 C561 1.384 . S
H564 C570 0.930 . S
H565 C574 0.930 . S
H566 C579 0.929 . S
H567 C577 0.929 . S
H568 C572 0.929 . S
H569 C578 0.929 . S
C570 H564 0.930 . S
C570 C571 1.367 . S
C570 C578 1.378 . S
C571 C570 1.367 . S
C571 C579 1.433 . S
C572 H568 0.929 . S
C572 C574 1.378 . S
C572 C576 1.350 . S
C573 C576 1.463 . S
C573 C578 1.350 . S
C573 N581 1.427 . S
C574 H565 0.930 . S
C574 C572 1.378 . S
C574 C575 1.367 . S
C575 C574 1.367 . S
C575 C577 1.433 . S
C576 C572 1.350 . S
C576 C573 1.463 . S
C576 N580 1.427 . S
C577 H567 0.929 . S
C577 C575 1.433 . S
C577 N580 1.384 . S
C578 H569 0.929 . S
C578 C570 1.378 . S
C578 C573 1.350 . S
C579 H566 0.929 . S
C579 C571 1.433 . S
C579 N581 1.384 . S
N580 C576 1.427 . S
N580 C577 1.384 . S
N581 C573 1.427 . S
N581 C579 1.384 . S
H582 C588 0.930 . S
H583 C592 0.930 . S
H584 C597 0.929 . S
H585 C595 0.929 . S
H586 C590 0.929 . S
H587 C596 0.929 . S
C588 H582 0.930 . S
C588 C589 1.367 . S
C588 C596 1.378 . S
C589 C588 1.367 . S
C589 C597 1.433 . S
C590 H586 0.929 . S
C590 C592 1.378 . S
C590 C594 1.350 . S
C591 C594 1.463 . S
C591 C596 1.350 . S
C591 N599 1.427 . S
C592 H583 0.930 . S
C592 C590 1.378 . S
C592 C593 1.367 . S
C593 C592 1.367 . S
C593 C595 1.433 . S
C594 C590 1.350 . S
C594 C591 1.463 . S
C594 N598 1.427 . S
C595 H585 0.929 . S
C595 C593 1.433 . S
C595 N598 1.384 . S
C596 H587 0.929 . S
C596 C588 1.378 . S
C596 C591 1.350 . S
C597 H584 0.929 . S
C597 C589 1.433 . S
C597 N599 1.384 . S
N598 C594 1.427 . S
N598 C595 1.384 . S
N599 C591 1.427 . S
N599 C597 1.384 . S
C175 C3 1.514 . S
C179 C87 1.510 . S
C193 C17 1.464 . S
C197 C101 1.462 . S
C211 C31 1.514 . S
C215 C115 1.518 . S
C229 C45 1.520 . S
C233 C129 1.508 . S
C247 C59 1.452 . S
C251 C143 1.452 . S
C265 C157 1.516 . S
C269 C73 1.505 . S
C283 C8 1.514 . S
C287 C148 1.591 . S
C301 C22 1.592 . S
C305 C162 1.514 . S
C319 C36 1.562 . S
C323 C92 1.562 . S
C337 C50 1.498 . S
C341 C106 1.590 . S
C355 C64 1.587 . S
C359 C120 1.503 . S
C373 C78 1.561 . S
C377 C134 1.560 . S
C391 C9 1.913 . S
C395 C51 1.913 . S
C409 C23 1.376 . S
C413 C65 1.375 . S
C427 C79 1.203 . S
C431 C37 1.203 . S
C445 C93 1.202 . S
C449 C135 1.201 . S
C463 C149 1.375 . S
C467 C107 1.375 . S
C481 C121 1.896 . S
C485 C163 1.896 . S
C499 C91 0.760 . S
C503 C7 0.746 . S
C517 C21 0.741 . S
C521 C105 0.754 . S
C535 C35 0.753 . S
C539 C119 0.747 . S
C553 C133 0.758 . S
C557 C49 0.746 . S
C571 C147 0.742 . S
C575 C63 0.754 . S
C589 C77 0.741 . S
C593 C161 0.758 . S
