# Generated by pormake.
# Topology mon, (4)-cn, num edge types: 1
# Building blocks:
#     Node 0, Type 0, BuildingBlock: ICAMEG_clean_sbu_1, # of connection points: 4
#     Node 1, Type 0, BuildingBlock: ICAMEG_clean_sbu_1, # of connection points: 4
#     Node 2, Type 0, BuildingBlock: ICAMEG_clean_sbu_1, # of connection points: 4
#     Node 3, Type 0, BuildingBlock: ICAMEG_clean_sbu_1, # of connection points: 4
#     Node 4, Type 0, BuildingBlock: ICAMEG_clean_sbu_1, # of connection points: 4
#     Node 5, Type 0, BuildingBlock: ICAMEG_clean_sbu_1, # of connection points: 4
#     Node 6, Type 0, BuildingBlock: ICAMEG_clean_sbu_1, # of connection points: 4
#     Node 7, Type 0, BuildingBlock: ICAMEG_clean_sbu_1, # of connection points: 4
#     Node 8, Type 0, BuildingBlock: ICAMEG_clean_sbu_1, # of connection points: 4
#     Node 9, Type 0, BuildingBlock: ICAMEG_clean_sbu_1, # of connection points: 4
#     Node 10, Type 0, BuildingBlock: ICAMEG_clean_sbu_1, # of connection points: 4
#     Node 11, Type 0, BuildingBlock: ICAMEG_clean_sbu_1, # of connection points: 4
#     Node 12, Type 0, BuildingBlock: ICAMEG_clean_sbu_1, # of connection points: 4
#     Node 13, Type 0, BuildingBlock: ICAMEG_clean_sbu_1, # of connection points: 4
#     Node 14, Type 0, BuildingBlock: ICAMEG_clean_sbu_1, # of connection points: 4
#     Node 15, Type 0, BuildingBlock: ICAMEG_clean_sbu_1, # of connection points: 4
#     Edge 16, Type (0, 0), BuildingBlock: TEMPAE_clean_linker_10, # of connection points: 2
#     Edge 17, Type (0, 0), BuildingBlock: TEMPAE_clean_linker_10, # of connection points: 2
#     Edge 18, Type (0, 0), BuildingBlock: TEMPAE_clean_linker_10, # of connection points: 2
#     Edge 19, Type (0, 0), BuildingBlock: TEMPAE_clean_linker_10, # of connection points: 2
#     Edge 20, Type (0, 0), BuildingBlock: TEMPAE_clean_linker_10, # of connection points: 2
#     Edge 21, Type (0, 0), BuildingBlock: TEMPAE_clean_linker_10, # of connection points: 2
#     Edge 22, Type (0, 0), BuildingBlock: TEMPAE_clean_linker_10, # of connection points: 2
#     Edge 23, Type (0, 0), BuildingBlock: TEMPAE_clean_linker_10, # of connection points: 2
#     Edge 24, Type (0, 0), BuildingBlock: TEMPAE_clean_linker_10, # of connection points: 2
#     Edge 25, Type (0, 0), BuildingBlock: TEMPAE_clean_linker_10, # of connection points: 2
#     Edge 26, Type (0, 0), BuildingBlock: TEMPAE_clean_linker_10, # of connection points: 2
#     Edge 27, Type (0, 0), BuildingBlock: TEMPAE_clean_linker_10, # of connection points: 2
#     Edge 28, Type (0, 0), BuildingBlock: TEMPAE_clean_linker_10, # of connection points: 2
#     Edge 29, Type (0, 0), BuildingBlock: TEMPAE_clean_linker_10, # of connection points: 2
#     Edge 30, Type (0, 0), BuildingBlock: TEMPAE_clean_linker_10, # of connection points: 2
#     Edge 31, Type (0, 0), BuildingBlock: TEMPAE_clean_linker_10, # of connection points: 2
#     Edge 32, Type (0, 0), BuildingBlock: TEMPAE_clean_linker_10, # of connection points: 2
#     Edge 33, Type (0, 0), BuildingBlock: TEMPAE_clean_linker_10, # of connection points: 2
#     Edge 34, Type (0, 0), BuildingBlock: TEMPAE_clean_linker_10, # of connection points: 2
#     Edge 35, Type (0, 0), BuildingBlock: TEMPAE_clean_linker_10, # of connection points: 2
#     Edge 36, Type (0, 0), BuildingBlock: TEMPAE_clean_linker_10, # of connection points: 2
#     Edge 37, Type (0, 0), BuildingBlock: TEMPAE_clean_linker_10, # of connection points: 2
#     Edge 38, Type (0, 0), BuildingBlock: TEMPAE_clean_linker_10, # of connection points: 2
#     Edge 39, Type (0, 0), BuildingBlock: TEMPAE_clean_linker_10, # of connection points: 2
#     Edge 40, Type (0, 0), BuildingBlock: TEMPAE_clean_linker_10, # of connection points: 2
#     Edge 41, Type (0, 0), BuildingBlock: TEMPAE_clean_linker_10, # of connection points: 2
#     Edge 42, Type (0, 0), BuildingBlock: TEMPAE_clean_linker_10, # of connection points: 2
#     Edge 43, Type (0, 0), BuildingBlock: TEMPAE_clean_linker_10, # of connection points: 2
#     Edge 44, Type (0, 0), BuildingBlock: TEMPAE_clean_linker_10, # of connection points: 2
#     Edge 45, Type (0, 0), BuildingBlock: TEMPAE_clean_linker_10, # of connection points: 2
#     Edge 46, Type (0, 0), BuildingBlock: TEMPAE_clean_linker_10, # of connection points: 2
#     Edge 47, Type (0, 0), BuildingBlock: TEMPAE_clean_linker_10, # of connection points: 2
# Relax obj value: 0.221
# Max RMSD: 0.232
# Mean RMSD: 0.232
data_MOF--net-mon--node1-ICAMEG_clean_sbu_1--edge1-TEMPAE_clean_linker_10
_symmetry_space_group_name_H-M    P1
_symmetry_Int_Tables_number       1
_symmetry_cell_setting            triclinic
loop_
_symmetry_equiv_pos_as_xyz
'x, y, z'
_cell_length_a     34.838966
_cell_length_b     34.776883
_cell_length_c     96.198209
_cell_angle_alpha  90.074641
_cell_angle_beta   90.024751
_cell_angle_gamma 90.015243
loop_
_atom_site_label
_atom_site_type_symbol
_atom_site_fract_x
_atom_site_fract_y
_atom_site_fract_z
_atom_type_partial_charge
Co0 Co 0.9832 0.96908 0.57514 0.0
Co1 Co 0.99864 0.03924 0.59939 0.0
O2 O 0.99582 0.02252 0.57988 0.0
C3 C 0.04664 0.98747 0.5547 0.0
O4 O 0.06779 1.00326 0.56446 0.0
C5 C 0.97319 0.10936 0.58301 0.0
O6 O 0.9721 0.08951 0.57142 0.0
O7 O 0.94473 0.02047 0.60258 0.0
O8 O 0.95052 0.96356 0.592 0.0
H9 H 0.97995 0.02154 0.65079 0.0
H10 H 0.97055 0.02912 0.55375 0.0
O11 O 0.01434 0.97254 0.55768 0.0
H12 H 0.84363 0.97004 0.56133 0.0
H13 H 0.94829 0.86014 0.54291 0.0
H14 H 0.97897 0.89641 0.59121 0.0
H15 H 0.90026 0.94702 0.57421 0.0
H16 H 0.96235 0.92757 0.54896 0.0
O17 O 0.97923 0.09263 0.59461 0.0
H18 H 0.97885 1.00202 0.62615 0.0
H19 H 0.02172 0.11151 0.61421 0.0
H20 H 0.96479 0.82872 0.58564 0.0
H21 H 0.91473 0.05275 0.54052 0.0
H22 H 0.94931 0.81016 0.56133 0.0
H23 H 0.85066 0.02321 0.5443 0.0
O24 O 0.02835 0.95116 0.58608 0.0
H25 H 0.10716 0.10048 0.57247 0.0
H26 H 0.071 0.03508 0.6159 0.0
H27 H 0.13784 0.05557 0.61248 0.0
H28 H 0.15635 0.08895 0.59068 0.0
H29 H 0.04113 0.07863 0.57615 0.0
H30 H 0.02282 0.13231 0.6387 0.0
H31 H 1.00204 0.08712 0.6572 0.0
O32 O 0.01966 0.98766 0.60509 0.0
C33 C 0.93327 0.98604 0.60039 0.0
C34 C 0.98917 0.04146 0.64282 0.0
C35 C 0.01315 0.10365 0.63604 0.0
N36 N 1.00037 0.05548 0.61873 0.0
C37 C 0.98871 0.03054 0.62885 0.0
C38 C 0.01228 0.09175 0.62217 0.0
C39 C 1.00152 0.07827 0.64641 0.0
C40 C 0.94281 0.01606 0.55544 0.0
N41 N 0.93871 0.98688 0.56481 0.0
C42 C 0.91128 0.02959 0.54792 0.0
C43 C 0.87534 0.01302 0.55006 0.0
C44 C 0.87137 0.98322 0.55962 0.0
C45 C 0.90354 0.97044 0.56694 0.0
C46 C 0.95503 0.86785 0.55353 0.0
C47 C 0.97224 0.88864 0.58061 0.0
C48 C 0.96318 0.90599 0.55701 0.0
N49 N 0.97154 0.91601 0.57043 0.0
C50 C 0.96424 0.85022 0.57751 0.0
C51 C 0.95558 0.83983 0.56388 0.0
C52 C 0.03441 0.95859 0.59892 0.0
C53 C 0.09938 0.08639 0.5821 0.0
C54 C 0.07861 0.04946 0.60638 0.0
C55 C 0.11662 0.06108 0.60451 0.0
C56 C 0.12699 0.07981 0.59229 0.0
N57 N 0.05139 0.05651 0.59644 0.0
C58 C 0.06166 0.07429 0.58433 0.0
Co59 Co 0.28924 0.74402 0.82287 0.0
Co60 Co 0.221 0.75485 0.84829 0.0
O61 O 0.23637 0.75637 0.82857 0.0
C62 C 0.26399 0.80762 0.80329 0.0
O63 O 0.23821 0.82004 0.81214 0.0
C64 C 0.15046 0.7313 0.83179 0.0
O65 O 0.17009 0.7315 0.82017 0.0
O66 O 0.23924 0.70031 0.84975 0.0
O67 O 0.29487 0.70658 0.83844 0.0
H68 H 0.24203 0.72453 0.89878 0.0
H69 H 0.22722 0.73812 0.8017 0.0
O70 O 0.2864 0.78017 0.80659 0.0
H71 H 0.28495 0.60893 0.80388 0.0
H72 H 0.39541 0.71569 0.78877 0.0
H73 H 0.36242 0.73361 0.8382 0.0
H74 H 0.30952 0.66132 0.81866 0.0
H75 H 0.32879 0.72964 0.79576 0.0
O76 O 0.16726 0.73677 0.84342 0.0
H77 H 0.25976 0.7287 0.87404 0.0
H78 H 0.15035 0.77558 0.86437 0.0
H79 H 0.42931 0.71935 0.83167 0.0
H80 H 0.20223 0.68679 0.78656 0.0
H81 H 0.4462 0.71031 0.80679 0.0
H82 H 0.23102 0.62153 0.78761 0.0
O83 O 0.3089 0.78573 0.83519 0.0
H84 H 0.15409 0.86819 0.82616 0.0
H85 H 0.22953 0.82395 0.86636 0.0
H86 H 0.20888 0.89147 0.86523 0.0
H87 H 0.1705 0.91404 0.84507 0.0
H88 H 0.17629 0.80143 0.82752 0.0
H89 H 0.13135 0.77158 0.889 0.0
H90 H 0.1774 0.74607 0.90642 0.0
O91 O 0.27314 0.77406 0.85413 0.0
C92 C 0.27295 0.68845 0.84675 0.0
C93 C 0.22173 0.73579 0.8913 0.0
C94 C 0.1596 0.76212 0.8858 0.0
N95 N 0.20622 0.75249 0.86775 0.0
C96 C 0.23164 0.73829 0.87727 0.0
C97 C 0.17048 0.76416 0.87185 0.0
C98 C 0.18546 0.74783 0.89557 0.0
C99 C 0.24012 0.70996 0.80218 0.0
N100 N 0.2698 0.70286 0.81111 0.0
C101 C 0.22574 0.68092 0.7936 0.0
C102 C 0.24188 0.64431 0.79421 0.0
C103 C 0.27209 0.63722 0.80334 0.0
C104 C 0.28575 0.66698 0.81176 0.0
C105 C 0.38841 0.71958 0.79964 0.0
C106 C 0.36947 0.72963 0.82735 0.0
C107 C 0.35074 0.72764 0.80367 0.0
N108 N 0.34164 0.73243 0.81739 0.0
C109 C 0.40743 0.72159 0.82372 0.0
C110 C 0.41689 0.71654 0.80976 0.0
C111 C 0.30226 0.7893 0.8482 0.0
C112 C 0.17059 0.85869 0.83505 0.0
C113 C 0.21328 0.83346 0.85748 0.0
C114 C 0.20144 0.87179 0.85693 0.0
C115 C 0.17988 0.88441 0.84564 0.0
N116 N 0.20389 0.80819 0.84711 0.0
C117 C 0.18299 0.82059 0.83596 0.0
Co118 Co 0.53524 0.03179 0.07643 0.0
Co119 Co 0.52223 0.96311 0.10114 0.0
O120 O 0.52258 0.97854 0.08148 0.0
C121 C 0.47324 0.00813 0.05614 0.0
O122 O 0.45671 0.98662 0.0656 0.0
C123 C 0.54387 0.89175 0.08464 0.0
O124 O 0.54479 0.91159 0.07307 0.0
O125 O 0.57711 0.97968 0.10282 0.0
O126 O 0.56964 0.03757 0.09303 0.0
H127 H 0.54987 0.98257 0.15196 0.0
H128 H 0.54637 0.97091 0.05514 0.0
O129 O 0.50254 0.02829 0.05925 0.0
H130 H 0.67378 0.03019 0.06138 0.0
H131 H 0.56776 0.13997 0.04367 0.0
H132 H 0.54124 0.10468 0.09236 0.0
H133 H 0.61806 0.05383 0.07462 0.0
H134 H 0.55381 0.07271 0.04996 0.0
O135 O 0.53843 0.90859 0.09629 0.0
H136 H 0.54839 1.0006 0.12721 0.0
H137 H 0.49771 0.89317 0.11688 0.0
H138 H 0.55541 0.17219 0.08654 0.0
H139 H 0.60123 0.94675 0.04153 0.0
H140 H 0.56878 0.19024 0.06204 0.0
H141 H 0.66556 0.97635 0.04464 0.0
O142 O 0.49078 0.04972 0.08775 0.0
H143 H 0.40724 0.90052 0.07845 0.0
H144 H 0.45278 0.97647 0.11848 0.0
H145 H 0.38453 0.95873 0.11694 0.0
H146 H 0.36132 0.92017 0.09688 0.0
H147 H 0.47481 0.91964 0.08021 0.0
H148 H 0.49903 0.87383 0.14152 0.0
H149 H 0.52507 0.91875 0.15927 0.0
O150 O 0.50492 0.01604 0.10694 0.0
C151 C 0.58833 0.01413 0.10063 0.0
C152 C 0.53842 0.96275 0.14433 0.0
C153 C 0.50994 0.90171 0.13846 0.0
N154 N 0.52296 0.94805 0.12058 0.0
C155 C 0.53746 0.97284 0.13029 0.0
C156 C 0.50944 0.91278 0.12451 0.0
C157 C 0.52453 0.92694 0.14842 0.0
C158 C 0.57419 0.98408 0.05652 0.0
N159 N 0.57892 0.01366 0.06571 0.0
C160 C 0.60519 0.97022 0.04879 0.0
C161 C 0.64128 0.98683 0.05055 0.0
C162 C 0.64591 0.01701 0.05994 0.0
C163 C 0.61424 0.03016 0.06746 0.0
C164 C 0.56196 0.13247 0.05439 0.0
C165 C 0.5471 0.11223 0.08168 0.0
C166 C 0.55388 0.09444 0.05801 0.0
N167 N 0.5467 0.0847 0.07152 0.0
C168 C 0.55507 0.15054 0.07844 0.0
C169 C 0.56255 0.16066 0.06469 0.0
C170 C 0.4879 0.04383 0.10082 0.0
C171 C 0.41706 0.91695 0.08733 0.0
C172 C 0.44307 0.95968 0.10969 0.0
C173 C 0.4043 0.94971 0.10889 0.0
C174 C 0.3913 0.92808 0.09764 0.0
N175 N 0.46839 0.94827 0.09962 0.0
C176 C 0.45562 0.9275 0.08847 0.0
Co177 Co 0.23496 0.27491 0.32885 0.0
Co178 Co 0.30078 0.25083 0.35394 0.0
O179 O 0.28709 0.25931 0.33432 0.0
C180 C 0.25248 0.21248 0.30798 0.0
O181 O 0.26691 0.19043 0.31773 0.0
C182 C 0.37318 0.28359 0.34063 0.0
O183 O 0.3547 0.29322 0.32927 0.0
O184 O 0.2826 0.30411 0.35887 0.0
O185 O 0.22878 0.30564 0.34618 0.0
H186 H 0.27631 0.2568 0.40538 0.0
H187 H 0.29824 0.28686 0.30871 0.0
O188 O 0.2391 0.2455 0.31099 0.0
H189 H 0.24554 0.41608 0.31771 0.0
H190 H 0.1332 0.31972 0.29533 0.0
H191 H 0.16053 0.28137 0.34365 0.0
H192 H 0.21783 0.35916 0.32917 0.0
H193 H 0.19867 0.30111 0.30234 0.0
O194 O 0.35494 0.27002 0.35103 0.0
H195 H 0.26068 0.26545 0.38059 0.0
H196 H 0.36891 0.21912 0.3691 0.0
H197 H 0.09474 0.3001 0.33712 0.0
H198 H 0.32649 0.34298 0.29687 0.0
H199 H 0.0807 0.31944 0.31279 0.0
H200 H 0.3002 0.40819 0.30138 0.0
O201 O 0.21275 0.22926 0.33849 0.0
H202 H 0.36649 0.15185 0.32395 0.0
H203 H 0.29278 0.17311 0.36694 0.0
H204 H 0.31258 0.10744 0.36068 0.0
H205 H 0.35003 0.09644 0.33908 0.0
H206 H 0.34526 0.21679 0.33043 0.0
H207 H 0.38596 0.21053 0.39377 0.0
H208 H 0.33939 0.22923 0.41212 0.0
O209 O 0.24837 0.22961 0.35792 0.0
C210 C 0.24981 0.31864 0.35594 0.0
C211 C 0.29686 0.24855 0.39748 0.0
C212 C 0.35843 0.22267 0.39097 0.0
N213 N 0.3139 0.24296 0.37338 0.0
C214 C 0.28815 0.25334 0.38342 0.0
C215 C 0.34873 0.22788 0.37701 0.0
C216 C 0.33226 0.23312 0.40126 0.0
C217 C 0.28649 0.31511 0.31067 0.0
N218 N 0.25651 0.31968 0.31967 0.0
C219 C 0.30268 0.3468 0.30396 0.0
C220 C 0.28794 0.38338 0.30651 0.0
C221 C 0.25731 0.38783 0.31568 0.0
C222 C 0.24187 0.35548 0.32221 0.0
C223 C 0.13894 0.31131 0.30595 0.0
C224 C 0.1547 0.28976 0.33305 0.0
C225 C 0.17594 0.30057 0.30998 0.0
N226 N 0.18346 0.29006 0.32339 0.0
C227 C 0.11736 0.30034 0.32941 0.0
C228 C 0.1095 0.31117 0.31576 0.0
C229 C 0.21892 0.21887 0.35103 0.0
C230 C 0.35032 0.15627 0.33343 0.0
C231 C 0.3085 0.16863 0.35744 0.0
C232 C 0.31994 0.13133 0.35399 0.0
C233 C 0.34099 0.12518 0.34189 0.0
N234 N 0.3178 0.19909 0.34913 0.0
C235 C 0.33838 0.19316 0.33722 0.0
Co236 Co 0.99455 0.03854 0.4321 0.0
Co237 Co 0.00604 0.96847 0.40731 0.0
O238 O 0.00628 0.98506 0.42693 0.0
C239 C 0.05839 0.01578 0.45192 0.0
O240 O 0.07354 0.99222 0.44279 0.0
C241 C 0.98071 0.89903 0.42409 0.0
O242 O 0.98038 0.91939 0.43557 0.0
O243 O 0.95206 0.98797 0.40503 0.0
O244 O 0.95883 0.0441 0.41606 0.0
H245 H 0.98066 0.98707 0.35633 0.0
H246 H 0.98607 0.9784 0.45375 0.0
O247 O 0.02907 0.03579 0.44878 0.0
H248 H 0.8579 0.03711 0.44928 0.0
H249 H 0.9653 0.14718 0.46518 0.0
H250 H 0.98716 0.11128 0.41622 0.0
H251 H 0.91186 0.06014 0.43499 0.0
H252 H 0.97844 0.07983 0.45876 0.0
O253 O 0.98652 0.91525 0.41237 0.0
H254 H 0.98314 0.00628 0.38098 0.0
H255 H 0.02624 0.89615 0.39201 0.0
H256 H 0.97377 0.17888 0.42217 0.0
H257 H 0.93306 0.95488 0.4684 0.0
H258 H 0.96275 0.19725 0.44681 0.0
H259 H 0.86834 0.9842 0.46618 0.0
O260 O 0.03757 0.05664 0.42018 0.0
H261 H 0.11624 0.90218 0.43164 0.0
H262 H 0.07641 0.97311 0.38979 0.0
H263 H 0.14321 0.95115 0.39191 0.0
H264 H 0.16355 0.91498 0.4129 0.0
H265 H 0.05028 0.9257 0.42929 0.0
H266 H 0.02383 0.87568 0.36749 0.0
H267 H 1.0011 0.92134 0.34944 0.0
O268 O 0.02698 0.01991 0.40133 0.0
C269 C 0.94092 0.02227 0.40763 0.0
C270 C 0.99071 0.96694 0.3641 0.0
C271 C 0.01486 0.9044 0.37036 0.0
N272 N 0.00496 0.95247 0.38795 0.0
C273 C 0.99226 0.97768 0.37808 0.0
C274 C 0.01599 0.91613 0.38425 0.0
C275 C 1.00214 0.93005 0.36024 0.0
C276 C 0.95809 0.99145 0.45276 0.0
N277 N 0.95214 0.02052 0.44347 0.0
C278 C 0.92813 0.97794 0.46107 0.0
C279 C 0.89182 0.99438 0.45981 0.0
C280 C 0.88594 0.02403 0.45032 0.0
C281 C 0.91659 0.03681 0.44219 0.0
C282 C 0.97007 0.13954 0.4544 0.0
C283 C 0.98233 0.11897 0.42696 0.0
C284 C 0.97767 0.10145 0.45071 0.0
N285 N 0.98358 0.09154 0.43711 0.0
C286 C 0.97479 0.15734 0.43027 0.0
C287 C 0.96862 0.16762 0.44409 0.0
C288 C 0.04217 0.04914 0.40727 0.0
C289 C 0.10769 0.91762 0.42237 0.0
C290 C 0.08492 0.95779 0.39902 0.0
C291 C 0.12286 0.94522 0.40013 0.0
C292 C 0.13424 0.9249 0.41189 0.0
N293 N 0.05879 0.95027 0.40927 0.0
C294 C 0.07001 0.93071 0.4209 0.0
Co295 Co 0.22572 0.73399 0.67835 0.0
Co296 Co 0.2947 0.7655 0.65564 0.0
O297 O 0.2777 0.75363 0.67464 0.0
C298 C 0.23573 0.79528 0.70012 0.0
O299 O 0.24822 0.81931 0.69063 0.0
C300 C 0.36654 0.73625 0.67041 0.0
O301 O 0.34679 0.72384 0.68111 0.0
O302 O 0.28224 0.71157 0.64975 0.0
O303 O 0.22534 0.70461 0.66048 0.0
H304 H 0.28193 0.76378 0.6036 0.0
H305 H 0.28586 0.72352 0.69989 0.0
O306 O 0.22484 0.76166 0.69666 0.0
H307 H 0.24248 0.59262 0.68792 0.0
H308 H 0.12012 0.68005 0.70834 0.0
H309 H 0.15552 0.72354 0.6613 0.0
H310 H 0.21345 0.64912 0.67663 0.0
H311 H 0.18543 0.70384 0.70351 0.0
O312 O 0.34939 0.75045 0.65988 0.0
H313 H 0.26195 0.75057 0.62771 0.0
H314 H 0.36287 0.80453 0.64301 0.0
H315 H 0.09003 0.6996 0.66565 0.0
H316 H 0.31526 0.6678 0.71161 0.0
H317 H 0.07194 0.67766 0.68932 0.0
H318 H 0.2937 0.60174 0.70559 0.0
O319 O 0.20251 0.77918 0.66869 0.0
H320 H 0.34635 0.86619 0.68835 0.0
H321 H 0.28108 0.84366 0.64365 0.0
H322 H 0.29381 0.91004 0.65126 0.0
H323 H 0.32694 0.92171 0.67374 0.0
H324 H 0.33228 0.80041 0.68048 0.0
H325 H 0.38424 0.81779 0.61907 0.0
H326 H 0.34353 0.79756 0.59915 0.0
O327 O 0.24177 0.78247 0.65031 0.0
C328 C 0.25036 0.69409 0.65161 0.0
C329 C 0.29993 0.77272 0.61219 0.0
C330 C 0.35738 0.80297 0.62087 0.0
N331 N 0.31125 0.77662 0.63678 0.0
C332 C 0.28875 0.76535 0.62587 0.0
C333 C 0.34525 0.79514 0.63441 0.0
C334 C 0.33451 0.79165 0.6097 0.0
C335 C 0.27615 0.69489 0.69728 0.0
N336 N 0.24812 0.68964 0.68753 0.0
C337 C 0.29297 0.66344 0.70393 0.0
C338 C 0.28089 0.62638 0.70054 0.0
C339 C 0.25218 0.62124 0.69062 0.0
C340 C 0.23598 0.65337 0.6842 0.0
C341 C 0.12765 0.68956 0.69799 0.0
C342 C 0.14794 0.71395 0.67162 0.0
C343 C 0.16456 0.70321 0.6952 0.0
N344 N 0.17434 0.71506 0.68213 0.0
C345 C 0.11077 0.70047 0.67402 0.0
C346 C 0.10064 0.68819 0.68731 0.0
C347 C 0.21035 0.79073 0.65642 0.0
C348 C 0.33208 0.8615 0.67849 0.0
C349 C 0.2951 0.84839 0.65349 0.0
C350 C 0.30246 0.8861 0.65772 0.0
C351 C 0.32109 0.89263 0.67031 0.0
N352 N 0.30608 0.81791 0.66152 0.0
C353 C 0.32425 0.82418 0.67391 0.0
Co354 Co 0.53128 0.96528 0.93071 0.0
Co355 Co 0.4977 0.03977 0.91081 0.0
O356 O 0.51159 0.01774 0.92884 0.0
C357 C 0.47141 0.97181 0.95293 0.0
O358 O 0.44784 0.9873 0.94389 0.0
C359 C 0.53416 0.11735 0.91188 0.0
O360 O 0.55388 0.10838 0.90071 0.0
O361 O 0.55067 0.02853 0.90362 0.0
O362 O 0.56001 0.96979 0.91284 0.0
H363 H 0.4935 0.04384 0.85863 0.0
H364 H 0.5423 0.0219 0.95349 0.0
O365 O 0.50425 0.95991 0.94903 0.0
H366 H 0.67254 0.97906 0.94071 0.0
H367 H 0.58584 0.85232 0.95686 0.0
H368 H 0.54195 0.89988 0.91128 0.0
H369 H 0.61584 0.95261 0.92871 0.0
H370 H 0.56164 0.91858 0.95435 0.0
O371 O 0.51373 0.09186 0.91788 0.0
H372 H 0.50993 0.01664 0.88152 0.0
H373 H 0.45603 0.11091 0.90172 0.0
H374 H 0.56641 0.83362 0.9133 0.0
H375 H 0.59821 0.04872 0.96589 0.0
H376 H 0.58854 0.80941 0.93622 0.0
H377 H 0.66391 0.02737 0.9595 0.0
O378 O 0.48592 0.94443 0.92044 0.0
H379 H 0.403 0.08659 0.94643 0.0
H380 H 0.4178 0.02711 0.90023 0.0
H381 H 0.35291 0.03838 0.90954 0.0
H382 H 0.34517 0.06855 0.93279 0.0
H383 H 0.46735 0.07401 0.93683 0.0
H384 H 0.43925 0.13926 0.87905 0.0
H385 H 0.45795 0.10563 0.85729 0.0
O386 O 0.47989 0.98865 0.90361 0.0
C387 C 0.56892 0.99668 0.90446 0.0
C388 C 0.48524 0.0588 0.86803 0.0
C389 C 0.4548 0.11235 0.87949 0.0
N390 N 0.48416 0.0622 0.89296 0.0
C391 C 0.4945 0.04354 0.88103 0.0
C392 C 0.46448 0.09619 0.8923 0.0
C393 C 0.46529 0.09346 0.86729 0.0
C394 C 0.57077 0.01226 0.95071 0.0
N395 N 0.57575 0.9856 0.94042 0.0
C396 C 0.60233 0.02763 0.95774 0.0
C397 C 0.63919 0.01566 0.95415 0.0
C398 C 0.64406 0.98856 0.94361 0.0
C399 C 0.61183 0.97376 0.93682 0.0
C400 C 0.57625 0.86253 0.94682 0.0
C401 C 0.55164 0.88964 0.92129 0.0
C402 C 0.56234 0.89997 0.94535 0.0
N403 N 0.5504 0.91314 0.93268 0.0
C404 C 0.5654 0.85204 0.92237 0.0
C405 C 0.57779 0.83847 0.93523 0.0
C406 C 0.47298 0.95541 0.90866 0.0
C407 C 0.40598 0.07346 0.93628 0.0
C408 C 0.41473 0.03963 0.91042 0.0
C409 C 0.37788 0.04626 0.91561 0.0
C410 C 0.37356 0.06326 0.92864 0.0
N411 N 0.44643 0.04964 0.91797 0.0
C412 C 0.44237 0.06639 0.93075 0.0
Co413 Co 0.30024 0.26411 0.18376 0.0
Co414 Co 0.24321 0.2377 0.15673 0.0
O415 O 0.25111 0.24395 0.17689 0.0
C416 C 0.27952 0.20271 0.2049 0.0
O417 O 0.26056 0.18244 0.19565 0.0
C418 C 0.16747 0.26938 0.16685 0.0
O419 O 0.18488 0.29563 0.17439 0.0
O420 O 0.25358 0.29384 0.15389 0.0
O421 O 0.30694 0.29636 0.16672 0.0
H422 H 0.27548 0.25779 0.10635 0.0
H423 H 0.2312 0.26999 0.20158 0.0
O424 O 0.29599 0.23394 0.20145 0.0
H425 H 0.27616 0.40335 0.19548 0.0
H426 H 0.39175 0.31673 0.21966 0.0
H427 H 0.3765 0.2763 0.17083 0.0
H428 H 0.31105 0.34945 0.18464 0.0
H429 H 0.32941 0.29288 0.21112 0.0
O430 O 0.18678 0.24691 0.1591 0.0
H431 H 0.28534 0.26355 0.13163 0.0
H432 H 0.18289 0.2006 0.13911 0.0
H433 H 0.43921 0.30041 0.1789 0.0
H434 H 0.19572 0.32301 0.21276 0.0
H435 H 0.44717 0.32081 0.20349 0.0
H436 H 0.21812 0.39029 0.20971 0.0
O437 O 0.32714 0.22042 0.17453 0.0
H438 H 0.1836 0.12342 0.18032 0.0
H439 H 0.27068 0.16571 0.14295 0.0
H440 H 0.2598 0.09646 0.14662 0.0
H441 H 0.21584 0.07488 0.16539 0.0
H442 H 0.19583 0.19241 0.17645 0.0
H443 H 0.17182 0.1944 0.1139 0.0
H444 H 0.21838 0.223 0.09732 0.0
O445 O 0.2991 0.22606 0.15364 0.0
C446 C 0.28513 0.31009 0.1573 0.0
C447 C 0.25502 0.24514 0.11346 0.0
C448 C 0.19681 0.20962 0.11771 0.0
N449 N 0.23481 0.23233 0.13687 0.0
C450 C 0.26048 0.24826 0.1278 0.0
C451 C 0.20318 0.21334 0.13198 0.0
C452 C 0.22296 0.22565 0.10841 0.0
C453 C 0.24135 0.29914 0.20032 0.0
N454 N 0.27329 0.30654 0.19254 0.0
C455 C 0.22105 0.32907 0.20662 0.0
C456 C 0.2336 0.36681 0.20489 0.0
C457 C 0.26614 0.37416 0.1969 0.0
C458 C 0.28571 0.34351 0.19075 0.0
C459 C 0.38865 0.30795 0.20892 0.0
C460 C 0.37966 0.28524 0.18153 0.0
C461 C 0.35344 0.29428 0.20403 0.0
N462 N 0.34924 0.28332 0.19046 0.0
C463 C 0.41528 0.29882 0.18605 0.0
C464 C 0.41972 0.31024 0.19984 0.0
C465 C 0.32552 0.21317 0.16154 0.0
C466 C 0.20277 0.13246 0.1721 0.0
C467 C 0.25173 0.1566 0.15121 0.0
C468 C 0.24555 0.11732 0.1532 0.0
C469 C 0.22089 0.10524 0.16373 0.0
N470 N 0.23398 0.18315 0.1595 0.0
C471 C 0.20972 0.1715 0.16983 0.0
Co472 Co 0.74042 0.22587 0.17837 0.0
Co473 Co 0.80646 0.26374 0.15514 0.0
O474 O 0.79111 0.248 0.17403 0.0
C475 C 0.74832 0.28845 0.19988 0.0
O476 O 0.76064 0.31257 0.19038 0.0
C477 C 0.87914 0.22941 0.16779 0.0
O478 O 0.86044 0.21532 0.17846 0.0
O479 O 0.79193 0.21188 0.1475 0.0
O480 O 0.74126 0.19553 0.16078 0.0
H481 H 0.78767 0.27638 0.10354 0.0
H482 H 0.80296 0.22063 0.19923 0.0
O483 O 0.73859 0.25442 0.19649 0.0
H484 H 0.76491 0.08663 0.18962 0.0
H485 H 0.63946 0.1676 0.20943 0.0
H486 H 0.6704 0.20999 0.16184 0.0
H487 H 0.73211 0.14051 0.17797 0.0
H488 H 0.70305 0.19488 0.20403 0.0
O489 O 0.86109 0.24627 0.15801 0.0
H490 H 0.76985 0.25783 0.1274 0.0
H491 H 0.87479 0.30326 0.14277 0.0
H492 H 0.60666 0.18237 0.16674 0.0
H493 H 0.83608 0.16769 0.21134 0.0
H494 H 0.59081 0.16102 0.19069 0.0
H495 H 0.81725 0.10008 0.20649 0.0
O496 O 0.71341 0.26906 0.16869 0.0
H497 H 0.86374 0.35452 0.19034 0.0
H498 H 0.79474 0.34484 0.14578 0.0
H499 H 0.81 0.40874 0.15532 0.0
H500 H 0.84499 0.41393 0.17775 0.0
H501 H 0.84715 0.29134 0.18056 0.0
H502 H 0.89401 0.32179 0.11906 0.0
H503 H 0.85021 0.30855 0.09924 0.0
O504 O 0.75372 0.28313 0.15126 0.0
C505 C 0.76325 0.19029 0.15037 0.0
C506 C 0.80704 0.28226 0.11209 0.0
C507 C 0.86673 0.30768 0.12079 0.0
N508 N 0.82131 0.27918 0.13648 0.0
C509 C 0.79708 0.27182 0.12563 0.0
C510 C 0.85581 0.29685 0.13419 0.0
C511 C 0.84213 0.30028 0.10968 0.0
C512 C 0.7945 0.1913 0.19711 0.0
N513 N 0.766 0.18365 0.18775 0.0
C514 C 0.8134 0.16144 0.20398 0.0
C515 C 0.80285 0.12352 0.20125 0.0
C516 C 0.77354 0.11594 0.19177 0.0
C517 C 0.75528 0.14655 0.18511 0.0
C518 C 0.64601 0.17685 0.19895 0.0
C519 C 0.6638 0.20063 0.17228 0.0
C520 C 0.68191 0.19252 0.19585 0.0
N521 N 0.69047 0.20406 0.18263 0.0
C522 C 0.62762 0.18508 0.17499 0.0
C523 C 0.61873 0.17313 0.18843 0.0
C524 C 0.72128 0.286 0.15727 0.0
C525 C 0.84861 0.35267 0.18053 0.0
C526 C 0.80949 0.34676 0.1556 0.0
C527 C 0.81832 0.38308 0.16092 0.0
C528 C 0.838 0.38597 0.17348 0.0
N529 N 0.82003 0.31413 0.16253 0.0
C530 C 0.83932 0.31684 0.17487 0.0
Co531 Co 0.79083 0.7667 0.68455 0.0
Co532 Co 0.72794 0.7458 0.65844 0.0
O533 O 0.7401 0.74873 0.67839 0.0
C534 C 0.7686 0.70458 0.70526 0.0
O535 O 0.74361 0.68958 0.69662 0.0
C536 C 0.6544 0.77763 0.67085 0.0
O537 O 0.67288 0.80269 0.67857 0.0
O538 O 0.73962 0.802 0.65632 0.0
O539 O 0.7945 0.80249 0.66838 0.0
H540 H 0.75101 0.77228 0.60778 0.0
H541 H 0.7241 0.76979 0.70377 0.0
O542 O 0.78955 0.73273 0.70148 0.0
H543 H 0.77198 0.90295 0.70112 0.0
H544 H 0.88985 0.80998 0.71946 0.0
H545 H 0.86443 0.78181 0.67006 0.0
H546 H 0.80367 0.85119 0.68791 0.0
H547 H 0.82568 0.78873 0.71186 0.0
O548 O 0.67244 0.75618 0.66237 0.0
H549 H 0.76581 0.77418 0.63282 0.0
H550 H 0.66323 0.71289 0.64175 0.0
H551 H 0.92887 0.80341 0.6772 0.0
H552 H 0.69197 0.82052 0.71732 0.0
H553 H 0.94195 0.81763 0.70206 0.0
H554 H 0.71582 0.88773 0.71603 0.0
O555 O 0.81592 0.72522 0.67334 0.0
H556 H 0.66822 0.63074 0.68149 0.0
H557 H 0.7493 0.67463 0.64269 0.0
H558 H 0.73639 0.60546 0.64546 0.0
H559 H 0.69537 0.58306 0.66495 0.0
H560 H 0.68264 0.6996 0.67848 0.0
H561 H 0.64723 0.71059 0.61681 0.0
H562 H 0.69135 0.74029 0.59962 0.0
O563 O 0.78251 0.73309 0.65366 0.0
C564 C 0.77162 0.81764 0.65961 0.0
C565 C 0.73159 0.75916 0.61517 0.0
C566 C 0.67332 0.72459 0.62024 0.0
N567 N 0.71552 0.74354 0.63877 0.0
C568 C 0.73984 0.76009 0.62937 0.0
C569 C 0.68249 0.72611 0.63436 0.0
C570 C 0.6981 0.74124 0.61059 0.0
C571 C 0.73504 0.79879 0.70328 0.0
N572 N 0.76609 0.8073 0.69517 0.0
C573 C 0.71655 0.82749 0.71092 0.0
C574 C 0.72989 0.8652 0.71017 0.0
C575 C 0.76138 0.87375 0.7018 0.0
C576 C 0.77916 0.84431 0.69431 0.0
C577 C 0.88451 0.80386 0.7086 0.0
C578 C 0.86981 0.78803 0.6809 0.0
C579 C 0.84826 0.79165 0.70423 0.0
N580 N 0.84123 0.78404 0.69052 0.0
C581 C 0.9064 0.80021 0.68488 0.0
C582 C 0.91373 0.80817 0.69883 0.0
C583 C 0.81155 0.72015 0.66026 0.0
C584 C 0.68623 0.64011 0.67298 0.0
C585 C 0.7321 0.66514 0.65133 0.0
C586 C 0.72457 0.62591 0.65279 0.0
C587 C 0.70149 0.61337 0.66371 0.0
N588 N 0.71725 0.69121 0.66051 0.0
C589 C 0.69444 0.6791 0.6712 0.0
Co590 Co 0.7932 0.24687 0.32459 0.0
Co591 Co 0.73738 0.2682 0.35244 0.0
O592 O 0.74427 0.26536 0.33214 0.0
C593 C 0.76502 0.3059 0.30348 0.0
O594 O 0.73755 0.31796 0.31172 0.0
C595 C 0.66091 0.23858 0.34217 0.0
O596 O 0.67776 0.21232 0.33449 0.0
O597 O 0.74728 0.21159 0.35387 0.0
O598 O 0.8004 0.21157 0.34086 0.0
H599 H 0.77108 0.23864 0.4021 0.0
H600 H 0.72177 0.24197 0.30766 0.0
O601 O 0.78857 0.28025 0.30757 0.0
H602 H 0.77217 0.1097 0.30944 0.0
H603 H 0.88467 0.20243 0.28729 0.0
H604 H 0.86964 0.23254 0.33709 0.0
H605 H 0.80622 0.16246 0.32131 0.0
H606 H 0.82224 0.22391 0.29651 0.0
O607 O 0.68068 0.26029 0.35007 0.0
H608 H 0.78003 0.23734 0.3767 0.0
H609 H 0.67823 0.30283 0.37115 0.0
H610 H 0.93244 0.21065 0.32834 0.0
H611 H 0.68719 0.19023 0.29548 0.0
H612 H 0.94028 0.19545 0.30326 0.0
H613 H 0.71231 0.12344 0.29633 0.0
O614 O 0.81995 0.28928 0.33471 0.0
H615 H 0.67889 0.38747 0.33189 0.0
H616 H 0.76676 0.33715 0.3677 0.0
H617 H 0.75735 0.4071 0.36559 0.0
H618 H 0.71302 0.43273 0.34762 0.0
H619 H 0.68963 0.31771 0.3342 0.0
H620 H 0.6681 0.30463 0.39651 0.0
H621 H 0.71479 0.27249 0.41217 0.0
O622 O 0.79358 0.27843 0.35557 0.0
C623 C 0.77876 0.19602 0.34998 0.0
C624 C 0.75057 0.25282 0.39539 0.0
C625 C 0.69275 0.28981 0.39224 0.0
N626 N 0.72977 0.27009 0.37243 0.0
C627 C 0.75551 0.25223 0.38098 0.0
C628 C 0.69859 0.28858 0.37788 0.0
C629 C 0.71897 0.27179 0.40103 0.0
C630 C 0.73333 0.21322 0.3079 0.0
N631 N 0.76645 0.20555 0.31498 0.0
C632 C 0.71342 0.18392 0.30106 0.0
C633 C 0.72747 0.14644 0.30157 0.0
C634 C 0.76104 0.13872 0.30893 0.0
C635 C 0.78018 0.16875 0.31564 0.0
C636 C 0.88161 0.20894 0.29824 0.0
C637 C 0.87275 0.22585 0.32618 0.0
C638 C 0.84636 0.22128 0.30352 0.0
N639 N 0.84222 0.22938 0.31735 0.0
C640 C 0.90841 0.21352 0.32128 0.0
C641 C 0.9128 0.20502 0.3072 0.0
C642 C 0.81918 0.29368 0.34788 0.0
C643 C 0.69829 0.37667 0.33976 0.0
C644 C 0.74765 0.34802 0.35977 0.0
C645 C 0.74232 0.3877 0.35867 0.0
C646 C 0.71745 0.40204 0.34858 0.0
N647 N 0.72893 0.32329 0.35102 0.0
C648 C 0.70444 0.33717 0.34113 0.0
Co649 Co 0.7248 0.78219 0.82967 0.0
Co650 Co 0.7974 0.75959 0.85223 0.0
O651 O 0.77814 0.76673 0.83321 0.0
C652 C 0.73883 0.7201 0.80847 0.0
O653 O 0.75398 0.69806 0.81808 0.0
C654 C 0.8658 0.78662 0.83524 0.0
O655 O 0.84458 0.79013 0.82405 0.0
O656 O 0.7814 0.81339 0.85699 0.0
O657 O 0.72292 0.81311 0.84719 0.0
H658 H 0.7877 0.76859 0.90425 0.0
H659 H 0.78241 0.79528 0.80743 0.0
O660 O 0.72507 0.75282 0.8117 0.0
H661 H 0.7301 0.92351 0.8184 0.0
H662 H 0.61365 0.82457 0.79986 0.0
H663 H 0.65486 0.78853 0.84712 0.0
H664 H 0.70619 0.866 0.83056 0.0
H665 H 0.68094 0.80679 0.8045 0.0
O666 O 0.8506 0.77811 0.84691 0.0
H667 H 0.76492 0.77544 0.88013 0.0
H668 H 0.87052 0.73106 0.86496 0.0
H669 H 0.5874 0.80644 0.84296 0.0
H670 H 0.80677 0.852 0.79487 0.0
H671 H 0.56637 0.82461 0.81918 0.0
H672 H 0.78068 0.91673 0.80037 0.0
O673 O 0.70619 0.7364 0.84011 0.0
H674 H 0.8516 0.65432 0.82176 0.0
H675 H 0.79164 0.68427 0.86684 0.0
H676 H 0.80894 0.6174 0.86139 0.0
H677 H 0.83955 0.602 0.83875 0.0
H678 H 0.83292 0.72039 0.82746 0.0
H679 H 0.89461 0.72422 0.88892 0.0
H680 H 0.85301 0.74284 0.90878 0.0
O681 O 0.746 0.73956 0.85843 0.0
C682 C 0.74774 0.82735 0.85544 0.0
C683 C 0.80608 0.76032 0.89569 0.0
C684 C 0.8661 0.73548 0.88708 0.0
N685 N 0.81624 0.75357 0.87112 0.0
C686 C 0.79329 0.76406 0.882 0.0
C687 C 0.85235 0.73962 0.87352 0.0
C688 C 0.84273 0.7459 0.89822 0.0
C689 C 0.77082 0.82331 0.80986 0.0
N690 N 0.74311 0.82728 0.8198 0.0
C691 C 0.78476 0.85534 0.80272 0.0
C692 C 0.77012 0.89165 0.80581 0.0
C693 C 0.74177 0.89548 0.81593 0.0
C694 C 0.72849 0.8628 0.82284 0.0
C695 C 0.62246 0.81669 0.81026 0.0
C696 C 0.64601 0.79649 0.83675 0.0
C697 C 0.66051 0.80644 0.81295 0.0
N698 N 0.67188 0.79662 0.82607 0.0
C699 C 0.60773 0.80656 0.83445 0.0
C700 C 0.59595 0.81673 0.82111 0.0
C701 C 0.71526 0.72757 0.85258 0.0
C702 C 0.8387 0.6607 0.83174 0.0
C703 C 0.80481 0.678 0.85695 0.0
C704 C 0.81464 0.63997 0.85394 0.0
C705 C 0.83182 0.63135 0.84125 0.0
N706 N 0.81209 0.70687 0.84767 0.0
C707 C 0.82843 0.69839 0.83512 0.0
Co708 Co 0.50058 0.46703 0.07508 0.0
Co709 Co 0.51011 0.53493 0.10069 0.0
O710 O 0.51273 0.51989 0.08093 0.0
C711 C 0.5648 0.49241 0.0558 0.0
O712 O 0.57642 0.51878 0.0646 0.0
C713 C 0.48835 0.60598 0.08413 0.0
O714 O 0.48851 0.58617 0.07253 0.0
O715 O 0.45536 0.51723 0.10162 0.0
O716 O 0.46255 0.46136 0.09045 0.0
H717 H 0.47623 0.51357 0.15087 0.0
H718 H 0.4956 0.52916 0.05391 0.0
O719 O 0.5374 0.46986 0.05901 0.0
H720 H 0.3665 0.47139 0.05545 0.0
H721 H 0.47364 0.36083 0.04071 0.0
H722 H 0.48982 0.3936 0.09026 0.0
H723 H 0.41817 0.4468 0.07049 0.0
H724 H 0.48724 0.42755 0.04785 0.0
O725 O 0.4932 0.58916 0.0958 0.0
H726 H 0.48164 0.49612 0.12611 0.0
H727 H 0.53096 0.60505 0.11712 0.0
H728 H 0.47588 0.32661 0.08357 0.0
H729 H 0.44501 0.55415 0.03852 0.0
H730 H 0.46771 0.30983 0.05864 0.0
H731 H 0.37979 0.52533 0.03925 0.0
O732 O 0.5417 0.44739 0.08757 0.0
H733 H 0.62561 0.60118 0.07989 0.0
H734 H 0.57787 0.52402 0.11915 0.0
H735 H 0.64567 0.54366 0.11865 0.0
H736 H 0.66999 0.58286 0.09897 0.0
H737 H 0.55848 0.58007 0.08061 0.0
H738 H 0.52578 0.62375 0.14177 0.0
H739 H 0.4984 0.5778 0.15885 0.0
O740 O 0.5281 0.48232 0.10656 0.0
C741 C 0.44386 0.48331 0.09861 0.0
C742 C 0.48829 0.53382 0.14353 0.0
C743 C 0.51603 0.59567 0.13842 0.0
N744 N 0.50669 0.54945 0.12016 0.0
C745 C 0.49148 0.52408 0.12949 0.0
C746 C 0.51874 0.58496 0.12446 0.0
C747 C 0.50069 0.56987 0.148 0.0
C748 C 0.46747 0.51623 0.05425 0.0
N749 N 0.45999 0.48653 0.06313 0.0
C750 C 0.43884 0.53062 0.04553 0.0
C751 C 0.40226 0.51447 0.04595 0.0
C752 C 0.39477 0.48424 0.05505 0.0
C753 C 0.42413 0.47058 0.06361 0.0
C754 C 0.47712 0.36778 0.05161 0.0
C755 C 0.48619 0.3866 0.07939 0.0
C756 C 0.48496 0.40551 0.05572 0.0
N757 N 0.48924 0.41456 0.06947 0.0
C758 C 0.47835 0.34858 0.07566 0.0
C759 C 0.47378 0.33918 0.06167 0.0
C760 C 0.5441 0.45352 0.10064 0.0
C761 C 0.61532 0.58434 0.08858 0.0
C762 C 0.58812 0.54078 0.11048 0.0
C763 C 0.62661 0.55197 0.11029 0.0
C764 C 0.64023 0.57398 0.09926 0.0
N765 N 0.56365 0.55126 0.10002 0.0
C766 C 0.57702 0.57256 0.08912 0.0
Co767 Co 0.03827 0.53503 0.57997 0.0
Co768 Co 0.00936 0.4635 0.60239 0.0
O769 O 0.01904 0.48274 0.58348 0.0
C770 C 0.97517 0.52636 0.55869 0.0
O771 O 0.95158 0.5131 0.56818 0.0
C772 C 0.03441 0.39361 0.58563 0.0
O773 O 0.03901 0.41435 0.57438 0.0
O774 O 0.0632 0.47714 0.60799 0.0
O775 O 0.0695 0.53421 0.59732 0.0
H776 H 0.01311 0.47248 0.65452 0.0
H777 H 0.04632 0.47635 0.55771 0.0
O778 O 0.0088 0.53723 0.56207 0.0
H779 H 0.17811 0.51981 0.56788 0.0
H780 H 0.08843 0.64331 0.55029 0.0
H781 H 0.05156 0.60377 0.59763 0.0
H782 H 0.12302 0.54772 0.58038 0.0
H783 H 0.065 0.5776 0.55476 0.0
O784 O 0.02615 0.4095 0.59721 0.0
H785 H 0.02314 0.49529 0.63055 0.0
H786 H 0.97711 0.39107 0.61458 0.0
H787 H 0.07533 0.66956 0.59365 0.0
H788 H 0.10055 0.44802 0.54481 0.0
H789 H 0.0939 0.68977 0.56983 0.0
H790 H 0.16705 0.46963 0.54991 0.0
O791 O 0.9944 0.55733 0.5906 0.0
H792 H 0.90503 0.41574 0.57016 0.0
H793 H 0.93314 0.47041 0.61628 0.0
H794 H 0.86634 0.45613 0.60991 0.0
H795 H 0.85182 0.42818 0.58672 0.0
H796 H 0.97105 0.43144 0.57679 0.0
H797 H 0.96709 0.36695 0.63838 0.0
H798 H 0.98492 0.40784 0.65856 0.0
O799 O 0.99098 0.51571 0.60842 0.0
C800 C 0.08034 0.50923 0.60613 0.0
C801 C 0.00517 0.45441 0.64582 0.0
C802 C 0.97942 0.39516 0.63675 0.0
N803 N 1.00069 0.44466 0.62115 0.0
C804 C 0.01072 0.46722 0.63221 0.0
C805 C 0.98539 0.40892 0.62329 0.0
C806 C 0.98939 0.41813 0.64807 0.0
C807 C 0.07514 0.48595 0.55997 0.0
N808 N 0.08146 0.51338 0.56989 0.0
C809 C 0.10575 0.46979 0.55264 0.0
C810 C 0.14306 0.48192 0.5555 0.0
C811 C 0.14928 0.51004 0.56559 0.0
C812 C 0.11797 0.52558 0.5727 0.0
C813 C 0.08034 0.63488 0.56071 0.0
C814 C 0.05962 0.61226 0.58724 0.0
C815 C 0.06684 0.59774 0.5633 0.0
N816 N 0.05676 0.58681 0.57644 0.0
C817 C 0.07304 0.6496 0.58504 0.0
C818 C 0.08344 0.66092 0.57168 0.0
C819 C 0.98305 0.54803 0.60278 0.0
C820 C 0.91099 0.42752 0.58035 0.0
C821 C 0.92729 0.45848 0.60616 0.0
C822 C 0.88927 0.45031 0.60262 0.0
C823 C 0.88115 0.43462 0.58962 0.0
N824 N 0.95663 0.45102 0.5971 0.0
C825 C 0.94865 0.4361 0.58426 0.0
Co826 Co 0.48874 0.54066 0.932 0.0
Co827 Co 0.50863 0.47248 0.9074 0.0
O828 O 0.50235 0.48769 0.92694 0.0
C829 C 0.5505 0.5222 0.95299 0.0
O830 O 0.57349 0.50961 0.94317 0.0
C831 C 0.47959 0.40111 0.92226 0.0
O832 O 0.4766 0.41956 0.93411 0.0
O833 O 0.45548 0.49152 0.90316 0.0
O834 O 0.4583 0.54741 0.91461 0.0
H835 H 0.49923 0.49412 0.85587 0.0
H836 H 0.47367 0.47871 0.95246 0.0
O837 O 0.51762 0.53565 0.94992 0.0
H838 H 0.34747 0.53745 0.94318 0.0
H839 H 0.44921 0.64636 0.9649 0.0
H840 H 0.4855 0.61463 0.9167 0.0
H841 H 0.40563 0.56202 0.93164 0.0
H842 H 0.46477 0.57964 0.95831 0.0
O843 O 0.48814 0.41907 0.91112 0.0
H844 H 0.49383 0.51179 0.88062 0.0
H845 H 0.53399 0.40119 0.89245 0.0
H846 H 0.46989 0.68165 0.92281 0.0
H847 H 0.41627 0.45351 0.96435 0.0
H848 H 0.45158 0.69791 0.94707 0.0
H849 H 0.35256 0.48286 0.9597 0.0
O850 O 0.53519 0.56002 0.92213 0.0
H851 H 0.6116 0.40932 0.93648 0.0
H852 H 0.58388 0.47677 0.89265 0.0
H853 H 0.64986 0.45594 0.89762 0.0
H854 H 0.66414 0.42157 0.91963 0.0
H855 H 0.54642 0.4314 0.93128 0.0
H856 H 0.53928 0.38221 0.86784 0.0
H857 H 0.52208 0.42891 0.84934 0.0
O858 O 0.53078 0.5243 0.90273 0.0
C859 C 0.44296 0.52544 0.90557 0.0
C860 C 0.50693 0.47356 0.86384 0.0
C861 C 0.52933 0.41073 0.87055 0.0
N862 N 0.51378 0.45769 0.888 0.0
C863 C 0.50404 0.48344 0.87787 0.0
C864 C 0.52608 0.42161 0.88448 0.0
C865 C 0.5197 0.43695 0.86018 0.0
C866 C 0.44609 0.4917 0.9504 0.0
N867 N 0.44305 0.52165 0.9413 0.0
C868 C 0.41367 0.47728 0.95716 0.0
C869 C 0.37793 0.49374 0.95454 0.0
C870 C 0.37505 0.52434 0.94526 0.0
C871 C 0.40809 0.53801 0.9387 0.0
C872 C 0.45716 0.63964 0.95429 0.0
C873 C 0.47751 0.62141 0.92727 0.0
C874 C 0.46615 0.60191 0.95051 0.0
N875 N 0.47603 0.59317 0.93712 0.0
C876 C 0.46872 0.65945 0.93067 0.0
C877 C 0.45848 0.66855 0.94429 0.0
C878 C 0.5439 0.55322 0.90945 0.0
C879 C 0.6057 0.4239 0.92678 0.0
C880 C 0.58965 0.46203 0.90227 0.0
C881 C 0.62719 0.45017 0.90502 0.0
C882 C 0.63518 0.43089 0.91735 0.0
N883 N 0.56062 0.45469 0.91147 0.0
C884 C 0.56851 0.43621 0.92368 0.0
Co885 Co 0.02203 0.47471 0.43586 0.0
Co886 Co 0.0171 0.54042 0.4097 0.0
O887 O 0.01181 0.52742 0.42955 0.0
C888 C 0.96011 0.5049 0.45537 0.0
O889 O 0.95224 0.53383 0.44712 0.0
C890 C 0.03589 0.6131 0.42588 0.0
O891 O 0.0349 0.59405 0.43762 0.0
O892 O 0.07193 0.52309 0.41019 0.0
O893 O 0.06104 0.46706 0.42078 0.0
H894 H 0.05907 0.51471 0.36057 0.0
H895 H 0.02908 0.5387 0.45638 0.0
O896 O 0.98445 0.47947 0.4517 0.0
H897 H 0.15501 0.47433 0.45651 0.0
H898 H 0.04373 0.36924 0.4709 0.0
H899 H 0.03105 0.40031 0.42111 0.0
H900 H 0.10303 0.45097 0.44135 0.0
H901 H 0.03271 0.43603 0.46336 0.0
O902 O 0.03256 0.5954 0.41429 0.0
H903 H 0.05004 0.49958 0.38536 0.0
H904 H 0.99784 0.60847 0.39203 0.0
H905 H 0.04252 0.33321 0.4282 0.0
H906 H 0.07998 0.56254 0.47187 0.0
H907 H 0.04891 0.31728 0.45326 0.0
H908 H 0.14363 0.53039 0.47199 0.0
O909 O 0.98059 0.45621 0.4232 0.0
H910 H 0.89768 0.60704 0.42717 0.0
H911 H 0.95234 0.5255 0.39022 0.0
H912 H 0.88419 0.54381 0.38914 0.0
H913 H 0.8564 0.58512 0.40765 0.0
H914 H 0.96529 0.58748 0.42799 0.0
H915 H 0.00658 0.62485 0.36731 0.0
H916 H 0.03726 0.57775 0.35138 0.0
O917 O 1.00063 0.487 0.40408 0.0
C918 C 0.08202 0.4888 0.41328 0.0
C919 C 0.0456 0.53546 0.3674 0.0
C920 C 0.0162 0.59729 0.37119 0.0
N921 N 0.02336 0.55304 0.39016 0.0
C922 C 0.04036 0.52703 0.38146 0.0
C923 C 0.01147 0.58789 0.3852 0.0
C924 C 0.0334 0.57084 0.36225 0.0
C925 C 0.05644 0.52428 0.45641 0.0
N926 N 0.06281 0.49334 0.44796 0.0
C927 C 0.08529 0.53804 0.46519 0.0
C928 C 0.121 0.52002 0.46525 0.0
C929 C 0.12741 0.4886 0.45656 0.0
C930 C 0.09786 0.47561 0.44794 0.0
C931 C 0.04098 0.3758 0.45995 0.0
C932 C 0.03387 0.39367 0.43204 0.0
C933 C 0.03456 0.41357 0.45562 0.0
N934 N 0.03124 0.42214 0.4418 0.0
C935 C 0.04034 0.35559 0.43599 0.0
C936 C 0.0439 0.34667 0.45005 0.0
C937 C 0.98096 0.46071 0.41002 0.0
C938 C 0.90951 0.58928 0.41897 0.0
C939 C 0.94061 0.54345 0.39835 0.0
C940 C 0.90192 0.55375 0.39766 0.0
C941 C 0.88634 0.57692 0.40804 0.0
N942 N 0.96335 0.55595 0.40905 0.0
C943 C 0.94806 0.57834 0.41933 0.0
C944 C 0.00514 0.16687 0.5728 0.0
C945 C 0.9789 0.15156 0.58236 0.0
C946 C 0.01536 0.20599 0.57314 0.0
C947 C 0.99776 0.23087 0.58292 0.0
C948 C 0.97019 0.21572 0.5923 0.0
C949 C 0.96183 0.17606 0.59214 0.0
C950 C 0.046 0.22039 0.56335 0.0
C951 C 0.94964 0.24137 0.60254 0.0
C952 C 0.04554 0.32565 0.59333 0.0
C953 C 0.02787 0.35171 0.58428 0.0
C954 C 0.03686 0.28608 0.59274 0.0
C955 C 0.00838 0.27262 0.58336 0.0
C956 C 0.99006 0.29914 0.57436 0.0
C957 C 1.00059 0.33818 0.57474 0.0
C958 C 0.05816 0.25872 0.60215 0.0
C959 C 0.95848 0.2865 0.56462 0.0
H960 H 0.01913 0.1478 0.56546 0.0
H961 H 0.94184 0.16418 0.59962 0.0
H962 H 0.03424 0.24331 0.55658 0.0
H963 H 0.06994 0.23323 0.56939 0.0
H964 H 0.05771 0.19714 0.55665 0.0
H965 H 0.92674 0.22583 0.60828 0.0
H966 H 0.9704 0.25308 0.61019 0.0
H967 H 0.9366 0.26619 0.59705 0.0
H968 H 0.06635 0.33621 0.6008 0.0
H969 H 0.98621 0.3585 0.56797 0.0
H970 H 0.07081 0.23496 0.59594 0.0
H971 H 0.03798 0.2456 0.60968 0.0
H972 H 0.08147 0.27325 0.60803 0.0
H973 H 0.9696 0.26493 0.55714 0.0
H974 H 0.94612 0.31091 0.55867 0.0
H975 H 0.93515 0.27249 0.57062 0.0
C976 C 0.93343 0.79869 0.84302 0.0
C977 C 0.90773 0.7813 0.83375 0.0
C978 C 0.97308 0.79092 0.84232 0.0
C979 C 0.98703 0.7636 0.83258 0.0
C980 C 0.96092 0.74559 0.82333 0.0
C981 C 0.92176 0.75525 0.82385 0.0
C982 C 1.0 0.8119 0.85201 0.0
C983 C 0.97414 0.71518 0.81319 0.0
C984 C 0.09252 0.76336 0.82203 0.0
C985 C 0.10829 0.73645 0.83124 0.0
C986 C 0.05332 0.77286 0.82249 0.0
C987 C 0.02887 0.75384 0.83203 0.0
C988 C 0.04449 0.72562 0.84106 0.0
C989 C 0.08421 0.71798 0.84079 0.0
C990 C 0.03836 0.80421 0.8131 0.0
C991 C 0.0193 0.70358 0.85102 0.0
H992 H 0.92249 0.81853 0.85077 0.0
H993 H 0.90175 0.74105 0.81689 0.0
H994 H 0.01343 0.79125 0.85931 0.0
H995 H 0.0235 0.82556 0.84599 0.0
H996 H 0.98507 0.83443 0.85816 0.0
H997 H 0.95002 0.70294 0.80705 0.0
H998 H 0.9955 0.72744 0.8059 0.0
H999 H 0.98851 0.69148 0.8189 0.0
H1000 H 0.11127 0.77838 0.81486 0.0
H1001 H 0.09647 0.69745 0.84801 0.0
H1002 H 0.02508 0.82733 0.81944 0.0
H1003 H 0.0157 0.79265 0.80615 0.0
H1004 H 0.06133 0.81705 0.80658 0.0
H1005 H 0.00719 0.72342 0.85891 0.0
H1006 H 0.03526 0.68044 0.85648 0.0
H1007 H 0.99478 0.69053 0.84534 0.0
C1008 C 0.52053 0.66365 0.07414 0.0
C1009 C 0.49391 0.64821 0.08353 0.0
C1010 C 0.52996 0.70297 0.07435 0.0
C1011 C 0.51116 0.72789 0.08382 0.0
C1012 C 0.48338 0.71256 0.09307 0.0
C1013 C 0.4758 0.67273 0.09305 0.0
C1014 C 0.56084 0.71761 0.0647 0.0
C1015 C 0.46158 0.73822 0.10296 0.0
C1016 C 0.5558 0.82485 0.09344 0.0
C1017 C 0.53801 0.84959 0.08394 0.0
C1018 C 0.54807 0.78506 0.09331 0.0
C1019 C 0.52045 0.76997 0.08392 0.0
C1020 C 0.50192 0.79514 0.07449 0.0
C1021 C 0.5115 0.83442 0.07442 0.0
C1022 C 0.56959 0.75914 0.10318 0.0
C1023 C 0.47121 0.78077 0.06469 0.0
H1024 H 0.53527 0.64461 0.06698 0.0
H1025 H 0.45547 0.66076 0.1004 0.0
H1026 H 0.54876 0.73943 0.05754 0.0
H1027 H 0.58382 0.73189 0.07081 0.0
H1028 H 0.5739 0.69422 0.05841 0.0
H1029 H 0.43907 0.72232 0.10877 0.0
H1030 H 0.48163 0.75134 0.11056 0.0
H1031 H 0.44782 0.76208 0.09715 0.0
H1032 H 0.57604 0.83662 0.10088 0.0
H1033 H 0.497 0.85365 0.06728 0.0
H1034 H 0.58353 0.73544 0.09732 0.0
H1035 H 0.54932 0.74582 0.11064 0.0
H1036 H 0.59193 0.77489 0.10915 0.0
H1037 H 0.48341 0.75915 0.05746 0.0
H1038 H 0.45825 0.80433 0.05847 0.0
H1039 H 0.44812 0.76631 0.07067 0.0
C1040 C 0.59362 0.21804 0.33575 0.0
C1041 C 0.61884 0.24574 0.34115 0.0
C1042 C 0.55375 0.22499 0.33514 0.0
C1043 C 0.53883 0.26078 0.33976 0.0
C1044 C 0.56436 0.28916 0.34485 0.0
C1045 C 0.60381 0.28118 0.34561 0.0
C1046 C 0.52747 0.19372 0.32986 0.0
C1047 C 0.54997 0.32793 0.34966 0.0
C1048 C 0.43747 0.29017 0.32874 0.0
C1049 C 0.41598 0.28128 0.34066 0.0
C1050 C 0.47746 0.28397 0.3283 0.0
C1051 C 0.49645 0.26798 0.33999 0.0
C1052 C 0.47502 0.25957 0.35211 0.0
C1053 C 0.43534 0.26673 0.35235 0.0
C1054 C 0.49936 0.29418 0.31529 0.0
C1055 C 0.4939 0.24234 0.36479 0.0
H1056 H 0.60494 0.19064 0.33228 0.0
H1057 H 0.62301 0.30306 0.34964 0.0
H1058 H 0.50727 0.18507 0.33821 0.0
H1059 H 0.50998 0.2046 0.32107 0.0
H1060 H 0.54352 0.16788 0.32634 0.0
H1061 H 0.57376 0.34777 0.35246 0.0
H1062 H 0.53242 0.34151 0.34138 0.0
H1063 H 0.5312 0.32433 0.35887 0.0
H1064 H 0.42297 0.30142 0.31964 0.0
H1065 H 0.41938 0.26009 0.36169 0.0
H1066 H 0.5127 0.26797 0.31082 0.0
H1067 H 0.52295 0.31444 0.31783 0.0
H1068 H 0.4807 0.3075 0.30726 0.0
H1069 H 0.50839 0.21502 0.36197 0.0
H1070 H 0.47303 0.23644 0.37326 0.0
H1071 H 0.51626 0.26213 0.36883 0.0
C1072 C 0.01195 0.84165 0.43468 0.0
C1073 C 0.98599 0.85679 0.42498 0.0
C1074 C 0.02136 0.80233 0.43472 0.0
C1075 C 1.00321 0.77707 0.4252 0.0
C1076 C 0.97609 0.79211 0.41562 0.0
C1077 C 0.96854 0.83195 0.41539 0.0
C1078 C 0.05155 0.78801 0.44472 0.0
C1079 C 0.95496 0.76612 0.40564 0.0
C1080 C 0.04829 0.67953 0.41662 0.0
C1081 C 0.02978 0.6553 0.42612 0.0
C1082 C 0.0406 0.71935 0.4164 0.0
C1083 C 0.01233 0.73495 0.42541 0.0
C1084 C 0.99305 0.71028 0.43482 0.0
C1085 C 1.00257 0.671 0.43525 0.0
C1086 C 0.06289 0.74474 0.40658 0.0
C1087 C 0.96168 0.72518 0.44422 0.0
H1088 H 0.02623 0.86092 0.44189 0.0
H1089 H 0.94877 0.84368 0.4078 0.0
H1090 H 0.03892 0.76657 0.45191 0.0
H1091 H 0.07486 0.77337 0.4389 0.0
H1092 H 0.06431 0.81163 0.45099 0.0
H1093 H 0.93292 0.78184 0.39953 0.0
H1094 H 0.97552 0.75268 0.39831 0.0
H1095 H 0.94071 0.74251 0.41143 0.0
H1096 H 0.06911 0.66738 0.40949 0.0
H1097 H 0.98753 0.65219 0.44239 0.0
H1098 H 0.07661 0.76859 0.41244 0.0
H1099 H 0.0432 0.7579 0.39889 0.0
H1100 H 0.0855 0.72863 0.40089 0.0
H1101 H 0.97347 0.74699 0.45147 0.0
H1102 H 0.94812 0.70192 0.45042 0.0
H1103 H 0.93916 0.73954 0.43793 0.0
C1104 C 0.42959 0.75588 0.66004 0.0
C1105 C 0.40916 0.73974 0.6712 0.0
C1106 C 0.4692 0.76292 0.6609 0.0
C1107 C 0.48944 0.75296 0.67314 0.0
C1108 C 0.46929 0.73595 0.68437 0.0
C1109 C 0.42938 0.72973 0.6833 0.0
C1110 C 0.48939 0.78111 0.64867 0.0
C1111 C 0.48991 0.72428 0.6975 0.0
C1112 C 0.59619 0.7366 0.66772 0.0
C1113 C 0.61232 0.77142 0.67233 0.0
C1114 C 0.55658 0.72975 0.66846 0.0
C1115 C 0.53199 0.75861 0.67376 0.0
C1116 C 0.54803 0.79358 0.67872 0.0
C1117 C 0.58809 0.79945 0.67806 0.0
C1118 C 0.54098 0.69185 0.66324 0.0
C1119 C 0.52274 0.82523 0.6843 0.0
H1120 H 0.41458 0.76353 0.65059 0.0
H1121 H 0.41401 0.71733 0.692 0.0
H1122 H 0.50472 0.80749 0.65205 0.0
H1123 H 0.51121 0.76102 0.64445 0.0
H1124 H 0.46923 0.78884 0.64017 0.0
H1125 H 0.47018 0.71161 0.70532 0.0
H1126 H 0.51257 0.70293 0.69502 0.0
H1127 H 0.50435 0.74961 0.70218 0.0
H1128 H 0.61462 0.71442 0.66346 0.0
H1129 H 0.60027 0.82635 0.68167 0.0
H1130 H 0.52295 0.69676 0.6539 0.0
H1131 H 0.52242 0.67843 0.67125 0.0
H1132 H 0.56415 0.67128 0.66046 0.0
H1133 H 0.50371 0.83594 0.6759 0.0
H1134 H 0.53965 0.84979 0.68845 0.0
H1135 H 0.504 0.814 0.69268 0.0
C1136 C 0.47441 0.33769 0.91003 0.0
C1137 C 0.48267 0.35855 0.92216 0.0
C1138 C 0.48211 0.29805 0.90916 0.0
C1139 C 0.4997 0.27898 0.92051 0.0
C1140 C 0.50769 0.29985 0.93284 0.0
C1141 C 0.49859 0.33923 0.93358 0.0
C1142 C 0.47208 0.27675 0.89596 0.0
C1143 C 0.5273 0.28096 0.94505 0.0
C1144 C 0.4936 0.16969 0.92208 0.0
C1145 C 0.52786 0.15846 0.91551 0.0
C1146 C 0.48424 0.20868 0.92387 0.0
C1147 C 0.51023 0.23738 0.91937 0.0
C1148 C 0.54566 0.22625 0.91332 0.0
C1149 C 0.55378 0.18696 0.91127 0.0
C1150 C 0.44575 0.21913 0.93002 0.0
C1151 C 0.57467 0.25588 0.90874 0.0
H1152 H 0.46232 0.35254 0.90114 0.0
H1153 H 0.5058 0.35532 0.94288 0.0
H1154 H 0.49868 0.26656 0.89081 0.0
H1155 H 0.45453 0.251 0.89841 0.0
H1156 H 0.45595 0.29502 0.88851 0.0
H1157 H 0.53088 0.30093 0.95398 0.0
H1158 H 0.51064 0.2556 0.94856 0.0
H1159 H 0.55605 0.27046 0.94184 0.0
H1160 H 0.47309 0.14799 0.92525 0.0
H1161 H 0.58028 0.17856 0.9062 0.0
H1162 H 0.42857 0.23518 0.92224 0.0
H1163 H 0.4496 0.23828 0.93914 0.0
H1164 H 0.42918 0.19341 0.93332 0.0
H1165 H 0.56287 0.27286 0.89997 0.0
H1166 H 0.60212 0.2426 0.90535 0.0
H1167 H 0.58071 0.27627 0.91736 0.0
C1168 C 0.10926 0.22871 0.16286 0.0
C1169 C 0.12526 0.26321 0.16784 0.0
C1170 C 0.06964 0.22168 0.16354 0.0
C1171 C 0.04496 0.24998 0.16917 0.0
C1172 C 0.06085 0.28474 0.17437 0.0
C1173 C 0.10085 0.29083 0.17374 0.0
C1174 C 0.05414 0.18405 0.15803 0.0
C1175 C 0.03548 0.31582 0.18032 0.0
C1176 C 0.94136 0.24827 0.15662 0.0
C1177 C 0.92188 0.23176 0.16792 0.0
C1178 C 0.98113 0.25474 0.15699 0.0
C1179 C 1.00245 0.24389 0.16889 0.0
C1180 C 0.98326 0.22627 0.18021 0.0
C1181 C 0.94322 0.22055 0.17963 0.0
C1182 C 1.00028 0.2736 0.14467 0.0
C1183 C 0.00503 0.2137 0.19299 0.0
H1184 H 0.1278 0.20685 0.15845 0.0
H1185 H 0.11291 0.31747 0.17764 0.0
H1186 H 0.03651 0.16963 0.16609 0.0
H1187 H 0.03518 0.18952 0.14898 0.0
H1188 H 0.07734 0.16411 0.15474 0.0
H1189 H 0.05227 0.3406 0.18436 0.0
H1190 H 0.01551 0.32635 0.17218 0.0
H1191 H 0.01771 0.30404 0.18888 0.0
H1192 H 0.92545 0.25675 0.14745 0.0
H1193 H 0.92858 0.20786 0.18844 0.0
H1194 H 0.0221 0.25397 0.14018 0.0
H1195 H 0.01546 0.30006 0.14805 0.0
H1196 H 0.97947 0.28136 0.13638 0.0
H1197 H 0.0279 0.19305 0.19005 0.0
H1198 H 0.98608 0.19993 0.20082 0.0
H1199 H 0.01929 0.23886 0.19786 0.0
C1200 C 0.09068 0.98378 0.4723 0.0
C1201 C 0.07038 0.01505 0.46675 0.0
C1202 C 0.09495 0.97945 0.48679 0.0
C1203 C 0.07838 0.00692 0.4959 0.0
C1204 C 0.06066 0.04007 0.49027 0.0
C1205 C 0.05704 0.04377 0.47582 0.0
C1206 C 0.11463 0.94403 0.49234 0.0
C1207 C 0.04252 0.07013 0.49952 0.0
C1208 C 0.03292 0.97421 0.52965 0.0
C1209 C 0.0578 0.98946 0.53976 0.0
C1210 C 0.04022 0.97851 0.51542 0.0
C1211 C 0.07355 0.99828 0.51101 0.0
C1212 C 0.09979 0.01232 0.5211 0.0
C1213 C 0.09151 0.00795 0.53537 0.0
C1214 C 0.01118 0.96327 0.50511 0.0
C1215 C 0.1359 0.03308 0.51681 0.0
H1216 H 0.10126 0.96151 0.4654 0.0
H1217 H 0.04191 0.06841 0.47164 0.0
H1218 H 0.13349 0.95141 0.50125 0.0
H1219 H 0.0927 0.92344 0.49615 0.0
H1220 H 0.13204 0.92945 0.48422 0.0
H1221 H 0.03402 0.09625 0.49363 0.0
H1222 H 0.01648 0.05795 0.50449 0.0
H1223 H 0.0625 0.07871 0.50794 0.0
H1224 H 0.00684 0.95974 0.53282 0.0
H1225 H 0.111 0.01972 0.54306 0.0
H1226 H 0.02539 0.94411 0.49746 0.0
H1227 H 0.99834 0.98754 0.49924 0.0
H1228 H 0.98764 0.94701 0.51021 0.0
H1229 H 0.1511 0.01677 0.50856 0.0
H1230 H 0.15578 0.03753 0.5257 0.0
H1231 H 0.12836 0.06159 0.51243 0.0
C1232 C 0.22931 0.83599 0.78276 0.0
C1233 C 0.26234 0.81896 0.78839 0.0
C1234 C 0.22446 0.83916 0.76826 0.0
C1235 C 0.25328 0.82492 0.75921 0.0
C1236 C 0.28788 0.81048 0.76489 0.0
C1237 C 0.29201 0.80779 0.77937 0.0
C1238 C 0.18732 0.85517 0.76265 0.0
C1239 C 0.31945 0.79502 0.7557 0.0
C1240 C 0.22485 0.77816 0.72505 0.0
C1241 C 0.23714 0.80522 0.71518 0.0
C1242 C 0.22885 0.78491 0.73935 0.0
C1243 C 0.24537 0.81979 0.74404 0.0
C1244 C 0.25656 0.84794 0.73419 0.0
C1245 C 0.25245 0.84028 0.71986 0.0
C1246 C 0.21664 0.75393 0.74944 0.0
C1247 C 0.27397 0.8856 0.73878 0.0
H1248 H 0.20622 0.84478 0.78961 0.0
H1249 H 0.31789 0.79509 0.78361 0.0
H1250 H 0.19288 0.87499 0.75385 0.0
H1251 H 0.16932 0.83126 0.75865 0.0
H1252 H 0.17079 0.87076 0.77076 0.0
H1253 H 0.34615 0.78893 0.76162 0.0
H1254 H 0.30971 0.76793 0.75071 0.0
H1255 H 0.3262 0.8157 0.74728 0.0
H1256 H 0.21287 0.751 0.72163 0.0
H1257 H 0.262 0.86141 0.71235 0.0
H1258 H 0.1963 0.76585 0.75719 0.0
H1259 H 0.24204 0.7432 0.75522 0.0
H1260 H 0.20272 0.72917 0.74415 0.0
H1261 H 0.25587 0.89925 0.74689 0.0
H1262 H 0.27742 0.90602 0.73 0.0
H1263 H 0.30259 0.88031 0.74346 0.0
C1264 C 0.47853 0.03029 0.0315 0.0
C1265 C 0.46235 0.00493 0.04122 0.0
C1266 C 0.47408 0.02445 0.01715 0.0
C1267 C 0.45272 0.9925 0.01229 0.0
C1268 C 0.43428 0.96811 0.02203 0.0
C1269 C 0.43934 0.97458 0.03639 0.0
C1270 C 0.49423 0.05129 0.0072 0.0
C1271 C 0.41097 0.93396 0.01729 0.0
C1272 C 0.43159 0.99373 0.97335 0.0
C1273 C 0.46275 0.97265 0.96809 0.0
C1274 C 0.42664 0.99885 0.98778 0.0
C1275 C 0.45353 0.98262 0.99716 0.0
C1276 C 0.48386 0.95974 0.99191 0.0
C1277 C 0.48803 0.955 0.9775 0.0
C1278 C 0.39374 0.02317 0.99295 0.0
C1279 C 0.51325 0.94187 1.00147 0.0
H1280 H 0.49599 0.05412 0.03508 0.0
H1281 H 0.42668 0.95482 0.04378 0.0
H1282 H 0.51751 0.03556 1.00175 0.0
H1283 H 0.47392 0.06175 0.99917 0.0
H1284 H 0.507 0.07653 0.01258 0.0
H1285 H 0.39413 0.92113 0.02593 0.0
H1286 H 0.391 0.94233 0.00883 0.0
H1287 H 0.43045 0.9116 0.01306 0.0
H1288 H 0.41188 0.00751 0.9662 0.0
H1289 H 0.51206 0.9384 0.9736 0.0
H1290 H 0.40499 0.05084 0.99701 0.0
H1291 H 0.37873 0.00858 1.00164 0.0
H1292 H 0.37262 0.02946 0.9846 0.0
H1293 H 0.53021 0.96486 0.00662 0.0
H1294 H 0.53337 0.92256 0.99585 0.0
H1295 H 0.49882 0.92513 0.00977 0.0
C1296 C 0.25116 0.16741 0.22538 0.0
C1297 C 0.27878 0.19256 0.21991 0.0
C1298 C 0.24692 0.16292 0.23987 0.0
C1299 C 0.27075 0.18418 0.24905 0.0
C1300 C 0.3003 0.20753 0.24352 0.0
C1301 C 0.304 0.21129 0.22908 0.0
C1302 C 0.21544 0.13729 0.24533 0.0
C1303 C 0.32641 0.23078 0.25285 0.0
C1304 C 0.23326 0.22287 0.28327 0.0
C1305 C 0.25368 0.20106 0.29307 0.0
C1306 C 0.23706 0.21618 0.26897 0.0
C1307 C 0.26181 0.18671 0.26421 0.0
C1308 C 0.28089 0.16306 0.27404 0.0
C1309 C 0.27665 0.17055 0.28837 0.0
C1310 C 0.21611 0.24219 0.25893 0.0
C1311 C 0.30717 0.13107 0.2694 0.0
H1312 H 0.23166 0.15265 0.21839 0.0
H1313 H 0.32594 0.23024 0.22498 0.0
H1314 H 0.226 0.11965 0.25414 0.0
H1315 H 0.19152 0.15531 0.24928 0.0
H1316 H 0.20397 0.11787 0.23715 0.0
H1317 H 0.35016 0.24462 0.24699 0.0
H1318 H 0.30954 0.25363 0.2581 0.0
H1319 H 0.33896 0.21229 0.26106 0.0
H1320 H 0.21494 0.24614 0.28674 0.0
H1321 H 0.29243 0.15342 0.29585 0.0
H1322 H 0.19987 0.22488 0.25123 0.0
H1323 H 0.23719 0.25983 0.2531 0.0
H1324 H 0.1958 0.26187 0.26429 0.0
H1325 H 0.29345 0.11376 0.26107 0.0
H1326 H 0.31508 0.11172 0.27812 0.0
H1327 H 0.33387 0.14354 0.26503 0.0
C1328 C 0.73471 0.27229 0.22472 0.0
C1329 C 0.74819 0.29895 0.2149 0.0
C1330 C 0.73706 0.27955 0.23903 0.0
C1331 C 0.75313 0.31455 0.24381 0.0
C1332 C 0.76556 0.3423 0.234 0.0
C1333 C 0.76306 0.33414 0.21965 0.0
C1334 C 0.72354 0.249 0.24906 0.0
C1335 C 0.78255 0.38007 0.23866 0.0
C1336 C 0.73244 0.33244 0.28215 0.0
C1337 C 0.76479 0.31575 0.28842 0.0
C1338 C 0.72933 0.3349 0.26757 0.0
C1339 C 0.75918 0.32024 0.25907 0.0
C1340 C 0.79302 0.30598 0.26538 0.0
C1341 C 0.79545 0.30406 0.27993 0.0
C1342 C 0.69296 0.35076 0.26128 0.0
C1343 C 0.82561 0.29003 0.25678 0.0
H1344 H 0.72298 0.24507 0.22125 0.0
H1345 H 0.77353 0.35496 0.21218 0.0
H1346 H 0.74818 0.23842 0.25529 0.0
H1347 H 0.70231 0.26126 0.25643 0.0
H1348 H 0.7102 0.22407 0.24368 0.0
H1349 H 0.78715 0.40013 0.22984 0.0
H1350 H 0.76354 0.39409 0.24641 0.0
H1351 H 0.81055 0.37486 0.24382 0.0
H1352 H 0.70863 0.34172 0.28858 0.0
H1353 H 0.82085 0.29165 0.28463 0.0
H1354 H 0.67547 0.32675 0.25707 0.0
H1355 H 0.69966 0.37032 0.25251 0.0
H1356 H 0.67541 0.36659 0.26905 0.0
H1357 H 0.81633 0.26285 0.25173 0.0
H1358 H 0.8515 0.28396 0.26316 0.0
H1359 H 0.83356 0.31041 0.24841 0.0
C1360 C 0.79556 0.71011 0.72929 0.0
C1361 C 0.76767 0.69475 0.72032 0.0
C1362 C 0.79148 0.708 0.74379 0.0
C1363 C 0.75883 0.68974 0.74955 0.0
C1364 C 0.7321 0.67152 0.74058 0.0
C1365 C 0.73677 0.6743 0.72606 0.0
C1366 C 0.82076 0.72783 0.75289 0.0
C1367 C 0.69718 0.6513 0.74628 0.0
C1368 C 0.7602 0.67626 0.78898 0.0
C1369 C 0.74079 0.7094 0.79348 0.0
C1370 C 0.76502 0.66845 0.77469 0.0
C1371 C 0.75032 0.6945 0.76469 0.0
C1372 C 0.7296 0.72722 0.7692 0.0
C1373 C 0.725 0.73416 0.78346 0.0
C1374 C 0.78695 0.63305 0.77031 0.0
C1375 C 0.71351 0.75592 0.75895 0.0
H1376 H 0.81987 0.72547 0.725 0.0
H1377 H 0.71511 0.66217 0.71926 0.0
H1378 H 0.80756 0.75355 0.75778 0.0
H1379 H 0.8302 0.7085 0.76139 0.0
H1380 H 0.84642 0.73721 0.74694 0.0
H1381 H 0.68267 0.63348 0.73826 0.0
H1382 H 0.70513 0.63266 0.75518 0.0
H1383 H 0.67641 0.67297 0.75017 0.0
H1384 H 0.77249 0.65692 0.7966 0.0
H1385 H 0.70979 0.75977 0.78675 0.0
H1386 H 0.81482 0.64168 0.76569 0.0
H1387 H 0.77082 0.61703 0.76222 0.0
H1388 H 0.79268 0.61349 0.7792 0.0
H1389 H 0.73734 0.76959 0.7531 0.0
H1390 H 0.69655 0.7789 0.76411 0.0
H1391 H 0.69486 0.74115 0.75127 0.0
C1392 C 0.59632 0.504 0.97231 0.0
C1393 C 0.56085 0.51893 0.96797 0.0
C1394 C 0.6047 0.49932 0.98657 0.0
C1395 C 0.57685 0.50949 0.99668 0.0
C1396 C 0.54138 0.52523 0.99233 0.0
C1397 C 0.53393 0.52984 0.97811 0.0
C1398 C 0.64296 0.48275 0.99081 0.0
C1399 C 0.51064 0.53626 1.00268 0.0
C1400 C 0.56675 0.46319 0.03208 0.0
C1401 C 0.57686 0.49357 0.04098 0.0
C1402 C 0.56958 0.46686 0.01759 0.0
C1403 C 0.58306 0.50174 0.01179 0.0
C1404 C 0.59654 0.53123 0.02074 0.0
C1405 C 0.59326 0.52682 0.03525 0.0
C1406 C 0.55493 0.43458 0.0085 0.0
C1407 C 0.61152 0.5687 0.01501 0.0
H1408 H 0.61734 0.49554 0.96459 0.0
H1409 H 0.50638 0.54137 0.97497 0.0
H1410 H 0.6568 0.5014 0.99873 0.0
H1411 H 0.63862 0.45412 0.99564 0.0
H1412 H 0.66275 0.47946 0.98184 0.0
H1413 H 0.48509 0.54927 0.99762 0.0
H1414 H 0.50123 0.51045 0.00853 0.0
H1415 H 0.52225 0.5571 0.01035 0.0
H1416 H 0.55457 0.43713 0.0364 0.0
H1417 H 0.60127 0.55044 0.04202 0.0
H1418 H 0.57527 0.42865 0.9999 0.0
H1419 H 0.52718 0.44318 1.00377 0.0
H1420 H 0.55035 0.40764 0.01447 0.0
H1421 H 0.63103 0.56349 0.0061 0.0
H1422 H 0.62707 0.58565 0.02303 0.0
H1423 H 0.5871 0.58619 0.01116 0.0
C1424 C 0.92889 0.51279 0.53901 0.0
C1425 C 0.96488 0.52573 0.54365 0.0
C1426 C 0.92067 0.50976 0.52468 0.0
C1427 C 0.94923 0.51947 0.51478 0.0
C1428 C 0.98521 0.53336 0.51944 0.0
C1429 C 0.99246 0.53646 0.53373 0.0
C1430 C 0.88184 0.49525 0.52013 0.0
C1431 C 0.01671 0.54379 0.50931 0.0
C1432 C 0.9571 0.47468 0.47894 0.0
C1433 C 0.94853 0.50599 0.47027 0.0
C1434 C 0.95479 0.47782 0.49347 0.0
C1435 C 0.94312 0.51301 0.49956 0.0
C1436 C 0.93114 0.54361 0.49085 0.0
C1437 C 0.93408 0.53979 0.4763 0.0
C1438 C 0.96792 0.44441 0.50229 0.0
C1439 C 0.91792 0.58141 0.49689 0.0
H1440 H 0.90735 0.50445 0.54655 0.0
H1441 H 0.02041 0.54647 0.53711 0.0
H1442 H 0.86925 0.51485 0.51226 0.0
H1443 H 0.88497 0.46662 0.51516 0.0
H1444 H 0.86154 0.49259 0.52898 0.0
H1445 H 0.04265 0.55529 0.5146 0.0
H1446 H 0.02514 0.51802 0.50322 0.0
H1447 H 0.00626 0.56566 0.50183 0.0
H1448 H 0.96768 0.44818 0.47442 0.0
H1449 H 0.92717 0.56413 0.46973 0.0
H1450 H 0.94705 0.43865 0.51073 0.0
H1451 H 0.99577 0.45167 0.50725 0.0
H1452 H 0.97175 0.41773 0.49608 0.0
H1453 H 0.89796 0.57659 0.5057 0.0
H1454 H 0.90343 0.59962 0.48899 0.0
H1455 H 0.94308 0.59741 0.50097 0.0
C1456 C 0.19399 0.83405 0.63656 0.0
C1457 C 0.18194 0.81379 0.64842 0.0
C1458 C 0.16839 0.85616 0.6287 0.0
C1459 C 0.12907 0.85683 0.63232 0.0
C1460 C 0.11622 0.83542 0.64397 0.0
C1461 C 0.14293 0.81471 0.65205 0.0
C1462 C 0.18371 0.87944 0.61666 0.0
C1463 C 0.07428 0.83427 0.64785 0.0
C1464 C 0.07285 0.94414 0.62027 0.0
C1465 C 0.0579 0.93179 0.60746 0.0
C1466 C 0.09551 0.9199 0.62853 0.0
C1467 C 0.10218 0.88158 0.62422 0.0
C1468 C 0.08582 0.86826 0.61159 0.0
C1469 C 0.06452 0.89373 0.60323 0.0
C1470 C 0.11343 0.93583 0.64163 0.0
C1471 C 0.09114 0.82721 0.60686 0.0
H1472 H 0.22373 0.83299 0.6334 0.0
H1473 H 0.13314 0.79864 0.66102 0.0
H1474 H 0.16999 0.87 0.60683 0.0
H1475 H 0.17656 0.91027 0.61814 0.0
H1476 H 0.21532 0.87672 0.6155 0.0
H1477 H 0.06847 0.81373 0.65643 0.0
H1478 H 0.06462 0.86326 0.65114 0.0
H1479 H 0.05678 0.82591 0.63869 0.0
H1480 H 0.06746 0.97315 0.62382 0.0
H1481 H 0.05265 0.88364 0.59347 0.0
H1482 H 0.14518 0.93428 0.64085 0.0
H1483 H 0.10482 0.91833 0.65074 0.0
H1484 H 0.10513 0.9662 0.64359 0.0
H1485 H 0.12149 0.82239 0.60387 0.0
H1486 H 0.07263 0.82003 0.59781 0.0
H1487 H 0.08448 0.80708 0.61548 0.0
C1488 C 0.31888 0.82227 0.87059 0.0
C1489 C 0.32975 0.81097 0.85712 0.0
C1490 C 0.34353 0.84378 0.87911 0.0
C1491 C 0.38082 0.85301 0.87436 0.0
C1492 C 0.39279 0.84017 0.86105 0.0
C1493 C 0.36691 0.8199 0.85249 0.0
C1494 C 0.32906 0.85778 0.89303 0.0
C1495 C 0.43279 0.84823 0.85578 0.0
C1496 C 0.42731 0.94307 0.88905 0.0
C1497 C 0.44962 0.92858 0.90003 0.0
C1498 C 0.40488 0.91882 0.88071 0.0
C1499 C 0.40591 0.87863 0.88291 0.0
C1500 C 0.42936 0.86349 0.89364 0.0
C1501 C 0.45039 0.8887 0.90225 0.0
C1502 C 0.37945 0.93642 0.86969 0.0
C1503 C 0.43233 0.8207 0.896 0.0
H1504 H 0.29069 0.81492 0.87446 0.0
H1505 H 0.37593 0.81075 0.84222 0.0
H1506 H 0.34812 0.84754 0.90148 0.0
H1507 H 0.3295 0.88969 0.8933 0.0
H1508 H 0.29935 0.8479 0.89524 0.0
H1509 H 0.43916 0.83243 0.84601 0.0
H1510 H 0.43618 0.87945 0.85381 0.0
H1511 H 0.45436 0.84007 0.86375 0.0
H1512 H 0.42696 0.97362 0.887 0.0
H1513 H 0.468 0.87709 0.91053 0.0
H1514 H 0.34914 0.92798 0.8715 0.0
H1515 H 0.38766 0.92548 0.85927 0.0
H1516 H 0.3812 0.96832 0.86955 0.0
H1517 H 0.40424 0.80922 0.89948 0.0
H1518 H 0.45431 0.81337 0.90394 0.0
H1519 H 0.4397 0.80593 0.88612 0.0
C1520 C 0.4334 0.08953 0.10504 0.0
C1521 C 0.46708 0.0717 0.10966 0.0
C1522 C 0.41209 0.11352 0.11396 0.0
C1523 C 0.42546 0.12063 0.12766 0.0
C1524 C 0.46031 0.10385 0.13215 0.0
C1525 C 0.48037 0.0792 0.12317 0.0
C1526 C 0.37469 0.1303 0.10887 0.0
C1527 C 0.47619 0.11151 0.1465 0.0
C1528 C 0.38259 0.20724 0.14627 0.0
C1529 C 0.35541 0.18974 0.1549 0.0
C1530 C 0.40667 0.18503 0.13772 0.0
C1531 C 0.40235 0.14451 0.13747 0.0
C1532 C 0.37523 0.12678 0.14639 0.0
C1533 C 0.35238 0.14966 0.15514 0.0
C1534 C 0.43585 0.20501 0.12866 0.0
C1535 C 0.36912 0.0838 0.14625 0.0
H1536 H 0.423 0.08359 0.09463 0.0
H1537 H 0.50667 0.06578 0.12674 0.0
H1538 H 0.35076 0.12011 0.11554 0.0
H1539 H 0.37541 0.16211 0.10967 0.0
H1540 H 0.36841 0.12226 0.09793 0.0
H1541 H 0.50507 0.0986 0.14799 0.0
H1542 H 0.47819 0.14293 0.14838 0.0
H1543 H 0.45653 0.0995 0.15445 0.0
H1544 H 0.38428 0.23837 0.14596 0.0
H1545 H 0.33073 0.13636 0.16164 0.0
H1546 H 0.4279 0.20148 0.11757 0.0
H1547 H 0.46457 0.19179 0.13008 0.0
H1548 H 0.43793 0.23624 0.13099 0.0
H1549 H 0.35994 0.07447 0.13573 0.0
H1550 H 0.34704 0.07453 0.15388 0.0
H1551 H 0.3964 0.06876 0.14863 0.0
C1552 C 0.07226 0.1138 0.40276 0.0
C1553 C 0.065 0.07588 0.39849 0.0
C1554 C 0.09363 0.13908 0.39436 0.0
C1555 C 0.10946 0.12568 0.38168 0.0
C1556 C 0.10193 0.0876 0.37727 0.0
C1557 C 0.0791 0.06357 0.38556 0.0
C1558 C 0.09977 0.17994 0.39919 0.0
C1559 C 0.11933 0.07159 0.3641 0.0
C1560 C 0.15169 0.19351 0.35445 0.0
C1561 C 0.19047 0.19434 0.35839 0.0
C1562 C 0.1246 0.17225 0.36216 0.0
C1563 C 0.13694 0.15003 0.37368 0.0
C1564 C 0.17615 0.15014 0.37747 0.0
C1565 C 0.20206 0.17297 0.37003 0.0
C1566 C 0.08277 0.17411 0.35815 0.0
C1567 C 0.19095 0.12588 0.38934 0.0
H1568 H 0.06098 0.12389 0.41261 0.0
H1569 H 0.07311 0.03472 0.38197 0.0
H1570 H 0.13015 0.184 0.40231 0.0
H1571 H 0.09381 0.20035 0.39059 0.0
H1572 H 0.08121 0.18741 0.40818 0.0
H1573 H 0.11 0.04159 0.36199 0.0
H1574 H 0.11139 0.0897 0.35507 0.0
H1575 H 0.15111 0.07204 0.36493 0.0
H1576 H 0.14228 0.2103 0.34561 0.0
H1577 H 0.23162 0.17381 0.37337 0.0
H1578 H 0.06533 0.18317 0.36724 0.0
H1579 H 0.07249 0.14522 0.35499 0.0
H1580 H 0.07752 0.19447 0.34946 0.0
H1581 H 0.17787 0.1355 0.39926 0.0
H1582 H 0.22267 0.12746 0.3904 0.0
H1583 H 0.18268 0.09536 0.38776 0.0
C1584 C 0.89882 0.07875 0.40267 0.0
C1585 C 0.90832 0.04015 0.39988 0.0
C1586 C 0.8723 0.09891 0.39454 0.0
C1587 C 0.85346 0.07996 0.38345 0.0
C1588 C 0.8606 0.04024 0.38115 0.0
C1589 C 0.88835 0.02087 0.38928 0.0
C1590 C 0.86652 0.14136 0.39727 0.0
C1591 C 0.84016 0.0186 0.36975 0.0
C1592 C 0.77468 0.14354 0.36825 0.0
C1593 C 0.79452 0.16176 0.35739 0.0
C1594 C 0.79226 0.11415 0.37613 0.0
C1595 C 0.83085 0.10353 0.37334 0.0
C1596 C 0.85013 0.12044 0.36195 0.0
C1597 C 0.83163 0.14874 0.35405 0.0
C1598 C 0.77017 0.09585 0.38786 0.0
C1599 C 0.89151 0.11091 0.3587 0.0
H1600 H 0.9134 0.09415 0.41091 0.0
H1601 H 0.89505 0.99105 0.38707 0.0
H1602 H 0.87677 0.1582 0.38821 0.0
H1603 H 0.83561 0.14785 0.39866 0.0
H1604 H 0.8822 0.15142 0.40666 0.0
H1605 H 0.84207 0.98699 0.37127 0.0
H1606 H 0.80947 0.02703 0.36925 0.0
H1607 H 0.85338 0.02569 0.35959 0.0
H1608 H 0.7459 0.15291 0.37085 0.0
H1609 H 0.84732 0.16199 0.3456 0.0
H1610 H 0.77955 0.10849 0.39789 0.0
H1611 H 0.77582 0.06447 0.3883 0.0
H1612 H 0.73877 0.10061 0.38678 0.0
H1613 H 0.91012 0.12079 0.36736 0.0
H1614 H 0.90158 0.12474 0.34895 0.0
H1615 H 0.89536 0.0794 0.3577 0.0
C1616 C 0.61098 0.05952 0.11861 0.0
C1617 C 0.61983 0.03084 0.1089 0.0
C1618 C 0.63988 0.08183 0.1248 0.0
C1619 C 0.67873 0.07588 0.12097 0.0
C1620 C 0.68793 0.0462 0.1114 0.0
C1621 C 0.65826 0.02394 0.10546 0.0
C1622 C 0.62859 0.11277 0.13505 0.0
C1623 C 0.72884 0.0391 0.10697 0.0
C1624 C 0.73845 0.16562 0.12771 0.0
C1625 C 0.75245 0.15816 0.14108 0.0
C1626 C 0.71685 0.13776 0.12048 0.0
C1627 C 0.70906 0.10174 0.12683 0.0
C1628 C 0.72606 0.09309 0.13982 0.0
C1629 C 0.74751 0.12141 0.14677 0.0
C1630 C 0.69956 0.14817 0.1066 0.0
C1631 C 0.71881 0.05518 0.14698 0.0
H1632 H 0.58113 0.06537 0.12101 0.0
H1633 H 0.66491 1.00248 0.09763 0.0
H1634 H 0.64467 0.10914 0.14492 0.0
H1635 H 0.63613 0.14145 0.13081 0.0
H1636 H 0.59737 0.11241 0.13741 0.0
H1637 H 0.73163 0.0129 0.10043 0.0
H1638 H 0.73942 0.06413 0.10094 0.0
H1639 H 0.74769 0.0361 0.1162 0.0
H1640 H 0.74172 0.19416 0.12337 0.0
H1641 H 0.75863 0.1155 0.15706 0.0
H1642 H 0.66834 0.1534 0.10789 0.0
H1643 H 0.70295 0.12418 0.09909 0.0
H1644 H 0.71283 0.17447 0.10215 0.0
H1645 H 0.68883 0.05447 0.15086 0.0
H1646 H 0.73844 0.0507 0.15594 0.0
H1647 H 0.72225 0.03091 0.13959 0.0
C1648 C 0.73669 0.89709 0.8596 0.0
C1649 C 0.73415 0.85908 0.86431 0.0
C1650 C 0.71435 0.92639 0.86568 0.0
C1651 C 0.68865 0.91721 0.87661 0.0
C1652 C 0.68762 0.8791 0.88184 0.0
C1653 C 0.71021 0.8505 0.87556 0.0
C1654 C 0.7164 0.96651 0.8598 0.0
C1655 C 0.66071 0.86788 0.89346 0.0
C1656 C 0.63863 0.98895 0.90034 0.0
C1657 C 0.60115 0.9881 0.89507 0.0
C1658 C 0.66837 0.96832 0.89383 0.0
C1659 C 0.66025 0.94609 0.88183 0.0
C1660 C 0.62299 0.94765 0.87589 0.0
C1661 C 0.59383 0.9685 0.88264 0.0
C1662 C 0.70754 0.96766 0.90052 0.0
C1663 C 0.61296 0.92451 0.8631 0.0
H1664 H 0.7544 0.90344 0.85062 0.0
H1665 H 0.7074 0.82086 0.8789 0.0
H1666 H 0.68976 0.97267 0.85388 0.0
H1667 H 0.71842 0.98806 0.86828 0.0
H1668 H 0.7413 0.97019 0.85271 0.0
H1669 H 0.66568 0.83797 0.89709 0.0
H1670 H 0.6641 0.88768 0.90243 0.0
H1671 H 0.63056 0.87025 0.88984 0.0
H1672 H 0.64408 1.0035 0.91012 0.0
H1673 H 0.56461 0.96694 0.87879 0.0
H1674 H 0.73038 0.97064 0.89256 0.0
H1675 H 0.71186 0.93962 0.90578 0.0
H1676 H 0.71092 0.9909 0.90836 0.0
H1677 H 0.63499 0.9285 0.85491 0.0
H1678 H 0.58448 0.93257 0.8588 0.0
H1679 H 0.61237 0.89348 0.86578 0.0
C1680 C 0.8221 0.86752 0.65579 0.0
C1681 C 0.78615 0.85218 0.65205 0.0
C1682 C 0.84033 0.89551 0.64769 0.0
C1683 C 0.82194 0.90963 0.63563 0.0
C1684 C 0.78416 0.89701 0.63246 0.0
C1685 C 0.76683 0.86805 0.64061 0.0
C1686 C 0.88083 0.90729 0.65142 0.0
C1687 C 0.76293 0.91242 0.61999 0.0
C1688 C 0.87958 0.98992 0.61825 0.0
C1689 C 0.90106 0.96886 0.60853 0.0
C1690 C 0.8513 0.97174 0.6265 0.0
C1691 C 0.84525 0.93149 0.62525 0.0
C1692 C 0.86584 0.91058 0.61508 0.0
C1693 C 0.89285 0.92951 0.6068 0.0
C1694 C 0.82901 0.99536 0.63687 0.0
C1695 C 0.86126 0.86753 0.61349 0.0
H1696 H 0.83731 0.8562 0.66471 0.0
H1697 H 0.73891 0.8569 0.63769 0.0
H1698 H 0.901 0.89626 0.64342 0.0
H1699 H 0.88351 0.93904 0.65158 0.0
H1700 H 0.88991 0.89599 0.6617 0.0
H1701 H 0.73156 0.9071 0.62079 0.0
H1702 H 0.76796 0.94376 0.6188 0.0
H1703 H 0.77358 0.89802 0.61045 0.0
H1704 H 0.88524 0.02034 0.61961 0.0
H1705 H 0.90868 0.91268 0.59926 0.0
H1706 H 0.84155 0.99149 0.64737 0.0
H1707 H 0.79861 0.98588 0.63732 0.0
H1708 H 0.82991 0.02648 0.6343 0.0
H1709 H 0.87042 0.85299 0.62321 0.0
H1710 H 0.87849 0.85578 0.60475 0.0
H1711 H 0.83072 0.86007 0.6117 0.0
C1712 C 0.65231 0.30354 0.15218 0.0
C1713 C 0.69172 0.30983 0.15018 0.0
C1714 C 0.62478 0.32425 0.14445 0.0
C1715 C 0.637 0.35255 0.13481 0.0
C1716 C 0.67667 0.35953 0.13303 0.0
C1717 C 0.70333 0.33776 0.14053 0.0
C1718 C 0.58274 0.31533 0.14638 0.0
C1719 C 0.69113 0.39003 0.12314 0.0
C1720 C 0.57809 0.39039 0.10443 0.0
C1721 C 0.56541 0.42593 0.10961 0.0
C1722 C 0.59929 0.36496 0.11283 0.0
C1723 C 0.60886 0.37569 0.12663 0.0
C1724 C 0.59514 0.41096 0.13203 0.0
C1725 C 0.57319 0.43528 0.12355 0.0
C1726 C 0.61256 0.32717 0.10678 0.0
C1727 C 0.60531 0.42401 0.14656 0.0
H1728 H 0.643 0.28168 0.15946 0.0
H1729 H 0.73351 0.34277 0.13876 0.0
H1730 H 0.56712 0.34152 0.14975 0.0
H1731 H 0.57006 0.30616 0.13632 0.0
H1732 H 0.5779 0.29229 0.15417 0.0
H1733 H 0.72289 0.39294 0.12341 0.0
H1734 H 0.68234 0.38294 0.11236 0.0
H1735 H 0.67825 0.41829 0.12579 0.0
H1736 H 0.57167 0.38246 0.09378 0.0
H1737 H 0.56299 0.46223 0.12781 0.0
H1738 H 0.60657 0.30332 0.11412 0.0
H1739 H 0.64405 0.32805 0.10511 0.0
H1740 H 0.59843 0.32072 0.09669 0.0
H1741 H 0.59827 0.4013 0.15423 0.0
H1742 H 0.59008 0.45083 0.14956 0.0
H1743 H 0.63668 0.42929 0.14722 0.0
C1744 C 0.87328 0.29901 0.36456 0.0
C1745 C 0.84889 0.31661 0.35492 0.0
C1746 C 0.89716 0.32109 0.37324 0.0
C1747 C 0.8954 0.36176 0.37259 0.0
C1748 C 0.87106 0.37958 0.36268 0.0
C1749 C 0.84844 0.3567 0.35382 0.0
C1750 C 0.92341 0.30089 0.38336 0.0
C1751 C 0.86751 0.42278 0.36189 0.0
C1752 C 0.92427 0.41847 0.40494 0.0
C1753 C 0.95996 0.43339 0.40097 0.0
C1754 C 0.90288 0.39518 0.39579 0.0
C1755 C 0.91812 0.38569 0.38254 0.0
C1756 C 0.95478 0.39966 0.37872 0.0
C1757 C 0.97497 0.42376 0.38788 0.0
C1758 C 0.86354 0.38158 0.40015 0.0
C1759 C 0.9726 0.38937 0.3649 0.0
H1760 H 0.87303 0.26793 0.36551 0.0
H1761 H 0.82877 0.37018 0.34657 0.0
H1762 H 0.9531 0.31213 0.38237 0.0
H1763 H 0.91383 0.30664 0.39415 0.0
H1764 H 0.9239 0.26928 0.38169 0.0
H1765 H 0.84769 0.43211 0.3535 0.0
H1766 H 0.85672 0.43411 0.37195 0.0
H1767 H 0.89606 0.43594 0.36006 0.0
H1768 H 0.91247 0.42616 0.41499 0.0
H1769 H 1.00273 0.43501 0.38482 0.0
H1770 H 0.86236 0.34971 0.40001 0.0
H1771 H 0.8417 0.39206 0.39265 0.0
H1772 H 0.85564 0.39176 0.41072 0.0
H1773 H 0.97334 0.35767 0.36361 0.0
H1774 H 1.00228 0.40071 0.36385 0.0
H1775 H 0.95491 0.40114 0.35631 0.0
C1776 C 0.93628 0.56262 0.62179 0.0
C1777 C 0.96052 0.57597 0.61119 0.0
C1778 C 0.91476 0.58802 0.63 0.0
C1779 C 0.9187 0.62814 0.62804 0.0
C1780 C 0.94422 0.64204 0.61772 0.0
C1781 C 0.9642 0.61578 0.60921 0.0
C1782 C 0.88688 0.57175 0.64049 0.0
C1783 C 0.95035 0.6846 0.61564 0.0
C1784 C 0.83256 0.68862 0.63815 0.0
C1785 C 0.84083 0.69882 0.65199 0.0
C1786 C 0.85783 0.66617 0.63025 0.0
C1787 C 0.89347 0.65503 0.636 0.0
C1788 C 0.90325 0.66714 0.64965 0.0
C1789 C 0.87653 0.68833 0.65758 0.0
C1790 C 0.84552 0.65305 0.61594 0.0
C1791 C 0.94166 0.65719 0.65593 0.0
H1792 H 0.93346 0.53209 0.62355 0.0
H1793 H 0.98324 0.62647 0.6012 0.0
H1794 H 0.89395 0.58237 0.65105 0.0
H1795 H 0.85734 0.58162 0.63804 0.0
H1796 H 0.88704 0.53981 0.64065 0.0
H1797 H 0.97458 0.69066 0.60847 0.0
H1798 H 0.92398 0.69778 0.61129 0.0
H1799 H 0.95614 0.69882 0.62576 0.0
H1800 H 0.80572 0.69738 0.63346 0.0
H1801 H 0.88364 0.69669 0.66813 0.0
H1802 H 0.84466 0.62116 0.61557 0.0
H1803 H 0.86656 0.66265 0.60803 0.0
H1804 H 0.81676 0.66419 0.613 0.0
H1805 H 0.94292 0.62593 0.65814 0.0
H1806 H 0.94699 0.67306 0.66578 0.0
H1807 H 0.9651 0.66382 0.6485 0.0
C1808 C 0.64997 0.69926 0.85735 0.0
C1809 C 0.68866 0.70378 0.86108 0.0
C1810 C 0.62472 0.6776 0.86567 0.0
C1811 C 0.6388 0.6589 0.87773 0.0
C1812 C 0.67777 0.66339 0.88153 0.0
C1813 C 0.70191 0.68632 0.87333 0.0
C1814 C 0.58306 0.67453 0.86151 0.0
C1815 C 0.69435 0.64306 0.89403 0.0
C1816 C 0.57264 0.61908 0.9059 0.0
C1817 C 0.56871 0.58061 0.9017 0.0
C1818 C 0.59429 0.64533 0.89797 0.0
C1819 C 0.61369 0.63243 0.88587 0.0
C1820 C 0.61034 0.59352 0.88175 0.0
C1821 C 0.5873 0.56846 0.88951 0.0
C1822 C 0.59609 0.6869 0.90244 0.0
C1823 C 0.6315 0.57812 0.86921 0.0
H1824 H 0.63923 0.71308 0.84804 0.0
H1825 H 0.73148 0.69002 0.87649 0.0
H1826 H 0.57642 0.64457 0.85836 0.0
H1827 H 0.56431 0.68161 0.87048 0.0
H1828 H 0.57578 0.69395 0.85274 0.0
H1829 H 0.72528 0.64962 0.89558 0.0
H1830 H 0.67853 0.65143 0.90356 0.0
H1831 H 0.69104 0.6115 0.89278 0.0
H1832 H 0.55806 0.62893 0.91519 0.0
H1833 H 0.58414 0.5391 0.88601 0.0
H1834 H 0.5874 0.70581 0.8937 0.0
H1835 H 0.62597 0.69467 0.90525 0.0
H1836 H 0.57723 0.69292 0.91149 0.0
H1837 H 0.62188 0.59327 0.8597 0.0
H1838 H 0.62695 0.54676 0.86771 0.0
H1839 H 0.66275 0.5835 0.87035 0.0
C1840 C 0.39082 0.5209 0.88718 0.0
C1841 C 0.41115 0.54227 0.89715 0.0
C1842 C 0.36228 0.5384 0.87887 0.0
C1843 C 0.35457 0.57828 0.88038 0.0
C1844 C 0.37419 0.59952 0.89072 0.0
C1845 C 0.40173 0.58128 0.899 0.0
C1846 C 0.34128 0.51453 0.86821 0.0
C1847 C 0.36768 0.64222 0.89259 0.0
C1848 C 0.32719 0.64254 0.85035 0.0
C1849 C 0.2901 0.65478 0.85408 0.0
C1850 C 0.34736 0.61553 0.85828 0.0
C1851 C 0.32998 0.59946 0.87021 0.0
C1852 C 0.2914 0.60914 0.87344 0.0
C1853 C 0.27197 0.63696 0.8654 0.0
C1854 C 0.38856 0.60679 0.8545 0.0
C1855 C 0.27145 0.59189 0.88586 0.0
H1856 H 0.39749 0.49073 0.88572 0.0
H1857 H 0.4168 0.59831 0.90669 0.0
H1858 H 0.3101 0.52108 0.8684 0.0
H1859 H 0.35202 0.52165 0.85767 0.0
H1860 H 0.34539 0.48323 0.86996 0.0
H1861 H 0.38408 0.65421 0.90151 0.0
H1862 H 0.37654 0.6577 0.88303 0.0
H1863 H 0.33678 0.64822 0.89427 0.0
H1864 H 0.34159 0.65554 0.84155 0.0
H1865 H 0.24327 0.64583 0.86834 0.0
H1866 H 0.39359 0.57532 0.85432 0.0
H1867 H 0.40794 0.61926 0.86248 0.0
H1868 H 0.39666 0.6188 0.84421 0.0
H1869 H 0.27799 0.56075 0.88672 0.0
H1870 H 0.23983 0.59575 0.88529 0.0
H1871 H 0.28193 0.60605 0.89548 0.0
C1872 C 0.14981 0.52186 0.60923 0.0
C1873 C 0.11286 0.5209 0.61497 0.0
C1874 C 0.1787 0.54522 0.61502 0.0
C1875 C 0.17025 0.56835 0.62676 0.0
C1876 C 0.13374 0.56513 0.63319 0.0
C1877 C 0.10542 0.54159 0.62716 0.0
C1878 C 0.21714 0.54755 0.60785 0.0
C1879 C 0.12339 0.58913 0.64573 0.0
C1880 C 0.24486 0.62373 0.64777 0.0
C1881 C 0.2394 0.66119 0.64282 0.0
C1882 C 0.22424 0.5926 0.6421 0.0
C1883 C 0.19736 0.59928 0.63131 0.0
C1884 C 0.19363 0.63684 0.62572 0.0
C1885 C 0.21452 0.66737 0.63162 0.0
C1886 C 0.22916 0.55317 0.64837 0.0
C1887 C 0.16542 0.64539 0.6142 0.0
H1888 H 0.15533 0.50643 0.59964 0.0
H1889 H 0.07655 0.54182 0.63134 0.0
H1890 H 0.21925 0.57522 0.60217 0.0
H1891 H 0.24081 0.54681 0.61556 0.0
H1892 H 0.22124 0.52373 0.60029 0.0
H1893 H 0.09574 0.58002 0.65044 0.0
H1894 H 0.14622 0.58729 0.65374 0.0
H1895 H 0.12089 0.61976 0.64263 0.0
H1896 H 0.26338 0.61917 0.65667 0.0
H1897 H 0.20949 0.69653 0.62808 0.0
H1898 H 0.2317 0.53105 0.6401 0.0
H1899 H 0.20347 0.546 0.65467 0.0
H1900 H 0.25484 0.55157 0.6552 0.0
H1901 H 0.16922 0.62484 0.60548 0.0
H1902 H 0.16862 0.6751 0.61013 0.0
H1903 H 0.13569 0.64189 0.61813 0.0
C1904 C 0.13808 0.48952 0.39644 0.0
C1905 C 0.11622 0.47061 0.40661 0.0
C1906 C 0.1668 0.46976 0.38892 0.0
C1907 C 0.17324 0.43006 0.39144 0.0
C1908 C 0.15287 0.41163 0.40226 0.0
C1909 C 0.12512 0.43213 0.40976 0.0
C1910 C 0.18865 0.49083 0.37775 0.0
C1911 C 0.15798 0.36925 0.40521 0.0
C1912 C 0.19542 0.36289 0.36151 0.0
C1913 C 0.23296 0.35036 0.36449 0.0
C1914 C 0.17656 0.38993 0.36985 0.0
C1915 C 0.19576 0.406 0.38143 0.0
C1916 C 0.2344 0.39532 0.38413 0.0
C1917 C 0.25246 0.36726 0.37572 0.0
C1918 C 0.13516 0.39962 0.36664 0.0
C1919 C 0.25624 0.41259 0.39615 0.0
H1920 H 0.13185 0.51928 0.39397 0.0
H1921 H 0.10899 0.41708 0.41769 0.0
H1922 H 0.21936 0.48235 0.37781 0.0
H1923 H 0.1767 0.48321 0.36742 0.0
H1924 H 0.18661 0.52252 0.37905 0.0
H1925 H 0.14249 0.36002 0.41473 0.0
H1926 H 0.14691 0.35225 0.39629 0.0
H1927 H 0.1888 0.36214 0.40643 0.0
H1928 H 0.17984 0.35062 0.35283 0.0
H1929 H 0.28149 0.35818 0.37808 0.0
H1930 H 0.13156 0.43115 0.36556 0.0
H1931 H 0.11655 0.39016 0.37536 0.0
H1932 H 0.12482 0.38565 0.35695 0.0
H1933 H 0.25143 0.44411 0.39667 0.0
H1934 H 0.28755 0.40699 0.39535 0.0
H1935 H 0.24574 0.40006 0.40603 0.0
C1936 C 0.3913 0.48434 0.11687 0.0
C1937 C 0.41036 0.46575 0.1059 0.0
C1938 C 0.36369 0.46467 0.12493 0.0
C1939 C 0.35573 0.42535 0.12216 0.0
C1940 C 0.37313 0.40737 0.11057 0.0
C1941 C 0.39963 0.42785 0.10254 0.0
C1942 C 0.34471 0.48534 0.13687 0.0
C1943 C 0.36636 0.36536 0.10731 0.0
C1944 C 0.33843 0.35539 0.15157 0.0
C1945 C 0.30047 0.34323 0.14918 0.0
C1946 C 0.35591 0.38342 0.14328 0.0
C1947 C 0.33478 0.40094 0.13245 0.0
C1948 C 0.29565 0.39086 0.13052 0.0
C1949 C 0.27906 0.36168 0.13878 0.0
C1950 C 0.39793 0.39235 0.1456 0.0
C1951 C 0.27172 0.40981 0.11941 0.0
H1952 H 0.39893 0.51367 0.11951 0.0
H1953 H 0.4135 0.41311 0.09398 0.0
H1954 H 0.314 0.47717 0.13768 0.0
H1955 H 0.35894 0.4771 0.14675 0.0
H1956 H 0.34684 0.51706 0.13574 0.0
H1957 H 0.38003 0.35642 0.09739 0.0
H1958 H 0.3783 0.34739 0.11581 0.0
H1959 H 0.3352 0.35919 0.10666 0.0
H1960 H 0.35542 0.34183 0.15962 0.0
H1961 H 0.24964 0.35293 0.13692 0.0
H1962 H 0.40218 0.4237 0.14698 0.0
H1963 H 0.41474 0.38343 0.13634 0.0
H1964 H 0.40981 0.37738 0.15485 0.0
H1965 H 0.27764 0.44115 0.11898 0.0
H1966 H 0.24053 0.40535 0.12119 0.0
H1967 H 0.27915 0.39745 0.10912 0.0
loop_
_geom_bond_atom_site_label_1
_geom_bond_atom_site_label_2
_geom_bond_distance
_geom_bond_site_symmetry_2
_ccdc_geom_bond_type
Co0 O2 2.143 1_665 S
Co0 O8 2.074 . S
Co0 O11 2.093 1_655 S
Co0 O24 2.097 1_655 S
Co0 N41 2.151 . S
Co0 N49 2.214 . S
Co1 O2 2.160 . S
Co1 O7 2.058 1_455 S
Co1 O17 2.057 . S
Co1 O32 2.037 1_545 S
Co1 N36 2.145 . S
Co1 N57 2.257 . S
O2 Co0 2.143 1_445 S
O2 Co1 2.160 . S
C3 O4 1.278 . S
C3 O11 1.224 1_545 S
O4 C3 1.278 . S
C5 O6 1.245 . S
C5 O17 1.232 1_655 S
O6 C5 1.245 . S
O7 Co1 2.058 1_655 S
O7 C33 1.269 1_545 S
O8 Co0 2.074 . S
O8 C33 1.257 . S
H9 C34 0.930 . S
H10 C40 0.930 . S
O11 Co0 2.093 1_455 S
O11 C3 1.224 1_565 S
H12 C44 0.929 . S
H13 C46 0.930 . S
H14 C47 0.930 . S
H15 C45 0.929 . S
H16 C48 0.928 . S
O17 Co1 2.057 . S
O17 C5 1.232 1_455 S
H18 C37 0.929 . S
H19 C38 0.929 . S
H20 C50 0.931 . S
H21 C42 0.929 . S
H22 C51 0.930 . S
H23 C43 0.931 . S
O24 Co0 2.097 1_455 S
O24 C52 1.214 . S
H25 C53 0.929 . S
H26 C54 0.929 . S
H27 C55 0.930 . S
H28 C56 0.929 . S
H29 C58 0.930 . S
H30 C35 0.930 . S
H31 C39 0.930 . S
O32 Co1 2.037 1_565 S
O32 C52 1.234 . S
C33 O7 1.269 1_565 S
C33 O8 1.257 . S
C34 H9 0.930 . S
C34 C37 1.388 . S
C34 C39 1.418 . S
C35 H30 0.930 . S
C35 C38 1.404 . S
C35 C39 1.353 . S
N36 Co1 2.145 . S
N36 C37 1.397 . S
N36 C38 1.334 . S
C37 H18 0.929 . S
C37 C34 1.388 . S
C37 N36 1.397 . S
C38 H19 0.929 . S
C38 C35 1.404 . S
C38 N36 1.334 . S
C39 H31 0.930 . S
C39 C34 1.418 . S
C39 C35 1.353 . S
C40 H10 0.930 . S
C40 N41 1.330 1_545 S
C40 C42 1.446 . S
N41 Co0 2.151 . S
N41 C40 1.330 1_565 S
N41 C45 1.418 . S
C42 H21 0.929 . S
C42 C40 1.446 . S
C42 C43 1.332 1_545 S
C43 H23 0.931 . S
C43 C42 1.332 1_565 S
C43 C44 1.267 . S
C44 H12 0.929 . S
C44 C43 1.267 . S
C44 C45 1.251 . S
C45 H15 0.929 . S
C45 N41 1.418 . S
C45 C44 1.251 . S
C46 H13 0.930 . S
C46 C48 1.406 . S
C46 C51 1.261 . S
C47 H14 0.930 . S
C47 N49 1.325 . S
C47 C50 1.357 . S
C48 H16 0.928 . S
C48 C46 1.406 . S
C48 N49 1.261 . S
N49 Co0 2.214 . S
N49 C47 1.325 . S
N49 C48 1.261 . S
C50 H20 0.931 . S
C50 C47 1.357 . S
C50 C51 1.312 . S
C51 H22 0.930 . S
C51 C46 1.261 . S
C51 C50 1.312 . S
C52 O24 1.214 . S
C52 O32 1.234 . S
C53 H25 0.929 . S
C53 C56 1.391 . S
C53 C58 1.391 . S
C54 H26 0.929 . S
C54 C55 1.390 . S
C54 N57 1.391 . S
C55 H27 0.930 . S
C55 C54 1.390 . S
C55 C56 1.392 . S
C56 H28 0.929 . S
C56 C53 1.391 . S
C56 C55 1.392 . S
N57 Co1 2.257 . S
N57 C54 1.391 . S
N57 C58 1.388 . S
C58 H29 0.930 . S
C58 C53 1.391 . S
C58 N57 1.388 . S
Co59 O61 2.143 . S
Co59 O67 2.074 . S
Co59 O70 2.093 . S
Co59 O83 2.097 . S
Co59 N100 2.151 . S
Co59 N108 2.214 . S
Co60 O61 2.160 . S
Co60 O66 2.058 . S
Co60 O76 2.057 . S
Co60 O91 2.037 . S
Co60 N95 2.145 . S
Co60 N116 2.257 . S
O61 Co59 2.143 . S
O61 Co60 2.160 . S
C62 O63 1.278 . S
C62 O70 1.224 . S
O63 C62 1.278 . S
C64 O65 1.245 . S
C64 O76 1.232 . S
O65 C64 1.245 . S
O66 Co60 2.058 . S
O66 C92 1.269 . S
O67 Co59 2.074 . S
O67 C92 1.257 . S
H68 C93 0.930 . S
H69 C99 0.930 . S
O70 Co59 2.093 . S
O70 C62 1.224 . S
H71 C103 0.929 . S
H72 C105 0.930 . S
H73 C106 0.930 . S
H74 C104 0.929 . S
H75 C107 0.928 . S
O76 Co60 2.057 . S
O76 C64 1.232 . S
H77 C96 0.929 . S
H78 C97 0.929 . S
H79 C109 0.931 . S
H80 C101 0.929 . S
H81 C110 0.930 . S
H82 C102 0.931 . S
O83 Co59 2.097 . S
O83 C111 1.214 . S
H84 C112 0.929 . S
H85 C113 0.929 . S
H86 C114 0.930 . S
H87 C115 0.929 . S
H88 C117 0.930 . S
H89 C94 0.930 . S
H90 C98 0.930 . S
O91 Co60 2.037 . S
O91 C111 1.234 . S
C92 O66 1.269 . S
C92 O67 1.257 . S
C93 H68 0.930 . S
C93 C96 1.388 . S
C93 C98 1.418 . S
C94 H89 0.930 . S
C94 C97 1.404 . S
C94 C98 1.353 . S
N95 Co60 2.145 . S
N95 C96 1.397 . S
N95 C97 1.334 . S
C96 H77 0.929 . S
C96 C93 1.388 . S
C96 N95 1.397 . S
C97 H78 0.929 . S
C97 C94 1.404 . S
C97 N95 1.334 . S
C98 H90 0.930 . S
C98 C93 1.418 . S
C98 C94 1.353 . S
C99 H69 0.930 . S
C99 N100 1.330 . S
C99 C101 1.446 . S
N100 Co59 2.151 . S
N100 C99 1.330 . S
N100 C104 1.418 . S
C101 H80 0.929 . S
C101 C99 1.446 . S
C101 C102 1.332 . S
C102 H82 0.931 . S
C102 C101 1.332 . S
C102 C103 1.267 . S
C103 H71 0.929 . S
C103 C102 1.267 . S
C103 C104 1.251 . S
C104 H74 0.929 . S
C104 N100 1.418 . S
C104 C103 1.251 . S
C105 H72 0.930 . S
C105 C107 1.406 . S
C105 C110 1.261 . S
C106 H73 0.930 . S
C106 N108 1.325 . S
C106 C109 1.357 . S
C107 H75 0.928 . S
C107 C105 1.406 . S
C107 N108 1.261 . S
N108 Co59 2.214 . S
N108 C106 1.325 . S
N108 C107 1.261 . S
C109 H79 0.931 . S
C109 C106 1.357 . S
C109 C110 1.312 . S
C110 H81 0.930 . S
C110 C105 1.261 . S
C110 C109 1.312 . S
C111 O83 1.214 . S
C111 O91 1.234 . S
C112 H84 0.929 . S
C112 C115 1.391 . S
C112 C117 1.391 . S
C113 H85 0.929 . S
C113 C114 1.390 . S
C113 N116 1.391 . S
C114 H86 0.930 . S
C114 C113 1.390 . S
C114 C115 1.392 . S
C115 H87 0.929 . S
C115 C112 1.391 . S
C115 C114 1.392 . S
N116 Co60 2.257 . S
N116 C113 1.391 . S
N116 C117 1.388 . S
C117 H88 0.930 . S
C117 C112 1.391 . S
C117 N116 1.388 . S
Co118 O120 2.143 1_545 S
Co118 O126 2.074 . S
Co118 O129 2.093 . S
Co118 O142 2.097 . S
Co118 N159 2.151 . S
Co118 N167 2.214 . S
Co119 O120 2.160 . S
Co119 O125 2.058 . S
Co119 O135 2.057 . S
Co119 O150 2.037 1_565 S
Co119 N154 2.145 . S
Co119 N175 2.257 . S
O120 Co118 2.143 1_565 S
O120 Co119 2.160 . S
C121 O122 1.278 . S
C121 O129 1.224 1_565 S
O122 C121 1.278 . S
C123 O124 1.245 . S
C123 O135 1.232 . S
O124 C123 1.245 . S
O125 Co119 2.058 . S
O125 C151 1.269 1_565 S
O126 Co118 2.074 . S
O126 C151 1.257 . S
H127 C152 0.930 . S
H128 C158 0.930 . S
O129 Co118 2.093 . S
O129 C121 1.224 1_545 S
H130 C162 0.929 . S
H131 C164 0.930 . S
H132 C165 0.930 . S
H133 C163 0.929 . S
H134 C166 0.928 . S
O135 Co119 2.057 . S
O135 C123 1.232 . S
H136 C155 0.929 . S
H137 C156 0.929 . S
H138 C168 0.931 . S
H139 C160 0.929 . S
H140 C169 0.930 . S
H141 C161 0.931 . S
O142 Co118 2.097 . S
O142 C170 1.214 . S
H143 C171 0.929 . S
H144 C172 0.929 . S
H145 C173 0.930 . S
H146 C174 0.929 . S
H147 C176 0.930 . S
H148 C153 0.930 . S
H149 C157 0.930 . S
O150 Co119 2.037 1_545 S
O150 C170 1.234 . S
C151 O125 1.269 1_545 S
C151 O126 1.257 . S
C152 H127 0.930 . S
C152 C155 1.388 . S
C152 C157 1.418 . S
C153 H148 0.930 . S
C153 C156 1.404 . S
C153 C157 1.353 . S
N154 Co119 2.145 . S
N154 C155 1.397 . S
N154 C156 1.334 . S
C155 H136 0.929 . S
C155 C152 1.388 . S
C155 N154 1.397 . S
C156 H137 0.929 . S
C156 C153 1.404 . S
C156 N154 1.334 . S
C157 H149 0.930 . S
C157 C152 1.418 . S
C157 C153 1.353 . S
C158 H128 0.930 . S
C158 N159 1.330 1_565 S
C158 C160 1.446 . S
N159 Co118 2.151 . S
N159 C158 1.330 1_545 S
N159 C163 1.418 . S
C160 H139 0.929 . S
C160 C158 1.446 . S
C160 C161 1.332 1_565 S
C161 H141 0.931 . S
C161 C160 1.332 1_545 S
C161 C162 1.267 . S
C162 H130 0.929 . S
C162 C161 1.267 . S
C162 C163 1.251 . S
C163 H133 0.929 . S
C163 N159 1.418 . S
C163 C162 1.251 . S
C164 H131 0.930 . S
C164 C166 1.406 . S
C164 C169 1.261 . S
C165 H132 0.930 . S
C165 N167 1.325 . S
C165 C168 1.357 . S
C166 H134 0.928 . S
C166 C164 1.406 . S
C166 N167 1.261 . S
N167 Co118 2.214 . S
N167 C165 1.325 . S
N167 C166 1.261 . S
C168 H138 0.931 . S
C168 C165 1.357 . S
C168 C169 1.312 . S
C169 H140 0.930 . S
C169 C164 1.261 . S
C169 C168 1.312 . S
C170 O142 1.214 . S
C170 O150 1.234 . S
C171 H143 0.929 . S
C171 C174 1.391 . S
C171 C176 1.391 . S
C172 H144 0.929 . S
C172 C173 1.390 . S
C172 N175 1.391 . S
C173 H145 0.930 . S
C173 C172 1.390 . S
C173 C174 1.392 . S
C174 H146 0.929 . S
C174 C171 1.391 . S
C174 C173 1.392 . S
N175 Co119 2.257 . S
N175 C172 1.391 . S
N175 C176 1.388 . S
C176 H147 0.930 . S
C176 C171 1.391 . S
C176 N175 1.388 . S
Co177 O179 2.143 . S
Co177 O185 2.074 . S
Co177 O188 2.093 . S
Co177 O201 2.097 . S
Co177 N218 2.151 . S
Co177 N226 2.214 . S
Co178 O179 2.160 . S
Co178 O184 2.058 . S
Co178 O194 2.057 . S
Co178 O209 2.037 . S
Co178 N213 2.145 . S
Co178 N234 2.257 . S
O179 Co177 2.143 . S
O179 Co178 2.160 . S
C180 O181 1.278 . S
C180 O188 1.224 . S
O181 C180 1.278 . S
C182 O183 1.245 . S
C182 O194 1.232 . S
O183 C182 1.245 . S
O184 Co178 2.058 . S
O184 C210 1.269 . S
O185 Co177 2.074 . S
O185 C210 1.257 . S
H186 C211 0.930 . S
H187 C217 0.930 . S
O188 Co177 2.093 . S
O188 C180 1.224 . S
H189 C221 0.929 . S
H190 C223 0.930 . S
H191 C224 0.930 . S
H192 C222 0.929 . S
H193 C225 0.928 . S
O194 Co178 2.057 . S
O194 C182 1.232 . S
H195 C214 0.929 . S
H196 C215 0.929 . S
H197 C227 0.931 . S
H198 C219 0.929 . S
H199 C228 0.930 . S
H200 C220 0.931 . S
O201 Co177 2.097 . S
O201 C229 1.214 . S
H202 C230 0.929 . S
H203 C231 0.929 . S
H204 C232 0.930 . S
H205 C233 0.929 . S
H206 C235 0.930 . S
H207 C212 0.930 . S
H208 C216 0.930 . S
O209 Co178 2.037 . S
O209 C229 1.234 . S
C210 O184 1.269 . S
C210 O185 1.257 . S
C211 H186 0.930 . S
C211 C214 1.388 . S
C211 C216 1.418 . S
C212 H207 0.930 . S
C212 C215 1.404 . S
C212 C216 1.353 . S
N213 Co178 2.145 . S
N213 C214 1.397 . S
N213 C215 1.334 . S
C214 H195 0.929 . S
C214 C211 1.388 . S
C214 N213 1.397 . S
C215 H196 0.929 . S
C215 C212 1.404 . S
C215 N213 1.334 . S
C216 H208 0.930 . S
C216 C211 1.418 . S
C216 C212 1.353 . S
C217 H187 0.930 . S
C217 N218 1.330 . S
C217 C219 1.446 . S
N218 Co177 2.151 . S
N218 C217 1.330 . S
N218 C222 1.418 . S
C219 H198 0.929 . S
C219 C217 1.446 . S
C219 C220 1.332 . S
C220 H200 0.931 . S
C220 C219 1.332 . S
C220 C221 1.267 . S
C221 H189 0.929 . S
C221 C220 1.267 . S
C221 C222 1.251 . S
C222 H192 0.929 . S
C222 N218 1.418 . S
C222 C221 1.251 . S
C223 H190 0.930 . S
C223 C225 1.406 . S
C223 C228 1.261 . S
C224 H191 0.930 . S
C224 N226 1.325 . S
C224 C227 1.357 . S
C225 H193 0.928 . S
C225 C223 1.406 . S
C225 N226 1.261 . S
N226 Co177 2.214 . S
N226 C224 1.325 . S
N226 C225 1.261 . S
C227 H197 0.931 . S
C227 C224 1.357 . S
C227 C228 1.312 . S
C228 H199 0.930 . S
C228 C223 1.261 . S
C228 C227 1.312 . S
C229 O201 1.214 . S
C229 O209 1.234 . S
C230 H202 0.929 . S
C230 C233 1.391 . S
C230 C235 1.391 . S
C231 H203 0.929 . S
C231 C232 1.390 . S
C231 N234 1.391 . S
C232 H204 0.930 . S
C232 C231 1.390 . S
C232 C233 1.392 . S
C233 H205 0.929 . S
C233 C230 1.391 . S
C233 C232 1.392 . S
N234 Co178 2.257 . S
N234 C231 1.391 . S
N234 C235 1.388 . S
C235 H206 0.930 . S
C235 C230 1.391 . S
C235 N234 1.388 . S
Co236 O238 2.143 1_645 S
Co236 O244 2.074 . S
Co236 O247 2.093 1_655 S
Co236 O260 2.097 1_655 S
Co236 N277 2.151 . S
Co236 N285 2.214 . S
Co237 O238 2.160 . S
Co237 O243 2.058 1_455 S
Co237 O253 2.057 . S
Co237 O268 2.037 1_565 S
Co237 N272 2.145 . S
Co237 N293 2.257 . S
O238 Co236 2.143 1_465 S
O238 Co237 2.160 . S
C239 O240 1.278 . S
C239 O247 1.224 1_565 S
O240 C239 1.278 . S
C241 O242 1.245 . S
C241 O253 1.232 1_655 S
O242 C241 1.245 . S
O243 Co237 2.058 1_655 S
O243 C269 1.269 1_565 S
O244 Co236 2.074 . S
O244 C269 1.257 . S
H245 C270 0.930 . S
H246 C276 0.930 . S
O247 Co236 2.093 1_455 S
O247 C239 1.224 1_545 S
H248 C280 0.929 . S
H249 C282 0.930 . S
H250 C283 0.930 . S
H251 C281 0.929 . S
H252 C284 0.928 . S
O253 Co237 2.057 . S
O253 C241 1.232 1_455 S
H254 C273 0.929 . S
H255 C274 0.929 . S
H256 C286 0.931 . S
H257 C278 0.929 . S
H258 C287 0.930 . S
H259 C279 0.931 . S
O260 Co236 2.097 1_455 S
O260 C288 1.214 . S
H261 C289 0.929 . S
H262 C290 0.929 . S
H263 C291 0.930 . S
H264 C292 0.929 . S
H265 C294 0.930 . S
H266 C271 0.930 . S
H267 C275 0.930 . S
O268 Co237 2.037 1_545 S
O268 C288 1.234 . S
C269 O243 1.269 1_545 S
C269 O244 1.257 . S
C270 H245 0.930 . S
C270 C273 1.388 . S
C270 C275 1.418 . S
C271 H266 0.930 . S
C271 C274 1.404 . S
C271 C275 1.353 . S
N272 Co237 2.145 . S
N272 C273 1.397 . S
N272 C274 1.334 . S
C273 H254 0.929 . S
C273 C270 1.388 . S
C273 N272 1.397 . S
C274 H255 0.929 . S
C274 C271 1.404 . S
C274 N272 1.334 . S
C275 H267 0.930 . S
C275 C270 1.418 . S
C275 C271 1.353 . S
C276 H246 0.930 . S
C276 N277 1.330 1_565 S
C276 C278 1.446 . S
N277 Co236 2.151 . S
N277 C276 1.330 1_545 S
N277 C281 1.418 . S
C278 H257 0.929 . S
C278 C276 1.446 . S
C278 C279 1.332 1_565 S
C279 H259 0.931 . S
C279 C278 1.332 1_545 S
C279 C280 1.267 . S
C280 H248 0.929 . S
C280 C279 1.267 . S
C280 C281 1.251 . S
C281 H251 0.929 . S
C281 N277 1.418 . S
C281 C280 1.251 . S
C282 H249 0.930 . S
C282 C284 1.406 . S
C282 C287 1.261 . S
C283 H250 0.930 . S
C283 N285 1.325 . S
C283 C286 1.357 . S
C284 H252 0.928 . S
C284 C282 1.406 . S
C284 N285 1.261 . S
N285 Co236 2.214 . S
N285 C283 1.325 . S
N285 C284 1.261 . S
C286 H256 0.931 . S
C286 C283 1.357 . S
C286 C287 1.312 . S
C287 H258 0.930 . S
C287 C282 1.261 . S
C287 C286 1.312 . S
C288 O260 1.214 . S
C288 O268 1.234 . S
C289 H261 0.929 . S
C289 C292 1.391 . S
C289 C294 1.391 . S
C290 H262 0.929 . S
C290 C291 1.390 . S
C290 N293 1.391 . S
C291 H263 0.930 . S
C291 C290 1.390 . S
C291 C292 1.392 . S
C292 H264 0.929 . S
C292 C289 1.391 . S
C292 C291 1.392 . S
N293 Co237 2.257 . S
N293 C290 1.391 . S
N293 C294 1.388 . S
C294 H265 0.930 . S
C294 C289 1.391 . S
C294 N293 1.388 . S
Co295 O297 2.143 . S
Co295 O303 2.074 . S
Co295 O306 2.093 . S
Co295 O319 2.097 . S
Co295 N336 2.151 . S
Co295 N344 2.214 . S
Co296 O297 2.160 . S
Co296 O302 2.058 . S
Co296 O312 2.057 . S
Co296 O327 2.037 . S
Co296 N331 2.145 . S
Co296 N352 2.257 . S
O297 Co295 2.143 . S
O297 Co296 2.160 . S
C298 O299 1.278 . S
C298 O306 1.224 . S
O299 C298 1.278 . S
C300 O301 1.245 . S
C300 O312 1.232 . S
O301 C300 1.245 . S
O302 Co296 2.058 . S
O302 C328 1.269 . S
O303 Co295 2.074 . S
O303 C328 1.257 . S
H304 C329 0.930 . S
H305 C335 0.930 . S
O306 Co295 2.093 . S
O306 C298 1.224 . S
H307 C339 0.929 . S
H308 C341 0.930 . S
H309 C342 0.930 . S
H310 C340 0.929 . S
H311 C343 0.928 . S
O312 Co296 2.057 . S
O312 C300 1.232 . S
H313 C332 0.929 . S
H314 C333 0.929 . S
H315 C345 0.931 . S
H316 C337 0.929 . S
H317 C346 0.930 . S
H318 C338 0.931 . S
O319 Co295 2.097 . S
O319 C347 1.214 . S
H320 C348 0.929 . S
H321 C349 0.929 . S
H322 C350 0.930 . S
H323 C351 0.929 . S
H324 C353 0.930 . S
H325 C330 0.930 . S
H326 C334 0.930 . S
O327 Co296 2.037 . S
O327 C347 1.234 . S
C328 O302 1.269 . S
C328 O303 1.257 . S
C329 H304 0.930 . S
C329 C332 1.388 . S
C329 C334 1.418 . S
C330 H325 0.930 . S
C330 C333 1.404 . S
C330 C334 1.353 . S
N331 Co296 2.145 . S
N331 C332 1.397 . S
N331 C333 1.334 . S
C332 H313 0.929 . S
C332 C329 1.388 . S
C332 N331 1.397 . S
C333 H314 0.929 . S
C333 C330 1.404 . S
C333 N331 1.334 . S
C334 H326 0.930 . S
C334 C329 1.418 . S
C334 C330 1.353 . S
C335 H305 0.930 . S
C335 N336 1.330 . S
C335 C337 1.446 . S
N336 Co295 2.151 . S
N336 C335 1.330 . S
N336 C340 1.418 . S
C337 H316 0.929 . S
C337 C335 1.446 . S
C337 C338 1.332 . S
C338 H318 0.931 . S
C338 C337 1.332 . S
C338 C339 1.267 . S
C339 H307 0.929 . S
C339 C338 1.267 . S
C339 C340 1.251 . S
C340 H310 0.929 . S
C340 N336 1.418 . S
C340 C339 1.251 . S
C341 H308 0.930 . S
C341 C343 1.406 . S
C341 C346 1.261 . S
C342 H309 0.930 . S
C342 N344 1.325 . S
C342 C345 1.357 . S
C343 H311 0.928 . S
C343 C341 1.406 . S
C343 N344 1.261 . S
N344 Co295 2.214 . S
N344 C342 1.325 . S
N344 C343 1.261 . S
C345 H315 0.931 . S
C345 C342 1.357 . S
C345 C346 1.312 . S
C346 H317 0.930 . S
C346 C341 1.261 . S
C346 C345 1.312 . S
C347 O319 1.214 . S
C347 O327 1.234 . S
C348 H320 0.929 . S
C348 C351 1.391 . S
C348 C353 1.391 . S
C349 H321 0.929 . S
C349 C350 1.390 . S
C349 N352 1.391 . S
C350 H322 0.930 . S
C350 C349 1.390 . S
C350 C351 1.392 . S
C351 H323 0.929 . S
C351 C348 1.391 . S
C351 C350 1.392 . S
N352 Co296 2.257 . S
N352 C349 1.391 . S
N352 C353 1.388 . S
C353 H324 0.930 . S
C353 C348 1.391 . S
C353 N352 1.388 . S
Co354 O356 2.143 1_565 S
Co354 O362 2.074 . S
Co354 O365 2.093 . S
Co354 O378 2.097 . S
Co354 N395 2.151 . S
Co354 N403 2.214 . S
Co355 O356 2.160 . S
Co355 O361 2.058 . S
Co355 O371 2.057 . S
Co355 O386 2.037 1_545 S
Co355 N390 2.145 . S
Co355 N411 2.257 . S
O356 Co354 2.143 1_545 S
O356 Co355 2.160 . S
C357 O358 1.278 . S
C357 O365 1.224 1_545 S
O358 C357 1.278 . S
C359 O360 1.245 . S
C359 O371 1.232 . S
O360 C359 1.245 . S
O361 Co355 2.058 . S
O361 C387 1.269 1_545 S
O362 Co354 2.074 . S
O362 C387 1.257 . S
H363 C388 0.930 . S
H364 C394 0.930 . S
O365 Co354 2.093 . S
O365 C357 1.224 1_565 S
H366 C398 0.929 . S
H367 C400 0.930 . S
H368 C401 0.930 . S
H369 C399 0.929 . S
H370 C402 0.928 . S
O371 Co355 2.057 . S
O371 C359 1.232 . S
H372 C391 0.929 . S
H373 C392 0.929 . S
H374 C404 0.931 . S
H375 C396 0.929 . S
H376 C405 0.930 . S
H377 C397 0.931 . S
O378 Co354 2.097 . S
O378 C406 1.214 . S
H379 C407 0.929 . S
H380 C408 0.929 . S
H381 C409 0.930 . S
H382 C410 0.929 . S
H383 C412 0.930 . S
H384 C389 0.930 . S
H385 C393 0.930 . S
O386 Co355 2.037 1_565 S
O386 C406 1.234 . S
C387 O361 1.269 1_565 S
C387 O362 1.257 . S
C388 H363 0.930 . S
C388 C391 1.388 . S
C388 C393 1.418 . S
C389 H384 0.930 . S
C389 C392 1.404 . S
C389 C393 1.353 . S
N390 Co355 2.145 . S
N390 C391 1.397 . S
N390 C392 1.334 . S
C391 H372 0.929 . S
C391 C388 1.388 . S
C391 N390 1.397 . S
C392 H373 0.929 . S
C392 C389 1.404 . S
C392 N390 1.334 . S
C393 H385 0.930 . S
C393 C388 1.418 . S
C393 C389 1.353 . S
C394 H364 0.930 . S
C394 N395 1.330 1_545 S
C394 C396 1.446 . S
N395 Co354 2.151 . S
N395 C394 1.330 1_565 S
N395 C399 1.418 . S
C396 H375 0.929 . S
C396 C394 1.446 . S
C396 C397 1.332 1_545 S
C397 H377 0.931 . S
C397 C396 1.332 1_565 S
C397 C398 1.267 . S
C398 H366 0.929 . S
C398 C397 1.267 . S
C398 C399 1.251 . S
C399 H369 0.929 . S
C399 N395 1.418 . S
C399 C398 1.251 . S
C400 H367 0.930 . S
C400 C402 1.406 . S
C400 C405 1.261 . S
C401 H368 0.930 . S
C401 N403 1.325 . S
C401 C404 1.357 . S
C402 H370 0.928 . S
C402 C400 1.406 . S
C402 N403 1.261 . S
N403 Co354 2.214 . S
N403 C401 1.325 . S
N403 C402 1.261 . S
C404 H374 0.931 . S
C404 C401 1.357 . S
C404 C405 1.312 . S
C405 H376 0.930 . S
C405 C400 1.261 . S
C405 C404 1.312 . S
C406 O378 1.214 . S
C406 O386 1.234 . S
C407 H379 0.929 . S
C407 C410 1.391 . S
C407 C412 1.391 . S
C408 H380 0.929 . S
C408 C409 1.390 . S
C408 N411 1.391 . S
C409 H381 0.930 . S
C409 C408 1.390 . S
C409 C410 1.392 . S
C410 H382 0.929 . S
C410 C407 1.391 . S
C410 C409 1.392 . S
N411 Co355 2.257 . S
N411 C408 1.391 . S
N411 C412 1.388 . S
C412 H383 0.930 . S
C412 C407 1.391 . S
C412 N411 1.388 . S
Co413 O415 2.143 . S
Co413 O421 2.074 . S
Co413 O424 2.093 . S
Co413 O437 2.097 . S
Co413 N454 2.151 . S
Co413 N462 2.214 . S
Co414 O415 2.160 . S
Co414 O420 2.058 . S
Co414 O430 2.057 . S
Co414 O445 2.037 . S
Co414 N449 2.145 . S
Co414 N470 2.257 . S
O415 Co413 2.143 . S
O415 Co414 2.160 . S
C416 O417 1.278 . S
C416 O424 1.224 . S
O417 C416 1.278 . S
C418 O419 1.245 . S
C418 O430 1.232 . S
O419 C418 1.245 . S
O420 Co414 2.058 . S
O420 C446 1.269 . S
O421 Co413 2.074 . S
O421 C446 1.257 . S
H422 C447 0.930 . S
H423 C453 0.930 . S
O424 Co413 2.093 . S
O424 C416 1.224 . S
H425 C457 0.929 . S
H426 C459 0.930 . S
H427 C460 0.930 . S
H428 C458 0.929 . S
H429 C461 0.928 . S
O430 Co414 2.057 . S
O430 C418 1.232 . S
H431 C450 0.929 . S
H432 C451 0.929 . S
H433 C463 0.931 . S
H434 C455 0.929 . S
H435 C464 0.930 . S
H436 C456 0.931 . S
O437 Co413 2.097 . S
O437 C465 1.214 . S
H438 C466 0.929 . S
H439 C467 0.929 . S
H440 C468 0.930 . S
H441 C469 0.929 . S
H442 C471 0.930 . S
H443 C448 0.930 . S
H444 C452 0.930 . S
O445 Co414 2.037 . S
O445 C465 1.234 . S
C446 O420 1.269 . S
C446 O421 1.257 . S
C447 H422 0.930 . S
C447 C450 1.388 . S
C447 C452 1.418 . S
C448 H443 0.930 . S
C448 C451 1.404 . S
C448 C452 1.353 . S
N449 Co414 2.145 . S
N449 C450 1.397 . S
N449 C451 1.334 . S
C450 H431 0.929 . S
C450 C447 1.388 . S
C450 N449 1.397 . S
C451 H432 0.929 . S
C451 C448 1.404 . S
C451 N449 1.334 . S
C452 H444 0.930 . S
C452 C447 1.418 . S
C452 C448 1.353 . S
C453 H423 0.930 . S
C453 N454 1.330 . S
C453 C455 1.446 . S
N454 Co413 2.151 . S
N454 C453 1.330 . S
N454 C458 1.418 . S
C455 H434 0.929 . S
C455 C453 1.446 . S
C455 C456 1.332 . S
C456 H436 0.931 . S
C456 C455 1.332 . S
C456 C457 1.267 . S
C457 H425 0.929 . S
C457 C456 1.267 . S
C457 C458 1.251 . S
C458 H428 0.929 . S
C458 N454 1.418 . S
C458 C457 1.251 . S
C459 H426 0.930 . S
C459 C461 1.406 . S
C459 C464 1.261 . S
C460 H427 0.930 . S
C460 N462 1.325 . S
C460 C463 1.357 . S
C461 H429 0.928 . S
C461 C459 1.406 . S
C461 N462 1.261 . S
N462 Co413 2.214 . S
N462 C460 1.325 . S
N462 C461 1.261 . S
C463 H433 0.931 . S
C463 C460 1.357 . S
C463 C464 1.312 . S
C464 H435 0.930 . S
C464 C459 1.261 . S
C464 C463 1.312 . S
C465 O437 1.214 . S
C465 O445 1.234 . S
C466 H438 0.929 . S
C466 C469 1.391 . S
C466 C471 1.391 . S
C467 H439 0.929 . S
C467 C468 1.390 . S
C467 N470 1.391 . S
C468 H440 0.930 . S
C468 C467 1.390 . S
C468 C469 1.392 . S
C469 H441 0.929 . S
C469 C466 1.391 . S
C469 C468 1.392 . S
N470 Co414 2.257 . S
N470 C467 1.391 . S
N470 C471 1.388 . S
C471 H442 0.930 . S
C471 C466 1.391 . S
C471 N470 1.388 . S
Co472 O474 2.143 . S
Co472 O480 2.074 . S
Co472 O483 2.093 . S
Co472 O496 2.097 . S
Co472 N513 2.151 . S
Co472 N521 2.214 . S
Co473 O474 2.160 . S
Co473 O479 2.058 . S
Co473 O489 2.057 . S
Co473 O504 2.037 . S
Co473 N508 2.145 . S
Co473 N529 2.257 . S
O474 Co472 2.143 . S
O474 Co473 2.160 . S
C475 O476 1.278 . S
C475 O483 1.224 . S
O476 C475 1.278 . S
C477 O478 1.245 . S
C477 O489 1.232 . S
O478 C477 1.245 . S
O479 Co473 2.058 . S
O479 C505 1.269 . S
O480 Co472 2.074 . S
O480 C505 1.257 . S
H481 C506 0.930 . S
H482 C512 0.930 . S
O483 Co472 2.093 . S
O483 C475 1.224 . S
H484 C516 0.929 . S
H485 C518 0.930 . S
H486 C519 0.930 . S
H487 C517 0.929 . S
H488 C520 0.928 . S
O489 Co473 2.057 . S
O489 C477 1.232 . S
H490 C509 0.929 . S
H491 C510 0.929 . S
H492 C522 0.931 . S
H493 C514 0.929 . S
H494 C523 0.930 . S
H495 C515 0.931 . S
O496 Co472 2.097 . S
O496 C524 1.214 . S
H497 C525 0.929 . S
H498 C526 0.929 . S
H499 C527 0.930 . S
H500 C528 0.929 . S
H501 C530 0.930 . S
H502 C507 0.930 . S
H503 C511 0.930 . S
O504 Co473 2.037 . S
O504 C524 1.234 . S
C505 O479 1.269 . S
C505 O480 1.257 . S
C506 H481 0.930 . S
C506 C509 1.388 . S
C506 C511 1.418 . S
C507 H502 0.930 . S
C507 C510 1.404 . S
C507 C511 1.353 . S
N508 Co473 2.145 . S
N508 C509 1.397 . S
N508 C510 1.334 . S
C509 H490 0.929 . S
C509 C506 1.388 . S
C509 N508 1.397 . S
C510 H491 0.929 . S
C510 C507 1.404 . S
C510 N508 1.334 . S
C511 H503 0.930 . S
C511 C506 1.418 . S
C511 C507 1.353 . S
C512 H482 0.930 . S
C512 N513 1.330 . S
C512 C514 1.446 . S
N513 Co472 2.151 . S
N513 C512 1.330 . S
N513 C517 1.418 . S
C514 H493 0.929 . S
C514 C512 1.446 . S
C514 C515 1.332 . S
C515 H495 0.931 . S
C515 C514 1.332 . S
C515 C516 1.267 . S
C516 H484 0.929 . S
C516 C515 1.267 . S
C516 C517 1.251 . S
C517 H487 0.929 . S
C517 N513 1.418 . S
C517 C516 1.251 . S
C518 H485 0.930 . S
C518 C520 1.406 . S
C518 C523 1.261 . S
C519 H486 0.930 . S
C519 N521 1.325 . S
C519 C522 1.357 . S
C520 H488 0.928 . S
C520 C518 1.406 . S
C520 N521 1.261 . S
N521 Co472 2.214 . S
N521 C519 1.325 . S
N521 C520 1.261 . S
C522 H492 0.931 . S
C522 C519 1.357 . S
C522 C523 1.312 . S
C523 H494 0.930 . S
C523 C518 1.261 . S
C523 C522 1.312 . S
C524 O496 1.214 . S
C524 O504 1.234 . S
C525 H497 0.929 . S
C525 C528 1.391 . S
C525 C530 1.391 . S
C526 H498 0.929 . S
C526 C527 1.390 . S
C526 N529 1.391 . S
C527 H499 0.930 . S
C527 C526 1.390 . S
C527 C528 1.392 . S
C528 H500 0.929 . S
C528 C525 1.391 . S
C528 C527 1.392 . S
N529 Co473 2.257 . S
N529 C526 1.391 . S
N529 C530 1.388 . S
C530 H501 0.930 . S
C530 C525 1.391 . S
C530 N529 1.388 . S
Co531 O533 2.143 . S
Co531 O539 2.074 . S
Co531 O542 2.093 . S
Co531 O555 2.097 . S
Co531 N572 2.151 . S
Co531 N580 2.214 . S
Co532 O533 2.160 . S
Co532 O538 2.058 . S
Co532 O548 2.057 . S
Co532 O563 2.037 . S
Co532 N567 2.145 . S
Co532 N588 2.257 . S
O533 Co531 2.143 . S
O533 Co532 2.160 . S
C534 O535 1.278 . S
C534 O542 1.224 . S
O535 C534 1.278 . S
C536 O537 1.245 . S
C536 O548 1.232 . S
O537 C536 1.245 . S
O538 Co532 2.058 . S
O538 C564 1.269 . S
O539 Co531 2.074 . S
O539 C564 1.257 . S
H540 C565 0.930 . S
H541 C571 0.930 . S
O542 Co531 2.093 . S
O542 C534 1.224 . S
H543 C575 0.929 . S
H544 C577 0.930 . S
H545 C578 0.930 . S
H546 C576 0.929 . S
H547 C579 0.928 . S
O548 Co532 2.057 . S
O548 C536 1.232 . S
H549 C568 0.929 . S
H550 C569 0.929 . S
H551 C581 0.931 . S
H552 C573 0.929 . S
H553 C582 0.930 . S
H554 C574 0.931 . S
O555 Co531 2.097 . S
O555 C583 1.214 . S
H556 C584 0.929 . S
H557 C585 0.929 . S
H558 C586 0.930 . S
H559 C587 0.929 . S
H560 C589 0.930 . S
H561 C566 0.930 . S
H562 C570 0.930 . S
O563 Co532 2.037 . S
O563 C583 1.234 . S
C564 O538 1.269 . S
C564 O539 1.257 . S
C565 H540 0.930 . S
C565 C568 1.388 . S
C565 C570 1.418 . S
C566 H561 0.930 . S
C566 C569 1.404 . S
C566 C570 1.353 . S
N567 Co532 2.145 . S
N567 C568 1.397 . S
N567 C569 1.334 . S
C568 H549 0.929 . S
C568 C565 1.388 . S
C568 N567 1.397 . S
C569 H550 0.929 . S
C569 C566 1.404 . S
C569 N567 1.334 . S
C570 H562 0.930 . S
C570 C565 1.418 . S
C570 C566 1.353 . S
C571 H541 0.930 . S
C571 N572 1.330 . S
C571 C573 1.446 . S
N572 Co531 2.151 . S
N572 C571 1.330 . S
N572 C576 1.418 . S
C573 H552 0.929 . S
C573 C571 1.446 . S
C573 C574 1.332 . S
C574 H554 0.931 . S
C574 C573 1.332 . S
C574 C575 1.267 . S
C575 H543 0.929 . S
C575 C574 1.267 . S
C575 C576 1.251 . S
C576 H546 0.929 . S
C576 N572 1.418 . S
C576 C575 1.251 . S
C577 H544 0.930 . S
C577 C579 1.406 . S
C577 C582 1.261 . S
C578 H545 0.930 . S
C578 N580 1.325 . S
C578 C581 1.357 . S
C579 H547 0.928 . S
C579 C577 1.406 . S
C579 N580 1.261 . S
N580 Co531 2.214 . S
N580 C578 1.325 . S
N580 C579 1.261 . S
C581 H551 0.931 . S
C581 C578 1.357 . S
C581 C582 1.312 . S
C582 H553 0.930 . S
C582 C577 1.261 . S
C582 C581 1.312 . S
C583 O555 1.214 . S
C583 O563 1.234 . S
C584 H556 0.929 . S
C584 C587 1.391 . S
C584 C589 1.391 . S
C585 H557 0.929 . S
C585 C586 1.390 . S
C585 N588 1.391 . S
C586 H558 0.930 . S
C586 C585 1.390 . S
C586 C587 1.392 . S
C587 H559 0.929 . S
C587 C584 1.391 . S
C587 C586 1.392 . S
N588 Co532 2.257 . S
N588 C585 1.391 . S
N588 C589 1.388 . S
C589 H560 0.930 . S
C589 C584 1.391 . S
C589 N588 1.388 . S
Co590 O592 2.143 . S
Co590 O598 2.074 . S
Co590 O601 2.093 . S
Co590 O614 2.097 . S
Co590 N631 2.151 . S
Co590 N639 2.214 . S
Co591 O592 2.160 . S
Co591 O597 2.058 . S
Co591 O607 2.057 . S
Co591 O622 2.037 . S
Co591 N626 2.145 . S
Co591 N647 2.257 . S
O592 Co590 2.143 . S
O592 Co591 2.160 . S
C593 O594 1.278 . S
C593 O601 1.224 . S
O594 C593 1.278 . S
C595 O596 1.245 . S
C595 O607 1.232 . S
O596 C595 1.245 . S
O597 Co591 2.058 . S
O597 C623 1.269 . S
O598 Co590 2.074 . S
O598 C623 1.257 . S
H599 C624 0.930 . S
H600 C630 0.930 . S
O601 Co590 2.093 . S
O601 C593 1.224 . S
H602 C634 0.929 . S
H603 C636 0.930 . S
H604 C637 0.930 . S
H605 C635 0.929 . S
H606 C638 0.928 . S
O607 Co591 2.057 . S
O607 C595 1.232 . S
H608 C627 0.929 . S
H609 C628 0.929 . S
H610 C640 0.931 . S
H611 C632 0.929 . S
H612 C641 0.930 . S
H613 C633 0.931 . S
O614 Co590 2.097 . S
O614 C642 1.214 . S
H615 C643 0.929 . S
H616 C644 0.929 . S
H617 C645 0.930 . S
H618 C646 0.929 . S
H619 C648 0.930 . S
H620 C625 0.930 . S
H621 C629 0.930 . S
O622 Co591 2.037 . S
O622 C642 1.234 . S
C623 O597 1.269 . S
C623 O598 1.257 . S
C624 H599 0.930 . S
C624 C627 1.388 . S
C624 C629 1.418 . S
C625 H620 0.930 . S
C625 C628 1.404 . S
C625 C629 1.353 . S
N626 Co591 2.145 . S
N626 C627 1.397 . S
N626 C628 1.334 . S
C627 H608 0.929 . S
C627 C624 1.388 . S
C627 N626 1.397 . S
C628 H609 0.929 . S
C628 C625 1.404 . S
C628 N626 1.334 . S
C629 H621 0.930 . S
C629 C624 1.418 . S
C629 C625 1.353 . S
C630 H600 0.930 . S
C630 N631 1.330 . S
C630 C632 1.446 . S
N631 Co590 2.151 . S
N631 C630 1.330 . S
N631 C635 1.418 . S
C632 H611 0.929 . S
C632 C630 1.446 . S
C632 C633 1.332 . S
C633 H613 0.931 . S
C633 C632 1.332 . S
C633 C634 1.267 . S
C634 H602 0.929 . S
C634 C633 1.267 . S
C634 C635 1.251 . S
C635 H605 0.929 . S
C635 N631 1.418 . S
C635 C634 1.251 . S
C636 H603 0.930 . S
C636 C638 1.406 . S
C636 C641 1.261 . S
C637 H604 0.930 . S
C637 N639 1.325 . S
C637 C640 1.357 . S
C638 H606 0.928 . S
C638 C636 1.406 . S
C638 N639 1.261 . S
N639 Co590 2.214 . S
N639 C637 1.325 . S
N639 C638 1.261 . S
C640 H610 0.931 . S
C640 C637 1.357 . S
C640 C641 1.312 . S
C641 H612 0.930 . S
C641 C636 1.261 . S
C641 C640 1.312 . S
C642 O614 1.214 . S
C642 O622 1.234 . S
C643 H615 0.929 . S
C643 C646 1.391 . S
C643 C648 1.391 . S
C644 H616 0.929 . S
C644 C645 1.390 . S
C644 N647 1.391 . S
C645 H617 0.930 . S
C645 C644 1.390 . S
C645 C646 1.392 . S
C646 H618 0.929 . S
C646 C643 1.391 . S
C646 C645 1.392 . S
N647 Co591 2.257 . S
N647 C644 1.391 . S
N647 C648 1.388 . S
C648 H619 0.930 . S
C648 C643 1.391 . S
C648 N647 1.388 . S
Co649 O651 2.143 . S
Co649 O657 2.074 . S
Co649 O660 2.093 . S
Co649 O673 2.097 . S
Co649 N690 2.151 . S
Co649 N698 2.214 . S
Co650 O651 2.160 . S
Co650 O656 2.058 . S
Co650 O666 2.057 . S
Co650 O681 2.037 . S
Co650 N685 2.145 . S
Co650 N706 2.257 . S
O651 Co649 2.143 . S
O651 Co650 2.160 . S
C652 O653 1.278 . S
C652 O660 1.224 . S
O653 C652 1.278 . S
C654 O655 1.245 . S
C654 O666 1.232 . S
O655 C654 1.245 . S
O656 Co650 2.058 . S
O656 C682 1.269 . S
O657 Co649 2.074 . S
O657 C682 1.257 . S
H658 C683 0.930 . S
H659 C689 0.930 . S
O660 Co649 2.093 . S
O660 C652 1.224 . S
H661 C693 0.929 . S
H662 C695 0.930 . S
H663 C696 0.930 . S
H664 C694 0.929 . S
H665 C697 0.928 . S
O666 Co650 2.057 . S
O666 C654 1.232 . S
H667 C686 0.929 . S
H668 C687 0.929 . S
H669 C699 0.931 . S
H670 C691 0.929 . S
H671 C700 0.930 . S
H672 C692 0.931 . S
O673 Co649 2.097 . S
O673 C701 1.214 . S
H674 C702 0.929 . S
H675 C703 0.929 . S
H676 C704 0.930 . S
H677 C705 0.929 . S
H678 C707 0.930 . S
H679 C684 0.930 . S
H680 C688 0.930 . S
O681 Co650 2.037 . S
O681 C701 1.234 . S
C682 O656 1.269 . S
C682 O657 1.257 . S
C683 H658 0.930 . S
C683 C686 1.388 . S
C683 C688 1.418 . S
C684 H679 0.930 . S
C684 C687 1.404 . S
C684 C688 1.353 . S
N685 Co650 2.145 . S
N685 C686 1.397 . S
N685 C687 1.334 . S
C686 H667 0.929 . S
C686 C683 1.388 . S
C686 N685 1.397 . S
C687 H668 0.929 . S
C687 C684 1.404 . S
C687 N685 1.334 . S
C688 H680 0.930 . S
C688 C683 1.418 . S
C688 C684 1.353 . S
C689 H659 0.930 . S
C689 N690 1.330 . S
C689 C691 1.446 . S
N690 Co649 2.151 . S
N690 C689 1.330 . S
N690 C694 1.418 . S
C691 H670 0.929 . S
C691 C689 1.446 . S
C691 C692 1.332 . S
C692 H672 0.931 . S
C692 C691 1.332 . S
C692 C693 1.267 . S
C693 H661 0.929 . S
C693 C692 1.267 . S
C693 C694 1.251 . S
C694 H664 0.929 . S
C694 N690 1.418 . S
C694 C693 1.251 . S
C695 H662 0.930 . S
C695 C697 1.406 . S
C695 C700 1.261 . S
C696 H663 0.930 . S
C696 N698 1.325 . S
C696 C699 1.357 . S
C697 H665 0.928 . S
C697 C695 1.406 . S
C697 N698 1.261 . S
N698 Co649 2.214 . S
N698 C696 1.325 . S
N698 C697 1.261 . S
C699 H669 0.931 . S
C699 C696 1.357 . S
C699 C700 1.312 . S
C700 H671 0.930 . S
C700 C695 1.261 . S
C700 C699 1.312 . S
C701 O673 1.214 . S
C701 O681 1.234 . S
C702 H674 0.929 . S
C702 C705 1.391 . S
C702 C707 1.391 . S
C703 H675 0.929 . S
C703 C704 1.390 . S
C703 N706 1.391 . S
C704 H676 0.930 . S
C704 C703 1.390 . S
C704 C705 1.392 . S
C705 H677 0.929 . S
C705 C702 1.391 . S
C705 C704 1.392 . S
N706 Co650 2.257 . S
N706 C703 1.391 . S
N706 C707 1.388 . S
C707 H678 0.930 . S
C707 C702 1.391 . S
C707 N706 1.388 . S
Co708 O710 2.143 . S
Co708 O716 2.074 . S
Co708 O719 2.093 . S
Co708 O732 2.097 . S
Co708 N749 2.151 . S
Co708 N757 2.214 . S
Co709 O710 2.160 . S
Co709 O715 2.058 . S
Co709 O725 2.057 . S
Co709 O740 2.037 . S
Co709 N744 2.145 . S
Co709 N765 2.257 . S
O710 Co708 2.143 . S
O710 Co709 2.160 . S
C711 O712 1.278 . S
C711 O719 1.224 . S
O712 C711 1.278 . S
C713 O714 1.245 . S
C713 O725 1.232 . S
O714 C713 1.245 . S
O715 Co709 2.058 . S
O715 C741 1.269 . S
O716 Co708 2.074 . S
O716 C741 1.257 . S
H717 C742 0.930 . S
H718 C748 0.930 . S
O719 Co708 2.093 . S
O719 C711 1.224 . S
H720 C752 0.929 . S
H721 C754 0.930 . S
H722 C755 0.930 . S
H723 C753 0.929 . S
H724 C756 0.928 . S
O725 Co709 2.057 . S
O725 C713 1.232 . S
H726 C745 0.929 . S
H727 C746 0.929 . S
H728 C758 0.931 . S
H729 C750 0.929 . S
H730 C759 0.930 . S
H731 C751 0.931 . S
O732 Co708 2.097 . S
O732 C760 1.214 . S
H733 C761 0.929 . S
H734 C762 0.929 . S
H735 C763 0.930 . S
H736 C764 0.929 . S
H737 C766 0.930 . S
H738 C743 0.930 . S
H739 C747 0.930 . S
O740 Co709 2.037 . S
O740 C760 1.234 . S
C741 O715 1.269 . S
C741 O716 1.257 . S
C742 H717 0.930 . S
C742 C745 1.388 . S
C742 C747 1.418 . S
C743 H738 0.930 . S
C743 C746 1.404 . S
C743 C747 1.353 . S
N744 Co709 2.145 . S
N744 C745 1.397 . S
N744 C746 1.334 . S
C745 H726 0.929 . S
C745 C742 1.388 . S
C745 N744 1.397 . S
C746 H727 0.929 . S
C746 C743 1.404 . S
C746 N744 1.334 . S
C747 H739 0.930 . S
C747 C742 1.418 . S
C747 C743 1.353 . S
C748 H718 0.930 . S
C748 N749 1.330 . S
C748 C750 1.446 . S
N749 Co708 2.151 . S
N749 C748 1.330 . S
N749 C753 1.418 . S
C750 H729 0.929 . S
C750 C748 1.446 . S
C750 C751 1.332 . S
C751 H731 0.931 . S
C751 C750 1.332 . S
C751 C752 1.267 . S
C752 H720 0.929 . S
C752 C751 1.267 . S
C752 C753 1.251 . S
C753 H723 0.929 . S
C753 N749 1.418 . S
C753 C752 1.251 . S
C754 H721 0.930 . S
C754 C756 1.406 . S
C754 C759 1.261 . S
C755 H722 0.930 . S
C755 N757 1.325 . S
C755 C758 1.357 . S
C756 H724 0.928 . S
C756 C754 1.406 . S
C756 N757 1.261 . S
N757 Co708 2.214 . S
N757 C755 1.325 . S
N757 C756 1.261 . S
C758 H728 0.931 . S
C758 C755 1.357 . S
C758 C759 1.312 . S
C759 H730 0.930 . S
C759 C754 1.261 . S
C759 C758 1.312 . S
C760 O732 1.214 . S
C760 O740 1.234 . S
C761 H733 0.929 . S
C761 C764 1.391 . S
C761 C766 1.391 . S
C762 H734 0.929 . S
C762 C763 1.390 . S
C762 N765 1.391 . S
C763 H735 0.930 . S
C763 C762 1.390 . S
C763 C764 1.392 . S
C764 H736 0.929 . S
C764 C761 1.391 . S
C764 C763 1.392 . S
N765 Co709 2.257 . S
N765 C762 1.391 . S
N765 C766 1.388 . S
C766 H737 0.930 . S
C766 C761 1.391 . S
C766 N765 1.388 . S
Co767 O769 2.143 . S
Co767 O775 2.074 . S
Co767 O778 2.093 1_455 S
Co767 O791 2.097 1_455 S
Co767 N808 2.151 . S
Co767 N816 2.214 . S
Co768 O769 2.160 1_655 S
Co768 O774 2.058 1_655 S
Co768 O784 2.057 1_655 S
Co768 O799 2.037 . S
Co768 N803 2.145 . S
Co768 N824 2.257 . S
O769 Co767 2.143 . S
O769 Co768 2.160 1_455 S
C770 O771 1.278 . S
C770 O778 1.224 . S
O771 C770 1.278 . S
C772 O773 1.245 . S
C772 O784 1.232 . S
O773 C772 1.245 . S
O774 Co768 2.058 1_455 S
O774 C800 1.269 . S
O775 Co767 2.074 . S
O775 C800 1.257 . S
H776 C801 0.930 . S
H777 C807 0.930 . S
O778 Co767 2.093 1_655 S
O778 C770 1.224 . S
H779 C811 0.929 . S
H780 C813 0.930 . S
H781 C814 0.930 . S
H782 C812 0.929 . S
H783 C815 0.928 . S
O784 Co768 2.057 1_455 S
O784 C772 1.232 . S
H785 C804 0.929 . S
H786 C805 0.929 . S
H787 C817 0.931 . S
H788 C809 0.929 . S
H789 C818 0.930 . S
H790 C810 0.931 . S
O791 Co767 2.097 1_655 S
O791 C819 1.214 . S
H792 C820 0.929 . S
H793 C821 0.929 . S
H794 C822 0.930 . S
H795 C823 0.929 . S
H796 C825 0.930 . S
H797 C802 0.930 . S
H798 C806 0.930 . S
O799 Co768 2.037 . S
O799 C819 1.234 . S
C800 O774 1.269 . S
C800 O775 1.257 . S
C801 H776 0.930 . S
C801 C804 1.388 . S
C801 C806 1.418 . S
C802 H797 0.930 . S
C802 C805 1.404 . S
C802 C806 1.353 . S
N803 Co768 2.145 . S
N803 C804 1.397 . S
N803 C805 1.334 . S
C804 H785 0.929 . S
C804 C801 1.388 . S
C804 N803 1.397 . S
C805 H786 0.929 . S
C805 C802 1.404 . S
C805 N803 1.334 . S
C806 H798 0.930 . S
C806 C801 1.418 . S
C806 C802 1.353 . S
C807 H777 0.930 . S
C807 N808 1.330 . S
C807 C809 1.446 . S
N808 Co767 2.151 . S
N808 C807 1.330 . S
N808 C812 1.418 . S
C809 H788 0.929 . S
C809 C807 1.446 . S
C809 C810 1.332 . S
C810 H790 0.931 . S
C810 C809 1.332 . S
C810 C811 1.267 . S
C811 H779 0.929 . S
C811 C810 1.267 . S
C811 C812 1.251 . S
C812 H782 0.929 . S
C812 N808 1.418 . S
C812 C811 1.251 . S
C813 H780 0.930 . S
C813 C815 1.406 . S
C813 C818 1.261 . S
C814 H781 0.930 . S
C814 N816 1.325 . S
C814 C817 1.357 . S
C815 H783 0.928 . S
C815 C813 1.406 . S
C815 N816 1.261 . S
N816 Co767 2.214 . S
N816 C814 1.325 . S
N816 C815 1.261 . S
C817 H787 0.931 . S
C817 C814 1.357 . S
C817 C818 1.312 . S
C818 H789 0.930 . S
C818 C813 1.261 . S
C818 C817 1.312 . S
C819 O791 1.214 . S
C819 O799 1.234 . S
C820 H792 0.929 . S
C820 C823 1.391 . S
C820 C825 1.391 . S
C821 H793 0.929 . S
C821 C822 1.390 . S
C821 N824 1.391 . S
C822 H794 0.930 . S
C822 C821 1.390 . S
C822 C823 1.392 . S
C823 H795 0.929 . S
C823 C820 1.391 . S
C823 C822 1.392 . S
N824 Co768 2.257 . S
N824 C821 1.391 . S
N824 C825 1.388 . S
C825 H796 0.930 . S
C825 C820 1.391 . S
C825 N824 1.388 . S
Co826 O828 2.143 . S
Co826 O834 2.074 . S
Co826 O837 2.093 . S
Co826 O850 2.097 . S
Co826 N867 2.151 . S
Co826 N875 2.214 . S
Co827 O828 2.160 . S
Co827 O833 2.058 . S
Co827 O843 2.057 . S
Co827 O858 2.037 . S
Co827 N862 2.145 . S
Co827 N883 2.257 . S
O828 Co826 2.143 . S
O828 Co827 2.160 . S
C829 O830 1.278 . S
C829 O837 1.224 . S
O830 C829 1.278 . S
C831 O832 1.245 . S
C831 O843 1.232 . S
O832 C831 1.245 . S
O833 Co827 2.058 . S
O833 C859 1.269 . S
O834 Co826 2.074 . S
O834 C859 1.257 . S
H835 C860 0.930 . S
H836 C866 0.930 . S
O837 Co826 2.093 . S
O837 C829 1.224 . S
H838 C870 0.929 . S
H839 C872 0.930 . S
H840 C873 0.930 . S
H841 C871 0.929 . S
H842 C874 0.928 . S
O843 Co827 2.057 . S
O843 C831 1.232 . S
H844 C863 0.929 . S
H845 C864 0.929 . S
H846 C876 0.931 . S
H847 C868 0.929 . S
H848 C877 0.930 . S
H849 C869 0.931 . S
O850 Co826 2.097 . S
O850 C878 1.214 . S
H851 C879 0.929 . S
H852 C880 0.929 . S
H853 C881 0.930 . S
H854 C882 0.929 . S
H855 C884 0.930 . S
H856 C861 0.930 . S
H857 C865 0.930 . S
O858 Co827 2.037 . S
O858 C878 1.234 . S
C859 O833 1.269 . S
C859 O834 1.257 . S
C860 H835 0.930 . S
C860 C863 1.388 . S
C860 C865 1.418 . S
C861 H856 0.930 . S
C861 C864 1.404 . S
C861 C865 1.353 . S
N862 Co827 2.145 . S
N862 C863 1.397 . S
N862 C864 1.334 . S
C863 H844 0.929 . S
C863 C860 1.388 . S
C863 N862 1.397 . S
C864 H845 0.929 . S
C864 C861 1.404 . S
C864 N862 1.334 . S
C865 H857 0.930 . S
C865 C860 1.418 . S
C865 C861 1.353 . S
C866 H836 0.930 . S
C866 N867 1.330 . S
C866 C868 1.446 . S
N867 Co826 2.151 . S
N867 C866 1.330 . S
N867 C871 1.418 . S
C868 H847 0.929 . S
C868 C866 1.446 . S
C868 C869 1.332 . S
C869 H849 0.931 . S
C869 C868 1.332 . S
C869 C870 1.267 . S
C870 H838 0.929 . S
C870 C869 1.267 . S
C870 C871 1.251 . S
C871 H841 0.929 . S
C871 N867 1.418 . S
C871 C870 1.251 . S
C872 H839 0.930 . S
C872 C874 1.406 . S
C872 C877 1.261 . S
C873 H840 0.930 . S
C873 N875 1.325 . S
C873 C876 1.357 . S
C874 H842 0.928 . S
C874 C872 1.406 . S
C874 N875 1.261 . S
N875 Co826 2.214 . S
N875 C873 1.325 . S
N875 C874 1.261 . S
C876 H846 0.931 . S
C876 C873 1.357 . S
C876 C877 1.312 . S
C877 H848 0.930 . S
C877 C872 1.261 . S
C877 C876 1.312 . S
C878 O850 1.214 . S
C878 O858 1.234 . S
C879 H851 0.929 . S
C879 C882 1.391 . S
C879 C884 1.391 . S
C880 H852 0.929 . S
C880 C881 1.390 . S
C880 N883 1.391 . S
C881 H853 0.930 . S
C881 C880 1.390 . S
C881 C882 1.392 . S
C882 H854 0.929 . S
C882 C879 1.391 . S
C882 C881 1.392 . S
N883 Co827 2.257 . S
N883 C880 1.391 . S
N883 C884 1.388 . S
C884 H855 0.930 . S
C884 C879 1.391 . S
C884 N883 1.388 . S
Co885 O887 2.143 . S
Co885 O893 2.074 . S
Co885 O896 2.093 1_455 S
Co885 O909 2.097 1_455 S
Co885 N926 2.151 . S
Co885 N934 2.214 . S
Co886 O887 2.160 1_655 S
Co886 O892 2.058 1_655 S
Co886 O902 2.057 1_655 S
Co886 O917 2.037 . S
Co886 N921 2.145 . S
Co886 N942 2.257 . S
O887 Co885 2.143 . S
O887 Co886 2.160 1_455 S
C888 O889 1.278 . S
C888 O896 1.224 . S
O889 C888 1.278 . S
C890 O891 1.245 . S
C890 O902 1.232 . S
O891 C890 1.245 . S
O892 Co886 2.058 1_455 S
O892 C918 1.269 . S
O893 Co885 2.074 . S
O893 C918 1.257 . S
H894 C919 0.930 . S
H895 C925 0.930 . S
O896 Co885 2.093 1_655 S
O896 C888 1.224 . S
H897 C929 0.929 . S
H898 C931 0.930 . S
H899 C932 0.930 . S
H900 C930 0.929 . S
H901 C933 0.928 . S
O902 Co886 2.057 1_455 S
O902 C890 1.232 . S
H903 C922 0.929 . S
H904 C923 0.929 . S
H905 C935 0.931 . S
H906 C927 0.929 . S
H907 C936 0.930 . S
H908 C928 0.931 . S
O909 Co885 2.097 1_655 S
O909 C937 1.214 . S
H910 C938 0.929 . S
H911 C939 0.929 . S
H912 C940 0.930 . S
H913 C941 0.929 . S
H914 C943 0.930 . S
H915 C920 0.930 . S
H916 C924 0.930 . S
O917 Co886 2.037 . S
O917 C937 1.234 . S
C918 O892 1.269 . S
C918 O893 1.257 . S
C919 H894 0.930 . S
C919 C922 1.388 . S
C919 C924 1.418 . S
C920 H915 0.930 . S
C920 C923 1.404 . S
C920 C924 1.353 . S
N921 Co886 2.145 . S
N921 C922 1.397 . S
N921 C923 1.334 . S
C922 H903 0.929 . S
C922 C919 1.388 . S
C922 N921 1.397 . S
C923 H904 0.929 . S
C923 C920 1.404 . S
C923 N921 1.334 . S
C924 H916 0.930 . S
C924 C919 1.418 . S
C924 C920 1.353 . S
C925 H895 0.930 . S
C925 N926 1.330 . S
C925 C927 1.446 . S
N926 Co885 2.151 . S
N926 C925 1.330 . S
N926 C930 1.418 . S
C927 H906 0.929 . S
C927 C925 1.446 . S
C927 C928 1.332 . S
C928 H908 0.931 . S
C928 C927 1.332 . S
C928 C929 1.267 . S
C929 H897 0.929 . S
C929 C928 1.267 . S
C929 C930 1.251 . S
C930 H900 0.929 . S
C930 N926 1.418 . S
C930 C929 1.251 . S
C931 H898 0.930 . S
C931 C933 1.406 . S
C931 C936 1.261 . S
C932 H899 0.930 . S
C932 N934 1.325 . S
C932 C935 1.357 . S
C933 H901 0.928 . S
C933 C931 1.406 . S
C933 N934 1.261 . S
N934 Co885 2.214 . S
N934 C932 1.325 . S
N934 C933 1.261 . S
C935 H905 0.931 . S
C935 C932 1.357 . S
C935 C936 1.312 . S
C936 H907 0.930 . S
C936 C931 1.261 . S
C936 C935 1.312 . S
C937 O909 1.214 . S
C937 O917 1.234 . S
C938 H910 0.929 . S
C938 C941 1.391 . S
C938 C943 1.391 . S
C939 H911 0.929 . S
C939 C940 1.390 . S
C939 N942 1.391 . S
C940 H912 0.930 . S
C940 C939 1.390 . S
C940 C941 1.392 . S
C941 H913 0.929 . S
C941 C938 1.391 . S
C941 C940 1.392 . S
N942 Co886 2.257 . S
N942 C939 1.391 . S
N942 C943 1.388 . S
C943 H914 0.930 . S
C943 C938 1.391 . S
C943 N942 1.388 . S
C944 C945 1.379 1_455 S
C944 C946 1.398 . S
C944 H960 0.939 . S
C945 C944 1.379 1_655 S
C945 C949 1.376 . S
C946 C944 1.398 . S
C946 C947 1.369 1_455 S
C946 C950 1.531 . S
C947 C946 1.369 1_655 S
C947 C948 1.410 . S
C947 C955 1.503 1_655 S
C948 C947 1.410 . S
C948 C949 1.392 . S
C948 C951 1.511 . S
C949 C945 1.376 . S
C949 C948 1.392 . S
C949 H961 0.929 . S
C950 C946 1.531 . S
C950 H962 0.960 . S
C950 H963 0.962 . S
C950 H964 0.960 . S
C951 C948 1.511 . S
C951 H965 0.961 . S
C951 H966 0.961 . S
C951 H967 0.961 . S
C952 C953 1.370 . S
C952 C954 1.363 . S
C952 H968 0.931 . S
C953 C952 1.370 . S
C953 C957 1.408 1_455 S
C954 C952 1.363 . S
C954 C955 1.370 . S
C954 C958 1.524 . S
C955 C947 1.503 1_455 S
C955 C954 1.370 . S
C955 C956 1.403 1_455 S
C956 C955 1.403 1_655 S
C956 C957 1.404 . S
C956 C959 1.539 . S
C957 C953 1.408 1_655 S
C957 C956 1.404 . S
C957 H969 0.930 . S
C958 C954 1.524 . S
C958 H970 0.956 . S
C958 H971 0.961 . S
C958 H972 0.961 . S
C959 C956 1.539 . S
C959 H973 0.958 . S
C959 H974 0.961 . S
C959 H975 0.960 . S
H960 C944 0.939 . S
H961 C949 0.929 . S
H962 C950 0.960 . S
H963 C950 0.962 . S
H964 C950 0.960 . S
H965 C951 0.961 . S
H966 C951 0.961 . S
H967 C951 0.961 . S
H968 C952 0.931 . S
H969 C957 0.930 . S
H970 C958 0.956 . S
H971 C958 0.961 . S
H972 C958 0.961 . S
H973 C959 0.958 . S
H974 C959 0.961 . S
H975 C959 0.960 . S
C976 C977 1.391 . S
C976 C978 1.394 . S
C976 H992 0.931 . S
C977 C976 1.391 . S
C977 C981 1.376 . S
C978 C976 1.394 . S
C978 C979 1.369 . S
C978 C982 1.531 . S
C979 C978 1.369 . S
C979 C980 1.410 . S
C979 C987 1.503 1_655 S
C980 C979 1.410 . S
C980 C981 1.392 . S
C980 C983 1.511 . S
C981 C977 1.376 . S
C981 C980 1.392 . S
C981 H993 0.929 . S
C982 C978 1.531 . S
C982 H994 0.960 1_655 S
C982 H995 0.962 1_655 S
C982 H996 0.960 . S
C983 C980 1.511 . S
C983 H997 0.961 . S
C983 H998 0.961 1_655 S
C983 H999 0.961 . S
C984 C985 1.370 . S
C984 C986 1.363 . S
C984 H1000 0.931 . S
C985 C984 1.370 . S
C985 C989 1.408 . S
C986 C984 1.363 . S
C986 C987 1.370 . S
C986 C990 1.524 . S
C987 C979 1.503 1_455 S
C987 C986 1.370 . S
C987 C988 1.403 . S
C988 C987 1.403 . S
C988 C989 1.404 . S
C988 C991 1.539 . S
C989 C985 1.408 . S
C989 C988 1.404 . S
C989 H1001 0.930 . S
C990 C986 1.524 . S
C990 H1002 0.956 . S
C990 H1003 0.961 . S
C990 H1004 0.961 . S
C991 C988 1.539 . S
C991 H1005 0.958 . S
C991 H1006 0.961 . S
C991 H1007 0.960 1_455 S
H992 C976 0.931 . S
H993 C981 0.929 . S
H994 C982 0.960 1_455 S
H995 C982 0.962 1_455 S
H996 C982 0.960 . S
H997 C983 0.961 . S
H998 C983 0.961 1_455 S
H999 C983 0.961 . S
H1000 C984 0.931 . S
H1001 C989 0.930 . S
H1002 C990 0.956 . S
H1003 C990 0.961 . S
H1004 C990 0.961 . S
H1005 C991 0.958 . S
H1006 C991 0.961 . S
H1007 C991 0.960 1_655 S
C1008 C1009 1.391 . S
C1008 C1010 1.394 . S
C1008 H1024 0.931 . S
C1009 C1008 1.391 . S
C1009 C1013 1.376 . S
C1010 C1008 1.394 . S
C1010 C1011 1.369 . S
C1010 C1014 1.531 . S
C1011 C1010 1.369 . S
C1011 C1012 1.410 . S
C1011 C1019 1.503 . S
C1012 C1011 1.410 . S
C1012 C1013 1.392 . S
C1012 C1015 1.511 . S
C1013 C1009 1.376 . S
C1013 C1012 1.392 . S
C1013 H1025 0.929 . S
C1014 C1010 1.531 . S
C1014 H1026 0.960 . S
C1014 H1027 0.962 . S
C1014 H1028 0.960 . S
C1015 C1012 1.511 . S
C1015 H1029 0.961 . S
C1015 H1030 0.961 . S
C1015 H1031 0.961 . S
C1016 C1017 1.370 . S
C1016 C1018 1.363 . S
C1016 H1032 0.931 . S
C1017 C1016 1.370 . S
C1017 C1021 1.408 . S
C1018 C1016 1.363 . S
C1018 C1019 1.370 . S
C1018 C1022 1.524 . S
C1019 C1011 1.503 . S
C1019 C1018 1.370 . S
C1019 C1020 1.403 . S
C1020 C1019 1.403 . S
C1020 C1021 1.404 . S
C1020 C1023 1.539 . S
C1021 C1017 1.408 . S
C1021 C1020 1.404 . S
C1021 H1033 0.930 . S
C1022 C1018 1.524 . S
C1022 H1034 0.956 . S
C1022 H1035 0.961 . S
C1022 H1036 0.961 . S
C1023 C1020 1.539 . S
C1023 H1037 0.958 . S
C1023 H1038 0.961 . S
C1023 H1039 0.960 . S
H1024 C1008 0.931 . S
H1025 C1013 0.929 . S
H1026 C1014 0.960 . S
H1027 C1014 0.962 . S
H1028 C1014 0.960 . S
H1029 C1015 0.961 . S
H1030 C1015 0.961 . S
H1031 C1015 0.961 . S
H1032 C1016 0.931 . S
H1033 C1021 0.930 . S
H1034 C1022 0.956 . S
H1035 C1022 0.961 . S
H1036 C1022 0.961 . S
H1037 C1023 0.958 . S
H1038 C1023 0.961 . S
H1039 C1023 0.960 . S
C1040 C1041 1.391 . S
C1040 C1042 1.394 . S
C1040 H1056 0.931 . S
C1041 C1040 1.391 . S
C1041 C1045 1.376 . S
C1042 C1040 1.394 . S
C1042 C1043 1.369 . S
C1042 C1046 1.531 . S
C1043 C1042 1.369 . S
C1043 C1044 1.410 . S
C1043 C1051 1.503 . S
C1044 C1043 1.410 . S
C1044 C1045 1.392 . S
C1044 C1047 1.511 . S
C1045 C1041 1.376 . S
C1045 C1044 1.392 . S
C1045 H1057 0.929 . S
C1046 C1042 1.531 . S
C1046 H1058 0.960 . S
C1046 H1059 0.962 . S
C1046 H1060 0.960 . S
C1047 C1044 1.511 . S
C1047 H1061 0.961 . S
C1047 H1062 0.961 . S
C1047 H1063 0.961 . S
C1048 C1049 1.370 . S
C1048 C1050 1.363 . S
C1048 H1064 0.931 . S
C1049 C1048 1.370 . S
C1049 C1053 1.408 . S
C1050 C1048 1.363 . S
C1050 C1051 1.370 . S
C1050 C1054 1.524 . S
C1051 C1043 1.503 . S
C1051 C1050 1.370 . S
C1051 C1052 1.403 . S
C1052 C1051 1.403 . S
C1052 C1053 1.404 . S
C1052 C1055 1.539 . S
C1053 C1049 1.408 . S
C1053 C1052 1.404 . S
C1053 H1065 0.930 . S
C1054 C1050 1.524 . S
C1054 H1066 0.956 . S
C1054 H1067 0.961 . S
C1054 H1068 0.961 . S
C1055 C1052 1.539 . S
C1055 H1069 0.958 . S
C1055 H1070 0.961 . S
C1055 H1071 0.960 . S
H1056 C1040 0.931 . S
H1057 C1045 0.929 . S
H1058 C1046 0.960 . S
H1059 C1046 0.962 . S
H1060 C1046 0.960 . S
H1061 C1047 0.961 . S
H1062 C1047 0.961 . S
H1063 C1047 0.961 . S
H1064 C1048 0.931 . S
H1065 C1053 0.930 . S
H1066 C1054 0.956 . S
H1067 C1054 0.961 . S
H1068 C1054 0.961 . S
H1069 C1055 0.958 . S
H1070 C1055 0.961 . S
H1071 C1055 0.960 . S
C1072 C1073 1.391 1_455 S
C1072 C1074 1.394 . S
C1072 H1088 0.931 . S
C1073 C1072 1.391 1_655 S
C1073 C1077 1.376 . S
C1074 C1072 1.394 . S
C1074 C1075 1.389 . S
C1074 C1078 1.531 . S
C1075 C1074 1.389 . S
C1075 C1076 1.384 1_455 S
C1075 C1083 1.510 . S
C1076 C1075 1.384 1_655 S
C1076 C1077 1.392 . S
C1076 C1079 1.511 . S
C1077 C1073 1.376 . S
C1077 C1076 1.392 . S
C1077 H1089 0.929 . S
C1078 C1074 1.531 . S
C1078 H1090 0.960 . S
C1078 H1091 0.962 . S
C1078 H1092 0.960 . S
C1079 C1076 1.511 . S
C1079 H1093 0.961 . S
C1079 H1094 0.961 . S
C1079 H1095 0.961 . S
C1080 C1081 1.370 . S
C1080 C1082 1.363 . S
C1080 H1096 0.931 . S
C1081 C1080 1.370 . S
C1081 C1085 1.408 . S
C1082 C1080 1.363 . S
C1082 C1083 1.370 . S
C1082 C1086 1.524 . S
C1083 C1075 1.510 . S
C1083 C1082 1.370 . S
C1083 C1084 1.409 . S
C1084 C1083 1.409 . S
C1084 C1085 1.410 . S
C1084 C1087 1.525 1_455 S
C1085 C1081 1.408 . S
C1085 C1084 1.410 . S
C1085 H1097 0.930 . S
C1086 C1082 1.524 . S
C1086 H1098 0.956 . S
C1086 H1099 0.961 . S
C1086 H1100 0.961 . S
C1087 C1084 1.525 1_655 S
C1087 H1101 0.958 . S
C1087 H1102 0.961 . S
C1087 H1103 0.960 . S
H1088 C1072 0.931 . S
H1089 C1077 0.929 . S
H1090 C1078 0.960 . S
H1091 C1078 0.962 . S
H1092 C1078 0.960 . S
H1093 C1079 0.961 . S
H1094 C1079 0.961 . S
H1095 C1079 0.961 . S
H1096 C1080 0.931 . S
H1097 C1085 0.930 . S
H1098 C1086 0.956 . S
H1099 C1086 0.961 . S
H1100 C1086 0.961 . S
H1101 C1087 0.958 . S
H1102 C1087 0.961 . S
H1103 C1087 0.960 . S
C1104 C1105 1.391 . S
C1104 C1106 1.394 . S
C1104 H1120 0.931 . S
C1105 C1104 1.391 . S
C1105 C1109 1.376 . S
C1106 C1104 1.394 . S
C1106 C1107 1.369 . S
C1106 C1110 1.531 . S
C1107 C1106 1.369 . S
C1107 C1108 1.410 . S
C1107 C1115 1.503 . S
C1108 C1107 1.410 . S
C1108 C1109 1.392 . S
C1108 C1111 1.511 . S
C1109 C1105 1.376 . S
C1109 C1108 1.392 . S
C1109 H1121 0.929 . S
C1110 C1106 1.531 . S
C1110 H1122 0.960 . S
C1110 H1123 0.962 . S
C1110 H1124 0.960 . S
C1111 C1108 1.511 . S
C1111 H1125 0.961 . S
C1111 H1126 0.961 . S
C1111 H1127 0.961 . S
C1112 C1113 1.370 . S
C1112 C1114 1.363 . S
C1112 H1128 0.931 . S
C1113 C1112 1.370 . S
C1113 C1117 1.408 . S
C1114 C1112 1.363 . S
C1114 C1115 1.370 . S
C1114 C1118 1.524 . S
C1115 C1107 1.503 . S
C1115 C1114 1.370 . S
C1115 C1116 1.403 . S
C1116 C1115 1.403 . S
C1116 C1117 1.404 . S
C1116 C1119 1.539 . S
C1117 C1113 1.408 . S
C1117 C1116 1.404 . S
C1117 H1129 0.930 . S
C1118 C1114 1.524 . S
C1118 H1130 0.956 . S
C1118 H1131 0.961 . S
C1118 H1132 0.961 . S
C1119 C1116 1.539 . S
C1119 H1133 0.958 . S
C1119 H1134 0.961 . S
C1119 H1135 0.960 . S
H1120 C1104 0.931 . S
H1121 C1109 0.929 . S
H1122 C1110 0.960 . S
H1123 C1110 0.962 . S
H1124 C1110 0.960 . S
H1125 C1111 0.961 . S
H1126 C1111 0.961 . S
H1127 C1111 0.961 . S
H1128 C1112 0.931 . S
H1129 C1117 0.930 . S
H1130 C1118 0.956 . S
H1131 C1118 0.961 . S
H1132 C1118 0.961 . S
H1133 C1119 0.958 . S
H1134 C1119 0.961 . S
H1135 C1119 0.960 . S
C1136 C1137 1.391 . S
C1136 C1138 1.394 . S
C1136 H1152 0.931 . S
C1137 C1136 1.391 . S
C1137 C1141 1.376 . S
C1138 C1136 1.394 . S
C1138 C1139 1.369 . S
C1138 C1142 1.531 . S
C1139 C1138 1.369 . S
C1139 C1140 1.410 . S
C1139 C1147 1.503 . S
C1140 C1139 1.410 . S
C1140 C1141 1.392 . S
C1140 C1143 1.511 . S
C1141 C1137 1.376 . S
C1141 C1140 1.392 . S
C1141 H1153 0.929 . S
C1142 C1138 1.531 . S
C1142 H1154 0.960 . S
C1142 H1155 0.962 . S
C1142 H1156 0.960 . S
C1143 C1140 1.511 . S
C1143 H1157 0.961 . S
C1143 H1158 0.961 . S
C1143 H1159 0.961 . S
C1144 C1145 1.370 . S
C1144 C1146 1.363 . S
C1144 H1160 0.931 . S
C1145 C1144 1.370 . S
C1145 C1149 1.408 . S
C1146 C1144 1.363 . S
C1146 C1147 1.370 . S
C1146 C1150 1.524 . S
C1147 C1139 1.503 . S
C1147 C1146 1.370 . S
C1147 C1148 1.403 . S
C1148 C1147 1.403 . S
C1148 C1149 1.404 . S
C1148 C1151 1.539 . S
C1149 C1145 1.408 . S
C1149 C1148 1.404 . S
C1149 H1161 0.930 . S
C1150 C1146 1.524 . S
C1150 H1162 0.956 . S
C1150 H1163 0.961 . S
C1150 H1164 0.961 . S
C1151 C1148 1.539 . S
C1151 H1165 0.958 . S
C1151 H1166 0.961 . S
C1151 H1167 0.960 . S
H1152 C1136 0.931 . S
H1153 C1141 0.929 . S
H1154 C1142 0.960 . S
H1155 C1142 0.962 . S
H1156 C1142 0.960 . S
H1157 C1143 0.961 . S
H1158 C1143 0.961 . S
H1159 C1143 0.961 . S
H1160 C1144 0.931 . S
H1161 C1149 0.930 . S
H1162 C1150 0.956 . S
H1163 C1150 0.961 . S
H1164 C1150 0.961 . S
H1165 C1151 0.958 . S
H1166 C1151 0.961 . S
H1167 C1151 0.960 . S
C1168 C1169 1.391 . S
C1168 C1170 1.394 . S
C1168 H1184 0.931 . S
C1169 C1168 1.391 . S
C1169 C1173 1.376 . S
C1170 C1168 1.394 . S
C1170 C1171 1.369 . S
C1170 C1174 1.531 . S
C1171 C1170 1.369 . S
C1171 C1172 1.410 . S
C1171 C1179 1.503 1_455 S
C1172 C1171 1.410 . S
C1172 C1173 1.392 . S
C1172 C1175 1.511 . S
C1173 C1169 1.376 . S
C1173 C1172 1.392 . S
C1173 H1185 0.929 . S
C1174 C1170 1.531 . S
C1174 H1186 0.960 . S
C1174 H1187 0.962 . S
C1174 H1188 0.960 . S
C1175 C1172 1.511 . S
C1175 H1189 0.961 . S
C1175 H1190 0.961 1_455 S
C1175 H1191 0.961 . S
C1176 C1177 1.370 . S
C1176 C1178 1.363 . S
C1176 H1192 0.931 . S
C1177 C1176 1.370 . S
C1177 C1181 1.408 . S
C1178 C1176 1.363 . S
C1178 C1179 1.370 . S
C1178 C1182 1.524 . S
C1179 C1171 1.503 1_655 S
C1179 C1178 1.370 . S
C1179 C1180 1.403 . S
C1180 C1179 1.403 . S
C1180 C1181 1.404 . S
C1180 C1183 1.539 . S
C1181 C1177 1.408 . S
C1181 C1180 1.404 . S
C1181 H1193 0.930 . S
C1182 C1178 1.524 . S
C1182 H1194 0.956 1_655 S
C1182 H1195 0.961 1_655 S
C1182 H1196 0.961 . S
C1183 C1180 1.539 . S
C1183 H1197 0.958 . S
C1183 H1198 0.961 . S
C1183 H1199 0.960 1_655 S
H1184 C1168 0.931 . S
H1185 C1173 0.929 . S
H1186 C1174 0.960 . S
H1187 C1174 0.962 . S
H1188 C1174 0.960 . S
H1189 C1175 0.961 . S
H1190 C1175 0.961 1_655 S
H1191 C1175 0.961 . S
H1192 C1176 0.931 . S
H1193 C1181 0.930 . S
H1194 C1182 0.956 1_455 S
H1195 C1182 0.961 1_455 S
H1196 C1182 0.961 . S
H1197 C1183 0.958 . S
H1198 C1183 0.961 . S
H1199 C1183 0.960 1_455 S
C1200 C1201 1.391 . S
C1200 C1202 1.394 . S
C1200 H1216 0.931 . S
C1201 C1200 1.391 . S
C1201 C1205 1.376 1_565 S
C1202 C1200 1.394 . S
C1202 C1203 1.369 . S
C1202 C1206 1.531 . S
C1203 C1202 1.369 . S
C1203 C1204 1.410 1_565 S
C1203 C1211 1.503 1_565 S
C1204 C1203 1.410 1_545 S
C1204 C1205 1.392 . S
C1204 C1207 1.511 . S
C1205 C1201 1.376 1_545 S
C1205 C1204 1.392 . S
C1205 H1217 0.929 . S
C1206 C1202 1.531 . S
C1206 H1218 0.960 . S
C1206 H1219 0.962 . S
C1206 H1220 0.960 . S
C1207 C1204 1.511 . S
C1207 H1221 0.961 . S
C1207 H1222 0.961 . S
C1207 H1223 0.961 . S
C1208 C1209 1.370 . S
C1208 C1210 1.363 . S
C1208 H1224 0.931 1_455 S
C1209 C1208 1.370 . S
C1209 C1213 1.408 . S
C1210 C1208 1.363 . S
C1210 C1211 1.370 . S
C1210 C1214 1.524 1_455 S
C1211 C1203 1.503 1_545 S
C1211 C1210 1.370 . S
C1211 C1212 1.403 . S
C1212 C1211 1.403 . S
C1212 C1213 1.404 . S
C1212 C1215 1.540 . S
C1213 C1209 1.408 . S
C1213 C1212 1.404 . S
C1213 H1225 0.930 . S
C1214 C1210 1.524 1_655 S
C1214 H1226 0.956 1_545 S
C1214 H1227 0.961 . S
C1214 H1228 0.961 . S
C1215 C1212 1.540 . S
C1215 H1229 0.935 1_545 S
C1215 H1230 0.975 . S
C1215 H1231 0.969 . S
H1216 C1200 0.931 . S
H1217 C1205 0.929 . S
H1218 C1206 0.960 . S
H1219 C1206 0.962 . S
H1220 C1206 0.960 . S
H1221 C1207 0.961 . S
H1222 C1207 0.961 . S
H1223 C1207 0.961 . S
H1224 C1208 0.931 1_655 S
H1225 C1213 0.930 . S
H1226 C1214 0.956 1_565 S
H1227 C1214 0.961 . S
H1228 C1214 0.961 . S
H1229 C1215 0.935 1_565 S
H1230 C1215 0.975 . S
H1231 C1215 0.969 . S
C1232 C1233 1.391 . S
C1232 C1234 1.394 . S
C1232 H1248 0.931 . S
C1233 C1232 1.391 . S
C1233 C1237 1.376 . S
C1234 C1232 1.394 . S
C1234 C1235 1.369 . S
C1234 C1238 1.531 . S
C1235 C1234 1.369 . S
C1235 C1236 1.410 . S
C1235 C1243 1.503 . S
C1236 C1235 1.410 . S
C1236 C1237 1.392 . S
C1236 C1239 1.511 . S
C1237 C1233 1.376 . S
C1237 C1236 1.392 . S
C1237 H1249 0.929 . S
C1238 C1234 1.531 . S
C1238 H1250 0.960 . S
C1238 H1251 0.962 . S
C1238 H1252 0.960 . S
C1239 C1236 1.511 . S
C1239 H1253 0.961 . S
C1239 H1254 0.961 . S
C1239 H1255 0.961 . S
C1240 C1241 1.370 . S
C1240 C1242 1.363 . S
C1240 H1256 0.931 . S
C1241 C1240 1.370 . S
C1241 C1245 1.408 . S
C1242 C1240 1.363 . S
C1242 C1243 1.370 . S
C1242 C1246 1.524 . S
C1243 C1235 1.503 . S
C1243 C1242 1.370 . S
C1243 C1244 1.403 . S
C1244 C1243 1.403 . S
C1244 C1245 1.404 . S
C1244 C1247 1.539 . S
C1245 C1241 1.408 . S
C1245 C1244 1.404 . S
C1245 H1257 0.930 . S
C1246 C1242 1.524 . S
C1246 H1258 0.956 . S
C1246 H1259 0.961 . S
C1246 H1260 0.961 . S
C1247 C1244 1.539 . S
C1247 H1261 0.958 . S
C1247 H1262 0.961 . S
C1247 H1263 0.960 . S
H1248 C1232 0.931 . S
H1249 C1237 0.929 . S
H1250 C1238 0.960 . S
H1251 C1238 0.962 . S
H1252 C1238 0.960 . S
H1253 C1239 0.961 . S
H1254 C1239 0.961 . S
H1255 C1239 0.961 . S
H1256 C1240 0.931 . S
H1257 C1245 0.930 . S
H1258 C1246 0.956 . S
H1259 C1246 0.961 . S
H1260 C1246 0.961 . S
H1261 C1247 0.958 . S
H1262 C1247 0.961 . S
H1263 C1247 0.960 . S
C1264 C1265 1.391 . S
C1264 C1266 1.394 . S
C1264 H1280 0.931 . S
C1265 C1264 1.391 . S
C1265 C1269 1.376 . S
C1266 C1264 1.394 . S
C1266 C1267 1.369 . S
C1266 C1270 1.531 . S
C1267 C1266 1.369 . S
C1267 C1268 1.410 . S
C1267 C1275 1.503 1_554 S
C1268 C1267 1.410 . S
C1268 C1269 1.392 . S
C1268 C1271 1.511 1_565 S
C1269 C1265 1.376 . S
C1269 C1268 1.392 . S
C1269 H1281 0.929 1_565 S
C1270 C1266 1.531 . S
C1270 H1282 0.960 1_554 S
C1270 H1283 0.962 . S
C1270 H1284 0.960 . S
C1271 C1268 1.511 1_545 S
C1271 H1285 0.961 . S
C1271 H1286 0.896 1_554 S
C1271 H1287 0.961 1_545 S
C1272 C1273 1.370 . S
C1272 C1274 1.363 . S
C1272 H1288 0.931 . S
C1273 C1272 1.370 . S
C1273 C1277 1.408 1_545 S
C1274 C1272 1.363 . S
C1274 C1275 1.370 1_545 S
C1274 C1278 1.524 . S
C1275 C1267 1.503 1_556 S
C1275 C1274 1.370 1_565 S
C1275 C1276 1.403 . S
C1276 C1275 1.403 . S
C1276 C1277 1.404 . S
C1276 C1279 1.539 . S
C1277 C1273 1.408 1_565 S
C1277 C1276 1.404 . S
C1277 H1289 0.930 . S
C1278 C1274 1.524 . S
C1278 H1290 0.956 1_556 S
C1278 H1291 0.961 1_556 S
C1278 H1292 0.961 . S
C1279 C1276 1.539 . S
C1279 H1293 0.958 . S
C1279 H1294 0.961 . S
C1279 H1295 0.960 . S
H1280 C1264 0.931 . S
H1281 C1269 0.929 1_545 S
H1282 C1270 0.960 1_556 S
H1283 C1270 0.962 . S
H1284 C1270 0.960 . S
H1285 C1271 0.961 . S
H1286 C1271 0.896 1_556 S
H1287 C1271 0.961 1_565 S
H1288 C1272 0.931 . S
H1289 C1277 0.930 . S
H1290 C1278 0.956 1_554 S
H1291 C1278 0.961 1_554 S
H1292 C1278 0.961 . S
H1293 C1279 0.958 . S
H1294 C1279 0.961 . S
H1295 C1279 0.960 . S
C1296 C1297 1.391 . S
C1296 C1298 1.394 . S
C1296 H1312 0.931 . S
C1297 C1296 1.391 . S
C1297 C1301 1.376 . S
C1298 C1296 1.394 . S
C1298 C1299 1.369 . S
C1298 C1302 1.531 . S
C1299 C1298 1.369 . S
C1299 C1300 1.410 . S
C1299 C1307 1.503 . S
C1300 C1299 1.410 . S
C1300 C1301 1.392 . S
C1300 C1303 1.511 . S
C1301 C1297 1.376 . S
C1301 C1300 1.392 . S
C1301 H1313 0.929 . S
C1302 C1298 1.531 . S
C1302 H1314 0.960 . S
C1302 H1315 0.962 . S
C1302 H1316 0.960 . S
C1303 C1300 1.511 . S
C1303 H1317 0.961 . S
C1303 H1318 0.961 . S
C1303 H1319 0.961 . S
C1304 C1305 1.370 . S
C1304 C1306 1.363 . S
C1304 H1320 0.931 . S
C1305 C1304 1.370 . S
C1305 C1309 1.408 . S
C1306 C1304 1.363 . S
C1306 C1307 1.370 . S
C1306 C1310 1.524 . S
C1307 C1299 1.503 . S
C1307 C1306 1.370 . S
C1307 C1308 1.403 . S
C1308 C1307 1.403 . S
C1308 C1309 1.404 . S
C1308 C1311 1.539 . S
C1309 C1305 1.408 . S
C1309 C1308 1.404 . S
C1309 H1321 0.930 . S
C1310 C1306 1.524 . S
C1310 H1322 0.956 . S
C1310 H1323 0.961 . S
C1310 H1324 0.961 . S
C1311 C1308 1.539 . S
C1311 H1325 0.958 . S
C1311 H1326 0.961 . S
C1311 H1327 0.960 . S
H1312 C1296 0.931 . S
H1313 C1301 0.929 . S
H1314 C1302 0.960 . S
H1315 C1302 0.962 . S
H1316 C1302 0.960 . S
H1317 C1303 0.961 . S
H1318 C1303 0.961 . S
H1319 C1303 0.961 . S
H1320 C1304 0.931 . S
H1321 C1309 0.930 . S
H1322 C1310 0.956 . S
H1323 C1310 0.961 . S
H1324 C1310 0.961 . S
H1325 C1311 0.958 . S
H1326 C1311 0.961 . S
H1327 C1311 0.960 . S
C1328 C1329 1.391 . S
C1328 C1330 1.394 . S
C1328 H1344 0.931 . S
C1329 C1328 1.391 . S
C1329 C1333 1.376 . S
C1330 C1328 1.394 . S
C1330 C1331 1.369 . S
C1330 C1334 1.531 . S
C1331 C1330 1.369 . S
C1331 C1332 1.410 . S
C1331 C1339 1.503 . S
C1332 C1331 1.410 . S
C1332 C1333 1.392 . S
C1332 C1335 1.511 . S
C1333 C1329 1.376 . S
C1333 C1332 1.392 . S
C1333 H1345 0.929 . S
C1334 C1330 1.531 . S
C1334 H1346 0.960 . S
C1334 H1347 0.962 . S
C1334 H1348 0.960 . S
C1335 C1332 1.511 . S
C1335 H1349 0.961 . S
C1335 H1350 0.961 . S
C1335 H1351 0.961 . S
C1336 C1337 1.370 . S
C1336 C1338 1.363 . S
C1336 H1352 0.931 . S
C1337 C1336 1.370 . S
C1337 C1341 1.408 . S
C1338 C1336 1.363 . S
C1338 C1339 1.370 . S
C1338 C1342 1.524 . S
C1339 C1331 1.503 . S
C1339 C1338 1.370 . S
C1339 C1340 1.403 . S
C1340 C1339 1.403 . S
C1340 C1341 1.404 . S
C1340 C1343 1.539 . S
C1341 C1337 1.408 . S
C1341 C1340 1.404 . S
C1341 H1353 0.930 . S
C1342 C1338 1.524 . S
C1342 H1354 0.956 . S
C1342 H1355 0.961 . S
C1342 H1356 0.961 . S
C1343 C1340 1.539 . S
C1343 H1357 0.958 . S
C1343 H1358 0.961 . S
C1343 H1359 0.960 . S
H1344 C1328 0.931 . S
H1345 C1333 0.929 . S
H1346 C1334 0.960 . S
H1347 C1334 0.962 . S
H1348 C1334 0.960 . S
H1349 C1335 0.961 . S
H1350 C1335 0.961 . S
H1351 C1335 0.961 . S
H1352 C1336 0.931 . S
H1353 C1341 0.930 . S
H1354 C1342 0.956 . S
H1355 C1342 0.961 . S
H1356 C1342 0.961 . S
H1357 C1343 0.958 . S
H1358 C1343 0.961 . S
H1359 C1343 0.960 . S
C1360 C1361 1.391 . S
C1360 C1362 1.394 . S
C1360 H1376 0.931 . S
C1361 C1360 1.391 . S
C1361 C1365 1.376 . S
C1362 C1360 1.394 . S
C1362 C1363 1.369 . S
C1362 C1366 1.531 . S
C1363 C1362 1.369 . S
C1363 C1364 1.410 . S
C1363 C1371 1.503 . S
C1364 C1363 1.410 . S
C1364 C1365 1.392 . S
C1364 C1367 1.511 . S
C1365 C1361 1.376 . S
C1365 C1364 1.392 . S
C1365 H1377 0.929 . S
C1366 C1362 1.531 . S
C1366 H1378 0.960 . S
C1366 H1379 0.962 . S
C1366 H1380 0.960 . S
C1367 C1364 1.511 . S
C1367 H1381 0.961 . S
C1367 H1382 0.961 . S
C1367 H1383 0.961 . S
C1368 C1369 1.370 . S
C1368 C1370 1.363 . S
C1368 H1384 0.931 . S
C1369 C1368 1.370 . S
C1369 C1373 1.408 . S
C1370 C1368 1.363 . S
C1370 C1371 1.370 . S
C1370 C1374 1.524 . S
C1371 C1363 1.503 . S
C1371 C1370 1.370 . S
C1371 C1372 1.403 . S
C1372 C1371 1.403 . S
C1372 C1373 1.404 . S
C1372 C1375 1.539 . S
C1373 C1369 1.408 . S
C1373 C1372 1.404 . S
C1373 H1385 0.930 . S
C1374 C1370 1.524 . S
C1374 H1386 0.956 . S
C1374 H1387 0.961 . S
C1374 H1388 0.961 . S
C1375 C1372 1.539 . S
C1375 H1389 0.958 . S
C1375 H1390 0.961 . S
C1375 H1391 0.960 . S
H1376 C1360 0.931 . S
H1377 C1365 0.929 . S
H1378 C1366 0.960 . S
H1379 C1366 0.962 . S
H1380 C1366 0.960 . S
H1381 C1367 0.961 . S
H1382 C1367 0.961 . S
H1383 C1367 0.961 . S
H1384 C1368 0.931 . S
H1385 C1373 0.930 . S
H1386 C1374 0.956 . S
H1387 C1374 0.961 . S
H1388 C1374 0.961 . S
H1389 C1375 0.958 . S
H1390 C1375 0.961 . S
H1391 C1375 0.960 . S
C1392 C1393 1.391 . S
C1392 C1394 1.394 . S
C1392 H1408 0.931 . S
C1393 C1392 1.391 . S
C1393 C1397 1.376 . S
C1394 C1392 1.394 . S
C1394 C1395 1.369 . S
C1394 C1398 1.531 . S
C1395 C1394 1.369 . S
C1395 C1396 1.410 . S
C1395 C1403 1.503 1_556 S
C1396 C1395 1.410 . S
C1396 C1397 1.392 . S
C1396 C1399 1.511 . S
C1397 C1393 1.376 . S
C1397 C1396 1.392 . S
C1397 H1409 0.929 . S
C1398 C1394 1.531 . S
C1398 H1410 0.957 1_556 S
C1398 H1411 0.962 . S
C1398 H1412 0.960 . S
C1399 C1396 1.511 . S
C1399 H1413 0.961 . S
C1399 H1414 0.961 1_556 S
C1399 H1415 0.961 . S
C1400 C1401 1.370 . S
C1400 C1402 1.363 . S
C1400 H1416 0.931 . S
C1401 C1400 1.370 . S
C1401 C1405 1.408 . S
C1402 C1400 1.363 . S
C1402 C1403 1.370 . S
C1402 C1406 1.524 . S
C1403 C1395 1.503 1_554 S
C1403 C1402 1.370 . S
C1403 C1404 1.403 . S
C1404 C1403 1.403 . S
C1404 C1405 1.404 . S
C1404 C1407 1.539 . S
C1405 C1401 1.408 . S
C1405 C1404 1.404 . S
C1405 H1417 0.930 . S
C1406 C1402 1.524 . S
C1406 H1418 0.956 . S
C1406 H1419 0.961 . S
C1406 H1420 0.961 . S
C1407 C1404 1.539 . S
C1407 H1421 0.958 . S
C1407 H1422 0.961 . S
C1407 H1423 0.960 1_554 S
H1408 C1392 0.931 . S
H1409 C1397 0.929 . S
H1410 C1398 0.957 1_554 S
H1411 C1398 0.962 . S
H1412 C1398 0.960 . S
H1413 C1399 0.961 . S
H1414 C1399 0.961 1_554 S
H1415 C1399 0.961 . S
H1416 C1400 0.931 . S
H1417 C1405 0.930 . S
H1418 C1406 0.956 . S
H1419 C1406 0.961 . S
H1420 C1406 0.961 . S
H1421 C1407 0.958 . S
H1422 C1407 0.961 . S
H1423 C1407 0.960 1_556 S
C1424 C1425 1.391 . S
C1424 C1426 1.394 . S
C1424 H1440 0.931 1_655 S
C1425 C1424 1.391 . S
C1425 C1429 1.376 . S
C1426 C1424 1.394 . S
C1426 C1427 1.369 . S
C1426 C1430 1.531 1_655 S
C1427 C1426 1.369 . S
C1427 C1428 1.410 . S
C1427 C1435 1.503 . S
C1428 C1427 1.410 . S
C1428 C1429 1.392 . S
C1428 C1431 1.511 . S
C1429 C1425 1.376 . S
C1429 C1428 1.392 . S
C1429 H1441 0.929 . S
C1430 C1426 1.531 1_455 S
C1430 H1442 0.960 1_455 S
C1430 H1443 0.962 . S
C1430 H1444 0.960 . S
C1431 C1428 1.511 . S
C1431 H1445 0.961 . S
C1431 H1446 0.961 . S
C1431 H1447 0.961 . S
C1432 C1433 1.370 1_455 S
C1432 C1434 1.363 . S
C1432 H1448 0.931 . S
C1433 C1432 1.370 1_655 S
C1433 C1437 1.408 . S
C1434 C1432 1.363 . S
C1434 C1435 1.370 1_455 S
C1434 C1438 1.524 . S
C1435 C1427 1.503 . S
C1435 C1434 1.370 1_655 S
C1435 C1436 1.403 . S
C1436 C1435 1.403 . S
C1436 C1437 1.404 . S
C1436 C1439 1.539 . S
C1437 C1433 1.408 . S
C1437 C1436 1.404 . S
C1437 H1449 0.930 . S
C1438 C1434 1.524 . S
C1438 H1450 0.956 . S
C1438 H1451 0.961 . S
C1438 H1452 0.961 . S
C1439 C1436 1.539 . S
C1439 H1453 0.958 . S
C1439 H1454 0.961 . S
C1439 H1455 0.960 . S
H1440 C1424 0.931 1_455 S
H1441 C1429 0.929 . S
H1442 C1430 0.960 1_655 S
H1443 C1430 0.962 . S
H1444 C1430 0.960 . S
H1445 C1431 0.961 . S
H1446 C1431 0.961 . S
H1447 C1431 0.961 . S
H1448 C1432 0.931 . S
H1449 C1437 0.930 . S
H1450 C1438 0.956 . S
H1451 C1438 0.961 . S
H1452 C1438 0.961 . S
H1453 C1439 0.958 . S
H1454 C1439 0.961 . S
H1455 C1439 0.960 . S
C1456 C1457 1.391 . S
C1456 C1458 1.394 . S
C1456 H1472 0.931 . S
C1457 C1456 1.391 . S
C1457 C1461 1.376 . S
C1458 C1456 1.394 . S
C1458 C1459 1.369 . S
C1458 C1462 1.531 . S
C1459 C1458 1.369 . S
C1459 C1460 1.410 . S
C1459 C1467 1.503 . S
C1460 C1459 1.410 . S
C1460 C1461 1.392 . S
C1460 C1463 1.511 . S
C1461 C1457 1.376 . S
C1461 C1460 1.392 . S
C1461 H1473 0.929 . S
C1462 C1458 1.531 . S
C1462 H1474 0.960 . S
C1462 H1475 0.962 . S
C1462 H1476 0.960 . S
C1463 C1460 1.511 . S
C1463 H1477 0.961 . S
C1463 H1478 0.961 . S
C1463 H1479 0.961 . S
C1464 C1465 1.370 . S
C1464 C1466 1.363 . S
C1464 H1480 0.931 . S
C1465 C1464 1.370 . S
C1465 C1469 1.408 . S
C1466 C1464 1.363 . S
C1466 C1467 1.370 . S
C1466 C1470 1.524 . S
C1467 C1459 1.503 . S
C1467 C1466 1.370 . S
C1467 C1468 1.403 . S
C1468 C1467 1.403 . S
C1468 C1469 1.404 . S
C1468 C1471 1.539 . S
C1469 C1465 1.408 . S
C1469 C1468 1.404 . S
C1469 H1481 0.930 . S
C1470 C1466 1.524 . S
C1470 H1482 0.956 . S
C1470 H1483 0.961 . S
C1470 H1484 0.961 . S
C1471 C1468 1.539 . S
C1471 H1485 0.958 . S
C1471 H1486 0.961 . S
C1471 H1487 0.960 . S
H1472 C1456 0.931 . S
H1473 C1461 0.929 . S
H1474 C1462 0.960 . S
H1475 C1462 0.962 . S
H1476 C1462 0.960 . S
H1477 C1463 0.961 . S
H1478 C1463 0.961 . S
H1479 C1463 0.961 . S
H1480 C1464 0.931 . S
H1481 C1469 0.930 . S
H1482 C1470 0.956 . S
H1483 C1470 0.961 . S
H1484 C1470 0.961 . S
H1485 C1471 0.958 . S
H1486 C1471 0.961 . S
H1487 C1471 0.960 . S
C1488 C1489 1.391 . S
C1488 C1490 1.394 . S
C1488 H1504 0.931 . S
C1489 C1488 1.391 . S
C1489 C1493 1.376 . S
C1490 C1488 1.394 . S
C1490 C1491 1.369 . S
C1490 C1494 1.531 . S
C1491 C1490 1.369 . S
C1491 C1492 1.410 . S
C1491 C1499 1.503 . S
C1492 C1491 1.410 . S
C1492 C1493 1.392 . S
C1492 C1495 1.511 . S
C1493 C1489 1.376 . S
C1493 C1492 1.392 . S
C1493 H1505 0.929 . S
C1494 C1490 1.531 . S
C1494 H1506 0.960 . S
C1494 H1507 0.962 . S
C1494 H1508 0.960 . S
C1495 C1492 1.511 . S
C1495 H1509 0.961 . S
C1495 H1510 0.961 . S
C1495 H1511 0.961 . S
C1496 C1497 1.370 . S
C1496 C1498 1.363 . S
C1496 H1512 0.931 . S
C1497 C1496 1.370 . S
C1497 C1501 1.408 . S
C1498 C1496 1.363 . S
C1498 C1499 1.370 . S
C1498 C1502 1.524 . S
C1499 C1491 1.503 . S
C1499 C1498 1.370 . S
C1499 C1500 1.403 . S
C1500 C1499 1.403 . S
C1500 C1501 1.404 . S
C1500 C1503 1.539 . S
C1501 C1497 1.408 . S
C1501 C1500 1.404 . S
C1501 H1513 0.930 . S
C1502 C1498 1.524 . S
C1502 H1514 0.956 . S
C1502 H1515 0.961 . S
C1502 H1516 0.961 . S
C1503 C1500 1.539 . S
C1503 H1517 0.958 . S
C1503 H1518 0.961 . S
C1503 H1519 0.960 . S
H1504 C1488 0.931 . S
H1505 C1493 0.929 . S
H1506 C1494 0.960 . S
H1507 C1494 0.962 . S
H1508 C1494 0.960 . S
H1509 C1495 0.961 . S
H1510 C1495 0.961 . S
H1511 C1495 0.961 . S
H1512 C1496 0.931 . S
H1513 C1501 0.930 . S
H1514 C1502 0.956 . S
H1515 C1502 0.961 . S
H1516 C1502 0.961 . S
H1517 C1503 0.958 . S
H1518 C1503 0.961 . S
H1519 C1503 0.960 . S
C1520 C1521 1.391 . S
C1520 C1522 1.394 . S
C1520 H1536 0.931 . S
C1521 C1520 1.391 . S
C1521 C1525 1.376 . S
C1522 C1520 1.394 . S
C1522 C1523 1.369 . S
C1522 C1526 1.531 . S
C1523 C1522 1.369 . S
C1523 C1524 1.410 . S
C1523 C1531 1.503 . S
C1524 C1523 1.410 . S
C1524 C1525 1.392 . S
C1524 C1527 1.511 . S
C1525 C1521 1.376 . S
C1525 C1524 1.392 . S
C1525 H1537 0.929 . S
C1526 C1522 1.531 . S
C1526 H1538 0.960 . S
C1526 H1539 0.962 . S
C1526 H1540 0.960 . S
C1527 C1524 1.511 . S
C1527 H1541 0.961 . S
C1527 H1542 0.961 . S
C1527 H1543 0.961 . S
C1528 C1529 1.370 . S
C1528 C1530 1.363 . S
C1528 H1544 0.931 . S
C1529 C1528 1.370 . S
C1529 C1533 1.408 . S
C1530 C1528 1.363 . S
C1530 C1531 1.370 . S
C1530 C1534 1.524 . S
C1531 C1523 1.503 . S
C1531 C1530 1.370 . S
C1531 C1532 1.403 . S
C1532 C1531 1.403 . S
C1532 C1533 1.404 . S
C1532 C1535 1.539 . S
C1533 C1529 1.408 . S
C1533 C1532 1.404 . S
C1533 H1545 0.930 . S
C1534 C1530 1.524 . S
C1534 H1546 0.956 . S
C1534 H1547 0.961 . S
C1534 H1548 0.961 . S
C1535 C1532 1.539 . S
C1535 H1549 0.958 . S
C1535 H1550 0.961 . S
C1535 H1551 0.960 . S
H1536 C1520 0.931 . S
H1537 C1525 0.929 . S
H1538 C1526 0.960 . S
H1539 C1526 0.962 . S
H1540 C1526 0.960 . S
H1541 C1527 0.961 . S
H1542 C1527 0.961 . S
H1543 C1527 0.961 . S
H1544 C1528 0.931 . S
H1545 C1533 0.930 . S
H1546 C1534 0.956 . S
H1547 C1534 0.961 . S
H1548 C1534 0.961 . S
H1549 C1535 0.958 . S
H1550 C1535 0.961 . S
H1551 C1535 0.960 . S
C1552 C1553 1.391 . S
C1552 C1554 1.394 . S
C1552 H1568 0.931 . S
C1553 C1552 1.391 . S
C1553 C1557 1.376 . S
C1554 C1552 1.394 . S
C1554 C1555 1.369 . S
C1554 C1558 1.531 . S
C1555 C1554 1.369 . S
C1555 C1556 1.410 . S
C1555 C1563 1.503 . S
C1556 C1555 1.410 . S
C1556 C1557 1.392 . S
C1556 C1559 1.511 . S
C1557 C1553 1.376 . S
C1557 C1556 1.392 . S
C1557 H1569 0.929 . S
C1558 C1554 1.531 . S
C1558 H1570 0.960 . S
C1558 H1571 0.962 . S
C1558 H1572 0.960 . S
C1559 C1556 1.511 . S
C1559 H1573 0.961 . S
C1559 H1574 0.961 . S
C1559 H1575 0.961 . S
C1560 C1561 1.370 . S
C1560 C1562 1.363 . S
C1560 H1576 0.931 . S
C1561 C1560 1.370 . S
C1561 C1565 1.408 . S
C1562 C1560 1.363 . S
C1562 C1563 1.370 . S
C1562 C1566 1.524 . S
C1563 C1555 1.503 . S
C1563 C1562 1.370 . S
C1563 C1564 1.403 . S
C1564 C1563 1.403 . S
C1564 C1565 1.404 . S
C1564 C1567 1.539 . S
C1565 C1561 1.408 . S
C1565 C1564 1.404 . S
C1565 H1577 0.930 . S
C1566 C1562 1.524 . S
C1566 H1578 0.956 . S
C1566 H1579 0.961 . S
C1566 H1580 0.961 . S
C1567 C1564 1.539 . S
C1567 H1581 0.958 . S
C1567 H1582 0.961 . S
C1567 H1583 0.960 . S
H1568 C1552 0.931 . S
H1569 C1557 0.929 . S
H1570 C1558 0.960 . S
H1571 C1558 0.962 . S
H1572 C1558 0.960 . S
H1573 C1559 0.961 . S
H1574 C1559 0.961 . S
H1575 C1559 0.961 . S
H1576 C1560 0.931 . S
H1577 C1565 0.930 . S
H1578 C1566 0.956 . S
H1579 C1566 0.961 . S
H1580 C1566 0.961 . S
H1581 C1567 0.958 . S
H1582 C1567 0.961 . S
H1583 C1567 0.960 . S
C1584 C1585 1.391 . S
C1584 C1586 1.394 . S
C1584 H1600 0.931 . S
C1585 C1584 1.391 . S
C1585 C1589 1.376 . S
C1586 C1584 1.394 . S
C1586 C1587 1.369 . S
C1586 C1590 1.531 . S
C1587 C1586 1.369 . S
C1587 C1588 1.410 . S
C1587 C1595 1.503 . S
C1588 C1587 1.410 . S
C1588 C1589 1.392 . S
C1588 C1591 1.511 . S
C1589 C1585 1.376 . S
C1589 C1588 1.392 . S
C1589 H1601 0.929 1_545 S
C1590 C1586 1.531 . S
C1590 H1602 0.960 . S
C1590 H1603 0.962 . S
C1590 H1604 0.960 . S
C1591 C1588 1.511 . S
C1591 H1605 0.961 . S
C1591 H1606 0.961 . S
C1591 H1607 0.961 . S
C1592 C1593 1.370 . S
C1592 C1594 1.363 . S
C1592 H1608 0.931 . S
C1593 C1592 1.370 . S
C1593 C1597 1.408 . S
C1594 C1592 1.363 . S
C1594 C1595 1.370 . S
C1594 C1598 1.524 . S
C1595 C1587 1.503 . S
C1595 C1594 1.370 . S
C1595 C1596 1.403 . S
C1596 C1595 1.403 . S
C1596 C1597 1.404 . S
C1596 C1599 1.539 . S
C1597 C1593 1.408 . S
C1597 C1596 1.404 . S
C1597 H1609 0.930 . S
C1598 C1594 1.524 . S
C1598 H1610 0.956 . S
C1598 H1611 0.961 . S
C1598 H1612 0.961 . S
C1599 C1596 1.539 . S
C1599 H1613 0.958 . S
C1599 H1614 0.961 . S
C1599 H1615 0.960 . S
H1600 C1584 0.931 . S
H1601 C1589 0.929 1_565 S
H1602 C1590 0.960 . S
H1603 C1590 0.962 . S
H1604 C1590 0.960 . S
H1605 C1591 0.961 . S
H1606 C1591 0.961 . S
H1607 C1591 0.961 . S
H1608 C1592 0.931 . S
H1609 C1597 0.930 . S
H1610 C1598 0.956 . S
H1611 C1598 0.961 . S
H1612 C1598 0.961 . S
H1613 C1599 0.958 . S
H1614 C1599 0.961 . S
H1615 C1599 0.960 . S
C1616 C1617 1.391 . S
C1616 C1618 1.394 . S
C1616 H1632 0.931 . S
C1617 C1616 1.391 . S
C1617 C1621 1.376 . S
C1618 C1616 1.394 . S
C1618 C1619 1.369 . S
C1618 C1622 1.531 . S
C1619 C1618 1.369 . S
C1619 C1620 1.410 . S
C1619 C1627 1.503 . S
C1620 C1619 1.410 . S
C1620 C1621 1.392 . S
C1620 C1623 1.511 . S
C1621 C1617 1.376 . S
C1621 C1620 1.392 . S
C1621 H1633 0.929 . S
C1622 C1618 1.531 . S
C1622 H1634 0.960 . S
C1622 H1635 0.962 . S
C1622 H1636 0.960 . S
C1623 C1620 1.511 . S
C1623 H1637 0.961 . S
C1623 H1638 0.961 . S
C1623 H1639 0.961 . S
C1624 C1625 1.370 . S
C1624 C1626 1.363 . S
C1624 H1640 0.931 . S
C1625 C1624 1.370 . S
C1625 C1629 1.408 . S
C1626 C1624 1.363 . S
C1626 C1627 1.370 . S
C1626 C1630 1.524 . S
C1627 C1619 1.503 . S
C1627 C1626 1.370 . S
C1627 C1628 1.403 . S
C1628 C1627 1.403 . S
C1628 C1629 1.404 . S
C1628 C1631 1.539 . S
C1629 C1625 1.408 . S
C1629 C1628 1.404 . S
C1629 H1641 0.930 . S
C1630 C1626 1.524 . S
C1630 H1642 0.956 . S
C1630 H1643 0.961 . S
C1630 H1644 0.961 . S
C1631 C1628 1.539 . S
C1631 H1645 0.958 . S
C1631 H1646 0.961 . S
C1631 H1647 0.960 . S
H1632 C1616 0.931 . S
H1633 C1621 0.929 . S
H1634 C1622 0.960 . S
H1635 C1622 0.962 . S
H1636 C1622 0.960 . S
H1637 C1623 0.961 . S
H1638 C1623 0.961 . S
H1639 C1623 0.961 . S
H1640 C1624 0.931 . S
H1641 C1629 0.930 . S
H1642 C1630 0.956 . S
H1643 C1630 0.961 . S
H1644 C1630 0.961 . S
H1645 C1631 0.958 . S
H1646 C1631 0.961 . S
H1647 C1631 0.960 . S
C1648 C1649 1.391 . S
C1648 C1650 1.394 . S
C1648 H1664 0.931 . S
C1649 C1648 1.391 . S
C1649 C1653 1.376 . S
C1650 C1648 1.394 . S
C1650 C1651 1.369 . S
C1650 C1654 1.531 . S
C1651 C1650 1.369 . S
C1651 C1652 1.410 . S
C1651 C1659 1.503 . S
C1652 C1651 1.410 . S
C1652 C1653 1.392 . S
C1652 C1655 1.511 . S
C1653 C1649 1.376 . S
C1653 C1652 1.392 . S
C1653 H1665 0.929 . S
C1654 C1650 1.531 . S
C1654 H1666 0.960 . S
C1654 H1667 0.962 . S
C1654 H1668 0.960 . S
C1655 C1652 1.511 . S
C1655 H1669 0.961 . S
C1655 H1670 0.961 . S
C1655 H1671 0.961 . S
C1656 C1657 1.370 . S
C1656 C1658 1.363 . S
C1656 H1672 0.931 . S
C1657 C1656 1.370 . S
C1657 C1661 1.408 . S
C1658 C1656 1.363 . S
C1658 C1659 1.370 . S
C1658 C1662 1.524 . S
C1659 C1651 1.503 . S
C1659 C1658 1.370 . S
C1659 C1660 1.403 . S
C1660 C1659 1.403 . S
C1660 C1661 1.404 . S
C1660 C1663 1.539 . S
C1661 C1657 1.408 . S
C1661 C1660 1.404 . S
C1661 H1673 0.930 . S
C1662 C1658 1.524 . S
C1662 H1674 0.956 . S
C1662 H1675 0.961 . S
C1662 H1676 0.961 . S
C1663 C1660 1.539 . S
C1663 H1677 0.958 . S
C1663 H1678 0.961 . S
C1663 H1679 0.960 . S
H1664 C1648 0.931 . S
H1665 C1653 0.929 . S
H1666 C1654 0.960 . S
H1667 C1654 0.962 . S
H1668 C1654 0.960 . S
H1669 C1655 0.961 . S
H1670 C1655 0.961 . S
H1671 C1655 0.961 . S
H1672 C1656 0.931 . S
H1673 C1661 0.930 . S
H1674 C1662 0.956 . S
H1675 C1662 0.961 . S
H1676 C1662 0.961 . S
H1677 C1663 0.958 . S
H1678 C1663 0.961 . S
H1679 C1663 0.960 . S
C1680 C1681 1.391 . S
C1680 C1682 1.394 . S
C1680 H1696 0.931 . S
C1681 C1680 1.391 . S
C1681 C1685 1.376 . S
C1682 C1680 1.394 . S
C1682 C1683 1.369 . S
C1682 C1686 1.531 . S
C1683 C1682 1.369 . S
C1683 C1684 1.410 . S
C1683 C1691 1.503 . S
C1684 C1683 1.410 . S
C1684 C1685 1.392 . S
C1684 C1687 1.511 . S
C1685 C1681 1.376 . S
C1685 C1684 1.392 . S
C1685 H1697 0.929 . S
C1686 C1682 1.531 . S
C1686 H1698 0.960 . S
C1686 H1699 0.962 . S
C1686 H1700 0.960 . S
C1687 C1684 1.511 . S
C1687 H1701 0.961 . S
C1687 H1702 0.961 . S
C1687 H1703 0.961 . S
C1688 C1689 1.370 . S
C1688 C1690 1.363 . S
C1688 H1704 0.931 . S
C1689 C1688 1.370 . S
C1689 C1693 1.408 . S
C1690 C1688 1.363 . S
C1690 C1691 1.370 . S
C1690 C1694 1.524 . S
C1691 C1683 1.503 . S
C1691 C1690 1.370 . S
C1691 C1692 1.403 . S
C1692 C1691 1.403 . S
C1692 C1693 1.404 . S
C1692 C1695 1.539 . S
C1693 C1689 1.408 . S
C1693 C1692 1.404 . S
C1693 H1705 0.930 . S
C1694 C1690 1.524 . S
C1694 H1706 0.956 . S
C1694 H1707 0.961 . S
C1694 H1708 0.961 . S
C1695 C1692 1.539 . S
C1695 H1709 0.958 . S
C1695 H1710 0.961 . S
C1695 H1711 0.960 . S
H1696 C1680 0.931 . S
H1697 C1685 0.929 . S
H1698 C1686 0.960 . S
H1699 C1686 0.962 . S
H1700 C1686 0.960 . S
H1701 C1687 0.961 . S
H1702 C1687 0.961 . S
H1703 C1687 0.961 . S
H1704 C1688 0.931 . S
H1705 C1693 0.930 . S
H1706 C1694 0.956 . S
H1707 C1694 0.961 . S
H1708 C1694 0.961 . S
H1709 C1695 0.958 . S
H1710 C1695 0.961 . S
H1711 C1695 0.960 . S
C1712 C1713 1.391 . S
C1712 C1714 1.394 . S
C1712 H1728 0.931 . S
C1713 C1712 1.391 . S
C1713 C1717 1.376 . S
C1714 C1712 1.394 . S
C1714 C1715 1.369 . S
C1714 C1718 1.531 . S
C1715 C1714 1.369 . S
C1715 C1716 1.410 . S
C1715 C1723 1.503 . S
C1716 C1715 1.410 . S
C1716 C1717 1.392 . S
C1716 C1719 1.511 . S
C1717 C1713 1.376 . S
C1717 C1716 1.392 . S
C1717 H1729 0.929 . S
C1718 C1714 1.531 . S
C1718 H1730 0.960 . S
C1718 H1731 0.962 . S
C1718 H1732 0.960 . S
C1719 C1716 1.511 . S
C1719 H1733 0.961 . S
C1719 H1734 0.961 . S
C1719 H1735 0.961 . S
C1720 C1721 1.370 . S
C1720 C1722 1.363 . S
C1720 H1736 0.931 . S
C1721 C1720 1.370 . S
C1721 C1725 1.408 . S
C1722 C1720 1.363 . S
C1722 C1723 1.370 . S
C1722 C1726 1.524 . S
C1723 C1715 1.503 . S
C1723 C1722 1.370 . S
C1723 C1724 1.403 . S
C1724 C1723 1.403 . S
C1724 C1725 1.404 . S
C1724 C1727 1.539 . S
C1725 C1721 1.408 . S
C1725 C1724 1.404 . S
C1725 H1737 0.930 . S
C1726 C1722 1.524 . S
C1726 H1738 0.956 . S
C1726 H1739 0.961 . S
C1726 H1740 0.961 . S
C1727 C1724 1.539 . S
C1727 H1741 0.958 . S
C1727 H1742 0.961 . S
C1727 H1743 0.960 . S
H1728 C1712 0.931 . S
H1729 C1717 0.929 . S
H1730 C1718 0.960 . S
H1731 C1718 0.962 . S
H1732 C1718 0.960 . S
H1733 C1719 0.961 . S
H1734 C1719 0.961 . S
H1735 C1719 0.961 . S
H1736 C1720 0.931 . S
H1737 C1725 0.930 . S
H1738 C1726 0.956 . S
H1739 C1726 0.961 . S
H1740 C1726 0.961 . S
H1741 C1727 0.958 . S
H1742 C1727 0.961 . S
H1743 C1727 0.960 . S
C1744 C1745 1.391 . S
C1744 C1746 1.394 . S
C1744 H1760 0.931 . S
C1745 C1744 1.391 . S
C1745 C1749 1.376 . S
C1746 C1744 1.394 . S
C1746 C1747 1.369 . S
C1746 C1750 1.531 . S
C1747 C1746 1.369 . S
C1747 C1748 1.410 . S
C1747 C1755 1.503 . S
C1748 C1747 1.410 . S
C1748 C1749 1.392 . S
C1748 C1751 1.511 . S
C1749 C1745 1.376 . S
C1749 C1748 1.392 . S
C1749 H1761 0.929 . S
C1750 C1746 1.531 . S
C1750 H1762 0.960 . S
C1750 H1763 0.962 . S
C1750 H1764 0.960 . S
C1751 C1748 1.511 . S
C1751 H1765 0.961 . S
C1751 H1766 0.961 . S
C1751 H1767 0.961 . S
C1752 C1753 1.370 . S
C1752 C1754 1.363 . S
C1752 H1768 0.931 . S
C1753 C1752 1.370 . S
C1753 C1757 1.408 . S
C1754 C1752 1.363 . S
C1754 C1755 1.370 . S
C1754 C1758 1.524 . S
C1755 C1747 1.503 . S
C1755 C1754 1.370 . S
C1755 C1756 1.403 . S
C1756 C1755 1.403 . S
C1756 C1757 1.404 . S
C1756 C1759 1.539 . S
C1757 C1753 1.408 . S
C1757 C1756 1.404 . S
C1757 H1769 0.930 . S
C1758 C1754 1.524 . S
C1758 H1770 0.956 . S
C1758 H1771 0.961 . S
C1758 H1772 0.961 . S
C1759 C1756 1.539 . S
C1759 H1773 0.958 . S
C1759 H1774 0.961 . S
C1759 H1775 0.960 . S
H1760 C1744 0.931 . S
H1761 C1749 0.929 . S
H1762 C1750 0.960 . S
H1763 C1750 0.962 . S
H1764 C1750 0.960 . S
H1765 C1751 0.961 . S
H1766 C1751 0.961 . S
H1767 C1751 0.961 . S
H1768 C1752 0.931 . S
H1769 C1757 0.930 . S
H1770 C1758 0.956 . S
H1771 C1758 0.961 . S
H1772 C1758 0.961 . S
H1773 C1759 0.958 . S
H1774 C1759 0.961 . S
H1775 C1759 0.960 . S
C1776 C1777 1.391 . S
C1776 C1778 1.394 . S
C1776 H1792 0.931 . S
C1777 C1776 1.391 . S
C1777 C1781 1.376 . S
C1778 C1776 1.394 . S
C1778 C1779 1.369 . S
C1778 C1782 1.531 . S
C1779 C1778 1.369 . S
C1779 C1780 1.410 . S
C1779 C1787 1.503 . S
C1780 C1779 1.410 . S
C1780 C1781 1.392 . S
C1780 C1783 1.511 . S
C1781 C1777 1.376 . S
C1781 C1780 1.392 . S
C1781 H1793 0.929 . S
C1782 C1778 1.531 . S
C1782 H1794 0.960 . S
C1782 H1795 0.962 . S
C1782 H1796 0.960 . S
C1783 C1780 1.511 . S
C1783 H1797 0.961 . S
C1783 H1798 0.961 . S
C1783 H1799 0.961 . S
C1784 C1785 1.370 . S
C1784 C1786 1.363 . S
C1784 H1800 0.931 . S
C1785 C1784 1.370 . S
C1785 C1789 1.408 . S
C1786 C1784 1.363 . S
C1786 C1787 1.370 . S
C1786 C1790 1.524 . S
C1787 C1779 1.503 . S
C1787 C1786 1.370 . S
C1787 C1788 1.403 . S
C1788 C1787 1.403 . S
C1788 C1789 1.404 . S
C1788 C1791 1.539 . S
C1789 C1785 1.408 . S
C1789 C1788 1.404 . S
C1789 H1801 0.930 . S
C1790 C1786 1.524 . S
C1790 H1802 0.956 . S
C1790 H1803 0.961 . S
C1790 H1804 0.961 . S
C1791 C1788 1.539 . S
C1791 H1805 0.958 . S
C1791 H1806 0.961 . S
C1791 H1807 0.960 . S
H1792 C1776 0.931 . S
H1793 C1781 0.929 . S
H1794 C1782 0.960 . S
H1795 C1782 0.962 . S
H1796 C1782 0.960 . S
H1797 C1783 0.961 . S
H1798 C1783 0.961 . S
H1799 C1783 0.961 . S
H1800 C1784 0.931 . S
H1801 C1789 0.930 . S
H1802 C1790 0.956 . S
H1803 C1790 0.961 . S
H1804 C1790 0.961 . S
H1805 C1791 0.958 . S
H1806 C1791 0.961 . S
H1807 C1791 0.960 . S
C1808 C1809 1.391 . S
C1808 C1810 1.394 . S
C1808 H1824 0.931 . S
C1809 C1808 1.391 . S
C1809 C1813 1.376 . S
C1810 C1808 1.394 . S
C1810 C1811 1.369 . S
C1810 C1814 1.531 . S
C1811 C1810 1.369 . S
C1811 C1812 1.410 . S
C1811 C1819 1.503 . S
C1812 C1811 1.410 . S
C1812 C1813 1.392 . S
C1812 C1815 1.511 . S
C1813 C1809 1.376 . S
C1813 C1812 1.392 . S
C1813 H1825 0.929 . S
C1814 C1810 1.531 . S
C1814 H1826 0.960 . S
C1814 H1827 0.962 . S
C1814 H1828 0.960 . S
C1815 C1812 1.511 . S
C1815 H1829 0.961 . S
C1815 H1830 0.961 . S
C1815 H1831 0.961 . S
C1816 C1817 1.370 . S
C1816 C1818 1.363 . S
C1816 H1832 0.931 . S
C1817 C1816 1.370 . S
C1817 C1821 1.408 . S
C1818 C1816 1.363 . S
C1818 C1819 1.370 . S
C1818 C1822 1.524 . S
C1819 C1811 1.503 . S
C1819 C1818 1.370 . S
C1819 C1820 1.403 . S
C1820 C1819 1.403 . S
C1820 C1821 1.404 . S
C1820 C1823 1.539 . S
C1821 C1817 1.408 . S
C1821 C1820 1.404 . S
C1821 H1833 0.930 . S
C1822 C1818 1.524 . S
C1822 H1834 0.956 . S
C1822 H1835 0.961 . S
C1822 H1836 0.961 . S
C1823 C1820 1.539 . S
C1823 H1837 0.958 . S
C1823 H1838 0.961 . S
C1823 H1839 0.960 . S
H1824 C1808 0.931 . S
H1825 C1813 0.929 . S
H1826 C1814 0.960 . S
H1827 C1814 0.962 . S
H1828 C1814 0.960 . S
H1829 C1815 0.961 . S
H1830 C1815 0.961 . S
H1831 C1815 0.961 . S
H1832 C1816 0.931 . S
H1833 C1821 0.930 . S
H1834 C1822 0.956 . S
H1835 C1822 0.961 . S
H1836 C1822 0.961 . S
H1837 C1823 0.958 . S
H1838 C1823 0.961 . S
H1839 C1823 0.960 . S
C1840 C1841 1.391 . S
C1840 C1842 1.394 . S
C1840 H1856 0.931 . S
C1841 C1840 1.391 . S
C1841 C1845 1.376 . S
C1842 C1840 1.394 . S
C1842 C1843 1.369 . S
C1842 C1846 1.531 . S
C1843 C1842 1.369 . S
C1843 C1844 1.410 . S
C1843 C1851 1.503 . S
C1844 C1843 1.410 . S
C1844 C1845 1.392 . S
C1844 C1847 1.511 . S
C1845 C1841 1.376 . S
C1845 C1844 1.392 . S
C1845 H1857 0.929 . S
C1846 C1842 1.531 . S
C1846 H1858 0.960 . S
C1846 H1859 0.962 . S
C1846 H1860 0.960 . S
C1847 C1844 1.511 . S
C1847 H1861 0.961 . S
C1847 H1862 0.961 . S
C1847 H1863 0.961 . S
C1848 C1849 1.370 . S
C1848 C1850 1.363 . S
C1848 H1864 0.931 . S
C1849 C1848 1.370 . S
C1849 C1853 1.408 . S
C1850 C1848 1.363 . S
C1850 C1851 1.370 . S
C1850 C1854 1.524 . S
C1851 C1843 1.503 . S
C1851 C1850 1.370 . S
C1851 C1852 1.403 . S
C1852 C1851 1.403 . S
C1852 C1853 1.404 . S
C1852 C1855 1.539 . S
C1853 C1849 1.408 . S
C1853 C1852 1.404 . S
C1853 H1865 0.930 . S
C1854 C1850 1.524 . S
C1854 H1866 0.956 . S
C1854 H1867 0.961 . S
C1854 H1868 0.961 . S
C1855 C1852 1.539 . S
C1855 H1869 0.958 . S
C1855 H1870 0.961 . S
C1855 H1871 0.960 . S
H1856 C1840 0.931 . S
H1857 C1845 0.929 . S
H1858 C1846 0.960 . S
H1859 C1846 0.962 . S
H1860 C1846 0.960 . S
H1861 C1847 0.961 . S
H1862 C1847 0.961 . S
H1863 C1847 0.961 . S
H1864 C1848 0.931 . S
H1865 C1853 0.930 . S
H1866 C1854 0.956 . S
H1867 C1854 0.961 . S
H1868 C1854 0.961 . S
H1869 C1855 0.958 . S
H1870 C1855 0.961 . S
H1871 C1855 0.960 . S
C1872 C1873 1.391 . S
C1872 C1874 1.394 . S
C1872 H1888 0.931 . S
C1873 C1872 1.391 . S
C1873 C1877 1.376 . S
C1874 C1872 1.394 . S
C1874 C1875 1.369 . S
C1874 C1878 1.531 . S
C1875 C1874 1.369 . S
C1875 C1876 1.410 . S
C1875 C1883 1.503 . S
C1876 C1875 1.410 . S
C1876 C1877 1.392 . S
C1876 C1879 1.511 . S
C1877 C1873 1.376 . S
C1877 C1876 1.392 . S
C1877 H1889 0.929 . S
C1878 C1874 1.531 . S
C1878 H1890 0.960 . S
C1878 H1891 0.962 . S
C1878 H1892 0.960 . S
C1879 C1876 1.511 . S
C1879 H1893 0.961 . S
C1879 H1894 0.961 . S
C1879 H1895 0.961 . S
C1880 C1881 1.370 . S
C1880 C1882 1.363 . S
C1880 H1896 0.931 . S
C1881 C1880 1.370 . S
C1881 C1885 1.408 . S
C1882 C1880 1.363 . S
C1882 C1883 1.370 . S
C1882 C1886 1.524 . S
C1883 C1875 1.503 . S
C1883 C1882 1.370 . S
C1883 C1884 1.403 . S
C1884 C1883 1.403 . S
C1884 C1885 1.404 . S
C1884 C1887 1.539 . S
C1885 C1881 1.408 . S
C1885 C1884 1.404 . S
C1885 H1897 0.930 . S
C1886 C1882 1.524 . S
C1886 H1898 0.956 . S
C1886 H1899 0.961 . S
C1886 H1900 0.961 . S
C1887 C1884 1.539 . S
C1887 H1901 0.958 . S
C1887 H1902 0.961 . S
C1887 H1903 0.960 . S
H1888 C1872 0.931 . S
H1889 C1877 0.929 . S
H1890 C1878 0.960 . S
H1891 C1878 0.962 . S
H1892 C1878 0.960 . S
H1893 C1879 0.961 . S
H1894 C1879 0.961 . S
H1895 C1879 0.961 . S
H1896 C1880 0.931 . S
H1897 C1885 0.930 . S
H1898 C1886 0.956 . S
H1899 C1886 0.961 . S
H1900 C1886 0.961 . S
H1901 C1887 0.958 . S
H1902 C1887 0.961 . S
H1903 C1887 0.960 . S
C1904 C1905 1.391 . S
C1904 C1906 1.394 . S
C1904 H1920 0.931 . S
C1905 C1904 1.391 . S
C1905 C1909 1.376 . S
C1906 C1904 1.394 . S
C1906 C1907 1.369 . S
C1906 C1910 1.531 . S
C1907 C1906 1.369 . S
C1907 C1908 1.410 . S
C1907 C1915 1.503 . S
C1908 C1907 1.410 . S
C1908 C1909 1.392 . S
C1908 C1911 1.511 . S
C1909 C1905 1.376 . S
C1909 C1908 1.392 . S
C1909 H1921 0.929 . S
C1910 C1906 1.531 . S
C1910 H1922 0.960 . S
C1910 H1923 0.962 . S
C1910 H1924 0.960 . S
C1911 C1908 1.511 . S
C1911 H1925 0.961 . S
C1911 H1926 0.961 . S
C1911 H1927 0.961 . S
C1912 C1913 1.370 . S
C1912 C1914 1.363 . S
C1912 H1928 0.931 . S
C1913 C1912 1.370 . S
C1913 C1917 1.408 . S
C1914 C1912 1.363 . S
C1914 C1915 1.370 . S
C1914 C1918 1.524 . S
C1915 C1907 1.503 . S
C1915 C1914 1.370 . S
C1915 C1916 1.403 . S
C1916 C1915 1.403 . S
C1916 C1917 1.404 . S
C1916 C1919 1.539 . S
C1917 C1913 1.408 . S
C1917 C1916 1.404 . S
C1917 H1929 0.930 . S
C1918 C1914 1.524 . S
C1918 H1930 0.956 . S
C1918 H1931 0.961 . S
C1918 H1932 0.961 . S
C1919 C1916 1.539 . S
C1919 H1933 0.958 . S
C1919 H1934 0.961 . S
C1919 H1935 0.960 . S
H1920 C1904 0.931 . S
H1921 C1909 0.929 . S
H1922 C1910 0.960 . S
H1923 C1910 0.962 . S
H1924 C1910 0.960 . S
H1925 C1911 0.961 . S
H1926 C1911 0.961 . S
H1927 C1911 0.961 . S
H1928 C1912 0.931 . S
H1929 C1917 0.930 . S
H1930 C1918 0.956 . S
H1931 C1918 0.961 . S
H1932 C1918 0.961 . S
H1933 C1919 0.958 . S
H1934 C1919 0.961 . S
H1935 C1919 0.960 . S
C1936 C1937 1.391 . S
C1936 C1938 1.394 . S
C1936 H1952 0.931 . S
C1937 C1936 1.391 . S
C1937 C1941 1.376 . S
C1938 C1936 1.394 . S
C1938 C1939 1.369 . S
C1938 C1942 1.531 . S
C1939 C1938 1.369 . S
C1939 C1940 1.410 . S
C1939 C1947 1.503 . S
C1940 C1939 1.410 . S
C1940 C1941 1.392 . S
C1940 C1943 1.511 . S
C1941 C1937 1.376 . S
C1941 C1940 1.392 . S
C1941 H1953 0.929 . S
C1942 C1938 1.531 . S
C1942 H1954 0.960 . S
C1942 H1955 0.962 . S
C1942 H1956 0.960 . S
C1943 C1940 1.511 . S
C1943 H1957 0.961 . S
C1943 H1958 0.961 . S
C1943 H1959 0.961 . S
C1944 C1945 1.370 . S
C1944 C1946 1.363 . S
C1944 H1960 0.931 . S
C1945 C1944 1.370 . S
C1945 C1949 1.408 . S
C1946 C1944 1.363 . S
C1946 C1947 1.370 . S
C1946 C1950 1.524 . S
C1947 C1939 1.503 . S
C1947 C1946 1.370 . S
C1947 C1948 1.403 . S
C1948 C1947 1.403 . S
C1948 C1949 1.404 . S
C1948 C1951 1.539 . S
C1949 C1945 1.408 . S
C1949 C1948 1.404 . S
C1949 H1961 0.930 . S
C1950 C1946 1.524 . S
C1950 H1962 0.956 . S
C1950 H1963 0.961 . S
C1950 H1964 0.961 . S
C1951 C1948 1.539 . S
C1951 H1965 0.958 . S
C1951 H1966 0.961 . S
C1951 H1967 0.960 . S
H1952 C1936 0.931 . S
H1953 C1941 0.929 . S
H1954 C1942 0.960 . S
H1955 C1942 0.962 . S
H1956 C1942 0.960 . S
H1957 C1943 0.961 . S
H1958 C1943 0.961 . S
H1959 C1943 0.961 . S
H1960 C1944 0.931 . S
H1961 C1949 0.930 . S
H1962 C1950 0.956 . S
H1963 C1950 0.961 . S
H1964 C1950 0.961 . S
H1965 C1951 0.958 . S
H1966 C1951 0.961 . S
H1967 C1951 0.960 . S
C945 C5 1.307 . S
C953 C772 1.281 . S
C977 C654 1.275 . S
C985 C64 1.300 . S
C1009 C713 1.293 . S
C1017 C123 1.285 . S
C1041 C595 1.285 . S
C1049 C182 1.297 . S
C1073 C241 1.294 . S
C1081 C890 1.284 . S
C1105 C300 1.264 . S
C1113 C536 1.299 . S
C1137 C831 1.269 . S
C1145 C359 1.301 . S
C1169 C418 1.282 . S
C1177 C477 1.289 . S
C1201 C239 1.641 . S
C1209 C3 1.643 . S
C1233 C62 1.631 . S
C1241 C298 1.644 . S
C1265 C121 1.647 . S
C1273 C357 1.636 . S
C1297 C416 1.628 . S
C1305 C180 1.644 . S
C1329 C475 1.647 . S
C1337 C593 1.637 . S
C1361 C534 1.643 . S
C1369 C652 1.635 . S
C1393 C829 1.624 . S
C1401 C711 1.643 . S
C1425 C770 1.644 . S
C1433 C888 1.640 . S
C1457 C347 1.376 . S
C1465 C52 1.400 . S
C1489 C111 1.403 . S
C1497 C406 1.390 . S
C1521 C170 1.383 . S
C1529 C465 1.396 . S
C1553 C288 1.393 . S
C1561 C229 1.391 . S
C1585 C269 1.692 . S
C1593 C623 1.671 . S
C1617 C151 1.699 . S
C1625 C505 1.676 . S
C1649 C682 1.655 . S
C1657 C387 1.677 . S
C1681 C564 1.668 . S
C1689 C33 1.672 . S
C1713 C524 1.398 . S
C1721 C760 1.390 . S
C1745 C642 1.405 . S
C1753 C937 1.388 . S
C1777 C819 1.387 . S
C1785 C583 1.397 . S
C1809 C701 1.379 . S
C1817 C878 1.398 . S
C1841 C859 1.665 . S
C1849 C92 1.690 . S
C1873 C800 1.651 . S
C1881 C328 1.683 . S
C1905 C918 1.654 . S
C1913 C210 1.687 . S
C1937 C741 1.658 . S
C1945 C446 1.689 . S
