# Generated by pormake.
# Topology ukf, (4)-cn, num edge types: 1
# Building blocks:
#     Node 0, Type 0, BuildingBlock: QUQFOY_clean_sbu_1, # of connection points: 4
#     Node 1, Type 0, BuildingBlock: QUQFOY_clean_sbu_1, # of connection points: 4
#     Node 2, Type 0, BuildingBlock: QUQFOY_clean_sbu_1, # of connection points: 4
#     Node 3, Type 0, BuildingBlock: QUQFOY_clean_sbu_1, # of connection points: 4
#     Node 4, Type 0, BuildingBlock: QUQFOY_clean_sbu_1, # of connection points: 4
#     Node 5, Type 0, BuildingBlock: QUQFOY_clean_sbu_1, # of connection points: 4
#     Node 6, Type 0, BuildingBlock: QUQFOY_clean_sbu_1, # of connection points: 4
#     Node 7, Type 0, BuildingBlock: QUQFOY_clean_sbu_1, # of connection points: 4
#     Node 8, Type 0, BuildingBlock: QUQFOY_clean_sbu_1, # of connection points: 4
#     Node 9, Type 0, BuildingBlock: QUQFOY_clean_sbu_1, # of connection points: 4
#     Node 10, Type 0, BuildingBlock: QUQFOY_clean_sbu_1, # of connection points: 4
#     Node 11, Type 0, BuildingBlock: QUQFOY_clean_sbu_1, # of connection points: 4
#     Edge 12, Type (0, 0), BuildingBlock: EZIPEK_clean_linker_0, # of connection points: 2
#     Edge 13, Type (0, 0), BuildingBlock: EZIPEK_clean_linker_0, # of connection points: 2
#     Edge 14, Type (0, 0), BuildingBlock: EZIPEK_clean_linker_0, # of connection points: 2
#     Edge 15, Type (0, 0), BuildingBlock: EZIPEK_clean_linker_0, # of connection points: 2
#     Edge 16, Type (0, 0), BuildingBlock: EZIPEK_clean_linker_0, # of connection points: 2
#     Edge 17, Type (0, 0), BuildingBlock: EZIPEK_clean_linker_0, # of connection points: 2
#     Edge 18, Type (0, 0), BuildingBlock: EZIPEK_clean_linker_0, # of connection points: 2
#     Edge 19, Type (0, 0), BuildingBlock: EZIPEK_clean_linker_0, # of connection points: 2
#     Edge 20, Type (0, 0), BuildingBlock: EZIPEK_clean_linker_0, # of connection points: 2
#     Edge 21, Type (0, 0), BuildingBlock: EZIPEK_clean_linker_0, # of connection points: 2
#     Edge 22, Type (0, 0), BuildingBlock: EZIPEK_clean_linker_0, # of connection points: 2
#     Edge 23, Type (0, 0), BuildingBlock: EZIPEK_clean_linker_0, # of connection points: 2
#     Edge 24, Type (0, 0), BuildingBlock: EZIPEK_clean_linker_0, # of connection points: 2
#     Edge 25, Type (0, 0), BuildingBlock: EZIPEK_clean_linker_0, # of connection points: 2
#     Edge 26, Type (0, 0), BuildingBlock: EZIPEK_clean_linker_0, # of connection points: 2
#     Edge 27, Type (0, 0), BuildingBlock: EZIPEK_clean_linker_0, # of connection points: 2
#     Edge 28, Type (0, 0), BuildingBlock: EZIPEK_clean_linker_0, # of connection points: 2
#     Edge 29, Type (0, 0), BuildingBlock: EZIPEK_clean_linker_0, # of connection points: 2
#     Edge 30, Type (0, 0), BuildingBlock: EZIPEK_clean_linker_0, # of connection points: 2
#     Edge 31, Type (0, 0), BuildingBlock: EZIPEK_clean_linker_0, # of connection points: 2
#     Edge 32, Type (0, 0), BuildingBlock: EZIPEK_clean_linker_0, # of connection points: 2
#     Edge 33, Type (0, 0), BuildingBlock: EZIPEK_clean_linker_0, # of connection points: 2
#     Edge 34, Type (0, 0), BuildingBlock: EZIPEK_clean_linker_0, # of connection points: 2
#     Edge 35, Type (0, 0), BuildingBlock: EZIPEK_clean_linker_0, # of connection points: 2
# Relax obj value: 0.114
# Max RMSD: 0.128
# Mean RMSD: 0.128
data_MOF--net-ukf--node1-QUQFOY_clean_sbu_1--edge1-EZIPEK_clean_linker_0
_symmetry_space_group_name_H-M    P1
_symmetry_Int_Tables_number       1
_symmetry_cell_setting            triclinic
loop_
_symmetry_equiv_pos_as_xyz
'x, y, z'
_cell_length_a     23.705009
_cell_length_b     23.750746
_cell_length_c     54.536663
_cell_angle_alpha  89.96865
_cell_angle_beta   90.121527
_cell_angle_gamma 119.94656
loop_
_atom_site_label
_atom_site_type_symbol
_atom_site_fract_x
_atom_site_fract_y
_atom_site_fract_z
_atom_type_partial_charge
O0 O 0.47717 0.34138 0.07983 0.0
Cd1 Cd 0.45564 0.2486 0.08923 0.0
Cd2 Cd 0.38767 0.23131 0.04634 0.0
O3 O 0.39641 0.32039 0.05433 0.0
O4 O 0.49695 0.26348 0.12243 0.0
O5 O 0.39101 0.20144 0.11656 0.0
C6 C 0.43974 0.22805 0.13153 0.0
C7 C 0.29993 0.1354 0.03204 0.0
C8 C 0.44563 0.3607 0.0668 0.0
C9 C 0.50654 0.21951 0.04513 0.0
O10 O 0.47195 0.23785 0.03367 0.0
O11 O 0.50107 0.21047 0.06818 0.0
O12 O 0.32486 0.18744 0.01884 0.0
O13 O 0.31885 0.14017 0.05459 0.0
O14 O 0.13817 0.47607 0.41392 0.0
Cd15 Cd 0.21017 0.45482 0.42241 0.0
Cd16 Cd 0.15989 0.38748 0.38136 0.0
O17 O 0.07837 0.3954 0.38855 0.0
O18 O 0.23688 0.49316 0.45589 0.0
O19 O 0.19384 0.38796 0.44859 0.0
C20 C 0.21578 0.43528 0.46413 0.0
C21 C 0.17531 0.29986 0.37471 0.0
C22 C 0.08687 0.44422 0.40117 0.0
C23 C 0.28897 0.50671 0.37829 0.0
O24 O 0.23611 0.47032 0.3671 0.0
O25 O 0.2933 0.50191 0.40135 0.0
O26 O 0.14983 0.31865 0.35789 0.0
O27 O 0.18267 0.32457 0.39645 0.0
O28 O 0.66318 0.13407 0.748 0.0
Cd29 Cd 0.75696 0.20554 0.75584 0.0
Cd30 Cd 0.77137 0.15409 0.71466 0.0
O31 O 0.683 0.07298 0.72296 0.0
O32 O 0.74599 0.23417 0.78903 0.0
O33 O 0.80761 0.19007 0.78236 0.0
C34 C 0.78253 0.21301 0.79761 0.0
C35 C 0.87305 0.16752 0.70566 0.0
C36 C 0.64322 0.0823 0.73559 0.0
C37 C 0.78037 0.28242 0.71136 0.0
O38 O 0.76173 0.22889 0.70041 0.0
O39 O 0.79263 0.28762 0.73421 0.0
O40 O 0.82587 0.14091 0.69001 0.0
O41 O 0.86008 0.17857 0.7276 0.0
O42 O 0.52882 0.65963 0.0795 0.0
Cd43 Cd 0.54937 0.75211 0.08896 0.0
Cd44 Cd 0.61505 0.77049 0.04689 0.0
O45 O 0.60589 0.68021 0.05236 0.0
O46 O 0.5104 0.73699 0.12243 0.0
O47 O 0.61569 0.80074 0.11568 0.0
C48 C 0.56804 0.77373 0.13102 0.0
C49 C 0.70349 0.87273 0.04053 0.0
C50 C 0.55861 0.6401 0.06562 0.0
C51 C 0.49606 0.78234 0.04581 0.0
O52 O 0.53228 0.76702 0.03391 0.0
O53 O 0.50105 0.78899 0.06896 0.0
O54 O 0.68196 0.83004 0.02312 0.0
O55 O 0.68141 0.85369 0.06247 0.0
O56 O 0.86763 0.52406 0.4153 0.0
Cd57 Cd 0.79568 0.54504 0.4244 0.0
Cd58 Cd 0.84458 0.6113 0.38142 0.0
O59 O 0.92571 0.60321 0.38914 0.0
O60 O 0.77062 0.50545 0.45779 0.0
O61 O 0.81302 0.61078 0.45126 0.0
C62 C 0.79188 0.56291 0.46651 0.0
C63 C 0.83502 0.69905 0.36783 0.0
C64 C 0.91792 0.55509 0.40203 0.0
C65 C 0.71468 0.49176 0.38062 0.0
O66 O 0.76722 0.52649 0.36905 0.0
O67 O 0.7115 0.49798 0.40364 0.0
O68 O 0.86082 0.67376 0.35406 0.0
O69 O 0.82209 0.67978 0.39035 0.0
O70 O 0.3444 0.86379 0.7484 0.0
Cd71 Cd 0.25113 0.79188 0.75521 0.0
Cd72 Cd 0.23276 0.84489 0.71409 0.0
O73 O 0.32307 0.9237 0.72325 0.0
O74 O 0.26 0.76206 0.78849 0.0
O75 O 0.19834 0.80589 0.78111 0.0
C76 C 0.22285 0.7829 0.79665 0.0
C77 C 0.13505 0.84025 0.70267 0.0
C78 C 0.36343 0.91517 0.73592 0.0
C79 C 0.22554 0.71704 0.70939 0.0
O80 O 0.23737 0.76902 0.69844 0.0
O81 O 0.21959 0.71235 0.7326 0.0
O82 O 0.18719 0.87204 0.68982 0.0
O83 O 0.14127 0.81857 0.7237 0.0
O84 O 0.66021 0.52358 0.62097 0.0
Cd85 Cd 0.7531 0.54435 0.61358 0.0
Cd86 Cd 0.77223 0.61414 0.65548 0.0
O87 O 0.68187 0.60356 0.64674 0.0
O88 O 0.74297 0.50622 0.58012 0.0
O89 O 0.80586 0.61117 0.58768 0.0
C90 C 0.78067 0.56406 0.57205 0.0
C91 C 0.86957 0.70628 0.66748 0.0
C92 C 0.6413 0.55534 0.63391 0.0
C93 C 0.77871 0.49244 0.6587 0.0
O94 O 0.76779 0.53261 0.67014 0.0
O95 O 0.78409 0.49455 0.63546 0.0
O96 O 0.81744 0.68495 0.68044 0.0
O97 O 0.8636 0.68004 0.64613 0.0
O98 O 0.13568 0.6575 0.95385 0.0
Cd99 Cd 0.20937 0.74859 0.94428 0.0
Cd100 Cd 0.16097 0.77223 0.98584 0.0
O101 O 0.07997 0.6815 0.98016 0.0
O102 O 0.2326 0.73245 0.91082 0.0
O103 O 0.19352 0.79832 0.91752 0.0
C104 C 0.21287 0.7701 0.90218 0.0
C105 C 0.17122 0.87275 0.99364 0.0
C106 C 0.08628 0.63991 0.96749 0.0
C107 C 0.29108 0.78015 0.98823 0.0
O108 O 0.24014 0.76974 0.99963 0.0
O109 O 0.29321 0.78255 0.96495 0.0
O110 O 0.14799 0.82769 1.01011 0.0
O111 O 0.1798 0.85758 0.97169 0.0
O112 O 0.4827 0.14087 0.28718 0.0
Cd113 Cd 0.45904 0.21132 0.27914 0.0
Cd114 Cd 0.39242 0.15849 0.32123 0.0
O115 O 0.40087 0.07865 0.31167 0.0
O116 O 0.49788 0.2399 0.2458 0.0
O117 O 0.39212 0.19413 0.25271 0.0
C118 C 0.43985 0.21753 0.23733 0.0
C119 C 0.30518 0.16726 0.3358 0.0
C120 C 0.45055 0.08864 0.29928 0.0
C121 C 0.51019 0.28835 0.32379 0.0
O122 O 0.47676 0.23447 0.33468 0.0
O123 O 0.50367 0.29352 0.3009 0.0
O124 O 0.32897 0.1381 0.34854 0.0
O125 O 0.32475 0.18309 0.31342 0.0
O126 O 0.3417 0.4735 0.6208 0.0
Cd127 Cd 0.24853 0.45231 0.61189 0.0
Cd128 Cd 0.23188 0.38641 0.65389 0.0
O129 O 0.32129 0.39442 0.64691 0.0
O130 O 0.26277 0.49276 0.57867 0.0
O131 O 0.20012 0.38722 0.58481 0.0
C132 C 0.22675 0.4355 0.56974 0.0
C133 C 0.13084 0.29755 0.66299 0.0
C134 C 0.36137 0.44266 0.63403 0.0
C135 C 0.2222 0.50602 0.65576 0.0
O136 O 0.23945 0.47066 0.66727 0.0
O137 O 0.21192 0.4993 0.63278 0.0
O138 O 0.17756 0.31988 0.67888 0.0
O139 O 0.14408 0.32026 0.64087 0.0
O140 O 0.8654 0.34193 0.95466 0.0
Cd141 Cd 0.7936 0.2493 0.94523 0.0
Cd142 Cd 0.84206 0.23181 0.98842 0.0
O143 O 0.92326 0.32082 0.98108 0.0
O144 O 0.76947 0.26369 0.91159 0.0
O145 O 0.81177 0.20073 0.91869 0.0
C146 C 0.79098 0.22736 0.90317 0.0
C147 C 0.8342 0.13576 1.00276 0.0
C148 C 0.91555 0.36114 0.96813 0.0
C149 C 0.71161 0.22159 0.98846 0.0
O150 O 0.76396 0.23897 1.00021 0.0
O151 O 0.70879 0.21246 0.96543 0.0
O152 O 0.85744 0.18685 1.01646 0.0
O153 O 0.8224 0.1413 0.97999 0.0
O154 O 0.52707 0.86784 0.28551 0.0
Cd155 Cd 0.54482 0.79367 0.27756 0.0
Cd156 Cd 0.61423 0.84182 0.31941 0.0
O157 O 0.60549 0.92311 0.31242 0.0
O158 O 0.50868 0.76864 0.24373 0.0
O159 O 0.61294 0.80729 0.25234 0.0
C160 C 0.56683 0.78726 0.23626 0.0
C161 C 0.70353 0.8301 0.32835 0.0
C162 C 0.55864 0.91736 0.29908 0.0
C163 C 0.49123 0.7135 0.32159 0.0
O164 O 0.53163 0.76416 0.33316 0.0
O165 O 0.49273 0.71112 0.29834 0.0
O166 O 0.68237 0.85561 0.34417 0.0
O167 O 0.67956 0.81956 0.30637 0.0
C168 C 0.16407 0.96496 1.01385 0.0
C169 C 0.20109 0.94208 1.00122 0.0
C170 C 0.29862 0.04972 1.00512 0.0
C171 C 0.26355 0.07053 0.02013 0.0
N172 N 0.16435 0.04726 0.04055 0.0
N173 N 0.30739 0.95878 0.99039 0.0
C174 C 0.19656 0.02788 0.02502 0.0
C175 C 0.26922 0.98356 0.99808 0.0
N176 N 0.09783 0.92711 1.01464 0.0
N177 N 0.3608 0.09267 0.99784 0.0
H178 H 0.28945 0.91 0.98621 0.0
H179 H 0.35809 0.98512 0.99079 0.0
H180 H 0.38711 0.14057 1.00385 0.0
H181 H 0.38491 0.08191 0.98428 0.0
H182 H 0.06723 0.9429 0.02159 0.0
H183 H 0.073 0.88135 1.00642 0.0
H184 H 0.11754 0.01636 0.04704 0.0
H185 H 0.18614 0.09386 0.04808 0.0
C186 C 0.16916 0.20181 0.35398 0.0
C187 C 0.20528 0.25967 0.36791 0.0
C188 C 0.30229 0.24775 0.36463 0.0
C189 C 0.26842 0.19491 0.34813 0.0
N190 N 0.17107 0.12373 0.32561 0.0
N191 N 0.31051 0.34426 0.38261 0.0
C192 C 0.20216 0.17248 0.34238 0.0
C193 C 0.27272 0.2839 0.37255 0.0
N194 N 0.103 0.17392 0.35248 0.0
N195 N 0.36371 0.26484 0.37244 0.0
H196 H 0.29304 0.37453 0.38823 0.0
H197 H 0.36117 0.36789 0.38312 0.0
H198 H 0.3906 0.2446 0.36564 0.0
H199 H 0.38664 0.29643 0.38706 0.0
H200 H 0.07291 0.12875 0.34452 0.0
H201 H 0.07749 0.19332 0.3613 0.0
H202 H 0.12521 0.10995 0.31847 0.0
H203 H 0.19297 0.09939 0.31773 0.0
C204 C 0.97092 0.16174 0.68997 0.0
C205 C 0.94136 0.19881 0.69671 0.0
C206 C 0.02801 0.29333 0.67572 0.0
C207 C 0.06234 0.25955 0.67167 0.0
N208 N 0.0698 0.16287 0.67702 0.0
N209 N 0.95347 0.30541 0.70203 0.0
C210 C 0.03485 0.19399 0.67951 0.0
C211 C 0.97351 0.26622 0.69149 0.0
N212 N 0.93795 0.09608 0.6935 0.0
N213 N 0.04606 0.35085 0.66412 0.0
H214 H 0.91368 0.28848 0.71375 0.0
H215 H 0.98016 0.35596 0.70078 0.0
H216 H 0.08578 0.37348 0.65237 0.0
H217 H 0.01784 0.37328 0.66456 0.0
H218 H 0.95386 0.06535 0.6868 0.0
H219 H 0.89262 0.07205 0.7021 0.0
H220 H 0.05547 0.11739 0.68455 0.0
H221 H 0.11513 0.1844 0.66842 0.0
C222 C 0.80199 0.96607 0.02045 0.0
C223 C 0.7437 0.94316 0.03431 0.0
C224 C 0.74692 0.04716 0.02774 0.0
C225 C 0.80568 0.0705 1.01432 0.0
N226 N 0.89447 0.0573 1.00047 0.0
N227 N 0.66653 0.9666 0.05461 0.0
C228 C 0.83483 0.03136 1.01141 0.0
C229 C 0.71852 0.98537 0.03926 0.0
N230 N 0.82556 0.92505 1.01584 0.0
N231 N 0.71533 0.08221 0.02804 0.0
H232 H 0.63744 0.91973 0.0612 0.0
H233 H 0.65373 0.99905 0.06205 0.0
H234 H 0.73396 0.12791 0.0201 0.0
H235 H 0.6679 0.06397 0.03431 0.0
H236 H 0.86305 0.93524 1.0036 0.0
H237 H 0.80605 0.87924 0.02389 0.0
H238 H 0.9218 0.03411 0.99957 0.0
H239 H 0.91884 0.10455 0.99353 0.0
C240 C 0.71024 0.72993 0.33636 0.0
C241 C 0.74104 0.79883 0.33692 0.0
C242 C 0.83411 0.80346 0.35899 0.0
C243 C 0.80534 0.7351 0.35646 0.0
N244 N 0.72119 0.63439 0.33884 0.0
N245 N 0.83494 0.90226 0.34628 0.0
C246 C 0.74531 0.6989 0.34379 0.0
C247 C 0.80384 0.83601 0.34759 0.0
N248 N 0.6456 0.69339 0.33051 0.0
N249 N 0.88974 0.83691 0.37253 0.0
H250 H 0.81386 0.927 0.33803 0.0
H251 H 0.88305 0.93248 0.35164 0.0
H252 H 0.91382 0.81454 0.38031 0.0
H253 H 0.90994 0.88567 0.37726 0.0
H254 H 0.61869 0.64323 0.33296 0.0
H255 H 0.61668 0.71325 0.3257 0.0
H256 H 0.68224 0.60794 0.32696 0.0
H257 H 0.74279 0.6081 0.34497 0.0
C258 C 0.98643 0.7918 0.66041 0.0
C259 C 0.93574 0.75499 0.6773 0.0
C260 C 0.01724 0.80451 0.71011 0.0
C261 C 0.06857 0.82285 0.69303 0.0
N262 N 0.09651 0.82415 0.64967 0.0
N263 N 0.90896 0.72071 0.72007 0.0
C264 C 0.0522 0.81486 0.66747 0.0
C265 C 0.95223 0.76029 0.70277 0.0
N266 N 0.97219 0.80522 0.63764 0.0
N267 N 0.03017 0.82909 0.73335 0.0
H268 H 0.8624 0.6829 0.71638 0.0
H269 H 0.92265 0.72068 0.73826 0.0
H270 H 0.07662 0.86503 0.7388 0.0
H271 H 0.99343 0.8201 0.74589 0.0
H272 H 0.00815 0.8359 0.62535 0.0
H273 H 0.92497 0.79286 0.63246 0.0
H274 H 0.08295 0.81189 0.63138 0.0
H275 H 0.14464 0.83714 0.65273 0.0
C276 C 0.60042 0.15947 1.00721 0.0
C277 C 0.65658 0.21978 1.00165 0.0
C278 C 0.61763 0.27745 0.02747 0.0
C279 C 0.55954 0.21792 0.03175 0.0
N280 N 0.49116 0.10327 0.02421 0.0
N281 N 0.7142 0.33695 1.00256 0.0
C282 C 0.54959 0.15906 0.02121 0.0
C283 C 0.66397 0.27904 1.01071 0.0
N284 N 0.59679 0.10276 0.9998 0.0
N285 N 0.62898 0.33224 0.03987 0.0
H286 H 0.7488 0.34009 0.98999 0.0
H287 H 0.71846 0.38183 1.00643 0.0
H288 H 0.59575 0.33312 0.05216 0.0
H289 H 0.67338 0.37548 0.03962 0.0
H290 H 0.56077 0.05698 1.00553 0.0
H291 H 0.63243 0.10154 0.98899 0.0
H292 H 0.47782 0.0603 1.01478 0.0
H293 H 0.45411 0.10095 0.03523 0.0
C294 C 0.35476 0.62376 0.36717 0.0
C295 C 0.34298 0.55939 0.36454 0.0
C296 C 0.43044 0.596 0.3342 0.0
C297 C 0.43878 0.65939 0.33549 0.0
N298 N 0.39892 0.73019 0.34878 0.0
N299 N 0.36121 0.48137 0.34283 0.0
C300 C 0.39841 0.67249 0.35086 0.0
C301 C 0.37829 0.54459 0.34721 0.0
N302 N 0.32372 0.63836 0.38506 0.0
N303 N 0.47363 0.58531 0.32131 0.0
H304 H 0.32409 0.44251 0.35232 0.0
H305 H 0.38035 0.46701 0.32856 0.0
H306 H 0.51179 0.62133 0.31116 0.0
H307 H 0.47479 0.5421 0.32218 0.0
H308 H 0.33644 0.68576 0.38976 0.0
H309 H 0.28824 0.60357 0.3965 0.0
H310 H 0.36573 0.73983 0.3576 0.0
H311 H 0.42798 0.76622 0.33623 0.0
C312 C 0.7322 0.35329 0.70335 0.0
C313 C 0.78039 0.33639 0.69793 0.0
C314 C 0.83149 0.42641 0.66882 0.0
C315 C 0.77994 0.43946 0.67244 0.0
N316 N 0.67222 0.4041 0.68849 0.0
N317 N 0.86489 0.3457 0.67066 0.0
C318 C 0.72787 0.40013 0.68855 0.0
C319 C 0.82673 0.36946 0.67917 0.0
N320 N 0.68943 0.32361 0.72219 0.0
N321 N 0.88608 0.46943 0.65629 0.0
H322 H 0.86069 0.30242 0.67694 0.0
H323 H 0.89536 0.36499 0.65551 0.0
H324 H 0.89246 0.51296 0.64913 0.0
H325 H 0.92769 0.46517 0.65526 0.0
H326 H 0.65891 0.33994 0.7288 0.0
H327 H 0.68698 0.28513 0.73226 0.0
H328 H 0.63029 0.37191 0.698 0.0
H329 H 0.6649 0.4347 0.67685 0.0
C330 C 0.40766 0.83802 1.00251 0.0
C331 C 0.34494 0.78171 1.00244 0.0
C332 C 0.37944 0.7313 0.03382 0.0
C333 C 0.44341 0.78531 0.03253 0.0
N334 N 0.52154 0.8868 1.01394 0.0
N335 N 0.27469 0.66955 1.01388 0.0
C336 C 0.45848 0.83779 1.01635 0.0
C337 C 0.33165 0.72699 1.01706 0.0
N338 N 0.41804 0.89229 0.99003 0.0
N339 N 0.36436 0.68375 0.05095 0.0
H340 H 0.23927 0.66342 1.00109 0.0
H341 H 0.26512 0.62605 0.02206 0.0
H342 H 0.39858 0.68314 0.06282 0.0
H343 H 0.3169 0.64739 0.05471 0.0
H344 H 0.46022 0.93731 0.99171 0.0
H345 H 0.38258 0.89357 0.97911 0.0
H346 H 0.53705 0.92262 1.00051 0.0
H347 H 0.55947 0.88954 0.02455 0.0
C348 C 0.55338 0.39253 0.34724 0.0
C349 C 0.56279 0.34248 0.33749 0.0
C350 C 0.6666 0.38558 0.35916 0.0
C351 C 0.65989 0.4386 0.36732 0.0
N352 N 0.60189 0.49793 0.3672 0.0
N353 N 0.63142 0.29578 0.33076 0.0
C354 C 0.6045 0.44356 0.36091 0.0
C355 C 0.62033 0.34027 0.34248 0.0
N356 N 0.49507 0.39024 0.34394 0.0
N357 N 0.7162 0.37753 0.368 0.0
H358 H 0.59837 0.26142 0.31847 0.0
H359 H 0.67555 0.29627 0.33153 0.0
H360 H 0.75094 0.4096 0.38042 0.0
H361 H 0.7198 0.33623 0.36481 0.0
H362 H 0.48235 0.42108 0.35283 0.0
H363 H 0.45741 0.35451 0.3334 0.0
H364 H 0.56652 0.50799 0.36071 0.0
H365 H 0.63783 0.53542 0.37772 0.0
C366 C 0.27114 0.62479 0.66416 0.0
C367 C 0.22148 0.55998 0.6689 0.0
C368 C 0.17024 0.59926 0.69788 0.0
C369 C 0.22337 0.66321 0.6951 0.0
N370 N 0.3323 0.73433 0.67996 0.0
N371 N 0.13322 0.48464 0.69477 0.0
C372 C 0.2759 0.67557 0.67929 0.0
C373 C 0.17381 0.54683 0.68713 0.0
N374 N 0.31485 0.6379 0.64566 0.0
N375 N 0.11542 0.58869 0.71003 0.0
H376 H 0.13609 0.44518 0.68806 0.0
H377 H 0.10167 0.47315 0.70959 0.0
H378 H 0.1101 0.62616 0.71753 0.0
H379 H 0.07282 0.54365 0.71042 0.0
H380 H 0.34671 0.68484 0.63952 0.0
H381 H 0.31675 0.60198 0.63532 0.0
H382 H 0.3745 0.74357 0.67074 0.0
H383 H 0.33972 0.77191 0.69178 0.0
C384 C 0.40702 0.16247 0.17068 0.0
C385 C 0.43076 0.22308 0.1586 0.0
C386 C 0.45362 0.27909 0.19837 0.0
C387 C 0.42948 0.21854 0.21049 0.0
N388 N 0.37306 0.10144 0.2088 0.0
N389 N 0.46283 0.3366 0.16049 0.0
C390 C 0.4024 0.15977 0.1968 0.0
C391 C 0.45002 0.28069 0.17235 0.0
N392 N 0.39263 0.10823 0.1573 0.0
N393 N 0.48108 0.3353 0.21176 0.0
H394 H 0.46019 0.33944 0.1415 0.0
H395 H 0.47046 0.37857 0.16941 0.0
H396 H 0.48028 0.3359 0.23089 0.0
H397 H 0.50743 0.3814 0.20405 0.0
H398 H 0.38241 0.06406 0.16502 0.0
H399 H 0.39526 0.10834 0.13821 0.0
H400 H 0.3463 0.05685 0.2 0.0
H401 H 0.37134 0.09751 0.22785 0.0
C402 C 0.27748 0.44849 0.50303 0.0
C403 C 0.21681 0.42462 0.4909 0.0
C404 C 0.16073 0.40232 0.53063 0.0
C405 C 0.22148 0.42592 0.54273 0.0
N406 N 0.33504 0.45718 0.5409 0.0
N407 N 0.09953 0.36831 0.49246 0.0
C408 C 0.27911 0.44478 0.52902 0.0
C409 C 0.15796 0.39764 0.50452 0.0
N410 N 0.33378 0.47591 0.48967 0.0
N411 N 0.10645 0.38813 0.54398 0.0
H412 H 0.09567 0.36629 0.4734 0.0
H413 H 0.05482 0.34181 0.50121 0.0
H414 H 0.10662 0.39079 0.56307 0.0
H415 H 0.0622 0.37797 0.53623 0.0
H416 H 0.37998 0.502 0.49743 0.0
H417 H 0.33432 0.47539 0.47054 0.0
H418 H 0.37698 0.46459 0.53199 0.0
H419 H 0.33785 0.45434 0.55989 0.0
C420 C 0.75938 0.16023 0.8644 0.0
C421 C 0.79608 0.22126 0.87624 0.0
C422 C 0.83045 0.27582 0.83629 0.0
C423 C 0.79404 0.21488 0.82443 0.0
N424 N 0.73335 0.09788 0.8266 0.0
N425 N 0.87813 0.33454 0.87403 0.0
C426 C 0.76201 0.15661 0.83834 0.0
C427 C 0.83508 0.27832 0.86232 0.0
N428 N 0.71898 0.1065 0.87791 0.0
N429 N 0.85962 0.33154 0.82264 0.0
H430 H 0.88318 0.33798 0.89304 0.0
H431 H 0.91284 0.37611 0.86502 0.0
H432 H 0.86126 0.33141 0.80352 0.0
H433 H 0.87947 0.37793 0.83011 0.0
H434 H 0.68517 0.06212 0.87027 0.0
H435 H 0.71587 0.10727 0.89696 0.0
H436 H 0.71515 0.05358 0.83563 0.0
H437 H 0.73194 0.09337 0.80757 0.0
C438 C 0.60167 0.84084 0.16978 0.0
C439 C 0.57867 0.77998 0.15796 0.0
C440 C 0.55633 0.72509 0.19788 0.0
C441 C 0.57915 0.78579 0.20971 0.0
N442 N 0.63506 0.90274 0.20775 0.0
N443 N 0.54927 0.66722 0.16035 0.0
C444 C 0.60607 0.8442 0.19588 0.0
C445 C 0.56059 0.72298 0.17193 0.0
N446 N 0.61547 0.89457 0.15617 0.0
N447 N 0.52915 0.66925 0.21146 0.0
H448 H 0.55277 0.66426 0.1414 0.0
H449 H 0.54227 0.62576 0.1695 0.0
H450 H 0.529 0.66923 0.2306 0.0
H451 H 0.50391 0.6229 0.20386 0.0
H452 H 0.62512 0.93874 0.16372 0.0
H453 H 0.61305 0.89401 0.13707 0.0
H454 H 0.66135 0.94722 0.19886 0.0
H455 H 0.6372 0.90685 0.22681 0.0
C456 C 0.83034 0.5517 0.53338 0.0
C457 C 0.79289 0.57497 0.54532 0.0
C458 C 0.75866 0.59623 0.50541 0.0
C459 C 0.79639 0.57315 0.4935 0.0
N460 N 0.87975 0.5434 0.49568 0.0
N461 N 0.73089 0.63018 0.54338 0.0
C462 C 0.83573 0.5552 0.50739 0.0
C463 C 0.76053 0.60123 0.53151 0.0
N464 N 0.85967 0.52495 0.54693 0.0
N465 N 0.71811 0.6096 0.49189 0.0
H466 H 0.72914 0.63251 0.56243 0.0
H467 H 0.71223 0.65614 0.53448 0.0
H468 H 0.71568 0.60675 0.4728 0.0
H469 H 0.68362 0.61926 0.49951 0.0
H470 H 0.88046 0.49939 0.53932 0.0
H471 H 0.86042 0.52548 0.56606 0.0
H472 H 0.91459 0.53659 0.50473 0.0
H473 H 0.88545 0.54616 0.47669 0.0
C474 C 0.24617 0.83667 0.8633 0.0
C475 C 0.20815 0.77604 0.87522 0.0
C476 C 0.17318 0.72104 0.83533 0.0
C477 C 0.21087 0.7816 0.82339 0.0
N478 N 0.27361 0.89856 0.82539 0.0
N479 N 0.12373 0.6636 0.87306 0.0
C480 C 0.24383 0.84 0.83722 0.0
C481 C 0.16812 0.7191 0.86133 0.0
N482 N 0.28751 0.89021 0.87677 0.0
N483 N 0.14327 0.66514 0.82178 0.0
H484 H 0.11814 0.66068 0.89204 0.0
H485 H 0.08848 0.62233 0.86401 0.0
H486 H 0.14226 0.66501 0.80265 0.0
H487 H 0.12225 0.61881 0.82938 0.0
H488 H 0.32218 0.93409 0.86908 0.0
H489 H 0.29049 0.88966 0.89583 0.0
H490 H 0.29265 0.94307 0.83434 0.0
H491 H 0.27508 0.9028 0.80634 0.0
C492 C 0.51374 0.53378 0.04259 0.0
C493 C 0.5349 0.56923 0.06493 0.0
C494 C 0.48412 0.46705 0.08787 0.0
C495 C 0.47012 0.43167 0.06563 0.0
N496 N 0.48501 0.4331 0.0217 0.0
N497 N 0.55394 0.56892 0.10836 0.0
C498 C 0.48855 0.4654 0.0429 0.0
C499 C 0.52415 0.53557 0.08745 0.0
N500 N 0.51467 0.56442 0.02126 0.0
N501 N 0.45729 0.43536 0.10934 0.0
H502 H 0.58651 0.61887 0.10841 0.0
H503 H 0.55214 0.54614 0.12492 0.0
H504 H 0.42469 0.38546 0.11003 0.0
H505 H 0.46146 0.45942 0.1258 0.0
H506 H 0.49313 0.53938 1.0051 0.0
H507 H 0.53143 0.61409 0.02013 0.0
H508 H 0.50451 0.45687 1.00517 0.0
H509 H 0.46831 0.38339 0.02101 0.0
C510 C 0.97757 0.50936 0.37847 0.0
C511 C 0.96487 0.53103 0.40098 0.0
C512 C 0.01971 0.48228 0.42325 0.0
C513 C 0.03941 0.46777 0.40068 0.0
N514 N 0.04848 0.48092 0.35659 0.0
N515 N 0.98629 0.55051 0.44426 0.0
C516 C 0.02143 0.48484 0.37817 0.0
C517 C 0.98961 0.52105 0.42324 0.0
N518 N 0.94579 0.50933 0.35752 0.0
N519 N 0.02802 0.45739 0.44468 0.0
H520 H 0.96727 0.58176 0.44461 0.0
H521 H 0.00871 0.54969 0.46061 0.0
H522 H 0.04761 0.42664 0.44531 0.0
H523 H 0.00914 0.4615 0.46139 0.0
H524 H 0.94802 0.48732 0.34131 0.0
H525 H 0.91244 0.52576 0.35685 0.0
H526 H 0.04229 0.49956 0.34014 0.0
H527 H 0.08205 0.46488 0.35541 0.0
C528 C 0.5372 0.01985 0.71255 0.0
C529 C 0.57212 0.03581 0.73507 0.0
C530 C 0.46897 0.9845 0.75762 0.0
C531 C 0.43437 0.96207 0.73519 0.0
N532 N 0.43721 0.94642 0.69147 0.0
N533 N 0.57136 0.02223 0.77893 0.0
C534 C 0.46883 0.97644 0.71265 0.0
C535 C 0.53796 0.01489 0.7576 0.0
N536 N 0.56836 0.04832 0.69116 0.0
N537 N 0.43592 0.97835 0.77888 0.0
H538 H 0.62182 0.04239 0.77952 0.0
H539 H 0.54865 0.00234 0.79558 0.0
H540 H 0.38544 0.95796 0.77946 0.0
H541 H 0.45891 0.99934 0.79541 0.0
H542 H 0.54366 0.0437 0.67478 0.0
H543 H 0.61806 0.08151 0.69012 0.0
H544 H 0.46157 0.94978 0.67517 0.0
H545 H 0.38745 0.91328 0.69059 0.0
C546 C 0.53539 0.51753 0.61228 0.0
C547 C 0.57031 0.53162 0.63471 0.0
C548 C 0.46745 0.48796 0.65732 0.0
C549 C 0.43245 0.4669 0.63487 0.0
N550 N 0.43343 0.44867 0.59145 0.0
N551 N 0.56764 0.51621 0.67868 0.0
C552 C 0.46661 0.47796 0.61246 0.0
C553 C 0.53594 0.51313 0.65732 0.0
N554 N 0.56783 0.54337 0.59083 0.0
N555 N 0.43619 0.48676 0.67851 0.0
H556 H 0.61735 0.53257 0.67964 0.0
H557 H 0.54332 0.49654 0.69511 0.0
H558 H 0.38634 0.46979 0.67942 0.0
H559 H 0.46086 0.50826 0.69473 0.0
H560 H 0.54421 0.53951 0.57425 0.0
H561 H 0.6181 0.57454 0.5901 0.0
H562 H 0.45636 0.45041 0.57496 0.0
H563 H 0.3833 0.41659 0.59124 0.0
C564 C 0.02273 0.53515 0.99125 0.0
C565 C 0.03789 0.56942 0.96864 0.0
C566 C 0.98532 0.46603 0.94646 0.0
C567 C 0.96299 0.43194 0.96891 0.0
N568 N 0.94916 0.43606 1.0127 0.0
N569 N 0.01935 0.56706 0.92507 0.0
C570 C 0.97853 0.46694 0.99138 0.0
C571 C 0.01482 0.53463 0.94633 0.0
N572 N 0.05257 0.56666 1.01246 0.0
N573 N 0.98048 0.433 0.92534 0.0
H574 H 0.03758 0.61714 0.92459 0.0
H575 H 0.99835 0.54353 0.90861 0.0
H576 H 0.96262 0.38298 0.9251 0.0
H577 H 1.00097 0.45604 0.90879 0.0
H578 H 0.04838 0.54234 0.02886 0.0
H579 H 0.0862 0.61621 1.01327 0.0
H580 H 0.9537 0.46087 0.029 0.0
H581 H 0.91547 0.38656 1.01368 0.0
C582 C 0.5272 0.99055 0.27751 0.0
C583 C 0.53644 0.96575 0.2999 0.0
C584 C 0.49186 0.02425 0.32237 0.0
C585 C 0.47514 0.04209 0.29977 0.0
N586 N 0.46576 0.03122 0.25574 0.0
N587 N 0.5142 0.94777 0.34336 0.0
C588 C 0.4897 0.02209 0.27728 0.0
C589 C 0.51525 0.97955 0.32231 0.0
N590 N 0.55578 0.98547 0.25651 0.0
N591 N 0.48848 0.05208 0.34384 0.0
H592 H 0.52942 0.91356 0.34423 0.0
H593 H 0.49234 0.95088 0.35947 0.0
H594 H 0.47336 0.08636 0.34483 0.0
H595 H 0.50685 0.04586 0.36037 0.0
H596 H 0.55585 0.00805 0.24012 0.0
H597 H 0.58529 0.96441 0.25614 0.0
H598 H 0.46954 0.012 0.23906 0.0
H599 H 0.43615 0.05212 0.25492 0.0
loop_
_geom_bond_atom_site_label_1
_geom_bond_atom_site_label_2
_geom_bond_distance
_geom_bond_site_symmetry_2
_ccdc_geom_bond_type
O0 Cd1 2.223 . S
O0 C8 1.315 . S
Cd1 O0 2.223 . S
Cd1 O4 2.297 . S
Cd1 O5 2.439 . S
Cd1 O11 2.240 . S
Cd2 O3 2.240 . S
Cd2 O10 2.223 . S
Cd2 O12 2.297 . S
Cd2 O13 2.439 . S
O3 Cd2 2.240 . S
O3 C8 1.279 . S
O4 Cd1 2.297 . S
O4 C6 1.247 . S
O5 Cd1 2.439 . S
O5 C6 1.208 . S
C6 O4 1.247 . S
C6 O5 1.208 . S
C7 O12 1.247 . S
C7 O13 1.208 . S
C8 O0 1.315 . S
C8 O3 1.279 . S
C9 O10 1.315 . S
C9 O11 1.279 . S
O10 Cd2 2.223 . S
O10 C9 1.315 . S
O11 Cd1 2.240 . S
O11 C9 1.279 . S
O12 Cd2 2.297 . S
O12 C7 1.247 . S
O13 Cd2 2.439 . S
O13 C7 1.208 . S
O14 Cd15 2.223 . S
O14 C22 1.315 . S
Cd15 O14 2.223 . S
Cd15 O18 2.297 . S
Cd15 O19 2.439 . S
Cd15 O25 2.240 . S
Cd16 O17 2.240 . S
Cd16 O24 2.223 . S
Cd16 O26 2.297 . S
Cd16 O27 2.439 . S
O17 Cd16 2.240 . S
O17 C22 1.279 . S
O18 Cd15 2.297 . S
O18 C20 1.247 . S
O19 Cd15 2.439 . S
O19 C20 1.208 . S
C20 O18 1.247 . S
C20 O19 1.208 . S
C21 O26 1.247 . S
C21 O27 1.208 . S
C22 O14 1.315 . S
C22 O17 1.279 . S
C23 O24 1.315 . S
C23 O25 1.279 . S
O24 Cd16 2.223 . S
O24 C23 1.315 . S
O25 Cd15 2.240 . S
O25 C23 1.279 . S
O26 Cd16 2.297 . S
O26 C21 1.247 . S
O27 Cd16 2.439 . S
O27 C21 1.208 . S
O28 Cd29 2.223 . S
O28 C36 1.315 . S
Cd29 O28 2.223 . S
Cd29 O32 2.297 . S
Cd29 O33 2.439 . S
Cd29 O39 2.240 . S
Cd30 O31 2.240 . S
Cd30 O38 2.223 . S
Cd30 O40 2.297 . S
Cd30 O41 2.439 . S
O31 Cd30 2.240 . S
O31 C36 1.279 . S
O32 Cd29 2.297 . S
O32 C34 1.247 . S
O33 Cd29 2.439 . S
O33 C34 1.208 . S
C34 O32 1.247 . S
C34 O33 1.208 . S
C35 O40 1.247 . S
C35 O41 1.208 . S
C36 O28 1.315 . S
C36 O31 1.279 . S
C37 O38 1.315 . S
C37 O39 1.279 . S
O38 Cd30 2.223 . S
O38 C37 1.315 . S
O39 Cd29 2.240 . S
O39 C37 1.279 . S
O40 Cd30 2.297 . S
O40 C35 1.247 . S
O41 Cd30 2.439 . S
O41 C35 1.208 . S
O42 Cd43 2.223 . S
O42 C50 1.315 . S
Cd43 O42 2.223 . S
Cd43 O46 2.297 . S
Cd43 O47 2.439 . S
Cd43 O53 2.240 . S
Cd44 O45 2.240 . S
Cd44 O52 2.223 . S
Cd44 O54 2.297 . S
Cd44 O55 2.439 . S
O45 Cd44 2.240 . S
O45 C50 1.279 . S
O46 Cd43 2.297 . S
O46 C48 1.247 . S
O47 Cd43 2.439 . S
O47 C48 1.208 . S
C48 O46 1.247 . S
C48 O47 1.208 . S
C49 O54 1.247 . S
C49 O55 1.208 . S
C50 O42 1.315 . S
C50 O45 1.279 . S
C51 O52 1.315 . S
C51 O53 1.279 . S
O52 Cd44 2.223 . S
O52 C51 1.315 . S
O53 Cd43 2.240 . S
O53 C51 1.279 . S
O54 Cd44 2.297 . S
O54 C49 1.247 . S
O55 Cd44 2.439 . S
O55 C49 1.208 . S
O56 Cd57 2.223 . S
O56 C64 1.315 . S
Cd57 O56 2.223 . S
Cd57 O60 2.297 . S
Cd57 O61 2.439 . S
Cd57 O67 2.240 . S
Cd58 O59 2.240 . S
Cd58 O66 2.223 . S
Cd58 O68 2.297 . S
Cd58 O69 2.439 . S
O59 Cd58 2.240 . S
O59 C64 1.279 . S
O60 Cd57 2.297 . S
O60 C62 1.247 . S
O61 Cd57 2.439 . S
O61 C62 1.208 . S
C62 O60 1.247 . S
C62 O61 1.208 . S
C63 O68 1.247 . S
C63 O69 1.208 . S
C64 O56 1.315 . S
C64 O59 1.279 . S
C65 O66 1.315 . S
C65 O67 1.279 . S
O66 Cd58 2.223 . S
O66 C65 1.315 . S
O67 Cd57 2.240 . S
O67 C65 1.279 . S
O68 Cd58 2.297 . S
O68 C63 1.247 . S
O69 Cd58 2.439 . S
O69 C63 1.208 . S
O70 Cd71 2.223 . S
O70 C78 1.315 . S
Cd71 O70 2.223 . S
Cd71 O74 2.297 . S
Cd71 O75 2.439 . S
Cd71 O81 2.240 . S
Cd72 O73 2.240 . S
Cd72 O80 2.223 . S
Cd72 O82 2.297 . S
Cd72 O83 2.439 . S
O73 Cd72 2.240 . S
O73 C78 1.279 . S
O74 Cd71 2.297 . S
O74 C76 1.247 . S
O75 Cd71 2.439 . S
O75 C76 1.208 . S
C76 O74 1.247 . S
C76 O75 1.208 . S
C77 O82 1.247 . S
C77 O83 1.208 . S
C78 O70 1.315 . S
C78 O73 1.279 . S
C79 O80 1.315 . S
C79 O81 1.279 . S
O80 Cd72 2.223 . S
O80 C79 1.315 . S
O81 Cd71 2.240 . S
O81 C79 1.279 . S
O82 Cd72 2.297 . S
O82 C77 1.247 . S
O83 Cd72 2.439 . S
O83 C77 1.208 . S
O84 Cd85 2.223 . S
O84 C92 1.315 . S
Cd85 O84 2.223 . S
Cd85 O88 2.297 . S
Cd85 O89 2.439 . S
Cd85 O95 2.240 . S
Cd86 O87 2.240 . S
Cd86 O94 2.223 . S
Cd86 O96 2.297 . S
Cd86 O97 2.439 . S
O87 Cd86 2.240 . S
O87 C92 1.279 . S
O88 Cd85 2.297 . S
O88 C90 1.247 . S
O89 Cd85 2.439 . S
O89 C90 1.208 . S
C90 O88 1.247 . S
C90 O89 1.208 . S
C91 O96 1.247 . S
C91 O97 1.208 . S
C92 O84 1.315 . S
C92 O87 1.279 . S
C93 O94 1.315 . S
C93 O95 1.279 . S
O94 Cd86 2.223 . S
O94 C93 1.315 . S
O95 Cd85 2.240 . S
O95 C93 1.279 . S
O96 Cd86 2.297 . S
O96 C91 1.247 . S
O97 Cd86 2.439 . S
O97 C91 1.208 . S
O98 Cd99 2.223 . S
O98 C106 1.315 . S
Cd99 O98 2.223 . S
Cd99 O102 2.297 . S
Cd99 O103 2.439 . S
Cd99 O109 2.240 . S
Cd100 O101 2.240 . S
Cd100 O108 2.223 . S
Cd100 O110 2.297 . S
Cd100 O111 2.439 . S
O101 Cd100 2.240 . S
O101 C106 1.279 . S
O102 Cd99 2.297 . S
O102 C104 1.247 . S
O103 Cd99 2.439 . S
O103 C104 1.208 . S
C104 O102 1.247 . S
C104 O103 1.208 . S
C105 O110 1.247 . S
C105 O111 1.208 . S
C106 O98 1.315 . S
C106 O101 1.279 . S
C107 O108 1.315 . S
C107 O109 1.279 . S
O108 Cd100 2.223 . S
O108 C107 1.315 . S
O109 Cd99 2.240 . S
O109 C107 1.279 . S
O110 Cd100 2.297 . S
O110 C105 1.247 . S
O111 Cd100 2.439 . S
O111 C105 1.208 . S
O112 Cd113 2.223 . S
O112 C120 1.315 . S
Cd113 O112 2.223 . S
Cd113 O116 2.297 . S
Cd113 O117 2.439 . S
Cd113 O123 2.240 . S
Cd114 O115 2.240 . S
Cd114 O122 2.223 . S
Cd114 O124 2.297 . S
Cd114 O125 2.439 . S
O115 Cd114 2.240 . S
O115 C120 1.279 . S
O116 Cd113 2.297 . S
O116 C118 1.247 . S
O117 Cd113 2.439 . S
O117 C118 1.208 . S
C118 O116 1.247 . S
C118 O117 1.208 . S
C119 O124 1.247 . S
C119 O125 1.208 . S
C120 O112 1.315 . S
C120 O115 1.279 . S
C121 O122 1.315 . S
C121 O123 1.279 . S
O122 Cd114 2.223 . S
O122 C121 1.315 . S
O123 Cd113 2.240 . S
O123 C121 1.279 . S
O124 Cd114 2.297 . S
O124 C119 1.247 . S
O125 Cd114 2.439 . S
O125 C119 1.208 . S
O126 Cd127 2.223 . S
O126 C134 1.315 . S
Cd127 O126 2.223 . S
Cd127 O130 2.297 . S
Cd127 O131 2.439 . S
Cd127 O137 2.240 . S
Cd128 O129 2.240 . S
Cd128 O136 2.223 . S
Cd128 O138 2.297 . S
Cd128 O139 2.439 . S
O129 Cd128 2.240 . S
O129 C134 1.279 . S
O130 Cd127 2.297 . S
O130 C132 1.247 . S
O131 Cd127 2.439 . S
O131 C132 1.208 . S
C132 O130 1.247 . S
C132 O131 1.208 . S
C133 O138 1.247 . S
C133 O139 1.208 . S
C134 O126 1.315 . S
C134 O129 1.279 . S
C135 O136 1.315 . S
C135 O137 1.279 . S
O136 Cd128 2.223 . S
O136 C135 1.315 . S
O137 Cd127 2.240 . S
O137 C135 1.279 . S
O138 Cd128 2.297 . S
O138 C133 1.247 . S
O139 Cd128 2.439 . S
O139 C133 1.208 . S
O140 Cd141 2.223 . S
O140 C148 1.315 . S
Cd141 O140 2.223 . S
Cd141 O144 2.297 . S
Cd141 O145 2.439 . S
Cd141 O151 2.240 . S
Cd142 O143 2.240 . S
Cd142 O150 2.223 . S
Cd142 O152 2.297 . S
Cd142 O153 2.439 . S
O143 Cd142 2.240 . S
O143 C148 1.279 . S
O144 Cd141 2.297 . S
O144 C146 1.247 . S
O145 Cd141 2.439 . S
O145 C146 1.208 . S
C146 O144 1.247 . S
C146 O145 1.208 . S
C147 O152 1.247 . S
C147 O153 1.208 . S
C148 O140 1.315 . S
C148 O143 1.279 . S
C149 O150 1.315 . S
C149 O151 1.279 . S
O150 Cd142 2.223 . S
O150 C149 1.315 . S
O151 Cd141 2.240 . S
O151 C149 1.279 . S
O152 Cd142 2.297 . S
O152 C147 1.247 . S
O153 Cd142 2.439 . S
O153 C147 1.208 . S
O154 Cd155 2.223 . S
O154 C162 1.315 . S
Cd155 O154 2.223 . S
Cd155 O158 2.297 . S
Cd155 O159 2.439 . S
Cd155 O165 2.240 . S
Cd156 O157 2.240 . S
Cd156 O164 2.223 . S
Cd156 O166 2.297 . S
Cd156 O167 2.439 . S
O157 Cd156 2.240 . S
O157 C162 1.279 . S
O158 Cd155 2.297 . S
O158 C160 1.247 . S
O159 Cd155 2.439 . S
O159 C160 1.208 . S
C160 O158 1.247 . S
C160 O159 1.208 . S
C161 O166 1.247 . S
C161 O167 1.208 . S
C162 O154 1.315 . S
C162 O157 1.279 . S
C163 O164 1.315 . S
C163 O165 1.279 . S
O164 Cd156 2.223 . S
O164 C163 1.315 . S
O165 Cd155 2.240 . S
O165 C163 1.279 . S
O166 Cd156 2.297 . S
O166 C161 1.247 . S
O167 Cd156 2.439 . S
O167 C161 1.208 . S
C168 C169 1.363 1_554 S
C168 C174 1.379 1_565 S
C168 N176 1.356 . S
C169 C168 1.363 1_556 S
C169 C175 1.363 . S
C170 C171 1.363 1_556 S
C170 C175 1.379 1_545 S
C170 N177 1.356 . S
C171 C170 1.363 1_554 S
C171 C174 1.363 . S
N172 C174 1.356 . S
N172 H184 0.984 1_545 S
N172 H185 0.985 . S
N173 C175 1.356 . S
N173 H178 0.984 . S
N173 H179 0.985 1_565 S
C174 C168 1.379 1_545 S
C174 C171 1.363 . S
C174 N172 1.356 . S
C175 C169 1.363 . S
C175 C170 1.379 1_565 S
C175 N173 1.356 . S
N176 C168 1.356 . S
N176 H182 0.984 . S
N176 H183 0.984 1_554 S
N177 C170 1.356 . S
N177 H180 0.984 1_556 S
N177 H181 0.985 . S
H178 N173 0.984 . S
H179 N173 0.985 1_545 S
H180 N177 0.984 1_554 S
H181 N177 0.985 . S
H182 N176 0.984 . S
H183 N176 0.984 1_556 S
H184 N172 0.984 1_565 S
H185 N172 0.985 . S
C186 C187 1.363 . S
C186 C192 1.379 . S
C186 N194 1.356 . S
C187 C186 1.363 . S
C187 C193 1.363 . S
C188 C189 1.363 . S
C188 C193 1.379 . S
C188 N195 1.356 . S
C189 C188 1.363 . S
C189 C192 1.363 . S
N190 C192 1.356 . S
N190 H202 0.984 . S
N190 H203 0.985 . S
N191 C193 1.356 . S
N191 H196 0.984 . S
N191 H197 0.985 . S
C192 C186 1.379 . S
C192 C189 1.363 . S
C192 N190 1.356 . S
C193 C187 1.363 . S
C193 C188 1.379 . S
C193 N191 1.356 . S
N194 C186 1.356 . S
N194 H200 0.984 . S
N194 H201 0.984 . S
N195 C188 1.356 . S
N195 H198 0.984 . S
N195 H199 0.985 . S
H196 N191 0.984 . S
H197 N191 0.985 . S
H198 N195 0.984 . S
H199 N195 0.985 . S
H200 N194 0.984 . S
H201 N194 0.984 . S
H202 N190 0.984 . S
H203 N190 0.985 . S
C204 C205 1.363 . S
C204 C210 1.379 1_655 S
C204 N212 1.356 . S
C205 C204 1.363 . S
C205 C211 1.363 . S
C206 C207 1.363 . S
C206 C211 1.379 1_455 S
C206 N213 1.356 . S
C207 C206 1.363 . S
C207 C210 1.363 . S
N208 C210 1.356 . S
N208 H220 0.984 . S
N208 H221 0.985 . S
N209 C211 1.356 . S
N209 H214 0.984 . S
N209 H215 0.985 . S
C210 C204 1.379 1_455 S
C210 C207 1.363 . S
C210 N208 1.356 . S
C211 C205 1.363 . S
C211 C206 1.379 1_655 S
C211 N209 1.356 . S
N212 C204 1.356 . S
N212 H218 0.984 . S
N212 H219 0.984 . S
N213 C206 1.356 . S
N213 H216 0.984 . S
N213 H217 0.985 . S
H214 N209 0.984 . S
H215 N209 0.985 . S
H216 N213 0.984 . S
H217 N213 0.985 . S
H218 N212 0.984 . S
H219 N212 0.984 . S
H220 N208 0.984 . S
H221 N208 0.985 . S
C222 C223 1.363 1_556 S
C222 C228 1.379 . S
C222 N230 1.356 . S
C223 C222 1.363 1_554 S
C223 C229 1.363 1_565 S
C224 C225 1.363 1_554 S
C224 C229 1.379 . S
C224 N231 1.356 . S
C225 C224 1.363 1_556 S
C225 C228 1.363 1_545 S
N226 C228 1.356 1_545 S
N226 H238 0.984 1_545 S
N226 H239 0.985 . S
N227 C229 1.356 1_565 S
N227 H232 0.984 . S
N227 H233 0.985 1_565 S
C228 C222 1.379 . S
C228 C225 1.363 1_565 S
C228 N226 1.356 1_565 S
C229 C223 1.363 1_545 S
C229 C224 1.379 . S
C229 N227 1.356 1_545 S
N230 C222 1.356 . S
N230 H236 0.984 . S
N230 H237 0.966 1_556 S
N231 C224 1.356 . S
N231 H234 0.966 1_554 S
N231 H235 0.985 . S
H232 N227 0.984 . S
H233 N227 0.985 1_545 S
H234 N231 0.966 1_556 S
H235 N231 0.985 . S
H236 N230 0.984 . S
H237 N230 0.966 1_554 S
H238 N226 0.984 1_565 S
H239 N226 0.985 . S
C240 C241 1.363 . S
C240 C246 1.379 . S
C240 N248 1.356 . S
C241 C240 1.363 . S
C241 C247 1.363 . S
C242 C243 1.363 . S
C242 C247 1.379 . S
C242 N249 1.356 . S
C243 C242 1.363 . S
C243 C246 1.363 . S
N244 C246 1.356 . S
N244 H256 0.984 . S
N244 H257 0.985 . S
N245 C247 1.356 . S
N245 H250 0.984 . S
N245 H251 0.985 . S
C246 C240 1.379 . S
C246 C243 1.363 . S
C246 N244 1.356 . S
C247 C241 1.363 . S
C247 C242 1.379 . S
C247 N245 1.356 . S
N248 C240 1.356 . S
N248 H254 0.984 . S
N248 H255 0.984 . S
N249 C242 1.356 . S
N249 H252 0.984 . S
N249 H253 0.985 . S
H250 N245 0.984 . S
H251 N245 0.985 . S
H252 N249 0.984 . S
H253 N249 0.985 . S
H254 N248 0.984 . S
H255 N248 0.984 . S
H256 N244 0.984 . S
H257 N244 0.985 . S
C258 C259 1.363 1_455 S
C258 C264 1.379 . S
C258 N266 1.356 1_455 S
C259 C258 1.363 1_655 S
C259 C265 1.363 . S
C260 C261 1.363 1_655 S
C260 C265 1.379 . S
C260 N267 1.356 1_655 S
C261 C260 1.363 1_455 S
C261 C264 1.363 . S
N262 C264 1.356 . S
N262 H274 0.984 . S
N262 H275 0.985 . S
N263 C265 1.356 . S
N263 H268 0.984 . S
N263 H269 0.985 . S
C264 C258 1.379 . S
C264 C261 1.363 . S
C264 N262 1.356 . S
C265 C259 1.363 . S
C265 C260 1.379 . S
C265 N263 1.356 . S
N266 C258 1.356 1_655 S
N266 H272 0.984 1_655 S
N266 H273 0.984 . S
N267 C260 1.356 1_455 S
N267 H270 0.984 . S
N267 H271 0.985 1_455 S
H268 N263 0.984 . S
H269 N263 0.985 . S
H270 N267 0.984 . S
H271 N267 0.985 1_655 S
H272 N266 0.984 1_455 S
H273 N266 0.984 . S
H274 N262 0.984 . S
H275 N262 0.985 . S
C276 C277 1.363 . S
C276 C282 1.379 . S
C276 N284 1.356 . S
C277 C276 1.363 . S
C277 C283 1.363 1_556 S
C278 C279 1.363 . S
C278 C283 1.379 . S
C278 N285 1.356 . S
C279 C278 1.363 . S
C279 C282 1.363 1_554 S
N280 C282 1.356 . S
N280 H292 0.984 . S
N280 H293 0.985 1_556 S
N281 C283 1.356 . S
N281 H286 0.984 1_554 S
N281 H287 0.985 . S
C282 C276 1.379 . S
C282 C279 1.363 1_556 S
C282 N280 1.356 . S
C283 C277 1.363 1_554 S
C283 C278 1.379 . S
C283 N281 1.356 . S
N284 C276 1.356 . S
N284 H290 0.984 . S
N284 H291 0.984 . S
N285 C278 1.356 . S
N285 H288 0.984 . S
N285 H289 0.985 . S
H286 N281 0.984 1_556 S
H287 N281 0.985 . S
H288 N285 0.984 . S
H289 N285 0.985 . S
H290 N284 0.984 . S
H291 N284 0.984 . S
H292 N280 0.984 . S
H293 N280 0.985 1_554 S
C294 C295 1.363 . S
C294 C300 1.379 . S
C294 N302 1.356 . S
C295 C294 1.363 . S
C295 C301 1.363 . S
C296 C297 1.363 . S
C296 C301 1.379 . S
C296 N303 1.356 . S
C297 C296 1.363 . S
C297 C300 1.363 . S
N298 C300 1.356 . S
N298 H310 0.984 . S
N298 H311 0.985 . S
N299 C301 1.356 . S
N299 H304 0.984 . S
N299 H305 0.985 . S
C300 C294 1.379 . S
C300 C297 1.363 . S
C300 N298 1.356 . S
C301 C295 1.363 . S
C301 C296 1.379 . S
C301 N299 1.356 . S
N302 C294 1.356 . S
N302 H308 0.984 . S
N302 H309 0.984 . S
N303 C296 1.356 . S
N303 H306 0.984 . S
N303 H307 0.985 . S
H304 N299 0.984 . S
H305 N299 0.985 . S
H306 N303 0.984 . S
H307 N303 0.985 . S
H308 N302 0.984 . S
H309 N302 0.984 . S
H310 N298 0.984 . S
H311 N298 0.985 . S
C312 C313 1.363 . S
C312 C318 1.379 . S
C312 N320 1.356 . S
C313 C312 1.363 . S
C313 C319 1.363 . S
C314 C315 1.363 . S
C314 C319 1.379 . S
C314 N321 1.356 . S
C315 C314 1.363 . S
C315 C318 1.363 . S
N316 C318 1.356 . S
N316 H328 0.984 . S
N316 H329 0.985 . S
N317 C319 1.356 . S
N317 H322 0.984 . S
N317 H323 0.985 . S
C318 C312 1.379 . S
C318 C315 1.363 . S
C318 N316 1.356 . S
C319 C313 1.363 . S
C319 C314 1.379 . S
C319 N317 1.356 . S
N320 C312 1.356 . S
N320 H326 0.984 . S
N320 H327 0.984 . S
N321 C314 1.356 . S
N321 H324 0.984 . S
N321 H325 0.985 . S
H322 N317 0.984 . S
H323 N317 0.985 . S
H324 N321 0.984 . S
H325 N321 0.985 . S
H326 N320 0.984 . S
H327 N320 0.984 . S
H328 N316 0.984 . S
H329 N316 0.985 . S
C330 C331 1.363 . S
C330 C336 1.379 . S
C330 N338 1.356 . S
C331 C330 1.363 . S
C331 C337 1.363 1_556 S
C332 C333 1.363 . S
C332 C337 1.379 . S
C332 N339 1.356 . S
C333 C332 1.363 . S
C333 C336 1.363 1_554 S
N334 C336 1.356 . S
N334 H346 0.984 . S
N334 H347 0.985 1_556 S
N335 C337 1.356 . S
N335 H340 0.984 1_554 S
N335 H341 0.985 . S
C336 C330 1.379 . S
C336 C333 1.363 1_556 S
C336 N334 1.356 . S
C337 C331 1.363 1_554 S
C337 C332 1.379 . S
C337 N335 1.356 . S
N338 C330 1.356 . S
N338 H344 0.984 . S
N338 H345 0.984 . S
N339 C332 1.356 . S
N339 H342 0.984 . S
N339 H343 0.985 . S
H340 N335 0.984 1_556 S
H341 N335 0.985 . S
H342 N339 0.984 . S
H343 N339 0.985 . S
H344 N338 0.984 . S
H345 N338 0.984 . S
H346 N334 0.984 . S
H347 N334 0.985 1_554 S
C348 C349 1.363 . S
C348 C354 1.379 . S
C348 N356 1.356 . S
C349 C348 1.363 . S
C349 C355 1.363 . S
C350 C351 1.363 . S
C350 C355 1.379 . S
C350 N357 1.356 . S
C351 C350 1.363 . S
C351 C354 1.363 . S
N352 C354 1.356 . S
N352 H364 0.984 . S
N352 H365 0.985 . S
N353 C355 1.356 . S
N353 H358 0.984 . S
N353 H359 0.985 . S
C354 C348 1.379 . S
C354 C351 1.363 . S
C354 N352 1.356 . S
C355 C349 1.363 . S
C355 C350 1.379 . S
C355 N353 1.356 . S
N356 C348 1.356 . S
N356 H362 0.984 . S
N356 H363 0.984 . S
N357 C350 1.356 . S
N357 H360 0.984 . S
N357 H361 0.985 . S
H358 N353 0.984 . S
H359 N353 0.985 . S
H360 N357 0.984 . S
H361 N357 0.985 . S
H362 N356 0.984 . S
H363 N356 0.984 . S
H364 N352 0.984 . S
H365 N352 0.985 . S
C366 C367 1.363 . S
C366 C372 1.379 . S
C366 N374 1.356 . S
C367 C366 1.363 . S
C367 C373 1.363 . S
C368 C369 1.363 . S
C368 C373 1.379 . S
C368 N375 1.356 . S
C369 C368 1.363 . S
C369 C372 1.363 . S
N370 C372 1.356 . S
N370 H382 0.984 . S
N370 H383 0.985 . S
N371 C373 1.356 . S
N371 H376 0.984 . S
N371 H377 0.985 . S
C372 C366 1.379 . S
C372 C369 1.363 . S
C372 N370 1.356 . S
C373 C367 1.363 . S
C373 C368 1.379 . S
C373 N371 1.356 . S
N374 C366 1.356 . S
N374 H380 0.984 . S
N374 H381 0.984 . S
N375 C368 1.356 . S
N375 H378 0.984 . S
N375 H379 0.985 . S
H376 N371 0.984 . S
H377 N371 0.985 . S
H378 N375 0.984 . S
H379 N375 0.985 . S
H380 N374 0.984 . S
H381 N374 0.984 . S
H382 N370 0.984 . S
H383 N370 0.985 . S
C384 C385 1.363 . S
C384 C390 1.379 . S
C384 N392 1.356 . S
C385 C384 1.363 . S
C385 C391 1.363 . S
C386 C387 1.363 . S
C386 C391 1.379 . S
C386 N393 1.356 . S
C387 C386 1.363 . S
C387 C390 1.363 . S
N388 C390 1.356 . S
N388 H400 0.984 . S
N388 H401 0.985 . S
N389 C391 1.356 . S
N389 H394 0.984 . S
N389 H395 0.985 . S
C390 C384 1.379 . S
C390 C387 1.363 . S
C390 N388 1.356 . S
C391 C385 1.363 . S
C391 C386 1.379 . S
C391 N389 1.356 . S
N392 C384 1.356 . S
N392 H398 0.984 . S
N392 H399 0.984 . S
N393 C386 1.356 . S
N393 H396 0.984 . S
N393 H397 0.985 . S
H394 N389 0.984 . S
H395 N389 0.985 . S
H396 N393 0.984 . S
H397 N393 0.985 . S
H398 N392 0.984 . S
H399 N392 0.984 . S
H400 N388 0.984 . S
H401 N388 0.985 . S
C402 C403 1.363 . S
C402 C408 1.379 . S
C402 N410 1.356 . S
C403 C402 1.363 . S
C403 C409 1.363 . S
C404 C405 1.363 . S
C404 C409 1.379 . S
C404 N411 1.356 . S
C405 C404 1.363 . S
C405 C408 1.363 . S
N406 C408 1.356 . S
N406 H418 0.984 . S
N406 H419 0.985 . S
N407 C409 1.356 . S
N407 H412 0.984 . S
N407 H413 0.985 . S
C408 C402 1.379 . S
C408 C405 1.363 . S
C408 N406 1.356 . S
C409 C403 1.363 . S
C409 C404 1.379 . S
C409 N407 1.356 . S
N410 C402 1.356 . S
N410 H416 0.984 . S
N410 H417 0.984 . S
N411 C404 1.356 . S
N411 H414 0.984 . S
N411 H415 0.985 . S
H412 N407 0.984 . S
H413 N407 0.985 . S
H414 N411 0.984 . S
H415 N411 0.985 . S
H416 N410 0.984 . S
H417 N410 0.984 . S
H418 N406 0.984 . S
H419 N406 0.985 . S
C420 C421 1.363 . S
C420 C426 1.379 . S
C420 N428 1.356 . S
C421 C420 1.363 . S
C421 C427 1.363 . S
C422 C423 1.363 . S
C422 C427 1.379 . S
C422 N429 1.356 . S
C423 C422 1.363 . S
C423 C426 1.363 . S
N424 C426 1.356 . S
N424 H436 0.984 . S
N424 H437 0.985 . S
N425 C427 1.356 . S
N425 H430 0.984 . S
N425 H431 0.985 . S
C426 C420 1.379 . S
C426 C423 1.363 . S
C426 N424 1.356 . S
C427 C421 1.363 . S
C427 C422 1.379 . S
C427 N425 1.356 . S
N428 C420 1.356 . S
N428 H434 0.984 . S
N428 H435 0.984 . S
N429 C422 1.356 . S
N429 H432 0.984 . S
N429 H433 0.985 . S
H430 N425 0.984 . S
H431 N425 0.985 . S
H432 N429 0.984 . S
H433 N429 0.985 . S
H434 N428 0.984 . S
H435 N428 0.984 . S
H436 N424 0.984 . S
H437 N424 0.985 . S
C438 C439 1.363 . S
C438 C444 1.379 . S
C438 N446 1.356 . S
C439 C438 1.363 . S
C439 C445 1.363 . S
C440 C441 1.363 . S
C440 C445 1.379 . S
C440 N447 1.356 . S
C441 C440 1.363 . S
C441 C444 1.363 . S
N442 C444 1.356 . S
N442 H454 0.984 . S
N442 H455 0.985 . S
N443 C445 1.356 . S
N443 H448 0.984 . S
N443 H449 0.985 . S
C444 C438 1.379 . S
C444 C441 1.363 . S
C444 N442 1.356 . S
C445 C439 1.363 . S
C445 C440 1.379 . S
C445 N443 1.356 . S
N446 C438 1.356 . S
N446 H452 0.984 . S
N446 H453 0.984 . S
N447 C440 1.356 . S
N447 H450 0.984 . S
N447 H451 0.985 . S
H448 N443 0.984 . S
H449 N443 0.985 . S
H450 N447 0.984 . S
H451 N447 0.985 . S
H452 N446 0.984 . S
H453 N446 0.984 . S
H454 N442 0.984 . S
H455 N442 0.985 . S
C456 C457 1.363 . S
C456 C462 1.379 . S
C456 N464 1.356 . S
C457 C456 1.363 . S
C457 C463 1.363 . S
C458 C459 1.363 . S
C458 C463 1.379 . S
C458 N465 1.356 . S
C459 C458 1.363 . S
C459 C462 1.363 . S
N460 C462 1.356 . S
N460 H472 0.984 . S
N460 H473 0.985 . S
N461 C463 1.356 . S
N461 H466 0.984 . S
N461 H467 0.985 . S
C462 C456 1.379 . S
C462 C459 1.363 . S
C462 N460 1.356 . S
C463 C457 1.363 . S
C463 C458 1.379 . S
C463 N461 1.356 . S
N464 C456 1.356 . S
N464 H470 0.984 . S
N464 H471 0.984 . S
N465 C458 1.356 . S
N465 H468 0.984 . S
N465 H469 0.985 . S
H466 N461 0.984 . S
H467 N461 0.985 . S
H468 N465 0.984 . S
H469 N465 0.985 . S
H470 N464 0.984 . S
H471 N464 0.984 . S
H472 N460 0.984 . S
H473 N460 0.985 . S
C474 C475 1.363 . S
C474 C480 1.379 . S
C474 N482 1.356 . S
C475 C474 1.363 . S
C475 C481 1.363 . S
C476 C477 1.363 . S
C476 C481 1.379 . S
C476 N483 1.356 . S
C477 C476 1.363 . S
C477 C480 1.363 . S
N478 C480 1.356 . S
N478 H490 0.984 . S
N478 H491 0.985 . S
N479 C481 1.356 . S
N479 H484 0.984 . S
N479 H485 0.985 . S
C480 C474 1.379 . S
C480 C477 1.363 . S
C480 N478 1.356 . S
C481 C475 1.363 . S
C481 C476 1.379 . S
C481 N479 1.356 . S
N482 C474 1.356 . S
N482 H488 0.984 . S
N482 H489 0.984 . S
N483 C476 1.356 . S
N483 H486 0.984 . S
N483 H487 0.985 . S
H484 N479 0.984 . S
H485 N479 0.985 . S
H486 N483 0.984 . S
H487 N483 0.985 . S
H488 N482 0.984 . S
H489 N482 0.984 . S
H490 N478 0.984 . S
H491 N478 0.985 . S
C492 C493 1.363 . S
C492 C498 1.379 . S
C492 N500 1.356 . S
C493 C492 1.363 . S
C493 C499 1.363 . S
C494 C495 1.363 . S
C494 C499 1.379 . S
C494 N501 1.356 . S
C495 C494 1.363 . S
C495 C498 1.363 . S
N496 C498 1.356 . S
N496 H508 0.984 . S
N496 H509 0.985 . S
N497 C499 1.356 . S
N497 H502 0.984 . S
N497 H503 0.985 . S
C498 C492 1.379 . S
C498 C495 1.363 . S
C498 N496 1.356 . S
C499 C493 1.363 . S
C499 C494 1.379 . S
C499 N497 1.356 . S
N500 C492 1.356 . S
N500 H506 0.984 . S
N500 H507 0.984 . S
N501 C494 1.356 . S
N501 H504 0.984 . S
N501 H505 0.985 . S
H502 N497 0.984 . S
H503 N497 0.985 . S
H504 N501 0.984 . S
H505 N501 0.985 . S
H506 N500 0.984 . S
H507 N500 0.984 . S
H508 N496 0.984 . S
H509 N496 0.985 . S
C510 C511 1.363 . S
C510 C516 1.391 . S
C510 N518 1.356 . S
C511 C510 1.363 . S
C511 C517 1.355 1_655 S
C512 C513 1.363 . S
C512 C517 1.391 . S
C512 N519 1.356 . S
C513 C512 1.363 . S
C513 C516 1.355 1_455 S
N514 C516 1.348 1_455 S
N514 H526 0.984 1_455 S
N514 H527 0.985 . S
N515 C517 1.348 1_655 S
N515 H520 0.984 . S
N515 H521 0.985 1_655 S
C516 C510 1.391 . S
C516 C513 1.355 1_655 S
C516 N514 1.348 1_655 S
C517 C511 1.355 1_455 S
C517 C512 1.391 . S
C517 N515 1.348 1_455 S
N518 C510 1.356 . S
N518 H524 0.984 . S
N518 H525 0.984 . S
N519 C512 1.356 . S
N519 H522 0.984 . S
N519 H523 0.985 . S
H520 N515 0.984 . S
H521 N515 0.985 1_455 S
H522 N519 0.984 . S
H523 N519 0.985 . S
H524 N518 0.984 . S
H525 N518 0.984 . S
H526 N514 0.984 1_655 S
H527 N514 0.985 . S
C528 C529 1.363 . S
C528 C534 1.382 . S
C528 N536 1.356 . S
C529 C528 1.363 . S
C529 C535 1.355 1_545 S
C530 C531 1.363 . S
C530 C535 1.382 . S
C530 N537 1.356 . S
C531 C530 1.363 . S
C531 C534 1.355 1_565 S
N532 C534 1.359 1_565 S
N532 H544 0.984 1_565 S
N532 H545 0.985 . S
N533 C535 1.359 1_545 S
N533 H538 0.984 . S
N533 H539 0.985 1_545 S
C534 C528 1.382 . S
C534 C531 1.355 1_545 S
C534 N532 1.359 1_545 S
C535 C529 1.355 1_565 S
C535 C530 1.382 . S
C535 N533 1.359 1_565 S
N536 C528 1.356 . S
N536 H542 0.984 . S
N536 H543 0.984 . S
N537 C530 1.356 . S
N537 H540 0.984 . S
N537 H541 0.985 . S
H538 N533 0.984 . S
H539 N533 0.985 1_565 S
H540 N537 0.984 . S
H541 N537 0.985 . S
H542 N536 0.984 . S
H543 N536 0.984 . S
H544 N532 0.984 1_545 S
H545 N532 0.985 . S
C546 C547 1.363 . S
C546 C552 1.379 . S
C546 N554 1.356 . S
C547 C546 1.363 . S
C547 C553 1.363 . S
C548 C549 1.363 . S
C548 C553 1.379 . S
C548 N555 1.356 . S
C549 C548 1.363 . S
C549 C552 1.363 . S
N550 C552 1.356 . S
N550 H562 0.984 . S
N550 H563 0.985 . S
N551 C553 1.356 . S
N551 H556 0.984 . S
N551 H557 0.985 . S
C552 C546 1.379 . S
C552 C549 1.363 . S
C552 N550 1.356 . S
C553 C547 1.363 . S
C553 C548 1.379 . S
C553 N551 1.356 . S
N554 C546 1.356 . S
N554 H560 0.984 . S
N554 H561 0.984 . S
N555 C548 1.356 . S
N555 H558 0.984 . S
N555 H559 0.985 . S
H556 N551 0.984 . S
H557 N551 0.985 . S
H558 N555 0.984 . S
H559 N555 0.985 . S
H560 N554 0.984 . S
H561 N554 0.984 . S
H562 N550 0.984 . S
H563 N550 0.985 . S
C564 C565 1.363 . S
C564 C570 1.382 . S
C564 N572 1.356 . S
C565 C564 1.363 . S
C565 C571 1.355 1_455 S
C566 C567 1.363 . S
C566 C571 1.382 . S
C566 N573 1.356 . S
C567 C566 1.363 . S
C567 C570 1.355 1_655 S
N568 C570 1.359 1_655 S
N568 H580 0.984 1_655 S
N568 H581 0.985 . S
N569 C571 1.359 1_455 S
N569 H574 0.984 . S
N569 H575 0.985 1_455 S
C570 C564 1.382 . S
C570 C567 1.355 1_455 S
C570 N568 1.359 1_455 S
C571 C565 1.355 1_655 S
C571 C566 1.382 . S
C571 N569 1.359 1_655 S
N572 C564 1.356 . S
N572 H578 0.984 . S
N572 H579 0.984 . S
N573 C566 1.356 . S
N573 H576 0.984 . S
N573 H577 0.985 . S
H574 N569 0.984 . S
H575 N569 0.985 1_655 S
H576 N573 0.984 . S
H577 N573 0.985 . S
H578 N572 0.984 . S
H579 N572 0.984 . S
H580 N568 0.984 1_455 S
H581 N568 0.985 . S
C582 C583 1.354 1_545 S
C582 C588 1.391 . S
C582 N590 1.348 1_545 S
C583 C582 1.354 1_565 S
C583 C589 1.363 . S
C584 C585 1.354 1_565 S
C584 C589 1.391 . S
C584 N591 1.348 1_565 S
C585 C584 1.354 1_545 S
C585 C588 1.363 . S
N586 C588 1.356 . S
N586 H598 0.984 . S
N586 H599 0.985 . S
N587 C589 1.356 . S
N587 H592 0.984 . S
N587 H593 0.985 . S
C588 C582 1.391 . S
C588 C585 1.363 . S
C588 N586 1.356 . S
C589 C583 1.363 . S
C589 C584 1.391 . S
C589 N587 1.356 . S
N590 C582 1.348 1_565 S
N590 H596 0.984 1_565 S
N590 H597 0.984 . S
N591 C584 1.348 1_545 S
N591 H594 0.984 . S
N591 H595 0.985 1_545 S
H592 N587 0.984 . S
H593 N587 0.985 . S
H594 N591 0.984 . S
H595 N591 0.985 1_565 S
H596 N590 0.984 1_545 S
H597 N590 0.984 . S
H598 N586 0.984 . S
H599 N586 0.985 . S
C169 C105 1.281 . S
C171 C7 1.281 . S
C187 C21 1.282 . S
C189 C119 1.282 . S
C205 C35 1.281 . S
C207 C133 1.281 . S
C223 C49 1.281 . S
C225 C147 1.281 . S
C241 C161 1.282 . S
C243 C63 1.282 . S
C259 C91 1.281 . S
C261 C77 1.281 . S
C277 C149 1.693 . S
C279 C9 1.693 . S
C295 C23 1.693 . S
C297 C163 1.693 . S
C313 C37 1.693 . S
C315 C93 1.693 . S
C331 C107 1.693 . S
C333 C51 1.693 . S
C349 C121 1.693 . S
C351 C65 1.693 . S
C367 C135 1.693 . S
C369 C79 1.693 . S
C385 C6 1.712 . S
C387 C118 1.712 . S
C403 C20 1.712 . S
C405 C132 1.712 . S
C421 C146 1.712 . S
C423 C34 1.712 . S
C439 C48 1.712 . S
C441 C160 1.712 . S
C457 C90 1.712 . S
C459 C62 1.712 . S
C475 C104 1.712 . S
C477 C76 1.712 . S
C493 C50 1.353 . S
C495 C8 1.353 . S
C511 C64 1.353 . S
C513 C22 1.353 . S
C529 C36 1.353 . S
C531 C78 1.353 . S
C547 C92 1.353 . S
C549 C134 1.353 . S
C565 C106 1.353 . S
C567 C148 1.353 . S
C583 C162 1.353 . S
C585 C120 1.353 . S
