# Generated by pormake.
# Topology snk, (6)-cn, num edge types: 1
# Building blocks:
#     Node 0, Type 0, BuildingBlock: KUMBOL_clean_sbu_0, # of connection points: 6
#     Node 1, Type 0, BuildingBlock: KUMBOL_clean_sbu_0, # of connection points: 6
#     Node 2, Type 0, BuildingBlock: KUMBOL_clean_sbu_0, # of connection points: 6
#     Node 3, Type 0, BuildingBlock: KUMBOL_clean_sbu_0, # of connection points: 6
#     Node 4, Type 0, BuildingBlock: KUMBOL_clean_sbu_0, # of connection points: 6
#     Node 5, Type 0, BuildingBlock: KUMBOL_clean_sbu_0, # of connection points: 6
#     Node 6, Type 0, BuildingBlock: KUMBOL_clean_sbu_0, # of connection points: 6
#     Node 7, Type 0, BuildingBlock: KUMBOL_clean_sbu_0, # of connection points: 6
#     Edge 8, Type (0, 0), BuildingBlock: XUDNAN_clean_linker_2, # of connection points: 2
#     Edge 9, Type (0, 0), BuildingBlock: XUDNAN_clean_linker_2, # of connection points: 2
#     Edge 10, Type (0, 0), BuildingBlock: XUDNAN_clean_linker_2, # of connection points: 2
#     Edge 11, Type (0, 0), BuildingBlock: XUDNAN_clean_linker_2, # of connection points: 2
#     Edge 12, Type (0, 0), BuildingBlock: XUDNAN_clean_linker_2, # of connection points: 2
#     Edge 13, Type (0, 0), BuildingBlock: XUDNAN_clean_linker_2, # of connection points: 2
#     Edge 14, Type (0, 0), BuildingBlock: XUDNAN_clean_linker_2, # of connection points: 2
#     Edge 15, Type (0, 0), BuildingBlock: XUDNAN_clean_linker_2, # of connection points: 2
#     Edge 16, Type (0, 0), BuildingBlock: XUDNAN_clean_linker_2, # of connection points: 2
#     Edge 17, Type (0, 0), BuildingBlock: XUDNAN_clean_linker_2, # of connection points: 2
#     Edge 18, Type (0, 0), BuildingBlock: XUDNAN_clean_linker_2, # of connection points: 2
#     Edge 19, Type (0, 0), BuildingBlock: XUDNAN_clean_linker_2, # of connection points: 2
#     Edge 20, Type (0, 0), BuildingBlock: XUDNAN_clean_linker_2, # of connection points: 2
#     Edge 21, Type (0, 0), BuildingBlock: XUDNAN_clean_linker_2, # of connection points: 2
#     Edge 22, Type (0, 0), BuildingBlock: XUDNAN_clean_linker_2, # of connection points: 2
#     Edge 23, Type (0, 0), BuildingBlock: XUDNAN_clean_linker_2, # of connection points: 2
#     Edge 24, Type (0, 0), BuildingBlock: XUDNAN_clean_linker_2, # of connection points: 2
#     Edge 25, Type (0, 0), BuildingBlock: XUDNAN_clean_linker_2, # of connection points: 2
#     Edge 26, Type (0, 0), BuildingBlock: XUDNAN_clean_linker_2, # of connection points: 2
#     Edge 27, Type (0, 0), BuildingBlock: XUDNAN_clean_linker_2, # of connection points: 2
#     Edge 28, Type (0, 0), BuildingBlock: XUDNAN_clean_linker_2, # of connection points: 2
#     Edge 29, Type (0, 0), BuildingBlock: XUDNAN_clean_linker_2, # of connection points: 2
#     Edge 30, Type (0, 0), BuildingBlock: XUDNAN_clean_linker_2, # of connection points: 2
#     Edge 31, Type (0, 0), BuildingBlock: XUDNAN_clean_linker_2, # of connection points: 2
# Relax obj value: 0.006
# Max RMSD: 0.052
# Mean RMSD: 0.049
data_MOF--net-snk--node1-KUMBOL_clean_sbu_0--edge1-XUDNAN_clean_linker_2
_symmetry_space_group_name_H-M    P1
_symmetry_Int_Tables_number       1
_symmetry_cell_setting            triclinic
loop_
_symmetry_equiv_pos_as_xyz
'x, y, z'
_cell_length_a     37.631113
_cell_length_b     37.612371
_cell_length_c     24.327715
_cell_angle_alpha  87.087173
_cell_angle_beta   87.897049
_cell_angle_gamma 90.039097
loop_
_atom_site_label
_atom_site_type_symbol
_atom_site_fract_x
_atom_site_fract_y
_atom_site_fract_z
_atom_type_partial_charge
Gd0 Gd 1.00502 0.03375 0.56478 0.0
Gd1 Gd 1.0007 0.9731 0.45143 0.0
C2 C 0.94113 0.86686 0.47137 0.0
C3 C 0.98947 0.82408 0.46901 0.0
C4 C 1.00191 0.88756 0.45825 0.0
C5 C 0.9661 0.89487 0.46421 0.0
C6 C 0.01402 0.85208 0.45962 0.0
C7 C 0.95307 0.83147 0.47486 0.0
C8 C 0.90492 0.87526 0.47371 0.0
C9 C 0.89444 0.91076 0.46734 0.0
N10 N 0.95558 0.92938 0.46062 0.0
C11 C 0.92023 0.93756 0.4602 0.0
H12 H 0.91165 0.9648 0.45613 0.0
C13 C 0.06004 0.90923 0.43709 0.0
N14 N 0.02478 0.91526 0.4488 0.0
C15 C 0.07339 0.87451 0.43845 0.0
C16 C 0.05035 0.8458 0.45034 0.0
H17 H 0.07812 0.93123 0.42832 0.0
H18 H 0.93432 0.80962 0.48095 0.0
H19 H 0.094 0.03908 0.56827 0.0
H20 H 0.88489 0.85456 0.47942 0.0
H21 H 0.86649 0.91756 0.46833 0.0
H22 H 0.99827 0.79664 0.47068 0.0
H23 H 0.9281 0.07654 0.58441 0.0
H24 H 0.12387 0.14867 0.56527 0.0
H25 H 0.14035 0.08503 0.56859 0.0
H26 H 0.01216 0.20963 0.5669 0.0
H27 H 0.10144 0.86992 0.4304 0.0
H28 H 0.06074 0.81893 0.45118 0.0
H29 H 0.07591 0.19504 0.56304 0.0
H30 H 0.9062 0.13839 0.58729 0.0
N31 N 0.05132 0.07605 0.56129 0.0
C32 C 0.10331 0.12857 0.5641 0.0
C33 C 0.11272 0.09269 0.56618 0.0
C34 C 0.06743 0.13806 0.56214 0.0
C35 C 0.0417 0.11081 0.56123 0.0
C36 C 0.08622 0.06666 0.56572 0.0
N37 N 0.98213 0.09184 0.56891 0.0
C38 C 1.00593 0.11898 0.56473 0.0
C39 C 0.93432 0.13333 0.58081 0.0
C40 C 0.95836 0.16164 0.57433 0.0
C41 C 0.9468 0.09837 0.57922 0.0
C42 C 0.99474 0.15466 0.56744 0.0
H43 H 0.94868 0.18869 0.57624 0.0
O44 O 0.97865 0.03212 0.64593 0.0
O45 O 0.98342 0.98271 0.53749 0.0
O46 O 0.95508 0.01267 0.45278 0.0
O47 O 0.97519 0.06233 0.49559 0.0
O48 O 0.94919 0.01168 0.58453 0.0
O49 O 0.03548 0.0233 0.63795 0.0
O50 O 0.02428 0.97379 0.36845 0.0
O51 O 0.02375 0.02427 0.4787 0.0
O52 O 0.05034 0.99258 0.56659 0.0
O53 O 0.02832 0.94459 0.52141 0.0
O54 O 0.05634 0.99316 0.43136 0.0
O55 O 0.96785 0.98292 0.38065 0.0
C56 C 0.95267 0.98211 0.56044 0.0
C57 C 0.02022 0.18205 0.56519 0.0
C58 C 0.05651 0.17374 0.56301 0.0
C59 C 0.00802 0.02641 0.67165 0.0
C60 C 0.01308 0.04667 0.72095 0.0
C61 C 0.02809 0.08086 0.71712 0.0
C62 C 1.00271 0.03124 0.77288 0.0
C63 C 1.00716 0.04971 0.8212 0.0
C64 C 0.03276 0.09933 0.76475 0.0
C65 C 0.02243 0.08394 0.81644 0.0
C66 C 0.95324 0.04701 0.46245 0.0
C67 C 0.05463 0.02261 0.45594 0.0
C68 C 0.99398 0.97864 0.34491 0.0
C69 C 0.98673 0.95555 0.29952 0.0
C70 C 0.98127 0.91893 0.31004 0.0
C71 C 0.98475 0.9702 0.24529 0.0
C72 C 0.97675 0.94838 0.20191 0.0
C73 C 0.97367 0.89716 0.26725 0.0
C74 C 0.97131 0.91172 0.21359 0.0
C75 C 0.05016 0.95819 0.55628 0.0
H76 H 0.03623 0.09319 0.67752 0.0
H77 H 0.99154 1.00461 0.77555 0.0
H78 H 0.04432 0.12575 0.76158 0.0
H79 H 0.02587 0.09909 0.85256 0.0
H80 H 0.98279 0.90718 0.35126 0.0
H81 H 0.98871 0.99856 0.23712 0.0
H82 H 0.96952 0.86891 0.27573 0.0
H83 H 0.96552 0.8942 0.18106 0.0
Gd84 Gd 0.22621 0.77069 0.85067 0.0
Gd85 Gd 0.2849 0.75845 0.72639 0.0
C86 C 0.38752 0.69406 0.71974 0.0
C87 C 0.43262 0.74051 0.71056 0.0
C88 C 0.3699 0.75601 0.71573 0.0
C89 C 0.36085 0.72035 0.7212 0.0
C90 C 0.40586 0.76654 0.70998 0.0
C91 C 0.42345 0.70433 0.7152 0.0
C92 C 0.37723 0.65824 0.72159 0.0
C93 C 0.34114 0.64951 0.72303 0.0
N94 N 0.3259 0.71136 0.72521 0.0
C95 C 0.31571 0.67659 0.724 0.0
H96 H 0.28789 0.66951 0.72469 0.0
C97 C 0.35087 0.81586 0.70599 0.0
N98 N 0.34338 0.78043 0.71488 0.0
C99 C 0.38615 0.82763 0.70054 0.0
C100 C 0.41379 0.80289 0.70291 0.0
H101 H 0.32965 0.83515 0.70453 0.0
H102 H 0.44433 0.68451 0.71451 0.0
H103 H 0.2318 0.85983 0.83934 0.0
H104 H 0.39689 0.63722 0.72077 0.0
H105 H 0.33288 0.62193 0.72339 0.0
H106 H 0.46042 0.74806 0.70647 0.0
H107 H 0.17341 0.70192 0.88976 0.0
H108 H 0.12712 0.90195 0.8203 0.0
H109 H 0.19198 0.9113 0.82571 0.0
H110 H 0.05261 0.79848 0.84533 0.0
H111 H 0.392 0.85577 0.69452 0.0
H112 H 0.44109 0.81208 0.69848 0.0
H113 H 0.07525 0.8595 0.82624 0.0
H114 H 0.10909 0.6876 0.89596 0.0
N115 N 0.19005 0.82155 0.84084 0.0
C116 C 0.14449 0.87925 0.82634 0.0
C117 C 0.18106 0.88463 0.82962 0.0
C118 C 0.13067 0.84469 0.83265 0.0
C119 C 0.15445 0.81609 0.84054 0.0
C120 C 0.20357 0.85533 0.83741 0.0
N121 N 0.16553 0.75572 0.86193 0.0
C122 C 0.14175 0.78197 0.85132 0.0
C123 C 0.11792 0.71423 0.88314 0.0
C124 C 0.09312 0.74061 0.86963 0.0
C125 C 0.15423 0.72243 0.87988 0.0
C126 C 0.10488 0.77516 0.85442 0.0
H127 H 0.06501 0.73425 0.8724 0.0
O128 O 0.22429 0.74862 0.93502 0.0
O129 O 0.27155 0.7419 0.81351 0.0
O130 O 0.2417 0.7159 0.73606 0.0
O131 O 0.19608 0.74048 0.79012 0.0
O132 O 0.24238 0.71386 0.8744 0.0
O133 O 0.24093 0.80326 0.91746 0.0
O134 O 0.28323 0.78289 0.64373 0.0
O135 O 0.2375 0.78476 0.76236 0.0
O136 O 0.27309 0.8093 0.84009 0.0
O137 O 0.31734 0.77809 0.79432 0.0
O138 O 0.26626 0.8154 0.70597 0.0
O139 O 0.27202 0.72639 0.65813 0.0
C140 C 0.26941 0.71241 0.84056 0.0
C141 C 0.08104 0.80321 0.84379 0.0
C142 C 0.09393 0.83794 0.83293 0.0
C143 C 0.23314 0.77856 0.95559 0.0
C144 C 0.21107 0.7897 1.00278 0.0
C145 C 0.17609 0.80126 0.99537 0.0
C146 C 0.22512 0.78916 0.05562 0.0
C147 C 0.2044 0.80057 0.10084 0.0
C148 C 0.15535 0.81231 0.03999 0.0
C149 C 0.16935 0.81206 0.09236 0.0
C150 C 0.20794 0.71802 0.7535 0.0
C151 C 0.23756 0.81464 0.73653 0.0
C152 C 0.27608 0.75293 0.62167 0.0
C153 C 0.29564 0.74587 0.56992 0.0
C154 C 0.32758 0.72671 0.56954 0.0
C155 C 0.28185 0.75873 0.51988 0.0
C156 C 0.2997 0.75266 0.46929 0.0
C157 C 0.34539 0.72038 0.51959 0.0
C158 C 0.33161 0.73318 0.46976 0.0
C159 C 0.30701 0.80171 0.82993 0.0
H160 H 0.16485 0.80184 0.95514 0.0
H161 H 0.25228 0.78052 0.06126 0.0
H162 H 0.12834 0.82114 0.03397 0.0
H163 H 0.1526 0.82056 0.12639 0.0
H164 H 0.33869 0.71665 0.60765 0.0
H165 H 0.25692 0.77318 0.52047 0.0
H166 H 0.37007 0.7056 0.51949 0.0
H167 H 0.34624 0.72834 0.43172 0.0
Gd168 Gd 0.49873 0.02009 0.98438 0.0
Gd169 Gd 0.52602 0.97612 0.11554 0.0
C170 C 0.63866 0.97507 0.18067 0.0
C171 C 0.66343 0.92126 0.14363 0.0
C172 C 0.60267 0.93887 0.1249 0.0
C173 C 0.6067 0.96891 0.15414 0.0
C174 C 0.63066 0.91409 0.12061 0.0
C175 C 0.6674 0.95169 0.17379 0.0
C176 C 0.64013 1.0035 0.21543 0.0
C177 C 0.60993 0.02432 0.22412 0.0
N178 N 0.57826 0.99061 0.16037 0.0
C179 C 0.5789 0.01714 0.19679 0.0
H180 H 0.55558 0.03321 0.20398 0.0
C181 C 0.56336 0.90012 0.08402 0.0
N182 N 0.5703 0.93231 0.10495 0.0
C183 C 0.59032 0.87487 0.07809 0.0
C184 C 0.62428 0.88207 0.09582 0.0
H185 H 0.53714 0.89385 0.07113 0.0
H186 H 0.69233 0.95621 0.19325 0.0
H187 H 0.41005 0.02359 1.0013 0.0
H188 H 0.66407 0.00893 0.237 0.0
H189 H 0.61046 0.04576 0.25209 0.0
H190 H 0.68536 0.90274 0.14022 0.0
H191 H 0.56879 0.06354 0.92302 0.0
H192 H 0.37804 0.13273 0.99995 0.0
H193 H 0.36289 0.06864 1.0093 0.0
H194 H 0.48575 0.1956 0.94667 0.0
H195 H 0.58478 0.84977 0.06021 0.0
H196 H 0.64495 0.86221 0.09215 0.0
H197 H 0.42432 0.1801 0.97721 0.0
H198 H 0.58778 0.12532 0.89884 0.0
N199 N 0.45184 0.06162 0.98889 0.0
C200 C 0.39889 0.11305 0.99631 0.0
C201 C 0.39024 0.07691 1.00144 0.0
C202 C 0.43415 0.12328 0.98412 0.0
C203 C 0.46023 0.09654 0.98003 0.0
C204 C 0.41714 0.05142 0.99698 0.0
N205 N 0.5179 0.0783 0.95558 0.0
C206 C 0.49444 0.10521 0.96237 0.0
C207 C 0.56151 0.12006 0.91703 0.0
C208 C 0.53833 0.14819 0.92703 0.0
C209 C 0.5506 0.08505 0.93065 0.0
C210 C 0.50405 0.14091 0.94893 0.0
H211 H 0.54679 0.17527 0.91622 0.0
O212 O 0.51509 1.00685 0.9008 0.0
O213 O 0.52859 0.97502 1.02441 0.0
O214 O 0.56526 0.02018 0.0882 0.0
O215 O 0.53083 0.05767 0.03196 0.0
O216 O 0.55456 1.0028 0.96073 0.0
O217 O 0.4599 1.00459 0.92575 0.0
O218 O 0.50952 0.92833 0.16408 0.0
O219 O 0.48479 0.00933 0.07339 0.0
O220 O 0.45748 0.98005 1.01839 0.0
O221 O 0.4919 0.93953 0.06726 0.0
O222 O 0.50122 0.02578 0.14829 0.0
O223 O 0.49935 0.97955 0.19641 0.0
C224 C 0.55699 0.97592 0.99515 0.0
C225 C 0.47882 0.16795 0.95614 0.0
C226 C 0.44386 0.15913 0.97362 0.0
C227 C 0.4829 1.00259 0.88488 0.0
C228 C 0.4738 0.0217 0.83263 0.0
C229 C 0.46312 0.05742 0.83299 0.0
C230 C 0.47521 1.00444 0.78229 0.0
C231 C 0.46503 0.02271 0.73314 0.0
C232 C 0.45345 0.07561 0.78448 0.0
C233 C 0.45416 0.05839 0.735 0.0
C234 C 0.55786 0.05172 0.06444 0.0
C235 C 0.48031 0.03271 0.10859 0.0
C236 C 0.4999 0.94546 0.2073 0.0
C237 C 0.5148 0.93337 0.26085 0.0
C238 C 0.54337 0.90935 0.26255 0.0
C239 C 0.50073 0.94614 0.31081 0.0
C240 C 0.51464 0.93467 0.36213 0.0
C241 C 0.5571 0.89777 0.31278 0.0
C242 C 0.54282 0.91002 0.36206 0.0
C243 C 0.4637 0.94728 0.03788 0.0
H244 H 0.46199 0.07122 0.8709 0.0
H245 H 0.48337 0.97683 0.78157 0.0
H246 H 0.44515 0.10313 0.78529 0.0
H247 H 0.44635 0.07305 0.6979 0.0
H248 H 0.55512 0.89936 0.22508 0.0
H249 H 0.47928 0.96531 0.30937 0.0
H250 H 0.57886 0.87896 0.31357 0.0
H251 H 0.55369 0.89966 0.40019 0.0
Gd252 Gd 0.22688 0.24847 0.21089 0.0
Gd253 Gd 0.28437 0.25807 0.32865 0.0
C254 C 0.38437 0.32731 0.30903 0.0
C255 C 0.43143 0.28323 0.31563 0.0
C256 C 0.36941 0.26492 0.32464 0.0
C257 C 0.35882 0.29985 0.3163 0.0
C258 C 0.40583 0.25624 0.32567 0.0
C259 C 0.42071 0.31873 0.30739 0.0
C260 C 0.37262 0.3626 0.30484 0.0
C261 C 0.33629 0.36977 0.30971 0.0
N262 N 0.3235 0.30713 0.3181 0.0
C263 C 0.31199 0.3416 0.31691 0.0
H264 H 0.28404 0.34768 0.32023 0.0
C265 C 0.35313 0.20561 0.35104 0.0
N266 N 0.344 0.2397 0.33511 0.0
C267 C 0.3889 0.19555 0.35181 0.0
C268 C 0.41538 0.22089 0.33839 0.0
H269 H 0.33266 0.18591 0.36102 0.0
H270 H 0.44072 0.33941 0.30108 0.0
H271 H 0.21781 0.15963 0.21716 0.0
H272 H 0.39136 0.38447 0.29901 0.0
H273 H 0.32692 0.39698 0.30764 0.0
H274 H 0.45956 0.27706 0.31566 0.0
H275 H 0.18763 0.32762 0.18734 0.0
H276 H 0.10785 0.13417 0.20588 0.0
H277 H 0.17032 0.11499 0.21419 0.0
H278 H 0.05196 0.24837 0.18887 0.0
H279 H 0.39601 0.16828 0.36271 0.0
H280 H 0.44308 0.21309 0.33934 0.0
H281 H 0.06375 0.18404 0.19834 0.0
H282 H 0.12731 0.35168 0.17575 0.0
N283 N 0.18276 0.20398 0.21375 0.0
C284 C 0.12861 0.15397 0.20817 0.0
C285 C 0.16382 0.14304 0.21271 0.0
C286 C 0.12063 0.19031 0.20573 0.0
C287 C 0.1487 0.21501 0.2081 0.0
C288 C 0.19071 0.16853 0.21472 0.0
N289 N 0.17019 0.27386 0.2 0.0
C290 C 0.14218 0.25108 0.20131 0.0
C291 C 0.1311 0.32333 0.18296 0.0
C292 C 0.10191 0.3003 0.18561 0.0
C293 C 0.16529 0.30956 0.18941 0.0
C294 C 0.10726 0.26364 0.19404 0.0
H295 H 0.07548 0.31101 0.18011 0.0
O296 O 0.23205 0.27121 0.12703 0.0
O297 O 0.27695 0.27188 0.24015 0.0
O298 O 0.24067 0.30043 0.32306 0.0
O299 O 0.19494 0.27375 0.27825 0.0
O300 O 0.24851 0.30425 0.18824 0.0
O301 O 0.23854 0.21436 0.1432 0.0
O302 O 0.28666 0.23609 0.41282 0.0
O303 O 0.23572 0.23224 0.29866 0.0
O304 O 0.26566 0.20253 0.22063 0.0
O305 O 0.31366 0.22541 0.26537 0.0
O306 O 0.26422 0.20291 0.35528 0.0
O307 O 0.2702 0.29073 0.39719 0.0
C308 C 0.2774 0.30207 0.21485 0.0
C309 C 0.07899 0.23924 0.19418 0.0
C310 C 0.08569 0.20263 0.19962 0.0
C311 C 0.23683 0.24038 0.1058 0.0
C312 C 0.2168 0.23385 0.05637 0.0
C313 C 0.18486 0.2145 0.05978 0.0
C314 C 0.23013 0.24728 1.00473 0.0
C315 C 0.21183 0.24151 0.95642 0.0
C316 C 0.16654 0.20863 1.01216 0.0
C317 C 0.17987 0.22196 0.9608 0.0
C318 C 0.20656 0.29741 0.31183 0.0
C319 C 0.236 0.20287 0.32686 0.0
C320 C 0.2779 0.26603 0.43442 0.0
C321 C 0.29982 0.27718 0.4794 0.0
C322 C 0.33512 0.2881 0.46869 0.0
C323 C 0.28526 0.27738 0.53349 0.0
C324 C 0.30579 0.28892 0.57657 0.0
C325 C 0.35564 0.29933 0.51114 0.0
C326 C 0.34113 0.29985 0.5647 0.0
C327 C 0.29952 0.20185 0.23381 0.0
H328 H 0.17412 0.20384 0.09902 0.0
H329 H 0.25507 0.26183 1.00223 0.0
H330 H 0.14186 0.19373 1.01508 0.0
H331 H 0.1649 0.21739 0.92463 0.0
H332 H 0.34682 0.288 0.42761 0.0
H333 H 0.25788 0.26917 0.5418 0.0
H334 H 0.38289 0.30767 0.5025 0.0
H335 H 0.35771 0.30842 0.59702 0.0
Gd336 Gd 0.72314 0.26794 0.33917 0.0
Gd337 Gd 0.78671 0.26143 0.21962 0.0
C338 C 0.88469 0.18985 0.21464 0.0
C339 C 0.93303 0.23286 0.21272 0.0
C340 C 0.87155 0.25281 0.21485 0.0
C341 C 0.85995 0.21796 0.21644 0.0
C342 C 0.90823 0.26075 0.21247 0.0
C343 C 0.92128 0.19747 0.21349 0.0
C344 C 0.87193 0.15503 0.21251 0.0
C345 C 0.83542 0.14913 0.21 0.0
N346 N 0.82446 0.21164 0.21672 0.0
C347 C 0.81199 0.17796 0.21129 0.0
H348 H 0.78386 0.17298 0.20916 0.0
C349 C 0.8571 0.31398 0.20761 0.0
N350 N 0.84688 0.27904 0.21359 0.0
C351 C 0.89314 0.32322 0.20593 0.0
C352 C 0.91885 0.29649 0.20874 0.0
H353 H 0.83745 0.33484 0.20569 0.0
H354 H 0.94068 0.17623 0.21247 0.0
H355 H 0.72617 0.35637 0.3481 0.0
H356 H 0.89004 0.13267 0.2114 0.0
H357 H 0.82528 0.12238 0.20714 0.0
H358 H 0.96132 0.23839 0.21117 0.0
H359 H 0.67206 0.19485 0.35203 0.0
H360 H 0.6204 0.39727 0.33756 0.0
H361 H 0.68488 0.40731 0.34634 0.0
H362 H 0.54896 0.29183 0.33424 0.0
H363 H 0.90106 0.35094 0.20242 0.0
H364 H 0.94676 0.30371 0.20704 0.0
H365 H 0.56979 0.35391 0.33339 0.0
H366 H 0.60836 0.17902 0.35101 0.0
N367 N 0.68568 0.31794 0.33849 0.0
C368 C 0.63842 0.37481 0.33811 0.0
C369 C 0.67478 0.38057 0.34323 0.0
C370 C 0.62564 0.34001 0.33554 0.0
C371 C 0.65027 0.31177 0.33603 0.0
C372 C 0.69811 0.35161 0.34417 0.0
N373 N 0.66298 0.25054 0.34121 0.0
C374 C 0.63852 0.27693 0.3373 0.0
C375 C 0.61649 0.20667 0.34705 0.0
C376 C 0.59105 0.2335 0.34127 0.0
C377 C 0.65251 0.21572 0.34782 0.0
C378 C 0.60186 0.26918 0.33723 0.0
H379 H 0.56313 0.22642 0.34112 0.0
O380 O 0.71814 0.24013 0.41955 0.0
O381 O 0.77107 0.24143 0.3045 0.0
O382 O 0.74125 0.22134 0.22089 0.0
O383 O 0.69448 0.24936 0.26646 0.0
O384 O 0.73728 0.20957 0.35362 0.0
O385 O 0.73443 0.29551 0.413 0.0
O386 O 0.78859 0.29013 0.13968 0.0
O387 O 0.739 0.28819 0.25465 0.0
O388 O 0.76946 0.30668 0.34059 0.0
O389 O 0.81625 0.28049 0.29142 0.0
O390 O 0.77347 0.32011 0.20732 0.0
O391 O 0.77279 0.23458 0.14644 0.0
C392 C 0.76688 0.21028 0.32533 0.0
C393 C 0.57724 0.29721 0.33462 0.0
C394 C 0.5891 0.33256 0.33413 0.0
C395 C 0.72592 0.26823 0.44615 0.0
C396 C 0.70261 0.27559 0.49421 0.0
C397 C 0.6661 0.28098 0.488 0.0
C398 C 0.71696 0.27772 0.54665 0.0
C399 C 0.69494 0.28574 0.59256 0.0
C400 C 0.64413 0.28859 0.53328 0.0
C401 C 0.65837 0.29105 0.58514 0.0
C402 C 0.70684 0.22672 0.23063 0.0
C403 C 0.74368 0.31957 0.23507 0.0
C404 C 0.77899 0.26251 0.11348 0.0
C405 C 0.79795 0.25655 0.0608 0.0
C406 C 0.8322 0.24199 0.05917 0.0
C407 C 0.78119 0.26548 1.01128 0.0
C408 C 0.79844 0.26014 0.95988 0.0
C409 C 0.84946 0.23639 1.00852 0.0
C410 C 0.83281 0.24536 0.95923 0.0
C411 C 0.80374 0.30186 0.32906 0.0
H412 H 0.65456 0.27931 0.44821 0.0
H413 H 0.74525 0.27386 0.55145 0.0
H414 H 0.61595 0.29266 0.52816 0.0
H415 H 0.64067 0.29683 0.61965 0.0
H416 H 0.84549 0.23497 0.09692 0.0
H417 H 0.75448 0.27628 1.01298 0.0
H418 H 0.87596 0.22521 1.00743 0.0
H419 H 0.84713 0.2413 0.92064 0.0
Gd420 Gd 0.72508 0.75005 0.71107 0.0
Gd421 Gd 0.78359 0.75921 0.82657 0.0
C422 C 0.88181 0.8312 0.80883 0.0
C423 C 0.92998 0.78839 0.81614 0.0
C424 C 0.86843 0.76848 0.82437 0.0
C425 C 0.85696 0.80309 0.8161 0.0
C426 C 0.90506 0.76074 0.82565 0.0
C427 C 0.91837 0.82358 0.80774 0.0
C428 C 0.86916 0.86613 0.80386 0.0
C429 C 0.83264 0.87235 0.80794 0.0
N430 N 0.82147 0.80939 0.81712 0.0
C431 C 0.80906 0.84357 0.81521 0.0
H432 H 0.78097 0.84899 0.81778 0.0
C433 C 0.85361 0.70854 0.84871 0.0
N434 N 0.84364 0.74254 0.83378 0.0
C435 C 0.88961 0.69943 0.84997 0.0
C436 C 0.91548 0.72557 0.83775 0.0
H437 H 0.83368 0.68817 0.85775 0.0
H438 H 0.93785 0.84477 0.80156 0.0
H439 H 0.71873 0.66104 0.72056 0.0
H440 H 0.88734 0.88847 0.79796 0.0
H441 H 0.82256 0.8993 0.80513 0.0
H442 H 0.95825 0.78296 0.81642 0.0
H443 H 0.68334 0.82783 0.68822 0.0
H444 H 0.60908 0.63224 0.71673 0.0
H445 H 0.67229 0.61494 0.72174 0.0
H446 H 0.54973 0.74469 0.69956 0.0
H447 H 0.89737 0.67227 0.86024 0.0
H448 H 0.94336 0.71849 0.83891 0.0
H449 H 0.56348 0.6808 0.70991 0.0
H450 H 0.622 0.85009 0.67975 0.0
N451 N 0.68234 0.70428 0.7178 0.0
C452 C 0.62937 0.65267 0.71711 0.0
C453 C 0.66501 0.6428 0.71979 0.0
C454 C 0.62036 0.68878 0.71406 0.0
C455 C 0.64782 0.71431 0.71418 0.0
C456 C 0.6913 0.66909 0.71933 0.0
N457 N 0.66753 0.77377 0.70325 0.0
C458 C 0.64016 0.75016 0.70682 0.0
C459 C 0.62673 0.82193 0.68743 0.0
C460 C 0.59821 0.79806 0.69231 0.0
C461 C 0.66145 0.80921 0.69215 0.0
C462 C 0.60473 0.76163 0.70128 0.0
H463 H 0.57136 0.80795 0.6881 0.0
O464 O 0.72684 0.77348 0.62739 0.0
O465 O 0.77533 0.77359 0.73869 0.0
O466 O 0.73919 0.801 0.82365 0.0
O467 O 0.69335 0.77426 0.77954 0.0
O468 O 0.74575 0.80635 0.68912 0.0
O469 O 0.73472 0.71673 0.64171 0.0
O470 O 0.78428 0.7352 0.90965 0.0
O471 O 0.73407 0.73306 0.79899 0.0
O472 O 0.76587 0.70564 0.71562 0.0
O473 O 0.81353 0.7278 0.76216 0.0
O474 O 0.76712 0.70247 0.8476 0.0
O475 O 0.7698 0.79062 0.89679 0.0
C476 C 0.77521 0.80403 0.7143 0.0
C477 C 0.57712 0.7364 0.70357 0.0
C478 C 0.58495 0.70003 0.7095 0.0
C479 C 0.73108 0.74292 0.60502 0.0
C480 C 0.70842 0.73635 0.55832 0.0
C481 C 0.67595 0.7182 0.56684 0.0
C482 C 0.71905 0.74886 0.50463 0.0
C483 C 0.69702 0.74382 0.45998 0.0
C484 C 0.65411 0.71308 0.52284 0.0
C485 C 0.66443 0.72588 0.46982 0.0
C486 C 0.70496 0.79751 0.81368 0.0
C487 C 0.73736 0.70247 0.82304 0.0
C488 C 0.77549 0.76458 0.93277 0.0
C489 C 0.79516 0.7733 0.98147 0.0
C490 C 0.83167 0.78078 0.97749 0.0
C491 C 0.77698 0.77377 0.03293 0.0
C492 C 0.79506 0.78155 0.08067 0.0
C493 C 0.84983 0.7885 1.02454 0.0
C494 C 0.83176 0.78884 0.0758 0.0
C495 C 0.79977 0.70507 0.72873 0.0
H496 H 0.66745 0.70787 0.60734 0.0
H497 H 0.7441 0.76295 0.49779 0.0
H498 H 0.62909 0.69907 0.52986 0.0
H499 H 0.6471 0.7213 0.43629 0.0
H500 H 0.84607 0.78058 0.93819 0.0
H501 H 0.74882 0.76753 0.03582 0.0
H502 H 0.87803 0.79429 1.02126 0.0
H503 H 0.84642 0.79528 0.11148 0.0
Gd504 Gd 0.50293 0.53926 0.07787 0.0
Gd505 Gd 0.50463 0.47564 0.96607 0.0
C506 C 0.45335 0.36538 0.98614 0.0
C507 C 0.5049 0.32646 0.98596 0.0
C508 C 0.51249 0.39066 0.97493 0.0
C509 C 0.47616 0.39519 0.97979 0.0
C510 C 0.52732 0.35623 0.97696 0.0
C511 C 0.46795 0.33103 0.99046 0.0
C512 C 0.41658 0.37098 0.98658 0.0
C513 C 0.4035 0.40555 0.97912 0.0
N514 N 0.46303 0.42875 0.97539 0.0
C515 C 0.42725 0.43424 0.97287 0.0
H516 H 0.41678 0.46081 0.96753 0.0
C517 C 0.5689 0.41668 0.95416 0.0
N518 N 0.53322 0.41996 0.96559 0.0
C519 C 0.58496 0.38313 0.95644 0.0
C520 C 0.56413 0.35277 0.96848 0.0
H521 H 0.58512 0.44013 0.94525 0.0
H522 H 0.45089 0.30781 0.99601 0.0
H523 H 0.5897 0.5582 0.08209 0.0
H524 H 0.39814 0.34882 0.99155 0.0
H525 H 0.37513 0.41017 0.97847 0.0
H526 H 0.51579 0.29979 0.98814 0.0
H527 H 0.41977 0.57073 0.09254 0.0
H528 H 0.60305 0.67114 0.07311 0.0
H529 H 0.62884 0.61069 0.07972 0.0
H530 H 0.48345 0.7146 0.07203 0.0
H531 H 0.61336 0.38071 0.94895 0.0
H532 H 0.5766 0.3268 0.96996 0.0
H533 H 0.54873 0.70974 0.06831 0.0
H534 H 0.3891 0.62855 0.09335 0.0
N535 N 0.54217 0.58822 0.07377 0.0
C536 C 0.58574 0.64811 0.07326 0.0
C537 C 0.60038 0.61406 0.07721 0.0
C538 C 0.54887 0.65203 0.07107 0.0
C539 C 0.5275 0.62115 0.07208 0.0
C540 C 0.57803 0.5843 0.07827 0.0
N541 N 0.47145 0.59348 0.07974 0.0
C542 C 0.49093 0.62389 0.07506 0.0
C543 C 0.41777 0.62762 0.08815 0.0
C544 C 0.43743 0.65913 0.08187 0.0
C545 C 0.43531 0.59487 0.08782 0.0
C546 C 0.4745 0.65757 0.07581 0.0
H547 H 0.4238 0.68448 0.08258 0.0
O548 O 0.47835 0.53319 0.16009 0.0
O549 O 0.48551 0.48612 0.05126 0.0
O550 O 0.45676 0.51303 0.96567 0.0
O551 O 0.475 0.5648 1.00503 0.0
O552 O 0.44912 0.51292 0.09799 0.0
O553 O 0.53569 0.53303 0.14954 0.0
O554 O 0.52847 0.47752 0.8832 0.0
O555 O 0.5246 0.52706 0.99486 0.0
O556 O 0.55277 0.50486 0.07607 0.0
O557 O 0.5372 0.45225 0.03626 0.0
O558 O 0.55655 0.50241 0.93849 0.0
O559 O 0.47134 0.48179 0.89506 0.0
C560 C 0.45473 0.48363 0.07402 0.0
C561 C 0.49559 0.68848 0.07195 0.0
C562 C 0.53273 0.68571 0.06976 0.0
C563 C 0.50858 0.53143 0.18446 0.0
C564 C 0.51136 0.55143 0.23458 0.0
C565 C 0.51179 0.58871 0.23208 0.0
C566 C 0.51339 0.53266 0.28585 0.0
C567 C 0.51607 0.55085 0.33488 0.0
C568 C 0.51428 0.60701 0.28036 0.0
C569 C 0.51642 0.58833 0.33138 0.0
C570 C 0.45419 0.54783 0.97224 0.0
C571 C 0.55342 0.53061 0.96605 0.0
C572 C 0.49798 0.47958 0.8595 0.0
C573 C 0.49333 0.45593 0.8138 0.0
C574 C 0.48219 0.42059 0.82443 0.0
C575 C 0.50105 0.46846 0.75906 0.0
C576 C 0.49818 0.44558 0.71525 0.0
C577 C 0.4789 0.39796 0.78122 0.0
C578 C 0.48692 0.41024 0.72707 0.0
C579 C 0.5573 0.47034 0.06888 0.0
H580 H 0.51019 0.60357 0.19296 0.0
H581 H 0.51247 0.50382 0.28743 0.0
H582 H 0.51472 0.63583 0.27824 0.0
H583 H 0.51895 0.60328 0.36793 0.0
H584 H 0.47615 0.41044 0.86605 0.0
H585 H 0.51004 0.49566 0.75076 0.0
H586 H 0.47024 0.37072 0.78976 0.0
H587 H 0.48411 0.39211 0.69429 0.0
Gd588 Gd 1.00436 0.52663 0.47242 0.0
Gd589 Gd 0.02362 0.47925 0.60298 0.0
C590 C 0.13355 0.46752 0.67618 0.0
C591 C 0.15569 0.41363 0.63594 0.0
C592 C 0.09683 0.43605 0.61495 0.0
C593 C 0.102 0.46452 0.64724 0.0
C594 C 0.12322 0.40965 0.61018 0.0
C595 C 0.16082 0.4425 0.66904 0.0
C596 C 0.13607 0.49464 0.71317 0.0
C597 C 0.10712 0.51716 0.72181 0.0
N598 N 0.075 0.48799 0.65341 0.0
C599 C 0.07641 0.51309 0.69209 0.0
H600 H 0.05409 0.53056 0.69894 0.0
C601 C 0.05638 0.40199 0.56762 0.0
N602 N 0.0648 0.43265 0.59201 0.0
C603 C 0.08174 0.3752 0.56127 0.0
C604 C 0.11553 0.37929 0.58189 0.0
H605 H 0.03027 0.3982 0.55205 0.0
H606 H 0.18546 0.44458 0.69036 0.0
H607 H 0.91426 0.53028 0.47426 0.0
H608 H 0.15978 0.49773 0.73647 0.0
H609 H 0.10836 0.53756 0.75148 0.0
H610 H 0.17646 0.39385 0.63219 0.0
H611 H 0.07767 0.57237 0.42211 0.0
H612 H 0.8839 0.63889 0.48866 0.0
H613 H 0.86767 0.57546 0.48389 0.0
H614 H 0.99364 0.70223 0.45847 0.0
H615 H 0.07516 0.35137 0.54062 0.0
H616 H 0.13497 0.35829 0.57754 0.0
H617 H 0.93122 0.68599 0.47995 0.0
H618 H 0.09689 0.6349 0.40818 0.0
N619 N 0.95707 0.56733 0.47665 0.0
C620 C 0.90463 0.61911 0.48466 0.0
C621 C 0.89537 0.58334 0.4819 0.0
C622 C 0.94043 0.62914 0.47898 0.0
C623 C 0.96641 0.60233 0.47394 0.0
C624 C 0.92205 0.55769 0.47698 0.0
N625 N 0.02558 0.58519 0.45233 0.0
C626 C 1.0016 0.61155 0.46109 0.0
C627 C 0.07009 0.62868 0.42333 0.0
C628 C 0.04656 0.65601 0.43598 0.0
C629 C 0.05895 0.59325 0.43068 0.0
C630 C 0.01164 0.64769 0.45395 0.0
H631 H 0.05528 0.68345 0.4301 0.0
O632 O 1.00375 0.48894 0.40711 0.0
O633 O 0.03153 0.48017 0.51196 0.0
O634 O 0.0675 0.51942 0.58277 0.0
O635 O 0.03864 0.55985 0.52425 0.0
O636 O 0.06135 0.51033 0.45455 0.0
O637 O 0.98721 0.54245 0.38991 0.0
O638 O 1.00091 0.43194 0.64574 0.0
O639 O 0.98509 0.51571 0.55933 0.0
O640 O 0.95918 0.48932 0.49846 0.0
O641 O 0.98785 0.44633 0.55216 0.0
O642 O 1.00153 0.53034 0.63508 0.0
O643 O 0.99799 0.48195 0.68469 0.0
C644 C 0.06129 0.48163 0.48604 0.0
C645 C 0.9863 0.67435 0.46299 0.0
C646 C 0.95075 0.66509 0.47537 0.0
C647 C 0.99452 0.51211 0.36917 0.0
C648 C 0.0165 0.51328 0.31743 0.0
C649 C 0.05178 0.52521 0.31749 0.0
C650 C 1.00269 0.50206 0.26795 0.0
C651 C 0.02417 0.50284 0.2188 0.0
C652 C 0.07314 0.52585 0.2695 0.0
C653 C 0.05961 0.51469 0.22066 0.0
C654 C 0.06347 0.5516 0.55965 0.0
C655 C 0.98155 0.53899 0.59486 0.0
C656 C 0.99443 0.44767 0.69145 0.0
C657 C 0.00907 0.43089 0.74231 0.0
C658 C 0.03459 0.40366 0.73891 0.0
C659 C 0.99819 0.44239 0.79473 0.0
C660 C 0.01219 0.42626 0.84285 0.0
C661 C 0.04848 0.38784 0.78653 0.0
C662 C 0.03725 0.39888 0.83818 0.0
C663 C 0.96223 0.45624 0.51887 0.0
H664 H 0.06297 0.53386 0.35472 0.0
H665 H 0.97535 0.49303 0.26777 0.0
H666 H 0.10046 0.53481 0.27025 0.0
H667 H 0.07729 0.51474 0.18453 0.0
H668 H 0.04393 0.3945 0.69946 0.0
H669 H 0.97879 0.46354 0.7981 0.0
H670 H 0.06806 0.3669 0.78338 0.0
H671 H 0.04837 0.38622 0.87467 0.0
H672 H 0.05327 0.09773 0.43052 0.0
H673 H 0.12332 1.00726 0.45648 0.0
H674 H 0.17404 0.04305 0.41984 0.0
H675 H 0.09311 0.13085 0.30692 0.0
H676 H 0.09214 0.17801 0.31823 0.0
H677 H 0.05957 0.1486 0.35227 0.0
H678 H 0.07615 0.16736 0.44771 0.0
H679 H 0.10642 0.19927 0.41397 0.0
H680 H 0.12242 0.16789 0.46543 0.0
H681 H 0.21614 0.08407 0.37229 0.0
H682 H 0.25251 0.13425 0.33443 0.0
H683 H 0.1605 0.20358 0.34201 0.0
C684 C 0.07953 0.08601 0.43031 0.0
C685 C 0.08418 0.04939 0.44713 0.0
C686 C 0.11892 0.03501 0.44441 0.0
C687 C 0.14803 0.05514 0.42324 0.0
C688 C 0.14261 0.09029 0.40498 0.0
C689 C 0.10971 0.10636 0.40997 0.0
C690 C 0.11251 0.14505 0.38652 0.0
C691 C 0.08791 0.151 0.338 0.0
C692 C 0.10384 0.17141 0.43119 0.0
C693 C 0.15189 0.14767 0.3676 0.0
C694 C 0.16812 0.11522 0.37811 0.0
C695 C 0.20388 0.10977 0.36455 0.0
C696 C 0.22435 0.13851 0.34257 0.0
C697 C 0.20965 0.17292 0.33444 0.0
C698 C 0.1725 0.17749 0.34636 0.0
H699 H 0.11665 0.97052 0.59897 0.0
H700 H 0.03764 0.8881 0.58118 0.0
H701 H 0.07525 0.8447 0.63043 0.0
H702 H 0.19184 0.91356 0.57371 0.0
H703 H 0.21993 0.93363 0.62204 0.0
H704 H 0.18572 0.95957 0.58921 0.0
H705 H 0.15979 0.97504 0.68463 0.0
H706 H 0.1932 0.94847 0.7185 0.0
H707 H 0.14673 0.93981 0.73418 0.0
H708 H 0.1207 0.80958 0.6798 0.0
H709 H 0.17415 0.78327 0.71922 0.0
H710 H 0.22737 0.88554 0.70311 0.0
C711 C 0.10719 0.94343 0.60608 0.0
C712 C 0.07384 0.93293 0.58669 0.0
C713 C 0.06284 0.89699 0.59573 0.0
C714 C 0.08401 0.87205 0.62393 0.0
C715 C 0.11661 0.88308 0.64242 0.0
C716 C 0.12855 0.91771 0.63335 0.0
C717 C 0.16598 0.92146 0.65438 0.0
C718 C 0.19243 0.93272 0.60701 0.0
C719 C 0.16645 0.94775 0.70068 0.0
C720 C 0.17307 0.88354 0.67634 0.0
C721 C 0.14383 0.86218 0.66964 0.0
C722 C 0.14362 0.82615 0.68575 0.0
C723 C 0.17413 0.81139 0.70887 0.0
C724 C 0.20467 0.83232 0.71627 0.0
C725 C 0.20419 0.86894 0.69905 0.0
H726 H 0.30474 0.86673 0.87606 0.0
H727 H 0.37106 0.77353 0.85641 0.0
H728 H 0.41526 0.79822 0.91636 0.0
H729 H 0.37808 0.92831 0.86681 0.0
H730 H 0.35817 0.95785 0.91516 0.0
H731 H 0.33036 0.93139 0.87448 0.0
H732 H 0.29853 0.90506 0.96381 0.0
H733 H 0.32663 0.93112 1.0048 0.0
H734 H 0.32442 0.88346 1.01668 0.0
H735 H 0.45154 0.83217 0.97985 0.0
H736 H 0.48299 0.8778 0.02875 0.0
H737 H 0.39618 0.95159 1.0 0.0
C738 C 0.32851 0.85153 0.88469 0.0
C739 C 0.33425 0.81799 0.86255 0.0
C740 C 0.36599 0.79914 0.87349 0.0
C741 C 0.39117 0.81283 0.90773 0.0
C742 C 0.38453 0.84575 0.92964 0.0
C743 C 0.35445 0.86529 0.91752 0.0
C744 C 0.35541 0.9014 0.94227 0.0
C745 C 0.35552 0.93151 0.89698 0.0
C746 C 0.3244 0.90548 0.9844 0.0
C747 C 0.39071 0.89903 0.97016 0.0
C748 C 0.40665 0.8664 0.96338 0.0
C749 C 0.43942 0.8579 0.9853 0.0
C750 C 0.45698 0.88393 1.01333 0.0
C751 C 0.44208 0.91825 1.01796 0.0
C752 C 0.40819 0.92556 0.99704 0.0
H753 H 0.47743 0.10257 0.13298 0.0
H754 H 0.41182 0.01003 0.11181 0.0
H755 H 0.35831 0.04389 0.13996 0.0
H756 H 0.43205 0.12974 0.25397 0.0
H757 H 0.43633 0.17681 0.2372 0.0
H758 H 0.46897 0.14646 0.2108 0.0
H759 H 0.45756 0.17005 0.11035 0.0
H760 H 0.42591 0.20107 0.1379 0.0
H761 H 0.41261 0.17104 0.08706 0.0
H762 H 0.31246 0.08727 0.17114 0.0
H763 H 0.27693 0.1363 0.20756 0.0
H764 H 0.37236 0.20064 0.2139 0.0
C765 C 0.45158 0.08995 0.13268 0.0
C766 C 0.44825 0.05437 0.11747 0.0
C767 C 0.41449 0.03778 0.12091 0.0
C768 C 0.3841 0.05673 0.13723 0.0
C769 C 0.38812 0.09202 0.15106 0.0
C770 C 0.421 0.10849 0.14924 0.0
C771 C 0.41817 0.14596 0.16958 0.0
C772 C 0.44019 0.14995 0.22094 0.0
C773 C 0.42924 0.17367 0.12347 0.0
C774 C 0.37859 0.14786 0.18355 0.0
C775 C 0.36181 0.11655 0.17187 0.0
C776 C 0.3253 0.1119 0.18039 0.0
C777 C 0.30531 0.14001 0.20102 0.0
C778 C 0.32178 0.17235 0.21358 0.0
C779 C 0.35903 0.17615 0.20508 0.0
H780 H 0.88132 0.97776 0.58842 0.0
H781 H 0.97667 0.91359 0.58175 0.0
H782 H 0.94242 0.8613 0.62025 0.0
H783 H 0.84563 0.93893 0.71654 0.0
H784 H 0.79994 0.94052 0.69674 0.0
H785 H 0.83147 0.9727 0.66688 0.0
H786 H 0.81685 0.95507 0.56862 0.0
H787 H 0.78455 0.92351 0.59805 0.0
H788 H 0.81956 0.90898 0.55192 0.0
H789 H 0.89656 0.81534 0.66155 0.0
H790 H 0.84432 0.78086 0.69929 0.0
H791 H 0.77861 0.87485 0.67998 0.0
C792 C 0.8949 0.95258 0.59458 0.0
C793 C 0.93168 0.9497 0.58046 0.0
C794 C 0.94849 0.91641 0.59052 0.0
C795 C 0.92918 0.88653 0.61291 0.0
C796 C 0.89289 0.89019 0.62579 0.0
C797 C 0.87593 0.92246 0.61682 0.0
C798 C 0.8368 0.91954 0.63465 0.0
C799 C 0.82794 0.9444 0.68148 0.0
C800 C 0.81304 0.92724 0.58537 0.0
C801 C 0.83422 0.88067 0.65499 0.0
C802 C 0.86689 0.86416 0.64975 0.0
C803 C 0.87098 0.82821 0.66587 0.0
C804 C 0.84111 0.8088 0.68772 0.0
C805 C 0.80738 0.82519 0.69397 0.0
C806 C 0.80407 0.86159 0.67657 0.0
H807 H 0.94351 0.12105 0.44944 0.0
H808 H 0.89478 0.01975 0.41724 0.0
H809 H 0.84506 0.05087 0.37485 0.0
H810 H 0.8617 0.16799 0.48053 0.0
H811 H 0.87556 0.20943 0.44571 0.0
H812 H 0.90821 0.17959 0.47453 0.0
H813 H 0.94096 0.17997 0.38047 0.0
H814 H 0.90791 0.20791 0.34823 0.0
H815 H 0.91856 0.1651 0.32171 0.0
H816 H 0.79808 0.09121 0.34244 0.0
H817 H 0.75743 0.14016 0.31632 0.0
H818 H 0.83616 0.21725 0.35903 0.0
C819 C 0.92232 0.10549 0.43358 0.0
C820 C 0.92337 0.06764 0.43727 0.0
C821 C 0.89508 0.04851 0.41537 0.0
C822 C 0.86645 0.06601 0.39096 0.0
C823 C 0.86623 0.10298 0.38773 0.0
C824 C 0.89335 0.12272 0.40804 0.0
C825 C 0.88605 0.16241 0.39815 0.0
C826 C 0.88267 0.18094 0.453 0.0
C827 C 0.91509 0.17994 0.35985 0.0
C828 C 0.85046 0.16154 0.37002 0.0
C829 C 0.83962 0.1268 0.36501 0.0
C830 C 0.80655 0.11856 0.34495 0.0
C831 C 0.78365 0.14648 0.3301 0.0
C832 C 0.79416 0.18234 0.33359 0.0
C833 C 0.82815 0.19004 0.3536 0.0
H834 H 0.71592 0.16157 0.18678 0.0
H835 H 0.63917 0.24636 0.20805 0.0
H836 H 0.59487 0.21237 0.15988 0.0
H837 H 0.68638 0.1354 0.05072 0.0
H838 H 0.69335 0.08871 0.06706 0.0
H839 H 0.72064 0.1215 0.097 0.0
H840 H 0.70297 0.09554 0.19489 0.0
H841 H 0.67648 0.06256 0.16452 0.0
H842 H 0.65657 0.09087 0.21496 0.0
H843 H 0.55911 0.16979 0.11057 0.0
H844 H 0.53057 0.11764 0.07406 0.0
H845 H 0.62798 0.0571 0.09297 0.0
C846 C 0.68995 0.17315 0.18045 0.0
C847 C 0.68095 0.20662 0.20063 0.0
C848 C 0.64654 0.22072 0.19279 0.0
C849 C 0.62131 0.20176 0.16516 0.0
C850 C 0.6309 0.16869 0.14608 0.0
C851 C 0.66422 0.15429 0.15375 0.0
C852 C 0.66657 0.11695 0.13324 0.0
C853 C 0.69332 0.11557 0.08408 0.0
C854 C 0.67615 0.08987 0.17975 0.0
C855 C 0.62881 0.11201 0.11524 0.0
C856 C 0.60923 0.14278 0.12113 0.0
C857 C 0.57405 0.14547 0.106 0.0
C858 C 0.55812 0.11568 0.08523 0.0
C859 C 0.57701 0.08329 0.08125 0.0
C860 C 0.61293 0.0815 0.09603 0.0
H861 H 0.71544 0.8589 0.86972 0.0
H862 H 0.63342 0.78615 0.8228 0.0
H863 H 0.58798 0.82185 0.86954 0.0
H864 H 0.67707 0.87658 1.00329 0.0
H865 H 0.68727 0.9235 1.00057 0.0
H866 H 0.71553 0.89322 0.96404 0.0
H867 H 0.70791 0.92798 0.87165 0.0
H868 H 0.6813 0.96018 0.90677 0.0
H869 H 0.66387 0.9385 0.84905 0.0
H870 H 0.55082 0.86599 0.91745 0.0
H871 H 0.52387 0.9177 0.96137 0.0
H872 H 0.62851 0.96298 0.97877 0.0
C873 C 0.68795 0.8504 0.86961 0.0
C874 C 0.67812 0.81963 0.84243 0.0
C875 C 0.64176 0.80964 0.84291 0.0
C876 C 0.61566 0.82967 0.86968 0.0
C877 C 0.62614 0.85979 0.89589 0.0
C878 C 0.66132 0.87036 0.89589 0.0
C879 C 0.66492 0.90484 0.92528 0.0
C880 C 0.68753 0.89922 0.97635 0.0
C881 C 0.68041 0.93463 0.88583 0.0
C882 C 0.62625 0.91203 0.94131 0.0
C883 C 0.60446 0.88545 0.92419 0.0
C884 C 0.56762 0.88668 0.93182 0.0
C885 C 0.55255 0.91599 0.95713 0.0
C886 C 0.57421 0.94353 0.97518 0.0
C887 C 0.61153 0.94166 0.96681 0.0
H888 H 0.55269 0.60469 0.93865 0.0
H889 H 0.62139 0.51577 0.9815 0.0
H890 H 0.67338 0.55023 0.94588 0.0
H891 H 0.59376 0.63407 0.81836 0.0
H892 H 0.59325 0.68167 0.82612 0.0
H893 H 0.56034 0.65362 0.86203 0.0
H894 H 0.57737 0.67617 0.95552 0.0
H895 H 0.60858 0.70611 0.91925 0.0
H896 H 0.62354 0.67606 0.97344 0.0
H897 H 0.71584 0.58772 0.89165 0.0
H898 H 0.75241 0.63442 0.8441 0.0
H899 H 0.66171 0.70575 0.84234 0.0
C900 C 0.5789 0.5933 0.94303 0.0
C901 C 0.58287 0.5574 0.96391 0.0
C902 C 0.61759 0.54315 0.96677 0.0
C903 C 0.64737 0.56248 0.94604 0.0
C904 C 0.64257 0.59675 0.92322 0.0
C905 C 0.60969 0.61302 0.92393 0.0
C906 C 0.6132 0.65068 0.89664 0.0
C907 C 0.58871 0.65527 0.84776 0.0
C908 C 0.60516 0.67891 0.93879 0.0
C909 C 0.65264 0.65187 0.87791 0.0
C910 C 0.66851 0.62003 0.89374 0.0
C911 C 0.70397 0.61311 0.8803 0.0
C912 C 0.72454 0.63989 0.85274 0.0
C913 C 0.71036 0.67396 0.83916 0.0
C914 C 0.67345 0.67994 0.85129 0.0
H915 H 0.67583 0.30919 0.19765 0.0
H916 H 0.75082 0.39048 0.23809 0.0
H917 H 0.70996 0.43715 0.20365 0.0
H918 H 0.65309 0.35132 0.07058 0.0
H919 H 0.60679 0.33882 0.07454 0.0
H920 H 0.63898 0.31136 0.10949 0.0
H921 H 0.60397 0.317 0.20357 0.0
H922 H 0.57116 0.34232 0.16618 0.0
H923 H 0.59146 0.36085 0.22412 0.0
H924 H 0.66351 0.47479 0.16147 0.0
H925 H 0.61424 0.50224 0.11178 0.0
H926 H 0.56916 0.39768 0.09052 0.0
C927 C 0.68293 0.33688 0.20087 0.0
C928 C 0.71596 0.34642 0.22239 0.0
C929 C 0.72531 0.38279 0.2231 0.0
C930 C 0.70229 0.40942 0.20351 0.0
C931 C 0.67026 0.39933 0.18182 0.0
C932 C 0.66045 0.364 0.18007 0.0
C933 C 0.62589 0.36075 0.14977 0.0
C934 C 0.63155 0.33929 0.09803 0.0
C935 C 0.59638 0.34419 0.18823 0.0
C936 C 0.61808 0.39972 0.13466 0.0
C937 C 0.64396 0.42132 0.15429 0.0
C938 C 0.64299 0.45817 0.14611 0.0
C939 C 0.6147 0.47356 0.11768 0.0
C940 C 0.58754 0.45234 0.09703 0.0
C941 C 0.58951 0.41474 0.10543 0.0
H942 H 0.92648 0.45771 0.42331 0.0
H943 H 0.94437 0.39276 0.57231 0.0
H944 H 0.90637 0.3454 0.53866 0.0
H945 H 0.83563 0.43349 0.40603 0.0
H946 H 0.84041 0.43246 0.33212 0.0
H947 H 0.86826 0.4614 0.36875 0.0
H948 H 0.92433 0.43261 0.32475 0.0
H949 H 0.89663 0.40337 0.2883 0.0
H950 H 0.93018 0.38507 0.33246 0.0
H951 H 0.86611 0.30563 0.48931 0.0
H952 H 0.8262 0.27591 0.42689 0.0
H953 H 0.83663 0.36581 0.30888 0.0
C954 C 0.922 0.43372 0.4492 0.0
C955 C 0.93788 0.42896 0.50072 0.0
C956 C 0.93219 0.3969 0.53284 0.0
C957 C 0.91076 0.36989 0.51404 0.0
C958 C 0.89577 0.37527 0.46276 0.0
C959 C 0.90124 0.4063 0.43066 0.0
C960 C 0.88289 0.40503 0.37644 0.0
C961 C 0.85514 0.43486 0.37053 0.0
C962 C 0.91013 0.40662 0.32762 0.0
C963 C 0.86547 0.36877 0.38365 0.0
C964 C 0.8734 0.35195 0.43362 0.0
C965 C 0.85988 0.31841 0.44999 0.0
C966 C 0.8374 0.30177 0.41449 0.0
C967 C 0.82895 0.31876 0.36358 0.0
C968 C 0.8432 0.35244 0.34767 0.0
H969 H 0.87334 0.70284 0.71531 0.0
H970 H 0.77735 0.64267 0.68955 0.0
H971 H 0.81319 0.59538 0.64921 0.0
H972 H 0.91839 0.67983 0.58778 0.0
H973 H 0.96196 0.67616 0.61592 0.0
H974 H 0.92964 0.70609 0.6446 0.0
H975 H 0.93517 0.67574 0.74131 0.0
H976 H 0.96823 0.64607 0.71423 0.0
H977 H 0.92913 0.62825 0.75091 0.0
H978 H 0.859 0.55286 0.61594 0.0
H979 H 0.91254 0.51901 0.58827 0.0
H980 H 0.97921 0.60673 0.63039 0.0
C981 C 0.85994 0.67963 0.7014 0.0
C982 C 0.8224 0.67657 0.70584 0.0
C983 C 0.80593 0.64588 0.68657 0.0
C984 C 0.8261 0.61873 0.66352 0.0
C985 C 0.86286 0.62262 0.65929 0.0
C986 C 0.87974 0.6523 0.67738 0.0
C987 C 0.91972 0.64973 0.6672 0.0
C988 C 0.93323 0.67974 0.62646 0.0
C989 C 0.9392 0.64994 0.72166 0.0
C990 C 0.92254 0.61373 0.64168 0.0
C991 C 0.88935 0.59862 0.63751 0.0
C992 C 0.88509 0.56472 0.61788 0.0
C993 C 0.91555 0.5458 0.60183 0.0
C994 C 0.94974 0.56106 0.60446 0.0
C995 C 0.95324 0.59522 0.62546 0.0
H996 H 0.2808 0.37287 0.18178 0.0
H997 H 0.34677 0.2791 0.20078 0.0
H998 H 0.39943 0.3144 0.16631 0.0
H999 H 0.32379 0.40782 0.0557 0.0
H1000 H 0.31975 0.45372 0.07289 0.0
H1001 H 0.28756 0.42142 0.10037 0.0
H1002 H 0.30033 0.43788 0.20019 0.0
H1003 H 0.33161 0.47099 0.17248 0.0
H1004 H 0.34555 0.43724 0.22227 0.0
H1005 H 0.44614 0.36211 0.13118 0.0
H1006 H 0.48033 0.4156 0.09613 0.0
H1007 H 0.38328 0.47733 0.09685 0.0
C1008 C 0.30641 0.35983 0.17903 0.0
C1009 C 0.30975 0.32337 0.19583 0.0
C1010 C 0.34361 0.30717 0.18999 0.0
C1011 C 0.37369 0.32705 0.17 0.0
C1012 C 0.36963 0.36318 0.15502 0.0
C1013 C 0.33667 0.3793 0.15906 0.0
C1014 C 0.33908 0.4183 0.13947 0.0
C1015 C 0.31618 0.42575 0.08912 0.0
C1016 C 0.3285 0.44252 0.1864 0.0
C1017 C 0.37846 0.42183 0.12391 0.0
C1018 C 0.3958 0.38982 0.13328 0.0
C1019 C 0.43255 0.38708 0.12319 0.0
C1020 C 0.45181 0.41757 0.10281 0.0
C1021 C 0.43441 0.45045 0.09183 0.0
C1022 C 0.39728 0.45242 0.10345 0.0
H1023 H 0.44626 0.62092 0.95269 0.0
H1024 H 0.39478 0.51952 0.9304 0.0
H1025 H 0.34478 0.55077 0.88737 0.0
H1026 H 0.36864 0.67012 0.98502 0.0
H1027 H 0.3816 0.71057 0.9464 0.0
H1028 H 0.41506 0.68116 0.97352 0.0
H1029 H 0.44442 0.67753 0.87828 0.0
H1030 H 0.41123 0.7059 0.84735 0.0
H1031 H 0.41952 0.66219 0.82237 0.0
H1032 H 0.29739 0.59237 0.85603 0.0
H1033 H 0.25712 0.64236 0.83263 0.0
H1034 H 0.33991 0.71748 0.86549 0.0
C1035 C 0.42453 0.60531 0.93851 0.0
C1036 C 0.42462 0.56758 0.94518 0.0
C1037 C 0.39564 0.54829 0.92578 0.0
C1038 C 0.36698 0.56584 0.90118 0.0
C1039 C 0.36767 0.60285 0.89521 0.0
C1040 C 0.39577 0.62248 0.91278 0.0
C1041 C 0.38951 0.66212 0.90117 0.0
C1042 C 0.3886 0.68215 0.95475 0.0
C1043 C 0.41783 0.6779 0.85981 0.0
C1044 C 0.35307 0.66159 0.876 0.0
C1045 C 0.34104 0.62702 0.87317 0.0
C1046 C 0.30686 0.61951 0.85661 0.0
C1047 C 0.28419 0.648 0.84328 0.0
C1048 C 0.29599 0.68361 0.84486 0.0
C1049 C 0.33097 0.69048 0.86114 0.0
H1050 H 0.21816 0.65421 0.70473 0.0
H1051 H 0.13756 0.73254 0.74417 0.0
H1052 H 0.09397 0.70004 0.6931 0.0
H1053 H 0.1895 0.63597 0.56889 0.0
H1054 H 0.19743 0.58875 0.57649 0.0
H1055 H 0.22357 0.61915 0.6134 0.0
H1056 H 0.20563 0.58541 0.70533 0.0
H1057 H 0.17955 0.5548 0.66893 0.0
H1058 H 0.15926 0.57896 0.72412 0.0
H1059 H 0.06091 0.66302 0.63148 0.0
H1060 H 0.03494 0.61528 0.58036 0.0
H1061 H 0.13292 0.55499 0.59218 0.0
C1062 C 0.19132 0.66443 0.70256 0.0
C1063 C 0.18142 0.69625 0.72747 0.0
C1064 C 0.1459 0.70846 0.72487 0.0
C1065 C 0.12094 0.6903 0.69571 0.0
C1066 C 0.1317 0.65951 0.6706 0.0
C1067 C 0.16565 0.646 0.67492 0.0
C1068 C 0.16925 0.61089 0.64723 0.0
C1069 C 0.19656 0.61389 0.59862 0.0
C1070 C 0.17895 0.5807 0.68891 0.0
C1071 C 0.13182 0.60671 0.62729 0.0
C1072 C 0.11115 0.63581 0.63965 0.0
C1073 C 0.0765 0.63971 0.62247 0.0
C1074 C 0.06207 0.61254 0.59327 0.0
C1075 C 0.08181 0.58138 0.58323 0.0
C1076 C 0.11727 0.57849 0.59997 0.0
H1077 H 0.21805 0.35849 0.36826 0.0
H1078 H 0.13443 0.28996 0.31447 0.0
H1079 H 0.08939 0.32846 0.35625 0.0
H1080 H 0.17581 0.37846 0.49833 0.0
H1081 H 0.18888 0.42463 0.49628 0.0
H1082 H 0.21641 0.39256 0.4623 0.0
H1083 H 0.2139 0.42828 0.36945 0.0
H1084 H 0.18768 0.46172 0.40245 0.0
H1085 H 0.1714 0.4411 0.34296 0.0
H1086 H 0.05305 0.37411 0.4014 0.0
H1087 H 0.02707 0.42563 0.44657 0.0
H1088 H 0.13274 0.46638 0.47199 0.0
C1089 C 0.19028 0.35152 0.36551 0.0
C1090 C 0.17992 0.32111 0.33782 0.0
C1091 C 0.14322 0.31312 0.33498 0.0
C1092 C 0.11732 0.33478 0.35886 0.0
C1093 C 0.12834 0.36448 0.38562 0.0
C1094 C 0.16385 0.37308 0.38903 0.0
C1095 C 0.1681 0.40725 0.41908 0.0
C1096 C 0.1885 0.40032 0.47216 0.0
C1097 C 0.18635 0.43631 0.38122 0.0
C1098 C 0.12942 0.41642 0.43178 0.0
C1099 C 0.10707 0.39117 0.41216 0.0
C1100 C 0.07024 0.39391 0.41734 0.0
C1101 C 0.05573 0.42328 0.4431 0.0
C1102 C 0.07792 0.44952 0.46382 0.0
C1103 C 0.11527 0.44622 0.45761 0.0
H1104 H 0.04107 0.05196 0.91983 0.0
H1105 H 0.94681 0.01054 0.84723 0.0
H1106 H 0.92797 0.98224 0.93725 0.0
H1107 H 0.05771 0.97634 1.00891 0.0
H1108 H 0.07199 1.00168 0.06508 0.0
H1109 H 0.0777 0.01963 0.99528 0.0
H1110 H 0.04246 0.07593 1.02099 0.0
H1111 H 0.03662 0.05813 0.09092 0.0
H1112 H 0.99841 0.07118 0.0522 0.0
H1113 H 0.92015 0.95681 0.03402 0.0
H1114 H 0.92402 0.93566 0.13134 0.0
H1115 H 0.0225 0.99445 0.1426 0.0
C1116 C 0.01622 0.03734 0.92296 0.0
C1117 C 0.99552 0.03341 0.87614 0.0
C1118 C 0.96346 0.01352 0.88208 0.0
C1119 C 0.95236 0.99757 0.93321 0.0
C1120 C 0.97346 1.00183 0.9783 0.0
C1121 C 1.00467 0.02128 0.9738 0.0
C1122 C 0.02281 0.021 0.02855 0.0
C1123 C 0.05973 1.00362 1.02417 0.0
C1124 C 0.0252 0.05881 0.04939 0.0
C1125 C 0.99707 0.99806 0.06436 0.0
C1126 C 0.96876 0.98739 0.03448 0.0
C1127 C 0.9421 0.96513 0.05789 0.0
C1128 C 0.94461 0.95314 0.11313 0.0
C1129 C 0.97353 0.9634 0.14455 0.0
C1130 C 0.99985 0.98655 0.11984 0.0
H1131 H 0.29714 0.71979 0.3706 0.0
H1132 H 0.26939 0.81796 0.44818 0.0
H1133 H 0.24383 0.84133 0.36174 0.0
H1134 H 0.32183 0.76076 0.23552 0.0
H1135 H 0.30352 0.72502 0.19872 0.0
H1136 H 0.3204 0.71616 0.2664 0.0
H1137 H 0.25978 0.68854 0.29967 0.0
H1138 H 0.24273 0.69731 0.23214 0.0
H1139 H 0.21975 0.71429 0.29157 0.0
H1140 H 0.21981 0.85354 0.26805 0.0
H1141 H 0.19873 0.85371 0.17314 0.0
H1142 H 0.24276 0.74815 0.15521 0.0
C1143 C 0.28611 0.74639 0.36924 0.0
C1144 C 0.28519 0.76696 0.41644 0.0
C1145 C 0.26996 0.80144 0.41299 0.0
C1146 C 0.2556 0.81508 0.3639 0.0
C1147 C 0.25677 0.79404 0.31837 0.0
C1148 C 0.27168 0.76047 0.32048 0.0
C1149 C 0.2688 0.74307 0.26588 0.0
C1150 C 0.30585 0.73584 0.24012 0.0
C1151 C 0.24643 0.70878 0.27275 0.0
C1152 C 0.24968 0.77201 0.23293 0.0
C1153 C 0.24308 0.8012 0.26403 0.0
C1154 C 0.22492 0.83089 0.24324 0.0
C1155 C 0.2129 0.83067 0.18938 0.0
C1156 C 0.21905 0.80095 0.15677 0.0
C1157 C 0.23805 0.77142 0.17886 0.0
H1158 H 0.52097 0.99231 0.67611 0.0
H1159 H 0.40851 0.01573 0.66807 0.0
H1160 H 0.40829 0.99412 0.57374 0.0
H1161 H 0.54372 0.02211 0.53939 0.0
H1162 H 0.57655 0.98825 0.52723 0.0
H1163 H 0.56729 1.00194 0.59612 0.0
H1164 H 0.55326 0.93666 0.62893 0.0
H1165 H 0.56276 0.92272 0.56016 0.0
H1166 H 0.52047 0.91204 0.59418 0.0
H1167 H 0.42092 0.97259 0.47831 0.0
H1168 H 0.44514 0.95224 0.38979 0.0
H1169 H 0.55044 0.94658 0.45733 0.0
C1170 C 0.49619 0.992 0.65486 0.0
C1171 C 0.46461 1.00524 0.67957 0.0
C1172 C 0.43288 1.00541 0.64997 0.0
C1173 C 0.43253 0.99323 0.59638 0.0
C1174 C 0.46422 0.98112 0.57255 0.0
C1175 C 0.49547 0.9803 0.60085 0.0
C1176 C 0.52622 0.96787 0.56452 0.0
C1177 C 0.55514 0.99677 0.55634 0.0
C1178 C 0.54158 0.93274 0.58837 0.0
C1179 C 0.50748 0.96234 0.51133 0.0
C1180 C 0.47168 0.96979 0.51699 0.0
C1181 C 0.44897 0.96671 0.47342 0.0
C1182 C 0.46313 0.95546 0.42289 0.0
C1183 C 0.49986 0.94769 0.41574 0.0
C1184 C 0.52216 0.95154 0.46099 0.0
H1185 H 0.21358 0.20877 0.8575 0.0
H1186 H 0.24221 0.30694 0.93155 0.0
H1187 H 0.267 0.33051 0.84167 0.0
H1188 H 0.29016 0.20349 0.76862 0.0
H1189 H 0.26676 0.18638 0.71223 0.0
H1190 H 0.25011 0.17765 0.78194 0.0
H1191 H 0.1894 0.20511 0.75639 0.0
H1192 H 0.20589 0.21396 0.68655 0.0
H1193 H 0.18793 0.24969 0.72561 0.0
H1194 H 0.29037 0.34276 0.74472 0.0
H1195 H 0.31137 0.34258 0.64738 0.0
H1196 H 0.26686 0.23693 0.63549 0.0
C1197 C 0.22461 0.23543 0.8547 0.0
C1198 C 0.22598 0.25596 0.90178 0.0
C1199 C 0.24125 0.29048 0.89637 0.0
C1200 C 0.25517 0.30423 0.84537 0.0
C1201 C 0.25351 0.28323 0.79996 0.0
C1202 C 0.23859 0.24959 0.80406 0.0
C1203 C 0.24107 0.23214 0.74918 0.0
C1204 C 0.26336 0.19789 0.75326 0.0
C1205 C 0.20385 0.2248 0.72821 0.0
C1206 C 0.26006 0.26109 0.71374 0.0
C1207 C 0.26685 0.29038 0.74386 0.0
C1208 C 0.28508 0.32004 0.72068 0.0
C1209 C 0.29703 0.31963 0.66545 0.0
C1210 C 0.29076 0.28976 0.63387 0.0
C1211 C 0.27162 0.26032 0.65835 0.0
H1212 H 0.79968 0.22482 0.86273 0.0
H1213 H 0.75755 0.31918 0.93744 0.0
H1214 H 0.72801 0.33635 0.85133 0.0
H1215 H 0.81732 0.26646 0.72638 0.0
H1216 H 0.80462 0.2277 0.69106 0.0
H1217 H 0.82268 0.22265 0.75859 0.0
H1218 H 0.76695 0.18666 0.79379 0.0
H1219 H 0.74876 0.19154 0.72639 0.0
H1220 H 0.72345 0.20585 0.78558 0.0
H1221 H 0.70216 0.34301 0.7579 0.0
H1222 H 0.68138 0.33845 0.66346 0.0
H1223 H 0.7412 0.24071 0.64757 0.0
C1224 C 0.78458 0.24931 0.86089 0.0
C1225 C 0.7809 0.27052 0.9073 0.0
C1226 C 0.76036 0.30209 0.90306 0.0
C1227 C 0.74368 0.31226 0.85408 0.0
C1228 C 0.74784 0.29074 0.80933 0.0
C1229 C 0.7678 0.25995 0.81216 0.0
C1230 C 0.76757 0.24138 0.75817 0.0
C1231 C 0.80529 0.23945 0.73201 0.0
C1232 C 0.75067 0.20416 0.7665 0.0
C1233 C 0.74424 0.26649 0.72463 0.0
C1234 C 0.73318 0.29478 0.75504 0.0
C1235 C 0.71073 0.32102 0.73366 0.0
C1236 C 0.69896 0.31813 0.68004 0.0
C1237 C 0.70963 0.28924 0.64809 0.0
C1238 C 0.73293 0.26332 0.67068 0.0
H1239 H 0.76088 0.7347 0.40357 0.0
H1240 H 0.65641 0.78184 0.38733 0.0
H1241 H 0.67123 0.79925 0.28991 0.0
H1242 H 0.8097 0.80025 0.31144 0.0
H1243 H 0.83855 0.76704 0.28306 0.0
H1244 H 0.82084 0.76096 0.35275 0.0
H1245 H 0.79466 0.69995 0.3299 0.0
H1246 H 0.8121 0.70592 0.26015 0.0
H1247 H 0.7653 0.69758 0.27326 0.0
H1248 H 0.69594 0.8085 0.19301 0.0
H1249 H 0.729 0.80922 0.10343 0.0
H1250 H 0.81713 0.75495 0.18151 0.0
C1251 C 0.74146 0.74934 0.37974 0.0
C1252 C 0.70752 0.75703 0.40302 0.0
C1253 C 0.6825 0.77556 0.37022 0.0
C1254 C 0.69072 0.78567 0.31493 0.0
C1255 C 0.72411 0.77705 0.29286 0.0
C1256 C 0.74916 0.75942 0.32421 0.0
C1257 C 0.78235 0.75171 0.28956 0.0
C1258 C 0.81478 0.77116 0.31045 0.0
C1259 C 0.78897 0.7114 0.28814 0.0
C1260 C 0.77183 0.76733 0.23378 0.0
C1261 C 0.73822 0.78202 0.2367 0.0
C1262 C 0.72234 0.79717 0.19026 0.0
C1263 C 0.74123 0.7972 0.13943 0.0
C1264 C 0.77566 0.78207 0.13521 0.0
C1265 C 0.79109 0.76716 0.18334 0.0
H1266 H 0.47695 0.5069 0.65844 0.0
H1267 H 0.54005 0.41141 0.64085 0.0
H1268 H 0.55283 0.42883 0.54291 0.0
H1269 H 0.43741 0.50568 0.52787 0.0
H1270 H 0.4381 0.5533 0.51501 0.0
H1271 H 0.43565 0.53466 0.5847 0.0
H1272 H 0.4919 0.57011 0.60705 0.0
H1273 H 0.49446 0.58897 0.53743 0.0
H1274 H 0.53207 0.56558 0.56532 0.0
H1275 H 0.55732 0.45539 0.44632 0.0
H1276 H 0.55323 0.4893 0.3574 0.0
H1277 H 0.48564 0.56694 0.43596 0.0
C1278 C 0.4939 0.49 0.6341 0.0
C1279 C 0.50753 0.45778 0.6573 0.0
C1280 C 0.52913 0.43606 0.62387 0.0
C1281 C 0.53664 0.4458 0.56825 0.0
C1282 C 0.52235 0.47737 0.54638 0.0
C1283 C 0.50146 0.49921 0.57818 0.0
C1284 C 0.48829 0.531 0.54375 0.0
C1285 C 0.44744 0.53115 0.54278 0.0
C1286 C 0.50254 0.56599 0.56464 0.0
C1287 C 0.50483 0.52343 0.48769 0.0
C1288 C 0.52451 0.49246 0.49027 0.0
C1289 C 0.54195 0.47969 0.44378 0.0
C1290 C 0.5392 0.49903 0.39325 0.0
C1291 C 0.51895 0.5308 0.38922 0.0
C1292 C 0.50168 0.54305 0.43746 0.0
H1293 H 0.03218 0.48623 0.89285 0.0
H1294 H 0.97046 0.38934 0.91934 0.0
H1295 H 0.96059 0.40202 1.01768 0.0
H1296 H 0.07747 0.47695 1.01394 0.0
H1297 H 0.07864 0.52357 0.02761 0.0
H1298 H 0.07587 0.51016 0.95799 0.0
H1299 H 0.01876 0.54771 0.94585 0.0
H1300 H 0.02152 0.56155 1.01543 0.0
H1301 H 0.98154 0.54069 0.99398 0.0
H1302 H 0.96363 0.42165 0.11533 0.0
H1303 H 0.97975 0.44607 0.20349 0.0
H1304 H 0.0391 0.53074 0.11341 0.0
C1305 C 0.0155 0.4685 0.91911 0.0
C1306 C 1.00126 0.4373 0.89858 0.0
C1307 C 0.98087 0.41375 0.93434 0.0
C1308 C 0.97522 0.42073 0.99017 0.0
C1309 C 0.99029 0.45134 1.00969 0.0
C1310 C 0.00986 0.47497 0.97512 0.0
C1311 C 0.02604 0.50402 1.00733 0.0
C1312 C 0.06692 0.50363 1.00136 0.0
C1313 C 0.01106 0.54066 0.98959 0.0
C1314 C 0.01331 0.49257 0.06544 0.0
C1315 C 0.9924 0.46236 0.06597 0.0
C1316 C 0.9795 0.44567 0.11529 0.0
C1317 C 0.98866 0.45987 0.16531 0.0
C1318 C 0.01075 0.49039 0.16583 0.0
C1319 C 0.02242 0.50722 0.11484 0.0
loop_
_geom_bond_atom_site_label_1
_geom_bond_atom_site_label_2
_geom_bond_distance
_geom_bond_site_symmetry_2
_ccdc_geom_bond_type
Gd0 N31 2.662 1_655 S
Gd0 N37 2.601 1_655 S
Gd0 O44 2.544 . S
Gd0 O45 2.605 1_545 S
Gd0 O47 2.428 . S
Gd0 O48 2.543 1_545 S
Gd0 O49 2.413 1_655 S
Gd0 O51 2.363 1_655 S
Gd0 O52 2.325 1_645 S
Gd0 C59 2.828 . S
Gd1 N10 2.655 1_455 S
Gd1 N14 2.601 1_455 S
Gd1 O45 2.360 1_455 S
Gd1 O46 2.320 1_465 S
Gd1 O50 2.548 . S
Gd1 O51 2.608 1_565 S
Gd1 O53 2.433 . S
Gd1 O54 2.549 1_565 S
Gd1 O55 2.411 1_455 S
Gd1 C68 2.829 . S
C2 C5 1.417 . S
C2 C7 1.431 . S
C2 C8 1.412 . S
C3 C6 1.437 . S
C3 C7 1.317 . S
C3 H22 0.929 . S
C4 C5 1.426 . S
C4 C6 1.413 . S
C4 N14 1.359 . S
C5 C2 1.417 . S
C5 C4 1.426 . S
C5 N10 1.350 . S
C6 C3 1.437 . S
C6 C4 1.413 . S
C6 C16 1.418 . S
C7 C2 1.431 . S
C7 C3 1.317 . S
C7 H18 0.930 . S
C8 C2 1.412 . S
C8 C9 1.355 . S
C8 H20 0.930 . S
C9 C8 1.355 . S
C9 C11 1.402 . S
C9 H21 0.930 . S
N10 Gd1 2.655 1_655 S
N10 C5 1.350 . S
N10 C11 1.307 . S
C11 C9 1.402 . S
C11 N10 1.307 . S
C11 H12 0.930 . S
H12 C11 0.930 . S
C13 N14 1.334 1_455 S
C13 C15 1.394 . S
C13 H17 0.930 . S
N14 Gd1 2.601 1_655 S
N14 C4 1.359 . S
N14 C13 1.334 1_655 S
C15 C13 1.394 . S
C15 C16 1.333 1_455 S
C15 H27 0.930 . S
C16 C6 1.418 . S
C16 C15 1.333 1_655 S
C16 H28 0.929 . S
H17 C13 0.930 . S
H18 C7 0.930 . S
H19 C36 0.930 . S
H20 C8 0.930 . S
H21 C9 0.930 . S
H22 C3 0.929 . S
H23 C41 0.930 . S
H24 C32 0.930 . S
H25 C33 0.930 . S
H26 C57 0.929 . S
H27 C15 0.930 . S
H28 C16 0.929 . S
H29 C58 0.930 . S
H30 C39 0.930 . S
N31 Gd0 2.662 1_455 S
N31 C35 1.350 . S
N31 C36 1.307 . S
C32 H24 0.930 . S
C32 C33 1.355 . S
C32 C34 1.412 . S
C33 H25 0.930 . S
C33 C32 1.355 . S
C33 C36 1.402 . S
C34 C32 1.412 . S
C34 C35 1.417 . S
C34 C58 1.431 . S
C35 N31 1.350 . S
C35 C34 1.417 . S
C35 C38 1.426 . S
C36 H19 0.930 . S
C36 N31 1.307 . S
C36 C33 1.402 . S
N37 Gd0 2.601 1_455 S
N37 C38 1.359 . S
N37 C41 1.334 1_455 S
C38 C35 1.426 . S
C38 N37 1.359 . S
C38 C42 1.413 . S
C39 H30 0.930 . S
C39 C40 1.359 1_655 S
C39 C41 1.394 . S
C40 C39 1.359 1_455 S
C40 C42 1.391 . S
C40 H43 0.930 . S
C41 H23 0.930 . S
C41 N37 1.334 1_655 S
C41 C39 1.394 . S
C42 C38 1.413 . S
C42 C40 1.391 . S
C42 C57 1.437 . S
H43 C40 0.930 . S
O44 Gd0 2.544 . S
O44 C59 1.258 . S
O45 Gd0 2.605 1_565 S
O45 Gd1 2.360 1_655 S
O45 C56 1.284 . S
O46 Gd1 2.320 1_645 S
O46 C66 1.254 . S
O47 Gd0 2.428 . S
O47 C66 1.268 . S
O48 Gd0 2.543 1_565 S
O48 C56 1.250 . S
O49 Gd0 2.413 1_455 S
O49 C59 1.252 1_455 S
O50 Gd1 2.548 . S
O50 C68 1.258 . S
O51 Gd0 2.363 1_455 S
O51 Gd1 2.608 1_545 S
O51 C67 1.284 . S
O52 Gd0 2.325 1_465 S
O52 C75 1.254 . S
O53 Gd1 2.433 . S
O53 C75 1.268 . S
O54 Gd1 2.549 1_545 S
O54 C67 1.250 . S
O55 Gd1 2.411 1_655 S
O55 C68 1.252 1_655 S
C56 O45 1.284 . S
C56 O48 1.250 . S
C57 H26 0.929 . S
C57 C42 1.437 . S
C57 C58 1.317 . S
C58 H29 0.930 . S
C58 C34 1.431 . S
C58 C57 1.317 . S
C59 Gd0 2.828 . S
C59 O44 1.258 . S
C59 O49 1.252 1_655 S
C59 C60 1.497 . S
C60 C59 1.497 . S
C60 C61 1.395 . S
C60 C62 1.380 . S
C61 C60 1.395 . S
C61 C64 1.398 . S
C61 H76 0.930 . S
C62 C60 1.380 . S
C62 C63 1.391 . S
C62 H77 0.930 1_645 S
C63 C62 1.391 . S
C63 C65 1.387 . S
C64 C61 1.398 . S
C64 C65 1.380 . S
C64 H78 0.930 . S
C65 C63 1.387 . S
C65 C64 1.380 . S
C65 H79 0.930 . S
C66 O46 1.254 . S
C66 O47 1.268 . S
C67 O51 1.284 . S
C67 O54 1.250 . S
C68 Gd1 2.829 . S
C68 O50 1.258 . S
C68 O55 1.252 1_455 S
C68 C69 1.497 . S
C69 C68 1.497 . S
C69 C70 1.395 . S
C69 C71 1.380 . S
C70 C69 1.395 . S
C70 C73 1.398 . S
C70 H80 0.930 . S
C71 C69 1.380 . S
C71 C72 1.391 . S
C71 H81 0.930 1_465 S
C72 C71 1.391 . S
C72 C74 1.387 . S
C73 C70 1.398 . S
C73 C74 1.380 . S
C73 H82 0.930 . S
C74 C72 1.387 . S
C74 C73 1.380 . S
C74 H83 0.930 . S
C75 O52 1.254 . S
C75 O53 1.268 . S
H76 C61 0.930 . S
H77 C62 0.930 1_465 S
H78 C64 0.930 . S
H79 C65 0.930 . S
H80 C70 0.930 . S
H81 C71 0.930 1_645 S
H82 C73 0.930 . S
H83 C74 0.930 . S
Gd84 N115 2.661 . S
Gd84 N121 2.601 . S
Gd84 O128 2.545 . S
Gd84 O129 2.606 . S
Gd84 O131 2.429 . S
Gd84 O132 2.545 . S
Gd84 O133 2.412 . S
Gd84 O135 2.362 . S
Gd84 O136 2.324 . S
Gd84 C143 2.828 . S
Gd85 N94 2.661 . S
Gd85 N98 2.601 . S
Gd85 O129 2.362 . S
Gd85 O130 2.324 . S
Gd85 O134 2.545 . S
Gd85 O135 2.606 . S
Gd85 O137 2.429 . S
Gd85 O138 2.545 . S
Gd85 O139 2.412 . S
Gd85 C152 2.828 . S
C86 C89 1.417 . S
C86 C91 1.431 . S
C86 C92 1.412 . S
C87 C90 1.437 . S
C87 C91 1.317 . S
C87 H106 0.929 . S
C88 C89 1.426 . S
C88 C90 1.413 . S
C88 N98 1.359 . S
C89 C86 1.417 . S
C89 C88 1.426 . S
C89 N94 1.350 . S
C90 C87 1.437 . S
C90 C88 1.413 . S
C90 C100 1.391 . S
C91 C86 1.431 . S
C91 C87 1.317 . S
C91 H102 0.930 . S
C92 C86 1.412 . S
C92 C93 1.355 . S
C92 H104 0.930 . S
C93 C92 1.355 . S
C93 C95 1.402 . S
C93 H105 0.930 . S
N94 Gd85 2.661 . S
N94 C89 1.350 . S
N94 C95 1.307 . S
C95 C93 1.402 . S
C95 N94 1.307 . S
C95 H96 0.930 . S
H96 C95 0.930 . S
C97 N98 1.334 . S
C97 C99 1.394 . S
C97 H101 0.930 . S
N98 Gd85 2.601 . S
N98 C88 1.359 . S
N98 C97 1.334 . S
C99 C97 1.394 . S
C99 C100 1.359 . S
C99 H111 0.930 . S
C100 C90 1.391 . S
C100 C99 1.359 . S
C100 H112 0.929 . S
H101 C97 0.930 . S
H102 C91 0.930 . S
H103 C120 0.930 . S
H104 C92 0.930 . S
H105 C93 0.930 . S
H106 C87 0.929 . S
H107 C125 0.930 . S
H108 C116 0.930 . S
H109 C117 0.930 . S
H110 C141 0.929 . S
H111 C99 0.930 . S
H112 C100 0.929 . S
H113 C142 0.930 . S
H114 C123 0.930 . S
N115 Gd84 2.661 . S
N115 C119 1.350 . S
N115 C120 1.307 . S
C116 H108 0.930 . S
C116 C117 1.355 . S
C116 C118 1.412 . S
C117 H109 0.930 . S
C117 C116 1.355 . S
C117 C120 1.402 . S
C118 C116 1.412 . S
C118 C119 1.417 . S
C118 C142 1.431 . S
C119 N115 1.350 . S
C119 C118 1.417 . S
C119 C122 1.426 . S
C120 H103 0.930 . S
C120 N115 1.307 . S
C120 C117 1.402 . S
N121 Gd84 2.601 . S
N121 C122 1.359 . S
N121 C125 1.334 . S
C122 C119 1.426 . S
C122 N121 1.359 . S
C122 C126 1.413 . S
C123 H114 0.930 . S
C123 C124 1.359 . S
C123 C125 1.394 . S
C124 C123 1.359 . S
C124 C126 1.391 . S
C124 H127 0.929 . S
C125 H107 0.930 . S
C125 N121 1.334 . S
C125 C123 1.394 . S
C126 C122 1.413 . S
C126 C124 1.391 . S
C126 C141 1.437 . S
H127 C124 0.929 . S
O128 Gd84 2.545 . S
O128 C143 1.258 . S
O129 Gd84 2.606 . S
O129 Gd85 2.362 . S
O129 C140 1.284 . S
O130 Gd85 2.324 . S
O130 C150 1.254 . S
O131 Gd84 2.429 . S
O131 C150 1.268 . S
O132 Gd84 2.545 . S
O132 C140 1.250 . S
O133 Gd84 2.412 . S
O133 C143 1.252 . S
O134 Gd85 2.545 . S
O134 C152 1.258 . S
O135 Gd84 2.362 . S
O135 Gd85 2.606 . S
O135 C151 1.284 . S
O136 Gd84 2.324 . S
O136 C159 1.254 . S
O137 Gd85 2.429 . S
O137 C159 1.268 . S
O138 Gd85 2.545 . S
O138 C151 1.250 . S
O139 Gd85 2.412 . S
O139 C152 1.252 . S
C140 O129 1.284 . S
C140 O132 1.250 . S
C141 H110 0.929 . S
C141 C126 1.437 . S
C141 C142 1.317 . S
C142 H113 0.930 . S
C142 C118 1.431 . S
C142 C141 1.317 . S
C143 Gd84 2.828 . S
C143 O128 1.258 . S
C143 O133 1.252 . S
C143 C144 1.497 . S
C144 C143 1.497 . S
C144 C145 1.395 1_556 S
C144 C146 1.380 1_556 S
C145 C144 1.395 1_554 S
C145 C148 1.398 . S
C145 H160 0.930 1_554 S
C146 C144 1.380 1_554 S
C146 C147 1.391 . S
C146 H161 0.930 1_554 S
C147 C146 1.391 . S
C147 C149 1.387 . S
C148 C145 1.398 . S
C148 C149 1.380 . S
C148 H162 0.930 . S
C149 C147 1.387 . S
C149 C148 1.380 . S
C149 H163 0.930 . S
C150 O130 1.254 . S
C150 O131 1.268 . S
C151 O135 1.284 . S
C151 O138 1.250 . S
C152 Gd85 2.828 . S
C152 O134 1.258 . S
C152 O139 1.252 . S
C152 C153 1.497 . S
C153 C152 1.497 . S
C153 C154 1.395 . S
C153 C155 1.380 . S
C154 C153 1.395 . S
C154 C157 1.398 . S
C154 H164 0.930 . S
C155 C153 1.380 . S
C155 C156 1.391 . S
C155 H165 0.930 . S
C156 C155 1.391 . S
C156 C158 1.387 . S
C157 C154 1.398 . S
C157 C158 1.380 . S
C157 H166 0.930 . S
C158 C156 1.387 . S
C158 C157 1.380 . S
C158 H167 0.930 . S
C159 O136 1.254 . S
C159 O137 1.268 . S
H160 C145 0.930 1_556 S
H161 C146 0.930 1_556 S
H162 C148 0.930 . S
H163 C149 0.930 . S
H164 C154 0.930 . S
H165 C155 0.930 . S
H166 C157 0.930 . S
H167 C158 0.930 . S
Gd168 N199 2.661 . S
Gd168 N205 2.601 . S
Gd168 O212 2.545 . S
Gd168 O213 2.606 1_545 S
Gd168 O215 2.429 . S
Gd168 O216 2.545 1_545 S
Gd168 O217 2.412 . S
Gd168 O219 2.362 1_556 S
Gd168 O220 2.324 1_545 S
Gd168 C227 2.828 . S
Gd169 N178 2.661 . S
Gd169 N182 2.601 . S
Gd169 O213 2.362 1_554 S
Gd169 O214 2.324 1_565 S
Gd169 O218 2.545 . S
Gd169 O219 2.606 1_565 S
Gd169 O221 2.429 . S
Gd169 O222 2.545 1_565 S
Gd169 O223 2.412 . S
Gd169 C236 2.828 . S
C170 C173 1.417 . S
C170 C175 1.431 . S
C170 C176 1.412 . S
C171 C174 1.437 . S
C171 C175 1.317 . S
C171 H190 0.929 . S
C172 C173 1.426 . S
C172 C174 1.413 . S
C172 N182 1.359 . S
C173 C170 1.417 . S
C173 C172 1.426 . S
C173 N178 1.350 . S
C174 C171 1.437 . S
C174 C172 1.413 . S
C174 C184 1.391 . S
C175 C170 1.431 . S
C175 C171 1.317 . S
C175 H186 0.930 . S
C176 C170 1.412 . S
C176 C177 1.355 . S
C176 H188 0.930 . S
C177 C176 1.355 . S
C177 C179 1.402 . S
C177 H189 0.930 . S
N178 Gd169 2.661 . S
N178 C173 1.350 . S
N178 C179 1.307 . S
C179 C177 1.402 . S
C179 N178 1.307 . S
C179 H180 0.930 . S
H180 C179 0.930 . S
C181 N182 1.334 . S
C181 C183 1.394 . S
C181 H185 0.930 . S
N182 Gd169 2.601 . S
N182 C172 1.359 . S
N182 C181 1.334 . S
C183 C181 1.394 . S
C183 C184 1.359 . S
C183 H195 0.930 . S
C184 C174 1.391 . S
C184 C183 1.359 . S
C184 H196 0.929 . S
H185 C181 0.930 . S
H186 C175 0.930 . S
H187 C204 0.930 . S
H188 C176 0.930 . S
H189 C177 0.930 . S
H190 C171 0.929 . S
H191 C209 0.930 . S
H192 C200 0.930 . S
H193 C201 0.930 . S
H194 C225 0.929 . S
H195 C183 0.930 . S
H196 C184 0.929 . S
H197 C226 0.930 . S
H198 C207 0.930 . S
N199 Gd168 2.661 . S
N199 C203 1.350 . S
N199 C204 1.307 . S
C200 H192 0.930 . S
C200 C201 1.355 . S
C200 C202 1.412 . S
C201 H193 0.930 . S
C201 C200 1.355 . S
C201 C204 1.402 . S
C202 C200 1.412 . S
C202 C203 1.417 . S
C202 C226 1.431 . S
C203 N199 1.350 . S
C203 C202 1.417 . S
C203 C206 1.426 . S
C204 H187 0.930 . S
C204 N199 1.307 . S
C204 C201 1.402 . S
N205 Gd168 2.601 . S
N205 C206 1.359 . S
N205 C209 1.334 . S
C206 C203 1.426 . S
C206 N205 1.359 . S
C206 C210 1.413 . S
C207 H198 0.930 . S
C207 C208 1.359 . S
C207 C209 1.394 . S
C208 C207 1.359 . S
C208 C210 1.391 . S
C208 H211 0.929 . S
C209 H191 0.930 . S
C209 N205 1.334 . S
C209 C207 1.394 . S
C210 C206 1.413 . S
C210 C208 1.391 . S
C210 C225 1.437 . S
H211 C208 0.929 . S
O212 Gd168 2.545 . S
O212 C227 1.258 . S
O213 Gd168 2.606 1_565 S
O213 Gd169 2.362 1_556 S
O213 C224 1.284 . S
O214 Gd169 2.324 1_545 S
O214 C234 1.254 . S
O215 Gd168 2.429 . S
O215 C234 1.268 1_556 S
O216 Gd168 2.545 1_565 S
O216 C224 1.250 . S
O217 Gd168 2.412 . S
O217 C227 1.252 . S
O218 Gd169 2.545 . S
O218 C236 1.258 . S
O219 Gd168 2.362 1_554 S
O219 Gd169 2.606 1_545 S
O219 C235 1.284 . S
O220 Gd168 2.324 1_565 S
O220 C243 1.254 . S
O221 Gd169 2.429 . S
O221 C243 1.268 1_554 S
O222 Gd169 2.545 1_545 S
O222 C235 1.250 . S
O223 Gd169 2.412 . S
O223 C236 1.252 . S
C224 O213 1.284 . S
C224 O216 1.250 . S
C225 H194 0.929 . S
C225 C210 1.437 . S
C225 C226 1.317 . S
C226 H197 0.930 . S
C226 C202 1.431 . S
C226 C225 1.317 . S
C227 Gd168 2.828 . S
C227 O212 1.258 . S
C227 O217 1.252 . S
C227 C228 1.497 . S
C228 C227 1.497 . S
C228 C229 1.395 . S
C228 C230 1.380 . S
C229 C228 1.395 . S
C229 C232 1.398 . S
C229 H244 0.930 . S
C230 C228 1.380 . S
C230 C231 1.391 . S
C230 H245 0.930 1_545 S
C231 C230 1.391 . S
C231 C233 1.387 . S
C232 C229 1.398 . S
C232 C233 1.380 . S
C232 H246 0.930 . S
C233 C231 1.387 . S
C233 C232 1.380 . S
C233 H247 0.930 . S
C234 O214 1.254 . S
C234 O215 1.268 1_554 S
C235 O219 1.284 . S
C235 O222 1.250 . S
C236 Gd169 2.828 . S
C236 O218 1.258 . S
C236 O223 1.252 . S
C236 C237 1.497 . S
C237 C236 1.497 . S
C237 C238 1.395 . S
C237 C239 1.380 . S
C238 C237 1.395 . S
C238 C241 1.398 . S
C238 H248 0.930 . S
C239 C237 1.380 . S
C239 C240 1.391 . S
C239 H249 0.930 1_565 S
C240 C239 1.391 . S
C240 C242 1.387 . S
C241 C238 1.398 . S
C241 C242 1.380 . S
C241 H250 0.930 . S
C242 C240 1.387 . S
C242 C241 1.380 . S
C242 H251 0.930 . S
C243 O220 1.254 . S
C243 O221 1.268 1_556 S
H244 C229 0.930 . S
H245 C230 0.930 1_565 S
H246 C232 0.930 . S
H247 C233 0.930 . S
H248 C238 0.930 . S
H249 C239 0.930 1_545 S
H250 C241 0.930 . S
H251 C242 0.930 . S
Gd252 N283 2.661 . S
Gd252 N289 2.601 . S
Gd252 O296 2.545 . S
Gd252 O297 2.606 . S
Gd252 O299 2.429 . S
Gd252 O300 2.545 . S
Gd252 O301 2.412 . S
Gd252 O303 2.362 . S
Gd252 O304 2.324 . S
Gd252 C311 2.828 . S
Gd253 N262 2.661 . S
Gd253 N266 2.601 . S
Gd253 O297 2.362 . S
Gd253 O298 2.324 . S
Gd253 O302 2.545 . S
Gd253 O303 2.606 . S
Gd253 O305 2.429 . S
Gd253 O306 2.545 . S
Gd253 O307 2.412 . S
Gd253 C320 2.828 . S
C254 C257 1.417 . S
C254 C259 1.431 . S
C254 C260 1.412 . S
C255 C258 1.437 . S
C255 C259 1.317 . S
C255 H274 0.929 . S
C256 C257 1.426 . S
C256 C258 1.413 . S
C256 N266 1.359 . S
C257 C254 1.417 . S
C257 C256 1.426 . S
C257 N262 1.350 . S
C258 C255 1.437 . S
C258 C256 1.413 . S
C258 C268 1.391 . S
C259 C254 1.431 . S
C259 C255 1.317 . S
C259 H270 0.930 . S
C260 C254 1.412 . S
C260 C261 1.355 . S
C260 H272 0.930 . S
C261 C260 1.355 . S
C261 C263 1.402 . S
C261 H273 0.930 . S
N262 Gd253 2.661 . S
N262 C257 1.350 . S
N262 C263 1.307 . S
C263 C261 1.402 . S
C263 N262 1.307 . S
C263 H264 0.930 . S
H264 C263 0.930 . S
C265 N266 1.334 . S
C265 C267 1.394 . S
C265 H269 0.930 . S
N266 Gd253 2.601 . S
N266 C256 1.359 . S
N266 C265 1.334 . S
C267 C265 1.394 . S
C267 C268 1.359 . S
C267 H279 0.930 . S
C268 C258 1.391 . S
C268 C267 1.359 . S
C268 H280 0.929 . S
H269 C265 0.930 . S
H270 C259 0.930 . S
H271 C288 0.930 . S
H272 C260 0.930 . S
H273 C261 0.930 . S
H274 C255 0.929 . S
H275 C293 0.930 . S
H276 C284 0.930 . S
H277 C285 0.930 . S
H278 C309 0.929 . S
H279 C267 0.930 . S
H280 C268 0.929 . S
H281 C310 0.930 . S
H282 C291 0.930 . S
N283 Gd252 2.661 . S
N283 C287 1.350 . S
N283 C288 1.307 . S
C284 H276 0.930 . S
C284 C285 1.355 . S
C284 C286 1.412 . S
C285 H277 0.930 . S
C285 C284 1.355 . S
C285 C288 1.402 . S
C286 C284 1.412 . S
C286 C287 1.417 . S
C286 C310 1.431 . S
C287 N283 1.350 . S
C287 C286 1.417 . S
C287 C290 1.426 . S
C288 H271 0.930 . S
C288 N283 1.307 . S
C288 C285 1.402 . S
N289 Gd252 2.601 . S
N289 C290 1.359 . S
N289 C293 1.334 . S
C290 C287 1.426 . S
C290 N289 1.359 . S
C290 C294 1.413 . S
C291 H282 0.930 . S
C291 C292 1.359 . S
C291 C293 1.394 . S
C292 C291 1.359 . S
C292 C294 1.391 . S
C292 H295 0.929 . S
C293 H275 0.930 . S
C293 N289 1.334 . S
C293 C291 1.394 . S
C294 C290 1.413 . S
C294 C292 1.391 . S
C294 C309 1.437 . S
H295 C292 0.929 . S
O296 Gd252 2.545 . S
O296 C311 1.258 . S
O297 Gd252 2.606 . S
O297 Gd253 2.362 . S
O297 C308 1.284 . S
O298 Gd253 2.324 . S
O298 C318 1.254 . S
O299 Gd252 2.429 . S
O299 C318 1.268 . S
O300 Gd252 2.545 . S
O300 C308 1.250 . S
O301 Gd252 2.412 . S
O301 C311 1.252 . S
O302 Gd253 2.545 . S
O302 C320 1.258 . S
O303 Gd252 2.362 . S
O303 Gd253 2.606 . S
O303 C319 1.284 . S
O304 Gd252 2.324 . S
O304 C327 1.254 . S
O305 Gd253 2.429 . S
O305 C327 1.268 . S
O306 Gd253 2.545 . S
O306 C319 1.250 . S
O307 Gd253 2.412 . S
O307 C320 1.252 . S
C308 O297 1.284 . S
C308 O300 1.250 . S
C309 H278 0.929 . S
C309 C294 1.437 . S
C309 C310 1.317 . S
C310 H281 0.930 . S
C310 C286 1.431 . S
C310 C309 1.317 . S
C311 Gd252 2.828 . S
C311 O296 1.258 . S
C311 O301 1.252 . S
C311 C312 1.497 . S
C312 C311 1.497 . S
C312 C313 1.395 1_554 S
C312 C314 1.380 1_554 S
C313 C312 1.395 1_556 S
C313 C316 1.398 . S
C313 H328 0.930 1_556 S
C314 C312 1.380 1_556 S
C314 C315 1.391 . S
C314 H329 0.930 1_556 S
C315 C314 1.391 . S
C315 C317 1.387 . S
C316 C313 1.398 . S
C316 C317 1.380 . S
C316 H330 0.930 . S
C317 C315 1.387 . S
C317 C316 1.380 . S
C317 H331 0.930 . S
C318 O298 1.254 . S
C318 O299 1.268 . S
C319 O303 1.284 . S
C319 O306 1.250 . S
C320 Gd253 2.828 . S
C320 O302 1.258 . S
C320 O307 1.252 . S
C320 C321 1.497 . S
C321 C320 1.497 . S
C321 C322 1.395 . S
C321 C323 1.380 . S
C322 C321 1.395 . S
C322 C325 1.398 . S
C322 H332 0.930 . S
C323 C321 1.380 . S
C323 C324 1.391 . S
C323 H333 0.930 . S
C324 C323 1.391 . S
C324 C326 1.387 . S
C325 C322 1.398 . S
C325 C326 1.380 . S
C325 H334 0.930 . S
C326 C324 1.387 . S
C326 C325 1.380 . S
C326 H335 0.930 . S
C327 O304 1.254 . S
C327 O305 1.268 . S
H328 C313 0.930 1_554 S
H329 C314 0.930 1_554 S
H330 C316 0.930 . S
H331 C317 0.930 . S
H332 C322 0.930 . S
H333 C323 0.930 . S
H334 C325 0.930 . S
H335 C326 0.930 . S
Gd336 N367 2.661 . S
Gd336 N373 2.601 . S
Gd336 O380 2.545 . S
Gd336 O381 2.606 . S
Gd336 O383 2.429 . S
Gd336 O384 2.545 . S
Gd336 O385 2.412 . S
Gd336 O387 2.362 . S
Gd336 O388 2.324 . S
Gd336 C395 2.828 . S
Gd337 N346 2.661 . S
Gd337 N350 2.601 . S
Gd337 O381 2.362 . S
Gd337 O382 2.324 . S
Gd337 O386 2.545 . S
Gd337 O387 2.606 . S
Gd337 O389 2.429 . S
Gd337 O390 2.545 . S
Gd337 O391 2.412 . S
Gd337 C404 2.828 . S
C338 C341 1.417 . S
C338 C343 1.431 . S
C338 C344 1.412 . S
C339 C342 1.437 . S
C339 C343 1.317 . S
C339 H358 0.929 . S
C340 C341 1.426 . S
C340 C342 1.413 . S
C340 N350 1.359 . S
C341 C338 1.417 . S
C341 C340 1.426 . S
C341 N346 1.350 . S
C342 C339 1.437 . S
C342 C340 1.413 . S
C342 C352 1.391 . S
C343 C338 1.431 . S
C343 C339 1.317 . S
C343 H354 0.930 . S
C344 C338 1.412 . S
C344 C345 1.355 . S
C344 H356 0.930 . S
C345 C344 1.355 . S
C345 C347 1.402 . S
C345 H357 0.930 . S
N346 Gd337 2.661 . S
N346 C341 1.350 . S
N346 C347 1.307 . S
C347 C345 1.402 . S
C347 N346 1.307 . S
C347 H348 0.930 . S
H348 C347 0.930 . S
C349 N350 1.334 . S
C349 C351 1.394 . S
C349 H353 0.930 . S
N350 Gd337 2.601 . S
N350 C340 1.359 . S
N350 C349 1.334 . S
C351 C349 1.394 . S
C351 C352 1.359 . S
C351 H363 0.930 . S
C352 C342 1.391 . S
C352 C351 1.359 . S
C352 H364 0.929 . S
H353 C349 0.930 . S
H354 C343 0.930 . S
H355 C372 0.930 . S
H356 C344 0.930 . S
H357 C345 0.930 . S
H358 C339 0.929 . S
H359 C377 0.930 . S
H360 C368 0.930 . S
H361 C369 0.930 . S
H362 C393 0.929 . S
H363 C351 0.930 . S
H364 C352 0.929 . S
H365 C394 0.930 . S
H366 C375 0.930 . S
N367 Gd336 2.661 . S
N367 C371 1.350 . S
N367 C372 1.307 . S
C368 H360 0.930 . S
C368 C369 1.355 . S
C368 C370 1.412 . S
C369 H361 0.930 . S
C369 C368 1.355 . S
C369 C372 1.402 . S
C370 C368 1.412 . S
C370 C371 1.417 . S
C370 C394 1.431 . S
C371 N367 1.350 . S
C371 C370 1.417 . S
C371 C374 1.426 . S
C372 H355 0.930 . S
C372 N367 1.307 . S
C372 C369 1.402 . S
N373 Gd336 2.601 . S
N373 C374 1.359 . S
N373 C377 1.334 . S
C374 C371 1.426 . S
C374 N373 1.359 . S
C374 C378 1.413 . S
C375 H366 0.930 . S
C375 C376 1.359 . S
C375 C377 1.394 . S
C376 C375 1.359 . S
C376 C378 1.391 . S
C376 H379 0.929 . S
C377 H359 0.930 . S
C377 N373 1.334 . S
C377 C375 1.394 . S
C378 C374 1.413 . S
C378 C376 1.391 . S
C378 C393 1.437 . S
H379 C376 0.929 . S
O380 Gd336 2.545 . S
O380 C395 1.258 . S
O381 Gd336 2.606 . S
O381 Gd337 2.362 . S
O381 C392 1.284 . S
O382 Gd337 2.324 . S
O382 C402 1.254 . S
O383 Gd336 2.429 . S
O383 C402 1.268 . S
O384 Gd336 2.545 . S
O384 C392 1.250 . S
O385 Gd336 2.412 . S
O385 C395 1.252 . S
O386 Gd337 2.545 . S
O386 C404 1.258 . S
O387 Gd336 2.362 . S
O387 Gd337 2.606 . S
O387 C403 1.284 . S
O388 Gd336 2.324 . S
O388 C411 1.254 . S
O389 Gd337 2.429 . S
O389 C411 1.268 . S
O390 Gd337 2.545 . S
O390 C403 1.250 . S
O391 Gd337 2.412 . S
O391 C404 1.252 . S
C392 O381 1.284 . S
C392 O384 1.250 . S
C393 H362 0.929 . S
C393 C378 1.437 . S
C393 C394 1.317 . S
C394 H365 0.930 . S
C394 C370 1.431 . S
C394 C393 1.317 . S
C395 Gd336 2.828 . S
C395 O380 1.258 . S
C395 O385 1.252 . S
C395 C396 1.497 . S
C396 C395 1.497 . S
C396 C397 1.395 . S
C396 C398 1.380 . S
C397 C396 1.395 . S
C397 C400 1.398 . S
C397 H412 0.930 . S
C398 C396 1.380 . S
C398 C399 1.391 . S
C398 H413 0.930 . S
C399 C398 1.391 . S
C399 C401 1.387 . S
C400 C397 1.398 . S
C400 C401 1.380 . S
C400 H414 0.930 . S
C401 C399 1.387 . S
C401 C400 1.380 . S
C401 H415 0.930 . S
C402 O382 1.254 . S
C402 O383 1.268 . S
C403 O387 1.284 . S
C403 O390 1.250 . S
C404 Gd337 2.828 . S
C404 O386 1.258 . S
C404 O391 1.252 . S
C404 C405 1.497 . S
C405 C404 1.497 . S
C405 C406 1.395 1_554 S
C405 C407 1.380 1_554 S
C406 C405 1.395 1_556 S
C406 C409 1.398 . S
C406 H416 0.930 1_556 S
C407 C405 1.380 1_556 S
C407 C408 1.391 . S
C407 H417 0.930 1_556 S
C408 C407 1.391 . S
C408 C410 1.387 . S
C409 C406 1.398 . S
C409 C410 1.380 . S
C409 H418 0.930 . S
C410 C408 1.387 . S
C410 C409 1.380 . S
C410 H419 0.930 . S
C411 O388 1.254 . S
C411 O389 1.268 . S
H412 C397 0.930 . S
H413 C398 0.930 . S
H414 C400 0.930 . S
H415 C401 0.930 . S
H416 C406 0.930 1_554 S
H417 C407 0.930 1_554 S
H418 C409 0.930 . S
H419 C410 0.930 . S
Gd420 N451 2.661 . S
Gd420 N457 2.601 . S
Gd420 O464 2.545 . S
Gd420 O465 2.606 . S
Gd420 O467 2.429 . S
Gd420 O468 2.545 . S
Gd420 O469 2.412 . S
Gd420 O471 2.362 . S
Gd420 O472 2.324 . S
Gd420 C479 2.828 . S
Gd421 N430 2.661 . S
Gd421 N434 2.601 . S
Gd421 O465 2.362 . S
Gd421 O466 2.324 . S
Gd421 O470 2.545 . S
Gd421 O471 2.606 . S
Gd421 O473 2.429 . S
Gd421 O474 2.545 . S
Gd421 O475 2.412 . S
Gd421 C488 2.828 . S
C422 C425 1.417 . S
C422 C427 1.431 . S
C422 C428 1.412 . S
C423 C426 1.437 . S
C423 C427 1.317 . S
C423 H442 0.929 . S
C424 C425 1.426 . S
C424 C426 1.413 . S
C424 N434 1.359 . S
C425 C422 1.417 . S
C425 C424 1.426 . S
C425 N430 1.350 . S
C426 C423 1.437 . S
C426 C424 1.413 . S
C426 C436 1.391 . S
C427 C422 1.431 . S
C427 C423 1.317 . S
C427 H438 0.930 . S
C428 C422 1.412 . S
C428 C429 1.355 . S
C428 H440 0.930 . S
C429 C428 1.355 . S
C429 C431 1.402 . S
C429 H441 0.930 . S
N430 Gd421 2.661 . S
N430 C425 1.350 . S
N430 C431 1.307 . S
C431 C429 1.402 . S
C431 N430 1.307 . S
C431 H432 0.930 . S
H432 C431 0.930 . S
C433 N434 1.334 . S
C433 C435 1.394 . S
C433 H437 0.930 . S
N434 Gd421 2.601 . S
N434 C424 1.359 . S
N434 C433 1.334 . S
C435 C433 1.394 . S
C435 C436 1.359 . S
C435 H447 0.930 . S
C436 C426 1.391 . S
C436 C435 1.359 . S
C436 H448 0.929 . S
H437 C433 0.930 . S
H438 C427 0.930 . S
H439 C456 0.930 . S
H440 C428 0.930 . S
H441 C429 0.930 . S
H442 C423 0.929 . S
H443 C461 0.930 . S
H444 C452 0.930 . S
H445 C453 0.930 . S
H446 C477 0.929 . S
H447 C435 0.930 . S
H448 C436 0.929 . S
H449 C478 0.930 . S
H450 C459 0.930 . S
N451 Gd420 2.661 . S
N451 C455 1.350 . S
N451 C456 1.307 . S
C452 H444 0.930 . S
C452 C453 1.355 . S
C452 C454 1.412 . S
C453 H445 0.930 . S
C453 C452 1.355 . S
C453 C456 1.402 . S
C454 C452 1.412 . S
C454 C455 1.417 . S
C454 C478 1.431 . S
C455 N451 1.350 . S
C455 C454 1.417 . S
C455 C458 1.426 . S
C456 H439 0.930 . S
C456 N451 1.307 . S
C456 C453 1.402 . S
N457 Gd420 2.601 . S
N457 C458 1.359 . S
N457 C461 1.334 . S
C458 C455 1.426 . S
C458 N457 1.359 . S
C458 C462 1.413 . S
C459 H450 0.930 . S
C459 C460 1.359 . S
C459 C461 1.394 . S
C460 C459 1.359 . S
C460 C462 1.391 . S
C460 H463 0.929 . S
C461 H443 0.930 . S
C461 N457 1.334 . S
C461 C459 1.394 . S
C462 C458 1.413 . S
C462 C460 1.391 . S
C462 C477 1.437 . S
H463 C460 0.929 . S
O464 Gd420 2.545 . S
O464 C479 1.258 . S
O465 Gd420 2.606 . S
O465 Gd421 2.362 . S
O465 C476 1.284 . S
O466 Gd421 2.324 . S
O466 C486 1.254 . S
O467 Gd420 2.429 . S
O467 C486 1.268 . S
O468 Gd420 2.545 . S
O468 C476 1.250 . S
O469 Gd420 2.412 . S
O469 C479 1.252 . S
O470 Gd421 2.545 . S
O470 C488 1.258 . S
O471 Gd420 2.362 . S
O471 Gd421 2.606 . S
O471 C487 1.284 . S
O472 Gd420 2.324 . S
O472 C495 1.254 . S
O473 Gd421 2.429 . S
O473 C495 1.268 . S
O474 Gd421 2.545 . S
O474 C487 1.250 . S
O475 Gd421 2.412 . S
O475 C488 1.252 . S
C476 O465 1.284 . S
C476 O468 1.250 . S
C477 H446 0.929 . S
C477 C462 1.437 . S
C477 C478 1.317 . S
C478 H449 0.930 . S
C478 C454 1.431 . S
C478 C477 1.317 . S
C479 Gd420 2.828 . S
C479 O464 1.258 . S
C479 O469 1.252 . S
C479 C480 1.497 . S
C480 C479 1.497 . S
C480 C481 1.395 . S
C480 C482 1.380 . S
C481 C480 1.395 . S
C481 C484 1.398 . S
C481 H496 0.930 . S
C482 C480 1.380 . S
C482 C483 1.391 . S
C482 H497 0.930 . S
C483 C482 1.391 . S
C483 C485 1.387 . S
C484 C481 1.398 . S
C484 C485 1.380 . S
C484 H498 0.930 . S
C485 C483 1.387 . S
C485 C484 1.380 . S
C485 H499 0.930 . S
C486 O466 1.254 . S
C486 O467 1.268 . S
C487 O471 1.284 . S
C487 O474 1.250 . S
C488 Gd421 2.828 . S
C488 O470 1.258 . S
C488 O475 1.252 . S
C488 C489 1.497 . S
C489 C488 1.497 . S
C489 C490 1.395 1_556 S
C489 C491 1.380 1_556 S
C490 C489 1.395 1_554 S
C490 C493 1.398 . S
C490 H500 0.930 1_554 S
C491 C489 1.380 1_554 S
C491 C492 1.391 . S
C491 H501 0.930 1_554 S
C492 C491 1.391 . S
C492 C494 1.387 . S
C493 C490 1.398 . S
C493 C494 1.380 . S
C493 H502 0.930 . S
C494 C492 1.387 . S
C494 C493 1.380 . S
C494 H503 0.930 . S
C495 O472 1.254 . S
C495 O473 1.268 . S
H496 C481 0.930 . S
H497 C482 0.930 . S
H498 C484 0.930 . S
H499 C485 0.930 . S
H500 C490 0.930 1_556 S
H501 C491 0.930 1_556 S
H502 C493 0.930 . S
H503 C494 0.930 . S
Gd504 N535 2.661 . S
Gd504 N541 2.601 . S
Gd504 O548 2.545 . S
Gd504 O549 2.606 . S
Gd504 O551 2.429 . S
Gd504 O552 2.545 . S
Gd504 O553 2.412 . S
Gd504 O555 2.362 1_554 S
Gd504 O556 2.324 . S
Gd504 C563 2.828 . S
Gd505 N514 2.661 . S
Gd505 N518 2.601 . S
Gd505 O549 2.362 1_556 S
Gd505 O550 2.324 . S
Gd505 O554 2.545 . S
Gd505 O555 2.606 . S
Gd505 O557 2.429 . S
Gd505 O558 2.545 . S
Gd505 O559 2.412 . S
Gd505 C572 2.828 . S
C506 C509 1.417 . S
C506 C511 1.431 . S
C506 C512 1.412 . S
C507 C510 1.437 . S
C507 C511 1.317 . S
C507 H526 0.929 . S
C508 C509 1.426 . S
C508 C510 1.413 . S
C508 N518 1.359 . S
C509 C506 1.417 . S
C509 C508 1.426 . S
C509 N514 1.350 . S
C510 C507 1.437 . S
C510 C508 1.413 . S
C510 C520 1.391 . S
C511 C506 1.431 . S
C511 C507 1.317 . S
C511 H522 0.930 . S
C512 C506 1.412 . S
C512 C513 1.355 . S
C512 H524 0.930 . S
C513 C512 1.355 . S
C513 C515 1.402 . S
C513 H525 0.930 . S
N514 Gd505 2.661 . S
N514 C509 1.350 . S
N514 C515 1.307 . S
C515 C513 1.402 . S
C515 N514 1.307 . S
C515 H516 0.930 . S
H516 C515 0.930 . S
C517 N518 1.334 . S
C517 C519 1.394 . S
C517 H521 0.930 . S
N518 Gd505 2.601 . S
N518 C508 1.359 . S
N518 C517 1.334 . S
C519 C517 1.394 . S
C519 C520 1.359 . S
C519 H531 0.930 . S
C520 C510 1.391 . S
C520 C519 1.359 . S
C520 H532 0.929 . S
H521 C517 0.930 . S
H522 C511 0.930 . S
H523 C540 0.930 . S
H524 C512 0.930 . S
H525 C513 0.930 . S
H526 C507 0.929 . S
H527 C545 0.930 . S
H528 C536 0.930 . S
H529 C537 0.930 . S
H530 C561 0.929 . S
H531 C519 0.930 . S
H532 C520 0.929 . S
H533 C562 0.930 . S
H534 C543 0.930 . S
N535 Gd504 2.661 . S
N535 C539 1.350 . S
N535 C540 1.307 . S
C536 H528 0.930 . S
C536 C537 1.355 . S
C536 C538 1.412 . S
C537 H529 0.930 . S
C537 C536 1.355 . S
C537 C540 1.402 . S
C538 C536 1.412 . S
C538 C539 1.417 . S
C538 C562 1.431 . S
C539 N535 1.350 . S
C539 C538 1.417 . S
C539 C542 1.426 . S
C540 H523 0.930 . S
C540 N535 1.307 . S
C540 C537 1.402 . S
N541 Gd504 2.601 . S
N541 C542 1.359 . S
N541 C545 1.334 . S
C542 C539 1.426 . S
C542 N541 1.359 . S
C542 C546 1.413 . S
C543 H534 0.930 . S
C543 C544 1.359 . S
C543 C545 1.394 . S
C544 C543 1.359 . S
C544 C546 1.391 . S
C544 H547 0.929 . S
C545 H527 0.930 . S
C545 N541 1.334 . S
C545 C543 1.394 . S
C546 C542 1.413 . S
C546 C544 1.391 . S
C546 C561 1.437 . S
H547 C544 0.929 . S
O548 Gd504 2.545 . S
O548 C563 1.258 . S
O549 Gd504 2.606 . S
O549 Gd505 2.362 1_554 S
O549 C560 1.284 . S
O550 Gd505 2.324 . S
O550 C570 1.254 . S
O551 Gd504 2.429 . S
O551 C570 1.268 1_554 S
O552 Gd504 2.545 . S
O552 C560 1.250 . S
O553 Gd504 2.412 . S
O553 C563 1.252 . S
O554 Gd505 2.545 . S
O554 C572 1.258 . S
O555 Gd504 2.362 1_556 S
O555 Gd505 2.606 . S
O555 C571 1.284 . S
O556 Gd504 2.324 . S
O556 C579 1.254 . S
O557 Gd505 2.429 . S
O557 C579 1.268 1_556 S
O558 Gd505 2.545 . S
O558 C571 1.250 . S
O559 Gd505 2.412 . S
O559 C572 1.252 . S
C560 O549 1.284 . S
C560 O552 1.250 . S
C561 H530 0.929 . S
C561 C546 1.437 . S
C561 C562 1.317 . S
C562 H533 0.930 . S
C562 C538 1.431 . S
C562 C561 1.317 . S
C563 Gd504 2.828 . S
C563 O548 1.258 . S
C563 O553 1.252 . S
C563 C564 1.497 . S
C564 C563 1.497 . S
C564 C565 1.395 . S
C564 C566 1.380 . S
C565 C564 1.395 . S
C565 C568 1.398 . S
C565 H580 0.930 . S
C566 C564 1.380 . S
C566 C567 1.391 . S
C566 H581 0.930 . S
C567 C566 1.391 . S
C567 C569 1.387 . S
C568 C565 1.398 . S
C568 C569 1.380 . S
C568 H582 0.930 . S
C569 C567 1.387 . S
C569 C568 1.380 . S
C569 H583 0.930 . S
C570 O550 1.254 . S
C570 O551 1.268 1_556 S
C571 O555 1.284 . S
C571 O558 1.250 . S
C572 Gd505 2.828 . S
C572 O554 1.258 . S
C572 O559 1.252 . S
C572 C573 1.497 . S
C573 C572 1.497 . S
C573 C574 1.395 . S
C573 C575 1.380 . S
C574 C573 1.395 . S
C574 C577 1.398 . S
C574 H584 0.930 . S
C575 C573 1.380 . S
C575 C576 1.391 . S
C575 H585 0.930 . S
C576 C575 1.391 . S
C576 C578 1.387 . S
C577 C574 1.398 . S
C577 C578 1.380 . S
C577 H586 0.930 . S
C578 C576 1.387 . S
C578 C577 1.380 . S
C578 H587 0.930 . S
C579 O556 1.254 . S
C579 O557 1.268 1_554 S
H580 C565 0.930 . S
H581 C566 0.930 . S
H582 C568 0.930 . S
H583 C569 0.930 . S
H584 C574 0.930 . S
H585 C575 0.930 . S
H586 C577 0.930 . S
H587 C578 0.930 . S
Gd588 N619 2.655 1_455 S
Gd588 N625 2.601 1_455 S
Gd588 O632 2.548 . S
Gd588 O633 2.608 . S
Gd588 O635 2.433 . S
Gd588 O636 2.548 . S
Gd588 O637 2.411 1_455 S
Gd588 O639 2.360 1_455 S
Gd588 O640 2.320 1_455 S
Gd588 C647 2.829 . S
Gd589 N598 2.662 1_655 S
Gd589 N602 2.601 1_655 S
Gd589 O633 2.363 1_655 S
Gd589 O634 2.325 1_655 S
Gd589 O638 2.544 . S
Gd589 O639 2.605 . S
Gd589 O641 2.428 . S
Gd589 O642 2.543 . S
Gd589 O643 2.413 1_655 S
Gd589 C656 2.828 . S
C590 C593 1.417 . S
C590 C595 1.431 . S
C590 C596 1.412 . S
C591 C594 1.437 . S
C591 C595 1.317 . S
C591 H610 0.929 . S
C592 C593 1.426 . S
C592 C594 1.413 . S
C592 N602 1.359 . S
C593 C590 1.417 . S
C593 C592 1.426 . S
C593 N598 1.350 . S
C594 C591 1.437 . S
C594 C592 1.413 . S
C594 C604 1.391 . S
C595 C590 1.431 . S
C595 C591 1.317 . S
C595 H606 0.930 . S
C596 C590 1.412 . S
C596 C597 1.355 . S
C596 H608 0.930 . S
C597 C596 1.355 . S
C597 C599 1.402 . S
C597 H609 0.930 . S
N598 Gd589 2.662 1_455 S
N598 C593 1.350 . S
N598 C599 1.307 . S
C599 C597 1.402 . S
C599 N598 1.307 . S
C599 H600 0.930 . S
H600 C599 0.930 . S
C601 N602 1.334 1_655 S
C601 C603 1.394 . S
C601 H605 0.930 . S
N602 Gd589 2.601 1_455 S
N602 C592 1.359 . S
N602 C601 1.334 1_455 S
C603 C601 1.394 . S
C603 C604 1.359 1_655 S
C603 H615 0.930 . S
C604 C594 1.391 . S
C604 C603 1.359 1_455 S
C604 H616 0.930 . S
H605 C601 0.930 . S
H606 C595 0.930 . S
H607 C624 0.930 . S
H608 C596 0.930 . S
H609 C597 0.930 . S
H610 C591 0.929 . S
H611 C629 0.930 . S
H612 C620 0.930 . S
H613 C621 0.930 . S
H614 C645 0.929 . S
H615 C603 0.930 . S
H616 C604 0.930 . S
H617 C646 0.930 . S
H618 C627 0.930 . S
N619 Gd588 2.655 1_655 S
N619 C623 1.350 . S
N619 C624 1.307 . S
C620 H612 0.930 . S
C620 C621 1.355 . S
C620 C622 1.412 . S
C621 H613 0.930 . S
C621 C620 1.355 . S
C621 C624 1.402 . S
C622 C620 1.412 . S
C622 C623 1.417 . S
C622 C646 1.431 . S
C623 N619 1.350 . S
C623 C622 1.417 . S
C623 C626 1.426 . S
C624 H607 0.930 . S
C624 N619 1.307 . S
C624 C621 1.402 . S
N625 Gd588 2.601 1_655 S
N625 C626 1.359 . S
N625 C629 1.334 1_655 S
C626 C623 1.426 . S
C626 N625 1.359 . S
C626 C630 1.413 . S
C627 H618 0.930 . S
C627 C628 1.333 1_455 S
C627 C629 1.394 . S
C628 C627 1.333 1_655 S
C628 C630 1.418 . S
C628 H631 0.929 . S
C629 H611 0.930 . S
C629 N625 1.334 1_455 S
C629 C627 1.394 . S
C630 C626 1.413 . S
C630 C628 1.418 . S
C630 C645 1.437 . S
H631 C628 0.929 . S
O632 Gd588 2.548 . S
O632 C647 1.258 . S
O633 Gd588 2.608 . S
O633 Gd589 2.363 1_455 S
O633 C644 1.284 . S
O634 Gd589 2.325 1_455 S
O634 C654 1.254 . S
O635 Gd588 2.433 . S
O635 C654 1.268 . S
O636 Gd588 2.548 . S
O636 C644 1.250 . S
O637 Gd588 2.411 1_655 S
O637 C647 1.252 1_655 S
O638 Gd589 2.544 . S
O638 C656 1.258 . S
O639 Gd588 2.360 1_655 S
O639 Gd589 2.605 . S
O639 C655 1.284 . S
O640 Gd588 2.320 1_655 S
O640 C663 1.254 . S
O641 Gd589 2.428 . S
O641 C663 1.268 . S
O642 Gd589 2.543 . S
O642 C655 1.250 . S
O643 Gd589 2.413 1_455 S
O643 C656 1.252 1_455 S
C644 O633 1.284 . S
C644 O636 1.250 . S
C645 H614 0.929 . S
C645 C630 1.437 . S
C645 C646 1.317 . S
C646 H617 0.930 . S
C646 C622 1.431 . S
C646 C645 1.317 . S
C647 Gd588 2.829 . S
C647 O632 1.258 . S
C647 O637 1.252 1_455 S
C647 C648 1.497 . S
C648 C647 1.497 . S
C648 C649 1.395 . S
C648 C650 1.380 . S
C649 C648 1.395 . S
C649 C652 1.398 . S
C649 H664 0.930 . S
C650 C648 1.380 . S
C650 C651 1.391 . S
C650 H665 0.930 1_455 S
C651 C650 1.391 . S
C651 C653 1.387 . S
C652 C649 1.398 . S
C652 C653 1.380 . S
C652 H666 0.930 . S
C653 C651 1.387 . S
C653 C652 1.380 . S
C653 H667 0.930 . S
C654 O634 1.254 . S
C654 O635 1.268 . S
C655 O639 1.284 . S
C655 O642 1.250 . S
C656 Gd589 2.828 . S
C656 O638 1.258 . S
C656 O643 1.252 1_655 S
C656 C657 1.497 . S
C657 C656 1.497 . S
C657 C658 1.395 . S
C657 C659 1.380 . S
C658 C657 1.395 . S
C658 C661 1.398 . S
C658 H668 0.930 . S
C659 C657 1.380 . S
C659 C660 1.391 . S
C659 H669 0.930 1_655 S
C660 C659 1.391 . S
C660 C662 1.387 . S
C661 C658 1.398 . S
C661 C662 1.380 . S
C661 H670 0.930 . S
C662 C660 1.387 . S
C662 C661 1.380 . S
C662 H671 0.930 . S
C663 O640 1.254 . S
C663 O641 1.268 . S
H664 C649 0.930 . S
H665 C650 0.930 1_655 S
H666 C652 0.930 . S
H667 C653 0.930 . S
H668 C658 0.930 . S
H669 C659 0.930 1_455 S
H670 C661 0.930 . S
H671 C662 0.930 . S
H672 C684 0.930 . S
H673 C686 0.930 . S
H674 C687 0.930 . S
H675 C691 0.959 . S
H676 C691 0.959 . S
H677 C691 0.961 . S
H678 C692 0.960 . S
H679 C692 0.961 . S
H680 C692 0.959 . S
H681 C695 0.929 . S
H682 C696 0.931 . S
H683 C698 0.930 . S
C684 H672 0.930 . S
C684 C685 1.399 . S
C684 C689 1.399 . S
C685 C684 1.399 . S
C685 C686 1.376 . S
C686 H673 0.930 . S
C686 C685 1.376 . S
C686 C687 1.388 . S
C687 H674 0.930 . S
C687 C686 1.388 . S
C687 C688 1.390 . S
C688 C687 1.390 . S
C688 C689 1.394 . S
C688 C694 1.465 . S
C689 C684 1.399 . S
C689 C688 1.394 . S
C689 C690 1.516 . S
C690 C689 1.516 . S
C690 C691 1.502 . S
C690 C692 1.561 . S
C690 C693 1.526 . S
C691 H675 0.959 . S
C691 H676 0.959 . S
C691 H677 0.961 . S
C691 C690 1.502 . S
C692 H678 0.960 . S
C692 H679 0.961 . S
C692 H680 0.959 . S
C692 C690 1.561 . S
C693 C690 1.526 . S
C693 C694 1.396 . S
C693 C698 1.390 . S
C694 C688 1.465 . S
C694 C693 1.396 . S
C694 C695 1.399 . S
C695 H681 0.929 . S
C695 C694 1.399 . S
C695 C696 1.385 . S
C696 H682 0.931 . S
C696 C695 1.385 . S
C696 C697 1.389 . S
C697 C696 1.389 . S
C697 C698 1.387 . S
C698 H683 0.930 . S
C698 C693 1.390 . S
C698 C697 1.387 . S
H699 C711 0.930 . S
H700 C713 0.930 . S
H701 C714 0.930 . S
H702 C718 0.959 . S
H703 C718 0.959 . S
H704 C718 0.961 . S
H705 C719 0.960 . S
H706 C719 0.961 . S
H707 C719 0.959 . S
H708 C722 0.929 . S
H709 C723 0.931 . S
H710 C725 0.930 . S
C711 H699 0.930 . S
C711 C712 1.399 . S
C711 C716 1.399 . S
C712 C711 1.399 . S
C712 C713 1.376 . S
C713 H700 0.930 . S
C713 C712 1.376 . S
C713 C714 1.388 . S
C714 H701 0.930 . S
C714 C713 1.388 . S
C714 C715 1.390 . S
C715 C714 1.390 . S
C715 C716 1.394 . S
C715 C721 1.465 . S
C716 C711 1.399 . S
C716 C715 1.394 . S
C716 C717 1.516 . S
C717 C716 1.516 . S
C717 C718 1.502 . S
C717 C719 1.561 . S
C717 C720 1.526 . S
C718 H702 0.959 . S
C718 H703 0.959 . S
C718 H704 0.961 . S
C718 C717 1.502 . S
C719 H705 0.960 . S
C719 H706 0.961 . S
C719 H707 0.959 . S
C719 C717 1.561 . S
C720 C717 1.526 . S
C720 C721 1.396 . S
C720 C725 1.390 . S
C721 C715 1.465 . S
C721 C720 1.396 . S
C721 C722 1.399 . S
C722 H708 0.929 . S
C722 C721 1.399 . S
C722 C723 1.385 . S
C723 H709 0.931 . S
C723 C722 1.385 . S
C723 C724 1.389 . S
C724 C723 1.389 . S
C724 C725 1.387 . S
C725 H710 0.930 . S
C725 C720 1.390 . S
C725 C724 1.387 . S
H726 C738 0.930 . S
H727 C740 0.930 . S
H728 C741 0.930 . S
H729 C745 0.959 . S
H730 C745 0.959 . S
H731 C745 0.961 . S
H732 C746 0.960 . S
H733 C746 0.961 . S
H734 C746 0.959 . S
H735 C749 0.929 . S
H736 C750 0.931 . S
H737 C752 0.930 . S
C738 H726 0.930 . S
C738 C739 1.399 . S
C738 C743 1.399 . S
C739 C738 1.399 . S
C739 C740 1.376 . S
C740 H727 0.930 . S
C740 C739 1.376 . S
C740 C741 1.388 . S
C741 H728 0.930 . S
C741 C740 1.388 . S
C741 C742 1.390 . S
C742 C741 1.390 . S
C742 C743 1.394 . S
C742 C748 1.465 . S
C743 C738 1.399 . S
C743 C742 1.394 . S
C743 C744 1.516 . S
C744 C743 1.516 . S
C744 C745 1.502 . S
C744 C746 1.561 . S
C744 C747 1.526 . S
C745 H729 0.959 . S
C745 H730 0.959 . S
C745 H731 0.961 . S
C745 C744 1.502 . S
C746 H732 0.960 . S
C746 H733 0.961 . S
C746 H734 0.959 . S
C746 C744 1.561 . S
C747 C744 1.526 . S
C747 C748 1.396 . S
C747 C752 1.390 . S
C748 C742 1.465 . S
C748 C747 1.396 . S
C748 C749 1.399 . S
C749 H735 0.929 . S
C749 C748 1.399 . S
C749 C750 1.385 . S
C750 H736 0.931 . S
C750 C749 1.385 . S
C750 C751 1.389 . S
C751 C750 1.389 . S
C751 C752 1.387 . S
C752 H737 0.930 . S
C752 C747 1.390 . S
C752 C751 1.387 . S
H753 C765 0.930 . S
H754 C767 0.930 . S
H755 C768 0.930 . S
H756 C772 0.959 . S
H757 C772 0.959 . S
H758 C772 0.961 . S
H759 C773 0.960 . S
H760 C773 0.961 . S
H761 C773 0.959 . S
H762 C776 0.929 . S
H763 C777 0.931 . S
H764 C779 0.930 . S
C765 H753 0.930 . S
C765 C766 1.399 . S
C765 C770 1.399 . S
C766 C765 1.399 . S
C766 C767 1.376 . S
C767 H754 0.930 . S
C767 C766 1.376 . S
C767 C768 1.388 . S
C768 H755 0.930 . S
C768 C767 1.388 . S
C768 C769 1.390 . S
C769 C768 1.390 . S
C769 C770 1.394 . S
C769 C775 1.465 . S
C770 C765 1.399 . S
C770 C769 1.394 . S
C770 C771 1.516 . S
C771 C770 1.516 . S
C771 C772 1.502 . S
C771 C773 1.561 . S
C771 C774 1.526 . S
C772 H756 0.959 . S
C772 H757 0.959 . S
C772 H758 0.961 . S
C772 C771 1.502 . S
C773 H759 0.960 . S
C773 H760 0.961 . S
C773 H761 0.959 . S
C773 C771 1.561 . S
C774 C771 1.526 . S
C774 C775 1.396 . S
C774 C779 1.390 . S
C775 C769 1.465 . S
C775 C774 1.396 . S
C775 C776 1.399 . S
C776 H762 0.929 . S
C776 C775 1.399 . S
C776 C777 1.385 . S
C777 H763 0.931 . S
C777 C776 1.385 . S
C777 C778 1.389 . S
C778 C777 1.389 . S
C778 C779 1.387 . S
C779 H764 0.930 . S
C779 C774 1.390 . S
C779 C778 1.387 . S
H780 C792 0.930 . S
H781 C794 0.930 . S
H782 C795 0.930 . S
H783 C799 0.959 . S
H784 C799 0.959 . S
H785 C799 0.961 . S
H786 C800 0.960 . S
H787 C800 0.961 . S
H788 C800 0.959 . S
H789 C803 0.929 . S
H790 C804 0.931 . S
H791 C806 0.930 . S
C792 H780 0.930 . S
C792 C793 1.399 . S
C792 C797 1.399 . S
C793 C792 1.399 . S
C793 C794 1.376 . S
C794 H781 0.930 . S
C794 C793 1.376 . S
C794 C795 1.388 . S
C795 H782 0.930 . S
C795 C794 1.388 . S
C795 C796 1.390 . S
C796 C795 1.390 . S
C796 C797 1.394 . S
C796 C802 1.465 . S
C797 C792 1.399 . S
C797 C796 1.394 . S
C797 C798 1.516 . S
C798 C797 1.516 . S
C798 C799 1.502 . S
C798 C800 1.561 . S
C798 C801 1.526 . S
C799 H783 0.959 . S
C799 H784 0.959 . S
C799 H785 0.961 . S
C799 C798 1.502 . S
C800 H786 0.960 . S
C800 H787 0.961 . S
C800 H788 0.959 . S
C800 C798 1.561 . S
C801 C798 1.526 . S
C801 C802 1.396 . S
C801 C806 1.390 . S
C802 C796 1.465 . S
C802 C801 1.396 . S
C802 C803 1.399 . S
C803 H789 0.929 . S
C803 C802 1.399 . S
C803 C804 1.385 . S
C804 H790 0.931 . S
C804 C803 1.385 . S
C804 C805 1.389 . S
C805 C804 1.389 . S
C805 C806 1.387 . S
C806 H791 0.930 . S
C806 C801 1.390 . S
C806 C805 1.387 . S
H807 C819 0.930 . S
H808 C821 0.930 . S
H809 C822 0.930 . S
H810 C826 0.959 . S
H811 C826 0.959 . S
H812 C826 0.961 . S
H813 C827 0.960 . S
H814 C827 0.961 . S
H815 C827 0.959 . S
H816 C830 0.929 . S
H817 C831 0.931 . S
H818 C833 0.930 . S
C819 H807 0.930 . S
C819 C820 1.399 . S
C819 C824 1.399 . S
C820 C819 1.399 . S
C820 C821 1.376 . S
C821 H808 0.930 . S
C821 C820 1.376 . S
C821 C822 1.388 . S
C822 H809 0.930 . S
C822 C821 1.388 . S
C822 C823 1.390 . S
C823 C822 1.390 . S
C823 C824 1.394 . S
C823 C829 1.465 . S
C824 C819 1.399 . S
C824 C823 1.394 . S
C824 C825 1.516 . S
C825 C824 1.516 . S
C825 C826 1.502 . S
C825 C827 1.561 . S
C825 C828 1.526 . S
C826 H810 0.959 . S
C826 H811 0.959 . S
C826 H812 0.961 . S
C826 C825 1.502 . S
C827 H813 0.960 . S
C827 H814 0.961 . S
C827 H815 0.959 . S
C827 C825 1.561 . S
C828 C825 1.526 . S
C828 C829 1.396 . S
C828 C833 1.390 . S
C829 C823 1.465 . S
C829 C828 1.396 . S
C829 C830 1.399 . S
C830 H816 0.929 . S
C830 C829 1.399 . S
C830 C831 1.385 . S
C831 H817 0.931 . S
C831 C830 1.385 . S
C831 C832 1.389 . S
C832 C831 1.389 . S
C832 C833 1.387 . S
C833 H818 0.930 . S
C833 C828 1.390 . S
C833 C832 1.387 . S
H834 C846 0.930 . S
H835 C848 0.930 . S
H836 C849 0.930 . S
H837 C853 0.959 . S
H838 C853 0.959 . S
H839 C853 0.961 . S
H840 C854 0.960 . S
H841 C854 0.961 . S
H842 C854 0.959 . S
H843 C857 0.929 . S
H844 C858 0.931 . S
H845 C860 0.930 . S
C846 H834 0.930 . S
C846 C847 1.399 . S
C846 C851 1.399 . S
C847 C846 1.399 . S
C847 C848 1.376 . S
C848 H835 0.930 . S
C848 C847 1.376 . S
C848 C849 1.388 . S
C849 H836 0.930 . S
C849 C848 1.388 . S
C849 C850 1.390 . S
C850 C849 1.390 . S
C850 C851 1.394 . S
C850 C856 1.465 . S
C851 C846 1.399 . S
C851 C850 1.394 . S
C851 C852 1.516 . S
C852 C851 1.516 . S
C852 C853 1.502 . S
C852 C854 1.561 . S
C852 C855 1.526 . S
C853 H837 0.959 . S
C853 H838 0.959 . S
C853 H839 0.961 . S
C853 C852 1.502 . S
C854 H840 0.960 . S
C854 H841 0.961 . S
C854 H842 0.959 . S
C854 C852 1.561 . S
C855 C852 1.526 . S
C855 C856 1.396 . S
C855 C860 1.390 . S
C856 C850 1.465 . S
C856 C855 1.396 . S
C856 C857 1.399 . S
C857 H843 0.929 . S
C857 C856 1.399 . S
C857 C858 1.385 . S
C858 H844 0.931 . S
C858 C857 1.385 . S
C858 C859 1.389 . S
C859 C858 1.389 . S
C859 C860 1.387 . S
C860 H845 0.930 . S
C860 C855 1.390 . S
C860 C859 1.387 . S
H861 C873 0.930 . S
H862 C875 0.930 . S
H863 C876 0.930 . S
H864 C880 0.959 . S
H865 C880 0.959 . S
H866 C880 0.961 . S
H867 C881 0.960 . S
H868 C881 0.961 1_554 S
H869 C881 0.959 . S
H870 C884 0.929 . S
H871 C885 0.931 . S
H872 C887 0.930 . S
C873 H861 0.930 . S
C873 C874 1.399 . S
C873 C878 1.399 . S
C874 C873 1.399 . S
C874 C875 1.376 . S
C875 H862 0.930 . S
C875 C874 1.376 . S
C875 C876 1.388 . S
C876 H863 0.930 . S
C876 C875 1.388 . S
C876 C877 1.390 . S
C877 C876 1.390 . S
C877 C878 1.394 . S
C877 C883 1.465 . S
C878 C873 1.399 . S
C878 C877 1.394 . S
C878 C879 1.516 . S
C879 C878 1.516 . S
C879 C880 1.502 . S
C879 C881 1.561 . S
C879 C882 1.526 . S
C880 H864 0.959 . S
C880 H865 0.959 . S
C880 H866 0.961 . S
C880 C879 1.502 . S
C881 H867 0.960 . S
C881 H868 0.961 1_556 S
C881 H869 0.959 . S
C881 C879 1.561 . S
C882 C879 1.526 . S
C882 C883 1.396 . S
C882 C887 1.390 . S
C883 C877 1.465 . S
C883 C882 1.396 . S
C883 C884 1.399 . S
C884 H870 0.929 . S
C884 C883 1.399 . S
C884 C885 1.385 . S
C885 H871 0.931 . S
C885 C884 1.385 . S
C885 C886 1.389 . S
C886 C885 1.389 . S
C886 C887 1.387 . S
C887 H872 0.930 . S
C887 C882 1.390 . S
C887 C886 1.387 . S
H888 C900 0.930 . S
H889 C902 0.930 . S
H890 C903 0.930 . S
H891 C907 0.959 . S
H892 C907 0.959 . S
H893 C907 0.961 . S
H894 C908 0.960 1_554 S
H895 C908 0.961 . S
H896 C908 0.959 . S
H897 C911 0.929 . S
H898 C912 0.931 . S
H899 C914 0.930 . S
C900 H888 0.930 . S
C900 C901 1.399 . S
C900 C905 1.399 . S
C901 C900 1.399 . S
C901 C902 1.376 . S
C902 H889 0.930 . S
C902 C901 1.376 . S
C902 C903 1.388 . S
C903 H890 0.930 . S
C903 C902 1.388 . S
C903 C904 1.390 . S
C904 C903 1.390 . S
C904 C905 1.394 . S
C904 C910 1.465 . S
C905 C900 1.399 . S
C905 C904 1.394 . S
C905 C906 1.516 . S
C906 C905 1.516 . S
C906 C907 1.502 . S
C906 C908 1.561 . S
C906 C909 1.526 . S
C907 H891 0.959 . S
C907 H892 0.959 . S
C907 H893 0.961 . S
C907 C906 1.502 . S
C908 H894 0.960 1_556 S
C908 H895 0.961 . S
C908 H896 0.959 . S
C908 C906 1.561 . S
C909 C906 1.526 . S
C909 C910 1.396 . S
C909 C914 1.390 . S
C910 C904 1.465 . S
C910 C909 1.396 . S
C910 C911 1.399 . S
C911 H897 0.929 . S
C911 C910 1.399 . S
C911 C912 1.385 . S
C912 H898 0.931 . S
C912 C911 1.385 . S
C912 C913 1.389 . S
C913 C912 1.389 . S
C913 C914 1.387 . S
C914 H899 0.930 . S
C914 C909 1.390 . S
C914 C913 1.387 . S
H915 C927 0.930 . S
H916 C929 0.930 . S
H917 C930 0.930 . S
H918 C934 0.959 . S
H919 C934 0.959 1_556 S
H920 C934 0.961 . S
H921 C935 0.960 . S
H922 C935 0.961 . S
H923 C935 0.959 . S
H924 C938 0.929 . S
H925 C939 0.931 . S
H926 C941 0.930 . S
C927 H915 0.930 . S
C927 C928 1.399 . S
C927 C932 1.399 . S
C928 C927 1.399 . S
C928 C929 1.376 . S
C929 H916 0.930 . S
C929 C928 1.376 . S
C929 C930 1.388 . S
C930 H917 0.930 . S
C930 C929 1.388 . S
C930 C931 1.390 . S
C931 C930 1.390 . S
C931 C932 1.394 . S
C931 C937 1.465 . S
C932 C927 1.399 . S
C932 C931 1.394 . S
C932 C933 1.516 . S
C933 C932 1.516 . S
C933 C934 1.502 . S
C933 C935 1.561 . S
C933 C936 1.526 . S
C934 H918 0.959 . S
C934 H919 0.959 1_554 S
C934 H920 0.961 . S
C934 C933 1.502 . S
C935 H921 0.960 . S
C935 H922 0.961 . S
C935 H923 0.959 . S
C935 C933 1.561 . S
C936 C933 1.526 . S
C936 C937 1.396 . S
C936 C941 1.390 . S
C937 C931 1.465 . S
C937 C936 1.396 . S
C937 C938 1.399 . S
C938 H924 0.929 . S
C938 C937 1.399 . S
C938 C939 1.385 . S
C939 H925 0.931 . S
C939 C938 1.385 . S
C939 C940 1.389 . S
C940 C939 1.389 . S
C940 C941 1.387 . S
C941 H926 0.930 . S
C941 C936 1.390 . S
C941 C940 1.387 . S
H942 C954 0.930 . S
H943 C956 0.930 . S
H944 C957 0.930 . S
H945 C961 0.959 . S
H946 C961 0.959 . S
H947 C961 0.961 . S
H948 C962 0.960 . S
H949 C962 0.961 . S
H950 C962 0.959 . S
H951 C965 0.929 . S
H952 C966 0.931 . S
H953 C968 0.930 . S
C954 H942 0.930 . S
C954 C955 1.399 . S
C954 C959 1.399 . S
C955 C954 1.399 . S
C955 C956 1.376 . S
C956 H943 0.930 . S
C956 C955 1.376 . S
C956 C957 1.388 . S
C957 H944 0.930 . S
C957 C956 1.388 . S
C957 C958 1.390 . S
C958 C957 1.390 . S
C958 C959 1.394 . S
C958 C964 1.465 . S
C959 C954 1.399 . S
C959 C958 1.394 . S
C959 C960 1.516 . S
C960 C959 1.516 . S
C960 C961 1.502 . S
C960 C962 1.561 . S
C960 C963 1.526 . S
C961 H945 0.959 . S
C961 H946 0.959 . S
C961 H947 0.961 . S
C961 C960 1.502 . S
C962 H948 0.960 . S
C962 H949 0.961 . S
C962 H950 0.959 . S
C962 C960 1.561 . S
C963 C960 1.526 . S
C963 C964 1.396 . S
C963 C968 1.390 . S
C964 C958 1.465 . S
C964 C963 1.396 . S
C964 C965 1.399 . S
C965 H951 0.929 . S
C965 C964 1.399 . S
C965 C966 1.385 . S
C966 H952 0.931 . S
C966 C965 1.385 . S
C966 C967 1.389 . S
C967 C966 1.389 . S
C967 C968 1.387 . S
C968 H953 0.930 . S
C968 C963 1.390 . S
C968 C967 1.387 . S
H969 C981 0.930 . S
H970 C983 0.930 . S
H971 C984 0.930 . S
H972 C988 0.959 . S
H973 C988 0.959 . S
H974 C988 0.961 . S
H975 C989 0.960 . S
H976 C989 0.961 . S
H977 C989 0.959 . S
H978 C992 0.929 . S
H979 C993 0.931 . S
H980 C995 0.930 . S
C981 H969 0.930 . S
C981 C982 1.399 . S
C981 C986 1.399 . S
C982 C981 1.399 . S
C982 C983 1.376 . S
C983 H970 0.930 . S
C983 C982 1.376 . S
C983 C984 1.388 . S
C984 H971 0.930 . S
C984 C983 1.388 . S
C984 C985 1.390 . S
C985 C984 1.390 . S
C985 C986 1.394 . S
C985 C991 1.465 . S
C986 C981 1.399 . S
C986 C985 1.394 . S
C986 C987 1.516 . S
C987 C986 1.516 . S
C987 C988 1.502 . S
C987 C989 1.561 . S
C987 C990 1.526 . S
C988 H972 0.959 . S
C988 H973 0.959 . S
C988 H974 0.961 . S
C988 C987 1.502 . S
C989 H975 0.960 . S
C989 H976 0.961 . S
C989 H977 0.959 . S
C989 C987 1.561 . S
C990 C987 1.526 . S
C990 C991 1.396 . S
C990 C995 1.390 . S
C991 C985 1.465 . S
C991 C990 1.396 . S
C991 C992 1.399 . S
C992 H978 0.929 . S
C992 C991 1.399 . S
C992 C993 1.385 . S
C993 H979 0.931 . S
C993 C992 1.385 . S
C993 C994 1.389 . S
C994 C993 1.389 . S
C994 C995 1.387 . S
C995 H980 0.930 . S
C995 C990 1.390 . S
C995 C994 1.387 . S
H996 C1008 0.930 . S
H997 C1010 0.930 . S
H998 C1011 0.930 . S
H999 C1015 0.959 . S
H1000 C1015 0.959 . S
H1001 C1015 0.961 . S
H1002 C1016 0.960 . S
H1003 C1016 0.961 . S
H1004 C1016 0.959 . S
H1005 C1019 0.929 . S
H1006 C1020 0.931 . S
H1007 C1022 0.930 . S
C1008 H996 0.930 . S
C1008 C1009 1.399 . S
C1008 C1013 1.399 . S
C1009 C1008 1.399 . S
C1009 C1010 1.376 . S
C1010 H997 0.930 . S
C1010 C1009 1.376 . S
C1010 C1011 1.388 . S
C1011 H998 0.930 . S
C1011 C1010 1.388 . S
C1011 C1012 1.390 . S
C1012 C1011 1.390 . S
C1012 C1013 1.394 . S
C1012 C1018 1.465 . S
C1013 C1008 1.399 . S
C1013 C1012 1.394 . S
C1013 C1014 1.516 . S
C1014 C1013 1.516 . S
C1014 C1015 1.502 . S
C1014 C1016 1.561 . S
C1014 C1017 1.526 . S
C1015 H999 0.959 . S
C1015 H1000 0.959 . S
C1015 H1001 0.961 . S
C1015 C1014 1.502 . S
C1016 H1002 0.960 . S
C1016 H1003 0.961 . S
C1016 H1004 0.959 . S
C1016 C1014 1.561 . S
C1017 C1014 1.526 . S
C1017 C1018 1.396 . S
C1017 C1022 1.390 . S
C1018 C1012 1.465 . S
C1018 C1017 1.396 . S
C1018 C1019 1.399 . S
C1019 H1005 0.929 . S
C1019 C1018 1.399 . S
C1019 C1020 1.385 . S
C1020 H1006 0.931 . S
C1020 C1019 1.385 . S
C1020 C1021 1.389 . S
C1021 C1020 1.389 . S
C1021 C1022 1.387 . S
C1022 H1007 0.930 . S
C1022 C1017 1.390 . S
C1022 C1021 1.387 . S
H1023 C1035 0.930 . S
H1024 C1037 0.930 . S
H1025 C1038 0.930 . S
H1026 C1042 0.959 . S
H1027 C1042 0.959 . S
H1028 C1042 0.961 . S
H1029 C1043 0.960 . S
H1030 C1043 0.961 . S
H1031 C1043 0.959 . S
H1032 C1046 0.929 . S
H1033 C1047 0.931 . S
H1034 C1049 0.930 . S
C1035 H1023 0.930 . S
C1035 C1036 1.399 . S
C1035 C1040 1.399 . S
C1036 C1035 1.399 . S
C1036 C1037 1.376 . S
C1037 H1024 0.930 . S
C1037 C1036 1.376 . S
C1037 C1038 1.388 . S
C1038 H1025 0.930 . S
C1038 C1037 1.388 . S
C1038 C1039 1.390 . S
C1039 C1038 1.390 . S
C1039 C1040 1.394 . S
C1039 C1045 1.465 . S
C1040 C1035 1.399 . S
C1040 C1039 1.394 . S
C1040 C1041 1.516 . S
C1041 C1040 1.516 . S
C1041 C1042 1.502 . S
C1041 C1043 1.561 . S
C1041 C1044 1.526 . S
C1042 H1026 0.959 . S
C1042 H1027 0.959 . S
C1042 H1028 0.961 . S
C1042 C1041 1.502 . S
C1043 H1029 0.960 . S
C1043 H1030 0.961 . S
C1043 H1031 0.959 . S
C1043 C1041 1.561 . S
C1044 C1041 1.526 . S
C1044 C1045 1.396 . S
C1044 C1049 1.390 . S
C1045 C1039 1.465 . S
C1045 C1044 1.396 . S
C1045 C1046 1.399 . S
C1046 H1032 0.929 . S
C1046 C1045 1.399 . S
C1046 C1047 1.385 . S
C1047 H1033 0.931 . S
C1047 C1046 1.385 . S
C1047 C1048 1.389 . S
C1048 C1047 1.389 . S
C1048 C1049 1.387 . S
C1049 H1034 0.930 . S
C1049 C1044 1.390 . S
C1049 C1048 1.387 . S
H1050 C1062 0.930 . S
H1051 C1064 0.930 . S
H1052 C1065 0.930 . S
H1053 C1069 0.959 . S
H1054 C1069 0.959 . S
H1055 C1069 0.961 . S
H1056 C1070 0.960 . S
H1057 C1070 0.961 . S
H1058 C1070 0.959 . S
H1059 C1073 0.929 . S
H1060 C1074 0.931 . S
H1061 C1076 0.930 . S
C1062 H1050 0.930 . S
C1062 C1063 1.399 . S
C1062 C1067 1.399 . S
C1063 C1062 1.399 . S
C1063 C1064 1.376 . S
C1064 H1051 0.930 . S
C1064 C1063 1.376 . S
C1064 C1065 1.388 . S
C1065 H1052 0.930 . S
C1065 C1064 1.388 . S
C1065 C1066 1.390 . S
C1066 C1065 1.390 . S
C1066 C1067 1.394 . S
C1066 C1072 1.465 . S
C1067 C1062 1.399 . S
C1067 C1066 1.394 . S
C1067 C1068 1.516 . S
C1068 C1067 1.516 . S
C1068 C1069 1.502 . S
C1068 C1070 1.561 . S
C1068 C1071 1.526 . S
C1069 H1053 0.959 . S
C1069 H1054 0.959 . S
C1069 H1055 0.961 . S
C1069 C1068 1.502 . S
C1070 H1056 0.960 . S
C1070 H1057 0.961 . S
C1070 H1058 0.959 . S
C1070 C1068 1.561 . S
C1071 C1068 1.526 . S
C1071 C1072 1.396 . S
C1071 C1076 1.390 . S
C1072 C1066 1.465 . S
C1072 C1071 1.396 . S
C1072 C1073 1.399 . S
C1073 H1059 0.929 . S
C1073 C1072 1.399 . S
C1073 C1074 1.385 . S
C1074 H1060 0.931 . S
C1074 C1073 1.385 . S
C1074 C1075 1.389 . S
C1075 C1074 1.389 . S
C1075 C1076 1.387 . S
C1076 H1061 0.930 . S
C1076 C1071 1.390 . S
C1076 C1075 1.387 . S
H1077 C1089 0.930 . S
H1078 C1091 0.930 . S
H1079 C1092 0.930 . S
H1080 C1096 0.959 . S
H1081 C1096 0.959 . S
H1082 C1096 0.961 . S
H1083 C1097 0.960 . S
H1084 C1097 0.961 . S
H1085 C1097 0.959 . S
H1086 C1100 0.929 . S
H1087 C1101 0.931 . S
H1088 C1103 0.930 . S
C1089 H1077 0.930 . S
C1089 C1090 1.399 . S
C1089 C1094 1.399 . S
C1090 C1089 1.399 . S
C1090 C1091 1.376 . S
C1091 H1078 0.930 . S
C1091 C1090 1.376 . S
C1091 C1092 1.388 . S
C1092 H1079 0.930 . S
C1092 C1091 1.388 . S
C1092 C1093 1.390 . S
C1093 C1092 1.390 . S
C1093 C1094 1.394 . S
C1093 C1099 1.465 . S
C1094 C1089 1.399 . S
C1094 C1093 1.394 . S
C1094 C1095 1.516 . S
C1095 C1094 1.516 . S
C1095 C1096 1.502 . S
C1095 C1097 1.561 . S
C1095 C1098 1.526 . S
C1096 H1080 0.959 . S
C1096 H1081 0.959 . S
C1096 H1082 0.961 . S
C1096 C1095 1.502 . S
C1097 H1083 0.960 . S
C1097 H1084 0.961 . S
C1097 H1085 0.959 . S
C1097 C1095 1.561 . S
C1098 C1095 1.526 . S
C1098 C1099 1.396 . S
C1098 C1103 1.390 . S
C1099 C1093 1.465 . S
C1099 C1098 1.396 . S
C1099 C1100 1.399 . S
C1100 H1086 0.929 . S
C1100 C1099 1.399 . S
C1100 C1101 1.385 . S
C1101 H1087 0.931 . S
C1101 C1100 1.385 . S
C1101 C1102 1.389 . S
C1102 C1101 1.389 . S
C1102 C1103 1.387 . S
C1103 H1088 0.930 . S
C1103 C1098 1.390 . S
C1103 C1102 1.387 . S
H1104 C1116 0.930 . S
H1105 C1118 0.930 . S
H1106 C1119 0.930 . S
H1107 C1123 0.958 1_554 S
H1108 C1123 0.942 1_554 S
H1109 C1123 0.980 . S
H1110 C1124 0.960 1_556 S
H1111 C1124 0.961 . S
H1112 C1124 0.959 . S
H1113 C1127 0.929 1_655 S
H1114 C1128 0.931 . S
H1115 C1130 0.930 . S
C1116 H1104 0.930 . S
C1116 C1117 1.399 1_545 S
C1116 C1121 1.399 . S
C1117 C1116 1.399 1_565 S
C1117 C1118 1.376 . S
C1118 H1105 0.930 . S
C1118 C1117 1.376 . S
C1118 C1119 1.388 . S
C1119 H1106 0.930 . S
C1119 C1118 1.388 . S
C1119 C1120 1.390 . S
C1120 C1119 1.390 . S
C1120 C1121 1.394 1_565 S
C1120 C1126 1.465 1_556 S
C1121 C1116 1.399 . S
C1121 C1120 1.394 1_545 S
C1121 C1122 1.520 . S
C1122 C1121 1.520 . S
C1122 C1123 1.501 1_655 S
C1122 C1124 1.561 1_556 S
C1122 C1125 1.522 1_556 S
C1123 H1107 0.958 1_556 S
C1123 H1108 0.942 1_556 S
C1123 H1109 0.980 . S
C1123 C1122 1.501 1_455 S
C1124 H1110 0.960 1_554 S
C1124 H1111 0.961 . S
C1124 H1112 0.959 . S
C1124 C1122 1.561 1_554 S
C1125 C1122 1.522 1_554 S
C1125 C1126 1.396 1_545 S
C1125 C1130 1.388 1_655 S
C1126 C1120 1.465 1_554 S
C1126 C1125 1.396 1_565 S
C1126 C1127 1.399 1_655 S
C1127 H1113 0.929 1_455 S
C1127 C1126 1.399 1_455 S
C1127 C1128 1.385 . S
C1128 H1114 0.931 . S
C1128 C1127 1.385 . S
C1128 C1129 1.389 . S
C1129 C1128 1.389 . S
C1129 C1130 1.388 1_565 S
C1130 H1115 0.930 . S
C1130 C1125 1.388 1_455 S
C1130 C1129 1.388 1_545 S
H1131 C1143 0.930 . S
H1132 C1145 0.930 . S
H1133 C1146 0.930 . S
H1134 C1150 0.959 . S
H1135 C1150 0.959 . S
H1136 C1150 0.961 . S
H1137 C1151 0.960 . S
H1138 C1151 0.961 . S
H1139 C1151 0.959 . S
H1140 C1154 0.929 . S
H1141 C1155 0.931 . S
H1142 C1157 0.930 . S
C1143 H1131 0.930 . S
C1143 C1144 1.399 . S
C1143 C1148 1.399 . S
C1144 C1143 1.399 . S
C1144 C1145 1.376 . S
C1145 H1132 0.930 . S
C1145 C1144 1.376 . S
C1145 C1146 1.388 . S
C1146 H1133 0.930 . S
C1146 C1145 1.388 . S
C1146 C1147 1.390 . S
C1147 C1146 1.390 . S
C1147 C1148 1.394 . S
C1147 C1153 1.465 . S
C1148 C1143 1.399 . S
C1148 C1147 1.394 . S
C1148 C1149 1.516 . S
C1149 C1148 1.516 . S
C1149 C1150 1.502 . S
C1149 C1151 1.561 . S
C1149 C1152 1.526 . S
C1150 H1134 0.959 . S
C1150 H1135 0.959 . S
C1150 H1136 0.961 . S
C1150 C1149 1.502 . S
C1151 H1137 0.960 . S
C1151 H1138 0.961 . S
C1151 H1139 0.959 . S
C1151 C1149 1.561 . S
C1152 C1149 1.526 . S
C1152 C1153 1.396 . S
C1152 C1157 1.390 . S
C1153 C1147 1.465 . S
C1153 C1152 1.396 . S
C1153 C1154 1.399 . S
C1154 H1140 0.929 . S
C1154 C1153 1.399 . S
C1154 C1155 1.385 . S
C1155 H1141 0.931 . S
C1155 C1154 1.385 . S
C1155 C1156 1.389 . S
C1156 C1155 1.389 . S
C1156 C1157 1.387 . S
C1157 H1142 0.930 . S
C1157 C1152 1.390 . S
C1157 C1156 1.387 . S
H1158 C1170 0.930 . S
H1159 C1172 0.930 . S
H1160 C1173 0.930 . S
H1161 C1177 0.959 . S
H1162 C1177 0.959 . S
H1163 C1177 0.961 . S
H1164 C1178 0.960 . S
H1165 C1178 0.961 . S
H1166 C1178 0.959 . S
H1167 C1181 0.929 . S
H1168 C1182 0.931 . S
H1169 C1184 0.930 . S
C1170 H1158 0.930 . S
C1170 C1171 1.417 . S
C1170 C1175 1.399 . S
C1171 C1170 1.417 . S
C1171 C1172 1.353 1_565 S
C1172 H1159 0.930 . S
C1172 C1171 1.353 1_545 S
C1172 C1173 1.388 . S
C1173 H1160 0.930 . S
C1173 C1172 1.388 . S
C1173 C1174 1.390 . S
C1174 C1173 1.390 . S
C1174 C1175 1.394 1_545 S
C1174 C1180 1.465 . S
C1175 C1170 1.399 . S
C1175 C1174 1.394 1_565 S
C1175 C1176 1.516 . S
C1176 C1175 1.516 . S
C1176 C1177 1.502 . S
C1176 C1178 1.561 . S
C1176 C1179 1.526 . S
C1177 H1161 0.959 . S
C1177 H1162 0.959 . S
C1177 H1163 0.961 . S
C1177 C1176 1.502 . S
C1178 H1164 0.960 . S
C1178 H1165 0.961 . S
C1178 H1166 0.959 . S
C1178 C1176 1.561 . S
C1179 C1176 1.526 . S
C1179 C1180 1.396 1_565 S
C1179 C1184 1.390 . S
C1180 C1174 1.465 . S
C1180 C1179 1.396 1_545 S
C1180 C1181 1.399 . S
C1181 H1167 0.929 . S
C1181 C1180 1.399 . S
C1181 C1182 1.385 . S
C1182 H1168 0.931 . S
C1182 C1181 1.385 . S
C1182 C1183 1.389 . S
C1183 C1182 1.389 . S
C1183 C1184 1.387 1_545 S
C1184 H1169 0.930 . S
C1184 C1179 1.390 . S
C1184 C1183 1.387 1_565 S
H1185 C1197 0.930 . S
H1186 C1199 0.930 . S
H1187 C1200 0.930 . S
H1188 C1204 0.959 . S
H1189 C1204 0.959 . S
H1190 C1204 0.961 . S
H1191 C1205 0.960 . S
H1192 C1205 0.961 . S
H1193 C1205 0.959 . S
H1194 C1208 0.929 . S
H1195 C1209 0.931 . S
H1196 C1211 0.930 . S
C1197 H1185 0.930 . S
C1197 C1198 1.399 . S
C1197 C1202 1.399 . S
C1198 C1197 1.399 . S
C1198 C1199 1.376 . S
C1199 H1186 0.930 . S
C1199 C1198 1.376 . S
C1199 C1200 1.388 . S
C1200 H1187 0.930 . S
C1200 C1199 1.388 . S
C1200 C1201 1.390 . S
C1201 C1200 1.390 . S
C1201 C1202 1.394 . S
C1201 C1207 1.465 . S
C1202 C1197 1.399 . S
C1202 C1201 1.394 . S
C1202 C1203 1.516 . S
C1203 C1202 1.516 . S
C1203 C1204 1.502 . S
C1203 C1205 1.561 . S
C1203 C1206 1.526 . S
C1204 H1188 0.959 . S
C1204 H1189 0.959 . S
C1204 H1190 0.961 . S
C1204 C1203 1.502 . S
C1205 H1191 0.960 . S
C1205 H1192 0.961 . S
C1205 H1193 0.959 . S
C1205 C1203 1.561 . S
C1206 C1203 1.526 . S
C1206 C1207 1.396 . S
C1206 C1211 1.390 . S
C1207 C1201 1.465 . S
C1207 C1206 1.396 . S
C1207 C1208 1.399 . S
C1208 H1194 0.929 . S
C1208 C1207 1.399 . S
C1208 C1209 1.385 . S
C1209 H1195 0.931 . S
C1209 C1208 1.385 . S
C1209 C1210 1.389 . S
C1210 C1209 1.389 . S
C1210 C1211 1.387 . S
C1211 H1196 0.930 . S
C1211 C1206 1.390 . S
C1211 C1210 1.387 . S
H1212 C1224 0.930 . S
H1213 C1226 0.930 . S
H1214 C1227 0.930 . S
H1215 C1231 0.959 . S
H1216 C1231 0.959 . S
H1217 C1231 0.961 . S
H1218 C1232 0.960 . S
H1219 C1232 0.961 . S
H1220 C1232 0.959 . S
H1221 C1235 0.929 . S
H1222 C1236 0.931 . S
H1223 C1238 0.930 . S
C1224 H1212 0.930 . S
C1224 C1225 1.399 . S
C1224 C1229 1.399 . S
C1225 C1224 1.399 . S
C1225 C1226 1.376 . S
C1226 H1213 0.930 . S
C1226 C1225 1.376 . S
C1226 C1227 1.388 . S
C1227 H1214 0.930 . S
C1227 C1226 1.388 . S
C1227 C1228 1.390 . S
C1228 C1227 1.390 . S
C1228 C1229 1.394 . S
C1228 C1234 1.465 . S
C1229 C1224 1.399 . S
C1229 C1228 1.394 . S
C1229 C1230 1.516 . S
C1230 C1229 1.516 . S
C1230 C1231 1.502 . S
C1230 C1232 1.561 . S
C1230 C1233 1.526 . S
C1231 H1215 0.959 . S
C1231 H1216 0.959 . S
C1231 H1217 0.961 . S
C1231 C1230 1.502 . S
C1232 H1218 0.960 . S
C1232 H1219 0.961 . S
C1232 H1220 0.959 . S
C1232 C1230 1.561 . S
C1233 C1230 1.526 . S
C1233 C1234 1.396 . S
C1233 C1238 1.390 . S
C1234 C1228 1.465 . S
C1234 C1233 1.396 . S
C1234 C1235 1.399 . S
C1235 H1221 0.929 . S
C1235 C1234 1.399 . S
C1235 C1236 1.385 . S
C1236 H1222 0.931 . S
C1236 C1235 1.385 . S
C1236 C1237 1.389 . S
C1237 C1236 1.389 . S
C1237 C1238 1.387 . S
C1238 H1223 0.930 . S
C1238 C1233 1.390 . S
C1238 C1237 1.387 . S
H1239 C1251 0.930 . S
H1240 C1253 0.930 . S
H1241 C1254 0.930 . S
H1242 C1258 0.959 . S
H1243 C1258 0.959 . S
H1244 C1258 0.961 . S
H1245 C1259 0.960 . S
H1246 C1259 0.961 . S
H1247 C1259 0.959 . S
H1248 C1262 0.929 . S
H1249 C1263 0.931 . S
H1250 C1265 0.930 . S
C1251 H1239 0.930 . S
C1251 C1252 1.399 . S
C1251 C1256 1.399 . S
C1252 C1251 1.399 . S
C1252 C1253 1.376 . S
C1253 H1240 0.930 . S
C1253 C1252 1.376 . S
C1253 C1254 1.388 . S
C1254 H1241 0.930 . S
C1254 C1253 1.388 . S
C1254 C1255 1.390 . S
C1255 C1254 1.390 . S
C1255 C1256 1.394 . S
C1255 C1261 1.465 . S
C1256 C1251 1.399 . S
C1256 C1255 1.394 . S
C1256 C1257 1.516 . S
C1257 C1256 1.516 . S
C1257 C1258 1.502 . S
C1257 C1259 1.561 . S
C1257 C1260 1.526 . S
C1258 H1242 0.959 . S
C1258 H1243 0.959 . S
C1258 H1244 0.961 . S
C1258 C1257 1.502 . S
C1259 H1245 0.960 . S
C1259 H1246 0.961 . S
C1259 H1247 0.959 . S
C1259 C1257 1.561 . S
C1260 C1257 1.526 . S
C1260 C1261 1.396 . S
C1260 C1265 1.390 . S
C1261 C1255 1.465 . S
C1261 C1260 1.396 . S
C1261 C1262 1.399 . S
C1262 H1248 0.929 . S
C1262 C1261 1.399 . S
C1262 C1263 1.385 . S
C1263 H1249 0.931 . S
C1263 C1262 1.385 . S
C1263 C1264 1.389 . S
C1264 C1263 1.389 . S
C1264 C1265 1.387 . S
C1265 H1250 0.930 . S
C1265 C1260 1.390 . S
C1265 C1264 1.387 . S
H1266 C1278 0.930 . S
H1267 C1280 0.930 . S
H1268 C1281 0.930 . S
H1269 C1285 0.959 . S
H1270 C1285 0.959 . S
H1271 C1285 0.961 . S
H1272 C1286 0.960 . S
H1273 C1286 0.961 . S
H1274 C1286 0.959 . S
H1275 C1289 0.929 . S
H1276 C1290 0.931 . S
H1277 C1292 0.930 . S
C1278 H1266 0.930 . S
C1278 C1279 1.399 . S
C1278 C1283 1.399 . S
C1279 C1278 1.399 . S
C1279 C1280 1.376 . S
C1280 H1267 0.930 . S
C1280 C1279 1.376 . S
C1280 C1281 1.388 . S
C1281 H1268 0.930 . S
C1281 C1280 1.388 . S
C1281 C1282 1.390 . S
C1282 C1281 1.390 . S
C1282 C1283 1.394 . S
C1282 C1288 1.465 . S
C1283 C1278 1.399 . S
C1283 C1282 1.394 . S
C1283 C1284 1.516 . S
C1284 C1283 1.516 . S
C1284 C1285 1.502 . S
C1284 C1286 1.561 . S
C1284 C1287 1.526 . S
C1285 H1269 0.959 . S
C1285 H1270 0.959 . S
C1285 H1271 0.961 . S
C1285 C1284 1.502 . S
C1286 H1272 0.960 . S
C1286 H1273 0.961 . S
C1286 H1274 0.959 . S
C1286 C1284 1.561 . S
C1287 C1284 1.526 . S
C1287 C1288 1.396 . S
C1287 C1292 1.390 . S
C1288 C1282 1.465 . S
C1288 C1287 1.396 . S
C1288 C1289 1.399 . S
C1289 H1275 0.929 . S
C1289 C1288 1.399 . S
C1289 C1290 1.385 . S
C1290 H1276 0.931 . S
C1290 C1289 1.385 . S
C1290 C1291 1.389 . S
C1291 C1290 1.389 . S
C1291 C1292 1.387 . S
C1292 H1277 0.930 . S
C1292 C1287 1.390 . S
C1292 C1291 1.387 . S
H1293 C1305 0.930 . S
H1294 C1307 0.930 . S
H1295 C1308 0.930 . S
H1296 C1312 0.959 . S
H1297 C1312 0.959 . S
H1298 C1312 0.961 1_556 S
H1299 C1313 0.960 1_456 S
H1300 C1313 0.961 1_455 S
H1301 C1313 0.959 . S
H1302 C1316 0.929 . S
H1303 C1317 0.931 . S
H1304 C1319 0.930 . S
C1305 H1293 0.930 . S
C1305 C1306 1.399 1_455 S
C1305 C1310 1.399 . S
C1306 C1305 1.399 1_655 S
C1306 C1307 1.376 . S
C1307 H1294 0.930 . S
C1307 C1306 1.376 . S
C1307 C1308 1.388 . S
C1308 H1295 0.930 . S
C1308 C1307 1.388 . S
C1308 C1309 1.390 . S
C1309 C1308 1.390 . S
C1309 C1310 1.394 1_655 S
C1309 C1315 1.465 1_556 S
C1310 C1305 1.399 . S
C1310 C1309 1.394 1_455 S
C1310 C1311 1.516 1_556 S
C1311 C1310 1.516 1_554 S
C1311 C1312 1.502 . S
C1311 C1313 1.561 1_455 S
C1311 C1314 1.526 . S
C1312 H1296 0.959 . S
C1312 H1297 0.959 . S
C1312 H1298 0.961 1_554 S
C1312 C1311 1.502 . S
C1313 H1299 0.960 1_654 S
C1313 H1300 0.961 1_655 S
C1313 H1301 0.959 . S
C1313 C1311 1.561 1_655 S
C1314 C1311 1.526 . S
C1314 C1315 1.396 1_455 S
C1314 C1319 1.390 . S
C1315 C1309 1.465 1_554 S
C1315 C1314 1.396 1_655 S
C1315 C1316 1.399 . S
C1316 H1302 0.929 . S
C1316 C1315 1.399 . S
C1316 C1317 1.385 . S
C1317 H1303 0.931 . S
C1317 C1316 1.385 . S
C1317 C1318 1.389 1_655 S
C1318 C1317 1.389 1_455 S
C1318 C1319 1.387 . S
C1319 H1304 0.930 . S
C1319 C1314 1.390 . S
C1319 C1318 1.387 . S
C685 C67 1.552 . S
C697 C319 1.580 . S
C712 C75 1.491 . S
C724 C151 1.461 . S
C739 C159 1.349 . S
C751 C243 1.356 . S
C766 C235 1.465 . S
C778 C327 1.462 . S
C793 C56 1.597 . S
C805 C476 1.558 . S
C820 C66 1.431 . S
C832 C392 1.403 . S
C847 C402 1.354 . S
C859 C234 1.320 . S
C874 C486 1.431 . S
C886 C224 1.407 . S
C901 C571 1.549 . S
C913 C487 1.592 . S
C928 C403 1.480 . S
C940 C579 1.483 . S
C955 C663 1.317 . S
C967 C411 1.348 . S
C982 C495 1.433 . S
C994 C655 1.404 . S
C1009 C308 1.620 . S
C1021 C560 1.581 . S
C1036 C570 1.471 . S
C1048 C140 1.450 . S
C1063 C150 1.313 . S
C1075 C654 1.352 . S
C1090 C318 1.493 . S
C1102 C644 1.477 . S
C1117 C63 1.460 1_565 S
C1129 C72 1.351 . S
C1144 C156 1.470 . S
C1156 C147 1.345 . S
C1171 C231 1.365 1_565 S
C1183 C240 1.451 1_545 S
C1198 C315 1.362 . S
C1210 C324 1.443 . S
C1225 C408 1.438 . S
C1237 C399 1.391 . S
C1252 C483 1.350 . S
C1264 C492 1.459 . S
C1279 C576 1.363 . S
C1291 C567 1.468 . S
C1306 C660 1.354 . S
C1318 C651 1.464 . S
