# Generated by pormake.
# Topology unl, (4)-cn, num edge types: 1
# Building blocks:
#     Node 0, Type 0, BuildingBlock: TATPOV_clean_sbu_0, # of connection points: 4
#     Node 1, Type 0, BuildingBlock: TATPOV_clean_sbu_0, # of connection points: 4
#     Node 2, Type 0, BuildingBlock: TATPOV_clean_sbu_0, # of connection points: 4
#     Node 3, Type 0, BuildingBlock: TATPOV_clean_sbu_0, # of connection points: 4
#     Node 4, Type 0, BuildingBlock: TATPOV_clean_sbu_0, # of connection points: 4
#     Node 5, Type 0, BuildingBlock: TATPOV_clean_sbu_0, # of connection points: 4
#     Node 6, Type 0, BuildingBlock: TATPOV_clean_sbu_0, # of connection points: 4
#     Node 7, Type 0, BuildingBlock: TATPOV_clean_sbu_0, # of connection points: 4
#     Node 8, Type 0, BuildingBlock: TATPOV_clean_sbu_0, # of connection points: 4
#     Node 9, Type 0, BuildingBlock: TATPOV_clean_sbu_0, # of connection points: 4
#     Node 10, Type 0, BuildingBlock: TATPOV_clean_sbu_0, # of connection points: 4
#     Node 11, Type 0, BuildingBlock: TATPOV_clean_sbu_0, # of connection points: 4
#     Node 12, Type 0, BuildingBlock: TATPOV_clean_sbu_0, # of connection points: 4
#     Node 13, Type 0, BuildingBlock: TATPOV_clean_sbu_0, # of connection points: 4
#     Node 14, Type 0, BuildingBlock: TATPOV_clean_sbu_0, # of connection points: 4
#     Node 15, Type 0, BuildingBlock: TATPOV_clean_sbu_0, # of connection points: 4
#     Node 16, Type 0, BuildingBlock: TATPOV_clean_sbu_0, # of connection points: 4
#     Node 17, Type 0, BuildingBlock: TATPOV_clean_sbu_0, # of connection points: 4
#     Node 18, Type 0, BuildingBlock: TATPOV_clean_sbu_0, # of connection points: 4
#     Node 19, Type 0, BuildingBlock: TATPOV_clean_sbu_0, # of connection points: 4
#     Node 20, Type 0, BuildingBlock: TATPOV_clean_sbu_0, # of connection points: 4
#     Node 21, Type 0, BuildingBlock: TATPOV_clean_sbu_0, # of connection points: 4
#     Node 22, Type 0, BuildingBlock: TATPOV_clean_sbu_0, # of connection points: 4
#     Node 23, Type 0, BuildingBlock: TATPOV_clean_sbu_0, # of connection points: 4
#     Node 24, Type 0, BuildingBlock: TATPOV_clean_sbu_0, # of connection points: 4
#     Node 25, Type 0, BuildingBlock: TATPOV_clean_sbu_0, # of connection points: 4
#     Node 26, Type 0, BuildingBlock: TATPOV_clean_sbu_0, # of connection points: 4
#     Node 27, Type 0, BuildingBlock: TATPOV_clean_sbu_0, # of connection points: 4
#     Node 28, Type 0, BuildingBlock: TATPOV_clean_sbu_0, # of connection points: 4
#     Node 29, Type 0, BuildingBlock: TATPOV_clean_sbu_0, # of connection points: 4
#     Node 30, Type 0, BuildingBlock: TATPOV_clean_sbu_0, # of connection points: 4
#     Node 31, Type 0, BuildingBlock: TATPOV_clean_sbu_0, # of connection points: 4
#     Node 32, Type 0, BuildingBlock: TATPOV_clean_sbu_0, # of connection points: 4
#     Node 33, Type 0, BuildingBlock: TATPOV_clean_sbu_0, # of connection points: 4
#     Node 34, Type 0, BuildingBlock: TATPOV_clean_sbu_0, # of connection points: 4
#     Node 35, Type 0, BuildingBlock: TATPOV_clean_sbu_0, # of connection points: 4
#     Edge 36, Type (0, 0), BuildingBlock: KIFKEQ_clean_linker_1, # of connection points: 2
#     Edge 37, Type (0, 0), BuildingBlock: KIFKEQ_clean_linker_1, # of connection points: 2
#     Edge 38, Type (0, 0), BuildingBlock: KIFKEQ_clean_linker_1, # of connection points: 2
#     Edge 39, Type (0, 0), BuildingBlock: KIFKEQ_clean_linker_1, # of connection points: 2
#     Edge 40, Type (0, 0), BuildingBlock: KIFKEQ_clean_linker_1, # of connection points: 2
#     Edge 41, Type (0, 0), BuildingBlock: KIFKEQ_clean_linker_1, # of connection points: 2
#     Edge 42, Type (0, 0), BuildingBlock: KIFKEQ_clean_linker_1, # of connection points: 2
#     Edge 43, Type (0, 0), BuildingBlock: KIFKEQ_clean_linker_1, # of connection points: 2
#     Edge 44, Type (0, 0), BuildingBlock: KIFKEQ_clean_linker_1, # of connection points: 2
#     Edge 45, Type (0, 0), BuildingBlock: KIFKEQ_clean_linker_1, # of connection points: 2
#     Edge 46, Type (0, 0), BuildingBlock: KIFKEQ_clean_linker_1, # of connection points: 2
#     Edge 47, Type (0, 0), BuildingBlock: KIFKEQ_clean_linker_1, # of connection points: 2
#     Edge 48, Type (0, 0), BuildingBlock: KIFKEQ_clean_linker_1, # of connection points: 2
#     Edge 49, Type (0, 0), BuildingBlock: KIFKEQ_clean_linker_1, # of connection points: 2
#     Edge 50, Type (0, 0), BuildingBlock: KIFKEQ_clean_linker_1, # of connection points: 2
#     Edge 51, Type (0, 0), BuildingBlock: KIFKEQ_clean_linker_1, # of connection points: 2
#     Edge 52, Type (0, 0), BuildingBlock: KIFKEQ_clean_linker_1, # of connection points: 2
#     Edge 53, Type (0, 0), BuildingBlock: KIFKEQ_clean_linker_1, # of connection points: 2
#     Edge 54, Type (0, 0), BuildingBlock: KIFKEQ_clean_linker_1, # of connection points: 2
#     Edge 55, Type (0, 0), BuildingBlock: KIFKEQ_clean_linker_1, # of connection points: 2
#     Edge 56, Type (0, 0), BuildingBlock: KIFKEQ_clean_linker_1, # of connection points: 2
#     Edge 57, Type (0, 0), BuildingBlock: KIFKEQ_clean_linker_1, # of connection points: 2
#     Edge 58, Type (0, 0), BuildingBlock: KIFKEQ_clean_linker_1, # of connection points: 2
#     Edge 59, Type (0, 0), BuildingBlock: KIFKEQ_clean_linker_1, # of connection points: 2
#     Edge 60, Type (0, 0), BuildingBlock: KIFKEQ_clean_linker_1, # of connection points: 2
#     Edge 61, Type (0, 0), BuildingBlock: KIFKEQ_clean_linker_1, # of connection points: 2
#     Edge 62, Type (0, 0), BuildingBlock: KIFKEQ_clean_linker_1, # of connection points: 2
#     Edge 63, Type (0, 0), BuildingBlock: KIFKEQ_clean_linker_1, # of connection points: 2
#     Edge 64, Type (0, 0), BuildingBlock: KIFKEQ_clean_linker_1, # of connection points: 2
#     Edge 65, Type (0, 0), BuildingBlock: KIFKEQ_clean_linker_1, # of connection points: 2
#     Edge 66, Type (0, 0), BuildingBlock: KIFKEQ_clean_linker_1, # of connection points: 2
#     Edge 67, Type (0, 0), BuildingBlock: KIFKEQ_clean_linker_1, # of connection points: 2
#     Edge 68, Type (0, 0), BuildingBlock: KIFKEQ_clean_linker_1, # of connection points: 2
#     Edge 69, Type (0, 0), BuildingBlock: KIFKEQ_clean_linker_1, # of connection points: 2
#     Edge 70, Type (0, 0), BuildingBlock: KIFKEQ_clean_linker_1, # of connection points: 2
#     Edge 71, Type (0, 0), BuildingBlock: KIFKEQ_clean_linker_1, # of connection points: 2
#     Edge 72, Type (0, 0), BuildingBlock: KIFKEQ_clean_linker_1, # of connection points: 2
#     Edge 73, Type (0, 0), BuildingBlock: KIFKEQ_clean_linker_1, # of connection points: 2
#     Edge 74, Type (0, 0), BuildingBlock: KIFKEQ_clean_linker_1, # of connection points: 2
#     Edge 75, Type (0, 0), BuildingBlock: KIFKEQ_clean_linker_1, # of connection points: 2
#     Edge 76, Type (0, 0), BuildingBlock: KIFKEQ_clean_linker_1, # of connection points: 2
#     Edge 77, Type (0, 0), BuildingBlock: KIFKEQ_clean_linker_1, # of connection points: 2
#     Edge 78, Type (0, 0), BuildingBlock: KIFKEQ_clean_linker_1, # of connection points: 2
#     Edge 79, Type (0, 0), BuildingBlock: KIFKEQ_clean_linker_1, # of connection points: 2
#     Edge 80, Type (0, 0), BuildingBlock: KIFKEQ_clean_linker_1, # of connection points: 2
#     Edge 81, Type (0, 0), BuildingBlock: KIFKEQ_clean_linker_1, # of connection points: 2
#     Edge 82, Type (0, 0), BuildingBlock: KIFKEQ_clean_linker_1, # of connection points: 2
#     Edge 83, Type (0, 0), BuildingBlock: KIFKEQ_clean_linker_1, # of connection points: 2
#     Edge 84, Type (0, 0), BuildingBlock: KIFKEQ_clean_linker_1, # of connection points: 2
#     Edge 85, Type (0, 0), BuildingBlock: KIFKEQ_clean_linker_1, # of connection points: 2
#     Edge 86, Type (0, 0), BuildingBlock: KIFKEQ_clean_linker_1, # of connection points: 2
#     Edge 87, Type (0, 0), BuildingBlock: KIFKEQ_clean_linker_1, # of connection points: 2
#     Edge 88, Type (0, 0), BuildingBlock: KIFKEQ_clean_linker_1, # of connection points: 2
#     Edge 89, Type (0, 0), BuildingBlock: KIFKEQ_clean_linker_1, # of connection points: 2
#     Edge 90, Type (0, 0), BuildingBlock: KIFKEQ_clean_linker_1, # of connection points: 2
#     Edge 91, Type (0, 0), BuildingBlock: KIFKEQ_clean_linker_1, # of connection points: 2
#     Edge 92, Type (0, 0), BuildingBlock: KIFKEQ_clean_linker_1, # of connection points: 2
#     Edge 93, Type (0, 0), BuildingBlock: KIFKEQ_clean_linker_1, # of connection points: 2
#     Edge 94, Type (0, 0), BuildingBlock: KIFKEQ_clean_linker_1, # of connection points: 2
#     Edge 95, Type (0, 0), BuildingBlock: KIFKEQ_clean_linker_1, # of connection points: 2
#     Edge 96, Type (0, 0), BuildingBlock: KIFKEQ_clean_linker_1, # of connection points: 2
#     Edge 97, Type (0, 0), BuildingBlock: KIFKEQ_clean_linker_1, # of connection points: 2
#     Edge 98, Type (0, 0), BuildingBlock: KIFKEQ_clean_linker_1, # of connection points: 2
#     Edge 99, Type (0, 0), BuildingBlock: KIFKEQ_clean_linker_1, # of connection points: 2
#     Edge 100, Type (0, 0), BuildingBlock: KIFKEQ_clean_linker_1, # of connection points: 2
#     Edge 101, Type (0, 0), BuildingBlock: KIFKEQ_clean_linker_1, # of connection points: 2
#     Edge 102, Type (0, 0), BuildingBlock: KIFKEQ_clean_linker_1, # of connection points: 2
#     Edge 103, Type (0, 0), BuildingBlock: KIFKEQ_clean_linker_1, # of connection points: 2
#     Edge 104, Type (0, 0), BuildingBlock: KIFKEQ_clean_linker_1, # of connection points: 2
#     Edge 105, Type (0, 0), BuildingBlock: KIFKEQ_clean_linker_1, # of connection points: 2
#     Edge 106, Type (0, 0), BuildingBlock: KIFKEQ_clean_linker_1, # of connection points: 2
#     Edge 107, Type (0, 0), BuildingBlock: KIFKEQ_clean_linker_1, # of connection points: 2
# Relax obj value: 0.149
# Max RMSD: 0.191
# Mean RMSD: 0.191
data_MOF--net-unl--node1-TATPOV_clean_sbu_0--edge1-KIFKEQ_clean_linker_1
_symmetry_space_group_name_H-M    P1
_symmetry_Int_Tables_number       1
_symmetry_cell_setting            triclinic
loop_
_symmetry_equiv_pos_as_xyz
'x, y, z'
_cell_length_a     65.974989
_cell_length_b     66.004451
_cell_length_c     38.913667
_cell_angle_alpha  90.071096
_cell_angle_beta   89.971478
_cell_angle_gamma 119.97802
loop_
_atom_site_label
_atom_site_type_symbol
_atom_site_fract_x
_atom_site_fract_y
_atom_site_fract_z
_atom_type_partial_charge
Zn0 Zn 0.153 0.06377 0.12398 0.0
Zn1 Zn 0.19741 0.09377 0.11558 0.0
O2 O 0.18759 0.10292 0.16117 0.0
O3 O 0.15082 0.07611 0.16968 0.0
O4 O 0.2325 0.11346 0.11756 0.0
O5 O 0.15677 0.03569 0.12174 0.0
O6 O 0.19319 0.06064 0.10774 0.0
C7 C 0.16904 0.09445 0.1793 0.0
C8 C 0.16478 0.09556 0.06434 0.0
O9 O 0.18592 0.10461 0.07451 0.0
O10 O 0.14859 0.07833 0.08043 0.0
C11 C 0.24298 0.13428 0.12901 0.0
O12 O 0.2307 0.14436 0.13675 0.0
C13 C 0.17672 0.03964 0.11221 0.0
Zn14 Zn 0.93387 0.09048 0.11374 0.0
Zn15 Zn 0.90151 0.10149 0.12595 0.0
O16 O 0.89677 0.07761 0.16357 0.0
O17 O 0.92376 0.0681 0.15329 0.0
O18 O 0.87893 0.11187 0.14018 0.0
O19 O 0.96 0.12326 0.11961 0.0
O20 O 0.93275 0.13306 0.12173 0.0
C21 C 0.9065 0.06563 0.17074 0.0
C22 C 0.89891 0.07708 0.05945 0.0
O23 O 0.88914 0.08447 0.08025 0.0
O24 O 0.91844 0.07886 0.06694 0.0
C25 C 0.87486 0.12516 0.12142 0.0
O26 O 0.88515 0.13173 0.09133 0.0
C27 C 0.95432 0.13892 0.12063 0.0
Zn28 Zn 0.91146 0.84656 0.11375 0.0
Zn29 Zn 0.89643 0.80153 0.12183 0.0
O30 O 0.92263 0.81754 0.15826 0.0
O31 O 0.93433 0.85496 0.15231 0.0
O32 O 0.88257 0.76705 0.13005 0.0
O33 O 0.87991 0.84272 0.12259 0.0
O34 O 0.86681 0.80492 0.12442 0.0
C35 C 0.936 0.83879 0.16704 0.0
C36 C 0.91938 0.82442 0.0545 0.0
O37 O 0.91036 0.80632 0.07355 0.0
O38 O 0.92112 0.84335 0.06538 0.0
C39 C 0.88313 0.75835 0.15891 0.0
O40 O 0.89404 0.77232 0.18488 0.0
C41 C 0.86297 0.82203 0.12511 0.0
Zn42 Zn 0.08119 0.16537 0.40048 0.0
Zn43 Zn 0.1101 0.20853 0.38537 0.0
O44 O 0.11803 0.19038 0.34932 0.0
O45 O 0.09514 0.15387 0.36536 0.0
O46 O 0.12906 0.24191 0.36993 0.0
O47 O 0.05279 0.16699 0.38806 0.0
O48 O 0.07686 0.20494 0.38628 0.0
C49 C 0.11089 0.16863 0.34578 0.0
C50 C 0.11317 0.19092 0.45554 0.0
O51 O 0.12278 0.20674 0.43273 0.0
O52 O 0.09418 0.17228 0.44905 0.0
C53 C 0.14758 0.25807 0.38365 0.0
O54 O 0.15666 0.25334 0.41037 0.0
C55 C 0.05614 0.18748 0.38522 0.0
Zn56 Zn 0.84722 0.90093 0.37656 0.0
Zn57 Zn 0.80238 0.88795 0.37102 0.0
O58 O 0.81833 0.91161 0.33169 0.0
O59 O 0.85536 0.92103 0.33455 0.0
O60 O 0.76822 0.87553 0.36262 0.0
O61 O 0.841 0.86808 0.37271 0.0
O62 O 0.80366 0.85725 0.37226 0.0
C63 C 0.83924 0.92316 0.3205 0.0
C64 C 0.82818 0.91484 0.43427 0.0
O65 O 0.80921 0.905 0.41709 0.0
O66 O 0.84621 0.91481 0.42296 0.0
C67 C 0.75948 0.88825 0.35488 0.0
O68 O 0.77316 0.91105 0.35317 0.0
C69 C 0.81981 0.85199 0.3722 0.0
Zn70 Zn 0.09675 0.93367 0.37704 0.0
Zn71 Zn 0.10604 0.89973 0.37903 0.0
O72 O 0.08549 0.8932 0.33559 0.0
O73 O 0.07768 0.92193 0.33435 0.0
O74 O 0.11684 0.87626 0.37459 0.0
O75 O 0.13009 0.95873 0.3734 0.0
O76 O 0.13787 0.93073 0.38479 0.0
C77 C 0.07539 0.90327 0.32163 0.0
C78 C 0.07749 0.90273 0.4366 0.0
O79 O 0.0855 0.89091 0.42194 0.0
O80 O 0.08109 0.92188 0.42364 0.0
C81 C 0.10392 0.85559 0.36336 0.0
O82 O 0.08184 0.84832 0.35646 0.0
C83 C 0.14477 0.95234 0.38016 0.0
Zn84 Zn 0.83253 0.89053 0.93255 0.0
Zn85 Zn 0.79183 0.88362 0.90948 0.0
O86 O 0.80942 0.91902 0.92136 0.0
O87 O 0.84392 0.92473 0.93713 0.0
O88 O 0.76147 0.878 0.88857 0.0
O89 O 0.83906 0.87802 0.89003 0.0
O90 O 0.80596 0.8736 0.86972 0.0
C91 C 0.83035 0.93271 0.93138 0.0
C92 C 0.79379 0.85797 0.97356 0.0
O93 O 0.78154 0.86154 0.95174 0.0
O94 O 0.81585 0.86852 0.97118 0.0
C95 C 0.74327 0.87237 0.90641 0.0
O96 O 0.74424 0.87079 0.93995 0.0
C97 C 0.82428 0.8719 0.86596 0.0
Zn98 Zn 0.08147 0.92357 0.90265 0.0
Zn99 Zn 0.09727 0.89675 0.88587 0.0
O100 O 0.06178 0.87456 0.89498 0.0
O101 O 0.04816 0.89889 0.89498 0.0
O102 O 0.10788 0.87492 0.86824 0.0
O103 O 0.09903 0.94696 0.86599 0.0
O104 O 0.10712 0.92064 0.84601 0.0
C105 C 0.04452 0.87819 0.89565 0.0
C106 C 0.11194 0.92187 0.9537 0.0
O107 O 0.11635 0.91122 0.93013 0.0
O108 O 0.09622 0.92727 0.94927 0.0
C109 C 0.11057 0.86076 0.88713 0.0
O110 O 0.10654 0.86018 0.92029 0.0
C111 C 0.10791 0.94026 0.84299 0.0
Zn112 Zn 0.04798 0.15961 0.91138 0.0
Zn113 Zn 0.08166 0.20134 0.89195 0.0
O114 O 0.09986 0.18481 0.90755 0.0
O115 O 0.07141 0.14915 0.91917 0.0
O116 O 0.10685 0.23245 0.87393 0.0
O117 O 0.03121 0.15331 0.86697 0.0
O118 O 0.05952 0.18758 0.84956 0.0
C119 C 0.09303 0.16381 0.91669 0.0
C120 C 0.05006 0.19724 0.95169 0.0
O121 O 0.06716 0.21027 0.93219 0.0
O122 O 0.03939 0.17523 0.94826 0.0
C123 C 0.11907 0.24951 0.89393 0.0
O124 O 0.11563 0.24661 0.92725 0.0
C125 C 0.04019 0.16879 0.84393 0.0
Zn126 Zn 0.88611 0.83835 0.57386 0.0
Zn127 Zn 0.8846 0.80008 0.59781 0.0
O128 O 0.91886 0.81983 0.5816 0.0
O129 O 0.91995 0.8514 0.56111 0.0
O130 O 0.88357 0.77195 0.61915 0.0
O131 O 0.87713 0.84598 0.61882 0.0
O132 O 0.87424 0.81335 0.63826 0.0
C133 C 0.93011 0.83984 0.56734 0.0
C134 C 0.85255 0.79602 0.53915 0.0
O135 O 0.86065 0.78608 0.55823 0.0
O136 O 0.86031 0.8178 0.54142 0.0
C137 C 0.88444 0.75635 0.60109 0.0
O138 O 0.88643 0.75886 0.56755 0.0
C139 C 0.87218 0.83139 0.64286 0.0
Zn140 Zn 0.15976 0.06303 0.57523 0.0
Zn141 Zn 0.2015 0.09021 0.59929 0.0
O142 O 0.18809 0.11248 0.59243 0.0
O143 O 0.15114 0.08788 0.58076 0.0
O144 O 0.23324 0.11127 0.61939 0.0
O145 O 0.15241 0.03934 0.61246 0.0
O146 O 0.18574 0.06479 0.63648 0.0
C147 C 0.16741 0.10854 0.58659 0.0
C148 C 0.19557 0.06739 0.52937 0.0
O149 O 0.20883 0.07806 0.55476 0.0
O150 O 0.17393 0.06056 0.53083 0.0
C151 C 0.24765 0.13008 0.60428 0.0
O152 O 0.2415 0.13561 0.57521 0.0
C153 C 0.16672 0.04521 0.63717 0.0
Zn154 Zn 0.93298 0.09139 0.56617 0.0
Zn155 Zn 0.90422 0.10536 0.58131 0.0
O156 O 0.88334 0.06938 0.57416 0.0
O157 O 0.90934 0.0578 0.57449 0.0
O158 O 0.88141 0.11541 0.5967 0.0
O159 O 0.95571 0.11028 0.60307 0.0
O160 O 0.9281 0.117 0.62142 0.0
C161 C 0.88823 0.05295 0.57412 0.0
C162 C 0.92968 0.11984 0.51348 0.0
O163 O 0.91815 0.12362 0.53636 0.0
O164 O 0.93636 0.10519 0.51898 0.0
C165 C 0.88845 0.13705 0.60064 0.0
O166 O 0.91038 0.1524 0.59374 0.0
C167 C 0.94819 0.1189 0.62527 0.0
Zn168 Zn 0.81129 0.41086 0.46295 0.0
Zn169 Zn 0.8556 0.42264 0.46805 0.0
O170 O 0.84622 0.43149 0.51432 0.0
O171 O 0.80815 0.4171 0.51208 0.0
O172 O 0.88935 0.43255 0.47703 0.0
O173 O 0.80331 0.37871 0.44801 0.0
O174 O 0.83997 0.3876 0.45463 0.0
C175 C 0.82721 0.42778 0.5284 0.0
C176 C 0.84168 0.44782 0.41657 0.0
O177 O 0.85724 0.44347 0.4277 0.0
O178 O 0.82109 0.43702 0.42856 0.0
C179 C 0.90224 0.45351 0.48717 0.0
O180 O 0.89306 0.46712 0.48981 0.0
C181 C 0.81882 0.37279 0.44692 0.0
Zn182 Zn 0.5672 0.40291 0.39647 0.0
Zn183 Zn 0.54782 0.4265 0.41872 0.0
O184 O 0.54055 0.40188 0.45685 0.0
O185 O 0.556 0.38139 0.43675 0.0
O186 O 0.53655 0.44717 0.43858 0.0
O187 O 0.5995 0.43014 0.39727 0.0
O188 O 0.58239 0.45092 0.40668 0.0
C189 C 0.54463 0.38501 0.45974 0.0
C190 C 0.53023 0.4002 0.3525 0.0
O191 O 0.52699 0.41123 0.37671 0.0
O192 O 0.54677 0.3957 0.3541 0.0
C193 C 0.51648 0.43937 0.45208 0.0
O194 O 0.50202 0.41668 0.45297 0.0
C195 C 0.60078 0.44978 0.40048 0.0
Zn196 Zn 0.58121 0.16063 0.41366 0.0
Zn197 Zn 0.56424 0.11727 0.4327 0.0
O198 O 0.59206 0.13607 0.46591 0.0
O199 O 0.60693 0.17245 0.44837 0.0
O200 O 0.54949 0.08478 0.45181 0.0
O201 O 0.55185 0.16095 0.42481 0.0
O202 O 0.53587 0.12295 0.43191 0.0
C203 C 0.60752 0.15766 0.46832 0.0
C204 C 0.58355 0.13039 0.36109 0.0
O205 O 0.57592 0.1151 0.38483 0.0
O206 O 0.58606 0.15046 0.36654 0.0
C207 C 0.53466 0.06734 0.43442 0.0
O208 O 0.52968 0.07066 0.40297 0.0
C209 C 0.534 0.14123 0.43026 0.0
Zn210 Zn 0.7762 0.51967 0.77033 0.0
Zn211 Zn 0.80141 0.55842 0.73987 0.0
O212 O 0.80644 0.53508 0.71075 0.0
O213 O 0.78999 0.50366 0.7432 0.0
O214 O 0.81915 0.58859 0.71375 0.0
O215 O 0.74627 0.51707 0.75466 0.0
O216 O 0.76788 0.55412 0.74055 0.0
C217 C 0.80186 0.51423 0.71695 0.0
C218 C 0.80982 0.5536 0.81523 0.0
O219 O 0.81781 0.56435 0.78695 0.0
O220 O 0.79037 0.53473 0.81583 0.0
C221 C 0.83932 0.60543 0.72133 0.0
O222 O 0.85045 0.60366 0.7481 0.0
C223 C 0.74786 0.53597 0.74452 0.0
Zn224 Zn 0.50395 0.26323 0.71402 0.0
Zn225 Zn 0.45787 0.2394 0.71189 0.0
O226 O 0.46958 0.25698 0.66543 0.0
O227 O 0.50774 0.2716 0.6644 0.0
O228 O 0.42334 0.21989 0.70353 0.0
O229 O 0.50565 0.23522 0.72941 0.0
O230 O 0.46716 0.21524 0.728 0.0
C231 C 0.48914 0.26802 0.64984 0.0
C232 C 0.47977 0.27953 0.76047 0.0
O233 O 0.46105 0.26158 0.75055 0.0
O234 O 0.49943 0.28417 0.74812 0.0
C235 C 0.41208 0.22971 0.69319 0.0
O236 O 0.42321 0.25256 0.68958 0.0
C237 C 0.48667 0.21625 0.73376 0.0
Zn238 Zn 0.73991 0.24603 0.70354 0.0
Zn239 Zn 0.76638 0.22674 0.70298 0.0
O240 O 0.7478 0.21815 0.65674 0.0
O241 O 0.73039 0.23916 0.6547 0.0
O242 O 0.78763 0.2133 0.69584 0.0
O243 O 0.76676 0.2773 0.71575 0.0
O244 O 0.78934 0.26154 0.71599 0.0
C245 C 0.73526 0.22483 0.64085 0.0
C246 C 0.72684 0.2083 0.75342 0.0
O247 O 0.74527 0.20844 0.74334 0.0
O248 O 0.7207 0.22188 0.7399 0.0
C249 C 0.77944 0.19306 0.68266 0.0
O250 O 0.75699 0.18089 0.67551 0.0
C251 C 0.78667 0.27927 0.71982 0.0
Zn252 Zn 0.49668 0.23948 0.25234 0.0
Zn253 Zn 0.45354 0.21382 0.23249 0.0
O254 O 0.46005 0.24823 0.23233 0.0
O255 O 0.49772 0.26945 0.24292 0.0
O256 O 0.42068 0.19672 0.21389 0.0
O257 O 0.50838 0.22634 0.21647 0.0
O258 O 0.47206 0.20503 0.19827 0.0
C259 C 0.47847 0.26817 0.23555 0.0
C260 C 0.46712 0.20668 0.30401 0.0
O261 O 0.45169 0.19954 0.28037 0.0
O262 O 0.48722 0.22421 0.29883 0.0
C263 C 0.40527 0.20041 0.22739 0.0
O264 O 0.4109 0.21413 0.25443 0.0
C265 C 0.49372 0.21142 0.19582 0.0
Zn266 Zn 0.72969 0.23858 0.22587 0.0
Zn267 Zn 0.75907 0.22359 0.21461 0.0
O268 O 0.72591 0.19384 0.2164 0.0
O269 O 0.70173 0.20766 0.21574 0.0
O270 O 0.7799 0.21067 0.20165 0.0
O271 O 0.74318 0.26216 0.18817 0.0
O272 O 0.7668 0.24845 0.17691 0.0
C273 C 0.70514 0.19047 0.21493 0.0
C274 C 0.76149 0.24647 0.28256 0.0
O275 O 0.77107 0.23904 0.2615 0.0
O276 O 0.74303 0.24671 0.27431 0.0
C277 C 0.77614 0.19087 0.2122 0.0
O278 O 0.7586 0.17873 0.23325 0.0
C279 C 0.75935 0.26251 0.17031 0.0
Zn280 Zn 0.75154 0.4915 0.20667 0.0
Zn281 Zn 0.77495 0.53747 0.2089 0.0
O282 O 0.7987 0.5277 0.2249 0.0
O283 O 0.77898 0.48926 0.22379 0.0
O284 O 0.79466 0.57233 0.20535 0.0
O285 O 0.74529 0.49017 0.15637 0.0
O286 O 0.75898 0.52804 0.16103 0.0
C287 C 0.79774 0.50815 0.22984 0.0
C288 C 0.73282 0.51308 0.25362 0.0
O289 O 0.75114 0.53221 0.2461 0.0
O290 O 0.72881 0.49405 0.23965 0.0
C291 C 0.78562 0.58423 0.19478 0.0
O292 O 0.76326 0.57342 0.1869 0.0
C293 C 0.74878 0.50922 0.14351 0.0
Zn294 Zn 0.58596 0.17404 0.95339 0.0
Zn295 Zn 0.56096 0.12787 0.95171 0.0
O296 O 0.59425 0.13555 0.93729 0.0
O297 O 0.61503 0.17397 0.93856 0.0
O298 O 0.54356 0.09307 0.95868 0.0
O299 O 0.5802 0.17641 0.00321 0.0
O300 O 0.55469 0.13889 -0.0017 0.0
C301 C 0.61365 0.15443 0.933 0.0
C302 C 0.54662 0.15376 0.90419 0.0
O303 O 0.54419 0.13407 0.9128 0.0
O304 O 0.56214 0.17248 0.91831 0.0
C305 C 0.5481 0.0786 0.94397 0.0
O306 O 0.5648 0.08612 0.92082 0.0
C307 C 0.56373 0.15778 0.0157 0.0
Zn308 Zn 0.81655 0.41349 0.94126 0.0
Zn309 Zn 0.86187 0.43053 0.95081 0.0
O310 O 0.85711 0.45934 0.94955 0.0
O311 O 0.81915 0.44481 0.94489 0.0
O312 O 0.89612 0.44636 0.9615 0.0
O313 O 0.80915 0.39376 0.98349 0.0
O314 O 0.84683 0.40675 0.99033 0.0
C315 C 0.83947 0.46231 0.94784 0.0
C316 C 0.83978 0.40333 0.88564 0.0
O317 O 0.85795 0.41407 0.9044 0.0
O318 O 0.82053 0.40138 0.89534 0.0
C319 C 0.9093 0.43761 0.9579 0.0
O320 O 0.90051 0.41623 0.94587 0.0
C321 C 0.82569 0.39374 -0.00014 0.0
Zn322 Zn 0.60176 0.42823 0.90596 0.0
Zn323 Zn 0.58538 0.45561 0.92281 0.0
O324 O 0.55675 0.42215 0.91697 0.0
O325 O 0.57123 0.39877 0.9108 0.0
O326 O 0.56992 0.47324 0.94021 0.0
O327 O 0.6244 0.43924 0.94493 0.0
O328 O 0.61075 0.4624 0.95959 0.0
C329 C 0.55374 0.4016 0.9137 0.0
C330 C 0.60971 0.46389 0.85482 0.0
O331 O 0.60056 0.47101 0.87713 0.0
O332 O 0.61115 0.44573 0.86058 0.0
C333 C 0.55157 0.47062 0.92546 0.0
O334 O 0.54389 0.45745 0.89782 0.0
C335 C 0.62482 0.45472 0.96455 0.0
Zn336 Zn 0.49271 0.75843 0.77318 0.0
Zn337 Zn 0.53844 0.78096 0.77963 0.0
O338 O 0.52438 0.78628 0.82439 0.0
O339 O 0.48631 0.76244 0.82182 0.0
O340 O 0.57228 0.79508 0.79309 0.0
O341 O 0.49151 0.72878 0.7589 0.0
O342 O 0.5299 0.74769 0.76316 0.0
C343 C 0.50413 0.77741 0.83799 0.0
C344 C 0.51854 0.79898 0.7274 0.0
O345 O 0.53699 0.80017 0.73959 0.0
O346 O 0.4985 0.78375 0.73825 0.0
C347 C 0.5876 0.8166 0.79046 0.0
O348 O 0.58187 0.83111 0.77631 0.0
C349 C 0.51075 0.7291 0.75614 0.0
Zn350 Zn 0.23142 0.72953 0.75331 0.0
Zn351 Zn 0.2051 0.74667 0.77045 0.0
O352 O 0.19963 0.72222 0.80841 0.0
O353 O 0.22172 0.70753 0.79264 0.0
O354 O 0.18821 0.7625 0.78983 0.0
O355 O 0.26108 0.7597 0.75695 0.0
O356 O 0.23851 0.77527 0.76154 0.0
C357 C 0.20724 0.70808 0.81331 0.0
C358 C 0.19518 0.72113 0.70325 0.0
O359 O 0.18831 0.73041 0.72574 0.0
O360 O 0.21344 0.71979 0.70847 0.0
C361 C 0.1696 0.76119 0.77814 0.0
O362 O 0.15959 0.74839 0.75076 0.0
C363 C 0.2588 0.77756 0.75844 0.0
Zn364 Zn 0.26894 0.50646 0.79114 0.0
Zn365 Zn 0.24222 0.46075 0.79491 0.0
O366 O 0.26297 0.47119 0.83883 0.0
O367 O 0.28086 0.5097 0.83892 0.0
O368 O 0.22092 0.42654 0.80458 0.0
O369 O 0.2414 0.51049 0.78157 0.0
O370 O 0.21871 0.47243 0.78664 0.0
C371 C 0.2764 0.49077 0.85325 0.0
C372 C 0.27846 0.4806 0.73902 0.0
O373 O 0.26054 0.46269 0.75112 0.0
O374 O 0.28586 0.50058 0.75245 0.0
C375 C 0.22604 0.41065 0.79888 0.0
O376 O 0.24607 0.41619 0.78415 0.0
C377 C 0.22118 0.4926 0.78129 0.0
Zn378 Zn 0.40899 0.82616 0.07947 0.0
Zn379 Zn 0.43256 0.87031 0.06147 0.0
O380 O 0.44226 0.85338 0.02591 0.0
O381 O 0.42276 0.8164 0.04157 0.0
O382 O 0.44901 0.90333 0.04408 0.0
O383 O 0.37841 0.82452 0.07194 0.0
O384 O 0.39778 0.86249 0.0629 0.0
C385 C 0.43716 0.83219 0.0217 0.0
C386 C 0.44176 0.8564 0.13129 0.0
O387 O 0.44746 0.8722 0.10856 0.0
O388 O 0.42525 0.83578 0.12554 0.0
C389 C 0.47037 0.91357 0.03506 0.0
O390 O 0.48224 0.90255 0.0382 0.0
C391 C 0.37844 0.84337 0.0661 0.0
Zn392 Zn 0.17127 0.56695 0.04755 0.0
Zn393 Zn 0.12558 0.54492 0.04248 0.0
O394 O 0.13768 0.56641 -0.00043 0.0
O395 O 0.17607 0.58452 0.00388 0.0
O396 O 0.09098 0.52602 0.03394 0.0
O397 O 0.17272 0.53755 0.04672 0.0
O398 O 0.13434 0.51904 0.05075 0.0
C399 C 0.15789 0.58103 0.98805 0.0
C400 C 0.1474 0.57704 0.10274 0.0
O401 O 0.12893 0.56402 0.08562 0.0
O402 O 0.16704 0.58017 0.09257 0.0
C403 C 0.07981 0.53552 0.02206 0.0
O404 O 0.09101 0.55818 0.01646 0.0
C405 C 0.15351 0.51873 0.05024 0.0
Zn406 Zn 0.4226 0.58588 0.09021 0.0
Zn407 Zn 0.44448 0.56505 0.06853 0.0
O408 O 0.41627 0.55314 0.0353 0.0
O409 O 0.39627 0.56859 0.05711 0.0
O410 O 0.46299 0.55101 0.0494 0.0
O411 O 0.44829 0.61742 0.0775 0.0
O412 O 0.46932 0.60066 0.06773 0.0
C413 C 0.3983 0.55562 0.03507 0.0
C414 C 0.426 0.55663 0.14149 0.0
O415 O 0.43392 0.55019 0.11648 0.0
O416 O 0.42137 0.57292 0.13755 0.0
C417 C 0.45349 0.53029 0.03767 0.0
O418 O 0.43061 0.51702 0.0389 0.0
C419 C 0.4677 0.61908 0.07006 0.0
Zn420 Zn 0.16063 0.57028 0.57406 0.0
Zn421 Zn 0.11832 0.54046 0.55884 0.0
O422 O 0.11953 0.57252 0.56452 0.0
O423 O 0.15718 0.59802 0.56449 0.0
O424 O 0.08466 0.51955 0.54543 0.0
O425 O 0.17326 0.55869 0.53719 0.0
O426 O 0.13713 0.53663 0.519 0.0
C427 C 0.13624 0.59365 0.56403 0.0
C428 C 0.13759 0.5366 0.62732 0.0
O429 O 0.12203 0.52659 0.6042 0.0
O430 O 0.15515 0.55661 0.62191 0.0
C431 C 0.06915 0.51913 0.56528 0.0
O432 O 0.07579 0.53121 0.59401 0.0
C433 C 0.15904 0.54451 0.51537 0.0
Zn434 Zn 0.41237 0.59577 0.53271 0.0
Zn435 Zn 0.43574 0.57294 0.53032 0.0
O436 O 0.40221 0.54873 0.54516 0.0
O437 O 0.38252 0.56743 0.54787 0.0
O438 O 0.4492 0.55202 0.52149 0.0
O439 O 0.41788 0.60471 0.48301 0.0
O440 O 0.44266 0.59158 0.48484 0.0
C441 C 0.38329 0.54878 0.55148 0.0
C442 C 0.4526 0.61215 0.58026 0.0
O443 O 0.454 0.59458 0.56997 0.0
O444 O 0.43742 0.61648 0.56769 0.0
C445 C 0.46853 0.55466 0.53235 0.0
O446 O 0.48214 0.57289 0.55145 0.0
C447 C 0.4339 0.60234 0.46911 0.0
Zn448 Zn 0.39556 0.81234 0.5532 0.0
Zn449 Zn 0.41256 0.85741 0.54098 0.0
O450 O 0.44101 0.85322 0.55176 0.0
O451 O 0.4273 0.81533 0.55451 0.0
O452 O 0.4278 0.89118 0.52689 0.0
O453 O 0.37682 0.80299 0.50965 0.0
O454 O 0.39154 0.8405 0.49919 0.0
C455 C 0.44444 0.83599 0.55549 0.0
C456 C 0.38291 0.83717 0.60391 0.0
O457 O 0.39351 0.85469 0.58398 0.0
O458 O 0.38212 0.81802 0.59684 0.0
C459 C 0.44665 0.90669 0.54081 0.0
O460 O 0.45574 0.90075 0.56619 0.0
C461 C 0.37835 0.81919 0.49055 0.0
Zn462 Zn 0.2607 0.51334 0.26044 0.0
Zn463 Zn 0.24275 0.46983 0.2797 0.0
O464 O 0.27851 0.4823 0.2773 0.0
O465 O 0.29337 0.51992 0.26796 0.0
O466 O 0.23065 0.43705 0.29623 0.0
O467 O 0.24389 0.51979 0.29795 0.0
O468 O 0.2307 0.48389 0.31651 0.0
C469 C 0.29626 0.50267 0.27364 0.0
C470 C 0.23051 0.48053 0.20936 0.0
O471 O 0.22655 0.46558 0.23286 0.0
O472 O 0.2453 0.50192 0.21425 0.0
C473 C 0.20892 0.42337 0.30105 0.0
O474 O 0.19423 0.4309 0.29486 0.0
C475 C 0.23214 0.50382 0.3195 0.0
Zn476 Zn 0.50364 0.75382 0.23342 0.0
Zn477 Zn 0.54575 0.77275 0.26032 0.0
O478 O 0.53817 0.79983 0.25768 0.0
O479 O 0.50116 0.7822 0.24203 0.0
O480 O 0.57768 0.78885 0.28169 0.0
O481 O 0.49118 0.72836 0.26895 0.0
O482 O 0.52611 0.74504 0.29295 0.0
C483 C 0.51951 0.80043 0.25156 0.0
C484 C 0.53782 0.7532 0.1879 0.0
O485 O 0.55094 0.76093 0.21425 0.0
O486 O 0.51724 0.75002 0.18873 0.0
C487 C 0.59355 0.8075 0.26785 0.0
O488 O 0.58857 0.81531 0.23991 0.0
C489 C 0.50475 0.72878 0.29226 0.0
Zn490 Zn 0.24704 0.74802 0.22673 0.0
Zn491 Zn 0.22313 0.76475 0.25514 0.0
O492 O 0.19848 0.72986 0.24499 0.0
O493 O 0.22091 0.71526 0.2307 0.0
O494 O 0.20409 0.77676 0.2787 0.0
O495 O 0.27138 0.76084 0.26368 0.0
O496 O 0.24873 0.77108 0.29115 0.0
C497 C 0.20092 0.71238 0.2375 0.0
C498 C 0.24621 0.78347 0.18592 0.0
O499 O 0.23685 0.78623 0.21281 0.0
O500 O 0.25069 0.76696 0.18422 0.0
C501 C 0.1858 0.77481 0.2647 0.0
O502 O 0.17945 0.76489 0.23432 0.0
C503 C 0.26718 0.76941 0.28998 0.0
H504 H 0.19996 0.03776 0.0557 0.0
H505 H 0.15742 0.99629 0.14053 0.0
H506 H 0.18985 0.00229 0.02373 0.0
H507 H 0.14827 0.96063 0.10944 0.0
H508 H 0.09695 0.92404 0.01724 0.0
H509 H 0.1206 0.94824 0.0642 0.0
H510 H 0.18343 0.96409 0.00802 0.0
H511 H 0.15921 0.93961 0.96035 0.0
C512 C 0.18953 0.02103 0.06828 0.0
C513 C 0.17893 0.01967 0.10011 0.0
C514 C 0.18373 0.00059 0.04996 0.0
C515 C 0.16752 0.97855 0.06353 0.0
C516 C 0.16017 0.97734 0.0978 0.0
C517 C 0.16551 0.99774 0.11573 0.0
C518 C 0.11581 0.93201 0.01543 0.0
C519 C 0.12628 0.93032 0.98507 0.0
C520 C 0.12949 0.94581 0.04256 0.0
C521 C 0.15405 0.95848 0.03982 0.0
C522 C 0.16457 0.95481 0.01076 0.0
C523 C 0.15074 0.94069 0.98359 0.0
H524 H 0.94865 0.17421 0.09384 0.0
H525 H 0.00135 0.15856 0.12902 0.0
H526 H 0.97787 0.20593 0.05867 0.0
H527 H 0.03016 0.18936 0.09332 0.0
H528 H 0.07331 0.22206 0.00879 0.0
H529 H 0.05413 0.22391 0.06171 0.0
H530 H 0.9883 0.19438 0.00704 0.0
H531 H 0.00755 0.19297 0.95506 0.0
C532 C 0.96667 0.17818 0.09529 0.0
C533 C 0.97254 0.16324 0.11284 0.0
C534 C 0.98344 0.19632 0.07496 0.0
C535 C 0.00609 0.19943 0.07166 0.0
C536 C 0.01285 0.18734 0.09449 0.0
C537 C 0.99618 0.16939 0.11489 0.0
C538 C 0.05501 0.21717 0.00798 0.0
C539 C 0.0417 0.20703 0.97831 0.0
C540 C 0.04396 0.21808 0.03826 0.0
C541 C 0.01949 0.20863 0.03907 0.0
C542 C 0.0071 0.20181 0.0078 0.0
C543 C 0.01808 0.20082 0.97782 0.0
H544 H 0.7774 0.86352 0.03493 0.0
H545 H 0.78848 0.81501 0.97508 0.0
H546 H 0.77915 0.84444 0.08771 0.0
H547 H 0.79132 0.79658 0.02694 0.0
H548 H 0.82282 0.78164 0.10707 0.0
H549 H 0.78855 0.7802 0.08084 0.0
H550 H 0.81542 0.85272 0.10846 0.0
H551 H 0.84864 0.85367 0.13563 0.0
C552 C 0.77891 0.84795 0.03308 0.0
C553 C 0.78311 0.84081 0.00124 0.0
C554 C 0.78024 0.83717 0.06329 0.0
C555 C 0.78656 0.81968 0.06187 0.0
C556 C 0.7867 0.8101 0.02953 0.0
C557 C 0.7851 0.8207 -0.00051 0.0
C558 C 0.82078 0.79691 0.10887 0.0
C559 C 0.83892 0.81811 0.12196 0.0
C560 C 0.80118 0.79614 0.09363 0.0
C561 C 0.79969 0.81665 0.09082 0.0
C562 C 0.81588 0.83657 0.10936 0.0
C563 C 0.83527 0.83725 0.12478 0.0
H564 H 0.94354 0.16626 0.5059 0.0
H565 H 0.93575 0.10596 0.45104 0.0
H566 H 0.96971 0.19181 0.46081 0.0
H567 H 0.96183 0.13089 0.40685 0.0
H568 H 0.01769 0.16807 0.34431 0.0
H569 H 0.9787 0.15851 0.3634 0.0
H570 H 0.00913 0.20142 0.45374 0.0
H571 H 0.04792 0.21219 0.43305 0.0
C572 C 0.94666 0.15844 0.4835 0.0
C573 C 0.93818 0.13425 0.48221 0.0
C574 C 0.96179 0.17305 0.45779 0.0
C575 C 0.96853 0.16359 0.43053 0.0
C576 C 0.95726 0.13908 0.42719 0.0
C577 C 0.94236 0.12462 0.45281 0.0
C578 C 0.01599 0.17652 0.36714 0.0
C579 C 0.03559 0.19048 0.38762 0.0
C580 C 0.99366 0.17088 0.37834 0.0
C581 C 0.99061 0.17817 0.41102 0.0
C582 C 0.0106 0.19518 0.42864 0.0
C583 C 0.03298 0.2014 0.41683 0.0
H584 H 0.84924 0.8344 0.36676 0.0
H585 H 0.77792 0.81431 0.39217 0.0
H586 H 0.84605 0.8022 0.39998 0.0
H587 H 0.77425 0.78109 0.42462 0.0
H588 H 0.81062 0.79301 0.53323 0.0
H589 H 0.79132 0.78969 0.47926 0.0
H590 H 0.83589 0.76762 0.42985 0.0
H591 H 0.85558 0.77154 0.48476 0.0
C592 C 0.83247 0.82243 0.37823 0.0
C593 C 0.8143 0.82766 0.37857 0.0
C594 C 0.83048 0.8036 0.39713 0.0
C595 C 0.81025 0.78971 0.41678 0.0
C596 C 0.79046 0.79211 0.41109 0.0
C597 C 0.79253 0.81116 0.39238 0.0
C598 C 0.81541 0.78623 0.51119 0.0
C599 C 0.83489 0.78314 0.5127 0.0
C600 C 0.80425 0.78417 0.47997 0.0
C601 C 0.81279 0.77948 0.44957 0.0
C602 C 0.82944 0.77211 0.45253 0.0
C603 C 0.84062 0.77415 0.48401 0.0
H604 H 0.17276 0.99336 0.34729 0.0
H605 H 0.16936 0.95299 0.43633 0.0
H606 H 0.20136 0.02908 0.37626 0.0
H607 H 0.19668 0.98858 0.4662 0.0
H608 H 0.22576 0.0503 0.52851 0.0
H609 H 0.22828 0.02628 0.48246 0.0
H610 H 0.18588 0.04371 0.41774 0.0
H611 H 0.18368 0.06742 0.4632 0.0
C612 C 0.17898 0.99205 0.3725 0.0
C613 C 0.16849 0.97061 0.39 0.0
C614 C 0.19522 0.01252 0.38926 0.0
C615 C 0.20042 0.01187 0.42417 0.0
C616 C 0.19294 0.98991 0.43948 0.0
C617 C 0.17716 0.96936 0.42234 0.0
C618 C 0.21796 0.04975 0.50378 0.0
C619 C 0.20415 0.06025 0.49942 0.0
C620 C 0.21926 0.03589 0.4775 0.0
C621 C 0.20688 0.03256 0.44656 0.0
C622 C 0.19576 0.04576 0.44096 0.0
C623 C 0.19429 0.05931 0.46719 0.0
H624 H 0.85221 0.0465 0.05404 0.0
H625 H 0.917 0.07531 -0.00251 0.0
H626 H 0.8337 0.01472 0.01259 0.0
H627 H 0.8982 0.04445 0.95462 0.0
H628 H 0.87538 0.96675 0.94063 0.0
H629 H 0.88974 0.0059 0.96165 0.0
H630 H 0.81962 0.99549 0.95861 0.0
H631 H 0.80496 0.95535 0.93834 0.0
C632 C 0.86217 0.04661 0.03181 0.0
C633 C 0.88613 0.06299 0.02927 0.0
C634 C 0.85154 0.0284 0.0079 0.0
C635 C 0.86465 0.02657 0.98075 0.0
C636 C 0.8878 0.04484 0.97589 0.0
C637 C 0.89856 0.06264 0.00025 0.0
C638 C 0.86297 0.97281 0.94393 0.0
C639 C 0.83895 0.95776 0.93841 0.0
C640 C 0.8713 0.99554 0.95561 0.0
C641 C 0.85588 0.00402 0.96198 0.0
C642 C 0.83196 0.98945 0.95437 0.0
C643 C 0.82356 0.96651 0.9426 0.0
H644 H 0.92947 0.79155 0.02921 0.0
H645 H 0.93382 0.8574 0.00442 0.0
H646 H 0.95392 0.79581 0.9794 0.0
H647 H 0.95846 0.86195 0.95575 0.0
H648 H 0.00341 0.87295 0.87229 0.0
H649 H 0.96572 0.85122 0.90119 0.0
H650 H 0.99508 0.82106 0.96972 0.0
H651 H 0.03225 0.84182 0.93947 0.0
C652 C 0.93519 0.80666 0.01273 0.0
C653 C 0.93007 0.82436 0.02109 0.0
C654 C 0.94929 0.80914 0.98429 0.0
C655 C 0.95839 0.82931 0.96365 0.0
C656 C 0.95162 0.84602 0.97063 0.0
C657 C 0.93765 0.84356 -0.00107 0.0
C658 C 0.00141 0.86082 0.89253 0.0
C659 C 0.02075 0.85932 0.90411 0.0
C660 C 0.97991 0.84853 0.90931 0.0
C661 C 0.97759 0.83507 0.93861 0.0
C662 C 0.99616 0.83129 0.94734 0.0
C663 C 0.01756 0.84322 0.93001 0.0
H664 H 0.09007 0.12212 0.9042 0.0
H665 H 0.13326 0.18861 0.95389 0.0
H666 H 0.11214 0.10627 0.93214 0.0
H667 H 0.15473 0.17244 0.98355 0.0
H668 H 0.19228 0.1371 0.03021 0.0
H669 H 0.17962 0.15498 0.98621 0.0
H670 H 0.10993 0.0948 0.99006 0.0
H671 H 0.12258 0.07694 0.03265 0.0
C672 C 0.10461 0.13345 0.92071 0.0
C673 C 0.10982 0.15645 0.92728 0.0
C674 C 0.11716 0.12435 0.93694 0.0
C675 C 0.13478 0.13785 0.9609 0.0
C676 C 0.1413 0.16153 0.96524 0.0
C677 C 0.12899 0.17082 0.94833 0.0
C678 C 0.17439 0.12758 0.02109 0.0
C679 C 0.15841 0.10565 0.0351 0.0
C680 C 0.1671 0.13788 -0.00394 0.0
C681 C 0.14376 0.12635 0.98446 0.0
C682 C 0.12815 0.10407 -0.00228 0.0
C683 C 0.13537 0.09387 0.02255 0.0
H684 H 0.95724 0.81894 0.57051 0.0
H685 H 0.95873 0.88245 0.53901 0.0
H686 H 0.9968 0.83411 0.54763 0.0
H687 H 0.99748 0.89713 0.51556 0.0
H688 H 0.0701 0.92691 0.4869 0.0
H689 H 0.03758 0.91161 0.52729 0.0
H690 H 0.01488 0.84143 0.49153 0.0
H691 H 0.04814 0.85677 0.45228 0.0
C692 C 0.96605 0.83617 0.55903 0.0
C693 C 0.95475 0.84941 0.55641 0.0
C694 C 0.98867 0.84483 0.5458 0.0
C695 C 0.00041 0.86688 0.52981 0.0
C696 C 0.98928 0.8803 0.52828 0.0
C697 C 0.96684 0.87172 0.54147 0.0
C698 C 0.05851 0.90816 0.48839 0.0
C699 C 0.0614 0.89305 0.46613 0.0
C700 C 0.03978 0.89939 0.51135 0.0
C701 C 0.02321 0.87535 0.51199 0.0
C702 C 0.02729 0.86003 0.4918 0.0
C703 C 0.04633 0.86881 0.46921 0.0
H704 H 0.09562 0.17875 0.52018 0.0
H705 H 0.15894 0.20367 0.46109 0.0
H706 H 0.11271 0.16733 0.56649 0.0
H707 H 0.17545 0.1906 0.50577 0.0
H708 H 0.19851 0.15553 0.5779 0.0
H709 H 0.189 0.18509 0.55867 0.0
H710 H 0.11528 0.13384 0.56578 0.0
H711 H 0.12478 0.10519 0.58607 0.0
C712 C 0.11348 0.18239 0.51763 0.0
C713 C 0.12587 0.1917 0.48701 0.0
C714 C 0.12323 0.17561 0.54393 0.0
C715 C 0.14509 0.17704 0.53936 0.0
C716 C 0.15856 0.18907 0.5104 0.0
C717 C 0.14908 0.19655 0.48458 0.0
C718 C 0.18031 0.15093 0.57635 0.0
C719 C 0.16239 0.1279 0.58271 0.0
C720 C 0.17483 0.16781 0.5651 0.0
C721 C 0.15135 0.16189 0.55996 0.0
C722 C 0.13358 0.13939 0.56957 0.0
C723 C 0.13903 0.12269 0.58087 0.0
H724 H 0.85037 0.0369 0.5319 0.0
H725 H 0.88613 0.01396 0.60065 0.0
H726 H 0.82949 0.99796 0.5065 0.0
H727 H 0.86438 0.97463 0.57672 0.0
H728 H 0.86433 0.93395 0.4797 0.0
H729 H 0.87187 0.96297 0.52326 0.0
H730 H 0.8043 0.95638 0.50379 0.0
H731 H 0.79701 0.9275 0.45899 0.0
C732 C 0.85288 0.02319 0.54271 0.0
C733 C 0.87012 0.02846 0.56775 0.0
C734 C 0.8409 0.0008 0.52818 0.0
C735 C 0.84575 0.98327 0.53887 0.0
C736 C 0.86078 0.9879 0.56709 0.0
C737 C 0.87309 0.01035 0.58105 0.0
C738 C 0.85083 0.93829 0.48508 0.0
C739 C 0.83025 0.92868 0.46543 0.0
C740 C 0.85505 0.95485 0.51046 0.0
C741 C 0.83875 0.96223 0.51703 0.0
C742 C 0.81737 0.95135 0.49908 0.0
C743 C 0.81313 0.93469 0.47355 0.0
H744 H 0.74168 0.23944 0.34566 0.0
H745 H 0.8071 0.2792 0.29188 0.0
H746 H 0.75813 0.26471 0.39573 0.0
H747 H 0.82314 0.30577 0.34062 0.0
H748 H 0.84758 0.35548 0.42795 0.0
H749 H 0.836 0.31906 0.39679 0.0
H750 H 0.76357 0.3016 0.40338 0.0
H751 H 0.77494 0.33684 0.4354 0.0
C752 C 0.75977 0.25338 0.34494 0.0
C753 C 0.7731 0.25763 0.31501 0.0
C754 C 0.76917 0.26804 0.37342 0.0
C755 C 0.79173 0.28787 0.37192 0.0
C756 C 0.80575 0.29074 0.34296 0.0
C757 C 0.79656 0.27556 0.31487 0.0
C758 C 0.82916 0.34346 0.42346 0.0
C759 C 0.81222 0.34925 0.43363 0.0
C760 C 0.82251 0.32266 0.40538 0.0
C761 C 0.79884 0.30735 0.39709 0.0
C762 C 0.78193 0.31256 0.40951 0.0
C763 C 0.78851 0.3331 0.42764 0.0
H764 H 0.60654 0.48554 0.35945 0.0
H765 H 0.6446 0.4599 0.41798 0.0
H766 H 0.64194 0.51058 0.32629 0.0
H767 H 0.68006 0.4854 0.38564 0.0
H768 H 0.74082 0.53465 0.31622 0.0
H769 H 0.71105 0.52907 0.35926 0.0
H770 H 0.65659 0.48587 0.2873 0.0
H771 H 0.68607 0.49061 0.24526 0.0
C772 C 0.62277 0.48626 0.36652 0.0
C773 C 0.62291 0.47068 0.3909 0.0
C774 C 0.64297 0.50052 0.34751 0.0
C775 C 0.66357 0.4997 0.35333 0.0
C776 C 0.66443 0.48645 0.38086 0.0
C777 C 0.64415 0.47182 0.39927 0.0
C778 C 0.72246 0.52437 0.30959 0.0
C779 C 0.71557 0.51281 0.27778 0.0
C780 C 0.70553 0.52128 0.33403 0.0
C781 C 0.68162 0.50731 0.32631 0.0
C782 C 0.67491 0.49707 0.29363 0.0
C783 C 0.69172 0.49954 0.26976 0.0
H784 H 0.49978 0.11643 0.38428 0.0
H785 H 0.51764 0.16388 0.46976 0.0
H786 H 0.47176 0.12737 0.36427 0.0
H787 H 0.48811 0.17357 0.4517 0.0
H788 H 0.48952 0.22243 0.36478 0.0
H789 H 0.49466 0.1993 0.4079 0.0
H790 H 0.44168 0.13599 0.35867 0.0
H791 H 0.43732 0.15968 0.31421 0.0
C792 C 0.49658 0.12813 0.39997 0.0
C793 C 0.51104 0.13966 0.42812 0.0
C794 C 0.48042 0.13446 0.38856 0.0
C795 C 0.47826 0.15218 0.40555 0.0
C796 C 0.49 0.16064 0.4371 0.0
C797 C 0.50671 0.15488 0.44781 0.0
C798 C 0.47842 0.20358 0.36372 0.0
C799 C 0.46358 0.19286 0.33557 0.0
C800 C 0.48118 0.19014 0.38882 0.0
C801 C 0.46908 0.16555 0.38646 0.0
C802 C 0.45182 0.15485 0.36079 0.0
C803 C 0.44912 0.16842 0.33546 0.0
H804 H 0.62215 0.4498 0.79702 0.0
H805 H 0.62497 0.51046 0.84399 0.0
H806 H 0.65187 0.47451 0.75652 0.0
H807 H 0.65457 0.53561 0.80223 0.0
H808 H 0.73478 0.55934 0.7876 0.0
H809 H 0.69441 0.54637 0.80251 0.0
H810 H 0.67127 0.50136 0.71305 0.0
H811 H 0.71188 0.51332 0.6999 0.0
C812 C 0.62857 0.46845 0.79787 0.0
C813 C 0.6218 0.47824 0.82437 0.0
C814 C 0.64556 0.48276 0.77423 0.0
C815 C 0.65621 0.50729 0.77647 0.0
C816 C 0.6472 0.51686 0.80028 0.0
C817 C 0.63012 0.50243 0.8241 0.0
C818 C 0.72107 0.54758 0.77024 0.0
C819 C 0.72623 0.53704 0.74296 0.0
C820 C 0.69778 0.54006 0.77872 0.0
C821 C 0.6794 0.52204 0.75974 0.0
C822 C 0.68494 0.51459 0.72899 0.0
C823 C 0.70819 0.52164 0.72112 0.0
H824 H 0.45669 0.18627 0.78174 0.0
H825 H 0.51948 0.20332 0.72502 0.0
H826 H 0.46535 0.16312 0.82204 0.0
H827 H 0.52769 0.17963 0.76465 0.0
H828 H 0.53182 0.12966 0.84359 0.0
H829 H 0.5106 0.13649 0.79713 0.0
H830 H 0.50548 0.18748 0.86045 0.0
H831 H 0.5273 0.18139 0.90596 0.0
C832 C 0.4717 0.18415 0.77694 0.0
C833 C 0.48758 0.19674 0.75057 0.0
C834 C 0.47666 0.17097 0.80001 0.0
C835 C 0.49721 0.16975 0.79639 0.0
C836 C 0.51165 0.18018 0.76777 0.0
C837 C 0.50701 0.19379 0.74522 0.0
C838 C 0.52574 0.14199 0.84763 0.0
C839 C 0.53129 0.15519 0.87805 0.0
C840 C 0.51362 0.14583 0.82121 0.0
C841 C 0.50625 0.1623 0.82552 0.0
C842 C 0.51066 0.17443 0.85677 0.0
C843 C 0.52332 0.17111 0.88261 0.0
H844 H 0.87053 0.38854 0.86712 0.0
H845 H 0.80949 0.3907 0.83229 0.0
H846 H 0.86629 0.36277 0.81881 0.0
H847 H 0.80508 0.36507 0.78494 0.0
H848 H 0.79794 0.32271 0.69886 0.0
H849 H 0.81947 0.35862 0.73211 0.0
H850 H 0.83759 0.32167 0.80646 0.0
H851 H 0.81692 0.28603 0.77207 0.0
C852 C 0.85657 0.38397 0.84873 0.0
C853 C 0.84018 0.39141 0.85366 0.0
C854 C 0.85407 0.36912 0.82122 0.0
C855 C 0.83533 0.36178 0.79799 0.0
C856 C 0.81994 0.37058 0.80188 0.0
C857 C 0.82232 0.38514 0.82934 0.0
C858 C 0.80739 0.32258 0.72156 0.0
C859 C 0.80559 0.30164 0.73322 0.0
C860 C 0.81956 0.34307 0.74076 0.0
C861 C 0.82962 0.34284 0.7725 0.0
C862 C 0.83005 0.32249 0.78215 0.0
C863 C 0.8182 0.30203 0.76248 0.0
H864 H 0.48618 0.36474 0.36042 0.0
H865 H 0.53581 0.40882 0.2839 0.0
H866 H 0.46508 0.33495 0.31741 0.0
H867 H 0.51358 0.37994 0.23963 0.0
H868 H 0.5133 0.31071 0.21657 0.0
H869 H 0.51767 0.34773 0.23331 0.0
H870 H 0.44594 0.31279 0.26918 0.0
H871 H 0.44206 0.27514 0.25319 0.0
C872 C 0.49164 0.36862 0.33383 0.0
C873 C 0.51274 0.38871 0.32538 0.0
C874 C 0.47949 0.35152 0.3089 0.0
C875 C 0.4882 0.35449 0.27508 0.0
C876 C 0.50697 0.37657 0.2657 0.0
C877 C 0.51958 0.3933 0.29089 0.0
C878 C 0.49822 0.31098 0.22706 0.0
C879 C 0.47764 0.29007 0.23468 0.0
C880 C 0.50057 0.33239 0.23642 0.0
C881 C 0.48236 0.33342 0.25377 0.0
C882 C 0.46059 0.31264 0.25689 0.0
C883 C 0.45826 0.29106 0.24747 0.0
H884 H 0.66388 0.17097 0.18041 0.0
H885 H 0.70002 0.15835 0.26248 0.0
H886 H 0.62639 0.14268 0.20543 0.0
H887 H 0.66281 0.13134 0.2889 0.0
H888 H 0.59909 0.09949 0.34848 0.0
H889 H 0.62368 0.10123 0.30018 0.0
H890 H 0.61325 0.15469 0.25308 0.0
H891 H 0.58864 0.15248 0.30041 0.0
C892 C 0.66374 0.16131 0.20299 0.0
C893 C 0.68469 0.1671 0.22 0.0
C894 C 0.64229 0.14529 0.21759 0.0
C895 C 0.64154 0.1356 0.25008 0.0
C896 C 0.66257 0.13858 0.26406 0.0
C897 C 0.68404 0.15414 0.2489 0.0
C898 C 0.6014 0.11093 0.32708 0.0
C899 C 0.59247 0.1263 0.32854 0.0
C900 C 0.61559 0.11203 0.29949 0.0
C901 C 0.62093 0.12842 0.27294 0.0
C902 C 0.6096 0.14171 0.27274 0.0
C903 C 0.5956 0.14069 0.30022 0.0
H904 H 0.86666 0.45349 0.35778 0.0
H905 H 0.82762 0.47969 0.41261 0.0
H906 H 0.86702 0.4754 0.3065 0.0
H907 H 0.82845 0.50187 0.36223 0.0
H908 H 0.83033 0.54074 0.2731 0.0
H909 H 0.85222 0.53308 0.31686 0.0
H910 H 0.82943 0.46514 0.27222 0.0
H911 H 0.80746 0.47265 0.22879 0.0
C912 C 0.85895 0.46462 0.35919 0.0
C913 C 0.84687 0.4648 0.3888 0.0
C914 C 0.85915 0.4771 0.32997 0.0
C915 C 0.8478 0.49034 0.33043 0.0
C916 C 0.83762 0.4921 0.36119 0.0
C917 C 0.83694 0.47924 0.38995 0.0
C918 C 0.83081 0.52459 0.27176 0.0
C919 C 0.81677 0.50704 0.24808 0.0
C920 C 0.8433 0.52021 0.29685 0.0
C921 C 0.8422 0.4984 0.2982 0.0
C922 C 0.83066 0.48214 0.27176 0.0
C923 C 0.81792 0.48636 0.24702 0.0
H924 H 0.65981 0.18728 0.93742 0.0
H925 H 0.61208 0.12151 0.88889 0.0
H926 H 0.69008 0.19319 0.89613 0.0
H927 H 0.64236 0.12766 0.84718 0.0
H928 H 0.74108 0.19908 0.81452 0.0
H929 H 0.71596 0.17871 0.86415 0.0
H930 H 0.65484 0.16183 0.80316 0.0
H931 H 0.67978 0.18263 0.75444 0.0
C932 C 0.65609 0.17367 0.91873 0.0
C933 C 0.63349 0.15415 0.91594 0.0
C934 C 0.67347 0.17699 0.89522 0.0
C935 C 0.66841 0.16102 0.86825 0.0
C936 C 0.64662 0.14026 0.86771 0.0
C937 C 0.62933 0.13674 0.89162 0.0
C938 C 0.72225 0.19044 0.81167 0.0
C939 C 0.71225 0.19251 0.78098 0.0
C940 C 0.70794 0.17883 0.83993 0.0
C941 C 0.6835 0.16861 0.83736 0.0
C942 C 0.67359 0.16923 0.80573 0.0
C943 C 0.68784 0.1813 0.77796 0.0
H944 H 0.8795 0.50393 0.93357 0.0
H945 H 0.80602 0.47425 0.95638 0.0
H946 H 0.88123 0.5401 0.91488 0.0
H947 H 0.80726 0.5093 0.93665 0.0
H948 H 0.79973 0.5575 0.8819 0.0
H949 H 0.81604 0.54727 0.9306 0.0
H950 H 0.86851 0.54756 0.86349 0.0
H951 H 0.85345 0.55986 0.81619 0.0
C952 C 0.86387 0.50534 0.93541 0.0
C953 C 0.84243 0.486 0.94531 0.0
C954 C 0.8648 0.52603 0.92452 0.0
C955 C 0.84427 0.5276 0.92312 0.0
C956 C 0.82357 0.50914 0.93715 0.0
C957 C 0.82271 0.48867 0.94812 0.0
C958 C 0.81565 0.55679 0.87829 0.0
C959 C 0.82507 0.5589 0.84533 0.0
C960 C 0.82483 0.55057 0.90602 0.0
C961 C 0.84268 0.54509 0.90064 0.0
C962 C 0.85452 0.55116 0.86885 0.0
C963 C 0.84587 0.55827 0.84145 0.0
H964 H 0.53778 0.35585 0.92824 0.0
H965 H 0.51784 0.40215 0.87999 0.0
H966 H 0.50774 0.32308 0.89573 0.0
H967 H 0.48792 0.3693 0.84693 0.0
H968 H 0.49966 0.32623 0.75527 0.0
H969 H 0.50565 0.35376 0.80114 0.0
H970 H 0.46566 0.29625 0.87048 0.0
H971 H 0.45899 0.26849 0.82364 0.0
C972 C 0.5262 0.35878 0.91191 0.0
C973 C 0.53045 0.38155 0.90595 0.0
C974 C 0.50888 0.33997 0.89341 0.0
C975 C 0.49588 0.3438 0.86831 0.0
C976 C 0.49788 0.36599 0.86598 0.0
C977 C 0.51497 0.38477 0.88497 0.0
C978 C 0.49148 0.31952 0.78 0.0
C979 C 0.47907 0.29541 0.78622 0.0
C980 C 0.49467 0.33523 0.80618 0.0
C981 C 0.48602 0.32712 0.83935 0.0
C982 C 0.47231 0.3029 0.84504 0.0
C983 C 0.46857 0.28709 0.8184 0.0
H984 H 0.47461 0.65927 0.58062 0.0
H985 H 0.46596 0.60027 0.63993 0.0
H986 H 0.49654 0.68554 0.62772 0.0
H987 H 0.48732 0.62668 0.68802 0.0
H988 H 0.47831 0.68311 0.76281 0.0
H989 H 0.47116 0.65225 0.72172 0.0
H990 H 0.5347 0.69955 0.66803 0.0
H991 H 0.54225 0.73033 0.70979 0.0
C992 C 0.4778 0.65203 0.60359 0.0
C993 C 0.46855 0.62784 0.60689 0.0
C994 C 0.49052 0.66705 0.63039 0.0
C995 C 0.49372 0.6581 0.66133 0.0
C996 C 0.48525 0.63395 0.66422 0.0
C997 C 0.47306 0.61892 0.63687 0.0
C998 C 0.4913 0.68656 0.74317 0.0
C999 C 0.5107 0.7091 0.7392 0.0
C1000 C 0.48725 0.66889 0.71976 0.0
C1001 C 0.50229 0.67366 0.69164 0.0
C1002 C 0.5229 0.6955 0.68959 0.0
C1003 C 0.52724 0.71305 0.71352 0.0
H1004 H 0.36492 0.86615 0.61626 0.0
H1005 H 0.37269 0.8106 0.66108 0.0
H1006 H 0.33877 0.86283 0.66354 0.0
H1007 H 0.34685 0.80716 0.70752 0.0
H1008 H 0.26239 0.80715 0.70757 0.0
H1009 H 0.2985 0.8318 0.67624 0.0
H1010 H 0.33807 0.82291 0.75736 0.0
H1011 H 0.30175 0.79727 0.78763 0.0
C1012 C 0.36149 0.85365 0.63661 0.0
C1013 C 0.37051 0.83836 0.63477 0.0
C1014 C 0.34651 0.85173 0.66359 0.0
C1015 C 0.34068 0.83475 0.68937 0.0
C1016 C 0.35117 0.82072 0.68857 0.0
C1017 C 0.3658 0.82245 0.6616 0.0
C1018 C 0.27892 0.81153 0.71953 0.0
C1019 C 0.27939 0.8001 0.74963 0.0
C1020 C 0.29968 0.82564 0.70153 0.0
C1021 C 0.32109 0.82862 0.71376 0.0
C1022 C 0.32176 0.82035 0.74679 0.0
C1023 C 0.30102 0.80588 0.76435 0.0
H1024 H 0.14425 0.55272 0.69276 0.0
H1025 H 0.13183 0.49304 0.63176 0.0
H1026 H 0.15578 0.5374 0.74131 0.0
H1027 H 0.14504 0.47845 0.67912 0.0
H1028 H 0.22015 0.53308 0.7766 0.0
H1029 H 0.19147 0.53929 0.74771 0.0
H1030 H 0.14721 0.46459 0.73403 0.0
H1031 H 0.1769 0.45848 0.76211 0.0
C1032 C 0.14343 0.53597 0.69017 0.0
C1033 C 0.13744 0.52412 0.65863 0.0
C1034 C 0.15027 0.52729 0.71778 0.0
C1035 C 0.15222 0.50711 0.71385 0.0
C1036 C 0.1438 0.49401 0.68331 0.0
C1037 C 0.13626 0.50238 0.65601 0.0
C1038 C 0.20413 0.51789 0.76806 0.0
C1039 C 0.20108 0.49533 0.77097 0.0
C1040 C 0.18739 0.52142 0.75173 0.0
C1041 C 0.16695 0.50245 0.73804 0.0
C1042 C 0.16293 0.47965 0.74364 0.0
C1043 C 0.17986 0.47612 0.75996 0.0
H1044 H 0.36934 0.87784 0.0871 0.0
H1045 H 0.33637 0.80733 0.04774 0.0
H1046 H 0.33108 0.87164 0.10502 0.0
H1047 H 0.2988 0.8007 0.06631 0.0
H1048 H 0.2372 0.77913 0.11735 0.0
H1049 H 0.2656 0.80303 0.07362 0.0
H1050 H 0.30937 0.85105 0.15285 0.0
H1051 H 0.27996 0.82824 0.19547 0.0
C1052 C 0.35384 0.86131 0.08123 0.0
C1053 C 0.3558 0.84282 0.06696 0.0
C1054 C 0.33191 0.85764 0.09175 0.0
C1055 C 0.31172 0.83542 0.08822 0.0
C1056 C 0.31363 0.81809 0.06972 0.0
C1057 C 0.33538 0.82176 0.05929 0.0
C1058 C 0.25226 0.7956 0.12486 0.0
C1059 C 0.25667 0.80178 0.15963 0.0
C1060 C 0.26876 0.80916 0.09996 0.0
C1061 C 0.29047 0.82832 0.10981 0.0
C1062 C 0.2931 0.83635 0.144 0.0
C1063 C 0.27618 0.82323 0.16868 0.0
H1064 H 0.17958 0.50182 0.02157 0.0
H1065 H 0.13096 0.48981 0.10369 0.0
H1066 H 0.19408 0.47953 0.05251 0.0
H1067 H 0.14628 0.46875 0.13569 0.0
H1068 H 0.1851 0.44555 0.19989 0.0
H1069 H 0.15984 0.44207 0.15135 0.0
H1070 H 0.21962 0.498 0.09952 0.0
H1071 H 0.24439 0.50112 0.14725 0.0
C1072 C 0.17131 0.49351 0.0456 0.0
C1073 C 0.15451 0.49783 0.06064 0.0
C1074 C 0.17974 0.48093 0.0635 0.0
C1075 C 0.17208 0.47323 0.09722 0.0
C1076 C 0.15275 0.47453 0.1099 0.0
C1077 C 0.14391 0.48665 0.09155 0.0
C1078 C 0.19285 0.45644 0.17746 0.0
C1079 C 0.21657 0.4739 0.17747 0.0
C1080 C 0.1784 0.45455 0.14977 0.0
C1081 C 0.18756 0.46991 0.12162 0.0
C1082 C 0.21182 0.48565 0.12041 0.0
C1083 C 0.2261 0.48767 0.14804 0.0
H1084 H 0.55295 0.72213 0.19167 0.0
H1085 H 0.53549 0.7605 0.11952 0.0
H1086 H 0.54631 0.69339 0.14791 0.0
H1087 H 0.53104 0.73303 0.0742 0.0
H1088 H 0.46863 0.65906 0.05249 0.0
H1089 H 0.49794 0.69794 0.06859 0.0
H1090 H 0.54404 0.67221 0.09959 0.0
H1091 H 0.51354 0.63251 0.08462 0.0
C1092 C 0.54909 0.72514 0.16574 0.0
C1093 C 0.54409 0.74305 0.15903 0.0
C1094 C 0.54531 0.70863 0.14035 0.0
C1095 C 0.53693 0.71011 0.10765 0.0
C1096 C 0.53626 0.73059 0.09952 0.0
C1097 C 0.53911 0.74656 0.1253 0.0
C1098 C 0.48528 0.66177 0.06184 0.0
C1099 C 0.48849 0.6427 0.0685 0.0
C1100 C 0.50243 0.68432 0.07083 0.0
C1101 C 0.52334 0.68841 0.08668 0.0
C1102 C 0.52786 0.66968 0.08863 0.0
C1103 C 0.51048 0.64692 0.07974 0.0
H1104 H 0.1103 0.59763 0.6146 0.0
H1105 H 0.15437 0.63425 0.52827 0.0
H1106 H 0.11867 0.63466 0.64006 0.0
H1107 H 0.16157 0.67139 0.55233 0.0
H1108 H 0.21098 0.71522 0.64218 0.0
H1109 H 0.1883 0.68766 0.59777 0.0
H1110 H 0.12436 0.67296 0.64967 0.0
H1111 H 0.14761 0.7007 0.69504 0.0
C1112 C 0.12057 0.61356 0.60003 0.0
C1113 C 0.13212 0.61327 0.56994 0.0
C1114 C 0.12541 0.6349 0.6146 0.0
C1115 C 0.1416 0.65615 0.59889 0.0
C1116 C 0.14973 0.6554 0.56573 0.0
C1117 C 0.14543 0.63414 0.5517 0.0
C1118 C 0.19207 0.70663 0.64363 0.0
C1119 C 0.18106 0.70967 0.6724 0.0
C1120 C 0.17892 0.69092 0.61784 0.0
C1121 C 0.15435 0.67769 0.62023 0.0
C1122 C 0.14324 0.68257 0.64729 0.0
C1123 C 0.15652 0.69854 0.67317 0.0
H1124 H 0.25994 0.46314 0.67599 0.0
H1125 H 0.32449 0.49577 0.73337 0.0
H1126 H 0.2822 0.47066 0.62223 0.0
H1127 H 0.34661 0.50268 0.68032 0.0
H1128 H 0.33817 0.53935 0.55757 0.0
H1129 H 0.30921 0.51258 0.59847 0.0
H1130 H 0.35496 0.48596 0.62572 0.0
H1131 H 0.38396 0.51261 0.58452 0.0
C1132 C 0.27879 0.47099 0.67713 0.0
C1133 C 0.29064 0.47895 0.70852 0.0
C1134 C 0.29149 0.47535 0.6465 0.0
C1135 C 0.3161 0.48724 0.64715 0.0
C1136 C 0.32767 0.49322 0.67901 0.0
C1137 C 0.31506 0.48937 0.70937 0.0
C1138 C 0.34173 0.52722 0.5714 0.0
C1139 C 0.36353 0.52843 0.56836 0.0
C1140 C 0.32505 0.51175 0.59464 0.0
C1141 C 0.33 0.49742 0.61552 0.0
C1142 C 0.35081 0.49695 0.61002 0.0
C1143 C 0.36737 0.5122 0.58641 0.0
H1144 H 0.49884 0.82616 0.72727 0.0
H1145 H 0.53987 0.80585 0.66507 0.0
H1146 H 0.49196 0.84418 0.67747 0.0
H1147 H 0.53241 0.82342 0.61442 0.0
H1148 H 0.46142 0.80601 0.55072 0.0
H1149 H 0.49086 0.80589 0.58822 0.0
H1150 H 0.50773 0.87371 0.62758 0.0
H1151 H 0.47836 0.87398 0.58971 0.0
C1152 C 0.50704 0.82631 0.70305 0.0
C1153 C 0.51978 0.81466 0.69975 0.0
C1154 C 0.50326 0.83676 0.67456 0.0
C1155 C 0.51165 0.83519 0.64203 0.0
C1156 C 0.52587 0.82496 0.63925 0.0
C1157 C 0.53014 0.81497 0.66811 0.0
C1158 C 0.47212 0.82135 0.56626 0.0
C1159 C 0.46721 0.83973 0.56793 0.0
C1160 C 0.48912 0.82136 0.58761 0.0
C1161 C 0.50126 0.83961 0.61125 0.0
C1162 C 0.49845 0.85935 0.60975 0.0
C1163 C 0.48165 0.8595 0.58801 0.0
H1164 H 0.30973 0.46985 0.26288 0.0
H1165 H 0.33702 0.54372 0.27924 0.0
H1166 H 0.34844 0.47785 0.24429 0.0
H1167 H 0.3749 0.55187 0.25959 0.0
H1168 H 0.43629 0.57136 0.20769 0.0
H1169 H 0.40996 0.55266 0.25605 0.0
H1170 H 0.3672 0.49252 0.19195 0.0
H1171 H 0.39469 0.51051 0.14511 0.0
C1172 C 0.32412 0.48771 0.2634 0.0
C1173 C 0.32021 0.50624 0.27153 0.0
C1174 C 0.34629 0.49235 0.2525 0.0
C1175 C 0.36485 0.51557 0.24942 0.0
C1176 C 0.36135 0.53371 0.26152 0.0
C1177 C 0.33936 0.52908 0.27248 0.0
C1178 C 0.42198 0.55357 0.20481 0.0
C1179 C 0.41722 0.54243 0.17275 0.0
C1180 C 0.40666 0.54294 0.2323 0.0
C1181 C 0.3857 0.52157 0.2275 0.0
C1182 C 0.38293 0.50905 0.19684 0.0
C1183 C 0.39874 0.51937 0.16975 0.0
H1184 H 0.5412 0.83525 0.20553 0.0
H1185 H 0.49563 0.81382 0.29364 0.0
H1186 H 0.5263 0.8605 0.18726 0.0
H1187 H 0.48166 0.84035 0.27696 0.0
H1188 H 0.42869 0.83193 0.19084 0.0
H1189 H 0.45436 0.82984 0.23291 0.0
H1190 H 0.51383 0.88841 0.1846 0.0
H1191 H 0.48771 0.88993 0.14142 0.0
C1192 C 0.52909 0.83718 0.22217 0.0
C1193 C 0.51929 0.82251 0.25066 0.0
C1194 C 0.52047 0.85171 0.21175 0.0
C1195 C 0.50205 0.85184 0.22996 0.0
C1196 C 0.49522 0.84004 0.26167 0.0
C1197 C 0.50341 0.82506 0.27154 0.0
C1198 C 0.44715 0.84485 0.18979 0.0
C1199 C 0.45627 0.86062 0.16229 0.0
C1200 C 0.46201 0.84386 0.21427 0.0
C1201 C 0.48642 0.85863 0.21183 0.0
C1202 C 0.4952 0.87641 0.18679 0.0
C1203 C 0.48022 0.8774 0.16218 0.0
H1204 H 0.16613 0.69885 0.1907 0.0
H1205 H 0.19204 0.67313 0.27133 0.0
H1206 H 0.14454 0.65961 0.16624 0.0
H1207 H 0.1696 0.63361 0.24811 0.0
H1208 H 0.17929 0.59537 0.1541 0.0
H1209 H 0.18287 0.62343 0.19711 0.0
H1210 H 0.11766 0.61728 0.16298 0.0
H1211 H 0.11424 0.58902 0.11915 0.0
C1212 C 0.166 0.68448 0.20434 0.0
C1213 C 0.18079 0.68886 0.23262 0.0
C1214 C 0.15367 0.66195 0.19033 0.0
C1215 C 0.15591 0.64359 0.20468 0.0
C1216 C 0.16801 0.64751 0.23595 0.0
C1217 C 0.18065 0.67005 0.2495 0.0
C1218 C 0.16543 0.59957 0.15621 0.0
C1219 C 0.1467 0.59027 0.13293 0.0
C1220 C 0.16731 0.61552 0.18122 0.0
C1221 C 0.15055 0.62272 0.18352 0.0
C1222 C 0.13092 0.6122 0.16172 0.0
C1223 C 0.12893 0.59597 0.13675 0.0
H1224 H 0.1554 0.19179 0.3193 0.0
H1225 H 0.09031 0.12617 0.31521 0.0
H1226 H 0.17383 0.17525 0.2828 0.0
H1227 H 0.1081 0.11006 0.27786 0.0
H1228 H 0.18757 0.14156 0.18538 0.0
H1229 H 0.17545 0.16146 0.22654 0.0
H1230 H 0.13456 0.09626 0.28104 0.0
H1231 H 0.14558 0.07634 0.23871 0.0
C1232 C 0.14496 0.174 0.31007 0.0
C1233 C 0.1215 0.16018 0.32024 0.0
C1234 C 0.1555 0.1645 0.28926 0.0
C1235 C 0.14264 0.14111 0.27802 0.0
C1236 C 0.11886 0.12781 0.28703 0.0
C1237 C 0.10852 0.13714 0.30812 0.0
C1238 C 0.17648 0.13171 0.20673 0.0
C1239 C 0.16726 0.10742 0.20879 0.0
C1240 C 0.16948 0.14308 0.23029 0.0
C1241 C 0.15345 0.13034 0.25655 0.0
C1242 C 0.14619 0.10646 0.26038 0.0
C1243 C 0.15274 0.09506 0.23646 0.0
H1244 H 0.81925 0.95008 0.3099 0.0
H1245 H 0.87425 0.93818 0.27356 0.0
H1246 H 0.83507 0.98566 0.2756 0.0
H1247 H 0.88928 0.9728 0.23755 0.0
H1248 H 0.92856 0.04812 0.20917 0.0
H1249 H 0.91058 0.01307 0.24448 0.0
H1250 H 0.84221 0.00381 0.22206 0.0
H1251 H 0.86053 0.03977 0.1885 0.0
C1252 C 0.8343 0.95472 0.29368 0.0
C1253 C 0.84565 0.94153 0.29445 0.0
C1254 C 0.84342 0.97514 0.27403 0.0
C1255 C 0.86381 0.98249 0.25429 0.0
C1256 C 0.87409 0.96824 0.25336 0.0
C1257 C 0.86529 0.94818 0.27357 0.0
C1258 C 0.90973 0.03879 0.21238 0.0
C1259 C 0.89593 0.04662 0.19617 0.0
C1260 C 0.89933 0.01848 0.23219 0.0
C1261 C 0.87483 0.00517 0.23552 0.0
C1262 C 0.86111 0.01359 0.22032 0.0
C1263 C 0.87159 0.03424 0.20109 0.0
H1264 H 0.95683 0.87778 0.20655 0.0
H1265 H 0.95849 0.81463 0.18334 0.0
H1266 H 0.99171 0.89162 0.24153 0.0
H1267 H 0.99428 0.82897 0.21745 0.0
H1268 H 0.0462 0.85654 0.31108 0.0
H1269 H 0.01171 0.83881 0.27385 0.0
H1270 H 0.03212 0.90696 0.23171 0.0
H1271 H 0.06571 0.9246 0.27003 0.0
C1272 C 0.96467 0.86682 0.20906 0.0
C1273 C 0.95506 0.84522 0.19206 0.0
C1274 C 0.98486 0.87487 0.22877 0.0
C1275 C 0.99624 0.86173 0.23151 0.0
C1276 C 0.986 0.83956 0.21581 0.0
C1277 C 0.96549 0.83132 0.19636 0.0
C1278 C 0.04353 0.86757 0.29322 0.0
C1279 C 0.0584 0.89194 0.2936 0.0
C1280 C 0.02375 0.85744 0.27196 0.0
C1281 C 0.01877 0.87155 0.25049 0.0
C1282 C 0.03492 0.89568 0.24884 0.0
C1283 C 0.05435 0.90578 0.27044 0.0
H1284 H 0.85943 0.86394 0.65653 0.0
H1285 H 0.86465 0.80735 0.70341 0.0
H1286 H 0.8453 0.8709 0.71042 0.0
H1287 H 0.85031 0.81437 0.7576 0.0
H1288 H 0.85706 0.85912 0.8546 0.0
H1289 H 0.86638 0.84686 0.80079 0.0
H1290 H 0.81093 0.85208 0.75016 0.0
H1291 H 0.80157 0.86455 0.80423 0.0
C1292 C 0.85751 0.85292 0.67832 0.0
C1293 C 0.86334 0.83518 0.67575 0.0
C1294 C 0.84917 0.85679 0.7091 0.0
C1295 C 0.84662 0.84313 0.73813 0.0
C1296 C 0.85223 0.82524 0.7356 0.0
C1297 C 0.86041 0.82121 0.70462 0.0
C1298 C 0.84672 0.85753 0.83208 0.0
C1299 C 0.8287 0.86303 0.83359 0.0
C1300 C 0.85196 0.8503 0.80133 0.0
C1301 C 0.83942 0.84856 0.77132 0.0
C1302 C 0.821 0.85348 0.77292 0.0
C1303 C 0.81561 0.86054 0.80384 0.0
H1304 H 0.13304 -0.00075 0.64069 0.0
H1305 H 0.18739 0.05521 0.70064 0.0
H1306 H 0.12162 0.97357 0.69054 0.0
H1307 H 0.17582 0.02935 0.75064 0.0
H1308 H 0.12182 0.98642 0.83688 0.0
H1309 H 0.13891 0.01146 0.78697 0.0
H1310 H 0.13681 0.95383 0.73122 0.0
H1311 H 0.11967 0.92857 0.78147 0.0
C1312 C 0.14266 0.00602 0.66444 0.0
C1313 C 0.16098 0.02933 0.66685 0.0
C1314 C 0.13624 0.99123 0.69287 0.0
C1315 C 0.14782 -0.00049 0.72438 0.0
C1316 C 0.16653 0.02262 0.72663 0.0
C1317 C 0.17316 0.03736 0.69804 0.0
C1318 C 0.1251 0.97907 0.81407 0.0
C1319 C 0.11924 0.95546 0.81299 0.0
C1320 C 0.13508 0.99349 0.78562 0.0
C1321 C 0.1392 0.98458 0.75532 0.0
C1322 C 0.1337 0.96108 0.75429 0.0
C1323 C 0.12396 0.94667 0.78301 0.0
H1324 H 0.9351 0.13211 0.68417 0.0
H1325 H 0.99407 0.13223 0.63545 0.0
H1326 H 0.9583 0.1482 0.73644 0.0
H1327 H 0.01708 0.1482 0.68759 0.0
H1328 H 0.99449 0.13754 0.8319 0.0
H1329 H 0.97308 0.12958 0.77829 0.0
H1330 H 0.03506 0.18328 0.72793 0.0
H1331 H 0.05679 0.19143 0.78219 0.0
C1332 C 0.95305 0.1358 0.68446 0.0
C1333 C 0.96264 0.13059 0.65587 0.0
C1334 C 0.9663 0.14498 0.71436 0.0
C1335 C 0.98944 0.14934 0.71605 0.0
C1336 C -0.00063 0.1452 0.68691 0.0
C1337 C 0.98608 0.13584 0.65717 0.0
C1338 C 0.00362 0.14778 0.80951 0.0
C1339 C 0.02742 0.16499 0.8112 0.0
C1340 C 0.99124 0.14336 0.77886 0.0
C1341 C 0.00237 0.15588 0.74902 0.0
C1342 C 0.0261 0.17335 0.75064 0.0
C1343 C 0.03849 0.17802 0.7816 0.0
H1344 H 0.82775 0.53091 0.65787 0.0
H1345 H 0.79377 0.46964 0.7227 0.0
H1346 H 0.83762 0.50906 0.61689 0.0
H1347 H 0.80379 0.44806 0.68194 0.0
H1348 H 0.79114 0.41304 0.57333 0.0
H1349 H 0.78855 0.43416 0.62283 0.0
H1350 H 0.86065 0.48782 0.60834 0.0
H1351 H 0.8633 0.46649 0.5585 0.0
C1352 C 0.82263 0.51291 0.66359 0.0
C1353 C 0.80968 0.50192 0.6933 0.0
C1354 C 0.82848 0.50049 0.64028 0.0
C1355 C 0.82138 0.47685 0.64622 0.0
C1356 C 0.80928 0.4662 0.67658 0.0
C1357 C 0.80354 0.47859 0.6999 0.0
C1358 C 0.8066 0.42907 0.58115 0.0
C1359 C 0.82737 0.4382 0.562 0.0
C1360 C 0.80515 0.44113 0.60957 0.0
C1361 C 0.82436 0.46271 0.61925 0.0
C1362 C 0.84554 0.4713 0.60119 0.0
C1363 C 0.8471 0.45901 0.57293 0.0
H1364 H 0.47037 0.29522 0.63459 0.0
H1365 H 0.5136 0.26913 0.59326 0.0
H1366 H 0.48261 0.32378 0.58829 0.0
H1367 H 0.52442 0.29616 0.54522 0.0
H1368 H 0.56611 0.36536 0.49376 0.0
H1369 H 0.54969 0.33518 0.53742 0.0
H1370 H 0.4843 0.33552 0.53197 0.0
H1371 H 0.50172 0.36719 0.4899 0.0
C1372 C 0.48174 0.29499 0.61466 0.0
C1373 C 0.49116 0.28015 0.61735 0.0
C1374 C 0.48883 0.31139 0.58808 0.0
C1375 C 0.50508 0.31284 0.5633 0.0
C1376 C 0.51268 0.29633 0.56451 0.0
C1377 C 0.50618 0.2805 0.59164 0.0
C1378 C 0.54834 0.35916 0.50234 0.0
C1379 C 0.53519 0.36858 0.4887 0.0
C1380 C 0.5387 0.34153 0.52698 0.0
C1381 C 0.51535 0.33231 0.53783 0.0
C1382 C 0.50235 0.34218 0.52455 0.0
C1383 C 0.51229 0.36035 0.50048 0.0
H1384 H 0.63165 0.20048 0.49762 0.0
H1385 H 0.62758 0.13319 0.49414 0.0
H1386 H 0.66538 0.21527 0.53509 0.0
H1387 H 0.66248 0.14835 0.53038 0.0
H1388 H 0.70766 0.17834 0.62984 0.0
H1389 H 0.67736 0.1605 0.58591 0.0
H1390 H 0.70489 0.22783 0.53627 0.0
H1391 H 0.73386 0.24568 0.58182 0.0
C1392 C 0.63814 0.18889 0.50476 0.0
C1393 C 0.627 0.1657 0.49304 0.0
C1394 C 0.65775 0.19745 0.52589 0.0
C1395 C 0.66715 0.18323 0.53527 0.0
C1396 C 0.65575 0.15983 0.52386 0.0
C1397 C 0.63573 0.1511 0.50316 0.0
C1398 C 0.70758 0.18907 0.60884 0.0
C1399 C 0.72291 0.21332 0.60907 0.0
C1400 C 0.69017 0.1789 0.58366 0.0
C1401 C 0.68814 0.19281 0.55799 0.0
C1402 C 0.70526 0.21669 0.55637 0.0
C1403 C 0.72217 0.22691 0.58204 0.0
H1404 H 0.51725 0.13709 0.0292 0.0
H1405 H 0.58526 0.18271 0.07304 0.0
H1406 H 0.49901 0.14808 0.07439 0.0
H1407 H 0.56711 0.19244 0.11985 0.0
H1408 H 0.53555 0.2332 0.16374 0.0
H1409 H 0.5515 0.21672 0.12369 0.0
H1410 H 0.4878 0.14966 0.13077 0.0
H1411 H 0.47131 0.16694 0.16955 0.0
C1412 C 0.52818 0.14875 0.0494 0.0
C1413 C 0.55263 0.15927 0.04761 0.0
C1414 C 0.51774 0.15509 0.07536 0.0
C1415 C 0.5316 0.1717 0.10037 0.0
C1416 C 0.55592 0.18034 0.10028 0.0
C1417 C 0.56636 0.17452 0.07382 0.0
C1418 C 0.52491 0.21497 0.15652 0.0
C1419 C 0.50223 0.20133 0.16964 0.0
C1420 C 0.53417 0.20536 0.13391 0.0
C1421 C 0.52122 0.18162 0.12445 0.0
C1422 C 0.49828 0.16801 0.13728 0.0
C1423 C 0.48879 0.17786 0.15944 0.0
H1424 H 0.84513 0.36679 0.01495 0.0
H1425 H 0.79256 0.38313 0.04827 0.0
H1426 H 0.82993 0.33409 0.05536 0.0
H1427 H 0.77833 0.35172 0.0902 0.0
H1428 H 0.73789 0.27914 0.12942 0.0
H1429 H 0.7559 0.31142 0.08913 0.0
H1430 H 0.82384 0.31969 0.11192 0.0
H1431 H 0.80527 0.28615 0.15079 0.0
C1432 C 0.83077 0.36376 0.03172 0.0
C1433 C 0.81982 0.37722 0.02846 0.0
C1434 C 0.82202 0.34504 0.05487 0.0
C1435 C 0.80248 0.33982 0.07556 0.0
C1436 C 0.79278 0.35456 0.07381 0.0
C1437 C 0.80111 0.37278 0.05015 0.0
C1438 C 0.75663 0.28769 0.12542 0.0
C1439 C 0.77023 0.28027 0.1432 0.0
C1440 C 0.76706 0.30643 0.10267 0.0
C1441 C 0.79148 0.31868 0.09786 0.0
C1442 C 0.80501 0.31068 0.11484 0.0
C1443 C 0.79441 0.29148 0.1371 0.0
H1444 H 0.6436 0.43265 -0.00056 0.0
H1445 H 0.64731 0.49953 0.98937 0.0
H1446 H 0.67629 0.44957 0.03911 0.0
H1447 H 0.68117 0.51709 0.02784 0.0
H1448 H 0.74503 0.48385 0.08656 0.0
H1449 H 0.71658 0.47361 0.04049 0.0
H1450 H 0.69453 0.51973 0.08449 0.0
H1451 H 0.72424 0.5311 0.12904 0.0
C1452 C 0.65152 0.45106 0.00575 0.0
C1453 C 0.64295 0.46478 0.99142 0.0
C1454 C 0.67054 0.46091 0.02811 0.0
C1455 C 0.68189 0.48491 0.03611 0.0
C1456 C 0.67289 0.49856 0.02238 0.0
C1457 C 0.65346 0.48852 0.00043 0.0
C1458 C 0.73464 0.49238 0.08553 0.0
C1459 C 0.73671 0.50817 0.11125 0.0
C1460 C 0.71803 0.48624 0.05953 0.0
C1461 C 0.70259 0.49517 0.05941 0.0
C1462 C 0.70603 0.51245 0.08366 0.0
C1463 C 0.72312 0.51906 0.10919 0.0
H1464 H 0.48167 0.85844 -0.00304 0.0
H1465 H 0.41876 0.7914 0.98657 0.0
H1466 H 0.50187 0.84585 0.9571 0.0
H1467 H 0.43808 0.77929 0.94519 0.0
H1468 H 0.47821 0.7525 0.89247 0.0
H1469 H 0.4648 0.76693 0.93983 0.0
H1470 H 0.50603 0.83741 0.90052 0.0
H1471 H 0.52078 0.82288 0.8549 0.0
C1472 C 0.47208 0.84118 0.98558 0.0
C1473 C 0.44872 0.82584 0.99484 0.0
C1474 C 0.48361 0.83392 0.96273 0.0
C1475 C 0.47182 0.81134 0.94818 0.0
C1476 C 0.44812 0.79645 0.95669 0.0
C1477 C 0.43685 0.80349 0.98007 0.0
C1478 C 0.48493 0.77115 0.8948 0.0
C1479 C 0.5005 0.78663 0.87031 0.0
C1480 C 0.47696 0.77945 0.92153 0.0
C1481 C 0.48367 0.80331 0.92352 0.0
C1482 C 0.50047 0.81897 0.90008 0.0
C1483 C 0.509 0.81069 0.8739 0.0
H1484 H 0.23268 0.69581 0.85331 0.0
H1485 H 0.16228 0.68192 0.83635 0.0
H1486 H 0.21838 0.66403 0.89451 0.0
H1487 H 0.14743 0.64882 0.87614 0.0
H1488 H 0.13324 0.60303 0.97389 0.0
H1489 H 0.14405 0.63475 0.93266 0.0
H1490 H 0.19925 0.62367 0.89385 0.0
H1491 H 0.18937 0.59332 0.93659 0.0
C1492 C 0.21408 0.6859 0.85862 0.0
C1493 C 0.19855 0.69121 0.84178 0.0
C1494 C 0.20577 0.66742 0.88183 0.0
C1495 C 0.18161 0.65328 0.88798 0.0
C1496 C 0.16613 0.65927 0.87212 0.0
C1497 C 0.17458 0.67824 0.8494 0.0
C1498 C 0.14738 0.60719 0.956 0.0
C1499 C 0.16062 0.59596 0.9584 0.0
C1500 C 0.15363 0.62539 0.9324 0.0
C1501 C 0.17297 0.63229 0.91045 0.0
C1502 C 0.18488 0.61956 0.91122 0.0
C1503 C 0.17902 0.60189 0.93531 0.0
H1504 H 0.38624 0.51479 0.00082 0.0
H1505 H 0.36766 0.56856 0.01233 0.0
H1506 H 0.35334 0.49361 0.9614 0.0
H1507 H 0.33591 0.54842 0.97186 0.0
H1508 H 0.27127 0.50516 0.91608 0.0
H1509 H 0.29889 0.51683 0.96372 0.0
H1510 H 0.34016 0.49425 0.90586 0.0
H1511 H 0.3114 0.48108 0.85958 0.0
C1512 C 0.37527 0.52218 0.99458 0.0
C1513 C 0.37944 0.54326 0.00965 0.0
C1514 C 0.35642 0.51008 0.97201 0.0
C1515 C 0.34164 0.51906 0.96365 0.0
C1516 C 0.34627 0.54043 0.97842 0.0
C1517 C 0.36474 0.55221 0.00136 0.0
C1518 C 0.28581 0.50193 0.91435 0.0
C1519 C 0.28926 0.49212 0.8846 0.0
C1520 C 0.30188 0.50895 0.94129 0.0
C1521 C 0.32222 0.50714 0.93836 0.0
C1522 C 0.32473 0.49584 0.90929 0.0
C1523 C 0.30827 0.48826 0.88273 0.0
H1524 H 0.13499 0.50863 0.46918 0.0
H1525 H 0.2044 0.56437 0.49533 0.0
H1526 H 0.15154 0.49737 0.42117 0.0
H1527 H 0.22061 0.55316 0.44793 0.0
H1528 H 0.23688 0.54582 0.33721 0.0
H1529 H 0.21755 0.55435 0.38347 0.0
H1530 H 0.18053 0.48145 0.41218 0.0
H1531 H 0.19995 0.47268 0.36542 0.0
C1532 C 0.15368 0.51847 0.46468 0.0
C1533 C 0.16836 0.53744 0.48597 0.0
C1534 C 0.16313 0.51194 0.43742 0.0
C1535 C 0.18731 0.52449 0.43084 0.0
C1536 C 0.20188 0.54335 0.45219 0.0
C1537 C 0.19255 0.5497 0.47945 0.0
C1538 C 0.22461 0.53152 0.35325 0.0
C1539 C 0.2201 0.50858 0.34778 0.0
C1540 C 0.21358 0.53645 0.3798 0.0
C1541 C 0.19765 0.51857 0.40145 0.0
C1542 C 0.19266 0.49551 0.39568 0.0
C1543 C 0.20391 0.49056 0.36915 0.0
H1544 H 0.41232 0.60657 0.41239 0.0
H1545 H 0.48029 0.62932 0.45648 0.0
H1546 H 0.4303 0.63517 0.36651 0.0
H1547 H 0.49833 0.65938 0.41263 0.0
H1548 H 0.52717 0.70749 0.32054 0.0
H1549 H 0.51039 0.6734 0.35828 0.0
H1550 H 0.44519 0.67427 0.36017 0.0
H1551 H 0.46153 0.70693 0.32053 0.0
C1552 C 0.43119 0.61758 0.41189 0.0
C1553 C 0.44495 0.61579 0.43777 0.0
C1554 C 0.44154 0.6343 0.38598 0.0
C1555 C 0.46581 0.65027 0.38622 0.0
C1556 C 0.47967 0.64745 0.41118 0.0
C1557 C 0.46935 0.63017 0.43644 0.0
C1558 C 0.50927 0.7003 0.32925 0.0
C1559 C 0.4956 0.70975 0.31773 0.0
C1560 C 0.4996 0.68076 0.35093 0.0
C1561 C 0.47622 0.67067 0.36223 0.0
C1562 C 0.46292 0.6808 0.35127 0.0
C1563 C 0.47238 0.69983 0.32891 0.0
H1564 H 0.36762 0.84749 0.45253 0.0
H1565 H 0.35561 0.77693 0.45835 0.0
H1566 H 0.34094 0.8362 0.40339 0.0
H1567 H 0.32913 0.76579 0.40948 0.0
H1568 H 0.30373 0.76181 0.29931 0.0
H1569 H 0.33166 0.7751 0.34646 0.0
H1570 H 0.29689 0.80882 0.39341 0.0
H1571 H 0.26872 0.7955 0.34597 0.0
C1572 C 0.35948 0.82967 0.44314 0.0
C1573 C 0.36372 0.8131 0.4593 0.0
C1574 C 0.34409 0.82319 0.41525 0.0
C1575 C 0.33296 0.80013 0.40276 0.0
C1576 C 0.3376 0.78373 0.41845 0.0
C1577 C 0.35272 0.79011 0.44649 0.0
C1578 C 0.30198 0.77207 0.31962 0.0
C1579 C 0.28392 0.77752 0.31896 0.0
C1580 C 0.31796 0.77961 0.34667 0.0
C1581 C 0.3164 0.79295 0.37355 0.0
C1582 C 0.29857 0.7987 0.37281 0.0
C1583 C 0.28237 0.79094 0.34583 0.0
H1584 H 0.2718 0.11573 0.12454 0.0
H1585 H 0.2708 0.17813 0.15546 0.0
H1586 H 0.31131 0.13207 0.14701 0.0
H1587 H 0.31066 0.19479 0.17708 0.0
H1588 H 0.36792 0.20323 0.25164 0.0
H1589 H 0.32969 0.18831 0.22503 0.0
H1590 H 0.35158 0.16157 0.14 0.0
H1591 H 0.38965 0.17595 0.16714 0.0
C1592 C 0.28016 0.13312 0.13558 0.0
C1593 C 0.26805 0.14555 0.13844 0.0
C1594 C 0.30289 0.14254 0.14838 0.0
C1595 C 0.31411 0.16466 0.16419 0.0
C1596 C 0.30235 0.1775 0.16571 0.0
C1597 C 0.27957 0.16803 0.15304 0.0
C1598 C 0.36457 0.19411 0.22732 0.0
C1599 C 0.38182 0.19072 0.21158 0.0
C1600 C 0.3427 0.18574 0.21188 0.0
C1601 C 0.33758 0.17387 0.18023 0.0
C1602 C 0.35483 0.17042 0.16454 0.0
C1603 C 0.37669 0.17871 0.18007 0.0
H1604 H 0.81506 0.2124 0.17158 0.0
H1605 H 0.77002 0.14734 0.22391 0.0
H1606 H 0.8385 0.19615 0.1496 0.0
H1607 H 0.7931 0.13087 0.20115 0.0
H1608 H 0.85462 0.11832 0.18475 0.0
H1609 H 0.83096 0.13424 0.20685 0.0
H1610 H 0.83641 0.16752 0.10901 0.0
H1611 H 0.86068 0.1521 0.08716 0.0
C1612 C 0.81012 0.1946 0.17832 0.0
C1613 C 0.79069 0.18117 0.19954 0.0
C1614 C 0.82346 0.18522 0.1655 0.0
C1615 C 0.81763 0.16216 0.17347 0.0
C1616 C 0.79825 0.14878 0.19484 0.0
C1617 C 0.78496 0.1582 0.20778 0.0
C1618 C 0.85073 0.12897 0.16789 0.0
C1619 C 0.85959 0.134 0.1342 0.0
C1620 C 0.83704 0.13801 0.18053 0.0
C1621 C 0.83181 0.15219 0.15974 0.0
C1622 C 0.84042 0.15696 0.12589 0.0
C1623 C 0.8542 0.14799 0.11328 0.0
H1624 H 0.83198 0.612 0.21042 0.0
H1625 H 0.7724 0.61434 0.16897 0.0
H1626 H 0.85634 0.65407 0.20147 0.0
H1627 H 0.79674 0.65639 0.16037 0.0
H1628 H 0.85308 0.72515 0.11391 0.0
H1629 H 0.82999 0.68306 0.12296 0.0
H1630 H 0.86036 0.69137 0.22391 0.0
H1631 H 0.88366 0.73356 0.21486 0.0
C1632 C 0.82405 0.62149 0.19954 0.0
C1633 C 0.80026 0.60982 0.19033 0.0
C1634 C 0.83799 0.64559 0.19456 0.0
C1635 C 0.82845 0.65847 0.1801 0.0
C1636 C 0.80464 0.64684 0.17113 0.0
C1637 C 0.79067 0.62278 0.17626 0.0
C1638 C 0.85497 0.71802 0.13797 0.0
C1639 C 0.87015 0.73271 0.16373 0.0
C1640 C 0.84161 0.69392 0.14322 0.0
C1641 C 0.84326 0.68397 0.17423 0.0
C1642 C 0.85884 0.69856 0.19968 0.0
C1643 C 0.87209 0.72271 0.19454 0.0
H1644 H 0.23488 0.40302 0.3181 0.0
H1645 H 0.16364 0.38918 0.31201 0.0
H1646 H 0.22072 0.36309 0.33771 0.0
H1647 H 0.14956 0.34937 0.33208 0.0
H1648 H 0.13189 0.27336 0.3304 0.0
H1649 H 0.14721 0.3133 0.31056 0.0
H1650 H 0.20135 0.33778 0.38791 0.0
H1651 H 0.18618 0.29761 0.40764 0.0
C1652 C 0.2162 0.39149 0.32104 0.0
C1653 C 0.20036 0.39925 0.31339 0.0
C1654 C 0.20812 0.36866 0.33247 0.0
C1655 C 0.18404 0.35308 0.33636 0.0
C1656 C 0.16822 0.36089 0.32888 0.0
C1657 C 0.17629 0.38373 0.31756 0.0
C1658 C 0.14713 0.2872 0.34315 0.0
C1659 C 0.15777 0.28229 0.37071 0.0
C1660 C 0.1558 0.31012 0.33189 0.0
C1661 C 0.17536 0.32869 0.34785 0.0
C1662 C 0.18633 0.32379 0.37497 0.0
C1663 C 0.17759 0.3008 0.38633 0.0
H1664 H 0.63164 0.84684 0.24319 0.0
H1665 H 0.6092 0.79693 0.32644 0.0
H1666 H 0.67112 0.86703 0.26676 0.0
H1667 H 0.64859 0.81746 0.3504 0.0
H1668 H 0.72714 0.84171 0.35487 0.0
H1669 H 0.68672 0.82305 0.3357 0.0
H1670 H 0.6944 0.89085 0.31505 0.0
H1671 H 0.73518 0.90962 0.33361 0.0
C1672 C 0.63508 0.84028 0.26667 0.0
C1673 C 0.61731 0.82019 0.28281 0.0
C1674 C 0.65768 0.85197 0.28032 0.0
C1675 C 0.66301 0.84384 0.31044 0.0
C1676 C 0.64513 0.82398 0.3269 0.0
C1677 C 0.62253 0.81227 0.31323 0.0
C1678 C 0.72021 0.8527 0.34646 0.0
C1679 C 0.73444 0.87717 0.3456 0.0
C1680 C 0.69696 0.84198 0.33567 0.0
C1681 C 0.68734 0.85546 0.32379 0.0
C1682 C 0.7014 0.87997 0.32364 0.0
C1683 C 0.72471 0.89073 0.33447 0.0
H1684 H 0.19286 0.79411 0.32888 0.0
H1685 H 0.14803 0.7767 0.23983 0.0
H1686 H 0.17152 0.81096 0.35653 0.0
H1687 H 0.12708 0.79407 0.26712 0.0
H1688 H 0.08241 0.81191 0.33434 0.0
H1689 H 0.10087 0.79009 0.31357 0.0
H1690 H 0.16792 0.84524 0.34946 0.0
H1691 H 0.14948 0.8667 0.3709 0.0
C1692 C 0.17844 0.79386 0.3152 0.0
C1693 C 0.17224 0.78419 0.28205 0.0
C1694 C 0.16626 0.8036 0.33101 0.0
C1695 C 0.14764 0.80396 0.31401 0.0
C1696 C 0.14112 0.79381 0.28116 0.0
C1697 C 0.15326 0.78401 0.26538 0.0
C1698 C 0.10104 0.81921 0.33821 0.0
C1699 C 0.11449 0.84112 0.35409 0.0
C1700 C 0.11164 0.80679 0.32608 0.0
C1701 C 0.13591 0.81599 0.32959 0.0
C1702 C 0.14916 0.83749 0.34663 0.0
C1703 C 0.13858 0.84988 0.35878 0.0
H1704 H 0.69965 0.85117 0.93499 0.0
H1705 H 0.73612 0.87922 0.83914 0.0
H1706 H 0.66239 0.83849 0.9061 0.0
H1707 H 0.69873 0.86656 0.81034 0.0
H1708 H 0.62646 0.85999 0.78326 0.0
H1709 H 0.66455 0.87474 0.81119 0.0
H1710 H 0.63958 0.80787 0.86056 0.0
H1711 H 0.60171 0.79307 0.83273 0.0
C1712 C 0.69975 0.8548 0.90783 0.0
C1713 C 0.72084 0.86609 0.88933 0.0
C1714 C 0.6784 0.84742 0.89128 0.0
C1715 C 0.67769 0.85142 0.85596 0.0
C1716 C 0.6988 0.86334 0.83762 0.0
C1717 C 0.72016 0.87048 0.8541 0.0
C1718 C 0.62916 0.84842 0.79995 0.0
C1719 C 0.61105 0.82538 0.8058 0.0
C1720 C 0.65096 0.85685 0.81583 0.0
C1721 C 0.65492 0.84249 0.83822 0.0
C1722 C 0.6369 0.81941 0.84378 0.0
C1723 C 0.61526 0.81091 0.82762 0.0
H1724 H 0.13206 0.76521 0.75762 0.0
H1725 H 0.18488 0.78734 0.83683 0.0
H1726 H 0.11667 0.78813 0.78472 0.0
H1727 H 0.16965 0.8104 0.86357 0.0
H1728 H 0.12186 0.83112 0.92021 0.0
H1729 H 0.13487 0.80579 0.89446 0.0
H1730 H 0.12973 0.82995 0.79349 0.0
H1731 H 0.11652 0.85505 0.81905 0.0
C1732 C 0.14036 0.77491 0.78082 0.0
C1733 C 0.15974 0.77449 0.79498 0.0
C1734 C 0.13161 0.78812 0.79624 0.0
C1735 C 0.14198 0.8011 0.82625 0.0
C1736 C 0.16112 0.80038 0.84069 0.0
C1737 C 0.16993 0.78727 0.8252 0.0
C1738 C 0.12344 0.83097 0.89252 0.0
C1739 C 0.1182 0.84514 0.87171 0.0
C1740 C 0.13099 0.81654 0.87779 0.0
C1741 C 0.13331 0.81587 0.84194 0.0
C1742 C 0.12784 0.82986 0.82115 0.0
C1743 C 0.12043 0.84437 0.83585 0.0
H1744 H 0.22851 0.37118 0.7853 0.0
H1745 H 0.18791 0.3956 0.84049 0.0
H1746 H 0.20328 0.33179 0.80803 0.0
H1747 H 0.1629 0.35639 0.8631 0.0
H1748 H 0.14184 0.29114 0.92819 0.0
H1749 H 0.16802 0.32976 0.9043 0.0
H1750 H 0.16068 0.29917 0.8037 0.0
H1751 H 0.13441 0.26043 0.82752 0.0
C1752 C 0.21418 0.36814 0.80213 0.0
C1753 C 0.21024 0.38653 0.81113 0.0
C1754 C 0.19972 0.3456 0.81504 0.0
C1755 C 0.18126 0.34111 0.83751 0.0
C1756 C 0.1772 0.35943 0.84619 0.0
C1757 C 0.19144 0.38185 0.83303 0.0
C1758 C 0.1459 0.29259 0.90102 0.0
C1759 C 0.13596 0.27273 0.87973 0.0
C1760 C 0.16078 0.31473 0.88732 0.0
C1761 C 0.16625 0.31746 0.85212 0.0
C1762 C 0.15684 0.29755 0.83096 0.0
C1763 C 0.14173 0.27541 0.84459 0.0
H1764 H 0.8785 0.7166 0.56982 0.0
H1765 H 0.88394 0.74763 0.66973 0.0
H1766 H 0.87077 0.68018 0.59735 0.0
H1767 H 0.87606 0.71124 0.69709 0.0
H1768 H 0.87793 0.64759 0.7366 0.0
H1769 H 0.89214 0.68457 0.70599 0.0
H1770 H 0.83714 0.6499 0.63083 0.0
H1771 H 0.82305 0.61301 0.66109 0.0
C1772 C 0.87827 0.71574 0.59762 0.0
C1773 C 0.88165 0.73494 0.61759 0.0
C1774 C 0.87376 0.69486 0.61336 0.0
C1775 C 0.87274 0.69285 0.64935 0.0
C1776 C 0.87697 0.71233 0.66931 0.0
C1777 C 0.88131 0.73313 0.6536 0.0
C1778 C 0.86905 0.64782 0.71332 0.0
C1779 C 0.84926 0.62741 0.70142 0.0
C1780 C 0.87713 0.669 0.69591 0.0
C1781 C 0.8657 0.67012 0.6661 0.0
C1782 C 0.84646 0.64954 0.65353 0.0
C1783 C 0.83828 0.62844 0.67104 0.0
H1784 H 0.28307 0.17075 0.5777 0.0
H1785 H 0.26547 0.12382 0.66414 0.0
H1786 H 0.32226 0.19511 0.60105 0.0
H1787 H 0.3045 0.14844 0.68778 0.0
H1788 H 0.3846 0.18211 0.69484 0.0
H1789 H 0.3445 0.15856 0.67456 0.0
H1790 H 0.34307 0.22146 0.64864 0.0
H1791 H 0.38339 0.24507 0.6683 0.0
C1792 C 0.2875 0.16572 0.60179 0.0
C1793 C 0.27118 0.14529 0.61897 0.0
C1794 C 0.30992 0.17976 0.61529 0.0
C1795 C 0.3165 0.1737 0.64626 0.0
C1796 C 0.30008 0.15342 0.66364 0.0
C1797 C 0.27767 0.13938 0.65015 0.0
C1798 C 0.37571 0.19094 0.68501 0.0
C1799 C 0.38723 0.21547 0.68305 0.0
C1800 C 0.35266 0.17743 0.67354 0.0
C1801 C 0.34062 0.18814 0.65989 0.0
C1802 C 0.35199 0.21268 0.65857 0.0
C1803 C 0.37504 0.22621 0.67004 0.0
H1804 H 0.89679 0.18184 0.60612 0.0
H1805 H 0.84373 0.10999 0.62445 0.0
H1806 H 0.87038 0.19481 0.62717 0.0
H1807 H 0.81754 0.123 0.64652 0.0
H1808 H 0.76837 0.15331 0.64665 0.0
H1809 H 0.79463 0.13968 0.62752 0.0
H1810 H 0.85234 0.19835 0.67849 0.0
H1811 H 0.82616 0.21239 0.69674 0.0
C1812 C 0.87953 0.16881 0.61483 0.0
C1813 C 0.87235 0.14488 0.6135 0.0
C1814 C 0.86443 0.17626 0.62717 0.0
C1815 C 0.84182 0.15997 0.63867 0.0
C1816 C 0.8347 0.13602 0.63744 0.0
C1817 C 0.84976 0.12856 0.62492 0.0
C1818 C 0.78664 0.16325 0.65395 0.0
C1819 C 0.79518 0.184 0.67312 0.0
C1820 C 0.8017 0.15536 0.64311 0.0
C1821 C 0.82565 0.16794 0.65134 0.0
C1822 C 0.83408 0.18844 0.67116 0.0
C1823 C 0.81904 0.19641 0.68185 0.0
H1824 H 0.04931 0.49304 0.50722 0.0
H1825 H 0.03264 0.51814 0.59964 0.0
H1826 H 0.00876 0.47616 0.48807 0.0
H1827 H 0.99223 0.50113 0.58061 0.0
H1828 H 0.93247 0.49593 0.51512 0.0
H1829 H 0.97244 0.51019 0.53424 0.0
H1830 H 0.96775 0.44526 0.50253 0.0
H1831 H 0.92758 0.43092 0.48301 0.0
C1832 C 0.03697 0.49475 0.5236 0.0
C1833 C 0.04424 0.50708 0.55485 0.0
C1834 C 0.01373 0.48501 0.51268 0.0
C1835 C 0.99738 0.48752 0.53268 0.0
C1836 C 0.00453 0.49925 0.56437 0.0
C1837 C 0.02767 0.50887 0.57535 0.0
C1838 C 0.93992 0.48467 0.51209 0.0
C1839 C 0.92681 0.46226 0.4976 0.0
C1840 C 0.96279 0.4928 0.52329 0.0
C1841 C 0.97316 0.47877 0.52016 0.0
C1842 C 0.96023 0.45649 0.50514 0.0
C1843 C 0.93723 0.44827 0.49407 0.0
H1844 H 0.4436 0.51475 0.49481 0.0
H1845 H 0.5092 0.55514 0.54863 0.0
H1846 H 0.45527 0.48662 0.47769 0.0
H1847 H 0.52073 0.52664 0.53182 0.0
H1848 H 0.54321 0.4869 0.45704 0.0
H1849 H 0.53159 0.51423 0.47866 0.0
H1850 H 0.46267 0.45657 0.5015 0.0
H1851 H 0.47416 0.42915 0.47937 0.0
C1852 C 0.46047 0.51757 0.50319 0.0
C1853 C 0.47552 0.53727 0.52298 0.0
C1854 C 0.46707 0.50132 0.49356 0.0
C1855 C 0.4889 0.50438 0.50343 0.0
C1856 C 0.50388 0.52394 0.52353 0.0
C1857 C 0.49724 0.54021 0.53326 0.0
C1858 C 0.52558 0.48001 0.46675 0.0
C1859 C 0.50956 0.45583 0.4663 0.0
C1860 C 0.519 0.49568 0.47938 0.0
C1861 C 0.49622 0.48757 0.49177 0.0
C1862 C 0.48028 0.46337 0.49176 0.0
C1863 C 0.48689 0.44766 0.47921 0.0
H1864 H 0.53572 0.05584 0.50153 0.0
H1865 H 0.50546 0.02569 0.40296 0.0
H1866 H 0.514 0.01743 0.52803 0.0
H1867 H 0.48432 0.9871 0.42926 0.0
H1868 H 0.43106 0.92577 0.49258 0.0
H1869 H 0.45236 0.9647 0.46745 0.0
H1870 H 0.5122 0.98045 0.53102 0.0
H1871 H 0.49062 0.94181 0.55693 0.0
C1872 C 0.52461 0.04097 0.48544 0.0
C1873 C 0.52228 0.04382 0.45014 0.0
C1874 C 0.51222 0.01891 0.50062 0.0
C1875 C 0.49736 -0.00085 0.48082 0.0
C1876 C 0.49528 0.00199 0.44541 0.0
C1877 C 0.50754 0.02409 0.43026 0.0
C1878 C 0.44871 0.9376 0.50134 0.0
C1879 C 0.45915 0.9307 0.52675 0.0
C1880 C 0.461 0.95986 0.48673 0.0
C1881 C 0.48406 0.97568 0.49703 0.0
C1882 C 0.49437 0.96884 0.52277 0.0
C1883 C 0.48202 0.94663 0.53755 0.0
H1884 H 0.55416 0.04286 0.92019 0.0
H1885 H 0.5142 0.05833 0.99296 0.0
H1886 H 0.53492 0.0025 0.94064 0.0
H1887 H 0.49549 0.01834 0.01381 0.0
H1888 H 0.44981 0.93973 0.02128 0.0
H1889 H 0.46789 0.97884 -0.00313 0.0
H1890 H 0.53423 0.98072 0.99165 0.0
H1891 H 0.51599 0.94127 0.01536 0.0
C1892 C 0.54125 0.03766 0.94045 0.0
C1893 C 0.53572 0.05382 0.95492 0.0
C1894 C 0.53035 0.01458 0.95234 0.0
C1895 C 0.5137 0.00721 0.9789 0.0
C1896 C 0.50799 0.02333 0.993 0.0
C1897 C 0.51883 0.04633 0.98113 0.0
C1898 C 0.46826 0.94846 0.01493 0.0
C1899 C 0.48149 0.93741 0.02041 0.0
C1900 C 0.47864 0.97093 0.00103 0.0
C1901 C 0.50252 0.98294 0.9924 0.0
C1902 C 0.51573 0.97183 -0.00238 0.0
C1903 C 0.50531 0.94929 0.01146 0.0
H1904 H 0.93167 0.48114 0.98652 0.0
H1905 H 0.94348 0.42579 0.95104 0.0
H1906 H 0.97262 0.50437 0.00255 0.0
H1907 H 0.98478 0.44941 0.96644 0.0
H1908 H 0.05128 0.48851 0.03194 0.0
H1909 H 0.0101 0.46464 0.0166 0.0
H1910 H 0.01065 0.52581 0.97597 0.0
H1911 H 0.05164 0.54977 0.99201 0.0
C1912 C 0.94303 0.47395 0.98196 0.0
C1913 C 0.9343 0.45159 0.96744 0.0
C1914 C 0.96657 0.48736 0.99099 0.0
C1915 C 0.982 0.47881 0.98564 0.0
C1916 C 0.97328 0.4564 0.97124 0.0
C1917 C 0.94965 0.44292 0.96224 0.0
C1918 C 0.04259 0.49688 0.01983 0.0
C1919 C 0.05472 0.52107 0.01329 0.0
C1920 C 0.01903 0.48316 0.01081 0.0
C1921 C 0.00709 0.4933 0.99504 0.0
C1922 C 0.01924 0.5175 0.98853 0.0
C1923 C 0.04278 0.53122 -0.0024 0.0
H1924 H 0.5105 0.46634 0.90232 0.0
H1925 H 0.56172 0.49732 0.98357 0.0
H1926 H 0.48703 0.48106 0.92929 0.0
H1927 H 0.53802 0.51165 0.01081 0.0
H1928 H 0.50104 0.5536 0.0304 0.0
H1929 H 0.52501 0.53992 0.00236 0.0
H1930 H 0.46305 0.47368 0.98079 0.0
H1931 H 0.43896 0.48751 0.00831 0.0
C1932 C 0.51679 0.47634 0.92587 0.0
C1933 C 0.53798 0.48064 0.9408 0.0
C1934 C 0.50324 0.48461 0.94147 0.0
C1935 C 0.51059 0.49741 0.97229 0.0
C1936 C 0.53198 0.50204 0.9869 0.0
C1937 C 0.54552 0.49375 0.97134 0.0
C1938 C 0.4925 0.5361 0.01974 0.0
C1939 C 0.46807 0.52164 0.02159 0.0
C1940 C 0.50627 0.52823 0.0038 0.0
C1941 C 0.49593 0.50573 0.9893 0.0
C1942 C 0.47151 0.49123 0.99129 0.0
C1943 C 0.45772 0.49909 0.00728 0.0
loop_
_geom_bond_atom_site_label_1
_geom_bond_atom_site_label_2
_geom_bond_distance
_geom_bond_site_symmetry_2
_ccdc_geom_bond_type
Zn0 O3 2.031 . S
Zn0 O5 2.049 . S
Zn0 O10 2.067 . S
Zn1 O2 1.962 . S
Zn1 O4 1.986 . S
Zn1 O6 1.996 . S
Zn1 O9 1.943 . S
O2 Zn1 1.962 . S
O2 C7 1.254 . S
O3 Zn0 2.031 . S
O3 C7 1.269 . S
O4 Zn1 1.986 . S
O4 C11 1.262 . S
O5 Zn0 2.049 . S
O5 C13 1.260 . S
O6 Zn1 1.996 . S
O6 C13 1.257 . S
C7 O2 1.254 . S
C7 O3 1.269 . S
C8 O9 1.249 . S
C8 O10 1.270 . S
O9 Zn1 1.943 . S
O9 C8 1.249 . S
O10 Zn0 2.067 . S
O10 C8 1.270 . S
C11 O4 1.262 . S
C11 O12 1.232 . S
O12 C11 1.232 . S
C13 O5 1.260 . S
C13 O6 1.257 . S
Zn14 O17 2.031 . S
Zn14 O19 2.049 . S
Zn14 O24 2.067 . S
Zn15 O16 1.962 . S
Zn15 O18 1.986 . S
Zn15 O20 1.996 . S
Zn15 O23 1.943 . S
O16 Zn15 1.962 . S
O16 C21 1.254 . S
O17 Zn14 2.031 . S
O17 C21 1.269 . S
O18 Zn15 1.986 . S
O18 C25 1.262 . S
O19 Zn14 2.049 . S
O19 C27 1.260 . S
O20 Zn15 1.996 . S
O20 C27 1.257 . S
C21 O16 1.254 . S
C21 O17 1.269 . S
C22 O23 1.249 . S
C22 O24 1.270 . S
O23 Zn15 1.943 . S
O23 C22 1.249 . S
O24 Zn14 2.067 . S
O24 C22 1.270 . S
C25 O18 1.262 . S
C25 O26 1.232 . S
O26 C25 1.232 . S
C27 O19 1.260 . S
C27 O20 1.257 . S
Zn28 O31 2.031 . S
Zn28 O33 2.049 . S
Zn28 O38 2.067 . S
Zn29 O30 1.962 . S
Zn29 O32 1.986 . S
Zn29 O34 1.996 . S
Zn29 O37 1.943 . S
O30 Zn29 1.962 . S
O30 C35 1.254 . S
O31 Zn28 2.031 . S
O31 C35 1.269 . S
O32 Zn29 1.986 . S
O32 C39 1.262 . S
O33 Zn28 2.049 . S
O33 C41 1.260 . S
O34 Zn29 1.996 . S
O34 C41 1.257 . S
C35 O30 1.254 . S
C35 O31 1.269 . S
C36 O37 1.249 . S
C36 O38 1.270 . S
O37 Zn29 1.943 . S
O37 C36 1.249 . S
O38 Zn28 2.067 . S
O38 C36 1.270 . S
C39 O32 1.262 . S
C39 O40 1.232 . S
O40 C39 1.232 . S
C41 O33 1.260 . S
C41 O34 1.257 . S
Zn42 O45 2.031 . S
Zn42 O47 2.049 . S
Zn42 O52 2.067 . S
Zn43 O44 1.962 . S
Zn43 O46 1.986 . S
Zn43 O48 1.996 . S
Zn43 O51 1.943 . S
O44 Zn43 1.962 . S
O44 C49 1.254 . S
O45 Zn42 2.031 . S
O45 C49 1.269 . S
O46 Zn43 1.986 . S
O46 C53 1.262 . S
O47 Zn42 2.049 . S
O47 C55 1.260 . S
O48 Zn43 1.996 . S
O48 C55 1.257 . S
C49 O44 1.254 . S
C49 O45 1.269 . S
C50 O51 1.249 . S
C50 O52 1.270 . S
O51 Zn43 1.943 . S
O51 C50 1.249 . S
O52 Zn42 2.067 . S
O52 C50 1.270 . S
C53 O46 1.262 . S
C53 O54 1.232 . S
O54 C53 1.232 . S
C55 O47 1.260 . S
C55 O48 1.257 . S
Zn56 O59 2.031 . S
Zn56 O61 2.049 . S
Zn56 O66 2.067 . S
Zn57 O58 1.962 . S
Zn57 O60 1.986 . S
Zn57 O62 1.996 . S
Zn57 O65 1.943 . S
O58 Zn57 1.962 . S
O58 C63 1.254 . S
O59 Zn56 2.031 . S
O59 C63 1.269 . S
O60 Zn57 1.986 . S
O60 C67 1.262 . S
O61 Zn56 2.049 . S
O61 C69 1.260 . S
O62 Zn57 1.996 . S
O62 C69 1.257 . S
C63 O58 1.254 . S
C63 O59 1.269 . S
C64 O65 1.249 . S
C64 O66 1.270 . S
O65 Zn57 1.943 . S
O65 C64 1.249 . S
O66 Zn56 2.067 . S
O66 C64 1.270 . S
C67 O60 1.262 . S
C67 O68 1.232 . S
O68 C67 1.232 . S
C69 O61 1.260 . S
C69 O62 1.257 . S
Zn70 O73 2.031 . S
Zn70 O75 2.049 . S
Zn70 O80 2.067 . S
Zn71 O72 1.962 . S
Zn71 O74 1.986 . S
Zn71 O76 1.996 . S
Zn71 O79 1.943 . S
O72 Zn71 1.962 . S
O72 C77 1.254 . S
O73 Zn70 2.031 . S
O73 C77 1.269 . S
O74 Zn71 1.986 . S
O74 C81 1.262 . S
O75 Zn70 2.049 . S
O75 C83 1.260 . S
O76 Zn71 1.996 . S
O76 C83 1.257 . S
C77 O72 1.254 . S
C77 O73 1.269 . S
C78 O79 1.249 . S
C78 O80 1.270 . S
O79 Zn71 1.943 . S
O79 C78 1.249 . S
O80 Zn70 2.067 . S
O80 C78 1.270 . S
C81 O74 1.262 . S
C81 O82 1.232 . S
O82 C81 1.232 . S
C83 O75 1.260 . S
C83 O76 1.257 . S
Zn84 O87 2.031 . S
Zn84 O89 2.049 . S
Zn84 O94 2.067 . S
Zn85 O86 1.962 . S
Zn85 O88 1.986 . S
Zn85 O90 1.996 . S
Zn85 O93 1.943 . S
O86 Zn85 1.962 . S
O86 C91 1.254 . S
O87 Zn84 2.031 . S
O87 C91 1.269 . S
O88 Zn85 1.986 . S
O88 C95 1.262 . S
O89 Zn84 2.049 . S
O89 C97 1.260 . S
O90 Zn85 1.996 . S
O90 C97 1.257 . S
C91 O86 1.254 . S
C91 O87 1.269 . S
C92 O93 1.249 . S
C92 O94 1.270 . S
O93 Zn85 1.943 . S
O93 C92 1.249 . S
O94 Zn84 2.067 . S
O94 C92 1.270 . S
C95 O88 1.262 . S
C95 O96 1.232 . S
O96 C95 1.232 . S
C97 O89 1.260 . S
C97 O90 1.257 . S
Zn98 O101 2.031 . S
Zn98 O103 2.049 . S
Zn98 O108 2.067 . S
Zn99 O100 1.962 . S
Zn99 O102 1.986 . S
Zn99 O104 1.996 . S
Zn99 O107 1.943 . S
O100 Zn99 1.962 . S
O100 C105 1.254 . S
O101 Zn98 2.031 . S
O101 C105 1.269 . S
O102 Zn99 1.986 . S
O102 C109 1.262 . S
O103 Zn98 2.049 . S
O103 C111 1.260 . S
O104 Zn99 1.996 . S
O104 C111 1.257 . S
C105 O100 1.254 . S
C105 O101 1.269 . S
C106 O107 1.249 . S
C106 O108 1.270 . S
O107 Zn99 1.943 . S
O107 C106 1.249 . S
O108 Zn98 2.067 . S
O108 C106 1.270 . S
C109 O102 1.262 . S
C109 O110 1.232 . S
O110 C109 1.232 . S
C111 O103 1.260 . S
C111 O104 1.257 . S
Zn112 O115 2.031 . S
Zn112 O117 2.049 . S
Zn112 O122 2.067 . S
Zn113 O114 1.962 . S
Zn113 O116 1.986 . S
Zn113 O118 1.996 . S
Zn113 O121 1.943 . S
O114 Zn113 1.962 . S
O114 C119 1.254 . S
O115 Zn112 2.031 . S
O115 C119 1.269 . S
O116 Zn113 1.986 . S
O116 C123 1.262 . S
O117 Zn112 2.049 . S
O117 C125 1.260 . S
O118 Zn113 1.996 . S
O118 C125 1.257 . S
C119 O114 1.254 . S
C119 O115 1.269 . S
C120 O121 1.249 . S
C120 O122 1.270 . S
O121 Zn113 1.943 . S
O121 C120 1.249 . S
O122 Zn112 2.067 . S
O122 C120 1.270 . S
C123 O116 1.262 . S
C123 O124 1.232 . S
O124 C123 1.232 . S
C125 O117 1.260 . S
C125 O118 1.257 . S
Zn126 O129 2.031 . S
Zn126 O131 2.049 . S
Zn126 O136 2.067 . S
Zn127 O128 1.962 . S
Zn127 O130 1.986 . S
Zn127 O132 1.996 . S
Zn127 O135 1.943 . S
O128 Zn127 1.962 . S
O128 C133 1.254 . S
O129 Zn126 2.031 . S
O129 C133 1.269 . S
O130 Zn127 1.986 . S
O130 C137 1.262 . S
O131 Zn126 2.049 . S
O131 C139 1.260 . S
O132 Zn127 1.996 . S
O132 C139 1.257 . S
C133 O128 1.254 . S
C133 O129 1.269 . S
C134 O135 1.249 . S
C134 O136 1.270 . S
O135 Zn127 1.943 . S
O135 C134 1.249 . S
O136 Zn126 2.067 . S
O136 C134 1.270 . S
C137 O130 1.262 . S
C137 O138 1.232 . S
O138 C137 1.232 . S
C139 O131 1.260 . S
C139 O132 1.257 . S
Zn140 O143 2.031 . S
Zn140 O145 2.049 . S
Zn140 O150 2.067 . S
Zn141 O142 1.962 . S
Zn141 O144 1.986 . S
Zn141 O146 1.996 . S
Zn141 O149 1.943 . S
O142 Zn141 1.962 . S
O142 C147 1.254 . S
O143 Zn140 2.031 . S
O143 C147 1.269 . S
O144 Zn141 1.986 . S
O144 C151 1.262 . S
O145 Zn140 2.049 . S
O145 C153 1.260 . S
O146 Zn141 1.996 . S
O146 C153 1.257 . S
C147 O142 1.254 . S
C147 O143 1.269 . S
C148 O149 1.249 . S
C148 O150 1.270 . S
O149 Zn141 1.943 . S
O149 C148 1.249 . S
O150 Zn140 2.067 . S
O150 C148 1.270 . S
C151 O144 1.262 . S
C151 O152 1.232 . S
O152 C151 1.232 . S
C153 O145 1.260 . S
C153 O146 1.257 . S
Zn154 O157 2.031 . S
Zn154 O159 2.049 . S
Zn154 O164 2.067 . S
Zn155 O156 1.962 . S
Zn155 O158 1.986 . S
Zn155 O160 1.996 . S
Zn155 O163 1.943 . S
O156 Zn155 1.962 . S
O156 C161 1.254 . S
O157 Zn154 2.031 . S
O157 C161 1.269 . S
O158 Zn155 1.986 . S
O158 C165 1.262 . S
O159 Zn154 2.049 . S
O159 C167 1.260 . S
O160 Zn155 1.996 . S
O160 C167 1.257 . S
C161 O156 1.254 . S
C161 O157 1.269 . S
C162 O163 1.249 . S
C162 O164 1.270 . S
O163 Zn155 1.943 . S
O163 C162 1.249 . S
O164 Zn154 2.067 . S
O164 C162 1.270 . S
C165 O158 1.262 . S
C165 O166 1.232 . S
O166 C165 1.232 . S
C167 O159 1.260 . S
C167 O160 1.257 . S
Zn168 O171 2.031 . S
Zn168 O173 2.049 . S
Zn168 O178 2.067 . S
Zn169 O170 1.962 . S
Zn169 O172 1.986 . S
Zn169 O174 1.996 . S
Zn169 O177 1.943 . S
O170 Zn169 1.962 . S
O170 C175 1.254 . S
O171 Zn168 2.031 . S
O171 C175 1.269 . S
O172 Zn169 1.986 . S
O172 C179 1.262 . S
O173 Zn168 2.049 . S
O173 C181 1.260 . S
O174 Zn169 1.996 . S
O174 C181 1.257 . S
C175 O170 1.254 . S
C175 O171 1.269 . S
C176 O177 1.249 . S
C176 O178 1.270 . S
O177 Zn169 1.943 . S
O177 C176 1.249 . S
O178 Zn168 2.067 . S
O178 C176 1.270 . S
C179 O172 1.262 . S
C179 O180 1.232 . S
O180 C179 1.232 . S
C181 O173 1.260 . S
C181 O174 1.257 . S
Zn182 O185 2.031 . S
Zn182 O187 2.049 . S
Zn182 O192 2.067 . S
Zn183 O184 1.962 . S
Zn183 O186 1.986 . S
Zn183 O188 1.996 . S
Zn183 O191 1.943 . S
O184 Zn183 1.962 . S
O184 C189 1.254 . S
O185 Zn182 2.031 . S
O185 C189 1.269 . S
O186 Zn183 1.986 . S
O186 C193 1.262 . S
O187 Zn182 2.049 . S
O187 C195 1.260 . S
O188 Zn183 1.996 . S
O188 C195 1.257 . S
C189 O184 1.254 . S
C189 O185 1.269 . S
C190 O191 1.249 . S
C190 O192 1.270 . S
O191 Zn183 1.943 . S
O191 C190 1.249 . S
O192 Zn182 2.067 . S
O192 C190 1.270 . S
C193 O186 1.262 . S
C193 O194 1.232 . S
O194 C193 1.232 . S
C195 O187 1.260 . S
C195 O188 1.257 . S
Zn196 O199 2.031 . S
Zn196 O201 2.049 . S
Zn196 O206 2.067 . S
Zn197 O198 1.962 . S
Zn197 O200 1.986 . S
Zn197 O202 1.996 . S
Zn197 O205 1.943 . S
O198 Zn197 1.962 . S
O198 C203 1.254 . S
O199 Zn196 2.031 . S
O199 C203 1.269 . S
O200 Zn197 1.986 . S
O200 C207 1.262 . S
O201 Zn196 2.049 . S
O201 C209 1.260 . S
O202 Zn197 1.996 . S
O202 C209 1.257 . S
C203 O198 1.254 . S
C203 O199 1.269 . S
C204 O205 1.249 . S
C204 O206 1.270 . S
O205 Zn197 1.943 . S
O205 C204 1.249 . S
O206 Zn196 2.067 . S
O206 C204 1.270 . S
C207 O200 1.262 . S
C207 O208 1.232 . S
O208 C207 1.232 . S
C209 O201 1.260 . S
C209 O202 1.257 . S
Zn210 O213 2.031 . S
Zn210 O215 2.049 . S
Zn210 O220 2.067 . S
Zn211 O212 1.962 . S
Zn211 O214 1.986 . S
Zn211 O216 1.996 . S
Zn211 O219 1.943 . S
O212 Zn211 1.962 . S
O212 C217 1.254 . S
O213 Zn210 2.031 . S
O213 C217 1.269 . S
O214 Zn211 1.986 . S
O214 C221 1.262 . S
O215 Zn210 2.049 . S
O215 C223 1.260 . S
O216 Zn211 1.996 . S
O216 C223 1.257 . S
C217 O212 1.254 . S
C217 O213 1.269 . S
C218 O219 1.249 . S
C218 O220 1.270 . S
O219 Zn211 1.943 . S
O219 C218 1.249 . S
O220 Zn210 2.067 . S
O220 C218 1.270 . S
C221 O214 1.262 . S
C221 O222 1.232 . S
O222 C221 1.232 . S
C223 O215 1.260 . S
C223 O216 1.257 . S
Zn224 O227 2.031 . S
Zn224 O229 2.049 . S
Zn224 O234 2.067 . S
Zn225 O226 1.962 . S
Zn225 O228 1.986 . S
Zn225 O230 1.996 . S
Zn225 O233 1.943 . S
O226 Zn225 1.962 . S
O226 C231 1.254 . S
O227 Zn224 2.031 . S
O227 C231 1.269 . S
O228 Zn225 1.986 . S
O228 C235 1.262 . S
O229 Zn224 2.049 . S
O229 C237 1.260 . S
O230 Zn225 1.996 . S
O230 C237 1.257 . S
C231 O226 1.254 . S
C231 O227 1.269 . S
C232 O233 1.249 . S
C232 O234 1.270 . S
O233 Zn225 1.943 . S
O233 C232 1.249 . S
O234 Zn224 2.067 . S
O234 C232 1.270 . S
C235 O228 1.262 . S
C235 O236 1.232 . S
O236 C235 1.232 . S
C237 O229 1.260 . S
C237 O230 1.257 . S
Zn238 O241 2.031 . S
Zn238 O243 2.049 . S
Zn238 O248 2.067 . S
Zn239 O240 1.962 . S
Zn239 O242 1.986 . S
Zn239 O244 1.996 . S
Zn239 O247 1.943 . S
O240 Zn239 1.962 . S
O240 C245 1.254 . S
O241 Zn238 2.031 . S
O241 C245 1.269 . S
O242 Zn239 1.986 . S
O242 C249 1.262 . S
O243 Zn238 2.049 . S
O243 C251 1.260 . S
O244 Zn239 1.996 . S
O244 C251 1.257 . S
C245 O240 1.254 . S
C245 O241 1.269 . S
C246 O247 1.249 . S
C246 O248 1.270 . S
O247 Zn239 1.943 . S
O247 C246 1.249 . S
O248 Zn238 2.067 . S
O248 C246 1.270 . S
C249 O242 1.262 . S
C249 O250 1.232 . S
O250 C249 1.232 . S
C251 O243 1.260 . S
C251 O244 1.257 . S
Zn252 O255 2.031 . S
Zn252 O257 2.049 . S
Zn252 O262 2.067 . S
Zn253 O254 1.962 . S
Zn253 O256 1.986 . S
Zn253 O258 1.996 . S
Zn253 O261 1.943 . S
O254 Zn253 1.962 . S
O254 C259 1.254 . S
O255 Zn252 2.031 . S
O255 C259 1.269 . S
O256 Zn253 1.986 . S
O256 C263 1.262 . S
O257 Zn252 2.049 . S
O257 C265 1.260 . S
O258 Zn253 1.996 . S
O258 C265 1.257 . S
C259 O254 1.254 . S
C259 O255 1.269 . S
C260 O261 1.249 . S
C260 O262 1.270 . S
O261 Zn253 1.943 . S
O261 C260 1.249 . S
O262 Zn252 2.067 . S
O262 C260 1.270 . S
C263 O256 1.262 . S
C263 O264 1.232 . S
O264 C263 1.232 . S
C265 O257 1.260 . S
C265 O258 1.257 . S
Zn266 O269 2.031 . S
Zn266 O271 2.049 . S
Zn266 O276 2.067 . S
Zn267 O268 1.962 . S
Zn267 O270 1.986 . S
Zn267 O272 1.996 . S
Zn267 O275 1.943 . S
O268 Zn267 1.962 . S
O268 C273 1.254 . S
O269 Zn266 2.031 . S
O269 C273 1.269 . S
O270 Zn267 1.986 . S
O270 C277 1.262 . S
O271 Zn266 2.049 . S
O271 C279 1.260 . S
O272 Zn267 1.996 . S
O272 C279 1.257 . S
C273 O268 1.254 . S
C273 O269 1.269 . S
C274 O275 1.249 . S
C274 O276 1.270 . S
O275 Zn267 1.943 . S
O275 C274 1.249 . S
O276 Zn266 2.067 . S
O276 C274 1.270 . S
C277 O270 1.262 . S
C277 O278 1.232 . S
O278 C277 1.232 . S
C279 O271 1.260 . S
C279 O272 1.257 . S
Zn280 O283 2.031 . S
Zn280 O285 2.049 . S
Zn280 O290 2.067 . S
Zn281 O282 1.962 . S
Zn281 O284 1.986 . S
Zn281 O286 1.996 . S
Zn281 O289 1.943 . S
O282 Zn281 1.962 . S
O282 C287 1.254 . S
O283 Zn280 2.031 . S
O283 C287 1.269 . S
O284 Zn281 1.986 . S
O284 C291 1.262 . S
O285 Zn280 2.049 . S
O285 C293 1.260 . S
O286 Zn281 1.996 . S
O286 C293 1.257 . S
C287 O282 1.254 . S
C287 O283 1.269 . S
C288 O289 1.249 . S
C288 O290 1.270 . S
O289 Zn281 1.943 . S
O289 C288 1.249 . S
O290 Zn280 2.067 . S
O290 C288 1.270 . S
C291 O284 1.262 . S
C291 O292 1.232 . S
O292 C291 1.232 . S
C293 O285 1.260 . S
C293 O286 1.257 . S
Zn294 O297 2.031 . S
Zn294 O299 2.049 . S
Zn294 O304 2.067 . S
Zn295 O296 1.962 . S
Zn295 O298 1.986 . S
Zn295 O300 1.996 . S
Zn295 O303 1.943 . S
O296 Zn295 1.962 . S
O296 C301 1.254 . S
O297 Zn294 2.031 . S
O297 C301 1.269 . S
O298 Zn295 1.986 . S
O298 C305 1.262 . S
O299 Zn294 2.049 . S
O299 C307 1.253 1_556 S
O300 Zn295 1.996 . S
O300 C307 1.245 1_556 S
C301 O296 1.254 . S
C301 O297 1.269 . S
C302 O303 1.249 . S
C302 O304 1.270 . S
O303 Zn295 1.943 . S
O303 C302 1.249 . S
O304 Zn294 2.067 . S
O304 C302 1.270 . S
C305 O298 1.262 . S
C305 O306 1.232 . S
O306 C305 1.232 . S
C307 O299 1.253 1_554 S
C307 O300 1.245 1_554 S
Zn308 O311 2.031 . S
Zn308 O313 2.049 . S
Zn308 O318 2.067 . S
Zn309 O310 1.962 . S
Zn309 O312 1.986 . S
Zn309 O314 1.996 . S
Zn309 O317 1.943 . S
O310 Zn309 1.962 . S
O310 C315 1.254 . S
O311 Zn308 2.031 . S
O311 C315 1.269 . S
O312 Zn309 1.986 . S
O312 C319 1.262 . S
O313 Zn308 2.049 . S
O313 C321 1.253 1_556 S
O314 Zn309 1.996 . S
O314 C321 1.245 1_556 S
C315 O310 1.254 . S
C315 O311 1.269 . S
C316 O317 1.249 . S
C316 O318 1.270 . S
O317 Zn309 1.943 . S
O317 C316 1.249 . S
O318 Zn308 2.067 . S
O318 C316 1.270 . S
C319 O312 1.262 . S
C319 O320 1.232 . S
O320 C319 1.232 . S
C321 O313 1.253 1_554 S
C321 O314 1.245 1_554 S
Zn322 O325 2.031 . S
Zn322 O327 2.049 . S
Zn322 O332 2.067 . S
Zn323 O324 1.962 . S
Zn323 O326 1.986 . S
Zn323 O328 1.996 . S
Zn323 O331 1.943 . S
O324 Zn323 1.962 . S
O324 C329 1.254 . S
O325 Zn322 2.031 . S
O325 C329 1.269 . S
O326 Zn323 1.986 . S
O326 C333 1.262 . S
O327 Zn322 2.049 . S
O327 C335 1.253 1_556 S
O328 Zn323 1.996 . S
O328 C335 1.246 1_556 S
C329 O324 1.254 . S
C329 O325 1.269 . S
C330 O331 1.249 . S
C330 O332 1.270 . S
O331 Zn323 1.943 . S
O331 C330 1.249 . S
O332 Zn322 2.067 . S
O332 C330 1.270 . S
C333 O326 1.262 . S
C333 O334 1.232 . S
O334 C333 1.232 . S
C335 O327 1.253 1_554 S
C335 O328 1.246 1_554 S
Zn336 O339 2.031 . S
Zn336 O341 2.049 . S
Zn336 O346 2.067 . S
Zn337 O338 1.962 . S
Zn337 O340 1.986 . S
Zn337 O342 1.996 . S
Zn337 O345 1.943 . S
O338 Zn337 1.962 . S
O338 C343 1.254 . S
O339 Zn336 2.031 . S
O339 C343 1.269 . S
O340 Zn337 1.986 . S
O340 C347 1.262 . S
O341 Zn336 2.049 . S
O341 C349 1.260 . S
O342 Zn337 1.996 . S
O342 C349 1.257 . S
C343 O338 1.254 . S
C343 O339 1.269 . S
C344 O345 1.249 . S
C344 O346 1.270 . S
O345 Zn337 1.943 . S
O345 C344 1.249 . S
O346 Zn336 2.067 . S
O346 C344 1.270 . S
C347 O340 1.262 . S
C347 O348 1.232 . S
O348 C347 1.232 . S
C349 O341 1.260 . S
C349 O342 1.257 . S
Zn350 O353 2.031 . S
Zn350 O355 2.049 . S
Zn350 O360 2.067 . S
Zn351 O352 1.962 . S
Zn351 O354 1.986 . S
Zn351 O356 1.996 . S
Zn351 O359 1.943 . S
O352 Zn351 1.962 . S
O352 C357 1.254 . S
O353 Zn350 2.031 . S
O353 C357 1.269 . S
O354 Zn351 1.986 . S
O354 C361 1.262 . S
O355 Zn350 2.049 . S
O355 C363 1.260 . S
O356 Zn351 1.996 . S
O356 C363 1.257 . S
C357 O352 1.254 . S
C357 O353 1.269 . S
C358 O359 1.249 . S
C358 O360 1.270 . S
O359 Zn351 1.943 . S
O359 C358 1.249 . S
O360 Zn350 2.067 . S
O360 C358 1.270 . S
C361 O354 1.262 . S
C361 O362 1.232 . S
O362 C361 1.232 . S
C363 O355 1.260 . S
C363 O356 1.257 . S
Zn364 O367 2.031 . S
Zn364 O369 2.049 . S
Zn364 O374 2.067 . S
Zn365 O366 1.962 . S
Zn365 O368 1.986 . S
Zn365 O370 1.996 . S
Zn365 O373 1.943 . S
O366 Zn365 1.962 . S
O366 C371 1.254 . S
O367 Zn364 2.031 . S
O367 C371 1.269 . S
O368 Zn365 1.986 . S
O368 C375 1.262 . S
O369 Zn364 2.049 . S
O369 C377 1.260 . S
O370 Zn365 1.996 . S
O370 C377 1.257 . S
C371 O366 1.254 . S
C371 O367 1.269 . S
C372 O373 1.249 . S
C372 O374 1.270 . S
O373 Zn365 1.943 . S
O373 C372 1.249 . S
O374 Zn364 2.067 . S
O374 C372 1.270 . S
C375 O368 1.262 . S
C375 O376 1.232 . S
O376 C375 1.232 . S
C377 O369 1.260 . S
C377 O370 1.257 . S
Zn378 O381 2.031 . S
Zn378 O383 2.049 . S
Zn378 O388 2.067 . S
Zn379 O380 1.962 1_554 S
Zn379 O382 1.986 . S
Zn379 O384 1.996 . S
Zn379 O387 1.943 . S
O380 Zn379 1.962 1_556 S
O380 C385 1.254 . S
O381 Zn378 2.031 . S
O381 C385 1.269 1_554 S
O382 Zn379 1.986 . S
O382 C389 1.262 . S
O383 Zn378 2.049 . S
O383 C391 1.260 . S
O384 Zn379 1.996 . S
O384 C391 1.257 . S
C385 O380 1.254 . S
C385 O381 1.269 1_556 S
C386 O387 1.249 . S
C386 O388 1.270 . S
O387 Zn379 1.943 . S
O387 C386 1.249 . S
O388 Zn378 2.067 . S
O388 C386 1.270 . S
C389 O382 1.262 . S
C389 O390 1.232 . S
O390 C389 1.232 . S
C391 O383 1.260 . S
C391 O384 1.257 . S
Zn392 O395 2.031 . S
Zn392 O397 2.049 . S
Zn392 O402 2.067 . S
Zn393 O394 1.962 1_554 S
Zn393 O396 1.986 . S
Zn393 O398 1.996 . S
Zn393 O401 1.943 . S
O394 Zn393 1.962 1_556 S
O394 C399 1.254 . S
O395 Zn392 2.031 . S
O395 C399 1.269 1_554 S
O396 Zn393 1.986 . S
O396 C403 1.262 . S
O397 Zn392 2.049 . S
O397 C405 1.260 . S
O398 Zn393 1.996 . S
O398 C405 1.257 . S
C399 O394 1.254 . S
C399 O395 1.269 1_556 S
C400 O401 1.249 . S
C400 O402 1.270 . S
O401 Zn393 1.943 . S
O401 C400 1.249 . S
O402 Zn392 2.067 . S
O402 C400 1.270 . S
C403 O396 1.262 . S
C403 O404 1.232 . S
O404 C403 1.232 . S
C405 O397 1.260 . S
C405 O398 1.257 . S
Zn406 O409 2.031 . S
Zn406 O411 2.049 . S
Zn406 O416 2.067 . S
Zn407 O408 1.962 1_554 S
Zn407 O410 1.986 . S
Zn407 O412 1.996 . S
Zn407 O415 1.943 . S
O408 Zn407 1.962 1_556 S
O408 C413 1.254 . S
O409 Zn406 2.031 . S
O409 C413 1.269 1_554 S
O410 Zn407 1.986 . S
O410 C417 1.262 . S
O411 Zn406 2.049 . S
O411 C419 1.260 . S
O412 Zn407 1.996 . S
O412 C419 1.257 . S
C413 O408 1.254 . S
C413 O409 1.269 1_556 S
C414 O415 1.249 . S
C414 O416 1.270 . S
O415 Zn407 1.943 . S
O415 C414 1.249 . S
O416 Zn406 2.067 . S
O416 C414 1.270 . S
C417 O410 1.262 . S
C417 O418 1.232 . S
O418 C417 1.232 . S
C419 O411 1.260 . S
C419 O412 1.257 . S
Zn420 O423 2.031 . S
Zn420 O425 2.049 . S
Zn420 O430 2.067 . S
Zn421 O422 1.962 . S
Zn421 O424 1.986 . S
Zn421 O426 1.996 . S
Zn421 O429 1.943 . S
O422 Zn421 1.962 . S
O422 C427 1.254 . S
O423 Zn420 2.031 . S
O423 C427 1.269 . S
O424 Zn421 1.986 . S
O424 C431 1.262 . S
O425 Zn420 2.049 . S
O425 C433 1.260 . S
O426 Zn421 1.996 . S
O426 C433 1.257 . S
C427 O422 1.254 . S
C427 O423 1.269 . S
C428 O429 1.249 . S
C428 O430 1.270 . S
O429 Zn421 1.943 . S
O429 C428 1.249 . S
O430 Zn420 2.067 . S
O430 C428 1.270 . S
C431 O424 1.262 . S
C431 O432 1.232 . S
O432 C431 1.232 . S
C433 O425 1.260 . S
C433 O426 1.257 . S
Zn434 O437 2.031 . S
Zn434 O439 2.049 . S
Zn434 O444 2.067 . S
Zn435 O436 1.962 . S
Zn435 O438 1.986 . S
Zn435 O440 1.996 . S
Zn435 O443 1.943 . S
O436 Zn435 1.962 . S
O436 C441 1.254 . S
O437 Zn434 2.031 . S
O437 C441 1.269 . S
O438 Zn435 1.986 . S
O438 C445 1.262 . S
O439 Zn434 2.049 . S
O439 C447 1.260 . S
O440 Zn435 1.996 . S
O440 C447 1.257 . S
C441 O436 1.254 . S
C441 O437 1.269 . S
C442 O443 1.249 . S
C442 O444 1.270 . S
O443 Zn435 1.943 . S
O443 C442 1.249 . S
O444 Zn434 2.067 . S
O444 C442 1.270 . S
C445 O438 1.262 . S
C445 O446 1.232 . S
O446 C445 1.232 . S
C447 O439 1.260 . S
C447 O440 1.257 . S
Zn448 O451 2.031 . S
Zn448 O453 2.049 . S
Zn448 O458 2.067 . S
Zn449 O450 1.962 . S
Zn449 O452 1.986 . S
Zn449 O454 1.996 . S
Zn449 O457 1.943 . S
O450 Zn449 1.962 . S
O450 C455 1.254 . S
O451 Zn448 2.031 . S
O451 C455 1.269 . S
O452 Zn449 1.986 . S
O452 C459 1.262 . S
O453 Zn448 2.049 . S
O453 C461 1.260 . S
O454 Zn449 1.996 . S
O454 C461 1.257 . S
C455 O450 1.254 . S
C455 O451 1.269 . S
C456 O457 1.249 . S
C456 O458 1.270 . S
O457 Zn449 1.943 . S
O457 C456 1.249 . S
O458 Zn448 2.067 . S
O458 C456 1.270 . S
C459 O452 1.262 . S
C459 O460 1.232 . S
O460 C459 1.232 . S
C461 O453 1.260 . S
C461 O454 1.257 . S
Zn462 O465 2.031 . S
Zn462 O467 2.049 . S
Zn462 O472 2.067 . S
Zn463 O464 1.962 . S
Zn463 O466 1.986 . S
Zn463 O468 1.996 . S
Zn463 O471 1.943 . S
O464 Zn463 1.962 . S
O464 C469 1.254 . S
O465 Zn462 2.031 . S
O465 C469 1.269 . S
O466 Zn463 1.986 . S
O466 C473 1.262 . S
O467 Zn462 2.049 . S
O467 C475 1.260 . S
O468 Zn463 1.996 . S
O468 C475 1.257 . S
C469 O464 1.254 . S
C469 O465 1.269 . S
C470 O471 1.249 . S
C470 O472 1.270 . S
O471 Zn463 1.943 . S
O471 C470 1.249 . S
O472 Zn462 2.067 . S
O472 C470 1.270 . S
C473 O466 1.262 . S
C473 O474 1.232 . S
O474 C473 1.232 . S
C475 O467 1.260 . S
C475 O468 1.257 . S
Zn476 O479 2.031 . S
Zn476 O481 2.049 . S
Zn476 O486 2.067 . S
Zn477 O478 1.962 . S
Zn477 O480 1.986 . S
Zn477 O482 1.996 . S
Zn477 O485 1.943 . S
O478 Zn477 1.962 . S
O478 C483 1.254 . S
O479 Zn476 2.031 . S
O479 C483 1.269 . S
O480 Zn477 1.986 . S
O480 C487 1.262 . S
O481 Zn476 2.049 . S
O481 C489 1.260 . S
O482 Zn477 1.996 . S
O482 C489 1.257 . S
C483 O478 1.254 . S
C483 O479 1.269 . S
C484 O485 1.249 . S
C484 O486 1.270 . S
O485 Zn477 1.943 . S
O485 C484 1.249 . S
O486 Zn476 2.067 . S
O486 C484 1.270 . S
C487 O480 1.262 . S
C487 O488 1.232 . S
O488 C487 1.232 . S
C489 O481 1.260 . S
C489 O482 1.257 . S
Zn490 O493 2.031 . S
Zn490 O495 2.049 . S
Zn490 O500 2.067 . S
Zn491 O492 1.962 . S
Zn491 O494 1.986 . S
Zn491 O496 1.996 . S
Zn491 O499 1.943 . S
O492 Zn491 1.962 . S
O492 C497 1.254 . S
O493 Zn490 2.031 . S
O493 C497 1.269 . S
O494 Zn491 1.986 . S
O494 C501 1.262 . S
O495 Zn490 2.049 . S
O495 C503 1.260 . S
O496 Zn491 1.996 . S
O496 C503 1.257 . S
C497 O492 1.254 . S
C497 O493 1.269 . S
C498 O499 1.249 . S
C498 O500 1.270 . S
O499 Zn491 1.943 . S
O499 C498 1.249 . S
O500 Zn490 2.067 . S
O500 C498 1.270 . S
C501 O494 1.262 . S
C501 O502 1.232 . S
O502 C501 1.232 . S
C503 O495 1.260 . S
C503 O496 1.257 . S
H504 C512 0.950 . S
H505 C517 0.950 . S
H506 C514 0.950 1_556 S
H507 C516 0.950 1_565 S
H508 C518 0.950 . S
H509 C520 0.950 . S
H510 C522 0.950 1_545 S
H511 C523 0.950 . S
C512 H504 0.950 . S
C512 C513 1.386 . S
C512 C514 1.391 . S
C513 C512 1.386 . S
C513 C517 1.393 . S
C514 H506 0.950 1_554 S
C514 C512 1.391 . S
C514 C515 1.400 . S
C515 C514 1.400 . S
C515 C516 1.398 . S
C515 C521 1.491 1_545 S
C516 H507 0.950 1_545 S
C516 C515 1.398 . S
C516 C517 1.391 . S
C517 H505 0.950 . S
C517 C513 1.393 . S
C517 C516 1.391 . S
C518 H508 0.950 . S
C518 C519 1.386 . S
C518 C520 1.391 1_556 S
C519 C518 1.386 . S
C519 C523 1.393 . S
C520 H509 0.950 . S
C520 C518 1.391 1_554 S
C520 C521 1.400 . S
C521 C515 1.491 1_565 S
C521 C520 1.400 . S
C521 C522 1.398 1_554 S
C522 H510 0.950 1_565 S
C522 C521 1.398 1_556 S
C522 C523 1.391 . S
C523 H511 0.950 . S
C523 C519 1.393 . S
C523 C522 1.391 . S
H524 C532 0.950 . S
H525 C537 0.950 . S
H526 C534 0.950 . S
H527 C536 0.950 . S
H528 C538 0.950 . S
H529 C540 0.950 . S
H530 C542 0.949 . S
H531 C543 0.950 . S
C532 H524 0.950 . S
C532 C533 1.386 . S
C532 C534 1.391 . S
C533 C532 1.386 . S
C533 C537 1.393 . S
C534 H526 0.950 . S
C534 C532 1.391 . S
C534 C535 1.400 . S
C535 C534 1.400 . S
C535 C536 1.398 . S
C535 C541 1.491 1_655 S
C536 H527 0.950 . S
C536 C535 1.398 . S
C536 C537 1.391 . S
C537 H525 0.950 . S
C537 C533 1.393 . S
C537 C536 1.391 . S
C538 H528 0.950 . S
C538 C539 1.386 . S
C538 C540 1.391 . S
C539 C538 1.386 . S
C539 C543 1.393 . S
C540 H529 0.950 . S
C540 C538 1.391 . S
C540 C541 1.400 1_556 S
C541 C535 1.491 1_455 S
C541 C540 1.400 1_554 S
C541 C542 1.398 . S
C542 H530 0.949 . S
C542 C541 1.398 . S
C542 C543 1.392 1_554 S
C543 H531 0.950 . S
C543 C539 1.393 . S
C543 C542 1.392 1_556 S
H544 C552 0.950 . S
H545 C557 0.950 . S
H546 C554 0.950 1_554 S
H547 C556 0.957 . S
H548 C558 0.950 . S
H549 C560 0.950 . S
H550 C562 0.950 . S
H551 C563 0.950 . S
C552 H544 0.950 . S
C552 C553 1.386 . S
C552 C554 1.391 . S
C553 C552 1.386 . S
C553 C557 1.393 . S
C554 H546 0.950 1_556 S
C554 C552 1.391 . S
C554 C555 1.400 1_556 S
C555 C554 1.400 1_554 S
C555 C556 1.398 1_554 S
C555 C561 1.491 . S
C556 H547 0.957 . S
C556 C555 1.398 1_556 S
C556 C557 1.391 . S
C557 H545 0.950 . S
C557 C553 1.393 . S
C557 C556 1.391 . S
C558 H548 0.950 . S
C558 C559 1.386 . S
C558 C560 1.391 . S
C559 C558 1.386 . S
C559 C563 1.393 . S
C560 H549 0.950 . S
C560 C558 1.391 . S
C560 C561 1.400 . S
C561 C555 1.491 . S
C561 C560 1.400 . S
C561 C562 1.398 . S
C562 H550 0.950 . S
C562 C561 1.398 . S
C562 C563 1.391 . S
C563 H551 0.950 . S
C563 C559 1.393 . S
C563 C562 1.391 . S
H564 C572 0.950 . S
H565 C577 0.950 . S
H566 C574 0.950 1_455 S
H567 C576 0.950 . S
H568 C578 0.950 . S
H569 C580 0.950 1_655 S
H570 C582 0.950 . S
H571 C583 0.950 . S
C572 H564 0.950 . S
C572 C573 1.386 . S
C572 C574 1.391 . S
C573 C572 1.386 . S
C573 C577 1.393 . S
C574 H566 0.950 1_655 S
C574 C572 1.391 . S
C574 C575 1.400 . S
C575 C574 1.400 . S
C575 C576 1.398 . S
C575 C581 1.491 1_655 S
C576 H567 0.950 . S
C576 C575 1.398 . S
C576 C577 1.391 . S
C577 H565 0.950 . S
C577 C573 1.393 . S
C577 C576 1.391 . S
C578 H568 0.950 . S
C578 C579 1.386 . S
C578 C580 1.391 . S
C579 C578 1.386 . S
C579 C583 1.393 . S
C580 H569 0.950 1_455 S
C580 C578 1.391 . S
C580 C581 1.400 . S
C581 C575 1.491 1_455 S
C581 C580 1.400 . S
C581 C582 1.398 . S
C582 H570 0.950 . S
C582 C581 1.398 . S
C582 C583 1.391 . S
C583 H571 0.950 . S
C583 C579 1.393 . S
C583 C582 1.391 . S
H584 C592 0.950 . S
H585 C597 0.950 . S
H586 C594 0.950 . S
H587 C596 0.950 . S
H588 C598 0.950 . S
H589 C600 0.950 . S
H590 C602 0.950 . S
H591 C603 0.950 . S
C592 H584 0.950 . S
C592 C593 1.386 . S
C592 C594 1.391 . S
C593 C592 1.386 . S
C593 C597 1.393 . S
C594 H586 0.950 . S
C594 C592 1.391 . S
C594 C595 1.400 . S
C595 C594 1.400 . S
C595 C596 1.398 . S
C595 C601 1.491 . S
C596 H587 0.950 . S
C596 C595 1.398 . S
C596 C597 1.391 . S
C597 H585 0.950 . S
C597 C593 1.393 . S
C597 C596 1.391 . S
C598 H588 0.950 . S
C598 C599 1.386 . S
C598 C600 1.391 . S
C599 C598 1.386 . S
C599 C603 1.393 . S
C600 H589 0.950 . S
C600 C598 1.391 . S
C600 C601 1.400 . S
C601 C595 1.491 . S
C601 C600 1.400 . S
C601 C602 1.398 . S
C602 H590 0.950 . S
C602 C601 1.398 . S
C602 C603 1.391 . S
C603 H591 0.950 . S
C603 C599 1.393 . S
C603 C602 1.391 . S
H604 C612 0.950 . S
H605 C617 0.950 . S
H606 C614 0.950 1_545 S
H607 C616 0.950 . S
H608 C618 0.950 . S
H609 C620 0.950 1_565 S
H610 C622 0.950 . S
H611 C623 0.950 . S
C612 H604 0.950 . S
C612 C613 1.386 . S
C612 C614 1.391 . S
C613 C612 1.386 . S
C613 C617 1.393 . S
C614 H606 0.950 1_565 S
C614 C612 1.391 . S
C614 C615 1.400 . S
C615 C614 1.400 . S
C615 C616 1.398 . S
C615 C621 1.491 1_565 S
C616 H607 0.950 . S
C616 C615 1.398 . S
C616 C617 1.391 . S
C617 H605 0.950 . S
C617 C613 1.393 . S
C617 C616 1.391 . S
C618 H608 0.950 . S
C618 C619 1.386 . S
C618 C620 1.391 . S
C619 C618 1.386 . S
C619 C623 1.393 . S
C620 H609 0.950 1_545 S
C620 C618 1.391 . S
C620 C621 1.400 . S
C621 C615 1.491 1_545 S
C621 C620 1.400 . S
C621 C622 1.398 . S
C622 H610 0.950 . S
C622 C621 1.398 . S
C622 C623 1.391 . S
C623 H611 0.950 . S
C623 C619 1.393 . S
C623 C622 1.391 . S
H624 C632 0.950 . S
H625 C637 0.950 . S
H626 C634 0.950 . S
H627 C636 0.948 1_556 S
H628 C638 0.950 . S
H629 C640 0.950 1_545 S
H630 C642 0.950 1_554 S
H631 C643 0.950 . S
C632 H624 0.950 . S
C632 C633 1.386 . S
C632 C634 1.391 1_545 S
C633 C632 1.386 . S
C633 C637 1.393 . S
C634 H626 0.950 . S
C634 C632 1.391 1_565 S
C634 C635 1.400 1_565 S
C635 C634 1.400 1_545 S
C635 C636 1.399 . S
C635 C641 1.491 1_544 S
C636 H627 0.948 1_554 S
C636 C635 1.399 . S
C636 C637 1.392 . S
C637 H625 0.950 . S
C637 C633 1.393 . S
C637 C636 1.392 . S
C638 H628 0.950 . S
C638 C639 1.386 . S
C638 C640 1.391 . S
C639 C638 1.386 . S
C639 C643 1.393 . S
C640 H629 0.950 1_565 S
C640 C638 1.391 . S
C640 C641 1.400 . S
C641 C635 1.491 1_566 S
C641 C640 1.400 . S
C641 C642 1.398 . S
C642 H630 0.950 1_556 S
C642 C641 1.398 . S
C642 C643 1.391 . S
C643 H631 0.950 . S
C643 C639 1.393 . S
C643 C642 1.391 . S
H644 C652 0.950 . S
H645 C657 0.950 . S
H646 C654 0.911 1_455 S
H647 C656 0.981 . S
H648 C658 0.950 . S
H649 C660 0.950 1_655 S
H650 C662 0.950 1_554 S
H651 C663 0.950 . S
C652 H644 0.950 . S
C652 C653 1.386 . S
C652 C654 1.422 . S
C653 C652 1.386 . S
C653 C657 1.393 . S
C654 H646 0.911 1_655 S
C654 C652 1.422 . S
C654 C655 1.410 . S
C655 C654 1.410 . S
C655 C656 1.389 1_554 S
C655 C661 1.491 1_654 S
C656 H647 0.981 . S
C656 C655 1.389 1_556 S
C656 C657 1.370 1_556 S
C657 H645 0.950 . S
C657 C653 1.393 . S
C657 C656 1.370 1_554 S
C658 H648 0.950 . S
C658 C659 1.386 . S
C658 C660 1.391 . S
C659 C658 1.386 . S
C659 C663 1.393 . S
C660 H649 0.950 1_455 S
C660 C658 1.391 . S
C660 C661 1.400 . S
C661 C655 1.491 1_456 S
C661 C660 1.400 . S
C661 C662 1.398 . S
C662 H650 0.950 1_556 S
C662 C661 1.398 . S
C662 C663 1.391 . S
C663 H651 0.950 . S
C663 C659 1.393 . S
C663 C662 1.391 . S
H664 C672 0.950 . S
H665 C677 0.950 . S
H666 C674 0.950 . S
H667 C676 0.950 . S
H668 C678 0.950 . S
H669 C680 0.969 . S
H670 C682 0.950 . S
H671 C683 0.950 . S
C672 H664 0.950 . S
C672 C673 1.386 . S
C672 C674 1.391 . S
C673 C672 1.386 . S
C673 C677 1.393 . S
C674 H666 0.950 . S
C674 C672 1.391 . S
C674 C675 1.400 . S
C675 C674 1.400 . S
C675 C676 1.398 . S
C675 C681 1.491 1_556 S
C676 H667 0.950 . S
C676 C675 1.398 . S
C676 C677 1.391 . S
C677 H665 0.950 . S
C677 C673 1.393 . S
C677 C676 1.391 . S
C678 H668 0.950 . S
C678 C679 1.386 . S
C678 C680 1.391 . S
C679 C678 1.386 . S
C679 C683 1.393 . S
C680 H669 0.969 . S
C680 C678 1.391 . S
C680 C681 1.400 . S
C681 C675 1.491 1_554 S
C681 C680 1.400 . S
C681 C682 1.398 . S
C682 H670 0.950 . S
C682 C681 1.398 . S
C682 C683 1.391 . S
C683 H671 0.950 . S
C683 C679 1.393 . S
C683 C682 1.391 . S
H684 C692 0.950 . S
H685 C697 0.950 . S
H686 C694 0.950 . S
H687 C696 0.950 . S
H688 C698 0.950 . S
H689 C700 0.950 . S
H690 C702 0.950 . S
H691 C703 0.950 . S
C692 H684 0.950 . S
C692 C693 1.386 . S
C692 C694 1.391 . S
C693 C692 1.386 . S
C693 C697 1.393 . S
C694 H686 0.950 . S
C694 C692 1.391 . S
C694 C695 1.400 . S
C695 C694 1.400 . S
C695 C696 1.398 . S
C695 C701 1.491 1_655 S
C696 H687 0.950 . S
C696 C695 1.398 . S
C696 C697 1.391 . S
C697 H685 0.950 . S
C697 C693 1.393 . S
C697 C696 1.391 . S
C698 H688 0.950 . S
C698 C699 1.386 . S
C698 C700 1.391 . S
C699 C698 1.386 . S
C699 C703 1.393 . S
C700 H689 0.950 . S
C700 C698 1.391 . S
C700 C701 1.400 . S
C701 C695 1.491 1_455 S
C701 C700 1.400 . S
C701 C702 1.398 . S
C702 H690 0.950 . S
C702 C701 1.398 . S
C702 C703 1.391 . S
C703 H691 0.950 . S
C703 C699 1.393 . S
C703 C702 1.391 . S
H704 C712 0.950 . S
H705 C717 0.950 . S
H706 C714 0.950 . S
H707 C716 0.950 . S
H708 C718 0.950 . S
H709 C720 0.950 . S
H710 C722 0.950 . S
H711 C723 0.950 . S
C712 H704 0.950 . S
C712 C713 1.386 . S
C712 C714 1.391 . S
C713 C712 1.386 . S
C713 C717 1.393 . S
C714 H706 0.950 . S
C714 C712 1.391 . S
C714 C715 1.400 . S
C715 C714 1.400 . S
C715 C716 1.398 . S
C715 C721 1.491 . S
C716 H707 0.950 . S
C716 C715 1.398 . S
C716 C717 1.391 . S
C717 H705 0.950 . S
C717 C713 1.393 . S
C717 C716 1.391 . S
C718 H708 0.950 . S
C718 C719 1.386 . S
C718 C720 1.391 . S
C719 C718 1.386 . S
C719 C723 1.393 . S
C720 H709 0.950 . S
C720 C718 1.391 . S
C720 C721 1.400 . S
C721 C715 1.491 . S
C721 C720 1.400 . S
C721 C722 1.398 . S
C722 H710 0.950 . S
C722 C721 1.398 . S
C722 C723 1.391 . S
C723 H711 0.950 . S
C723 C719 1.393 . S
C723 C722 1.391 . S
H724 C732 0.950 . S
H725 C737 0.950 . S
H726 C734 0.950 . S
H727 C736 0.950 . S
H728 C738 0.950 . S
H729 C740 0.950 1_545 S
H730 C742 0.950 . S
H731 C743 0.950 . S
C732 H724 0.950 . S
C732 C733 1.386 . S
C732 C734 1.391 . S
C733 C732 1.386 . S
C733 C737 1.393 . S
C734 H726 0.950 . S
C734 C732 1.391 . S
C734 C735 1.400 . S
C735 C734 1.400 . S
C735 C736 1.398 . S
C735 C741 1.491 1_545 S
C736 H727 0.950 . S
C736 C735 1.398 . S
C736 C737 1.391 . S
C737 H725 0.950 . S
C737 C733 1.393 . S
C737 C736 1.391 . S
C738 H728 0.950 . S
C738 C739 1.386 . S
C738 C740 1.391 . S
C739 C738 1.386 . S
C739 C743 1.393 . S
C740 H729 0.950 1_565 S
C740 C738 1.391 . S
C740 C741 1.400 . S
C741 C735 1.491 1_565 S
C741 C740 1.400 . S
C741 C742 1.398 . S
C742 H730 0.950 . S
C742 C741 1.398 . S
C742 C743 1.391 . S
C743 H731 0.950 . S
C743 C739 1.393 . S
C743 C742 1.391 . S
H744 C752 0.950 . S
H745 C757 0.950 . S
H746 C754 0.950 . S
H747 C756 0.950 . S
H748 C758 0.950 . S
H749 C760 0.950 . S
H750 C762 0.950 . S
H751 C763 0.950 . S
C752 H744 0.950 . S
C752 C753 1.386 . S
C752 C754 1.391 . S
C753 C752 1.386 . S
C753 C757 1.393 . S
C754 H746 0.950 . S
C754 C752 1.391 . S
C754 C755 1.400 . S
C755 C754 1.400 . S
C755 C756 1.398 . S
C755 C761 1.491 . S
C756 H747 0.950 . S
C756 C755 1.398 . S
C756 C757 1.391 . S
C757 H745 0.950 . S
C757 C753 1.393 . S
C757 C756 1.391 . S
C758 H748 0.950 . S
C758 C759 1.386 . S
C758 C760 1.391 . S
C759 C758 1.386 . S
C759 C763 1.393 . S
C760 H749 0.950 . S
C760 C758 1.391 . S
C760 C761 1.400 . S
C761 C755 1.491 . S
C761 C760 1.400 . S
C761 C762 1.398 . S
C762 H750 0.950 . S
C762 C761 1.398 . S
C762 C763 1.391 . S
C763 H751 0.950 . S
C763 C759 1.393 . S
C763 C762 1.391 . S
H764 C772 0.950 . S
H765 C777 0.950 . S
H766 C774 0.950 . S
H767 C776 0.950 . S
H768 C778 0.950 . S
H769 C780 0.950 . S
H770 C782 0.950 . S
H771 C783 0.950 . S
C772 H764 0.950 . S
C772 C773 1.386 . S
C772 C774 1.391 . S
C773 C772 1.386 . S
C773 C777 1.393 . S
C774 H766 0.950 . S
C774 C772 1.391 . S
C774 C775 1.400 . S
C775 C774 1.400 . S
C775 C776 1.398 . S
C775 C781 1.491 . S
C776 H767 0.950 . S
C776 C775 1.398 . S
C776 C777 1.391 . S
C777 H765 0.950 . S
C777 C773 1.393 . S
C777 C776 1.391 . S
C778 H768 0.950 . S
C778 C779 1.386 . S
C778 C780 1.391 . S
C779 C778 1.386 . S
C779 C783 1.393 . S
C780 H769 0.950 . S
C780 C778 1.391 . S
C780 C781 1.400 . S
C781 C775 1.491 . S
C781 C780 1.400 . S
C781 C782 1.398 . S
C782 H770 0.950 . S
C782 C781 1.398 . S
C782 C783 1.391 . S
C783 H771 0.950 . S
C783 C779 1.393 . S
C783 C782 1.391 . S
H784 C792 0.950 . S
H785 C797 0.950 . S
H786 C794 0.950 . S
H787 C796 0.950 . S
H788 C798 0.950 . S
H789 C800 0.950 . S
H790 C802 0.950 . S
H791 C803 0.950 . S
C792 H784 0.950 . S
C792 C793 1.386 . S
C792 C794 1.391 . S
C793 C792 1.386 . S
C793 C797 1.393 . S
C794 H786 0.950 . S
C794 C792 1.391 . S
C794 C795 1.400 . S
C795 C794 1.400 . S
C795 C796 1.398 . S
C795 C801 1.491 . S
C796 H787 0.950 . S
C796 C795 1.398 . S
C796 C797 1.391 . S
C797 H785 0.950 . S
C797 C793 1.393 . S
C797 C796 1.391 . S
C798 H788 0.950 . S
C798 C799 1.386 . S
C798 C800 1.391 . S
C799 C798 1.386 . S
C799 C803 1.393 . S
C800 H789 0.950 . S
C800 C798 1.391 . S
C800 C801 1.400 . S
C801 C795 1.491 . S
C801 C800 1.400 . S
C801 C802 1.398 . S
C802 H790 0.950 . S
C802 C801 1.398 . S
C802 C803 1.391 . S
C803 H791 0.950 . S
C803 C799 1.393 . S
C803 C802 1.391 . S
H804 C812 0.950 . S
H805 C817 0.950 . S
H806 C814 0.950 . S
H807 C816 0.950 . S
H808 C818 0.950 . S
H809 C820 0.950 . S
H810 C822 0.950 . S
H811 C823 0.950 . S
C812 H804 0.950 . S
C812 C813 1.386 . S
C812 C814 1.391 . S
C813 C812 1.386 . S
C813 C817 1.393 . S
C814 H806 0.950 . S
C814 C812 1.391 . S
C814 C815 1.400 . S
C815 C814 1.400 . S
C815 C816 1.398 . S
C815 C821 1.491 . S
C816 H807 0.950 . S
C816 C815 1.398 . S
C816 C817 1.391 . S
C817 H805 0.950 . S
C817 C813 1.393 . S
C817 C816 1.391 . S
C818 H808 0.950 . S
C818 C819 1.386 . S
C818 C820 1.391 . S
C819 C818 1.386 . S
C819 C823 1.393 . S
C820 H809 0.950 . S
C820 C818 1.391 . S
C820 C821 1.400 . S
C821 C815 1.491 . S
C821 C820 1.400 . S
C821 C822 1.398 . S
C822 H810 0.950 . S
C822 C821 1.398 . S
C822 C823 1.391 . S
C823 H811 0.950 . S
C823 C819 1.393 . S
C823 C822 1.391 . S
H824 C832 0.950 . S
H825 C837 0.950 . S
H826 C834 0.950 . S
H827 C836 0.950 . S
H828 C838 0.950 . S
H829 C840 0.950 . S
H830 C842 0.950 . S
H831 C843 0.950 . S
C832 H824 0.950 . S
C832 C833 1.386 . S
C832 C834 1.391 . S
C833 C832 1.386 . S
C833 C837 1.393 . S
C834 H826 0.950 . S
C834 C832 1.391 . S
C834 C835 1.400 . S
C835 C834 1.400 . S
C835 C836 1.398 . S
C835 C841 1.491 . S
C836 H827 0.950 . S
C836 C835 1.398 . S
C836 C837 1.391 . S
C837 H825 0.950 . S
C837 C833 1.393 . S
C837 C836 1.391 . S
C838 H828 0.950 . S
C838 C839 1.386 . S
C838 C840 1.391 . S
C839 C838 1.386 . S
C839 C843 1.393 . S
C840 H829 0.950 . S
C840 C838 1.391 . S
C840 C841 1.400 . S
C841 C835 1.491 . S
C841 C840 1.400 . S
C841 C842 1.398 . S
C842 H830 0.950 . S
C842 C841 1.398 . S
C842 C843 1.391 . S
C843 H831 0.950 . S
C843 C839 1.393 . S
C843 C842 1.391 . S
H844 C852 0.950 . S
H845 C857 0.950 . S
H846 C854 0.950 . S
H847 C856 0.950 . S
H848 C858 0.950 . S
H849 C860 0.950 . S
H850 C862 0.950 . S
H851 C863 0.950 . S
C852 H844 0.950 . S
C852 C853 1.386 . S
C852 C854 1.391 . S
C853 C852 1.386 . S
C853 C857 1.393 . S
C854 H846 0.950 . S
C854 C852 1.391 . S
C854 C855 1.400 . S
C855 C854 1.400 . S
C855 C856 1.398 . S
C855 C861 1.491 . S
C856 H847 0.950 . S
C856 C855 1.398 . S
C856 C857 1.391 . S
C857 H845 0.950 . S
C857 C853 1.393 . S
C857 C856 1.391 . S
C858 H848 0.950 . S
C858 C859 1.386 . S
C858 C860 1.391 . S
C859 C858 1.386 . S
C859 C863 1.393 . S
C860 H849 0.950 . S
C860 C858 1.391 . S
C860 C861 1.400 . S
C861 C855 1.491 . S
C861 C860 1.400 . S
C861 C862 1.398 . S
C862 H850 0.950 . S
C862 C861 1.398 . S
C862 C863 1.391 . S
C863 H851 0.950 . S
C863 C859 1.393 . S
C863 C862 1.391 . S
H864 C872 0.950 . S
H865 C877 0.950 . S
H866 C874 0.950 . S
H867 C876 0.950 . S
H868 C878 0.950 . S
H869 C880 0.950 . S
H870 C882 0.950 . S
H871 C883 0.950 . S
C872 H864 0.950 . S
C872 C873 1.386 . S
C872 C874 1.391 . S
C873 C872 1.386 . S
C873 C877 1.393 . S
C874 H866 0.950 . S
C874 C872 1.391 . S
C874 C875 1.400 . S
C875 C874 1.400 . S
C875 C876 1.398 . S
C875 C881 1.491 . S
C876 H867 0.950 . S
C876 C875 1.398 . S
C876 C877 1.391 . S
C877 H865 0.950 . S
C877 C873 1.393 . S
C877 C876 1.391 . S
C878 H868 0.950 . S
C878 C879 1.386 . S
C878 C880 1.391 . S
C879 C878 1.386 . S
C879 C883 1.393 . S
C880 H869 0.950 . S
C880 C878 1.391 . S
C880 C881 1.400 . S
C881 C875 1.491 . S
C881 C880 1.400 . S
C881 C882 1.398 . S
C882 H870 0.950 . S
C882 C881 1.398 . S
C882 C883 1.391 . S
C883 H871 0.950 . S
C883 C879 1.393 . S
C883 C882 1.391 . S
H884 C892 0.950 . S
H885 C897 0.950 . S
H886 C894 0.950 . S
H887 C896 0.950 . S
H888 C898 0.950 . S
H889 C900 0.950 . S
H890 C902 0.950 . S
H891 C903 0.950 . S
C892 H884 0.950 . S
C892 C893 1.386 . S
C892 C894 1.391 . S
C893 C892 1.386 . S
C893 C897 1.393 . S
C894 H886 0.950 . S
C894 C892 1.391 . S
C894 C895 1.400 . S
C895 C894 1.400 . S
C895 C896 1.398 . S
C895 C901 1.491 . S
C896 H887 0.950 . S
C896 C895 1.398 . S
C896 C897 1.391 . S
C897 H885 0.950 . S
C897 C893 1.393 . S
C897 C896 1.391 . S
C898 H888 0.950 . S
C898 C899 1.386 . S
C898 C900 1.391 . S
C899 C898 1.386 . S
C899 C903 1.393 . S
C900 H889 0.950 . S
C900 C898 1.391 . S
C900 C901 1.400 . S
C901 C895 1.491 . S
C901 C900 1.400 . S
C901 C902 1.398 . S
C902 H890 0.950 . S
C902 C901 1.398 . S
C902 C903 1.391 . S
C903 H891 0.950 . S
C903 C899 1.393 . S
C903 C902 1.391 . S
H904 C912 0.950 . S
H905 C917 0.950 . S
H906 C914 0.950 . S
H907 C916 0.950 . S
H908 C918 0.950 . S
H909 C920 0.950 . S
H910 C922 0.950 . S
H911 C923 0.950 . S
C912 H904 0.950 . S
C912 C913 1.386 . S
C912 C914 1.391 . S
C913 C912 1.386 . S
C913 C917 1.393 . S
C914 H906 0.950 . S
C914 C912 1.391 . S
C914 C915 1.400 . S
C915 C914 1.400 . S
C915 C916 1.398 . S
C915 C921 1.491 . S
C916 H907 0.950 . S
C916 C915 1.398 . S
C916 C917 1.391 . S
C917 H905 0.950 . S
C917 C913 1.393 . S
C917 C916 1.391 . S
C918 H908 0.950 . S
C918 C919 1.386 . S
C918 C920 1.391 . S
C919 C918 1.386 . S
C919 C923 1.393 . S
C920 H909 0.950 . S
C920 C918 1.391 . S
C920 C921 1.400 . S
C921 C915 1.491 . S
C921 C920 1.400 . S
C921 C922 1.398 . S
C922 H910 0.950 . S
C922 C921 1.398 . S
C922 C923 1.391 . S
C923 H911 0.950 . S
C923 C919 1.393 . S
C923 C922 1.391 . S
H924 C932 0.950 . S
H925 C937 0.950 . S
H926 C934 0.950 . S
H927 C936 0.950 . S
H928 C938 0.950 . S
H929 C940 0.950 . S
H930 C942 0.950 . S
H931 C943 0.950 . S
C932 H924 0.950 . S
C932 C933 1.386 . S
C932 C934 1.391 . S
C933 C932 1.386 . S
C933 C937 1.393 . S
C934 H926 0.950 . S
C934 C932 1.391 . S
C934 C935 1.400 . S
C935 C934 1.400 . S
C935 C936 1.398 . S
C935 C941 1.491 . S
C936 H927 0.950 . S
C936 C935 1.398 . S
C936 C937 1.391 . S
C937 H925 0.950 . S
C937 C933 1.393 . S
C937 C936 1.391 . S
C938 H928 0.950 . S
C938 C939 1.386 . S
C938 C940 1.391 . S
C939 C938 1.386 . S
C939 C943 1.393 . S
C940 H929 0.950 . S
C940 C938 1.391 . S
C940 C941 1.400 . S
C941 C935 1.491 . S
C941 C940 1.400 . S
C941 C942 1.398 . S
C942 H930 0.950 . S
C942 C941 1.398 . S
C942 C943 1.391 . S
C943 H931 0.950 . S
C943 C939 1.393 . S
C943 C942 1.391 . S
H944 C952 0.950 . S
H945 C957 0.950 . S
H946 C954 0.950 . S
H947 C956 0.950 . S
H948 C958 0.950 . S
H949 C960 0.950 . S
H950 C962 0.950 . S
H951 C963 0.950 . S
C952 H944 0.950 . S
C952 C953 1.386 . S
C952 C954 1.391 . S
C953 C952 1.386 . S
C953 C957 1.393 . S
C954 H946 0.950 . S
C954 C952 1.391 . S
C954 C955 1.400 . S
C955 C954 1.400 . S
C955 C956 1.398 . S
C955 C961 1.491 . S
C956 H947 0.950 . S
C956 C955 1.398 . S
C956 C957 1.391 . S
C957 H945 0.950 . S
C957 C953 1.393 . S
C957 C956 1.391 . S
C958 H948 0.950 . S
C958 C959 1.386 . S
C958 C960 1.391 . S
C959 C958 1.386 . S
C959 C963 1.393 . S
C960 H949 0.950 . S
C960 C958 1.391 . S
C960 C961 1.400 . S
C961 C955 1.491 . S
C961 C960 1.400 . S
C961 C962 1.398 . S
C962 H950 0.950 . S
C962 C961 1.398 . S
C962 C963 1.391 . S
C963 H951 0.950 . S
C963 C959 1.393 . S
C963 C962 1.391 . S
H964 C972 0.950 . S
H965 C977 0.950 . S
H966 C974 0.950 . S
H967 C976 0.950 . S
H968 C978 0.950 . S
H969 C980 0.950 . S
H970 C982 0.950 . S
H971 C983 0.950 . S
C972 H964 0.950 . S
C972 C973 1.386 . S
C972 C974 1.391 . S
C973 C972 1.386 . S
C973 C977 1.393 . S
C974 H966 0.950 . S
C974 C972 1.391 . S
C974 C975 1.400 . S
C975 C974 1.400 . S
C975 C976 1.398 . S
C975 C981 1.491 . S
C976 H967 0.950 . S
C976 C975 1.398 . S
C976 C977 1.391 . S
C977 H965 0.950 . S
C977 C973 1.393 . S
C977 C976 1.391 . S
C978 H968 0.950 . S
C978 C979 1.386 . S
C978 C980 1.391 . S
C979 C978 1.386 . S
C979 C983 1.393 . S
C980 H969 0.950 . S
C980 C978 1.391 . S
C980 C981 1.400 . S
C981 C975 1.491 . S
C981 C980 1.400 . S
C981 C982 1.398 . S
C982 H970 0.950 . S
C982 C981 1.398 . S
C982 C983 1.391 . S
C983 H971 0.950 . S
C983 C979 1.393 . S
C983 C982 1.391 . S
H984 C992 0.950 . S
H985 C997 0.950 . S
H986 C994 0.950 . S
H987 C996 0.950 . S
H988 C998 0.950 . S
H989 C1000 0.950 . S
H990 C1002 0.950 . S
H991 C1003 0.950 . S
C992 H984 0.950 . S
C992 C993 1.386 . S
C992 C994 1.391 . S
C993 C992 1.386 . S
C993 C997 1.393 . S
C994 H986 0.950 . S
C994 C992 1.391 . S
C994 C995 1.400 . S
C995 C994 1.400 . S
C995 C996 1.398 . S
C995 C1001 1.491 . S
C996 H987 0.950 . S
C996 C995 1.398 . S
C996 C997 1.391 . S
C997 H985 0.950 . S
C997 C993 1.393 . S
C997 C996 1.391 . S
C998 H988 0.950 . S
C998 C999 1.386 . S
C998 C1000 1.391 . S
C999 C998 1.386 . S
C999 C1003 1.393 . S
C1000 H989 0.950 . S
C1000 C998 1.391 . S
C1000 C1001 1.400 . S
C1001 C995 1.491 . S
C1001 C1000 1.400 . S
C1001 C1002 1.398 . S
C1002 H990 0.950 . S
C1002 C1001 1.398 . S
C1002 C1003 1.391 . S
C1003 H991 0.950 . S
C1003 C999 1.393 . S
C1003 C1002 1.391 . S
H1004 C1012 0.950 . S
H1005 C1017 0.950 . S
H1006 C1014 0.950 . S
H1007 C1016 0.950 . S
H1008 C1018 0.950 . S
H1009 C1020 0.950 . S
H1010 C1022 0.950 . S
H1011 C1023 0.950 . S
C1012 H1004 0.950 . S
C1012 C1013 1.386 . S
C1012 C1014 1.391 . S
C1013 C1012 1.386 . S
C1013 C1017 1.393 . S
C1014 H1006 0.950 . S
C1014 C1012 1.391 . S
C1014 C1015 1.400 . S
C1015 C1014 1.400 . S
C1015 C1016 1.398 . S
C1015 C1021 1.491 . S
C1016 H1007 0.950 . S
C1016 C1015 1.398 . S
C1016 C1017 1.391 . S
C1017 H1005 0.950 . S
C1017 C1013 1.393 . S
C1017 C1016 1.391 . S
C1018 H1008 0.950 . S
C1018 C1019 1.386 . S
C1018 C1020 1.391 . S
C1019 C1018 1.386 . S
C1019 C1023 1.393 . S
C1020 H1009 0.950 . S
C1020 C1018 1.391 . S
C1020 C1021 1.400 . S
C1021 C1015 1.491 . S
C1021 C1020 1.400 . S
C1021 C1022 1.398 . S
C1022 H1010 0.950 . S
C1022 C1021 1.398 . S
C1022 C1023 1.391 . S
C1023 H1011 0.950 . S
C1023 C1019 1.393 . S
C1023 C1022 1.391 . S
H1024 C1032 0.950 . S
H1025 C1037 0.950 . S
H1026 C1034 0.950 . S
H1027 C1036 0.950 . S
H1028 C1038 0.950 . S
H1029 C1040 0.950 . S
H1030 C1042 0.950 . S
H1031 C1043 0.950 . S
C1032 H1024 0.950 . S
C1032 C1033 1.386 . S
C1032 C1034 1.391 . S
C1033 C1032 1.386 . S
C1033 C1037 1.393 . S
C1034 H1026 0.950 . S
C1034 C1032 1.391 . S
C1034 C1035 1.400 . S
C1035 C1034 1.400 . S
C1035 C1036 1.398 . S
C1035 C1041 1.491 . S
C1036 H1027 0.950 . S
C1036 C1035 1.398 . S
C1036 C1037 1.391 . S
C1037 H1025 0.950 . S
C1037 C1033 1.393 . S
C1037 C1036 1.391 . S
C1038 H1028 0.950 . S
C1038 C1039 1.386 . S
C1038 C1040 1.391 . S
C1039 C1038 1.386 . S
C1039 C1043 1.393 . S
C1040 H1029 0.950 . S
C1040 C1038 1.391 . S
C1040 C1041 1.400 . S
C1041 C1035 1.491 . S
C1041 C1040 1.400 . S
C1041 C1042 1.398 . S
C1042 H1030 0.950 . S
C1042 C1041 1.398 . S
C1042 C1043 1.391 . S
C1043 H1031 0.950 . S
C1043 C1039 1.393 . S
C1043 C1042 1.391 . S
H1044 C1052 0.950 . S
H1045 C1057 0.950 . S
H1046 C1054 0.950 . S
H1047 C1056 0.950 . S
H1048 C1058 0.950 . S
H1049 C1060 0.950 . S
H1050 C1062 0.950 . S
H1051 C1063 0.950 . S
C1052 H1044 0.950 . S
C1052 C1053 1.386 . S
C1052 C1054 1.391 . S
C1053 C1052 1.386 . S
C1053 C1057 1.393 . S
C1054 H1046 0.950 . S
C1054 C1052 1.391 . S
C1054 C1055 1.400 . S
C1055 C1054 1.400 . S
C1055 C1056 1.398 . S
C1055 C1061 1.491 . S
C1056 H1047 0.950 . S
C1056 C1055 1.398 . S
C1056 C1057 1.391 . S
C1057 H1045 0.950 . S
C1057 C1053 1.393 . S
C1057 C1056 1.391 . S
C1058 H1048 0.950 . S
C1058 C1059 1.386 . S
C1058 C1060 1.391 . S
C1059 C1058 1.386 . S
C1059 C1063 1.393 . S
C1060 H1049 0.950 . S
C1060 C1058 1.391 . S
C1060 C1061 1.400 . S
C1061 C1055 1.491 . S
C1061 C1060 1.400 . S
C1061 C1062 1.398 . S
C1062 H1050 0.950 . S
C1062 C1061 1.398 . S
C1062 C1063 1.391 . S
C1063 H1051 0.950 . S
C1063 C1059 1.393 . S
C1063 C1062 1.391 . S
H1064 C1072 0.950 . S
H1065 C1077 0.950 . S
H1066 C1074 0.950 . S
H1067 C1076 0.950 . S
H1068 C1078 0.950 . S
H1069 C1080 0.950 . S
H1070 C1082 0.950 . S
H1071 C1083 0.950 . S
C1072 H1064 0.950 . S
C1072 C1073 1.386 . S
C1072 C1074 1.391 . S
C1073 C1072 1.386 . S
C1073 C1077 1.393 . S
C1074 H1066 0.950 . S
C1074 C1072 1.391 . S
C1074 C1075 1.400 . S
C1075 C1074 1.400 . S
C1075 C1076 1.398 . S
C1075 C1081 1.491 . S
C1076 H1067 0.950 . S
C1076 C1075 1.398 . S
C1076 C1077 1.391 . S
C1077 H1065 0.950 . S
C1077 C1073 1.393 . S
C1077 C1076 1.391 . S
C1078 H1068 0.950 . S
C1078 C1079 1.386 . S
C1078 C1080 1.391 . S
C1079 C1078 1.386 . S
C1079 C1083 1.393 . S
C1080 H1069 0.950 . S
C1080 C1078 1.391 . S
C1080 C1081 1.400 . S
C1081 C1075 1.491 . S
C1081 C1080 1.400 . S
C1081 C1082 1.398 . S
C1082 H1070 0.950 . S
C1082 C1081 1.398 . S
C1082 C1083 1.391 . S
C1083 H1071 0.950 . S
C1083 C1079 1.393 . S
C1083 C1082 1.391 . S
H1084 C1092 0.950 . S
H1085 C1097 0.950 . S
H1086 C1094 0.950 . S
H1087 C1096 0.950 . S
H1088 C1098 0.950 . S
H1089 C1100 0.950 . S
H1090 C1102 0.950 . S
H1091 C1103 0.950 . S
C1092 H1084 0.950 . S
C1092 C1093 1.386 . S
C1092 C1094 1.391 . S
C1093 C1092 1.386 . S
C1093 C1097 1.393 . S
C1094 H1086 0.950 . S
C1094 C1092 1.391 . S
C1094 C1095 1.400 . S
C1095 C1094 1.400 . S
C1095 C1096 1.398 . S
C1095 C1101 1.491 . S
C1096 H1087 0.950 . S
C1096 C1095 1.398 . S
C1096 C1097 1.391 . S
C1097 H1085 0.950 . S
C1097 C1093 1.393 . S
C1097 C1096 1.391 . S
C1098 H1088 0.950 . S
C1098 C1099 1.386 . S
C1098 C1100 1.391 . S
C1099 C1098 1.386 . S
C1099 C1103 1.393 . S
C1100 H1089 0.950 . S
C1100 C1098 1.391 . S
C1100 C1101 1.400 . S
C1101 C1095 1.491 . S
C1101 C1100 1.400 . S
C1101 C1102 1.398 . S
C1102 H1090 0.950 . S
C1102 C1101 1.398 . S
C1102 C1103 1.391 . S
C1103 H1091 0.950 . S
C1103 C1099 1.393 . S
C1103 C1102 1.391 . S
H1104 C1112 0.950 . S
H1105 C1117 0.950 . S
H1106 C1114 0.950 . S
H1107 C1116 0.950 . S
H1108 C1118 0.950 . S
H1109 C1120 0.950 . S
H1110 C1122 0.950 . S
H1111 C1123 0.950 . S
C1112 H1104 0.950 . S
C1112 C1113 1.386 . S
C1112 C1114 1.391 . S
C1113 C1112 1.386 . S
C1113 C1117 1.393 . S
C1114 H1106 0.950 . S
C1114 C1112 1.391 . S
C1114 C1115 1.400 . S
C1115 C1114 1.400 . S
C1115 C1116 1.398 . S
C1115 C1121 1.491 . S
C1116 H1107 0.950 . S
C1116 C1115 1.398 . S
C1116 C1117 1.391 . S
C1117 H1105 0.950 . S
C1117 C1113 1.393 . S
C1117 C1116 1.391 . S
C1118 H1108 0.950 . S
C1118 C1119 1.386 . S
C1118 C1120 1.391 . S
C1119 C1118 1.386 . S
C1119 C1123 1.393 . S
C1120 H1109 0.950 . S
C1120 C1118 1.391 . S
C1120 C1121 1.400 . S
C1121 C1115 1.491 . S
C1121 C1120 1.400 . S
C1121 C1122 1.398 . S
C1122 H1110 0.950 . S
C1122 C1121 1.398 . S
C1122 C1123 1.391 . S
C1123 H1111 0.950 . S
C1123 C1119 1.393 . S
C1123 C1122 1.391 . S
H1124 C1132 0.950 . S
H1125 C1137 0.950 . S
H1126 C1134 0.950 . S
H1127 C1136 0.950 . S
H1128 C1138 0.950 . S
H1129 C1140 0.950 . S
H1130 C1142 0.950 . S
H1131 C1143 0.950 . S
C1132 H1124 0.950 . S
C1132 C1133 1.386 . S
C1132 C1134 1.391 . S
C1133 C1132 1.386 . S
C1133 C1137 1.393 . S
C1134 H1126 0.950 . S
C1134 C1132 1.391 . S
C1134 C1135 1.400 . S
C1135 C1134 1.400 . S
C1135 C1136 1.398 . S
C1135 C1141 1.491 . S
C1136 H1127 0.950 . S
C1136 C1135 1.398 . S
C1136 C1137 1.391 . S
C1137 H1125 0.950 . S
C1137 C1133 1.393 . S
C1137 C1136 1.391 . S
C1138 H1128 0.950 . S
C1138 C1139 1.386 . S
C1138 C1140 1.391 . S
C1139 C1138 1.386 . S
C1139 C1143 1.393 . S
C1140 H1129 0.950 . S
C1140 C1138 1.391 . S
C1140 C1141 1.400 . S
C1141 C1135 1.491 . S
C1141 C1140 1.400 . S
C1141 C1142 1.398 . S
C1142 H1130 0.950 . S
C1142 C1141 1.398 . S
C1142 C1143 1.391 . S
C1143 H1131 0.950 . S
C1143 C1139 1.393 . S
C1143 C1142 1.391 . S
H1144 C1152 0.950 . S
H1145 C1157 0.950 . S
H1146 C1154 0.950 . S
H1147 C1156 0.950 . S
H1148 C1158 0.950 . S
H1149 C1160 0.950 . S
H1150 C1162 0.950 . S
H1151 C1163 0.950 . S
C1152 H1144 0.950 . S
C1152 C1153 1.386 . S
C1152 C1154 1.391 . S
C1153 C1152 1.386 . S
C1153 C1157 1.393 . S
C1154 H1146 0.950 . S
C1154 C1152 1.391 . S
C1154 C1155 1.400 . S
C1155 C1154 1.400 . S
C1155 C1156 1.398 . S
C1155 C1161 1.491 . S
C1156 H1147 0.950 . S
C1156 C1155 1.398 . S
C1156 C1157 1.391 . S
C1157 H1145 0.950 . S
C1157 C1153 1.393 . S
C1157 C1156 1.391 . S
C1158 H1148 0.950 . S
C1158 C1159 1.386 . S
C1158 C1160 1.391 . S
C1159 C1158 1.386 . S
C1159 C1163 1.393 . S
C1160 H1149 0.950 . S
C1160 C1158 1.391 . S
C1160 C1161 1.400 . S
C1161 C1155 1.491 . S
C1161 C1160 1.400 . S
C1161 C1162 1.398 . S
C1162 H1150 0.950 . S
C1162 C1161 1.398 . S
C1162 C1163 1.391 . S
C1163 H1151 0.950 . S
C1163 C1159 1.393 . S
C1163 C1162 1.391 . S
H1164 C1172 0.950 . S
H1165 C1177 0.950 . S
H1166 C1174 0.950 . S
H1167 C1176 0.950 . S
H1168 C1178 0.950 . S
H1169 C1180 0.950 . S
H1170 C1182 0.950 . S
H1171 C1183 0.950 . S
C1172 H1164 0.950 . S
C1172 C1173 1.386 . S
C1172 C1174 1.391 . S
C1173 C1172 1.386 . S
C1173 C1177 1.393 . S
C1174 H1166 0.950 . S
C1174 C1172 1.391 . S
C1174 C1175 1.400 . S
C1175 C1174 1.400 . S
C1175 C1176 1.398 . S
C1175 C1181 1.491 . S
C1176 H1167 0.950 . S
C1176 C1175 1.398 . S
C1176 C1177 1.391 . S
C1177 H1165 0.950 . S
C1177 C1173 1.393 . S
C1177 C1176 1.391 . S
C1178 H1168 0.950 . S
C1178 C1179 1.386 . S
C1178 C1180 1.391 . S
C1179 C1178 1.386 . S
C1179 C1183 1.393 . S
C1180 H1169 0.950 . S
C1180 C1178 1.391 . S
C1180 C1181 1.400 . S
C1181 C1175 1.491 . S
C1181 C1180 1.400 . S
C1181 C1182 1.398 . S
C1182 H1170 0.950 . S
C1182 C1181 1.398 . S
C1182 C1183 1.391 . S
C1183 H1171 0.950 . S
C1183 C1179 1.393 . S
C1183 C1182 1.391 . S
H1184 C1192 0.950 . S
H1185 C1197 0.950 . S
H1186 C1194 0.950 . S
H1187 C1196 0.950 . S
H1188 C1198 0.950 . S
H1189 C1200 0.950 . S
H1190 C1202 0.950 . S
H1191 C1203 0.950 . S
C1192 H1184 0.950 . S
C1192 C1193 1.386 . S
C1192 C1194 1.391 . S
C1193 C1192 1.386 . S
C1193 C1197 1.393 . S
C1194 H1186 0.950 . S
C1194 C1192 1.391 . S
C1194 C1195 1.400 . S
C1195 C1194 1.400 . S
C1195 C1196 1.398 . S
C1195 C1201 1.491 . S
C1196 H1187 0.950 . S
C1196 C1195 1.398 . S
C1196 C1197 1.391 . S
C1197 H1185 0.950 . S
C1197 C1193 1.393 . S
C1197 C1196 1.391 . S
C1198 H1188 0.950 . S
C1198 C1199 1.386 . S
C1198 C1200 1.391 . S
C1199 C1198 1.386 . S
C1199 C1203 1.393 . S
C1200 H1189 0.950 . S
C1200 C1198 1.391 . S
C1200 C1201 1.400 . S
C1201 C1195 1.491 . S
C1201 C1200 1.400 . S
C1201 C1202 1.398 . S
C1202 H1190 0.950 . S
C1202 C1201 1.398 . S
C1202 C1203 1.391 . S
C1203 H1191 0.950 . S
C1203 C1199 1.393 . S
C1203 C1202 1.391 . S
H1204 C1212 0.950 . S
H1205 C1217 0.950 . S
H1206 C1214 0.950 . S
H1207 C1216 0.950 . S
H1208 C1218 0.950 . S
H1209 C1220 0.950 . S
H1210 C1222 0.950 . S
H1211 C1223 0.950 . S
C1212 H1204 0.950 . S
C1212 C1213 1.386 . S
C1212 C1214 1.391 . S
C1213 C1212 1.386 . S
C1213 C1217 1.393 . S
C1214 H1206 0.950 . S
C1214 C1212 1.391 . S
C1214 C1215 1.400 . S
C1215 C1214 1.400 . S
C1215 C1216 1.398 . S
C1215 C1221 1.491 . S
C1216 H1207 0.950 . S
C1216 C1215 1.398 . S
C1216 C1217 1.391 . S
C1217 H1205 0.950 . S
C1217 C1213 1.393 . S
C1217 C1216 1.391 . S
C1218 H1208 0.950 . S
C1218 C1219 1.386 . S
C1218 C1220 1.391 . S
C1219 C1218 1.386 . S
C1219 C1223 1.393 . S
C1220 H1209 0.950 . S
C1220 C1218 1.391 . S
C1220 C1221 1.400 . S
C1221 C1215 1.491 . S
C1221 C1220 1.400 . S
C1221 C1222 1.398 . S
C1222 H1210 0.950 . S
C1222 C1221 1.398 . S
C1222 C1223 1.391 . S
C1223 H1211 0.950 . S
C1223 C1219 1.393 . S
C1223 C1222 1.391 . S
H1224 C1232 0.950 . S
H1225 C1237 0.950 . S
H1226 C1234 0.950 . S
H1227 C1236 0.950 . S
H1228 C1238 0.950 . S
H1229 C1240 0.950 . S
H1230 C1242 0.950 . S
H1231 C1243 0.950 . S
C1232 H1224 0.950 . S
C1232 C1233 1.386 . S
C1232 C1234 1.391 . S
C1233 C1232 1.386 . S
C1233 C1237 1.393 . S
C1234 H1226 0.950 . S
C1234 C1232 1.391 . S
C1234 C1235 1.400 . S
C1235 C1234 1.400 . S
C1235 C1236 1.398 . S
C1235 C1241 1.491 . S
C1236 H1227 0.950 . S
C1236 C1235 1.398 . S
C1236 C1237 1.391 . S
C1237 H1225 0.950 . S
C1237 C1233 1.393 . S
C1237 C1236 1.391 . S
C1238 H1228 0.950 . S
C1238 C1239 1.386 . S
C1238 C1240 1.391 . S
C1239 C1238 1.386 . S
C1239 C1243 1.393 . S
C1240 H1229 0.950 . S
C1240 C1238 1.391 . S
C1240 C1241 1.400 . S
C1241 C1235 1.491 . S
C1241 C1240 1.400 . S
C1241 C1242 1.398 . S
C1242 H1230 0.950 . S
C1242 C1241 1.398 . S
C1242 C1243 1.391 . S
C1243 H1231 0.950 . S
C1243 C1239 1.393 . S
C1243 C1242 1.391 . S
H1244 C1252 0.950 . S
H1245 C1257 0.950 . S
H1246 C1254 0.950 . S
H1247 C1256 0.950 . S
H1248 C1258 0.950 . S
H1249 C1260 0.950 . S
H1250 C1262 0.950 . S
H1251 C1263 0.950 . S
C1252 H1244 0.950 . S
C1252 C1253 1.386 . S
C1252 C1254 1.391 . S
C1253 C1252 1.386 . S
C1253 C1257 1.393 . S
C1254 H1246 0.950 . S
C1254 C1252 1.391 . S
C1254 C1255 1.400 . S
C1255 C1254 1.400 . S
C1255 C1256 1.398 . S
C1255 C1261 1.491 1_565 S
C1256 H1247 0.950 . S
C1256 C1255 1.398 . S
C1256 C1257 1.391 . S
C1257 H1245 0.950 . S
C1257 C1253 1.393 . S
C1257 C1256 1.391 . S
C1258 H1248 0.950 . S
C1258 C1259 1.386 . S
C1258 C1260 1.391 . S
C1259 C1258 1.386 . S
C1259 C1263 1.393 . S
C1260 H1249 0.950 . S
C1260 C1258 1.391 . S
C1260 C1261 1.400 . S
C1261 C1255 1.491 1_545 S
C1261 C1260 1.400 . S
C1261 C1262 1.398 . S
C1262 H1250 0.950 . S
C1262 C1261 1.398 . S
C1262 C1263 1.391 . S
C1263 H1251 0.950 . S
C1263 C1259 1.393 . S
C1263 C1262 1.391 . S
H1264 C1272 0.950 . S
H1265 C1277 0.950 . S
H1266 C1274 0.950 1_455 S
H1267 C1276 0.950 . S
H1268 C1278 0.950 . S
H1269 C1280 0.950 1_655 S
H1270 C1282 0.950 . S
H1271 C1283 0.950 . S
C1272 H1264 0.950 . S
C1272 C1273 1.386 . S
C1272 C1274 1.391 . S
C1273 C1272 1.386 . S
C1273 C1277 1.393 . S
C1274 H1266 0.950 1_655 S
C1274 C1272 1.391 . S
C1274 C1275 1.400 . S
C1275 C1274 1.400 . S
C1275 C1276 1.398 . S
C1275 C1281 1.491 1_655 S
C1276 H1267 0.950 . S
C1276 C1275 1.398 . S
C1276 C1277 1.391 . S
C1277 H1265 0.950 . S
C1277 C1273 1.393 . S
C1277 C1276 1.391 . S
C1278 H1268 0.950 . S
C1278 C1279 1.386 . S
C1278 C1280 1.391 . S
C1279 C1278 1.386 . S
C1279 C1283 1.393 . S
C1280 H1269 0.950 1_455 S
C1280 C1278 1.391 . S
C1280 C1281 1.400 . S
C1281 C1275 1.491 1_455 S
C1281 C1280 1.400 . S
C1281 C1282 1.398 . S
C1282 H1270 0.950 . S
C1282 C1281 1.398 . S
C1282 C1283 1.391 . S
C1283 H1271 0.950 . S
C1283 C1279 1.393 . S
C1283 C1282 1.391 . S
H1284 C1292 0.950 . S
H1285 C1297 0.950 . S
H1286 C1294 0.950 . S
H1287 C1296 0.950 . S
H1288 C1298 0.950 . S
H1289 C1300 0.950 . S
H1290 C1302 0.950 . S
H1291 C1303 0.950 . S
C1292 H1284 0.950 . S
C1292 C1293 1.386 . S
C1292 C1294 1.391 . S
C1293 C1292 1.386 . S
C1293 C1297 1.393 . S
C1294 H1286 0.950 . S
C1294 C1292 1.391 . S
C1294 C1295 1.400 . S
C1295 C1294 1.400 . S
C1295 C1296 1.398 . S
C1295 C1301 1.491 . S
C1296 H1287 0.950 . S
C1296 C1295 1.398 . S
C1296 C1297 1.391 . S
C1297 H1285 0.950 . S
C1297 C1293 1.393 . S
C1297 C1296 1.391 . S
C1298 H1288 0.950 . S
C1298 C1299 1.386 . S
C1298 C1300 1.391 . S
C1299 C1298 1.386 . S
C1299 C1303 1.393 . S
C1300 H1289 0.950 . S
C1300 C1298 1.391 . S
C1300 C1301 1.400 . S
C1301 C1295 1.491 . S
C1301 C1300 1.400 . S
C1301 C1302 1.398 . S
C1302 H1290 0.950 . S
C1302 C1301 1.398 . S
C1302 C1303 1.391 . S
C1303 H1291 0.950 . S
C1303 C1299 1.393 . S
C1303 C1302 1.391 . S
H1304 C1312 0.950 . S
H1305 C1317 0.950 . S
H1306 C1314 0.950 . S
H1307 C1316 0.971 . S
H1308 C1318 0.950 . S
H1309 C1320 0.950 . S
H1310 C1322 0.950 . S
H1311 C1323 0.950 . S
C1312 H1304 0.950 . S
C1312 C1313 1.386 . S
C1312 C1314 1.391 . S
C1313 C1312 1.386 . S
C1313 C1317 1.393 . S
C1314 H1306 0.950 . S
C1314 C1312 1.391 . S
C1314 C1315 1.400 . S
C1315 C1314 1.400 . S
C1315 C1316 1.398 . S
C1315 C1321 1.491 1_545 S
C1316 H1307 0.971 . S
C1316 C1315 1.398 . S
C1316 C1317 1.391 . S
C1317 H1305 0.950 . S
C1317 C1313 1.393 . S
C1317 C1316 1.391 . S
C1318 H1308 0.950 . S
C1318 C1319 1.386 . S
C1318 C1320 1.391 . S
C1319 C1318 1.386 . S
C1319 C1323 1.393 . S
C1320 H1309 0.950 . S
C1320 C1318 1.391 . S
C1320 C1321 1.400 . S
C1321 C1315 1.491 1_565 S
C1321 C1320 1.400 . S
C1321 C1322 1.398 . S
C1322 H1310 0.950 . S
C1322 C1321 1.398 . S
C1322 C1323 1.391 . S
C1323 H1311 0.950 . S
C1323 C1319 1.393 . S
C1323 C1322 1.391 . S
H1324 C1332 0.950 . S
H1325 C1337 0.950 . S
H1326 C1334 0.950 1_455 S
H1327 C1336 0.950 . S
H1328 C1338 0.950 . S
H1329 C1340 0.950 1_655 S
H1330 C1342 0.950 . S
H1331 C1343 0.950 . S
C1332 H1324 0.950 . S
C1332 C1333 1.386 . S
C1332 C1334 1.391 . S
C1333 C1332 1.386 . S
C1333 C1337 1.393 . S
C1334 H1326 0.950 1_655 S
C1334 C1332 1.391 . S
C1334 C1335 1.400 . S
C1335 C1334 1.400 . S
C1335 C1336 1.398 . S
C1335 C1341 1.491 1_655 S
C1336 H1327 0.950 . S
C1336 C1335 1.398 . S
C1336 C1337 1.391 . S
C1337 H1325 0.950 . S
C1337 C1333 1.393 . S
C1337 C1336 1.391 . S
C1338 H1328 0.950 . S
C1338 C1339 1.386 . S
C1338 C1340 1.391 . S
C1339 C1338 1.386 . S
C1339 C1343 1.393 . S
C1340 H1329 0.950 1_455 S
C1340 C1338 1.391 . S
C1340 C1341 1.400 . S
C1341 C1335 1.491 1_455 S
C1341 C1340 1.400 . S
C1341 C1342 1.398 . S
C1342 H1330 0.950 . S
C1342 C1341 1.398 . S
C1342 C1343 1.391 . S
C1343 H1331 0.950 . S
C1343 C1339 1.393 . S
C1343 C1342 1.391 . S
H1344 C1352 0.950 . S
H1345 C1357 0.950 . S
H1346 C1354 0.950 . S
H1347 C1356 0.950 . S
H1348 C1358 0.950 . S
H1349 C1360 0.950 . S
H1350 C1362 0.950 . S
H1351 C1363 0.950 . S
C1352 H1344 0.950 . S
C1352 C1353 1.386 . S
C1352 C1354 1.391 . S
C1353 C1352 1.386 . S
C1353 C1357 1.393 . S
C1354 H1346 0.950 . S
C1354 C1352 1.391 . S
C1354 C1355 1.400 . S
C1355 C1354 1.400 . S
C1355 C1356 1.398 . S
C1355 C1361 1.491 . S
C1356 H1347 0.950 . S
C1356 C1355 1.398 . S
C1356 C1357 1.391 . S
C1357 H1345 0.950 . S
C1357 C1353 1.393 . S
C1357 C1356 1.391 . S
C1358 H1348 0.950 . S
C1358 C1359 1.386 . S
C1358 C1360 1.391 . S
C1359 C1358 1.386 . S
C1359 C1363 1.393 . S
C1360 H1349 0.950 . S
C1360 C1358 1.391 . S
C1360 C1361 1.400 . S
C1361 C1355 1.491 . S
C1361 C1360 1.400 . S
C1361 C1362 1.398 . S
C1362 H1350 0.950 . S
C1362 C1361 1.398 . S
C1362 C1363 1.391 . S
C1363 H1351 0.950 . S
C1363 C1359 1.393 . S
C1363 C1362 1.391 . S
H1364 C1372 0.950 . S
H1365 C1377 0.950 . S
H1366 C1374 0.950 . S
H1367 C1376 0.950 . S
H1368 C1378 0.950 . S
H1369 C1380 0.950 . S
H1370 C1382 0.950 . S
H1371 C1383 0.950 . S
C1372 H1364 0.950 . S
C1372 C1373 1.386 . S
C1372 C1374 1.391 . S
C1373 C1372 1.386 . S
C1373 C1377 1.393 . S
C1374 H1366 0.950 . S
C1374 C1372 1.391 . S
C1374 C1375 1.400 . S
C1375 C1374 1.400 . S
C1375 C1376 1.398 . S
C1375 C1381 1.491 . S
C1376 H1367 0.950 . S
C1376 C1375 1.398 . S
C1376 C1377 1.391 . S
C1377 H1365 0.950 . S
C1377 C1373 1.393 . S
C1377 C1376 1.391 . S
C1378 H1368 0.950 . S
C1378 C1379 1.386 . S
C1378 C1380 1.391 . S
C1379 C1378 1.386 . S
C1379 C1383 1.393 . S
C1380 H1369 0.950 . S
C1380 C1378 1.391 . S
C1380 C1381 1.400 . S
C1381 C1375 1.491 . S
C1381 C1380 1.400 . S
C1381 C1382 1.398 . S
C1382 H1370 0.950 . S
C1382 C1381 1.398 . S
C1382 C1383 1.391 . S
C1383 H1371 0.950 . S
C1383 C1379 1.393 . S
C1383 C1382 1.391 . S
H1384 C1392 0.950 . S
H1385 C1397 0.950 . S
H1386 C1394 0.950 . S
H1387 C1396 0.950 . S
H1388 C1398 0.950 . S
H1389 C1400 0.950 . S
H1390 C1402 0.950 . S
H1391 C1403 0.950 . S
C1392 H1384 0.950 . S
C1392 C1393 1.386 . S
C1392 C1394 1.391 . S
C1393 C1392 1.386 . S
C1393 C1397 1.393 . S
C1394 H1386 0.950 . S
C1394 C1392 1.391 . S
C1394 C1395 1.400 . S
C1395 C1394 1.400 . S
C1395 C1396 1.398 . S
C1395 C1401 1.491 . S
C1396 H1387 0.950 . S
C1396 C1395 1.398 . S
C1396 C1397 1.391 . S
C1397 H1385 0.950 . S
C1397 C1393 1.393 . S
C1397 C1396 1.391 . S
C1398 H1388 0.950 . S
C1398 C1399 1.386 . S
C1398 C1400 1.391 . S
C1399 C1398 1.386 . S
C1399 C1403 1.393 . S
C1400 H1389 0.950 . S
C1400 C1398 1.391 . S
C1400 C1401 1.400 . S
C1401 C1395 1.491 . S
C1401 C1400 1.400 . S
C1401 C1402 1.398 . S
C1402 H1390 0.950 . S
C1402 C1401 1.398 . S
C1402 C1403 1.391 . S
C1403 H1391 0.950 . S
C1403 C1399 1.393 . S
C1403 C1402 1.391 . S
H1404 C1412 0.950 . S
H1405 C1417 0.950 . S
H1406 C1414 0.950 . S
H1407 C1416 0.950 . S
H1408 C1418 0.950 . S
H1409 C1420 0.950 . S
H1410 C1422 0.950 . S
H1411 C1423 0.950 . S
C1412 H1404 0.950 . S
C1412 C1413 1.386 . S
C1412 C1414 1.391 . S
C1413 C1412 1.386 . S
C1413 C1417 1.393 . S
C1414 H1406 0.950 . S
C1414 C1412 1.391 . S
C1414 C1415 1.400 . S
C1415 C1414 1.400 . S
C1415 C1416 1.398 . S
C1415 C1421 1.491 . S
C1416 H1407 0.950 . S
C1416 C1415 1.398 . S
C1416 C1417 1.391 . S
C1417 H1405 0.950 . S
C1417 C1413 1.393 . S
C1417 C1416 1.391 . S
C1418 H1408 0.950 . S
C1418 C1419 1.386 . S
C1418 C1420 1.391 . S
C1419 C1418 1.386 . S
C1419 C1423 1.393 . S
C1420 H1409 0.950 . S
C1420 C1418 1.391 . S
C1420 C1421 1.400 . S
C1421 C1415 1.491 . S
C1421 C1420 1.400 . S
C1421 C1422 1.398 . S
C1422 H1410 0.950 . S
C1422 C1421 1.398 . S
C1422 C1423 1.391 . S
C1423 H1411 0.950 . S
C1423 C1419 1.393 . S
C1423 C1422 1.391 . S
H1424 C1432 0.950 1_556 S
H1425 C1437 0.950 . S
H1426 C1434 0.950 . S
H1427 C1436 0.950 . S
H1428 C1438 0.950 . S
H1429 C1440 0.950 . S
H1430 C1442 0.950 . S
H1431 C1443 0.950 . S
C1432 H1424 0.950 1_554 S
C1432 C1433 1.386 . S
C1432 C1434 1.391 . S
C1433 C1432 1.386 . S
C1433 C1437 1.393 . S
C1434 H1426 0.950 . S
C1434 C1432 1.391 . S
C1434 C1435 1.400 . S
C1435 C1434 1.400 . S
C1435 C1436 1.398 . S
C1435 C1441 1.491 . S
C1436 H1427 0.950 . S
C1436 C1435 1.398 . S
C1436 C1437 1.391 . S
C1437 H1425 0.950 . S
C1437 C1433 1.393 . S
C1437 C1436 1.391 . S
C1438 H1428 0.950 . S
C1438 C1439 1.386 . S
C1438 C1440 1.391 . S
C1439 C1438 1.386 . S
C1439 C1443 1.393 . S
C1440 H1429 0.950 . S
C1440 C1438 1.391 . S
C1440 C1441 1.400 . S
C1441 C1435 1.491 . S
C1441 C1440 1.400 . S
C1441 C1442 1.398 . S
C1442 H1430 0.950 . S
C1442 C1441 1.398 . S
C1442 C1443 1.391 . S
C1443 H1431 0.950 . S
C1443 C1439 1.393 . S
C1443 C1442 1.391 . S
H1444 C1452 0.950 . S
H1445 C1457 0.950 1_556 S
H1446 C1454 0.950 . S
H1447 C1456 0.950 . S
H1448 C1458 0.950 . S
H1449 C1460 0.950 . S
H1450 C1462 0.950 . S
H1451 C1463 0.950 . S
C1452 H1444 0.950 . S
C1452 C1453 1.386 . S
C1452 C1454 1.391 . S
C1453 C1452 1.386 . S
C1453 C1457 1.393 . S
C1454 H1446 0.950 . S
C1454 C1452 1.391 . S
C1454 C1455 1.400 . S
C1455 C1454 1.400 . S
C1455 C1456 1.398 . S
C1455 C1461 1.491 . S
C1456 H1447 0.950 . S
C1456 C1455 1.398 . S
C1456 C1457 1.391 . S
C1457 H1445 0.950 1_554 S
C1457 C1453 1.393 . S
C1457 C1456 1.391 . S
C1458 H1448 0.950 . S
C1458 C1459 1.386 . S
C1458 C1460 1.391 . S
C1459 C1458 1.386 . S
C1459 C1463 1.393 . S
C1460 H1449 0.950 . S
C1460 C1458 1.391 . S
C1460 C1461 1.400 . S
C1461 C1455 1.491 . S
C1461 C1460 1.400 . S
C1461 C1462 1.398 . S
C1462 H1450 0.950 . S
C1462 C1461 1.398 . S
C1462 C1463 1.391 . S
C1463 H1451 0.950 . S
C1463 C1459 1.393 . S
C1463 C1462 1.391 . S
H1464 C1472 0.950 . S
H1465 C1477 0.950 . S
H1466 C1474 0.950 . S
H1467 C1476 0.950 . S
H1468 C1478 0.950 . S
H1469 C1480 0.950 . S
H1470 C1482 0.950 . S
H1471 C1483 0.950 . S
C1472 H1464 0.950 . S
C1472 C1473 1.386 . S
C1472 C1474 1.391 . S
C1473 C1472 1.386 . S
C1473 C1477 1.393 . S
C1474 H1466 0.950 . S
C1474 C1472 1.391 . S
C1474 C1475 1.400 . S
C1475 C1474 1.400 . S
C1475 C1476 1.398 . S
C1475 C1481 1.491 . S
C1476 H1467 0.950 . S
C1476 C1475 1.398 . S
C1476 C1477 1.391 . S
C1477 H1465 0.950 . S
C1477 C1473 1.393 . S
C1477 C1476 1.391 . S
C1478 H1468 0.950 . S
C1478 C1479 1.386 . S
C1478 C1480 1.391 . S
C1479 C1478 1.386 . S
C1479 C1483 1.393 . S
C1480 H1469 0.950 . S
C1480 C1478 1.391 . S
C1480 C1481 1.400 . S
C1481 C1475 1.491 . S
C1481 C1480 1.400 . S
C1481 C1482 1.398 . S
C1482 H1470 0.950 . S
C1482 C1481 1.398 . S
C1482 C1483 1.391 . S
C1483 H1471 0.950 . S
C1483 C1479 1.393 . S
C1483 C1482 1.391 . S
H1484 C1492 0.950 . S
H1485 C1497 0.950 . S
H1486 C1494 0.950 . S
H1487 C1496 0.950 . S
H1488 C1498 0.950 . S
H1489 C1500 0.950 . S
H1490 C1502 0.950 . S
H1491 C1503 0.950 . S
C1492 H1484 0.950 . S
C1492 C1493 1.386 . S
C1492 C1494 1.391 . S
C1493 C1492 1.386 . S
C1493 C1497 1.393 . S
C1494 H1486 0.950 . S
C1494 C1492 1.391 . S
C1494 C1495 1.400 . S
C1495 C1494 1.400 . S
C1495 C1496 1.398 . S
C1495 C1501 1.491 . S
C1496 H1487 0.950 . S
C1496 C1495 1.398 . S
C1496 C1497 1.391 . S
C1497 H1485 0.950 . S
C1497 C1493 1.393 . S
C1497 C1496 1.391 . S
C1498 H1488 0.950 . S
C1498 C1499 1.386 . S
C1498 C1500 1.391 . S
C1499 C1498 1.386 . S
C1499 C1503 1.393 . S
C1500 H1489 0.950 . S
C1500 C1498 1.391 . S
C1500 C1501 1.400 . S
C1501 C1495 1.491 . S
C1501 C1500 1.400 . S
C1501 C1502 1.398 . S
C1502 H1490 0.950 . S
C1502 C1501 1.398 . S
C1502 C1503 1.391 . S
C1503 H1491 0.950 . S
C1503 C1499 1.393 . S
C1503 C1502 1.391 . S
H1504 C1512 0.950 . S
H1505 C1517 0.950 . S
H1506 C1514 0.950 . S
H1507 C1516 0.950 . S
H1508 C1518 0.950 . S
H1509 C1520 0.950 . S
H1510 C1522 0.950 . S
H1511 C1523 0.950 . S
C1512 H1504 0.950 . S
C1512 C1513 1.386 . S
C1512 C1514 1.391 . S
C1513 C1512 1.386 . S
C1513 C1517 1.393 . S
C1514 H1506 0.950 . S
C1514 C1512 1.391 . S
C1514 C1515 1.400 . S
C1515 C1514 1.400 . S
C1515 C1516 1.398 . S
C1515 C1521 1.491 . S
C1516 H1507 0.950 . S
C1516 C1515 1.398 . S
C1516 C1517 1.391 . S
C1517 H1505 0.950 . S
C1517 C1513 1.393 . S
C1517 C1516 1.391 . S
C1518 H1508 0.950 . S
C1518 C1519 1.386 . S
C1518 C1520 1.391 . S
C1519 C1518 1.386 . S
C1519 C1523 1.393 . S
C1520 H1509 0.950 . S
C1520 C1518 1.391 . S
C1520 C1521 1.400 . S
C1521 C1515 1.491 . S
C1521 C1520 1.400 . S
C1521 C1522 1.398 . S
C1522 H1510 0.950 . S
C1522 C1521 1.398 . S
C1522 C1523 1.391 . S
C1523 H1511 0.950 . S
C1523 C1519 1.393 . S
C1523 C1522 1.391 . S
H1524 C1532 0.950 . S
H1525 C1537 0.950 . S
H1526 C1534 0.950 . S
H1527 C1536 0.950 . S
H1528 C1538 0.950 . S
H1529 C1540 0.950 . S
H1530 C1542 0.950 . S
H1531 C1543 0.950 . S
C1532 H1524 0.950 . S
C1532 C1533 1.386 . S
C1532 C1534 1.391 . S
C1533 C1532 1.386 . S
C1533 C1537 1.393 . S
C1534 H1526 0.950 . S
C1534 C1532 1.391 . S
C1534 C1535 1.400 . S
C1535 C1534 1.400 . S
C1535 C1536 1.398 . S
C1535 C1541 1.491 . S
C1536 H1527 0.950 . S
C1536 C1535 1.398 . S
C1536 C1537 1.391 . S
C1537 H1525 0.950 . S
C1537 C1533 1.393 . S
C1537 C1536 1.391 . S
C1538 H1528 0.950 . S
C1538 C1539 1.386 . S
C1538 C1540 1.391 . S
C1539 C1538 1.386 . S
C1539 C1543 1.393 . S
C1540 H1529 0.950 . S
C1540 C1538 1.391 . S
C1540 C1541 1.400 . S
C1541 C1535 1.491 . S
C1541 C1540 1.400 . S
C1541 C1542 1.398 . S
C1542 H1530 0.950 . S
C1542 C1541 1.398 . S
C1542 C1543 1.391 . S
C1543 H1531 0.950 . S
C1543 C1539 1.393 . S
C1543 C1542 1.391 . S
H1544 C1552 0.950 . S
H1545 C1557 0.950 . S
H1546 C1554 0.950 . S
H1547 C1556 0.950 . S
H1548 C1558 0.950 . S
H1549 C1560 0.950 . S
H1550 C1562 0.950 . S
H1551 C1563 0.950 . S
C1552 H1544 0.950 . S
C1552 C1553 1.386 . S
C1552 C1554 1.391 . S
C1553 C1552 1.386 . S
C1553 C1557 1.393 . S
C1554 H1546 0.950 . S
C1554 C1552 1.391 . S
C1554 C1555 1.400 . S
C1555 C1554 1.400 . S
C1555 C1556 1.398 . S
C1555 C1561 1.491 . S
C1556 H1547 0.950 . S
C1556 C1555 1.398 . S
C1556 C1557 1.391 . S
C1557 H1545 0.950 . S
C1557 C1553 1.393 . S
C1557 C1556 1.391 . S
C1558 H1548 0.950 . S
C1558 C1559 1.386 . S
C1558 C1560 1.391 . S
C1559 C1558 1.386 . S
C1559 C1563 1.393 . S
C1560 H1549 0.950 . S
C1560 C1558 1.391 . S
C1560 C1561 1.400 . S
C1561 C1555 1.491 . S
C1561 C1560 1.400 . S
C1561 C1562 1.398 . S
C1562 H1550 0.950 . S
C1562 C1561 1.398 . S
C1562 C1563 1.391 . S
C1563 H1551 0.950 . S
C1563 C1559 1.393 . S
C1563 C1562 1.391 . S
H1564 C1572 0.950 . S
H1565 C1577 0.950 . S
H1566 C1574 0.950 . S
H1567 C1576 0.950 . S
H1568 C1578 0.950 . S
H1569 C1580 0.950 . S
H1570 C1582 0.950 . S
H1571 C1583 0.950 . S
C1572 H1564 0.950 . S
C1572 C1573 1.386 . S
C1572 C1574 1.391 . S
C1573 C1572 1.386 . S
C1573 C1577 1.393 . S
C1574 H1566 0.950 . S
C1574 C1572 1.391 . S
C1574 C1575 1.400 . S
C1575 C1574 1.400 . S
C1575 C1576 1.398 . S
C1575 C1581 1.491 . S
C1576 H1567 0.950 . S
C1576 C1575 1.398 . S
C1576 C1577 1.391 . S
C1577 H1565 0.950 . S
C1577 C1573 1.393 . S
C1577 C1576 1.391 . S
C1578 H1568 0.950 . S
C1578 C1579 1.386 . S
C1578 C1580 1.391 . S
C1579 C1578 1.386 . S
C1579 C1583 1.393 . S
C1580 H1569 0.950 . S
C1580 C1578 1.391 . S
C1580 C1581 1.400 . S
C1581 C1575 1.491 . S
C1581 C1580 1.400 . S
C1581 C1582 1.398 . S
C1582 H1570 0.950 . S
C1582 C1581 1.398 . S
C1582 C1583 1.391 . S
C1583 H1571 0.950 . S
C1583 C1579 1.393 . S
C1583 C1582 1.391 . S
H1584 C1592 0.950 . S
H1585 C1597 0.950 . S
H1586 C1594 0.950 . S
H1587 C1596 0.950 . S
H1588 C1598 0.950 . S
H1589 C1600 0.950 . S
H1590 C1602 0.950 . S
H1591 C1603 0.950 . S
C1592 H1584 0.950 . S
C1592 C1593 1.386 . S
C1592 C1594 1.391 . S
C1593 C1592 1.386 . S
C1593 C1597 1.393 . S
C1594 H1586 0.950 . S
C1594 C1592 1.391 . S
C1594 C1595 1.400 . S
C1595 C1594 1.400 . S
C1595 C1596 1.398 . S
C1595 C1601 1.491 . S
C1596 H1587 0.950 . S
C1596 C1595 1.398 . S
C1596 C1597 1.391 . S
C1597 H1585 0.950 . S
C1597 C1593 1.393 . S
C1597 C1596 1.391 . S
C1598 H1588 0.950 . S
C1598 C1599 1.386 . S
C1598 C1600 1.391 . S
C1599 C1598 1.386 . S
C1599 C1603 1.393 . S
C1600 H1589 0.950 . S
C1600 C1598 1.391 . S
C1600 C1601 1.400 . S
C1601 C1595 1.491 . S
C1601 C1600 1.400 . S
C1601 C1602 1.398 . S
C1602 H1590 0.950 . S
C1602 C1601 1.398 . S
C1602 C1603 1.391 . S
C1603 H1591 0.950 . S
C1603 C1599 1.393 . S
C1603 C1602 1.391 . S
H1604 C1612 0.950 . S
H1605 C1617 0.950 . S
H1606 C1614 0.950 . S
H1607 C1616 0.950 . S
H1608 C1618 0.950 . S
H1609 C1620 0.950 . S
H1610 C1622 0.950 . S
H1611 C1623 0.950 . S
C1612 H1604 0.950 . S
C1612 C1613 1.386 . S
C1612 C1614 1.391 . S
C1613 C1612 1.386 . S
C1613 C1617 1.393 . S
C1614 H1606 0.950 . S
C1614 C1612 1.391 . S
C1614 C1615 1.400 . S
C1615 C1614 1.400 . S
C1615 C1616 1.398 . S
C1615 C1621 1.491 . S
C1616 H1607 0.950 . S
C1616 C1615 1.398 . S
C1616 C1617 1.391 . S
C1617 H1605 0.950 . S
C1617 C1613 1.393 . S
C1617 C1616 1.391 . S
C1618 H1608 0.950 . S
C1618 C1619 1.386 . S
C1618 C1620 1.391 . S
C1619 C1618 1.386 . S
C1619 C1623 1.393 . S
C1620 H1609 0.950 . S
C1620 C1618 1.391 . S
C1620 C1621 1.400 . S
C1621 C1615 1.491 . S
C1621 C1620 1.400 . S
C1621 C1622 1.398 . S
C1622 H1610 0.950 . S
C1622 C1621 1.398 . S
C1622 C1623 1.391 . S
C1623 H1611 0.950 . S
C1623 C1619 1.393 . S
C1623 C1622 1.391 . S
H1624 C1632 0.950 . S
H1625 C1637 0.950 . S
H1626 C1634 0.950 . S
H1627 C1636 0.950 . S
H1628 C1638 0.950 . S
H1629 C1640 0.950 . S
H1630 C1642 0.950 . S
H1631 C1643 0.950 . S
C1632 H1624 0.950 . S
C1632 C1633 1.386 . S
C1632 C1634 1.391 . S
C1633 C1632 1.386 . S
C1633 C1637 1.393 . S
C1634 H1626 0.950 . S
C1634 C1632 1.391 . S
C1634 C1635 1.400 . S
C1635 C1634 1.400 . S
C1635 C1636 1.398 . S
C1635 C1641 1.491 . S
C1636 H1627 0.950 . S
C1636 C1635 1.398 . S
C1636 C1637 1.391 . S
C1637 H1625 0.950 . S
C1637 C1633 1.393 . S
C1637 C1636 1.391 . S
C1638 H1628 0.950 . S
C1638 C1639 1.386 . S
C1638 C1640 1.391 . S
C1639 C1638 1.386 . S
C1639 C1643 1.393 . S
C1640 H1629 0.950 . S
C1640 C1638 1.391 . S
C1640 C1641 1.400 . S
C1641 C1635 1.491 . S
C1641 C1640 1.400 . S
C1641 C1642 1.398 . S
C1642 H1630 0.950 . S
C1642 C1641 1.398 . S
C1642 C1643 1.391 . S
C1643 H1631 0.950 . S
C1643 C1639 1.393 . S
C1643 C1642 1.391 . S
H1644 C1652 0.950 . S
H1645 C1657 0.950 . S
H1646 C1654 0.950 . S
H1647 C1656 0.950 . S
H1648 C1658 0.950 . S
H1649 C1660 0.950 . S
H1650 C1662 0.950 . S
H1651 C1663 0.950 . S
C1652 H1644 0.950 . S
C1652 C1653 1.386 . S
C1652 C1654 1.391 . S
C1653 C1652 1.386 . S
C1653 C1657 1.393 . S
C1654 H1646 0.950 . S
C1654 C1652 1.391 . S
C1654 C1655 1.400 . S
C1655 C1654 1.400 . S
C1655 C1656 1.398 . S
C1655 C1661 1.491 . S
C1656 H1647 0.950 . S
C1656 C1655 1.398 . S
C1656 C1657 1.391 . S
C1657 H1645 0.950 . S
C1657 C1653 1.393 . S
C1657 C1656 1.391 . S
C1658 H1648 0.950 . S
C1658 C1659 1.386 . S
C1658 C1660 1.391 . S
C1659 C1658 1.386 . S
C1659 C1663 1.393 . S
C1660 H1649 0.950 . S
C1660 C1658 1.391 . S
C1660 C1661 1.400 . S
C1661 C1655 1.491 . S
C1661 C1660 1.400 . S
C1661 C1662 1.398 . S
C1662 H1650 0.950 . S
C1662 C1661 1.398 . S
C1662 C1663 1.391 . S
C1663 H1651 0.950 . S
C1663 C1659 1.393 . S
C1663 C1662 1.391 . S
H1664 C1672 0.950 . S
H1665 C1677 0.950 . S
H1666 C1674 0.950 . S
H1667 C1676 0.950 . S
H1668 C1678 0.950 . S
H1669 C1680 0.950 . S
H1670 C1682 0.950 . S
H1671 C1683 0.950 . S
C1672 H1664 0.950 . S
C1672 C1673 1.386 . S
C1672 C1674 1.391 . S
C1673 C1672 1.386 . S
C1673 C1677 1.393 . S
C1674 H1666 0.950 . S
C1674 C1672 1.391 . S
C1674 C1675 1.400 . S
C1675 C1674 1.400 . S
C1675 C1676 1.398 . S
C1675 C1681 1.491 . S
C1676 H1667 0.950 . S
C1676 C1675 1.398 . S
C1676 C1677 1.391 . S
C1677 H1665 0.950 . S
C1677 C1673 1.393 . S
C1677 C1676 1.391 . S
C1678 H1668 0.950 . S
C1678 C1679 1.386 . S
C1678 C1680 1.391 . S
C1679 C1678 1.386 . S
C1679 C1683 1.393 . S
C1680 H1669 0.950 . S
C1680 C1678 1.391 . S
C1680 C1681 1.400 . S
C1681 C1675 1.491 . S
C1681 C1680 1.400 . S
C1681 C1682 1.398 . S
C1682 H1670 0.950 . S
C1682 C1681 1.398 . S
C1682 C1683 1.391 . S
C1683 H1671 0.950 . S
C1683 C1679 1.393 . S
C1683 C1682 1.391 . S
H1684 C1692 0.950 . S
H1685 C1697 0.950 . S
H1686 C1694 0.950 . S
H1687 C1696 0.950 . S
H1688 C1698 0.950 . S
H1689 C1700 0.950 . S
H1690 C1702 0.950 . S
H1691 C1703 0.950 . S
C1692 H1684 0.950 . S
C1692 C1693 1.386 . S
C1692 C1694 1.391 . S
C1693 C1692 1.386 . S
C1693 C1697 1.393 . S
C1694 H1686 0.950 . S
C1694 C1692 1.391 . S
C1694 C1695 1.400 . S
C1695 C1694 1.400 . S
C1695 C1696 1.398 . S
C1695 C1701 1.491 . S
C1696 H1687 0.950 . S
C1696 C1695 1.398 . S
C1696 C1697 1.391 . S
C1697 H1685 0.950 . S
C1697 C1693 1.393 . S
C1697 C1696 1.391 . S
C1698 H1688 0.950 . S
C1698 C1699 1.386 . S
C1698 C1700 1.391 . S
C1699 C1698 1.386 . S
C1699 C1703 1.393 . S
C1700 H1689 0.950 . S
C1700 C1698 1.391 . S
C1700 C1701 1.400 . S
C1701 C1695 1.491 . S
C1701 C1700 1.400 . S
C1701 C1702 1.398 . S
C1702 H1690 0.950 . S
C1702 C1701 1.398 . S
C1702 C1703 1.391 . S
C1703 H1691 0.950 . S
C1703 C1699 1.393 . S
C1703 C1702 1.391 . S
H1704 C1712 0.950 . S
H1705 C1717 0.950 . S
H1706 C1714 0.950 . S
H1707 C1716 0.950 . S
H1708 C1718 0.950 . S
H1709 C1720 0.950 . S
H1710 C1722 0.950 . S
H1711 C1723 0.950 . S
C1712 H1704 0.950 . S
C1712 C1713 1.386 . S
C1712 C1714 1.391 . S
C1713 C1712 1.386 . S
C1713 C1717 1.393 . S
C1714 H1706 0.950 . S
C1714 C1712 1.391 . S
C1714 C1715 1.400 . S
C1715 C1714 1.400 . S
C1715 C1716 1.398 . S
C1715 C1721 1.491 . S
C1716 H1707 0.950 . S
C1716 C1715 1.398 . S
C1716 C1717 1.391 . S
C1717 H1705 0.950 . S
C1717 C1713 1.393 . S
C1717 C1716 1.391 . S
C1718 H1708 0.950 . S
C1718 C1719 1.386 . S
C1718 C1720 1.391 . S
C1719 C1718 1.386 . S
C1719 C1723 1.393 . S
C1720 H1709 0.950 . S
C1720 C1718 1.391 . S
C1720 C1721 1.400 . S
C1721 C1715 1.491 . S
C1721 C1720 1.400 . S
C1721 C1722 1.398 . S
C1722 H1710 0.950 . S
C1722 C1721 1.398 . S
C1722 C1723 1.391 . S
C1723 H1711 0.950 . S
C1723 C1719 1.393 . S
C1723 C1722 1.391 . S
H1724 C1732 0.950 . S
H1725 C1737 0.950 . S
H1726 C1734 0.950 . S
H1727 C1736 0.950 . S
H1728 C1738 0.950 . S
H1729 C1740 0.950 . S
H1730 C1742 0.950 . S
H1731 C1743 0.950 . S
C1732 H1724 0.950 . S
C1732 C1733 1.386 . S
C1732 C1734 1.391 . S
C1733 C1732 1.386 . S
C1733 C1737 1.393 . S
C1734 H1726 0.950 . S
C1734 C1732 1.391 . S
C1734 C1735 1.400 . S
C1735 C1734 1.400 . S
C1735 C1736 1.398 . S
C1735 C1741 1.491 . S
C1736 H1727 0.950 . S
C1736 C1735 1.398 . S
C1736 C1737 1.391 . S
C1737 H1725 0.950 . S
C1737 C1733 1.393 . S
C1737 C1736 1.391 . S
C1738 H1728 0.950 . S
C1738 C1739 1.386 . S
C1738 C1740 1.391 . S
C1739 C1738 1.386 . S
C1739 C1743 1.393 . S
C1740 H1729 0.950 . S
C1740 C1738 1.391 . S
C1740 C1741 1.400 . S
C1741 C1735 1.491 . S
C1741 C1740 1.400 . S
C1741 C1742 1.398 . S
C1742 H1730 0.950 . S
C1742 C1741 1.398 . S
C1742 C1743 1.391 . S
C1743 H1731 0.950 . S
C1743 C1739 1.393 . S
C1743 C1742 1.391 . S
H1744 C1752 0.950 . S
H1745 C1757 0.950 . S
H1746 C1754 0.950 . S
H1747 C1756 0.950 . S
H1748 C1758 0.950 . S
H1749 C1760 0.950 . S
H1750 C1762 0.950 . S
H1751 C1763 0.950 . S
C1752 H1744 0.950 . S
C1752 C1753 1.386 . S
C1752 C1754 1.391 . S
C1753 C1752 1.386 . S
C1753 C1757 1.393 . S
C1754 H1746 0.950 . S
C1754 C1752 1.391 . S
C1754 C1755 1.400 . S
C1755 C1754 1.400 . S
C1755 C1756 1.398 . S
C1755 C1761 1.491 . S
C1756 H1747 0.950 . S
C1756 C1755 1.398 . S
C1756 C1757 1.391 . S
C1757 H1745 0.950 . S
C1757 C1753 1.393 . S
C1757 C1756 1.391 . S
C1758 H1748 0.950 . S
C1758 C1759 1.386 . S
C1758 C1760 1.391 . S
C1759 C1758 1.386 . S
C1759 C1763 1.393 . S
C1760 H1749 0.950 . S
C1760 C1758 1.391 . S
C1760 C1761 1.400 . S
C1761 C1755 1.491 . S
C1761 C1760 1.400 . S
C1761 C1762 1.398 . S
C1762 H1750 0.950 . S
C1762 C1761 1.398 . S
C1762 C1763 1.391 . S
C1763 H1751 0.950 . S
C1763 C1759 1.393 . S
C1763 C1762 1.391 . S
H1764 C1772 0.950 . S
H1765 C1777 0.950 . S
H1766 C1774 0.950 . S
H1767 C1776 0.950 . S
H1768 C1778 0.950 . S
H1769 C1780 0.950 . S
H1770 C1782 0.950 . S
H1771 C1783 0.950 . S
C1772 H1764 0.950 . S
C1772 C1773 1.386 . S
C1772 C1774 1.391 . S
C1773 C1772 1.386 . S
C1773 C1777 1.393 . S
C1774 H1766 0.950 . S
C1774 C1772 1.391 . S
C1774 C1775 1.400 . S
C1775 C1774 1.400 . S
C1775 C1776 1.398 . S
C1775 C1781 1.491 . S
C1776 H1767 0.950 . S
C1776 C1775 1.398 . S
C1776 C1777 1.391 . S
C1777 H1765 0.950 . S
C1777 C1773 1.393 . S
C1777 C1776 1.391 . S
C1778 H1768 0.950 . S
C1778 C1779 1.386 . S
C1778 C1780 1.391 . S
C1779 C1778 1.386 . S
C1779 C1783 1.393 . S
C1780 H1769 0.950 . S
C1780 C1778 1.391 . S
C1780 C1781 1.400 . S
C1781 C1775 1.491 . S
C1781 C1780 1.400 . S
C1781 C1782 1.398 . S
C1782 H1770 0.950 . S
C1782 C1781 1.398 . S
C1782 C1783 1.391 . S
C1783 H1771 0.950 . S
C1783 C1779 1.393 . S
C1783 C1782 1.391 . S
H1784 C1792 0.950 . S
H1785 C1797 0.950 . S
H1786 C1794 0.950 . S
H1787 C1796 0.950 . S
H1788 C1798 0.950 . S
H1789 C1800 0.950 . S
H1790 C1802 0.950 . S
H1791 C1803 0.950 . S
C1792 H1784 0.950 . S
C1792 C1793 1.386 . S
C1792 C1794 1.391 . S
C1793 C1792 1.386 . S
C1793 C1797 1.393 . S
C1794 H1786 0.950 . S
C1794 C1792 1.391 . S
C1794 C1795 1.400 . S
C1795 C1794 1.400 . S
C1795 C1796 1.398 . S
C1795 C1801 1.491 . S
C1796 H1787 0.950 . S
C1796 C1795 1.398 . S
C1796 C1797 1.391 . S
C1797 H1785 0.950 . S
C1797 C1793 1.393 . S
C1797 C1796 1.391 . S
C1798 H1788 0.950 . S
C1798 C1799 1.386 . S
C1798 C1800 1.391 . S
C1799 C1798 1.386 . S
C1799 C1803 1.393 . S
C1800 H1789 0.950 . S
C1800 C1798 1.391 . S
C1800 C1801 1.400 . S
C1801 C1795 1.491 . S
C1801 C1800 1.400 . S
C1801 C1802 1.398 . S
C1802 H1790 0.950 . S
C1802 C1801 1.398 . S
C1802 C1803 1.391 . S
C1803 H1791 0.950 . S
C1803 C1799 1.393 . S
C1803 C1802 1.391 . S
H1804 C1812 0.950 . S
H1805 C1817 0.950 . S
H1806 C1814 0.950 . S
H1807 C1816 0.950 . S
H1808 C1818 0.950 . S
H1809 C1820 0.950 . S
H1810 C1822 0.950 . S
H1811 C1823 0.950 . S
C1812 H1804 0.950 . S
C1812 C1813 1.386 . S
C1812 C1814 1.391 . S
C1813 C1812 1.386 . S
C1813 C1817 1.393 . S
C1814 H1806 0.950 . S
C1814 C1812 1.391 . S
C1814 C1815 1.400 . S
C1815 C1814 1.400 . S
C1815 C1816 1.398 . S
C1815 C1821 1.491 . S
C1816 H1807 0.950 . S
C1816 C1815 1.398 . S
C1816 C1817 1.391 . S
C1817 H1805 0.950 . S
C1817 C1813 1.393 . S
C1817 C1816 1.391 . S
C1818 H1808 0.950 . S
C1818 C1819 1.386 . S
C1818 C1820 1.391 . S
C1819 C1818 1.386 . S
C1819 C1823 1.393 . S
C1820 H1809 0.950 . S
C1820 C1818 1.391 . S
C1820 C1821 1.400 . S
C1821 C1815 1.491 . S
C1821 C1820 1.400 . S
C1821 C1822 1.398 . S
C1822 H1810 0.950 . S
C1822 C1821 1.398 . S
C1822 C1823 1.391 . S
C1823 H1811 0.950 . S
C1823 C1819 1.393 . S
C1823 C1822 1.391 . S
H1824 C1832 0.950 . S
H1825 C1837 0.950 . S
H1826 C1834 0.950 . S
H1827 C1836 0.971 . S
H1828 C1838 0.950 . S
H1829 C1840 0.950 . S
H1830 C1842 0.950 . S
H1831 C1843 0.950 . S
C1832 H1824 0.950 . S
C1832 C1833 1.386 . S
C1832 C1834 1.391 . S
C1833 C1832 1.386 . S
C1833 C1837 1.393 . S
C1834 H1826 0.950 . S
C1834 C1832 1.391 . S
C1834 C1835 1.400 . S
C1835 C1834 1.400 . S
C1835 C1836 1.398 . S
C1835 C1841 1.491 1_455 S
C1836 H1827 0.971 . S
C1836 C1835 1.398 . S
C1836 C1837 1.391 . S
C1837 H1825 0.950 . S
C1837 C1833 1.393 . S
C1837 C1836 1.391 . S
C1838 H1828 0.950 . S
C1838 C1839 1.386 . S
C1838 C1840 1.391 . S
C1839 C1838 1.386 . S
C1839 C1843 1.393 . S
C1840 H1829 0.950 . S
C1840 C1838 1.391 . S
C1840 C1841 1.400 . S
C1841 C1835 1.491 1_655 S
C1841 C1840 1.400 . S
C1841 C1842 1.398 . S
C1842 H1830 0.950 . S
C1842 C1841 1.398 . S
C1842 C1843 1.391 . S
C1843 H1831 0.950 . S
C1843 C1839 1.393 . S
C1843 C1842 1.391 . S
H1844 C1852 0.950 . S
H1845 C1857 0.950 . S
H1846 C1854 0.950 . S
H1847 C1856 0.950 . S
H1848 C1858 0.950 . S
H1849 C1860 0.950 . S
H1850 C1862 0.950 . S
H1851 C1863 0.950 . S
C1852 H1844 0.950 . S
C1852 C1853 1.386 . S
C1852 C1854 1.391 . S
C1853 C1852 1.386 . S
C1853 C1857 1.393 . S
C1854 H1846 0.950 . S
C1854 C1852 1.391 . S
C1854 C1855 1.400 . S
C1855 C1854 1.400 . S
C1855 C1856 1.398 . S
C1855 C1861 1.491 . S
C1856 H1847 0.950 . S
C1856 C1855 1.398 . S
C1856 C1857 1.391 . S
C1857 H1845 0.950 . S
C1857 C1853 1.393 . S
C1857 C1856 1.391 . S
C1858 H1848 0.950 . S
C1858 C1859 1.386 . S
C1858 C1860 1.391 . S
C1859 C1858 1.386 . S
C1859 C1863 1.393 . S
C1860 H1849 0.950 . S
C1860 C1858 1.391 . S
C1860 C1861 1.400 . S
C1861 C1855 1.491 . S
C1861 C1860 1.400 . S
C1861 C1862 1.398 . S
C1862 H1850 0.950 . S
C1862 C1861 1.398 . S
C1862 C1863 1.391 . S
C1863 H1851 0.950 . S
C1863 C1859 1.393 . S
C1863 C1862 1.391 . S
H1864 C1872 0.950 . S
H1865 C1877 0.950 . S
H1866 C1874 0.950 . S
H1867 C1876 0.950 . S
H1868 C1878 0.950 . S
H1869 C1880 0.950 . S
H1870 C1882 0.974 . S
H1871 C1883 0.950 . S
C1872 H1864 0.950 . S
C1872 C1873 1.386 . S
C1872 C1874 1.391 . S
C1873 C1872 1.386 . S
C1873 C1877 1.393 . S
C1874 H1866 0.950 . S
C1874 C1872 1.391 . S
C1874 C1875 1.400 . S
C1875 C1874 1.400 . S
C1875 C1876 1.398 . S
C1875 C1881 1.491 1_545 S
C1876 H1867 0.950 . S
C1876 C1875 1.398 . S
C1876 C1877 1.391 . S
C1877 H1865 0.950 . S
C1877 C1873 1.393 . S
C1877 C1876 1.391 . S
C1878 H1868 0.950 . S
C1878 C1879 1.386 . S
C1878 C1880 1.391 . S
C1879 C1878 1.386 . S
C1879 C1883 1.393 . S
C1880 H1869 0.950 . S
C1880 C1878 1.391 . S
C1880 C1881 1.400 . S
C1881 C1875 1.491 1_565 S
C1881 C1880 1.400 . S
C1881 C1882 1.398 . S
C1882 H1870 0.974 . S
C1882 C1881 1.398 . S
C1882 C1883 1.391 . S
C1883 H1871 0.950 . S
C1883 C1879 1.393 . S
C1883 C1882 1.391 . S
H1884 C1892 0.950 . S
H1885 C1897 0.950 1_554 S
H1886 C1894 0.950 1_565 S
H1887 C1896 0.950 . S
H1888 C1898 0.950 . S
H1889 C1900 0.950 . S
H1890 C1902 0.950 . S
H1891 C1903 0.950 . S
C1892 H1884 0.950 . S
C1892 C1893 1.386 . S
C1892 C1894 1.391 . S
C1893 C1892 1.386 . S
C1893 C1897 1.393 . S
C1894 H1886 0.950 1_545 S
C1894 C1892 1.391 . S
C1894 C1895 1.400 . S
C1895 C1894 1.400 . S
C1895 C1896 1.398 1_556 S
C1895 C1901 1.488 1_546 S
C1896 H1887 0.950 . S
C1896 C1895 1.398 1_554 S
C1896 C1897 1.391 1_554 S
C1897 H1885 0.950 1_556 S
C1897 C1893 1.393 . S
C1897 C1896 1.391 1_556 S
C1898 H1888 0.950 . S
C1898 C1899 1.386 . S
C1898 C1900 1.391 . S
C1899 C1898 1.386 . S
C1899 C1903 1.393 1_554 S
C1900 H1889 0.950 . S
C1900 C1898 1.391 . S
C1900 C1901 1.408 . S
C1901 C1895 1.488 1_564 S
C1901 C1900 1.408 . S
C1901 C1902 1.393 1_554 S
C1902 H1890 0.950 . S
C1902 C1901 1.393 1_556 S
C1902 C1903 1.391 . S
C1903 H1891 0.950 . S
C1903 C1899 1.393 1_556 S
C1903 C1902 1.391 . S
H1904 C1912 0.950 . S
H1905 C1917 0.950 . S
H1906 C1914 0.950 1_554 S
H1907 C1916 0.950 . S
H1908 C1918 0.950 1_556 S
H1909 C1920 0.950 . S
H1910 C1922 0.950 . S
H1911 C1923 0.950 . S
C1912 H1904 0.950 . S
C1912 C1913 1.386 . S
C1912 C1914 1.391 . S
C1913 C1912 1.386 . S
C1913 C1917 1.393 . S
C1914 H1906 0.950 1_556 S
C1914 C1912 1.391 . S
C1914 C1915 1.400 . S
C1915 C1914 1.400 . S
C1915 C1916 1.398 . S
C1915 C1921 1.490 1_655 S
C1916 H1907 0.950 . S
C1916 C1915 1.398 . S
C1916 C1917 1.391 . S
C1917 H1905 0.950 . S
C1917 C1913 1.393 . S
C1917 C1916 1.391 . S
C1918 H1908 0.950 1_554 S
C1918 C1919 1.386 . S
C1918 C1920 1.391 1_554 S
C1919 C1918 1.386 . S
C1919 C1923 1.393 . S
C1920 H1909 0.950 . S
C1920 C1918 1.391 1_556 S
C1920 C1921 1.399 . S
C1921 C1915 1.490 1_455 S
C1921 C1920 1.399 . S
C1921 C1922 1.400 1_556 S
C1922 H1910 0.950 . S
C1922 C1921 1.400 1_554 S
C1922 C1923 1.391 . S
C1923 H1911 0.950 . S
C1923 C1919 1.393 . S
C1923 C1922 1.391 . S
H1924 C1932 0.950 . S
H1925 C1937 0.950 . S
H1926 C1934 0.950 . S
H1927 C1936 0.950 . S
H1928 C1938 0.950 . S
H1929 C1940 0.950 . S
H1930 C1942 0.950 . S
H1931 C1943 0.950 . S
C1932 H1924 0.950 . S
C1932 C1933 1.386 . S
C1932 C1934 1.391 . S
C1933 C1932 1.386 . S
C1933 C1937 1.393 . S
C1934 H1926 0.950 . S
C1934 C1932 1.391 . S
C1934 C1935 1.400 . S
C1935 C1934 1.400 . S
C1935 C1936 1.398 1_556 S
C1935 C1941 1.490 . S
C1936 H1927 0.950 . S
C1936 C1935 1.398 1_554 S
C1936 C1937 1.391 1_554 S
C1937 H1925 0.950 . S
C1937 C1933 1.393 . S
C1937 C1936 1.391 1_556 S
C1938 H1928 0.950 . S
C1938 C1939 1.386 . S
C1938 C1940 1.391 . S
C1939 C1938 1.386 . S
C1939 C1943 1.393 1_554 S
C1940 H1929 0.950 . S
C1940 C1938 1.391 . S
C1940 C1941 1.402 1_554 S
C1941 C1935 1.490 . S
C1941 C1940 1.402 1_556 S
C1941 C1942 1.397 . S
C1942 H1930 0.950 . S
C1942 C1941 1.397 . S
C1942 C1943 1.391 . S
C1943 H1931 0.950 . S
C1943 C1939 1.393 1_556 S
C1943 C1942 1.391 . S
C513 C13 1.065 . S
C519 C106 1.042 . S
C533 C27 1.037 . S
C539 C120 1.049 . S
C553 C92 1.074 . S
C559 C41 1.032 . S
C573 C162 1.038 . S
C579 C55 1.065 . S
C593 C69 1.030 . S
C599 C134 1.054 . S
C613 C83 1.021 . S
C619 C148 1.075 . S
C633 C22 1.295 . S
C639 C91 1.324 . S
C653 C36 1.297 . S
C659 C105 1.325 . S
C673 C119 1.336 . S
C679 C8 1.290 . S
C693 C133 1.324 . S
C699 C78 1.283 . S
C713 C50 1.276 . S
C719 C147 1.339 . S
C733 C161 1.331 . S
C739 C64 1.268 . S
C753 C274 1.066 . S
C759 C181 1.045 . S
C773 C195 1.060 . S
C779 C288 1.052 . S
C793 C209 1.049 . S
C799 C260 1.040 . S
C813 C330 1.068 . S
C819 C223 1.020 . S
C833 C237 1.043 . S
C839 C302 1.044 . S
C853 C316 1.044 . S
C859 C251 1.064 . S
C873 C190 1.289 . S
C879 C259 1.323 . S
C893 C273 1.338 . S
C899 C204 1.284 . S
C913 C176 1.272 . S
C919 C287 1.339 . S
C933 C301 1.332 . S
C939 C246 1.296 . S
C953 C315 1.323 . S
C959 C218 1.287 . S
C973 C329 1.331 . S
C979 C232 1.267 . S
C993 C442 1.058 . S
C999 C349 1.055 . S
C1013 C456 1.047 . S
C1019 C363 1.038 . S
C1033 C428 1.057 . S
C1039 C377 1.027 . S
C1053 C391 1.059 . S
C1059 C498 1.036 . S
C1073 C405 1.027 . S
C1079 C470 1.075 . S
C1093 C484 1.054 . S
C1099 C419 1.058 . S
C1113 C427 1.326 . S
C1119 C358 1.275 . S
C1133 C372 1.273 . S
C1139 C441 1.327 . S
C1153 C344 1.285 . S
C1159 C455 1.323 . S
C1173 C469 1.324 . S
C1179 C414 1.282 . S
C1193 C483 1.324 . S
C1199 C386 1.280 . S
C1213 C497 1.326 . S
C1219 C400 1.299 . S
C1233 C49 1.130 . S
C1239 C7 1.129 . S
C1253 C63 1.111 . S
C1259 C21 1.112 . S
C1273 C35 1.128 . S
C1279 C77 1.126 . S
C1293 C139 1.254 . S
C1299 C97 1.238 . S
C1313 C153 1.211 . S
C1319 C111 1.222 . S
C1333 C167 1.246 . S
C1339 C125 1.219 . S
C1353 C217 1.115 . S
C1359 C175 1.116 . S
C1373 C231 1.113 . S
C1379 C189 1.112 . S
C1393 C203 1.133 . S
C1399 C245 1.134 . S
C1413 C307 1.273 . S
C1419 C265 1.238 . S
C1433 C321 1.273 . S
C1439 C279 1.234 . S
C1453 C335 1.234 . S
C1459 C293 1.242 . S
C1473 C385 1.114 . S
C1479 C343 1.115 . S
C1493 C357 1.136 . S
C1499 C399 1.135 . S
C1513 C413 1.115 . S
C1519 C371 1.114 . S
C1533 C433 1.222 . S
C1539 C475 1.248 . S
C1553 C447 1.212 . S
C1559 C489 1.220 . S
C1573 C461 1.254 . S
C1579 C503 1.233 . S
C1593 C11 1.446 . S
C1599 C263 1.471 . S
C1613 C277 1.471 . S
C1619 C25 1.445 . S
C1633 C291 1.467 . S
C1639 C39 1.441 . S
C1653 C473 1.465 . S
C1659 C53 1.441 . S
C1673 C487 1.464 . S
C1679 C67 1.442 . S
C1693 C501 1.472 . S
C1699 C81 1.450 . S
C1713 C95 1.468 . S
C1719 C347 1.459 . S
C1733 C361 1.442 . S
C1739 C109 1.468 . S
C1753 C375 1.445 . S
C1759 C123 1.470 . S
C1773 C137 1.466 . S
C1779 C221 1.457 . S
C1793 C151 1.463 . S
C1799 C235 1.444 . S
C1813 C165 1.467 . S
C1819 C249 1.458 . S
C1833 C431 1.473 . S
C1839 C179 1.453 . S
C1853 C445 1.470 . S
C1859 C193 1.444 . S
C1873 C207 1.457 . S
C1879 C459 1.467 . S
C1893 C305 1.463 . S
C1899 C389 1.450 . S
C1913 C319 1.468 . S
C1919 C403 1.442 . S
C1933 C333 1.463 . S
C1939 C417 1.444 . S
