# Generated by pormake.
# Topology vby, (6)-cn, num edge types: 1
# Building blocks:
#     Node 0, Type 0, BuildingBlock: VOLQOD_clean_sbu_1, # of connection points: 6
#     Node 1, Type 0, BuildingBlock: VOLQOD_clean_sbu_1, # of connection points: 6
#     Node 2, Type 0, BuildingBlock: VOLQOD_clean_sbu_1, # of connection points: 6
#     Node 3, Type 0, BuildingBlock: VOLQOD_clean_sbu_1, # of connection points: 6
#     Node 4, Type 0, BuildingBlock: VOLQOD_clean_sbu_1, # of connection points: 6
#     Node 5, Type 0, BuildingBlock: VOLQOD_clean_sbu_1, # of connection points: 6
#     Node 6, Type 0, BuildingBlock: VOLQOD_clean_sbu_1, # of connection points: 6
#     Node 7, Type 0, BuildingBlock: VOLQOD_clean_sbu_1, # of connection points: 6
#     Edge 8, Type (0, 0), BuildingBlock: TEMPAE_clean_linker_10, # of connection points: 2
#     Edge 9, Type (0, 0), BuildingBlock: TEMPAE_clean_linker_10, # of connection points: 2
#     Edge 10, Type (0, 0), BuildingBlock: TEMPAE_clean_linker_10, # of connection points: 2
#     Edge 11, Type (0, 0), BuildingBlock: TEMPAE_clean_linker_10, # of connection points: 2
#     Edge 12, Type (0, 0), BuildingBlock: TEMPAE_clean_linker_10, # of connection points: 2
#     Edge 13, Type (0, 0), BuildingBlock: TEMPAE_clean_linker_10, # of connection points: 2
#     Edge 14, Type (0, 0), BuildingBlock: TEMPAE_clean_linker_10, # of connection points: 2
#     Edge 15, Type (0, 0), BuildingBlock: TEMPAE_clean_linker_10, # of connection points: 2
#     Edge 16, Type (0, 0), BuildingBlock: TEMPAE_clean_linker_10, # of connection points: 2
#     Edge 17, Type (0, 0), BuildingBlock: TEMPAE_clean_linker_10, # of connection points: 2
#     Edge 18, Type (0, 0), BuildingBlock: TEMPAE_clean_linker_10, # of connection points: 2
#     Edge 19, Type (0, 0), BuildingBlock: TEMPAE_clean_linker_10, # of connection points: 2
#     Edge 20, Type (0, 0), BuildingBlock: TEMPAE_clean_linker_10, # of connection points: 2
#     Edge 21, Type (0, 0), BuildingBlock: TEMPAE_clean_linker_10, # of connection points: 2
#     Edge 22, Type (0, 0), BuildingBlock: TEMPAE_clean_linker_10, # of connection points: 2
#     Edge 23, Type (0, 0), BuildingBlock: TEMPAE_clean_linker_10, # of connection points: 2
#     Edge 24, Type (0, 0), BuildingBlock: TEMPAE_clean_linker_10, # of connection points: 2
#     Edge 25, Type (0, 0), BuildingBlock: TEMPAE_clean_linker_10, # of connection points: 2
#     Edge 26, Type (0, 0), BuildingBlock: TEMPAE_clean_linker_10, # of connection points: 2
#     Edge 27, Type (0, 0), BuildingBlock: TEMPAE_clean_linker_10, # of connection points: 2
#     Edge 28, Type (0, 0), BuildingBlock: TEMPAE_clean_linker_10, # of connection points: 2
#     Edge 29, Type (0, 0), BuildingBlock: TEMPAE_clean_linker_10, # of connection points: 2
#     Edge 30, Type (0, 0), BuildingBlock: TEMPAE_clean_linker_10, # of connection points: 2
#     Edge 31, Type (0, 0), BuildingBlock: TEMPAE_clean_linker_10, # of connection points: 2
# Relax obj value: 0.082
# Max RMSD: 0.107
# Mean RMSD: 0.107
data_MOF--net-vby--node1-VOLQOD_clean_sbu_1--edge1-TEMPAE_clean_linker_10
_symmetry_space_group_name_H-M    P1
_symmetry_Int_Tables_number       1
_symmetry_cell_setting            triclinic
loop_
_symmetry_equiv_pos_as_xyz
'x, y, z'
_cell_length_a     17.292364
_cell_length_b     65.196547
_cell_length_c     33.95229
_cell_angle_alpha  89.937825
_cell_angle_beta   89.932436
_cell_angle_gamma 89.98285
loop_
_atom_site_label
_atom_site_type_symbol
_atom_site_fract_x
_atom_site_fract_y
_atom_site_fract_z
_atom_type_partial_charge
O0 O 0.24185 0.37782 0.00139 0.0
Zn1 Zn 0.1271 0.38056 0.99216 0.0
O2 O 0.06941 0.36635 0.03378 0.0
Zn3 Zn 0.0119 0.34289 0.01235 0.0
Zn4 Zn 0.13865 0.35699 0.07454 0.0
Zn5 Zn -0.00032 0.38538 0.05831 0.0
O6 O 0.89655 0.34585 0.02189 0.0
O7 O 0.89271 0.377 0.04809 0.0
O8 O 0.10276 0.36806 0.93972 0.0
O9 O 0.02357 0.34224 0.9536 0.0
O10 O 0.0541 0.31588 0.03298 0.0
O11 O 0.14123 0.32667 0.07611 0.0
O12 O 0.11144 0.36701 0.12856 0.0
O13 O 0.09801 0.41076 0.9884 0.0
O14 O 0.01221 0.38751 0.11666 0.0
O15 O 0.00995 0.41307 0.03563 0.0
C16 C 0.27994 0.37169 0.03129 0.0
C17 C 0.85868 0.36128 0.03459 0.0
C18 C 0.10682 0.31221 0.05827 0.0
C19 C 0.06086 0.35305 0.9288 0.0
C20 C 0.05919 0.37921 0.1406 0.0
C21 C 0.04914 0.42119 0.00812 0.0
O22 O 0.24625 0.36473 0.06178 0.0
O23 O 0.76353 0.6146 -0.00271 0.0
Zn24 Zn 0.87893 0.61188 0.98896 0.0
O25 O 0.93564 0.62581 0.03109 0.0
Zn26 Zn -0.00987 0.65035 0.01126 0.0
Zn27 Zn 0.86461 0.63322 0.07234 0.0
Zn28 Zn 0.00808 0.60716 0.05444 0.0
O29 O 0.10693 0.64831 0.02015 0.0
O30 O 0.11339 0.61651 0.04326 0.0
O31 O 0.90408 0.62513 0.93734 0.0
O32 O 0.97845 0.65176 0.95242 0.0
O33 O 0.94188 0.67652 0.03337 0.0
O34 O 0.8577 0.66326 0.07566 0.0
O35 O 0.8935 0.62274 0.12558 0.0
O36 O 0.90962 0.58178 0.98436 0.0
O37 O -0.00203 0.60429 0.11306 0.0
O38 O 0.0004 0.57982 0.03028 0.0
C39 C 0.72446 0.61948 0.02772 0.0
C40 C 0.14615 0.63267 0.03083 0.0
C41 C 0.88831 0.67867 0.05895 0.0
C42 C 0.94349 0.64075 0.92712 0.0
C43 C 0.94883 0.61146 0.13728 0.0
C44 C 0.96109 0.57165 0.00293 0.0
O45 O 0.75734 0.62507 0.05938 0.0
O46 O 0.22855 0.61662 0.56611 0.0
Zn47 Zn 0.11366 0.61409 0.57547 0.0
O48 O 0.05591 0.62815 0.53372 0.0
Zn49 Zn -0.00108 0.65187 0.55478 0.0
Zn50 Zn 0.12537 0.63711 0.49272 0.0
Zn51 Zn -0.01416 0.6091 0.50957 0.0
O52 O 0.88332 0.64913 0.54528 0.0
O53 O 0.87917 0.61802 0.51891 0.0
O54 O 0.09006 0.62705 0.62755 0.0
O55 O 0.01072 0.65283 0.61357 0.0
O56 O 0.04249 0.67868 0.53372 0.0
O57 O 0.12863 0.66737 0.49045 0.0
O58 O 0.09857 0.62669 0.43907 0.0
O59 O 0.08343 0.584 0.58023 0.0
O60 O -0.0002 0.60609 0.45129 0.0
O61 O -0.00634 0.58175 0.53392 0.0
C62 C 0.26664 0.62262 0.53608 0.0
C63 C 0.84528 0.63379 0.53234 0.0
C64 C 0.09521 0.68203 0.5082 0.0
C65 C 0.04843 0.64214 0.63838 0.0
C66 C 0.04702 0.61425 0.42725 0.0
C67 C 0.0328 0.57369 0.56149 0.0
O68 O 0.23292 0.62943 0.50553 0.0
O69 O 0.7617 0.37878 0.57039 0.0
Zn70 Zn 0.87677 0.38206 0.57859 0.0
O71 O 0.9338 0.36817 0.5366 0.0
Zn72 Zn -0.01119 0.34382 0.55653 0.0
Zn73 Zn 0.86311 0.36054 0.49544 0.0
Zn74 Zn 0.0059 0.38687 0.51329 0.0
O75 O 0.10531 0.34583 0.54671 0.0
O76 O 0.11136 0.37803 0.52564 0.0
O77 O 0.90384 0.36943 0.63057 0.0
O78 O 0.97918 0.34298 0.61546 0.0
O79 O 0.93961 0.3175 0.53578 0.0
O80 O 0.85444 0.33046 0.49376 0.0
O81 O 0.89431 0.37014 0.44177 0.0
O82 O 0.90465 0.41237 0.58193 0.0
O83 O -0.00195 0.38879 0.45459 0.0
O84 O -0.00525 0.41457 0.53563 0.0
C85 C 0.72286 0.3744 0.53964 0.0
C86 C 0.14431 0.36171 0.53717 0.0
C87 C 0.88503 0.31517 0.51088 0.0
C88 C 0.94462 0.35406 0.64081 0.0
C89 C 0.95024 0.38127 0.43018 0.0
C90 C 0.95434 0.42276 0.5626 0.0
O91 O 0.75596 0.36932 0.50765 0.0
O92 O 0.69697 0.87004 0.00542 0.0
Zn93 Zn 0.58181 0.87398 -0.00389 0.0
O94 O 0.52021 0.85962 0.03603 0.0
Zn95 Zn 0.46835 0.83549 0.01364 0.0
Zn96 Zn 0.58657 0.85116 0.07852 0.0
Zn97 Zn 0.44529 0.87807 0.05821 0.0
O98 O 0.35252 0.83578 0.02557 0.0
O99 O 0.34029 0.86669 0.05234 0.0
O100 O 0.55708 0.8623 0.94311 0.0
O101 O 0.47704 0.83631 0.95454 0.0
O102 O 0.52142 0.80938 0.03271 0.0
O103 O 0.58616 0.82112 0.08435 0.0
O104 O 0.56121 0.86382 0.13047 0.0
O105 O 0.55261 0.90417 0.99268 0.0
O106 O 0.46092 0.88347 0.11588 0.0
O107 O 0.44775 0.90472 0.03045 0.0
C108 C 0.7326 0.86267 0.03509 0.0
C109 C 0.31072 0.85006 0.04006 0.0
C110 C 0.56535 0.80639 0.06236 0.0
C111 C 0.51453 0.84773 0.93078 0.0
C112 C 0.50923 0.87652 0.14074 0.0
C113 C 0.4936 0.91347 0.00648 0.0
O114 O 0.69628 0.85629 0.06524 0.0
O115 O 0.2242 0.10814 0.00013 0.0
Zn116 Zn 0.33925 0.10535 0.99158 0.0
O117 O 0.39544 0.11934 0.03383 0.0
Zn118 Zn 0.45357 0.14287 0.01323 0.0
Zn119 Zn 0.32465 0.12841 0.07408 0.0
Zn120 Zn 0.46455 0.10027 0.05878 0.0
O121 O 0.56887 0.13946 0.02225 0.0
O122 O 0.57186 0.10781 0.04642 0.0
O123 O 0.3654 0.11798 0.93919 0.0
O124 O 0.44193 0.14411 0.95458 0.0
O125 O 0.41179 0.1698 0.03441 0.0
O126 O 0.3204 0.15872 0.07505 0.0
O127 O 0.3527 0.11908 0.12842 0.0
O128 O 0.36685 0.07506 0.98885 0.0
O129 O 0.45482 0.09944 0.11752 0.0
O130 O 0.44978 0.07224 0.03833 0.0
C131 C 0.18508 0.11354 0.03022 0.0
C132 C 0.60628 0.12362 0.03337 0.0
C133 C 0.35661 0.1733 0.05845 0.0
C134 C 0.4064 0.13335 0.92911 0.0
C135 C 0.40691 0.10768 0.14109 0.0
C136 C 0.41167 0.06428 0.0103 0.0
O137 O 0.21769 0.12004 0.06133 0.0
O138 O 0.70336 0.12159 0.56576 0.0
Zn139 Zn 0.5885 0.11767 0.57532 0.0
O140 O 0.52732 0.13197 0.53524 0.0
Zn141 Zn 0.47407 0.15593 0.55766 0.0
Zn142 Zn 0.59386 0.14063 0.49284 0.0
Zn143 Zn 0.45352 0.11334 0.51291 0.0
O144 O 0.3585 0.1553 0.54558 0.0
O145 O 0.34818 0.12419 0.51955 0.0
O146 O 0.56299 0.12924 0.62835 0.0
O147 O 0.48178 0.15495 0.61674 0.0
O148 O 0.52571 0.18233 0.53906 0.0
O149 O 0.59586 0.17078 0.48905 0.0
O150 O 0.56616 0.12901 0.44018 0.0
O151 O 0.56027 0.08742 0.57873 0.0
O152 O 0.46807 0.10865 0.45505 0.0
O153 O 0.45746 0.08649 0.53974 0.0
C154 C 0.73928 0.12837 0.53562 0.0
C155 C 0.31757 0.14075 0.53156 0.0
C156 C 0.57209 0.18546 0.5104 0.0
C157 C 0.51939 0.14364 0.64058 0.0
C158 C 0.51454 0.11622 0.42993 0.0
C159 C 0.50268 0.07787 0.56413 0.0
O160 O 0.70325 0.13452 0.50523 0.0
O161 O 0.23044 0.88373 0.57129 0.0
Zn162 Zn 0.3458 0.88626 0.57955 0.0
O163 O 0.40185 0.87225 0.53715 0.0
Zn164 Zn 0.45893 0.84839 0.55745 0.0
Zn165 Zn 0.33067 0.86366 0.49685 0.0
Zn166 Zn 0.47182 0.89114 0.51225 0.0
O167 O 0.57476 0.85157 0.54883 0.0
O168 O 0.57871 0.88311 0.52417 0.0
O169 O 0.37118 0.8733 0.63163 0.0
O170 O 0.44628 0.84687 0.61613 0.0
O171 O 0.41619 0.82167 0.53549 0.0
O172 O 0.32624 0.83345 0.49483 0.0
O173 O 0.35791 0.87347 0.44282 0.0
O174 O 0.37498 0.91646 0.58279 0.0
O175 O 0.46128 0.89263 0.4535 0.0
O176 O 0.45915 0.91901 0.53371 0.0
C177 C 0.19122 0.87834 0.54127 0.0
C178 C 0.61266 0.8673 0.53748 0.0
C179 C 0.36139 0.8186 0.51106 0.0
C180 C 0.41104 0.85771 0.64163 0.0
C181 C 0.41226 0.8848 0.43007 0.0
C182 C 0.42126 0.92706 0.56176 0.0
O183 O 0.22378 0.87188 0.51009 0.0
C184 C 0.40517 0.3745 -0.00538 0.0
C185 C 0.36512 0.37073 0.02982 0.0
C186 C 0.48562 0.372 0.9926 0.0
C187 C 0.52642 0.36565 0.02659 0.0
C188 C 0.4864 0.36186 0.06216 0.0
C189 C 0.4063 0.3645 0.06336 0.0
C190 C 0.52703 0.37628 0.95428 0.0
C191 C 0.52828 0.35525 0.09911 0.0
C192 C 0.73067 0.34471 0.02043 0.0
C193 C 0.77357 0.36193 0.03186 0.0
C194 C 0.64976 0.34576 0.01759 0.0
C195 C 0.61171 0.36447 0.02617 0.0
C196 C 0.65485 0.38195 0.03697 0.0
C197 C 0.73508 0.38045 0.03982 0.0
C198 C 0.60491 0.32682 0.00619 0.0
C199 C 0.61619 0.40219 0.04628 0.0
H200 H 0.37366 0.37916 0.96851 0.0
H201 H 0.37589 0.36152 0.09072 0.0
H202 H 0.56804 0.3892 0.95822 0.0
H203 H 0.56149 0.36271 0.94533 0.0
H204 H 0.48641 0.38023 0.9301 0.0
H205 H 0.48799 0.35198 0.12384 0.0
H206 H 0.5631 0.34129 0.09324 0.0
H207 H 0.5689 0.36747 0.10851 0.0
H208 H 0.76011 0.33041 0.01405 0.0
H209 H 0.76766 0.39394 0.04826 0.0
H210 H 0.56683 0.3302 0.98071 0.0
H211 H 0.56706 0.32206 0.03097 0.0
H212 H 0.64341 0.31379 -0.00158 0.0
H213 H 0.5788 0.40702 0.02142 0.0
H214 H 0.65863 0.41459 0.05222 0.0
H215 H 0.57848 0.40044 0.07253 0.0
C216 C 0.26896 0.61306 0.02871 0.0
C217 C 0.23124 0.63213 0.02679 0.0
C218 C 0.34917 0.61155 0.02567 0.0
C219 C 0.39337 0.62957 0.02078 0.0
C220 C 0.35608 0.64888 0.01782 0.0
C221 C 0.27499 0.64994 0.02071 0.0
C222 C 0.3867 0.59065 0.02883 0.0
C223 C 0.40195 0.66839 0.01267 0.0
C224 C 0.59677 0.62493 0.06 0.0
C225 C 0.63933 0.62106 0.02558 0.0
C226 C 0.51707 0.62845 0.05857 0.0
C227 C 0.47877 0.62803 0.02182 0.0
C228 C 0.52109 0.62414 0.9869 0.0
C229 C 0.60105 0.62064 0.9892 0.0
C230 C 0.47365 0.63228 0.09652 0.0
C231 C 0.48176 0.62351 0.94724 0.0
H232 H 0.23572 0.59911 0.03271 0.0
H233 H 0.24615 0.66467 0.01895 0.0
H234 H 0.4251 0.58791 0.00318 0.0
H235 H 0.42316 0.58997 0.05567 0.0
H236 H 0.34357 0.57805 0.03032 0.0
H237 H 0.36415 0.68195 0.00803 0.0
H238 H 0.43796 0.67109 0.03919 0.0
H239 H 0.44189 0.66695 0.98722 0.0
H240 H 0.62583 0.62534 0.08826 0.0
H241 H 0.63368 0.61791 0.96243 0.0
H242 H 0.43179 0.61967 0.10178 0.0
H243 H 0.44006 0.64673 0.09439 0.0
H244 H 0.51281 0.6333 0.12236 0.0
H245 H 0.43992 0.61062 0.94643 0.0
H246 H 0.5236 0.62157 0.92267 0.0
H247 H 0.44851 0.63785 0.94234 0.0
C248 C 0.72181 0.61456 0.52788 0.0
C249 C 0.76012 0.63318 0.53504 0.0
C250 C 0.64159 0.61304 0.53082 0.0
C251 C 0.59821 0.63061 0.54087 0.0
C252 C 0.63605 0.64944 0.54861 0.0
C253 C 0.71699 0.65051 0.54574 0.0
C254 C 0.60322 0.59266 0.52245 0.0
C255 C 0.59093 0.66849 0.55917 0.0
C256 C 0.39294 0.62969 0.50371 0.0
C257 C 0.35181 0.62374 0.5375 0.0
C258 C 0.47292 0.63258 0.50482 0.0
C259 C 0.5129 0.62934 0.54056 0.0
C260 C 0.47213 0.62329 0.57481 0.0
C261 C 0.3918 0.62052 0.57287 0.0
C262 C 0.51474 0.63885 0.46759 0.0
C263 C 0.51347 0.61958 0.61332 0.0
H264 H 0.75454 0.60098 0.52005 0.0
H265 H 0.74629 0.66489 0.5515 0.0
H266 H 0.56591 0.5881 0.54756 0.0
H267 H 0.56549 0.59406 0.49617 0.0
H268 H 0.64583 0.58022 0.517 0.0
H269 H 0.62924 0.68164 0.56629 0.0
H270 H 0.55304 0.67291 0.53421 0.0
H271 H 0.55286 0.6654 0.58482 0.0
H272 H 0.36258 0.63224 0.47622 0.0
H273 H 0.36031 0.61611 0.59917 0.0
H274 H 0.5556 0.62658 0.45864 0.0
H275 H 0.5493 0.65291 0.47288 0.0
H276 H 0.47444 0.64181 0.44276 0.0
H277 H 0.55475 0.60667 0.61001 0.0
H278 H 0.47283 0.61592 0.63769 0.0
H279 H 0.54761 0.63332 0.62158 0.0
C280 C 0.59524 0.36921 0.50722 0.0
C281 C 0.63771 0.37285 0.54171 0.0
C282 C 0.51546 0.36581 0.5086 0.0
C283 C 0.47701 0.3661 0.54536 0.0
C284 C 0.51924 0.36974 0.58035 0.0
C285 C 0.59925 0.37314 0.5781 0.0
C286 C 0.47211 0.36224 0.47059 0.0
C287 C 0.47976 0.37023 0.62002 0.0
C288 C 0.26727 0.38126 0.5393 0.0
C289 C 0.22942 0.36221 0.54101 0.0
C290 C 0.34754 0.38269 0.54203 0.0
C291 C 0.39161 0.36462 0.54644 0.0
C292 C 0.3542 0.34532 0.54915 0.0
C293 C 0.2731 0.34433 0.54654 0.0
C294 C 0.38523 0.40357 0.53911 0.0
C295 C 0.39995 0.32576 0.55382 0.0
H296 H 0.62442 0.3689 0.47895 0.0
H297 H 0.63178 0.37569 0.60492 0.0
H298 H 0.43835 0.3478 0.47243 0.0
H299 H 0.4304 0.37491 0.46561 0.0
H300 H 0.51134 0.36132 0.44471 0.0
H301 H 0.52152 0.37201 0.64462 0.0
H302 H 0.4381 0.38316 0.62106 0.0
H303 H 0.44628 0.35591 0.62467 0.0
H304 H 0.23411 0.39525 0.53567 0.0
H305 H 0.24418 0.32961 0.54811 0.0
H306 H 0.42172 0.40433 0.51224 0.0
H307 H 0.42365 0.40619 0.56476 0.0
H308 H 0.34221 0.41622 0.53784 0.0
H309 H 0.43601 0.32321 0.52721 0.0
H310 H 0.36208 0.31218 0.55817 0.0
H311 H 0.43983 0.32701 0.57927 0.0
C312 C 0.85037 0.84452 0.05865 0.0
C313 C 0.81707 0.85925 0.03364 0.0
C314 C 0.92988 0.84059 0.05799 0.0
C315 C 0.97768 0.8519 0.03211 0.0
C316 C 0.94441 0.86642 0.00603 0.0
C317 C 0.86418 0.86983 0.0069 0.0
C318 C 0.9629 0.82481 0.08592 0.0
C319 C -0.00609 0.87885 0.97821 0.0
C320 C 0.18303 0.86188 0.06466 0.0
C321 C 0.22546 0.84843 0.0407 0.0
C322 C 0.10246 0.86292 0.06235 0.0
C323 C 0.06296 0.85013 0.03548 0.0
C324 C 0.10489 0.83591 0.01224 0.0
C325 C 0.186 0.83519 0.01515 0.0
C326 C 0.0598 0.87811 0.08804 0.0
C327 C 0.06428 0.8219 0.98359 0.0
H328 H 0.81414 0.8359 0.07883 0.0
H329 H 0.83862 0.88107 0.98728 0.0
H330 H 0.00173 0.81412 0.06995 0.0
H331 H -0.00195 0.83259 0.10877 0.0
H332 H 0.91705 0.81572 0.10085 0.0
H333 H 0.95874 0.88835 0.95779 0.0
H334 H 0.03223 0.88915 -0.00463 0.0
H335 H 0.03164 0.86858 0.9606 0.0
H336 H 0.21305 0.87201 0.0848 0.0
H337 H 0.21853 0.82484 -0.00355 0.0
H338 H 0.01643 0.87003 0.10648 0.0
H339 H 0.02802 0.88924 0.06933 0.0
H340 H 0.09926 0.88677 0.10775 0.0
H341 H 0.01822 0.81311 -0.00113 0.0
H342 H 0.1047 0.81092 0.96935 0.0
H343 H 0.03588 0.83117 0.96031 0.0
C344 C 0.05746 0.11913 0.06232 0.0
C345 C 0.09987 0.11415 0.02839 0.0
C346 C 0.97724 0.12151 0.06091 0.0
C347 C 0.93839 0.11877 0.02471 0.0
C348 C 0.98043 0.11359 0.99035 0.0
C349 C 0.06095 0.1113 0.9926 0.0
C350 C 0.93404 0.12684 0.09826 0.0
C351 C 0.94032 0.11045 0.95134 0.0
C352 C 0.72907 0.10389 0.03534 0.0
C353 C 0.69126 0.12273 0.02974 0.0
C354 C 0.80932 0.1023 0.03235 0.0
C355 C 0.85309 0.12003 0.02376 0.0
C356 C 0.81562 0.13905 0.01724 0.0
C357 C 0.73475 0.14018 0.0202 0.0
C358 C 0.84733 0.08174 0.03942 0.0
C359 C 0.86109 0.15824 0.00814 0.0
H360 H 0.08699 0.12135 0.09013 0.0
H361 H 0.09341 0.1076 0.96622 0.0
H362 H 0.89966 0.14102 0.09385 0.0
H363 H 0.89289 0.11437 0.10574 0.0
H364 H 0.97341 0.12918 0.12369 0.0
H365 H 0.98171 0.10711 0.92713 0.0
H366 H 0.89883 0.09753 0.95365 0.0
H367 H 0.90655 0.12433 0.94348 0.0
H368 H 0.69597 0.09023 0.04221 0.0
H369 H 0.70582 0.15474 0.01562 0.0
H370 H 0.88394 0.08251 0.06619 0.0
H371 H 0.88571 0.07775 0.01437 0.0
H372 H 0.80448 0.06921 0.04338 0.0
H373 H 0.89782 0.16229 0.03376 0.0
H374 H 0.82302 0.1715 0.00129 0.0
H375 H 0.90029 0.15556 0.98278 0.0
C376 C 0.19203 0.15587 0.55497 0.0
C377 C 0.23227 0.14201 0.53096 0.0
C378 C 0.11092 0.15508 0.55768 0.0
C379 C 0.06984 0.14013 0.53585 0.0
C380 C 0.11013 0.12659 0.51066 0.0
C381 C 0.19064 0.12774 0.50845 0.0
C382 C 0.06935 0.1699 0.58448 0.0
C383 C 0.06836 0.11056 0.48656 0.0
C384 C 0.8699 0.12157 0.565 0.0
C385 C 0.82389 0.13144 0.53682 0.0
C386 C 0.95015 0.12486 0.56606 0.0
C387 C -0.01547 0.13851 0.53865 0.0
C388 C 0.93793 0.14903 0.5111 0.0
C389 C 0.85837 0.14525 0.51033 0.0
C390 C -0.00155 0.11325 0.59563 0.0
C391 C 0.97232 0.16385 0.48164 0.0
H392 H 0.22391 0.16685 0.57253 0.0
H393 H 0.22122 0.1171 0.48948 0.0
H394 H 0.02434 0.17837 0.5678 0.0
H395 H 0.03948 0.16131 0.60827 0.0
H396 H 0.10935 0.18117 0.59811 0.0
H397 H 0.1085 0.10123 0.46834 0.0
H398 H 0.03574 0.10011 0.50633 0.0
H399 H 0.02581 0.11802 0.46676 0.0
H400 H 0.84345 0.11104 0.58574 0.0
H401 H 0.82305 0.1533 0.48895 0.0
H402 H 0.03558 0.124 0.61242 0.0
H403 H 0.03736 0.10244 0.57997 0.0
H404 H 0.96242 0.10438 0.61673 0.0
H405 H 0.01011 0.17511 0.49673 0.0
H406 H 0.92724 0.17235 0.46498 0.0
H407 H 0.00885 0.15534 0.46031 0.0
C408 C 0.73511 0.88715 0.53736 0.0
C409 C 0.69759 0.86816 0.5415 0.0
C410 C 0.81528 0.88878 0.54064 0.0
C411 C 0.85938 0.87097 0.548 0.0
C412 C 0.82218 0.85179 0.55312 0.0
C413 C 0.74131 0.85061 0.54995 0.0
C414 C 0.85291 0.90952 0.53511 0.0
C415 C 0.86797 0.83249 0.56086 0.0
C416 C 0.06361 0.8731 0.50912 0.0
C417 C 0.10601 0.87757 0.54326 0.0
C418 C -0.01648 0.87044 0.51056 0.0
C419 C 0.9447 0.87236 0.54701 0.0
C420 C -0.01327 0.87701 0.58161 0.0
C421 C 0.06715 0.87961 0.57933 0.0
C422 C 0.94038 0.86571 0.47294 0.0
C423 C 0.9467 0.87927 0.62092 0.0
H424 H 0.70182 0.9009 0.53143 0.0
H425 H 0.71259 0.83594 0.55342 0.0
H426 H 0.89118 0.91304 0.56041 0.0
H427 H 0.88954 0.90935 0.50826 0.0
H428 H 0.80981 0.92207 0.53214 0.0
H429 H 0.83011 0.81908 0.56692 0.0
H430 H 0.90465 0.82894 0.53491 0.0
H431 H 0.90725 0.83475 0.5863 0.0
H432 H 0.0931 0.87151 0.4811 0.0
H433 H 0.09963 0.88288 0.60587 0.0
H434 H 0.89892 0.87825 0.46636 0.0
H435 H 0.90635 0.8514 0.47645 0.0
H436 H 0.97976 0.8639 0.44731 0.0
H437 H 0.90483 0.89215 0.61967 0.0
H438 H -0.01189 0.88219 0.64527 0.0
H439 H 0.91337 0.86517 0.6278 0.0
C440 C 0.92825 0.53848 0.96898 0.0
C441 C 0.97757 0.54999 0.99312 0.0
C442 C 0.94118 0.51739 0.96323 0.0
C443 C 0.00448 0.50778 0.98223 0.0
C444 C 0.05719 0.51964 0.00434 0.0
C445 C 0.04318 0.54056 0.00942 0.0
C446 C 0.88457 0.50521 0.93889 0.0
C447 C 0.12533 0.51001 0.02523 0.0
C448 C -0.0145 0.45442 0.02355 0.0
C449 C 0.03539 0.44311 -0.00079 0.0
C450 C 0.97206 0.47525 0.01693 0.0
C451 C 0.0091 0.48513 0.98499 0.0
C452 C 0.05716 0.47373 0.95925 0.0
C453 C 0.07018 0.4528 0.9668 0.0
C454 C 0.92093 0.48688 0.04537 0.0
C455 C 0.09674 0.48378 0.92463 0.0
H456 H 0.87809 0.54572 0.95583 0.0
H457 H 0.08277 0.5494 0.02739 0.0
H458 H 0.91543 0.49419 0.91958 0.0
H459 H 0.84644 0.49621 0.95871 0.0
H460 H 0.84768 0.51529 0.92036 0.0
H461 H 0.16534 0.52168 0.03758 0.0
H462 H 0.10414 0.50025 0.04977 0.0
H463 H 0.15835 0.50001 0.00487 0.0
H464 H 0.9578 0.44711 0.04855 0.0
H465 H 0.10802 0.44411 0.94758 0.0
H466 H 0.87543 0.49538 0.02915 0.0
H467 H 0.95601 0.49832 0.06165 0.0
H468 H 0.89249 0.47662 0.06716 0.0
H469 H 0.05533 0.4935 0.90804 0.0
H470 H 0.12239 0.47233 0.90422 0.0
H471 H 0.14362 0.49395 0.93536 0.0
C472 C 0.92591 0.45501 0.60074 0.0
C473 C 0.96733 0.44474 0.57117 0.0
C474 C 0.93703 0.4761 0.60726 0.0
C475 C -0.00992 0.48705 0.58338 0.0
C476 C 0.03425 0.47657 0.55472 0.0
C477 C 0.02248 0.4556 0.54907 0.0
C478 C 0.88982 0.4868 0.63849 0.0
C479 C 0.09107 0.48768 0.52838 0.0
C480 C 0.95709 0.54166 0.55207 0.0
C481 C 0.01748 0.55195 0.57134 0.0
C482 C 0.94425 0.52075 0.55799 0.0
C483 C -0.00727 0.50976 0.58402 0.0
C484 C 0.05061 0.52023 0.60558 0.0
C485 C 0.0626 0.54128 0.59887 0.0
C486 C 0.88209 0.51017 0.53422 0.0
C487 C 0.1025 0.50901 0.63407 0.0
H488 H 0.88394 0.44668 0.61829 0.0
H489 H 0.05561 0.44783 0.52644 0.0
H490 H 0.92679 0.49724 0.6561 0.0
H491 H 0.84459 0.49632 0.62425 0.0
H492 H 0.86105 0.47574 0.65864 0.0
H493 H 0.12494 0.47701 0.50959 0.0
H494 H 0.05943 0.49848 0.50889 0.0
H495 H 0.13198 0.49686 0.54628 0.0
H496 H 0.92082 0.54981 0.53125 0.0
H497 H 0.10863 0.54918 0.61429 0.0
H498 H 0.84509 0.50059 0.55356 0.0
H499 H 0.90941 0.49983 0.51229 0.0
H500 H 0.84462 0.52123 0.51824 0.0
H501 H 0.06841 0.4983 0.65266 0.0
H502 H 0.13458 0.51974 0.65349 0.0
H503 H 0.14518 0.49973 0.61739 0.0
C504 C 0.53298 0.9472 0.97674 0.0
C505 C 0.47758 0.93506 -0.00412 0.0
C506 C 0.52058 0.96832 0.97136 0.0
C507 C 0.45148 0.97734 0.98562 0.0
C508 C 0.39312 0.96486 0.00222 0.0
C509 C 0.40682 0.94389 0.00706 0.0
C510 C 0.5836 0.98117 0.95297 0.0
C511 C 0.31867 0.97386 0.01792 0.0
C512 C 0.46056 0.03007 0.03079 0.0
C513 C 0.42189 0.04212 0.00277 0.0
C514 C 0.47239 0.00913 0.02481 0.0
C515 C 0.44528 -0.0001 0.98977 0.0
C516 C 0.40744 0.01195 0.96091 0.0
C517 C 0.3957 0.03298 0.96786 0.0
C518 C 0.5122 -0.00323 0.0566 0.0
C519 C 0.37848 0.00256 0.92309 0.0
H520 H 0.58734 0.94043 0.96754 0.0
H521 H 0.36284 0.93456 0.02111 0.0
H522 H 0.55881 0.9925 0.93211 0.0
H523 H 0.61409 0.98985 0.97636 0.0
H524 H 0.62672 0.9716 0.93712 0.0
H525 H 0.27541 0.96184 0.02519 0.0
H526 H 0.33099 0.98275 0.04506 0.0
H527 H 0.29282 0.98457 -0.00376 0.0
H528 H 0.48098 0.03696 0.0579 0.0
H529 H 0.36645 0.04225 0.94594 0.0
H530 H 0.56285 0.98857 0.04419 0.0
H531 H 0.4719 0.98502 0.0684 0.0
H532 H 0.53225 0.00647 0.08146 0.0
H533 H 0.42542 0.99376 0.90856 0.0
H534 H 0.35653 0.01432 0.90218 0.0
H535 H 0.33107 0.99162 0.92962 0.0
C536 C 0.54092 0.04451 0.59585 0.0
C537 C 0.48727 0.05622 0.57457 0.0
C538 C 0.52904 0.0234 0.60175 0.0
C539 C 0.46236 0.01394 0.58577 0.0
C540 C 0.40561 0.02599 0.56675 0.0
C541 C 0.41867 0.04695 0.5615 0.0
C542 C 0.59015 0.01103 0.62276 0.0
C543 C 0.33381 0.01651 0.54911 0.0
C544 C 0.47665 0.96083 0.54286 0.0
C545 C 0.43328 0.94913 0.56966 0.0
C546 C 0.48899 0.98175 0.5488 0.0
C547 C 0.45756 0.99132 0.58257 0.0
C548 C 0.41569 0.97958 0.61048 0.0
C549 C 0.40355 0.95856 0.60358 0.0
C550 C 0.53333 0.99376 0.51804 0.0
C551 C 0.38221 0.98932 0.64702 0.0
H552 H 0.59352 0.05161 0.60654 0.0
H553 H 0.37595 0.05593 0.54572 0.0
H554 H 0.56324 -0.00016 0.64325 0.0
H555 H 0.6242 0.0022 0.60085 0.0
H556 H 0.63051 0.02096 0.63959 0.0
H557 H 0.29131 0.02827 0.53947 0.0
H558 H 0.35016 0.00713 0.52314 0.0
H559 H 0.30528 0.00617 0.5706 0.0
H560 H 0.50013 0.95372 0.51659 0.0
H561 H 0.37073 0.94957 0.62463 0.0
H562 H 0.58182 0.0022 0.53191 0.0
H563 H 0.49469 0.00528 0.50418 0.0
H564 H 0.55724 0.98377 0.49449 0.0
H565 H 0.42659 -0.00123 0.66208 0.0
H566 H 0.35971 0.97771 0.66809 0.0
H567 H 0.33411 -0.00029 0.63873 0.0
C568 C 0.19609 0.28749 0.09107 0.0
C569 C 0.13638 0.2911 0.06388 0.0
C570 C 0.23369 0.2685 0.09286 0.0
C571 C 0.21063 0.25265 0.0671 0.0
C572 C 0.14812 0.25581 0.04085 0.0
C573 C 0.1117 0.27505 0.0395 0.0
C574 C 0.29991 0.26566 0.12135 0.0
C575 C 0.12138 0.23908 0.01333 0.0
C576 C 0.35305 0.21059 0.04041 0.0
C577 C 0.32687 0.19438 0.06408 0.0
C578 C 0.3167 0.22984 0.04171 0.0
C579 C 0.25277 0.23285 0.06719 0.0
C580 C 0.22817 0.21683 0.09228 0.0
C581 C 0.2657 0.19783 0.09055 0.0
C582 C 0.34507 0.24674 0.01492 0.0
C583 C 0.16043 0.21951 0.11996 0.0
H584 H 0.21546 0.29975 0.11021 0.0
H585 H 0.06573 0.27769 0.01843 0.0
H586 H 0.28965 0.25204 0.14024 0.0
H587 H 0.35422 0.26286 0.10477 0.0
H588 H 0.3084 0.27924 0.14061 0.0
H589 H 0.06972 0.24369 -0.00398 0.0
H590 H 0.16862 0.23511 0.99256 0.0
H591 H 0.10726 0.22501 0.03027 0.0
H592 H 0.40015 0.20807 0.01989 0.0
H593 H 0.2452 0.18546 0.10916 0.0
H594 H 0.35817 0.26071 0.03233 0.0
H595 H 0.29907 0.25086 0.99357 0.0
H596 H 0.39773 0.24225 -0.00174 0.0
H597 H 0.1697 0.233 0.13925 0.0
H598 H 0.15083 0.2058 0.13882 0.0
H599 H 0.10706 0.22243 0.10273 0.0
C600 C 0.59069 0.76982 0.04295 0.0
C601 C 0.60613 0.78659 0.06751 0.0
C602 C 0.63855 0.7524 0.04351 0.0
C603 C 0.70387 0.75197 0.0687 0.0
C604 C 0.71837 0.76855 0.09433 0.0
C605 C 0.66886 0.7855 0.0938 0.0
C606 C 0.62043 0.73467 0.01648 0.0
C607 C 0.78786 0.76875 0.12131 0.0
C608 C 0.79104 0.70038 0.09331 0.0
C609 C 0.85101 0.69883 0.06547 0.0
C610 C 0.74333 0.71767 0.09491 0.0
C611 C 0.75679 0.73407 0.06861 0.0
C612 C 0.82017 0.73327 0.04214 0.0
C613 C 0.86646 0.71556 0.04072 0.0
C614 C 0.6764 0.71796 0.12358 0.0
C615 C 0.83729 0.7508 0.0144 0.0
H616 H 0.54259 0.77053 0.02256 0.0
H617 H 0.68183 0.79836 0.11289 0.0
H618 H 0.66825 0.73259 -0.00496 0.0
H619 H 0.61569 0.72026 0.03373 0.0
H620 H 0.56574 0.73703 -5e-05 0.0
H621 H 0.78995 0.7827 0.14005 0.0
H622 H 0.78736 0.75506 0.14073 0.0
H623 H 0.84169 0.76807 0.10354 0.0
H624 H 0.77888 0.68763 0.11288 0.0
H625 H 0.91257 0.71452 0.01916 0.0
H626 H 0.62105 0.71868 0.10713 0.0
H627 H 0.6793 0.73182 0.14243 0.0
H628 H 0.67539 0.7042 0.1429 0.0
H629 H 0.78887 0.75263 0.99327 0.0
H630 H 0.89155 0.74836 -0.00251 0.0
H631 H 0.84224 0.76538 0.03105 0.0
C632 C 0.1037 0.71915 0.52696 0.0
C633 C 0.12686 0.70293 0.50259 0.0
C634 C 0.14276 0.73802 0.52598 0.0
C635 C 0.20649 0.74061 0.50019 0.0
C636 C 0.22799 0.72462 0.47438 0.0
C637 C 0.18765 0.70603 0.47572 0.0
C638 C 0.1175 0.75495 0.55345 0.0
C639 C 0.2955 0.72685 0.4464 0.0
C640 C 0.26981 0.79487 0.47755 0.0
C641 C 0.33018 0.79773 0.50467 0.0
C642 C 0.2299 0.77625 0.47535 0.0
C643 C 0.25139 0.75998 0.50055 0.0
C644 C 0.31477 0.76234 0.52657 0.0
C645 C 0.35345 0.78125 0.5284 0.0
C646 C 0.16279 0.77427 0.44714 0.0
C647 C 0.33995 0.74512 0.55342 0.0
H648 H 0.05691 0.7169 0.54778 0.0
H649 H 0.20589 0.69365 0.45657 0.0
H650 H 0.16451 0.75837 0.57467 0.0
H651 H 0.10614 0.76921 0.53655 0.0
H652 H 0.06455 0.75086 0.57027 0.0
H653 H 0.30259 0.71325 0.42703 0.0
H654 H 0.28793 0.74063 0.42762 0.0
H655 H 0.34963 0.72901 0.46342 0.0
H656 H 0.25161 0.80745 0.45884 0.0
H657 H 0.39991 0.78332 0.54941 0.0
H658 H 0.10845 0.77191 0.46395 0.0
H659 H 0.17072 0.7607 0.4279 0.0
H660 H 0.15584 0.78807 0.42823 0.0
H661 H 0.29286 0.74147 0.57452 0.0
H662 H 0.39283 0.74904 0.57037 0.0
H663 H 0.3514 0.73104 0.53602 0.0
C664 C 0.86563 0.27823 0.52961 0.0
C665 C 0.84725 0.29498 0.50546 0.0
C666 C 0.82046 0.26031 0.52887 0.0
C667 C 0.75522 0.2593 0.50371 0.0
C668 C 0.7383 0.27582 0.4782 0.0
C669 C 0.78488 0.29333 0.47911 0.0
C670 C 0.8411 0.24271 0.55581 0.0
C671 C 0.66926 0.27532 0.45096 0.0
C672 C 0.67179 0.2074 0.47821 0.0
C673 C 0.61077 0.20558 0.50543 0.0
C674 C 0.7192 0.22476 0.47743 0.0
C675 C 0.70439 0.24098 0.5039 0.0
C676 C 0.64073 0.23979 0.53014 0.0
C677 C 0.59485 0.222 0.5308 0.0
C678 C 0.78678 0.22542 0.44917 0.0
C679 C 0.62233 0.25709 0.55815 0.0
H680 H 0.91354 0.27936 0.55005 0.0
H681 H 0.77025 0.30611 0.46007 0.0
H682 H 0.79395 0.24026 0.5775 0.0
H683 H 0.8471 0.22834 0.53858 0.0
H684 H 0.89581 0.24548 0.57207 0.0
H685 H 0.66509 0.2893 0.43236 0.0
H686 H 0.67243 0.26173 0.43138 0.0
H687 H 0.61533 0.2739 0.46849 0.0
H688 H 0.68492 0.19484 0.45841 0.0
H689 H 0.54804 0.22074 0.55192 0.0
H690 H 0.84167 0.22658 0.46592 0.0
H691 H 0.78288 0.2392 0.43009 0.0
H692 H 0.78964 0.21161 0.43009 0.0
H693 H 0.67127 0.25935 0.57879 0.0
H694 H 0.56907 0.25412 0.57557 0.0
H695 H 0.61475 0.27162 0.54155 0.0
C696 C -0.0026 0.39768 0.19695 0.0
C697 C 0.04956 0.38279 0.18329 0.0
C698 C -0.01788 0.39986 0.23728 0.0
C699 C 0.01938 0.38671 0.26443 0.0
C700 C 0.0743 0.37221 0.251 0.0
C701 C 0.08902 0.37049 0.21057 0.0
C702 C 0.924 0.41568 0.25067 0.0
C703 C 0.11498 0.35787 0.27917 0.0
C704 C 0.02138 0.39753 0.37404 0.0
C705 C 0.96298 0.38431 0.38752 0.0
C706 C 0.03867 0.39907 0.33379 0.0
C707 C -0.00303 0.38698 0.30655 0.0
C708 C 0.93626 0.37415 0.3198 0.0
C709 C 0.91975 0.37305 0.36012 0.0
C710 C 0.10313 0.4131 0.32055 0.0
C711 C 0.89067 0.36098 0.29155 0.0
H712 H 0.96719 0.40738 0.17607 0.0
H713 H 0.12949 0.35898 0.20029 0.0
H714 H 0.87185 0.40787 0.26243 0.0
H715 H 0.94838 0.4251 0.27486 0.0
H716 H 0.90596 0.42604 0.22634 0.0
H717 H 0.15938 0.34832 0.26424 0.0
H718 H 0.14331 0.36671 0.30302 0.0
H719 H 0.07204 0.34754 0.29322 0.0
H720 H 0.0547 0.4064 0.395 0.0
H721 H 0.87448 0.36282 0.37025 0.0
H722 H 0.0829 0.42324 0.29641 0.0
H723 H 0.15173 0.40384 0.30876 0.0
H724 H 0.12529 0.42279 0.34495 0.0
H725 H 0.8656 0.37058 0.26779 0.0
H726 H 0.84303 0.35254 0.30641 0.0
H727 H 0.92969 0.34965 0.27739 0.0
C728 C 0.01827 0.59499 0.19376 0.0
C729 C 0.95933 0.60793 0.17996 0.0
C730 C 0.03373 0.59327 0.23417 0.0
C731 C -0.01033 0.60491 0.26123 0.0
C732 C 0.9281 0.61733 0.24763 0.0
C733 C 0.91344 0.61861 0.20718 0.0
C734 C 0.0991 0.57964 0.24777 0.0
C735 C 0.87998 0.63004 0.27565 0.0
C736 C -0.01142 0.59487 0.37112 0.0
C737 C 0.03869 0.61025 0.38463 0.0
C738 C 0.97479 0.59225 0.33074 0.0
C739 C 0.01126 0.60549 0.30344 0.0
C740 C 0.06414 0.62051 0.31678 0.0
C741 C 0.07757 0.62263 0.35723 0.0
C742 C 0.91898 0.57586 0.31744 0.0
C743 C 0.1038 0.63501 0.28849 0.0
H744 H 0.05361 0.58655 0.17294 0.0
H745 H 0.86762 0.6286 0.19684 0.0
H746 H 0.14695 0.58924 0.2593 0.0
H747 H 0.07955 0.56956 0.27216 0.0
H748 H 0.12209 0.56992 0.22359 0.0
H749 H 0.83148 0.63798 0.26055 0.0
H750 H 0.85581 0.62022 0.29935 0.0
H751 H 0.91703 0.64177 0.28992 0.0
H752 H 0.9589 0.58511 0.39212 0.0
H753 H 0.11645 0.63453 0.36741 0.0
H754 H 0.9448 0.56663 0.29335 0.0
H755 H 0.86589 0.58315 0.30558 0.0
H756 H 0.90217 0.56541 0.34185 0.0
H757 H 0.13379 0.62627 0.265 0.0
H758 H 0.14666 0.64502 0.30342 0.0
H759 H 0.06001 0.6449 0.27398 0.0
C760 C 0.00642 0.66013 0.87199 0.0
C761 C 0.95319 0.64527 0.8847 0.0
C762 C 0.02264 0.66277 0.83181 0.0
C763 C -0.01534 0.65025 0.80388 0.0
C764 C 0.92794 0.63602 0.81637 0.0
C765 C 0.91288 0.6337 0.85663 0.0
C766 C 0.08307 0.6782 0.81946 0.0
C767 C 0.88581 0.62249 0.78735 0.0
C768 C -0.01496 0.66079 0.6942 0.0
C769 C 0.03933 0.64634 0.68093 0.0
C770 C 0.96924 0.66304 0.73449 0.0
C771 C 0.00867 0.65055 0.76198 0.0
C772 C 0.06654 0.63678 0.74896 0.0
C773 C 0.08118 0.63484 0.70858 0.0
C774 C 0.90756 0.678 0.74742 0.0
C775 C 0.1102 0.62328 0.7775 0.0
H776 H 0.03758 0.66922 0.89346 0.0
H777 H 0.87104 0.62234 0.86612 0.0
H778 H 0.13536 0.67002 0.80885 0.0
H779 H 0.06156 0.68775 0.79473 0.0
H780 H 0.10016 0.68844 0.84409 0.0
H781 H 0.83929 0.61334 0.80157 0.0
H782 H 0.85985 0.6319 0.76356 0.0
H783 H 0.92739 0.61176 0.77335 0.0
H784 H 0.95274 0.66985 0.67307 0.0
H785 H 0.12382 0.6238 0.69867 0.0
H786 H 0.92835 0.68742 0.77244 0.0
H787 H 0.85603 0.66941 0.75778 0.0
H788 H 0.88951 0.68838 0.72314 0.0
H789 H 0.13512 0.63263 0.80162 0.0
H790 H 0.1577 0.61465 0.76296 0.0
H791 H 0.06984 0.61209 0.79112 0.0
C792 C 0.9172 0.36162 0.71152 0.0
C793 C 0.95669 0.34997 0.68321 0.0
C794 C 0.93423 0.35962 0.75163 0.0
C795 C -0.00782 0.34564 0.7637 0.0
C796 C 0.02973 0.33313 0.73556 0.0
C797 C 0.01146 0.33543 0.69556 0.0
C798 C 0.89254 0.37312 0.78091 0.0
C799 C 0.09158 0.318 0.74747 0.0
C800 C 0.09079 0.36097 0.85844 0.0
C801 C 0.05052 0.34915 0.88623 0.0
C802 C 0.07478 0.35925 0.81817 0.0
C803 C 0.01712 0.34538 0.80543 0.0
C804 C 0.97914 0.33261 0.83303 0.0
C805 C -0.00366 0.33464 0.87318 0.0
C806 C 0.1169 0.37302 0.78947 0.0
C807 C 0.91764 0.31756 0.8204 0.0
H808 H 0.87432 0.37276 0.7023 0.0
H809 H 0.04211 0.32631 0.67392 0.0
H810 H 0.86755 0.36369 0.80497 0.0
H811 H 0.93417 0.38395 0.79451 0.0
H812 H 0.84534 0.38215 0.76704 0.0
H813 H 0.1093 0.30794 0.72266 0.0
H814 H 0.14326 0.32644 0.75804 0.0
H815 H 0.07105 0.30825 0.77215 0.0
H816 H 0.13325 0.37208 0.86819 0.0
H817 H 0.96521 0.32535 0.89441 0.0
H818 H 0.07559 0.38412 0.77637 0.0
H819 H 0.1416 0.36385 0.765 0.0
H820 H 0.16436 0.38176 0.80374 0.0
H821 H 0.86585 0.32607 0.81014 0.0
H822 H 0.9 0.30718 0.84476 0.0
H823 H 0.93845 0.30814 0.79535 0.0
C824 C 0.44603 0.89652 0.19488 0.0
C825 C 0.50119 0.88203 0.18279 0.0
C826 C 0.43189 0.90007 0.23499 0.0
C827 C 0.47333 0.8887 0.26351 0.0
C828 C 0.53164 0.87481 0.25153 0.0
C829 C 0.54513 0.87172 0.21131 0.0
C830 C 0.37017 0.91526 0.24678 0.0
C831 C 0.57692 0.86234 0.28113 0.0
C832 C 0.47554 0.90178 0.37223 0.0
C833 C 0.42176 0.88764 0.38714 0.0
C834 C 0.49031 0.90308 0.33166 0.0
C835 C 0.45113 0.88972 0.30564 0.0
C836 C 0.39461 0.87601 0.32036 0.0
C837 C 0.38026 0.87523 0.36091 0.0
C838 C 0.54994 0.91814 0.31685 0.0
C839 C 0.35194 0.86142 0.29351 0.0
H840 H 0.41233 0.90471 0.17304 0.0
H841 H 0.58814 0.86057 0.20229 0.0
H842 H 0.31954 0.90692 0.25891 0.0
H843 H 0.39182 0.92559 0.27026 0.0
H844 H 0.35045 0.92473 0.22148 0.0
H845 H 0.62384 0.85327 0.26711 0.0
H846 H 0.60288 0.87251 0.30369 0.0
H847 H 0.53742 0.85162 0.29666 0.0
H848 H 0.5073 0.91156 0.3923 0.0
H849 H 0.33853 0.86428 0.37215 0.0
H850 H 0.52687 0.92697 0.29149 0.0
H851 H 0.60169 0.9097 0.30632 0.0
H852 H 0.56831 0.92907 0.3401 0.0
H853 H 0.32417 0.86998 0.26907 0.0
H854 H 0.30676 0.85253 0.30934 0.0
H855 H 0.39352 0.85047 0.28015 0.0
C856 C 0.47403 0.09167 0.19871 0.0
C857 C 0.41788 0.10521 0.18402 0.0
C858 C 0.49043 0.09079 0.23912 0.0
C859 C 0.4502 0.10388 0.26526 0.0
C860 C 0.39134 0.11696 0.25084 0.0
C861 C 0.37563 0.11739 0.2104 0.0
C862 C 0.55279 0.07644 0.25361 0.0
C863 C 0.34732 0.13119 0.27787 0.0
C864 C 0.45055 0.09641 0.37592 0.0
C865 C 0.50454 0.11125 0.38775 0.0
C866 C 0.43463 0.09315 0.33593 0.0
C867 C 0.47315 0.10513 0.30724 0.0
C868 C 0.52999 0.1195 0.31888 0.0
C869 C 0.54527 0.12232 0.359 0.0
C870 C 0.37443 0.07749 0.32448 0.0
C871 C 0.57216 0.1326 0.28906 0.0
H872 H 0.5065 0.08207 0.17856 0.0
H873 H 0.33204 0.12786 0.19934 0.0
H874 H 0.6031 0.08548 0.26402 0.0
H875 H 0.5315 0.0673 0.27899 0.0
H876 H 0.57283 0.06577 0.23024 0.0
H877 H 0.30038 0.13955 0.26232 0.0
H878 H 0.32158 0.12245 0.30266 0.0
H879 H 0.3876 0.14262 0.29072 0.0
H880 H 0.41927 0.08766 0.39793 0.0
H881 H 0.58721 0.13377 0.36784 0.0
H882 H 0.39707 0.06726 0.30105 0.0
H883 H 0.32287 0.08541 0.31238 0.0
H884 H 0.35587 0.06793 0.34991 0.0
H885 H 0.59916 0.12281 0.26615 0.0
H886 H 0.61788 0.14218 0.30278 0.0
H887 H 0.5304 0.14288 0.274 0.0
C888 C 0.46634 0.15406 0.875 0.0
C889 C 0.41686 0.13812 0.88681 0.0
C890 C 0.48257 0.1575 0.83508 0.0
C891 C 0.44848 0.1447 0.80636 0.0
C892 C 0.39597 0.12916 0.81791 0.0
C893 C 0.38078 0.12605 0.85802 0.0
C894 C 0.53863 0.17426 0.82376 0.0
C895 C 0.3582 0.11526 0.78801 0.0
C896 C 0.44788 0.15862 0.69792 0.0
C897 C 0.50724 0.146 0.68347 0.0
C898 C 0.42966 0.15894 0.73819 0.0
C899 C 0.472 0.14641 0.76449 0.0
C900 C 0.53431 0.13441 0.75037 0.0
C901 C 0.55115 0.13434 0.71004 0.0
C902 C 0.36303 0.17199 0.75231 0.0
C903 C 0.5812 0.12095 0.77764 0.0
H904 H 0.49421 0.16355 0.897 0.0
H905 H 0.3421 0.11379 0.86681 0.0
H906 H 0.59221 0.16733 0.81166 0.0
H907 H 0.51356 0.1841 0.80036 0.0
H908 H 0.55446 0.18408 0.84923 0.0
H909 H 0.31469 0.10489 0.80158 0.0
H910 H 0.32942 0.12449 0.76481 0.0
H911 H 0.40296 0.10574 0.77336 0.0
H912 H 0.41369 0.16771 0.67763 0.0
H913 H 0.59753 0.12468 0.69921 0.0
H914 H 0.3809 0.18145 0.77786 0.0
H915 H 0.31512 0.16194 0.76236 0.0
H916 H 0.34073 0.1823 0.72885 0.0
H917 H 0.60359 0.13008 0.80271 0.0
H918 H 0.63085 0.1136 0.76239 0.0
H919 H 0.54377 0.10873 0.79006 0.0
C920 C 0.38263 0.86462 0.71259 0.0
C921 C 0.42026 0.85278 0.68392 0.0
C922 C 0.3965 0.86141 0.75276 0.0
C923 C 0.44928 0.84599 0.76454 0.0
C924 C 0.48485 0.83337 0.73593 0.0
C925 C 0.4699 0.83691 0.69591 0.0
C926 C 0.35715 0.87512 0.78252 0.0
C927 C 0.54121 0.81673 0.74748 0.0
C928 C 0.54827 0.85686 0.86148 0.0
C929 C 0.5039 0.84518 0.88784 0.0
C930 C 0.53297 0.85658 0.82101 0.0
C931 C 0.47177 0.84433 0.80654 0.0
C932 C 0.42912 0.83174 0.83265 0.0
C933 C 0.44576 0.83229 0.87307 0.0
C934 C 0.58015 0.87011 0.79397 0.0
C935 C 0.36369 0.81842 0.81815 0.0
H936 H 0.34373 0.87681 0.70367 0.0
H937 H 0.49896 0.82759 0.674 0.0
H938 H 0.32815 0.86575 0.80547 0.0
H939 H 0.40098 0.88477 0.79752 0.0
H940 H 0.31352 0.88537 0.76874 0.0
H941 H 0.55782 0.80694 0.72208 0.0
H942 H 0.59435 0.82378 0.75975 0.0
H943 H 0.51604 0.80684 0.77081 0.0
H944 H 0.59378 0.86671 0.87254 0.0
H945 H 0.41129 0.82317 0.89321 0.0
H946 H 0.54263 0.88224 0.78127 0.0
H947 H 0.60361 0.86101 0.76909 0.0
H948 H 0.62908 0.87761 0.8095 0.0
H949 H 0.31536 0.82827 0.80794 0.0
H950 H 0.34154 0.80799 0.84147 0.0
H951 H 0.38274 0.80907 0.79264 0.0
loop_
_geom_bond_atom_site_label_1
_geom_bond_atom_site_label_2
_geom_bond_distance
_geom_bond_site_symmetry_2
_ccdc_geom_bond_type
O0 Zn1 1.953 1_554 S
O0 C16 1.225 . S
Zn1 O0 1.953 1_556 S
Zn1 O2 1.949 1_556 S
Zn1 O8 1.919 . S
Zn1 O13 1.924 1_556 S
O2 Zn1 1.949 1_554 S
O2 Zn3 1.923 1_455 S
O2 Zn4 1.950 . S
O2 Zn5 1.945 1_455 S
Zn3 O2 1.923 1_655 S
Zn3 O6 1.933 . S
Zn3 O9 1.941 1_654 S
Zn3 O10 1.965 1_655 S
Zn4 O2 1.950 . S
Zn4 O11 1.938 . S
Zn4 O12 1.906 . S
Zn4 O22 1.953 . S
Zn5 O2 1.945 1_655 S
Zn5 O7 1.932 . S
Zn5 O14 1.977 . S
Zn5 O15 1.910 1_655 S
O6 Zn3 1.933 . S
O6 C17 1.226 . S
O7 Zn5 1.932 . S
O7 C17 1.307 . S
O8 Zn1 1.919 . S
O8 C19 1.253 . S
O9 Zn3 1.941 1_456 S
O9 C19 1.283 . S
O10 Zn3 1.965 1_455 S
O10 C18 1.303 . S
O11 Zn4 1.938 . S
O11 C18 1.247 . S
O12 Zn4 1.906 . S
O12 C20 1.304 . S
O13 Zn1 1.924 1_554 S
O13 C21 1.311 . S
O14 Zn5 1.977 . S
O14 C20 1.272 1_655 S
O15 Zn5 1.910 1_455 S
O15 C21 1.231 . S
C16 O0 1.225 . S
C16 O22 1.298 . S
C17 O6 1.226 . S
C17 O7 1.307 . S
C18 O10 1.303 . S
C18 O11 1.247 . S
C19 O8 1.253 . S
C19 O9 1.283 . S
C20 O12 1.304 . S
C20 O14 1.272 1_455 S
C21 O13 1.311 . S
C21 O15 1.231 . S
O22 Zn4 1.953 . S
O22 C16 1.298 . S
O23 Zn24 1.953 1_554 S
O23 C39 1.225 . S
Zn24 O23 1.953 1_556 S
Zn24 O25 1.949 1_556 S
Zn24 O31 1.919 . S
Zn24 O36 1.924 1_556 S
O25 Zn24 1.949 1_554 S
O25 Zn26 1.923 1_655 S
O25 Zn27 1.950 . S
O25 Zn28 1.945 1_655 S
Zn26 O25 1.923 1_455 S
Zn26 O29 1.933 . S
Zn26 O32 1.941 1_454 S
Zn26 O33 1.965 1_455 S
Zn27 O25 1.950 . S
Zn27 O34 1.938 . S
Zn27 O35 1.906 . S
Zn27 O45 1.953 . S
Zn28 O25 1.945 1_455 S
Zn28 O30 1.932 . S
Zn28 O37 1.977 . S
Zn28 O38 1.910 1_455 S
O29 Zn26 1.933 . S
O29 C40 1.226 . S
O30 Zn28 1.932 . S
O30 C40 1.307 . S
O31 Zn24 1.919 . S
O31 C42 1.253 . S
O32 Zn26 1.941 1_656 S
O32 C42 1.283 . S
O33 Zn26 1.965 1_655 S
O33 C41 1.303 . S
O34 Zn27 1.938 . S
O34 C41 1.247 . S
O35 Zn27 1.906 . S
O35 C43 1.304 . S
O36 Zn24 1.924 1_554 S
O36 C44 1.311 . S
O37 Zn28 1.977 . S
O37 C43 1.272 1_455 S
O38 Zn28 1.910 1_655 S
O38 C44 1.231 . S
C39 O23 1.225 . S
C39 O45 1.298 . S
C40 O29 1.226 . S
C40 O30 1.307 . S
C41 O33 1.303 . S
C41 O34 1.247 . S
C42 O31 1.253 . S
C42 O32 1.283 . S
C43 O35 1.304 . S
C43 O37 1.272 1_655 S
C44 O36 1.311 . S
C44 O38 1.231 . S
O45 Zn27 1.953 . S
O45 C39 1.298 . S
O46 Zn47 1.953 . S
O46 C62 1.225 . S
Zn47 O46 1.953 . S
Zn47 O48 1.949 . S
Zn47 O54 1.919 . S
Zn47 O59 1.924 . S
O48 Zn47 1.949 . S
O48 Zn49 1.923 1_455 S
O48 Zn50 1.950 . S
O48 Zn51 1.945 1_455 S
Zn49 O48 1.923 1_655 S
Zn49 O52 1.933 . S
Zn49 O55 1.941 1_655 S
Zn49 O56 1.965 1_655 S
Zn50 O48 1.950 . S
Zn50 O57 1.938 . S
Zn50 O58 1.906 . S
Zn50 O68 1.953 . S
Zn51 O48 1.945 1_655 S
Zn51 O53 1.932 . S
Zn51 O60 1.977 . S
Zn51 O61 1.910 1_655 S
O52 Zn49 1.933 . S
O52 C63 1.226 . S
O53 Zn51 1.932 . S
O53 C63 1.307 . S
O54 Zn47 1.919 . S
O54 C65 1.253 . S
O55 Zn49 1.941 1_455 S
O55 C65 1.283 . S
O56 Zn49 1.965 1_455 S
O56 C64 1.303 . S
O57 Zn50 1.938 . S
O57 C64 1.247 . S
O58 Zn50 1.906 . S
O58 C66 1.304 . S
O59 Zn47 1.924 . S
O59 C67 1.311 . S
O60 Zn51 1.977 . S
O60 C66 1.272 1_655 S
O61 Zn51 1.910 1_455 S
O61 C67 1.231 . S
C62 O46 1.225 . S
C62 O68 1.298 . S
C63 O52 1.226 . S
C63 O53 1.307 . S
C64 O56 1.303 . S
C64 O57 1.247 . S
C65 O54 1.253 . S
C65 O55 1.283 . S
C66 O58 1.304 . S
C66 O60 1.272 1_455 S
C67 O59 1.311 . S
C67 O61 1.231 . S
O68 Zn50 1.953 . S
O68 C62 1.298 . S
O69 Zn70 1.953 . S
O69 C85 1.225 . S
Zn70 O69 1.953 . S
Zn70 O71 1.949 . S
Zn70 O77 1.919 . S
Zn70 O82 1.924 . S
O71 Zn70 1.949 . S
O71 Zn72 1.923 1_655 S
O71 Zn73 1.950 . S
O71 Zn74 1.945 1_655 S
Zn72 O71 1.923 1_455 S
Zn72 O75 1.933 . S
Zn72 O78 1.941 1_455 S
Zn72 O79 1.965 1_455 S
Zn73 O71 1.950 . S
Zn73 O80 1.938 . S
Zn73 O81 1.906 . S
Zn73 O91 1.953 . S
Zn74 O71 1.945 1_455 S
Zn74 O76 1.932 . S
Zn74 O83 1.977 . S
Zn74 O84 1.910 1_455 S
O75 Zn72 1.933 . S
O75 C86 1.226 . S
O76 Zn74 1.932 . S
O76 C86 1.307 . S
O77 Zn70 1.919 . S
O77 C88 1.253 . S
O78 Zn72 1.941 1_655 S
O78 C88 1.283 . S
O79 Zn72 1.965 1_655 S
O79 C87 1.303 . S
O80 Zn73 1.938 . S
O80 C87 1.247 . S
O81 Zn73 1.906 . S
O81 C89 1.304 . S
O82 Zn70 1.924 . S
O82 C90 1.311 . S
O83 Zn74 1.977 . S
O83 C89 1.272 1_455 S
O84 Zn74 1.910 1_655 S
O84 C90 1.231 . S
C85 O69 1.225 . S
C85 O91 1.298 . S
C86 O75 1.226 . S
C86 O76 1.307 . S
C87 O79 1.303 . S
C87 O80 1.247 . S
C88 O77 1.253 . S
C88 O78 1.283 . S
C89 O81 1.304 . S
C89 O83 1.272 1_655 S
C90 O82 1.311 . S
C90 O84 1.231 . S
O91 Zn73 1.953 . S
O91 C85 1.298 . S
O92 Zn93 1.953 1_554 S
O92 C108 1.225 . S
Zn93 O92 1.953 1_556 S
Zn93 O94 1.949 1_556 S
Zn93 O100 1.919 . S
Zn93 O105 1.924 1_556 S
O94 Zn93 1.949 1_554 S
O94 Zn95 1.923 . S
O94 Zn96 1.950 . S
O94 Zn97 1.945 . S
Zn95 O94 1.923 . S
Zn95 O98 1.933 . S
Zn95 O101 1.941 1_554 S
Zn95 O102 1.965 . S
Zn96 O94 1.950 . S
Zn96 O103 1.938 . S
Zn96 O104 1.906 . S
Zn96 O114 1.953 . S
Zn97 O94 1.945 . S
Zn97 O99 1.932 . S
Zn97 O106 1.977 . S
Zn97 O107 1.910 . S
O98 Zn95 1.933 . S
O98 C109 1.226 . S
O99 Zn97 1.932 . S
O99 C109 1.307 . S
O100 Zn93 1.919 . S
O100 C111 1.253 . S
O101 Zn95 1.941 1_556 S
O101 C111 1.283 . S
O102 Zn95 1.965 . S
O102 C110 1.303 . S
O103 Zn96 1.938 . S
O103 C110 1.247 . S
O104 Zn96 1.906 . S
O104 C112 1.304 . S
O105 Zn93 1.924 1_554 S
O105 C113 1.311 . S
O106 Zn97 1.977 . S
O106 C112 1.272 . S
O107 Zn97 1.910 . S
O107 C113 1.231 . S
C108 O92 1.225 . S
C108 O114 1.298 . S
C109 O98 1.226 . S
C109 O99 1.307 . S
C110 O102 1.303 . S
C110 O103 1.247 . S
C111 O100 1.253 . S
C111 O101 1.283 . S
C112 O104 1.304 . S
C112 O106 1.272 . S
C113 O105 1.311 . S
C113 O107 1.231 . S
O114 Zn96 1.953 . S
O114 C108 1.298 . S
O115 Zn116 1.953 1_554 S
O115 C131 1.225 . S
Zn116 O115 1.953 1_556 S
Zn116 O117 1.949 1_556 S
Zn116 O123 1.919 . S
Zn116 O128 1.924 1_556 S
O117 Zn116 1.949 1_554 S
O117 Zn118 1.923 . S
O117 Zn119 1.950 . S
O117 Zn120 1.945 . S
Zn118 O117 1.923 . S
Zn118 O121 1.933 . S
Zn118 O124 1.941 1_554 S
Zn118 O125 1.965 . S
Zn119 O117 1.950 . S
Zn119 O126 1.938 . S
Zn119 O127 1.906 . S
Zn119 O137 1.953 . S
Zn120 O117 1.945 . S
Zn120 O122 1.932 . S
Zn120 O129 1.977 . S
Zn120 O130 1.910 . S
O121 Zn118 1.933 . S
O121 C132 1.226 . S
O122 Zn120 1.932 . S
O122 C132 1.307 . S
O123 Zn116 1.919 . S
O123 C134 1.253 . S
O124 Zn118 1.941 1_556 S
O124 C134 1.283 . S
O125 Zn118 1.965 . S
O125 C133 1.303 . S
O126 Zn119 1.938 . S
O126 C133 1.247 . S
O127 Zn119 1.906 . S
O127 C135 1.304 . S
O128 Zn116 1.924 1_554 S
O128 C136 1.311 . S
O129 Zn120 1.977 . S
O129 C135 1.272 . S
O130 Zn120 1.910 . S
O130 C136 1.231 . S
C131 O115 1.225 . S
C131 O137 1.298 . S
C132 O121 1.226 . S
C132 O122 1.307 . S
C133 O125 1.303 . S
C133 O126 1.247 . S
C134 O123 1.253 . S
C134 O124 1.283 . S
C135 O127 1.304 . S
C135 O129 1.272 . S
C136 O128 1.311 . S
C136 O130 1.231 . S
O137 Zn119 1.953 . S
O137 C131 1.298 . S
O138 Zn139 1.953 . S
O138 C154 1.225 . S
Zn139 O138 1.953 . S
Zn139 O140 1.949 . S
Zn139 O146 1.919 . S
Zn139 O151 1.924 . S
O140 Zn139 1.949 . S
O140 Zn141 1.923 . S
O140 Zn142 1.950 . S
O140 Zn143 1.945 . S
Zn141 O140 1.923 . S
Zn141 O144 1.933 . S
Zn141 O147 1.941 . S
Zn141 O148 1.965 . S
Zn142 O140 1.950 . S
Zn142 O149 1.938 . S
Zn142 O150 1.906 . S
Zn142 O160 1.953 . S
Zn143 O140 1.945 . S
Zn143 O145 1.932 . S
Zn143 O152 1.977 . S
Zn143 O153 1.910 . S
O144 Zn141 1.933 . S
O144 C155 1.226 . S
O145 Zn143 1.932 . S
O145 C155 1.307 . S
O146 Zn139 1.919 . S
O146 C157 1.253 . S
O147 Zn141 1.941 . S
O147 C157 1.283 . S
O148 Zn141 1.965 . S
O148 C156 1.303 . S
O149 Zn142 1.938 . S
O149 C156 1.247 . S
O150 Zn142 1.906 . S
O150 C158 1.304 . S
O151 Zn139 1.924 . S
O151 C159 1.311 . S
O152 Zn143 1.977 . S
O152 C158 1.272 . S
O153 Zn143 1.910 . S
O153 C159 1.231 . S
C154 O138 1.225 . S
C154 O160 1.298 . S
C155 O144 1.226 . S
C155 O145 1.307 . S
C156 O148 1.303 . S
C156 O149 1.247 . S
C157 O146 1.253 . S
C157 O147 1.283 . S
C158 O150 1.304 . S
C158 O152 1.272 . S
C159 O151 1.311 . S
C159 O153 1.231 . S
O160 Zn142 1.953 . S
O160 C154 1.298 . S
O161 Zn162 1.953 . S
O161 C177 1.225 . S
Zn162 O161 1.953 . S
Zn162 O163 1.949 . S
Zn162 O169 1.919 . S
Zn162 O174 1.924 . S
O163 Zn162 1.949 . S
O163 Zn164 1.923 . S
O163 Zn165 1.950 . S
O163 Zn166 1.945 . S
Zn164 O163 1.923 . S
Zn164 O167 1.933 . S
Zn164 O170 1.941 . S
Zn164 O171 1.965 . S
Zn165 O163 1.950 . S
Zn165 O172 1.938 . S
Zn165 O173 1.906 . S
Zn165 O183 1.953 . S
Zn166 O163 1.945 . S
Zn166 O168 1.932 . S
Zn166 O175 1.977 . S
Zn166 O176 1.910 . S
O167 Zn164 1.933 . S
O167 C178 1.226 . S
O168 Zn166 1.932 . S
O168 C178 1.307 . S
O169 Zn162 1.919 . S
O169 C180 1.253 . S
O170 Zn164 1.941 . S
O170 C180 1.283 . S
O171 Zn164 1.965 . S
O171 C179 1.303 . S
O172 Zn165 1.938 . S
O172 C179 1.247 . S
O173 Zn165 1.906 . S
O173 C181 1.304 . S
O174 Zn162 1.924 . S
O174 C182 1.311 . S
O175 Zn166 1.977 . S
O175 C181 1.272 . S
O176 Zn166 1.910 . S
O176 C182 1.231 . S
C177 O161 1.225 . S
C177 O183 1.298 . S
C178 O167 1.226 . S
C178 O168 1.307 . S
C179 O171 1.303 . S
C179 O172 1.247 . S
C180 O169 1.253 . S
C180 O170 1.283 . S
C181 O173 1.304 . S
C181 O175 1.272 . S
C182 O174 1.311 . S
C182 O176 1.231 . S
O183 Zn165 1.953 . S
O183 C177 1.298 . S
C184 C185 1.408 . S
C184 C186 1.394 . S
C184 H200 0.913 1_554 S
C185 C184 1.408 . S
C185 C189 1.376 . S
C186 C184 1.394 . S
C186 C187 1.394 . S
C186 C190 1.505 1_554 S
C187 C186 1.394 . S
C187 C188 1.410 . S
C187 C195 1.503 . S
C188 C187 1.410 . S
C188 C189 1.392 . S
C188 C191 1.511 . S
C189 C185 1.376 . S
C189 C188 1.392 . S
C189 H201 0.929 . S
C190 C186 1.505 1_556 S
C190 H202 0.960 . S
C190 H203 0.962 . S
C190 H204 0.960 . S
C191 C188 1.511 . S
C191 H205 0.961 . S
C191 H206 0.961 . S
C191 H207 0.961 . S
C192 C193 1.370 . S
C192 C194 1.363 . S
C192 H208 0.931 . S
C193 C192 1.370 . S
C193 C197 1.408 . S
C194 C192 1.363 . S
C194 C195 1.370 . S
C194 C198 1.524 . S
C195 C187 1.503 . S
C195 C194 1.370 . S
C195 C196 1.403 . S
C196 C195 1.403 . S
C196 C197 1.404 . S
C196 C199 1.539 . S
C197 C193 1.408 . S
C197 C196 1.404 . S
C197 H209 0.930 . S
C198 C194 1.524 . S
C198 H210 0.956 . S
C198 H211 0.961 . S
C198 H212 0.961 . S
C199 C196 1.539 . S
C199 H213 0.958 . S
C199 H214 0.961 . S
C199 H215 0.960 . S
H200 C184 0.913 1_556 S
H201 C189 0.929 . S
H202 C190 0.960 . S
H203 C190 0.962 . S
H204 C190 0.960 . S
H205 C191 0.961 . S
H206 C191 0.961 . S
H207 C191 0.961 . S
H208 C192 0.931 . S
H209 C197 0.930 . S
H210 C198 0.956 . S
H211 C198 0.961 . S
H212 C198 0.961 . S
H213 C199 0.958 . S
H214 C199 0.961 . S
H215 C199 0.960 . S
C216 C217 1.391 . S
C216 C218 1.394 . S
C216 H232 0.931 1_554 S
C217 C216 1.391 . S
C217 C221 1.376 . S
C218 C216 1.394 . S
C218 C219 1.369 . S
C218 C222 1.531 1_554 S
C219 C218 1.369 . S
C219 C220 1.410 . S
C219 C227 1.503 . S
C220 C219 1.410 . S
C220 C221 1.392 . S
C220 C223 1.511 . S
C221 C217 1.376 . S
C221 C220 1.392 . S
C221 H233 0.929 . S
C222 C218 1.531 1_556 S
C222 H234 0.960 . S
C222 H235 0.962 . S
C222 H236 0.960 . S
C223 C220 1.511 . S
C223 H237 0.961 . S
C223 H238 0.961 . S
C223 H239 0.961 . S
C224 C225 1.370 . S
C224 C226 1.363 . S
C224 H240 0.931 . S
C225 C224 1.370 . S
C225 C229 1.408 . S
C226 C224 1.363 . S
C226 C227 1.370 . S
C226 C230 1.524 . S
C227 C219 1.503 . S
C227 C226 1.370 . S
C227 C228 1.403 . S
C228 C227 1.403 . S
C228 C229 1.404 . S
C228 C231 1.539 1_554 S
C229 C225 1.408 . S
C229 C228 1.404 . S
C229 H241 0.930 1_554 S
C230 C226 1.524 . S
C230 H242 0.956 . S
C230 H243 0.961 . S
C230 H244 0.961 . S
C231 C228 1.539 1_556 S
C231 H245 0.958 . S
C231 H246 0.961 . S
C231 H247 0.960 . S
H232 C216 0.931 1_556 S
H233 C221 0.929 . S
H234 C222 0.960 . S
H235 C222 0.962 . S
H236 C222 0.960 . S
H237 C223 0.961 . S
H238 C223 0.961 . S
H239 C223 0.961 . S
H240 C224 0.931 . S
H241 C229 0.930 1_556 S
H242 C230 0.956 . S
H243 C230 0.961 . S
H244 C230 0.961 . S
H245 C231 0.958 . S
H246 C231 0.961 . S
H247 C231 0.960 . S
C248 C249 1.391 . S
C248 C250 1.394 . S
C248 H264 0.931 . S
C249 C248 1.391 . S
C249 C253 1.376 . S
C250 C248 1.394 . S
C250 C251 1.369 . S
C250 C254 1.531 . S
C251 C250 1.369 . S
C251 C252 1.410 . S
C251 C259 1.503 . S
C252 C251 1.410 . S
C252 C253 1.392 . S
C252 C255 1.511 . S
C253 C249 1.376 . S
C253 C252 1.392 . S
C253 H265 0.929 . S
C254 C250 1.531 . S
C254 H266 0.960 . S
C254 H267 0.962 . S
C254 H268 0.960 . S
C255 C252 1.511 . S
C255 H269 0.961 . S
C255 H270 0.961 . S
C255 H271 0.961 . S
C256 C257 1.370 . S
C256 C258 1.363 . S
C256 H272 0.931 . S
C257 C256 1.370 . S
C257 C261 1.408 . S
C258 C256 1.363 . S
C258 C259 1.370 . S
C258 C262 1.524 . S
C259 C251 1.503 . S
C259 C258 1.370 . S
C259 C260 1.403 . S
C260 C259 1.403 . S
C260 C261 1.404 . S
C260 C263 1.539 . S
C261 C257 1.408 . S
C261 C260 1.404 . S
C261 H273 0.930 . S
C262 C258 1.524 . S
C262 H274 0.956 . S
C262 H275 0.961 . S
C262 H276 0.961 . S
C263 C260 1.539 . S
C263 H277 0.958 . S
C263 H278 0.961 . S
C263 H279 0.960 . S
H264 C248 0.931 . S
H265 C253 0.929 . S
H266 C254 0.960 . S
H267 C254 0.962 . S
H268 C254 0.960 . S
H269 C255 0.961 . S
H270 C255 0.961 . S
H271 C255 0.961 . S
H272 C256 0.931 . S
H273 C261 0.930 . S
H274 C262 0.956 . S
H275 C262 0.961 . S
H276 C262 0.961 . S
H277 C263 0.958 . S
H278 C263 0.961 . S
H279 C263 0.960 . S
C280 C281 1.391 . S
C280 C282 1.394 . S
C280 H296 0.931 . S
C281 C280 1.391 . S
C281 C285 1.376 . S
C282 C280 1.394 . S
C282 C283 1.369 . S
C282 C286 1.531 . S
C283 C282 1.369 . S
C283 C284 1.410 . S
C283 C291 1.503 . S
C284 C283 1.410 . S
C284 C285 1.392 . S
C284 C287 1.511 . S
C285 C281 1.376 . S
C285 C284 1.392 . S
C285 H297 0.929 . S
C286 C282 1.531 . S
C286 H298 0.960 . S
C286 H299 0.962 . S
C286 H300 0.960 . S
C287 C284 1.511 . S
C287 H301 0.961 . S
C287 H302 0.961 . S
C287 H303 0.961 . S
C288 C289 1.370 . S
C288 C290 1.363 . S
C288 H304 0.931 . S
C289 C288 1.370 . S
C289 C293 1.408 . S
C290 C288 1.363 . S
C290 C291 1.370 . S
C290 C294 1.524 . S
C291 C283 1.503 . S
C291 C290 1.370 . S
C291 C292 1.403 . S
C292 C291 1.403 . S
C292 C293 1.404 . S
C292 C295 1.539 . S
C293 C289 1.408 . S
C293 C292 1.404 . S
C293 H305 0.930 . S
C294 C290 1.524 . S
C294 H306 0.956 . S
C294 H307 0.961 . S
C294 H308 0.961 . S
C295 C292 1.539 . S
C295 H309 0.958 . S
C295 H310 0.961 . S
C295 H311 0.960 . S
H296 C280 0.931 . S
H297 C285 0.929 . S
H298 C286 0.960 . S
H299 C286 0.962 . S
H300 C286 0.960 . S
H301 C287 0.961 . S
H302 C287 0.961 . S
H303 C287 0.961 . S
H304 C288 0.931 . S
H305 C293 0.930 . S
H306 C294 0.956 . S
H307 C294 0.961 . S
H308 C294 0.961 . S
H309 C295 0.958 . S
H310 C295 0.961 . S
H311 C295 0.960 . S
C312 C313 1.391 . S
C312 C314 1.394 . S
C312 H328 0.931 . S
C313 C312 1.391 . S
C313 C317 1.376 . S
C314 C312 1.394 . S
C314 C315 1.369 1_655 S
C314 C318 1.531 . S
C315 C314 1.369 1_455 S
C315 C316 1.410 1_455 S
C315 C323 1.503 . S
C316 C315 1.410 1_655 S
C316 C317 1.392 . S
C316 C319 1.511 1_655 S
C317 C313 1.376 . S
C317 C316 1.392 . S
C317 H329 0.929 . S
C318 C314 1.531 . S
C318 H330 0.960 1_655 S
C318 H331 0.962 1_655 S
C318 H332 0.960 . S
C319 C316 1.511 1_455 S
C319 H333 0.961 . S
C319 H334 0.961 . S
C319 H335 0.961 1_554 S
C320 C321 1.370 . S
C320 C322 1.363 . S
C320 H336 0.931 . S
C321 C320 1.370 . S
C321 C325 1.408 1_554 S
C322 C320 1.363 . S
C322 C323 1.370 . S
C322 C326 1.524 . S
C323 C315 1.503 . S
C323 C322 1.370 . S
C323 C324 1.403 1_554 S
C324 C323 1.403 1_556 S
C324 C325 1.404 . S
C324 C327 1.539 . S
C325 C321 1.408 1_556 S
C325 C324 1.404 . S
C325 H337 0.930 . S
C326 C322 1.524 . S
C326 H338 0.956 . S
C326 H339 0.961 . S
C326 H340 0.961 . S
C327 C324 1.539 . S
C327 H341 0.958 . S
C327 H342 0.961 . S
C327 H343 0.960 . S
H328 C312 0.931 . S
H329 C317 0.929 . S
H330 C318 0.960 1_455 S
H331 C318 0.962 1_455 S
H332 C318 0.960 . S
H333 C319 0.961 . S
H334 C319 0.961 . S
H335 C319 0.961 1_556 S
H336 C320 0.931 . S
H337 C325 0.930 . S
H338 C326 0.956 . S
H339 C326 0.961 . S
H340 C326 0.961 . S
H341 C327 0.958 . S
H342 C327 0.961 . S
H343 C327 0.960 . S
C344 C345 1.391 . S
C344 C346 1.394 . S
C344 H360 0.931 . S
C345 C344 1.391 . S
C345 C349 1.376 . S
C346 C344 1.394 . S
C346 C347 1.369 1_455 S
C346 C350 1.531 1_455 S
C347 C346 1.369 1_655 S
C347 C348 1.409 1_655 S
C347 C355 1.503 . S
C348 C347 1.409 1_455 S
C348 C349 1.392 . S
C348 C351 1.512 1_454 S
C349 C345 1.376 . S
C349 C348 1.392 . S
C349 H361 0.929 1_554 S
C350 C346 1.531 1_655 S
C350 H362 0.960 . S
C350 H363 0.962 . S
C350 H364 0.960 1_655 S
C351 C348 1.512 1_656 S
C351 H365 0.961 1_655 S
C351 H366 0.961 . S
C351 H367 0.961 . S
C352 C353 1.370 . S
C352 C354 1.363 . S
C352 H368 0.931 . S
C353 C352 1.370 . S
C353 C357 1.408 . S
C354 C352 1.363 . S
C354 C355 1.370 . S
C354 C358 1.524 . S
C355 C347 1.503 . S
C355 C354 1.370 . S
C355 C356 1.403 . S
C356 C355 1.403 . S
C356 C357 1.404 . S
C356 C359 1.539 . S
C357 C353 1.408 . S
C357 C356 1.404 . S
C357 H369 0.930 . S
C358 C354 1.524 . S
C358 H370 0.956 . S
C358 H371 0.961 . S
C358 H372 0.961 . S
C359 C356 1.539 . S
C359 H373 0.958 . S
C359 H374 0.961 . S
C359 H375 0.960 . S
H360 C344 0.931 . S
H361 C349 0.929 1_556 S
H362 C350 0.960 . S
H363 C350 0.962 . S
H364 C350 0.960 1_455 S
H365 C351 0.961 1_455 S
H366 C351 0.961 . S
H367 C351 0.961 . S
H368 C352 0.931 . S
H369 C357 0.930 . S
H370 C358 0.956 . S
H371 C358 0.961 . S
H372 C358 0.961 . S
H373 C359 0.958 . S
H374 C359 0.961 . S
H375 C359 0.960 . S
C376 C377 1.391 . S
C376 C378 1.394 . S
C376 H392 0.931 . S
C377 C376 1.391 . S
C377 C381 1.376 . S
C378 C376 1.394 . S
C378 C379 1.369 . S
C378 C382 1.531 . S
C379 C378 1.369 . S
C379 C380 1.410 . S
C379 C387 1.503 . S
C380 C379 1.410 . S
C380 C381 1.392 . S
C380 C383 1.511 . S
C381 C377 1.376 . S
C381 C380 1.392 . S
C381 H393 0.929 . S
C382 C378 1.531 . S
C382 H394 0.960 . S
C382 H395 0.962 . S
C382 H396 0.960 . S
C383 C380 1.511 . S
C383 H397 0.961 . S
C383 H398 0.961 . S
C383 H399 0.961 . S
C384 C385 1.370 . S
C384 C386 1.363 . S
C384 H400 0.931 . S
C385 C384 1.370 . S
C385 C389 1.408 . S
C386 C384 1.363 . S
C386 C387 1.370 1_655 S
C386 C390 1.524 1_655 S
C387 C379 1.503 . S
C387 C386 1.370 1_455 S
C387 C388 1.403 1_455 S
C388 C387 1.403 1_655 S
C388 C389 1.404 . S
C388 C391 1.539 . S
C389 C385 1.408 . S
C389 C388 1.404 . S
C389 H401 0.930 . S
C390 C386 1.524 1_455 S
C390 H402 0.956 . S
C390 H403 0.961 . S
C390 H404 0.961 . S
C391 C388 1.539 . S
C391 H405 0.958 . S
C391 H406 0.961 . S
C391 H407 0.960 1_655 S
H392 C376 0.931 . S
H393 C381 0.929 . S
H394 C382 0.960 . S
H395 C382 0.962 . S
H396 C382 0.960 . S
H397 C383 0.961 . S
H398 C383 0.961 . S
H399 C383 0.961 . S
H400 C384 0.931 . S
H401 C389 0.930 . S
H402 C390 0.956 . S
H403 C390 0.961 . S
H404 C390 0.961 . S
H405 C391 0.958 . S
H406 C391 0.961 . S
H407 C391 0.960 1_455 S
C408 C409 1.391 . S
C408 C410 1.394 . S
C408 H424 0.931 . S
C409 C408 1.391 . S
C409 C413 1.376 . S
C410 C408 1.394 . S
C410 C411 1.369 . S
C410 C414 1.531 . S
C411 C410 1.369 . S
C411 C412 1.410 . S
C411 C419 1.503 . S
C412 C411 1.410 . S
C412 C413 1.392 . S
C412 C415 1.511 . S
C413 C409 1.376 . S
C413 C412 1.392 . S
C413 H425 0.929 . S
C414 C410 1.531 . S
C414 H426 0.960 . S
C414 H427 0.962 . S
C414 H428 0.960 . S
C415 C412 1.511 . S
C415 H429 0.961 . S
C415 H430 0.961 . S
C415 H431 0.961 . S
C416 C417 1.370 . S
C416 C418 1.363 . S
C416 H432 0.931 . S
C417 C416 1.370 . S
C417 C421 1.408 . S
C418 C416 1.363 . S
C418 C419 1.370 1_455 S
C418 C422 1.524 1_455 S
C419 C411 1.503 . S
C419 C418 1.370 1_655 S
C419 C420 1.403 1_655 S
C420 C419 1.403 1_455 S
C420 C421 1.404 . S
C420 C423 1.539 1_455 S
C421 C417 1.408 . S
C421 C420 1.404 . S
C421 H433 0.930 . S
C422 C418 1.524 1_655 S
C422 H434 0.956 . S
C422 H435 0.961 . S
C422 H436 0.961 1_655 S
C423 C420 1.539 1_655 S
C423 H437 0.958 . S
C423 H438 0.961 1_655 S
C423 H439 0.960 . S
H424 C408 0.931 . S
H425 C413 0.929 . S
H426 C414 0.960 . S
H427 C414 0.962 . S
H428 C414 0.960 . S
H429 C415 0.961 . S
H430 C415 0.961 . S
H431 C415 0.961 . S
H432 C416 0.931 . S
H433 C421 0.930 . S
H434 C422 0.956 . S
H435 C422 0.961 . S
H436 C422 0.961 1_455 S
H437 C423 0.958 . S
H438 C423 0.961 1_455 S
H439 C423 0.960 . S
C440 C441 1.391 . S
C440 C442 1.394 . S
C440 H456 0.931 1_554 S
C441 C440 1.391 . S
C441 C445 1.376 . S
C442 C440 1.394 . S
C442 C443 1.369 1_655 S
C442 C446 1.531 1_554 S
C443 C442 1.369 1_455 S
C443 C444 1.410 . S
C443 C451 1.503 . S
C444 C443 1.410 . S
C444 C445 1.392 1_455 S
C444 C447 1.511 . S
C445 C441 1.376 . S
C445 C444 1.392 1_655 S
C445 H457 0.929 . S
C446 C442 1.531 1_556 S
C446 H458 0.960 1_655 S
C446 H459 0.962 . S
C446 H460 0.960 . S
C447 C444 1.511 . S
C447 H461 0.961 . S
C447 H462 0.961 . S
C447 H463 0.961 . S
C448 C449 1.370 1_655 S
C448 C450 1.363 . S
C448 H464 0.931 . S
C449 C448 1.370 1_455 S
C449 C453 1.408 . S
C450 C448 1.363 . S
C450 C451 1.370 1_655 S
C450 C454 1.524 . S
C451 C443 1.503 . S
C451 C450 1.370 1_455 S
C451 C452 1.403 . S
C452 C451 1.403 . S
C452 C453 1.404 . S
C452 C455 1.539 . S
C453 C449 1.408 . S
C453 C452 1.404 . S
C453 H465 0.930 . S
C454 C450 1.524 . S
C454 H466 0.956 . S
C454 H467 0.961 . S
C454 H468 0.961 . S
C455 C452 1.539 . S
C455 H469 0.946 1_554 S
C455 H470 0.961 . S
C455 H471 0.960 . S
H456 C440 0.931 1_556 S
H457 C445 0.929 . S
H458 C446 0.960 1_455 S
H459 C446 0.962 . S
H460 C446 0.960 . S
H461 C447 0.961 . S
H462 C447 0.961 . S
H463 C447 0.961 . S
H464 C448 0.931 . S
H465 C453 0.930 . S
H466 C454 0.956 . S
H467 C454 0.961 . S
H468 C454 0.961 . S
H469 C455 0.946 1_556 S
H470 C455 0.961 . S
H471 C455 0.960 . S
C472 C473 1.391 . S
C472 C474 1.394 . S
C472 H488 0.931 . S
C473 C472 1.391 . S
C473 C477 1.376 1_655 S
C474 C472 1.394 . S
C474 C475 1.369 . S
C474 C478 1.531 . S
C475 C474 1.369 . S
C475 C476 1.410 1_655 S
C475 C483 1.503 1_655 S
C476 C475 1.410 1_455 S
C476 C477 1.392 . S
C476 C479 1.511 . S
C477 C473 1.376 1_455 S
C477 C476 1.392 . S
C477 H489 0.929 . S
C478 C474 1.531 . S
C478 H490 0.960 . S
C478 H491 0.962 . S
C478 H492 0.960 . S
C479 C476 1.511 . S
C479 H493 0.961 . S
C479 H494 0.961 . S
C479 H495 0.961 . S
C480 C481 1.370 . S
C480 C482 1.363 . S
C480 H496 0.931 . S
C481 C480 1.370 . S
C481 C485 1.408 . S
C482 C480 1.363 . S
C482 C483 1.370 . S
C482 C486 1.524 . S
C483 C475 1.503 1_455 S
C483 C482 1.370 . S
C483 C484 1.403 . S
C484 C483 1.403 . S
C484 C485 1.404 . S
C484 C487 1.539 1_455 S
C485 C481 1.408 . S
C485 C484 1.404 . S
C485 H497 0.930 . S
C486 C482 1.524 . S
C486 H498 0.956 1_455 S
C486 H499 0.961 . S
C486 H500 0.961 . S
C487 C484 1.539 1_655 S
C487 H501 0.958 . S
C487 H502 0.961 1_655 S
C487 H503 0.960 1_655 S
H488 C472 0.931 . S
H489 C477 0.929 . S
H490 C478 0.960 . S
H491 C478 0.962 . S
H492 C478 0.960 . S
H493 C479 0.961 . S
H494 C479 0.961 . S
H495 C479 0.961 . S
H496 C480 0.931 . S
H497 C485 0.930 . S
H498 C486 0.956 1_655 S
H499 C486 0.961 . S
H500 C486 0.961 . S
H501 C487 0.958 . S
H502 C487 0.961 1_455 S
H503 C487 0.960 1_455 S
C504 C505 1.391 . S
C504 C506 1.394 . S
C504 H520 0.931 1_554 S
C505 C504 1.391 . S
C505 C509 1.376 . S
C506 C504 1.394 . S
C506 C507 1.369 . S
C506 C510 1.531 1_554 S
C507 C506 1.369 . S
C507 C508 1.410 . S
C507 C515 1.503 1_565 S
C508 C507 1.410 . S
C508 C509 1.392 . S
C508 C511 1.511 . S
C509 C505 1.376 . S
C509 C508 1.392 . S
C509 H521 0.929 . S
C510 C506 1.531 1_556 S
C510 H522 0.960 . S
C510 H523 0.962 . S
C510 H524 0.960 . S
C511 C508 1.511 . S
C511 H525 0.961 . S
C511 H526 0.961 1_565 S
C511 H527 0.961 . S
C512 C513 1.370 . S
C512 C514 1.363 . S
C512 H528 0.931 . S
C513 C512 1.370 . S
C513 C517 1.408 . S
C514 C512 1.363 . S
C514 C515 1.370 . S
C514 C518 1.524 . S
C515 C507 1.503 1_545 S
C515 C514 1.370 . S
C515 C516 1.403 . S
C516 C515 1.403 . S
C516 C517 1.404 . S
C516 C519 1.539 . S
C517 C513 1.408 . S
C517 C516 1.404 . S
C517 H529 0.930 . S
C518 C514 1.524 . S
C518 H530 0.956 1_554 S
C518 H531 0.961 . S
C518 H532 0.961 . S
C519 C516 1.539 . S
C519 H533 0.958 1_545 S
C519 H534 0.961 . S
C519 H535 0.960 1_545 S
H520 C504 0.931 1_556 S
H521 C509 0.929 . S
H522 C510 0.960 . S
H523 C510 0.962 . S
H524 C510 0.960 . S
H525 C511 0.961 . S
H526 C511 0.961 1_545 S
H527 C511 0.961 . S
H528 C512 0.931 . S
H529 C517 0.930 . S
H530 C518 0.956 1_556 S
H531 C518 0.961 . S
H532 C518 0.961 . S
H533 C519 0.958 1_565 S
H534 C519 0.961 . S
H535 C519 0.960 1_565 S
C536 C537 1.391 . S
C536 C538 1.394 . S
C536 H552 0.931 . S
C537 C536 1.391 . S
C537 C541 1.376 . S
C538 C536 1.394 . S
C538 C539 1.369 . S
C538 C542 1.531 . S
C539 C538 1.369 . S
C539 C540 1.410 . S
C539 C547 1.503 1_545 S
C540 C539 1.410 . S
C540 C541 1.392 . S
C540 C543 1.511 . S
C541 C537 1.376 . S
C541 C540 1.392 . S
C541 H553 0.929 . S
C542 C538 1.531 . S
C542 H554 0.960 1_545 S
C542 H555 0.962 1_545 S
C542 H556 0.960 . S
C543 C540 1.511 . S
C543 H557 0.961 . S
C543 H558 0.961 . S
C543 H559 0.961 . S
C544 C545 1.370 . S
C544 C546 1.363 . S
C544 H560 0.931 . S
C545 C544 1.370 . S
C545 C549 1.408 . S
C546 C544 1.363 . S
C546 C547 1.370 . S
C546 C550 1.524 . S
C547 C539 1.503 1_565 S
C547 C546 1.370 . S
C547 C548 1.403 . S
C548 C547 1.403 . S
C548 C549 1.404 . S
C548 C551 1.539 . S
C549 C545 1.408 . S
C549 C548 1.404 . S
C549 H561 0.930 . S
C550 C546 1.524 . S
C550 H562 0.956 . S
C550 H563 0.961 . S
C550 H564 0.961 . S
C551 C548 1.539 . S
C551 H565 0.958 . S
C551 H566 0.961 . S
C551 H567 0.960 1_565 S
H552 C536 0.931 . S
H553 C541 0.929 . S
H554 C542 0.960 1_565 S
H555 C542 0.962 1_565 S
H556 C542 0.960 . S
H557 C543 0.961 . S
H558 C543 0.961 . S
H559 C543 0.961 . S
H560 C544 0.931 . S
H561 C549 0.930 . S
H562 C550 0.956 . S
H563 C550 0.961 . S
H564 C550 0.961 . S
H565 C551 0.958 . S
H566 C551 0.961 . S
H567 C551 0.960 1_545 S
C568 C569 1.391 . S
C568 C570 1.394 . S
C568 H584 0.931 . S
C569 C568 1.391 . S
C569 C573 1.376 . S
C570 C568 1.394 . S
C570 C571 1.369 . S
C570 C574 1.531 . S
C571 C570 1.369 . S
C571 C572 1.410 . S
C571 C579 1.503 . S
C572 C571 1.410 . S
C572 C573 1.392 . S
C572 C575 1.511 . S
C573 C569 1.376 . S
C573 C572 1.392 . S
C573 H585 0.929 . S
C574 C570 1.531 . S
C574 H586 0.960 . S
C574 H587 0.962 . S
C574 H588 0.960 . S
C575 C572 1.511 . S
C575 H589 0.961 . S
C575 H590 0.961 . S
C575 H591 0.961 . S
C576 C577 1.370 . S
C576 C578 1.363 . S
C576 H592 0.931 1_554 S
C577 C576 1.370 . S
C577 C581 1.408 . S
C578 C576 1.363 . S
C578 C579 1.370 . S
C578 C582 1.524 1_554 S
C579 C571 1.503 . S
C579 C578 1.370 . S
C579 C580 1.403 . S
C580 C579 1.403 . S
C580 C581 1.404 . S
C580 C583 1.539 . S
C581 C577 1.408 . S
C581 C580 1.404 . S
C581 H593 0.930 . S
C582 C578 1.524 1_556 S
C582 H594 0.956 . S
C582 H595 0.961 . S
C582 H596 0.961 . S
C583 C580 1.539 . S
C583 H597 0.958 . S
C583 H598 0.961 . S
C583 H599 0.960 . S
H584 C568 0.931 . S
H585 C573 0.929 . S
H586 C574 0.960 . S
H587 C574 0.962 . S
H588 C574 0.960 . S
H589 C575 0.961 . S
H590 C575 0.961 . S
H591 C575 0.961 . S
H592 C576 0.931 1_556 S
H593 C581 0.930 . S
H594 C582 0.956 . S
H595 C582 0.961 . S
H596 C582 0.961 . S
H597 C583 0.958 . S
H598 C583 0.961 . S
H599 C583 0.960 . S
C600 C601 1.391 . S
C600 C602 1.394 . S
C600 H616 0.931 1_554 S
C601 C600 1.391 . S
C601 C605 1.376 . S
C602 C600 1.394 . S
C602 C603 1.369 . S
C602 C606 1.531 1_554 S
C603 C602 1.369 . S
C603 C604 1.410 . S
C603 C611 1.503 . S
C604 C603 1.410 . S
C604 C605 1.392 . S
C604 C607 1.511 . S
C605 C601 1.376 . S
C605 C604 1.392 . S
C605 H617 0.929 . S
C606 C602 1.531 1_556 S
C606 H618 0.960 . S
C606 H619 0.962 . S
C606 H620 0.960 . S
C607 C604 1.511 . S
C607 H621 0.961 . S
C607 H622 0.961 . S
C607 H623 0.961 . S
C608 C609 1.370 . S
C608 C610 1.363 . S
C608 H624 0.931 . S
C609 C608 1.370 . S
C609 C613 1.408 . S
C610 C608 1.363 . S
C610 C611 1.370 . S
C610 C614 1.524 . S
C611 C603 1.503 . S
C611 C610 1.370 . S
C611 C612 1.403 . S
C612 C611 1.403 . S
C612 C613 1.404 . S
C612 C615 1.539 1_554 S
C613 C609 1.408 . S
C613 C612 1.404 . S
C613 H625 0.930 1_554 S
C614 C610 1.524 . S
C614 H626 0.956 . S
C614 H627 0.961 . S
C614 H628 0.961 . S
C615 C612 1.539 1_556 S
C615 H629 0.958 . S
C615 H630 0.961 . S
C615 H631 0.960 . S
H616 C600 0.931 1_556 S
H617 C605 0.929 . S
H618 C606 0.960 . S
H619 C606 0.962 . S
H620 C606 0.960 . S
H621 C607 0.961 . S
H622 C607 0.961 . S
H623 C607 0.961 . S
H624 C608 0.931 . S
H625 C613 0.930 1_556 S
H626 C614 0.956 . S
H627 C614 0.961 . S
H628 C614 0.961 . S
H629 C615 0.958 . S
H630 C615 0.961 . S
H631 C615 0.960 . S
C632 C633 1.391 . S
C632 C634 1.394 . S
C632 H648 0.931 . S
C633 C632 1.391 . S
C633 C637 1.376 . S
C634 C632 1.394 . S
C634 C635 1.369 . S
C634 C638 1.531 . S
C635 C634 1.369 . S
C635 C636 1.410 . S
C635 C643 1.503 . S
C636 C635 1.410 . S
C636 C637 1.392 . S
C636 C639 1.511 . S
C637 C633 1.376 . S
C637 C636 1.392 . S
C637 H649 0.929 . S
C638 C634 1.531 . S
C638 H650 0.960 . S
C638 H651 0.962 . S
C638 H652 0.960 . S
C639 C636 1.511 . S
C639 H653 0.961 . S
C639 H654 0.961 . S
C639 H655 0.961 . S
C640 C641 1.370 . S
C640 C642 1.363 . S
C640 H656 0.931 . S
C641 C640 1.370 . S
C641 C645 1.408 . S
C642 C640 1.363 . S
C642 C643 1.370 . S
C642 C646 1.524 . S
C643 C635 1.503 . S
C643 C642 1.370 . S
C643 C644 1.403 . S
C644 C643 1.403 . S
C644 C645 1.404 . S
C644 C647 1.539 . S
C645 C641 1.408 . S
C645 C644 1.404 . S
C645 H657 0.930 . S
C646 C642 1.524 . S
C646 H658 0.956 . S
C646 H659 0.961 . S
C646 H660 0.961 . S
C647 C644 1.539 . S
C647 H661 0.958 . S
C647 H662 0.961 . S
C647 H663 0.960 . S
H648 C632 0.931 . S
H649 C637 0.929 . S
H650 C638 0.960 . S
H651 C638 0.962 . S
H652 C638 0.960 . S
H653 C639 0.961 . S
H654 C639 0.961 . S
H655 C639 0.961 . S
H656 C640 0.931 . S
H657 C645 0.930 . S
H658 C646 0.956 . S
H659 C646 0.961 . S
H660 C646 0.961 . S
H661 C647 0.958 . S
H662 C647 0.961 . S
H663 C647 0.960 . S
C664 C665 1.391 . S
C664 C666 1.394 . S
C664 H680 0.931 . S
C665 C664 1.391 . S
C665 C669 1.376 . S
C666 C664 1.394 . S
C666 C667 1.369 . S
C666 C670 1.531 . S
C667 C666 1.369 . S
C667 C668 1.410 . S
C667 C675 1.503 . S
C668 C667 1.410 . S
C668 C669 1.392 . S
C668 C671 1.511 . S
C669 C665 1.376 . S
C669 C668 1.392 . S
C669 H681 0.929 . S
C670 C666 1.531 . S
C670 H682 0.960 . S
C670 H683 0.962 . S
C670 H684 0.960 . S
C671 C668 1.511 . S
C671 H685 0.961 . S
C671 H686 0.961 . S
C671 H687 0.961 . S
C672 C673 1.370 . S
C672 C674 1.363 . S
C672 H688 0.931 . S
C673 C672 1.370 . S
C673 C677 1.408 . S
C674 C672 1.363 . S
C674 C675 1.370 . S
C674 C678 1.524 . S
C675 C667 1.503 . S
C675 C674 1.370 . S
C675 C676 1.403 . S
C676 C675 1.403 . S
C676 C677 1.404 . S
C676 C679 1.539 . S
C677 C673 1.408 . S
C677 C676 1.404 . S
C677 H689 0.930 . S
C678 C674 1.524 . S
C678 H690 0.956 . S
C678 H691 0.961 . S
C678 H692 0.961 . S
C679 C676 1.539 . S
C679 H693 0.958 . S
C679 H694 0.961 . S
C679 H695 0.960 . S
H680 C664 0.931 . S
H681 C669 0.929 . S
H682 C670 0.960 . S
H683 C670 0.962 . S
H684 C670 0.960 . S
H685 C671 0.961 . S
H686 C671 0.961 . S
H687 C671 0.961 . S
H688 C672 0.931 . S
H689 C677 0.930 . S
H690 C678 0.956 . S
H691 C678 0.961 . S
H692 C678 0.961 . S
H693 C679 0.958 . S
H694 C679 0.961 . S
H695 C679 0.960 . S
C696 C697 1.391 1_655 S
C696 C698 1.394 . S
C696 H712 0.931 . S
C697 C696 1.391 1_455 S
C697 C701 1.376 . S
C698 C696 1.394 . S
C698 C699 1.369 . S
C698 C702 1.531 . S
C699 C698 1.369 . S
C699 C700 1.410 1_655 S
C699 C707 1.503 . S
C700 C699 1.410 1_455 S
C700 C701 1.392 . S
C700 C703 1.511 . S
C701 C697 1.376 . S
C701 C700 1.392 . S
C701 H713 0.929 . S
C702 C698 1.531 . S
C702 H714 0.960 . S
C702 H715 0.962 . S
C702 H716 0.960 . S
C703 C700 1.511 . S
C703 H717 0.961 . S
C703 H718 0.961 . S
C703 H719 0.961 1_455 S
C704 C705 1.370 1_455 S
C704 C706 1.363 . S
C704 H720 0.931 . S
C705 C704 1.370 1_655 S
C705 C709 1.408 . S
C706 C704 1.363 . S
C706 C707 1.370 1_455 S
C706 C710 1.524 . S
C707 C699 1.503 . S
C707 C706 1.370 1_655 S
C707 C708 1.403 . S
C708 C707 1.403 . S
C708 C709 1.404 . S
C708 C711 1.539 . S
C709 C705 1.408 . S
C709 C708 1.404 . S
C709 H721 0.930 . S
C710 C706 1.524 . S
C710 H722 0.956 . S
C710 H723 0.961 . S
C710 H724 0.961 . S
C711 C708 1.539 . S
C711 H725 0.958 . S
C711 H726 0.961 . S
C711 H727 0.960 . S
H712 C696 0.931 . S
H713 C701 0.929 . S
H714 C702 0.960 . S
H715 C702 0.962 . S
H716 C702 0.960 . S
H717 C703 0.961 . S
H718 C703 0.961 . S
H719 C703 0.961 1_655 S
H720 C704 0.931 . S
H721 C709 0.930 . S
H722 C710 0.956 . S
H723 C710 0.961 . S
H724 C710 0.961 . S
H725 C711 0.958 . S
H726 C711 0.961 . S
H727 C711 0.960 . S
C728 C729 1.391 1_455 S
C728 C730 1.394 . S
C728 H744 0.931 . S
C729 C728 1.391 1_655 S
C729 C733 1.376 . S
C730 C728 1.394 . S
C730 C731 1.369 1_455 S
C730 C734 1.531 . S
C731 C730 1.369 1_655 S
C731 C732 1.410 . S
C731 C739 1.503 . S
C732 C731 1.410 . S
C732 C733 1.392 . S
C732 C735 1.511 . S
C733 C729 1.376 . S
C733 C732 1.392 . S
C733 H745 0.929 . S
C734 C730 1.531 . S
C734 H746 0.960 . S
C734 H747 0.962 . S
C734 H748 0.960 . S
C735 C732 1.511 . S
C735 H749 0.961 . S
C735 H750 0.961 . S
C735 H751 0.961 . S
C736 C737 1.370 . S
C736 C738 1.363 . S
C736 H752 0.931 . S
C737 C736 1.370 . S
C737 C741 1.408 1_455 S
C738 C736 1.363 . S
C738 C739 1.370 1_455 S
C738 C742 1.524 . S
C739 C731 1.503 . S
C739 C738 1.370 1_655 S
C739 C740 1.403 . S
C740 C739 1.403 . S
C740 C741 1.404 . S
C740 C743 1.539 . S
C741 C737 1.408 1_655 S
C741 C740 1.404 . S
C741 H753 0.930 . S
C742 C738 1.524 . S
C742 H754 0.956 . S
C742 H755 0.961 . S
C742 H756 0.961 . S
C743 C740 1.539 . S
C743 H757 0.958 . S
C743 H758 0.961 . S
C743 H759 0.960 . S
H744 C728 0.931 . S
H745 C733 0.929 . S
H746 C734 0.960 . S
H747 C734 0.962 . S
H748 C734 0.960 . S
H749 C735 0.961 . S
H750 C735 0.961 . S
H751 C735 0.961 . S
H752 C736 0.931 . S
H753 C741 0.930 . S
H754 C742 0.956 . S
H755 C742 0.961 . S
H756 C742 0.961 . S
H757 C743 0.958 . S
H758 C743 0.961 . S
H759 C743 0.960 . S
C760 C761 1.391 1_455 S
C760 C762 1.394 . S
C760 H776 0.931 . S
C761 C760 1.391 1_655 S
C761 C765 1.376 . S
C762 C760 1.394 . S
C762 C763 1.369 1_455 S
C762 C766 1.531 . S
C763 C762 1.369 1_655 S
C763 C764 1.410 . S
C763 C771 1.503 . S
C764 C763 1.410 . S
C764 C765 1.392 . S
C764 C767 1.511 . S
C765 C761 1.376 . S
C765 C764 1.392 . S
C765 H777 0.929 . S
C766 C762 1.531 . S
C766 H778 0.960 . S
C766 H779 0.962 . S
C766 H780 0.960 . S
C767 C764 1.511 . S
C767 H781 0.961 . S
C767 H782 0.961 . S
C767 H783 0.961 . S
C768 C769 1.370 . S
C768 C770 1.363 . S
C768 H784 0.931 . S
C769 C768 1.370 . S
C769 C773 1.408 1_455 S
C770 C768 1.363 . S
C770 C771 1.370 1_455 S
C770 C774 1.524 . S
C771 C763 1.503 . S
C771 C770 1.370 1_655 S
C771 C772 1.403 . S
C772 C771 1.403 . S
C772 C773 1.404 . S
C772 C775 1.539 . S
C773 C769 1.408 1_655 S
C773 C772 1.404 . S
C773 H785 0.930 . S
C774 C770 1.524 . S
C774 H786 0.956 . S
C774 H787 0.961 . S
C774 H788 0.961 . S
C775 C772 1.539 . S
C775 H789 0.958 . S
C775 H790 0.961 . S
C775 H791 0.960 . S
H776 C760 0.931 . S
H777 C765 0.929 . S
H778 C766 0.960 . S
H779 C766 0.962 . S
H780 C766 0.960 . S
H781 C767 0.961 . S
H782 C767 0.961 . S
H783 C767 0.961 . S
H784 C768 0.931 . S
H785 C773 0.930 . S
H786 C774 0.956 . S
H787 C774 0.961 . S
H788 C774 0.961 . S
H789 C775 0.958 . S
H790 C775 0.961 . S
H791 C775 0.960 . S
C792 C793 1.391 . S
C792 C794 1.394 . S
C792 H808 0.931 . S
C793 C792 1.391 . S
C793 C797 1.376 1_655 S
C794 C792 1.394 . S
C794 C795 1.369 . S
C794 C798 1.531 . S
C795 C794 1.369 . S
C795 C796 1.410 1_655 S
C795 C803 1.503 1_655 S
C796 C795 1.410 1_455 S
C796 C797 1.392 . S
C796 C799 1.511 . S
C797 C793 1.376 1_455 S
C797 C796 1.392 . S
C797 H809 0.929 . S
C798 C794 1.531 . S
C798 H810 0.960 . S
C798 H811 0.962 . S
C798 H812 0.960 . S
C799 C796 1.511 . S
C799 H813 0.961 . S
C799 H814 0.961 . S
C799 H815 0.961 . S
C800 C801 1.370 . S
C800 C802 1.364 . S
C800 H816 0.931 . S
C801 C800 1.370 . S
C801 C805 1.408 . S
C802 C800 1.364 . S
C802 C803 1.371 . S
C802 C806 1.523 1_455 S
C803 C795 1.503 1_455 S
C803 C802 1.371 . S
C803 C804 1.403 . S
C804 C803 1.403 . S
C804 C805 1.404 . S
C804 C807 1.539 . S
C805 C801 1.408 . S
C805 C804 1.404 . S
C805 H817 0.930 . S
C806 C802 1.523 1_655 S
C806 H818 0.956 . S
C806 H819 0.961 1_655 S
C806 H820 0.961 . S
C807 C804 1.539 . S
C807 H821 0.958 1_455 S
C807 H822 0.961 . S
C807 H823 0.960 . S
H808 C792 0.931 . S
H809 C797 0.929 . S
H810 C798 0.960 . S
H811 C798 0.962 . S
H812 C798 0.960 . S
H813 C799 0.961 . S
H814 C799 0.961 . S
H815 C799 0.961 . S
H816 C800 0.931 . S
H817 C805 0.930 . S
H818 C806 0.956 . S
H819 C806 0.961 1_455 S
H820 C806 0.961 . S
H821 C807 0.958 1_655 S
H822 C807 0.961 . S
H823 C807 0.960 . S
C824 C825 1.391 . S
C824 C826 1.394 . S
C824 H840 0.931 . S
C825 C824 1.391 . S
C825 C829 1.376 . S
C826 C824 1.394 . S
C826 C827 1.369 . S
C826 C830 1.531 . S
C827 C826 1.369 . S
C827 C828 1.410 . S
C827 C835 1.503 . S
C828 C827 1.410 . S
C828 C829 1.392 . S
C828 C831 1.511 . S
C829 C825 1.376 . S
C829 C828 1.392 . S
C829 H841 0.929 . S
C830 C826 1.531 . S
C830 H842 0.960 . S
C830 H843 0.962 . S
C830 H844 0.960 . S
C831 C828 1.511 . S
C831 H845 0.961 . S
C831 H846 0.961 . S
C831 H847 0.961 . S
C832 C833 1.370 . S
C832 C834 1.363 . S
C832 H848 0.931 . S
C833 C832 1.370 . S
C833 C837 1.408 . S
C834 C832 1.363 . S
C834 C835 1.370 . S
C834 C838 1.524 . S
C835 C827 1.503 . S
C835 C834 1.370 . S
C835 C836 1.403 . S
C836 C835 1.403 . S
C836 C837 1.404 . S
C836 C839 1.539 . S
C837 C833 1.408 . S
C837 C836 1.404 . S
C837 H849 0.930 . S
C838 C834 1.524 . S
C838 H850 0.956 . S
C838 H851 0.961 . S
C838 H852 0.961 . S
C839 C836 1.539 . S
C839 H853 0.958 . S
C839 H854 0.961 . S
C839 H855 0.960 . S
H840 C824 0.931 . S
H841 C829 0.929 . S
H842 C830 0.960 . S
H843 C830 0.962 . S
H844 C830 0.960 . S
H845 C831 0.961 . S
H846 C831 0.961 . S
H847 C831 0.961 . S
H848 C832 0.931 . S
H849 C837 0.930 . S
H850 C838 0.956 . S
H851 C838 0.961 . S
H852 C838 0.961 . S
H853 C839 0.958 . S
H854 C839 0.961 . S
H855 C839 0.960 . S
C856 C857 1.391 . S
C856 C858 1.394 . S
C856 H872 0.931 . S
C857 C856 1.391 . S
C857 C861 1.376 . S
C858 C856 1.394 . S
C858 C859 1.369 . S
C858 C862 1.531 . S
C859 C858 1.369 . S
C859 C860 1.410 . S
C859 C867 1.503 . S
C860 C859 1.410 . S
C860 C861 1.392 . S
C860 C863 1.511 . S
C861 C857 1.376 . S
C861 C860 1.392 . S
C861 H873 0.929 . S
C862 C858 1.531 . S
C862 H874 0.960 . S
C862 H875 0.962 . S
C862 H876 0.960 . S
C863 C860 1.511 . S
C863 H877 0.961 . S
C863 H878 0.961 . S
C863 H879 0.961 . S
C864 C865 1.370 . S
C864 C866 1.363 . S
C864 H880 0.931 . S
C865 C864 1.370 . S
C865 C869 1.408 . S
C866 C864 1.363 . S
C866 C867 1.370 . S
C866 C870 1.524 . S
C867 C859 1.503 . S
C867 C866 1.370 . S
C867 C868 1.403 . S
C868 C867 1.403 . S
C868 C869 1.404 . S
C868 C871 1.539 . S
C869 C865 1.408 . S
C869 C868 1.404 . S
C869 H881 0.930 . S
C870 C866 1.524 . S
C870 H882 0.956 . S
C870 H883 0.961 . S
C870 H884 0.961 . S
C871 C868 1.539 . S
C871 H885 0.958 . S
C871 H886 0.961 . S
C871 H887 0.960 . S
H872 C856 0.931 . S
H873 C861 0.929 . S
H874 C862 0.960 . S
H875 C862 0.962 . S
H876 C862 0.960 . S
H877 C863 0.961 . S
H878 C863 0.961 . S
H879 C863 0.961 . S
H880 C864 0.931 . S
H881 C869 0.930 . S
H882 C870 0.956 . S
H883 C870 0.961 . S
H884 C870 0.961 . S
H885 C871 0.958 . S
H886 C871 0.961 . S
H887 C871 0.960 . S
C888 C889 1.391 . S
C888 C890 1.394 . S
C888 H904 0.931 . S
C889 C888 1.391 . S
C889 C893 1.376 . S
C890 C888 1.394 . S
C890 C891 1.369 . S
C890 C894 1.531 . S
C891 C890 1.369 . S
C891 C892 1.410 . S
C891 C899 1.503 . S
C892 C891 1.410 . S
C892 C893 1.392 . S
C892 C895 1.511 . S
C893 C889 1.376 . S
C893 C892 1.392 . S
C893 H905 0.929 . S
C894 C890 1.531 . S
C894 H906 0.960 . S
C894 H907 0.962 . S
C894 H908 0.960 . S
C895 C892 1.511 . S
C895 H909 0.961 . S
C895 H910 0.961 . S
C895 H911 0.961 . S
C896 C897 1.370 . S
C896 C898 1.363 . S
C896 H912 0.931 . S
C897 C896 1.370 . S
C897 C901 1.408 . S
C898 C896 1.363 . S
C898 C899 1.370 . S
C898 C902 1.524 . S
C899 C891 1.503 . S
C899 C898 1.370 . S
C899 C900 1.403 . S
C900 C899 1.403 . S
C900 C901 1.404 . S
C900 C903 1.539 . S
C901 C897 1.408 . S
C901 C900 1.404 . S
C901 H913 0.930 . S
C902 C898 1.524 . S
C902 H914 0.956 . S
C902 H915 0.961 . S
C902 H916 0.961 . S
C903 C900 1.539 . S
C903 H917 0.958 . S
C903 H918 0.961 . S
C903 H919 0.960 . S
H904 C888 0.931 . S
H905 C893 0.929 . S
H906 C894 0.960 . S
H907 C894 0.962 . S
H908 C894 0.960 . S
H909 C895 0.961 . S
H910 C895 0.961 . S
H911 C895 0.961 . S
H912 C896 0.931 . S
H913 C901 0.930 . S
H914 C902 0.956 . S
H915 C902 0.961 . S
H916 C902 0.961 . S
H917 C903 0.958 . S
H918 C903 0.961 . S
H919 C903 0.960 . S
C920 C921 1.391 . S
C920 C922 1.394 . S
C920 H936 0.931 . S
C921 C920 1.391 . S
C921 C925 1.376 . S
C922 C920 1.394 . S
C922 C923 1.369 . S
C922 C926 1.531 . S
C923 C922 1.369 . S
C923 C924 1.410 . S
C923 C931 1.503 . S
C924 C923 1.410 . S
C924 C925 1.392 . S
C924 C927 1.511 . S
C925 C921 1.376 . S
C925 C924 1.392 . S
C925 H937 0.929 . S
C926 C922 1.531 . S
C926 H938 0.960 . S
C926 H939 0.962 . S
C926 H940 0.960 . S
C927 C924 1.511 . S
C927 H941 0.961 . S
C927 H942 0.961 . S
C927 H943 0.961 . S
C928 C929 1.370 . S
C928 C930 1.363 . S
C928 H944 0.931 . S
C929 C928 1.370 . S
C929 C933 1.408 . S
C930 C928 1.363 . S
C930 C931 1.370 . S
C930 C934 1.524 . S
C931 C923 1.503 . S
C931 C930 1.370 . S
C931 C932 1.403 . S
C932 C931 1.403 . S
C932 C933 1.404 . S
C932 C935 1.539 . S
C933 C929 1.408 . S
C933 C932 1.404 . S
C933 H945 0.930 . S
C934 C930 1.524 . S
C934 H946 0.956 . S
C934 H947 0.961 . S
C934 H948 0.961 . S
C935 C932 1.539 . S
C935 H949 0.958 . S
C935 H950 0.961 . S
C935 H951 0.960 . S
H936 C920 0.931 . S
H937 C925 0.929 . S
H938 C926 0.960 . S
H939 C926 0.962 . S
H940 C926 0.960 . S
H941 C927 0.961 . S
H942 C927 0.961 . S
H943 C927 0.961 . S
H944 C928 0.931 . S
H945 C933 0.930 . S
H946 C934 0.956 . S
H947 C934 0.961 . S
H948 C934 0.961 . S
H949 C935 0.958 . S
H950 C935 0.961 . S
H951 C935 0.960 . S
C185 C16 1.314 . S
C193 C17 1.299 . S
C217 C40 1.313 . S
C225 C39 1.296 . S
C249 C63 1.310 . S
C257 C62 1.297 . S
C281 C85 1.296 . S
C289 C86 1.306 . S
C313 C108 1.295 . S
C321 C109 1.305 . S
C345 C131 1.283 . S
C353 C132 1.310 . S
C377 C155 1.307 . S
C385 C154 1.300 . S
C409 C178 1.302 . S
C417 C177 1.301 . S
C441 C44 1.471 . S
C449 C21 1.521 . S
C473 C90 1.499 . S
C481 C67 1.505 . S
C505 C113 1.479 . S
C513 C136 1.520 . S
C537 C159 1.478 . S
C545 C182 1.515 . S
C569 C18 1.447 . S
C577 C133 1.462 . S
C601 C110 1.483 . S
C609 C41 1.474 . S
C633 C64 1.483 . S
C641 C179 1.478 . S
C665 C87 1.485 . S
C673 C156 1.477 . S
C697 C20 1.462 . S
C705 C89 1.442 . S
C729 C43 1.440 . S
C737 C66 1.454 . S
C761 C42 1.425 . S
C769 C65 1.446 . S
C793 C88 1.431 . S
C801 C19 1.433 . S
C825 C112 1.443 . S
C833 C181 1.454 . S
C857 C135 1.439 . S
C865 C158 1.454 . S
C889 C134 1.433 . S
C897 C157 1.443 . S
C921 C180 1.416 . S
C929 C111 1.448 . S
