# Generated by pormake.
# Topology rob, (6)-cn, num edge types: 1
# Building blocks:
#     Node 0, Type 0, BuildingBlock: KUMBUR_clean_sbu_1, # of connection points: 6
#     Node 1, Type 0, BuildingBlock: KUMBUR_clean_sbu_1, # of connection points: 6
#     Node 2, Type 0, BuildingBlock: KUMBUR_clean_sbu_1, # of connection points: 6
#     Node 3, Type 0, BuildingBlock: KUMBUR_clean_sbu_1, # of connection points: 6
#     Edge 4, Type (0, 0), BuildingBlock: FUNLAD_clean_linker_1, # of connection points: 2
#     Edge 5, Type (0, 0), BuildingBlock: FUNLAD_clean_linker_1, # of connection points: 2
#     Edge 6, Type (0, 0), BuildingBlock: FUNLAD_clean_linker_1, # of connection points: 2
#     Edge 7, Type (0, 0), BuildingBlock: FUNLAD_clean_linker_1, # of connection points: 2
#     Edge 8, Type (0, 0), BuildingBlock: FUNLAD_clean_linker_1, # of connection points: 2
#     Edge 9, Type (0, 0), BuildingBlock: FUNLAD_clean_linker_1, # of connection points: 2
#     Edge 10, Type (0, 0), BuildingBlock: FUNLAD_clean_linker_1, # of connection points: 2
#     Edge 11, Type (0, 0), BuildingBlock: FUNLAD_clean_linker_1, # of connection points: 2
#     Edge 12, Type (0, 0), BuildingBlock: FUNLAD_clean_linker_1, # of connection points: 2
#     Edge 13, Type (0, 0), BuildingBlock: FUNLAD_clean_linker_1, # of connection points: 2
#     Edge 14, Type (0, 0), BuildingBlock: FUNLAD_clean_linker_1, # of connection points: 2
#     Edge 15, Type (0, 0), BuildingBlock: FUNLAD_clean_linker_1, # of connection points: 2
# Relax obj value: 0.019
# Max RMSD: 0.110
# Mean RMSD: 0.110
data_MOF--net-rob--node1-KUMBUR_clean_sbu_1--edge1-FUNLAD_clean_linker_1
_symmetry_space_group_name_H-M    P1
_symmetry_Int_Tables_number       1
_symmetry_cell_setting            triclinic
loop_
_symmetry_equiv_pos_as_xyz
'x, y, z'
_cell_length_a     19.349704
_cell_length_b     24.153929
_cell_length_c     35.297592
_cell_angle_alpha  109.02553
_cell_angle_beta   90.088386
_cell_angle_gamma 89.894195
loop_
_atom_site_label
_atom_site_type_symbol
_atom_site_fract_x
_atom_site_fract_y
_atom_site_fract_z
_atom_type_partial_charge
Tb0 Tb 0.31327 0.22912 0.96739 0.0
C1 C 0.11884 0.43895 0.05791 0.0
N2 N 0.18335 0.42574 0.0677 0.0
C3 C 0.21414 0.52763 0.08747 0.0
C4 C 0.09976 0.49704 0.06204 0.0
C5 C 0.23008 0.46961 0.08384 0.0
C6 C 0.14898 0.54136 0.07606 0.0
C7 C 1.00051 0.40746 0.04099 0.0
C8 C 0.06983 0.39498 0.04751 0.0
C9 C 0.98176 0.46478 0.04372 0.0
C10 C 0.03127 0.50948 0.05427 0.0
Tb11 Tb 0.2015 0.32986 0.06333 0.0
N12 N 0.0891 0.34081 0.0473 0.0
C13 C 0.95147 0.36273 0.03424 0.0
C14 C 0.04057 0.29837 0.04389 0.0
C15 C 0.97147 0.30813 0.03621 0.0
H16 H 0.27905 0.46061 0.09534 0.0
H17 H 0.93346 0.27399 0.03263 0.0
H18 H 0.25257 0.09632 0.95487 0.0
H19 H 0.57144 0.32076 0.99946 0.0
H20 H 0.05549 0.25705 0.04699 0.0
H21 H 0.89766 0.37058 0.02912 0.0
H22 H 0.44963 0.32059 0.98086 0.0
H23 H 0.25155 0.56195 0.10014 0.0
H24 H 0.92863 0.47542 0.03917 0.0
H25 H 0.01543 0.55394 0.05788 0.0
H26 H 0.29724 1.00237 0.95807 0.0
H27 H 0.13626 0.58656 0.07977 0.0
H28 H 0.62368 0.23221 1.00804 0.0
N29 N 0.34804 0.14125 0.97181 0.0
C30 C 0.41628 0.13641 0.97921 0.0
C31 C 0.33111 0.03994 0.96455 0.0
C32 C 0.44418 0.08341 0.98107 0.0
C33 C 0.30569 0.0936 0.96335 0.0
C34 C 0.40061 0.03485 0.97363 0.0
N35 N 0.42892 0.23544 0.98312 0.0
C36 C 0.46971 0.28289 0.98659 0.0
C37 C 0.52844 0.18267 0.99508 0.0
C38 C 0.45776 0.18542 0.98593 0.0
C39 C 0.56922 0.23246 1.0009 0.0
C40 C 0.53982 0.28258 0.99625 0.0
H41 H 0.4202 0.99317 0.97437 0.0
H42 H 0.53685 0.04022 0.99154 0.0
H43 H 0.61051 0.12726 1.00448 0.0
O44 O 0.37338 0.21351 0.91429 0.0
O45 O 0.32352 0.21537 0.02601 0.0
O46 O 0.30969 0.30887 0.06848 0.0
O47 O 0.27112 0.17525 0.91323 0.0
O48 O 0.32826 0.32506 0.98325 0.0
O49 O 0.30281 0.36384 0.05143 0.0
O50 O 0.17057 0.29301 0.10743 0.0
O51 O 0.15614 0.3064 1.00307 0.0
O52 O 0.24888 0.30034 0.96121 0.0
O53 O 0.18885 0.38482 0.12295 0.0
O54 O 0.18906 0.23411 0.04501 0.0
O55 O 0.20959 0.19838 0.97632 0.0
C56 C 0.33289 0.25558 0.0611 0.0
C57 C 0.3302 0.14878 0.84914 0.0
C58 C 0.38465 0.13291 0.78362 0.0
C59 C 0.33901 0.08576 0.76685 0.0
C60 C 0.28475 0.10233 0.83128 0.0
C61 C 0.28942 0.07104 0.79052 0.0
C62 C 0.3803 0.16377 0.82515 0.0
C63 C 0.33067 0.36795 0.01816 0.0
C64 C 0.32555 0.1797 0.89285 0.0
C65 C 0.51436 0.08066 0.99032 0.0
C66 C 0.55633 0.13021 0.99754 0.0
C67 C 0.18259 0.30763 0.96915 0.0
C68 C 0.09965 0.35592 0.15817 0.0
C69 C 0.02576 0.3473 0.21244 0.0
C70 C 0.97487 0.38071 0.20114 0.0
C71 C 0.04809 0.38969 0.14812 0.0
C72 C 0.08839 0.33517 0.19068 0.0
C73 C 0.986 0.40131 0.16913 0.0
C74 C 0.1795 0.19529 1.0091 0.0
C75 C 0.16543 0.34351 0.13541 0.0
H76 H 0.34167 0.05915 0.73566 0.0
H77 H 0.24602 0.08952 0.84893 0.0
H78 H 0.25467 0.03479 0.77724 0.0
H79 H 0.4156 0.19958 0.83871 0.0
H80 H 0.92709 0.39278 0.21767 0.0
H81 H 0.05603 0.40812 0.12451 0.0
H82 H 0.12835 0.30993 0.19914 0.0
H83 H 0.94666 0.42729 0.16098 0.0
Tb84 Tb 0.82426 0.73201 0.96748 0.0
C85 C 0.63857 0.93609 0.06617 0.0
N86 N 0.69962 0.91792 0.07731 0.0
C87 C 0.73663 0.01803 0.10502 0.0
C88 C 0.62503 0.99601 0.07307 0.0
C89 C 0.74671 0.95833 0.0987 0.0
C90 C 0.67596 0.03692 0.09161 0.0
C91 C 0.52076 0.9124 0.04286 0.0
C92 C 0.58694 0.89503 0.05142 0.0
C93 C 0.50808 0.97164 0.04793 0.0
C94 C 0.55997 0.01341 0.06322 0.0
Tb95 Tb 0.70915 0.81893 0.06543 0.0
N96 N 0.60047 0.83838 0.04787 0.0
C97 C 0.46855 0.87011 0.03122 0.0
C98 C 0.54847 0.7979 0.03955 0.0
C99 C 0.48225 0.81274 0.03011 0.0
H100 H 0.79169 0.94496 0.11171 0.0
H101 H 0.4417 0.78014 0.0224 0.0
H102 H 0.77899 0.59636 0.957 0.0
H103 H 0.07661 0.83342 0.98002 0.0
H104 H 0.55907 0.7539 0.03919 0.0
H105 H 0.41699 0.88173 0.02442 0.0
H106 H 0.95218 0.82397 0.96519 0.0
H107 H 0.77493 0.04958 0.12113 0.0
H108 H 0.45766 0.98586 0.0414 0.0
H109 H 0.54856 0.05926 0.0685 0.0
H110 H 0.83458 0.50673 0.96183 0.0
H111 H 0.6676 0.08332 0.09737 0.0
H112 H 0.13845 0.75506 0.99709 0.0
N113 N 0.86979 0.64823 0.97356 0.0
C114 C 0.93857 0.64887 0.98129 0.0
C115 C 0.86417 0.54668 0.96792 0.0
C116 C 0.97253 0.59888 0.98432 0.0
C117 C 0.83271 0.59761 0.9655 0.0
C118 C 0.93427 0.54742 0.97762 0.0
N119 N 0.94076 0.74521 0.97908 0.0
C120 C 0.97713 0.79161 0.97538 0.0
C121 C 0.04689 0.70174 0.99207 0.0
C122 C 0.975 0.69957 0.98506 0.0
C123 C 0.08316 0.75171 0.99198 0.0
C124 C 0.04835 0.7962 0.98261 0.0
H125 H 0.95875 0.50762 0.97863 0.0
H126 H 0.07093 0.56365 0.99528 0.0
H127 H 0.1358 0.6539 1.00259 0.0
O128 O 0.88223 0.7184 0.91393 0.0
O129 O 0.82595 0.70987 0.02333 0.0
O130 O 0.81521 0.79562 0.07572 0.0
O131 O 0.77899 0.68256 0.91267 0.0
O132 O 0.83739 0.82832 0.99189 0.0
O133 O 0.81255 0.85396 0.05996 0.0
O134 O 0.68204 0.77373 0.10544 0.0
O135 O 0.66881 0.80245 1.00446 0.0
O136 O 0.76268 0.80709 0.96605 0.0
O137 O 0.67228 0.8668 0.12274 0.0
O138 O 0.69146 0.72397 0.03937 0.0
O139 O 0.72109 0.69537 0.97149 0.0
C140 C 0.84532 0.74461 0.05876 0.0
C141 C 0.83653 0.66014 0.84793 0.0
C142 C 0.89186 0.64754 0.7829 0.0
C143 C 0.84266 0.60396 0.76457 0.0
C144 C 0.78802 0.61712 0.82852 0.0
C145 C 0.79119 0.58934 0.78724 0.0
C146 C 0.88862 0.67505 0.82493 0.0
C147 C 0.84232 0.86421 0.02928 0.0
C148 C 0.83305 0.68738 0.89214 0.0
C149 C 0.04365 0.60153 0.99284 0.0
C150 C 0.08067 0.65298 0.99697 0.0
C151 C 0.69619 0.81256 0.97338 0.0
C152 C 0.69195 0.82772 0.17462 0.0
C153 C 0.66877 0.82671 0.24255 0.0
C154 C 0.73677 0.84627 0.25347 0.0
C155 C 0.75892 0.84828 0.1863 0.0
C156 C 0.64735 0.81664 0.20271 0.0
C157 C 0.78135 0.85688 0.22544 0.0
C158 C 0.68583 0.68887 1.00189 0.0
C159 C 0.66595 0.82132 0.1342 0.0
H160 H 0.84392 0.57989 0.73287 0.0
H161 H 0.74804 0.6042 0.84538 0.0
H162 H 0.75386 0.55575 0.77274 0.0
H163 H 0.92647 0.7081 0.83968 0.0
H164 H 0.75605 0.85285 0.28341 0.0
H165 H 0.79335 0.85838 0.1653 0.0
H166 H 0.59521 0.80147 0.19376 0.0
H167 H 0.83337 0.87225 0.23418 0.0
Tb168 Tb 0.32271 0.81512 0.56403 0.0
C169 C 0.1431 0.60776 0.47172 0.0
N170 N 0.20112 0.62558 0.45746 0.0
C171 C 0.24008 0.52587 0.4313 0.0
C172 C 0.13309 0.54862 0.46832 0.0
C173 C 0.24734 0.58511 0.43519 0.0
C174 C 0.18336 0.50769 0.44864 0.0
C175 C 0.02702 0.63086 0.49803 0.0
C176 C 0.0906 0.64803 0.48611 0.0
C177 C 0.01866 0.57296 0.49753 0.0
C178 C 0.07171 0.53187 0.48272 0.0
Tb179 Tb 0.20813 0.72407 0.46786 0.0
N180 N 0.10073 0.70363 0.48625 0.0
C181 C 0.97315 0.67188 0.50861 0.0
C182 C 0.04695 0.74244 0.49334 0.0
C183 C 0.98278 0.72763 0.50551 0.0
H184 H 0.29 0.59844 0.42041 0.0
H185 H 0.94091 0.75912 0.51246 0.0
H186 H 0.2605 0.94999 0.58482 0.0
H187 H 0.57705 0.72313 0.51622 0.0
H188 H 0.0551 0.78542 0.49116 0.0
H189 H 0.92339 0.66035 0.51792 0.0
H190 H 0.45735 0.72097 0.53762 0.0
H191 H 0.27782 0.49421 0.41457 0.0
H192 H 0.97031 0.55899 0.5069 0.0
H193 H 0.06353 0.48668 0.48073 0.0
H194 H 0.30426 0.04661 0.5873 0.0
H195 H 0.1772 0.46168 0.44503 0.0
H196 H 0.6281 0.81588 0.51446 0.0
N197 N 0.35485 0.9054 0.56304 0.0
C198 C 0.4223 0.911 0.55432 0.0
C199 C 0.33779 1.00871 0.57752 0.0
C200 C 0.44986 0.96583 0.5562 0.0
C201 C 0.31283 0.95347 0.57543 0.0
C202 C 0.40659 0.01495 0.56781 0.0
N203 N 0.43582 0.80957 0.54333 0.0
C204 C 0.4765 0.76079 0.53474 0.0
C205 C 0.53378 0.86541 0.53345 0.0
C206 C 0.46384 0.86142 0.5436 0.0
C207 C 0.57429 0.81472 0.52264 0.0
C208 C 0.54556 0.76227 0.52347 0.0
H209 H 0.42596 0.05789 0.5698 0.0
H210 H 0.54206 0.01199 0.54893 0.0
H211 H 0.61504 0.92383 0.52765 0.0
O212 O 0.39121 0.82299 0.61208 0.0
O213 O 0.32347 0.83402 0.5071 0.0
O214 O 0.31453 0.7454 0.45739 0.0
O215 O 0.29339 0.86759 0.62182 0.0
O216 O 0.33587 0.7189 0.54391 0.0
O217 O 0.31054 0.68891 0.47589 0.0
O218 O 0.18373 0.76768 0.42644 0.0
O219 O 0.16752 0.74514 0.52905 0.0
O220 O 0.25739 0.74496 0.57153 0.0
O221 O 0.16889 0.6754 0.41122 0.0
O222 O 0.18898 0.81914 0.49275 0.0
O223 O 0.21797 0.84951 0.56077 0.0
C224 C 0.3424 0.79767 0.47214 0.0
C225 C 0.33732 0.83707 0.67455 0.0
C226 C 0.38215 0.82653 0.73682 0.0
C227 C 0.31633 0.8069 0.74403 0.0
C228 C 0.27283 0.81664 0.68221 0.0
C229 C 0.26246 0.80176 0.71674 0.0
C230 C 0.39171 0.84193 0.70193 0.0
C231 C 0.33648 0.67909 0.50775 0.0
C232 C 0.34823 0.85464 0.63866 0.0
C233 C 0.51969 0.97005 0.54693 0.0
C234 C 0.56133 0.91987 0.53503 0.0
C235 C 0.1929 0.7331 0.55992 0.0
C236 C 0.19103 0.71075 0.35771 0.0
C237 C 0.16902 0.7103 0.2892 0.0
C238 C 0.23638 0.68853 0.27859 0.0
C239 C 0.25724 0.6879 0.34626 0.0
C240 C 0.14736 0.72213 0.32919 0.0
C241 C 0.27994 0.67748 0.30699 0.0
C242 C 0.18311 0.85534 0.52994 0.0
C243 C 0.16514 0.71997 0.39856 0.0
H244 H 0.30527 0.79596 0.7707 0.0
H245 H 0.23036 0.8127 0.66163 0.0
H246 H 0.21225 0.78649 0.72252 0.0
H247 H 0.44162 0.85776 0.69602 0.0
H248 H 0.25607 0.68055 0.24862 0.0
H249 H 0.29095 0.67766 0.36759 0.0
H250 H 0.0958 0.73913 0.33798 0.0
H251 H 0.33143 0.66042 0.29846 0.0
Tb252 Tb 0.79909 0.30385 0.56134 0.0
C253 C 0.61857 0.08797 0.46601 0.0
N254 N 0.68121 0.10534 0.45675 0.0
C255 C 0.72045 1.00536 0.43519 0.0
C256 C 0.6047 0.02861 0.46077 0.0
C257 C 0.73105 0.0645 0.43987 0.0
C258 C 0.65722 0.98736 0.44609 0.0
C259 C 0.49895 0.1126 0.48422 0.0
C260 C 0.56641 0.12913 0.47743 0.0
C261 C 0.48542 0.05397 0.48055 0.0
C262 C 0.53809 0.01198 0.4685 0.0
Tb263 Tb 0.69177 0.20293 0.46388 0.0
N264 N 0.58087 0.18483 0.47899 0.0
C265 C 0.44652 0.15488 0.49249 0.0
C266 C 0.52886 0.22513 0.48411 0.0
C267 C 0.46139 0.21121 0.49192 0.0
H268 H 0.77854 0.077 0.42884 0.0
H269 H 0.42076 0.24365 0.49693 0.0
H270 H 0.73145 0.43618 0.58383 0.0
H271 H 0.05703 0.21962 0.514 0.0
H272 H 0.53984 0.26818 0.48267 0.0
H273 H 0.39399 0.14392 0.49789 0.0
H274 H 0.9377 0.21289 0.53366 0.0
H275 H 0.76054 0.9735 0.42229 0.0
H276 H 0.43391 0.04026 0.48556 0.0
H277 H 0.52629 0.96649 0.46416 0.0
H278 H 0.77218 0.5354 0.59022 0.0
H279 H 0.64861 0.94133 0.44163 0.0
H280 H 0.10425 0.31465 0.5142 0.0
N281 N 0.82727 0.3952 0.56163 0.0
C282 C 0.89437 0.40288 0.55321 0.0
C283 C 0.80672 0.49839 0.57906 0.0
C284 C 0.92002 0.45897 0.55689 0.0
C285 C 0.78356 0.44193 0.57498 0.0
C286 C 0.87516 0.50698 0.56982 0.0
N287 N 0.91184 0.3012 0.54031 0.0
C288 C 0.9547 0.25368 0.5315 0.0
C289 C 1.00761 0.36083 0.53248 0.0
C290 C 0.93769 0.35429 0.54157 0.0
C291 C 0.05033 0.31145 0.52146 0.0
C292 C 0.02379 0.25774 0.52117 0.0
H293 H 0.89312 0.55087 0.57337 0.0
H294 H 0.01096 0.50853 0.55262 0.0
H295 H 0.08704 0.42252 0.52962 0.0
O296 O 0.86726 0.31606 0.61002 0.0
O297 O 0.80138 0.32344 0.50451 0.0
O298 O 0.79856 0.23022 0.46215 0.0
O299 O 0.76617 0.35506 0.61881 0.0
O300 O 0.81691 0.20869 0.54489 0.0
O301 O 0.79482 0.17357 0.47669 0.0
O302 O 0.65889 0.24017 0.42023 0.0
O303 O 0.64608 0.22269 0.52368 0.0
O304 O 0.73532 0.23291 0.56899 0.0
O305 O 0.6853 0.14966 0.40355 0.0
O306 O 0.66868 0.29798 0.48539 0.0
O307 O 0.69296 0.33185 0.55413 0.0
C308 C 0.81391 0.28519 0.46922 0.0
C309 C 0.81353 0.32702 0.67207 0.0
C310 C 0.86299 0.3138 0.73258 0.0
C311 C 0.7978 0.29463 0.74112 0.0
C312 C 0.74952 0.30729 0.68117 0.0
C313 C 0.74184 0.29118 0.71543 0.0
C314 C 0.86995 0.33033 0.69797 0.0
C315 C 0.81828 0.16629 0.50992 0.0
C316 C 0.82211 0.34521 0.63619 0.0
C317 C 0.98979 0.46557 0.5486 0.0
C318 C 0.03325 0.4166 0.53589 0.0
C319 C 0.67186 0.2171 0.55662 0.0
C320 C 0.59832 0.17427 0.3654 0.0
C321 C 0.53913 0.16344 0.30198 0.0
C322 C 0.4828 0.13773 0.31525 0.0
C323 C 0.54141 0.14843 0.37761 0.0
C324 C 0.59717 0.1813 0.3273 0.0
C325 C 0.48396 0.13079 0.35287 0.0
C326 C 0.66095 0.33603 0.52199 0.0
C327 C 0.66031 0.1905 0.39118 0.0
H328 H 0.78889 0.28318 0.76785 0.0
H329 H 0.70531 0.30471 0.66194 0.0
H330 H 0.69204 0.27641 0.72228 0.0
H331 H 0.91942 0.34585 0.69112 0.0
H332 H 0.43838 0.12129 0.2963 0.0
H333 H 0.54173 0.14041 0.40579 0.0
H334 H 0.64144 0.20025 0.31729 0.0
H335 H 0.44058 0.11063 0.36262 0.0
H336 H 0.62801 0.61371 0.96146 0.0
C337 C 0.63611 0.63937 0.99274 0.0
H338 H 0.60816 0.65106 0.05262 0.0
H339 H 0.32111 0.52172 0.01961 0.0
H340 H 0.28681 0.62206 0.05427 0.0
H341 H 0.37249 0.70185 0.07084 0.0
H342 H 0.49253 0.68196 0.05224 0.0
C343 C 0.60151 0.62483 0.02135 0.0
C344 C 0.55017 0.57552 0.0118 0.0
C345 C 0.48026 0.58727 0.02428 0.0
C346 C 0.43104 0.54085 0.01588 0.0
C347 C 0.36111 0.55475 0.02675 0.0
C348 C 0.34054 0.61227 0.04635 0.0
C349 C 0.38872 0.65722 0.05553 0.0
C350 C 0.45766 0.64516 0.04464 0.0
H351 H 0.38624 0.44891 0.0521 0.0
C352 C 0.37483 0.41996 0.02202 0.0
H353 H 0.39198 0.40322 0.96026 0.0
H354 H 0.68114 0.53496 0.9881 0.0
H355 H 0.71359 0.43571 0.95009 0.0
H356 H 0.62645 0.35702 0.9307 0.0
H357 H 0.50677 0.37721 0.94995 0.0
C358 C 0.40224 0.4322 0.99047 0.0
C359 C 0.45179 0.48214 0.99589 0.0
C360 C 0.52091 0.47072 0.98185 0.0
C361 C 0.57057 0.51689 0.99102 0.0
C362 C 0.64043 0.50266 0.97998 0.0
C363 C 0.66004 0.44557 0.9585 0.0
C364 C 0.61107 0.40125 0.94775 0.0
C365 C 0.54243 0.41339 0.9593 0.0
H366 H 0.38378 0.59534 0.47056 0.0
C367 C 0.37663 0.62394 0.50121 0.0
H368 H 0.40073 0.63716 0.56193 0.0
H369 H 0.46234 0.35112 0.47904 0.0
H370 H 0.33814 0.3418 0.47018 0.0
H371 H 0.26369 0.42929 0.48615 0.0
H372 H 0.31294 0.5269 0.51032 0.0
C373 C 0.40552 0.60842 0.53114 0.0
C374 C 0.44985 0.55462 0.5231 0.0
C375 C 0.42045 0.49773 0.50852 0.0
C376 C 0.46347 0.44701 0.50004 0.0
C377 C 0.43232 0.39099 0.48596 0.0
C378 C 0.36104 0.38501 0.48079 0.0
C379 C 0.31911 0.43432 0.48963 0.0
C380 C 0.34813 0.4901 0.50332 0.0
H381 H 0.60863 0.41707 0.55869 0.0
C382 C 0.61433 0.3872 0.52825 0.0
H383 H 0.58378 0.36934 0.46793 0.0
H384 H 0.5227 0.65583 0.55594 0.0
H385 H 0.64697 0.66563 0.56279 0.0
H386 H 0.72226 0.57851 0.54203 0.0
H387 H 0.67346 0.48099 0.51614 0.0
C388 C 0.58062 0.39938 0.49844 0.0
C389 C 0.53594 0.45289 0.50642 0.0
C390 C 0.56541 0.50978 0.52062 0.0
C391 C 0.52218 0.5604 0.53025 0.0
C392 C 0.55304 0.61625 0.54639 0.0
C393 C 0.62439 0.62242 0.5508 0.0
C394 C 0.66673 0.57333 0.5394 0.0
C395 C 0.63793 0.51757 0.52472 0.0
H396 H 0.12191 0.11596 0.9744 0.0
C397 C 0.1314 0.14577 1.0045 0.0
H398 H 0.10934 0.16457 0.06604 0.0
H399 H 0.83711 1.00246 0.9846 0.0
H400 H 0.8034 0.08446 0.96341 0.0
H401 H 0.88203 0.16809 0.97248 0.0
H402 H 0.99473 0.1701 1.00274 0.0
C403 C 0.09889 0.13649 0.0356 0.0
C404 C 0.05092 0.08584 0.02982 0.0
C405 C 0.98524 0.08487 0.01163 0.0
C406 C 0.93992 0.03643 1.00628 0.0
C407 C 0.87415 0.03745 0.98877 0.0
C408 C 0.8539 0.08445 0.97666 0.0
C409 C 0.89813 0.13153 0.98178 0.0
C410 C 0.96291 0.13204 0.99913 0.0
H411 H 0.89743 0.94125 0.06954 0.0
C412 C 0.88655 0.91714 0.03829 0.0
H413 H 0.90005 0.91458 0.97856 0.0
H414 H 0.17165 0.07485 0.06703 0.0
H415 H 0.20562 0.99331 0.08872 0.0
H416 H 0.12884 0.90816 0.078 0.0
H417 H 0.01785 0.90421 0.04598 0.0
C418 C 0.9142 0.93598 1.00971 0.0
C419 C 0.9601 0.98868 0.01897 0.0
C420 C 0.02554 0.99011 0.03777 0.0
C421 C 0.07049 0.03896 0.04348 0.0
C422 C 0.13548 0.03906 0.06207 0.0
C423 C 0.15579 0.99244 0.07456 0.0
C424 C 0.11254 0.94455 0.06856 0.0
C425 C 0.04844 0.94304 0.05026 0.0
H426 H 0.87383 0.08512 0.47604 0.0
C427 C 0.86249 0.11442 0.50602 0.0
H428 H 0.88234 0.13358 0.56784 0.0
H429 H 0.98701 0.85574 0.48058 0.0
H430 H 0.86655 0.83337 0.46423 0.0
H431 H 0.77902 0.912 0.47996 0.0
H432 H 0.81186 0.01332 0.51185 0.0
C433 C 0.89158 0.10382 0.53773 0.0
C434 C 0.94274 0.05529 0.53243 0.0
C435 C 0.92269 0.99601 0.51454 0.0
C436 C 0.97303 0.95048 0.50658 0.0
C437 C 0.95123 0.89193 0.48796 0.0
C438 C 0.88207 0.87848 0.47832 0.0
C439 C 0.83284 0.92273 0.48707 0.0
C440 C 0.85256 0.98082 0.50506 0.0
H441 H 0.12432 0.93097 0.5692 0.0
C442 C 0.13207 0.90381 0.53821 0.0
H443 H 0.10183 0.88771 0.47807 0.0
H444 H 0.99768 0.16334 0.57146 0.0
H445 H 0.11815 0.18612 0.58741 0.0
H446 H 0.20638 0.10812 0.57028 0.0
H447 H 0.1745 1.00693 0.53766 0.0
C448 C 0.09569 0.91549 0.50903 0.0
C449 C 0.04329 0.96388 0.51765 0.0
C450 C 0.06318 0.02328 0.53592 0.0
C451 C 0.0126 0.06871 0.54423 0.0
C452 C 0.03386 0.1273 0.56344 0.0
C453 C 0.10296 0.14101 0.57294 0.0
C454 C 0.15257 0.09708 0.56344 0.0
C455 C 0.13332 0.03893 0.54505 0.0
H456 H 0.58836 0.1684 0.2462 0.0
C457 C 0.53914 0.16918 0.26117 0.0
H458 H 0.43081 0.1774 0.25731 0.0
H459 H 0.50302 0.27506 0.10946 0.0
H460 H 0.57088 0.35159 0.15667 0.0
H461 H 0.59395 0.34906 0.22487 0.0
H462 H 0.55127 0.26937 0.24588 0.0
C463 C 0.48026 0.17529 0.24245 0.0
C464 C 0.4772 0.17418 0.20002 0.0
C465 C 0.50071 0.22232 0.18896 0.0
C466 C 0.48406 0.22562 0.15045 0.0
C467 C 0.51125 0.27227 0.13912 0.0
C468 C 0.55072 0.31609 0.16577 0.0
C469 C 0.56391 0.31454 0.20412 0.0
C470 C 0.53922 0.26838 0.21578 0.0
H471 H 0.3638 0.27417 0.1238 0.0
C472 C 0.36852 0.24209 0.09402 0.0
H473 H 0.41166 0.16119 0.05981 0.0
H474 H 0.43824 0.07013 0.20835 0.0
H475 H 0.37514 0.99169 0.15975 0.0
H476 H 0.34064 1.00015 0.09455 0.0
H477 H 0.3692 0.08658 0.07735 0.0
C478 C 0.4072 0.19396 0.08907 0.0
C479 C 0.44025 0.18293 0.12423 0.0
C480 C 0.42307 0.13189 0.13359 0.0
C481 C 0.44198 0.12743 0.17147 0.0
C482 C 0.42403 0.07612 0.18026 0.0
C483 C 0.38807 0.03075 0.15262 0.0
C484 C 0.36861 0.03552 0.11592 0.0
C485 C 0.38543 0.08549 0.10642 0.0
H486 H 0.576 0.78624 0.25929 0.0
C487 C 0.61929 0.81528 0.2715 0.0
H488 H 0.66279 0.87304 0.32495 0.0
H489 H 0.37102 0.89355 0.41286 0.0
H490 H 0.37933 0.989 0.40479 0.0
H491 H 0.47653 0.01302 0.36786 0.0
H492 H 0.56468 0.94086 0.33744 0.0
C493 C 0.62344 0.84055 0.3116 0.0
C494 C 0.57073 0.82845 0.33877 0.0
C495 C 0.52152 0.872 0.35816 0.0
C496 C 0.46729 0.85898 0.38123 0.0
C497 C 0.41543 0.90176 0.39698 0.0
C498 C 0.41904 0.95665 0.39212 0.0
C499 C 0.47361 0.97014 0.37119 0.0
C500 C 0.52403 0.92835 0.35403 0.0
H501 H 0.42531 0.85585 0.46403 0.0
C502 C 0.39562 0.81673 0.44895 0.0
H503 H 0.37856 0.74821 0.39504 0.0
H504 H 0.66144 0.73751 0.30958 0.0
H505 H 0.65742 0.64348 0.32037 0.0
H506 H 0.56646 0.62184 0.36234 0.0
H507 H 0.47893 0.69385 0.39363 0.0
C508 C 0.4077 0.7876 0.41001 0.0
C509 C 0.46488 0.80335 0.38692 0.0
C510 C 0.51618 0.76076 0.36895 0.0
C511 C 0.56883 0.77321 0.34476 0.0
C512 C 0.61958 0.73001 0.32759 0.0
C513 C 0.61819 0.67595 0.33376 0.0
C514 C 0.56699 0.66377 0.35739 0.0
C515 C 0.51671 0.70552 0.37499 0.0
H516 H 0.59433 0.82958 0.95155 0.0
C517 C 0.64852 0.82188 0.94334 0.0
H518 H 0.72096 0.80503 0.89611 0.0
H519 H 0.47903 0.70373 0.76954 0.0
H520 H 0.53754 0.61419 0.7681 0.0
H521 H 0.63159 0.61586 0.81558 0.0
H522 H 0.66876 0.70736 0.86452 0.0
C523 C 0.66792 0.81615 0.90571 0.0
C524 C 0.6151 0.81623 0.87495 0.0
C525 C 0.59439 0.7625 0.84641 0.0
C526 C 0.53924 0.76139 0.81947 0.0
C527 C 0.51984 0.70705 0.79116 0.0
C528 C 0.55315 0.65531 0.78989 0.0
C529 C 0.60628 0.65629 0.81659 0.0
C530 C 0.62697 0.7091 0.84454 0.0
H531 H 0.48822 0.85367 0.75938 0.0
C532 C 0.44173 0.8322 0.76486 0.0
H533 H 0.399 0.78593 0.80102 0.0
H534 H 0.64971 0.92714 0.92138 0.0
H535 H 0.59276 0.01713 0.92219 0.0
H536 H 0.49089 0.01493 0.87959 0.0
H537 H 0.44854 0.92298 0.83367 0.0
C538 C 0.44216 0.81091 0.79573 0.0
C539 C 0.50449 0.81396 0.82125 0.0
C540 C 0.52667 0.86804 0.84902 0.0
C541 C 0.58294 0.86918 0.87533 0.0
C542 C 0.60596 0.92379 0.90161 0.0
C543 C 0.57357 0.97571 0.90249 0.0
C544 C 0.51665 0.97447 0.87819 0.0
C545 C 0.49308 0.92137 0.8518 0.0
H546 H 0.56921 0.19505 0.57465 0.0
C547 C 0.62348 0.19983 0.58315 0.0
H548 H 0.69728 0.1934 0.62573 0.0
H549 H 0.4106 0.24334 0.73438 0.0
H550 H 0.41947 0.34189 0.7314 0.0
H551 H 0.50696 0.36645 0.68871 0.0
H552 H 0.58564 0.29256 0.64854 0.0
C553 C 0.64305 0.19142 0.61741 0.0
C554 C 0.59139 0.17729 0.64424 0.0
C555 C 0.54588 0.2212 0.66783 0.0
C556 C 0.49604 0.20724 0.69298 0.0
C557 C 0.45035 0.25167 0.71544 0.0
C558 C 0.45466 0.30845 0.71389 0.0
C559 C 0.50386 0.32226 0.68983 0.0
C560 C 0.54887 0.27934 0.66693 0.0
H561 H 0.47998 0.17829 0.77454 0.0
C562 C 0.43818 0.1499 0.75892 0.0
H563 H 0.39547 0.10576 0.70148 0.0
H564 H 0.67187 0.08348 0.60395 0.0
H565 H 0.66336 0.98485 0.60711 0.0
H566 H 0.5753 0.96002 0.64938 0.0
H567 H 0.49647 0.03408 0.68975 0.0
C568 C 0.43658 0.13318 0.71848 0.0
C569 C 0.49181 0.14942 0.69459 0.0
C570 C 0.53729 0.10557 0.67096 0.0
C571 C 0.58766 0.11971 0.64621 0.0
C572 C 0.63283 0.07517 0.62334 0.0
C573 C 0.62847 0.01837 0.62485 0.0
C574 C 0.57885 1.00438 0.64864 0.0
C575 C 0.53376 0.04728 0.67154 0.0
H576 H 0.92999 0.68615 0.06499 0.0
C577 C 0.89963 0.72445 0.08094 0.0
H578 H 0.8823 0.7906 0.13602 0.0
H579 H 0.06912 0.59631 0.19133 0.0
H580 H 0.98374 0.52332 0.15814 0.0
H581 H 0.88783 0.54739 0.12013 0.0
H582 H 0.87822 0.64378 0.11375 0.0
C583 C 0.91187 0.7518 0.12016 0.0
C584 C 0.96951 0.73518 0.14271 0.0
C585 C 0.9725 0.67898 0.14748 0.0
C586 C 0.02595 0.66582 0.17112 0.0
C587 C 0.0291 0.60893 0.17431 0.0
C588 C 0.98022 0.56663 0.15556 0.0
C589 C 0.92639 0.58016 0.13404 0.0
C590 C 0.92202 0.63565 0.13018 0.0
H591 H 0.07735 0.75167 0.27164 0.0
C592 C 0.12055 0.72228 0.25978 0.0
H593 H 0.16484 0.66453 0.20658 0.0
H594 H 0.98374 0.84503 0.13683 0.0
H595 H 0.07037 0.91707 0.1694 0.0
H596 H 0.15975 0.89522 0.21239 0.0
H597 H 0.16324 0.8009 0.22283 0.0
C598 C 0.12553 0.69724 0.21965 0.0
C599 C 0.07379 0.70968 0.19192 0.0
C600 C 0.07194 0.76521 0.18634 0.0
C601 C 0.02013 0.77784 0.1616 0.0
C602 C 0.02085 0.83329 0.15588 0.0
C603 C 0.07061 0.87504 0.17422 0.0
C604 C 0.12093 0.86273 0.19842 0.0
C605 C 0.12203 0.80851 0.20438 0.0
H606 H 0.81507 0.34364 0.43243 0.0
C607 C 0.83767 0.30437 0.43587 0.0
H608 H 0.908 0.23499 0.41484 0.0
H609 H 0.93425 0.21013 0.23435 0.0
H610 H 0.89562 0.11374 0.23248 0.0
H611 H 0.85946 0.09547 0.29432 0.0
H612 H 0.86231 0.17281 0.35827 0.0
C613 C 0.88585 0.27354 0.40999 0.0
C614 C 0.90623 0.28616 0.37264 0.0
C615 C 0.9031 0.24031 0.33514 0.0
C616 C 0.92205 0.2511 0.29918 0.0
C617 C 0.91936 0.20442 0.26239 0.0
C618 C 0.89741 0.14888 0.26089 0.0
C619 C 0.87722 0.13857 0.29571 0.0
C620 C 0.87965 0.18351 0.3324 0.0
H621 H 0.06143 0.32128 0.26422 0.0
C622 C 0.01585 0.32823 0.24829 0.0
H623 H 0.90656 0.3231 0.24532 0.0
H624 H 0.93066 0.38237 0.43929 0.0
H625 H 0.95495 0.48026 0.43957 0.0
H626 H 0.9789 0.50066 0.37686 0.0
H627 H 0.97428 0.4228 0.31286 0.0
C628 C 0.9528 0.32065 0.26213 0.0
C629 C 0.9424 0.30789 0.30033 0.0
C630 C 0.94536 0.3538 0.33758 0.0
C631 C 0.92939 0.3426 0.37386 0.0
C632 C 0.93705 0.38875 0.4106 0.0
C633 C 0.95314 0.44518 0.41134 0.0
C634 C 0.96608 0.45664 0.37597 0.0
C635 C 0.96312 0.41152 0.33945 0.0
H636 H 0.96832 0.34385 0.75516 0.0
C637 C 0.92407 0.31889 0.7595 0.0
H638 H 0.88726 0.26495 0.7919 0.0
H639 H 0.16374 0.19837 0.85597 0.0
H640 H 0.13536 0.10719 0.80401 0.0
H641 H 0.04172 0.10291 0.75573 0.0
H642 H 0.97503 0.18964 0.75936 0.0
C643 C 0.92788 0.29373 0.7884 0.0
C644 C 0.99016 0.29895 0.81439 0.0
C645 C 0.02971 0.24816 0.81142 0.0
C646 C 0.08464 0.25086 0.83885 0.0
C647 C 0.122 0.19903 0.8357 0.0
C648 C 0.10632 0.14636 0.806 0.0
C649 C 0.05345 0.14392 0.77886 0.0
C650 C 0.01541 0.19401 0.78139 0.0
H651 H 0.08012 0.32188 0.94665 0.0
C652 C 0.13419 0.31359 0.93831 0.0
H653 H 0.20627 0.29443 0.89084 0.0
H654 H 0.92416 0.40478 0.8297 0.0
H655 H 0.95846 0.49724 0.87829 0.0
H656 H 0.06015 0.50303 0.92159 0.0
H657 H 0.12565 0.41599 0.91839 0.0
C658 C 0.15316 0.3056 0.90025 0.0
C659 C 0.10034 0.30447 0.86913 0.0
C660 C 0.06359 0.356 0.87062 0.0
C661 C 1.00743 0.35308 0.84388 0.0
C662 C 0.96901 0.40469 0.84796 0.0
C663 C 0.98788 0.45808 0.87592 0.0
C664 C 0.04478 0.46132 0.90057 0.0
C665 C 0.08194 0.41099 0.8984 0.0
H666 H 0.08825 0.71731 0.57877 0.0
C667 C 0.14272 0.71729 0.58637 0.0
H668 H 0.21454 0.70172 0.6269 0.0
H669 H 0.93338 0.76282 0.74027 0.0
H670 H 0.95171 0.86239 0.74119 0.0
H671 H 0.04064 0.88495 0.69844 0.0
H672 H 0.11128 0.80803 0.65435 0.0
C673 C 0.16047 0.70445 0.61939 0.0
C674 C 0.10665 0.69119 0.64561 0.0
C675 C 0.06567 0.73678 0.6715 0.0
C676 C 0.01474 0.72383 0.69656 0.0
C677 C 0.97371 0.77013 0.72129 0.0
C678 C 0.98345 0.82756 0.72198 0.0
C679 C 0.03348 0.84026 0.69791 0.0
C680 C 0.07399 0.79561 0.67281 0.0
H681 H 0.99134 0.68919 0.77567 0.0
C682 C 0.94795 0.66395 0.75926 0.0
H683 H 0.90448 0.62591 0.70126 0.0
H684 H 0.17457 0.59352 0.59896 0.0
H685 H 0.15487 0.49348 0.59708 0.0
H686 H 0.06638 0.47085 0.64006 0.0
H687 H 0.99748 0.54819 0.68559 0.0
C688 C 0.94702 0.65023 0.71891 0.0
C689 C 1.00457 0.66525 0.69571 0.0
C690 C 0.04503 0.61965 0.66946 0.0
C691 C 0.09631 0.63268 0.64467 0.0
C692 C 0.13544 0.58614 0.61866 0.0
C693 C 0.1246 0.52851 0.61724 0.0
C694 C 0.07474 0.51577 0.64143 0.0
C695 C 0.03535 0.56058 0.66732 0.0
loop_
_geom_bond_atom_site_label_1
_geom_bond_atom_site_label_2
_geom_bond_distance
_geom_bond_site_symmetry_2
_ccdc_geom_bond_type
Tb0 N29 2.617 . S
Tb0 N35 2.572 . S
Tb0 O44 2.465 . S
Tb0 O45 2.387 1_556 S
Tb0 O47 2.428 . S
Tb0 O48 2.308 . S
Tb0 O52 2.349 . S
Tb0 O55 2.393 . S
Tb0 C64 2.802 . S
C1 N2 1.379 . S
C1 C4 1.416 . S
C1 C8 1.424 . S
N2 C1 1.379 . S
N2 C5 1.334 . S
N2 Tb11 2.617 . S
C3 C5 1.390 . S
C3 C6 1.339 . S
C3 H23 0.930 . S
C4 C1 1.416 . S
C4 C6 1.416 . S
C4 C10 1.448 1_455 S
C5 N2 1.334 . S
C5 C3 1.390 . S
C5 H16 0.930 . S
C6 C3 1.339 . S
C6 C4 1.416 . S
C6 H27 0.930 . S
C7 C8 1.413 1_655 S
C7 C9 1.427 . S
C7 C13 1.416 1_554 S
C8 C1 1.424 . S
C8 C7 1.413 1_455 S
C8 N12 1.361 . S
C9 C7 1.427 . S
C9 C10 1.328 . S
C9 H24 0.929 1_554 S
C10 C4 1.448 1_655 S
C10 C9 1.328 . S
C10 H25 0.930 . S
Tb11 N2 2.617 . S
Tb11 N12 2.572 . S
Tb11 O46 2.349 . S
Tb11 O49 2.393 . S
Tb11 O50 2.465 . S
Tb11 O51 2.387 1_554 S
Tb11 O53 2.428 . S
Tb11 O54 2.308 . S
Tb11 C75 2.802 . S
N12 C8 1.361 . S
N12 Tb11 2.572 . S
N12 C14 1.340 . S
C13 C7 1.416 1_556 S
C13 C15 1.332 1_556 S
C13 H21 0.931 . S
C14 N12 1.340 . S
C14 C15 1.407 1_455 S
C14 H20 0.930 . S
C15 C13 1.332 1_554 S
C15 C14 1.407 1_655 S
C15 H17 0.929 1_554 S
H16 C5 0.930 . S
H17 C15 0.929 1_556 S
H18 C33 0.930 . S
H19 C40 0.929 . S
H20 C14 0.930 . S
H21 C13 0.931 . S
H22 C36 0.930 . S
H23 C3 0.930 . S
H24 C9 0.929 1_556 S
H25 C10 0.930 . S
H26 C31 0.930 . S
H27 C6 0.930 . S
H28 C39 0.931 . S
N29 Tb0 2.617 . S
N29 C30 1.379 . S
N29 C33 1.334 . S
C30 N29 1.379 . S
C30 C32 1.416 . S
C30 C38 1.424 . S
C31 H26 0.930 . S
C31 C33 1.390 1_565 S
C31 C34 1.339 . S
C32 C30 1.416 . S
C32 C34 1.416 1_545 S
C32 C65 1.448 . S
C33 H18 0.930 . S
C33 N29 1.334 . S
C33 C31 1.390 1_545 S
C34 C31 1.339 . S
C34 C32 1.416 1_565 S
C34 H41 0.930 . S
N35 Tb0 2.572 . S
N35 C36 1.340 . S
N35 C38 1.361 . S
C36 H22 0.930 . S
C36 N35 1.340 . S
C36 C40 1.407 1_556 S
C37 C38 1.413 . S
C37 C39 1.416 1_556 S
C37 C66 1.427 1_556 S
C38 C30 1.424 . S
C38 N35 1.361 . S
C38 C37 1.413 . S
C39 H28 0.931 . S
C39 C37 1.416 1_554 S
C39 C40 1.332 . S
C40 H19 0.929 . S
C40 C36 1.407 1_554 S
C40 C39 1.332 . S
H41 C34 0.930 . S
H42 C65 0.930 . S
H43 C66 0.929 . S
O44 Tb0 2.465 . S
O44 C64 1.264 . S
O45 Tb0 2.387 1_554 S
O45 C56 1.264 . S
O46 Tb11 2.349 . S
O46 C56 1.243 . S
O47 Tb0 2.428 . S
O47 C64 1.256 . S
O48 Tb0 2.308 . S
O48 C63 1.266 1_556 S
O49 Tb11 2.393 . S
O49 C63 1.248 . S
O50 Tb11 2.465 . S
O50 C75 1.264 . S
O51 Tb11 2.387 1_556 S
O51 C67 1.264 . S
O52 Tb0 2.349 . S
O52 C67 1.243 . S
O53 Tb11 2.428 . S
O53 C75 1.256 . S
O54 Tb11 2.308 . S
O54 C74 1.266 1_554 S
O55 Tb0 2.393 . S
O55 C74 1.248 . S
C56 O45 1.264 . S
C56 O46 1.243 . S
C57 C60 1.399 . S
C57 C62 1.383 . S
C57 C64 1.496 . S
C58 C59 1.399 . S
C58 C62 1.389 . S
C59 C58 1.399 . S
C59 C61 1.380 . S
C59 H76 0.929 . S
C60 C57 1.399 . S
C60 C61 1.392 . S
C60 H77 0.929 . S
C61 C59 1.380 . S
C61 C60 1.392 . S
C61 H78 0.929 . S
C62 C57 1.383 . S
C62 C58 1.389 . S
C62 H79 0.931 . S
C63 O48 1.266 1_554 S
C63 O49 1.248 . S
C64 Tb0 2.802 . S
C64 O44 1.264 . S
C64 O47 1.256 . S
C64 C57 1.496 . S
C65 C32 1.448 . S
C65 H42 0.930 . S
C65 C66 1.328 1_556 S
C66 C37 1.427 1_554 S
C66 H43 0.929 . S
C66 C65 1.328 1_554 S
C67 O51 1.264 . S
C67 O52 1.243 . S
C68 C71 1.399 . S
C68 C72 1.383 . S
C68 C75 1.496 . S
C69 C70 1.399 . S
C69 C72 1.389 . S
C70 C69 1.399 . S
C70 C73 1.380 . S
C70 H80 0.929 . S
C71 C68 1.399 . S
C71 C73 1.392 . S
C71 H81 0.929 . S
C72 C68 1.383 . S
C72 C69 1.389 . S
C72 H82 0.931 . S
C73 C70 1.380 . S
C73 C71 1.392 . S
C73 H83 0.929 . S
C74 O54 1.266 1_556 S
C74 O55 1.248 . S
C75 Tb11 2.802 . S
C75 O50 1.264 . S
C75 O53 1.256 . S
C75 C68 1.496 . S
H76 C59 0.929 . S
H77 C60 0.929 . S
H78 C61 0.929 . S
H79 C62 0.931 . S
H80 C70 0.929 . S
H81 C71 0.929 . S
H82 C72 0.931 . S
H83 C73 0.929 . S
Tb84 N113 2.617 . S
Tb84 N119 2.572 . S
Tb84 O128 2.465 . S
Tb84 O129 2.387 1_556 S
Tb84 O131 2.428 . S
Tb84 O132 2.308 . S
Tb84 O136 2.349 . S
Tb84 O139 2.393 . S
Tb84 C148 2.802 . S
C85 N86 1.379 . S
C85 C88 1.416 . S
C85 C92 1.424 . S
N86 C85 1.379 . S
N86 C89 1.334 . S
N86 Tb95 2.617 . S
C87 C89 1.390 1_545 S
C87 C90 1.339 . S
C87 H107 0.930 . S
C88 C85 1.416 . S
C88 C90 1.416 1_565 S
C88 C94 1.448 . S
C89 N86 1.334 . S
C89 C87 1.390 1_565 S
C89 H100 0.930 . S
C90 C87 1.339 . S
C90 C88 1.416 1_545 S
C90 H111 0.930 . S
C91 C92 1.413 . S
C91 C93 1.427 . S
C91 C97 1.416 1_554 S
C92 C85 1.424 . S
C92 C91 1.413 . S
C92 N96 1.361 . S
C93 C91 1.427 . S
C93 C94 1.328 . S
C93 H108 0.929 1_554 S
C94 C88 1.448 . S
C94 C93 1.328 . S
C94 H109 0.930 . S
Tb95 N86 2.617 . S
Tb95 N96 2.572 . S
Tb95 O130 2.349 . S
Tb95 O133 2.393 . S
Tb95 O134 2.465 . S
Tb95 O135 2.387 1_554 S
Tb95 O137 2.428 . S
Tb95 O138 2.308 . S
Tb95 C159 2.802 . S
N96 C92 1.361 . S
N96 Tb95 2.572 . S
N96 C98 1.340 . S
C97 C91 1.416 1_556 S
C97 C99 1.332 1_556 S
C97 H105 0.931 . S
C98 N96 1.340 . S
C98 C99 1.407 . S
C98 H104 0.930 . S
C99 C97 1.332 1_554 S
C99 C98 1.407 . S
C99 H101 0.929 1_554 S
H100 C89 0.930 . S
H101 C99 0.929 1_556 S
H102 C117 0.930 . S
H103 C124 0.929 . S
H104 C98 0.930 . S
H105 C97 0.931 . S
H106 C120 0.930 . S
H107 C87 0.930 . S
H108 C93 0.929 1_556 S
H109 C94 0.930 . S
H110 C115 0.930 . S
H111 C90 0.930 . S
H112 C123 0.931 . S
N113 Tb84 2.617 . S
N113 C114 1.379 . S
N113 C117 1.334 . S
C114 N113 1.379 . S
C114 C116 1.416 . S
C114 C122 1.424 . S
C115 H110 0.930 . S
C115 C117 1.390 . S
C115 C118 1.339 . S
C116 C114 1.416 . S
C116 C118 1.416 . S
C116 C149 1.448 1_655 S
C117 H102 0.930 . S
C117 N113 1.334 . S
C117 C115 1.390 . S
C118 C115 1.339 . S
C118 C116 1.416 . S
C118 H125 0.930 . S
N119 Tb84 2.572 . S
N119 C120 1.340 . S
N119 C122 1.361 . S
C120 H106 0.930 . S
C120 N119 1.340 . S
C120 C124 1.407 1_656 S
C121 C122 1.413 1_455 S
C121 C123 1.416 1_556 S
C121 C150 1.427 1_556 S
C122 C114 1.424 . S
C122 N119 1.361 . S
C122 C121 1.413 1_655 S
C123 H112 0.931 . S
C123 C121 1.416 1_554 S
C123 C124 1.332 . S
C124 H103 0.929 . S
C124 C120 1.407 1_454 S
C124 C123 1.332 . S
H125 C118 0.930 . S
H126 C149 0.930 . S
H127 C150 0.929 . S
O128 Tb84 2.465 . S
O128 C148 1.264 . S
O129 Tb84 2.387 1_554 S
O129 C140 1.264 . S
O130 Tb95 2.349 . S
O130 C140 1.243 . S
O131 Tb84 2.428 . S
O131 C148 1.256 . S
O132 Tb84 2.308 . S
O132 C147 1.266 1_556 S
O133 Tb95 2.393 . S
O133 C147 1.248 . S
O134 Tb95 2.465 . S
O134 C159 1.264 . S
O135 Tb95 2.387 1_556 S
O135 C151 1.264 . S
O136 Tb84 2.349 . S
O136 C151 1.243 . S
O137 Tb95 2.428 . S
O137 C159 1.256 . S
O138 Tb95 2.308 . S
O138 C158 1.266 1_554 S
O139 Tb84 2.393 . S
O139 C158 1.248 . S
C140 O129 1.264 . S
C140 O130 1.243 . S
C141 C144 1.399 . S
C141 C146 1.383 . S
C141 C148 1.496 . S
C142 C143 1.399 . S
C142 C146 1.389 . S
C143 C142 1.399 . S
C143 C145 1.380 . S
C143 H160 0.929 . S
C144 C141 1.399 . S
C144 C145 1.392 . S
C144 H161 0.929 . S
C145 C143 1.380 . S
C145 C144 1.392 . S
C145 H162 0.929 . S
C146 C141 1.383 . S
C146 C142 1.389 . S
C146 H163 0.931 . S
C147 O132 1.266 1_554 S
C147 O133 1.248 . S
C148 Tb84 2.802 . S
C148 O128 1.264 . S
C148 O131 1.256 . S
C148 C141 1.496 . S
C149 C116 1.448 1_455 S
C149 H126 0.930 . S
C149 C150 1.328 1_556 S
C150 C121 1.427 1_554 S
C150 H127 0.929 . S
C150 C149 1.328 1_554 S
C151 O135 1.264 . S
C151 O136 1.243 . S
C152 C155 1.399 . S
C152 C156 1.383 . S
C152 C159 1.496 . S
C153 C154 1.399 . S
C153 C156 1.389 . S
C154 C153 1.399 . S
C154 C157 1.380 . S
C154 H164 0.929 . S
C155 C152 1.399 . S
C155 C157 1.392 . S
C155 H165 0.929 . S
C156 C152 1.383 . S
C156 C153 1.389 . S
C156 H166 0.931 . S
C157 C154 1.380 . S
C157 C155 1.392 . S
C157 H167 0.929 . S
C158 O138 1.266 1_556 S
C158 O139 1.248 . S
C159 Tb95 2.802 . S
C159 O134 1.264 . S
C159 O137 1.256 . S
C159 C152 1.496 . S
H160 C143 0.929 . S
H161 C144 0.929 . S
H162 C145 0.929 . S
H163 C146 0.931 . S
H164 C154 0.929 . S
H165 C155 0.929 . S
H166 C156 0.931 . S
H167 C157 0.929 . S
Tb168 N197 2.617 . S
Tb168 N203 2.572 . S
Tb168 O212 2.465 . S
Tb168 O213 2.387 . S
Tb168 O215 2.428 . S
Tb168 O216 2.308 . S
Tb168 O220 2.349 . S
Tb168 O223 2.393 . S
Tb168 C232 2.802 . S
C169 N170 1.379 . S
C169 C172 1.416 . S
C169 C176 1.424 . S
N170 C169 1.379 . S
N170 C173 1.334 . S
N170 Tb179 2.617 . S
C171 C173 1.390 . S
C171 C174 1.339 . S
C171 H191 0.930 . S
C172 C169 1.416 . S
C172 C174 1.416 . S
C172 C178 1.448 1_455 S
C173 N170 1.334 . S
C173 C171 1.390 . S
C173 H184 0.930 . S
C174 C171 1.339 . S
C174 C172 1.416 . S
C174 H195 0.930 . S
C175 C176 1.413 1_655 S
C175 C177 1.427 . S
C175 C181 1.416 . S
C176 C169 1.424 . S
C176 C175 1.413 1_455 S
C176 N180 1.361 . S
C177 C175 1.427 . S
C177 C178 1.328 . S
C177 H192 0.929 . S
C178 C172 1.448 1_655 S
C178 C177 1.328 . S
C178 H193 0.930 . S
Tb179 N170 2.617 . S
Tb179 N180 2.572 . S
Tb179 O214 2.349 . S
Tb179 O217 2.393 . S
Tb179 O218 2.465 . S
Tb179 O219 2.387 . S
Tb179 O221 2.428 . S
Tb179 O222 2.308 . S
Tb179 C243 2.802 . S
N180 C176 1.361 . S
N180 Tb179 2.572 . S
N180 C182 1.340 . S
C181 C175 1.416 . S
C181 C183 1.332 . S
C181 H189 0.931 . S
C182 N180 1.340 . S
C182 C183 1.407 1_455 S
C182 H188 0.930 . S
C183 C181 1.332 . S
C183 C182 1.407 1_655 S
C183 H185 0.929 . S
H184 C173 0.930 . S
H185 C183 0.929 . S
H186 C201 0.930 . S
H187 C208 0.929 . S
H188 C182 0.930 . S
H189 C181 0.931 . S
H190 C204 0.930 . S
H191 C171 0.930 . S
H192 C177 0.929 . S
H193 C178 0.930 . S
H194 C199 0.930 . S
H195 C174 0.930 . S
H196 C207 0.931 . S
N197 Tb168 2.617 . S
N197 C198 1.379 . S
N197 C201 1.334 . S
C198 N197 1.379 . S
C198 C200 1.416 . S
C198 C206 1.424 . S
C199 H194 0.930 . S
C199 C201 1.390 1_545 S
C199 C202 1.339 . S
C200 C198 1.416 . S
C200 C202 1.416 1_565 S
C200 C233 1.448 . S
C201 H186 0.930 . S
C201 N197 1.334 . S
C201 C199 1.390 1_565 S
C202 C199 1.339 . S
C202 C200 1.416 1_545 S
C202 H209 0.930 . S
N203 Tb168 2.572 . S
N203 C204 1.340 . S
N203 C206 1.361 . S
C204 H190 0.930 . S
C204 N203 1.340 . S
C204 C208 1.407 . S
C205 C206 1.413 . S
C205 C207 1.416 . S
C205 C234 1.427 . S
C206 C198 1.424 . S
C206 N203 1.361 . S
C206 C205 1.413 . S
C207 H196 0.931 . S
C207 C205 1.416 . S
C207 C208 1.332 . S
C208 H187 0.929 . S
C208 C204 1.407 . S
C208 C207 1.332 . S
H209 C202 0.930 . S
H210 C233 0.930 . S
H211 C234 0.929 . S
O212 Tb168 2.465 . S
O212 C232 1.264 . S
O213 Tb168 2.387 . S
O213 C224 1.264 . S
O214 Tb179 2.349 . S
O214 C224 1.243 . S
O215 Tb168 2.428 . S
O215 C232 1.256 . S
O216 Tb168 2.308 . S
O216 C231 1.266 . S
O217 Tb179 2.393 . S
O217 C231 1.248 . S
O218 Tb179 2.465 . S
O218 C243 1.264 . S
O219 Tb179 2.387 . S
O219 C235 1.264 . S
O220 Tb168 2.349 . S
O220 C235 1.243 . S
O221 Tb179 2.428 . S
O221 C243 1.256 . S
O222 Tb179 2.308 . S
O222 C242 1.266 . S
O223 Tb168 2.393 . S
O223 C242 1.248 . S
C224 O213 1.264 . S
C224 O214 1.243 . S
C225 C228 1.399 . S
C225 C230 1.383 . S
C225 C232 1.496 . S
C226 C227 1.399 . S
C226 C230 1.389 . S
C227 C226 1.399 . S
C227 C229 1.380 . S
C227 H244 0.929 . S
C228 C225 1.399 . S
C228 C229 1.392 . S
C228 H245 0.929 . S
C229 C227 1.380 . S
C229 C228 1.392 . S
C229 H246 0.929 . S
C230 C225 1.383 . S
C230 C226 1.389 . S
C230 H247 0.931 . S
C231 O216 1.266 . S
C231 O217 1.248 . S
C232 Tb168 2.802 . S
C232 O212 1.264 . S
C232 O215 1.256 . S
C232 C225 1.496 . S
C233 C200 1.448 . S
C233 H210 0.930 . S
C233 C234 1.328 . S
C234 C205 1.427 . S
C234 H211 0.929 . S
C234 C233 1.328 . S
C235 O219 1.264 . S
C235 O220 1.243 . S
C236 C239 1.399 . S
C236 C240 1.383 . S
C236 C243 1.496 . S
C237 C238 1.399 . S
C237 C240 1.389 . S
C238 C237 1.399 . S
C238 C241 1.380 . S
C238 H248 0.929 . S
C239 C236 1.399 . S
C239 C241 1.392 . S
C239 H249 0.929 . S
C240 C236 1.383 . S
C240 C237 1.389 . S
C240 H250 0.931 . S
C241 C238 1.380 . S
C241 C239 1.392 . S
C241 H251 0.929 . S
C242 O222 1.266 . S
C242 O223 1.248 . S
C243 Tb179 2.802 . S
C243 O218 1.264 . S
C243 O221 1.256 . S
C243 C236 1.496 . S
H244 C227 0.929 . S
H245 C228 0.929 . S
H246 C229 0.929 . S
H247 C230 0.931 . S
H248 C238 0.929 . S
H249 C239 0.929 . S
H250 C240 0.931 . S
H251 C241 0.929 . S
Tb252 N281 2.617 . S
Tb252 N287 2.572 . S
Tb252 O296 2.465 . S
Tb252 O297 2.387 . S
Tb252 O299 2.428 . S
Tb252 O300 2.308 . S
Tb252 O304 2.349 . S
Tb252 O307 2.393 . S
Tb252 C316 2.802 . S
C253 N254 1.379 . S
C253 C256 1.416 . S
C253 C260 1.424 . S
N254 C253 1.379 . S
N254 C257 1.334 . S
N254 Tb263 2.617 . S
C255 C257 1.390 1_565 S
C255 C258 1.339 . S
C255 H275 0.930 . S
C256 C253 1.416 . S
C256 C258 1.416 1_545 S
C256 C262 1.448 . S
C257 N254 1.334 . S
C257 C255 1.390 1_545 S
C257 H268 0.930 . S
C258 C255 1.339 . S
C258 C256 1.416 1_565 S
C258 H279 0.930 . S
C259 C260 1.413 . S
C259 C261 1.427 . S
C259 C265 1.416 . S
C260 C253 1.424 . S
C260 C259 1.413 . S
C260 N264 1.361 . S
C261 C259 1.427 . S
C261 C262 1.328 . S
C261 H276 0.929 . S
C262 C256 1.448 . S
C262 C261 1.328 . S
C262 H277 0.930 . S
Tb263 N254 2.617 . S
Tb263 N264 2.572 . S
Tb263 O298 2.349 . S
Tb263 O301 2.393 . S
Tb263 O302 2.465 . S
Tb263 O303 2.387 . S
Tb263 O305 2.428 . S
Tb263 O306 2.308 . S
Tb263 C327 2.802 . S
N264 C260 1.361 . S
N264 Tb263 2.572 . S
N264 C266 1.340 . S
C265 C259 1.416 . S
C265 C267 1.332 . S
C265 H273 0.931 . S
C266 N264 1.340 . S
C266 C267 1.407 . S
C266 H272 0.930 . S
C267 C265 1.332 . S
C267 C266 1.407 . S
C267 H269 0.929 . S
H268 C257 0.930 . S
H269 C267 0.929 . S
H270 C285 0.930 . S
H271 C292 0.929 . S
H272 C266 0.930 . S
H273 C265 0.931 . S
H274 C288 0.930 . S
H275 C255 0.930 . S
H276 C261 0.929 . S
H277 C262 0.930 . S
H278 C283 0.930 . S
H279 C258 0.930 . S
H280 C291 0.931 . S
N281 Tb252 2.617 . S
N281 C282 1.379 . S
N281 C285 1.334 . S
C282 N281 1.379 . S
C282 C284 1.416 . S
C282 C290 1.424 . S
C283 H278 0.930 . S
C283 C285 1.390 . S
C283 C286 1.339 . S
C284 C282 1.416 . S
C284 C286 1.416 . S
C284 C317 1.448 1_655 S
C285 H270 0.930 . S
C285 N281 1.334 . S
C285 C283 1.390 . S
C286 C283 1.339 . S
C286 C284 1.416 . S
C286 H293 0.930 . S
N287 Tb252 2.572 . S
N287 C288 1.340 . S
N287 C290 1.361 . S
C288 H274 0.930 . S
C288 N287 1.340 . S
C288 C292 1.407 1_655 S
C289 C290 1.413 1_455 S
C289 C291 1.416 . S
C289 C318 1.427 . S
C290 C282 1.424 . S
C290 N287 1.361 . S
C290 C289 1.413 1_655 S
C291 H280 0.931 . S
C291 C289 1.416 . S
C291 C292 1.332 . S
C292 H271 0.929 . S
C292 C288 1.407 1_455 S
C292 C291 1.332 . S
H293 C286 0.930 . S
H294 C317 0.930 . S
H295 C318 0.929 . S
O296 Tb252 2.465 . S
O296 C316 1.264 . S
O297 Tb252 2.387 . S
O297 C308 1.264 . S
O298 Tb263 2.349 . S
O298 C308 1.243 . S
O299 Tb252 2.428 . S
O299 C316 1.256 . S
O300 Tb252 2.308 . S
O300 C315 1.266 . S
O301 Tb263 2.393 . S
O301 C315 1.248 . S
O302 Tb263 2.465 . S
O302 C327 1.264 . S
O303 Tb263 2.387 . S
O303 C319 1.264 . S
O304 Tb252 2.349 . S
O304 C319 1.243 . S
O305 Tb263 2.428 . S
O305 C327 1.256 . S
O306 Tb263 2.308 . S
O306 C326 1.266 . S
O307 Tb252 2.393 . S
O307 C326 1.248 . S
C308 O297 1.264 . S
C308 O298 1.243 . S
C309 C312 1.399 . S
C309 C314 1.383 . S
C309 C316 1.496 . S
C310 C311 1.399 . S
C310 C314 1.389 . S
C311 C310 1.399 . S
C311 C313 1.380 . S
C311 H328 0.929 . S
C312 C309 1.399 . S
C312 C313 1.392 . S
C312 H329 0.929 . S
C313 C311 1.380 . S
C313 C312 1.392 . S
C313 H330 0.929 . S
C314 C309 1.383 . S
C314 C310 1.389 . S
C314 H331 0.931 . S
C315 O300 1.266 . S
C315 O301 1.248 . S
C316 Tb252 2.802 . S
C316 O296 1.264 . S
C316 O299 1.256 . S
C316 C309 1.496 . S
C317 C284 1.448 1_455 S
C317 H294 0.930 . S
C317 C318 1.328 . S
C318 C289 1.427 . S
C318 H295 0.929 . S
C318 C317 1.328 . S
C319 O303 1.264 . S
C319 O304 1.243 . S
C320 C323 1.399 . S
C320 C324 1.383 . S
C320 C327 1.496 . S
C321 C322 1.399 . S
C321 C324 1.389 . S
C322 C321 1.399 . S
C322 C325 1.380 . S
C322 H332 0.929 . S
C323 C320 1.399 . S
C323 C325 1.392 . S
C323 H333 0.929 . S
C324 C320 1.383 . S
C324 C321 1.389 . S
C324 H334 0.931 . S
C325 C322 1.380 . S
C325 C323 1.392 . S
C325 H335 0.929 . S
C326 O306 1.266 . S
C326 O307 1.248 . S
C327 Tb263 2.802 . S
C327 O302 1.264 . S
C327 O305 1.256 . S
C327 C320 1.496 . S
H328 C311 0.929 . S
H329 C312 0.929 . S
H330 C313 0.929 . S
H331 C314 0.931 . S
H332 C322 0.929 . S
H333 C323 0.929 . S
H334 C324 0.931 . S
H335 C325 0.929 . S
H336 C337 0.944 1_556 S
C337 H336 0.944 1_554 S
C337 C343 1.278 . S
H338 C343 0.950 . S
H339 C347 0.949 . S
H340 C348 0.950 . S
H341 C349 0.951 . S
H342 C350 0.951 . S
C343 C337 1.278 . S
C343 H338 0.950 . S
C343 C344 1.478 . S
C344 C343 1.478 . S
C344 C345 1.397 . S
C344 C361 1.394 1_554 S
C345 C344 1.397 . S
C345 C346 1.438 . S
C345 C350 1.429 . S
C346 C345 1.438 . S
C346 C347 1.428 . S
C346 C359 1.394 . S
C347 H339 0.949 . S
C347 C346 1.428 . S
C347 C348 1.345 . S
C348 H340 0.950 . S
C348 C347 1.345 . S
C348 C349 1.424 . S
C349 H341 0.951 . S
C349 C348 1.424 . S
C349 C350 1.347 . S
C350 H342 0.951 . S
C350 C345 1.429 . S
C350 C349 1.347 . S
H351 C352 0.951 . S
C352 H351 0.951 . S
C352 C358 1.278 . S
H353 C358 0.941 1_556 S
H354 C362 0.949 . S
H355 C363 0.950 . S
H356 C364 0.951 . S
H357 C365 0.951 . S
C358 C352 1.278 . S
C358 H353 0.941 1_554 S
C358 C359 1.473 . S
C359 C346 1.394 . S
C359 C358 1.473 . S
C359 C360 1.397 1_554 S
C360 C359 1.397 1_556 S
C360 C361 1.438 . S
C360 C365 1.429 . S
C361 C344 1.394 1_556 S
C361 C360 1.438 . S
C361 C362 1.428 . S
C362 H354 0.949 . S
C362 C361 1.428 . S
C362 C363 1.345 . S
C363 H355 0.950 . S
C363 C362 1.345 . S
C363 C364 1.424 . S
C364 H356 0.951 . S
C364 C363 1.424 . S
C364 C365 1.347 . S
C365 H357 0.951 . S
C365 C360 1.429 . S
C365 C364 1.347 . S
H366 C367 0.951 . S
C367 H366 0.951 . S
C367 C373 1.265 . S
H368 C373 0.950 . S
H369 C377 0.949 . S
H370 C378 0.950 . S
H371 C379 0.951 . S
H372 C380 0.951 . S
C373 C367 1.265 . S
C373 H368 0.950 . S
C373 C374 1.478 . S
C374 C373 1.478 . S
C374 C375 1.397 . S
C374 C391 1.394 . S
C375 C374 1.397 . S
C375 C376 1.438 . S
C375 C380 1.429 . S
C376 C375 1.438 . S
C376 C377 1.428 . S
C376 C389 1.394 . S
C377 H369 0.949 . S
C377 C376 1.428 . S
C377 C378 1.345 . S
C378 H370 0.950 . S
C378 C377 1.345 . S
C378 C379 1.424 . S
C379 H371 0.951 . S
C379 C378 1.424 . S
C379 C380 1.347 . S
C380 H372 0.951 . S
C380 C375 1.429 . S
C380 C379 1.347 . S
H381 C382 0.951 . S
C382 H381 0.951 . S
C382 C388 1.265 . S
H383 C388 0.950 . S
H384 C392 0.949 . S
H385 C393 0.950 . S
H386 C394 0.951 . S
H387 C395 0.951 . S
C388 C382 1.265 . S
C388 H383 0.950 . S
C388 C389 1.478 . S
C389 C376 1.394 . S
C389 C388 1.478 . S
C389 C390 1.397 . S
C390 C389 1.397 . S
C390 C391 1.438 . S
C390 C395 1.429 . S
C391 C374 1.394 . S
C391 C390 1.438 . S
C391 C392 1.428 . S
C392 H384 0.949 . S
C392 C391 1.428 . S
C392 C393 1.345 . S
C393 H385 0.950 . S
C393 C392 1.345 . S
C393 C394 1.424 . S
C394 H386 0.951 . S
C394 C393 1.424 . S
C394 C395 1.347 . S
C395 H387 0.951 . S
C395 C390 1.429 . S
C395 C394 1.347 . S
H396 C397 0.951 . S
C397 H396 0.951 . S
C397 C403 1.265 1_556 S
H398 C403 0.950 . S
H399 C407 0.949 . S
H400 C408 0.950 . S
H401 C409 0.951 . S
H402 C410 0.951 . S
C403 C397 1.265 1_554 S
C403 H398 0.950 . S
C403 C404 1.478 . S
C404 C403 1.478 . S
C404 C405 1.397 1_454 S
C404 C421 1.394 . S
C405 C404 1.397 1_656 S
C405 C406 1.438 1_545 S
C405 C410 1.429 . S
C406 C405 1.438 1_565 S
C406 C407 1.428 . S
C406 C419 1.394 1_556 S
C407 H399 0.949 . S
C407 C406 1.428 . S
C407 C408 1.345 . S
C408 H400 0.950 . S
C408 C407 1.345 . S
C408 C409 1.424 1_565 S
C409 H401 0.951 . S
C409 C408 1.424 1_545 S
C409 C410 1.347 . S
C410 H402 0.951 . S
C410 C405 1.429 . S
C410 C409 1.347 . S
H411 C412 0.951 . S
C412 H411 0.951 . S
C412 C418 1.269 . S
H413 C418 0.953 1_556 S
H414 C422 0.949 . S
H415 C423 0.950 . S
H416 C424 0.951 . S
H417 C425 0.951 . S
C418 C412 1.269 . S
C418 H413 0.953 1_554 S
C418 C419 1.472 . S
C419 C406 1.394 1_554 S
C419 C418 1.472 . S
C419 C420 1.397 1_655 S
C420 C419 1.397 1_455 S
C420 C421 1.438 1_565 S
C420 C425 1.429 . S
C421 C404 1.394 . S
C421 C420 1.438 1_545 S
C421 C422 1.428 . S
C422 H414 0.949 . S
C422 C421 1.428 . S
C422 C423 1.345 . S
C423 H415 0.950 . S
C423 C422 1.345 . S
C423 C424 1.424 1_545 S
C424 H416 0.951 . S
C424 C423 1.424 1_565 S
C424 C425 1.347 . S
C425 H417 0.951 . S
C425 C420 1.429 . S
C425 C424 1.347 . S
H426 C427 0.951 . S
C427 H426 0.951 . S
C427 C433 1.265 . S
H428 C433 0.950 . S
H429 C437 0.949 . S
H430 C438 0.950 . S
H431 C439 0.951 . S
H432 C440 0.951 . S
C433 C427 1.265 . S
C433 H428 0.950 . S
C433 C434 1.478 . S
C434 C433 1.478 . S
C434 C435 1.397 1_545 S
C434 C451 1.394 . S
C435 C434 1.397 1_565 S
C435 C436 1.438 1_655 S
C435 C440 1.429 . S
C436 C435 1.438 1_455 S
C436 C437 1.428 . S
C436 C449 1.394 . S
C437 H429 0.949 . S
C437 C436 1.428 . S
C437 C438 1.345 1_455 S
C438 H430 0.950 . S
C438 C437 1.345 1_655 S
C438 C439 1.424 . S
C439 H431 0.951 . S
C439 C438 1.424 . S
C439 C440 1.347 . S
C440 H432 0.951 . S
C440 C435 1.429 . S
C440 C439 1.347 . S
H441 C442 0.951 . S
C442 H441 0.951 . S
C442 C448 1.265 . S
H443 C448 0.950 . S
H444 C452 0.949 . S
H445 C453 0.950 . S
H446 C454 0.951 . S
H447 C455 0.951 . S
C448 C442 1.265 . S
C448 H443 0.950 . S
C448 C449 1.478 . S
C449 C436 1.394 . S
C449 C448 1.478 . S
C449 C450 1.397 1_565 S
C450 C449 1.397 1_545 S
C450 C451 1.438 1_455 S
C450 C455 1.429 . S
C451 C434 1.394 . S
C451 C450 1.438 1_655 S
C451 C452 1.428 . S
C452 H444 0.949 . S
C452 C451 1.428 . S
C452 C453 1.345 1_655 S
C453 H445 0.950 . S
C453 C452 1.345 1_455 S
C453 C454 1.424 . S
C454 H446 0.951 . S
C454 C453 1.424 . S
C454 C455 1.347 . S
C455 H447 0.951 . S
C455 C450 1.429 . S
C455 C454 1.347 . S
H456 C457 0.951 . S
C457 H456 0.951 . S
C457 C463 1.265 . S
H458 C463 0.950 . S
H459 C467 0.949 . S
H460 C468 0.950 . S
H461 C469 0.951 . S
H462 C470 0.951 . S
C463 C457 1.265 . S
C463 H458 0.950 . S
C463 C464 1.478 . S
C464 C463 1.478 . S
C464 C465 1.397 . S
C464 C481 1.394 . S
C465 C464 1.397 . S
C465 C466 1.438 . S
C465 C470 1.429 . S
C466 C465 1.438 . S
C466 C467 1.428 . S
C466 C479 1.394 . S
C467 H459 0.949 . S
C467 C466 1.428 . S
C467 C468 1.345 . S
C468 H460 0.950 . S
C468 C467 1.345 . S
C468 C469 1.424 . S
C469 H461 0.951 . S
C469 C468 1.424 . S
C469 C470 1.347 . S
C470 H462 0.951 . S
C470 C465 1.429 . S
C470 C469 1.347 . S
H471 C472 0.951 . S
C472 H471 0.951 . S
C472 C478 1.265 . S
H473 C478 0.950 . S
H474 C482 0.949 . S
H475 C483 0.950 . S
H476 C484 0.951 . S
H477 C485 0.951 . S
C478 C472 1.265 . S
C478 H473 0.950 . S
C478 C479 1.478 . S
C479 C466 1.394 . S
C479 C478 1.478 . S
C479 C480 1.397 . S
C480 C479 1.397 . S
C480 C481 1.438 . S
C480 C485 1.429 . S
C481 C464 1.394 . S
C481 C480 1.438 . S
C481 C482 1.428 . S
C482 H474 0.949 . S
C482 C481 1.428 . S
C482 C483 1.345 . S
C483 H475 0.950 . S
C483 C482 1.345 . S
C483 C484 1.424 . S
C484 H476 0.951 . S
C484 C483 1.424 . S
C484 C485 1.347 . S
C485 H477 0.951 . S
C485 C480 1.429 . S
C485 C484 1.347 . S
H486 C487 0.951 . S
C487 H486 0.951 . S
C487 C493 1.265 . S
H488 C493 0.950 . S
H489 C497 0.949 . S
H490 C498 0.950 . S
H491 C499 0.951 . S
H492 C500 0.951 . S
C493 C487 1.265 . S
C493 H488 0.950 . S
C493 C494 1.478 . S
C494 C493 1.478 . S
C494 C495 1.397 . S
C494 C511 1.394 . S
C495 C494 1.397 . S
C495 C496 1.438 . S
C495 C500 1.429 . S
C496 C495 1.438 . S
C496 C497 1.428 . S
C496 C509 1.394 . S
C497 H489 0.949 . S
C497 C496 1.428 . S
C497 C498 1.345 . S
C498 H490 0.950 . S
C498 C497 1.345 . S
C498 C499 1.424 . S
C499 H491 0.951 . S
C499 C498 1.424 . S
C499 C500 1.347 . S
C500 H492 0.951 . S
C500 C495 1.429 . S
C500 C499 1.347 . S
H501 C502 0.951 . S
C502 H501 0.951 . S
C502 C508 1.265 . S
H503 C508 0.950 . S
H504 C512 0.949 . S
H505 C513 0.950 . S
H506 C514 0.951 . S
H507 C515 0.951 . S
C508 C502 1.265 . S
C508 H503 0.950 . S
C508 C509 1.478 . S
C509 C496 1.394 . S
C509 C508 1.478 . S
C509 C510 1.397 . S
C510 C509 1.397 . S
C510 C511 1.438 . S
C510 C515 1.429 . S
C511 C494 1.394 . S
C511 C510 1.438 . S
C511 C512 1.428 . S
C512 H504 0.949 . S
C512 C511 1.428 . S
C512 C513 1.345 . S
C513 H505 0.950 . S
C513 C512 1.345 . S
C513 C514 1.424 . S
C514 H506 0.951 . S
C514 C513 1.424 . S
C514 C515 1.347 . S
C515 H507 0.951 . S
C515 C510 1.429 . S
C515 C514 1.347 . S
H516 C517 0.951 . S
C517 H516 0.951 . S
C517 C523 1.265 . S
H518 C523 0.950 . S
H519 C527 0.949 . S
H520 C528 0.950 . S
H521 C529 0.951 . S
H522 C530 0.951 . S
C523 C517 1.265 . S
C523 H518 0.950 . S
C523 C524 1.478 . S
C524 C523 1.478 . S
C524 C525 1.397 . S
C524 C541 1.394 . S
C525 C524 1.397 . S
C525 C526 1.438 . S
C525 C530 1.429 . S
C526 C525 1.438 . S
C526 C527 1.428 . S
C526 C539 1.394 . S
C527 H519 0.949 . S
C527 C526 1.428 . S
C527 C528 1.345 . S
C528 H520 0.950 . S
C528 C527 1.345 . S
C528 C529 1.424 . S
C529 H521 0.951 . S
C529 C528 1.424 . S
C529 C530 1.347 . S
C530 H522 0.951 . S
C530 C525 1.429 . S
C530 C529 1.347 . S
H531 C532 0.951 . S
C532 H531 0.951 . S
C532 C538 1.265 . S
H533 C538 0.950 . S
H534 C542 0.949 . S
H535 C543 0.950 . S
H536 C544 0.951 . S
H537 C545 0.951 . S
C538 C532 1.265 . S
C538 H533 0.950 . S
C538 C539 1.478 . S
C539 C526 1.394 . S
C539 C538 1.478 . S
C539 C540 1.397 . S
C540 C539 1.397 . S
C540 C541 1.438 . S
C540 C545 1.429 . S
C541 C524 1.394 . S
C541 C540 1.438 . S
C541 C542 1.428 . S
C542 H534 0.949 . S
C542 C541 1.428 . S
C542 C543 1.345 . S
C543 H535 0.950 . S
C543 C542 1.345 . S
C543 C544 1.424 . S
C544 H536 0.951 . S
C544 C543 1.424 . S
C544 C545 1.347 . S
C545 H537 0.951 . S
C545 C540 1.429 . S
C545 C544 1.347 . S
H546 C547 0.951 . S
C547 H546 0.951 . S
C547 C553 1.265 . S
H548 C553 0.950 . S
H549 C557 0.949 . S
H550 C558 0.950 . S
H551 C559 0.951 . S
H552 C560 0.951 . S
C553 C547 1.265 . S
C553 H548 0.950 . S
C553 C554 1.478 . S
C554 C553 1.478 . S
C554 C555 1.397 . S
C554 C571 1.394 . S
C555 C554 1.397 . S
C555 C556 1.438 . S
C555 C560 1.429 . S
C556 C555 1.438 . S
C556 C557 1.428 . S
C556 C569 1.394 . S
C557 H549 0.949 . S
C557 C556 1.428 . S
C557 C558 1.345 . S
C558 H550 0.950 . S
C558 C557 1.345 . S
C558 C559 1.424 . S
C559 H551 0.951 . S
C559 C558 1.424 . S
C559 C560 1.347 . S
C560 H552 0.951 . S
C560 C555 1.429 . S
C560 C559 1.347 . S
H561 C562 0.951 . S
C562 H561 0.951 . S
C562 C568 1.265 . S
H563 C568 0.950 . S
H564 C572 0.949 . S
H565 C573 0.950 . S
H566 C574 0.951 . S
H567 C575 0.951 . S
C568 C562 1.265 . S
C568 H563 0.950 . S
C568 C569 1.478 . S
C569 C556 1.394 . S
C569 C568 1.478 . S
C569 C570 1.397 . S
C570 C569 1.397 . S
C570 C571 1.438 . S
C570 C575 1.429 . S
C571 C554 1.394 . S
C571 C570 1.438 . S
C571 C572 1.428 . S
C572 H564 0.949 . S
C572 C571 1.428 . S
C572 C573 1.345 . S
C573 H565 0.950 . S
C573 C572 1.345 . S
C573 C574 1.424 . S
C574 H566 0.951 . S
C574 C573 1.424 . S
C574 C575 1.347 . S
C575 H567 0.951 . S
C575 C570 1.429 . S
C575 C574 1.347 . S
H576 C577 0.951 . S
C577 H576 0.951 . S
C577 C583 1.265 . S
H578 C583 0.950 . S
H579 C587 0.949 . S
H580 C588 0.950 . S
H581 C589 0.951 . S
H582 C590 0.951 . S
C583 C577 1.265 . S
C583 H578 0.950 . S
C583 C584 1.478 . S
C584 C583 1.478 . S
C584 C585 1.397 . S
C584 C601 1.394 . S
C585 C584 1.397 . S
C585 C586 1.438 . S
C585 C590 1.429 . S
C586 C585 1.438 . S
C586 C587 1.428 . S
C586 C599 1.394 . S
C587 H579 0.949 . S
C587 C586 1.428 . S
C587 C588 1.345 . S
C588 H580 0.950 . S
C588 C587 1.345 . S
C588 C589 1.424 . S
C589 H581 0.951 . S
C589 C588 1.424 . S
C589 C590 1.347 . S
C590 H582 0.951 . S
C590 C585 1.429 . S
C590 C589 1.347 . S
H591 C592 0.939 1_655 S
C592 H591 0.939 1_455 S
C592 C598 1.268 . S
H593 C598 0.950 . S
H594 C602 0.949 . S
H595 C603 0.950 . S
H596 C604 0.951 . S
H597 C605 0.951 1_455 S
C598 C592 1.268 . S
C598 H593 0.950 . S
C598 C599 1.478 1_455 S
C599 C586 1.394 . S
C599 C598 1.478 1_655 S
C599 C600 1.397 . S
C600 C599 1.397 . S
C600 C601 1.438 . S
C600 C605 1.429 . S
C601 C584 1.394 . S
C601 C600 1.438 . S
C601 C602 1.428 . S
C602 H594 0.949 . S
C602 C601 1.428 . S
C602 C603 1.345 . S
C603 H595 0.950 . S
C603 C602 1.345 . S
C603 C604 1.424 . S
C604 H596 0.951 . S
C604 C603 1.424 . S
C604 C605 1.347 . S
C605 H597 0.951 1_655 S
C605 C600 1.429 . S
C605 C604 1.347 . S
H606 C607 0.951 . S
C607 H606 0.951 . S
C607 C613 1.265 . S
H608 C613 0.950 . S
H609 C617 0.949 . S
H610 C618 0.950 . S
H611 C619 0.951 . S
H612 C620 0.951 . S
C613 C607 1.265 . S
C613 H608 0.950 . S
C613 C614 1.478 . S
C614 C613 1.478 . S
C614 C615 1.397 . S
C614 C631 1.394 . S
C615 C614 1.397 . S
C615 C616 1.438 . S
C615 C620 1.429 . S
C616 C615 1.438 . S
C616 C617 1.428 . S
C616 C629 1.394 . S
C617 H609 0.949 . S
C617 C616 1.428 . S
C617 C618 1.345 . S
C618 H610 0.950 . S
C618 C617 1.345 . S
C618 C619 1.424 . S
C619 H611 0.951 . S
C619 C618 1.424 . S
C619 C620 1.347 . S
C620 H612 0.951 . S
C620 C615 1.429 . S
C620 C619 1.347 . S
H621 C622 0.951 . S
C622 H621 0.951 . S
C622 C628 1.265 1_455 S
H623 C628 0.950 . S
H624 C632 0.949 . S
H625 C633 0.950 . S
H626 C634 0.951 . S
H627 C635 0.951 . S
C628 C622 1.265 1_655 S
C628 H623 0.950 . S
C628 C629 1.478 . S
C629 C616 1.394 . S
C629 C628 1.478 . S
C629 C630 1.397 . S
C630 C629 1.397 . S
C630 C631 1.438 . S
C630 C635 1.429 . S
C631 C614 1.394 . S
C631 C630 1.438 . S
C631 C632 1.428 . S
C632 H624 0.949 . S
C632 C631 1.428 . S
C632 C633 1.345 . S
C633 H625 0.950 . S
C633 C632 1.345 . S
C633 C634 1.424 . S
C634 H626 0.951 . S
C634 C633 1.424 . S
C634 C635 1.347 . S
C635 H627 0.951 . S
C635 C630 1.429 . S
C635 C634 1.347 . S
H636 C637 0.942 1_455 S
C637 H636 0.942 1_655 S
C637 C643 1.267 . S
H638 C643 0.950 . S
H639 C647 0.949 . S
H640 C648 0.950 . S
H641 C649 0.951 1_655 S
H642 C650 0.950 . S
C643 C637 1.267 . S
C643 H638 0.950 . S
C643 C644 1.478 1_655 S
C644 C643 1.478 1_455 S
C644 C645 1.397 . S
C644 C661 1.394 . S
C645 C644 1.397 . S
C645 C646 1.438 . S
C645 C650 1.430 1_455 S
C646 C645 1.438 . S
C646 C647 1.428 . S
C646 C659 1.394 . S
C647 H639 0.949 . S
C647 C646 1.428 . S
C647 C648 1.345 . S
C648 H640 0.950 . S
C648 C647 1.345 . S
C648 C649 1.424 . S
C649 H641 0.951 1_455 S
C649 C648 1.424 . S
C649 C650 1.347 1_455 S
C650 H642 0.950 . S
C650 C645 1.430 1_655 S
C650 C649 1.347 1_655 S
H651 C652 0.951 . S
C652 H651 0.951 . S
C652 C658 1.265 . S
H653 C658 0.950 . S
H654 C662 0.949 . S
H655 C663 0.950 . S
H656 C664 0.951 . S
H657 C665 0.951 . S
C658 C652 1.265 . S
C658 H653 0.950 . S
C658 C659 1.478 . S
C659 C646 1.394 . S
C659 C658 1.478 . S
C659 C660 1.397 . S
C660 C659 1.397 . S
C660 C661 1.438 . S
C660 C665 1.429 . S
C661 C644 1.394 . S
C661 C660 1.438 . S
C661 C662 1.428 . S
C662 H654 0.949 . S
C662 C661 1.428 . S
C662 C663 1.345 . S
C663 H655 0.950 . S
C663 C662 1.345 . S
C663 C664 1.424 . S
C664 H656 0.951 . S
C664 C663 1.424 . S
C664 C665 1.347 . S
C665 H657 0.951 . S
C665 C660 1.429 . S
C665 C664 1.347 . S
H666 C667 0.951 . S
C667 H666 0.951 . S
C667 C673 1.265 . S
H668 C673 0.950 . S
H669 C677 0.950 . S
H670 C678 0.950 1_655 S
H671 C679 0.951 . S
H672 C680 0.951 . S
C673 C667 1.265 . S
C673 H668 0.950 . S
C673 C674 1.478 . S
C674 C673 1.478 . S
C674 C675 1.397 . S
C674 C691 1.394 . S
C675 C674 1.397 . S
C675 C676 1.438 . S
C675 C680 1.429 . S
C676 C675 1.438 . S
C676 C677 1.427 1_455 S
C676 C689 1.394 . S
C677 H669 0.950 . S
C677 C676 1.427 1_655 S
C677 C678 1.345 1_655 S
C678 H670 0.950 1_455 S
C678 C677 1.345 1_455 S
C678 C679 1.424 . S
C679 H671 0.951 . S
C679 C678 1.424 . S
C679 C680 1.347 . S
C680 H672 0.951 . S
C680 C675 1.429 . S
C680 C679 1.347 . S
H681 C682 0.951 1_455 S
C682 H681 0.951 1_655 S
C682 C688 1.265 . S
H683 C688 0.950 . S
H684 C692 0.949 . S
H685 C693 0.950 . S
H686 C694 0.951 . S
H687 C695 0.951 . S
C688 C682 1.265 . S
C688 H683 0.950 . S
C688 C689 1.478 1_655 S
C689 C676 1.394 . S
C689 C688 1.478 1_455 S
C689 C690 1.397 . S
C690 C689 1.397 . S
C690 C691 1.438 . S
C690 C695 1.429 . S
C691 C674 1.394 . S
C691 C690 1.438 . S
C691 C692 1.428 . S
C692 H684 0.949 . S
C692 C691 1.428 . S
C692 C693 1.345 . S
C693 H685 0.950 . S
C693 C692 1.345 . S
C693 C694 1.424 . S
C694 H686 0.951 . S
C694 C693 1.424 . S
C694 C695 1.347 . S
C695 H687 0.951 . S
C695 C690 1.429 . S
C695 C694 1.347 . S
C337 C158 1.476 1_554 S
C352 C63 1.487 . S
C367 C231 1.495 . S
C382 C326 1.495 . S
C397 C74 1.504 . S
C412 C147 1.504 . S
C427 C315 1.481 . S
C442 C242 1.481 . S
C457 C321 1.179 . S
C472 C56 1.279 . S
C487 C153 1.278 . S
C502 C224 1.310 . S
C517 C151 1.319 . S
C532 C226 1.240 . S
C547 C319 1.318 . S
C562 C58 1.247 . S
C577 C140 1.320 . S
C592 C237 1.237 . S
C607 C308 1.274 . S
C622 C69 1.211 . S
C637 C310 1.244 . S
C652 C67 1.319 . S
C667 C235 1.309 . S
C682 C142 1.281 . S
