# Generated by pormake.
# Topology uov, (4)-cn, num edge types: 1
# Building blocks:
#     Node 0, Type 0, BuildingBlock: AZAVOO_clean_sbu_0, # of connection points: 4
#     Node 1, Type 0, BuildingBlock: AZAVOO_clean_sbu_0, # of connection points: 4
#     Node 2, Type 0, BuildingBlock: AZAVOO_clean_sbu_0, # of connection points: 4
#     Node 3, Type 0, BuildingBlock: AZAVOO_clean_sbu_0, # of connection points: 4
#     Node 4, Type 0, BuildingBlock: AZAVOO_clean_sbu_0, # of connection points: 4
#     Node 5, Type 0, BuildingBlock: AZAVOO_clean_sbu_0, # of connection points: 4
#     Node 6, Type 0, BuildingBlock: AZAVOO_clean_sbu_0, # of connection points: 4
#     Node 7, Type 0, BuildingBlock: AZAVOO_clean_sbu_0, # of connection points: 4
#     Edge 8, Type (0, 0), BuildingBlock: AJUNOK_clean_linker_0, # of connection points: 2
#     Edge 9, Type (0, 0), BuildingBlock: AJUNOK_clean_linker_0, # of connection points: 2
#     Edge 10, Type (0, 0), BuildingBlock: AJUNOK_clean_linker_0, # of connection points: 2
#     Edge 11, Type (0, 0), BuildingBlock: AJUNOK_clean_linker_0, # of connection points: 2
#     Edge 12, Type (0, 0), BuildingBlock: AJUNOK_clean_linker_0, # of connection points: 2
#     Edge 13, Type (0, 0), BuildingBlock: AJUNOK_clean_linker_0, # of connection points: 2
#     Edge 14, Type (0, 0), BuildingBlock: AJUNOK_clean_linker_0, # of connection points: 2
#     Edge 15, Type (0, 0), BuildingBlock: AJUNOK_clean_linker_0, # of connection points: 2
#     Edge 16, Type (0, 0), BuildingBlock: AJUNOK_clean_linker_0, # of connection points: 2
#     Edge 17, Type (0, 0), BuildingBlock: AJUNOK_clean_linker_0, # of connection points: 2
#     Edge 18, Type (0, 0), BuildingBlock: AJUNOK_clean_linker_0, # of connection points: 2
#     Edge 19, Type (0, 0), BuildingBlock: AJUNOK_clean_linker_0, # of connection points: 2
#     Edge 20, Type (0, 0), BuildingBlock: AJUNOK_clean_linker_0, # of connection points: 2
#     Edge 21, Type (0, 0), BuildingBlock: AJUNOK_clean_linker_0, # of connection points: 2
#     Edge 22, Type (0, 0), BuildingBlock: AJUNOK_clean_linker_0, # of connection points: 2
#     Edge 23, Type (0, 0), BuildingBlock: AJUNOK_clean_linker_0, # of connection points: 2
# Relax obj value: 0.228
# Max RMSD: 0.250
# Mean RMSD: 0.232
data_MOF--net-uov--node1-AZAVOO_clean_sbu_0--edge1-AJUNOK_clean_linker_0
_symmetry_space_group_name_H-M    P1
_symmetry_Int_Tables_number       1
_symmetry_cell_setting            triclinic
loop_
_symmetry_equiv_pos_as_xyz
'x, y, z'
_cell_length_a     22.245741
_cell_length_b     21.792469
_cell_length_c     31.661569
_cell_angle_alpha  89.950466
_cell_angle_beta   89.654836
_cell_angle_gamma 93.317778
loop_
_atom_site_label
_atom_site_type_symbol
_atom_site_fract_x
_atom_site_fract_y
_atom_site_fract_z
_atom_type_partial_charge
Mg0 Mg 0.95453 0.22274 0.62996 0.0
O1 O 0.0162 0.20498 0.57282 0.0
O2 O 0.96739 0.23268 0.51459 0.0
Mg3 Mg 0.87766 0.26876 0.53374 0.0
C4 C 0.01296 0.21188 0.5328 0.0
C5 C 0.05484 0.15707 0.6794 0.0
O6 O 0.03869 0.11284 0.65292 0.0
O7 O 0.97829 0.32577 0.62523 0.0
O8 O 0.92924 0.34891 0.56645 0.0
O9 O 0.91296 0.12922 0.62293 0.0
O10 O 0.87961 0.21009 0.5903 0.0
C11 C 0.96271 0.36448 0.5977 0.0
C12 C 0.87794 0.15115 0.59488 0.0
O13 O 0.03074 0.20847 0.67627 0.0
Mg14 Mg 0.2422 0.04433 0.37696 0.0
O15 O 0.23131 -0.00334 0.44174 0.0
O16 O 0.25124 0.06631 0.49267 0.0
Mg17 Mg 0.29086 0.15204 0.45993 0.0
C18 C 0.23404 0.01232 0.48062 0.0
C19 C 0.24298 0.94052 0.30759 0.0
O20 O 0.27481 0.98316 0.28653 0.0
O21 O 0.34183 0.03406 0.38 0.0
O22 O 0.3679 0.09476 0.4345 0.0
O23 O 0.15006 0.07194 0.38432 0.0
O24 O 0.22971 0.12809 0.4073 0.0
C25 C 0.38081 0.05614 0.40592 0.0
C26 C 0.17209 0.1159 0.40803 0.0
O27 O 0.22685 0.95164 0.34519 0.0
Mg28 Mg 0.04244 0.76303 0.63049 0.0
O29 O 0.98395 0.77412 0.5711 0.0
O30 O 0.03973 0.75153 0.51482 0.0
Mg31 Mg 0.13043 0.72241 0.53741 0.0
C32 C 0.99069 0.76819 0.53115 0.0
C33 C 0.93323 0.82217 0.67477 0.0
O34 O 0.94562 0.86382 0.6455 0.0
O35 O 0.02589 0.659 0.62609 0.0
O36 O 0.08117 0.63922 0.56903 0.0
O37 O 0.07914 0.85889 0.62406 0.0
O38 O 0.12017 0.78031 0.59356 0.0
C39 C 0.04619 0.6215 0.59932 0.0
C40 C 0.1188 0.83905 0.59816 0.0
O41 O 0.96196 0.77324 0.67457 0.0
Mg42 Mg 0.7459 0.92545 0.3792 0.0
O43 O 0.76787 0.98678 0.43743 0.0
O44 O 0.73488 0.93237 0.4943 0.0
Mg45 Mg 0.68503 0.84458 0.47248 0.0
C46 C 0.76142 0.97984 0.47743 0.0
C47 C 0.76671 0.9905 0.29381 0.0
O48 O 0.74803 0.93444 0.28293 0.0
O49 O 0.6495 0.95258 0.38287 0.0
O50 O 0.61655 0.90524 0.44173 0.0
O51 O 0.83303 0.88439 0.38617 0.0
O52 O 0.75118 0.84903 0.42004 0.0
C53 C 0.60864 0.94063 0.41042 0.0
C54 C 0.80916 0.84918 0.41538 0.0
O55 O 0.76894 0.0038 0.33289 0.0
Mg56 Mg 0.00606 0.22895 0.14149 0.0
O57 O 0.96061 0.20467 0.07729 0.0
O58 O 0.02155 0.23888 0.02514 0.0
Mg59 Mg 0.10351 0.28933 0.05505 0.0
C60 C 0.97272 0.21109 0.03792 0.0
C61 C 0.89982 0.142 0.17022 0.0
O62 O 0.92349 0.11145 0.13909 0.0
O63 O 0.9809 0.3288 0.13575 0.0
O64 O 0.04339 0.36012 0.08307 0.0
O65 O 0.05718 0.14387 0.13734 0.0
O66 O 0.09 0.23477 0.11284 0.0
C67 C 0.00297 0.37026 0.11055 0.0
C68 C 0.09768 0.17714 0.11685 0.0
O69 O 0.92087 0.19641 0.17769 0.0
Mg70 Mg 0.25845 0.05609 0.9091 0.0
O71 O 0.19409 0.97211 0.92887 0.0
O72 O 0.10635 0.01356 0.94389 0.0
Mg73 Mg 0.11399 0.11799 0.93869 0.0
C74 C 0.13871 0.96722 0.94075 0.0
C75 C 0.3614 0.97094 0.90963 0.0
O76 O 0.33336 0.95814 0.94549 0.0
O77 O 0.21118 0.06766 0.84507 0.0
O78 O 0.12996 0.11466 0.86754 0.0
O79 O 0.28605 0.06471 0.97686 0.0
O80 O 0.20988 0.11057 0.94841 0.0
C81 C 0.16339 0.09584 0.83793 0.0
C82 C 0.23933 0.09654 0.98144 0.0
O83 O 0.33398 0.0007 0.8819 0.0
Mg84 Mg 0.98167 0.76756 0.15112 0.0
O85 O 0.02362 0.79225 0.08578 0.0
O86 O 0.954 0.77345 0.03642 0.0
Mg87 Mg 0.87011 0.72953 0.06942 0.0
C88 C 0.00685 0.79311 0.04726 0.0
C89 C 0.08228 0.77147 0.2186 0.0
O90 O 0.03784 0.74347 0.2399 0.0
O91 O 0.99069 0.66516 0.14059 0.0
O92 O 0.92074 0.64694 0.09082 0.0
O93 O 0.94604 0.86095 0.15169 0.0
O94 O 0.89579 0.77724 0.12825 0.0
C95 C 0.96097 0.62872 0.11573 0.0
C96 C 0.89993 0.836 0.13208 0.0
O97 O 0.07449 0.78298 0.17977 0.0
Mg98 Mg 0.74466 0.92917 0.91144 0.0
O99 O 0.79481 0.0246 0.92221 0.0
O100 O 0.89213 0.00312 0.9271 0.0
Mg101 Mg 0.90246 0.89996 0.93147 0.0
C102 C 0.85065 0.04126 0.9272 0.0
C103 C 0.62374 0.98865 0.91348 0.0
O104 O 0.64822 0.00482 0.94974 0.0
O105 O 0.7855 0.91707 0.84469 0.0
O106 O 0.87592 0.88623 0.86283 0.0
O107 O 0.72578 0.92527 0.98104 0.0
O108 O 0.80853 0.89425 0.95123 0.0
C109 C 0.83584 0.89493 0.83522 0.0
C110 C 0.7795 0.9069 0.98509 0.0
O111 O 0.65651 0.96445 0.88576 0.0
C112 C 0.01883 0.52328 0.5628 0.0
C113 C 0.02584 0.55583 0.60093 0.0
C114 C 0.99862 0.46145 0.56239 0.0
C115 C 0.98577 0.42922 0.60014 0.0
H116 H 0.02796 0.54605 0.5328 0.0
H117 H 0.99334 0.4386 0.53214 0.0
S118 S 0.99844 0.4926 0.70856 0.0
N119 N 0.01896 0.55128 0.67757 0.0
N120 N 0.98229 0.43385 0.67683 0.0
C121 C 0.99361 0.46067 0.63864 0.0
C122 C 0.01311 0.52434 0.63902 0.0
C123 C 0.5238 0.99076 0.44522 0.0
C124 C 0.55165 0.97174 0.40784 0.0
C125 C 0.46982 0.02062 0.44408 0.0
C126 C 0.44105 0.03125 0.40558 0.0
H127 H 0.54403 0.98278 0.47563 0.0
H128 H 0.44948 0.0336 0.47369 0.0
S129 S 0.49607 0.99144 0.2988 0.0
N130 N 0.54765 0.96728 0.3312 0.0
N131 N 0.44484 0.02169 0.3291 0.0
C132 C 0.46864 0.01294 0.36793 0.0
C133 C 0.52437 0.98371 0.36904 0.0
C134 C 0.97326 0.46623 0.07704 0.0
C135 C 0.98523 0.43382 0.11409 0.0
C136 C 0.96547 0.52933 0.07806 0.0
C137 C 0.9711 0.56257 0.116 0.0
H138 H 0.97081 0.4427 0.04689 0.0
H139 H 0.95624 0.55252 0.04871 0.0
S140 S 0.00155 0.49863 0.22181 0.0
N141 N 0.00125 0.43868 0.18986 0.0
N142 N 0.98794 0.55824 0.19177 0.0
C143 C 0.98266 0.53063 0.15341 0.0
C144 C 0.98923 0.4659 0.15247 0.0
C145 C 0.45989 0.9695 0.9464 0.0
C146 C 0.42818 0.97006 0.90809 0.0
C147 C 0.52267 0.97692 0.9474 0.0
C148 C 0.55708 0.98396 0.91011 0.0
H149 H 0.43609 0.96523 0.9763 0.0
H150 H 0.54437 0.97644 0.97793 0.0
S151 S 0.4968 0.98545 0.80117 0.0
N152 N 0.4362 0.97705 0.83155 0.0
N153 N 0.55503 0.98874 0.83344 0.0
C154 C 0.5264 0.9828 0.87135 0.0
C155 C 0.46188 0.97648 0.87035 0.0
C156 C 0.14061 0.20193 0.45419 0.0
C157 C 0.13421 0.13993 0.44189 0.0
C158 C 0.10254 0.22519 0.48517 0.0
C159 C 0.05875 0.18648 0.50559 0.0
H160 H 0.17369 0.23293 0.43878 0.0
H161 H 0.10646 0.27378 0.49257 0.0
S162 S 0.02765 0.0199 0.48786 0.0
N163 N 0.08269 0.03972 0.45443 0.0
N164 N 0.01283 0.08346 0.51327 0.0
C165 C 0.05376 0.12413 0.49496 0.0
C166 C 0.09122 0.10075 0.46295 0.0
C167 C 0.1688 0.9874 0.54265 0.0
C168 C 0.21034 0.96837 0.51257 0.0
C169 C 0.14084 0.94539 0.57095 0.0
C170 C 0.15432 0.88299 0.57075 0.0
H171 H 0.15592 0.03461 0.54319 0.0
H172 H 0.10722 0.9619 0.59235 0.0
S173 S 0.2688 0.81348 0.5027 0.0
N174 N 0.26825 0.88541 0.48634 0.0
N175 N 0.21903 0.80685 0.54159 0.0
C176 C 0.19912 0.86454 0.54258 0.0
C177 C 0.22623 0.90713 0.5129 0.0
C178 C 0.9096 0.81085 0.43122 0.0
C179 C 0.85025 0.81898 0.44493 0.0
C180 C 0.95392 0.79298 0.45906 0.0
C181 C 0.94122 0.78284 0.50218 0.0
H182 H 0.92268 0.82012 0.39871 0.0
H183 H 0.99907 0.7891 0.44671 0.0
S184 S 0.79195 0.79132 0.554 0.0
N185 N 0.78042 0.80996 0.50431 0.0
N186 N 0.86394 0.77757 0.55685 0.0
C187 C 0.88163 0.78804 0.51617 0.0
C188 C 0.83609 0.80556 0.48751 0.0
C189 C 0.83078 0.00525 0.53619 0.0
C190 C 0.79033 0.0252 0.50602 0.0
C191 C 0.85802 0.04637 0.56504 0.0
C192 C 0.84507 0.1089 0.56524 0.0
H193 H 0.84196 0.95749 0.53719 0.0
H194 H 0.88994 0.02883 0.58706 0.0
S195 S 0.73613 0.18165 0.4952 0.0
N196 N 0.73565 0.10964 0.4789 0.0
N197 N 0.78436 0.18707 0.53468 0.0
C198 C 0.80288 0.12883 0.53594 0.0
C199 C 0.77618 0.08694 0.50585 0.0
C200 C 0.92255 0.13164 0.93618 0.0
C201 C 0.86778 0.10056 0.94769 0.0
C202 C 0.95385 0.17112 0.96452 0.0
C203 C 0.93232 0.18003 0.00597 0.0
H204 H 0.94384 0.12139 0.90633 0.0
H205 H 0.99749 0.19099 0.95476 0.0
S206 S 0.78744 0.11415 0.04995 0.0
N207 N 0.79027 0.08586 0.00167 0.0
N208 N 0.84913 0.15929 0.05521 0.0
C209 C 0.87513 0.15302 0.01661 0.0
C210 C 0.8428 0.11366 0.98737 0.0
C211 C 0.16661 0.07166 0.03896 0.0
C212 C 0.21488 0.10934 0.02307 0.0
C213 C 0.1316 0.09129 0.07267 0.0
C214 C 0.14384 0.14942 0.09089 0.0
H215 H 0.15355 0.02862 0.0236 0.0
H216 H 0.09207 0.06307 0.08207 0.0
S217 S 0.2717 0.25999 0.06459 0.0
N218 N 0.27783 0.2031 0.03067 0.0
N219 N 0.21267 0.24028 0.09456 0.0
C220 C 0.19548 0.18476 0.07763 0.0
C221 C 0.23089 0.16467 0.04338 0.0
C222 C 0.02082 0.84805 0.97797 0.0
C223 C 0.04647 0.8257 0.01514 0.0
C224 C 0.05309 0.8899 0.9514 0.0
C225 C 0.11304 0.90954 0.96006 0.0
H226 H 0.974 0.83664 0.97084 0.0
H227 H 0.0298 0.90988 0.92524 0.0
S228 S 0.20418 0.85899 0.04991 0.0
N229 N 0.1378 0.82226 0.05686 0.0
N230 N 0.1987 0.89956 0.00616 0.0
C231 C 0.14103 0.8836 0.99495 0.0
C232 C 0.10774 0.84202 0.02266 0.0
C233 C 0.77566 0.8652 0.05782 0.0
C234 C 0.80637 0.90135 0.02704 0.0
C235 C 0.80435 0.84985 0.09524 0.0
C236 C 0.86399 0.87143 0.10328 0.0
H237 H 0.73099 0.84489 0.05158 0.0
H238 H 0.7815 0.817 0.11645 0.0
S239 S 0.95831 0.97929 0.0368 0.0
N240 N 0.89544 0.96659 0.00993 0.0
N241 N 0.94917 0.93864 0.08065 0.0
C242 C 0.89246 0.91341 0.07497 0.0
C243 C 0.86372 0.92792 0.03649 0.0
C244 C 0.10842 0.08327 0.72506 0.0
C245 C 0.09274 0.14397 0.71654 0.0
C246 C 0.13538 0.06794 0.76346 0.0
C247 C 0.14719 0.11279 0.79455 0.0
H248 H 0.09726 0.04666 0.70284 0.0
H249 H 0.14374 0.02033 0.76979 0.0
S250 S 0.12415 0.27944 0.78579 0.0
N251 N 0.09849 0.25015 0.74088 0.0
N252 N 0.14789 0.22091 0.8129 0.0
C253 C 0.13561 0.17403 0.78538 0.0
C254 C 0.1088 0.18979 0.74638 0.0
C255 C 0.17249 0.84552 0.21918 0.0
C256 C 0.13384 0.80276 0.24106 0.0
C257 C 0.21178 0.88682 0.24085 0.0
C258 C 0.21394 0.88696 0.28524 0.0
H259 H 0.16972 0.85009 0.18518 0.0
H260 H 0.23741 0.92154 0.2227 0.0
S261 S 0.13315 0.77449 0.35676 0.0
N262 N 0.10838 0.75585 0.30915 0.0
N263 N 0.1823 0.83339 0.34985 0.0
C264 C 0.18054 0.84006 0.30718 0.0
C265 C 0.14048 0.79795 0.2851 0.0
C266 C 0.89737 0.79865 0.74816 0.0
C267 C 0.89678 0.83727 0.71254 0.0
C268 C 0.87429 0.81683 0.78704 0.0
C269 C 0.84857 0.87382 0.79193 0.0
H270 H 0.91882 0.75532 0.74681 0.0
H271 H 0.87868 0.78681 0.81403 0.0
S272 S 0.82798 0.98861 0.70773 0.0
N273 N 0.86257 0.93305 0.68387 0.0
N274 N 0.81832 0.96644 0.75736 0.0
C275 C 0.84319 0.91099 0.75612 0.0
C276 C 0.86751 0.89287 0.71633 0.0
C277 C 0.80284 0.01253 0.2201 0.0
C278 C 0.79256 0.03392 0.26133 0.0
C279 C 0.83464 0.04923 0.1902 0.0
C280 C 0.85734 0.10911 0.20009 0.0
H281 H 0.78849 0.96603 0.21117 0.0
H282 H 0.84335 0.02942 0.15954 0.0
S283 S 0.83542 0.19021 0.30171 0.0
N284 N 0.80231 0.12125 0.30913 0.0
N285 N 0.86189 0.19041 0.25288 0.0
C286 C 0.8439 0.13268 0.24027 0.0
C287 C 0.81167 0.09505 0.27089 0.0
loop_
_geom_bond_atom_site_label_1
_geom_bond_atom_site_label_2
_geom_bond_distance
_geom_bond_site_symmetry_2
_ccdc_geom_bond_type
Mg0 O1 2.028 . S
Mg0 O7 1.986 . S
Mg0 O9 2.114 1_455 S
Mg0 O10 2.251 1_455 S
Mg0 O13 2.010 . S
O1 Mg0 2.028 . S
O1 C4 1.250 . S
O2 Mg3 2.028 1_455 S
O2 C4 1.248 . S
Mg3 O2 2.028 1_655 S
Mg3 O8 2.032 1_655 S
Mg3 O10 2.079 . S
C4 O1 1.250 . S
C4 O2 1.248 . S
C5 O6 1.264 . S
C5 O13 1.249 . S
O6 C5 1.264 . S
O7 Mg0 1.986 . S
O7 C11 1.246 . S
O8 Mg3 2.032 1_455 S
O8 C11 1.259 . S
O9 Mg0 2.114 1_655 S
O9 C12 1.252 . S
O10 Mg0 2.251 1_655 S
O10 Mg3 2.079 . S
O10 C12 1.273 . S
C11 O7 1.246 . S
C11 O8 1.259 . S
C12 O9 1.252 . S
C12 O10 1.273 . S
O13 Mg0 2.010 . S
O13 C5 1.249 . S
Mg14 O15 2.028 1_545 S
Mg14 O21 1.986 1_545 S
Mg14 O23 2.114 . S
Mg14 O24 2.251 . S
Mg14 O27 2.010 1_545 S
O15 Mg14 2.028 1_565 S
O15 C18 1.250 . S
O16 Mg17 2.028 1_565 S
O16 C18 1.248 . S
Mg17 O16 2.028 1_545 S
Mg17 O22 2.032 1_545 S
Mg17 O24 2.079 . S
C18 O15 1.250 . S
C18 O16 1.248 . S
C19 O20 1.264 1_565 S
C19 O27 1.249 . S
O20 C19 1.264 1_545 S
O21 Mg14 1.986 1_565 S
O21 C25 1.246 . S
O22 Mg17 2.032 1_565 S
O22 C25 1.259 . S
O23 Mg14 2.114 . S
O23 C26 1.252 . S
O24 Mg14 2.251 . S
O24 Mg17 2.079 . S
O24 C26 1.273 . S
C25 O21 1.246 . S
C25 O22 1.259 . S
C26 O23 1.252 . S
C26 O24 1.273 . S
O27 Mg14 2.010 1_565 S
O27 C19 1.249 . S
Mg28 O29 2.028 . S
Mg28 O35 1.986 . S
Mg28 O37 2.114 1_655 S
Mg28 O38 2.251 1_655 S
Mg28 O41 2.010 . S
O29 Mg28 2.028 . S
O29 C32 1.250 . S
O30 Mg31 2.028 1_655 S
O30 C32 1.248 . S
Mg31 O30 2.028 1_455 S
Mg31 O36 2.032 1_455 S
Mg31 O38 2.079 . S
C32 O29 1.250 . S
C32 O30 1.248 . S
C33 O34 1.264 . S
C33 O41 1.249 . S
O34 C33 1.264 . S
O35 Mg28 1.986 . S
O35 C39 1.246 . S
O36 Mg31 2.032 1_655 S
O36 C39 1.259 . S
O37 Mg28 2.114 1_455 S
O37 C40 1.252 . S
O38 Mg28 2.251 1_455 S
O38 Mg31 2.079 . S
O38 C40 1.273 . S
C39 O35 1.246 . S
C39 O36 1.259 . S
C40 O37 1.252 . S
C40 O38 1.273 . S
O41 Mg28 2.010 . S
O41 C33 1.249 . S
Mg42 O43 2.028 1_565 S
Mg42 O49 1.986 1_565 S
Mg42 O51 2.114 . S
Mg42 O52 2.251 . S
Mg42 O55 2.010 1_565 S
O43 Mg42 2.028 1_545 S
O43 C46 1.250 . S
O44 Mg45 2.028 1_545 S
O44 C46 1.248 . S
Mg45 O44 2.028 1_565 S
Mg45 O50 2.032 1_565 S
Mg45 O52 2.079 . S
C46 O43 1.250 . S
C46 O44 1.248 . S
C47 O48 1.264 1_545 S
C47 O55 1.249 . S
O48 C47 1.264 1_565 S
O49 Mg42 1.986 1_545 S
O49 C53 1.246 . S
O50 Mg45 2.032 1_545 S
O50 C53 1.259 . S
O51 Mg42 2.114 . S
O51 C54 1.252 . S
O52 Mg42 2.251 . S
O52 Mg45 2.079 . S
O52 C54 1.273 . S
C53 O49 1.246 . S
C53 O50 1.259 . S
C54 O51 1.252 . S
C54 O52 1.273 . S
O55 Mg42 2.010 1_545 S
O55 C47 1.249 . S
Mg56 O57 2.028 . S
Mg56 O63 1.986 . S
Mg56 O65 2.114 1_655 S
Mg56 O66 2.251 1_655 S
Mg56 O69 2.010 . S
O57 Mg56 2.028 . S
O57 C60 1.250 . S
O58 Mg59 2.028 . S
O58 C60 1.248 . S
Mg59 O58 2.028 . S
Mg59 O64 2.032 . S
Mg59 O66 2.079 1_655 S
C60 O57 1.250 . S
C60 O58 1.248 . S
C61 O62 1.264 . S
C61 O69 1.249 . S
O62 C61 1.264 . S
O63 Mg56 1.986 . S
O63 C67 1.246 . S
O64 Mg59 2.032 . S
O64 C67 1.259 . S
O65 Mg56 2.114 1_455 S
O65 C68 1.252 . S
O66 Mg56 2.251 1_455 S
O66 Mg59 2.079 1_455 S
O66 C68 1.273 . S
C67 O63 1.246 . S
C67 O64 1.259 . S
C68 O65 1.252 . S
C68 O66 1.273 . S
O69 Mg56 2.010 . S
O69 C61 1.249 . S
Mg70 O71 2.028 1_545 S
Mg70 O77 1.986 . S
Mg70 O79 2.114 . S
Mg70 O80 2.251 . S
Mg70 O83 2.010 . S
O71 Mg70 2.028 1_565 S
O71 C74 1.250 . S
O72 Mg73 2.028 1_565 S
O72 C74 1.248 . S
Mg73 O72 2.028 1_545 S
Mg73 O78 2.032 . S
Mg73 O80 2.079 . S
C74 O71 1.250 . S
C74 O72 1.248 . S
C75 O76 1.264 . S
C75 O83 1.249 . S
O76 C75 1.264 . S
O77 Mg70 1.986 . S
O77 C81 1.246 . S
O78 Mg73 2.032 . S
O78 C81 1.259 . S
O79 Mg70 2.114 . S
O79 C82 1.252 . S
O80 Mg70 2.251 . S
O80 Mg73 2.079 . S
O80 C82 1.273 . S
C81 O77 1.246 . S
C81 O78 1.259 . S
C82 O79 1.252 . S
C82 O80 1.273 . S
O83 Mg70 2.010 . S
O83 C75 1.249 . S
Mg84 O85 2.028 . S
Mg84 O91 1.986 . S
Mg84 O93 2.114 1_455 S
Mg84 O94 2.251 1_455 S
Mg84 O97 2.010 . S
O85 Mg84 2.028 . S
O85 C88 1.250 . S
O86 Mg87 2.028 . S
O86 C88 1.248 . S
Mg87 O86 2.028 . S
Mg87 O92 2.032 . S
Mg87 O94 2.079 1_455 S
C88 O85 1.250 . S
C88 O86 1.248 . S
C89 O90 1.264 . S
C89 O97 1.249 . S
O90 C89 1.264 . S
O91 Mg84 1.986 . S
O91 C95 1.246 . S
O92 Mg87 2.032 . S
O92 C95 1.259 . S
O93 Mg84 2.114 1_655 S
O93 C96 1.252 . S
O94 Mg84 2.251 1_655 S
O94 Mg87 2.079 1_655 S
O94 C96 1.273 . S
C95 O91 1.246 . S
C95 O92 1.259 . S
C96 O93 1.252 . S
C96 O94 1.273 . S
O97 Mg84 2.010 . S
O97 C89 1.249 . S
Mg98 O99 2.028 1_565 S
Mg98 O105 1.986 . S
Mg98 O107 2.114 . S
Mg98 O108 2.251 . S
Mg98 O111 2.010 . S
O99 Mg98 2.028 1_545 S
O99 C102 1.250 . S
O100 Mg101 2.028 1_545 S
O100 C102 1.248 . S
Mg101 O100 2.028 1_565 S
Mg101 O106 2.032 . S
Mg101 O108 2.079 . S
C102 O99 1.250 . S
C102 O100 1.248 . S
C103 O104 1.264 . S
C103 O111 1.249 . S
O104 C103 1.264 . S
O105 Mg98 1.986 . S
O105 C109 1.246 . S
O106 Mg101 2.032 . S
O106 C109 1.259 . S
O107 Mg98 2.114 . S
O107 C110 1.252 . S
O108 Mg98 2.251 . S
O108 Mg101 2.079 . S
O108 C110 1.273 . S
C109 O105 1.246 . S
C109 O106 1.259 . S
C110 O107 1.252 . S
C110 O108 1.273 . S
O111 Mg98 2.010 . S
O111 C103 1.249 . S
C112 C113 1.369 1_455 S
C112 C114 1.419 . S
C112 H116 0.930 . S
C113 C112 1.369 1_655 S
C113 C122 1.429 . S
C114 C112 1.419 . S
C114 C115 1.363 . S
C114 H117 0.929 . S
C115 C114 1.363 . S
C115 C121 1.428 1_455 S
H116 C112 0.930 . S
H117 C114 0.929 . S
S118 N119 1.613 . S
S118 N120 1.610 . S
N119 S118 1.613 . S
N119 C122 1.350 . S
N120 S118 1.610 . S
N120 C121 1.351 . S
C121 C115 1.428 1_655 S
C121 N120 1.351 . S
C121 C122 1.434 . S
C122 C113 1.429 . S
C122 N119 1.350 . S
C122 C121 1.434 . S
C123 C124 1.369 . S
C123 C125 1.419 . S
C123 H127 0.930 . S
C124 C123 1.369 . S
C124 C133 1.429 1_545 S
C125 C123 1.419 . S
C125 C126 1.363 1_545 S
C125 H128 0.929 . S
C126 C125 1.363 1_565 S
C126 C132 1.428 . S
H127 C123 0.930 . S
H128 C125 0.929 . S
S129 N130 1.613 . S
S129 N131 1.610 . S
N130 S129 1.613 . S
N130 C133 1.350 . S
N131 S129 1.610 . S
N131 C132 1.351 . S
C132 C126 1.428 . S
C132 N131 1.351 . S
C132 C133 1.434 . S
C133 C124 1.429 1_565 S
C133 N130 1.350 . S
C133 C132 1.434 . S
C134 C135 1.369 1_455 S
C134 C136 1.419 . S
C134 H138 0.930 . S
C135 C134 1.369 1_655 S
C135 C144 1.429 . S
C136 C134 1.419 . S
C136 C137 1.363 . S
C136 H139 0.929 . S
C137 C136 1.363 . S
C137 C143 1.428 1_455 S
H138 C134 0.930 . S
H139 C136 0.929 . S
S140 N141 1.613 . S
S140 N142 1.610 . S
N141 S140 1.613 . S
N141 C144 1.350 . S
N142 S140 1.610 . S
N142 C143 1.351 . S
C143 C137 1.428 1_655 S
C143 N142 1.351 . S
C143 C144 1.434 . S
C144 C135 1.429 . S
C144 N141 1.350 . S
C144 C143 1.434 . S
C145 C146 1.369 1_565 S
C145 C147 1.419 . S
C145 H149 0.930 . S
C146 C145 1.369 1_545 S
C146 C155 1.429 . S
C147 C145 1.419 . S
C147 C148 1.363 . S
C147 H150 0.929 . S
C148 C147 1.363 . S
C148 C154 1.428 1_565 S
H149 C145 0.930 . S
H150 C147 0.929 . S
S151 N152 1.613 . S
S151 N153 1.610 . S
N152 S151 1.613 . S
N152 C155 1.350 . S
N153 S151 1.610 . S
N153 C154 1.351 . S
C154 C148 1.428 1_545 S
C154 N153 1.351 . S
C154 C155 1.434 . S
C155 C146 1.429 . S
C155 N152 1.350 . S
C155 C154 1.434 . S
C156 C157 1.369 . S
C156 C158 1.419 . S
C156 H160 0.930 . S
C157 C156 1.369 . S
C157 C166 1.429 . S
C158 C156 1.419 . S
C158 C159 1.363 . S
C158 H161 0.929 . S
C159 C158 1.363 . S
C159 C165 1.428 . S
H160 C156 0.930 . S
H161 C158 0.929 . S
S162 N163 1.613 . S
S162 N164 1.610 . S
N163 S162 1.613 . S
N163 C166 1.350 . S
N164 S162 1.610 . S
N164 C165 1.351 . S
C165 C159 1.428 . S
C165 N164 1.351 . S
C165 C166 1.434 . S
C166 C157 1.429 . S
C166 N163 1.350 . S
C166 C165 1.434 . S
C167 C168 1.369 . S
C167 C169 1.419 . S
C167 H171 0.930 . S
C168 C167 1.369 . S
C168 C177 1.429 . S
C169 C167 1.419 . S
C169 C170 1.363 . S
C169 H172 0.929 . S
C170 C169 1.363 . S
C170 C176 1.428 . S
H171 C167 0.930 . S
H172 C169 0.929 . S
S173 N174 1.613 . S
S173 N175 1.610 . S
N174 S173 1.613 . S
N174 C177 1.350 . S
N175 S173 1.610 . S
N175 C176 1.351 . S
C176 C170 1.428 . S
C176 N175 1.351 . S
C176 C177 1.434 . S
C177 C168 1.429 . S
C177 N174 1.350 . S
C177 C176 1.434 . S
C178 C179 1.369 . S
C178 C180 1.419 . S
C178 H182 0.930 . S
C179 C178 1.369 . S
C179 C188 1.429 . S
C180 C178 1.419 . S
C180 C181 1.363 . S
C180 H183 0.929 . S
C181 C180 1.363 . S
C181 C187 1.428 . S
H182 C178 0.930 . S
H183 C180 0.929 . S
S184 N185 1.613 . S
S184 N186 1.610 . S
N185 S184 1.613 . S
N185 C188 1.350 . S
N186 S184 1.610 . S
N186 C187 1.351 . S
C187 C181 1.428 . S
C187 N186 1.351 . S
C187 C188 1.434 . S
C188 C179 1.429 . S
C188 N185 1.350 . S
C188 C187 1.434 . S
C189 C190 1.369 . S
C189 C191 1.419 . S
C189 H193 0.930 . S
C190 C189 1.369 . S
C190 C199 1.429 . S
C191 C189 1.419 . S
C191 C192 1.363 . S
C191 H194 0.929 . S
C192 C191 1.363 . S
C192 C198 1.428 . S
H193 C189 0.930 . S
H194 C191 0.929 . S
S195 N196 1.613 . S
S195 N197 1.610 . S
N196 S195 1.613 . S
N196 C199 1.350 . S
N197 S195 1.610 . S
N197 C198 1.351 . S
C198 C192 1.428 . S
C198 N197 1.351 . S
C198 C199 1.434 . S
C199 C190 1.429 . S
C199 N196 1.350 . S
C199 C198 1.434 . S
C200 C201 1.369 . S
C200 C202 1.419 . S
C200 H204 0.930 . S
C201 C200 1.369 . S
C201 C210 1.429 . S
C202 C200 1.419 . S
C202 C203 1.363 1_556 S
C202 H205 0.929 . S
C203 C202 1.363 1_554 S
C203 C209 1.428 . S
H204 C200 0.930 . S
H205 C202 0.929 . S
S206 N207 1.613 . S
S206 N208 1.610 . S
N207 S206 1.613 . S
N207 C210 1.350 1_554 S
N208 S206 1.610 . S
N208 C209 1.351 . S
C209 C203 1.428 . S
C209 N208 1.351 . S
C209 C210 1.434 1_554 S
C210 C201 1.429 . S
C210 N207 1.350 1_556 S
C210 C209 1.434 1_556 S
C211 C212 1.369 1_554 S
C211 C213 1.419 . S
C211 H215 0.930 . S
C212 C211 1.369 1_556 S
C212 C221 1.429 . S
C213 C211 1.419 . S
C213 C214 1.363 . S
C213 H216 0.929 . S
C214 C213 1.363 . S
C214 C220 1.428 . S
H215 C211 0.930 . S
H216 C213 0.929 . S
S217 N218 1.613 . S
S217 N219 1.610 1_556 S
N218 S217 1.613 . S
N218 C221 1.350 . S
N219 S217 1.610 1_554 S
N219 C220 1.351 . S
C220 C214 1.428 . S
C220 N219 1.351 . S
C220 C221 1.434 1_554 S
C221 C212 1.429 . S
C221 N218 1.350 . S
C221 C220 1.434 1_556 S
C222 C223 1.369 . S
C222 C224 1.419 1_554 S
C222 H226 0.930 . S
C223 C222 1.369 . S
C223 C232 1.429 . S
C224 C222 1.419 1_556 S
C224 C225 1.363 . S
C224 H227 0.929 . S
C225 C224 1.363 . S
C225 C231 1.428 . S
H226 C222 0.930 . S
H227 C224 0.929 . S
S228 N229 1.613 . S
S228 N230 1.610 1_554 S
N229 S228 1.613 . S
N229 C232 1.350 . S
N230 S228 1.610 1_556 S
N230 C231 1.351 . S
C231 C225 1.428 . S
C231 N230 1.351 . S
C231 C232 1.434 1_556 S
C232 C223 1.429 . S
C232 N229 1.350 . S
C232 C231 1.434 1_554 S
C233 C234 1.369 1_554 S
C233 C235 1.419 . S
C233 H237 0.930 . S
C234 C233 1.369 1_556 S
C234 C243 1.429 . S
C235 C233 1.419 . S
C235 C236 1.363 . S
C235 H238 0.929 . S
C236 C235 1.363 . S
C236 C242 1.428 . S
H237 C233 0.930 . S
H238 C235 0.929 . S
S239 N240 1.613 . S
S239 N241 1.610 1_556 S
N240 S239 1.613 . S
N240 C243 1.350 . S
N241 S239 1.610 1_554 S
N241 C242 1.351 . S
C242 C236 1.428 . S
C242 N241 1.351 . S
C242 C243 1.434 1_554 S
C243 C234 1.429 . S
C243 N240 1.350 . S
C243 C242 1.434 1_556 S
C244 C245 1.369 . S
C244 C246 1.419 . S
C244 H248 0.930 . S
C245 C244 1.369 . S
C245 C254 1.429 . S
C246 C244 1.419 . S
C246 C247 1.363 . S
C246 H249 0.929 . S
C247 C246 1.363 . S
C247 C253 1.428 . S
H248 C244 0.930 . S
H249 C246 0.929 . S
S250 N251 1.613 . S
S250 N252 1.610 . S
N251 S250 1.613 . S
N251 C254 1.350 . S
N252 S250 1.610 . S
N252 C253 1.351 . S
C253 C247 1.428 . S
C253 N252 1.351 . S
C253 C254 1.434 . S
C254 C245 1.429 . S
C254 N251 1.350 . S
C254 C253 1.434 . S
C255 C256 1.369 . S
C255 C257 1.419 . S
C255 H259 0.930 . S
C256 C255 1.369 . S
C256 C265 1.429 . S
C257 C255 1.419 . S
C257 C258 1.363 . S
C257 H260 0.929 . S
C258 C257 1.363 . S
C258 C264 1.428 . S
H259 C255 0.930 . S
H260 C257 0.929 . S
S261 N262 1.613 . S
S261 N263 1.610 . S
N262 S261 1.613 . S
N262 C265 1.350 . S
N263 S261 1.610 . S
N263 C264 1.351 . S
C264 C258 1.428 . S
C264 N263 1.351 . S
C264 C265 1.434 . S
C265 C256 1.429 . S
C265 N262 1.350 . S
C265 C264 1.434 . S
C266 C267 1.369 . S
C266 C268 1.419 . S
C266 H270 0.930 . S
C267 C266 1.369 . S
C267 C276 1.429 . S
C268 C266 1.419 . S
C268 C269 1.363 . S
C268 H271 0.929 . S
C269 C268 1.363 . S
C269 C275 1.428 . S
H270 C266 0.930 . S
H271 C268 0.929 . S
S272 N273 1.613 1_545 S
S272 N274 1.610 . S
N273 S272 1.613 1_565 S
N273 C276 1.350 . S
N274 S272 1.610 . S
N274 C275 1.351 1_545 S
C275 C269 1.428 . S
C275 N274 1.351 1_565 S
C275 C276 1.434 . S
C276 C267 1.429 . S
C276 N273 1.350 . S
C276 C275 1.434 . S
C277 C278 1.369 . S
C277 C279 1.419 . S
C277 H281 0.930 . S
C278 C277 1.369 . S
C278 C287 1.429 . S
C279 C277 1.419 . S
C279 C280 1.363 . S
C279 H282 0.929 . S
C280 C279 1.363 . S
C280 C286 1.428 . S
H281 C277 0.930 . S
H282 C279 0.929 . S
S283 N284 1.613 . S
S283 N285 1.610 . S
N284 S283 1.613 . S
N284 C287 1.350 . S
N285 S283 1.610 . S
N285 C286 1.351 . S
C286 C280 1.428 . S
C286 N285 1.351 . S
C286 C287 1.434 . S
C287 C278 1.429 . S
C287 N284 1.350 . S
C287 C286 1.434 . S
C113 C39 1.339 . S
C115 C11 1.337 . S
C124 C53 1.294 . S
C126 C25 1.294 . S
C135 C67 1.334 . S
C137 C95 1.329 . S
C146 C75 1.124 . S
C148 C103 1.122 . S
C157 C26 1.058 . S
C159 C4 1.040 . S
C168 C18 1.089 . S
C170 C40 1.126 . S
C179 C54 1.060 . S
C181 C32 1.050 . S
C190 C46 1.093 . S
C192 C12 1.130 . S
C201 C102 1.117 . S
C203 C60 1.118 . S
C212 C82 1.005 . S
C214 C68 1.000 . S
C223 C88 1.109 . S
C225 C74 1.118 . S
C234 C110 0.997 . S
C236 C96 0.998 . S
C245 C5 1.648 . S
C247 C81 1.651 . S
C256 C89 1.511 . S
C258 C19 1.542 . S
C267 C33 1.644 . S
C269 C109 1.650 . S
C278 C47 1.533 . S
C280 C61 1.522 . S
