# Generated by pormake.
# Topology wkw, (8)-cn, num edge types: 1
# Building blocks:
#     Node 0, Type 0, BuildingBlock: TAGTUT_clean_sbu_1, # of connection points: 8
#     Node 1, Type 0, BuildingBlock: TAGTUT_clean_sbu_1, # of connection points: 8
#     Node 2, Type 0, BuildingBlock: TAGTUT_clean_sbu_1, # of connection points: 8
#     Node 3, Type 0, BuildingBlock: TAGTUT_clean_sbu_1, # of connection points: 8
#     Node 4, Type 0, BuildingBlock: TAGTUT_clean_sbu_1, # of connection points: 8
#     Node 5, Type 0, BuildingBlock: TAGTUT_clean_sbu_1, # of connection points: 8
#     Edge 6, Type (0, 0), BuildingBlock: XIVTED_clean_linker_0, # of connection points: 2
#     Edge 7, Type (0, 0), BuildingBlock: XIVTED_clean_linker_0, # of connection points: 2
#     Edge 8, Type (0, 0), BuildingBlock: XIVTED_clean_linker_0, # of connection points: 2
#     Edge 9, Type (0, 0), BuildingBlock: XIVTED_clean_linker_0, # of connection points: 2
#     Edge 10, Type (0, 0), BuildingBlock: XIVTED_clean_linker_0, # of connection points: 2
#     Edge 11, Type (0, 0), BuildingBlock: XIVTED_clean_linker_0, # of connection points: 2
#     Edge 12, Type (0, 0), BuildingBlock: XIVTED_clean_linker_0, # of connection points: 2
#     Edge 13, Type (0, 0), BuildingBlock: XIVTED_clean_linker_0, # of connection points: 2
#     Edge 14, Type (0, 0), BuildingBlock: XIVTED_clean_linker_0, # of connection points: 2
#     Edge 15, Type (0, 0), BuildingBlock: XIVTED_clean_linker_0, # of connection points: 2
#     Edge 16, Type (0, 0), BuildingBlock: XIVTED_clean_linker_0, # of connection points: 2
#     Edge 17, Type (0, 0), BuildingBlock: XIVTED_clean_linker_0, # of connection points: 2
#     Edge 18, Type (0, 0), BuildingBlock: XIVTED_clean_linker_0, # of connection points: 2
#     Edge 19, Type (0, 0), BuildingBlock: XIVTED_clean_linker_0, # of connection points: 2
#     Edge 20, Type (0, 0), BuildingBlock: XIVTED_clean_linker_0, # of connection points: 2
#     Edge 21, Type (0, 0), BuildingBlock: XIVTED_clean_linker_0, # of connection points: 2
#     Edge 22, Type (0, 0), BuildingBlock: XIVTED_clean_linker_0, # of connection points: 2
#     Edge 23, Type (0, 0), BuildingBlock: XIVTED_clean_linker_0, # of connection points: 2
#     Edge 24, Type (0, 0), BuildingBlock: XIVTED_clean_linker_0, # of connection points: 2
#     Edge 25, Type (0, 0), BuildingBlock: XIVTED_clean_linker_0, # of connection points: 2
#     Edge 26, Type (0, 0), BuildingBlock: XIVTED_clean_linker_0, # of connection points: 2
#     Edge 27, Type (0, 0), BuildingBlock: XIVTED_clean_linker_0, # of connection points: 2
#     Edge 28, Type (0, 0), BuildingBlock: XIVTED_clean_linker_0, # of connection points: 2
#     Edge 29, Type (0, 0), BuildingBlock: XIVTED_clean_linker_0, # of connection points: 2
# Relax obj value: 0.240
# Max RMSD: 0.273
# Mean RMSD: 0.273
data_MOF--net-wkw--node1-TAGTUT_clean_sbu_1--edge1-XIVTED_clean_linker_0
_symmetry_space_group_name_H-M    P1
_symmetry_Int_Tables_number       1
_symmetry_cell_setting            triclinic
loop_
_symmetry_equiv_pos_as_xyz
'x, y, z'
_cell_length_a     39.323621
_cell_length_b     39.586388
_cell_length_c     19.216236
_cell_angle_alpha  89.738365
_cell_angle_beta   90.111825
_cell_angle_gamma 119.66565
loop_
_atom_site_label
_atom_site_type_symbol
_atom_site_fract_x
_atom_site_fract_y
_atom_site_fract_z
_atom_type_partial_charge
C0 C 0.76672 0.18782 0.85672 0.0
C1 C 0.86587 0.28668 0.76543 0.0
C2 C 0.94845 0.2724 -0.01246 0.0
Mg3 Mg 0.81056 0.27517 0.8885 0.0
O4 O 0.83703 0.25791 0.94591 0.0
Mg5 Mg 0.86275 0.23045 0.90206 0.0
Mg6 Mg 0.87917 0.29532 0.00618 0.0
O7 O 0.9218 0.3333 0.06632 0.0
Mg8 Mg 0.94957 0.31847 0.12623 0.0
Mg9 Mg 0.89599 0.361 0.1072 0.0
C10 C 0.81932 0.32916 0.0179 0.0
C11 C 0.90699 0.38094 0.94228 0.0
O12 O 0.79885 0.18646 0.85972 0.0
O13 O 0.76479 0.21859 0.86875 0.0
O14 O 0.87589 0.26462 0.79783 0.0
O15 O 0.84265 0.2967 0.79271 0.0
O16 O 0.80525 0.31577 0.95742 0.0
O17 O 0.83881 0.31652 0.05277 0.0
C18 C 0.84759 0.20771 0.06556 0.0
O19 O 0.8574 0.2427 0.08296 0.0
O20 O 0.84878 0.19812 0.00273 0.0
O21 O 0.95676 0.40451 0.14729 0.0
O22 O 0.99488 0.3769 0.15131 0.0
O23 O 0.88326 0.32759 0.21267 0.0
C24 C 0.98989 0.40641 0.15738 0.0
O25 O 0.91529 0.29428 0.21875 0.0
O26 O 0.95998 0.28389 0.05015 0.0
C27 C 0.89251 0.30504 0.24553 0.0
O28 O 0.92137 0.27691 0.95789 0.0
O29 O 0.89781 0.34581 0.92831 0.0
O30 O 0.90891 0.39265 0.00475 0.0
C31 C 0.54739 0.75711 -0.01486 0.0
C32 C 0.56749 0.86432 0.89097 0.0
C33 C 0.67219 0.9305 0.11442 0.0
Mg34 Mg 0.51967 0.8156 0.01724 0.0
O35 O 0.56524 0.83531 0.07029 0.0
Mg36 Mg 0.61569 0.84955 0.02338 0.0
Mg37 Mg 0.58157 0.88067 0.12985 0.0
O38 O 0.59857 0.92663 0.19275 0.0
Mg39 Mg 0.64221 0.94128 0.2531 0.0
Mg40 Mg 0.54685 0.91109 0.23703 0.0
C41 C 0.48755 0.83805 0.15144 0.0
C42 C 0.53646 0.92589 0.07421 0.0
O43 O 0.58333 0.78467 -0.01558 0.0
O44 O 0.51856 0.76234 -0.00039 0.0
O45 O 0.59793 0.86786 0.92178 0.0
O46 O 0.53383 0.84682 0.91974 0.0
O47 O 0.48138 0.82262 0.09072 0.0
O48 O 0.52092 0.85188 0.18198 0.0
C49 C 0.62377 0.83183 0.18426 0.0
O50 O 0.60531 0.84929 0.20427 0.0
O51 O 0.63136 0.83011 0.12055 0.0
O52 O 0.57948 0.97253 0.27897 0.0
O53 O 0.64497 0.99639 0.28021 0.0
O54 O 0.56028 0.88976 0.33978 0.0
C55 C 0.61457 1.00022 0.28891 0.0
O56 O 0.6233 0.9073 0.34684 0.0
O57 O 0.66938 0.91979 0.17781 0.0
C58 C 0.58903 0.89097 0.37286 0.0
O59 O 0.6422 0.9126 0.07417 0.0
O60 O 0.55534 0.90865 0.05578 0.0
O61 O 0.532 0.93126 0.1382 0.0
C62 C 0.81258 0.56053 0.12185 0.0
C63 C 0.71953 0.57548 0.04213 0.0
C64 C 0.75165 0.67709 0.26183 0.0
Mg65 Mg 0.72741 0.53102 0.16559 0.0
O66 O 0.75432 0.57605 0.21929 0.0
Mg67 Mg 0.78489 0.62623 0.16897 0.0
Mg68 Mg 0.72245 0.58876 0.28015 0.0
O69 O 0.68944 0.60102 0.34414 0.0
Mg70 Mg 0.71257 0.64566 0.40261 0.0
Mg71 Mg 0.65869 0.54883 0.39022 0.0
C72 C 0.68156 0.49596 0.30704 0.0
C73 C 0.63214 0.53358 0.22871 0.0
O74 O 0.82084 0.5964 0.12638 0.0
O75 O 0.77893 0.53166 0.13607 0.0
O76 O 0.74694 0.60576 0.07082 0.0
O77 O 0.7044 0.54234 0.07197 0.0
O78 O 0.68867 0.49075 0.24399 0.0
O79 O 0.69833 0.52969 0.33558 0.0
C80 C 0.81453 0.64013 0.32788 0.0
O81 O 0.77931 0.6194 0.35069 0.0
O82 O 0.82214 0.64612 0.26328 0.0
O83 O 0.62199 0.57429 0.43041 0.0
O84 O 0.65525 0.64003 0.42665 0.0
O85 O 0.69387 0.56714 0.49172 0.0
C86 C 0.62377 0.60733 0.4373 0.0
O87 O 0.73093 0.63136 0.49863 0.0
O88 O 0.76021 0.67577 0.32553 0.0
C89 C 0.71787 0.59756 0.52486 0.0
O90 O 0.74354 0.64777 0.22215 0.0
O91 O 0.6675 0.55619 0.20884 0.0
O92 O 0.62295 0.52877 0.29298 0.0
C93 C 0.26222 0.82328 0.34212 0.0
C94 C 0.16085 0.72495 0.26275 0.0
C95 C 0.08172 0.74309 0.48318 0.0
Mg96 Mg 0.21749 0.73726 0.38402 0.0
O97 O 0.19341 0.75694 0.44151 0.0
Mg98 Mg 0.16761 0.78407 0.39582 0.0
Mg99 Mg 0.15104 0.72007 0.50278 0.0
O100 O 0.10825 0.68226 0.56346 0.0
Mg101 Mg 0.07974 0.69634 0.62251 0.0
Mg102 Mg 0.1333 0.65363 0.60438 0.0
C103 C 0.20979 0.68478 0.51594 0.0
C104 C 0.12238 0.63445 0.43951 0.0
O105 O 0.23082 0.82585 0.34753 0.0
O106 O 0.26364 0.79247 0.35696 0.0
O107 O 0.15224 0.74826 0.29388 0.0
O108 O 0.18354 0.71428 0.29053 0.0
O109 O 0.22337 0.6974 0.45476 0.0
O110 O 0.19076 0.698 0.55023 0.0
C111 C 0.18439 0.80835 0.55883 0.0
O112 O 0.17333 0.77316 0.5777 0.0
O113 O 0.18375 0.81786 0.49543 0.0
O114 O 0.07238 0.61011 0.64376 0.0
O115 O 0.03421 0.63765 0.64696 0.0
O116 O 0.14569 0.68646 0.71002 0.0
C117 C 0.0392 0.60813 0.65329 0.0
O118 O 0.11355 0.71969 0.71566 0.0
O119 O 0.06974 0.73125 0.54561 0.0
C120 C 0.1362 0.70873 0.74278 0.0
O121 O 0.10919 0.73894 0.45449 0.0
O122 O 0.13181 0.6697 0.42574 0.0
O123 O 0.1204 0.62235 0.50191 0.0
C124 C 0.48895 0.25565 0.52211 0.0
C125 C 0.45971 0.14524 0.43108 0.0
C126 C 0.35286 0.08556 0.64933 0.0
Mg127 Mg 0.50849 0.19174 0.55797 0.0
O128 O 0.46311 0.17449 0.61014 0.0
Mg129 Mg 0.41491 0.16546 0.5607 0.0
Mg130 Mg 0.4426 0.12772 0.66967 0.0
O131 O 0.42234 0.0808 0.73457 0.0
Mg132 Mg 0.37339 0.07016 0.78719 0.0
Mg133 Mg 0.47632 0.08843 0.77748 0.0
C134 C 0.53479 0.16386 0.69464 0.0
C135 C 0.48645 0.08104 0.61088 0.0
O136 O 0.45223 0.23018 0.52082 0.0
O137 O 0.51558 0.24753 0.53894 0.0
O138 O 0.43035 0.14457 0.46077 0.0
O139 O 0.49325 0.16066 0.4603 0.0
O140 O 0.54236 0.18092 0.63503 0.0
O141 O 0.50078 0.14919 0.72354 0.0
C142 C 0.4076 0.18344 0.72173 0.0
O143 O 0.42217 0.1624 0.74305 0.0
O144 O 0.40179 0.18681 0.65758 0.0
O145 O 0.41157 0.04603 0.7499 0.0
O146 O 0.35376 0.00763 0.79183 0.0
O147 O 0.45853 0.10429 0.88204 0.0
C148 C 0.38756 0.01262 0.77696 0.0
O149 O 0.39785 0.09632 0.8873 0.0
O150 O 0.3556 0.09913 0.7102 0.0
C151 C 0.43111 0.106 0.91504 0.0
O152 O 0.38313 0.10189 0.60971 0.0
O153 O 0.46663 0.09796 0.59626 0.0
O154 O 0.49213 0.07413 0.67358 0.0
C155 C 0.21557 0.45293 0.62884 0.0
C156 C 0.30635 0.43562 0.54448 0.0
C157 C 0.27548 0.33434 0.76758 0.0
Mg158 Mg 0.30084 0.48075 0.66824 0.0
O159 O 0.27466 0.43602 0.7231 0.0
Mg160 Mg 0.24235 0.38596 0.6743 0.0
Mg161 Mg 0.30653 0.42252 0.78305 0.0
O162 O 0.33936 0.40927 0.84645 0.0
Mg163 Mg 0.31553 0.36487 0.90634 0.0
Mg164 Mg 0.37175 0.46155 0.89081 0.0
C165 C 0.35025 0.51551 0.80602 0.0
C166 C 0.39641 0.47485 0.72804 0.0
O167 O 0.20688 0.4169 0.63318 0.0
O168 O 0.24958 0.48143 0.64187 0.0
O169 O 0.27902 0.40548 0.57411 0.0
O170 O 0.32214 0.46874 0.57391 0.0
O171 O 0.34161 0.52048 0.74378 0.0
O172 O 0.33304 0.48218 0.83654 0.0
C173 C 0.21506 0.37347 0.83458 0.0
O174 O 0.25061 0.39373 0.8559 0.0
O175 O 0.20654 0.36718 0.77036 0.0
O176 O 0.40733 0.43483 0.93117 0.0
O177 O 0.37247 0.36912 0.92991 0.0
O178 O 0.33732 0.44462 -0.00628 0.0
C179 C 0.40458 0.4014 0.9392 0.0
O180 O 0.29845 0.3806 0.00148 0.0
O181 O 0.26693 0.33653 0.83071 0.0
C182 C 0.31263 0.41451 0.02725 0.0
O183 O 0.28325 0.36305 0.72606 0.0
O184 O 0.36059 0.45321 0.70985 0.0
O185 O 0.40651 0.47987 0.79191 0.0
H186 H 0.85187 0.32998 0.32694 0.0
H187 H 0.90785 0.26357 0.68369 0.0
H188 H 0.91291 0.26456 0.33709 0.0
H189 H 0.8444 0.32664 0.67448 0.0
H190 H 0.91203 0.26586 0.5569 0.0
H191 H 0.8479 0.32823 0.45386 0.0
C192 C 0.86386 0.31464 0.35561 0.0
C193 C 0.88289 0.29749 0.32083 0.0
C194 C 0.89742 0.27944 0.58261 0.0
C195 C 0.87914 0.29616 0.4668 0.0
C196 C 0.89533 0.27847 0.65524 0.0
C197 C 0.87549 0.29471 0.69022 0.0
C198 C 0.87955 0.29674 0.5443 0.0
C199 C 0.85985 0.31357 0.65007 0.0
C200 C 0.8619 0.314 0.42829 0.0
C201 C 0.89799 0.27824 0.36127 0.0
N202 N 0.86195 0.31378 0.57937 0.0
N203 N 0.89605 0.27836 0.43193 0.0
H204 H 0.64472 0.89618 0.46511 0.0
H205 H 0.50843 0.85289 0.80042 0.0
H206 H 0.52259 0.8637 0.4526 0.0
H207 H 0.63308 0.89644 0.80908 0.0
H208 H 0.5124 0.85634 0.67335 0.0
H209 H 0.6395 0.89237 0.59157 0.0
C210 C 0.61659 0.88757 0.48876 0.0
C211 C 0.58412 0.8805 0.44783 0.0
C212 C 0.53891 0.86543 0.70317 0.0
C213 C 0.57817 0.87687 0.59324 0.0
C214 C 0.53674 0.86382 0.77583 0.0
C215 C 0.57042 0.87406 0.81579 0.0
C216 C 0.57496 0.87724 0.6702 0.0
C217 C 0.60625 0.88798 0.78072 0.0
C218 C 0.61375 0.88581 0.56119 0.0
C219 C 0.54847 0.86951 0.48184 0.0
N220 N 0.60748 0.88878 0.7101 0.0
N221 N 0.54654 0.86833 0.55254 0.0
H222 H 0.74007 0.64118 0.96571 0.0
H223 H 0.69284 0.53053 0.60083 0.0
H224 H 0.68278 0.51623 0.94778 0.0
H225 H 0.75387 0.65552 0.62152 0.0
H226 H 0.68911 0.52444 0.72739 0.0
H227 H 0.74181 0.64646 0.83927 0.0
C228 C 0.72716 0.61476 0.93522 0.0
C229 C 0.71157 0.57819 0.96759 0.0
C230 C 0.7036 0.55319 0.70423 0.0
C231 C 0.71432 0.58414 0.82231 0.0
C232 C 0.70613 0.55675 0.63186 0.0
C233 C 0.72354 0.59364 0.60015 0.0
C234 C 0.7185 0.58673 0.7454 0.0
C235 C 0.74016 0.62647 0.64337 0.0
C236 C 0.72853 0.61784 0.86288 0.0
C237 C 0.69512 0.54502 0.92521 0.0
N238 N 0.7369 0.62222 0.71366 0.0
N239 N 0.69734 0.54881 0.85471 0.0
H240 H 0.1193 0.74858 0.18032 0.0
H241 H 0.17556 0.68242 0.82528 0.0
H242 H 0.18072 0.68351 0.17314 0.0
H243 H 0.11573 0.749 0.83379 0.0
H244 H 0.17848 0.6831 0.95231 0.0
H245 H 0.1153 0.74645 0.05356 0.0
C246 C 0.13138 0.73324 0.15233 0.0
C247 C 0.15069 0.71649 0.18787 0.0
C248 C 0.16497 0.6978 0.92635 0.0
C249 C 0.14689 0.71467 0.04192 0.0
C250 C 0.16363 0.69779 0.85361 0.0
C251 C 0.14526 0.7156 0.81832 0.0
C252 C 0.14778 0.7157 0.96441 0.0
C253 C 0.13017 0.73483 0.85836 0.0
C254 C 0.12941 0.73238 0.07969 0.0
C255 C 0.16572 0.69703 0.14827 0.0
N256 N 0.13152 0.73412 0.92907 0.0
N257 N 0.16382 0.69698 0.07754 0.0
H258 H 0.3772 0.10317 0.00878 0.0
H259 H 0.51677 0.15098 0.34083 0.0
H260 H 0.49677 0.12719 -0.00548 0.0
H261 H 0.39324 0.11281 0.35198 0.0
H262 H 0.51063 0.14193 0.21448 0.0
H263 H 0.38389 0.10901 0.13488 0.0
C264 C 0.40504 0.11012 0.03194 0.0
C265 C 0.43643 0.11462 -0.00937 0.0
C266 C 0.48485 0.13525 0.24479 0.0
C267 C 0.44412 0.12082 0.13572 0.0
C268 C 0.48827 0.14015 0.31702 0.0
C269 C 0.45557 0.13308 0.35723 0.0
C270 C 0.44854 0.12337 0.21261 0.0
C271 C 0.41939 0.11902 0.32331 0.0
C272 C 0.40873 0.11312 0.10419 0.0
C273 C 0.47172 0.12344 0.02408 0.0
N274 N 0.41696 0.11503 0.2531 0.0
N275 N 0.47457 0.12615 0.09461 0.0
H276 H 0.26765 0.3568 0.12036 0.0
H277 H 0.35138 0.49498 0.45348 0.0
H278 H 0.34548 0.48083 0.10627 0.0
H279 H 0.27747 0.37025 0.46434 0.0
H280 H 0.35118 0.49065 0.32652 0.0
H281 H 0.2693 0.36197 0.24679 0.0
C282 C 0.28456 0.38525 0.14367 0.0
C283 C 0.30663 0.41838 0.10231 0.0
C284 C 0.33528 0.46422 0.3568 0.0
C285 C 0.30932 0.42437 0.24761 0.0
C286 C 0.33571 0.46662 0.42939 0.0
C287 C 0.31406 0.43297 0.46983 0.0
C288 C 0.31303 0.42795 0.32448 0.0
C289 C 0.29432 0.39705 0.43548 0.0
C290 C 0.28582 0.38812 0.21606 0.0
C291 C 0.32804 0.45444 0.13586 0.0
N292 N 0.29397 0.39555 0.36492 0.0
N293 N 0.32909 0.45642 0.2065 0.0
H294 H 0.54313 0.14206 0.8278 0.0
H295 H 0.74492 0.15754 0.72744 0.0
H296 H 0.59134 0.15961 0.62048 0.0
H297 H 0.70351 0.1461 0.93804 0.0
H298 H 0.67853 0.1352 0.6855 0.0
H299 H 0.59243 0.12529 0.8673 0.0
C300 C 0.56385 0.14218 0.79061 0.0
C301 C 0.56365 0.1532 0.72119 0.0
C302 C 0.68353 0.13617 0.74108 0.0
C303 C 0.61957 0.1335 0.76545 0.0
C304 C 0.72136 0.14805 0.76494 0.0
C305 C 0.72959 0.15417 0.83608 0.0
C306 C 0.6543 0.13115 0.78897 0.0
C307 C 0.69815 0.14201 0.88257 0.0
C308 C 0.59179 0.13236 0.81299 0.0
C309 C 0.59099 0.15249 0.67503 0.0
N310 N 0.66203 0.1324 0.85826 0.0
N311 N 0.61788 0.14315 0.69807 0.0
H312 H 0.51188 0.694 0.06809 0.0
H313 H 0.41125 0.57282 0.73455 0.0
H314 H 0.5567 0.73045 0.86064 0.0
H315 H 0.37427 0.52834 0.94274 0.0
H316 H 0.47183 0.62495 0.78103 0.0
H317 H 0.47138 0.62756 0.02653 0.0
C318 C 0.51434 0.68748 0.01423 0.0
C319 C 0.53722 0.71739 0.96734 0.0
C320 C 0.45071 0.60375 0.81677 0.0
C321 C 0.48985 0.64227 0.9188 0.0
C322 C 0.41575 0.57418 0.79033 0.0
C323 C 0.38712 0.54679 0.83515 0.0
C324 C 0.45695 0.60667 0.88886 0.0
C325 C 0.39529 0.54927 0.90656 0.0
C326 C 0.49096 0.64968 -0.00966 0.0
C327 C 0.53937 0.70795 0.89815 0.0
N328 N 0.42924 0.57918 0.93143 0.0
N329 N 0.51508 0.67124 0.87543 0.0
H330 H 0.83969 0.36772 0.14414 0.0
H331 H 0.8302 0.55014 -0.00937 0.0
H332 H 0.80868 0.37852 0.93271 0.0
H333 H 0.85459 0.54019 0.20575 0.0
H334 H 0.83915 0.49488 0.96322 0.0
H335 H 0.85605 0.43521 0.16497 0.0
C336 C 0.83626 0.38413 0.10219 0.0
C337 C 0.82316 0.36732 0.0364 0.0
C338 C 0.84382 0.50546 0.0162 0.0
C339 C 0.8419 0.44456 0.05976 0.0
C340 C 0.83983 0.5378 0.03141 0.0
C341 C 0.84143 0.5495 0.10054 0.0
C342 C 0.84904 0.48467 0.07083 0.0
C343 C 0.85315 0.53194 0.15169 0.0
C344 C 0.84581 0.42273 0.11398 0.0
C345 C 0.81847 0.38987 -0.01552 0.0
N346 N 0.85525 0.49953 0.13634 0.0
N347 N 0.82786 0.42716 -0.00272 0.0
H348 H 0.48091 0.85962 0.28451 0.0
H349 H 0.27678 0.84461 0.20669 0.0
H350 H 0.42768 0.83923 0.08105 0.0
H351 H 0.33029 0.8682 0.40927 0.0
H352 H 0.3398 0.86133 0.15451 0.0
H353 H 0.43304 0.87705 0.3269 0.0
C354 C 0.45932 0.85897 0.24866 0.0
C355 C 0.45808 0.84742 0.17937 0.0
C356 C 0.33825 0.8643 0.21023 0.0
C357 C 0.40316 0.86745 0.22743 0.0
C358 C 0.30239 0.85568 0.23982 0.0
C359 C 0.2984 0.85465 0.31231 0.0
C360 C 0.36989 0.87149 0.25387 0.0
C361 C 0.3323 0.86851 0.35304 0.0
C362 C 0.43209 0.86914 0.27278 0.0
C363 C 0.42932 0.84709 0.13533 0.0
N364 N 0.36642 0.87512 0.32355 0.0
N365 N 0.4029 0.85663 0.16022 0.0
H366 H 0.53501 0.3207 0.59488 0.0
H367 H 0.6203 0.43371 0.24517 0.0
H368 H 0.47639 0.28096 0.39787 0.0
H369 H 0.66324 0.48602 0.44617 0.0
H370 H 0.56324 0.3809 0.30119 0.0
H371 H 0.57589 0.38528 0.54484 0.0
C372 C 0.52989 0.32615 0.54161 0.0
C373 C 0.50261 0.29578 0.50008 0.0
C374 C 0.58492 0.40402 0.33315 0.0
C375 C 0.55022 0.36875 0.44164 0.0
C376 C 0.61786 0.43398 0.30129 0.0
C377 C 0.64704 0.46391 0.34131 0.0
C378 C 0.58137 0.40346 0.40581 0.0
C379 C 0.64166 0.46326 0.4135 0.0
C380 C 0.55339 0.36287 0.51288 0.0
C381 C 0.4971 0.30386 0.4314 0.0
N382 N 0.60971 0.43317 0.44362 0.0
N383 N 0.52147 0.33947 0.40365 0.0
H384 H 0.19015 0.64752 0.644 0.0
H385 H 0.19611 0.46232 0.49802 0.0
H386 H 0.21888 0.63405 0.43284 0.0
H387 H 0.17615 0.47569 0.71363 0.0
H388 H 0.18734 0.51762 0.46881 0.0
H389 H 0.17374 0.58018 0.6682 0.0
C390 C 0.19311 0.63057 0.60283 0.0
C391 C 0.20568 0.64662 0.53618 0.0
C392 C 0.18359 0.50778 0.52237 0.0
C393 C 0.18672 0.56951 0.56331 0.0
C394 C 0.18749 0.47544 0.53868 0.0
C395 C 0.187 0.4646 0.60829 0.0
C396 C 0.17958 0.52947 0.57633 0.0
C397 C 0.17664 0.4832 0.65922 0.0
C398 C 0.18351 0.59206 0.61654 0.0
C399 C 0.20958 0.62333 0.48524 0.0
N400 N 0.17456 0.51557 0.64266 0.0
N401 N 0.2001 0.58613 0.49986 0.0
H402 H 0.87218 0.15969 0.11683 0.0
H403 H 0.65306 0.98678 0.08104 0.0
H404 H 0.77336 0.17843 0.11033 0.0
H405 H 0.7498 0.96949 0.13497 0.0
H406 H 0.69648 0.05739 0.09234 0.0
H407 H 0.8277 0.09027 0.1345 0.0
C408 C 0.84118 0.14939 0.12312 0.0
C409 C 0.82639 0.17477 0.11301 0.0
C410 C 0.70825 0.03813 0.10118 0.0
C411 C 0.77503 0.09511 0.12799 0.0
C412 C 0.6837 0.99799 0.09326 0.0
C413 C 0.69832 0.97257 0.10529 0.0
C414 C 0.74755 0.05271 0.12107 0.0
C415 C 0.73777 0.98833 0.12382 0.0
C416 C 0.81564 0.1096 0.13146 0.0
C417 C 0.78588 0.15979 0.11912 0.0
N418 N 0.76102 0.02731 0.13092 0.0
N419 N 0.76144 0.12074 0.12427 0.0
H420 H 0.69183 0.85923 0.25599 0.0
H421 H 0.6788 0.65354 0.20412 0.0
H422 H 0.58425 0.75483 0.2087 0.0
H423 H 0.77768 0.75129 0.29937 0.0
H424 H 0.64346 0.6903 0.20523 0.0
H425 H 0.72275 0.81983 0.2805 0.0
C426 C 0.67415 0.82782 0.25459 0.0
C427 C 0.63526 0.81015 0.23181 0.0
C428 C 0.67296 0.70373 0.22565 0.0
C429 C 0.67096 0.76501 0.25472 0.0
C430 C 0.69332 0.683 0.22385 0.0
C431 C 0.73143 0.69973 0.25063 0.0
C432 C 0.691 0.74146 0.25394 0.0
C433 C 0.74848 0.73758 0.2775 0.0
C434 C 0.692 0.80532 0.26694 0.0
C435 C 0.61409 0.76942 0.22772 0.0
N436 N 0.72827 0.75718 0.27826 0.0
N437 N 0.63239 0.74826 0.23749 0.0
H438 H 0.05088 0.70567 0.36168 0.0
H439 H 0.85136 0.7097 0.3958 0.0
H440 H 0.04148 0.78128 0.51163 0.0
H441 H 0.85893 0.60727 0.35019 0.0
H442 H 0.9219 0.74455 0.42332 0.0
H443 H 0.98239 0.68105 0.32987 0.0
C444 C 0.0351 0.71867 0.38529 0.0
C445 C 0.05185 0.74535 0.43983 0.0
C446 C 0.9078 0.71417 0.40888 0.0
C447 C 0.97311 0.71631 0.40544 0.0
C448 C 0.86748 0.69407 0.39491 0.0
C449 C 0.84914 0.6552 0.37301 0.0
C450 C 0.92985 0.69552 0.39827 0.0
C451 C 0.87175 0.63683 0.36901 0.0
C452 C 0.99566 0.70382 0.36845 0.0
C453 C 0.02959 0.76063 0.46936 0.0
N454 N 0.91096 0.65728 0.38028 0.0
N455 N 0.99107 0.74538 0.45277 0.0
H456 H 0.15595 0.85218 0.61377 0.0
H457 H 0.28208 0.04383 0.70994 0.0
H458 H 0.25944 0.84147 0.60114 0.0
H459 H 0.3641 0.03017 0.58087 0.0
H460 H 0.2394 0.97351 0.71089 0.0
H461 H 0.19645 0.92037 0.646 0.0
C462 C 0.18705 0.86374 0.62178 0.0
C463 C 0.20433 0.84104 0.6069 0.0
C464 C 0.2664 0.98581 0.6815 0.0
C465 C 0.25132 0.91952 0.64036 0.0
C466 C 0.29088 0.02597 0.68104 0.0
C467 C 0.32645 0.04299 0.64438 0.0
C468 C 0.27742 0.96219 0.64487 0.0
C469 C 0.33663 0.01841 0.60869 0.0
C470 C 0.21033 0.90285 0.63935 0.0
C471 C 0.245 0.85785 0.61434 0.0
N472 N 0.31223 0.97916 0.61002 0.0
N473 N 0.26728 0.89636 0.62897 0.0
H474 H 0.3397 0.15616 0.79367 0.0
H475 H 0.35153 0.36074 0.72374 0.0
H476 H 0.44704 0.26058 0.74433 0.0
H477 H 0.24858 0.25951 0.80119 0.0
H478 H 0.38811 0.32543 0.73516 0.0
H479 H 0.30768 0.19506 0.81047 0.0
C480 C 0.35709 0.18755 0.79039 0.0
C481 C 0.39616 0.20526 0.76855 0.0
C482 C 0.35743 0.31086 0.74919 0.0
C483 C 0.35925 0.24981 0.78274 0.0
C484 C 0.33644 0.33078 0.74134 0.0
C485 C 0.29679 0.31259 0.75999 0.0
C486 C 0.33854 0.27258 0.7757 0.0
C487 C 0.27896 0.27424 0.78508 0.0
C488 C 0.33859 0.20975 0.79814 0.0
C489 C 0.41699 0.24595 0.76233 0.0
N490 N 0.29985 0.25552 0.79203 0.0
N491 N 0.3981 0.26678 0.76763 0.0
H492 H 0.98029 0.31019 0.86639 0.0
H493 H 0.17818 0.30381 0.90276 0.0
H494 H 0.98788 0.23353 0.0178 0.0
H495 H 0.17215 0.40753 0.8598 0.0
H496 H 0.10767 0.26943 0.93029 0.0
H497 H 0.04891 0.33444 0.8362 0.0
C498 C 0.99571 0.2969 0.89066 0.0
C499 C 0.97844 0.27005 0.94516 0.0
C500 C 0.12212 0.29998 0.91652 0.0
C501 C 0.05726 0.29863 0.91262 0.0
C502 C 0.16241 0.31981 0.90259 0.0
C503 C 0.18114 0.35886 0.88114 0.0
C504 C 0.1005 0.31915 0.90636 0.0
C505 C 0.15901 0.37777 0.87814 0.0
C506 C 0.03521 0.31153 0.87475 0.0
C507 C 1.00022 0.25435 0.97556 0.0
N508 N 0.11978 0.35759 0.88924 0.0
N509 N 0.03881 0.26938 0.95986 0.0
H510 H 0.05437 0.42095 0.23458 0.0
H511 H 0.10424 0.6391 0.30274 0.0
H512 H 1.00005 0.47779 0.12653 0.0
H513 H 0.12468 0.56722 0.44744 0.0
H514 H 0.08564 0.5884 0.21424 0.0
H515 H 0.10075 0.48337 0.28716 0.0
C516 C 0.05279 0.4467 0.2208 0.0
C517 C 0.02272 0.44419 0.17817 0.0
C518 C 0.09493 0.58423 0.26512 0.0
C519 C 0.07521 0.51509 0.23752 0.0
C520 C 0.10539 0.613 0.31551 0.0
C521 C 0.11502 0.60684 0.38286 0.0
C522 C 0.09457 0.54951 0.28246 0.0
C523 C 0.11658 0.57279 0.3966 0.0
C524 C 0.07913 0.48221 0.25077 0.0
C525 C 0.02215 0.47841 0.16106 0.0
N526 N 0.10606 0.54524 0.34705 0.0
N527 N 0.04763 0.51243 0.19171 0.0
H528 H 0.48275 0.08748 0.46821 0.0
H529 H 0.65182 0.03571 0.40851 0.0
H530 H 0.54527 0.06453 0.62973 0.0
H531 H 0.58054 0.04111 0.24315 0.0
H532 H 0.62688 0.06729 0.48591 0.0
H533 H 0.52808 0.08611 0.38211 0.0
C534 C 0.50588 0.08219 0.48556 0.0
C535 C 0.50994 0.07592 0.55625 0.0
C536 C 0.61758 0.06271 0.43204 0.0
C537 C 0.56222 0.07501 0.45871 0.0
C538 C 0.63253 0.04546 0.38753 0.0
C539 C 0.61757 0.03528 0.3201 0.0
C540 C 0.58741 0.06932 0.40851 0.0
C541 C 0.59228 0.04815 0.29544 0.0
C542 C 0.53192 0.08171 0.43659 0.0
C543 C 0.54047 0.06903 0.57581 0.0
N544 N 0.577 0.06349 0.34024 0.0
N545 N 0.56529 0.06875 0.52742 0.0
H546 H 0.61455 0.64278 0.55129 0.0
H547 H 0.3935 0.47055 0.5841 0.0
H548 H 0.55125 0.56481 0.38363 0.0
H549 H 0.46799 0.5367 0.75496 0.0
H550 H 0.4446 0.51463 0.50266 0.0
H551 H 0.55338 0.61674 0.6173 0.0
C552 C 0.58744 0.62151 0.52715 0.0
C553 C 0.58775 0.60557 0.46256 0.0
C554 C 0.44942 0.51953 0.55809 0.0
C555 C 0.51833 0.57447 0.53822 0.0
C556 C 0.4204 0.49424 0.60447 0.0
C557 C 0.42662 0.49943 0.67647 0.0
C558 C 0.48461 0.5503 0.58415 0.0
C559 C 0.46201 0.5309 0.69999 0.0
C560 C 0.55263 0.6061 0.56517 0.0
C561 C 0.55199 0.57755 0.43378 0.0
N562 N 0.48955 0.55493 0.6541 0.0
N563 N 0.51878 0.56219 0.47244 0.0
H564 H 0.02813 0.53692 0.61941 0.0
H565 H 0.90351 0.44744 0.95125 0.0
H566 H 0.97599 0.59317 0.73427 0.0
H567 H 0.92578 0.37805 0.80523 0.0
H568 H 0.92089 0.4971 0.86293 0.0
H569 H 0.9824 0.47522 0.67389 0.0
C570 C 1.00652 0.53607 0.65536 0.0
C571 C 1.00643 0.57024 0.67415 0.0
C572 C 0.92144 0.47083 0.84951 0.0
C573 C 0.95445 0.49998 0.73711 0.0
C574 C 0.91173 0.44247 0.90019 0.0
C575 C 0.91404 0.40893 0.88595 0.0
C576 C 0.93474 0.46628 0.78454 0.0
C577 C 0.92429 0.40383 0.81861 0.0
C578 C 0.98028 0.5008 0.68611 0.0
C579 C 0.97735 0.56752 0.71938 0.0
N580 N 0.93518 0.43273 0.77064 0.0
N581 N 0.95303 0.53305 0.75077 0.0
H582 H 0.54442 0.93303 0.93045 0.0
H583 H 0.3598 0.96606 0.89281 0.0
H584 H 0.47581 0.93797 0.10143 0.0
H585 H 0.45126 0.00744 0.73835 0.0
H586 H 0.39399 0.93896 0.95917 0.0
H587 H 0.50364 0.94653 0.84967 0.0
C588 C 0.52103 0.93704 0.95096 0.0
C589 C 0.51407 0.93512 0.0229 0.0
C590 C 0.40635 0.95363 0.91029 0.0
C591 C 0.46688 0.9491 0.93141 0.0
C592 C 0.38668 0.9688 0.87222 0.0
C593 C 0.4032 0.98965 0.8108 0.0
C594 C 0.44257 0.95914 0.88643 0.0
C595 C 0.4381 0.99229 0.78638 0.0
C596 C 0.49773 0.94453 0.90501 0.0
C597 C 0.48294 0.93994 0.04663 0.0
N598 N 0.45692 0.97756 0.82458 0.0
N599 N 0.46058 0.94657 0.00114 0.0
H600 H 0.47649 0.44001 0.88148 0.0
H601 H 0.5643 0.46799 0.25981 0.0
H602 H 0.41392 0.36874 0.0576 0.0
H603 H 0.63047 0.53861 0.08469 0.0
H604 H 0.5137 0.42413 0.18137 0.0
H605 H 0.53752 0.46626 0.94719 0.0
C606 C 0.47599 0.42857 0.93305 0.0
C607 C 0.44026 0.40235 0.96453 0.0
C608 C 0.53926 0.44904 0.15968 0.0
C609 C 0.5095 0.43346 0.04098 0.0
C610 C 0.56819 0.47454 0.20464 0.0
C611 C 0.60153 0.50771 0.17901 0.0
C612 C 0.54299 0.45678 0.08809 0.0
C613 C 0.6051 0.51373 0.10679 0.0
C614 C 0.51074 0.44398 0.97088 0.0
C615 C 0.44093 0.38875 0.03148 0.0
N616 N 0.57585 0.48876 0.06382 0.0
N617 N 0.47494 0.4052 0.06821 0.0
loop_
_geom_bond_atom_site_label_1
_geom_bond_atom_site_label_2
_geom_bond_distance
_geom_bond_site_symmetry_2
_ccdc_geom_bond_type
C0 O12 1.241 . S
C0 O13 1.280 . S
C1 O14 1.277 . S
C1 O15 1.245 . S
C2 O26 1.247 1_556 S
C2 O28 1.289 . S
Mg3 O4 1.926 . S
Mg3 O13 1.984 . S
Mg3 O15 1.988 . S
Mg3 O16 2.061 . S
O4 Mg3 1.926 . S
O4 Mg5 1.986 . S
O4 Mg6 1.914 1_556 S
Mg5 O4 1.986 . S
Mg5 O12 2.042 . S
Mg5 O14 2.041 . S
Mg5 O20 2.038 . S
Mg5 O28 2.238 . S
Mg6 O4 1.914 1_554 S
Mg6 O7 1.920 . S
Mg6 O17 2.108 . S
Mg6 O19 2.081 . S
Mg6 O28 2.104 1_554 S
Mg6 O29 2.076 1_554 S
O7 Mg6 1.920 . S
O7 Mg8 1.926 . S
O7 Mg9 1.986 . S
Mg8 O7 1.926 . S
Mg8 O22 1.984 . S
Mg8 O25 1.988 . S
Mg8 O26 2.061 . S
Mg9 O7 1.986 . S
Mg9 O17 2.238 . S
Mg9 O21 2.042 . S
Mg9 O23 2.041 . S
Mg9 O30 2.038 . S
C10 O16 1.247 1_554 S
C10 O17 1.289 . S
C11 O29 1.245 . S
C11 O30 1.274 1_556 S
O12 C0 1.241 . S
O12 Mg5 2.042 . S
O13 C0 1.280 . S
O13 Mg3 1.984 . S
O14 C1 1.277 . S
O14 Mg5 2.041 . S
O15 C1 1.245 . S
O15 Mg3 1.988 . S
O16 Mg3 2.061 . S
O16 C10 1.247 1_556 S
O17 Mg6 2.108 . S
O17 Mg9 2.238 . S
O17 C10 1.289 . S
C18 O19 1.245 . S
C18 O20 1.274 1_554 S
O19 Mg6 2.081 . S
O19 C18 1.245 . S
O20 Mg5 2.038 . S
O20 C18 1.274 1_556 S
O21 Mg9 2.042 . S
O21 C24 1.241 . S
O22 Mg8 1.984 . S
O22 C24 1.280 . S
O23 Mg9 2.041 . S
O23 C27 1.277 . S
C24 O21 1.241 . S
C24 O22 1.280 . S
O25 Mg8 1.988 . S
O25 C27 1.245 . S
O26 C2 1.247 1_554 S
O26 Mg8 2.061 . S
C27 O23 1.277 . S
C27 O25 1.245 . S
O28 C2 1.289 . S
O28 Mg5 2.238 . S
O28 Mg6 2.104 1_556 S
O29 Mg6 2.076 1_556 S
O29 C11 1.245 . S
O30 Mg9 2.038 . S
O30 C11 1.274 1_554 S
C31 O43 1.241 . S
C31 O44 1.280 . S
C32 O45 1.277 . S
C32 O46 1.245 . S
C33 O57 1.247 . S
C33 O59 1.289 . S
Mg34 O35 1.926 . S
Mg34 O44 1.984 . S
Mg34 O46 1.988 1_554 S
Mg34 O47 2.061 . S
O35 Mg34 1.926 . S
O35 Mg36 1.986 . S
O35 Mg37 1.917 . S
Mg36 O35 1.986 . S
Mg36 O43 2.042 . S
Mg36 O45 2.041 1_554 S
Mg36 O51 2.038 . S
Mg36 O59 2.238 . S
Mg37 O35 1.917 . S
Mg37 O38 1.917 . S
Mg37 O48 2.106 . S
Mg37 O50 2.079 . S
Mg37 O59 2.106 . S
Mg37 O60 2.079 . S
O38 Mg37 1.917 . S
O38 Mg39 1.926 . S
O38 Mg40 1.986 . S
Mg39 O38 1.926 . S
Mg39 O53 1.984 . S
Mg39 O56 1.988 . S
Mg39 O57 2.061 . S
Mg40 O38 1.986 . S
Mg40 O48 2.238 . S
Mg40 O52 2.042 . S
Mg40 O54 2.041 . S
Mg40 O61 2.038 . S
C41 O47 1.247 . S
C41 O48 1.289 . S
C42 O60 1.245 . S
C42 O61 1.274 . S
O43 C31 1.241 . S
O43 Mg36 2.042 . S
O44 C31 1.280 . S
O44 Mg34 1.984 . S
O45 C32 1.277 . S
O45 Mg36 2.041 1_556 S
O46 C32 1.245 . S
O46 Mg34 1.988 1_556 S
O47 Mg34 2.061 . S
O47 C41 1.247 . S
O48 Mg37 2.106 . S
O48 Mg40 2.238 . S
O48 C41 1.289 . S
C49 O50 1.245 . S
C49 O51 1.274 . S
O50 Mg37 2.079 . S
O50 C49 1.245 . S
O51 Mg36 2.038 . S
O51 C49 1.274 . S
O52 Mg40 2.042 . S
O52 C55 1.241 . S
O53 Mg39 1.984 . S
O53 C55 1.280 . S
O54 Mg40 2.041 . S
O54 C58 1.277 . S
C55 O52 1.241 . S
C55 O53 1.280 . S
O56 Mg39 1.988 . S
O56 C58 1.245 . S
O57 C33 1.247 . S
O57 Mg39 2.061 . S
C58 O54 1.277 . S
C58 O56 1.245 . S
O59 C33 1.289 . S
O59 Mg36 2.238 . S
O59 Mg37 2.106 . S
O60 Mg37 2.079 . S
O60 C42 1.245 . S
O61 Mg40 2.038 . S
O61 C42 1.274 . S
C62 O74 1.241 . S
C62 O75 1.280 . S
C63 O76 1.277 . S
C63 O77 1.245 . S
C64 O88 1.247 . S
C64 O90 1.289 . S
Mg65 O66 1.926 . S
Mg65 O75 1.984 . S
Mg65 O77 1.988 . S
Mg65 O78 2.061 . S
O66 Mg65 1.926 . S
O66 Mg67 1.986 . S
O66 Mg68 1.917 . S
Mg67 O66 1.986 . S
Mg67 O74 2.042 . S
Mg67 O76 2.041 . S
Mg67 O82 2.038 . S
Mg67 O90 2.238 . S
Mg68 O66 1.917 . S
Mg68 O69 1.917 . S
Mg68 O79 2.106 . S
Mg68 O81 2.079 . S
Mg68 O90 2.106 . S
Mg68 O91 2.079 . S
O69 Mg68 1.917 . S
O69 Mg70 1.926 . S
O69 Mg71 1.986 . S
Mg70 O69 1.926 . S
Mg70 O84 1.984 . S
Mg70 O87 1.988 . S
Mg70 O88 2.061 . S
Mg71 O69 1.986 . S
Mg71 O79 2.238 . S
Mg71 O83 2.042 . S
Mg71 O85 2.041 . S
Mg71 O92 2.038 . S
C72 O78 1.247 . S
C72 O79 1.289 . S
C73 O91 1.245 . S
C73 O92 1.274 . S
O74 C62 1.241 . S
O74 Mg67 2.042 . S
O75 C62 1.280 . S
O75 Mg65 1.984 . S
O76 C63 1.277 . S
O76 Mg67 2.041 . S
O77 C63 1.245 . S
O77 Mg65 1.988 . S
O78 Mg65 2.061 . S
O78 C72 1.247 . S
O79 Mg68 2.106 . S
O79 Mg71 2.238 . S
O79 C72 1.289 . S
C80 O81 1.245 . S
C80 O82 1.274 . S
O81 Mg68 2.079 . S
O81 C80 1.245 . S
O82 Mg67 2.038 . S
O82 C80 1.274 . S
O83 Mg71 2.042 . S
O83 C86 1.241 . S
O84 Mg70 1.984 . S
O84 C86 1.280 . S
O85 Mg71 2.041 . S
O85 C89 1.277 . S
C86 O83 1.241 . S
C86 O84 1.280 . S
O87 Mg70 1.988 . S
O87 C89 1.245 . S
O88 C64 1.247 . S
O88 Mg70 2.061 . S
C89 O85 1.277 . S
C89 O87 1.245 . S
O90 C64 1.289 . S
O90 Mg67 2.238 . S
O90 Mg68 2.106 . S
O91 Mg68 2.079 . S
O91 C73 1.245 . S
O92 Mg71 2.038 . S
O92 C73 1.274 . S
C93 O105 1.241 . S
C93 O106 1.280 . S
C94 O107 1.277 . S
C94 O108 1.245 . S
C95 O119 1.247 . S
C95 O121 1.289 . S
Mg96 O97 1.926 . S
Mg96 O106 1.984 . S
Mg96 O108 1.988 . S
Mg96 O109 2.061 . S
O97 Mg96 1.926 . S
O97 Mg98 1.986 . S
O97 Mg99 1.917 . S
Mg98 O97 1.986 . S
Mg98 O105 2.042 . S
Mg98 O107 2.041 . S
Mg98 O113 2.038 . S
Mg98 O121 2.238 . S
Mg99 O97 1.917 . S
Mg99 O100 1.917 . S
Mg99 O110 2.106 . S
Mg99 O112 2.079 . S
Mg99 O121 2.106 . S
Mg99 O122 2.079 . S
O100 Mg99 1.917 . S
O100 Mg101 1.926 . S
O100 Mg102 1.986 . S
Mg101 O100 1.926 . S
Mg101 O115 1.984 . S
Mg101 O118 1.988 . S
Mg101 O119 2.061 . S
Mg102 O100 1.986 . S
Mg102 O110 2.238 . S
Mg102 O114 2.042 . S
Mg102 O116 2.041 . S
Mg102 O123 2.038 . S
C103 O109 1.247 . S
C103 O110 1.289 . S
C104 O122 1.245 . S
C104 O123 1.274 . S
O105 C93 1.241 . S
O105 Mg98 2.042 . S
O106 C93 1.280 . S
O106 Mg96 1.984 . S
O107 C94 1.277 . S
O107 Mg98 2.041 . S
O108 C94 1.245 . S
O108 Mg96 1.988 . S
O109 Mg96 2.061 . S
O109 C103 1.247 . S
O110 Mg99 2.106 . S
O110 Mg102 2.238 . S
O110 C103 1.289 . S
C111 O112 1.245 . S
C111 O113 1.274 . S
O112 Mg99 2.079 . S
O112 C111 1.245 . S
O113 Mg98 2.038 . S
O113 C111 1.274 . S
O114 Mg102 2.042 . S
O114 C117 1.241 . S
O115 Mg101 1.984 . S
O115 C117 1.280 . S
O116 Mg102 2.041 . S
O116 C120 1.277 . S
C117 O114 1.241 . S
C117 O115 1.280 . S
O118 Mg101 1.988 . S
O118 C120 1.245 . S
O119 C95 1.247 . S
O119 Mg101 2.061 . S
C120 O116 1.277 . S
C120 O118 1.245 . S
O121 C95 1.289 . S
O121 Mg98 2.238 . S
O121 Mg99 2.106 . S
O122 Mg99 2.079 . S
O122 C104 1.245 . S
O123 Mg102 2.038 . S
O123 C104 1.274 . S
C124 O136 1.241 . S
C124 O137 1.280 . S
C125 O138 1.277 . S
C125 O139 1.245 . S
C126 O150 1.247 . S
C126 O152 1.289 . S
Mg127 O128 1.926 . S
Mg127 O137 1.984 . S
Mg127 O139 1.988 . S
Mg127 O140 2.061 . S
O128 Mg127 1.926 . S
O128 Mg129 1.986 . S
O128 Mg130 1.917 . S
Mg129 O128 1.986 . S
Mg129 O136 2.042 . S
Mg129 O138 2.041 . S
Mg129 O144 2.038 . S
Mg129 O152 2.238 . S
Mg130 O128 1.917 . S
Mg130 O131 1.917 . S
Mg130 O141 2.106 . S
Mg130 O143 2.079 . S
Mg130 O152 2.106 . S
Mg130 O153 2.079 . S
O131 Mg130 1.917 . S
O131 Mg132 1.926 . S
O131 Mg133 1.986 . S
Mg132 O131 1.926 . S
Mg132 O146 1.984 . S
Mg132 O149 1.988 . S
Mg132 O150 2.061 . S
Mg133 O131 1.986 . S
Mg133 O141 2.238 . S
Mg133 O145 2.042 . S
Mg133 O147 2.041 . S
Mg133 O154 2.038 . S
C134 O140 1.247 . S
C134 O141 1.289 . S
C135 O153 1.245 . S
C135 O154 1.274 . S
O136 C124 1.241 . S
O136 Mg129 2.042 . S
O137 C124 1.280 . S
O137 Mg127 1.984 . S
O138 C125 1.277 . S
O138 Mg129 2.041 . S
O139 C125 1.245 . S
O139 Mg127 1.988 . S
O140 Mg127 2.061 . S
O140 C134 1.247 . S
O141 Mg130 2.106 . S
O141 Mg133 2.238 . S
O141 C134 1.289 . S
C142 O143 1.245 . S
C142 O144 1.274 . S
O143 Mg130 2.079 . S
O143 C142 1.245 . S
O144 Mg129 2.038 . S
O144 C142 1.274 . S
O145 Mg133 2.042 . S
O145 C148 1.241 . S
O146 Mg132 1.984 . S
O146 C148 1.280 . S
O147 Mg133 2.041 . S
O147 C151 1.277 . S
C148 O145 1.241 . S
C148 O146 1.280 . S
O149 Mg132 1.988 . S
O149 C151 1.245 . S
O150 C126 1.247 . S
O150 Mg132 2.061 . S
C151 O147 1.277 . S
C151 O149 1.245 . S
O152 C126 1.289 . S
O152 Mg129 2.238 . S
O152 Mg130 2.106 . S
O153 Mg130 2.079 . S
O153 C135 1.245 . S
O154 Mg133 2.038 . S
O154 C135 1.274 . S
C155 O167 1.241 . S
C155 O168 1.280 . S
C156 O169 1.277 . S
C156 O170 1.245 . S
C157 O181 1.247 . S
C157 O183 1.289 . S
Mg158 O159 1.926 . S
Mg158 O168 1.984 . S
Mg158 O170 1.988 . S
Mg158 O171 2.061 . S
O159 Mg158 1.926 . S
O159 Mg160 1.986 . S
O159 Mg161 1.917 . S
Mg160 O159 1.986 . S
Mg160 O167 2.042 . S
Mg160 O169 2.041 . S
Mg160 O175 2.038 . S
Mg160 O183 2.238 . S
Mg161 O159 1.917 . S
Mg161 O162 1.917 . S
Mg161 O172 2.106 . S
Mg161 O174 2.079 . S
Mg161 O183 2.106 . S
Mg161 O184 2.079 . S
O162 Mg161 1.917 . S
O162 Mg163 1.926 . S
O162 Mg164 1.986 . S
Mg163 O162 1.926 . S
Mg163 O177 1.984 . S
Mg163 O180 1.988 1_556 S
Mg163 O181 2.061 . S
Mg164 O162 1.986 . S
Mg164 O172 2.238 . S
Mg164 O176 2.042 . S
Mg164 O178 2.041 1_556 S
Mg164 O185 2.038 . S
C165 O171 1.247 . S
C165 O172 1.289 . S
C166 O184 1.245 . S
C166 O185 1.274 . S
O167 C155 1.241 . S
O167 Mg160 2.042 . S
O168 C155 1.280 . S
O168 Mg158 1.984 . S
O169 C156 1.277 . S
O169 Mg160 2.041 . S
O170 C156 1.245 . S
O170 Mg158 1.988 . S
O171 Mg158 2.061 . S
O171 C165 1.247 . S
O172 Mg161 2.106 . S
O172 Mg164 2.238 . S
O172 C165 1.289 . S
C173 O174 1.245 . S
C173 O175 1.274 . S
O174 Mg161 2.079 . S
O174 C173 1.245 . S
O175 Mg160 2.038 . S
O175 C173 1.274 . S
O176 Mg164 2.042 . S
O176 C179 1.241 . S
O177 Mg163 1.984 . S
O177 C179 1.280 . S
O178 Mg164 2.041 1_554 S
O178 C182 1.277 . S
C179 O176 1.241 . S
C179 O177 1.280 . S
O180 Mg163 1.988 1_554 S
O180 C182 1.245 . S
O181 C157 1.247 . S
O181 Mg163 2.061 . S
C182 O178 1.277 . S
C182 O180 1.245 . S
O183 C157 1.289 . S
O183 Mg160 2.238 . S
O183 Mg161 2.106 . S
O184 Mg161 2.079 . S
O184 C166 1.245 . S
O185 Mg164 2.038 . S
O185 C166 1.274 . S
H186 C192 0.930 . S
H187 C196 0.930 . S
H188 C201 0.929 . S
H189 C199 0.929 . S
H190 C194 0.929 . S
H191 C200 0.929 . S
C192 H186 0.930 . S
C192 C193 1.367 . S
C192 C200 1.378 . S
C193 C192 1.367 . S
C193 C201 1.433 . S
C194 H190 0.929 . S
C194 C196 1.378 . S
C194 C198 1.350 . S
C195 C198 1.463 . S
C195 C200 1.350 . S
C195 N203 1.427 . S
C196 H187 0.930 . S
C196 C194 1.378 . S
C196 C197 1.367 . S
C197 C196 1.367 . S
C197 C199 1.433 . S
C198 C194 1.350 . S
C198 C195 1.463 . S
C198 N202 1.427 . S
C199 H189 0.929 . S
C199 C197 1.433 . S
C199 N202 1.384 . S
C200 H191 0.929 . S
C200 C192 1.378 . S
C200 C195 1.350 . S
C201 H188 0.929 . S
C201 C193 1.433 . S
C201 N203 1.384 . S
N202 C198 1.427 . S
N202 C199 1.384 . S
N203 C195 1.427 . S
N203 C201 1.384 . S
H204 C210 0.930 . S
H205 C214 0.930 . S
H206 C219 0.929 . S
H207 C217 0.929 . S
H208 C212 0.929 . S
H209 C218 0.929 . S
C210 H204 0.930 . S
C210 C211 1.367 . S
C210 C218 1.378 . S
C211 C210 1.367 . S
C211 C219 1.433 . S
C212 H208 0.929 . S
C212 C214 1.378 . S
C212 C216 1.350 . S
C213 C216 1.463 . S
C213 C218 1.350 . S
C213 N221 1.427 . S
C214 H205 0.930 . S
C214 C212 1.378 . S
C214 C215 1.367 . S
C215 C214 1.367 . S
C215 C217 1.433 . S
C216 C212 1.350 . S
C216 C213 1.463 . S
C216 N220 1.427 . S
C217 H207 0.929 . S
C217 C215 1.433 . S
C217 N220 1.384 . S
C218 H209 0.929 . S
C218 C210 1.378 . S
C218 C213 1.350 . S
C219 H206 0.929 . S
C219 C211 1.433 . S
C219 N221 1.384 . S
N220 C216 1.427 . S
N220 C217 1.384 . S
N221 C213 1.427 . S
N221 C219 1.384 . S
H222 C228 0.930 1_554 S
H223 C232 0.930 . S
H224 C237 0.929 1_554 S
H225 C235 0.929 . S
H226 C230 0.929 . S
H227 C236 0.929 . S
C228 H222 0.930 1_556 S
C228 C229 1.367 1_556 S
C228 C236 1.378 . S
C229 C228 1.367 1_554 S
C229 C237 1.433 1_554 S
C230 H226 0.929 . S
C230 C232 1.378 . S
C230 C234 1.350 . S
C231 C234 1.463 . S
C231 C236 1.350 . S
C231 N239 1.427 . S
C232 H223 0.930 . S
C232 C230 1.378 . S
C232 C233 1.367 . S
C233 C232 1.367 . S
C233 C235 1.433 . S
C234 C230 1.350 . S
C234 C231 1.463 . S
C234 N238 1.427 . S
C235 H225 0.929 . S
C235 C233 1.433 . S
C235 N238 1.384 . S
C236 H227 0.929 . S
C236 C228 1.378 . S
C236 C231 1.350 . S
C237 H224 0.929 1_556 S
C237 C229 1.433 1_556 S
C237 N239 1.384 . S
N238 C234 1.427 . S
N238 C235 1.384 . S
N239 C231 1.427 . S
N239 C237 1.384 . S
H240 C246 0.930 . S
H241 C250 0.930 . S
H242 C255 0.929 . S
H243 C253 0.929 . S
H244 C248 0.929 . S
H245 C254 0.929 . S
C246 H240 0.930 . S
C246 C247 1.367 . S
C246 C254 1.378 . S
C247 C246 1.367 . S
C247 C255 1.433 . S
C248 H244 0.929 . S
C248 C250 1.378 . S
C248 C252 1.350 . S
C249 C252 1.463 1_554 S
C249 C254 1.350 . S
C249 N257 1.427 . S
C250 H241 0.930 . S
C250 C248 1.378 . S
C250 C251 1.367 . S
C251 C250 1.367 . S
C251 C253 1.433 . S
C252 C248 1.350 . S
C252 C249 1.463 1_556 S
C252 N256 1.427 . S
C253 H243 0.929 . S
C253 C251 1.433 . S
C253 N256 1.384 . S
C254 H245 0.929 . S
C254 C246 1.378 . S
C254 C249 1.350 . S
C255 H242 0.929 . S
C255 C247 1.433 . S
C255 N257 1.384 . S
N256 C252 1.427 . S
N256 C253 1.384 . S
N257 C249 1.427 . S
N257 C255 1.384 . S
H258 C264 0.930 1_556 S
H259 C268 0.930 . S
H260 C273 0.929 1_556 S
H261 C271 0.929 . S
H262 C266 0.929 . S
H263 C272 0.929 . S
C264 H258 0.930 1_554 S
C264 C265 1.367 1_554 S
C264 C272 1.378 . S
C265 C264 1.367 1_556 S
C265 C273 1.433 1_556 S
C266 H262 0.929 . S
C266 C268 1.378 . S
C266 C270 1.350 . S
C267 C270 1.463 . S
C267 C272 1.350 . S
C267 N275 1.427 . S
C268 H259 0.930 . S
C268 C266 1.378 . S
C268 C269 1.367 . S
C269 C268 1.367 . S
C269 C271 1.433 . S
C270 C266 1.350 . S
C270 C267 1.463 . S
C270 N274 1.427 . S
C271 H261 0.929 . S
C271 C269 1.433 . S
C271 N274 1.384 . S
C272 H263 0.929 . S
C272 C264 1.378 . S
C272 C267 1.350 . S
C273 H260 0.929 1_554 S
C273 C265 1.433 1_554 S
C273 N275 1.384 . S
N274 C270 1.427 . S
N274 C271 1.384 . S
N275 C267 1.427 . S
N275 C273 1.384 . S
H276 C282 0.930 . S
H277 C286 0.930 . S
H278 C291 0.929 . S
H279 C289 0.929 . S
H280 C284 0.929 . S
H281 C290 0.929 . S
C282 H276 0.930 . S
C282 C283 1.367 . S
C282 C290 1.378 . S
C283 C282 1.367 . S
C283 C291 1.433 . S
C284 H280 0.929 . S
C284 C286 1.378 . S
C284 C288 1.350 . S
C285 C288 1.463 . S
C285 C290 1.350 . S
C285 N293 1.427 . S
C286 H277 0.930 . S
C286 C284 1.378 . S
C286 C287 1.367 . S
C287 C286 1.367 . S
C287 C289 1.433 . S
C288 C284 1.350 . S
C288 C285 1.463 . S
C288 N292 1.427 . S
C289 H279 0.929 . S
C289 C287 1.433 . S
C289 N292 1.384 . S
C290 H281 0.929 . S
C290 C282 1.378 . S
C290 C285 1.350 . S
C291 H278 0.929 . S
C291 C283 1.433 . S
C291 N293 1.384 . S
N292 C288 1.427 . S
N292 C289 1.384 . S
N293 C285 1.427 . S
N293 C291 1.384 . S
H294 C300 0.930 . S
H295 C304 0.930 . S
H296 C309 0.929 . S
H297 C307 0.929 . S
H298 C302 0.929 . S
H299 C308 0.929 . S
C300 H294 0.930 . S
C300 C301 1.367 . S
C300 C308 1.378 . S
C301 C300 1.367 . S
C301 C309 1.433 . S
C302 H298 0.929 . S
C302 C304 1.378 . S
C302 C306 1.350 . S
C303 C306 1.463 . S
C303 C308 1.350 . S
C303 N311 1.427 . S
C304 H295 0.930 . S
C304 C302 1.378 . S
C304 C305 1.367 . S
C305 C304 1.367 . S
C305 C307 1.433 . S
C306 C302 1.350 . S
C306 C303 1.463 . S
C306 N310 1.427 . S
C307 H297 0.929 . S
C307 C305 1.433 . S
C307 N310 1.384 . S
C308 H299 0.929 . S
C308 C300 1.378 . S
C308 C303 1.350 . S
C309 H296 0.929 . S
C309 C301 1.433 . S
C309 N311 1.384 . S
N310 C306 1.427 . S
N310 C307 1.384 . S
N311 C303 1.427 . S
N311 C309 1.384 . S
H312 C318 0.930 . S
H313 C322 0.930 . S
H314 C327 0.929 . S
H315 C325 0.929 1_554 S
H316 C320 0.929 . S
H317 C326 0.929 . S
C318 H312 0.930 . S
C318 C319 1.367 . S
C318 C326 1.378 . S
C319 C318 1.367 . S
C319 C327 1.433 1_554 S
C320 H316 0.929 . S
C320 C322 1.378 . S
C320 C324 1.350 . S
C321 C324 1.463 . S
C321 C326 1.350 1_556 S
C321 N329 1.427 . S
C322 H313 0.930 . S
C322 C320 1.378 . S
C322 C323 1.367 . S
C323 C322 1.367 . S
C323 C325 1.433 . S
C324 C320 1.350 . S
C324 C321 1.463 . S
C324 N328 1.427 . S
C325 H315 0.929 1_556 S
C325 C323 1.433 . S
C325 N328 1.384 . S
C326 H317 0.929 . S
C326 C318 1.378 . S
C326 C321 1.350 1_554 S
C327 H314 0.929 . S
C327 C319 1.433 1_556 S
C327 N329 1.384 . S
N328 C324 1.427 . S
N328 C325 1.384 . S
N329 C321 1.427 . S
N329 C327 1.384 . S
H330 C336 0.930 . S
H331 C340 0.930 . S
H332 C345 0.933 . S
H333 C343 0.929 . S
H334 C338 0.929 . S
H335 C344 0.929 . S
C336 H330 0.930 . S
C336 C337 1.367 . S
C336 C344 1.378 . S
C337 C336 1.367 . S
C337 C345 1.433 . S
C338 H334 0.929 . S
C338 C340 1.378 . S
C338 C342 1.350 . S
C339 C342 1.463 . S
C339 C344 1.350 . S
C339 N347 1.427 . S
C340 H331 0.930 . S
C340 C338 1.378 . S
C340 C341 1.367 . S
C341 C340 1.367 . S
C341 C343 1.433 . S
C342 C338 1.350 . S
C342 C339 1.463 . S
C342 N346 1.427 . S
C343 H333 0.929 . S
C343 C341 1.433 . S
C343 N346 1.384 . S
C344 H335 0.929 . S
C344 C336 1.378 . S
C344 C339 1.350 . S
C345 H332 0.933 . S
C345 C337 1.433 . S
C345 N347 1.384 . S
N346 C342 1.427 . S
N346 C343 1.384 . S
N347 C339 1.427 . S
N347 C345 1.384 . S
H348 C354 0.930 . S
H349 C358 0.930 . S
H350 C363 0.929 . S
H351 C361 0.929 . S
H352 C356 0.929 . S
H353 C362 0.929 . S
C354 H348 0.930 . S
C354 C355 1.367 . S
C354 C362 1.378 . S
C355 C354 1.367 . S
C355 C363 1.433 . S
C356 H352 0.929 . S
C356 C358 1.378 . S
C356 C360 1.350 . S
C357 C360 1.463 . S
C357 C362 1.350 . S
C357 N365 1.427 . S
C358 H349 0.930 . S
C358 C356 1.378 . S
C358 C359 1.367 . S
C359 C358 1.367 . S
C359 C361 1.433 . S
C360 C356 1.350 . S
C360 C357 1.463 . S
C360 N364 1.427 . S
C361 H351 0.929 . S
C361 C359 1.433 . S
C361 N364 1.384 . S
C362 H353 0.929 . S
C362 C354 1.378 . S
C362 C357 1.350 . S
C363 H350 0.929 . S
C363 C355 1.433 . S
C363 N365 1.384 . S
N364 C360 1.427 . S
N364 C361 1.384 . S
N365 C357 1.427 . S
N365 C363 1.384 . S
H366 C372 0.930 . S
H367 C376 0.930 . S
H368 C381 0.929 . S
H369 C379 0.929 . S
H370 C374 0.929 . S
H371 C380 0.929 . S
C372 H366 0.930 . S
C372 C373 1.367 . S
C372 C380 1.378 . S
C373 C372 1.367 . S
C373 C381 1.433 . S
C374 H370 0.929 . S
C374 C376 1.378 . S
C374 C378 1.350 . S
C375 C378 1.463 . S
C375 C380 1.350 . S
C375 N383 1.427 . S
C376 H367 0.930 . S
C376 C374 1.378 . S
C376 C377 1.367 . S
C377 C376 1.367 . S
C377 C379 1.433 . S
C378 C374 1.350 . S
C378 C375 1.463 . S
C378 N382 1.427 . S
C379 H369 0.929 . S
C379 C377 1.433 . S
C379 N382 1.384 . S
C380 H371 0.929 . S
C380 C372 1.378 . S
C380 C375 1.350 . S
C381 H368 0.929 . S
C381 C373 1.433 . S
C381 N383 1.384 . S
N382 C378 1.427 . S
N382 C379 1.384 . S
N383 C375 1.427 . S
N383 C381 1.384 . S
H384 C390 0.930 . S
H385 C394 0.930 . S
H386 C399 0.929 . S
H387 C397 0.929 . S
H388 C392 0.929 . S
H389 C398 0.929 . S
C390 H384 0.930 . S
C390 C391 1.367 . S
C390 C398 1.378 . S
C391 C390 1.367 . S
C391 C399 1.433 . S
C392 H388 0.929 . S
C392 C394 1.378 . S
C392 C396 1.350 . S
C393 C396 1.463 . S
C393 C398 1.350 . S
C393 N401 1.427 . S
C394 H385 0.930 . S
C394 C392 1.378 . S
C394 C395 1.367 . S
C395 C394 1.367 . S
C395 C397 1.433 . S
C396 C392 1.350 . S
C396 C393 1.463 . S
C396 N400 1.427 . S
C397 H387 0.929 . S
C397 C395 1.433 . S
C397 N400 1.384 . S
C398 H389 0.929 . S
C398 C390 1.378 . S
C398 C393 1.350 . S
C399 H386 0.929 . S
C399 C391 1.433 . S
C399 N401 1.384 . S
N400 C396 1.427 . S
N400 C397 1.384 . S
N401 C393 1.427 . S
N401 C399 1.384 . S
H402 C408 0.930 . S
H403 C412 0.930 . S
H404 C417 0.929 . S
H405 C415 0.929 1_565 S
H406 C410 0.929 . S
H407 C416 0.929 . S
C408 H402 0.930 . S
C408 C409 1.367 . S
C408 C416 1.378 . S
C409 C408 1.367 . S
C409 C417 1.433 . S
C410 H406 0.929 . S
C410 C412 1.378 . S
C410 C414 1.350 . S
C411 C414 1.463 . S
C411 C416 1.350 . S
C411 N419 1.427 . S
C412 H403 0.930 . S
C412 C410 1.378 . S
C412 C413 1.367 1_545 S
C413 C412 1.367 1_565 S
C413 C415 1.433 1_565 S
C414 C410 1.350 . S
C414 C411 1.463 . S
C414 N418 1.427 . S
C415 H405 0.929 1_545 S
C415 C413 1.433 1_545 S
C415 N418 1.384 . S
C416 H407 0.929 . S
C416 C408 1.378 . S
C416 C411 1.350 . S
C417 H404 0.929 . S
C417 C409 1.433 . S
C417 N419 1.384 . S
N418 C414 1.427 . S
N418 C415 1.384 . S
N419 C411 1.427 . S
N419 C417 1.384 . S
H420 C426 0.930 . S
H421 C430 0.930 . S
H422 C435 0.929 . S
H423 C433 0.929 . S
H424 C428 0.929 . S
H425 C434 0.929 . S
C426 H420 0.930 . S
C426 C427 1.367 . S
C426 C434 1.378 . S
C427 C426 1.367 . S
C427 C435 1.433 . S
C428 H424 0.929 . S
C428 C430 1.378 . S
C428 C432 1.350 . S
C429 C432 1.463 . S
C429 C434 1.350 . S
C429 N437 1.427 . S
C430 H421 0.930 . S
C430 C428 1.378 . S
C430 C431 1.367 . S
C431 C430 1.367 . S
C431 C433 1.433 . S
C432 C428 1.350 . S
C432 C429 1.463 . S
C432 N436 1.427 . S
C433 H423 0.929 . S
C433 C431 1.433 . S
C433 N436 1.384 . S
C434 H425 0.929 . S
C434 C426 1.378 . S
C434 C429 1.350 . S
C435 H422 0.929 . S
C435 C427 1.433 . S
C435 N437 1.384 . S
N436 C432 1.427 . S
N436 C433 1.384 . S
N437 C429 1.427 . S
N437 C435 1.384 . S
H438 C444 0.931 . S
H439 C448 0.930 . S
H440 C453 0.929 1_455 S
H441 C451 0.929 . S
H442 C446 0.929 . S
H443 C452 0.929 . S
C444 H438 0.931 . S
C444 C445 1.367 1_655 S
C444 C452 1.378 . S
C445 C444 1.367 1_455 S
C445 C453 1.433 1_455 S
C446 H442 0.929 . S
C446 C448 1.378 . S
C446 C450 1.350 . S
C447 C450 1.463 . S
C447 C452 1.350 . S
C447 N455 1.427 . S
C448 H439 0.930 . S
C448 C446 1.378 . S
C448 C449 1.367 . S
C449 C448 1.367 . S
C449 C451 1.433 . S
C450 C446 1.350 . S
C450 C447 1.463 . S
C450 N454 1.427 . S
C451 H441 0.929 . S
C451 C449 1.433 . S
C451 N454 1.384 . S
C452 H443 0.929 . S
C452 C444 1.378 . S
C452 C447 1.350 . S
C453 H440 0.929 1_655 S
C453 C445 1.433 1_655 S
C453 N455 1.384 . S
N454 C450 1.427 . S
N454 C451 1.384 . S
N455 C447 1.427 . S
N455 C453 1.384 . S
H456 C462 0.930 . S
H457 C466 0.930 . S
H458 C471 0.929 . S
H459 C469 0.929 1_545 S
H460 C464 0.929 . S
H461 C470 0.929 . S
C462 H456 0.930 . S
C462 C463 1.367 . S
C462 C470 1.378 . S
C463 C462 1.367 . S
C463 C471 1.433 . S
C464 H460 0.929 . S
C464 C466 1.378 . S
C464 C468 1.350 . S
C465 C468 1.463 . S
C465 C470 1.350 . S
C465 N473 1.427 . S
C466 H457 0.930 . S
C466 C464 1.378 . S
C466 C467 1.367 1_565 S
C467 C466 1.367 1_545 S
C467 C469 1.433 1_545 S
C468 C464 1.350 . S
C468 C465 1.463 . S
C468 N472 1.427 . S
C469 H459 0.929 1_565 S
C469 C467 1.433 1_565 S
C469 N472 1.384 . S
C470 H461 0.929 . S
C470 C462 1.378 . S
C470 C465 1.350 . S
C471 H458 0.929 . S
C471 C463 1.433 . S
C471 N473 1.384 . S
N472 C468 1.427 . S
N472 C469 1.384 . S
N473 C465 1.427 . S
N473 C471 1.384 . S
H474 C480 0.930 . S
H475 C484 0.930 . S
H476 C489 0.929 . S
H477 C487 0.929 . S
H478 C482 0.929 . S
H479 C488 0.929 . S
C480 H474 0.930 . S
C480 C481 1.367 . S
C480 C488 1.378 . S
C481 C480 1.367 . S
C481 C489 1.433 . S
C482 H478 0.929 . S
C482 C484 1.378 . S
C482 C486 1.350 . S
C483 C486 1.463 . S
C483 C488 1.350 . S
C483 N491 1.427 . S
C484 H475 0.930 . S
C484 C482 1.378 . S
C484 C485 1.367 . S
C485 C484 1.367 . S
C485 C487 1.433 . S
C486 C482 1.350 . S
C486 C483 1.463 . S
C486 N490 1.427 . S
C487 H477 0.929 . S
C487 C485 1.433 . S
C487 N490 1.384 . S
C488 H479 0.929 . S
C488 C480 1.378 . S
C488 C483 1.350 . S
C489 H476 0.929 . S
C489 C481 1.433 . S
C489 N491 1.384 . S
N490 C486 1.427 . S
N490 C487 1.384 . S
N491 C483 1.427 . S
N491 C489 1.384 . S
H492 C498 0.930 1_554 S
H493 C502 0.930 . S
H494 C507 0.929 1_655 S
H495 C505 0.929 1_554 S
H496 C500 0.929 . S
H497 C506 0.929 1_554 S
C498 H492 0.930 1_556 S
C498 C499 1.367 1_455 S
C498 C506 1.378 . S
C499 C498 1.367 1_655 S
C499 C507 1.433 1_655 S
C500 H496 0.929 . S
C500 C502 1.378 . S
C500 C504 1.350 . S
C501 C504 1.463 . S
C501 C506 1.350 . S
C501 N509 1.427 . S
C502 H493 0.930 . S
C502 C500 1.378 . S
C502 C503 1.367 . S
C503 C502 1.367 . S
C503 C505 1.433 . S
C504 C500 1.350 . S
C504 C501 1.463 . S
C504 N508 1.427 . S
C505 H495 0.929 1_556 S
C505 C503 1.433 . S
C505 N508 1.384 . S
C506 H497 0.929 1_556 S
C506 C498 1.378 . S
C506 C501 1.350 . S
C507 H494 0.929 1_455 S
C507 C499 1.433 1_455 S
C507 N509 1.384 . S
N508 C504 1.427 . S
N508 C505 1.384 . S
N509 C501 1.427 . S
N509 C507 1.384 . S
H510 C516 0.930 . S
H511 C520 0.930 . S
H512 C525 0.929 . S
H513 C523 0.929 . S
H514 C518 0.929 . S
H515 C524 0.929 . S
C516 H510 0.930 . S
C516 C517 1.367 . S
C516 C524 1.378 . S
C517 C516 1.367 . S
C517 C525 1.433 . S
C518 H514 0.929 . S
C518 C520 1.378 . S
C518 C522 1.350 . S
C519 C522 1.463 . S
C519 C524 1.350 . S
C519 N527 1.427 . S
C520 H511 0.930 . S
C520 C518 1.378 . S
C520 C521 1.367 . S
C521 C520 1.367 . S
C521 C523 1.433 . S
C522 C518 1.350 . S
C522 C519 1.463 . S
C522 N526 1.427 . S
C523 H513 0.929 . S
C523 C521 1.433 . S
C523 N526 1.384 . S
C524 H515 0.929 . S
C524 C516 1.378 . S
C524 C519 1.350 . S
C525 H512 0.929 . S
C525 C517 1.433 . S
C525 N527 1.384 . S
N526 C522 1.427 . S
N526 C523 1.384 . S
N527 C519 1.427 . S
N527 C525 1.384 . S
H528 C534 0.930 . S
H529 C538 0.930 . S
H530 C543 0.929 . S
H531 C541 0.929 . S
H532 C536 0.929 . S
H533 C542 0.929 . S
C534 H528 0.930 . S
C534 C535 1.367 . S
C534 C542 1.378 . S
C535 C534 1.367 . S
C535 C543 1.433 . S
C536 H532 0.929 . S
C536 C538 1.378 . S
C536 C540 1.350 . S
C537 C540 1.463 . S
C537 C542 1.350 . S
C537 N545 1.427 . S
C538 H529 0.930 . S
C538 C536 1.378 . S
C538 C539 1.367 . S
C539 C538 1.367 . S
C539 C541 1.433 1_545 S
C540 C536 1.350 . S
C540 C537 1.463 . S
C540 N544 1.427 . S
C541 H531 0.929 . S
C541 C539 1.433 1_565 S
C541 N544 1.384 1_565 S
C542 H533 0.929 . S
C542 C534 1.378 . S
C542 C537 1.350 . S
C543 H530 0.929 . S
C543 C535 1.433 . S
C543 N545 1.384 . S
N544 C540 1.427 . S
N544 C541 1.384 1_545 S
N545 C537 1.427 . S
N545 C543 1.384 . S
H546 C552 0.930 . S
H547 C556 0.930 . S
H548 C561 0.929 . S
H549 C559 0.929 . S
H550 C554 0.929 . S
H551 C560 0.929 . S
C552 H546 0.930 . S
C552 C553 1.367 . S
C552 C560 1.378 . S
C553 C552 1.367 . S
C553 C561 1.433 . S
C554 H550 0.929 . S
C554 C556 1.378 . S
C554 C558 1.350 . S
C555 C558 1.463 . S
C555 C560 1.350 . S
C555 N563 1.427 . S
C556 H547 0.930 . S
C556 C554 1.378 . S
C556 C557 1.367 . S
C557 C556 1.367 . S
C557 C559 1.433 . S
C558 C554 1.350 . S
C558 C555 1.463 . S
C558 N562 1.427 . S
C559 H549 0.929 . S
C559 C557 1.433 . S
C559 N562 1.384 . S
C560 H551 0.929 . S
C560 C552 1.378 . S
C560 C555 1.350 . S
C561 H548 0.929 . S
C561 C553 1.433 . S
C561 N563 1.384 . S
N562 C558 1.427 . S
N562 C559 1.384 . S
N563 C555 1.427 . S
N563 C561 1.384 . S
H564 C570 0.930 . S
H565 C574 0.930 . S
H566 C579 0.929 . S
H567 C577 0.929 . S
H568 C572 0.929 1_455 S
H569 C578 0.929 . S
C570 H564 0.930 . S
C570 C571 1.367 . S
C570 C578 1.378 . S
C571 C570 1.367 . S
C571 C579 1.433 1_655 S
C572 H568 0.929 1_655 S
C572 C574 1.378 . S
C572 C576 1.350 . S
C573 C576 1.463 . S
C573 C578 1.350 . S
C573 N581 1.427 1_655 S
C574 H565 0.930 . S
C574 C572 1.378 . S
C574 C575 1.367 . S
C575 C574 1.367 . S
C575 C577 1.433 . S
C576 C572 1.350 . S
C576 C573 1.463 . S
C576 N580 1.427 . S
C577 H567 0.929 . S
C577 C575 1.433 . S
C577 N580 1.384 . S
C578 H569 0.929 . S
C578 C570 1.378 . S
C578 C573 1.350 . S
C579 H566 0.929 . S
C579 C571 1.433 1_455 S
C579 N581 1.384 . S
N580 C576 1.427 . S
N580 C577 1.384 . S
N581 C573 1.427 1_455 S
N581 C579 1.384 . S
H582 C588 0.930 . S
H583 C592 0.930 . S
H584 C597 0.929 . S
H585 C595 0.929 . S
H586 C590 0.929 . S
H587 C596 0.929 1_545 S
C588 H582 0.930 . S
C588 C589 1.367 . S
C588 C596 1.378 1_554 S
C589 C588 1.367 . S
C589 C597 1.433 . S
C590 H586 0.929 . S
C590 C592 1.378 . S
C590 C594 1.350 . S
C591 C594 1.463 . S
C591 C596 1.350 . S
C591 N599 1.427 1_556 S
C592 H583 0.930 . S
C592 C590 1.378 . S
C592 C593 1.367 . S
C593 C592 1.367 . S
C593 C595 1.433 1_565 S
C594 C590 1.350 . S
C594 C591 1.463 . S
C594 N598 1.427 1_565 S
C595 H585 0.929 . S
C595 C593 1.433 1_545 S
C595 N598 1.384 . S
C596 H587 0.929 1_565 S
C596 C588 1.378 1_556 S
C596 C591 1.350 . S
C597 H584 0.929 . S
C597 C589 1.433 . S
C597 N599 1.384 . S
N598 C594 1.427 1_545 S
N598 C595 1.384 . S
N599 C591 1.427 1_554 S
N599 C597 1.384 . S
H600 C606 0.930 . S
H601 C610 0.930 . S
H602 C615 0.929 . S
H603 C613 0.929 . S
H604 C608 0.929 . S
H605 C614 0.929 . S
C606 H600 0.930 . S
C606 C607 1.367 . S
C606 C614 1.378 1_556 S
C607 C606 1.367 . S
C607 C615 1.433 1_556 S
C608 H604 0.929 . S
C608 C610 1.378 . S
C608 C612 1.350 . S
C609 C612 1.463 . S
C609 C614 1.350 . S
C609 N617 1.427 . S
C610 H601 0.930 . S
C610 C608 1.378 . S
C610 C611 1.367 . S
C611 C610 1.367 . S
C611 C613 1.433 . S
C612 C608 1.350 . S
C612 C609 1.463 . S
C612 N616 1.427 . S
C613 H603 0.929 . S
C613 C611 1.433 . S
C613 N616 1.384 . S
C614 H605 0.929 . S
C614 C606 1.378 1_554 S
C614 C609 1.350 . S
C615 H602 0.929 . S
C615 C607 1.433 1_554 S
C615 N617 1.384 . S
N616 C612 1.427 . S
N616 C613 1.384 . S
N617 C609 1.427 . S
N617 C615 1.384 . S
C193 C27 1.472 . S
C197 C1 1.472 . S
C211 C58 1.470 . S
C215 C32 1.470 . S
C229 C63 1.475 . S
C233 C89 1.475 . S
C247 C94 1.484 . S
C251 C120 1.484 . S
C265 C151 1.483 . S
C269 C125 1.483 . S
C283 C182 1.470 . S
C287 C156 1.470 . S
C301 C134 1.279 . S
C305 C0 1.289 . S
C319 C31 1.301 . S
C323 C165 1.272 . S
C337 C10 1.282 . S
C341 C62 1.290 . S
C355 C41 1.282 . S
C359 C93 1.290 . S
C373 C124 1.313 . S
C377 C72 1.289 . S
C391 C103 1.290 . S
C395 C155 1.296 . S
C409 C18 2.046 . S
C413 C33 2.037 . S
C427 C49 2.046 . S
C431 C64 2.037 . S
C445 C95 2.047 . S
C449 C80 2.056 . S
C463 C111 2.045 . S
C467 C126 2.036 . S
C481 C142 2.045 . S
C485 C157 2.037 . S
C499 C2 2.036 . S
C503 C173 2.045 . S
C517 C24 0.834 1_455 S
C521 C104 0.913 . S
C535 C135 0.916 . S
C539 C55 0.846 1_545 S
C553 C86 0.818 . S
C557 C166 0.902 . S
C571 C117 0.862 1_655 S
C575 C11 0.913 . S
C589 C42 0.917 . S
C593 C148 0.857 1_565 S
C607 C179 0.856 . S
C611 C73 0.908 . S
