# Generated by pormake.
# Topology ure, (4)-cn, num edge types: 1
# Building blocks:
#     Node 0, Type 0, BuildingBlock: TATPOV_clean_sbu_0, # of connection points: 4
#     Node 1, Type 0, BuildingBlock: TATPOV_clean_sbu_0, # of connection points: 4
#     Node 2, Type 0, BuildingBlock: TATPOV_clean_sbu_0, # of connection points: 4
#     Node 3, Type 0, BuildingBlock: TATPOV_clean_sbu_0, # of connection points: 4
#     Node 4, Type 0, BuildingBlock: TATPOV_clean_sbu_0, # of connection points: 4
#     Node 5, Type 0, BuildingBlock: TATPOV_clean_sbu_0, # of connection points: 4
#     Node 6, Type 0, BuildingBlock: TATPOV_clean_sbu_0, # of connection points: 4
#     Node 7, Type 0, BuildingBlock: TATPOV_clean_sbu_0, # of connection points: 4
#     Node 8, Type 0, BuildingBlock: TATPOV_clean_sbu_0, # of connection points: 4
#     Node 9, Type 0, BuildingBlock: TATPOV_clean_sbu_0, # of connection points: 4
#     Node 10, Type 0, BuildingBlock: TATPOV_clean_sbu_0, # of connection points: 4
#     Node 11, Type 0, BuildingBlock: TATPOV_clean_sbu_0, # of connection points: 4
#     Node 12, Type 0, BuildingBlock: TATPOV_clean_sbu_0, # of connection points: 4
#     Node 13, Type 0, BuildingBlock: TATPOV_clean_sbu_0, # of connection points: 4
#     Node 14, Type 0, BuildingBlock: TATPOV_clean_sbu_0, # of connection points: 4
#     Node 15, Type 0, BuildingBlock: TATPOV_clean_sbu_0, # of connection points: 4
#     Edge 16, Type (0, 0), BuildingBlock: XIVTED_clean_linker_0, # of connection points: 2
#     Edge 17, Type (0, 0), BuildingBlock: XIVTED_clean_linker_0, # of connection points: 2
#     Edge 18, Type (0, 0), BuildingBlock: XIVTED_clean_linker_0, # of connection points: 2
#     Edge 19, Type (0, 0), BuildingBlock: XIVTED_clean_linker_0, # of connection points: 2
#     Edge 20, Type (0, 0), BuildingBlock: XIVTED_clean_linker_0, # of connection points: 2
#     Edge 21, Type (0, 0), BuildingBlock: XIVTED_clean_linker_0, # of connection points: 2
#     Edge 22, Type (0, 0), BuildingBlock: XIVTED_clean_linker_0, # of connection points: 2
#     Edge 23, Type (0, 0), BuildingBlock: XIVTED_clean_linker_0, # of connection points: 2
#     Edge 24, Type (0, 0), BuildingBlock: XIVTED_clean_linker_0, # of connection points: 2
#     Edge 25, Type (0, 0), BuildingBlock: XIVTED_clean_linker_0, # of connection points: 2
#     Edge 26, Type (0, 0), BuildingBlock: XIVTED_clean_linker_0, # of connection points: 2
#     Edge 27, Type (0, 0), BuildingBlock: XIVTED_clean_linker_0, # of connection points: 2
#     Edge 28, Type (0, 0), BuildingBlock: XIVTED_clean_linker_0, # of connection points: 2
#     Edge 29, Type (0, 0), BuildingBlock: XIVTED_clean_linker_0, # of connection points: 2
#     Edge 30, Type (0, 0), BuildingBlock: XIVTED_clean_linker_0, # of connection points: 2
#     Edge 31, Type (0, 0), BuildingBlock: XIVTED_clean_linker_0, # of connection points: 2
#     Edge 32, Type (0, 0), BuildingBlock: XIVTED_clean_linker_0, # of connection points: 2
#     Edge 33, Type (0, 0), BuildingBlock: XIVTED_clean_linker_0, # of connection points: 2
#     Edge 34, Type (0, 0), BuildingBlock: XIVTED_clean_linker_0, # of connection points: 2
#     Edge 35, Type (0, 0), BuildingBlock: XIVTED_clean_linker_0, # of connection points: 2
#     Edge 36, Type (0, 0), BuildingBlock: XIVTED_clean_linker_0, # of connection points: 2
#     Edge 37, Type (0, 0), BuildingBlock: XIVTED_clean_linker_0, # of connection points: 2
#     Edge 38, Type (0, 0), BuildingBlock: XIVTED_clean_linker_0, # of connection points: 2
#     Edge 39, Type (0, 0), BuildingBlock: XIVTED_clean_linker_0, # of connection points: 2
#     Edge 40, Type (0, 0), BuildingBlock: XIVTED_clean_linker_0, # of connection points: 2
#     Edge 41, Type (0, 0), BuildingBlock: XIVTED_clean_linker_0, # of connection points: 2
#     Edge 42, Type (0, 0), BuildingBlock: XIVTED_clean_linker_0, # of connection points: 2
#     Edge 43, Type (0, 0), BuildingBlock: XIVTED_clean_linker_0, # of connection points: 2
#     Edge 44, Type (0, 0), BuildingBlock: XIVTED_clean_linker_0, # of connection points: 2
#     Edge 45, Type (0, 0), BuildingBlock: XIVTED_clean_linker_0, # of connection points: 2
#     Edge 46, Type (0, 0), BuildingBlock: XIVTED_clean_linker_0, # of connection points: 2
#     Edge 47, Type (0, 0), BuildingBlock: XIVTED_clean_linker_0, # of connection points: 2
# Relax obj value: 0.113
# Max RMSD: 0.073
# Mean RMSD: 0.073
data_MOF--net-ure--node1-TATPOV_clean_sbu_0--edge1-XIVTED_clean_linker_0
_symmetry_space_group_name_H-M    P1
_symmetry_Int_Tables_number       1
_symmetry_cell_setting            triclinic
loop_
_symmetry_equiv_pos_as_xyz
'x, y, z'
_cell_length_a     32.978298
_cell_length_b     30.844319
_cell_length_c     30.868962
_cell_angle_alpha  89.999861
_cell_angle_beta   90.002737
_cell_angle_gamma 90.029436
loop_
_atom_site_label
_atom_site_type_symbol
_atom_site_fract_x
_atom_site_fract_y
_atom_site_fract_z
_atom_type_partial_charge
Zn0 Zn 0.34495 0.32835 0.34081 0.0
Zn1 Zn 0.298 0.27958 0.29186 0.0
O2 O 0.35247 0.27982 0.25865 0.0
O3 O 0.38739 0.32947 0.2938 0.0
O4 O 0.26109 0.24251 0.25496 0.0
O5 O 0.34629 0.28217 0.38693 0.0
O6 O 0.29894 0.24746 0.35058 0.0
C7 C 0.38417 0.30323 0.26245 0.0
C8 C 0.27229 0.37183 0.31733 0.0
O9 O 0.26823 0.33841 0.29345 0.0
O10 O 0.30186 0.3746 0.34331 0.0
C11 C 0.24771 0.25664 0.21899 0.0
O12 O 0.25894 0.2953 0.20573 0.0
C13 C 0.32109 0.25132 0.38424 0.0
Zn14 Zn 0.9124 0.0883 0.58546 0.0
Zn15 Zn 0.9585 0.03865 0.53665 0.0
O16 O 0.90406 0.00538 0.53831 0.0
O17 O 0.87019 0.04113 0.58832 0.0
O18 O 0.99499 0.00067 0.50041 0.0
O19 O 0.91021 0.13314 0.53796 0.0
O20 O 0.95681 0.09626 0.50268 0.0
C21 C 0.87288 0.00945 0.56241 0.0
C22 C 0.98539 0.06587 0.6283 0.0
O23 O 0.98905 0.04182 0.59495 0.0
O24 O 0.95577 0.09177 0.63129 0.0
C25 C 0.00719 0.96436 0.51493 0.0
O26 O 0.99497 0.95159 0.55339 0.0
C27 C 0.93446 0.12978 0.50634 0.0
Zn28 Zn 0.15267 0.67637 0.83498 0.0
Zn29 Zn 0.19835 0.72615 0.78697 0.0
O30 O 0.14567 0.72228 0.75069 0.0
O31 O 0.11245 0.67162 0.78623 0.0
O32 O 0.23552 0.76569 0.75318 0.0
O33 O 0.14598 0.72223 0.88053 0.0
O34 O 0.19332 0.75826 0.84558 0.0
C35 C 0.11527 0.69689 0.75405 0.0
C36 C 0.22751 0.6361 0.81461 0.0
O37 O 0.23044 0.66888 0.78968 0.0
O38 O 0.19788 0.63286 0.84045 0.0
C39 C 0.25185 0.7545 0.71758 0.0
O40 O 0.24323 0.71634 0.70105 0.0
C41 C 0.17007 0.75407 0.87834 0.0
Zn42 Zn 0.60319 0.91951 0.06868 0.0
Zn43 Zn 0.55609 0.96586 0.01937 0.0
O44 O 0.60942 0.00141 0.0195 0.0
O45 O 0.64325 0.96871 0.07161 0.0
O46 O 0.51803 -0.00105 0.98031 0.0
O47 O 0.6084 0.87271 0.02361 0.0
O48 O 0.55944 0.90639 0.98896 0.0
C49 C 0.64009 -0.0006 0.04461 0.0
C50 C 0.52938 0.94003 0.11077 0.0
O51 O 0.52547 0.96451 0.07776 0.0
O52 O 0.55929 0.91451 0.11349 0.0
C53 C 0.50122 0.03422 0.99175 0.0
O54 O 0.50989 0.05085 0.02983 0.0
C55 C 0.58284 0.87375 0.99305 0.0
Zn56 Zn 0.28631 0.71606 0.21081 0.0
Zn57 Zn 0.24676 0.76007 0.26229 0.0
O58 O 0.30629 0.7704 0.28286 0.0
O59 O 0.33489 0.71543 0.24953 0.0
O60 O 0.21234 0.79679 0.30205 0.0
O61 O 0.28272 0.75945 0.16282 0.0
O62 O 0.23264 0.7855 0.20169 0.0
C63 C 0.33705 0.74609 0.27658 0.0
C64 C 0.22651 0.66461 0.24708 0.0
O65 O 0.22587 0.69719 0.27253 0.0
O66 O 0.24737 0.66627 0.21277 0.0
C67 C 0.20141 0.78468 0.33965 0.0
O68 O 0.21379 0.74699 0.35442 0.0
C69 C 0.25252 0.7844 0.16628 0.0
Zn70 Zn 0.54927 0.0331 0.46147 0.0
Zn71 Zn 0.50686 0.98077 0.50285 0.0
O72 O 0.56575 0.95956 0.51564 0.0
O73 O 0.59762 0.99409 0.46348 0.0
O74 O 0.47037 0.93909 0.53525 0.0
O75 O 0.54304 0.08058 0.50512 0.0
O76 O 0.49212 0.04116 0.52853 0.0
C77 C 0.59785 0.96623 0.4935 0.0
C78 C 0.49101 0.998 0.40684 0.0
O79 O 0.48838 0.97226 0.43905 0.0
O80 O 0.51281 0.03159 0.40968 0.0
C81 C 0.45959 0.94529 0.57432 0.0
O82 O 0.47374 0.97914 0.59529 0.0
C83 C 0.51186 0.07674 0.52861 0.0
Zn84 Zn 0.19892 0.28843 0.71829 0.0
Zn85 Zn 0.24185 0.24618 0.76927 0.0
O86 O 0.18317 0.23385 0.79135 0.0
O87 O 0.15132 0.28702 0.75843 0.0
O88 O 0.27859 0.21328 0.81019 0.0
O89 O 0.20363 0.2447 0.67063 0.0
O90 O 0.2554 0.22096 0.70848 0.0
C91 C 0.15121 0.2565 0.78575 0.0
C92 C 0.25905 0.3418 0.75187 0.0
O93 O 0.26146 0.30959 0.77762 0.0
O94 O 0.23645 0.33948 0.71888 0.0
C95 C 0.29029 0.17463 0.80321 0.0
O96 O 0.27695 0.15405 0.76878 0.0
C97 C 0.23489 0.22118 0.67345 0.0
Zn98 Zn 0.96612 0.9576 0.96669 0.0
Zn99 Zn 0.00643 0.0073 0.01332 0.0
O100 O 0.94785 0.03181 0.0204 0.0
O101 O 0.91915 0.99861 0.96535 0.0
O102 O 0.04149 0.04568 0.0509 0.0
O103 O 0.9671 0.90875 0.00921 0.0
O104 O 0.01617 0.94595 0.03967 0.0
C105 C 0.91756 0.02664 0.99517 0.0
C106 C 0.02904 0.99203 0.9182 0.0
O107 O 0.03017 0.01643 0.95155 0.0
O108 O 0.00629 0.95904 0.91812 0.0
C109 C 0.05108 0.08392 0.03942 0.0
O110 O 0.03686 0.0993 0.00275 0.0
C111 C 0.9956 0.91104 0.03648 0.0
Zn112 Zn 0.83894 0.16291 0.66268 0.0
Zn113 Zn 0.79239 0.21242 0.71043 0.0
O114 O 0.84601 0.21169 0.74529 0.0
O115 O 0.87987 0.16058 0.71106 0.0
O116 O 0.75464 0.25164 0.74354 0.0
O117 O 0.84333 0.20872 0.61635 0.0
O118 O 0.79538 0.24355 0.65149 0.0
C119 C 0.87695 0.18706 0.74224 0.0
C120 C 0.76514 0.1209 0.68526 0.0
O121 O 0.76159 0.15421 0.70941 0.0
O122 O 0.79468 0.11793 0.65924 0.0
C123 C 0.74982 0.25109 0.78437 0.0
O124 O 0.77113 0.22389 0.80791 0.0
C125 C 0.81834 0.23976 0.61852 0.0
Zn126 Zn 0.09716 0.5867 0.92554 0.0
Zn127 Zn 0.05148 0.5341 0.97138 0.0
O128 O 0.10612 0.50156 0.96704 0.0
O129 O 0.13976 0.54046 0.91927 0.0
O130 O 0.01619 0.4922 0.00469 0.0
O131 O 0.09913 0.62892 0.97528 0.0
O132 O 0.05254 0.59 0.00838 0.0
C133 C 0.13716 0.50714 0.94304 0.0
C134 C 0.02414 0.56635 0.88173 0.0
O135 O 0.02062 0.54035 0.91362 0.0
O136 O 0.05368 0.59251 0.8802 0.0
C137 C 0.98325 0.50364 0.02277 0.0
O138 O 0.97201 0.54445 0.02087 0.0
C139 C 0.07462 0.62392 0.00645 0.0
Zn140 Zn 0.65414 0.8204 0.14707 0.0
Zn141 Zn 0.69925 0.77284 0.19947 0.0
O142 O 0.64518 0.77625 0.23314 0.0
O143 O 0.61146 0.82361 0.19378 0.0
O144 O 0.73545 0.73475 0.23569 0.0
O145 O 0.65246 0.77297 0.10213 0.0
O146 O 0.69767 0.73899 0.14194 0.0
C147 C 0.61397 0.79993 0.2272 0.0
C148 C 0.72747 0.8632 0.17139 0.0
O149 O 0.73049 0.83057 0.19651 0.0
O150 O 0.69847 0.86554 0.14461 0.0
C151 C 0.74999 0.74605 0.27211 0.0
O152 O 0.74023 0.78402 0.28834 0.0
C153 C 0.6768 0.74168 0.1073 0.0
Zn154 Zn 0.03741 0.46755 0.53743 0.0
Zn155 Zn 0.99594 0.51628 0.4928 0.0
O156 O 0.05446 0.53907 0.48157 0.0
O157 O 0.08433 0.50863 0.53739 0.0
O158 O 0.95976 0.55639 0.45852 0.0
O159 O 0.03565 0.41903 0.49461 0.0
O160 O 0.98387 0.45471 0.46781 0.0
C161 C 0.08542 0.53494 0.50602 0.0
C162 C 0.97733 0.50164 0.58877 0.0
O163 O 0.97581 0.52644 0.55575 0.0
O164 O 0.99898 0.46788 0.58755 0.0
C165 C 0.95079 0.55009 0.41896 0.0
O166 O 0.96635 0.5166 0.39861 0.0
C167 C 0.00542 0.4204 0.4695 0.0
Zn168 Zn 0.45725 0.54075 0.03543 0.0
Zn169 Zn 0.50173 0.48866 0.99507 0.0
O170 O 0.44417 0.46513 0.98092 0.0
O171 O 0.41014 0.50001 0.03127 0.0
O172 O 0.54005 0.44759 0.9651 0.0
O173 O 0.46457 0.5879 0.99156 0.0
O174 O 0.51579 0.54867 0.96852 0.0
C175 C 0.41145 0.47133 0.00205 0.0
C176 C 0.51414 0.50651 0.0918 0.0
O177 O 0.51827 0.48142 0.05928 0.0
O178 O 0.4919 0.53973 0.08875 0.0
C179 C 0.54305 0.44523 0.92414 0.0
O180 O 0.51979 0.46988 0.89991 0.0
C181 C 0.49585 0.5841 0.96819 0.0
Zn182 Zn 0.79535 0.77838 0.77826 0.0
Zn183 Zn 0.753 0.73372 0.72883 0.0
O184 O 0.81086 0.72608 0.70281 0.0
O185 O 0.84116 0.78022 0.73591 0.0
O186 O 0.71652 0.69655 0.69174 0.0
O187 O 0.79533 0.73476 0.82622 0.0
O188 O 0.74475 0.70653 0.78966 0.0
C189 C 0.8417 0.75065 0.70757 0.0
C190 C 0.73114 0.82815 0.74786 0.0
O191 O 0.72898 0.79574 0.72228 0.0
O192 O 0.7554 0.8271 0.77954 0.0
C193 C 0.70221 0.70911 0.65563 0.0
O194 O 0.71256 0.74738 0.64054 0.0
C195 C 0.76612 0.70833 0.82405 0.0
Zn196 Zn 0.70931 0.20208 0.28093 0.0
Zn197 Zn 0.74938 0.24923 0.232 0.0
O198 O 0.6899 0.25797 0.21096 0.0
O199 O 0.66111 0.20162 0.24171 0.0
O200 O 0.78244 0.29008 0.19446 0.0
O201 O 0.711 0.24389 0.33036 0.0
O202 O 0.76119 0.273 0.29382 0.0
C203 C 0.65913 0.23332 0.21586 0.0
C204 C 0.77154 0.15384 0.24451 0.0
O205 O 0.77219 0.18734 0.22027 0.0
O206 O 0.74953 0.15362 0.27802 0.0
C207 C 0.80922 0.27838 0.1672 0.0
O208 O 0.81597 0.23688 0.16101 0.0
C209 C 0.74044 0.27005 0.32855 0.0
Zn210 Zn 0.39848 0.40783 0.42934 0.0
Zn211 Zn 0.4449 0.45724 0.47789 0.0
O212 O 0.39106 0.49143 0.47679 0.0
O213 O 0.35688 0.4555 0.42711 0.0
O214 O 0.48259 0.4946 0.51337 0.0
O215 O 0.39657 0.36208 0.47577 0.0
O216 O 0.44369 0.39871 0.51056 0.0
C217 C 0.35998 0.48753 0.45253 0.0
C218 C 0.47043 0.43138 0.38566 0.0
O219 O 0.47422 0.4552 0.41912 0.0
O220 O 0.44128 0.40482 0.38299 0.0
C221 C 0.4937 0.53108 0.49826 0.0
O222 O 0.47915 0.5439 0.46075 0.0
C223 C 0.42159 0.36496 0.50674 0.0
H224 H 0.21789 0.17543 0.23661 0.0
H225 H 0.07942 0.16588 0.02333 0.0
H226 H 0.21184 0.27822 0.14191 0.0
H227 H 0.08707 0.06178 0.11646 0.0
H228 H 0.12717 0.20786 0.06693 0.0
H229 H 0.16961 0.13352 0.19346 0.0
C230 C 0.20648 0.18919 0.20672 0.0
C231 C 0.21899 0.23045 0.19289 0.0
C232 C 0.11839 0.17586 0.07788 0.0
C233 C 0.16356 0.18262 0.14333 0.0
C234 C 0.09104 0.15185 0.053 0.0
C235 C 0.07918 0.11018 0.0662 0.0
C236 C 0.13407 0.15814 0.11632 0.0
C237 C 0.09533 0.09374 0.10498 0.0
C238 C 0.17887 0.16523 0.1821 0.0
C239 C 0.20312 0.24657 0.15387 0.0
N240 N 0.12194 0.11773 0.12862 0.0
N241 N 0.17625 0.22266 0.13052 0.0
H242 H 0.03978 0.88565 0.53684 0.0
H243 H 0.16951 0.86391 0.31843 0.0
H244 H 0.03959 0.98148 0.43489 0.0
H245 H 0.1699 0.76786 0.42017 0.0
H246 H 0.12237 0.90762 0.36095 0.0
H247 H 0.08752 0.84214 0.49476 0.0
C248 C 0.04971 0.89755 0.50558 0.0
C249 C 0.0356 0.93733 0.4894 0.0
C250 C 0.13279 0.87702 0.37403 0.0
C251 C 0.09042 0.88762 0.44103 0.0
C252 C 0.15978 0.85202 0.34977 0.0
C253 C 0.17372 0.81208 0.36571 0.0
C254 C 0.11952 0.86205 0.41461 0.0
C255 C 0.15999 0.79841 0.40656 0.0
C256 C 0.07703 0.87267 0.48157 0.0
C257 C 0.0496 0.95104 0.44868 0.0
N258 N 0.13364 0.82332 0.42955 0.0
N259 N 0.07622 0.92625 0.42594 0.0
H260 H 0.426 0.87071 0.54162 0.0
H261 H 0.28096 0.8326 0.74634 0.0
H262 H 0.42502 0.95319 0.65462 0.0
H263 H 0.29112 0.7421 0.6402 0.0
H264 H 0.33179 0.87858 0.71172 0.0
H265 H 0.37519 0.8243 0.57599 0.0
C266 C 0.41521 0.87903 0.5737 0.0
C267 C 0.42985 0.91596 0.59525 0.0
C268 C 0.32291 0.84868 0.69596 0.0
C269 C 0.37144 0.86303 0.63469 0.0
C270 C 0.29376 0.82242 0.71567 0.0
C271 C 0.28171 0.78335 0.69618 0.0
C272 C 0.34014 0.83595 0.65634 0.0
C273 C 0.29948 0.77189 0.65644 0.0
C274 C 0.38617 0.8525 0.5933 0.0
C275 C 0.41469 0.92506 0.63677 0.0
N276 N 0.32776 0.79806 0.63784 0.0
N277 N 0.38628 0.89888 0.65505 0.0
H278 H 0.47251 0.0055 0.91354 0.0
H279 H 0.32259 0.20677 0.87857 0.0
H280 H 0.46025 0.11045 0.00515 0.0
H281 H 0.32683 0.09541 0.79397 0.0
H282 H 0.37407 0.17303 0.92449 0.0
H283 H 0.42079 0.03929 0.86817 0.0
C284 C 0.45905 0.03573 0.92409 0.0
C285 C 0.47078 0.05514 0.96329 0.0
C286 C 0.36367 0.15593 0.89594 0.0
C287 C 0.41132 0.09402 0.91139 0.0
C288 C 0.33424 0.17517 0.86969 0.0
C289 C 0.32033 0.15391 0.83229 0.0
C290 C 0.37951 0.11519 0.88467 0.0
C291 C 0.33657 0.113 0.82247 0.0
C292 C 0.4294 0.05497 0.89818 0.0
C293 C 0.45217 0.0943 0.97524 0.0
N294 N 0.36534 0.09507 0.8484 0.0
N295 N 0.42339 0.11244 0.9494 0.0
H296 H 0.69718 0.30671 0.74427 0.0
H297 H 0.59719 0.39159 0.96494 0.0
H298 H 0.73335 0.26169 0.87094 0.0
H299 H 0.55798 0.43203 0.83776 0.0
H300 H 0.64768 0.34444 0.93131 0.0
H301 H 0.64675 0.35354 0.77815 0.0
C302 C 0.69461 0.30671 0.77925 0.0
C303 C 0.7196 0.28015 0.80479 0.0
C304 C 0.62799 0.36356 0.91075 0.0
C305 C 0.66171 0.33386 0.84386 0.0
C306 C 0.5991 0.39051 0.92992 0.0
C307 C 0.57326 0.41587 0.90413 0.0
C308 C 0.63116 0.36191 0.86541 0.0
C309 C 0.57724 0.41312 0.85895 0.0
C310 C 0.66571 0.33347 0.79858 0.0
C311 C 0.71474 0.28154 0.84995 0.0
N312 N 0.60565 0.38668 0.84105 0.0
N313 N 0.68639 0.30796 0.86804 0.0
H314 H 0.91449 0.51751 0.07073 0.0
H315 H 0.87181 0.26484 0.11041 0.0
H316 H 0.9925 0.41534 0.02402 0.0
H317 H 0.80324 0.36702 0.17178 0.0
H318 H 0.9139 0.31958 0.07503 0.0
H319 H 0.87132 0.46292 0.10504 0.0
C320 C 0.92258 0.48361 0.06769 0.0
C321 C 0.95722 0.47102 0.04446 0.0
C322 C 0.88964 0.33004 0.09622 0.0
C323 C 0.90776 0.40831 0.08349 0.0
C324 C 0.86549 0.29878 0.11638 0.0
C325 C 0.83396 0.31129 0.14424 0.0
C326 C 0.88218 0.37423 0.10381 0.0
C327 C 0.82723 0.35581 0.15064 0.0
C328 C 0.8979 0.45245 0.08732 0.0
C329 C 0.96618 0.42659 0.04168 0.0
N330 N 0.85115 0.38564 0.13062 0.0
N331 N 0.94157 0.39688 0.06085 0.0
H332 H 0.92045 0.54275 0.33666 0.0
H333 H 0.78533 0.75811 0.35172 0.0
H334 H 0.91517 0.624 0.45042 0.0
H335 H 0.78107 0.66863 0.24425 0.0
H336 H 0.83461 0.7109 0.38754 0.0
H337 H 0.87147 0.59033 0.30117 0.0
C338 C 0.9091 0.57065 0.35417 0.0
C339 C 0.92195 0.57933 0.39663 0.0
C340 C 0.82281 0.70158 0.35616 0.0
C341 C 0.86572 0.63399 0.35614 0.0
C342 C 0.79466 0.72852 0.33568 0.0
C343 C 0.77899 0.71734 0.2949 0.0
C344 C 0.83556 0.66326 0.33564 0.0
C345 C 0.79224 0.67857 0.27569 0.0
C346 C 0.88102 0.59777 0.3339 0.0
C347 C 0.9061 0.61599 0.41768 0.0
N348 N 0.81979 0.65304 0.29616 0.0
N349 N 0.87885 0.64195 0.39722 0.0
H350 H 0.52442 0.60996 0.47421 0.0
H351 H 0.67274 0.62932 0.67885 0.0
H352 H 0.53212 0.51341 0.57513 0.0
H353 H 0.66379 0.72668 0.57882 0.0
H354 H 0.62198 0.586 0.64084 0.0
H355 H 0.57563 0.65295 0.51187 0.0
C356 C 0.53678 0.59781 0.50436 0.0
C357 C 0.52389 0.55797 0.52152 0.0
C358 C 0.63115 0.6168 0.62715 0.0
C359 C 0.58278 0.60708 0.5648 0.0
C360 C 0.66022 0.64156 0.64881 0.0
C361 C 0.67257 0.68178 0.63204 0.0
C362 C 0.61421 0.63229 0.58838 0.0
C363 C 0.65521 0.69592 0.59299 0.0
C364 C 0.56611 0.62239 0.52583 0.0
C365 C 0.54109 0.54392 0.56069 0.0
N366 N 0.6269 0.67124 0.57254 0.0
N367 N 0.56966 0.56842 0.58096 0.0
H368 H 0.25397 0.20251 0.40346 0.0
H369 H 0.31377 0.20368 0.65235 0.0
H370 H 0.37152 0.23848 0.45327 0.0
H371 H 0.19163 0.19394 0.60333 0.0
H372 H 0.33943 0.19126 0.57909 0.0
H373 H 0.23607 0.17384 0.47482 0.0
C374 C 0.27641 0.20336 0.42907 0.0
C375 C 0.31383 0.22406 0.42285 0.0
C376 C 0.30707 0.19045 0.58458 0.0
C377 C 0.29347 0.19172 0.5045 0.0
C378 C 0.29239 0.19735 0.62647 0.0
C379 C 0.25054 0.20077 0.63361 0.0
C380 C 0.27966 0.18665 0.5499 0.0
C381 C 0.22417 0.19239 0.59893 0.0
C382 C 0.26612 0.18714 0.46987 0.0
C383 C 0.34188 0.22385 0.45707 0.0
N384 N 0.23915 0.18643 0.55842 0.0
N385 N 0.33087 0.20872 0.49666 0.0
H386 H 0.0499 0.07406 0.89203 0.0
H387 H 0.03471 0.99693 0.6473 0.0
H388 H 0.04952 0.94072 0.84978 0.0
H389 H 0.99808 0.12248 0.69503 0.0
H390 H 0.06704 0.98219 0.71718 0.0
H391 H 0.05956 0.09685 0.81669 0.0
C392 C 0.05315 0.04954 0.86714 0.0
C393 C 0.04772 0.0055 0.87687 0.0
C394 C 0.05278 0.01338 0.71191 0.0
C395 C 0.05782 0.03136 0.79097 0.0
C396 C 0.03437 0.02184 0.67204 0.0
C397 C 0.01274 0.0605 0.66583 0.0
C398 C 0.04966 0.04391 0.74553 0.0
C399 C 0.01359 0.09178 0.69885 0.0
C400 C 0.05827 0.0626 0.82413 0.0
C401 C 0.0525 0.9751 0.84342 0.0
N402 N 0.03117 0.08253 0.73751 0.0
N403 N 0.05641 0.98862 0.80181 0.0
H404 H 0.11668 0.76628 0.94496 0.0
H405 H 0.29696 0.81529 0.09884 0.0
H406 H 0.23514 0.80493 0.89979 0.0
H407 H 0.17382 0.80085 0.14348 0.0
H408 H 0.2718 0.82998 0.02607 0.0
H409 H 0.13249 0.79671 0.01581 0.0
C410 C 0.14573 0.78202 0.9497 0.0
C411 C 0.17509 0.78206 0.91679 0.0
C412 C 0.2501 0.82475 0.05187 0.0
C413 C 0.19374 0.81583 0.99829 0.0
C414 C 0.26451 0.81642 0.09347 0.0
C415 C 0.23742 0.80599 0.12688 0.0
C416 C 0.20837 0.82137 0.04343 0.0
C417 C 0.19571 0.80835 0.11844 0.0
C418 C 0.15475 0.7994 0.99026 0.0
C419 C 0.21187 0.80356 0.92448 0.0
N420 N 0.18245 0.8146 0.0772 0.0
N421 N 0.22058 0.81857 0.96482 0.0
H422 H 0.47319 0.91721 0.37479 0.0
H423 H 0.4855 0.01106 0.13605 0.0
H424 H 0.47067 0.05303 0.34152 0.0
H425 H 0.51163 0.8787 0.17122 0.0
H426 H 0.45562 0.02244 0.20777 0.0
H427 H 0.46287 0.89921 0.29826 0.0
C428 C 0.46923 0.94322 0.3516 0.0
C429 C 0.47382 0.98663 0.3642 0.0
C430 C 0.46708 0.99061 0.19945 0.0
C431 C 0.46244 0.96639 0.27694 0.0
C432 C 0.48397 0.98408 0.15847 0.0
C433 C 0.50218 0.9443 0.14843 0.0
C434 C 0.46853 0.95709 0.23032 0.0
C435 C 0.49904 0.9103 0.17841 0.0
C436 C 0.46356 0.93295 0.30791 0.0
C437 C 0.46827 0.01909 0.33291 0.0
N438 N 0.48328 0.91767 0.21835 0.0
N439 N 0.46359 0.00831 0.29061 0.0
H440 H 0.40384 0.23116 0.21498 0.0
H441 H 0.63142 0.31329 0.19054 0.0
H442 H 0.44511 0.36047 0.24488 0.0
H443 H 0.59534 0.17922 0.20096 0.0
H444 H 0.56004 0.3333 0.18145 0.0
H445 H 0.46992 0.21571 0.18215 0.0
C446 C 0.42641 0.25665 0.21363 0.0
C447 C 0.41948 0.29676 0.23369 0.0
C448 C 0.56791 0.29949 0.18486 0.0
C449 C 0.49487 0.27934 0.19635 0.0
C450 C 0.60865 0.28797 0.18963 0.0
C451 C 0.61911 0.24467 0.19766 0.0
C452 C 0.53771 0.26749 0.18819 0.0
C453 C 0.58841 0.21315 0.1959 0.0
C454 C 0.46413 0.24778 0.19503 0.0
C455 C 0.44968 0.32872 0.23078 0.0
N456 N 0.549 0.22526 0.19219 0.0
N457 N 0.48631 0.31912 0.21313 0.0
H458 H 0.92841 0.39514 0.44709 0.0
H459 H 0.00059 0.15017 0.45648 0.0
H460 H 0.05298 0.35262 0.4452 0.0
H461 H 0.88099 0.19539 0.49053 0.0
H462 H 0.01506 0.22105 0.42425 0.0
H463 H 0.90682 0.32023 0.43387 0.0
C464 C 0.95124 0.37031 0.44251 0.0
C465 C 0.99247 0.37974 0.44843 0.0
C466 C 0.9853 0.21507 0.43784 0.0
C467 C 0.96808 0.29427 0.43422 0.0
C468 C 0.97699 0.17458 0.45612 0.0
C469 C 0.93997 0.16741 0.47733 0.0
C470 C 0.95633 0.24837 0.44078 0.0
C471 C 0.91036 0.20002 0.47556 0.0
C472 C 0.93891 0.32752 0.43534 0.0
C473 C 0.0208 0.34643 0.44193 0.0
N474 N 0.91944 0.23933 0.45834 0.0
N475 N 0.00807 0.30502 0.43605 0.0
H476 H 0.89865 0.80893 0.68263 0.0
H477 H 0.09811 0.76096 0.69472 0.0
H478 H 0.87401 0.67176 0.68594 0.0
H479 H 0.05365 0.63883 0.74362 0.0
H480 H 0.03326 0.77213 0.65805 0.0
H481 H 0.97003 0.79375 0.67193 0.0
C482 C 0.90824 0.77548 0.67938 0.0
C483 C 0.88062 0.74154 0.68597 0.0
C484 C 0.03759 0.74286 0.67677 0.0
C485 C 0.96281 0.72349 0.67414 0.0
C486 C 0.07488 0.73625 0.69731 0.0
C487 C 0.08066 0.69975 0.7237 0.0
C488 C 0.00585 0.71299 0.68331 0.0
C489 C 0.04993 0.66826 0.72495 0.0
C490 C 0.94924 0.76668 0.67307 0.0
C491 C 0.89443 0.69886 0.6813 0.0
N492 N 0.01362 0.67601 0.70583 0.0
N493 N 0.93482 0.69103 0.67696 0.0
H494 H 0.57518 0.60429 0.95227 0.0
H495 H 0.51762 0.85373 0.94176 0.0
H496 H 0.45358 0.65379 0.93819 0.0
H497 H 0.63284 0.80345 0.98509 0.0
H498 H 0.49998 0.78168 0.91466 0.0
H499 H 0.60145 0.67726 0.93888 0.0
C500 C 0.5541 0.63013 0.9447 0.0
C501 C 0.51215 0.62331 0.94717 0.0
C502 C 0.5295 0.78669 0.9292 0.0
C503 C 0.54209 0.70651 0.93179 0.0
C504 C 0.53967 0.82786 0.94455 0.0
C505 C 0.57629 0.8343 0.9668 0.0
C506 C 0.55619 0.75189 0.93613 0.0
C507 C 0.60385 0.79968 0.96907 0.0
C508 C 0.56915 0.67178 0.93722 0.0
C509 C 0.48617 0.65797 0.93733 0.0
N510 N 0.59293 0.75977 0.95465 0.0
N511 N 0.50154 0.69827 0.93075 0.0
H512 H 0.59532 0.7362 0.28634 0.0
H513 H 0.395 0.68871 0.3005 0.0
H514 H 0.55221 0.85788 0.23549 0.0
H515 H 0.37078 0.82576 0.29276 0.0
H516 H 0.46665 0.70395 0.30862 0.0
H517 H 0.52979 0.72542 0.3217 0.0
C518 C 0.57215 0.76084 0.28294 0.0
C519 C 0.57851 0.7971 0.2564 0.0
C520 C 0.44597 0.73107 0.30696 0.0
C521 C 0.50286 0.78427 0.29517 0.0
C522 C 0.4048 0.72222 0.30211 0.0
C523 C 0.3771 0.756 0.29534 0.0
C524 C 0.45969 0.77415 0.30428 0.0
C525 C 0.39124 0.79878 0.29775 0.0
C526 C 0.53444 0.75444 0.30268 0.0
C527 C 0.54785 0.82854 0.2541 0.0
N528 N 0.43177 0.80661 0.30081 0.0
N529 N 0.51112 0.82102 0.27244 0.0
H530 H 0.43272 0.09596 0.54727 0.0
H531 H 0.48898 0.34585 0.55507 0.0
H532 H 0.55413 0.14714 0.55691 0.0
H533 H 0.37166 0.29535 0.51924 0.0
H534 H 0.50792 0.27403 0.58177 0.0
H535 H 0.40598 0.16837 0.56233 0.0
C536 C 0.45373 0.12211 0.55404 0.0
C537 C 0.49565 0.11588 0.54991 0.0
C538 C 0.47769 0.2789 0.56895 0.0
C539 C 0.46532 0.19861 0.56701 0.0
C540 C 0.46679 0.31997 0.5539 0.0
C541 C 0.42915 0.32617 0.53369 0.0
C542 C 0.45076 0.24395 0.56364 0.0
C543 C 0.40146 0.29158 0.53345 0.0
C544 C 0.43844 0.16351 0.56245 0.0
C545 C 0.52153 0.15085 0.55896 0.0
N546 N 0.41309 0.2517 0.54734 0.0
N547 N 0.50596 0.19088 0.56639 0.0
H548 H 0.09039 0.31041 0.81036 0.0
H549 H 0.93408 0.12667 0.76297 0.0
H550 H 0.12243 0.1751 0.80369 0.0
H551 H 0.90024 0.25953 0.78719 0.0
H552 H 0.99986 0.14051 0.79629 0.0
H553 H 0.01959 0.29019 0.82083 0.0
C554 C 0.08257 0.27634 0.81236 0.0
C555 C 0.11207 0.24435 0.80538 0.0
C556 C 0.97791 0.16648 0.79504 0.0
C557 C 0.0309 0.22091 0.81592 0.0
C558 C 0.94027 0.15859 0.77607 0.0
C559 C 0.91207 0.19232 0.77144 0.0
C560 C 0.98791 0.20869 0.80827 0.0
C561 C 0.92134 0.23277 0.78962 0.0
C562 C 0.04209 0.26477 0.81823 0.0
C563 C 0.10051 0.20075 0.80865 0.0
N564 N 0.95892 0.24016 0.80624 0.0
N565 N 0.06059 0.19028 0.81252 0.0
H566 H 0.0713 0.88878 0.06604 0.0
H567 H 0.0072 0.64125 0.05536 0.0
H568 H 0.94849 0.84145 0.0567 0.0
H569 H 0.12602 0.69107 0.02436 0.0
H570 H 0.98954 0.7117 0.0866 0.0
H571 H 0.09406 0.81488 0.08241 0.0
C572 C 0.04899 0.86314 0.06876 0.0
C573 C 0.00812 0.87091 0.05885 0.0
C574 C 0.01986 0.70676 0.07406 0.0
C575 C 0.03398 0.78663 0.07661 0.0
C576 C 0.03001 0.66651 0.05637 0.0
C577 C 0.06773 0.66074 0.03616 0.0
C578 C 0.04769 0.74121 0.07159 0.0
C579 C 0.09622 0.6945 0.03868 0.0
C580 C 0.06203 0.82095 0.07773 0.0
C581 C 0.98046 0.83657 0.06307 0.0
N582 N 0.08536 0.73356 0.0553 0.0
N583 N 0.99398 0.79576 0.07077 0.0
H584 H 0.25309 0.43302 0.37771 0.0
H585 H 0.20185 0.59896 0.19435 0.0
H586 H 0.23033 0.39663 0.245 0.0
H587 H 0.21347 0.63364 0.32914 0.0
H588 H 0.19367 0.52323 0.21519 0.0
H589 H 0.22026 0.50269 0.36421 0.0
C590 C 0.24068 0.43954 0.34586 0.0
C591 C 0.24527 0.40955 0.31208 0.0
C592 C 0.19701 0.54741 0.24038 0.0
C593 C 0.20923 0.48984 0.29611 0.0
C594 C 0.2016 0.59071 0.22847 0.0
C595 C 0.20932 0.62238 0.26003 0.0
C596 C 0.20108 0.53561 0.28409 0.0
C597 C 0.20808 0.61011 0.30374 0.0
C598 C 0.22203 0.47935 0.33818 0.0
C599 C 0.2279 0.41917 0.27176 0.0
N600 N 0.20521 0.56745 0.31445 0.0
N601 N 0.21159 0.459 0.26455 0.0
H602 H 0.71991 0.09856 0.7563 0.0
H603 H 0.70405 0.85739 0.66897 0.0
H604 H 0.74877 0.05733 0.62634 0.0
H605 H 0.71303 0.89373 0.80361 0.0
H606 H 0.69045 0.93335 0.65069 0.0
H607 H 0.6891 0.02756 0.76995 0.0
C608 C 0.71872 0.07505 0.73026 0.0
C609 C 0.73789 0.08329 0.69055 0.0
C610 C 0.6946 0.92444 0.68429 0.0
C611 C 0.70273 0.00241 0.70585 0.0
C612 C 0.70199 0.88107 0.69479 0.0
C613 C 0.71095 0.86961 0.7377 0.0
C614 C 0.69646 0.95621 0.71689 0.0
C615 C 0.70744 0.9015 0.76993 0.0
C616 C 0.7012 0.03455 0.73809 0.0
C617 C 0.73521 0.05185 0.65782 0.0
N618 N 0.70136 0.94353 0.75878 0.0
N619 N 0.71856 0.01255 0.66642 0.0
H620 H 0.38449 0.44936 0.921 0.0
H621 H 0.15946 0.4552 0.011 0.0
H622 H 0.35103 0.44601 0.05597 0.0
H623 H 0.19551 0.49301 0.88207 0.0
H624 H 0.22644 0.42266 0.02182 0.0
H625 H 0.31348 0.43565 0.90161 0.0
C626 C 0.36247 0.44414 0.94651 0.0
C627 C 0.37322 0.44975 0.99007 0.0
C628 C 0.21927 0.43707 0.99075 0.0
C629 C 0.29237 0.4347 0.96828 0.0
C630 C 0.18103 0.45554 0.98454 0.0
C631 C 0.17248 0.47794 0.94608 0.0
C632 C 0.24887 0.44098 0.95819 0.0
C633 C 0.20135 0.47707 0.9127 0.0
C634 C 0.32193 0.43663 0.93547 0.0
C635 C 0.34363 0.44277 0.02194 0.0
N636 N 0.2385 0.45955 0.91979 0.0
N637 N 0.30439 0.43638 0.01042 0.0
H638 H 0.79798 0.08812 0.29599 0.0
H639 H 0.74547 0.92524 0.11126 0.0
H640 H 0.78581 0.12505 0.1619 0.0
H641 H 0.7714 0.88691 0.24279 0.0
H642 H 0.77867 0.99459 0.12479 0.0
H643 H 0.80731 0.01298 0.2738 0.0
C644 C 0.79843 0.08051 0.26173 0.0
C645 C 0.79009 0.11258 0.23077 0.0
C646 C 0.77754 0.97095 0.15058 0.0
C647 C 0.79956 0.02644 0.20513 0.0
C648 C 0.75866 0.93125 0.14285 0.0
C649 C 0.75479 0.90078 0.17633 0.0
C650 C 0.79135 0.98083 0.19247 0.0
C651 C 0.77318 0.90981 0.21627 0.0
C652 C 0.80367 0.03753 0.24903 0.0
C653 C 0.79163 0.10117 0.18684 0.0
N654 N 0.78973 0.94951 0.2236 0.0
N655 N 0.79507 0.05876 0.17536 0.0
H656 H 0.86267 0.0514 0.93459 0.0
H657 H 0.69023 0.03086 0.10734 0.0
H658 H 0.88318 0.05069 0.07251 0.0
H659 H 0.66987 0.03359 0.96942 0.0
H660 H 0.75733 0.06263 0.0959 0.0
H661 H 0.79138 0.06798 0.94725 0.0
C662 C 0.85226 0.05587 0.96759 0.0
C663 C 0.87855 0.0488 0.00262 0.0
C664 C 0.73808 0.05671 0.06819 0.0
C665 C 0.79671 0.06658 0.01744 0.0
C666 C 0.69967 0.03894 0.0747 0.0
C667 C 0.67494 0.02881 0.03913 0.0
C668 C 0.75251 0.06244 0.02581 0.0
C669 C 0.68826 0.04049 0.99765 0.0
C670 C 0.81152 0.06528 0.97483 0.0
C671 C 0.86376 0.05552 0.04464 0.0
N672 N 0.72668 0.05549 0.99199 0.0
N673 N 0.8235 0.06292 0.05096 0.0
H674 H 0.25011 0.57782 0.87649 0.0
H675 H 0.28251 0.40494 0.69571 0.0
H676 H 0.26664 0.6091 0.74147 0.0
H677 H 0.27737 0.3747 0.83201 0.0
H678 H 0.29627 0.48049 0.7136 0.0
H679 H 0.28068 0.50689 0.86355 0.0
C680 C 0.26085 0.56996 0.84426 0.0
C681 C 0.25497 0.5988 0.80972 0.0
C682 C 0.2931 0.45728 0.7397 0.0
C683 C 0.28779 0.51696 0.79435 0.0
C684 C 0.2852 0.41411 0.72947 0.0
C685 C 0.27783 0.38385 0.76246 0.0
C686 C 0.29259 0.47046 0.78323 0.0
C687 C 0.28237 0.39717 0.8056 0.0
C688 C 0.27806 0.52937 0.83685 0.0
C689 C 0.2701 0.58746 0.76884 0.0
N690 N 0.28839 0.43981 0.81477 0.0
N691 N 0.28475 0.54687 0.76198 0.0
H692 H 0.11559 0.55546 0.42578 0.0
H693 H 0.33736 0.53677 0.52248 0.0
H694 H 0.14518 0.5584 0.56183 0.0
H695 H 0.30382 0.50664 0.39081 0.0
H696 H 0.27142 0.57197 0.53257 0.0
H697 H 0.18754 0.56591 0.40872 0.0
C698 C 0.13702 0.55984 0.45202 0.0
C699 C 0.12476 0.55495 0.49522 0.0
C700 C 0.27892 0.55859 0.50114 0.0
C701 C 0.20677 0.56608 0.4761 0.0
C702 C 0.31657 0.53859 0.49537 0.0
C703 C 0.32542 0.51767 0.45619 0.0
C704 C 0.25023 0.55764 0.46742 0.0
C705 C 0.29763 0.52133 0.42197 0.0
C706 C 0.17811 0.56545 0.44231 0.0
C707 C 0.15367 0.56097 0.52803 0.0
N708 N 0.26103 0.54025 0.4286 0.0
N709 N 0.19346 0.56533 0.51781 0.0
H710 H 0.69101 0.67552 0.84348 0.0
H711 H 0.74394 0.69139 0.09364 0.0
H712 H 0.81132 0.69144 0.89615 0.0
H713 H 0.62881 0.72576 0.03676 0.0
H714 H 0.76448 0.65928 0.02457 0.0
H715 H 0.66587 0.6603 0.91648 0.0
C716 C 0.71234 0.67456 0.87015 0.0
C717 C 0.75307 0.68613 0.86405 0.0
C718 C 0.73431 0.67282 0.02764 0.0
C719 C 0.72428 0.66965 0.94734 0.0
C720 C 0.72251 0.69107 0.06705 0.0
C721 C 0.68507 0.71241 0.07047 0.0
C722 C 0.70838 0.67575 0.99169 0.0
C723 C 0.6584 0.71066 0.03509 0.0
C724 C 0.69785 0.66626 0.91184 0.0
C725 C 0.77943 0.68386 0.89969 0.0
N726 N 0.67085 0.69339 0.99687 0.0
N727 N 0.76443 0.6768 0.94 0.0
H728 H 0.51548 0.50311 0.36536 0.0
H729 H 0.53355 0.42528 0.12066 0.0
H730 H 0.48457 0.37527 0.31903 0.0
H731 H 0.52855 0.55908 0.16121 0.0
H732 H 0.54057 0.40369 0.19656 0.0
H733 H 0.54513 0.51965 0.29454 0.0
C734 C 0.51588 0.47814 0.34068 0.0
C735 C 0.49664 0.43816 0.34758 0.0
C736 C 0.53916 0.43777 0.18861 0.0
C737 C 0.53036 0.45684 0.26687 0.0
C738 C 0.53528 0.45017 0.14535 0.0
C739 C 0.52952 0.49396 0.13485 0.0
C740 C 0.53764 0.46935 0.22131 0.0
C741 C 0.53204 0.52486 0.16812 0.0
C742 C 0.53268 0.48766 0.30028 0.0
C743 C 0.49826 0.40688 0.31464 0.0
N744 N 0.53528 0.51192 0.21 0.0
N745 N 0.51425 0.41711 0.27546 0.0
H746 H 0.69287 0.29659 0.39536 0.0
H747 H 0.87227 0.25696 0.55355 0.0
H748 H 0.81762 0.29058 0.35404 0.0
H749 H 0.75048 0.28537 0.59587 0.0
H750 H 0.8561 0.28771 0.48274 0.0
H751 H 0.71541 0.31134 0.46909 0.0
C752 C 0.72507 0.29953 0.4017 0.0
C753 C 0.75348 0.29141 0.3689 0.0
C754 C 0.83316 0.28796 0.50771 0.0
C755 C 0.7796 0.30698 0.45342 0.0
C756 C 0.84234 0.2704 0.54815 0.0
C757 C 0.81229 0.26754 0.58016 0.0
C758 C 0.7934 0.30152 0.49884 0.0
C759 C 0.77435 0.28628 0.57181 0.0
C760 C 0.73798 0.30792 0.44384 0.0
C761 C 0.79477 0.29618 0.37858 0.0
N762 N 0.76562 0.30144 0.53155 0.0
N763 N 0.80667 0.30247 0.4203 0.0
H764 H 0.96268 0.58412 0.61766 0.0
H765 H 0.97363 0.49919 0.85996 0.0
H766 H 0.95479 0.44988 0.65603 0.0
H767 H 0.01278 0.6257 0.81718 0.0
H768 H 0.94161 0.48764 0.78939 0.0
H769 H 0.9552 0.60533 0.6937 0.0
C770 C 0.95795 0.55919 0.64186 0.0
C771 C 0.96035 0.51516 0.63083 0.0
C772 C 0.95643 0.51831 0.79585 0.0
C773 C 0.95223 0.53918 0.71747 0.0
C774 C 0.97464 0.52496 0.83614 0.0
C775 C 0.99688 0.56295 0.84392 0.0
C776 C 0.96049 0.54991 0.76334 0.0
C777 C 0.99683 0.59544 0.81207 0.0
C778 C 0.95395 0.57132 0.68525 0.0
C779 C 0.954 0.48419 0.66342 0.0
N780 N 0.97955 0.58789 0.77289 0.0
N781 N 0.95098 0.49676 0.70541 0.0
H782 H 0.81549 0.98924 0.62272 0.0
H783 H 0.65869 0.94239 0.43938 0.0
H784 H 0.84916 0.96505 0.48989 0.0
H785 H 0.62692 0.94821 0.57469 0.0
H786 H 0.72959 0.93217 0.45931 0.0
H787 H 0.74961 0.95601 0.60888 0.0
C788 C 0.80921 0.97623 0.5908 0.0
C789 C 0.83743 0.98072 0.5571 0.0
C790 C 0.70713 0.93453 0.48479 0.0
C791 C 0.76142 0.94424 0.54074 0.0
C792 C 0.6666 0.94025 0.47339 0.0
C793 C 0.63714 0.94687 0.50547 0.0
C794 C 0.7184 0.93662 0.5286 0.0
C795 C 0.6488 0.94348 0.54898 0.0
C796 C 0.77151 0.95736 0.58292 0.0
C797 C 0.82804 0.96268 0.51664 0.0
N798 N 0.68877 0.93975 0.5593 0.0
N799 N 0.79039 0.94624 0.50925 0.0
loop_
_geom_bond_atom_site_label_1
_geom_bond_atom_site_label_2
_geom_bond_distance
_geom_bond_site_symmetry_2
_ccdc_geom_bond_type
Zn0 O3 2.031 . S
Zn0 O5 2.049 . S
Zn0 O10 2.067 . S
Zn1 O2 1.962 . S
Zn1 O4 1.986 . S
Zn1 O6 1.996 . S
Zn1 O9 1.943 . S
O2 Zn1 1.962 . S
O2 C7 1.254 . S
O3 Zn0 2.031 . S
O3 C7 1.269 . S
O4 Zn1 1.986 . S
O4 C11 1.262 . S
O5 Zn0 2.049 . S
O5 C13 1.260 . S
O6 Zn1 1.996 . S
O6 C13 1.257 . S
C7 O2 1.254 . S
C7 O3 1.269 . S
C8 O9 1.249 . S
C8 O10 1.270 . S
O9 Zn1 1.943 . S
O9 C8 1.249 . S
O10 Zn0 2.067 . S
O10 C8 1.270 . S
C11 O4 1.262 . S
C11 O12 1.232 . S
O12 C11 1.232 . S
C13 O5 1.260 . S
C13 O6 1.257 . S
Zn14 O17 2.031 . S
Zn14 O19 2.049 . S
Zn14 O24 2.067 . S
Zn15 O16 1.962 1_545 S
Zn15 O18 1.986 1_645 S
Zn15 O20 1.996 . S
Zn15 O23 1.943 1_545 S
O16 Zn15 1.962 1_565 S
O16 C21 1.254 1_565 S
O17 Zn14 2.031 . S
O17 C21 1.269 . S
O18 Zn15 1.986 1_465 S
O18 C25 1.262 . S
O19 Zn14 2.049 . S
O19 C27 1.260 . S
O20 Zn15 1.996 . S
O20 C27 1.257 . S
C21 O16 1.254 1_545 S
C21 O17 1.269 . S
C22 O23 1.249 1_545 S
C22 O24 1.270 . S
O23 Zn15 1.943 1_565 S
O23 C22 1.249 1_565 S
O24 Zn14 2.067 . S
O24 C22 1.270 . S
C25 O18 1.262 . S
C25 O26 1.232 1_455 S
O26 C25 1.232 1_655 S
C27 O19 1.260 . S
C27 O20 1.257 . S
Zn28 O31 2.031 . S
Zn28 O33 2.049 . S
Zn28 O38 2.067 . S
Zn29 O30 1.962 . S
Zn29 O32 1.986 . S
Zn29 O34 1.996 . S
Zn29 O37 1.943 . S
O30 Zn29 1.962 . S
O30 C35 1.254 . S
O31 Zn28 2.031 . S
O31 C35 1.269 . S
O32 Zn29 1.986 . S
O32 C39 1.262 . S
O33 Zn28 2.049 . S
O33 C41 1.260 . S
O34 Zn29 1.996 . S
O34 C41 1.257 . S
C35 O30 1.254 . S
C35 O31 1.269 . S
C36 O37 1.249 . S
C36 O38 1.270 . S
O37 Zn29 1.943 . S
O37 C36 1.249 . S
O38 Zn28 2.067 . S
O38 C36 1.270 . S
C39 O32 1.262 . S
C39 O40 1.232 . S
O40 C39 1.232 . S
C41 O33 1.260 . S
C41 O34 1.257 . S
Zn42 O45 2.031 . S
Zn42 O47 2.049 . S
Zn42 O52 2.067 . S
Zn43 O44 1.962 1_564 S
Zn43 O46 1.986 1_564 S
Zn43 O48 1.996 . S
Zn43 O51 1.943 1_565 S
O44 Zn43 1.962 1_546 S
O44 C49 1.254 1_546 S
O45 Zn42 2.031 . S
O45 C49 1.269 . S
O46 Zn43 1.986 1_546 S
O46 C53 1.262 . S
O47 Zn42 2.049 . S
O47 C55 1.260 . S
O48 Zn43 1.996 . S
O48 C55 1.257 . S
C49 O44 1.254 1_564 S
C49 O45 1.269 . S
C50 O51 1.249 1_565 S
C50 O52 1.270 . S
O51 Zn43 1.943 1_545 S
O51 C50 1.249 1_545 S
O52 Zn42 2.067 . S
O52 C50 1.270 . S
C53 O46 1.262 . S
C53 O54 1.232 . S
O54 C53 1.232 . S
C55 O47 1.260 . S
C55 O48 1.257 . S
Zn56 O59 2.031 . S
Zn56 O61 2.049 . S
Zn56 O66 2.067 . S
Zn57 O58 1.962 . S
Zn57 O60 1.986 . S
Zn57 O62 1.996 . S
Zn57 O65 1.943 . S
O58 Zn57 1.962 . S
O58 C63 1.254 . S
O59 Zn56 2.031 . S
O59 C63 1.269 . S
O60 Zn57 1.986 . S
O60 C67 1.262 . S
O61 Zn56 2.049 . S
O61 C69 1.260 . S
O62 Zn57 1.996 . S
O62 C69 1.257 . S
C63 O58 1.254 . S
C63 O59 1.269 . S
C64 O65 1.249 . S
C64 O66 1.270 . S
O65 Zn57 1.943 . S
O65 C64 1.249 . S
O66 Zn56 2.067 . S
O66 C64 1.270 . S
C67 O60 1.262 . S
C67 O68 1.232 . S
O68 C67 1.232 . S
C69 O61 1.260 . S
C69 O62 1.257 . S
Zn70 O73 2.031 . S
Zn70 O75 2.049 . S
Zn70 O80 2.067 . S
Zn71 O72 1.962 1_545 S
Zn71 O74 1.986 1_545 S
Zn71 O76 1.996 . S
Zn71 O79 1.943 1_545 S
O72 Zn71 1.962 1_565 S
O72 C77 1.254 1_565 S
O73 Zn70 2.031 . S
O73 C77 1.269 . S
O74 Zn71 1.986 1_565 S
O74 C81 1.262 . S
O75 Zn70 2.049 . S
O75 C83 1.260 . S
O76 Zn71 1.996 . S
O76 C83 1.257 . S
C77 O72 1.254 1_545 S
C77 O73 1.269 . S
C78 O79 1.249 1_545 S
C78 O80 1.270 . S
O79 Zn71 1.943 1_565 S
O79 C78 1.249 1_565 S
O80 Zn70 2.067 . S
O80 C78 1.270 . S
C81 O74 1.262 . S
C81 O82 1.232 . S
O82 C81 1.232 . S
C83 O75 1.260 . S
C83 O76 1.257 . S
Zn84 O87 2.031 . S
Zn84 O89 2.049 . S
Zn84 O94 2.067 . S
Zn85 O86 1.962 . S
Zn85 O88 1.986 . S
Zn85 O90 1.996 . S
Zn85 O93 1.943 . S
O86 Zn85 1.962 . S
O86 C91 1.254 . S
O87 Zn84 2.031 . S
O87 C91 1.269 . S
O88 Zn85 1.986 . S
O88 C95 1.262 . S
O89 Zn84 2.049 . S
O89 C97 1.260 . S
O90 Zn85 1.996 . S
O90 C97 1.257 . S
C91 O86 1.254 . S
C91 O87 1.269 . S
C92 O93 1.249 . S
C92 O94 1.270 . S
O93 Zn85 1.943 . S
O93 C92 1.249 . S
O94 Zn84 2.067 . S
O94 C92 1.270 . S
C95 O88 1.262 . S
C95 O96 1.232 . S
O96 C95 1.232 . S
C97 O89 1.260 . S
C97 O90 1.257 . S
Zn98 O101 2.031 . S
Zn98 O103 2.049 . S
Zn98 O108 2.067 . S
Zn99 O100 1.962 1_566 S
Zn99 O102 1.986 1_666 S
Zn99 O104 1.996 . S
Zn99 O107 1.943 1_565 S
O100 Zn99 1.962 1_544 S
O100 C105 1.254 1_544 S
O101 Zn98 2.031 . S
O101 C105 1.269 . S
O102 Zn99 1.986 1_444 S
O102 C109 1.262 . S
O103 Zn98 2.049 . S
O103 C111 1.260 . S
O104 Zn99 1.996 . S
O104 C111 1.257 . S
C105 O100 1.254 1_566 S
C105 O101 1.269 . S
C106 O107 1.249 1_565 S
C106 O108 1.270 . S
O107 Zn99 1.943 1_545 S
O107 C106 1.249 1_545 S
O108 Zn98 2.067 . S
O108 C106 1.270 . S
C109 O102 1.262 . S
C109 O110 1.232 1_455 S
O110 C109 1.232 1_655 S
C111 O103 1.260 . S
C111 O104 1.257 . S
Zn112 O115 2.031 . S
Zn112 O117 2.049 . S
Zn112 O122 2.067 . S
Zn113 O114 1.962 . S
Zn113 O116 1.986 . S
Zn113 O118 1.996 . S
Zn113 O121 1.943 . S
O114 Zn113 1.962 . S
O114 C119 1.254 . S
O115 Zn112 2.031 . S
O115 C119 1.269 . S
O116 Zn113 1.986 . S
O116 C123 1.262 . S
O117 Zn112 2.049 . S
O117 C125 1.260 . S
O118 Zn113 1.996 . S
O118 C125 1.257 . S
C119 O114 1.254 . S
C119 O115 1.269 . S
C120 O121 1.249 . S
C120 O122 1.270 . S
O121 Zn113 1.943 . S
O121 C120 1.249 . S
O122 Zn112 2.067 . S
O122 C120 1.270 . S
C123 O116 1.262 . S
C123 O124 1.232 . S
O124 C123 1.232 . S
C125 O117 1.260 . S
C125 O118 1.257 . S
Zn126 O129 2.031 . S
Zn126 O131 2.049 . S
Zn126 O136 2.067 . S
Zn127 O128 1.962 1_556 S
Zn127 O130 1.986 1_456 S
Zn127 O132 1.996 . S
Zn127 O135 1.943 . S
O128 Zn127 1.962 1_554 S
O128 C133 1.254 1_554 S
O129 Zn126 2.031 . S
O129 C133 1.269 . S
O130 Zn127 1.986 1_654 S
O130 C137 1.262 . S
O131 Zn126 2.049 . S
O131 C139 1.260 . S
O132 Zn127 1.996 . S
O132 C139 1.257 . S
C133 O128 1.254 1_556 S
C133 O129 1.269 . S
C134 O135 1.249 . S
C134 O136 1.270 . S
O135 Zn127 1.943 . S
O135 C134 1.249 . S
O136 Zn126 2.067 . S
O136 C134 1.270 . S
C137 O130 1.262 . S
C137 O138 1.232 1_655 S
O138 C137 1.232 1_455 S
C139 O131 1.260 . S
C139 O132 1.257 . S
Zn140 O143 2.031 . S
Zn140 O145 2.049 . S
Zn140 O150 2.067 . S
Zn141 O142 1.962 . S
Zn141 O144 1.986 . S
Zn141 O146 1.996 . S
Zn141 O149 1.943 . S
O142 Zn141 1.962 . S
O142 C147 1.254 . S
O143 Zn140 2.031 . S
O143 C147 1.269 . S
O144 Zn141 1.986 . S
O144 C151 1.262 . S
O145 Zn140 2.049 . S
O145 C153 1.260 . S
O146 Zn141 1.996 . S
O146 C153 1.257 . S
C147 O142 1.254 . S
C147 O143 1.269 . S
C148 O149 1.249 . S
C148 O150 1.270 . S
O149 Zn141 1.943 . S
O149 C148 1.249 . S
O150 Zn140 2.067 . S
O150 C148 1.270 . S
C151 O144 1.262 . S
C151 O152 1.232 . S
O152 C151 1.232 . S
C153 O145 1.260 . S
C153 O146 1.257 . S
Zn154 O157 2.031 . S
Zn154 O159 2.049 . S
Zn154 O164 2.067 . S
Zn155 O156 1.962 . S
Zn155 O158 1.986 1_455 S
Zn155 O160 1.996 . S
Zn155 O163 1.943 . S
O156 Zn155 1.962 . S
O156 C161 1.254 . S
O157 Zn154 2.031 . S
O157 C161 1.269 . S
O158 Zn155 1.986 1_655 S
O158 C165 1.262 . S
O159 Zn154 2.049 . S
O159 C167 1.260 . S
O160 Zn155 1.996 . S
O160 C167 1.257 . S
C161 O156 1.254 . S
C161 O157 1.269 . S
C162 O163 1.249 . S
C162 O164 1.270 . S
O163 Zn155 1.943 . S
O163 C162 1.249 . S
O164 Zn154 2.067 . S
O164 C162 1.270 . S
C165 O158 1.262 . S
C165 O166 1.232 1_655 S
O166 C165 1.232 1_455 S
C167 O159 1.260 . S
C167 O160 1.257 . S
Zn168 O171 2.031 . S
Zn168 O173 2.049 . S
Zn168 O178 2.067 . S
Zn169 O170 1.962 1_554 S
Zn169 O172 1.986 1_554 S
Zn169 O174 1.996 . S
Zn169 O177 1.943 . S
O170 Zn169 1.962 1_556 S
O170 C175 1.254 1_556 S
O171 Zn168 2.031 . S
O171 C175 1.269 . S
O172 Zn169 1.986 1_556 S
O172 C179 1.262 . S
O173 Zn168 2.049 . S
O173 C181 1.260 . S
O174 Zn169 1.996 . S
O174 C181 1.257 . S
C175 O170 1.254 1_554 S
C175 O171 1.269 . S
C176 O177 1.249 . S
C176 O178 1.270 . S
O177 Zn169 1.943 . S
O177 C176 1.249 . S
O178 Zn168 2.067 . S
O178 C176 1.270 . S
C179 O172 1.262 . S
C179 O180 1.232 . S
O180 C179 1.232 . S
C181 O173 1.260 . S
C181 O174 1.257 . S
Zn182 O185 2.031 . S
Zn182 O187 2.049 . S
Zn182 O192 2.067 . S
Zn183 O184 1.962 . S
Zn183 O186 1.986 . S
Zn183 O188 1.996 . S
Zn183 O191 1.943 . S
O184 Zn183 1.962 . S
O184 C189 1.254 . S
O185 Zn182 2.031 . S
O185 C189 1.269 . S
O186 Zn183 1.986 . S
O186 C193 1.262 . S
O187 Zn182 2.049 . S
O187 C195 1.260 . S
O188 Zn183 1.996 . S
O188 C195 1.257 . S
C189 O184 1.254 . S
C189 O185 1.269 . S
C190 O191 1.249 . S
C190 O192 1.270 . S
O191 Zn183 1.943 . S
O191 C190 1.249 . S
O192 Zn182 2.067 . S
O192 C190 1.270 . S
C193 O186 1.262 . S
C193 O194 1.232 . S
O194 C193 1.232 . S
C195 O187 1.260 . S
C195 O188 1.257 . S
Zn196 O199 2.031 . S
Zn196 O201 2.049 . S
Zn196 O206 2.067 . S
Zn197 O198 1.962 . S
Zn197 O200 1.986 . S
Zn197 O202 1.996 . S
Zn197 O205 1.943 . S
O198 Zn197 1.962 . S
O198 C203 1.254 . S
O199 Zn196 2.031 . S
O199 C203 1.269 . S
O200 Zn197 1.986 . S
O200 C207 1.262 . S
O201 Zn196 2.049 . S
O201 C209 1.260 . S
O202 Zn197 1.996 . S
O202 C209 1.257 . S
C203 O198 1.254 . S
C203 O199 1.269 . S
C204 O205 1.249 . S
C204 O206 1.270 . S
O205 Zn197 1.943 . S
O205 C204 1.249 . S
O206 Zn196 2.067 . S
O206 C204 1.270 . S
C207 O200 1.262 . S
C207 O208 1.232 . S
O208 C207 1.232 . S
C209 O201 1.260 . S
C209 O202 1.257 . S
Zn210 O213 2.031 . S
Zn210 O215 2.049 . S
Zn210 O220 2.067 . S
Zn211 O212 1.962 . S
Zn211 O214 1.986 . S
Zn211 O216 1.996 . S
Zn211 O219 1.943 . S
O212 Zn211 1.962 . S
O212 C217 1.254 . S
O213 Zn210 2.031 . S
O213 C217 1.269 . S
O214 Zn211 1.986 . S
O214 C221 1.262 . S
O215 Zn210 2.049 . S
O215 C223 1.260 . S
O216 Zn211 1.996 . S
O216 C223 1.257 . S
C217 O212 1.254 . S
C217 O213 1.269 . S
C218 O219 1.249 . S
C218 O220 1.270 . S
O219 Zn211 1.943 . S
O219 C218 1.249 . S
O220 Zn210 2.067 . S
O220 C218 1.270 . S
C221 O214 1.262 . S
C221 O222 1.232 . S
O222 C221 1.232 . S
C223 O215 1.260 . S
C223 O216 1.257 . S
H224 C230 0.930 . S
H225 C234 0.930 . S
H226 C239 0.929 . S
H227 C237 0.929 . S
H228 C232 0.929 . S
H229 C238 0.929 . S
C230 H224 0.930 . S
C230 C231 1.367 . S
C230 C238 1.378 . S
C231 C230 1.367 . S
C231 C239 1.433 . S
C232 H228 0.929 . S
C232 C234 1.378 . S
C232 C236 1.350 . S
C233 C236 1.463 . S
C233 C238 1.350 . S
C233 N241 1.427 . S
C234 H225 0.930 . S
C234 C232 1.378 . S
C234 C235 1.367 . S
C235 C234 1.367 . S
C235 C237 1.433 . S
C236 C232 1.350 . S
C236 C233 1.463 . S
C236 N240 1.427 . S
C237 H227 0.929 . S
C237 C235 1.433 . S
C237 N240 1.384 . S
C238 H229 0.929 . S
C238 C230 1.378 . S
C238 C233 1.350 . S
C239 H226 0.929 . S
C239 C231 1.433 . S
C239 N241 1.384 . S
N240 C236 1.427 . S
N240 C237 1.384 . S
N241 C233 1.427 . S
N241 C239 1.384 . S
H242 C248 0.930 . S
H243 C252 0.930 . S
H244 C257 0.929 . S
H245 C255 0.929 . S
H246 C250 0.929 . S
H247 C256 0.929 . S
C248 H242 0.930 . S
C248 C249 1.367 . S
C248 C256 1.378 . S
C249 C248 1.367 . S
C249 C257 1.433 . S
C250 H246 0.929 . S
C250 C252 1.378 . S
C250 C254 1.350 . S
C251 C254 1.463 . S
C251 C256 1.350 . S
C251 N259 1.427 . S
C252 H243 0.930 . S
C252 C250 1.378 . S
C252 C253 1.367 . S
C253 C252 1.367 . S
C253 C255 1.433 . S
C254 C250 1.350 . S
C254 C251 1.463 . S
C254 N258 1.427 . S
C255 H245 0.929 . S
C255 C253 1.433 . S
C255 N258 1.384 . S
C256 H247 0.929 . S
C256 C248 1.378 . S
C256 C251 1.350 . S
C257 H244 0.929 . S
C257 C249 1.433 . S
C257 N259 1.384 . S
N258 C254 1.427 . S
N258 C255 1.384 . S
N259 C251 1.427 . S
N259 C257 1.384 . S
H260 C266 0.930 . S
H261 C270 0.930 . S
H262 C275 0.929 . S
H263 C273 0.929 . S
H264 C268 0.929 . S
H265 C274 0.929 . S
C266 H260 0.930 . S
C266 C267 1.367 . S
C266 C274 1.378 . S
C267 C266 1.367 . S
C267 C275 1.433 . S
C268 H264 0.929 . S
C268 C270 1.378 . S
C268 C272 1.350 . S
C269 C272 1.463 . S
C269 C274 1.350 . S
C269 N277 1.427 . S
C270 H261 0.930 . S
C270 C268 1.378 . S
C270 C271 1.367 . S
C271 C270 1.367 . S
C271 C273 1.433 . S
C272 C268 1.350 . S
C272 C269 1.463 . S
C272 N276 1.427 . S
C273 H263 0.929 . S
C273 C271 1.433 . S
C273 N276 1.384 . S
C274 H265 0.929 . S
C274 C266 1.378 . S
C274 C269 1.350 . S
C275 H262 0.929 . S
C275 C267 1.433 . S
C275 N277 1.384 . S
N276 C272 1.427 . S
N276 C273 1.384 . S
N277 C269 1.427 . S
N277 C275 1.384 . S
H278 C284 0.930 . S
H279 C288 0.930 . S
H280 C293 0.929 . S
H281 C291 0.929 . S
H282 C286 0.929 . S
H283 C292 0.929 . S
C284 H278 0.930 . S
C284 C285 1.367 . S
C284 C292 1.378 . S
C285 C284 1.367 . S
C285 C293 1.433 . S
C286 H282 0.929 . S
C286 C288 1.378 . S
C286 C290 1.350 . S
C287 C290 1.463 . S
C287 C292 1.350 . S
C287 N295 1.427 . S
C288 H279 0.930 . S
C288 C286 1.378 . S
C288 C289 1.367 . S
C289 C288 1.367 . S
C289 C291 1.433 . S
C290 C286 1.350 . S
C290 C287 1.463 . S
C290 N294 1.427 . S
C291 H281 0.929 . S
C291 C289 1.433 . S
C291 N294 1.384 . S
C292 H283 0.929 . S
C292 C284 1.378 . S
C292 C287 1.350 . S
C293 H280 0.929 . S
C293 C285 1.433 . S
C293 N295 1.384 . S
N294 C290 1.427 . S
N294 C291 1.384 . S
N295 C287 1.427 . S
N295 C293 1.384 . S
H296 C302 0.930 . S
H297 C306 0.930 . S
H298 C311 0.929 . S
H299 C309 0.929 . S
H300 C304 0.929 . S
H301 C310 0.929 . S
C302 H296 0.930 . S
C302 C303 1.367 . S
C302 C310 1.378 . S
C303 C302 1.367 . S
C303 C311 1.433 . S
C304 H300 0.929 . S
C304 C306 1.378 . S
C304 C308 1.350 . S
C305 C308 1.463 . S
C305 C310 1.350 . S
C305 N313 1.427 . S
C306 H297 0.930 . S
C306 C304 1.378 . S
C306 C307 1.367 . S
C307 C306 1.367 . S
C307 C309 1.433 . S
C308 C304 1.350 . S
C308 C305 1.463 . S
C308 N312 1.427 . S
C309 H299 0.929 . S
C309 C307 1.433 . S
C309 N312 1.384 . S
C310 H301 0.929 . S
C310 C302 1.378 . S
C310 C305 1.350 . S
C311 H298 0.929 . S
C311 C303 1.433 . S
C311 N313 1.384 . S
N312 C308 1.427 . S
N312 C309 1.384 . S
N313 C305 1.427 . S
N313 C311 1.384 . S
H314 C320 0.930 . S
H315 C324 0.930 . S
H316 C329 0.929 . S
H317 C327 0.929 . S
H318 C322 0.929 . S
H319 C328 0.929 . S
C320 H314 0.930 . S
C320 C321 1.367 . S
C320 C328 1.378 . S
C321 C320 1.367 . S
C321 C329 1.433 . S
C322 H318 0.929 . S
C322 C324 1.378 . S
C322 C326 1.350 . S
C323 C326 1.463 . S
C323 C328 1.350 . S
C323 N331 1.427 . S
C324 H315 0.930 . S
C324 C322 1.378 . S
C324 C325 1.367 . S
C325 C324 1.367 . S
C325 C327 1.433 . S
C326 C322 1.350 . S
C326 C323 1.463 . S
C326 N330 1.427 . S
C327 H317 0.929 . S
C327 C325 1.433 . S
C327 N330 1.384 . S
C328 H319 0.929 . S
C328 C320 1.378 . S
C328 C323 1.350 . S
C329 H316 0.929 . S
C329 C321 1.433 . S
C329 N331 1.384 . S
N330 C326 1.427 . S
N330 C327 1.384 . S
N331 C323 1.427 . S
N331 C329 1.384 . S
H332 C338 0.930 . S
H333 C342 0.930 . S
H334 C347 0.929 . S
H335 C345 0.929 . S
H336 C340 0.929 . S
H337 C346 0.929 . S
C338 H332 0.930 . S
C338 C339 1.367 . S
C338 C346 1.378 . S
C339 C338 1.367 . S
C339 C347 1.433 . S
C340 H336 0.929 . S
C340 C342 1.378 . S
C340 C344 1.350 . S
C341 C344 1.463 . S
C341 C346 1.350 . S
C341 N349 1.427 . S
C342 H333 0.930 . S
C342 C340 1.378 . S
C342 C343 1.367 . S
C343 C342 1.367 . S
C343 C345 1.433 . S
C344 C340 1.350 . S
C344 C341 1.463 . S
C344 N348 1.427 . S
C345 H335 0.929 . S
C345 C343 1.433 . S
C345 N348 1.384 . S
C346 H337 0.929 . S
C346 C338 1.378 . S
C346 C341 1.350 . S
C347 H334 0.929 . S
C347 C339 1.433 . S
C347 N349 1.384 . S
N348 C344 1.427 . S
N348 C345 1.384 . S
N349 C341 1.427 . S
N349 C347 1.384 . S
H350 C356 0.930 . S
H351 C360 0.930 . S
H352 C365 0.929 . S
H353 C363 0.929 . S
H354 C358 0.929 . S
H355 C364 0.929 . S
C356 H350 0.930 . S
C356 C357 1.367 . S
C356 C364 1.378 . S
C357 C356 1.367 . S
C357 C365 1.433 . S
C358 H354 0.929 . S
C358 C360 1.378 . S
C358 C362 1.350 . S
C359 C362 1.463 . S
C359 C364 1.350 . S
C359 N367 1.427 . S
C360 H351 0.930 . S
C360 C358 1.378 . S
C360 C361 1.367 . S
C361 C360 1.367 . S
C361 C363 1.433 . S
C362 C358 1.350 . S
C362 C359 1.463 . S
C362 N366 1.427 . S
C363 H353 0.929 . S
C363 C361 1.433 . S
C363 N366 1.384 . S
C364 H355 0.929 . S
C364 C356 1.378 . S
C364 C359 1.350 . S
C365 H352 0.929 . S
C365 C357 1.433 . S
C365 N367 1.384 . S
N366 C362 1.427 . S
N366 C363 1.384 . S
N367 C359 1.427 . S
N367 C365 1.384 . S
H368 C374 0.930 . S
H369 C378 0.930 . S
H370 C383 0.929 . S
H371 C381 0.929 . S
H372 C376 0.929 . S
H373 C382 0.929 . S
C374 H368 0.930 . S
C374 C375 1.367 . S
C374 C382 1.378 . S
C375 C374 1.367 . S
C375 C383 1.433 . S
C376 H372 0.929 . S
C376 C378 1.378 . S
C376 C380 1.350 . S
C377 C380 1.463 . S
C377 C382 1.350 . S
C377 N385 1.427 . S
C378 H369 0.930 . S
C378 C376 1.378 . S
C378 C379 1.367 . S
C379 C378 1.367 . S
C379 C381 1.433 . S
C380 C376 1.350 . S
C380 C377 1.463 . S
C380 N384 1.427 . S
C381 H371 0.929 . S
C381 C379 1.433 . S
C381 N384 1.384 . S
C382 H373 0.929 . S
C382 C374 1.378 . S
C382 C377 1.350 . S
C383 H370 0.929 . S
C383 C375 1.433 . S
C383 N385 1.384 . S
N384 C380 1.427 . S
N384 C381 1.384 . S
N385 C377 1.427 . S
N385 C383 1.384 . S
H386 C392 0.930 . S
H387 C396 0.931 . S
H388 C401 0.928 1_455 S
H389 C399 0.929 . S
H390 C394 0.930 . S
H391 C400 0.929 . S
C392 H386 0.930 . S
C392 C393 1.367 . S
C392 C400 1.378 . S
C393 C392 1.367 . S
C393 C401 1.433 1_545 S
C394 H390 0.930 . S
C394 C396 1.378 . S
C394 C398 1.350 . S
C395 C398 1.463 1_545 S
C395 C400 1.350 . S
C395 N403 1.427 1_545 S
C396 H387 0.931 . S
C396 C394 1.378 . S
C396 C397 1.367 . S
C397 C396 1.367 . S
C397 C399 1.433 1_565 S
C398 C394 1.350 . S
C398 C395 1.463 1_565 S
C398 N402 1.427 1_565 S
C399 H389 0.929 . S
C399 C397 1.433 1_545 S
C399 N402 1.384 . S
C400 H391 0.929 . S
C400 C392 1.378 . S
C400 C395 1.350 . S
C401 H388 0.928 1_655 S
C401 C393 1.433 1_565 S
C401 N403 1.384 . S
N402 C398 1.427 1_545 S
N402 C399 1.384 . S
N403 C395 1.427 1_565 S
N403 C401 1.384 . S
H404 C410 0.930 . S
H405 C414 0.930 . S
H406 C419 0.929 . S
H407 C417 0.929 . S
H408 C412 0.929 . S
H409 C418 0.929 . S
C410 H404 0.930 . S
C410 C411 1.367 . S
C410 C418 1.378 . S
C411 C410 1.367 . S
C411 C419 1.433 . S
C412 H408 0.929 . S
C412 C414 1.378 . S
C412 C416 1.350 . S
C413 C416 1.463 1_556 S
C413 C418 1.350 . S
C413 N421 1.427 . S
C414 H405 0.930 . S
C414 C412 1.378 . S
C414 C415 1.367 . S
C415 C414 1.367 . S
C415 C417 1.433 . S
C416 C412 1.350 . S
C416 C413 1.463 1_554 S
C416 N420 1.427 . S
C417 H407 0.929 . S
C417 C415 1.433 . S
C417 N420 1.384 . S
C418 H409 0.929 . S
C418 C410 1.378 . S
C418 C413 1.350 . S
C419 H406 0.929 . S
C419 C411 1.433 . S
C419 N421 1.384 . S
N420 C416 1.427 . S
N420 C417 1.384 . S
N421 C413 1.427 . S
N421 C419 1.384 . S
H422 C428 0.930 . S
H423 C432 0.930 . S
H424 C437 0.929 . S
H425 C435 0.929 . S
H426 C430 0.929 . S
H427 C436 0.929 . S
C428 H422 0.930 . S
C428 C429 1.367 . S
C428 C436 1.378 . S
C429 C428 1.367 . S
C429 C437 1.433 1_565 S
C430 H426 0.929 . S
C430 C432 1.378 . S
C430 C434 1.350 . S
C431 C434 1.463 1_565 S
C431 C436 1.350 . S
C431 N439 1.427 1_565 S
C432 H423 0.930 . S
C432 C430 1.378 . S
C432 C433 1.367 . S
C433 C432 1.367 . S
C433 C435 1.433 1_545 S
C434 C430 1.350 . S
C434 C431 1.463 1_545 S
C434 N438 1.427 1_545 S
C435 H425 0.929 . S
C435 C433 1.433 1_565 S
C435 N438 1.384 . S
C436 H427 0.929 . S
C436 C428 1.378 . S
C436 C431 1.350 . S
C437 H424 0.929 . S
C437 C429 1.433 1_545 S
C437 N439 1.384 . S
N438 C434 1.427 1_565 S
N438 C435 1.384 . S
N439 C431 1.427 1_545 S
N439 C437 1.384 . S
H440 C446 0.930 . S
H441 C450 0.930 . S
H442 C455 0.929 . S
H443 C453 0.929 . S
H444 C448 0.929 . S
H445 C454 0.929 . S
C446 H440 0.930 . S
C446 C447 1.367 . S
C446 C454 1.378 . S
C447 C446 1.367 . S
C447 C455 1.433 . S
C448 H444 0.929 . S
C448 C450 1.378 . S
C448 C452 1.350 . S
C449 C452 1.463 . S
C449 C454 1.350 . S
C449 N457 1.427 . S
C450 H441 0.930 . S
C450 C448 1.378 . S
C450 C451 1.367 . S
C451 C450 1.367 . S
C451 C453 1.433 . S
C452 C448 1.350 . S
C452 C449 1.463 . S
C452 N456 1.427 . S
C453 H443 0.929 . S
C453 C451 1.433 . S
C453 N456 1.384 . S
C454 H445 0.929 . S
C454 C446 1.378 . S
C454 C449 1.350 . S
C455 H442 0.929 . S
C455 C447 1.433 . S
C455 N457 1.384 . S
N456 C452 1.427 . S
N456 C453 1.384 . S
N457 C449 1.427 . S
N457 C455 1.384 . S
H458 C464 0.930 . S
H459 C468 0.930 . S
H460 C473 0.929 . S
H461 C471 0.929 . S
H462 C466 0.929 . S
H463 C472 0.929 . S
C464 H458 0.930 . S
C464 C465 1.367 1_655 S
C464 C472 1.378 . S
C465 C464 1.367 1_455 S
C465 C473 1.433 . S
C466 H462 0.929 . S
C466 C468 1.378 . S
C466 C470 1.346 1_455 S
C467 C470 1.462 1_455 S
C467 C472 1.346 1_455 S
C467 N475 1.432 . S
C468 H459 0.930 . S
C468 C466 1.378 . S
C468 C469 1.367 1_455 S
C469 C468 1.367 1_655 S
C469 C471 1.433 . S
C470 C466 1.346 1_655 S
C470 C467 1.462 1_655 S
C470 N474 1.432 . S
C471 H461 0.929 . S
C471 C469 1.433 . S
C471 N474 1.384 . S
C472 H463 0.929 . S
C472 C464 1.378 . S
C472 C467 1.346 1_655 S
C473 H460 0.929 . S
C473 C465 1.433 . S
C473 N475 1.384 . S
N474 C470 1.432 . S
N474 C471 1.384 . S
N475 C467 1.432 . S
N475 C473 1.384 . S
H476 C482 0.930 . S
H477 C486 0.930 . S
H478 C491 0.929 . S
H479 C489 0.929 . S
H480 C484 0.929 . S
H481 C490 0.929 . S
C482 H476 0.930 . S
C482 C483 1.367 . S
C482 C490 1.378 . S
C483 C482 1.367 . S
C483 C491 1.433 . S
C484 H480 0.929 . S
C484 C486 1.378 . S
C484 C488 1.350 . S
C485 C488 1.463 1_655 S
C485 C490 1.350 . S
C485 N493 1.427 . S
C486 H477 0.930 . S
C486 C484 1.378 . S
C486 C487 1.367 . S
C487 C486 1.367 . S
C487 C489 1.433 . S
C488 C484 1.350 . S
C488 C485 1.463 1_455 S
C488 N492 1.427 . S
C489 H479 0.929 . S
C489 C487 1.433 . S
C489 N492 1.384 . S
C490 H481 0.929 . S
C490 C482 1.378 . S
C490 C485 1.350 . S
C491 H478 0.929 . S
C491 C483 1.433 . S
C491 N493 1.384 . S
N492 C488 1.427 . S
N492 C489 1.384 . S
N493 C485 1.427 . S
N493 C491 1.384 . S
H494 C500 0.930 . S
H495 C504 0.930 . S
H496 C509 0.929 . S
H497 C507 0.929 . S
H498 C502 0.929 . S
H499 C508 0.929 . S
C500 H494 0.930 . S
C500 C501 1.367 . S
C500 C508 1.378 . S
C501 C500 1.367 . S
C501 C509 1.433 1_554 S
C502 H498 0.929 . S
C502 C504 1.378 . S
C502 C506 1.350 1_556 S
C503 C506 1.463 . S
C503 C508 1.350 . S
C503 N511 1.427 1_554 S
C504 H495 0.930 . S
C504 C502 1.378 . S
C504 C505 1.367 1_556 S
C505 C504 1.367 1_554 S
C505 C507 1.433 . S
C506 C502 1.350 1_554 S
C506 C503 1.463 . S
C506 N510 1.427 . S
C507 H497 0.929 . S
C507 C505 1.433 . S
C507 N510 1.384 . S
C508 H499 0.929 . S
C508 C500 1.378 . S
C508 C503 1.350 . S
C509 H496 0.929 . S
C509 C501 1.433 1_556 S
C509 N511 1.384 . S
N510 C506 1.427 . S
N510 C507 1.384 . S
N511 C503 1.427 1_556 S
N511 C509 1.384 . S
H512 C518 0.930 . S
H513 C522 0.930 . S
H514 C527 0.929 . S
H515 C525 0.929 . S
H516 C520 0.929 . S
H517 C526 0.929 . S
C518 H512 0.930 . S
C518 C519 1.367 . S
C518 C526 1.378 . S
C519 C518 1.367 . S
C519 C527 1.433 . S
C520 H516 0.929 . S
C520 C522 1.378 . S
C520 C524 1.350 . S
C521 C524 1.463 . S
C521 C526 1.350 . S
C521 N529 1.427 . S
C522 H513 0.930 . S
C522 C520 1.378 . S
C522 C523 1.367 . S
C523 C522 1.367 . S
C523 C525 1.433 . S
C524 C520 1.350 . S
C524 C521 1.463 . S
C524 N528 1.427 . S
C525 H515 0.929 . S
C525 C523 1.433 . S
C525 N528 1.384 . S
C526 H517 0.929 . S
C526 C518 1.378 . S
C526 C521 1.350 . S
C527 H514 0.929 . S
C527 C519 1.433 . S
C527 N529 1.384 . S
N528 C524 1.427 . S
N528 C525 1.384 . S
N529 C521 1.427 . S
N529 C527 1.384 . S
H530 C536 0.930 . S
H531 C540 0.930 . S
H532 C545 0.929 . S
H533 C543 0.929 . S
H534 C538 0.929 . S
H535 C544 0.929 . S
C536 H530 0.930 . S
C536 C537 1.367 . S
C536 C544 1.378 . S
C537 C536 1.367 . S
C537 C545 1.433 . S
C538 H534 0.929 . S
C538 C540 1.378 . S
C538 C542 1.350 . S
C539 C542 1.463 . S
C539 C544 1.350 . S
C539 N547 1.427 . S
C540 H531 0.930 . S
C540 C538 1.378 . S
C540 C541 1.367 . S
C541 C540 1.367 . S
C541 C543 1.433 . S
C542 C538 1.350 . S
C542 C539 1.463 . S
C542 N546 1.427 . S
C543 H533 0.929 . S
C543 C541 1.433 . S
C543 N546 1.384 . S
C544 H535 0.929 . S
C544 C536 1.378 . S
C544 C539 1.350 . S
C545 H532 0.929 . S
C545 C537 1.433 . S
C545 N547 1.384 . S
N546 C542 1.427 . S
N546 C543 1.384 . S
N547 C539 1.427 . S
N547 C545 1.384 . S
H548 C554 0.930 . S
H549 C558 0.930 . S
H550 C563 0.929 . S
H551 C561 0.929 . S
H552 C556 0.929 . S
H553 C562 0.929 . S
C554 H548 0.930 . S
C554 C555 1.367 . S
C554 C562 1.378 . S
C555 C554 1.367 . S
C555 C563 1.433 . S
C556 H552 0.929 . S
C556 C558 1.378 . S
C556 C560 1.350 . S
C557 C560 1.463 1_455 S
C557 C562 1.350 . S
C557 N565 1.427 . S
C558 H549 0.930 . S
C558 C556 1.378 . S
C558 C559 1.367 . S
C559 C558 1.367 . S
C559 C561 1.433 . S
C560 C556 1.350 . S
C560 C557 1.463 1_655 S
C560 N564 1.427 . S
C561 H551 0.929 . S
C561 C559 1.433 . S
C561 N564 1.384 . S
C562 H553 0.929 . S
C562 C554 1.378 . S
C562 C557 1.350 . S
C563 H550 0.929 . S
C563 C555 1.433 . S
C563 N565 1.384 . S
N564 C560 1.427 . S
N564 C561 1.384 . S
N565 C557 1.427 . S
N565 C563 1.384 . S
H566 C572 0.930 . S
H567 C576 0.930 . S
H568 C581 0.929 . S
H569 C579 0.929 . S
H570 C574 0.929 . S
H571 C580 0.929 . S
C572 H566 0.930 . S
C572 C573 1.367 1_455 S
C572 C580 1.378 . S
C573 C572 1.367 1_655 S
C573 C581 1.433 1_556 S
C574 H570 0.929 . S
C574 C576 1.378 . S
C574 C578 1.347 1_654 S
C575 C578 1.462 1_655 S
C575 C580 1.347 1_655 S
C575 N583 1.431 1_556 S
C576 H567 0.930 . S
C576 C574 1.378 . S
C576 C577 1.367 1_654 S
C577 C576 1.367 1_456 S
C577 C579 1.433 . S
C578 C574 1.347 1_456 S
C578 C575 1.462 1_455 S
C578 N582 1.431 . S
C579 H569 0.929 . S
C579 C577 1.433 . S
C579 N582 1.384 . S
C580 H571 0.929 . S
C580 C572 1.378 . S
C580 C575 1.347 1_455 S
C581 H568 0.929 . S
C581 C573 1.433 1_554 S
C581 N583 1.384 . S
N582 C578 1.431 . S
N582 C579 1.384 . S
N583 C575 1.431 1_554 S
N583 C581 1.384 . S
H584 C590 0.930 . S
H585 C594 0.930 . S
H586 C599 0.929 . S
H587 C597 0.929 . S
H588 C592 0.929 . S
H589 C598 0.929 . S
C590 H584 0.930 . S
C590 C591 1.367 . S
C590 C598 1.378 . S
C591 C590 1.367 . S
C591 C599 1.433 . S
C592 H588 0.929 . S
C592 C594 1.378 . S
C592 C596 1.350 . S
C593 C596 1.463 . S
C593 C598 1.350 . S
C593 N601 1.427 . S
C594 H585 0.930 . S
C594 C592 1.378 . S
C594 C595 1.367 . S
C595 C594 1.367 . S
C595 C597 1.433 . S
C596 C592 1.350 . S
C596 C593 1.463 . S
C596 N600 1.427 . S
C597 H587 0.929 . S
C597 C595 1.433 . S
C597 N600 1.384 . S
C598 H589 0.929 . S
C598 C590 1.378 . S
C598 C593 1.350 . S
C599 H586 0.929 . S
C599 C591 1.433 . S
C599 N601 1.384 . S
N600 C596 1.427 . S
N600 C597 1.384 . S
N601 C593 1.427 . S
N601 C599 1.384 . S
H602 C608 0.930 . S
H603 C612 0.930 . S
H604 C617 0.929 . S
H605 C615 0.929 . S
H606 C610 0.929 . S
H607 C616 0.929 . S
C608 H602 0.930 . S
C608 C609 1.367 . S
C608 C616 1.378 . S
C609 C608 1.367 . S
C609 C617 1.433 . S
C610 H606 0.929 . S
C610 C612 1.378 . S
C610 C614 1.350 . S
C611 C614 1.463 1_545 S
C611 C616 1.350 . S
C611 N619 1.427 . S
C612 H603 0.930 . S
C612 C610 1.378 . S
C612 C613 1.367 . S
C613 C612 1.367 . S
C613 C615 1.433 . S
C614 C610 1.350 . S
C614 C611 1.463 1_565 S
C614 N618 1.427 . S
C615 H605 0.929 . S
C615 C613 1.433 . S
C615 N618 1.384 . S
C616 H607 0.929 . S
C616 C608 1.378 . S
C616 C611 1.350 . S
C617 H604 0.929 . S
C617 C609 1.433 . S
C617 N619 1.384 . S
N618 C614 1.427 . S
N618 C615 1.384 . S
N619 C611 1.427 . S
N619 C617 1.384 . S
H620 C626 0.930 . S
H621 C630 0.930 . S
H622 C635 0.929 . S
H623 C633 0.929 . S
H624 C628 0.929 . S
H625 C634 0.929 . S
C626 H620 0.930 . S
C626 C627 1.345 1_556 S
C626 C634 1.378 . S
C627 C626 1.345 1_554 S
C627 C635 1.455 . S
C628 H624 0.929 . S
C628 C630 1.378 . S
C628 C632 1.370 . S
C629 C632 1.462 1_556 S
C629 C634 1.370 . S
C629 N637 1.407 1_556 S
C630 H621 0.930 . S
C630 C628 1.378 . S
C630 C631 1.345 1_554 S
C631 C630 1.345 1_556 S
C631 C633 1.455 . S
C632 C628 1.370 . S
C632 C629 1.462 1_554 S
C632 N636 1.407 1_554 S
C633 H623 0.929 . S
C633 C631 1.455 . S
C633 N636 1.384 . S
C634 H625 0.929 . S
C634 C626 1.378 . S
C634 C629 1.370 . S
C635 H622 0.929 . S
C635 C627 1.455 . S
C635 N637 1.384 . S
N636 C632 1.407 1_556 S
N636 C633 1.384 . S
N637 C629 1.407 1_554 S
N637 C635 1.384 . S
H638 C644 0.930 . S
H639 C648 0.930 . S
H640 C653 0.929 . S
H641 C651 0.929 . S
H642 C646 0.929 . S
H643 C652 0.929 . S
C644 H638 0.930 . S
C644 C645 1.367 . S
C644 C652 1.378 . S
C645 C644 1.367 . S
C645 C653 1.433 . S
C646 H642 0.929 . S
C646 C648 1.378 . S
C646 C650 1.350 . S
C647 C650 1.463 1_545 S
C647 C652 1.350 . S
C647 N655 1.427 . S
C648 H639 0.930 . S
C648 C646 1.378 . S
C648 C649 1.367 . S
C649 C648 1.367 . S
C649 C651 1.433 . S
C650 C646 1.350 . S
C650 C647 1.463 1_565 S
C650 N654 1.427 . S
C651 H641 0.929 . S
C651 C649 1.433 . S
C651 N654 1.384 . S
C652 H643 0.929 . S
C652 C644 1.378 . S
C652 C647 1.350 . S
C653 H640 0.929 . S
C653 C645 1.433 . S
C653 N655 1.384 . S
N654 C650 1.427 . S
N654 C651 1.384 . S
N655 C647 1.427 . S
N655 C653 1.384 . S
H656 C662 0.930 . S
H657 C666 0.930 . S
H658 C671 0.929 . S
H659 C669 0.929 . S
H660 C664 0.929 . S
H661 C670 0.929 . S
C662 H656 0.930 . S
C662 C663 1.367 1_565 S
C662 C670 1.378 . S
C663 C662 1.367 1_545 S
C663 C671 1.433 1_556 S
C664 H660 0.929 . S
C664 C666 1.378 . S
C664 C668 1.350 . S
C665 C668 1.463 1_556 S
C665 C670 1.350 1_545 S
C665 N673 1.427 1_556 S
C666 H657 0.930 . S
C666 C664 1.378 . S
C666 C667 1.367 . S
C667 C666 1.367 . S
C667 C669 1.433 1_544 S
C668 C664 1.350 . S
C668 C665 1.463 1_554 S
C668 N672 1.427 1_544 S
C669 H659 0.929 . S
C669 C667 1.433 1_566 S
C669 N672 1.384 . S
C670 H661 0.929 . S
C670 C662 1.378 . S
C670 C665 1.350 1_565 S
C671 H658 0.929 . S
C671 C663 1.433 1_554 S
C671 N673 1.384 . S
N672 C668 1.427 1_566 S
N672 C669 1.384 . S
N673 C665 1.427 1_554 S
N673 C671 1.384 . S
H674 C680 0.930 . S
H675 C684 0.930 . S
H676 C689 0.929 . S
H677 C687 0.929 . S
H678 C682 0.929 . S
H679 C688 0.929 . S
C680 H674 0.930 . S
C680 C681 1.367 . S
C680 C688 1.378 . S
C681 C680 1.367 . S
C681 C689 1.433 . S
C682 H678 0.929 . S
C682 C684 1.378 . S
C682 C686 1.350 . S
C683 C686 1.463 . S
C683 C688 1.350 . S
C683 N691 1.427 . S
C684 H675 0.930 . S
C684 C682 1.378 . S
C684 C685 1.367 . S
C685 C684 1.367 . S
C685 C687 1.433 . S
C686 C682 1.350 . S
C686 C683 1.463 . S
C686 N690 1.427 . S
C687 H677 0.929 . S
C687 C685 1.433 . S
C687 N690 1.384 . S
C688 H679 0.929 . S
C688 C680 1.378 . S
C688 C683 1.350 . S
C689 H676 0.929 . S
C689 C681 1.433 . S
C689 N691 1.384 . S
N690 C686 1.427 . S
N690 C687 1.384 . S
N691 C683 1.427 . S
N691 C689 1.384 . S
H692 C698 0.930 . S
H693 C702 0.930 . S
H694 C707 0.929 . S
H695 C705 0.929 . S
H696 C700 0.929 . S
H697 C706 0.929 . S
C698 H692 0.930 . S
C698 C699 1.367 . S
C698 C706 1.378 . S
C699 C698 1.367 . S
C699 C707 1.433 . S
C700 H696 0.929 . S
C700 C702 1.378 . S
C700 C704 1.350 . S
C701 C704 1.463 . S
C701 C706 1.350 . S
C701 N709 1.427 . S
C702 H693 0.930 . S
C702 C700 1.378 . S
C702 C703 1.367 . S
C703 C702 1.367 . S
C703 C705 1.433 . S
C704 C700 1.350 . S
C704 C701 1.463 . S
C704 N708 1.427 . S
C705 H695 0.929 . S
C705 C703 1.433 . S
C705 N708 1.384 . S
C706 H697 0.929 . S
C706 C698 1.378 . S
C706 C701 1.350 . S
C707 H694 0.929 . S
C707 C699 1.433 . S
C707 N709 1.384 . S
N708 C704 1.427 . S
N708 C705 1.384 . S
N709 C701 1.427 . S
N709 C707 1.384 . S
H710 C716 0.930 . S
H711 C720 0.930 . S
H712 C725 0.929 . S
H713 C723 0.929 . S
H714 C718 0.929 . S
H715 C724 0.929 . S
C716 H710 0.930 . S
C716 C717 1.367 . S
C716 C724 1.378 . S
C717 C716 1.367 . S
C717 C725 1.433 . S
C718 H714 0.929 . S
C718 C720 1.378 . S
C718 C722 1.350 . S
C719 C722 1.463 1_556 S
C719 C724 1.350 . S
C719 N727 1.427 . S
C720 H711 0.930 . S
C720 C718 1.378 . S
C720 C721 1.367 . S
C721 C720 1.367 . S
C721 C723 1.433 . S
C722 C718 1.350 . S
C722 C719 1.463 1_554 S
C722 N726 1.427 . S
C723 H713 0.929 . S
C723 C721 1.433 . S
C723 N726 1.384 . S
C724 H715 0.929 . S
C724 C716 1.378 . S
C724 C719 1.350 . S
C725 H712 0.929 . S
C725 C717 1.433 . S
C725 N727 1.384 . S
N726 C722 1.427 . S
N726 C723 1.384 . S
N727 C719 1.427 . S
N727 C725 1.384 . S
H728 C734 0.930 . S
H729 C738 0.930 . S
H730 C743 0.929 . S
H731 C741 0.929 . S
H732 C736 0.929 . S
H733 C742 0.929 . S
C734 H728 0.930 . S
C734 C735 1.367 . S
C734 C742 1.378 . S
C735 C734 1.367 . S
C735 C743 1.433 . S
C736 H732 0.929 . S
C736 C738 1.378 . S
C736 C740 1.350 . S
C737 C740 1.463 . S
C737 C742 1.350 . S
C737 N745 1.427 . S
C738 H729 0.930 . S
C738 C736 1.378 . S
C738 C739 1.367 . S
C739 C738 1.367 . S
C739 C741 1.433 . S
C740 C736 1.350 . S
C740 C737 1.463 . S
C740 N744 1.427 . S
C741 H731 0.929 . S
C741 C739 1.433 . S
C741 N744 1.384 . S
C742 H733 0.929 . S
C742 C734 1.378 . S
C742 C737 1.350 . S
C743 H730 0.929 . S
C743 C735 1.433 . S
C743 N745 1.384 . S
N744 C740 1.427 . S
N744 C741 1.384 . S
N745 C737 1.427 . S
N745 C743 1.384 . S
H746 C752 0.930 . S
H747 C756 0.930 . S
H748 C761 0.929 . S
H749 C759 0.929 . S
H750 C754 0.929 . S
H751 C760 0.929 . S
C752 H746 0.930 . S
C752 C753 1.367 . S
C752 C760 1.378 . S
C753 C752 1.367 . S
C753 C761 1.433 . S
C754 H750 0.929 . S
C754 C756 1.378 . S
C754 C758 1.350 . S
C755 C758 1.463 . S
C755 C760 1.350 . S
C755 N763 1.427 . S
C756 H747 0.930 . S
C756 C754 1.378 . S
C756 C757 1.367 . S
C757 C756 1.367 . S
C757 C759 1.433 . S
C758 C754 1.350 . S
C758 C755 1.463 . S
C758 N762 1.427 . S
C759 H749 0.929 . S
C759 C757 1.433 . S
C759 N762 1.384 . S
C760 H751 0.929 . S
C760 C752 1.378 . S
C760 C755 1.350 . S
C761 H748 0.929 . S
C761 C753 1.433 . S
C761 N763 1.384 . S
N762 C758 1.427 . S
N762 C759 1.384 . S
N763 C755 1.427 . S
N763 C761 1.384 . S
H764 C770 0.930 . S
H765 C774 0.930 . S
H766 C779 0.929 . S
H767 C777 0.929 . S
H768 C772 0.929 . S
H769 C778 0.929 . S
C770 H764 0.930 . S
C770 C771 1.367 . S
C770 C778 1.378 . S
C771 C770 1.367 . S
C771 C779 1.433 . S
C772 H768 0.929 . S
C772 C774 1.378 . S
C772 C776 1.350 . S
C773 C776 1.463 . S
C773 C778 1.350 . S
C773 N781 1.427 . S
C774 H765 0.930 . S
C774 C772 1.378 . S
C774 C775 1.367 . S
C775 C774 1.367 . S
C775 C777 1.433 . S
C776 C772 1.350 . S
C776 C773 1.463 . S
C776 N780 1.427 . S
C777 H767 0.929 . S
C777 C775 1.433 . S
C777 N780 1.384 . S
C778 H769 0.929 . S
C778 C770 1.378 . S
C778 C773 1.350 . S
C779 H766 0.929 . S
C779 C771 1.433 . S
C779 N781 1.384 . S
N780 C776 1.427 . S
N780 C777 1.384 . S
N781 C773 1.427 . S
N781 C779 1.384 . S
H782 C788 0.930 . S
H783 C792 0.930 . S
H784 C797 0.929 . S
H785 C795 0.929 . S
H786 C790 0.929 . S
H787 C796 0.929 . S
C788 H782 0.930 . S
C788 C789 1.367 . S
C788 C796 1.378 . S
C789 C788 1.367 . S
C789 C797 1.433 1_565 S
C790 H786 0.929 . S
C790 C792 1.378 . S
C790 C794 1.350 1_545 S
C791 C794 1.463 . S
C791 C796 1.350 . S
C791 N799 1.427 1_565 S
C792 H783 0.930 . S
C792 C790 1.378 . S
C792 C793 1.367 1_545 S
C793 C792 1.367 1_565 S
C793 C795 1.433 . S
C794 C790 1.350 1_565 S
C794 C791 1.463 . S
C794 N798 1.427 . S
C795 H785 0.929 . S
C795 C793 1.433 . S
C795 N798 1.384 . S
C796 H787 0.929 . S
C796 C788 1.378 . S
C796 C791 1.350 . S
C797 H784 0.929 . S
C797 C789 1.433 1_545 S
C797 N799 1.384 . S
N798 C794 1.427 . S
N798 C795 1.384 . S
N799 C791 1.427 1_545 S
N799 C797 1.384 . S
C231 C11 1.731 . S
C235 C109 1.731 . S
C249 C25 1.731 . S
C253 C67 1.731 . S
C267 C81 1.731 . S
C271 C39 1.731 . S
C285 C53 1.731 . S
C289 C95 1.731 . S
C303 C123 1.731 . S
C307 C179 1.731 . S
C321 C137 1.730 . S
C325 C207 1.730 . S
C339 C165 1.730 . S
C343 C151 1.730 . S
C357 C221 1.731 . S
C361 C193 1.731 . S
C375 C13 1.114 . S
C379 C97 1.125 . S
C393 C106 1.309 1_545 S
C397 C22 1.310 1_565 S
C411 C41 1.111 . S
C415 C69 1.098 . S
C429 C78 1.309 1_565 S
C433 C50 1.308 1_545 S
C447 C7 1.086 . S
C451 C203 1.087 . S
C465 C167 1.111 . S
C469 C27 1.123 . S
C483 C189 1.087 . S
C487 C35 1.074 . S
C501 C181 1.111 . S
C505 C55 1.124 . S
C519 C147 1.074 . S
C523 C63 1.089 . S
C537 C83 1.124 . S
C541 C223 1.126 . S
C555 C91 1.082 . S
C559 C119 1.075 . S
C573 C111 1.113 . S
C577 C139 1.125 . S
C591 C8 1.291 . S
C595 C64 1.291 . S
C609 C120 1.310 . S
C613 C190 1.309 . S
C627 C175 1.094 . S
C631 C133 1.089 . S
C645 C204 1.301 . S
C649 C148 1.303 . S
C663 C105 1.074 1_545 S
C667 C49 1.086 1_545 S
C681 C36 1.292 . S
C685 C92 1.292 . S
C699 C161 1.080 . S
C703 C217 1.091 . S
C717 C195 1.120 . S
C721 C153 1.127 . S
C735 C218 1.296 . S
C739 C176 1.297 . S
C753 C209 1.111 . S
C757 C125 1.098 . S
C771 C162 1.310 . S
C775 C134 1.310 . S
C789 C21 1.086 1_565 S
C793 C77 1.074 1_565 S
