# Generated by pormake.
# Topology cab, (5)-cn, num edge types: 1
# Building blocks:
#     Node 0, Type 0, BuildingBlock: XOMCOT_clean_sbu_0, # of connection points: 5
#     Node 1, Type 0, BuildingBlock: XOMCOT_clean_sbu_0, # of connection points: 5
#     Node 2, Type 0, BuildingBlock: XOMCOT_clean_sbu_0, # of connection points: 5
#     Node 3, Type 0, BuildingBlock: XOMCOT_clean_sbu_0, # of connection points: 5
#     Node 4, Type 0, BuildingBlock: XOMCOT_clean_sbu_0, # of connection points: 5
#     Node 5, Type 0, BuildingBlock: XOMCOT_clean_sbu_0, # of connection points: 5
#     Edge 6, Type (0, 0), BuildingBlock: XUDNAN_clean_linker_2, # of connection points: 2
#     Edge 7, Type (0, 0), BuildingBlock: XUDNAN_clean_linker_2, # of connection points: 2
#     Edge 8, Type (0, 0), BuildingBlock: XUDNAN_clean_linker_2, # of connection points: 2
#     Edge 9, Type (0, 0), BuildingBlock: XUDNAN_clean_linker_2, # of connection points: 2
#     Edge 10, Type (0, 0), BuildingBlock: XUDNAN_clean_linker_2, # of connection points: 2
#     Edge 11, Type (0, 0), BuildingBlock: XUDNAN_clean_linker_2, # of connection points: 2
#     Edge 12, Type (0, 0), BuildingBlock: XUDNAN_clean_linker_2, # of connection points: 2
#     Edge 13, Type (0, 0), BuildingBlock: XUDNAN_clean_linker_2, # of connection points: 2
#     Edge 14, Type (0, 0), BuildingBlock: XUDNAN_clean_linker_2, # of connection points: 2
#     Edge 15, Type (0, 0), BuildingBlock: XUDNAN_clean_linker_2, # of connection points: 2
#     Edge 16, Type (0, 0), BuildingBlock: XUDNAN_clean_linker_2, # of connection points: 2
#     Edge 17, Type (0, 0), BuildingBlock: XUDNAN_clean_linker_2, # of connection points: 2
#     Edge 18, Type (0, 0), BuildingBlock: XUDNAN_clean_linker_2, # of connection points: 2
#     Edge 19, Type (0, 0), BuildingBlock: XUDNAN_clean_linker_2, # of connection points: 2
#     Edge 20, Type (0, 0), BuildingBlock: XUDNAN_clean_linker_2, # of connection points: 2
# Relax obj value: 0.837
# Max RMSD: 0.225
# Mean RMSD: 0.223
data_MOF--net-cab--node1-XOMCOT_clean_sbu_0--edge1-XUDNAN_clean_linker_2
_symmetry_space_group_name_H-M    P1
_symmetry_Int_Tables_number       1
_symmetry_cell_setting            triclinic
loop_
_symmetry_equiv_pos_as_xyz
'x, y, z'
_cell_length_a     36.336871
_cell_length_b     36.421837
_cell_length_c     36.381862
_cell_angle_alpha  78.217232
_cell_angle_beta   77.493598
_cell_angle_gamma 78.814183
loop_
_atom_site_label
_atom_site_type_symbol
_atom_site_fract_x
_atom_site_fract_y
_atom_site_fract_z
_atom_type_partial_charge
Co0 Co -0.00017 0.02865 0.35852 0.0
C1 C 0.0 0.94783 0.36198 0.0
C2 C 0.02231 0.95548 0.4093 0.0
C3 C 0.02651 0.91715 0.4089 0.0
N4 N 0.00591 0.97481 0.37956 0.0
N5 N 0.01236 0.91255 0.37917 0.0
H6 H 0.98938 0.95395 0.33542 0.0
H7 H 0.03262 0.96759 0.42898 0.0
C8 C 0.91914 0.01055 0.38171 0.0
O9 O 0.92789 0.98167 0.40816 0.0
N10 N 0.99334 0.0818 0.33667 0.0
C11 C 0.00623 0.11008 0.34644 0.0
C12 C 0.99162 0.14405 0.32616 0.0
C13 C 0.97182 0.09865 0.31017 0.0
N14 N 0.97008 0.13666 0.30348 0.0
C15 C 0.02547 0.03982 0.42318 0.0
C16 C 0.95693 0.07594 0.45885 0.0
C17 C 0.99006 0.07366 0.47346 0.0
C18 C 0.02443 0.05468 0.45566 0.0
C19 C 0.95923 0.06064 0.42598 0.0
N20 N 0.99324 0.04253 0.40867 0.0
H21 H 0.0527 0.0268 0.40914 0.0
H22 H 0.93399 0.0655 0.41358 0.0
H23 H 0.02435 0.10646 0.3673 0.0
H24 H 0.95686 0.0835 0.2969 0.0
O25 O 0.05458 0.02561 0.34323 0.0
O26 O 0.01601 0.01628 0.30766 0.0
O27 O 0.94399 0.0306 0.36206 0.0
C28 C 0.05049 0.01777 0.3112 0.0
H29 H 0.04079 0.89452 0.42766 0.0
H30 H 0.99652 0.17201 0.32781 0.0
H31 H 0.92998 0.091 0.47156 0.0
H32 H 0.05063 0.05202 0.4663 0.0
Co33 Co 0.16577 0.12847 0.76055 0.0
C34 C 0.10833 0.10982 0.83036 0.0
C35 C 0.10972 0.07567 0.78851 0.0
C36 C 0.07829 0.07061 0.81694 0.0
N37 N 0.12849 0.10067 0.79667 0.0
N38 N 0.07764 0.09207 0.84322 0.0
H39 H 0.11287 0.13237 0.84326 0.0
H40 H 0.11622 0.06482 0.7619 0.0
C41 C 0.20456 0.04655 0.75657 0.0
O42 O 0.22357 0.02303 0.73355 0.0
N43 N 0.20242 0.15617 0.72493 0.0
C44 C 0.19644 0.19298 0.70855 0.0
C45 C 0.23098 0.20623 0.69895 0.0
C46 C 0.24021 0.1473 0.72391 0.0
N47 N 0.2584 0.17733 0.7086 0.0
C48 C 0.09704 0.15338 0.73126 0.0
C49 C 0.12371 0.12783 0.66235 0.0
C50 C 0.08487 0.14261 0.67199 0.0
C51 C 0.07177 0.15623 0.70658 0.0
C52 C 0.14798 0.12535 0.68794 0.0
N53 N 0.13414 0.13681 0.72239 0.0
H54 H 0.08647 0.163 0.75838 0.0
H55 H 0.17768 0.11344 0.68041 0.0
H56 H 0.1686 0.21017 0.70845 0.0
H57 H 0.25313 0.12137 0.73996 0.0
O58 O 0.14506 0.17338 0.78205 0.0
O59 O 0.19204 0.12978 0.80138 0.0
O60 O 0.19486 0.08101 0.74188 0.0
C61 C 0.17038 0.16253 0.80397 0.0
H62 H 0.05562 0.05546 0.81638 0.0
H63 H 0.23486 0.23569 0.6903 0.0
H64 H 0.13502 0.11688 0.63594 0.0
H65 H 0.04214 0.16836 0.7148 0.0
Co66 Co 0.35068 0.04101 0.01209 0.0
C67 C 0.37261 0.08029 0.93285 0.0
C68 C 0.38879 0.01993 0.93737 0.0
C69 C 0.39847 0.0363 0.8998 0.0
N70 N 0.37231 0.04751 0.9581 0.0
N71 N 0.38809 0.07427 0.89688 0.0
H72 H 0.36082 0.10793 0.94042 0.0
H73 H 0.3926 0.98982 0.94824 0.0
C74 C 0.37742 0.96013 0.04376 0.0
O75 O 0.3856 0.97129 0.07274 0.0
N76 N 0.32833 0.03415 0.06658 0.0
C77 C 0.34143 0.04014 0.09658 0.0
C78 C 0.31496 0.03282 0.12934 0.0
C79 C 0.29416 0.02286 0.08202 0.0
N80 N 0.28505 0.0222 0.12014 0.0
C81 C 0.4009 0.08168 0.03226 0.0
C82 C 0.46487 0.02656 0.02508 0.0
C83 C 0.46592 0.05871 0.03999 0.0
C84 C 0.43412 0.08727 0.04207 0.0
C85 C 0.43131 0.02254 0.01479 0.0
N86 N 0.39899 0.04839 0.02153 0.0
H87 H 0.37595 0.10314 0.03571 0.0
H88 H 0.43135 -0.0017 0.00202 0.0
H89 H 0.36858 0.04826 0.09573 0.0
H90 H 0.27581 0.01608 0.06548 0.0
O91 O 0.32522 0.09296 0.00716 0.0
O92 O 0.30071 0.04417 0.00032 0.0
O93 O 0.36555 0.98443 0.0165 0.0
C94 C 0.29613 0.08019 0.00175 0.0
H95 H 0.41008 0.02108 0.87617 0.0
H96 H 0.31785 0.03496 0.15777 0.0
H97 H 0.48968 0.00472 0.02167 0.0
H98 H 0.43438 0.11282 0.05285 0.0
Co99 Co 0.99347 0.33575 0.04635 0.0
C100 C 0.92568 0.3898 0.02748 0.0
C101 C 0.96528 0.38083 0.97638 0.0
C102 C 0.93198 0.40196 0.96666 0.0
N103 N 0.96148 0.37303 0.01479 0.0
N104 N 0.9065 0.40692 -0.00107 0.0
H105 H 0.91236 0.3859 0.05721 0.0
H106 H 0.98849 0.36896 0.95625 0.0
C107 C 0.05303 0.33328 0.97382 0.0
O108 O 0.05335 0.37005 0.96744 0.0
N109 N 0.02386 0.29751 0.07721 0.0
C110 C 0.038 0.29958 0.10791 0.0
C111 C 0.06326 0.26662 0.11574 0.0
C112 C 0.03845 0.26291 0.06848 0.0
N113 N 0.0634 0.24382 0.09071 0.0
C114 C 0.00738 0.4085 0.0532 0.0
C115 C 0.08591 0.38968 0.04585 0.0
C116 C 0.06847 0.42635 0.05134 0.0
C117 C 0.02876 0.43578 0.05502 0.0
C118 C 0.06358 0.36346 0.04362 0.0
N119 N 0.02484 0.37314 0.04672 0.0
H120 H 0.97669 0.41565 0.05762 0.0
H121 H 0.07759 0.33527 0.03926 0.0
H122 H 0.03274 0.32433 0.12155 0.0
H123 H 0.03368 0.25334 0.04387 0.0
O124 O 0.95687 0.34297 0.09208 0.0
O125 O 0.95755 0.30069 0.05565 0.0
O126 O 0.0286 0.31793 0.00028 0.0
C127 C 0.94314 0.31418 0.08717 0.0
H128 H 0.92595 0.40941 0.938 0.0
H129 H 0.08201 0.26101 0.13633 0.0
H130 H 0.11656 0.38143 0.04301 0.0
H131 H 0.01428 0.4637 0.06019 0.0
Co132 Co 0.82285 0.13303 0.09347 0.0
C133 C 0.78827 0.21374 0.08382 0.0
C134 C 0.7973 0.19296 0.14121 0.0
C135 C 0.78105 0.23059 0.13844 0.0
N136 N 0.8019 0.1825 0.10687 0.0
N137 N 0.77556 0.24385 0.1022 0.0
H138 H 0.78926 0.2147 0.05375 0.0
H139 H 0.80566 0.17489 0.16647 0.0
C140 C 0.81039 0.07807 0.16554 0.0
O141 O 0.79927 0.05706 0.1459 0.0
N142 N 0.84527 0.0834 0.08054 0.0
C143 C 0.84056 0.06484 0.05371 0.0
C144 C 0.86891 0.03361 0.0515 0.0
C145 C 0.87651 0.06356 0.09359 0.0
N146 N 0.89159 0.03324 0.07642 0.0
C147 C 0.76024 0.12372 0.06211 0.0
C148 C 0.70783 0.11883 0.12979 0.0
C149 C 0.69756 0.11354 0.09662 0.0
C150 C 0.7237 0.11731 0.06219 0.0
C151 C 0.7445 0.12592 0.12821 0.0
N152 N 0.77112 0.12521 0.0953 0.0
H153 H 0.77973 0.12754 0.03521 0.0
H154 H 0.7514 0.13172 0.15364 0.0
H155 H 0.81981 0.07386 0.0353 0.0
H156 H 0.8887 0.07216 0.11451 0.0
O157 O 0.83458 0.15501 0.04046 0.0
O158 O 0.8743 0.14567 0.08101 0.0
O159 O 0.8207 0.11006 0.14917 0.0
C160 C 0.8684 0.15617 0.04603 0.0
H161 H 0.77497 0.24699 0.16128 0.0
H162 H 0.87374 0.01406 0.03155 0.0
H163 H 0.68767 0.11766 0.15658 0.0
H164 H 0.71626 0.11446 0.03574 0.0
Co165 Co 0.15869 0.78282 0.08116 0.0
C166 C 0.12068 0.76792 0.16215 0.0
C167 C 0.18015 0.74487 0.15538 0.0
C168 C 0.16465 0.73998 0.19381 0.0
N169 N 0.15259 0.76284 0.1355 0.0
N170 N 0.12726 0.75471 0.19794 0.0
H171 H 0.09361 0.78343 0.15593 0.0
H172 H 0.2099 0.7373 0.14324 0.0
C173 C 0.24208 0.77035 0.04935 0.0
O174 O 0.23467 0.7621 0.01849 0.0
N175 N 0.16456 0.80379 0.02687 0.0
C176 C 0.15684 0.79015 -0.00197 0.0
C177 C 0.1611 0.81692 0.96537 0.0
C178 C 0.17365 0.83859 0.01104 0.0
N179 N 0.17129 0.84758 0.97367 0.0
C180 C 0.12813 0.72255 0.06538 0.0
C181 C 0.19029 0.66642 0.07402 0.0
C182 C 0.15759 0.65697 0.06608 0.0
C183 C 0.12614 0.68564 0.06201 0.0
C184 C 0.19086 0.70365 0.07773 0.0
N185 N 0.16052 0.73159 0.07213 0.0
H186 H 0.10342 0.74396 0.06234 0.0
H187 H 0.21546 0.7092 0.08637 0.0
H188 H 0.14833 0.76301 -4e-05 0.0
H189 H 0.18038 0.8576 0.02702 0.0
O190 O 0.10442 0.80057 0.0855 0.0
O191 O 0.14676 0.83384 0.09231 0.0
O192 O 0.21541 0.77686 0.07759 0.0
C193 C 0.11157 0.8324 0.09118 0.0
H194 H 0.18012 0.72817 0.21692 0.0
H195 H 0.15661 0.81399 0.93773 0.0
H196 H 0.21514 0.6452 0.07785 0.0
H197 H 0.09969 0.67959 0.05724 0.0
H198 H 0.94313 0.23819 0.09983 0.0
H199 H 0.89921 0.33933 0.15054 0.0
H200 H 0.8866 0.29977 0.21394 0.0
H201 H 0.8828 0.16946 0.1768 0.0
H202 H 0.92336 0.13209 0.17407 0.0
H203 H 0.91474 0.1658 0.13185 0.0
H204 H 0.98284 0.18162 0.12147 0.0
H205 H 0.992 0.14906 0.16377 0.0
H206 H 0.99741 0.19811 0.15878 0.0
H207 H 0.89886 0.25395 0.27088 0.0
H208 H 0.92868 0.20392 0.31717 0.0
H209 H 0.96631 0.13129 0.23145 0.0
C210 C 0.92841 0.25176 0.12397 0.0
C211 C 0.92166 0.29173 0.12035 0.0
C212 C 0.90403 0.30872 0.1527 0.0
C213 C 0.89684 0.28639 0.18889 0.0
C214 C 0.90733 0.2471 0.19218 0.0
C215 C 0.92186 0.22971 0.16043 0.0
C216 C 0.93781 0.18819 0.17203 0.0
C217 C 0.9132 0.16236 0.16318 0.0
C218 C 0.97998 0.17876 0.15291 0.0
C219 C 0.93358 0.18609 0.21473 0.0
C220 C 0.9148 0.22001 0.2259 0.0
C221 C 0.91232 0.22683 0.26279 0.0
C222 C 0.92972 0.19854 0.28875 0.0
C223 C 0.94939 0.1639 0.27775 0.0
C224 C 0.95055 0.15729 0.2406 0.0
H225 H 0.82396 0.11705 0.21663 0.0
H226 H 0.7987 0.00824 0.20677 0.0
H227 H 0.80703 0.98325 0.27316 0.0
H228 H 0.89717 0.08506 0.26039 0.0
H229 H 0.88708 0.11934 0.29213 0.0
H230 H 0.86944 0.13108 0.24827 0.0
H231 H 0.80093 0.14658 0.28615 0.0
H232 H 0.81883 0.13425 0.33033 0.0
H233 H 0.78146 0.11133 0.32397 0.0
H234 H 0.83262 0.96583 0.33325 0.0
H235 H 0.87683 0.95726 0.37828 0.0
H236 H 0.88247 0.07764 0.35152 0.0
C237 C 0.81897 0.08835 0.22886 0.0
C238 C 0.81074 0.06461 0.20658 0.0
C239 C 0.80491 0.02704 0.22338 0.0
C240 C 0.80922 0.01267 0.26124 0.0
C241 C 0.81854 0.03645 0.2822 0.0
C242 C 0.82288 0.07372 0.26667 0.0
C243 C 0.83838 0.09175 0.29279 0.0
C244 C 0.87521 0.10764 0.27213 0.0
C245 C 0.80808 0.12281 0.3093 0.0
C246 C 0.84587 0.05771 0.32344 0.0
C247 C 0.83282 0.02641 0.31776 0.0
C248 C 0.84186 0.99034 0.33886 0.0
C249 C 0.86682 0.98567 0.36459 0.0
C250 C 0.88269 0.01688 0.36832 0.0
C251 C 0.87003 0.05355 0.34949 0.0
H252 H 0.07743 0.86285 0.37011 0.0
H253 H 0.96211 0.8887 0.34818 0.0
H254 H 0.97672 0.83786 0.30881 0.0
H255 H 0.11926 0.85675 0.28005 0.0
H256 H 0.15801 0.81922 0.28988 0.0
H257 H 0.13586 0.84909 0.32468 0.0
H258 H 0.12124 0.78993 0.37535 0.0
H259 H 0.14361 0.75968 0.34055 0.0
H260 H 0.09529 0.75684 0.36523 0.0
H261 H 0.00668 0.79361 0.26318 0.0
H262 H 0.04997 0.76326 0.21184 0.0
H263 H 0.14691 0.76877 0.26093 0.0
C264 C 0.05485 0.85635 0.35856 0.0
C265 C 0.01844 0.8788 0.36272 0.0
C266 C 0.98995 0.87117 0.34564 0.0
C267 C -0.002 0.84229 0.32348 0.0
C268 C 0.03474 0.82149 0.31865 0.0
C269 C 0.06273 0.82816 0.3358 0.0
C270 C 0.10149 0.80707 0.32073 0.0
C271 C 0.1303 0.83468 0.30276 0.0
C272 C 0.11627 0.77656 0.35236 0.0
C273 C 0.09137 0.78924 0.29089 0.0
C274 C 0.05256 0.79689 0.29096 0.0
C275 C 0.03699 0.78683 0.26334 0.0
C276 C 0.06182 0.76983 0.23413 0.0
C277 C 0.10184 0.76369 0.23233 0.0
C278 C 0.11648 0.77219 0.262 0.0
H279 H 0.25653 0.04278 0.19006 0.0
H280 H 0.23241 0.98419 0.10728 0.0
H281 H 0.17016 0.97515 0.14802 0.0
H282 H 0.21295 0.98236 0.2746 0.0
H283 H 0.1951 0.02134 0.3005 0.0
H284 H 0.23825 0.02225 0.26512 0.0
H285 H 0.20902 0.08713 0.23006 0.0
H286 H 0.16573 0.08635 0.26516 0.0
H287 H 0.16391 0.09147 0.21522 0.0
H288 H 0.1086 0.97595 0.19623 0.0
H289 H 0.05411 0.98403 0.24965 0.0
H290 H 0.12045 0.03877 0.30202 0.0
C291 C 0.2387 0.0274 0.1806 0.0
C292 C 0.24967 0.01445 0.14512 0.0
C293 C 0.22471 0.99505 0.1339 0.0
C294 C 0.18928 0.98949 0.15702 0.0
C295 C 0.17932 0.00309 0.19151 0.0
C296 C 0.20348 0.02131 0.20342 0.0
C297 C 0.18583 0.0338 0.24142 0.0
C298 C 0.20944 0.01373 0.27223 0.0
C299 C 0.18082 0.07726 0.23772 0.0
C300 C 0.14775 0.02014 0.24886 0.0
C301 C 0.14444 0.00258 0.2197 0.0
C302 C 0.11105 0.98925 0.21943 0.0
C303 C 0.08025 0.99406 0.24978 0.0
C304 C 0.08327 0.01175 0.27999 0.0
C305 C 0.11757 0.02465 0.27955 0.0
H306 H 0.14145 0.87549 0.90932 0.0
H307 H 0.21075 0.90155 0.98103 0.0
H308 H 0.21797 0.96255 0.93778 0.0
H309 H 0.19745 0.90747 0.82298 0.0
H310 H 0.15794 0.92549 0.79832 0.0
H311 H 0.15407 0.88707 0.838 0.0
H312 H 0.09296 0.92623 0.87138 0.0
H313 H 0.09718 0.9651 0.83187 0.0
H314 H 0.09487 0.97291 0.8797 0.0
H315 H 0.22242 0.0185 0.88256 0.0
H316 H 0.22878 0.05927 0.81857 0.0
H317 H 0.15847 0.99442 0.78357 0.0
C318 C 0.15807 0.8939 0.91621 0.0
C319 C 0.17538 0.88352 0.94881 0.0
C320 C 0.19666 0.90894 0.95662 0.0
C321 C 0.20087 0.94376 0.9322 0.0
C322 C 0.18346 0.95292 0.9002 0.0
C323 C 0.16264 0.92849 0.89219 0.0
C324 C 0.14985 0.94278 0.85427 0.0
C325 C 0.1658 0.91402 0.82679 0.0
C326 C 0.10611 0.95231 0.85966 0.0
C327 C 0.16792 0.97836 0.84138 0.0
C328 C 0.18639 0.98449 0.86854 0.0
C329 C 0.20733 0.01441 0.86148 0.0
C330 C 0.21047 0.03772 0.8253 0.0
C331 C 0.19291 0.03063 0.79694 0.0
C332 C 0.171 0.00106 0.8054 0.0
H333 H 0.33838 0.13986 0.88647 0.0
H334 H 0.4329 0.0686 0.82742 0.0
H335 H 0.41914 0.10484 0.76573 0.0
H336 H 0.27584 0.14087 0.83595 0.0
H337 H 0.25325 0.1897 0.83452 0.0
H338 H 0.27783 0.1668 0.8726 0.0
H339 H 0.31941 0.22051 0.85557 0.0
H340 H 0.29461 0.24298 0.8169 0.0
H341 H 0.3459 0.23113 0.80773 0.0
H342 H 0.38335 0.13202 0.71421 0.0
H343 H 0.33 0.14906 0.6787 0.0
H344 H 0.26147 0.2078 0.76784 0.0
C345 C 0.35749 0.13315 0.86069 0.0
C346 C 0.38646 0.10109 0.86188 0.0
C347 C 0.41015 0.09267 0.82729 0.0
C348 C 0.40283 0.11347 0.79204 0.0
C349 C 0.3723 0.1433 0.79176 0.0
C350 C 0.35055 0.15381 0.82531 0.0
C351 C 0.31563 0.18239 0.81767 0.0
C352 C 0.27853 0.16903 0.84157 0.0
C353 C 0.31912 0.22158 0.82488 0.0
C354 C 0.31864 0.18266 0.77543 0.0
C355 C 0.3523 0.16104 0.76063 0.0
C356 C 0.35782 0.15053 0.72474 0.0
C357 C 0.32755 0.16039 0.70457 0.0
C358 C 0.29254 0.18082 0.72017 0.0
C359 C 0.28892 0.19397 0.75478 0.0
H360 H 0.15192 0.23829 0.7962 0.0
H361 H 0.18812 0.13859 0.87551 0.0
H362 H 0.17315 0.17722 0.92714 0.0
H363 H 0.1797 0.31203 0.84252 0.0
H364 H 0.13778 0.34484 0.83215 0.0
H365 H 0.16168 0.31231 0.80001 0.0
H366 H 0.09804 0.28771 0.80586 0.0
H367 H 0.07409 0.31939 0.83843 0.0
H368 H 0.0732 0.2691 0.85245 0.0
H369 H 0.14029 0.222 0.97164 0.0
H370 H 0.09539 0.26968 0.00516 0.0
H371 H 0.07918 0.34017 0.89695 0.0
C372 C 0.15815 0.22503 0.82413 0.0
C373 C 0.17124 0.18576 0.83216 0.0
C374 C 0.17858 0.16886 0.86892 0.0
C375 C 0.17016 0.19061 0.89829 0.0
C376 C 0.15505 0.22907 0.88993 0.0
C377 C 0.1498 0.24628 0.85348 0.0
C378 C 0.12788 0.28616 0.85279 0.0
C379 C 0.15329 0.31558 0.83056 0.0
C380 C 0.09115 0.29081 0.83645 0.0
C381 C 0.11904 0.2879 0.89494 0.0
C382 C 0.13573 0.25504 0.9158 0.0
C383 C 0.12789 0.24812 0.95554 0.0
C384 C 0.10186 0.27503 0.97433 0.0
C385 C 0.08368 0.30814 0.95342 0.0
C386 C 0.09329 0.31528 0.91337 0.0
H387 H 0.94498 0.12802 0.0416 0.0
H388 H 0.86124 0.19308 0.97485 0.0
H389 H 0.90795 0.18639 0.91564 0.0
H390 H 0.03149 0.16432 0.97352 0.0
H391 H 0.06075 0.11859 0.98218 0.0
H392 H 0.0232 0.13433 0.01954 0.0
H393 H 0.99531 0.07287 0.02614 0.0
H394 H 0.03148 0.05725 0.98786 0.0
H395 H 0.98175 0.06167 0.98538 0.0
H396 H 0.95779 0.16306 0.86439 0.0
H397 H 0.01358 0.13273 0.8226 0.0
H398 H 0.06765 0.08491 0.92043 0.0
C399 C 0.93719 0.1424 0.01458 0.0
C400 C 0.89958 0.16136 0.01276 0.0
C401 C 0.88995 0.17868 0.97686 0.0
C402 C 0.91626 0.17492 0.94304 0.0
C403 C 0.95232 0.15419 0.94557 0.0
C404 C 0.96338 0.13909 0.98032 0.0
C405 C 0.00319 0.11597 0.97459 0.0
C406 C 0.03132 0.13441 0.98826 0.0
C407 C 0.00288 0.07448 0.99466 0.0
C408 C 0.01177 0.11897 0.9314 0.0
C409 C 0.98195 0.14127 0.91538 0.0
C410 C 0.98168 0.14619 0.87644 0.0
C411 C 0.01309 0.12856 0.85303 0.0
C412 C 0.04435 0.10646 0.86855 0.0
C413 C 0.04385 0.10171 0.90817 0.0
H414 H 0.27548 0.14924 0.02415 0.0
H415 H 0.23029 0.06224 0.98978 0.0
H416 H 0.16464 0.09502 0.00911 0.0
H417 H 0.2097 0.15611 0.10705 0.0
H418 H 0.20566 0.20672 0.10398 0.0
H419 H 0.2491 0.18026 0.08199 0.0
H420 H 0.24452 0.22332 0.01642 0.0
H421 H 0.20159 0.25072 0.03828 0.0
H422 H 0.20137 0.22997 -0.00258 0.0
H423 H 0.10383 0.1349 0.0372 0.0
H424 H 0.05307 0.18133 0.06756 0.0
H425 H 0.13911 0.2391 0.08645 0.0
C426 C 0.25187 0.13768 0.01952 0.0
C427 C 0.25791 0.10339 0.0052 0.0
C428 C 0.22623 0.08871 0.00041 0.0
C429 C 0.18888 0.10701 0.01148 0.0
C430 C 0.18389 0.13979 0.02734 0.0
C431 C 0.21457 0.15524 0.03086 0.0
C432 C 0.20175 0.18924 0.05096 0.0
C433 C 0.2175 0.18266 0.08819 0.0
C434 C 0.21296 0.22546 0.02417 0.0
C435 C 0.15909 0.19005 0.05906 0.0
C436 C 0.14923 0.16157 0.04491 0.0
C437 C 0.11128 0.15723 0.04844 0.0
C438 C 0.08273 0.18339 0.06596 0.0
C439 C 0.09237 0.21309 0.08003 0.0
C440 C 0.13105 0.21594 0.07705 0.0
H441 H 0.36412 0.92773 0.98771 0.0
H442 H 0.38761 0.90142 0.10291 0.0
H443 H 0.37075 0.83775 0.1101 0.0
H444 H 0.28382 0.89527 0.00698 0.0
H445 H 0.28844 0.87554 0.96432 0.0
H446 H 0.31418 0.91301 0.96335 0.0
H447 H 0.37779 0.87111 0.93955 0.0
H448 H 0.35194 0.83327 0.94042 0.0
H449 H 0.39068 0.82462 0.96632 0.0
H450 H 0.33299 0.78818 0.11251 0.0
H451 H 0.2808 0.75569 0.10827 0.0
H452 H 0.28416 0.81067 0.99062 0.0
C453 C 0.36736 0.90795 0.01382 0.0
C454 C 0.37701 0.91952 0.04478 0.0
C455 C 0.38043 0.89311 0.07872 0.0
C456 C 0.37106 0.85675 0.083 0.0
C457 C 0.35908 0.84704 0.05282 0.0
C458 C 0.35803 0.87164 0.01848 0.0
C459 C 0.33801 0.8574 0.993 0.0
C460 C 0.30413 0.88704 0.98131 0.0
C461 C 0.36631 0.8459 0.95774 0.0
C462 C 0.32476 0.82294 0.01977 0.0
C463 C 0.33808 0.81681 0.05378 0.0
C464 C 0.32373 0.79148 0.08552 0.0
C465 C 0.29404 0.77322 0.08297 0.0
C466 C 0.27944 0.78015 0.04882 0.0
C467 C 0.2962 0.80377 0.0164 0.0
H468 H 0.77642 0.30663 0.13128 0.0
H469 H 0.75555 0.27075 0.03228 0.0
H470 H 0.7643 0.33323 0.99456 0.0
H471 H 0.7409 0.41899 0.09476 0.0
H472 H 0.77699 0.42942 0.11641 0.0
H473 H 0.75057 0.39124 0.13964 0.0
H474 H 0.81406 0.34504 0.14213 0.0
H475 H 0.84026 0.38251 0.11911 0.0
H476 H 0.84774 0.34013 0.09827 0.0
H477 H 0.80308 0.38112 0.96341 0.0
H478 H 0.86378 0.40474 0.94587 0.0
H479 H 0.85467 0.42152 0.06199 0.0
C480 C 0.77157 0.31253 0.10229 0.0
C481 C 0.76693 0.28309 0.08451 0.0
C482 C 0.7606 0.29219 0.04643 0.0
C483 C 0.76484 0.32809 0.02481 0.0
C484 C 0.77418 0.35518 0.0419 0.0
C485 C 0.77579 0.34841 0.08045 0.0
C486 C 0.79417 0.37827 0.09025 0.0
C487 C 0.76384 0.40614 0.1115 0.0
C488 C 0.82594 0.36037 0.1137 0.0
C489 C 0.80973 0.39761 0.0504 0.0
C490 C 0.79577 0.38564 0.02298 0.0
C491 C 0.81327 0.39156 0.98455 0.0
C492 C 0.84823 0.40513 0.97472 0.0
C493 C 0.86531 0.4127 0.0033 0.0
C494 C 0.84296 0.41419 0.04006 0.0
H495 H 0.03858 0.84076 0.07879 0.0
H496 H 0.11748 0.8998 0.1095 0.0
H497 H 0.0689 0.9575 0.11009 0.0
H498 H -0.00029 0.9185 0.01508 0.0
H499 H 0.95178 0.9076 0.02821 0.0
H500 H 0.99179 0.87012 0.03246 0.0
H501 H 0.96375 0.84986 0.10403 0.0
H502 H 0.92347 0.8871 0.09994 0.0
H503 H 0.95205 0.88451 0.13545 0.0
H504 H 0.01316 0.00915 0.1048 0.0
H505 H 0.95315 0.05148 0.09535 0.0
H506 H 0.91029 0.95918 0.06766 0.0
C507 C 0.04545 0.86567 0.08614 0.0
C508 C 0.08167 0.86585 0.09429 0.0
C509 C 0.08982 0.89909 0.10328 0.0
C510 C 0.06245 0.93197 0.10366 0.0
C511 C 0.02722 0.93105 0.0949 0.0
C512 C 0.01856 0.89878 0.08642 0.0
C513 C 0.97897 0.90572 0.07688 0.0
C514 C 0.98069 0.90016 0.03571 0.0
C515 C 0.95303 0.88029 0.10581 0.0
C516 C 0.9668 0.94703 0.0811 0.0
C517 C 0.99503 0.961 0.09163 0.0
C518 C 0.99068 -0.00155 0.09694 0.0
C519 C 0.95636 0.0222 0.09171 0.0
C520 C 0.92686 0.00849 0.08115 0.0
C521 C 0.93238 0.97044 0.07556 0.0
H522 H 0.09578 0.15952 0.5941 0.0
H523 H 0.01409 0.12116 0.69385 0.0
H524 H 0.9738 0.10968 0.65204 0.0
H525 H 0.0254 0.20194 0.52868 0.0
H526 H 0.05825 0.18527 0.48857 0.0
H527 H 0.0761 0.19825 0.52589 0.0
H528 H 0.1176 0.13177 0.53551 0.0
H529 H 0.09984 0.11857 0.4985 0.0
H530 H 0.09505 0.08996 0.54545 0.0
H531 H 0.94853 0.0918 0.6001 0.0
H532 H 0.94126 0.06898 0.54275 0.0
H533 H 0.03956 0.11893 0.47759 0.0
C534 C 0.06895 0.14958 0.6071 0.0
C535 C 0.05796 0.14139 0.64713 0.0
C536 C 0.02273 0.12827 0.66317 0.0
C537 C -0.00033 0.12161 0.63966 0.0
C538 C 0.01206 0.12866 0.60022 0.0
C539 C 0.04574 0.14276 0.58408 0.0
C540 C 0.05516 0.14367 0.54142 0.0
C541 C 0.05362 0.18473 0.51987 0.0
C542 C 0.09419 0.11954 0.52957 0.0
C543 C 0.02271 0.12595 0.53634 0.0
C544 C 0.99761 0.11819 0.57034 0.0
C545 C 0.96747 0.09851 0.57314 0.0
C546 C 0.96351 0.08568 0.54053 0.0
C547 C 0.98993 0.09218 0.506 0.0
C548 C 0.01901 0.1136 0.50374 0.0
H549 H 0.64552 0.14734 0.05128 0.0
H550 H 0.66674 0.05499 0.14413 0.0
H551 H 0.60782 0.03197 0.14136 0.0
H552 H 0.54054 0.16364 0.08057 0.0
H553 H 0.53313 0.17448 0.03185 0.0
H554 H 0.57531 0.1851 0.04335 0.0
H555 H 0.61747 0.14542 0.9936 0.0
H556 H 0.57551 0.13429 0.98227 0.0
H557 H 0.61204 0.09655 -0.0027 0.0
H558 H 0.55146 0.0151 0.12341 0.0
H559 H 0.49636 0.00942 0.09621 0.0
H560 H 0.51012 0.11462 0.01739 0.0
C561 C 0.63731 0.12264 0.07136 0.0
C562 C 0.66031 0.1028 0.09792 0.0
C563 C 0.64903 0.07062 0.12386 0.0
C564 C 0.61584 0.05732 0.12238 0.0
C565 C 0.59419 0.07699 0.0952 0.0
C566 C 0.60403 0.10935 0.07063 0.0
C567 C 0.57629 0.12474 0.04357 0.0
C568 C 0.55506 0.16434 0.05025 0.0
C569 C 0.59655 0.12526 0.00172 0.0
C570 C 0.54991 0.09536 0.05604 0.0
C571 C 0.56082 0.06797 0.08576 0.0
C572 C 0.54222 0.03665 0.10059 0.0
C573 C 0.5113 0.0335 0.08486 0.0
C574 C 0.49934 0.06169 0.05502 0.0
C575 C 0.51874 0.093 0.04052 0.0
H576 H 0.12127 0.63274 0.01891 0.0
H577 H 0.18755 0.59128 0.10926 0.0
H578 H 0.17836 0.52596 0.10952 0.0
H579 H 0.05087 0.57703 0.05871 0.0
H580 H 0.04302 0.5689 0.01397 0.0
H581 H 0.06055 0.61126 0.01582 0.0
H582 H 0.11903 0.59483 0.96344 0.0
H583 H 0.10157 0.5524 0.96129 0.0
H584 H 0.14904 0.54929 0.97029 0.0
H585 H 0.15657 0.46618 0.10459 0.0
H586 H 0.12171 0.4172 0.09646 0.0
H587 H 0.06628 0.4989 0.01284 0.0
C588 C 0.13419 0.60997 0.03857 0.0
C589 C 0.15529 0.61726 0.06392 0.0
C590 C 0.17193 0.58646 0.08896 0.0
C591 C 0.16674 0.54921 0.08945 0.0
C592 C 0.14483 0.54328 0.06482 0.0
C593 C 0.12881 0.57284 0.03985 0.0
C594 C 0.10328 0.55965 0.01912 0.0
C595 C 0.062 0.58044 0.02743 0.0
C596 C 0.1192 0.56431 0.97598 0.0
C597 C 0.1064 0.51827 0.03728 0.0
C598 C 0.13113 0.50915 0.06295 0.0
C599 C 0.13747 0.47286 0.08427 0.0
C600 C 0.11763 0.4453 0.07948 0.0
C601 C 0.09143 0.45453 0.0541 0.0
C602 C 0.08613 0.4913 0.03249 0.0
loop_
_geom_bond_atom_site_label_1
_geom_bond_atom_site_label_2
_geom_bond_distance
_geom_bond_site_symmetry_2
_ccdc_geom_bond_type
Co0 N4 2.148 1_545 S
Co0 N10 2.128 . S
Co0 N20 2.194 . S
Co0 O25 2.351 . S
Co0 O26 2.155 . S
Co0 O27 2.096 1_455 S
C1 N4 1.301 . S
C1 N5 1.328 . S
C1 H6 0.930 . S
C2 C3 1.333 1_655 S
C2 N4 1.317 1_655 S
C2 H7 0.930 . S
C3 C2 1.333 1_455 S
C3 N5 1.350 . S
C3 H29 0.931 1_455 S
N4 Co0 2.148 1_565 S
N4 C1 1.301 . S
N4 C2 1.317 1_455 S
N5 C1 1.328 . S
N5 C3 1.350 . S
H6 C1 0.930 . S
H7 C2 0.930 . S
C8 O9 1.224 . S
C8 O27 1.247 . S
O9 C8 1.224 . S
N10 Co0 2.128 . S
N10 C11 1.355 . S
N10 C13 1.311 . S
C11 N10 1.355 . S
C11 C12 1.363 . S
C11 H23 0.929 . S
C12 C11 1.363 . S
C12 N14 1.375 . S
C12 H30 0.931 . S
C13 N10 1.311 . S
C13 N14 1.347 . S
C13 H24 0.929 1_455 S
N14 C12 1.375 . S
N14 C13 1.347 . S
C15 C18 1.365 . S
C15 N20 1.328 . S
C15 H21 0.929 1_545 S
C16 C17 1.362 1_655 S
C16 C19 1.376 . S
C16 H31 0.929 . S
C17 C16 1.362 1_455 S
C17 C18 1.366 . S
C18 C15 1.365 . S
C18 C17 1.366 . S
C18 H32 0.930 . S
C19 C16 1.376 . S
C19 N20 1.308 1_655 S
C19 H22 0.940 . S
N20 Co0 2.194 . S
N20 C15 1.328 . S
N20 C19 1.308 1_455 S
H21 C15 0.929 1_565 S
H22 C19 0.940 . S
H23 C11 0.929 . S
H24 C13 0.929 1_655 S
O25 Co0 2.351 . S
O25 C28 1.244 . S
O26 Co0 2.155 . S
O26 C28 1.240 . S
O27 Co0 2.096 1_655 S
O27 C8 1.247 . S
C28 O25 1.244 . S
C28 O26 1.240 . S
H29 C3 0.931 1_655 S
H30 C12 0.931 . S
H31 C16 0.929 . S
H32 C18 0.930 . S
Co33 N37 2.148 . S
Co33 N43 2.128 . S
Co33 N53 2.194 . S
Co33 O58 2.351 . S
Co33 O59 2.155 . S
Co33 O60 2.096 . S
C34 N37 1.301 . S
C34 N38 1.328 . S
C34 H39 0.930 . S
C35 C36 1.333 . S
C35 N37 1.317 . S
C35 H40 0.930 . S
C36 C35 1.333 . S
C36 N38 1.350 . S
C36 H62 0.931 . S
N37 Co33 2.148 . S
N37 C34 1.301 . S
N37 C35 1.317 . S
N38 C34 1.328 . S
N38 C36 1.350 . S
H39 C34 0.930 . S
H40 C35 0.930 . S
C41 O42 1.224 . S
C41 O60 1.247 . S
O42 C41 1.224 . S
N43 Co33 2.128 . S
N43 C44 1.355 . S
N43 C46 1.311 . S
C44 N43 1.355 . S
C44 C45 1.363 . S
C44 H56 0.929 . S
C45 C44 1.363 . S
C45 N47 1.375 . S
C45 H63 0.931 . S
C46 N43 1.311 . S
C46 N47 1.347 . S
C46 H57 0.929 . S
N47 C45 1.375 . S
N47 C46 1.347 . S
C48 C51 1.365 . S
C48 N53 1.328 . S
C48 H54 0.929 . S
C49 C50 1.362 . S
C49 C52 1.378 . S
C49 H64 0.929 . S
C50 C49 1.362 . S
C50 C51 1.366 . S
C51 C48 1.365 . S
C51 C50 1.366 . S
C51 H65 0.930 . S
C52 C49 1.378 . S
C52 N53 1.315 . S
C52 H55 0.930 . S
N53 Co33 2.194 . S
N53 C48 1.328 . S
N53 C52 1.315 . S
H54 C48 0.929 . S
H55 C52 0.930 . S
H56 C44 0.929 . S
H57 C46 0.929 . S
O58 Co33 2.351 . S
O58 C61 1.244 . S
O59 Co33 2.155 . S
O59 C61 1.240 . S
O60 Co33 2.096 . S
O60 C41 1.247 . S
C61 O58 1.244 . S
C61 O59 1.240 . S
H62 C36 0.931 . S
H63 C45 0.931 . S
H64 C49 0.929 . S
H65 C51 0.930 . S
Co66 N70 2.148 1_554 S
Co66 N76 2.128 . S
Co66 N86 2.194 . S
Co66 O91 2.351 1_554 S
Co66 O92 2.155 . S
Co66 O93 2.096 1_545 S
C67 N70 1.301 . S
C67 N71 1.328 . S
C67 H72 0.930 . S
C68 C69 1.333 . S
C68 N70 1.317 . S
C68 H73 0.930 1_545 S
C69 C68 1.333 . S
C69 N71 1.350 . S
C69 H95 0.916 1_545 S
N70 Co66 2.148 1_556 S
N70 C67 1.301 . S
N70 C68 1.317 . S
N71 C67 1.328 . S
N71 C69 1.350 . S
H72 C67 0.930 . S
H73 C68 0.930 1_565 S
C74 O75 1.224 . S
C74 O93 1.247 . S
O75 C74 1.224 . S
N76 Co66 2.128 . S
N76 C77 1.355 . S
N76 C79 1.311 . S
C77 N76 1.355 . S
C77 C78 1.363 . S
C77 H89 0.929 . S
C78 C77 1.363 . S
C78 N80 1.375 . S
C78 H96 0.931 . S
C79 N76 1.311 . S
C79 N80 1.347 . S
C79 H90 0.929 1_545 S
N80 C78 1.375 . S
N80 C79 1.347 . S
C81 C84 1.365 1_556 S
C81 N86 1.328 1_556 S
C81 H87 0.929 . S
C82 C83 1.362 . S
C82 C85 1.378 . S
C82 H97 0.929 1_545 S
C83 C82 1.362 . S
C83 C84 1.366 . S
C84 C81 1.365 1_554 S
C84 C83 1.366 . S
C84 H98 0.930 1_554 S
C85 C82 1.378 . S
C85 N86 1.315 . S
C85 H88 0.930 1_545 S
N86 Co66 2.194 . S
N86 C81 1.328 1_554 S
N86 C85 1.315 . S
H87 C81 0.929 . S
H88 C85 0.930 1_565 S
H89 C77 0.929 . S
H90 C79 0.929 1_565 S
O91 Co66 2.351 1_556 S
O91 C94 1.244 . S
O92 Co66 2.155 . S
O92 C94 1.240 1_554 S
O93 Co66 2.096 1_565 S
O93 C74 1.247 . S
C94 O91 1.244 . S
C94 O92 1.240 1_556 S
H95 C69 0.916 1_565 S
H96 C78 0.931 . S
H97 C82 0.929 1_565 S
H98 C84 0.930 1_556 S
Co99 N103 2.148 1_455 S
Co99 N109 2.128 . S
Co99 N119 2.194 . S
Co99 O124 2.351 . S
Co99 O125 2.155 . S
Co99 O126 2.096 1_554 S
C100 N103 1.301 . S
C100 N104 1.328 . S
C100 H105 0.930 . S
C101 C102 1.333 1_556 S
C101 N103 1.317 1_556 S
C101 H106 0.930 . S
C102 C101 1.333 1_554 S
C102 N104 1.350 . S
C102 H128 0.931 1_554 S
N103 Co99 2.148 1_655 S
N103 C100 1.301 . S
N103 C101 1.317 1_554 S
N104 C100 1.328 . S
N104 C102 1.350 . S
H105 C100 0.930 . S
H106 C101 0.930 . S
C107 O108 1.224 . S
C107 O126 1.247 . S
O108 C107 1.224 . S
N109 Co99 2.128 . S
N109 C110 1.355 . S
N109 C112 1.314 . S
C110 N109 1.355 . S
C110 C111 1.363 . S
C110 H122 0.929 . S
C111 C110 1.363 . S
C111 N113 1.375 . S
C111 H129 0.931 . S
C112 N109 1.314 . S
C112 N113 1.350 . S
C112 H123 0.924 1_554 S
N113 C111 1.375 . S
N113 C112 1.350 . S
C114 C117 1.365 . S
C114 N119 1.328 . S
C114 H120 0.929 . S
C115 C116 1.362 1_556 S
C115 C118 1.378 . S
C115 H130 0.929 . S
C116 C115 1.362 1_554 S
C116 C117 1.366 . S
C117 C114 1.365 . S
C117 C116 1.366 . S
C117 H131 0.930 . S
C118 C115 1.378 . S
C118 N119 1.315 1_556 S
C118 H121 0.930 . S
N119 Co99 2.194 . S
N119 C114 1.328 . S
N119 C118 1.315 1_554 S
H120 C114 0.929 . S
H121 C118 0.930 . S
H122 C110 0.929 . S
H123 C112 0.924 1_556 S
O124 Co99 2.351 . S
O124 C127 1.244 . S
O125 Co99 2.155 . S
O125 C127 1.240 . S
O126 Co99 2.096 1_556 S
O126 C107 1.247 . S
C127 O124 1.244 . S
C127 O125 1.240 . S
H128 C102 0.931 1_556 S
H129 C111 0.931 . S
H130 C115 0.929 . S
H131 C117 0.930 . S
Co132 N136 2.148 . S
Co132 N142 2.128 . S
Co132 N152 2.194 . S
Co132 O157 2.351 . S
Co132 O158 2.155 . S
Co132 O159 2.096 . S
C133 N136 1.301 . S
C133 N137 1.328 . S
C133 H138 0.930 . S
C134 C135 1.333 . S
C134 N136 1.317 . S
C134 H139 0.930 . S
C135 C134 1.333 . S
C135 N137 1.350 . S
C135 H161 0.931 . S
N136 Co132 2.148 . S
N136 C133 1.301 . S
N136 C134 1.317 . S
N137 C133 1.328 . S
N137 C135 1.350 . S
H138 C133 0.930 . S
H139 C134 0.930 . S
C140 O141 1.224 . S
C140 O159 1.247 . S
O141 C140 1.224 . S
N142 Co132 2.128 . S
N142 C143 1.355 . S
N142 C145 1.311 . S
C143 N142 1.355 . S
C143 C144 1.363 . S
C143 H155 0.929 . S
C144 C143 1.363 . S
C144 N146 1.375 . S
C144 H162 0.931 . S
C145 N142 1.311 . S
C145 N146 1.347 . S
C145 H156 0.929 . S
N146 C144 1.375 . S
N146 C145 1.347 . S
C147 C150 1.365 . S
C147 N152 1.328 . S
C147 H153 0.929 . S
C148 C149 1.362 . S
C148 C151 1.378 . S
C148 H163 0.929 . S
C149 C148 1.362 . S
C149 C150 1.366 . S
C150 C147 1.365 . S
C150 C149 1.366 . S
C150 H164 0.930 . S
C151 C148 1.378 . S
C151 N152 1.315 . S
C151 H154 0.930 . S
N152 Co132 2.194 . S
N152 C147 1.328 . S
N152 C151 1.315 . S
H153 C147 0.929 . S
H154 C151 0.930 . S
H155 C143 0.929 . S
H156 C145 0.929 . S
O157 Co132 2.351 . S
O157 C160 1.244 . S
O158 Co132 2.155 . S
O158 C160 1.240 . S
O159 Co132 2.096 . S
O159 C140 1.247 . S
C160 O157 1.244 . S
C160 O158 1.240 . S
H161 C135 0.931 . S
H162 C144 0.931 . S
H163 C148 0.929 . S
H164 C150 0.930 . S
Co165 N169 2.148 . S
Co165 N175 2.128 . S
Co165 N185 2.194 . S
Co165 O190 2.351 . S
Co165 O191 2.155 . S
Co165 O192 2.096 . S
C166 N169 1.301 . S
C166 N170 1.328 . S
C166 H171 0.930 . S
C167 C168 1.333 . S
C167 N169 1.317 . S
C167 H172 0.930 . S
C168 C167 1.333 . S
C168 N170 1.350 . S
C168 H194 0.931 . S
N169 Co165 2.148 . S
N169 C166 1.301 . S
N169 C167 1.317 . S
N170 C166 1.328 . S
N170 C168 1.350 . S
H171 C166 0.930 . S
H172 C167 0.930 . S
C173 O174 1.224 . S
C173 O192 1.247 . S
O174 C173 1.224 . S
N175 Co165 2.128 . S
N175 C176 1.355 . S
N175 C178 1.311 . S
C176 N175 1.355 . S
C176 C177 1.363 . S
C176 H188 0.929 . S
C177 C176 1.363 . S
C177 N179 1.375 1_554 S
C177 H195 0.931 1_554 S
C178 N175 1.311 . S
C178 N179 1.347 1_554 S
C178 H189 0.929 . S
N179 C177 1.375 1_556 S
N179 C178 1.347 1_556 S
C180 C183 1.365 . S
C180 N185 1.328 . S
C180 H186 0.929 . S
C181 C182 1.362 . S
C181 C184 1.378 . S
C181 H196 0.929 . S
C182 C181 1.362 . S
C182 C183 1.366 . S
C183 C180 1.365 . S
C183 C182 1.366 . S
C183 H197 0.930 . S
C184 C181 1.378 . S
C184 N185 1.315 . S
C184 H187 0.930 . S
N185 Co165 2.194 . S
N185 C180 1.328 . S
N185 C184 1.315 . S
H186 C180 0.929 . S
H187 C184 0.930 . S
H188 C176 0.929 . S
H189 C178 0.929 . S
O190 Co165 2.351 . S
O190 C193 1.244 . S
O191 Co165 2.155 . S
O191 C193 1.240 . S
O192 Co165 2.096 . S
O192 C173 1.247 . S
C193 O190 1.244 . S
C193 O191 1.240 . S
H194 C168 0.931 . S
H195 C177 0.931 1_556 S
H196 C181 0.929 . S
H197 C183 0.930 . S
H198 C210 0.930 . S
H199 C212 0.930 . S
H200 C213 0.930 . S
H201 C217 0.959 . S
H202 C217 0.959 . S
H203 C217 0.961 . S
H204 C218 0.960 . S
H205 C218 0.961 . S
H206 C218 0.959 . S
H207 C221 0.929 . S
H208 C222 0.931 . S
H209 C224 0.930 . S
C210 H198 0.930 . S
C210 C211 1.399 1_655 S
C210 C215 1.399 1_655 S
C211 C210 1.399 1_455 S
C211 C212 1.376 . S
C212 H199 0.930 . S
C212 C211 1.376 . S
C212 C213 1.388 . S
C213 H200 0.930 . S
C213 C212 1.388 . S
C213 C214 1.390 . S
C214 C213 1.390 . S
C214 C215 1.395 . S
C214 C220 1.465 . S
C215 C210 1.399 1_455 S
C215 C214 1.395 . S
C215 C216 1.516 1_455 S
C216 C215 1.516 1_655 S
C216 C217 1.502 . S
C216 C218 1.561 1_655 S
C216 C219 1.526 . S
C217 H201 0.959 . S
C217 H202 0.959 . S
C217 H203 0.961 . S
C217 C216 1.502 . S
C218 H204 0.960 . S
C218 H205 0.961 . S
C218 H206 0.959 . S
C218 C216 1.561 1_455 S
C219 C216 1.526 . S
C219 C220 1.396 1_655 S
C219 C224 1.390 . S
C220 C214 1.465 . S
C220 C219 1.396 1_455 S
C220 C221 1.399 . S
C221 H207 0.929 . S
C221 C220 1.399 . S
C221 C222 1.385 . S
C222 H208 0.931 . S
C222 C221 1.385 . S
C222 C223 1.389 . S
C223 C222 1.389 . S
C223 C224 1.387 1_455 S
C224 H209 0.930 . S
C224 C219 1.390 . S
C224 C223 1.387 1_655 S
H225 C237 0.930 . S
H226 C239 0.930 . S
H227 C240 0.930 . S
H228 C244 0.959 . S
H229 C244 0.959 1_565 S
H230 C244 0.961 . S
H231 C245 0.960 . S
H232 C245 0.961 . S
H233 C245 0.959 . S
H234 C248 0.929 . S
H235 C249 0.931 . S
H236 C251 0.930 . S
C237 H225 0.930 . S
C237 C238 1.399 . S
C237 C242 1.399 . S
C238 C237 1.399 . S
C238 C239 1.376 . S
C239 H226 0.930 . S
C239 C238 1.376 . S
C239 C240 1.388 . S
C240 H227 0.930 . S
C240 C239 1.388 . S
C240 C241 1.390 . S
C241 C240 1.390 . S
C241 C242 1.394 . S
C241 C247 1.465 . S
C242 C237 1.399 . S
C242 C241 1.394 . S
C242 C243 1.516 . S
C243 C242 1.516 . S
C243 C244 1.502 . S
C243 C245 1.561 . S
C243 C246 1.526 . S
C244 H228 0.959 . S
C244 H229 0.959 1_545 S
C244 H230 0.961 . S
C244 C243 1.502 . S
C245 H231 0.960 . S
C245 H232 0.961 . S
C245 H233 0.959 . S
C245 C243 1.561 . S
C246 C243 1.526 . S
C246 C247 1.396 . S
C246 C251 1.390 . S
C247 C241 1.465 . S
C247 C246 1.396 . S
C247 C248 1.399 . S
C248 H234 0.929 . S
C248 C247 1.399 . S
C248 C249 1.385 . S
C249 H235 0.931 . S
C249 C248 1.385 . S
C249 C250 1.389 . S
C250 C249 1.389 . S
C250 C251 1.387 . S
C251 H236 0.930 . S
C251 C246 1.390 . S
C251 C250 1.387 . S
H252 C264 0.930 . S
H253 C266 0.930 . S
H254 C267 0.930 . S
H255 C271 0.959 . S
H256 C271 0.959 . S
H257 C271 0.961 . S
H258 C272 0.960 . S
H259 C272 0.961 . S
H260 C272 0.959 . S
H261 C275 0.929 . S
H262 C276 0.931 . S
H263 C278 0.930 . S
C264 H252 0.930 . S
C264 C265 1.399 . S
C264 C269 1.399 . S
C265 C264 1.399 . S
C265 C266 1.376 . S
C266 H253 0.930 . S
C266 C265 1.376 . S
C266 C267 1.388 . S
C267 H254 0.930 . S
C267 C266 1.388 . S
C267 C268 1.390 . S
C268 C267 1.390 . S
C268 C269 1.394 . S
C268 C274 1.465 . S
C269 C264 1.399 . S
C269 C268 1.394 . S
C269 C270 1.516 . S
C270 C269 1.516 . S
C270 C271 1.502 . S
C270 C272 1.561 . S
C270 C273 1.526 . S
C271 H255 0.959 . S
C271 H256 0.959 . S
C271 H257 0.961 . S
C271 C270 1.502 . S
C272 H258 0.960 . S
C272 H259 0.961 . S
C272 H260 0.959 . S
C272 C270 1.561 . S
C273 C270 1.526 . S
C273 C274 1.396 . S
C273 C278 1.390 . S
C274 C268 1.465 . S
C274 C273 1.396 . S
C274 C275 1.399 . S
C275 H261 0.929 . S
C275 C274 1.399 . S
C275 C276 1.385 . S
C276 H262 0.931 . S
C276 C275 1.385 . S
C276 C277 1.389 . S
C277 C276 1.389 . S
C277 C278 1.387 . S
C278 H263 0.930 . S
C278 C273 1.390 . S
C278 C277 1.387 . S
H279 C291 0.930 . S
H280 C293 0.930 . S
H281 C294 0.930 . S
H282 C298 0.959 . S
H283 C298 0.959 . S
H284 C298 0.961 . S
H285 C299 0.960 . S
H286 C299 0.961 . S
H287 C299 0.959 . S
H288 C302 0.929 . S
H289 C303 0.931 . S
H290 C305 0.930 . S
C291 H279 0.930 . S
C291 C292 1.411 . S
C291 C296 1.399 . S
C292 C291 1.411 . S
C292 C293 1.361 1_545 S
C293 H280 0.930 . S
C293 C292 1.361 1_565 S
C293 C294 1.388 . S
C294 H281 0.930 . S
C294 C293 1.388 . S
C294 C295 1.390 . S
C295 C294 1.390 . S
C295 C296 1.394 1_565 S
C295 C301 1.465 . S
C296 C291 1.399 . S
C296 C295 1.394 1_545 S
C296 C297 1.516 . S
C297 C296 1.516 . S
C297 C298 1.502 . S
C297 C299 1.561 . S
C297 C300 1.526 . S
C298 H282 0.959 . S
C298 H283 0.959 . S
C298 H284 0.961 . S
C298 C297 1.502 . S
C299 H285 0.960 . S
C299 H286 0.961 . S
C299 H287 0.959 . S
C299 C297 1.561 . S
C300 C297 1.526 . S
C300 C301 1.396 1_545 S
C300 C305 1.390 . S
C301 C295 1.465 . S
C301 C300 1.396 1_565 S
C301 C302 1.399 . S
C302 H288 0.929 . S
C302 C301 1.399 . S
C302 C303 1.385 . S
C303 H289 0.931 . S
C303 C302 1.385 . S
C303 C304 1.389 . S
C304 C303 1.389 . S
C304 C305 1.387 1_565 S
C305 H290 0.930 . S
C305 C300 1.390 . S
C305 C304 1.387 1_545 S
H306 C318 0.930 . S
H307 C320 0.930 . S
H308 C321 0.930 . S
H309 C325 0.959 . S
H310 C325 0.959 . S
H311 C325 0.961 . S
H312 C326 0.960 . S
H313 C326 0.961 . S
H314 C326 0.959 . S
H315 C329 0.929 . S
H316 C330 0.931 . S
H317 C332 0.930 . S
C318 H306 0.930 . S
C318 C319 1.399 . S
C318 C323 1.399 . S
C319 C318 1.399 . S
C319 C320 1.376 . S
C320 H307 0.930 . S
C320 C319 1.376 . S
C320 C321 1.388 . S
C321 H308 0.930 . S
C321 C320 1.388 . S
C321 C322 1.390 . S
C322 C321 1.390 . S
C322 C323 1.394 . S
C322 C328 1.465 . S
C323 C318 1.399 . S
C323 C322 1.394 . S
C323 C324 1.516 . S
C324 C323 1.516 . S
C324 C325 1.502 . S
C324 C326 1.561 . S
C324 C327 1.526 . S
C325 H309 0.959 . S
C325 H310 0.959 . S
C325 H311 0.961 . S
C325 C324 1.502 . S
C326 H312 0.960 . S
C326 H313 0.961 . S
C326 H314 0.959 . S
C326 C324 1.561 . S
C327 C324 1.526 . S
C327 C328 1.396 . S
C327 C332 1.390 . S
C328 C322 1.465 . S
C328 C327 1.396 . S
C328 C329 1.399 . S
C329 H315 0.929 . S
C329 C328 1.399 . S
C329 C330 1.385 1_565 S
C330 H316 0.931 . S
C330 C329 1.385 1_545 S
C330 C331 1.389 . S
C331 C330 1.389 . S
C331 C332 1.387 1_545 S
C332 H317 0.930 . S
C332 C327 1.390 . S
C332 C331 1.387 1_565 S
H333 C345 0.930 . S
H334 C347 0.930 . S
H335 C348 0.930 . S
H336 C352 0.959 . S
H337 C352 0.959 . S
H338 C352 0.961 . S
H339 C353 0.960 . S
H340 C353 0.961 . S
H341 C353 0.959 . S
H342 C356 0.929 . S
H343 C357 0.931 . S
H344 C359 0.930 . S
C345 H333 0.930 . S
C345 C346 1.399 . S
C345 C350 1.399 . S
C346 C345 1.399 . S
C346 C347 1.376 . S
C347 H334 0.930 . S
C347 C346 1.376 . S
C347 C348 1.388 . S
C348 H335 0.930 . S
C348 C347 1.388 . S
C348 C349 1.390 . S
C349 C348 1.390 . S
C349 C350 1.394 . S
C349 C355 1.465 . S
C350 C345 1.399 . S
C350 C349 1.394 . S
C350 C351 1.516 . S
C351 C350 1.516 . S
C351 C352 1.502 . S
C351 C353 1.561 . S
C351 C354 1.526 . S
C352 H336 0.959 . S
C352 H337 0.959 . S
C352 H338 0.961 . S
C352 C351 1.502 . S
C353 H339 0.960 . S
C353 H340 0.961 . S
C353 H341 0.959 . S
C353 C351 1.561 . S
C354 C351 1.526 . S
C354 C355 1.396 . S
C354 C359 1.390 . S
C355 C349 1.465 . S
C355 C354 1.396 . S
C355 C356 1.399 . S
C356 H342 0.929 . S
C356 C355 1.399 . S
C356 C357 1.385 . S
C357 H343 0.931 . S
C357 C356 1.385 . S
C357 C358 1.389 . S
C358 C357 1.389 . S
C358 C359 1.387 . S
C359 H344 0.930 . S
C359 C354 1.390 . S
C359 C358 1.387 . S
H360 C372 0.930 . S
H361 C374 0.930 . S
H362 C375 0.930 . S
H363 C379 0.959 . S
H364 C379 0.959 . S
H365 C379 0.961 . S
H366 C380 0.960 . S
H367 C380 0.961 . S
H368 C380 0.959 . S
H369 C383 0.929 . S
H370 C384 0.931 . S
H371 C386 0.930 . S
C372 H360 0.930 . S
C372 C373 1.399 . S
C372 C377 1.399 . S
C373 C372 1.399 . S
C373 C374 1.376 . S
C374 H361 0.930 . S
C374 C373 1.376 . S
C374 C375 1.388 . S
C375 H362 0.930 . S
C375 C374 1.388 . S
C375 C376 1.390 . S
C376 C375 1.390 . S
C376 C377 1.394 . S
C376 C382 1.465 . S
C377 C372 1.399 . S
C377 C376 1.394 . S
C377 C378 1.516 . S
C378 C377 1.516 . S
C378 C379 1.502 . S
C378 C380 1.561 . S
C378 C381 1.526 . S
C379 H363 0.959 . S
C379 H364 0.959 . S
C379 H365 0.961 . S
C379 C378 1.502 . S
C380 H366 0.960 . S
C380 H367 0.961 . S
C380 H368 0.959 . S
C380 C378 1.561 . S
C381 C378 1.526 . S
C381 C382 1.396 . S
C381 C386 1.390 . S
C382 C376 1.465 . S
C382 C381 1.396 . S
C382 C383 1.399 . S
C383 H369 0.929 . S
C383 C382 1.399 . S
C383 C384 1.385 . S
C384 H370 0.931 . S
C384 C383 1.385 . S
C384 C385 1.389 . S
C385 C384 1.389 . S
C385 C386 1.387 . S
C386 H371 0.930 . S
C386 C381 1.390 . S
C386 C385 1.387 . S
H387 C399 0.930 . S
H388 C401 0.930 . S
H389 C402 0.930 . S
H390 C406 0.959 . S
H391 C406 0.959 . S
H392 C406 0.961 . S
H393 C407 0.960 . S
H394 C407 0.961 . S
H395 C407 0.959 . S
H396 C410 0.929 . S
H397 C411 0.931 . S
H398 C413 0.930 . S
C399 H387 0.930 . S
C399 C400 1.379 1_556 S
C399 C404 1.399 . S
C400 C399 1.379 1_554 S
C400 C401 1.377 . S
C401 H388 0.930 . S
C401 C400 1.377 . S
C401 C402 1.388 1_554 S
C402 H389 0.930 . S
C402 C401 1.388 1_556 S
C402 C403 1.390 . S
C403 C402 1.390 . S
C403 C404 1.394 . S
C403 C409 1.465 . S
C404 C399 1.399 . S
C404 C403 1.394 . S
C404 C405 1.516 . S
C405 C404 1.516 . S
C405 C406 1.502 . S
C405 C407 1.561 . S
C405 C408 1.526 . S
C406 H390 0.959 . S
C406 H391 0.959 . S
C406 H392 0.961 . S
C406 C405 1.502 . S
C407 H393 0.960 . S
C407 H394 0.961 . S
C407 H395 0.959 . S
C407 C405 1.561 . S
C408 C405 1.526 . S
C408 C409 1.396 . S
C408 C413 1.390 . S
C409 C403 1.465 . S
C409 C408 1.396 . S
C409 C410 1.399 . S
C410 H396 0.929 . S
C410 C409 1.399 . S
C410 C411 1.385 1_655 S
C411 H397 0.931 . S
C411 C410 1.385 1_455 S
C411 C412 1.389 1_455 S
C412 C411 1.389 1_655 S
C412 C413 1.387 . S
C413 H398 0.930 . S
C413 C408 1.390 . S
C413 C412 1.387 . S
H414 C426 0.930 . S
H415 C428 0.930 . S
H416 C429 0.930 . S
H417 C433 0.959 . S
H418 C433 0.959 . S
H419 C433 0.961 . S
H420 C434 0.960 . S
H421 C434 0.961 . S
H422 C434 0.959 . S
H423 C437 0.929 . S
H424 C438 0.931 . S
H425 C440 0.930 . S
C426 H414 0.930 . S
C426 C427 1.399 . S
C426 C431 1.399 . S
C427 C426 1.399 . S
C427 C428 1.376 1_556 S
C428 H415 0.930 . S
C428 C427 1.376 1_554 S
C428 C429 1.388 . S
C429 H416 0.930 . S
C429 C428 1.388 . S
C429 C430 1.390 . S
C430 C429 1.390 . S
C430 C431 1.394 1_554 S
C430 C436 1.465 . S
C431 C426 1.399 . S
C431 C430 1.394 1_556 S
C431 C432 1.516 . S
C432 C431 1.516 . S
C432 C433 1.502 . S
C432 C434 1.561 . S
C432 C435 1.526 . S
C433 H417 0.959 . S
C433 H418 0.959 . S
C433 H419 0.961 . S
C433 C432 1.502 . S
C434 H420 0.960 . S
C434 H421 0.961 . S
C434 H422 0.959 . S
C434 C432 1.561 . S
C435 C432 1.526 . S
C435 C436 1.396 1_556 S
C435 C440 1.390 . S
C436 C430 1.465 . S
C436 C435 1.396 1_554 S
C436 C437 1.399 . S
C437 H423 0.929 . S
C437 C436 1.399 . S
C437 C438 1.385 . S
C438 H424 0.931 . S
C438 C437 1.385 . S
C438 C439 1.389 1_554 S
C439 C438 1.389 1_556 S
C439 C440 1.387 . S
C440 H425 0.930 . S
C440 C435 1.390 . S
C440 C439 1.387 . S
H441 C453 0.930 . S
H442 C455 0.930 . S
H443 C456 0.930 . S
H444 C460 0.959 . S
H445 C460 0.959 . S
H446 C460 0.961 . S
H447 C461 0.960 1_556 S
H448 C461 0.961 . S
H449 C461 0.959 1_556 S
H450 C464 0.929 . S
H451 C465 0.931 . S
H452 C467 0.930 . S
C453 H441 0.930 . S
C453 C454 1.399 . S
C453 C458 1.399 . S
C454 C453 1.399 . S
C454 C455 1.376 . S
C455 H442 0.930 . S
C455 C454 1.376 . S
C455 C456 1.388 . S
C456 H443 0.930 . S
C456 C455 1.388 . S
C456 C457 1.390 . S
C457 C456 1.390 . S
C457 C458 1.394 . S
C457 C463 1.465 . S
C458 C453 1.399 . S
C458 C457 1.394 . S
C458 C459 1.516 . S
C459 C458 1.516 . S
C459 C460 1.502 . S
C459 C461 1.561 . S
C459 C462 1.526 . S
C460 H444 0.959 . S
C460 H445 0.959 . S
C460 H446 0.961 . S
C460 C459 1.502 . S
C461 H447 0.960 1_554 S
C461 H448 0.961 . S
C461 H449 0.959 1_554 S
C461 C459 1.561 . S
C462 C459 1.526 . S
C462 C463 1.396 . S
C462 C467 1.390 . S
C463 C457 1.465 . S
C463 C462 1.396 . S
C463 C464 1.399 . S
C464 H450 0.929 . S
C464 C463 1.399 . S
C464 C465 1.385 . S
C465 H451 0.931 . S
C465 C464 1.385 . S
C465 C466 1.389 . S
C466 C465 1.389 . S
C466 C467 1.387 . S
C467 H452 0.930 . S
C467 C462 1.390 . S
C467 C466 1.387 . S
H468 C480 0.930 . S
H469 C482 0.930 . S
H470 C483 0.930 . S
H471 C487 0.959 . S
H472 C487 0.959 . S
H473 C487 0.961 . S
H474 C488 0.960 . S
H475 C488 0.961 . S
H476 C488 0.959 . S
H477 C491 0.929 1_556 S
H478 C492 0.931 1_556 S
H479 C494 0.930 . S
C480 H468 0.930 . S
C480 C481 1.399 . S
C480 C485 1.399 . S
C481 C480 1.399 . S
C481 C482 1.376 . S
C482 H469 0.930 . S
C482 C481 1.376 . S
C482 C483 1.388 . S
C483 H470 0.930 . S
C483 C482 1.388 . S
C483 C484 1.390 . S
C484 C483 1.390 . S
C484 C485 1.394 . S
C484 C490 1.465 . S
C485 C480 1.399 . S
C485 C484 1.394 . S
C485 C486 1.516 . S
C486 C485 1.516 . S
C486 C487 1.502 . S
C486 C488 1.561 . S
C486 C489 1.526 . S
C487 H471 0.959 . S
C487 H472 0.959 . S
C487 H473 0.961 . S
C487 C486 1.502 . S
C488 H474 0.960 . S
C488 H475 0.961 . S
C488 H476 0.959 . S
C488 C486 1.561 . S
C489 C486 1.526 . S
C489 C490 1.396 . S
C489 C494 1.390 . S
C490 C484 1.465 . S
C490 C489 1.396 . S
C490 C491 1.399 . S
C491 H477 0.929 1_554 S
C491 C490 1.399 . S
C491 C492 1.385 . S
C492 H478 0.931 1_554 S
C492 C491 1.385 . S
C492 C493 1.389 . S
C493 C492 1.389 . S
C493 C494 1.387 . S
C494 H479 0.930 . S
C494 C489 1.390 . S
C494 C493 1.387 . S
H495 C507 0.930 . S
H496 C509 0.930 . S
H497 C510 0.930 . S
H498 C514 0.959 . S
H499 C514 0.959 . S
H500 C514 0.961 . S
H501 C515 0.960 . S
H502 C515 0.961 . S
H503 C515 0.959 . S
H504 C518 0.929 . S
H505 C519 0.931 1_545 S
H506 C521 0.930 . S
C507 H495 0.930 . S
C507 C508 1.399 1_655 S
C507 C512 1.399 . S
C508 C507 1.399 1_455 S
C508 C509 1.376 . S
C509 H496 0.930 . S
C509 C508 1.376 . S
C509 C510 1.388 1_455 S
C510 H497 0.930 . S
C510 C509 1.388 1_655 S
C510 C511 1.390 . S
C511 C510 1.390 . S
C511 C512 1.394 . S
C511 C517 1.465 . S
C512 C507 1.399 . S
C512 C511 1.394 . S
C512 C513 1.516 . S
C513 C512 1.516 . S
C513 C514 1.502 . S
C513 C515 1.561 . S
C513 C516 1.526 . S
C514 H498 0.959 . S
C514 H499 0.959 . S
C514 H500 0.961 . S
C514 C513 1.502 . S
C515 H501 0.960 . S
C515 H502 0.961 . S
C515 H503 0.959 . S
C515 C513 1.561 . S
C516 C513 1.526 . S
C516 C517 1.396 . S
C516 C521 1.390 . S
C517 C511 1.465 . S
C517 C516 1.396 . S
C517 C518 1.399 . S
C518 H504 0.929 . S
C518 C517 1.399 . S
C518 C519 1.385 . S
C519 H505 0.931 1_565 S
C519 C518 1.385 . S
C519 C520 1.389 . S
C520 C519 1.389 . S
C520 C521 1.387 . S
C521 H506 0.930 . S
C521 C516 1.390 . S
C521 C520 1.387 . S
H522 C534 0.930 . S
H523 C536 0.930 . S
H524 C537 0.930 . S
H525 C541 0.959 . S
H526 C541 0.959 1_655 S
H527 C541 0.961 . S
H528 C542 0.960 . S
H529 C542 0.961 . S
H530 C542 0.959 . S
H531 C545 0.929 . S
H532 C546 0.941 . S
H533 C548 0.930 . S
C534 H522 0.930 . S
C534 C535 1.399 . S
C534 C539 1.399 . S
C535 C534 1.399 . S
C535 C536 1.376 . S
C536 H523 0.930 . S
C536 C535 1.376 . S
C536 C537 1.388 . S
C537 H524 0.930 . S
C537 C536 1.388 . S
C537 C538 1.390 . S
C538 C537 1.390 . S
C538 C539 1.394 . S
C538 C544 1.465 . S
C539 C534 1.399 . S
C539 C538 1.394 . S
C539 C540 1.516 . S
C540 C539 1.516 . S
C540 C541 1.502 . S
C540 C542 1.561 . S
C540 C543 1.526 . S
C541 H525 0.959 . S
C541 H526 0.959 1_455 S
C541 H527 0.961 . S
C541 C540 1.502 . S
C542 H528 0.960 . S
C542 H529 0.961 . S
C542 H530 0.959 . S
C542 C540 1.561 . S
C543 C540 1.526 . S
C543 C544 1.396 . S
C543 C548 1.390 . S
C544 C538 1.465 . S
C544 C543 1.396 . S
C544 C545 1.399 . S
C545 H531 0.929 . S
C545 C544 1.399 . S
C545 C546 1.385 . S
C546 H532 0.941 . S
C546 C545 1.385 . S
C546 C547 1.389 . S
C547 C546 1.389 . S
C547 C548 1.387 . S
C548 H533 0.930 . S
C548 C543 1.390 . S
C548 C547 1.387 . S
H549 C561 0.930 . S
H550 C563 0.930 . S
H551 C564 0.930 . S
H552 C568 0.959 . S
H553 C568 0.959 . S
H554 C568 0.961 . S
H555 C569 0.960 . S
H556 C569 0.961 . S
H557 C569 0.959 . S
H558 C572 0.929 . S
H559 C573 0.931 1_565 S
H560 C575 0.930 1_556 S
C561 H549 0.930 . S
C561 C562 1.399 . S
C561 C566 1.399 . S
C562 C561 1.399 . S
C562 C563 1.376 . S
C563 H550 0.930 . S
C563 C562 1.376 . S
C563 C564 1.388 . S
C564 H551 0.930 . S
C564 C563 1.388 . S
C564 C565 1.390 . S
C565 C564 1.390 . S
C565 C566 1.394 . S
C565 C571 1.465 . S
C566 C561 1.399 . S
C566 C565 1.394 . S
C566 C567 1.516 . S
C567 C566 1.516 . S
C567 C568 1.502 . S
C567 C569 1.561 1_554 S
C567 C570 1.526 . S
C568 H552 0.959 . S
C568 H553 0.959 . S
C568 H554 0.961 . S
C568 C567 1.502 . S
C569 H555 0.960 . S
C569 H556 0.961 . S
C569 H557 0.959 . S
C569 C567 1.561 1_556 S
C570 C567 1.526 . S
C570 C571 1.396 . S
C570 C575 1.390 . S
C571 C565 1.465 . S
C571 C570 1.396 . S
C571 C572 1.399 . S
C572 H558 0.929 . S
C572 C571 1.399 . S
C572 C573 1.385 . S
C573 H559 0.931 1_545 S
C573 C572 1.385 . S
C573 C574 1.389 . S
C574 C573 1.389 . S
C574 C575 1.387 . S
C575 H560 0.930 1_554 S
C575 C570 1.390 . S
C575 C574 1.387 . S
H576 C588 0.930 . S
H577 C590 0.930 . S
H578 C591 0.930 . S
H579 C595 0.959 . S
H580 C595 0.959 . S
H581 C595 0.961 . S
H582 C596 0.960 . S
H583 C596 0.963 . S
H584 C596 0.959 . S
H585 C599 0.929 . S
H586 C600 0.931 . S
H587 C602 0.930 . S
C588 H576 0.930 . S
C588 C589 1.399 . S
C588 C593 1.399 . S
C589 C588 1.399 . S
C589 C590 1.376 . S
C590 H577 0.930 . S
C590 C589 1.376 . S
C590 C591 1.388 . S
C591 H578 0.930 . S
C591 C590 1.388 . S
C591 C592 1.390 . S
C592 C591 1.390 . S
C592 C593 1.394 . S
C592 C598 1.465 . S
C593 C588 1.399 . S
C593 C592 1.394 . S
C593 C594 1.516 . S
C594 C593 1.516 . S
C594 C595 1.502 . S
C594 C596 1.559 1_554 S
C594 C597 1.526 . S
C595 H579 0.959 . S
C595 H580 0.959 . S
C595 H581 0.961 . S
C595 C594 1.502 . S
C596 H582 0.960 . S
C596 H583 0.963 . S
C596 H584 0.959 . S
C596 C594 1.559 1_556 S
C597 C594 1.526 . S
C597 C598 1.396 . S
C597 C602 1.390 . S
C598 C592 1.465 . S
C598 C597 1.396 . S
C598 C599 1.399 . S
C599 H585 0.929 . S
C599 C598 1.399 . S
C599 C600 1.385 . S
C600 H586 0.931 . S
C600 C599 1.385 . S
C600 C601 1.389 . S
C601 C600 1.389 . S
C601 C602 1.387 . S
C602 H587 0.930 . S
C602 C597 1.390 . S
C602 C601 1.387 . S
C211 C127 1.506 . S
C223 N14 1.423 . S
C238 C140 0.851 . S
C250 C8 0.809 . S
C265 N5 0.518 . S
C277 N170 0.567 . S
C292 N80 1.415 . S
C304 C28 1.550 1_565 S
C319 N179 1.422 . S
C331 C41 1.554 . S
C346 N71 0.716 . S
C358 N47 0.637 . S
C373 C61 0.724 . S
C385 C107 0.763 . S
C400 C160 1.520 . S
C412 N38 1.203 1_655 S
C427 C94 1.490 . S
C439 N113 1.346 1_556 S
C454 C74 0.747 . S
C466 C173 0.748 . S
C481 N137 0.656 . S
C493 N104 0.564 . S
C508 C193 1.536 . S
C520 N146 1.384 1_565 S
C535 C50 1.247 . S
C547 C17 1.168 . S
C562 C149 1.030 . S
C574 C83 1.095 . S
C589 C182 1.132 . S
C601 C116 1.023 . S
