# Generated by pormake.
# Topology una, (4)-cn, num edge types: 1
# Building blocks:
#     Node 0, Type 0, BuildingBlock: KUFVIS_clean_sbu_0, # of connection points: 4
#     Node 1, Type 0, BuildingBlock: KUFVIS_clean_sbu_0, # of connection points: 4
#     Node 2, Type 0, BuildingBlock: KUFVIS_clean_sbu_0, # of connection points: 4
#     Node 3, Type 0, BuildingBlock: KUFVIS_clean_sbu_0, # of connection points: 4
#     Node 4, Type 0, BuildingBlock: KUFVIS_clean_sbu_0, # of connection points: 4
#     Node 5, Type 0, BuildingBlock: KUFVIS_clean_sbu_0, # of connection points: 4
#     Node 6, Type 0, BuildingBlock: KUFVIS_clean_sbu_0, # of connection points: 4
#     Node 7, Type 0, BuildingBlock: KUFVIS_clean_sbu_0, # of connection points: 4
#     Node 8, Type 0, BuildingBlock: KUFVIS_clean_sbu_0, # of connection points: 4
#     Node 9, Type 0, BuildingBlock: KUFVIS_clean_sbu_0, # of connection points: 4
#     Node 10, Type 0, BuildingBlock: KUFVIS_clean_sbu_0, # of connection points: 4
#     Node 11, Type 0, BuildingBlock: KUFVIS_clean_sbu_0, # of connection points: 4
#     Edge 12, Type (0, 0), BuildingBlock: EZIPEK_clean_linker_0, # of connection points: 2
#     Edge 13, Type (0, 0), BuildingBlock: EZIPEK_clean_linker_0, # of connection points: 2
#     Edge 14, Type (0, 0), BuildingBlock: EZIPEK_clean_linker_0, # of connection points: 2
#     Edge 15, Type (0, 0), BuildingBlock: EZIPEK_clean_linker_0, # of connection points: 2
#     Edge 16, Type (0, 0), BuildingBlock: EZIPEK_clean_linker_0, # of connection points: 2
#     Edge 17, Type (0, 0), BuildingBlock: EZIPEK_clean_linker_0, # of connection points: 2
#     Edge 18, Type (0, 0), BuildingBlock: EZIPEK_clean_linker_0, # of connection points: 2
#     Edge 19, Type (0, 0), BuildingBlock: EZIPEK_clean_linker_0, # of connection points: 2
#     Edge 20, Type (0, 0), BuildingBlock: EZIPEK_clean_linker_0, # of connection points: 2
#     Edge 21, Type (0, 0), BuildingBlock: EZIPEK_clean_linker_0, # of connection points: 2
#     Edge 22, Type (0, 0), BuildingBlock: EZIPEK_clean_linker_0, # of connection points: 2
#     Edge 23, Type (0, 0), BuildingBlock: EZIPEK_clean_linker_0, # of connection points: 2
#     Edge 24, Type (0, 0), BuildingBlock: EZIPEK_clean_linker_0, # of connection points: 2
#     Edge 25, Type (0, 0), BuildingBlock: EZIPEK_clean_linker_0, # of connection points: 2
#     Edge 26, Type (0, 0), BuildingBlock: EZIPEK_clean_linker_0, # of connection points: 2
#     Edge 27, Type (0, 0), BuildingBlock: EZIPEK_clean_linker_0, # of connection points: 2
#     Edge 28, Type (0, 0), BuildingBlock: EZIPEK_clean_linker_0, # of connection points: 2
#     Edge 29, Type (0, 0), BuildingBlock: EZIPEK_clean_linker_0, # of connection points: 2
#     Edge 30, Type (0, 0), BuildingBlock: EZIPEK_clean_linker_0, # of connection points: 2
#     Edge 31, Type (0, 0), BuildingBlock: EZIPEK_clean_linker_0, # of connection points: 2
#     Edge 32, Type (0, 0), BuildingBlock: EZIPEK_clean_linker_0, # of connection points: 2
#     Edge 33, Type (0, 0), BuildingBlock: EZIPEK_clean_linker_0, # of connection points: 2
#     Edge 34, Type (0, 0), BuildingBlock: EZIPEK_clean_linker_0, # of connection points: 2
#     Edge 35, Type (0, 0), BuildingBlock: EZIPEK_clean_linker_0, # of connection points: 2
# Relax obj value: 0.032
# Max RMSD: 0.075
# Mean RMSD: 0.075
data_MOF--net-una--node1-KUFVIS_clean_sbu_0--edge1-EZIPEK_clean_linker_0
_symmetry_space_group_name_H-M    P1
_symmetry_Int_Tables_number       1
_symmetry_cell_setting            triclinic
loop_
_symmetry_equiv_pos_as_xyz
'x, y, z'
_cell_length_a     42.415745
_cell_length_b     42.421866
_cell_length_c     16.153242
_cell_angle_alpha  89.834846
_cell_angle_beta   90.142823
_cell_angle_gamma 119.93826
loop_
_atom_site_label
_atom_site_type_symbol
_atom_site_fract_x
_atom_site_fract_y
_atom_site_fract_z
_atom_type_partial_charge
Mn0 Mn 0.15025 0.44217 0.04059 0.0
Mn1 Mn 0.13881 0.4802 0.86506 0.0
C2 C 0.17426 0.43686 0.91729 0.0
C3 C 0.185 0.44584 0.1588 0.0
C4 C 0.07894 0.40981 0.93964 0.0
O5 O 0.13677 0.47856 0.08533 0.0
O6 O 0.13194 0.50367 0.96547 0.0
C7 C 0.19889 0.55666 0.87538 0.0
N8 N 0.182 0.52428 0.83459 0.0
C9 C 0.21926 0.55143 0.71389 0.0
C10 C 0.23762 0.58475 0.75567 0.0
C11 C 0.22744 0.58733 0.8369 0.0
C12 C 0.19148 0.52161 0.75611 0.0
H13 H 0.19013 0.55932 0.93601 0.0
C14 C 0.13166 0.50151 0.04481 0.0
O15 O 0.15033 0.42269 0.1544 0.0
O16 O 0.19891 0.46795 0.09676 0.0
N17 N 0.14608 0.46094 0.76427 0.0
C18 C 0.12706 0.42651 0.73399 0.0
C19 C 0.13537 0.41876 0.65523 0.0
C20 C 0.16263 0.44674 0.60744 0.0
C21 C 0.18163 0.48213 0.63941 0.0
C22 C 0.17276 0.48795 0.71926 0.0
H23 H 0.1059 0.40524 0.76991 0.0
O24 O 0.16759 0.41404 0.97746 0.0
O25 O 0.16595 0.46217 0.93025 0.0
O26 O 0.09702 0.40803 1.00145 0.0
O27 O 0.09224 0.43551 0.88665 0.0
C28 C 0.20907 0.51183 0.59527 0.0
C29 C 0.22761 0.54657 0.63216 0.0
H30 H 0.25942 0.60854 0.72586 0.0
H31 H 0.24112 0.61307 0.86922 0.0
H32 H 0.12054 0.39134 0.63111 0.0
H33 H 0.16876 0.44076 0.54636 0.0
H34 H 0.21632 0.50821 0.53317 0.0
H35 H 0.24884 0.56915 0.59789 0.0
Mn36 Mn 0.7056 0.14739 0.21423 0.0
Mn37 Mn 0.65779 0.13747 0.03696 0.0
C38 C 0.73571 0.17085 0.09098 0.0
C39 C 0.73765 0.18239 0.33173 0.0
C40 C 0.66584 0.07646 0.11317 0.0
O41 O 0.65574 0.13573 0.25693 0.0
O42 O 0.62725 0.13188 0.13539 0.0
C43 C 0.64498 0.19996 0.04544 0.0
N44 N 0.65867 0.18131 1.00484 0.0
C45 C 0.66909 0.21737 0.88177 0.0
C46 C 0.65538 0.23714 0.92253 0.0
C47 C 0.64354 0.22856 1.00493 0.0
C48 C 0.67049 0.18961 0.92581 0.0
H49 H 0.6349 0.19284 0.10791 0.0
C50 C 0.62832 0.13152 0.21469 0.0
O51 O 0.72481 0.14744 0.32882 0.0
O52 O 0.72985 0.19638 0.26911 0.0
N53 N 0.68456 0.14334 0.93744 0.0
C54 C 0.6993 0.12332 0.90915 0.0
C55 C 0.71527 0.1306 0.83023 0.0
C56 C 0.71505 0.15771 0.78045 0.0
C57 C 0.6993 0.17765 0.81054 0.0
C58 C 0.68471 0.16985 0.89055 0.0
H59 H 0.69896 0.10207 0.94666 0.0
O60 O 0.75117 0.1634 0.15143 0.0
O61 O 0.70239 0.16338 0.10344 0.0
O62 O 0.68497 0.09357 0.17654 0.0
O63 O 0.65427 0.09054 0.06025 0.0
C64 C 0.69757 0.20502 0.76443 0.0
C65 C 0.68209 0.22458 0.79968 0.0
H66 H 0.65399 0.25905 0.89132 0.0
H67 H 0.63285 0.24364 0.03675 0.0
H68 H 0.72735 0.11507 0.80745 0.0
H69 H 0.72706 0.163 0.71927 0.0
H70 H 0.70836 0.21146 0.7021 0.0
H71 H 0.68125 0.24581 0.76397 0.0
Mn72 Mn 0.56328 0.70696 0.3858 0.0
Mn73 Mn 0.52704 0.66299 0.20439 0.0
C74 C 0.57058 0.73971 0.26565 0.0
C75 C 0.5584 0.73595 0.50663 0.0
C76 C 0.59546 0.66928 0.28117 0.0
O77 O 0.52499 0.65591 0.42329 0.0
O78 O 0.50039 0.63069 0.29936 0.0
C79 C 0.45202 0.65095 0.20927 0.0
N80 N 0.48493 0.66516 0.17098 0.0
C81 C 0.46137 0.67793 0.04748 0.0
C82 C 0.4273 0.66366 0.08581 0.0
C83 C 0.42271 0.6504 0.1673 0.0
C84 C 0.48975 0.67843 0.09297 0.0
H85 H 0.44808 0.6398 0.27102 0.0
C86 C 0.50148 0.62977 0.37861 0.0
O87 O 0.58111 0.72385 0.50223 0.0
O88 O 0.53719 0.7292 0.4434 0.0
N89 N 0.54971 0.69172 0.10804 0.0
C90 C 0.58489 0.70683 0.08245 0.0
C91 C 0.59492 0.72438 0.00521 0.0
C92 C 0.56851 0.7254 0.95432 0.0
C93 C 0.53239 0.70928 0.98168 0.0
C94 C 0.52424 0.69309 0.06019 0.0
H95 H 0.60514 0.70561 0.12084 0.0
O96 O 0.59289 0.75413 0.32738 0.0
O97 O 0.54508 0.70607 0.27515 0.0
O98 O 0.59755 0.68786 0.34555 0.0
O99 O 0.56973 0.65835 0.22866 0.0
C100 C 0.50415 0.70869 0.93426 0.0
C101 C 0.46856 0.69262 0.96674 0.0
H102 H 0.40458 0.66302 0.05352 0.0
H103 H 0.3965 0.63934 0.19728 0.0
H104 H 0.62285 0.73676 0.98456 0.0
H105 H 0.57627 0.73863 0.89442 0.0
H106 H 0.50956 0.72077 0.87304 0.0
H107 H 0.44716 0.69266 0.93008 0.0
Mn108 Mn 0.86246 0.56216 0.55169 0.0
Mn109 Mn 0.8651 0.51994 0.37491 0.0
C110 C 0.83827 0.56994 0.42987 0.0
C111 C 0.82948 0.56093 0.67196 0.0
C112 C 0.93098 0.58707 0.44339 0.0
O113 O 0.87173 0.52271 0.59524 0.0
O114 O 0.87134 0.49541 0.47464 0.0
C115 C 0.80072 0.4462 0.39043 0.0
N116 N 0.8195 0.47804 0.34794 0.0
C117 C 0.78148 0.452 0.22774 0.0
C118 C 0.76124 0.41926 0.27112 0.0
C119 C 0.77079 0.41642 0.35299 0.0
C120 C 0.81045 0.48104 0.26906 0.0
H121 H 0.80896 0.44331 0.45164 0.0
C122 C 0.87372 0.49821 0.55388 0.0
O123 O 0.86457 0.5821 0.66688 0.0
O124 O 0.81418 0.53983 0.60932 0.0
N125 N 0.85879 0.54043 0.27486 0.0
C126 C 0.87971 0.57458 0.24355 0.0
C127 C 0.87203 0.58278 0.16434 0.0
C128 C 0.84362 0.55555 0.11731 0.0
C129 C 0.82277 0.52049 0.15049 0.0
C130 C 0.83097 0.51426 0.23078 0.0
H131 H 0.90199 0.5954 0.27892 0.0
O132 O 0.84829 0.59356 0.48928 0.0
O133 O 0.84342 0.54252 0.44256 0.0
O134 O 0.91656 0.59158 0.50911 0.0
O135 O 0.91304 0.56182 0.39171 0.0
C136 C 0.79414 0.4915 0.10716 0.0
C137 C 0.77375 0.45716 0.14546 0.0
H138 H 0.73837 0.39611 0.24214 0.0
H139 H 0.75559 0.3911 0.38658 0.0
H140 H 0.88825 0.60991 0.13919 0.0
H141 H 0.83805 0.56186 0.05584 0.0
H142 H 0.78736 0.49541 0.0447 0.0
H143 H 0.75158 0.43518 0.11186 0.0
Mn144 Mn 0.29772 0.85469 0.70192 0.0
Mn145 Mn 0.35233 0.86744 0.53707 0.0
C146 C 0.27189 0.8314 0.57434 0.0
C147 C 0.26441 0.81937 0.81608 0.0
C148 C 0.33971 0.92684 0.6062 0.0
O149 O 0.34643 0.86831 0.75557 0.0
O150 O 0.37903 0.87203 0.64182 0.0
C151 C 0.36407 0.80441 0.55326 0.0
N152 N 0.3525 0.82385 0.50794 0.0
C153 C 0.34575 0.78843 0.38612 0.0
C154 C 0.35717 0.76776 0.43175 0.0
C155 C 0.36612 0.77562 0.51586 0.0
C156 C 0.34329 0.81612 0.42733 0.0
H157 H 0.37194 0.81099 0.61719 0.0
C158 C 0.37523 0.87259 0.72032 0.0
O159 O 0.27523 0.85387 0.8118 0.0
O160 O 0.27403 0.80572 0.75631 0.0
N161 N 0.33 0.86302 0.43177 0.0
C162 C 0.31922 0.88533 0.39694 0.0
C163 C 0.30964 0.88147 0.31306 0.0
C164 C 0.31184 0.85506 0.26548 0.0
C165 C 0.32237 0.83182 0.30281 0.0
C166 C 0.3314 0.83691 0.38697 0.0
H167 H 0.31895 0.90651 0.43233 0.0
O168 O 0.25404 0.83745 0.6313 0.0
O169 O 0.30507 0.83984 0.59332 0.0
O170 O 0.31724 0.90806 0.66349 0.0
O171 O 0.35472 0.91428 0.55863 0.0
C172 C 0.32535 0.8046 0.25956 0.0
C173 C 0.33687 0.78281 0.30127 0.0
H174 H 0.3593 0.74589 0.4028 0.0
H175 H 0.37514 0.75991 0.55142 0.0
H176 H 0.30163 0.89953 0.28457 0.0
H177 H 0.30632 0.85378 0.20006 0.0
H178 H 0.31899 0.80021 0.19422 0.0
H179 H 0.33884 0.76183 0.2675 0.0
Mn180 Mn 0.44995 0.30231 0.88651 0.0
Mn181 Mn 0.49436 0.35155 0.71545 0.0
C182 C 0.44485 0.27313 0.7629 0.0
C183 C 0.45007 0.26878 1.0046 0.0
C184 C 0.42572 0.34764 0.78305 0.0
O185 O 0.48804 0.35059 0.93451 0.0
O186 O 0.51914 0.37947 0.81838 0.0
C187 C 0.56838 0.36104 0.72298 0.0
N188 N 0.53579 0.34772 0.68364 0.0
C189 C 0.56019 0.3362 0.56004 0.0
C190 C 0.5935 0.34843 0.60075 0.0
C191 C 0.59759 0.36087 0.68265 0.0
C192 C 0.53179 0.3362 0.60419 0.0
H193 H 0.57239 0.3727 0.78357 0.0
C194 C 0.51429 0.37739 0.8973 0.0
O195 O 0.42844 0.2822 0.99932 0.0
O196 O 0.47239 0.27625 0.9436 0.0
N197 N 0.47301 0.32668 0.614 0.0
C198 C 0.43861 0.31416 0.58483 0.0
C199 C 0.42936 0.29879 0.50542 0.0
C200 C 0.45577 0.29719 0.45614 0.0
C201 C 0.49104 0.31045 0.48731 0.0
C202 C 0.49834 0.32447 0.56787 0.0
H203 H 0.41831 0.31571 0.62204 0.0
O204 O 0.42049 0.2579 0.82048 0.0
O205 O 0.47149 0.30575 0.77851 0.0
O206 O 0.41946 0.32578 0.84406 0.0
O207 O 0.45318 0.35865 0.73604 0.0
C208 C 0.51924 0.31035 0.44163 0.0
C209 C 0.55395 0.32369 0.47757 0.0
H210 H 0.61621 0.34871 0.56948 0.0
H211 H 0.62346 0.37112 0.71396 0.0
H212 H 0.40205 0.28854 0.48192 0.0
H213 H 0.44866 0.2857 0.39453 0.0
H214 H 0.5145 0.29996 0.37892 0.0
H215 H 0.5754 0.32338 0.44195 0.0
Mn216 Mn 0.55683 0.85954 0.8964 0.0
Mn217 Mn 0.51545 0.86198 0.07473 0.0
C218 C 0.56493 0.83491 0.0169 0.0
C219 C 0.55573 0.82749 0.77517 0.0
C220 C 0.58329 0.92745 0.00711 0.0
O221 O 0.51746 0.86937 0.85454 0.0
O222 O 0.4909 0.86914 0.97609 0.0
C223 C 0.44133 0.7982 0.05851 0.0
N224 N 0.47323 0.81648 0.10096 0.0
C225 C 0.44702 0.77777 0.22016 0.0
C226 C 0.41416 0.75812 0.17689 0.0
C227 C 0.41139 0.76827 0.09554 0.0
C228 C 0.47619 0.80684 0.17932 0.0
H229 H 0.43851 0.80687 0.99768 0.0
C230 C 0.49327 0.87158 0.8968 0.0
O231 O 0.5768 0.86255 0.78121 0.0
O232 O 0.53434 0.81169 0.83722 0.0
N233 N 0.53581 0.8548 0.17403 0.0
C234 C 0.56997 0.87537 0.20557 0.0
C235 C 0.57804 0.86715 0.28435 0.0
C236 C 0.55066 0.83862 0.33086 0.0
C237 C 0.51557 0.81819 0.29757 0.0
C238 C 0.50947 0.82689 0.21765 0.0
H239 H 0.59092 0.89777 0.1707 0.0
O240 O 0.58821 0.84489 0.95678 0.0
O241 O 0.5374 0.84005 0.00554 0.0
O242 O 0.58692 0.91318 0.94027 0.0
O243 O 0.55792 0.90971 0.05877 0.0
C244 C 0.48643 0.7895 0.34045 0.0
C245 C 0.45207 0.76952 0.30206 0.0
H246 H 0.39087 0.7353 0.20562 0.0
H247 H 0.38598 0.75352 0.06205 0.0
H248 H 0.60518 0.88307 0.3096 0.0
H249 H 0.55687 0.83264 0.39202 0.0
H250 H 0.49024 0.78234 0.40264 0.0
H251 H 0.42995 0.74733 0.33535 0.0
Mn252 Mn 0.70629 0.56271 0.06339 0.0
Mn253 Mn 0.66411 0.52492 0.24591 0.0
C254 C 0.74018 0.57114 0.18242 0.0
C255 C 0.73578 0.5595 0.94115 0.0
C256 C 0.66742 0.59259 0.17184 0.0
O257 O 0.65556 0.52304 0.02694 0.0
O258 O 0.63169 0.49806 0.15143 0.0
C259 C 0.65406 0.4507 0.2379 0.0
N260 N 0.66754 0.48329 0.27729 0.0
C261 C 0.68019 0.45934 0.40034 0.0
C262 C 0.66669 0.42562 0.36087 0.0
C263 C 0.65389 0.4214 0.27904 0.0
C264 C 0.68044 0.48778 0.35558 0.0
H265 H 0.64318 0.44699 0.17595 0.0
C266 C 0.63009 0.499 0.07232 0.0
O267 O 0.72243 0.58114 0.94663 0.0
O268 O 0.7299 0.53828 1.00395 0.0
N269 N 0.69284 0.54751 0.34222 0.0
C270 C 0.70735 0.58248 0.36883 0.0
C271 C 0.72453 0.59224 0.44649 0.0
C272 C 0.72568 0.56574 0.49682 0.0
C273 C 0.71014 0.52982 0.46842 0.0
C274 C 0.69443 0.52199 0.38944 0.0
H275 H 0.7059 0.60275 0.33095 0.0
O276 O 0.75348 0.59361 0.12063 0.0
O277 O 0.70694 0.54461 0.17368 0.0
O278 O 0.68547 0.59539 0.10586 0.0
O279 O 0.65822 0.56697 0.22411 0.0
C280 C 0.70967 0.50149 0.51523 0.0
C281 C 0.69431 0.46616 0.48159 0.0
H282 H 0.66628 0.40287 0.39257 0.0
H283 H 0.64341 0.39545 0.24819 0.0
H284 H 0.73644 0.62001 0.46798 0.0
H285 H 0.73856 0.57327 0.5571 0.0
H286 H 0.72136 0.50664 0.57683 0.0
H287 H 0.69448 0.4447 0.51775 0.0
Mn288 Mn 0.14567 0.69719 0.211 0.0
Mn289 Mn 0.1443 0.65501 0.39056 0.0
C290 C 0.1757 0.73166 0.32618 0.0
C291 C 0.17563 0.7247 0.08575 0.0
C292 C 0.08005 0.66185 0.32852 0.0
O293 O 0.13007 0.64546 0.17373 0.0
O294 O 0.13514 0.62177 0.29523 0.0
C295 C 0.20738 0.64377 0.36921 0.0
N296 N 0.18987 0.65776 0.41328 0.0
C297 C 0.23128 0.67216 0.52772 0.0
C298 C 0.24994 0.65823 0.48322 0.0
C299 C 0.2381 0.64424 0.40332 0.0
C300 C 0.20144 0.67186 0.48958 0.0
H301 H 0.1977 0.6319 0.30903 0.0
C302 C 0.12961 0.61991 0.21692 0.0
O303 O 0.14142 0.71419 0.09691 0.0
O304 O 0.19104 0.7163 0.14416 0.0
N305 N 0.15378 0.6842 0.48746 0.0
C306 C 0.1339 0.69825 0.52041 0.0
C307 C 0.1434 0.715 0.5984 0.0
C308 C 0.17264 0.71629 0.64234 0.0
C309 C 0.19265 0.70163 0.60731 0.0
C310 C 0.18246 0.68606 0.52862 0.0
H311 H 0.11083 0.69643 0.48772 0.0
O312 O 0.16618 0.74525 0.26571 0.0
O313 O 0.16727 0.69778 0.31782 0.0
O314 O 0.09466 0.68027 0.26259 0.0
O315 O 0.09599 0.65024 0.3764 0.0
C316 C 0.2221 0.70157 0.64776 0.0
C317 C 0.24127 0.68661 0.6082 0.0
H318 H 0.27338 0.65814 0.50975 0.0
H319 H 0.25225 0.63327 0.36869 0.0
H320 H 0.12783 0.72627 0.62527 0.0
H321 H 0.17938 0.72824 0.70323 0.0
H322 H 0.23041 0.7132 0.709 0.0
H323 H 0.2641 0.68704 0.63948 0.0
Mn324 Mn 0.44798 0.14565 0.40031 0.0
Mn325 Mn 0.49465 0.14653 0.57071 0.0
C326 C 0.44521 0.17541 0.51608 0.0
C327 C 0.44857 0.17497 0.27426 0.0
C328 C 0.42462 0.07948 0.51497 0.0
O329 O 0.48384 0.13062 0.35832 0.0
O330 O 0.5199 0.14256 0.47107 0.0
C331 C 0.56769 0.21203 0.55997 0.0
N332 N 0.53543 0.1925 0.60039 0.0
C333 C 0.56016 0.22875 0.72341 0.0
C334 C 0.5933 0.24977 0.68216 0.0
C335 C 0.597 0.24147 0.59994 0.0
C336 C 0.53171 0.20014 0.67985 0.0
H337 H 0.57129 0.20472 0.49845 0.0
C338 C 0.51237 0.13439 0.39441 0.0
O339 O 0.42553 0.14061 0.28656 0.0
O340 O 0.47207 0.19119 0.33249 0.0
N341 N 0.47265 0.15155 0.66981 0.0
C342 C 0.43733 0.13268 0.69526 0.0
C343 C 0.4279 0.13998 0.77327 0.0
C344 C 0.4548 0.16678 0.82407 0.0
C345 C 0.49066 0.18687 0.79513 0.0
C346 C 0.4982 0.17891 0.71603 0.0
H347 H 0.41656 0.11221 0.65618 0.0
O348 O 0.4209 0.16559 0.45816 0.0
O349 O 0.47111 0.16782 0.50389 0.0
O350 O 0.41582 0.09489 0.45785 0.0
O351 O 0.45502 0.09665 0.55148 0.0
C352 C 0.51904 0.21503 0.84082 0.0
C353 C 0.55396 0.2356 0.80544 0.0
H354 H 0.61604 0.27235 0.71297 0.0
H355 H 0.62263 0.25728 0.56796 0.0
H356 H 0.39998 0.12493 0.79426 0.0
H357 H 0.44748 0.17223 0.88439 0.0
H358 H 0.51417 0.22151 0.90261 0.0
H359 H 0.57546 0.25749 0.8407 0.0
Mn360 Mn 0.30701 0.44567 0.55405 0.0
Mn361 Mn 0.35094 0.48943 0.73018 0.0
C362 C 0.27416 0.43902 0.67276 0.0
C363 C 0.27704 0.44656 0.43082 0.0
C364 C 0.35073 0.42213 0.66499 0.0
O365 O 0.35627 0.48449 0.51231 0.0
O366 O 0.38122 0.51573 0.63073 0.0
C367 C 0.35819 0.5625 0.72146 0.0
N368 N 0.34461 0.52962 0.75968 0.0
C369 C 0.32856 0.55199 0.8802 0.0
C370 C 0.34103 0.58554 0.84038 0.0
C371 C 0.35587 0.59078 0.76059 0.0
C372 C 0.33073 0.5245 0.83714 0.0
H373 H 0.37173 0.56748 0.66287 0.0
C374 C 0.38148 0.51115 0.55198 0.0
O375 O 0.29051 0.42508 0.43917 0.0
O376 O 0.28235 0.46822 0.49202 0.0
N377 N 0.32366 0.46665 0.82832 0.0
C378 C 0.31149 0.43222 0.85691 0.0
C379 C 0.29395 0.42186 0.93399 0.0
C380 C 0.28984 0.4472 0.98172 0.0
C381 C 0.30283 0.48254 0.95128 0.0
C382 C 0.31905 0.49095 0.87286 0.0
H383 H 0.31494 0.41274 0.82099 0.0
O384 O 0.26081 0.41511 0.61385 0.0
O385 O 0.30696 0.4661 0.66121 0.0
O386 O 0.33 0.4156 0.60162 0.0
O387 O 0.36011 0.44933 0.7121 0.0
C388 C 0.30037 0.50976 0.9957 0.0
C389 C 0.31369 0.54463 0.96065 0.0
H390 H 0.33966 0.60755 0.8708 0.0
H391 H 0.36634 0.61687 0.73013 0.0
H392 H 0.28395 0.3945 0.95694 0.0
H393 H 0.27668 0.43924 0.0416 0.0
H394 H 0.2882 0.50414 0.05675 0.0
H395 H 0.3116 0.56534 0.9953 0.0
Mn396 Mn 0.86139 0.30254 0.72611 0.0
Mn397 Mn 0.85926 0.34646 0.89842 0.0
C398 C 0.83159 0.26903 0.84114 0.0
C399 C 0.83235 0.27466 0.59935 0.0
C400 C 0.92679 0.3438 0.84466 0.0
O401 O 0.87619 0.3536 0.68516 0.0
O402 O 0.86546 0.37714 0.80005 0.0
C403 C 0.79359 0.35339 0.87869 0.0
N404 N 0.81285 0.34128 0.92289 0.0
C405 C 0.77414 0.32892 0.04166 0.0
C406 C 0.75359 0.34076 0.9969 0.0
C407 C 0.76321 0.35279 0.91486 0.0
C408 C 0.80372 0.32952 1.0018 0.0
H409 H 0.80168 0.36393 0.81685 0.0
C410 C 0.87341 0.37844 0.72324 0.0
O411 O 0.86673 0.28601 0.61175 0.0
O412 O 0.81595 0.2814 0.65793 0.0
N413 N 0.85224 0.31865 0.99746 0.0
C414 C 0.87082 0.30232 0.02611 0.0
C415 C 0.86224 0.28546 0.10422 0.0
C416 C 0.8346 0.28549 0.15194 0.0
C417 C 0.815 0.30135 0.1199 0.0
C418 C 0.82426 0.31698 0.04089 0.0
H419 H 0.89196 0.30214 0.98935 0.0
O420 O 0.84168 0.2551 0.78274 0.0
O421 O 0.83881 0.30245 0.82981 0.0
O422 O 0.91211 0.32116 0.78449 0.0
O423 O 0.90904 0.35581 0.88335 0.0
C424 C 0.78607 0.3015 0.16232 0.0
C425 C 0.76593 0.31571 0.12358 0.0
H426 H 0.73027 0.34053 0.02473 0.0
H427 H 0.74761 0.36216 0.88005 0.0
H428 H 0.87697 0.27258 0.12766 0.0
H429 H 0.82814 0.27259 0.21231 0.0
H430 H 0.77856 0.29002 0.22396 0.0
H431 H 0.74331 0.31506 0.15614 0.0
C432 C 0.2059 0.41258 0.2558 0.0
C433 C 0.20847 0.44572 0.22853 0.0
C434 C 0.26098 0.47908 0.32151 0.0
C435 C 0.25491 0.44582 0.35727 0.0
N436 N 0.21524 0.38072 0.36907 0.0
N437 N 0.23452 0.51039 0.24901 0.0
C438 C 0.22566 0.41247 0.3273 0.0
C439 C 0.23499 0.47898 0.26509 0.0
N440 N 0.18604 0.38132 0.21154 0.0
N441 N 0.29226 0.51077 0.33901 0.0
H442 H 0.21499 0.51132 0.21137 0.0
H443 H 0.25097 0.53466 0.28024 0.0
H444 H 0.31275 0.51183 0.3768 0.0
H445 H 0.29967 0.53521 0.30869 0.0
H446 H 0.18632 0.35737 0.22445 0.0
H447 H 0.1727 0.38026 0.15648 0.0
H448 H 0.19172 0.35645 0.35436 0.0
H449 H 0.22761 0.37925 0.42358 0.0
C450 C 0.78542 0.26067 0.48744 0.0
C451 C 0.81119 0.25295 0.52505 0.0
C452 C 0.79205 0.20184 0.42783 0.0
C453 C 0.76248 0.20606 0.39985 0.0
N454 N 0.72739 0.23621 0.41728 0.0
N455 N 0.83307 0.21037 0.54088 0.0
C456 C 0.75822 0.23466 0.43348 0.0
C457 C 0.81299 0.22199 0.49786 0.0
N458 N 0.78754 0.29344 0.50111 0.0
N459 N 0.80154 0.17997 0.38557 0.0
H460 H 0.84776 0.22311 0.59411 0.0
H461 H 0.83204 0.18577 0.52845 0.0
H462 H 0.78857 0.16629 0.33146 0.0
H463 H 0.82502 0.17884 0.39886 0.0
H464 H 0.77156 0.30185 0.46949 0.0
H465 H 0.80813 0.31387 0.53662 0.0
H466 H 0.72139 0.25445 0.44648 0.0
H467 H 0.7059 0.21667 0.38211 0.0
C468 C 0.59109 0.78961 0.60498 0.0
C469 C 0.5582 0.75897 0.57718 0.0
C470 C 0.52398 0.77786 0.66802 0.0
C471 C 0.55695 0.8055 0.70359 0.0
N472 N 0.62203 0.83134 0.71761 0.0
N473 N 0.49362 0.71996 0.5967 0.0
C474 C 0.59058 0.80968 0.6753 0.0
C475 C 0.5247 0.75202 0.61277 0.0
N476 N 0.62271 0.80091 0.56222 0.0
N477 N 0.49196 0.77699 0.68442 0.0
H478 H 0.49337 0.69963 0.56015 0.0
H479 H 0.46909 0.7119 0.62702 0.0
H480 H 0.49042 0.7963 0.72137 0.0
H481 H 0.46768 0.75962 0.65406 0.0
H482 H 0.64649 0.82522 0.57511 0.0
H483 H 0.62433 0.78832 0.5084 0.0
H484 H 0.6465 0.83223 0.70442 0.0
H485 H 0.62303 0.84536 0.77129 0.0
C486 C 0.7795 0.52776 0.77793 0.0
C487 C 0.80693 0.56122 0.74363 0.0
C488 C 0.78952 0.59389 0.84323 0.0
C489 C 0.7592 0.56047 0.86997 0.0
N490 N 0.72137 0.49593 0.84821 0.0
N491 N 0.83195 0.62624 0.73238 0.0
C492 C 0.75312 0.52749 0.83317 0.0
C493 C 0.8103 0.59435 0.7732 0.0
N494 N 0.77938 0.4962 0.76045 0.0
N495 N 0.79985 0.62512 0.8868 0.0
H496 H 0.84662 0.62792 0.67932 0.0
H497 H 0.8323 0.6504 0.7462 0.0
H498 H 0.78659 0.62607 0.94013 0.0
H499 H 0.82394 0.64929 0.875 0.0
H500 H 0.7622 0.47159 0.78984 0.0
H501 H 0.79912 0.49537 0.72366 0.0
H502 H 0.71386 0.47173 0.81699 0.0
H503 H 0.70072 0.49496 0.88489 0.0
C504 C 0.25744 0.79619 0.96209 0.0
C505 C 0.2414 0.79608 0.88533 0.0
C506 C 0.18277 0.7463 0.93522 0.0
C507 C 0.19776 0.74926 0.01567 0.0
N508 N 0.24739 0.78662 0.1088 0.0
N509 N 0.18675 0.77733 0.80602 0.0
C510 C 0.23462 0.77674 0.03004 0.0
C511 C 0.20341 0.77307 0.87406 0.0
N512 N 0.29444 0.81492 0.97056 0.0
N513 N 0.14986 0.71708 0.9151 0.0
H514 H 0.201 0.79642 0.75978 0.0
H515 H 0.15855 0.7639 0.79913 0.0
H516 H 0.13498 0.69554 0.95564 0.0
H517 H 0.13946 0.71224 0.85504 0.0
H518 H 0.30772 0.81252 0.02254 0.0
H519 H 0.31194 0.83027 0.92274 0.0
H520 H 0.27347 0.80761 0.12105 0.0
H521 H 0.23091 0.77788 0.16117 0.0
C522 C 0.4148 0.19437 0.17334 0.0
C523 C 0.4477 0.19625 0.20032 0.0
C524 C 0.48185 0.2492 0.10869 0.0
C525 C 0.44886 0.24461 0.07455 0.0
N526 N 0.3837 0.20574 0.06139 0.0
N527 N 0.51184 0.22025 0.17633 0.0
C528 C 0.41523 0.21518 0.10313 0.0
C529 C 0.48101 0.22213 0.1627 0.0
N530 N 0.38332 0.17433 0.21675 0.0
N531 N 0.51402 0.28023 0.09283 0.0
H532 H 0.51205 0.19981 0.21202 0.0
H533 H 0.53607 0.23632 0.14452 0.0
H534 H 0.51575 0.30174 0.05785 0.0
H535 H 0.53831 0.2864 0.12236 0.0
H536 H 0.35966 0.17527 0.20445 0.0
H537 H 0.38166 0.15981 0.2702 0.0
H538 H 0.35919 0.18229 0.07498 0.0
H539 H 0.3827 0.21882 0.00762 0.0
C540 C 0.09707 0.52656 0.12032 0.0
C541 C 0.13052 0.53076 0.09197 0.0
C542 C 0.1623 0.59401 0.13905 0.0
C543 C 0.12929 0.58909 0.17296 0.0
N544 N 0.06803 0.54747 0.21721 0.0
N545 N 0.19614 0.56481 0.09655 0.0
C546 C 0.09737 0.55439 0.16989 0.0
C547 C 0.16354 0.56342 0.10787 0.0
N548 N 0.06512 0.49623 0.09963 0.0
N549 N 0.19254 0.62784 0.13637 0.0
H550 H 0.19819 0.54272 0.07514 0.0
H551 H 0.2209 0.58669 0.11551 0.0
H552 H 0.19335 0.6509 0.16119 0.0
H553 H 0.21601 0.63344 0.10408 0.0
H554 H 0.0397 0.4933 0.11209 0.0
H555 H 0.06419 0.47529 0.0641 0.0
H556 H 0.04499 0.52181 0.22243 0.0
H557 H 0.06875 0.56649 0.25884 0.0
C558 C 0.56326 0.09968 0.26382 0.0
C559 C 0.5979 0.13169 0.25899 0.0
C560 C 0.57282 0.16621 0.32515 0.0
C561 C 0.54051 0.13322 0.34309 0.0
N562 N 0.50533 0.06785 0.33531 0.0
N563 N 0.63653 0.19571 0.28878 0.0
C564 C 0.53573 0.09967 0.31391 0.0
C565 C 0.603 0.16503 0.29122 0.0
N566 N 0.55624 0.0698 0.21838 0.0
N567 N 0.57389 0.19868 0.3361 0.0
H568 H 0.659 0.19684 0.25971 0.0
H569 H 0.64262 0.21949 0.32024 0.0
H570 H 0.55159 0.20042 0.35736 0.0
H571 H 0.59541 0.22351 0.31627 0.0
H572 H 0.53055 0.04677 0.21384 0.0
H573 H 0.57528 0.06964 0.17813 0.0
H574 H 0.5022 0.04233 0.32323 0.0
H575 H 0.48432 0.06699 0.37051 0.0
C576 C 0.43768 0.53456 0.46357 0.0
C577 C 0.4111 0.54034 0.50256 0.0
C578 C 0.4433 0.60412 0.45871 0.0
C579 C 0.47026 0.59862 0.42028 0.0
N580 N 0.48571 0.55584 0.36151 0.0
N581 N 0.38095 0.57563 0.5061 0.0
C582 C 0.46537 0.563 0.41542 0.0
C583 C 0.41171 0.57377 0.49165 0.0
N584 N 0.43638 0.50189 0.47195 0.0
N585 N 0.44722 0.63809 0.46185 0.0
H586 H 0.35647 0.55303 0.5243 0.0
H587 H 0.3785 0.59824 0.49146 0.0
H588 H 0.46819 0.66065 0.43215 0.0
H589 H 0.4306 0.64421 0.49777 0.0
H590 H 0.45755 0.4976 0.45434 0.0
H591 H 0.41467 0.47942 0.49998 0.0
H592 H 0.48128 0.52981 0.34989 0.0
H593 H 0.50424 0.57535 0.32104 0.0
C594 C 0.90828 0.47113 0.62166 0.0
C595 C 0.87463 0.46865 0.60042 0.0
C596 C 0.84155 0.40559 0.64824 0.0
C597 C 0.87481 0.40858 0.67457 0.0
N598 N 0.93959 0.44438 0.6946 0.0
N599 N 0.80929 0.43739 0.61357 0.0
C600 C 0.90823 0.44142 0.66337 0.0
C601 C 0.84125 0.43697 0.61944 0.0
N602 N 0.9401 0.50192 0.6022 0.0
N603 N 0.8103 0.3725 0.649 0.0
H604 H 0.80801 0.46021 0.59424 0.0
H605 H 0.78453 0.41633 0.63509 0.0
H606 H 0.80942 0.34876 0.66982 0.0
H607 H 0.78604 0.368 0.62217 0.0
H608 H 0.96562 0.50419 0.60704 0.0
H609 H 0.94079 0.52514 0.57846 0.0
H610 H 0.96436 0.46858 0.69629 0.0
H611 H 0.94044 0.42266 0.72292 0.0
C612 C 0.437 0.90677 0.7871 0.0
C613 C 0.40445 0.87345 0.77216 0.0
C614 C 0.43235 0.83951 0.82869 0.0
C615 C 0.46356 0.87275 0.85116 0.0
N616 N 0.49552 0.93817 0.85727 0.0
N617 N 0.36858 0.80843 0.79142 0.0
C618 C 0.46583 0.9065 0.8322 0.0
C619 C 0.40132 0.83993 0.7972 0.0
N620 N 0.44061 0.93844 0.75624 0.0
N621 N 0.43293 0.80762 0.83377 0.0
H622 H 0.34528 0.80735 0.76701 0.0
H623 H 0.36375 0.78387 0.8172 0.0
H624 H 0.45539 0.80618 0.85535 0.0
H625 H 0.41252 0.78311 0.80963 0.0
H626 H 0.46485 0.9632 0.75722 0.0
H627 H 0.41963 0.93952 0.72492 0.0
H628 H 0.49725 0.96348 0.85379 0.0
H629 H 0.518 0.93885 0.88547 0.0
C630 C 0.57691 0.40919 0.95745 0.0
C631 C 0.54251 0.40666 0.94912 0.0
C632 C 0.56303 0.45949 0.03975 0.0
C633 C 0.59948 0.46684 0.03162 0.0
N634 N 0.64114 0.44717 0.98543 0.0
N635 N 0.50151 0.42821 0.98574 0.0
C636 C 0.60648 0.44135 0.99066 0.0
C637 C 0.53515 0.4315 0.99124 0.0
N638 N 0.58053 0.37965 0.94007 0.0
N639 N 0.55456 0.47752 0.09736 0.0
H640 H 0.47944 0.40597 0.95802 0.0
H641 H 0.49595 0.44828 0.00561 0.0
H642 H 0.57348 0.49523 0.13976 0.0
H643 H 0.52807 0.47134 0.11062 0.0
H644 H 0.60404 0.37849 0.95257 0.0
H645 H 0.55857 0.35478 0.92145 0.0
H646 H 0.64817 0.43174 0.94772 0.0
H647 H 0.66327 0.46844 0.01555 0.0
C648 C 0.22262 0.40584 0.77191 0.0
C649 C 0.24924 0.43916 0.73634 0.0
C650 C 0.22829 0.47172 0.82357 0.0
C651 C 0.19826 0.43819 0.84949 0.0
N652 N 0.16214 0.37318 0.82959 0.0
N653 N 0.26803 0.50222 0.7081 0.0
C654 C 0.19391 0.40512 0.81782 0.0
C655 C 0.24915 0.47173 0.75546 0.0
N656 N 0.2253 0.3752 0.76459 0.0
N657 N 0.23795 0.50316 0.86534 0.0
H658 H 0.27964 0.50225 0.65137 0.0
H659 H 0.26927 0.52679 0.72101 0.0
H660 H 0.22761 0.50387 0.92323 0.0
H661 H 0.25872 0.52847 0.84631 0.0
H662 H 0.20802 0.35108 0.79572 0.0
H663 H 0.24716 0.37508 0.73544 0.0
H664 H 0.15683 0.34888 0.80164 0.0
H665 H 0.13967 0.37189 0.85907 0.0
C666 C 0.78669 0.1899 0.99012 0.0
C667 C 0.75865 0.19492 0.02351 0.0
C668 C 0.77537 0.24546 0.92831 0.0
C669 C 0.80728 0.24472 0.90651 0.0
N670 N 0.84712 0.22018 0.93212 0.0
N671 N 0.73455 0.23557 0.04147 0.0
C672 C 0.81411 0.21803 0.94179 0.0
C673 C 0.75537 0.22518 0.99796 0.0
N674 N 0.7867 0.15804 1.00235 0.0
N675 N 0.76368 0.26459 0.88196 0.0
H676 H 0.72431 0.22564 0.10022 0.0
H677 H 0.73021 0.25655 0.02291 0.0
H678 H 0.77471 0.27582 0.82449 0.0
H679 H 0.74104 0.26674 0.89696 0.0
H680 H 0.80505 0.15219 0.97301 0.0
H681 H 0.76593 0.13597 0.03383 0.0
H682 H 0.85413 0.20293 0.96297 0.0
H683 H 0.86884 0.24168 0.90141 0.0
C684 C 0.60166 0.79195 0.16623 0.0
C685 C 0.56906 0.76363 0.20082 0.0
C686 C 0.53384 0.77963 0.10811 0.0
C687 C 0.56611 0.81134 0.08315 0.0
N688 N 0.63046 0.85195 0.10511 0.0
N689 N 0.50463 0.73934 0.22357 0.0
C690 C 0.60005 0.81883 0.11704 0.0
C691 C 0.53518 0.76017 0.1779 0.0
N692 N 0.63391 0.79265 0.1778 0.0
N693 N 0.50229 0.76746 0.06442 0.0
H694 H 0.50516 0.72898 0.28175 0.0
H695 H 0.4791 0.73524 0.20782 0.0
H696 H 0.50122 0.77706 0.00569 0.0
H697 H 0.47758 0.74551 0.08265 0.0
H698 H 0.65777 0.81109 0.14745 0.0
H699 H 0.63591 0.77239 0.2101 0.0
H700 H 0.6551 0.85954 0.13469 0.0
H701 H 0.62996 0.87321 0.0737 0.0
C702 C 0.82059 0.60358 0.32875 0.0
C703 C 0.81401 0.57017 0.36407 0.0
C704 C 0.7626 0.53764 0.27082 0.0
C705 C 0.76506 0.57093 0.24657 0.0
N706 N 0.79279 0.63582 0.26742 0.0
N707 N 0.77089 0.50639 0.38629 0.0
C708 C 0.79306 0.6041 0.27979 0.0
C709 C 0.7825 0.53738 0.34077 0.0
N710 N 0.8534 0.63452 0.33928 0.0
N711 N 0.74219 0.50664 0.22635 0.0
H712 H 0.78057 0.50617 0.44547 0.0
H713 H 0.74932 0.4813 0.36896 0.0
H714 H 0.73194 0.50655 0.16763 0.0
H715 H 0.73821 0.48135 0.24387 0.0
H716 H 0.86031 0.65879 0.30868 0.0
H717 H 0.87507 0.6348 0.37065 0.0
H718 H 0.81105 0.66006 0.29667 0.0
H719 H 0.77194 0.637 0.23577 0.0
C720 C 0.19505 0.78437 0.42245 0.0
C721 C 0.20092 0.75667 0.38998 0.0
C722 C 0.25416 0.7777 0.4789 0.0
C723 C 0.25111 0.80824 0.50306 0.0
N724 N 0.22381 0.84544 0.47709 0.0
N725 N 0.2447 0.73696 0.36547 0.0
C726 C 0.22321 0.81315 0.46801 0.0
C727 C 0.23329 0.75646 0.41091 0.0
N728 N 0.16225 0.78267 0.41268 0.0
N729 N 0.27479 0.76727 0.52325 0.0
H730 H 0.23194 0.72348 0.31102 0.0
H731 H 0.26895 0.73722 0.37746 0.0
H732 H 0.28589 0.77805 0.58087 0.0
H733 H 0.27803 0.74542 0.50634 0.0
H734 H 0.15587 0.80069 0.44174 0.0
H735 H 0.14018 0.76099 0.38346 0.0
H736 H 0.2055 0.8512 0.44691 0.0
H737 H 0.24507 0.86776 0.50683 0.0
C738 C 0.41271 0.22293 0.66073 0.0
C739 C 0.44586 0.25008 0.69573 0.0
C740 C 0.47895 0.23139 0.604 0.0
C741 C 0.44594 0.2001 0.58132 0.0
N742 N 0.38124 0.16212 0.60525 0.0
N743 N 0.50982 0.27129 0.7186 0.0
C744 C 0.41265 0.19462 0.61469 0.0
C745 C 0.47894 0.25174 0.67307 0.0
N746 N 0.38153 0.22455 0.66937 0.0
N747 N 0.50983 0.24234 0.55884 0.0
H748 H 0.51 0.28159 0.77711 0.0
H749 H 0.53489 0.27459 0.70166 0.0
H750 H 0.50995 0.23143 0.50124 0.0
H751 H 0.53487 0.26432 0.57515 0.0
H752 H 0.3574 0.20669 0.63904 0.0
H753 H 0.38097 0.24617 0.69855 0.0
H754 H 0.35704 0.15624 0.63458 0.0
H755 H 0.38043 0.13971 0.57665 0.0
C756 C 0.02622 0.36242 0.85826 0.0
C757 C 0.03914 0.38353 0.93076 0.0
C758 C 0.97794 0.37387 0.95621 0.0
C759 C 0.96557 0.35657 0.87573 0.0
N760 N 0.98548 0.34608 0.74236 0.0
N761 N 0.02526 0.40006 0.06134 0.0
C762 C 0.99154 0.3534 0.82505 0.0
C763 C 0.01444 0.38667 0.98302 0.0
N764 N 0.04696 0.34999 0.82229 0.0
N765 N 0.95632 0.38089 0.00644 0.0
H766 H 0.05158 0.40967 0.08334 0.0
H767 H 0.00755 0.39857 0.10772 0.0
H768 H 0.92846 0.36482 0.0117 0.0
H769 H 0.96677 0.40277 0.04737 0.0
H770 H 0.03787 0.33167 0.77309 0.0
H771 H 0.07133 0.35463 0.84918 0.0
H772 H 1.005 0.34635 0.70282 0.0
H773 H 0.9641 0.34571 0.71001 0.0
C774 C 0.64635 0.98533 0.02288 0.0
C775 C 0.60762 0.96682 0.02963 0.0
C776 C 0.61337 0.01496 0.12274 0.0
C777 C 0.65044 0.03658 0.10361 0.0
N778 N 0.70267 0.04367 0.02955 0.0
N779 N 0.5551 0.9724 0.06624 0.0
C780 C 0.66716 0.02216 0.05174 0.0
C781 C 0.59139 0.98414 0.0739 0.0
N782 N 0.66345 0.96775 0.99288 0.0
N783 N 0.59893 0.02429 0.18699 0.0
H784 H 0.53827 0.95206 0.02488 0.0
H785 H 0.54299 0.98606 0.09315 0.0
H786 H 0.61498 0.04663 0.22478 0.0
H787 H 0.57226 0.00765 0.20727 0.0
H788 H 0.69163 0.97911 0.99394 0.0
H789 H 0.64958 0.94073 0.97377 0.0
H790 H 0.71533 0.03623 0.98468 0.0
H791 H 0.71871 0.06974 0.05383 0.0
C792 C 0.61461 0.59821 0.21369 0.0
C793 C 0.65146 0.6165 0.18894 0.0
C794 C 0.65511 0.67382 0.23387 0.0
C795 C 0.61975 0.65363 0.26913 0.0
N796 N 0.57281 0.5955 0.31743 0.0
N797 N 0.70903 0.6725 0.18645 0.0
C798 C 0.602 0.61542 0.26758 0.0
C799 C 0.6726 0.65473 0.20203 0.0
N800 N 0.59124 0.56466 0.18279 0.0
N801 N 0.67148 0.71076 0.22921 0.0
H802 H 0.72214 0.65928 0.16243 0.0
H803 H 0.72628 0.69966 0.20205 0.0
H804 H 0.65962 0.72502 0.25438 0.0
H805 H 0.69565 0.7267 0.19709 0.0
H806 H 0.56344 0.55082 0.19585 0.0
H807 H 0.59942 0.55386 0.13507 0.0
H808 H 0.56024 0.56722 0.32159 0.0
H809 H 0.56448 0.60797 0.36107 0.0
C810 C 0.02783 0.66662 0.39406 0.0
C811 C 0.04065 0.64719 0.34634 0.0
C812 C 0.98686 0.5904 0.38457 0.0
C813 C 0.97091 0.60924 0.42329 0.0
N814 N 0.97512 0.66722 0.4514 0.0
N815 N 0.02539 0.59237 0.27308 0.0
C816 C 0.9911 0.64804 0.42472 0.0
C817 C 0.01779 0.60968 0.33411 0.0
N818 N 0.05065 0.70253 0.41047 0.0
N819 N 0.97315 0.55403 0.39763 0.0
H820 H 0.0471 0.60652 0.23232 0.0
H821 H 0.00771 0.56527 0.25741 0.0
H822 H 0.95188 0.53896 0.4386 0.0
H823 H 0.98577 0.54006 0.37514 0.0
H824 H 0.04436 0.71728 0.45214 0.0
H825 H 0.07666 0.71685 0.38496 0.0
H826 H 0.98749 0.6954 0.44609 0.0
H827 H 0.94846 0.65482 0.47295 0.0
C828 C 0.36996 0.0148 0.49347 0.0
C829 C 0.39894 0.04051 0.54494 0.0
C830 C 0.38067 0.991 0.6504 0.0
C831 C 0.35304 0.96656 0.59741 0.0
N832 N 0.31181 0.95872 0.48802 0.0
N833 N 0.4327 0.04915 0.67557 0.0
C834 C 0.34469 0.9797 0.52523 0.0
C835 C 0.40412 0.02771 0.62481 0.0
N836 N 0.36858 0.02162 0.41119 0.0
N837 N 0.38326 0.97956 0.72819 0.0
H838 H 0.44528 0.07709 0.67966 0.0
H839 H 0.44387 0.03857 0.71714 0.0
H840 H 0.36662 0.95297 0.7488 0.0
H841 H 0.39925 0.99688 0.77537 0.0
H842 H 0.3496 1.00236 0.37075 0.0
H843 H 0.38929 0.04363 0.37989 0.0
H844 H 0.30234 0.96795 0.43935 0.0
H845 H 0.29256 0.93365 0.51286 0.0
C846 C 0.40605 0.41928 0.70378 0.0
C847 C 0.36817 0.39989 0.68639 0.0
C848 C 0.3659 0.34399 0.73905 0.0
C849 C 0.4029 0.36472 0.76463 0.0
N850 N 0.45502 0.42405 0.78868 0.0
N851 N 0.31057 0.34444 0.70086 0.0
C852 C 0.42178 0.40297 0.75257 0.0
C853 C 0.34758 0.36232 0.70758 0.0
N854 N 0.42745 0.45339 0.67193 0.0
N855 N 0.34866 0.30691 0.74158 0.0
H856 H 0.29641 0.35678 0.67767 0.0
H857 H 0.29391 0.31826 0.72374 0.0
H858 H 0.36095 0.29277 0.76518 0.0
H859 H 0.32316 0.29033 0.71527 0.0
H860 H 0.45577 0.46718 0.67501 0.0
H861 H 0.41719 0.46639 0.6351 0.0
H862 H 0.46827 0.45238 0.78954 0.0
H863 H 0.46766 0.41319 0.82482 0.0
loop_
_geom_bond_atom_site_label_1
_geom_bond_atom_site_label_2
_geom_bond_distance
_geom_bond_site_symmetry_2
_ccdc_geom_bond_type
Mn0 O5 2.095 . S
Mn0 O15 2.162 . S
Mn0 O16 2.297 . S
Mn0 O24 2.385 1_554 S
Mn0 O25 2.209 1_554 S
Mn0 O26 2.094 . S
Mn1 O6 2.121 . S
Mn1 N8 2.257 . S
Mn1 N17 2.282 . S
Mn1 O25 2.215 . S
Mn1 O27 2.117 . S
C2 O24 1.234 . S
C2 O25 1.283 . S
C3 O15 1.281 . S
C3 O16 1.236 . S
C4 O26 1.240 1_556 S
C4 O27 1.264 . S
O5 Mn0 2.095 . S
O5 C14 1.250 . S
O6 Mn1 2.121 . S
O6 C14 1.258 1_556 S
C7 N8 1.326 . S
C7 C11 1.460 . S
C7 H13 0.929 . S
N8 Mn1 2.257 . S
N8 C7 1.326 . S
N8 C12 1.362 . S
C9 C10 1.258 . S
C9 C12 1.431 . S
C9 C29 1.449 . S
C10 C9 1.258 . S
C10 C11 1.477 . S
C10 H30 0.931 . S
C11 C7 1.460 . S
C11 C10 1.477 . S
C11 H31 0.930 . S
C12 N8 1.362 . S
C12 C9 1.431 . S
C12 C22 1.476 . S
H13 C7 0.929 . S
C14 O5 1.250 . S
C14 O6 1.258 1_554 S
O15 Mn0 2.162 . S
O15 C3 1.281 . S
O16 Mn0 2.297 . S
O16 C3 1.236 . S
N17 Mn1 2.282 . S
N17 C18 1.328 . S
N17 C22 1.318 . S
C18 N17 1.328 . S
C18 C19 1.457 . S
C18 H23 0.929 . S
C19 C18 1.457 . S
C19 C20 1.291 . S
C19 H32 0.931 . S
C20 C19 1.291 . S
C20 C21 1.373 . S
C20 H33 0.929 . S
C21 C20 1.373 . S
C21 C22 1.396 . S
C21 C28 1.403 . S
C22 C12 1.476 . S
C22 N17 1.318 . S
C22 C21 1.396 . S
H23 C18 0.929 . S
O24 Mn0 2.385 1_556 S
O24 C2 1.234 . S
O25 Mn0 2.209 1_556 S
O25 Mn1 2.215 . S
O25 C2 1.283 . S
O26 Mn0 2.094 . S
O26 C4 1.240 1_554 S
O27 Mn1 2.117 . S
O27 C4 1.264 . S
C28 C21 1.403 . S
C28 C29 1.399 . S
C28 H34 0.929 . S
C29 C9 1.449 . S
C29 C28 1.399 . S
C29 H35 0.930 . S
H30 C10 0.931 . S
H31 C11 0.930 . S
H32 C19 0.931 . S
H33 C20 0.929 . S
H34 C28 0.929 . S
H35 C29 0.930 . S
Mn36 O41 2.095 . S
Mn36 O51 2.162 . S
Mn36 O52 2.297 . S
Mn36 O60 2.385 . S
Mn36 O61 2.209 . S
Mn36 O62 2.094 . S
Mn37 O42 2.121 . S
Mn37 N44 2.257 1_554 S
Mn37 N53 2.282 1_554 S
Mn37 O61 2.215 . S
Mn37 O63 2.117 . S
C38 O60 1.234 . S
C38 O61 1.283 . S
C39 O51 1.281 . S
C39 O52 1.236 . S
C40 O62 1.240 . S
C40 O63 1.264 . S
O41 Mn36 2.095 . S
O41 C50 1.250 . S
O42 Mn37 2.121 . S
O42 C50 1.258 . S
C43 N44 1.324 1_554 S
C43 C47 1.455 1_554 S
C43 H49 0.936 . S
N44 Mn37 2.257 1_556 S
N44 C43 1.324 1_556 S
N44 C48 1.362 . S
C45 C46 1.258 . S
C45 C48 1.431 . S
C45 C65 1.449 . S
C46 C45 1.258 . S
C46 C47 1.477 . S
C46 H66 0.931 . S
C47 C43 1.455 1_556 S
C47 C46 1.477 . S
C47 H67 0.930 . S
C48 N44 1.362 . S
C48 C45 1.431 . S
C48 C58 1.476 . S
H49 C43 0.936 . S
C50 O41 1.250 . S
C50 O42 1.258 . S
O51 Mn36 2.162 . S
O51 C39 1.281 . S
O52 Mn36 2.297 . S
O52 C39 1.236 . S
N53 Mn37 2.282 1_556 S
N53 C54 1.328 . S
N53 C58 1.318 . S
C54 N53 1.328 . S
C54 C55 1.457 . S
C54 H59 0.929 . S
C55 C54 1.457 . S
C55 C56 1.291 . S
C55 H68 0.931 . S
C56 C55 1.291 . S
C56 C57 1.373 . S
C56 H69 0.929 . S
C57 C56 1.373 . S
C57 C58 1.396 . S
C57 C64 1.403 . S
C58 C48 1.476 . S
C58 N53 1.318 . S
C58 C57 1.396 . S
H59 C54 0.929 . S
O60 Mn36 2.385 . S
O60 C38 1.234 . S
O61 Mn36 2.209 . S
O61 Mn37 2.215 . S
O61 C38 1.283 . S
O62 Mn36 2.094 . S
O62 C40 1.240 . S
O63 Mn37 2.117 . S
O63 C40 1.264 . S
C64 C57 1.403 . S
C64 C65 1.399 . S
C64 H70 0.929 . S
C65 C45 1.449 . S
C65 C64 1.399 . S
C65 H71 0.930 . S
H66 C46 0.931 . S
H67 C47 0.930 . S
H68 C55 0.931 . S
H69 C56 0.929 . S
H70 C64 0.929 . S
H71 C65 0.930 . S
Mn72 O77 2.095 . S
Mn72 O87 2.162 . S
Mn72 O88 2.297 . S
Mn72 O96 2.385 . S
Mn72 O97 2.209 . S
Mn72 O98 2.094 . S
Mn73 O78 2.121 . S
Mn73 N80 2.257 . S
Mn73 N89 2.282 . S
Mn73 O97 2.215 . S
Mn73 O99 2.117 . S
C74 O96 1.234 . S
C74 O97 1.283 . S
C75 O87 1.281 . S
C75 O88 1.236 . S
C76 O98 1.240 . S
C76 O99 1.264 . S
O77 Mn72 2.095 . S
O77 C86 1.250 . S
O78 Mn73 2.121 . S
O78 C86 1.258 . S
C79 N80 1.326 . S
C79 C83 1.460 . S
C79 H85 0.929 . S
N80 Mn73 2.257 . S
N80 C79 1.326 . S
N80 C84 1.362 . S
C81 C82 1.258 . S
C81 C84 1.431 . S
C81 C101 1.449 1_554 S
C82 C81 1.258 . S
C82 C83 1.477 . S
C82 H102 0.931 1_554 S
C83 C79 1.460 . S
C83 C82 1.477 . S
C83 H103 0.930 . S
C84 N80 1.362 . S
C84 C81 1.431 . S
C84 C94 1.476 . S
H85 C79 0.929 . S
C86 O77 1.250 . S
C86 O78 1.258 . S
O87 Mn72 2.162 . S
O87 C75 1.281 . S
O88 Mn72 2.297 . S
O88 C75 1.236 . S
N89 Mn73 2.282 . S
N89 C90 1.328 . S
N89 C94 1.318 . S
C90 N89 1.328 . S
C90 C91 1.457 . S
C90 H95 0.929 . S
C91 C90 1.457 . S
C91 C92 1.291 1_554 S
C91 H104 0.931 1_554 S
C92 C91 1.291 1_556 S
C92 C93 1.373 . S
C92 H105 0.929 . S
C93 C92 1.373 . S
C93 C94 1.396 1_556 S
C93 C100 1.403 . S
C94 C84 1.476 . S
C94 N89 1.318 . S
C94 C93 1.396 1_554 S
H95 C90 0.929 . S
O96 Mn72 2.385 . S
O96 C74 1.234 . S
O97 Mn72 2.209 . S
O97 Mn73 2.215 . S
O97 C74 1.283 . S
O98 Mn72 2.094 . S
O98 C76 1.240 . S
O99 Mn73 2.117 . S
O99 C76 1.264 . S
C100 C93 1.403 . S
C100 C101 1.399 . S
C100 H106 0.929 . S
C101 C81 1.449 1_556 S
C101 C100 1.399 . S
C101 H107 0.930 . S
H102 C82 0.931 1_556 S
H103 C83 0.930 . S
H104 C91 0.931 1_556 S
H105 C92 0.929 . S
H106 C100 0.929 . S
H107 C101 0.930 . S
Mn108 O113 2.095 . S
Mn108 O123 2.162 . S
Mn108 O124 2.297 . S
Mn108 O132 2.385 . S
Mn108 O133 2.209 . S
Mn108 O134 2.094 . S
Mn109 O114 2.121 . S
Mn109 N116 2.257 . S
Mn109 N125 2.282 . S
Mn109 O133 2.215 . S
Mn109 O135 2.117 . S
C110 O132 1.234 . S
C110 O133 1.283 . S
C111 O123 1.281 . S
C111 O124 1.236 . S
C112 O134 1.240 . S
C112 O135 1.264 . S
O113 Mn108 2.095 . S
O113 C122 1.250 . S
O114 Mn109 2.121 . S
O114 C122 1.258 . S
C115 N116 1.326 . S
C115 C119 1.460 . S
C115 H121 0.929 . S
N116 Mn109 2.257 . S
N116 C115 1.326 . S
N116 C120 1.362 . S
C117 C118 1.258 . S
C117 C120 1.431 . S
C117 C137 1.449 . S
C118 C117 1.258 . S
C118 C119 1.477 . S
C118 H138 0.931 . S
C119 C115 1.460 . S
C119 C118 1.477 . S
C119 H139 0.930 . S
C120 N116 1.362 . S
C120 C117 1.431 . S
C120 C130 1.476 . S
H121 C115 0.929 . S
C122 O113 1.250 . S
C122 O114 1.258 . S
O123 Mn108 2.162 . S
O123 C111 1.281 . S
O124 Mn108 2.297 . S
O124 C111 1.236 . S
N125 Mn109 2.282 . S
N125 C126 1.328 . S
N125 C130 1.318 . S
C126 N125 1.328 . S
C126 C127 1.457 . S
C126 H131 0.929 . S
C127 C126 1.457 . S
C127 C128 1.291 . S
C127 H140 0.931 . S
C128 C127 1.291 . S
C128 C129 1.373 . S
C128 H141 0.929 . S
C129 C128 1.373 . S
C129 C130 1.396 . S
C129 C136 1.403 . S
C130 C120 1.476 . S
C130 N125 1.318 . S
C130 C129 1.396 . S
H131 C126 0.929 . S
O132 Mn108 2.385 . S
O132 C110 1.234 . S
O133 Mn108 2.209 . S
O133 Mn109 2.215 . S
O133 C110 1.283 . S
O134 Mn108 2.094 . S
O134 C112 1.240 . S
O135 Mn109 2.117 . S
O135 C112 1.264 . S
C136 C129 1.403 . S
C136 C137 1.399 . S
C136 H142 0.929 . S
C137 C117 1.449 . S
C137 C136 1.399 . S
C137 H143 0.930 . S
H138 C118 0.931 . S
H139 C119 0.930 . S
H140 C127 0.931 . S
H141 C128 0.929 . S
H142 C136 0.929 . S
H143 C137 0.930 . S
Mn144 O149 2.095 . S
Mn144 O159 2.162 . S
Mn144 O160 2.297 . S
Mn144 O168 2.385 . S
Mn144 O169 2.209 . S
Mn144 O170 2.094 . S
Mn145 O150 2.121 . S
Mn145 N152 2.257 . S
Mn145 N161 2.282 . S
Mn145 O169 2.215 . S
Mn145 O171 2.117 . S
C146 O168 1.234 . S
C146 O169 1.283 . S
C147 O159 1.281 . S
C147 O160 1.236 . S
C148 O170 1.240 . S
C148 O171 1.264 . S
O149 Mn144 2.095 . S
O149 C158 1.250 . S
O150 Mn145 2.121 . S
O150 C158 1.258 . S
C151 N152 1.326 . S
C151 C155 1.460 . S
C151 H157 0.929 . S
N152 Mn145 2.257 . S
N152 C151 1.326 . S
N152 C156 1.362 . S
C153 C154 1.258 . S
C153 C156 1.431 . S
C153 C173 1.449 . S
C154 C153 1.258 . S
C154 C155 1.477 . S
C154 H174 0.931 . S
C155 C151 1.460 . S
C155 C154 1.477 . S
C155 H175 0.930 . S
C156 N152 1.362 . S
C156 C153 1.431 . S
C156 C166 1.476 . S
H157 C151 0.929 . S
C158 O149 1.250 . S
C158 O150 1.258 . S
O159 Mn144 2.162 . S
O159 C147 1.281 . S
O160 Mn144 2.297 . S
O160 C147 1.236 . S
N161 Mn145 2.282 . S
N161 C162 1.328 . S
N161 C166 1.318 . S
C162 N161 1.328 . S
C162 C163 1.457 . S
C162 H167 0.929 . S
C163 C162 1.457 . S
C163 C164 1.291 . S
C163 H176 0.931 . S
C164 C163 1.291 . S
C164 C165 1.373 . S
C164 H177 0.929 . S
C165 C164 1.373 . S
C165 C166 1.396 . S
C165 C172 1.403 . S
C166 C156 1.476 . S
C166 N161 1.318 . S
C166 C165 1.396 . S
H167 C162 0.929 . S
O168 Mn144 2.385 . S
O168 C146 1.234 . S
O169 Mn144 2.209 . S
O169 Mn145 2.215 . S
O169 C146 1.283 . S
O170 Mn144 2.094 . S
O170 C148 1.240 . S
O171 Mn145 2.117 . S
O171 C148 1.264 . S
C172 C165 1.403 . S
C172 C173 1.399 . S
C172 H178 0.929 . S
C173 C153 1.449 . S
C173 C172 1.399 . S
C173 H179 0.930 . S
H174 C154 0.931 . S
H175 C155 0.930 . S
H176 C163 0.931 . S
H177 C164 0.929 . S
H178 C172 0.929 . S
H179 C173 0.930 . S
Mn180 O185 2.095 . S
Mn180 O195 2.153 1_556 S
Mn180 O196 2.297 . S
Mn180 O204 2.385 . S
Mn180 O205 2.209 . S
Mn180 O206 2.094 . S
Mn181 O186 2.121 . S
Mn181 N188 2.257 . S
Mn181 N197 2.282 . S
Mn181 O205 2.215 . S
Mn181 O207 2.117 . S
C182 O204 1.234 . S
C182 O205 1.283 . S
C183 O195 1.282 . S
C183 O196 1.236 1_554 S
C184 O206 1.240 . S
C184 O207 1.264 . S
O185 Mn180 2.095 . S
O185 C194 1.250 . S
O186 Mn181 2.121 . S
O186 C194 1.258 . S
C187 N188 1.326 . S
C187 C191 1.460 . S
C187 H193 0.929 . S
N188 Mn181 2.257 . S
N188 C187 1.326 . S
N188 C192 1.362 . S
C189 C190 1.258 . S
C189 C192 1.431 . S
C189 C209 1.449 . S
C190 C189 1.258 . S
C190 C191 1.477 . S
C190 H210 0.931 . S
C191 C187 1.460 . S
C191 C190 1.477 . S
C191 H211 0.930 . S
C192 N188 1.362 . S
C192 C189 1.431 . S
C192 C202 1.476 . S
H193 C187 0.929 . S
C194 O185 1.250 . S
C194 O186 1.258 . S
O195 Mn180 2.153 1_554 S
O195 C183 1.282 . S
O196 Mn180 2.297 . S
O196 C183 1.236 1_556 S
N197 Mn181 2.282 . S
N197 C198 1.328 . S
N197 C202 1.318 . S
C198 N197 1.328 . S
C198 C199 1.457 . S
C198 H203 0.929 . S
C199 C198 1.457 . S
C199 C200 1.291 . S
C199 H212 0.931 . S
C200 C199 1.291 . S
C200 C201 1.373 . S
C200 H213 0.929 . S
C201 C200 1.373 . S
C201 C202 1.396 . S
C201 C208 1.403 . S
C202 C192 1.476 . S
C202 N197 1.318 . S
C202 C201 1.396 . S
H203 C198 0.929 . S
O204 Mn180 2.385 . S
O204 C182 1.234 . S
O205 Mn180 2.209 . S
O205 Mn181 2.215 . S
O205 C182 1.283 . S
O206 Mn180 2.094 . S
O206 C184 1.240 . S
O207 Mn181 2.117 . S
O207 C184 1.264 . S
C208 C201 1.403 . S
C208 C209 1.399 . S
C208 H214 0.929 . S
C209 C189 1.449 . S
C209 C208 1.399 . S
C209 H215 0.930 . S
H210 C190 0.931 . S
H211 C191 0.930 . S
H212 C199 0.931 . S
H213 C200 0.929 . S
H214 C208 0.929 . S
H215 C209 0.930 . S
Mn216 O221 2.095 . S
Mn216 O231 2.162 . S
Mn216 O232 2.297 . S
Mn216 O240 2.385 . S
Mn216 O241 2.209 . S
Mn216 O242 2.094 . S
Mn217 O222 2.121 1_554 S
Mn217 N224 2.257 . S
Mn217 N233 2.282 . S
Mn217 O241 2.215 1_554 S
Mn217 O243 2.117 . S
C218 O240 1.234 1_554 S
C218 O241 1.283 1_554 S
C219 O231 1.281 . S
C219 O232 1.236 . S
C220 O242 1.240 . S
C220 O243 1.264 1_556 S
O221 Mn216 2.095 . S
O221 C230 1.250 . S
O222 Mn217 2.121 1_556 S
O222 C230 1.258 . S
C223 N224 1.326 . S
C223 C227 1.460 . S
C223 H229 0.929 . S
N224 Mn217 2.257 . S
N224 C223 1.326 . S
N224 C228 1.362 . S
C225 C226 1.258 . S
C225 C228 1.431 . S
C225 C245 1.449 . S
C226 C225 1.258 . S
C226 C227 1.477 . S
C226 H246 0.931 . S
C227 C223 1.460 . S
C227 C226 1.477 . S
C227 H247 0.930 . S
C228 N224 1.362 . S
C228 C225 1.431 . S
C228 C238 1.476 . S
H229 C223 0.929 . S
C230 O221 1.250 . S
C230 O222 1.258 . S
O231 Mn216 2.162 . S
O231 C219 1.281 . S
O232 Mn216 2.297 . S
O232 C219 1.236 . S
N233 Mn217 2.282 . S
N233 C234 1.328 . S
N233 C238 1.318 . S
C234 N233 1.328 . S
C234 C235 1.457 . S
C234 H239 0.929 . S
C235 C234 1.457 . S
C235 C236 1.291 . S
C235 H248 0.931 . S
C236 C235 1.291 . S
C236 C237 1.373 . S
C236 H249 0.929 . S
C237 C236 1.373 . S
C237 C238 1.396 . S
C237 C244 1.403 . S
C238 C228 1.476 . S
C238 N233 1.318 . S
C238 C237 1.396 . S
H239 C234 0.929 . S
O240 Mn216 2.385 . S
O240 C218 1.234 1_556 S
O241 Mn216 2.209 . S
O241 Mn217 2.215 1_556 S
O241 C218 1.283 1_556 S
O242 Mn216 2.094 . S
O242 C220 1.240 . S
O243 Mn217 2.117 . S
O243 C220 1.264 1_554 S
C244 C237 1.403 . S
C244 C245 1.399 . S
C244 H250 0.929 . S
C245 C225 1.449 . S
C245 C244 1.399 . S
C245 H251 0.930 . S
H246 C226 0.931 . S
H247 C227 0.930 . S
H248 C235 0.931 . S
H249 C236 0.929 . S
H250 C244 0.929 . S
H251 C245 0.930 . S
Mn252 O257 2.095 . S
Mn252 O267 2.162 1_554 S
Mn252 O268 2.297 1_554 S
Mn252 O276 2.385 . S
Mn252 O277 2.209 . S
Mn252 O278 2.094 . S
Mn253 O258 2.121 . S
Mn253 N260 2.257 . S
Mn253 N269 2.282 . S
Mn253 O277 2.215 . S
Mn253 O279 2.117 . S
C254 O276 1.234 . S
C254 O277 1.283 . S
C255 O267 1.281 . S
C255 O268 1.236 . S
C256 O278 1.240 . S
C256 O279 1.264 . S
O257 Mn252 2.095 . S
O257 C266 1.250 . S
O258 Mn253 2.121 . S
O258 C266 1.258 . S
C259 N260 1.326 . S
C259 C263 1.460 . S
C259 H265 0.929 . S
N260 Mn253 2.257 . S
N260 C259 1.326 . S
N260 C264 1.362 . S
C261 C262 1.258 . S
C261 C264 1.431 . S
C261 C281 1.449 . S
C262 C261 1.258 . S
C262 C263 1.477 . S
C262 H282 0.931 . S
C263 C259 1.460 . S
C263 C262 1.477 . S
C263 H283 0.930 . S
C264 N260 1.362 . S
C264 C261 1.431 . S
C264 C274 1.476 . S
H265 C259 0.929 . S
C266 O257 1.250 . S
C266 O258 1.258 . S
O267 Mn252 2.162 1_556 S
O267 C255 1.281 . S
O268 Mn252 2.297 1_556 S
O268 C255 1.236 . S
N269 Mn253 2.282 . S
N269 C270 1.328 . S
N269 C274 1.318 . S
C270 N269 1.328 . S
C270 C271 1.457 . S
C270 H275 0.929 . S
C271 C270 1.457 . S
C271 C272 1.291 . S
C271 H284 0.931 . S
C272 C271 1.291 . S
C272 C273 1.373 . S
C272 H285 0.929 . S
C273 C272 1.373 . S
C273 C274 1.396 . S
C273 C280 1.403 . S
C274 C264 1.476 . S
C274 N269 1.318 . S
C274 C273 1.396 . S
H275 C270 0.929 . S
O276 Mn252 2.385 . S
O276 C254 1.234 . S
O277 Mn252 2.209 . S
O277 Mn253 2.215 . S
O277 C254 1.283 . S
O278 Mn252 2.094 . S
O278 C256 1.240 . S
O279 Mn253 2.117 . S
O279 C256 1.264 . S
C280 C273 1.403 . S
C280 C281 1.399 . S
C280 H286 0.929 . S
C281 C261 1.449 . S
C281 C280 1.399 . S
C281 H287 0.930 . S
H282 C262 0.931 . S
H283 C263 0.930 . S
H284 C271 0.931 . S
H285 C272 0.929 . S
H286 C280 0.929 . S
H287 C281 0.930 . S
Mn288 O293 2.095 . S
Mn288 O303 2.162 . S
Mn288 O304 2.297 . S
Mn288 O312 2.385 . S
Mn288 O313 2.209 . S
Mn288 O314 2.094 . S
Mn289 O294 2.121 . S
Mn289 N296 2.257 . S
Mn289 N305 2.282 . S
Mn289 O313 2.215 . S
Mn289 O315 2.117 . S
C290 O312 1.234 . S
C290 O313 1.283 . S
C291 O303 1.281 . S
C291 O304 1.236 . S
C292 O314 1.240 . S
C292 O315 1.264 . S
O293 Mn288 2.095 . S
O293 C302 1.250 . S
O294 Mn289 2.121 . S
O294 C302 1.258 . S
C295 N296 1.326 . S
C295 C299 1.460 . S
C295 H301 0.929 . S
N296 Mn289 2.257 . S
N296 C295 1.326 . S
N296 C300 1.362 . S
C297 C298 1.258 . S
C297 C300 1.431 . S
C297 C317 1.449 . S
C298 C297 1.258 . S
C298 C299 1.477 . S
C298 H318 0.931 . S
C299 C295 1.460 . S
C299 C298 1.477 . S
C299 H319 0.930 . S
C300 N296 1.362 . S
C300 C297 1.431 . S
C300 C310 1.476 . S
H301 C295 0.929 . S
C302 O293 1.250 . S
C302 O294 1.258 . S
O303 Mn288 2.162 . S
O303 C291 1.281 . S
O304 Mn288 2.297 . S
O304 C291 1.236 . S
N305 Mn289 2.282 . S
N305 C306 1.328 . S
N305 C310 1.318 . S
C306 N305 1.328 . S
C306 C307 1.457 . S
C306 H311 0.929 . S
C307 C306 1.457 . S
C307 C308 1.291 . S
C307 H320 0.931 . S
C308 C307 1.291 . S
C308 C309 1.373 . S
C308 H321 0.929 . S
C309 C308 1.373 . S
C309 C310 1.396 . S
C309 C316 1.403 . S
C310 C300 1.476 . S
C310 N305 1.318 . S
C310 C309 1.396 . S
H311 C306 0.929 . S
O312 Mn288 2.385 . S
O312 C290 1.234 . S
O313 Mn288 2.209 . S
O313 Mn289 2.215 . S
O313 C290 1.283 . S
O314 Mn288 2.094 . S
O314 C292 1.240 . S
O315 Mn289 2.117 . S
O315 C292 1.264 . S
C316 C309 1.403 . S
C316 C317 1.399 . S
C316 H322 0.929 . S
C317 C297 1.449 . S
C317 C316 1.399 . S
C317 H323 0.930 . S
H318 C298 0.931 . S
H319 C299 0.930 . S
H320 C307 0.931 . S
H321 C308 0.929 . S
H322 C316 0.929 . S
H323 C317 0.930 . S
Mn324 O329 2.095 . S
Mn324 O339 2.162 . S
Mn324 O340 2.297 . S
Mn324 O348 2.385 . S
Mn324 O349 2.209 . S
Mn324 O350 2.094 . S
Mn325 O330 2.121 . S
Mn325 N332 2.257 . S
Mn325 N341 2.282 . S
Mn325 O349 2.215 . S
Mn325 O351 2.117 . S
C326 O348 1.234 . S
C326 O349 1.283 . S
C327 O339 1.281 . S
C327 O340 1.236 . S
C328 O350 1.240 . S
C328 O351 1.264 . S
O329 Mn324 2.095 . S
O329 C338 1.250 . S
O330 Mn325 2.121 . S
O330 C338 1.258 . S
C331 N332 1.326 . S
C331 C335 1.460 . S
C331 H337 0.929 . S
N332 Mn325 2.257 . S
N332 C331 1.326 . S
N332 C336 1.362 . S
C333 C334 1.258 . S
C333 C336 1.431 . S
C333 C353 1.449 . S
C334 C333 1.258 . S
C334 C335 1.477 . S
C334 H354 0.931 . S
C335 C331 1.460 . S
C335 C334 1.477 . S
C335 H355 0.930 . S
C336 N332 1.362 . S
C336 C333 1.431 . S
C336 C346 1.476 . S
H337 C331 0.929 . S
C338 O329 1.250 . S
C338 O330 1.258 . S
O339 Mn324 2.162 . S
O339 C327 1.281 . S
O340 Mn324 2.297 . S
O340 C327 1.236 . S
N341 Mn325 2.282 . S
N341 C342 1.328 . S
N341 C346 1.318 . S
C342 N341 1.328 . S
C342 C343 1.457 . S
C342 H347 0.929 . S
C343 C342 1.457 . S
C343 C344 1.291 . S
C343 H356 0.931 . S
C344 C343 1.291 . S
C344 C345 1.373 . S
C344 H357 0.929 . S
C345 C344 1.373 . S
C345 C346 1.396 . S
C345 C352 1.403 . S
C346 C336 1.476 . S
C346 N341 1.318 . S
C346 C345 1.396 . S
H347 C342 0.929 . S
O348 Mn324 2.385 . S
O348 C326 1.234 . S
O349 Mn324 2.209 . S
O349 Mn325 2.215 . S
O349 C326 1.283 . S
O350 Mn324 2.094 . S
O350 C328 1.240 . S
O351 Mn325 2.117 . S
O351 C328 1.264 . S
C352 C345 1.403 . S
C352 C353 1.399 . S
C352 H358 0.929 . S
C353 C333 1.449 . S
C353 C352 1.399 . S
C353 H359 0.930 . S
H354 C334 0.931 . S
H355 C335 0.930 . S
H356 C343 0.931 . S
H357 C344 0.929 . S
H358 C352 0.929 . S
H359 C353 0.930 . S
Mn360 O365 2.095 . S
Mn360 O375 2.162 . S
Mn360 O376 2.297 . S
Mn360 O384 2.385 . S
Mn360 O385 2.209 . S
Mn360 O386 2.094 . S
Mn361 O366 2.121 . S
Mn361 N368 2.257 . S
Mn361 N377 2.282 . S
Mn361 O385 2.215 . S
Mn361 O387 2.117 . S
C362 O384 1.234 . S
C362 O385 1.283 . S
C363 O375 1.281 . S
C363 O376 1.236 . S
C364 O386 1.240 . S
C364 O387 1.264 . S
O365 Mn360 2.095 . S
O365 C374 1.250 . S
O366 Mn361 2.121 . S
O366 C374 1.258 . S
C367 N368 1.326 . S
C367 C371 1.460 . S
C367 H373 0.929 . S
N368 Mn361 2.257 . S
N368 C367 1.326 . S
N368 C372 1.362 . S
C369 C370 1.258 . S
C369 C372 1.431 . S
C369 C389 1.449 . S
C370 C369 1.258 . S
C370 C371 1.477 . S
C370 H390 0.931 . S
C371 C367 1.460 . S
C371 C370 1.477 . S
C371 H391 0.930 . S
C372 N368 1.362 . S
C372 C369 1.431 . S
C372 C382 1.476 . S
H373 C367 0.929 . S
C374 O365 1.250 . S
C374 O366 1.258 . S
O375 Mn360 2.162 . S
O375 C363 1.281 . S
O376 Mn360 2.297 . S
O376 C363 1.236 . S
N377 Mn361 2.282 . S
N377 C378 1.328 . S
N377 C382 1.318 . S
C378 N377 1.328 . S
C378 C379 1.457 . S
C378 H383 0.929 . S
C379 C378 1.457 . S
C379 C380 1.291 . S
C379 H392 0.931 . S
C380 C379 1.291 . S
C380 C381 1.373 . S
C380 H393 0.929 1_556 S
C381 C380 1.373 . S
C381 C382 1.396 . S
C381 C388 1.403 1_556 S
C382 C372 1.476 . S
C382 N377 1.318 . S
C382 C381 1.396 . S
H383 C378 0.929 . S
O384 Mn360 2.385 . S
O384 C362 1.234 . S
O385 Mn360 2.209 . S
O385 Mn361 2.215 . S
O385 C362 1.283 . S
O386 Mn360 2.094 . S
O386 C364 1.240 . S
O387 Mn361 2.117 . S
O387 C364 1.264 . S
C388 C381 1.403 1_554 S
C388 C389 1.399 1_554 S
C388 H394 0.929 . S
C389 C369 1.449 . S
C389 C388 1.399 1_556 S
C389 H395 0.930 1_556 S
H390 C370 0.931 . S
H391 C371 0.930 . S
H392 C379 0.931 . S
H393 C380 0.929 1_554 S
H394 C388 0.929 . S
H395 C389 0.930 1_554 S
Mn396 O401 2.095 . S
Mn396 O411 2.162 . S
Mn396 O412 2.297 . S
Mn396 O420 2.385 . S
Mn396 O421 2.209 . S
Mn396 O422 2.094 . S
Mn397 O402 2.121 . S
Mn397 N404 2.257 . S
Mn397 N413 2.282 . S
Mn397 O421 2.215 . S
Mn397 O423 2.117 . S
C398 O420 1.234 . S
C398 O421 1.283 . S
C399 O411 1.281 . S
C399 O412 1.236 . S
C400 O422 1.240 . S
C400 O423 1.264 . S
O401 Mn396 2.095 . S
O401 C410 1.250 . S
O402 Mn397 2.121 . S
O402 C410 1.258 . S
C403 N404 1.326 . S
C403 C407 1.460 . S
C403 H409 0.929 . S
N404 Mn397 2.257 . S
N404 C403 1.326 . S
N404 C408 1.362 1_556 S
C405 C406 1.258 . S
C405 C408 1.431 . S
C405 C425 1.449 . S
C406 C405 1.258 . S
C406 C407 1.477 1_554 S
C406 H426 0.931 . S
C407 C403 1.460 . S
C407 C406 1.477 1_556 S
C407 H427 0.930 . S
C408 N404 1.362 1_554 S
C408 C405 1.431 . S
C408 C418 1.476 . S
H409 C403 0.929 . S
C410 O401 1.250 . S
C410 O402 1.258 . S
O411 Mn396 2.162 . S
O411 C399 1.281 . S
O412 Mn396 2.297 . S
O412 C399 1.236 . S
N413 Mn397 2.282 . S
N413 C414 1.328 1_556 S
N413 C418 1.318 1_556 S
C414 N413 1.328 1_554 S
C414 C415 1.457 . S
C414 H419 0.929 1_554 S
C415 C414 1.457 . S
C415 C416 1.291 . S
C415 H428 0.931 . S
C416 C415 1.291 . S
C416 C417 1.373 . S
C416 H429 0.929 . S
C417 C416 1.373 . S
C417 C418 1.396 . S
C417 C424 1.403 . S
C418 C408 1.476 . S
C418 N413 1.318 1_554 S
C418 C417 1.396 . S
H419 C414 0.929 1_556 S
O420 Mn396 2.385 . S
O420 C398 1.234 . S
O421 Mn396 2.209 . S
O421 Mn397 2.215 . S
O421 C398 1.283 . S
O422 Mn396 2.094 . S
O422 C400 1.240 . S
O423 Mn397 2.117 . S
O423 C400 1.264 . S
C424 C417 1.403 . S
C424 C425 1.399 . S
C424 H430 0.929 . S
C425 C405 1.449 . S
C425 C424 1.399 . S
C425 H431 0.930 . S
H426 C406 0.931 . S
H427 C407 0.930 . S
H428 C415 0.931 . S
H429 C416 0.929 . S
H430 C424 0.929 . S
H431 C425 0.930 . S
C432 C433 1.363 . S
C432 C438 1.379 . S
C432 N440 1.356 . S
C433 C432 1.363 . S
C433 C439 1.363 . S
C434 C435 1.363 . S
C434 C439 1.379 . S
C434 N441 1.356 . S
C435 C434 1.363 . S
C435 C438 1.363 . S
N436 C438 1.356 . S
N436 H448 0.984 . S
N436 H449 0.985 . S
N437 C439 1.356 . S
N437 H442 0.984 . S
N437 H443 0.985 . S
C438 C432 1.379 . S
C438 C435 1.363 . S
C438 N436 1.356 . S
C439 C433 1.363 . S
C439 C434 1.379 . S
C439 N437 1.356 . S
N440 C432 1.356 . S
N440 H446 0.984 . S
N440 H447 0.984 . S
N441 C434 1.356 . S
N441 H444 0.984 . S
N441 H445 0.985 . S
H442 N437 0.984 . S
H443 N437 0.985 . S
H444 N441 0.984 . S
H445 N441 0.985 . S
H446 N440 0.984 . S
H447 N440 0.984 . S
H448 N436 0.984 . S
H449 N436 0.985 . S
C450 C451 1.363 . S
C450 C456 1.379 . S
C450 N458 1.356 . S
C451 C450 1.363 . S
C451 C457 1.363 . S
C452 C453 1.363 . S
C452 C457 1.379 . S
C452 N459 1.356 . S
C453 C452 1.363 . S
C453 C456 1.363 . S
N454 C456 1.356 . S
N454 H466 0.984 . S
N454 H467 0.985 . S
N455 C457 1.356 . S
N455 H460 0.984 . S
N455 H461 0.985 . S
C456 C450 1.379 . S
C456 C453 1.363 . S
C456 N454 1.356 . S
C457 C451 1.363 . S
C457 C452 1.379 . S
C457 N455 1.356 . S
N458 C450 1.356 . S
N458 H464 0.984 . S
N458 H465 0.984 . S
N459 C452 1.356 . S
N459 H462 0.984 . S
N459 H463 0.985 . S
H460 N455 0.984 . S
H461 N455 0.985 . S
H462 N459 0.984 . S
H463 N459 0.985 . S
H464 N458 0.984 . S
H465 N458 0.984 . S
H466 N454 0.984 . S
H467 N454 0.985 . S
C468 C469 1.363 . S
C468 C474 1.379 . S
C468 N476 1.356 . S
C469 C468 1.363 . S
C469 C475 1.363 . S
C470 C471 1.363 . S
C470 C475 1.379 . S
C470 N477 1.356 . S
C471 C470 1.363 . S
C471 C474 1.363 . S
N472 C474 1.356 . S
N472 H484 0.984 . S
N472 H485 0.985 . S
N473 C475 1.356 . S
N473 H478 0.984 . S
N473 H479 0.985 . S
C474 C468 1.379 . S
C474 C471 1.363 . S
C474 N472 1.356 . S
C475 C469 1.363 . S
C475 C470 1.379 . S
C475 N473 1.356 . S
N476 C468 1.356 . S
N476 H482 0.984 . S
N476 H483 0.984 . S
N477 C470 1.356 . S
N477 H480 0.984 . S
N477 H481 0.985 . S
H478 N473 0.984 . S
H479 N473 0.985 . S
H480 N477 0.984 . S
H481 N477 0.985 . S
H482 N476 0.984 . S
H483 N476 0.984 . S
H484 N472 0.984 . S
H485 N472 0.985 . S
C486 C487 1.363 . S
C486 C492 1.379 . S
C486 N494 1.356 . S
C487 C486 1.363 . S
C487 C493 1.363 . S
C488 C489 1.363 . S
C488 C493 1.379 . S
C488 N495 1.356 . S
C489 C488 1.363 . S
C489 C492 1.363 . S
N490 C492 1.356 . S
N490 H502 0.984 . S
N490 H503 0.985 . S
N491 C493 1.356 . S
N491 H496 0.984 . S
N491 H497 0.985 . S
C492 C486 1.379 . S
C492 C489 1.363 . S
C492 N490 1.356 . S
C493 C487 1.363 . S
C493 C488 1.379 . S
C493 N491 1.356 . S
N494 C486 1.356 . S
N494 H500 0.984 . S
N494 H501 0.984 . S
N495 C488 1.356 . S
N495 H498 0.984 . S
N495 H499 0.985 . S
H496 N491 0.984 . S
H497 N491 0.985 . S
H498 N495 0.984 . S
H499 N495 0.985 . S
H500 N494 0.984 . S
H501 N494 0.984 . S
H502 N490 0.984 . S
H503 N490 0.985 . S
C504 C505 1.363 . S
C504 C510 1.379 1_556 S
C504 N512 1.356 . S
C505 C504 1.363 . S
C505 C511 1.363 . S
C506 C507 1.363 1_556 S
C506 C511 1.379 . S
C506 N513 1.356 . S
C507 C506 1.363 1_554 S
C507 C510 1.363 . S
N508 C510 1.356 . S
N508 H520 0.984 . S
N508 H521 0.985 . S
N509 C511 1.356 . S
N509 H514 0.984 . S
N509 H515 0.985 . S
C510 C504 1.379 1_554 S
C510 C507 1.363 . S
C510 N508 1.356 . S
C511 C505 1.363 . S
C511 C506 1.379 . S
C511 N509 1.356 . S
N512 C504 1.356 . S
N512 H518 0.984 1_556 S
N512 H519 0.984 . S
N513 C506 1.356 . S
N513 H516 0.984 1_556 S
N513 H517 0.985 . S
H514 N509 0.984 . S
H515 N509 0.985 . S
H516 N513 0.984 1_554 S
H517 N513 0.985 . S
H518 N512 0.984 1_554 S
H519 N512 0.984 . S
H520 N508 0.984 . S
H521 N508 0.985 . S
C522 C523 1.363 . S
C522 C528 1.379 . S
C522 N530 1.356 . S
C523 C522 1.363 . S
C523 C529 1.363 . S
C524 C525 1.363 . S
C524 C529 1.379 . S
C524 N531 1.356 . S
C525 C524 1.363 . S
C525 C528 1.363 . S
N526 C528 1.356 . S
N526 H538 0.984 . S
N526 H539 0.985 . S
N527 C529 1.356 . S
N527 H532 0.984 . S
N527 H533 0.985 . S
C528 C522 1.379 . S
C528 C525 1.363 . S
C528 N526 1.356 . S
C529 C523 1.363 . S
C529 C524 1.379 . S
C529 N527 1.356 . S
N530 C522 1.356 . S
N530 H536 0.984 . S
N530 H537 0.984 . S
N531 C524 1.356 . S
N531 H534 0.984 . S
N531 H535 0.985 . S
H532 N527 0.984 . S
H533 N527 0.985 . S
H534 N531 0.984 . S
H535 N531 0.985 . S
H536 N530 0.984 . S
H537 N530 0.984 . S
H538 N526 0.984 . S
H539 N526 0.985 . S
C540 C541 1.363 . S
C540 C546 1.379 . S
C540 N548 1.356 . S
C541 C540 1.363 . S
C541 C547 1.363 . S
C542 C543 1.363 . S
C542 C547 1.379 . S
C542 N549 1.356 . S
C543 C542 1.363 . S
C543 C546 1.363 . S
N544 C546 1.356 . S
N544 H556 0.984 . S
N544 H557 0.985 . S
N545 C547 1.356 1_556 S
N545 H550 0.984 . S
N545 H551 0.985 . S
C546 C540 1.379 . S
C546 C543 1.363 . S
C546 N544 1.356 . S
C547 C541 1.363 . S
C547 C542 1.379 . S
C547 N545 1.356 1_554 S
N548 C540 1.356 . S
N548 H554 0.984 . S
N548 H555 0.984 . S
N549 C542 1.356 . S
N549 H552 0.984 . S
N549 H553 0.985 . S
H550 N545 0.984 . S
H551 N545 0.985 . S
H552 N549 0.984 . S
H553 N549 0.985 . S
H554 N548 0.984 . S
H555 N548 0.984 . S
H556 N544 0.984 . S
H557 N544 0.985 . S
C558 C559 1.363 . S
C558 C564 1.379 . S
C558 N566 1.356 . S
C559 C558 1.363 . S
C559 C565 1.363 . S
C560 C561 1.363 . S
C560 C565 1.379 . S
C560 N567 1.356 . S
C561 C560 1.363 . S
C561 C564 1.363 . S
N562 C564 1.356 . S
N562 H574 0.984 . S
N562 H575 0.985 . S
N563 C565 1.356 . S
N563 H568 0.984 . S
N563 H569 0.985 . S
C564 C558 1.379 . S
C564 C561 1.363 . S
C564 N562 1.356 . S
C565 C559 1.363 . S
C565 C560 1.379 . S
C565 N563 1.356 . S
N566 C558 1.356 . S
N566 H572 0.984 . S
N566 H573 0.984 . S
N567 C560 1.356 . S
N567 H570 0.984 . S
N567 H571 0.985 . S
H568 N563 0.984 . S
H569 N563 0.985 . S
H570 N567 0.984 . S
H571 N567 0.985 . S
H572 N566 0.984 . S
H573 N566 0.984 . S
H574 N562 0.984 . S
H575 N562 0.985 . S
C576 C577 1.363 . S
C576 C582 1.379 . S
C576 N584 1.356 . S
C577 C576 1.363 . S
C577 C583 1.363 . S
C578 C579 1.363 . S
C578 C583 1.379 . S
C578 N585 1.356 . S
C579 C578 1.363 . S
C579 C582 1.363 . S
N580 C582 1.356 . S
N580 H592 0.984 . S
N580 H593 0.985 . S
N581 C583 1.356 . S
N581 H586 0.984 . S
N581 H587 0.985 . S
C582 C576 1.379 . S
C582 C579 1.363 . S
C582 N580 1.356 . S
C583 C577 1.363 . S
C583 C578 1.379 . S
C583 N581 1.356 . S
N584 C576 1.356 . S
N584 H590 0.984 . S
N584 H591 0.984 . S
N585 C578 1.356 . S
N585 H588 0.984 . S
N585 H589 0.985 . S
H586 N581 0.984 . S
H587 N581 0.985 . S
H588 N585 0.984 . S
H589 N585 0.985 . S
H590 N584 0.984 . S
H591 N584 0.984 . S
H592 N580 0.984 . S
H593 N580 0.985 . S
C594 C595 1.363 . S
C594 C600 1.379 . S
C594 N602 1.356 . S
C595 C594 1.363 . S
C595 C601 1.363 . S
C596 C597 1.363 . S
C596 C601 1.379 . S
C596 N603 1.356 . S
C597 C596 1.363 . S
C597 C600 1.363 . S
N598 C600 1.356 . S
N598 H610 0.984 . S
N598 H611 0.985 . S
N599 C601 1.356 . S
N599 H604 0.984 . S
N599 H605 0.985 . S
C600 C594 1.379 . S
C600 C597 1.363 . S
C600 N598 1.356 . S
C601 C595 1.363 . S
C601 C596 1.379 . S
C601 N599 1.356 . S
N602 C594 1.356 . S
N602 H608 0.984 . S
N602 H609 0.984 . S
N603 C596 1.356 . S
N603 H606 0.984 . S
N603 H607 0.985 . S
H604 N599 0.984 . S
H605 N599 0.985 . S
H606 N603 0.984 . S
H607 N603 0.985 . S
H608 N602 0.984 . S
H609 N602 0.984 . S
H610 N598 0.984 . S
H611 N598 0.985 . S
C612 C613 1.363 . S
C612 C618 1.379 . S
C612 N620 1.356 . S
C613 C612 1.363 . S
C613 C619 1.363 . S
C614 C615 1.363 . S
C614 C619 1.379 . S
C614 N621 1.356 . S
C615 C614 1.363 . S
C615 C618 1.363 . S
N616 C618 1.356 . S
N616 H628 0.984 . S
N616 H629 0.985 . S
N617 C619 1.356 . S
N617 H622 0.984 . S
N617 H623 0.985 . S
C618 C612 1.379 . S
C618 C615 1.363 . S
C618 N616 1.356 . S
C619 C613 1.363 . S
C619 C614 1.379 . S
C619 N617 1.356 . S
N620 C612 1.356 . S
N620 H626 0.984 . S
N620 H627 0.984 . S
N621 C614 1.356 . S
N621 H624 0.984 . S
N621 H625 0.985 . S
H622 N617 0.984 . S
H623 N617 0.985 . S
H624 N621 0.984 . S
H625 N621 0.985 . S
H626 N620 0.984 . S
H627 N620 0.984 . S
H628 N616 0.984 . S
H629 N616 0.985 . S
C630 C631 1.363 . S
C630 C636 1.379 . S
C630 N638 1.356 . S
C631 C630 1.363 . S
C631 C637 1.363 1_556 S
C632 C633 1.363 1_554 S
C632 C637 1.379 . S
C632 N639 1.356 . S
C633 C632 1.363 1_556 S
C633 C636 1.363 . S
N634 C636 1.356 . S
N634 H646 0.984 . S
N634 H647 0.985 . S
N635 C637 1.356 . S
N635 H640 0.984 . S
N635 H641 0.985 . S
C636 C630 1.379 . S
C636 C633 1.363 . S
C636 N634 1.356 . S
C637 C631 1.363 1_554 S
C637 C632 1.379 . S
C637 N635 1.356 . S
N638 C630 1.356 . S
N638 H644 0.984 . S
N638 H645 0.984 . S
N639 C632 1.356 . S
N639 H642 0.984 . S
N639 H643 0.985 . S
H640 N635 0.984 . S
H641 N635 0.985 . S
H642 N639 0.984 . S
H643 N639 0.985 . S
H644 N638 0.984 . S
H645 N638 0.984 . S
H646 N634 0.984 . S
H647 N634 0.985 . S
C648 C649 1.363 . S
C648 C654 1.379 . S
C648 N656 1.356 . S
C649 C648 1.363 . S
C649 C655 1.363 . S
C650 C651 1.363 . S
C650 C655 1.379 . S
C650 N657 1.356 . S
C651 C650 1.363 . S
C651 C654 1.363 . S
N652 C654 1.356 . S
N652 H664 0.984 . S
N652 H665 0.985 . S
N653 C655 1.356 . S
N653 H658 0.984 . S
N653 H659 0.985 . S
C654 C648 1.379 . S
C654 C651 1.363 . S
C654 N652 1.356 . S
C655 C649 1.363 . S
C655 C650 1.379 . S
C655 N653 1.356 . S
N656 C648 1.356 . S
N656 H662 0.984 . S
N656 H663 0.984 . S
N657 C650 1.356 . S
N657 H660 0.984 . S
N657 H661 0.985 . S
H658 N653 0.984 . S
H659 N653 0.985 . S
H660 N657 0.984 . S
H661 N657 0.985 . S
H662 N656 0.984 . S
H663 N656 0.984 . S
H664 N652 0.984 . S
H665 N652 0.985 . S
C666 C667 1.363 1_556 S
C666 C672 1.379 . S
C666 N674 1.356 . S
C667 C666 1.363 1_554 S
C667 C673 1.363 . S
C668 C669 1.363 . S
C668 C673 1.379 1_556 S
C668 N675 1.356 . S
C669 C668 1.363 . S
C669 C672 1.363 . S
N670 C672 1.356 . S
N670 H682 0.984 . S
N670 H683 0.985 . S
N671 C673 1.356 . S
N671 H676 0.984 . S
N671 H677 0.985 . S
C672 C666 1.379 . S
C672 C669 1.363 . S
C672 N670 1.356 . S
C673 C667 1.363 . S
C673 C668 1.379 1_554 S
C673 N671 1.356 . S
N674 C666 1.356 . S
N674 H680 0.984 . S
N674 H681 0.984 1_556 S
N675 C668 1.356 . S
N675 H678 0.984 . S
N675 H679 0.985 . S
H676 N671 0.984 . S
H677 N671 0.985 . S
H678 N675 0.984 . S
H679 N675 0.985 . S
H680 N674 0.984 . S
H681 N674 0.984 1_554 S
H682 N670 0.984 . S
H683 N670 0.985 . S
C684 C685 1.363 . S
C684 C690 1.379 . S
C684 N692 1.356 . S
C685 C684 1.363 . S
C685 C691 1.363 . S
C686 C687 1.363 . S
C686 C691 1.379 . S
C686 N693 1.356 1_554 S
C687 C686 1.363 . S
C687 C690 1.363 . S
N688 C690 1.356 . S
N688 H700 0.984 . S
N688 H701 0.985 . S
N689 C691 1.356 . S
N689 H694 0.984 . S
N689 H695 0.985 . S
C690 C684 1.379 . S
C690 C687 1.363 . S
C690 N688 1.356 . S
C691 C685 1.363 . S
C691 C686 1.379 . S
C691 N689 1.356 . S
N692 C684 1.356 . S
N692 H698 0.984 . S
N692 H699 0.984 . S
N693 C686 1.356 1_556 S
N693 H696 0.984 . S
N693 H697 0.985 . S
H694 N689 0.984 . S
H695 N689 0.985 . S
H696 N693 0.984 . S
H697 N693 0.985 . S
H698 N692 0.984 . S
H699 N692 0.984 . S
H700 N688 0.984 . S
H701 N688 0.985 . S
C702 C703 1.363 . S
C702 C708 1.379 . S
C702 N710 1.356 . S
C703 C702 1.363 . S
C703 C709 1.363 . S
C704 C705 1.363 . S
C704 C709 1.379 . S
C704 N711 1.356 . S
C705 C704 1.363 . S
C705 C708 1.363 . S
N706 C708 1.356 . S
N706 H718 0.984 . S
N706 H719 0.985 . S
N707 C709 1.356 . S
N707 H712 0.984 . S
N707 H713 0.985 . S
C708 C702 1.379 . S
C708 C705 1.363 . S
C708 N706 1.356 . S
C709 C703 1.363 . S
C709 C704 1.379 . S
C709 N707 1.356 . S
N710 C702 1.356 . S
N710 H716 0.984 . S
N710 H717 0.984 . S
N711 C704 1.356 . S
N711 H714 0.984 . S
N711 H715 0.985 . S
H712 N707 0.984 . S
H713 N707 0.985 . S
H714 N711 0.984 . S
H715 N711 0.985 . S
H716 N710 0.984 . S
H717 N710 0.984 . S
H718 N706 0.984 . S
H719 N706 0.985 . S
C720 C721 1.363 . S
C720 C726 1.379 . S
C720 N728 1.356 . S
C721 C720 1.363 . S
C721 C727 1.363 . S
C722 C723 1.363 . S
C722 C727 1.379 . S
C722 N729 1.356 . S
C723 C722 1.363 . S
C723 C726 1.363 . S
N724 C726 1.356 . S
N724 H736 0.984 . S
N724 H737 0.985 . S
N725 C727 1.356 . S
N725 H730 0.984 . S
N725 H731 0.985 . S
C726 C720 1.379 . S
C726 C723 1.363 . S
C726 N724 1.356 . S
C727 C721 1.363 . S
C727 C722 1.379 . S
C727 N725 1.356 . S
N728 C720 1.356 . S
N728 H734 0.984 . S
N728 H735 0.984 . S
N729 C722 1.356 . S
N729 H732 0.984 . S
N729 H733 0.985 . S
H730 N725 0.984 . S
H731 N725 0.985 . S
H732 N729 0.984 . S
H733 N729 0.985 . S
H734 N728 0.984 . S
H735 N728 0.984 . S
H736 N724 0.984 . S
H737 N724 0.985 . S
C738 C739 1.363 . S
C738 C744 1.379 . S
C738 N746 1.356 . S
C739 C738 1.363 . S
C739 C745 1.363 . S
C740 C741 1.363 . S
C740 C745 1.379 . S
C740 N747 1.356 . S
C741 C740 1.363 . S
C741 C744 1.363 . S
N742 C744 1.356 . S
N742 H754 0.984 . S
N742 H755 0.985 . S
N743 C745 1.356 . S
N743 H748 0.984 . S
N743 H749 0.985 . S
C744 C738 1.379 . S
C744 C741 1.363 . S
C744 N742 1.356 . S
C745 C739 1.363 . S
C745 C740 1.379 . S
C745 N743 1.356 . S
N746 C738 1.356 . S
N746 H752 0.984 . S
N746 H753 0.984 . S
N747 C740 1.356 . S
N747 H750 0.984 . S
N747 H751 0.985 . S
H748 N743 0.984 . S
H749 N743 0.985 . S
H750 N747 0.984 . S
H751 N747 0.985 . S
H752 N746 0.984 . S
H753 N746 0.984 . S
H754 N742 0.984 . S
H755 N742 0.985 . S
C756 C757 1.363 . S
C756 C762 1.379 . S
C756 N764 1.356 . S
C757 C756 1.363 . S
C757 C763 1.363 1_455 S
C758 C759 1.363 . S
C758 C763 1.379 . S
C758 N765 1.356 . S
C759 C758 1.363 . S
C759 C762 1.363 1_655 S
N760 C762 1.356 1_655 S
N760 H772 0.984 1_655 S
N760 H773 0.985 . S
N761 C763 1.356 1_454 S
N761 H766 0.984 . S
N761 H767 0.985 1_455 S
C762 C756 1.379 . S
C762 C759 1.363 1_455 S
C762 N760 1.356 1_455 S
C763 C757 1.363 1_655 S
C763 C758 1.379 . S
C763 N761 1.356 1_656 S
N764 C756 1.356 . S
N764 H770 0.984 . S
N764 H771 0.984 . S
N765 C758 1.356 . S
N765 H768 0.984 . S
N765 H769 0.985 . S
H766 N761 0.984 . S
H767 N761 0.985 1_655 S
H768 N765 0.984 . S
H769 N765 0.985 . S
H770 N764 0.984 . S
H771 N764 0.984 . S
H772 N760 0.984 1_455 S
H773 N760 0.985 . S
C774 C775 1.377 . S
C774 C780 1.357 1_566 S
C774 N782 1.370 . S
C775 C774 1.377 . S
C775 C781 1.363 1_556 S
C776 C777 1.377 . S
C776 C781 1.358 1_545 S
C776 N783 1.370 . S
C777 C776 1.377 . S
C777 C780 1.363 . S
N778 C780 1.356 . S
N778 H790 0.984 1_554 S
N778 H791 0.985 . S
N779 C781 1.356 . S
N779 H784 0.984 . S
N779 H785 0.985 . S
C780 C774 1.357 1_544 S
C780 C777 1.363 . S
C780 N778 1.356 . S
C781 C775 1.363 1_554 S
C781 C776 1.358 1_565 S
C781 N779 1.356 . S
N782 C774 1.370 . S
N782 H788 0.984 1_565 S
N782 H789 0.984 . S
N783 C776 1.370 . S
N783 H786 0.984 . S
N783 H787 0.985 1_545 S
H784 N779 0.984 . S
H785 N779 0.985 . S
H786 N783 0.984 . S
H787 N783 0.985 1_565 S
H788 N782 0.984 1_545 S
H789 N782 0.984 . S
H790 N778 0.984 1_556 S
H791 N778 0.985 . S
C792 C793 1.363 . S
C792 C798 1.379 . S
C792 N800 1.356 . S
C793 C792 1.363 . S
C793 C799 1.363 . S
C794 C795 1.363 . S
C794 C799 1.379 . S
C794 N801 1.356 . S
C795 C794 1.363 . S
C795 C798 1.363 . S
N796 C798 1.356 . S
N796 H808 0.984 . S
N796 H809 0.985 . S
N797 C799 1.356 . S
N797 H802 0.984 . S
N797 H803 0.985 . S
C798 C792 1.379 . S
C798 C795 1.363 . S
C798 N796 1.356 . S
C799 C793 1.363 . S
C799 C794 1.379 . S
C799 N797 1.356 . S
N800 C792 1.356 . S
N800 H806 0.984 . S
N800 H807 0.984 . S
N801 C794 1.356 . S
N801 H804 0.984 . S
N801 H805 0.985 . S
H802 N797 0.984 . S
H803 N797 0.985 . S
H804 N801 0.984 . S
H805 N801 0.985 . S
H806 N800 0.984 . S
H807 N800 0.984 . S
H808 N796 0.984 . S
H809 N796 0.985 . S
C810 C811 1.363 . S
C810 C816 1.379 1_455 S
C810 N818 1.356 . S
C811 C810 1.363 . S
C811 C817 1.363 . S
C812 C813 1.363 . S
C812 C817 1.379 1_655 S
C812 N819 1.356 . S
C813 C812 1.363 . S
C813 C816 1.363 . S
N814 C816 1.356 . S
N814 H826 0.984 . S
N814 H827 0.985 . S
N815 C817 1.356 . S
N815 H820 0.984 . S
N815 H821 0.985 . S
C816 C810 1.379 1_655 S
C816 C813 1.363 . S
C816 N814 1.356 . S
C817 C811 1.363 . S
C817 C812 1.379 1_455 S
C817 N815 1.356 . S
N818 C810 1.356 . S
N818 H824 0.984 . S
N818 H825 0.984 . S
N819 C812 1.356 . S
N819 H822 0.984 . S
N819 H823 0.985 . S
H820 N815 0.984 . S
H821 N815 0.985 . S
H822 N819 0.984 . S
H823 N819 0.985 . S
H824 N818 0.984 . S
H825 N818 0.984 . S
H826 N814 0.984 . S
H827 N814 0.985 . S
C828 C829 1.363 1_565 S
C828 C834 1.379 . S
C828 N836 1.356 1_565 S
C829 C828 1.363 1_545 S
C829 C835 1.363 . S
C830 C831 1.363 1_545 S
C830 C835 1.379 . S
C830 N837 1.356 1_545 S
C831 C830 1.363 1_565 S
C831 C834 1.363 . S
N832 C834 1.356 . S
N832 H844 0.984 . S
N832 H845 0.985 . S
N833 C835 1.356 . S
N833 H838 0.984 . S
N833 H839 0.985 . S
C834 C828 1.379 . S
C834 C831 1.363 . S
C834 N832 1.356 . S
C835 C829 1.363 . S
C835 C830 1.379 . S
C835 N833 1.356 . S
N836 C828 1.356 1_545 S
N836 H842 0.984 1_545 S
N836 H843 0.984 . S
N837 C830 1.356 1_565 S
N837 H840 0.984 . S
N837 H841 0.985 1_565 S
H838 N833 0.984 . S
H839 N833 0.985 . S
H840 N837 0.984 . S
H841 N837 0.985 1_545 S
H842 N836 0.984 1_565 S
H843 N836 0.984 . S
H844 N832 0.984 . S
H845 N832 0.985 . S
C846 C847 1.363 . S
C846 C852 1.379 . S
C846 N854 1.356 . S
C847 C846 1.363 . S
C847 C853 1.363 . S
C848 C849 1.363 . S
C848 C853 1.379 . S
C848 N855 1.356 . S
C849 C848 1.363 . S
C849 C852 1.363 . S
N850 C852 1.356 . S
N850 H862 0.984 . S
N850 H863 0.985 . S
N851 C853 1.356 . S
N851 H856 0.984 . S
N851 H857 0.985 . S
C852 C846 1.379 . S
C852 C849 1.363 . S
C852 N850 1.356 . S
C853 C847 1.363 . S
C853 C848 1.379 . S
C853 N851 1.356 . S
N854 C846 1.356 . S
N854 H860 0.984 . S
N854 H861 0.984 . S
N855 C848 1.356 . S
N855 H858 0.984 . S
N855 H859 0.985 . S
H856 N851 0.984 . S
H857 N851 0.985 . S
H858 N855 0.984 . S
H859 N855 0.985 . S
H860 N854 0.984 . S
H861 N854 0.984 . S
H862 N850 0.984 . S
H863 N850 0.985 . S
C433 C3 1.335 . S
C435 C363 1.335 . S
C451 C399 1.335 . S
C453 C39 1.335 . S
C469 C75 1.334 . S
C471 C219 1.334 . S
C487 C111 1.334 . S
C489 C255 1.334 . S
C505 C147 1.335 . S
C507 C291 1.335 . S
C523 C327 1.335 . S
C525 C183 1.335 . S
C541 C14 1.536 . S
C543 C302 1.536 . S
C559 C50 1.536 . S
C561 C338 1.536 . S
C577 C374 1.536 . S
C579 C86 1.536 . S
C595 C122 1.536 . S
C597 C410 1.536 . S
C613 C158 1.536 . S
C615 C230 1.536 . S
C631 C194 1.536 . S
C633 C266 1.536 1_556 S
C649 C362 1.488 . S
C651 C2 1.488 . S
C667 C38 1.488 . S
C669 C398 1.488 . S
C685 C74 1.488 . S
C687 C218 1.488 . S
C703 C110 1.488 . S
C705 C254 1.488 . S
C721 C290 1.488 . S
C723 C146 1.488 . S
C739 C182 1.488 . S
C741 C326 1.488 . S
C757 C4 1.400 . S
C759 C400 1.400 . S
C775 C220 1.400 . S
C777 C40 1.400 . S
C793 C256 1.400 . S
C795 C76 1.400 . S
C811 C292 1.400 . S
C813 C112 1.400 . S
C829 C328 1.400 . S
C831 C148 1.400 . S
C847 C364 1.400 . S
C849 C184 1.400 . S
