# Generated by pormake.
# Topology wme, (6)-cn, num edge types: 1
# Building blocks:
#     Node 0, Type 0, BuildingBlock: KUMBOL_clean_sbu_0, # of connection points: 6
#     Node 1, Type 0, BuildingBlock: KUMBOL_clean_sbu_0, # of connection points: 6
#     Node 2, Type 0, BuildingBlock: KUMBOL_clean_sbu_0, # of connection points: 6
#     Node 3, Type 0, BuildingBlock: KUMBOL_clean_sbu_0, # of connection points: 6
#     Node 4, Type 0, BuildingBlock: KUMBOL_clean_sbu_0, # of connection points: 6
#     Node 5, Type 0, BuildingBlock: KUMBOL_clean_sbu_0, # of connection points: 6
#     Node 6, Type 0, BuildingBlock: KUMBOL_clean_sbu_0, # of connection points: 6
#     Node 7, Type 0, BuildingBlock: KUMBOL_clean_sbu_0, # of connection points: 6
#     Node 8, Type 0, BuildingBlock: KUMBOL_clean_sbu_0, # of connection points: 6
#     Node 9, Type 0, BuildingBlock: KUMBOL_clean_sbu_0, # of connection points: 6
#     Node 10, Type 0, BuildingBlock: KUMBOL_clean_sbu_0, # of connection points: 6
#     Node 11, Type 0, BuildingBlock: KUMBOL_clean_sbu_0, # of connection points: 6
#     Edge 12, Type (0, 0), None
#     Edge 13, Type (0, 0), None
#     Edge 14, Type (0, 0), None
#     Edge 15, Type (0, 0), None
#     Edge 16, Type (0, 0), None
#     Edge 17, Type (0, 0), None
#     Edge 18, Type (0, 0), None
#     Edge 19, Type (0, 0), None
#     Edge 20, Type (0, 0), None
#     Edge 21, Type (0, 0), None
#     Edge 22, Type (0, 0), None
#     Edge 23, Type (0, 0), None
#     Edge 24, Type (0, 0), None
#     Edge 25, Type (0, 0), None
#     Edge 26, Type (0, 0), None
#     Edge 27, Type (0, 0), None
#     Edge 28, Type (0, 0), None
#     Edge 29, Type (0, 0), None
#     Edge 30, Type (0, 0), None
#     Edge 31, Type (0, 0), None
#     Edge 32, Type (0, 0), None
#     Edge 33, Type (0, 0), None
#     Edge 34, Type (0, 0), None
#     Edge 35, Type (0, 0), None
#     Edge 36, Type (0, 0), None
#     Edge 37, Type (0, 0), None
#     Edge 38, Type (0, 0), None
#     Edge 39, Type (0, 0), None
#     Edge 40, Type (0, 0), None
#     Edge 41, Type (0, 0), None
#     Edge 42, Type (0, 0), None
#     Edge 43, Type (0, 0), None
#     Edge 44, Type (0, 0), None
#     Edge 45, Type (0, 0), None
#     Edge 46, Type (0, 0), None
#     Edge 47, Type (0, 0), None
# Relax obj value: 0.087
# Max RMSD: 0.245
# Mean RMSD: 0.245
data_MOF--net-wme--node1-KUMBOL_clean_sbu_0--edge1-none
_symmetry_space_group_name_H-M    P1
_symmetry_Int_Tables_number       1
_symmetry_cell_setting            triclinic
loop_
_symmetry_equiv_pos_as_xyz
'x, y, z'
_cell_length_a     22.325489
_cell_length_b     22.324046
_cell_length_c     24.58344
_cell_angle_alpha  90.002352
_cell_angle_beta   90.008092
_cell_angle_gamma 120.00918
loop_
_atom_site_label
_atom_site_type_symbol
_atom_site_fract_x
_atom_site_fract_y
_atom_site_fract_z
_atom_type_partial_charge
Gd0 Gd 0.26612 0.29394 0.09288 0.0
Gd1 Gd 0.17701 0.38271 0.05187 0.0
C2 C 0.91654 0.24433 0.04888 0.0
C3 C 0.87175 0.34232 -0.0188 0.0
C4 C 0.04873 0.37143 0.00851 0.0
C5 C 1.00902 0.29528 0.04119 0.0
C6 C 0.96552 0.41123 0.96589 0.0
C7 C 0.8519 0.26241 0.01812 0.0
C8 C 0.90231 0.22468 0.10329 0.0
C9 C 0.95494 0.24007 0.14174 0.0
N10 N 0.05377 0.29996 0.0794 0.0
C11 C 0.0266 0.27439 0.12989 0.0
H12 H 0.05884 0.27874 0.16347 0.0
C13 C 0.09901 0.4278 0.88851 0.0
N14 N 0.10163 0.38315 0.96562 0.0
C15 C 0.04792 0.45419 0.87243 0.0
C16 C 0.99008 0.451 0.90835 0.0
H17 H 0.13734 0.44896 0.85533 0.0
H18 H 0.79878 0.22967 0.03054 0.0
H19 H 0.4002 0.41022 0.0086 0.0
H20 H 0.84961 0.2023 0.11778 0.0
H21 H 0.93928 0.2235 0.1833 0.0
H22 H 0.91521 0.38461 -0.03173 0.0
H23 H 0.30012 0.42934 0.1878 0.0
H24 H 0.58231 0.41477 0.06705 0.0
H25 H 0.52166 0.44367 -0.00343 0.0
H26 H 0.54199 0.40863 0.2507 0.0
H27 H 0.06416 0.48963 0.83908 0.0
H28 H 0.97186 0.48504 0.89766 0.0
H29 H 0.58337 0.38408 0.16554 0.0
H30 H 0.38866 0.50062 0.24985 0.0
N31 N 0.38807 0.35347 0.08084 0.0
C32 C 0.5274 0.39584 0.07097 0.0
C33 C 0.49396 0.41339 0.03142 0.0
C34 C 0.49329 0.36769 0.11992 0.0
C35 C 0.42312 0.34966 0.12422 0.0
C36 C 0.42463 0.3937 0.03787 0.0
N37 N 0.33995 0.36185 0.16788 0.0
C38 C 0.39805 0.35741 0.17281 0.0
C39 C 0.38867 0.45612 0.23244 0.0
C40 C 0.44281 0.44448 0.24258 0.0
C41 C 0.33741 0.41399 0.19589 0.0
C42 C 0.44636 0.39176 0.215 0.0
H43 H 0.48716 0.48442 0.26373 0.0
O44 O 0.24631 0.20179 0.0496 0.0
O45 O 0.16151 0.28629 0.08361 0.0
O46 O 0.1713 0.36114 0.14953 0.0
O47 O 0.21795 0.29084 0.1734 0.0
O48 O 0.17371 0.21672 0.04251 0.0
O49 O 0.27611 0.21377 0.13388 0.0
O50 O 0.23771 0.49304 0.04394 0.0
O51 O 0.28171 0.39097 0.05503 0.0
O52 O 0.30116 0.29268 0.01355 0.0
O53 O 0.23832 0.34583 -0.01787 0.0
O54 O 0.26855 0.45609 0.1033 0.0
O55 O 0.1463 0.45649 0.08905 0.0
C56 C 0.12781 0.23217 0.0555 0.0
C57 C 0.5076 0.38893 0.21607 0.0
C58 C 0.53106 0.37514 0.16751 0.0
C59 C 0.25468 0.17276 0.09121 0.0
C60 C 0.20116 0.10042 0.09802 0.0
C61 C 0.1672 0.08524 0.1466 0.0
C62 C 0.18668 0.04582 0.06076 0.0
C63 C 0.14314 0.97671 0.07873 0.0
C64 C 0.11403 0.02095 0.15707 0.0
C65 C 0.10728 0.96604 0.12706 0.0
C66 C 0.18861 0.32711 0.18761 0.0
C67 C 0.31598 0.44642 0.08245 0.0
C68 C 0.20314 0.51196 0.07424 0.0
C69 C 0.20958 0.58153 0.05861 0.0
C70 C 0.24795 0.61439 0.01173 0.0
C71 C 0.17996 0.61749 0.0861 0.0
C72 C 0.17158 0.66885 0.05671 0.0
C73 C 0.23272 0.65658 -0.01919 0.0
C74 C 0.19118 0.68014 0.00197 0.0
C75 C 0.27574 0.31018 -0.02743 0.0
H76 H 0.18211 0.12478 0.17649 0.0
H77 H 0.21356 0.05636 0.02224 0.0
H78 H 0.08309 1.01581 0.19136 0.0
H79 H 0.07829 0.91481 0.14297 0.0
H80 H 0.28262 0.60012 -0.00598 0.0
H81 H 0.16036 0.60346 0.12715 0.0
H82 H 0.25655 0.6742 0.94134 0.0
H83 H 0.18376 0.71618 -0.0221 0.0
Gd84 Gd 0.98858 0.25803 0.59274 0.0
Gd85 Gd 0.8107 0.16899 0.55179 0.0
C86 C 0.68845 0.90855 0.54865 0.0
C87 C 0.54571 0.86393 0.48096 0.0
C88 C 0.69374 0.04087 0.50832 0.0
C89 C 0.73009 1.00105 0.54099 0.0
C90 C 0.57068 0.95772 0.46567 0.0
C91 C 0.6057 0.844 0.51787 0.0
C92 C 0.69387 0.89421 0.60302 0.0
C93 C 0.73098 0.94678 0.64153 0.0
N94 N 0.7701 0.04572 0.57926 0.0
C95 C 0.76833 0.01847 0.62976 0.0
H96 H 0.7961 0.05065 0.6634 0.0
C97 C 0.6877 0.09122 0.38832 0.0
N98 N 0.73495 0.09377 0.46544 0.0
C99 C 0.61021 0.04017 0.37221 0.0
C100 C 0.55552 0.98232 0.40812 0.0
H101 H 0.70488 0.12957 0.35515 0.0
H102 H 0.58523 0.79087 0.53033 0.0
H103 H 1.00634 0.39215 0.50853 0.0
H104 H 0.66356 0.84147 0.61744 0.0
H105 H 0.73181 0.93105 0.68309 0.0
H106 H 0.54695 0.90742 0.46803 0.0
H107 H 0.88718 0.29185 0.68774 0.0
H108 H 0.18374 0.57433 0.56717 0.0
H109 H 0.09427 0.51366 0.49661 0.0
H110 H 0.14973 0.53373 0.75079 0.0
H111 H 0.59108 0.05639 0.33879 0.0
H112 H 0.50326 0.96402 0.39733 0.0
H113 H 0.21561 0.57525 0.66563 0.0
H114 H 0.90442 0.38023 0.74993 0.0
N115 N 0.05089 0.38 0.5808 0.0
C116 C 0.1478 0.5194 0.57104 0.0
C117 C 0.09684 0.48595 0.53145 0.0
C118 C 0.14187 0.48522 0.61996 0.0
C119 C 0.08976 0.41503 0.6242 0.0
C120 C 0.04726 0.41659 0.53783 0.0
N121 N 0.99453 0.33167 0.66789 0.0
C122 C 0.05703 0.38983 0.67282 0.0
C123 C 0.94894 0.38027 0.73252 0.0
C124 C 1.01474 0.43438 0.74274 0.0
C125 C 0.93982 0.3291 0.69589 0.0
C126 C 0.07101 0.43806 0.71507 0.0
H127 H 1.01916 0.47867 0.76397 0.0
O128 O 0.06014 0.2374 0.54916 0.0
O129 O 0.89156 0.15343 0.58353 0.0
O130 O 0.82667 0.16319 0.64945 0.0
O131 O 0.94363 0.20977 0.67331 0.0
O132 O 0.9733 0.16547 0.54254 0.0
O133 O 0.07964 0.26907 0.63295 0.0
O134 O 0.76104 0.22963 0.54391 0.0
O135 O 0.90716 0.2737 0.55493 0.0
O136 O 0.0248 0.29312 0.51349 0.0
O137 O 0.90881 0.23027 0.48203 0.0
O138 O 0.82891 0.2605 0.60325 0.0
O139 O 0.70626 0.13824 0.58908 0.0
C140 C 0.91192 0.11962 0.55549 0.0
C141 C 0.13504 0.49937 0.71615 0.0
C142 C 0.17223 0.52293 0.66757 0.0
C143 C 0.09858 0.24696 0.59031 0.0
C144 C 0.11752 0.19361 0.59747 0.0
C145 C 0.09844 0.15978 0.64608 0.0
C146 C 0.1576 0.17883 0.56041 0.0
C147 C 0.18297 0.13524 0.57869 0.0
C148 C 0.10931 0.10655 0.65681 0.0
C149 C 0.15764 0.09967 0.62713 0.0
C150 C 0.87799 0.18037 0.68752 0.0
C151 C 0.88599 0.30795 0.58236 0.0
C152 C 0.70761 0.19507 0.57428 0.0
C153 C 0.64446 0.20148 0.55872 0.0
C154 C 0.6499 0.23981 0.51183 0.0
C155 C 0.57891 0.17179 0.58625 0.0
C156 C 0.51912 0.16333 0.55691 0.0
C157 C 0.59241 0.22446 0.48094 0.0
C158 C 0.52734 0.18286 0.50215 0.0
C159 C 0.98191 0.2675 0.47268 0.0
H160 H 0.07384 0.1749 0.67582 0.0
H161 H 0.17408 0.20554 0.52182 0.0
H162 H 0.08316 0.07573 0.69104 0.0
H163 H 0.17983 0.07079 0.64338 0.0
H164 H 0.69883 0.27457 0.49411 0.0
H165 H 0.57341 0.15221 0.6273 0.0
H166 H 0.59854 0.24826 0.44147 0.0
H167 H 0.48383 0.17536 0.4781 0.0
Gd168 Gd 0.74711 0.98049 0.09295 0.0
Gd169 Gd 0.65842 0.80241 0.05189 0.0
C170 C 0.79672 0.6803 0.04881 0.0
C171 C 0.6987 0.53751 -0.01891 0.0
C172 C 0.66962 0.6854 0.00845 0.0
C173 C 0.74578 0.72183 0.04114 0.0
C174 C 0.62979 0.56237 0.9658 0.0
C175 C 0.77861 0.59757 0.01803 0.0
C176 C 0.81651 0.68579 0.1032 0.0
C177 C 0.80112 0.72298 0.14167 0.0
N178 N 0.74113 0.76188 0.07937 0.0
C179 C 0.76671 0.76025 0.12986 0.0
H180 H 0.76229 0.78804 0.16348 0.0
C181 C 0.6132 0.67932 0.88845 0.0
N182 N 0.65789 0.7266 0.96558 0.0
C183 C 0.58683 0.60185 0.87234 0.0
C184 C 0.59004 0.54719 0.90825 0.0
H185 H 0.59203 0.69649 0.85528 0.0
H186 H 0.81133 0.57718 0.03047 0.0
H187 H 0.6312 0.99836 0.0086 0.0
H188 H 0.83885 0.65543 0.11767 0.0
H189 H 0.81772 0.72389 0.18323 0.0
H190 H 0.65641 0.53868 -0.03183 0.0
H191 H 0.61175 0.87862 0.18777 0.0
H192 H 0.62597 0.17549 0.06722 0.0
H193 H 0.59748 0.08616 -0.00339 0.0
H194 H 0.63129 0.14064 0.25084 0.0
H195 H 0.55153 0.5827 0.83888 0.0
H196 H 0.55611 0.49492 0.89746 0.0
H197 H 0.65624 0.20694 0.16583 0.0
H198 H 0.54026 0.89545 0.24984 0.0
N199 N 0.68759 0.04282 0.08099 0.0
C200 C 0.645 0.1396 0.07115 0.0
C201 C 0.62771 0.08875 0.03149 0.0
C202 C 0.67296 0.13351 0.12017 0.0
C203 C 0.69111 0.08146 0.12444 0.0
C204 C 0.64757 0.03925 0.0379 0.0
N205 N 0.67898 0.98604 0.16795 0.0
C206 C 0.68321 0.04847 0.17297 0.0
C207 C 0.58467 0.94009 0.23247 0.0
C208 C 0.59614 1.00579 0.24275 0.0
C209 C 0.62692 0.9312 0.1959 0.0
C210 C 0.64866 0.06219 0.21514 0.0
H211 H 0.55622 1.01001 0.26409 0.0
O212 O 0.83895 0.05333 0.04971 0.0
O213 O 0.75472 0.88354 0.08356 0.0
O214 O 0.68023 0.81846 0.14954 0.0
O215 O 0.75035 0.93547 0.17342 0.0
O216 O 0.82476 0.96563 0.043 0.0
O217 O 0.82741 0.07042 0.13423 0.0
O218 O 0.5481 0.75272 0.04399 0.0
O219 O 0.65016 0.89887 0.05509 0.0
O220 O 0.74853 0.01655 0.01339 0.0
O221 O 0.69526 0.90047 -0.01785 0.0
O222 O 0.5849 0.82043 0.1032 0.0
O223 O 0.58474 0.69793 0.08913 0.0
C224 C 0.80894 0.90407 0.05559 0.0
C225 C 0.65124 0.12616 0.21626 0.0
C226 C 0.66521 0.16359 0.16778 0.0
C227 C 0.86827 0.09025 0.09146 0.0
C228 C 0.94052 0.10856 0.09791 0.0
C229 C 0.95553 0.08857 0.14598 0.0
C230 C 0.99518 0.14901 0.06079 0.0
C231 C 0.06426 0.17421 0.07872 0.0
C232 C 1.0197 0.09924 0.15616 0.0
C233 C 0.07478 0.14822 0.12671 0.0
C234 C 0.71427 0.86985 0.1876 0.0
C235 C 0.59466 0.87762 0.08243 0.0
C236 C 0.52924 0.69927 0.07434 0.0
C237 C 0.45968 0.63611 0.05878 0.0
C238 C 0.42675 0.64157 0.01193 0.0
C239 C 0.4238 0.57055 0.08633 0.0
C240 C 0.37237 0.51079 0.05701 0.0
C241 C 0.38448 0.58409 -0.01892 0.0
C242 C 0.36099 0.51901 0.00227 0.0
C243 C 0.73095 0.97351 -0.0275 0.0
H244 H 0.91602 0.0637 0.17583 0.0
H245 H 0.98473 0.16586 0.02247 0.0
H246 H 1.0246 0.07263 0.18999 0.0
H247 H 0.12594 0.17033 0.14282 0.0
H248 H 0.44095 0.69052 -0.00579 0.0
H249 H 0.43791 0.56504 0.12737 0.0
H250 H 0.36667 0.59027 0.94168 0.0
H251 H 0.32487 0.4755 -0.02174 0.0
Gd252 Gd 0.78302 0.73894 0.59318 0.0
Gd253 Gd 0.8723 0.65027 0.55186 0.0
C254 C 0.13271 0.78853 0.54873 0.0
C255 C 0.17736 0.69042 0.4811 0.0
C256 C 1.00043 0.66145 0.50838 0.0
C257 C 0.04022 0.73763 0.54105 0.0
C258 C 0.08358 0.62155 0.46578 0.0
C259 C 0.19728 0.77036 0.51799 0.0
C260 C 0.14703 0.80835 0.6031 0.0
C261 C 0.09446 0.79302 0.64156 0.0
N262 N 0.99555 0.73302 0.57928 0.0
C263 C 1.02279 0.75866 0.62975 0.0
H264 H 0.99061 0.75437 0.66336 0.0
C265 C 0.9501 0.60501 0.38838 0.0
N266 N 0.94753 0.64974 0.46548 0.0
C267 C 1.00116 0.57858 0.37232 0.0
C268 C 0.059 0.58177 0.40824 0.0
H269 H 0.91174 0.5838 0.35521 0.0
H270 H 0.25041 0.80308 0.53042 0.0
H271 H 0.64942 0.62317 0.50857 0.0
H272 H 0.19975 0.83073 0.61757 0.0
H273 H 0.11018 0.80968 0.68311 0.0
H274 H 0.13388 0.64815 0.46817 0.0
H275 H 0.74961 0.6036 0.68789 0.0
H276 H 0.46683 0.61757 0.56698 0.0
H277 H 0.52792 0.58942 0.49637 0.0
H278 H 0.50637 0.6219 0.75059 0.0
H279 H 0.98488 0.5431 0.33898 0.0
H280 H 0.07725 0.54775 0.39751 0.0
H281 H 0.46527 0.64724 0.66563 0.0
H282 H 0.6613 0.53189 0.7499 0.0
N283 N 0.66113 0.67932 0.58106 0.0
C284 C 0.52175 0.63665 0.57099 0.0
C285 C 0.55545 0.61955 0.53134 0.0
C286 C 0.55564 0.66439 0.62011 0.0
C287 C 0.62586 0.68263 0.62447 0.0
C288 C 0.62482 0.63944 0.53786 0.0
N289 N 0.70919 0.6706 0.66805 0.0
C290 C 0.65086 0.67462 0.67301 0.0
C291 C 0.66094 0.57623 0.73253 0.0
C292 C 0.60654 0.58744 0.74273 0.0
C293 C 0.71209 0.61862 0.69601 0.0
C294 C 0.60249 0.63985 0.71509 0.0
H295 H 0.56244 0.54746 0.76409 0.0
O296 O 0.80175 0.83078 0.55005 0.0
O297 O 0.8876 0.7466 0.58363 0.0
O298 O 0.8782 0.67195 0.64955 0.0
O299 O 0.83144 0.7421 0.6736 0.0
O300 O 0.87539 0.8165 0.54304 0.0
O301 O 0.77349 0.81917 0.63464 0.0
O302 O 0.81164 0.53994 0.54385 0.0
O303 O 0.76759 0.64202 0.55519 0.0
O304 O 0.74847 0.74064 0.51366 0.0
O305 O 0.81104 0.68722 0.48219 0.0
O306 O 0.78083 0.57676 0.60325 0.0
O307 O 0.90299 0.57652 0.58911 0.0
C308 C 0.92122 0.80082 0.55562 0.0
C309 C 0.54096 0.64216 0.71612 0.0
C310 C 0.51761 0.65629 0.66766 0.0
C311 C 0.79432 0.86006 0.5919 0.0
C312 C 0.84818 0.9324 0.5983 0.0
C313 C 0.8829 0.94763 0.64653 0.0
C314 C 0.86244 0.98695 0.56103 0.0
C315 C 0.90628 0.05611 0.57886 0.0
C316 C 0.93632 1.01188 0.6567 0.0
C317 C 0.94269 0.06681 0.62691 0.0
C318 C 0.86098 0.70599 0.6877 0.0
C319 C 0.73338 0.58649 0.5825 0.0
C320 C 0.84618 0.52104 0.57423 0.0
C321 C 0.83978 0.45147 0.55867 0.0
C322 C 0.80148 0.41857 0.51176 0.0
C323 C 0.86946 0.41562 0.58623 0.0
C324 C 0.8779 0.36427 0.55691 0.0
C325 C 0.81687 0.37645 0.48088 0.0
C326 C 0.85838 0.35292 0.50215 0.0
C327 C 0.77381 0.72308 0.47279 0.0
H328 H 0.86827 0.90819 0.67644 0.0
H329 H 0.83523 0.97638 0.52266 0.0
H330 H 0.96768 0.01699 0.6907 0.0
H331 H 0.97188 0.11806 0.6428 0.0
H332 H 0.76674 0.43275 0.49401 0.0
H333 H 0.88904 0.42971 0.62729 0.0
H334 H 0.79316 0.35885 0.44135 0.0
H335 H 0.8659 0.3169 0.47813 0.0
Gd336 Gd 0.06091 0.7749 0.09211 0.0
Gd337 Gd 0.23888 0.86423 0.0517 0.0
C338 C 0.3609 0.12463 0.04851 0.0
C339 C 0.50372 0.16929 -0.01903 0.0
C340 C 0.35571 0.99234 0.00822 0.0
C341 C 0.31929 0.03213 0.04084 0.0
C342 C 0.4788 0.07551 0.96569 0.0
C343 C 0.44367 0.1892 0.0178 0.0
C344 C 0.35544 0.13898 0.10287 0.0
C345 C 0.31845 0.08641 0.1414 0.0
N346 N 0.27938 0.98747 0.07914 0.0
C347 C 0.2812 1.01472 0.12964 0.0
H348 H 0.25358 0.98252 0.16332 0.0
C349 C 0.36188 0.942 0.88825 0.0
N350 N 0.31455 0.93944 0.96532 0.0
C351 C 0.4394 0.99307 0.87223 0.0
C352 C 0.49403 0.05092 0.90817 0.0
H353 H 0.34474 0.90366 0.85508 0.0
H354 H 0.46409 0.24234 0.03022 0.0
H355 H 0.04302 0.64021 0.00852 0.0
H356 H 0.38571 0.19172 0.11729 0.0
H357 H 0.31765 0.10214 0.18297 0.0
H358 H 0.50251 0.12581 -0.03194 0.0
H359 H 0.16223 0.74116 0.18741 0.0
H360 H 0.86519 0.45865 0.06737 0.0
H361 H 0.95469 0.51883 -0.00323 0.0
H362 H 0.89937 0.50008 0.25097 0.0
H363 H 0.45865 0.97678 0.83894 0.0
H364 H 0.54632 0.06915 0.8975 0.0
H365 H 0.83347 0.45824 0.16582 0.0
H366 H 0.14483 0.65286 0.24975 0.0
N367 N 0.99849 0.65288 0.08059 0.0
C368 C 0.90129 0.51355 0.07115 0.0
C369 C 0.95227 0.54671 0.03154 0.0
C370 C 0.90735 0.54797 0.11996 0.0
C371 C 0.95958 0.61814 0.12404 0.0
C372 C 1.00208 0.61601 0.03782 0.0
N373 N 0.0549 0.70157 0.16761 0.0
C374 C 0.99233 0.64353 0.17264 0.0
C375 C 0.10036 0.65292 0.23234 0.0
C376 C 0.03451 0.599 0.24267 0.0
C377 C 0.10958 0.70402 0.19559 0.0
C378 C 0.97827 0.59544 0.21503 0.0
H379 H 0.03001 0.5547 0.26393 0.0
O380 O 0.99058 0.7971 0.04838 0.0
O381 O 0.15793 0.87954 0.08339 0.0
O382 O 0.22277 0.86995 0.14937 0.0
O383 O 0.1057 0.82308 0.17295 0.0
O384 O 0.07628 0.86753 0.04198 0.0
O385 O 0.96915 0.76314 0.13156 0.0
O386 O 0.2885 0.80354 0.04378 0.0
O387 O 0.14243 0.75944 0.05446 0.0
O388 O 0.02478 0.7392 0.01247 0.0
O389 O 0.14075 0.80307 -0.01793 0.0
O390 O 0.22062 0.77265 0.10311 0.0
O391 O 0.34329 0.8949 0.08901 0.0
C392 C 0.13755 0.91328 0.0553 0.0
C393 C 0.91413 0.53426 0.21622 0.0
C394 C 0.87692 0.51053 0.16765 0.0
C395 C 0.95105 0.7862 0.08902 0.0
C396 C 0.93199 0.83933 0.09669 0.0
C397 C 0.95147 0.87298 0.14534 0.0
C398 C 0.89181 0.85434 0.05994 0.0
C399 C 0.86652 0.8978 0.07868 0.0
C400 C 0.94073 0.92619 0.15643 0.0
C401 C 0.89202 0.93304 0.12725 0.0
C402 C 0.17134 0.85266 0.18736 0.0
C403 C 0.16361 0.72529 0.08204 0.0
C404 C 0.34192 0.83807 0.07417 0.0
C405 C 0.40506 0.83166 0.05861 0.0
C406 C 0.39964 0.79334 0.0117 0.0
C407 C 0.47057 0.86131 0.0862 0.0
C408 C 0.53036 0.86969 0.05693 0.0
C409 C 0.45715 0.80857 -0.0191 0.0
C410 C 0.5222 0.8501 0.00219 0.0
C411 C 0.068 0.76497 -0.02887 0.0
H412 H 0.97615 0.85767 0.17488 0.0
H413 H 0.87523 0.82791 0.02124 0.0
H414 H 0.96733 0.95689 0.19057 0.0
H415 H 0.8698 0.96168 0.14394 0.0
H416 H 0.35071 0.75864 -0.00607 0.0
H417 H 0.47604 0.88089 0.12725 0.0
H418 H 0.45104 0.78474 0.94144 0.0
H419 H 0.56574 0.85754 -0.02178 0.0
Gd420 Gd 0.30227 0.05263 0.59251 0.0
Gd421 Gd 0.39118 0.23058 0.55178 0.0
C422 C 0.25328 0.35299 0.54881 0.0
C423 C 0.35138 0.49561 0.48103 0.0
C424 C 0.38011 0.34748 0.50827 0.0
C425 C 0.30401 0.31125 0.54108 0.0
C426 C 0.42005 0.47051 0.46558 0.0
C427 C 0.27153 0.43574 0.51806 0.0
C428 C 0.23336 0.34742 0.60315 0.0
C429 C 0.24867 0.31015 0.6416 0.0
N430 N 0.30861 0.2712 0.57932 0.0
C431 C 0.28302 0.27284 0.6298 0.0
H432 H 0.28732 0.24496 0.6634 0.0
C433 C 0.43611 0.35328 0.38817 0.0
N434 N 0.39161 0.30617 0.46536 0.0
C435 C 0.4626 0.43077 0.37204 0.0
C436 C 0.45961 0.48555 0.40795 0.0
H437 H 0.45716 0.33602 0.35498 0.0
H438 H 0.23892 0.45625 0.53052 0.0
H439 H 0.41882 0.03496 0.5085 0.0
H440 H 0.21096 0.37773 0.6176 0.0
H441 H 0.23197 0.30917 0.68314 0.0
H442 H 0.39356 0.49429 0.46802 0.0
H443 H 0.43739 0.15368 0.68767 0.0
H444 H 0.42314 0.8573 0.56694 0.0
H445 H 0.45221 0.94694 0.49651 0.0
H446 H 0.41601 0.8908 0.75057 0.0
H447 H 0.49797 0.44986 0.33865 0.0
H448 H 0.49353 0.53779 0.39707 0.0
H449 H 0.39185 0.82516 0.6653 0.0
H450 H 0.50844 0.13621 0.74981 0.0
N451 N 0.36184 0.99024 0.58063 0.0
C452 C 0.4042 0.89326 0.57083 0.0
C453 C 0.42189 0.94434 0.53133 0.0
C454 C 0.3758 0.89907 0.6197 0.0
C455 C 0.35777 0.95121 0.62397 0.0
C456 C 0.40222 0.99398 0.53775 0.0
N457 N 0.36967 0.04638 0.66777 0.0
C458 C 0.36517 0.98381 0.67264 0.0
C459 C 0.46387 0.09175 0.7324 0.0
C460 C 0.45201 0.02589 0.74257 0.0
C461 C 0.42189 0.10101 0.6958 0.0
C462 C 0.3993 0.96969 0.71491 0.0
H463 H 0.49189 0.02138 0.76369 0.0
O464 O 0.20999 0.98134 0.54891 0.0
O465 O 0.29482 0.14969 0.58346 0.0
O466 O 0.36957 0.21476 0.64944 0.0
O467 O 0.29915 0.09776 0.67316 0.0
O468 O 0.22492 0.06786 0.54237 0.0
O469 O 0.22207 0.96163 0.63268 0.0
O470 O 0.50148 0.28024 0.5437 0.0
O471 O 0.39935 0.13408 0.55479 0.0
O472 O 0.3013 1.01637 0.51304 0.0
O473 O 0.35426 0.1324 0.48213 0.0
O474 O 0.46442 0.21236 0.60333 0.0
O475 O 0.46499 0.33498 0.58909 0.0
C476 C 0.24066 0.12927 0.55541 0.0
C477 C 0.39645 0.9056 0.71592 0.0
C478 C 0.38294 0.86854 0.66728 0.0
C479 C 0.18105 0.94286 0.59002 0.0
C480 C 0.10885 0.92415 0.59717 0.0
C481 C 0.09438 0.94393 0.64556 0.0
C482 C 0.05385 0.88381 0.5603 0.0
C483 C 0.98498 0.85857 0.57873 0.0
C484 C 0.03035 0.93324 0.65627 0.0
C485 C 0.97496 0.88435 0.62703 0.0
C486 C 0.3354 0.1634 0.68746 0.0
C487 C 0.45473 0.15533 0.58231 0.0
C488 C 0.52043 0.33364 0.57413 0.0
C489 C 0.58993 0.39682 0.55857 0.0
C490 C 0.62277 0.39152 0.5116 0.0
C491 C 0.62574 0.46231 0.5862 0.0
C492 C 0.67707 0.52217 0.55695 0.0
C493 C 0.66496 0.44911 0.48082 0.0
C494 C 0.68845 0.51412 0.50217 0.0
C495 C 0.31888 0.05946 0.47196 0.0
H496 H 0.13419 0.9687 0.67522 0.0
H497 H 0.06392 0.86706 0.52177 0.0
H498 H 0.02596 0.9599 0.69027 0.0
H499 H 0.92398 0.86216 0.64351 0.0
H500 H 0.60861 0.34263 0.49378 0.0
H501 H 0.61164 0.4677 0.62727 0.0
H502 H 0.68264 0.44308 0.44131 0.0
H503 H 0.72449 0.55772 0.47822 0.0
Gd504 Gd 0.74907 0.77795 0.34296 0.0
Gd505 Gd 0.65881 0.86585 0.38484 0.0
C506 C 0.80417 0.12647 0.39024 0.0
C507 C 0.70443 0.17395 0.45197 0.0
C508 C 0.673 0.99546 0.42716 0.0
C509 C 0.75114 0.03392 0.39738 0.0
C510 C 0.63325 0.08063 0.46585 0.0
C511 C 0.78589 0.19218 0.41858 0.0
C512 C 0.82607 0.14088 0.33648 0.0
C513 C 0.80866 0.08839 0.29752 0.0
N514 N 0.74555 0.98908 0.35889 0.0
C515 C 0.77192 0.01662 0.30865 0.0
H516 H 0.76645 0.98464 0.27459 0.0
C517 C 0.6091 0.94617 0.54557 0.0
N518 N 0.6576 0.94219 0.47072 0.0
C519 C 0.5836 0.99875 0.55904 0.0
C520 C 0.59008 0.05676 0.52178 0.0
H521 H 0.58547 0.90805 0.5787 0.0
H522 H 0.81981 0.245 0.40606 0.0
H523 H 0.63222 0.64188 0.4243 0.0
H524 H 0.85047 0.19387 0.32237 0.0
H525 H 0.82576 0.10426 0.25607 0.0
H526 H 0.66098 0.13097 0.46368 0.0
H527 H 0.61281 0.73998 0.24793 0.0
H528 H 0.63065 0.46135 0.36522 0.0
H529 H 0.59736 0.51957 0.43454 0.0
H530 H 0.64798 0.50687 0.18265 0.0
H531 H 0.54662 0.98422 0.5911 0.0
H532 H 0.55491 0.07454 0.5291 0.0
H533 H 0.66909 0.46398 0.26834 0.0
H534 H 0.54458 0.65026 0.18491 0.0
N535 N 0.6931 0.65611 0.35423 0.0
C536 C 0.6499 0.5164 0.36217 0.0
C537 C 0.62981 0.54851 0.40102 0.0
C538 C 0.68169 0.5523 0.31459 0.0
C539 C 0.69908 0.62236 0.31089 0.0
C540 C 0.65043 0.61827 0.39569 0.0
N541 N 0.68261 0.70316 0.26825 0.0
C542 C 0.69091 0.64742 0.26249 0.0
C543 C 0.59009 0.65253 0.20248 0.0
C544 C 0.6057 0.60112 0.19163 0.0
C545 C 0.62967 0.70374 0.23992 0.0
C546 C 0.65946 0.5999 0.21941 0.0
H547 H 0.56743 0.55591 0.17064 0.0
O548 O 0.84208 0.79042 0.38124 0.0
O549 O 0.75618 0.88149 0.35522 0.0
O550 O 0.6806 0.87397 0.28727 0.0
O551 O 0.74671 0.82316 0.26272 0.0
O552 O 0.82337 0.86695 0.39772 0.0
O553 O 0.83199 0.7844 0.29364 0.0
O554 O 0.54827 0.80485 0.39183 0.0
O555 O 0.65121 0.7615 0.3802 0.0
O556 O 0.75196 0.74248 0.42177 0.0
O557 O 0.69359 0.80087 0.45318 0.0
O558 O 0.5862 0.77479 0.33223 0.0
O559 O 0.58521 0.89617 0.34665 0.0
C560 C 0.81046 0.91429 0.38369 0.0
C561 C 0.66526 0.54031 0.21791 0.0
C562 C 0.67746 0.51611 0.26676 0.0
C563 C 0.87309 0.79896 0.33571 0.0
C564 C 0.94575 0.85476 0.3325 0.0
C565 C 0.96669 0.88292 0.2814 0.0
C566 C 0.99712 0.86597 0.37235 0.0
C567 C 0.06807 0.90482 0.35723 0.0
C568 C 0.0351 0.9188 0.26829 0.0
C569 C 0.08466 0.93376 0.30588 0.0
C570 C 0.71318 0.85519 0.24908 0.0
C571 C 0.59579 0.7271 0.35275 0.0
C572 C 0.52948 0.83937 0.36126 0.0
C573 C 0.45938 0.8327 0.37644 0.0
C574 C 0.42583 0.7934 0.4228 0.0
C575 C 0.42294 0.8619 0.34886 0.0
C576 C 0.37094 0.8696 0.37805 0.0
C577 C 0.38322 0.80807 0.45369 0.0
C578 C 0.35943 0.84948 0.43269 0.0
C579 C 0.73075 0.76471 0.46255 0.0
H580 H 0.92914 0.87 0.24993 0.0
H581 H 0.98242 0.83928 0.41106 0.0
H582 H 0.05077 0.92567 0.22776 0.0
H583 H 0.13676 0.96013 0.29168 0.0
H584 H 0.4405 0.7591 0.44064 0.0
H585 H 0.43712 0.88179 0.3079 0.0
H586 H 0.36553 0.78398 0.49308 0.0
H587 H 0.32294 0.85612 0.45688 0.0
Gd588 Gd 0.98801 0.74081 0.8432 0.0
Gd589 Gd 0.80966 0.65061 0.88488 0.0
C590 C 0.69437 0.79584 0.89038 0.0
C591 C 0.54715 0.69594 0.9521 0.0
C592 C 0.69432 0.66473 0.92729 0.0
C593 C 0.73396 0.74289 0.89752 0.0
C594 C 0.56937 0.62483 0.96598 0.0
C595 C 0.61033 0.77744 0.91871 0.0
C596 C 0.70187 0.81779 0.83663 0.0
C597 C 0.73702 0.8005 0.79768 0.0
N598 N 0.77324 0.73738 0.85902 0.0
C599 C 0.7721 0.76381 0.8088 0.0
H600 H 0.79868 0.75844 0.77475 0.0
C601 C 0.67976 0.60082 0.04571 0.0
N602 N 0.73222 0.64937 -0.02914 0.0
C603 C 0.60168 0.57523 0.05918 0.0
C604 C 0.55011 0.58167 0.02193 0.0
H605 H 0.69429 0.57722 0.07883 0.0
H606 H 0.59139 0.81132 0.90619 0.0
H607 H 1.00678 0.62334 0.92416 0.0
H608 H 0.67326 0.84216 0.82253 0.0
H609 H 0.73829 0.81765 0.75623 0.0
H610 H 0.54672 0.65251 0.96381 0.0
H611 H 0.88996 0.60465 0.74787 0.0
H612 H 0.18613 0.62237 0.86539 0.0
H613 H 0.09434 0.58869 0.93452 0.0
H614 H 0.1586 0.64055 0.68283 0.0
H615 H 0.57928 0.53824 0.09125 0.0
H616 H 0.49715 0.54658 0.02934 0.0
H617 H 0.22227 0.66123 0.76864 0.0
H618 H 0.91176 0.53667 0.68479 0.0
N619 N 0.0538 0.68475 0.85437 0.0
C620 C 0.15031 0.64159 0.86233 0.0
C621 C 0.09791 0.62122 0.90103 0.0
C622 C 0.14639 0.67363 0.81482 0.0
C623 C 0.09372 0.69101 0.8111 0.0
C624 C 0.04872 0.64173 0.89564 0.0
N625 N 0.99653 0.67455 0.76838 0.0
C626 C 0.06063 0.68301 0.76265 0.0
C627 C 0.95491 0.58219 0.70244 0.0
C628 C 1.022 0.59793 0.69173 0.0
C629 C 0.9431 0.62162 0.73992 0.0
C630 C 0.07688 0.65175 0.71954 0.0
H631 H 0.0291 0.55969 0.67086 0.0
O632 O 0.0689 0.83397 0.88095 0.0
O633 O 0.89161 0.74792 0.85546 0.0
O634 O 0.82317 0.67238 0.78736 0.0
O635 O 0.94016 0.73806 0.76288 0.0
O636 O 0.97323 0.81487 0.8982 0.0
O637 O 0.06378 0.82383 0.79338 0.0
O638 O 0.76012 0.54007 0.89192 0.0
O639 O 0.90638 0.64296 0.88027 0.0
O640 O 0.02648 0.74334 0.92234 0.0
O641 O 0.90965 0.68531 0.95286 0.0
O642 O 0.82815 0.57812 0.83214 0.0
O643 O 0.7058 0.57698 0.8466 0.0
C644 C 0.91305 0.8021 0.88402 0.0
C645 C 0.14232 0.65766 0.71811 0.0
C646 C 0.17853 0.66963 0.76703 0.0
C647 C 0.09075 0.86497 0.83536 0.0
C648 C 0.10736 0.93756 0.83239 0.0
C649 C 0.09944 0.9586 0.78154 0.0
C650 C 0.1478 0.98883 0.8722 0.0
C651 C 0.17976 0.05981 0.85723 0.0
C652 C 0.13168 0.02706 0.76859 0.0
C653 C 0.16698 0.07656 0.80608 0.0
C654 C 0.87458 0.70475 0.74919 0.0
C655 C 0.88536 0.5876 0.85272 0.0
C656 C 0.70685 0.52126 0.86127 0.0
C657 C 0.64339 0.45114 0.87637 0.0
C658 C 0.64904 0.41761 0.92278 0.0
C659 C 0.57779 0.41471 0.84869 0.0
C660 C 0.51801 0.36271 0.87782 0.0
C661 C 0.59167 0.37499 0.95359 0.0
C662 C 0.52652 0.35123 0.93249 0.0
C663 C 0.98268 0.72133 0.96364 0.0
H664 H 0.07432 0.92112 0.75008 0.0
H665 H 0.1601 0.97406 0.91075 0.0
H666 H 0.13976 0.0428 0.72811 0.0
H667 H 0.19269 0.12871 0.79192 0.0
H668 H 0.69798 0.43223 0.94067 0.0
H669 H 0.57216 0.42893 0.80772 0.0
H670 H 0.59798 0.35728 -0.00699 0.0
H671 H 0.48334 0.31479 0.95666 0.0
Gd672 Gd 0.26337 0.97974 0.34307 0.0
Gd673 Gd 0.17541 0.80141 0.3848 0.0
C674 C 0.91482 0.68622 0.39025 0.0
C675 C 0.86738 0.53901 0.45201 0.0
C676 C 0.04583 0.68611 0.42723 0.0
C677 C 1.00737 0.72578 0.39742 0.0
C678 C 0.96068 0.56118 0.46593 0.0
C679 C 0.84913 0.60221 0.41859 0.0
C680 C 0.90037 0.69359 0.33646 0.0
C681 C 0.95282 0.72848 0.29748 0.0
N682 N 0.05218 0.76492 0.35887 0.0
C683 C 1.0246 0.76352 0.3086 0.0
H684 H 0.05652 0.7898 0.27446 0.0
C685 C 0.09512 0.67155 0.54567 0.0
N686 N 0.0991 0.72401 0.4708 0.0
C687 C 0.04255 0.59345 0.55914 0.0
C688 C 0.98455 0.54189 0.52187 0.0
H689 H 0.13323 0.68606 0.57881 0.0
H690 H 0.79631 0.5833 0.40608 0.0
H691 H 0.39969 0.9987 0.42411 0.0
H692 H 0.84737 0.66498 0.32237 0.0
H693 H 0.93694 0.72954 0.25599 0.0
H694 H 0.91035 0.53855 0.46373 0.0
H695 H 0.30176 0.88208 0.24781 0.0
H696 H 0.57998 0.17815 0.36537 0.0
H697 H 0.52191 0.08627 0.43444 0.0
H698 H 0.53421 0.151 0.18282 0.0
H699 H 0.0571 0.571 0.59118 0.0
H700 H 0.96678 0.48893 0.52918 0.0
H701 H 0.57722 0.21448 0.2687 0.0
H702 H 0.39168 0.9041 0.18478 0.0
N703 N 0.38525 0.04573 0.35432 0.0
C704 C 0.52494 0.14232 0.36231 0.0
C705 C 0.49293 0.08987 0.40097 0.0
C706 C 0.48895 0.13846 0.31484 0.0
C707 C 0.4189 0.08575 0.31109 0.0
C708 C 0.42321 0.04066 0.39559 0.0
N709 N 0.33821 0.98861 0.26826 0.0
C710 C 0.39381 0.05276 0.2626 0.0
C711 C 0.38917 0.94718 0.2024 0.0
C712 C 0.44042 1.01433 0.19169 0.0
C713 C 0.33787 0.93524 0.23986 0.0
C714 C 0.44133 0.06913 0.2195 0.0
H715 H 0.48582 0.02156 0.17087 0.0
O716 O 0.25054 0.05999 0.38146 0.0
O717 O 0.15996 0.88325 0.35528 0.0
O718 O 0.16715 0.81487 0.28718 0.0
O719 O 0.21836 0.93186 0.26266 0.0
O720 O 0.17448 0.96505 0.39797 0.0
O721 O 0.25621 0.05597 0.29385 0.0
O722 O 0.23645 0.75196 0.39201 0.0
O723 O 0.27972 0.89821 0.38019 0.0
O724 O 0.29927 0.01808 0.42201 0.0
O725 O 0.2406 0.90126 0.45298 0.0
O726 O 0.26633 0.81991 0.33197 0.0
O727 O 0.14523 0.69748 0.34667 0.0
C728 C 0.12727 0.90482 0.38376 0.0
C729 C 0.50081 0.13462 0.21811 0.0
C730 C 0.52507 0.17073 0.26706 0.0
C731 C 0.24162 0.08233 0.33601 0.0
C732 C 0.18556 0.09884 0.33309 0.0
C733 C 0.15638 0.09055 0.28231 0.0
C734 C 0.17492 0.13959 0.37274 0.0
C735 C 0.13618 0.17177 0.3575 0.0
C736 C 0.12068 0.1232 0.269 0.0
C737 C 0.1071 0.15919 0.30621 0.0
C738 C 0.18604 0.86625 0.24896 0.0
C739 C 0.31397 0.87714 0.35262 0.0
C740 C 0.20201 0.69862 0.36143 0.0
C741 C 0.20865 0.63521 0.37671 0.0
C742 C 0.2479 0.64097 0.42312 0.0
C743 C 0.17942 0.56957 0.34915 0.0
C744 C 0.17167 0.50987 0.37834 0.0
C745 C 0.23323 0.58366 0.45399 0.0
C746 C 0.19183 0.51845 0.43297 0.0
C747 C 0.27715 0.97444 0.46304 0.0
H748 H 0.1685 0.06503 0.2511 0.0
H749 H 0.20193 0.15194 0.41132 0.0
H750 H 0.11287 0.13097 0.22845 0.0
H751 H 0.08126 0.18531 0.29175 0.0
H752 H 0.28218 0.68994 0.44097 0.0
H753 H 0.15957 0.56389 0.30817 0.0
H754 H 0.25732 0.59005 0.49339 0.0
H755 H 0.18521 0.4753 0.45713 0.0
Gd756 Gd 0.30002 0.25506 0.8432 0.0
Gd757 Gd 0.39069 0.16736 0.88469 0.0
C758 C 0.24539 0.90674 0.89005 0.0
C759 C 0.3451 0.85928 0.9519 0.0
C760 C 0.37652 0.03775 0.92706 0.0
C761 C 0.2984 0.99928 0.89722 0.0
C762 C 0.41625 0.9526 0.96583 0.0
C763 C 0.26366 0.84103 0.91843 0.0
C764 C 0.22346 0.89231 0.83629 0.0
C765 C 0.24087 0.94481 0.79734 0.0
N766 N 0.30396 0.04412 0.85875 0.0
C767 C 0.2776 0.01658 0.8085 0.0
H768 H 0.2831 0.04858 0.77443 0.0
C769 C 0.44029 0.08705 0.04554 0.0
N770 N 0.39186 0.09101 -0.02938 0.0
C771 C 0.46579 0.03448 0.05905 0.0
C772 C 0.45936 0.97647 0.0218 0.0
H773 H 0.46387 0.12517 0.07867 0.0
H774 H 0.22975 0.78821 0.90591 0.0
H775 H 0.41799 0.39099 0.92434 0.0
H776 H 0.19906 0.83933 0.82217 0.0
H777 H 0.22379 0.92894 0.75588 0.0
H778 H 0.38853 0.90225 0.96364 0.0
H779 H 0.43561 0.29475 0.74745 0.0
H780 H 0.41878 0.57166 0.86666 0.0
H781 H 0.45286 0.51318 0.93516 0.0
H782 H 0.39652 0.52619 0.68413 0.0
H783 H 0.50276 0.049 0.09111 0.0
H784 H 0.4945 0.95865 0.0292 0.0
H785 H 0.37783 0.56908 0.77069 0.0
H786 H 0.5025 0.38518 0.68427 0.0
N787 N 0.35601 0.37688 0.85495 0.0
C788 C 0.39935 0.5166 0.86349 0.0
C789 C 0.42008 0.48439 0.90174 0.0
C790 C 0.36638 0.4807 0.81621 0.0
C791 C 0.34895 0.41066 0.81211 0.0
C792 C 0.39943 0.41468 0.89608 0.0
N793 N 0.365 0.33029 0.76841 0.0
C794 C 0.35602 0.38568 0.76329 0.0
C795 C 0.45678 0.38207 0.70217 0.0
C796 C 0.44021 0.43296 0.6919 0.0
C797 C 0.41805 0.33052 0.73966 0.0
C798 C 0.38636 0.43332 0.72017 0.0
H799 H 0.47797 0.47874 0.67127 0.0
O800 O 0.20677 0.24151 0.8818 0.0
O801 O 0.29324 0.15169 0.85523 0.0
O802 O 0.3691 0.15922 0.78714 0.0
O803 O 0.303 0.2101 0.76281 0.0
O804 O 0.22598 0.16607 0.89808 0.0
O805 O 0.21679 0.24847 0.79421 0.0
O806 O 0.5012 0.2284 0.89188 0.0
O807 O 0.39815 0.27163 0.88005 0.0
O808 O 0.29753 0.29084 0.922 0.0
O809 O 0.35602 0.23243 0.953 0.0
O810 O 0.46274 0.25819 0.83153 0.0
O811 O 0.46438 0.13715 0.84658 0.0
C812 C 0.23903 0.11893 0.88374 0.0
C813 C 0.38013 0.49269 0.71936 0.0
C814 C 0.36932 0.51691 0.76872 0.0
C815 C 0.17573 0.23342 0.83634 0.0
C816 C 0.10318 0.17755 0.833 0.0
C817 C 0.08244 0.14911 0.78196 0.0
C818 C 0.05173 0.16654 0.87266 0.0
C819 C 0.98088 0.12789 0.85731 0.0
C820 C 1.01411 0.11346 0.76859 0.0
C821 C 0.96445 0.0991 0.80591 0.0
C822 C 0.33662 0.17817 0.74901 0.0
C823 C 0.45337 0.30587 0.85235 0.0
C824 C 0.52006 0.19393 0.8613 0.0
C825 C 0.5901 0.20054 0.87652 0.0
C826 C 0.62365 0.23974 0.92293 0.0
C827 C 0.62643 0.17126 0.84891 0.0
C828 C 0.67833 0.16339 0.87808 0.0
C829 C 0.66618 0.22491 0.95379 0.0
C830 C 0.68989 0.18346 0.93273 0.0
C831 C 0.31899 0.26863 0.96277 0.0
H832 H 0.12015 0.16173 0.7507 0.0
H833 H 0.06631 0.19325 0.91137 0.0
H834 H 0.99858 0.10629 0.72802 0.0
H835 H 0.91246 0.07307 0.79149 0.0
H836 H 0.60905 0.27408 0.9408 0.0
H837 H 0.61222 0.15142 0.80793 0.0
H838 H 0.68388 0.24892 -0.00678 0.0
H839 H 0.72635 0.17672 0.95689 0.0
Gd840 Gd 0.06149 0.29237 0.34273 0.0
Gd841 Gd 0.23981 0.38245 0.38499 0.0
C842 C 0.35478 0.23681 0.39023 0.0
C843 C 0.50224 0.33657 0.4517 0.0
C844 C 0.35524 0.36814 0.42715 0.0
C845 C 0.31537 0.28993 0.39744 0.0
C846 C 0.48026 0.40784 0.46562 0.0
C847 C 0.43884 0.25508 0.41842 0.0
C848 C 0.34717 0.21484 0.33648 0.0
C849 C 0.31203 0.23223 0.29758 0.0
N850 N 0.27606 0.29551 0.35901 0.0
C851 C 0.27711 0.26905 0.30877 0.0
H852 H 0.25055 0.27446 0.27472 0.0
C853 C 0.37032 0.43224 0.54557 0.0
N854 N 0.31755 0.38367 0.47079 0.0
C855 C 0.44847 0.45767 0.55887 0.0
C856 C 0.4998 0.4511 0.5215 0.0
H857 H 0.35595 0.45589 0.57876 0.0
H858 H 0.45763 0.22108 0.40591 0.0
H859 H 0.04194 0.40886 0.42423 0.0
H860 H 0.37568 0.1904 0.32233 0.0
H861 H 0.31068 0.21507 0.25613 0.0
H862 H 0.50281 0.38005 0.4634 0.0
H863 H 0.16058 0.42891 0.24803 0.0
H864 H 0.86318 0.41058 0.36479 0.0
H865 H 0.95446 0.44372 0.43433 0.0
H866 H 0.89292 0.39479 0.18216 0.0
H867 H 0.47129 0.49474 0.59081 0.0
H868 H 0.55279 0.48636 0.52862 0.0
H869 H 0.82819 0.373 0.26758 0.0
H870 H 0.13967 0.49752 0.18503 0.0
N871 N 0.9956 0.34829 0.35394 0.0
C872 C 0.89905 0.39142 0.36175 0.0
C873 C 0.95107 0.41136 0.40076 0.0
C874 C 0.90352 0.36001 0.31405 0.0
C875 C 0.95621 0.34265 0.31046 0.0
C876 C 1.00022 0.39075 0.39551 0.0
N877 N 0.05381 0.35944 0.26821 0.0
C878 C 0.98986 0.35127 0.26222 0.0
C879 C 0.09625 0.45212 0.20255 0.0
C880 C 0.02936 0.43682 0.19159 0.0
C881 C 0.10755 0.41232 0.23999 0.0
C882 C 0.97415 0.38304 0.21918 0.0
H883 H 1.02271 0.47526 0.17056 0.0
O884 O 0.9794 0.19969 0.38023 0.0
O885 O 0.15779 0.28523 0.35546 0.0
O886 O 0.22635 0.36063 0.28739 0.0
O887 O 0.10941 0.29523 0.26259 0.0
O888 O 0.07567 0.21784 0.39768 0.0
O889 O 0.98644 0.20923 0.2926 0.0
O890 O 0.28932 0.49293 0.39221 0.0
O891 O 0.14304 0.39002 0.38022 0.0
O892 O 1.02318 0.28927 0.42155 0.0
O893 O 0.13994 0.3478 0.45324 0.0
O894 O 0.22163 0.45523 0.33239 0.0
O895 O 0.34363 0.45616 0.34668 0.0
C896 C 0.13605 0.23094 0.38391 0.0
C897 C 0.9088 0.37729 0.21745 0.0
C898 C 0.87199 0.36467 0.26612 0.0
C899 C 0.95875 0.16831 0.3346 0.0
C900 C 0.94242 0.09571 0.33227 0.0
C901 C 0.95113 0.07441 0.28178 0.0
C902 C 0.90164 0.04455 0.37208 0.0
C903 C 0.86978 0.97347 0.35726 0.0
C904 C 0.91914 1.00593 0.26902 0.0
C905 C 0.88302 0.95654 0.30636 0.0
C906 C 0.17502 0.32831 0.2491 0.0
C907 C 0.16428 0.44549 0.35284 0.0
C908 C 0.34255 0.51182 0.36151 0.0
C909 C 0.40598 0.58191 0.3767 0.0
C910 C 0.40026 0.61549 0.42307 0.0
C911 C 0.47159 0.61828 0.34911 0.0
C912 C 0.53131 0.67028 0.37828 0.0
C913 C 0.45759 0.65818 0.45392 0.0
C914 C 0.52277 0.68197 0.43288 0.0
C915 C 0.06656 0.31054 0.46237 0.0
H916 H 0.97677 0.11171 0.2503 0.0
H917 H 0.88904 0.05945 0.41043 0.0
H918 H 0.9119 0.99011 0.22862 0.0
H919 H 0.85729 0.90438 0.2922 0.0
H920 H 0.35131 0.60078 0.44095 0.0
H921 H 0.47726 0.60402 0.30816 0.0
H922 H 0.45124 0.67592 0.49331 0.0
H923 H 0.56596 0.71851 0.45701 0.0
Gd924 Gd 0.78565 0.05303 0.84278 0.0
Gd925 Gd 0.87379 0.23141 0.88489 0.0
C926 C 0.13436 0.34664 0.89043 0.0
C927 C 0.18173 0.49389 0.95215 0.0
C928 C 1.0033 0.34669 0.92736 0.0
C929 C 0.04181 0.30704 0.89757 0.0
C930 C 0.08842 0.47167 0.96605 0.0
C931 C 0.20002 0.43069 0.91876 0.0
C932 C 0.14883 0.3391 0.83671 0.0
C933 C 0.09638 0.30406 0.79773 0.0
N934 N 0.99701 0.26782 0.85905 0.0
C935 C 1.02461 0.26908 0.80881 0.0
H936 H 0.99269 0.24267 0.7747 0.0
C937 C 0.95402 0.36128 0.04579 0.0
N938 N 0.95006 0.3088 -0.02907 0.0
C939 C 1.00654 0.43936 0.05927 0.0
C940 C 0.06455 0.49094 0.02201 0.0
H941 H 0.9159 0.34676 0.07891 0.0
H942 H 0.25284 0.44963 0.90626 0.0
H943 H 0.6499 0.03403 0.92423 0.0
H944 H 0.20182 0.36767 0.82263 0.0
H945 H 0.11228 0.30285 0.75627 0.0
H946 H 0.13874 0.49432 0.96386 0.0
H947 H 0.7476 0.15121 0.74774 0.0
H948 H 0.46914 0.85503 0.86544 0.0
H949 H 0.52762 0.94668 0.93467 0.0
H950 H 0.51429 0.88279 0.68279 0.0
H951 H 0.99193 0.4617 0.09138 0.0
H952 H 0.0824 0.5439 0.02941 0.0
H953 H 0.47149 0.819 0.76858 0.0
H954 H 0.65773 0.1296 0.68477 0.0
N955 N 0.66388 0.98718 0.85416 0.0
C956 C 0.52419 0.89078 0.86231 0.0
C957 C 0.55644 0.94306 0.9011 0.0
C958 C 0.55996 0.89475 0.81469 0.0
C959 C 0.63003 0.94738 0.81088 0.0
C960 C 0.62619 0.99214 0.89566 0.0
N961 N 0.71073 0.04459 0.76815 0.0
C962 C 0.655 0.98054 0.76245 0.0
C963 C 0.66002 0.08639 0.70238 0.0
C964 C 0.60854 0.01934 0.69165 0.0
C965 C 0.71131 0.09809 0.73978 0.0
C966 C 0.60739 0.9644 0.71943 0.0
H967 H 0.56323 1.01233 0.67079 0.0
O968 O 0.7969 0.97153 0.88061 0.0
O969 O 0.88903 0.14943 0.85535 0.0
O970 O 0.88217 0.21803 0.7873 0.0
O971 O 0.83067 0.10108 0.76255 0.0
O972 O 0.87443 0.06735 0.89762 0.0
O973 O 0.79363 0.97766 0.79298 0.0
O974 O 0.81281 0.28094 0.89205 0.0
O975 O 0.76944 0.13461 0.88008 0.0
O976 O 0.75042 1.01477 0.92176 0.0
O977 O 0.80879 0.13159 0.95312 0.0
O978 O 0.78291 0.21309 0.83207 0.0
O979 O 0.90402 0.33531 0.8467 0.0
C980 C 0.92163 0.12773 0.88376 0.0
C981 C 0.54778 0.899 0.71802 0.0
C982 C 0.52365 0.86273 0.76692 0.0
C983 C 0.80726 0.95042 0.83508 0.0
C984 C 0.86357 0.93414 0.83272 0.0
C985 C 0.89343 0.9428 0.78219 0.0
C986 C 0.87403 0.89337 0.8725 0.0
C987 C 0.91316 0.86144 0.8576 0.0
C988 C 0.92952 0.91046 0.76923 0.0
C989 C 0.94286 0.87436 0.80653 0.0
C990 C 0.86315 0.16671 0.74902 0.0
C991 C 0.73523 0.15581 0.8526 0.0
C992 C 0.84727 0.33424 0.86144 0.0
C993 C 0.84064 0.39768 0.87663 0.0
C994 C 0.80144 0.39199 0.92304 0.0
C995 C 0.86987 0.46331 0.84902 0.0
C996 C 0.87763 0.52304 0.87819 0.0
C997 C 0.81609 0.44934 0.95386 0.0
C998 C 0.8575 0.51452 0.93282 0.0
C999 C 0.77258 0.0583 0.96262 0.0
H1000 H 0.88171 0.96848 0.75084 0.0
H1001 H 0.84661 0.8808 0.9109 0.0
H1002 H 0.93774 0.90293 0.72876 0.0
H1003 H 0.96897 0.84839 0.79225 0.0
H1004 H 0.76714 0.34305 0.94091 0.0
H1005 H 0.88975 0.46897 0.80806 0.0
H1006 H 0.79201 0.44299 -0.00675 0.0
H1007 H 0.86421 0.5577 0.95697 0.0
loop_
_geom_bond_atom_site_label_1
_geom_bond_atom_site_label_2
_geom_bond_distance
_geom_bond_site_symmetry_2
_ccdc_geom_bond_type
Gd0 N31 2.661 . S
Gd0 N37 2.601 . S
Gd0 O44 2.545 . S
Gd0 O45 2.606 . S
Gd0 O47 2.429 . S
Gd0 O48 2.545 . S
Gd0 O49 2.412 . S
Gd0 O51 2.362 . S
Gd0 O52 2.324 . S
Gd0 C59 2.828 . S
Gd1 N10 2.661 . S
Gd1 N14 2.601 1_554 S
Gd1 O45 2.362 . S
Gd1 O46 2.324 . S
Gd1 O50 2.545 1_554 S
Gd1 O51 2.606 . S
Gd1 O53 2.429 1_554 S
Gd1 O54 2.545 . S
Gd1 O55 2.412 . S
Gd1 C68 2.828 . S
C2 C5 1.417 . S
C2 C7 1.431 1_554 S
C2 C8 1.412 . S
C3 C6 1.437 . S
C3 C7 1.317 . S
C3 H22 0.929 . S
C4 C5 1.426 1_556 S
C4 C6 1.413 . S
C4 N14 1.359 1_655 S
C5 C2 1.417 . S
C5 C4 1.426 1_554 S
C5 N10 1.350 1_655 S
C6 C3 1.437 . S
C6 C4 1.413 . S
C6 C16 1.391 . S
C7 C2 1.431 1_556 S
C7 C3 1.317 . S
C7 H18 0.930 . S
C8 C2 1.412 . S
C8 C9 1.355 . S
C8 H20 0.930 . S
C9 C8 1.355 . S
C9 C11 1.402 . S
C9 H21 0.930 . S
N10 Gd1 2.661 . S
N10 C5 1.350 1_455 S
N10 C11 1.307 1_455 S
C11 C9 1.402 . S
C11 N10 1.307 1_655 S
C11 H12 0.930 1_655 S
H12 C11 0.930 1_455 S
C13 N14 1.334 . S
C13 C15 1.394 . S
C13 H17 0.930 . S
N14 Gd1 2.601 1_556 S
N14 C4 1.359 1_455 S
N14 C13 1.334 . S
C15 C13 1.394 . S
C15 C16 1.359 1_455 S
C15 H27 0.930 . S
C16 C6 1.391 . S
C16 C15 1.359 1_655 S
C16 H28 0.929 . S
H17 C13 0.930 . S
H18 C7 0.930 . S
H19 C36 0.930 . S
H20 C8 0.930 . S
H21 C9 0.930 . S
H22 C3 0.929 . S
H23 C41 0.930 . S
H24 C32 0.930 . S
H25 C33 0.930 . S
H26 C57 0.929 . S
H27 C15 0.930 . S
H28 C16 0.929 . S
H29 C58 0.930 . S
H30 C39 0.930 . S
N31 Gd0 2.661 . S
N31 C35 1.350 . S
N31 C36 1.307 . S
C32 H24 0.930 . S
C32 C33 1.355 . S
C32 C34 1.412 . S
C33 H25 0.930 . S
C33 C32 1.355 . S
C33 C36 1.402 . S
C34 C32 1.412 . S
C34 C35 1.417 . S
C34 C58 1.431 . S
C35 N31 1.350 . S
C35 C34 1.417 . S
C35 C38 1.426 . S
C36 H19 0.930 . S
C36 N31 1.307 . S
C36 C33 1.402 . S
N37 Gd0 2.601 . S
N37 C38 1.359 . S
N37 C41 1.334 . S
C38 C35 1.426 . S
C38 N37 1.359 . S
C38 C42 1.413 . S
C39 H30 0.930 . S
C39 C40 1.359 . S
C39 C41 1.394 . S
C40 C39 1.359 . S
C40 C42 1.391 . S
C40 H43 0.929 . S
C41 H23 0.930 . S
C41 N37 1.334 . S
C41 C39 1.394 . S
C42 C38 1.413 . S
C42 C40 1.391 . S
C42 C57 1.437 . S
H43 C40 0.929 . S
O44 Gd0 2.545 . S
O44 C59 1.258 . S
O45 Gd0 2.606 . S
O45 Gd1 2.362 . S
O45 C56 1.284 . S
O46 Gd1 2.324 . S
O46 C66 1.254 . S
O47 Gd0 2.429 . S
O47 C66 1.268 . S
O48 Gd0 2.545 . S
O48 C56 1.250 . S
O49 Gd0 2.412 . S
O49 C59 1.252 . S
O50 Gd1 2.545 1_556 S
O50 C68 1.258 1_556 S
O51 Gd0 2.362 . S
O51 Gd1 2.606 . S
O51 C67 1.284 . S
O52 Gd0 2.324 . S
O52 C75 1.254 1_554 S
O53 Gd1 2.429 1_556 S
O53 C75 1.268 . S
O54 Gd1 2.545 . S
O54 C67 1.250 . S
O55 Gd1 2.412 . S
O55 C68 1.252 . S
C56 O45 1.284 . S
C56 O48 1.250 . S
C57 H26 0.929 . S
C57 C42 1.437 . S
C57 C58 1.317 . S
C58 H29 0.930 . S
C58 C34 1.431 . S
C58 C57 1.317 . S
C59 Gd0 2.828 . S
C59 O44 1.258 . S
C59 O49 1.252 . S
C59 C60 1.497 . S
C60 C59 1.497 . S
C60 C61 1.395 . S
C60 C62 1.380 . S
C61 C60 1.395 . S
C61 C64 1.398 . S
C61 H76 0.930 . S
C62 C60 1.380 . S
C62 C63 1.391 1_545 S
C62 H77 0.930 . S
C63 C62 1.391 1_565 S
C63 C65 1.387 . S
C64 C61 1.398 . S
C64 C65 1.380 1_545 S
C64 H78 0.928 1_545 S
C65 C63 1.387 . S
C65 C64 1.380 1_565 S
C65 H79 0.930 . S
C66 O46 1.254 . S
C66 O47 1.268 . S
C67 O51 1.284 . S
C67 O54 1.250 . S
C68 Gd1 2.828 . S
C68 O50 1.258 1_554 S
C68 O55 1.252 . S
C68 C69 1.497 . S
C69 C68 1.497 . S
C69 C70 1.395 1_554 S
C69 C71 1.380 . S
C70 C69 1.395 1_556 S
C70 C73 1.398 . S
C70 H80 0.930 . S
C71 C69 1.380 . S
C71 C72 1.391 . S
C71 H81 0.930 . S
C72 C71 1.391 . S
C72 C74 1.387 . S
C73 C70 1.398 . S
C73 C74 1.380 1_556 S
C73 H82 0.930 . S
C74 C72 1.387 . S
C74 C73 1.380 1_554 S
C74 H83 0.930 . S
C75 O52 1.254 1_556 S
C75 O53 1.268 . S
H76 C61 0.930 . S
H77 C62 0.930 . S
H78 C64 0.928 1_565 S
H79 C65 0.930 . S
H80 C70 0.930 . S
H81 C71 0.930 . S
H82 C73 0.930 . S
H83 C74 0.930 . S
Gd84 N115 2.661 1_655 S
Gd84 N121 2.601 . S
Gd84 O128 2.545 1_655 S
Gd84 O129 2.606 . S
Gd84 O131 2.429 . S
Gd84 O132 2.545 . S
Gd84 O133 2.412 1_655 S
Gd84 O135 2.362 . S
Gd84 O136 2.324 . S
Gd84 C143 2.828 1_655 S
Gd85 N94 2.661 . S
Gd85 N98 2.601 . S
Gd85 O129 2.362 . S
Gd85 O130 2.324 . S
Gd85 O134 2.545 . S
Gd85 O135 2.606 . S
Gd85 O137 2.429 . S
Gd85 O138 2.545 . S
Gd85 O139 2.412 . S
Gd85 C152 2.828 . S
C86 C89 1.417 . S
C86 C91 1.431 . S
C86 C92 1.412 . S
C87 C90 1.437 . S
C87 C91 1.317 . S
C87 H106 0.929 . S
C88 C89 1.426 . S
C88 C90 1.413 . S
C88 N98 1.359 1_565 S
C89 C86 1.417 . S
C89 C88 1.426 . S
C89 N94 1.350 1_565 S
C90 C87 1.437 . S
C90 C88 1.413 . S
C90 C100 1.391 . S
C91 C86 1.431 . S
C91 C87 1.317 . S
C91 H102 0.930 . S
C92 C86 1.412 . S
C92 C93 1.355 . S
C92 H104 0.930 . S
C93 C92 1.355 . S
C93 C95 1.402 . S
C93 H105 0.930 . S
N94 Gd85 2.661 . S
N94 C89 1.350 1_545 S
N94 C95 1.307 1_545 S
C95 C93 1.402 . S
C95 N94 1.307 1_565 S
C95 H96 0.930 1_565 S
H96 C95 0.930 1_545 S
C97 N98 1.334 . S
C97 C99 1.394 . S
C97 H101 0.930 . S
N98 Gd85 2.601 . S
N98 C88 1.359 1_545 S
N98 C97 1.334 . S
C99 C97 1.394 . S
C99 C100 1.359 1_545 S
C99 H111 0.930 . S
C100 C90 1.391 . S
C100 C99 1.359 1_565 S
C100 H112 0.929 . S
H101 C97 0.930 . S
H102 C91 0.930 . S
H103 C120 0.928 1_655 S
H104 C92 0.930 . S
H105 C93 0.930 . S
H106 C87 0.929 . S
H107 C125 0.930 . S
H108 C116 0.930 . S
H109 C117 0.930 . S
H110 C141 0.929 . S
H111 C99 0.930 . S
H112 C100 0.929 . S
H113 C142 0.930 . S
H114 C123 0.930 1_655 S
N115 Gd84 2.661 1_455 S
N115 C119 1.350 . S
N115 C120 1.307 . S
C116 H108 0.930 . S
C116 C117 1.355 . S
C116 C118 1.412 . S
C117 H109 0.930 . S
C117 C116 1.355 . S
C117 C120 1.402 . S
C118 C116 1.412 . S
C118 C119 1.417 . S
C118 C142 1.431 . S
C119 N115 1.350 . S
C119 C118 1.417 . S
C119 C122 1.426 . S
C120 H103 0.928 1_455 S
C120 N115 1.307 . S
C120 C117 1.402 . S
N121 Gd84 2.601 . S
N121 C122 1.359 1_655 S
N121 C125 1.334 . S
C122 C119 1.426 . S
C122 N121 1.359 1_455 S
C122 C126 1.413 . S
C123 H114 0.930 1_455 S
C123 C124 1.359 . S
C123 C125 1.394 1_455 S
C124 C123 1.359 . S
C124 C126 1.391 . S
C124 H127 0.929 . S
C125 H107 0.930 . S
C125 N121 1.334 . S
C125 C123 1.394 1_655 S
C126 C122 1.413 . S
C126 C124 1.391 . S
C126 C141 1.437 . S
H127 C124 0.929 . S
O128 Gd84 2.545 1_455 S
O128 C143 1.258 . S
O129 Gd84 2.606 . S
O129 Gd85 2.362 . S
O129 C140 1.284 . S
O130 Gd85 2.324 . S
O130 C150 1.254 . S
O131 Gd84 2.429 . S
O131 C150 1.268 . S
O132 Gd84 2.545 . S
O132 C140 1.250 . S
O133 Gd84 2.412 1_455 S
O133 C143 1.252 . S
O134 Gd85 2.545 . S
O134 C152 1.258 . S
O135 Gd84 2.362 . S
O135 Gd85 2.606 . S
O135 C151 1.284 . S
O136 Gd84 2.324 . S
O136 C159 1.254 . S
O137 Gd85 2.429 . S
O137 C159 1.268 . S
O138 Gd85 2.545 . S
O138 C151 1.250 . S
O139 Gd85 2.412 . S
O139 C152 1.252 . S
C140 O129 1.284 . S
C140 O132 1.250 . S
C141 H110 0.929 . S
C141 C126 1.437 . S
C141 C142 1.317 . S
C142 H113 0.930 . S
C142 C118 1.431 . S
C142 C141 1.317 . S
C143 Gd84 2.828 1_455 S
C143 O128 1.258 . S
C143 O133 1.252 . S
C143 C144 1.497 . S
C144 C143 1.497 . S
C144 C145 1.395 . S
C144 C146 1.380 . S
C145 C144 1.395 . S
C145 C148 1.398 . S
C145 H160 0.930 . S
C146 C144 1.380 . S
C146 C147 1.391 . S
C146 H161 0.930 . S
C147 C146 1.391 . S
C147 C149 1.387 . S
C148 C145 1.398 . S
C148 C149 1.380 . S
C148 H162 0.930 . S
C149 C147 1.387 . S
C149 C148 1.380 . S
C149 H163 0.930 . S
C150 O130 1.254 . S
C150 O131 1.268 . S
C151 O135 1.284 . S
C151 O138 1.250 . S
C152 Gd85 2.828 . S
C152 O134 1.258 . S
C152 O139 1.252 . S
C152 C153 1.497 . S
C153 C152 1.497 . S
C153 C154 1.395 . S
C153 C155 1.380 . S
C154 C153 1.395 . S
C154 C157 1.398 . S
C154 H164 0.930 . S
C155 C153 1.380 . S
C155 C156 1.391 . S
C155 H165 0.930 . S
C156 C155 1.391 . S
C156 C158 1.387 . S
C157 C154 1.398 . S
C157 C158 1.380 . S
C157 H166 0.930 . S
C158 C156 1.387 . S
C158 C157 1.380 . S
C158 H167 0.930 . S
C159 O136 1.254 . S
C159 O137 1.268 . S
H160 C145 0.930 . S
H161 C146 0.930 . S
H162 C148 0.930 . S
H163 C149 0.930 . S
H164 C154 0.930 . S
H165 C155 0.930 . S
H166 C157 0.930 . S
H167 C158 0.930 . S
Gd168 N199 2.661 1_565 S
Gd168 N205 2.601 . S
Gd168 O212 2.545 1_565 S
Gd168 O213 2.606 . S
Gd168 O215 2.429 . S
Gd168 O216 2.545 . S
Gd168 O217 2.412 1_565 S
Gd168 O219 2.362 . S
Gd168 O220 2.324 . S
Gd168 C227 2.828 1_565 S
Gd169 N178 2.661 . S
Gd169 N182 2.601 1_554 S
Gd169 O213 2.362 . S
Gd169 O214 2.324 . S
Gd169 O218 2.545 1_554 S
Gd169 O219 2.606 . S
Gd169 O221 2.429 1_554 S
Gd169 O222 2.545 . S
Gd169 O223 2.412 . S
Gd169 C236 2.828 . S
C170 C173 1.417 . S
C170 C175 1.431 1_554 S
C170 C176 1.412 . S
C171 C174 1.437 . S
C171 C175 1.317 . S
C171 H190 0.929 . S
C172 C173 1.426 1_556 S
C172 C174 1.413 . S
C172 N182 1.359 . S
C173 C170 1.417 . S
C173 C172 1.426 1_554 S
C173 N178 1.350 . S
C174 C171 1.437 . S
C174 C172 1.413 . S
C174 C184 1.391 . S
C175 C170 1.431 1_556 S
C175 C171 1.317 . S
C175 H186 0.930 . S
C176 C170 1.412 . S
C176 C177 1.355 . S
C176 H188 0.930 . S
C177 C176 1.355 . S
C177 C179 1.402 . S
C177 H189 0.930 . S
N178 Gd169 2.661 . S
N178 C173 1.350 . S
N178 C179 1.307 . S
C179 C177 1.402 . S
C179 N178 1.307 . S
C179 H180 0.930 . S
H180 C179 0.930 . S
C181 N182 1.334 . S
C181 C183 1.394 . S
C181 H185 0.930 . S
N182 Gd169 2.601 1_556 S
N182 C172 1.359 . S
N182 C181 1.334 . S
C183 C181 1.394 . S
C183 C184 1.359 . S
C183 H195 0.930 . S
C184 C174 1.391 . S
C184 C183 1.359 . S
C184 H196 0.929 . S
H185 C181 0.930 . S
H186 C175 0.930 . S
H187 C204 0.919 1_565 S
H188 C176 0.930 . S
H189 C177 0.930 . S
H190 C171 0.929 . S
H191 C209 0.930 . S
H192 C200 0.930 . S
H193 C201 0.930 . S
H194 C225 0.929 . S
H195 C183 0.930 . S
H196 C184 0.929 . S
H197 C226 0.930 . S
H198 C207 0.930 1_565 S
N199 Gd168 2.661 1_545 S
N199 C203 1.350 . S
N199 C204 1.307 . S
C200 H192 0.930 . S
C200 C201 1.355 . S
C200 C202 1.412 . S
C201 H193 0.930 . S
C201 C200 1.355 . S
C201 C204 1.402 . S
C202 C200 1.412 . S
C202 C203 1.417 . S
C202 C226 1.431 . S
C203 N199 1.350 . S
C203 C202 1.417 . S
C203 C206 1.426 . S
C204 H187 0.919 1_545 S
C204 N199 1.307 . S
C204 C201 1.402 . S
N205 Gd168 2.601 . S
N205 C206 1.359 1_565 S
N205 C209 1.334 . S
C206 C203 1.426 . S
C206 N205 1.359 1_545 S
C206 C210 1.413 . S
C207 H198 0.930 1_545 S
C207 C208 1.359 . S
C207 C209 1.394 1_545 S
C208 C207 1.359 . S
C208 C210 1.391 . S
C208 H211 0.929 . S
C209 H191 0.930 . S
C209 N205 1.334 . S
C209 C207 1.394 1_565 S
C210 C206 1.413 . S
C210 C208 1.391 . S
C210 C225 1.437 . S
H211 C208 0.929 . S
O212 Gd168 2.545 1_545 S
O212 C227 1.258 . S
O213 Gd168 2.606 . S
O213 Gd169 2.362 . S
O213 C224 1.284 . S
O214 Gd169 2.324 . S
O214 C234 1.254 . S
O215 Gd168 2.429 . S
O215 C234 1.268 . S
O216 Gd168 2.545 . S
O216 C224 1.250 . S
O217 Gd168 2.412 1_545 S
O217 C227 1.252 . S
O218 Gd169 2.545 1_556 S
O218 C236 1.258 1_556 S
O219 Gd168 2.362 . S
O219 Gd169 2.606 . S
O219 C235 1.284 . S
O220 Gd168 2.324 . S
O220 C243 1.254 1_554 S
O221 Gd169 2.429 1_556 S
O221 C243 1.268 . S
O222 Gd169 2.545 . S
O222 C235 1.250 . S
O223 Gd169 2.412 . S
O223 C236 1.252 . S
C224 O213 1.284 . S
C224 O216 1.250 . S
C225 H194 0.929 . S
C225 C210 1.437 . S
C225 C226 1.317 . S
C226 H197 0.930 . S
C226 C202 1.431 . S
C226 C225 1.317 . S
C227 Gd168 2.828 1_545 S
C227 O212 1.258 . S
C227 O217 1.252 . S
C227 C228 1.497 . S
C228 C227 1.497 . S
C228 C229 1.395 . S
C228 C230 1.380 . S
C229 C228 1.395 . S
C229 C232 1.398 . S
C229 H244 0.930 . S
C230 C228 1.380 . S
C230 C231 1.391 1_655 S
C230 H245 0.930 . S
C231 C230 1.391 1_455 S
C231 C233 1.387 . S
C232 C229 1.398 . S
C232 C233 1.380 1_655 S
C232 H246 0.929 1_655 S
C233 C231 1.387 . S
C233 C232 1.380 1_455 S
C233 H247 0.930 . S
C234 O214 1.254 . S
C234 O215 1.268 . S
C235 O219 1.284 . S
C235 O222 1.250 . S
C236 Gd169 2.828 . S
C236 O218 1.258 1_554 S
C236 O223 1.252 . S
C236 C237 1.497 . S
C237 C236 1.497 . S
C237 C238 1.395 1_554 S
C237 C239 1.380 . S
C238 C237 1.395 1_556 S
C238 C241 1.398 . S
C238 H248 0.930 . S
C239 C237 1.380 . S
C239 C240 1.391 . S
C239 H249 0.930 . S
C240 C239 1.391 . S
C240 C242 1.387 . S
C241 C238 1.398 . S
C241 C242 1.380 1_556 S
C241 H250 0.930 . S
C242 C240 1.387 . S
C242 C241 1.380 1_554 S
C242 H251 0.930 . S
C243 O220 1.254 1_556 S
C243 O221 1.268 . S
H244 C229 0.930 . S
H245 C230 0.930 . S
H246 C232 0.929 1_455 S
H247 C233 0.930 . S
H248 C238 0.930 . S
H249 C239 0.930 . S
H250 C241 0.930 . S
H251 C242 0.930 . S
Gd252 N283 2.661 . S
Gd252 N289 2.601 . S
Gd252 O296 2.545 . S
Gd252 O297 2.606 . S
Gd252 O299 2.429 . S
Gd252 O300 2.545 . S
Gd252 O301 2.412 . S
Gd252 O303 2.362 . S
Gd252 O304 2.324 . S
Gd252 C311 2.828 . S
Gd253 N262 2.661 . S
Gd253 N266 2.601 . S
Gd253 O297 2.362 . S
Gd253 O298 2.324 . S
Gd253 O302 2.545 . S
Gd253 O303 2.606 . S
Gd253 O305 2.429 . S
Gd253 O306 2.545 . S
Gd253 O307 2.412 . S
Gd253 C320 2.828 . S
C254 C257 1.417 . S
C254 C259 1.431 . S
C254 C260 1.412 . S
C255 C258 1.437 . S
C255 C259 1.317 . S
C255 H274 0.929 . S
C256 C257 1.426 . S
C256 C258 1.413 . S
C256 N266 1.359 1_455 S
C257 C254 1.417 . S
C257 C256 1.426 . S
C257 N262 1.350 1_455 S
C258 C255 1.437 . S
C258 C256 1.413 . S
C258 C268 1.391 . S
C259 C254 1.431 . S
C259 C255 1.317 . S
C259 H270 0.930 . S
C260 C254 1.412 . S
C260 C261 1.355 . S
C260 H272 0.930 . S
C261 C260 1.355 . S
C261 C263 1.402 . S
C261 H273 0.930 . S
N262 Gd253 2.661 . S
N262 C257 1.350 1_655 S
N262 C263 1.307 1_655 S
C263 C261 1.402 . S
C263 N262 1.307 1_455 S
C263 H264 0.930 1_455 S
H264 C263 0.930 1_655 S
C265 N266 1.334 . S
C265 C267 1.394 . S
C265 H269 0.930 . S
N266 Gd253 2.601 . S
N266 C256 1.359 1_655 S
N266 C265 1.334 . S
C267 C265 1.394 . S
C267 C268 1.359 1_655 S
C267 H279 0.930 . S
C268 C258 1.391 . S
C268 C267 1.359 1_455 S
C268 H280 0.929 . S
H269 C265 0.930 . S
H270 C259 0.930 . S
H271 C288 0.930 . S
H272 C260 0.930 . S
H273 C261 0.930 . S
H274 C255 0.929 . S
H275 C293 0.930 . S
H276 C284 0.930 . S
H277 C285 0.930 . S
H278 C309 0.929 . S
H279 C267 0.930 . S
H280 C268 0.929 . S
H281 C310 0.930 . S
H282 C291 0.930 . S
N283 Gd252 2.661 . S
N283 C287 1.350 . S
N283 C288 1.307 . S
C284 H276 0.930 . S
C284 C285 1.355 . S
C284 C286 1.412 . S
C285 H277 0.930 . S
C285 C284 1.355 . S
C285 C288 1.402 . S
C286 C284 1.412 . S
C286 C287 1.417 . S
C286 C310 1.431 . S
C287 N283 1.350 . S
C287 C286 1.417 . S
C287 C290 1.426 . S
C288 H271 0.930 . S
C288 N283 1.307 . S
C288 C285 1.402 . S
N289 Gd252 2.601 . S
N289 C290 1.359 . S
N289 C293 1.334 . S
C290 C287 1.426 . S
C290 N289 1.359 . S
C290 C294 1.413 . S
C291 H282 0.930 . S
C291 C292 1.359 . S
C291 C293 1.394 . S
C292 C291 1.359 . S
C292 C294 1.391 . S
C292 H295 0.929 . S
C293 H275 0.930 . S
C293 N289 1.334 . S
C293 C291 1.394 . S
C294 C290 1.413 . S
C294 C292 1.391 . S
C294 C309 1.437 . S
H295 C292 0.929 . S
O296 Gd252 2.545 . S
O296 C311 1.258 . S
O297 Gd252 2.606 . S
O297 Gd253 2.362 . S
O297 C308 1.284 . S
O298 Gd253 2.324 . S
O298 C318 1.254 . S
O299 Gd252 2.429 . S
O299 C318 1.268 . S
O300 Gd252 2.545 . S
O300 C308 1.250 . S
O301 Gd252 2.412 . S
O301 C311 1.252 . S
O302 Gd253 2.545 . S
O302 C320 1.258 . S
O303 Gd252 2.362 . S
O303 Gd253 2.606 . S
O303 C319 1.284 . S
O304 Gd252 2.324 . S
O304 C327 1.254 . S
O305 Gd253 2.429 . S
O305 C327 1.268 . S
O306 Gd253 2.545 . S
O306 C319 1.250 . S
O307 Gd253 2.412 . S
O307 C320 1.252 . S
C308 O297 1.284 . S
C308 O300 1.250 . S
C309 H278 0.929 . S
C309 C294 1.437 . S
C309 C310 1.317 . S
C310 H281 0.930 . S
C310 C286 1.431 . S
C310 C309 1.317 . S
C311 Gd252 2.828 . S
C311 O296 1.258 . S
C311 O301 1.252 . S
C311 C312 1.497 . S
C312 C311 1.497 . S
C312 C313 1.395 . S
C312 C314 1.380 . S
C313 C312 1.395 . S
C313 C316 1.398 . S
C313 H328 0.930 . S
C314 C312 1.380 . S
C314 C315 1.391 1_565 S
C314 H329 0.930 . S
C315 C314 1.391 1_545 S
C315 C317 1.387 . S
C316 C313 1.398 . S
C316 C317 1.380 1_565 S
C316 H330 0.928 1_565 S
C317 C315 1.387 . S
C317 C316 1.380 1_545 S
C317 H331 0.930 . S
C318 O298 1.254 . S
C318 O299 1.268 . S
C319 O303 1.284 . S
C319 O306 1.250 . S
C320 Gd253 2.828 . S
C320 O302 1.258 . S
C320 O307 1.252 . S
C320 C321 1.497 . S
C321 C320 1.497 . S
C321 C322 1.395 . S
C321 C323 1.380 . S
C322 C321 1.395 . S
C322 C325 1.398 . S
C322 H332 0.930 . S
C323 C321 1.380 . S
C323 C324 1.391 . S
C323 H333 0.930 . S
C324 C323 1.391 . S
C324 C326 1.387 . S
C325 C322 1.398 . S
C325 C326 1.380 . S
C325 H334 0.930 . S
C326 C324 1.387 . S
C326 C325 1.380 . S
C326 H335 0.930 . S
C327 O304 1.254 . S
C327 O305 1.268 . S
H328 C313 0.930 . S
H329 C314 0.930 . S
H330 C316 0.928 1_545 S
H331 C317 0.930 . S
H332 C322 0.930 . S
H333 C323 0.930 . S
H334 C325 0.930 . S
H335 C326 0.930 . S
Gd336 N367 2.661 1_455 S
Gd336 N373 2.601 . S
Gd336 O380 2.545 1_455 S
Gd336 O381 2.606 . S
Gd336 O383 2.429 . S
Gd336 O384 2.545 . S
Gd336 O385 2.412 1_455 S
Gd336 O387 2.362 . S
Gd336 O388 2.324 . S
Gd336 C395 2.828 1_455 S
Gd337 N346 2.661 . S
Gd337 N350 2.601 1_554 S
Gd337 O381 2.362 . S
Gd337 O382 2.324 . S
Gd337 O386 2.545 1_554 S
Gd337 O387 2.606 . S
Gd337 O389 2.429 1_554 S
Gd337 O390 2.545 . S
Gd337 O391 2.412 . S
Gd337 C404 2.828 . S
C338 C341 1.417 . S
C338 C343 1.431 1_554 S
C338 C344 1.412 . S
C339 C342 1.437 . S
C339 C343 1.317 . S
C339 H358 0.929 . S
C340 C341 1.426 1_556 S
C340 C342 1.413 . S
C340 N350 1.359 1_545 S
C341 C338 1.417 . S
C341 C340 1.426 1_554 S
C341 N346 1.350 1_545 S
C342 C339 1.437 . S
C342 C340 1.413 . S
C342 C352 1.391 . S
C343 C338 1.431 1_556 S
C343 C339 1.317 . S
C343 H354 0.930 . S
C344 C338 1.412 . S
C344 C345 1.355 . S
C344 H356 0.930 . S
C345 C344 1.355 . S
C345 C347 1.402 . S
C345 H357 0.930 . S
N346 Gd337 2.661 . S
N346 C341 1.350 1_565 S
N346 C347 1.307 1_565 S
C347 C345 1.402 . S
C347 N346 1.307 1_545 S
C347 H348 0.930 1_545 S
H348 C347 0.930 1_565 S
C349 N350 1.334 . S
C349 C351 1.394 . S
C349 H353 0.930 . S
N350 Gd337 2.601 1_556 S
N350 C340 1.359 1_565 S
N350 C349 1.334 . S
C351 C349 1.394 . S
C351 C352 1.359 1_565 S
C351 H363 0.930 . S
C352 C342 1.391 . S
C352 C351 1.359 1_545 S
C352 H364 0.929 . S
H353 C349 0.930 . S
H354 C343 0.930 . S
H355 C372 0.928 1_455 S
H356 C344 0.930 . S
H357 C345 0.930 . S
H358 C339 0.929 . S
H359 C377 0.930 . S
H360 C368 0.930 . S
H361 C369 0.930 . S
H362 C393 0.929 . S
H363 C351 0.930 . S
H364 C352 0.929 . S
H365 C394 0.930 . S
H366 C375 0.930 1_455 S
N367 Gd336 2.661 1_655 S
N367 C371 1.350 . S
N367 C372 1.307 . S
C368 H360 0.930 . S
C368 C369 1.355 . S
C368 C370 1.412 . S
C369 H361 0.930 . S
C369 C368 1.355 . S
C369 C372 1.402 . S
C370 C368 1.412 . S
C370 C371 1.417 . S
C370 C394 1.431 . S
C371 N367 1.350 . S
C371 C370 1.417 . S
C371 C374 1.426 . S
C372 H355 0.928 1_655 S
C372 N367 1.307 . S
C372 C369 1.402 . S
N373 Gd336 2.601 . S
N373 C374 1.359 1_455 S
N373 C377 1.334 . S
C374 C371 1.426 . S
C374 N373 1.359 1_655 S
C374 C378 1.413 . S
C375 H366 0.930 1_655 S
C375 C376 1.359 . S
C375 C377 1.394 1_655 S
C376 C375 1.359 . S
C376 C378 1.391 . S
C376 H379 0.929 . S
C377 H359 0.930 . S
C377 N373 1.334 . S
C377 C375 1.394 1_455 S
C378 C374 1.413 . S
C378 C376 1.391 . S
C378 C393 1.437 . S
H379 C376 0.929 . S
O380 Gd336 2.545 1_655 S
O380 C395 1.258 . S
O381 Gd336 2.606 . S
O381 Gd337 2.362 . S
O381 C392 1.284 . S
O382 Gd337 2.324 . S
O382 C402 1.254 . S
O383 Gd336 2.429 . S
O383 C402 1.268 . S
O384 Gd336 2.545 . S
O384 C392 1.250 . S
O385 Gd336 2.412 1_655 S
O385 C395 1.252 . S
O386 Gd337 2.545 1_556 S
O386 C404 1.258 1_556 S
O387 Gd336 2.362 . S
O387 Gd337 2.606 . S
O387 C403 1.284 . S
O388 Gd336 2.324 . S
O388 C411 1.254 1_554 S
O389 Gd337 2.429 1_556 S
O389 C411 1.268 . S
O390 Gd337 2.545 . S
O390 C403 1.250 . S
O391 Gd337 2.412 . S
O391 C404 1.252 . S
C392 O381 1.284 . S
C392 O384 1.250 . S
C393 H362 0.929 . S
C393 C378 1.437 . S
C393 C394 1.317 . S
C394 H365 0.930 . S
C394 C370 1.431 . S
C394 C393 1.317 . S
C395 Gd336 2.828 1_655 S
C395 O380 1.258 . S
C395 O385 1.252 . S
C395 C396 1.497 . S
C396 C395 1.497 . S
C396 C397 1.395 . S
C396 C398 1.380 . S
C397 C396 1.395 . S
C397 C400 1.398 . S
C397 H412 0.930 . S
C398 C396 1.380 . S
C398 C399 1.391 . S
C398 H413 0.930 . S
C399 C398 1.391 . S
C399 C401 1.387 . S
C400 C397 1.398 . S
C400 C401 1.380 . S
C400 H414 0.930 . S
C401 C399 1.387 . S
C401 C400 1.380 . S
C401 H415 0.930 . S
C402 O382 1.254 . S
C402 O383 1.268 . S
C403 O387 1.284 . S
C403 O390 1.250 . S
C404 Gd337 2.828 . S
C404 O386 1.258 1_554 S
C404 O391 1.252 . S
C404 C405 1.497 . S
C405 C404 1.497 . S
C405 C406 1.395 1_554 S
C405 C407 1.380 . S
C406 C405 1.395 1_556 S
C406 C409 1.398 . S
C406 H416 0.930 . S
C407 C405 1.380 . S
C407 C408 1.391 . S
C407 H417 0.930 . S
C408 C407 1.391 . S
C408 C410 1.387 . S
C409 C406 1.398 . S
C409 C410 1.380 1_556 S
C409 H418 0.930 . S
C410 C408 1.387 . S
C410 C409 1.380 1_554 S
C410 H419 0.930 . S
C411 O388 1.254 1_556 S
C411 O389 1.268 . S
H412 C397 0.930 . S
H413 C398 0.930 . S
H414 C400 0.930 . S
H415 C401 0.930 . S
H416 C406 0.930 . S
H417 C407 0.930 . S
H418 C409 0.930 . S
H419 C410 0.930 . S
Gd420 N451 2.661 1_545 S
Gd420 N457 2.601 . S
Gd420 O464 2.545 1_545 S
Gd420 O465 2.606 . S
Gd420 O467 2.429 . S
Gd420 O468 2.545 . S
Gd420 O469 2.412 1_545 S
Gd420 O471 2.362 . S
Gd420 O472 2.324 . S
Gd420 C479 2.828 1_545 S
Gd421 N430 2.661 . S
Gd421 N434 2.601 . S
Gd421 O465 2.362 . S
Gd421 O466 2.324 . S
Gd421 O470 2.545 . S
Gd421 O471 2.606 . S
Gd421 O473 2.429 . S
Gd421 O474 2.545 . S
Gd421 O475 2.412 . S
Gd421 C488 2.828 . S
C422 C425 1.417 . S
C422 C427 1.431 . S
C422 C428 1.412 . S
C423 C426 1.437 . S
C423 C427 1.317 . S
C423 H442 0.929 . S
C424 C425 1.426 . S
C424 C426 1.413 . S
C424 N434 1.359 . S
C425 C422 1.417 . S
C425 C424 1.426 . S
C425 N430 1.350 . S
C426 C423 1.437 . S
C426 C424 1.413 . S
C426 C436 1.391 . S
C427 C422 1.431 . S
C427 C423 1.317 . S
C427 H438 0.930 . S
C428 C422 1.412 . S
C428 C429 1.355 . S
C428 H440 0.930 . S
C429 C428 1.355 . S
C429 C431 1.402 . S
C429 H441 0.930 . S
N430 Gd421 2.661 . S
N430 C425 1.350 . S
N430 C431 1.307 . S
C431 C429 1.402 . S
C431 N430 1.307 . S
C431 H432 0.930 . S
H432 C431 0.930 . S
C433 N434 1.334 . S
C433 C435 1.394 . S
C433 H437 0.930 . S
N434 Gd421 2.601 . S
N434 C424 1.359 . S
N434 C433 1.334 . S
C435 C433 1.394 . S
C435 C436 1.359 . S
C435 H447 0.930 . S
C436 C426 1.391 . S
C436 C435 1.359 . S
C436 H448 0.929 . S
H437 C433 0.930 . S
H438 C427 0.930 . S
H439 C456 0.919 1_545 S
H440 C428 0.930 . S
H441 C429 0.930 . S
H442 C423 0.929 . S
H443 C461 0.930 . S
H444 C452 0.930 . S
H445 C453 0.930 . S
H446 C477 0.929 . S
H447 C435 0.930 . S
H448 C436 0.929 . S
H449 C478 0.930 . S
H450 C459 0.930 1_545 S
N451 Gd420 2.661 1_565 S
N451 C455 1.350 . S
N451 C456 1.307 . S
C452 H444 0.930 . S
C452 C453 1.355 . S
C452 C454 1.412 . S
C453 H445 0.930 . S
C453 C452 1.355 . S
C453 C456 1.402 . S
C454 C452 1.412 . S
C454 C455 1.417 . S
C454 C478 1.431 . S
C455 N451 1.350 . S
C455 C454 1.417 . S
C455 C458 1.426 . S
C456 H439 0.919 1_565 S
C456 N451 1.307 . S
C456 C453 1.402 . S
N457 Gd420 2.601 . S
N457 C458 1.359 1_545 S
N457 C461 1.334 . S
C458 C455 1.426 . S
C458 N457 1.359 1_565 S
C458 C462 1.413 . S
C459 H450 0.930 1_565 S
C459 C460 1.359 . S
C459 C461 1.394 1_565 S
C460 C459 1.359 . S
C460 C462 1.391 . S
C460 H463 0.929 . S
C461 H443 0.930 . S
C461 N457 1.334 . S
C461 C459 1.394 1_545 S
C462 C458 1.413 . S
C462 C460 1.391 . S
C462 C477 1.437 . S
H463 C460 0.929 . S
O464 Gd420 2.545 1_565 S
O464 C479 1.258 . S
O465 Gd420 2.606 . S
O465 Gd421 2.362 . S
O465 C476 1.284 . S
O466 Gd421 2.324 . S
O466 C486 1.254 . S
O467 Gd420 2.429 . S
O467 C486 1.268 . S
O468 Gd420 2.545 . S
O468 C476 1.250 . S
O469 Gd420 2.412 1_565 S
O469 C479 1.252 . S
O470 Gd421 2.545 . S
O470 C488 1.258 . S
O471 Gd420 2.362 . S
O471 Gd421 2.606 . S
O471 C487 1.284 . S
O472 Gd420 2.324 . S
O472 C495 1.254 . S
O473 Gd421 2.429 . S
O473 C495 1.268 . S
O474 Gd421 2.545 . S
O474 C487 1.250 . S
O475 Gd421 2.412 . S
O475 C488 1.252 . S
C476 O465 1.284 . S
C476 O468 1.250 . S
C477 H446 0.929 . S
C477 C462 1.437 . S
C477 C478 1.317 . S
C478 H449 0.930 . S
C478 C454 1.431 . S
C478 C477 1.317 . S
C479 Gd420 2.828 1_565 S
C479 O464 1.258 . S
C479 O469 1.252 . S
C479 C480 1.497 . S
C480 C479 1.497 . S
C480 C481 1.395 . S
C480 C482 1.380 . S
C481 C480 1.395 . S
C481 C484 1.398 . S
C481 H496 0.930 . S
C482 C480 1.380 . S
C482 C483 1.391 1_455 S
C482 H497 0.930 . S
C483 C482 1.391 1_655 S
C483 C485 1.387 . S
C484 C481 1.398 . S
C484 C485 1.380 1_455 S
C484 H498 0.929 1_455 S
C485 C483 1.387 . S
C485 C484 1.380 1_655 S
C485 H499 0.930 . S
C486 O466 1.254 . S
C486 O467 1.268 . S
C487 O471 1.284 . S
C487 O474 1.250 . S
C488 Gd421 2.828 . S
C488 O470 1.258 . S
C488 O475 1.252 . S
C488 C489 1.497 . S
C489 C488 1.497 . S
C489 C490 1.395 . S
C489 C491 1.380 . S
C490 C489 1.395 . S
C490 C493 1.398 . S
C490 H500 0.930 . S
C491 C489 1.380 . S
C491 C492 1.391 . S
C491 H501 0.930 . S
C492 C491 1.391 . S
C492 C494 1.387 . S
C493 C490 1.398 . S
C493 C494 1.380 . S
C493 H502 0.930 . S
C494 C492 1.387 . S
C494 C493 1.380 . S
C494 H503 0.930 . S
C495 O472 1.254 . S
C495 O473 1.268 . S
H496 C481 0.930 . S
H497 C482 0.930 . S
H498 C484 0.929 1_655 S
H499 C485 0.930 . S
H500 C490 0.930 . S
H501 C491 0.930 . S
H502 C493 0.930 . S
H503 C494 0.930 . S
Gd504 N535 2.661 . S
Gd504 N541 2.601 . S
Gd504 O548 2.545 . S
Gd504 O549 2.606 . S
Gd504 O551 2.429 . S
Gd504 O552 2.545 . S
Gd504 O553 2.412 . S
Gd504 O555 2.362 . S
Gd504 O556 2.324 . S
Gd504 C563 2.828 . S
Gd505 N514 2.661 . S
Gd505 N518 2.601 . S
Gd505 O549 2.362 . S
Gd505 O550 2.324 . S
Gd505 O554 2.545 . S
Gd505 O555 2.606 . S
Gd505 O557 2.429 . S
Gd505 O558 2.545 . S
Gd505 O559 2.412 . S
Gd505 C572 2.828 . S
C506 C509 1.417 . S
C506 C511 1.431 . S
C506 C512 1.412 . S
C507 C510 1.437 . S
C507 C511 1.317 . S
C507 H526 0.929 . S
C508 C509 1.426 . S
C508 C510 1.413 . S
C508 N518 1.359 1_545 S
C509 C506 1.417 . S
C509 C508 1.426 . S
C509 N514 1.350 1_545 S
C510 C507 1.437 . S
C510 C508 1.413 . S
C510 C520 1.391 . S
C511 C506 1.431 . S
C511 C507 1.317 . S
C511 H522 0.930 . S
C512 C506 1.412 . S
C512 C513 1.355 . S
C512 H524 0.930 . S
C513 C512 1.355 . S
C513 C515 1.402 . S
C513 H525 0.930 . S
N514 Gd505 2.661 . S
N514 C509 1.350 1_565 S
N514 C515 1.307 1_565 S
C515 C513 1.402 . S
C515 N514 1.307 1_545 S
C515 H516 0.930 1_545 S
H516 C515 0.930 1_565 S
C517 N518 1.334 . S
C517 C519 1.394 . S
C517 H521 0.930 . S
N518 Gd505 2.601 . S
N518 C508 1.359 1_565 S
N518 C517 1.334 . S
C519 C517 1.394 . S
C519 C520 1.359 1_565 S
C519 H531 0.930 . S
C520 C510 1.391 . S
C520 C519 1.359 1_545 S
C520 H532 0.929 . S
H521 C517 0.930 . S
H522 C511 0.930 . S
H523 C540 0.930 . S
H524 C512 0.930 . S
H525 C513 0.930 . S
H526 C507 0.929 . S
H527 C545 0.930 . S
H528 C536 0.930 . S
H529 C537 0.930 . S
H530 C561 0.929 . S
H531 C519 0.930 . S
H532 C520 0.929 . S
H533 C562 0.930 . S
H534 C543 0.930 . S
N535 Gd504 2.661 . S
N535 C539 1.350 . S
N535 C540 1.307 . S
C536 H528 0.930 . S
C536 C537 1.355 . S
C536 C538 1.412 . S
C537 H529 0.930 . S
C537 C536 1.355 . S
C537 C540 1.402 . S
C538 C536 1.412 . S
C538 C539 1.417 . S
C538 C562 1.431 . S
C539 N535 1.350 . S
C539 C538 1.417 . S
C539 C542 1.426 . S
C540 H523 0.930 . S
C540 N535 1.307 . S
C540 C537 1.402 . S
N541 Gd504 2.601 . S
N541 C542 1.359 . S
N541 C545 1.334 . S
C542 C539 1.426 . S
C542 N541 1.359 . S
C542 C546 1.413 . S
C543 H534 0.930 . S
C543 C544 1.359 . S
C543 C545 1.394 . S
C544 C543 1.359 . S
C544 C546 1.391 . S
C544 H547 0.929 . S
C545 H527 0.930 . S
C545 N541 1.334 . S
C545 C543 1.394 . S
C546 C542 1.413 . S
C546 C544 1.391 . S
C546 C561 1.437 . S
H547 C544 0.929 . S
O548 Gd504 2.545 . S
O548 C563 1.258 . S
O549 Gd504 2.606 . S
O549 Gd505 2.362 . S
O549 C560 1.284 . S
O550 Gd505 2.324 . S
O550 C570 1.254 . S
O551 Gd504 2.429 . S
O551 C570 1.268 . S
O552 Gd504 2.545 . S
O552 C560 1.250 . S
O553 Gd504 2.412 . S
O553 C563 1.252 . S
O554 Gd505 2.545 . S
O554 C572 1.258 . S
O555 Gd504 2.362 . S
O555 Gd505 2.606 . S
O555 C571 1.284 . S
O556 Gd504 2.324 . S
O556 C579 1.254 . S
O557 Gd505 2.429 . S
O557 C579 1.268 . S
O558 Gd505 2.545 . S
O558 C571 1.250 . S
O559 Gd505 2.412 . S
O559 C572 1.252 . S
C560 O549 1.284 . S
C560 O552 1.250 . S
C561 H530 0.929 . S
C561 C546 1.437 . S
C561 C562 1.317 . S
C562 H533 0.930 . S
C562 C538 1.431 . S
C562 C561 1.317 . S
C563 Gd504 2.828 . S
C563 O548 1.258 . S
C563 O553 1.252 . S
C563 C564 1.497 . S
C564 C563 1.497 . S
C564 C565 1.395 . S
C564 C566 1.380 . S
C565 C564 1.395 . S
C565 C568 1.398 . S
C565 H580 0.930 . S
C566 C564 1.380 . S
C566 C567 1.391 1_655 S
C566 H581 0.930 . S
C567 C566 1.391 1_455 S
C567 C569 1.387 . S
C568 C565 1.398 . S
C568 C569 1.380 1_655 S
C568 H582 0.928 1_655 S
C569 C567 1.387 . S
C569 C568 1.380 1_455 S
C569 H583 0.930 . S
C570 O550 1.254 . S
C570 O551 1.268 . S
C571 O555 1.284 . S
C571 O558 1.250 . S
C572 Gd505 2.828 . S
C572 O554 1.258 . S
C572 O559 1.252 . S
C572 C573 1.497 . S
C573 C572 1.497 . S
C573 C574 1.395 . S
C573 C575 1.380 . S
C574 C573 1.395 . S
C574 C577 1.398 . S
C574 H584 0.930 . S
C575 C573 1.380 . S
C575 C576 1.391 . S
C575 H585 0.930 . S
C576 C575 1.391 . S
C576 C578 1.387 . S
C577 C574 1.398 . S
C577 C578 1.380 . S
C577 H586 0.930 . S
C578 C576 1.387 . S
C578 C577 1.380 . S
C578 H587 0.930 . S
C579 O556 1.254 . S
C579 O557 1.268 . S
H580 C565 0.930 . S
H581 C566 0.930 . S
H582 C568 0.928 1_455 S
H583 C569 0.930 . S
H584 C574 0.930 . S
H585 C575 0.930 . S
H586 C577 0.930 . S
H587 C578 0.930 . S
Gd588 N619 2.661 1_655 S
Gd588 N625 2.601 . S
Gd588 O632 2.545 1_655 S
Gd588 O633 2.606 . S
Gd588 O635 2.429 . S
Gd588 O636 2.545 . S
Gd588 O637 2.412 1_655 S
Gd588 O639 2.362 . S
Gd588 O640 2.324 . S
Gd588 C647 2.828 1_655 S
Gd589 N598 2.661 . S
Gd589 N602 2.601 1_556 S
Gd589 O633 2.362 . S
Gd589 O634 2.324 . S
Gd589 O638 2.545 1_556 S
Gd589 O639 2.606 . S
Gd589 O641 2.429 1_556 S
Gd589 O642 2.545 . S
Gd589 O643 2.412 . S
Gd589 C656 2.828 . S
C590 C593 1.417 . S
C590 C595 1.431 1_556 S
C590 C596 1.412 . S
C591 C594 1.437 . S
C591 C595 1.317 . S
C591 H610 0.929 . S
C592 C593 1.426 1_554 S
C592 C594 1.413 . S
C592 N602 1.359 . S
C593 C590 1.417 . S
C593 C592 1.426 1_556 S
C593 N598 1.350 . S
C594 C591 1.437 . S
C594 C592 1.413 . S
C594 C604 1.391 . S
C595 C590 1.431 1_554 S
C595 C591 1.317 . S
C595 H606 0.930 . S
C596 C590 1.412 . S
C596 C597 1.355 . S
C596 H608 0.930 . S
C597 C596 1.355 . S
C597 C599 1.402 . S
C597 H609 0.930 . S
N598 Gd589 2.661 . S
N598 C593 1.350 . S
N598 C599 1.307 . S
C599 C597 1.402 . S
C599 N598 1.307 . S
C599 H600 0.930 . S
H600 C599 0.930 . S
C601 N602 1.334 . S
C601 C603 1.394 . S
C601 H605 0.930 . S
N602 Gd589 2.601 1_554 S
N602 C592 1.359 . S
N602 C601 1.334 . S
C603 C601 1.394 . S
C603 C604 1.359 . S
C603 H615 0.930 . S
C604 C594 1.391 . S
C604 C603 1.359 . S
C604 H616 0.929 . S
H605 C601 0.930 . S
H606 C595 0.930 . S
H607 C624 0.919 1_655 S
H608 C596 0.930 . S
H609 C597 0.930 . S
H610 C591 0.929 . S
H611 C629 0.930 . S
H612 C620 0.930 . S
H613 C621 0.930 . S
H614 C645 0.929 . S
H615 C603 0.930 . S
H616 C604 0.929 . S
H617 C646 0.930 . S
H618 C627 0.930 1_655 S
N619 Gd588 2.661 1_455 S
N619 C623 1.350 . S
N619 C624 1.307 . S
C620 H612 0.930 . S
C620 C621 1.355 . S
C620 C622 1.412 . S
C621 H613 0.930 . S
C621 C620 1.355 . S
C621 C624 1.402 . S
C622 C620 1.412 . S
C622 C623 1.417 . S
C622 C646 1.431 . S
C623 N619 1.350 . S
C623 C622 1.417 . S
C623 C626 1.426 . S
C624 H607 0.919 1_455 S
C624 N619 1.307 . S
C624 C621 1.402 . S
N625 Gd588 2.601 . S
N625 C626 1.359 1_655 S
N625 C629 1.334 . S
C626 C623 1.426 . S
C626 N625 1.359 1_455 S
C626 C630 1.413 . S
C627 H618 0.930 1_455 S
C627 C628 1.359 . S
C627 C629 1.394 1_455 S
C628 C627 1.359 . S
C628 C630 1.391 . S
C628 H631 0.929 . S
C629 H611 0.930 . S
C629 N625 1.334 . S
C629 C627 1.394 1_655 S
C630 C626 1.413 . S
C630 C628 1.391 . S
C630 C645 1.437 . S
H631 C628 0.929 . S
O632 Gd588 2.545 1_455 S
O632 C647 1.258 . S
O633 Gd588 2.606 . S
O633 Gd589 2.362 . S
O633 C644 1.284 . S
O634 Gd589 2.324 . S
O634 C654 1.254 . S
O635 Gd588 2.429 . S
O635 C654 1.268 . S
O636 Gd588 2.545 . S
O636 C644 1.250 . S
O637 Gd588 2.412 1_455 S
O637 C647 1.252 . S
O638 Gd589 2.545 1_554 S
O638 C656 1.258 1_554 S
O639 Gd588 2.362 . S
O639 Gd589 2.606 . S
O639 C655 1.284 . S
O640 Gd588 2.324 . S
O640 C663 1.254 1_556 S
O641 Gd589 2.429 1_554 S
O641 C663 1.268 . S
O642 Gd589 2.545 . S
O642 C655 1.250 . S
O643 Gd589 2.412 . S
O643 C656 1.252 . S
C644 O633 1.284 . S
C644 O636 1.250 . S
C645 H614 0.929 . S
C645 C630 1.437 . S
C645 C646 1.317 . S
C646 H617 0.930 . S
C646 C622 1.431 . S
C646 C645 1.317 . S
C647 Gd588 2.828 1_455 S
C647 O632 1.258 . S
C647 O637 1.252 . S
C647 C648 1.497 . S
C648 C647 1.497 . S
C648 C649 1.395 . S
C648 C650 1.380 . S
C649 C648 1.395 . S
C649 C652 1.398 . S
C649 H664 0.930 . S
C650 C648 1.380 . S
C650 C651 1.391 1_565 S
C650 H665 0.930 . S
C651 C650 1.391 1_545 S
C651 C653 1.387 . S
C652 C649 1.398 . S
C652 C653 1.380 1_565 S
C652 H666 0.929 1_565 S
C653 C651 1.387 . S
C653 C652 1.380 1_545 S
C653 H667 0.930 . S
C654 O634 1.254 . S
C654 O635 1.268 . S
C655 O639 1.284 . S
C655 O642 1.250 . S
C656 Gd589 2.828 . S
C656 O638 1.258 1_556 S
C656 O643 1.252 . S
C656 C657 1.497 . S
C657 C656 1.497 . S
C657 C658 1.395 1_556 S
C657 C659 1.380 . S
C658 C657 1.395 1_554 S
C658 C661 1.398 . S
C658 H668 0.930 . S
C659 C657 1.380 . S
C659 C660 1.391 . S
C659 H669 0.930 . S
C660 C659 1.391 . S
C660 C662 1.387 . S
C661 C658 1.398 . S
C661 C662 1.380 1_554 S
C661 H670 0.930 . S
C662 C660 1.387 . S
C662 C661 1.380 1_556 S
C662 H671 0.930 . S
C663 O640 1.254 1_554 S
C663 O641 1.268 . S
H664 C649 0.930 . S
H665 C650 0.930 . S
H666 C652 0.929 1_545 S
H667 C653 0.930 . S
H668 C658 0.930 . S
H669 C659 0.930 . S
H670 C661 0.930 . S
H671 C662 0.930 . S
Gd672 N703 2.661 1_565 S
Gd672 N709 2.601 . S
Gd672 O716 2.545 1_565 S
Gd672 O717 2.606 . S
Gd672 O719 2.429 . S
Gd672 O720 2.545 . S
Gd672 O721 2.412 1_565 S
Gd672 O723 2.362 . S
Gd672 O724 2.324 . S
Gd672 C731 2.828 1_565 S
Gd673 N682 2.661 . S
Gd673 N686 2.601 . S
Gd673 O717 2.362 . S
Gd673 O718 2.324 . S
Gd673 O722 2.545 . S
Gd673 O723 2.606 . S
Gd673 O725 2.429 . S
Gd673 O726 2.545 . S
Gd673 O727 2.412 . S
Gd673 C740 2.828 . S
C674 C677 1.417 . S
C674 C679 1.431 . S
C674 C680 1.412 . S
C675 C678 1.437 . S
C675 C679 1.317 . S
C675 H694 0.929 . S
C676 C677 1.426 . S
C676 C678 1.413 . S
C676 N686 1.359 1_655 S
C677 C674 1.417 . S
C677 C676 1.426 . S
C677 N682 1.350 1_655 S
C678 C675 1.437 . S
C678 C676 1.413 . S
C678 C688 1.391 . S
C679 C674 1.431 . S
C679 C675 1.317 . S
C679 H690 0.930 . S
C680 C674 1.412 . S
C680 C681 1.355 . S
C680 H692 0.930 . S
C681 C680 1.355 . S
C681 C683 1.402 . S
C681 H693 0.930 . S
N682 Gd673 2.661 . S
N682 C677 1.350 1_455 S
N682 C683 1.307 1_455 S
C683 C681 1.402 . S
C683 N682 1.307 1_655 S
C683 H684 0.930 1_655 S
H684 C683 0.930 1_455 S
C685 N686 1.334 . S
C685 C687 1.394 . S
C685 H689 0.930 . S
N686 Gd673 2.601 . S
N686 C676 1.359 1_455 S
N686 C685 1.334 . S
C687 C685 1.394 . S
C687 C688 1.359 1_455 S
C687 H699 0.930 . S
C688 C678 1.391 . S
C688 C687 1.359 1_655 S
C688 H700 0.929 . S
H689 C685 0.930 . S
H690 C679 0.930 . S
H691 C708 0.928 1_565 S
H692 C680 0.930 . S
H693 C681 0.930 . S
H694 C675 0.929 . S
H695 C713 0.930 . S
H696 C704 0.930 . S
H697 C705 0.930 . S
H698 C729 0.929 . S
H699 C687 0.930 . S
H700 C688 0.929 . S
H701 C730 0.930 . S
H702 C711 0.930 1_565 S
N703 Gd672 2.661 1_545 S
N703 C707 1.350 . S
N703 C708 1.307 . S
C704 H696 0.930 . S
C704 C705 1.355 . S
C704 C706 1.412 . S
C705 H697 0.930 . S
C705 C704 1.355 . S
C705 C708 1.402 . S
C706 C704 1.412 . S
C706 C707 1.417 . S
C706 C730 1.431 . S
C707 N703 1.350 . S
C707 C706 1.417 . S
C707 C710 1.426 . S
C708 H691 0.928 1_545 S
C708 N703 1.307 . S
C708 C705 1.402 . S
N709 Gd672 2.601 . S
N709 C710 1.359 1_565 S
N709 C713 1.334 . S
C710 C707 1.426 . S
C710 N709 1.359 1_545 S
C710 C714 1.413 . S
C711 H702 0.930 1_545 S
C711 C712 1.359 . S
C711 C713 1.394 1_545 S
C712 C711 1.359 . S
C712 C714 1.391 . S
C712 H715 0.929 . S
C713 H695 0.930 . S
C713 N709 1.334 . S
C713 C711 1.394 1_565 S
C714 C710 1.413 . S
C714 C712 1.391 . S
C714 C729 1.437 . S
H715 C712 0.929 . S
O716 Gd672 2.545 1_545 S
O716 C731 1.258 . S
O717 Gd672 2.606 . S
O717 Gd673 2.362 . S
O717 C728 1.284 . S
O718 Gd673 2.324 . S
O718 C738 1.254 . S
O719 Gd672 2.429 . S
O719 C738 1.268 . S
O720 Gd672 2.545 . S
O720 C728 1.250 . S
O721 Gd672 2.412 1_545 S
O721 C731 1.252 . S
O722 Gd673 2.545 . S
O722 C740 1.258 . S
O723 Gd672 2.362 . S
O723 Gd673 2.606 . S
O723 C739 1.284 . S
O724 Gd672 2.324 . S
O724 C747 1.254 . S
O725 Gd673 2.429 . S
O725 C747 1.268 . S
O726 Gd673 2.545 . S
O726 C739 1.250 . S
O727 Gd673 2.412 . S
O727 C740 1.252 . S
C728 O717 1.284 . S
C728 O720 1.250 . S
C729 H698 0.929 . S
C729 C714 1.437 . S
C729 C730 1.317 . S
C730 H701 0.930 . S
C730 C706 1.431 . S
C730 C729 1.317 . S
C731 Gd672 2.828 1_545 S
C731 O716 1.258 . S
C731 O721 1.252 . S
C731 C732 1.497 . S
C732 C731 1.497 . S
C732 C733 1.395 . S
C732 C734 1.380 . S
C733 C732 1.395 . S
C733 C736 1.398 . S
C733 H748 0.930 . S
C734 C732 1.380 . S
C734 C735 1.391 . S
C734 H749 0.930 . S
C735 C734 1.391 . S
C735 C737 1.387 . S
C736 C733 1.398 . S
C736 C737 1.380 . S
C736 H750 0.930 . S
C737 C735 1.387 . S
C737 C736 1.380 . S
C737 H751 0.930 . S
C738 O718 1.254 . S
C738 O719 1.268 . S
C739 O723 1.284 . S
C739 O726 1.250 . S
C740 Gd673 2.828 . S
C740 O722 1.258 . S
C740 O727 1.252 . S
C740 C741 1.497 . S
C741 C740 1.497 . S
C741 C742 1.395 . S
C741 C743 1.380 . S
C742 C741 1.395 . S
C742 C745 1.398 . S
C742 H752 0.930 . S
C743 C741 1.380 . S
C743 C744 1.391 . S
C743 H753 0.930 . S
C744 C743 1.391 . S
C744 C746 1.387 . S
C745 C742 1.398 . S
C745 C746 1.380 . S
C745 H754 0.930 . S
C746 C744 1.387 . S
C746 C745 1.380 . S
C746 H755 0.930 . S
C747 O724 1.254 . S
C747 O725 1.268 . S
H748 C733 0.930 . S
H749 C734 0.930 . S
H750 C736 0.930 . S
H751 C737 0.930 . S
H752 C742 0.930 . S
H753 C743 0.930 . S
H754 C745 0.930 . S
H755 C746 0.930 . S
Gd756 N787 2.661 . S
Gd756 N793 2.601 . S
Gd756 O800 2.545 . S
Gd756 O801 2.606 . S
Gd756 O803 2.429 . S
Gd756 O804 2.545 . S
Gd756 O805 2.412 . S
Gd756 O807 2.362 . S
Gd756 O808 2.324 . S
Gd756 C815 2.828 . S
Gd757 N766 2.661 . S
Gd757 N770 2.601 1_556 S
Gd757 O801 2.362 . S
Gd757 O802 2.324 . S
Gd757 O806 2.545 1_556 S
Gd757 O807 2.606 . S
Gd757 O809 2.429 1_556 S
Gd757 O810 2.545 . S
Gd757 O811 2.412 . S
Gd757 C824 2.828 . S
C758 C761 1.417 . S
C758 C763 1.431 1_556 S
C758 C764 1.412 . S
C759 C762 1.437 . S
C759 C763 1.317 . S
C759 H778 0.929 . S
C760 C761 1.426 1_554 S
C760 C762 1.413 . S
C760 N770 1.359 1_565 S
C761 C758 1.417 . S
C761 C760 1.426 1_556 S
C761 N766 1.350 1_565 S
C762 C759 1.437 . S
C762 C760 1.413 . S
C762 C772 1.391 . S
C763 C758 1.431 1_554 S
C763 C759 1.317 . S
C763 H774 0.930 . S
C764 C758 1.412 . S
C764 C765 1.355 . S
C764 H776 0.930 . S
C765 C764 1.355 . S
C765 C767 1.402 . S
C765 H777 0.930 . S
N766 Gd757 2.661 . S
N766 C761 1.350 1_545 S
N766 C767 1.307 1_545 S
C767 C765 1.402 . S
C767 N766 1.307 1_565 S
C767 H768 0.930 1_565 S
H768 C767 0.930 1_545 S
C769 N770 1.334 . S
C769 C771 1.394 . S
C769 H773 0.930 . S
N770 Gd757 2.601 1_554 S
N770 C760 1.359 1_545 S
N770 C769 1.334 . S
C771 C769 1.394 . S
C771 C772 1.359 1_545 S
C771 H783 0.930 . S
C772 C762 1.391 . S
C772 C771 1.359 1_565 S
C772 H784 0.929 . S
H773 C769 0.930 . S
H774 C763 0.930 . S
H775 C792 0.930 . S
H776 C764 0.930 . S
H777 C765 0.930 . S
H778 C759 0.929 . S
H779 C797 0.930 . S
H780 C788 0.930 . S
H781 C789 0.930 . S
H782 C813 0.929 . S
H783 C771 0.930 . S
H784 C772 0.929 . S
H785 C814 0.930 . S
H786 C795 0.930 . S
N787 Gd756 2.661 . S
N787 C791 1.350 . S
N787 C792 1.307 . S
C788 H780 0.930 . S
C788 C789 1.355 . S
C788 C790 1.412 . S
C789 H781 0.930 . S
C789 C788 1.355 . S
C789 C792 1.402 . S
C790 C788 1.412 . S
C790 C791 1.417 . S
C790 C814 1.431 . S
C791 N787 1.350 . S
C791 C790 1.417 . S
C791 C794 1.426 . S
C792 H775 0.930 . S
C792 N787 1.307 . S
C792 C789 1.402 . S
N793 Gd756 2.601 . S
N793 C794 1.359 . S
N793 C797 1.334 . S
C794 C791 1.426 . S
C794 N793 1.359 . S
C794 C798 1.413 . S
C795 H786 0.930 . S
C795 C796 1.359 . S
C795 C797 1.394 . S
C796 C795 1.359 . S
C796 C798 1.391 . S
C796 H799 0.929 . S
C797 H779 0.930 . S
C797 N793 1.334 . S
C797 C795 1.394 . S
C798 C794 1.413 . S
C798 C796 1.391 . S
C798 C813 1.437 . S
H799 C796 0.929 . S
O800 Gd756 2.545 . S
O800 C815 1.258 . S
O801 Gd756 2.606 . S
O801 Gd757 2.362 . S
O801 C812 1.284 . S
O802 Gd757 2.324 . S
O802 C822 1.254 . S
O803 Gd756 2.429 . S
O803 C822 1.268 . S
O804 Gd756 2.545 . S
O804 C812 1.250 . S
O805 Gd756 2.412 . S
O805 C815 1.252 . S
O806 Gd757 2.545 1_554 S
O806 C824 1.258 1_554 S
O807 Gd756 2.362 . S
O807 Gd757 2.606 . S
O807 C823 1.284 . S
O808 Gd756 2.324 . S
O808 C831 1.254 1_556 S
O809 Gd757 2.429 1_554 S
O809 C831 1.268 . S
O810 Gd757 2.545 . S
O810 C823 1.250 . S
O811 Gd757 2.412 . S
O811 C824 1.252 . S
C812 O801 1.284 . S
C812 O804 1.250 . S
C813 H782 0.929 . S
C813 C798 1.437 . S
C813 C814 1.317 . S
C814 H785 0.930 . S
C814 C790 1.431 . S
C814 C813 1.317 . S
C815 Gd756 2.828 . S
C815 O800 1.258 . S
C815 O805 1.252 . S
C815 C816 1.497 . S
C816 C815 1.497 . S
C816 C817 1.395 . S
C816 C818 1.380 . S
C817 C816 1.395 . S
C817 C820 1.398 . S
C817 H832 0.930 . S
C818 C816 1.380 . S
C818 C819 1.391 1_455 S
C818 H833 0.930 . S
C819 C818 1.391 1_655 S
C819 C821 1.387 . S
C820 C817 1.398 . S
C820 C821 1.380 1_455 S
C820 H834 0.928 1_455 S
C821 C819 1.387 . S
C821 C820 1.380 1_655 S
C821 H835 0.930 . S
C822 O802 1.254 . S
C822 O803 1.268 . S
C823 O807 1.284 . S
C823 O810 1.250 . S
C824 Gd757 2.828 . S
C824 O806 1.258 1_556 S
C824 O811 1.252 . S
C824 C825 1.497 . S
C825 C824 1.497 . S
C825 C826 1.395 1_556 S
C825 C827 1.380 . S
C826 C825 1.395 1_554 S
C826 C829 1.398 . S
C826 H836 0.930 . S
C827 C825 1.380 . S
C827 C828 1.391 . S
C827 H837 0.930 . S
C828 C827 1.391 . S
C828 C830 1.387 . S
C829 C826 1.398 . S
C829 C830 1.380 1_554 S
C829 H838 0.930 . S
C830 C828 1.387 . S
C830 C829 1.380 1_556 S
C830 H839 0.930 . S
C831 O808 1.254 1_554 S
C831 O809 1.268 . S
H832 C817 0.930 . S
H833 C818 0.930 . S
H834 C820 0.928 1_655 S
H835 C821 0.930 . S
H836 C826 0.930 . S
H837 C827 0.930 . S
H838 C829 0.930 . S
H839 C830 0.930 . S
Gd840 N871 2.661 1_455 S
Gd840 N877 2.601 . S
Gd840 O884 2.545 1_455 S
Gd840 O885 2.606 . S
Gd840 O887 2.429 . S
Gd840 O888 2.545 . S
Gd840 O889 2.412 1_455 S
Gd840 O891 2.362 . S
Gd840 O892 2.324 . S
Gd840 C899 2.828 1_455 S
Gd841 N850 2.661 . S
Gd841 N854 2.601 . S
Gd841 O885 2.362 . S
Gd841 O886 2.324 . S
Gd841 O890 2.545 . S
Gd841 O891 2.606 . S
Gd841 O893 2.429 . S
Gd841 O894 2.545 . S
Gd841 O895 2.412 . S
Gd841 C908 2.828 . S
C842 C845 1.417 . S
C842 C847 1.431 . S
C842 C848 1.412 . S
C843 C846 1.437 . S
C843 C847 1.317 . S
C843 H862 0.929 . S
C844 C845 1.426 . S
C844 C846 1.413 . S
C844 N854 1.359 . S
C845 C842 1.417 . S
C845 C844 1.426 . S
C845 N850 1.350 . S
C846 C843 1.437 . S
C846 C844 1.413 . S
C846 C856 1.391 . S
C847 C842 1.431 . S
C847 C843 1.317 . S
C847 H858 0.930 . S
C848 C842 1.412 . S
C848 C849 1.355 . S
C848 H860 0.930 . S
C849 C848 1.355 . S
C849 C851 1.402 . S
C849 H861 0.930 . S
N850 Gd841 2.661 . S
N850 C845 1.350 . S
N850 C851 1.307 . S
C851 C849 1.402 . S
C851 N850 1.307 . S
C851 H852 0.930 . S
H852 C851 0.930 . S
C853 N854 1.334 . S
C853 C855 1.394 . S
C853 H857 0.930 . S
N854 Gd841 2.601 . S
N854 C844 1.359 . S
N854 C853 1.334 . S
C855 C853 1.394 . S
C855 C856 1.359 . S
C855 H867 0.930 . S
C856 C846 1.391 . S
C856 C855 1.359 . S
C856 H868 0.929 . S
H857 C853 0.930 . S
H858 C847 0.930 . S
H859 C876 0.919 1_455 S
H860 C848 0.930 . S
H861 C849 0.930 . S
H862 C843 0.929 . S
H863 C881 0.930 . S
H864 C872 0.930 . S
H865 C873 0.930 . S
H866 C897 0.929 . S
H867 C855 0.930 . S
H868 C856 0.929 . S
H869 C898 0.930 . S
H870 C879 0.930 1_455 S
N871 Gd840 2.661 1_655 S
N871 C875 1.350 . S
N871 C876 1.307 . S
C872 H864 0.930 . S
C872 C873 1.355 . S
C872 C874 1.412 . S
C873 H865 0.930 . S
C873 C872 1.355 . S
C873 C876 1.402 . S
C874 C872 1.412 . S
C874 C875 1.417 . S
C874 C898 1.431 . S
C875 N871 1.350 . S
C875 C874 1.417 . S
C875 C878 1.426 . S
C876 H859 0.919 1_655 S
C876 N871 1.307 . S
C876 C873 1.402 . S
N877 Gd840 2.601 . S
N877 C878 1.359 1_455 S
N877 C881 1.334 . S
C878 C875 1.426 . S
C878 N877 1.359 1_655 S
C878 C882 1.413 . S
C879 H870 0.930 1_655 S
C879 C880 1.359 . S
C879 C881 1.394 1_655 S
C880 C879 1.359 . S
C880 C882 1.391 . S
C880 H883 0.929 . S
C881 H863 0.930 . S
C881 N877 1.334 . S
C881 C879 1.394 1_455 S
C882 C878 1.413 . S
C882 C880 1.391 . S
C882 C897 1.437 . S
H883 C880 0.929 . S
O884 Gd840 2.545 1_655 S
O884 C899 1.258 . S
O885 Gd840 2.606 . S
O885 Gd841 2.362 . S
O885 C896 1.284 . S
O886 Gd841 2.324 . S
O886 C906 1.254 . S
O887 Gd840 2.429 . S
O887 C906 1.268 . S
O888 Gd840 2.545 . S
O888 C896 1.250 . S
O889 Gd840 2.412 1_655 S
O889 C899 1.252 . S
O890 Gd841 2.545 . S
O890 C908 1.258 . S
O891 Gd840 2.362 . S
O891 Gd841 2.606 . S
O891 C907 1.284 . S
O892 Gd840 2.324 . S
O892 C915 1.254 . S
O893 Gd841 2.429 . S
O893 C915 1.268 . S
O894 Gd841 2.545 . S
O894 C907 1.250 . S
O895 Gd841 2.412 . S
O895 C908 1.252 . S
C896 O885 1.284 . S
C896 O888 1.250 . S
C897 H866 0.929 . S
C897 C882 1.437 . S
C897 C898 1.317 . S
C898 H869 0.930 . S
C898 C874 1.431 . S
C898 C897 1.317 . S
C899 Gd840 2.828 1_655 S
C899 O884 1.258 . S
C899 O889 1.252 . S
C899 C900 1.497 . S
C900 C899 1.497 . S
C900 C901 1.395 . S
C900 C902 1.380 . S
C901 C900 1.395 . S
C901 C904 1.398 . S
C901 H916 0.930 . S
C902 C900 1.380 . S
C902 C903 1.391 1_545 S
C902 H917 0.930 . S
C903 C902 1.391 1_565 S
C903 C905 1.387 . S
C904 C901 1.398 . S
C904 C905 1.380 1_545 S
C904 H918 0.929 1_545 S
C905 C903 1.387 . S
C905 C904 1.380 1_565 S
C905 H919 0.930 . S
C906 O886 1.254 . S
C906 O887 1.268 . S
C907 O891 1.284 . S
C907 O894 1.250 . S
C908 Gd841 2.828 . S
C908 O890 1.258 . S
C908 O895 1.252 . S
C908 C909 1.497 . S
C909 C908 1.497 . S
C909 C910 1.395 . S
C909 C911 1.380 . S
C910 C909 1.395 . S
C910 C913 1.398 . S
C910 H920 0.930 . S
C911 C909 1.380 . S
C911 C912 1.391 . S
C911 H921 0.930 . S
C912 C911 1.391 . S
C912 C914 1.387 . S
C913 C910 1.398 . S
C913 C914 1.380 . S
C913 H922 0.930 . S
C914 C912 1.387 . S
C914 C913 1.380 . S
C914 H923 0.930 . S
C915 O892 1.254 . S
C915 O893 1.268 . S
H916 C901 0.930 . S
H917 C902 0.930 . S
H918 C904 0.929 1_565 S
H919 C905 0.930 . S
H920 C910 0.930 . S
H921 C911 0.930 . S
H922 C913 0.930 . S
H923 C914 0.930 . S
Gd924 N955 2.661 1_545 S
Gd924 N961 2.601 . S
Gd924 O968 2.545 1_545 S
Gd924 O969 2.606 . S
Gd924 O971 2.429 . S
Gd924 O972 2.545 . S
Gd924 O973 2.412 1_545 S
Gd924 O975 2.362 . S
Gd924 O976 2.324 . S
Gd924 C983 2.828 1_545 S
Gd925 N934 2.661 . S
Gd925 N938 2.601 1_556 S
Gd925 O969 2.362 . S
Gd925 O970 2.324 . S
Gd925 O974 2.545 1_556 S
Gd925 O975 2.606 . S
Gd925 O977 2.429 1_556 S
Gd925 O978 2.545 . S
Gd925 O979 2.412 . S
Gd925 C992 2.828 . S
C926 C929 1.417 . S
C926 C931 1.431 1_556 S
C926 C932 1.412 . S
C927 C930 1.437 . S
C927 C931 1.317 . S
C927 H946 0.929 . S
C928 C929 1.426 1_554 S
C928 C930 1.413 . S
C928 N938 1.359 1_455 S
C929 C926 1.417 . S
C929 C928 1.426 1_556 S
C929 N934 1.350 1_455 S
C930 C927 1.437 . S
C930 C928 1.413 . S
C930 C940 1.391 . S
C931 C926 1.431 1_554 S
C931 C927 1.317 . S
C931 H942 0.930 . S
C932 C926 1.412 . S
C932 C933 1.355 . S
C932 H944 0.930 . S
C933 C932 1.355 . S
C933 C935 1.402 . S
C933 H945 0.930 . S
N934 Gd925 2.661 . S
N934 C929 1.350 1_655 S
N934 C935 1.307 1_655 S
C935 C933 1.402 . S
C935 N934 1.307 1_455 S
C935 H936 0.930 1_455 S
H936 C935 0.930 1_655 S
C937 N938 1.334 . S
C937 C939 1.394 . S
C937 H941 0.930 . S
N938 Gd925 2.601 1_554 S
N938 C928 1.359 1_655 S
N938 C937 1.334 . S
C939 C937 1.394 . S
C939 C940 1.359 1_655 S
C939 H951 0.930 . S
C940 C930 1.391 . S
C940 C939 1.359 1_455 S
C940 H952 0.929 . S
H941 C937 0.930 . S
H942 C931 0.930 . S
H943 C960 0.928 1_545 S
H944 C932 0.930 . S
H945 C933 0.930 . S
H946 C927 0.929 . S
H947 C965 0.930 . S
H948 C956 0.930 . S
H949 C957 0.930 . S
H950 C981 0.929 . S
H951 C939 0.930 . S
H952 C940 0.929 . S
H953 C982 0.930 . S
H954 C963 0.930 1_545 S
N955 Gd924 2.661 1_565 S
N955 C959 1.350 . S
N955 C960 1.307 . S
C956 H948 0.930 . S
C956 C957 1.355 . S
C956 C958 1.412 . S
C957 H949 0.930 . S
C957 C956 1.355 . S
C957 C960 1.402 . S
C958 C956 1.412 . S
C958 C959 1.417 . S
C958 C982 1.431 . S
C959 N955 1.350 . S
C959 C958 1.417 . S
C959 C962 1.426 . S
C960 H943 0.928 1_565 S
C960 N955 1.307 . S
C960 C957 1.402 . S
N961 Gd924 2.601 . S
N961 C962 1.359 1_545 S
N961 C965 1.334 . S
C962 C959 1.426 . S
C962 N961 1.359 1_565 S
C962 C966 1.413 . S
C963 H954 0.930 1_565 S
C963 C964 1.359 . S
C963 C965 1.394 1_565 S
C964 C963 1.359 . S
C964 C966 1.391 . S
C964 H967 0.929 . S
C965 H947 0.930 . S
C965 N961 1.334 . S
C965 C963 1.394 1_545 S
C966 C962 1.413 . S
C966 C964 1.391 . S
C966 C981 1.437 . S
H967 C964 0.929 . S
O968 Gd924 2.545 1_565 S
O968 C983 1.258 . S
O969 Gd924 2.606 . S
O969 Gd925 2.362 . S
O969 C980 1.284 . S
O970 Gd925 2.324 . S
O970 C990 1.254 . S
O971 Gd924 2.429 . S
O971 C990 1.268 . S
O972 Gd924 2.545 . S
O972 C980 1.250 . S
O973 Gd924 2.412 1_565 S
O973 C983 1.252 . S
O974 Gd925 2.545 1_554 S
O974 C992 1.258 1_554 S
O975 Gd924 2.362 . S
O975 Gd925 2.606 . S
O975 C991 1.284 . S
O976 Gd924 2.324 . S
O976 C999 1.254 1_556 S
O977 Gd925 2.429 1_554 S
O977 C999 1.268 . S
O978 Gd925 2.545 . S
O978 C991 1.250 . S
O979 Gd925 2.412 . S
O979 C992 1.252 . S
C980 O969 1.284 . S
C980 O972 1.250 . S
C981 H950 0.929 . S
C981 C966 1.437 . S
C981 C982 1.317 . S
C982 H953 0.930 . S
C982 C958 1.431 . S
C982 C981 1.317 . S
C983 Gd924 2.828 1_565 S
C983 O968 1.258 . S
C983 O973 1.252 . S
C983 C984 1.497 . S
C984 C983 1.497 . S
C984 C985 1.395 . S
C984 C986 1.380 . S
C985 C984 1.395 . S
C985 C988 1.398 . S
C985 H1000 0.930 . S
C986 C984 1.380 . S
C986 C987 1.391 . S
C986 H1001 0.930 . S
C987 C986 1.391 . S
C987 C989 1.387 . S
C988 C985 1.398 . S
C988 C989 1.380 . S
C988 H1002 0.930 . S
C989 C987 1.387 . S
C989 C988 1.380 . S
C989 H1003 0.930 . S
C990 O970 1.254 . S
C990 O971 1.268 . S
C991 O975 1.284 . S
C991 O978 1.250 . S
C992 Gd925 2.828 . S
C992 O974 1.258 1_556 S
C992 O979 1.252 . S
C992 C993 1.497 . S
C993 C992 1.497 . S
C993 C994 1.395 1_556 S
C993 C995 1.380 . S
C994 C993 1.395 1_554 S
C994 C997 1.398 . S
C994 H1004 0.930 . S
C995 C993 1.380 . S
C995 C996 1.391 . S
C995 H1005 0.930 . S
C996 C995 1.391 . S
C996 C998 1.387 . S
C997 C994 1.398 . S
C997 C998 1.380 1_554 S
C997 H1006 0.930 . S
C998 C996 1.387 . S
C998 C997 1.380 1_556 S
C998 H1007 0.930 . S
C999 O976 1.254 1_554 S
C999 O977 1.268 . S
H1000 C985 0.930 . S
H1001 C986 0.930 . S
H1002 C988 0.930 . S
H1003 C989 0.930 . S
H1004 C994 0.930 . S
H1005 C995 0.930 . S
H1006 C997 0.930 . S
H1007 C998 0.930 . S
C392 C63 2.038 . S
C476 C147 2.038 . S
C231 C56 2.038 . S
C315 C140 2.038 . S
C399 C224 2.038 . S
C308 C483 2.038 . S
C728 C567 2.038 . S
C651 C812 2.038 . S
C896 C735 2.038 . S
C819 C980 2.038 . S
C903 C560 2.038 . S
C644 C987 2.038 . S
C403 C72 1.439 . S
C156 C487 1.439 . S
C240 C67 1.439 . S
C324 C151 1.439 . S
C235 C408 1.439 . S
C319 C492 1.439 . S
C739 C576 1.439 . S
C660 C823 1.439 . S
C744 C907 1.439 . S
C991 C828 1.439 . S
C912 C571 1.439 . S
C655 C996 1.439 . S
C906 C66 2.412 . S
C150 C990 2.412 . S
C234 C570 2.412 . S
C318 C654 2.412 . S
C402 C738 2.412 . S
C822 C486 2.412 . S
C831 C75 3.456 1_554 S
C915 C159 3.456 1_455 S
C243 C999 3.456 1_566 S
C327 C579 3.456 . S
C663 C411 3.456 1_654 S
C747 C495 3.456 1_565 S
