# Generated by pormake.
# Topology smm, (6)-cn, num edge types: 1
# Building blocks:
#     Node 0, Type 0, BuildingBlock: INOVEN_clean_sbu_0, # of connection points: 6
#     Node 1, Type 0, BuildingBlock: INOVEN_clean_sbu_0, # of connection points: 6
#     Node 2, Type 0, BuildingBlock: INOVEN_clean_sbu_0, # of connection points: 6
#     Node 3, Type 0, BuildingBlock: INOVEN_clean_sbu_0, # of connection points: 6
#     Node 4, Type 0, BuildingBlock: INOVEN_clean_sbu_0, # of connection points: 6
#     Node 5, Type 0, BuildingBlock: INOVEN_clean_sbu_0, # of connection points: 6
#     Node 6, Type 0, BuildingBlock: INOVEN_clean_sbu_0, # of connection points: 6
#     Node 7, Type 0, BuildingBlock: INOVEN_clean_sbu_0, # of connection points: 6
#     Node 8, Type 0, BuildingBlock: INOVEN_clean_sbu_0, # of connection points: 6
#     Edge 9, Type (0, 0), BuildingBlock: XIVTED_clean_linker_0, # of connection points: 2
#     Edge 10, Type (0, 0), BuildingBlock: XIVTED_clean_linker_0, # of connection points: 2
#     Edge 11, Type (0, 0), BuildingBlock: XIVTED_clean_linker_0, # of connection points: 2
#     Edge 12, Type (0, 0), BuildingBlock: XIVTED_clean_linker_0, # of connection points: 2
#     Edge 13, Type (0, 0), BuildingBlock: XIVTED_clean_linker_0, # of connection points: 2
#     Edge 14, Type (0, 0), BuildingBlock: XIVTED_clean_linker_0, # of connection points: 2
#     Edge 15, Type (0, 0), BuildingBlock: XIVTED_clean_linker_0, # of connection points: 2
#     Edge 16, Type (0, 0), BuildingBlock: XIVTED_clean_linker_0, # of connection points: 2
#     Edge 17, Type (0, 0), BuildingBlock: XIVTED_clean_linker_0, # of connection points: 2
#     Edge 18, Type (0, 0), BuildingBlock: XIVTED_clean_linker_0, # of connection points: 2
#     Edge 19, Type (0, 0), BuildingBlock: XIVTED_clean_linker_0, # of connection points: 2
#     Edge 20, Type (0, 0), BuildingBlock: XIVTED_clean_linker_0, # of connection points: 2
#     Edge 21, Type (0, 0), BuildingBlock: XIVTED_clean_linker_0, # of connection points: 2
#     Edge 22, Type (0, 0), BuildingBlock: XIVTED_clean_linker_0, # of connection points: 2
#     Edge 23, Type (0, 0), BuildingBlock: XIVTED_clean_linker_0, # of connection points: 2
#     Edge 24, Type (0, 0), BuildingBlock: XIVTED_clean_linker_0, # of connection points: 2
#     Edge 25, Type (0, 0), BuildingBlock: XIVTED_clean_linker_0, # of connection points: 2
#     Edge 26, Type (0, 0), BuildingBlock: XIVTED_clean_linker_0, # of connection points: 2
#     Edge 27, Type (0, 0), BuildingBlock: XIVTED_clean_linker_0, # of connection points: 2
#     Edge 28, Type (0, 0), BuildingBlock: XIVTED_clean_linker_0, # of connection points: 2
#     Edge 29, Type (0, 0), BuildingBlock: XIVTED_clean_linker_0, # of connection points: 2
#     Edge 30, Type (0, 0), BuildingBlock: XIVTED_clean_linker_0, # of connection points: 2
#     Edge 31, Type (0, 0), BuildingBlock: XIVTED_clean_linker_0, # of connection points: 2
#     Edge 32, Type (0, 0), BuildingBlock: XIVTED_clean_linker_0, # of connection points: 2
#     Edge 33, Type (0, 0), BuildingBlock: XIVTED_clean_linker_0, # of connection points: 2
#     Edge 34, Type (0, 0), BuildingBlock: XIVTED_clean_linker_0, # of connection points: 2
#     Edge 35, Type (0, 0), BuildingBlock: XIVTED_clean_linker_0, # of connection points: 2
# Relax obj value: 0.048
# Max RMSD: 0.127
# Mean RMSD: 0.127
data_MOF--net-smm--node1-INOVEN_clean_sbu_0--edge1-XIVTED_clean_linker_0
_symmetry_space_group_name_H-M    P1
_symmetry_Int_Tables_number       1
_symmetry_cell_setting            triclinic
loop_
_symmetry_equiv_pos_as_xyz
'x, y, z'
_cell_length_a     70.970783
_cell_length_b     70.979736
_cell_length_c     14.358635
_cell_angle_alpha  89.942532
_cell_angle_beta   89.969745
_cell_angle_gamma 120.01398
loop_
_atom_site_label
_atom_site_type_symbol
_atom_site_fract_x
_atom_site_fract_y
_atom_site_fract_z
_atom_type_partial_charge
Gd0 Gd 0.06336 0.22353 0.97502 0.0
Gd1 Gd 1.02286 0.18015 0.02717 0.0
C2 C 1.01751 0.22217 0.02225 0.0
C3 C 0.09076 0.2589 0.88909 0.0
C4 C 0.09711 0.28201 0.87419 0.0
C5 C 0.10713 0.29762 0.94484 0.0
C6 C 0.09509 0.28897 0.78499 0.0
C7 C 0.11411 0.3268 0.83567 0.0
C8 C 0.1034 0.31109 0.766 0.0
C9 C 0.11551 0.31975 0.92576 0.0
C10 C 0.0581 0.21468 0.15882 0.0
C11 C 0.06973 0.18244 0.00015 0.0
C12 C 0.99454 0.14312 0.09831 0.0
C13 C 0.9869 0.11977 0.08391 0.0
C14 C 0.98126 0.11027 -0.00503 0.0
C15 C 0.98451 0.10657 0.16091 0.0
C16 C 0.97022 0.07457 0.0611 0.0
C17 C 0.97633 0.08422 0.14968 0.0
C18 C 0.97293 0.0879 -0.01621 0.0
C19 C 1.0292 0.18883 0.84291 0.0
O20 O 0.03647 0.23231 0.97792 0.0
O21 O 1.01039 0.20281 0.06053 0.0
O22 O 0.09454 0.25326 0.97085 0.0
O23 O 0.07243 0.24404 0.85198 0.0
O24 O 0.07705 0.22592 0.11959 0.0
O25 O 0.04324 0.21068 0.10128 0.0
O26 O 0.05002 0.17226 0.03758 0.0
O27 O 0.07749 0.20157 0.95875 0.0
O28 O 0.98995 0.15306 0.03294 0.0
O29 O 1.01416 0.15503 0.13227 0.0
O30 O 1.01013 0.17824 0.88088 0.0
O31 O 0.04359 0.19263 0.90241 0.0
H32 H 0.10901 0.29286 0.01433 0.0
H33 H 0.08769 0.27734 0.7289 0.0
H34 H 0.10223 0.31593 0.69566 0.0
H35 H 0.12339 0.3314 -0.01861 0.0
H36 H 0.98308 0.12008 0.9341 0.0
H37 H 0.98871 0.11352 0.23014 0.0
H38 H 0.97427 0.07441 0.21078 0.0
H39 H 0.96867 0.08103 0.91448 0.0
Gd40 Gd 0.85817 0.86455 -0.019 0.0
Gd41 Gd 0.90134 0.86701 0.03296 0.0
C42 C 0.8588 0.81976 0.02896 0.0
C43 C 0.82332 0.85803 0.89529 0.0
C44 C 0.79976 0.84305 0.88344 0.0
C45 C 0.78605 0.85193 0.87867 0.0
C46 C 0.79082 0.8205 0.87179 0.0
C47 C 0.75471 0.81611 0.84927 0.0
C48 C 0.76847 0.80715 0.85467 0.0
C49 C 0.76383 0.83867 0.8618 0.0
C50 C 0.8669 0.868 0.16492 0.0
C51 C 0.89975 0.91178 0.00546 0.0
C52 C 0.93807 0.87462 0.10368 0.0
C53 C 0.96153 0.88984 0.09082 0.0
C54 C 0.97626 0.88259 0.10894 0.0
C55 C 0.96946 0.91125 0.05934 0.0
C56 C 1.0067 0.91793 0.0644 0.0
C57 C 0.99186 0.9252 0.04661 0.0
C58 C 0.99859 0.89645 0.09587 0.0
C59 C 0.89261 0.86467 0.8487 0.0
O60 O 0.84875 0.82867 -0.01537 0.0
O61 O 0.87824 0.83195 0.06662 0.0
O62 O 0.82974 0.8684 0.97463 0.0
O63 O 0.83678 0.85215 0.86159 0.0
O64 O 0.85569 0.87571 0.1258 0.0
O65 O 0.87085 0.85712 0.1073 0.0
O66 O 0.90956 0.90212 0.04491 0.0
O67 O 0.88088 0.90047 0.96215 0.0
O68 O 0.9283 0.86081 0.03599 0.0
O69 O 0.92638 0.88254 0.13813 0.0
O70 O 0.90301 0.85601 0.88666 0.0
O71 O 0.88902 0.87541 0.90814 0.0
H72 H 0.79263 0.8693 0.88648 0.0
H73 H 0.80109 0.81325 0.87511 0.0
H74 H 0.76196 0.78982 0.84619 0.0
H75 H 0.75387 0.84623 0.85648 0.0
H76 H 0.97046 0.86613 0.13324 0.0
H77 H 0.95834 0.91714 0.04416 0.0
H78 H 0.99753 0.94156 0.02142 0.0
H79 H 1.00953 0.89039 0.11154 0.0
Gd80 Gd 0.21698 1.01845 0.98001 0.0
Gd81 Gd 0.21391 0.05884 0.03169 0.0
C82 C 0.26138 0.06417 0.02784 0.0
C83 C 0.22499 0.99115 0.89395 0.0
C84 C 0.24185 0.98496 0.87874 0.0
C85 C 0.2477 0.97514 0.94945 0.0
C86 C 0.25072 0.98698 0.7893 0.0
C87 C 0.26988 0.96829 0.83984 0.0
C88 C 0.26465 0.97883 0.77011 0.0
C89 C 0.26156 0.96692 0.93018 0.0
C90 C 0.21324 0.02361 0.16371 0.0
C91 C 0.16939 1.01199 0.00499 0.0
C92 C 0.2062 0.08783 0.1028 0.0
C93 C 0.19139 0.0965 0.08889 0.0
C94 C 0.17044 0.08367 0.05176 0.0
C95 C 0.19867 0.11828 0.11125 0.0
C96 C 0.16427 0.11452 0.05949 0.0
C97 C 0.18528 0.12722 0.09669 0.0
C98 C 0.15695 0.09259 0.03756 0.0
C99 C 0.21638 0.05254 0.84746 0.0
O100 O 0.25268 0.04531 -0.01696 0.0
O101 O 0.24898 0.07111 0.06598 0.0
O102 O 0.21563 0.98733 0.97592 0.0
O103 O 0.22834 1.00944 0.85673 0.0
O104 O 0.20563 1.00468 0.12462 0.0
O105 O 0.22409 0.0385 0.10611 0.0
O106 O 0.17881 0.03168 0.04243 0.0
O107 O 0.18089 1.00435 0.96373 0.0
O108 O 0.22043 0.09207 0.03659 0.0
O109 O 0.19774 0.06798 0.13539 0.0
O110 O 0.2248 0.0716 0.88525 0.0
O111 O 0.20579 0.03816 0.9071 0.0
H112 H 0.24114 0.97328 0.01914 0.0
H113 H 0.24631 0.99425 0.73318 0.0
H114 H 0.27056 0.97997 0.6996 0.0
H115 H 0.2655 0.95917 -0.01416 0.0
H116 H 0.16457 0.06684 0.03324 0.0
H117 H 0.2148 0.12844 0.13988 0.0
H118 H 0.19132 0.14405 0.11562 0.0
H119 H 0.14094 0.08243 0.00798 0.0
Gd120 Gd 0.72967 0.55622 0.30861 0.0
Gd121 Gd 0.68861 0.51303 0.36054 0.0
C122 C 0.68407 0.55562 0.35244 0.0
C123 C 0.7581 0.59099 0.22239 0.0
C124 C 0.76634 0.61447 0.2092 0.0
C125 C 0.78882 0.62831 0.19939 0.0
C126 C 0.75245 0.62319 0.20195 0.0
C127 C 0.78368 0.65941 0.17425 0.0
C128 C 0.76106 0.64549 0.18444 0.0
C129 C 0.79739 0.65048 0.18208 0.0
C130 C 0.72373 0.54764 0.49248 0.0
C131 C 0.7351 0.51459 0.33725 0.0
C132 C 0.65925 0.47646 0.43183 0.0
C133 C 0.65083 0.45295 0.41953 0.0
C134 C 0.62864 0.43844 0.43463 0.0
C135 C 0.66433 0.44479 0.39136 0.0
C136 C 0.63335 0.40775 0.39341 0.0
C137 C 0.65568 0.42236 0.3788 0.0
C138 C 0.61998 0.4161 0.42168 0.0
C139 C 0.69564 0.52152 0.17637 0.0
O140 O 0.70319 0.56559 0.30925 0.0
O141 O 0.67662 0.53622 0.39102 0.0
O142 O 0.76185 0.58484 0.30294 0.0
O143 O 0.73895 0.57729 0.18782 0.0
O144 O 0.74283 0.55886 0.45453 0.0
O145 O 0.70912 0.54365 0.4337 0.0
O146 O 0.71547 0.50483 0.3754 0.0
O147 O 0.74291 0.53345 0.29334 0.0
O148 O 0.65536 0.48626 0.36369 0.0
O149 O 0.67886 0.48806 0.46645 0.0
O150 O 0.67642 0.51107 0.21308 0.0
O151 O 0.70976 0.52523 0.23698 0.0
H152 H 0.7998 0.62189 0.20383 0.0
H153 H 0.73501 0.6128 0.20924 0.0
H154 H 0.75004 0.65185 0.17963 0.0
H155 H 0.81482 0.66054 0.17298 0.0
H156 H 0.61796 0.44443 0.45636 0.0
H157 H 0.68149 0.45572 0.37853 0.0
H158 H 0.66639 0.4165 0.35613 0.0
H159 H 0.60281 0.40532 0.43487 0.0
Gd160 Gd 0.52453 0.198 0.31176 0.0
Gd161 Gd 0.56783 0.20033 0.36298 0.0
C162 C 0.52518 0.15311 0.35734 0.0
C163 C 0.48978 0.19163 0.22578 0.0
C164 C 0.46631 0.17649 0.21255 0.0
C165 C 0.45261 0.18526 0.20175 0.0
C166 C 0.45746 0.15385 0.20611 0.0
C167 C 0.4214 0.14909 0.17706 0.0
C168 C 0.43517 0.14026 0.18832 0.0
C169 C 0.43046 0.17177 0.18418 0.0
C170 C 0.53332 0.20095 0.49542 0.0
C171 C 0.56613 0.2452 0.3381 0.0
C172 C 0.6046 0.20817 0.43359 0.0
C173 C 0.62809 0.22339 0.41886 0.0
C174 C 0.63759 0.22684 0.32996 0.0
C175 C 0.64138 0.2341 0.4956 0.0
C176 C 0.67346 0.25097 0.39557 0.0
C177 C 0.66382 0.2478 0.48412 0.0
C178 C 0.66005 0.24042 0.31854 0.0
C179 C 0.55923 0.19864 0.17899 0.0
O180 O 0.51517 0.16215 0.31365 0.0
O181 O 0.54463 0.16518 0.39522 0.0
O182 O 0.49591 0.20153 0.30625 0.0
O183 O 0.50344 0.18611 0.19132 0.0
O184 O 0.52196 0.20867 0.45755 0.0
O185 O 0.53729 0.1903 0.4368 0.0
O186 O 0.57604 0.23546 0.37604 0.0
O187 O 0.54717 0.234 0.29539 0.0
O188 O 0.59436 0.19367 0.36856 0.0
O189 O 0.59312 0.21638 0.46744 0.0
O190 O 0.56984 0.19005 0.21564 0.0
O191 O 0.55548 0.20905 0.23949 0.0
H192 H 0.45914 0.20269 0.20557 0.0
H193 H 0.46775 0.14671 0.21417 0.0
H194 H 0.42871 0.12286 0.18407 0.0
H195 H 0.4205 0.17921 0.17424 0.0
H196 H 0.62772 0.21891 0.26929 0.0
H197 H 0.63443 0.23164 0.56481 0.0
H198 H 0.67368 0.2555 0.54504 0.0
H199 H 0.66691 0.24275 0.24924 0.0
Gd200 Gd 0.88377 0.3514 0.31514 0.0
Gd201 Gd 0.8807 0.39193 0.36634 0.0
C202 C 0.92822 0.39744 0.36049 0.0
C203 C 0.89159 0.32403 0.2288 0.0
C204 C 0.90831 0.31767 0.21325 0.0
C205 C 0.91418 0.30784 0.28388 0.0
C206 C 0.917 0.31951 0.12355 0.0
C207 C 0.93605 0.30069 0.17375 0.0
C208 C 0.93078 0.31122 0.10406 0.0
C209 C 0.9279 0.29946 0.2643 0.0
C210 C 0.88064 0.35708 0.49872 0.0
C211 C 0.83629 0.3448 0.34369 0.0
C212 C 0.87212 0.42039 0.43647 0.0
C213 C 0.85669 0.42833 0.42067 0.0
C214 C 0.85307 0.43392 0.33112 0.0
C215 C 0.84593 0.43107 0.49689 0.0
C216 C 0.82873 0.44559 0.39506 0.0
C217 C 0.83204 0.43954 0.48428 0.0
C218 C 0.83931 0.44253 0.31855 0.0
C219 C 0.88237 0.38504 0.18227 0.0
O220 O 0.91945 0.37843 0.3167 0.0
O221 O 0.91589 0.40447 0.39867 0.0
O222 O 0.88227 0.32022 0.31085 0.0
O223 O 0.89507 0.34238 0.19175 0.0
O224 O 0.87307 0.33803 0.46081 0.0
O225 O 0.8912 0.3718 0.4401 0.0
O226 O 0.84586 0.3645 0.38095 0.0
O227 O 0.8476 0.33718 0.30071 0.0
O228 O 0.88689 0.42496 0.37223 0.0
O229 O 0.86403 0.40066 0.46996 0.0
O230 O 0.89077 0.40424 0.21875 0.0
O231 O 0.87217 0.37086 0.24306 0.0
H232 H 0.90775 0.3061 0.35375 0.0
H233 H 0.91256 0.32677 0.0675 0.0
H234 H 0.93657 0.31225 0.03339 0.0
H235 H 0.93188 0.29173 0.31992 0.0
H236 H 0.86103 0.43182 0.27084 0.0
H237 H 0.8485 0.42692 0.56657 0.0
H238 H 0.82431 0.44186 0.54479 0.0
H239 H 0.83688 0.44673 0.24878 0.0
Gd240 Gd 0.39661 0.88991 0.64419 0.0
Gd241 Gd 0.35573 0.84693 0.69697 0.0
C242 C 0.35122 0.88951 0.69059 0.0
C243 C 0.42499 0.9247 0.55785 0.0
C244 C 0.43345 0.94824 0.54536 0.0
C245 C 0.456 0.96199 0.53809 0.0
C246 C 0.41973 0.95712 0.53596 0.0
C247 C 0.45127 0.99327 0.51111 0.0
C248 C 0.42858 0.97946 0.51879 0.0
C249 C 0.46482 0.9842 0.52116 0.0
C250 C 0.39121 0.88138 0.82837 0.0
C251 C 0.402 0.84823 0.67061 0.0
C252 C 0.3265 0.81034 0.76864 0.0
C253 C 0.31829 0.78688 0.75671 0.0
C254 C 0.29629 0.77216 0.7745 0.0
C255 C 0.33184 0.77895 0.72623 0.0
C256 C 0.30126 0.74172 0.73141 0.0
C257 C 0.32341 0.75655 0.71407 0.0
C258 C 0.28784 0.74983 0.76196 0.0
C259 C 0.36219 0.85546 0.51249 0.0
O260 O 0.37024 0.89943 0.6466 0.0
O261 O 0.34383 0.87011 0.72903 0.0
O262 O 0.42888 0.91838 0.63766 0.0
O263 O 0.40571 0.91116 0.52401 0.0
O264 O 0.41018 0.89242 0.78916 0.0
O265 O 0.37642 0.87747 0.77059 0.0
O266 O 0.38249 0.83855 0.70978 0.0
O267 O 0.40973 0.86709 0.62681 0.0
O268 O 0.32255 0.82002 0.70012 0.0
O269 O 0.34608 0.82208 0.80335 0.0
O270 O 0.34311 0.84521 0.55056 0.0
O271 O 0.3765 0.85903 0.57201 0.0
H272 H 0.46686 0.95545 0.54416 0.0
H273 H 0.40224 0.94681 0.54124 0.0
H274 H 0.41769 0.98593 0.51224 0.0
H275 H 0.4823 0.99419 0.51403 0.0
H276 H 0.28558 0.77796 0.79802 0.0
H277 H 0.34886 0.79006 0.7113 0.0
H278 H 0.33414 0.75088 0.68959 0.0
H279 H 0.2708 0.73888 0.77724 0.0
Gd280 Gd 0.19144 0.53177 0.644 0.0
Gd281 Gd 0.23493 0.53457 0.69548 0.0
C282 C 0.19265 0.48712 0.68827 0.0
C283 C 0.1566 0.52512 0.55792 0.0
C284 C 0.13314 0.50993 0.54467 0.0
C285 C 0.1194 0.51865 0.53383 0.0
C286 C 0.12434 0.4873 0.53819 0.0
C287 C 0.08825 0.48246 0.50906 0.0
C288 C 0.10206 0.47367 0.52035 0.0
C289 C 0.09726 0.50513 0.51618 0.0
C290 C 0.2001 0.53463 0.82778 0.0
C291 C 0.2327 0.57916 0.67051 0.0
C292 C 0.27177 0.54281 0.76661 0.0
C293 C 0.29519 0.55833 0.75234 0.0
C294 C 0.30474 0.5622 0.66341 0.0
C295 C 0.30839 0.56893 0.82946 0.0
C296 C 0.34048 0.58649 0.72971 0.0
C297 C 0.33079 0.58292 0.81831 0.0
C298 C 0.32717 0.57606 0.65231 0.0
C299 C 0.2264 0.53289 0.5114 0.0
O300 O 0.18249 0.49606 0.64507 0.0
O301 O 0.21204 0.49927 0.72652 0.0
O302 O 0.16269 0.53509 0.63825 0.0
O303 O 0.17031 0.51964 0.52372 0.0
O304 O 0.18863 0.54221 0.78992 0.0
O305 O 0.20426 0.52413 0.76905 0.0
O306 O 0.24277 0.5696 0.70862 0.0
O307 O 0.21379 0.5678 0.6276 0.0
O308 O 0.26176 0.52837 0.7011 0.0
O309 O 0.26001 0.5507 0.80066 0.0
O310 O 0.23718 0.52448 0.54808 0.0
O311 O 0.22247 0.54315 0.57194 0.0
H312 H 0.1259 0.53608 0.53766 0.0
H313 H 0.13466 0.4802 0.54627 0.0
H314 H 0.09563 0.45628 0.51609 0.0
H315 H 0.08728 0.51255 0.5062 0.0
H316 H 0.29494 0.55437 0.60246 0.0
H317 H 0.3014 0.56616 0.89869 0.0
H318 H 0.3406 0.59053 0.87948 0.0
H319 H 0.33407 0.5787 0.58299 0.0
Gd320 Gd 0.55072 0.68531 0.64362 0.0
Gd321 Gd 0.5478 0.72571 0.69587 0.0
C322 C 0.59521 0.73103 0.69123 0.0
C323 C 0.55867 0.65801 0.55723 0.0
C324 C 0.57547 0.65176 0.54188 0.0
C325 C 0.58121 0.64179 0.61236 0.0
C326 C 0.58436 0.65383 0.45245 0.0
C327 C 0.60332 0.63491 0.50252 0.0
C328 C 0.5982 0.64559 0.43304 0.0
C329 C 0.59499 0.63348 0.59286 0.0
C330 C 0.54716 0.69046 0.82758 0.0
C331 C 0.50329 0.67879 0.6703 0.0
C332 C 0.53919 0.75413 0.76633 0.0
C333 C 0.52378 0.7621 0.75067 0.0
C334 C 0.52009 0.76763 0.66115 0.0
C335 C 0.51308 0.76488 0.82702 0.0
C336 C 0.49579 0.77933 0.72535 0.0
C337 C 0.49918 0.77334 0.81455 0.0
C338 C 0.50631 0.77624 0.64872 0.0
C339 C 0.54999 0.7194 0.51141 0.0
O340 O 0.5864 0.7122 0.64608 0.0
O341 O 0.58291 0.73803 0.72992 0.0
O342 O 0.5493 0.65416 0.63917 0.0
O343 O 0.56209 0.67635 0.52025 0.0
O344 O 0.53945 0.67154 0.78833 0.0
O345 O 0.558 0.70535 0.76996 0.0
O346 O 0.51285 0.69838 0.70858 0.0
O347 O 0.51465 0.67124 0.62729 0.0
O348 O 0.55399 0.75874 0.70218 0.0
O349 O 0.53109 0.73438 0.79951 0.0
O350 O 0.55852 0.73846 0.54926 0.0
O351 O 0.53946 0.70503 0.57116 0.0
H352 H 0.57463 0.63988 0.68202 0.0
H353 H 0.58003 0.6612 0.39651 0.0
H354 H 0.60413 0.64678 0.36254 0.0
H355 H 0.59885 0.62562 0.64833 0.0
H356 H 0.528 0.7655 0.60079 0.0
H357 H 0.51571 0.76077 0.89668 0.0
H358 H 0.4915 0.77569 0.87516 0.0
H359 H 0.50382 0.78039 0.57897 0.0
H360 H 0.09903 0.34826 0.72523 0.0
H361 H 0.20784 0.46383 0.78148 0.0
H362 H 0.15401 0.35931 0.89338 0.0
H363 H 0.15137 0.45586 0.63333 0.0
H364 H 0.18857 0.42511 0.81613 0.0
H365 H 0.11799 0.38706 0.68509 0.0
C366 C 0.11507 0.35882 0.7537 0.0
C367 C 0.12488 0.35046 0.81315 0.0
C368 C 0.18035 0.43175 0.7759 0.0
C369 C 0.14668 0.3949 0.76737 0.0
C370 C 0.19139 0.45395 0.75573 0.0
C371 C 0.18124 0.46325 0.70446 0.0
C372 C 0.15891 0.41854 0.7446 0.0
C373 C 0.15987 0.44945 0.67311 0.0
C374 C 0.12585 0.38098 0.73098 0.0
C375 C 0.14563 0.365 0.84855 0.0
N376 N 0.1494 0.4278 0.6938 0.0
N377 N 0.15581 0.38641 0.82495 0.0
H378 H 0.72094 0.81884 0.9274 0.0
H379 H 0.62688 0.72238 0.62823 0.0
H380 H 0.73427 0.78185 0.7262 0.0
H381 H 0.61783 0.76752 0.79729 0.0
H382 H 0.66576 0.74219 0.66771 0.0
H383 H 0.68253 0.79811 0.8869 0.0
C384 C 0.71582 0.80638 0.87441 0.0
C385 C 0.73099 0.8023 0.82952 0.0
C386 C 0.65522 0.74774 0.69582 0.0
C387 C 0.6867 0.77819 0.7831 0.0
C388 C 0.63303 0.73647 0.67321 0.0
C389 C 0.61899 0.74326 0.70941 0.0
C390 C 0.66337 0.76583 0.75553 0.0
C391 C 0.62793 0.76163 0.76749 0.0
C392 C 0.69381 0.79447 0.85145 0.0
C393 C 0.72318 0.78551 0.76305 0.0
N394 N 0.64944 0.77216 0.78886 0.0
N395 N 0.70159 0.77413 0.74157 0.0
H396 H 0.30629 0.9834 0.72824 0.0
H397 H 0.31284 0.87451 0.78411 0.0
H398 H 0.26269 0.92851 0.8982 0.0
H399 H 0.36157 0.93097 0.63609 0.0
H400 H 0.29358 0.8939 0.81921 0.0
H401 H 0.32613 0.96448 0.68771 0.0
C402 C 0.30088 0.96739 0.75705 0.0
C403 C 0.28281 0.95759 0.81712 0.0
C404 C 0.30846 0.90211 0.77894 0.0
C405 C 0.30544 0.93584 0.77086 0.0
C406 C 0.3195 0.89099 0.75851 0.0
C407 C 0.33896 0.9011 0.70714 0.0
C408 C 0.3168 0.92359 0.74779 0.0
C409 C 0.34665 0.92252 0.67596 0.0
C410 C 0.31227 0.95664 0.7341 0.0
C411 C 0.2767 0.93689 0.8529 0.0
N412 N 0.33556 0.93307 0.69689 0.0
N413 N 0.28791 0.92673 0.82904 0.0
H414 H 0.40121 0.11332 0.06145 0.0
H415 H 0.28378 0.10159 0.1282 0.0
H416 H 0.38746 0.15272 0.24715 0.0
H417 H 0.2933 0.05523 0.97049 0.0
H418 H 0.32229 0.12119 0.16547 0.0
H419 H 0.36233 0.09207 0.02343 0.0
C420 C 0.39004 0.1174 0.09489 0.0
C421 C 0.39772 0.135 0.15711 0.0
C422 C 0.31605 0.10675 0.12265 0.0
C423 C 0.35327 0.11094 0.11281 0.0
C424 C 0.29396 0.09552 0.10091 0.0
C425 C 0.28516 0.07664 0.04607 0.0
C426 C 0.32968 0.0992 0.08925 0.0
C427 C 0.29934 0.06969 0.01301 0.0
C428 C 0.36787 0.10534 0.07265 0.0
C429 C 0.38245 0.13963 0.19743 0.0
N430 N 0.32092 0.08098 0.03512 0.0
N431 N 0.36108 0.12777 0.17433 0.0
H432 H 0.97226 0.31566 0.06124 0.0
H433 H 0.97936 0.20707 0.11815 0.0
H434 H 0.92891 0.26094 0.23258 0.0
H435 H 1.0273 0.26334 0.96655 0.0
H436 H 0.95998 0.22634 0.15397 0.0
H437 H 0.99201 0.29669 0.02026 0.0
C438 C 0.96689 0.29968 0.09025 0.0
C439 C 0.94892 0.28994 0.15081 0.0
C440 C 0.97471 0.23452 0.11273 0.0
C441 C 0.97145 0.26813 0.10408 0.0
C442 C 0.98581 0.22347 0.0919 0.0
C443 C 1.00509 0.23358 0.0393 0.0
C444 C 0.98281 0.2559 0.08075 0.0
C445 C 1.01253 0.25489 0.00736 0.0
C446 C 0.97822 0.28889 0.06704 0.0
C447 C 0.94284 0.26927 0.18687 0.0
N448 N 1.0014 0.26536 0.02871 0.0
N449 N 0.95402 0.25908 0.16277 0.0
H450 H 0.8736 0.79711 0.12902 0.0
H451 H 0.76819 0.67971 0.0583 0.0
H452 H 0.81784 0.78799 0.97136 0.0
H453 H 0.82098 0.69335 0.24607 0.0
H454 H 0.78572 0.71867 0.02147 0.0
H455 H 0.85462 0.75856 0.16535 0.0
C456 C 0.85735 0.78701 0.10156 0.0
C457 C 0.84734 0.79594 0.04696 0.0
C458 C 0.79339 0.71309 0.07088 0.0
C459 C 0.8253 0.75133 0.08907 0.0
C460 C 0.78333 0.69086 0.09244 0.0
C461 C 0.79319 0.68313 0.15488 0.0
C462 C 0.81346 0.72768 0.11195 0.0
C463 C 0.81295 0.69839 0.19611 0.0
C464 C 0.84645 0.76489 0.12277 0.0
C465 C 0.82621 0.78185 0.0137 0.0
N466 N 0.82241 0.71981 0.17366 0.0
N467 N 0.81588 0.76022 0.03524 0.0
H468 H 0.0681 0.44666 0.39352 0.0
H469 H 0.95076 0.4352 0.45843 0.0
H470 H 0.05428 0.48604 0.57905 0.0
H471 H 0.96006 0.3883 0.30397 0.0
H472 H 0.98929 0.45482 0.49537 0.0
H473 H 1.02923 0.4254 0.3553 0.0
C474 C 0.05692 0.45073 0.42688 0.0
C475 C 0.06458 0.46834 0.48909 0.0
C476 C 0.98299 0.44025 0.45333 0.0
C477 C 1.02014 0.44428 0.44453 0.0
C478 C 0.9609 0.42902 0.43176 0.0
C479 C 0.95203 0.40997 0.37799 0.0
C480 C 0.99656 0.43255 0.42083 0.0
C481 C 0.96616 0.40289 0.34566 0.0
C482 C 0.03475 0.43867 0.40452 0.0
C483 C 0.04929 0.47295 0.52931 0.0
N484 N 0.98774 0.41418 0.3676 0.0
N485 N 1.02793 0.4611 0.50608 0.0
H486 H 0.63977 0.64997 0.39131 0.0
H487 H 0.64545 0.54055 0.44415 0.0
H488 H 0.5958 0.59495 0.55976 0.0
H489 H 0.69466 0.59719 0.29869 0.0
H490 H 0.6263 0.56004 0.47926 0.0
H491 H 0.65942 0.63088 0.35019 0.0
C492 C 0.63425 0.6339 0.41967 0.0
C493 C 0.61613 0.62411 0.47949 0.0
C494 C 0.64126 0.56827 0.43952 0.0
C495 C 0.63852 0.60217 0.43253 0.0
C496 C 0.65224 0.55709 0.41908 0.0
C497 C 0.67181 0.56723 0.36848 0.0
C498 C 0.64977 0.58983 0.40917 0.0
C499 C 0.67966 0.58871 0.33794 0.0
C500 C 0.64552 0.62304 0.39638 0.0
C501 C 0.60985 0.60332 0.51467 0.0
N502 N 0.66863 0.59932 0.3589 0.0
N503 N 0.62096 0.59307 0.49048 0.0
H504 H 0.48438 0.12166 0.29729 0.0
H505 H 0.48814 0.02695 0.58694 0.0
H506 H 0.53936 0.13013 0.45909 0.0
H507 H 0.43677 1.01389 0.39191 0.0
H508 H 0.50557 0.06541 0.5475 0.0
H509 H 0.46537 0.08268 0.33575 0.0
C510 C 0.4925 0.11537 0.34046 0.0
C511 C 0.51354 0.12928 0.37493 0.0
C512 C 0.49048 0.05419 0.51313 0.0
C513 C 0.49181 0.08479 0.41986 0.0
C514 C 0.48052 0.03214 0.53549 0.0
C515 C 0.46104 1.01702 0.49198 0.0
C516 C 0.48095 0.0614 0.44681 0.0
C517 C 0.45171 0.02493 0.42759 0.0
C518 C 0.48162 0.09312 0.36248 0.0
C519 C 0.5232 0.12015 0.43069 0.0
N520 N 0.46179 0.04656 0.40665 0.0
N521 N 0.51226 0.09861 0.45151 0.0
H522 H 0.17579 0.15486 -0.01078 0.0
H523 H 0.05808 0.14183 0.06676 0.0
H524 H 0.12052 0.09636 0.09497 0.0
H525 H 0.11202 0.19865 0.94226 0.0
H526 H 0.08063 0.12489 0.07649 0.0
H527 H 0.15271 0.1711 0.97084 0.0
C528 C 0.1588 0.14543 0.0088 0.0
C529 C 0.15013 0.12422 0.0442 0.0
C530 C 0.08753 0.14103 0.04676 0.0
C531 C 0.12351 0.14273 0.0227 0.0
C532 C 0.07466 0.15077 0.04121 0.0
C533 C 0.08315 0.17177 0.00373 0.0
C534 C 0.10915 0.15237 0.01503 0.0
C535 C 0.10475 0.18245 0.97166 0.0
C536 C 0.1456 0.15469 -0.00221 0.0
C537 C 0.12789 0.11268 0.06675 0.0
N538 N 0.11701 0.17267 0.97836 0.0
N539 N 0.1154 0.12211 0.05608 0.0
H540 H 0.8862 0.93817 0.92539 0.0
H541 H 0.98314 0.04793 0.14332 0.0
H542 H 0.93771 0.94043 0.09361 0.0
H543 H 0.93538 0.04664 0.95354 0.0
H544 H 0.96642 1.00848 0.12737 0.0
H545 H 0.90373 0.97779 0.93572 0.0
C546 C 0.90121 0.94696 0.96431 0.0
C547 C 0.91045 0.93587 0.00875 0.0
C548 C 0.95962 1.01681 0.08897 0.0
C549 C 0.93059 0.98133 0.02113 0.0
C550 C 0.9691 0.03934 0.09844 0.0
C551 C 0.96065 0.05065 0.04982 0.0
C552 C 0.94143 1.00539 0.0309 0.0
C553 C 0.9426 0.03866 -0.0084 0.0
C554 C 0.91123 0.96962 0.97012 0.0
C555 C 0.92995 0.94821 0.05815 0.0
N556 N 0.93355 1.01671 -0.0159 0.0
N557 N 0.93931 0.97022 0.06321 0.0
H558 H 1.03169 0.96126 0.1092 0.0
H559 H 0.14376 0.97023 0.94124 0.0
H560 H 0.03617 0.908 -0.01181 0.0
H561 H 0.13995 0.02255 0.0764 0.0
H562 H 0.10419 0.94779 0.95124 0.0
H563 H 0.07105 0.98457 0.09033 0.0
C564 C 0.0409 0.9545 0.078 0.0
C565 C 1.03055 0.93257 0.05064 0.0
C566 C 0.112 0.9642 0.97856 0.0
C567 C 0.07574 0.95917 0.0295 0.0
C568 C 0.13464 0.97706 0.97278 0.0
C569 C 0.1453 0.99835 0.00818 0.0
C570 C 0.09982 0.97263 0.01996 0.0
C571 C 0.13251 1.00624 0.0483 0.0
C572 C 0.06342 0.96779 0.06776 0.0
C573 C 0.04344 0.92469 0.01165 0.0
N574 N 0.1105 0.99339 0.05317 0.0
N575 N 0.0653 0.93794 0.00236 0.0
H576 H 0.72518 0.4766 0.4269 0.0
H577 H 0.83625 0.48034 0.28517 0.0
H578 H 0.77533 0.52787 0.26032 0.0
H579 H 0.78918 0.43337 0.47603 0.0
H580 H 0.81325 0.49673 0.26754 0.0
H581 H 0.7475 0.45944 0.43825 0.0
C582 C 0.74086 0.48426 0.39242 0.0
C583 C 0.74836 0.50378 0.34262 0.0
C584 C 0.80793 0.48282 0.31319 0.0
C585 C 0.7741 0.4841 0.35555 0.0
C586 C 0.82099 0.47336 0.32284 0.0
C587 C 0.81466 0.45543 0.38223 0.0
C588 C 0.78827 0.47426 0.36287 0.0
C589 C 0.79485 0.44731 0.43033 0.0
C590 C 0.75364 0.47443 0.39913 0.0
C591 C 0.76886 0.51286 0.29956 0.0
N592 N 0.78237 0.45675 0.41951 0.0
N593 N 0.781 0.50296 0.30704 0.0
H594 H 0.59457 0.37898 0.31108 0.0
H595 H 0.60581 0.27401 0.41377 0.0
H596 H 0.65058 0.38206 0.44378 0.0
H597 H 0.55094 0.27147 0.27206 0.0
H598 H 0.62272 0.31356 0.42327 0.0
H599 H 0.57862 0.33967 0.29444 0.0
C600 C 0.6035 0.37138 0.33702 0.0
C601 C 0.62392 0.38389 0.37944 0.0
C602 C 0.60701 0.30436 0.38985 0.0
C603 C 0.60575 0.33874 0.35992 0.0
C604 C 0.59731 0.28173 0.38438 0.0
C605 C 0.57685 0.2693 0.34211 0.0
C606 C 0.5962 0.31473 0.35305 0.0
C607 C 0.56669 0.28031 0.30531 0.0
C608 C 0.59442 0.34892 0.32702 0.0
C609 C 0.63489 0.37314 0.41001 0.0
N610 N 0.57643 0.30235 0.31186 0.0
N611 N 0.62563 0.35121 0.40006 0.0
H612 H 0.70097 0.24325 0.28854 0.0
H613 H 0.80791 0.35437 0.43225 0.0
H614 H 0.70066 0.29049 0.47646 0.0
H615 H 0.80965 0.3044 0.26744 0.0
H616 H 0.76844 0.3319 0.44248 0.0
H617 H 0.74046 0.26616 0.27286 0.0
C618 C 0.70918 0.25852 0.326 0.0
C619 C 0.69744 0.26494 0.38398 0.0
C620 C 0.77742 0.32582 0.40402 0.0
C621 C 0.74274 0.2912 0.36685 0.0
C622 C 0.80002 0.33868 0.39798 0.0
C623 C 0.81221 0.3313 0.34892 0.0
C624 C 0.76679 0.30538 0.36052 0.0
C625 C 0.80097 0.31078 0.30611 0.0
C626 C 0.73176 0.27153 0.31746 0.0
C627 C 0.70903 0.28475 0.43186 0.0
N628 N 0.77891 0.29856 0.31289 0.0
N629 N 0.73099 0.29716 0.42212 0.0
H630 H 0.50312 0.81398 0.61507 0.0
H631 H 0.39219 0.81022 0.75976 0.0
H632 H 0.4563 0.76711 0.80703 0.0
H633 H 0.44208 0.86144 0.5921 0.0
H634 H 0.41452 0.79306 0.77009 0.0
H635 H 0.48004 0.8303 0.59785 0.0
C636 C 0.4879 0.807 0.65307 0.0
C637 C 0.48166 0.78913 0.71267 0.0
C638 C 0.42059 0.80804 0.73093 0.0
C639 C 0.4552 0.80788 0.69376 0.0
C640 C 0.40781 0.81787 0.7248 0.0
C641 C 0.41524 0.83738 0.67503 0.0
C642 C 0.441 0.81771 0.68683 0.0
C643 C 0.43567 0.84645 0.63134 0.0
C644 C 0.47479 0.81643 0.64364 0.0
C645 C 0.4619 0.78101 0.76117 0.0
N646 N 0.44782 0.83655 0.6383 0.0
N647 N 0.44939 0.79042 0.75057 0.0
H648 H 0.21692 0.60493 0.60485 0.0
H649 H 0.31943 0.71668 0.77828 0.0
H650 H 0.27235 0.60841 0.74535 0.0
H651 H 0.26208 0.71236 0.65362 0.0
H652 H 0.30339 0.67733 0.75944 0.0
H653 H 0.23403 0.64447 0.61555 0.0
C654 C 0.23272 0.61398 0.63773 0.0
C655 C 0.24316 0.60324 0.67438 0.0
C656 C 0.29433 0.68499 0.73608 0.0
C657 C 0.2629 0.64867 0.68695 0.0
C658 C 0.30354 0.7075 0.74631 0.0
C659 C 0.29207 0.71789 0.71788 0.0
C660 C 0.2735 0.67273 0.69673 0.0
C661 C 0.2714 0.70505 0.6779 0.0
C662 C 0.24248 0.63659 0.64391 0.0
C663 C 0.26364 0.61592 0.71622 0.0
N664 N 0.26281 0.6832 0.66861 0.0
N665 N 0.2728 0.63792 0.72142 0.0
H666 H 0.4769 0.63868 0.59163 0.0
H667 H 0.36729 0.62589 0.81237 0.0
H668 H 0.47469 0.68792 0.7599 0.0
H669 H 0.36832 0.57946 0.62171 0.0
H670 H 0.40676 0.64849 0.79608 0.0
H671 H 0.43727 0.61647 0.60338 0.0
C672 C 0.46812 0.64486 0.6309 0.0
C673 C 0.47922 0.66524 0.67485 0.0
C674 C 0.39836 0.63339 0.75757 0.0
C675 C 0.43378 0.63981 0.68881 0.0
C676 C 0.37582 0.62041 0.76725 0.0
C677 C 0.36444 0.60071 0.71845 0.0
C678 C 0.40972 0.6266 0.6991 0.0
C679 C 0.37636 0.59462 0.65992 0.0
C680 C 0.44547 0.63217 0.6375 0.0
C681 C 0.4669 0.67236 0.72474 0.0
N682 N 0.39833 0.60745 0.65219 0.0
N683 N 0.4449 0.65966 0.73053 0.0
H684 H 0.99943 0.17926 0.70488 0.0
H685 H 0.08845 0.22554 0.29629 0.0
H686 H 0.06829 0.20703 0.75263 0.0
H687 H 1.01923 0.19428 0.24967 0.0
H688 H 0.08162 0.21928 0.46394 0.0
H689 H 1.00651 0.1852 0.53763 0.0
C690 C 1.01605 0.18665 0.67999 0.0
C691 C 0.03331 0.1927 0.74228 0.0
C692 C 0.06792 0.21376 0.417 0.0
C693 C 0.04158 0.19954 0.5514 0.0
C694 C 0.07183 0.21732 0.32147 0.0
C695 C 0.05438 0.21048 0.25946 0.0
C696 C 0.04641 0.20331 0.45042 0.0
C697 C 0.03315 0.19988 0.29532 0.0
C698 C 1.02009 0.19002 0.5846 0.0
C699 C 0.05453 0.2022 0.70669 0.0
N700 N 1.02976 0.19666 0.38846 0.0
N701 N 0.05808 0.20535 0.6135 0.0
H702 H 0.90219 0.84452 0.71046 0.0
H703 H 0.85603 0.88745 0.30256 0.0
H704 H 0.87422 0.8854 0.75885 0.0
H705 H 0.88709 0.84932 0.25557 0.0
H706 H 0.86218 0.88674 0.47018 0.0
H707 H 0.89622 0.84567 0.54333 0.0
C708 C 0.89475 0.8537 0.68574 0.0
C709 C 0.88868 0.86487 0.74816 0.0
C710 C 0.86768 0.87856 0.42317 0.0
C711 C 0.8818 0.86632 0.55741 0.0
C712 C 0.86419 0.87898 0.32765 0.0
C713 C 0.87101 0.86837 0.26555 0.0
C714 C 0.87806 0.86742 0.45647 0.0
C715 C 0.88152 0.85765 0.3013 0.0
C716 C 0.89136 0.85439 0.59041 0.0
C717 C 0.8791 0.87653 0.71279 0.0
N718 N 0.88468 0.85742 0.39442 0.0
N719 N 0.87595 0.87696 0.61964 0.0
H720 H 0.23663 0.08229 0.70907 0.0
H721 H 0.19387 0.99324 0.30161 0.0
H722 H 0.19546 1.01345 0.75767 0.0
H723 H 0.23162 0.06247 0.25409 0.0
H724 H 0.1945 1.00008 0.46921 0.0
H725 H 0.23548 0.07519 0.54192 0.0
C726 C 0.22739 0.06568 0.68439 0.0
C727 C 0.21615 0.04843 0.7469 0.0
C728 C 0.20261 1.01378 0.42207 0.0
C729 C 0.21471 0.04014 0.55614 0.0
C730 C 0.20224 1.00987 0.32657 0.0
C731 C 0.21277 0.02732 0.26433 0.0
C732 C 0.21363 0.03529 0.45521 0.0
C733 C 0.22335 0.04855 0.29992 0.0
C734 C 0.2267 0.06162 0.58906 0.0
C735 C 0.2044 0.0272 0.71157 0.0
N736 N 0.22355 0.05194 0.39303 0.0
N737 N 0.20399 0.02364 0.61844 0.0
H738 H 0.68446 0.52686 0.57974 0.0
H739 H 0.73514 0.54011 0.08968 0.0
H740 H 0.75346 0.55832 0.63249 0.0
H741 H 0.66648 0.51211 0.03582 0.0
H742 H 0.74229 0.54632 0.92253 0.0
H743 H 0.67759 0.52039 0.7465 0.0
C744 C 0.69817 0.53238 0.62662 0.0
C745 C 0.71956 0.5432 0.59268 0.0
C746 C 0.72567 0.53884 0.9472 0.0
C747 C 0.71186 0.5359 0.78356 0.0
C748 C 0.72158 0.53532 0.04251 0.0
C749 C 0.70019 0.52563 0.0762 0.0
C750 C 0.7082 0.53252 0.8853 0.0
C751 C 0.68321 0.51965 0.01244 0.0
C752 C 0.69425 0.52871 0.72182 0.0
C753 C 0.73673 0.54996 0.65616 0.0
N754 N 0.68758 0.52317 0.91994 0.0
N755 N 0.73251 0.54622 0.74878 0.0
H756 H 0.55447 0.18283 0.58215 0.0
H757 H 0.54049 0.2194 0.09268 0.0
H758 H 0.52238 0.21974 0.63577 0.0
H759 H 0.56893 0.17918 0.03811 0.0
H760 H 0.53439 0.22049 0.92561 0.0
H761 H 0.56092 0.18237 0.7488 0.0
C762 C 0.54881 0.19087 0.6292 0.0
C763 C 0.5378 0.20127 0.59555 0.0
C764 C 0.54194 0.21141 0.9501 0.0
C765 C 0.54509 0.20079 0.78631 0.0
C766 C 0.54539 0.21075 0.04537 0.0
C767 C 0.55518 0.19914 0.07884 0.0
C768 C 0.54842 0.20043 0.888 0.0
C769 C 0.56132 0.1883 0.0149 0.0
C770 C 0.55247 0.19058 0.72434 0.0
C771 C 0.53089 0.2115 0.65922 0.0
N772 N 0.55785 0.18923 0.92242 0.0
N773 N 0.53461 0.21098 0.75179 0.0
H774 H 0.89832 0.3963 0.58538 0.0
H775 H 0.86166 0.34555 0.09605 0.0
H776 H 0.862 0.32726 0.63917 0.0
H777 H 0.90181 0.41425 0.04124 0.0
H778 H 0.8607 0.33839 0.929 0.0
H779 H 0.89859 0.40313 0.75198 0.0
C780 C 0.89037 0.38257 0.63246 0.0
C781 C 0.8802 0.36118 0.59885 0.0
C782 C 0.86974 0.35503 0.95344 0.0
C783 C 0.88046 0.36885 0.7896 0.0
C784 C 0.87032 0.35911 0.04871 0.0
C785 C 0.88189 0.38052 0.08211 0.0
C786 C 0.88073 0.37251 0.89129 0.0
C787 C 0.89272 0.39751 0.0181 0.0
C788 C 0.89055 0.38647 0.72758 0.0
C789 C 0.87007 0.34399 0.66258 0.0
N790 N 0.89186 0.39315 0.92563 0.0
N791 N 0.87048 0.34819 0.75515 0.0
H792 H 0.33247 0.84614 0.37448 0.0
H793 H 0.42149 0.89193 0.96584 0.0
H794 H 0.40128 0.87358 0.42223 0.0
H795 H 0.35232 0.86149 0.91933 0.0
H796 H 0.41463 0.8857 0.13347 0.0
H797 H 0.33957 0.85217 0.20729 0.0
C798 C 0.34908 0.85347 0.3496 0.0
C799 C 0.36632 0.85938 0.41188 0.0
C800 C 0.40096 0.88036 0.08657 0.0
C801 C 0.37461 0.86633 0.22103 0.0
C802 C 0.40487 0.8839 -0.00896 0.0
C803 C 0.38745 0.87727 0.92905 0.0
C804 C 0.37945 0.87013 0.12004 0.0
C805 C 0.36622 0.86691 0.96496 0.0
C806 C 0.35314 0.85689 0.25424 0.0
C807 C 0.38754 0.86882 0.3763 0.0
N808 N 0.36282 0.8637 0.05811 0.0
N809 N 0.3911 0.87202 0.28312 0.0
H810 H 0.22152 0.51679 0.91461 0.0
H811 H 0.20722 0.55321 0.42501 0.0
H812 H 0.18892 0.5532 0.96812 0.0
H813 H 0.23639 0.51365 0.37058 0.0
H814 H 0.20098 0.55412 0.25796 0.0
H815 H 0.22805 0.51646 0.08127 0.0
C816 C 0.21576 0.52475 0.96163 0.0
C817 C 0.2046 0.53497 0.92794 0.0
C818 C 0.20873 0.54522 0.28247 0.0
C819 C 0.21197 0.53464 0.11871 0.0
C820 C 0.21225 0.54467 0.37774 0.0
C821 C 0.22229 0.5333 0.41125 0.0
C822 C 0.21537 0.53438 0.22041 0.0
C823 C 0.22859 0.52259 0.34735 0.0
C824 C 0.21947 0.52453 0.05678 0.0
C825 C 0.19755 0.5451 -0.00841 0.0
N826 N 0.22505 0.52341 0.25487 0.0
N827 N 0.20133 0.54465 0.08416 0.0
H828 H 0.57022 0.74914 0.37295 0.0
H829 H 0.5277 0.66009 0.96545 0.0
H830 H 0.52907 0.6803 0.42157 0.0
H831 H 0.56554 0.72932 0.91805 0.0
H832 H 0.52821 0.66693 0.13303 0.0
H833 H 0.56914 0.74204 0.20583 0.0
C834 C 0.56099 0.73253 0.34828 0.0
C835 C 0.54975 0.71528 0.41081 0.0
C836 C 0.53637 0.68062 0.08593 0.0
C837 C 0.54839 0.70698 0.22003 0.0
C838 C 0.53607 0.67671 -0.00957 0.0
C839 C 0.54666 0.69416 0.92822 0.0
C840 C 0.54738 0.70213 0.1191 0.0
C841 C 0.55723 0.71539 0.96385 0.0
C842 C 0.56034 0.72846 0.25296 0.0
C843 C 0.53802 0.69405 0.37547 0.0
N844 N 0.55736 0.71878 0.05694 0.0
N845 N 0.53765 0.69049 0.28234 0.0
loop_
_geom_bond_atom_site_label_1
_geom_bond_atom_site_label_2
_geom_bond_distance
_geom_bond_site_symmetry_2
_ccdc_geom_bond_type
Gd0 C3 2.818 1_554 S
Gd0 O20 2.377 . S
Gd0 O22 2.448 . S
Gd0 O23 2.506 1_554 S
Gd0 O24 2.435 . S
Gd0 O25 2.717 . S
Gd0 O27 2.395 . S
Gd0 O31 2.327 1_554 S
Gd1 C12 2.818 1_556 S
Gd1 O21 2.395 . S
Gd1 O25 2.327 1_656 S
Gd1 O26 2.377 1_655 S
Gd1 O28 2.448 . S
Gd1 O29 2.506 1_556 S
Gd1 O30 2.435 . S
Gd1 O31 2.717 1_655 S
C2 O20 1.240 1_655 S
C2 O21 1.240 1_554 S
C3 Gd0 2.818 1_556 S
C3 C4 1.510 . S
C3 O22 1.249 1_556 S
C3 O23 1.252 . S
C4 C3 1.510 . S
C4 C5 1.404 1_556 S
C4 C6 1.352 . S
C5 C4 1.404 1_554 S
C5 C9 1.389 . S
C5 H32 0.930 . S
C6 C4 1.352 . S
C6 C8 1.374 . S
C6 H33 0.931 . S
C7 C8 1.359 . S
C7 C9 1.364 1_556 S
C8 C6 1.374 . S
C8 C7 1.359 . S
C8 H34 0.931 . S
C9 C5 1.389 . S
C9 C7 1.364 1_554 S
C9 H35 0.931 . S
C10 O24 1.256 . S
C10 O25 1.257 . S
C11 O26 1.240 . S
C11 O27 1.240 1_556 S
C12 Gd1 2.818 1_554 S
C12 C13 1.510 . S
C12 O28 1.249 1_554 S
C12 O29 1.252 . S
C13 C12 1.510 . S
C13 C14 1.404 1_554 S
C13 C15 1.352 . S
C14 C13 1.404 1_556 S
C14 C18 1.389 . S
C14 H36 0.930 . S
C15 C13 1.352 . S
C15 C17 1.374 . S
C15 H37 0.931 . S
C16 C17 1.359 . S
C16 C18 1.364 1_554 S
C17 C15 1.374 . S
C17 C16 1.359 . S
C17 H38 0.931 . S
C18 C14 1.389 . S
C18 C16 1.364 1_556 S
C18 H39 0.931 . S
C19 O30 1.256 1_455 S
C19 O31 1.257 . S
O20 Gd0 2.377 . S
O20 C2 1.240 1_455 S
O21 Gd1 2.395 . S
O21 C2 1.240 1_556 S
O22 Gd0 2.448 . S
O22 C3 1.249 1_554 S
O23 Gd0 2.506 1_556 S
O23 C3 1.252 . S
O24 Gd0 2.435 . S
O24 C10 1.256 . S
O25 Gd0 2.717 . S
O25 Gd1 2.327 1_454 S
O25 C10 1.257 . S
O26 Gd1 2.377 1_455 S
O26 C11 1.240 . S
O27 Gd0 2.395 . S
O27 C11 1.240 1_554 S
O28 Gd1 2.448 . S
O28 C12 1.249 1_556 S
O29 Gd1 2.506 1_554 S
O29 C12 1.252 . S
O30 Gd1 2.435 . S
O30 C19 1.256 1_655 S
O31 Gd0 2.327 1_556 S
O31 Gd1 2.717 1_455 S
O31 C19 1.257 . S
H32 C5 0.930 . S
H33 C6 0.931 . S
H34 C8 0.931 . S
H35 C9 0.931 . S
H36 C14 0.930 . S
H37 C15 0.931 . S
H38 C17 0.931 . S
H39 C18 0.931 . S
Gd40 C43 2.818 1_554 S
Gd40 O60 2.377 . S
Gd40 O62 2.448 . S
Gd40 O63 2.506 1_554 S
Gd40 O64 2.435 . S
Gd40 O65 2.717 . S
Gd40 O67 2.395 . S
Gd40 O71 2.327 1_554 S
Gd41 C52 2.818 1_556 S
Gd41 O61 2.395 . S
Gd41 O65 2.327 1_556 S
Gd41 O66 2.377 . S
Gd41 O68 2.448 . S
Gd41 O69 2.506 1_556 S
Gd41 O70 2.435 . S
Gd41 O71 2.717 . S
C42 O60 1.240 . S
C42 O61 1.240 1_554 S
C43 Gd40 2.818 1_556 S
C43 C44 1.510 . S
C43 O62 1.249 1_556 S
C43 O63 1.252 . S
C44 C43 1.510 . S
C44 C45 1.404 1_556 S
C44 C46 1.352 . S
C45 C44 1.404 1_554 S
C45 C49 1.389 . S
C45 H72 0.930 . S
C46 C44 1.352 . S
C46 C48 1.374 . S
C46 H73 0.931 . S
C47 C48 1.359 . S
C47 C49 1.364 1_556 S
C48 C46 1.374 . S
C48 C47 1.359 . S
C48 H74 0.931 . S
C49 C45 1.389 . S
C49 C47 1.364 1_554 S
C49 H75 0.931 . S
C50 O64 1.256 . S
C50 O65 1.257 . S
C51 O66 1.240 . S
C51 O67 1.240 1_556 S
C52 Gd41 2.818 1_554 S
C52 C53 1.510 . S
C52 O68 1.249 1_554 S
C52 O69 1.252 . S
C53 C52 1.510 . S
C53 C54 1.404 1_554 S
C53 C55 1.352 . S
C54 C53 1.404 1_556 S
C54 C58 1.389 . S
C54 H76 0.930 . S
C55 C53 1.352 . S
C55 C57 1.374 . S
C55 H77 0.931 . S
C56 C57 1.359 . S
C56 C58 1.364 1_554 S
C57 C55 1.374 . S
C57 C56 1.359 . S
C57 H78 0.931 . S
C58 C54 1.389 . S
C58 C56 1.364 1_556 S
C58 H79 0.931 . S
C59 O70 1.256 . S
C59 O71 1.257 . S
O60 Gd40 2.377 . S
O60 C42 1.240 . S
O61 Gd41 2.395 . S
O61 C42 1.240 1_556 S
O62 Gd40 2.448 . S
O62 C43 1.249 1_554 S
O63 Gd40 2.506 1_556 S
O63 C43 1.252 . S
O64 Gd40 2.435 . S
O64 C50 1.256 . S
O65 Gd40 2.717 . S
O65 Gd41 2.327 1_554 S
O65 C50 1.257 . S
O66 Gd41 2.377 . S
O66 C51 1.240 . S
O67 Gd40 2.395 . S
O67 C51 1.240 1_554 S
O68 Gd41 2.448 . S
O68 C52 1.249 1_556 S
O69 Gd41 2.506 1_554 S
O69 C52 1.252 . S
O70 Gd41 2.435 . S
O70 C59 1.256 . S
O71 Gd40 2.327 1_556 S
O71 Gd41 2.717 . S
O71 C59 1.257 . S
H72 C45 0.930 . S
H73 C46 0.931 . S
H74 C48 0.931 . S
H75 C49 0.931 . S
H76 C54 0.930 . S
H77 C55 0.931 . S
H78 C57 0.931 . S
H79 C58 0.931 . S
Gd80 C83 2.818 1_554 S
Gd80 O100 2.377 1_565 S
Gd80 O102 2.448 . S
Gd80 O103 2.506 1_554 S
Gd80 O104 2.435 . S
Gd80 O105 2.717 1_565 S
Gd80 O107 2.395 . S
Gd80 O111 2.327 1_564 S
Gd81 C92 2.818 1_556 S
Gd81 O101 2.395 . S
Gd81 O105 2.327 1_556 S
Gd81 O106 2.377 . S
Gd81 O108 2.448 . S
Gd81 O109 2.506 1_556 S
Gd81 O110 2.435 . S
Gd81 O111 2.717 . S
C82 O100 1.240 . S
C82 O101 1.240 1_554 S
C83 Gd80 2.818 1_556 S
C83 C84 1.510 . S
C83 O102 1.249 1_556 S
C83 O103 1.252 . S
C84 C83 1.510 . S
C84 C85 1.404 1_556 S
C84 C86 1.352 . S
C85 C84 1.404 1_554 S
C85 C89 1.389 . S
C85 H112 0.930 . S
C86 C84 1.352 . S
C86 C88 1.374 . S
C86 H113 0.931 . S
C87 C88 1.359 . S
C87 C89 1.364 1_556 S
C88 C86 1.374 . S
C88 C87 1.359 . S
C88 H114 0.931 . S
C89 C85 1.389 . S
C89 C87 1.364 1_554 S
C89 H115 0.931 . S
C90 O104 1.256 1_545 S
C90 O105 1.257 . S
C91 O106 1.240 1_565 S
C91 O107 1.240 1_556 S
C92 Gd81 2.818 1_554 S
C92 C93 1.510 . S
C92 O108 1.249 1_554 S
C92 O109 1.252 . S
C93 C92 1.510 . S
C93 C94 1.404 1_554 S
C93 C95 1.352 . S
C94 C93 1.404 1_556 S
C94 C98 1.389 . S
C94 H116 0.930 . S
C95 C93 1.352 . S
C95 C97 1.374 . S
C95 H117 0.931 . S
C96 C97 1.359 . S
C96 C98 1.364 1_554 S
C97 C95 1.374 . S
C97 C96 1.359 . S
C97 H118 0.931 . S
C98 C94 1.389 . S
C98 C96 1.364 1_556 S
C98 H119 0.931 . S
C99 O110 1.256 . S
C99 O111 1.257 . S
O100 Gd80 2.377 1_545 S
O100 C82 1.240 . S
O101 Gd81 2.395 . S
O101 C82 1.240 1_556 S
O102 Gd80 2.448 . S
O102 C83 1.249 1_554 S
O103 Gd80 2.506 1_556 S
O103 C83 1.252 . S
O104 Gd80 2.435 . S
O104 C90 1.256 1_565 S
O105 Gd80 2.717 1_545 S
O105 Gd81 2.327 1_554 S
O105 C90 1.257 . S
O106 Gd81 2.377 . S
O106 C91 1.240 1_545 S
O107 Gd80 2.395 . S
O107 C91 1.240 1_554 S
O108 Gd81 2.448 . S
O108 C92 1.249 1_556 S
O109 Gd81 2.506 1_554 S
O109 C92 1.252 . S
O110 Gd81 2.435 . S
O110 C99 1.256 . S
O111 Gd80 2.327 1_546 S
O111 Gd81 2.717 . S
O111 C99 1.257 . S
H112 C85 0.930 . S
H113 C86 0.931 . S
H114 C88 0.931 . S
H115 C89 0.931 . S
H116 C94 0.930 . S
H117 C95 0.931 . S
H118 C97 0.931 . S
H119 C98 0.931 . S
Gd120 C123 2.818 . S
Gd120 O140 2.377 . S
Gd120 O142 2.448 . S
Gd120 O143 2.506 . S
Gd120 O144 2.435 . S
Gd120 O145 2.717 . S
Gd120 O147 2.395 . S
Gd120 O151 2.327 . S
Gd121 C132 2.818 . S
Gd121 O141 2.395 . S
Gd121 O145 2.327 . S
Gd121 O146 2.377 . S
Gd121 O148 2.448 . S
Gd121 O149 2.506 . S
Gd121 O150 2.435 . S
Gd121 O151 2.717 . S
C122 O140 1.240 . S
C122 O141 1.240 . S
C123 Gd120 2.818 . S
C123 C124 1.510 . S
C123 O142 1.249 . S
C123 O143 1.252 . S
C124 C123 1.510 . S
C124 C125 1.404 . S
C124 C126 1.352 . S
C125 C124 1.404 . S
C125 C129 1.389 . S
C125 H152 0.930 . S
C126 C124 1.352 . S
C126 C128 1.374 . S
C126 H153 0.931 . S
C127 C128 1.359 . S
C127 C129 1.364 . S
C128 C126 1.374 . S
C128 C127 1.359 . S
C128 H154 0.931 . S
C129 C125 1.389 . S
C129 C127 1.364 . S
C129 H155 0.931 . S
C130 O144 1.256 . S
C130 O145 1.257 . S
C131 O146 1.240 . S
C131 O147 1.240 . S
C132 Gd121 2.818 . S
C132 C133 1.510 . S
C132 O148 1.249 . S
C132 O149 1.252 . S
C133 C132 1.510 . S
C133 C134 1.404 . S
C133 C135 1.352 . S
C134 C133 1.404 . S
C134 C138 1.389 . S
C134 H156 0.930 . S
C135 C133 1.352 . S
C135 C137 1.374 . S
C135 H157 0.931 . S
C136 C137 1.359 . S
C136 C138 1.364 . S
C137 C135 1.374 . S
C137 C136 1.359 . S
C137 H158 0.931 . S
C138 C134 1.389 . S
C138 C136 1.364 . S
C138 H159 0.931 . S
C139 O150 1.256 . S
C139 O151 1.257 . S
O140 Gd120 2.377 . S
O140 C122 1.240 . S
O141 Gd121 2.395 . S
O141 C122 1.240 . S
O142 Gd120 2.448 . S
O142 C123 1.249 . S
O143 Gd120 2.506 . S
O143 C123 1.252 . S
O144 Gd120 2.435 . S
O144 C130 1.256 . S
O145 Gd120 2.717 . S
O145 Gd121 2.327 . S
O145 C130 1.257 . S
O146 Gd121 2.377 . S
O146 C131 1.240 . S
O147 Gd120 2.395 . S
O147 C131 1.240 . S
O148 Gd121 2.448 . S
O148 C132 1.249 . S
O149 Gd121 2.506 . S
O149 C132 1.252 . S
O150 Gd121 2.435 . S
O150 C139 1.256 . S
O151 Gd120 2.327 . S
O151 Gd121 2.717 . S
O151 C139 1.257 . S
H152 C125 0.930 . S
H153 C126 0.931 . S
H154 C128 0.931 . S
H155 C129 0.931 . S
H156 C134 0.930 . S
H157 C135 0.931 . S
H158 C137 0.931 . S
H159 C138 0.931 . S
Gd160 C163 2.818 . S
Gd160 O180 2.377 . S
Gd160 O182 2.448 . S
Gd160 O183 2.506 . S
Gd160 O184 2.435 . S
Gd160 O185 2.717 . S
Gd160 O187 2.395 . S
Gd160 O191 2.327 . S
Gd161 C172 2.818 . S
Gd161 O181 2.395 . S
Gd161 O185 2.327 . S
Gd161 O186 2.377 . S
Gd161 O188 2.448 . S
Gd161 O189 2.506 . S
Gd161 O190 2.435 . S
Gd161 O191 2.717 . S
C162 O180 1.240 . S
C162 O181 1.240 . S
C163 Gd160 2.818 . S
C163 C164 1.510 . S
C163 O182 1.249 . S
C163 O183 1.252 . S
C164 C163 1.510 . S
C164 C165 1.404 . S
C164 C166 1.352 . S
C165 C164 1.404 . S
C165 C169 1.389 . S
C165 H192 0.930 . S
C166 C164 1.352 . S
C166 C168 1.374 . S
C166 H193 0.931 . S
C167 C168 1.359 . S
C167 C169 1.364 . S
C168 C166 1.374 . S
C168 C167 1.359 . S
C168 H194 0.931 . S
C169 C165 1.389 . S
C169 C167 1.364 . S
C169 H195 0.931 . S
C170 O184 1.256 . S
C170 O185 1.257 . S
C171 O186 1.240 . S
C171 O187 1.240 . S
C172 Gd161 2.818 . S
C172 C173 1.510 . S
C172 O188 1.249 . S
C172 O189 1.252 . S
C173 C172 1.510 . S
C173 C174 1.404 . S
C173 C175 1.352 . S
C174 C173 1.404 . S
C174 C178 1.389 . S
C174 H196 0.930 . S
C175 C173 1.352 . S
C175 C177 1.374 . S
C175 H197 0.931 . S
C176 C177 1.359 . S
C176 C178 1.364 . S
C177 C175 1.374 . S
C177 C176 1.359 . S
C177 H198 0.931 . S
C178 C174 1.389 . S
C178 C176 1.364 . S
C178 H199 0.931 . S
C179 O190 1.256 . S
C179 O191 1.257 . S
O180 Gd160 2.377 . S
O180 C162 1.240 . S
O181 Gd161 2.395 . S
O181 C162 1.240 . S
O182 Gd160 2.448 . S
O182 C163 1.249 . S
O183 Gd160 2.506 . S
O183 C163 1.252 . S
O184 Gd160 2.435 . S
O184 C170 1.256 . S
O185 Gd160 2.717 . S
O185 Gd161 2.327 . S
O185 C170 1.257 . S
O186 Gd161 2.377 . S
O186 C171 1.240 . S
O187 Gd160 2.395 . S
O187 C171 1.240 . S
O188 Gd161 2.448 . S
O188 C172 1.249 . S
O189 Gd161 2.506 . S
O189 C172 1.252 . S
O190 Gd161 2.435 . S
O190 C179 1.256 . S
O191 Gd160 2.327 . S
O191 Gd161 2.717 . S
O191 C179 1.257 . S
H192 C165 0.930 . S
H193 C166 0.931 . S
H194 C168 0.931 . S
H195 C169 0.931 . S
H196 C174 0.930 . S
H197 C175 0.931 . S
H198 C177 0.931 . S
H199 C178 0.931 . S
Gd200 C203 2.818 . S
Gd200 O220 2.377 . S
Gd200 O222 2.448 . S
Gd200 O223 2.506 . S
Gd200 O224 2.435 . S
Gd200 O225 2.717 . S
Gd200 O227 2.395 . S
Gd200 O231 2.327 . S
Gd201 C212 2.818 . S
Gd201 O221 2.395 . S
Gd201 O225 2.327 . S
Gd201 O226 2.377 . S
Gd201 O228 2.448 . S
Gd201 O229 2.506 . S
Gd201 O230 2.435 . S
Gd201 O231 2.717 . S
C202 O220 1.240 . S
C202 O221 1.240 . S
C203 Gd200 2.818 . S
C203 C204 1.510 . S
C203 O222 1.249 . S
C203 O223 1.252 . S
C204 C203 1.510 . S
C204 C205 1.404 . S
C204 C206 1.352 . S
C205 C204 1.404 . S
C205 C209 1.389 . S
C205 H232 0.930 . S
C206 C204 1.352 . S
C206 C208 1.374 . S
C206 H233 0.931 . S
C207 C208 1.359 . S
C207 C209 1.364 . S
C208 C206 1.374 . S
C208 C207 1.359 . S
C208 H234 0.931 . S
C209 C205 1.389 . S
C209 C207 1.364 . S
C209 H235 0.931 . S
C210 O224 1.256 . S
C210 O225 1.257 . S
C211 O226 1.240 . S
C211 O227 1.240 . S
C212 Gd201 2.818 . S
C212 C213 1.510 . S
C212 O228 1.249 . S
C212 O229 1.252 . S
C213 C212 1.510 . S
C213 C214 1.404 . S
C213 C215 1.352 . S
C214 C213 1.404 . S
C214 C218 1.389 . S
C214 H236 0.930 . S
C215 C213 1.352 . S
C215 C217 1.374 . S
C215 H237 0.931 . S
C216 C217 1.359 . S
C216 C218 1.364 . S
C217 C215 1.374 . S
C217 C216 1.359 . S
C217 H238 0.931 . S
C218 C214 1.389 . S
C218 C216 1.364 . S
C218 H239 0.931 . S
C219 O230 1.256 . S
C219 O231 1.257 . S
O220 Gd200 2.377 . S
O220 C202 1.240 . S
O221 Gd201 2.395 . S
O221 C202 1.240 . S
O222 Gd200 2.448 . S
O222 C203 1.249 . S
O223 Gd200 2.506 . S
O223 C203 1.252 . S
O224 Gd200 2.435 . S
O224 C210 1.256 . S
O225 Gd200 2.717 . S
O225 Gd201 2.327 . S
O225 C210 1.257 . S
O226 Gd201 2.377 . S
O226 C211 1.240 . S
O227 Gd200 2.395 . S
O227 C211 1.240 . S
O228 Gd201 2.448 . S
O228 C212 1.249 . S
O229 Gd201 2.506 . S
O229 C212 1.252 . S
O230 Gd201 2.435 . S
O230 C219 1.256 . S
O231 Gd200 2.327 . S
O231 Gd201 2.717 . S
O231 C219 1.257 . S
H232 C205 0.930 . S
H233 C206 0.931 . S
H234 C208 0.931 . S
H235 C209 0.931 . S
H236 C214 0.930 . S
H237 C215 0.931 . S
H238 C217 0.931 . S
H239 C218 0.931 . S
Gd240 C243 2.818 . S
Gd240 O260 2.377 . S
Gd240 O262 2.448 . S
Gd240 O263 2.506 . S
Gd240 O264 2.435 . S
Gd240 O265 2.717 . S
Gd240 O267 2.395 . S
Gd240 O271 2.327 . S
Gd241 C252 2.818 . S
Gd241 O261 2.395 . S
Gd241 O265 2.327 . S
Gd241 O266 2.377 . S
Gd241 O268 2.448 . S
Gd241 O269 2.506 . S
Gd241 O270 2.435 . S
Gd241 O271 2.717 . S
C242 O260 1.240 . S
C242 O261 1.240 . S
C243 Gd240 2.818 . S
C243 C244 1.510 . S
C243 O262 1.249 . S
C243 O263 1.252 . S
C244 C243 1.510 . S
C244 C245 1.404 . S
C244 C246 1.352 . S
C245 C244 1.404 . S
C245 C249 1.389 . S
C245 H272 0.930 . S
C246 C244 1.352 . S
C246 C248 1.374 . S
C246 H273 0.931 . S
C247 C248 1.359 . S
C247 C249 1.364 . S
C248 C246 1.374 . S
C248 C247 1.359 . S
C248 H274 0.931 . S
C249 C245 1.389 . S
C249 C247 1.364 . S
C249 H275 0.931 . S
C250 O264 1.256 . S
C250 O265 1.257 . S
C251 O266 1.240 . S
C251 O267 1.240 . S
C252 Gd241 2.818 . S
C252 C253 1.510 . S
C252 O268 1.249 . S
C252 O269 1.252 . S
C253 C252 1.510 . S
C253 C254 1.404 . S
C253 C255 1.352 . S
C254 C253 1.404 . S
C254 C258 1.389 . S
C254 H276 0.930 . S
C255 C253 1.352 . S
C255 C257 1.374 . S
C255 H277 0.931 . S
C256 C257 1.359 . S
C256 C258 1.364 . S
C257 C255 1.374 . S
C257 C256 1.359 . S
C257 H278 0.931 . S
C258 C254 1.389 . S
C258 C256 1.364 . S
C258 H279 0.931 . S
C259 O270 1.256 . S
C259 O271 1.257 . S
O260 Gd240 2.377 . S
O260 C242 1.240 . S
O261 Gd241 2.395 . S
O261 C242 1.240 . S
O262 Gd240 2.448 . S
O262 C243 1.249 . S
O263 Gd240 2.506 . S
O263 C243 1.252 . S
O264 Gd240 2.435 . S
O264 C250 1.256 . S
O265 Gd240 2.717 . S
O265 Gd241 2.327 . S
O265 C250 1.257 . S
O266 Gd241 2.377 . S
O266 C251 1.240 . S
O267 Gd240 2.395 . S
O267 C251 1.240 . S
O268 Gd241 2.448 . S
O268 C252 1.249 . S
O269 Gd241 2.506 . S
O269 C252 1.252 . S
O270 Gd241 2.435 . S
O270 C259 1.256 . S
O271 Gd240 2.327 . S
O271 Gd241 2.717 . S
O271 C259 1.257 . S
H272 C245 0.930 . S
H273 C246 0.931 . S
H274 C248 0.931 . S
H275 C249 0.931 . S
H276 C254 0.930 . S
H277 C255 0.931 . S
H278 C257 0.931 . S
H279 C258 0.931 . S
Gd280 C283 2.818 . S
Gd280 O300 2.377 . S
Gd280 O302 2.448 . S
Gd280 O303 2.506 . S
Gd280 O304 2.435 . S
Gd280 O305 2.717 . S
Gd280 O307 2.395 . S
Gd280 O311 2.327 . S
Gd281 C292 2.818 . S
Gd281 O301 2.395 . S
Gd281 O305 2.327 . S
Gd281 O306 2.377 . S
Gd281 O308 2.448 . S
Gd281 O309 2.506 . S
Gd281 O310 2.435 . S
Gd281 O311 2.717 . S
C282 O300 1.240 . S
C282 O301 1.240 . S
C283 Gd280 2.818 . S
C283 C284 1.510 . S
C283 O302 1.249 . S
C283 O303 1.252 . S
C284 C283 1.510 . S
C284 C285 1.404 . S
C284 C286 1.352 . S
C285 C284 1.404 . S
C285 C289 1.389 . S
C285 H312 0.930 . S
C286 C284 1.352 . S
C286 C288 1.374 . S
C286 H313 0.931 . S
C287 C288 1.359 . S
C287 C289 1.364 . S
C288 C286 1.374 . S
C288 C287 1.359 . S
C288 H314 0.931 . S
C289 C285 1.389 . S
C289 C287 1.364 . S
C289 H315 0.931 . S
C290 O304 1.256 . S
C290 O305 1.257 . S
C291 O306 1.240 . S
C291 O307 1.240 . S
C292 Gd281 2.818 . S
C292 C293 1.510 . S
C292 O308 1.249 . S
C292 O309 1.252 . S
C293 C292 1.510 . S
C293 C294 1.404 . S
C293 C295 1.352 . S
C294 C293 1.404 . S
C294 C298 1.389 . S
C294 H316 0.930 . S
C295 C293 1.352 . S
C295 C297 1.374 . S
C295 H317 0.931 . S
C296 C297 1.359 . S
C296 C298 1.364 . S
C297 C295 1.374 . S
C297 C296 1.359 . S
C297 H318 0.931 . S
C298 C294 1.389 . S
C298 C296 1.364 . S
C298 H319 0.931 . S
C299 O310 1.256 . S
C299 O311 1.257 . S
O300 Gd280 2.377 . S
O300 C282 1.240 . S
O301 Gd281 2.395 . S
O301 C282 1.240 . S
O302 Gd280 2.448 . S
O302 C283 1.249 . S
O303 Gd280 2.506 . S
O303 C283 1.252 . S
O304 Gd280 2.435 . S
O304 C290 1.256 . S
O305 Gd280 2.717 . S
O305 Gd281 2.327 . S
O305 C290 1.257 . S
O306 Gd281 2.377 . S
O306 C291 1.240 . S
O307 Gd280 2.395 . S
O307 C291 1.240 . S
O308 Gd281 2.448 . S
O308 C292 1.249 . S
O309 Gd281 2.506 . S
O309 C292 1.252 . S
O310 Gd281 2.435 . S
O310 C299 1.256 . S
O311 Gd280 2.327 . S
O311 Gd281 2.717 . S
O311 C299 1.257 . S
H312 C285 0.930 . S
H313 C286 0.931 . S
H314 C288 0.931 . S
H315 C289 0.931 . S
H316 C294 0.930 . S
H317 C295 0.931 . S
H318 C297 0.931 . S
H319 C298 0.931 . S
Gd320 C323 2.818 . S
Gd320 O340 2.377 . S
Gd320 O342 2.448 . S
Gd320 O343 2.506 . S
Gd320 O344 2.435 . S
Gd320 O345 2.717 . S
Gd320 O347 2.395 . S
Gd320 O351 2.327 . S
Gd321 C332 2.818 . S
Gd321 O341 2.395 . S
Gd321 O345 2.327 . S
Gd321 O346 2.377 . S
Gd321 O348 2.448 . S
Gd321 O349 2.506 . S
Gd321 O350 2.435 . S
Gd321 O351 2.717 . S
C322 O340 1.240 . S
C322 O341 1.240 . S
C323 Gd320 2.818 . S
C323 C324 1.510 . S
C323 O342 1.249 . S
C323 O343 1.252 . S
C324 C323 1.510 . S
C324 C325 1.404 . S
C324 C326 1.352 . S
C325 C324 1.404 . S
C325 C329 1.389 . S
C325 H352 0.930 . S
C326 C324 1.352 . S
C326 C328 1.374 . S
C326 H353 0.931 . S
C327 C328 1.359 . S
C327 C329 1.364 . S
C328 C326 1.374 . S
C328 C327 1.359 . S
C328 H354 0.931 . S
C329 C325 1.389 . S
C329 C327 1.364 . S
C329 H355 0.931 . S
C330 O344 1.256 . S
C330 O345 1.257 . S
C331 O346 1.240 . S
C331 O347 1.240 . S
C332 Gd321 2.818 . S
C332 C333 1.510 . S
C332 O348 1.249 . S
C332 O349 1.252 . S
C333 C332 1.510 . S
C333 C334 1.404 . S
C333 C335 1.352 . S
C334 C333 1.404 . S
C334 C338 1.389 . S
C334 H356 0.930 . S
C335 C333 1.352 . S
C335 C337 1.374 . S
C335 H357 0.931 . S
C336 C337 1.359 . S
C336 C338 1.364 . S
C337 C335 1.374 . S
C337 C336 1.359 . S
C337 H358 0.931 . S
C338 C334 1.389 . S
C338 C336 1.364 . S
C338 H359 0.931 . S
C339 O350 1.256 . S
C339 O351 1.257 . S
O340 Gd320 2.377 . S
O340 C322 1.240 . S
O341 Gd321 2.395 . S
O341 C322 1.240 . S
O342 Gd320 2.448 . S
O342 C323 1.249 . S
O343 Gd320 2.506 . S
O343 C323 1.252 . S
O344 Gd320 2.435 . S
O344 C330 1.256 . S
O345 Gd320 2.717 . S
O345 Gd321 2.327 . S
O345 C330 1.257 . S
O346 Gd321 2.377 . S
O346 C331 1.240 . S
O347 Gd320 2.395 . S
O347 C331 1.240 . S
O348 Gd321 2.448 . S
O348 C332 1.249 . S
O349 Gd321 2.506 . S
O349 C332 1.252 . S
O350 Gd321 2.435 . S
O350 C339 1.256 . S
O351 Gd320 2.327 . S
O351 Gd321 2.717 . S
O351 C339 1.257 . S
H352 C325 0.930 . S
H353 C326 0.931 . S
H354 C328 0.931 . S
H355 C329 0.931 . S
H356 C334 0.930 . S
H357 C335 0.931 . S
H358 C337 0.931 . S
H359 C338 0.931 . S
H360 C366 0.930 . S
H361 C370 0.930 . S
H362 C375 0.929 1_554 S
H363 C373 0.929 . S
H364 C368 0.929 . S
H365 C374 0.929 . S
C366 H360 0.930 . S
C366 C367 1.367 . S
C366 C374 1.378 . S
C367 C366 1.367 . S
C367 C375 1.433 . S
C368 H364 0.929 . S
C368 C370 1.378 . S
C368 C372 1.350 . S
C369 C372 1.463 . S
C369 C374 1.350 . S
C369 N377 1.427 . S
C370 H361 0.930 . S
C370 C368 1.378 . S
C370 C371 1.367 . S
C371 C370 1.367 . S
C371 C373 1.433 . S
C372 C368 1.350 . S
C372 C369 1.463 . S
C372 N376 1.427 . S
C373 H363 0.929 . S
C373 C371 1.433 . S
C373 N376 1.384 . S
C374 H365 0.929 . S
C374 C366 1.378 . S
C374 C369 1.350 . S
C375 H362 0.929 1_556 S
C375 C367 1.433 . S
C375 N377 1.384 . S
N376 C372 1.427 . S
N376 C373 1.384 . S
N377 C369 1.427 . S
N377 C375 1.384 . S
H378 C384 0.930 1_554 S
H379 C388 0.930 . S
H380 C393 0.929 . S
H381 C391 0.929 . S
H382 C386 0.929 . S
H383 C392 0.929 . S
C384 H378 0.930 1_556 S
C384 C385 1.367 . S
C384 C392 1.378 . S
C385 C384 1.367 . S
C385 C393 1.433 . S
C386 H382 0.929 . S
C386 C388 1.378 . S
C386 C390 1.350 . S
C387 C390 1.463 . S
C387 C392 1.350 . S
C387 N395 1.427 . S
C388 H379 0.930 . S
C388 C386 1.378 . S
C388 C389 1.367 . S
C389 C388 1.367 . S
C389 C391 1.433 . S
C390 C386 1.350 . S
C390 C387 1.463 . S
C390 N394 1.427 . S
C391 H381 0.929 . S
C391 C389 1.433 . S
C391 N394 1.384 . S
C392 H383 0.929 . S
C392 C384 1.378 . S
C392 C387 1.350 . S
C393 H380 0.929 . S
C393 C385 1.433 . S
C393 N395 1.384 . S
N394 C390 1.427 . S
N394 C391 1.384 . S
N395 C387 1.427 . S
N395 C393 1.384 . S
H396 C402 0.930 . S
H397 C406 0.930 . S
H398 C411 0.929 . S
H399 C409 0.929 . S
H400 C404 0.929 . S
H401 C410 0.929 . S
C402 H396 0.930 . S
C402 C403 1.367 . S
C402 C410 1.378 . S
C403 C402 1.367 . S
C403 C411 1.433 . S
C404 H400 0.929 . S
C404 C406 1.378 . S
C404 C408 1.350 . S
C405 C408 1.463 . S
C405 C410 1.350 . S
C405 N413 1.427 . S
C406 H397 0.930 . S
C406 C404 1.378 . S
C406 C407 1.367 . S
C407 C406 1.367 . S
C407 C409 1.433 . S
C408 C404 1.350 . S
C408 C405 1.463 . S
C408 N412 1.427 . S
C409 H399 0.929 . S
C409 C407 1.433 . S
C409 N412 1.384 . S
C410 H401 0.929 . S
C410 C402 1.378 . S
C410 C405 1.350 . S
C411 H398 0.929 . S
C411 C403 1.433 . S
C411 N413 1.384 . S
N412 C408 1.427 . S
N412 C409 1.384 . S
N413 C405 1.427 . S
N413 C411 1.384 . S
H414 C420 0.930 . S
H415 C424 0.930 . S
H416 C429 0.929 . S
H417 C427 0.929 . S
H418 C422 0.929 . S
H419 C428 0.929 . S
C420 H414 0.930 . S
C420 C421 1.367 . S
C420 C428 1.378 . S
C421 C420 1.367 . S
C421 C429 1.433 . S
C422 H418 0.929 . S
C422 C424 1.378 . S
C422 C426 1.350 . S
C423 C426 1.463 . S
C423 C428 1.350 . S
C423 N431 1.427 . S
C424 H415 0.930 . S
C424 C422 1.378 . S
C424 C425 1.367 . S
C425 C424 1.367 . S
C425 C427 1.433 1_554 S
C426 C422 1.350 . S
C426 C423 1.463 . S
C426 N430 1.427 . S
C427 H417 0.929 . S
C427 C425 1.433 1_556 S
C427 N430 1.384 1_556 S
C428 H419 0.929 . S
C428 C420 1.378 . S
C428 C423 1.350 . S
C429 H416 0.929 . S
C429 C421 1.433 . S
C429 N431 1.384 . S
N430 C426 1.427 . S
N430 C427 1.384 1_554 S
N431 C423 1.427 . S
N431 C429 1.384 . S
H432 C438 0.930 . S
H433 C442 0.930 . S
H434 C447 0.929 . S
H435 C445 0.929 . S
H436 C440 0.929 . S
H437 C446 0.929 . S
C438 H432 0.930 . S
C438 C439 1.367 . S
C438 C446 1.378 . S
C439 C438 1.367 . S
C439 C447 1.433 . S
C440 H436 0.929 . S
C440 C442 1.378 . S
C440 C444 1.350 . S
C441 C444 1.463 . S
C441 C446 1.350 . S
C441 N449 1.427 . S
C442 H433 0.930 . S
C442 C440 1.378 . S
C442 C443 1.367 . S
C443 C442 1.367 . S
C443 C445 1.433 1_554 S
C444 C440 1.350 . S
C444 C441 1.463 . S
C444 N448 1.427 . S
C445 H435 0.929 . S
C445 C443 1.433 1_556 S
C445 N448 1.384 1_556 S
C446 H437 0.929 . S
C446 C438 1.378 . S
C446 C441 1.350 . S
C447 H434 0.929 . S
C447 C439 1.433 . S
C447 N449 1.384 . S
N448 C444 1.427 . S
N448 C445 1.384 1_554 S
N449 C441 1.427 . S
N449 C447 1.384 . S
H450 C456 0.930 . S
H451 C460 0.930 . S
H452 C465 0.929 . S
H453 C463 0.929 . S
H454 C458 0.929 . S
H455 C464 0.929 . S
C456 H450 0.930 . S
C456 C457 1.367 . S
C456 C464 1.378 . S
C457 C456 1.367 . S
C457 C465 1.433 1_554 S
C458 H454 0.929 . S
C458 C460 1.378 . S
C458 C462 1.350 . S
C459 C462 1.463 . S
C459 C464 1.350 . S
C459 N467 1.427 . S
C460 H451 0.930 . S
C460 C458 1.378 . S
C460 C461 1.367 . S
C461 C460 1.367 . S
C461 C463 1.433 . S
C462 C458 1.350 . S
C462 C459 1.463 . S
C462 N466 1.427 . S
C463 H453 0.929 . S
C463 C461 1.433 . S
C463 N466 1.384 . S
C464 H455 0.929 . S
C464 C456 1.378 . S
C464 C459 1.350 . S
C465 H452 0.929 . S
C465 C457 1.433 1_556 S
C465 N467 1.384 1_556 S
N466 C462 1.427 . S
N466 C463 1.384 . S
N467 C459 1.427 . S
N467 C465 1.384 1_554 S
H468 C474 0.930 . S
H469 C478 0.930 . S
H470 C483 0.926 1_455 S
H471 C481 0.929 . S
H472 C476 0.929 . S
H473 C482 0.929 . S
C474 H468 0.930 . S
C474 C475 1.367 . S
C474 C482 1.378 1_455 S
C475 C474 1.367 . S
C475 C483 1.409 1_455 S
C476 H472 0.929 . S
C476 C478 1.378 . S
C476 C480 1.350 . S
C477 C480 1.463 . S
C477 C482 1.350 . S
C477 N485 1.427 . S
C478 H469 0.930 . S
C478 C476 1.378 . S
C478 C479 1.367 . S
C479 C478 1.367 . S
C479 C481 1.433 . S
C480 C476 1.350 . S
C480 C477 1.463 . S
C480 N484 1.427 . S
C481 H471 0.929 . S
C481 C479 1.433 . S
C481 N484 1.384 . S
C482 H473 0.929 . S
C482 C474 1.378 1_655 S
C482 C477 1.350 . S
C483 H470 0.926 1_655 S
C483 C475 1.409 1_655 S
C483 N485 1.411 . S
N484 C480 1.427 . S
N484 C481 1.384 . S
N485 C477 1.427 . S
N485 C483 1.411 . S
H486 C492 0.930 . S
H487 C496 0.930 . S
H488 C501 0.929 . S
H489 C499 0.929 . S
H490 C494 0.929 . S
H491 C500 0.929 . S
C492 H486 0.930 . S
C492 C493 1.367 . S
C492 C500 1.378 . S
C493 C492 1.367 . S
C493 C501 1.433 . S
C494 H490 0.929 . S
C494 C496 1.378 . S
C494 C498 1.350 . S
C495 C498 1.463 . S
C495 C500 1.350 . S
C495 N503 1.427 . S
C496 H487 0.930 . S
C496 C494 1.378 . S
C496 C497 1.367 . S
C497 C496 1.367 . S
C497 C499 1.433 . S
C498 C494 1.350 . S
C498 C495 1.463 . S
C498 N502 1.427 . S
C499 H489 0.929 . S
C499 C497 1.433 . S
C499 N502 1.384 . S
C500 H491 0.929 . S
C500 C492 1.378 . S
C500 C495 1.350 . S
C501 H488 0.929 . S
C501 C493 1.433 . S
C501 N503 1.384 . S
N502 C498 1.427 . S
N502 C499 1.384 . S
N503 C495 1.427 . S
N503 C501 1.384 . S
H504 C510 0.930 . S
H505 C514 0.930 . S
H506 C519 0.929 . S
H507 C517 0.938 . S
H508 C512 0.929 . S
H509 C518 0.929 . S
C510 H504 0.930 . S
C510 C511 1.367 . S
C510 C518 1.378 . S
C511 C510 1.367 . S
C511 C519 1.433 . S
C512 H508 0.929 . S
C512 C514 1.378 . S
C512 C516 1.350 . S
C513 C516 1.463 . S
C513 C518 1.350 . S
C513 N521 1.427 . S
C514 H505 0.930 . S
C514 C512 1.378 . S
C514 C515 1.367 . S
C515 C514 1.367 . S
C515 C517 1.433 . S
C516 C512 1.350 . S
C516 C513 1.463 . S
C516 N520 1.427 . S
C517 H507 0.938 . S
C517 C515 1.433 . S
C517 N520 1.384 . S
C518 H509 0.929 . S
C518 C510 1.378 . S
C518 C513 1.350 . S
C519 H506 0.929 . S
C519 C511 1.433 . S
C519 N521 1.384 . S
N520 C516 1.427 . S
N520 C517 1.384 . S
N521 C513 1.427 . S
N521 C519 1.384 . S
H522 C528 0.930 . S
H523 C532 0.930 . S
H524 C537 0.929 . S
H525 C535 0.929 . S
H526 C530 0.929 . S
H527 C536 0.929 . S
C528 H522 0.930 . S
C528 C529 1.367 . S
C528 C536 1.378 . S
C529 C528 1.367 . S
C529 C537 1.433 1_554 S
C530 H526 0.929 . S
C530 C532 1.378 . S
C530 C534 1.350 1_556 S
C531 C534 1.463 . S
C531 C536 1.350 . S
C531 N539 1.427 1_554 S
C532 H523 0.930 . S
C532 C530 1.378 . S
C532 C533 1.367 1_556 S
C533 C532 1.367 1_554 S
C533 C535 1.433 . S
C534 C530 1.350 1_554 S
C534 C531 1.463 . S
C534 N538 1.427 . S
C535 H525 0.929 . S
C535 C533 1.433 . S
C535 N538 1.384 . S
C536 H527 0.929 . S
C536 C528 1.378 . S
C536 C531 1.350 . S
C537 H524 0.929 . S
C537 C529 1.433 1_556 S
C537 N539 1.384 . S
N538 C534 1.427 . S
N538 C535 1.384 . S
N539 C531 1.427 1_556 S
N539 C537 1.384 . S
H540 C546 0.930 1_556 S
H541 C550 0.930 . S
H542 C555 0.929 . S
H543 C553 0.929 . S
H544 C548 0.929 . S
H545 C554 0.929 . S
C546 H540 0.930 1_554 S
C546 C547 1.367 . S
C546 C554 1.378 . S
C547 C546 1.367 . S
C547 C555 1.433 . S
C548 H544 0.929 . S
C548 C550 1.378 1_565 S
C548 C552 1.350 . S
C549 C552 1.463 . S
C549 C554 1.350 . S
C549 N557 1.427 . S
C550 H541 0.930 . S
C550 C548 1.378 1_545 S
C550 C551 1.367 . S
C551 C550 1.367 . S
C551 C553 1.433 . S
C552 C548 1.350 . S
C552 C549 1.463 . S
C552 N556 1.427 . S
C553 H543 0.929 . S
C553 C551 1.433 . S
C553 N556 1.384 1_545 S
C554 H545 0.929 . S
C554 C546 1.378 . S
C554 C549 1.350 . S
C555 H542 0.929 . S
C555 C547 1.433 . S
C555 N557 1.384 . S
N556 C552 1.427 . S
N556 C553 1.384 1_565 S
N557 C549 1.427 . S
N557 C555 1.384 . S
H558 C564 0.930 . S
H559 C568 0.930 . S
H560 C573 0.929 . S
H561 C571 0.929 . S
H562 C566 0.929 . S
H563 C572 0.929 . S
C564 H558 0.930 . S
C564 C565 1.367 . S
C564 C572 1.378 . S
C565 C564 1.367 . S
C565 C573 1.433 1_554 S
C566 H562 0.929 . S
C566 C568 1.378 . S
C566 C570 1.350 1_556 S
C567 C570 1.463 . S
C567 C572 1.350 . S
C567 N575 1.427 1_554 S
C568 H559 0.930 . S
C568 C566 1.378 . S
C568 C569 1.367 1_556 S
C569 C568 1.367 1_554 S
C569 C571 1.433 . S
C570 C566 1.350 1_554 S
C570 C567 1.463 . S
C570 N574 1.427 . S
C571 H561 0.929 . S
C571 C569 1.433 . S
C571 N574 1.384 . S
C572 H563 0.929 . S
C572 C564 1.378 . S
C572 C567 1.350 . S
C573 H560 0.929 . S
C573 C565 1.433 1_556 S
C573 N575 1.384 . S
N574 C570 1.427 . S
N574 C571 1.384 . S
N575 C567 1.427 1_556 S
N575 C573 1.384 . S
H576 C582 0.930 . S
H577 C586 0.930 . S
H578 C591 0.929 . S
H579 C589 0.929 . S
H580 C584 0.929 . S
H581 C590 0.929 . S
C582 H576 0.930 . S
C582 C583 1.367 . S
C582 C590 1.378 . S
C583 C582 1.367 . S
C583 C591 1.433 . S
C584 H580 0.929 . S
C584 C586 1.378 . S
C584 C588 1.350 . S
C585 C588 1.463 . S
C585 C590 1.350 . S
C585 N593 1.427 . S
C586 H577 0.930 . S
C586 C584 1.378 . S
C586 C587 1.367 . S
C587 C586 1.367 . S
C587 C589 1.433 . S
C588 C584 1.350 . S
C588 C585 1.463 . S
C588 N592 1.427 . S
C589 H579 0.929 . S
C589 C587 1.433 . S
C589 N592 1.384 . S
C590 H581 0.929 . S
C590 C582 1.378 . S
C590 C585 1.350 . S
C591 H578 0.929 . S
C591 C583 1.433 . S
C591 N593 1.384 . S
N592 C588 1.427 . S
N592 C589 1.384 . S
N593 C585 1.427 . S
N593 C591 1.384 . S
H594 C600 0.930 . S
H595 C604 0.930 . S
H596 C609 0.929 . S
H597 C607 0.929 . S
H598 C602 0.929 . S
H599 C608 0.929 . S
C600 H594 0.930 . S
C600 C601 1.367 . S
C600 C608 1.378 . S
C601 C600 1.367 . S
C601 C609 1.433 . S
C602 H598 0.929 . S
C602 C604 1.378 . S
C602 C606 1.350 . S
C603 C606 1.463 . S
C603 C608 1.350 . S
C603 N611 1.427 . S
C604 H595 0.930 . S
C604 C602 1.378 . S
C604 C605 1.367 . S
C605 C604 1.367 . S
C605 C607 1.433 . S
C606 C602 1.350 . S
C606 C603 1.463 . S
C606 N610 1.427 . S
C607 H597 0.929 . S
C607 C605 1.433 . S
C607 N610 1.384 . S
C608 H599 0.929 . S
C608 C600 1.378 . S
C608 C603 1.350 . S
C609 H596 0.929 . S
C609 C601 1.433 . S
C609 N611 1.384 . S
N610 C606 1.427 . S
N610 C607 1.384 . S
N611 C603 1.427 . S
N611 C609 1.384 . S
H612 C618 0.930 . S
H613 C622 0.930 . S
H614 C627 0.929 . S
H615 C625 0.929 . S
H616 C620 0.929 . S
H617 C626 0.929 . S
C618 H612 0.930 . S
C618 C619 1.367 . S
C618 C626 1.378 . S
C619 C618 1.367 . S
C619 C627 1.433 . S
C620 H616 0.929 . S
C620 C622 1.378 . S
C620 C624 1.350 . S
C621 C624 1.463 . S
C621 C626 1.350 . S
C621 N629 1.427 . S
C622 H613 0.930 . S
C622 C620 1.378 . S
C622 C623 1.367 . S
C623 C622 1.367 . S
C623 C625 1.433 . S
C624 C620 1.350 . S
C624 C621 1.463 . S
C624 N628 1.427 . S
C625 H615 0.929 . S
C625 C623 1.433 . S
C625 N628 1.384 . S
C626 H617 0.929 . S
C626 C618 1.378 . S
C626 C621 1.350 . S
C627 H614 0.929 . S
C627 C619 1.433 . S
C627 N629 1.384 . S
N628 C624 1.427 . S
N628 C625 1.384 . S
N629 C621 1.427 . S
N629 C627 1.384 . S
H630 C636 0.930 . S
H631 C640 0.930 . S
H632 C645 0.929 . S
H633 C643 0.929 . S
H634 C638 0.929 . S
H635 C644 0.929 . S
C636 H630 0.930 . S
C636 C637 1.367 . S
C636 C644 1.378 . S
C637 C636 1.367 . S
C637 C645 1.433 . S
C638 H634 0.929 . S
C638 C640 1.378 . S
C638 C642 1.350 . S
C639 C642 1.463 . S
C639 C644 1.350 . S
C639 N647 1.427 . S
C640 H631 0.930 . S
C640 C638 1.378 . S
C640 C641 1.367 . S
C641 C640 1.367 . S
C641 C643 1.433 . S
C642 C638 1.350 . S
C642 C639 1.463 . S
C642 N646 1.427 . S
C643 H633 0.929 . S
C643 C641 1.433 . S
C643 N646 1.384 . S
C644 H635 0.929 . S
C644 C636 1.378 . S
C644 C639 1.350 . S
C645 H632 0.929 . S
C645 C637 1.433 . S
C645 N647 1.384 . S
N646 C642 1.427 . S
N646 C643 1.384 . S
N647 C639 1.427 . S
N647 C645 1.384 . S
H648 C654 0.930 . S
H649 C658 0.930 . S
H650 C663 0.929 . S
H651 C661 0.929 . S
H652 C656 0.929 . S
H653 C662 0.929 . S
C654 H648 0.930 . S
C654 C655 1.367 . S
C654 C662 1.378 . S
C655 C654 1.367 . S
C655 C663 1.433 . S
C656 H652 0.929 . S
C656 C658 1.378 . S
C656 C660 1.350 . S
C657 C660 1.463 . S
C657 C662 1.350 . S
C657 N665 1.427 . S
C658 H649 0.930 . S
C658 C656 1.378 . S
C658 C659 1.367 . S
C659 C658 1.367 . S
C659 C661 1.433 . S
C660 C656 1.350 . S
C660 C657 1.463 . S
C660 N664 1.427 . S
C661 H651 0.929 . S
C661 C659 1.433 . S
C661 N664 1.384 . S
C662 H653 0.929 . S
C662 C654 1.378 . S
C662 C657 1.350 . S
C663 H650 0.929 . S
C663 C655 1.433 . S
C663 N665 1.384 . S
N664 C660 1.427 . S
N664 C661 1.384 . S
N665 C657 1.427 . S
N665 C663 1.384 . S
H666 C672 0.930 . S
H667 C676 0.930 . S
H668 C681 0.929 . S
H669 C679 0.929 . S
H670 C674 0.929 . S
H671 C680 0.929 . S
C672 H666 0.930 . S
C672 C673 1.367 . S
C672 C680 1.378 . S
C673 C672 1.367 . S
C673 C681 1.433 . S
C674 H670 0.929 . S
C674 C676 1.378 . S
C674 C678 1.350 . S
C675 C678 1.463 . S
C675 C680 1.350 . S
C675 N683 1.427 . S
C676 H667 0.930 . S
C676 C674 1.378 . S
C676 C677 1.367 . S
C677 C676 1.367 . S
C677 C679 1.433 . S
C678 C674 1.350 . S
C678 C675 1.463 . S
C678 N682 1.427 . S
C679 H669 0.929 . S
C679 C677 1.433 . S
C679 N682 1.384 . S
C680 H671 0.929 . S
C680 C672 1.378 . S
C680 C675 1.350 . S
C681 H668 0.929 . S
C681 C673 1.433 . S
C681 N683 1.384 . S
N682 C678 1.427 . S
N682 C679 1.384 . S
N683 C675 1.427 . S
N683 C681 1.384 . S
H684 C690 0.930 1_655 S
H685 C694 0.930 . S
H686 C699 0.929 . S
H687 C697 0.927 . S
H688 C692 0.929 . S
H689 C698 0.929 1_655 S
C690 H684 0.930 1_455 S
C690 C691 1.367 . S
C690 C698 1.378 . S
C691 C690 1.367 . S
C691 C699 1.433 . S
C692 H688 0.929 . S
C692 C694 1.378 . S
C692 C696 1.350 . S
C693 C696 1.463 . S
C693 C698 1.350 . S
C693 N701 1.427 . S
C694 H685 0.930 . S
C694 C692 1.378 . S
C694 C695 1.367 . S
C695 C694 1.367 . S
C695 C697 1.433 . S
C696 C692 1.350 . S
C696 C693 1.463 . S
C696 N700 1.427 . S
C697 H687 0.927 . S
C697 C695 1.433 . S
C697 N700 1.384 . S
C698 H689 0.929 1_455 S
C698 C690 1.378 . S
C698 C693 1.350 . S
C699 H686 0.929 . S
C699 C691 1.433 . S
C699 N701 1.384 . S
N700 C696 1.427 . S
N700 C697 1.384 . S
N701 C693 1.427 . S
N701 C699 1.384 . S
H702 C708 0.930 . S
H703 C712 0.930 . S
H704 C717 0.929 . S
H705 C715 0.929 . S
H706 C710 0.929 . S
H707 C716 0.929 . S
C708 H702 0.930 . S
C708 C709 1.367 . S
C708 C716 1.378 . S
C709 C708 1.367 . S
C709 C717 1.433 . S
C710 H706 0.929 . S
C710 C712 1.378 . S
C710 C714 1.350 . S
C711 C714 1.463 . S
C711 C716 1.350 . S
C711 N719 1.427 . S
C712 H703 0.930 . S
C712 C710 1.378 . S
C712 C713 1.367 . S
C713 C712 1.367 . S
C713 C715 1.433 . S
C714 C710 1.350 . S
C714 C711 1.463 . S
C714 N718 1.427 . S
C715 H705 0.929 . S
C715 C713 1.433 . S
C715 N718 1.384 . S
C716 H707 0.929 . S
C716 C708 1.378 . S
C716 C711 1.350 . S
C717 H704 0.929 . S
C717 C709 1.433 . S
C717 N719 1.384 . S
N718 C714 1.427 . S
N718 C715 1.384 . S
N719 C711 1.427 . S
N719 C717 1.384 . S
H720 C726 0.930 . S
H721 C730 0.930 . S
H722 C735 0.919 1_565 S
H723 C733 0.929 . S
H724 C728 0.929 . S
H725 C734 0.929 . S
C726 H720 0.930 . S
C726 C727 1.367 . S
C726 C734 1.378 . S
C727 C726 1.367 . S
C727 C735 1.445 . S
C728 H724 0.929 . S
C728 C730 1.378 . S
C728 C732 1.350 1_565 S
C729 C732 1.463 . S
C729 C734 1.350 . S
C729 N737 1.426 1_545 S
C730 H721 0.930 . S
C730 C728 1.378 . S
C730 C731 1.367 1_565 S
C731 C730 1.367 1_545 S
C731 C733 1.433 . S
C732 C728 1.350 1_545 S
C732 C729 1.463 . S
C732 N736 1.427 . S
C733 H723 0.929 . S
C733 C731 1.433 . S
C733 N736 1.384 . S
C734 H725 0.929 . S
C734 C726 1.378 . S
C734 C729 1.350 . S
C735 H722 0.919 1_545 S
C735 C727 1.445 . S
C735 N737 1.384 1_545 S
N736 C732 1.427 . S
N736 C733 1.384 . S
N737 C729 1.426 1_565 S
N737 C735 1.384 1_565 S
H738 C744 0.930 . S
H739 C748 0.930 . S
H740 C753 0.929 . S
H741 C751 0.929 . S
H742 C746 0.929 . S
H743 C752 0.929 . S
C744 H738 0.930 . S
C744 C745 1.367 . S
C744 C752 1.378 . S
C745 C744 1.367 . S
C745 C753 1.433 . S
C746 H742 0.929 . S
C746 C748 1.378 1_556 S
C746 C750 1.350 . S
C747 C750 1.463 . S
C747 C752 1.350 . S
C747 N755 1.427 . S
C748 H739 0.930 . S
C748 C746 1.378 1_554 S
C748 C749 1.367 . S
C749 C748 1.367 . S
C749 C751 1.433 . S
C750 C746 1.350 . S
C750 C747 1.463 . S
C750 N754 1.427 . S
C751 H741 0.929 . S
C751 C749 1.433 . S
C751 N754 1.384 1_554 S
C752 H743 0.929 . S
C752 C744 1.378 . S
C752 C747 1.350 . S
C753 H740 0.929 . S
C753 C745 1.433 . S
C753 N755 1.384 . S
N754 C750 1.427 . S
N754 C751 1.384 1_556 S
N755 C747 1.427 . S
N755 C753 1.384 . S
H756 C762 0.930 . S
H757 C766 0.930 . S
H758 C771 0.929 . S
H759 C769 0.929 . S
H760 C764 0.929 . S
H761 C770 0.929 . S
C762 H756 0.930 . S
C762 C763 1.367 . S
C762 C770 1.378 . S
C763 C762 1.367 . S
C763 C771 1.433 . S
C764 H760 0.929 . S
C764 C766 1.378 1_556 S
C764 C768 1.350 . S
C765 C768 1.463 . S
C765 C770 1.350 . S
C765 N773 1.427 . S
C766 H757 0.930 . S
C766 C764 1.378 1_554 S
C766 C767 1.367 . S
C767 C766 1.367 . S
C767 C769 1.433 . S
C768 C764 1.350 . S
C768 C765 1.463 . S
C768 N772 1.427 . S
C769 H759 0.929 . S
C769 C767 1.433 . S
C769 N772 1.384 1_554 S
C770 H761 0.929 . S
C770 C762 1.378 . S
C770 C765 1.350 . S
C771 H758 0.929 . S
C771 C763 1.433 . S
C771 N773 1.384 . S
N772 C768 1.427 . S
N772 C769 1.384 1_556 S
N773 C765 1.427 . S
N773 C771 1.384 . S
H774 C780 0.930 . S
H775 C784 0.930 . S
H776 C789 0.929 . S
H777 C787 0.929 . S
H778 C782 0.929 . S
H779 C788 0.929 . S
C780 H774 0.930 . S
C780 C781 1.367 . S
C780 C788 1.378 . S
C781 C780 1.367 . S
C781 C789 1.433 . S
C782 H778 0.929 . S
C782 C784 1.378 1_556 S
C782 C786 1.350 . S
C783 C786 1.463 . S
C783 C788 1.350 . S
C783 N791 1.427 . S
C784 H775 0.930 . S
C784 C782 1.378 1_554 S
C784 C785 1.367 . S
C785 C784 1.367 . S
C785 C787 1.433 . S
C786 C782 1.350 . S
C786 C783 1.463 . S
C786 N790 1.427 . S
C787 H777 0.929 . S
C787 C785 1.433 . S
C787 N790 1.384 1_554 S
C788 H779 0.929 . S
C788 C780 1.378 . S
C788 C783 1.350 . S
C789 H776 0.929 . S
C789 C781 1.433 . S
C789 N791 1.384 . S
N790 C786 1.427 . S
N790 C787 1.384 1_556 S
N791 C783 1.427 . S
N791 C789 1.384 . S
H792 C798 0.930 . S
H793 C802 0.930 . S
H794 C807 0.929 . S
H795 C805 0.929 . S
H796 C800 0.929 . S
H797 C806 0.929 . S
C798 H792 0.930 . S
C798 C799 1.367 . S
C798 C806 1.378 . S
C799 C798 1.367 . S
C799 C807 1.433 . S
C800 H796 0.929 . S
C800 C802 1.378 1_554 S
C800 C804 1.350 . S
C801 C804 1.463 . S
C801 C806 1.350 . S
C801 N809 1.427 . S
C802 H793 0.930 . S
C802 C800 1.378 1_556 S
C802 C803 1.367 . S
C803 C802 1.367 . S
C803 C805 1.433 . S
C804 C800 1.350 . S
C804 C801 1.463 . S
C804 N808 1.427 . S
C805 H795 0.929 . S
C805 C803 1.433 . S
C805 N808 1.384 1_556 S
C806 H797 0.929 . S
C806 C798 1.378 . S
C806 C801 1.350 . S
C807 H794 0.929 . S
C807 C799 1.433 . S
C807 N809 1.384 . S
N808 C804 1.427 . S
N808 C805 1.384 1_554 S
N809 C801 1.427 . S
N809 C807 1.384 . S
H810 C816 0.930 . S
H811 C820 0.930 . S
H812 C825 0.929 . S
H813 C823 0.929 . S
H814 C818 0.929 . S
H815 C824 0.929 . S
C816 H810 0.930 . S
C816 C817 1.367 . S
C816 C824 1.378 1_556 S
C817 C816 1.367 . S
C817 C825 1.433 . S
C818 H814 0.929 . S
C818 C820 1.378 . S
C818 C822 1.350 . S
C819 C822 1.463 . S
C819 C824 1.350 . S
C819 N827 1.427 . S
C820 H811 0.930 . S
C820 C818 1.378 . S
C820 C821 1.367 . S
C821 C820 1.367 . S
C821 C823 1.433 . S
C822 C818 1.350 . S
C822 C819 1.463 . S
C822 N826 1.427 . S
C823 H813 0.929 . S
C823 C821 1.433 . S
C823 N826 1.384 . S
C824 H815 0.929 . S
C824 C816 1.378 1_554 S
C824 C819 1.350 . S
C825 H812 0.929 . S
C825 C817 1.433 . S
C825 N827 1.384 1_556 S
N826 C822 1.427 . S
N826 C823 1.384 . S
N827 C819 1.427 . S
N827 C825 1.384 1_554 S
H828 C834 0.930 . S
H829 C838 0.930 . S
H830 C843 0.929 . S
H831 C841 0.929 . S
H832 C836 0.929 . S
H833 C842 0.929 . S
C834 H828 0.930 . S
C834 C835 1.367 . S
C834 C842 1.378 . S
C835 C834 1.367 . S
C835 C843 1.433 . S
C836 H832 0.929 . S
C836 C838 1.378 1_554 S
C836 C840 1.350 . S
C837 C840 1.463 . S
C837 C842 1.350 . S
C837 N845 1.427 . S
C838 H829 0.930 . S
C838 C836 1.378 1_556 S
C838 C839 1.367 . S
C839 C838 1.367 . S
C839 C841 1.433 . S
C840 C836 1.350 . S
C840 C837 1.463 . S
C840 N844 1.427 . S
C841 H831 0.929 . S
C841 C839 1.433 . S
C841 N844 1.384 1_556 S
C842 H833 0.929 . S
C842 C834 1.378 . S
C842 C837 1.350 . S
C843 H830 0.929 . S
C843 C835 1.433 . S
C843 N845 1.384 . S
N844 C840 1.427 . S
N844 C841 1.384 1_554 S
N845 C837 1.427 . S
N845 C843 1.384 . S
C367 C7 1.897 . S
C371 C282 1.859 . S
C385 C47 1.905 . S
C389 C322 1.870 . S
C403 C87 1.904 . S
C407 C242 1.867 . S
C421 C167 1.897 . S
C425 C82 1.859 . S
C439 C207 1.899 . S
C443 C2 1.860 . S
C457 C42 1.861 . S
C461 C127 1.897 . S
C475 C287 1.897 . S
C479 C202 1.859 . S
C493 C327 1.900 . S
C497 C122 1.861 . S
C511 C162 1.870 . S
C515 C247 1.905 1_545 S
C529 C96 1.708 . S
C533 C11 1.715 1_554 S
C547 C51 1.713 1_554 S
C551 C16 1.709 . S
C565 C56 1.709 1_455 S
C569 C91 1.714 1_554 S
C583 C131 1.716 . S
C587 C216 1.707 . S
C601 C136 1.706 . S
C605 C171 1.715 . S
C619 C176 1.706 . S
C623 C211 1.715 . S
C637 C336 1.706 . S
C641 C251 1.716 . S
C655 C291 1.714 . S
C659 C256 1.709 . S
C673 C331 1.713 . S
C677 C296 1.710 . S
C691 C19 0.980 . S
C695 C10 0.980 . S
C709 C59 0.981 . S
C713 C50 0.981 . S
C727 C99 0.990 . S
C731 C90 0.990 . S
C745 C130 0.999 . S
C749 C139 0.999 . S
C763 C170 0.993 . S
C767 C179 0.993 . S
C781 C210 1.000 . S
C785 C219 1.000 . S
C799 C259 0.982 . S
C803 C250 0.982 . S
C817 C290 0.992 . S
C821 C299 0.992 . S
C835 C339 0.988 . S
C839 C330 0.988 . S
