# Generated by pormake.
# Topology umg, (4)-cn, num edge types: 1
# Building blocks:
#     Node 0, Type 0, BuildingBlock: KOZSID_clean_sbu_0, # of connection points: 4
#     Node 1, Type 0, BuildingBlock: KOZSID_clean_sbu_0, # of connection points: 4
#     Node 2, Type 0, BuildingBlock: KOZSID_clean_sbu_0, # of connection points: 4
#     Node 3, Type 0, BuildingBlock: KOZSID_clean_sbu_0, # of connection points: 4
#     Node 4, Type 0, BuildingBlock: KOZSID_clean_sbu_0, # of connection points: 4
#     Node 5, Type 0, BuildingBlock: KOZSID_clean_sbu_0, # of connection points: 4
#     Node 6, Type 0, BuildingBlock: KOZSID_clean_sbu_0, # of connection points: 4
#     Node 7, Type 0, BuildingBlock: KOZSID_clean_sbu_0, # of connection points: 4
#     Node 8, Type 0, BuildingBlock: KOZSID_clean_sbu_0, # of connection points: 4
#     Node 9, Type 0, BuildingBlock: KOZSID_clean_sbu_0, # of connection points: 4
#     Node 10, Type 0, BuildingBlock: KOZSID_clean_sbu_0, # of connection points: 4
#     Node 11, Type 0, BuildingBlock: KOZSID_clean_sbu_0, # of connection points: 4
#     Edge 12, Type (0, 0), BuildingBlock: UVAHIK_clean_linker_0, # of connection points: 2
#     Edge 13, Type (0, 0), BuildingBlock: UVAHIK_clean_linker_0, # of connection points: 2
#     Edge 14, Type (0, 0), BuildingBlock: UVAHIK_clean_linker_0, # of connection points: 2
#     Edge 15, Type (0, 0), BuildingBlock: UVAHIK_clean_linker_0, # of connection points: 2
#     Edge 16, Type (0, 0), BuildingBlock: UVAHIK_clean_linker_0, # of connection points: 2
#     Edge 17, Type (0, 0), BuildingBlock: UVAHIK_clean_linker_0, # of connection points: 2
#     Edge 18, Type (0, 0), BuildingBlock: UVAHIK_clean_linker_0, # of connection points: 2
#     Edge 19, Type (0, 0), BuildingBlock: UVAHIK_clean_linker_0, # of connection points: 2
#     Edge 20, Type (0, 0), BuildingBlock: UVAHIK_clean_linker_0, # of connection points: 2
#     Edge 21, Type (0, 0), BuildingBlock: UVAHIK_clean_linker_0, # of connection points: 2
#     Edge 22, Type (0, 0), BuildingBlock: UVAHIK_clean_linker_0, # of connection points: 2
#     Edge 23, Type (0, 0), BuildingBlock: UVAHIK_clean_linker_0, # of connection points: 2
#     Edge 24, Type (0, 0), BuildingBlock: UVAHIK_clean_linker_0, # of connection points: 2
#     Edge 25, Type (0, 0), BuildingBlock: UVAHIK_clean_linker_0, # of connection points: 2
#     Edge 26, Type (0, 0), BuildingBlock: UVAHIK_clean_linker_0, # of connection points: 2
#     Edge 27, Type (0, 0), BuildingBlock: UVAHIK_clean_linker_0, # of connection points: 2
#     Edge 28, Type (0, 0), BuildingBlock: UVAHIK_clean_linker_0, # of connection points: 2
#     Edge 29, Type (0, 0), BuildingBlock: UVAHIK_clean_linker_0, # of connection points: 2
#     Edge 30, Type (0, 0), BuildingBlock: UVAHIK_clean_linker_0, # of connection points: 2
#     Edge 31, Type (0, 0), BuildingBlock: UVAHIK_clean_linker_0, # of connection points: 2
#     Edge 32, Type (0, 0), BuildingBlock: UVAHIK_clean_linker_0, # of connection points: 2
#     Edge 33, Type (0, 0), BuildingBlock: UVAHIK_clean_linker_0, # of connection points: 2
#     Edge 34, Type (0, 0), BuildingBlock: UVAHIK_clean_linker_0, # of connection points: 2
#     Edge 35, Type (0, 0), BuildingBlock: UVAHIK_clean_linker_0, # of connection points: 2
# Relax obj value: 0.045
# Max RMSD: 0.148
# Mean RMSD: 0.148
data_MOF--net-umg--node1-KOZSID_clean_sbu_0--edge1-UVAHIK_clean_linker_0
_symmetry_space_group_name_H-M    P1
_symmetry_Int_Tables_number       1
_symmetry_cell_setting            triclinic
loop_
_symmetry_equiv_pos_as_xyz
'x, y, z'
_cell_length_a     48.152683
_cell_length_b     48.218671
_cell_length_c     118.50349
_cell_angle_alpha  89.996589
_cell_angle_beta   90.001402
_cell_angle_gamma 119.96612
loop_
_atom_site_label
_atom_site_type_symbol
_atom_site_fract_x
_atom_site_fract_y
_atom_site_fract_z
_atom_type_partial_charge
C0 C 0.25574 0.51676 0.11752 0.0
C1 C 0.24243 0.49319 0.12573 0.0
C2 C 0.23271 0.46466 0.1204 0.0
C3 C 0.2405 0.47235 0.10926 0.0
N4 N 0.25514 0.50417 0.10719 0.0
Co5 Co 0.26816 0.52573 0.09207 0.0
N6 N 0.24836 0.48354 0.08392 0.0
C7 C 0.23405 0.45405 0.08866 0.0
C8 C 0.22216 0.42964 0.08093 0.0
C9 C 0.22909 0.44437 0.07064 0.0
C10 C 0.24492 0.47706 0.07269 0.0
N11 N 0.28101 0.54747 0.07701 0.0
C12 C 0.27452 0.53497 0.06645 0.0
C13 C 0.28805 0.55872 0.05827 0.0
C14 C 0.30335 0.58722 0.06385 0.0
C15 C 0.2984 0.57932 0.07506 0.0
N16 N 0.28763 0.56786 0.10016 0.0
C17 C 0.30454 0.59736 0.09555 0.0
C18 C 0.31407 0.62179 0.10318 0.0
C19 C 0.30194 0.60707 0.11326 0.0
C20 C 0.28553 0.57437 0.11116 0.0
N21 N 0.30989 0.52579 0.09298 0.0
C22 C 0.36775 0.5236 0.09285 0.0
C23 C 0.36781 0.55215 0.09069 0.0
C24 C 0.33885 0.55265 0.09071 0.0
C25 C 0.33848 0.49656 0.09539 0.0
C26 C 0.31035 0.49827 0.09555 0.0
N27 N 0.2267 0.52527 0.09115 0.0
C28 C 0.19577 0.55164 0.08782 0.0
C29 C 0.16708 0.52355 0.09045 0.0
C30 C 0.16904 0.49641 0.09324 0.0
C31 C 0.19865 0.49783 0.0936 0.0
C32 C 0.22513 0.55195 0.0882 0.0
H33 H 0.19821 0.4763 0.09591 0.0
H34 H 0.24633 0.57398 0.08615 0.0
H35 H 0.34059 0.57499 0.08876 0.0
H36 H 0.28933 0.47675 0.09773 0.0
C37 C 0.23104 0.45018 0.10041 0.0
C38 C 0.26705 0.55058 0.11976 0.0
C39 C 0.25564 0.50097 0.06372 0.0
C40 C 0.30863 0.60132 0.0839 0.0
H41 H 0.23916 0.4962 0.13459 0.0
H42 H 0.22007 0.44101 0.12411 0.0
H43 H 0.20947 0.40415 0.08258 0.0
H44 H 0.22291 0.43244 0.06253 0.0
H45 H 0.28682 0.55577 0.04919 0.0
H46 H 0.31618 0.61092 0.06017 0.0
H47 H 0.32721 0.64728 0.10153 0.0
H48 H 0.30415 0.61905 0.12121 0.0
H49 H 0.38999 0.57383 0.08871 0.0
H50 H 0.33725 0.47402 0.09736 0.0
H51 H 0.19574 0.57343 0.08566 0.0
H52 H 0.1477 0.47378 0.09506 0.0
C53 C 0.74139 0.25018 0.45043 0.0
C54 C 0.75051 0.23576 0.45861 0.0
C55 C 0.76875 0.22529 0.45329 0.0
C56 C 0.76968 0.23383 0.4422 0.0
N57 N 0.75359 0.24963 0.44014 0.0
Co58 Co 0.74659 0.26413 0.42504 0.0
N59 N 0.7699 0.24516 0.41695 0.0
C60 C 0.78502 0.23082 0.42174 0.0
C61 C 0.799 0.22029 0.41406 0.0
C62 C 0.79243 0.22835 0.40376 0.0
C63 C 0.77464 0.2433 0.40574 0.0
N64 N 0.73871 0.2779 0.40997 0.0
C65 C 0.7459 0.27252 0.39942 0.0
C66 C 0.73478 0.28524 0.39123 0.0
C67 C 0.7203 0.29933 0.39679 0.0
C68 C 0.72316 0.29428 0.408 0.0
N69 N 0.7237 0.2835 0.43311 0.0
C70 C 0.71158 0.30083 0.42848 0.0
C71 C 0.69668 0.31051 0.43607 0.0
C72 C 0.69902 0.29828 0.44617 0.0
C73 C 0.71523 0.28172 0.44412 0.0
N74 N 0.78815 0.30557 0.42648 0.0
C75 C 0.84855 0.36328 0.42723 0.0
C76 C 0.82066 0.36312 0.42368 0.0
C77 C 0.79109 0.33434 0.42335 0.0
C78 C 0.8452 0.33392 0.43056 0.0
C79 C 0.81526 0.30596 0.43025 0.0
N80 N 0.70558 0.2228 0.42358 0.0
C81 C 0.64815 0.19239 0.42039 0.0
C82 C 0.648 0.16344 0.42169 0.0
C83 C 0.67708 0.16485 0.42401 0.0
C84 C 0.70516 0.19439 0.425 0.0
C85 C 0.67709 0.22164 0.42125 0.0
H86 H 0.72626 0.19354 0.42699 0.0
H87 H 0.67599 0.24304 0.42 0.0
H88 H 0.77103 0.33601 0.42046 0.0
H89 H 0.81496 0.28491 0.433 0.0
C90 C 0.78389 0.22584 0.43342 0.0
C91 C 0.72044 0.26331 0.45277 0.0
C92 C 0.7629 0.25537 0.3967 0.0
C93 C 0.71145 0.30458 0.41683 0.0
H94 H 0.74413 0.23266 0.46747 0.0
H95 H 0.77932 0.21221 0.45701 0.0
H96 H 0.81199 0.20778 0.41575 0.0
H97 H 0.79972 0.22361 0.39568 0.0
H98 H 0.73675 0.28432 0.38216 0.0
H99 H 0.70885 0.31161 0.39311 0.0
H100 H 0.68443 0.32375 0.43439 0.0
H101 H 0.68906 0.30049 0.45408 0.0
H102 H 0.82142 0.3851 0.42121 0.0
H103 H 0.86572 0.33207 0.43321 0.0
H104 H 0.62615 0.19247 0.41855 0.0
H105 H 0.67814 0.14314 0.42528 0.0
C106 C 0.49647 0.74013 0.78401 0.0
C107 C 0.52006 0.75033 0.79224 0.0
C108 C 0.54864 0.76916 0.78692 0.0
C109 C 0.54098 0.76932 0.77578 0.0
N110 N 0.50912 0.75218 0.7737 0.0
Co111 Co 0.48759 0.7437 0.75856 0.0
N112 N 0.52986 0.76623 0.75044 0.0
C113 C 0.55936 0.78147 0.75519 0.0
C114 C 0.58385 0.79416 0.74747 0.0
C115 C 0.56914 0.78642 0.73717 0.0
C116 C 0.53641 0.76943 0.73921 0.0
N117 N 0.46588 0.73482 0.74349 0.0
C118 C 0.47844 0.74093 0.73293 0.0
C119 C 0.45468 0.7306 0.72474 0.0
C120 C 0.42611 0.71726 0.73031 0.0
C121 C 0.43398 0.72022 0.74152 0.0
N122 N 0.44537 0.72096 0.76664 0.0
C123 C 0.41585 0.70839 0.76201 0.0
C124 C 0.39135 0.69347 0.76963 0.0
C125 C 0.40606 0.69606 0.77972 0.0
C126 C 0.43881 0.71236 0.77763 0.0
N127 N 0.48741 0.78528 0.75949 0.0
C128 C 0.48946 0.84523 0.75941 0.0
C129 C 0.46099 0.81676 0.75714 0.0
C130 C 0.46055 0.78735 0.75714 0.0
C131 C 0.51651 0.84301 0.76204 0.0
C132 C 0.51487 0.81323 0.76217 0.0
N133 N 0.48817 0.70279 0.75762 0.0
C134 C 0.46181 0.6455 0.75439 0.0
C135 C 0.49002 0.64498 0.75695 0.0
C136 C 0.51722 0.67414 0.75965 0.0
C137 C 0.51573 0.70227 0.76001 0.0
C138 C 0.46144 0.67448 0.75475 0.0
H139 H 0.53731 0.72339 0.76226 0.0
H140 H 0.43931 0.67357 0.75275 0.0
H141 H 0.43827 0.76678 0.75509 0.0
H142 H 0.53638 0.81374 0.76441 0.0
C143 C 0.5632 0.78219 0.76694 0.0
C144 C 0.4626 0.71766 0.78624 0.0
C145 C 0.51251 0.75627 0.73022 0.0
C146 C 0.41193 0.70845 0.75036 0.0
H147 H 0.51702 0.74402 0.80109 0.0
H148 H 0.57232 0.78017 0.79064 0.0
H149 H 0.60936 0.80703 0.74914 0.0
H150 H 0.58113 0.7923 0.72907 0.0
H151 H 0.45767 0.73237 0.71567 0.0
H152 H 0.40239 0.70632 0.72662 0.0
H153 H 0.36584 0.68111 0.76797 0.0
H154 H 0.39403 0.68627 0.78766 0.0
H155 H 0.4393 0.81722 0.75509 0.0
H156 H 0.53899 0.86428 0.76409 0.0
H157 H 0.43996 0.62365 0.75229 0.0
H158 H 0.53995 0.67552 0.76142 0.0
C159 C 0.76371 0.49297 0.11704 0.0
C160 C 0.77886 0.51676 0.1251 0.0
C161 C 0.7889 0.54527 0.11972 0.0
C162 C 0.77951 0.53735 0.1087 0.0
N163 N 0.76351 0.50543 0.10676 0.0
Co164 Co 0.74841 0.48359 0.09175 0.0
N165 N 0.76684 0.52559 0.08354 0.0
C166 C 0.7811 0.55511 0.08824 0.0
C167 C 0.79107 0.57939 0.0805 0.0
C168 C 0.78266 0.56451 0.07024 0.0
C169 C 0.76808 0.53189 0.07232 0.0
N170 N 0.73425 0.46157 0.07676 0.0
C171 C 0.73922 0.47387 0.06618 0.0
C172 C 0.72631 0.44988 0.05806 0.0
C173 C 0.71258 0.42146 0.0637 0.0
C174 C 0.71799 0.42963 0.07488 0.0
N175 N 0.72936 0.44162 0.09994 0.0
C176 C 0.7115 0.4121 0.09543 0.0
C177 C 0.70175 0.38778 0.10313 0.0
C178 C 0.71458 0.4026 0.11314 0.0
C179 C 0.73167 0.43523 0.11093 0.0
N180 N 0.70692 0.48358 0.09334 0.0
C181 C 0.64924 0.48633 0.09419 0.0
C182 C 0.64941 0.45888 0.09037 0.0
C183 C 0.67818 0.45805 0.09 0.0
C184 C 0.67852 0.51199 0.09777 0.0
C185 C 0.70648 0.50998 0.0974 0.0
N186 N 0.78977 0.48402 0.09013 0.0
C187 C 0.82017 0.4569 0.08723 0.0
C188 C 0.84915 0.48583 0.08818 0.0
C189 C 0.84778 0.51364 0.09016 0.0
C190 C 0.81823 0.51218 0.09118 0.0
C191 C 0.79089 0.45658 0.0881 0.0
H192 H 0.81909 0.53424 0.09291 0.0
H193 H 0.76944 0.43395 0.08714 0.0
H194 H 0.67653 0.43656 0.08689 0.0
H195 H 0.72751 0.53047 0.10034 0.0
C196 C 0.7868 0.55926 0.09988 0.0
C197 C 0.7511 0.45899 0.1194 0.0
C198 C 0.75584 0.50789 0.06337 0.0
C199 C 0.70763 0.40788 0.0838 0.0
H200 H 0.78288 0.51384 0.13389 0.0
H201 H 0.80234 0.569 0.12333 0.0
H202 H 0.80349 0.60489 0.08211 0.0
H203 H 0.78697 0.57631 0.06214 0.0
H204 H 0.72675 0.4526 0.04899 0.0
H205 H 0.70013 0.39767 0.06009 0.0
H206 H 0.68813 0.36227 0.10156 0.0
H207 H 0.71244 0.39068 0.1211 0.0
H208 H 0.62746 0.43792 0.0877 0.0
H209 H 0.68031 0.53412 0.10066 0.0
H210 H 0.82008 0.43473 0.08566 0.0
H211 H 0.86955 0.53652 0.09113 0.0
C212 C 0.27213 0.75687 0.45071 0.0
C213 C 0.26212 0.77038 0.45895 0.0
C214 C 0.24361 0.78053 0.45363 0.0
C215 C 0.24342 0.77277 0.44248 0.0
N216 N 0.26025 0.75773 0.44039 0.0
Co217 Co 0.26857 0.74462 0.42523 0.0
N218 N 0.24563 0.764 0.41715 0.0
C219 C 0.23035 0.77818 0.42194 0.0
C220 C 0.2168 0.78916 0.41426 0.0
C221 C 0.22381 0.78155 0.40394 0.0
C222 C 0.24135 0.76635 0.40594 0.0
N223 N 0.27746 0.7319 0.41014 0.0
C224 C 0.27042 0.73749 0.39959 0.0
C225 C 0.28159 0.7249 0.39138 0.0
C226 C 0.29604 0.71073 0.39692 0.0
C227 C 0.29301 0.71553 0.40814 0.0
N228 N 0.29144 0.72521 0.43328 0.0
C229 C 0.30417 0.70846 0.42862 0.0
C230 C 0.31893 0.69866 0.43622 0.0
C231 C 0.31602 0.71036 0.44635 0.0
C232 C 0.29971 0.72682 0.4443 0.0
N233 N 0.22711 0.70288 0.4262 0.0
C234 C 0.16711 0.6451 0.42602 0.0
C235 C 0.19549 0.64526 0.42334 0.0
C236 C 0.22494 0.6742 0.4234 0.0
C237 C 0.16947 0.6741 0.42911 0.0
C238 C 0.1993 0.70219 0.42928 0.0
N239 N 0.30947 0.78621 0.42426 0.0
C240 C 0.36696 0.81731 0.42128 0.0
C241 C 0.36721 0.84599 0.42358 0.0
C242 C 0.33783 0.84393 0.42602 0.0
C243 C 0.30974 0.81426 0.42638 0.0
C244 C 0.33802 0.7879 0.42163 0.0
H245 H 0.28848 0.8147 0.42844 0.0
H246 H 0.33921 0.76677 0.41983 0.0
H247 H 0.24551 0.67276 0.42101 0.0
H248 H 0.19898 0.72304 0.43188 0.0
C249 C 0.23015 0.78175 0.43367 0.0
C250 C 0.29415 0.74493 0.45297 0.0
C251 C 0.2532 0.7544 0.3969 0.0
C252 C 0.30464 0.70508 0.41695 0.0
H253 H 0.26829 0.77337 0.46782 0.0
H254 H 0.23264 0.79321 0.45737 0.0
H255 H 0.20362 0.80147 0.41595 0.0
H256 H 0.21689 0.78666 0.39586 0.0
H257 H 0.27953 0.72586 0.38232 0.0
H258 H 0.30749 0.69848 0.39321 0.0
H259 H 0.33143 0.68566 0.43453 0.0
H260 H 0.32564 0.70787 0.4543 0.0
H261 H 0.1949 0.62331 0.42093 0.0
H262 H 0.14828 0.67514 0.43149 0.0
H263 H 0.38899 0.81738 0.41939 0.0
H264 H 0.33623 0.86522 0.42758 0.0
C265 C 0.51921 0.27125 0.78386 0.0
C266 C 0.49551 0.26249 0.79198 0.0
C267 C 0.46689 0.24383 0.78666 0.0
C268 C 0.47466 0.24237 0.77562 0.0
N269 N 0.50658 0.25847 0.77361 0.0
Co270 Co 0.52824 0.26537 0.75855 0.0
N271 N 0.48607 0.24211 0.75041 0.0
C272 C 0.45657 0.22667 0.75516 0.0
C273 C 0.43216 0.21313 0.74742 0.0
C274 C 0.44692 0.22048 0.73713 0.0
C275 C 0.47962 0.23815 0.73918 0.0
N276 N 0.55007 0.27335 0.74353 0.0
C277 C 0.5376 0.26709 0.73296 0.0
C278 C 0.56144 0.27746 0.7248 0.0
C279 C 0.58998 0.29106 0.73039 0.0
C280 C 0.582 0.28824 0.74159 0.0
N281 N 0.57037 0.28813 0.76666 0.0
C282 C 0.59986 0.29957 0.76212 0.0
C283 C 0.62432 0.31422 0.76977 0.0
C284 C 0.60964 0.31252 0.77979 0.0
C285 C 0.57693 0.29704 0.77763 0.0
N286 N 0.52811 0.22376 0.76003 0.0
C287 C 0.52525 0.16326 0.7608 0.0
C288 C 0.55283 0.19093 0.75708 0.0
C289 C 0.5537 0.22053 0.75674 0.0
C290 C 0.4995 0.16687 0.76432 0.0
C291 C 0.50157 0.19685 0.76399 0.0
N292 N 0.52793 0.30632 0.75706 0.0
C293 C 0.5551 0.3637 0.75397 0.0
C294 C 0.52625 0.36391 0.75514 0.0
C295 C 0.49847 0.33487 0.75734 0.0
C296 C 0.49986 0.30676 0.75834 0.0
C297 C 0.55535 0.33474 0.75483 0.0
H298 H 0.47785 0.28564 0.76022 0.0
H299 H 0.57789 0.33572 0.75368 0.0
H300 H 0.57534 0.24034 0.75372 0.0
H301 H 0.48101 0.1973 0.7669 0.0
C302 C 0.45258 0.22793 0.76682 0.0
C303 C 0.55326 0.29288 0.78613 0.0
C304 C 0.50355 0.25155 0.73021 0.0
C305 C 0.60393 0.29961 0.75047 0.0
H306 H 0.49854 0.26951 0.80076 0.0
H307 H 0.44318 0.23349 0.79032 0.0
H308 H 0.40663 0.2003 0.74906 0.0
H309 H 0.43499 0.21408 0.72902 0.0
H310 H 0.55851 0.27552 0.71572 0.0
H311 H 0.61373 0.30196 0.72673 0.0
H312 H 0.64984 0.32596 0.76816 0.0
H313 H 0.62168 0.3224 0.78772 0.0
H314 H 0.57388 0.18999 0.75446 0.0
H315 H 0.47725 0.14652 0.76713 0.0
H316 H 0.57725 0.38566 0.75223 0.0
H317 H 0.47566 0.33386 0.75849 0.0
C318 C 0.49602 0.75772 0.55589 0.0
C319 C 0.51953 0.77138 0.54766 0.0
C320 C 0.54823 0.78179 0.55299 0.0
C321 C 0.54065 0.77395 0.56413 0.0
N322 N 0.50877 0.75867 0.56622 0.0
Co323 Co 0.48728 0.74507 0.58135 0.0
N324 N 0.5296 0.76438 0.58944 0.0
C325 C 0.55909 0.77883 0.58466 0.0
C326 C 0.5836 0.78969 0.59235 0.0
C327 C 0.56895 0.78172 0.60266 0.0
C328 C 0.53621 0.76644 0.60066 0.0
N329 N 0.46564 0.7319 0.59644 0.0
C330 C 0.47825 0.73722 0.60698 0.0
C331 C 0.45447 0.72441 0.61518 0.0
C332 C 0.42586 0.71037 0.60963 0.0
C333 C 0.43372 0.71547 0.59843 0.0
N334 N 0.445 0.72568 0.57329 0.0
C335 C 0.41551 0.70888 0.57795 0.0
C336 C 0.39094 0.69924 0.57036 0.0
C337 C 0.40554 0.71101 0.56024 0.0
C338 C 0.43833 0.72727 0.56227 0.0
N339 N 0.48715 0.70345 0.5802 0.0
C340 C 0.48916 0.64539 0.57947 0.0
C341 C 0.4612 0.64569 0.5826 0.0
C342 C 0.46076 0.67466 0.58294 0.0
C343 C 0.51583 0.67482 0.57663 0.0
C344 C 0.5142 0.70295 0.57692 0.0
N345 N 0.4878 0.78656 0.58249 0.0
C346 C 0.46115 0.81742 0.58545 0.0
C347 C 0.48952 0.84618 0.58316 0.0
C348 C 0.51697 0.8443 0.58078 0.0
C349 C 0.51555 0.81472 0.58043 0.0
C350 C 0.46084 0.78809 0.5851 0.0
H351 H 0.53733 0.81531 0.57841 0.0
H352 H 0.43855 0.76689 0.58687 0.0
H353 H 0.43882 0.67312 0.5855 0.0
H354 H 0.53547 0.72402 0.57454 0.0
C355 C 0.5629 0.78278 0.57294 0.0
C356 C 0.462 0.74519 0.55358 0.0
C357 C 0.51238 0.75413 0.60968 0.0
C358 C 0.41166 0.70524 0.58961 0.0
H359 H 0.51626 0.77415 0.53878 0.0
H360 H 0.57187 0.79454 0.54925 0.0
H361 H 0.6091 0.80216 0.59067 0.0
H362 H 0.58097 0.78664 0.61074 0.0
H363 H 0.45745 0.72515 0.62425 0.0
H364 H 0.40214 0.69802 0.61333 0.0
H365 H 0.36544 0.68629 0.57206 0.0
H366 H 0.39342 0.70868 0.5523 0.0
H367 H 0.43953 0.62369 0.58473 0.0
H368 H 0.53842 0.67657 0.57436 0.0
H369 H 0.43911 0.81737 0.58731 0.0
H370 H 0.53982 0.86567 0.57925 0.0
C371 C 0.74411 0.49262 0.88901 0.0
C372 C 0.7546 0.51618 0.88078 0.0
C373 C 0.77347 0.5447 0.88612 0.0
C374 C 0.77339 0.53702 0.89727 0.0
N375 N 0.75603 0.50521 0.89934 0.0
Co376 Co 0.74732 0.48366 0.91447 0.0
N377 N 0.76953 0.52585 0.92261 0.0
C378 C 0.78459 0.55534 0.91788 0.0
C379 C 0.79688 0.57976 0.92561 0.0
C380 C 0.78903 0.56503 0.9359 0.0
C381 C 0.77239 0.53234 0.93384 0.0
N382 N 0.73841 0.46193 0.92953 0.0
C383 C 0.74437 0.47443 0.94009 0.0
C384 C 0.7343 0.45069 0.94826 0.0
C385 C 0.72125 0.42219 0.94268 0.0
C386 C 0.72414 0.43009 0.93147 0.0
N387 N 0.72467 0.44153 0.90637 0.0
C388 C 0.71197 0.41203 0.91099 0.0
C389 C 0.69697 0.38759 0.90336 0.0
C390 C 0.69961 0.40232 0.89328 0.0
C391 C 0.71603 0.43503 0.89538 0.0
N392 N 0.78903 0.48365 0.9136 0.0
C393 C 0.84905 0.48576 0.91373 0.0
C394 C 0.82047 0.45708 0.91562 0.0
C395 C 0.79102 0.45662 0.91561 0.0
C396 C 0.84695 0.51301 0.91147 0.0
C397 C 0.81714 0.51136 0.91131 0.0
N398 N 0.70629 0.48406 0.91534 0.0
C399 C 0.64906 0.45777 0.91881 0.0
C400 C 0.64836 0.48572 0.91602 0.0
C401 C 0.67738 0.51275 0.91307 0.0
C402 C 0.70558 0.51135 0.91272 0.0
C403 C 0.67812 0.45749 0.91843 0.0
H404 H 0.72661 0.53278 0.91028 0.0
H405 H 0.67737 0.43557 0.92061 0.0
H406 H 0.77034 0.43414 0.91736 0.0
H407 H 0.81777 0.53306 0.90934 0.0
C408 C 0.78581 0.5592 0.90612 0.0
C409 C 0.72146 0.45883 0.88677 0.0
C410 C 0.75926 0.5084 0.94282 0.0
C411 C 0.71227 0.40808 0.92264 0.0
H412 H 0.74842 0.51318 0.87191 0.0
H413 H 0.78458 0.56835 0.8824 0.0
H414 H 0.80962 0.60525 0.92396 0.0
H415 H 0.79463 0.57696 0.94401 0.0
H416 H 0.73599 0.45363 0.95734 0.0
H417 H 0.71048 0.39851 0.94636 0.0
H418 H 0.68458 0.3621 0.90501 0.0
H419 H 0.6898 0.39035 0.88533 0.0
H420 H 0.82085 0.43523 0.91739 0.0
H421 H 0.86835 0.53568 0.90971 0.0
H422 H 0.6273 0.43607 0.9211 0.0
H423 H 0.6786 0.53527 0.91112 0.0
C424 C 0.25264 0.73813 0.22273 0.0
C425 C 0.23777 0.74693 0.2146 0.0
C426 C 0.22776 0.76555 0.21992 0.0
C427 C 0.23691 0.76695 0.23096 0.0
N428 N 0.25271 0.75084 0.23298 0.0
Co429 Co 0.26744 0.74394 0.24805 0.0
N430 N 0.24845 0.76713 0.25618 0.0
C431 C 0.23427 0.78245 0.25144 0.0
C432 C 0.22333 0.79593 0.25916 0.0
C433 C 0.23084 0.78868 0.26946 0.0
C434 C 0.24596 0.77111 0.26741 0.0
N435 N 0.28133 0.73602 0.26308 0.0
C436 C 0.27518 0.74236 0.27364 0.0
C437 C 0.2887 0.73206 0.28181 0.0
C438 C 0.30364 0.71845 0.27621 0.0
C439 C 0.29843 0.7212 0.26501 0.0
N440 N 0.28684 0.7212 0.23994 0.0
C441 C 0.30483 0.70971 0.2445 0.0
C442 C 0.31464 0.69505 0.23685 0.0
C443 C 0.3017 0.69677 0.22683 0.0
C444 C 0.2845 0.71229 0.22898 0.0
N445 N 0.3089 0.78558 0.24657 0.0
C446 C 0.36654 0.84608 0.24579 0.0
C447 C 0.36651 0.81836 0.2494 0.0
C448 C 0.33778 0.78876 0.24976 0.0
C449 C 0.33711 0.84252 0.24238 0.0
C450 C 0.3092 0.81254 0.24271 0.0
N451 N 0.2262 0.70296 0.24954 0.0
C452 C 0.19604 0.64562 0.25271 0.0
C453 C 0.16697 0.64533 0.25146 0.0
C454 C 0.16819 0.67431 0.24919 0.0
C455 C 0.19768 0.70244 0.24818 0.0
C456 C 0.22524 0.6746 0.25184 0.0
H457 H 0.19676 0.72351 0.24624 0.0
H458 H 0.2468 0.67367 0.25304 0.0
H459 H 0.33965 0.76891 0.2527 0.0
H460 H 0.28813 0.81212 0.23989 0.0
C461 C 0.22911 0.78126 0.23976 0.0
C462 C 0.26506 0.71651 0.22046 0.0
C463 C 0.25666 0.75788 0.27639 0.0
C464 C 0.30893 0.70976 0.25614 0.0
H465 H 0.23384 0.73996 0.20581 0.0
H466 H 0.2144 0.77589 0.21625 0.0
H467 H 0.21059 0.80871 0.25752 0.0
H468 H 0.22532 0.79509 0.27757 0.0
H469 H 0.28775 0.73404 0.29088 0.0
H470 H 0.31652 0.70759 0.27988 0.0
H471 H 0.3284 0.6833 0.23847 0.0
H472 H 0.30387 0.68689 0.2189 0.0
H473 H 0.38855 0.81926 0.25193 0.0
H474 H 0.33516 0.86291 0.23966 0.0
H475 H 0.19625 0.6237 0.25451 0.0
H476 H 0.14637 0.67525 0.24799 0.0
C477 C 0.51909 0.25047 0.55592 0.0
C478 C 0.49539 0.23605 0.54779 0.0
C479 C 0.46679 0.22583 0.55315 0.0
C480 C 0.47457 0.23444 0.56423 0.0
N481 N 0.5065 0.25008 0.56624 0.0
Co482 Co 0.5282 0.26431 0.58131 0.0
N483 N 0.48604 0.24535 0.58948 0.0
C484 C 0.4565 0.23106 0.58475 0.0
C485 C 0.43211 0.22057 0.59247 0.0
C486 C 0.4469 0.22864 0.60275 0.0
C487 C 0.4796 0.24357 0.6007 0.0
N488 N 0.55009 0.27785 0.59635 0.0
C489 C 0.53765 0.27256 0.60692 0.0
C490 C 0.56157 0.28537 0.61507 0.0
C491 C 0.59009 0.29936 0.60947 0.0
C492 C 0.58205 0.29422 0.59827 0.0
N493 N 0.57034 0.28362 0.57318 0.0
C494 C 0.59987 0.30101 0.57775 0.0
C495 C 0.62432 0.31084 0.57009 0.0
C496 C 0.60958 0.29855 0.56002 0.0
C497 C 0.57685 0.2817 0.56217 0.0
N498 N 0.52819 0.30583 0.58003 0.0
C499 C 0.52518 0.36317 0.58004 0.0
C500 C 0.55328 0.36327 0.58312 0.0
C501 C 0.55419 0.33456 0.58313 0.0
C502 C 0.49913 0.33416 0.57659 0.0
C503 C 0.50127 0.30629 0.5765 0.0
N504 N 0.52777 0.22291 0.58265 0.0
C505 C 0.55467 0.19237 0.58577 0.0
C506 C 0.52581 0.16346 0.58448 0.0
C507 C 0.49818 0.16497 0.58217 0.0
C508 C 0.49972 0.19454 0.58121 0.0
C509 C 0.55506 0.22166 0.58494 0.0
H510 H 0.47781 0.19378 0.57924 0.0
H511 H 0.57761 0.24303 0.58618 0.0
H512 H 0.57605 0.33619 0.58583 0.0
H513 H 0.48056 0.28539 0.57363 0.0
C514 C 0.4525 0.22632 0.57306 0.0
C515 C 0.55312 0.26294 0.55359 0.0
C516 C 0.50356 0.2557 0.60968 0.0
C517 C 0.60395 0.30465 0.5894 0.0
H518 H 0.49844 0.2326 0.53895 0.0
H519 H 0.44307 0.21271 0.54949 0.0
H520 H 0.40658 0.20814 0.59084 0.0
H521 H 0.43501 0.22393 0.61086 0.0
H522 H 0.55873 0.28469 0.62414 0.0
H523 H 0.61387 0.31177 0.61312 0.0
H524 H 0.64985 0.32422 0.57171 0.0
H525 H 0.62159 0.30091 0.55206 0.0
H526 H 0.57421 0.38524 0.58582 0.0
H527 H 0.47706 0.33295 0.57388 0.0
H528 H 0.57672 0.19238 0.58759 0.0
H529 H 0.47537 0.14329 0.58091 0.0
C530 C 0.27578 0.51642 0.8895 0.0
C531 C 0.26721 0.49265 0.88144 0.0
C532 C 0.24872 0.46412 0.88682 0.0
C533 C 0.24717 0.47203 0.89782 0.0
N534 N 0.26304 0.50395 0.89977 0.0
Co535 Co 0.26973 0.52577 0.91478 0.0
N536 N 0.24609 0.48376 0.92298 0.0
C537 C 0.23075 0.45425 0.91827 0.0
C538 C 0.21638 0.42996 0.926 0.0
C539 C 0.22287 0.44482 0.93627 0.0
C540 C 0.241 0.47744 0.9342 0.0
N541 N 0.27759 0.54776 0.92978 0.0
C542 C 0.27027 0.53545 0.94036 0.0
C543 C 0.28138 0.55942 0.94848 0.0
C544 C 0.29608 0.58785 0.94284 0.0
C545 C 0.29331 0.5797 0.93166 0.0
N546 N 0.29267 0.56774 0.9066 0.0
C547 C 0.30426 0.59725 0.91111 0.0
C548 C 0.31883 0.62158 0.90342 0.0
C549 C 0.31689 0.60679 0.89341 0.0
C550 C 0.30138 0.57415 0.89562 0.0
N551 N 0.22826 0.52579 0.91318 0.0
C552 C 0.1678 0.52298 0.91233 0.0
C553 C 0.19536 0.55034 0.91625 0.0
C554 C 0.22497 0.55119 0.91662 0.0
C555 C 0.1715 0.49746 0.90864 0.0
C556 C 0.20148 0.49949 0.90901 0.0
N557 N 0.31065 0.52532 0.91641 0.0
C558 C 0.3682 0.55246 0.91925 0.0
C559 C 0.36821 0.52351 0.91836 0.0
C560 C 0.339 0.49567 0.91645 0.0
C561 C 0.3109 0.49713 0.91542 0.0
C562 C 0.33925 0.55279 0.91838 0.0
H563 H 0.28967 0.47504 0.91375 0.0
H564 H 0.34045 0.57544 0.9193 0.0
H565 H 0.24477 0.57261 0.9198 0.0
H566 H 0.20208 0.4791 0.906 0.0
C567 C 0.23242 0.45012 0.90664 0.0
C568 C 0.29713 0.55042 0.88714 0.0
C569 C 0.25285 0.50142 0.94316 0.0
C570 C 0.30466 0.60146 0.92275 0.0
H571 H 0.2742 0.49558 0.87265 0.0
H572 H 0.23844 0.4404 0.8832 0.0
H573 H 0.20327 0.40446 0.92439 0.0
H574 H 0.21537 0.43301 0.94437 0.0
H575 H 0.27909 0.55668 0.95755 0.0
H576 H 0.30743 0.61163 0.94646 0.0
H577 H 0.33069 0.64709 0.90499 0.0
H578 H 0.32668 0.61872 0.88545 0.0
H579 H 0.19431 0.57119 0.919 0.0
H580 H 0.1512 0.47541 0.90567 0.0
H581 H 0.39032 0.57465 0.92077 0.0
H582 H 0.33785 0.47276 0.91553 0.0
C583 C 0.76103 0.2695 0.22251 0.0
C584 C 0.77455 0.2595 0.21427 0.0
C585 C 0.78435 0.24067 0.21955 0.0
C586 C 0.77641 0.24031 0.23068 0.0
N587 N 0.76158 0.25731 0.2328 0.0
Co588 Co 0.74844 0.26556 0.24796 0.0
N589 N 0.76796 0.24274 0.25603 0.0
C590 C 0.78216 0.22749 0.25123 0.0
C591 C 0.79372 0.21449 0.25891 0.0
C592 C 0.78662 0.22197 0.26923 0.0
C593 C 0.77101 0.23911 0.26725 0.0
N594 N 0.73564 0.27431 0.26306 0.0
C595 C 0.74184 0.26786 0.2736 0.0
C596 C 0.72833 0.27806 0.28181 0.0
C597 C 0.7134 0.29175 0.27627 0.0
C598 C 0.71851 0.28907 0.26506 0.0
N599 N 0.72905 0.28845 0.23993 0.0
C600 C 0.71209 0.30096 0.24459 0.0
C601 C 0.70248 0.31591 0.237 0.0
C602 C 0.71457 0.3134 0.2269 0.0
C603 C 0.73105 0.29712 0.22895 0.0
N604 N 0.70664 0.22407 0.24697 0.0
C605 C 0.64876 0.16412 0.24704 0.0
C606 C 0.64881 0.19251 0.24953 0.0
C607 C 0.67779 0.22192 0.24952 0.0
C608 C 0.67792 0.16643 0.24419 0.0
C609 C 0.70606 0.19622 0.24407 0.0
N610 N 0.79 0.3064 0.24896 0.0
C611 C 0.82098 0.36371 0.25214 0.0
C612 C 0.84972 0.36415 0.24967 0.0
C613 C 0.84774 0.33494 0.24706 0.0
C614 C 0.81809 0.30684 0.24669 0.0
C615 C 0.7916 0.33476 0.25177 0.0
H616 H 0.81854 0.28568 0.2445 0.0
H617 H 0.77038 0.33574 0.2537 0.0
H618 H 0.67616 0.24244 0.25173 0.0
H619 H 0.727 0.19581 0.24164 0.0
C620 C 0.78554 0.22714 0.23949 0.0
C621 C 0.74953 0.2919 0.22031 0.0
C622 C 0.76019 0.25208 0.27629 0.0
C623 C 0.7082 0.30089 0.25625 0.0
H624 H 0.77786 0.26593 0.20542 0.0
H625 H 0.79706 0.22974 0.2158 0.0
H626 H 0.80632 0.2016 0.25721 0.0
H627 H 0.7926 0.21583 0.27731 0.0
H628 H 0.72919 0.27588 0.29087 0.0
H629 H 0.70057 0.3026 0.27998 0.0
H630 H 0.68933 0.32826 0.23869 0.0
H631 H 0.71229 0.32323 0.21897 0.0
H632 H 0.62673 0.19197 0.25175 0.0
H633 H 0.67907 0.14523 0.24196 0.0
H634 H 0.82099 0.38561 0.25417 0.0
H635 H 0.86909 0.3335 0.24538 0.0
C636 C 0.26658 0.48385 0.9612 0.0
C637 C 0.24634 0.49173 0.95522 0.0
C638 C 0.26339 0.47935 0.97292 0.0
C639 C 0.23369 0.50353 0.99761 0.0
H640 H 0.24765 0.44144 0.01363 0.0
C641 C 0.22445 0.49429 0.04606 0.0
C642 C 0.24841 0.49127 0.05168 0.0
C643 C 0.22066 0.48989 0.03437 0.0
C644 C 0.24391 0.45906 0.00929 0.0
H645 H 0.20639 0.50013 0.95653 0.0
H646 H 0.20028 0.49176 0.97698 0.0
H647 H 0.24731 0.44156 0.99301 0.0
H648 H 0.28684 0.48079 0.0497 0.0
H649 H 0.28054 0.47325 0.02922 0.0
H650 H 0.23095 0.52152 0.01381 0.0
C651 C 0.21891 0.48943 0.97272 0.0
C652 C 0.24369 0.45912 0.99746 0.0
C653 C 0.22212 0.4939 0.96102 0.0
C654 C 0.26792 0.48279 0.04551 0.0
C655 C 0.26422 0.47846 0.0338 0.0
C656 C 0.23396 0.5035 0.00941 0.0
C657 C 0.23996 0.48279 0.97886 0.0
C658 C 0.23872 0.48147 0.99146 0.0
C659 C 0.24098 0.48263 0.02803 0.0
C660 C 0.23921 0.48139 0.01543 0.0
H661 H 0.28563 0.48242 0.95687 0.0
H662 H 0.28021 0.47458 0.97736 0.0
H663 H 0.23046 0.52153 0.99331 0.0
H664 H 0.20932 0.50106 0.05068 0.0
H665 H 0.20217 0.49278 0.03026 0.0
C666 C 0.74923 0.2213 0.37933 0.0
C667 C 0.76843 0.25084 0.38465 0.0
C668 C 0.75144 0.21821 0.36766 0.0
C669 C 0.80179 0.25869 0.34233 0.0
H670 H 0.72096 0.21226 0.32638 0.0
C671 C 0.78839 0.27495 0.2946 0.0
C672 C 0.76638 0.24827 0.28834 0.0
C673 C 0.79115 0.27258 0.30628 0.0
C674 C 0.74383 0.22487 0.33068 0.0
H675 H 0.80559 0.3 0.38218 0.0
H676 H 0.80946 0.2949 0.36178 0.0
H677 H 0.7214 0.2128 0.34691 0.0
H678 H 0.73051 0.19811 0.28917 0.0
H679 H 0.73552 0.19362 0.30959 0.0
H680 H 0.82411 0.27136 0.32605 0.0
C681 C 0.79295 0.27391 0.36656 0.0
C682 C 0.74409 0.22517 0.34249 0.0
C683 C 0.79074 0.27694 0.37822 0.0
C684 C 0.74781 0.2189 0.29386 0.0
C685 C 0.7505 0.21649 0.30554 0.0
C686 C 0.80153 0.25843 0.33051 0.0
C687 C 0.77288 0.24466 0.36107 0.0
C688 C 0.77303 0.24239 0.34849 0.0
C689 C 0.7718 0.24346 0.31194 0.0
C690 C 0.7725 0.24182 0.32452 0.0
H691 H 0.73182 0.20091 0.38416 0.0
H692 H 0.73597 0.19521 0.36377 0.0
H693 H 0.82458 0.2718 0.34665 0.0
H694 H 0.80265 0.29791 0.2905 0.0
H695 H 0.80749 0.29393 0.31092 0.0
C696 C 0.53026 0.78688 0.71204 0.0
C697 C 0.52231 0.75902 0.71818 0.0
C698 C 0.5347 0.78771 0.70033 0.0
C699 C 0.51086 0.73277 0.67587 0.0
H700 H 0.57183 0.80877 0.65957 0.0
C701 C 0.52086 0.73138 0.62747 0.0
C702 C 0.52234 0.75749 0.62172 0.0
C703 C 0.52537 0.73261 0.63917 0.0
C704 C 0.55455 0.78739 0.664 0.0
H705 H 0.51355 0.71057 0.71714 0.0
H706 H 0.52203 0.71205 0.69672 0.0
H707 H 0.57181 0.80901 0.6802 0.0
H708 H 0.53045 0.80558 0.62345 0.0
H709 H 0.53838 0.80796 0.64394 0.0
H710 H 0.49325 0.71126 0.65974 0.0
C711 C 0.52441 0.73317 0.70085 0.0
C712 C 0.55452 0.78753 0.67583 0.0
C713 C 0.51991 0.73236 0.71254 0.0
C714 C 0.52958 0.78533 0.62775 0.0
C715 C 0.53413 0.78662 0.63946 0.0
C716 C 0.51093 0.73261 0.66407 0.0
C717 C 0.53116 0.76061 0.69454 0.0
C718 C 0.53253 0.76025 0.68194 0.0
C719 C 0.53135 0.75999 0.64536 0.0
C720 C 0.53263 0.75996 0.65796 0.0
H721 H 0.53177 0.80753 0.71625 0.0
H722 H 0.53949 0.80912 0.69578 0.0
H723 H 0.4931 0.71153 0.68024 0.0
H724 H 0.51509 0.70961 0.62296 0.0
H725 H 0.52355 0.71185 0.64339 0.0
C726 C 0.73248 0.51516 0.0455 0.0
C727 C 0.75897 0.51756 0.0513 0.0
C728 C 0.73372 0.51964 0.03381 0.0
C729 C 0.78882 0.55035 0.00907 0.0
H730 H 0.71394 0.48749 0.99272 0.0
C731 C 0.78967 0.52683 0.96102 0.0
C732 C 0.76163 0.51809 0.95485 0.0
C733 C 0.79025 0.53115 0.97273 0.0
C734 C 0.73488 0.50564 0.99711 0.0
H735 H 0.80772 0.5273 0.04967 0.0
H736 H 0.8101 0.53515 0.02917 0.0
H737 H 0.71342 0.48747 0.01321 0.0
H738 H 0.71259 0.50781 0.95584 0.0
H739 H 0.71361 0.51606 0.97626 0.0
H740 H 0.81041 0.56818 0.9929 0.0
C741 C 0.78845 0.53019 0.03362 0.0
C742 C 0.73458 0.50561 0.00891 0.0
C743 C 0.78716 0.52568 0.04533 0.0
C744 C 0.73452 0.51478 0.96047 0.0
C745 C 0.73508 0.51917 0.97216 0.0
C746 C 0.7891 0.55042 0.99724 0.0
C747 C 0.76148 0.52651 0.02766 0.0
C748 C 0.76158 0.52783 0.01507 0.0
C749 C 0.76272 0.52669 0.9785 0.0
C750 C 0.76217 0.52793 0.99109 0.0
H751 H 0.71047 0.50876 0.04998 0.0
H752 H 0.71269 0.51712 0.02954 0.0
H753 H 0.80991 0.56803 0.01353 0.0
H754 H 0.81069 0.52905 0.95684 0.0
H755 H 0.81184 0.53657 0.97732 0.0
C756 C 0.26974 0.78827 0.29461 0.0
C757 C 0.24962 0.76059 0.28843 0.0
C758 C 0.26603 0.789 0.30632 0.0
C759 C 0.23398 0.73383 0.33069 0.0
H760 H 0.24978 0.80997 0.34706 0.0
C761 C 0.22205 0.73211 0.37907 0.0
C762 C 0.24682 0.758 0.38486 0.0
C763 C 0.21894 0.73351 0.36738 0.0
C764 C 0.24546 0.78856 0.34262 0.0
H765 H 0.20946 0.71236 0.28937 0.0
H766 H 0.20229 0.71368 0.30978 0.0
H767 H 0.25032 0.81044 0.32643 0.0
H768 H 0.28727 0.80586 0.38321 0.0
H769 H 0.28203 0.80853 0.36271 0.0
H770 H 0.22959 0.71206 0.3468 0.0
C771 C 0.22127 0.73473 0.3057 0.0
C772 C 0.2458 0.78882 0.33078 0.0
C773 C 0.22507 0.73402 0.29401 0.0
C774 C 0.26777 0.78579 0.37888 0.0
C775 C 0.26469 0.78725 0.36717 0.0
C776 C 0.23359 0.73355 0.34249 0.0
C777 C 0.24215 0.76199 0.31206 0.0
C778 C 0.24024 0.7615 0.32465 0.0
C779 C 0.24067 0.76083 0.36122 0.0
C780 C 0.23951 0.76094 0.34863 0.0
H781 H 0.28911 0.80884 0.29044 0.0
H782 H 0.28279 0.81025 0.31092 0.0
H783 H 0.23028 0.71255 0.3263 0.0
H784 H 0.20579 0.71038 0.38356 0.0
H785 H 0.19988 0.71292 0.36312 0.0
C786 C 0.49625 0.27578 0.71261 0.0
C787 C 0.49382 0.24902 0.71818 0.0
C788 C 0.49178 0.27519 0.70092 0.0
C789 C 0.46164 0.22131 0.6758 0.0
H790 H 0.52307 0.29779 0.65984 0.0
C791 C 0.48647 0.22427 0.62769 0.0
C792 C 0.49377 0.25223 0.62174 0.0
C793 C 0.48198 0.2228 0.63941 0.0
C794 C 0.50535 0.27639 0.66414 0.0
H795 H 0.48436 0.20054 0.71613 0.0
H796 H 0.47669 0.19934 0.69565 0.0
H797 H 0.52321 0.29716 0.68034 0.0
H798 H 0.50117 0.30015 0.6231 0.0
H799 H 0.49281 0.2976 0.64355 0.0
H800 H 0.44428 0.2004 0.65951 0.0
C801 C 0.48148 0.22066 0.70027 0.0
C802 C 0.50541 0.27603 0.67594 0.0
C803 C 0.48589 0.22127 0.71197 0.0
C804 C 0.49537 0.2783 0.62756 0.0
C805 C 0.49091 0.27689 0.63926 0.0
C806 C 0.46161 0.22167 0.66397 0.0
C807 C 0.48504 0.24787 0.69454 0.0
C808 C 0.48368 0.24845 0.68195 0.0
C809 C 0.48486 0.24938 0.64539 0.0
C810 C 0.48358 0.24919 0.65798 0.0
H811 H 0.50259 0.29749 0.71726 0.0
H812 H 0.49419 0.29639 0.69685 0.0
H813 H 0.4443 0.19978 0.68013 0.0
H814 H 0.4855 0.20405 0.62334 0.0
H815 H 0.47768 0.20137 0.64384 0.0
C816 C 0.23897 0.66523 0.20951 0.0
C817 C 0.2585 0.69867 0.2096 0.0
C818 C 0.23626 0.64763 0.19977 0.0
C819 C 0.25163 0.6549 0.16878 0.0
H820 H 0.25346 0.576 0.17279 0.0
C821 C 0.23961 0.5742 0.13083 0.0
C822 C 0.26025 0.56151 0.13065 0.0
C823 C 0.23652 0.58882 0.14059 0.0
C824 C 0.25306 0.59803 0.1715 0.0
H825 H 0.29035 0.74007 0.19965 0.0
H826 H 0.28571 0.70948 0.18255 0.0
H827 H 0.25369 0.60637 0.18927 0.0
H828 H 0.2937 0.55388 0.14044 0.0
H829 H 0.28839 0.57934 0.15756 0.0
H830 H 0.25197 0.64707 0.15101 0.0
C831 C 0.27201 0.69675 0.18993 0.0
C832 C 0.25279 0.6153 0.18097 0.0
C833 C 0.2747 0.71433 0.1997 0.0
C834 C 0.27721 0.563 0.14047 0.0
C835 C 0.27413 0.57761 0.15025 0.0
C836 C 0.25184 0.6376 0.15931 0.0
C837 C 0.25318 0.66307 0.18989 0.0
C838 C 0.25225 0.64409 0.17975 0.0
C839 C 0.25416 0.59124 0.15039 0.0
C840 C 0.25273 0.609 0.16053 0.0
H841 H 0.22649 0.65266 0.21711 0.0
H842 H 0.22117 0.62184 0.20002 0.0
H843 H 0.25091 0.67677 0.16749 0.0
H844 H 0.22654 0.57356 0.1233 0.0
H845 H 0.22056 0.59857 0.14041 0.0
C846 C 0.71856 0.28148 0.47244 0.0
C847 C 0.70428 0.25846 0.4639 0.0
C848 C 0.70138 0.27961 0.48223 0.0
C849 C 0.62946 0.22523 0.49923 0.0
H850 H 0.6368 0.30467 0.50987 0.0
C851 C 0.57723 0.23673 0.54207 0.0
C852 C 0.56431 0.25713 0.54257 0.0
C853 C 0.59226 0.23474 0.53222 0.0
C854 C 0.6342 0.28219 0.50696 0.0
H855 H 0.66135 0.21528 0.45884 0.0
H856 H 0.63122 0.21166 0.47599 0.0
H857 H 0.66785 0.30519 0.49355 0.0
H858 H 0.55644 0.29111 0.53325 0.0
H859 H 0.58228 0.28741 0.51593 0.0
H860 H 0.59551 0.20222 0.5126 0.0
C861 C 0.65575 0.23102 0.47523 0.0
C862 C 0.65239 0.28256 0.49768 0.0
C863 C 0.67293 0.233 0.46543 0.0
C864 C 0.56592 0.27494 0.53299 0.0
C865 C 0.58105 0.27306 0.52314 0.0
C866 C 0.61136 0.22489 0.50856 0.0
C867 C 0.66952 0.25466 0.48367 0.0
C868 C 0.65034 0.2541 0.49369 0.0
C869 C 0.59494 0.25335 0.52269 0.0
C870 C 0.61347 0.25338 0.51255 0.0
H871 H 0.74262 0.30149 0.47135 0.0
H872 H 0.71292 0.29798 0.4886 0.0
H873 H 0.62737 0.20288 0.49643 0.0
H874 H 0.57666 0.22316 0.54944 0.0
H875 H 0.60294 0.2196 0.53225 0.0
C876 C 0.43887 0.66667 0.79733 0.0
C877 C 0.45161 0.69996 0.79714 0.0
C878 C 0.42424 0.64902 0.8071 0.0
C879 C 0.41523 0.65647 0.83802 0.0
H880 H 0.3364 0.57561 0.8341 0.0
C881 C 0.34836 0.57551 0.87612 0.0
C882 C 0.31488 0.56158 0.87625 0.0
C883 C 0.36588 0.59032 0.86635 0.0
C884 C 0.3583 0.59819 0.83536 0.0
H885 H 0.45932 0.74104 0.80691 0.0
H886 H 0.43386 0.71037 0.82405 0.0
H887 H 0.36599 0.60627 0.81758 0.0
H888 H 0.2733 0.55184 0.86634 0.0
H889 H 0.30374 0.57765 0.84919 0.0
H890 H 0.40703 0.64887 0.8558 0.0
C891 C 0.43554 0.69781 0.81674 0.0
C892 C 0.37553 0.61564 0.82587 0.0
C893 C 0.45016 0.71545 0.80695 0.0
C894 C 0.29907 0.56197 0.86636 0.0
C895 C 0.31658 0.57678 0.85656 0.0
C896 C 0.39802 0.639 0.84751 0.0
C897 C 0.42188 0.66425 0.8169 0.0
C898 C 0.40417 0.64513 0.82705 0.0
C899 C 0.35031 0.59169 0.85648 0.0
C900 C 0.36921 0.60967 0.84632 0.0
H901 H 0.43947 0.65423 0.78981 0.0
H902 H 0.41447 0.62334 0.80693 0.0
H903 H 0.43729 0.6789 0.83928 0.0
H904 H 0.36104 0.57571 0.88371 0.0
H905 H 0.39171 0.60105 0.86658 0.0
C906 C 0.77732 0.43403 0.13044 0.0
C907 C 0.75769 0.44787 0.1303 0.0
C908 C 0.78003 0.41925 0.14022 0.0
C909 C 0.76442 0.4113 0.1712 0.0
H910 H 0.76296 0.33072 0.16729 0.0
C911 C 0.77662 0.34293 0.20924 0.0
C912 C 0.75615 0.30962 0.20943 0.0
C913 C 0.77962 0.36057 0.19947 0.0
C914 C 0.76325 0.35311 0.16855 0.0
H915 H 0.72571 0.45746 0.14018 0.0
H916 H 0.73035 0.4317 0.15734 0.0
H917 H 0.76271 0.36072 0.15077 0.0
H918 H 0.72287 0.26851 0.19964 0.0
H919 H 0.72802 0.29918 0.18251 0.0
H920 H 0.76399 0.40321 0.18898 0.0
C921 C 0.74411 0.43262 0.14998 0.0
C922 C 0.76351 0.37057 0.15906 0.0
C923 C 0.74142 0.44741 0.14018 0.0
C924 C 0.73924 0.29412 0.19961 0.0
C925 C 0.74223 0.31175 0.18982 0.0
C926 C 0.76421 0.39386 0.18069 0.0
C927 C 0.76302 0.41781 0.15008 0.0
C928 C 0.76394 0.39984 0.16024 0.0
C929 C 0.76206 0.34532 0.18967 0.0
C930 C 0.76345 0.36442 0.17951 0.0
H931 H 0.78986 0.43389 0.12287 0.0
H932 H 0.79519 0.40859 0.14001 0.0
H933 H 0.76504 0.43384 0.17246 0.0
H934 H 0.78966 0.35538 0.21677 0.0
H935 H 0.79547 0.38626 0.19965 0.0
C936 C 0.44374 0.77493 0.54112 0.0
C937 C 0.45081 0.75021 0.54246 0.0
C938 C 0.42851 0.77687 0.53131 0.0
C939 C 0.37527 0.72557 0.50851 0.0
H940 H 0.39637 0.80606 0.4942 0.0
C941 C 0.29516 0.73216 0.47347 0.0
C942 C 0.31112 0.7507 0.46399 0.0
C943 C 0.3123 0.73407 0.48329 0.0
C944 C 0.39022 0.78335 0.49807 0.0
H945 H 0.44808 0.70838 0.53469 0.0
H946 H 0.42178 0.7118 0.51744 0.0
H947 H 0.42788 0.80569 0.51031 0.0
H948 H 0.35712 0.78599 0.45727 0.0
H949 H 0.38718 0.78963 0.47441 0.0
H950 H 0.33791 0.70315 0.49622 0.0
C951 C 0.42778 0.72966 0.52396 0.0
C952 C 0.40815 0.78317 0.50737 0.0
C953 C 0.44316 0.72786 0.53374 0.0
C954 C 0.3443 0.77184 0.46457 0.0
C955 C 0.36144 0.77388 0.47438 0.0
C956 C 0.35725 0.72577 0.49927 0.0
C957 C 0.41973 0.75386 0.5227 0.0
C958 C 0.401 0.75424 0.51269 0.0
C959 C 0.34577 0.75455 0.48381 0.0
C960 C 0.36448 0.75465 0.4939 0.0
H961 H 0.44901 0.79209 0.54784 0.0
H962 H 0.42243 0.79561 0.5307 0.0
H963 H 0.36875 0.70288 0.51248 0.0
H964 H 0.26963 0.7154 0.47315 0.0
H965 H 0.29937 0.71914 0.49042 0.0
C966 C 0.71915 0.44632 0.86607 0.0
C967 C 0.70373 0.44796 0.87588 0.0
C968 C 0.70143 0.43173 0.85629 0.0
C969 C 0.61902 0.37201 0.84725 0.0
H970 H 0.65222 0.40297 0.81727 0.0
C971 C 0.56499 0.29512 0.8069 0.0
C972 C 0.56454 0.31076 0.79698 0.0
C973 C 0.57991 0.31273 0.81666 0.0
C974 C 0.64236 0.39412 0.82557 0.0
H975 H 0.65803 0.43621 0.88321 0.0
H976 H 0.627 0.41125 0.86611 0.0
H977 H 0.68244 0.43336 0.83374 0.0
H978 H 0.5787 0.35676 0.78944 0.0
H979 H 0.60424 0.38764 0.80651 0.0
H980 H 0.57883 0.3329 0.83908 0.0
C981 C 0.65269 0.42086 0.86593 0.0
C982 C 0.65994 0.4114 0.83504 0.0
C983 C 0.67043 0.43545 0.87569 0.0
C984 C 0.57854 0.34421 0.79704 0.0
C985 C 0.59346 0.36184 0.80678 0.0
C986 C 0.60147 0.35471 0.83778 0.0
C987 C 0.66784 0.41828 0.85615 0.0
C988 C 0.6486 0.40053 0.84602 0.0
C989 C 0.59486 0.34642 0.81668 0.0
C990 C 0.61295 0.36542 0.8268 0.0
H991 H 0.74475 0.45529 0.86611 0.0
H992 H 0.71392 0.42988 0.84899 0.0
H993 H 0.60966 0.36262 0.85555 0.0
H994 H 0.55483 0.26937 0.80697 0.0
H995 H 0.58081 0.30002 0.82406 0.0
C996 C 0.90539 0.51137 0.08069 0.0
C997 C 0.88083 0.48753 0.0873 0.0
C998 C 0.93605 0.5149 0.08053 0.0
C999 C 0.98187 0.47391 0.08858 0.0
H1000 H 0.05482 0.55996 0.08663 0.0
C1001 C 0.11119 0.5025 0.09808 0.0
C1002 C 0.1352 0.52195 0.09028 0.0
C1003 C 0.0805 0.49877 0.09748 0.0
C1004 C 0.0347 0.53577 0.08708 0.0
H1005 H 0.86914 0.44843 0.09885 0.0
H1006 H 0.92281 0.45497 0.09885 0.0
H1007 H 1.00064 0.5518 0.08601 0.0
H1008 H 0.14553 0.55355 0.07592 0.0
H1009 H 0.09207 0.54769 0.0751 0.0
H1010 H 0.0162 0.45812 0.08998 0.0
C1011 C 0.91832 0.47059 0.09355 0.0
C1012 C 1.00352 0.53099 0.08668 0.0
C1013 C 0.88748 0.46681 0.09358 0.0
C1014 C 0.12787 0.53859 0.08213 0.0
C1015 C 0.09716 0.53513 0.08162 0.0
C1016 C 0.01305 0.47875 0.08912 0.0
C1017 C 0.94321 0.49494 0.08711 0.0
C1018 C 0.97657 0.49997 0.08742 0.0
C1019 C 0.07297 0.51475 0.08918 0.0
C1020 C 0.03985 0.50973 0.08839 0.0
H1021 H 0.90089 0.52747 0.07565 0.0
H1022 H 0.95415 0.53337 0.07524 0.0
H1023 H 0.96194 0.44962 0.08895 0.0
H1024 H 0.11601 0.48998 0.10469 0.0
H1025 H 0.06264 0.48344 0.10358 0.0
C1026 C 0.61773 0.10688 0.41452 0.0
C1027 C 0.61803 0.13176 0.4208 0.0
C1028 C 0.59056 0.07629 0.41434 0.0
C1029 C 0.50309 0.0311 0.42159 0.0
H1030 H 0.51606 0.95795 0.42066 0.0
C1031 C 0.40128 0.90227 0.43098 0.0
C1032 C 0.39741 0.87794 0.42345 0.0
C1033 C 0.42827 0.9329 0.43042 0.0
C1034 C 0.51202 0.97812 0.42083 0.0
H1035 H 0.5898 0.14407 0.43173 0.0
H1036 H 0.5426 0.09055 0.4317 0.0
H1037 H 0.56223 0.01193 0.42013 0.0
H1038 H 0.41995 0.86709 0.40961 0.0
H1039 H 0.46755 0.92043 0.40888 0.0
H1040 H 0.45283 0.99702 0.42263 0.0
C1041 C 0.56309 0.09471 0.42667 0.0
C1042 C 0.53852 0.0092 0.42047 0.0
C1043 C 0.5902 0.12548 0.42672 0.0
C1044 C 0.42207 0.88497 0.41562 0.0
C1045 C 0.44934 0.91563 0.41516 0.0
C1046 C 0.47664 1.00002 0.42209 0.0
C1047 C 0.56295 0.06951 0.42056 0.0
C1048 C 0.53451 0.03624 0.42084 0.0
C1049 C 0.45251 0.9401 0.42244 0.0
C1050 C 0.48076 0.97313 0.42172 0.0
H1051 H 0.63867 0.11106 0.40975 0.0
H1052 H 0.5913 0.05796 0.40929 0.0
H1053 H 0.49877 0.05108 0.42168 0.0
H1054 H 0.38341 0.89772 0.43736 0.0
H1055 H 0.43026 0.95097 0.43632 0.0
C1056 C 0.50039 0.39448 0.74781 0.0
C1057 C 0.52462 0.39391 0.75425 0.0
C1058 C 0.49702 0.42169 0.74761 0.0
C1059 C 0.53899 0.50882 0.75521 0.0
H1060 H 0.45298 0.49624 0.75361 0.0
C1061 C 0.51151 0.6104 0.76451 0.0
C1062 C 0.49166 0.61473 0.75681 0.0
C1063 C 0.51511 0.58339 0.76395 0.0
C1064 C 0.47716 0.50018 0.75396 0.0
H1065 H 0.56454 0.42167 0.76546 0.0
H1066 H 0.55828 0.46891 0.7654 0.0
H1067 H 0.46075 0.45003 0.7531 0.0
H1068 H 0.4593 0.59295 0.74265 0.0
H1069 H 0.46495 0.54529 0.74192 0.0
H1070 H 0.55516 0.559 0.75641 0.0
C1071 C 0.54223 0.44863 0.76025 0.0
C1072 C 0.48172 0.47365 0.75362 0.0
C1073 C 0.54585 0.42149 0.76032 0.0
C1074 C 0.47458 0.59048 0.74879 0.0
C1075 C 0.47791 0.56317 0.74833 0.0
C1076 C 0.53437 0.53529 0.75569 0.0
C1077 C 0.51752 0.44905 0.75398 0.0
C1078 C 0.51272 0.47751 0.75424 0.0
C1079 C 0.49863 0.55957 0.7558 0.0
C1080 C 0.50341 0.53131 0.75509 0.0
H1081 H 0.48388 0.37373 0.74292 0.0
H1082 H 0.47825 0.42116 0.74243 0.0
H1083 H 0.56327 0.51305 0.75548 0.0
H1084 H 0.52439 0.62795 0.77102 0.0
H1085 H 0.53073 0.58105 0.76998 0.0
C1086 C 0.49943 0.10694 0.5917 0.0
C1087 C 0.524 0.13175 0.58538 0.0
C1088 C 0.49599 0.07635 0.59192 0.0
C1089 C 0.53827 0.03111 0.58476 0.0
H1090 H 0.45217 0.95789 0.58587 0.0
C1091 C 0.51144 0.90228 0.57565 0.0
C1092 C 0.49109 0.87804 0.58322 0.0
C1093 C 0.51498 0.93287 0.57614 0.0
C1094 C 0.47638 0.97808 0.58566 0.0
H1095 H 0.56445 0.1439 0.57443 0.0
H1096 H 0.55809 0.09037 0.57454 0.0
H1097 H 0.45994 0.01186 0.58629 0.0
H1098 H 0.45773 0.86726 0.59706 0.0
H1099 H 0.4633 0.92055 0.59769 0.0
H1100 H 0.5545 0.99708 0.5838 0.0
C1101 C 0.5418 0.0946 0.57957 0.0
C1102 C 0.48093 0.00916 0.58594 0.0
C1103 C 0.54548 0.12538 0.57947 0.0
C1104 C 0.47342 0.88509 0.59103 0.0
C1105 C 0.47671 0.91571 0.59143 0.0
C1106 C 0.53367 1.00005 0.58433 0.0
C1107 C 0.51678 0.06948 0.58572 0.0
C1108 C 0.51197 0.03622 0.58551 0.0
C1109 C 0.49793 0.94011 0.5841 0.0
C1110 C 0.50268 0.97313 0.58476 0.0
H1111 H 0.48273 0.1112 0.59647 0.0
H1112 H 0.47695 0.05809 0.597 0.0
H1113 H 0.56256 0.05111 0.58463 0.0
H1114 H 0.52479 0.8977 0.56928 0.0
H1115 H 0.53099 0.95087 0.57021 0.0
C1116 C 0.42545 0.54234 0.91286 0.0
C1117 C 0.3982 0.52182 0.91922 0.0
C1118 C 0.45251 0.53855 0.91289 0.0
C1119 C 0.4774 0.47835 0.91997 0.0
H1120 H 0.5629 0.55109 0.91629 0.0
C1121 C 0.59432 0.471 0.92446 0.0
C1122 C 0.61806 0.48729 0.91621 0.0
C1123 C 0.56707 0.47446 0.92498 0.0
C1124 C 0.53914 0.5305 0.91726 0.0
H1125 H 0.37851 0.48222 0.93102 0.0
H1126 H 0.42586 0.47631 0.93143 0.0
H1127 H 0.51718 0.55963 0.91733 0.0
H1128 H 0.63044 0.51861 0.90163 0.0
H1129 H 0.58362 0.52517 0.90275 0.0
H1130 H 0.49974 0.44938 0.92012 0.0
C1131 C 0.42615 0.49463 0.92607 0.0
C1132 C 0.51282 0.53536 0.91781 0.0
C1133 C 0.39902 0.49816 0.92591 0.0
C1134 C 0.61328 0.50638 0.90832 0.0
C1135 C 0.58632 0.51012 0.90892 0.0
C1136 C 0.5038 0.47356 0.91957 0.0
C1137 C 0.45316 0.51439 0.91941 0.0
C1138 C 0.48147 0.50935 0.9191 0.0
C1139 C 0.56305 0.4945 0.91733 0.0
C1140 C 0.53496 0.49954 0.91812 0.0
H1141 H 0.4254 0.56056 0.90752 0.0
H1142 H 0.47251 0.554 0.90751 0.0
H1143 H 0.45372 0.45756 0.92074 0.0
H1144 H 0.59719 0.45632 0.93074 0.0
H1145 H 0.54959 0.46218 0.93158 0.0
C1146 C 0.11048 0.6148 0.25875 0.0
C1147 C 0.13535 0.61531 0.25237 0.0
C1148 C 0.07992 0.58758 0.25895 0.0
C1149 C 0.03487 0.50034 0.25151 0.0
H1150 H 0.96139 0.51289 0.25282 0.0
C1151 C 0.90589 0.39857 0.24218 0.0
C1152 C 0.88164 0.39438 0.24982 0.0
C1153 C 0.93652 0.42558 0.24273 0.0
C1154 C 0.98166 0.50897 0.25255 0.0
H1155 H 0.14766 0.58744 0.24128 0.0
H1156 H 0.09418 0.54016 0.24134 0.0
H1157 H 0.01536 0.55913 0.25333 0.0
H1158 H 0.87091 0.4164 0.26385 0.0
H1159 H 0.92423 0.46406 0.26458 0.0
H1160 H 1.00089 0.45014 0.25039 0.0
C1161 C 0.09834 0.5605 0.24644 0.0
C1162 C 0.01273 0.53551 0.25289 0.0
C1163 C 0.12908 0.58766 0.24637 0.0
C1164 C 0.88872 0.41876 0.25776 0.0
C1165 C 0.91937 0.44607 0.25822 0.0
C1166 C 1.0038 0.47386 0.25103 0.0
C1167 C 0.07314 0.56014 0.25265 0.0
C1168 C 0.03989 0.53166 0.25238 0.0
C1169 C 0.94377 0.44955 0.25082 0.0
C1170 C 0.9768 0.47782 0.25153 0.0
H1171 H 0.11466 0.63561 0.26359 0.0
H1172 H 0.0616 0.58814 0.26408 0.0
H1173 H 0.05494 0.49614 0.25132 0.0
H1174 H 0.9013 0.38092 0.23572 0.0
H1175 H 0.95454 0.42782 0.23675 0.0
C1176 C 0.59517 0.47316 0.08608 0.0
C1177 C 0.61923 0.48869 0.0943 0.0
C1178 C 0.56792 0.47667 0.08593 0.0
C1179 C 0.52255 0.50605 0.10351 0.0
H1180 H 0.48347 0.50486 0.07478 0.0
C1181 C 0.42534 0.54343 0.09832 0.0
C1182 C 0.39764 0.52153 0.09242 0.0
C1183 C 0.45261 0.53994 0.09846 0.0
C1184 C 0.49407 0.50514 0.08287 0.0
H1185 H 0.63225 0.51936 0.10908 0.0
H1186 H 0.58626 0.52691 0.10841 0.0
H1187 H 0.52999 0.49749 0.07529 0.0
H1188 H 0.37724 0.47945 0.08173 0.0
H1189 H 0.42502 0.47386 0.08174 0.0
H1190 H 0.48699 0.51473 0.11099 0.0
C1191 C 0.58789 0.51137 0.10218 0.0
C1192 C 0.52069 0.50066 0.0832 0.0
C1193 C 0.61483 0.50747 0.10244 0.0
C1194 C 0.39815 0.49661 0.08641 0.0
C1195 C 0.42557 0.4935 0.08637 0.0
C1196 C 0.49629 0.5111 0.10314 0.0
C1197 C 0.56396 0.49615 0.0939 0.0
C1198 C 0.53535 0.50088 0.09354 0.0
C1199 C 0.45301 0.51488 0.0925 0.0
C1200 C 0.48163 0.51056 0.09283 0.0
H1201 H 0.59756 0.45873 0.07958 0.0
H1202 H 0.54994 0.46395 0.07953 0.0
H1203 H 0.53245 0.50574 0.11167 0.0
H1204 H 0.42562 0.56275 0.10307 0.0
H1205 H 0.47345 0.55692 0.10321 0.0
C1206 C 0.88897 0.41788 0.41937 0.0
C1207 C 0.88088 0.39333 0.42734 0.0
C1208 C 0.91967 0.44518 0.41922 0.0
C1209 C 0.99531 0.48945 0.4365 0.0
H1210 H 0.03163 0.53101 0.40795 0.0
C1211 C 0.12965 0.58709 0.43099 0.0
C1212 C 0.13511 0.61528 0.42554 0.0
C1213 C 0.09891 0.55984 0.43111 0.0
C1214 C 0.02177 0.51972 0.416 0.0
H1215 H 0.89936 0.37957 0.44172 0.0
H1216 H 0.95273 0.42559 0.44102 0.0
H1217 H 0.97786 0.48443 0.40844 0.0
H1218 H 0.11277 0.63659 0.41564 0.0
H1219 H 0.05942 0.58886 0.4156 0.0
H1220 H 0.03991 0.52437 0.44394 0.0
C1221 C 0.93527 0.42432 0.43498 0.0
C1222 C 0.99071 0.49305 0.41632 0.0
C1223 C 0.90449 0.39733 0.43525 0.0
C1224 C 0.10931 0.61529 0.41996 0.0
C1225 C 0.07879 0.58791 0.41989 0.0
C1226 C 0.02657 0.51575 0.43614 0.0
C1227 C 0.94352 0.44875 0.42695 0.0
C1228 C 0.97682 0.47747 0.42659 0.0
C1229 C 0.07308 0.55995 0.42558 0.0
C1230 C 0.04015 0.53131 0.42589 0.0
H1231 H 0.87183 0.41585 0.41305 0.0
H1232 H 0.92455 0.46353 0.41301 0.0
H1233 H 0.98557 0.47889 0.44464 0.0
H1234 H 0.14898 0.58638 0.43541 0.0
H1235 H 0.09533 0.53861 0.43551 0.0
C1236 C 0.50373 0.10753 0.76892 0.0
C1237 C 0.52288 0.13091 0.76089 0.0
C1238 C 0.49995 0.07677 0.76866 0.0
C1239 C 0.51212 0.0209 0.74983 0.0
H1240 H 0.49651 0.97259 0.77755 0.0
C1241 C 0.51665 0.90278 0.75316 0.0
C1242 C 0.49147 0.87715 0.75902 0.0
C1243 C 0.51961 0.93321 0.75313 0.0
C1244 C 0.50058 0.98568 0.76972 0.0
H1245 H 0.55359 0.13954 0.74635 0.0
H1246 H 0.54856 0.08686 0.7463 0.0
H1247 H 0.50511 0.02682 0.77823 0.0
H1248 H 0.44962 0.86351 0.76942 0.0
H1249 H 0.45519 0.91699 0.76957 0.0
H1250 H 0.50875 0.97985 0.74143 0.0
C1251 C 0.53547 0.09191 0.75262 0.0
C1252 C 0.5054 0.01687 0.77008 0.0
C1253 C 0.53886 0.12259 0.75277 0.0
C1254 C 0.46917 0.88269 0.76478 0.0
C1255 C 0.4725 0.91335 0.76493 0.0
C1256 C 0.50786 0.98991 0.74951 0.0
C1257 C 0.51566 0.0683 0.76049 0.0
C1258 C 0.51112 0.03504 0.76013 0.0
C1259 C 0.49781 0.93901 0.75912 0.0
C1260 C 0.50191 0.97185 0.75944 0.0
H1261 H 0.49148 0.11285 0.77549 0.0
H1262 H 0.48414 0.05948 0.77481 0.0
H1263 H 0.51572 0.0335 0.74193 0.0
H1264 H 0.53412 0.89925 0.74859 0.0
H1265 H 0.53945 0.95244 0.74862 0.0
C1266 C 0.47336 0.5899 0.58688 0.0
C1267 C 0.49101 0.61511 0.57924 0.0
C1268 C 0.47641 0.56239 0.58694 0.0
C1269 C 0.50946 0.51923 0.56987 0.0
H1270 H 0.5005 0.47503 0.59813 0.0
C1271 C 0.54585 0.42146 0.57549 0.0
C1272 C 0.52253 0.39273 0.5805 0.0
C1273 C 0.54215 0.44858 0.57541 0.0
C1274 C 0.50297 0.48707 0.59016 0.0
H1275 H 0.52496 0.62983 0.56536 0.0
H1276 H 0.5317 0.58347 0.56595 0.0
H1277 H 0.49348 0.52172 0.59777 0.0
H1278 H 0.47759 0.37033 0.58966 0.0
H1279 H 0.47159 0.41783 0.58979 0.0
H1280 H 0.52003 0.48497 0.56242 0.0
C1281 C 0.51485 0.58437 0.57177 0.0
C1282 C 0.49869 0.5138 0.58991 0.0
C1283 C 0.51141 0.61155 0.57158 0.0
C1284 C 0.49588 0.39204 0.58568 0.0
C1285 C 0.49252 0.41929 0.5858 0.0
C1286 C 0.51432 0.49288 0.57018 0.0
C1287 C 0.49751 0.55928 0.57947 0.0
C1288 C 0.50177 0.53036 0.57975 0.0
C1289 C 0.51541 0.44781 0.58056 0.0
C1290 C 0.51103 0.47639 0.58032 0.0
H1291 H 0.45757 0.59156 0.593 0.0
H1292 H 0.46206 0.54355 0.59288 0.0
H1293 H 0.51135 0.53055 0.56181 0.0
H1294 H 0.56655 0.42271 0.57139 0.0
H1295 H 0.56031 0.47025 0.57137 0.0
C1296 C 0.11236 0.5021 0.90401 0.0
C1297 C 0.13542 0.52058 0.91223 0.0
C1298 C 0.0815 0.49817 0.90427 0.0
C1299 C 0.02467 0.50799 0.92335 0.0
H1300 H 0.97744 0.49533 0.89552 0.0
C1301 C 0.90628 0.51223 0.92034 0.0
C1302 C 0.88098 0.48774 0.91415 0.0
C1303 C 0.93679 0.51529 0.92037 0.0
C1304 C 0.99022 0.49856 0.90338 0.0
H1305 H 0.14347 0.54994 0.9271 0.0
H1306 H 0.09058 0.54464 0.92717 0.0
H1307 H 0.03189 0.50431 0.89484 0.0
H1308 H 0.86794 0.44722 0.90314 0.0
H1309 H 0.92157 0.45297 0.90299 0.0
H1310 H 0.98311 0.50337 0.93179 0.0
C1311 C 0.09597 0.53221 0.9207 0.0
C1312 C 0.02153 0.50361 0.90302 0.0
C1313 C 0.12674 0.53575 0.92054 0.0
C1314 C 0.88688 0.46621 0.90804 0.0
C1315 C 0.91762 0.46966 0.90789 0.0
C1316 C 0.99357 0.50349 0.92368 0.0
C1317 C 0.07266 0.51304 0.91264 0.0
C1318 C 0.03931 0.50828 0.913 0.0
C1319 C 0.94297 0.4943 0.91404 0.0
C1320 C 0.9759 0.4986 0.9137 0.0
H1321 H 0.11801 0.49049 0.8973 0.0
H1322 H 0.06444 0.48288 0.89797 0.0
H1323 H 0.037 0.51076 0.93127 0.0
H1324 H 0.90245 0.5291 0.92518 0.0
H1325 H 0.95579 0.53461 0.92514 0.0
C1326 C 0.40057 0.9019 0.23772 0.0
C1327 C 0.39653 0.87843 0.24568 0.0
C1328 C 0.42756 0.93267 0.23798 0.0
C1329 C 0.49607 0.98829 0.25669 0.0
H1330 H 0.52802 0.037 0.22901 0.0
C1331 C 0.61865 0.10647 0.25317 0.0
C1332 C 0.61887 0.13219 0.24747 0.0
C1333 C 0.59118 0.07602 0.25322 0.0
C1334 C 0.51922 0.0238 0.23683 0.0
H1335 H 0.41895 0.86962 0.26007 0.0
H1336 H 0.46662 0.92229 0.26009 0.0
H1337 H 0.4824 0.98276 0.22833 0.0
H1338 H 0.59028 0.146 0.23736 0.0
H1339 H 0.54237 0.09249 0.23724 0.0
H1340 H 0.53397 0.02922 0.26506 0.0
C1341 C 0.44832 0.91732 0.25385 0.0
C1342 C 0.49285 0.9926 0.23648 0.0
C1343 C 0.42102 0.88664 0.25371 0.0
C1344 C 0.59082 0.12673 0.24187 0.0
C1345 C 0.56349 0.09606 0.24174 0.0
C1346 C 0.52281 0.01928 0.25701 0.0
C1347 C 0.45193 0.94103 0.24606 0.0
C1348 C 0.48066 0.97428 0.24641 0.0
C1349 C 0.56337 0.07032 0.2474 0.0
C1350 C 0.53464 0.03748 0.24709 0.0
H1351 H 0.38285 0.89666 0.23122 0.0
H1352 H 0.42889 0.95003 0.2319 0.0
H1353 H 0.48728 0.97557 0.26459 0.0
H1354 H 0.63982 0.10993 0.2576 0.0
H1355 H 0.59196 0.05671 0.25761 0.0
loop_
_geom_bond_atom_site_label_1
_geom_bond_atom_site_label_2
_geom_bond_distance
_geom_bond_site_symmetry_2
_ccdc_geom_bond_type
C0 C1 1.443 . S
C0 N4 1.376 . S
C0 C38 1.389 . S
C1 C0 1.443 . S
C1 C2 1.340 . S
C1 H41 0.951 . S
C2 C1 1.340 . S
C2 C3 1.439 . S
C2 H42 0.950 . S
C3 C2 1.439 . S
C3 N4 1.374 . S
C3 C37 1.395 . S
N4 C0 1.376 . S
N4 C3 1.374 . S
N4 Co5 2.008 . S
Co5 N4 2.008 . S
Co5 N6 1.995 . S
Co5 N11 2.008 . S
Co5 N16 1.995 . S
Co5 N21 2.282 . S
Co5 N27 2.282 . S
N6 Co5 1.995 . S
N6 C7 1.376 . S
N6 C10 1.383 . S
C7 N6 1.376 . S
C7 C8 1.446 . S
C7 C37 1.391 . S
C8 C7 1.446 . S
C8 C9 1.339 . S
C8 H43 0.949 . S
C9 C8 1.339 . S
C9 C10 1.439 . S
C9 H44 0.950 . S
C10 N6 1.383 . S
C10 C9 1.439 . S
C10 C39 1.392 . S
N11 Co5 2.008 . S
N11 C12 1.376 . S
N11 C15 1.374 . S
C12 N11 1.376 . S
C12 C13 1.443 . S
C12 C39 1.389 . S
C13 C12 1.443 . S
C13 C14 1.340 . S
C13 H45 0.951 . S
C14 C13 1.340 . S
C14 C15 1.439 . S
C14 H46 0.950 . S
C15 N11 1.374 . S
C15 C14 1.439 . S
C15 C40 1.395 . S
N16 Co5 1.995 . S
N16 C17 1.376 . S
N16 C20 1.383 . S
C17 N16 1.376 . S
C17 C18 1.446 . S
C17 C40 1.391 . S
C18 C17 1.446 . S
C18 C19 1.339 . S
C18 H47 0.949 . S
C19 C18 1.339 . S
C19 C20 1.439 . S
C19 H48 0.950 . S
C20 N16 1.383 . S
C20 C19 1.439 . S
C20 C38 1.392 . S
N21 Co5 2.282 . S
N21 C24 1.332 . S
N21 C26 1.332 . S
C22 C23 1.386 . S
C22 C25 1.388 . S
C23 C22 1.386 . S
C23 C24 1.382 . S
C23 H49 0.950 . S
C24 N21 1.332 . S
C24 C23 1.382 . S
C24 H35 0.952 . S
C25 C22 1.388 . S
C25 C26 1.382 . S
C25 H50 0.950 . S
C26 N21 1.332 . S
C26 C25 1.382 . S
C26 H36 0.948 . S
N27 Co5 2.282 . S
N27 C31 1.332 . S
N27 C32 1.332 . S
C28 C29 1.388 . S
C28 C32 1.382 . S
C28 H51 0.950 . S
C29 C28 1.388 . S
C29 C30 1.386 . S
C30 C29 1.386 . S
C30 C31 1.382 . S
C30 H52 0.950 . S
C31 N27 1.332 . S
C31 C30 1.382 . S
C31 H33 0.952 . S
C32 N27 1.332 . S
C32 C28 1.382 . S
C32 H34 0.948 . S
H33 C31 0.952 . S
H34 C32 0.948 . S
H35 C24 0.952 . S
H36 C26 0.948 . S
C37 C3 1.395 . S
C37 C7 1.391 . S
C38 C0 1.389 . S
C38 C20 1.392 . S
C39 C10 1.392 . S
C39 C12 1.389 . S
C40 C15 1.395 . S
C40 C17 1.391 . S
H41 C1 0.951 . S
H42 C2 0.950 . S
H43 C8 0.949 . S
H44 C9 0.950 . S
H45 C13 0.951 . S
H46 C14 0.950 . S
H47 C18 0.949 . S
H48 C19 0.950 . S
H49 C23 0.950 . S
H50 C25 0.950 . S
H51 C28 0.950 . S
H52 C30 0.950 . S
C53 C54 1.443 . S
C53 N57 1.376 . S
C53 C91 1.389 . S
C54 C53 1.443 . S
C54 C55 1.340 . S
C54 H94 0.951 . S
C55 C54 1.340 . S
C55 C56 1.439 . S
C55 H95 0.950 . S
C56 C55 1.439 . S
C56 N57 1.374 . S
C56 C90 1.395 . S
N57 C53 1.376 . S
N57 C56 1.374 . S
N57 Co58 2.008 . S
Co58 N57 2.008 . S
Co58 N59 1.995 . S
Co58 N64 2.008 . S
Co58 N69 1.995 . S
Co58 N74 2.282 . S
Co58 N80 2.282 . S
N59 Co58 1.995 . S
N59 C60 1.376 . S
N59 C63 1.383 . S
C60 N59 1.376 . S
C60 C61 1.446 . S
C60 C90 1.391 . S
C61 C60 1.446 . S
C61 C62 1.339 . S
C61 H96 0.949 . S
C62 C61 1.339 . S
C62 C63 1.439 . S
C62 H97 0.950 . S
C63 N59 1.383 . S
C63 C62 1.439 . S
C63 C92 1.392 . S
N64 Co58 2.008 . S
N64 C65 1.376 . S
N64 C68 1.374 . S
C65 N64 1.376 . S
C65 C66 1.443 . S
C65 C92 1.389 . S
C66 C65 1.443 . S
C66 C67 1.340 . S
C66 H98 0.951 . S
C67 C66 1.340 . S
C67 C68 1.439 . S
C67 H99 0.950 . S
C68 N64 1.374 . S
C68 C67 1.439 . S
C68 C93 1.395 . S
N69 Co58 1.995 . S
N69 C70 1.376 . S
N69 C73 1.383 . S
C70 N69 1.376 . S
C70 C71 1.446 . S
C70 C93 1.391 . S
C71 C70 1.446 . S
C71 C72 1.339 . S
C71 H100 0.949 . S
C72 C71 1.339 . S
C72 C73 1.439 . S
C72 H101 0.950 . S
C73 N69 1.383 . S
C73 C72 1.439 . S
C73 C91 1.392 . S
N74 Co58 2.282 . S
N74 C77 1.332 . S
N74 C79 1.332 . S
C75 C76 1.386 . S
C75 C78 1.388 . S
C76 C75 1.386 . S
C76 C77 1.382 . S
C76 H102 0.950 . S
C77 N74 1.332 . S
C77 C76 1.382 . S
C77 H88 0.952 . S
C78 C75 1.388 . S
C78 C79 1.382 . S
C78 H103 0.950 . S
C79 N74 1.332 . S
C79 C78 1.382 . S
C79 H89 0.948 . S
N80 Co58 2.282 . S
N80 C84 1.332 . S
N80 C85 1.332 . S
C81 C82 1.388 . S
C81 C85 1.382 . S
C81 H104 0.950 . S
C82 C81 1.388 . S
C82 C83 1.386 . S
C83 C82 1.386 . S
C83 C84 1.382 . S
C83 H105 0.950 . S
C84 N80 1.332 . S
C84 C83 1.382 . S
C84 H86 0.952 . S
C85 N80 1.332 . S
C85 C81 1.382 . S
C85 H87 0.948 . S
H86 C84 0.952 . S
H87 C85 0.948 . S
H88 C77 0.952 . S
H89 C79 0.948 . S
C90 C56 1.395 . S
C90 C60 1.391 . S
C91 C53 1.389 . S
C91 C73 1.392 . S
C92 C63 1.392 . S
C92 C65 1.389 . S
C93 C68 1.395 . S
C93 C70 1.391 . S
H94 C54 0.951 . S
H95 C55 0.950 . S
H96 C61 0.949 . S
H97 C62 0.950 . S
H98 C66 0.951 . S
H99 C67 0.950 . S
H100 C71 0.949 . S
H101 C72 0.950 . S
H102 C76 0.950 . S
H103 C78 0.950 . S
H104 C81 0.950 . S
H105 C83 0.950 . S
C106 C107 1.443 . S
C106 N110 1.376 . S
C106 C144 1.389 . S
C107 C106 1.443 . S
C107 C108 1.340 . S
C107 H147 0.951 . S
C108 C107 1.340 . S
C108 C109 1.439 . S
C108 H148 0.950 . S
C109 C108 1.439 . S
C109 N110 1.374 . S
C109 C143 1.395 . S
N110 C106 1.376 . S
N110 C109 1.374 . S
N110 Co111 2.008 . S
Co111 N110 2.008 . S
Co111 N112 1.995 . S
Co111 N117 2.008 . S
Co111 N122 1.995 . S
Co111 N127 2.282 . S
Co111 N133 2.282 . S
N112 Co111 1.995 . S
N112 C113 1.376 . S
N112 C116 1.383 . S
C113 N112 1.376 . S
C113 C114 1.446 . S
C113 C143 1.391 . S
C114 C113 1.446 . S
C114 C115 1.339 . S
C114 H149 0.949 . S
C115 C114 1.339 . S
C115 C116 1.439 . S
C115 H150 0.950 . S
C116 N112 1.383 . S
C116 C115 1.439 . S
C116 C145 1.392 . S
N117 Co111 2.008 . S
N117 C118 1.376 . S
N117 C121 1.374 . S
C118 N117 1.376 . S
C118 C119 1.443 . S
C118 C145 1.389 . S
C119 C118 1.443 . S
C119 C120 1.340 . S
C119 H151 0.951 . S
C120 C119 1.340 . S
C120 C121 1.439 . S
C120 H152 0.950 . S
C121 N117 1.374 . S
C121 C120 1.439 . S
C121 C146 1.395 . S
N122 Co111 1.995 . S
N122 C123 1.376 . S
N122 C126 1.383 . S
C123 N122 1.376 . S
C123 C124 1.446 . S
C123 C146 1.391 . S
C124 C123 1.446 . S
C124 C125 1.339 . S
C124 H153 0.949 . S
C125 C124 1.339 . S
C125 C126 1.439 . S
C125 H154 0.950 . S
C126 N122 1.383 . S
C126 C125 1.439 . S
C126 C144 1.392 . S
N127 Co111 2.282 . S
N127 C130 1.332 . S
N127 C132 1.332 . S
C128 C129 1.386 . S
C128 C131 1.388 . S
C129 C128 1.386 . S
C129 C130 1.382 . S
C129 H155 0.950 . S
C130 N127 1.332 . S
C130 C129 1.382 . S
C130 H141 0.952 . S
C131 C128 1.388 . S
C131 C132 1.382 . S
C131 H156 0.950 . S
C132 N127 1.332 . S
C132 C131 1.382 . S
C132 H142 0.948 . S
N133 Co111 2.282 . S
N133 C137 1.332 . S
N133 C138 1.332 . S
C134 C135 1.388 . S
C134 C138 1.382 . S
C134 H157 0.950 . S
C135 C134 1.388 . S
C135 C136 1.386 . S
C136 C135 1.386 . S
C136 C137 1.382 . S
C136 H158 0.950 . S
C137 N133 1.332 . S
C137 C136 1.382 . S
C137 H139 0.952 . S
C138 N133 1.332 . S
C138 C134 1.382 . S
C138 H140 0.948 . S
H139 C137 0.952 . S
H140 C138 0.948 . S
H141 C130 0.952 . S
H142 C132 0.948 . S
C143 C109 1.395 . S
C143 C113 1.391 . S
C144 C106 1.389 . S
C144 C126 1.392 . S
C145 C116 1.392 . S
C145 C118 1.389 . S
C146 C121 1.395 . S
C146 C123 1.391 . S
H147 C107 0.951 . S
H148 C108 0.950 . S
H149 C114 0.949 . S
H150 C115 0.950 . S
H151 C119 0.951 . S
H152 C120 0.950 . S
H153 C124 0.949 . S
H154 C125 0.950 . S
H155 C129 0.950 . S
H156 C131 0.950 . S
H157 C134 0.950 . S
H158 C136 0.950 . S
C159 C160 1.443 . S
C159 N163 1.376 . S
C159 C197 1.389 . S
C160 C159 1.443 . S
C160 C161 1.340 . S
C160 H200 0.951 . S
C161 C160 1.340 . S
C161 C162 1.439 . S
C161 H201 0.950 . S
C162 C161 1.439 . S
C162 N163 1.374 . S
C162 C196 1.395 . S
N163 C159 1.376 . S
N163 C162 1.374 . S
N163 Co164 2.008 . S
Co164 N163 2.008 . S
Co164 N165 1.995 . S
Co164 N170 2.008 . S
Co164 N175 1.995 . S
Co164 N180 2.282 . S
Co164 N186 2.282 . S
N165 Co164 1.995 . S
N165 C166 1.376 . S
N165 C169 1.383 . S
C166 N165 1.376 . S
C166 C167 1.446 . S
C166 C196 1.391 . S
C167 C166 1.446 . S
C167 C168 1.339 . S
C167 H202 0.949 . S
C168 C167 1.339 . S
C168 C169 1.439 . S
C168 H203 0.950 . S
C169 N165 1.383 . S
C169 C168 1.439 . S
C169 C198 1.392 . S
N170 Co164 2.008 . S
N170 C171 1.376 . S
N170 C174 1.374 . S
C171 N170 1.376 . S
C171 C172 1.443 . S
C171 C198 1.389 . S
C172 C171 1.443 . S
C172 C173 1.340 . S
C172 H204 0.951 . S
C173 C172 1.340 . S
C173 C174 1.439 . S
C173 H205 0.950 . S
C174 N170 1.374 . S
C174 C173 1.439 . S
C174 C199 1.395 . S
N175 Co164 1.995 . S
N175 C176 1.376 . S
N175 C179 1.383 . S
C176 N175 1.376 . S
C176 C177 1.446 . S
C176 C199 1.391 . S
C177 C176 1.446 . S
C177 C178 1.339 . S
C177 H206 0.949 . S
C178 C177 1.339 . S
C178 C179 1.439 . S
C178 H207 0.950 . S
C179 N175 1.383 . S
C179 C178 1.439 . S
C179 C197 1.392 . S
N180 Co164 2.282 . S
N180 C183 1.332 . S
N180 C185 1.332 . S
C181 C182 1.386 . S
C181 C184 1.388 . S
C182 C181 1.386 . S
C182 C183 1.382 . S
C182 H208 0.950 . S
C183 N180 1.332 . S
C183 C182 1.382 . S
C183 H194 0.952 . S
C184 C181 1.388 . S
C184 C185 1.382 . S
C184 H209 0.950 . S
C185 N180 1.332 . S
C185 C184 1.382 . S
C185 H195 0.948 . S
N186 Co164 2.282 . S
N186 C190 1.332 . S
N186 C191 1.332 . S
C187 C188 1.388 . S
C187 C191 1.382 . S
C187 H210 0.950 . S
C188 C187 1.388 . S
C188 C189 1.386 . S
C189 C188 1.386 . S
C189 C190 1.382 . S
C189 H211 0.950 . S
C190 N186 1.332 . S
C190 C189 1.382 . S
C190 H192 0.952 . S
C191 N186 1.332 . S
C191 C187 1.382 . S
C191 H193 0.948 . S
H192 C190 0.952 . S
H193 C191 0.948 . S
H194 C183 0.952 . S
H195 C185 0.948 . S
C196 C162 1.395 . S
C196 C166 1.391 . S
C197 C159 1.389 . S
C197 C179 1.392 . S
C198 C169 1.392 . S
C198 C171 1.389 . S
C199 C174 1.395 . S
C199 C176 1.391 . S
H200 C160 0.951 . S
H201 C161 0.950 . S
H202 C167 0.949 . S
H203 C168 0.950 . S
H204 C172 0.951 . S
H205 C173 0.950 . S
H206 C177 0.949 . S
H207 C178 0.950 . S
H208 C182 0.950 . S
H209 C184 0.950 . S
H210 C187 0.950 . S
H211 C189 0.950 . S
C212 C213 1.443 . S
C212 N216 1.376 . S
C212 C250 1.389 . S
C213 C212 1.443 . S
C213 C214 1.340 . S
C213 H253 0.951 . S
C214 C213 1.340 . S
C214 C215 1.439 . S
C214 H254 0.950 . S
C215 C214 1.439 . S
C215 N216 1.374 . S
C215 C249 1.395 . S
N216 C212 1.376 . S
N216 C215 1.374 . S
N216 Co217 2.008 . S
Co217 N216 2.008 . S
Co217 N218 1.995 . S
Co217 N223 2.008 . S
Co217 N228 1.995 . S
Co217 N233 2.282 . S
Co217 N239 2.282 . S
N218 Co217 1.995 . S
N218 C219 1.376 . S
N218 C222 1.383 . S
C219 N218 1.376 . S
C219 C220 1.446 . S
C219 C249 1.391 . S
C220 C219 1.446 . S
C220 C221 1.339 . S
C220 H255 0.949 . S
C221 C220 1.339 . S
C221 C222 1.439 . S
C221 H256 0.950 . S
C222 N218 1.383 . S
C222 C221 1.439 . S
C222 C251 1.392 . S
N223 Co217 2.008 . S
N223 C224 1.376 . S
N223 C227 1.374 . S
C224 N223 1.376 . S
C224 C225 1.443 . S
C224 C251 1.389 . S
C225 C224 1.443 . S
C225 C226 1.340 . S
C225 H257 0.951 . S
C226 C225 1.340 . S
C226 C227 1.439 . S
C226 H258 0.950 . S
C227 N223 1.374 . S
C227 C226 1.439 . S
C227 C252 1.395 . S
N228 Co217 1.995 . S
N228 C229 1.376 . S
N228 C232 1.383 . S
C229 N228 1.376 . S
C229 C230 1.446 . S
C229 C252 1.391 . S
C230 C229 1.446 . S
C230 C231 1.339 . S
C230 H259 0.949 . S
C231 C230 1.339 . S
C231 C232 1.439 . S
C231 H260 0.950 . S
C232 N228 1.383 . S
C232 C231 1.439 . S
C232 C250 1.392 . S
N233 Co217 2.282 . S
N233 C236 1.332 . S
N233 C238 1.332 . S
C234 C235 1.386 . S
C234 C237 1.388 . S
C235 C234 1.386 . S
C235 C236 1.382 . S
C235 H261 0.950 . S
C236 N233 1.332 . S
C236 C235 1.382 . S
C236 H247 0.952 . S
C237 C234 1.388 . S
C237 C238 1.382 . S
C237 H262 0.950 . S
C238 N233 1.332 . S
C238 C237 1.382 . S
C238 H248 0.948 . S
N239 Co217 2.282 . S
N239 C243 1.332 . S
N239 C244 1.332 . S
C240 C241 1.388 . S
C240 C244 1.382 . S
C240 H263 0.950 . S
C241 C240 1.388 . S
C241 C242 1.386 . S
C242 C241 1.386 . S
C242 C243 1.382 . S
C242 H264 0.950 . S
C243 N239 1.332 . S
C243 C242 1.382 . S
C243 H245 0.952 . S
C244 N239 1.332 . S
C244 C240 1.382 . S
C244 H246 0.948 . S
H245 C243 0.952 . S
H246 C244 0.948 . S
H247 C236 0.952 . S
H248 C238 0.948 . S
C249 C215 1.395 . S
C249 C219 1.391 . S
C250 C212 1.389 . S
C250 C232 1.392 . S
C251 C222 1.392 . S
C251 C224 1.389 . S
C252 C227 1.395 . S
C252 C229 1.391 . S
H253 C213 0.951 . S
H254 C214 0.950 . S
H255 C220 0.949 . S
H256 C221 0.950 . S
H257 C225 0.951 . S
H258 C226 0.950 . S
H259 C230 0.949 . S
H260 C231 0.950 . S
H261 C235 0.950 . S
H262 C237 0.950 . S
H263 C240 0.950 . S
H264 C242 0.950 . S
C265 C266 1.443 . S
C265 N269 1.376 . S
C265 C303 1.389 . S
C266 C265 1.443 . S
C266 C267 1.340 . S
C266 H306 0.951 . S
C267 C266 1.340 . S
C267 C268 1.439 . S
C267 H307 0.950 . S
C268 C267 1.439 . S
C268 N269 1.374 . S
C268 C302 1.395 . S
N269 C265 1.376 . S
N269 C268 1.374 . S
N269 Co270 2.008 . S
Co270 N269 2.008 . S
Co270 N271 1.995 . S
Co270 N276 2.008 . S
Co270 N281 1.995 . S
Co270 N286 2.282 . S
Co270 N292 2.282 . S
N271 Co270 1.995 . S
N271 C272 1.376 . S
N271 C275 1.383 . S
C272 N271 1.376 . S
C272 C273 1.446 . S
C272 C302 1.391 . S
C273 C272 1.446 . S
C273 C274 1.339 . S
C273 H308 0.949 . S
C274 C273 1.339 . S
C274 C275 1.439 . S
C274 H309 0.950 . S
C275 N271 1.383 . S
C275 C274 1.439 . S
C275 C304 1.392 . S
N276 Co270 2.008 . S
N276 C277 1.376 . S
N276 C280 1.374 . S
C277 N276 1.376 . S
C277 C278 1.443 . S
C277 C304 1.389 . S
C278 C277 1.443 . S
C278 C279 1.340 . S
C278 H310 0.951 . S
C279 C278 1.340 . S
C279 C280 1.439 . S
C279 H311 0.950 . S
C280 N276 1.374 . S
C280 C279 1.439 . S
C280 C305 1.395 . S
N281 Co270 1.995 . S
N281 C282 1.376 . S
N281 C285 1.383 . S
C282 N281 1.376 . S
C282 C283 1.446 . S
C282 C305 1.391 . S
C283 C282 1.446 . S
C283 C284 1.339 . S
C283 H312 0.949 . S
C284 C283 1.339 . S
C284 C285 1.439 . S
C284 H313 0.950 . S
C285 N281 1.383 . S
C285 C284 1.439 . S
C285 C303 1.392 . S
N286 Co270 2.282 . S
N286 C289 1.332 . S
N286 C291 1.332 . S
C287 C288 1.386 . S
C287 C290 1.388 . S
C288 C287 1.386 . S
C288 C289 1.382 . S
C288 H314 0.950 . S
C289 N286 1.332 . S
C289 C288 1.382 . S
C289 H300 0.952 . S
C290 C287 1.388 . S
C290 C291 1.382 . S
C290 H315 0.950 . S
C291 N286 1.332 . S
C291 C290 1.382 . S
C291 H301 0.948 . S
N292 Co270 2.282 . S
N292 C296 1.332 . S
N292 C297 1.332 . S
C293 C294 1.388 . S
C293 C297 1.382 . S
C293 H316 0.950 . S
C294 C293 1.388 . S
C294 C295 1.386 . S
C295 C294 1.386 . S
C295 C296 1.382 . S
C295 H317 0.950 . S
C296 N292 1.332 . S
C296 C295 1.382 . S
C296 H298 0.952 . S
C297 N292 1.332 . S
C297 C293 1.382 . S
C297 H299 0.948 . S
H298 C296 0.952 . S
H299 C297 0.948 . S
H300 C289 0.952 . S
H301 C291 0.948 . S
C302 C268 1.395 . S
C302 C272 1.391 . S
C303 C265 1.389 . S
C303 C285 1.392 . S
C304 C275 1.392 . S
C304 C277 1.389 . S
C305 C280 1.395 . S
C305 C282 1.391 . S
H306 C266 0.951 . S
H307 C267 0.950 . S
H308 C273 0.949 . S
H309 C274 0.950 . S
H310 C278 0.951 . S
H311 C279 0.950 . S
H312 C283 0.949 . S
H313 C284 0.950 . S
H314 C288 0.950 . S
H315 C290 0.950 . S
H316 C293 0.950 . S
H317 C295 0.950 . S
C318 C319 1.443 . S
C318 N322 1.376 . S
C318 C356 1.389 . S
C319 C318 1.443 . S
C319 C320 1.340 . S
C319 H359 0.951 . S
C320 C319 1.340 . S
C320 C321 1.439 . S
C320 H360 0.950 . S
C321 C320 1.439 . S
C321 N322 1.374 . S
C321 C355 1.395 . S
N322 C318 1.376 . S
N322 C321 1.374 . S
N322 Co323 2.008 . S
Co323 N322 2.008 . S
Co323 N324 1.995 . S
Co323 N329 2.008 . S
Co323 N334 1.995 . S
Co323 N339 2.282 . S
Co323 N345 2.282 . S
N324 Co323 1.995 . S
N324 C325 1.376 . S
N324 C328 1.383 . S
C325 N324 1.376 . S
C325 C326 1.446 . S
C325 C355 1.391 . S
C326 C325 1.446 . S
C326 C327 1.339 . S
C326 H361 0.949 . S
C327 C326 1.339 . S
C327 C328 1.439 . S
C327 H362 0.950 . S
C328 N324 1.383 . S
C328 C327 1.439 . S
C328 C357 1.392 . S
N329 Co323 2.008 . S
N329 C330 1.376 . S
N329 C333 1.374 . S
C330 N329 1.376 . S
C330 C331 1.443 . S
C330 C357 1.389 . S
C331 C330 1.443 . S
C331 C332 1.340 . S
C331 H363 0.951 . S
C332 C331 1.340 . S
C332 C333 1.439 . S
C332 H364 0.950 . S
C333 N329 1.374 . S
C333 C332 1.439 . S
C333 C358 1.395 . S
N334 Co323 1.995 . S
N334 C335 1.376 . S
N334 C338 1.383 . S
C335 N334 1.376 . S
C335 C336 1.446 . S
C335 C358 1.391 . S
C336 C335 1.446 . S
C336 C337 1.339 . S
C336 H365 0.949 . S
C337 C336 1.339 . S
C337 C338 1.439 . S
C337 H366 0.950 . S
C338 N334 1.383 . S
C338 C337 1.439 . S
C338 C356 1.392 . S
N339 Co323 2.282 . S
N339 C342 1.332 . S
N339 C344 1.332 . S
C340 C341 1.386 . S
C340 C343 1.388 . S
C341 C340 1.386 . S
C341 C342 1.382 . S
C341 H367 0.950 . S
C342 N339 1.332 . S
C342 C341 1.382 . S
C342 H353 0.952 . S
C343 C340 1.388 . S
C343 C344 1.382 . S
C343 H368 0.950 . S
C344 N339 1.332 . S
C344 C343 1.382 . S
C344 H354 0.948 . S
N345 Co323 2.282 . S
N345 C349 1.332 . S
N345 C350 1.332 . S
C346 C347 1.388 . S
C346 C350 1.382 . S
C346 H369 0.950 . S
C347 C346 1.388 . S
C347 C348 1.386 . S
C348 C347 1.386 . S
C348 C349 1.382 . S
C348 H370 0.950 . S
C349 N345 1.332 . S
C349 C348 1.382 . S
C349 H351 0.952 . S
C350 N345 1.332 . S
C350 C346 1.382 . S
C350 H352 0.948 . S
H351 C349 0.952 . S
H352 C350 0.948 . S
H353 C342 0.952 . S
H354 C344 0.948 . S
C355 C321 1.395 . S
C355 C325 1.391 . S
C356 C318 1.389 . S
C356 C338 1.392 . S
C357 C328 1.392 . S
C357 C330 1.389 . S
C358 C333 1.395 . S
C358 C335 1.391 . S
H359 C319 0.951 . S
H360 C320 0.950 . S
H361 C326 0.949 . S
H362 C327 0.950 . S
H363 C331 0.951 . S
H364 C332 0.950 . S
H365 C336 0.949 . S
H366 C337 0.950 . S
H367 C341 0.950 . S
H368 C343 0.950 . S
H369 C346 0.950 . S
H370 C348 0.950 . S
C371 C372 1.443 . S
C371 N375 1.376 . S
C371 C409 1.389 . S
C372 C371 1.443 . S
C372 C373 1.340 . S
C372 H412 0.951 . S
C373 C372 1.340 . S
C373 C374 1.439 . S
C373 H413 0.950 . S
C374 C373 1.439 . S
C374 N375 1.374 . S
C374 C408 1.395 . S
N375 C371 1.376 . S
N375 C374 1.374 . S
N375 Co376 2.008 . S
Co376 N375 2.008 . S
Co376 N377 1.995 . S
Co376 N382 2.008 . S
Co376 N387 1.995 . S
Co376 N392 2.282 . S
Co376 N398 2.282 . S
N377 Co376 1.995 . S
N377 C378 1.376 . S
N377 C381 1.383 . S
C378 N377 1.376 . S
C378 C379 1.446 . S
C378 C408 1.391 . S
C379 C378 1.446 . S
C379 C380 1.339 . S
C379 H414 0.949 . S
C380 C379 1.339 . S
C380 C381 1.439 . S
C380 H415 0.950 . S
C381 N377 1.383 . S
C381 C380 1.439 . S
C381 C410 1.392 . S
N382 Co376 2.008 . S
N382 C383 1.376 . S
N382 C386 1.374 . S
C383 N382 1.376 . S
C383 C384 1.443 . S
C383 C410 1.389 . S
C384 C383 1.443 . S
C384 C385 1.340 . S
C384 H416 0.951 . S
C385 C384 1.340 . S
C385 C386 1.439 . S
C385 H417 0.950 . S
C386 N382 1.374 . S
C386 C385 1.439 . S
C386 C411 1.395 . S
N387 Co376 1.995 . S
N387 C388 1.376 . S
N387 C391 1.383 . S
C388 N387 1.376 . S
C388 C389 1.446 . S
C388 C411 1.391 . S
C389 C388 1.446 . S
C389 C390 1.339 . S
C389 H418 0.949 . S
C390 C389 1.339 . S
C390 C391 1.439 . S
C390 H419 0.950 . S
C391 N387 1.383 . S
C391 C390 1.439 . S
C391 C409 1.392 . S
N392 Co376 2.282 . S
N392 C395 1.332 . S
N392 C397 1.332 . S
C393 C394 1.386 . S
C393 C396 1.388 . S
C394 C393 1.386 . S
C394 C395 1.382 . S
C394 H420 0.950 . S
C395 N392 1.332 . S
C395 C394 1.382 . S
C395 H406 0.952 . S
C396 C393 1.388 . S
C396 C397 1.382 . S
C396 H421 0.950 . S
C397 N392 1.332 . S
C397 C396 1.382 . S
C397 H407 0.948 . S
N398 Co376 2.282 . S
N398 C402 1.332 . S
N398 C403 1.332 . S
C399 C400 1.388 . S
C399 C403 1.382 . S
C399 H422 0.950 . S
C400 C399 1.388 . S
C400 C401 1.386 . S
C401 C400 1.386 . S
C401 C402 1.382 . S
C401 H423 0.950 . S
C402 N398 1.332 . S
C402 C401 1.382 . S
C402 H404 0.952 . S
C403 N398 1.332 . S
C403 C399 1.382 . S
C403 H405 0.948 . S
H404 C402 0.952 . S
H405 C403 0.948 . S
H406 C395 0.952 . S
H407 C397 0.948 . S
C408 C374 1.395 . S
C408 C378 1.391 . S
C409 C371 1.389 . S
C409 C391 1.392 . S
C410 C381 1.392 . S
C410 C383 1.389 . S
C411 C386 1.395 . S
C411 C388 1.391 . S
H412 C372 0.951 . S
H413 C373 0.950 . S
H414 C379 0.949 . S
H415 C380 0.950 . S
H416 C384 0.951 . S
H417 C385 0.950 . S
H418 C389 0.949 . S
H419 C390 0.950 . S
H420 C394 0.950 . S
H421 C396 0.950 . S
H422 C399 0.950 . S
H423 C401 0.950 . S
C424 C425 1.443 . S
C424 N428 1.376 . S
C424 C462 1.389 . S
C425 C424 1.443 . S
C425 C426 1.340 . S
C425 H465 0.951 . S
C426 C425 1.340 . S
C426 C427 1.439 . S
C426 H466 0.950 . S
C427 C426 1.439 . S
C427 N428 1.374 . S
C427 C461 1.395 . S
N428 C424 1.376 . S
N428 C427 1.374 . S
N428 Co429 2.008 . S
Co429 N428 2.008 . S
Co429 N430 1.995 . S
Co429 N435 2.008 . S
Co429 N440 1.995 . S
Co429 N445 2.282 . S
Co429 N451 2.282 . S
N430 Co429 1.995 . S
N430 C431 1.376 . S
N430 C434 1.383 . S
C431 N430 1.376 . S
C431 C432 1.446 . S
C431 C461 1.391 . S
C432 C431 1.446 . S
C432 C433 1.339 . S
C432 H467 0.949 . S
C433 C432 1.339 . S
C433 C434 1.439 . S
C433 H468 0.950 . S
C434 N430 1.383 . S
C434 C433 1.439 . S
C434 C463 1.392 . S
N435 Co429 2.008 . S
N435 C436 1.376 . S
N435 C439 1.374 . S
C436 N435 1.376 . S
C436 C437 1.443 . S
C436 C463 1.389 . S
C437 C436 1.443 . S
C437 C438 1.340 . S
C437 H469 0.951 . S
C438 C437 1.340 . S
C438 C439 1.439 . S
C438 H470 0.950 . S
C439 N435 1.374 . S
C439 C438 1.439 . S
C439 C464 1.395 . S
N440 Co429 1.995 . S
N440 C441 1.376 . S
N440 C444 1.383 . S
C441 N440 1.376 . S
C441 C442 1.446 . S
C441 C464 1.391 . S
C442 C441 1.446 . S
C442 C443 1.339 . S
C442 H471 0.949 . S
C443 C442 1.339 . S
C443 C444 1.439 . S
C443 H472 0.950 . S
C444 N440 1.383 . S
C444 C443 1.439 . S
C444 C462 1.392 . S
N445 Co429 2.282 . S
N445 C448 1.332 . S
N445 C450 1.332 . S
C446 C447 1.386 . S
C446 C449 1.388 . S
C447 C446 1.386 . S
C447 C448 1.382 . S
C447 H473 0.950 . S
C448 N445 1.332 . S
C448 C447 1.382 . S
C448 H459 0.952 . S
C449 C446 1.388 . S
C449 C450 1.382 . S
C449 H474 0.950 . S
C450 N445 1.332 . S
C450 C449 1.382 . S
C450 H460 0.948 . S
N451 Co429 2.282 . S
N451 C455 1.332 . S
N451 C456 1.332 . S
C452 C453 1.388 . S
C452 C456 1.382 . S
C452 H475 0.950 . S
C453 C452 1.388 . S
C453 C454 1.386 . S
C454 C453 1.386 . S
C454 C455 1.382 . S
C454 H476 0.950 . S
C455 N451 1.332 . S
C455 C454 1.382 . S
C455 H457 0.952 . S
C456 N451 1.332 . S
C456 C452 1.382 . S
C456 H458 0.948 . S
H457 C455 0.952 . S
H458 C456 0.948 . S
H459 C448 0.952 . S
H460 C450 0.948 . S
C461 C427 1.395 . S
C461 C431 1.391 . S
C462 C424 1.389 . S
C462 C444 1.392 . S
C463 C434 1.392 . S
C463 C436 1.389 . S
C464 C439 1.395 . S
C464 C441 1.391 . S
H465 C425 0.951 . S
H466 C426 0.950 . S
H467 C432 0.949 . S
H468 C433 0.950 . S
H469 C437 0.951 . S
H470 C438 0.950 . S
H471 C442 0.949 . S
H472 C443 0.950 . S
H473 C447 0.950 . S
H474 C449 0.950 . S
H475 C452 0.950 . S
H476 C454 0.950 . S
C477 C478 1.443 . S
C477 N481 1.376 . S
C477 C515 1.389 . S
C478 C477 1.443 . S
C478 C479 1.340 . S
C478 H518 0.951 . S
C479 C478 1.340 . S
C479 C480 1.439 . S
C479 H519 0.950 . S
C480 C479 1.439 . S
C480 N481 1.374 . S
C480 C514 1.395 . S
N481 C477 1.376 . S
N481 C480 1.374 . S
N481 Co482 2.008 . S
Co482 N481 2.008 . S
Co482 N483 1.995 . S
Co482 N488 2.008 . S
Co482 N493 1.995 . S
Co482 N498 2.282 . S
Co482 N504 2.282 . S
N483 Co482 1.995 . S
N483 C484 1.376 . S
N483 C487 1.383 . S
C484 N483 1.376 . S
C484 C485 1.446 . S
C484 C514 1.391 . S
C485 C484 1.446 . S
C485 C486 1.339 . S
C485 H520 0.949 . S
C486 C485 1.339 . S
C486 C487 1.439 . S
C486 H521 0.950 . S
C487 N483 1.383 . S
C487 C486 1.439 . S
C487 C516 1.392 . S
N488 Co482 2.008 . S
N488 C489 1.376 . S
N488 C492 1.374 . S
C489 N488 1.376 . S
C489 C490 1.443 . S
C489 C516 1.389 . S
C490 C489 1.443 . S
C490 C491 1.340 . S
C490 H522 0.951 . S
C491 C490 1.340 . S
C491 C492 1.439 . S
C491 H523 0.950 . S
C492 N488 1.374 . S
C492 C491 1.439 . S
C492 C517 1.395 . S
N493 Co482 1.995 . S
N493 C494 1.376 . S
N493 C497 1.383 . S
C494 N493 1.376 . S
C494 C495 1.446 . S
C494 C517 1.391 . S
C495 C494 1.446 . S
C495 C496 1.339 . S
C495 H524 0.949 . S
C496 C495 1.339 . S
C496 C497 1.439 . S
C496 H525 0.950 . S
C497 N493 1.383 . S
C497 C496 1.439 . S
C497 C515 1.392 . S
N498 Co482 2.282 . S
N498 C501 1.332 . S
N498 C503 1.332 . S
C499 C500 1.386 . S
C499 C502 1.388 . S
C500 C499 1.386 . S
C500 C501 1.382 . S
C500 H526 0.950 . S
C501 N498 1.332 . S
C501 C500 1.382 . S
C501 H512 0.952 . S
C502 C499 1.388 . S
C502 C503 1.382 . S
C502 H527 0.950 . S
C503 N498 1.332 . S
C503 C502 1.382 . S
C503 H513 0.948 . S
N504 Co482 2.282 . S
N504 C508 1.332 . S
N504 C509 1.332 . S
C505 C506 1.388 . S
C505 C509 1.382 . S
C505 H528 0.950 . S
C506 C505 1.388 . S
C506 C507 1.386 . S
C507 C506 1.386 . S
C507 C508 1.382 . S
C507 H529 0.950 . S
C508 N504 1.332 . S
C508 C507 1.382 . S
C508 H510 0.952 . S
C509 N504 1.332 . S
C509 C505 1.382 . S
C509 H511 0.948 . S
H510 C508 0.952 . S
H511 C509 0.948 . S
H512 C501 0.952 . S
H513 C503 0.948 . S
C514 C480 1.395 . S
C514 C484 1.391 . S
C515 C477 1.389 . S
C515 C497 1.392 . S
C516 C487 1.392 . S
C516 C489 1.389 . S
C517 C492 1.395 . S
C517 C494 1.391 . S
H518 C478 0.951 . S
H519 C479 0.950 . S
H520 C485 0.949 . S
H521 C486 0.950 . S
H522 C490 0.951 . S
H523 C491 0.950 . S
H524 C495 0.949 . S
H525 C496 0.950 . S
H526 C500 0.950 . S
H527 C502 0.950 . S
H528 C505 0.950 . S
H529 C507 0.950 . S
C530 C531 1.443 . S
C530 N534 1.376 . S
C530 C568 1.389 . S
C531 C530 1.443 . S
C531 C532 1.340 . S
C531 H571 0.951 . S
C532 C531 1.340 . S
C532 C533 1.439 . S
C532 H572 0.950 . S
C533 C532 1.439 . S
C533 N534 1.374 . S
C533 C567 1.395 . S
N534 C530 1.376 . S
N534 C533 1.374 . S
N534 Co535 2.008 . S
Co535 N534 2.008 . S
Co535 N536 1.995 . S
Co535 N541 2.008 . S
Co535 N546 1.995 . S
Co535 N551 2.282 . S
Co535 N557 2.282 . S
N536 Co535 1.995 . S
N536 C537 1.376 . S
N536 C540 1.383 . S
C537 N536 1.376 . S
C537 C538 1.446 . S
C537 C567 1.391 . S
C538 C537 1.446 . S
C538 C539 1.339 . S
C538 H573 0.949 . S
C539 C538 1.339 . S
C539 C540 1.439 . S
C539 H574 0.950 . S
C540 N536 1.383 . S
C540 C539 1.439 . S
C540 C569 1.392 . S
N541 Co535 2.008 . S
N541 C542 1.376 . S
N541 C545 1.374 . S
C542 N541 1.376 . S
C542 C543 1.443 . S
C542 C569 1.389 . S
C543 C542 1.443 . S
C543 C544 1.340 . S
C543 H575 0.951 . S
C544 C543 1.340 . S
C544 C545 1.439 . S
C544 H576 0.950 . S
C545 N541 1.374 . S
C545 C544 1.439 . S
C545 C570 1.395 . S
N546 Co535 1.995 . S
N546 C547 1.376 . S
N546 C550 1.383 . S
C547 N546 1.376 . S
C547 C548 1.446 . S
C547 C570 1.391 . S
C548 C547 1.446 . S
C548 C549 1.339 . S
C548 H577 0.949 . S
C549 C548 1.339 . S
C549 C550 1.439 . S
C549 H578 0.950 . S
C550 N546 1.383 . S
C550 C549 1.439 . S
C550 C568 1.392 . S
N551 Co535 2.282 . S
N551 C554 1.332 . S
N551 C556 1.332 . S
C552 C553 1.386 . S
C552 C555 1.388 . S
C553 C552 1.386 . S
C553 C554 1.382 . S
C553 H579 0.950 . S
C554 N551 1.332 . S
C554 C553 1.382 . S
C554 H565 0.952 . S
C555 C552 1.388 . S
C555 C556 1.382 . S
C555 H580 0.950 . S
C556 N551 1.332 . S
C556 C555 1.382 . S
C556 H566 0.948 . S
N557 Co535 2.282 . S
N557 C561 1.332 . S
N557 C562 1.332 . S
C558 C559 1.388 . S
C558 C562 1.382 . S
C558 H581 0.950 . S
C559 C558 1.388 . S
C559 C560 1.386 . S
C560 C559 1.386 . S
C560 C561 1.382 . S
C560 H582 0.950 . S
C561 N557 1.332 . S
C561 C560 1.382 . S
C561 H563 0.952 . S
C562 N557 1.332 . S
C562 C558 1.382 . S
C562 H564 0.948 . S
H563 C561 0.952 . S
H564 C562 0.948 . S
H565 C554 0.952 . S
H566 C556 0.948 . S
C567 C533 1.395 . S
C567 C537 1.391 . S
C568 C530 1.389 . S
C568 C550 1.392 . S
C569 C540 1.392 . S
C569 C542 1.389 . S
C570 C545 1.395 . S
C570 C547 1.391 . S
H571 C531 0.951 . S
H572 C532 0.950 . S
H573 C538 0.949 . S
H574 C539 0.950 . S
H575 C543 0.951 . S
H576 C544 0.950 . S
H577 C548 0.949 . S
H578 C549 0.950 . S
H579 C553 0.950 . S
H580 C555 0.950 . S
H581 C558 0.950 . S
H582 C560 0.950 . S
C583 C584 1.443 . S
C583 N587 1.376 . S
C583 C621 1.389 . S
C584 C583 1.443 . S
C584 C585 1.340 . S
C584 H624 0.951 . S
C585 C584 1.340 . S
C585 C586 1.439 . S
C585 H625 0.950 . S
C586 C585 1.439 . S
C586 N587 1.374 . S
C586 C620 1.395 . S
N587 C583 1.376 . S
N587 C586 1.374 . S
N587 Co588 2.008 . S
Co588 N587 2.008 . S
Co588 N589 1.995 . S
Co588 N594 2.008 . S
Co588 N599 1.995 . S
Co588 N604 2.282 . S
Co588 N610 2.282 . S
N589 Co588 1.995 . S
N589 C590 1.376 . S
N589 C593 1.383 . S
C590 N589 1.376 . S
C590 C591 1.446 . S
C590 C620 1.391 . S
C591 C590 1.446 . S
C591 C592 1.339 . S
C591 H626 0.949 . S
C592 C591 1.339 . S
C592 C593 1.439 . S
C592 H627 0.950 . S
C593 N589 1.383 . S
C593 C592 1.439 . S
C593 C622 1.392 . S
N594 Co588 2.008 . S
N594 C595 1.376 . S
N594 C598 1.374 . S
C595 N594 1.376 . S
C595 C596 1.443 . S
C595 C622 1.389 . S
C596 C595 1.443 . S
C596 C597 1.340 . S
C596 H628 0.951 . S
C597 C596 1.340 . S
C597 C598 1.439 . S
C597 H629 0.950 . S
C598 N594 1.374 . S
C598 C597 1.439 . S
C598 C623 1.395 . S
N599 Co588 1.995 . S
N599 C600 1.376 . S
N599 C603 1.383 . S
C600 N599 1.376 . S
C600 C601 1.446 . S
C600 C623 1.391 . S
C601 C600 1.446 . S
C601 C602 1.339 . S
C601 H630 0.949 . S
C602 C601 1.339 . S
C602 C603 1.439 . S
C602 H631 0.950 . S
C603 N599 1.383 . S
C603 C602 1.439 . S
C603 C621 1.392 . S
N604 Co588 2.282 . S
N604 C607 1.332 . S
N604 C609 1.332 . S
C605 C606 1.386 . S
C605 C608 1.388 . S
C606 C605 1.386 . S
C606 C607 1.382 . S
C606 H632 0.950 . S
C607 N604 1.332 . S
C607 C606 1.382 . S
C607 H618 0.952 . S
C608 C605 1.388 . S
C608 C609 1.382 . S
C608 H633 0.950 . S
C609 N604 1.332 . S
C609 C608 1.382 . S
C609 H619 0.948 . S
N610 Co588 2.282 . S
N610 C614 1.332 . S
N610 C615 1.332 . S
C611 C612 1.388 . S
C611 C615 1.382 . S
C611 H634 0.950 . S
C612 C611 1.388 . S
C612 C613 1.386 . S
C613 C612 1.386 . S
C613 C614 1.382 . S
C613 H635 0.950 . S
C614 N610 1.332 . S
C614 C613 1.382 . S
C614 H616 0.952 . S
C615 N610 1.332 . S
C615 C611 1.382 . S
C615 H617 0.948 . S
H616 C614 0.952 . S
H617 C615 0.948 . S
H618 C607 0.952 . S
H619 C609 0.948 . S
C620 C586 1.395 . S
C620 C590 1.391 . S
C621 C583 1.389 . S
C621 C603 1.392 . S
C622 C593 1.392 . S
C622 C595 1.389 . S
C623 C598 1.395 . S
C623 C600 1.391 . S
H624 C584 0.951 . S
H625 C585 0.950 . S
H626 C591 0.949 . S
H627 C592 0.950 . S
H628 C596 0.951 . S
H629 C597 0.950 . S
H630 C601 0.949 . S
H631 C602 0.950 . S
H632 C606 0.950 . S
H633 C608 0.950 . S
H634 C611 0.950 . S
H635 C613 0.950 . S
C636 C637 1.349 . S
C636 C638 1.327 . S
C636 H661 0.950 . S
C637 C636 1.349 . S
C637 C653 1.349 . S
C638 C636 1.327 . S
C638 C657 1.429 . S
C638 H662 0.950 . S
C639 C656 1.574 1_556 S
C639 C658 1.368 . S
C639 H663 0.949 . S
H640 C644 0.949 . S
C641 C642 1.349 . S
C641 C643 1.327 . S
C641 H664 0.950 . S
C642 C641 1.349 . S
C642 C654 1.349 . S
C643 C641 1.327 . S
C643 C659 1.429 . S
C643 H665 0.950 . S
C644 H640 0.949 . S
C644 C652 1.574 1_554 S
C644 C660 1.368 . S
H645 C653 0.950 . S
H646 C651 0.950 . S
H647 C652 0.949 . S
H648 C654 0.950 . S
H649 C655 0.950 . S
H650 C656 0.949 . S
C651 H646 0.950 . S
C651 C653 1.327 . S
C651 C657 1.429 . S
C652 C644 1.574 1_556 S
C652 H647 0.949 . S
C652 C658 1.368 . S
C653 C637 1.349 . S
C653 H645 0.950 . S
C653 C651 1.327 . S
C654 C642 1.349 . S
C654 H648 0.950 . S
C654 C655 1.327 . S
C655 H649 0.950 . S
C655 C654 1.327 . S
C655 C659 1.429 . S
C656 C639 1.574 1_554 S
C656 H650 0.949 . S
C656 C660 1.368 . S
C657 C638 1.429 . S
C657 C651 1.429 . S
C657 C658 1.523 . S
C658 C639 1.368 . S
C658 C652 1.368 . S
C658 C657 1.523 . S
C659 C643 1.429 . S
C659 C655 1.429 . S
C659 C660 1.523 . S
C660 C644 1.368 . S
C660 C656 1.368 . S
C660 C659 1.523 . S
H661 C636 0.950 . S
H662 C638 0.950 . S
H663 C639 0.949 . S
H664 C641 0.950 . S
H665 C643 0.950 . S
C666 C667 1.349 . S
C666 C668 1.327 . S
C666 H691 0.950 . S
C667 C666 1.349 . S
C667 C683 1.349 . S
C668 C666 1.327 . S
C668 C687 1.429 . S
C668 H692 0.950 . S
C669 C686 1.574 . S
C669 C688 1.368 . S
C669 H693 0.949 . S
H670 C674 0.949 . S
C671 C672 1.349 . S
C671 C673 1.327 . S
C671 H694 0.950 . S
C672 C671 1.349 . S
C672 C684 1.349 . S
C673 C671 1.327 . S
C673 C689 1.429 . S
C673 H695 0.950 . S
C674 H670 0.949 . S
C674 C682 1.574 . S
C674 C690 1.368 . S
H675 C683 0.950 . S
H676 C681 0.950 . S
H677 C682 0.949 . S
H678 C684 0.950 . S
H679 C685 0.950 . S
H680 C686 0.949 . S
C681 H676 0.950 . S
C681 C683 1.327 . S
C681 C687 1.429 . S
C682 C674 1.574 . S
C682 H677 0.949 . S
C682 C688 1.368 . S
C683 C667 1.349 . S
C683 H675 0.950 . S
C683 C681 1.327 . S
C684 C672 1.349 . S
C684 H678 0.950 . S
C684 C685 1.327 . S
C685 H679 0.950 . S
C685 C684 1.327 . S
C685 C689 1.429 . S
C686 C669 1.574 . S
C686 H680 0.949 . S
C686 C690 1.368 . S
C687 C668 1.429 . S
C687 C681 1.429 . S
C687 C688 1.523 . S
C688 C669 1.368 . S
C688 C682 1.368 . S
C688 C687 1.523 . S
C689 C673 1.429 . S
C689 C685 1.429 . S
C689 C690 1.523 . S
C690 C674 1.368 . S
C690 C686 1.368 . S
C690 C689 1.523 . S
H691 C666 0.950 . S
H692 C668 0.950 . S
H693 C669 0.949 . S
H694 C671 0.950 . S
H695 C673 0.950 . S
C696 C697 1.349 . S
C696 C698 1.327 . S
C696 H721 0.950 . S
C697 C696 1.349 . S
C697 C713 1.349 . S
C698 C696 1.327 . S
C698 C717 1.429 . S
C698 H722 0.950 . S
C699 C716 1.574 . S
C699 C718 1.368 . S
C699 H723 0.949 . S
H700 C704 0.949 . S
C701 C702 1.349 . S
C701 C703 1.327 . S
C701 H724 0.950 . S
C702 C701 1.349 . S
C702 C714 1.349 . S
C703 C701 1.327 . S
C703 C719 1.429 . S
C703 H725 0.950 . S
C704 H700 0.949 . S
C704 C712 1.574 . S
C704 C720 1.368 . S
H705 C713 0.950 . S
H706 C711 0.950 . S
H707 C712 0.949 . S
H708 C714 0.950 . S
H709 C715 0.950 . S
H710 C716 0.949 . S
C711 H706 0.950 . S
C711 C713 1.327 . S
C711 C717 1.429 . S
C712 C704 1.574 . S
C712 H707 0.949 . S
C712 C718 1.368 . S
C713 C697 1.349 . S
C713 H705 0.950 . S
C713 C711 1.327 . S
C714 C702 1.349 . S
C714 H708 0.950 . S
C714 C715 1.327 . S
C715 H709 0.950 . S
C715 C714 1.327 . S
C715 C719 1.429 . S
C716 C699 1.574 . S
C716 H710 0.949 . S
C716 C720 1.368 . S
C717 C698 1.429 . S
C717 C711 1.429 . S
C717 C718 1.523 . S
C718 C699 1.368 . S
C718 C712 1.368 . S
C718 C717 1.523 . S
C719 C703 1.429 . S
C719 C715 1.429 . S
C719 C720 1.523 . S
C720 C704 1.368 . S
C720 C716 1.368 . S
C720 C719 1.523 . S
H721 C696 0.950 . S
H722 C698 0.950 . S
H723 C699 0.949 . S
H724 C701 0.950 . S
H725 C703 0.950 . S
C726 C727 1.349 . S
C726 C728 1.327 . S
C726 H751 0.950 . S
C727 C726 1.349 . S
C727 C743 1.349 . S
C728 C726 1.327 . S
C728 C747 1.429 . S
C728 H752 0.950 . S
C729 C746 1.574 1_554 S
C729 C748 1.368 . S
C729 H753 0.949 . S
H730 C734 0.949 . S
C731 C732 1.349 . S
C731 C733 1.327 . S
C731 H754 0.950 . S
C732 C731 1.349 . S
C732 C744 1.349 . S
C733 C731 1.327 . S
C733 C749 1.429 . S
C733 H755 0.950 . S
C734 H730 0.949 . S
C734 C742 1.574 1_556 S
C734 C750 1.368 . S
H735 C743 0.950 . S
H736 C741 0.950 . S
H737 C742 0.949 . S
H738 C744 0.950 . S
H739 C745 0.950 . S
H740 C746 0.949 . S
C741 H736 0.950 . S
C741 C743 1.327 . S
C741 C747 1.429 . S
C742 C734 1.574 1_554 S
C742 H737 0.949 . S
C742 C748 1.368 . S
C743 C727 1.349 . S
C743 H735 0.950 . S
C743 C741 1.327 . S
C744 C732 1.349 . S
C744 H738 0.950 . S
C744 C745 1.327 . S
C745 H739 0.950 . S
C745 C744 1.327 . S
C745 C749 1.429 . S
C746 C729 1.574 1_556 S
C746 H740 0.949 . S
C746 C750 1.368 . S
C747 C728 1.429 . S
C747 C741 1.429 . S
C747 C748 1.523 . S
C748 C729 1.368 . S
C748 C742 1.368 . S
C748 C747 1.523 . S
C749 C733 1.429 . S
C749 C745 1.429 . S
C749 C750 1.523 . S
C750 C734 1.368 . S
C750 C746 1.368 . S
C750 C749 1.523 . S
H751 C726 0.950 . S
H752 C728 0.950 . S
H753 C729 0.949 . S
H754 C731 0.950 . S
H755 C733 0.950 . S
C756 C757 1.349 . S
C756 C758 1.327 . S
C756 H781 0.950 . S
C757 C756 1.349 . S
C757 C773 1.349 . S
C758 C756 1.327 . S
C758 C777 1.429 . S
C758 H782 0.950 . S
C759 C776 1.574 . S
C759 C778 1.368 . S
C759 H783 0.949 . S
H760 C764 0.949 . S
C761 C762 1.349 . S
C761 C763 1.327 . S
C761 H784 0.950 . S
C762 C761 1.349 . S
C762 C774 1.349 . S
C763 C761 1.327 . S
C763 C779 1.429 . S
C763 H785 0.950 . S
C764 H760 0.949 . S
C764 C772 1.574 . S
C764 C780 1.368 . S
H765 C773 0.950 . S
H766 C771 0.950 . S
H767 C772 0.949 . S
H768 C774 0.950 . S
H769 C775 0.950 . S
H770 C776 0.949 . S
C771 H766 0.950 . S
C771 C773 1.327 . S
C771 C777 1.429 . S
C772 C764 1.574 . S
C772 H767 0.949 . S
C772 C778 1.368 . S
C773 C757 1.349 . S
C773 H765 0.950 . S
C773 C771 1.327 . S
C774 C762 1.349 . S
C774 H768 0.950 . S
C774 C775 1.327 . S
C775 H769 0.950 . S
C775 C774 1.327 . S
C775 C779 1.429 . S
C776 C759 1.574 . S
C776 H770 0.949 . S
C776 C780 1.368 . S
C777 C758 1.429 . S
C777 C771 1.429 . S
C777 C778 1.523 . S
C778 C759 1.368 . S
C778 C772 1.368 . S
C778 C777 1.523 . S
C779 C763 1.429 . S
C779 C775 1.429 . S
C779 C780 1.523 . S
C780 C764 1.368 . S
C780 C776 1.368 . S
C780 C779 1.523 . S
H781 C756 0.950 . S
H782 C758 0.950 . S
H783 C759 0.949 . S
H784 C761 0.950 . S
H785 C763 0.950 . S
C786 C787 1.349 . S
C786 C788 1.327 . S
C786 H811 0.950 . S
C787 C786 1.349 . S
C787 C803 1.349 . S
C788 C786 1.327 . S
C788 C807 1.429 . S
C788 H812 0.950 . S
C789 C806 1.574 . S
C789 C808 1.368 . S
C789 H813 0.949 . S
H790 C794 0.949 . S
C791 C792 1.349 . S
C791 C793 1.327 . S
C791 H814 0.950 . S
C792 C791 1.349 . S
C792 C804 1.349 . S
C793 C791 1.327 . S
C793 C809 1.429 . S
C793 H815 0.950 . S
C794 H790 0.949 . S
C794 C802 1.574 . S
C794 C810 1.368 . S
H795 C803 0.950 . S
H796 C801 0.950 . S
H797 C802 0.949 . S
H798 C804 0.950 . S
H799 C805 0.950 . S
H800 C806 0.949 . S
C801 H796 0.950 . S
C801 C803 1.327 . S
C801 C807 1.429 . S
C802 C794 1.574 . S
C802 H797 0.949 . S
C802 C808 1.368 . S
C803 C787 1.349 . S
C803 H795 0.950 . S
C803 C801 1.327 . S
C804 C792 1.349 . S
C804 H798 0.950 . S
C804 C805 1.327 . S
C805 H799 0.950 . S
C805 C804 1.327 . S
C805 C809 1.429 . S
C806 C789 1.574 . S
C806 H800 0.949 . S
C806 C810 1.368 . S
C807 C788 1.429 . S
C807 C801 1.429 . S
C807 C808 1.523 . S
C808 C789 1.368 . S
C808 C802 1.368 . S
C808 C807 1.523 . S
C809 C793 1.429 . S
C809 C805 1.429 . S
C809 C810 1.523 . S
C810 C794 1.368 . S
C810 C806 1.368 . S
C810 C809 1.523 . S
H811 C786 0.950 . S
H812 C788 0.950 . S
H813 C789 0.949 . S
H814 C791 0.950 . S
H815 C793 0.950 . S
C816 C817 1.349 . S
C816 C818 1.327 . S
C816 H841 0.950 . S
C817 C816 1.349 . S
C817 C833 1.349 . S
C818 C816 1.327 . S
C818 C837 1.429 . S
C818 H842 0.950 . S
C819 C836 1.574 . S
C819 C838 1.368 . S
C819 H843 0.949 . S
H820 C824 0.949 . S
C821 C822 1.349 . S
C821 C823 1.327 . S
C821 H844 0.950 . S
C822 C821 1.349 . S
C822 C834 1.349 . S
C823 C821 1.327 . S
C823 C839 1.429 . S
C823 H845 0.950 . S
C824 H820 0.949 . S
C824 C832 1.574 . S
C824 C840 1.368 . S
H825 C833 0.950 . S
H826 C831 0.950 . S
H827 C832 0.949 . S
H828 C834 0.950 . S
H829 C835 0.950 . S
H830 C836 0.949 . S
C831 H826 0.950 . S
C831 C833 1.327 . S
C831 C837 1.429 . S
C832 C824 1.574 . S
C832 H827 0.949 . S
C832 C838 1.368 . S
C833 C817 1.349 . S
C833 H825 0.950 . S
C833 C831 1.327 . S
C834 C822 1.349 . S
C834 H828 0.950 . S
C834 C835 1.327 . S
C835 H829 0.950 . S
C835 C834 1.327 . S
C835 C839 1.429 . S
C836 C819 1.574 . S
C836 H830 0.949 . S
C836 C840 1.368 . S
C837 C818 1.429 . S
C837 C831 1.429 . S
C837 C838 1.523 . S
C838 C819 1.368 . S
C838 C832 1.368 . S
C838 C837 1.523 . S
C839 C823 1.429 . S
C839 C835 1.429 . S
C839 C840 1.523 . S
C840 C824 1.368 . S
C840 C836 1.368 . S
C840 C839 1.523 . S
H841 C816 0.950 . S
H842 C818 0.950 . S
H843 C819 0.949 . S
H844 C821 0.950 . S
H845 C823 0.950 . S
C846 C847 1.349 . S
C846 C848 1.327 . S
C846 H871 0.950 . S
C847 C846 1.349 . S
C847 C863 1.349 . S
C848 C846 1.327 . S
C848 C867 1.429 . S
C848 H872 0.950 . S
C849 C866 1.574 . S
C849 C868 1.368 . S
C849 H873 0.949 . S
H850 C854 0.949 . S
C851 C852 1.349 . S
C851 C853 1.327 . S
C851 H874 0.950 . S
C852 C851 1.349 . S
C852 C864 1.349 . S
C853 C851 1.327 . S
C853 C869 1.429 . S
C853 H875 0.950 . S
C854 H850 0.949 . S
C854 C862 1.574 . S
C854 C870 1.368 . S
H855 C863 0.950 . S
H856 C861 0.950 . S
H857 C862 0.949 . S
H858 C864 0.950 . S
H859 C865 0.950 . S
H860 C866 0.949 . S
C861 H856 0.950 . S
C861 C863 1.327 . S
C861 C867 1.429 . S
C862 C854 1.574 . S
C862 H857 0.949 . S
C862 C868 1.368 . S
C863 C847 1.349 . S
C863 H855 0.950 . S
C863 C861 1.327 . S
C864 C852 1.349 . S
C864 H858 0.950 . S
C864 C865 1.327 . S
C865 H859 0.950 . S
C865 C864 1.327 . S
C865 C869 1.429 . S
C866 C849 1.574 . S
C866 H860 0.949 . S
C866 C870 1.368 . S
C867 C848 1.429 . S
C867 C861 1.429 . S
C867 C868 1.523 . S
C868 C849 1.368 . S
C868 C862 1.368 . S
C868 C867 1.523 . S
C869 C853 1.429 . S
C869 C865 1.429 . S
C869 C870 1.523 . S
C870 C854 1.368 . S
C870 C866 1.368 . S
C870 C869 1.523 . S
H871 C846 0.950 . S
H872 C848 0.950 . S
H873 C849 0.949 . S
H874 C851 0.950 . S
H875 C853 0.950 . S
C876 C877 1.349 . S
C876 C878 1.327 . S
C876 H901 0.950 . S
C877 C876 1.349 . S
C877 C893 1.349 . S
C878 C876 1.327 . S
C878 C897 1.429 . S
C878 H902 0.950 . S
C879 C896 1.574 . S
C879 C898 1.368 . S
C879 H903 0.949 . S
H880 C884 0.949 . S
C881 C882 1.349 . S
C881 C883 1.327 . S
C881 H904 0.950 . S
C882 C881 1.349 . S
C882 C894 1.349 . S
C883 C881 1.327 . S
C883 C899 1.429 . S
C883 H905 0.950 . S
C884 H880 0.949 . S
C884 C892 1.574 . S
C884 C900 1.368 . S
H885 C893 0.950 . S
H886 C891 0.950 . S
H887 C892 0.949 . S
H888 C894 0.950 . S
H889 C895 0.950 . S
H890 C896 0.949 . S
C891 H886 0.950 . S
C891 C893 1.327 . S
C891 C897 1.429 . S
C892 C884 1.574 . S
C892 H887 0.949 . S
C892 C898 1.368 . S
C893 C877 1.349 . S
C893 H885 0.950 . S
C893 C891 1.327 . S
C894 C882 1.349 . S
C894 H888 0.950 . S
C894 C895 1.327 . S
C895 H889 0.950 . S
C895 C894 1.327 . S
C895 C899 1.429 . S
C896 C879 1.574 . S
C896 H890 0.949 . S
C896 C900 1.368 . S
C897 C878 1.429 . S
C897 C891 1.429 . S
C897 C898 1.523 . S
C898 C879 1.368 . S
C898 C892 1.368 . S
C898 C897 1.523 . S
C899 C883 1.429 . S
C899 C895 1.429 . S
C899 C900 1.523 . S
C900 C884 1.368 . S
C900 C896 1.368 . S
C900 C899 1.523 . S
H901 C876 0.950 . S
H902 C878 0.950 . S
H903 C879 0.949 . S
H904 C881 0.950 . S
H905 C883 0.950 . S
C906 C907 1.349 . S
C906 C908 1.327 . S
C906 H931 0.950 . S
C907 C906 1.349 . S
C907 C923 1.349 . S
C908 C906 1.327 . S
C908 C927 1.429 . S
C908 H932 0.950 . S
C909 C926 1.574 . S
C909 C928 1.368 . S
C909 H933 0.949 . S
H910 C914 0.949 . S
C911 C912 1.349 . S
C911 C913 1.327 . S
C911 H934 0.950 . S
C912 C911 1.349 . S
C912 C924 1.349 . S
C913 C911 1.327 . S
C913 C929 1.429 . S
C913 H935 0.950 . S
C914 H910 0.949 . S
C914 C922 1.574 . S
C914 C930 1.368 . S
H915 C923 0.950 . S
H916 C921 0.950 . S
H917 C922 0.949 . S
H918 C924 0.950 . S
H919 C925 0.950 . S
H920 C926 0.949 . S
C921 H916 0.950 . S
C921 C923 1.327 . S
C921 C927 1.429 . S
C922 C914 1.574 . S
C922 H917 0.949 . S
C922 C928 1.368 . S
C923 C907 1.349 . S
C923 H915 0.950 . S
C923 C921 1.327 . S
C924 C912 1.349 . S
C924 H918 0.950 . S
C924 C925 1.327 . S
C925 H919 0.950 . S
C925 C924 1.327 . S
C925 C929 1.429 . S
C926 C909 1.574 . S
C926 H920 0.949 . S
C926 C930 1.368 . S
C927 C908 1.429 . S
C927 C921 1.429 . S
C927 C928 1.523 . S
C928 C909 1.368 . S
C928 C922 1.368 . S
C928 C927 1.523 . S
C929 C913 1.429 . S
C929 C925 1.429 . S
C929 C930 1.523 . S
C930 C914 1.368 . S
C930 C926 1.368 . S
C930 C929 1.523 . S
H931 C906 0.950 . S
H932 C908 0.950 . S
H933 C909 0.949 . S
H934 C911 0.950 . S
H935 C913 0.950 . S
C936 C937 1.349 . S
C936 C938 1.327 . S
C936 H961 0.950 . S
C937 C936 1.349 . S
C937 C953 1.349 . S
C938 C936 1.327 . S
C938 C957 1.429 . S
C938 H962 0.950 . S
C939 C956 1.574 . S
C939 C958 1.368 . S
C939 H963 0.949 . S
H940 C944 0.949 . S
C941 C942 1.349 . S
C941 C943 1.327 . S
C941 H964 0.950 . S
C942 C941 1.349 . S
C942 C954 1.349 . S
C943 C941 1.327 . S
C943 C959 1.429 . S
C943 H965 0.950 . S
C944 H940 0.949 . S
C944 C952 1.574 . S
C944 C960 1.368 . S
H945 C953 0.950 . S
H946 C951 0.950 . S
H947 C952 0.949 . S
H948 C954 0.950 . S
H949 C955 0.950 . S
H950 C956 0.949 . S
C951 H946 0.950 . S
C951 C953 1.327 . S
C951 C957 1.429 . S
C952 C944 1.574 . S
C952 H947 0.949 . S
C952 C958 1.368 . S
C953 C937 1.349 . S
C953 H945 0.950 . S
C953 C951 1.327 . S
C954 C942 1.349 . S
C954 H948 0.950 . S
C954 C955 1.327 . S
C955 H949 0.950 . S
C955 C954 1.327 . S
C955 C959 1.429 . S
C956 C939 1.574 . S
C956 H950 0.949 . S
C956 C960 1.368 . S
C957 C938 1.429 . S
C957 C951 1.429 . S
C957 C958 1.523 . S
C958 C939 1.368 . S
C958 C952 1.368 . S
C958 C957 1.523 . S
C959 C943 1.429 . S
C959 C955 1.429 . S
C959 C960 1.523 . S
C960 C944 1.368 . S
C960 C956 1.368 . S
C960 C959 1.523 . S
H961 C936 0.950 . S
H962 C938 0.950 . S
H963 C939 0.949 . S
H964 C941 0.950 . S
H965 C943 0.950 . S
C966 C967 1.349 . S
C966 C968 1.327 . S
C966 H991 0.950 . S
C967 C966 1.349 . S
C967 C983 1.349 . S
C968 C966 1.327 . S
C968 C987 1.429 . S
C968 H992 0.950 . S
C969 C986 1.574 . S
C969 C988 1.368 . S
C969 H993 0.949 . S
H970 C974 0.949 . S
C971 C972 1.349 . S
C971 C973 1.327 . S
C971 H994 0.950 . S
C972 C971 1.349 . S
C972 C984 1.349 . S
C973 C971 1.327 . S
C973 C989 1.429 . S
C973 H995 0.950 . S
C974 H970 0.949 . S
C974 C982 1.574 . S
C974 C990 1.368 . S
H975 C983 0.950 . S
H976 C981 0.950 . S
H977 C982 0.949 . S
H978 C984 0.950 . S
H979 C985 0.950 . S
H980 C986 0.949 . S
C981 H976 0.950 . S
C981 C983 1.327 . S
C981 C987 1.429 . S
C982 C974 1.574 . S
C982 H977 0.949 . S
C982 C988 1.368 . S
C983 C967 1.349 . S
C983 H975 0.950 . S
C983 C981 1.327 . S
C984 C972 1.349 . S
C984 H978 0.950 . S
C984 C985 1.327 . S
C985 H979 0.950 . S
C985 C984 1.327 . S
C985 C989 1.429 . S
C986 C969 1.574 . S
C986 H980 0.949 . S
C986 C990 1.368 . S
C987 C968 1.429 . S
C987 C981 1.429 . S
C987 C988 1.523 . S
C988 C969 1.368 . S
C988 C982 1.368 . S
C988 C987 1.523 . S
C989 C973 1.429 . S
C989 C985 1.429 . S
C989 C990 1.523 . S
C990 C974 1.368 . S
C990 C986 1.368 . S
C990 C989 1.523 . S
H991 C966 0.950 . S
H992 C968 0.950 . S
H993 C969 0.949 . S
H994 C971 0.950 . S
H995 C973 0.950 . S
C996 C997 1.349 . S
C996 C998 1.327 . S
C996 H1021 0.950 . S
C997 C996 1.349 . S
C997 C1013 1.349 . S
C998 C996 1.327 . S
C998 C1017 1.429 . S
C998 H1022 0.950 . S
C999 C1016 1.574 1_655 S
C999 C1018 1.368 . S
C999 H1023 0.949 . S
H1000 C1004 0.949 . S
C1001 C1002 1.349 . S
C1001 C1003 1.327 . S
C1001 H1024 0.950 . S
C1002 C1001 1.349 . S
C1002 C1014 1.349 . S
C1003 C1001 1.327 . S
C1003 C1019 1.429 . S
C1003 H1025 0.950 . S
C1004 H1000 0.949 . S
C1004 C1012 1.574 1_455 S
C1004 C1020 1.368 . S
H1005 C1013 0.950 . S
H1006 C1011 0.950 . S
H1007 C1012 0.949 . S
H1008 C1014 0.950 . S
H1009 C1015 0.950 . S
H1010 C1016 0.949 . S
C1011 H1006 0.950 . S
C1011 C1013 1.327 . S
C1011 C1017 1.429 . S
C1012 C1004 1.574 1_655 S
C1012 H1007 0.949 . S
C1012 C1018 1.368 . S
C1013 C997 1.349 . S
C1013 H1005 0.950 . S
C1013 C1011 1.327 . S
C1014 C1002 1.349 . S
C1014 H1008 0.950 . S
C1014 C1015 1.327 . S
C1015 H1009 0.950 . S
C1015 C1014 1.327 . S
C1015 C1019 1.429 . S
C1016 C999 1.574 1_455 S
C1016 H1010 0.949 . S
C1016 C1020 1.368 . S
C1017 C998 1.429 . S
C1017 C1011 1.429 . S
C1017 C1018 1.523 . S
C1018 C999 1.368 . S
C1018 C1012 1.368 . S
C1018 C1017 1.523 . S
C1019 C1003 1.429 . S
C1019 C1015 1.429 . S
C1019 C1020 1.523 . S
C1020 C1004 1.368 . S
C1020 C1016 1.368 . S
C1020 C1019 1.523 . S
H1021 C996 0.950 . S
H1022 C998 0.950 . S
H1023 C999 0.949 . S
H1024 C1001 0.950 . S
H1025 C1003 0.950 . S
C1026 C1027 1.349 . S
C1026 C1028 1.327 . S
C1026 H1051 0.950 . S
C1027 C1026 1.349 . S
C1027 C1043 1.349 . S
C1028 C1026 1.327 . S
C1028 C1047 1.429 . S
C1028 H1052 0.950 . S
C1029 C1046 1.574 1_545 S
C1029 C1048 1.368 . S
C1029 H1053 0.949 . S
H1030 C1034 0.949 . S
C1031 C1032 1.349 . S
C1031 C1033 1.327 . S
C1031 H1054 0.950 . S
C1032 C1031 1.349 . S
C1032 C1044 1.349 . S
C1033 C1031 1.327 . S
C1033 C1049 1.429 . S
C1033 H1055 0.950 . S
C1034 H1030 0.949 . S
C1034 C1042 1.574 1_565 S
C1034 C1050 1.368 . S
H1035 C1043 0.950 . S
H1036 C1041 0.950 . S
H1037 C1042 0.949 . S
H1038 C1044 0.950 . S
H1039 C1045 0.950 . S
H1040 C1046 0.949 . S
C1041 H1036 0.950 . S
C1041 C1043 1.327 . S
C1041 C1047 1.429 . S
C1042 C1034 1.574 1_545 S
C1042 H1037 0.949 . S
C1042 C1048 1.368 . S
C1043 C1027 1.349 . S
C1043 H1035 0.950 . S
C1043 C1041 1.327 . S
C1044 C1032 1.349 . S
C1044 H1038 0.950 . S
C1044 C1045 1.327 . S
C1045 H1039 0.950 . S
C1045 C1044 1.327 . S
C1045 C1049 1.429 . S
C1046 C1029 1.574 1_565 S
C1046 H1040 0.949 . S
C1046 C1050 1.368 . S
C1047 C1028 1.429 . S
C1047 C1041 1.429 . S
C1047 C1048 1.523 . S
C1048 C1029 1.368 . S
C1048 C1042 1.368 . S
C1048 C1047 1.523 . S
C1049 C1033 1.429 . S
C1049 C1045 1.429 . S
C1049 C1050 1.523 . S
C1050 C1034 1.368 . S
C1050 C1046 1.368 . S
C1050 C1049 1.523 . S
H1051 C1026 0.950 . S
H1052 C1028 0.950 . S
H1053 C1029 0.949 . S
H1054 C1031 0.950 . S
H1055 C1033 0.950 . S
C1056 C1057 1.349 . S
C1056 C1058 1.327 . S
C1056 H1081 0.950 . S
C1057 C1056 1.349 . S
C1057 C1073 1.349 . S
C1058 C1056 1.327 . S
C1058 C1077 1.429 . S
C1058 H1082 0.950 . S
C1059 C1076 1.574 . S
C1059 C1078 1.368 . S
C1059 H1083 0.949 . S
H1060 C1064 0.949 . S
C1061 C1062 1.349 . S
C1061 C1063 1.327 . S
C1061 H1084 0.950 . S
C1062 C1061 1.349 . S
C1062 C1074 1.349 . S
C1063 C1061 1.327 . S
C1063 C1079 1.429 . S
C1063 H1085 0.950 . S
C1064 H1060 0.949 . S
C1064 C1072 1.574 . S
C1064 C1080 1.368 . S
H1065 C1073 0.950 . S
H1066 C1071 0.950 . S
H1067 C1072 0.949 . S
H1068 C1074 0.950 . S
H1069 C1075 0.950 . S
H1070 C1076 0.949 . S
C1071 H1066 0.950 . S
C1071 C1073 1.327 . S
C1071 C1077 1.429 . S
C1072 C1064 1.574 . S
C1072 H1067 0.949 . S
C1072 C1078 1.368 . S
C1073 C1057 1.349 . S
C1073 H1065 0.950 . S
C1073 C1071 1.327 . S
C1074 C1062 1.349 . S
C1074 H1068 0.950 . S
C1074 C1075 1.327 . S
C1075 H1069 0.950 . S
C1075 C1074 1.327 . S
C1075 C1079 1.429 . S
C1076 C1059 1.574 . S
C1076 H1070 0.949 . S
C1076 C1080 1.368 . S
C1077 C1058 1.429 . S
C1077 C1071 1.429 . S
C1077 C1078 1.523 . S
C1078 C1059 1.368 . S
C1078 C1072 1.368 . S
C1078 C1077 1.523 . S
C1079 C1063 1.429 . S
C1079 C1075 1.429 . S
C1079 C1080 1.523 . S
C1080 C1064 1.368 . S
C1080 C1076 1.368 . S
C1080 C1079 1.523 . S
H1081 C1056 0.950 . S
H1082 C1058 0.950 . S
H1083 C1059 0.949 . S
H1084 C1061 0.950 . S
H1085 C1063 0.950 . S
C1086 C1087 1.349 . S
C1086 C1088 1.327 . S
C1086 H1111 0.950 . S
C1087 C1086 1.349 . S
C1087 C1103 1.349 . S
C1088 C1086 1.327 . S
C1088 C1107 1.429 . S
C1088 H1112 0.950 . S
C1089 C1106 1.574 1_545 S
C1089 C1108 1.368 . S
C1089 H1113 0.949 . S
H1090 C1094 0.949 . S
C1091 C1092 1.349 . S
C1091 C1093 1.327 . S
C1091 H1114 0.950 . S
C1092 C1091 1.349 . S
C1092 C1104 1.349 . S
C1093 C1091 1.327 . S
C1093 C1109 1.429 . S
C1093 H1115 0.950 . S
C1094 H1090 0.949 . S
C1094 C1102 1.574 1_565 S
C1094 C1110 1.368 . S
H1095 C1103 0.950 . S
H1096 C1101 0.950 . S
H1097 C1102 0.949 . S
H1098 C1104 0.950 . S
H1099 C1105 0.950 . S
H1100 C1106 0.949 . S
C1101 H1096 0.950 . S
C1101 C1103 1.327 . S
C1101 C1107 1.429 . S
C1102 C1094 1.574 1_545 S
C1102 H1097 0.949 . S
C1102 C1108 1.368 . S
C1103 C1087 1.349 . S
C1103 H1095 0.950 . S
C1103 C1101 1.327 . S
C1104 C1092 1.349 . S
C1104 H1098 0.950 . S
C1104 C1105 1.327 . S
C1105 H1099 0.950 . S
C1105 C1104 1.327 . S
C1105 C1109 1.429 . S
C1106 C1089 1.574 1_565 S
C1106 H1100 0.949 . S
C1106 C1110 1.368 . S
C1107 C1088 1.429 . S
C1107 C1101 1.429 . S
C1107 C1108 1.523 . S
C1108 C1089 1.368 . S
C1108 C1102 1.368 . S
C1108 C1107 1.523 . S
C1109 C1093 1.429 . S
C1109 C1105 1.429 . S
C1109 C1110 1.523 . S
C1110 C1094 1.368 . S
C1110 C1106 1.368 . S
C1110 C1109 1.523 . S
H1111 C1086 0.950 . S
H1112 C1088 0.950 . S
H1113 C1089 0.949 . S
H1114 C1091 0.950 . S
H1115 C1093 0.950 . S
C1116 C1117 1.349 . S
C1116 C1118 1.327 . S
C1116 H1141 0.950 . S
C1117 C1116 1.349 . S
C1117 C1133 1.349 . S
C1118 C1116 1.327 . S
C1118 C1137 1.429 . S
C1118 H1142 0.950 . S
C1119 C1136 1.574 . S
C1119 C1138 1.368 . S
C1119 H1143 0.949 . S
H1120 C1124 0.949 . S
C1121 C1122 1.349 . S
C1121 C1123 1.327 . S
C1121 H1144 0.950 . S
C1122 C1121 1.349 . S
C1122 C1134 1.349 . S
C1123 C1121 1.327 . S
C1123 C1139 1.429 . S
C1123 H1145 0.950 . S
C1124 H1120 0.949 . S
C1124 C1132 1.574 . S
C1124 C1140 1.368 . S
H1125 C1133 0.950 . S
H1126 C1131 0.950 . S
H1127 C1132 0.949 . S
H1128 C1134 0.950 . S
H1129 C1135 0.950 . S
H1130 C1136 0.949 . S
C1131 H1126 0.950 . S
C1131 C1133 1.327 . S
C1131 C1137 1.429 . S
C1132 C1124 1.574 . S
C1132 H1127 0.949 . S
C1132 C1138 1.368 . S
C1133 C1117 1.349 . S
C1133 H1125 0.950 . S
C1133 C1131 1.327 . S
C1134 C1122 1.349 . S
C1134 H1128 0.950 . S
C1134 C1135 1.327 . S
C1135 H1129 0.950 . S
C1135 C1134 1.327 . S
C1135 C1139 1.429 . S
C1136 C1119 1.574 . S
C1136 H1130 0.949 . S
C1136 C1140 1.368 . S
C1137 C1118 1.429 . S
C1137 C1131 1.429 . S
C1137 C1138 1.523 . S
C1138 C1119 1.368 . S
C1138 C1132 1.368 . S
C1138 C1137 1.523 . S
C1139 C1123 1.429 . S
C1139 C1135 1.429 . S
C1139 C1140 1.523 . S
C1140 C1124 1.368 . S
C1140 C1136 1.368 . S
C1140 C1139 1.523 . S
H1141 C1116 0.950 . S
H1142 C1118 0.950 . S
H1143 C1119 0.949 . S
H1144 C1121 0.950 . S
H1145 C1123 0.950 . S
C1146 C1147 1.349 . S
C1146 C1148 1.327 . S
C1146 H1171 0.950 . S
C1147 C1146 1.349 . S
C1147 C1163 1.349 . S
C1148 C1146 1.327 . S
C1148 C1167 1.429 . S
C1148 H1172 0.950 . S
C1149 C1166 1.574 1_455 S
C1149 C1168 1.368 . S
C1149 H1173 0.949 . S
H1150 C1154 0.949 . S
C1151 C1152 1.349 . S
C1151 C1153 1.327 . S
C1151 H1174 0.950 . S
C1152 C1151 1.349 . S
C1152 C1164 1.349 . S
C1153 C1151 1.327 . S
C1153 C1169 1.429 . S
C1153 H1175 0.950 . S
C1154 H1150 0.949 . S
C1154 C1162 1.574 1_655 S
C1154 C1170 1.368 . S
H1155 C1163 0.950 . S
H1156 C1161 0.950 . S
H1157 C1162 0.949 . S
H1158 C1164 0.950 . S
H1159 C1165 0.950 . S
H1160 C1166 0.949 . S
C1161 H1156 0.950 . S
C1161 C1163 1.327 . S
C1161 C1167 1.429 . S
C1162 C1154 1.574 1_455 S
C1162 H1157 0.949 . S
C1162 C1168 1.368 . S
C1163 C1147 1.349 . S
C1163 H1155 0.950 . S
C1163 C1161 1.327 . S
C1164 C1152 1.349 . S
C1164 H1158 0.950 . S
C1164 C1165 1.327 . S
C1165 H1159 0.950 . S
C1165 C1164 1.327 . S
C1165 C1169 1.429 . S
C1166 C1149 1.574 1_655 S
C1166 H1160 0.949 . S
C1166 C1170 1.368 . S
C1167 C1148 1.429 . S
C1167 C1161 1.429 . S
C1167 C1168 1.523 . S
C1168 C1149 1.368 . S
C1168 C1162 1.368 . S
C1168 C1167 1.523 . S
C1169 C1153 1.429 . S
C1169 C1165 1.429 . S
C1169 C1170 1.523 . S
C1170 C1154 1.368 . S
C1170 C1166 1.368 . S
C1170 C1169 1.523 . S
H1171 C1146 0.950 . S
H1172 C1148 0.950 . S
H1173 C1149 0.949 . S
H1174 C1151 0.950 . S
H1175 C1153 0.950 . S
C1176 C1177 1.349 . S
C1176 C1178 1.327 . S
C1176 H1201 0.950 . S
C1177 C1176 1.349 . S
C1177 C1193 1.349 . S
C1178 C1176 1.327 . S
C1178 C1197 1.429 . S
C1178 H1202 0.950 . S
C1179 C1196 1.574 . S
C1179 C1198 1.368 . S
C1179 H1203 0.949 . S
H1180 C1184 0.949 . S
C1181 C1182 1.349 . S
C1181 C1183 1.327 . S
C1181 H1204 0.950 . S
C1182 C1181 1.349 . S
C1182 C1194 1.349 . S
C1183 C1181 1.327 . S
C1183 C1199 1.429 . S
C1183 H1205 0.950 . S
C1184 H1180 0.949 . S
C1184 C1192 1.574 . S
C1184 C1200 1.368 . S
H1185 C1193 0.950 . S
H1186 C1191 0.950 . S
H1187 C1192 0.949 . S
H1188 C1194 0.950 . S
H1189 C1195 0.950 . S
H1190 C1196 0.949 . S
C1191 H1186 0.950 . S
C1191 C1193 1.327 . S
C1191 C1197 1.429 . S
C1192 C1184 1.574 . S
C1192 H1187 0.949 . S
C1192 C1198 1.368 . S
C1193 C1177 1.349 . S
C1193 H1185 0.950 . S
C1193 C1191 1.327 . S
C1194 C1182 1.349 . S
C1194 H1188 0.950 . S
C1194 C1195 1.327 . S
C1195 H1189 0.950 . S
C1195 C1194 1.327 . S
C1195 C1199 1.429 . S
C1196 C1179 1.574 . S
C1196 H1190 0.949 . S
C1196 C1200 1.368 . S
C1197 C1178 1.429 . S
C1197 C1191 1.429 . S
C1197 C1198 1.523 . S
C1198 C1179 1.368 . S
C1198 C1192 1.368 . S
C1198 C1197 1.523 . S
C1199 C1183 1.429 . S
C1199 C1195 1.429 . S
C1199 C1200 1.523 . S
C1200 C1184 1.368 . S
C1200 C1196 1.368 . S
C1200 C1199 1.523 . S
H1201 C1176 0.950 . S
H1202 C1178 0.950 . S
H1203 C1179 0.949 . S
H1204 C1181 0.950 . S
H1205 C1183 0.950 . S
C1206 C1207 1.349 . S
C1206 C1208 1.327 . S
C1206 H1231 0.950 . S
C1207 C1206 1.349 . S
C1207 C1223 1.349 . S
C1208 C1206 1.327 . S
C1208 C1227 1.429 . S
C1208 H1232 0.950 . S
C1209 C1226 1.574 1_655 S
C1209 C1228 1.368 . S
C1209 H1233 0.949 . S
H1210 C1214 0.949 . S
C1211 C1212 1.349 . S
C1211 C1213 1.327 . S
C1211 H1234 0.950 . S
C1212 C1211 1.349 . S
C1212 C1224 1.349 . S
C1213 C1211 1.327 . S
C1213 C1229 1.429 . S
C1213 H1235 0.950 . S
C1214 H1210 0.949 . S
C1214 C1222 1.574 1_455 S
C1214 C1230 1.368 . S
H1215 C1223 0.950 . S
H1216 C1221 0.950 . S
H1217 C1222 0.949 . S
H1218 C1224 0.950 . S
H1219 C1225 0.950 . S
H1220 C1226 0.949 . S
C1221 H1216 0.950 . S
C1221 C1223 1.327 . S
C1221 C1227 1.429 . S
C1222 C1214 1.574 1_655 S
C1222 H1217 0.949 . S
C1222 C1228 1.368 . S
C1223 C1207 1.349 . S
C1223 H1215 0.950 . S
C1223 C1221 1.327 . S
C1224 C1212 1.349 . S
C1224 H1218 0.950 . S
C1224 C1225 1.327 . S
C1225 H1219 0.950 . S
C1225 C1224 1.327 . S
C1225 C1229 1.429 . S
C1226 C1209 1.574 1_455 S
C1226 H1220 0.949 . S
C1226 C1230 1.368 . S
C1227 C1208 1.429 . S
C1227 C1221 1.429 . S
C1227 C1228 1.523 . S
C1228 C1209 1.368 . S
C1228 C1222 1.368 . S
C1228 C1227 1.523 . S
C1229 C1213 1.429 . S
C1229 C1225 1.429 . S
C1229 C1230 1.523 . S
C1230 C1214 1.368 . S
C1230 C1226 1.368 . S
C1230 C1229 1.523 . S
H1231 C1206 0.950 . S
H1232 C1208 0.950 . S
H1233 C1209 0.949 . S
H1234 C1211 0.950 . S
H1235 C1213 0.950 . S
C1236 C1237 1.349 . S
C1236 C1238 1.327 . S
C1236 H1261 0.950 . S
C1237 C1236 1.349 . S
C1237 C1253 1.349 . S
C1238 C1236 1.327 . S
C1238 C1257 1.429 . S
C1238 H1262 0.950 . S
C1239 C1256 1.574 1_545 S
C1239 C1258 1.368 . S
C1239 H1263 0.949 . S
H1240 C1244 0.949 . S
C1241 C1242 1.349 . S
C1241 C1243 1.327 . S
C1241 H1264 0.950 . S
C1242 C1241 1.349 . S
C1242 C1254 1.349 . S
C1243 C1241 1.327 . S
C1243 C1259 1.429 . S
C1243 H1265 0.950 . S
C1244 H1240 0.949 . S
C1244 C1252 1.574 1_565 S
C1244 C1260 1.368 . S
H1245 C1253 0.950 . S
H1246 C1251 0.950 . S
H1247 C1252 0.949 . S
H1248 C1254 0.950 . S
H1249 C1255 0.950 . S
H1250 C1256 0.949 . S
C1251 H1246 0.950 . S
C1251 C1253 1.327 . S
C1251 C1257 1.429 . S
C1252 C1244 1.574 1_545 S
C1252 H1247 0.949 . S
C1252 C1258 1.368 . S
C1253 C1237 1.349 . S
C1253 H1245 0.950 . S
C1253 C1251 1.327 . S
C1254 C1242 1.349 . S
C1254 H1248 0.950 . S
C1254 C1255 1.327 . S
C1255 H1249 0.950 . S
C1255 C1254 1.327 . S
C1255 C1259 1.429 . S
C1256 C1239 1.574 1_565 S
C1256 H1250 0.949 . S
C1256 C1260 1.368 . S
C1257 C1238 1.429 . S
C1257 C1251 1.429 . S
C1257 C1258 1.523 . S
C1258 C1239 1.368 . S
C1258 C1252 1.368 . S
C1258 C1257 1.523 . S
C1259 C1243 1.429 . S
C1259 C1255 1.429 . S
C1259 C1260 1.523 . S
C1260 C1244 1.368 . S
C1260 C1256 1.368 . S
C1260 C1259 1.523 . S
H1261 C1236 0.950 . S
H1262 C1238 0.950 . S
H1263 C1239 0.949 . S
H1264 C1241 0.950 . S
H1265 C1243 0.950 . S
C1266 C1267 1.349 . S
C1266 C1268 1.327 . S
C1266 H1291 0.950 . S
C1267 C1266 1.349 . S
C1267 C1283 1.349 . S
C1268 C1266 1.327 . S
C1268 C1287 1.429 . S
C1268 H1292 0.950 . S
C1269 C1286 1.574 . S
C1269 C1288 1.368 . S
C1269 H1293 0.949 . S
H1270 C1274 0.949 . S
C1271 C1272 1.349 . S
C1271 C1273 1.327 . S
C1271 H1294 0.950 . S
C1272 C1271 1.349 . S
C1272 C1284 1.349 . S
C1273 C1271 1.327 . S
C1273 C1289 1.429 . S
C1273 H1295 0.950 . S
C1274 H1270 0.949 . S
C1274 C1282 1.574 . S
C1274 C1290 1.368 . S
H1275 C1283 0.950 . S
H1276 C1281 0.950 . S
H1277 C1282 0.949 . S
H1278 C1284 0.950 . S
H1279 C1285 0.950 . S
H1280 C1286 0.949 . S
C1281 H1276 0.950 . S
C1281 C1283 1.327 . S
C1281 C1287 1.429 . S
C1282 C1274 1.574 . S
C1282 H1277 0.949 . S
C1282 C1288 1.368 . S
C1283 C1267 1.349 . S
C1283 H1275 0.950 . S
C1283 C1281 1.327 . S
C1284 C1272 1.349 . S
C1284 H1278 0.950 . S
C1284 C1285 1.327 . S
C1285 H1279 0.950 . S
C1285 C1284 1.327 . S
C1285 C1289 1.429 . S
C1286 C1269 1.574 . S
C1286 H1280 0.949 . S
C1286 C1290 1.368 . S
C1287 C1268 1.429 . S
C1287 C1281 1.429 . S
C1287 C1288 1.523 . S
C1288 C1269 1.368 . S
C1288 C1282 1.368 . S
C1288 C1287 1.523 . S
C1289 C1273 1.429 . S
C1289 C1285 1.429 . S
C1289 C1290 1.523 . S
C1290 C1274 1.368 . S
C1290 C1286 1.368 . S
C1290 C1289 1.523 . S
H1291 C1266 0.950 . S
H1292 C1268 0.950 . S
H1293 C1269 0.949 . S
H1294 C1271 0.950 . S
H1295 C1273 0.950 . S
C1296 C1297 1.349 . S
C1296 C1298 1.327 . S
C1296 H1321 0.950 . S
C1297 C1296 1.349 . S
C1297 C1313 1.349 . S
C1298 C1296 1.327 . S
C1298 C1317 1.429 . S
C1298 H1322 0.950 . S
C1299 C1316 1.574 1_455 S
C1299 C1318 1.368 . S
C1299 H1323 0.949 . S
H1300 C1304 0.949 . S
C1301 C1302 1.349 . S
C1301 C1303 1.327 . S
C1301 H1324 0.950 . S
C1302 C1301 1.349 . S
C1302 C1314 1.349 . S
C1303 C1301 1.327 . S
C1303 C1319 1.429 . S
C1303 H1325 0.950 . S
C1304 H1300 0.949 . S
C1304 C1312 1.574 1_655 S
C1304 C1320 1.368 . S
H1305 C1313 0.950 . S
H1306 C1311 0.950 . S
H1307 C1312 0.949 . S
H1308 C1314 0.950 . S
H1309 C1315 0.950 . S
H1310 C1316 0.949 . S
C1311 H1306 0.950 . S
C1311 C1313 1.327 . S
C1311 C1317 1.429 . S
C1312 C1304 1.574 1_455 S
C1312 H1307 0.949 . S
C1312 C1318 1.368 . S
C1313 C1297 1.349 . S
C1313 H1305 0.950 . S
C1313 C1311 1.327 . S
C1314 C1302 1.349 . S
C1314 H1308 0.950 . S
C1314 C1315 1.327 . S
C1315 H1309 0.950 . S
C1315 C1314 1.327 . S
C1315 C1319 1.429 . S
C1316 C1299 1.574 1_655 S
C1316 H1310 0.949 . S
C1316 C1320 1.368 . S
C1317 C1298 1.429 . S
C1317 C1311 1.429 . S
C1317 C1318 1.523 . S
C1318 C1299 1.368 . S
C1318 C1312 1.368 . S
C1318 C1317 1.523 . S
C1319 C1303 1.429 . S
C1319 C1315 1.429 . S
C1319 C1320 1.523 . S
C1320 C1304 1.368 . S
C1320 C1316 1.368 . S
C1320 C1319 1.523 . S
H1321 C1296 0.950 . S
H1322 C1298 0.950 . S
H1323 C1299 0.949 . S
H1324 C1301 0.950 . S
H1325 C1303 0.950 . S
C1326 C1327 1.349 . S
C1326 C1328 1.327 . S
C1326 H1351 0.950 . S
C1327 C1326 1.349 . S
C1327 C1343 1.349 . S
C1328 C1326 1.327 . S
C1328 C1347 1.429 . S
C1328 H1352 0.950 . S
C1329 C1346 1.574 1_565 S
C1329 C1348 1.368 . S
C1329 H1353 0.949 . S
H1330 C1334 0.949 . S
C1331 C1332 1.349 . S
C1331 C1333 1.327 . S
C1331 H1354 0.950 . S
C1332 C1331 1.349 . S
C1332 C1344 1.349 . S
C1333 C1331 1.327 . S
C1333 C1349 1.429 . S
C1333 H1355 0.950 . S
C1334 H1330 0.949 . S
C1334 C1342 1.574 1_545 S
C1334 C1350 1.368 . S
H1335 C1343 0.950 . S
H1336 C1341 0.950 . S
H1337 C1342 0.949 . S
H1338 C1344 0.950 . S
H1339 C1345 0.950 . S
H1340 C1346 0.949 . S
C1341 H1336 0.950 . S
C1341 C1343 1.327 . S
C1341 C1347 1.429 . S
C1342 C1334 1.574 1_565 S
C1342 H1337 0.949 . S
C1342 C1348 1.368 . S
C1343 C1327 1.349 . S
C1343 H1335 0.950 . S
C1343 C1341 1.327 . S
C1344 C1332 1.349 . S
C1344 H1338 0.950 . S
C1344 C1345 1.327 . S
C1345 H1339 0.950 . S
C1345 C1344 1.327 . S
C1345 C1349 1.429 . S
C1346 C1329 1.574 1_545 S
C1346 H1340 0.949 . S
C1346 C1350 1.368 . S
C1347 C1328 1.429 . S
C1347 C1341 1.429 . S
C1347 C1348 1.523 . S
C1348 C1329 1.368 . S
C1348 C1342 1.368 . S
C1348 C1347 1.523 . S
C1349 C1333 1.429 . S
C1349 C1345 1.429 . S
C1349 C1350 1.523 . S
C1350 C1334 1.368 . S
C1350 C1346 1.368 . S
C1350 C1349 1.523 . S
H1351 C1326 0.950 . S
H1352 C1328 0.950 . S
H1353 C1329 0.949 . S
H1354 C1331 0.950 . S
H1355 C1333 0.950 . S
C637 C569 1.886 . S
C642 C39 1.886 . S
C667 C92 1.886 . S
C672 C622 1.886 . S
C697 C145 1.886 . S
C702 C357 1.886 . S
C727 C198 1.886 . S
C732 C410 1.886 . S
C757 C463 1.886 . S
C762 C251 1.886 . S
C787 C304 1.886 . S
C792 C516 1.886 . S
C817 C462 1.945 . S
C822 C38 1.945 . S
C847 C91 1.945 . S
C852 C515 1.945 . S
C877 C144 1.945 . S
C882 C568 1.945 . S
C907 C197 1.945 . S
C912 C621 1.945 . S
C937 C356 1.945 . S
C942 C250 1.945 . S
C967 C409 1.945 . S
C972 C303 1.945 . S
C997 C188 0.875 . S
C1002 C29 0.875 . S
C1027 C82 0.875 . S
C1032 C241 0.875 . S
C1057 C294 0.875 . S
C1062 C135 0.875 . S
C1087 C506 0.875 . S
C1092 C347 0.875 . S
C1117 C559 0.875 . S
C1122 C400 0.875 . S
C1147 C453 0.875 . S
C1152 C612 0.875 . S
C1177 C181 2.143 . S
C1182 C22 2.143 . S
C1207 C75 2.143 . S
C1212 C234 2.143 . S
C1237 C287 2.143 . S
C1242 C128 2.143 . S
C1267 C340 2.143 . S
C1272 C499 2.143 . S
C1297 C552 2.143 . S
C1302 C393 2.143 . S
C1327 C446 2.143 . S
C1332 C605 2.143 . S
