# Generated by pormake.
# Topology uoq, (4)-cn, num edge types: 1
# Building blocks:
#     Node 0, Type 0, BuildingBlock: QUQFOY_clean_sbu_3, # of connection points: 4
#     Node 1, Type 0, BuildingBlock: QUQFOY_clean_sbu_3, # of connection points: 4
#     Node 2, Type 0, BuildingBlock: QUQFOY_clean_sbu_3, # of connection points: 4
#     Node 3, Type 0, BuildingBlock: QUQFOY_clean_sbu_3, # of connection points: 4
#     Node 4, Type 0, BuildingBlock: QUQFOY_clean_sbu_3, # of connection points: 4
#     Node 5, Type 0, BuildingBlock: QUQFOY_clean_sbu_3, # of connection points: 4
#     Node 6, Type 0, BuildingBlock: QUQFOY_clean_sbu_3, # of connection points: 4
#     Node 7, Type 0, BuildingBlock: QUQFOY_clean_sbu_3, # of connection points: 4
#     Node 8, Type 0, BuildingBlock: QUQFOY_clean_sbu_3, # of connection points: 4
#     Node 9, Type 0, BuildingBlock: QUQFOY_clean_sbu_3, # of connection points: 4
#     Node 10, Type 0, BuildingBlock: QUQFOY_clean_sbu_3, # of connection points: 4
#     Node 11, Type 0, BuildingBlock: QUQFOY_clean_sbu_3, # of connection points: 4
#     Edge 12, Type (0, 0), BuildingBlock: UVAHIK_clean_linker_0, # of connection points: 2
#     Edge 13, Type (0, 0), BuildingBlock: UVAHIK_clean_linker_0, # of connection points: 2
#     Edge 14, Type (0, 0), BuildingBlock: UVAHIK_clean_linker_0, # of connection points: 2
#     Edge 15, Type (0, 0), BuildingBlock: UVAHIK_clean_linker_0, # of connection points: 2
#     Edge 16, Type (0, 0), BuildingBlock: UVAHIK_clean_linker_0, # of connection points: 2
#     Edge 17, Type (0, 0), BuildingBlock: UVAHIK_clean_linker_0, # of connection points: 2
#     Edge 18, Type (0, 0), BuildingBlock: UVAHIK_clean_linker_0, # of connection points: 2
#     Edge 19, Type (0, 0), BuildingBlock: UVAHIK_clean_linker_0, # of connection points: 2
#     Edge 20, Type (0, 0), BuildingBlock: UVAHIK_clean_linker_0, # of connection points: 2
#     Edge 21, Type (0, 0), BuildingBlock: UVAHIK_clean_linker_0, # of connection points: 2
#     Edge 22, Type (0, 0), BuildingBlock: UVAHIK_clean_linker_0, # of connection points: 2
#     Edge 23, Type (0, 0), BuildingBlock: UVAHIK_clean_linker_0, # of connection points: 2
#     Edge 24, Type (0, 0), BuildingBlock: UVAHIK_clean_linker_0, # of connection points: 2
#     Edge 25, Type (0, 0), BuildingBlock: UVAHIK_clean_linker_0, # of connection points: 2
#     Edge 26, Type (0, 0), BuildingBlock: UVAHIK_clean_linker_0, # of connection points: 2
#     Edge 27, Type (0, 0), BuildingBlock: UVAHIK_clean_linker_0, # of connection points: 2
#     Edge 28, Type (0, 0), BuildingBlock: UVAHIK_clean_linker_0, # of connection points: 2
#     Edge 29, Type (0, 0), BuildingBlock: UVAHIK_clean_linker_0, # of connection points: 2
#     Edge 30, Type (0, 0), BuildingBlock: UVAHIK_clean_linker_0, # of connection points: 2
#     Edge 31, Type (0, 0), BuildingBlock: UVAHIK_clean_linker_0, # of connection points: 2
#     Edge 32, Type (0, 0), BuildingBlock: UVAHIK_clean_linker_0, # of connection points: 2
#     Edge 33, Type (0, 0), BuildingBlock: UVAHIK_clean_linker_0, # of connection points: 2
#     Edge 34, Type (0, 0), BuildingBlock: UVAHIK_clean_linker_0, # of connection points: 2
#     Edge 35, Type (0, 0), BuildingBlock: UVAHIK_clean_linker_0, # of connection points: 2
# Relax obj value: 0.160
# Max RMSD: 0.152
# Mean RMSD: 0.152
data_MOF--net-uoq--node1-QUQFOY_clean_sbu_3--edge1-UVAHIK_clean_linker_0
_symmetry_space_group_name_H-M    P1
_symmetry_Int_Tables_number       1
_symmetry_cell_setting            triclinic
loop_
_symmetry_equiv_pos_as_xyz
'x, y, z'
_cell_length_a     78.510468
_cell_length_b     78.363449
_cell_length_c     30.310545
_cell_angle_alpha  90.005265
_cell_angle_beta   89.981212
_cell_angle_gamma 119.95614
loop_
_atom_site_label
_atom_site_type_symbol
_atom_site_fract_x
_atom_site_fract_y
_atom_site_fract_z
_atom_type_partial_charge
C0 C 0.2899 0.39776 0.29299 0.0
O1 O 0.2858 0.40254 0.32981 0.0
Cd2 Cd 0.28319 0.431 0.34222 0.0
O3 O 0.29116 0.4074 0.25796 0.0
Cd4 Cd 0.28489 0.43498 0.23803 0.0
C5 C 0.32612 0.46641 0.29174 0.0
O6 O 0.25963 0.42935 0.2911 0.0
O7 O 0.27582 0.45889 0.26565 0.0
O8 O 0.26266 0.41596 0.17824 0.0
C9 C 0.26142 0.44628 0.28815 0.0
O10 O 0.31587 0.45909 0.32652 0.0
C11 C 0.2697 0.42993 0.1504 0.0
O12 O 0.31895 0.45963 0.25375 0.0
O13 O 0.28491 0.44579 0.16211 0.0
C14 C 0.88071 0.29203 0.62954 0.0
O15 O 0.8729 0.28857 0.66756 0.0
Cd16 Cd 0.84236 0.28547 0.68704 0.0
O17 O 0.87143 0.29266 0.59545 0.0
Cd18 Cd 0.83702 0.28592 0.57914 0.0
C19 C 0.84749 0.32744 0.63452 0.0
O20 O 0.82056 0.26231 0.63626 0.0
O21 O 0.80395 0.27499 0.61076 0.0
O22 O 0.83277 0.26325 0.51931 0.0
C23 C 0.8048 0.26293 0.6372 0.0
O24 O 0.84596 0.3176 0.6693 0.0
C25 C 0.8251 0.26994 0.49253 0.0
O26 O 0.84598 0.31998 0.59626 0.0
O27 O 0.82441 0.28511 0.50475 0.0
C28 C 0.57452 0.88778 0.95578 0.0
O29 O 0.57054 0.88068 -0.0055 0.0
Cd30 Cd 0.54324 0.85048 0.01671 0.0
O31 O 0.56427 0.87789 0.9226 0.0
Cd32 Cd 0.53656 0.84313 0.90948 0.0
C33 C 0.50576 0.85426 0.96374 0.0
O34 O 0.54436 0.82781 0.9681 0.0
O35 O 0.51501 0.8104 0.94363 0.0
O36 O 0.55501 0.83858 0.85028 0.0
C37 C 0.52816 0.81189 0.97012 0.0
O38 O 0.51442 0.85346 -0.00137 0.0
C39 C 0.54059 0.83019 0.82388 0.0
O40 O 0.51142 0.85214 0.92566 0.0
O41 O 0.52457 0.82912 0.83596 0.0
C42 C 0.67935 0.5823 0.29739 0.0
O43 O 0.6819 0.57646 0.33456 0.0
Cd44 Cd 0.68661 0.54967 0.35002 0.0
O45 O 0.68006 0.57397 0.26165 0.0
Cd46 Cd 0.68737 0.54672 0.2428 0.0
C47 C 0.64578 0.51342 0.29466 0.0
O48 O 0.71116 0.55395 0.29956 0.0
O49 O 0.69908 0.52485 0.27335 0.0
O50 O 0.70999 0.56583 0.18329 0.0
C51 C 0.71129 0.53792 0.29925 0.0
O52 O 0.65527 0.52084 0.33027 0.0
C53 C 0.70361 0.55162 0.15611 0.0
O54 O 0.6534 0.52065 0.2572 0.0
O55 O 0.6886 0.53561 0.16793 0.0
C56 C 0.09083 0.6857 0.63779 0.0
O57 O 0.10077 0.68909 0.67296 0.0
Cd58 Cd 0.13235 0.69239 0.67881 0.0
O59 O 0.09816 0.6851 0.60054 0.0
Cd60 Cd 0.13095 0.69054 0.57394 0.0
C61 C 0.12261 0.6492 0.62594 0.0
O62 O 0.15241 0.71578 0.62512 0.0
O63 O 0.16452 0.69917 0.59572 0.0
O64 O 0.13284 0.7129 0.51545 0.0
C65 C 0.16723 0.71371 0.61909 0.0
O66 O 0.12706 0.65969 0.66078 0.0
C67 C 0.13868 0.70557 0.4858 0.0
O68 O 0.12156 0.65621 0.5887 0.0
O69 O 0.13927 0.69015 0.49611 0.0
C70 C 0.39221 0.09197 0.97182 0.0
O71 O 0.39854 0.09993 0.00921 0.0
Cd72 Cd 0.42512 0.13145 0.02542 0.0
O73 O 0.39999 0.10145 0.93616 0.0
Cd74 Cd 0.42724 0.13594 0.91764 0.0
C75 C 0.46088 0.12727 0.9671 0.0
O76 O 0.42057 0.15208 0.97637 0.0
O77 O 0.44917 0.16946 0.94812 0.0
O78 O 0.40826 0.14026 0.85896 0.0
C79 C 0.4365 0.1683 0.97566 0.0
O80 O 0.4538 0.12915 0.00344 0.0
C81 C 0.42233 0.14769 0.83143 0.0
O82 O 0.45332 0.12787 0.93027 0.0
O83 O 0.43814 0.14817 0.84275 0.0
C84 C 0.57399 0.68553 0.33398 0.0
O85 O 0.5679 0.68924 0.29848 0.0
Cd86 Cd 0.54047 0.69387 0.29121 0.0
O87 O 0.5659 0.6851 0.37091 0.0
Cd88 Cd 0.53853 0.6908 0.39609 0.0
C89 C 0.50589 0.6504 0.34071 0.0
O90 O 0.54371 0.7169 0.34592 0.0
O91 O 0.51462 0.70069 0.37343 0.0
O92 O 0.55782 0.71219 0.45698 0.0
C93 C 0.52701 0.71536 0.35121 0.0
O94 O 0.51252 0.66127 0.30657 0.0
C95 C 0.54409 0.70443 0.48527 0.0
O96 O 0.51341 0.65687 0.37861 0.0
O97 O 0.52838 0.68916 0.47315 0.0
C98 C 0.88316 0.57924 0.67501 0.0
O99 O 0.87434 0.57323 0.63836 0.0
Cd100 Cd 0.84228 0.54625 0.62742 0.0
O101 O 0.87447 0.57114 0.71114 0.0
Cd102 Cd 0.8406 0.54395 0.73226 0.0
C103 C 0.84815 0.51036 0.68005 0.0
O104 O 0.82178 0.55036 0.67853 0.0
O105 O 0.80708 0.52111 0.70574 0.0
O106 O 0.83817 0.5637 0.79179 0.0
C107 C 0.80609 0.53398 0.68239 0.0
O108 O 0.84506 0.51733 0.6449 0.0
C109 C 0.83103 0.54986 0.81994 0.0
O110 O 0.84874 0.51806 0.71751 0.0
O111 O 0.82991 0.53373 0.80852 0.0
C112 C 0.28626 0.88382 -0.00337 0.0
O113 O 0.28392 0.87498 0.9601 0.0
Cd114 Cd 0.28011 0.8436 0.94732 0.0
O115 O 0.2858 0.87536 0.03313 0.0
Cd116 Cd 0.27955 0.84155 0.05561 0.0
C117 C 0.32149 0.85039 0.0044 0.0
O118 O 0.25622 0.82357 -0.00085 0.0
O119 O 0.26886 0.80765 0.02854 0.0
O120 O 0.25666 0.83844 0.11412 0.0
C121 C 0.25674 0.80775 0.00113 0.0
O122 O 0.31187 0.84747 0.96864 0.0
C123 C 0.26337 0.83143 0.14258 0.0
O124 O 0.31383 0.85034 0.0416 0.0
O125 O 0.27863 0.83068 0.13178 0.0
C126 C 0.39507 0.29582 0.3477 0.0
O127 O 0.39956 0.29086 0.3116 0.0
Cd128 Cd 0.42773 0.28768 0.30049 0.0
O129 O 0.40487 0.29775 0.38283 0.0
Cd130 Cd 0.43234 0.29171 0.4049 0.0
C131 C 0.46365 0.33165 0.34687 0.0
O132 O 0.42627 0.2653 0.35474 0.0
O133 O 0.45583 0.2817 0.37967 0.0
O134 O 0.41289 0.27058 0.46573 0.0
C135 C 0.44311 0.26698 0.35813 0.0
O136 O 0.45595 0.32057 0.31336 0.0
C137 C 0.42678 0.27761 0.49367 0.0
O138 O 0.4572 0.32545 0.38565 0.0
O139 O 0.44287 0.29244 0.48148 0.0
C140 C 0.0876 0.39721 0.67442 0.0
O141 O 0.09572 0.40177 0.63674 0.0
Cd142 Cd 0.12641 0.42936 0.61904 0.0
O143 O 0.09659 0.40698 0.70891 0.0
Cd144 Cd 0.13083 0.43472 0.72652 0.0
C145 C 0.12068 0.4659 0.67097 0.0
O146 O 0.14772 0.42748 0.6706 0.0
O147 O 0.16419 0.45682 0.69592 0.0
O148 O 0.13436 0.41611 0.78693 0.0
C149 C 0.16358 0.44377 0.67026 0.0
O150 O 0.12254 0.45778 0.63625 0.0
C151 C 0.14201 0.43046 0.81375 0.0
O152 O 0.12193 0.45983 0.70924 0.0
O153 O 0.14299 0.44641 0.80125 0.0
C154 C 0.67869 0.09499 0.00491 0.0
O155 O 0.68364 0.10489 0.96941 0.0
Cd156 Cd 0.68744 0.13666 0.96085 0.0
O157 O 0.67701 0.10254 0.04089 0.0
Cd158 Cd 0.68326 0.13589 0.06539 0.0
C159 C 0.64358 0.12833 0.00782 0.0
O160 O 0.7098 0.15662 0.01617 0.0
O161 O 0.69352 0.16974 0.04222 0.0
O162 O 0.70408 0.13713 0.12648 0.0
C163 C 0.70827 0.17185 0.02069 0.0
O164 O 0.65466 0.13215 0.97417 0.0
C165 C 0.69671 0.14359 0.15463 0.0
O166 O 0.64971 0.12748 0.04627 0.0
O167 O 0.68183 0.14474 0.14236 0.0
C168 C 0.30864 0.38234 0.26227 0.0
C169 C 0.29487 0.38191 0.29243 0.0
C170 C 0.31596 0.36942 0.26715 0.0
C171 C 0.3225 0.34005 0.35436 0.0
H172 H 0.34169 0.32247 0.25671 0.0
C173 C 0.36485 0.29315 0.31403 0.0
C174 C 0.37923 0.30079 0.34729 0.0
C175 C 0.35153 0.29989 0.30916 0.0
C176 C 0.33613 0.32693 0.28447 0.0
H177 H 0.27672 0.36664 0.34901 0.0
H178 H 0.28878 0.34359 0.35635 0.0
H179 H 0.32303 0.33893 0.24192 0.0
H180 H 0.39043 0.32087 0.40271 0.0
H181 H 0.3676 0.33316 0.39351 0.0
H182 H 0.33523 0.32769 0.39692 0.0
C183 C 0.29459 0.35436 0.33004 0.0
C184 C 0.32566 0.33667 0.27591 0.0
C185 C 0.28754 0.36746 0.3256 0.0
C186 C 0.37943 0.31464 0.37694 0.0
C187 C 0.36628 0.32163 0.37166 0.0
C188 C 0.33277 0.33012 0.36293 0.0
C189 C 0.30942 0.35563 0.30189 0.0
C190 C 0.31899 0.34366 0.31073 0.0
C191 C 0.35247 0.31469 0.33699 0.0
C192 C 0.34003 0.32373 0.32811 0.0
H193 H 0.31464 0.39341 0.23657 0.0
H194 H 0.32748 0.37098 0.24502 0.0
H195 H 0.31786 0.34543 0.38213 0.0
H196 H 0.36419 0.28226 0.291 0.0
H197 H 0.34078 0.2938 0.28289 0.0
C198 C 0.9089 0.28932 0.65835 0.0
C199 C 0.90142 0.29694 0.62668 0.0
C200 C 0.92907 0.29662 0.66191 0.0
C201 C 0.97732 0.32863 0.60776 0.0
H202 H -0.00378 0.33786 0.72855 0.0
C203 C 0.05371 0.38193 0.70655 0.0
C204 C 0.06693 0.38122 0.67648 0.0
C205 C 0.03349 0.36889 0.70226 0.0
C206 C -0.00879 0.33547 0.69464 0.0
H207 H 0.90903 0.31738 0.57227 0.0
H208 H 0.94444 0.33057 0.57902 0.0
H209 H 0.96106 0.32044 0.71421 0.0
H210 H 0.06968 0.36534 0.6209 0.0
H211 H 0.03464 0.34219 0.61451 0.0
H212 H 0.00746 0.3446 0.58821 0.0
C213 C 0.9347 0.3187 0.60072 0.0
C214 C 0.97102 0.32521 0.68633 0.0
C215 C 0.91441 0.31116 0.59677 0.0
C216 C 0.05976 0.36638 0.6442 0.0
C217 C 0.03966 0.35323 0.64028 0.0
C218 C -0.00248 0.33901 0.61607 0.0
C219 C 0.94229 0.31195 0.63432 0.0
C220 C 0.96381 0.32178 0.64278 0.0
C221 C 0.02621 0.35478 0.66816 0.0
C222 C 0.00472 0.34269 0.65963 0.0
H223 H 0.89917 0.27816 0.68152 0.0
H224 H 0.93434 0.29067 0.68727 0.0
H225 H 0.97232 0.32611 0.57385 0.0
H226 H 0.05885 0.39332 0.73155 0.0
H227 H 0.02355 0.3706 0.72419 0.0
C228 C 0.58852 0.9213 0.92217 0.0
C229 C 0.59047 0.90834 0.9509 0.0
C230 C 0.6016 0.9416 0.92498 0.0
C231 C 0.63433 0.98438 0.92945 0.0
H232 H 0.64812 0.00322 0.04974 0.0
C233 C 0.67964 0.0672 0.96703 0.0
C234 C 0.67331 0.07404 0.00281 0.0
C235 C 0.67245 0.04708 0.96109 0.0
C236 C 0.64434 -0.00176 0.01597 0.0
H237 H 0.60849 0.90605 0.00206 0.0
H238 H 0.63178 0.94122 0.00552 0.0
H239 H 0.63015 0.96807 0.0354 0.0
H240 H 0.65509 0.06522 0.06144 0.0
H241 H 0.64212 0.03003 0.05061 0.0
H242 H 0.64754 0.0146 0.91037 0.0
C243 C 0.61977 0.93597 0.98216 0.0
C244 C 0.63428 0.97803 0.00758 0.0
C245 C 0.60654 0.9158 0.97989 0.0
C246 C 0.66032 0.0604 0.0337 0.0
C247 C 0.65293 0.04021 0.02747 0.0
C248 C 0.64426 0.00462 0.93789 0.0
C249 C 0.61698 0.94922 0.95614 0.0
C250 C 0.62898 0.97081 0.96425 0.0
C251 C 0.65857 0.03329 -0.0095 0.0
C252 C 0.64921 0.01181 0.98133 0.0
H253 H 0.57615 0.9159 0.89976 0.0
H254 H 0.59891 0.95135 0.90454 0.0
H255 H 0.63068 0.97938 0.89566 0.0
H256 H 0.68984 0.07738 0.94292 0.0
H257 H 0.67752 0.04234 0.93292 0.0
C258 C 0.67591 0.60836 0.33661 0.0
C259 C 0.67422 0.59811 0.29722 0.0
C260 C 0.66848 0.62115 0.33959 0.0
C261 C 0.65161 0.65022 0.27879 0.0
H262 H 0.61555 0.6373 0.37713 0.0
C263 C 0.59556 0.67707 0.28954 0.0
C264 C 0.58953 0.68009 0.33112 0.0
C265 C 0.60857 0.66991 0.286 0.0
C266 C 0.62588 0.64147 0.35006 0.0
H267 H 0.6646 0.59438 0.22909 0.0
H268 H 0.65162 0.61706 0.23434 0.0
H269 H 0.63367 0.61988 0.36812 0.0
H270 H 0.59337 0.67899 0.40166 0.0
H271 H 0.61666 0.66704 0.39557 0.0
H272 H 0.64397 0.67196 0.26088 0.0
C273 C 0.65868 0.61497 0.26288 0.0
C274 C 0.63617 0.63137 0.34474 0.0
C275 C 0.66607 0.602 0.2599 0.0
C276 C 0.59758 0.67665 0.36916 0.0
C277 C 0.61082 0.66967 0.3656 0.0
C278 C 0.64149 0.66056 0.28443 0.0
C279 C 0.65928 0.62415 0.30323 0.0
C280 C 0.64899 0.63551 0.30889 0.0
C281 C 0.61612 0.66577 0.32395 0.0
C282 C 0.6283 0.65614 0.31989 0.0
H283 H 0.68238 0.606 0.36588 0.0
H284 H 0.66945 0.62831 0.37083 0.0
H285 H 0.66156 0.6538 0.25111 0.0
H286 H 0.58966 0.67953 0.25944 0.0
H287 H 0.61201 0.66685 0.2534 0.0
C288 C 0.91376 0.60229 0.63408 0.0
C289 C 0.90408 0.59503 0.67462 0.0
C290 C 0.93383 0.61584 0.63264 0.0
C291 C 0.97873 0.63254 0.69869 0.0
H292 H 0.00219 0.67085 0.60433 0.0
C293 C 0.06229 0.68131 0.68303 0.0
C294 C 0.07004 0.68081 0.64146 0.0
C295 C 0.04223 0.67424 0.68839 0.0
C296 C -0.00418 0.66021 0.63081 0.0
H297 H 0.90782 0.5971 0.74565 0.0
H298 H 0.94295 0.62121 0.74322 0.0
H299 H 0.96651 0.65278 0.61343 0.0
H300 H 0.06284 0.67358 0.57239 0.0
H301 H 0.02763 0.66124 0.58183 0.0
H302 H 0.00804 0.63993 0.71589 0.0
C303 C 0.93501 0.61602 0.71243 0.0
C304 C 0.97539 0.64982 0.63603 0.0
C305 C 0.91485 0.60228 0.71387 0.0
C306 C 0.05736 0.67412 0.60485 0.0
C307 C 0.03722 0.66712 0.61022 0.0
C308 C -0.00087 0.64308 0.69375 0.0
C309 C 0.94481 0.62268 0.67172 0.0
C310 C 0.96656 0.63554 0.66948 0.0
C311 C 0.02941 0.66661 0.6523 0.0
C312 C 0.00786 0.65676 0.6593 0.0
H313 H 0.90598 0.59707 0.6031 0.0
H314 H 0.94084 0.62032 0.60067 0.0
H315 H 0.97251 0.62145 0.7243 0.0
H316 H 0.07162 0.68656 0.71195 0.0
H317 H 0.03666 0.67431 0.72105 0.0
C318 C 0.29 0.91289 0.95478 0.0
C319 C 0.29098 0.90463 -0.00471 0.0
C320 C 0.29699 0.93303 0.951 0.0
C321 C 0.31143 0.97882 0.01124 0.0
H322 H 0.34978 0.00304 0.91732 0.0
C323 C 0.369 0.06093 0.01098 0.0
C324 C 0.37635 0.07106 0.97092 0.0
C325 C 0.35544 0.04085 0.01144 0.0
C326 C 0.33879 -0.00343 0.94306 0.0
H327 H 0.29892 0.91094 0.0643 0.0
H328 H 0.31112 0.94638 0.05763 0.0
H329 H 0.33148 0.96737 0.92438 0.0
H330 H 0.37437 0.06812 0.89973 0.0
H331 H 0.35018 0.03289 0.90044 0.0
H332 H 0.3187 0.00799 0.02999 0.0
C333 C 0.30495 0.9371 0.02885 0.0
C334 C 0.32839 0.9761 0.94726 0.0
C335 C 0.29801 0.91685 0.03264 0.0
C336 C 0.36912 0.06073 0.93113 0.0
C337 C 0.35534 0.04053 0.9316 0.0
C338 C 0.32166 -0.00069 0.00671 0.0
C339 C 0.30503 0.94541 -0.01236 0.0
C340 C 0.31487 0.96705 0.98183 0.0
C341 C 0.34863 0.03028 0.97185 0.0
C342 C 0.33581 0.00847 0.97314 0.0
H343 H 0.28442 0.90392 0.92537 0.0
H344 H 0.29658 0.939 0.91904 0.0
H345 H 0.3009 0.97217 0.03782 0.0
H346 H 0.37417 0.06835 0.04238 0.0
H347 H 0.35095 0.0335 0.04307 0.0
C348 C 0.14969 0.4114 0.86876 0.0
C349 C 0.15191 0.42947 0.85442 0.0
C350 C 0.16176 0.41086 0.90203 0.0
C351 C 0.21115 0.44096 0.94578 0.0
H352 H 0.19321 0.40439 0.04392 0.0
C353 C 0.26282 0.44602 0.08705 0.0
C354 C 0.2589 0.42874 0.10945 0.0
C355 C 0.25019 0.44548 0.05388 0.0
C356 C 0.19855 0.41445 0.01623 0.0
H357 H 0.16784 0.46104 0.86535 0.0
H358 H 0.18902 0.46008 0.92315 0.0
H359 H 0.16927 0.40473 -0.00682 0.0
H360 H 0.23947 0.39713 0.11246 0.0
H361 H 0.21792 0.39602 0.0533 0.0
H362 H 0.2404 0.45041 0.96778 0.0
C363 C 0.17799 0.44636 0.90847 0.0
C364 C 0.18477 0.41473 -0.01258 0.0
C365 C 0.16574 0.44688 0.87566 0.0
C366 C 0.24281 0.41072 0.09599 0.0
C367 C 0.23032 0.41014 0.06241 0.0
C368 C 0.22494 0.44051 0.97419 0.0
C369 C 0.17646 0.42841 0.92116 0.0
C370 C 0.19094 0.42811 0.95214 0.0
C371 C 0.23346 0.42759 0.04189 0.0
C372 C 0.21884 0.42735 0.01004 0.0
H373 H 0.13917 0.39773 0.85303 0.0
H374 H 0.16027 0.39682 0.91118 0.0
H375 H 0.21633 0.45118 0.91832 0.0
H376 H 0.27501 0.46016 0.09685 0.0
H377 H 0.25306 0.45927 0.03926 0.0
C378 C 0.81698 0.24297 0.43784 0.0
C379 C 0.81493 0.2589 0.45218 0.0
C380 C 0.80483 0.23039 0.40462 0.0
C381 C 0.76818 0.22478 0.31866 0.0
H382 H 0.74949 0.16908 0.33509 0.0
C383 C 0.703 0.16566 0.21952 0.0
C384 C 0.70705 0.15251 0.1965 0.0
C385 C 0.71557 0.17756 0.25301 0.0
C386 C 0.75464 0.18459 0.33008 0.0
H387 H 0.79908 0.27462 0.44163 0.0
H388 H 0.77761 0.25252 0.38473 0.0
H389 H 0.77381 0.19301 0.38585 0.0
H390 H 0.72658 0.14045 0.19285 0.0
H391 H 0.74823 0.16091 0.25221 0.0
H392 H 0.74854 0.21619 0.26354 0.0
C393 C 0.78881 0.24984 0.39833 0.0
C394 C 0.76872 0.19837 0.35889 0.0
C395 C 0.80113 0.26255 0.43113 0.0
C396 C 0.72307 0.15045 0.20995 0.0
C397 C 0.73548 0.16216 0.2439 0.0
C398 C 0.75392 0.21099 0.2903 0.0
C399 C 0.79015 0.2333 0.38535 0.0
C400 C 0.7757 0.21867 0.35359 0.0
C401 C 0.73225 0.17633 0.26461 0.0
C402 C 0.74698 0.19076 0.29575 0.0
H403 H 0.82756 0.23984 0.45326 0.0
H404 H 0.80669 0.21815 0.39472 0.0
H405 H 0.77342 0.24025 0.31289 0.0
H406 H 0.69081 0.16764 0.20993 0.0
H407 H 0.71259 0.18817 0.26892 0.0
C408 C 0.52449 0.80534 0.76371 0.0
C409 C 0.54174 0.8199 0.78401 0.0
C410 C 0.52536 0.79318 0.73109 0.0
C411 C 0.55849 0.7754 0.69026 0.0
H412 H 0.52013 0.75345 0.59601 0.0
C413 C 0.56282 0.7313 0.54025 0.0
C414 C 0.54515 0.71463 0.52717 0.0
C415 C 0.56296 0.74338 0.5744 0.0
C416 C 0.53082 0.75932 0.62246 0.0
H417 H 0.57353 0.83396 0.78407 0.0
H418 H 0.57515 0.81337 0.72585 0.0
H419 H 0.51971 0.77761 0.64585 0.0
H420 H 0.51399 0.69694 0.54149 0.0
H421 H 0.51425 0.71814 0.60081 0.0
H422 H 0.56989 0.7574 0.66564 0.0
C423 C 0.56086 0.8108 0.73618 0.0
C424 C 0.53059 0.77318 0.65111 0.0
C425 C 0.55996 0.82279 0.76923 0.0
C426 C 0.52786 0.70965 0.55074 0.0
C427 C 0.52795 0.72188 0.58444 0.0
C428 C 0.55888 0.76174 0.66115 0.0
C429 C 0.54354 0.79545 0.71753 0.0
C430 C 0.54434 0.78134 0.68564 0.0
C431 C 0.54538 0.73916 0.59572 0.0
C432 C 0.54495 0.75345 0.62719 0.0
H433 H 0.5102 0.80264 0.7746 0.0
H434 H 0.51167 0.78144 0.718 0.0
H435 H 0.56908 0.781 0.7169 0.0
H436 H 0.57639 0.73553 0.52272 0.0
H437 H 0.57661 0.75662 0.58244 0.0
C438 C 0.73095 0.57084 0.10246 0.0
C439 C 0.71487 0.55278 0.11591 0.0
C440 C 0.74376 0.57141 0.0696 0.0
C441 C 0.76291 0.5411 0.02583 0.0
H442 H 0.78176 0.57752 0.92743 0.0
C443 C 0.80836 0.5345 0.88405 0.0
C444 C 0.82174 0.55153 0.861 0.0
C445 C 0.79661 0.5355 0.91747 0.0
C446 C 0.77699 0.5675 0.95521 0.0
H447 H 0.69909 0.52128 0.10388 0.0
H448 H 0.72157 0.5223 0.0469 0.0
H449 H 0.75776 0.57767 0.97834 0.0
H450 H 0.83431 0.58319 0.85705 0.0
H451 H 0.81446 0.5851 0.91665 0.0
H452 H 0.78237 0.53119 0.00378 0.0
C453 C 0.72427 0.53598 0.06192 0.0
C454 C 0.76309 0.56751 0.98413 0.0
C455 C 0.71131 0.53544 0.09426 0.0
C456 C 0.82404 0.56977 0.87403 0.0
C457 C 0.81247 0.57082 0.90787 0.0
C458 C 0.777 0.54128 -0.00264 0.0
C459 C 0.74089 0.5539 0.05006 0.0
C460 C 0.75575 0.55415 0.01941 0.0
C461 C 0.79814 0.55362 0.92911 0.0
C462 C 0.7841 0.55433 0.96132 0.0
H463 H 0.73409 0.58445 0.11853 0.0
H464 H 0.75646 0.58542 0.06107 0.0
H465 H 0.75777 0.53089 0.0533 0.0
H466 H 0.80612 0.52019 0.87462 0.0
H467 H 0.78566 0.52188 0.93258 0.0
C468 C 0.15991 0.71208 0.41935 0.0
C469 C 0.14728 0.71624 0.44405 0.0
C470 C 0.17123 0.72457 0.38515 0.0
C471 C 0.19121 0.77625 0.34694 0.0
H472 H 0.20868 0.75784 0.24749 0.0
C473 C 0.23618 0.82398 0.19621 0.0
C474 C 0.25222 0.82184 0.18326 0.0
C475 C 0.22347 0.81215 0.22969 0.0
C476 C 0.204 0.76318 0.27529 0.0
H477 H 0.13553 0.73595 0.45019 0.0
H478 H 0.15454 0.75723 0.38914 0.0
H479 H 0.18436 0.73402 0.2982 0.0
H480 H 0.26804 0.80629 0.19675 0.0
H481 H 0.24568 0.78548 0.25467 0.0
H482 H 0.21059 0.80546 0.32277 0.0
C483 C 0.15634 0.74477 0.39722 0.0
C484 C 0.19008 0.74954 0.30449 0.0
C485 C 0.14523 0.73242 0.43191 0.0
C486 C 0.25585 0.80834 0.20598 0.0
C487 C 0.24297 0.7963 0.23888 0.0
C488 C 0.20489 0.78988 0.31722 0.0
C489 C 0.16998 0.74139 0.37429 0.0
C490 C 0.18367 0.75587 0.34113 0.0
C491 C 0.2264 0.79776 0.25028 0.0
C492 C 0.21162 0.78347 0.2815 0.0
H493 H 0.16196 0.69982 0.42809 0.0
H494 H 0.18167 0.72151 0.3688 0.0
H495 H 0.18697 0.7818 0.3751 0.0
H496 H 0.23299 0.83425 0.17931 0.0
H497 H 0.21081 0.81357 0.23793 0.0
C498 C 0.43861 0.17095 0.76866 0.0
C499 C 0.4213 0.15784 0.79116 0.0
C500 C 0.43833 0.18329 0.73574 0.0
C501 C 0.40821 0.20504 0.69799 0.0
H502 H 0.44503 0.22319 0.60034 0.0
C503 C 0.40694 0.25142 0.54915 0.0
C504 C 0.42522 0.267 0.53522 0.0
C505 C 0.4059 0.23876 0.58291 0.0
C506 C 0.43479 0.21838 0.62772 0.0
H507 H 0.38987 0.14645 0.79474 0.0
H508 H 0.38918 0.16735 0.73595 0.0
H509 H 0.44351 0.19799 0.64982 0.0
H510 H 0.45663 0.28215 0.54745 0.0
H511 H 0.45478 0.2599 0.60607 0.0
H512 H 0.39918 0.22517 0.67466 0.0
C513 C 0.40315 0.16866 0.7448 0.0
C514 C 0.43391 0.20393 0.65617 0.0
C515 C 0.40348 0.15648 0.77817 0.0
C516 C 0.44232 0.27033 0.55747 0.0
C517 C 0.44129 0.25749 0.59073 0.0
C518 C 0.4089 0.2193 0.66908 0.0
C519 C 0.42066 0.18265 0.72401 0.0
C520 C 0.42074 0.19717 0.692 0.0
C521 C 0.42314 0.24127 0.6029 0.0
C522 C 0.42234 0.22625 0.63395 0.0
H523 H 0.45261 0.17247 0.77806 0.0
H524 H 0.45216 0.19396 0.721 0.0
H525 H 0.39813 0.20054 0.7256 0.0
H526 H 0.3935 0.24848 0.53263 0.0
H527 H 0.39171 0.22637 0.59166 0.0
C528 C 0.17408 0.43424 0.60187 0.0
C529 C 0.17704 0.44896 0.63237 0.0
C530 C 0.18412 0.43919 0.56195 0.0
C531 C 0.22706 0.47402 0.50279 0.0
H532 H 0.19335 0.44966 0.40127 0.0
C533 C 0.25833 0.47164 0.33211 0.0
C534 C 0.25039 0.45202 0.31802 0.0
C535 C 0.24916 0.47631 0.36578 0.0
C536 C 0.20294 0.45677 0.42918 0.0
H537 H 0.1939 0.48027 0.6464 0.0
H538 H 0.21194 0.48888 0.57615 0.0
H539 H 0.17872 0.44827 0.47314 0.0
H540 H 0.22611 0.42222 0.32551 0.0
H541 H 0.21001 0.43035 0.3836 0.0
H542 H 0.25127 0.48142 0.45925 0.0
C543 C 0.20152 0.47359 0.58329 0.0
C544 C 0.1946 0.45595 0.4702 0.0
C545 C 0.19128 0.46864 0.62339 0.0
C546 C 0.23256 0.43743 0.33595 0.0
C547 C 0.22328 0.44213 0.36897 0.0
C548 C 0.23545 0.47479 0.46161 0.0
C549 C 0.19746 0.45892 0.55176 0.0
C550 C 0.20656 0.46375 0.50763 0.0
C551 C 0.23176 0.4615 0.38506 0.0
C552 C 0.22339 0.46534 0.42496 0.0
H553 H 0.16338 0.41893 0.60802 0.0
H554 H 0.18114 0.42758 0.53852 0.0
H555 H 0.23653 0.48017 0.53129 0.0
H556 H 0.27211 0.48316 0.31879 0.0
H557 H 0.25594 0.49134 0.37761 0.0
C558 C 0.77782 0.2612 0.68489 0.0
C559 C 0.79199 0.25562 0.67635 0.0
C560 C 0.76818 0.2569 0.72569 0.0
C561 C 0.77612 0.24812 0.84005 0.0
H562 H 0.71946 0.21774 0.85265 0.0
C563 C 0.7379 0.19255 0.97559 0.0
C564 C 0.71988 0.18916 -0.0074 0.0
C565 C 0.74751 0.20674 0.94313 0.0
C566 C 0.73529 0.22674 0.84985 0.0
H567 H 0.80621 0.2401 0.70252 0.0
H568 H 0.78945 0.23266 0.77321 0.0
H569 H 0.73389 0.23019 0.77995 0.0
H570 H 0.69826 0.1987 -0.00874 0.0
H571 H 0.71501 0.22343 0.93348 0.0
H572 H 0.77763 0.24384 0.90929 0.0
C573 C 0.78609 0.24068 0.74887 0.0
C574 C 0.74351 0.23376 0.80825 0.0
C575 C 0.79554 0.24478 0.70824 0.0
C576 C 0.71218 0.20105 0.97861 0.0
C577 C 0.72168 0.21511 0.94552 0.0
C578 C 0.76794 0.24119 0.88151 0.0
C579 C 0.77276 0.24716 0.7584 0.0
C580 C 0.76398 0.24364 0.80282 0.0
C581 C 0.73916 0.21768 0.92671 0.0
C582 C 0.74748 0.22959 0.88638 0.0
H583 H 0.77476 0.26954 0.66083 0.0
H584 H 0.75776 0.26182 0.73229 0.0
H585 H 0.79198 0.25608 0.83667 0.0
H586 H 0.74417 0.18363 0.98603 0.0
H587 H 0.76084 0.20821 0.92891 0.0
C588 C 0.50367 0.78475 0.0188 0.0
C589 C 0.52316 0.79943 0.00984 0.0
C590 C 0.4988 0.77516 0.05969 0.0
C591 C 0.49832 0.75071 0.14133 0.0
H592 H 0.52271 0.78452 0.24275 0.0
C593 C 0.50134 0.71899 0.3103 0.0
C594 C 0.52102 0.72683 0.32344 0.0
C595 C 0.49643 0.72845 0.27777 0.0
C596 C 0.51557 0.77491 0.21487 0.0
H597 H 0.55294 0.81476 0.03552 0.0
H598 H 0.54445 0.79806 0.10631 0.0
H599 H 0.52393 0.79916 0.17094 0.0
H600 H 0.55069 0.75127 0.31583 0.0
H601 H 0.54215 0.76789 0.25971 0.0
H602 H 0.49102 0.72648 0.18482 0.0
C603 C 0.53289 0.79425 0.08226 0.0
C604 C 0.51632 0.78326 0.17386 0.0
C605 C 0.53777 0.80367 0.04154 0.0
C606 C 0.53543 0.7449 0.30606 0.0
C607 C 0.5305 0.75447 0.27419 0.0
C608 C 0.49759 0.74233 0.18249 0.0
C609 C 0.51332 0.78029 0.09212 0.0
C610 C 0.50854 0.77126 0.1364 0.0
C611 C 0.51108 0.74603 0.2587 0.0
C612 C 0.50706 0.75443 0.21909 0.0
H613 H 0.49211 0.78117 -0.0051 0.0
H614 H 0.48364 0.76426 0.06651 0.0
H615 H 0.49219 0.74119 0.11289 0.0
H616 H 0.48995 0.70503 0.32325 0.0
H617 H 0.48136 0.7217 0.26641 0.0
C618 C 0.71415 0.51318 0.3467 0.0
C619 C 0.7198 0.53286 0.33692 0.0
C620 C 0.71956 0.50844 0.38691 0.0
C621 C 0.7313 0.52727 0.49913 0.0
H622 H 0.76037 0.49954 0.5116 0.0
C623 C 0.78716 0.54395 0.63388 0.0
C624 C 0.78948 0.52886 0.65247 0.0
C625 C 0.77339 0.53975 0.60068 0.0
C626 C 0.75177 0.50684 0.50882 0.0
H627 H 0.73672 0.56308 0.35977 0.0
H628 H 0.7461 0.5548 0.42941 0.0
H629 H 0.74713 0.50097 0.43937 0.0
H630 H 0.77866 0.4974 0.65269 0.0
H631 H 0.75466 0.49009 0.59355 0.0
H632 H 0.73667 0.53398 0.56781 0.0
C633 C 0.73718 0.54303 0.40661 0.0
C634 C 0.7443 0.5077 0.46751 0.0
C635 C 0.73193 0.54776 0.3666 0.0
C636 C 0.77711 0.50931 0.63886 0.0
C637 C 0.76347 0.50512 0.605 0.0
C638 C 0.73868 0.52637 0.54027 0.0
C639 C 0.73053 0.52332 0.41771 0.0
C640 C 0.73482 0.51872 0.4621 0.0
C641 C 0.7618 0.5204 0.58505 0.0
C642 C 0.74977 0.51692 0.54503 0.0
H643 H 0.70482 0.5014 0.32434 0.0
H644 H 0.71447 0.49315 0.39474 0.0
H645 H 0.72365 0.53553 0.49581 0.0
H646 H 0.79648 0.55912 0.64394 0.0
H647 H 0.77261 0.55187 0.58554 0.0
C648 C 0.18918 0.74254 0.66513 0.0
C649 C 0.1846 0.7242 0.64753 0.0
C650 C 0.20338 0.75118 0.69791 0.0
C651 C 0.22082 0.73645 0.79135 0.0
H652 H 0.25318 0.793 0.80549 0.0
C653 C 0.25572 0.78023 0.95646 0.0
C654 C 0.24943 0.79397 0.96357 0.0
C655 C 0.25166 0.77001 0.91639 0.0
C656 C 0.24447 0.77715 0.80178 0.0
H657 H 0.19193 0.70094 0.64832 0.0
H658 H 0.21664 0.71597 0.70685 0.0
H659 H 0.24136 0.77923 0.73223 0.0
H660 H 0.23272 0.80666 0.93592 0.0
H661 H 0.22582 0.78899 0.86641 0.0
H662 H 0.22303 0.73462 0.86162 0.0
C663 C 0.2093 0.72366 0.69488 0.0
C664 C 0.23774 0.7693 0.76 0.0
C665 C 0.19526 0.71514 0.66138 0.0
C666 C 0.23798 0.79636 0.93126 0.0
C667 C 0.23413 0.78637 0.89138 0.0
C668 C 0.22766 0.74435 0.83329 0.0
C669 C 0.2131 0.74152 0.71415 0.0
C670 C 0.22497 0.74899 0.75479 0.0
C671 C 0.24145 0.77362 0.88309 0.0
C672 C 0.23865 0.76481 0.83892 0.0
H673 H 0.18118 0.74982 0.65485 0.0
H674 H 0.2058 0.76483 0.71253 0.0
H675 H 0.21091 0.72074 0.78824 0.0
H676 H 0.26453 0.77806 0.98089 0.0
H677 H 0.25721 0.76002 0.91065 0.0
C678 C 0.46176 0.19613 0.02163 0.0
C679 C 0.44208 0.18159 0.01401 0.0
C680 C 0.4672 0.20624 0.06189 0.0
C681 C 0.4512 0.19903 0.17668 0.0
H682 H 0.47661 0.25582 0.18724 0.0
C683 C 0.43403 0.23746 0.3123 0.0
C684 C 0.44869 0.25555 0.32909 0.0
C685 C 0.43848 0.22793 0.2794 0.0
C686 C 0.47002 0.23997 0.18497 0.0
H687 H 0.41254 0.16721 0.04106 0.0
H688 H 0.42203 0.18479 0.11078 0.0
H689 H 0.47445 0.24094 0.11493 0.0
H690 H 0.47971 0.27741 0.32668 0.0
H691 H 0.48745 0.26078 0.26808 0.0
H692 H 0.44581 0.1979 0.24605 0.0
C693 C 0.43328 0.18808 0.08619 0.0
C694 C 0.46873 0.23149 0.14362 0.0
C695 C 0.42784 0.17815 0.04613 0.0
C696 C 0.46815 0.26344 0.31423 0.0
C697 C 0.47256 0.25401 0.28068 0.0
C698 C 0.45253 0.20746 0.21787 0.0
C699 C 0.45305 0.20177 0.09493 0.0
C700 C 0.45845 0.21094 0.13897 0.0
C701 C 0.45765 0.2364 0.2623 0.0
C702 C 0.46109 0.22795 0.22201 0.0
H703 H 0.47303 0.1991 -0.00263 0.0
H704 H 0.4825 0.21693 0.06787 0.0
H705 H 0.44355 0.18312 0.17389 0.0
H706 H 0.41894 0.23106 0.32337 0.0
H707 H 0.42663 0.21449 0.26549 0.0
C708 C 0.35441 0.49071 0.33768 0.0
C709 C 0.34627 0.48349 0.2958 0.0
C710 C 0.37284 0.50761 0.34179 0.0
C711 C 0.40631 0.55268 0.28169 0.0
H712 H 0.4441 0.55804 0.37088 0.0
C713 C 0.48213 0.62244 0.29344 0.0
C714 C 0.48902 0.63016 0.33576 0.0
C715 C 0.4657 0.60377 0.28823 0.0
C716 C 0.43362 0.55682 0.34609 0.0
H717 H 0.35146 0.48807 0.22535 0.0
H718 H 0.3837 0.51757 0.23259 0.0
H719 H 0.41376 0.52654 0.36177 0.0
H720 H 0.48423 0.62406 0.40586 0.0
H721 H 0.45526 0.59149 0.39675 0.0
H722 H 0.42589 0.58296 0.26641 0.0
C723 C 0.37567 0.51023 0.26223 0.0
C724 C 0.41627 0.53878 0.34081 0.0
C725 C 0.35725 0.49327 0.2581 0.0
C726 C 0.47931 0.61855 0.37281 0.0
C727 C 0.46277 0.59984 0.36757 0.0
C728 C 0.42359 0.5707 0.28702 0.0
C729 C 0.38355 0.51773 0.30413 0.0
C730 C 0.4024 0.53654 0.30863 0.0
C731 C 0.45564 0.59235 0.32519 0.0
C732 C 0.43744 0.57301 0.31933 0.0
H733 H 0.34639 0.48353 0.36746 0.0
H734 H 0.37841 0.51311 0.37452 0.0
H735 H 0.39576 0.55156 0.25719 0.0
H736 H 0.48935 0.63087 0.26412 0.0
H737 H 0.46084 0.5983 0.25513 0.0
C738 C 0.85292 0.48388 0.71477 0.0
C739 C 0.85071 0.49289 0.6768 0.0
C740 C 0.85452 0.46693 0.71125 0.0
C741 C 0.86563 0.43778 0.63184 0.0
H742 H 0.83495 0.39465 0.71219 0.0
C743 C 0.85035 0.35834 0.60221 0.0
C744 C 0.85044 0.34757 0.63923 0.0
C745 C 0.85201 0.37686 0.6074 0.0
C746 C 0.84383 0.40664 0.68985 0.0
H747 H 0.84879 0.49128 0.60527 0.0
H748 H 0.85139 0.46177 0.59933 0.0
H749 H 0.83518 0.42565 0.7209 0.0
H750 H 0.853 0.34819 0.71065 0.0
H751 H 0.8561 0.38043 0.71947 0.0
H752 H 0.87408 0.41863 0.60048 0.0
C753 C 0.85211 0.46788 0.63178 0.0
C754 C 0.84397 0.42443 0.6949 0.0
C755 C 0.85048 0.48476 0.63527 0.0
C756 C 0.85272 0.35597 0.68138 0.0
C757 C 0.85439 0.37444 0.68652 0.0
C758 C 0.86548 0.41997 0.62679 0.0
C759 C 0.85401 0.45867 0.6697 0.0
C760 C 0.85476 0.44016 0.66577 0.0
C761 C 0.85381 0.385 0.64968 0.0
C762 C 0.85449 0.40416 0.65559 0.0
H763 H 0.85321 0.48978 0.74725 0.0
H764 H 0.85619 0.46029 0.74108 0.0
H765 H 0.87432 0.44972 0.60922 0.0
H766 H 0.8486 0.35231 0.56929 0.0
H767 H 0.85135 0.38455 0.57835 0.0
C768 C 0.47745 0.85646 0.93112 0.0
C769 C 0.48845 0.85697 0.96821 0.0
C770 C 0.46045 0.85784 0.93612 0.0
C771 C 0.42237 0.84927 0.01825 0.0
H772 H 0.40908 0.87893 0.9367 0.0
C773 C 0.35273 0.85593 0.04052 0.0
C774 C 0.34173 0.85353 0.00209 0.0
C775 C 0.37153 0.85813 0.03779 0.0
C776 C 0.41252 0.87047 0.95959 0.0
H777 H 0.49047 0.85996 0.03956 0.0
H778 H 0.46104 0.86252 0.04805 0.0
H779 H 0.44027 0.87947 0.92864 0.0
H780 H 0.34207 0.85185 0.93056 0.0
H781 H 0.37455 0.85544 0.92598 0.0
H782 H 0.39452 0.84002 0.04879 0.0
C783 C 0.46536 0.86074 0.0152 0.0
C784 C 0.43038 0.87077 0.95493 0.0
C785 C 0.48231 0.85937 0.01024 0.0
C786 C 0.35009 0.85369 0.96091 0.0
C787 C 0.36882 0.85589 0.9582 0.0
C788 C 0.4045 0.84895 0.02287 0.0
C789 C 0.45409 0.85975 0.97829 0.0
C790 C 0.43544 0.86005 0.98401 0.0
C791 C 0.37973 0.85801 -0.00343 0.0
C792 C 0.39928 0.8594 -0.00664 0.0
H793 H 0.48173 0.8546 0.89829 0.0
H794 H 0.452 0.85686 0.90704 0.0
H795 H 0.42569 0.84062 0.04083 0.0
H796 H 0.34677 0.85593 0.07275 0.0
H797 H 0.37965 0.85994 0.06795 0.0
C798 C 0.6171 0.48874 0.33896 0.0
C799 C 0.62575 0.49601 0.29748 0.0
C800 C 0.59855 0.47199 0.34226 0.0
C801 C 0.56431 0.42725 0.28176 0.0
H802 H 0.52698 0.42385 0.37014 0.0
C803 C 0.48732 0.35873 0.29734 0.0
C804 C 0.48071 0.35168 0.34024 0.0
C805 C 0.50404 0.37711 0.29071 0.0
C806 C 0.53731 0.42451 0.34555 0.0
H807 H 0.62143 0.49146 0.22684 0.0
H808 H 0.58888 0.46214 0.23267 0.0
H809 H 0.55787 0.45467 0.36034 0.0
H810 H 0.48631 0.35868 0.40985 0.0
H811 H 0.51565 0.39072 0.39827 0.0
H812 H 0.54392 0.39704 0.2674 0.0
C813 C 0.59663 0.46939 0.26263 0.0
C814 C 0.55499 0.44218 0.33988 0.0
C815 C 0.61523 0.48623 0.2593 0.0
C816 C 0.49098 0.36366 0.37638 0.0
C817 C 0.50774 0.38208 0.36972 0.0
C818 C 0.54664 0.40959 0.28745 0.0
C819 C 0.58813 0.46203 0.30419 0.0
C820 C 0.56878 0.44369 0.30821 0.0
C821 C 0.51459 0.3889 0.3268 0.0
C822 C 0.533 0.40796 0.31967 0.0
H823 H 0.62475 0.49586 0.36912 0.0
H824 H 0.59256 0.46656 0.37478 0.0
H825 H 0.57474 0.42783 0.25755 0.0
H826 H 0.47971 0.34998 0.26868 0.0
H827 H 0.50872 0.38207 0.25723 0.0
C828 C 0.11944 0.6209 0.67061 0.0
C829 C 0.11915 0.62884 0.62918 0.0
C830 C 0.1172 0.60212 0.67397 0.0
C831 C 0.12399 0.5662 0.61011 0.0
H832 H 0.09428 0.53069 0.70545 0.0
C833 C 0.11517 0.489 0.62406 0.0
C834 C 0.11762 0.48301 0.6662 0.0
C835 C 0.11341 0.50574 0.61888 0.0
C836 C 0.10276 0.54051 0.67886 0.0
H837 H 0.11579 0.623 0.55882 0.0
H838 H 0.11179 0.59011 0.56477 0.0
H839 H 0.09438 0.56172 0.6969 0.0
H840 H 0.11968 0.48975 0.73608 0.0
H841 H 0.11683 0.51918 0.72694 0.0
H842 H 0.13264 0.54521 0.59243 0.0
C843 C 0.11396 0.59856 0.5946 0.0
C844 C 0.10279 0.55827 0.67391 0.0
C845 C 0.11615 0.61737 0.59122 0.0
C846 C 0.11779 0.49393 0.70317 0.0
C847 C 0.11606 0.51075 0.69794 0.0
C848 C 0.12397 0.54848 0.61507 0.0
C849 C 0.11464 0.59082 0.63601 0.0
C850 C 0.11354 0.57138 0.63969 0.0
C851 C 0.1141 0.51698 0.65566 0.0
C852 C 0.11347 0.53548 0.64968 0.0
H853 H 0.1217 0.62929 0.70059 0.0
H854 H 0.11805 0.59671 0.7063 0.0
H855 H 0.13269 0.57612 0.58387 0.0
H856 H 0.1148 0.48086 0.59484 0.0
H857 H 0.11156 0.50993 0.58594 0.0
C858 C 0.6165 0.12554 0.95924 0.0
C859 C 0.62354 0.12536 0.00181 0.0
C860 C 0.59802 0.12369 0.95336 0.0
C861 C 0.55048 0.10784 0.00912 0.0
H862 H 0.54634 0.143 0.92531 0.0
C863 C 0.48579 0.12276 0.00902 0.0
C864 C 0.47831 0.12464 0.96829 0.0
C865 C 0.50261 0.12102 0.01083 0.0
C866 C 0.54716 0.13287 0.94833 0.0
H867 H 0.61645 0.12271 0.07156 0.0
H868 H 0.58425 0.11971 0.06129 0.0
H869 H 0.5774 0.14337 0.93321 0.0
H870 H 0.48252 0.12584 0.89738 0.0
H871 H 0.51199 0.12275 0.90059 0.0
H872 H 0.5203 0.09759 0.02475 0.0
C873 C 0.59297 0.12106 0.03241 0.0
C874 C 0.56497 0.13308 0.9529 0.0
C875 C 0.61148 0.12289 0.03833 0.0
C876 C 0.48792 0.12446 0.92929 0.0
C877 C 0.50484 0.12278 0.93113 0.0
C878 C 0.53267 0.10765 0.00459 0.0
C879 C 0.58611 0.12163 -0.01013 0.0
C880 C 0.56689 0.1207 0.98366 0.0
C881 C 0.51242 0.12115 0.97197 0.0
C882 C 0.53088 0.12032 0.97449 0.0
H883 H 0.62533 0.12728 0.93031 0.0
H884 H 0.59305 0.12387 0.92012 0.0
H885 H 0.55138 0.09789 0.03257 0.0
H886 H 0.4788 0.12284 0.03977 0.0
H887 H 0.50822 0.12007 0.04283 0.0
loop_
_geom_bond_atom_site_label_1
_geom_bond_atom_site_label_2
_geom_bond_distance
_geom_bond_site_symmetry_2
_ccdc_geom_bond_type
C0 O1 1.306 . S
C0 O3 1.160 . S
O1 C0 1.306 . S
O1 Cd2 2.228 . S
Cd2 O1 2.228 . S
Cd2 O6 2.273 . S
Cd2 O10 2.277 . S
O3 C0 1.160 . S
O3 Cd4 2.203 . S
Cd4 O3 2.203 . S
Cd4 O6 2.411 . S
Cd4 O7 2.333 . S
Cd4 O8 2.352 . S
Cd4 O12 2.277 . S
Cd4 O13 2.356 . S
C5 O10 1.209 . S
C5 O12 1.226 . S
O6 Cd2 2.273 . S
O6 Cd4 2.411 . S
O6 C9 1.320 . S
O7 Cd4 2.333 . S
O7 C9 1.214 . S
O8 Cd4 2.352 . S
O8 C11 1.258 . S
C9 O6 1.320 . S
C9 O7 1.214 . S
O10 Cd2 2.277 . S
O10 C5 1.209 . S
C11 O8 1.258 . S
C11 O13 1.282 . S
O12 Cd4 2.277 . S
O12 C5 1.226 . S
O13 Cd4 2.356 . S
O13 C11 1.282 . S
C14 O15 1.306 . S
C14 O17 1.160 . S
O15 C14 1.306 . S
O15 Cd16 2.228 . S
Cd16 O15 2.228 . S
Cd16 O20 2.273 . S
Cd16 O24 2.277 . S
O17 C14 1.160 . S
O17 Cd18 2.203 . S
Cd18 O17 2.203 . S
Cd18 O20 2.411 . S
Cd18 O21 2.333 . S
Cd18 O22 2.352 . S
Cd18 O26 2.277 . S
Cd18 O27 2.356 . S
C19 O24 1.209 . S
C19 O26 1.226 . S
O20 Cd16 2.273 . S
O20 Cd18 2.411 . S
O20 C23 1.320 . S
O21 Cd18 2.333 . S
O21 C23 1.214 . S
O22 Cd18 2.352 . S
O22 C25 1.258 . S
C23 O20 1.320 . S
C23 O21 1.214 . S
O24 Cd16 2.277 . S
O24 C19 1.209 . S
C25 O22 1.258 . S
C25 O27 1.282 . S
O26 Cd18 2.277 . S
O26 C19 1.226 . S
O27 Cd18 2.356 . S
O27 C25 1.282 . S
C28 O29 1.306 . S
C28 O31 1.160 . S
O29 C28 1.306 . S
O29 Cd30 2.228 1_556 S
Cd30 O29 2.228 1_554 S
Cd30 O34 2.273 . S
Cd30 O38 2.285 . S
O31 C28 1.160 . S
O31 Cd32 2.203 . S
Cd32 O31 2.203 . S
Cd32 O34 2.411 1_556 S
Cd32 O35 2.333 . S
Cd32 O36 2.352 . S
Cd32 O40 2.277 . S
Cd32 O41 2.356 . S
C33 O38 1.199 1_556 S
C33 O40 1.226 . S
O34 Cd30 2.273 . S
O34 Cd32 2.411 1_554 S
O34 C37 1.320 . S
O35 Cd32 2.333 . S
O35 C37 1.214 1_556 S
O36 Cd32 2.352 . S
O36 C39 1.258 . S
C37 O34 1.320 . S
C37 O35 1.214 1_554 S
O38 Cd30 2.285 . S
O38 C33 1.199 1_554 S
C39 O36 1.258 . S
C39 O41 1.282 . S
O40 Cd32 2.277 . S
O40 C33 1.226 . S
O41 Cd32 2.356 . S
O41 C39 1.282 . S
C42 O43 1.306 . S
C42 O45 1.160 . S
O43 C42 1.306 . S
O43 Cd44 2.228 . S
Cd44 O43 2.228 . S
Cd44 O48 2.273 . S
Cd44 O52 2.277 . S
O45 C42 1.160 . S
O45 Cd46 2.203 . S
Cd46 O45 2.203 . S
Cd46 O48 2.411 . S
Cd46 O49 2.333 . S
Cd46 O50 2.352 . S
Cd46 O54 2.277 . S
Cd46 O55 2.356 . S
C47 O52 1.209 . S
C47 O54 1.226 . S
O48 Cd44 2.273 . S
O48 Cd46 2.411 . S
O48 C51 1.320 . S
O49 Cd46 2.333 . S
O49 C51 1.214 . S
O50 Cd46 2.352 . S
O50 C53 1.258 . S
C51 O48 1.320 . S
C51 O49 1.214 . S
O52 Cd44 2.277 . S
O52 C47 1.209 . S
C53 O50 1.258 . S
C53 O55 1.282 . S
O54 Cd46 2.277 . S
O54 C47 1.226 . S
O55 Cd46 2.356 . S
O55 C53 1.282 . S
C56 O57 1.306 . S
C56 O59 1.160 . S
O57 C56 1.306 . S
O57 Cd58 2.228 . S
Cd58 O57 2.228 . S
Cd58 O62 2.273 . S
Cd58 O66 2.277 . S
O59 C56 1.160 . S
O59 Cd60 2.203 . S
Cd60 O59 2.203 . S
Cd60 O62 2.411 . S
Cd60 O63 2.333 . S
Cd60 O64 2.352 . S
Cd60 O68 2.277 . S
Cd60 O69 2.356 . S
C61 O66 1.209 . S
C61 O68 1.226 . S
O62 Cd58 2.273 . S
O62 Cd60 2.411 . S
O62 C65 1.320 . S
O63 Cd60 2.333 . S
O63 C65 1.214 . S
O64 Cd60 2.352 . S
O64 C67 1.258 . S
C65 O62 1.320 . S
C65 O63 1.214 . S
O66 Cd58 2.277 . S
O66 C61 1.209 . S
C67 O64 1.258 . S
C67 O69 1.282 . S
O68 Cd60 2.277 . S
O68 C61 1.226 . S
O69 Cd60 2.356 . S
O69 C67 1.282 . S
C70 O71 1.306 . S
C70 O73 1.160 . S
O71 C70 1.306 . S
O71 Cd72 2.228 1_556 S
Cd72 O71 2.228 1_554 S
Cd72 O76 2.273 . S
Cd72 O80 2.285 . S
O73 C70 1.160 . S
O73 Cd74 2.203 . S
Cd74 O73 2.203 . S
Cd74 O76 2.411 1_556 S
Cd74 O77 2.333 . S
Cd74 O78 2.352 . S
Cd74 O82 2.277 . S
Cd74 O83 2.356 . S
C75 O80 1.199 1_556 S
C75 O82 1.226 . S
O76 Cd72 2.273 . S
O76 Cd74 2.411 1_554 S
O76 C79 1.320 . S
O77 Cd74 2.333 . S
O77 C79 1.214 1_556 S
O78 Cd74 2.352 . S
O78 C81 1.258 . S
C79 O76 1.320 . S
C79 O77 1.214 1_554 S
O80 Cd72 2.285 . S
O80 C75 1.199 1_554 S
C81 O78 1.258 . S
C81 O83 1.282 . S
O82 Cd74 2.277 . S
O82 C75 1.226 . S
O83 Cd74 2.356 . S
O83 C81 1.282 . S
C84 O85 1.306 . S
C84 O87 1.160 . S
O85 C84 1.306 . S
O85 Cd86 2.228 . S
Cd86 O85 2.228 . S
Cd86 O90 2.273 . S
Cd86 O94 2.277 . S
O87 C84 1.160 . S
O87 Cd88 2.203 . S
Cd88 O87 2.203 . S
Cd88 O90 2.411 . S
Cd88 O91 2.333 . S
Cd88 O92 2.352 . S
Cd88 O96 2.277 . S
Cd88 O97 2.356 . S
C89 O94 1.209 . S
C89 O96 1.226 . S
O90 Cd86 2.273 . S
O90 Cd88 2.411 . S
O90 C93 1.320 . S
O91 Cd88 2.333 . S
O91 C93 1.214 . S
O92 Cd88 2.352 . S
O92 C95 1.258 . S
C93 O90 1.320 . S
C93 O91 1.214 . S
O94 Cd86 2.277 . S
O94 C89 1.209 . S
C95 O92 1.258 . S
C95 O97 1.282 . S
O96 Cd88 2.277 . S
O96 C89 1.226 . S
O97 Cd88 2.356 . S
O97 C95 1.282 . S
C98 O99 1.306 . S
C98 O101 1.160 . S
O99 C98 1.306 . S
O99 Cd100 2.228 . S
Cd100 O99 2.228 . S
Cd100 O104 2.273 . S
Cd100 O108 2.277 . S
O101 C98 1.160 . S
O101 Cd102 2.203 . S
Cd102 O101 2.203 . S
Cd102 O104 2.411 . S
Cd102 O105 2.333 . S
Cd102 O106 2.352 . S
Cd102 O110 2.277 . S
Cd102 O111 2.356 . S
C103 O108 1.209 . S
C103 O110 1.226 . S
O104 Cd100 2.273 . S
O104 Cd102 2.411 . S
O104 C107 1.320 . S
O105 Cd102 2.333 . S
O105 C107 1.214 . S
O106 Cd102 2.352 . S
O106 C109 1.258 . S
C107 O104 1.320 . S
C107 O105 1.214 . S
O108 Cd100 2.277 . S
O108 C103 1.209 . S
C109 O106 1.258 . S
C109 O111 1.282 . S
O110 Cd102 2.277 . S
O110 C103 1.226 . S
O111 Cd102 2.356 . S
O111 C109 1.282 . S
C112 O113 1.306 . S
C112 O115 1.160 . S
O113 C112 1.306 . S
O113 Cd114 2.228 1_554 S
Cd114 O113 2.228 1_556 S
Cd114 O118 2.273 . S
Cd114 O122 2.285 . S
O115 C112 1.160 . S
O115 Cd116 2.203 . S
Cd116 O115 2.203 . S
Cd116 O118 2.411 1_554 S
Cd116 O119 2.333 . S
Cd116 O120 2.352 . S
Cd116 O124 2.277 . S
Cd116 O125 2.356 . S
C117 O122 1.199 1_554 S
C117 O124 1.226 . S
O118 Cd114 2.273 . S
O118 Cd116 2.411 1_556 S
O118 C121 1.320 . S
O119 Cd116 2.333 . S
O119 C121 1.214 1_554 S
O120 Cd116 2.352 . S
O120 C123 1.258 . S
C121 O118 1.320 . S
C121 O119 1.214 1_556 S
O122 Cd114 2.285 . S
O122 C117 1.199 1_556 S
C123 O120 1.258 . S
C123 O125 1.282 . S
O124 Cd116 2.277 . S
O124 C117 1.226 . S
O125 Cd116 2.356 . S
O125 C123 1.282 . S
C126 O127 1.306 . S
C126 O129 1.160 . S
O127 C126 1.306 . S
O127 Cd128 2.228 . S
Cd128 O127 2.228 . S
Cd128 O132 2.273 . S
Cd128 O136 2.277 . S
O129 C126 1.160 . S
O129 Cd130 2.203 . S
Cd130 O129 2.203 . S
Cd130 O132 2.411 . S
Cd130 O133 2.333 . S
Cd130 O134 2.352 . S
Cd130 O138 2.277 . S
Cd130 O139 2.356 . S
C131 O136 1.209 . S
C131 O138 1.226 . S
O132 Cd128 2.273 . S
O132 Cd130 2.411 . S
O132 C135 1.320 . S
O133 Cd130 2.333 . S
O133 C135 1.214 . S
O134 Cd130 2.352 . S
O134 C137 1.258 . S
C135 O132 1.320 . S
C135 O133 1.214 . S
O136 Cd128 2.277 . S
O136 C131 1.209 . S
C137 O134 1.258 . S
C137 O139 1.282 . S
O138 Cd130 2.277 . S
O138 C131 1.226 . S
O139 Cd130 2.356 . S
O139 C137 1.282 . S
C140 O141 1.306 . S
C140 O143 1.160 . S
O141 C140 1.306 . S
O141 Cd142 2.228 . S
Cd142 O141 2.228 . S
Cd142 O146 2.273 . S
Cd142 O150 2.277 . S
O143 C140 1.160 . S
O143 Cd144 2.203 . S
Cd144 O143 2.203 . S
Cd144 O146 2.411 . S
Cd144 O147 2.333 . S
Cd144 O148 2.352 . S
Cd144 O152 2.277 . S
Cd144 O153 2.356 . S
C145 O150 1.209 . S
C145 O152 1.226 . S
O146 Cd142 2.273 . S
O146 Cd144 2.411 . S
O146 C149 1.320 . S
O147 Cd144 2.333 . S
O147 C149 1.214 . S
O148 Cd144 2.352 . S
O148 C151 1.258 . S
C149 O146 1.320 . S
C149 O147 1.214 . S
O150 Cd142 2.277 . S
O150 C145 1.209 . S
C151 O148 1.258 . S
C151 O153 1.282 . S
O152 Cd144 2.277 . S
O152 C145 1.226 . S
O153 Cd144 2.356 . S
O153 C151 1.282 . S
C154 O155 1.306 . S
C154 O157 1.160 . S
O155 C154 1.306 . S
O155 Cd156 2.228 1_554 S
Cd156 O155 2.228 1_556 S
Cd156 O160 2.273 . S
Cd156 O164 2.285 . S
O157 C154 1.160 . S
O157 Cd158 2.203 . S
Cd158 O157 2.203 . S
Cd158 O160 2.411 1_554 S
Cd158 O161 2.333 . S
Cd158 O162 2.352 . S
Cd158 O166 2.277 . S
Cd158 O167 2.356 . S
C159 O164 1.199 1_554 S
C159 O166 1.226 . S
O160 Cd156 2.273 . S
O160 Cd158 2.411 1_556 S
O160 C163 1.320 . S
O161 Cd158 2.333 . S
O161 C163 1.214 1_554 S
O162 Cd158 2.352 . S
O162 C165 1.258 . S
C163 O160 1.320 . S
C163 O161 1.214 1_556 S
O164 Cd156 2.285 . S
O164 C159 1.199 1_556 S
C165 O162 1.258 . S
C165 O167 1.282 . S
O166 Cd158 2.277 . S
O166 C159 1.226 . S
O167 Cd158 2.356 . S
O167 C165 1.282 . S
C168 C169 1.349 . S
C168 C170 1.327 . S
C168 H193 0.950 . S
C169 C168 1.349 . S
C169 C185 1.349 . S
C170 C168 1.327 . S
C170 C189 1.429 . S
C170 H194 0.950 . S
C171 C188 1.574 . S
C171 C190 1.368 . S
C171 H195 0.949 . S
H172 C176 0.949 . S
C173 C174 1.349 . S
C173 C175 1.327 . S
C173 H196 0.950 . S
C174 C173 1.349 . S
C174 C186 1.349 . S
C175 C173 1.327 . S
C175 C191 1.429 . S
C175 H197 0.950 . S
C176 H172 0.949 . S
C176 C184 1.574 . S
C176 C192 1.368 . S
H177 C185 0.950 . S
H178 C183 0.950 . S
H179 C184 0.949 . S
H180 C186 0.950 . S
H181 C187 0.950 . S
H182 C188 0.949 . S
C183 H178 0.950 . S
C183 C185 1.327 . S
C183 C189 1.429 . S
C184 C176 1.574 . S
C184 H179 0.949 . S
C184 C190 1.368 . S
C185 C169 1.349 . S
C185 H177 0.950 . S
C185 C183 1.327 . S
C186 C174 1.349 . S
C186 H180 0.950 . S
C186 C187 1.327 . S
C187 H181 0.950 . S
C187 C186 1.327 . S
C187 C191 1.429 . S
C188 C171 1.574 . S
C188 H182 0.949 . S
C188 C192 1.368 . S
C189 C170 1.429 . S
C189 C183 1.429 . S
C189 C190 1.523 . S
C190 C171 1.368 . S
C190 C184 1.368 . S
C190 C189 1.523 . S
C191 C175 1.429 . S
C191 C187 1.429 . S
C191 C192 1.523 . S
C192 C176 1.368 . S
C192 C188 1.368 . S
C192 C191 1.523 . S
H193 C168 0.950 . S
H194 C170 0.950 . S
H195 C171 0.949 . S
H196 C173 0.950 . S
H197 C175 0.950 . S
C198 C199 1.349 . S
C198 C200 1.327 . S
C198 H223 0.950 . S
C199 C198 1.349 . S
C199 C215 1.349 . S
C200 C198 1.327 . S
C200 C219 1.429 . S
C200 H224 0.950 . S
C201 C218 1.574 1_655 S
C201 C220 1.368 . S
C201 H225 0.949 . S
H202 C206 0.949 . S
C203 C204 1.349 . S
C203 C205 1.327 . S
C203 H226 0.950 . S
C204 C203 1.349 . S
C204 C216 1.349 . S
C205 C203 1.327 . S
C205 C221 1.429 . S
C205 H227 0.950 . S
C206 H202 0.949 . S
C206 C214 1.574 1_455 S
C206 C222 1.368 . S
H207 C215 0.950 . S
H208 C213 0.950 . S
H209 C214 0.949 . S
H210 C216 0.950 . S
H211 C217 0.950 . S
H212 C218 0.949 . S
C213 H208 0.950 . S
C213 C215 1.327 . S
C213 C219 1.429 . S
C214 C206 1.574 1_655 S
C214 H209 0.949 . S
C214 C220 1.368 . S
C215 C199 1.349 . S
C215 H207 0.950 . S
C215 C213 1.327 . S
C216 C204 1.349 . S
C216 H210 0.950 . S
C216 C217 1.327 . S
C217 H211 0.950 . S
C217 C216 1.327 . S
C217 C221 1.429 . S
C218 C201 1.574 1_455 S
C218 H212 0.949 . S
C218 C222 1.368 . S
C219 C200 1.429 . S
C219 C213 1.429 . S
C219 C220 1.523 . S
C220 C201 1.368 . S
C220 C214 1.368 . S
C220 C219 1.523 . S
C221 C205 1.429 . S
C221 C217 1.429 . S
C221 C222 1.523 . S
C222 C206 1.368 . S
C222 C218 1.368 . S
C222 C221 1.523 . S
H223 C198 0.950 . S
H224 C200 0.950 . S
H225 C201 0.949 . S
H226 C203 0.950 . S
H227 C205 0.950 . S
C228 C229 1.349 . S
C228 C230 1.327 . S
C228 H253 0.950 . S
C229 C228 1.349 . S
C229 C245 1.349 . S
C230 C228 1.327 . S
C230 C249 1.429 . S
C230 H254 0.950 . S
C231 C248 1.574 1_565 S
C231 C250 1.368 . S
C231 H255 0.949 . S
H232 C236 0.949 . S
C233 C234 1.349 . S
C233 C235 1.327 . S
C233 H256 0.950 . S
C234 C233 1.349 . S
C234 C246 1.349 . S
C235 C233 1.327 . S
C235 C251 1.429 . S
C235 H257 0.950 . S
C236 H232 0.949 . S
C236 C244 1.574 1_545 S
C236 C252 1.368 . S
H237 C245 0.950 . S
H238 C243 0.950 . S
H239 C244 0.949 . S
H240 C246 0.950 . S
H241 C247 0.950 . S
H242 C248 0.949 . S
C243 H238 0.950 . S
C243 C245 1.327 . S
C243 C249 1.429 . S
C244 C236 1.574 1_565 S
C244 H239 0.949 . S
C244 C250 1.368 1_554 S
C245 C229 1.349 . S
C245 H237 0.950 . S
C245 C243 1.327 . S
C246 C234 1.349 . S
C246 H240 0.950 . S
C246 C247 1.327 . S
C247 H241 0.950 . S
C247 C246 1.327 . S
C247 C251 1.429 . S
C248 C231 1.574 1_545 S
C248 H242 0.949 . S
C248 C252 1.368 1_556 S
C249 C230 1.429 . S
C249 C243 1.429 . S
C249 C250 1.523 . S
C250 C231 1.368 . S
C250 C244 1.368 1_556 S
C250 C249 1.523 . S
C251 C235 1.429 . S
C251 C247 1.429 . S
C251 C252 1.523 . S
C252 C236 1.368 . S
C252 C248 1.368 1_554 S
C252 C251 1.523 . S
H253 C228 0.950 . S
H254 C230 0.950 . S
H255 C231 0.949 . S
H256 C233 0.950 . S
H257 C235 0.950 . S
C258 C259 1.349 . S
C258 C260 1.327 . S
C258 H283 0.950 . S
C259 C258 1.349 . S
C259 C275 1.349 . S
C260 C258 1.327 . S
C260 C279 1.429 . S
C260 H284 0.950 . S
C261 C278 1.574 . S
C261 C280 1.368 . S
C261 H285 0.949 . S
H262 C266 0.949 . S
C263 C264 1.349 . S
C263 C265 1.327 . S
C263 H286 0.950 . S
C264 C263 1.349 . S
C264 C276 1.349 . S
C265 C263 1.327 . S
C265 C281 1.429 . S
C265 H287 0.950 . S
C266 H262 0.949 . S
C266 C274 1.574 . S
C266 C282 1.368 . S
H267 C275 0.950 . S
H268 C273 0.950 . S
H269 C274 0.949 . S
H270 C276 0.950 . S
H271 C277 0.950 . S
H272 C278 0.949 . S
C273 H268 0.950 . S
C273 C275 1.327 . S
C273 C279 1.429 . S
C274 C266 1.574 . S
C274 H269 0.949 . S
C274 C280 1.368 . S
C275 C259 1.349 . S
C275 H267 0.950 . S
C275 C273 1.327 . S
C276 C264 1.349 . S
C276 H270 0.950 . S
C276 C277 1.327 . S
C277 H271 0.950 . S
C277 C276 1.327 . S
C277 C281 1.429 . S
C278 C261 1.574 . S
C278 H272 0.949 . S
C278 C282 1.368 . S
C279 C260 1.429 . S
C279 C273 1.429 . S
C279 C280 1.523 . S
C280 C261 1.368 . S
C280 C274 1.368 . S
C280 C279 1.523 . S
C281 C265 1.429 . S
C281 C277 1.429 . S
C281 C282 1.523 . S
C282 C266 1.368 . S
C282 C278 1.368 . S
C282 C281 1.523 . S
H283 C258 0.950 . S
H284 C260 0.950 . S
H285 C261 0.949 . S
H286 C263 0.950 . S
H287 C265 0.950 . S
C288 C289 1.349 . S
C288 C290 1.327 . S
C288 H313 0.950 . S
C289 C288 1.349 . S
C289 C305 1.349 . S
C290 C288 1.327 . S
C290 C309 1.429 . S
C290 H314 0.950 . S
C291 C308 1.574 1_655 S
C291 C310 1.368 . S
C291 H315 0.949 . S
H292 C296 0.949 . S
C293 C294 1.349 . S
C293 C295 1.327 . S
C293 H316 0.950 . S
C294 C293 1.349 . S
C294 C306 1.349 . S
C295 C293 1.327 . S
C295 C311 1.429 . S
C295 H317 0.950 . S
C296 H292 0.949 . S
C296 C304 1.574 1_455 S
C296 C312 1.368 . S
H297 C305 0.950 . S
H298 C303 0.950 . S
H299 C304 0.949 . S
H300 C306 0.950 . S
H301 C307 0.950 . S
H302 C308 0.949 . S
C303 H298 0.950 . S
C303 C305 1.327 . S
C303 C309 1.429 . S
C304 C296 1.574 1_655 S
C304 H299 0.949 . S
C304 C310 1.368 . S
C305 C289 1.349 . S
C305 H297 0.950 . S
C305 C303 1.327 . S
C306 C294 1.349 . S
C306 H300 0.950 . S
C306 C307 1.327 . S
C307 H301 0.950 . S
C307 C306 1.327 . S
C307 C311 1.429 . S
C308 C291 1.574 1_455 S
C308 H302 0.949 . S
C308 C312 1.368 . S
C309 C290 1.429 . S
C309 C303 1.429 . S
C309 C310 1.523 . S
C310 C291 1.368 . S
C310 C304 1.368 . S
C310 C309 1.523 . S
C311 C295 1.429 . S
C311 C307 1.429 . S
C311 C312 1.523 . S
C312 C296 1.368 . S
C312 C308 1.368 . S
C312 C311 1.523 . S
H313 C288 0.950 . S
H314 C290 0.950 . S
H315 C291 0.949 . S
H316 C293 0.950 . S
H317 C295 0.950 . S
C318 C319 1.349 . S
C318 C320 1.327 1_554 S
C318 H343 0.950 1_554 S
C319 C318 1.349 . S
C319 C335 1.349 . S
C320 C318 1.327 1_556 S
C320 C339 1.429 1_556 S
C320 H344 0.950 . S
C321 C338 1.574 1_565 S
C321 C340 1.368 . S
C321 H345 0.949 . S
H322 C326 0.949 . S
C323 C324 1.349 . S
C323 C325 1.327 1_556 S
C323 H346 0.950 1_556 S
C324 C323 1.349 . S
C324 C336 1.349 . S
C325 C323 1.327 1_554 S
C325 C341 1.429 1_554 S
C325 H347 0.950 . S
C326 H322 0.949 . S
C326 C334 1.574 1_545 S
C326 C342 1.368 . S
H327 C335 0.950 . S
H328 C333 0.950 . S
H329 C334 0.949 . S
H330 C336 0.950 . S
H331 C337 0.950 . S
H332 C338 0.949 . S
C333 H328 0.950 . S
C333 C335 1.327 . S
C333 C339 1.429 . S
C334 C326 1.574 1_565 S
C334 H329 0.949 . S
C334 C340 1.368 1_556 S
C335 C319 1.349 . S
C335 H327 0.950 . S
C335 C333 1.327 . S
C336 C324 1.349 . S
C336 H330 0.950 . S
C336 C337 1.327 . S
C337 H331 0.950 . S
C337 C336 1.327 . S
C337 C341 1.429 . S
C338 C321 1.574 1_545 S
C338 H332 0.949 . S
C338 C342 1.368 1_554 S
C339 C320 1.429 1_554 S
C339 C333 1.429 . S
C339 C340 1.523 . S
C340 C321 1.368 . S
C340 C334 1.368 1_554 S
C340 C339 1.523 . S
C341 C325 1.429 1_556 S
C341 C337 1.429 . S
C341 C342 1.523 . S
C342 C326 1.368 . S
C342 C338 1.368 1_556 S
C342 C341 1.523 . S
H343 C318 0.950 1_556 S
H344 C320 0.950 . S
H345 C321 0.949 . S
H346 C323 0.950 1_554 S
H347 C325 0.950 . S
C348 C349 1.349 . S
C348 C350 1.327 . S
C348 H373 0.950 . S
C349 C348 1.349 . S
C349 C365 1.349 . S
C350 C348 1.327 . S
C350 C369 1.429 . S
C350 H374 0.950 . S
C351 C368 1.574 1_556 S
C351 C370 1.368 . S
C351 H375 0.949 . S
H352 C356 0.949 . S
C353 C354 1.349 . S
C353 C355 1.327 . S
C353 H376 0.950 . S
C354 C353 1.349 . S
C354 C366 1.349 . S
C355 C353 1.327 . S
C355 C371 1.429 . S
C355 H377 0.950 . S
C356 H352 0.949 . S
C356 C364 1.574 1_554 S
C356 C372 1.368 . S
H357 C365 0.950 . S
H358 C363 0.950 . S
H359 C364 0.949 . S
H360 C366 0.950 . S
H361 C367 0.950 . S
H362 C368 0.949 . S
C363 H358 0.950 . S
C363 C365 1.327 . S
C363 C369 1.429 . S
C364 C356 1.574 1_556 S
C364 H359 0.949 . S
C364 C370 1.368 . S
C365 C349 1.349 . S
C365 H357 0.950 . S
C365 C363 1.327 . S
C366 C354 1.349 . S
C366 H360 0.950 . S
C366 C367 1.327 . S
C367 H361 0.950 . S
C367 C366 1.327 . S
C367 C371 1.429 . S
C368 C351 1.574 1_554 S
C368 H362 0.949 . S
C368 C372 1.368 . S
C369 C350 1.429 . S
C369 C363 1.429 . S
C369 C370 1.523 . S
C370 C351 1.368 . S
C370 C364 1.368 . S
C370 C369 1.523 . S
C371 C355 1.429 . S
C371 C367 1.429 . S
C371 C372 1.523 . S
C372 C356 1.368 . S
C372 C368 1.368 . S
C372 C371 1.523 . S
H373 C348 0.950 . S
H374 C350 0.950 . S
H375 C351 0.949 . S
H376 C353 0.950 . S
H377 C355 0.950 . S
C378 C379 1.349 . S
C378 C380 1.327 . S
C378 H403 0.950 . S
C379 C378 1.349 . S
C379 C395 1.349 . S
C380 C378 1.327 . S
C380 C399 1.429 . S
C380 H404 0.950 . S
C381 C398 1.574 . S
C381 C400 1.368 . S
C381 H405 0.949 . S
H382 C386 0.949 . S
C383 C384 1.349 . S
C383 C385 1.327 . S
C383 H406 0.950 . S
C384 C383 1.349 . S
C384 C396 1.349 . S
C385 C383 1.327 . S
C385 C401 1.429 . S
C385 H407 0.950 . S
C386 H382 0.949 . S
C386 C394 1.574 . S
C386 C402 1.368 . S
H387 C395 0.950 . S
H388 C393 0.950 . S
H389 C394 0.949 . S
H390 C396 0.950 . S
H391 C397 0.950 . S
H392 C398 0.949 . S
C393 H388 0.950 . S
C393 C395 1.327 . S
C393 C399 1.429 . S
C394 C386 1.574 . S
C394 H389 0.949 . S
C394 C400 1.368 . S
C395 C379 1.349 . S
C395 H387 0.950 . S
C395 C393 1.327 . S
C396 C384 1.349 . S
C396 H390 0.950 . S
C396 C397 1.327 . S
C397 H391 0.950 . S
C397 C396 1.327 . S
C397 C401 1.429 . S
C398 C381 1.574 . S
C398 H392 0.949 . S
C398 C402 1.368 . S
C399 C380 1.429 . S
C399 C393 1.429 . S
C399 C400 1.523 . S
C400 C381 1.368 . S
C400 C394 1.368 . S
C400 C399 1.523 . S
C401 C385 1.429 . S
C401 C397 1.429 . S
C401 C402 1.523 . S
C402 C386 1.368 . S
C402 C398 1.368 . S
C402 C401 1.523 . S
H403 C378 0.950 . S
H404 C380 0.950 . S
H405 C381 0.949 . S
H406 C383 0.950 . S
H407 C385 0.950 . S
C408 C409 1.349 . S
C408 C410 1.327 . S
C408 H433 0.950 . S
C409 C408 1.349 . S
C409 C425 1.349 . S
C410 C408 1.327 . S
C410 C429 1.429 . S
C410 H434 0.950 . S
C411 C428 1.574 . S
C411 C430 1.368 . S
C411 H435 0.949 . S
H412 C416 0.949 . S
C413 C414 1.349 . S
C413 C415 1.327 . S
C413 H436 0.950 . S
C414 C413 1.349 . S
C414 C426 1.349 . S
C415 C413 1.327 . S
C415 C431 1.429 . S
C415 H437 0.950 . S
C416 H412 0.949 . S
C416 C424 1.574 . S
C416 C432 1.368 . S
H417 C425 0.950 . S
H418 C423 0.950 . S
H419 C424 0.949 . S
H420 C426 0.950 . S
H421 C427 0.950 . S
H422 C428 0.949 . S
C423 H418 0.950 . S
C423 C425 1.327 . S
C423 C429 1.429 . S
C424 C416 1.574 . S
C424 H419 0.949 . S
C424 C430 1.368 . S
C425 C409 1.349 . S
C425 H417 0.950 . S
C425 C423 1.327 . S
C426 C414 1.349 . S
C426 H420 0.950 . S
C426 C427 1.327 . S
C427 H421 0.950 . S
C427 C426 1.327 . S
C427 C431 1.429 . S
C428 C411 1.574 . S
C428 H422 0.949 . S
C428 C432 1.368 . S
C429 C410 1.429 . S
C429 C423 1.429 . S
C429 C430 1.523 . S
C430 C411 1.368 . S
C430 C424 1.368 . S
C430 C429 1.523 . S
C431 C415 1.429 . S
C431 C427 1.429 . S
C431 C432 1.523 . S
C432 C416 1.368 . S
C432 C428 1.368 . S
C432 C431 1.523 . S
H433 C408 0.950 . S
H434 C410 0.950 . S
H435 C411 0.949 . S
H436 C413 0.950 . S
H437 C415 0.950 . S
C438 C439 1.349 . S
C438 C440 1.327 . S
C438 H463 0.950 . S
C439 C438 1.349 . S
C439 C455 1.349 . S
C440 C438 1.327 . S
C440 C459 1.429 . S
C440 H464 0.950 . S
C441 C458 1.574 1_554 S
C441 C460 1.368 . S
C441 H465 0.949 . S
H442 C446 0.949 . S
C443 C444 1.349 . S
C443 C445 1.327 . S
C443 H466 0.950 . S
C444 C443 1.349 . S
C444 C456 1.349 . S
C445 C443 1.327 . S
C445 C461 1.429 . S
C445 H467 0.950 . S
C446 H442 0.949 . S
C446 C454 1.574 1_556 S
C446 C462 1.368 . S
H447 C455 0.950 . S
H448 C453 0.950 . S
H449 C454 0.949 . S
H450 C456 0.950 . S
H451 C457 0.950 . S
H452 C458 0.949 . S
C453 H448 0.950 . S
C453 C455 1.327 . S
C453 C459 1.429 . S
C454 C446 1.574 1_554 S
C454 H449 0.949 . S
C454 C460 1.368 . S
C455 C439 1.349 . S
C455 H447 0.950 . S
C455 C453 1.327 . S
C456 C444 1.349 . S
C456 H450 0.950 . S
C456 C457 1.327 . S
C457 H451 0.950 . S
C457 C456 1.327 . S
C457 C461 1.429 . S
C458 C441 1.574 1_556 S
C458 H452 0.949 . S
C458 C462 1.368 . S
C459 C440 1.429 . S
C459 C453 1.429 . S
C459 C460 1.523 . S
C460 C441 1.368 . S
C460 C454 1.368 . S
C460 C459 1.523 . S
C461 C445 1.429 . S
C461 C457 1.429 . S
C461 C462 1.523 . S
C462 C446 1.368 . S
C462 C458 1.368 . S
C462 C461 1.523 . S
H463 C438 0.950 . S
H464 C440 0.950 . S
H465 C441 0.949 . S
H466 C443 0.950 . S
H467 C445 0.950 . S
C468 C469 1.349 . S
C468 C470 1.327 . S
C468 H493 0.950 . S
C469 C468 1.349 . S
C469 C485 1.349 . S
C470 C468 1.327 . S
C470 C489 1.429 . S
C470 H494 0.950 . S
C471 C488 1.574 . S
C471 C490 1.368 . S
C471 H495 0.949 . S
H472 C476 0.949 . S
C473 C474 1.349 . S
C473 C475 1.327 . S
C473 H496 0.950 . S
C474 C473 1.349 . S
C474 C486 1.349 . S
C475 C473 1.327 . S
C475 C491 1.429 . S
C475 H497 0.950 . S
C476 H472 0.949 . S
C476 C484 1.574 . S
C476 C492 1.368 . S
H477 C485 0.950 . S
H478 C483 0.950 . S
H479 C484 0.949 . S
H480 C486 0.950 . S
H481 C487 0.950 . S
H482 C488 0.949 . S
C483 H478 0.950 . S
C483 C485 1.327 . S
C483 C489 1.429 . S
C484 C476 1.574 . S
C484 H479 0.949 . S
C484 C490 1.368 . S
C485 C469 1.349 . S
C485 H477 0.950 . S
C485 C483 1.327 . S
C486 C474 1.349 . S
C486 H480 0.950 . S
C486 C487 1.327 . S
C487 H481 0.950 . S
C487 C486 1.327 . S
C487 C491 1.429 . S
C488 C471 1.574 . S
C488 H482 0.949 . S
C488 C492 1.368 . S
C489 C470 1.429 . S
C489 C483 1.429 . S
C489 C490 1.523 . S
C490 C471 1.368 . S
C490 C484 1.368 . S
C490 C489 1.523 . S
C491 C475 1.429 . S
C491 C487 1.429 . S
C491 C492 1.523 . S
C492 C476 1.368 . S
C492 C488 1.368 . S
C492 C491 1.523 . S
H493 C468 0.950 . S
H494 C470 0.950 . S
H495 C471 0.949 . S
H496 C473 0.950 . S
H497 C475 0.950 . S
C498 C499 1.349 . S
C498 C500 1.327 . S
C498 H523 0.950 . S
C499 C498 1.349 . S
C499 C515 1.349 . S
C500 C498 1.327 . S
C500 C519 1.429 . S
C500 H524 0.950 . S
C501 C518 1.574 . S
C501 C520 1.368 . S
C501 H525 0.949 . S
H502 C506 0.949 . S
C503 C504 1.349 . S
C503 C505 1.327 . S
C503 H526 0.950 . S
C504 C503 1.349 . S
C504 C516 1.349 . S
C505 C503 1.327 . S
C505 C521 1.429 . S
C505 H527 0.950 . S
C506 H502 0.949 . S
C506 C514 1.574 . S
C506 C522 1.368 . S
H507 C515 0.950 . S
H508 C513 0.950 . S
H509 C514 0.949 . S
H510 C516 0.950 . S
H511 C517 0.950 . S
H512 C518 0.949 . S
C513 H508 0.950 . S
C513 C515 1.327 . S
C513 C519 1.429 . S
C514 C506 1.574 . S
C514 H509 0.949 . S
C514 C520 1.368 . S
C515 C499 1.349 . S
C515 H507 0.950 . S
C515 C513 1.327 . S
C516 C504 1.349 . S
C516 H510 0.950 . S
C516 C517 1.327 . S
C517 H511 0.950 . S
C517 C516 1.327 . S
C517 C521 1.429 . S
C518 C501 1.574 . S
C518 H512 0.949 . S
C518 C522 1.368 . S
C519 C500 1.429 . S
C519 C513 1.429 . S
C519 C520 1.523 . S
C520 C501 1.368 . S
C520 C514 1.368 . S
C520 C519 1.523 . S
C521 C505 1.429 . S
C521 C517 1.429 . S
C521 C522 1.523 . S
C522 C506 1.368 . S
C522 C518 1.368 . S
C522 C521 1.523 . S
H523 C498 0.950 . S
H524 C500 0.950 . S
H525 C501 0.949 . S
H526 C503 0.950 . S
H527 C505 0.950 . S
C528 C529 1.349 . S
C528 C530 1.327 . S
C528 H553 0.950 . S
C529 C528 1.349 . S
C529 C545 1.349 . S
C530 C528 1.327 . S
C530 C549 1.429 . S
C530 H554 0.950 . S
C531 C548 1.574 . S
C531 C550 1.368 . S
C531 H555 0.949 . S
H532 C536 0.949 . S
C533 C534 1.349 . S
C533 C535 1.327 . S
C533 H556 0.950 . S
C534 C533 1.349 . S
C534 C546 1.349 . S
C535 C533 1.327 . S
C535 C551 1.429 . S
C535 H557 0.950 . S
C536 H532 0.949 . S
C536 C544 1.574 . S
C536 C552 1.368 . S
H537 C545 0.950 . S
H538 C543 0.950 . S
H539 C544 0.949 . S
H540 C546 0.950 . S
H541 C547 0.950 . S
H542 C548 0.949 . S
C543 H538 0.950 . S
C543 C545 1.327 . S
C543 C549 1.429 . S
C544 C536 1.574 . S
C544 H539 0.949 . S
C544 C550 1.368 . S
C545 C529 1.349 . S
C545 H537 0.950 . S
C545 C543 1.327 . S
C546 C534 1.349 . S
C546 H540 0.950 . S
C546 C547 1.327 . S
C547 H541 0.950 . S
C547 C546 1.327 . S
C547 C551 1.429 . S
C548 C531 1.574 . S
C548 H542 0.949 . S
C548 C552 1.368 . S
C549 C530 1.429 . S
C549 C543 1.429 . S
C549 C550 1.523 . S
C550 C531 1.368 . S
C550 C544 1.368 . S
C550 C549 1.523 . S
C551 C535 1.429 . S
C551 C547 1.429 . S
C551 C552 1.523 . S
C552 C536 1.368 . S
C552 C548 1.368 . S
C552 C551 1.523 . S
H553 C528 0.950 . S
H554 C530 0.950 . S
H555 C531 0.949 . S
H556 C533 0.950 . S
H557 C535 0.950 . S
C558 C559 1.349 . S
C558 C560 1.327 . S
C558 H583 0.950 . S
C559 C558 1.349 . S
C559 C575 1.349 . S
C560 C558 1.327 . S
C560 C579 1.429 . S
C560 H584 0.950 . S
C561 C578 1.574 . S
C561 C580 1.368 . S
C561 H585 0.949 . S
H562 C566 0.949 . S
C563 C564 1.349 . S
C563 C565 1.327 . S
C563 H586 0.950 . S
C564 C563 1.349 . S
C564 C576 1.349 . S
C565 C563 1.327 . S
C565 C581 1.429 . S
C565 H587 0.950 . S
C566 H562 0.949 . S
C566 C574 1.574 . S
C566 C582 1.368 . S
H567 C575 0.950 . S
H568 C573 0.950 . S
H569 C574 0.949 . S
H570 C576 0.950 . S
H571 C577 0.950 . S
H572 C578 0.949 . S
C573 H568 0.950 . S
C573 C575 1.327 . S
C573 C579 1.429 . S
C574 C566 1.574 . S
C574 H569 0.949 . S
C574 C580 1.368 . S
C575 C559 1.349 . S
C575 H567 0.950 . S
C575 C573 1.327 . S
C576 C564 1.349 . S
C576 H570 0.950 . S
C576 C577 1.327 . S
C577 H571 0.950 . S
C577 C576 1.327 . S
C577 C581 1.429 . S
C578 C561 1.574 . S
C578 H572 0.949 . S
C578 C582 1.368 . S
C579 C560 1.429 . S
C579 C573 1.429 . S
C579 C580 1.523 . S
C580 C561 1.368 . S
C580 C574 1.368 . S
C580 C579 1.523 . S
C581 C565 1.429 . S
C581 C577 1.429 . S
C581 C582 1.523 . S
C582 C566 1.368 . S
C582 C578 1.368 . S
C582 C581 1.523 . S
H583 C558 0.950 . S
H584 C560 0.950 . S
H585 C561 0.949 . S
H586 C563 0.950 . S
H587 C565 0.950 . S
C588 C589 1.349 . S
C588 C590 1.327 . S
C588 H613 0.950 . S
C589 C588 1.349 . S
C589 C605 1.349 . S
C590 C588 1.327 . S
C590 C609 1.429 . S
C590 H614 0.950 . S
C591 C608 1.574 . S
C591 C610 1.368 . S
C591 H615 0.949 . S
H592 C596 0.949 . S
C593 C594 1.349 . S
C593 C595 1.327 . S
C593 H616 0.950 . S
C594 C593 1.349 . S
C594 C606 1.349 . S
C595 C593 1.327 . S
C595 C611 1.429 . S
C595 H617 0.950 . S
C596 H592 0.949 . S
C596 C604 1.574 . S
C596 C612 1.368 . S
H597 C605 0.950 1_556 S
H598 C603 0.950 . S
H599 C604 0.949 . S
H600 C606 0.950 . S
H601 C607 0.950 . S
H602 C608 0.949 . S
C603 H598 0.950 . S
C603 C605 1.327 . S
C603 C609 1.429 . S
C604 C596 1.574 . S
C604 H599 0.949 . S
C604 C610 1.368 . S
C605 C589 1.349 . S
C605 H597 0.950 1_554 S
C605 C603 1.327 . S
C606 C594 1.349 . S
C606 H600 0.950 . S
C606 C607 1.327 . S
C607 H601 0.950 . S
C607 C606 1.327 . S
C607 C611 1.429 . S
C608 C591 1.574 . S
C608 H602 0.949 . S
C608 C612 1.368 . S
C609 C590 1.429 . S
C609 C603 1.429 . S
C609 C610 1.523 . S
C610 C591 1.368 . S
C610 C604 1.368 . S
C610 C609 1.523 . S
C611 C595 1.429 . S
C611 C607 1.429 . S
C611 C612 1.523 . S
C612 C596 1.368 . S
C612 C608 1.368 . S
C612 C611 1.523 . S
H613 C588 0.950 . S
H614 C590 0.950 . S
H615 C591 0.949 . S
H616 C593 0.950 . S
H617 C595 0.950 . S
C618 C619 1.349 . S
C618 C620 1.327 . S
C618 H643 0.950 . S
C619 C618 1.349 . S
C619 C635 1.349 . S
C620 C618 1.327 . S
C620 C639 1.429 . S
C620 H644 0.950 . S
C621 C638 1.574 . S
C621 C640 1.368 . S
C621 H645 0.949 . S
H622 C626 0.949 . S
C623 C624 1.349 . S
C623 C625 1.327 . S
C623 H646 0.950 . S
C624 C623 1.349 . S
C624 C636 1.349 . S
C625 C623 1.327 . S
C625 C641 1.429 . S
C625 H647 0.950 . S
C626 H622 0.949 . S
C626 C634 1.574 . S
C626 C642 1.368 . S
H627 C635 0.950 . S
H628 C633 0.950 . S
H629 C634 0.949 . S
H630 C636 0.950 . S
H631 C637 0.950 . S
H632 C638 0.949 . S
C633 H628 0.950 . S
C633 C635 1.327 . S
C633 C639 1.429 . S
C634 C626 1.574 . S
C634 H629 0.949 . S
C634 C640 1.368 . S
C635 C619 1.349 . S
C635 H627 0.950 . S
C635 C633 1.327 . S
C636 C624 1.349 . S
C636 H630 0.950 . S
C636 C637 1.327 . S
C637 H631 0.950 . S
C637 C636 1.327 . S
C637 C641 1.429 . S
C638 C621 1.574 . S
C638 H632 0.949 . S
C638 C642 1.368 . S
C639 C620 1.429 . S
C639 C633 1.429 . S
C639 C640 1.523 . S
C640 C621 1.368 . S
C640 C634 1.368 . S
C640 C639 1.523 . S
C641 C625 1.429 . S
C641 C637 1.429 . S
C641 C642 1.523 . S
C642 C626 1.368 . S
C642 C638 1.368 . S
C642 C641 1.523 . S
H643 C618 0.950 . S
H644 C620 0.950 . S
H645 C621 0.949 . S
H646 C623 0.950 . S
H647 C625 0.950 . S
C648 C649 1.349 . S
C648 C650 1.327 . S
C648 H673 0.950 . S
C649 C648 1.349 . S
C649 C665 1.349 . S
C650 C648 1.327 . S
C650 C669 1.429 . S
C650 H674 0.950 . S
C651 C668 1.574 . S
C651 C670 1.368 . S
C651 H675 0.949 . S
H652 C656 0.949 . S
C653 C654 1.349 . S
C653 C655 1.327 . S
C653 H676 0.950 . S
C654 C653 1.349 . S
C654 C666 1.349 . S
C655 C653 1.327 . S
C655 C671 1.429 . S
C655 H677 0.950 . S
C656 H652 0.949 . S
C656 C664 1.574 . S
C656 C672 1.368 . S
H657 C665 0.950 . S
H658 C663 0.950 . S
H659 C664 0.949 . S
H660 C666 0.950 . S
H661 C667 0.950 . S
H662 C668 0.949 . S
C663 H658 0.950 . S
C663 C665 1.327 . S
C663 C669 1.429 . S
C664 C656 1.574 . S
C664 H659 0.949 . S
C664 C670 1.368 . S
C665 C649 1.349 . S
C665 H657 0.950 . S
C665 C663 1.327 . S
C666 C654 1.349 . S
C666 H660 0.950 . S
C666 C667 1.327 . S
C667 H661 0.950 . S
C667 C666 1.327 . S
C667 C671 1.429 . S
C668 C651 1.574 . S
C668 H662 0.949 . S
C668 C672 1.368 . S
C669 C650 1.429 . S
C669 C663 1.429 . S
C669 C670 1.523 . S
C670 C651 1.368 . S
C670 C664 1.368 . S
C670 C669 1.523 . S
C671 C655 1.429 . S
C671 C667 1.429 . S
C671 C672 1.523 . S
C672 C656 1.368 . S
C672 C668 1.368 . S
C672 C671 1.523 . S
H673 C648 0.950 . S
H674 C650 0.950 . S
H675 C651 0.949 . S
H676 C653 0.950 . S
H677 C655 0.950 . S
C678 C679 1.349 . S
C678 C680 1.327 . S
C678 H703 0.950 1_554 S
C679 C678 1.349 . S
C679 C695 1.349 . S
C680 C678 1.327 . S
C680 C699 1.429 . S
C680 H704 0.950 . S
C681 C698 1.574 . S
C681 C700 1.368 . S
C681 H705 0.949 . S
H682 C686 0.949 . S
C683 C684 1.349 . S
C683 C685 1.327 . S
C683 H706 0.950 . S
C684 C683 1.349 . S
C684 C696 1.349 . S
C685 C683 1.327 . S
C685 C701 1.429 . S
C685 H707 0.950 . S
C686 H682 0.949 . S
C686 C694 1.574 . S
C686 C702 1.368 . S
H687 C695 0.950 . S
H688 C693 0.950 . S
H689 C694 0.949 . S
H690 C696 0.950 . S
H691 C697 0.950 . S
H692 C698 0.949 . S
C693 H688 0.950 . S
C693 C695 1.327 . S
C693 C699 1.429 . S
C694 C686 1.574 . S
C694 H689 0.949 . S
C694 C700 1.368 . S
C695 C679 1.349 . S
C695 H687 0.950 . S
C695 C693 1.327 . S
C696 C684 1.349 . S
C696 H690 0.950 . S
C696 C697 1.327 . S
C697 H691 0.950 . S
C697 C696 1.327 . S
C697 C701 1.429 . S
C698 C681 1.574 . S
C698 H692 0.949 . S
C698 C702 1.368 . S
C699 C680 1.429 . S
C699 C693 1.429 . S
C699 C700 1.523 . S
C700 C681 1.368 . S
C700 C694 1.368 . S
C700 C699 1.523 . S
C701 C685 1.429 . S
C701 C697 1.429 . S
C701 C702 1.523 . S
C702 C686 1.368 . S
C702 C698 1.368 . S
C702 C701 1.523 . S
H703 C678 0.950 1_556 S
H704 C680 0.950 . S
H705 C681 0.949 . S
H706 C683 0.950 . S
H707 C685 0.950 . S
C708 C709 1.349 . S
C708 C710 1.327 . S
C708 H733 0.950 . S
C709 C708 1.349 . S
C709 C725 1.349 . S
C710 C708 1.327 . S
C710 C729 1.429 . S
C710 H734 0.950 . S
C711 C728 1.574 . S
C711 C730 1.368 . S
C711 H735 0.949 . S
H712 C716 0.949 . S
C713 C714 1.349 . S
C713 C715 1.327 . S
C713 H736 0.950 . S
C714 C713 1.349 . S
C714 C726 1.349 . S
C715 C713 1.327 . S
C715 C731 1.429 . S
C715 H737 0.950 . S
C716 H712 0.949 . S
C716 C724 1.574 . S
C716 C732 1.368 . S
H717 C725 0.950 . S
H718 C723 0.950 . S
H719 C724 0.949 . S
H720 C726 0.950 . S
H721 C727 0.950 . S
H722 C728 0.949 . S
C723 H718 0.950 . S
C723 C725 1.327 . S
C723 C729 1.429 . S
C724 C716 1.574 . S
C724 H719 0.949 . S
C724 C730 1.368 . S
C725 C709 1.349 . S
C725 H717 0.950 . S
C725 C723 1.327 . S
C726 C714 1.349 . S
C726 H720 0.950 . S
C726 C727 1.327 . S
C727 H721 0.950 . S
C727 C726 1.327 . S
C727 C731 1.429 . S
C728 C711 1.574 . S
C728 H722 0.949 . S
C728 C732 1.368 . S
C729 C710 1.429 . S
C729 C723 1.429 . S
C729 C730 1.523 . S
C730 C711 1.368 . S
C730 C724 1.368 . S
C730 C729 1.523 . S
C731 C715 1.429 . S
C731 C727 1.429 . S
C731 C732 1.523 . S
C732 C716 1.368 . S
C732 C728 1.368 . S
C732 C731 1.523 . S
H733 C708 0.950 . S
H734 C710 0.950 . S
H735 C711 0.949 . S
H736 C713 0.950 . S
H737 C715 0.950 . S
C738 C739 1.349 . S
C738 C740 1.327 . S
C738 H763 0.950 . S
C739 C738 1.349 . S
C739 C755 1.349 . S
C740 C738 1.327 . S
C740 C759 1.429 . S
C740 H764 0.950 . S
C741 C758 1.574 . S
C741 C760 1.368 . S
C741 H765 0.949 . S
H742 C746 0.949 . S
C743 C744 1.349 . S
C743 C745 1.327 . S
C743 H766 0.950 . S
C744 C743 1.349 . S
C744 C756 1.349 . S
C745 C743 1.327 . S
C745 C761 1.429 . S
C745 H767 0.950 . S
C746 H742 0.949 . S
C746 C754 1.574 . S
C746 C762 1.368 . S
H747 C755 0.950 . S
H748 C753 0.950 . S
H749 C754 0.949 . S
H750 C756 0.950 . S
H751 C757 0.950 . S
H752 C758 0.949 . S
C753 H748 0.950 . S
C753 C755 1.327 . S
C753 C759 1.429 . S
C754 C746 1.574 . S
C754 H749 0.949 . S
C754 C760 1.368 . S
C755 C739 1.349 . S
C755 H747 0.950 . S
C755 C753 1.327 . S
C756 C744 1.349 . S
C756 H750 0.950 . S
C756 C757 1.327 . S
C757 H751 0.950 . S
C757 C756 1.327 . S
C757 C761 1.429 . S
C758 C741 1.574 . S
C758 H752 0.949 . S
C758 C762 1.368 . S
C759 C740 1.429 . S
C759 C753 1.429 . S
C759 C760 1.523 . S
C760 C741 1.368 . S
C760 C754 1.368 . S
C760 C759 1.523 . S
C761 C745 1.429 . S
C761 C757 1.429 . S
C761 C762 1.523 . S
C762 C746 1.368 . S
C762 C758 1.368 . S
C762 C761 1.523 . S
H763 C738 0.950 . S
H764 C740 0.950 . S
H765 C741 0.949 . S
H766 C743 0.950 . S
H767 C745 0.950 . S
C768 C769 1.349 . S
C768 C770 1.327 . S
C768 H793 0.950 . S
C769 C768 1.349 . S
C769 C785 1.349 1_556 S
C770 C768 1.327 . S
C770 C789 1.429 . S
C770 H794 0.950 . S
C771 C788 1.574 . S
C771 C790 1.368 1_554 S
C771 H795 0.949 . S
H772 C776 0.949 . S
C773 C774 1.349 . S
C773 C775 1.327 . S
C773 H796 0.950 . S
C774 C773 1.349 . S
C774 C786 1.349 1_554 S
C775 C773 1.327 . S
C775 C791 1.429 . S
C775 H797 0.950 . S
C776 H772 0.949 . S
C776 C784 1.574 . S
C776 C792 1.368 1_556 S
H777 C785 0.950 . S
H778 C783 0.950 . S
H779 C784 0.949 . S
H780 C786 0.950 . S
H781 C787 0.950 . S
H782 C788 0.949 . S
C783 H778 0.950 . S
C783 C785 1.327 . S
C783 C789 1.429 1_554 S
C784 C776 1.574 . S
C784 H779 0.949 . S
C784 C790 1.368 . S
C785 C769 1.349 1_554 S
C785 H777 0.950 . S
C785 C783 1.327 . S
C786 C774 1.349 1_556 S
C786 H780 0.950 . S
C786 C787 1.327 . S
C787 H781 0.950 . S
C787 C786 1.327 . S
C787 C791 1.429 1_556 S
C788 C771 1.574 . S
C788 H782 0.949 . S
C788 C792 1.368 . S
C789 C770 1.429 . S
C789 C783 1.429 1_556 S
C789 C790 1.523 . S
C790 C771 1.368 1_556 S
C790 C784 1.368 . S
C790 C789 1.523 . S
C791 C775 1.429 . S
C791 C787 1.429 1_554 S
C791 C792 1.523 . S
C792 C776 1.368 1_554 S
C792 C788 1.368 . S
C792 C791 1.523 . S
H793 C768 0.950 . S
H794 C770 0.950 . S
H795 C771 0.949 . S
H796 C773 0.950 . S
H797 C775 0.950 . S
C798 C799 1.349 . S
C798 C800 1.327 . S
C798 H823 0.950 . S
C799 C798 1.349 . S
C799 C815 1.349 . S
C800 C798 1.327 . S
C800 C819 1.429 . S
C800 H824 0.950 . S
C801 C818 1.574 . S
C801 C820 1.368 . S
C801 H825 0.949 . S
H802 C806 0.949 . S
C803 C804 1.349 . S
C803 C805 1.327 . S
C803 H826 0.950 . S
C804 C803 1.349 . S
C804 C816 1.349 . S
C805 C803 1.327 . S
C805 C821 1.429 . S
C805 H827 0.950 . S
C806 H802 0.949 . S
C806 C814 1.574 . S
C806 C822 1.368 . S
H807 C815 0.950 . S
H808 C813 0.950 . S
H809 C814 0.949 . S
H810 C816 0.950 . S
H811 C817 0.950 . S
H812 C818 0.949 . S
C813 H808 0.950 . S
C813 C815 1.327 . S
C813 C819 1.429 . S
C814 C806 1.574 . S
C814 H809 0.949 . S
C814 C820 1.368 . S
C815 C799 1.349 . S
C815 H807 0.950 . S
C815 C813 1.327 . S
C816 C804 1.349 . S
C816 H810 0.950 . S
C816 C817 1.327 . S
C817 H811 0.950 . S
C817 C816 1.327 . S
C817 C821 1.429 . S
C818 C801 1.574 . S
C818 H812 0.949 . S
C818 C822 1.368 . S
C819 C800 1.429 . S
C819 C813 1.429 . S
C819 C820 1.523 . S
C820 C801 1.368 . S
C820 C814 1.368 . S
C820 C819 1.523 . S
C821 C805 1.429 . S
C821 C817 1.429 . S
C821 C822 1.523 . S
C822 C806 1.368 . S
C822 C818 1.368 . S
C822 C821 1.523 . S
H823 C798 0.950 . S
H824 C800 0.950 . S
H825 C801 0.949 . S
H826 C803 0.950 . S
H827 C805 0.950 . S
C828 C829 1.349 . S
C828 C830 1.327 . S
C828 H853 0.950 . S
C829 C828 1.349 . S
C829 C845 1.349 . S
C830 C828 1.327 . S
C830 C849 1.429 . S
C830 H854 0.950 . S
C831 C848 1.574 . S
C831 C850 1.368 . S
C831 H855 0.949 . S
H832 C836 0.949 . S
C833 C834 1.349 . S
C833 C835 1.327 . S
C833 H856 0.950 . S
C834 C833 1.349 . S
C834 C846 1.349 . S
C835 C833 1.327 . S
C835 C851 1.429 . S
C835 H857 0.950 . S
C836 H832 0.949 . S
C836 C844 1.574 . S
C836 C852 1.368 . S
H837 C845 0.950 . S
H838 C843 0.950 . S
H839 C844 0.949 . S
H840 C846 0.950 . S
H841 C847 0.950 . S
H842 C848 0.949 . S
C843 H838 0.950 . S
C843 C845 1.327 . S
C843 C849 1.429 . S
C844 C836 1.574 . S
C844 H839 0.949 . S
C844 C850 1.368 . S
C845 C829 1.349 . S
C845 H837 0.950 . S
C845 C843 1.327 . S
C846 C834 1.349 . S
C846 H840 0.950 . S
C846 C847 1.327 . S
C847 H841 0.950 . S
C847 C846 1.327 . S
C847 C851 1.429 . S
C848 C831 1.574 . S
C848 H842 0.949 . S
C848 C852 1.368 . S
C849 C830 1.429 . S
C849 C843 1.429 . S
C849 C850 1.523 . S
C850 C831 1.368 . S
C850 C844 1.368 . S
C850 C849 1.523 . S
C851 C835 1.429 . S
C851 C847 1.429 . S
C851 C852 1.523 . S
C852 C836 1.368 . S
C852 C848 1.368 . S
C852 C851 1.523 . S
H853 C828 0.950 . S
H854 C830 0.950 . S
H855 C831 0.949 . S
H856 C833 0.950 . S
H857 C835 0.950 . S
C858 C859 1.349 1_556 S
C858 C860 1.327 . S
C858 H883 0.950 . S
C859 C858 1.349 1_554 S
C859 C875 1.349 . S
C860 C858 1.327 . S
C860 C879 1.429 1_556 S
C860 H884 0.950 . S
C861 C878 1.574 . S
C861 C880 1.368 . S
C861 H885 0.949 . S
H862 C866 0.949 . S
C863 C864 1.349 1_554 S
C863 C865 1.327 . S
C863 H886 0.950 . S
C864 C863 1.349 1_556 S
C864 C876 1.349 . S
C865 C863 1.327 . S
C865 C881 1.429 1_554 S
C865 H887 0.950 . S
C866 H862 0.949 . S
C866 C874 1.574 . S
C866 C882 1.368 . S
H867 C875 0.950 . S
H868 C873 0.950 . S
H869 C874 0.949 . S
H870 C876 0.950 . S
H871 C877 0.950 . S
H872 C878 0.949 . S
C873 H868 0.950 . S
C873 C875 1.327 . S
C873 C879 1.429 . S
C874 C866 1.574 . S
C874 H869 0.949 . S
C874 C880 1.368 1_556 S
C875 C859 1.349 . S
C875 H867 0.950 . S
C875 C873 1.327 . S
C876 C864 1.349 . S
C876 H870 0.950 . S
C876 C877 1.327 . S
C877 H871 0.950 . S
C877 C876 1.327 . S
C877 C881 1.429 . S
C878 C861 1.574 . S
C878 H872 0.949 . S
C878 C882 1.368 1_554 S
C879 C860 1.429 1_554 S
C879 C873 1.429 . S
C879 C880 1.523 . S
C880 C861 1.368 . S
C880 C874 1.368 1_554 S
C880 C879 1.523 . S
C881 C865 1.429 1_556 S
C881 C877 1.429 . S
C881 C882 1.523 . S
C882 C866 1.368 . S
C882 C878 1.368 1_556 S
C882 C881 1.523 . S
H883 C858 0.950 . S
H884 C860 0.950 . S
H885 C861 0.949 . S
H886 C863 0.950 . S
H887 C865 0.950 . S
C169 C0 1.290 . S
C174 C126 1.290 . S
C199 C14 1.290 . S
C204 C140 1.290 . S
C229 C28 1.290 . S
C234 C154 1.290 . S
C259 C42 1.290 . S
C264 C84 1.290 . S
C289 C98 1.290 . S
C294 C56 1.290 . S
C319 C112 1.290 . S
C324 C70 1.290 . S
C349 C151 1.820 . S
C354 C11 1.820 . S
C379 C25 1.820 . S
C384 C165 1.820 . S
C409 C39 1.820 . S
C414 C95 1.820 . S
C439 C53 1.820 . S
C444 C109 1.820 . S
C469 C67 1.820 . S
C474 C123 1.820 . S
C499 C81 1.820 . S
C504 C137 1.820 . S
C529 C149 0.772 . S
C534 C9 0.772 . S
C559 C23 0.771 . S
C564 C163 0.771 . S
C589 C37 0.772 . S
C594 C93 0.772 . S
C619 C51 0.772 . S
C624 C107 0.772 . S
C649 C65 0.771 . S
C654 C121 0.771 . S
C679 C79 0.772 . S
C684 C135 0.772 . S
C709 C5 1.666 . S
C714 C89 1.666 . S
C739 C103 1.666 . S
C744 C19 1.666 . S
C769 C33 1.666 . S
C774 C117 1.666 . S
C799 C47 1.666 . S
C804 C131 1.666 . S
C829 C61 1.666 . S
C834 C145 1.666 . S
C859 C159 1.666 . S
C864 C75 1.666 . S
