# Generated by pormake.
# Topology umc, (4)-cn, num edge types: 1
# Building blocks:
#     Node 0, Type 0, BuildingBlock: ICAMEG_clean_sbu_1, # of connection points: 4
#     Node 1, Type 0, BuildingBlock: ICAMEG_clean_sbu_1, # of connection points: 4
#     Node 2, Type 0, BuildingBlock: ICAMEG_clean_sbu_1, # of connection points: 4
#     Node 3, Type 0, BuildingBlock: ICAMEG_clean_sbu_1, # of connection points: 4
#     Node 4, Type 0, BuildingBlock: ICAMEG_clean_sbu_1, # of connection points: 4
#     Node 5, Type 0, BuildingBlock: ICAMEG_clean_sbu_1, # of connection points: 4
#     Node 6, Type 0, BuildingBlock: ICAMEG_clean_sbu_1, # of connection points: 4
#     Node 7, Type 0, BuildingBlock: ICAMEG_clean_sbu_1, # of connection points: 4
#     Node 8, Type 0, BuildingBlock: ICAMEG_clean_sbu_1, # of connection points: 4
#     Node 9, Type 0, BuildingBlock: ICAMEG_clean_sbu_1, # of connection points: 4
#     Node 10, Type 0, BuildingBlock: ICAMEG_clean_sbu_1, # of connection points: 4
#     Node 11, Type 0, BuildingBlock: ICAMEG_clean_sbu_1, # of connection points: 4
#     Node 12, Type 0, BuildingBlock: ICAMEG_clean_sbu_1, # of connection points: 4
#     Node 13, Type 0, BuildingBlock: ICAMEG_clean_sbu_1, # of connection points: 4
#     Node 14, Type 0, BuildingBlock: ICAMEG_clean_sbu_1, # of connection points: 4
#     Node 15, Type 0, BuildingBlock: ICAMEG_clean_sbu_1, # of connection points: 4
#     Edge 16, Type (0, 0), BuildingBlock: XUDNAN_clean_linker_2, # of connection points: 2
#     Edge 17, Type (0, 0), BuildingBlock: XUDNAN_clean_linker_2, # of connection points: 2
#     Edge 18, Type (0, 0), BuildingBlock: XUDNAN_clean_linker_2, # of connection points: 2
#     Edge 19, Type (0, 0), BuildingBlock: XUDNAN_clean_linker_2, # of connection points: 2
#     Edge 20, Type (0, 0), BuildingBlock: XUDNAN_clean_linker_2, # of connection points: 2
#     Edge 21, Type (0, 0), BuildingBlock: XUDNAN_clean_linker_2, # of connection points: 2
#     Edge 22, Type (0, 0), BuildingBlock: XUDNAN_clean_linker_2, # of connection points: 2
#     Edge 23, Type (0, 0), BuildingBlock: XUDNAN_clean_linker_2, # of connection points: 2
#     Edge 24, Type (0, 0), BuildingBlock: XUDNAN_clean_linker_2, # of connection points: 2
#     Edge 25, Type (0, 0), BuildingBlock: XUDNAN_clean_linker_2, # of connection points: 2
#     Edge 26, Type (0, 0), BuildingBlock: XUDNAN_clean_linker_2, # of connection points: 2
#     Edge 27, Type (0, 0), BuildingBlock: XUDNAN_clean_linker_2, # of connection points: 2
#     Edge 28, Type (0, 0), BuildingBlock: XUDNAN_clean_linker_2, # of connection points: 2
#     Edge 29, Type (0, 0), BuildingBlock: XUDNAN_clean_linker_2, # of connection points: 2
#     Edge 30, Type (0, 0), BuildingBlock: XUDNAN_clean_linker_2, # of connection points: 2
#     Edge 31, Type (0, 0), BuildingBlock: XUDNAN_clean_linker_2, # of connection points: 2
#     Edge 32, Type (0, 0), BuildingBlock: XUDNAN_clean_linker_2, # of connection points: 2
#     Edge 33, Type (0, 0), BuildingBlock: XUDNAN_clean_linker_2, # of connection points: 2
#     Edge 34, Type (0, 0), BuildingBlock: XUDNAN_clean_linker_2, # of connection points: 2
#     Edge 35, Type (0, 0), BuildingBlock: XUDNAN_clean_linker_2, # of connection points: 2
#     Edge 36, Type (0, 0), BuildingBlock: XUDNAN_clean_linker_2, # of connection points: 2
#     Edge 37, Type (0, 0), BuildingBlock: XUDNAN_clean_linker_2, # of connection points: 2
#     Edge 38, Type (0, 0), BuildingBlock: XUDNAN_clean_linker_2, # of connection points: 2
#     Edge 39, Type (0, 0), BuildingBlock: XUDNAN_clean_linker_2, # of connection points: 2
#     Edge 40, Type (0, 0), BuildingBlock: XUDNAN_clean_linker_2, # of connection points: 2
#     Edge 41, Type (0, 0), BuildingBlock: XUDNAN_clean_linker_2, # of connection points: 2
#     Edge 42, Type (0, 0), BuildingBlock: XUDNAN_clean_linker_2, # of connection points: 2
#     Edge 43, Type (0, 0), BuildingBlock: XUDNAN_clean_linker_2, # of connection points: 2
#     Edge 44, Type (0, 0), BuildingBlock: XUDNAN_clean_linker_2, # of connection points: 2
#     Edge 45, Type (0, 0), BuildingBlock: XUDNAN_clean_linker_2, # of connection points: 2
#     Edge 46, Type (0, 0), BuildingBlock: XUDNAN_clean_linker_2, # of connection points: 2
#     Edge 47, Type (0, 0), BuildingBlock: XUDNAN_clean_linker_2, # of connection points: 2
# Relax obj value: 0.053
# Max RMSD: 0.129
# Mean RMSD: 0.129
data_MOF--net-umc--node1-ICAMEG_clean_sbu_1--edge1-XUDNAN_clean_linker_2
_symmetry_space_group_name_H-M    P1
_symmetry_Int_Tables_number       1
_symmetry_cell_setting            triclinic
loop_
_symmetry_equiv_pos_as_xyz
'x, y, z'
_cell_length_a     50.128021
_cell_length_b     33.943316
_cell_length_c     60.75014
_cell_angle_alpha  90.002024
_cell_angle_beta   89.986684
_cell_angle_gamma 90.005583
loop_
_atom_site_label
_atom_site_type_symbol
_atom_site_fract_x
_atom_site_fract_y
_atom_site_fract_z
_atom_type_partial_charge
Co0 Co 0.33341 0.98751 0.37516 0.0
Co1 Co 0.35521 0.08132 0.36236 0.0
O2 O 0.33398 0.04428 0.37923 0.0
C3 C 0.351 0.00126 0.4206 0.0
O4 O 0.36846 0.02547 0.41189 0.0
C5 C 0.29944 0.10458 0.35573 0.0
O6 O 0.2953 0.06713 0.35165 0.0
O7 O 0.34509 0.05527 0.33428 0.0
O8 O 0.33198 0.99335 0.34226 0.0
H9 H 0.42136 0.12244 0.30461 0.0
H10 H 0.29447 0.02554 0.40528 0.0
O11 O 0.33537 0.98164 0.40813 0.0
H12 H 0.24031 0.95872 0.34873 0.0
H13 H 0.30542 0.84987 0.39545 0.0
H14 H 0.35849 0.93079 0.34421 0.0
H15 H 0.28943 0.95446 0.34788 0.0
H16 H 0.30665 0.92223 0.39928 0.0
O17 O 0.32297 0.11664 0.36009 0.0
H18 H 0.39491 0.075 0.32631 0.0
H19 H 0.35939 0.1688 0.36211 0.0
H20 H 0.35764 0.85863 0.33962 0.0
H21 H 0.24542 0.03036 0.40682 0.0
H22 H 0.33096 0.81764 0.36539 0.0
H23 H 0.218 0.99691 0.37836 0.0
O24 O 0.3729 0.98523 0.37315 0.0
H25 H 0.33834 0.13718 0.43771 0.0
H26 H 0.40682 0.10738 0.38185 0.0
H27 H 0.42038 0.13613 0.41742 0.0
H28 H 0.386 0.1512 0.44565 0.0
H29 H 0.32567 0.10829 0.40194 0.0
H30 H 0.38527 0.2173 0.34067 0.0
H31 H 0.41662 0.19416 0.31174 0.0
O32 O 0.38734 0.0461 0.36423 0.0
C33 C 0.33719 0.02097 0.32859 0.0
C34 C 0.40784 0.13288 0.31722 0.0
C35 C 0.38756 0.18613 0.33744 0.0
N36 N 0.37583 0.11914 0.34558 0.0
C37 C 0.39288 0.10616 0.3296 0.0
C38 C 0.37293 0.15855 0.34949 0.0
C39 C 0.40515 0.17312 0.32122 0.0
C40 C 0.28267 0.01051 0.39298 0.0
N41 N 0.29479 0.9895 0.3766 0.0
C42 C 0.25491 0.0135 0.39388 0.0
C43 C 0.23953 0.99478 0.37789 0.0
C44 C 0.25204 0.97336 0.36125 0.0
C45 C 0.27985 0.97108 0.36084 0.0
C46 C 0.3171 0.86741 0.38412 0.0
C47 C 0.34673 0.91319 0.3554 0.0
C48 C 0.31794 0.90837 0.38625 0.0
N49 N 0.33253 0.9307 0.37191 0.0
C50 C 0.34638 0.87232 0.35276 0.0
C51 C 0.33143 0.84935 0.36724 0.0
C52 C 0.39136 0.00956 0.36816 0.0
C53 C 0.35348 0.13092 0.4255 0.0
C54 C 0.39175 0.11395 0.39403 0.0
C55 C 0.39954 0.13024 0.41414 0.0
C56 C 0.38024 0.13869 0.42997 0.0
N57 N 0.36547 0.1064 0.38978 0.0
C58 C 0.34642 0.11473 0.40518 0.0
Co59 Co 0.63464 0.98091 0.37029 0.0
Co60 Co 0.62721 0.88312 0.35697 0.0
O61 O 0.64191 0.92502 0.37515 0.0
C62 C 0.6201 0.96662 0.41655 0.0
O63 O 0.60518 0.93752 0.40941 0.0
C64 C 0.67643 0.83889 0.34592 0.0
O65 O 0.67167 0.84644 0.32511 0.0
O66 O 0.64158 0.90963 0.33023 0.0
O67 O 0.6367 0.97423 0.33757 0.0
H68 H 0.57931 0.82821 0.29115 0.0
H69 H 0.67866 0.95665 0.4 0.0
O70 O 0.63273 0.98824 0.40293 0.0
H71 H 0.72109 0.03758 0.34238 0.0
H72 H 0.64339 0.12538 0.38756 0.0
H73 H 0.60072 0.02664 0.33953 0.0
H74 H 0.67256 0.02576 0.34193 0.0
H75 H 0.65273 0.05454 0.39247 0.0
O76 O 0.66133 0.85295 0.36087 0.0
H77 H 0.59725 0.88072 0.31501 0.0
H78 H 0.62713 0.79511 0.35961 0.0
H79 H 0.59099 0.09715 0.33392 0.0
H80 H 0.72724 0.96805 0.40119 0.0
H81 H 0.6124 0.14708 0.35805 0.0
H82 H 0.74877 0.00873 0.37221 0.0
O83 O 0.59557 0.97119 0.36936 0.0
H84 H 0.63226 0.83602 0.43528 0.0
H85 H 0.5746 0.84841 0.36992 0.0
H86 H 0.55625 0.81983 0.40401 0.0
H87 H 0.58517 0.81351 0.43703 0.0
H88 H 0.64971 0.86477 0.40089 0.0
H89 H 0.60967 0.74167 0.33619 0.0
H90 H 0.5855 0.7581 0.3017 0.0
O91 O 0.59263 0.91183 0.3533 0.0
C92 C 0.64182 0.94581 0.32447 0.0
C93 C 0.58978 0.82068 0.30615 0.0
C94 C 0.60682 0.7721 0.33142 0.0
N95 N 0.61315 0.841 0.33871 0.0
C96 C 0.59995 0.85028 0.31973 0.0
C97 C 0.6167 0.80249 0.34461 0.0
C98 C 0.59327 0.78135 0.31207 0.0
C99 C 0.68786 0.97459 0.38741 0.0
N100 N 0.67276 0.99068 0.37099 0.0
C101 C 0.71538 0.98085 0.38814 0.0
C102 C 0.72745 0.00365 0.37186 0.0
C103 C 0.71194 0.01983 0.35511 0.0
C104 C 0.68447 0.01295 0.35491 0.0
C105 C 0.63398 0.10392 0.37691 0.0
C106 C 0.61026 0.04821 0.34999 0.0
C107 C 0.63916 0.06378 0.37964 0.0
N108 N 0.62747 0.03655 0.36617 0.0
C109 C 0.6046 0.08808 0.34678 0.0
C110 C 0.6166 0.11607 0.36034 0.0
C111 C 0.58216 0.94371 0.36033 0.0
C112 C 0.61948 0.83851 0.42098 0.0
C113 C 0.58727 0.84592 0.38421 0.0
C114 C 0.5768 0.82956 0.40346 0.0
C115 C 0.59304 0.82596 0.42197 0.0
N116 N 0.6132 0.85829 0.38338 0.0
C117 C 0.62928 0.85461 0.40143 0.0
Co118 Co 0.36407 0.94797 0.12755 0.0
Co119 Co 0.37741 0.85874 0.15124 0.0
O120 O 0.36025 0.89089 0.12869 0.0
C121 C 0.37606 0.92597 0.08088 0.0
O122 O 0.39529 0.90246 0.08742 0.0
C123 C 0.32879 0.81298 0.16495 0.0
O124 O 0.32855 0.83079 0.18413 0.0
O125 O 0.36068 0.89159 0.17489 0.0
O126 O 0.36471 0.9519 0.16028 0.0
H127 H 0.42711 0.83572 0.22184 0.0
H128 H 0.31982 0.90807 0.10411 0.0
O129 O 0.36263 0.94579 0.09477 0.0
H130 H 0.27636 0.00353 0.1537 0.0
H131 H 0.34556 0.08347 0.09734 0.0
H132 H 0.39756 0.00633 0.15108 0.0
H133 H 0.32536 0.99822 0.15234 0.0
H134 H 0.33979 0.01146 0.10002 0.0
O135 O 0.34582 0.82241 0.15029 0.0
H136 H 0.40692 0.87575 0.19234 0.0
H137 H 0.38255 0.77201 0.15885 0.0
H138 H 0.40386 0.07827 0.14902 0.0
H139 H 0.27072 0.91269 0.10475 0.0
H140 H 0.37773 0.11736 0.12201 0.0
H141 H 0.24867 0.96064 0.12971 0.0
O142 O 0.4036 0.94265 0.12718 0.0
H143 H 0.37819 0.78622 0.0791 0.0
H144 H 0.43185 0.82558 0.14337 0.0
H145 H 0.45305 0.78801 0.11338 0.0
H146 H 0.42611 0.76797 0.08094 0.0
H147 H 0.35794 0.82427 0.10934 0.0
H148 H 0.40231 0.73083 0.18805 0.0
H149 H 0.42486 0.76271 0.21981 0.0
O150 O 0.40991 0.89359 0.1515 0.0
C151 C 0.36003 0.92909 0.17649 0.0
C152 C 0.4174 0.82148 0.20806 0.0
C153 C 0.40344 0.76262 0.18911 0.0
N154 N 0.39365 0.82624 0.17385 0.0
C155 C 0.40598 0.84399 0.19129 0.0
C156 C 0.39222 0.78608 0.17266 0.0
C157 C 0.4161 0.78052 0.20692 0.0
C158 C 0.31038 0.92911 0.11497 0.0
N159 N 0.32548 0.95282 0.1282 0.0
C160 C 0.28257 0.93155 0.11528 0.0
C161 C 0.27021 0.95843 0.1293 0.0
C162 C 0.28573 0.98248 0.14277 0.0
C163 C 0.31348 0.97922 0.14201 0.0
C164 C 0.35702 0.06677 0.10921 0.0
C165 C 0.386 0.02314 0.13937 0.0
C166 C 0.35388 0.02598 0.11077 0.0
N167 N 0.36818 0.00474 0.12581 0.0
C168 C 0.38971 0.06387 0.13824 0.0
C169 C 0.37507 0.08577 0.12306 0.0
C170 C 0.4186 0.92206 0.13968 0.0
C171 C 0.39015 0.79482 0.09313 0.0
C172 C 0.42012 0.81745 0.12922 0.0
C173 C 0.43217 0.79592 0.11233 0.0
C174 C 0.41704 0.78463 0.09416 0.0
N175 N 0.39377 0.82749 0.12807 0.0
C176 C 0.37879 0.81635 0.11033 0.0
Co177 Co 0.6618 0.02058 0.12415 0.0
Co178 Co 0.62855 0.10215 0.14459 0.0
O179 O 0.65333 0.07672 0.12422 0.0
C180 C 0.64229 0.03592 0.079 0.0
O181 O 0.62314 0.05731 0.08764 0.0
C182 C 0.67989 0.14395 0.15129 0.0
O183 O 0.69165 0.10941 0.15162 0.0
O184 O 0.64402 0.07384 0.1705 0.0
O185 O 0.66409 0.02009 0.15674 0.0
H186 H 0.56259 0.10668 0.2068 0.0
H187 H 0.69318 0.07567 0.09653 0.0
O188 O 0.65958 0.01953 0.09131 0.0
H189 H 0.75817 0.01575 0.14742 0.0
H190 H 0.70753 0.89887 0.0955 0.0
H191 H 0.64558 0.95184 0.15119 0.0
H192 H 0.71083 0.99599 0.1484 0.0
H193 H 0.69663 0.96972 0.09628 0.0
O194 O 0.65466 0.14628 0.14895 0.0
H195 H 0.59341 0.07463 0.18069 0.0
H196 H 0.61154 0.18536 0.15176 0.0
H197 H 0.65608 0.88086 0.15111 0.0
H198 H 0.74035 0.09617 0.0949 0.0
H199 H 0.68726 0.85394 0.12311 0.0
H200 H 0.77318 0.06626 0.12054 0.0
O201 O 0.62328 0.00607 0.1261 0.0
H202 H 0.63211 0.17987 0.07423 0.0
H203 H 0.57312 0.1162 0.1286 0.0
H204 H 0.55345 0.14865 0.09611 0.0
H205 H 0.58303 0.18078 0.06864 0.0
H206 H 0.65095 0.14676 0.10686 0.0
H207 H 0.581 0.21866 0.17763 0.0
H208 H 0.55622 0.17922 0.20535 0.0
O209 O 0.60207 0.05875 0.14041 0.0
C210 C 0.65671 0.0415 0.17282 0.0
C211 C 0.5732 0.12417 0.19475 0.0
C212 C 0.58356 0.18703 0.17839 0.0
N213 N 0.6041 0.12808 0.16463 0.0
C214 C 0.59061 0.10618 0.17988 0.0
C215 C 0.60086 0.16803 0.16382 0.0
C216 C 0.56966 0.16488 0.19394 0.0
C217 C 0.70741 0.0622 0.10757 0.0
N218 N 0.69928 0.03454 0.12248 0.0
C219 C 0.73407 0.07405 0.10664 0.0
C220 C 0.75247 0.0573 0.12105 0.0
C221 C 0.74405 0.02898 0.13615 0.0
C222 C 0.71722 0.01794 0.13665 0.0
C223 C 0.69391 0.91024 0.10778 0.0
C224 C 0.65922 0.94037 0.13899 0.0
C225 C 0.6876 0.95031 0.10826 0.0
N226 N 0.67052 0.96491 0.12379 0.0
C227 C 0.66507 0.90014 0.13901 0.0
C228 C 0.68255 0.88506 0.12329 0.0
C229 C 0.60234 0.0235 0.1331 0.0
C230 C 0.61901 0.16605 0.08611 0.0
C231 C 0.58612 0.13003 0.1167 0.0
C232 C 0.57486 0.14845 0.09836 0.0
C233 C 0.59147 0.1665 0.08297 0.0
N234 N 0.61315 0.12964 0.11964 0.0
C235 C 0.62955 0.1474 0.10466 0.0
Co236 Co 0.64585 0.98813 0.62317 0.0
Co237 Co 0.63727 0.89702 0.64756 0.0
O238 O 0.65327 0.93183 0.62552 0.0
C239 C 0.6336 0.96002 0.57798 0.0
O240 O 0.61911 0.93162 0.5865 0.0
C241 C 0.69547 0.88646 0.6538 0.0
O242 O 0.6974 0.92503 0.65416 0.0
O243 O 0.64572 0.93466 0.67204 0.0
O244 O 0.64583 0.99384 0.65562 0.0
H245 H 0.57952 0.86401 0.71259 0.0
H246 H 0.69127 0.95358 0.59867 0.0
O247 O 0.64581 0.98421 0.59041 0.0
H248 H 0.73107 0.05352 0.64757 0.0
H249 H 0.65617 0.12352 0.59033 0.0
H250 H 0.60984 0.04366 0.64634 0.0
H251 H 0.68242 0.04284 0.6471 0.0
H252 H 0.66593 0.05263 0.59417 0.0
O253 O 0.67268 0.87026 0.65174 0.0
H254 H 0.59912 0.90753 0.68436 0.0
H255 H 0.64263 0.81136 0.65767 0.0
H256 H 0.59955 0.11446 0.64314 0.0
H257 H 0.74003 0.9635 0.59848 0.0
H258 H 0.62281 0.15491 0.61497 0.0
H259 H 0.76023 0.01369 0.62312 0.0
O260 O 0.60669 0.97839 0.62376 0.0
H261 H 0.65731 0.81935 0.5791 0.0
H262 H 0.58902 0.85091 0.63477 0.0
H263 H 0.57776 0.80604 0.60422 0.0
H264 H 0.61208 0.78995 0.57612 0.0
H265 H 0.66758 0.86443 0.60979 0.0
H266 H 0.62364 0.76684 0.68569 0.0
H267 H 0.59177 0.79311 0.71336 0.0
O268 O 0.6015 0.92262 0.6434 0.0
C269 C 0.64681 0.97224 0.67271 0.0
C270 C 0.59331 0.85218 0.70057 0.0
C271 C 0.61811 0.79766 0.68549 0.0
N272 N 0.62182 0.86194 0.66929 0.0
C273 C 0.6044 0.87666 0.68451 0.0
C274 C 0.62883 0.82303 0.6697 0.0
C275 C 0.60022 0.81242 0.70101 0.0
C276 C 0.6999 0.97574 0.60928 0.0
N277 N 0.68401 0.9977 0.62282 0.0
C278 C 0.72753 0.98111 0.60917 0.0
C279 C 0.73885 0.00923 0.62302 0.0
C280 C 0.72251 0.03157 0.63676 0.0
C281 C 0.69497 0.02533 0.63646 0.0
C282 C 0.64593 0.10622 0.60269 0.0
C283 C 0.62013 0.06109 0.6341 0.0
C284 C 0.65133 0.06605 0.6049 0.0
N285 N 0.63855 0.04406 0.62053 0.0
C286 C 0.61418 0.10116 0.63234 0.0
C287 C 0.62722 0.12382 0.61652 0.0
C288 C 0.59215 0.95269 0.63333 0.0
C289 C 0.64218 0.82614 0.59124 0.0
C290 C 0.60396 0.84432 0.62251 0.0
C291 C 0.59752 0.81874 0.60531 0.0
C292 C 0.61679 0.80969 0.58956 0.0
N293 N 0.62887 0.86042 0.62402 0.0
C294 C 0.6479 0.85157 0.60868 0.0
Co295 Co 0.34531 0.03371 0.62865 0.0
Co296 Co 0.37826 0.12168 0.63804 0.0
O297 O 0.35138 0.08977 0.62308 0.0
C298 C 0.35661 0.03747 0.58106 0.0
O299 O 0.37698 0.06 0.58614 0.0
C300 C 0.32777 0.16528 0.64623 0.0
O301 O 0.31659 0.13138 0.65104 0.0
O302 O 0.36639 0.10198 0.66738 0.0
O303 O 0.34929 0.04171 0.66103 0.0
H304 H 0.45242 0.14647 0.69189 0.0
H305 H 0.30677 0.07865 0.60146 0.0
O306 O 0.3414 0.02434 0.59619 0.0
H307 H 0.25503 0.02998 0.66493 0.0
H308 H 0.29932 0.90362 0.6166 0.0
H309 H 0.36968 0.97349 0.65775 0.0
H310 H 0.30276 0.01368 0.66112 0.0
H311 H 0.30754 0.97439 0.61025 0.0
O312 O 0.35222 0.16653 0.64046 0.0
H313 H 0.4184 0.10654 0.67283 0.0
H314 H 0.39475 0.20597 0.63516 0.0
H315 H 0.36193 0.90287 0.66482 0.0
H316 H 0.25903 0.09544 0.60455 0.0
H317 H 0.32654 0.86744 0.64414 0.0
H318 H 0.23286 0.07116 0.63651 0.0
O319 O 0.38411 0.02185 0.6265 0.0
H320 H 0.36393 0.17496 0.56181 0.0
H321 H 0.43103 0.13124 0.61586 0.0
H322 H 0.44562 0.1526 0.57897 0.0
H323 H 0.41192 0.17462 0.55163 0.0
H324 H 0.35023 0.15299 0.59884 0.0
H325 H 0.4283 0.24711 0.65399 0.0
H326 H 0.45751 0.2173 0.6825 0.0
O327 O 0.40503 0.07795 0.63594 0.0
C328 C 0.35666 0.06925 0.67395 0.0
C329 C 0.43985 0.15977 0.67946 0.0
C330 C 0.42629 0.21627 0.6582 0.0
N331 N 0.40475 0.15385 0.6528 0.0
C332 C 0.42061 0.13729 0.66857 0.0
C333 C 0.40728 0.19287 0.64765 0.0
C334 C 0.44269 0.19952 0.67419 0.0
C335 C 0.29543 0.06763 0.61529 0.0
N336 N 0.30749 0.04504 0.63102 0.0
C337 C 0.26844 0.07737 0.617 0.0
C338 C 0.25378 0.06379 0.63496 0.0
C339 C 0.26621 0.0407 0.65092 0.0
C340 C 0.29325 0.03162 0.64869 0.0
C341 C 0.31476 0.91875 0.62575 0.0
C342 C 0.3541 0.95836 0.64883 0.0
C343 C 0.31954 0.95879 0.62219 0.0
N344 N 0.3389 0.97812 0.63378 0.0
C345 C 0.34987 0.91833 0.65284 0.0
C346 C 0.33003 0.89847 0.64121 0.0
C347 C 0.40517 0.04145 0.63085 0.0
C348 C 0.3788 0.16549 0.57359 0.0
C349 C 0.41627 0.14066 0.60404 0.0
C350 C 0.42464 0.15284 0.5832 0.0
C351 C 0.40573 0.16523 0.56788 0.0
N352 N 0.38981 0.14084 0.60949 0.0
C353 C 0.37117 0.15317 0.5946 0.0
Co354 Co 0.6475 0.02973 0.87057 0.0
Co355 Co 0.63785 0.12942 0.86184 0.0
O356 O 0.65551 0.08509 0.87602 0.0
C357 C 0.63569 0.04167 0.91746 0.0
O358 O 0.62166 0.07228 0.91118 0.0
C359 C 0.68277 0.17314 0.84199 0.0
O360 O 0.6686 0.17453 0.82383 0.0
O361 O 0.6428 0.10438 0.83233 0.0
O362 O 0.64749 0.03917 0.83821 0.0
H363 H 0.57473 0.19388 0.80865 0.0
H364 H 0.6933 0.05136 0.89907 0.0
O365 O 0.64734 0.02019 0.90316 0.0
H366 H 0.7319 0.97467 0.83791 0.0
H367 H 0.65639 0.88415 0.88453 0.0
H368 H 0.61202 0.98632 0.83994 0.0
H369 H 0.68346 0.98702 0.83965 0.0
H370 H 0.66632 0.95454 0.89058 0.0
O371 O 0.67371 0.15553 0.85898 0.0
H372 H 0.59701 0.13796 0.82696 0.0
H373 H 0.64172 0.21699 0.86668 0.0
H374 H 0.60167 0.91633 0.83322 0.0
H375 H 0.74183 0.03943 0.89806 0.0
H376 H 0.62393 0.86467 0.85562 0.0
H377 H 0.76143 0.00085 0.86731 0.0
O378 O 0.60835 0.0393 0.87134 0.0
H379 H 0.66756 0.16839 0.93777 0.0
H380 H 0.5921 0.16634 0.88576 0.0
H381 H 0.58531 0.19219 0.92328 0.0
H382 H 0.62321 0.19319 0.94961 0.0
H383 H 0.67339 0.14245 0.90016 0.0
H384 H 0.61992 0.27376 0.8488 0.0
H385 H 0.58617 0.26235 0.81956 0.0
O386 O 0.60214 0.10375 0.8646 0.0
C387 C 0.64584 0.069 0.82549 0.0
C388 C 0.58938 0.19922 0.82139 0.0
C389 C 0.61473 0.24406 0.84394 0.0
N390 N 0.62057 0.1742 0.8479 0.0
C391 C 0.60204 0.16768 0.83182 0.0
C392 C 0.62697 0.21181 0.85402 0.0
C393 C 0.59581 0.23764 0.82752 0.0
C394 C 0.70167 0.03435 0.8857 0.0
N395 N 0.68556 0.01972 0.86951 0.0
C396 C 0.72917 0.02778 0.88519 0.0
C397 C 0.74015 0.00617 0.86791 0.0
C398 C 0.7236 0.99149 0.85141 0.0
C399 C 0.6962 0.99866 0.85245 0.0
C400 C 0.6466 0.90638 0.87465 0.0
C401 C 0.62192 0.96401 0.84966 0.0
C402 C 0.65209 0.94627 0.87803 0.0
N403 N 0.63989 0.97446 0.86553 0.0
C404 C 0.61591 0.92442 0.84582 0.0
C405 C 0.62839 0.89547 0.85841 0.0
C406 C 0.59334 0.06911 0.86827 0.0
C407 C 0.6509 0.16817 0.92644 0.0
C408 C 0.60866 0.16663 0.89711 0.0
C409 C 0.60473 0.18142 0.91833 0.0
C410 C 0.62601 0.18203 0.93308 0.0
N411 N 0.63311 0.15291 0.89074 0.0
C412 C 0.65411 0.1537 0.90507 0.0
Co413 Co 0.34816 0.98234 0.87622 0.0
Co414 Co 0.37933 0.90461 0.85041 0.0
O415 O 0.35486 0.92648 0.87203 0.0
C416 C 0.36475 0.9545 0.92014 0.0
O417 O 0.38538 0.93813 0.91047 0.0
C418 C 0.32788 0.86595 0.84077 0.0
O419 O 0.31768 0.90129 0.8383 0.0
O420 O 0.36372 0.93773 0.82645 0.0
O421 O 0.34875 0.99188 0.84383 0.0
H422 H 0.44465 0.90941 0.78775 0.0
H423 H 0.31268 0.9232 0.89707 0.0
O424 O 0.34771 0.97367 0.90882 0.0
H425 H 0.25441 0.00161 0.84853 0.0
H426 H 0.30391 0.09833 0.91269 0.0
H427 H 0.36929 0.05621 0.85678 0.0
H428 H 0.30232 0.01722 0.85174 0.0
H429 H 0.3126 0.02772 0.90624 0.0
O430 O 0.35271 0.86177 0.84461 0.0
H431 H 0.41434 0.93748 0.81563 0.0
H432 H 0.39527 0.82269 0.83859 0.0
H433 H 0.36108 0.12711 0.86256 0.0
H434 H 0.26487 0.90667 0.89442 0.0
H435 H 0.32817 0.14857 0.89069 0.0
H436 H 0.23541 0.94594 0.86994 0.0
O437 O 0.38701 0.99376 0.87741 0.0
H438 H 0.37637 0.81635 0.91684 0.0
H439 H 0.43491 0.88637 0.86466 0.0
H440 H 0.45491 0.84852 0.8951 0.0
H441 H 0.42556 0.81316 0.92148 0.0
H442 H 0.35723 0.85492 0.8863 0.0
H443 H 0.42526 0.79334 0.81086 0.0
H444 H 0.45027 0.83684 0.78525 0.0
O445 O 0.40625 0.94686 0.85651 0.0
C446 C 0.35417 0.97264 0.82635 0.0
C447 C 0.43394 0.89016 0.79887 0.0
C448 C 0.42302 0.825 0.81182 0.0
N449 N 0.40323 0.88175 0.82882 0.0
C450 C 0.41681 0.90588 0.81473 0.0
C451 C 0.40603 0.84178 0.82745 0.0
C452 C 0.43706 0.84943 0.79746 0.0
C453 C 0.29993 0.94068 0.88657 0.0
N454 N 0.31024 0.97129 0.87469 0.0
C455 C 0.27289 0.93108 0.88506 0.0
C456 C 0.25639 0.95309 0.8713 0.0
C457 C 0.26704 0.98432 0.85927 0.0
C458 C 0.29418 0.993 0.86114 0.0
C459 C 0.31825 0.08935 0.90035 0.0
C460 C 0.35482 0.06532 0.86894 0.0
C461 C 0.32329 0.04942 0.89665 0.0
N462 N 0.34126 0.03788 0.88101 0.0
C463 C 0.35031 0.1055 0.87219 0.0
C464 C 0.33187 0.11752 0.888 0.0
C465 C 0.4072 0.97865 0.86777 0.0
C466 C 0.38938 0.83157 0.90544 0.0
C467 C 0.42202 0.8712 0.8761 0.0
C468 C 0.43345 0.8497 0.89327 0.0
C469 C 0.41697 0.82984 0.90805 0.0
N470 N 0.39494 0.87286 0.87367 0.0
C471 C 0.37865 0.85332 0.88805 0.0
Co472 Co 0.85813 0.52826 0.38146 0.0
Co473 Co 0.86951 0.61575 0.35358 0.0
O474 O 0.85396 0.585 0.37757 0.0
C475 C 0.87925 0.56344 0.42236 0.0
O476 O 0.89256 0.58668 0.40904 0.0
C477 C 0.81175 0.63092 0.35219 0.0
O478 O 0.8084 0.59295 0.35513 0.0
O479 O 0.85722 0.57691 0.33121 0.0
O480 O 0.85232 0.51913 0.34893 0.0
H481 H 0.92234 0.63574 0.2842 0.0
H482 H 0.81961 0.57146 0.4096 0.0
O483 O 0.8641 0.53691 0.41422 0.0
H484 H 0.76608 0.4731 0.36939 0.0
H485 H 0.84554 0.39978 0.42148 0.0
H486 H 0.88564 0.46475 0.35684 0.0
H487 H 0.81473 0.4773 0.36374 0.0
H488 H 0.83982 0.4712 0.41554 0.0
O489 O 0.8351 0.64531 0.35044 0.0
H490 H 0.90365 0.59746 0.31509 0.0
H491 H 0.86709 0.70053 0.34081 0.0
H492 H 0.89177 0.39325 0.36208 0.0
H493 H 0.77108 0.56791 0.41599 0.0
H494 H 0.87162 0.36031 0.39459 0.0
H495 H 0.74396 0.51857 0.39573 0.0
O496 O 0.89729 0.53167 0.37623 0.0
H497 H 0.85933 0.70203 0.42028 0.0
H498 H 0.92082 0.65761 0.36202 0.0
H499 H 0.9369 0.70393 0.39034 0.0
H500 H 0.90603 0.72644 0.41976 0.0
H501 H 0.84419 0.65543 0.39176 0.0
H502 H 0.88529 0.73992 0.31015 0.0
H503 H 0.91319 0.70752 0.28161 0.0
O504 O 0.90417 0.58693 0.35652 0.0
C505 C 0.8522 0.54006 0.33135 0.0
C506 C 0.91031 0.65023 0.29659 0.0
C507 C 0.88947 0.70869 0.31113 0.0
N508 N 0.88451 0.64681 0.32982 0.0
C509 C 0.89975 0.62874 0.31415 0.0
C510 C 0.8792 0.68623 0.32843 0.0
C511 C 0.90513 0.69049 0.29513 0.0
C512 C 0.80799 0.5496 0.40092 0.0
N513 N 0.82 0.52448 0.38641 0.0
C514 C 0.7805 0.54784 0.40453 0.0
C515 C 0.76529 0.5202 0.39313 0.0
C516 C 0.77768 0.49471 0.37833 0.0
C517 C 0.80522 0.49731 0.37514 0.0
C518 C 0.85437 0.41378 0.40723 0.0
C519 C 0.87667 0.45056 0.37095 0.0
C520 C 0.85123 0.4542 0.4038 0.0
N521 N 0.86222 0.47202 0.38578 0.0
C522 C 0.88027 0.4101 0.37386 0.0
C523 C 0.86899 0.39165 0.39213 0.0
C524 C 0.91244 0.55542 0.36578 0.0
C525 C 0.87296 0.69246 0.40754 0.0
C526 C 0.90734 0.66711 0.37482 0.0
C527 C 0.91652 0.69346 0.39077 0.0
C528 C 0.89918 0.70611 0.40726 0.0
N529 N 0.88163 0.65377 0.37524 0.0
C530 C 0.86448 0.66619 0.3913 0.0
Co531 Co 0.15452 0.45103 0.37465 0.0
Co532 Co 0.11891 0.36602 0.3639 0.0
O533 O 0.14584 0.39582 0.37984 0.0
C534 C 0.1385 0.44643 0.42105 0.0
O535 O 0.11772 0.42643 0.41414 0.0
C536 C 0.16885 0.32104 0.35785 0.0
O537 O 0.1806 0.35476 0.35362 0.0
O538 O 0.13272 0.38542 0.33515 0.0
O539 O 0.1533 0.4431 0.3421 0.0
H540 H 0.047 0.34613 0.30739 0.0
H541 H 0.1886 0.40295 0.40422 0.0
O542 O 0.15549 0.45959 0.40727 0.0
H543 H 0.24793 0.44694 0.34431 0.0
H544 H 0.20385 0.57713 0.39021 0.0
H545 H 0.13569 0.51302 0.34393 0.0
H546 H 0.20072 0.46741 0.34513 0.0
H547 H 0.1923 0.50717 0.39582 0.0
O548 O 0.14398 0.32005 0.36223 0.0
H549 H 0.08096 0.38392 0.32785 0.0
H550 H 0.10023 0.28271 0.36575 0.0
H551 H 0.14683 0.58287 0.33757 0.0
H552 H 0.2357 0.38196 0.40409 0.0
H553 H 0.18113 0.6154 0.36083 0.0
H554 H 0.26568 0.40384 0.37392 0.0
O555 O 0.1162 0.46616 0.3742 0.0
H556 H 0.12785 0.31175 0.44049 0.0
H557 H 0.06486 0.35955 0.38418 0.0
H558 H 0.04783 0.33928 0.42055 0.0
H559 H 0.07946 0.31531 0.44904 0.0
H560 H 0.14402 0.33257 0.40394 0.0
H561 H 0.06667 0.24369 0.34555 0.0
H562 H 0.0397 0.27548 0.31621 0.0
O563 O 0.0934 0.41136 0.36525 0.0
C564 C 0.14488 0.41656 0.32895 0.0
C565 C 0.05857 0.33198 0.32019 0.0
C566 C 0.06964 0.27447 0.34158 0.0
N567 N 0.09238 0.33561 0.34808 0.0
C568 C 0.07776 0.35325 0.33187 0.0
C569 C 0.08865 0.29668 0.35292 0.0
C570 C 0.0545 0.29233 0.32513 0.0
C571 C 0.2016 0.41299 0.39118 0.0
N572 N 0.19196 0.43656 0.37477 0.0
C573 C 0.22822 0.40085 0.39114 0.0
C574 C 0.24502 0.41309 0.37418 0.0
C575 C 0.23507 0.43725 0.35755 0.0
C576 C 0.20831 0.44871 0.35809 0.0
C577 C 0.18892 0.56327 0.37994 0.0
C578 C 0.15079 0.52688 0.35399 0.0
C579 C 0.18226 0.5237 0.38307 0.0
N580 N 0.16353 0.50597 0.37007 0.0
C581 C 0.15694 0.56649 0.35037 0.0
C582 C 0.17617 0.58472 0.36344 0.0
C583 C 0.0946 0.44814 0.36954 0.0
C584 C 0.11387 0.32206 0.4282 0.0
C585 C 0.07872 0.34913 0.39648 0.0
C586 C 0.06897 0.33761 0.41703 0.0
C587 C 0.08672 0.32412 0.433 0.0
N588 N 0.10539 0.34722 0.39193 0.0
C589 C 0.12289 0.33372 0.40744 0.0
Co590 Co 0.84533 0.47465 0.12919 0.0
Co591 Co 0.86716 0.38351 0.14726 0.0
O592 O 0.84667 0.41742 0.12786 0.0
C593 C 0.86727 0.4543 0.08569 0.0
O594 O 0.88323 0.43189 0.09731 0.0
C595 C 0.81119 0.36011 0.15296 0.0
O596 O 0.80668 0.39801 0.1549 0.0
O597 O 0.85507 0.41335 0.17358 0.0
O598 O 0.84111 0.47336 0.16248 0.0
H599 H 0.92997 0.35281 0.20938 0.0
H600 H 0.80943 0.43139 0.09875 0.0
O601 O 0.85018 0.47579 0.09576 0.0
H602 H 0.74998 0.50446 0.14891 0.0
H603 H 0.81832 0.60807 0.10089 0.0
H604 H 0.86691 0.5363 0.15895 0.0
H605 H 0.79888 0.51022 0.15233 0.0
H606 H 0.82036 0.53542 0.10057 0.0
O607 O 0.83501 0.34786 0.14996 0.0
H608 H 0.90455 0.39618 0.18443 0.0
H609 H 0.87198 0.2965 0.15184 0.0
H610 H 0.86521 0.60888 0.16003 0.0
H611 H 0.76067 0.42497 0.09465 0.0
H612 H 0.84078 0.64526 0.13083 0.0
H613 H 0.73059 0.46156 0.11991 0.0
O614 O 0.88454 0.4784 0.13335 0.0
H615 H 0.85516 0.31521 0.07455 0.0
H616 H 0.9201 0.35594 0.13111 0.0
H617 H 0.93595 0.32186 0.09772 0.0
H618 H 0.90336 0.30128 0.06914 0.0
H619 H 0.84021 0.34964 0.10812 0.0
H620 H 0.89687 0.25201 0.17655 0.0
H621 H 0.9262 0.28017 0.20551 0.0
O622 O 0.89921 0.4191 0.14495 0.0
C623 C 0.84593 0.44775 0.17754 0.0
C624 C 0.91733 0.34019 0.19677 0.0
C625 C 0.89872 0.28361 0.17837 0.0
N626 N 0.88703 0.34885 0.16658 0.0
C627 C 0.90297 0.3646 0.18255 0.0
C628 C 0.88465 0.30893 0.16445 0.0
C629 C 0.91519 0.29943 0.19461 0.0
C630 C 0.79647 0.44777 0.10963 0.0
N631 N 0.80696 0.47138 0.12565 0.0
C632 C 0.76888 0.44386 0.1073 0.0
C633 C 0.75201 0.46436 0.1215 0.0
C634 C 0.76288 0.48842 0.13779 0.0
C635 C 0.79057 0.49155 0.13965 0.0
C636 C 0.82902 0.59255 0.11371 0.0
C637 C 0.85616 0.55191 0.14625 0.0
C638 C 0.83031 0.55145 0.11357 0.0
N639 N 0.84368 0.53168 0.12976 0.0
C640 C 0.8553 0.59301 0.14692 0.0
C641 C 0.84161 0.6134 0.13052 0.0
C642 C 0.90299 0.45526 0.13986 0.0
C643 C 0.86954 0.3239 0.08692 0.0
C644 C 0.90581 0.34703 0.11876 0.0
C645 C 0.91489 0.32771 0.0999 0.0
C646 C 0.89659 0.31615 0.08388 0.0
N647 N 0.87925 0.35457 0.12161 0.0
C648 C 0.86118 0.34324 0.10601 0.0
Co649 Co 0.14518 0.49708 0.12694 0.0
Co650 Co 0.13836 0.587 0.153 0.0
O651 O 0.15307 0.55332 0.12978 0.0
C652 C 0.13244 0.52822 0.08246 0.0
O653 O 0.11894 0.5569 0.09175 0.0
C654 C 0.19669 0.59941 0.15571 0.0
O655 O 0.19956 0.56118 0.15352 0.0
O656 O 0.14909 0.54868 0.1763 0.0
O657 O 0.14635 0.49005 0.1594 0.0
H658 H 0.08531 0.61538 0.22134 0.0
H659 H 0.18988 0.53149 0.10142 0.0
O660 O 0.144 0.50235 0.09423 0.0
H661 H 0.23081 0.42951 0.14832 0.0
H662 H 0.15349 0.36287 0.09226 0.0
H663 H 0.10958 0.44117 0.15025 0.0
H664 H 0.18229 0.44126 0.14946 0.0
H665 H 0.16382 0.43347 0.0967 0.0
O666 O 0.17351 0.61464 0.15607 0.0
H667 H 0.10326 0.57373 0.19154 0.0
H668 H 0.14319 0.67245 0.16394 0.0
H669 H 0.09875 0.37063 0.14646 0.0
H670 H 0.23845 0.52044 0.0996 0.0
H671 H 0.12079 0.33097 0.11729 0.0
H672 H 0.25924 0.46922 0.12323 0.0
O673 O 0.10609 0.50724 0.12862 0.0
H674 H 0.15264 0.66783 0.08473 0.0
H675 H 0.08868 0.63219 0.14306 0.0
H676 H 0.07478 0.67783 0.11364 0.0
H677 H 0.1069 0.69595 0.08419 0.0
H678 H 0.16557 0.62199 0.11436 0.0
H679 H 0.12579 0.71512 0.19351 0.0
H680 H 0.09656 0.68663 0.22244 0.0
O681 O 0.10277 0.56066 0.15035 0.0
C682 C 0.14931 0.51109 0.17658 0.0
C683 C 0.09793 0.62817 0.20878 0.0
C684 C 0.12069 0.68414 0.19318 0.0
N685 N 0.12406 0.6207 0.17593 0.0
C686 C 0.10809 0.60476 0.19183 0.0
C687 C 0.13052 0.65982 0.1765 0.0
C688 C 0.10428 0.66814 0.2094 0.0
C689 C 0.19873 0.50886 0.11158 0.0
N690 N 0.18324 0.48697 0.12547 0.0
C691 C 0.22627 0.50286 0.11055 0.0
C692 C 0.23792 0.47417 0.12384 0.0
C693 C 0.22199 0.45191 0.13794 0.0
C694 C 0.19452 0.45878 0.13856 0.0
C695 C 0.14378 0.37982 0.10505 0.0
C696 C 0.11935 0.42407 0.13758 0.0
C697 C 0.14951 0.41983 0.10761 0.0
N698 N 0.13742 0.44137 0.1238 0.0
C699 C 0.11309 0.38415 0.13549 0.0
C700 C 0.12544 0.36193 0.11911 0.0
C701 C 0.09246 0.53181 0.13986 0.0
C702 C 0.13846 0.66018 0.09747 0.0
C703 C 0.10268 0.63971 0.13024 0.0
C704 C 0.09475 0.66571 0.11367 0.0
C705 C 0.11279 0.6759 0.09716 0.0
N706 N 0.12786 0.62433 0.1304 0.0
C707 C 0.1457 0.63432 0.11433 0.0
Co708 Co 0.15028 0.4858 0.62758 0.0
Co709 Co 0.13919 0.39647 0.65308 0.0
O710 O 0.15602 0.42924 0.63057 0.0
C711 C 0.13843 0.45624 0.58266 0.0
O712 O 0.12193 0.43043 0.59127 0.0
C713 C 0.19699 0.3812 0.65796 0.0
O714 O 0.20025 0.41957 0.65828 0.0
O715 O 0.14965 0.43404 0.67701 0.0
O716 O 0.1498 0.4927 0.65998 0.0
H717 H 0.08193 0.3702 0.71934 0.0
H718 H 0.19519 0.44754 0.60408 0.0
O719 O 0.15094 0.48035 0.59491 0.0
H720 H 0.2368 0.54702 0.65225 0.0
H721 H 0.1648 0.61896 0.59303 0.0
H722 H 0.11581 0.54458 0.64985 0.0
H723 H 0.18791 0.53919 0.65129 0.0
H724 H 0.1724 0.54767 0.59782 0.0
O725 O 0.17358 0.36676 0.65677 0.0
H726 H 0.10246 0.41121 0.69041 0.0
H727 H 0.14139 0.31076 0.66382 0.0
H728 H 0.10766 0.61582 0.64567 0.0
H729 H 0.24416 0.45458 0.6044 0.0
H730 H 0.13227 0.65352 0.61709 0.0
H731 H 0.26527 0.50452 0.62867 0.0
O732 O 0.11085 0.47849 0.62792 0.0
H733 H 0.15428 0.31564 0.58488 0.0
H734 H 0.08888 0.35431 0.6415 0.0
H735 H 0.07504 0.30978 0.61153 0.0
H736 H 0.1079 0.29011 0.58295 0.0
H737 H 0.16714 0.36045 0.61501 0.0
H738 H 0.12138 0.26868 0.69253 0.0
H739 H 0.09135 0.29838 0.72051 0.0
O740 O 0.10443 0.42513 0.64934 0.0
C741 C 0.15089 0.47164 0.67728 0.0
C742 C 0.0949 0.35689 0.70719 0.0
C743 C 0.11708 0.29992 0.69216 0.0
N744 N 0.12293 0.36334 0.67536 0.0
C745 C 0.10652 0.37994 0.69074 0.0
C746 C 0.12839 0.32391 0.67598 0.0
C747 C 0.10022 0.3166 0.70785 0.0
C748 C 0.20421 0.46962 0.61452 0.0
N749 N 0.18869 0.49302 0.6276 0.0
C750 C 0.23196 0.47335 0.6147 0.0
C751 C 0.2438 0.50133 0.62835 0.0
C752 C 0.22783 0.52516 0.6416 0.0
C753 C 0.20015 0.52053 0.64103 0.0
C754 C 0.15398 0.60286 0.60555 0.0
C755 C 0.12667 0.56079 0.63743 0.0
C756 C 0.15816 0.56248 0.60831 0.0
N757 N 0.14465 0.54201 0.62417 0.0
C758 C 0.12194 0.60112 0.63512 0.0
C759 C 0.13573 0.62224 0.61907 0.0
C760 C 0.09577 0.45491 0.63859 0.0
C761 C 0.13978 0.32399 0.59724 0.0
C762 C 0.10319 0.34615 0.62904 0.0
C763 C 0.0953 0.32077 0.61216 0.0
C764 C 0.11375 0.30971 0.59615 0.0
N765 N 0.12874 0.3601 0.62998 0.0
C766 C 0.14696 0.34928 0.61438 0.0
Co767 Co 0.85398 0.55546 0.62831 0.0
Co768 Co 0.88517 0.63765 0.65017 0.0
O769 O 0.86196 0.61176 0.62896 0.0
C770 C 0.87893 0.57355 0.58558 0.0
O771 O 0.8971 0.59081 0.59774 0.0
C772 C 0.83347 0.67954 0.65406 0.0
O773 O 0.82204 0.64475 0.65452 0.0
O774 O 0.86709 0.61031 0.67501 0.0
O775 O 0.84902 0.55442 0.66145 0.0
H776 H 0.94602 0.6437 0.71576 0.0
H777 H 0.82448 0.6103 0.59908 0.0
O778 O 0.85939 0.55614 0.59503 0.0
H779 H 0.75609 0.54909 0.64637 0.0
H780 H 0.81213 0.43401 0.59576 0.0
H781 H 0.86792 0.48631 0.65589 0.0
H782 H 0.80342 0.53012 0.64986 0.0
H783 H 0.82255 0.50498 0.5978 0.0
O784 O 0.8588 0.68219 0.65256 0.0
H785 H 0.91704 0.61107 0.68844 0.0
H786 H 0.90167 0.721 0.65758 0.0
H787 H 0.85783 0.41522 0.65461 0.0
H788 H 0.77738 0.62998 0.59495 0.0
H789 H 0.82975 0.38864 0.62436 0.0
H790 H 0.74283 0.59943 0.61878 0.0
O791 O 0.89213 0.54121 0.63248 0.0
H792 H 0.88795 0.71291 0.57899 0.0
H793 H 0.9419 0.65142 0.63749 0.0
H794 H 0.96445 0.6827 0.60592 0.0
H795 H 0.9374 0.71377 0.57638 0.0
H796 H 0.86625 0.68087 0.61074 0.0
H797 H 0.93028 0.75489 0.68466 0.0
H798 H 0.95278 0.71613 0.71396 0.0
O799 O 0.91202 0.59383 0.64799 0.0
C800 C 0.85464 0.57776 0.6774 0.0
C801 C 0.9364 0.66089 0.70303 0.0
C802 C 0.92753 0.72331 0.68559 0.0
N803 N 0.90789 0.66407 0.67134 0.0
C804 C 0.92004 0.64256 0.68748 0.0
C805 C 0.91131 0.70398 0.67034 0.0
C806 C 0.94016 0.70154 0.70202 0.0
C807 C 0.80952 0.59652 0.60932 0.0
N808 N 0.81666 0.56893 0.6246 0.0
C809 C 0.7829 0.60792 0.60698 0.0
C810 C 0.76353 0.59081 0.62038 0.0
C811 C 0.77096 0.56259 0.63588 0.0
C812 C 0.79778 0.55199 0.63779 0.0
C813 C 0.82436 0.44524 0.60903 0.0
C814 C 0.85556 0.47499 0.64276 0.0
C815 C 0.83037 0.48536 0.61024 0.0
N816 N 0.84569 0.49975 0.62702 0.0
C817 C 0.84997 0.4347 0.64208 0.0
C818 C 0.83424 0.4198 0.62509 0.0
C819 C 0.91238 0.55845 0.64079 0.0
C820 C 0.89995 0.69956 0.59178 0.0
C821 C 0.93002 0.66472 0.62466 0.0
C822 C 0.94288 0.68252 0.60686 0.0
C823 C 0.9277 0.69998 0.59031 0.0
N824 N 0.9028 0.66431 0.62595 0.0
C825 C 0.88778 0.68151 0.60983 0.0
Co826 Co 0.14265 0.53598 0.87399 0.0
Co827 Co 0.13467 0.63576 0.86436 0.0
O828 O 0.15153 0.59119 0.87906 0.0
C829 C 0.13102 0.54899 0.92096 0.0
O830 O 0.11816 0.58084 0.91485 0.0
C831 C 0.18012 0.6769 0.84382 0.0
O832 O 0.16558 0.67863 0.82588 0.0
O833 O 0.13922 0.60967 0.83508 0.0
O834 O 0.14319 0.5446 0.84161 0.0
H835 H 0.07251 0.70087 0.81065 0.0
H836 H 0.1885 0.55666 0.90263 0.0
O837 O 0.14197 0.52692 0.90658 0.0
H838 H 0.22648 0.47727 0.84228 0.0
H839 H 0.14907 0.39036 0.88882 0.0
H840 H 0.10667 0.49328 0.84346 0.0
H841 H 0.17823 0.49124 0.84363 0.0
H842 H 0.16011 0.46048 0.89452 0.0
O843 O 0.17102 0.6603 0.86112 0.0
H844 H 0.09395 0.64472 0.82942 0.0
H845 H 0.14001 0.72329 0.86836 0.0
H846 H 0.09521 0.42355 0.8371 0.0
H847 H 0.23685 0.54313 0.90201 0.0
H848 H 0.11648 0.37153 0.85988 0.0
H849 H 0.25613 0.5032 0.87166 0.0
O850 O 0.10367 0.54702 0.87447 0.0
H851 H 0.16534 0.67697 0.93966 0.0
H852 H 0.08948 0.67468 0.88804 0.0
H853 H 0.08331 0.7024 0.9252 0.0
H854 H 0.12141 0.70358 0.95133 0.0
H855 H 0.17056 0.64917 0.9024 0.0
H856 H 0.11907 0.78029 0.85002 0.0
H857 H 0.08506 0.76923 0.82093 0.0
O858 O 0.09855 0.61154 0.86736 0.0
C859 C 0.14201 0.57404 0.8286 0.0
C860 C 0.08728 0.70607 0.82332 0.0
C861 C 0.1134 0.75065 0.84542 0.0
N862 N 0.11814 0.68072 0.85 0.0
C863 C 0.09947 0.6744 0.83401 0.0
C864 C 0.12514 0.71827 0.85577 0.0
C865 C 0.09433 0.74442 0.8291 0.0
C866 C 0.19673 0.53905 0.88945 0.0
N867 N 0.18055 0.52457 0.87326 0.0
C868 C 0.22413 0.53158 0.88915 0.0
C869 C 0.23494 0.50921 0.8721 0.0
C870 C 0.21831 0.49467 0.8556 0.0
C871 C 0.19101 0.50276 0.85643 0.0
C872 C 0.13971 0.41276 0.87877 0.0
C873 C 0.11613 0.47079 0.85336 0.0
C874 C 0.14583 0.4525 0.88196 0.0
N875 N 0.13417 0.48089 0.86924 0.0
C876 C 0.1095 0.43137 0.84972 0.0
C877 C 0.12142 0.4022 0.86252 0.0
C878 C 0.08917 0.57731 0.8712 0.0
C879 C 0.1486 0.67671 0.92841 0.0
C880 C 0.10614 0.67503 0.8993 0.0
C881 C 0.10255 0.69087 0.92032 0.0
C882 C 0.12394 0.69157 0.93496 0.0
N883 N 0.13037 0.66037 0.89301 0.0
C884 C 0.15147 0.66118 0.90724 0.0
Co885 Co 0.84355 0.49374 0.88041 0.0
Co886 Co 0.87401 0.41571 0.8538 0.0
O887 O 0.85061 0.4378 0.87621 0.0
C888 C 0.86629 0.46671 0.92242 0.0
O889 O 0.88469 0.45122 0.90975 0.0
C890 C 0.82255 0.37516 0.84553 0.0
O891 O 0.81146 0.40988 0.8429 0.0
O892 O 0.85686 0.44817 0.83034 0.0
O893 O 0.8403 0.50168 0.84754 0.0
H894 H 0.93516 0.42033 0.78833 0.0
H895 H 0.81174 0.43443 0.90482 0.0
O896 O 0.84729 0.48621 0.91356 0.0
H897 H 0.74673 0.50866 0.86021 0.0
H898 H 0.80212 0.60956 0.91917 0.0
H899 H 0.86033 0.56743 0.85809 0.0
H900 H 0.79457 0.52571 0.85917 0.0
H901 H 0.81133 0.53903 0.91287 0.0
O902 O 0.84748 0.37225 0.84922 0.0
H903 H 0.90655 0.44844 0.8174 0.0
H904 H 0.88994 0.3338 0.84184 0.0
H905 H 0.85148 0.63823 0.86366 0.0
H906 H 0.76408 0.41651 0.90645 0.0
H907 H 0.82219 0.65968 0.89439 0.0
H908 H 0.73122 0.4537 0.88399 0.0
O909 O 0.88215 0.50701 0.87836 0.0
H910 H 0.87535 0.32849 0.92068 0.0
H911 H 0.93044 0.39811 0.86585 0.0
H912 H 0.95238 0.36088 0.89562 0.0
H913 H 0.92476 0.32568 0.9233 0.0
H914 H 0.85426 0.36653 0.8908 0.0
H915 H 0.9183 0.30441 0.81298 0.0
H916 H 0.9412 0.34781 0.78601 0.0
O917 O 0.901 0.45833 0.85857 0.0
C918 C 0.84578 0.48208 0.83005 0.0
C919 C 0.92538 0.40112 0.80004 0.0
C920 C 0.91588 0.33606 0.81386 0.0
N921 N 0.89679 0.3928 0.8314 0.0
C922 C 0.90922 0.41687 0.81657 0.0
C923 C 0.89981 0.35285 0.83013 0.0
C924 C 0.92873 0.36042 0.79873 0.0
C925 C 0.79752 0.45097 0.89516 0.0
N926 N 0.80587 0.48125 0.88204 0.0
C927 C 0.77058 0.4406 0.89609 0.0
C928 C 0.75216 0.46145 0.88345 0.0
C929 C 0.76085 0.49228 0.8701 0.0
C930 C 0.78795 0.50177 0.86956 0.0
C931 C 0.81488 0.60058 0.9057 0.0
C932 C 0.84743 0.57654 0.87141 0.0
C933 C 0.82021 0.56071 0.90209 0.0
N934 N 0.83619 0.54917 0.88504 0.0
C935 C 0.84255 0.61666 0.87452 0.0
C936 C 0.82614 0.62868 0.89178 0.0
C937 C 0.90206 0.49136 0.86861 0.0
C938 C 0.8876 0.34363 0.90869 0.0
C939 C 0.91831 0.38307 0.87789 0.0
C940 C 0.93083 0.3619 0.89466 0.0
C941 C 0.91533 0.34212 0.91017 0.0
N942 N 0.89111 0.38454 0.87657 0.0
C943 C 0.87578 0.36509 0.89167 0.0
H944 H 0.37923 0.04324 0.45117 0.0
H945 H 0.31643 0.95581 0.44489 0.0
H946 H 0.31094 0.95551 0.48537 0.0
H947 H 0.40854 0.00482 0.5009 0.0
H948 H 0.41576 0.05293 0.51196 0.0
H949 H 0.41489 0.04558 0.48261 0.0
H950 H 0.37981 0.10116 0.47897 0.0
H951 H 0.38036 0.1086 0.50831 0.0
H952 H 0.34927 0.09829 0.49455 0.0
H953 H 0.3118 0.96602 0.52659 0.0
H954 H 0.31967 0.98503 0.56529 0.0
H955 H 0.38207 0.0654 0.54422 0.0
C956 C 0.36443 0.02374 0.45825 0.0
C957 C 0.34832 0.99938 0.44484 0.0
C958 C 0.32907 0.9746 0.45483 0.0
C959 C 0.32578 0.97429 0.4778 0.0
C960 C 0.34189 0.99891 0.4905 0.0
C961 C 0.36089 0.02307 0.48107 0.0
C962 C 0.37553 0.047 0.49829 0.0
C963 C 0.40545 0.03696 0.49845 0.0
C964 C 0.37095 0.09139 0.49482 0.0
C965 C 0.36183 0.0325 0.51896 0.0
C966 C 0.34244 0.00486 0.51413 0.0
C967 C 0.32699 0.98755 0.53056 0.0
C968 C 0.33158 0.9986 0.55249 0.0
C969 C 0.35154 0.02663 0.55782 0.0
C970 C 0.36675 0.04377 0.54074 0.0
H971 H 0.60947 0.91634 0.54509 0.0
H972 H 0.661 0.0174 0.55623 0.0
H973 H 0.6623 0.03015 0.51647 0.0
H974 H 0.64154 0.88428 0.49449 0.0
H975 H 0.61078 0.86948 0.48154 0.0
H976 H 0.61393 0.86761 0.51107 0.0
H977 H 0.57207 0.91184 0.515 0.0
H978 H 0.56888 0.91399 0.48549 0.0
H979 H 0.57114 0.95888 0.50124 0.0
H980 H 0.65772 0.03333 0.47599 0.0
H981 H 0.64889 0.02489 0.43641 0.0
H982 H 0.60062 0.92162 0.45069 0.0
C983 C 0.62111 0.94102 0.53915 0.0
C984 C 0.63505 0.9659 0.55386 0.0
C985 C 0.65008 0.9979 0.54538 0.0
C986 C 0.65095 0.00548 0.52278 0.0
C987 C 0.6368 0.98077 0.50878 0.0
C988 C 0.62229 0.94902 0.51651 0.0
C989 C 0.60901 0.92712 0.4977 0.0
C990 C 0.61944 0.8846 0.49611 0.0
C991 C 0.57846 0.92803 0.5 0.0
C992 C 0.61826 0.95172 0.4783 0.0
C993 C 0.63423 0.98252 0.48514 0.0
C994 C 0.64527 0.0093 0.47037 0.0
C995 C 0.64009 0.00427 0.44792 0.0
C996 C 0.62401 0.97266 0.44042 0.0
C997 C 0.61286 0.94621 0.4559 0.0
H998 H 0.40507 0.90194 0.04444 0.0
H999 H 0.33155 0.96016 0.06394 0.0
H1000 H 0.32024 0.97103 0.02512 0.0
H1001 H 0.42008 0.96627 0.99987 0.0
H1002 H 0.43306 0.92841 0.98203 0.0
H1003 H 0.43501 0.92262 0.01145 0.0
H1004 H 0.41002 0.85599 0.00862 0.0
H1005 H 0.40803 0.86156 0.97916 0.0
H1006 H 0.37807 0.85405 0.99503 0.0
H1007 H 0.31735 0.97861 0.98479 0.0
H1008 H 0.32312 0.98223 0.94461 0.0
H1009 H 0.39839 0.9195 0.95026 0.0
C1010 C 0.38647 0.91654 0.0405 0.0
C1011 C 0.36925 0.9302 0.05729 0.0
C1012 C 0.34518 0.94955 0.05144 0.0
C1013 C 0.33848 0.9558 0.02939 0.0
C1014 C 0.35598 0.94254 0.01328 0.0
C1015 C 0.37945 0.92324 0.01843 0.0
C1016 C 0.39505 0.9134 0.99774 0.0
C1017 C 0.42242 0.93391 0.99778 0.0
C1018 C 0.39796 0.86858 0.99498 0.0
C1019 C 0.37679 0.93065 0.98029 0.0
C1020 C 0.35432 0.94709 0.9897 0.0
C1021 C 0.33478 0.96565 0.97716 0.0
C1022 C 0.33828 0.96762 0.95434 0.0
C1023 C 0.36121 0.95118 0.94425 0.0
C1024 C 0.38062 0.93225 0.95746 0.0
H1025 H 0.61326 0.08125 0.95222 0.0
H1026 H 0.66584 0.98352 0.93636 0.0
H1027 H 0.67263 0.97114 0.97599 0.0
H1028 H 0.6499 0.11663 0.99847 0.0
H1029 H 0.62073 0.12952 0.01426 0.0
H1030 H 0.61946 0.13021 0.98463 0.0
H1031 H 0.57921 0.08231 0.98535 0.0
H1032 H 0.58032 0.08152 0.01498 0.0
H1033 H 0.5821 0.03604 0.99973 0.0
H1034 H 0.67502 0.97079 0.01705 0.0
H1035 H 0.67172 0.98085 0.05711 0.0
H1036 H 0.61679 0.07798 0.04648 0.0
C1037 C 0.62607 0.05706 0.95705 0.0
C1038 C 0.63899 0.03329 0.94117 0.0
C1039 C 0.65568 0.00206 0.94821 0.0
C1040 C 0.65969 0.99481 0.97068 0.0
C1041 C 0.64678 0.01894 0.98588 0.0
C1042 C 0.63021 0.0493 0.9794 0.0
C1043 C 0.61889 0.07103 0.99909 0.0
C1044 C 0.62778 0.11441 0.99911 0.0
C1045 C 0.58831 0.06749 0.99983 0.0
C1046 C 0.63179 0.04821 0.01767 0.0
C1047 C 0.64787 0.01839 0.00965 0.0
C1048 C 0.66239 0.99388 0.02355 0.0
C1049 C 0.66043 0.99994 0.04629 0.0
C1050 C 0.64392 0.03012 0.05493 0.0
C1051 C 0.62938 0.05446 0.04038 0.0
H1052 H 0.85102 0.53283 0.55265 0.0
H1053 H 0.9124 0.6214 0.56296 0.0
H1054 H 0.91827 0.62773 0.52311 0.0
H1055 H 0.88315 0.48582 0.50603 0.0
H1056 H 0.85267 0.47671 0.49113 0.0
H1057 H 0.85226 0.47907 0.52077 0.0
H1058 H 0.81617 0.53351 0.51921 0.0
H1059 H 0.81643 0.53127 0.48957 0.0
H1060 H 0.82231 0.57748 0.50336 0.0
H1061 H 0.91831 0.62548 0.48273 0.0
H1062 H 0.9128 0.6141 0.44315 0.0
H1063 H 0.85205 0.52598 0.45671 0.0
C1064 C 0.8656 0.55361 0.54647 0.0
C1065 C 0.88127 0.57655 0.56114 0.0
C1066 C 0.9002 0.60328 0.55229 0.0
C1067 C 0.9037 0.60723 0.52956 0.0
C1068 C 0.88824 0.58418 0.5156 0.0
C1069 C 0.86957 0.55781 0.52355 0.0
C1070 C 0.85602 0.5364 0.50451 0.0
C1071 C 0.86135 0.49185 0.50568 0.0
C1072 C 0.82594 0.5452 0.50415 0.0
C1073 C 0.87009 0.55494 0.4848 0.0
C1074 C 0.8885 0.5825 0.49178 0.0
C1075 C 0.90399 0.60393 0.47702 0.0
C1076 C 0.90067 0.59717 0.45447 0.0
C1077 C 0.88206 0.56902 0.44662 0.0
C1078 C 0.86654 0.54757 0.46211 0.0
H1079 H 0.11083 0.4177 0.54972 0.0
H1080 H 0.17621 0.49926 0.56119 0.0
H1081 H 0.18346 0.50474 0.5213 0.0
H1082 H 0.14064 0.36764 0.5028 0.0
H1083 H 0.10949 0.36279 0.48823 0.0
H1084 H 0.10977 0.36397 0.51789 0.0
H1085 H 0.07664 0.42258 0.51741 0.0
H1086 H 0.07632 0.4216 0.48777 0.0
H1087 H 0.08492 0.46638 0.50207 0.0
H1088 H 0.18357 0.50256 0.48046 0.0
H1089 H 0.17618 0.49281 0.4407 0.0
H1090 H 0.11043 0.41352 0.45523 0.0
C1091 C 0.12677 0.43649 0.54383 0.0
C1092 C 0.14291 0.45807 0.55862 0.0
C1093 C 0.16348 0.48252 0.55023 0.0
C1094 C 0.16784 0.48582 0.52757 0.0
C1095 C 0.15146 0.46453 0.51345 0.0
C1096 C 0.13135 0.44031 0.52117 0.0
C1097 C 0.11632 0.42136 0.50228 0.0
C1098 C 0.11924 0.37626 0.50284 0.0
C1099 C 0.0868 0.43374 0.5024 0.0
C1100 C 0.13106 0.43898 0.48284 0.0
C1101 C 0.15133 0.46363 0.4897 0.0
C1102 C 0.16777 0.48331 0.47484 0.0
C1103 C 0.1634 0.47759 0.4523 0.0
C1104 C 0.14268 0.45255 0.44486 0.0
C1105 C 0.12633 0.43306 0.4604 0.0
H1106 H 0.83819 0.50311 0.9569 0.0
H1107 H 0.89857 0.41456 0.94302 0.0
H1108 H 0.90404 0.40261 0.98246 0.0
H1109 H 0.8703 0.54271 0.00544 0.0
H1110 H 0.83992 0.55034 0.02073 0.0
H1111 H 0.83946 0.552 0.99108 0.0
H1112 H 0.80292 0.49817 0.99039 0.0
H1113 H 0.80322 0.49641 0.02005 0.0
H1114 H 0.80869 0.45208 0.00435 0.0
H1115 H 0.9045 0.40002 0.02247 0.0
H1116 H 0.8998 0.40636 0.0623 0.0
H1117 H 0.83921 0.49667 0.05322 0.0
C1118 C 0.85241 0.48107 0.96223 0.0
C1119 C 0.86799 0.45988 0.94665 0.0
C1120 C 0.88646 0.43143 0.95439 0.0
C1121 C 0.88973 0.42428 0.97687 0.0
C1122 C 0.87445 0.44574 0.99172 0.0
C1123 C 0.8561 0.47353 0.98492 0.0
C1124 C 0.84274 0.49257 0.00487 0.0
C1125 C 0.84845 0.53705 0.00557 0.0
C1126 C 0.8126 0.48431 0.00492 0.0
C1127 C 0.85666 0.47117 0.02376 0.0
C1128 C 0.87478 0.44429 0.01552 0.0
C1129 C 0.89037 0.42093 0.02918 0.0
C1130 C 0.88752 0.42492 0.05193 0.0
C1131 C 0.86918 0.45216 0.06117 0.0
C1132 C 0.85343 0.47562 0.04677 0.0
H1133 H 0.11357 0.57988 0.05089 0.0
H1134 H 0.1561 0.46925 0.05908 0.0
H1135 H 0.15992 0.46279 0.01895 0.0
H1136 H 0.07633 0.55119 0.00264 0.0
H1137 H 0.07883 0.59873 0.98958 0.0
H1138 H 0.07923 0.59511 0.01916 0.0
H1139 H 0.12421 0.63268 0.02025 0.0
H1140 H 0.12394 0.6364 0.99066 0.0
H1141 H 0.15207 0.61444 0.00448 0.0
H1142 H 0.1594 0.46762 0.97823 0.0
H1143 H 0.15478 0.48407 0.93892 0.0
H1144 H 0.1128 0.59161 0.95645 0.0
C1145 C 0.12364 0.55429 0.04423 0.0
C1146 C 0.13448 0.52507 0.05821 0.0
C1147 C 0.14761 0.49209 0.0488 0.0
C1148 C 0.14989 0.48807 0.02597 0.0
C1149 C 0.13902 0.51727 0.01268 0.0
C1150 C 0.12619 0.5498 0.02137 0.0
C1151 C 0.11646 0.57692 0.00322 0.0
C1152 C 0.08589 0.58069 0.00368 0.0
C1153 C 0.12998 0.61751 0.00475 0.0
C1154 C 0.12581 0.55442 0.98308 0.0
C1155 C 0.13876 0.52011 0.98897 0.0
C1156 C 0.14929 0.4944 0.97336 0.0
C1157 C 0.14655 0.50402 0.95107 0.0
C1158 C 0.13338 0.53907 0.94458 0.0
C1159 C 0.12287 0.56452 0.96087 0.0
H1160 H 0.55129 0.00928 0.36933 0.0
H1161 H 0.54634 0.88764 0.34723 0.0
H1162 H 0.4975 0.89201 0.34713 0.0
H1163 H 0.49477 0.00837 0.4047 0.0
H1164 H 0.48335 0.05699 0.39738 0.0
H1165 H 0.5183 0.0451 0.39559 0.0
H1166 H 0.5188 0.06607 0.3546 0.0
H1167 H 0.48388 0.07831 0.35629 0.0
H1168 H 0.49541 0.04405 0.33571 0.0
H1169 H 0.44973 0.90708 0.35198 0.0
H1170 H 0.40489 0.93454 0.35741 0.0
H1171 H 0.43945 0.04828 0.37356 0.0
C1172 C 0.53995 0.98361 0.36437 0.0
C1173 C 0.5528 0.94785 0.35869 0.0
C1174 C 0.53714 0.91517 0.35202 0.0
C1175 C 0.5093 0.91734 0.35184 0.0
C1176 C 0.49732 0.95262 0.35796 0.0
C1177 C 0.51202 0.98543 0.36372 0.0
C1178 C 0.49389 0.01991 0.36918 0.0
C1179 C 0.49782 0.03337 0.39314 0.0
C1180 C 0.49826 0.05411 0.35298 0.0
C1181 C 0.46675 0.00098 0.36593 0.0
C1182 C 0.46934 0.96205 0.35965 0.0
C1183 C 0.44737 0.93766 0.35662 0.0
C1184 C 0.42196 0.95354 0.35987 0.0
C1185 C 0.41863 0.99361 0.3658 0.0
C1186 C 0.44138 0.01766 0.36882 0.0
H1187 H 0.44444 0.98999 0.12648 0.0
H1188 H 0.45862 0.8749 0.15543 0.0
H1189 H 0.50688 0.88713 0.1547 0.0
H1190 H 0.50234 0.99484 0.09165 0.0
H1191 H 0.50905 0.04606 0.09723 0.0
H1192 H 0.47537 0.02768 0.09865 0.0
H1193 H 0.47112 0.0535 0.13863 0.0
H1194 H 0.50471 0.0722 0.13726 0.0
H1195 H 0.49535 0.03864 0.15892 0.0
H1196 H 0.5538 0.91006 0.14912 0.0
H1197 H 0.59607 0.94665 0.14465 0.0
H1198 H 0.55187 0.0498 0.12356 0.0
C1199 C 0.4577 0.96727 0.13255 0.0
C1200 C 0.44761 0.93088 0.14035 0.0
C1201 C 0.46569 0.90248 0.14875 0.0
C1202 C 0.49325 0.90919 0.14848 0.0
C1203 C 0.50252 0.94496 0.14033 0.0
C1204 C 0.48532 0.97395 0.13302 0.0
C1205 C 0.50053 0.01086 0.1266 0.0
C1206 C 0.49658 0.0204 0.10207 0.0
C1207 C 0.49245 0.04586 0.14123 0.0
C1208 C 0.52893 0.99782 0.13126 0.0
C1209 C 0.5296 0.95943 0.13879 0.0
C1210 C 0.55354 0.94029 0.14346 0.0
C1211 C 0.57744 0.96118 0.14075 0.0
C1212 C 0.57717 0.00102 0.13391 0.0
C1213 C 0.55258 0.01946 0.12903 0.0
H1214 H 0.5642 0.02168 0.62789 0.0
H1215 H 0.55357 0.89609 0.6381 0.0
H1216 H 0.50477 0.90486 0.63718 0.0
H1217 H 0.51024 0.0509 0.66314 0.0
H1218 H 0.5006 0.09225 0.64631 0.0
H1219 H 0.53477 0.07583 0.64649 0.0
H1220 H 0.53346 0.06787 0.6041 0.0
H1221 H 0.49926 0.08418 0.60377 0.0
H1222 H 0.50808 0.03742 0.59174 0.0
H1223 H 0.45701 0.92709 0.63443 0.0
H1224 H 0.4138 0.96187 0.63335 0.0
H1225 H 0.45548 0.07359 0.62771 0.0
C1226 C 0.55163 0.99596 0.62975 0.0
C1227 C 0.5628 0.95807 0.63279 0.0
C1228 C 0.54558 0.92534 0.63561 0.0
C1229 C 0.51779 0.93001 0.63507 0.0
C1230 C 0.50745 0.96772 0.63204 0.0
C1231 C 0.52382 1.00021 0.62971 0.0
C1232 C 0.50762 0.03777 0.62784 0.0
C1233 C 0.51367 0.06583 0.64709 0.0
C1234 C 0.51239 0.05799 0.60553 0.0
C1235 C 0.47958 0.02127 0.62939 0.0
C1236 C 0.47993 0.98076 0.63154 0.0
C1237 C 0.45648 0.95884 0.63286 0.0
C1238 C 0.43202 0.97888 0.63217 0.0
C1239 C 0.43115 0.02052 0.63049 0.0
C1240 C 0.45537 0.04181 0.62907 0.0
H1241 H 0.56555 0.00053 0.86186 0.0
H1242 H 0.55503 0.12461 0.87689 0.0
H1243 H 0.50637 0.11466 0.87921 0.0
H1244 H 0.50786 0.9926 0.82704 0.0
H1245 H 0.49978 0.94333 0.83587 0.0
H1246 H 0.53392 0.9599 0.83624 0.0
H1247 H 0.5373 0.94215 0.87761 0.0
H1248 H 0.50315 0.92559 0.87741 0.0
H1249 H 0.51361 0.96279 0.89675 0.0
H1250 H 0.45893 0.09075 0.88096 0.0
H1251 H 0.41582 0.05576 0.87904 0.0
H1252 H 0.45723 0.94842 0.86043 0.0
C1253 C 0.55304 0.02558 0.86576 0.0
C1254 C 0.56414 0.06329 0.86942 0.0
C1255 C 0.54703 0.09544 0.87411 0.0
C1256 C 0.51935 0.09007 0.87551 0.0
C1257 C 0.50908 0.0525 0.87188 0.0
C1258 C 0.52536 0.0209 0.86685 0.0
C1259 C 0.5092 0.98391 0.86281 0.0
C1260 C 0.51291 0.96908 0.83907 0.0
C1261 C 0.51624 0.95172 0.87965 0.0
C1262 C 0.4813 0.99962 0.86648 0.0
C1263 C 0.48168 0.03913 0.87193 0.0
C1264 C 0.45836 0.05985 0.87659 0.0
C1265 C 0.43398 0.03968 0.87551 0.0
C1266 C 0.43309 0.99933 0.86953 0.0
C1267 C 0.45715 0.97923 0.86496 0.0
H1268 H 0.93701 0.48387 0.37184 0.0
H1269 H 0.95337 0.60697 0.35779 0.0
H1270 H 0.0016 0.59302 0.35788 0.0
H1271 H 0.99249 0.46629 0.4076 0.0
H1272 H 0.99906 0.41751 0.3972 0.0
H1273 H 0.96568 0.43712 0.39637 0.0
H1274 H 0.96364 0.42472 0.35433 0.0
H1275 H 0.99697 0.40492 0.35502 0.0
H1276 H 0.98914 0.44521 0.3368 0.0
H1277 H 0.04809 0.56638 0.36109 0.0
H1278 H 0.08962 0.52771 0.3638 0.0
H1279 H 0.04306 0.42117 0.37335 0.0
C1280 C 0.95073 0.50793 0.36881 0.0
C1281 C 0.94136 0.54664 0.36503 0.0
C1282 C 0.95999 0.57714 0.36081 0.0
C1283 C 0.98747 0.56952 0.36087 0.0
C1284 C 0.99601 0.53114 0.36484 0.0
C1285 C 0.97822 0.50073 0.36843 0.0
C1286 C 0.99264 0.4619 0.37157 0.0
C1287 C 0.98714 0.44471 0.39455 0.0
C1288 C 0.98515 0.43246 0.35334 0.0
C1289 C 0.02133 0.47536 0.36938 0.0
C1290 C 0.02283 0.51546 0.36572 0.0
C1291 C 0.04719 0.5349 0.36378 0.0
C1292 C 0.07067 0.51268 0.36543 0.0
C1293 C 0.06963 0.47136 0.3687 0.0
C1294 C 0.04456 0.45261 0.37069 0.0
H1295 H 0.06252 0.46569 0.12991 0.0
H1296 H 0.05582 0.58632 0.15324 0.0
H1297 H 0.00721 0.579 0.15569 0.0
H1298 H 0.00216 0.46381 0.09763 0.0
H1299 H 0.99331 0.41419 0.10528 0.0
H1300 H 0.02785 0.42882 0.10465 0.0
H1301 H 0.03333 0.40673 0.14519 0.0
H1302 H 0.99878 0.39208 0.14597 0.0
H1303 H 0.01142 0.42664 0.16594 0.0
H1304 H 0.95969 0.56035 0.15452 0.0
H1305 H 0.91532 0.52981 0.1519 0.0
H1306 H 0.95161 0.41932 0.13194 0.0
C1307 C 0.05081 0.49064 0.13539 0.0
C1308 C 0.0631 0.52684 0.14106 0.0
C1309 C 0.04703 0.55848 0.14855 0.0
C1310 C 0.01932 0.5546 0.15006 0.0
C1311 C 0.00788 0.51869 0.14437 0.0
C1312 C 0.02301 0.48707 0.13739 0.0
C1313 C 0.00549 0.45141 0.13296 0.0
C1314 C 0.00731 0.43883 0.10868 0.0
C1315 C 0.01269 0.41719 0.14844 0.0
C1316 C 0.97818 0.4682 0.13834 0.0
C1317 C 0.98017 0.50718 0.14472 0.0
C1318 C 0.95784 0.52977 0.14972 0.0
C1319 C 0.93271 0.51217 0.14811 0.0
C1320 C 0.93003 0.47219 0.14183 0.0
C1321 C 0.95312 0.44979 0.13706 0.0
H1322 H 0.96346 0.58705 0.6364 0.0
H1323 H 0.91846 0.47937 0.6465 0.0
H1324 H 0.96043 0.44132 0.64717 0.0
H1325 H 0.01153 0.54439 0.59946 0.0
H1326 H 0.03905 0.57338 0.60957 0.0
H1327 H 0.00559 0.59257 0.61096 0.0
H1328 H 0.01077 0.60319 0.65297 0.0
H1329 H 0.04428 0.58415 0.65168 0.0
H1330 H 0.02037 0.56233 0.6702 0.0
H1331 H 0.0072 0.41532 0.64797 0.0
H1332 H 0.05549 0.40222 0.64629 0.0
H1333 H 0.07018 0.52585 0.63257 0.0
C1334 C 0.96248 0.55555 0.63897 0.0
C1335 C 0.93772 0.53618 0.64162 0.0
C1336 C 0.93721 0.49478 0.64447 0.0
C1337 C 0.96094 0.47294 0.64491 0.0
C1338 C 0.98501 0.49285 0.64213 0.0
C1339 C 0.98598 0.53315 0.63899 0.0
C1340 C 0.01444 0.54702 0.63546 0.0
C1341 C 0.01784 0.56542 0.6125 0.0
C1342 C 0.02296 0.57588 0.65367 0.0
C1343 C 0.02929 0.50823 0.63727 0.0
C1344 C 0.01193 0.47747 0.64136 0.0
C1345 C 0.02097 0.4391 0.64454 0.0
C1346 C 0.04848 0.43194 0.64355 0.0
C1347 C 0.06669 0.46284 0.63901 0.0
C1348 C 0.05681 0.50146 0.63573 0.0
H1349 H 0.06063 0.50922 0.86542 0.0
H1350 H 0.05133 0.63442 0.87791 0.0
H1351 H 0.00243 0.62615 0.87876 0.0
H1352 H 0.00452 0.5009 0.82893 0.0
H1353 H 0.99532 0.45246 0.83844 0.0
H1354 H 0.02965 0.46801 0.83957 0.0
H1355 H 0.03093 0.45282 0.88134 0.0
H1356 H 0.99661 0.4372 0.88037 0.0
H1357 H 0.00666 0.47529 0.8993 0.0
H1358 H 0.95447 0.6037 0.87935 0.0
H1359 H 0.91103 0.56947 0.87739 0.0
H1360 H 0.9519 0.46004 0.86212 0.0
C1361 C 0.04835 0.53489 0.86848 0.0
C1362 C 0.05985 0.57243 0.87183 0.0
C1363 C 0.04301 0.60536 0.87539 0.0
C1364 C 0.0152 0.60095 0.87593 0.0
C1365 C 0.00453 0.56354 0.87256 0.0
C1366 C 0.02057 0.53115 0.8687 0.0
C1367 C 0.0041 0.49441 0.86487 0.0
C1368 C 0.00867 0.478 0.84156 0.0
C1369 C 0.00992 0.46309 0.88253 0.0
C1370 C 0.97629 0.51115 0.86735 0.0
C1371 C 0.97694 0.55098 0.87197 0.0
C1372 C 0.9537 0.57255 0.87561 0.0
C1373 C 0.92914 0.55283 0.8745 0.0
C1374 C 0.92801 0.51206 0.86954 0.0
C1375 C 0.95198 0.4912 0.86581 0.0
H1376 H 0.22345 0.31234 0.35724 0.0
H1377 H 0.14938 0.24591 0.35811 0.0
H1378 H 0.17492 0.18387 0.35767 0.0
H1379 H 0.25981 0.24751 0.32119 0.0
H1380 H 0.29098 0.25292 0.33566 0.0
H1381 H 0.26697 0.2924 0.33592 0.0
H1382 H 0.26707 0.29195 0.37855 0.0
H1383 H 0.2911 0.25249 0.37844 0.0
H1384 H 0.26001 0.24674 0.393 0.0
H1385 H 0.20799 0.12927 0.35646 0.0
H1386 H 0.24678 0.08487 0.35573 0.0
H1387 H 0.29995 0.18595 0.35667 0.0
C1388 C 0.21261 0.28473 0.35726 0.0
C1389 C 0.18439 0.28398 0.35761 0.0
C1390 C 0.17097 0.24725 0.35785 0.0
C1391 C 0.18529 0.21183 0.35758 0.0
C1392 C 0.21304 0.21358 0.35722 0.0
C1393 C 0.22662 0.249 0.35718 0.0
C1394 C 0.25657 0.24243 0.35709 0.0
C1395 C 0.26933 0.25985 0.33622 0.0
C1396 C 0.26944 0.25941 0.37802 0.0
C1397 C 0.25765 0.19778 0.35694 0.0
C1398 C 0.23227 0.18184 0.35695 0.0
C1399 C 0.22797 0.14136 0.3565 0.0
C1400 C 0.25018 0.11638 0.35603 0.0
C1401 C 0.27643 0.1319 0.35612 0.0
C1402 C 0.28015 0.17321 0.35666 0.0
H1403 H 0.72315 0.82027 0.32483 0.0
H1404 H 0.67271 0.78674 0.37979 0.0
H1405 H 0.70154 0.72921 0.38689 0.0
H1406 H 0.7383 0.72493 0.30529 0.0
H1407 H 0.77276 0.73511 0.29901 0.0
H1408 H 0.74856 0.77429 0.2983 0.0
H1409 H 0.77664 0.81455 0.32617 0.0
H1410 H 0.80113 0.7757 0.32673 0.0
H1411 H 0.78606 0.79243 0.352 0.0
H1412 H 0.7329 0.67176 0.38553 0.0
H1413 H 0.7696 0.62408 0.38001 0.0
H1414 H 0.8026 0.69828 0.32867 0.0
C1415 C 0.71844 0.80103 0.33851 0.0
C1416 C 0.6957 0.80776 0.35171 0.0
C1417 C 0.69014 0.78219 0.36955 0.0
C1418 C 0.70628 0.74931 0.37363 0.0
C1419 C 0.72824 0.74298 0.36004 0.0
C1420 C 0.73479 0.76866 0.34322 0.0
C1421 C 0.76001 0.75564 0.33153 0.0
C1422 C 0.75456 0.74698 0.30709 0.0
C1423 C 0.78228 0.78641 0.33428 0.0
C1424 C 0.76625 0.71823 0.34411 0.0
C1425 C 0.74742 0.71117 0.36026 0.0
C1426 C 0.74802 0.67727 0.37319 0.0
C1427 C 0.76876 0.65025 0.36983 0.0
C1428 C 0.78884 0.65776 0.35402 0.0
C1429 C 0.78754 0.69214 0.341 0.0
H1430 H 0.20144 0.6714 0.1757 0.0
H1431 H 0.24486 0.58648 0.13613 0.0
H1432 H 0.2831 0.63241 0.13403 0.0
H1433 H 0.22405 0.75848 0.14904 0.0
H1434 H 0.22718 0.78703 0.17392 0.0
H1435 H 0.20322 0.74757 0.17245 0.0
H1436 H 0.22415 0.71516 0.20697 0.0
H1437 H 0.24806 0.75468 0.20866 0.0
H1438 H 0.25936 0.70432 0.20727 0.0
H1439 H 0.31477 0.68942 0.13365 0.0
H1440 H 0.34086 0.75011 0.13911 0.0
H1441 H 0.27897 0.79617 0.18196 0.0
C1442 C 0.2191 0.66245 0.16672 0.0
C1443 C 0.22025 0.62551 0.15598 0.0
C1444 C 0.24369 0.61457 0.14454 0.0
C1445 C 0.26541 0.64053 0.14317 0.0
C1446 C 0.26353 0.67693 0.15371 0.0
C1447 C 0.24122 0.68761 0.16564 0.0
C1448 C 0.24467 0.72802 0.17595 0.0
C1449 C 0.22352 0.75698 0.16732 0.0
C1450 C 0.24403 0.72537 0.20121 0.0
C1451 C 0.27229 0.73868 0.16767 0.0
C1452 C 0.28258 0.70895 0.15461 0.0
C1453 C 0.30712 0.71263 0.1441 0.0
C1454 C 0.32173 0.74734 0.14724 0.0
C1455 C 0.31206 0.77771 0.16114 0.0
C1456 C 0.28698 0.77323 0.17148 0.0
H1457 H 0.73467 0.1522 0.14953 0.0
H1458 H 0.66115 0.21886 0.15641 0.0
H1459 H 0.687 0.28044 0.15807 0.0
H1460 H 0.77484 0.21261 0.18612 0.0
H1461 H 0.8045 0.20895 0.16945 0.0
H1462 H 0.78038 0.16958 0.16933 0.0
H1463 H 0.77641 0.17512 0.12694 0.0
H1464 H 0.80048 0.21452 0.12693 0.0
H1465 H 0.7681 0.22194 0.11472 0.0
H1466 H 0.72008 0.33468 0.15842 0.0
H1467 H 0.75872 0.37916 0.15741 0.0
H1468 H 0.81164 0.27858 0.15006 0.0
C1469 C 0.72404 0.17973 0.15156 0.0
C1470 C 0.69584 0.18062 0.15292 0.0
C1471 C 0.68269 0.21733 0.15534 0.0
C1472 C 0.6972 0.25253 0.15632 0.0
C1473 C 0.72489 0.25067 0.15481 0.0
C1474 C 0.73825 0.21533 0.15249 0.0
C1475 C 0.76816 0.22195 0.15083 0.0
C1476 C 0.78283 0.20209 0.17008 0.0
C1477 C 0.77891 0.20753 0.12853 0.0
C1478 C 0.76943 0.26653 0.15258 0.0
C1479 C 0.74418 0.28233 0.1549 0.0
C1480 C 0.73997 0.3227 0.15668 0.0
C1481 C 0.76213 0.34774 0.1561 0.0
C1482 C 0.78831 0.33245 0.15374 0.0
C1483 C 0.79193 0.2912 0.15195 0.0
H1484 H 0.69857 0.80555 0.65315 0.0
H1485 H 0.74754 0.91092 0.65662 0.0
H1486 H 0.78806 0.86952 0.6575 0.0
H1487 H 0.73864 0.74569 0.6895 0.0
H1488 H 0.73357 0.70118 0.67387 0.0
H1489 H 0.70843 0.73911 0.67382 0.0
H1490 H 0.71039 0.74187 0.63123 0.0
H1491 H 0.73557 0.70401 0.63115 0.0
H1492 H 0.74193 0.75048 0.61778 0.0
H1493 H 0.82339 0.8165 0.65731 0.0
H1494 H 0.85076 0.75606 0.65645 0.0
H1495 H 0.7787 0.68527 0.65323 0.0
C1496 C 0.71779 0.82 0.6542 0.0
C1497 C 0.71981 0.86159 0.6549 0.0
C1498 C 0.74541 0.87918 0.65616 0.0
C1499 C 0.76857 0.85589 0.65664 0.0
C1500 C 0.76584 0.81503 0.65586 0.0
C1501 C 0.7411 0.79722 0.6547 0.0
C1502 C 0.74366 0.75273 0.65385 0.0
C1503 C 0.73028 0.73356 0.67396 0.0
C1504 C 0.73221 0.73632 0.63221 0.0
C1505 C 0.77372 0.74825 0.65469 0.0
C1506 C 0.78615 0.78454 0.65583 0.0
C1507 C 0.81385 0.78794 0.65649 0.0
C1508 C 0.82924 0.75339 0.65597 0.0
C1509 C 0.81694 0.71582 0.65485 0.0
C1510 C 0.78876 0.71345 0.65422 0.0
H1511 H 0.19751 0.30011 0.65912 0.0
H1512 H 0.24968 0.40198 0.65477 0.0
H1513 H 0.28863 0.35784 0.65158 0.0
H1514 H 0.24224 0.23917 0.6915 0.0
H1515 H 0.23303 0.19433 0.67754 0.0
H1516 H 0.2093 0.23396 0.67994 0.0
H1517 H 0.20337 0.23445 0.63758 0.0
H1518 H 0.22716 0.19495 0.63504 0.0
H1519 H 0.23222 0.24029 0.62017 0.0
H1520 H 0.32176 0.30271 0.64745 0.0
H1521 H 0.347 0.24063 0.64427 0.0
H1522 H 0.27351 0.17426 0.65194 0.0
C1523 C 0.21714 0.3132 0.65766 0.0
C1524 C 0.2205 0.35462 0.65727 0.0
C1525 C 0.24656 0.37042 0.65525 0.0
C1526 C 0.26882 0.34556 0.65336 0.0
C1527 C 0.26477 0.30492 0.65361 0.0
C1528 C 0.23961 0.28881 0.65585 0.0
C1529 C 0.24073 0.24414 0.65552 0.0
C1530 C 0.23074 0.22689 0.67743 0.0
C1531 C 0.22493 0.22749 0.63591 0.0
C1532 C 0.27046 0.23763 0.65265 0.0
C1533 C 0.28393 0.27311 0.65151 0.0
C1534 C 0.31144 0.27476 0.64844 0.0
C1535 C 0.3256 0.23927 0.64659 0.0
C1536 C 0.3123 0.20247 0.64793 0.0
C1537 C 0.28432 0.20183 0.651 0.0
H1538 H 0.69433 0.24234 0.82123 0.0
H1539 H 0.72642 0.15714 0.86735 0.0
H1540 H 0.76704 0.19802 0.87159 0.0
H1541 H 0.75706 0.27162 0.7954 0.0
H1542 H 0.74765 0.32278 0.79367 0.0
H1543 H 0.72241 0.285 0.79268 0.0
H1544 H 0.69799 0.31767 0.82557 0.0
H1545 H 0.72316 0.35546 0.82669 0.0
H1546 H 0.71594 0.32643 0.85082 0.0
H1547 H 0.80398 0.24829 0.87073 0.0
H1548 H 0.83276 0.3071 0.86779 0.0
H1549 H 0.77465 0.36237 0.82479 0.0
C1550 C 0.71016 0.23197 0.83189 0.0
C1551 C 0.70757 0.19632 0.84369 0.0
C1552 C 0.72823 0.18424 0.85804 0.0
C1553 C 0.75134 0.20719 0.8605 0.0
C1554 C 0.75321 0.24239 0.84875 0.0
C1555 C 0.73304 0.25496 0.83492 0.0
C1556 C 0.73904 0.29536 0.82552 0.0
C1557 C 0.7417 0.29357 0.80032 0.0
C1558 C 0.71777 0.3255 0.83258 0.0
C1559 C 0.76566 0.30372 0.83633 0.0
C1560 C 0.77371 0.27246 0.84932 0.0
C1561 C 0.79784 0.27298 0.86066 0.0
C1562 C 0.81407 0.30647 0.85884 0.0
C1563 C 0.80584 0.33931 0.84615 0.0
C1564 C 0.78133 0.33779 0.83473 0.0
H1565 H 0.19232 0.74639 0.82385 0.0
H1566 H 0.22505 0.65604 0.86644 0.0
H1567 H 0.26772 0.69283 0.86838 0.0
H1568 H 0.25269 0.77109 0.79397 0.0
H1569 H 0.24566 0.82317 0.79371 0.0
H1570 H 0.21864 0.78817 0.79425 0.0
H1571 H 0.19982 0.82129 0.82944 0.0
H1572 H 0.22673 0.85641 0.82898 0.0
H1573 H 0.22105 0.8269 0.85319 0.0
H1574 H 0.3068 0.7394 0.86523 0.0
H1575 H 0.33772 0.7955 0.86091 0.0
H1576 H 0.27785 0.85815 0.823 0.0
C1577 C 0.20865 0.73412 0.8333 0.0
C1578 C 0.20573 0.69813 0.8447 0.0
C1579 C 0.22711 0.68347 0.85748 0.0
C1580 C 0.25137 0.70407 0.85859 0.0
C1581 C 0.25362 0.73958 0.84717 0.0
C1582 C 0.23269 0.75477 0.83504 0.0
C1583 C 0.23949 0.79494 0.82572 0.0
C1584 C 0.2391 0.79428 0.80041 0.0
C1585 C 0.22065 0.82675 0.83488 0.0
C1586 C 0.26757 0.79998 0.83444 0.0
C1587 C 0.27551 0.76744 0.84646 0.0
C1588 C 0.30076 0.76507 0.85592 0.0
C1589 C 0.31821 0.79703 0.8533 0.0
C1590 C 0.31014 0.8312 0.84166 0.0
C1591 C 0.28452 0.83247 0.83204 0.0
H1592 H 0.33877 0.94903 0.30722 0.0
H1593 H 0.33188 0.075 0.29583 0.0
H1594 H 0.33424 0.06371 0.25592 0.0
H1595 H 0.38644 0.93132 0.26617 0.0
H1596 H 0.37341 0.88436 0.25744 0.0
H1597 H 0.36805 0.90099 0.28524 0.0
H1598 H 0.31704 0.89304 0.28038 0.0
H1599 H 0.32221 0.87597 0.25259 0.0
H1600 H 0.30055 0.91733 0.25777 0.0
H1601 H 0.34211 0.04095 0.21832 0.0
H1602 H 0.35258 0.00751 0.18382 0.0
H1603 H 0.35382 0.89477 0.21787 0.0
C1604 C 0.33711 0.9741 0.2963 0.0
C1605 C 0.33508 0.01294 0.3047 0.0
C1606 C 0.33348 0.04502 0.28984 0.0
C1607 C 0.33475 0.03892 0.26712 0.0
C1608 C 0.33757 0.00055 0.25941 0.0
C1609 C 0.33851 0.96855 0.27342 0.0
C1610 C 0.34321 0.93067 0.2606 0.0
C1611 C 0.36933 0.91067 0.2678 0.0
C1612 C 0.31932 0.90259 0.26298 0.0
C1613 C 0.3453 0.94667 0.2373 0.0
C1614 C 0.34186 0.98706 0.23717 0.0
C1615 C 0.34433 0.00923 0.21809 0.0
C1616 C 0.35031 0.98974 0.19849 0.0
C1617 C 0.3536 0.9482 0.19787 0.0
C1618 C 0.35102 0.9264 0.21765 0.0
H1619 H 0.637 0.06908 0.21245 0.0
H1620 H 0.68668 0.9773 0.18394 0.0
H1621 H 0.68984 0.94509 0.21999 0.0
H1622 H 0.67134 0.07176 0.26674 0.0
H1623 H 0.64061 0.0797 0.28151 0.0
H1624 H 0.6443 0.09808 0.25383 0.0
H1625 H 0.6017 0.06023 0.24221 0.0
H1626 H 0.59804 0.04142 0.26975 0.0
H1627 H 0.5998 0.00783 0.24681 0.0
H1628 H 0.68367 0.91843 0.25759 0.0
H1629 H 0.67174 0.90216 0.29585 0.0
H1630 H 0.62738 0.01162 0.30099 0.0
C1631 C 0.64909 0.04276 0.21389 0.0
C1632 C 0.66158 0.02586 0.19525 0.0
C1633 C 0.67689 0.99099 0.19787 0.0
C1634 C 0.67884 0.97235 0.21832 0.0
C1635 C 0.66562 0.98904 0.23615 0.0
C1636 C 0.65138 0.02374 0.2343 0.0
C1637 C 0.63815 0.03433 0.25597 0.0
C1638 C 0.64927 0.07328 0.26505 0.0
C1639 C 0.60761 0.03604 0.25353 0.0
C1640 C 0.6467 0.99963 0.27003 0.0
C1641 C 0.66253 0.97391 0.25822 0.0
C1642 C 0.67163 0.93861 0.26716 0.0
C1643 C 0.66457 0.92946 0.28886 0.0
C1644 C 0.64873 0.9556 0.30145 0.0
C1645 C 0.63981 0.99125 0.29187 0.0
H1646 H 0.64617 0.99764 0.80389 0.0
H1647 H 0.64841 0.12405 0.7925 0.0
H1648 H 0.65062 0.1122 0.75256 0.0
H1649 H 0.691 0.96969 0.75988 0.0
H1650 H 0.67245 0.92601 0.75276 0.0
H1651 H 0.672 0.94412 0.78064 0.0
H1652 H 0.62039 0.94704 0.77961 0.0
H1653 H 0.62065 0.92894 0.75173 0.0
H1654 H 0.60406 0.97464 0.75813 0.0
H1655 H 0.652 0.08739 0.71428 0.0
H1656 H 0.65086 0.05155 0.67935 0.0
H1657 H 0.64677 0.94038 0.71483 0.0
C1658 C 0.64729 0.02291 0.79305 0.0
C1659 C 0.64733 0.06188 0.80145 0.0
C1660 C 0.64851 0.09398 0.78658 0.0
C1661 C 0.64979 0.08754 0.76383 0.0
C1662 C 0.64973 0.04886 0.75618 0.0
C1663 C 0.64838 0.01705 0.77026 0.0
C1664 C 0.64774 0.97849 0.7576 0.0
C1665 C 0.67226 0.95308 0.76305 0.0
C1666 C 0.62166 0.95596 0.76203 0.0
C1667 C 0.64885 0.9937 0.73415 0.0
C1668 C 0.65014 0.03438 0.73383 0.0
C1669 C 0.65105 0.05554 0.71429 0.0
C1670 C 0.6504 0.0347 0.69447 0.0
C1671 C 0.64878 0.99291 0.69419 0.0
C1672 C 0.64815 0.97221 0.71441 0.0
H1673 H 0.35826 0.94184 0.78438 0.0
H1674 H 0.34225 0.05048 0.81988 0.0
H1675 H 0.34026 0.08656 0.78485 0.0
H1676 H 0.39985 0.98277 0.74335 0.0
H1677 H 0.38718 0.95268 0.72125 0.0
H1678 H 0.38631 0.93466 0.74912 0.0
H1679 H 0.33531 0.92336 0.74593 0.0
H1680 H 0.33609 0.94119 0.71799 0.0
H1681 H 0.31404 0.96364 0.7378 0.0
H1682 H 0.3439 0.11224 0.74626 0.0
H1683 H 0.3485 0.12417 0.70624 0.0
H1684 H 0.35926 0.99875 0.69563 0.0
C1685 C 0.35402 0.97312 0.7848 0.0
C1686 C 0.35054 0.99321 0.805 0.0
C1687 C 0.34503 0.03424 0.80472 0.0
C1688 C 0.34389 0.05513 0.78487 0.0
C1689 C 0.3479 0.03461 0.76533 0.0
C1690 C 0.35243 0.99443 0.76507 0.0
C1691 C 0.35617 0.97958 0.74175 0.0
C1692 C 0.38403 0.96135 0.7387 0.0
C1693 C 0.33408 0.95021 0.7355 0.0
C1694 C 0.35344 0.01779 0.72904 0.0
C1695 C 0.34887 0.04923 0.74296 0.0
C1696 C 0.34709 0.08778 0.73514 0.0
C1697 C 0.34985 0.09431 0.71244 0.0
C1698 C 0.35396 0.06238 0.69785 0.0
C1699 C 0.35568 0.02368 0.70634 0.0
H1700 H 0.85102 0.51936 0.19936 0.0
H1701 H 0.83008 0.39658 0.20925 0.0
H1702 H 0.82675 0.4079 0.24918 0.0
H1703 H 0.89261 0.52711 0.24601 0.0
H1704 H 0.88309 0.57668 0.2532 0.0
H1705 H 0.88107 0.56055 0.22501 0.0
H1706 H 0.83113 0.57988 0.22376 0.0
H1707 H 0.83306 0.59636 0.25192 0.0
H1708 H 0.80856 0.56012 0.24406 0.0
H1709 H 0.82916 0.43052 0.28832 0.0
H1710 H 0.83636 0.4636 0.32399 0.0
H1711 H 0.85609 0.57196 0.28955 0.0
C1712 C 0.84506 0.49519 0.2099 0.0
C1713 C 0.84061 0.45711 0.20108 0.0
C1714 C 0.83355 0.426 0.21555 0.0
C1715 C 0.83156 0.43213 0.23831 0.0
C1716 C 0.83675 0.4696 0.24658 0.0
C1717 C 0.84323 0.50072 0.23287 0.0
C1718 C 0.84941 0.53741 0.24631 0.0
C1719 C 0.87826 0.55124 0.2424 0.0
C1720 C 0.82934 0.57039 0.24121 0.0
C1721 C 0.84574 0.52179 0.26959 0.0
C1722 C 0.83829 0.48265 0.26933 0.0
C1723 C 0.83472 0.46131 0.28874 0.0
C1724 C 0.83891 0.48039 0.30898 0.0
C1725 C 0.84664 0.52054 0.30979 0.0
C1726 C 0.84991 0.54139 0.28968 0.0
H1727 H 0.15206 0.48675 0.30738 0.0
H1728 H 0.14572 0.36063 0.29659 0.0
H1729 H 0.14965 0.37136 0.25653 0.0
H1730 H 0.11172 0.51419 0.26241 0.0
H1731 H 0.13064 0.55762 0.25547 0.0
H1732 H 0.13016 0.54 0.28342 0.0
H1733 H 0.18176 0.53643 0.28353 0.0
H1734 H 0.18245 0.55417 0.25557 0.0
H1735 H 0.19867 0.50844 0.26251 0.0
H1736 H 0.15207 0.39554 0.21802 0.0
H1737 H 0.1507 0.43141 0.183 0.0
H1738 H 0.15374 0.54269 0.2184 0.0
C1739 C 0.15195 0.46132 0.29663 0.0
C1740 C 0.14879 0.42278 0.3051 0.0
C1741 C 0.14817 0.39037 0.29045 0.0
C1742 C 0.15049 0.39616 0.2677 0.0
C1743 C 0.15324 0.43455 0.25989 0.0
C1744 C 0.15385 0.46662 0.27386 0.0
C1745 C 0.15502 0.50497 0.26108 0.0
C1746 C 0.13042 0.5307 0.26588 0.0
C1747 C 0.18103 0.52731 0.26596 0.0
C1748 C 0.15463 0.4894 0.23771 0.0
C1749 C 0.15393 0.44869 0.23747 0.0
C1750 C 0.15276 0.4274 0.21796 0.0
C1751 C 0.15197 0.44821 0.19811 0.0
C1752 C 0.15214 0.49004 0.19783 0.0
C1753 C 0.15376 0.51079 0.21798 0.0
H1754 H 0.14218 0.50203 0.80778 0.0
H1755 H 0.14676 0.62791 0.79513 0.0
H1756 H 0.15167 0.6145 0.75549 0.0
H1757 H 0.18964 0.47123 0.76663 0.0
H1758 H 0.17112 0.4278 0.759 0.0
H1759 H 0.16871 0.44696 0.7866 0.0
H1760 H 0.11734 0.45132 0.78277 0.0
H1761 H 0.11955 0.43206 0.7552 0.0
H1762 H 0.10311 0.47845 0.76012 0.0
H1763 H 0.156 0.58811 0.71765 0.0
H1764 H 0.15674 0.5509 0.68314 0.0
H1765 H 0.14821 0.44139 0.71966 0.0
C1766 C 0.14431 0.52686 0.79673 0.0
C1767 C 0.14434 0.56612 0.80469 0.0
C1768 C 0.14686 0.59764 0.78955 0.0
C1769 C 0.1497 0.59031 0.76698 0.0
C1770 C 0.14979 0.55135 0.75978 0.0
C1771 C 0.14694 0.52012 0.77412 0.0
C1772 C 0.14678 0.4811 0.76192 0.0
C1773 C 0.17048 0.45525 0.76896 0.0
C1774 C 0.12011 0.45947 0.7652 0.0
C1775 C 0.14994 0.49536 0.73842 0.0
C1776 C 0.15182 0.53597 0.73768 0.0
C1777 C 0.15456 0.55631 0.71798 0.0
C1778 C 0.15499 0.5347 0.69842 0.0
C1779 C 0.15258 0.49299 0.69855 0.0
C1780 C 0.15028 0.47312 0.71894 0.0
H1781 H 0.85973 0.50643 0.69893 0.0
H1782 H 0.83253 0.62664 0.70761 0.0
H1783 H 0.82341 0.61325 0.74687 0.0
H1784 H 0.81363 0.45908 0.73885 0.0
H1785 H 0.83878 0.42556 0.74879 0.0
H1786 H 0.83993 0.44286 0.72075 0.0
H1787 H 0.88812 0.46801 0.72696 0.0
H1788 H 0.88707 0.45099 0.75501 0.0
H1789 H 0.89473 0.50182 0.74919 0.0
H1790 H 0.82008 0.58853 0.78572 0.0
H1791 H 0.82458 0.55527 0.82161 0.0
H1792 H 0.85585 0.45151 0.7886 0.0
C1793 C 0.85115 0.52949 0.70901 0.0
C1794 C 0.84637 0.56742 0.70016 0.0
C1795 C 0.83606 0.59731 0.71402 0.0
C1796 C 0.83079 0.58995 0.73634 0.0
C1797 C 0.8362 0.55258 0.74474 0.0
C1798 C 0.84624 0.52282 0.73155 0.0
C1799 C 0.8525 0.48644 0.74522 0.0
C1800 C 0.83517 0.45141 0.73797 0.0
C1801 C 0.88238 0.47623 0.74402 0.0
C1802 C 0.84473 0.50062 0.76809 0.0
C1803 C 0.83507 0.53868 0.76737 0.0
C1804 C 0.82744 0.55859 0.78645 0.0
C1805 C 0.83008 0.53938 0.80683 0.0
C1806 C 0.8405 0.5006 0.80814 0.0
C1807 C 0.84759 0.48098 0.78833 0.0
loop_
_geom_bond_atom_site_label_1
_geom_bond_atom_site_label_2
_geom_bond_distance
_geom_bond_site_symmetry_2
_ccdc_geom_bond_type
Co0 O2 2.162 . S
Co0 O8 2.073 1_545 S
Co0 O11 2.093 . S
Co0 O24 2.102 . S
Co0 N41 2.145 1_545 S
Co0 N49 2.194 1_545 S
Co1 O2 2.160 . S
Co1 O7 2.058 . S
Co1 O17 2.057 . S
Co1 O32 2.037 . S
Co1 N36 2.145 . S
Co1 N57 2.257 . S
O2 Co0 2.162 . S
O2 Co1 2.160 . S
C3 O4 1.278 . S
C3 O11 1.224 . S
O4 C3 1.278 . S
C5 O6 1.245 . S
C5 O17 1.232 . S
O6 C5 1.245 . S
O7 Co1 2.058 . S
O7 C33 1.269 . S
O8 Co0 2.073 1_565 S
O8 C33 1.250 1_565 S
H9 C34 0.930 . S
H10 C40 0.930 1_545 S
O11 Co0 2.093 . S
O11 C3 1.224 . S
H12 C44 0.929 . S
H13 C46 0.930 . S
H14 C47 0.930 . S
H15 C45 0.929 . S
H16 C48 0.928 . S
O17 Co1 2.057 . S
O17 C5 1.232 . S
H18 C37 0.929 . S
H19 C38 0.929 . S
H20 C50 0.931 . S
H21 C42 0.929 . S
H22 C51 0.930 . S
H23 C43 0.931 . S
O24 Co0 2.102 . S
O24 C52 1.214 . S
H25 C53 0.929 . S
H26 C54 0.929 . S
H27 C55 0.930 . S
H28 C56 0.929 . S
H29 C58 0.930 . S
H30 C35 0.930 . S
H31 C39 0.930 . S
O32 Co1 2.037 . S
O32 C52 1.234 . S
C33 O7 1.269 . S
C33 O8 1.250 1_545 S
C34 H9 0.930 . S
C34 C37 1.388 . S
C34 C39 1.418 . S
C35 H30 0.930 . S
C35 C38 1.404 . S
C35 C39 1.353 . S
N36 Co1 2.145 . S
N36 C37 1.397 . S
N36 C38 1.334 . S
C37 H18 0.929 . S
C37 C34 1.388 . S
C37 N36 1.397 . S
C38 H19 0.929 . S
C38 C35 1.404 . S
C38 N36 1.334 . S
C39 H31 0.930 . S
C39 C34 1.418 . S
C39 C35 1.353 . S
C40 H10 0.930 1_565 S
C40 N41 1.330 . S
C40 C42 1.446 . S
N41 Co0 2.145 1_565 S
N41 C40 1.330 . S
N41 C45 1.418 . S
C42 H21 0.929 . S
C42 C40 1.446 . S
C42 C43 1.332 . S
C43 H23 0.931 . S
C43 C42 1.332 . S
C43 C44 1.267 . S
C44 H12 0.929 . S
C44 C43 1.267 . S
C44 C45 1.251 . S
C45 H15 0.929 . S
C45 N41 1.418 . S
C45 C44 1.251 . S
C46 H13 0.930 . S
C46 C48 1.406 . S
C46 C51 1.261 . S
C47 H14 0.930 . S
C47 N49 1.325 . S
C47 C50 1.357 . S
C48 H16 0.928 . S
C48 C46 1.406 . S
C48 N49 1.261 . S
N49 Co0 2.194 1_565 S
N49 C47 1.325 . S
N49 C48 1.261 . S
C50 H20 0.931 . S
C50 C47 1.357 . S
C50 C51 1.312 . S
C51 H22 0.930 . S
C51 C46 1.261 . S
C51 C50 1.312 . S
C52 O24 1.214 . S
C52 O32 1.234 . S
C53 H25 0.929 . S
C53 C56 1.391 . S
C53 C58 1.391 . S
C54 H26 0.929 . S
C54 C55 1.390 . S
C54 N57 1.391 . S
C55 H27 0.930 . S
C55 C54 1.390 . S
C55 C56 1.392 . S
C56 H28 0.929 . S
C56 C53 1.391 . S
C56 C55 1.392 . S
N57 Co1 2.257 . S
N57 C54 1.391 . S
N57 C58 1.388 . S
C58 H29 0.930 . S
C58 C53 1.391 . S
C58 N57 1.388 . S
Co59 O61 2.162 . S
Co59 O67 2.073 1_565 S
Co59 O70 2.093 . S
Co59 O83 2.102 . S
Co59 N100 2.145 1_565 S
Co59 N108 2.195 1_565 S
Co60 O61 2.160 . S
Co60 O66 2.058 . S
Co60 O76 2.057 . S
Co60 O91 2.037 . S
Co60 N95 2.145 . S
Co60 N116 2.257 . S
O61 Co59 2.162 . S
O61 Co60 2.160 . S
C62 O63 1.278 . S
C62 O70 1.224 . S
O63 C62 1.278 . S
C64 O65 1.245 . S
C64 O76 1.232 . S
O65 C64 1.245 . S
O66 Co60 2.058 . S
O66 C92 1.269 . S
O67 Co59 2.073 1_545 S
O67 C92 1.249 1_545 S
H68 C93 0.930 . S
H69 C99 0.930 1_565 S
O70 Co59 2.093 . S
O70 C62 1.224 . S
H71 C103 0.929 . S
H72 C105 0.930 . S
H73 C106 0.930 . S
H74 C104 0.929 . S
H75 C107 0.928 . S
O76 Co60 2.057 . S
O76 C64 1.232 . S
H77 C96 0.929 . S
H78 C97 0.929 . S
H79 C109 0.931 . S
H80 C101 0.929 . S
H81 C110 0.930 . S
H82 C102 0.931 . S
O83 Co59 2.102 . S
O83 C111 1.214 . S
H84 C112 0.929 . S
H85 C113 0.929 . S
H86 C114 0.930 . S
H87 C115 0.929 . S
H88 C117 0.930 . S
H89 C94 0.930 . S
H90 C98 0.930 . S
O91 Co60 2.037 . S
O91 C111 1.234 . S
C92 O66 1.269 . S
C92 O67 1.249 1_565 S
C93 H68 0.930 . S
C93 C96 1.388 . S
C93 C98 1.418 . S
C94 H89 0.930 . S
C94 C97 1.404 . S
C94 C98 1.353 . S
N95 Co60 2.145 . S
N95 C96 1.397 . S
N95 C97 1.334 . S
C96 H77 0.929 . S
C96 C93 1.388 . S
C96 N95 1.397 . S
C97 H78 0.929 . S
C97 C94 1.404 . S
C97 N95 1.334 . S
C98 H90 0.930 . S
C98 C93 1.418 . S
C98 C94 1.353 . S
C99 H69 0.930 1_545 S
C99 N100 1.330 . S
C99 C101 1.446 . S
N100 Co59 2.145 1_545 S
N100 C99 1.330 . S
N100 C104 1.418 . S
C101 H80 0.929 . S
C101 C99 1.446 . S
C101 C102 1.332 . S
C102 H82 0.931 . S
C102 C101 1.332 . S
C102 C103 1.267 . S
C103 H71 0.929 . S
C103 C102 1.267 . S
C103 C104 1.251 . S
C104 H74 0.929 . S
C104 N100 1.418 . S
C104 C103 1.251 . S
C105 H72 0.930 . S
C105 C107 1.406 . S
C105 C110 1.261 . S
C106 H73 0.930 . S
C106 N108 1.325 . S
C106 C109 1.357 . S
C107 H75 0.928 . S
C107 C105 1.406 . S
C107 N108 1.261 . S
N108 Co59 2.195 1_545 S
N108 C106 1.325 . S
N108 C107 1.261 . S
C109 H79 0.931 . S
C109 C106 1.357 . S
C109 C110 1.312 . S
C110 H81 0.930 . S
C110 C105 1.261 . S
C110 C109 1.312 . S
C111 O83 1.214 . S
C111 O91 1.234 . S
C112 H84 0.929 . S
C112 C115 1.391 . S
C112 C117 1.391 . S
C113 H85 0.929 . S
C113 C114 1.390 . S
C113 N116 1.391 . S
C114 H86 0.930 . S
C114 C113 1.390 . S
C114 C115 1.392 . S
C115 H87 0.929 . S
C115 C112 1.391 . S
C115 C114 1.392 . S
N116 Co60 2.257 . S
N116 C113 1.391 . S
N116 C117 1.388 . S
C117 H88 0.930 . S
C117 C112 1.391 . S
C117 N116 1.388 . S
Co118 O120 2.162 . S
Co118 O126 2.073 1_565 S
Co118 O129 2.093 . S
Co118 O142 2.102 . S
Co118 N159 2.145 1_565 S
Co118 N167 2.194 1_565 S
Co119 O120 2.160 . S
Co119 O125 2.058 . S
Co119 O135 2.057 . S
Co119 O150 2.037 . S
Co119 N154 2.145 . S
Co119 N175 2.257 . S
O120 Co118 2.162 . S
O120 Co119 2.160 . S
C121 O122 1.278 . S
C121 O129 1.224 . S
O122 C121 1.278 . S
C123 O124 1.245 . S
C123 O135 1.232 . S
O124 C123 1.245 . S
O125 Co119 2.058 . S
O125 C151 1.269 . S
O126 Co118 2.073 1_545 S
O126 C151 1.250 1_545 S
H127 C152 0.930 . S
H128 C158 0.930 1_565 S
O129 Co118 2.093 . S
O129 C121 1.224 . S
H130 C162 0.929 . S
H131 C164 0.930 . S
H132 C165 0.930 . S
H133 C163 0.929 . S
H134 C166 0.928 . S
O135 Co119 2.057 . S
O135 C123 1.232 . S
H136 C155 0.929 . S
H137 C156 0.929 . S
H138 C168 0.931 . S
H139 C160 0.929 . S
H140 C169 0.930 . S
H141 C161 0.931 . S
O142 Co118 2.102 . S
O142 C170 1.214 . S
H143 C171 0.929 . S
H144 C172 0.929 . S
H145 C173 0.930 . S
H146 C174 0.929 . S
H147 C176 0.930 . S
H148 C153 0.930 . S
H149 C157 0.930 . S
O150 Co119 2.037 . S
O150 C170 1.234 . S
C151 O125 1.269 . S
C151 O126 1.250 1_565 S
C152 H127 0.930 . S
C152 C155 1.388 . S
C152 C157 1.418 . S
C153 H148 0.930 . S
C153 C156 1.404 . S
C153 C157 1.353 . S
N154 Co119 2.145 . S
N154 C155 1.397 . S
N154 C156 1.334 . S
C155 H136 0.929 . S
C155 C152 1.388 . S
C155 N154 1.397 . S
C156 H137 0.929 . S
C156 C153 1.404 . S
C156 N154 1.334 . S
C157 H149 0.930 . S
C157 C152 1.418 . S
C157 C153 1.353 . S
C158 H128 0.930 1_545 S
C158 N159 1.330 . S
C158 C160 1.446 . S
N159 Co118 2.145 1_545 S
N159 C158 1.330 . S
N159 C163 1.418 . S
C160 H139 0.929 . S
C160 C158 1.446 . S
C160 C161 1.332 . S
C161 H141 0.931 . S
C161 C160 1.332 . S
C161 C162 1.267 . S
C162 H130 0.929 . S
C162 C161 1.267 . S
C162 C163 1.251 . S
C163 H133 0.929 . S
C163 N159 1.418 . S
C163 C162 1.251 . S
C164 H131 0.930 . S
C164 C166 1.406 . S
C164 C169 1.261 . S
C165 H132 0.930 . S
C165 N167 1.325 . S
C165 C168 1.357 . S
C166 H134 0.928 . S
C166 C164 1.406 . S
C166 N167 1.261 . S
N167 Co118 2.194 1_545 S
N167 C165 1.325 . S
N167 C166 1.261 . S
C168 H138 0.931 . S
C168 C165 1.357 . S
C168 C169 1.312 . S
C169 H140 0.930 . S
C169 C164 1.261 . S
C169 C168 1.312 . S
C170 O142 1.214 . S
C170 O150 1.234 . S
C171 H143 0.929 . S
C171 C174 1.391 . S
C171 C176 1.391 . S
C172 H144 0.929 . S
C172 C173 1.390 . S
C172 N175 1.391 . S
C173 H145 0.930 . S
C173 C172 1.390 . S
C173 C174 1.392 . S
C174 H146 0.929 . S
C174 C171 1.391 . S
C174 C173 1.392 . S
N175 Co119 2.257 . S
N175 C172 1.391 . S
N175 C176 1.388 . S
C176 H147 0.930 . S
C176 C171 1.391 . S
C176 N175 1.388 . S
Co177 O179 2.162 . S
Co177 O185 2.073 1_545 S
Co177 O188 2.093 . S
Co177 O201 2.102 . S
Co177 N218 2.145 1_545 S
Co177 N226 2.195 1_545 S
Co178 O179 2.160 . S
Co178 O184 2.058 . S
Co178 O194 2.057 . S
Co178 O209 2.037 . S
Co178 N213 2.145 . S
Co178 N234 2.257 . S
O179 Co177 2.162 . S
O179 Co178 2.160 . S
C180 O181 1.278 . S
C180 O188 1.224 . S
O181 C180 1.278 . S
C182 O183 1.245 . S
C182 O194 1.232 . S
O183 C182 1.245 . S
O184 Co178 2.058 . S
O184 C210 1.269 . S
O185 Co177 2.073 1_565 S
O185 C210 1.249 1_565 S
H186 C211 0.930 . S
H187 C217 0.930 1_545 S
O188 Co177 2.093 . S
O188 C180 1.224 . S
H189 C221 0.929 . S
H190 C223 0.930 . S
H191 C224 0.930 . S
H192 C222 0.929 . S
H193 C225 0.928 . S
O194 Co178 2.057 . S
O194 C182 1.232 . S
H195 C214 0.929 . S
H196 C215 0.929 . S
H197 C227 0.931 . S
H198 C219 0.929 . S
H199 C228 0.930 . S
H200 C220 0.931 . S
O201 Co177 2.102 . S
O201 C229 1.214 . S
H202 C230 0.929 . S
H203 C231 0.929 . S
H204 C232 0.930 . S
H205 C233 0.929 . S
H206 C235 0.930 . S
H207 C212 0.930 . S
H208 C216 0.930 . S
O209 Co178 2.037 . S
O209 C229 1.234 . S
C210 O184 1.269 . S
C210 O185 1.249 1_545 S
C211 H186 0.930 . S
C211 C214 1.388 . S
C211 C216 1.418 . S
C212 H207 0.930 . S
C212 C215 1.404 . S
C212 C216 1.353 . S
N213 Co178 2.145 . S
N213 C214 1.397 . S
N213 C215 1.334 . S
C214 H195 0.929 . S
C214 C211 1.388 . S
C214 N213 1.397 . S
C215 H196 0.929 . S
C215 C212 1.404 . S
C215 N213 1.334 . S
C216 H208 0.930 . S
C216 C211 1.418 . S
C216 C212 1.353 . S
C217 H187 0.930 1_565 S
C217 N218 1.330 . S
C217 C219 1.446 . S
N218 Co177 2.145 1_565 S
N218 C217 1.330 . S
N218 C222 1.418 . S
C219 H198 0.929 . S
C219 C217 1.446 . S
C219 C220 1.332 . S
C220 H200 0.931 . S
C220 C219 1.332 . S
C220 C221 1.267 . S
C221 H189 0.929 . S
C221 C220 1.267 . S
C221 C222 1.251 . S
C222 H192 0.929 . S
C222 N218 1.418 . S
C222 C221 1.251 . S
C223 H190 0.930 . S
C223 C225 1.406 . S
C223 C228 1.261 . S
C224 H191 0.930 . S
C224 N226 1.325 . S
C224 C227 1.357 . S
C225 H193 0.928 . S
C225 C223 1.406 . S
C225 N226 1.261 . S
N226 Co177 2.195 1_565 S
N226 C224 1.325 . S
N226 C225 1.261 . S
C227 H197 0.931 . S
C227 C224 1.357 . S
C227 C228 1.312 . S
C228 H199 0.930 . S
C228 C223 1.261 . S
C228 C227 1.312 . S
C229 O201 1.214 . S
C229 O209 1.234 . S
C230 H202 0.929 . S
C230 C233 1.391 . S
C230 C235 1.391 . S
C231 H203 0.929 . S
C231 C232 1.390 . S
C231 N234 1.391 . S
C232 H204 0.930 . S
C232 C231 1.390 . S
C232 C233 1.392 . S
C233 H205 0.929 . S
C233 C230 1.391 . S
C233 C232 1.392 . S
N234 Co178 2.257 . S
N234 C231 1.391 . S
N234 C235 1.388 . S
C235 H206 0.930 . S
C235 C230 1.391 . S
C235 N234 1.388 . S
Co236 O238 2.162 . S
Co236 O244 2.073 1_565 S
Co236 O247 2.093 . S
Co236 O260 2.102 . S
Co236 N277 2.145 1_565 S
Co236 N285 2.195 1_565 S
Co237 O238 2.160 . S
Co237 O243 2.058 . S
Co237 O253 2.057 . S
Co237 O268 2.037 . S
Co237 N272 2.145 . S
Co237 N293 2.257 . S
O238 Co236 2.162 . S
O238 Co237 2.160 . S
C239 O240 1.278 . S
C239 O247 1.224 . S
O240 C239 1.278 . S
C241 O242 1.245 . S
C241 O253 1.232 . S
O242 C241 1.245 . S
O243 Co237 2.058 . S
O243 C269 1.269 . S
O244 Co236 2.073 1_545 S
O244 C269 1.250 1_545 S
H245 C270 0.930 . S
H246 C276 0.930 1_565 S
O247 Co236 2.093 . S
O247 C239 1.224 . S
H248 C280 0.929 . S
H249 C282 0.930 . S
H250 C283 0.930 . S
H251 C281 0.929 . S
H252 C284 0.928 . S
O253 Co237 2.057 . S
O253 C241 1.232 . S
H254 C273 0.929 . S
H255 C274 0.929 . S
H256 C286 0.931 . S
H257 C278 0.929 . S
H258 C287 0.930 . S
H259 C279 0.931 . S
O260 Co236 2.102 . S
O260 C288 1.214 . S
H261 C289 0.929 . S
H262 C290 0.929 . S
H263 C291 0.930 . S
H264 C292 0.929 . S
H265 C294 0.930 . S
H266 C271 0.930 . S
H267 C275 0.930 . S
O268 Co237 2.037 . S
O268 C288 1.234 . S
C269 O243 1.269 . S
C269 O244 1.250 1_565 S
C270 H245 0.930 . S
C270 C273 1.388 . S
C270 C275 1.418 . S
C271 H266 0.930 . S
C271 C274 1.404 . S
C271 C275 1.353 . S
N272 Co237 2.145 . S
N272 C273 1.397 . S
N272 C274 1.334 . S
C273 H254 0.929 . S
C273 C270 1.388 . S
C273 N272 1.397 . S
C274 H255 0.929 . S
C274 C271 1.404 . S
C274 N272 1.334 . S
C275 H267 0.930 . S
C275 C270 1.418 . S
C275 C271 1.353 . S
C276 H246 0.930 1_545 S
C276 N277 1.330 . S
C276 C278 1.446 . S
N277 Co236 2.145 1_545 S
N277 C276 1.330 . S
N277 C281 1.418 . S
C278 H257 0.929 . S
C278 C276 1.446 . S
C278 C279 1.332 . S
C279 H259 0.931 . S
C279 C278 1.332 . S
C279 C280 1.267 . S
C280 H248 0.929 . S
C280 C279 1.267 . S
C280 C281 1.251 . S
C281 H251 0.929 . S
C281 N277 1.418 . S
C281 C280 1.251 . S
C282 H249 0.930 . S
C282 C284 1.406 . S
C282 C287 1.261 . S
C283 H250 0.930 . S
C283 N285 1.325 . S
C283 C286 1.357 . S
C284 H252 0.928 . S
C284 C282 1.406 . S
C284 N285 1.261 . S
N285 Co236 2.195 1_545 S
N285 C283 1.325 . S
N285 C284 1.261 . S
C286 H256 0.931 . S
C286 C283 1.357 . S
C286 C287 1.312 . S
C287 H258 0.930 . S
C287 C282 1.261 . S
C287 C286 1.312 . S
C288 O260 1.214 . S
C288 O268 1.234 . S
C289 H261 0.929 . S
C289 C292 1.391 . S
C289 C294 1.391 . S
C290 H262 0.929 . S
C290 C291 1.390 . S
C290 N293 1.391 . S
C291 H263 0.930 . S
C291 C290 1.390 . S
C291 C292 1.392 . S
C292 H264 0.929 . S
C292 C289 1.391 . S
C292 C291 1.392 . S
N293 Co237 2.257 . S
N293 C290 1.391 . S
N293 C294 1.388 . S
C294 H265 0.930 . S
C294 C289 1.391 . S
C294 N293 1.388 . S
Co295 O297 2.162 . S
Co295 O303 2.073 1_545 S
Co295 O306 2.093 . S
Co295 O319 2.102 . S
Co295 N336 2.145 1_545 S
Co295 N344 2.195 1_545 S
Co296 O297 2.160 . S
Co296 O302 2.058 . S
Co296 O312 2.057 . S
Co296 O327 2.037 . S
Co296 N331 2.145 . S
Co296 N352 2.257 . S
O297 Co295 2.162 . S
O297 Co296 2.160 . S
C298 O299 1.278 . S
C298 O306 1.224 . S
O299 C298 1.278 . S
C300 O301 1.245 . S
C300 O312 1.232 . S
O301 C300 1.245 . S
O302 Co296 2.058 . S
O302 C328 1.269 . S
O303 Co295 2.073 1_565 S
O303 C328 1.249 1_565 S
H304 C329 0.930 . S
H305 C335 0.930 1_545 S
O306 Co295 2.093 . S
O306 C298 1.224 . S
H307 C339 0.929 . S
H308 C341 0.930 . S
H309 C342 0.930 . S
H310 C340 0.929 . S
H311 C343 0.928 . S
O312 Co296 2.057 . S
O312 C300 1.232 . S
H313 C332 0.929 . S
H314 C333 0.929 . S
H315 C345 0.931 . S
H316 C337 0.929 . S
H317 C346 0.930 . S
H318 C338 0.931 . S
O319 Co295 2.102 . S
O319 C347 1.214 . S
H320 C348 0.929 . S
H321 C349 0.929 . S
H322 C350 0.930 . S
H323 C351 0.929 . S
H324 C353 0.930 . S
H325 C330 0.930 . S
H326 C334 0.930 . S
O327 Co296 2.037 . S
O327 C347 1.234 . S
C328 O302 1.269 . S
C328 O303 1.249 1_545 S
C329 H304 0.930 . S
C329 C332 1.388 . S
C329 C334 1.418 . S
C330 H325 0.930 . S
C330 C333 1.404 . S
C330 C334 1.353 . S
N331 Co296 2.145 . S
N331 C332 1.397 . S
N331 C333 1.334 . S
C332 H313 0.929 . S
C332 C329 1.388 . S
C332 N331 1.397 . S
C333 H314 0.929 . S
C333 C330 1.404 . S
C333 N331 1.334 . S
C334 H326 0.930 . S
C334 C329 1.418 . S
C334 C330 1.353 . S
C335 H305 0.930 1_565 S
C335 N336 1.330 . S
C335 C337 1.446 . S
N336 Co295 2.145 1_565 S
N336 C335 1.330 . S
N336 C340 1.418 . S
C337 H316 0.929 . S
C337 C335 1.446 . S
C337 C338 1.332 . S
C338 H318 0.931 . S
C338 C337 1.332 . S
C338 C339 1.267 . S
C339 H307 0.929 . S
C339 C338 1.267 . S
C339 C340 1.251 . S
C340 H310 0.929 . S
C340 N336 1.418 . S
C340 C339 1.251 . S
C341 H308 0.930 . S
C341 C343 1.406 . S
C341 C346 1.261 . S
C342 H309 0.930 . S
C342 N344 1.325 . S
C342 C345 1.357 . S
C343 H311 0.928 . S
C343 C341 1.406 . S
C343 N344 1.261 . S
N344 Co295 2.195 1_565 S
N344 C342 1.325 . S
N344 C343 1.261 . S
C345 H315 0.931 . S
C345 C342 1.357 . S
C345 C346 1.312 . S
C346 H317 0.930 . S
C346 C341 1.261 . S
C346 C345 1.312 . S
C347 O319 1.214 . S
C347 O327 1.234 . S
C348 H320 0.929 . S
C348 C351 1.391 . S
C348 C353 1.391 . S
C349 H321 0.929 . S
C349 C350 1.390 . S
C349 N352 1.391 . S
C350 H322 0.930 . S
C350 C349 1.390 . S
C350 C351 1.392 . S
C351 H323 0.929 . S
C351 C348 1.391 . S
C351 C350 1.392 . S
N352 Co296 2.257 . S
N352 C349 1.391 . S
N352 C353 1.388 . S
C353 H324 0.930 . S
C353 C348 1.391 . S
C353 N352 1.388 . S
Co354 O356 2.162 . S
Co354 O362 2.073 1_545 S
Co354 O365 2.093 . S
Co354 O378 2.102 . S
Co354 N395 2.145 1_545 S
Co354 N403 2.195 1_545 S
Co355 O356 2.160 . S
Co355 O361 2.058 . S
Co355 O371 2.057 . S
Co355 O386 2.037 . S
Co355 N390 2.145 . S
Co355 N411 2.257 . S
O356 Co354 2.162 . S
O356 Co355 2.160 . S
C357 O358 1.278 . S
C357 O365 1.224 . S
O358 C357 1.278 . S
C359 O360 1.245 . S
C359 O371 1.232 . S
O360 C359 1.245 . S
O361 Co355 2.058 . S
O361 C387 1.269 . S
O362 Co354 2.073 1_565 S
O362 C387 1.250 1_565 S
H363 C388 0.930 . S
H364 C394 0.930 1_545 S
O365 Co354 2.093 . S
O365 C357 1.224 . S
H366 C398 0.929 . S
H367 C400 0.930 . S
H368 C401 0.930 . S
H369 C399 0.929 . S
H370 C402 0.928 . S
O371 Co355 2.057 . S
O371 C359 1.232 . S
H372 C391 0.929 . S
H373 C392 0.929 . S
H374 C404 0.931 . S
H375 C396 0.929 . S
H376 C405 0.930 . S
H377 C397 0.931 . S
O378 Co354 2.102 . S
O378 C406 1.214 . S
H379 C407 0.929 . S
H380 C408 0.929 . S
H381 C409 0.930 . S
H382 C410 0.929 . S
H383 C412 0.930 . S
H384 C389 0.930 . S
H385 C393 0.930 . S
O386 Co355 2.037 . S
O386 C406 1.234 . S
C387 O361 1.269 . S
C387 O362 1.250 1_545 S
C388 H363 0.930 . S
C388 C391 1.388 . S
C388 C393 1.418 . S
C389 H384 0.930 . S
C389 C392 1.404 . S
C389 C393 1.353 . S
N390 Co355 2.145 . S
N390 C391 1.397 . S
N390 C392 1.334 . S
C391 H372 0.929 . S
C391 C388 1.388 . S
C391 N390 1.397 . S
C392 H373 0.929 . S
C392 C389 1.404 . S
C392 N390 1.334 . S
C393 H385 0.930 . S
C393 C388 1.418 . S
C393 C389 1.353 . S
C394 H364 0.930 1_565 S
C394 N395 1.330 . S
C394 C396 1.446 . S
N395 Co354 2.145 1_565 S
N395 C394 1.330 . S
N395 C399 1.418 . S
C396 H375 0.929 . S
C396 C394 1.446 . S
C396 C397 1.332 . S
C397 H377 0.931 . S
C397 C396 1.332 . S
C397 C398 1.267 . S
C398 H366 0.929 . S
C398 C397 1.267 . S
C398 C399 1.251 . S
C399 H369 0.929 . S
C399 N395 1.418 . S
C399 C398 1.251 . S
C400 H367 0.930 . S
C400 C402 1.406 . S
C400 C405 1.261 . S
C401 H368 0.930 . S
C401 N403 1.325 . S
C401 C404 1.357 . S
C402 H370 0.928 . S
C402 C400 1.406 . S
C402 N403 1.261 . S
N403 Co354 2.195 1_565 S
N403 C401 1.325 . S
N403 C402 1.261 . S
C404 H374 0.931 . S
C404 C401 1.357 . S
C404 C405 1.312 . S
C405 H376 0.930 . S
C405 C400 1.261 . S
C405 C404 1.312 . S
C406 O378 1.214 . S
C406 O386 1.234 . S
C407 H379 0.929 . S
C407 C410 1.391 . S
C407 C412 1.391 . S
C408 H380 0.929 . S
C408 C409 1.390 . S
C408 N411 1.391 . S
C409 H381 0.930 . S
C409 C408 1.390 . S
C409 C410 1.392 . S
C410 H382 0.929 . S
C410 C407 1.391 . S
C410 C409 1.392 . S
N411 Co355 2.257 . S
N411 C408 1.391 . S
N411 C412 1.388 . S
C412 H383 0.930 . S
C412 C407 1.391 . S
C412 N411 1.388 . S
Co413 O415 2.162 . S
Co413 O421 2.073 1_565 S
Co413 O424 2.093 . S
Co413 O437 2.102 . S
Co413 N454 2.145 1_565 S
Co413 N462 2.195 1_565 S
Co414 O415 2.160 . S
Co414 O420 2.058 . S
Co414 O430 2.057 . S
Co414 O445 2.037 . S
Co414 N449 2.145 . S
Co414 N470 2.257 . S
O415 Co413 2.162 . S
O415 Co414 2.160 . S
C416 O417 1.278 . S
C416 O424 1.224 . S
O417 C416 1.278 . S
C418 O419 1.245 . S
C418 O430 1.232 . S
O419 C418 1.245 . S
O420 Co414 2.058 . S
O420 C446 1.269 . S
O421 Co413 2.073 1_545 S
O421 C446 1.249 1_545 S
H422 C447 0.930 . S
H423 C453 0.930 1_565 S
O424 Co413 2.093 . S
O424 C416 1.224 . S
H425 C457 0.929 . S
H426 C459 0.930 . S
H427 C460 0.930 . S
H428 C458 0.929 . S
H429 C461 0.928 . S
O430 Co414 2.057 . S
O430 C418 1.232 . S
H431 C450 0.929 . S
H432 C451 0.929 . S
H433 C463 0.931 . S
H434 C455 0.929 . S
H435 C464 0.930 . S
H436 C456 0.931 . S
O437 Co413 2.102 . S
O437 C465 1.214 . S
H438 C466 0.929 . S
H439 C467 0.929 . S
H440 C468 0.930 . S
H441 C469 0.929 . S
H442 C471 0.930 . S
H443 C448 0.930 . S
H444 C452 0.930 . S
O445 Co414 2.037 . S
O445 C465 1.234 . S
C446 O420 1.269 . S
C446 O421 1.249 1_565 S
C447 H422 0.930 . S
C447 C450 1.388 . S
C447 C452 1.418 . S
C448 H443 0.930 . S
C448 C451 1.404 . S
C448 C452 1.353 . S
N449 Co414 2.145 . S
N449 C450 1.397 . S
N449 C451 1.334 . S
C450 H431 0.929 . S
C450 C447 1.388 . S
C450 N449 1.397 . S
C451 H432 0.929 . S
C451 C448 1.404 . S
C451 N449 1.334 . S
C452 H444 0.930 . S
C452 C447 1.418 . S
C452 C448 1.353 . S
C453 H423 0.930 1_545 S
C453 N454 1.330 . S
C453 C455 1.446 . S
N454 Co413 2.145 1_545 S
N454 C453 1.330 . S
N454 C458 1.418 . S
C455 H434 0.929 . S
C455 C453 1.446 . S
C455 C456 1.332 . S
C456 H436 0.931 . S
C456 C455 1.332 . S
C456 C457 1.267 . S
C457 H425 0.929 . S
C457 C456 1.267 . S
C457 C458 1.251 . S
C458 H428 0.929 . S
C458 N454 1.418 . S
C458 C457 1.251 . S
C459 H426 0.930 . S
C459 C461 1.406 . S
C459 C464 1.261 . S
C460 H427 0.930 . S
C460 N462 1.325 . S
C460 C463 1.357 . S
C461 H429 0.928 . S
C461 C459 1.406 . S
C461 N462 1.261 . S
N462 Co413 2.195 1_545 S
N462 C460 1.325 . S
N462 C461 1.261 . S
C463 H433 0.931 . S
C463 C460 1.357 . S
C463 C464 1.312 . S
C464 H435 0.930 . S
C464 C459 1.261 . S
C464 C463 1.312 . S
C465 O437 1.214 . S
C465 O445 1.234 . S
C466 H438 0.929 . S
C466 C469 1.391 . S
C466 C471 1.391 . S
C467 H439 0.929 . S
C467 C468 1.390 . S
C467 N470 1.391 . S
C468 H440 0.930 . S
C468 C467 1.390 . S
C468 C469 1.392 . S
C469 H441 0.929 . S
C469 C466 1.391 . S
C469 C468 1.392 . S
N470 Co414 2.257 . S
N470 C467 1.391 . S
N470 C471 1.388 . S
C471 H442 0.930 . S
C471 C466 1.391 . S
C471 N470 1.388 . S
Co472 O474 2.143 . S
Co472 O480 2.074 . S
Co472 O483 2.093 . S
Co472 O496 2.097 . S
Co472 N513 2.151 . S
Co472 N521 2.214 . S
Co473 O474 2.160 . S
Co473 O479 2.058 . S
Co473 O489 2.057 . S
Co473 O504 2.037 . S
Co473 N508 2.145 . S
Co473 N529 2.257 . S
O474 Co472 2.143 . S
O474 Co473 2.160 . S
C475 O476 1.278 . S
C475 O483 1.224 . S
O476 C475 1.278 . S
C477 O478 1.245 . S
C477 O489 1.232 . S
O478 C477 1.245 . S
O479 Co473 2.058 . S
O479 C505 1.269 . S
O480 Co472 2.074 . S
O480 C505 1.257 . S
H481 C506 0.930 . S
H482 C512 0.930 . S
O483 Co472 2.093 . S
O483 C475 1.224 . S
H484 C516 0.929 . S
H485 C518 0.930 . S
H486 C519 0.930 . S
H487 C517 0.929 . S
H488 C520 0.928 . S
O489 Co473 2.057 . S
O489 C477 1.232 . S
H490 C509 0.929 . S
H491 C510 0.929 . S
H492 C522 0.931 . S
H493 C514 0.929 . S
H494 C523 0.930 . S
H495 C515 0.931 . S
O496 Co472 2.097 . S
O496 C524 1.214 . S
H497 C525 0.929 . S
H498 C526 0.929 . S
H499 C527 0.930 . S
H500 C528 0.929 . S
H501 C530 0.930 . S
H502 C507 0.930 . S
H503 C511 0.930 . S
O504 Co473 2.037 . S
O504 C524 1.234 . S
C505 O479 1.269 . S
C505 O480 1.257 . S
C506 H481 0.930 . S
C506 C509 1.388 . S
C506 C511 1.418 . S
C507 H502 0.930 . S
C507 C510 1.404 . S
C507 C511 1.353 . S
N508 Co473 2.145 . S
N508 C509 1.397 . S
N508 C510 1.334 . S
C509 H490 0.929 . S
C509 C506 1.388 . S
C509 N508 1.397 . S
C510 H491 0.929 . S
C510 C507 1.404 . S
C510 N508 1.334 . S
C511 H503 0.930 . S
C511 C506 1.418 . S
C511 C507 1.353 . S
C512 H482 0.930 . S
C512 N513 1.330 . S
C512 C514 1.446 . S
N513 Co472 2.151 . S
N513 C512 1.330 . S
N513 C517 1.418 . S
C514 H493 0.929 . S
C514 C512 1.446 . S
C514 C515 1.332 . S
C515 H495 0.931 . S
C515 C514 1.332 . S
C515 C516 1.267 . S
C516 H484 0.929 . S
C516 C515 1.267 . S
C516 C517 1.251 . S
C517 H487 0.929 . S
C517 N513 1.418 . S
C517 C516 1.251 . S
C518 H485 0.930 . S
C518 C520 1.406 . S
C518 C523 1.261 . S
C519 H486 0.930 . S
C519 N521 1.325 . S
C519 C522 1.357 . S
C520 H488 0.928 . S
C520 C518 1.406 . S
C520 N521 1.261 . S
N521 Co472 2.214 . S
N521 C519 1.325 . S
N521 C520 1.261 . S
C522 H492 0.931 . S
C522 C519 1.357 . S
C522 C523 1.312 . S
C523 H494 0.930 . S
C523 C518 1.261 . S
C523 C522 1.312 . S
C524 O496 1.214 . S
C524 O504 1.234 . S
C525 H497 0.929 . S
C525 C528 1.391 . S
C525 C530 1.391 . S
C526 H498 0.929 . S
C526 C527 1.390 . S
C526 N529 1.391 . S
C527 H499 0.930 . S
C527 C526 1.390 . S
C527 C528 1.392 . S
C528 H500 0.929 . S
C528 C525 1.391 . S
C528 C527 1.392 . S
N529 Co473 2.257 . S
N529 C526 1.391 . S
N529 C530 1.388 . S
C530 H501 0.930 . S
C530 C525 1.391 . S
C530 N529 1.388 . S
Co531 O533 2.143 . S
Co531 O539 2.074 . S
Co531 O542 2.093 . S
Co531 O555 2.097 . S
Co531 N572 2.151 . S
Co531 N580 2.214 . S
Co532 O533 2.160 . S
Co532 O538 2.058 . S
Co532 O548 2.057 . S
Co532 O563 2.037 . S
Co532 N567 2.145 . S
Co532 N588 2.257 . S
O533 Co531 2.143 . S
O533 Co532 2.160 . S
C534 O535 1.278 . S
C534 O542 1.224 . S
O535 C534 1.278 . S
C536 O537 1.245 . S
C536 O548 1.232 . S
O537 C536 1.245 . S
O538 Co532 2.058 . S
O538 C564 1.269 . S
O539 Co531 2.074 . S
O539 C564 1.257 . S
H540 C565 0.930 . S
H541 C571 0.930 . S
O542 Co531 2.093 . S
O542 C534 1.224 . S
H543 C575 0.929 . S
H544 C577 0.930 . S
H545 C578 0.930 . S
H546 C576 0.929 . S
H547 C579 0.928 . S
O548 Co532 2.057 . S
O548 C536 1.232 . S
H549 C568 0.929 . S
H550 C569 0.929 . S
H551 C581 0.931 . S
H552 C573 0.929 . S
H553 C582 0.930 . S
H554 C574 0.931 . S
O555 Co531 2.097 . S
O555 C583 1.214 . S
H556 C584 0.929 . S
H557 C585 0.929 . S
H558 C586 0.930 . S
H559 C587 0.929 . S
H560 C589 0.930 . S
H561 C566 0.930 . S
H562 C570 0.930 . S
O563 Co532 2.037 . S
O563 C583 1.234 . S
C564 O538 1.269 . S
C564 O539 1.257 . S
C565 H540 0.930 . S
C565 C568 1.388 . S
C565 C570 1.418 . S
C566 H561 0.930 . S
C566 C569 1.404 . S
C566 C570 1.353 . S
N567 Co532 2.145 . S
N567 C568 1.397 . S
N567 C569 1.334 . S
C568 H549 0.929 . S
C568 C565 1.388 . S
C568 N567 1.397 . S
C569 H550 0.929 . S
C569 C566 1.404 . S
C569 N567 1.334 . S
C570 H562 0.930 . S
C570 C565 1.418 . S
C570 C566 1.353 . S
C571 H541 0.930 . S
C571 N572 1.330 . S
C571 C573 1.446 . S
N572 Co531 2.151 . S
N572 C571 1.330 . S
N572 C576 1.418 . S
C573 H552 0.929 . S
C573 C571 1.446 . S
C573 C574 1.332 . S
C574 H554 0.931 . S
C574 C573 1.332 . S
C574 C575 1.267 . S
C575 H543 0.929 . S
C575 C574 1.267 . S
C575 C576 1.251 . S
C576 H546 0.929 . S
C576 N572 1.418 . S
C576 C575 1.251 . S
C577 H544 0.930 . S
C577 C579 1.406 . S
C577 C582 1.261 . S
C578 H545 0.930 . S
C578 N580 1.325 . S
C578 C581 1.357 . S
C579 H547 0.928 . S
C579 C577 1.406 . S
C579 N580 1.261 . S
N580 Co531 2.214 . S
N580 C578 1.325 . S
N580 C579 1.261 . S
C581 H551 0.931 . S
C581 C578 1.357 . S
C581 C582 1.312 . S
C582 H553 0.930 . S
C582 C577 1.261 . S
C582 C581 1.312 . S
C583 O555 1.214 . S
C583 O563 1.234 . S
C584 H556 0.929 . S
C584 C587 1.391 . S
C584 C589 1.391 . S
C585 H557 0.929 . S
C585 C586 1.390 . S
C585 N588 1.391 . S
C586 H558 0.930 . S
C586 C585 1.390 . S
C586 C587 1.392 . S
C587 H559 0.929 . S
C587 C584 1.391 . S
C587 C586 1.392 . S
N588 Co532 2.257 . S
N588 C585 1.391 . S
N588 C589 1.388 . S
C589 H560 0.930 . S
C589 C584 1.391 . S
C589 N588 1.388 . S
Co590 O592 2.143 . S
Co590 O598 2.074 . S
Co590 O601 2.093 . S
Co590 O614 2.097 . S
Co590 N631 2.151 . S
Co590 N639 2.214 . S
Co591 O592 2.160 . S
Co591 O597 2.058 . S
Co591 O607 2.057 . S
Co591 O622 2.037 . S
Co591 N626 2.145 . S
Co591 N647 2.257 . S
O592 Co590 2.143 . S
O592 Co591 2.160 . S
C593 O594 1.278 . S
C593 O601 1.224 . S
O594 C593 1.278 . S
C595 O596 1.245 . S
C595 O607 1.232 . S
O596 C595 1.245 . S
O597 Co591 2.058 . S
O597 C623 1.269 . S
O598 Co590 2.074 . S
O598 C623 1.257 . S
H599 C624 0.930 . S
H600 C630 0.930 . S
O601 Co590 2.093 . S
O601 C593 1.224 . S
H602 C634 0.929 . S
H603 C636 0.930 . S
H604 C637 0.930 . S
H605 C635 0.929 . S
H606 C638 0.928 . S
O607 Co591 2.057 . S
O607 C595 1.232 . S
H608 C627 0.929 . S
H609 C628 0.929 . S
H610 C640 0.931 . S
H611 C632 0.929 . S
H612 C641 0.930 . S
H613 C633 0.931 . S
O614 Co590 2.097 . S
O614 C642 1.214 . S
H615 C643 0.929 . S
H616 C644 0.929 . S
H617 C645 0.930 . S
H618 C646 0.929 . S
H619 C648 0.930 . S
H620 C625 0.930 . S
H621 C629 0.930 . S
O622 Co591 2.037 . S
O622 C642 1.234 . S
C623 O597 1.269 . S
C623 O598 1.257 . S
C624 H599 0.930 . S
C624 C627 1.388 . S
C624 C629 1.418 . S
C625 H620 0.930 . S
C625 C628 1.404 . S
C625 C629 1.353 . S
N626 Co591 2.145 . S
N626 C627 1.397 . S
N626 C628 1.334 . S
C627 H608 0.929 . S
C627 C624 1.388 . S
C627 N626 1.397 . S
C628 H609 0.929 . S
C628 C625 1.404 . S
C628 N626 1.334 . S
C629 H621 0.930 . S
C629 C624 1.418 . S
C629 C625 1.353 . S
C630 H600 0.930 . S
C630 N631 1.330 . S
C630 C632 1.446 . S
N631 Co590 2.151 . S
N631 C630 1.330 . S
N631 C635 1.418 . S
C632 H611 0.929 . S
C632 C630 1.446 . S
C632 C633 1.332 . S
C633 H613 0.931 . S
C633 C632 1.332 . S
C633 C634 1.267 . S
C634 H602 0.929 . S
C634 C633 1.267 . S
C634 C635 1.251 . S
C635 H605 0.929 . S
C635 N631 1.418 . S
C635 C634 1.251 . S
C636 H603 0.930 . S
C636 C638 1.406 . S
C636 C641 1.261 . S
C637 H604 0.930 . S
C637 N639 1.325 . S
C637 C640 1.357 . S
C638 H606 0.928 . S
C638 C636 1.406 . S
C638 N639 1.261 . S
N639 Co590 2.214 . S
N639 C637 1.325 . S
N639 C638 1.261 . S
C640 H610 0.931 . S
C640 C637 1.357 . S
C640 C641 1.312 . S
C641 H612 0.930 . S
C641 C636 1.261 . S
C641 C640 1.312 . S
C642 O614 1.214 . S
C642 O622 1.234 . S
C643 H615 0.929 . S
C643 C646 1.391 . S
C643 C648 1.391 . S
C644 H616 0.929 . S
C644 C645 1.390 . S
C644 N647 1.391 . S
C645 H617 0.930 . S
C645 C644 1.390 . S
C645 C646 1.392 . S
C646 H618 0.929 . S
C646 C643 1.391 . S
C646 C645 1.392 . S
N647 Co591 2.257 . S
N647 C644 1.391 . S
N647 C648 1.388 . S
C648 H619 0.930 . S
C648 C643 1.391 . S
C648 N647 1.388 . S
Co649 O651 2.143 . S
Co649 O657 2.074 . S
Co649 O660 2.093 . S
Co649 O673 2.097 . S
Co649 N690 2.151 . S
Co649 N698 2.214 . S
Co650 O651 2.160 . S
Co650 O656 2.058 . S
Co650 O666 2.057 . S
Co650 O681 2.037 . S
Co650 N685 2.145 . S
Co650 N706 2.257 . S
O651 Co649 2.143 . S
O651 Co650 2.160 . S
C652 O653 1.278 . S
C652 O660 1.224 . S
O653 C652 1.278 . S
C654 O655 1.245 . S
C654 O666 1.232 . S
O655 C654 1.245 . S
O656 Co650 2.058 . S
O656 C682 1.269 . S
O657 Co649 2.074 . S
O657 C682 1.257 . S
H658 C683 0.930 . S
H659 C689 0.930 . S
O660 Co649 2.093 . S
O660 C652 1.224 . S
H661 C693 0.929 . S
H662 C695 0.930 . S
H663 C696 0.930 . S
H664 C694 0.929 . S
H665 C697 0.928 . S
O666 Co650 2.057 . S
O666 C654 1.232 . S
H667 C686 0.929 . S
H668 C687 0.929 . S
H669 C699 0.931 . S
H670 C691 0.929 . S
H671 C700 0.930 . S
H672 C692 0.931 . S
O673 Co649 2.097 . S
O673 C701 1.214 . S
H674 C702 0.929 . S
H675 C703 0.929 . S
H676 C704 0.930 . S
H677 C705 0.929 . S
H678 C707 0.930 . S
H679 C684 0.930 . S
H680 C688 0.930 . S
O681 Co650 2.037 . S
O681 C701 1.234 . S
C682 O656 1.269 . S
C682 O657 1.257 . S
C683 H658 0.930 . S
C683 C686 1.388 . S
C683 C688 1.418 . S
C684 H679 0.930 . S
C684 C687 1.404 . S
C684 C688 1.353 . S
N685 Co650 2.145 . S
N685 C686 1.397 . S
N685 C687 1.334 . S
C686 H667 0.929 . S
C686 C683 1.388 . S
C686 N685 1.397 . S
C687 H668 0.929 . S
C687 C684 1.404 . S
C687 N685 1.334 . S
C688 H680 0.930 . S
C688 C683 1.418 . S
C688 C684 1.353 . S
C689 H659 0.930 . S
C689 N690 1.330 . S
C689 C691 1.446 . S
N690 Co649 2.151 . S
N690 C689 1.330 . S
N690 C694 1.418 . S
C691 H670 0.929 . S
C691 C689 1.446 . S
C691 C692 1.332 . S
C692 H672 0.931 . S
C692 C691 1.332 . S
C692 C693 1.267 . S
C693 H661 0.929 . S
C693 C692 1.267 . S
C693 C694 1.251 . S
C694 H664 0.929 . S
C694 N690 1.418 . S
C694 C693 1.251 . S
C695 H662 0.930 . S
C695 C697 1.406 . S
C695 C700 1.261 . S
C696 H663 0.930 . S
C696 N698 1.325 . S
C696 C699 1.357 . S
C697 H665 0.928 . S
C697 C695 1.406 . S
C697 N698 1.261 . S
N698 Co649 2.214 . S
N698 C696 1.325 . S
N698 C697 1.261 . S
C699 H669 0.931 . S
C699 C696 1.357 . S
C699 C700 1.312 . S
C700 H671 0.930 . S
C700 C695 1.261 . S
C700 C699 1.312 . S
C701 O673 1.214 . S
C701 O681 1.234 . S
C702 H674 0.929 . S
C702 C705 1.391 . S
C702 C707 1.391 . S
C703 H675 0.929 . S
C703 C704 1.390 . S
C703 N706 1.391 . S
C704 H676 0.930 . S
C704 C703 1.390 . S
C704 C705 1.392 . S
C705 H677 0.929 . S
C705 C702 1.391 . S
C705 C704 1.392 . S
N706 Co650 2.257 . S
N706 C703 1.391 . S
N706 C707 1.388 . S
C707 H678 0.930 . S
C707 C702 1.391 . S
C707 N706 1.388 . S
Co708 O710 2.143 . S
Co708 O716 2.074 . S
Co708 O719 2.093 . S
Co708 O732 2.097 . S
Co708 N749 2.151 . S
Co708 N757 2.214 . S
Co709 O710 2.160 . S
Co709 O715 2.058 . S
Co709 O725 2.057 . S
Co709 O740 2.037 . S
Co709 N744 2.145 . S
Co709 N765 2.257 . S
O710 Co708 2.143 . S
O710 Co709 2.160 . S
C711 O712 1.278 . S
C711 O719 1.224 . S
O712 C711 1.278 . S
C713 O714 1.245 . S
C713 O725 1.232 . S
O714 C713 1.245 . S
O715 Co709 2.058 . S
O715 C741 1.269 . S
O716 Co708 2.074 . S
O716 C741 1.257 . S
H717 C742 0.930 . S
H718 C748 0.930 . S
O719 Co708 2.093 . S
O719 C711 1.224 . S
H720 C752 0.929 . S
H721 C754 0.930 . S
H722 C755 0.930 . S
H723 C753 0.929 . S
H724 C756 0.928 . S
O725 Co709 2.057 . S
O725 C713 1.232 . S
H726 C745 0.929 . S
H727 C746 0.929 . S
H728 C758 0.931 . S
H729 C750 0.929 . S
H730 C759 0.930 . S
H731 C751 0.931 . S
O732 Co708 2.097 . S
O732 C760 1.214 . S
H733 C761 0.929 . S
H734 C762 0.929 . S
H735 C763 0.930 . S
H736 C764 0.929 . S
H737 C766 0.930 . S
H738 C743 0.930 . S
H739 C747 0.930 . S
O740 Co709 2.037 . S
O740 C760 1.234 . S
C741 O715 1.269 . S
C741 O716 1.257 . S
C742 H717 0.930 . S
C742 C745 1.388 . S
C742 C747 1.418 . S
C743 H738 0.930 . S
C743 C746 1.404 . S
C743 C747 1.353 . S
N744 Co709 2.145 . S
N744 C745 1.397 . S
N744 C746 1.334 . S
C745 H726 0.929 . S
C745 C742 1.388 . S
C745 N744 1.397 . S
C746 H727 0.929 . S
C746 C743 1.404 . S
C746 N744 1.334 . S
C747 H739 0.930 . S
C747 C742 1.418 . S
C747 C743 1.353 . S
C748 H718 0.930 . S
C748 N749 1.330 . S
C748 C750 1.446 . S
N749 Co708 2.151 . S
N749 C748 1.330 . S
N749 C753 1.418 . S
C750 H729 0.929 . S
C750 C748 1.446 . S
C750 C751 1.332 . S
C751 H731 0.931 . S
C751 C750 1.332 . S
C751 C752 1.267 . S
C752 H720 0.929 . S
C752 C751 1.267 . S
C752 C753 1.251 . S
C753 H723 0.929 . S
C753 N749 1.418 . S
C753 C752 1.251 . S
C754 H721 0.930 . S
C754 C756 1.406 . S
C754 C759 1.261 . S
C755 H722 0.930 . S
C755 N757 1.325 . S
C755 C758 1.357 . S
C756 H724 0.928 . S
C756 C754 1.406 . S
C756 N757 1.261 . S
N757 Co708 2.214 . S
N757 C755 1.325 . S
N757 C756 1.261 . S
C758 H728 0.931 . S
C758 C755 1.357 . S
C758 C759 1.312 . S
C759 H730 0.930 . S
C759 C754 1.261 . S
C759 C758 1.312 . S
C760 O732 1.214 . S
C760 O740 1.234 . S
C761 H733 0.929 . S
C761 C764 1.391 . S
C761 C766 1.391 . S
C762 H734 0.929 . S
C762 C763 1.390 . S
C762 N765 1.391 . S
C763 H735 0.930 . S
C763 C762 1.390 . S
C763 C764 1.392 . S
C764 H736 0.929 . S
C764 C761 1.391 . S
C764 C763 1.392 . S
N765 Co709 2.257 . S
N765 C762 1.391 . S
N765 C766 1.388 . S
C766 H737 0.930 . S
C766 C761 1.391 . S
C766 N765 1.388 . S
Co767 O769 2.143 . S
Co767 O775 2.074 . S
Co767 O778 2.093 . S
Co767 O791 2.097 . S
Co767 N808 2.151 . S
Co767 N816 2.214 . S
Co768 O769 2.160 . S
Co768 O774 2.058 . S
Co768 O784 2.057 . S
Co768 O799 2.037 . S
Co768 N803 2.145 . S
Co768 N824 2.257 . S
O769 Co767 2.143 . S
O769 Co768 2.160 . S
C770 O771 1.278 . S
C770 O778 1.224 . S
O771 C770 1.278 . S
C772 O773 1.245 . S
C772 O784 1.232 . S
O773 C772 1.245 . S
O774 Co768 2.058 . S
O774 C800 1.269 . S
O775 Co767 2.074 . S
O775 C800 1.257 . S
H776 C801 0.930 . S
H777 C807 0.930 . S
O778 Co767 2.093 . S
O778 C770 1.224 . S
H779 C811 0.929 . S
H780 C813 0.930 . S
H781 C814 0.930 . S
H782 C812 0.929 . S
H783 C815 0.928 . S
O784 Co768 2.057 . S
O784 C772 1.232 . S
H785 C804 0.929 . S
H786 C805 0.929 . S
H787 C817 0.931 . S
H788 C809 0.929 . S
H789 C818 0.930 . S
H790 C810 0.931 . S
O791 Co767 2.097 . S
O791 C819 1.214 . S
H792 C820 0.929 . S
H793 C821 0.929 . S
H794 C822 0.930 . S
H795 C823 0.929 . S
H796 C825 0.930 . S
H797 C802 0.930 . S
H798 C806 0.930 . S
O799 Co768 2.037 . S
O799 C819 1.234 . S
C800 O774 1.269 . S
C800 O775 1.257 . S
C801 H776 0.930 . S
C801 C804 1.388 . S
C801 C806 1.418 . S
C802 H797 0.930 . S
C802 C805 1.404 . S
C802 C806 1.353 . S
N803 Co768 2.145 . S
N803 C804 1.397 . S
N803 C805 1.334 . S
C804 H785 0.929 . S
C804 C801 1.388 . S
C804 N803 1.397 . S
C805 H786 0.929 . S
C805 C802 1.404 . S
C805 N803 1.334 . S
C806 H798 0.930 . S
C806 C801 1.418 . S
C806 C802 1.353 . S
C807 H777 0.930 . S
C807 N808 1.330 . S
C807 C809 1.446 . S
N808 Co767 2.151 . S
N808 C807 1.330 . S
N808 C812 1.418 . S
C809 H788 0.929 . S
C809 C807 1.446 . S
C809 C810 1.332 . S
C810 H790 0.931 . S
C810 C809 1.332 . S
C810 C811 1.267 . S
C811 H779 0.929 . S
C811 C810 1.267 . S
C811 C812 1.251 . S
C812 H782 0.929 . S
C812 N808 1.418 . S
C812 C811 1.251 . S
C813 H780 0.930 . S
C813 C815 1.406 . S
C813 C818 1.261 . S
C814 H781 0.930 . S
C814 N816 1.325 . S
C814 C817 1.357 . S
C815 H783 0.928 . S
C815 C813 1.406 . S
C815 N816 1.261 . S
N816 Co767 2.214 . S
N816 C814 1.325 . S
N816 C815 1.261 . S
C817 H787 0.931 . S
C817 C814 1.357 . S
C817 C818 1.312 . S
C818 H789 0.930 . S
C818 C813 1.261 . S
C818 C817 1.312 . S
C819 O791 1.214 . S
C819 O799 1.234 . S
C820 H792 0.929 . S
C820 C823 1.391 . S
C820 C825 1.391 . S
C821 H793 0.929 . S
C821 C822 1.390 . S
C821 N824 1.391 . S
C822 H794 0.930 . S
C822 C821 1.390 . S
C822 C823 1.392 . S
C823 H795 0.929 . S
C823 C820 1.391 . S
C823 C822 1.392 . S
N824 Co768 2.257 . S
N824 C821 1.391 . S
N824 C825 1.388 . S
C825 H796 0.930 . S
C825 C820 1.391 . S
C825 N824 1.388 . S
Co826 O828 2.143 . S
Co826 O834 2.074 . S
Co826 O837 2.093 . S
Co826 O850 2.097 . S
Co826 N867 2.151 . S
Co826 N875 2.214 . S
Co827 O828 2.160 . S
Co827 O833 2.058 . S
Co827 O843 2.057 . S
Co827 O858 2.037 . S
Co827 N862 2.145 . S
Co827 N883 2.257 . S
O828 Co826 2.143 . S
O828 Co827 2.160 . S
C829 O830 1.278 . S
C829 O837 1.224 . S
O830 C829 1.278 . S
C831 O832 1.245 . S
C831 O843 1.232 . S
O832 C831 1.245 . S
O833 Co827 2.058 . S
O833 C859 1.269 . S
O834 Co826 2.074 . S
O834 C859 1.257 . S
H835 C860 0.930 . S
H836 C866 0.930 . S
O837 Co826 2.093 . S
O837 C829 1.224 . S
H838 C870 0.929 . S
H839 C872 0.930 . S
H840 C873 0.930 . S
H841 C871 0.929 . S
H842 C874 0.928 . S
O843 Co827 2.057 . S
O843 C831 1.232 . S
H844 C863 0.929 . S
H845 C864 0.929 . S
H846 C876 0.931 . S
H847 C868 0.929 . S
H848 C877 0.930 . S
H849 C869 0.931 . S
O850 Co826 2.097 . S
O850 C878 1.214 . S
H851 C879 0.929 . S
H852 C880 0.929 . S
H853 C881 0.930 . S
H854 C882 0.929 . S
H855 C884 0.930 . S
H856 C861 0.930 . S
H857 C865 0.930 . S
O858 Co827 2.037 . S
O858 C878 1.234 . S
C859 O833 1.269 . S
C859 O834 1.257 . S
C860 H835 0.930 . S
C860 C863 1.388 . S
C860 C865 1.418 . S
C861 H856 0.930 . S
C861 C864 1.404 . S
C861 C865 1.353 . S
N862 Co827 2.145 . S
N862 C863 1.397 . S
N862 C864 1.334 . S
C863 H844 0.929 . S
C863 C860 1.388 . S
C863 N862 1.397 . S
C864 H845 0.929 . S
C864 C861 1.404 . S
C864 N862 1.334 . S
C865 H857 0.930 . S
C865 C860 1.418 . S
C865 C861 1.353 . S
C866 H836 0.930 . S
C866 N867 1.330 . S
C866 C868 1.446 . S
N867 Co826 2.151 . S
N867 C866 1.330 . S
N867 C871 1.418 . S
C868 H847 0.929 . S
C868 C866 1.446 . S
C868 C869 1.332 . S
C869 H849 0.931 . S
C869 C868 1.332 . S
C869 C870 1.267 . S
C870 H838 0.929 . S
C870 C869 1.267 . S
C870 C871 1.251 . S
C871 H841 0.929 . S
C871 N867 1.418 . S
C871 C870 1.251 . S
C872 H839 0.930 . S
C872 C874 1.406 . S
C872 C877 1.261 . S
C873 H840 0.930 . S
C873 N875 1.325 . S
C873 C876 1.357 . S
C874 H842 0.928 . S
C874 C872 1.406 . S
C874 N875 1.261 . S
N875 Co826 2.214 . S
N875 C873 1.325 . S
N875 C874 1.261 . S
C876 H846 0.931 . S
C876 C873 1.357 . S
C876 C877 1.312 . S
C877 H848 0.930 . S
C877 C872 1.261 . S
C877 C876 1.312 . S
C878 O850 1.214 . S
C878 O858 1.234 . S
C879 H851 0.929 . S
C879 C882 1.391 . S
C879 C884 1.391 . S
C880 H852 0.929 . S
C880 C881 1.390 . S
C880 N883 1.391 . S
C881 H853 0.930 . S
C881 C880 1.390 . S
C881 C882 1.392 . S
C882 H854 0.929 . S
C882 C879 1.391 . S
C882 C881 1.392 . S
N883 Co827 2.257 . S
N883 C880 1.391 . S
N883 C884 1.388 . S
C884 H855 0.930 . S
C884 C879 1.391 . S
C884 N883 1.388 . S
Co885 O887 2.143 . S
Co885 O893 2.074 . S
Co885 O896 2.093 . S
Co885 O909 2.097 . S
Co885 N926 2.151 . S
Co885 N934 2.214 . S
Co886 O887 2.160 . S
Co886 O892 2.058 . S
Co886 O902 2.057 . S
Co886 O917 2.037 . S
Co886 N921 2.145 . S
Co886 N942 2.257 . S
O887 Co885 2.143 . S
O887 Co886 2.160 . S
C888 O889 1.278 . S
C888 O896 1.224 . S
O889 C888 1.278 . S
C890 O891 1.245 . S
C890 O902 1.232 . S
O891 C890 1.245 . S
O892 Co886 2.058 . S
O892 C918 1.269 . S
O893 Co885 2.074 . S
O893 C918 1.257 . S
H894 C919 0.930 . S
H895 C925 0.930 . S
O896 Co885 2.093 . S
O896 C888 1.224 . S
H897 C929 0.929 . S
H898 C931 0.930 . S
H899 C932 0.930 . S
H900 C930 0.929 . S
H901 C933 0.928 . S
O902 Co886 2.057 . S
O902 C890 1.232 . S
H903 C922 0.929 . S
H904 C923 0.929 . S
H905 C935 0.931 . S
H906 C927 0.929 . S
H907 C936 0.930 . S
H908 C928 0.931 . S
O909 Co885 2.097 . S
O909 C937 1.214 . S
H910 C938 0.929 . S
H911 C939 0.929 . S
H912 C940 0.930 . S
H913 C941 0.929 . S
H914 C943 0.930 . S
H915 C920 0.930 . S
H916 C924 0.930 . S
O917 Co886 2.037 . S
O917 C937 1.234 . S
C918 O892 1.269 . S
C918 O893 1.257 . S
C919 H894 0.930 . S
C919 C922 1.388 . S
C919 C924 1.418 . S
C920 H915 0.930 . S
C920 C923 1.404 . S
C920 C924 1.353 . S
N921 Co886 2.145 . S
N921 C922 1.397 . S
N921 C923 1.334 . S
C922 H903 0.929 . S
C922 C919 1.388 . S
C922 N921 1.397 . S
C923 H904 0.929 . S
C923 C920 1.404 . S
C923 N921 1.334 . S
C924 H916 0.930 . S
C924 C919 1.418 . S
C924 C920 1.353 . S
C925 H895 0.930 . S
C925 N926 1.330 . S
C925 C927 1.446 . S
N926 Co885 2.151 . S
N926 C925 1.330 . S
N926 C930 1.418 . S
C927 H906 0.929 . S
C927 C925 1.446 . S
C927 C928 1.332 . S
C928 H908 0.931 . S
C928 C927 1.332 . S
C928 C929 1.267 . S
C929 H897 0.929 . S
C929 C928 1.267 . S
C929 C930 1.251 . S
C930 H900 0.929 . S
C930 N926 1.418 . S
C930 C929 1.251 . S
C931 H898 0.930 . S
C931 C933 1.406 . S
C931 C936 1.261 . S
C932 H899 0.930 . S
C932 N934 1.325 . S
C932 C935 1.357 . S
C933 H901 0.928 . S
C933 C931 1.406 . S
C933 N934 1.261 . S
N934 Co885 2.214 . S
N934 C932 1.325 . S
N934 C933 1.261 . S
C935 H905 0.931 . S
C935 C932 1.357 . S
C935 C936 1.312 . S
C936 H907 0.930 . S
C936 C931 1.261 . S
C936 C935 1.312 . S
C937 O909 1.214 . S
C937 O917 1.234 . S
C938 H910 0.929 . S
C938 C941 1.391 . S
C938 C943 1.391 . S
C939 H911 0.929 . S
C939 C940 1.390 . S
C939 N942 1.391 . S
C940 H912 0.930 . S
C940 C939 1.390 . S
C940 C941 1.392 . S
C941 H913 0.929 . S
C941 C938 1.391 . S
C941 C940 1.392 . S
N942 Co886 2.257 . S
N942 C939 1.391 . S
N942 C943 1.388 . S
C943 H914 0.930 . S
C943 C938 1.391 . S
C943 N942 1.388 . S
H944 C956 0.930 . S
H945 C958 0.930 . S
H946 C959 0.930 . S
H947 C963 0.959 . S
H948 C963 0.959 . S
H949 C963 0.961 . S
H950 C964 0.960 . S
H951 C964 0.961 . S
H952 C964 0.959 . S
H953 C967 0.929 . S
H954 C968 0.931 . S
H955 C970 0.930 . S
C956 H944 0.930 . S
C956 C957 1.399 . S
C956 C961 1.399 . S
C957 C956 1.399 . S
C957 C958 1.376 1_545 S
C958 H945 0.930 . S
C958 C957 1.376 1_565 S
C958 C959 1.388 . S
C959 H946 0.930 . S
C959 C958 1.388 . S
C959 C960 1.390 1_565 S
C960 C959 1.390 1_545 S
C960 C961 1.394 . S
C960 C966 1.465 . S
C961 C956 1.399 . S
C961 C960 1.394 . S
C961 C962 1.516 . S
C962 C961 1.516 . S
C962 C963 1.502 . S
C962 C964 1.561 . S
C962 C965 1.526 . S
C963 H947 0.959 . S
C963 H948 0.959 . S
C963 H949 0.961 . S
C963 C962 1.502 . S
C964 H950 0.960 . S
C964 H951 0.961 . S
C964 H952 0.959 . S
C964 C962 1.561 . S
C965 C962 1.526 . S
C965 C966 1.396 . S
C965 C970 1.390 . S
C966 C960 1.465 . S
C966 C965 1.396 . S
C966 C967 1.399 1_545 S
C967 H953 0.929 . S
C967 C966 1.399 1_565 S
C967 C968 1.385 . S
C968 H954 0.931 . S
C968 C967 1.385 . S
C968 C969 1.389 1_565 S
C969 C968 1.389 1_545 S
C969 C970 1.387 . S
C970 H955 0.930 . S
C970 C965 1.390 . S
C970 C969 1.387 . S
H971 C983 0.930 . S
H972 C985 0.930 . S
H973 C986 0.930 . S
H974 C990 0.959 . S
H975 C990 0.959 . S
H976 C990 0.961 . S
H977 C991 0.960 . S
H978 C991 0.961 . S
H979 C991 0.959 . S
H980 C994 0.929 . S
H981 C995 0.931 . S
H982 C997 0.930 . S
C983 H971 0.930 . S
C983 C984 1.399 . S
C983 C988 1.399 . S
C984 C983 1.399 . S
C984 C985 1.376 1_565 S
C985 H972 0.930 . S
C985 C984 1.376 1_545 S
C985 C986 1.388 . S
C986 H973 0.930 . S
C986 C985 1.388 . S
C986 C987 1.390 1_545 S
C987 C986 1.390 1_565 S
C987 C988 1.394 . S
C987 C993 1.465 . S
C988 C983 1.399 . S
C988 C987 1.394 . S
C988 C989 1.516 . S
C989 C988 1.516 . S
C989 C990 1.502 . S
C989 C991 1.561 . S
C989 C992 1.526 . S
C990 H974 0.959 . S
C990 H975 0.959 . S
C990 H976 0.961 . S
C990 C989 1.502 . S
C991 H977 0.960 . S
C991 H978 0.961 . S
C991 H979 0.959 . S
C991 C989 1.561 . S
C992 C989 1.526 . S
C992 C993 1.396 . S
C992 C997 1.390 . S
C993 C987 1.465 . S
C993 C992 1.396 . S
C993 C994 1.399 1_565 S
C994 H980 0.929 . S
C994 C993 1.399 1_545 S
C994 C995 1.385 . S
C995 H981 0.931 . S
C995 C994 1.385 . S
C995 C996 1.389 1_545 S
C996 C995 1.389 1_565 S
C996 C997 1.387 . S
C997 H982 0.930 . S
C997 C992 1.390 . S
C997 C996 1.387 . S
H998 C1010 0.930 . S
H999 C1012 0.930 . S
H1000 C1013 0.930 . S
H1001 C1017 0.962 . S
H1002 C1017 0.979 . S
H1003 C1017 0.940 1_554 S
H1004 C1018 0.958 1_554 S
H1005 C1018 0.963 . S
H1006 C1018 0.959 . S
H1007 C1021 0.929 . S
H1008 C1022 0.931 . S
H1009 C1024 0.930 . S
C1010 H998 0.930 . S
C1010 C1011 1.399 . S
C1010 C1015 1.399 . S
C1011 C1010 1.399 . S
C1011 C1012 1.376 1_565 S
C1012 H999 0.930 . S
C1012 C1011 1.376 1_545 S
C1012 C1013 1.388 . S
C1013 H1000 0.930 . S
C1013 C1012 1.388 . S
C1013 C1014 1.390 1_545 S
C1014 C1013 1.390 1_565 S
C1014 C1015 1.394 . S
C1014 C1020 1.465 1_554 S
C1015 C1010 1.399 . S
C1015 C1014 1.394 . S
C1015 C1016 1.517 1_554 S
C1016 C1015 1.517 1_556 S
C1016 C1017 1.502 . S
C1016 C1018 1.561 . S
C1016 C1019 1.525 . S
C1017 H1001 0.962 . S
C1017 H1002 0.979 . S
C1017 H1003 0.940 1_556 S
C1017 C1016 1.502 . S
C1018 H1004 0.958 1_556 S
C1018 H1005 0.963 . S
C1018 H1006 0.959 . S
C1018 C1016 1.561 . S
C1019 C1016 1.525 . S
C1019 C1020 1.396 . S
C1019 C1024 1.390 . S
C1020 C1014 1.465 1_556 S
C1020 C1019 1.396 . S
C1020 C1021 1.399 1_565 S
C1021 H1007 0.929 . S
C1021 C1020 1.399 1_545 S
C1021 C1022 1.385 . S
C1022 H1008 0.931 . S
C1022 C1021 1.385 . S
C1022 C1023 1.389 1_545 S
C1023 C1022 1.389 1_565 S
C1023 C1024 1.387 . S
C1024 H1009 0.930 . S
C1024 C1019 1.390 . S
C1024 C1023 1.387 . S
H1025 C1037 0.930 . S
H1026 C1039 0.930 . S
H1027 C1040 0.930 . S
H1028 C1044 0.962 . S
H1029 C1044 0.979 . S
H1030 C1044 0.940 1_556 S
H1031 C1045 0.958 1_556 S
H1032 C1045 0.963 . S
H1033 C1045 0.959 . S
H1034 C1048 0.929 . S
H1035 C1049 0.931 . S
H1036 C1051 0.930 . S
C1037 H1025 0.930 . S
C1037 C1038 1.399 . S
C1037 C1042 1.399 . S
C1038 C1037 1.399 . S
C1038 C1039 1.376 1_545 S
C1039 H1026 0.930 . S
C1039 C1038 1.376 1_565 S
C1039 C1040 1.388 . S
C1040 H1027 0.930 . S
C1040 C1039 1.388 . S
C1040 C1041 1.390 1_565 S
C1041 C1040 1.390 1_545 S
C1041 C1042 1.394 . S
C1041 C1047 1.465 1_556 S
C1042 C1037 1.399 . S
C1042 C1041 1.394 . S
C1042 C1043 1.517 1_556 S
C1043 C1042 1.517 1_554 S
C1043 C1044 1.502 . S
C1043 C1045 1.561 . S
C1043 C1046 1.525 . S
C1044 H1028 0.962 . S
C1044 H1029 0.979 . S
C1044 H1030 0.940 1_554 S
C1044 C1043 1.502 . S
C1045 H1031 0.958 1_554 S
C1045 H1032 0.963 . S
C1045 H1033 0.959 . S
C1045 C1043 1.561 . S
C1046 C1043 1.525 . S
C1046 C1047 1.396 . S
C1046 C1051 1.390 . S
C1047 C1041 1.465 1_554 S
C1047 C1046 1.396 . S
C1047 C1048 1.399 1_545 S
C1048 H1034 0.929 . S
C1048 C1047 1.399 1_565 S
C1048 C1049 1.385 . S
C1049 H1035 0.931 . S
C1049 C1048 1.385 . S
C1049 C1050 1.389 1_565 S
C1050 C1049 1.389 1_545 S
C1050 C1051 1.387 . S
C1051 H1036 0.930 . S
C1051 C1046 1.390 . S
C1051 C1050 1.387 . S
H1052 C1064 0.930 . S
H1053 C1066 0.930 . S
H1054 C1067 0.930 . S
H1055 C1071 0.959 . S
H1056 C1071 0.959 . S
H1057 C1071 0.961 . S
H1058 C1072 0.960 . S
H1059 C1072 0.961 . S
H1060 C1072 0.959 . S
H1061 C1075 0.929 . S
H1062 C1076 0.931 . S
H1063 C1078 0.930 . S
C1064 H1052 0.930 . S
C1064 C1065 1.399 . S
C1064 C1069 1.399 . S
C1065 C1064 1.399 . S
C1065 C1066 1.376 . S
C1066 H1053 0.930 . S
C1066 C1065 1.376 . S
C1066 C1067 1.388 . S
C1067 H1054 0.930 . S
C1067 C1066 1.388 . S
C1067 C1068 1.390 . S
C1068 C1067 1.390 . S
C1068 C1069 1.394 . S
C1068 C1074 1.465 . S
C1069 C1064 1.399 . S
C1069 C1068 1.394 . S
C1069 C1070 1.516 . S
C1070 C1069 1.516 . S
C1070 C1071 1.502 . S
C1070 C1072 1.561 . S
C1070 C1073 1.526 . S
C1071 H1055 0.959 . S
C1071 H1056 0.959 . S
C1071 H1057 0.961 . S
C1071 C1070 1.502 . S
C1072 H1058 0.960 . S
C1072 H1059 0.961 . S
C1072 H1060 0.959 . S
C1072 C1070 1.561 . S
C1073 C1070 1.526 . S
C1073 C1074 1.396 . S
C1073 C1078 1.390 . S
C1074 C1068 1.465 . S
C1074 C1073 1.396 . S
C1074 C1075 1.399 . S
C1075 H1061 0.929 . S
C1075 C1074 1.399 . S
C1075 C1076 1.385 . S
C1076 H1062 0.931 . S
C1076 C1075 1.385 . S
C1076 C1077 1.389 . S
C1077 C1076 1.389 . S
C1077 C1078 1.387 . S
C1078 H1063 0.930 . S
C1078 C1073 1.390 . S
C1078 C1077 1.387 . S
H1079 C1091 0.930 . S
H1080 C1093 0.930 . S
H1081 C1094 0.930 . S
H1082 C1098 0.959 . S
H1083 C1098 0.959 . S
H1084 C1098 0.961 . S
H1085 C1099 0.960 . S
H1086 C1099 0.961 . S
H1087 C1099 0.959 . S
H1088 C1102 0.929 . S
H1089 C1103 0.931 . S
H1090 C1105 0.930 . S
C1091 H1079 0.930 . S
C1091 C1092 1.399 . S
C1091 C1096 1.399 . S
C1092 C1091 1.399 . S
C1092 C1093 1.376 . S
C1093 H1080 0.930 . S
C1093 C1092 1.376 . S
C1093 C1094 1.388 . S
C1094 H1081 0.930 . S
C1094 C1093 1.388 . S
C1094 C1095 1.390 . S
C1095 C1094 1.390 . S
C1095 C1096 1.394 . S
C1095 C1101 1.465 . S
C1096 C1091 1.399 . S
C1096 C1095 1.394 . S
C1096 C1097 1.516 . S
C1097 C1096 1.516 . S
C1097 C1098 1.502 . S
C1097 C1099 1.561 . S
C1097 C1100 1.526 . S
C1098 H1082 0.959 . S
C1098 H1083 0.959 . S
C1098 H1084 0.961 . S
C1098 C1097 1.502 . S
C1099 H1085 0.960 . S
C1099 H1086 0.961 . S
C1099 H1087 0.959 . S
C1099 C1097 1.561 . S
C1100 C1097 1.526 . S
C1100 C1101 1.396 . S
C1100 C1105 1.390 . S
C1101 C1095 1.465 . S
C1101 C1100 1.396 . S
C1101 C1102 1.399 . S
C1102 H1088 0.929 . S
C1102 C1101 1.399 . S
C1102 C1103 1.385 . S
C1103 H1089 0.931 . S
C1103 C1102 1.385 . S
C1103 C1104 1.389 . S
C1104 C1103 1.389 . S
C1104 C1105 1.387 . S
C1105 H1090 0.930 . S
C1105 C1100 1.390 . S
C1105 C1104 1.387 . S
H1106 C1118 0.930 . S
H1107 C1120 0.930 . S
H1108 C1121 0.930 . S
H1109 C1125 0.962 . S
H1110 C1125 0.979 . S
H1111 C1125 0.940 1_556 S
H1112 C1126 0.958 1_556 S
H1113 C1126 0.963 . S
H1114 C1126 0.959 . S
H1115 C1129 0.929 . S
H1116 C1130 0.931 . S
H1117 C1132 0.930 . S
C1118 H1106 0.930 . S
C1118 C1119 1.399 . S
C1118 C1123 1.399 . S
C1119 C1118 1.399 . S
C1119 C1120 1.376 . S
C1120 H1107 0.930 . S
C1120 C1119 1.376 . S
C1120 C1121 1.388 . S
C1121 H1108 0.930 . S
C1121 C1120 1.388 . S
C1121 C1122 1.390 . S
C1122 C1121 1.390 . S
C1122 C1123 1.394 . S
C1122 C1128 1.465 1_556 S
C1123 C1118 1.399 . S
C1123 C1122 1.394 . S
C1123 C1124 1.517 1_556 S
C1124 C1123 1.517 1_554 S
C1124 C1125 1.502 . S
C1124 C1126 1.561 . S
C1124 C1127 1.525 . S
C1125 H1109 0.962 . S
C1125 H1110 0.979 . S
C1125 H1111 0.940 1_554 S
C1125 C1124 1.502 . S
C1126 H1112 0.958 1_554 S
C1126 H1113 0.963 . S
C1126 H1114 0.959 . S
C1126 C1124 1.561 . S
C1127 C1124 1.525 . S
C1127 C1128 1.396 . S
C1127 C1132 1.390 . S
C1128 C1122 1.465 1_554 S
C1128 C1127 1.396 . S
C1128 C1129 1.399 . S
C1129 H1115 0.929 . S
C1129 C1128 1.399 . S
C1129 C1130 1.385 . S
C1130 H1116 0.931 . S
C1130 C1129 1.385 . S
C1130 C1131 1.389 . S
C1131 C1130 1.389 . S
C1131 C1132 1.387 . S
C1132 H1117 0.930 . S
C1132 C1127 1.390 . S
C1132 C1131 1.387 . S
H1133 C1145 0.930 . S
H1134 C1147 0.930 . S
H1135 C1148 0.930 . S
H1136 C1152 0.962 . S
H1137 C1152 0.978 . S
H1138 C1152 0.940 1_554 S
H1139 C1153 0.958 1_554 S
H1140 C1153 0.963 . S
H1141 C1153 0.959 . S
H1142 C1156 0.929 . S
H1143 C1157 0.931 . S
H1144 C1159 0.930 . S
C1145 H1133 0.930 . S
C1145 C1146 1.399 . S
C1145 C1150 1.399 . S
C1146 C1145 1.399 . S
C1146 C1147 1.376 . S
C1147 H1134 0.930 . S
C1147 C1146 1.376 . S
C1147 C1148 1.388 . S
C1148 H1135 0.930 . S
C1148 C1147 1.388 . S
C1148 C1149 1.390 . S
C1149 C1148 1.390 . S
C1149 C1150 1.394 . S
C1149 C1155 1.465 1_554 S
C1150 C1145 1.399 . S
C1150 C1149 1.394 . S
C1150 C1151 1.517 1_554 S
C1151 C1150 1.517 1_556 S
C1151 C1152 1.502 . S
C1151 C1153 1.561 . S
C1151 C1154 1.525 . S
C1152 H1136 0.962 . S
C1152 H1137 0.978 . S
C1152 H1138 0.940 1_556 S
C1152 C1151 1.502 . S
C1153 H1139 0.958 1_556 S
C1153 H1140 0.963 . S
C1153 H1141 0.959 . S
C1153 C1151 1.561 . S
C1154 C1151 1.525 . S
C1154 C1155 1.396 . S
C1154 C1159 1.390 . S
C1155 C1149 1.465 1_556 S
C1155 C1154 1.396 . S
C1155 C1156 1.399 . S
C1156 H1142 0.929 . S
C1156 C1155 1.399 . S
C1156 C1157 1.385 . S
C1157 H1143 0.931 . S
C1157 C1156 1.385 . S
C1157 C1158 1.389 . S
C1158 C1157 1.389 . S
C1158 C1159 1.387 . S
C1159 H1144 0.930 . S
C1159 C1154 1.390 . S
C1159 C1158 1.387 . S
H1160 C1172 0.930 . S
H1161 C1174 0.930 . S
H1162 C1175 0.930 . S
H1163 C1179 0.959 . S
H1164 C1179 0.959 . S
H1165 C1179 0.961 . S
H1166 C1180 0.960 . S
H1167 C1180 0.961 . S
H1168 C1180 0.959 . S
H1169 C1183 0.929 . S
H1170 C1184 0.931 . S
H1171 C1186 0.930 . S
C1172 H1160 0.930 . S
C1172 C1173 1.399 . S
C1172 C1177 1.399 . S
C1173 C1172 1.399 . S
C1173 C1174 1.376 . S
C1174 H1161 0.930 . S
C1174 C1173 1.376 . S
C1174 C1175 1.388 . S
C1175 H1162 0.930 . S
C1175 C1174 1.388 . S
C1175 C1176 1.390 . S
C1176 C1175 1.390 . S
C1176 C1177 1.394 . S
C1176 C1182 1.465 . S
C1177 C1172 1.399 . S
C1177 C1176 1.394 . S
C1177 C1178 1.516 1_565 S
C1178 C1177 1.516 1_545 S
C1178 C1179 1.502 . S
C1178 C1180 1.561 1_545 S
C1178 C1181 1.526 . S
C1179 H1163 0.959 . S
C1179 H1164 0.959 . S
C1179 H1165 0.961 . S
C1179 C1178 1.502 . S
C1180 H1166 0.960 . S
C1180 H1167 0.961 . S
C1180 H1168 0.959 . S
C1180 C1178 1.561 1_565 S
C1181 C1178 1.526 . S
C1181 C1182 1.396 1_545 S
C1181 C1186 1.390 . S
C1182 C1176 1.465 . S
C1182 C1181 1.396 1_565 S
C1182 C1183 1.399 . S
C1183 H1169 0.929 . S
C1183 C1182 1.399 . S
C1183 C1184 1.385 1_565 S
C1184 H1170 0.931 . S
C1184 C1183 1.385 1_545 S
C1184 C1185 1.389 . S
C1185 C1184 1.389 . S
C1185 C1186 1.387 . S
C1186 H1171 0.930 . S
C1186 C1181 1.390 . S
C1186 C1185 1.387 . S
H1187 C1199 0.930 . S
H1188 C1201 0.930 . S
H1189 C1202 0.930 . S
H1190 C1206 0.959 . S
H1191 C1206 0.959 . S
H1192 C1206 0.961 . S
H1193 C1207 0.960 . S
H1194 C1207 0.961 . S
H1195 C1207 0.959 . S
H1196 C1210 0.929 . S
H1197 C1211 0.931 . S
H1198 C1213 0.930 . S
C1199 H1187 0.930 . S
C1199 C1200 1.399 . S
C1199 C1204 1.399 . S
C1200 C1199 1.399 . S
C1200 C1201 1.376 . S
C1201 H1188 0.930 . S
C1201 C1200 1.376 . S
C1201 C1202 1.388 . S
C1202 H1189 0.930 . S
C1202 C1201 1.388 . S
C1202 C1203 1.390 . S
C1203 C1202 1.390 . S
C1203 C1204 1.394 . S
C1203 C1209 1.465 1_565 S
C1204 C1199 1.399 . S
C1204 C1203 1.394 . S
C1204 C1205 1.516 1_565 S
C1205 C1204 1.516 1_545 S
C1205 C1206 1.502 1_545 S
C1205 C1207 1.561 . S
C1205 C1208 1.526 . S
C1206 H1190 0.959 . S
C1206 H1191 0.959 . S
C1206 H1192 0.961 . S
C1206 C1205 1.502 1_565 S
C1207 H1193 0.960 . S
C1207 H1194 0.961 . S
C1207 H1195 0.959 . S
C1207 C1205 1.561 . S
C1208 C1205 1.526 . S
C1208 C1209 1.396 . S
C1208 C1213 1.390 . S
C1209 C1203 1.465 1_545 S
C1209 C1208 1.396 . S
C1209 C1210 1.399 . S
C1210 H1196 0.929 . S
C1210 C1209 1.399 . S
C1210 C1211 1.385 . S
C1211 H1197 0.931 . S
C1211 C1210 1.385 . S
C1211 C1212 1.389 . S
C1212 C1211 1.389 . S
C1212 C1213 1.387 . S
C1213 H1198 0.930 . S
C1213 C1208 1.390 . S
C1213 C1212 1.387 . S
H1214 C1226 0.930 . S
H1215 C1228 0.930 . S
H1216 C1229 0.930 . S
H1217 C1233 0.959 . S
H1218 C1233 0.959 . S
H1219 C1233 0.961 . S
H1220 C1234 0.960 . S
H1221 C1234 0.961 . S
H1222 C1234 0.959 . S
H1223 C1237 0.929 . S
H1224 C1238 0.931 . S
H1225 C1240 0.930 . S
C1226 H1214 0.930 . S
C1226 C1227 1.399 . S
C1226 C1231 1.399 . S
C1227 C1226 1.399 . S
C1227 C1228 1.376 . S
C1228 H1215 0.930 . S
C1228 C1227 1.376 . S
C1228 C1229 1.388 . S
C1229 H1216 0.930 . S
C1229 C1228 1.388 . S
C1229 C1230 1.390 . S
C1230 C1229 1.390 . S
C1230 C1231 1.394 . S
C1230 C1236 1.465 . S
C1231 C1226 1.399 . S
C1231 C1230 1.394 . S
C1231 C1232 1.516 1_565 S
C1232 C1231 1.516 1_545 S
C1232 C1233 1.502 . S
C1232 C1234 1.561 1_545 S
C1232 C1235 1.526 . S
C1233 H1217 0.959 . S
C1233 H1218 0.959 . S
C1233 H1219 0.961 . S
C1233 C1232 1.502 . S
C1234 H1220 0.960 . S
C1234 H1221 0.961 . S
C1234 H1222 0.959 . S
C1234 C1232 1.561 1_565 S
C1235 C1232 1.526 . S
C1235 C1236 1.396 1_545 S
C1235 C1240 1.390 . S
C1236 C1230 1.465 . S
C1236 C1235 1.396 1_565 S
C1236 C1237 1.399 . S
C1237 H1223 0.929 . S
C1237 C1236 1.399 . S
C1237 C1238 1.385 1_565 S
C1238 H1224 0.931 . S
C1238 C1237 1.385 1_545 S
C1238 C1239 1.389 . S
C1239 C1238 1.389 . S
C1239 C1240 1.387 . S
C1240 H1225 0.930 . S
C1240 C1235 1.390 . S
C1240 C1239 1.387 . S
H1241 C1253 0.930 1_565 S
H1242 C1255 0.930 . S
H1243 C1256 0.930 . S
H1244 C1260 0.959 . S
H1245 C1260 0.959 . S
H1246 C1260 0.961 . S
H1247 C1261 0.960 . S
H1248 C1261 0.961 . S
H1249 C1261 0.959 1_545 S
H1250 C1264 0.929 . S
H1251 C1265 0.931 . S
H1252 C1267 0.930 . S
C1253 H1241 0.930 1_545 S
C1253 C1254 1.399 . S
C1253 C1258 1.399 . S
C1254 C1253 1.399 . S
C1254 C1255 1.376 . S
C1255 H1242 0.930 . S
C1255 C1254 1.376 . S
C1255 C1256 1.388 . S
C1256 H1243 0.930 . S
C1256 C1255 1.388 . S
C1256 C1257 1.390 . S
C1257 C1256 1.390 . S
C1257 C1258 1.394 . S
C1257 C1263 1.465 . S
C1258 C1253 1.399 . S
C1258 C1257 1.394 . S
C1258 C1259 1.516 1_545 S
C1259 C1258 1.516 1_565 S
C1259 C1260 1.502 . S
C1259 C1261 1.561 . S
C1259 C1262 1.526 . S
C1260 H1244 0.959 . S
C1260 H1245 0.959 . S
C1260 H1246 0.961 . S
C1260 C1259 1.502 . S
C1261 H1247 0.960 . S
C1261 H1248 0.961 . S
C1261 H1249 0.959 1_565 S
C1261 C1259 1.561 . S
C1262 C1259 1.526 . S
C1262 C1263 1.396 1_565 S
C1262 C1267 1.390 . S
C1263 C1257 1.465 . S
C1263 C1262 1.396 1_545 S
C1263 C1264 1.399 . S
C1264 H1250 0.929 . S
C1264 C1263 1.399 . S
C1264 C1265 1.385 . S
C1265 H1251 0.931 . S
C1265 C1264 1.385 . S
C1265 C1266 1.389 1_545 S
C1266 C1265 1.389 1_565 S
C1266 C1267 1.387 . S
C1267 H1252 0.930 . S
C1267 C1262 1.390 . S
C1267 C1266 1.387 . S
H1268 C1280 0.930 . S
H1269 C1282 0.930 . S
H1270 C1283 0.930 . S
H1271 C1287 0.959 . S
H1272 C1287 0.959 . S
H1273 C1287 0.961 1_655 S
H1274 C1288 0.960 . S
H1275 C1288 0.961 1_455 S
H1276 C1288 0.959 . S
H1277 C1291 0.929 . S
H1278 C1292 0.931 . S
H1279 C1294 0.930 . S
C1280 H1268 0.930 . S
C1280 C1281 1.399 . S
C1280 C1285 1.399 . S
C1281 C1280 1.399 . S
C1281 C1282 1.376 . S
C1282 H1269 0.930 . S
C1282 C1281 1.376 . S
C1282 C1283 1.388 . S
C1283 H1270 0.930 . S
C1283 C1282 1.388 . S
C1283 C1284 1.390 . S
C1284 C1283 1.390 . S
C1284 C1285 1.394 . S
C1284 C1290 1.465 1_655 S
C1285 C1280 1.399 . S
C1285 C1284 1.394 . S
C1285 C1286 1.516 1_655 S
C1286 C1285 1.516 1_455 S
C1286 C1287 1.502 . S
C1286 C1288 1.561 1_455 S
C1286 C1289 1.526 . S
C1287 H1271 0.959 . S
C1287 H1272 0.959 . S
C1287 H1273 0.961 1_455 S
C1287 C1286 1.502 . S
C1288 H1274 0.960 . S
C1288 H1275 0.961 1_655 S
C1288 H1276 0.959 . S
C1288 C1286 1.561 1_655 S
C1289 C1286 1.526 . S
C1289 C1290 1.396 . S
C1289 C1294 1.390 . S
C1290 C1284 1.465 1_455 S
C1290 C1289 1.396 . S
C1290 C1291 1.399 . S
C1291 H1277 0.929 . S
C1291 C1290 1.399 . S
C1291 C1292 1.385 . S
C1292 H1278 0.931 . S
C1292 C1291 1.385 . S
C1292 C1293 1.389 . S
C1293 C1292 1.389 . S
C1293 C1294 1.387 . S
C1294 H1279 0.930 . S
C1294 C1289 1.390 . S
C1294 C1293 1.387 . S
H1295 C1307 0.930 . S
H1296 C1309 0.930 . S
H1297 C1310 0.930 . S
H1298 C1314 0.959 . S
H1299 C1314 0.959 1_655 S
H1300 C1314 0.961 . S
H1301 C1315 0.960 1_455 S
H1302 C1315 0.961 . S
H1303 C1315 0.959 . S
H1304 C1318 0.929 . S
H1305 C1319 0.931 . S
H1306 C1321 0.930 . S
C1307 H1295 0.930 . S
C1307 C1308 1.399 . S
C1307 C1312 1.399 . S
C1308 C1307 1.399 . S
C1308 C1309 1.376 . S
C1309 H1296 0.930 . S
C1309 C1308 1.376 . S
C1309 C1310 1.388 . S
C1310 H1297 0.930 . S
C1310 C1309 1.388 . S
C1310 C1311 1.390 . S
C1311 C1310 1.390 . S
C1311 C1312 1.394 . S
C1311 C1317 1.465 1_455 S
C1312 C1307 1.399 . S
C1312 C1311 1.394 . S
C1312 C1313 1.516 . S
C1313 C1312 1.516 . S
C1313 C1314 1.502 . S
C1313 C1315 1.561 1_455 S
C1313 C1316 1.526 1_455 S
C1314 H1298 0.959 . S
C1314 H1299 0.959 1_455 S
C1314 H1300 0.961 . S
C1314 C1313 1.502 . S
C1315 H1301 0.960 1_655 S
C1315 H1302 0.961 . S
C1315 H1303 0.959 . S
C1315 C1313 1.561 1_655 S
C1316 C1313 1.526 1_655 S
C1316 C1317 1.396 . S
C1316 C1321 1.390 . S
C1317 C1311 1.465 1_655 S
C1317 C1316 1.396 . S
C1317 C1318 1.399 . S
C1318 H1304 0.929 . S
C1318 C1317 1.399 . S
C1318 C1319 1.385 . S
C1319 H1305 0.931 . S
C1319 C1318 1.385 . S
C1319 C1320 1.389 . S
C1320 C1319 1.389 . S
C1320 C1321 1.387 . S
C1321 H1306 0.930 . S
C1321 C1316 1.390 . S
C1321 C1320 1.387 . S
H1322 C1334 0.930 . S
H1323 C1336 0.930 . S
H1324 C1337 0.930 . S
H1325 C1341 0.959 . S
H1326 C1341 0.959 1_455 S
H1327 C1341 0.961 . S
H1328 C1342 0.960 1_655 S
H1329 C1342 0.961 . S
H1330 C1342 0.959 . S
H1331 C1345 0.929 . S
H1332 C1346 0.931 . S
H1333 C1348 0.930 . S
C1334 H1322 0.930 . S
C1334 C1335 1.399 . S
C1334 C1339 1.399 . S
C1335 C1334 1.399 . S
C1335 C1336 1.376 . S
C1336 H1323 0.930 . S
C1336 C1335 1.376 . S
C1336 C1337 1.388 . S
C1337 H1324 0.930 . S
C1337 C1336 1.388 . S
C1337 C1338 1.390 . S
C1338 C1337 1.390 . S
C1338 C1339 1.394 . S
C1338 C1344 1.465 1_655 S
C1339 C1334 1.399 . S
C1339 C1338 1.394 . S
C1339 C1340 1.516 . S
C1340 C1339 1.516 . S
C1340 C1341 1.502 . S
C1340 C1342 1.561 1_655 S
C1340 C1343 1.526 1_655 S
C1341 H1325 0.959 . S
C1341 H1326 0.959 1_655 S
C1341 H1327 0.961 . S
C1341 C1340 1.502 . S
C1342 H1328 0.960 1_455 S
C1342 H1329 0.961 . S
C1342 H1330 0.959 . S
C1342 C1340 1.561 1_455 S
C1343 C1340 1.526 1_455 S
C1343 C1344 1.396 . S
C1343 C1348 1.390 . S
C1344 C1338 1.465 1_455 S
C1344 C1343 1.396 . S
C1344 C1345 1.399 . S
C1345 H1331 0.929 . S
C1345 C1344 1.399 . S
C1345 C1346 1.385 . S
C1346 H1332 0.931 . S
C1346 C1345 1.385 . S
C1346 C1347 1.389 . S
C1347 C1346 1.389 . S
C1347 C1348 1.387 . S
C1348 H1333 0.930 . S
C1348 C1343 1.390 . S
C1348 C1347 1.387 . S
H1349 C1361 0.930 . S
H1350 C1363 0.930 . S
H1351 C1364 0.930 . S
H1352 C1368 0.959 . S
H1353 C1368 0.959 1_655 S
H1354 C1368 0.961 . S
H1355 C1369 0.960 1_455 S
H1356 C1369 0.961 . S
H1357 C1369 0.959 . S
H1358 C1372 0.929 . S
H1359 C1373 0.931 . S
H1360 C1375 0.930 . S
C1361 H1349 0.930 . S
C1361 C1362 1.399 . S
C1361 C1366 1.399 . S
C1362 C1361 1.399 . S
C1362 C1363 1.376 . S
C1363 H1350 0.930 . S
C1363 C1362 1.376 . S
C1363 C1364 1.388 . S
C1364 H1351 0.930 . S
C1364 C1363 1.388 . S
C1364 C1365 1.390 . S
C1365 C1364 1.390 . S
C1365 C1366 1.394 . S
C1365 C1371 1.465 1_455 S
C1366 C1361 1.399 . S
C1366 C1365 1.394 . S
C1366 C1367 1.516 . S
C1367 C1366 1.516 . S
C1367 C1368 1.502 . S
C1367 C1369 1.561 1_455 S
C1367 C1370 1.526 1_455 S
C1368 H1352 0.959 . S
C1368 H1353 0.959 1_455 S
C1368 H1354 0.961 . S
C1368 C1367 1.502 . S
C1369 H1355 0.960 1_655 S
C1369 H1356 0.961 . S
C1369 H1357 0.959 . S
C1369 C1367 1.561 1_655 S
C1370 C1367 1.526 1_655 S
C1370 C1371 1.396 . S
C1370 C1375 1.390 . S
C1371 C1365 1.465 1_655 S
C1371 C1370 1.396 . S
C1371 C1372 1.399 . S
C1372 H1358 0.929 . S
C1372 C1371 1.399 . S
C1372 C1373 1.385 . S
C1373 H1359 0.931 . S
C1373 C1372 1.385 . S
C1373 C1374 1.389 . S
C1374 C1373 1.389 . S
C1374 C1375 1.387 . S
C1375 H1360 0.930 . S
C1375 C1370 1.390 . S
C1375 C1374 1.387 . S
H1376 C1388 0.930 . S
H1377 C1390 0.930 . S
H1378 C1391 0.930 . S
H1379 C1395 0.959 . S
H1380 C1395 0.959 . S
H1381 C1395 0.961 . S
H1382 C1396 0.960 . S
H1383 C1396 0.961 . S
H1384 C1396 0.959 . S
H1385 C1399 0.929 . S
H1386 C1400 0.931 . S
H1387 C1402 0.930 . S
C1388 H1376 0.930 . S
C1388 C1389 1.399 . S
C1388 C1393 1.399 . S
C1389 C1388 1.399 . S
C1389 C1390 1.376 . S
C1390 H1377 0.930 . S
C1390 C1389 1.376 . S
C1390 C1391 1.388 . S
C1391 H1378 0.930 . S
C1391 C1390 1.388 . S
C1391 C1392 1.390 . S
C1392 C1391 1.390 . S
C1392 C1393 1.394 . S
C1392 C1398 1.465 . S
C1393 C1388 1.399 . S
C1393 C1392 1.394 . S
C1393 C1394 1.516 . S
C1394 C1393 1.516 . S
C1394 C1395 1.502 . S
C1394 C1396 1.561 . S
C1394 C1397 1.526 . S
C1395 H1379 0.959 . S
C1395 H1380 0.959 . S
C1395 H1381 0.961 . S
C1395 C1394 1.502 . S
C1396 H1382 0.960 . S
C1396 H1383 0.961 . S
C1396 H1384 0.959 . S
C1396 C1394 1.561 . S
C1397 C1394 1.526 . S
C1397 C1398 1.396 . S
C1397 C1402 1.390 . S
C1398 C1392 1.465 . S
C1398 C1397 1.396 . S
C1398 C1399 1.399 . S
C1399 H1385 0.929 . S
C1399 C1398 1.399 . S
C1399 C1400 1.385 . S
C1400 H1386 0.931 . S
C1400 C1399 1.385 . S
C1400 C1401 1.389 . S
C1401 C1400 1.389 . S
C1401 C1402 1.387 . S
C1402 H1387 0.930 . S
C1402 C1397 1.390 . S
C1402 C1401 1.387 . S
H1403 C1415 0.930 . S
H1404 C1417 0.930 . S
H1405 C1418 0.930 . S
H1406 C1422 0.959 . S
H1407 C1422 0.959 . S
H1408 C1422 0.961 . S
H1409 C1423 0.960 . S
H1410 C1423 0.961 . S
H1411 C1423 0.959 . S
H1412 C1426 0.929 . S
H1413 C1427 0.931 . S
H1414 C1429 0.930 . S
C1415 H1403 0.930 . S
C1415 C1416 1.399 . S
C1415 C1420 1.399 . S
C1416 C1415 1.399 . S
C1416 C1417 1.376 . S
C1417 H1404 0.930 . S
C1417 C1416 1.376 . S
C1417 C1418 1.388 . S
C1418 H1405 0.930 . S
C1418 C1417 1.388 . S
C1418 C1419 1.390 . S
C1419 C1418 1.390 . S
C1419 C1420 1.394 . S
C1419 C1425 1.465 . S
C1420 C1415 1.399 . S
C1420 C1419 1.394 . S
C1420 C1421 1.516 . S
C1421 C1420 1.516 . S
C1421 C1422 1.502 . S
C1421 C1423 1.561 . S
C1421 C1424 1.526 . S
C1422 H1406 0.959 . S
C1422 H1407 0.959 . S
C1422 H1408 0.961 . S
C1422 C1421 1.502 . S
C1423 H1409 0.960 . S
C1423 H1410 0.961 . S
C1423 H1411 0.959 . S
C1423 C1421 1.561 . S
C1424 C1421 1.526 . S
C1424 C1425 1.396 . S
C1424 C1429 1.390 . S
C1425 C1419 1.465 . S
C1425 C1424 1.396 . S
C1425 C1426 1.399 . S
C1426 H1412 0.929 . S
C1426 C1425 1.399 . S
C1426 C1427 1.385 . S
C1427 H1413 0.931 . S
C1427 C1426 1.385 . S
C1427 C1428 1.389 . S
C1428 C1427 1.389 . S
C1428 C1429 1.387 . S
C1429 H1414 0.930 . S
C1429 C1424 1.390 . S
C1429 C1428 1.387 . S
H1430 C1442 0.930 . S
H1431 C1444 0.930 . S
H1432 C1445 0.930 . S
H1433 C1449 0.959 . S
H1434 C1449 0.959 . S
H1435 C1449 0.961 . S
H1436 C1450 0.960 . S
H1437 C1450 0.961 . S
H1438 C1450 0.959 . S
H1439 C1453 0.929 . S
H1440 C1454 0.931 . S
H1441 C1456 0.930 . S
C1442 H1430 0.930 . S
C1442 C1443 1.399 . S
C1442 C1447 1.399 . S
C1443 C1442 1.399 . S
C1443 C1444 1.376 . S
C1444 H1431 0.930 . S
C1444 C1443 1.376 . S
C1444 C1445 1.388 . S
C1445 H1432 0.930 . S
C1445 C1444 1.388 . S
C1445 C1446 1.390 . S
C1446 C1445 1.390 . S
C1446 C1447 1.394 . S
C1446 C1452 1.465 . S
C1447 C1442 1.399 . S
C1447 C1446 1.394 . S
C1447 C1448 1.516 . S
C1448 C1447 1.516 . S
C1448 C1449 1.502 . S
C1448 C1450 1.561 . S
C1448 C1451 1.526 . S
C1449 H1433 0.959 . S
C1449 H1434 0.959 . S
C1449 H1435 0.961 . S
C1449 C1448 1.502 . S
C1450 H1436 0.960 . S
C1450 H1437 0.961 . S
C1450 H1438 0.959 . S
C1450 C1448 1.561 . S
C1451 C1448 1.526 . S
C1451 C1452 1.396 . S
C1451 C1456 1.390 . S
C1452 C1446 1.465 . S
C1452 C1451 1.396 . S
C1452 C1453 1.399 . S
C1453 H1439 0.929 . S
C1453 C1452 1.399 . S
C1453 C1454 1.385 . S
C1454 H1440 0.931 . S
C1454 C1453 1.385 . S
C1454 C1455 1.389 . S
C1455 C1454 1.389 . S
C1455 C1456 1.387 . S
C1456 H1441 0.930 . S
C1456 C1451 1.390 . S
C1456 C1455 1.387 . S
H1457 C1469 0.930 . S
H1458 C1471 0.930 . S
H1459 C1472 0.930 . S
H1460 C1476 0.959 . S
H1461 C1476 0.959 . S
H1462 C1476 0.961 . S
H1463 C1477 0.960 . S
H1464 C1477 0.961 . S
H1465 C1477 0.959 . S
H1466 C1480 0.929 . S
H1467 C1481 0.931 . S
H1468 C1483 0.930 . S
C1469 H1457 0.930 . S
C1469 C1470 1.399 . S
C1469 C1474 1.399 . S
C1470 C1469 1.399 . S
C1470 C1471 1.376 . S
C1471 H1458 0.930 . S
C1471 C1470 1.376 . S
C1471 C1472 1.388 . S
C1472 H1459 0.930 . S
C1472 C1471 1.388 . S
C1472 C1473 1.390 . S
C1473 C1472 1.390 . S
C1473 C1474 1.394 . S
C1473 C1479 1.465 . S
C1474 C1469 1.399 . S
C1474 C1473 1.394 . S
C1474 C1475 1.516 . S
C1475 C1474 1.516 . S
C1475 C1476 1.502 . S
C1475 C1477 1.561 . S
C1475 C1478 1.526 . S
C1476 H1460 0.959 . S
C1476 H1461 0.959 . S
C1476 H1462 0.961 . S
C1476 C1475 1.502 . S
C1477 H1463 0.960 . S
C1477 H1464 0.961 . S
C1477 H1465 0.959 . S
C1477 C1475 1.561 . S
C1478 C1475 1.526 . S
C1478 C1479 1.396 . S
C1478 C1483 1.390 . S
C1479 C1473 1.465 . S
C1479 C1478 1.396 . S
C1479 C1480 1.399 . S
C1480 H1466 0.929 . S
C1480 C1479 1.399 . S
C1480 C1481 1.385 . S
C1481 H1467 0.931 . S
C1481 C1480 1.385 . S
C1481 C1482 1.389 . S
C1482 C1481 1.389 . S
C1482 C1483 1.387 . S
C1483 H1468 0.930 . S
C1483 C1478 1.390 . S
C1483 C1482 1.387 . S
H1484 C1496 0.930 . S
H1485 C1498 0.930 . S
H1486 C1499 0.930 . S
H1487 C1503 0.959 . S
H1488 C1503 0.959 . S
H1489 C1503 0.961 . S
H1490 C1504 0.960 . S
H1491 C1504 0.961 . S
H1492 C1504 0.959 . S
H1493 C1507 0.929 . S
H1494 C1508 0.931 . S
H1495 C1510 0.930 . S
C1496 H1484 0.930 . S
C1496 C1497 1.399 . S
C1496 C1501 1.399 . S
C1497 C1496 1.399 . S
C1497 C1498 1.376 . S
C1498 H1485 0.930 . S
C1498 C1497 1.376 . S
C1498 C1499 1.388 . S
C1499 H1486 0.930 . S
C1499 C1498 1.388 . S
C1499 C1500 1.390 . S
C1500 C1499 1.390 . S
C1500 C1501 1.394 . S
C1500 C1506 1.465 . S
C1501 C1496 1.399 . S
C1501 C1500 1.394 . S
C1501 C1502 1.516 . S
C1502 C1501 1.516 . S
C1502 C1503 1.502 . S
C1502 C1504 1.561 . S
C1502 C1505 1.526 . S
C1503 H1487 0.959 . S
C1503 H1488 0.959 . S
C1503 H1489 0.961 . S
C1503 C1502 1.502 . S
C1504 H1490 0.960 . S
C1504 H1491 0.961 . S
C1504 H1492 0.959 . S
C1504 C1502 1.561 . S
C1505 C1502 1.526 . S
C1505 C1506 1.396 . S
C1505 C1510 1.390 . S
C1506 C1500 1.465 . S
C1506 C1505 1.396 . S
C1506 C1507 1.399 . S
C1507 H1493 0.929 . S
C1507 C1506 1.399 . S
C1507 C1508 1.385 . S
C1508 H1494 0.931 . S
C1508 C1507 1.385 . S
C1508 C1509 1.389 . S
C1509 C1508 1.389 . S
C1509 C1510 1.387 . S
C1510 H1495 0.930 . S
C1510 C1505 1.390 . S
C1510 C1509 1.387 . S
H1511 C1523 0.930 . S
H1512 C1525 0.930 . S
H1513 C1526 0.930 . S
H1514 C1530 0.959 . S
H1515 C1530 0.959 . S
H1516 C1530 0.961 . S
H1517 C1531 0.960 . S
H1518 C1531 0.961 . S
H1519 C1531 0.959 . S
H1520 C1534 0.929 . S
H1521 C1535 0.931 . S
H1522 C1537 0.930 . S
C1523 H1511 0.930 . S
C1523 C1524 1.399 . S
C1523 C1528 1.399 . S
C1524 C1523 1.399 . S
C1524 C1525 1.376 . S
C1525 H1512 0.930 . S
C1525 C1524 1.376 . S
C1525 C1526 1.388 . S
C1526 H1513 0.930 . S
C1526 C1525 1.388 . S
C1526 C1527 1.390 . S
C1527 C1526 1.390 . S
C1527 C1528 1.394 . S
C1527 C1533 1.465 . S
C1528 C1523 1.399 . S
C1528 C1527 1.394 . S
C1528 C1529 1.516 . S
C1529 C1528 1.516 . S
C1529 C1530 1.502 . S
C1529 C1531 1.561 . S
C1529 C1532 1.526 . S
C1530 H1514 0.959 . S
C1530 H1515 0.959 . S
C1530 H1516 0.961 . S
C1530 C1529 1.502 . S
C1531 H1517 0.960 . S
C1531 H1518 0.961 . S
C1531 H1519 0.959 . S
C1531 C1529 1.561 . S
C1532 C1529 1.526 . S
C1532 C1533 1.396 . S
C1532 C1537 1.390 . S
C1533 C1527 1.465 . S
C1533 C1532 1.396 . S
C1533 C1534 1.399 . S
C1534 H1520 0.929 . S
C1534 C1533 1.399 . S
C1534 C1535 1.385 . S
C1535 H1521 0.931 . S
C1535 C1534 1.385 . S
C1535 C1536 1.389 . S
C1536 C1535 1.389 . S
C1536 C1537 1.387 . S
C1537 H1522 0.930 . S
C1537 C1532 1.390 . S
C1537 C1536 1.387 . S
H1538 C1550 0.930 . S
H1539 C1552 0.930 . S
H1540 C1553 0.930 . S
H1541 C1557 0.959 . S
H1542 C1557 0.959 . S
H1543 C1557 0.961 . S
H1544 C1558 0.960 . S
H1545 C1558 0.961 . S
H1546 C1558 0.959 . S
H1547 C1561 0.929 . S
H1548 C1562 0.931 . S
H1549 C1564 0.930 . S
C1550 H1538 0.930 . S
C1550 C1551 1.399 . S
C1550 C1555 1.399 . S
C1551 C1550 1.399 . S
C1551 C1552 1.376 . S
C1552 H1539 0.930 . S
C1552 C1551 1.376 . S
C1552 C1553 1.388 . S
C1553 H1540 0.930 . S
C1553 C1552 1.388 . S
C1553 C1554 1.390 . S
C1554 C1553 1.390 . S
C1554 C1555 1.394 . S
C1554 C1560 1.465 . S
C1555 C1550 1.399 . S
C1555 C1554 1.394 . S
C1555 C1556 1.516 . S
C1556 C1555 1.516 . S
C1556 C1557 1.502 . S
C1556 C1558 1.561 . S
C1556 C1559 1.526 . S
C1557 H1541 0.959 . S
C1557 H1542 0.959 . S
C1557 H1543 0.961 . S
C1557 C1556 1.502 . S
C1558 H1544 0.960 . S
C1558 H1545 0.961 . S
C1558 H1546 0.959 . S
C1558 C1556 1.561 . S
C1559 C1556 1.526 . S
C1559 C1560 1.396 . S
C1559 C1564 1.390 . S
C1560 C1554 1.465 . S
C1560 C1559 1.396 . S
C1560 C1561 1.399 . S
C1561 H1547 0.929 . S
C1561 C1560 1.399 . S
C1561 C1562 1.385 . S
C1562 H1548 0.931 . S
C1562 C1561 1.385 . S
C1562 C1563 1.389 . S
C1563 C1562 1.389 . S
C1563 C1564 1.387 . S
C1564 H1549 0.930 . S
C1564 C1559 1.390 . S
C1564 C1563 1.387 . S
H1565 C1577 0.930 . S
H1566 C1579 0.930 . S
H1567 C1580 0.930 . S
H1568 C1584 0.959 . S
H1569 C1584 0.959 . S
H1570 C1584 0.961 . S
H1571 C1585 0.960 . S
H1572 C1585 0.961 . S
H1573 C1585 0.959 . S
H1574 C1588 0.929 . S
H1575 C1589 0.931 . S
H1576 C1591 0.930 . S
C1577 H1565 0.930 . S
C1577 C1578 1.399 . S
C1577 C1582 1.399 . S
C1578 C1577 1.399 . S
C1578 C1579 1.376 . S
C1579 H1566 0.930 . S
C1579 C1578 1.376 . S
C1579 C1580 1.388 . S
C1580 H1567 0.930 . S
C1580 C1579 1.388 . S
C1580 C1581 1.390 . S
C1581 C1580 1.390 . S
C1581 C1582 1.394 . S
C1581 C1587 1.465 . S
C1582 C1577 1.399 . S
C1582 C1581 1.394 . S
C1582 C1583 1.516 . S
C1583 C1582 1.516 . S
C1583 C1584 1.502 . S
C1583 C1585 1.561 . S
C1583 C1586 1.526 . S
C1584 H1568 0.959 . S
C1584 H1569 0.959 . S
C1584 H1570 0.961 . S
C1584 C1583 1.502 . S
C1585 H1571 0.960 . S
C1585 H1572 0.961 . S
C1585 H1573 0.959 . S
C1585 C1583 1.561 . S
C1586 C1583 1.526 . S
C1586 C1587 1.396 . S
C1586 C1591 1.390 . S
C1587 C1581 1.465 . S
C1587 C1586 1.396 . S
C1587 C1588 1.399 . S
C1588 H1574 0.929 . S
C1588 C1587 1.399 . S
C1588 C1589 1.385 . S
C1589 H1575 0.931 . S
C1589 C1588 1.385 . S
C1589 C1590 1.389 . S
C1590 C1589 1.389 . S
C1590 C1591 1.387 . S
C1591 H1576 0.930 . S
C1591 C1586 1.390 . S
C1591 C1590 1.387 . S
H1592 C1604 0.930 . S
H1593 C1606 0.930 . S
H1594 C1607 0.930 . S
H1595 C1611 0.959 1_545 S
H1596 C1611 0.959 . S
H1597 C1611 0.961 . S
H1598 C1612 0.960 . S
H1599 C1612 0.961 . S
H1600 C1612 0.959 . S
H1601 C1615 0.929 . S
H1602 C1616 0.931 . S
H1603 C1618 0.930 . S
C1604 H1592 0.930 . S
C1604 C1605 1.399 1_565 S
C1604 C1609 1.399 . S
C1605 C1604 1.399 1_545 S
C1605 C1606 1.376 . S
C1606 H1593 0.930 . S
C1606 C1605 1.376 . S
C1606 C1607 1.388 . S
C1607 H1594 0.930 . S
C1607 C1606 1.388 . S
C1607 C1608 1.390 . S
C1608 C1607 1.390 . S
C1608 C1609 1.394 1_545 S
C1608 C1614 1.465 . S
C1609 C1604 1.399 . S
C1609 C1608 1.394 1_565 S
C1609 C1610 1.516 . S
C1610 C1609 1.516 . S
C1610 C1611 1.502 . S
C1610 C1612 1.561 . S
C1610 C1613 1.526 . S
C1611 H1595 0.959 1_565 S
C1611 H1596 0.959 . S
C1611 H1597 0.961 . S
C1611 C1610 1.502 . S
C1612 H1598 0.960 . S
C1612 H1599 0.961 . S
C1612 H1600 0.959 . S
C1612 C1610 1.561 . S
C1613 C1610 1.526 . S
C1613 C1614 1.396 1_565 S
C1613 C1618 1.390 . S
C1614 C1608 1.465 . S
C1614 C1613 1.396 1_545 S
C1614 C1615 1.399 . S
C1615 H1601 0.929 . S
C1615 C1614 1.399 . S
C1615 C1616 1.385 . S
C1616 H1602 0.931 . S
C1616 C1615 1.385 . S
C1616 C1617 1.389 1_545 S
C1617 C1616 1.389 1_565 S
C1617 C1618 1.387 . S
C1618 H1603 0.930 . S
C1618 C1613 1.390 . S
C1618 C1617 1.387 . S
H1619 C1631 0.930 . S
H1620 C1633 0.930 . S
H1621 C1634 0.930 . S
H1622 C1638 0.959 . S
H1623 C1638 0.959 . S
H1624 C1638 0.961 . S
H1625 C1639 0.960 . S
H1626 C1639 0.961 . S
H1627 C1639 0.959 . S
H1628 C1642 0.929 . S
H1629 C1643 0.931 . S
H1630 C1645 0.930 . S
C1631 H1619 0.930 . S
C1631 C1632 1.399 . S
C1631 C1636 1.399 . S
C1632 C1631 1.399 . S
C1632 C1633 1.376 1_545 S
C1633 H1620 0.930 . S
C1633 C1632 1.376 1_565 S
C1633 C1634 1.388 . S
C1634 H1621 0.930 . S
C1634 C1633 1.388 . S
C1634 C1635 1.390 . S
C1635 C1634 1.390 . S
C1635 C1636 1.394 1_565 S
C1635 C1641 1.465 . S
C1636 C1631 1.399 . S
C1636 C1635 1.394 1_545 S
C1636 C1637 1.516 . S
C1637 C1636 1.516 . S
C1637 C1638 1.502 . S
C1637 C1639 1.561 . S
C1637 C1640 1.526 . S
C1638 H1622 0.959 . S
C1638 H1623 0.959 . S
C1638 H1624 0.961 . S
C1638 C1637 1.502 . S
C1639 H1625 0.960 . S
C1639 H1626 0.961 . S
C1639 H1627 0.959 . S
C1639 C1637 1.561 . S
C1640 C1637 1.526 . S
C1640 C1641 1.396 1_545 S
C1640 C1645 1.390 . S
C1641 C1635 1.465 . S
C1641 C1640 1.396 1_565 S
C1641 C1642 1.399 . S
C1642 H1628 0.929 . S
C1642 C1641 1.399 . S
C1642 C1643 1.385 . S
C1643 H1629 0.931 . S
C1643 C1642 1.385 . S
C1643 C1644 1.389 . S
C1644 C1643 1.389 . S
C1644 C1645 1.387 1_565 S
C1645 H1630 0.930 . S
C1645 C1640 1.390 . S
C1645 C1644 1.387 1_545 S
H1646 C1658 0.930 . S
H1647 C1660 0.930 . S
H1648 C1661 0.930 . S
H1649 C1665 0.959 . S
H1650 C1665 0.959 . S
H1651 C1665 0.961 . S
H1652 C1666 0.960 . S
H1653 C1666 0.961 . S
H1654 C1666 0.959 . S
H1655 C1669 0.929 . S
H1656 C1670 0.931 . S
H1657 C1672 0.930 . S
C1658 H1646 0.930 . S
C1658 C1659 1.399 1_565 S
C1658 C1663 1.399 . S
C1659 C1658 1.399 1_545 S
C1659 C1660 1.376 . S
C1660 H1647 0.930 . S
C1660 C1659 1.376 . S
C1660 C1661 1.388 . S
C1661 H1648 0.930 . S
C1661 C1660 1.388 . S
C1661 C1662 1.390 . S
C1662 C1661 1.390 . S
C1662 C1663 1.394 1_545 S
C1662 C1668 1.465 . S
C1663 C1658 1.399 . S
C1663 C1662 1.394 1_565 S
C1663 C1664 1.516 . S
C1664 C1663 1.516 . S
C1664 C1665 1.502 . S
C1664 C1666 1.561 . S
C1664 C1667 1.526 . S
C1665 H1649 0.959 . S
C1665 H1650 0.959 . S
C1665 H1651 0.961 . S
C1665 C1664 1.502 . S
C1666 H1652 0.960 . S
C1666 H1653 0.961 . S
C1666 H1654 0.959 . S
C1666 C1664 1.561 . S
C1667 C1664 1.526 . S
C1667 C1668 1.396 1_565 S
C1667 C1672 1.390 . S
C1668 C1662 1.465 . S
C1668 C1667 1.396 1_545 S
C1668 C1669 1.399 . S
C1669 H1655 0.929 . S
C1669 C1668 1.399 . S
C1669 C1670 1.385 . S
C1670 H1656 0.931 . S
C1670 C1669 1.385 . S
C1670 C1671 1.389 1_545 S
C1671 C1670 1.389 1_565 S
C1671 C1672 1.387 . S
C1672 H1657 0.930 . S
C1672 C1667 1.390 . S
C1672 C1671 1.387 . S
H1673 C1685 0.930 . S
H1674 C1687 0.930 . S
H1675 C1688 0.930 . S
H1676 C1692 0.959 . S
H1677 C1692 0.959 . S
H1678 C1692 0.961 . S
H1679 C1693 0.960 . S
H1680 C1693 0.961 . S
H1681 C1693 0.959 . S
H1682 C1696 0.929 . S
H1683 C1697 0.931 . S
H1684 C1699 0.930 . S
C1685 H1673 0.930 . S
C1685 C1686 1.399 . S
C1685 C1690 1.399 . S
C1686 C1685 1.399 . S
C1686 C1687 1.376 1_565 S
C1687 H1674 0.930 . S
C1687 C1686 1.376 1_545 S
C1687 C1688 1.388 . S
C1688 H1675 0.930 . S
C1688 C1687 1.388 . S
C1688 C1689 1.390 . S
C1689 C1688 1.390 . S
C1689 C1690 1.394 1_545 S
C1689 C1695 1.465 . S
C1690 C1685 1.399 . S
C1690 C1689 1.394 1_565 S
C1690 C1691 1.516 . S
C1691 C1690 1.516 . S
C1691 C1692 1.502 . S
C1691 C1693 1.561 . S
C1691 C1694 1.526 . S
C1692 H1676 0.959 . S
C1692 H1677 0.959 . S
C1692 H1678 0.961 . S
C1692 C1691 1.502 . S
C1693 H1679 0.960 . S
C1693 H1680 0.961 . S
C1693 H1681 0.959 . S
C1693 C1691 1.561 . S
C1694 C1691 1.526 . S
C1694 C1695 1.396 1_565 S
C1694 C1699 1.390 . S
C1695 C1689 1.465 . S
C1695 C1694 1.396 1_545 S
C1695 C1696 1.399 . S
C1696 H1682 0.929 . S
C1696 C1695 1.399 . S
C1696 C1697 1.385 . S
C1697 H1683 0.931 . S
C1697 C1696 1.385 . S
C1697 C1698 1.389 . S
C1698 C1697 1.389 . S
C1698 C1699 1.387 1_545 S
C1699 H1684 0.930 . S
C1699 C1694 1.390 . S
C1699 C1698 1.387 1_565 S
H1700 C1712 0.930 . S
H1701 C1714 0.930 . S
H1702 C1715 0.930 . S
H1703 C1719 0.959 . S
H1704 C1719 0.959 . S
H1705 C1719 0.961 . S
H1706 C1720 0.960 . S
H1707 C1720 0.961 . S
H1708 C1720 0.959 . S
H1709 C1723 0.929 . S
H1710 C1724 0.931 . S
H1711 C1726 0.930 . S
C1712 H1700 0.930 . S
C1712 C1713 1.399 . S
C1712 C1717 1.399 . S
C1713 C1712 1.399 . S
C1713 C1714 1.376 . S
C1714 H1701 0.930 . S
C1714 C1713 1.376 . S
C1714 C1715 1.388 . S
C1715 H1702 0.930 . S
C1715 C1714 1.388 . S
C1715 C1716 1.390 . S
C1716 C1715 1.390 . S
C1716 C1717 1.394 . S
C1716 C1722 1.465 . S
C1717 C1712 1.399 . S
C1717 C1716 1.394 . S
C1717 C1718 1.516 . S
C1718 C1717 1.516 . S
C1718 C1719 1.502 . S
C1718 C1720 1.561 . S
C1718 C1721 1.526 . S
C1719 H1703 0.959 . S
C1719 H1704 0.959 . S
C1719 H1705 0.961 . S
C1719 C1718 1.502 . S
C1720 H1706 0.960 . S
C1720 H1707 0.961 . S
C1720 H1708 0.959 . S
C1720 C1718 1.561 . S
C1721 C1718 1.526 . S
C1721 C1722 1.396 . S
C1721 C1726 1.390 . S
C1722 C1716 1.465 . S
C1722 C1721 1.396 . S
C1722 C1723 1.399 . S
C1723 H1709 0.929 . S
C1723 C1722 1.399 . S
C1723 C1724 1.385 . S
C1724 H1710 0.931 . S
C1724 C1723 1.385 . S
C1724 C1725 1.389 . S
C1725 C1724 1.389 . S
C1725 C1726 1.387 . S
C1726 H1711 0.930 . S
C1726 C1721 1.390 . S
C1726 C1725 1.387 . S
H1727 C1739 0.930 . S
H1728 C1741 0.930 . S
H1729 C1742 0.930 . S
H1730 C1746 0.959 . S
H1731 C1746 0.959 . S
H1732 C1746 0.961 . S
H1733 C1747 0.960 . S
H1734 C1747 0.961 . S
H1735 C1747 0.959 . S
H1736 C1750 0.929 . S
H1737 C1751 0.931 . S
H1738 C1753 0.930 . S
C1739 H1727 0.930 . S
C1739 C1740 1.399 . S
C1739 C1744 1.399 . S
C1740 C1739 1.399 . S
C1740 C1741 1.376 . S
C1741 H1728 0.930 . S
C1741 C1740 1.376 . S
C1741 C1742 1.388 . S
C1742 H1729 0.930 . S
C1742 C1741 1.388 . S
C1742 C1743 1.390 . S
C1743 C1742 1.390 . S
C1743 C1744 1.394 . S
C1743 C1749 1.465 . S
C1744 C1739 1.399 . S
C1744 C1743 1.394 . S
C1744 C1745 1.516 . S
C1745 C1744 1.516 . S
C1745 C1746 1.502 . S
C1745 C1747 1.561 . S
C1745 C1748 1.526 . S
C1746 H1730 0.959 . S
C1746 H1731 0.959 . S
C1746 H1732 0.961 . S
C1746 C1745 1.502 . S
C1747 H1733 0.960 . S
C1747 H1734 0.961 . S
C1747 H1735 0.959 . S
C1747 C1745 1.561 . S
C1748 C1745 1.526 . S
C1748 C1749 1.396 . S
C1748 C1753 1.390 . S
C1749 C1743 1.465 . S
C1749 C1748 1.396 . S
C1749 C1750 1.399 . S
C1750 H1736 0.929 . S
C1750 C1749 1.399 . S
C1750 C1751 1.385 . S
C1751 H1737 0.931 . S
C1751 C1750 1.385 . S
C1751 C1752 1.389 . S
C1752 C1751 1.389 . S
C1752 C1753 1.387 . S
C1753 H1738 0.930 . S
C1753 C1748 1.390 . S
C1753 C1752 1.387 . S
H1754 C1766 0.930 . S
H1755 C1768 0.930 . S
H1756 C1769 0.930 . S
H1757 C1773 0.959 . S
H1758 C1773 0.959 . S
H1759 C1773 0.961 . S
H1760 C1774 0.960 . S
H1761 C1774 0.961 . S
H1762 C1774 0.959 . S
H1763 C1777 0.929 . S
H1764 C1778 0.931 . S
H1765 C1780 0.930 . S
C1766 H1754 0.930 . S
C1766 C1767 1.399 . S
C1766 C1771 1.399 . S
C1767 C1766 1.399 . S
C1767 C1768 1.376 . S
C1768 H1755 0.930 . S
C1768 C1767 1.376 . S
C1768 C1769 1.388 . S
C1769 H1756 0.930 . S
C1769 C1768 1.388 . S
C1769 C1770 1.390 . S
C1770 C1769 1.390 . S
C1770 C1771 1.394 . S
C1770 C1776 1.465 . S
C1771 C1766 1.399 . S
C1771 C1770 1.394 . S
C1771 C1772 1.516 . S
C1772 C1771 1.516 . S
C1772 C1773 1.502 . S
C1772 C1774 1.561 . S
C1772 C1775 1.526 . S
C1773 H1757 0.959 . S
C1773 H1758 0.959 . S
C1773 H1759 0.961 . S
C1773 C1772 1.502 . S
C1774 H1760 0.960 . S
C1774 H1761 0.961 . S
C1774 H1762 0.959 . S
C1774 C1772 1.561 . S
C1775 C1772 1.526 . S
C1775 C1776 1.396 . S
C1775 C1780 1.390 . S
C1776 C1770 1.465 . S
C1776 C1775 1.396 . S
C1776 C1777 1.399 . S
C1777 H1763 0.929 . S
C1777 C1776 1.399 . S
C1777 C1778 1.385 . S
C1778 H1764 0.931 . S
C1778 C1777 1.385 . S
C1778 C1779 1.389 . S
C1779 C1778 1.389 . S
C1779 C1780 1.387 . S
C1780 H1765 0.930 . S
C1780 C1775 1.390 . S
C1780 C1779 1.387 . S
H1781 C1793 0.930 . S
H1782 C1795 0.930 . S
H1783 C1796 0.930 . S
H1784 C1800 0.959 . S
H1785 C1800 0.959 . S
H1786 C1800 0.961 . S
H1787 C1801 0.960 . S
H1788 C1801 0.961 . S
H1789 C1801 0.959 . S
H1790 C1804 0.929 . S
H1791 C1805 0.931 . S
H1792 C1807 0.930 . S
C1793 H1781 0.930 . S
C1793 C1794 1.399 . S
C1793 C1798 1.399 . S
C1794 C1793 1.399 . S
C1794 C1795 1.376 . S
C1795 H1782 0.930 . S
C1795 C1794 1.376 . S
C1795 C1796 1.388 . S
C1796 H1783 0.930 . S
C1796 C1795 1.388 . S
C1796 C1797 1.390 . S
C1797 C1796 1.390 . S
C1797 C1798 1.394 . S
C1797 C1803 1.465 . S
C1798 C1793 1.399 . S
C1798 C1797 1.394 . S
C1798 C1799 1.516 . S
C1799 C1798 1.516 . S
C1799 C1800 1.502 . S
C1799 C1801 1.561 . S
C1799 C1802 1.526 . S
C1800 H1784 0.959 . S
C1800 H1785 0.959 . S
C1800 H1786 0.961 . S
C1800 C1799 1.502 . S
C1801 H1787 0.960 . S
C1801 H1788 0.961 . S
C1801 H1789 0.959 . S
C1801 C1799 1.561 . S
C1802 C1799 1.526 . S
C1802 C1803 1.396 . S
C1802 C1807 1.390 . S
C1803 C1797 1.465 . S
C1803 C1802 1.396 . S
C1803 C1804 1.399 . S
C1804 H1790 0.929 . S
C1804 C1803 1.399 . S
C1804 C1805 1.385 . S
C1805 H1791 0.931 . S
C1805 C1804 1.385 . S
C1805 C1806 1.389 . S
C1806 C1805 1.389 . S
C1806 C1807 1.387 . S
C1807 H1792 0.930 . S
C1807 C1802 1.390 . S
C1807 C1806 1.387 . S
C957 C3 1.398 . S
C969 C298 1.393 . S
C984 C239 1.366 . S
C996 C62 1.374 . S
C1011 C121 1.399 . S
C1023 C416 1.395 . S
C1038 C357 1.361 . S
C1050 C180 1.369 . S
C1065 C770 1.389 . S
C1077 C475 1.381 . S
C1092 C711 1.362 . S
C1104 C534 1.370 . S
C1119 C888 1.388 . S
C1131 C593 1.381 . S
C1146 C652 1.401 . S
C1158 C829 1.398 . S
C1173 C111 1.481 . S
C1185 C52 1.481 . S
C1200 C170 1.501 . S
C1212 C229 1.501 . S
C1227 C288 1.498 . S
C1239 C347 1.501 . S
C1254 C406 1.495 . S
C1266 C465 1.499 . S
C1281 C524 1.499 . S
C1293 C583 1.500 . S
C1308 C701 1.481 . S
C1320 C642 1.481 . S
C1335 C819 1.497 . S
C1347 C760 1.500 . S
C1362 C878 1.496 . S
C1374 C937 1.500 . S
C1389 C536 1.498 . S
C1401 C5 1.494 . S
C1416 C64 1.489 . S
C1428 C477 1.490 . S
C1443 C654 1.488 . S
C1455 C123 1.492 . S
C1470 C182 1.494 . S
C1482 C595 1.490 . S
C1497 C241 1.493 . S
C1509 C772 1.498 . S
C1524 C713 1.489 . S
C1536 C300 1.492 . S
C1551 C359 1.493 . S
C1563 C890 1.489 . S
C1578 C831 1.492 . S
C1590 C418 1.489 . S
C1605 C33 1.281 . S
C1617 C151 1.294 . S
C1632 C210 1.274 . S
C1644 C92 1.234 . S
C1659 C387 1.236 . S
C1671 C269 1.286 . S
C1686 C446 1.300 . S
C1698 C328 1.237 . S
C1713 C623 1.260 . S
C1725 C505 1.301 . S
C1740 C564 1.255 . S
C1752 C682 1.301 . S
C1767 C859 1.237 . S
C1779 C741 1.283 . S
C1794 C800 1.255 . S
C1806 C918 1.296 . S
