# Generated by pormake.
# Topology crs, (6)-cn, num edge types: 1
# Building blocks:
#     Node 0, Type 0, BuildingBlock: KUMJIN_clean_sbu_1, # of connection points: 6
#     Node 1, Type 0, BuildingBlock: KUMJIN_clean_sbu_1, # of connection points: 6
#     Node 2, Type 0, BuildingBlock: KUMJIN_clean_sbu_1, # of connection points: 6
#     Node 3, Type 0, BuildingBlock: KUMJIN_clean_sbu_1, # of connection points: 6
#     Node 4, Type 0, BuildingBlock: KUMJIN_clean_sbu_1, # of connection points: 6
#     Node 5, Type 0, BuildingBlock: KUMJIN_clean_sbu_1, # of connection points: 6
#     Node 6, Type 0, BuildingBlock: KUMJIN_clean_sbu_1, # of connection points: 6
#     Node 7, Type 0, BuildingBlock: KUMJIN_clean_sbu_1, # of connection points: 6
#     Node 8, Type 0, BuildingBlock: KUMJIN_clean_sbu_1, # of connection points: 6
#     Node 9, Type 0, BuildingBlock: KUMJIN_clean_sbu_1, # of connection points: 6
#     Node 10, Type 0, BuildingBlock: KUMJIN_clean_sbu_1, # of connection points: 6
#     Node 11, Type 0, BuildingBlock: KUMJIN_clean_sbu_1, # of connection points: 6
#     Node 12, Type 0, BuildingBlock: KUMJIN_clean_sbu_1, # of connection points: 6
#     Node 13, Type 0, BuildingBlock: KUMJIN_clean_sbu_1, # of connection points: 6
#     Node 14, Type 0, BuildingBlock: KUMJIN_clean_sbu_1, # of connection points: 6
#     Node 15, Type 0, BuildingBlock: KUMJIN_clean_sbu_1, # of connection points: 6
#     Edge 16, Type (0, 0), BuildingBlock: UVAHIK_clean_linker_0, # of connection points: 2
#     Edge 17, Type (0, 0), BuildingBlock: UVAHIK_clean_linker_0, # of connection points: 2
#     Edge 18, Type (0, 0), BuildingBlock: UVAHIK_clean_linker_0, # of connection points: 2
#     Edge 19, Type (0, 0), BuildingBlock: UVAHIK_clean_linker_0, # of connection points: 2
#     Edge 20, Type (0, 0), BuildingBlock: UVAHIK_clean_linker_0, # of connection points: 2
#     Edge 21, Type (0, 0), BuildingBlock: UVAHIK_clean_linker_0, # of connection points: 2
#     Edge 22, Type (0, 0), BuildingBlock: UVAHIK_clean_linker_0, # of connection points: 2
#     Edge 23, Type (0, 0), BuildingBlock: UVAHIK_clean_linker_0, # of connection points: 2
#     Edge 24, Type (0, 0), BuildingBlock: UVAHIK_clean_linker_0, # of connection points: 2
#     Edge 25, Type (0, 0), BuildingBlock: UVAHIK_clean_linker_0, # of connection points: 2
#     Edge 26, Type (0, 0), BuildingBlock: UVAHIK_clean_linker_0, # of connection points: 2
#     Edge 27, Type (0, 0), BuildingBlock: UVAHIK_clean_linker_0, # of connection points: 2
#     Edge 28, Type (0, 0), BuildingBlock: UVAHIK_clean_linker_0, # of connection points: 2
#     Edge 29, Type (0, 0), BuildingBlock: UVAHIK_clean_linker_0, # of connection points: 2
#     Edge 30, Type (0, 0), BuildingBlock: UVAHIK_clean_linker_0, # of connection points: 2
#     Edge 31, Type (0, 0), BuildingBlock: UVAHIK_clean_linker_0, # of connection points: 2
#     Edge 32, Type (0, 0), BuildingBlock: UVAHIK_clean_linker_0, # of connection points: 2
#     Edge 33, Type (0, 0), BuildingBlock: UVAHIK_clean_linker_0, # of connection points: 2
#     Edge 34, Type (0, 0), BuildingBlock: UVAHIK_clean_linker_0, # of connection points: 2
#     Edge 35, Type (0, 0), BuildingBlock: UVAHIK_clean_linker_0, # of connection points: 2
#     Edge 36, Type (0, 0), BuildingBlock: UVAHIK_clean_linker_0, # of connection points: 2
#     Edge 37, Type (0, 0), BuildingBlock: UVAHIK_clean_linker_0, # of connection points: 2
#     Edge 38, Type (0, 0), BuildingBlock: UVAHIK_clean_linker_0, # of connection points: 2
#     Edge 39, Type (0, 0), BuildingBlock: UVAHIK_clean_linker_0, # of connection points: 2
#     Edge 40, Type (0, 0), BuildingBlock: UVAHIK_clean_linker_0, # of connection points: 2
#     Edge 41, Type (0, 0), BuildingBlock: UVAHIK_clean_linker_0, # of connection points: 2
#     Edge 42, Type (0, 0), BuildingBlock: UVAHIK_clean_linker_0, # of connection points: 2
#     Edge 43, Type (0, 0), BuildingBlock: UVAHIK_clean_linker_0, # of connection points: 2
#     Edge 44, Type (0, 0), BuildingBlock: UVAHIK_clean_linker_0, # of connection points: 2
#     Edge 45, Type (0, 0), BuildingBlock: UVAHIK_clean_linker_0, # of connection points: 2
#     Edge 46, Type (0, 0), BuildingBlock: UVAHIK_clean_linker_0, # of connection points: 2
#     Edge 47, Type (0, 0), BuildingBlock: UVAHIK_clean_linker_0, # of connection points: 2
#     Edge 48, Type (0, 0), BuildingBlock: UVAHIK_clean_linker_0, # of connection points: 2
#     Edge 49, Type (0, 0), BuildingBlock: UVAHIK_clean_linker_0, # of connection points: 2
#     Edge 50, Type (0, 0), BuildingBlock: UVAHIK_clean_linker_0, # of connection points: 2
#     Edge 51, Type (0, 0), BuildingBlock: UVAHIK_clean_linker_0, # of connection points: 2
#     Edge 52, Type (0, 0), BuildingBlock: UVAHIK_clean_linker_0, # of connection points: 2
#     Edge 53, Type (0, 0), BuildingBlock: UVAHIK_clean_linker_0, # of connection points: 2
#     Edge 54, Type (0, 0), BuildingBlock: UVAHIK_clean_linker_0, # of connection points: 2
#     Edge 55, Type (0, 0), BuildingBlock: UVAHIK_clean_linker_0, # of connection points: 2
#     Edge 56, Type (0, 0), BuildingBlock: UVAHIK_clean_linker_0, # of connection points: 2
#     Edge 57, Type (0, 0), BuildingBlock: UVAHIK_clean_linker_0, # of connection points: 2
#     Edge 58, Type (0, 0), BuildingBlock: UVAHIK_clean_linker_0, # of connection points: 2
#     Edge 59, Type (0, 0), BuildingBlock: UVAHIK_clean_linker_0, # of connection points: 2
#     Edge 60, Type (0, 0), BuildingBlock: UVAHIK_clean_linker_0, # of connection points: 2
#     Edge 61, Type (0, 0), BuildingBlock: UVAHIK_clean_linker_0, # of connection points: 2
#     Edge 62, Type (0, 0), BuildingBlock: UVAHIK_clean_linker_0, # of connection points: 2
#     Edge 63, Type (0, 0), BuildingBlock: UVAHIK_clean_linker_0, # of connection points: 2
# Relax obj value: 0.212
# Max RMSD: 0.279
# Mean RMSD: 0.247
data_MOF--net-crs--node1-KUMJIN_clean_sbu_1--edge1-UVAHIK_clean_linker_0
_symmetry_space_group_name_H-M    P1
_symmetry_Int_Tables_number       1
_symmetry_cell_setting            triclinic
loop_
_symmetry_equiv_pos_as_xyz
'x, y, z'
_cell_length_a     67.690235
_cell_length_b     67.42596
_cell_length_c     53.060954
_cell_angle_alpha  79.408773
_cell_angle_beta   79.125094
_cell_angle_gamma 71.416604
loop_
_atom_site_label
_atom_site_type_symbol
_atom_site_fract_x
_atom_site_fract_y
_atom_site_fract_z
_atom_type_partial_charge
Eu0 Eu 0.98352 0.9903 0.03283 0.0
C1 C 0.00197 0.03685 0.90934 0.0
N2 N 0.01509 0.01962 0.92179 0.0
C3 C 0.02706 0.00431 0.88204 0.0
C4 C 0.00044 0.03803 0.88287 0.0
C5 C 0.02841 0.00401 0.90806 0.0
C6 C 0.01282 0.02126 0.86946 0.0
C7 C 0.97759 0.07223 0.90996 0.0
C8 C 0.99051 0.05378 0.92275 0.0
C9 C 0.97576 0.07319 0.88383 0.0
C10 C 0.98708 0.05611 0.87036 0.0
Eu11 Eu 0.01601 0.02149 0.966 0.0
N12 N 0.9924 0.05251 0.9481 0.0
C13 C 0.96724 0.08941 0.92365 0.0
C14 C 0.9831 0.06954 0.96119 0.0
C15 C 0.97019 0.08812 0.9493 0.0
H16 H 0.04054 0.99139 0.91682 0.0
H17 H 0.96272 0.10151 0.95983 0.0
H18 H 0.96191 0.02524 0.07538 0.0
H19 H 0.03912 0.91153 0.04226 0.0
H20 H 0.98585 0.06886 0.98073 0.0
H21 H 0.95733 0.10389 0.91443 0.0
H22 H 0.01708 0.94364 0.01877 0.0
H23 H 0.03733 0.99166 0.87154 0.0
H24 H 0.96588 0.08721 0.87373 0.0
H25 H 0.98574 0.05724 0.85008 0.0
H26 H 0.96249 0.02663 0.12145 0.0
H27 H 0.01204 0.02158 0.84917 0.0
H28 H 0.04069 0.91009 0.0888 0.0
N29 N 0.9846 0.99505 0.07499 0.0
C30 C -0.00364 0.97779 0.08897 0.0
C31 C 0.97221 0.01291 0.11249 0.0
C32 C -0.00342 0.97764 0.11552 0.0
C33 C 0.97216 0.01222 0.08633 0.0
C34 C 0.98449 0.99556 0.12714 0.0
N35 N 0.0072 0.96021 0.05136 0.0
C36 C 0.01818 0.94327 0.03882 0.0
C37 C 0.01996 0.94187 0.09116 0.0
C38 C 0.00791 0.95996 0.07689 0.0
C39 C 0.03132 0.92432 0.07846 0.0
C40 C 0.0305 0.92507 0.05216 0.0
H41 H 0.98423 0.99603 0.14751 0.0
H42 H 0.00866 0.95908 0.15022 0.0
H43 H 0.02911 0.92788 0.12895 0.0
O44 O 0.97051 0.96367 0.04006 0.0
O45 O 0.01436 0.995 0.03746 0.0
O46 O 0.03453 0.99713 0.99616 0.0
O47 O 0.95135 0.99428 0.05169 0.0
O48 O 0.00285 0.98622 0.99533 0.0
O49 O 0.022 0.98769 0.95843 0.0
O50 O 0.02934 0.04676 0.96719 0.0
O51 O 0.98032 0.0279 0.96974 0.0
O52 O 0.97159 0.99854 0.9943 0.0
O53 O 0.04588 0.02284 0.94245 0.0
O54 O 0.00481 0.03279 0.0057 0.0
O55 O 0.97363 0.02599 0.02724 0.0
C56 C 0.03194 0.99575 0.02178 0.0
C57 C 0.93285 0.97096 0.04589 0.0
C58 C 0.91499 0.9491 0.03268 0.0
C59 C 0.89558 0.96198 0.04323 0.0
C60 C 0.9132 0.98356 0.05646 0.0
C61 C 0.89473 0.9791 0.05506 0.0
C62 C 0.93368 0.95356 0.034 0.0
C63 C 0.01201 0.97661 0.97541 0.0
C64 C 0.95213 0.97478 0.05053 0.0
C65 C 0.00847 0.95953 0.12975 0.0
C66 C 0.02011 0.94173 0.11763 0.0
C67 C 0.96756 0.01601 0.97783 0.0
C68 C 0.06609 0.04183 0.95493 0.0
C69 C 0.08528 0.0625 0.96787 0.0
C70 C 0.1043 0.04895 0.95745 0.0
C71 C 0.08532 0.02848 0.94442 0.0
C72 C 0.06622 0.05891 0.96665 0.0
C73 C 0.10429 0.03202 0.94579 0.0
C74 C 0.98695 0.03737 0.02179 0.0
C75 C 0.04591 0.03985 0.9507 0.0
H76 H 0.88108 0.95862 0.04256 0.0
H77 H 0.91212 0.99662 0.06639 0.0
H78 H 0.87971 0.98878 0.0635 0.0
H79 H 0.94866 0.94335 0.02621 0.0
H80 H 0.11914 0.05167 0.95806 0.0
H81 H 0.0857 0.01558 0.93463 0.0
H82 H 0.05155 0.06972 0.97426 0.0
H83 H 0.11901 0.02181 0.93743 0.0
Eu84 Eu 0.98737 0.24769 0.22668 0.0
C85 C 0.06 0.27122 0.25544 0.0
N86 N 0.05105 0.25638 0.26925 0.0
C87 C 0.08485 0.23341 0.27814 0.0
C88 C 0.08203 0.26733 0.25196 0.0
C89 C 0.06298 0.23792 0.28106 0.0
C90 C 0.09444 0.24813 0.26343 0.0
C91 C 0.0562 0.30573 0.22988 0.0
C92 C 0.04711 0.29029 0.24447 0.0
C93 C 0.07814 0.30177 0.22629 0.0
C94 C 0.09099 0.28267 0.23731 0.0
Eu95 Eu 0.01408 0.26625 0.27501 0.0
N96 N 0.0258 0.29372 0.248 0.0
C97 C 0.04297 0.32482 0.21947 0.0
C98 C 0.01286 0.31273 0.2388 0.0
C99 C 0.02123 0.32838 0.22413 0.0
H100 H 0.05561 0.22687 0.29331 0.0
H101 H 0.01086 0.34334 0.21671 0.0
H102 H 0.94708 0.28622 0.20423 0.0
H103 H 0.98829 0.1698 0.28162 0.0
H104 H -0.00392 0.31636 0.24328 0.0
H105 H 0.04936 0.33705 0.20816 0.0
H106 H 0.00389 0.19643 0.25603 0.0
H107 H 0.09427 0.2187 0.28749 0.0
H108 H 0.08533 0.31347 0.21513 0.0
H109 H 0.10788 0.27995 0.23447 0.0
H110 H 0.90851 0.29456 0.20694 0.0
H111 H 0.11139 0.24462 0.26129 0.0
H112 H 0.94976 0.17635 0.28803 0.0
N113 N 0.95072 0.25611 0.22666 0.0
C114 C 0.94119 0.2415 0.23963 0.0
C115 C 0.9175 0.27961 0.2163 0.0
C116 C 0.91918 0.24565 0.2418 0.0
C117 C 0.93931 0.27491 0.21491 0.0
C118 C 0.90737 0.26496 0.22988 0.0
N119 N 0.97457 0.21926 0.24946 0.0
C120 C 0.98707 0.20021 0.25933 0.0
C121 C 0.94382 0.20738 0.26557 0.0
C122 C 0.95341 0.2226 0.25142 0.0
C123 C 0.95652 0.1884 0.27697 0.0
C124 C 0.97826 0.1847 0.27353 0.0
H125 H 0.89044 0.26871 0.23108 0.0
H126 H 0.89275 0.23355 0.25799 0.0
H127 H 0.91431 0.20005 0.2788 0.0
O128 O 0.00473 0.22615 0.19844 0.0
O129 O 0.96771 0.2527 0.26598 0.0
O130 O 0.98939 0.25031 0.29617 0.0
O131 O 0.97915 0.2536 0.18772 0.0
O132 O 0.01848 0.22503 0.23888 0.0
O133 O 0.02075 0.23056 0.27985 0.0
O134 O 0.01137 0.29146 0.29658 0.0
O135 O 0.0328 0.2569 0.23657 0.0
O136 O 0.00635 0.27067 0.2124 0.0
O137 O 0.02345 0.25914 0.31384 0.0
O138 O 0.98118 0.2878 0.26691 0.0
O139 O 0.97942 0.28326 0.22545 0.0
C140 C 0.97146 0.2502 0.28998 0.0
C141 C 0.98864 0.22552 0.16222 0.0
C142 C -0.00069 0.19615 0.13712 0.0
C143 C 0.9832 0.20686 0.122 0.0
C144 C 0.9724 0.23591 0.14706 0.0
C145 C 0.96971 0.22656 0.12711 0.0
C146 C 0.00196 0.20542 0.15732 0.0
C147 C 0.02683 0.21898 0.26071 0.0
C148 C 0.99351 0.2369 0.18027 0.0
C149 C 0.90964 0.23058 0.25602 0.0
C150 C 0.92191 0.21152 0.2679 0.0
C151 C 0.02641 0.26427 0.21407 0.0
C152 C 0.00745 0.28526 0.34227 0.0
C153 C 0.98778 0.31366 0.3679 0.0
C154 C 0.99296 0.29976 0.39055 0.0
C155 C 0.01277 0.27174 0.36502 0.0
C156 C 0.99454 0.30608 0.34393 0.0
C157 C 0.00526 0.27891 0.38907 0.0
C158 C 0.97199 0.29357 0.24569 0.0
C159 C 0.01812 0.27896 0.31692 0.0
H160 H 0.98079 0.19972 0.10655 0.0
H161 H 0.96208 0.25151 0.15015 0.0
H162 H 0.95726 0.23467 0.11545 0.0
H163 H 0.01462 0.19718 0.1687 0.0
H164 H 0.98862 0.3053 0.40931 0.0
H165 H 0.0233 0.25587 0.36418 0.0
H166 H 0.99085 0.31688 0.32646 0.0
H167 H 0.00978 0.26856 0.40652 0.0
Eu168 Eu 0.76308 0.26264 0.52132 0.0
C169 C 0.75886 0.24007 0.41302 0.0
N170 N 0.74514 0.25546 0.42637 0.0
C171 C 0.73977 0.27918 0.38707 0.0
C172 C 0.76383 0.24393 0.38588 0.0
C173 C 0.73529 0.27464 0.41392 0.0
C174 C 0.75412 0.26377 0.37297 0.0
C175 C 0.78276 0.20448 0.41296 0.0
C176 C 0.76804 0.2204 0.42653 0.0
C177 C 0.78763 0.20831 0.38593 0.0
C178 C 0.77813 0.22792 0.37243 0.0
Eu179 Eu 0.73586 0.2453 0.4705 0.0
N180 N 0.76271 0.21687 0.45276 0.0
C181 C 0.79216 0.18509 0.42691 0.0
C182 C 0.77173 0.19779 0.4663 0.0
C183 C 0.78669 0.18179 0.45367 0.0
H184 H 0.7235 0.28622 0.4246 0.0
H185 H 0.79381 0.16678 0.46459 0.0
H186 H 0.78206 0.22549 0.5695 0.0
H187 H 0.71638 0.34505 0.52738 0.0
H188 H 0.76749 0.19435 0.48674 0.0
H189 H 0.80359 0.17253 0.41719 0.0
H190 H 0.73973 0.31507 0.50596 0.0
H191 H 0.73191 0.29442 0.37722 0.0
H192 H 0.79872 0.19616 0.37525 0.0
H193 H 0.782 0.23056 0.35157 0.0
H194 H 0.77662 0.21912 0.61727 0.0
H195 H 0.75743 0.26727 0.35212 0.0
H196 H 0.70637 0.34069 0.57488 0.0
N197 N 0.75925 0.25551 0.56718 0.0
C198 C 0.7464 0.27134 0.58045 0.0
C199 C 0.76769 0.23373 0.60718 0.0
C200 C 0.74305 0.26862 0.60779 0.0
C201 C 0.7704 0.23714 0.58011 0.0
C202 C 0.75371 0.24942 0.62111 0.0
N203 N 0.74172 0.29309 0.54044 0.0
C204 C 0.73498 0.31255 0.52647 0.0
C205 C 0.72441 0.30768 0.57991 0.0
C206 C 0.73735 0.29068 0.5667 0.0
C207 C 0.71637 0.32727 0.56547 0.0
C208 C 0.72194 0.32978 0.53866 0.0
H209 H 0.75173 0.2468 0.64208 0.0
H210 H 0.7268 0.28342 0.64195 0.0
H211 H 0.71031 0.31758 0.61749 0.0
O212 O 0.78498 0.28095 0.50473 0.0
O213 O 0.72703 0.27169 0.52869 0.0
O214 O 0.71803 0.24725 0.51099 0.0
O215 O 0.7924 0.25623 0.53677 0.0
O216 O 0.7571 0.28395 0.48362 0.0
O217 O 0.72695 0.28062 0.47287 0.0
O218 O 0.72189 0.22534 0.45638 0.0
O219 O 0.76655 0.25282 0.45701 0.0
O220 O 0.78053 0.2386 0.49382 0.0
O221 O 0.70482 0.25839 0.45783 0.0
O222 O 0.7412 0.22131 0.50685 0.0
O223 O 0.76397 0.22807 0.53031 0.0
C224 C 0.71387 0.26128 0.527 0.0
C225 C 0.80618 0.28499 0.53307 0.0
C226 C 0.82157 0.3138 0.5273 0.0
C227 C 0.8242 0.30951 0.55357 0.0
C228 C 0.80909 0.28071 0.55932 0.0
C229 C 0.81807 0.29296 0.56945 0.0
C230 C 0.81267 0.30147 0.51709 0.0
C231 C 0.7405 0.29129 0.47142 0.0
C232 C 0.79792 0.27158 0.52155 0.0
C233 C 0.72968 0.28529 0.62098 0.0
C234 C 0.72031 0.30475 0.60706 0.0
C235 C 0.78311 0.24505 0.4689 0.0
C236 C 0.68477 0.23457 0.46347 0.0
C237 C 0.66586 0.2103 0.4879 0.0
C238 C 0.64703 0.22447 0.48022 0.0
C239 C 0.66584 0.24839 0.45593 0.0
C240 C 0.68478 0.21539 0.47944 0.0
C241 C 0.64706 0.24335 0.46435 0.0
C242 C 0.75324 0.21617 0.52547 0.0
C243 C 0.7043 0.24016 0.45347 0.0
H244 H 0.83156 0.31859 0.56158 0.0
H245 H 0.80469 0.26778 0.57197 0.0
H246 H 0.82055 0.28944 0.58955 0.0
H247 H 0.8111 0.30452 0.49666 0.0
H248 H 0.63231 0.2206 0.48576 0.0
H249 H 0.66563 0.26301 0.44328 0.0
H250 H 0.69935 0.20436 0.48502 0.0
H251 H 0.63252 0.25394 0.45822 0.0
Eu252 Eu 0.75753 0.01717 0.77784 0.0
C253 C 0.73106 0.94619 0.74218 0.0
N254 N 0.74616 0.95512 0.72937 0.0
C255 C 0.76847 0.92143 0.7184 0.0
C256 C 0.73435 0.92426 0.74393 0.0
C257 C 0.76452 0.9432 0.7172 0.0
C258 C 0.75337 0.91189 0.73194 0.0
C259 C 0.69638 0.95008 0.7671 0.0
C260 C 0.71233 0.95901 0.75384 0.0
C261 C 0.69968 0.92824 0.769 0.0
C262 C 0.71862 0.91538 0.75749 0.0
Eu263 Eu 0.73805 0.99202 0.72779 0.0
N264 N 0.70978 0.98008 0.7524 0.0
C265 C 0.67753 0.96336 0.77815 0.0
C266 C 0.69107 0.99313 0.76234 0.0
C267 C 0.67484 0.98498 0.77559 0.0
H268 H 0.77589 0.9506 0.70595 0.0
H269 H 0.66014 0.99544 0.78361 0.0
H270 H 0.7218 0.05788 0.8038 0.0
H271 H 0.83457 0.01429 0.71931 0.0
H272 H 0.68814 0.0099 0.75965 0.0
H273 H 0.66492 0.95712 0.78848 0.0
H274 H 0.808 0.99947 0.74654 0.0
H275 H 0.78308 0.91206 0.70869 0.0
H276 H 0.68766 0.92115 0.77929 0.0
H277 H 0.7209 0.89856 0.75909 0.0
H278 H 0.71507 0.09628 0.80221 0.0
H279 H 0.75645 0.89501 0.7328 0.0
H280 H 0.8291 0.05279 0.71289 0.0
N281 N 0.75086 0.05366 0.77891 0.0
C282 C 0.76542 0.06283 0.76493 0.0
C283 C 0.72924 0.08709 0.79152 0.0
C284 C 0.76216 0.08475 0.7633 0.0
C285 C 0.73302 0.06537 0.79227 0.0
C286 C 0.74381 0.09685 0.77685 0.0
N287 N 0.78612 0.02918 0.75382 0.0
C288 C 0.80463 0.01627 0.74315 0.0
C289 C 0.79875 0.05945 0.73695 0.0
C290 C 0.78349 0.05028 0.75192 0.0
C291 C 0.81705 0.04636 0.72459 0.0
C292 C 0.82013 0.02465 0.72804 0.0
H293 H 0.74078 0.11371 0.77617 0.0
H294 H 0.77487 0.11073 0.74654 0.0
H295 H 0.80689 0.08858 0.72342 0.0
O296 O 0.77965 0.99956 0.80484 0.0
O297 O 0.75129 0.03712 0.73939 0.0
O298 O 0.75932 0.01285 0.71109 0.0
O299 O 0.75183 0.02412 0.81748 0.0
O300 O 0.77878 0.98541 0.76546 0.0
O301 O 0.77375 0.9837 0.72407 0.0
O302 O 0.71372 0.00566 0.70242 0.0
O303 O 0.74459 0.97216 0.76642 0.0
O304 O 0.73426 0.99855 0.79137 0.0
O305 O 0.74321 0.9825 0.68927 0.0
O306 O 0.71695 0.02438 0.73869 0.0
O307 O 0.72183 0.02726 0.77981 0.0
C308 C 0.75575 0.03225 0.71575 0.0
C309 C 0.78111 0.01599 0.84013 0.0
C310 C 0.81078 0.00564 0.86407 0.0
C311 C 0.80177 0.02372 0.8766 0.0
C312 C 0.77231 0.03417 0.85263 0.0
C313 C 0.78269 0.03798 0.87075 0.0
C314 C 0.80054 1.00185 0.84577 0.0
C315 C 0.78488 0.97708 0.74353 0.0
C316 C 0.76913 0.01027 0.8237 0.0
C317 C 0.77718 0.09391 0.74814 0.0
C318 C 0.7954 0.0813 0.73495 0.0
C319 C 0.73957 0.97852 0.78921 0.0
C320 C 0.7173 0.9959 0.65949 0.0
C321 C 0.68991 0.01006 0.63161 0.0
C322 C 0.70268 0.99714 0.61313 0.0
C323 C 0.72974 0.98302 0.6409 0.0
C324 C 0.69733 0.00939 0.65479 0.0
C325 C 0.72244 0.98371 0.61781 0.0
C326 C 0.71102 0.0336 0.76002 0.0
C327 C 0.72478 0.99452 0.68418 0.0
H328 H 0.80968 0.0269 0.8907 0.0
H329 H 0.75725 0.04521 0.84884 0.0
H330 H 0.77583 0.05191 0.88044 0.0
H331 H 0.80746 0.98768 0.83648 0.0
H332 H 0.69705 0.99681 0.59545 0.0
H333 H 0.745 0.97222 0.64431 0.0
H334 H 0.6874 0.01905 0.66926 0.0
H335 H 0.73195 0.97353 0.60371 0.0
Eu336 Eu 0.48771 0.74821 0.22795 0.0
C337 C 0.55965 0.77363 0.25524 0.0
N338 N 0.55103 0.75896 0.27015 0.0
C339 C 0.58507 0.7371 0.27969 0.0
C340 C 0.58163 0.77018 0.25145 0.0
C341 C 0.56326 0.74109 0.28271 0.0
C342 C 0.59432 0.75165 0.26389 0.0
C343 C 0.55523 0.80714 0.2273 0.0
C344 C 0.54646 0.79202 0.24338 0.0
C345 C 0.57712 0.80362 0.22336 0.0
C346 C 0.59026 0.78525 0.23547 0.0
Eu347 Eu 0.51408 0.76776 0.27595 0.0
N348 N 0.5252 0.79509 0.24747 0.0
C349 C 0.54174 0.82553 0.21581 0.0
C350 C 0.51201 0.81365 0.23752 0.0
C351 C 0.52005 0.82887 0.22115 0.0
H352 H 0.55613 0.73017 0.29563 0.0
H353 H 0.50946 0.84339 0.21305 0.0
H354 H 0.44837 0.78714 0.20382 0.0
H355 H 0.48628 0.67159 0.28477 0.0
H356 H 0.49529 0.81735 0.24263 0.0
H357 H 0.54788 0.83746 0.20329 0.0
H358 H 0.50266 0.69803 0.26052 0.0
H359 H 0.59471 0.7229 0.28973 0.0
H360 H 0.58406 0.8151 0.21111 0.0
H361 H 0.6071 0.78286 0.23237 0.0
H362 H 0.40997 0.79574 0.20448 0.0
H363 H 0.61124 0.74852 0.26161 0.0
H364 H 0.44791 0.67811 0.28812 0.0
N365 N 0.45113 0.75738 0.22688 0.0
C366 C 0.44121 0.74294 0.23934 0.0
C367 C 0.41854 0.78088 0.21446 0.0
C368 C 0.41932 0.74713 0.24005 0.0
C369 C 0.44024 0.77608 0.21434 0.0
C370 C 0.40802 0.76637 0.22741 0.0
N371 N 0.4739 0.72071 0.2515 0.0
C372 C 0.48589 0.70181 0.26245 0.0
C373 C 0.44286 0.709 0.26539 0.0
C374 C 0.45287 0.7241 0.25197 0.0
C375 C 0.45501 0.69009 0.27766 0.0
C376 C 0.47664 0.68642 0.27594 0.0
H377 H 0.39121 0.77015 0.2275 0.0
H378 H 0.39257 0.73511 0.25425 0.0
H379 H 0.41318 0.70172 0.27637 0.0
O380 O 0.50417 0.72443 0.20241 0.0
O381 O 0.46823 0.75321 0.26706 0.0
O382 O 0.48961 0.75164 0.29726 0.0
O383 O 0.47971 0.75263 0.18867 0.0
O384 O 0.51839 0.72549 0.24098 0.0
O385 O 0.52171 0.73186 0.28124 0.0
O386 O 0.51004 0.79339 0.29782 0.0
O387 O 0.53321 0.75705 0.23834 0.0
O388 O 0.50782 0.7701 0.21233 0.0
O389 O 0.52395 0.76123 0.31434 0.0
O390 O 0.48114 0.78864 0.26741 0.0
O391 O 0.48017 0.78375 0.22587 0.0
C392 C 0.4718 0.75126 0.29101 0.0
C393 C 0.49715 0.72704 0.15871 0.0
C394 C 0.50798 0.69738 0.13418 0.0
C395 C 0.50425 0.71153 0.11137 0.0
C396 C 0.49303 0.74103 0.13594 0.0
C397 C 0.49678 0.73325 0.11231 0.0
C398 C 0.5047 0.70526 0.15773 0.0
C399 C 0.52701 0.71976 0.26262 0.0
C400 C 0.49365 0.73495 0.18354 0.0
C401 C 0.40936 0.73214 0.25348 0.0
C402 C 0.42109 0.71314 0.26611 0.0
C403 C 0.52769 0.76372 0.21528 0.0
C404 C 0.5081 0.78663 0.34369 0.0
C405 C 0.48972 0.81419 0.37115 0.0
C406 C 0.49596 0.79968 0.39297 0.0
C407 C 0.51447 0.77254 0.36569 0.0
C408 C 0.49532 0.80731 0.34666 0.0
C409 C 0.50813 0.77898 0.39021 0.0
C410 C 0.47218 0.79405 0.24604 0.0
C411 C 0.51783 0.78101 0.3177 0.0
H412 H 0.50625 0.70577 0.09301 0.0
H413 H 0.48707 0.75792 0.1364 0.0
H414 H 0.49355 0.74405 0.09476 0.0
H415 H 0.50748 0.69439 0.1754 0.0
H416 H 0.49256 0.80461 0.41203 0.0
H417 H 0.52495 0.75678 0.36387 0.0
H418 H 0.49086 0.81849 0.32973 0.0
H419 H 0.51349 0.76818 0.40701 0.0
Eu420 Eu 0.23988 0.74126 0.47352 0.0
C421 C 0.25989 0.75373 0.58272 0.0
N422 N 0.24436 0.76582 0.56872 0.0
C423 C 0.21936 0.76941 0.60739 0.0
C424 C 0.25556 0.74868 0.60981 0.0
C425 C 0.22441 0.77403 0.58061 0.0
C426 C 0.23497 0.75655 0.62204 0.0
C427 C 0.29678 0.73452 0.58419 0.0
C428 C 0.28025 0.74654 0.56996 0.0
C429 C 0.29241 0.72908 0.61107 0.0
C430 C 0.27187 0.73612 0.62383 0.0
Eu431 Eu 0.25404 0.77165 0.52353 0.0
N432 N 0.28404 0.75189 0.54385 0.0
C433 C 0.31732 0.72879 0.57112 0.0
C434 C 0.30425 0.74779 0.5315 0.0
C435 C 0.3211 0.73582 0.54476 0.0
H436 H 0.21252 0.78449 0.56947 0.0
H437 H 0.33704 0.73233 0.53471 0.0
H438 H 0.2786 0.72798 0.42476 0.0
H439 H 0.15988 0.79612 0.47251 0.0
H440 H 0.30769 0.75421 0.51166 0.0
H441 H 0.33043 0.71963 0.58137 0.0
H442 H 0.18857 0.76964 0.4923 0.0
H443 H 0.20348 0.77588 0.61672 0.0
H444 H 0.3049 0.71974 0.62223 0.0
H445 H 0.26881 0.73201 0.64462 0.0
H446 H 0.28447 0.73623 0.37711 0.0
H447 H 0.23102 0.75304 0.6428 0.0
H448 H 0.16415 0.80742 0.42534 0.0
N449 N 0.24777 0.74944 0.42866 0.0
C450 C 0.23177 0.76317 0.41653 0.0
C451 C 0.26966 0.74403 0.38797 0.0
C452 C 0.23443 0.76821 0.38933 0.0
C453 C 0.26636 0.73954 0.41495 0.0
C454 C 0.25365 0.75846 0.37511 0.0
N455 N 0.21047 0.76743 0.45764 0.0
C456 C 0.19148 0.77518 0.47217 0.0
C457 C 0.19623 0.78725 0.419 0.0
C458 C 0.2128 0.77262 0.43136 0.0
C459 C 0.17723 0.79615 0.43412 0.0
C460 C 0.17479 0.78992 0.46077 0.0
H461 H 0.25625 0.76188 0.35419 0.0
H462 H 0.21972 0.78686 0.35631 0.0
H463 H 0.18636 0.80351 0.38222 0.0
O464 O 0.21776 0.72689 0.46562 0.0
O465 O 0.24696 0.7723 0.4583 0.0
O466 O 0.23198 0.78821 0.49409 0.0
O467 O 0.25087 0.71034 0.45952 0.0
O468 O 0.21885 0.74415 0.5126 0.0
O469 O 0.21967 0.77552 0.52302 0.0
O470 O 0.26848 0.79647 0.50726 0.0
O471 O 0.25326 0.73799 0.53938 0.0
O472 O 0.25905 0.72002 0.50417 0.0
O473 O 0.24738 0.79929 0.54342 0.0
O474 O 0.27897 0.7622 0.48891 0.0
O475 O 0.27499 0.73482 0.47091 0.0
C476 C 0.23933 0.78952 0.46938 0.0
C477 C 0.22705 0.68983 0.4732 0.0
C478 C 0.20078 0.67236 0.49476 0.0
C479 C 0.21634 0.65272 0.49432 0.0
C480 C 0.24238 0.6701 0.47247 0.0
C481 C 0.23705 0.65166 0.4833 0.0
C482 C 0.2064 0.69077 0.48471 0.0
C483 C 0.21162 0.75966 0.52696 0.0
C484 C 0.23188 0.70936 0.46038 0.0
C485 C 0.21794 0.78281 0.37717 0.0
C486 C 0.19895 0.79233 0.39195 0.0
C487 C 0.25732 0.72046 0.52917 0.0
C488 C 0.2748 0.81567 0.53631 0.0
C489 C 0.30577 0.82804 0.5282 0.0
C490 C 0.30124 0.83353 0.55337 0.0
C491 C 0.27033 0.82142 0.5614 0.0
C492 C 0.29246 0.81934 0.51965 0.0
C493 C 0.28354 0.83031 0.56983 0.0
C494 C 0.28598 0.74684 0.47432 0.0
C495 C 0.26044 0.80731 0.52663 0.0
H496 H 0.21232 0.63817 0.50138 0.0
H497 H 0.25835 0.66893 0.46327 0.0
H498 H 0.24885 0.63646 0.48247 0.0
H499 H 0.19431 0.70586 0.48504 0.0
H500 H 0.31115 0.84077 0.56003 0.0
H501 H 0.25654 0.81929 0.57438 0.0
H502 H 0.29581 0.81564 0.49995 0.0
H503 H 0.27994 0.83492 0.58906 0.0
Eu504 Eu 0.25864 0.51934 0.77703 0.0
C505 C 0.2334 0.44899 0.73663 0.0
N506 N 0.24855 0.45828 0.72516 0.0
C507 C 0.27195 0.42489 0.71459 0.0
C508 C 0.23721 0.42701 0.73796 0.0
C509 C 0.2675 0.4467 0.71382 0.0
C510 C 0.2568 0.41497 0.72686 0.0
C511 C 0.1981 0.45218 0.75937 0.0
C512 C 0.21411 0.46146 0.74738 0.0
C513 C 0.20194 0.43029 0.76096 0.0
C514 C 0.22143 0.41774 0.75032 0.0
Eu515 Eu 0.24013 0.495 0.72584 0.0
N516 N 0.21108 0.48256 0.74641 0.0
C517 C 0.17873 0.46516 0.76962 0.0
C518 C 0.19187 0.49535 0.75542 0.0
C519 C 0.17556 0.48685 0.76741 0.0
H520 H 0.27908 0.45434 0.70379 0.0
H521 H 0.16048 0.49708 0.77479 0.0
H522 H 0.22045 0.56032 0.79939 0.0
H523 H 0.33446 0.51735 0.71636 0.0
H524 H 0.18868 0.51218 0.75306 0.0
H525 H 0.16608 0.45864 0.77903 0.0
H526 H 0.30769 0.50219 0.74269 0.0
H527 H 0.28705 0.41577 0.70566 0.0
H528 H 0.1899 0.42291 0.77035 0.0
H529 H 0.22413 0.40087 0.75166 0.0
H530 H 0.2132 0.59884 0.79734 0.0
H531 H 0.26031 0.39806 0.72748 0.0
H532 H 0.32926 0.55574 0.71174 0.0
N533 N 0.25038 0.5561 0.77629 0.0
C534 C 0.26523 0.56525 0.76315 0.0
C535 C 0.22785 0.58959 0.78758 0.0
C536 C 0.26172 0.58721 0.76149 0.0
C537 C 0.23193 0.56782 0.78854 0.0
C538 C 0.2428 0.59934 0.77399 0.0
N539 N 0.28626 0.5317 0.75145 0.0
C540 C 0.30457 0.51898 0.74014 0.0
C541 C 0.29887 0.56208 0.73575 0.0
C542 C 0.2836 0.55277 0.7503 0.0
C543 C 0.31717 0.54918 0.7231 0.0
C544 C 0.3201 0.52753 0.72552 0.0
H545 H 0.23954 0.61624 0.77317 0.0
H546 H 0.27451 0.61325 0.74557 0.0
H547 H 0.30702 0.59128 0.72312 0.0
O548 O 0.28358 0.50595 0.80138 0.0
O549 O 0.25098 0.53985 0.73923 0.0
O550 O 0.26218 0.51519 0.71177 0.0
O551 O 0.25382 0.5281 0.81599 0.0
O552 O 0.27899 0.48661 0.76684 0.0
O553 O 0.27553 0.48645 0.72459 0.0
O554 O 0.21887 0.51251 0.69782 0.0
O555 O 0.2436 0.47514 0.76546 0.0
O556 O 0.23723 0.49905 0.79416 0.0
O557 O 0.24635 0.48704 0.68659 0.0
O558 O 0.21819 0.52621 0.73884 0.0
O559 O 0.22291 0.52739 0.78059 0.0
C560 C 0.2566 0.53496 0.71566 0.0
C561 C 0.2806 0.51447 0.8447 0.0
C562 C 0.30923 0.50124 0.87064 0.0
C563 C 0.29569 0.5107 0.89148 0.0
C564 C 0.26731 0.52409 0.86557 0.0
C565 C 0.27487 0.52215 0.88887 0.0
C566 C 0.30167 0.50319 0.84724 0.0
C567 C 0.2853 0.47826 0.74499 0.0
C568 C 0.27254 0.5163 0.82031 0.0
C569 C 0.27696 0.59642 0.74707 0.0
C570 C 0.29546 0.5839 0.73424 0.0
C571 C 0.23941 0.48009 0.78914 0.0
C572 C 0.21725 0.49499 0.66364 0.0
C573 C 0.18725 0.50454 0.64035 0.0
C574 C 0.19625 0.48622 0.62829 0.0
C575 C 0.22604 0.47659 0.65157 0.0
C576 C 0.19766 0.50887 0.65808 0.0
C577 C 0.2155 0.47225 0.63402 0.0
C578 C 0.21192 0.53422 0.76098 0.0
C579 C 0.22936 0.50105 0.67963 0.0
H580 H 0.30144 0.50978 0.90951 0.0
H581 H 0.2511 0.53309 0.86392 0.0
H582 H 0.26464 0.52971 0.90485 0.0
H583 H 0.31225 0.49611 0.83108 0.0
H584 H 0.18826 0.48269 0.61455 0.0
H585 H 0.24122 0.46574 0.65526 0.0
H586 H 0.19075 0.52325 0.66695 0.0
H587 H 0.22237 0.45816 0.62464 0.0
Eu588 Eu 0.98163 0.49092 0.53963 0.0
C589 C 0.00026 0.53551 0.41212 0.0
N590 N 0.0127 0.51827 0.42541 0.0
C591 C 0.02511 0.50178 0.38672 0.0
C592 C -0.00077 0.5361 0.38565 0.0
C593 C 0.02598 0.50216 0.41275 0.0
C594 C 0.01144 0.51869 0.3732 0.0
C595 C 0.97754 0.57173 0.41075 0.0
C596 C 0.98946 0.55317 0.42453 0.0
C597 C 0.97604 0.57208 0.38463 0.0
C598 C 0.98681 0.55431 0.37214 0.0
Eu599 Eu 0.01376 0.52114 0.4688 0.0
N600 N 0.99149 0.55262 0.44964 0.0
C601 C 0.96802 0.58964 0.42338 0.0
C602 C 0.98288 0.57024 0.46177 0.0
C603 C 0.97083 0.58892 0.44896 0.0
H604 H 0.0378 0.48998 0.42247 0.0
H605 H 0.96392 0.60281 0.45873 0.0
H606 H 0.95996 0.52277 0.5867 0.0
H607 H 0.03305 0.40955 0.54697 0.0
H608 H 0.9854 0.56988 0.48128 0.0
H609 H 0.95887 0.60421 0.41339 0.0
H610 H 0.01082 0.44214 0.52532 0.0
H611 H 0.03541 0.48874 0.37691 0.0
H612 H 0.96697 0.5862 0.37376 0.0
H613 H 0.98588 0.55502 0.35181 0.0
H614 H 0.96339 0.52282 0.63189 0.0
H615 H 0.01111 0.51856 0.3529 0.0
H616 H 0.0383 0.40752 0.59231 0.0
N617 N 0.9838 0.49335 0.58286 0.0
C618 C -0.00384 0.47575 0.59564 0.0
C619 C 0.97296 0.50965 0.62182 0.0
C620 C -0.00205 0.47489 0.62196 0.0
C621 C 0.97144 0.50972 0.59591 0.0
C622 C 0.98647 0.49227 0.63482 0.0
N623 N 0.00405 0.45899 0.55766 0.0
C624 C 0.01328 0.4418 0.54486 0.0
C625 C 0.01895 0.43962 0.59596 0.0
C626 C 0.00649 0.45817 0.58277 0.0
C627 C 0.0287 0.42207 0.58279 0.0
C628 C 0.0258 0.42315 0.55717 0.0
H629 H 0.9874 0.49216 0.65501 0.0
H630 H 0.01212 0.45565 0.65506 0.0
H631 H 0.03054 0.42484 0.63233 0.0
O632 O 0.96614 0.46688 0.55621 0.0
O633 O 0.01545 0.48994 0.53888 0.0
O634 O 0.03444 0.49805 0.49782 0.0
O635 O 0.94789 0.50009 0.55373 0.0
O636 O 0.99494 0.47594 0.50232 0.0
O637 O 0.01713 0.4872 0.46608 0.0
O638 O 0.02665 0.54545 0.47463 0.0
O639 O 0.97812 0.52991 0.47693 0.0
O640 O 0.96828 0.50109 0.50143 0.0
O641 O 0.04351 0.52363 0.44677 0.0
O642 O -0.00311 0.5205 0.50768 0.0
O643 O 0.97766 0.52479 0.54397 0.0
C644 C 0.0328 0.49142 0.52323 0.0
C645 C 0.92957 0.47507 0.55463 0.0
C646 C 0.91466 0.45278 0.53746 0.0
C647 C 0.8947 0.46289 0.54991 0.0
C648 C 0.90947 0.48505 0.56683 0.0
C649 C 0.89212 0.47901 0.56441 0.0
C650 C 0.93215 0.45893 0.53965 0.0
C651 C 0.00688 0.47391 0.47936 0.0
C652 C 0.94758 0.48049 0.56012 0.0
C653 C 0.0106 0.45654 0.63488 0.0
C654 C 0.02106 0.43898 0.62194 0.0
C655 C 0.96687 0.51653 0.48188 0.0
C656 C 0.06361 0.53935 0.46449 0.0
C657 C 0.0835 0.55956 0.4762 0.0
C658 C 0.10218 0.54334 0.47114 0.0
C659 C 0.08239 0.52313 0.45921 0.0
C660 C 0.06432 0.55744 0.4731 0.0
C661 C 0.10157 0.52508 0.46282 0.0
C662 C 0.98902 0.53285 0.52532 0.0
C663 C 0.04353 0.53926 0.45805 0.0
H664 H 0.88111 0.45813 0.54857 0.0
H665 H 0.90726 0.49724 0.57874 0.0
H666 H 0.8767 0.48661 0.57413 0.0
H667 H 0.94761 0.45085 0.53038 0.0
H668 H 0.1172 0.54508 0.47295 0.0
H669 H 0.08233 0.50916 0.45192 0.0
H670 H 0.05004 0.57039 0.47624 0.0
H671 H 0.11603 0.5127 0.45852 0.0
Eu672 Eu 0.23906 0.24465 0.97346 0.0
C673 C 0.26141 0.24573 0.08528 0.0
N674 N 0.24623 0.25906 0.07144 0.0
C675 C 0.22216 0.26498 0.1107 0.0
C676 C 0.25736 0.24142 0.11252 0.0
C677 C 0.22704 0.2692 0.08385 0.0
C678 C 0.23735 0.25098 0.1251 0.0
C679 C 0.29778 0.22418 0.08642 0.0
C680 C 0.28145 0.23715 0.07241 0.0
C681 C 0.29367 0.21977 0.11346 0.0
C682 C 0.27353 0.22834 0.12645 0.0
Eu683 Eu 0.25758 0.26761 0.0269 0.0
N684 N 0.28517 0.24191 0.04626 0.0
C685 C 0.31791 0.21639 0.07291 0.0
C686 C 0.30495 0.23496 0.03311 0.0
C687 C 0.32151 0.22185 0.04614 0.0
H688 H 0.21572 0.28133 0.07339 0.0
H689 H 0.33712 0.21631 0.0356 0.0
H690 H 0.27913 0.23533 0.92615 0.0
H691 H 0.1568 0.29367 0.97056 0.0
H692 H 0.30809 0.23985 0.01264 0.0
H693 H 0.33086 0.20648 0.08301 0.0
H694 H 0.1863 0.26974 0.99131 0.0
H695 H 0.20689 0.27304 0.12037 0.0
H696 H 0.30605 0.20997 0.12453 0.0
H697 H 0.27071 0.22504 0.14737 0.0
H698 H 0.28596 0.24415 0.87868 0.0
H699 H 0.23367 0.24813 0.14598 0.0
H700 H 0.1613 0.30487 0.92339 0.0
N701 N 0.24759 0.25504 0.92927 0.0
C702 C 0.23133 0.26741 0.91663 0.0
C703 C 0.27063 0.25107 0.88913 0.0
C704 C 0.23437 0.27254 0.88945 0.0
C705 C 0.26687 0.24641 0.91605 0.0
C706 C 0.25433 0.26428 0.87577 0.0
N707 N 0.20871 0.26871 0.95697 0.0
C708 C 0.18923 0.27514 0.97106 0.0
C709 C 0.19443 0.28756 0.91794 0.0
C710 C 0.21145 0.27456 0.93081 0.0
C711 C 0.1747 0.29475 0.93254 0.0
C712 C 0.17212 0.28852 0.95919 0.0
H713 H 0.25722 0.26768 0.85487 0.0
H714 H 0.21941 0.28933 0.85586 0.0
H715 H 0.18457 0.30274 0.8808 0.0
O716 O 0.22204 0.22916 0.95678 0.0
O717 O 0.24512 0.27652 0.96089 0.0
O718 O 0.2371 0.29136 0.99879 0.0
O719 O 0.25412 0.21253 0.96359 0.0
O720 O 0.21623 0.24982 0.0108 0.0
O721 O 0.22204 0.27604 0.02884 0.0
O722 O 0.28246 0.28191 0.02341 0.0
O723 O 0.26527 0.23172 0.02862 0.0
O724 O 0.23718 0.22762 0.01423 0.0
O725 O 0.25328 0.2942 0.04799 0.0
O726 O 0.27752 0.26609 0.98778 0.0
O727 O 0.27433 0.2367 0.97472 0.0
C728 C 0.23995 0.293 0.97334 0.0
C729 C 0.23073 0.19215 0.96635 0.0
C730 C 0.20435 0.1747 0.98753 0.0
C731 C 0.21837 0.15532 0.98115 0.0
C732 C 0.24442 0.17272 0.95984 0.0
C733 C 0.23827 0.15438 0.96734 0.0
C734 C 0.21062 0.19309 0.98029 0.0
C735 C 0.21053 0.26402 0.02704 0.0
C736 C 0.23706 0.2114 0.9566 0.0
C737 C 0.21738 0.28531 0.87673 0.0
C738 C 0.19752 0.2929 0.89093 0.0
C739 C 0.25226 0.22078 0.02878 0.0
C740 C 0.27369 0.31761 0.02821 0.0
C741 C 0.2973 0.33879 0.00929 0.0
C742 C 0.28041 0.35724 0.01226 0.0
C743 C 0.25696 0.33609 0.03156 0.0
C744 C 0.29361 0.31917 0.01675 0.0
C745 C 0.26033 0.35583 0.02328 0.0
C746 C 0.28472 0.25039 0.97393 0.0
C747 C 0.27167 0.2964 0.03791 0.0
H748 H 0.21361 0.14103 0.98604 0.0
H749 H 0.25973 0.17179 0.94857 0.0
H750 H 0.24877 0.13946 0.96195 0.0
H751 H 0.19964 0.20805 0.98496 0.0
H752 H 0.2829 0.37265 0.00718 0.0
H753 H 0.24147 0.3353 0.04074 0.0
H754 H 0.30663 0.30492 0.01449 0.0
H755 H 0.24749 0.37008 0.02608 0.0
Eu756 Eu 0.2595 0.01933 0.27217 0.0
C757 C 0.23324 0.94495 0.24959 0.0
N758 N 0.24793 0.95378 0.23526 0.0
C759 C 0.27085 0.91973 0.22672 0.0
C760 C 0.23723 0.92284 0.25371 0.0
C761 C 0.26625 0.9417 0.22326 0.0
C762 C 0.25633 0.91024 0.24215 0.0
C763 C 0.19885 0.94914 0.27532 0.0
C764 C 0.21413 0.9581 0.26004 0.0
C765 C 0.20293 0.9271 0.27978 0.0
C766 C 0.222 0.91401 0.26889 0.0
Eu767 Eu 0.23841 0.99074 0.22842 0.0
N768 N 0.21037 0.97951 0.25498 0.0
C769 C 0.17973 0.96258 0.28542 0.0
C770 C 0.19127 0.9926 0.26384 0.0
C771 C 0.1759 0.98437 0.27953 0.0
H772 H 0.27714 0.94903 0.21057 0.0
H773 H 0.16092 0.99488 0.28674 0.0
H774 H 0.21864 0.05943 0.2941 0.0
H775 H 0.33694 0.0213 0.22167 0.0
H776 H 0.18731 0.00939 0.25857 0.0
H777 H 0.16765 0.9563 0.29733 0.0
H778 H 0.30959 0.00476 0.24409 0.0
H779 H 0.28546 0.91016 0.21725 0.0
H780 H 0.19131 0.92002 0.29137 0.0
H781 H 0.22478 0.89705 0.27224 0.0
H782 H 0.20803 0.09816 0.2895 0.0
H783 H 0.25989 0.8932 0.24469 0.0
H784 H 0.32875 0.06019 0.21444 0.0
N785 N 0.24722 0.05676 0.26821 0.0
C786 C 0.26121 0.06705 0.25511 0.0
C787 C 0.22286 0.08965 0.27931 0.0
C788 C 0.25623 0.08923 0.2531 0.0
C789 C 0.22867 0.06765 0.28124 0.0
C790 C 0.2366 0.10053 0.26495 0.0
N791 N 0.28573 0.03397 0.24786 0.0
C792 C 0.30567 0.02173 0.24037 0.0
C793 C 0.2964 0.06544 0.23276 0.0
C794 C 0.2811 0.05533 0.24504 0.0
C795 C 0.31658 0.05301 0.22392 0.0
C796 C 0.32126 0.03106 0.2279 0.0
H797 H 0.23224 0.11754 0.26394 0.0
H798 H 0.26764 0.11638 0.23857 0.0
H799 H 0.30279 0.09554 0.22071 0.0
O800 O 0.28494 0.00505 0.2952 0.0
O801 O 0.26643 0.02551 0.22802 0.0
O802 O 0.23695 0.02478 0.21395 0.0
O803 O 0.25881 0.03115 0.30826 0.0
O804 O 0.28071 0.98682 0.2638 0.0
O805 O 0.27437 0.98429 0.22342 0.0
O806 O 0.21895 0.98451 0.2046 0.0
O807 O 0.24923 0.97304 0.2661 0.0
O808 O 0.23909 0.99833 0.29305 0.0
O809 O 0.2498 0.9873 0.18751 0.0
O810 O 0.21575 0.02275 0.23823 0.0
O811 O 0.22357 0.02744 0.277 0.0
C812 C 0.25239 0.03295 0.21201 0.0
C813 C 0.28049 0.0087 0.3393 0.0
C814 C 0.30688 0.99478 0.36842 0.0
C815 C 0.29076 0.99637 0.38966 0.0
C816 C 0.26443 0.01063 0.36051 0.0
C817 C 0.26963 0.00409 0.38565 0.0
C818 C 0.3015 1.00019 0.34339 0.0
C819 C 0.28636 0.97826 0.24212 0.0
C820 C 0.27678 0.0176 0.31276 0.0
C821 C 0.27122 0.09938 0.24025 0.0
C822 C 0.29126 0.08752 0.23013 0.0
C823 C 0.2429 0.97865 0.28929 0.0
C824 C 0.22286 0.99851 0.16038 0.0
C825 C 0.19208 0.01521 0.13795 0.0
C826 C 0.20548 0.01936 0.11523 0.0
C827 C 0.23596 0.00248 0.1374 0.0
C828 C 0.20091 0.00528 0.16059 0.0
C829 C 0.22725 0.01311 0.11506 0.0
C830 C 0.21129 0.03283 0.25876 0.0
C831 C 0.23202 0.98565 0.18335 0.0
H832 H 0.29445 0.9927 0.4093 0.0
H833 H 0.24807 0.01751 0.35772 0.0
H834 H 0.2573 0.0058 0.40208 0.0
H835 H 0.31385 0.99907 0.32689 0.0
H836 H 0.19926 0.02649 0.09725 0.0
H837 H 0.25292 0.99703 0.13656 0.0
H838 H 0.19063 1.00208 0.17813 0.0
H839 H 0.23745 0.01589 0.0973 0.0
Eu840 Eu 0.48339 0.24559 0.72911 0.0
C841 C 0.55644 0.27265 0.76079 0.0
N842 N 0.54744 0.25783 0.77439 0.0
C843 C 0.58089 0.23593 0.78603 0.0
C844 C 0.5783 0.26941 0.75898 0.0
C845 C 0.55924 0.23971 0.78704 0.0
C846 C 0.59048 0.25082 0.7719 0.0
C847 C 0.55313 0.30588 0.73253 0.0
C848 C 0.54394 0.29067 0.74762 0.0
C849 C 0.57486 0.30269 0.73076 0.0
C850 C 0.58739 0.28453 0.74397 0.0
Eu851 Eu 0.51076 0.26547 0.77544 0.0
N852 N 0.52297 0.2931 0.74907 0.0
C853 C 0.54023 0.32392 0.71964 0.0
C854 C 0.51024 0.31132 0.73766 0.0
C855 C 0.51867 0.32675 0.72248 0.0
H856 H 0.55183 0.22839 0.79847 0.0
H857 H 0.50844 0.34098 0.71326 0.0
H858 H 0.44205 0.28524 0.71058 0.0
H859 H 0.48616 0.16764 0.78458 0.0
H860 H 0.49352 0.31462 0.74058 0.0
H861 H 0.54669 0.33593 0.70787 0.0
H862 H 0.50108 0.19525 0.76027 0.0
H863 H 0.59015 0.22156 0.79621 0.0
H864 H 0.58213 0.31418 0.71918 0.0
H865 H 0.60415 0.28225 0.74229 0.0
H866 H 0.40345 0.29337 0.71547 0.0
H867 H 0.6073 0.24779 0.77101 0.0
H868 H 0.4477 0.17365 0.79153 0.0
N869 N 0.4464 0.25561 0.73436 0.0
C870 C 0.43737 0.2406 0.74741 0.0
C871 C 0.41276 0.2786 0.72482 0.0
C872 C 0.41538 0.24437 0.75007 0.0
C873 C 0.43459 0.27414 0.72252 0.0
C874 C 0.40309 0.2637 0.73876 0.0
N875 N 0.47143 0.21794 0.75522 0.0
C876 C 0.48429 0.19876 0.7641 0.0
C877 C 0.441 0.20553 0.77137 0.0
C878 C 0.45016 0.22133 0.75806 0.0
C879 C 0.45414 0.18616 0.78127 0.0
C880 C 0.47585 0.18275 0.7775 0.0
H881 H 0.38618 0.26712 0.74029 0.0
H882 H 0.38951 0.23133 0.76571 0.0
H883 H 0.41188 0.1974 0.78432 0.0
O884 O 0.48587 0.22053 0.7074 0.0
O885 O 0.46503 0.25393 0.76817 0.0
O886 O 0.49125 0.24339 0.79343 0.0
O887 O 0.47418 0.25295 0.6902 0.0
O888 O 0.51572 0.22376 0.73832 0.0
O889 O 0.51907 0.22965 0.77875 0.0
O890 O 0.49704 0.29008 0.80075 0.0
O891 O 0.5305 0.25835 0.73687 0.0
O892 O 0.509 0.26 0.70687 0.0
O893 O 0.52024 0.26068 0.81379 0.0
O894 O 0.47851 0.28681 0.76549 0.0
O895 O 0.47658 0.28123 0.72459 0.0
C896 C 0.47143 0.24775 0.79088 0.0
C897 C 0.49051 0.22701 0.66171 0.0
C898 C 0.51159 0.19889 0.63632 0.0
C899 C 0.50566 0.21235 0.61362 0.0
C900 C 0.48449 0.24006 0.63894 0.0
C901 C 0.49235 0.23286 0.61497 0.0
C902 C 0.50458 0.20666 0.66017 0.0
C903 C 0.52513 0.21827 0.75936 0.0
C904 C 0.47945 0.23317 0.68698 0.0
C905 C 0.40636 0.22871 0.76355 0.0
C906 C 0.41911 0.20937 0.77415 0.0
C907 C 0.52703 0.25999 0.71292 0.0
C908 C 0.50659 0.28666 0.84367 0.0
C909 C 0.49201 0.31421 0.87154 0.0
C910 C 0.50452 0.30155 0.89026 0.0
C911 C 0.51921 0.2743 0.86238 0.0
C912 C 0.49298 0.30661 0.84836 0.0
C913 C 0.51808 0.28172 0.88563 0.0
C914 C 0.46975 0.29244 0.74402 0.0
C915 C 0.50804 0.27908 0.819 0.0
H916 H 0.51017 0.20667 0.59494 0.0
H917 H 0.47314 0.25554 0.63973 0.0
H918 H 0.48729 0.24281 0.5975 0.0
H919 H 0.50892 0.19623 0.67768 0.0
H920 H 0.50455 0.30739 0.90796 0.0
H921 H 0.5301 0.259 0.85898 0.0
H922 H 0.48357 0.31652 0.83377 0.0
H923 H 0.52804 0.27229 0.89985 0.0
Eu924 Eu 0.98344 0.74421 0.72822 0.0
C925 C 0.05799 0.76976 0.75933 0.0
N926 N 0.04827 0.75526 0.77224 0.0
C927 C 0.08124 0.73178 0.7835 0.0
C928 C 0.07994 0.76561 0.75781 0.0
C929 C 0.05945 0.73658 0.78453 0.0
C930 C 0.09155 0.74633 0.77003 0.0
C931 C 0.05567 0.80408 0.73392 0.0
C932 C 0.04596 0.78877 0.7474 0.0
C933 C 0.07752 0.79996 0.73235 0.0
C934 C 0.08961 0.78078 0.74424 0.0
Eu935 Eu 0.0114 0.76498 0.7734 0.0
N936 N 0.02485 0.79216 0.74868 0.0
C937 C 0.04311 0.82317 0.72249 0.0
C938 C 0.01249 0.81107 0.73834 0.0
C939 C 0.02142 0.82673 0.72492 0.0
H940 H 0.0515 0.7256 0.7957 0.0
H941 H 0.01152 0.84161 0.71657 0.0
H942 H 0.94137 0.78253 0.70922 0.0
H943 H 0.98857 0.66686 0.78601 0.0
H944 H -0.0043 0.8145 0.74071 0.0
H945 H 0.04997 0.83533 0.71201 0.0
H946 H 0.00243 0.69499 0.7609 0.0
H947 H 0.09004 0.71694 0.79328 0.0
H948 H 0.08521 0.81153 0.72202 0.0
H949 H 0.10645 0.77786 0.74289 0.0
H950 H 0.9029 0.78945 0.71415 0.0
H951 H 0.10842 0.74258 0.76935 0.0
H952 H 0.95031 0.67156 0.79309 0.0
N953 N 0.94652 0.75321 0.73364 0.0
C954 C 0.93801 0.73803 0.74733 0.0
C955 C 0.91254 0.77506 0.72385 0.0
C956 C 0.91613 0.74106 0.75004 0.0
C957 C 0.93429 0.77131 0.7215 0.0
C958 C 0.9034 0.75991 0.73825 0.0
N959 N 0.97236 0.71666 0.75564 0.0
C960 C 0.98571 0.69793 0.76487 0.0
C961 C 0.94266 0.7032 0.77225 0.0
C962 C 0.95122 0.71929 0.7585 0.0
C963 C 0.95628 0.6843 0.78251 0.0
C964 C 0.97788 0.68163 0.77869 0.0
H965 H 0.88656 0.76276 0.7398 0.0
H966 H 0.89092 0.7272 0.76621 0.0
H967 H 0.9141 0.69409 0.78556 0.0
O968 O 0.98884 0.71777 0.70722 0.0
O969 O 0.96526 0.75337 0.76702 0.0
O970 O 0.99196 0.74291 0.79146 0.0
O971 O 0.97304 0.74927 0.69032 0.0
O972 O 0.01681 0.72404 0.736 0.0
O973 O 0.0186 0.72937 0.77701 0.0
O974 O -0.00408 0.78937 0.79855 0.0
O975 O 0.02904 0.76094 0.73302 0.0
O976 O 0.00644 0.76106 0.70493 0.0
O977 O 0.02149 0.76185 0.81114 0.0
O978 O 0.97966 0.78673 0.76249 0.0
O979 O 0.97564 0.78012 0.72272 0.0
C980 C 0.97193 0.74801 0.78959 0.0
C981 C 0.99135 0.72378 0.6616 0.0
C982 C 0.00898 0.69611 0.63402 0.0
C983 C 0.00736 0.71173 0.61223 0.0
C984 C 0.98981 0.73904 0.63958 0.0
C985 C -0.00202 0.733 0.61507 0.0
C986 C 0.00121 0.70239 0.65869 0.0
C987 C 0.02594 0.71859 0.75721 0.0
C988 C 0.98056 0.7294 0.68724 0.0
C989 C 0.90767 0.72515 0.76403 0.0
C990 C 0.92088 0.70629 0.77505 0.0
C991 C 0.02414 0.76273 0.70976 0.0
C992 C 0.00569 0.788 0.84069 0.0
C993 C 0.9926 0.81722 0.86601 0.0
C994 C 0.00118 0.80379 0.88732 0.0
C995 C 0.01451 0.77478 0.86199 0.0
C996 C 0.99488 0.80932 0.84271 0.0
C997 C 0.01217 0.78269 0.88524 0.0
C998 C 0.97054 0.79226 0.74127 0.0
C999 C 0.00779 0.77962 0.81642 0.0
H1000 H 0.01249 0.70753 0.59281 0.0
H1001 H 0.98186 0.75556 0.64119 0.0
H1002 H -0.00355 0.74478 0.59811 0.0
H1003 H 0.00215 0.69056 0.67563 0.0
H1004 H -4e-05 0.80984 0.90529 0.0
H1005 H 0.02311 0.75834 0.86073 0.0
H1006 H 0.98852 0.81983 0.82617 0.0
H1007 H 0.01906 0.7725 0.90159 0.0
Eu1008 Eu 0.75899 0.51872 0.27621 0.0
C1009 C 0.73385 0.44621 0.24341 0.0
N1010 N 0.74836 0.45574 0.23007 0.0
C1011 C 0.77156 0.4224 0.21908 0.0
C1012 C 0.7379 0.42415 0.24539 0.0
C1013 C 0.76687 0.44428 0.21764 0.0
C1014 C 0.75706 0.41227 0.23309 0.0
C1015 C 0.69965 0.44899 0.26931 0.0
C1016 C 0.71494 0.45854 0.25538 0.0
C1017 C 0.70373 0.42702 0.27141 0.0
C1018 C 0.72278 0.41465 0.2595 0.0
Eu1019 Eu 0.73893 0.49277 0.22841 0.0
N1020 N 0.71158 0.47978 0.25356 0.0
C1021 C 0.68062 0.4618 0.2806 0.0
C1022 C 0.69266 0.49238 0.26364 0.0
C1023 C 0.67704 0.4836 0.27751 0.0
H1024 H 0.77786 0.45208 0.20609 0.0
H1025 H 0.66216 0.4937 0.28567 0.0
H1026 H 0.72215 0.55991 0.30005 0.0
H1027 H 0.83433 0.51609 0.21375 0.0
H1028 H 0.68915 0.50924 0.26064 0.0
H1029 H 0.66848 0.45507 0.29141 0.0
H1030 H 0.80759 0.50129 0.24049 0.0
H1031 H 0.78629 0.41338 0.20921 0.0
H1032 H 0.69218 0.41945 0.28211 0.0
H1033 H 0.72565 0.39773 0.26124 0.0
H1034 H 0.71584 0.59816 0.29892 0.0
H1035 H 0.76072 0.3953 0.23412 0.0
H1036 H 0.82985 0.55431 0.2096 0.0
N1037 N 0.75141 0.55547 0.27553 0.0
C1038 C 0.76634 0.56439 0.26213 0.0
C1039 C 0.73003 0.5889 0.28833 0.0
C1040 C 0.76344 0.58619 0.26109 0.0
C1041 C 0.73349 0.56729 0.28866 0.0
C1042 C 0.74505 0.59841 0.27446 0.0
N1043 N 0.78653 0.53084 0.24974 0.0
C1044 C 0.80459 0.51803 0.23803 0.0
C1045 C 0.79972 0.5609 0.23413 0.0
C1046 C 0.78429 0.55181 0.24875 0.0
C1047 C 0.81767 0.54792 0.22102 0.0
C1048 C 0.82019 0.52638 0.22319 0.0
H1049 H 0.74231 0.61518 0.2742 0.0
H1050 H 0.77684 0.61188 0.24558 0.0
H1051 H 0.80857 0.58976 0.22197 0.0
O1052 O 0.78423 0.5055 0.30072 0.0
O1053 O 0.75129 0.53866 0.2379 0.0
O1054 O 0.759 0.5144 0.20969 0.0
O1055 O 0.75449 0.52791 0.31462 0.0
O1056 O 0.77944 0.48605 0.26585 0.0
O1057 O 0.77456 0.48508 0.22433 0.0
O1058 O 0.71382 0.50577 0.20409 0.0
O1059 O 0.74529 0.47384 0.26772 0.0
O1060 O 0.73711 0.49904 0.29479 0.0
O1061 O 0.74335 0.48303 0.1901 0.0
O1062 O 0.71747 0.52476 0.23968 0.0
O1063 O 0.72318 0.52762 0.28035 0.0
C1064 C 0.75538 0.53386 0.2142 0.0
C1065 C 0.78074 0.51556 0.34372 0.0
C1066 C 0.80786 0.50183 0.37206 0.0
C1067 C 0.79519 0.51549 0.38982 0.0
C1068 C 0.76842 0.52915 0.36165 0.0
C1069 C 0.77564 0.52904 0.38458 0.0
C1070 C 0.80051 0.50192 0.34897 0.0
C1071 C 0.78528 0.47754 0.24406 0.0
C1072 C 0.7732 0.51642 0.31919 0.0
C1073 C 0.77881 0.59517 0.24659 0.0
C1074 C 0.79686 0.58258 0.23311 0.0
C1075 C 0.73985 0.47967 0.29088 0.0
C1076 C 0.71657 0.49594 0.1614 0.0
C1077 C 0.68817 0.50879 0.13501 0.0
C1078 C 0.70166 0.49834 0.11484 0.0
C1079 C 0.72975 0.48535 0.14116 0.0
C1080 C 0.69562 0.5075 0.15835 0.0
C1081 C 0.72229 0.48659 0.118 0.0
C1082 C 0.71169 0.53365 0.26121 0.0
C1083 C 0.72466 0.49479 0.18561 0.0
H1084 H 0.80076 0.5163 0.40734 0.0
H1085 H 0.75331 0.54008 0.35783 0.0
H1086 H 0.76622 0.53978 0.39814 0.0
H1087 H 0.81032 0.49168 0.33502 0.0
H1088 H 0.696 0.49878 0.09689 0.0
H1089 H 0.74584 0.47611 0.1432 0.0
H1090 H 0.68511 0.51536 0.174 0.0
H1091 H 0.73246 0.4783 0.10252 0.0
Eu1092 Eu 0.73948 0.74487 0.97574 0.0
C1093 C 0.76355 0.74595 0.08645 0.0
N1094 N 0.74787 0.75875 0.07315 0.0
C1095 C 0.72402 0.76372 0.11253 0.0
C1096 C 0.7598 0.7412 0.11363 0.0
C1097 C 0.72847 0.76803 0.08565 0.0
C1098 C 0.73974 0.75021 0.1266 0.0
C1099 C 0.79982 0.72403 0.08646 0.0
C1100 C 0.78346 0.7376 0.07289 0.0
C1101 C 0.79606 0.71925 0.11351 0.0
C1102 C 0.77616 0.72788 0.12705 0.0
Eu1103 Eu 0.75772 0.76824 0.02905 0.0
N1104 N 0.78693 0.74302 0.0467 0.0
C1105 C 0.81965 0.71588 0.07255 0.0
C1106 C 0.80651 0.73551 0.03325 0.0
C1107 C 0.82297 0.72163 0.04586 0.0
H1108 H 0.71663 0.77928 0.07498 0.0
H1109 H 0.83838 0.71569 0.035 0.0
H1110 H 0.77996 0.73065 0.92785 0.0
H1111 H 0.65963 0.79684 0.96942 0.0
H1112 H 0.81004 0.74036 0.01295 0.0
H1113 H 0.83257 0.70538 0.08227 0.0
H1114 H 0.68885 0.77259 0.99126 0.0
H1115 H 0.7086 0.77111 0.12243 0.0
H1116 H 0.80852 0.70902 0.12418 0.0
H1117 H 0.77359 0.72418 0.14794 0.0
H1118 H 0.78777 0.73895 0.8807 0.0
H1119 H 0.7363 0.74707 0.14748 0.0
H1120 H 0.66504 0.80713 0.92205 0.0
N1121 N 0.74966 0.75324 0.93078 0.0
C1122 C 0.73422 0.76679 0.91749 0.0
C1123 C 0.77278 0.74718 0.89084 0.0
C1124 C 0.73772 0.77128 0.89023 0.0
C1125 C 0.76849 0.74292 0.91777 0.0
C1126 C 0.75738 0.76151 0.87701 0.0
N1127 N 0.7113 0.77055 0.95715 0.0
C1128 C 0.69176 0.77765 0.97084 0.0
C1129 C 0.69794 0.78886 0.91756 0.0
C1130 C 0.71448 0.77547 0.93097 0.0
C1131 C 0.67813 0.79687 0.93167 0.0
C1132 C 0.67502 0.79116 0.95842 0.0
H1133 H 0.76062 0.76445 0.85609 0.0
H1134 H 0.72376 0.78828 0.85598 0.0
H1135 H 0.68899 0.80371 0.87992 0.0
O1136 O 0.71473 0.73044 0.97875 0.0
O1137 O 0.73234 0.78073 0.97304 0.0
O1138 O 0.76005 0.78498 0.98825 0.0
O1139 O 0.74459 0.71738 0.95592 0.0
O1140 O 0.71929 0.74688 0.01477 0.0
O1141 O 0.72266 0.77673 0.02633 0.0
O1142 O 0.77528 0.78315 0.04575 0.0
O1143 O 0.75071 0.73694 0.04172 0.0
O1144 O 0.76034 0.72181 0.00421 0.0
O1145 O 0.7433 0.80039 0.039 0.0
O1146 O 0.78144 0.7623 0.99257 0.0
O1147 O 0.77508 0.73789 0.97149 0.0
C1148 C 0.74545 0.79153 0.97304 0.0
C1149 C 0.7238 0.69436 0.97577 0.0
C1150 C 0.69993 0.67345 0.99476 0.0
C1151 C 0.71691 0.65493 0.99308 0.0
C1152 C 0.7406 0.67578 0.97364 0.0
C1153 C 0.73715 0.65615 0.98263 0.0
C1154 C 0.70367 0.69301 0.98659 0.0
C1155 C 0.71237 0.7628 0.0283 0.0
C1156 C 0.72601 0.71541 0.96531 0.0
C1157 C 0.72135 0.78478 0.8769 0.0
C1158 C 0.70153 0.79354 0.89052 0.0
C1159 C 0.75649 0.72021 0.02967 0.0
C1160 C 0.76711 0.82018 0.03679 0.0
C1161 C 0.79366 0.83744 0.0157 0.0
C1162 C 0.78001 0.85673 0.0229 0.0
C1163 C 0.75381 0.83952 0.04409 0.0
C1164 C 0.78713 0.81918 0.02251 0.0
C1165 C 0.76022 0.85772 0.03705 0.0
C1166 C 0.787 0.74891 0.97528 0.0
C1167 C 0.76049 0.80107 0.04612 0.0
H1168 H 0.71441 0.63955 0.99874 0.0
H1169 H 0.75624 0.67639 0.96491 0.0
H1170 H 0.75007 0.64182 0.98083 0.0
H1171 H 0.69058 0.70733 0.98781 0.0
H1172 H 0.78499 0.87089 0.01836 0.0
H1173 H 0.73859 0.84046 0.05562 0.0
H1174 H 0.79781 0.80428 0.01723 0.0
H1175 H 0.75002 0.87254 0.04305 0.0
Eu1176 Eu 0.48085 0.99543 0.52952 0.0
C1177 C 0.50329 0.03563 0.41074 0.0
N1178 N 0.51542 0.01864 0.42461 0.0
C1179 C 0.52854 1.00105 0.38693 0.0
C1180 C 0.50306 0.0357 0.3842 0.0
C1181 C 0.52839 1.00175 0.41312 0.0
C1182 C 0.51577 0.01807 0.37241 0.0
C1183 C 0.47828 0.07074 0.40896 0.0
C1184 C 0.49114 0.05308 0.42306 0.0
C1185 C 0.47806 0.0708 0.38253 0.0
C1186 C 0.49043 0.05338 0.37019 0.0
Eu1187 Eu 0.51643 0.02239 0.46719 0.0
N1188 N 0.49187 0.05282 0.44867 0.0
C1189 C 0.46604 0.08793 0.42175 0.0
C1190 C 0.47993 0.06965 0.46114 0.0
C1191 C 0.46682 0.08732 0.44794 0.0
H1192 H 0.53872 0.98886 0.42416 0.0
H1193 H 0.45743 0.10058 0.45798 0.0
H1194 H 0.45499 0.02559 0.57619 0.0
H1195 H 0.52343 0.91121 0.54158 0.0
H1196 H 0.48033 0.06996 0.48114 0.0
H1197 H 0.45598 0.10176 0.41157 0.0
H1198 H 0.5038 0.94481 0.51879 0.0
H1199 H 0.53867 0.98752 0.37788 0.0
H1200 H 0.46839 0.08432 0.37142 0.0
H1201 H 0.49015 0.05375 0.34976 0.0
H1202 H 0.45544 0.0259 0.62264 0.0
H1203 H 0.51605 0.01757 0.35205 0.0
H1204 H 0.52829 0.90901 0.58717 0.0
N1205 N 0.47859 0.99613 0.57444 0.0
C1206 C 0.48986 0.97849 0.5882 0.0
C1207 C 0.46548 0.01258 0.61312 0.0
C1208 C 0.49012 0.97758 0.61492 0.0
C1209 C 0.46559 0.01258 0.58673 0.0
C1210 C 0.47812 0.99515 0.62719 0.0
N1211 N 0.4987 0.96204 0.55042 0.0
C1212 C 0.50628 0.94433 0.53836 0.0
C1213 C 0.51103 0.94185 0.58981 0.0
C1214 C 0.50016 0.96087 0.57584 0.0
C1215 C 0.5199 0.92394 0.5771 0.0
C1216 C 0.51722 0.92513 0.55136 0.0
H1217 H 0.47789 0.99509 0.64768 0.0
H1218 H 0.50228 0.95807 0.64913 0.0
H1219 H 0.52058 0.92673 0.62713 0.0
O1220 O 0.46112 0.97949 0.51886 0.0
O1221 O 0.51613 0.9851 0.52997 0.0
O1222 O 0.52538 0.01441 0.5074 0.0
O1223 O 0.44839 0.99955 0.54881 0.0
O1224 O 0.49428 0.97926 0.49356 0.0
O1225 O 0.52527 0.98665 0.47382 0.0
O1226 O 0.53287 0.04538 0.44914 0.0
O1227 O 0.48802 0.01561 0.45954 0.0
O1228 O 0.47059 0.02289 0.49871 0.0
O1229 O 0.55015 0.01209 0.4532 0.0
O1230 O 0.50382 0.04073 0.5016 0.0
O1231 O 0.47976 0.02883 0.53431 0.0
C1232 C 0.52922 0.99661 0.52318 0.0
C1233 C 0.43421 0.97115 0.54985 0.0
C1234 C 0.42005 0.94258 0.54799 0.0
C1235 C 0.41204 0.94247 0.57439 0.0
C1236 C 0.42586 0.97116 0.5762 0.0
C1237 C 0.41484 0.95682 0.58836 0.0
C1238 C 0.43101 0.95696 0.53585 0.0
C1239 C 0.51214 0.97527 0.4777 0.0
C1240 C 0.44509 0.98653 0.53595 0.0
C1241 C 0.50174 0.95899 0.62866 0.0
C1242 C 0.51215 0.94115 0.61613 0.0
C1243 C 0.47045 0.01942 0.47528 0.0
C1244 C 0.56919 0.03631 0.45251 0.0
C1245 C 0.58418 0.0602 0.46622 0.0
C1246 C 0.60442 0.04654 0.46015 0.0
C1247 C 0.58955 0.02278 0.44657 0.0
C1248 C 0.56654 0.0551 0.46252 0.0
C1249 C 0.60707 0.02788 0.45046 0.0
C1250 C 0.49026 0.04253 0.52331 0.0
C1251 C 0.55122 0.03134 0.44612 0.0
H1252 H 0.40309 0.93176 0.58394 0.0
H1253 H 0.42766 0.98229 0.5873 0.0
H1254 H 0.40825 0.95701 0.60858 0.0
H1255 H 0.43682 0.95726 0.5153 0.0
H1256 H 0.61819 0.05044 0.46278 0.0
H1257 H 0.59194 0.00841 0.43852 0.0
H1258 H 0.55098 0.06589 0.46702 0.0
H1259 H 0.62273 0.01747 0.44566 0.0
Eu1260 Eu 0.48176 0.4891 0.0344 0.0
C1261 C 0.50716 0.53545 0.90891 0.0
N1262 N 0.517 0.51745 0.92362 0.0
C1263 C 0.52802 0.499 0.88658 0.0
C1264 C 0.507 0.53567 0.88236 0.0
C1265 C 0.52784 0.49955 0.91285 0.0
C1266 C 0.51751 0.5171 0.87129 0.0
C1267 C 0.48592 0.57229 0.90607 0.0
C1268 C 0.4968 0.55367 0.92062 0.0
C1269 C 0.48591 0.57255 0.87954 0.0
C1270 C 0.49641 0.55433 0.86773 0.0
Eu1271 Eu 0.51755 0.52112 0.96657 0.0
N1272 N 0.4966 0.55283 0.94652 0.0
C1273 C 0.47525 0.59004 0.91868 0.0
C1274 C 0.4865 0.57009 0.95888 0.0
C1275 C 0.47556 0.58892 0.94518 0.0
H1276 H 0.53662 0.48579 0.9244 0.0
H1277 H 0.4675 0.60262 0.95503 0.0
H1278 H 0.46178 0.52522 0.07551 0.0
H1279 H 0.52959 0.407 0.04926 0.0
H1280 H 0.4871 0.56948 0.97916 0.0
H1281 H 0.46673 0.60467 0.90816 0.0
H1282 H 0.51118 0.44007 0.02375 0.0
H1283 H 0.53646 0.4847 0.87808 0.0
H1284 H 0.4777 0.58676 0.86801 0.0
H1285 H 0.49617 0.5548 0.84726 0.0
H1286 H 0.46145 0.52732 0.12162 0.0
H1287 H 0.51776 0.51663 0.85092 0.0
H1288 H 0.52989 0.40595 0.09607 0.0
N1289 N 0.48153 0.49356 0.07726 0.0
C1290 C 0.49106 0.4758 0.09255 0.0
C1291 C 0.46999 0.51281 0.11363 0.0
C1292 C 0.49086 0.47613 0.11907 0.0
C1293 C 0.47045 0.51168 0.08746 0.0
C1294 C 0.48033 0.495 0.12947 0.0
N1295 N 0.50175 0.4575 0.05571 0.0
C1296 C 0.51153 0.43981 0.04406 0.0
C1297 C 0.51156 0.43873 0.09682 0.0
C1298 C 0.50127 0.45722 0.08156 0.0
C1299 C 0.52187 0.42051 0.08497 0.0
C1300 C 0.52182 0.42106 0.0585 0.0
H1301 H 0.47985 0.49591 0.14977 0.0
H1302 H 0.50101 0.45762 0.15479 0.0
H1303 H 0.5191 0.42495 0.13534 0.0
O1304 O 0.46361 0.46713 0.03999 0.0
O1305 O 0.5141 0.48515 0.04411 0.0
O1306 O 0.51772 0.50127 0.00515 0.0
O1307 O 0.44772 0.49925 0.04804 0.0
O1308 O 0.495 0.47421 0.99687 0.0
O1309 O 0.52413 0.48511 0.97307 0.0
O1310 O 0.53512 0.54361 0.96036 0.0
O1311 O 0.48522 0.5246 0.95703 0.0
O1312 O 0.48236 0.50865 0.99598 0.0
O1313 O 0.55154 0.51163 0.95231 0.0
O1314 O 0.50504 0.53572 0.00421 0.0
O1315 O 0.47573 0.52507 0.0277 0.0
C1316 C 0.52625 0.49326 0.02622 0.0
C1317 C 0.42647 0.47843 0.04167 0.0
C1318 C 0.40868 0.45602 0.03001 0.0
C1319 C 0.38914 0.46991 0.03835 0.0
C1320 C 0.40683 0.49229 0.04999 0.0
C1321 C 0.38825 0.48808 0.04815 0.0
C1322 C 0.4272 0.46038 0.03143 0.0
C1323 C 0.51081 0.47359 0.97744 0.0
C1324 C 0.44589 0.48058 0.04797 0.0
C1325 C 0.50103 0.45766 0.13435 0.0
C1326 C 0.51131 0.43904 0.12328 0.0
C1327 C 0.4733 0.51664 0.97537 0.0
C1328 C 0.57203 0.53283 0.95968 0.0
C1329 C 0.58897 0.55542 0.9727 0.0
C1330 C 0.60873 0.54119 0.96601 0.0
C1331 C 0.5919 0.51867 0.95295 0.0
C1332 C 0.57075 0.55117 0.96972 0.0
C1333 C 0.61015 0.52281 0.95628 0.0
C1334 C 0.48927 0.53632 0.02363 0.0
C1335 C 0.55304 0.53043 0.95246 0.0
H1336 H 0.37468 0.46634 0.03801 0.0
H1337 H 0.40585 0.50592 0.05879 0.0
H1338 H 0.37317 0.49855 0.05513 0.0
H1339 H 0.44216 0.44907 0.0257 0.0
H1340 H 0.623 0.54463 0.96757 0.0
H1341 H 0.59335 0.5048 0.94436 0.0
H1342 H 0.55566 0.56271 0.97424 0.0
H1343 H 0.62544 0.51207 0.95058 0.0
C1344 C 0.001 0.04265 0.05872 0.0
C1345 C 0.98657 0.05061 0.04091 0.0
C1346 C 0.00496 0.05604 0.07286 0.0
C1347 C 0.00291 0.11161 0.06705 0.0
H1348 H 0.01968 0.09514 0.13566 0.0
C1349 C 0.02377 0.17098 0.10846 0.0
C1350 C 0.01182 0.17458 0.13269 0.0
C1351 C 0.02814 0.1515 0.09986 0.0
C1352 C 0.01511 0.09997 0.11646 0.0
H1353 H 0.96404 0.07844 0.02464 0.0
H1354 H 0.97034 0.10214 0.05015 0.0
H1355 H 0.00675 0.07178 0.11753 0.0
H1356 H -0.002 0.16021 0.16858 0.0
H1357 H 0.00465 0.12657 0.15337 0.0
H1358 H 0.00985 0.14029 0.06641 0.0
C1359 C 0.97895 0.08552 0.05284 0.0
C1360 C 0.00775 0.08654 0.10602 0.0
C1361 C 0.9751 0.072 0.03851 0.0
C1362 C 0.00708 0.15769 0.1497 0.0
C1363 C 0.01097 0.13837 0.14088 0.0
C1364 C 0.00996 0.12512 0.07759 0.0
C1365 C 0.99453 0.07776 0.06944 0.0
C1366 C 0.0014 0.09231 0.08126 0.0
C1367 C 0.01985 0.13577 0.11504 0.0
C1368 C 0.01597 0.11962 0.10255 0.0
H1369 H 0.01006 0.0262 0.06085 0.0
H1370 H 0.01717 0.04949 0.0852 0.0
H1371 H -0.00132 0.11635 0.04768 0.0
H1372 H 0.02784 0.18383 0.09524 0.0
H1373 H 0.03598 0.14961 0.08029 0.0
C1374 C 0.82301 0.23499 0.46383 0.0
C1375 C 0.80395 0.2456 0.45398 0.0
C1376 C 0.8424 0.23534 0.44861 0.0
C1377 C 0.86506 0.26573 0.39042 0.0
H1378 H 0.91212 0.21478 0.38655 0.0
C1379 C 0.93278 0.25807 0.30556 0.0
C1380 C 0.95361 0.24902 0.31092 0.0
C1381 C 0.91571 0.25754 0.32492 0.0
C1382 C 0.89921 0.22921 0.38765 0.0
H1383 H 0.79045 0.26514 0.42045 0.0
H1384 H 0.8237 0.26567 0.39438 0.0
H1385 H 0.88026 0.21424 0.41732 0.0
H1386 H 0.97273 0.23207 0.34098 0.0
H1387 H 0.94273 0.2308 0.37491 0.0
H1388 H 0.88367 0.28058 0.36041 0.0
C1389 C 0.82393 0.25719 0.4138 0.0
C1390 C 0.88095 0.22892 0.40534 0.0
C1391 C 0.80474 0.25673 0.4288 0.0
C1392 C 0.9569 0.23923 0.33622 0.0
C1393 C 0.93972 0.23841 0.3556 0.0
C1394 C 0.88318 0.26598 0.37272 0.0
C1395 C 0.84309 0.24653 0.42337 0.0
C1396 C 0.86344 0.24709 0.4066 0.0
C1397 C 0.91889 0.24776 0.35024 0.0
C1398 C 0.90037 0.24765 0.37072 0.0
H1399 H 0.82297 0.22626 0.48312 0.0
H1400 H 0.85683 0.22702 0.45669 0.0
H1401 H 0.85216 0.28018 0.39121 0.0
H1402 H 0.92958 0.26593 0.28639 0.0
H1403 H 0.89993 0.26471 0.31997 0.0
C1404 C 0.76445 0.0459 0.66852 0.0
C1405 C 0.75621 0.04966 0.69417 0.0
C1406 C 0.76475 0.06285 0.64869 0.0
C1407 C 0.76041 0.12036 0.63976 0.0
H1408 H 0.7516 0.11954 0.56992 0.0
C1409 C 0.7696 0.1877 0.55963 0.0
C1410 C 0.7548 0.19549 0.54219 0.0
C1411 C 0.77033 0.16911 0.5766 0.0
C1412 C 0.75388 0.12009 0.58941 0.0
H1413 H 0.74104 0.07428 0.71879 0.0
H1414 H 0.74101 0.10332 0.6847 0.0
H1415 H 0.75155 0.08874 0.60254 0.0
H1416 H 0.73004 0.18864 0.52775 0.0
H1417 H 0.73152 0.15589 0.55723 0.0
H1418 H 0.76182 0.15185 0.62724 0.0
C1419 C 0.748 0.08745 0.67972 0.0
C1420 C 0.75416 0.10229 0.60805 0.0
C1421 C 0.74791 0.07066 0.6994 0.0
C1422 C 0.74145 0.18339 0.54121 0.0
C1423 C 0.74235 0.16452 0.55806 0.0
C1424 C 0.7599 0.1381 0.62133 0.0
C1425 C 0.75666 0.0839 0.65411 0.0
C1426 C 0.75727 0.10225 0.63358 0.0
C1427 C 0.75652 0.1574 0.5764 0.0
C1428 C 0.7567 0.13827 0.59586 0.0
H1429 H 0.77088 0.02991 0.66382 0.0
H1430 H 0.77165 0.05944 0.62925 0.0
H1431 H 0.76331 0.1209 0.65896 0.0
H1432 H 0.78091 0.19575 0.5601 0.0
H1433 H 0.78193 0.16385 0.58981 0.0
C1434 C 0.93175 0.01469 0.97706 0.0
C1435 C 0.95007 0.01914 0.96357 0.0
C1436 C 0.91747 0.0115 0.96368 0.0
C1437 C 0.91757 0.99139 0.9046 0.0
H1438 H 0.85719 0.00798 0.92522 0.0
C1439 C 0.84938 0.99375 0.85274 0.0
C1440 C 0.83139 0.99158 0.86969 0.0
C1441 C 0.86843 0.98896 0.86233 0.0
C1442 C 0.8741 0.00285 0.91967 0.0
H1443 H 0.9673 0.02489 0.92566 0.0
H1444 H 0.94203 0.01991 0.90204 0.0
H1445 H 0.87881 0.02224 0.94417 0.0
H1446 H 0.81961 0.97895 0.90798 0.0
H1447 H 0.853 0.97019 0.92466 0.0
H1448 H 0.91245 0.97252 0.87929 0.0
C1449 C 0.93885 0.01869 0.92297 0.0
C1450 C 0.88641 0.01121 0.9303 0.0
C1451 C 0.95311 0.02198 0.93643 0.0
C1452 C 0.83336 0.98094 0.89479 0.0
C1453 C 0.85244 0.9759 0.90425 0.0
C1454 C 0.90513 0.98314 0.89368 0.0
C1455 C 0.92138 0.01258 0.93658 0.0
C1456 C 0.90826 0.0054 0.92312 0.0
C1457 C 0.86929 0.9821 0.88882 0.0
C1458 C 0.88333 0.98859 0.90151 0.0
H1459 H 0.92919 0.01229 0.99805 0.0
H1460 H 0.90416 0.00673 0.97471 0.0
H1461 H 0.93447 0.98648 0.89897 0.0
H1462 H 0.84806 1.0018 0.83321 0.0
H1463 H 0.88135 0.99361 0.85002 0.0
C1464 C 0.05222 0.0174 0.03136 0.0
C1465 C 0.04878 0.99765 0.03389 0.0
C1466 C 0.06526 0.02062 0.04669 0.0
C1467 C 0.10914 0.993 0.08264 0.0
H1468 H 0.09066 0.04216 0.11911 0.0
C1469 C 0.16062 1.0019 0.14845 0.0
C1470 C 0.16954 0.01818 0.13693 0.0
C1471 C 0.14164 1.00174 0.14207 0.0
C1472 C 0.09587 0.02838 0.10907 0.0
H1473 H 0.05629 0.96566 0.05356 0.0
H1474 H 0.08029 0.97085 0.0794 0.0
H1475 H 0.06696 0.03617 0.09328 0.0
H1476 H 0.16408 0.04854 0.11276 0.0
H1477 H 0.13086 0.04804 0.10131 0.0
H1478 H 0.13803 0.98528 0.09805 0.0
C1479 C 0.0726 0.98395 0.06598 0.0
C1480 C 0.08247 0.02501 0.09423 0.0
C1481 C 0.05907 0.98091 0.05116 0.0
C1482 C 0.15782 0.03555 0.12142 0.0
C1483 C 0.13872 0.03541 0.11512 0.0
C1484 C 0.1224 0.99629 0.09751 0.0
C1485 C 0.07543 0.00396 0.06429 0.0
C1486 C 0.08912 0.00736 0.08072 0.0
C1487 C 0.13124 0.01786 0.12418 0.0
C1488 C 0.11594 0.01401 0.11072 0.0
H1489 H 0.04401 0.03061 0.01848 0.0
H1490 H 0.06733 0.03613 0.04487 0.0
H1491 H 0.11477 0.97949 0.0721 0.0
H1492 H 0.16914 0.98827 0.16051 0.0
H1493 H 0.13601 0.98813 0.14939 0.0
C1494 C 0.01957 0.45157 0.44301 0.0
C1495 C 0.00669 0.45625 0.46656 0.0
C1496 C 0.01649 0.43746 0.42893 0.0
C1497 C 0.99421 0.39398 0.43525 0.0
H1498 H 0.98087 0.41488 0.36536 0.0
C1499 C 0.96436 0.34422 0.39 0.0
C1500 C 0.97928 0.33665 0.36909 0.0
C1501 C 0.96267 0.36362 0.39717 0.0
C1502 C 0.98447 0.40899 0.38489 0.0
H1503 H 0.98173 0.44812 0.49488 0.0
H1504 H 0.97704 0.42314 0.4709 0.0
H1505 H 0.99283 0.43639 0.38857 0.0
H1506 H 0.00094 0.34518 0.33621 0.0
H1507 H -0.00193 0.37883 0.34893 0.0
H1508 H 0.98619 0.36662 0.43185 0.0
C1509 C 0.98913 0.43082 0.46298 0.0
C1510 C 0.99154 0.42108 0.39798 0.0
C1511 C 0.99189 0.44516 0.47674 0.0
C1512 C 0.98956 0.35039 0.35274 0.0
C1513 C 0.98791 0.36978 0.35998 0.0
C1514 C 0.98715 0.382 0.42231 0.0
C1515 C 0.00093 0.42735 0.43864 0.0
C1516 C -0.00386 0.41373 0.4234 0.0
C1517 C 0.97601 0.37547 0.38358 0.0
C1518 C 0.98184 0.38951 0.39722 0.0
H1519 H 0.03175 0.45899 0.43517 0.0
H1520 H 0.02611 0.43459 0.41042 0.0
H1521 H -0.00199 0.38787 0.45467 0.0
H1522 H 0.95571 0.33421 0.40239 0.0
H1523 H 0.95284 0.36812 0.41505 0.0
C1524 C 0.69198 0.26793 0.57042 0.0
C1525 C 0.69354 0.26446 0.5447 0.0
C1526 C 0.67333 0.26866 0.58765 0.0
C1527 C 0.61613 0.27771 0.5925 0.0
H1528 H 0.62234 0.23995 0.65686 0.0
C1529 C 0.54296 0.26595 0.6657 0.0
C1530 C 0.54518 0.26084 0.69215 0.0
C1531 C 0.56051 0.26681 0.64683 0.0
C1532 C 0.6201 0.25104 0.63935 0.0
H1533 H 0.67643 0.25976 0.51671 0.0
H1534 H 0.64373 0.26172 0.54656 0.0
H1535 H 0.65334 0.24248 0.62658 0.0
H1536 H 0.56806 0.25162 0.71898 0.0
H1537 H 0.59746 0.25508 0.68729 0.0
H1538 H 0.58295 0.28692 0.60556 0.0
C1539 C 0.65698 0.26368 0.55346 0.0
C1540 C 0.63805 0.25232 0.62183 0.0
C1541 C 0.67576 0.26248 0.53641 0.0
C1542 C 0.56536 0.25641 0.69905 0.0
C1543 C 0.5826 0.25782 0.6805 0.0
C1544 C 0.59811 0.27683 0.61037 0.0
C1545 C 0.65565 0.26638 0.57943 0.0
C1546 C 0.63634 0.26565 0.59819 0.0
C1547 C 0.58068 0.26279 0.65395 0.0
C1548 C 0.59976 0.26351 0.63422 0.0
H1549 H 0.70539 0.26922 0.57755 0.0
H1550 H 0.6728 0.2708 0.60753 0.0
H1551 H 0.61429 0.28815 0.57441 0.0
H1552 H 0.52773 0.26928 0.65956 0.0
H1553 H 0.55821 0.27038 0.62667 0.0
C1554 C 0.72117 0.95506 0.81916 0.0
C1555 C 0.7386 0.96276 0.8122 0.0
C1556 C 0.72152 0.93761 0.83812 0.0
C1557 C 0.75932 0.89201 0.87216 0.0
H1558 H 0.70803 0.8842 0.91363 0.0
C1559 C 0.75968 0.82188 0.95349 0.0
C1560 C 0.74413 0.81168 0.95547 0.0
C1561 C 0.75881 0.84075 0.93693 0.0
C1562 C 0.72248 0.88606 0.90204 0.0
H1563 H 0.76979 0.95918 0.82019 0.0
H1564 H 0.77013 0.92945 0.85458 0.0
H1565 H 0.70677 0.91693 0.88472 0.0
H1566 H 0.7151 0.81394 0.94205 0.0
H1567 H 0.7139 0.84649 0.91252 0.0
H1568 H 0.77502 0.8612 0.88994 0.0
C1569 C 0.75637 0.93623 0.84478 0.0
C1570 C 0.72178 0.90487 0.88535 0.0
C1571 C 0.7561 0.95348 0.82538 0.0
C1572 C 0.72756 0.82103 0.94064 0.0
C1573 C 0.72672 0.8399 0.92397 0.0
C1574 C 0.76004 0.87331 0.88908 0.0
C1575 C 0.73926 0.92769 0.851 0.0
C1576 C 0.74017 0.90809 0.86995 0.0
C1577 C 0.74237 0.84997 0.92187 0.0
C1578 C 0.74161 0.87002 0.9041 0.0
H1579 H 0.70745 0.96223 0.80947 0.0
H1580 H 0.70811 0.93153 0.84192 0.0
H1581 H 0.77379 0.89356 0.86036 0.0
H1582 H 0.77263 0.81531 0.96473 0.0
H1583 H 0.77093 0.84824 0.93616 0.0
C1584 C 0.18399 0.24698 0.05286 0.0
C1585 C 0.19077 0.26513 0.04517 0.0
C1586 C 0.1657 0.24747 0.0704 0.0
C1587 C 0.11542 0.28301 0.09649 0.0
H1588 H 0.11662 0.2373 0.15295 0.0
C1589 C 0.0451 0.2845 0.17887 0.0
C1590 C 0.04222 0.26517 0.19107 0.0
C1591 C 0.06262 0.28499 0.16013 0.0
C1592 C 0.11578 0.25003 0.13705 0.0
H1593 H 0.18349 0.29811 0.0495 0.0
H1594 H 0.15126 0.29904 0.08015 0.0
H1595 H 0.14834 0.23725 0.12255 0.0
H1596 H 0.05425 0.23132 0.19242 0.0
H1597 H 0.08393 0.23195 0.15853 0.0
H1598 H 0.08275 0.29557 0.11052 0.0
C1599 C 0.16021 0.28442 0.07258 0.0
C1600 C 0.13409 0.25004 0.1197 0.0
C1601 C 0.17869 0.28387 0.05518 0.0
C1602 C 0.05633 0.24638 0.18332 0.0
C1603 C 0.07349 0.24682 0.16413 0.0
C1604 C 0.09698 0.28287 0.11366 0.0
C1605 C 0.15358 0.26618 0.08048 0.0
C1606 C 0.13413 0.26651 0.09919 0.0
C1607 C 0.0773 0.2661 0.15279 0.0
C1608 C 0.09686 0.26634 0.1342 0.0
H1609 H 0.193 0.23224 0.04559 0.0
H1610 H 0.16093 0.2332 0.0759 0.0
H1611 H 0.11491 0.29581 0.08071 0.0
H1612 H 0.03439 0.29917 0.1847 0.0
H1613 H 0.06502 0.30015 0.15217 0.0
C1614 C 0.75703 0.44945 0.32177 0.0
C1615 C 0.73853 0.4632 0.31308 0.0
C1616 C 0.75639 0.43185 0.34022 0.0
C1617 C 0.72009 0.40702 0.38831 0.0
H1618 H 0.76588 0.35588 0.3782 0.0
C1619 C 0.71972 0.32391 0.44489 0.0
C1620 C 0.73877 0.31142 0.45363 0.0
C1621 C 0.71878 0.34294 0.42828 0.0
C1622 C 0.75303 0.37005 0.38146 0.0
H1623 H 0.70479 0.46987 0.31713 0.0
H1624 H 0.7035 0.43877 0.3488 0.0
H1625 H 0.7661 0.38821 0.34919 0.0
H1626 H 0.77174 0.30927 0.45172 0.0
H1627 H 0.77001 0.34206 0.42323 0.0
H1628 H 0.70698 0.38852 0.42052 0.0
C1629 C 0.71856 0.44168 0.34189 0.0
C1630 C 0.7532 0.38869 0.36485 0.0
C1631 C 0.71924 0.45945 0.32363 0.0
C1632 C 0.75674 0.31842 0.44546 0.0
C1633 C 0.75583 0.33722 0.42888 0.0
C1634 C 0.71988 0.38827 0.40489 0.0
C1635 C 0.73719 0.42739 0.35012 0.0
C1636 C 0.73682 0.40753 0.36808 0.0
C1637 C 0.7369 0.34972 0.41994 0.0
C1638 C 0.73643 0.36957 0.40178 0.0
H1639 H 0.77207 0.45211 0.31392 0.0
H1640 H 0.77102 0.42159 0.34646 0.0
H1641 H 0.70731 0.42121 0.39165 0.0
H1642 H 0.70558 0.31905 0.45096 0.0
H1643 H 0.70395 0.35217 0.42165 0.0
C1644 C 0.56514 0.99616 0.52617 0.0
C1645 C 0.54594 0.99326 0.53879 0.0
C1646 C 0.57914 0.99918 0.54014 0.0
C1647 C 0.57904 0.02086 0.59834 0.0
H1648 H 0.63952 1.00009 0.5798 0.0
C1649 C 0.65132 0.0179 0.64617 0.0
C1650 C 0.66796 0.0218 0.62768 0.0
C1651 C 0.63167 0.02125 0.63868 0.0
C1652 C 0.62262 0.0062 0.58491 0.0
H1653 H 0.52652 0.99039 0.57588 0.0
H1654 H 0.55131 0.9953 0.60066 0.0
H1655 H 0.61678 0.9866 0.56164 0.0
H1656 H 0.67617 0.03625 0.5888 0.0
H1657 H 0.64194 0.04186 0.57569 0.0
H1658 H 0.58534 0.04011 0.62228 0.0
C1659 C 0.55545 0.99531 0.57991 0.0
C1660 C 0.60964 0.99839 0.57466 0.0
C1661 C 0.54146 0.9921 0.56585 0.0
C1662 C 0.66368 0.03264 0.60316 0.0
C1663 C 0.64408 0.03599 0.59573 0.0
C1664 C 0.59218 0.02853 0.60895 0.0
C1665 C 0.5741 0.99955 0.56703 0.0
C1666 C 0.58771 0.0059 0.58081 0.0
C1667 C 0.6287 0.02848 0.61276 0.0
C1668 C 0.61403 0.02154 0.60177 0.0
H1669 H 0.56872 0.99741 0.50525 0.0
H1670 H 0.59328 0.00259 0.52959 0.0
H1671 H 0.56215 0.02708 0.60321 0.0
H1672 H 0.65417 0.00978 0.66534 0.0
H1673 H 0.61991 0.0155 0.65214 0.0
C1674 C 0.02344 0.94637 0.95049 0.0
C1675 C 0.00897 0.95741 0.96949 0.0
C1676 C 0.01833 0.93184 0.93931 0.0
C1677 C 0.98281 0.90023 0.94351 0.0
H1678 H 0.9885 0.91479 0.86875 0.0
C1679 C 0.96651 0.84702 0.88647 0.0
C1680 C 0.98372 0.8399 0.8677 0.0
C1681 C 0.96295 0.86637 0.89503 0.0
C1682 C 0.98678 0.9105 0.88957 0.0
H1683 H 0.97867 0.96045 0.9933 0.0
H1684 H 0.96982 0.93494 0.974 0.0
H1685 H -0.00075 0.93463 0.89496 0.0
H1686 H 0.00876 0.8482 0.84032 0.0
H1687 H 0.00336 0.88141 0.85591 0.0
H1688 H 0.97155 0.87538 0.93837 0.0
C1689 C 0.98506 0.93762 0.96772 0.0
C1690 C 0.99305 0.92178 0.90453 0.0
C1691 C 0.99018 0.9522 0.97888 0.0
C1692 C -0.00451 0.85345 0.85502 0.0
C1693 C 0.99229 0.87256 0.86398 0.0
C1694 C 0.97687 0.88871 0.92855 0.0
C1695 C -0.00134 0.92819 0.94697 0.0
C1696 C 0.9915 0.91644 0.93153 0.0
C1697 C 0.97709 0.87833 0.88555 0.0
C1698 C 0.9792 0.8934 0.90132 0.0
H1699 H 0.03816 0.94993 0.94315 0.0
H1700 H 0.02928 0.92429 0.92375 0.0
H1701 H 0.9814 0.89593 0.96433 0.0
H1702 H 0.95704 0.83681 0.8961 0.0
H1703 H 0.95049 0.87087 0.91086 0.0
C1704 C 0.08397 0.10028 0.96408 0.0
C1705 C 0.08563 0.08064 0.97935 0.0
C1706 C 0.08871 0.1162 0.97323 0.0
C1707 C 0.12509 0.11755 0.01429 0.0
H1708 H 0.10431 0.17841 0.99818 0.0
C1709 C 0.17859 0.16299 0.02217 0.0
C1710 C 0.1825 0.17559 0.99881 0.0
C1711 C 0.15974 0.15776 0.02844 0.0
C1712 C 0.1102 0.16145 0.00299 0.0
H1713 H 0.09168 0.06254 0.01662 0.0
H1714 H 0.09963 0.0904 0.03293 0.0
H1715 H 0.0834 0.15628 0.992 0.0
H1716 H 0.16902 0.19505 0.96546 0.0
H1717 H 0.13647 0.18516 0.97565 0.0
H1718 H 0.15237 0.12211 0.02349 0.0
C1719 C 0.09499 0.09351 0.0138 0.0
C1720 C 0.09825 0.1488 0.99943 0.0
C1721 C 0.09041 0.07761 0.00457 0.0
C1722 C 0.16631 0.18512 0.9835 0.0
C1723 C 0.14762 0.17949 0.98945 0.0
C1724 C 0.13697 0.13004 0.01769 0.0
C1725 C 0.09523 0.11258 0.99776 0.0
C1726 C 0.10579 0.12667 0.00468 0.0
C1727 C 0.1449 0.16441 0.01093 0.0
C1728 C 0.12995 0.15213 0.01169 0.0
H1729 H 0.08031 0.10282 0.9445 0.0
H1730 H 0.08883 0.13064 0.96036 0.0
H1731 H 0.13173 0.10056 0.01777 0.0
H1732 H 0.19081 0.15576 0.03444 0.0
H1733 H 0.15775 0.14678 0.04571 0.0
C1734 C 0.68273 0.56017 0.28652 0.0
C1735 C 0.69155 0.55151 0.26326 0.0
C1736 C 0.66444 0.57759 0.28769 0.0
C1737 C 0.61833 0.60795 0.25245 0.0
H1738 H 0.61388 0.65199 0.29279 0.0
C1739 C 0.55336 0.68876 0.24271 0.0
C1740 C 0.54463 0.69941 0.26459 0.0
C1741 C 0.57049 0.67032 0.24365 0.0
C1742 C 0.61463 0.63975 0.28168 0.0
H1743 H 0.68718 0.55434 0.22313 0.0
H1744 H 0.65554 0.58428 0.2252 0.0
H1745 H 0.64472 0.62095 0.29246 0.0
H1746 H 0.54699 0.69805 0.30506 0.0
H1747 H 0.57695 0.66604 0.30669 0.0
H1748 H 0.58832 0.62671 0.24159 0.0
C1749 C 0.66272 0.57772 0.24266 0.0
C1750 C 0.63245 0.62183 0.28148 0.0
C1751 C 0.68106 0.56046 0.24145 0.0
C1752 C 0.55343 0.69066 0.28764 0.0
C1753 C 0.57072 0.67222 0.28855 0.0
C1754 C 0.60054 0.62583 0.25266 0.0
C1755 C 0.65414 0.58675 0.26573 0.0
C1756 C 0.63471 0.60566 0.2667 0.0
C1757 C 0.57963 0.66174 0.26652 0.0
C1758 C 0.5984 0.64217 0.26712 0.0
H1759 H 0.68987 0.55345 0.30396 0.0
H1760 H 0.65823 0.58371 0.30598 0.0
H1761 H 0.61911 0.59578 0.24121 0.0
H1762 H 0.54719 0.69485 0.22451 0.0
H1763 H 0.57688 0.66308 0.22611 0.0
C1764 C 0.34411 0.82334 0.51619 0.0
C1765 C 0.32354 0.83308 0.51052 0.0
C1766 C 0.36005 0.83252 0.50504 0.0
C1767 C 0.35751 0.88576 0.49697 0.0
H1768 H 0.41853 0.867 0.48413 0.0
C1769 C 0.40277 0.93844 0.51281 0.0
C1770 C 0.41537 0.92906 0.53247 0.0
C1771 C 0.39618 0.92598 0.4999 0.0
C1772 C 0.40149 0.87242 0.48751 0.0
H1773 H 0.30381 0.858 0.4863 0.0
H1774 H 0.33158 0.87442 0.46718 0.0
H1775 H 0.39831 0.8448 0.47575 0.0
H1776 H 0.43253 0.89952 0.55272 0.0
H1777 H 0.42094 0.87747 0.52993 0.0
H1778 H 0.36037 0.91246 0.51039 0.0
C1779 C 0.3355 0.85967 0.48003 0.0
C1780 C 0.38999 0.85986 0.48259 0.0
C1781 C 0.31962 0.85038 0.49102 0.0
C1782 C 0.42254 0.90698 0.53782 0.0
C1783 C 0.41617 0.89444 0.5246 0.0
C1784 C 0.36888 0.89815 0.50187 0.0
C1785 C 0.35533 0.85179 0.48863 0.0
C1786 C 0.36787 0.86633 0.48772 0.0
C1787 C 0.40224 0.90392 0.50627 0.0
C1788 C 0.39093 0.89151 0.49761 0.0
H1789 H 0.34738 0.80977 0.53098 0.0
H1790 H 0.37522 0.82604 0.51186 0.0
H1791 H 0.34056 0.89079 0.50212 0.0
H1792 H 0.39715 0.95547 0.50838 0.0
H1793 H 0.38543 0.93363 0.48586 0.0
C1794 C 0.05777 0.69225 0.73661 0.0
C1795 C 0.04446 0.69913 0.75906 0.0
C1796 C 0.07566 0.67455 0.73815 0.0
C1797 C 0.10011 0.62571 0.78143 0.0
H1798 H 0.15097 0.62748 0.73435 0.0
C1799 C 0.18042 0.55818 0.78641 0.0
C1800 C 0.19245 0.55275 0.76261 0.0
C1801 C 0.16228 0.57584 0.78725 0.0
C1802 C 0.13688 0.62652 0.7475 0.0
H1803 H 0.03932 0.6921 0.80085 0.0
H1804 H 0.07036 0.66112 0.8036 0.0
H1805 H 0.11988 0.65809 0.73338 0.0
H1806 H 0.19468 0.56198 0.72105 0.0
H1807 H 0.16352 0.59244 0.72251 0.0
H1808 H 0.11725 0.59402 0.7955 0.0
C1809 C 0.06708 0.66952 0.78469 0.0
C1810 C 0.11893 0.6442 0.74693 0.0
C1811 C 0.0493 0.68742 0.78314 0.0
C1812 C 0.18584 0.5655 0.73977 0.0
C1813 C 0.16797 0.5832 0.74062 0.0
C1814 C 0.11813 0.60797 0.78201 0.0
C1815 C 0.08071 0.66289 0.76222 0.0
C1816 C 0.10013 0.64407 0.76367 0.0
C1817 C 0.15585 0.58877 0.76434 0.0
C1818 C 0.13677 0.60799 0.76484 0.0
H1819 H 0.05456 0.70075 0.71774 0.0
H1820 H 0.08545 0.6699 0.72033 0.0
H1821 H 0.08597 0.6248 0.79451 0.0
H1822 H 0.18495 0.54872 0.80438 0.0
H1823 H 0.15351 0.57957 0.80593 0.0
C1824 C 0.82258 0.3509 0.51541 0.0
C1825 C 0.83003 0.32991 0.51037 0.0
C1826 C 0.83421 0.3649 0.50449 0.0
C1827 C 0.88868 0.35937 0.49461 0.0
H1828 H 0.87109 0.42019 0.47705 0.0
C1829 C 0.91659 0.41553 0.53744 0.0
C1830 C 0.91665 0.43524 0.52336 0.0
C1831 C 0.9115 0.40088 0.52635 0.0
C1832 C 0.87652 0.40316 0.48136 0.0
H1833 H 0.85384 0.30749 0.48796 0.0
H1834 H 0.87462 0.33185 0.46936 0.0
H1835 H 0.84851 0.39981 0.47157 0.0
H1836 H 0.91344 0.45464 0.48622 0.0
H1837 H 0.90478 0.42885 0.4665 0.0
H1838 H 0.91591 0.36276 0.5062 0.0
C1839 C 0.85979 0.33753 0.48155 0.0
C1840 C 0.86351 0.39155 0.47833 0.0
C1841 C 0.84795 0.32365 0.49214 0.0
C1842 C 0.91355 0.43941 0.4973 0.0
C1843 C 0.90842 0.42477 0.48616 0.0
C1844 C 0.90156 0.37098 0.49789 0.0
C1845 C 0.85364 0.35785 0.4889 0.0
C1846 C 0.86919 0.36963 0.4857 0.0
C1847 C 0.90625 0.40584 0.50103 0.0
C1848 C 0.89529 0.39307 0.49214 0.0
H1849 H 0.80863 0.356 0.52927 0.0
H1850 H 0.82908 0.3805 0.51042 0.0
H1851 H 0.89326 0.34252 0.50091 0.0
H1852 H 0.91873 0.41217 0.55769 0.0
H1853 H 0.90985 0.38652 0.53842 0.0
C1854 C 0.31222 0.94701 0.26359 0.0
C1855 C 0.30553 0.95948 0.24064 0.0
C1856 C 0.32986 0.92909 0.26289 0.0
C1857 C 0.37923 0.90378 0.22143 0.0
H1858 H 0.37772 0.85402 0.27085 0.0
C1859 C 0.44833 0.82488 0.22031 0.0
C1860 C 0.45336 0.81319 0.24432 0.0
C1861 C 0.43035 0.84255 0.21889 0.0
C1862 C 0.37861 0.86782 0.25708 0.0
H1863 H 0.31255 0.96282 0.19885 0.0
H1864 H 0.3437 0.93165 0.19753 0.0
H1865 H 0.34664 0.88467 0.26986 0.0
H1866 H 0.44324 0.81117 0.28569 0.0
H1867 H 0.41216 0.84188 0.28332 0.0
H1868 H 0.4113 0.88691 0.20878 0.0
C1869 C 0.33514 0.93574 0.21617 0.0
C1870 C 0.36066 0.88549 0.25648 0.0
C1871 C 0.3172 0.95357 0.21688 0.0
C1872 C 0.43996 0.81979 0.26686 0.0
C1873 C 0.42193 0.83735 0.26545 0.0
C1874 C 0.39724 0.88607 0.22205 0.0
C1875 C 0.34169 0.92312 0.2392 0.0
C1876 C 0.3607 0.90387 0.23883 0.0
C1877 C 0.41676 0.84905 0.24144 0.0
C1878 C 0.39731 0.86783 0.24007 0.0
H1879 H 0.30363 0.95093 0.28229 0.0
H1880 H 0.33442 0.92007 0.28107 0.0
H1881 H 0.38004 0.91763 0.20772 0.0
H1882 H 0.45834 0.8204 0.20254 0.0
H1883 H 0.42695 0.85092 0.2 0.0
C1884 C 0.31109 0.4465 0.76608 0.0
C1885 C 0.30462 0.45959 0.7434 0.0
C1886 C 0.32885 0.42866 0.76493 0.0
C1887 C 0.37819 0.40385 0.72231 0.0
H1888 H 0.37661 0.35351 0.77055 0.0
C1889 C 0.44599 0.32374 0.71857 0.0
C1890 C 0.4513 0.31195 0.74243 0.0
C1891 C 0.42831 0.3418 0.71758 0.0
C1892 C 0.3775 0.36746 0.75708 0.0
H1893 H 0.31233 0.46424 0.70165 0.0
H1894 H 0.34324 0.43308 0.69958 0.0
H1895 H 0.34584 0.38446 0.77082 0.0
H1896 H 0.44204 0.31022 0.78395 0.0
H1897 H 0.41146 0.34133 0.78231 0.0
H1898 H 0.40995 0.38669 0.70859 0.0
C1899 C 0.33457 0.43662 0.71836 0.0
C1900 C 0.35975 0.38534 0.75725 0.0
C1901 C 0.31669 0.45445 0.71951 0.0
C1902 C 0.43851 0.31883 0.76521 0.0
C1903 C 0.42078 0.33666 0.76424 0.0
C1904 C 0.396 0.3859 0.72212 0.0
C1905 C 0.34089 0.42331 0.74106 0.0
C1906 C 0.35981 0.40395 0.74007 0.0
C1907 C 0.41528 0.34845 0.74043 0.0
C1908 C 0.39603 0.36746 0.73971 0.0
H1909 H 0.30225 0.44989 0.78484 0.0
H1910 H 0.33326 0.41915 0.78292 0.0
H1911 H 0.37906 0.41784 0.70891 0.0
H1912 H 0.45553 0.31902 0.70063 0.0
H1913 H 0.42464 0.35031 0.69885 0.0
C1914 C 0.17851 0.78003 0.5525 0.0
C1915 C 0.19194 0.76065 0.5453 0.0
C1916 C 0.16008 0.78087 0.57001 0.0
C1917 C 0.1344 0.74732 0.62049 0.0
H1918 H 0.08348 0.79304 0.60956 0.0
C1919 C 0.05354 0.74544 0.6779 0.0
C1920 C 0.04094 0.76393 0.68799 0.0
C1921 C 0.07161 0.7456 0.6601 0.0
C1922 C 0.09762 0.78027 0.61301 0.0
H1923 H 0.19633 0.72695 0.5505 0.0
H1924 H 0.164 0.7284 0.58062 0.0
H1925 H 0.11581 0.79213 0.57956 0.0
H1926 H 0.03669 0.79717 0.68702 0.0
H1927 H 0.06819 0.79769 0.65555 0.0
H1928 H 0.11611 0.73537 0.65377 0.0
C1929 C 0.1679 0.74296 0.57319 0.0
C1930 C 0.11619 0.77976 0.59584 0.0
C1931 C 0.18635 0.74214 0.55572 0.0
C1932 C 0.04624 0.78276 0.67943 0.0
C1933 C 0.0642 0.78302 0.66139 0.0
C1934 C 0.11581 0.74778 0.63754 0.0
C1935 C 0.15452 0.76234 0.58064 0.0
C1936 C 0.13481 0.7632 0.59925 0.0
C1937 C 0.07733 0.76434 0.65188 0.0
C1938 C 0.09716 0.76418 0.63392 0.0
H1939 H 0.18222 0.79462 0.54457 0.0
H1940 H 0.15031 0.79604 0.57544 0.0
H1941 H 0.14851 0.73457 0.6241 0.0
H1942 H 0.04974 0.73073 0.68437 0.0
H1943 H 0.0812 0.73101 0.65291 0.0
C1944 C 0.22897 0.96392 0.33413 0.0
C1945 C 0.24332 0.96143 0.31125 0.0
C1946 C 0.22826 0.94637 0.35299 0.0
C1947 C 0.24763 0.88675 0.35964 0.0
H1948 H 0.22468 0.89092 0.43161 0.0
C1949 C 0.23962 0.81185 0.42631 0.0
C1950 C 0.23814 0.81028 0.45325 0.0
C1951 C 0.23877 0.83095 0.41053 0.0
C1952 C 0.23154 0.8892 0.41173 0.0
H1953 H 0.26911 0.93898 0.29102 0.0
H1954 H 0.26918 0.90937 0.32405 0.0
H1955 H 0.22749 0.92244 0.40251 0.0
H1956 H 0.23489 0.82788 0.4848 0.0
H1957 H 0.23583 0.8608 0.45722 0.0
H1958 H 0.25392 0.85371 0.3687 0.0
C1959 C 0.25739 0.92421 0.32725 0.0
C1960 C 0.23276 0.90758 0.39474 0.0
C1961 C 0.25764 0.94144 0.30828 0.0
C1962 C 0.23609 0.82848 0.46406 0.0
C1963 C 0.23637 0.84755 0.44805 0.0
C1964 C 0.24727 0.86844 0.37667 0.0
C1965 C 0.24222 0.92607 0.34957 0.0
C1966 C 0.24079 0.90668 0.3683 0.0
C1967 C 0.23784 0.84914 0.42083 0.0
C1968 C 0.23886 0.86918 0.40303 0.0
H1969 H 0.21771 0.97916 0.3369 0.0
H1970 H 0.21628 0.94869 0.36972 0.0
H1971 H 0.25328 0.88501 0.33947 0.0
H1972 H 0.24138 0.79828 0.41713 0.0
H1973 H 0.23886 0.8311 0.39013 0.0
C1974 C 0.03159 0.66638 0.60964 0.0
C1975 C 0.01623 0.67339 0.63047 0.0
C1976 C 0.03389 0.64722 0.60132 0.0
C1977 C -0.00118 0.61437 0.60382 0.0
H1978 H 0.04305 0.58916 0.5512 0.0
C1979 C 0.97977 0.569 0.53609 0.0
C1980 C -0.00467 0.5511 0.52812 0.0
C1981 C 0.985 0.58358 0.54709 0.0
C1982 C 0.03054 0.59573 0.56603 0.0
H1983 H 0.99404 0.66385 0.66192 0.0
H1984 H -0.00065 0.62982 0.64878 0.0
H1985 H 0.05025 0.60952 0.57956 0.0
H1986 H 0.02866 0.53458 0.5246 0.0
H1987 H 0.03787 0.55934 0.54449 0.0
H1988 H 0.9796 0.59936 0.5919 0.0
C1989 C 0.00849 0.6398 0.63751 0.0
C1990 C 0.03463 0.60775 0.5822 0.0
C1991 C 0.00573 0.65928 0.64539 0.0
C1992 C 0.01641 0.54855 0.53 0.0
C1993 C 0.02164 0.56283 0.54163 0.0
C1994 C 0.99497 0.60181 0.58832 0.0
C1995 C 0.02124 0.63436 0.61409 0.0
C1996 C 0.01859 0.61789 0.60073 0.0
C1997 C 0.00582 0.58 0.55158 0.0
C1998 C 0.01051 0.59286 0.56855 0.0
H1999 H 0.04068 0.67645 0.59845 0.0
H2000 H 0.04426 0.64363 0.58352 0.0
H2001 H 0.98582 0.62197 0.61747 0.0
H2002 H 0.96336 0.57111 0.53509 0.0
H2003 H 0.97242 0.59708 0.55325 0.0
C2004 C 0.30539 0.75619 0.43156 0.0
C2005 C 0.30592 0.74573 0.45694 0.0
C2006 C 0.32407 0.75576 0.41479 0.0
C2007 C 0.3804 0.7489 0.41264 0.0
H2008 H 0.38436 0.73701 0.34282 0.0
C2009 C 0.4567 0.74225 0.33757 0.0
C2010 C 0.45385 0.75004 0.31164 0.0
C2011 C 0.43938 0.74084 0.35641 0.0
C2012 C 0.38349 0.74066 0.36211 0.0
H2013 H 0.32619 0.72672 0.48493 0.0
H2014 H 0.35909 0.72648 0.45578 0.0
H2015 H 0.35278 0.73662 0.37337 0.0
H2016 H 0.43034 0.76362 0.2856 0.0
H2017 H 0.40058 0.76143 0.31799 0.0
H2018 H 0.41091 0.75353 0.40114 0.0
C2019 C 0.34421 0.73491 0.44881 0.0
C2020 C 0.36537 0.74034 0.37967 0.0
C2021 C 0.32544 0.73503 0.46547 0.0
C2022 C 0.4333 0.75692 0.30518 0.0
C2023 C 0.41611 0.75563 0.32387 0.0
C2024 C 0.39851 0.74947 0.39492 0.0
C2025 C 0.34372 0.74514 0.4232 0.0
C2026 C 0.3635 0.74464 0.40506 0.0
C2027 C 0.41885 0.74733 0.34972 0.0
C2028 C 0.4002 0.74559 0.36929 0.0
H2029 H 0.29049 0.76488 0.42477 0.0
H2030 H 0.32315 0.76403 0.39531 0.0
H2031 H 0.37936 0.75241 0.43205 0.0
H2032 H 0.47231 0.73693 0.34321 0.0
H2033 H 0.44215 0.73429 0.37609 0.0
C2034 C 0.23674 0.06202 0.17802 0.0
C2035 C 0.25405 0.05057 0.19105 0.0
C2036 C 0.23789 0.07923 0.15907 0.0
C2037 C 0.26667 0.11898 0.13792 0.0
H2038 H 0.24156 0.1288 0.07521 0.0
C2039 C 0.27113 0.19072 0.05995 0.0
C2040 C 0.25405 0.20034 0.04599 0.0
C2041 C 0.27237 0.17163 0.07637 0.0
C2042 C 0.24839 0.1266 0.09276 0.0
H2043 H 0.28665 0.0473 0.1927 0.0
H2044 H 0.28849 0.07772 0.16038 0.0
H2045 H 0.24108 0.09739 0.10605 0.0
H2046 H 0.22503 0.19698 0.03809 0.0
H2047 H 0.22677 0.16443 0.06699 0.0
H2048 H 0.27336 0.14842 0.12531 0.0
C2049 C 0.27385 0.07367 0.16522 0.0
C2050 C 0.24819 0.10843 0.11044 0.0
C2051 C 0.27276 0.05632 0.18395 0.0
C2052 C 0.23842 0.19018 0.04859 0.0
C2053 C 0.23955 0.17123 0.0651 0.0
C2054 C 0.26661 0.13731 0.12044 0.0
C2055 C 0.25637 0.08547 0.15266 0.0
C2056 C 0.25723 0.10443 0.13333 0.0
C2057 C 0.2565 0.16161 0.07939 0.0
C2058 C 0.25734 0.14153 0.09761 0.0
H2059 H 0.22215 0.0579 0.1827 0.0
H2060 H 0.22408 0.08798 0.1499 0.0
H2061 H 0.27358 0.11654 0.15549 0.0
H2062 H 0.28371 0.19776 0.05801 0.0
H2063 H 0.28596 0.16465 0.08644 0.0
C2064 C 0.81771 0.73032 0.94454 0.0
C2065 C 0.8073 0.74767 0.95807 0.0
C2066 C 0.83642 0.72983 0.92765 0.0
C2067 C 0.87992 0.75504 0.91076 0.0
H2068 H 0.88975 0.7309 0.84698 0.0
C2069 C 0.94495 0.76497 0.82424 0.0
C2070 C 0.95636 0.74675 0.81279 0.0
C2071 C 0.92781 0.76462 0.84367 0.0
C2072 C 0.88732 0.73752 0.86484 0.0
H2073 H 0.80861 0.77807 0.96457 0.0
H2074 H 0.8409 0.77732 0.93511 0.0
H2075 H 0.85763 0.73136 0.87704 0.0
H2076 H 0.95967 0.71381 0.81317 0.0
H2077 H 0.92921 0.71327 0.84624 0.0
H2078 H 0.90945 0.76172 0.89797 0.0
C2079 C 0.83488 0.7639 0.93771 0.0
C2080 C 0.86892 0.73772 0.88216 0.0
C2081 C 0.81624 0.76435 0.95461 0.0
C2082 C 0.95087 0.72806 0.8215 0.0
C2083 C 0.93347 0.7278 0.84041 0.0
C2084 C 0.89822 0.75506 0.89326 0.0
C2085 C 0.84523 0.74667 0.92388 0.0
C2086 C 0.86496 0.74641 0.90544 0.0
C2087 C 0.92154 0.74615 0.85145 0.0
C2088 C 0.90216 0.7462 0.87017 0.0
H2089 H 0.81151 0.71702 0.94715 0.0
H2090 H 0.8441 0.7161 0.91776 0.0
H2091 H 0.87765 0.76159 0.92862 0.0
H2092 H 0.94889 0.77961 0.81762 0.0
H2093 H 0.91892 0.77901 0.85178 0.0
C2094 C 0.26428 0.5487 0.66809 0.0
C2095 C 0.25714 0.55238 0.69399 0.0
C2096 C 0.26503 0.56565 0.64833 0.0
C2097 C 0.26931 0.61968 0.63921 0.0
H2098 H 0.24584 0.62877 0.57539 0.0
C2099 C 0.25614 0.6997 0.5738 0.0
C2100 C 0.25907 0.70016 0.54678 0.0
C2101 C 0.25667 0.68086 0.59037 0.0
C2102 C 0.25278 0.62635 0.59291 0.0
H2103 H 0.24398 0.57701 0.71893 0.0
H2104 H 0.24598 0.60595 0.6851 0.0
H2105 H 0.24584 0.59683 0.60609 0.0
H2106 H 0.26451 0.68085 0.51614 0.0
H2107 H 0.26589 0.648 0.54495 0.0
H2108 H 0.27651 0.64883 0.62632 0.0
C2109 C 0.25128 0.59008 0.67997 0.0
C2110 C 0.25274 0.60802 0.61051 0.0
C2111 C 0.25024 0.57335 0.69946 0.0
C2112 C 0.26243 0.68117 0.53682 0.0
C2113 C 0.263 0.66228 0.55341 0.0
C2114 C 0.26954 0.63781 0.62162 0.0
C2115 C 0.25891 0.58649 0.65421 0.0
C2116 C 0.26066 0.6047 0.63409 0.0
C2117 C 0.26019 0.66181 0.58047 0.0
C2118 C 0.26093 0.64168 0.59841 0.0
H2119 H 0.26943 0.53278 0.66314 0.0
H2120 H 0.27088 0.56241 0.6286 0.0
H2121 H 0.27585 0.61742 0.65702 0.0
H2122 H 0.25307 0.71397 0.5823 0.0
H2123 H 0.25391 0.68137 0.61104 0.0
C2124 C 0.34016 0.00475 0.35746 0.0
C2125 C 0.32894 0.99111 0.37205 0.0
C2126 C 0.35913 0.00457 0.36406 0.0
C2127 C 0.40233 0.98091 0.40014 0.0
H2128 H 0.3839 0.03256 0.43167 0.0
C2129 C 0.45309 0.99488 0.46555 0.0
C2130 C 0.45246 0.0155 0.46768 0.0
C2131 C 0.43839 0.99117 0.45347 0.0
C2132 C 0.38969 0.01832 0.42255 0.0
H2133 H 0.32994 0.96498 0.40288 0.0
H2134 H 0.36338 0.96482 0.41463 0.0
H2135 H 0.36112 0.02549 0.40656 0.0
H2136 H 0.43662 0.04856 0.45763 0.0
H2137 H 0.41184 0.04242 0.43434 0.0
H2138 H 0.43134 0.97404 0.41465 0.0
C2139 C 0.35728 0.97559 0.39814 0.0
C2140 C 0.3765 0.01424 0.4083 0.0
C2141 C 0.33811 0.97586 0.39167 0.0
C2142 C 0.43691 0.03248 0.45708 0.0
C2143 C 0.42271 0.02885 0.44373 0.0
C2144 C 0.41592 0.9853 0.41367 0.0
C2145 C 0.36722 0.9907 0.38522 0.0
C2146 C 0.38258 0.99539 0.39746 0.0
C2147 C 0.42353 0.00806 0.44133 0.0
C2148 C 0.40957 0.00387 0.42564 0.0
H2149 H 0.3335 0.01678 0.34229 0.0
H2150 H 0.36662 0.01638 0.35398 0.0
H2151 H 0.40722 0.9663 0.39179 0.0
H2152 H 0.46536 0.98138 0.4722 0.0
H2153 H 0.43928 0.97493 0.45305 0.0
C2154 C 0.81901 0.8496 0.98093 0.0
C2155 C 0.81544 0.8365 0.00397 0.0
C2156 C 0.83774 0.85505 0.97469 0.0
C2157 C 0.88789 0.85092 0.99865 0.0
H2158 H 0.86531 0.9119 0.98789 0.0
C2159 C 0.91759 0.911 0.03569 0.0
C2160 C 0.91508 0.93092 0.02083 0.0
C2161 C 0.91192 0.89534 0.02718 0.0
C2162 C 0.8722 0.89492 0.99025 0.0
H2163 H 0.82945 0.8163 0.03658 0.0
H2164 H 0.86191 0.82644 0.02632 0.0
H2165 H 0.84431 0.8905 0.98261 0.0
H2166 H 0.90629 0.9498 0.98486 0.0
H2167 H 0.89687 0.9224 0.9696 0.0
H2168 H 0.91547 0.85583 0.00788 0.0
C2169 C 0.85052 0.8324 0.01285 0.0
C2170 C 0.86011 0.88254 0.98711 0.0
C2171 C 0.8319 0.82661 0.0188 0.0
C2172 C 0.90848 0.93446 0.99649 0.0
C2173 C 0.90296 0.91883 0.98792 0.0
C2174 C 0.90009 0.86344 0.00189 0.0
C2175 C 0.85284 0.84802 0.99188 0.0
C2176 C 0.86763 0.86039 0.99147 0.0
C2177 C 0.90356 0.8995 0.00375 0.0
C2178 C 0.89224 0.88562 0.99791 0.0
H2179 H 0.80657 0.85714 0.96904 0.0
H2180 H 0.83941 0.86653 0.95785 0.0
H2181 H 0.8941 0.83389 0.00231 0.0
H2182 H 0.92243 0.90811 0.0547 0.0
H2183 H 0.91247 0.88069 0.03988 0.0
C2184 C 0.6491 0.18816 0.52228 0.0
C2185 C 0.66542 0.18937 0.50199 0.0
C2186 C 0.64156 0.17067 0.52721 0.0
C2187 C 0.63971 0.13447 0.48392 0.0
H2188 H 0.59365 0.1264 0.53639 0.0
C2189 C 0.58437 0.09745 0.45807 0.0
C2190 C 0.58216 0.07991 0.47584 0.0
C2191 C 0.59044 0.11309 0.4658 0.0
C2192 C 0.60649 0.12848 0.52157 0.0
H2193 H 0.69033 0.17139 0.47567 0.0
H2194 H 0.67841 0.14002 0.48585 0.0
H2195 H 0.61882 0.14164 0.54649 0.0
H2196 H 0.58166 0.06596 0.51592 0.0
H2197 H 0.59264 0.09296 0.52949 0.0
H2198 H 0.6282 0.12021 0.45955 0.0
C2199 C 0.67003 0.15328 0.49634 0.0
C2200 C 0.62096 0.13732 0.52729 0.0
C2201 C 0.6772 0.1711 0.49086 0.0
C2202 C 0.58342 0.07942 0.50199 0.0
C2203 C 0.58969 0.09494 0.5097 0.0
C2204 C 0.62557 0.12529 0.47843 0.0
C2205 C 0.65061 0.15399 0.51218 0.0
C2206 C 0.63762 0.14083 0.50837 0.0
C2207 C 0.59488 0.11098 0.49122 0.0
C2208 C 0.60859 0.12245 0.49699 0.0
H2209 H 0.64033 0.20187 0.53185 0.0
H2210 H 0.62709 0.17175 0.54038 0.0
H2211 H 0.65181 0.13719 0.46839 0.0
H2212 H 0.58335 0.09807 0.43779 0.0
H2213 H 0.59353 0.12573 0.45131 0.0
C2214 C 0.81179 0.44633 0.2649 0.0
C2215 C 0.80478 0.45897 0.24221 0.0
C2216 C 0.82966 0.42862 0.2638 0.0
C2217 C 0.87896 0.40371 0.22141 0.0
H2218 H 0.87827 0.35403 0.27133 0.0
C2219 C 0.94797 0.32437 0.22007 0.0
C2220 C 0.95343 0.31304 0.24411 0.0
C2221 C 0.93009 0.34218 0.2187 0.0
C2222 C 0.87893 0.36781 0.25741 0.0
H2223 H 0.81184 0.463 0.20038 0.0
H2224 H 0.84324 0.43216 0.19838 0.0
H2225 H 0.84701 0.38447 0.2706 0.0
H2226 H 0.9442 0.31189 0.28558 0.0
H2227 H 0.91322 0.34278 0.28328 0.0
H2228 H 0.91097 0.38688 0.20823 0.0
C2229 C 0.83471 0.43589 0.21716 0.0
C2230 C 0.86087 0.38539 0.25697 0.0
C2231 C 0.81657 0.45354 0.21828 0.0
C2232 C 0.94059 0.32019 0.26672 0.0
C2233 C 0.92263 0.33786 0.26536 0.0
C2234 C 0.89707 0.38604 0.22182 0.0
C2235 C 0.84146 0.42299 0.23995 0.0
C2236 C 0.8606 0.40378 0.23921 0.0
C2237 C 0.91698 0.34914 0.24133 0.0
C2238 C 0.89745 0.36787 0.24006 0.0
H2239 H 0.80333 0.45 0.28371 0.0
H2240 H 0.83439 0.41948 0.28184 0.0
H2241 H 0.87957 0.41753 0.20756 0.0
H2242 H 0.95752 0.31947 0.20222 0.0
H2243 H 0.92633 0.35024 0.19982 0.0
C2244 C 0.0861 0.5955 0.46069 0.0
C2245 C 0.08419 0.57981 0.48146 0.0
C2246 C 0.08916 0.61397 0.46498 0.0
C2247 C 0.09341 0.64471 0.51392 0.0
H2248 H 0.14558 0.64545 0.46899 0.0
C2249 C 0.17156 0.66049 0.52342 0.0
C2250 C 0.17828 0.67357 0.50198 0.0
C2251 C 0.15159 0.65785 0.52615 0.0
C2252 C 0.13076 0.6458 0.48129 0.0
H2253 H 0.08167 0.57142 0.52302 0.0
H2254 H 0.0878 0.60369 0.53067 0.0
H2255 H 0.12564 0.62357 0.46159 0.0
H2256 H 0.16856 0.69611 0.46842 0.0
H2257 H 0.13409 0.69105 0.47299 0.0
H2258 H 0.09983 0.66616 0.5346 0.0
C2259 C 0.08675 0.60187 0.51115 0.0
C2260 C 0.11928 0.63336 0.477 0.0
C2261 C 0.08359 0.58336 0.50681 0.0
C2262 C 0.16385 0.68594 0.4852 0.0
C2263 C 0.14399 0.68325 0.48791 0.0
C2264 C 0.10513 0.65723 0.51833 0.0
C2265 C 0.09063 0.6168 0.49008 0.0
C2266 C 0.10061 0.63249 0.49334 0.0
C2267 C 0.13836 0.6681 0.50731 0.0
C2268 C 0.12395 0.65761 0.50206 0.0
H2269 H 0.08619 0.59303 0.44104 0.0
H2270 H 0.09184 0.62539 0.44848 0.0
H2271 H 0.07909 0.64415 0.52682 0.0
H2272 H 0.18229 0.65115 0.53689 0.0
H2273 H 0.14754 0.64595 0.54112 0.0
C2274 C 0.68227 0.06073 0.78458 0.0
C2275 C 0.69109 0.05171 0.76155 0.0
C2276 C 0.66403 0.07819 0.78545 0.0
C2277 C 0.61796 0.10763 0.74993 0.0
H2278 H 0.61273 0.15238 0.78954 0.0
C2279 C 0.55239 0.18794 0.7391 0.0
C2280 C 0.54313 0.19827 0.76109 0.0
C2281 C 0.56981 0.16974 0.74015 0.0
C2282 C 0.61374 0.13994 0.77861 0.0
H2283 H 0.68691 0.05406 0.72145 0.0
H2284 H 0.65533 0.0841 0.72298 0.0
H2285 H 0.64391 0.12164 0.78958 0.0
H2286 H 0.54466 0.19651 0.80192 0.0
H2287 H 0.57524 0.16519 0.80361 0.0
H2288 H 0.58789 0.12592 0.73884 0.0
C2289 C 0.66245 0.07775 0.74051 0.0
C2290 C 0.63172 0.1222 0.77863 0.0
C2291 C 0.68076 0.06045 0.7396 0.0
C2292 C 0.55164 0.18949 0.78434 0.0
C2293 C 0.56923 0.17139 0.78534 0.0
C2294 C 0.60003 0.12534 0.74988 0.0
C2295 C 0.65379 0.08704 0.7634 0.0
C2296 C 0.63424 0.10578 0.76413 0.0
C2297 C 0.57867 0.16122 0.76322 0.0
C2298 C 0.59764 0.14191 0.76405 0.0
H2299 H 0.6893 0.0542 0.80212 0.0
H2300 H 0.65777 0.08453 0.8036 0.0
H2301 H 0.61893 0.09523 0.73895 0.0
H2302 H 0.54638 0.19408 0.7208 0.0
H2303 H 0.57661 0.16263 0.72259 0.0
C2304 C 0.75207 0.57195 0.19783 0.0
C2305 C 0.75623 0.55123 0.1924 0.0
C2306 C 0.75321 0.58849 0.17803 0.0
C2307 C 0.75014 0.60714 0.10887 0.0
H2308 H 0.77904 0.64523 0.12043 0.0
C2309 C 0.76043 0.68095 0.03467 0.0
C2310 C 0.7576 0.69931 0.04571 0.0
C2311 C 0.76096 0.6616 0.05047 0.0
C2312 C 0.77074 0.6349 0.1169 0.0
H2313 H 0.76369 0.53207 0.16129 0.0
H2314 H 0.76525 0.56134 0.12634 0.0
H2315 H 0.7785 0.61401 0.15152 0.0
H2316 H 0.75228 0.7115 0.08229 0.0
H2317 H 0.75369 0.67832 0.1093 0.0
H2318 H 0.74198 0.62851 0.0744 0.0
C2319 C 0.76152 0.56451 0.14625 0.0
C2320 C 0.77048 0.61692 0.13475 0.0
C2321 C 0.76073 0.54773 0.16628 0.0
C2322 C 0.75505 0.69779 0.07286 0.0
C2323 C 0.75584 0.67859 0.0885 0.0
C2324 C 0.7503 0.62532 0.09093 0.0
C2325 C 0.75811 0.58504 0.15197 0.0
C2326 C 0.75985 0.603 0.13131 0.0
C2327 C 0.75898 0.66013 0.07764 0.0
C2328 C 0.76026 0.63968 0.09503 0.0
H2329 H 0.7478 0.57559 0.21749 0.0
H2330 H 0.75 0.60414 0.18318 0.0
H2331 H 0.74173 0.59679 0.10569 0.0
H2332 H 0.76217 0.68155 0.01387 0.0
H2333 H 0.7633 0.64774 0.0414 0.0
C2334 C 0.93091 0.52031 0.47466 0.0
C2335 C 0.95204 0.51794 0.46452 0.0
C2336 C 0.91757 0.51662 0.46022 0.0
C2337 C 0.91942 0.48541 0.40966 0.0
H2338 H 0.86036 0.51725 0.41324 0.0
C2339 C 0.84656 0.4925 0.35765 0.0
C2340 C 0.82965 0.48988 0.37654 0.0
C2341 C 0.86634 0.48891 0.36488 0.0
C2342 C 0.87685 0.50823 0.41218 0.0
H2343 H 0.97609 0.5094 0.43202 0.0
H2344 H 0.95259 0.50398 0.406 0.0
H2345 H 0.88398 0.52983 0.43121 0.0
H2346 H 0.82096 0.47757 0.41634 0.0
H2347 H 0.85543 0.4717 0.42899 0.0
H2348 H 0.91189 0.46392 0.39021 0.0
C2349 C 0.94626 0.50877 0.425 0.0
C2350 C 0.89033 0.51539 0.42244 0.0
C2351 C 0.95959 0.51244 0.43954 0.0
C2352 C 0.83367 0.48015 0.40159 0.0
C2353 C 0.8534 0.47659 0.40878 0.0
C2354 C 0.90584 0.4783 0.39911 0.0
C2355 C 0.92526 0.51029 0.4355 0.0
C2356 C 0.91166 0.50387 0.42178 0.0
C2357 C 0.86924 0.48262 0.39093 0.0
C2358 C 0.88442 0.48953 0.40084 0.0
H2359 H 0.92501 0.52396 0.49425 0.0
H2360 H 0.90156 0.51758 0.46905 0.0
H2361 H 0.93578 0.4761 0.40911 0.0
H2362 H 0.84393 0.49981 0.33813 0.0
H2363 H 0.87843 0.49367 0.35089 0.0
C2364 C 0.14851 0.516 0.65056 0.0
C2365 C 0.1667 0.51854 0.63436 0.0
C2366 C 0.12975 0.52089 0.64025 0.0
C2367 C 0.12539 0.50769 0.58207 0.0
H2368 H 0.06471 0.52519 0.59947 0.0
C2369 C 0.06912 0.49369 0.52297 0.0
C2370 C 0.05082 0.48927 0.53668 0.0
C2371 C 0.08301 0.49808 0.53605 0.0
C2372 C 0.08169 0.52007 0.59466 0.0
H2373 H 0.17909 0.53169 0.59668 0.0
H2374 H 0.14623 0.54054 0.57875 0.0
H2375 H 0.0861 0.53871 0.6208 0.0
H2376 H 0.03444 0.48317 0.57544 0.0
H2377 H 0.05859 0.49057 0.5979 0.0
H2378 H 0.12133 0.48845 0.55684 0.0
C2379 C 0.1464 0.53458 0.59915 0.0
C2380 C 0.09379 0.528 0.60659 0.0
C2381 C 0.16517 0.52949 0.60934 0.0
C2382 C 0.04806 0.48691 0.56398 0.0
C2383 C 0.06179 0.4914 0.577 0.0
C2384 C 0.1134 0.49969 0.57037 0.0
C2385 C 0.12937 0.52819 0.61376 0.0
C2386 C 0.11572 0.52202 0.60008 0.0
C2387 C 0.07882 0.49798 0.56305 0.0
C2388 C 0.09147 0.50586 0.57641 0.0
H2389 H 0.14949 0.50768 0.67002 0.0
H2390 H 0.11669 0.51605 0.65193 0.0
H2391 H 0.14238 0.50219 0.57752 0.0
H2392 H 0.07201 0.49515 0.50207 0.0
H2393 H 0.09626 0.50284 0.52485 0.0
C2394 C 0.5439 0.78151 0.17464 0.0
C2395 C 0.54443 0.76361 0.19305 0.0
C2396 C 0.56146 0.78205 0.15589 0.0
C2397 C 0.61922 0.75359 0.14265 0.0
H2398 H 0.61476 0.78741 0.07533 0.0
C2399 C 0.68863 0.74531 0.05954 0.0
C2400 C 0.69296 0.76404 0.04702 0.0
C2401 C 0.67026 0.74601 0.077 0.0
C2402 C 0.61621 0.77801 0.09415 0.0
H2403 H 0.56296 0.73192 0.20575 0.0
H2404 H 0.59275 0.73207 0.17216 0.0
H2405 H 0.58283 0.78654 0.10544 0.0
H2406 H 0.68139 0.79815 0.04261 0.0
H2407 H 0.64876 0.7994 0.07287 0.0
H2408 H 0.65256 0.74446 0.13082 0.0
C2409 C 0.5795 0.74622 0.17267 0.0
C2410 C 0.5979 0.77754 0.11152 0.0
C2411 C 0.56227 0.74595 0.19176 0.0
C2412 C 0.67845 0.78352 0.05215 0.0
C2413 C 0.65978 0.78421 0.06928 0.0
C2414 C 0.6374 0.75373 0.12512 0.0
C2415 C 0.5797 0.76448 0.15486 0.0
C2416 C 0.59911 0.76524 0.13606 0.0
C2417 C 0.65557 0.76544 0.08199 0.0
C2418 C 0.63612 0.76591 0.10068 0.0
H2419 H 0.53038 0.79544 0.17558 0.0
H2420 H 0.56094 0.79652 0.14286 0.0
H2421 H 0.62109 0.74444 0.16152 0.0
H2422 H 0.69959 0.73006 0.05603 0.0
H2423 H 0.6674 0.7313 0.08639 0.0
C2424 C 0.66077 0.53461 0.11072 0.0
C2425 C 0.66591 0.51909 0.1319 0.0
C2426 C 0.6417 0.53863 0.10152 0.0
C2427 C 0.59341 0.52091 0.11031 0.0
H2428 H 0.61055 0.51625 0.03698 0.0
C2429 C 0.55398 0.48296 0.05429 0.0
C2430 C 0.54517 0.49614 0.03293 0.0
C2431 C 0.56823 0.48815 0.06573 0.0
C2432 C 0.60549 0.51776 0.05735 0.0
H2433 H 0.6543 0.49795 0.16258 0.0
H2434 H 0.62128 0.50434 0.14616 0.0
H2435 H 0.63303 0.52514 0.0611 0.0
H2436 H 0.54505 0.52443 0.00622 0.0
H2437 H 0.57103 0.53304 0.0254 0.0
H2438 H 0.56639 0.51221 0.10651 0.0
C2439 C 0.63169 0.51358 0.13656 0.0
C2440 C 0.61819 0.52312 0.07119 0.0
C2441 C 0.65064 0.50986 0.14602 0.0
C2442 C 0.55206 0.51375 0.02204 0.0
C2443 C 0.56664 0.5188 0.03327 0.0
C2444 C 0.58084 0.51527 0.09648 0.0
C2445 C 0.62786 0.52672 0.113 0.0
C2446 C 0.61246 0.52451 0.09792 0.0
C2447 C 0.57412 0.50649 0.05582 0.0
C2448 C 0.58697 0.51337 0.07001 0.0
H2449 H 0.67228 0.54216 0.09985 0.0
H2450 H 0.63877 0.54953 0.08395 0.0
H2451 H 0.58845 0.52198 0.13077 0.0
H2452 H 0.54893 0.46922 0.06311 0.0
H2453 H 0.57409 0.47823 0.08286 0.0
C2454 C 0.40761 0.43377 0.99796 0.0
C2455 C 0.40988 0.43559 0.02304 0.0
C2456 C 0.40601 0.41487 0.99258 0.0
C2457 C 0.38251 0.37578 0.02894 0.0
H2458 H 0.39308 0.35398 0.96332 0.0
C2459 C 0.33472 0.32647 0.017 0.0
C2460 C 0.31924 0.33966 0.00204 0.0
C2461 C 0.35431 0.32979 0.01403 0.0
C2462 C 0.39034 0.35974 0.98181 0.0
H2463 H 0.41446 0.41913 0.06149 0.0
H2464 H 0.41164 0.38602 0.05223 0.0
H2465 H 0.41415 0.37571 0.97067 0.0
H2466 H 0.31298 0.36486 0.97011 0.0
H2467 H 0.34732 0.37114 0.96545 0.0
H2468 H 0.3582 0.3609 0.03976 0.0
C2469 C 0.41087 0.39909 0.03676 0.0
C2470 C 0.40226 0.37213 0.98601 0.0
C2471 C 0.41238 0.41797 0.04211 0.0
C2472 C 0.32451 0.35479 0.9822 0.0
C2473 C 0.34424 0.35809 0.97921 0.0
C2474 C 0.37089 0.36335 0.02487 0.0
C2475 C 0.40651 0.39773 0.01235 0.0
C2476 C 0.39793 0.38081 0.00937 0.0
C2477 C 0.3587 0.34645 0.99621 0.0
C2478 C 0.37428 0.35573 0.0011 0.0
H2479 H 0.40606 0.44724 0.98296 0.0
H2480 H 0.40266 0.4143 0.9736 0.0
H2481 H 0.37826 0.38268 0.04682 0.0
H2482 H 0.33115 0.31473 0.03257 0.0
H2483 H 0.36519 0.32081 0.02749 0.0
C2484 C 0.05091 0.18786 0.28621 0.0
C2485 C 0.04515 0.19927 0.26234 0.0
C2486 C 0.06864 0.16982 0.28715 0.0
C2487 C 0.119 0.14369 0.24707 0.0
H2488 H 0.11791 0.09363 0.29606 0.0
C2489 C 0.1847 0.06398 0.23797 0.0
C2490 C 0.19179 0.05133 0.26062 0.0
C2491 C 0.16709 0.08197 0.23921 0.0
C2492 C 0.11864 0.10754 0.28243 0.0
H2493 H 0.05364 0.20014 0.22077 0.0
H2494 H 0.08444 0.16934 0.22236 0.0
H2495 H 0.08704 0.12483 0.29657 0.0
H2496 H 0.18527 0.04757 0.30247 0.0
H2497 H 0.15434 0.07882 0.30472 0.0
H2498 H 0.1505 0.12649 0.23284 0.0
C2499 C 0.0754 0.17425 0.24046 0.0
C2500 C 0.10086 0.12552 0.28273 0.0
C2501 C 0.05755 0.19198 0.23954 0.0
C2502 C 0.18038 0.05699 0.28462 0.0
C2503 C 0.16254 0.07489 0.28588 0.0
C2504 C 0.13674 0.12576 0.24677 0.0
C2505 C 0.08134 0.16285 0.26425 0.0
C2506 C 0.10064 0.14385 0.26487 0.0
C2507 C 0.15568 0.08782 0.26317 0.0
C2508 C 0.13684 0.10727 0.26427 0.0
H2509 H 0.0417 0.19288 0.30418 0.0
H2510 H 0.07263 0.16157 0.30587 0.0
H2511 H 0.11975 0.15755 0.23334 0.0
H2512 H 0.19303 0.06018 0.21914 0.0
H2513 H 0.16228 0.09121 0.22124 0.0
C2514 C 0.22627 0.32067 0.93743 0.0
C2515 C 0.23838 0.31396 0.95776 0.0
C2516 C 0.22599 0.3395 0.92105 0.0
C2517 C 0.24407 0.38854 0.91159 0.0
H2518 H 0.23051 0.3925 0.84271 0.0
C2519 C 0.25441 0.45525 0.82667 0.0
C2520 C 0.23831 0.4632 0.81098 0.0
C2521 C 0.2544 0.43789 0.84592 0.0
C2522 C 0.23417 0.39177 0.86194 0.0
H2523 H 0.25979 0.32176 0.97705 0.0
H2524 H 0.26035 0.35417 0.94783 0.0
H2525 H 0.23142 0.36072 0.87266 0.0
H2526 H 0.20907 0.46026 0.80401 0.0
H2527 H 0.20893 0.42996 0.83737 0.0
H2528 H 0.24793 0.4195 0.8997 0.0
C2529 C 0.25033 0.34539 0.94477 0.0
C2530 C 0.23451 0.37346 0.87945 0.0
C2531 C 0.2501 0.3267 0.96165 0.0
C2532 C 0.22188 0.45403 0.81539 0.0
C2533 C 0.22184 0.43673 0.83456 0.0
C2534 C 0.2442 0.40673 0.89374 0.0
C2535 C 0.23844 0.35203 0.92387 0.0
C2536 C 0.23906 0.37156 0.90485 0.0
C2537 C 0.23828 0.42818 0.84981 0.0
C2538 C 0.2389 0.4087 0.86882 0.0
H2539 H 0.21676 0.31147 0.93429 0.0
H2540 H 0.21582 0.3441 0.90621 0.0
H2541 H 0.24751 0.38811 0.93081 0.0
H2542 H 0.26732 0.46205 0.8235 0.0
H2543 H 0.26738 0.43165 0.85715 0.0
C2544 C 0.31346 0.26589 0.95139 0.0
C2545 C 0.30507 0.24872 0.9567 0.0
C2546 C 0.33242 0.26483 0.935 0.0
C2547 C 0.36861 0.23545 0.88339 0.0
H2548 H 0.40708 0.26293 0.89723 0.0
C2549 C 0.45045 0.22746 0.82249 0.0
C2550 C 0.45558 0.24634 0.81375 0.0
C2551 C 0.43301 0.22696 0.84128 0.0
C2552 C 0.39644 0.25528 0.89303 0.0
H2553 H 0.31045 0.21671 0.94943 0.0
H2554 H 0.34369 0.21475 0.92087 0.0
H2555 H 0.375 0.26316 0.92739 0.0
H2556 H 0.44737 0.27931 0.81835 0.0
H2557 H 0.41717 0.27845 0.85191 0.0
H2558 H 0.39019 0.22748 0.84909 0.0
C2559 C 0.33535 0.22924 0.92903 0.0
C2560 C 0.37799 0.25545 0.91028 0.0
C2561 C 0.31631 0.23032 0.94547 0.0
C2562 C 0.44367 0.26455 0.82492 0.0
C2563 C 0.42643 0.26402 0.84409 0.0
C2564 C 0.38714 0.23514 0.86626 0.0
C2565 C 0.34365 0.24651 0.92351 0.0
C2566 C 0.36373 0.24565 0.90562 0.0
C2567 C 0.4206 0.24532 0.85206 0.0
C2568 C 0.40123 0.24513 0.8708 0.0
H2569 H 0.30525 0.28038 0.95962 0.0
H2570 H 0.33805 0.27858 0.93096 0.0
H2571 H 0.35788 0.22808 0.87885 0.0
H2572 H 0.4596 0.21322 0.8143 0.0
H2573 H 0.42913 0.21224 0.84724 0.0
C2574 C 0.44766 0.49606 0.97974 0.0
C2575 C 0.45376 0.51429 0.96993 0.0
C2576 C 0.4324 0.49167 0.96906 0.0
C2577 C 0.41597 0.49827 0.90703 0.0
H2578 H 0.36566 0.48467 0.94311 0.0
C2579 C 0.34623 0.50176 0.85889 0.0
C2580 C 0.33168 0.4916 0.873 0.0
C2581 C 0.36526 0.49853 0.86786 0.0
C2582 C 0.38 0.48776 0.93277 0.0
H2583 H 0.44797 0.54294 0.94248 0.0
H2584 H 0.42149 0.53514 0.92366 0.0
H2585 H 0.38798 0.49376 0.96729 0.0
H2586 H 0.32676 0.46738 0.90428 0.0
H2587 H 0.36052 0.46081 0.91924 0.0
H2588 H 0.40818 0.49222 0.8725 0.0
C2589 C 0.42847 0.52427 0.93955 0.0
C2590 C 0.39255 0.49327 0.94666 0.0
C2591 C 0.44347 0.52875 0.95044 0.0
C2592 C 0.3377 0.47566 0.89349 0.0
C2593 C 0.35689 0.4721 0.90215 0.0
C2594 C 0.40359 0.49243 0.89316 0.0
C2595 C 0.42342 0.50533 0.94817 0.0
C2596 C 0.41038 0.49894 0.9338 0.0
C2597 C 0.36991 0.48492 0.89089 0.0
C2598 C 0.38523 0.48747 0.9058 0.0
H2599 H 0.45582 0.48439 0.99399 0.0
H2600 H 0.42875 0.4769 0.9758 0.0
H2601 H 0.42992 0.50229 0.89685 0.0
H2602 H 0.34189 0.51399 0.84282 0.0
H2603 H 0.37502 0.50848 0.8584 0.0
C2604 C 0.67231 0.65799 0.02176 0.0
C2605 C 0.67797 0.67257 0.00142 0.0
C2606 C 0.65272 0.65444 0.02431 0.0
C2607 C 0.6281 0.6466 0.97838 0.0
H2608 H 0.58232 0.63729 0.03062 0.0
C2609 C 0.58547 0.59342 0.96032 0.0
C2610 C 0.58743 0.57598 0.97962 0.0
C2611 C 0.58715 0.61226 0.96557 0.0
C2612 C 0.59493 0.64002 0.01582 0.0
H2613 H 0.66684 0.69636 0.96947 0.0
H2614 H 0.63306 0.68983 0.97378 0.0
H2615 H 0.60326 0.65919 0.038 0.0
H2616 H 0.59032 0.5647 0.02001 0.0
H2617 H 0.59384 0.59766 0.02925 0.0
H2618 H 0.62135 0.62644 0.957 0.0
C2619 C 0.64351 0.68148 0.98796 0.0
C2620 C 0.60679 0.65248 0.02004 0.0
C2621 C 0.66295 0.68506 0.98543 0.0
C2622 C 0.58918 0.57802 0.00484 0.0
C2623 C 0.59087 0.59692 0.01014 0.0
C2624 C 0.61649 0.63418 0.97428 0.0
C2625 C 0.6388 0.66529 0.00638 0.0
C2626 C 0.62367 0.65547 0.00144 0.0
C2627 C 0.59105 0.61378 0.99015 0.0
C2628 C 0.60007 0.63036 0.99312 0.0
H2629 H 0.68347 0.64848 0.03463 0.0
H2630 H 0.64939 0.64175 0.03854 0.0
H2631 H 0.64143 0.64824 0.96411 0.0
H2632 H 0.58384 0.59209 0.94082 0.0
H2633 H 0.58699 0.62511 0.94991 0.0
C2634 C 0.94437 0.82157 0.71622 0.0
C2635 C 0.95296 0.81264 0.73937 0.0
C2636 C 0.92714 0.84005 0.71528 0.0
C2637 C 0.89696 0.88624 0.75131 0.0
H2638 H 0.85306 0.89097 0.71112 0.0
C2639 C 0.8156 0.95029 0.76313 0.0
C2640 C 0.80524 0.95949 0.74125 0.0
C2641 C 0.83422 0.93337 0.76167 0.0
C2642 C 0.86526 0.89012 0.72221 0.0
H2643 H 0.95023 0.81699 0.77956 0.0
H2644 H 0.9206 0.84889 0.77789 0.0
H2645 H 0.88404 0.86007 0.7108 0.0
H2646 H 0.80753 0.95849 0.70018 0.0
H2647 H 0.83957 0.92864 0.6978 0.0
H2648 H 0.8781 0.91617 0.76292 0.0
C2649 C 0.92708 0.84171 0.76033 0.0
C2650 C 0.88315 0.87229 0.72201 0.0
C2651 C 0.94417 0.82321 0.7613 0.0
C2652 C 0.81452 0.95149 0.71768 0.0
C2653 C 0.83305 0.93434 0.71629 0.0
C2654 C 0.87907 0.90403 0.75154 0.0
C2655 C 0.91809 0.8504 0.73737 0.0
C2656 C 0.89928 0.86993 0.73672 0.0
C2657 C 0.84319 0.92491 0.73831 0.0
C2658 C 0.86279 0.90623 0.73716 0.0
H2659 H 0.95093 0.81429 0.69874 0.0
H2660 H 0.92104 0.84633 0.69707 0.0
H2661 H 0.90909 0.88539 0.7625 0.0
H2662 H 0.80918 0.95596 0.78166 0.0
H2663 H 0.84131 0.9266 0.77916 0.0
C2664 C 0.53519 0.16851 0.61401 0.0
C2665 C 0.52085 0.17589 0.63546 0.0
C2666 C 0.53662 0.14916 0.60693 0.0
C2667 C 0.51524 0.10389 0.61887 0.0
H2668 H 0.49415 0.12957 0.55367 0.0
C2669 C 0.47903 0.06141 0.5629 0.0
C2670 C 0.48908 0.06012 0.53727 0.0
C2671 C 0.48175 0.07544 0.57741 0.0
C2672 C 0.50007 0.12215 0.57177 0.0
H2673 H 0.50046 0.16683 0.66953 0.0
H2674 H 0.50299 0.13324 0.65701 0.0
H2675 H 0.50817 0.14925 0.57614 0.0
H2676 H 0.50808 0.07444 0.50596 0.0
H2677 H 0.51259 0.09876 0.53097 0.0
H2678 H 0.50715 0.07663 0.61417 0.0
C2679 C 0.5128 0.14246 0.64543 0.0
C2680 C 0.50834 0.13327 0.58446 0.0
C2681 C 0.51135 0.16183 0.65254 0.0
C2682 C 0.50031 0.07458 0.52577 0.0
C2683 C 0.50285 0.08868 0.54009 0.0
C2684 C 0.5071 0.09258 0.60594 0.0
C2685 C 0.52368 0.13716 0.62126 0.0
C2686 C 0.51642 0.12411 0.60779 0.0
C2687 C 0.49425 0.08872 0.56629 0.0
C2688 C 0.49983 0.10153 0.58201 0.0
H2689 H 0.54331 0.17873 0.60105 0.0
H2690 H 0.5456 0.14496 0.58849 0.0
H2691 H 0.52088 0.09679 0.6372 0.0
H2692 H 0.46979 0.05114 0.57223 0.0
H2693 H 0.47455 0.07553 0.59745 0.0
C2694 C 0.48646 0.35227 0.85621 0.0
C2695 C 0.48094 0.33645 0.87466 0.0
C2696 C 0.48349 0.37205 0.86318 0.0
C2697 C 0.48655 0.38717 0.92414 0.0
H2698 H 0.49207 0.43865 0.88103 0.0
C2699 C 0.52337 0.43923 0.96043 0.0
C2700 C 0.5118 0.46057 0.95801 0.0
C2701 C 0.51993 0.42582 0.94566 0.0
C2702 C 0.49049 0.42438 0.89335 0.0
H2703 H 0.46403 0.32987 0.91258 0.0
H2704 H 0.45777 0.36488 0.92439 0.0
H2705 H 0.47713 0.41562 0.86517 0.0
H2706 H 0.48871 0.48522 0.93782 0.0
H2707 H 0.48225 0.46197 0.91253 0.0
H2708 H 0.49921 0.39608 0.95261 0.0
C2709 C 0.46552 0.36172 0.90512 0.0
C2710 C 0.48193 0.41119 0.88427 0.0
C2711 C 0.46894 0.34175 0.89836 0.0
C2712 C 0.49785 0.46873 0.93971 0.0
C2713 C 0.49427 0.45541 0.92513 0.0
C2714 C 0.4948 0.40042 0.93331 0.0
C2715 C 0.47477 0.37619 0.88858 0.0
C2716 C 0.48008 0.39228 0.89947 0.0
C2717 C 0.50456 0.43365 0.9288 0.0
C2718 C 0.4971 0.41906 0.91795 0.0
H2719 H 0.49547 0.34859 0.83761 0.0
H2720 H 0.49046 0.38292 0.84969 0.0
H2721 H 0.486 0.37249 0.93621 0.0
H2722 H 0.53407 0.43274 0.97472 0.0
H2723 H 0.52844 0.40917 0.94848 0.0
C2724 C 0.46763 0.84403 0.39569 0.0
C2725 C 0.48128 0.83705 0.37355 0.0
C2726 C 0.46574 0.86365 0.40251 0.0
C2727 C 0.48647 0.91057 0.3835 0.0
H2728 H 0.49615 0.89787 0.45523 0.0
C2729 C 0.50215 0.96907 0.43816 0.0
C2730 C 0.51395 0.96121 0.45881 0.0
C2731 C 0.49821 0.95542 0.42436 0.0
C2732 C 0.49385 0.90154 0.43506 0.0
H2733 H 0.50073 0.84664 0.33891 0.0
H2734 H 0.49766 0.8804 0.35084 0.0
H2735 H 0.48366 0.87443 0.43726 0.0
H2736 H 0.53206 0.93301 0.48035 0.0
H2737 H 0.52602 0.9088 0.45542 0.0
H2738 H 0.49792 0.93709 0.38105 0.0
C2739 C 0.48851 0.87088 0.36321 0.0
C2740 C 0.48607 0.88838 0.42488 0.0
C2741 C 0.49029 0.85135 0.35632 0.0
C2742 C 0.52309 0.93941 0.4643 0.0
C2743 C 0.51932 0.92563 0.45028 0.0
C2744 C 0.49452 0.92365 0.39363 0.0
C2745 C 0.47766 0.87643 0.38741 0.0
C2746 C 0.48247 0.89257 0.39891 0.0
C2747 C 0.50603 0.9335 0.43091 0.0
C2748 C 0.49848 0.91917 0.4195 0.0
H2749 H 0.45987 0.83361 0.40886 0.0
H2750 H 0.45645 0.86794 0.42076 0.0
H2751 H 0.48381 0.91433 0.36345 0.0
H2752 H 0.49452 0.98577 0.43384 0.0
H2753 H 0.48772 0.96213 0.40988 0.0
C2754 C 0.50032 0.54131 0.06273 0.0
C2755 C 0.488 0.54971 0.04273 0.0
C2756 C 0.50271 0.5545 0.07847 0.0
C2757 C 0.48187 0.608 0.0972 0.0
H2758 H 0.5394 0.59855 0.10854 0.0
C2759 C 0.49918 0.66384 0.15032 0.0
C2760 C 0.51234 0.67459 0.1338 0.0
C2761 C 0.49906 0.64429 0.14551 0.0
C2762 C 0.52327 0.60116 0.10575 0.0
H2763 H 0.46844 0.57803 0.02297 0.0
H2764 H 0.4729 0.6015 0.05026 0.0
H2765 H 0.53129 0.57392 0.08641 0.0
H2766 H 0.53778 0.67228 0.10183 0.0
H2767 H 0.5376 0.63788 0.09335 0.0
H2768 H 0.47403 0.63573 0.11544 0.0
C2769 C 0.48022 0.58466 0.05436 0.0
C2770 C 0.51858 0.5871 0.09322 0.0
C2771 C 0.47767 0.57135 0.03876 0.0
C2772 C 0.52722 0.66438 0.11446 0.0
C2773 C 0.52722 0.64469 0.10978 0.0
C2774 C 0.48654 0.62195 0.10981 0.0
C2775 C 0.49318 0.57636 0.07397 0.0
C2776 C 0.49786 0.59053 0.08862 0.0
C2777 C 0.51217 0.63523 0.12422 0.0
C2778 C 0.50729 0.61874 0.114 0.0
H2779 H 0.5087 0.52463 0.06564 0.0
H2780 H 0.51251 0.54766 0.09366 0.0
H2781 H 0.46579 0.611 0.09394 0.0
H2782 H 0.48762 0.67136 0.16546 0.0
H2783 H 0.48753 0.63706 0.15709 0.0
loop_
_geom_bond_atom_site_label_1
_geom_bond_atom_site_label_2
_geom_bond_distance
_geom_bond_site_symmetry_2
_ccdc_geom_bond_type
Eu0 N29 2.600 . S
Eu0 N35 2.562 1_655 S
Eu0 O44 2.462 . S
Eu0 O45 2.373 1_655 S
Eu0 O47 2.432 . S
Eu0 O48 2.291 1_654 S
Eu0 O52 2.335 1_564 S
Eu0 O55 2.372 1_565 S
Eu0 C64 2.787 . S
C1 N2 1.365 . S
C1 C4 1.405 . S
C1 C8 1.448 . S
N2 C1 1.365 . S
N2 C5 1.319 . S
N2 Eu11 2.600 . S
C3 C5 1.397 . S
C3 C6 1.367 . S
C3 H23 0.931 1_545 S
C4 C1 1.405 . S
C4 C6 1.403 . S
C4 C10 1.457 . S
C5 N2 1.319 . S
C5 C3 1.397 . S
C5 H16 0.930 1_545 S
C6 C3 1.367 . S
C6 C4 1.403 . S
C6 H27 0.929 . S
C7 C8 1.430 1_655 S
C7 C9 1.387 . S
C7 C13 1.404 . S
C8 C1 1.448 . S
C8 C7 1.430 1_455 S
C8 N12 1.351 . S
C9 C7 1.387 . S
C9 C10 1.366 1_655 S
C9 H24 0.931 . S
C10 C4 1.457 . S
C10 C9 1.366 1_455 S
C10 H25 0.925 . S
Eu11 N2 2.600 . S
Eu11 N12 2.562 . S
Eu11 O46 2.335 1_556 S
Eu11 O49 2.372 1_545 S
Eu11 O50 2.462 . S
Eu11 O51 2.373 1_455 S
Eu11 O53 2.432 . S
Eu11 O54 2.291 1_456 S
Eu11 C75 2.787 . S
N12 C8 1.351 . S
N12 Eu11 2.562 . S
N12 C14 1.325 1_455 S
C13 C7 1.404 . S
C13 C15 1.366 . S
C13 H21 0.930 . S
C14 N12 1.325 1_655 S
C14 C15 1.416 . S
C14 H20 0.929 . S
C15 C13 1.366 . S
C15 C14 1.416 . S
C15 H17 0.930 . S
H16 C5 0.930 1_565 S
H17 C15 0.930 . S
H18 C33 0.930 . S
H19 C40 0.930 . S
H20 C14 0.929 . S
H21 C13 0.930 . S
H22 C36 0.929 . S
H23 C3 0.931 1_565 S
H24 C9 0.931 . S
H25 C10 0.925 . S
H26 C31 0.931 . S
H27 C6 0.929 . S
H28 C39 0.930 . S
N29 Eu0 2.600 . S
N29 C30 1.365 . S
N29 C33 1.319 1_565 S
C30 N29 1.365 . S
C30 C32 1.405 . S
C30 C38 1.448 1_655 S
C31 H26 0.931 . S
C31 C33 1.397 . S
C31 C34 1.367 1_545 S
C32 C30 1.405 . S
C32 C34 1.403 . S
C32 C65 1.439 1_655 S
C33 H18 0.930 . S
C33 N29 1.319 1_545 S
C33 C31 1.397 . S
C34 C31 1.367 1_565 S
C34 C32 1.403 . S
C34 H41 0.929 . S
N35 Eu0 2.562 1_455 S
N35 C36 1.325 . S
N35 C38 1.351 . S
C36 H22 0.929 . S
C36 N35 1.325 . S
C36 C40 1.416 . S
C37 C38 1.430 . S
C37 C39 1.404 . S
C37 C66 1.387 . S
C38 C30 1.448 1_455 S
C38 N35 1.351 . S
C38 C37 1.430 . S
C39 H28 0.930 . S
C39 C37 1.404 . S
C39 C40 1.366 . S
C40 H19 0.930 . S
C40 C36 1.416 . S
C40 C39 1.366 . S
H41 C34 0.929 . S
H42 C65 0.931 . S
H43 C66 0.931 . S
O44 Eu0 2.462 . S
O44 C64 1.252 . S
O45 Eu0 2.373 1_455 S
O45 C56 1.249 . S
O46 Eu11 2.335 1_554 S
O46 C56 1.264 1_545 S
O47 Eu0 2.432 . S
O47 C64 1.268 . S
O48 Eu0 2.291 1_456 S
O48 C63 1.255 . S
O49 Eu11 2.372 1_565 S
O49 C63 1.257 . S
O50 Eu11 2.462 . S
O50 C75 1.252 . S
O51 Eu11 2.373 1_655 S
O51 C67 1.249 . S
O52 Eu0 2.335 1_546 S
O52 C67 1.264 . S
O53 Eu11 2.432 . S
O53 C75 1.268 . S
O54 Eu11 2.291 1_654 S
O54 C74 1.255 . S
O55 Eu0 2.372 1_545 S
O55 C74 1.257 . S
C56 O45 1.249 . S
C56 O46 1.264 1_565 S
C57 C60 1.382 . S
C57 C62 1.390 . S
C57 C64 1.506 . S
C58 C59 1.398 . S
C58 C62 1.392 . S
C59 C58 1.398 . S
C59 C61 1.372 . S
C59 H76 0.931 . S
C60 C57 1.382 . S
C60 C61 1.390 . S
C60 H77 0.931 . S
C61 C59 1.372 . S
C61 C60 1.390 . S
C61 H78 0.929 . S
C62 C57 1.390 . S
C62 C58 1.392 . S
C62 H79 0.930 . S
C63 O48 1.255 . S
C63 O49 1.257 . S
C64 Eu0 2.787 . S
C64 O44 1.252 . S
C64 O47 1.268 . S
C64 C57 1.506 . S
C65 C32 1.439 1_455 S
C65 H42 0.931 . S
C65 C66 1.374 . S
C66 C37 1.387 . S
C66 H43 0.931 . S
C66 C65 1.374 . S
C67 O51 1.249 . S
C67 O52 1.264 . S
C68 C71 1.382 . S
C68 C72 1.390 . S
C68 C75 1.506 . S
C69 C70 1.398 . S
C69 C72 1.392 . S
C70 C69 1.398 . S
C70 C73 1.372 . S
C70 H80 0.931 . S
C71 C68 1.382 . S
C71 C73 1.390 . S
C71 H81 0.931 . S
C72 C68 1.390 . S
C72 C69 1.392 . S
C72 H82 0.930 . S
C73 C70 1.372 . S
C73 C71 1.390 . S
C73 H83 0.929 . S
C74 O54 1.255 . S
C74 O55 1.257 . S
C75 Eu11 2.787 . S
C75 O50 1.252 . S
C75 O53 1.268 . S
C75 C68 1.506 . S
H76 C59 0.931 . S
H77 C60 0.931 . S
H78 C61 0.929 . S
H79 C62 0.930 . S
H80 C70 0.931 . S
H81 C71 0.931 . S
H82 C72 0.930 . S
H83 C73 0.929 . S
Eu84 N113 2.600 . S
Eu84 N119 2.562 . S
Eu84 O128 2.462 1_655 S
Eu84 O129 2.373 . S
Eu84 O131 2.432 . S
Eu84 O132 2.291 1_655 S
Eu84 O136 2.335 1_655 S
Eu84 O139 2.372 . S
Eu84 C148 2.787 . S
C85 N86 1.365 . S
C85 C88 1.405 . S
C85 C92 1.448 . S
N86 C85 1.365 . S
N86 C89 1.319 . S
N86 Eu95 2.600 . S
C87 C89 1.397 . S
C87 C90 1.367 . S
C87 H107 0.931 . S
C88 C85 1.405 . S
C88 C90 1.403 . S
C88 C94 1.439 . S
C89 N86 1.319 . S
C89 C87 1.397 . S
C89 H100 0.930 . S
C90 C87 1.367 . S
C90 C88 1.403 . S
C90 H111 0.929 . S
C91 C92 1.430 . S
C91 C93 1.387 . S
C91 C97 1.404 . S
C92 C85 1.448 . S
C92 C91 1.430 . S
C92 N96 1.351 . S
C93 C91 1.387 . S
C93 C94 1.374 . S
C93 H108 0.931 . S
C94 C88 1.439 . S
C94 C93 1.374 . S
C94 H109 0.931 . S
Eu95 N86 2.600 . S
Eu95 N96 2.562 . S
Eu95 O130 2.335 1_455 S
Eu95 O133 2.372 . S
Eu95 O134 2.462 . S
Eu95 O135 2.373 . S
Eu95 O137 2.432 . S
Eu95 O138 2.291 1_455 S
Eu95 C159 2.787 . S
N96 C92 1.351 . S
N96 Eu95 2.562 . S
N96 C98 1.325 . S
C97 C91 1.404 . S
C97 C99 1.366 . S
C97 H105 0.930 . S
C98 N96 1.325 . S
C98 C99 1.416 . S
C98 H104 0.929 . S
C99 C97 1.366 . S
C99 C98 1.416 . S
C99 H101 0.930 . S
H100 C89 0.930 . S
H101 C99 0.930 . S
H102 C117 0.930 . S
H103 C124 0.930 . S
H104 C98 0.929 . S
H105 C97 0.930 . S
H106 C120 0.929 . S
H107 C87 0.931 . S
H108 C93 0.931 . S
H109 C94 0.931 . S
H110 C115 0.931 . S
H111 C90 0.929 . S
H112 C123 0.930 . S
N113 Eu84 2.600 . S
N113 C114 1.365 . S
N113 C117 1.319 . S
C114 N113 1.365 . S
C114 C116 1.405 . S
C114 C122 1.448 . S
C115 H110 0.931 . S
C115 C117 1.397 . S
C115 C118 1.367 . S
C116 C114 1.405 . S
C116 C118 1.403 . S
C116 C149 1.439 . S
C117 H102 0.930 . S
C117 N113 1.319 . S
C117 C115 1.397 . S
C118 C115 1.367 . S
C118 C116 1.403 . S
C118 H125 0.929 . S
N119 Eu84 2.562 . S
N119 C120 1.325 . S
N119 C122 1.351 . S
C120 H106 0.929 . S
C120 N119 1.325 . S
C120 C124 1.416 . S
C121 C122 1.430 . S
C121 C123 1.404 . S
C121 C150 1.387 . S
C122 C114 1.448 . S
C122 N119 1.351 . S
C122 C121 1.430 . S
C123 H112 0.930 . S
C123 C121 1.404 . S
C123 C124 1.366 . S
C124 H103 0.930 . S
C124 C120 1.416 . S
C124 C123 1.366 . S
H125 C118 0.929 . S
H126 C149 0.931 . S
H127 C150 0.931 . S
O128 Eu84 2.462 1_455 S
O128 C148 1.252 1_455 S
O129 Eu84 2.373 . S
O129 C140 1.249 . S
O130 Eu95 2.335 1_655 S
O130 C140 1.264 . S
O131 Eu84 2.432 . S
O131 C148 1.268 . S
O132 Eu84 2.291 1_455 S
O132 C147 1.255 . S
O133 Eu95 2.372 . S
O133 C147 1.257 . S
O134 Eu95 2.462 . S
O134 C159 1.252 . S
O135 Eu95 2.373 . S
O135 C151 1.249 . S
O136 Eu84 2.335 1_455 S
O136 C151 1.264 . S
O137 Eu95 2.432 . S
O137 C159 1.268 . S
O138 Eu95 2.291 1_655 S
O138 C158 1.255 . S
O139 Eu84 2.372 . S
O139 C158 1.257 . S
C140 O129 1.249 . S
C140 O130 1.264 . S
C141 C144 1.382 . S
C141 C146 1.390 1_655 S
C141 C148 1.506 . S
C142 C143 1.398 . S
C142 C146 1.392 . S
C143 C142 1.398 . S
C143 C145 1.372 1_455 S
C143 H160 0.931 . S
C144 C141 1.382 . S
C144 C145 1.390 . S
C144 H161 0.931 . S
C145 C143 1.372 1_655 S
C145 C144 1.390 . S
C145 H162 0.929 . S
C146 C141 1.390 1_455 S
C146 C142 1.392 . S
C146 H163 0.930 . S
C147 O132 1.255 . S
C147 O133 1.257 . S
C148 Eu84 2.787 . S
C148 O128 1.252 1_655 S
C148 O131 1.268 . S
C148 C141 1.506 . S
C149 C116 1.439 . S
C149 H126 0.931 . S
C149 C150 1.374 . S
C150 C121 1.387 . S
C150 H127 0.931 . S
C150 C149 1.374 . S
C151 O135 1.249 . S
C151 O136 1.264 . S
C152 C155 1.382 . S
C152 C156 1.390 1_455 S
C152 C159 1.506 . S
C153 C154 1.398 1_655 S
C153 C156 1.392 . S
C154 C153 1.398 1_455 S
C154 C157 1.372 . S
C154 H164 0.931 . S
C155 C152 1.382 . S
C155 C157 1.390 . S
C155 H165 0.931 . S
C156 C152 1.390 1_655 S
C156 C153 1.392 . S
C156 H166 0.930 . S
C157 C154 1.372 . S
C157 C155 1.390 . S
C157 H167 0.929 . S
C158 O138 1.255 . S
C158 O139 1.257 . S
C159 Eu95 2.787 . S
C159 O134 1.252 . S
C159 O137 1.268 . S
C159 C152 1.506 . S
H160 C143 0.931 . S
H161 C144 0.931 . S
H162 C145 0.929 . S
H163 C146 0.930 . S
H164 C154 0.931 . S
H165 C155 0.931 . S
H166 C156 0.930 . S
H167 C157 0.929 . S
Eu168 N197 2.600 . S
Eu168 N203 2.562 . S
Eu168 O212 2.462 . S
Eu168 O213 2.373 . S
Eu168 O215 2.432 . S
Eu168 O216 2.291 . S
Eu168 O220 2.335 . S
Eu168 O223 2.372 . S
Eu168 C232 2.787 . S
C169 N170 1.365 . S
C169 C172 1.405 . S
C169 C176 1.448 . S
N170 C169 1.365 . S
N170 C173 1.319 . S
N170 Eu179 2.600 . S
C171 C173 1.397 . S
C171 C174 1.367 . S
C171 H191 0.931 . S
C172 C169 1.405 . S
C172 C174 1.403 . S
C172 C178 1.439 . S
C173 N170 1.319 . S
C173 C171 1.397 . S
C173 H184 0.930 . S
C174 C171 1.367 . S
C174 C172 1.403 . S
C174 H195 0.929 . S
C175 C176 1.430 . S
C175 C177 1.387 . S
C175 C181 1.404 . S
C176 C169 1.448 . S
C176 C175 1.430 . S
C176 N180 1.351 . S
C177 C175 1.387 . S
C177 C178 1.374 . S
C177 H192 0.931 . S
C178 C172 1.439 . S
C178 C177 1.374 . S
C178 H193 0.931 . S
Eu179 N170 2.600 . S
Eu179 N180 2.562 . S
Eu179 O214 2.335 . S
Eu179 O217 2.372 . S
Eu179 O218 2.462 . S
Eu179 O219 2.373 . S
Eu179 O221 2.432 . S
Eu179 O222 2.291 . S
Eu179 C243 2.787 . S
N180 C176 1.351 . S
N180 Eu179 2.562 . S
N180 C182 1.325 . S
C181 C175 1.404 . S
C181 C183 1.366 . S
C181 H189 0.930 . S
C182 N180 1.325 . S
C182 C183 1.416 . S
C182 H188 0.929 . S
C183 C181 1.366 . S
C183 C182 1.416 . S
C183 H185 0.930 . S
H184 C173 0.930 . S
H185 C183 0.930 . S
H186 C201 0.930 . S
H187 C208 0.930 . S
H188 C182 0.929 . S
H189 C181 0.930 . S
H190 C204 0.929 . S
H191 C171 0.931 . S
H192 C177 0.931 . S
H193 C178 0.931 . S
H194 C199 0.931 . S
H195 C174 0.929 . S
H196 C207 0.930 . S
N197 Eu168 2.600 . S
N197 C198 1.365 . S
N197 C201 1.319 . S
C198 N197 1.365 . S
C198 C200 1.405 . S
C198 C206 1.448 . S
C199 H194 0.931 . S
C199 C201 1.397 . S
C199 C202 1.367 . S
C200 C198 1.405 . S
C200 C202 1.403 . S
C200 C233 1.439 . S
C201 H186 0.930 . S
C201 N197 1.319 . S
C201 C199 1.397 . S
C202 C199 1.367 . S
C202 C200 1.403 . S
C202 H209 0.929 . S
N203 Eu168 2.562 . S
N203 C204 1.325 . S
N203 C206 1.351 . S
C204 H190 0.929 . S
C204 N203 1.325 . S
C204 C208 1.416 . S
C205 C206 1.430 . S
C205 C207 1.404 . S
C205 C234 1.387 . S
C206 C198 1.448 . S
C206 N203 1.351 . S
C206 C205 1.430 . S
C207 H196 0.930 . S
C207 C205 1.404 . S
C207 C208 1.366 . S
C208 H187 0.930 . S
C208 C204 1.416 . S
C208 C207 1.366 . S
H209 C202 0.929 . S
H210 C233 0.931 . S
H211 C234 0.931 . S
O212 Eu168 2.462 . S
O212 C232 1.252 . S
O213 Eu168 2.373 . S
O213 C224 1.249 . S
O214 Eu179 2.335 . S
O214 C224 1.264 . S
O215 Eu168 2.432 . S
O215 C232 1.268 . S
O216 Eu168 2.291 . S
O216 C231 1.255 . S
O217 Eu179 2.372 . S
O217 C231 1.257 . S
O218 Eu179 2.462 . S
O218 C243 1.252 . S
O219 Eu179 2.373 . S
O219 C235 1.249 . S
O220 Eu168 2.335 . S
O220 C235 1.264 . S
O221 Eu179 2.432 . S
O221 C243 1.268 . S
O222 Eu179 2.291 . S
O222 C242 1.255 . S
O223 Eu168 2.372 . S
O223 C242 1.257 . S
C224 O213 1.249 . S
C224 O214 1.264 . S
C225 C228 1.382 . S
C225 C230 1.390 . S
C225 C232 1.506 . S
C226 C227 1.398 . S
C226 C230 1.392 . S
C227 C226 1.398 . S
C227 C229 1.372 . S
C227 H244 0.931 . S
C228 C225 1.382 . S
C228 C229 1.390 . S
C228 H245 0.931 . S
C229 C227 1.372 . S
C229 C228 1.390 . S
C229 H246 0.929 . S
C230 C225 1.390 . S
C230 C226 1.392 . S
C230 H247 0.930 . S
C231 O216 1.255 . S
C231 O217 1.257 . S
C232 Eu168 2.787 . S
C232 O212 1.252 . S
C232 O215 1.268 . S
C232 C225 1.506 . S
C233 C200 1.439 . S
C233 H210 0.931 . S
C233 C234 1.374 . S
C234 C205 1.387 . S
C234 H211 0.931 . S
C234 C233 1.374 . S
C235 O219 1.249 . S
C235 O220 1.264 . S
C236 C239 1.382 . S
C236 C240 1.390 . S
C236 C243 1.506 . S
C237 C238 1.398 . S
C237 C240 1.392 . S
C238 C237 1.398 . S
C238 C241 1.372 . S
C238 H248 0.931 . S
C239 C236 1.382 . S
C239 C241 1.390 . S
C239 H249 0.931 . S
C240 C236 1.390 . S
C240 C237 1.392 . S
C240 H250 0.930 . S
C241 C238 1.372 . S
C241 C239 1.390 . S
C241 H251 0.929 . S
C242 O222 1.255 . S
C242 O223 1.257 . S
C243 Eu179 2.787 . S
C243 O218 1.252 . S
C243 O221 1.268 . S
C243 C236 1.506 . S
H244 C227 0.931 . S
H245 C228 0.931 . S
H246 C229 0.929 . S
H247 C230 0.930 . S
H248 C238 0.931 . S
H249 C239 0.931 . S
H250 C240 0.930 . S
H251 C241 0.929 . S
Eu252 N281 2.600 . S
Eu252 N287 2.562 . S
Eu252 O296 2.462 . S
Eu252 O297 2.373 . S
Eu252 O299 2.432 . S
Eu252 O300 2.291 1_545 S
Eu252 O304 2.335 1_545 S
Eu252 O307 2.372 . S
Eu252 C316 2.787 . S
C253 N254 1.365 . S
C253 C256 1.405 . S
C253 C260 1.448 . S
N254 C253 1.365 . S
N254 C257 1.319 . S
N254 Eu263 2.600 . S
C255 C257 1.397 . S
C255 C258 1.367 . S
C255 H275 0.931 . S
C256 C253 1.405 . S
C256 C258 1.403 . S
C256 C262 1.439 . S
C257 N254 1.319 . S
C257 C255 1.397 . S
C257 H268 0.930 . S
C258 C255 1.367 . S
C258 C256 1.403 . S
C258 H279 0.929 . S
C259 C260 1.430 . S
C259 C261 1.387 . S
C259 C265 1.404 . S
C260 C253 1.448 . S
C260 C259 1.430 . S
C260 N264 1.351 . S
C261 C259 1.387 . S
C261 C262 1.374 . S
C261 H276 0.931 . S
C262 C256 1.439 . S
C262 C261 1.374 . S
C262 H277 0.931 . S
Eu263 N254 2.600 . S
Eu263 N264 2.562 . S
Eu263 O298 2.335 1_565 S
Eu263 O301 2.372 . S
Eu263 O302 2.462 1_565 S
Eu263 O303 2.373 . S
Eu263 O305 2.432 . S
Eu263 O306 2.291 1_565 S
Eu263 C327 2.787 . S
N264 C260 1.351 . S
N264 Eu263 2.562 . S
N264 C266 1.325 . S
C265 C259 1.404 . S
C265 C267 1.366 . S
C265 H273 0.930 . S
C266 N264 1.325 . S
C266 C267 1.416 . S
C266 H272 0.929 . S
C267 C265 1.366 . S
C267 C266 1.416 . S
C267 H269 0.930 . S
H268 C257 0.930 . S
H269 C267 0.930 . S
H270 C285 0.930 . S
H271 C292 0.930 . S
H272 C266 0.929 . S
H273 C265 0.930 . S
H274 C288 0.929 . S
H275 C255 0.931 . S
H276 C261 0.931 . S
H277 C262 0.931 . S
H278 C283 0.931 . S
H279 C258 0.929 . S
H280 C291 0.930 . S
N281 Eu252 2.600 . S
N281 C282 1.365 . S
N281 C285 1.319 . S
C282 N281 1.365 . S
C282 C284 1.405 . S
C282 C290 1.448 . S
C283 H278 0.931 . S
C283 C285 1.397 . S
C283 C286 1.367 . S
C284 C282 1.405 . S
C284 C286 1.403 . S
C284 C317 1.439 . S
C285 H270 0.930 . S
C285 N281 1.319 . S
C285 C283 1.397 . S
C286 C283 1.367 . S
C286 C284 1.403 . S
C286 H293 0.929 . S
N287 Eu252 2.562 . S
N287 C288 1.325 . S
N287 C290 1.351 . S
C288 H274 0.929 . S
C288 N287 1.325 . S
C288 C292 1.416 . S
C289 C290 1.430 . S
C289 C291 1.404 . S
C289 C318 1.387 . S
C290 C282 1.448 . S
C290 N287 1.351 . S
C290 C289 1.430 . S
C291 H280 0.930 . S
C291 C289 1.404 . S
C291 C292 1.366 . S
C292 H271 0.930 . S
C292 C288 1.416 . S
C292 C291 1.366 . S
H293 C286 0.929 . S
H294 C317 0.931 . S
H295 C318 0.931 . S
O296 Eu252 2.462 . S
O296 C316 1.252 . S
O297 Eu252 2.373 . S
O297 C308 1.249 . S
O298 Eu263 2.335 1_545 S
O298 C308 1.264 . S
O299 Eu252 2.432 . S
O299 C316 1.268 . S
O300 Eu252 2.291 1_565 S
O300 C315 1.255 . S
O301 Eu263 2.372 . S
O301 C315 1.257 . S
O302 Eu263 2.462 1_545 S
O302 C327 1.252 1_545 S
O303 Eu263 2.373 . S
O303 C319 1.249 . S
O304 Eu252 2.335 1_565 S
O304 C319 1.264 . S
O305 Eu263 2.432 . S
O305 C327 1.268 . S
O306 Eu263 2.291 1_545 S
O306 C326 1.255 . S
O307 Eu252 2.372 . S
O307 C326 1.257 . S
C308 O297 1.249 . S
C308 O298 1.264 . S
C309 C312 1.382 . S
C309 C314 1.390 1_545 S
C309 C316 1.506 . S
C310 C311 1.398 1_565 S
C310 C314 1.392 . S
C311 C310 1.398 1_545 S
C311 C313 1.372 . S
C311 H328 0.931 . S
C312 C309 1.382 . S
C312 C313 1.390 . S
C312 H329 0.931 . S
C313 C311 1.372 . S
C313 C312 1.390 . S
C313 H330 0.929 . S
C314 C309 1.390 1_565 S
C314 C310 1.392 . S
C314 H331 0.930 . S
C315 O300 1.255 . S
C315 O301 1.257 . S
C316 Eu252 2.787 . S
C316 O296 1.252 . S
C316 O299 1.268 . S
C316 C309 1.506 . S
C317 C284 1.439 . S
C317 H294 0.931 . S
C317 C318 1.374 . S
C318 C289 1.387 . S
C318 H295 0.931 . S
C318 C317 1.374 . S
C319 O303 1.249 . S
C319 O304 1.264 . S
C320 C323 1.382 . S
C320 C324 1.390 1_565 S
C320 C327 1.506 . S
C321 C322 1.398 . S
C321 C324 1.392 . S
C322 C321 1.398 . S
C322 C325 1.372 1_545 S
C322 H332 0.931 . S
C323 C320 1.382 . S
C323 C325 1.390 . S
C323 H333 0.931 . S
C324 C320 1.390 1_545 S
C324 C321 1.392 . S
C324 H334 0.930 . S
C325 C322 1.372 1_565 S
C325 C323 1.390 . S
C325 H335 0.929 . S
C326 O306 1.255 . S
C326 O307 1.257 . S
C327 Eu263 2.787 . S
C327 O302 1.252 1_565 S
C327 O305 1.268 . S
C327 C320 1.506 . S
H328 C311 0.931 . S
H329 C312 0.931 . S
H330 C313 0.929 . S
H331 C314 0.930 . S
H332 C322 0.931 . S
H333 C323 0.931 . S
H334 C324 0.930 . S
H335 C325 0.929 . S
Eu336 N365 2.600 . S
Eu336 N371 2.562 . S
Eu336 O380 2.462 . S
Eu336 O381 2.373 . S
Eu336 O383 2.432 . S
Eu336 O384 2.291 . S
Eu336 O388 2.335 . S
Eu336 O391 2.372 . S
Eu336 C400 2.787 . S
C337 N338 1.365 . S
C337 C340 1.405 . S
C337 C344 1.448 . S
N338 C337 1.365 . S
N338 C341 1.319 . S
N338 Eu347 2.600 . S
C339 C341 1.397 . S
C339 C342 1.367 . S
C339 H359 0.931 . S
C340 C337 1.405 . S
C340 C342 1.403 . S
C340 C346 1.439 . S
C341 N338 1.319 . S
C341 C339 1.397 . S
C341 H352 0.930 . S
C342 C339 1.367 . S
C342 C340 1.403 . S
C342 H363 0.929 . S
C343 C344 1.430 . S
C343 C345 1.387 . S
C343 C349 1.404 . S
C344 C337 1.448 . S
C344 C343 1.430 . S
C344 N348 1.351 . S
C345 C343 1.387 . S
C345 C346 1.374 . S
C345 H360 0.931 . S
C346 C340 1.439 . S
C346 C345 1.374 . S
C346 H361 0.931 . S
Eu347 N338 2.600 . S
Eu347 N348 2.562 . S
Eu347 O382 2.335 . S
Eu347 O385 2.372 . S
Eu347 O386 2.462 . S
Eu347 O387 2.373 . S
Eu347 O389 2.432 . S
Eu347 O390 2.291 . S
Eu347 C411 2.787 . S
N348 C344 1.351 . S
N348 Eu347 2.562 . S
N348 C350 1.325 . S
C349 C343 1.404 . S
C349 C351 1.366 . S
C349 H357 0.930 . S
C350 N348 1.325 . S
C350 C351 1.416 . S
C350 H356 0.929 . S
C351 C349 1.366 . S
C351 C350 1.416 . S
C351 H353 0.930 . S
H352 C341 0.930 . S
H353 C351 0.930 . S
H354 C369 0.930 . S
H355 C376 0.930 . S
H356 C350 0.929 . S
H357 C349 0.930 . S
H358 C372 0.929 . S
H359 C339 0.931 . S
H360 C345 0.931 . S
H361 C346 0.931 . S
H362 C367 0.931 . S
H363 C342 0.929 . S
H364 C375 0.930 . S
N365 Eu336 2.600 . S
N365 C366 1.365 . S
N365 C369 1.319 . S
C366 N365 1.365 . S
C366 C368 1.405 . S
C366 C374 1.448 . S
C367 H362 0.931 . S
C367 C369 1.397 . S
C367 C370 1.367 . S
C368 C366 1.405 . S
C368 C370 1.403 . S
C368 C401 1.439 . S
C369 H354 0.930 . S
C369 N365 1.319 . S
C369 C367 1.397 . S
C370 C367 1.367 . S
C370 C368 1.403 . S
C370 H377 0.929 . S
N371 Eu336 2.562 . S
N371 C372 1.325 . S
N371 C374 1.351 . S
C372 H358 0.929 . S
C372 N371 1.325 . S
C372 C376 1.416 . S
C373 C374 1.430 . S
C373 C375 1.404 . S
C373 C402 1.387 . S
C374 C366 1.448 . S
C374 N371 1.351 . S
C374 C373 1.430 . S
C375 H364 0.930 . S
C375 C373 1.404 . S
C375 C376 1.366 . S
C376 H355 0.930 . S
C376 C372 1.416 . S
C376 C375 1.366 . S
H377 C370 0.929 . S
H378 C401 0.931 . S
H379 C402 0.931 . S
O380 Eu336 2.462 . S
O380 C400 1.252 . S
O381 Eu336 2.373 . S
O381 C392 1.249 . S
O382 Eu347 2.335 . S
O382 C392 1.264 . S
O383 Eu336 2.432 . S
O383 C400 1.268 . S
O384 Eu336 2.291 . S
O384 C399 1.255 . S
O385 Eu347 2.372 . S
O385 C399 1.257 . S
O386 Eu347 2.462 . S
O386 C411 1.252 . S
O387 Eu347 2.373 . S
O387 C403 1.249 . S
O388 Eu336 2.335 . S
O388 C403 1.264 . S
O389 Eu347 2.432 . S
O389 C411 1.268 . S
O390 Eu347 2.291 . S
O390 C410 1.255 . S
O391 Eu336 2.372 . S
O391 C410 1.257 . S
C392 O381 1.249 . S
C392 O382 1.264 . S
C393 C396 1.382 . S
C393 C398 1.390 . S
C393 C400 1.506 . S
C394 C395 1.398 . S
C394 C398 1.392 . S
C395 C394 1.398 . S
C395 C397 1.372 . S
C395 H412 0.931 . S
C396 C393 1.382 . S
C396 C397 1.390 . S
C396 H413 0.931 . S
C397 C395 1.372 . S
C397 C396 1.390 . S
C397 H414 0.929 . S
C398 C393 1.390 . S
C398 C394 1.392 . S
C398 H415 0.930 . S
C399 O384 1.255 . S
C399 O385 1.257 . S
C400 Eu336 2.787 . S
C400 O380 1.252 . S
C400 O383 1.268 . S
C400 C393 1.506 . S
C401 C368 1.439 . S
C401 H378 0.931 . S
C401 C402 1.374 . S
C402 C373 1.387 . S
C402 H379 0.931 . S
C402 C401 1.374 . S
C403 O387 1.249 . S
C403 O388 1.264 . S
C404 C407 1.382 . S
C404 C408 1.390 . S
C404 C411 1.506 . S
C405 C406 1.398 . S
C405 C408 1.392 . S
C406 C405 1.398 . S
C406 C409 1.372 . S
C406 H416 0.931 . S
C407 C404 1.382 . S
C407 C409 1.390 . S
C407 H417 0.931 . S
C408 C404 1.390 . S
C408 C405 1.392 . S
C408 H418 0.930 . S
C409 C406 1.372 . S
C409 C407 1.390 . S
C409 H419 0.929 . S
C410 O390 1.255 . S
C410 O391 1.257 . S
C411 Eu347 2.787 . S
C411 O386 1.252 . S
C411 O389 1.268 . S
C411 C404 1.506 . S
H412 C395 0.931 . S
H413 C396 0.931 . S
H414 C397 0.929 . S
H415 C398 0.930 . S
H416 C406 0.931 . S
H417 C407 0.931 . S
H418 C408 0.930 . S
H419 C409 0.929 . S
Eu420 N449 2.600 . S
Eu420 N455 2.562 . S
Eu420 O464 2.462 . S
Eu420 O465 2.373 . S
Eu420 O467 2.432 . S
Eu420 O468 2.291 . S
Eu420 O472 2.335 . S
Eu420 O475 2.372 . S
Eu420 C484 2.787 . S
C421 N422 1.365 . S
C421 C424 1.405 . S
C421 C428 1.448 . S
N422 C421 1.365 . S
N422 C425 1.319 . S
N422 Eu431 2.600 . S
C423 C425 1.397 . S
C423 C426 1.367 . S
C423 H443 0.931 . S
C424 C421 1.405 . S
C424 C426 1.403 . S
C424 C430 1.439 . S
C425 N422 1.319 . S
C425 C423 1.397 . S
C425 H436 0.930 . S
C426 C423 1.367 . S
C426 C424 1.403 . S
C426 H447 0.929 . S
C427 C428 1.430 . S
C427 C429 1.387 . S
C427 C433 1.404 . S
C428 C421 1.448 . S
C428 C427 1.430 . S
C428 N432 1.351 . S
C429 C427 1.387 . S
C429 C430 1.374 . S
C429 H444 0.931 . S
C430 C424 1.439 . S
C430 C429 1.374 . S
C430 H445 0.931 . S
Eu431 N422 2.600 . S
Eu431 N432 2.562 . S
Eu431 O466 2.335 . S
Eu431 O469 2.372 . S
Eu431 O470 2.462 . S
Eu431 O471 2.373 . S
Eu431 O473 2.432 . S
Eu431 O474 2.291 . S
Eu431 C495 2.787 . S
N432 C428 1.351 . S
N432 Eu431 2.562 . S
N432 C434 1.325 . S
C433 C427 1.404 . S
C433 C435 1.366 . S
C433 H441 0.930 . S
C434 N432 1.325 . S
C434 C435 1.416 . S
C434 H440 0.929 . S
C435 C433 1.366 . S
C435 C434 1.416 . S
C435 H437 0.930 . S
H436 C425 0.930 . S
H437 C435 0.930 . S
H438 C453 0.930 . S
H439 C460 0.930 . S
H440 C434 0.929 . S
H441 C433 0.930 . S
H442 C456 0.929 . S
H443 C423 0.931 . S
H444 C429 0.931 . S
H445 C430 0.931 . S
H446 C451 0.931 . S
H447 C426 0.929 . S
H448 C459 0.930 . S
N449 Eu420 2.600 . S
N449 C450 1.365 . S
N449 C453 1.319 . S
C450 N449 1.365 . S
C450 C452 1.405 . S
C450 C458 1.448 . S
C451 H446 0.931 . S
C451 C453 1.397 . S
C451 C454 1.367 . S
C452 C450 1.405 . S
C452 C454 1.403 . S
C452 C485 1.439 . S
C453 H438 0.930 . S
C453 N449 1.319 . S
C453 C451 1.397 . S
C454 C451 1.367 . S
C454 C452 1.403 . S
C454 H461 0.929 . S
N455 Eu420 2.562 . S
N455 C456 1.325 . S
N455 C458 1.351 . S
C456 H442 0.929 . S
C456 N455 1.325 . S
C456 C460 1.416 . S
C457 C458 1.430 . S
C457 C459 1.404 . S
C457 C486 1.387 . S
C458 C450 1.448 . S
C458 N455 1.351 . S
C458 C457 1.430 . S
C459 H448 0.930 . S
C459 C457 1.404 . S
C459 C460 1.366 . S
C460 H439 0.930 . S
C460 C456 1.416 . S
C460 C459 1.366 . S
H461 C454 0.929 . S
H462 C485 0.931 . S
H463 C486 0.931 . S
O464 Eu420 2.462 . S
O464 C484 1.252 . S
O465 Eu420 2.373 . S
O465 C476 1.249 . S
O466 Eu431 2.335 . S
O466 C476 1.264 . S
O467 Eu420 2.432 . S
O467 C484 1.268 . S
O468 Eu420 2.291 . S
O468 C483 1.255 . S
O469 Eu431 2.372 . S
O469 C483 1.257 . S
O470 Eu431 2.462 . S
O470 C495 1.252 . S
O471 Eu431 2.373 . S
O471 C487 1.249 . S
O472 Eu420 2.335 . S
O472 C487 1.264 . S
O473 Eu431 2.432 . S
O473 C495 1.268 . S
O474 Eu431 2.291 . S
O474 C494 1.255 . S
O475 Eu420 2.372 . S
O475 C494 1.257 . S
C476 O465 1.249 . S
C476 O466 1.264 . S
C477 C480 1.382 . S
C477 C482 1.390 . S
C477 C484 1.506 . S
C478 C479 1.398 . S
C478 C482 1.392 . S
C479 C478 1.398 . S
C479 C481 1.372 . S
C479 H496 0.931 . S
C480 C477 1.382 . S
C480 C481 1.390 . S
C480 H497 0.931 . S
C481 C479 1.372 . S
C481 C480 1.390 . S
C481 H498 0.929 . S
C482 C477 1.390 . S
C482 C478 1.392 . S
C482 H499 0.930 . S
C483 O468 1.255 . S
C483 O469 1.257 . S
C484 Eu420 2.787 . S
C484 O464 1.252 . S
C484 O467 1.268 . S
C484 C477 1.506 . S
C485 C452 1.439 . S
C485 H462 0.931 . S
C485 C486 1.374 . S
C486 C457 1.387 . S
C486 H463 0.931 . S
C486 C485 1.374 . S
C487 O471 1.249 . S
C487 O472 1.264 . S
C488 C491 1.382 . S
C488 C492 1.390 . S
C488 C495 1.506 . S
C489 C490 1.398 . S
C489 C492 1.392 . S
C490 C489 1.398 . S
C490 C493 1.372 . S
C490 H500 0.931 . S
C491 C488 1.382 . S
C491 C493 1.390 . S
C491 H501 0.931 . S
C492 C488 1.390 . S
C492 C489 1.392 . S
C492 H502 0.930 . S
C493 C490 1.372 . S
C493 C491 1.390 . S
C493 H503 0.929 . S
C494 O474 1.255 . S
C494 O475 1.257 . S
C495 Eu431 2.787 . S
C495 O470 1.252 . S
C495 O473 1.268 . S
C495 C488 1.506 . S
H496 C479 0.931 . S
H497 C480 0.931 . S
H498 C481 0.929 . S
H499 C482 0.930 . S
H500 C490 0.931 . S
H501 C491 0.931 . S
H502 C492 0.930 . S
H503 C493 0.929 . S
Eu504 N533 2.600 . S
Eu504 N539 2.562 . S
Eu504 O548 2.462 . S
Eu504 O549 2.373 . S
Eu504 O551 2.432 . S
Eu504 O552 2.291 . S
Eu504 O556 2.335 . S
Eu504 O559 2.372 . S
Eu504 C568 2.787 . S
C505 N506 1.365 . S
C505 C508 1.405 . S
C505 C512 1.448 . S
N506 C505 1.365 . S
N506 C509 1.319 . S
N506 Eu515 2.600 . S
C507 C509 1.397 . S
C507 C510 1.367 . S
C507 H527 0.931 . S
C508 C505 1.405 . S
C508 C510 1.403 . S
C508 C514 1.439 . S
C509 N506 1.319 . S
C509 C507 1.397 . S
C509 H520 0.930 . S
C510 C507 1.367 . S
C510 C508 1.403 . S
C510 H531 0.929 . S
C511 C512 1.430 . S
C511 C513 1.387 . S
C511 C517 1.404 . S
C512 C505 1.448 . S
C512 C511 1.430 . S
C512 N516 1.351 . S
C513 C511 1.387 . S
C513 C514 1.374 . S
C513 H528 0.931 . S
C514 C508 1.439 . S
C514 C513 1.374 . S
C514 H529 0.931 . S
Eu515 N506 2.600 . S
Eu515 N516 2.562 . S
Eu515 O550 2.335 . S
Eu515 O553 2.372 . S
Eu515 O554 2.462 . S
Eu515 O555 2.373 . S
Eu515 O557 2.432 . S
Eu515 O558 2.291 . S
Eu515 C579 2.787 . S
N516 C512 1.351 . S
N516 Eu515 2.562 . S
N516 C518 1.325 . S
C517 C511 1.404 . S
C517 C519 1.366 . S
C517 H525 0.930 . S
C518 N516 1.325 . S
C518 C519 1.416 . S
C518 H524 0.929 . S
C519 C517 1.366 . S
C519 C518 1.416 . S
C519 H521 0.930 . S
H520 C509 0.930 . S
H521 C519 0.930 . S
H522 C537 0.930 . S
H523 C544 0.930 . S
H524 C518 0.929 . S
H525 C517 0.930 . S
H526 C540 0.929 . S
H527 C507 0.931 . S
H528 C513 0.931 . S
H529 C514 0.931 . S
H530 C535 0.931 . S
H531 C510 0.929 . S
H532 C543 0.930 . S
N533 Eu504 2.600 . S
N533 C534 1.365 . S
N533 C537 1.319 . S
C534 N533 1.365 . S
C534 C536 1.405 . S
C534 C542 1.448 . S
C535 H530 0.931 . S
C535 C537 1.397 . S
C535 C538 1.367 . S
C536 C534 1.405 . S
C536 C538 1.403 . S
C536 C569 1.439 . S
C537 H522 0.930 . S
C537 N533 1.319 . S
C537 C535 1.397 . S
C538 C535 1.367 . S
C538 C536 1.403 . S
C538 H545 0.929 . S
N539 Eu504 2.562 . S
N539 C540 1.325 . S
N539 C542 1.351 . S
C540 H526 0.929 . S
C540 N539 1.325 . S
C540 C544 1.416 . S
C541 C542 1.430 . S
C541 C543 1.404 . S
C541 C570 1.387 . S
C542 C534 1.448 . S
C542 N539 1.351 . S
C542 C541 1.430 . S
C543 H532 0.930 . S
C543 C541 1.404 . S
C543 C544 1.366 . S
C544 H523 0.930 . S
C544 C540 1.416 . S
C544 C543 1.366 . S
H545 C538 0.929 . S
H546 C569 0.931 . S
H547 C570 0.931 . S
O548 Eu504 2.462 . S
O548 C568 1.252 . S
O549 Eu504 2.373 . S
O549 C560 1.249 . S
O550 Eu515 2.335 . S
O550 C560 1.264 . S
O551 Eu504 2.432 . S
O551 C568 1.268 . S
O552 Eu504 2.291 . S
O552 C567 1.255 . S
O553 Eu515 2.372 . S
O553 C567 1.257 . S
O554 Eu515 2.462 . S
O554 C579 1.252 . S
O555 Eu515 2.373 . S
O555 C571 1.249 . S
O556 Eu504 2.335 . S
O556 C571 1.264 . S
O557 Eu515 2.432 . S
O557 C579 1.268 . S
O558 Eu515 2.291 . S
O558 C578 1.255 . S
O559 Eu504 2.372 . S
O559 C578 1.257 . S
C560 O549 1.249 . S
C560 O550 1.264 . S
C561 C564 1.382 . S
C561 C566 1.390 . S
C561 C568 1.506 . S
C562 C563 1.398 . S
C562 C566 1.392 . S
C563 C562 1.398 . S
C563 C565 1.372 . S
C563 H580 0.931 . S
C564 C561 1.382 . S
C564 C565 1.390 . S
C564 H581 0.931 . S
C565 C563 1.372 . S
C565 C564 1.390 . S
C565 H582 0.929 . S
C566 C561 1.390 . S
C566 C562 1.392 . S
C566 H583 0.930 . S
C567 O552 1.255 . S
C567 O553 1.257 . S
C568 Eu504 2.787 . S
C568 O548 1.252 . S
C568 O551 1.268 . S
C568 C561 1.506 . S
C569 C536 1.439 . S
C569 H546 0.931 . S
C569 C570 1.374 . S
C570 C541 1.387 . S
C570 H547 0.931 . S
C570 C569 1.374 . S
C571 O555 1.249 . S
C571 O556 1.264 . S
C572 C575 1.382 . S
C572 C576 1.390 . S
C572 C579 1.506 . S
C573 C574 1.398 . S
C573 C576 1.392 . S
C574 C573 1.398 . S
C574 C577 1.372 . S
C574 H584 0.931 . S
C575 C572 1.382 . S
C575 C577 1.390 . S
C575 H585 0.931 . S
C576 C572 1.390 . S
C576 C573 1.392 . S
C576 H586 0.930 . S
C577 C574 1.372 . S
C577 C575 1.390 . S
C577 H587 0.929 . S
C578 O558 1.255 . S
C578 O559 1.257 . S
C579 Eu515 2.787 . S
C579 O554 1.252 . S
C579 O557 1.268 . S
C579 C572 1.506 . S
H580 C563 0.931 . S
H581 C564 0.931 . S
H582 C565 0.929 . S
H583 C566 0.930 . S
H584 C574 0.931 . S
H585 C575 0.931 . S
H586 C576 0.930 . S
H587 C577 0.929 . S
Eu588 N617 2.600 . S
Eu588 N623 2.562 1_655 S
Eu588 O632 2.462 . S
Eu588 O633 2.373 1_655 S
Eu588 O635 2.432 . S
Eu588 O636 2.291 1_655 S
Eu588 O640 2.335 . S
Eu588 O643 2.372 . S
Eu588 C652 2.787 . S
C589 N590 1.365 . S
C589 C592 1.405 . S
C589 C596 1.448 . S
N590 C589 1.365 . S
N590 C593 1.319 . S
N590 Eu599 2.600 . S
C591 C593 1.397 . S
C591 C594 1.367 . S
C591 H611 0.931 . S
C592 C589 1.405 . S
C592 C594 1.403 . S
C592 C598 1.439 . S
C593 N590 1.319 . S
C593 C591 1.397 . S
C593 H604 0.930 . S
C594 C591 1.367 . S
C594 C592 1.403 . S
C594 H615 0.929 . S
C595 C596 1.430 1_655 S
C595 C597 1.387 . S
C595 C601 1.404 . S
C596 C589 1.448 . S
C596 C595 1.430 1_455 S
C596 N600 1.351 . S
C597 C595 1.387 . S
C597 C598 1.374 1_655 S
C597 H612 0.931 . S
C598 C592 1.439 . S
C598 C597 1.374 1_455 S
C598 H613 0.940 . S
Eu599 N590 2.600 . S
Eu599 N600 2.562 . S
Eu599 O634 2.335 . S
Eu599 O637 2.372 . S
Eu599 O638 2.462 . S
Eu599 O639 2.373 1_455 S
Eu599 O641 2.432 . S
Eu599 O642 2.291 1_455 S
Eu599 C663 2.787 . S
N600 C596 1.351 . S
N600 Eu599 2.562 . S
N600 C602 1.325 1_455 S
C601 C595 1.404 . S
C601 C603 1.366 . S
C601 H609 0.930 . S
C602 N600 1.325 1_655 S
C602 C603 1.416 . S
C602 H608 0.929 . S
C603 C601 1.366 . S
C603 C602 1.416 . S
C603 H605 0.930 . S
H604 C593 0.930 . S
H605 C603 0.930 . S
H606 C621 0.930 . S
H607 C628 0.930 . S
H608 C602 0.929 . S
H609 C601 0.930 . S
H610 C624 0.929 . S
H611 C591 0.931 . S
H612 C597 0.931 . S
H613 C598 0.940 . S
H614 C619 0.931 . S
H615 C594 0.929 . S
H616 C627 0.930 . S
N617 Eu588 2.600 . S
N617 C618 1.365 . S
N617 C621 1.319 . S
C618 N617 1.365 . S
C618 C620 1.405 . S
C618 C626 1.448 1_655 S
C619 H614 0.931 . S
C619 C621 1.397 . S
C619 C622 1.367 . S
C620 C618 1.405 . S
C620 C622 1.403 . S
C620 C653 1.439 1_655 S
C621 H606 0.930 . S
C621 N617 1.319 . S
C621 C619 1.397 . S
C622 C619 1.367 . S
C622 C620 1.403 . S
C622 H629 0.929 . S
N623 Eu588 2.562 1_455 S
N623 C624 1.325 . S
N623 C626 1.351 . S
C624 H610 0.929 . S
C624 N623 1.325 . S
C624 C628 1.416 . S
C625 C626 1.430 . S
C625 C627 1.404 . S
C625 C654 1.387 . S
C626 C618 1.448 1_455 S
C626 N623 1.351 . S
C626 C625 1.430 . S
C627 H616 0.930 . S
C627 C625 1.404 . S
C627 C628 1.366 . S
C628 H607 0.930 . S
C628 C624 1.416 . S
C628 C627 1.366 . S
H629 C622 0.929 . S
H630 C653 0.931 . S
H631 C654 0.931 . S
O632 Eu588 2.462 . S
O632 C652 1.252 . S
O633 Eu588 2.373 1_455 S
O633 C644 1.249 . S
O634 Eu599 2.335 . S
O634 C644 1.264 . S
O635 Eu588 2.432 . S
O635 C652 1.268 . S
O636 Eu588 2.291 1_455 S
O636 C651 1.255 . S
O637 Eu599 2.372 . S
O637 C651 1.257 . S
O638 Eu599 2.462 . S
O638 C663 1.252 . S
O639 Eu599 2.373 1_655 S
O639 C655 1.249 . S
O640 Eu588 2.335 . S
O640 C655 1.264 . S
O641 Eu599 2.432 . S
O641 C663 1.268 . S
O642 Eu599 2.291 1_655 S
O642 C662 1.255 . S
O643 Eu588 2.372 . S
O643 C662 1.257 . S
C644 O633 1.249 . S
C644 O634 1.264 . S
C645 C648 1.382 . S
C645 C650 1.390 . S
C645 C652 1.506 . S
C646 C647 1.398 . S
C646 C650 1.392 . S
C647 C646 1.398 . S
C647 C649 1.372 . S
C647 H664 0.931 . S
C648 C645 1.382 . S
C648 C649 1.390 . S
C648 H665 0.931 . S
C649 C647 1.372 . S
C649 C648 1.390 . S
C649 H666 0.929 . S
C650 C645 1.390 . S
C650 C646 1.392 . S
C650 H667 0.930 . S
C651 O636 1.255 . S
C651 O637 1.257 . S
C652 Eu588 2.787 . S
C652 O632 1.252 . S
C652 O635 1.268 . S
C652 C645 1.506 . S
C653 C620 1.439 1_455 S
C653 H630 0.931 . S
C653 C654 1.374 . S
C654 C625 1.387 . S
C654 H631 0.931 . S
C654 C653 1.374 . S
C655 O639 1.249 . S
C655 O640 1.264 . S
C656 C659 1.382 . S
C656 C660 1.390 . S
C656 C663 1.506 . S
C657 C658 1.398 . S
C657 C660 1.392 . S
C658 C657 1.398 . S
C658 C661 1.372 . S
C658 H668 0.931 . S
C659 C656 1.382 . S
C659 C661 1.390 . S
C659 H669 0.931 . S
C660 C656 1.390 . S
C660 C657 1.392 . S
C660 H670 0.930 . S
C661 C658 1.372 . S
C661 C659 1.390 . S
C661 H671 0.929 . S
C662 O642 1.255 . S
C662 O643 1.257 . S
C663 Eu599 2.787 . S
C663 O638 1.252 . S
C663 O641 1.268 . S
C663 C656 1.506 . S
H664 C647 0.931 . S
H665 C648 0.931 . S
H666 C649 0.929 . S
H667 C650 0.930 . S
H668 C658 0.931 . S
H669 C659 0.931 . S
H670 C660 0.930 . S
H671 C661 0.929 . S
Eu672 N701 2.600 . S
Eu672 N707 2.562 . S
Eu672 O716 2.462 . S
Eu672 O717 2.373 . S
Eu672 O719 2.432 . S
Eu672 O720 2.291 1_556 S
Eu672 O724 2.335 1_556 S
Eu672 O727 2.372 . S
Eu672 C736 2.787 . S
C673 N674 1.365 . S
C673 C676 1.405 . S
C673 C680 1.448 . S
N674 C673 1.365 . S
N674 C677 1.319 . S
N674 Eu683 2.600 . S
C675 C677 1.397 . S
C675 C678 1.367 . S
C675 H695 0.931 . S
C676 C673 1.405 . S
C676 C678 1.403 . S
C676 C682 1.439 . S
C677 N674 1.319 . S
C677 C675 1.397 . S
C677 H688 0.930 . S
C678 C675 1.367 . S
C678 C676 1.403 . S
C678 H699 0.929 . S
C679 C680 1.430 . S
C679 C681 1.387 . S
C679 C685 1.404 . S
C680 C673 1.448 . S
C680 C679 1.430 . S
C680 N684 1.351 . S
C681 C679 1.387 . S
C681 C682 1.374 . S
C681 H696 0.931 . S
C682 C676 1.439 . S
C682 C681 1.374 . S
C682 H697 0.931 . S
Eu683 N674 2.600 . S
Eu683 N684 2.562 . S
Eu683 O718 2.335 1_554 S
Eu683 O721 2.372 . S
Eu683 O722 2.462 . S
Eu683 O723 2.373 . S
Eu683 O725 2.432 . S
Eu683 O726 2.291 1_554 S
Eu683 C747 2.787 . S
N684 C680 1.351 . S
N684 Eu683 2.562 . S
N684 C686 1.325 . S
C685 C679 1.404 . S
C685 C687 1.366 . S
C685 H693 0.930 . S
C686 N684 1.325 . S
C686 C687 1.416 . S
C686 H692 0.929 . S
C687 C685 1.366 . S
C687 C686 1.416 . S
C687 H689 0.930 . S
H688 C677 0.930 . S
H689 C687 0.930 . S
H690 C705 0.930 . S
H691 C712 0.930 . S
H692 C686 0.929 . S
H693 C685 0.930 . S
H694 C708 0.929 . S
H695 C675 0.931 . S
H696 C681 0.931 . S
H697 C682 0.931 . S
H698 C703 0.931 . S
H699 C678 0.929 . S
H700 C711 0.930 . S
N701 Eu672 2.600 . S
N701 C702 1.365 . S
N701 C705 1.319 . S
C702 N701 1.365 . S
C702 C704 1.405 . S
C702 C710 1.448 . S
C703 H698 0.931 . S
C703 C705 1.397 . S
C703 C706 1.367 . S
C704 C702 1.405 . S
C704 C706 1.403 . S
C704 C737 1.439 . S
C705 H690 0.930 . S
C705 N701 1.319 . S
C705 C703 1.397 . S
C706 C703 1.367 . S
C706 C704 1.403 . S
C706 H713 0.929 . S
N707 Eu672 2.562 . S
N707 C708 1.325 . S
N707 C710 1.351 . S
C708 H694 0.929 . S
C708 N707 1.325 . S
C708 C712 1.416 . S
C709 C710 1.430 . S
C709 C711 1.404 . S
C709 C738 1.387 . S
C710 C702 1.448 . S
C710 N707 1.351 . S
C710 C709 1.430 . S
C711 H700 0.930 . S
C711 C709 1.404 . S
C711 C712 1.366 . S
C712 H691 0.930 . S
C712 C708 1.416 . S
C712 C711 1.366 . S
H713 C706 0.929 . S
H714 C737 0.931 . S
H715 C738 0.931 . S
O716 Eu672 2.462 . S
O716 C736 1.252 . S
O717 Eu672 2.373 . S
O717 C728 1.249 . S
O718 Eu683 2.335 1_556 S
O718 C728 1.264 . S
O719 Eu672 2.432 . S
O719 C736 1.268 . S
O720 Eu672 2.291 1_554 S
O720 C735 1.255 . S
O721 Eu683 2.372 . S
O721 C735 1.257 . S
O722 Eu683 2.462 . S
O722 C747 1.252 . S
O723 Eu683 2.373 . S
O723 C739 1.249 . S
O724 Eu672 2.335 1_554 S
O724 C739 1.264 . S
O725 Eu683 2.432 . S
O725 C747 1.268 . S
O726 Eu683 2.291 1_556 S
O726 C746 1.255 . S
O727 Eu672 2.372 . S
O727 C746 1.257 . S
C728 O717 1.249 . S
C728 O718 1.264 . S
C729 C732 1.382 . S
C729 C734 1.390 . S
C729 C736 1.506 . S
C730 C731 1.398 . S
C730 C734 1.392 . S
C731 C730 1.398 . S
C731 C733 1.372 . S
C731 H748 0.931 . S
C732 C729 1.382 . S
C732 C733 1.390 . S
C732 H749 0.931 . S
C733 C731 1.372 . S
C733 C732 1.390 . S
C733 H750 0.929 . S
C734 C729 1.390 . S
C734 C730 1.392 . S
C734 H751 0.930 1_556 S
C735 O720 1.255 . S
C735 O721 1.257 . S
C736 Eu672 2.787 . S
C736 O716 1.252 . S
C736 O719 1.268 . S
C736 C729 1.506 . S
C737 C704 1.439 . S
C737 H714 0.931 . S
C737 C738 1.374 . S
C738 C709 1.387 . S
C738 H715 0.931 . S
C738 C737 1.374 . S
C739 O723 1.249 . S
C739 O724 1.264 . S
C740 C743 1.382 . S
C740 C744 1.390 . S
C740 C747 1.506 . S
C741 C742 1.398 . S
C741 C744 1.392 . S
C742 C741 1.398 . S
C742 C745 1.372 . S
C742 H752 0.931 . S
C743 C740 1.382 . S
C743 C745 1.390 . S
C743 H753 0.931 . S
C744 C740 1.390 . S
C744 C741 1.392 . S
C744 H754 0.953 . S
C745 C742 1.372 . S
C745 C743 1.390 . S
C745 H755 0.929 . S
C746 O726 1.255 . S
C746 O727 1.257 . S
C747 Eu683 2.787 . S
C747 O722 1.252 . S
C747 O725 1.268 . S
C747 C740 1.506 . S
H748 C731 0.931 . S
H749 C732 0.931 . S
H750 C733 0.929 . S
H751 C734 0.930 1_554 S
H752 C742 0.931 . S
H753 C743 0.931 . S
H754 C744 0.953 . S
H755 C745 0.929 . S
Eu756 N785 2.600 . S
Eu756 N791 2.562 . S
Eu756 O800 2.462 . S
Eu756 O801 2.373 . S
Eu756 O803 2.432 . S
Eu756 O804 2.291 1_545 S
Eu756 O808 2.335 1_545 S
Eu756 O811 2.372 . S
Eu756 C820 2.787 . S
C757 N758 1.365 . S
C757 C760 1.405 . S
C757 C764 1.448 . S
N758 C757 1.365 . S
N758 C761 1.319 . S
N758 Eu767 2.600 . S
C759 C761 1.397 . S
C759 C762 1.367 . S
C759 H779 0.931 . S
C760 C757 1.405 . S
C760 C762 1.403 . S
C760 C766 1.439 . S
C761 N758 1.319 . S
C761 C759 1.397 . S
C761 H772 0.930 . S
C762 C759 1.367 . S
C762 C760 1.403 . S
C762 H783 0.929 . S
C763 C764 1.430 . S
C763 C765 1.387 . S
C763 C769 1.404 . S
C764 C757 1.448 . S
C764 C763 1.430 . S
C764 N768 1.351 . S
C765 C763 1.387 . S
C765 C766 1.374 . S
C765 H780 0.931 . S
C766 C760 1.439 . S
C766 C765 1.374 . S
C766 H781 0.931 . S
Eu767 N758 2.600 . S
Eu767 N768 2.562 . S
Eu767 O802 2.335 1_565 S
Eu767 O805 2.372 . S
Eu767 O806 2.462 1_565 S
Eu767 O807 2.373 . S
Eu767 O809 2.432 . S
Eu767 O810 2.291 1_565 S
Eu767 C831 2.787 . S
N768 C764 1.351 . S
N768 Eu767 2.562 . S
N768 C770 1.325 . S
C769 C763 1.404 . S
C769 C771 1.366 . S
C769 H777 0.930 . S
C770 N768 1.325 . S
C770 C771 1.416 . S
C770 H776 0.929 . S
C771 C769 1.366 . S
C771 C770 1.416 . S
C771 H773 0.930 . S
H772 C761 0.930 . S
H773 C771 0.930 . S
H774 C789 0.930 . S
H775 C796 0.930 . S
H776 C770 0.929 . S
H777 C769 0.930 . S
H778 C792 0.929 . S
H779 C759 0.931 . S
H780 C765 0.931 . S
H781 C766 0.931 . S
H782 C787 0.931 . S
H783 C762 0.929 . S
H784 C795 0.930 . S
N785 Eu756 2.600 . S
N785 C786 1.365 . S
N785 C789 1.319 . S
C786 N785 1.365 . S
C786 C788 1.405 . S
C786 C794 1.448 . S
C787 H782 0.931 . S
C787 C789 1.397 . S
C787 C790 1.367 . S
C788 C786 1.405 . S
C788 C790 1.403 . S
C788 C821 1.439 . S
C789 H774 0.930 . S
C789 N785 1.319 . S
C789 C787 1.397 . S
C790 C787 1.367 . S
C790 C788 1.403 . S
C790 H797 0.929 . S
N791 Eu756 2.562 . S
N791 C792 1.325 . S
N791 C794 1.351 . S
C792 H778 0.929 . S
C792 N791 1.325 . S
C792 C796 1.416 . S
C793 C794 1.430 . S
C793 C795 1.404 . S
C793 C822 1.387 . S
C794 C786 1.448 . S
C794 N791 1.351 . S
C794 C793 1.430 . S
C795 H784 0.930 . S
C795 C793 1.404 . S
C795 C796 1.366 . S
C796 H775 0.930 . S
C796 C792 1.416 . S
C796 C795 1.366 . S
H797 C790 0.929 . S
H798 C821 0.931 . S
H799 C822 0.931 . S
O800 Eu756 2.462 . S
O800 C820 1.252 . S
O801 Eu756 2.373 . S
O801 C812 1.249 . S
O802 Eu767 2.335 1_545 S
O802 C812 1.264 . S
O803 Eu756 2.432 . S
O803 C820 1.268 . S
O804 Eu756 2.291 1_565 S
O804 C819 1.255 . S
O805 Eu767 2.372 . S
O805 C819 1.257 . S
O806 Eu767 2.462 1_545 S
O806 C831 1.252 1_545 S
O807 Eu767 2.373 . S
O807 C823 1.249 . S
O808 Eu756 2.335 1_565 S
O808 C823 1.264 . S
O809 Eu767 2.432 . S
O809 C831 1.268 . S
O810 Eu767 2.291 1_545 S
O810 C830 1.255 . S
O811 Eu756 2.372 . S
O811 C830 1.257 . S
C812 O801 1.249 . S
C812 O802 1.264 . S
C813 C816 1.382 . S
C813 C818 1.390 1_545 S
C813 C820 1.506 . S
C814 C815 1.398 1_565 S
C814 C818 1.392 . S
C815 C814 1.398 1_545 S
C815 C817 1.372 . S
C815 H832 0.931 . S
C816 C813 1.382 . S
C816 C817 1.390 . S
C816 H833 0.931 . S
C817 C815 1.372 . S
C817 C816 1.390 . S
C817 H834 0.929 . S
C818 C813 1.390 1_565 S
C818 C814 1.392 . S
C818 H835 0.930 . S
C819 O804 1.255 . S
C819 O805 1.257 . S
C820 Eu756 2.787 . S
C820 O800 1.252 . S
C820 O803 1.268 . S
C820 C813 1.506 . S
C821 C788 1.439 . S
C821 H798 0.931 . S
C821 C822 1.374 . S
C822 C793 1.387 . S
C822 H799 0.931 . S
C822 C821 1.374 . S
C823 O807 1.249 . S
C823 O808 1.264 . S
C824 C827 1.382 . S
C824 C828 1.390 1_565 S
C824 C831 1.506 . S
C825 C826 1.398 . S
C825 C828 1.392 . S
C826 C825 1.398 . S
C826 C829 1.372 1_545 S
C826 H836 0.931 . S
C827 C824 1.382 . S
C827 C829 1.390 . S
C827 H837 0.931 . S
C828 C824 1.390 1_545 S
C828 C825 1.392 . S
C828 H838 0.930 . S
C829 C826 1.372 1_565 S
C829 C827 1.390 . S
C829 H839 0.929 . S
C830 O810 1.255 . S
C830 O811 1.257 . S
C831 Eu767 2.787 . S
C831 O806 1.252 1_565 S
C831 O809 1.268 . S
C831 C824 1.506 . S
H832 C815 0.931 . S
H833 C816 0.931 . S
H834 C817 0.929 . S
H835 C818 0.930 . S
H836 C826 0.931 . S
H837 C827 0.931 . S
H838 C828 0.930 . S
H839 C829 0.929 . S
Eu840 N869 2.600 . S
Eu840 N875 2.562 . S
Eu840 O884 2.462 . S
Eu840 O885 2.373 . S
Eu840 O887 2.432 . S
Eu840 O888 2.291 . S
Eu840 O892 2.335 . S
Eu840 O895 2.372 . S
Eu840 C904 2.787 . S
C841 N842 1.365 . S
C841 C844 1.405 . S
C841 C848 1.448 . S
N842 C841 1.365 . S
N842 C845 1.319 . S
N842 Eu851 2.600 . S
C843 C845 1.397 . S
C843 C846 1.367 . S
C843 H863 0.931 . S
C844 C841 1.405 . S
C844 C846 1.403 . S
C844 C850 1.439 . S
C845 N842 1.319 . S
C845 C843 1.397 . S
C845 H856 0.930 . S
C846 C843 1.367 . S
C846 C844 1.403 . S
C846 H867 0.929 . S
C847 C848 1.430 . S
C847 C849 1.387 . S
C847 C853 1.404 . S
C848 C841 1.448 . S
C848 C847 1.430 . S
C848 N852 1.351 . S
C849 C847 1.387 . S
C849 C850 1.374 . S
C849 H864 0.931 . S
C850 C844 1.439 . S
C850 C849 1.374 . S
C850 H865 0.931 . S
Eu851 N842 2.600 . S
Eu851 N852 2.562 . S
Eu851 O886 2.335 . S
Eu851 O889 2.372 . S
Eu851 O890 2.462 . S
Eu851 O891 2.373 . S
Eu851 O893 2.432 . S
Eu851 O894 2.291 . S
Eu851 C915 2.787 . S
N852 C848 1.351 . S
N852 Eu851 2.562 . S
N852 C854 1.325 . S
C853 C847 1.404 . S
C853 C855 1.366 . S
C853 H861 0.930 . S
C854 N852 1.325 . S
C854 C855 1.416 . S
C854 H860 0.929 . S
C855 C853 1.366 . S
C855 C854 1.416 . S
C855 H857 0.930 . S
H856 C845 0.930 . S
H857 C855 0.930 . S
H858 C873 0.930 . S
H859 C880 0.930 . S
H860 C854 0.929 . S
H861 C853 0.930 . S
H862 C876 0.929 . S
H863 C843 0.931 . S
H864 C849 0.931 . S
H865 C850 0.931 . S
H866 C871 0.931 . S
H867 C846 0.929 . S
H868 C879 0.930 . S
N869 Eu840 2.600 . S
N869 C870 1.365 . S
N869 C873 1.319 . S
C870 N869 1.365 . S
C870 C872 1.405 . S
C870 C878 1.448 . S
C871 H866 0.931 . S
C871 C873 1.397 . S
C871 C874 1.367 . S
C872 C870 1.405 . S
C872 C874 1.403 . S
C872 C905 1.439 . S
C873 H858 0.930 . S
C873 N869 1.319 . S
C873 C871 1.397 . S
C874 C871 1.367 . S
C874 C872 1.403 . S
C874 H881 0.929 . S
N875 Eu840 2.562 . S
N875 C876 1.325 . S
N875 C878 1.351 . S
C876 H862 0.929 . S
C876 N875 1.325 . S
C876 C880 1.416 . S
C877 C878 1.430 . S
C877 C879 1.404 . S
C877 C906 1.387 . S
C878 C870 1.448 . S
C878 N875 1.351 . S
C878 C877 1.430 . S
C879 H868 0.930 . S
C879 C877 1.404 . S
C879 C880 1.366 . S
C880 H859 0.930 . S
C880 C876 1.416 . S
C880 C879 1.366 . S
H881 C874 0.929 . S
H882 C905 0.931 . S
H883 C906 0.931 . S
O884 Eu840 2.462 . S
O884 C904 1.252 . S
O885 Eu840 2.373 . S
O885 C896 1.249 . S
O886 Eu851 2.335 . S
O886 C896 1.264 . S
O887 Eu840 2.432 . S
O887 C904 1.268 . S
O888 Eu840 2.291 . S
O888 C903 1.255 . S
O889 Eu851 2.372 . S
O889 C903 1.257 . S
O890 Eu851 2.462 . S
O890 C915 1.252 . S
O891 Eu851 2.373 . S
O891 C907 1.249 . S
O892 Eu840 2.335 . S
O892 C907 1.264 . S
O893 Eu851 2.432 . S
O893 C915 1.268 . S
O894 Eu851 2.291 . S
O894 C914 1.255 . S
O895 Eu840 2.372 . S
O895 C914 1.257 . S
C896 O885 1.249 . S
C896 O886 1.264 . S
C897 C900 1.382 . S
C897 C902 1.390 . S
C897 C904 1.506 . S
C898 C899 1.398 . S
C898 C902 1.392 . S
C899 C898 1.398 . S
C899 C901 1.372 . S
C899 H916 0.931 . S
C900 C897 1.382 . S
C900 C901 1.390 . S
C900 H917 0.931 . S
C901 C899 1.372 . S
C901 C900 1.390 . S
C901 H918 0.929 . S
C902 C897 1.390 . S
C902 C898 1.392 . S
C902 H919 0.930 . S
C903 O888 1.255 . S
C903 O889 1.257 . S
C904 Eu840 2.787 . S
C904 O884 1.252 . S
C904 O887 1.268 . S
C904 C897 1.506 . S
C905 C872 1.439 . S
C905 H882 0.931 . S
C905 C906 1.374 . S
C906 C877 1.387 . S
C906 H883 0.931 . S
C906 C905 1.374 . S
C907 O891 1.249 . S
C907 O892 1.264 . S
C908 C911 1.382 . S
C908 C912 1.390 . S
C908 C915 1.506 . S
C909 C910 1.398 . S
C909 C912 1.392 . S
C910 C909 1.398 . S
C910 C913 1.372 . S
C910 H920 0.931 . S
C911 C908 1.382 . S
C911 C913 1.390 . S
C911 H921 0.931 . S
C912 C908 1.390 . S
C912 C909 1.392 . S
C912 H922 0.930 . S
C913 C910 1.372 . S
C913 C911 1.390 . S
C913 H923 0.929 . S
C914 O894 1.255 . S
C914 O895 1.257 . S
C915 Eu851 2.787 . S
C915 O890 1.252 . S
C915 O893 1.268 . S
C915 C908 1.506 . S
H916 C899 0.931 . S
H917 C900 0.931 . S
H918 C901 0.929 . S
H919 C902 0.930 . S
H920 C910 0.931 . S
H921 C911 0.931 . S
H922 C912 0.930 . S
H923 C913 0.929 . S
Eu924 N953 2.600 . S
Eu924 N959 2.562 . S
Eu924 O968 2.462 1_655 S
Eu924 O969 2.373 . S
Eu924 O971 2.432 . S
Eu924 O972 2.291 1_655 S
Eu924 O976 2.335 1_655 S
Eu924 O979 2.372 . S
Eu924 C988 2.787 . S
C925 N926 1.365 . S
C925 C928 1.405 . S
C925 C932 1.448 . S
N926 C925 1.365 . S
N926 C929 1.319 . S
N926 Eu935 2.600 . S
C927 C929 1.397 . S
C927 C930 1.367 . S
C927 H947 0.931 . S
C928 C925 1.405 . S
C928 C930 1.403 . S
C928 C934 1.439 . S
C929 N926 1.319 . S
C929 C927 1.397 . S
C929 H940 0.930 . S
C930 C927 1.367 . S
C930 C928 1.403 . S
C930 H951 0.929 . S
C931 C932 1.430 . S
C931 C933 1.387 . S
C931 C937 1.404 . S
C932 C925 1.448 . S
C932 C931 1.430 . S
C932 N936 1.351 . S
C933 C931 1.387 . S
C933 C934 1.374 . S
C933 H948 0.931 . S
C934 C928 1.439 . S
C934 C933 1.374 . S
C934 H949 0.931 . S
Eu935 N926 2.600 . S
Eu935 N936 2.562 . S
Eu935 O970 2.335 1_455 S
Eu935 O973 2.372 . S
Eu935 O974 2.462 . S
Eu935 O975 2.373 . S
Eu935 O977 2.432 . S
Eu935 O978 2.291 1_455 S
Eu935 C999 2.787 . S
N936 C932 1.351 . S
N936 Eu935 2.562 . S
N936 C938 1.325 . S
C937 C931 1.404 . S
C937 C939 1.366 . S
C937 H945 0.930 . S
C938 N936 1.325 . S
C938 C939 1.416 . S
C938 H944 0.929 . S
C939 C937 1.366 . S
C939 C938 1.416 . S
C939 H941 0.930 . S
H940 C929 0.930 . S
H941 C939 0.930 . S
H942 C957 0.930 . S
H943 C964 0.930 . S
H944 C938 0.929 . S
H945 C937 0.930 . S
H946 C960 0.929 . S
H947 C927 0.931 . S
H948 C933 0.931 . S
H949 C934 0.931 . S
H950 C955 0.931 . S
H951 C930 0.929 . S
H952 C963 0.930 . S
N953 Eu924 2.600 . S
N953 C954 1.365 . S
N953 C957 1.319 . S
C954 N953 1.365 . S
C954 C956 1.405 . S
C954 C962 1.448 . S
C955 H950 0.931 . S
C955 C957 1.397 . S
C955 C958 1.367 . S
C956 C954 1.405 . S
C956 C958 1.403 . S
C956 C989 1.439 . S
C957 H942 0.930 . S
C957 N953 1.319 . S
C957 C955 1.397 . S
C958 C955 1.367 . S
C958 C956 1.403 . S
C958 H965 0.929 . S
N959 Eu924 2.562 . S
N959 C960 1.325 . S
N959 C962 1.351 . S
C960 H946 0.929 . S
C960 N959 1.325 . S
C960 C964 1.416 . S
C961 C962 1.430 . S
C961 C963 1.404 . S
C961 C990 1.387 . S
C962 C954 1.448 . S
C962 N959 1.351 . S
C962 C961 1.430 . S
C963 H952 0.930 . S
C963 C961 1.404 . S
C963 C964 1.366 . S
C964 H943 0.930 . S
C964 C960 1.416 . S
C964 C963 1.366 . S
H965 C958 0.929 . S
H966 C989 0.931 . S
H967 C990 0.931 . S
O968 Eu924 2.462 1_455 S
O968 C988 1.252 1_455 S
O969 Eu924 2.373 . S
O969 C980 1.249 . S
O970 Eu935 2.335 1_655 S
O970 C980 1.264 . S
O971 Eu924 2.432 . S
O971 C988 1.268 . S
O972 Eu924 2.291 1_455 S
O972 C987 1.255 . S
O973 Eu935 2.372 . S
O973 C987 1.257 . S
O974 Eu935 2.462 . S
O974 C999 1.252 . S
O975 Eu935 2.373 . S
O975 C991 1.249 . S
O976 Eu924 2.335 1_455 S
O976 C991 1.264 . S
O977 Eu935 2.432 . S
O977 C999 1.268 . S
O978 Eu935 2.291 1_655 S
O978 C998 1.255 . S
O979 Eu924 2.372 . S
O979 C998 1.257 . S
C980 O969 1.249 . S
C980 O970 1.264 . S
C981 C984 1.382 . S
C981 C986 1.390 1_655 S
C981 C988 1.506 . S
C982 C983 1.398 . S
C982 C986 1.392 . S
C983 C982 1.398 . S
C983 C985 1.372 1_455 S
C983 H1000 0.931 . S
C984 C981 1.382 . S
C984 C985 1.390 . S
C984 H1001 0.931 . S
C985 C983 1.372 1_655 S
C985 C984 1.390 . S
C985 H1002 0.929 . S
C986 C981 1.390 1_455 S
C986 C982 1.392 . S
C986 H1003 0.930 . S
C987 O972 1.255 . S
C987 O973 1.257 . S
C988 Eu924 2.787 . S
C988 O968 1.252 1_655 S
C988 O971 1.268 . S
C988 C981 1.506 . S
C989 C956 1.439 . S
C989 H966 0.931 . S
C989 C990 1.374 . S
C990 C961 1.387 . S
C990 H967 0.931 . S
C990 C989 1.374 . S
C991 O975 1.249 . S
C991 O976 1.264 . S
C992 C995 1.382 . S
C992 C996 1.390 1_455 S
C992 C999 1.506 . S
C993 C994 1.398 1_655 S
C993 C996 1.392 . S
C994 C993 1.398 1_455 S
C994 C997 1.372 . S
C994 H1004 0.931 . S
C995 C992 1.382 . S
C995 C997 1.390 . S
C995 H1005 0.931 . S
C996 C992 1.390 1_655 S
C996 C993 1.392 . S
C996 H1006 0.930 . S
C997 C994 1.372 . S
C997 C995 1.390 . S
C997 H1007 0.929 . S
C998 O978 1.255 . S
C998 O979 1.257 . S
C999 Eu935 2.787 . S
C999 O974 1.252 . S
C999 O977 1.268 . S
C999 C992 1.506 . S
H1000 C983 0.931 . S
H1001 C984 0.931 . S
H1002 C985 0.929 . S
H1003 C986 0.930 . S
H1004 C994 0.931 . S
H1005 C995 0.931 . S
H1006 C996 0.930 . S
H1007 C997 0.929 . S
Eu1008 N1037 2.600 . S
Eu1008 N1043 2.562 . S
Eu1008 O1052 2.462 . S
Eu1008 O1053 2.373 . S
Eu1008 O1055 2.432 . S
Eu1008 O1056 2.291 . S
Eu1008 O1060 2.335 . S
Eu1008 O1063 2.372 . S
Eu1008 C1072 2.787 . S
C1009 N1010 1.365 . S
C1009 C1012 1.405 . S
C1009 C1016 1.448 . S
N1010 C1009 1.365 . S
N1010 C1013 1.319 . S
N1010 Eu1019 2.600 . S
C1011 C1013 1.397 . S
C1011 C1014 1.367 . S
C1011 H1031 0.931 . S
C1012 C1009 1.405 . S
C1012 C1014 1.403 . S
C1012 C1018 1.439 . S
C1013 N1010 1.319 . S
C1013 C1011 1.397 . S
C1013 H1024 0.930 . S
C1014 C1011 1.367 . S
C1014 C1012 1.403 . S
C1014 H1035 0.929 . S
C1015 C1016 1.430 . S
C1015 C1017 1.387 . S
C1015 C1021 1.404 . S
C1016 C1009 1.448 . S
C1016 C1015 1.430 . S
C1016 N1020 1.351 . S
C1017 C1015 1.387 . S
C1017 C1018 1.374 . S
C1017 H1032 0.931 . S
C1018 C1012 1.439 . S
C1018 C1017 1.374 . S
C1018 H1033 0.931 . S
Eu1019 N1010 2.600 . S
Eu1019 N1020 2.562 . S
Eu1019 O1054 2.335 . S
Eu1019 O1057 2.372 . S
Eu1019 O1058 2.462 . S
Eu1019 O1059 2.373 . S
Eu1019 O1061 2.432 . S
Eu1019 O1062 2.291 . S
Eu1019 C1083 2.787 . S
N1020 C1016 1.351 . S
N1020 Eu1019 2.562 . S
N1020 C1022 1.325 . S
C1021 C1015 1.404 . S
C1021 C1023 1.366 . S
C1021 H1029 0.930 . S
C1022 N1020 1.325 . S
C1022 C1023 1.416 . S
C1022 H1028 0.929 . S
C1023 C1021 1.366 . S
C1023 C1022 1.416 . S
C1023 H1025 0.930 . S
H1024 C1013 0.930 . S
H1025 C1023 0.930 . S
H1026 C1041 0.930 . S
H1027 C1048 0.930 . S
H1028 C1022 0.929 . S
H1029 C1021 0.930 . S
H1030 C1044 0.929 . S
H1031 C1011 0.931 . S
H1032 C1017 0.931 . S
H1033 C1018 0.931 . S
H1034 C1039 0.931 . S
H1035 C1014 0.929 . S
H1036 C1047 0.930 . S
N1037 Eu1008 2.600 . S
N1037 C1038 1.365 . S
N1037 C1041 1.319 . S
C1038 N1037 1.365 . S
C1038 C1040 1.405 . S
C1038 C1046 1.448 . S
C1039 H1034 0.931 . S
C1039 C1041 1.397 . S
C1039 C1042 1.367 . S
C1040 C1038 1.405 . S
C1040 C1042 1.403 . S
C1040 C1073 1.439 . S
C1041 H1026 0.930 . S
C1041 N1037 1.319 . S
C1041 C1039 1.397 . S
C1042 C1039 1.367 . S
C1042 C1040 1.403 . S
C1042 H1049 0.929 . S
N1043 Eu1008 2.562 . S
N1043 C1044 1.325 . S
N1043 C1046 1.351 . S
C1044 H1030 0.929 . S
C1044 N1043 1.325 . S
C1044 C1048 1.416 . S
C1045 C1046 1.430 . S
C1045 C1047 1.404 . S
C1045 C1074 1.387 . S
C1046 C1038 1.448 . S
C1046 N1043 1.351 . S
C1046 C1045 1.430 . S
C1047 H1036 0.930 . S
C1047 C1045 1.404 . S
C1047 C1048 1.366 . S
C1048 H1027 0.930 . S
C1048 C1044 1.416 . S
C1048 C1047 1.366 . S
H1049 C1042 0.929 . S
H1050 C1073 0.931 . S
H1051 C1074 0.931 . S
O1052 Eu1008 2.462 . S
O1052 C1072 1.252 . S
O1053 Eu1008 2.373 . S
O1053 C1064 1.249 . S
O1054 Eu1019 2.335 . S
O1054 C1064 1.264 . S
O1055 Eu1008 2.432 . S
O1055 C1072 1.268 . S
O1056 Eu1008 2.291 . S
O1056 C1071 1.255 . S
O1057 Eu1019 2.372 . S
O1057 C1071 1.257 . S
O1058 Eu1019 2.462 . S
O1058 C1083 1.252 . S
O1059 Eu1019 2.373 . S
O1059 C1075 1.249 . S
O1060 Eu1008 2.335 . S
O1060 C1075 1.264 . S
O1061 Eu1019 2.432 . S
O1061 C1083 1.268 . S
O1062 Eu1019 2.291 . S
O1062 C1082 1.255 . S
O1063 Eu1008 2.372 . S
O1063 C1082 1.257 . S
C1064 O1053 1.249 . S
C1064 O1054 1.264 . S
C1065 C1068 1.382 . S
C1065 C1070 1.390 . S
C1065 C1072 1.506 . S
C1066 C1067 1.398 . S
C1066 C1070 1.392 . S
C1067 C1066 1.398 . S
C1067 C1069 1.372 . S
C1067 H1084 0.931 . S
C1068 C1065 1.382 . S
C1068 C1069 1.390 . S
C1068 H1085 0.931 . S
C1069 C1067 1.372 . S
C1069 C1068 1.390 . S
C1069 H1086 0.929 . S
C1070 C1065 1.390 . S
C1070 C1066 1.392 . S
C1070 H1087 0.930 . S
C1071 O1056 1.255 . S
C1071 O1057 1.257 . S
C1072 Eu1008 2.787 . S
C1072 O1052 1.252 . S
C1072 O1055 1.268 . S
C1072 C1065 1.506 . S
C1073 C1040 1.439 . S
C1073 H1050 0.931 . S
C1073 C1074 1.374 . S
C1074 C1045 1.387 . S
C1074 H1051 0.931 . S
C1074 C1073 1.374 . S
C1075 O1059 1.249 . S
C1075 O1060 1.264 . S
C1076 C1079 1.382 . S
C1076 C1080 1.390 . S
C1076 C1083 1.506 . S
C1077 C1078 1.398 . S
C1077 C1080 1.392 . S
C1078 C1077 1.398 . S
C1078 C1081 1.372 . S
C1078 H1088 0.931 . S
C1079 C1076 1.382 . S
C1079 C1081 1.390 . S
C1079 H1089 0.931 . S
C1080 C1076 1.390 . S
C1080 C1077 1.392 . S
C1080 H1090 0.930 . S
C1081 C1078 1.372 . S
C1081 C1079 1.390 . S
C1081 H1091 0.929 . S
C1082 O1062 1.255 . S
C1082 O1063 1.257 . S
C1083 Eu1019 2.787 . S
C1083 O1058 1.252 . S
C1083 O1061 1.268 . S
C1083 C1076 1.506 . S
H1084 C1067 0.931 . S
H1085 C1068 0.931 . S
H1086 C1069 0.929 . S
H1087 C1070 0.930 . S
H1088 C1078 0.931 . S
H1089 C1079 0.931 . S
H1090 C1080 0.930 . S
H1091 C1081 0.929 . S
Eu1092 N1121 2.600 . S
Eu1092 N1127 2.562 . S
Eu1092 O1136 2.462 . S
Eu1092 O1137 2.373 . S
Eu1092 O1139 2.432 . S
Eu1092 O1140 2.291 1_556 S
Eu1092 O1144 2.335 1_556 S
Eu1092 O1147 2.372 . S
Eu1092 C1156 2.787 . S
C1093 N1094 1.365 . S
C1093 C1096 1.405 . S
C1093 C1100 1.448 . S
N1094 C1093 1.365 . S
N1094 C1097 1.319 . S
N1094 Eu1103 2.600 . S
C1095 C1097 1.397 . S
C1095 C1098 1.367 . S
C1095 H1115 0.931 . S
C1096 C1093 1.405 . S
C1096 C1098 1.403 . S
C1096 C1102 1.439 . S
C1097 N1094 1.319 . S
C1097 C1095 1.397 . S
C1097 H1108 0.930 . S
C1098 C1095 1.367 . S
C1098 C1096 1.403 . S
C1098 H1119 0.929 . S
C1099 C1100 1.430 . S
C1099 C1101 1.387 . S
C1099 C1105 1.404 . S
C1100 C1093 1.448 . S
C1100 C1099 1.430 . S
C1100 N1104 1.351 . S
C1101 C1099 1.387 . S
C1101 C1102 1.374 . S
C1101 H1116 0.931 . S
C1102 C1096 1.439 . S
C1102 C1101 1.374 . S
C1102 H1117 0.931 . S
Eu1103 N1094 2.600 . S
Eu1103 N1104 2.562 . S
Eu1103 O1138 2.335 1_554 S
Eu1103 O1141 2.372 . S
Eu1103 O1142 2.462 . S
Eu1103 O1143 2.373 . S
Eu1103 O1145 2.432 . S
Eu1103 O1146 2.291 1_554 S
Eu1103 C1167 2.787 . S
N1104 C1100 1.351 . S
N1104 Eu1103 2.562 . S
N1104 C1106 1.325 . S
C1105 C1099 1.404 . S
C1105 C1107 1.366 . S
C1105 H1113 0.930 . S
C1106 N1104 1.325 . S
C1106 C1107 1.416 . S
C1106 H1112 0.929 . S
C1107 C1105 1.366 . S
C1107 C1106 1.416 . S
C1107 H1109 0.930 . S
H1108 C1097 0.930 . S
H1109 C1107 0.930 . S
H1110 C1125 0.930 . S
H1111 C1132 0.930 . S
H1112 C1106 0.929 . S
H1113 C1105 0.930 . S
H1114 C1128 0.929 . S
H1115 C1095 0.931 . S
H1116 C1101 0.931 . S
H1117 C1102 0.931 . S
H1118 C1123 0.931 . S
H1119 C1098 0.929 . S
H1120 C1131 0.930 . S
N1121 Eu1092 2.600 . S
N1121 C1122 1.365 . S
N1121 C1125 1.319 . S
C1122 N1121 1.365 . S
C1122 C1124 1.405 . S
C1122 C1130 1.448 . S
C1123 H1118 0.931 . S
C1123 C1125 1.397 . S
C1123 C1126 1.367 . S
C1124 C1122 1.405 . S
C1124 C1126 1.403 . S
C1124 C1157 1.439 . S
C1125 H1110 0.930 . S
C1125 N1121 1.319 . S
C1125 C1123 1.397 . S
C1126 C1123 1.367 . S
C1126 C1124 1.403 . S
C1126 H1133 0.929 . S
N1127 Eu1092 2.562 . S
N1127 C1128 1.325 . S
N1127 C1130 1.351 . S
C1128 H1114 0.929 . S
C1128 N1127 1.325 . S
C1128 C1132 1.416 . S
C1129 C1130 1.430 . S
C1129 C1131 1.404 . S
C1129 C1158 1.387 . S
C1130 C1122 1.448 . S
C1130 N1127 1.351 . S
C1130 C1129 1.430 . S
C1131 H1120 0.930 . S
C1131 C1129 1.404 . S
C1131 C1132 1.366 . S
C1132 H1111 0.930 . S
C1132 C1128 1.416 . S
C1132 C1131 1.366 . S
H1133 C1126 0.929 . S
H1134 C1157 0.931 . S
H1135 C1158 0.931 . S
O1136 Eu1092 2.462 . S
O1136 C1156 1.252 . S
O1137 Eu1092 2.373 . S
O1137 C1148 1.249 . S
O1138 Eu1103 2.335 1_556 S
O1138 C1148 1.264 . S
O1139 Eu1092 2.432 . S
O1139 C1156 1.268 . S
O1140 Eu1092 2.291 1_554 S
O1140 C1155 1.255 . S
O1141 Eu1103 2.372 . S
O1141 C1155 1.257 . S
O1142 Eu1103 2.462 . S
O1142 C1167 1.252 . S
O1143 Eu1103 2.373 . S
O1143 C1159 1.249 . S
O1144 Eu1092 2.335 1_554 S
O1144 C1159 1.264 . S
O1145 Eu1103 2.432 . S
O1145 C1167 1.268 . S
O1146 Eu1103 2.291 1_556 S
O1146 C1166 1.255 . S
O1147 Eu1092 2.372 . S
O1147 C1166 1.257 . S
C1148 O1137 1.249 . S
C1148 O1138 1.264 . S
C1149 C1152 1.382 . S
C1149 C1154 1.390 . S
C1149 C1156 1.506 . S
C1150 C1151 1.398 . S
C1150 C1154 1.392 . S
C1151 C1150 1.398 . S
C1151 C1153 1.372 . S
C1151 H1168 0.931 . S
C1152 C1149 1.382 . S
C1152 C1153 1.390 . S
C1152 H1169 0.931 . S
C1153 C1151 1.372 . S
C1153 C1152 1.390 . S
C1153 H1170 0.929 . S
C1154 C1149 1.390 . S
C1154 C1150 1.392 . S
C1154 H1171 0.930 1_556 S
C1155 O1140 1.255 . S
C1155 O1141 1.257 . S
C1156 Eu1092 2.787 . S
C1156 O1136 1.252 . S
C1156 O1139 1.268 . S
C1156 C1149 1.506 . S
C1157 C1124 1.439 . S
C1157 H1134 0.931 . S
C1157 C1158 1.374 . S
C1158 C1129 1.387 . S
C1158 H1135 0.931 . S
C1158 C1157 1.374 . S
C1159 O1143 1.249 . S
C1159 O1144 1.264 . S
C1160 C1163 1.382 . S
C1160 C1164 1.390 . S
C1160 C1167 1.506 . S
C1161 C1162 1.398 . S
C1161 C1164 1.392 . S
C1162 C1161 1.398 . S
C1162 C1165 1.372 . S
C1162 H1172 0.931 . S
C1163 C1160 1.382 . S
C1163 C1165 1.390 . S
C1163 H1173 0.931 . S
C1164 C1160 1.390 . S
C1164 C1161 1.392 . S
C1164 H1174 0.950 . S
C1165 C1162 1.372 . S
C1165 C1163 1.390 . S
C1165 H1175 0.929 . S
C1166 O1146 1.255 . S
C1166 O1147 1.257 . S
C1167 Eu1103 2.787 . S
C1167 O1142 1.252 . S
C1167 O1145 1.268 . S
C1167 C1160 1.506 . S
H1168 C1151 0.931 . S
H1169 C1152 0.931 . S
H1170 C1153 0.929 . S
H1171 C1154 0.930 1_554 S
H1172 C1162 0.931 . S
H1173 C1163 0.931 . S
H1174 C1164 0.950 . S
H1175 C1165 0.929 . S
Eu1176 N1205 2.600 . S
Eu1176 N1211 2.562 . S
Eu1176 O1220 2.462 . S
Eu1176 O1221 2.373 . S
Eu1176 O1223 2.432 . S
Eu1176 O1224 2.291 . S
Eu1176 O1228 2.335 1_565 S
Eu1176 O1231 2.372 1_565 S
Eu1176 C1240 2.787 . S
C1177 N1178 1.365 . S
C1177 C1180 1.405 . S
C1177 C1184 1.448 . S
N1178 C1177 1.365 . S
N1178 C1181 1.319 . S
N1178 Eu1187 2.600 . S
C1179 C1181 1.397 . S
C1179 C1182 1.367 . S
C1179 H1199 0.931 1_545 S
C1180 C1177 1.405 . S
C1180 C1182 1.403 . S
C1180 C1186 1.439 . S
C1181 N1178 1.319 . S
C1181 C1179 1.397 . S
C1181 H1192 0.930 1_545 S
C1182 C1179 1.367 . S
C1182 C1180 1.403 . S
C1182 H1203 0.929 . S
C1183 C1184 1.430 . S
C1183 C1185 1.387 . S
C1183 C1189 1.404 . S
C1184 C1177 1.448 . S
C1184 C1183 1.430 . S
C1184 N1188 1.351 . S
C1185 C1183 1.387 . S
C1185 C1186 1.374 . S
C1185 H1200 0.931 . S
C1186 C1180 1.439 . S
C1186 C1185 1.374 . S
C1186 H1201 0.931 . S
Eu1187 N1178 2.600 . S
Eu1187 N1188 2.562 . S
Eu1187 O1222 2.335 . S
Eu1187 O1225 2.372 1_545 S
Eu1187 O1226 2.462 . S
Eu1187 O1227 2.373 . S
Eu1187 O1229 2.432 . S
Eu1187 O1230 2.291 . S
Eu1187 C1251 2.787 . S
N1188 C1184 1.351 . S
N1188 Eu1187 2.562 . S
N1188 C1190 1.325 . S
C1189 C1183 1.404 . S
C1189 C1191 1.366 . S
C1189 H1197 0.930 . S
C1190 N1188 1.325 . S
C1190 C1191 1.416 . S
C1190 H1196 0.929 . S
C1191 C1189 1.366 . S
C1191 C1190 1.416 . S
C1191 H1193 0.930 . S
H1192 C1181 0.930 1_565 S
H1193 C1191 0.930 . S
H1194 C1209 0.930 . S
H1195 C1216 0.930 . S
H1196 C1190 0.929 . S
H1197 C1189 0.930 . S
H1198 C1212 0.929 . S
H1199 C1179 0.931 1_565 S
H1200 C1185 0.931 . S
H1201 C1186 0.931 . S
H1202 C1207 0.931 . S
H1203 C1182 0.929 . S
H1204 C1215 0.930 . S
N1205 Eu1176 2.600 . S
N1205 C1206 1.365 . S
N1205 C1209 1.319 1_565 S
C1206 N1205 1.365 . S
C1206 C1208 1.405 . S
C1206 C1214 1.448 . S
C1207 H1202 0.931 . S
C1207 C1209 1.397 . S
C1207 C1210 1.367 1_545 S
C1208 C1206 1.405 . S
C1208 C1210 1.403 . S
C1208 C1241 1.439 . S
C1209 H1194 0.930 . S
C1209 N1205 1.319 1_545 S
C1209 C1207 1.397 . S
C1210 C1207 1.367 1_565 S
C1210 C1208 1.403 . S
C1210 H1217 0.929 . S
N1211 Eu1176 2.562 . S
N1211 C1212 1.325 . S
N1211 C1214 1.351 . S
C1212 H1198 0.929 . S
C1212 N1211 1.325 . S
C1212 C1216 1.416 . S
C1213 C1214 1.430 . S
C1213 C1215 1.404 . S
C1213 C1242 1.387 . S
C1214 C1206 1.448 . S
C1214 N1211 1.351 . S
C1214 C1213 1.430 . S
C1215 H1204 0.930 . S
C1215 C1213 1.404 . S
C1215 C1216 1.366 . S
C1216 H1195 0.930 . S
C1216 C1212 1.416 . S
C1216 C1215 1.366 . S
H1217 C1210 0.929 . S
H1218 C1241 0.931 . S
H1219 C1242 0.931 . S
O1220 Eu1176 2.462 . S
O1220 C1240 1.252 . S
O1221 Eu1176 2.373 . S
O1221 C1232 1.249 . S
O1222 Eu1187 2.335 . S
O1222 C1232 1.264 1_545 S
O1223 Eu1176 2.432 . S
O1223 C1240 1.268 . S
O1224 Eu1176 2.291 . S
O1224 C1239 1.255 . S
O1225 Eu1187 2.372 1_565 S
O1225 C1239 1.257 . S
O1226 Eu1187 2.462 . S
O1226 C1251 1.252 . S
O1227 Eu1187 2.373 . S
O1227 C1243 1.249 . S
O1228 Eu1176 2.335 1_545 S
O1228 C1243 1.264 . S
O1229 Eu1187 2.432 . S
O1229 C1251 1.268 . S
O1230 Eu1187 2.291 . S
O1230 C1250 1.255 . S
O1231 Eu1176 2.372 1_545 S
O1231 C1250 1.257 . S
C1232 O1221 1.249 . S
C1232 O1222 1.264 1_565 S
C1233 C1236 1.382 . S
C1233 C1238 1.390 . S
C1233 C1240 1.506 . S
C1234 C1235 1.398 . S
C1234 C1238 1.392 . S
C1235 C1234 1.398 . S
C1235 C1237 1.372 . S
C1235 H1252 0.931 . S
C1236 C1233 1.382 . S
C1236 C1237 1.390 . S
C1236 H1253 0.931 . S
C1237 C1235 1.372 . S
C1237 C1236 1.390 . S
C1237 H1254 0.929 . S
C1238 C1233 1.390 . S
C1238 C1234 1.392 . S
C1238 H1255 0.930 . S
C1239 O1224 1.255 . S
C1239 O1225 1.257 . S
C1240 Eu1176 2.787 . S
C1240 O1220 1.252 . S
C1240 O1223 1.268 . S
C1240 C1233 1.506 . S
C1241 C1208 1.439 . S
C1241 H1218 0.931 . S
C1241 C1242 1.374 . S
C1242 C1213 1.387 . S
C1242 H1219 0.931 . S
C1242 C1241 1.374 . S
C1243 O1227 1.249 . S
C1243 O1228 1.264 . S
C1244 C1247 1.382 . S
C1244 C1248 1.390 . S
C1244 C1251 1.506 . S
C1245 C1246 1.398 . S
C1245 C1248 1.392 . S
C1246 C1245 1.398 . S
C1246 C1249 1.372 . S
C1246 H1256 0.931 . S
C1247 C1244 1.382 . S
C1247 C1249 1.390 . S
C1247 H1257 0.931 . S
C1248 C1244 1.390 . S
C1248 C1245 1.392 . S
C1248 H1258 0.930 . S
C1249 C1246 1.372 . S
C1249 C1247 1.390 . S
C1249 H1259 0.929 . S
C1250 O1230 1.255 . S
C1250 O1231 1.257 . S
C1251 Eu1187 2.787 . S
C1251 O1226 1.252 . S
C1251 O1229 1.268 . S
C1251 C1244 1.506 . S
H1252 C1235 0.931 . S
H1253 C1236 0.931 . S
H1254 C1237 0.929 . S
H1255 C1238 0.930 . S
H1256 C1246 0.931 . S
H1257 C1247 0.931 . S
H1258 C1248 0.930 . S
H1259 C1249 0.929 . S
Eu1260 N1289 2.600 . S
Eu1260 N1295 2.562 . S
Eu1260 O1304 2.462 . S
Eu1260 O1305 2.373 . S
Eu1260 O1307 2.432 . S
Eu1260 O1308 2.291 1_554 S
Eu1260 O1312 2.335 1_554 S
Eu1260 O1315 2.372 . S
Eu1260 C1324 2.787 . S
C1261 N1262 1.365 . S
C1261 C1264 1.405 . S
C1261 C1268 1.448 . S
N1262 C1261 1.365 . S
N1262 C1265 1.319 . S
N1262 Eu1271 2.600 . S
C1263 C1265 1.397 . S
C1263 C1266 1.367 . S
C1263 H1283 0.931 . S
C1264 C1261 1.405 . S
C1264 C1266 1.403 . S
C1264 C1270 1.439 . S
C1265 N1262 1.319 . S
C1265 C1263 1.397 . S
C1265 H1276 0.930 . S
C1266 C1263 1.367 . S
C1266 C1264 1.403 . S
C1266 H1287 0.929 . S
C1267 C1268 1.430 . S
C1267 C1269 1.387 . S
C1267 C1273 1.404 . S
C1268 C1261 1.448 . S
C1268 C1267 1.430 . S
C1268 N1272 1.351 . S
C1269 C1267 1.387 . S
C1269 C1270 1.374 . S
C1269 H1284 0.931 . S
C1270 C1264 1.439 . S
C1270 C1269 1.374 . S
C1270 H1285 0.931 . S
Eu1271 N1262 2.600 . S
Eu1271 N1272 2.562 . S
Eu1271 O1306 2.335 1_556 S
Eu1271 O1309 2.372 . S
Eu1271 O1310 2.462 . S
Eu1271 O1311 2.373 . S
Eu1271 O1313 2.432 . S
Eu1271 O1314 2.291 1_556 S
Eu1271 C1335 2.787 . S
N1272 C1268 1.351 . S
N1272 Eu1271 2.562 . S
N1272 C1274 1.325 . S
C1273 C1267 1.404 . S
C1273 C1275 1.366 . S
C1273 H1281 0.930 . S
C1274 N1272 1.325 . S
C1274 C1275 1.416 . S
C1274 H1280 0.929 . S
C1275 C1273 1.366 . S
C1275 C1274 1.416 . S
C1275 H1277 0.930 . S
H1276 C1265 0.930 . S
H1277 C1275 0.930 . S
H1278 C1293 0.930 . S
H1279 C1300 0.930 . S
H1280 C1274 0.929 . S
H1281 C1273 0.930 . S
H1282 C1296 0.929 . S
H1283 C1263 0.931 . S
H1284 C1269 0.931 . S
H1285 C1270 0.931 . S
H1286 C1291 0.931 . S
H1287 C1266 0.929 . S
H1288 C1299 0.930 . S
N1289 Eu1260 2.600 . S
N1289 C1290 1.365 . S
N1289 C1293 1.319 . S
C1290 N1289 1.365 . S
C1290 C1292 1.405 . S
C1290 C1298 1.448 . S
C1291 H1286 0.931 . S
C1291 C1293 1.397 . S
C1291 C1294 1.367 . S
C1292 C1290 1.405 . S
C1292 C1294 1.403 . S
C1292 C1325 1.439 . S
C1293 H1278 0.930 . S
C1293 N1289 1.319 . S
C1293 C1291 1.397 . S
C1294 C1291 1.367 . S
C1294 C1292 1.403 . S
C1294 H1301 0.929 . S
N1295 Eu1260 2.562 . S
N1295 C1296 1.325 . S
N1295 C1298 1.351 . S
C1296 H1282 0.929 . S
C1296 N1295 1.325 . S
C1296 C1300 1.416 . S
C1297 C1298 1.430 . S
C1297 C1299 1.404 . S
C1297 C1326 1.387 . S
C1298 C1290 1.448 . S
C1298 N1295 1.351 . S
C1298 C1297 1.430 . S
C1299 H1288 0.930 . S
C1299 C1297 1.404 . S
C1299 C1300 1.366 . S
C1300 H1279 0.930 . S
C1300 C1296 1.416 . S
C1300 C1299 1.366 . S
H1301 C1294 0.929 . S
H1302 C1325 0.931 . S
H1303 C1326 0.931 . S
O1304 Eu1260 2.462 . S
O1304 C1324 1.252 . S
O1305 Eu1260 2.373 . S
O1305 C1316 1.249 . S
O1306 Eu1271 2.335 1_554 S
O1306 C1316 1.264 . S
O1307 Eu1260 2.432 . S
O1307 C1324 1.268 . S
O1308 Eu1260 2.291 1_556 S
O1308 C1323 1.255 . S
O1309 Eu1271 2.372 . S
O1309 C1323 1.257 . S
O1310 Eu1271 2.462 . S
O1310 C1335 1.252 . S
O1311 Eu1271 2.373 . S
O1311 C1327 1.249 . S
O1312 Eu1260 2.335 1_556 S
O1312 C1327 1.264 . S
O1313 Eu1271 2.432 . S
O1313 C1335 1.268 . S
O1314 Eu1271 2.291 1_554 S
O1314 C1334 1.255 . S
O1315 Eu1260 2.372 . S
O1315 C1334 1.257 . S
C1316 O1305 1.249 . S
C1316 O1306 1.264 . S
C1317 C1320 1.382 . S
C1317 C1322 1.390 . S
C1317 C1324 1.506 . S
C1318 C1319 1.398 . S
C1318 C1322 1.392 . S
C1319 C1318 1.398 . S
C1319 C1321 1.372 . S
C1319 H1336 0.931 . S
C1320 C1317 1.382 . S
C1320 C1321 1.390 . S
C1320 H1337 0.931 . S
C1321 C1319 1.372 . S
C1321 C1320 1.390 . S
C1321 H1338 0.929 . S
C1322 C1317 1.390 . S
C1322 C1318 1.392 . S
C1322 H1339 0.930 . S
C1323 O1308 1.255 . S
C1323 O1309 1.257 . S
C1324 Eu1260 2.787 . S
C1324 O1304 1.252 . S
C1324 O1307 1.268 . S
C1324 C1317 1.506 . S
C1325 C1292 1.439 . S
C1325 H1302 0.931 . S
C1325 C1326 1.374 . S
C1326 C1297 1.387 . S
C1326 H1303 0.931 . S
C1326 C1325 1.374 . S
C1327 O1311 1.249 . S
C1327 O1312 1.264 . S
C1328 C1331 1.382 . S
C1328 C1332 1.390 . S
C1328 C1335 1.506 . S
C1329 C1330 1.398 . S
C1329 C1332 1.392 . S
C1330 C1329 1.398 . S
C1330 C1333 1.372 . S
C1330 H1340 0.931 . S
C1331 C1328 1.382 . S
C1331 C1333 1.390 . S
C1331 H1341 0.931 . S
C1332 C1328 1.390 . S
C1332 C1329 1.392 . S
C1332 H1342 0.930 . S
C1333 C1330 1.372 . S
C1333 C1331 1.390 . S
C1333 H1343 0.929 . S
C1334 O1314 1.255 . S
C1334 O1315 1.257 . S
C1335 Eu1271 2.787 . S
C1335 O1310 1.252 . S
C1335 O1313 1.268 . S
C1335 C1328 1.506 . S
H1336 C1319 0.931 . S
H1337 C1320 0.931 . S
H1338 C1321 0.929 . S
H1339 C1322 0.930 . S
H1340 C1330 0.931 . S
H1341 C1331 0.931 . S
H1342 C1332 0.930 . S
H1343 C1333 0.929 . S
C1344 C1345 1.349 . S
C1344 C1346 1.327 . S
C1344 H1369 0.950 . S
C1345 C1344 1.349 . S
C1345 C1361 1.349 . S
C1346 C1344 1.327 . S
C1346 C1365 1.429 . S
C1346 H1370 0.950 1_655 S
C1347 C1364 1.552 1_655 S
C1347 C1366 1.372 1_655 S
C1347 H1371 0.967 . S
H1348 C1352 0.949 . S
C1349 C1350 1.349 . S
C1349 C1351 1.327 . S
C1349 H1372 0.950 . S
C1350 C1349 1.349 . S
C1350 C1362 1.349 . S
C1351 C1349 1.327 . S
C1351 C1367 1.429 . S
C1351 H1373 0.950 . S
C1352 H1348 0.949 . S
C1352 C1360 1.574 . S
C1352 C1368 1.368 . S
H1353 C1361 0.950 . S
H1354 C1359 0.950 . S
H1355 C1360 0.949 . S
H1356 C1362 0.950 . S
H1357 C1363 0.950 . S
H1358 C1364 0.949 . S
C1359 H1354 0.950 . S
C1359 C1361 1.327 . S
C1359 C1365 1.429 . S
C1360 C1352 1.574 . S
C1360 H1355 0.949 . S
C1360 C1366 1.368 . S
C1361 C1345 1.349 . S
C1361 H1353 0.950 . S
C1361 C1359 1.327 . S
C1362 C1350 1.349 . S
C1362 H1356 0.950 . S
C1362 C1363 1.327 . S
C1363 H1357 0.950 . S
C1363 C1362 1.327 . S
C1363 C1367 1.429 . S
C1364 C1347 1.552 1_455 S
C1364 H1358 0.949 . S
C1364 C1368 1.368 . S
C1365 C1346 1.429 . S
C1365 C1359 1.429 . S
C1365 C1366 1.523 1_655 S
C1366 C1347 1.372 1_455 S
C1366 C1360 1.368 . S
C1366 C1365 1.523 1_455 S
C1367 C1351 1.429 . S
C1367 C1363 1.429 . S
C1367 C1368 1.523 . S
C1368 C1352 1.368 . S
C1368 C1364 1.368 . S
C1368 C1367 1.523 . S
H1369 C1344 0.950 . S
H1370 C1346 0.950 1_455 S
H1371 C1347 0.967 . S
H1372 C1349 0.950 . S
H1373 C1351 0.950 . S
C1374 C1375 1.349 . S
C1374 C1376 1.327 . S
C1374 H1399 0.950 . S
C1375 C1374 1.349 . S
C1375 C1391 1.349 . S
C1376 C1374 1.327 . S
C1376 C1395 1.429 . S
C1376 H1400 0.950 . S
C1377 C1394 1.574 . S
C1377 C1396 1.368 . S
C1377 H1401 0.949 . S
H1378 C1382 0.949 . S
C1379 C1380 1.349 . S
C1379 C1381 1.327 . S
C1379 H1402 0.950 . S
C1380 C1379 1.349 . S
C1380 C1392 1.349 . S
C1381 C1379 1.327 . S
C1381 C1397 1.429 . S
C1381 H1403 0.950 . S
C1382 H1378 0.949 . S
C1382 C1390 1.574 . S
C1382 C1398 1.368 . S
H1383 C1391 0.950 . S
H1384 C1389 0.950 . S
H1385 C1390 0.949 . S
H1386 C1392 0.950 . S
H1387 C1393 0.950 . S
H1388 C1394 0.949 . S
C1389 H1384 0.950 . S
C1389 C1391 1.327 . S
C1389 C1395 1.429 . S
C1390 C1382 1.574 . S
C1390 H1385 0.949 . S
C1390 C1396 1.368 . S
C1391 C1375 1.349 . S
C1391 H1383 0.950 . S
C1391 C1389 1.327 . S
C1392 C1380 1.349 . S
C1392 H1386 0.950 . S
C1392 C1393 1.327 . S
C1393 H1387 0.950 . S
C1393 C1392 1.327 . S
C1393 C1397 1.429 . S
C1394 C1377 1.574 . S
C1394 H1388 0.949 . S
C1394 C1398 1.368 . S
C1395 C1376 1.429 . S
C1395 C1389 1.429 . S
C1395 C1396 1.523 . S
C1396 C1377 1.368 . S
C1396 C1390 1.368 . S
C1396 C1395 1.523 . S
C1397 C1381 1.429 . S
C1397 C1393 1.429 . S
C1397 C1398 1.523 . S
C1398 C1382 1.368 . S
C1398 C1394 1.368 . S
C1398 C1397 1.523 . S
H1399 C1374 0.950 . S
H1400 C1376 0.950 . S
H1401 C1377 0.949 . S
H1402 C1379 0.950 . S
H1403 C1381 0.950 . S
C1404 C1405 1.349 . S
C1404 C1406 1.327 . S
C1404 H1429 0.950 . S
C1405 C1404 1.349 . S
C1405 C1421 1.349 . S
C1406 C1404 1.327 . S
C1406 C1425 1.429 . S
C1406 H1430 0.950 . S
C1407 C1424 1.574 . S
C1407 C1426 1.368 . S
C1407 H1431 0.949 . S
H1408 C1412 0.949 . S
C1409 C1410 1.349 . S
C1409 C1411 1.327 . S
C1409 H1432 0.950 . S
C1410 C1409 1.349 . S
C1410 C1422 1.349 . S
C1411 C1409 1.327 . S
C1411 C1427 1.429 . S
C1411 H1433 0.950 . S
C1412 H1408 0.949 . S
C1412 C1420 1.574 . S
C1412 C1428 1.368 . S
H1413 C1421 0.950 . S
H1414 C1419 0.950 . S
H1415 C1420 0.949 . S
H1416 C1422 0.950 . S
H1417 C1423 0.950 . S
H1418 C1424 0.949 . S
C1419 H1414 0.950 . S
C1419 C1421 1.327 . S
C1419 C1425 1.429 . S
C1420 C1412 1.574 . S
C1420 H1415 0.949 . S
C1420 C1426 1.368 . S
C1421 C1405 1.349 . S
C1421 H1413 0.950 . S
C1421 C1419 1.327 . S
C1422 C1410 1.349 . S
C1422 H1416 0.950 . S
C1422 C1423 1.327 . S
C1423 H1417 0.950 . S
C1423 C1422 1.327 . S
C1423 C1427 1.429 . S
C1424 C1407 1.574 . S
C1424 H1418 0.949 . S
C1424 C1428 1.368 . S
C1425 C1406 1.429 . S
C1425 C1419 1.429 . S
C1425 C1426 1.523 . S
C1426 C1407 1.368 . S
C1426 C1420 1.368 . S
C1426 C1425 1.523 . S
C1427 C1411 1.429 . S
C1427 C1423 1.429 . S
C1427 C1428 1.523 . S
C1428 C1412 1.368 . S
C1428 C1424 1.368 . S
C1428 C1427 1.523 . S
H1429 C1404 0.950 . S
H1430 C1406 0.950 . S
H1431 C1407 0.949 . S
H1432 C1409 0.950 . S
H1433 C1411 0.950 . S
C1434 C1435 1.349 . S
C1434 C1436 1.327 . S
C1434 H1459 0.950 . S
C1435 C1434 1.349 . S
C1435 C1451 1.349 . S
C1436 C1434 1.327 . S
C1436 C1455 1.429 . S
C1436 H1460 0.950 . S
C1437 C1454 1.586 . S
C1437 C1456 1.359 1_565 S
C1437 H1461 0.947 . S
H1438 C1442 0.949 . S
C1439 C1440 1.349 . S
C1439 C1441 1.327 . S
C1439 H1462 0.950 . S
C1440 C1439 1.349 . S
C1440 C1452 1.349 . S
C1441 C1439 1.327 . S
C1441 C1457 1.429 . S
C1441 H1463 0.950 . S
C1442 H1438 0.949 . S
C1442 C1450 1.574 . S
C1442 C1458 1.368 1_545 S
H1443 C1451 0.950 . S
H1444 C1449 0.950 . S
H1445 C1450 0.949 . S
H1446 C1452 0.950 . S
H1447 C1453 0.950 1_545 S
H1448 C1454 0.949 . S
C1449 H1444 0.950 . S
C1449 C1451 1.327 . S
C1449 C1455 1.429 . S
C1450 C1442 1.574 . S
C1450 H1445 0.949 . S
C1450 C1456 1.368 . S
C1451 C1435 1.349 . S
C1451 H1443 0.950 . S
C1451 C1449 1.327 . S
C1452 C1440 1.349 . S
C1452 H1446 0.950 . S
C1452 C1453 1.327 . S
C1453 H1447 0.950 1_565 S
C1453 C1452 1.327 . S
C1453 C1457 1.429 . S
C1454 C1437 1.586 . S
C1454 H1448 0.949 . S
C1454 C1458 1.368 . S
C1455 C1436 1.429 . S
C1455 C1449 1.429 . S
C1455 C1456 1.523 . S
C1456 C1437 1.359 1_545 S
C1456 C1450 1.368 . S
C1456 C1455 1.523 . S
C1457 C1441 1.429 . S
C1457 C1453 1.429 . S
C1457 C1458 1.523 . S
C1458 C1442 1.368 1_565 S
C1458 C1454 1.368 . S
C1458 C1457 1.523 . S
H1459 C1434 0.950 . S
H1460 C1436 0.950 . S
H1461 C1437 0.947 . S
H1462 C1439 0.950 . S
H1463 C1441 0.950 . S
C1464 C1465 1.349 1_545 S
C1464 C1466 1.327 . S
C1464 H1489 0.950 . S
C1465 C1464 1.349 1_565 S
C1465 C1481 1.349 . S
C1466 C1464 1.327 . S
C1466 C1485 1.429 1_545 S
C1466 H1490 0.950 . S
C1467 C1484 1.574 . S
C1467 C1486 1.342 1_565 S
C1467 H1491 0.949 . S
H1468 C1472 0.949 . S
C1469 C1470 1.349 . S
C1469 C1471 1.325 1_545 S
C1469 H1492 0.950 1_545 S
C1470 C1469 1.349 . S
C1470 C1482 1.349 . S
C1471 C1469 1.325 1_565 S
C1471 C1487 1.427 1_565 S
C1471 H1493 0.953 . S
C1472 H1468 0.949 . S
C1472 C1480 1.574 . S
C1472 C1488 1.368 . S
H1473 C1481 0.950 . S
H1474 C1479 0.950 . S
H1475 C1480 0.949 . S
H1476 C1482 0.950 . S
H1477 C1483 0.950 . S
H1478 C1484 0.949 . S
C1479 H1474 0.950 . S
C1479 C1481 1.327 . S
C1479 C1485 1.429 . S
C1480 C1472 1.574 . S
C1480 H1475 0.949 . S
C1480 C1486 1.415 . S
C1481 C1465 1.349 . S
C1481 H1473 0.950 . S
C1481 C1479 1.327 . S
C1482 C1470 1.349 . S
C1482 H1476 0.950 . S
C1482 C1483 1.327 . S
C1483 H1477 0.950 . S
C1483 C1482 1.327 . S
C1483 C1487 1.429 . S
C1484 C1467 1.574 . S
C1484 H1478 0.949 . S
C1484 C1488 1.368 1_565 S
C1485 C1466 1.429 1_565 S
C1485 C1479 1.429 . S
C1485 C1486 1.498 1_565 S
C1486 C1467 1.342 1_545 S
C1486 C1480 1.415 . S
C1486 C1485 1.498 1_545 S
C1487 C1471 1.427 1_545 S
C1487 C1483 1.429 . S
C1487 C1488 1.523 . S
C1488 C1472 1.368 . S
C1488 C1484 1.368 1_545 S
C1488 C1487 1.523 . S
H1489 C1464 0.950 . S
H1490 C1466 0.950 . S
H1491 C1467 0.949 . S
H1492 C1469 0.950 1_565 S
H1493 C1471 0.953 . S
C1494 C1495 1.349 . S
C1494 C1496 1.327 . S
C1494 H1519 0.950 . S
C1495 C1494 1.349 . S
C1495 C1511 1.349 . S
C1496 C1494 1.327 . S
C1496 C1515 1.429 . S
C1496 H1520 0.950 . S
C1497 C1514 1.574 . S
C1497 C1516 1.368 1_655 S
C1497 H1521 0.949 . S
H1498 C1502 0.949 . S
C1499 C1500 1.349 . S
C1499 C1501 1.327 . S
C1499 H1522 0.950 . S
C1500 C1499 1.349 . S
C1500 C1512 1.349 . S
C1501 C1499 1.327 . S
C1501 C1517 1.429 . S
C1501 H1523 0.950 . S
C1502 H1498 0.949 . S
C1502 C1510 1.574 . S
C1502 C1518 1.368 1_455 S
H1503 C1511 0.950 . S
H1504 C1509 0.950 . S
H1505 C1510 0.949 . S
H1506 C1512 0.950 . S
H1507 C1513 0.950 1_455 S
H1508 C1514 0.949 . S
C1509 H1504 0.950 . S
C1509 C1511 1.327 . S
C1509 C1515 1.429 . S
C1510 C1502 1.574 . S
C1510 H1505 0.949 . S
C1510 C1516 1.368 . S
C1511 C1495 1.349 . S
C1511 H1503 0.950 . S
C1511 C1509 1.327 . S
C1512 C1500 1.349 . S
C1512 H1506 0.950 . S
C1512 C1513 1.327 . S
C1513 H1507 0.950 1_655 S
C1513 C1512 1.327 . S
C1513 C1517 1.429 . S
C1514 C1497 1.574 . S
C1514 H1508 0.949 . S
C1514 C1518 1.368 . S
C1515 C1496 1.429 . S
C1515 C1509 1.429 . S
C1515 C1516 1.523 . S
C1516 C1497 1.368 1_455 S
C1516 C1510 1.368 . S
C1516 C1515 1.523 . S
C1517 C1501 1.429 . S
C1517 C1513 1.429 . S
C1517 C1518 1.523 . S
C1518 C1502 1.368 1_655 S
C1518 C1514 1.368 . S
C1518 C1517 1.523 . S
H1519 C1494 0.950 . S
H1520 C1496 0.950 . S
H1521 C1497 0.949 . S
H1522 C1499 0.950 . S
H1523 C1501 0.950 . S
C1524 C1525 1.349 . S
C1524 C1526 1.327 . S
C1524 H1549 0.950 . S
C1525 C1524 1.349 . S
C1525 C1541 1.349 . S
C1526 C1524 1.327 . S
C1526 C1545 1.429 . S
C1526 H1550 0.950 . S
C1527 C1544 1.574 . S
C1527 C1546 1.368 . S
C1527 H1551 0.949 . S
H1528 C1532 0.949 . S
C1529 C1530 1.349 . S
C1529 C1531 1.327 . S
C1529 H1552 0.950 . S
C1530 C1529 1.349 . S
C1530 C1542 1.349 . S
C1531 C1529 1.327 . S
C1531 C1547 1.429 . S
C1531 H1553 0.950 . S
C1532 H1528 0.949 . S
C1532 C1540 1.574 . S
C1532 C1548 1.368 . S
H1533 C1541 0.950 . S
H1534 C1539 0.950 . S
H1535 C1540 0.949 . S
H1536 C1542 0.950 . S
H1537 C1543 0.950 . S
H1538 C1544 0.949 . S
C1539 H1534 0.950 . S
C1539 C1541 1.327 . S
C1539 C1545 1.429 . S
C1540 C1532 1.574 . S
C1540 H1535 0.949 . S
C1540 C1546 1.368 . S
C1541 C1525 1.349 . S
C1541 H1533 0.950 . S
C1541 C1539 1.327 . S
C1542 C1530 1.349 . S
C1542 H1536 0.950 . S
C1542 C1543 1.327 . S
C1543 H1537 0.950 . S
C1543 C1542 1.327 . S
C1543 C1547 1.429 . S
C1544 C1527 1.574 . S
C1544 H1538 0.949 . S
C1544 C1548 1.368 . S
C1545 C1526 1.429 . S
C1545 C1539 1.429 . S
C1545 C1546 1.523 . S
C1546 C1527 1.368 . S
C1546 C1540 1.368 . S
C1546 C1545 1.523 . S
C1547 C1531 1.429 . S
C1547 C1543 1.429 . S
C1547 C1548 1.523 . S
C1548 C1532 1.368 . S
C1548 C1544 1.368 . S
C1548 C1547 1.523 . S
H1549 C1524 0.950 . S
H1550 C1526 0.950 . S
H1551 C1527 0.949 . S
H1552 C1529 0.950 . S
H1553 C1531 0.950 . S
C1554 C1555 1.349 . S
C1554 C1556 1.327 . S
C1554 H1579 0.950 . S
C1555 C1554 1.349 . S
C1555 C1571 1.349 . S
C1556 C1554 1.327 . S
C1556 C1575 1.429 . S
C1556 H1580 0.950 . S
C1557 C1574 1.574 . S
C1557 C1576 1.368 . S
C1557 H1581 0.949 . S
H1558 C1562 0.949 . S
C1559 C1560 1.349 . S
C1559 C1561 1.327 . S
C1559 H1582 0.950 . S
C1560 C1559 1.349 . S
C1560 C1572 1.349 . S
C1561 C1559 1.327 . S
C1561 C1577 1.429 . S
C1561 H1583 0.950 . S
C1562 H1558 0.949 . S
C1562 C1570 1.574 . S
C1562 C1578 1.368 . S
H1563 C1571 0.950 . S
H1564 C1569 0.950 . S
H1565 C1570 0.949 . S
H1566 C1572 0.950 . S
H1567 C1573 0.950 . S
H1568 C1574 0.949 . S
C1569 H1564 0.950 . S
C1569 C1571 1.327 . S
C1569 C1575 1.429 . S
C1570 C1562 1.574 . S
C1570 H1565 0.949 . S
C1570 C1576 1.368 . S
C1571 C1555 1.349 . S
C1571 H1563 0.950 . S
C1571 C1569 1.327 . S
C1572 C1560 1.349 . S
C1572 H1566 0.950 . S
C1572 C1573 1.327 . S
C1573 H1567 0.950 . S
C1573 C1572 1.327 . S
C1573 C1577 1.429 . S
C1574 C1557 1.574 . S
C1574 H1568 0.949 . S
C1574 C1578 1.368 . S
C1575 C1556 1.429 . S
C1575 C1569 1.429 . S
C1575 C1576 1.523 . S
C1576 C1557 1.368 . S
C1576 C1570 1.368 . S
C1576 C1575 1.523 . S
C1577 C1561 1.429 . S
C1577 C1573 1.429 . S
C1577 C1578 1.523 . S
C1578 C1562 1.368 . S
C1578 C1574 1.368 . S
C1578 C1577 1.523 . S
H1579 C1554 0.950 . S
H1580 C1556 0.950 . S
H1581 C1557 0.949 . S
H1582 C1559 0.950 . S
H1583 C1561 0.950 . S
C1584 C1585 1.349 . S
C1584 C1586 1.327 . S
C1584 H1609 0.950 . S
C1585 C1584 1.349 . S
C1585 C1601 1.349 . S
C1586 C1584 1.327 . S
C1586 C1605 1.429 . S
C1586 H1610 0.950 . S
C1587 C1604 1.574 . S
C1587 C1606 1.368 . S
C1587 H1611 0.949 . S
H1588 C1592 0.949 . S
C1589 C1590 1.349 . S
C1589 C1591 1.327 . S
C1589 H1612 0.950 . S
C1590 C1589 1.349 . S
C1590 C1602 1.349 . S
C1591 C1589 1.327 . S
C1591 C1607 1.429 . S
C1591 H1613 0.950 . S
C1592 H1588 0.949 . S
C1592 C1600 1.574 . S
C1592 C1608 1.368 . S
H1593 C1601 0.950 . S
H1594 C1599 0.950 . S
H1595 C1600 0.949 . S
H1596 C1602 0.950 . S
H1597 C1603 0.950 . S
H1598 C1604 0.949 . S
C1599 H1594 0.950 . S
C1599 C1601 1.327 . S
C1599 C1605 1.429 . S
C1600 C1592 1.574 . S
C1600 H1595 0.949 . S
C1600 C1606 1.368 . S
C1601 C1585 1.349 . S
C1601 H1593 0.950 . S
C1601 C1599 1.327 . S
C1602 C1590 1.349 . S
C1602 H1596 0.950 . S
C1602 C1603 1.327 . S
C1603 H1597 0.950 . S
C1603 C1602 1.327 . S
C1603 C1607 1.429 . S
C1604 C1587 1.574 . S
C1604 H1598 0.949 . S
C1604 C1608 1.368 . S
C1605 C1586 1.429 . S
C1605 C1599 1.429 . S
C1605 C1606 1.523 . S
C1606 C1587 1.368 . S
C1606 C1600 1.368 . S
C1606 C1605 1.523 . S
C1607 C1591 1.429 . S
C1607 C1603 1.429 . S
C1607 C1608 1.523 . S
C1608 C1592 1.368 . S
C1608 C1604 1.368 . S
C1608 C1607 1.523 . S
H1609 C1584 0.950 . S
H1610 C1586 0.950 . S
H1611 C1587 0.949 . S
H1612 C1589 0.950 . S
H1613 C1591 0.950 . S
C1614 C1615 1.349 . S
C1614 C1616 1.327 . S
C1614 H1639 0.950 . S
C1615 C1614 1.349 . S
C1615 C1631 1.349 . S
C1616 C1614 1.327 . S
C1616 C1635 1.429 . S
C1616 H1640 0.950 . S
C1617 C1634 1.574 . S
C1617 C1636 1.368 . S
C1617 H1641 0.949 . S
H1618 C1622 0.949 . S
C1619 C1620 1.349 . S
C1619 C1621 1.327 . S
C1619 H1642 0.950 . S
C1620 C1619 1.349 . S
C1620 C1632 1.349 . S
C1621 C1619 1.327 . S
C1621 C1637 1.429 . S
C1621 H1643 0.950 . S
C1622 H1618 0.949 . S
C1622 C1630 1.574 . S
C1622 C1638 1.368 . S
H1623 C1631 0.950 . S
H1624 C1629 0.950 . S
H1625 C1630 0.949 . S
H1626 C1632 0.950 . S
H1627 C1633 0.950 . S
H1628 C1634 0.949 . S
C1629 H1624 0.950 . S
C1629 C1631 1.327 . S
C1629 C1635 1.429 . S
C1630 C1622 1.574 . S
C1630 H1625 0.949 . S
C1630 C1636 1.368 . S
C1631 C1615 1.349 . S
C1631 H1623 0.950 . S
C1631 C1629 1.327 . S
C1632 C1620 1.349 . S
C1632 H1626 0.950 . S
C1632 C1633 1.327 . S
C1633 H1627 0.950 . S
C1633 C1632 1.327 . S
C1633 C1637 1.429 . S
C1634 C1617 1.574 . S
C1634 H1628 0.949 . S
C1634 C1638 1.368 . S
C1635 C1616 1.429 . S
C1635 C1629 1.429 . S
C1635 C1636 1.523 . S
C1636 C1617 1.368 . S
C1636 C1630 1.368 . S
C1636 C1635 1.523 . S
C1637 C1621 1.429 . S
C1637 C1633 1.429 . S
C1637 C1638 1.523 . S
C1638 C1622 1.368 . S
C1638 C1634 1.368 . S
C1638 C1637 1.523 . S
H1639 C1614 0.950 . S
H1640 C1616 0.950 . S
H1641 C1617 0.949 . S
H1642 C1619 0.950 . S
H1643 C1621 0.950 . S
C1644 C1645 1.349 . S
C1644 C1646 1.327 . S
C1644 H1669 0.950 . S
C1645 C1644 1.349 . S
C1645 C1661 1.349 . S
C1646 C1644 1.327 . S
C1646 C1665 1.429 . S
C1646 H1670 0.950 . S
C1647 C1664 1.574 . S
C1647 C1666 1.368 . S
C1647 H1671 0.949 . S
H1648 C1652 0.951 1_565 S
C1649 C1650 1.349 . S
C1649 C1651 1.327 . S
C1649 H1672 0.950 . S
C1650 C1649 1.349 . S
C1650 C1662 1.349 . S
C1651 C1649 1.327 . S
C1651 C1667 1.429 . S
C1651 H1673 0.950 . S
C1652 H1648 0.951 1_545 S
C1652 C1660 1.553 1_545 S
C1652 C1668 1.389 . S
H1653 C1661 0.951 1_545 S
H1654 C1659 0.950 . S
H1655 C1660 0.949 . S
H1656 C1662 0.950 . S
H1657 C1663 0.950 . S
H1658 C1664 0.949 . S
C1659 H1654 0.950 . S
C1659 C1661 1.327 1_545 S
C1659 C1665 1.429 1_545 S
C1660 C1652 1.553 1_565 S
C1660 H1655 0.949 . S
C1660 C1666 1.368 1_565 S
C1661 C1645 1.349 . S
C1661 H1653 0.951 1_565 S
C1661 C1659 1.327 1_565 S
C1662 C1650 1.349 . S
C1662 H1656 0.950 . S
C1662 C1663 1.327 . S
C1663 H1657 0.950 . S
C1663 C1662 1.327 . S
C1663 C1667 1.429 . S
C1664 C1647 1.574 . S
C1664 H1658 0.949 . S
C1664 C1668 1.368 . S
C1665 C1646 1.429 . S
C1665 C1659 1.429 1_565 S
C1665 C1666 1.523 1_565 S
C1666 C1647 1.368 . S
C1666 C1660 1.368 1_545 S
C1666 C1665 1.523 1_545 S
C1667 C1651 1.429 . S
C1667 C1663 1.429 . S
C1667 C1668 1.523 . S
C1668 C1652 1.389 . S
C1668 C1664 1.368 . S
C1668 C1667 1.523 . S
H1669 C1644 0.950 . S
H1670 C1646 0.950 . S
H1671 C1647 0.949 . S
H1672 C1649 0.950 . S
H1673 C1651 0.950 . S
C1674 C1675 1.349 . S
C1674 C1676 1.327 . S
C1674 H1699 0.950 . S
C1675 C1674 1.349 . S
C1675 C1691 1.349 . S
C1676 C1674 1.327 . S
C1676 C1695 1.429 . S
C1676 H1700 0.950 . S
C1677 C1694 1.574 . S
C1677 C1696 1.368 1_655 S
C1677 H1701 0.949 . S
H1678 C1682 0.949 . S
C1679 C1680 1.349 . S
C1679 C1681 1.327 . S
C1679 H1702 0.950 . S
C1680 C1679 1.349 . S
C1680 C1692 1.388 . S
C1681 C1679 1.327 . S
C1681 C1697 1.429 . S
C1681 H1703 0.950 . S
C1682 H1678 0.949 . S
C1682 C1690 1.574 . S
C1682 C1698 1.368 1_455 S
H1683 C1691 0.950 1_655 S
H1684 C1689 0.936 1_655 S
H1685 C1690 0.949 . S
H1686 C1692 0.936 1_455 S
H1687 C1693 0.950 . S
H1688 C1694 0.949 . S
C1689 H1684 0.936 1_455 S
C1689 C1691 1.336 . S
C1689 C1695 1.434 . S
C1690 C1682 1.574 . S
C1690 H1685 0.949 . S
C1690 C1696 1.368 . S
C1691 C1675 1.349 . S
C1691 H1683 0.950 1_455 S
C1691 C1689 1.336 . S
C1692 C1680 1.388 . S
C1692 H1686 0.936 1_655 S
C1692 C1693 1.304 1_655 S
C1693 H1687 0.950 . S
C1693 C1692 1.304 1_455 S
C1693 C1697 1.429 1_455 S
C1694 C1677 1.574 . S
C1694 H1688 0.949 . S
C1694 C1698 1.368 . S
C1695 C1676 1.429 . S
C1695 C1689 1.434 . S
C1695 C1696 1.523 . S
C1696 C1677 1.368 1_455 S
C1696 C1690 1.368 . S
C1696 C1695 1.523 . S
C1697 C1681 1.429 . S
C1697 C1693 1.429 1_655 S
C1697 C1698 1.523 . S
C1698 C1682 1.368 1_655 S
C1698 C1694 1.368 . S
C1698 C1697 1.523 . S
H1699 C1674 0.950 . S
H1700 C1676 0.950 . S
H1701 C1677 0.949 . S
H1702 C1679 0.950 . S
H1703 C1681 0.950 . S
C1704 C1705 1.349 . S
C1704 C1706 1.327 . S
C1704 H1729 0.950 . S
C1705 C1704 1.349 . S
C1705 C1721 1.349 . S
C1706 C1704 1.327 . S
C1706 C1725 1.429 . S
C1706 H1730 0.950 . S
C1707 C1724 1.574 . S
C1707 C1726 1.368 1_554 S
C1707 H1731 0.949 . S
H1708 C1712 0.949 . S
C1709 C1710 1.329 1_554 S
C1709 C1711 1.327 . S
C1709 H1732 0.950 . S
C1710 C1709 1.329 1_556 S
C1710 C1722 1.384 . S
C1711 C1709 1.327 . S
C1711 C1727 1.429 1_554 S
C1711 H1733 0.950 . S
C1712 H1708 0.949 . S
C1712 C1720 1.574 . S
C1712 C1728 1.368 . S
H1713 C1721 0.950 1_554 S
H1714 C1719 0.950 1_554 S
H1715 C1720 0.949 . S
H1716 C1722 0.950 . S
H1717 C1723 0.950 . S
H1718 C1724 0.949 . S
C1719 H1714 0.950 1_556 S
C1719 C1721 1.327 . S
C1719 C1725 1.429 . S
C1720 C1712 1.574 . S
C1720 H1715 0.949 . S
C1720 C1726 1.368 . S
C1721 C1705 1.349 . S
C1721 H1713 0.950 1_556 S
C1721 C1719 1.327 . S
C1722 C1710 1.384 . S
C1722 H1716 0.950 . S
C1722 C1723 1.327 . S
C1723 H1717 0.950 . S
C1723 C1722 1.327 . S
C1723 C1727 1.429 . S
C1724 C1707 1.574 . S
C1724 H1718 0.949 . S
C1724 C1728 1.368 1_554 S
C1725 C1706 1.429 . S
C1725 C1719 1.429 . S
C1725 C1726 1.523 . S
C1726 C1707 1.368 1_556 S
C1726 C1720 1.368 . S
C1726 C1725 1.523 . S
C1727 C1711 1.429 1_556 S
C1727 C1723 1.429 . S
C1727 C1728 1.523 . S
C1728 C1712 1.368 . S
C1728 C1724 1.368 1_556 S
C1728 C1727 1.523 . S
H1729 C1704 0.950 . S
H1730 C1706 0.950 . S
H1731 C1707 0.949 . S
H1732 C1709 0.950 . S
H1733 C1711 0.950 . S
C1734 C1735 1.349 . S
C1734 C1736 1.327 . S
C1734 H1759 0.950 . S
C1735 C1734 1.349 . S
C1735 C1751 1.349 . S
C1736 C1734 1.327 . S
C1736 C1755 1.429 . S
C1736 H1760 0.950 . S
C1737 C1754 1.574 . S
C1737 C1756 1.368 . S
C1737 H1761 0.949 . S
H1738 C1742 0.949 . S
C1739 C1740 1.349 . S
C1739 C1741 1.327 . S
C1739 H1762 0.950 . S
C1740 C1739 1.349 . S
C1740 C1752 1.349 . S
C1741 C1739 1.327 . S
C1741 C1757 1.429 . S
C1741 H1763 0.950 . S
C1742 H1738 0.949 . S
C1742 C1750 1.574 . S
C1742 C1758 1.368 . S
H1743 C1751 0.950 . S
H1744 C1749 0.950 . S
H1745 C1750 0.949 . S
H1746 C1752 0.950 . S
H1747 C1753 0.950 . S
H1748 C1754 0.949 . S
C1749 H1744 0.950 . S
C1749 C1751 1.327 . S
C1749 C1755 1.429 . S
C1750 C1742 1.574 . S
C1750 H1745 0.949 . S
C1750 C1756 1.368 . S
C1751 C1735 1.349 . S
C1751 H1743 0.950 . S
C1751 C1749 1.327 . S
C1752 C1740 1.349 . S
C1752 H1746 0.950 . S
C1752 C1753 1.327 . S
C1753 H1747 0.950 . S
C1753 C1752 1.327 . S
C1753 C1757 1.429 . S
C1754 C1737 1.574 . S
C1754 H1748 0.949 . S
C1754 C1758 1.368 . S
C1755 C1736 1.429 . S
C1755 C1749 1.429 . S
C1755 C1756 1.523 . S
C1756 C1737 1.368 . S
C1756 C1750 1.368 . S
C1756 C1755 1.523 . S
C1757 C1741 1.429 . S
C1757 C1753 1.429 . S
C1757 C1758 1.523 . S
C1758 C1742 1.368 . S
C1758 C1754 1.368 . S
C1758 C1757 1.523 . S
H1759 C1734 0.950 . S
H1760 C1736 0.950 . S
H1761 C1737 0.949 . S
H1762 C1739 0.950 . S
H1763 C1741 0.950 . S
C1764 C1765 1.349 . S
C1764 C1766 1.327 . S
C1764 H1789 0.950 . S
C1765 C1764 1.349 . S
C1765 C1781 1.349 . S
C1766 C1764 1.327 . S
C1766 C1785 1.429 . S
C1766 H1790 0.950 . S
C1767 C1784 1.574 . S
C1767 C1786 1.368 . S
C1767 H1791 0.949 . S
H1768 C1772 0.949 . S
C1769 C1770 1.349 . S
C1769 C1771 1.327 . S
C1769 H1792 0.950 . S
C1770 C1769 1.349 . S
C1770 C1782 1.349 . S
C1771 C1769 1.327 . S
C1771 C1787 1.429 . S
C1771 H1793 0.950 . S
C1772 H1768 0.949 . S
C1772 C1780 1.574 . S
C1772 C1788 1.368 . S
H1773 C1781 0.950 . S
H1774 C1779 0.950 . S
H1775 C1780 0.949 . S
H1776 C1782 0.950 . S
H1777 C1783 0.950 . S
H1778 C1784 0.949 . S
C1779 H1774 0.950 . S
C1779 C1781 1.327 . S
C1779 C1785 1.429 . S
C1780 C1772 1.574 . S
C1780 H1775 0.949 . S
C1780 C1786 1.368 . S
C1781 C1765 1.349 . S
C1781 H1773 0.950 . S
C1781 C1779 1.327 . S
C1782 C1770 1.349 . S
C1782 H1776 0.950 . S
C1782 C1783 1.327 . S
C1783 H1777 0.950 . S
C1783 C1782 1.327 . S
C1783 C1787 1.429 . S
C1784 C1767 1.574 . S
C1784 H1778 0.949 . S
C1784 C1788 1.368 . S
C1785 C1766 1.429 . S
C1785 C1779 1.429 . S
C1785 C1786 1.523 . S
C1786 C1767 1.368 . S
C1786 C1780 1.368 . S
C1786 C1785 1.523 . S
C1787 C1771 1.429 . S
C1787 C1783 1.429 . S
C1787 C1788 1.523 . S
C1788 C1772 1.368 . S
C1788 C1784 1.368 . S
C1788 C1787 1.523 . S
H1789 C1764 0.950 . S
H1790 C1766 0.950 . S
H1791 C1767 0.949 . S
H1792 C1769 0.950 . S
H1793 C1771 0.950 . S
C1794 C1795 1.349 . S
C1794 C1796 1.327 . S
C1794 H1819 0.950 . S
C1795 C1794 1.349 . S
C1795 C1811 1.349 . S
C1796 C1794 1.327 . S
C1796 C1815 1.429 . S
C1796 H1820 0.950 . S
C1797 C1814 1.574 . S
C1797 C1816 1.368 . S
C1797 H1821 0.949 . S
H1798 C1802 0.949 . S
C1799 C1800 1.349 . S
C1799 C1801 1.327 . S
C1799 H1822 0.950 . S
C1800 C1799 1.349 . S
C1800 C1812 1.349 . S
C1801 C1799 1.327 . S
C1801 C1817 1.429 . S
C1801 H1823 0.950 . S
C1802 H1798 0.949 . S
C1802 C1810 1.574 . S
C1802 C1818 1.368 . S
H1803 C1811 0.950 . S
H1804 C1809 0.950 . S
H1805 C1810 0.949 . S
H1806 C1812 0.950 . S
H1807 C1813 0.950 . S
H1808 C1814 0.949 . S
C1809 H1804 0.950 . S
C1809 C1811 1.327 . S
C1809 C1815 1.429 . S
C1810 C1802 1.574 . S
C1810 H1805 0.949 . S
C1810 C1816 1.368 . S
C1811 C1795 1.349 . S
C1811 H1803 0.950 . S
C1811 C1809 1.327 . S
C1812 C1800 1.349 . S
C1812 H1806 0.950 . S
C1812 C1813 1.327 . S
C1813 H1807 0.950 . S
C1813 C1812 1.327 . S
C1813 C1817 1.429 . S
C1814 C1797 1.574 . S
C1814 H1808 0.949 . S
C1814 C1818 1.368 . S
C1815 C1796 1.429 . S
C1815 C1809 1.429 . S
C1815 C1816 1.523 . S
C1816 C1797 1.368 . S
C1816 C1810 1.368 . S
C1816 C1815 1.523 . S
C1817 C1801 1.429 . S
C1817 C1813 1.429 . S
C1817 C1818 1.523 . S
C1818 C1802 1.368 . S
C1818 C1814 1.368 . S
C1818 C1817 1.523 . S
H1819 C1794 0.950 . S
H1820 C1796 0.950 . S
H1821 C1797 0.949 . S
H1822 C1799 0.950 . S
H1823 C1801 0.950 . S
C1824 C1825 1.349 . S
C1824 C1826 1.327 . S
C1824 H1849 0.950 . S
C1825 C1824 1.349 . S
C1825 C1841 1.349 . S
C1826 C1824 1.327 . S
C1826 C1845 1.429 . S
C1826 H1850 0.950 . S
C1827 C1844 1.574 . S
C1827 C1846 1.368 . S
C1827 H1851 0.949 . S
H1828 C1832 0.949 . S
C1829 C1830 1.349 . S
C1829 C1831 1.327 . S
C1829 H1852 0.950 . S
C1830 C1829 1.349 . S
C1830 C1842 1.349 . S
C1831 C1829 1.327 . S
C1831 C1847 1.429 . S
C1831 H1853 0.950 . S
C1832 H1828 0.949 . S
C1832 C1840 1.574 . S
C1832 C1848 1.368 . S
H1833 C1841 0.950 . S
H1834 C1839 0.950 . S
H1835 C1840 0.949 . S
H1836 C1842 0.950 . S
H1837 C1843 0.950 . S
H1838 C1844 0.949 . S
C1839 H1834 0.950 . S
C1839 C1841 1.327 . S
C1839 C1845 1.429 . S
C1840 C1832 1.574 . S
C1840 H1835 0.949 . S
C1840 C1846 1.368 . S
C1841 C1825 1.349 . S
C1841 H1833 0.950 . S
C1841 C1839 1.327 . S
C1842 C1830 1.349 . S
C1842 H1836 0.950 . S
C1842 C1843 1.327 . S
C1843 H1837 0.950 . S
C1843 C1842 1.327 . S
C1843 C1847 1.429 . S
C1844 C1827 1.574 . S
C1844 H1838 0.949 . S
C1844 C1848 1.368 . S
C1845 C1826 1.429 . S
C1845 C1839 1.429 . S
C1845 C1846 1.523 . S
C1846 C1827 1.368 . S
C1846 C1840 1.368 . S
C1846 C1845 1.523 . S
C1847 C1831 1.429 . S
C1847 C1843 1.429 . S
C1847 C1848 1.523 . S
C1848 C1832 1.368 . S
C1848 C1844 1.368 . S
C1848 C1847 1.523 . S
H1849 C1824 0.950 . S
H1850 C1826 0.950 . S
H1851 C1827 0.949 . S
H1852 C1829 0.950 . S
H1853 C1831 0.950 . S
C1854 C1855 1.349 . S
C1854 C1856 1.327 . S
C1854 H1879 0.950 . S
C1855 C1854 1.349 . S
C1855 C1871 1.349 . S
C1856 C1854 1.327 . S
C1856 C1875 1.429 . S
C1856 H1880 0.950 . S
C1857 C1874 1.574 . S
C1857 C1876 1.368 . S
C1857 H1881 0.949 . S
H1858 C1862 0.949 . S
C1859 C1860 1.349 . S
C1859 C1861 1.327 . S
C1859 H1882 0.950 . S
C1860 C1859 1.349 . S
C1860 C1872 1.349 . S
C1861 C1859 1.327 . S
C1861 C1877 1.429 . S
C1861 H1883 0.950 . S
C1862 H1858 0.949 . S
C1862 C1870 1.574 . S
C1862 C1878 1.368 . S
H1863 C1871 0.950 . S
H1864 C1869 0.950 . S
H1865 C1870 0.949 . S
H1866 C1872 0.950 . S
H1867 C1873 0.950 . S
H1868 C1874 0.949 . S
C1869 H1864 0.950 . S
C1869 C1871 1.327 . S
C1869 C1875 1.429 . S
C1870 C1862 1.574 . S
C1870 H1865 0.949 . S
C1870 C1876 1.368 . S
C1871 C1855 1.349 . S
C1871 H1863 0.950 . S
C1871 C1869 1.327 . S
C1872 C1860 1.349 . S
C1872 H1866 0.950 . S
C1872 C1873 1.327 . S
C1873 H1867 0.950 . S
C1873 C1872 1.327 . S
C1873 C1877 1.429 . S
C1874 C1857 1.574 . S
C1874 H1868 0.949 . S
C1874 C1878 1.368 . S
C1875 C1856 1.429 . S
C1875 C1869 1.429 . S
C1875 C1876 1.523 . S
C1876 C1857 1.368 . S
C1876 C1870 1.368 . S
C1876 C1875 1.523 . S
C1877 C1861 1.429 . S
C1877 C1873 1.429 . S
C1877 C1878 1.523 . S
C1878 C1862 1.368 . S
C1878 C1874 1.368 . S
C1878 C1877 1.523 . S
H1879 C1854 0.950 . S
H1880 C1856 0.950 . S
H1881 C1857 0.949 . S
H1882 C1859 0.950 . S
H1883 C1861 0.950 . S
C1884 C1885 1.349 . S
C1884 C1886 1.327 . S
C1884 H1909 0.950 . S
C1885 C1884 1.349 . S
C1885 C1901 1.349 . S
C1886 C1884 1.327 . S
C1886 C1905 1.429 . S
C1886 H1910 0.950 . S
C1887 C1904 1.574 . S
C1887 C1906 1.368 . S
C1887 H1911 0.949 . S
H1888 C1892 0.949 . S
C1889 C1890 1.349 . S
C1889 C1891 1.327 . S
C1889 H1912 0.950 . S
C1890 C1889 1.349 . S
C1890 C1902 1.349 . S
C1891 C1889 1.327 . S
C1891 C1907 1.429 . S
C1891 H1913 0.950 . S
C1892 H1888 0.949 . S
C1892 C1900 1.574 . S
C1892 C1908 1.368 . S
H1893 C1901 0.950 . S
H1894 C1899 0.950 . S
H1895 C1900 0.949 . S
H1896 C1902 0.950 . S
H1897 C1903 0.950 . S
H1898 C1904 0.949 . S
C1899 H1894 0.950 . S
C1899 C1901 1.327 . S
C1899 C1905 1.429 . S
C1900 C1892 1.574 . S
C1900 H1895 0.949 . S
C1900 C1906 1.368 . S
C1901 C1885 1.349 . S
C1901 H1893 0.950 . S
C1901 C1899 1.327 . S
C1902 C1890 1.349 . S
C1902 H1896 0.950 . S
C1902 C1903 1.327 . S
C1903 H1897 0.950 . S
C1903 C1902 1.327 . S
C1903 C1907 1.429 . S
C1904 C1887 1.574 . S
C1904 H1898 0.949 . S
C1904 C1908 1.368 . S
C1905 C1886 1.429 . S
C1905 C1899 1.429 . S
C1905 C1906 1.523 . S
C1906 C1887 1.368 . S
C1906 C1900 1.368 . S
C1906 C1905 1.523 . S
C1907 C1891 1.429 . S
C1907 C1903 1.429 . S
C1907 C1908 1.523 . S
C1908 C1892 1.368 . S
C1908 C1904 1.368 . S
C1908 C1907 1.523 . S
H1909 C1884 0.950 . S
H1910 C1886 0.950 . S
H1911 C1887 0.949 . S
H1912 C1889 0.950 . S
H1913 C1891 0.950 . S
C1914 C1915 1.349 . S
C1914 C1916 1.327 . S
C1914 H1939 0.950 . S
C1915 C1914 1.349 . S
C1915 C1931 1.349 . S
C1916 C1914 1.327 . S
C1916 C1935 1.429 . S
C1916 H1940 0.950 . S
C1917 C1934 1.574 . S
C1917 C1936 1.368 . S
C1917 H1941 0.949 . S
H1918 C1922 0.949 . S
C1919 C1920 1.349 . S
C1919 C1921 1.327 . S
C1919 H1942 0.950 . S
C1920 C1919 1.349 . S
C1920 C1932 1.349 . S
C1921 C1919 1.327 . S
C1921 C1937 1.429 . S
C1921 H1943 0.950 . S
C1922 H1918 0.949 . S
C1922 C1930 1.574 . S
C1922 C1938 1.368 . S
H1923 C1931 0.950 . S
H1924 C1929 0.950 . S
H1925 C1930 0.949 . S
H1926 C1932 0.950 . S
H1927 C1933 0.950 . S
H1928 C1934 0.949 . S
C1929 H1924 0.950 . S
C1929 C1931 1.327 . S
C1929 C1935 1.429 . S
C1930 C1922 1.574 . S
C1930 H1925 0.949 . S
C1930 C1936 1.368 . S
C1931 C1915 1.349 . S
C1931 H1923 0.950 . S
C1931 C1929 1.327 . S
C1932 C1920 1.349 . S
C1932 H1926 0.950 . S
C1932 C1933 1.327 . S
C1933 H1927 0.950 . S
C1933 C1932 1.327 . S
C1933 C1937 1.429 . S
C1934 C1917 1.574 . S
C1934 H1928 0.949 . S
C1934 C1938 1.368 . S
C1935 C1916 1.429 . S
C1935 C1929 1.429 . S
C1935 C1936 1.523 . S
C1936 C1917 1.368 . S
C1936 C1930 1.368 . S
C1936 C1935 1.523 . S
C1937 C1921 1.429 . S
C1937 C1933 1.429 . S
C1937 C1938 1.523 . S
C1938 C1922 1.368 . S
C1938 C1934 1.368 . S
C1938 C1937 1.523 . S
H1939 C1914 0.950 . S
H1940 C1916 0.950 . S
H1941 C1917 0.949 . S
H1942 C1919 0.950 . S
H1943 C1921 0.950 . S
C1944 C1945 1.349 . S
C1944 C1946 1.327 . S
C1944 H1969 0.950 . S
C1945 C1944 1.349 . S
C1945 C1961 1.349 . S
C1946 C1944 1.327 . S
C1946 C1965 1.429 . S
C1946 H1970 0.950 . S
C1947 C1964 1.574 . S
C1947 C1966 1.368 . S
C1947 H1971 0.949 . S
H1948 C1952 0.949 . S
C1949 C1950 1.349 . S
C1949 C1951 1.327 . S
C1949 H1972 0.950 . S
C1950 C1949 1.349 . S
C1950 C1962 1.349 . S
C1951 C1949 1.327 . S
C1951 C1967 1.429 . S
C1951 H1973 0.950 . S
C1952 H1948 0.949 . S
C1952 C1960 1.574 . S
C1952 C1968 1.368 . S
H1953 C1961 0.950 . S
H1954 C1959 0.950 . S
H1955 C1960 0.949 . S
H1956 C1962 0.950 . S
H1957 C1963 0.950 . S
H1958 C1964 0.949 . S
C1959 H1954 0.950 . S
C1959 C1961 1.327 . S
C1959 C1965 1.429 . S
C1960 C1952 1.574 . S
C1960 H1955 0.949 . S
C1960 C1966 1.368 . S
C1961 C1945 1.349 . S
C1961 H1953 0.950 . S
C1961 C1959 1.327 . S
C1962 C1950 1.349 . S
C1962 H1956 0.950 . S
C1962 C1963 1.327 . S
C1963 H1957 0.950 . S
C1963 C1962 1.327 . S
C1963 C1967 1.429 . S
C1964 C1947 1.574 . S
C1964 H1958 0.949 . S
C1964 C1968 1.368 . S
C1965 C1946 1.429 . S
C1965 C1959 1.429 . S
C1965 C1966 1.523 . S
C1966 C1947 1.368 . S
C1966 C1960 1.368 . S
C1966 C1965 1.523 . S
C1967 C1951 1.429 . S
C1967 C1963 1.429 . S
C1967 C1968 1.523 . S
C1968 C1952 1.368 . S
C1968 C1964 1.368 . S
C1968 C1967 1.523 . S
H1969 C1944 0.950 . S
H1970 C1946 0.950 . S
H1971 C1947 0.949 . S
H1972 C1949 0.950 . S
H1973 C1951 0.950 . S
C1974 C1975 1.349 . S
C1974 C1976 1.327 . S
C1974 H1999 0.950 . S
C1975 C1974 1.349 . S
C1975 C1991 1.349 . S
C1976 C1974 1.327 . S
C1976 C1995 1.429 . S
C1976 H2000 0.950 . S
C1977 C1994 1.574 . S
C1977 C1996 1.368 1_655 S
C1977 H2001 0.949 . S
H1978 C1982 0.949 . S
C1979 C1980 1.349 . S
C1979 C1981 1.327 . S
C1979 H2002 0.950 . S
C1980 C1979 1.349 . S
C1980 C1992 1.349 1_655 S
C1981 C1979 1.327 . S
C1981 C1997 1.429 . S
C1981 H2003 0.950 . S
C1982 H1978 0.949 . S
C1982 C1990 1.574 . S
C1982 C1998 1.368 . S
H1983 C1991 0.950 1_655 S
H1984 C1989 0.986 . S
H1985 C1990 0.949 . S
H1986 C1992 0.950 . S
H1987 C1993 0.950 . S
H1988 C1994 0.949 . S
C1989 H1984 0.986 . S
C1989 C1991 1.309 1_655 S
C1989 C1995 1.412 1_655 S
C1990 C1982 1.574 . S
C1990 H1985 0.949 . S
C1990 C1996 1.368 . S
C1991 C1975 1.349 . S
C1991 H1983 0.950 1_455 S
C1991 C1989 1.309 1_455 S
C1992 C1980 1.349 1_455 S
C1992 H1986 0.950 . S
C1992 C1993 1.327 . S
C1993 H1987 0.950 . S
C1993 C1992 1.327 . S
C1993 C1997 1.429 1_455 S
C1994 C1977 1.574 . S
C1994 H1988 0.949 . S
C1994 C1998 1.368 1_655 S
C1995 C1976 1.429 . S
C1995 C1989 1.412 1_455 S
C1995 C1996 1.523 . S
C1996 C1977 1.368 1_455 S
C1996 C1990 1.368 . S
C1996 C1995 1.523 . S
C1997 C1981 1.429 . S
C1997 C1993 1.429 1_655 S
C1997 C1998 1.523 1_655 S
C1998 C1982 1.368 . S
C1998 C1994 1.368 1_455 S
C1998 C1997 1.523 1_455 S
H1999 C1974 0.950 . S
H2000 C1976 0.950 . S
H2001 C1977 0.949 . S
H2002 C1979 0.950 . S
H2003 C1981 0.950 . S
C2004 C2005 1.349 . S
C2004 C2006 1.327 . S
C2004 H2029 0.950 . S
C2005 C2004 1.349 . S
C2005 C2021 1.349 . S
C2006 C2004 1.327 . S
C2006 C2025 1.429 . S
C2006 H2030 0.950 . S
C2007 C2024 1.574 . S
C2007 C2026 1.368 . S
C2007 H2031 0.949 . S
H2008 C2012 0.949 . S
C2009 C2010 1.349 . S
C2009 C2011 1.327 . S
C2009 H2032 0.950 . S
C2010 C2009 1.349 . S
C2010 C2022 1.349 . S
C2011 C2009 1.327 . S
C2011 C2027 1.429 . S
C2011 H2033 0.950 . S
C2012 H2008 0.949 . S
C2012 C2020 1.574 . S
C2012 C2028 1.368 . S
H2013 C2021 0.950 . S
H2014 C2019 0.950 . S
H2015 C2020 0.949 . S
H2016 C2022 0.950 . S
H2017 C2023 0.950 . S
H2018 C2024 0.949 . S
C2019 H2014 0.950 . S
C2019 C2021 1.327 . S
C2019 C2025 1.429 . S
C2020 C2012 1.574 . S
C2020 H2015 0.949 . S
C2020 C2026 1.368 . S
C2021 C2005 1.349 . S
C2021 H2013 0.950 . S
C2021 C2019 1.327 . S
C2022 C2010 1.349 . S
C2022 H2016 0.950 . S
C2022 C2023 1.327 . S
C2023 H2017 0.950 . S
C2023 C2022 1.327 . S
C2023 C2027 1.429 . S
C2024 C2007 1.574 . S
C2024 H2018 0.949 . S
C2024 C2028 1.368 . S
C2025 C2006 1.429 . S
C2025 C2019 1.429 . S
C2025 C2026 1.523 . S
C2026 C2007 1.368 . S
C2026 C2020 1.368 . S
C2026 C2025 1.523 . S
C2027 C2011 1.429 . S
C2027 C2023 1.429 . S
C2027 C2028 1.523 . S
C2028 C2012 1.368 . S
C2028 C2024 1.368 . S
C2028 C2027 1.523 . S
H2029 C2004 0.950 . S
H2030 C2006 0.950 . S
H2031 C2007 0.949 . S
H2032 C2009 0.950 . S
H2033 C2011 0.950 . S
C2034 C2035 1.349 . S
C2034 C2036 1.327 . S
C2034 H2059 0.950 . S
C2035 C2034 1.349 . S
C2035 C2051 1.349 . S
C2036 C2034 1.327 . S
C2036 C2055 1.429 . S
C2036 H2060 0.950 . S
C2037 C2054 1.574 . S
C2037 C2056 1.368 . S
C2037 H2061 0.949 . S
H2038 C2042 0.949 . S
C2039 C2040 1.349 . S
C2039 C2041 1.327 . S
C2039 H2062 0.950 . S
C2040 C2039 1.349 . S
C2040 C2052 1.349 . S
C2041 C2039 1.327 . S
C2041 C2057 1.429 . S
C2041 H2063 0.950 . S
C2042 H2038 0.949 . S
C2042 C2050 1.574 . S
C2042 C2058 1.368 . S
H2043 C2051 0.950 . S
H2044 C2049 0.950 . S
H2045 C2050 0.949 . S
H2046 C2052 0.950 . S
H2047 C2053 0.950 . S
H2048 C2054 0.949 . S
C2049 H2044 0.950 . S
C2049 C2051 1.327 . S
C2049 C2055 1.429 . S
C2050 C2042 1.574 . S
C2050 H2045 0.949 . S
C2050 C2056 1.368 . S
C2051 C2035 1.349 . S
C2051 H2043 0.950 . S
C2051 C2049 1.327 . S
C2052 C2040 1.349 . S
C2052 H2046 0.950 . S
C2052 C2053 1.327 . S
C2053 H2047 0.950 . S
C2053 C2052 1.327 . S
C2053 C2057 1.429 . S
C2054 C2037 1.574 . S
C2054 H2048 0.949 . S
C2054 C2058 1.368 . S
C2055 C2036 1.429 . S
C2055 C2049 1.429 . S
C2055 C2056 1.523 . S
C2056 C2037 1.368 . S
C2056 C2050 1.368 . S
C2056 C2055 1.523 . S
C2057 C2041 1.429 . S
C2057 C2053 1.429 . S
C2057 C2058 1.523 . S
C2058 C2042 1.368 . S
C2058 C2054 1.368 . S
C2058 C2057 1.523 . S
H2059 C2034 0.950 . S
H2060 C2036 0.950 . S
H2061 C2037 0.949 . S
H2062 C2039 0.950 . S
H2063 C2041 0.950 . S
C2064 C2065 1.349 . S
C2064 C2066 1.327 . S
C2064 H2089 0.950 . S
C2065 C2064 1.349 . S
C2065 C2081 1.349 . S
C2066 C2064 1.327 . S
C2066 C2085 1.429 . S
C2066 H2090 0.950 . S
C2067 C2084 1.574 . S
C2067 C2086 1.368 . S
C2067 H2091 0.949 . S
H2068 C2072 0.949 . S
C2069 C2070 1.349 . S
C2069 C2071 1.327 . S
C2069 H2092 0.950 . S
C2070 C2069 1.349 . S
C2070 C2082 1.349 . S
C2071 C2069 1.327 . S
C2071 C2087 1.429 . S
C2071 H2093 0.950 . S
C2072 H2068 0.949 . S
C2072 C2080 1.574 . S
C2072 C2088 1.368 . S
H2073 C2081 0.950 . S
H2074 C2079 0.950 . S
H2075 C2080 0.949 . S
H2076 C2082 0.950 . S
H2077 C2083 0.950 . S
H2078 C2084 0.949 . S
C2079 H2074 0.950 . S
C2079 C2081 1.327 . S
C2079 C2085 1.429 . S
C2080 C2072 1.574 . S
C2080 H2075 0.949 . S
C2080 C2086 1.368 . S
C2081 C2065 1.349 . S
C2081 H2073 0.950 . S
C2081 C2079 1.327 . S
C2082 C2070 1.349 . S
C2082 H2076 0.950 . S
C2082 C2083 1.327 . S
C2083 H2077 0.950 . S
C2083 C2082 1.327 . S
C2083 C2087 1.429 . S
C2084 C2067 1.574 . S
C2084 H2078 0.949 . S
C2084 C2088 1.368 . S
C2085 C2066 1.429 . S
C2085 C2079 1.429 . S
C2085 C2086 1.523 . S
C2086 C2067 1.368 . S
C2086 C2080 1.368 . S
C2086 C2085 1.523 . S
C2087 C2071 1.429 . S
C2087 C2083 1.429 . S
C2087 C2088 1.523 . S
C2088 C2072 1.368 . S
C2088 C2084 1.368 . S
C2088 C2087 1.523 . S
H2089 C2064 0.950 . S
H2090 C2066 0.950 . S
H2091 C2067 0.949 . S
H2092 C2069 0.950 . S
H2093 C2071 0.950 . S
C2094 C2095 1.349 . S
C2094 C2096 1.327 . S
C2094 H2119 0.950 . S
C2095 C2094 1.349 . S
C2095 C2111 1.349 . S
C2096 C2094 1.327 . S
C2096 C2115 1.429 . S
C2096 H2120 0.950 . S
C2097 C2114 1.574 . S
C2097 C2116 1.368 . S
C2097 H2121 0.949 . S
H2098 C2102 0.949 . S
C2099 C2100 1.349 . S
C2099 C2101 1.327 . S
C2099 H2122 0.950 . S
C2100 C2099 1.349 . S
C2100 C2112 1.349 . S
C2101 C2099 1.327 . S
C2101 C2117 1.429 . S
C2101 H2123 0.950 . S
C2102 H2098 0.949 . S
C2102 C2110 1.574 . S
C2102 C2118 1.368 . S
H2103 C2111 0.950 . S
H2104 C2109 0.950 . S
H2105 C2110 0.949 . S
H2106 C2112 0.950 . S
H2107 C2113 0.950 . S
H2108 C2114 0.949 . S
C2109 H2104 0.950 . S
C2109 C2111 1.327 . S
C2109 C2115 1.429 . S
C2110 C2102 1.574 . S
C2110 H2105 0.949 . S
C2110 C2116 1.368 . S
C2111 C2095 1.349 . S
C2111 H2103 0.950 . S
C2111 C2109 1.327 . S
C2112 C2100 1.349 . S
C2112 H2106 0.950 . S
C2112 C2113 1.327 . S
C2113 H2107 0.950 . S
C2113 C2112 1.327 . S
C2113 C2117 1.429 . S
C2114 C2097 1.574 . S
C2114 H2108 0.949 . S
C2114 C2118 1.368 . S
C2115 C2096 1.429 . S
C2115 C2109 1.429 . S
C2115 C2116 1.523 . S
C2116 C2097 1.368 . S
C2116 C2110 1.368 . S
C2116 C2115 1.523 . S
C2117 C2101 1.429 . S
C2117 C2113 1.429 . S
C2117 C2118 1.523 . S
C2118 C2102 1.368 . S
C2118 C2114 1.368 . S
C2118 C2117 1.523 . S
H2119 C2094 0.950 . S
H2120 C2096 0.950 . S
H2121 C2097 0.949 . S
H2122 C2099 0.950 . S
H2123 C2101 0.950 . S
C2124 C2125 1.349 1_545 S
C2124 C2126 1.327 . S
C2124 H2149 0.950 . S
C2125 C2124 1.349 1_565 S
C2125 C2141 1.349 . S
C2126 C2124 1.327 . S
C2126 C2145 1.429 1_545 S
C2126 H2150 0.950 . S
C2127 C2144 1.574 . S
C2127 C2146 1.368 . S
C2127 H2151 0.949 . S
H2128 C2132 0.949 . S
C2129 C2130 1.386 . S
C2129 C2131 1.309 1_545 S
C2129 H2152 0.932 1_545 S
C2130 C2129 1.386 . S
C2130 C2142 1.349 . S
C2131 C2129 1.309 1_565 S
C2131 C2147 1.429 1_565 S
C2131 H2153 0.950 . S
C2132 H2128 0.949 . S
C2132 C2140 1.574 . S
C2132 C2148 1.368 . S
H2133 C2141 0.950 . S
H2134 C2139 0.950 . S
H2135 C2140 0.949 . S
H2136 C2142 0.950 . S
H2137 C2143 0.950 . S
H2138 C2144 0.949 . S
C2139 H2134 0.950 . S
C2139 C2141 1.327 . S
C2139 C2145 1.429 . S
C2140 C2132 1.574 . S
C2140 H2135 0.949 . S
C2140 C2146 1.368 1_545 S
C2141 C2125 1.349 . S
C2141 H2133 0.950 . S
C2141 C2139 1.327 . S
C2142 C2130 1.349 . S
C2142 H2136 0.950 . S
C2142 C2143 1.327 . S
C2143 H2137 0.950 . S
C2143 C2142 1.327 . S
C2143 C2147 1.429 . S
C2144 C2127 1.574 . S
C2144 H2138 0.949 . S
C2144 C2148 1.368 1_565 S
C2145 C2126 1.429 1_565 S
C2145 C2139 1.429 . S
C2145 C2146 1.523 . S
C2146 C2127 1.368 . S
C2146 C2140 1.368 1_565 S
C2146 C2145 1.523 . S
C2147 C2131 1.429 1_545 S
C2147 C2143 1.429 . S
C2147 C2148 1.523 . S
C2148 C2132 1.368 . S
C2148 C2144 1.368 1_545 S
C2148 C2147 1.523 . S
H2149 C2124 0.950 . S
H2150 C2126 0.950 . S
H2151 C2127 0.949 . S
H2152 C2129 0.932 1_565 S
H2153 C2131 0.950 . S
C2154 C2155 1.349 1_556 S
C2154 C2156 1.327 . S
C2154 H2179 0.950 . S
C2155 C2154 1.349 1_554 S
C2155 C2171 1.349 . S
C2156 C2154 1.327 . S
C2156 C2175 1.429 1_556 S
C2156 H2180 0.950 . S
C2157 C2174 1.574 . S
C2157 C2176 1.368 . S
C2157 H2181 0.949 . S
H2158 C2162 0.949 1_556 S
C2159 C2160 1.349 . S
C2159 C2161 1.327 . S
C2159 H2182 0.950 . S
C2160 C2159 1.349 . S
C2160 C2172 1.349 . S
C2161 C2159 1.327 . S
C2161 C2177 1.429 . S
C2161 H2183 0.950 . S
C2162 H2158 0.949 1_554 S
C2162 C2170 1.574 1_554 S
C2162 C2178 1.368 . S
H2163 C2171 0.950 . S
H2164 C2169 0.950 . S
H2165 C2170 0.949 . S
H2166 C2172 0.966 . S
H2167 C2173 0.950 1_556 S
H2168 C2174 0.949 . S
C2169 H2164 0.950 . S
C2169 C2171 1.327 . S
C2169 C2175 1.429 . S
C2170 C2162 1.574 1_556 S
C2170 H2165 0.949 . S
C2170 C2176 1.368 1_556 S
C2171 C2155 1.349 . S
C2171 H2163 0.950 . S
C2171 C2169 1.327 . S
C2172 C2160 1.349 . S
C2172 H2166 0.966 . S
C2172 C2173 1.327 . S
C2173 H2167 0.950 1_554 S
C2173 C2172 1.327 . S
C2173 C2177 1.429 . S
C2174 C2157 1.574 . S
C2174 H2168 0.949 . S
C2174 C2178 1.368 . S
C2175 C2156 1.429 1_554 S
C2175 C2169 1.429 . S
C2175 C2176 1.523 . S
C2176 C2157 1.368 . S
C2176 C2170 1.368 1_554 S
C2176 C2175 1.523 . S
C2177 C2161 1.429 . S
C2177 C2173 1.429 . S
C2177 C2178 1.523 . S
C2178 C2162 1.368 . S
C2178 C2174 1.368 . S
C2178 C2177 1.523 . S
H2179 C2154 0.950 . S
H2180 C2156 0.950 . S
H2181 C2157 0.949 . S
H2182 C2159 0.950 . S
H2183 C2161 0.950 . S
C2184 C2185 1.349 . S
C2184 C2186 1.327 . S
C2184 H2209 0.950 . S
C2185 C2184 1.349 . S
C2185 C2201 1.349 . S
C2186 C2184 1.327 . S
C2186 C2205 1.429 . S
C2186 H2210 0.950 . S
C2187 C2204 1.574 . S
C2187 C2206 1.368 . S
C2187 H2211 0.949 . S
H2188 C2192 0.949 . S
C2189 C2190 1.349 . S
C2189 C2191 1.327 . S
C2189 H2212 0.950 . S
C2190 C2189 1.349 . S
C2190 C2202 1.349 . S
C2191 C2189 1.327 . S
C2191 C2207 1.429 . S
C2191 H2213 0.950 . S
C2192 H2188 0.949 . S
C2192 C2200 1.574 . S
C2192 C2208 1.368 . S
H2193 C2201 0.950 . S
H2194 C2199 0.950 . S
H2195 C2200 0.949 . S
H2196 C2202 0.950 . S
H2197 C2203 0.950 . S
H2198 C2204 0.949 . S
C2199 H2194 0.950 . S
C2199 C2201 1.327 . S
C2199 C2205 1.429 . S
C2200 C2192 1.574 . S
C2200 H2195 0.949 . S
C2200 C2206 1.368 . S
C2201 C2185 1.349 . S
C2201 H2193 0.950 . S
C2201 C2199 1.327 . S
C2202 C2190 1.349 . S
C2202 H2196 0.950 . S
C2202 C2203 1.327 . S
C2203 H2197 0.950 . S
C2203 C2202 1.327 . S
C2203 C2207 1.429 . S
C2204 C2187 1.574 . S
C2204 H2198 0.949 . S
C2204 C2208 1.368 . S
C2205 C2186 1.429 . S
C2205 C2199 1.429 . S
C2205 C2206 1.523 . S
C2206 C2187 1.368 . S
C2206 C2200 1.368 . S
C2206 C2205 1.523 . S
C2207 C2191 1.429 . S
C2207 C2203 1.429 . S
C2207 C2208 1.523 . S
C2208 C2192 1.368 . S
C2208 C2204 1.368 . S
C2208 C2207 1.523 . S
H2209 C2184 0.950 . S
H2210 C2186 0.950 . S
H2211 C2187 0.949 . S
H2212 C2189 0.950 . S
H2213 C2191 0.950 . S
C2214 C2215 1.349 . S
C2214 C2216 1.327 . S
C2214 H2239 0.950 . S
C2215 C2214 1.349 . S
C2215 C2231 1.349 . S
C2216 C2214 1.327 . S
C2216 C2235 1.429 . S
C2216 H2240 0.950 . S
C2217 C2234 1.574 . S
C2217 C2236 1.368 . S
C2217 H2241 0.949 . S
H2218 C2222 0.949 . S
C2219 C2220 1.349 . S
C2219 C2221 1.327 . S
C2219 H2242 0.950 . S
C2220 C2219 1.349 . S
C2220 C2232 1.349 . S
C2221 C2219 1.327 . S
C2221 C2237 1.429 . S
C2221 H2243 0.950 . S
C2222 H2218 0.949 . S
C2222 C2230 1.574 . S
C2222 C2238 1.368 . S
H2223 C2231 0.950 . S
H2224 C2229 0.950 . S
H2225 C2230 0.949 . S
H2226 C2232 0.950 . S
H2227 C2233 0.950 . S
H2228 C2234 0.949 . S
C2229 H2224 0.950 . S
C2229 C2231 1.327 . S
C2229 C2235 1.429 . S
C2230 C2222 1.574 . S
C2230 H2225 0.949 . S
C2230 C2236 1.368 . S
C2231 C2215 1.349 . S
C2231 H2223 0.950 . S
C2231 C2229 1.327 . S
C2232 C2220 1.349 . S
C2232 H2226 0.950 . S
C2232 C2233 1.327 . S
C2233 H2227 0.950 . S
C2233 C2232 1.327 . S
C2233 C2237 1.429 . S
C2234 C2217 1.574 . S
C2234 H2228 0.949 . S
C2234 C2238 1.368 . S
C2235 C2216 1.429 . S
C2235 C2229 1.429 . S
C2235 C2236 1.523 . S
C2236 C2217 1.368 . S
C2236 C2230 1.368 . S
C2236 C2235 1.523 . S
C2237 C2221 1.429 . S
C2237 C2233 1.429 . S
C2237 C2238 1.523 . S
C2238 C2222 1.368 . S
C2238 C2234 1.368 . S
C2238 C2237 1.523 . S
H2239 C2214 0.950 . S
H2240 C2216 0.950 . S
H2241 C2217 0.949 . S
H2242 C2219 0.950 . S
H2243 C2221 0.950 . S
C2244 C2245 1.349 . S
C2244 C2246 1.327 . S
C2244 H2269 0.950 . S
C2245 C2244 1.349 . S
C2245 C2261 1.349 . S
C2246 C2244 1.327 . S
C2246 C2265 1.429 . S
C2246 H2270 0.950 . S
C2247 C2264 1.574 . S
C2247 C2266 1.368 . S
C2247 H2271 0.949 . S
H2248 C2252 0.949 . S
C2249 C2250 1.349 . S
C2249 C2251 1.327 . S
C2249 H2272 0.950 . S
C2250 C2249 1.349 . S
C2250 C2262 1.349 . S
C2251 C2249 1.327 . S
C2251 C2267 1.429 . S
C2251 H2273 0.950 . S
C2252 H2248 0.949 . S
C2252 C2260 1.574 . S
C2252 C2268 1.368 . S
H2253 C2261 0.950 . S
H2254 C2259 0.950 . S
H2255 C2260 0.949 . S
H2256 C2262 0.950 . S
H2257 C2263 0.950 . S
H2258 C2264 0.949 . S
C2259 H2254 0.950 . S
C2259 C2261 1.327 . S
C2259 C2265 1.429 . S
C2260 C2252 1.574 . S
C2260 H2255 0.949 . S
C2260 C2266 1.368 . S
C2261 C2245 1.349 . S
C2261 H2253 0.950 . S
C2261 C2259 1.327 . S
C2262 C2250 1.349 . S
C2262 H2256 0.950 . S
C2262 C2263 1.327 . S
C2263 H2257 0.950 . S
C2263 C2262 1.327 . S
C2263 C2267 1.429 . S
C2264 C2247 1.574 . S
C2264 H2258 0.949 . S
C2264 C2268 1.368 . S
C2265 C2246 1.429 . S
C2265 C2259 1.429 . S
C2265 C2266 1.523 . S
C2266 C2247 1.368 . S
C2266 C2260 1.368 . S
C2266 C2265 1.523 . S
C2267 C2251 1.429 . S
C2267 C2263 1.429 . S
C2267 C2268 1.523 . S
C2268 C2252 1.368 . S
C2268 C2264 1.368 . S
C2268 C2267 1.523 . S
H2269 C2244 0.950 . S
H2270 C2246 0.950 . S
H2271 C2247 0.949 . S
H2272 C2249 0.950 . S
H2273 C2251 0.950 . S
C2274 C2275 1.349 . S
C2274 C2276 1.327 . S
C2274 H2299 0.950 . S
C2275 C2274 1.349 . S
C2275 C2291 1.349 . S
C2276 C2274 1.327 . S
C2276 C2295 1.429 . S
C2276 H2300 0.950 . S
C2277 C2294 1.574 . S
C2277 C2296 1.368 . S
C2277 H2301 0.949 . S
H2278 C2282 0.949 . S
C2279 C2280 1.349 . S
C2279 C2281 1.327 . S
C2279 H2302 0.950 . S
C2280 C2279 1.349 . S
C2280 C2292 1.349 . S
C2281 C2279 1.327 . S
C2281 C2297 1.429 . S
C2281 H2303 0.950 . S
C2282 H2278 0.949 . S
C2282 C2290 1.574 . S
C2282 C2298 1.368 . S
H2283 C2291 0.950 . S
H2284 C2289 0.950 . S
H2285 C2290 0.949 . S
H2286 C2292 0.950 . S
H2287 C2293 0.950 . S
H2288 C2294 0.949 . S
C2289 H2284 0.950 . S
C2289 C2291 1.327 . S
C2289 C2295 1.429 . S
C2290 C2282 1.574 . S
C2290 H2285 0.949 . S
C2290 C2296 1.368 . S
C2291 C2275 1.349 . S
C2291 H2283 0.950 . S
C2291 C2289 1.327 . S
C2292 C2280 1.349 . S
C2292 H2286 0.950 . S
C2292 C2293 1.327 . S
C2293 H2287 0.950 . S
C2293 C2292 1.327 . S
C2293 C2297 1.429 . S
C2294 C2277 1.574 . S
C2294 H2288 0.949 . S
C2294 C2298 1.368 . S
C2295 C2276 1.429 . S
C2295 C2289 1.429 . S
C2295 C2296 1.523 . S
C2296 C2277 1.368 . S
C2296 C2290 1.368 . S
C2296 C2295 1.523 . S
C2297 C2281 1.429 . S
C2297 C2293 1.429 . S
C2297 C2298 1.523 . S
C2298 C2282 1.368 . S
C2298 C2294 1.368 . S
C2298 C2297 1.523 . S
H2299 C2274 0.950 . S
H2300 C2276 0.950 . S
H2301 C2277 0.949 . S
H2302 C2279 0.950 . S
H2303 C2281 0.950 . S
C2304 C2305 1.349 . S
C2304 C2306 1.327 . S
C2304 H2329 0.950 . S
C2305 C2304 1.349 . S
C2305 C2321 1.349 . S
C2306 C2304 1.327 . S
C2306 C2325 1.429 . S
C2306 H2330 0.950 . S
C2307 C2324 1.574 . S
C2307 C2326 1.368 . S
C2307 H2331 0.949 . S
H2308 C2312 0.949 . S
C2309 C2310 1.349 . S
C2309 C2311 1.327 . S
C2309 H2332 0.950 . S
C2310 C2309 1.349 . S
C2310 C2322 1.349 . S
C2311 C2309 1.327 . S
C2311 C2327 1.429 . S
C2311 H2333 0.950 . S
C2312 H2308 0.949 . S
C2312 C2320 1.574 . S
C2312 C2328 1.368 . S
H2313 C2321 0.950 . S
H2314 C2319 0.950 . S
H2315 C2320 0.949 . S
H2316 C2322 0.950 . S
H2317 C2323 0.950 . S
H2318 C2324 0.949 . S
C2319 H2314 0.950 . S
C2319 C2321 1.327 . S
C2319 C2325 1.429 . S
C2320 C2312 1.574 . S
C2320 H2315 0.949 . S
C2320 C2326 1.368 . S
C2321 C2305 1.349 . S
C2321 H2313 0.950 . S
C2321 C2319 1.327 . S
C2322 C2310 1.349 . S
C2322 H2316 0.950 . S
C2322 C2323 1.327 . S
C2323 H2317 0.950 . S
C2323 C2322 1.327 . S
C2323 C2327 1.429 . S
C2324 C2307 1.574 . S
C2324 H2318 0.949 . S
C2324 C2328 1.368 . S
C2325 C2306 1.429 . S
C2325 C2319 1.429 . S
C2325 C2326 1.523 . S
C2326 C2307 1.368 . S
C2326 C2320 1.368 . S
C2326 C2325 1.523 . S
C2327 C2311 1.429 . S
C2327 C2323 1.429 . S
C2327 C2328 1.523 . S
C2328 C2312 1.368 . S
C2328 C2324 1.368 . S
C2328 C2327 1.523 . S
H2329 C2304 0.950 . S
H2330 C2306 0.950 . S
H2331 C2307 0.949 . S
H2332 C2309 0.950 . S
H2333 C2311 0.950 . S
C2334 C2335 1.349 . S
C2334 C2336 1.327 . S
C2334 H2359 0.950 . S
C2335 C2334 1.349 . S
C2335 C2351 1.349 . S
C2336 C2334 1.327 . S
C2336 C2355 1.429 . S
C2336 H2360 0.950 . S
C2337 C2354 1.574 . S
C2337 C2356 1.368 . S
C2337 H2361 0.949 . S
H2338 C2342 0.949 . S
C2339 C2340 1.349 . S
C2339 C2341 1.327 . S
C2339 H2362 0.950 . S
C2340 C2339 1.349 . S
C2340 C2352 1.349 . S
C2341 C2339 1.327 . S
C2341 C2357 1.429 . S
C2341 H2363 0.950 . S
C2342 H2338 0.949 . S
C2342 C2350 1.574 . S
C2342 C2358 1.368 . S
H2343 C2351 0.950 . S
H2344 C2349 0.950 . S
H2345 C2350 0.949 . S
H2346 C2352 0.950 . S
H2347 C2353 0.950 . S
H2348 C2354 0.949 . S
C2349 H2344 0.950 . S
C2349 C2351 1.327 . S
C2349 C2355 1.429 . S
C2350 C2342 1.574 . S
C2350 H2345 0.949 . S
C2350 C2356 1.368 . S
C2351 C2335 1.349 . S
C2351 H2343 0.950 . S
C2351 C2349 1.327 . S
C2352 C2340 1.349 . S
C2352 H2346 0.950 . S
C2352 C2353 1.327 . S
C2353 H2347 0.950 . S
C2353 C2352 1.327 . S
C2353 C2357 1.429 . S
C2354 C2337 1.574 . S
C2354 H2348 0.949 . S
C2354 C2358 1.368 . S
C2355 C2336 1.429 . S
C2355 C2349 1.429 . S
C2355 C2356 1.523 . S
C2356 C2337 1.368 . S
C2356 C2350 1.368 . S
C2356 C2355 1.523 . S
C2357 C2341 1.429 . S
C2357 C2353 1.429 . S
C2357 C2358 1.523 . S
C2358 C2342 1.368 . S
C2358 C2354 1.368 . S
C2358 C2357 1.523 . S
H2359 C2334 0.950 . S
H2360 C2336 0.950 . S
H2361 C2337 0.949 . S
H2362 C2339 0.950 . S
H2363 C2341 0.950 . S
C2364 C2365 1.349 . S
C2364 C2366 1.327 . S
C2364 H2389 0.950 . S
C2365 C2364 1.349 . S
C2365 C2381 1.349 . S
C2366 C2364 1.327 . S
C2366 C2385 1.429 . S
C2366 H2390 0.950 . S
C2367 C2384 1.574 . S
C2367 C2386 1.368 . S
C2367 H2391 0.949 . S
H2368 C2372 0.949 . S
C2369 C2370 1.349 . S
C2369 C2371 1.327 . S
C2369 H2392 0.950 . S
C2370 C2369 1.349 . S
C2370 C2382 1.349 . S
C2371 C2369 1.327 . S
C2371 C2387 1.429 . S
C2371 H2393 0.950 . S
C2372 H2368 0.949 . S
C2372 C2380 1.574 . S
C2372 C2388 1.368 . S
H2373 C2381 0.950 . S
H2374 C2379 0.950 . S
H2375 C2380 0.949 . S
H2376 C2382 0.950 . S
H2377 C2383 0.950 . S
H2378 C2384 0.949 . S
C2379 H2374 0.950 . S
C2379 C2381 1.327 . S
C2379 C2385 1.429 . S
C2380 C2372 1.574 . S
C2380 H2375 0.949 . S
C2380 C2386 1.368 . S
C2381 C2365 1.349 . S
C2381 H2373 0.950 . S
C2381 C2379 1.327 . S
C2382 C2370 1.349 . S
C2382 H2376 0.950 . S
C2382 C2383 1.327 . S
C2383 H2377 0.950 . S
C2383 C2382 1.327 . S
C2383 C2387 1.429 . S
C2384 C2367 1.574 . S
C2384 H2378 0.949 . S
C2384 C2388 1.368 . S
C2385 C2366 1.429 . S
C2385 C2379 1.429 . S
C2385 C2386 1.523 . S
C2386 C2367 1.368 . S
C2386 C2380 1.368 . S
C2386 C2385 1.523 . S
C2387 C2371 1.429 . S
C2387 C2383 1.429 . S
C2387 C2388 1.523 . S
C2388 C2372 1.368 . S
C2388 C2384 1.368 . S
C2388 C2387 1.523 . S
H2389 C2364 0.950 . S
H2390 C2366 0.950 . S
H2391 C2367 0.949 . S
H2392 C2369 0.950 . S
H2393 C2371 0.950 . S
C2394 C2395 1.349 . S
C2394 C2396 1.327 . S
C2394 H2419 0.950 . S
C2395 C2394 1.349 . S
C2395 C2411 1.349 . S
C2396 C2394 1.327 . S
C2396 C2415 1.429 . S
C2396 H2420 0.950 . S
C2397 C2414 1.574 . S
C2397 C2416 1.368 . S
C2397 H2421 0.949 . S
H2398 C2402 0.949 . S
C2399 C2400 1.349 . S
C2399 C2401 1.327 . S
C2399 H2422 0.950 . S
C2400 C2399 1.349 . S
C2400 C2412 1.349 . S
C2401 C2399 1.327 . S
C2401 C2417 1.429 . S
C2401 H2423 0.950 . S
C2402 H2398 0.949 . S
C2402 C2410 1.574 . S
C2402 C2418 1.368 . S
H2403 C2411 0.950 . S
H2404 C2409 0.950 . S
H2405 C2410 0.949 . S
H2406 C2412 0.950 . S
H2407 C2413 0.950 . S
H2408 C2414 0.949 . S
C2409 H2404 0.950 . S
C2409 C2411 1.327 . S
C2409 C2415 1.429 . S
C2410 C2402 1.574 . S
C2410 H2405 0.949 . S
C2410 C2416 1.368 . S
C2411 C2395 1.349 . S
C2411 H2403 0.950 . S
C2411 C2409 1.327 . S
C2412 C2400 1.349 . S
C2412 H2406 0.950 . S
C2412 C2413 1.327 . S
C2413 H2407 0.950 . S
C2413 C2412 1.327 . S
C2413 C2417 1.429 . S
C2414 C2397 1.574 . S
C2414 H2408 0.949 . S
C2414 C2418 1.368 . S
C2415 C2396 1.429 . S
C2415 C2409 1.429 . S
C2415 C2416 1.523 . S
C2416 C2397 1.368 . S
C2416 C2410 1.368 . S
C2416 C2415 1.523 . S
C2417 C2401 1.429 . S
C2417 C2413 1.429 . S
C2417 C2418 1.523 . S
C2418 C2402 1.368 . S
C2418 C2414 1.368 . S
C2418 C2417 1.523 . S
H2419 C2394 0.950 . S
H2420 C2396 0.950 . S
H2421 C2397 0.949 . S
H2422 C2399 0.950 . S
H2423 C2401 0.950 . S
C2424 C2425 1.349 . S
C2424 C2426 1.327 . S
C2424 H2449 0.950 . S
C2425 C2424 1.349 . S
C2425 C2441 1.349 . S
C2426 C2424 1.327 . S
C2426 C2445 1.429 . S
C2426 H2450 0.950 . S
C2427 C2444 1.574 . S
C2427 C2446 1.368 . S
C2427 H2451 0.949 . S
H2428 C2432 0.949 . S
C2429 C2430 1.349 . S
C2429 C2431 1.327 . S
C2429 H2452 0.950 . S
C2430 C2429 1.349 . S
C2430 C2442 1.349 . S
C2431 C2429 1.327 . S
C2431 C2447 1.429 . S
C2431 H2453 0.950 . S
C2432 H2428 0.949 . S
C2432 C2440 1.574 . S
C2432 C2448 1.368 . S
H2433 C2441 0.950 . S
H2434 C2439 0.950 . S
H2435 C2440 0.949 . S
H2436 C2442 0.950 . S
H2437 C2443 0.950 . S
H2438 C2444 0.949 . S
C2439 H2434 0.950 . S
C2439 C2441 1.327 . S
C2439 C2445 1.429 . S
C2440 C2432 1.574 . S
C2440 H2435 0.949 . S
C2440 C2446 1.368 . S
C2441 C2425 1.349 . S
C2441 H2433 0.950 . S
C2441 C2439 1.327 . S
C2442 C2430 1.349 . S
C2442 H2436 0.950 . S
C2442 C2443 1.327 . S
C2443 H2437 0.950 . S
C2443 C2442 1.327 . S
C2443 C2447 1.429 . S
C2444 C2427 1.574 . S
C2444 H2438 0.949 . S
C2444 C2448 1.368 . S
C2445 C2426 1.429 . S
C2445 C2439 1.429 . S
C2445 C2446 1.523 . S
C2446 C2427 1.368 . S
C2446 C2440 1.368 . S
C2446 C2445 1.523 . S
C2447 C2431 1.429 . S
C2447 C2443 1.429 . S
C2447 C2448 1.523 . S
C2448 C2432 1.368 . S
C2448 C2444 1.368 . S
C2448 C2447 1.523 . S
H2449 C2424 0.950 . S
H2450 C2426 0.950 . S
H2451 C2427 0.949 . S
H2452 C2429 0.950 . S
H2453 C2431 0.950 . S
C2454 C2455 1.349 . S
C2454 C2456 1.327 . S
C2454 H2479 0.950 1_554 S
C2455 C2454 1.349 . S
C2455 C2471 1.349 . S
C2456 C2454 1.327 . S
C2456 C2475 1.429 . S
C2456 H2480 0.950 1_554 S
C2457 C2474 1.574 . S
C2457 C2476 1.368 . S
C2457 H2481 0.949 . S
H2458 C2462 0.949 . S
C2459 C2460 1.349 . S
C2459 C2461 1.327 . S
C2459 H2482 0.950 . S
C2460 C2459 1.349 . S
C2460 C2472 1.349 1_554 S
C2461 C2459 1.327 . S
C2461 C2477 1.429 . S
C2461 H2483 0.950 . S
C2462 H2458 0.949 . S
C2462 C2470 1.574 . S
C2462 C2478 1.368 1_556 S
H2463 C2471 0.950 . S
H2464 C2469 0.950 . S
H2465 C2470 0.949 . S
H2466 C2472 0.950 . S
H2467 C2473 0.950 . S
H2468 C2474 0.949 . S
C2469 H2464 0.950 . S
C2469 C2471 1.327 . S
C2469 C2475 1.429 . S
C2470 C2462 1.574 . S
C2470 H2465 0.949 . S
C2470 C2476 1.368 1_556 S
C2471 C2455 1.349 . S
C2471 H2463 0.950 . S
C2471 C2469 1.327 . S
C2472 C2460 1.349 1_556 S
C2472 H2466 0.950 . S
C2472 C2473 1.327 . S
C2473 H2467 0.950 . S
C2473 C2472 1.327 . S
C2473 C2477 1.429 1_556 S
C2474 C2457 1.574 . S
C2474 H2468 0.949 . S
C2474 C2478 1.368 . S
C2475 C2456 1.429 . S
C2475 C2469 1.429 . S
C2475 C2476 1.523 . S
C2476 C2457 1.368 . S
C2476 C2470 1.368 1_554 S
C2476 C2475 1.523 . S
C2477 C2461 1.429 . S
C2477 C2473 1.429 1_554 S
C2477 C2478 1.523 . S
C2478 C2462 1.368 1_554 S
C2478 C2474 1.368 . S
C2478 C2477 1.523 . S
H2479 C2454 0.950 1_556 S
H2480 C2456 0.950 1_556 S
H2481 C2457 0.949 . S
H2482 C2459 0.950 . S
H2483 C2461 0.950 . S
C2484 C2485 1.349 . S
C2484 C2486 1.327 . S
C2484 H2509 0.950 . S
C2485 C2484 1.349 . S
C2485 C2501 1.349 . S
C2486 C2484 1.327 . S
C2486 C2505 1.429 . S
C2486 H2510 0.950 . S
C2487 C2504 1.574 . S
C2487 C2506 1.368 . S
C2487 H2511 0.949 . S
H2488 C2492 0.949 . S
C2489 C2490 1.349 . S
C2489 C2491 1.327 . S
C2489 H2512 0.950 . S
C2490 C2489 1.349 . S
C2490 C2502 1.349 . S
C2491 C2489 1.327 . S
C2491 C2507 1.429 . S
C2491 H2513 0.950 . S
C2492 H2488 0.949 . S
C2492 C2500 1.574 . S
C2492 C2508 1.368 . S
H2493 C2501 0.950 . S
H2494 C2499 0.950 . S
H2495 C2500 0.949 . S
H2496 C2502 0.950 . S
H2497 C2503 0.950 . S
H2498 C2504 0.949 . S
C2499 H2494 0.950 . S
C2499 C2501 1.327 . S
C2499 C2505 1.429 . S
C2500 C2492 1.574 . S
C2500 H2495 0.949 . S
C2500 C2506 1.368 . S
C2501 C2485 1.349 . S
C2501 H2493 0.950 . S
C2501 C2499 1.327 . S
C2502 C2490 1.349 . S
C2502 H2496 0.950 . S
C2502 C2503 1.327 . S
C2503 H2497 0.950 . S
C2503 C2502 1.327 . S
C2503 C2507 1.429 . S
C2504 C2487 1.574 . S
C2504 H2498 0.949 . S
C2504 C2508 1.368 . S
C2505 C2486 1.429 . S
C2505 C2499 1.429 . S
C2505 C2506 1.523 . S
C2506 C2487 1.368 . S
C2506 C2500 1.368 . S
C2506 C2505 1.523 . S
C2507 C2491 1.429 . S
C2507 C2503 1.429 . S
C2507 C2508 1.523 . S
C2508 C2492 1.368 . S
C2508 C2504 1.368 . S
C2508 C2507 1.523 . S
H2509 C2484 0.950 . S
H2510 C2486 0.950 . S
H2511 C2487 0.949 . S
H2512 C2489 0.950 . S
H2513 C2491 0.950 . S
C2514 C2515 1.349 . S
C2514 C2516 1.327 . S
C2514 H2539 0.950 . S
C2515 C2514 1.349 . S
C2515 C2531 1.349 . S
C2516 C2514 1.327 . S
C2516 C2535 1.429 . S
C2516 H2540 0.950 . S
C2517 C2534 1.574 . S
C2517 C2536 1.368 . S
C2517 H2541 0.949 . S
H2518 C2522 0.949 . S
C2519 C2520 1.349 . S
C2519 C2521 1.327 . S
C2519 H2542 0.950 . S
C2520 C2519 1.349 . S
C2520 C2532 1.349 . S
C2521 C2519 1.327 . S
C2521 C2537 1.429 . S
C2521 H2543 0.950 . S
C2522 H2518 0.949 . S
C2522 C2530 1.574 . S
C2522 C2538 1.368 . S
H2523 C2531 0.950 . S
H2524 C2529 0.950 . S
H2525 C2530 0.949 . S
H2526 C2532 0.950 . S
H2527 C2533 0.950 . S
H2528 C2534 0.949 . S
C2529 H2524 0.950 . S
C2529 C2531 1.327 . S
C2529 C2535 1.429 . S
C2530 C2522 1.574 . S
C2530 H2525 0.949 . S
C2530 C2536 1.368 . S
C2531 C2515 1.349 . S
C2531 H2523 0.950 . S
C2531 C2529 1.327 . S
C2532 C2520 1.349 . S
C2532 H2526 0.950 . S
C2532 C2533 1.327 . S
C2533 H2527 0.950 . S
C2533 C2532 1.327 . S
C2533 C2537 1.429 . S
C2534 C2517 1.574 . S
C2534 H2528 0.949 . S
C2534 C2538 1.368 . S
C2535 C2516 1.429 . S
C2535 C2529 1.429 . S
C2535 C2536 1.523 . S
C2536 C2517 1.368 . S
C2536 C2530 1.368 . S
C2536 C2535 1.523 . S
C2537 C2521 1.429 . S
C2537 C2533 1.429 . S
C2537 C2538 1.523 . S
C2538 C2522 1.368 . S
C2538 C2534 1.368 . S
C2538 C2537 1.523 . S
H2539 C2514 0.950 . S
H2540 C2516 0.950 . S
H2541 C2517 0.949 . S
H2542 C2519 0.950 . S
H2543 C2521 0.950 . S
C2544 C2545 1.349 . S
C2544 C2546 1.327 . S
C2544 H2569 0.950 . S
C2545 C2544 1.349 . S
C2545 C2561 1.349 . S
C2546 C2544 1.327 . S
C2546 C2565 1.429 . S
C2546 H2570 0.950 . S
C2547 C2564 1.574 . S
C2547 C2566 1.368 . S
C2547 H2571 0.949 . S
H2548 C2552 0.949 . S
C2549 C2550 1.349 . S
C2549 C2551 1.327 . S
C2549 H2572 0.950 . S
C2550 C2549 1.349 . S
C2550 C2562 1.349 . S
C2551 C2549 1.327 . S
C2551 C2567 1.429 . S
C2551 H2573 0.950 . S
C2552 H2548 0.949 . S
C2552 C2560 1.574 . S
C2552 C2568 1.368 . S
H2553 C2561 0.950 . S
H2554 C2559 0.950 . S
H2555 C2560 0.949 . S
H2556 C2562 0.950 . S
H2557 C2563 0.950 . S
H2558 C2564 0.949 . S
C2559 H2554 0.950 . S
C2559 C2561 1.327 . S
C2559 C2565 1.429 . S
C2560 C2552 1.574 . S
C2560 H2555 0.949 . S
C2560 C2566 1.368 . S
C2561 C2545 1.349 . S
C2561 H2553 0.950 . S
C2561 C2559 1.327 . S
C2562 C2550 1.349 . S
C2562 H2556 0.950 . S
C2562 C2563 1.327 . S
C2563 H2557 0.950 . S
C2563 C2562 1.327 . S
C2563 C2567 1.429 . S
C2564 C2547 1.574 . S
C2564 H2558 0.949 . S
C2564 C2568 1.368 . S
C2565 C2546 1.429 . S
C2565 C2559 1.429 . S
C2565 C2566 1.523 . S
C2566 C2547 1.368 . S
C2566 C2560 1.368 . S
C2566 C2565 1.523 . S
C2567 C2551 1.429 . S
C2567 C2563 1.429 . S
C2567 C2568 1.523 . S
C2568 C2552 1.368 . S
C2568 C2564 1.368 . S
C2568 C2567 1.523 . S
H2569 C2544 0.950 . S
H2570 C2546 0.950 . S
H2571 C2547 0.949 . S
H2572 C2549 0.950 . S
H2573 C2551 0.950 . S
C2574 C2575 1.349 . S
C2574 C2576 1.327 . S
C2574 H2599 0.987 . S
C2575 C2574 1.349 . S
C2575 C2591 1.349 . S
C2576 C2574 1.327 . S
C2576 C2595 1.429 . S
C2576 H2600 0.950 . S
C2577 C2594 1.574 . S
C2577 C2596 1.368 . S
C2577 H2601 0.949 . S
H2578 C2582 0.949 . S
C2579 C2580 1.349 . S
C2579 C2581 1.327 . S
C2579 H2602 0.950 . S
C2580 C2579 1.349 . S
C2580 C2592 1.349 . S
C2581 C2579 1.327 . S
C2581 C2597 1.429 . S
C2581 H2603 0.950 . S
C2582 H2578 0.949 . S
C2582 C2590 1.574 . S
C2582 C2598 1.368 . S
H2583 C2591 0.950 . S
H2584 C2589 0.950 . S
H2585 C2590 0.949 . S
H2586 C2592 0.950 . S
H2587 C2593 0.950 . S
H2588 C2594 0.949 . S
C2589 H2584 0.950 . S
C2589 C2591 1.327 . S
C2589 C2595 1.429 . S
C2590 C2582 1.574 . S
C2590 H2585 0.949 . S
C2590 C2596 1.368 . S
C2591 C2575 1.349 . S
C2591 H2583 0.950 . S
C2591 C2589 1.327 . S
C2592 C2580 1.349 . S
C2592 H2586 0.950 . S
C2592 C2593 1.327 . S
C2593 H2587 0.950 . S
C2593 C2592 1.327 . S
C2593 C2597 1.429 . S
C2594 C2577 1.574 . S
C2594 H2588 0.949 . S
C2594 C2598 1.368 . S
C2595 C2576 1.429 . S
C2595 C2589 1.429 . S
C2595 C2596 1.523 . S
C2596 C2577 1.368 . S
C2596 C2590 1.368 . S
C2596 C2595 1.523 . S
C2597 C2581 1.429 . S
C2597 C2593 1.429 . S
C2597 C2598 1.523 . S
C2598 C2582 1.368 . S
C2598 C2594 1.368 . S
C2598 C2597 1.523 . S
H2599 C2574 0.987 . S
H2600 C2576 0.950 . S
H2601 C2577 0.949 . S
H2602 C2579 0.950 . S
H2603 C2581 0.950 . S
C2604 C2605 1.325 1_554 S
C2604 C2606 1.327 . S
C2604 H2629 0.950 . S
C2605 C2604 1.325 1_556 S
C2605 C2621 1.386 . S
C2606 C2604 1.327 . S
C2606 C2625 1.429 1_554 S
C2606 H2630 0.950 . S
C2607 C2624 1.574 . S
C2607 C2626 1.368 . S
C2607 H2631 0.949 . S
H2608 C2612 0.949 . S
C2609 C2610 1.349 . S
C2609 C2611 1.327 . S
C2609 H2632 0.950 . S
C2610 C2609 1.349 . S
C2610 C2622 1.349 . S
C2611 C2609 1.327 . S
C2611 C2627 1.429 . S
C2611 H2633 0.950 . S
C2612 H2608 0.949 . S
C2612 C2620 1.574 . S
C2612 C2628 1.368 1_554 S
H2613 C2621 0.950 . S
H2614 C2619 0.950 . S
H2615 C2620 0.949 . S
H2616 C2622 0.950 1_554 S
H2617 C2623 0.950 . S
H2618 C2624 0.949 . S
C2619 H2614 0.950 . S
C2619 C2621 1.327 . S
C2619 C2625 1.429 . S
C2620 C2612 1.574 . S
C2620 H2615 0.949 . S
C2620 C2626 1.368 1_554 S
C2621 C2605 1.386 . S
C2621 H2613 0.950 . S
C2621 C2619 1.327 . S
C2622 C2610 1.349 . S
C2622 H2616 0.950 1_556 S
C2622 C2623 1.327 1_556 S
C2623 H2617 0.950 . S
C2623 C2622 1.327 1_554 S
C2623 C2627 1.429 1_554 S
C2624 C2607 1.574 . S
C2624 H2618 0.949 . S
C2624 C2628 1.368 . S
C2625 C2606 1.429 1_556 S
C2625 C2619 1.429 . S
C2625 C2626 1.523 . S
C2626 C2607 1.368 . S
C2626 C2620 1.368 1_556 S
C2626 C2625 1.523 . S
C2627 C2611 1.429 . S
C2627 C2623 1.429 1_556 S
C2627 C2628 1.523 . S
C2628 C2612 1.368 1_556 S
C2628 C2624 1.368 . S
C2628 C2627 1.523 . S
H2629 C2604 0.950 . S
H2630 C2606 0.950 . S
H2631 C2607 0.949 . S
H2632 C2609 0.950 . S
H2633 C2611 0.950 . S
C2634 C2635 1.349 . S
C2634 C2636 1.327 . S
C2634 H2659 0.950 . S
C2635 C2634 1.349 . S
C2635 C2651 1.349 . S
C2636 C2634 1.327 . S
C2636 C2655 1.429 . S
C2636 H2660 0.950 . S
C2637 C2654 1.574 . S
C2637 C2656 1.368 . S
C2637 H2661 0.949 . S
H2638 C2642 0.949 . S
C2639 C2640 1.349 . S
C2639 C2641 1.327 . S
C2639 H2662 0.950 . S
C2640 C2639 1.349 . S
C2640 C2652 1.349 . S
C2641 C2639 1.327 . S
C2641 C2657 1.429 . S
C2641 H2663 0.950 . S
C2642 H2638 0.949 . S
C2642 C2650 1.574 . S
C2642 C2658 1.368 . S
H2643 C2651 0.950 . S
H2644 C2649 0.950 . S
H2645 C2650 0.949 . S
H2646 C2652 0.950 . S
H2647 C2653 0.950 . S
H2648 C2654 0.949 . S
C2649 H2644 0.950 . S
C2649 C2651 1.327 . S
C2649 C2655 1.429 . S
C2650 C2642 1.574 . S
C2650 H2645 0.949 . S
C2650 C2656 1.368 . S
C2651 C2635 1.349 . S
C2651 H2643 0.950 . S
C2651 C2649 1.327 . S
C2652 C2640 1.349 . S
C2652 H2646 0.950 . S
C2652 C2653 1.327 . S
C2653 H2647 0.950 . S
C2653 C2652 1.327 . S
C2653 C2657 1.429 . S
C2654 C2637 1.574 . S
C2654 H2648 0.949 . S
C2654 C2658 1.368 . S
C2655 C2636 1.429 . S
C2655 C2649 1.429 . S
C2655 C2656 1.523 . S
C2656 C2637 1.368 . S
C2656 C2650 1.368 . S
C2656 C2655 1.523 . S
C2657 C2641 1.429 . S
C2657 C2653 1.429 . S
C2657 C2658 1.523 . S
C2658 C2642 1.368 . S
C2658 C2654 1.368 . S
C2658 C2657 1.523 . S
H2659 C2634 0.950 . S
H2660 C2636 0.950 . S
H2661 C2637 0.949 . S
H2662 C2639 0.950 . S
H2663 C2641 0.950 . S
C2664 C2665 1.349 . S
C2664 C2666 1.327 . S
C2664 H2689 0.950 . S
C2665 C2664 1.349 . S
C2665 C2681 1.349 . S
C2666 C2664 1.327 . S
C2666 C2685 1.429 . S
C2666 H2690 0.950 . S
C2667 C2684 1.574 . S
C2667 C2686 1.368 . S
C2667 H2691 0.949 . S
H2668 C2672 0.949 . S
C2669 C2670 1.349 . S
C2669 C2671 1.327 . S
C2669 H2692 0.950 . S
C2670 C2669 1.349 . S
C2670 C2682 1.349 . S
C2671 C2669 1.327 . S
C2671 C2687 1.429 . S
C2671 H2693 0.950 . S
C2672 H2668 0.949 . S
C2672 C2680 1.574 . S
C2672 C2688 1.368 . S
H2673 C2681 0.950 . S
H2674 C2679 0.950 . S
H2675 C2680 0.949 . S
H2676 C2682 0.950 . S
H2677 C2683 0.950 . S
H2678 C2684 0.949 . S
C2679 H2674 0.950 . S
C2679 C2681 1.327 . S
C2679 C2685 1.429 . S
C2680 C2672 1.574 . S
C2680 H2675 0.949 . S
C2680 C2686 1.368 . S
C2681 C2665 1.349 . S
C2681 H2673 0.950 . S
C2681 C2679 1.327 . S
C2682 C2670 1.349 . S
C2682 H2676 0.950 . S
C2682 C2683 1.327 . S
C2683 H2677 0.950 . S
C2683 C2682 1.327 . S
C2683 C2687 1.429 . S
C2684 C2667 1.574 . S
C2684 H2678 0.949 . S
C2684 C2688 1.368 . S
C2685 C2666 1.429 . S
C2685 C2679 1.429 . S
C2685 C2686 1.523 . S
C2686 C2667 1.368 . S
C2686 C2680 1.368 . S
C2686 C2685 1.523 . S
C2687 C2671 1.429 . S
C2687 C2683 1.429 . S
C2687 C2688 1.523 . S
C2688 C2672 1.368 . S
C2688 C2684 1.368 . S
C2688 C2687 1.523 . S
H2689 C2664 0.950 . S
H2690 C2666 0.950 . S
H2691 C2667 0.949 . S
H2692 C2669 0.950 . S
H2693 C2671 0.950 . S
C2694 C2695 1.349 . S
C2694 C2696 1.327 . S
C2694 H2719 0.950 . S
C2695 C2694 1.349 . S
C2695 C2711 1.349 . S
C2696 C2694 1.327 . S
C2696 C2715 1.429 . S
C2696 H2720 0.950 . S
C2697 C2714 1.574 . S
C2697 C2716 1.368 . S
C2697 H2721 0.949 . S
H2698 C2702 0.949 . S
C2699 C2700 1.349 . S
C2699 C2701 1.327 . S
C2699 H2722 0.950 . S
C2700 C2699 1.349 . S
C2700 C2712 1.349 . S
C2701 C2699 1.327 . S
C2701 C2717 1.429 . S
C2701 H2723 0.950 . S
C2702 H2698 0.949 . S
C2702 C2710 1.574 . S
C2702 C2718 1.368 . S
H2703 C2711 0.950 . S
H2704 C2709 0.950 . S
H2705 C2710 0.949 . S
H2706 C2712 0.950 . S
H2707 C2713 0.950 . S
H2708 C2714 0.949 . S
C2709 H2704 0.950 . S
C2709 C2711 1.327 . S
C2709 C2715 1.429 . S
C2710 C2702 1.574 . S
C2710 H2705 0.949 . S
C2710 C2716 1.368 . S
C2711 C2695 1.349 . S
C2711 H2703 0.950 . S
C2711 C2709 1.327 . S
C2712 C2700 1.349 . S
C2712 H2706 0.950 . S
C2712 C2713 1.327 . S
C2713 H2707 0.950 . S
C2713 C2712 1.327 . S
C2713 C2717 1.429 . S
C2714 C2697 1.574 . S
C2714 H2708 0.949 . S
C2714 C2718 1.368 . S
C2715 C2696 1.429 . S
C2715 C2709 1.429 . S
C2715 C2716 1.523 . S
C2716 C2697 1.368 . S
C2716 C2710 1.368 . S
C2716 C2715 1.523 . S
C2717 C2701 1.429 . S
C2717 C2713 1.429 . S
C2717 C2718 1.523 . S
C2718 C2702 1.368 . S
C2718 C2714 1.368 . S
C2718 C2717 1.523 . S
H2719 C2694 0.950 . S
H2720 C2696 0.950 . S
H2721 C2697 0.949 . S
H2722 C2699 0.950 . S
H2723 C2701 0.950 . S
C2724 C2725 1.349 . S
C2724 C2726 1.327 . S
C2724 H2749 0.950 . S
C2725 C2724 1.349 . S
C2725 C2741 1.349 . S
C2726 C2724 1.327 . S
C2726 C2745 1.429 . S
C2726 H2750 0.950 . S
C2727 C2744 1.574 . S
C2727 C2746 1.368 . S
C2727 H2751 0.949 . S
H2728 C2732 0.949 . S
C2729 C2730 1.349 . S
C2729 C2731 1.327 . S
C2729 H2752 0.950 . S
C2730 C2729 1.349 . S
C2730 C2742 1.349 . S
C2731 C2729 1.327 . S
C2731 C2747 1.429 . S
C2731 H2753 0.950 . S
C2732 H2728 0.949 . S
C2732 C2740 1.574 . S
C2732 C2748 1.368 . S
H2733 C2741 0.950 . S
H2734 C2739 0.950 . S
H2735 C2740 0.949 . S
H2736 C2742 0.950 . S
H2737 C2743 0.950 . S
H2738 C2744 0.949 . S
C2739 H2734 0.950 . S
C2739 C2741 1.327 . S
C2739 C2745 1.429 . S
C2740 C2732 1.574 . S
C2740 H2735 0.949 . S
C2740 C2746 1.368 . S
C2741 C2725 1.349 . S
C2741 H2733 0.950 . S
C2741 C2739 1.327 . S
C2742 C2730 1.349 . S
C2742 H2736 0.950 . S
C2742 C2743 1.327 . S
C2743 H2737 0.950 . S
C2743 C2742 1.327 . S
C2743 C2747 1.429 . S
C2744 C2727 1.574 . S
C2744 H2738 0.949 . S
C2744 C2748 1.368 . S
C2745 C2726 1.429 . S
C2745 C2739 1.429 . S
C2745 C2746 1.523 . S
C2746 C2727 1.368 . S
C2746 C2740 1.368 . S
C2746 C2745 1.523 . S
C2747 C2731 1.429 . S
C2747 C2743 1.429 . S
C2747 C2748 1.523 . S
C2748 C2732 1.368 . S
C2748 C2744 1.368 . S
C2748 C2747 1.523 . S
H2749 C2724 0.950 . S
H2750 C2726 0.950 . S
H2751 C2727 0.949 . S
H2752 C2729 0.950 . S
H2753 C2731 0.950 . S
C2754 C2755 1.349 . S
C2754 C2756 1.327 . S
C2754 H2779 0.950 . S
C2755 C2754 1.349 . S
C2755 C2771 1.349 . S
C2756 C2754 1.327 . S
C2756 C2775 1.429 . S
C2756 H2780 0.950 . S
C2757 C2774 1.574 . S
C2757 C2776 1.368 . S
C2757 H2781 0.949 . S
H2758 C2762 0.949 . S
C2759 C2760 1.349 . S
C2759 C2761 1.327 . S
C2759 H2782 0.950 . S
C2760 C2759 1.349 . S
C2760 C2772 1.349 . S
C2761 C2759 1.327 . S
C2761 C2777 1.429 . S
C2761 H2783 0.950 . S
C2762 H2758 0.949 . S
C2762 C2770 1.574 . S
C2762 C2778 1.368 . S
H2763 C2771 0.950 . S
H2764 C2769 0.950 . S
H2765 C2770 0.949 . S
H2766 C2772 0.950 . S
H2767 C2773 0.950 . S
H2768 C2774 0.949 . S
C2769 H2764 0.950 . S
C2769 C2771 1.327 . S
C2769 C2775 1.429 . S
C2770 C2762 1.574 . S
C2770 H2765 0.949 . S
C2770 C2776 1.368 . S
C2771 C2755 1.349 . S
C2771 H2763 0.950 . S
C2771 C2769 1.327 . S
C2772 C2760 1.349 . S
C2772 H2766 0.950 . S
C2772 C2773 1.327 . S
C2773 H2767 0.950 . S
C2773 C2772 1.327 . S
C2773 C2777 1.429 . S
C2774 C2757 1.574 . S
C2774 H2768 0.949 . S
C2774 C2778 1.368 . S
C2775 C2756 1.429 . S
C2775 C2769 1.429 . S
C2775 C2776 1.523 . S
C2776 C2757 1.368 . S
C2776 C2770 1.368 . S
C2776 C2775 1.523 . S
C2777 C2761 1.429 . S
C2777 C2773 1.429 . S
C2777 C2778 1.523 . S
C2778 C2762 1.368 . S
C2778 C2774 1.368 . S
C2778 C2777 1.523 . S
H2779 C2754 0.950 . S
H2780 C2756 0.950 . S
H2781 C2757 0.949 . S
H2782 C2759 0.950 . S
H2783 C2761 0.950 . S
C1345 C74 0.894 . S
C1350 C142 0.831 . S
C1375 C235 1.653 . S
C1380 C140 1.647 . S
C1405 C308 1.638 . S
C1410 C242 1.675 . S
C1435 C67 0.847 . S
C1440 C310 0.815 . S
C1465 C56 0.851 . S
C1470 C825 0.818 . S
C1495 C651 0.867 . S
C1500 C153 0.814 . S
C1525 C224 1.653 . S
C1530 C907 1.647 . S
C1555 C319 1.644 . S
C1560 C1148 1.650 . S
C1585 C735 1.679 . S
C1590 C151 1.641 . S
C1615 C1075 1.638 . S
C1620 C231 1.675 . S
C1645 C1232 0.870 . S
C1650 C321 0.832 . S
C1675 C63 0.890 . S
C1680 C993 0.828 . S
C1705 C69 0.517 . S
C1710 C730 0.701 . S
C1735 C1082 2.023 . S
C1740 C399 2.023 . S
C1765 C489 0.663 . S
C1770 C1234 0.516 . S
C1795 C987 2.015 . S
C1800 C578 2.015 . S
C1825 C226 0.663 . S
C1830 C646 0.516 . S
C1855 C819 2.016 . S
C1860 C410 2.015 . S
C1885 C567 2.008 . S
C1890 C914 2.008 . S
C1915 C483 1.707 . S
C1920 C991 1.669 . S
C1945 C823 1.616 . S
C1950 C476 1.622 . S
C1975 C982 0.830 . S
C1980 C662 0.891 . S
C2005 C494 1.707 . S
C2010 C392 1.669 . S
C2035 C812 1.615 . S
C2040 C739 1.622 . S
C2065 C1166 1.708 . S
C2070 C980 1.670 . S
C2095 C560 1.616 . S
C2100 C487 1.622 . S
C2125 C814 0.816 . S
C2130 C1243 0.849 . S
C2155 C1161 0.661 . S
C2160 C58 0.517 . S
C2185 C237 0.663 . S
C2190 C1245 0.516 . S
C2215 C1071 2.016 . S
C2220 C158 2.014 . S
C2245 C657 0.516 . S
C2250 C478 0.663 . S
C2275 C326 2.016 . S
C2280 C903 2.014 . S
C2305 C1064 1.644 . S
C2310 C1159 1.650 . S
C2335 C655 0.871 . S
C2340 C1066 0.832 . S
C2365 C573 0.816 . S
C2370 C644 0.849 . S
C2395 C403 1.670 . S
C2400 C1155 1.708 . S
C2425 C1077 0.815 . S
C2430 C1316 0.848 . S
C2455 C1318 0.517 . S
C2460 C741 0.663 . S
C2485 C147 2.008 . S
C2490 C830 2.007 . S
C2515 C728 1.622 . S
C2520 C571 1.615 . S
C2545 C746 1.679 . S
C2550 C896 1.641 . S
C2575 C1327 0.851 . S
C2580 C562 0.817 . S
C2605 C1150 0.696 . S
C2610 C1329 0.517 . S
C2635 C998 2.023 . S
C2640 C315 2.023 . S
C2665 C898 0.814 . S
C2670 C1250 0.867 . S
C2695 C909 0.831 . S
C2700 C1323 0.894 . S
C2725 C405 0.830 . S
C2730 C1239 0.892 . S
C2755 C1334 0.890 . S
C2760 C394 0.828 . S
