# Generated by pormake.
# Topology unv, (4)-cn, num edge types: 1
# Building blocks:
#     Node 0, Type 0, BuildingBlock: GALJAG_clean_sbu_0, # of connection points: 4
#     Node 1, Type 0, BuildingBlock: GALJAG_clean_sbu_0, # of connection points: 4
#     Node 2, Type 0, BuildingBlock: GALJAG_clean_sbu_0, # of connection points: 4
#     Node 3, Type 0, BuildingBlock: GALJAG_clean_sbu_0, # of connection points: 4
#     Node 4, Type 0, BuildingBlock: GALJAG_clean_sbu_0, # of connection points: 4
#     Node 5, Type 0, BuildingBlock: GALJAG_clean_sbu_0, # of connection points: 4
#     Node 6, Type 0, BuildingBlock: GALJAG_clean_sbu_0, # of connection points: 4
#     Node 7, Type 0, BuildingBlock: GALJAG_clean_sbu_0, # of connection points: 4
#     Node 8, Type 0, BuildingBlock: GALJAG_clean_sbu_0, # of connection points: 4
#     Node 9, Type 0, BuildingBlock: GALJAG_clean_sbu_0, # of connection points: 4
#     Node 10, Type 0, BuildingBlock: GALJAG_clean_sbu_0, # of connection points: 4
#     Node 11, Type 0, BuildingBlock: GALJAG_clean_sbu_0, # of connection points: 4
#     Node 12, Type 0, BuildingBlock: GALJAG_clean_sbu_0, # of connection points: 4
#     Node 13, Type 0, BuildingBlock: GALJAG_clean_sbu_0, # of connection points: 4
#     Node 14, Type 0, BuildingBlock: GALJAG_clean_sbu_0, # of connection points: 4
#     Node 15, Type 0, BuildingBlock: GALJAG_clean_sbu_0, # of connection points: 4
#     Node 16, Type 0, BuildingBlock: GALJAG_clean_sbu_0, # of connection points: 4
#     Node 17, Type 0, BuildingBlock: GALJAG_clean_sbu_0, # of connection points: 4
#     Node 18, Type 0, BuildingBlock: GALJAG_clean_sbu_0, # of connection points: 4
#     Node 19, Type 0, BuildingBlock: GALJAG_clean_sbu_0, # of connection points: 4
#     Node 20, Type 0, BuildingBlock: GALJAG_clean_sbu_0, # of connection points: 4
#     Node 21, Type 0, BuildingBlock: GALJAG_clean_sbu_0, # of connection points: 4
#     Node 22, Type 0, BuildingBlock: GALJAG_clean_sbu_0, # of connection points: 4
#     Node 23, Type 0, BuildingBlock: GALJAG_clean_sbu_0, # of connection points: 4
#     Edge 24, Type (0, 0), None
#     Edge 25, Type (0, 0), None
#     Edge 26, Type (0, 0), None
#     Edge 27, Type (0, 0), None
#     Edge 28, Type (0, 0), None
#     Edge 29, Type (0, 0), None
#     Edge 30, Type (0, 0), None
#     Edge 31, Type (0, 0), None
#     Edge 32, Type (0, 0), None
#     Edge 33, Type (0, 0), None
#     Edge 34, Type (0, 0), None
#     Edge 35, Type (0, 0), None
#     Edge 36, Type (0, 0), None
#     Edge 37, Type (0, 0), None
#     Edge 38, Type (0, 0), None
#     Edge 39, Type (0, 0), None
#     Edge 40, Type (0, 0), None
#     Edge 41, Type (0, 0), None
#     Edge 42, Type (0, 0), None
#     Edge 43, Type (0, 0), None
#     Edge 44, Type (0, 0), None
#     Edge 45, Type (0, 0), None
#     Edge 46, Type (0, 0), None
#     Edge 47, Type (0, 0), None
#     Edge 48, Type (0, 0), None
#     Edge 49, Type (0, 0), None
#     Edge 50, Type (0, 0), None
#     Edge 51, Type (0, 0), None
#     Edge 52, Type (0, 0), None
#     Edge 53, Type (0, 0), None
#     Edge 54, Type (0, 0), None
#     Edge 55, Type (0, 0), None
#     Edge 56, Type (0, 0), None
#     Edge 57, Type (0, 0), None
#     Edge 58, Type (0, 0), None
#     Edge 59, Type (0, 0), None
#     Edge 60, Type (0, 0), None
#     Edge 61, Type (0, 0), None
#     Edge 62, Type (0, 0), None
#     Edge 63, Type (0, 0), None
#     Edge 64, Type (0, 0), None
#     Edge 65, Type (0, 0), None
#     Edge 66, Type (0, 0), None
#     Edge 67, Type (0, 0), None
#     Edge 68, Type (0, 0), None
#     Edge 69, Type (0, 0), None
#     Edge 70, Type (0, 0), None
#     Edge 71, Type (0, 0), None
# Relax obj value: 0.402
# Max RMSD: 0.239
# Mean RMSD: 0.210
data_MOF--net-unv--node1-GALJAG_clean_sbu_0--edge1-none
_symmetry_space_group_name_H-M    P1
_symmetry_Int_Tables_number       1
_symmetry_cell_setting            triclinic
loop_
_symmetry_equiv_pos_as_xyz
'x, y, z'
_cell_length_a     21.7118
_cell_length_b     21.711726
_cell_length_c     21.711839
_cell_angle_alpha  90.036324
_cell_angle_beta   90.036873
_cell_angle_gamma 90.03698
loop_
_atom_site_label
_atom_site_type_symbol
_atom_site_fract_x
_atom_site_fract_y
_atom_site_fract_z
_atom_type_partial_charge
In0 In 0.02789 0.09759 0.36232 0.0
O1 O 0.07731 0.01014 0.3317 0.0
O2 O 0.0588 0.07778 0.26353 0.0
C3 C 0.09119 0.09388 0.46942 0.0
C4 C 0.00421 0.21638 0.33336 0.0
C5 C 0.93147 0.02267 0.3863 0.0
O6 O 0.11766 0.08852 0.41788 0.0
O7 O 0.03451 0.10519 0.46617 0.0
O8 O 0.94923 0.06421 0.42275 0.0
O9 O 0.95717 0.02388 0.3344 0.0
C10 C 0.07854 0.02423 0.27543 0.0
O11 O 0.96241 0.17623 0.33713 0.0
O12 O 0.05814 0.19622 0.341 0.0
In13 In 0.96778 0.40152 0.36223 0.0
O14 O 0.03251 0.32256 0.33666 0.0
O15 O 0.93672 0.30293 0.34106 0.0
C16 C 0.06563 0.47414 0.38729 0.0
C17 C 0.919 0.47645 0.27555 0.0
C18 C 0.9041 0.40613 0.46899 0.0
O19 O 0.04642 0.43323 0.42363 0.0
O20 O 0.0405 0.47341 0.33507 0.0
O21 O 0.8779 0.41208 0.41733 0.0
O22 O 0.96056 0.39375 0.46597 0.0
C23 C 0.99056 0.28255 0.33326 0.0
O24 O 0.92086 0.49041 0.33185 0.0
O25 O 0.93705 0.42234 0.26347 0.0
In26 In 0.02858 0.90254 0.14099 0.0
O27 O 0.96346 0.8238 0.16681 0.0
O28 O 0.05926 0.80421 0.16295 0.0
C29 C 0.93205 0.97707 0.11639 0.0
C30 C 0.07875 0.97628 0.22788 0.0
C31 C 0.09141 0.90549 0.03363 0.0
O32 O 0.94958 0.93505 0.08044 0.0
O33 O 0.95798 0.97654 0.16821 0.0
O34 O 0.11807 0.91172 0.08503 0.0
O35 O 0.03481 0.89388 0.03721 0.0
C36 C 0.00541 0.78386 0.17078 0.0
O37 O 0.07765 0.99032 0.17158 0.0
O38 O 0.05931 0.92261 0.23978 0.0
In39 In 0.96931 0.59876 0.14149 0.0
O40 O 0.92064 0.51064 0.17175 0.0
O41 O 0.93885 0.57818 0.24027 0.0
C42 C 0.90648 0.59539 0.03407 0.0
C43 C 0.99192 0.71764 0.17098 0.0
C44 C 0.0666 0.52536 0.1165 0.0
O45 O 0.87983 0.58907 0.08543 0.0
O46 O 0.96303 0.60722 0.03773 0.0
O47 O 0.04855 0.56732 0.08078 0.0
O48 O 0.04063 0.5253 0.16827 0.0
C49 C 0.91951 0.5245 0.2281 0.0
O50 O 0.03395 0.67773 0.16776 0.0
O51 O 0.93815 0.69715 0.16284 0.0
In52 In 0.36233 0.02787 0.09756 0.0
O53 O 0.33714 0.96238 0.1762 0.0
O54 O 0.34102 0.05811 0.1962 0.0
C55 C 0.3862 0.93145 0.02263 0.0
C56 C 0.27548 0.0786 0.02421 0.0
C57 C 0.46947 0.0911 0.09382 0.0
O58 O 0.42269 0.94918 0.06414 0.0
O59 O 0.33432 0.95717 0.02387 0.0
O60 O 0.41794 0.11762 0.08851 0.0
O61 O 0.46618 0.03443 0.10513 0.0
C62 C 0.33338 0.00417 0.21636 0.0
O63 O 0.33175 0.07734 0.01013 0.0
O64 O 0.26356 0.05885 0.07775 0.0
In65 In 0.63823 0.47343 0.09703 0.0
O66 O 0.66805 0.42258 0.01015 0.0
O67 O 0.73666 0.44171 0.07728 0.0
C68 C 0.53021 0.41184 0.09318 0.0
C69 C 0.66743 0.49671 0.2158 0.0
C70 C 0.6159 0.5697 0.02158 0.0
O71 O 0.58134 0.3845 0.08833 0.0
O72 O 0.53429 0.46855 0.10413 0.0
O73 O 0.57908 0.55273 0.06306 0.0
O74 O 0.66746 0.54336 0.02318 0.0
C75 C 0.7244 0.42132 0.02403 0.0
O76 O 0.6636 0.53867 0.17587 0.0
O77 O 0.65966 0.44285 0.19542 0.0
In78 In 0.36223 0.96772 0.40149 0.0
O79 O 0.33665 0.03246 0.32254 0.0
O80 O 0.34108 0.93667 0.30289 0.0
C81 C 0.38722 0.06558 0.47412 0.0
C82 C 0.27558 0.91887 0.47642 0.0
C83 C 0.46902 0.90409 0.40614 0.0
O84 O 0.42358 0.04639 0.43323 0.0
O85 O 0.33501 0.04042 0.47338 0.0
O86 O 0.41737 0.87787 0.41205 0.0
O87 O 0.46598 0.96055 0.39376 0.0
C88 C 0.33328 0.99051 0.28252 0.0
O89 O 0.33188 0.92074 0.49036 0.0
O90 O 0.26348 0.93696 0.42232 0.0
In91 In 0.63827 0.53189 0.40094 0.0
O92 O 0.66686 0.58035 0.48966 0.0
O93 O 0.73616 0.56471 0.42247 0.0
C94 C 0.52988 0.59262 0.40545 0.0
C95 C 0.66758 0.51008 0.28199 0.0
C96 C 0.61625 0.43345 0.4736 0.0
O97 O 0.58084 0.62029 0.41087 0.0
O98 O 0.53436 0.53613 0.39359 0.0
O99 O 0.57915 0.45174 0.43292 0.0
O100 O 0.66782 0.45988 0.47259 0.0
C101 C 0.72325 0.58303 0.47632 0.0
O102 O 0.66475 0.4679 0.32173 0.0
O103 O 0.65908 0.56372 0.30264 0.0
In104 In 0.09755 0.36224 0.02774 0.0
O105 O 0.01013 0.33163 0.07722 0.0
O106 O 0.07775 0.26345 0.05868 0.0
C107 C 0.09388 0.46933 0.091 0.0
C108 C 0.21632 0.33322 0.004 0.0
C109 C 0.02257 0.38618 0.93137 0.0
O110 O 0.08856 0.4178 0.11752 0.0
O111 O 0.10518 0.46609 0.03432 0.0
O112 O 0.06413 0.42263 0.94907 0.0
O113 O 0.02378 0.3343 0.95709 0.0
C114 C 0.02421 0.27536 0.07845 0.0
O115 O 0.17616 0.33702 0.96222 0.0
O116 O 0.19618 0.34086 0.05795 0.0
In117 In 0.09704 0.63841 0.47353 0.0
O118 O 0.01021 0.66819 0.42258 0.0
O119 O 0.0773 0.73682 0.44178 0.0
C120 C 0.09325 0.53036 0.41205 0.0
C121 C 0.21579 0.66766 0.49683 0.0
C122 C 0.02153 0.61614 0.56977 0.0
O123 O 0.08843 0.58146 0.38464 0.0
O124 O 0.10417 0.53447 0.46877 0.0
O125 O 0.06305 0.57934 0.55288 0.0
O126 O 0.02312 0.66767 0.54337 0.0
C127 C 0.02407 0.72454 0.42133 0.0
O128 O 0.17586 0.66384 0.53878 0.0
O129 O 0.19543 0.65986 0.44297 0.0
In130 In 0.90237 0.85782 0.47244 0.0
O131 O 0.82395 0.8313 0.53757 0.0
O132 O 0.80414 0.83531 0.44178 0.0
C133 C 0.9775 0.88142 0.56887 0.0
C134 C 0.97589 0.77173 0.42103 0.0
C135 C 0.90492 0.96585 0.41084 0.0
O136 O 0.93532 0.91748 0.55199 0.0
O137 O 0.97684 0.82992 0.54234 0.0
O138 O 0.91108 0.91479 0.38356 0.0
O139 O 0.89342 0.96164 0.4674 0.0
C140 C 0.78397 0.82712 0.49563 0.0
O141 O 0.98972 0.82809 0.4224 0.0
O142 O 0.92243 0.75943 0.44079 0.0
In143 In 0.40091 0.6384 0.53202 0.0
O144 O 0.32173 0.66495 0.46803 0.0
O145 O 0.30263 0.65928 0.56385 0.0
C146 C 0.47356 0.61635 0.43362 0.0
C147 C 0.47633 0.72335 0.58316 0.0
C148 C 0.40534 0.53 0.59272 0.0
O149 O 0.43286 0.57926 0.45188 0.0
O150 O 0.47256 0.66795 0.46 0.0
O151 O 0.41082 0.58094 0.6204 0.0
O152 O 0.39345 0.5345 0.53623 0.0
C153 C 0.28198 0.6678 0.51021 0.0
O154 O 0.48966 0.66695 0.58045 0.0
O155 O 0.42248 0.73627 0.56488 0.0
In156 In 0.53117 0.59896 0.85588 0.0
O157 O 0.46683 0.67779 0.82906 0.0
O158 O 0.56259 0.69732 0.83491 0.0
C159 C 0.43378 0.52487 0.87889 0.0
C160 C 0.58278 0.52498 0.77015 0.0
C161 C 0.59184 0.59603 0.96447 0.0
O162 O 0.45078 0.56711 0.91486 0.0
O163 O 0.46094 0.52474 0.82775 0.0
O164 O 0.61958 0.5899 0.91367 0.0
O165 O 0.5353 0.60746 0.95972 0.0
C166 C 0.50889 0.71775 0.82633 0.0
O167 O 0.58177 0.5117 0.82664 0.0
O168 O 0.5625 0.57816 0.7575 0.0
In169 In 0.47223 0.9023 0.85774 0.0
O170 O 0.53734 0.82389 0.83116 0.0
O171 O 0.44155 0.80408 0.83525 0.0
C172 C 0.56873 0.97736 0.8813 0.0
C173 C 0.4208 0.97588 0.77167 0.0
C174 C 0.41069 0.90487 0.9658 0.0
O175 O 0.55183 0.9352 0.91737 0.0
O176 O 0.54218 0.97673 0.82981 0.0
O177 O 0.38338 0.91105 0.91475 0.0
O178 O 0.46724 0.89334 0.96155 0.0
C179 C 0.49539 0.78391 0.82705 0.0
O180 O 0.42226 0.9897 0.82803 0.0
O181 O 0.4405 0.92241 0.75939 0.0
In182 In 0.53185 0.40094 0.63838 0.0
O183 O 0.46785 0.32175 0.66489 0.0
O184 O 0.56367 0.30266 0.65926 0.0
C185 C 0.43347 0.47364 0.61641 0.0
C186 C 0.583 0.47633 0.7233 0.0
C187 C 0.5925 0.40541 0.52999 0.0
O188 O 0.4517 0.43295 0.57929 0.0
O189 O 0.45987 0.4726 0.668 0.0
O190 O 0.62023 0.41081 0.58091 0.0
O191 O 0.53601 0.39354 0.53447 0.0
C192 C 0.51003 0.28201 0.66779 0.0
O193 O 0.58035 0.48966 0.66689 0.0
O194 O 0.56471 0.42249 0.73625 0.0
In195 In 0.47339 0.09706 0.63841 0.0
O196 O 0.53862 0.17589 0.66384 0.0
O197 O 0.44279 0.19545 0.65981 0.0
C198 C 0.56968 0.0216 0.61616 0.0
C199 C 0.42121 0.02407 0.72449 0.0
C200 C 0.41195 0.09323 0.53034 0.0
O201 O 0.55277 0.0631 0.57935 0.0
O202 O 0.54326 0.02317 0.66769 0.0
O203 O 0.38452 0.08842 0.58143 0.0
O204 O 0.46866 0.10417 0.53447 0.0
C205 C 0.49665 0.21582 0.66759 0.0
O206 O 0.42241 0.01022 0.66814 0.0
O207 O 0.44165 0.07729 0.73682 0.0
In208 In 0.85588 0.53131 0.59899 0.0
O209 O 0.82661 0.58179 0.51166 0.0
O210 O 0.75747 0.56255 0.57816 0.0
C211 C 0.96442 0.59207 0.59608 0.0
C212 C 0.82633 0.50906 0.71779 0.0
C213 C 0.87903 0.43393 0.52498 0.0
O214 O 0.9136 0.61976 0.58987 0.0
O215 O 0.9597 0.53554 0.60757 0.0
O216 O 0.91499 0.45099 0.56721 0.0
O217 O 0.82783 0.46098 0.52483 0.0
C218 C 0.77013 0.58274 0.52495 0.0
O219 O 0.82906 0.46699 0.67784 0.0
O220 O 0.83489 0.56275 0.69734 0.0
In221 In 0.1416 0.96919 0.59878 0.0
O222 O 0.16793 0.03382 0.67773 0.0
O223 O 0.16295 0.93804 0.69717 0.0
C224 C 0.11664 0.06646 0.52541 0.0
C225 C 0.22815 0.91936 0.52448 0.0
C226 C 0.03416 0.90644 0.59541 0.0
O227 O 0.0809 0.04844 0.56736 0.0
O228 O 0.16843 0.04053 0.52535 0.0
O229 O 0.08548 0.87974 0.5891 0.0
O230 O 0.03783 0.96299 0.60727 0.0
C231 C 0.17117 0.99181 0.71765 0.0
O232 O 0.17179 0.92054 0.51064 0.0
O233 O 0.24034 0.93866 0.57816 0.0
In234 In 0.85774 0.47238 0.90234 0.0
O235 O 0.83121 0.53751 0.82393 0.0
O236 O 0.83522 0.44172 0.80413 0.0
C237 C 0.88145 0.56875 0.97746 0.0
C238 C 0.77161 0.42103 0.97586 0.0
C239 C 0.96574 0.41073 0.90485 0.0
O240 O 0.91748 0.55188 0.93527 0.0
O241 O 0.8299 0.5423 0.97683 0.0
O242 O 0.91467 0.38347 0.91108 0.0
O243 O 0.96154 0.46729 0.89332 0.0
C244 C 0.82705 0.49557 0.78395 0.0
O245 O 0.82797 0.42238 0.98971 0.0
O246 O 0.75933 0.44077 0.9224 0.0
In247 In 0.1411 0.02854 0.90251 0.0
O248 O 0.17165 0.07769 0.99026 0.0
O249 O 0.23986 0.05934 0.92259 0.0
C250 C 0.0337 0.09131 0.90539 0.0
C251 C 0.17089 0.00531 0.78386 0.0
C252 C 0.11655 0.93211 0.97712 0.0
O253 O 0.08508 0.11801 0.91163 0.0
O254 O 0.03732 0.03471 0.8938 0.0
O255 O 0.08057 0.94956 0.9351 0.0
O256 O 0.16838 0.95801 0.97655 0.0
C257 C 0.22794 0.0788 0.97624 0.0
O258 O 0.16693 0.96338 0.82381 0.0
O259 O 0.1631 0.05918 0.80418 0.0
In260 In 0.599 0.85595 0.53137 0.0
O261 O 0.67786 0.82914 0.46705 0.0
O262 O 0.69736 0.83501 0.56282 0.0
C263 C 0.525 0.87906 0.43397 0.0
C264 C 0.52497 0.77022 0.58284 0.0
C265 C 0.59603 0.9645 0.59211 0.0
O266 O 0.56721 0.91504 0.45104 0.0
O267 O 0.52487 0.82786 0.46104 0.0
O268 O 0.58987 0.91368 0.61981 0.0
O269 O 0.60753 0.95978 0.53558 0.0
C270 C 0.71781 0.82646 0.50912 0.0
O271 O 0.51169 0.8267 0.58188 0.0
O272 O 0.57817 0.75754 0.56263 0.0
In273 In 0.59877 0.14143 0.96905 0.0
O274 O 0.51062 0.17164 0.92044 0.0
O275 O 0.57816 0.24016 0.93847 0.0
C276 C 0.59532 0.034 0.90631 0.0
C277 C 0.71767 0.17096 0.99165 0.0
C278 C 0.52545 0.11652 0.06636 0.0
O279 O 0.58905 0.08533 0.8796 0.0
O280 O 0.6072 0.03766 0.96285 0.0
O281 O 0.56736 0.08075 0.04831 0.0
O282 O 0.5254 0.16831 0.04043 0.0
C283 C 0.52446 0.22799 0.91918 0.0
O284 O 0.67774 0.16776 0.03367 0.0
O285 O 0.69718 0.16274 0.93789 0.0
In286 In 0.40146 0.36206 0.96756 0.0
O287 O 0.49033 0.33172 0.92058 0.0
O288 O 0.4223 0.26329 0.93685 0.0
C289 C 0.40609 0.46883 0.90395 0.0
C290 C 0.28248 0.3331 0.99033 0.0
C291 C 0.47406 0.38711 0.0654 0.0
O292 O 0.41203 0.41719 0.8777 0.0
O293 O 0.39366 0.4658 0.9604 0.0
O294 O 0.43314 0.42345 0.04622 0.0
O295 O 0.47336 0.33488 0.04028 0.0
C296 C 0.47639 0.27542 0.91878 0.0
O297 O 0.32251 0.33645 0.03228 0.0
O298 O 0.30286 0.34092 0.93649 0.0
In299 In 0.90254 0.14094 0.0284 0.0
O300 O 0.82383 0.16671 0.96322 0.0
O301 O 0.8042 0.16291 0.05903 0.0
C302 C 0.97717 0.11642 0.93198 0.0
C303 C 0.97625 0.22782 0.07864 0.0
C304 C 0.90552 0.0336 0.0912 0.0
O305 O 0.93517 0.08041 0.94944 0.0
O306 O 0.97656 0.16826 0.95786 0.0
O307 O 0.91166 0.08498 0.11791 0.0
O308 O 0.89394 0.03715 0.03459 0.0
C309 C 0.78387 0.17068 0.00515 0.0
O310 O 0.99028 0.17152 0.07755 0.0
O311 O 0.9226 0.23972 0.05917 0.0
loop_
_geom_bond_atom_site_label_1
_geom_bond_atom_site_label_2
_geom_bond_distance
_geom_bond_site_symmetry_2
_ccdc_geom_bond_type
In0 O1 2.294 . S
In0 O2 2.326 1_455 S
In0 O6 2.266 . S
In0 O7 2.325 . S
In0 O8 2.266 1_455 S
In0 O9 2.326 1_445 S
In0 O11 2.294 1_455 S
In0 O12 2.326 . S
O1 In0 2.294 . S
O1 C10 1.240 1_455 S
O2 In0 2.326 1_655 S
O2 C10 1.252 . S
C3 O6 1.252 . S
C3 O7 1.260 . S
C4 O11 1.240 . S
C4 O12 1.252 1_655 S
C5 O8 1.252 1_565 S
C5 O9 1.260 . S
O6 In0 2.266 . S
O6 C3 1.252 . S
O7 In0 2.325 . S
O7 C3 1.260 . S
O8 In0 2.266 1_655 S
O8 C5 1.252 1_545 S
O9 In0 2.326 1_665 S
O9 C5 1.260 . S
C10 O1 1.240 1_655 S
C10 O2 1.252 . S
O11 In0 2.294 1_655 S
O11 C4 1.240 . S
O12 In0 2.326 . S
O12 C4 1.252 1_455 S
In13 O14 2.294 1_655 S
In13 O15 2.326 . S
In13 O19 2.266 1_655 S
In13 O20 2.326 1_655 S
In13 O21 2.266 . S
In13 O22 2.325 . S
In13 O24 2.294 . S
In13 O25 2.326 1_655 S
O14 In13 2.294 1_455 S
O14 C23 1.240 . S
O15 In13 2.326 . S
O15 C23 1.252 1_655 S
C16 O19 1.252 . S
C16 O20 1.260 . S
C17 O24 1.240 1_455 S
C17 O25 1.252 . S
C18 O21 1.252 . S
C18 O22 1.260 . S
O19 In13 2.266 1_455 S
O19 C16 1.252 . S
O20 In13 2.326 1_455 S
O20 C16 1.260 . S
O21 In13 2.266 . S
O21 C18 1.252 . S
O22 In13 2.325 . S
O22 C18 1.260 . S
C23 O14 1.240 . S
C23 O15 1.252 1_455 S
O24 In13 2.294 . S
O24 C17 1.240 1_655 S
O25 In13 2.326 1_455 S
O25 C17 1.252 . S
In26 O27 2.294 1_455 S
In26 O28 2.326 . S
In26 O32 2.266 1_455 S
In26 O33 2.326 1_465 S
In26 O34 2.266 . S
In26 O35 2.325 . S
In26 O37 2.294 . S
In26 O38 2.326 1_455 S
O27 In26 2.294 1_655 S
O27 C36 1.240 . S
O28 In26 2.326 . S
O28 C36 1.252 1_455 S
C29 O32 1.252 1_545 S
C29 O33 1.260 . S
C30 O37 1.255 . S
C30 O38 1.237 1_455 S
C31 O34 1.252 . S
C31 O35 1.260 . S
O32 In26 2.266 1_655 S
O32 C29 1.252 1_565 S
O33 In26 2.326 1_645 S
O33 C29 1.260 . S
O34 In26 2.266 . S
O34 C31 1.252 . S
O35 In26 2.325 . S
O35 C31 1.260 . S
C36 O27 1.240 . S
C36 O28 1.252 1_655 S
O37 In26 2.294 . S
O37 C30 1.255 . S
O38 In26 2.326 1_655 S
O38 C30 1.237 1_655 S
In39 O40 2.294 . S
In39 O41 2.326 1_655 S
In39 O45 2.266 . S
In39 O46 2.325 . S
In39 O47 2.266 1_655 S
In39 O48 2.326 1_655 S
In39 O50 2.294 1_655 S
In39 O51 2.326 . S
O40 In39 2.294 . S
O40 C49 1.240 . S
O41 In39 2.326 1_455 S
O41 C49 1.252 1_455 S
C42 O45 1.252 . S
C42 O46 1.260 . S
C43 O50 1.240 . S
C43 O51 1.252 1_455 S
C44 O47 1.252 . S
C44 O48 1.260 . S
O45 In39 2.266 . S
O45 C42 1.252 . S
O46 In39 2.325 . S
O46 C42 1.260 . S
O47 In39 2.266 1_455 S
O47 C44 1.252 . S
O48 In39 2.326 1_455 S
O48 C44 1.260 . S
C49 O40 1.240 . S
C49 O41 1.252 1_655 S
O50 In39 2.294 1_455 S
O50 C43 1.240 . S
O51 In39 2.326 . S
O51 C43 1.252 1_655 S
In52 O53 2.294 1_545 S
In52 O54 2.326 . S
In52 O58 2.266 1_545 S
In52 O59 2.326 1_544 S
In52 O60 2.266 . S
In52 O61 2.325 . S
In52 O63 2.294 . S
In52 O64 2.326 1_545 S
O53 In52 2.294 1_565 S
O53 C62 1.240 . S
O54 In52 2.326 . S
O54 C62 1.252 1_545 S
C55 O58 1.252 1_556 S
C55 O59 1.260 . S
C56 O63 1.240 1_565 S
C56 O64 1.252 . S
C57 O60 1.252 . S
C57 O61 1.260 . S
O58 In52 2.266 1_565 S
O58 C55 1.252 1_554 S
O59 In52 2.326 1_566 S
O59 C55 1.260 . S
O60 In52 2.266 . S
O60 C57 1.252 . S
O61 In52 2.325 . S
O61 C57 1.260 . S
C62 O53 1.240 . S
C62 O54 1.252 1_565 S
O63 In52 2.294 . S
O63 C56 1.240 1_545 S
O64 In52 2.326 1_565 S
O64 C56 1.252 . S
In65 O66 2.294 . S
In65 O67 2.326 . S
In65 O71 2.266 . S
In65 O72 2.326 . S
In65 O73 2.266 . S
In65 O74 2.326 1_554 S
In65 O76 2.294 . S
In65 O77 2.326 . S
O66 In65 2.294 . S
O66 C75 1.240 . S
O67 In65 2.326 . S
O67 C75 1.252 . S
C68 O71 1.252 . S
C68 O72 1.260 . S
C69 O76 1.240 . S
C69 O77 1.252 . S
C70 O73 1.252 . S
C70 O74 1.260 1_554 S
O71 In65 2.266 . S
O71 C68 1.252 . S
O72 In65 2.326 . S
O72 C68 1.260 . S
O73 In65 2.266 . S
O73 C70 1.252 . S
O74 In65 2.326 1_556 S
O74 C70 1.260 1_556 S
C75 O66 1.240 . S
C75 O67 1.252 . S
O76 In65 2.294 . S
O76 C69 1.240 . S
O77 In65 2.326 . S
O77 C69 1.252 . S
In78 O79 2.294 1_565 S
In78 O80 2.326 . S
In78 O84 2.266 1_565 S
In78 O85 2.326 1_565 S
In78 O86 2.266 . S
In78 O87 2.325 . S
In78 O89 2.294 . S
In78 O90 2.326 1_565 S
O79 In78 2.294 1_545 S
O79 C88 1.240 . S
O80 In78 2.326 . S
O80 C88 1.252 1_565 S
C81 O84 1.252 . S
C81 O85 1.260 . S
C82 O89 1.240 1_545 S
C82 O90 1.252 . S
C83 O86 1.252 . S
C83 O87 1.260 . S
O84 In78 2.266 1_545 S
O84 C81 1.252 . S
O85 In78 2.326 1_545 S
O85 C81 1.260 . S
O86 In78 2.266 . S
O86 C83 1.252 . S
O87 In78 2.325 . S
O87 C83 1.260 . S
C88 O79 1.240 . S
C88 O80 1.252 1_545 S
O89 In78 2.294 . S
O89 C82 1.240 1_565 S
O90 In78 2.326 1_545 S
O90 C82 1.252 . S
In91 O92 2.294 . S
In91 O93 2.326 . S
In91 O97 2.266 . S
In91 O98 2.326 . S
In91 O99 2.266 . S
In91 O100 2.326 . S
In91 O102 2.294 . S
In91 O103 2.326 . S
O92 In91 2.294 . S
O92 C101 1.240 . S
O93 In91 2.326 . S
O93 C101 1.252 . S
C94 O97 1.252 . S
C94 O98 1.260 . S
C95 O102 1.240 . S
C95 O103 1.252 . S
C96 O99 1.252 . S
C96 O100 1.260 . S
O97 In91 2.266 . S
O97 C94 1.252 . S
O98 In91 2.326 . S
O98 C94 1.260 . S
O99 In91 2.266 . S
O99 C96 1.252 . S
O100 In91 2.326 . S
O100 C96 1.260 . S
C101 O92 1.240 . S
C101 O93 1.252 . S
O102 In91 2.294 . S
O102 C95 1.240 . S
O103 In91 2.326 . S
O103 C95 1.252 . S
In104 O105 2.294 . S
In104 O106 2.326 1_554 S
In104 O110 2.266 . S
In104 O111 2.325 . S
In104 O112 2.266 1_554 S
In104 O113 2.326 1_454 S
In104 O115 2.294 1_554 S
In104 O116 2.326 . S
O105 In104 2.294 . S
O105 C114 1.240 1_554 S
O106 In104 2.326 1_556 S
O106 C114 1.252 . S
C107 O110 1.252 . S
C107 O111 1.260 . S
C108 O115 1.240 . S
C108 O116 1.252 1_556 S
C109 O112 1.252 1_655 S
C109 O113 1.260 . S
O110 In104 2.266 . S
O110 C107 1.252 . S
O111 In104 2.325 . S
O111 C107 1.260 . S
O112 In104 2.266 1_556 S
O112 C109 1.252 1_455 S
O113 In104 2.326 1_656 S
O113 C109 1.260 . S
C114 O105 1.240 1_556 S
C114 O106 1.252 . S
O115 In104 2.294 1_556 S
O115 C108 1.240 . S
O116 In104 2.326 . S
O116 C108 1.252 1_554 S
In117 O118 2.294 . S
In117 O119 2.326 . S
In117 O123 2.266 . S
In117 O124 2.326 . S
In117 O125 2.266 . S
In117 O126 2.326 1_455 S
In117 O128 2.294 . S
In117 O129 2.326 . S
O118 In117 2.294 . S
O118 C127 1.240 . S
O119 In117 2.326 . S
O119 C127 1.252 . S
C120 O123 1.252 . S
C120 O124 1.260 . S
C121 O128 1.240 . S
C121 O129 1.252 . S
C122 O125 1.252 . S
C122 O126 1.260 1_455 S
O123 In117 2.266 . S
O123 C120 1.252 . S
O124 In117 2.326 . S
O124 C120 1.260 . S
O125 In117 2.266 . S
O125 C122 1.252 . S
O126 In117 2.326 1_655 S
O126 C122 1.260 1_655 S
C127 O118 1.240 . S
C127 O119 1.252 . S
O128 In117 2.294 . S
O128 C121 1.240 . S
O129 In117 2.326 . S
O129 C121 1.252 . S
In130 O131 2.294 . S
In130 O132 2.326 . S
In130 O136 2.266 . S
In130 O137 2.326 1_655 S
In130 O138 2.266 . S
In130 O139 2.326 . S
In130 O141 2.294 . S
In130 O142 2.326 . S
O131 In130 2.294 . S
O131 C140 1.240 . S
O132 In130 2.326 . S
O132 C140 1.252 . S
C133 O136 1.252 . S
C133 O137 1.260 1_655 S
C134 O141 1.240 . S
C134 O142 1.252 . S
C135 O138 1.252 . S
C135 O139 1.260 . S
O136 In130 2.266 . S
O136 C133 1.252 . S
O137 In130 2.326 1_455 S
O137 C133 1.260 1_455 S
O138 In130 2.266 . S
O138 C135 1.252 . S
O139 In130 2.326 . S
O139 C135 1.260 . S
C140 O131 1.240 . S
C140 O132 1.252 . S
O141 In130 2.294 . S
O141 C134 1.240 . S
O142 In130 2.326 . S
O142 C134 1.252 . S
In143 O144 2.294 . S
In143 O145 2.326 . S
In143 O149 2.266 . S
In143 O150 2.326 . S
In143 O151 2.266 . S
In143 O152 2.326 . S
In143 O154 2.294 . S
In143 O155 2.326 . S
O144 In143 2.294 . S
O144 C153 1.240 . S
O145 In143 2.326 . S
O145 C153 1.252 . S
C146 O149 1.252 . S
C146 O150 1.260 . S
C147 O154 1.240 . S
C147 O155 1.252 . S
C148 O151 1.252 . S
C148 O152 1.260 . S
O149 In143 2.266 . S
O149 C146 1.252 . S
O150 In143 2.326 . S
O150 C146 1.260 . S
O151 In143 2.266 . S
O151 C148 1.252 . S
O152 In143 2.326 . S
O152 C148 1.260 . S
C153 O144 1.240 . S
C153 O145 1.252 . S
O154 In143 2.294 . S
O154 C147 1.240 . S
O155 In143 2.326 . S
O155 C147 1.252 . S
In156 O157 2.294 . S
In156 O158 2.326 . S
In156 O162 2.266 . S
In156 O163 2.326 . S
In156 O164 2.266 . S
In156 O165 2.326 . S
In156 O167 2.294 . S
In156 O168 2.326 . S
O157 In156 2.294 . S
O157 C166 1.240 . S
O158 In156 2.326 . S
O158 C166 1.252 . S
C159 O162 1.252 . S
C159 O163 1.260 . S
C160 O167 1.240 . S
C160 O168 1.252 . S
C161 O164 1.252 . S
C161 O165 1.260 . S
O162 In156 2.266 . S
O162 C159 1.252 . S
O163 In156 2.326 . S
O163 C159 1.260 . S
O164 In156 2.266 . S
O164 C161 1.252 . S
O165 In156 2.326 . S
O165 C161 1.260 . S
C166 O157 1.240 . S
C166 O158 1.252 . S
O167 In156 2.294 . S
O167 C160 1.240 . S
O168 In156 2.326 . S
O168 C160 1.252 . S
In169 O170 2.294 . S
In169 O171 2.326 . S
In169 O175 2.266 . S
In169 O176 2.326 1_565 S
In169 O177 2.266 . S
In169 O178 2.326 . S
In169 O180 2.294 . S
In169 O181 2.326 . S
O170 In169 2.294 . S
O170 C179 1.240 . S
O171 In169 2.326 . S
O171 C179 1.252 . S
C172 O175 1.252 . S
C172 O176 1.260 1_565 S
C173 O180 1.240 . S
C173 O181 1.252 . S
C174 O177 1.252 . S
C174 O178 1.260 . S
O175 In169 2.266 . S
O175 C172 1.252 . S
O176 In169 2.326 1_545 S
O176 C172 1.260 1_545 S
O177 In169 2.266 . S
O177 C174 1.252 . S
O178 In169 2.326 . S
O178 C174 1.260 . S
C179 O170 1.240 . S
C179 O171 1.252 . S
O180 In169 2.294 . S
O180 C173 1.240 . S
O181 In169 2.326 . S
O181 C173 1.252 . S
In182 O183 2.294 . S
In182 O184 2.326 . S
In182 O188 2.266 . S
In182 O189 2.326 . S
In182 O190 2.266 . S
In182 O191 2.326 . S
In182 O193 2.294 . S
In182 O194 2.326 . S
O183 In182 2.294 . S
O183 C192 1.240 . S
O184 In182 2.326 . S
O184 C192 1.252 . S
C185 O188 1.252 . S
C185 O189 1.260 . S
C186 O193 1.240 . S
C186 O194 1.252 . S
C187 O190 1.252 . S
C187 O191 1.260 . S
O188 In182 2.266 . S
O188 C185 1.252 . S
O189 In182 2.326 . S
O189 C185 1.260 . S
O190 In182 2.266 . S
O190 C187 1.252 . S
O191 In182 2.326 . S
O191 C187 1.260 . S
C192 O183 1.240 . S
C192 O184 1.252 . S
O193 In182 2.294 . S
O193 C186 1.240 . S
O194 In182 2.326 . S
O194 C186 1.252 . S
In195 O196 2.294 . S
In195 O197 2.326 . S
In195 O201 2.266 . S
In195 O202 2.326 1_545 S
In195 O203 2.266 . S
In195 O204 2.326 . S
In195 O206 2.294 . S
In195 O207 2.326 . S
O196 In195 2.294 . S
O196 C205 1.240 . S
O197 In195 2.326 . S
O197 C205 1.252 . S
C198 O201 1.252 . S
C198 O202 1.260 1_545 S
C199 O206 1.240 . S
C199 O207 1.252 . S
C200 O203 1.252 . S
C200 O204 1.260 . S
O201 In195 2.266 . S
O201 C198 1.252 . S
O202 In195 2.326 1_565 S
O202 C198 1.260 1_565 S
O203 In195 2.266 . S
O203 C200 1.252 . S
O204 In195 2.326 . S
O204 C200 1.260 . S
C205 O196 1.240 . S
C205 O197 1.252 . S
O206 In195 2.294 . S
O206 C199 1.240 . S
O207 In195 2.326 . S
O207 C199 1.252 . S
In208 O209 2.294 . S
In208 O210 2.326 . S
In208 O214 2.266 . S
In208 O215 2.326 . S
In208 O216 2.266 . S
In208 O217 2.326 . S
In208 O219 2.294 . S
In208 O220 2.326 . S
O209 In208 2.294 . S
O209 C218 1.240 . S
O210 In208 2.326 . S
O210 C218 1.252 . S
C211 O214 1.252 . S
C211 O215 1.260 . S
C212 O219 1.240 . S
C212 O220 1.252 . S
C213 O216 1.252 . S
C213 O217 1.260 . S
O214 In208 2.266 . S
O214 C211 1.252 . S
O215 In208 2.326 . S
O215 C211 1.260 . S
O216 In208 2.266 . S
O216 C213 1.252 . S
O217 In208 2.326 . S
O217 C213 1.260 . S
C218 O209 1.240 . S
C218 O210 1.252 . S
O219 In208 2.294 . S
O219 C212 1.240 . S
O220 In208 2.326 . S
O220 C212 1.252 . S
In221 O222 2.294 1_565 S
In221 O223 2.326 . S
In221 O227 2.266 1_565 S
In221 O228 2.326 1_565 S
In221 O229 2.266 . S
In221 O230 2.325 . S
In221 O232 2.294 . S
In221 O233 2.326 1_565 S
O222 In221 2.294 1_545 S
O222 C231 1.240 . S
O223 In221 2.326 . S
O223 C231 1.252 1_565 S
C224 O227 1.252 . S
C224 O228 1.260 . S
C225 O232 1.240 . S
C225 O233 1.252 1_565 S
C226 O229 1.252 . S
C226 O230 1.260 . S
O227 In221 2.266 1_545 S
O227 C224 1.252 . S
O228 In221 2.326 1_545 S
O228 C224 1.260 . S
O229 In221 2.266 . S
O229 C226 1.252 . S
O230 In221 2.325 . S
O230 C226 1.260 . S
C231 O222 1.240 . S
C231 O223 1.252 1_545 S
O232 In221 2.294 . S
O232 C225 1.240 . S
O233 In221 2.326 1_545 S
O233 C225 1.252 1_545 S
In234 O235 2.294 . S
In234 O236 2.326 . S
In234 O240 2.266 . S
In234 O241 2.326 1_556 S
In234 O242 2.266 . S
In234 O243 2.326 . S
In234 O245 2.294 . S
In234 O246 2.326 . S
O235 In234 2.294 . S
O235 C244 1.240 . S
O236 In234 2.326 . S
O236 C244 1.252 . S
C237 O240 1.252 . S
C237 O241 1.260 1_556 S
C238 O245 1.240 . S
C238 O246 1.252 . S
C239 O242 1.252 . S
C239 O243 1.260 . S
O240 In234 2.266 . S
O240 C237 1.252 . S
O241 In234 2.326 1_554 S
O241 C237 1.260 1_554 S
O242 In234 2.266 . S
O242 C239 1.252 . S
O243 In234 2.326 . S
O243 C239 1.260 . S
C244 O235 1.240 . S
C244 O236 1.252 . S
O245 In234 2.294 . S
O245 C238 1.240 . S
O246 In234 2.326 . S
O246 C238 1.252 . S
In247 O248 2.294 . S
In247 O249 2.326 1_545 S
In247 O253 2.266 . S
In247 O254 2.325 . S
In247 O255 2.266 1_545 S
In247 O256 2.326 1_546 S
In247 O258 2.294 1_545 S
In247 O259 2.326 . S
O248 In247 2.294 . S
O248 C257 1.255 . S
O249 In247 2.326 1_565 S
O249 C257 1.237 1_565 S
C250 O253 1.252 . S
C250 O254 1.260 . S
C251 O258 1.240 . S
C251 O259 1.252 1_565 S
C252 O255 1.252 1_554 S
C252 O256 1.260 . S
O253 In247 2.266 . S
O253 C250 1.252 . S
O254 In247 2.325 . S
O254 C250 1.260 . S
O255 In247 2.266 1_565 S
O255 C252 1.252 1_556 S
O256 In247 2.326 1_564 S
O256 C252 1.260 . S
C257 O248 1.255 . S
C257 O249 1.237 1_545 S
O258 In247 2.294 1_565 S
O258 C251 1.240 . S
O259 In247 2.326 . S
O259 C251 1.252 1_545 S
In260 O261 2.294 . S
In260 O262 2.326 . S
In260 O266 2.266 . S
In260 O267 2.326 . S
In260 O268 2.266 . S
In260 O269 2.326 . S
In260 O271 2.294 . S
In260 O272 2.326 . S
O261 In260 2.294 . S
O261 C270 1.240 . S
O262 In260 2.326 . S
O262 C270 1.252 . S
C263 O266 1.252 . S
C263 O267 1.260 . S
C264 O271 1.240 . S
C264 O272 1.252 . S
C265 O268 1.252 . S
C265 O269 1.260 . S
O266 In260 2.266 . S
O266 C263 1.252 . S
O267 In260 2.326 . S
O267 C263 1.260 . S
O268 In260 2.266 . S
O268 C265 1.252 . S
O269 In260 2.326 . S
O269 C265 1.260 . S
C270 O261 1.240 . S
C270 O262 1.252 . S
O271 In260 2.294 . S
O271 C264 1.240 . S
O272 In260 2.326 . S
O272 C264 1.252 . S
In273 O274 2.294 . S
In273 O275 2.326 1_556 S
In273 O279 2.266 . S
In273 O280 2.325 . S
In273 O281 2.266 1_556 S
In273 O282 2.326 1_556 S
In273 O284 2.294 1_556 S
In273 O285 2.326 . S
O274 In273 2.294 . S
O274 C283 1.240 . S
O275 In273 2.326 1_554 S
O275 C283 1.252 1_554 S
C276 O279 1.252 . S
C276 O280 1.260 . S
C277 O284 1.240 . S
C277 O285 1.252 1_554 S
C278 O281 1.252 . S
C278 O282 1.260 . S
O279 In273 2.266 . S
O279 C276 1.252 . S
O280 In273 2.325 . S
O280 C276 1.260 . S
O281 In273 2.266 1_554 S
O281 C278 1.252 . S
O282 In273 2.326 1_554 S
O282 C278 1.260 . S
C283 O274 1.240 . S
C283 O275 1.252 1_556 S
O284 In273 2.294 1_554 S
O284 C277 1.240 . S
O285 In273 2.326 . S
O285 C277 1.252 1_556 S
In286 O287 2.294 . S
In286 O288 2.326 1_556 S
In286 O292 2.266 . S
In286 O293 2.325 . S
In286 O294 2.266 1_556 S
In286 O295 2.326 1_556 S
In286 O297 2.294 1_556 S
In286 O298 2.326 . S
O287 In286 2.294 . S
O287 C296 1.240 1_556 S
O288 In286 2.326 1_554 S
O288 C296 1.252 . S
C289 O292 1.252 . S
C289 O293 1.260 . S
C290 O297 1.240 . S
C290 O298 1.252 1_554 S
C291 O294 1.252 . S
C291 O295 1.260 . S
O292 In286 2.266 . S
O292 C289 1.252 . S
O293 In286 2.325 . S
O293 C289 1.260 . S
O294 In286 2.266 1_554 S
O294 C291 1.252 . S
O295 In286 2.326 1_554 S
O295 C291 1.260 . S
C296 O287 1.240 1_554 S
C296 O288 1.252 . S
O297 In286 2.294 1_554 S
O297 C290 1.240 . S
O298 In286 2.326 . S
O298 C290 1.252 1_556 S
In299 O300 2.294 1_554 S
In299 O301 2.326 . S
In299 O305 2.266 1_554 S
In299 O306 2.326 1_654 S
In299 O307 2.266 . S
In299 O308 2.325 . S
In299 O310 2.294 . S
In299 O311 2.326 1_554 S
O300 In299 2.294 1_556 S
O300 C309 1.240 . S
O301 In299 2.326 . S
O301 C309 1.252 1_554 S
C302 O305 1.252 1_455 S
C302 O306 1.260 . S
C303 O310 1.255 . S
C303 O311 1.237 1_554 S
C304 O307 1.252 . S
C304 O308 1.260 . S
O305 In299 2.266 1_556 S
O305 C302 1.252 1_655 S
O306 In299 2.326 1_456 S
O306 C302 1.260 . S
O307 In299 2.266 . S
O307 C304 1.252 . S
O308 In299 2.325 . S
O308 C304 1.260 . S
C309 O300 1.240 . S
C309 O301 1.252 1_556 S
O310 In299 2.294 . S
O310 C303 1.255 . S
O311 In299 2.326 1_556 S
O311 C303 1.237 1_556 S
C224 C3 0.740 . S
C18 C213 1.056 . S
C31 C252 0.904 . S
C42 C237 1.195 1_554 S
C57 C278 0.740 . S
C68 C291 0.796 . S
C263 C83 1.056 . S
C146 C94 1.113 . S
C107 C44 0.740 . S
C16 C120 0.796 . S
C135 C5 0.975 . S
C148 C185 1.114 . S
C70 C161 1.268 1_554 S
C55 C174 0.975 . S
C187 C96 1.113 . S
C200 C81 0.796 . S
C122 C211 1.268 1_455 S
C133 C226 1.195 1_655 S
C109 C239 0.975 . S
C250 C302 0.904 . S
C198 C265 1.268 1_545 S
C276 C172 1.195 1_545 S
C159 C289 1.056 . S
C304 C29 0.904 . S
C4 C23 2.125 1_655 S
C43 C36 2.060 1_455 S
C62 C88 2.125 1_565 S
C69 C95 2.648 . S
C290 C108 2.125 1_554 S
C121 C153 2.648 . S
C270 C140 2.584 . S
C179 C166 2.584 . S
C192 C205 2.648 . S
C244 C212 2.584 . S
C231 C251 2.060 1_545 S
C309 C277 2.060 1_556 S
C30 C10 2.544 1_465 S
C17 C49 2.776 1_455 S
C257 C56 2.544 1_546 S
C75 C238 2.663 1_554 S
C82 C225 2.776 1_545 S
C218 C101 2.891 . S
C114 C303 2.544 1_456 S
C127 C134 2.663 1_455 S
C264 C147 2.891 . S
C160 C186 2.891 . S
C173 C199 2.663 1_565 S
C296 C283 2.776 1_554 S
