# Generated by pormake.
# Topology umu, (4)-cn, num edge types: 1
# Building blocks:
#     Node 0, Type 0, BuildingBlock: QUQFOY_clean_sbu_1, # of connection points: 4
#     Node 1, Type 0, BuildingBlock: QUQFOY_clean_sbu_1, # of connection points: 4
#     Node 2, Type 0, BuildingBlock: QUQFOY_clean_sbu_1, # of connection points: 4
#     Node 3, Type 0, BuildingBlock: QUQFOY_clean_sbu_1, # of connection points: 4
#     Node 4, Type 0, BuildingBlock: QUQFOY_clean_sbu_1, # of connection points: 4
#     Node 5, Type 0, BuildingBlock: QUQFOY_clean_sbu_1, # of connection points: 4
#     Node 6, Type 0, BuildingBlock: QUQFOY_clean_sbu_1, # of connection points: 4
#     Node 7, Type 0, BuildingBlock: QUQFOY_clean_sbu_1, # of connection points: 4
#     Node 8, Type 0, BuildingBlock: QUQFOY_clean_sbu_1, # of connection points: 4
#     Node 9, Type 0, BuildingBlock: QUQFOY_clean_sbu_1, # of connection points: 4
#     Node 10, Type 0, BuildingBlock: QUQFOY_clean_sbu_1, # of connection points: 4
#     Node 11, Type 0, BuildingBlock: QUQFOY_clean_sbu_1, # of connection points: 4
#     Node 12, Type 0, BuildingBlock: QUQFOY_clean_sbu_1, # of connection points: 4
#     Node 13, Type 0, BuildingBlock: QUQFOY_clean_sbu_1, # of connection points: 4
#     Node 14, Type 0, BuildingBlock: QUQFOY_clean_sbu_1, # of connection points: 4
#     Node 15, Type 0, BuildingBlock: QUQFOY_clean_sbu_1, # of connection points: 4
#     Node 16, Type 0, BuildingBlock: QUQFOY_clean_sbu_1, # of connection points: 4
#     Node 17, Type 0, BuildingBlock: QUQFOY_clean_sbu_1, # of connection points: 4
#     Node 18, Type 0, BuildingBlock: QUQFOY_clean_sbu_1, # of connection points: 4
#     Node 19, Type 0, BuildingBlock: QUQFOY_clean_sbu_1, # of connection points: 4
#     Node 20, Type 0, BuildingBlock: QUQFOY_clean_sbu_1, # of connection points: 4
#     Node 21, Type 0, BuildingBlock: QUQFOY_clean_sbu_1, # of connection points: 4
#     Node 22, Type 0, BuildingBlock: QUQFOY_clean_sbu_1, # of connection points: 4
#     Node 23, Type 0, BuildingBlock: QUQFOY_clean_sbu_1, # of connection points: 4
#     Node 24, Type 0, BuildingBlock: QUQFOY_clean_sbu_1, # of connection points: 4
#     Node 25, Type 0, BuildingBlock: QUQFOY_clean_sbu_1, # of connection points: 4
#     Node 26, Type 0, BuildingBlock: QUQFOY_clean_sbu_1, # of connection points: 4
#     Node 27, Type 0, BuildingBlock: QUQFOY_clean_sbu_1, # of connection points: 4
#     Node 28, Type 0, BuildingBlock: QUQFOY_clean_sbu_1, # of connection points: 4
#     Node 29, Type 0, BuildingBlock: QUQFOY_clean_sbu_1, # of connection points: 4
#     Node 30, Type 0, BuildingBlock: QUQFOY_clean_sbu_1, # of connection points: 4
#     Node 31, Type 0, BuildingBlock: QUQFOY_clean_sbu_1, # of connection points: 4
#     Edge 32, Type (0, 0), BuildingBlock: UVAHIK_clean_linker_0, # of connection points: 2
#     Edge 33, Type (0, 0), BuildingBlock: UVAHIK_clean_linker_0, # of connection points: 2
#     Edge 34, Type (0, 0), BuildingBlock: UVAHIK_clean_linker_0, # of connection points: 2
#     Edge 35, Type (0, 0), BuildingBlock: UVAHIK_clean_linker_0, # of connection points: 2
#     Edge 36, Type (0, 0), BuildingBlock: UVAHIK_clean_linker_0, # of connection points: 2
#     Edge 37, Type (0, 0), BuildingBlock: UVAHIK_clean_linker_0, # of connection points: 2
#     Edge 38, Type (0, 0), BuildingBlock: UVAHIK_clean_linker_0, # of connection points: 2
#     Edge 39, Type (0, 0), BuildingBlock: UVAHIK_clean_linker_0, # of connection points: 2
#     Edge 40, Type (0, 0), BuildingBlock: UVAHIK_clean_linker_0, # of connection points: 2
#     Edge 41, Type (0, 0), BuildingBlock: UVAHIK_clean_linker_0, # of connection points: 2
#     Edge 42, Type (0, 0), BuildingBlock: UVAHIK_clean_linker_0, # of connection points: 2
#     Edge 43, Type (0, 0), BuildingBlock: UVAHIK_clean_linker_0, # of connection points: 2
#     Edge 44, Type (0, 0), BuildingBlock: UVAHIK_clean_linker_0, # of connection points: 2
#     Edge 45, Type (0, 0), BuildingBlock: UVAHIK_clean_linker_0, # of connection points: 2
#     Edge 46, Type (0, 0), BuildingBlock: UVAHIK_clean_linker_0, # of connection points: 2
#     Edge 47, Type (0, 0), BuildingBlock: UVAHIK_clean_linker_0, # of connection points: 2
#     Edge 48, Type (0, 0), BuildingBlock: UVAHIK_clean_linker_0, # of connection points: 2
#     Edge 49, Type (0, 0), BuildingBlock: UVAHIK_clean_linker_0, # of connection points: 2
#     Edge 50, Type (0, 0), BuildingBlock: UVAHIK_clean_linker_0, # of connection points: 2
#     Edge 51, Type (0, 0), BuildingBlock: UVAHIK_clean_linker_0, # of connection points: 2
#     Edge 52, Type (0, 0), BuildingBlock: UVAHIK_clean_linker_0, # of connection points: 2
#     Edge 53, Type (0, 0), BuildingBlock: UVAHIK_clean_linker_0, # of connection points: 2
#     Edge 54, Type (0, 0), BuildingBlock: UVAHIK_clean_linker_0, # of connection points: 2
#     Edge 55, Type (0, 0), BuildingBlock: UVAHIK_clean_linker_0, # of connection points: 2
#     Edge 56, Type (0, 0), BuildingBlock: UVAHIK_clean_linker_0, # of connection points: 2
#     Edge 57, Type (0, 0), BuildingBlock: UVAHIK_clean_linker_0, # of connection points: 2
#     Edge 58, Type (0, 0), BuildingBlock: UVAHIK_clean_linker_0, # of connection points: 2
#     Edge 59, Type (0, 0), BuildingBlock: UVAHIK_clean_linker_0, # of connection points: 2
#     Edge 60, Type (0, 0), BuildingBlock: UVAHIK_clean_linker_0, # of connection points: 2
#     Edge 61, Type (0, 0), BuildingBlock: UVAHIK_clean_linker_0, # of connection points: 2
#     Edge 62, Type (0, 0), BuildingBlock: UVAHIK_clean_linker_0, # of connection points: 2
#     Edge 63, Type (0, 0), BuildingBlock: UVAHIK_clean_linker_0, # of connection points: 2
#     Edge 64, Type (0, 0), BuildingBlock: UVAHIK_clean_linker_0, # of connection points: 2
#     Edge 65, Type (0, 0), BuildingBlock: UVAHIK_clean_linker_0, # of connection points: 2
#     Edge 66, Type (0, 0), BuildingBlock: UVAHIK_clean_linker_0, # of connection points: 2
#     Edge 67, Type (0, 0), BuildingBlock: UVAHIK_clean_linker_0, # of connection points: 2
#     Edge 68, Type (0, 0), BuildingBlock: UVAHIK_clean_linker_0, # of connection points: 2
#     Edge 69, Type (0, 0), BuildingBlock: UVAHIK_clean_linker_0, # of connection points: 2
#     Edge 70, Type (0, 0), BuildingBlock: UVAHIK_clean_linker_0, # of connection points: 2
#     Edge 71, Type (0, 0), BuildingBlock: UVAHIK_clean_linker_0, # of connection points: 2
#     Edge 72, Type (0, 0), BuildingBlock: UVAHIK_clean_linker_0, # of connection points: 2
#     Edge 73, Type (0, 0), BuildingBlock: UVAHIK_clean_linker_0, # of connection points: 2
#     Edge 74, Type (0, 0), BuildingBlock: UVAHIK_clean_linker_0, # of connection points: 2
#     Edge 75, Type (0, 0), BuildingBlock: UVAHIK_clean_linker_0, # of connection points: 2
#     Edge 76, Type (0, 0), BuildingBlock: UVAHIK_clean_linker_0, # of connection points: 2
#     Edge 77, Type (0, 0), BuildingBlock: UVAHIK_clean_linker_0, # of connection points: 2
#     Edge 78, Type (0, 0), BuildingBlock: UVAHIK_clean_linker_0, # of connection points: 2
#     Edge 79, Type (0, 0), BuildingBlock: UVAHIK_clean_linker_0, # of connection points: 2
#     Edge 80, Type (0, 0), BuildingBlock: UVAHIK_clean_linker_0, # of connection points: 2
#     Edge 81, Type (0, 0), BuildingBlock: UVAHIK_clean_linker_0, # of connection points: 2
#     Edge 82, Type (0, 0), BuildingBlock: UVAHIK_clean_linker_0, # of connection points: 2
#     Edge 83, Type (0, 0), BuildingBlock: UVAHIK_clean_linker_0, # of connection points: 2
#     Edge 84, Type (0, 0), BuildingBlock: UVAHIK_clean_linker_0, # of connection points: 2
#     Edge 85, Type (0, 0), BuildingBlock: UVAHIK_clean_linker_0, # of connection points: 2
#     Edge 86, Type (0, 0), BuildingBlock: UVAHIK_clean_linker_0, # of connection points: 2
#     Edge 87, Type (0, 0), BuildingBlock: UVAHIK_clean_linker_0, # of connection points: 2
#     Edge 88, Type (0, 0), BuildingBlock: UVAHIK_clean_linker_0, # of connection points: 2
#     Edge 89, Type (0, 0), BuildingBlock: UVAHIK_clean_linker_0, # of connection points: 2
#     Edge 90, Type (0, 0), BuildingBlock: UVAHIK_clean_linker_0, # of connection points: 2
#     Edge 91, Type (0, 0), BuildingBlock: UVAHIK_clean_linker_0, # of connection points: 2
#     Edge 92, Type (0, 0), BuildingBlock: UVAHIK_clean_linker_0, # of connection points: 2
#     Edge 93, Type (0, 0), BuildingBlock: UVAHIK_clean_linker_0, # of connection points: 2
#     Edge 94, Type (0, 0), BuildingBlock: UVAHIK_clean_linker_0, # of connection points: 2
#     Edge 95, Type (0, 0), BuildingBlock: UVAHIK_clean_linker_0, # of connection points: 2
# Relax obj value: 0.038
# Max RMSD: 0.069
# Mean RMSD: 0.069
data_MOF--net-umu--node1-QUQFOY_clean_sbu_1--edge1-UVAHIK_clean_linker_0
_symmetry_space_group_name_H-M    P1
_symmetry_Int_Tables_number       1
_symmetry_cell_setting            triclinic
loop_
_symmetry_equiv_pos_as_xyz
'x, y, z'
_cell_length_a     109.35087
_cell_length_b     109.35241
_cell_length_c     36.210148
_cell_angle_alpha  90.003311
_cell_angle_beta   89.995947
_cell_angle_gamma 89.996555
loop_
_atom_site_label
_atom_site_type_symbol
_atom_site_fract_x
_atom_site_fract_y
_atom_site_fract_z
_atom_type_partial_charge
O0 O 0.21195 0.16248 0.02054 0.0
Cd1 Cd 0.19922 0.16732 0.05962 0.0
Cd2 Cd 0.22267 0.1675 0.09991 0.0
O3 O 0.22951 0.16112 0.05031 0.0
O4 O 0.18469 0.16738 0.02646 0.0
O5 O 0.18647 0.15461 0.07325 0.0
C6 C 0.18044 0.15822 0.04461 0.0
C7 C 0.22893 0.1587 0.15563 0.0
C8 C 0.22332 0.16012 0.02079 0.0
C9 C 0.20779 0.19092 0.09524 0.0
O10 O 0.21783 0.1857 0.10336 0.0
O11 O 0.19916 0.18499 0.07995 0.0
O12 O 0.23618 0.16547 0.1364 0.0
O13 O 0.21815 0.15655 0.14257 0.0
O14 O 0.08845 0.96739 0.2666 0.0
Cd15 Cd 0.08601 0.95573 0.31052 0.0
Cd16 Cd 0.08713 0.97853 0.34647 0.0
O17 O 0.09322 0.98448 0.29548 0.0
O18 O 0.08672 0.93972 0.28448 0.0
O19 O 0.10066 0.94552 0.32491 0.0
C20 C 0.09695 0.93763 0.30083 0.0
C21 C 0.09687 0.98466 0.40079 0.0
C22 C 0.0921 0.97841 0.26575 0.0
C23 C 0.06344 0.96442 0.34933 0.0
O24 O 0.06874 0.9747 0.35275 0.0
O25 O 0.06917 0.95528 0.3362 0.0
O26 O 0.09036 0.99217 0.38165 0.0
O27 O 0.09831 0.97369 0.3882 0.0
O28 O 0.28805 0.84626 0.51963 0.0
Cd29 Cd 0.29984 0.84386 0.56317 0.0
Cd30 Cd 0.27679 0.84447 0.59963 0.0
O31 O 0.27087 0.8506 0.54864 0.0
O32 O 0.31568 0.84445 0.53613 0.0
O33 O 0.31026 0.85847 0.57676 0.0
C34 C 0.31794 0.85469 0.5522 0.0
C35 C 0.26957 0.85367 0.6537 0.0
C36 C 0.27697 0.84969 0.51889 0.0
C37 C 0.29146 0.82103 0.60136 0.0
O38 O 0.2811 0.82616 0.60522 0.0
O39 O 0.30048 0.82695 0.58831 0.0
O40 O 0.26259 0.847 0.63329 0.0
O41 O 0.28066 0.85551 0.64274 0.0
O42 O 0.4109 0.04492 0.76608 0.0
Cd43 Cd 0.41338 0.05678 0.80947 0.0
Cd44 Cd 0.4126 0.03404 0.84621 0.0
O45 O 0.40663 0.02779 0.79542 0.0
O46 O 0.41264 0.07262 0.78253 0.0
O47 O 0.39877 0.06711 0.82356 0.0
C48 C 0.40245 0.07484 0.79897 0.0
C49 C 0.40284 0.028 0.90062 0.0
C50 C 0.40752 0.03382 0.76554 0.0
C51 C 0.43612 0.04847 0.84824 0.0
O52 O 0.43093 0.03816 0.85238 0.0
O53 O 0.43029 0.05746 0.83463 0.0
O54 O 0.4095 0.0205 0.88187 0.0
O55 O 0.4013 0.0389 0.88765 0.0
O56 O 0.21171 0.84856 0.15896 0.0
Cd57 Cd 0.19965 0.84499 0.11681 0.0
Cd58 Cd 0.22295 0.84477 0.07985 0.0
O59 O 0.22935 0.85093 0.13025 0.0
O60 O 0.18413 0.84542 0.14551 0.0
O61 O 0.18844 0.85893 0.10223 0.0
C62 C 0.18121 0.85525 0.12813 0.0
C63 C 0.22927 0.8539 0.02474 0.0
C64 C 0.22301 0.85119 0.15965 0.0
C65 C 0.20799 0.8215 0.08107 0.0
O66 O 0.2183 0.82654 0.07532 0.0
O67 O 0.19917 0.82759 0.09468 0.0
O68 O 0.23657 0.84718 0.04398 0.0
O69 O 0.21842 0.85586 0.03757 0.0
O70 O 0.40646 0.9688 0.40448 0.0
Cd71 Cd 0.40956 0.9569 0.36159 0.0
Cd72 Cd 0.41002 0.98051 0.32555 0.0
O73 O 0.40411 0.98658 0.37661 0.0
O74 O 0.40922 0.94129 0.38983 0.0
O75 O 0.39541 0.94585 0.34772 0.0
C76 C 0.39924 0.9385 0.37311 0.0
C77 C 0.40108 0.98798 0.27143 0.0
C78 C 0.40395 0.98012 0.40577 0.0
C79 C 0.433 0.96508 0.32514 0.0
O80 O 0.42814 0.97553 0.32026 0.0
O81 O 0.4268 0.95628 0.33841 0.0
O82 O 0.40797 0.99476 0.29179 0.0
O83 O 0.39887 0.97696 0.28247 0.0
O84 O 0.28816 0.16545 0.66054 0.0
Cd85 Cd 0.29976 0.16785 0.61649 0.0
Cd86 Cd 0.27657 0.16709 0.58096 0.0
O87 O 0.27092 0.16089 0.63218 0.0
O88 O 0.31571 0.16742 0.64289 0.0
O89 O 0.31024 0.15331 0.6026 0.0
C90 C 0.31801 0.1572 0.62675 0.0
C91 C 0.26929 0.15791 0.52697 0.0
C92 C 0.27712 0.16191 0.66171 0.0
C93 C 0.29111 0.19057 0.5783 0.0
O94 O 0.28073 0.18543 0.57516 0.0
O95 O 0.30022 0.18468 0.59092 0.0
O96 O 0.26229 0.16446 0.54765 0.0
O97 O 0.28042 0.15613 0.53767 0.0
O98 O 0.09207 0.04305 0.90597 0.0
Cd99 Cd 0.08744 0.05538 0.86551 0.0
Cd100 Cd 0.0885 0.03172 0.82634 0.0
O101 O 0.09476 0.02553 0.87685 0.0
O102 O 0.08681 0.07021 0.89733 0.0
O103 O 0.10019 0.06811 0.85224 0.0
C104 C 0.0962 0.07435 0.88 0.0
C105 C 0.0975 0.02454 0.77188 0.0
C106 C 0.09502 0.03183 0.90631 0.0
C107 C 0.06454 0.04589 0.8283 0.0
O108 O 0.07019 0.03597 0.82146 0.0
O109 O 0.07002 0.05486 0.8434 0.0
O110 O 0.09085 0.01757 0.79234 0.0
O111 O 0.09942 0.03561 0.78293 0.0
O112 O 0.78796 0.84655 0.16003 0.0
Cd113 Cd 0.79986 0.84416 0.11675 0.0
Cd114 Cd 0.77676 0.84476 0.07997 0.0
O115 O 0.77075 0.85078 0.131 0.0
O116 O 0.81554 0.84463 0.14458 0.0
O117 O 0.81048 0.85869 0.10368 0.0
C118 C 0.81798 0.85485 0.12867 0.0
C119 C 0.76948 0.85395 0.02597 0.0
C120 C 0.77685 0.84989 0.16076 0.0
C121 C 0.79156 0.82138 0.07806 0.0
O122 O 0.78119 0.82649 0.0741 0.0
O123 O 0.80054 0.82729 0.09142 0.0
O124 O 0.76254 0.84722 0.04631 0.0
O125 O 0.78056 0.85588 0.03697 0.0
O126 O 0.91107 0.04415 0.91019 0.0
Cd127 Cd 0.912 0.05573 0.86572 0.0
Cd128 Cd 0.90992 0.03323 0.83101 0.0
O129 O 0.90427 0.02748 0.88289 0.0
O130 O 0.91123 0.07182 0.89133 0.0
O131 O 0.89677 0.0654 0.85352 0.0
C132 C 0.90065 0.0735 0.87667 0.0
C133 C 0.89991 0.02692 0.77721 0.0
C134 C 0.90685 0.03336 0.91215 0.0
C135 C 0.93387 0.04701 0.8254 0.0
O136 O 0.92836 0.03678 0.82342 0.0
O137 O 0.92838 0.05638 0.83787 0.0
O138 O 0.90641 0.01944 0.79651 0.0
O139 O 0.89857 0.03794 0.78949 0.0
O140 O 0.7104 0.16584 0.66232 0.0
Cd141 Cd 0.69954 0.16733 0.61631 0.0
Cd142 Cd 0.72221 0.16621 0.58368 0.0
O143 O 0.72772 0.16054 0.63564 0.0
O144 O 0.68292 0.16533 0.63782 0.0
O145 O 0.69133 0.15165 0.60071 0.0
C146 C 0.68243 0.15477 0.62222 0.0
C147 C 0.72849 0.15622 0.52995 0.0
C148 C 0.72137 0.16212 0.66466 0.0
C149 C 0.70813 0.18985 0.57835 0.0
O150 O 0.71846 0.18455 0.5763 0.0
O151 O 0.69884 0.1841 0.5903 0.0
O152 O 0.73599 0.1627 0.54923 0.0
O153 O 0.71747 0.15488 0.54225 0.0
O154 O 0.58979 0.96812 0.40773 0.0
Cd155 Cd 0.58665 0.95567 0.36626 0.0
Cd156 Cd 0.58699 0.97834 0.32656 0.0
O157 O 0.59296 0.98518 0.37665 0.0
O158 O 0.58734 0.94023 0.39531 0.0
O159 O 0.60088 0.94478 0.35231 0.0
C160 C 0.59728 0.9375 0.3782 0.0
C161 C 0.59632 0.98446 0.27144 0.0
C162 C 0.59271 0.97935 0.40701 0.0
C163 C 0.56354 0.96365 0.32807 0.0
O164 O 0.56874 0.97382 0.32158 0.0
O165 O 0.56942 0.95492 0.343 0.0
O166 O 0.58952 0.99181 0.29021 0.0
O167 O 0.59822 0.97365 0.28469 0.0
O168 O 0.7868 0.16415 0.02427 0.0
Cd169 Cd 0.79913 0.1668 0.06633 0.0
Cd170 Cd 0.77611 0.16672 0.10525 0.0
O171 O 0.76957 0.16101 0.05453 0.0
O172 O 0.81459 0.16619 0.03731 0.0
O173 O 0.80989 0.15234 0.07923 0.0
C174 C 0.8172 0.15608 0.05361 0.0
C175 C 0.76876 0.1576 0.15933 0.0
C176 C 0.77553 0.16136 0.02442 0.0
C177 C 0.79138 0.18985 0.10535 0.0
O178 O 0.78104 0.18485 0.11098 0.0
O179 O 0.80008 0.18384 0.09073 0.0
O180 O 0.76197 0.16463 0.13947 0.0
O181 O 0.77973 0.15538 0.14791 0.0
O182 O 0.59014 0.04474 0.76922 0.0
Cd183 Cd 0.58916 0.05551 0.81559 0.0
Cd184 Cd 0.58917 0.0324 0.84731 0.0
O185 O 0.59481 0.02711 0.79512 0.0
O186 O 0.5912 0.07211 0.79387 0.0
O187 O 0.60504 0.06359 0.83017 0.0
C188 C 0.60185 0.07252 0.8089 0.0
C189 C 0.59854 0.02479 0.90054 0.0
C190 C 0.59346 0.03366 0.76639 0.0
C191 C 0.56629 0.04759 0.85344 0.0
O192 O 0.57099 0.03696 0.85436 0.0
O193 O 0.57257 0.05669 0.84249 0.0
O194 O 0.59179 0.01795 0.87994 0.0
O195 O 0.60045 0.03593 0.89002 0.0
O196 O 0.7115 0.84821 0.52075 0.0
Cd197 Cd 0.69951 0.84469 0.56313 0.0
Cd198 Cd 0.72278 0.84468 0.59996 0.0
O199 O 0.7291 0.85083 0.54946 0.0
O200 O 0.68387 0.84516 0.53497 0.0
O201 O 0.68843 0.85869 0.57795 0.0
C202 C 0.68107 0.85502 0.55236 0.0
C203 C 0.72911 0.85388 0.65498 0.0
C204 C 0.72278 0.85095 0.52003 0.0
C205 C 0.70799 0.82132 0.59917 0.0
O206 O 0.71828 0.82643 0.60468 0.0
O207 O 0.6991 0.82733 0.5856 0.0
O208 O 0.73642 0.8472 0.63569 0.0
O209 O 0.71823 0.85577 0.64224 0.0
O210 O 0.91055 0.9679 0.27454 0.0
Cd211 Cd 0.91114 0.9563 0.31904 0.0
Cd212 Cd 0.90981 0.97922 0.35332 0.0
O213 O 0.90414 0.98481 0.30134 0.0
O214 O 0.91077 0.94039 0.29235 0.0
O215 O 0.89594 0.94632 0.32953 0.0
C216 C 0.9001 0.93845 0.30612 0.0
C217 C 0.90019 0.98655 0.40663 0.0
C218 C 0.90657 0.97877 0.27226 0.0
C219 C 0.93321 0.96461 0.35948 0.0
O220 O 0.92816 0.97509 0.36055 0.0
O221 O 0.92731 0.95537 0.34783 0.0
O222 O 0.90689 0.99353 0.38634 0.0
O223 O 0.89849 0.97541 0.39585 0.0
O224 O 0.71235 0.6637 0.52069 0.0
Cd225 Cd 0.70044 0.66725 0.5632 0.0
Cd226 Cd 0.72408 0.66749 0.59952 0.0
O227 O 0.73014 0.66145 0.54862 0.0
O228 O 0.68493 0.66711 0.53443 0.0
O229 O 0.689 0.65344 0.57743 0.0
C230 C 0.68185 0.65729 0.55156 0.0
C231 C 0.73138 0.65842 0.65361 0.0
C232 C 0.72366 0.66115 0.5195 0.0
C233 C 0.70892 0.69067 0.59933 0.0
O234 O 0.71928 0.68568 0.60467 0.0
O235 O 0.70009 0.68458 0.58579 0.0
O236 O 0.73826 0.66527 0.63343 0.0
O237 O 0.72035 0.65636 0.64247 0.0
O238 O 0.59328 0.46844 0.77502 0.0
Cd239 Cd 0.58934 0.45559 0.8147 0.0
Cd240 Cd 0.5885 0.47923 0.85436 0.0
O241 O 0.59442 0.48611 0.80426 0.0
O242 O 0.58921 0.4411 0.78139 0.0
O243 O 0.60258 0.44317 0.8265 0.0
C244 C 0.59873 0.43707 0.79828 0.0
C245 C 0.59721 0.48592 0.90978 0.0
C246 C 0.59531 0.47986 0.77479 0.0
C247 C 0.56571 0.4634 0.85173 0.0
O248 O 0.5705 0.47375 0.85863 0.0
O249 O 0.57194 0.4549 0.83685 0.0
O250 O 0.59019 0.49291 0.89049 0.0
O251 O 0.59971 0.47518 0.89686 0.0
O252 O 0.78907 0.34344 0.01612 0.0
Cd253 Cd 0.79986 0.34264 0.06244 0.0
Cd254 Cd 0.77726 0.34322 0.09531 0.0
O255 O 0.77191 0.34897 0.04329 0.0
O256 O 0.81648 0.34523 0.04153 0.0
O257 O 0.80734 0.35871 0.07778 0.0
C258 C 0.81647 0.35586 0.05685 0.0
C259 C 0.76994 0.35297 0.14827 0.0
C260 C 0.77812 0.34723 0.01406 0.0
C261 C 0.79203 0.32007 0.10144 0.0
O262 O 0.78148 0.32495 0.10279 0.0
O263 O 0.80114 0.32615 0.08973 0.0
O264 O 0.76294 0.34624 0.12809 0.0
O265 O 0.78109 0.3546 0.13757 0.0
O266 O 0.90889 0.54306 0.27107 0.0
Cd267 Cd 0.91162 0.55547 0.31285 0.0
Cd268 Cd 0.91217 0.53207 0.35091 0.0
O269 O 0.90719 0.52533 0.29972 0.0
O270 O 0.91107 0.57073 0.28297 0.0
O271 O 0.8973 0.56646 0.32552 0.0
C272 C 0.90104 0.57357 0.2994 0.0
C273 C 0.90296 0.5244 0.40448 0.0
C274 C 0.90689 0.53163 0.27024 0.0
C275 C 0.93485 0.54817 0.3518 0.0
O276 O 0.93 0.5378 0.35795 0.0
O277 O 0.92875 0.55667 0.33646 0.0
O278 O 0.91074 0.51806 0.38581 0.0
O279 O 0.9 0.53506 0.39193 0.0
O280 O 0.71362 0.34848 0.65429 0.0
Cd281 Cd 0.7009 0.34385 0.61492 0.0
Cd282 Cd 0.72407 0.34433 0.57425 0.0
O283 O 0.73102 0.35042 0.62401 0.0
O284 O 0.68629 0.34374 0.64773 0.0
O285 O 0.68829 0.35671 0.60152 0.0
C286 C 0.68217 0.35303 0.62991 0.0
C287 C 0.73011 0.35352 0.51889 0.0
C288 C 0.72493 0.35104 0.65383 0.0
C289 C 0.70962 0.32062 0.57796 0.0
O290 O 0.71952 0.32609 0.56984 0.0
O291 O 0.70092 0.32628 0.59384 0.0
O292 O 0.73748 0.34673 0.53766 0.0
O293 O 0.71933 0.35548 0.53226 0.0
O294 O 0.90952 0.46627 0.90779 0.0
Cd295 Cd 0.91024 0.45486 0.8628 0.0
Cd296 Cd 0.90939 0.4776 0.82778 0.0
O297 O 0.90459 0.48354 0.8801 0.0
O298 O 0.90816 0.43853 0.88618 0.0
O299 O 0.89428 0.44675 0.84936 0.0
C300 C 0.89748 0.43802 0.87136 0.0
C301 C 0.8999 0.48569 0.77523 0.0
C302 C 0.90625 0.4774 0.90949 0.0
C303 C 0.9325 0.46237 0.82167 0.0
O304 O 0.9274 0.47277 0.81879 0.0
O305 O 0.92672 0.45339 0.83549 0.0
O306 O 0.90738 0.49206 0.79487 0.0
O307 O 0.89727 0.47479 0.78651 0.0
O308 O 0.78821 0.66568 0.15879 0.0
Cd309 Cd 0.80008 0.66821 0.11547 0.0
Cd310 Cd 0.77726 0.66755 0.07896 0.0
O311 O 0.77101 0.66154 0.12968 0.0
O312 O 0.81583 0.66765 0.14292 0.0
O313 O 0.81065 0.65372 0.10172 0.0
C314 C 0.81823 0.65749 0.12659 0.0
C315 C 0.77119 0.65792 0.02441 0.0
C316 C 0.7771 0.66237 0.15947 0.0
C317 C 0.79174 0.69104 0.0772 0.0
O318 O 0.78141 0.68588 0.07311 0.0
O319 O 0.80074 0.68515 0.09054 0.0
O320 O 0.76371 0.66455 0.0433 0.0
O321 O 0.7821 0.65633 0.03734 0.0
O322 O 0.58795 0.54532 0.415 0.0
Cd323 Cd 0.58557 0.55718 0.37164 0.0
Cd324 Cd 0.5861 0.53406 0.33474 0.0
O325 O 0.59201 0.52806 0.38599 0.0
O326 O 0.58625 0.57295 0.39895 0.0
O327 O 0.60016 0.56761 0.35788 0.0
C328 C 0.59643 0.57526 0.38264 0.0
C329 C 0.59538 0.52676 0.28086 0.0
C330 C 0.5912 0.53418 0.41575 0.0
C331 C 0.56279 0.54902 0.33259 0.0
O332 O 0.56787 0.53865 0.32835 0.0
O333 O 0.56869 0.55793 0.34644 0.0
O334 O 0.58858 0.51984 0.30103 0.0
O335 O 0.59733 0.53782 0.29198 0.0
O336 O 0.28882 0.34438 0.66104 0.0
Cd337 Cd 0.29968 0.34331 0.61485 0.0
Cd338 Cd 0.27732 0.34421 0.58209 0.0
O339 O 0.27176 0.35009 0.6337 0.0
O340 O 0.31631 0.34555 0.63601 0.0
O341 O 0.30754 0.35918 0.59943 0.0
C342 C 0.31658 0.35614 0.6205 0.0
C343 C 0.27129 0.35427 0.52831 0.0
C344 C 0.27791 0.3483 0.66299 0.0
C345 C 0.29151 0.32079 0.57628 0.0
O346 O 0.28103 0.32583 0.57504 0.0
O347 O 0.30072 0.32678 0.58771 0.0
O348 O 0.26368 0.34781 0.5473 0.0
O349 O 0.28229 0.35549 0.54086 0.0
O350 O 0.40657 0.54097 0.39985 0.0
Cd351 Cd 0.40925 0.55369 0.35886 0.0
Cd352 Cd 0.4105 0.53025 0.3198 0.0
O353 O 0.40557 0.52326 0.37068 0.0
O354 O 0.40871 0.56874 0.38977 0.0
O355 O 0.39489 0.56476 0.34713 0.0
C356 C 0.39868 0.57171 0.37359 0.0
C357 C 0.40184 0.52226 0.26581 0.0
C358 C 0.40494 0.52947 0.40028 0.0
C359 C 0.43276 0.54692 0.32012 0.0
O360 O 0.42818 0.53646 0.31354 0.0
O361 O 0.42642 0.55523 0.33551 0.0
O362 O 0.40971 0.51619 0.2849 0.0
O363 O 0.39846 0.53282 0.27819 0.0
O364 O 0.21244 0.66247 0.15614 0.0
Cd365 Cd 0.19981 0.6671 0.11657 0.0
Cd366 Cd 0.22354 0.66752 0.07695 0.0
O367 O 0.2301 0.66115 0.1269 0.0
O368 O 0.18524 0.66726 0.14951 0.0
O369 O 0.18717 0.65422 0.10348 0.0
C370 C 0.1811 0.65793 0.13192 0.0
C371 C 0.23081 0.65897 0.02197 0.0
C372 C 0.22381 0.66016 0.15624 0.0
C373 C 0.20831 0.69075 0.08102 0.0
O374 O 0.21847 0.68566 0.07341 0.0
O375 O 0.19967 0.68471 0.09587 0.0
O376 O 0.23761 0.66584 0.04231 0.0
O377 O 0.21986 0.65663 0.03333 0.0
O378 O 0.08718 0.46488 0.91463 0.0
Cd379 Cd 0.08502 0.45347 0.8701 0.0
Cd380 Cd 0.08658 0.47632 0.83453 0.0
O381 O 0.09252 0.48189 0.88622 0.0
O382 O 0.08604 0.43726 0.89487 0.0
O383 O 0.09989 0.44372 0.85502 0.0
C384 C 0.09634 0.43556 0.87848 0.0
C385 C 0.09619 0.48348 0.78103 0.0
C386 C 0.09105 0.47582 0.91583 0.0
C387 C 0.06273 0.46228 0.83071 0.0
O388 O 0.06822 0.47248 0.82732 0.0
O389 O 0.06824 0.45308 0.84425 0.0
O390 O 0.08965 0.49057 0.80143 0.0
O391 O 0.09775 0.47232 0.79181 0.0
O392 O 0.28843 0.66559 0.51644 0.0
Cd393 Cd 0.30001 0.66782 0.56061 0.0
Cd394 Cd 0.27723 0.6671 0.59594 0.0
O395 O 0.27128 0.66089 0.54507 0.0
O396 O 0.31604 0.66681 0.53487 0.0
O397 O 0.30992 0.65298 0.57523 0.0
C398 C 0.31791 0.65654 0.55126 0.0
C399 C 0.27102 0.65764 0.65062 0.0
C400 C 0.2774 0.662 0.51541 0.0
C401 C 0.29161 0.69062 0.59837 0.0
O402 O 0.28123 0.68548 0.60157 0.0
O403 O 0.30071 0.6847 0.58586 0.0
O404 O 0.26355 0.66411 0.63119 0.0
O405 O 0.28198 0.65607 0.63811 0.0
O406 O 0.09318 0.54127 0.27491 0.0
Cd407 Cd 0.08888 0.55423 0.31392 0.0
Cd408 Cd 0.0879 0.53073 0.35449 0.0
O409 O 0.09384 0.52366 0.30465 0.0
O410 O 0.08901 0.56864 0.28031 0.0
O411 O 0.10192 0.56674 0.32669 0.0
C412 C 0.09831 0.57277 0.29805 0.0
C413 C 0.0966 0.52411 0.41001 0.0
C414 C 0.09505 0.52981 0.27511 0.0
C415 C 0.06509 0.54654 0.35045 0.0
O416 O 0.06992 0.5363 0.3585 0.0
O417 O 0.07131 0.5549 0.33485 0.0
O418 O 0.08951 0.51714 0.39093 0.0
O419 O 0.09914 0.53481 0.39689 0.0
O420 O 0.21324 0.34901 0.02358 0.0
Cd421 Cd 0.20089 0.34528 0.06481 0.0
Cd422 Cd 0.22434 0.34462 0.10321 0.0
O423 O 0.23088 0.35056 0.0528 0.0
O424 O 0.18566 0.34548 0.03468 0.0
O425 O 0.18928 0.35902 0.07841 0.0
C426 C 0.18237 0.35522 0.05188 0.0
C427 C 0.23162 0.35352 0.1576 0.0
C428 C 0.22462 0.35124 0.02331 0.0
C429 C 0.20889 0.32163 0.10104 0.0
O430 O 0.2192 0.32652 0.1078 0.0
O431 O 0.20029 0.32783 0.08659 0.0
O432 O 0.23841 0.3465 0.13769 0.0
O433 O 0.22067 0.35581 0.14612 0.0
O434 O 0.41274 0.46444 0.76296 0.0
Cd435 Cd 0.41323 0.45336 0.80875 0.0
Cd436 Cd 0.41278 0.47596 0.84246 0.0
O437 O 0.40781 0.48178 0.7902 0.0
O438 O 0.41064 0.43691 0.78676 0.0
O439 O 0.39707 0.44587 0.82308 0.0
C440 C 0.39997 0.43685 0.80178 0.0
C441 C 0.40298 0.48366 0.89493 0.0
C442 C 0.40944 0.47555 0.76095 0.0
C443 C 0.43567 0.46062 0.84926 0.0
O444 O 0.43082 0.47117 0.85132 0.0
O445 O 0.42962 0.45167 0.8363 0.0
O446 O 0.41043 0.49024 0.87581 0.0
O447 O 0.40061 0.47275 0.88323 0.0
C448 C 0.10056 0.08909 0.93082 0.0
C449 C 0.10287 0.08509 0.89454 0.0
C450 C 0.10787 0.09805 0.94709 0.0
C451 C 0.12676 0.12417 0.93386 0.0
H452 H 0.14651 0.11257 0.01566 0.0
C453 C 0.16621 0.15294 0.99336 0.0
C454 C 0.16975 0.15141 0.03036 0.0
C455 C 0.1571 0.14562 0.9779 0.0
C456 C 0.1409 0.1161 0.99348 0.0
H457 H 0.1143 0.08778 0.8463 0.0
H458 H 0.12687 0.10389 0.87464 0.0
H459 H 0.13222 0.09871 0.98549 0.0
H460 H 0.16613 0.14139 0.08074 0.0
H461 H 0.1497 0.12901 0.05444 0.0
H462 H 0.13495 0.14166 0.94242 0.0
C463 C 0.11946 0.09988 0.89037 0.0
C464 C 0.13281 0.10809 0.97597 0.0
C465 C 0.11229 0.09069 0.87424 0.0
C466 C 0.16362 0.14273 0.05208 0.0
C467 C 0.15429 0.13555 0.03679 0.0
C468 C 0.13464 0.13228 0.9519 0.0
C469 C 0.11746 0.10339 0.9272 0.0
C470 C 0.1258 0.11203 0.94581 0.0
C471 C 0.15108 0.13671 0.99921 0.0
C472 C 0.14197 0.12833 0.9817 0.0
H473 H 0.09342 0.08494 0.94732 0.0
H474 H 0.10617 0.10066 0.9755 0.0
H475 H 0.12131 0.1274 0.91085 0.0
H476 H 0.17083 0.15947 0.97571 0.0
H477 H 0.15516 0.14669 0.94878 0.0
C478 C 0.11701 0.92647 0.29959 0.0
C479 C 0.10468 0.92725 0.28891 0.0
C480 C 0.12476 0.91784 0.28325 0.0
C481 C 0.1403 0.90562 0.22411 0.0
H482 H 0.12975 0.87279 0.19915 0.0
C483 C 0.169 0.8747 0.12844 0.0
C484 C 0.17064 0.86262 0.14069 0.0
C485 C 0.16021 0.88223 0.14503 0.0
C486 C 0.13286 0.88191 0.20601 0.0
H487 H 0.09067 0.91914 0.25422 0.0
H488 H 0.10415 0.90418 0.22583 0.0
H489 H 0.11632 0.88602 0.23515 0.0
H490 H 0.16394 0.84878 0.17858 0.0
H491 H 0.14873 0.86186 0.20739 0.0
H492 H 0.15693 0.90144 0.19563 0.0
C493 C 0.10786 0.91017 0.24684 0.0
C494 C 0.12513 0.88952 0.22645 0.0
C495 C 0.10013 0.9188 0.26307 0.0
C496 C 0.16291 0.85805 0.16847 0.0
C497 C 0.15414 0.86554 0.18495 0.0
C498 C 0.14803 0.89801 0.20367 0.0
C499 C 0.12033 0.90979 0.25603 0.0
C500 C 0.12875 0.90147 0.23575 0.0
C501 C 0.15288 0.87781 0.17407 0.0
C502 C 0.1444 0.88606 0.19437 0.0
H503 H 0.12079 0.93286 0.3194 0.0
H504 H 0.13429 0.91763 0.2914 0.0
H505 H 0.14331 0.91483 0.2303 0.0
H506 H 0.17481 0.87849 0.10711 0.0
H507 H 0.15932 0.89158 0.13558 0.0
C508 C 0.39666 0.9201 0.41309 0.0
C509 C 0.39189 0.92796 0.38594 0.0
C510 C 0.38924 0.91136 0.42999 0.0
C511 C 0.37289 0.89022 0.45222 0.0
H512 H 0.34032 0.90092 0.47958 0.0
C513 C 0.33643 0.85775 0.51285 0.0
C514 C 0.32825 0.86236 0.53938 0.0
C515 C 0.34492 0.86542 0.49578 0.0
C516 C 0.34944 0.89784 0.47253 0.0
H517 H 0.37575 0.93238 0.35389 0.0
H518 H 0.36279 0.91693 0.38308 0.0
H519 H 0.35346 0.91446 0.44379 0.0
H520 H 0.32301 0.87852 0.5702 0.0
H521 H 0.33802 0.89193 0.54076 0.0
H522 H 0.36896 0.87371 0.48166 0.0
C523 C 0.37224 0.9177 0.39171 0.0
C524 C 0.3569 0.90552 0.45144 0.0
C525 C 0.37969 0.92646 0.37471 0.0
C526 C 0.32918 0.87469 0.54987 0.0
C527 C 0.33769 0.8824 0.53271 0.0
C528 C 0.36543 0.88254 0.47332 0.0
C529 C 0.37686 0.91024 0.42017 0.0
C530 C 0.36872 0.90181 0.44104 0.0
C531 C 0.34545 0.8779 0.50482 0.0
C532 C 0.35361 0.88626 0.48375 0.0
H533 H 0.40603 0.921 0.4224 0.0
H534 H 0.39309 0.90585 0.45197 0.0
H535 H 0.38191 0.88704 0.4445 0.0
H536 H 0.33596 0.84829 0.5041 0.0
H537 H 0.35068 0.86166 0.47427 0.0
C538 C 0.39917 0.09332 0.75976 0.0
C539 C 0.39473 0.08518 0.78667 0.0
C540 C 0.39143 0.10189 0.7434 0.0
C541 C 0.37435 0.12261 0.72255 0.0
H542 H 0.34198 0.1111 0.69611 0.0
C543 C 0.33673 0.15437 0.66527 0.0
C544 C 0.32852 0.14969 0.63893 0.0
C545 C 0.3455 0.14683 0.68156 0.0
C546 C 0.35104 0.11441 0.7029 0.0
H547 H 0.37882 0.08009 0.81888 0.0
H548 H 0.3653 0.09525 0.7907 0.0
H549 H 0.35569 0.09777 0.73059 0.0
H550 H 0.32351 0.13355 0.60765 0.0
H551 H 0.33901 0.12038 0.63571 0.0
H552 H 0.3698 0.13915 0.69412 0.0
C553 C 0.37474 0.09482 0.78178 0.0
C554 C 0.35883 0.10684 0.72324 0.0
C555 C 0.38251 0.08622 0.79822 0.0
C556 C 0.32969 0.13743 0.62786 0.0
C557 C 0.33848 0.12986 0.64423 0.0
C558 C 0.36657 0.13017 0.70217 0.0
C559 C 0.37904 0.10256 0.75356 0.0
C560 C 0.37058 0.11084 0.73333 0.0
C561 C 0.3463 0.13441 0.67191 0.0
C562 C 0.35481 0.12617 0.69211 0.0
H563 H 0.40854 0.09277 0.7502 0.0
H564 H 0.39504 0.10762 0.72158 0.0
H565 H 0.38332 0.12601 0.73005 0.0
H566 H 0.33608 0.16378 0.67445 0.0
H567 H 0.35128 0.15063 0.70295 0.0
C568 C 0.83004 0.87442 0.12903 0.0
C569 C 0.82828 0.86244 0.14205 0.0
C570 C 0.83857 0.88214 0.14604 0.0
C571 C 0.85336 0.88677 0.23587 0.0
H572 H 0.87533 0.90822 0.18237 0.0
C573 C 0.88035 0.92672 0.30365 0.0
C574 C 0.89253 0.92822 0.29215 0.0
C575 C 0.87279 0.9181 0.28637 0.0
C576 C 0.86929 0.90223 0.19769 0.0
H577 H 0.83456 0.84898 0.18185 0.0
H578 H 0.84938 0.8624 0.21124 0.0
H579 H 0.86198 0.8943 0.14823 0.0
H580 H 0.90648 0.92148 0.25461 0.0
H581 H 0.89333 0.90651 0.22472 0.0
H582 H 0.86065 0.89472 0.28531 0.0
C583 C 0.84406 0.86589 0.1883 0.0
C584 C 0.86158 0.89435 0.17813 0.0
C585 C 0.83562 0.85817 0.17122 0.0
C586 C 0.89712 0.9206 0.26409 0.0
C587 C 0.88957 0.91208 0.24671 0.0
C588 C 0.86098 0.89474 0.25541 0.0
C589 C 0.84543 0.87804 0.1765 0.0
C590 C 0.85359 0.88649 0.19702 0.0
C591 C 0.87727 0.91091 0.25711 0.0
C592 C 0.86907 0.9025 0.23653 0.0
H593 H 0.82451 0.87799 0.10669 0.0
H594 H 0.83943 0.89148 0.13638 0.0
H595 H 0.84718 0.88092 0.25117 0.0
H596 H 0.87653 0.93247 0.32509 0.0
H597 H 0.86333 0.9174 0.29491 0.0
C598 C 0.8804 0.08431 0.87962 0.0
C599 C 0.89282 0.08372 0.8894 0.0
C600 C 0.87265 0.09286 0.8964 0.0
C601 C 0.87249 0.12131 0.95277 0.0
H602 H 0.84077 0.10948 0.98461 0.0
C603 C 0.82902 0.13638 0.05208 0.0
C604 C 0.82753 0.14852 0.04022 0.0
C605 C 0.83764 0.12876 0.03506 0.0
C606 C 0.84966 0.11289 0.9763 0.0
H607 H 0.90696 0.09203 0.92314 0.0
H608 H 0.89352 0.10681 0.95236 0.0
H609 H 0.85427 0.09602 0.94975 0.0
H610 H 0.8343 0.16235 0.00237 0.0
H611 H 0.84918 0.14912 0.97274 0.0
H612 H 0.868 0.13807 0.98006 0.0
C613 C 0.88972 0.10076 0.93164 0.0
C614 C 0.85731 0.10524 0.95574 0.0
C615 C 0.89744 0.09223 0.91493 0.0
C616 C 0.83521 0.15304 0.01223 0.0
C617 C 0.8438 0.14545 0.99528 0.0
C618 C 0.86485 0.12895 0.97336 0.0
C619 C 0.87718 0.10102 0.92322 0.0
C620 C 0.86883 0.10935 0.94372 0.0
C621 C 0.84495 0.13315 0.0059 0.0
C622 C 0.85332 0.12484 0.98537 0.0
H623 H 0.87656 0.07787 0.86006 0.0
H624 H 0.86308 0.09296 0.88881 0.0
H625 H 0.88127 0.12481 0.94376 0.0
H626 H 0.82324 0.13263 0.07356 0.0
H627 H 0.83844 0.11938 0.04433 0.0
C628 C 0.66168 0.15029 0.6473 0.0
C629 C 0.67285 0.146 0.63329 0.0
C630 C 0.6536 0.14232 0.66501 0.0
C631 C 0.64781 0.10922 0.686 0.0
H632 H 0.63066 0.12297 0.77013 0.0
C633 C 0.62312 0.07951 0.79515 0.0
C634 C 0.61057 0.08214 0.79771 0.0
C635 C 0.63101 0.0876 0.77699 0.0
C636 C 0.63541 0.11903 0.74672 0.0
H637 H 0.68414 0.12995 0.62549 0.0
H638 H 0.67033 0.1161 0.65755 0.0
H639 H 0.64338 0.13614 0.73182 0.0
H640 H 0.59656 0.09556 0.78551 0.0
H641 H 0.61047 0.10992 0.75521 0.0
H642 H 0.64008 0.092 0.70216 0.0
C643 C 0.66756 0.12553 0.65412 0.0
C644 C 0.6426 0.12658 0.72439 0.0
C645 C 0.67551 0.13347 0.63564 0.0
C646 C 0.60621 0.09334 0.78402 0.0
C647 C 0.61414 0.10154 0.76666 0.0
C648 C 0.64081 0.10164 0.70881 0.0
C649 C 0.65664 0.12992 0.67003 0.0
C650 C 0.64884 0.12182 0.69348 0.0
C651 C 0.62653 0.09855 0.76194 0.0
C652 C 0.6345 0.10649 0.73922 0.0
H653 H 0.65937 0.15991 0.64568 0.0
H654 H 0.64511 0.146 0.67568 0.0
H655 H 0.65227 0.1052 0.66223 0.0
H656 H 0.6267 0.07088 0.8051 0.0
H657 H 0.64056 0.08515 0.77386 0.0
C658 C 0.60032 0.91921 0.41845 0.0
C659 C 0.60483 0.92709 0.39095 0.0
C660 C 0.60794 0.91056 0.435 0.0
C661 C 0.64043 0.9052 0.45503 0.0
H662 H 0.62923 0.873 0.4845 0.0
C663 C 0.66246 0.85776 0.51331 0.0
C664 C 0.6705 0.86244 0.54011 0.0
C665 C 0.65367 0.86527 0.49693 0.0
C666 C 0.63251 0.88195 0.47638 0.0
H667 H 0.62073 0.93166 0.35799 0.0
H668 H 0.63405 0.91641 0.38666 0.0
H669 H 0.61578 0.88622 0.44843 0.0
H670 H 0.67522 0.87851 0.57209 0.0
H671 H 0.65974 0.89164 0.54371 0.0
H672 H 0.65721 0.90087 0.48243 0.0
C673 C 0.62464 0.91707 0.39578 0.0
C674 C 0.62478 0.88955 0.4559 0.0
C675 C 0.61699 0.92572 0.37909 0.0
C676 C 0.66916 0.87464 0.55154 0.0
C677 C 0.66038 0.88218 0.535 0.0
C678 C 0.64814 0.89762 0.47558 0.0
C679 C 0.62028 0.90958 0.42452 0.0
C680 C 0.62865 0.90127 0.44495 0.0
C681 C 0.65273 0.87765 0.50689 0.0
C682 C 0.64428 0.8859 0.4865 0.0
H683 H 0.591 0.92001 0.42824 0.0
H684 H 0.6043 0.905 0.45719 0.0
H685 H 0.64363 0.91424 0.44752 0.0
H686 H 0.66324 0.84839 0.50387 0.0
H687 H 0.648 0.86149 0.47523 0.0
C688 C 0.66885 0.63833 0.5526 0.0
C689 C 0.67118 0.65011 0.53878 0.0
C690 C 0.65991 0.63093 0.53625 0.0
C691 C 0.64446 0.62658 0.44709 0.0
H692 H 0.62221 0.60602 0.50265 0.0
C693 C 0.61612 0.5871 0.3823 0.0
C694 C 0.60409 0.58561 0.3952 0.0
C695 C 0.62389 0.59574 0.39857 0.0
C696 C 0.62831 0.61178 0.48674 0.0
H697 H 0.66548 0.6636 0.49827 0.0
H698 H 0.6499 0.65076 0.47012 0.0
H699 H 0.63619 0.61964 0.53546 0.0
H700 H 0.59058 0.59249 0.43394 0.0
H701 H 0.60407 0.60755 0.46196 0.0
H702 H 0.63659 0.61871 0.39837 0.0
C703 C 0.65511 0.64715 0.49311 0.0
C704 C 0.63639 0.61949 0.50556 0.0
C705 C 0.66398 0.65454 0.50949 0.0
C706 C 0.59982 0.59334 0.42345 0.0
C707 C 0.60757 0.60191 0.43975 0.0
C708 C 0.63645 0.61881 0.42828 0.0
C709 C 0.65317 0.63517 0.50571 0.0
C710 C 0.64452 0.627 0.48593 0.0
C711 C 0.61977 0.60302 0.42812 0.0
C712 C 0.62826 0.61135 0.44789 0.0
H713 H 0.67426 0.63464 0.57504 0.0
H714 H 0.65863 0.62172 0.5465 0.0
H715 H 0.65074 0.63215 0.4312 0.0
H716 H 0.6197 0.58126 0.36067 0.0
H717 H 0.63326 0.59637 0.38907 0.0
C718 C 0.60338 0.42284 0.74642 0.0
C719 C 0.60559 0.42657 0.78301 0.0
C720 C 0.61071 0.41396 0.72979 0.0
C721 C 0.62905 0.38751 0.74186 0.0
H722 H 0.64938 0.39922 0.66152 0.0
C723 C 0.66787 0.35816 0.68114 0.0
C724 C 0.67156 0.35991 0.64435 0.0
C725 C 0.65892 0.36559 0.69695 0.0
C726 C 0.6436 0.39567 0.68328 0.0
H727 H 0.61689 0.42354 0.83134 0.0
H728 H 0.6295 0.40757 0.80233 0.0
H729 H 0.63537 0.41322 0.69233 0.0
H730 H 0.66831 0.37042 0.59465 0.0
H731 H 0.65214 0.383 0.62152 0.0
H732 H 0.63677 0.36987 0.7322 0.0
C733 C 0.62216 0.41173 0.78665 0.0
C734 C 0.63568 0.40376 0.70117 0.0
C735 C 0.61497 0.42084 0.80315 0.0
C736 C 0.66569 0.36891 0.62313 0.0
C737 C 0.65651 0.3762 0.63876 0.0
C738 C 0.63676 0.37933 0.72344 0.0
C739 C 0.62021 0.40844 0.74961 0.0
C740 C 0.62846 0.39977 0.7308 0.0
C741 C 0.65319 0.37483 0.67618 0.0
C742 C 0.64428 0.38332 0.69414 0.0
H743 H 0.59628 0.4271 0.73003 0.0
H744 H 0.60906 0.41152 0.70121 0.0
H745 H 0.62342 0.38425 0.76443 0.0
H746 H 0.67229 0.35139 0.69841 0.0
H747 H 0.65687 0.36433 0.72594 0.0
C748 C 0.89314 0.4174 0.89755 0.0
C749 C 0.88877 0.42851 0.8834 0.0
C750 C 0.88525 0.40934 0.91564 0.0
C751 C 0.85225 0.40329 0.93684 0.0
H752 H 0.86623 0.38616 0.02066 0.0
C753 C 0.82287 0.37738 0.04418 0.0
C754 C 0.82586 0.3649 0.04637 0.0
C755 C 0.83079 0.38559 0.02666 0.0
C756 C 0.86223 0.39091 0.99735 0.0
H757 H 0.87266 0.43976 0.87586 0.0
H758 H 0.85895 0.42596 0.9086 0.0
H759 H 0.87921 0.3992 0.98273 0.0
H760 H 0.83976 0.35136 0.03419 0.0
H761 H 0.85381 0.36581 0.00496 0.0
H762 H 0.83516 0.39521 0.95262 0.0
C763 C 0.86838 0.42323 0.90498 0.0
C764 C 0.86967 0.39829 0.97526 0.0
C765 C 0.87624 0.43117 0.88613 0.0
C766 C 0.83725 0.36093 0.03298 0.0
C767 C 0.84528 0.36918 0.01624 0.0
C768 C 0.84477 0.3961 0.95941 0.0
C769 C 0.87285 0.41234 0.92089 0.0
C770 C 0.86483 0.40449 0.9444 0.0
C771 C 0.84194 0.38149 0.01186 0.0
C772 C 0.84972 0.38978 0.98967 0.0
H773 H 0.90276 0.4151 0.89561 0.0
H774 H 0.88899 0.40088 0.92632 0.0
H775 H 0.84819 0.40774 0.91313 0.0
H776 H 0.8141 0.38066 0.05392 0.0
H777 H 0.82807 0.39507 0.02378 0.0
C778 C 0.8363 0.65425 0.16752 0.0
C779 C 0.82862 0.64989 0.1393 0.0
C780 C 0.84488 0.64656 0.18407 0.0
C781 C 0.86188 0.61773 0.17349 0.0
H782 H 0.86256 0.6183 0.28068 0.0
C783 C 0.89792 0.59105 0.25611 0.0
C784 C 0.89361 0.58394 0.28573 0.0
C785 C 0.89037 0.59967 0.2392 0.0
C786 C 0.86244 0.61801 0.25078 0.0
H787 H 0.82434 0.6342 0.10507 0.0
H788 H 0.83945 0.62074 0.1339 0.0
H789 H 0.84888 0.63207 0.24734 0.0
H790 H 0.87814 0.5807 0.3219 0.0
H791 H 0.86493 0.59591 0.29241 0.0
H792 H 0.87534 0.60356 0.17695 0.0
C793 C 0.83879 0.63013 0.14319 0.0
C794 C 0.8547 0.62597 0.23166 0.0
C795 C 0.83015 0.63784 0.12666 0.0
C796 C 0.88175 0.58606 0.29922 0.0
C797 C 0.87419 0.59476 0.28233 0.0
C798 C 0.86969 0.60983 0.19261 0.0
C799 C 0.84602 0.63434 0.17273 0.0
C800 C 0.85434 0.62592 0.19281 0.0
C801 C 0.87834 0.60144 0.25156 0.0
C802 C 0.87006 0.60989 0.23146 0.0
H803 H 0.83542 0.66351 0.1778 0.0
H804 H 0.85048 0.65013 0.20626 0.0
H805 H 0.86183 0.61751 0.14359 0.0
H806 H 0.90704 0.5897 0.24512 0.0
H807 H 0.89391 0.60484 0.21603 0.0
C808 C 0.33747 0.3607 0.64438 0.0
C809 C 0.32621 0.36495 0.63082 0.0
C810 C 0.34572 0.36877 0.66088 0.0
C811 C 0.34601 0.39595 0.71663 0.0
H812 H 0.38053 0.39787 0.69329 0.0
C813 C 0.37853 0.43053 0.78776 0.0
C814 C 0.39097 0.42751 0.79063 0.0
C815 C 0.37042 0.42268 0.76952 0.0
C816 C 0.37097 0.39729 0.70077 0.0
H817 H 0.3149 0.381 0.62271 0.0
H818 H 0.32928 0.39512 0.65242 0.0
H819 H 0.36717 0.38505 0.65592 0.0
H820 H 0.40453 0.41357 0.77942 0.0
H821 H 0.39032 0.39954 0.74977 0.0
H822 H 0.34977 0.40773 0.76236 0.0
C823 C 0.33172 0.38555 0.64987 0.0
C824 C 0.36331 0.39004 0.679 0.0
C825 C 0.32357 0.37751 0.6326 0.0
C826 C 0.39499 0.41615 0.77734 0.0
C827 C 0.38685 0.40819 0.75986 0.0
C828 C 0.3537 0.40303 0.73889 0.0
C829 C 0.34274 0.38119 0.66482 0.0
C830 C 0.35077 0.38933 0.68669 0.0
C831 C 0.37455 0.41155 0.75437 0.0
C832 C 0.36631 0.4038 0.7313 0.0
H833 H 0.3397 0.35105 0.64346 0.0
H834 H 0.35416 0.3652 0.67227 0.0
H835 H 0.33637 0.39539 0.72343 0.0
H836 H 0.37523 0.4393 0.79739 0.0
H837 H 0.36108 0.42568 0.7657 0.0
C838 C 0.33673 0.65301 0.51375 0.0
C839 C 0.32814 0.6486 0.53938 0.0
C840 C 0.34517 0.64511 0.49741 0.0
C841 C 0.34895 0.61263 0.47386 0.0
H842 H 0.38198 0.62256 0.449 0.0
C843 C 0.39606 0.58949 0.41607 0.0
C844 C 0.39134 0.58207 0.38775 0.0
C845 C 0.38871 0.59818 0.43347 0.0
C846 C 0.3728 0.61962 0.45585 0.0
H847 H 0.3221 0.63255 0.56943 0.0
H848 H 0.33701 0.61875 0.54124 0.0
H849 H 0.36909 0.63612 0.48557 0.0
H850 H 0.37531 0.57832 0.35439 0.0
H851 H 0.36246 0.59369 0.38449 0.0
H852 H 0.35274 0.59603 0.44475 0.0
C853 C 0.33705 0.6283 0.53333 0.0
C854 C 0.36538 0.62743 0.47661 0.0
C855 C 0.3286 0.63623 0.54978 0.0
C856 C 0.37922 0.5839 0.37611 0.0
C857 C 0.37183 0.59261 0.39361 0.0
C858 C 0.35637 0.60481 0.4531 0.0
C859 C 0.34524 0.63261 0.50629 0.0
C860 C 0.35336 0.62405 0.48583 0.0
C861 C 0.37643 0.59968 0.42299 0.0
C862 C 0.36839 0.60821 0.44382 0.0
H863 H 0.33663 0.66249 0.50511 0.0
H864 H 0.35127 0.64873 0.47652 0.0
H865 H 0.33968 0.60981 0.48 0.0
H866 H 0.40536 0.58831 0.42576 0.0
H867 H 0.39253 0.60337 0.45617 0.0
C868 C 0.11393 0.58949 0.305 0.0
C869 C 0.10519 0.58336 0.2835 0.0
C870 C 0.12106 0.59882 0.28953 0.0
C871 C 0.12395 0.61856 0.20477 0.0
H872 H 0.1576 0.6212 0.23749 0.0
C873 C 0.16488 0.64171 0.12626 0.0
C874 C 0.17055 0.65103 0.14677 0.0
C875 C 0.15586 0.63436 0.14253 0.0
C876 C 0.1482 0.62055 0.22822 0.0
H877 H 0.09701 0.58224 0.22902 0.0
H878 H 0.10971 0.59792 0.20176 0.0
H879 H 0.14395 0.60673 0.26778 0.0
H880 H 0.17103 0.66012 0.20012 0.0
H881 H 0.1556 0.64706 0.22851 0.0
H882 H 0.1286 0.63202 0.16387 0.0
C883 C 0.11086 0.59598 0.23086 0.0
C884 C 0.14031 0.61236 0.24579 0.0
C885 C 0.10358 0.58688 0.2465 0.0
C886 C 0.16681 0.65306 0.18345 0.0
C887 C 0.15803 0.64557 0.19984 0.0
C888 C 0.13195 0.62655 0.18666 0.0
C889 C 0.11979 0.60204 0.25198 0.0
C890 C 0.12806 0.61122 0.23433 0.0
C891 C 0.15261 0.63608 0.1797 0.0
C892 C 0.14411 0.6276 0.19831 0.0
H893 H 0.11532 0.58701 0.33365 0.0
H894 H 0.12763 0.60343 0.30702 0.0
H895 H 0.11455 0.6182 0.19556 0.0
H896 H 0.16759 0.63992 0.098 0.0
H897 H 0.15178 0.62704 0.12659 0.0
C898 C 0.11671 0.42499 0.87944 0.0
C899 C 0.10434 0.42531 0.88984 0.0
C900 C 0.1247 0.41652 0.89553 0.0
C901 C 0.14043 0.40458 0.95469 0.0
H902 H 0.13095 0.37131 0.97807 0.0
C903 C 0.16963 0.37433 0.05098 0.0
C904 C 0.17173 0.36234 0.03859 0.0
C905 C 0.16073 0.38163 0.03401 0.0
C906 C 0.13376 0.38056 0.97164 0.0
H907 H 0.09051 0.41654 0.92368 0.0
H908 H 0.10438 0.40187 0.95164 0.0
H909 H 0.11723 0.38419 0.94196 0.0
H910 H 0.16574 0.34841 0.99993 0.0
H911 H 0.15034 0.36108 0.97045 0.0
H912 H 0.15707 0.40089 0.98375 0.0
C913 C 0.10795 0.40809 0.93104 0.0
C914 C 0.12586 0.38797 0.95114 0.0
C915 C 0.09999 0.41656 0.91506 0.0
C916 C 0.16436 0.35761 0.01017 0.0
C917 C 0.15548 0.36488 0.99331 0.0
C918 C 0.14833 0.39718 0.97519 0.0
C919 C 0.12046 0.40818 0.92221 0.0
C920 C 0.1291 0.40008 0.94243 0.0
C921 C 0.15374 0.37706 0.00444 0.0
C922 C 0.14509 0.38508 0.98394 0.0
H923 H 0.12035 0.43162 0.8601 0.0
H924 H 0.13426 0.41668 0.88766 0.0
H925 H 0.14314 0.41392 0.94895 0.0
H926 H 0.17517 0.37824 0.0728 0.0
H927 H 0.15947 0.39092 0.04364 0.0
C928 C 0.24197 0.15788 0.98071 0.0
C929 C 0.22926 0.15684 0.98543 0.0
C930 C 0.24721 0.15629 0.94573 0.0
C931 C 0.23871 0.1589 0.84774 0.0
H932 H 0.27031 0.14398 0.82989 0.0
C933 C 0.25915 0.15594 0.70118 0.0
C934 C 0.27153 0.15921 0.6981 0.0
C935 C 0.2539 0.15397 0.73592 0.0
C936 C 0.2615 0.14823 0.8345 0.0
H937 H 0.2122 0.15246 0.95775 0.0
H938 H 0.22133 0.1495 0.89728 0.0
H939 H 0.26149 0.14342 0.89189 0.0
H940 H 0.28818 0.16267 0.72916 0.0
H941 H 0.279 0.15939 0.78938 0.0
H942 H 0.23878 0.16394 0.79072 0.0
C943 C 0.22723 0.15187 0.92023 0.0
C944 C 0.25646 0.14791 0.87 0.0
C945 C 0.22201 0.15352 0.95498 0.0
C946 C 0.2786 0.16018 0.73044 0.0
C947 C 0.27337 0.1582 0.76505 0.0
C948 C 0.24374 0.15923 0.81234 0.0
C949 C 0.23983 0.15358 0.91494 0.0
C950 C 0.24504 0.15332 0.87706 0.0
C951 C 0.26093 0.1552 0.76826 0.0
C952 C 0.25524 0.154 0.80535 0.0
H953 H 0.2478 0.16044 0.00363 0.0
H954 H 0.25695 0.15772 0.94252 0.0
H955 H 0.23 0.16337 0.85235 0.0
H956 H 0.25346 0.15506 0.67683 0.0
H957 H 0.24431 0.15152 0.73746 0.0
C958 C 0.09425 0.97702 0.19712 0.0
C959 C 0.09488 0.98408 0.22956 0.0
C960 C 0.09637 0.98232 0.16268 0.0
C961 C 0.09496 0.01186 0.11537 0.0
H962 H 0.11201 0.99462 0.03715 0.0
C963 C 0.10082 0.0336 0.97271 0.0
C964 C 0.09815 0.02614 0.94214 0.0
C965 C 0.10238 0.02853 0.0077 0.0
C966 C 0.10717 0.99951 0.05865 0.0
H967 H 0.09854 0.00221 0.2512 0.0
H968 H 0.10228 0.01148 0.19082 0.0
H969 H 0.11121 0.98581 0.09912 0.0
H970 H 0.09562 0.00741 0.92403 0.0
H971 H 0.09816 0.99852 0.98551 0.0
H972 H 0.09065 0.02542 0.07497 0.0
C973 C 0.10003 0.00185 0.19218 0.0
C974 C 0.10672 0.99448 0.09414 0.0
C975 C 0.09793 0.99653 0.22676 0.0
C976 C 0.09767 0.0134 0.94704 0.0
C977 C 0.09916 0.00831 0.98225 0.0
C978 C 0.09539 0.01688 0.07996 0.0
C979 C 0.09916 0.99481 0.15974 0.0
C980 C 0.1005 0.00055 0.12279 0.0
C981 C 0.10123 0.01587 0.01311 0.0
C982 C 0.10141 0.01072 0.05109 0.0
H983 H 0.09196 0.96739 0.1982 0.0
H984 H 0.09547 0.97668 0.13823 0.0
H985 H 0.0899 0.01667 0.13662 0.0
H986 H 0.10144 0.04344 0.96981 0.0
H987 H 0.10426 0.03458 0.03071 0.0
C988 C 0.24146 0.85376 0.2004 0.0
C989 C 0.22871 0.8541 0.19566 0.0
C990 C 0.24658 0.85529 0.23555 0.0
C991 C 0.2383 0.85151 0.33349 0.0
H992 H 0.26894 0.86826 0.35183 0.0
C993 C 0.25869 0.85507 0.47999 0.0
C994 C 0.27122 0.85236 0.48274 0.0
C995 C 0.25329 0.85695 0.44541 0.0
C996 C 0.26039 0.86351 0.34708 0.0
H997 H 0.21139 0.85706 0.22365 0.0
H998 H 0.22031 0.85991 0.28445 0.0
H999 H 0.26004 0.8686 0.28993 0.0
H1000 H 0.28796 0.84985 0.45132 0.0
H1001 H 0.27854 0.85297 0.39137 0.0
H1002 H 0.23872 0.84624 0.39032 0.0
C1003 C 0.22635 0.85814 0.26134 0.0
C1004 C 0.25531 0.86369 0.31164 0.0
C1005 C 0.22125 0.85656 0.2264 0.0
C1006 C 0.27827 0.85188 0.45028 0.0
C1007 C 0.2729 0.85378 0.41583 0.0
C1008 C 0.24336 0.85135 0.36886 0.0
C1009 C 0.23904 0.85723 0.26652 0.0
C1010 C 0.24426 0.85761 0.30439 0.0
C1011 C 0.26032 0.85619 0.41293 0.0
C1012 C 0.25452 0.85723 0.376 0.0
H1013 H 0.24744 0.85188 0.17725 0.0
H1014 H 0.25639 0.85446 0.23865 0.0
H1015 H 0.22988 0.84654 0.32874 0.0
H1016 H 0.25301 0.85556 0.50445 0.0
H1017 H 0.2436 0.85892 0.44407 0.0
C1018 C 0.40219 0.01546 0.72691 0.0
C1019 C 0.4048 0.02801 0.72952 0.0
C1020 C 0.40019 0.01003 0.69243 0.0
C1021 C 0.39286 0.01709 0.59463 0.0
H1022 H 0.40996 0.98675 0.57487 0.0
C1023 C 0.40162 0.99845 0.44712 0.0
C1024 C 0.40135 0.98571 0.44216 0.0
C1025 C 0.40035 0.00349 0.48246 0.0
C1026 C 0.40495 0.99512 0.58004 0.0
H1027 H 0.40701 0.04476 0.69793 0.0
H1028 H 0.40364 0.0353 0.63817 0.0
H1029 H 0.41065 0.99554 0.63651 0.0
H1030 H 0.39881 0.96832 0.47007 0.0
H1031 H 0.39641 0.9771 0.53124 0.0
H1032 H 0.38733 0.01674 0.53786 0.0
C1033 C 0.40302 0.02965 0.66268 0.0
C1034 C 0.40534 0.00015 0.61543 0.0
C1035 C 0.40506 0.03506 0.69701 0.0
C1036 C 0.39924 0.97817 0.47296 0.0
C1037 C 0.39791 0.98319 0.50811 0.0
C1038 C 0.39245 0.01204 0.55917 0.0
C1039 C 0.40069 0.01706 0.65992 0.0
C1040 C 0.39941 0.01126 0.62305 0.0
C1041 C 0.39874 0.99589 0.51344 0.0
C1042 C 0.39859 0.00104 0.5514 0.0
H1043 H 0.40187 0.00979 0.75141 0.0
H1044 H 0.39828 0.00032 0.69121 0.0
H1045 H 0.38806 0.02559 0.59977 0.0
H1046 H 0.40323 0.0045 0.42394 0.0
H1047 H 0.40111 0.01331 0.48567 0.0
C1048 C 0.77811 0.85197 0.22941 0.0
C1049 C 0.77107 0.85248 0.19692 0.0
C1050 C 0.77272 0.85379 0.26386 0.0
C1051 C 0.74317 0.85125 0.31075 0.0
H1052 H 0.7598 0.86844 0.3899 0.0
C1053 C 0.721 0.85626 0.45324 0.0
C1054 C 0.72847 0.85385 0.484 0.0
C1055 C 0.72611 0.85787 0.41831 0.0
C1056 C 0.75509 0.86355 0.36813 0.0
H1057 H 0.75286 0.85568 0.17521 0.0
H1058 H 0.74342 0.85892 0.23561 0.0
H1059 H 0.76872 0.86818 0.32803 0.0
H1060 H 0.74721 0.85172 0.50244 0.0
H1061 H 0.75616 0.85432 0.44106 0.0
H1062 H 0.72969 0.84637 0.35078 0.0
C1063 C 0.75312 0.85697 0.23428 0.0
C1064 C 0.76018 0.86341 0.3327 0.0
C1065 C 0.75853 0.85516 0.19968 0.0
C1066 C 0.74122 0.85357 0.47928 0.0
C1067 C 0.74634 0.8551 0.44414 0.0
C1068 C 0.7381 0.85137 0.3461 0.0
C1069 C 0.76014 0.85617 0.26676 0.0
C1070 C 0.75432 0.85716 0.3037 0.0
C1071 C 0.73881 0.85702 0.41315 0.0
C1072 C 0.74403 0.85744 0.37529 0.0
H1073 H 0.78781 0.84995 0.22837 0.0
H1074 H 0.77835 0.85295 0.28833 0.0
H1075 H 0.73854 0.84616 0.28921 0.0
H1076 H 0.71115 0.85673 0.45598 0.0
H1077 H 0.72007 0.85962 0.3952 0.0
C1078 C 0.89837 0.01708 0.95422 0.0
C1079 C 0.90544 0.02768 0.949 0.0
C1080 C 0.89735 0.01181 0.98939 0.0
C1081 C 0.91438 0.00836 0.07426 0.0
H1082 H 0.88354 0.00148 0.12308 0.0
C1083 C 0.91109 0.97891 0.20479 0.0
C1084 C 0.90523 0.98434 0.23524 0.0
C1085 C 0.91028 0.98415 0.16982 0.0
C1086 C 0.89219 0.0034 0.10968 0.0
H1087 H 0.91692 0.04108 0.9766 0.0
H1088 H 0.91535 0.03172 0.03732 0.0
H1089 H 0.88359 0.01057 0.06088 0.0
H1090 H 0.89364 0.99938 0.25261 0.0
H1091 H 0.89206 0.00848 0.19073 0.0
H1092 H 0.92301 0.00107 0.1225 0.0
C1093 C 0.91053 0.02756 0.01438 0.0
C1094 C 0.89221 0.00848 0.07416 0.0
C1095 C 0.91139 0.03292 0.97958 0.0
C1096 C 0.8983 0.99502 0.22972 0.0
C1097 C 0.89733 0.00018 0.19439 0.0
C1098 C 0.91435 0.0031 0.10932 0.0
C1099 C 0.90357 0.01694 0.01959 0.0
C1100 C 0.90333 0.01107 0.05634 0.0
C1101 C 0.90345 0.99485 0.16431 0.0
C1102 C 0.90327 0.00061 0.1274 0.0
H1103 H 0.89364 0.01287 0.93121 0.0
H1104 H 0.89197 0.00357 0.99282 0.0
H1105 H 0.92306 0.01024 0.06099 0.0
H1106 H 0.91651 0.97069 0.20803 0.0
H1107 H 0.91503 0.97985 0.14699 0.0
C1108 C 0.77635 0.15786 0.95626 0.0
C1109 C 0.76938 0.15889 0.98877 0.0
C1110 C 0.77067 0.15638 0.92208 0.0
C1111 C 0.74195 0.16316 0.8749 0.0
H1112 H 0.75515 0.1422 0.79817 0.0
C1113 C 0.71895 0.15967 0.73283 0.0
C1114 C 0.72662 0.15982 0.70168 0.0
C1115 C 0.72379 0.15813 0.76813 0.0
C1116 C 0.75142 0.14817 0.81922 0.0
H1117 H 0.75095 0.15875 0.01092 0.0
H1118 H 0.74099 0.15617 0.95096 0.0
H1119 H 0.76409 0.14176 0.85998 0.0
H1120 H 0.74541 0.15817 0.68313 0.0
H1121 H 0.75394 0.15572 0.74507 0.0
H1122 H 0.72949 0.16981 0.83416 0.0
C1123 C 0.75088 0.15662 0.95207 0.0
C1124 C 0.75651 0.14789 0.85462 0.0
C1125 C 0.75658 0.15803 0.9864 0.0
C1126 C 0.73925 0.15809 0.70658 0.0
C1127 C 0.74413 0.15662 0.74205 0.0
C1128 C 0.73689 0.16347 0.83953 0.0
C1129 C 0.75787 0.15593 0.91952 0.0
C1130 C 0.75189 0.15546 0.88275 0.0
C1131 C 0.73645 0.15678 0.77327 0.0
C1132 C 0.74162 0.15605 0.81118 0.0
H1133 H 0.78624 0.15843 0.95705 0.0
H1134 H 0.7763 0.15601 0.8975 0.0
H1135 H 0.73833 0.16926 0.89578 0.0
H1136 H 0.70915 0.16082 0.73004 0.0
H1137 H 0.7176 0.15804 0.79147 0.0
C1138 C 0.59729 0.01586 0.72396 0.0
C1139 C 0.59558 0.02848 0.72915 0.0
C1140 C 0.59867 0.01106 0.68836 0.0
C1141 C 0.59155 0.01838 0.59118 0.0
H1142 H 0.61331 0.99128 0.57004 0.0
C1143 C 0.59627 0.99842 0.44431 0.0
C1144 C 0.59544 0.98561 0.44231 0.0
C1145 C 0.59789 0.00422 0.47842 0.0
C1146 C 0.60717 0.99883 0.57558 0.0
H1147 H 0.59446 0.046 0.70111 0.0
H1148 H 0.59704 0.03767 0.63944 0.0
H1149 H 0.61306 0.00024 0.63183 0.0
H1150 H 0.59618 0.96884 0.4744 0.0
H1151 H 0.59894 0.97894 0.53353 0.0
H1152 H 0.58555 0.01688 0.53514 0.0
C1153 C 0.59704 0.03143 0.66268 0.0
C1154 C 0.607 0.00393 0.61098 0.0
C1155 C 0.59561 0.03621 0.69812 0.0
C1156 C 0.59671 0.97873 0.47492 0.0
C1157 C 0.5984 0.98452 0.50886 0.0
C1158 C 0.59175 0.01331 0.5558 0.0
C1159 C 0.59841 0.01879 0.65728 0.0
C1160 C 0.59908 0.01368 0.61929 0.0
C1161 C 0.59881 0.99732 0.5111 0.0
C1162 C 0.59945 0.00339 0.54772 0.0
H1163 H 0.59731 0.00966 0.74728 0.0
H1164 H 0.59958 0.00125 0.68515 0.0
H1165 H 0.5852 0.02575 0.59676 0.0
H1166 H 0.59536 0.00398 0.4197 0.0
H1167 H 0.59829 0.01412 0.47928 0.0
C1168 C 0.74196 0.65847 0.47821 0.0
C1169 C 0.72922 0.65828 0.48325 0.0
C1170 C 0.74698 0.65693 0.44292 0.0
C1171 C 0.73855 0.66089 0.34517 0.0
H1172 H 0.7689 0.64368 0.32624 0.0
C1173 C 0.75875 0.6572 0.19838 0.0
C1174 C 0.77132 0.65973 0.19559 0.0
C1175 C 0.75334 0.65536 0.23297 0.0
C1176 C 0.76043 0.64855 0.33115 0.0
H1177 H 0.7118 0.6556 0.45562 0.0
H1178 H 0.72053 0.65273 0.39457 0.0
H1179 H 0.7601 0.64343 0.38827 0.0
H1180 H 0.78811 0.66195 0.22696 0.0
H1181 H 0.77868 0.65889 0.2869 0.0
H1182 H 0.73896 0.6662 0.28837 0.0
C1183 C 0.72665 0.65438 0.41756 0.0
C1184 C 0.75541 0.64843 0.36667 0.0
C1185 C 0.72165 0.65598 0.45265 0.0
C1186 C 0.77839 0.66006 0.22802 0.0
C1187 C 0.77301 0.6582 0.26247 0.0
C1188 C 0.74356 0.66101 0.30972 0.0
C1189 C 0.73934 0.65512 0.41211 0.0
C1190 C 0.74446 0.65469 0.37414 0.0
C1191 C 0.7604 0.65597 0.26541 0.0
C1192 C 0.75462 0.65496 0.30238 0.0
H1193 H 0.74804 0.66023 0.50123 0.0
H1194 H 0.75679 0.65763 0.4396 0.0
H1195 H 0.73022 0.66599 0.35009 0.0
H1196 H 0.75305 0.65683 0.17394 0.0
H1197 H 0.74362 0.65354 0.23435 0.0
C1198 C 0.59322 0.53546 0.48443 0.0
C1199 C 0.59386 0.52843 0.45193 0.0
C1200 C 0.59526 0.53012 0.51886 0.0
C1201 C 0.59401 0.50046 0.56607 0.0
H1202 H 0.6108 0.51788 0.64446 0.0
C1203 C 0.60094 0.47853 0.70812 0.0
C1204 C 0.59807 0.4858 0.73899 0.0
C1205 C 0.60217 0.48375 0.67321 0.0
C1206 C 0.60603 0.51295 0.6229 0.0
H1207 H 0.59745 0.5103 0.43021 0.0
H1208 H 0.60109 0.50096 0.49056 0.0
H1209 H 0.60987 0.52675 0.58258 0.0
H1210 H 0.59484 0.50436 0.75762 0.0
H1211 H 0.59687 0.51351 0.69627 0.0
H1212 H 0.58999 0.48677 0.60634 0.0
C1213 C 0.59886 0.5106 0.48926 0.0
C1214 C 0.6055 0.51801 0.58747 0.0
C1215 C 0.59683 0.51596 0.45468 0.0
C1216 C 0.59705 0.49852 0.7344 0.0
C1217 C 0.59824 0.50376 0.69927 0.0
C1218 C 0.59455 0.49541 0.60142 0.0
C1219 C 0.598 0.51762 0.52176 0.0
C1220 C 0.59938 0.51188 0.55873 0.0
C1221 C 0.60053 0.49637 0.66818 0.0
C1222 C 0.60049 0.50162 0.63033 0.0
H1223 H 0.59097 0.5451 0.48342 0.0
H1224 H 0.59434 0.53575 0.54331 0.0
H1225 H 0.58903 0.4956 0.54478 0.0
H1226 H 0.60196 0.46871 0.71072 0.0
H1227 H 0.60421 0.47785 0.64999 0.0
C1228 C 0.72381 0.35738 0.71985 0.0
C1229 C 0.73097 0.35405 0.68922 0.0
C1230 C 0.72908 0.35869 0.75465 0.0
C1231 C 0.75846 0.36136 0.80507 0.0
H1232 H 0.7401 0.34567 0.88356 0.0
C1233 C 0.77979 0.3481 0.94518 0.0
C1234 C 0.7727 0.34961 0.97727 0.0
C1235 C 0.77473 0.35009 0.91032 0.0
C1236 C 0.74526 0.35026 0.86214 0.0
H1237 H 0.7494 0.3501 0.67072 0.0
H1238 H 0.75864 0.35219 0.73192 0.0
H1239 H 0.73143 0.34682 0.82188 0.0
H1240 H 0.75475 0.35464 0.99782 0.0
H1241 H 0.74591 0.35815 0.93681 0.0
H1242 H 0.77242 0.36456 0.84546 0.0
C1243 C 0.74894 0.35391 0.72885 0.0
C1244 C 0.74029 0.35094 0.82672 0.0
C1245 C 0.74365 0.35268 0.6938 0.0
C1246 C 0.76045 0.35333 0.97368 0.0
C1247 C 0.75538 0.3553 0.93873 0.0
C1248 C 0.76345 0.36067 0.84058 0.0
C1249 C 0.74163 0.35661 0.75982 0.0
C1250 C 0.74685 0.35644 0.79771 0.0
C1251 C 0.76245 0.35363 0.90666 0.0
C1252 C 0.75693 0.35504 0.86944 0.0
H1253 H 0.71403 0.35869 0.71714 0.0
H1254 H 0.72325 0.36108 0.77774 0.0
H1255 H 0.76368 0.36577 0.78343 0.0
H1256 H 0.78927 0.34527 0.94689 0.0
H1257 H 0.78038 0.34856 0.88618 0.0
C1258 C 0.90241 0.53312 0.20282 0.0
C1259 C 0.90459 0.52578 0.23403 0.0
C1260 C 0.90115 0.52789 0.16795 0.0
C1261 C 0.89552 0.49881 0.11866 0.0
H1262 H 0.91277 0.51517 0.03913 0.0
C1263 C 0.90548 0.47595 0.97837 0.0
C1264 C 0.90452 0.48311 0.94621 0.0
C1265 C 0.90429 0.48126 0.01321 0.0
C1266 C 0.90774 0.51059 0.06087 0.0
H1267 H 0.90674 0.50712 0.25319 0.0
H1268 H 0.90471 0.49794 0.19189 0.0
H1269 H 0.91291 0.52402 0.10076 0.0
H1270 H 0.9013 0.50144 0.92552 0.0
H1271 H 0.89921 0.51073 0.98659 0.0
H1272 H 0.89054 0.48526 0.07868 0.0
C1273 C 0.90386 0.50777 0.19461 0.0
C1274 C 0.90783 0.51565 0.09625 0.0
C1275 C 0.90507 0.51302 0.2297 0.0
C1276 C 0.90214 0.49568 0.94972 0.0
C1277 C 0.90099 0.50101 0.98469 0.0
C1278 C 0.89545 0.49373 0.08323 0.0
C1279 C 0.9021 0.51518 0.16327 0.0
C1280 C 0.90175 0.50981 0.12559 0.0
C1281 C 0.90215 0.49386 0.0168 0.0
C1282 C 0.90162 0.49954 0.05399 0.0
H1283 H 0.90182 0.54298 0.20519 0.0
H1284 H 0.89953 0.53384 0.14454 0.0
H1285 H 0.89062 0.49418 0.14056 0.0
H1286 H 0.90728 0.46622 0.97674 0.0
H1287 H 0.90538 0.47552 0.03739 0.0
C1288 C 0.2602 0.35435 0.7032 0.0
C1289 C 0.27246 0.35068 0.69971 0.0
C1290 C 0.25506 0.35623 0.73812 0.0
C1291 C 0.26293 0.3614 0.83645 0.0
H1292 H 0.23109 0.34703 0.85449 0.0
C1293 C 0.24324 0.35281 0.98289 0.0
C1294 C 0.23055 0.35406 0.98759 0.0
C1295 C 0.24848 0.3541 0.94782 0.0
C1296 C 0.2399 0.35129 0.84984 0.0
H1297 H 0.28902 0.34638 0.73021 0.0
H1298 H 0.28003 0.34953 0.79086 0.0
H1299 H 0.23983 0.34621 0.79283 0.0
H1300 H 0.21352 0.35846 0.95978 0.0
H1301 H 0.22266 0.36095 0.89911 0.0
H1302 H 0.26304 0.36632 0.89374 0.0
C1303 C 0.27441 0.35108 0.76667 0.0
C1304 C 0.2449 0.35081 0.81444 0.0
C1305 C 0.27953 0.34917 0.73185 0.0
C1306 C 0.22331 0.35725 0.957 0.0
C1307 C 0.22854 0.35862 0.92215 0.0
C1308 C 0.2579 0.3619 0.87193 0.0
C1309 C 0.2621 0.35452 0.77023 0.0
C1310 C 0.25651 0.35577 0.80739 0.0
C1311 C 0.24112 0.35674 0.91693 0.0
C1312 C 0.24635 0.35677 0.87906 0.0
H1313 H 0.25452 0.35566 0.67901 0.0
H1314 H 0.24558 0.35901 0.73999 0.0
H1315 H 0.27184 0.36543 0.83176 0.0
H1316 H 0.24905 0.35035 0.00594 0.0
H1317 H 0.2582 0.35253 0.9447 0.0
C1318 C 0.40432 0.51074 0.44056 0.0
C1319 C 0.40282 0.52343 0.43627 0.0
C1320 C 0.40355 0.5054 0.47564 0.0
C1321 C 0.40729 0.51369 0.57364 0.0
H1322 H 0.39294 0.48188 0.59229 0.0
C1323 C 0.40418 0.49348 0.72053 0.0
C1324 C 0.40747 0.48112 0.72414 0.0
C1325 C 0.40253 0.49865 0.68556 0.0
C1326 C 0.39705 0.49074 0.58743 0.0
H1327 H 0.39859 0.54033 0.46507 0.0
H1328 H 0.39705 0.53102 0.52574 0.0
H1329 H 0.3918 0.49072 0.53041 0.0
H1330 H 0.41144 0.46445 0.69374 0.0
H1331 H 0.40869 0.4735 0.63302 0.0
H1332 H 0.41266 0.5137 0.63041 0.0
C1333 C 0.39915 0.52523 0.50231 0.0
C1334 C 0.3964 0.49579 0.552 0.0
C1335 C 0.39998 0.53055 0.46744 0.0
C1336 C 0.40892 0.47401 0.69204 0.0
C1337 C 0.40724 0.47917 0.65716 0.0
C1338 C 0.40792 0.50866 0.60899 0.0
C1339 C 0.40122 0.51265 0.50699 0.0
C1340 C 0.40155 0.50731 0.54469 0.0
C1341 C 0.40409 0.49155 0.65349 0.0
C1342 C 0.40287 0.49711 0.61627 0.0
H1343 H 0.40652 0.50501 0.41708 0.0
H1344 H 0.40525 0.49569 0.47836 0.0
H1345 H 0.41156 0.52248 0.56881 0.0
H1346 H 0.40294 0.49919 0.74469 0.0
H1347 H 0.39997 0.5082 0.68361 0.0
C1348 C 0.25938 0.65601 0.47618 0.0
C1349 C 0.27177 0.6593 0.47911 0.0
C1350 C 0.2541 0.654 0.4415 0.0
C1351 C 0.26165 0.64813 0.34298 0.0
H1352 H 0.23022 0.66338 0.32494 0.0
C1353 C 0.24237 0.65788 0.19668 0.0
C1354 C 0.22966 0.65691 0.19176 0.0
C1355 C 0.24753 0.65626 0.23173 0.0
C1356 C 0.23891 0.65888 0.32961 0.0
H1357 H 0.28838 0.66275 0.44787 0.0
H1358 H 0.27916 0.65941 0.38777 0.0
H1359 H 0.23897 0.66395 0.38662 0.0
H1360 H 0.21252 0.65264 0.21916 0.0
H1361 H 0.22153 0.64963 0.27978 0.0
H1362 H 0.26166 0.64329 0.28562 0.0
C1363 C 0.27354 0.65823 0.41216 0.0
C1364 C 0.24391 0.65921 0.36503 0.0
C1365 C 0.2788 0.66026 0.4467 0.0
C1366 C 0.22233 0.65364 0.22209 0.0
C1367 C 0.22748 0.65196 0.25693 0.0
C1368 C 0.25663 0.64781 0.30747 0.0
C1369 C 0.26111 0.6552 0.40909 0.0
C1370 C 0.2554 0.65395 0.37207 0.0
C1371 C 0.24008 0.65358 0.2624 0.0
C1372 C 0.24524 0.65328 0.30034 0.0
H1373 H 0.25373 0.65514 0.50059 0.0
H1374 H 0.24452 0.65154 0.44004 0.0
H1375 H 0.27045 0.64386 0.34764 0.0
H1376 H 0.24825 0.66039 0.17385 0.0
H1377 H 0.25728 0.65763 0.23508 0.0
C1378 C 0.10143 0.53085 0.20903 0.0
C1379 C 0.09796 0.52373 0.23965 0.0
C1380 C 0.10273 0.52555 0.17424 0.0
C1381 C 0.10545 0.49615 0.12413 0.0
H1382 H 0.08999 0.51439 0.04496 0.0
C1383 C 0.09237 0.4744 0.98466 0.0
C1384 C 0.0937 0.48139 0.95228 0.0
C1385 C 0.09444 0.4796 0.01928 0.0
C1386 C 0.09454 0.50926 0.06656 0.0
H1387 H 0.09373 0.50535 0.25805 0.0
H1388 H 0.09586 0.49608 0.1969 0.0
H1389 H 0.09099 0.52317 0.10656 0.0
H1390 H 0.09854 0.49928 0.93097 0.0
H1391 H 0.10222 0.50837 0.99163 0.0
H1392 H 0.10878 0.48214 0.08404 0.0
C1393 C 0.09766 0.50576 0.2 0.0
C1394 C 0.09511 0.51429 0.10193 0.0
C1395 C 0.09641 0.51107 0.23501 0.0
C1396 C 0.09738 0.49366 0.95535 0.0
C1397 C 0.09943 0.49888 0.9901 0.0
C1398 C 0.10488 0.49111 0.08866 0.0
C1399 C 0.10054 0.51302 0.16907 0.0
C1400 C 0.10049 0.50777 0.13121 0.0
C1401 C 0.09789 0.49192 0.02247 0.0
C1402 C 0.09931 0.49757 0.05955 0.0
H1403 H 0.10287 0.54061 0.21172 0.0
H1404 H 0.10524 0.53135 0.15119 0.0
H1405 H 0.10979 0.49096 0.14597 0.0
H1406 H 0.08957 0.46491 0.98341 0.0
H1407 H 0.093 0.47403 0.04363 0.0
C1408 C 0.21597 0.21099 0.11789 0.0
C1409 C 0.20634 0.2042 0.10232 0.0
C1410 C 0.21493 0.22363 0.1224 0.0
C1411 C 0.19846 0.25014 0.08461 0.0
H1412 H 0.21239 0.267 0.16892 0.0
C1413 C 0.19614 0.30258 0.09797 0.0
C1414 C 0.20713 0.30839 0.10794 0.0
C1415 C 0.19489 0.28991 0.1014 0.0
C1416 C 0.20851 0.26242 0.14513 0.0
H1417 H 0.18791 0.20536 0.0804 0.0
H1418 H 0.18607 0.22742 0.08861 0.0
H1419 H 0.21223 0.24468 0.16748 0.0
H1420 H 0.22527 0.30544 0.13062 0.0
H1421 H 0.22311 0.28337 0.13629 0.0
H1422 H 0.19493 0.26784 0.06193 0.0
C1423 C 0.1945 0.22297 0.09682 0.0
C1424 C 0.20842 0.24964 0.1443 0.0
C1425 C 0.19553 0.21031 0.09229 0.0
C1426 C 0.21668 0.30128 0.12264 0.0
C1427 C 0.21542 0.28861 0.1261 0.0
C1428 C 0.19854 0.26291 0.08547 0.0
C1429 C 0.20425 0.2298 0.11149 0.0
C1430 C 0.20354 0.24335 0.1138 0.0
C1431 C 0.20459 0.28276 0.11494 0.0
C1432 C 0.20369 0.2692 0.11552 0.0
H1433 H 0.22444 0.20659 0.12593 0.0
H1434 H 0.22267 0.22863 0.13338 0.0
H1435 H 0.1948 0.24559 0.06044 0.0
H1436 H 0.18857 0.30777 0.08673 0.0
H1437 H 0.18637 0.28569 0.09306 0.0
C1438 C 0.04356 0.97351 0.37026 0.0
C1439 C 0.05032 0.96323 0.35901 0.0
C1440 C 0.03099 0.97261 0.37663 0.0
C1441 C 0.00448 0.95388 0.35003 0.0
H1442 H 0.98787 0.97251 0.42615 0.0
C1443 C 0.95223 0.95195 0.36559 0.0
C1444 C 0.94635 0.96334 0.36884 0.0
C1445 C 0.96488 0.95101 0.37014 0.0
C1446 C 0.99238 0.96729 0.40469 0.0
H1447 H 0.04924 0.9438 0.34717 0.0
H1448 H 0.02734 0.94221 0.35875 0.0
H1449 H 0.0102 0.97249 0.42363 0.0
H1450 H 0.94911 0.98256 0.38124 0.0
H1451 H 0.97118 0.98092 0.38883 0.0
H1452 H 0.98672 0.94887 0.33062 0.0
C1453 C 0.03173 0.95103 0.36198 0.0
C1454 C 0.00516 0.96728 0.40322 0.0
C1455 C 0.0443 0.95193 0.35551 0.0
C1456 C 0.95334 0.97365 0.37846 0.0
C1457 C 0.966 0.9727 0.38302 0.0
C1458 C 0.99172 0.95388 0.35155 0.0
C1459 C 0.02489 0.9614 0.37201 0.0
C1460 C 0.01136 0.9607 0.37557 0.0
C1461 C 0.97195 0.96142 0.37807 0.0
C1462 C 0.98551 0.96069 0.3786 0.0
H1463 H 0.0479 0.98236 0.37323 0.0
H1464 H 0.02598 0.98081 0.38391 0.0
H1465 H 0.00893 0.94889 0.32798 0.0
H1466 H 0.94712 0.9438 0.35847 0.0
H1467 H 0.96916 0.94215 0.36676 0.0
C1468 C 0.28269 0.8009 0.62135 0.0
C1469 C 0.29282 0.80785 0.60993 0.0
C1470 C 0.2837 0.78826 0.62614 0.0
C1471 C 0.30209 0.76226 0.59389 0.0
H1472 H 0.2845 0.74446 0.66979 0.0
C1473 C 0.3042 0.70975 0.60252 0.0
C1474 C 0.29291 0.70379 0.60727 0.0
C1475 C 0.30518 0.72237 0.60791 0.0
C1476 C 0.28942 0.74931 0.64835 0.0
H1477 H 0.31213 0.80701 0.59626 0.0
H1478 H 0.31391 0.78499 0.60502 0.0
H1479 H 0.2845 0.7668 0.67045 0.0
H1480 H 0.27391 0.70637 0.62274 0.0
H1481 H 0.2756 0.72837 0.63169 0.0
H1482 H 0.3068 0.74483 0.57129 0.0
C1483 C 0.30512 0.78929 0.60963 0.0
C1484 C 0.28942 0.76209 0.64872 0.0
C1485 C 0.30411 0.80193 0.6048 0.0
C1486 C 0.28274 0.71067 0.61879 0.0
C1487 C 0.28372 0.72328 0.62416 0.0
C1488 C 0.30209 0.74949 0.59353 0.0
C1489 C 0.29488 0.78228 0.61968 0.0
C1490 C 0.29563 0.76872 0.62122 0.0
C1491 C 0.2949 0.72931 0.61817 0.0
C1492 C 0.29564 0.74286 0.62047 0.0
H1493 H 0.27385 0.80516 0.62557 0.0
H1494 H 0.27559 0.78313 0.63353 0.0
H1495 H 0.30679 0.76706 0.57193 0.0
H1496 H 0.31224 0.70473 0.5939 0.0
H1497 H 0.31396 0.72671 0.60361 0.0
C1498 C 0.45611 0.03973 0.86962 0.0
C1499 C 0.44926 0.04985 0.85749 0.0
C1500 C 0.4687 0.04077 0.87547 0.0
C1501 C 0.49503 0.0592 0.84572 0.0
H1502 H 0.51197 0.04148 0.92311 0.0
C1503 C 0.54748 0.06065 0.85821 0.0
C1504 C 0.55318 0.04922 0.86263 0.0
C1505 C 0.53486 0.06187 0.86314 0.0
C1506 C 0.50737 0.04645 0.9013 0.0
H1507 H 0.45021 0.06912 0.84352 0.0
H1508 H 0.47214 0.07095 0.85414 0.0
H1509 H 0.48964 0.04159 0.92174 0.0
H1510 H 0.55014 0.03022 0.87734 0.0
H1511 H 0.52816 0.03233 0.8856 0.0
H1512 H 0.51271 0.06385 0.8248 0.0
C1513 C 0.4678 0.06216 0.85851 0.0
C1514 C 0.49458 0.04651 0.90048 0.0
C1515 C 0.45521 0.06112 0.8526 0.0
C1516 C 0.54605 0.03915 0.87362 0.0
C1517 C 0.53345 0.04038 0.87859 0.0
C1518 C 0.50779 0.05916 0.84657 0.0
C1519 C 0.47473 0.05195 0.86941 0.0
C1520 C 0.48827 0.05273 0.87235 0.0
C1521 C 0.52767 0.05169 0.87268 0.0
C1522 C 0.51412 0.05264 0.87403 0.0
H1523 H 0.45183 0.03091 0.87368 0.0
H1524 H 0.47377 0.03268 0.88345 0.0
H1525 H 0.49047 0.06392 0.82332 0.0
H1526 H 0.5527 0.06861 0.84996 0.0
H1527 H 0.5307 0.07075 0.8589 0.0
C1528 C 0.19548 0.80227 0.0827 0.0
C1529 C 0.20648 0.80825 0.07377 0.0
C1530 C 0.19441 0.7896 0.07866 0.0
C1531 C 0.20868 0.76252 0.0345 0.0
H1532 H 0.19446 0.74504 0.11719 0.0
C1533 C 0.21642 0.71099 0.05951 0.0
C1534 C 0.20676 0.70403 0.07414 0.0
C1535 C 0.21529 0.72364 0.05549 0.0
C1536 C 0.19827 0.74976 0.09356 0.0
H1537 H 0.22483 0.80561 0.05235 0.0
H1538 H 0.22299 0.78355 0.04561 0.0
H1539 H 0.19438 0.76729 0.11696 0.0
H1540 H 0.18814 0.7049 0.09479 0.0
H1541 H 0.18614 0.72697 0.08741 0.0
H1542 H 0.21276 0.74495 0.01143 0.0
C1543 C 0.21515 0.78866 0.05545 0.0
C1544 C 0.19822 0.76253 0.09343 0.0
C1545 C 0.21623 0.80132 0.05954 0.0
C1546 C 0.1958 0.70998 0.08362 0.0
C1547 C 0.19467 0.72264 0.07959 0.0
C1548 C 0.20871 0.74973 0.0346 0.0
C1549 C 0.2043 0.78263 0.06552 0.0
C1550 C 0.20356 0.76906 0.06413 0.0
C1551 C 0.20446 0.72965 0.06596 0.0
C1552 C 0.20364 0.74321 0.06436 0.0
H1553 H 0.18776 0.80732 0.09357 0.0
H1554 H 0.18587 0.78524 0.08617 0.0
H1555 H 0.2127 0.76728 0.01126 0.0
H1556 H 0.225 0.70672 0.05191 0.0
H1557 H 0.22306 0.72877 0.0453 0.0
C1558 C 0.45197 0.95217 0.32531 0.0
C1559 C 0.4462 0.96336 0.31739 0.0
C1560 C 0.46461 0.9509 0.32112 0.0
C1561 C 0.49201 0.96507 0.27848 0.0
H1562 H 0.50908 0.9499 0.36038 0.0
C1563 C 0.54352 0.97202 0.30571 0.0
C1564 C 0.55032 0.9622 0.32005 0.0
C1565 C 0.53088 0.97102 0.30096 0.0
C1566 C 0.50447 0.95397 0.33694 0.0
H1567 H 0.44917 0.98185 0.29749 0.0
H1568 H 0.4712 0.97964 0.29048 0.0
H1569 H 0.48683 0.95014 0.35968 0.0
H1570 H 0.5492 0.94343 0.33931 0.0
H1571 H 0.52716 0.94166 0.33064 0.0
H1572 H 0.50968 0.9691 0.25611 0.0
C1573 C 0.46594 0.97182 0.29966 0.0
C1574 C 0.4917 0.95411 0.33655 0.0
C1575 C 0.45331 0.9731 0.30391 0.0
C1576 C 0.54424 0.95121 0.3284 0.0
C1577 C 0.53159 0.95021 0.32362 0.0
C1578 C 0.50479 0.96492 0.27884 0.0
C1579 C 0.47177 0.96077 0.30882 0.0
C1580 C 0.48532 0.9598 0.30756 0.0
C1581 C 0.52474 0.96017 0.3104 0.0
C1582 C 0.51117 0.95951 0.30834 0.0
H1583 H 0.44678 0.94445 0.33557 0.0
H1584 H 0.46881 0.94221 0.3279 0.0
H1585 H 0.48735 0.96938 0.25549 0.0
H1586 H 0.54789 0.98062 0.29898 0.0
H1587 H 0.52587 0.97892 0.29111 0.0
C1588 C 0.30381 0.20959 0.57288 0.0
C1589 C 0.29244 0.20371 0.56912 0.0
C1590 C 0.30484 0.22219 0.5672 0.0
C1591 C 0.28889 0.24921 0.52788 0.0
H1592 H 0.30719 0.2669 0.60242 0.0
C1593 C 0.28253 0.30074 0.55651 0.0
C1594 C 0.2928 0.30767 0.56683 0.0
C1595 C 0.2835 0.28812 0.5512 0.0
C1596 C 0.30223 0.26211 0.58096 0.0
H1597 H 0.27333 0.20642 0.55511 0.0
H1598 H 0.27511 0.22839 0.54572 0.0
H1599 H 0.30708 0.24467 0.60316 0.0
H1600 H 0.31229 0.30684 0.57792 0.0
H1601 H 0.31398 0.28484 0.56833 0.0
H1602 H 0.2838 0.26673 0.50629 0.0
C1603 C 0.28326 0.22325 0.55266 0.0
C1604 C 0.30216 0.24935 0.58138 0.0
C1605 C 0.28223 0.21065 0.55828 0.0
C1606 C 0.30417 0.30177 0.57024 0.0
C1607 C 0.30514 0.28915 0.56493 0.0
C1608 C 0.28894 0.262 0.52748 0.0
C1609 C 0.29454 0.2292 0.55767 0.0
C1610 C 0.29536 0.24274 0.55516 0.0
C1611 C 0.29476 0.28215 0.55607 0.0
C1612 C 0.29549 0.26859 0.55432 0.0
H1613 H 0.31189 0.20452 0.58092 0.0
H1614 H 0.3137 0.22646 0.5707 0.0
H1615 H 0.2837 0.24439 0.50697 0.0
H1616 H 0.27363 0.30499 0.55359 0.0
H1617 H 0.2753 0.28299 0.54473 0.0
C1618 C 0.95316 0.03754 0.80128 0.0
C1619 C 0.94704 0.04774 0.81602 0.0
C1620 C 0.96583 0.03775 0.79629 0.0
C1621 C 0.993 0.05821 0.79359 0.0
H1622 H 0.01001 0.02912 0.82693 0.0
C1623 C 0.0446 0.05729 0.82951 0.0
C1624 C 0.05129 0.04676 0.82008 0.0
C1625 C 0.03194 0.05771 0.82415 0.0
C1626 C 0.00542 0.03725 0.81696 0.0
H1627 H 0.9494 0.06635 0.83561 0.0
H1628 H 0.9715 0.06663 0.82745 0.0
H1629 H 0.9878 0.02933 0.82558 0.0
H1630 H 0.04994 0.02858 0.79626 0.0
H1631 H 0.02792 0.02938 0.78673 0.0
H1632 H 0.01072 0.06619 0.78583 0.0
C1633 C 0.9665 0.05852 0.81932 0.0
C1634 C 0.99266 0.03737 0.81613 0.0
C1635 C 0.95382 0.05833 0.82418 0.0
C1636 C 0.04508 0.03681 0.80411 0.0
C1637 C 0.03244 0.03724 0.79879 0.0
C1638 C 0.00579 0.0581 0.79451 0.0
C1639 C 0.97269 0.04814 0.80607 0.0
C1640 C 0.98628 0.04787 0.80468 0.0
C1641 C 0.02569 0.04761 0.80927 0.0
C1642 C 0.01214 0.04764 0.80645 0.0
H1643 H 0.94822 0.02927 0.79438 0.0
H1644 H 0.97028 0.02968 0.78533 0.0
H1645 H 0.98838 0.06639 0.7842 0.0
H1646 H 0.04908 0.06512 0.84185 0.0
H1647 H 0.02699 0.0658 0.83282 0.0
C1648 C 0.78301 0.71112 0.05659 0.0
C1649 C 0.79312 0.70421 0.06842 0.0
C1650 C 0.78403 0.72375 0.05149 0.0
C1651 C 0.80231 0.74984 0.08354 0.0
H1652 H 0.78495 0.76742 0.00673 0.0
C1653 C 0.80427 0.80232 0.0743 0.0
C1654 C 0.79298 0.80823 0.06911 0.0
C1655 C 0.80533 0.78971 0.06899 0.0
C1656 C 0.78981 0.76264 0.02842 0.0
H1657 H 0.81239 0.70509 0.08252 0.0
H1658 H 0.81419 0.72709 0.07324 0.0
H1659 H 0.78498 0.74508 0.00658 0.0
H1660 H 0.77406 0.80555 0.05288 0.0
H1661 H 0.77588 0.78356 0.04411 0.0
H1662 H 0.80692 0.76732 0.1059 0.0
C1663 C 0.80541 0.72277 0.06854 0.0
C1664 C 0.78982 0.74985 0.02834 0.0
C1665 C 0.80439 0.71014 0.07367 0.0
C1666 C 0.78289 0.8013 0.05718 0.0
C1667 C 0.78395 0.78869 0.05191 0.0
C1668 C 0.8023 0.7626 0.08362 0.0
C1669 C 0.79519 0.72975 0.05805 0.0
C1670 C 0.79595 0.7433 0.05619 0.0
C1671 C 0.79513 0.78271 0.0584 0.0
C1672 C 0.79592 0.76916 0.05635 0.0
H1673 H 0.77419 0.70685 0.05226 0.0
H1674 H 0.77595 0.72886 0.04377 0.0
H1675 H 0.80694 0.74509 0.10576 0.0
H1676 H 0.81225 0.80738 0.08322 0.0
H1677 H 0.81411 0.7854 0.07365 0.0
C1678 C 0.69667 0.20974 0.5787 0.0
C1679 C 0.7072 0.20303 0.56935 0.0
C1680 C 0.69637 0.22243 0.57401 0.0
C1681 C 0.7174 0.24867 0.56849 0.0
H1682 H 0.68828 0.26669 0.54069 0.0
C1683 C 0.71814 0.30094 0.55354 0.0
C1684 C 0.70848 0.30734 0.5704 0.0
C1685 C 0.71753 0.28828 0.54896 0.0
C1686 C 0.69646 0.26177 0.54868 0.0
H1687 H 0.72539 0.20433 0.54575 0.0
H1688 H 0.72477 0.22638 0.53694 0.0
H1689 H 0.68801 0.24434 0.53987 0.0
H1690 H 0.6904 0.30545 0.59448 0.0
H1691 H 0.68939 0.28331 0.58671 0.0
H1692 H 0.72583 0.26603 0.57772 0.0
C1693 C 0.71686 0.22188 0.54876 0.0
C1694 C 0.69631 0.24898 0.54823 0.0
C1695 C 0.71719 0.20922 0.55362 0.0
C1696 C 0.69801 0.30082 0.58143 0.0
C1697 C 0.6974 0.28813 0.5768 0.0
C1698 C 0.71757 0.26142 0.56883 0.0
C1699 C 0.70656 0.22868 0.55971 0.0
C1700 C 0.70677 0.24227 0.55831 0.0
C1701 C 0.70724 0.2817 0.56109 0.0
C1702 C 0.70709 0.26813 0.55912 0.0
H1703 H 0.68882 0.20526 0.59092 0.0
H1704 H 0.68833 0.22738 0.58301 0.0
H1705 H 0.72554 0.24382 0.57721 0.0
H1706 H 0.72631 0.30567 0.54445 0.0
H1707 H 0.72518 0.28361 0.53621 0.0
C1708 C 0.80485 0.3011 0.10623 0.0
C1709 C 0.79353 0.30698 0.11114 0.0
C1710 C 0.80595 0.2885 0.11187 0.0
C1711 C 0.79062 0.26152 0.15334 0.0
H1712 H 0.80718 0.24377 0.07528 0.0
C1713 C 0.78316 0.21006 0.12667 0.0
C1714 C 0.79304 0.20301 0.11384 0.0
C1715 C 0.7844 0.22268 0.13151 0.0
C1716 C 0.80272 0.24857 0.09772 0.0
H1717 H 0.77461 0.30429 0.12739 0.0
H1718 H 0.77653 0.28234 0.13694 0.0
H1719 H 0.8073 0.26601 0.07492 0.0
H1720 H 0.81214 0.20364 0.09764 0.0
H1721 H 0.81432 0.22563 0.10656 0.0
H1722 H 0.78584 0.24404 0.17573 0.0
C1723 C 0.78458 0.28747 0.12898 0.0
C1724 C 0.80278 0.26134 0.09749 0.0
C1725 C 0.78346 0.30006 0.12327 0.0
C1726 C 0.80432 0.2088 0.1073 0.0
C1727 C 0.80555 0.22142 0.11222 0.0
C1728 C 0.79058 0.24873 0.15362 0.0
C1729 C 0.79577 0.28151 0.12265 0.0
C1730 C 0.79659 0.26797 0.12498 0.0
C1731 C 0.79555 0.22855 0.12374 0.0
C1732 C 0.79647 0.2421 0.12549 0.0
H1733 H 0.81281 0.30616 0.0971 0.0
H1734 H 0.81474 0.2842 0.10727 0.0
H1735 H 0.7859 0.26637 0.17519 0.0
H1736 H 0.77435 0.20591 0.13199 0.0
H1737 H 0.77646 0.22789 0.14 0.0
C1738 C 0.6962 0.70977 0.59906 0.0
C1739 C 0.70734 0.70389 0.60699 0.0
C1740 C 0.69504 0.72242 0.60338 0.0
C1741 C 0.70944 0.74962 0.64649 0.0
H1742 H 0.69417 0.76699 0.56531 0.0
C1743 C 0.71646 0.8012 0.62043 0.0
C1744 C 0.70657 0.80807 0.60674 0.0
C1745 C 0.71546 0.78855 0.62478 0.0
C1746 C 0.69828 0.76229 0.58854 0.0
H1747 H 0.72585 0.70669 0.62692 0.0
H1748 H 0.72383 0.72873 0.6341 0.0
H1749 H 0.69435 0.74474 0.5654 0.0
H1750 H 0.68772 0.80704 0.58822 0.0
H1751 H 0.68597 0.78497 0.59616 0.0
H1752 H 0.71358 0.76722 0.66924 0.0
C1753 C 0.71597 0.72355 0.62486 0.0
C1754 C 0.69838 0.74952 0.58859 0.0
C1755 C 0.71714 0.71091 0.62052 0.0
C1756 C 0.69554 0.80203 0.59864 0.0
C1757 C 0.69455 0.78937 0.60299 0.0
C1758 C 0.70934 0.76241 0.64645 0.0
C1759 C 0.70497 0.72948 0.61577 0.0
C1760 C 0.70409 0.74303 0.61732 0.0
C1761 C 0.70456 0.78245 0.61558 0.0
C1762 C 0.70388 0.76889 0.61724 0.0
H1763 H 0.68844 0.70465 0.58878 0.0
H1764 H 0.68638 0.72669 0.59665 0.0
H1765 H 0.71376 0.74489 0.6693 0.0
H1766 H 0.72509 0.80554 0.62697 0.0
H1767 H 0.72339 0.78349 0.63416 0.0
C1768 C 0.5453 0.47099 0.87349 0.0
C1769 C 0.55255 0.46142 0.85961 0.0
C1770 C 0.53273 0.46941 0.87841 0.0
C1771 C 0.50714 0.4509 0.84364 0.0
H1772 H 0.48934 0.46622 0.92389 0.0
C1773 C 0.45469 0.44783 0.85294 0.0
C1774 C 0.4487 0.45902 0.85929 0.0
C1775 C 0.4673 0.44678 0.85846 0.0
C1776 C 0.49419 0.46192 0.90128 0.0
H1777 H 0.55231 0.4425 0.84141 0.0
H1778 H 0.5304 0.43973 0.8504 0.0
H1779 H 0.51167 0.4668 0.9235 0.0
H1780 H 0.45121 0.4777 0.87815 0.0
H1781 H 0.47316 0.47586 0.88747 0.0
H1782 H 0.4897 0.44624 0.82097 0.0
C1783 C 0.53442 0.44853 0.85688 0.0
C1784 C 0.50697 0.46226 0.90102 0.0
C1785 C 0.54699 0.4501 0.8519 0.0
C1786 C 0.45552 0.46895 0.87288 0.0
C1787 C 0.46811 0.46788 0.87846 0.0
C1788 C 0.49438 0.45054 0.84393 0.0
C1789 C 0.52711 0.45822 0.86966 0.0
C1790 C 0.51359 0.45693 0.87187 0.0
C1791 C 0.47419 0.45686 0.87056 0.0
C1792 C 0.48775 0.45621 0.87243 0.0
H1793 H 0.54927 0.47983 0.87973 0.0
H1794 H 0.52735 0.47712 0.88787 0.0
H1795 H 0.51194 0.44687 0.82047 0.0
H1796 H 0.44971 0.43998 0.84264 0.0
H1797 H 0.47169 0.43811 0.85263 0.0
C1798 C 0.95492 0.54057 0.37606 0.0
C1799 C 0.94797 0.55005 0.36029 0.0
C1800 C 0.96754 0.54184 0.38063 0.0
C1801 C 0.99358 0.55837 0.34086 0.0
H1802 H 0.01124 0.54441 0.4236 0.0
C1803 C 0.04623 0.5596 0.34791 0.0
C1804 C 0.05191 0.54855 0.35791 0.0
C1805 C 0.03363 0.56115 0.35265 0.0
C1806 C 0.00644 0.5483 0.40024 0.0
H1807 H 0.94879 0.56853 0.33855 0.0
H1808 H 0.97082 0.57076 0.34683 0.0
H1809 H 0.98892 0.54481 0.4245 0.0
H1810 H 0.04884 0.5306 0.38181 0.0
H1811 H 0.0269 0.53327 0.38963 0.0
H1812 H 0.01104 0.56159 0.31617 0.0
C1813 C 0.96651 0.56228 0.35513 0.0
C1814 C 0.99366 0.54854 0.40077 0.0
C1815 C 0.95387 0.56102 0.35058 0.0
C1816 C 0.04477 0.53923 0.37376 0.0
C1817 C 0.03219 0.54079 0.3785 0.0
C1818 C 0.00635 0.55813 0.34033 0.0
C1819 C 0.97352 0.55262 0.36956 0.0
C1820 C 0.98708 0.55341 0.37082 0.0
C1821 C 0.02644 0.5517 0.36753 0.0
C1822 C 0.01292 0.55292 0.36974 0.0
H1823 H 0.95069 0.532 0.38391 0.0
H1824 H 0.97268 0.53417 0.39148 0.0
H1825 H 0.9888 0.56201 0.31708 0.0
H1826 H 0.05145 0.567 0.33582 0.0
H1827 H 0.02951 0.56973 0.34438 0.0
C1828 C 0.95186 0.47087 0.79521 0.0
C1829 C 0.94559 0.46109 0.8118 0.0
C1830 C 0.96451 0.47037 0.79019 0.0
C1831 C 0.99149 0.44977 0.79093 0.0
H1832 H 0.00846 0.47909 0.82265 0.0
C1833 C 0.04289 0.45075 0.82917 0.0
C1834 C 0.04963 0.46134 0.82065 0.0
C1835 C 0.0303 0.4503 0.82259 0.0
C1836 C 0.0039 0.47089 0.81305 0.0
H1837 H 0.94763 0.44282 0.83433 0.0
H1838 H 0.96975 0.442 0.82596 0.0
H1839 H 0.98627 0.47896 0.82025 0.0
H1840 H 0.0485 0.47951 0.79683 0.0
H1841 H 0.02661 0.47864 0.78491 0.0
H1842 H 0.00921 0.44166 0.78443 0.0
C1843 C 0.96486 0.45003 0.81656 0.0
C1844 C 0.99115 0.47082 0.81167 0.0
C1845 C 0.95218 0.45052 0.8215 0.0
C1846 C 0.04358 0.47126 0.80408 0.0
C1847 C 0.03101 0.47079 0.7974 0.0
C1848 C 0.00429 0.44985 0.79227 0.0
C1849 C 0.9712 0.46008 0.80174 0.0
C1850 C 0.98478 0.46024 0.80085 0.0
C1851 C 0.02417 0.4604 0.80725 0.0
C1852 C 0.01063 0.4604 0.80362 0.0
H1853 H 0.94706 0.4791 0.78702 0.0
H1854 H 0.96909 0.47817 0.77799 0.0
H1855 H 0.98686 0.44152 0.78214 0.0
H1856 H 0.04726 0.44294 0.84196 0.0
H1857 H 0.02529 0.4422 0.83084 0.0
C1858 C 0.45139 0.56034 0.32125 0.0
C1859 C 0.44587 0.54912 0.31216 0.0
C1860 C 0.46401 0.56192 0.31732 0.0
C1861 C 0.49191 0.54835 0.2751 0.0
H1862 H 0.50821 0.56314 0.35906 0.0
C1863 C 0.54295 0.54077 0.30831 0.0
C1864 C 0.5497 0.55057 0.32308 0.0
C1865 C 0.5304 0.54192 0.30202 0.0
C1866 C 0.50382 0.55918 0.33508 0.0
H1867 H 0.44926 0.53095 0.29028 0.0
H1868 H 0.47122 0.53366 0.28393 0.0
H1869 H 0.48599 0.56291 0.35648 0.0
H1870 H 0.54857 0.56943 0.34149 0.0
H1871 H 0.52668 0.57143 0.33033 0.0
H1872 H 0.5098 0.54432 0.25428 0.0
C1873 C 0.4658 0.54129 0.29373 0.0
C1874 C 0.49106 0.55906 0.33356 0.0
C1875 C 0.45319 0.53971 0.29761 0.0
C1876 C 0.54366 0.56167 0.33029 0.0
C1877 C 0.5311 0.56281 0.32406 0.0
C1878 C 0.50469 0.54845 0.27665 0.0
C1879 C 0.4714 0.55233 0.30423 0.0
C1880 C 0.48495 0.55348 0.30385 0.0
C1881 C 0.52429 0.55289 0.3104 0.0
C1882 C 0.51078 0.5537 0.30694 0.0
H1883 H 0.44602 0.56781 0.33231 0.0
H1884 H 0.46801 0.57061 0.32511 0.0
H1885 H 0.48749 0.54415 0.25154 0.0
H1886 H 0.54731 0.53209 0.30238 0.0
H1887 H 0.5254 0.53407 0.29184 0.0
C1888 C 0.24507 0.15479 0.20316 0.0
C1889 C 0.2327 0.15433 0.19264 0.0
C1890 C 0.24855 0.15212 0.23942 0.0
C1891 C 0.23677 0.15441 0.33271 0.0
H1892 H 0.26554 0.13575 0.35999 0.0
C1893 C 0.25222 0.15261 0.48402 0.0
C1894 C 0.26483 0.1535 0.49076 0.0
C1895 C 0.24785 0.15014 0.44853 0.0
C1896 C 0.25754 0.14109 0.35288 0.0
H1897 H 0.21433 0.15029 0.21156 0.0
H1898 H 0.22042 0.14583 0.27523 0.0
H1899 H 0.25877 0.13608 0.29567 0.0
H1900 H 0.28279 0.15204 0.46595 0.0
H1901 H 0.27523 0.14821 0.40371 0.0
H1902 H 0.23581 0.16002 0.38902 0.0
C1903 C 0.2274 0.14821 0.25527 0.0
C1904 C 0.25364 0.14121 0.31604 0.0
C1905 C 0.22393 0.1507 0.21881 0.0
C1906 C 0.27302 0.15134 0.46161 0.0
C1907 C 0.26865 0.14909 0.42588 0.0
C1908 C 0.24076 0.15444 0.36936 0.0
C1909 C 0.23972 0.14911 0.26609 0.0
C1910 C 0.24328 0.14797 0.30554 0.0
C1911 C 0.25598 0.14876 0.41866 0.0
C1912 C 0.25128 0.14788 0.37999 0.0
H1913 H 0.25205 0.15753 0.18361 0.0
H1914 H 0.25809 0.15299 0.247 0.0
H1915 H 0.22888 0.15987 0.32534 0.0
H1916 H 0.24569 0.1541 0.50606 0.0
H1917 H 0.23806 0.1496 0.44442 0.0
C1918 C 0.10496 0.97947 0.46369 0.0
C1919 C 0.10159 0.98833 0.43749 0.0
C1920 C 0.10755 0.98287 0.50013 0.0
C1921 C 0.1149 0.00896 0.56135 0.0
H1922 H 0.09543 0.99139 0.63331 0.0
C1923 C 0.10429 0.02832 0.70673 0.0
C1924 C 0.10193 0.02011 0.73568 0.0
C1925 C 0.10664 0.02398 0.67102 0.0
C1926 C 0.10118 0.99626 0.61394 0.0
H1927 H 0.09905 0.00776 0.42835 0.0
H1928 H 0.10373 0.0137 0.49173 0.0
H1929 H 0.09577 0.98451 0.56961 0.0
H1930 H 0.10107 0.00095 0.75066 0.0
H1931 H 0.10574 0.99337 0.68909 0.0
H1932 H 0.12031 0.02075 0.60566 0.0
C1933 C 0.10432 0.00413 0.48419 0.0
C1934 C 0.10134 0.99231 0.57728 0.0
C1935 C 0.10158 0.00071 0.44792 0.0
C1936 C 0.10271 0.0075 0.72877 0.0
C1937 C 0.10528 0.00316 0.69332 0.0
C1938 C 0.11489 0.01284 0.59823 0.0
C1939 C 0.10699 0.99522 0.51094 0.0
C1940 C 0.10803 0.99872 0.55046 0.0
C1941 C 0.10687 0.01133 0.66364 0.0
C1942 C 0.10786 0.00666 0.62496 0.0
H1943 H 0.10504 0.96985 0.45652 0.0
H1944 H 0.10968 0.97582 0.52013 0.0
H1945 H 0.12021 0.01403 0.54127 0.0
H1946 H 0.10368 0.0381 0.71121 0.0
H1947 H 0.10768 0.03058 0.64897 0.0
C1948 C 0.22427 0.8619 0.96159 0.0
C1949 C 0.23305 0.85836 0.98784 0.0
C1950 C 0.22774 0.86435 0.92511 0.0
C1951 C 0.25395 0.87123 0.86404 0.0
H1952 H 0.23616 0.85204 0.79189 0.0
C1953 C 0.27331 0.86047 0.71882 0.0
C1954 C 0.26512 0.85818 0.6898 0.0
C1955 C 0.26896 0.86287 0.75448 0.0
C1956 C 0.2411 0.85772 0.8113 0.0
H1957 H 0.25241 0.85532 0.997 0.0
H1958 H 0.25846 0.85978 0.93356 0.0
H1959 H 0.22924 0.85245 0.85554 0.0
H1960 H 0.24597 0.85747 0.6746 0.0
H1961 H 0.23836 0.86223 0.73609 0.0
H1962 H 0.26584 0.87651 0.81985 0.0
C1963 C 0.2489 0.86061 0.94109 0.0
C1964 C 0.23712 0.85791 0.84795 0.0
C1965 C 0.24542 0.85799 0.97739 0.0
C1966 C 0.25251 0.85906 0.69657 0.0
C1967 C 0.24815 0.86168 0.73197 0.0
C1968 C 0.25785 0.87118 0.82719 0.0
C1969 C 0.24006 0.86349 0.91433 0.0
C1970 C 0.24361 0.86449 0.87484 0.0
C1971 C 0.25629 0.86321 0.76174 0.0
C1972 C 0.2516 0.86425 0.80038 0.0
H1973 H 0.21466 0.86225 0.96878 0.0
H1974 H 0.22074 0.86664 0.90508 0.0
H1975 H 0.25908 0.87645 0.88419 0.0
H1976 H 0.28309 0.85978 0.71445 0.0
H1977 H 0.27554 0.86386 0.77658 0.0
C1978 C 0.39798 0.01201 0.94781 0.0
C1979 C 0.39805 0.02439 0.93728 0.0
C1980 C 0.39511 0.00864 0.98402 0.0
C1981 C 0.39793 0.02044 0.07706 0.0
H1982 H 0.37848 0.99229 0.10508 0.0
C1983 C 0.3962 0.00517 0.22848 0.0
C1984 C 0.39672 0.99254 0.2353 0.0
C1985 C 0.39373 0.00958 0.19305 0.0
C1986 C 0.38404 0.00011 0.09776 0.0
H1987 H 0.39462 0.0429 0.95606 0.0
H1988 H 0.38978 0.03701 0.01962 0.0
H1989 H 0.37882 0.99899 0.0407 0.0
H1990 H 0.3946 0.97462 0.21072 0.0
H1991 H 0.39077 0.98225 0.14853 0.0
H1992 H 0.40375 0.02127 0.13319 0.0
C1993 C 0.39194 0.02993 0.99972 0.0
C1994 C 0.38416 0.00399 0.06089 0.0
C1995 C 0.39464 0.03329 0.96331 0.0
C1996 C 0.39419 0.98441 0.2063 0.0
C1997 C 0.39194 0.98882 0.17062 0.0
C1998 C 0.39795 0.01648 0.11373 0.0
C1999 C 0.3924 0.01759 0.01062 0.0
C2000 C 0.39121 0.01412 0.05012 0.0
C2001 C 0.39198 0.00148 0.1633 0.0
C2002 C 0.39111 0.00618 0.12463 0.0
H2003 H 0.40053 0.00493 0.92835 0.0
H2004 H 0.39563 0.99908 0.99165 0.0
H2005 H 0.40363 0.02815 0.06949 0.0
H2006 H 0.39798 0.01167 0.25042 0.0
H2007 H 0.39347 0.01938 0.18889 0.0
C2008 C 0.7732 0.86077 0.96084 0.0
C2009 C 0.76502 0.85844 0.98988 0.0
C2010 C 0.76883 0.86312 0.92518 0.0
C2011 C 0.74099 0.8578 0.8684 0.0
H2012 H 0.75888 0.87657 0.79538 0.0
C2013 C 0.7241 0.86187 0.71815 0.0
C2014 C 0.73288 0.85835 0.69187 0.0
C2015 C 0.72757 0.86433 0.75462 0.0
C2016 C 0.75378 0.87133 0.81556 0.0
H2017 H 0.74587 0.85766 0.00508 0.0
H2018 H 0.73824 0.86234 0.94358 0.0
H2019 H 0.76565 0.87669 0.85971 0.0
H2020 H 0.75225 0.85539 0.68263 0.0
H2021 H 0.7583 0.85989 0.74605 0.0
H2022 H 0.72915 0.85246 0.82421 0.0
C2023 C 0.74803 0.86185 0.9477 0.0
C2024 C 0.75769 0.87133 0.85241 0.0
C2025 C 0.7524 0.85927 0.98311 0.0
C2026 C 0.74526 0.85804 0.70227 0.0
C2027 C 0.74875 0.86067 0.73855 0.0
C2028 C 0.73701 0.85795 0.83176 0.0
C2029 C 0.75617 0.8634 0.91792 0.0
C2030 C 0.75147 0.86439 0.87927 0.0
C2031 C 0.73991 0.86352 0.76535 0.0
C2032 C 0.74346 0.86455 0.80482 0.0
H2033 H 0.78298 0.86011 0.96521 0.0
H2034 H 0.77541 0.86413 0.90306 0.0
H2035 H 0.73609 0.85211 0.88785 0.0
H2036 H 0.71448 0.86217 0.71101 0.0
H2037 H 0.72058 0.8666 0.77468 0.0
C2038 C 0.89184 0.03199 0.71418 0.0
C2039 C 0.89518 0.02318 0.74056 0.0
C2040 C 0.88932 0.02852 0.67772 0.0
C2041 C 0.88218 0.00231 0.61664 0.0
H2042 H 0.90163 0.01993 0.54475 0.0
C2043 C 0.89312 0.98284 0.47156 0.0
C2044 C 0.89553 0.99102 0.44256 0.0
C2045 C 0.89066 0.98722 0.50717 0.0
C2046 C 0.89588 0.01504 0.56409 0.0
H2047 H 0.89773 0.00376 0.75 0.0
H2048 H 0.89317 0.99772 0.68662 0.0
H2049 H 0.90116 0.02687 0.60838 0.0
H2050 H 0.89635 0.01017 0.42739 0.0
H2051 H 0.89149 0.0178 0.48878 0.0
H2052 H 0.8769 0.99044 0.57238 0.0
C2053 C 0.89255 0.0073 0.69401 0.0
C2054 C 0.89566 0.01903 0.60073 0.0
C2055 C 0.89522 0.01077 0.73029 0.0
C2056 C 0.89467 0.00364 0.44931 0.0
C2057 C 0.89199 0.00801 0.48467 0.0
C2058 C 0.88227 0.99839 0.57979 0.0
C2059 C 0.88992 0.01617 0.66708 0.0
C2060 C 0.88897 0.01261 0.62755 0.0
C2061 C 0.89037 -0.00012 0.51443 0.0
C2062 C 0.88929 0.00459 0.55307 0.0
H2063 H 0.89174 0.04162 0.72119 0.0
H2064 H 0.88722 0.03554 0.6576 0.0
H2065 H 0.87687 0.99722 0.6367 0.0
H2066 H 0.8938 0.97306 0.46723 0.0
H2067 H 0.88959 0.98064 0.52926 0.0
C2068 C 0.75162 0.15247 0.20216 0.0
C2069 C 0.76424 0.15302 0.19526 0.0
C2070 C 0.74723 0.14971 0.23742 0.0
C2071 C 0.75673 0.13913 0.33179 0.0
H2072 H 0.72866 0.1584 0.36175 0.0
C2073 C 0.7446 0.15148 0.48297 0.0
C2074 C 0.73219 0.15154 0.49323 0.0
C2075 C 0.74804 0.14892 0.44659 0.0
C2076 C 0.73638 0.15279 0.35369 0.0
H2077 H 0.78218 0.15068 0.21953 0.0
H2078 H 0.77459 0.14636 0.28149 0.0
H2079 H 0.73559 0.1592 0.29816 0.0
H2080 H 0.71371 0.14837 0.47376 0.0
H2081 H 0.71973 0.14407 0.40998 0.0
H2082 H 0.75781 0.13331 0.38833 0.0
C2083 C 0.76801 0.14772 0.25955 0.0
C2084 C 0.74036 0.15321 0.31707 0.0
C2085 C 0.7724 0.15026 0.22401 0.0
C2086 C 0.72334 0.14839 0.46674 0.0
C2087 C 0.72678 0.14599 0.4302 0.0
C2088 C 0.75283 0.13886 0.36864 0.0
C2089 C 0.75536 0.1477 0.26696 0.0
C2090 C 0.75067 0.14647 0.30557 0.0
C2091 C 0.73914 0.14652 0.41957 0.0
C2092 C 0.74267 0.14578 0.38001 0.0
H2093 H 0.7451 0.15442 0.1804 0.0
H2094 H 0.73743 0.14943 0.24162 0.0
H2095 H 0.76456 0.13366 0.32398 0.0
H2096 H 0.75164 0.15384 0.50277 0.0
H2097 H 0.75762 0.14947 0.4392 0.0
C2098 C 0.60076 0.00049 0.22404 0.0
C2099 C 0.60094 0.98812 0.23463 0.0
C2100 C 0.60361 0.0039 0.18784 0.0
C2101 C 0.60133 0.99212 0.09458 0.0
H2102 H 0.62061 0.02051 0.06757 0.0
C2103 C 0.60358 0.00758 0.94331 0.0
C2104 C 0.60294 0.02021 0.93662 0.0
C2105 C 0.60595 0.00314 0.97878 0.0
C2106 C 0.6151 0.01262 0.07459 0.0
H2107 H 0.60469 0.96967 0.21591 0.0
H2108 H 0.60948 0.97563 0.15234 0.0
H2109 H 0.62001 0.01377 0.13189 0.0
H2110 H 0.60476 0.03812 0.96155 0.0
H2111 H 0.60843 0.03045 0.02373 0.0
H2112 H 0.59581 0.99126 0.03818 0.0
C2113 C 0.60717 0.98267 0.1722 0.0
C2114 C 0.61483 0.00873 0.11144 0.0
C2115 C 0.6045 0.97927 0.20861 0.0
C2116 C 0.60527 0.02833 0.96582 0.0
C2117 C 0.60743 0.0239 1.00153 0.0
C2118 C 0.60145 0.9961 0.05792 0.0
C2119 C 0.60653 0.995 0.16129 0.0
C2120 C 0.60785 0.99851 0.12185 0.0
C2121 C 0.60749 0.01123 0.0087 0.0
C2122 C 0.60823 0.00649 0.04738 0.0
H2123 H 0.59809 0.00753 0.24347 0.0
H2124 H 0.60295 0.01346 0.1802 0.0
H2125 H 0.5957 0.98434 0.10186 0.0
H2126 H 0.60194 0.0011 0.92123 0.0
H2127 H 0.60629 0.99334 0.98284 0.0
C2128 C 0.75521 0.65326 0.97705 0.0
C2129 C 0.76758 0.65324 0.98762 0.0
C2130 C 0.75185 0.65057 0.94071 0.0
C2131 C 0.76373 0.65386 0.84794 0.0
H2132 H 0.73544 0.63481 0.81871 0.0
C2133 C 0.74851 0.65319 0.69642 0.0
C2134 C 0.73589 0.65387 0.68959 0.0
C2135 C 0.75288 0.65047 0.73172 0.0
C2136 C 0.7433 0.64026 0.82638 0.0
H2137 H 0.78608 0.64982 0.9688 0.0
H2138 H 0.7802 0.64529 0.90502 0.0
H2139 H 0.74212 0.63469 0.88312 0.0
H2140 H 0.71793 0.65178 0.71402 0.0
H2141 H 0.72551 0.64752 0.77601 0.0
H2142 H 0.76462 0.66003 0.79217 0.0
C2143 C 0.77313 0.64737 0.92498 0.0
C2144 C 0.74717 0.64011 0.86326 0.0
C2145 C 0.77648 0.6499 0.96151 0.0
C2146 C 0.72771 0.65126 0.71844 0.0
C2147 C 0.73209 0.64876 0.75401 0.0
C2148 C 0.75979 0.65415 0.81127 0.0
C2149 C 0.7608 0.64795 0.91404 0.0
C2150 C 0.75735 0.64702 0.87446 0.0
C2151 C 0.74475 0.64862 0.76134 0.0
C2152 C 0.74944 0.64746 0.79996 0.0
H2153 H 0.74813 0.65576 0.99658 0.0
H2154 H 0.74229 0.65117 0.93306 0.0
H2155 H 0.77148 0.65945 0.85586 0.0
H2156 H 0.75503 0.65502 0.67459 0.0
H2157 H 0.76268 0.65009 0.73589 0.0
C2158 C 0.60081 0.50969 0.23804 0.0
C2159 C 0.59994 0.5223 0.24481 0.0
C2160 C 0.6035 0.50533 0.20268 0.0
C2161 C 0.61323 0.51507 0.10761 0.0
H2162 H 0.59491 0.48623 0.07894 0.0
C2163 C 0.60066 0.50223 0.95711 0.0
C2164 C 0.6014 0.48985 0.94681 0.0
C2165 C 0.60305 0.50582 0.99346 0.0
C2166 C 0.60024 0.49418 0.08664 0.0
H2167 H 0.60161 0.54027 0.22019 0.0
H2168 H 0.6058 0.53272 0.15813 0.0
H2169 H 0.59419 0.49322 0.14252 0.0
H2170 H 0.60569 0.4716 0.96623 0.0
H2171 H 0.60966 0.47787 0.03004 0.0
H2172 H 0.61866 0.51631 0.05075 0.0
C2173 C 0.60475 0.52613 0.1802 0.0
C2174 C 0.59988 0.4982 0.12325 0.0
C2175 C 0.6023 0.53049 0.21582 0.0
C2176 C 0.60507 0.4812 0.97329 0.0
C2177 C 0.60727 0.48478 0.00983 0.0
C2178 C 0.61343 0.51114 0.07079 0.0
C2179 C 0.60511 0.51347 0.17293 0.0
C2180 C 0.60628 0.50877 0.13429 0.0
C2181 C 0.60606 0.49709 0.02042 0.0
C2182 C 0.60685 0.50071 0.05989 0.0
H2183 H 0.59916 0.50316 0.25997 0.0
H2184 H 0.60405 0.49554 0.19859 0.0
H2185 H 0.61846 0.52311 0.11503 0.0
H2186 H 0.59788 0.50912 0.93731 0.0
H2187 H 0.60196 0.51536 1.00085 0.0
C2188 C 0.72486 0.36161 0.45602 0.0
C2189 C 0.73374 0.35806 0.48196 0.0
C2190 C 0.72821 0.36415 0.41949 0.0
C2191 C 0.75424 0.37124 0.35788 0.0
H2192 H 0.73643 0.35196 0.28597 0.0
C2193 C 0.77362 0.36015 0.21304 0.0
C2194 C 0.76545 0.35773 0.18403 0.0
C2195 C 0.76923 0.3627 0.24855 0.0
C2196 C 0.74137 0.35767 0.30531 0.0
H2197 H 0.75314 0.35512 0.49055 0.0
H2198 H 0.75898 0.35974 0.42705 0.0
H2199 H 0.72958 0.35238 0.3497 0.0
H2200 H 0.74632 0.35701 0.16869 0.0
H2201 H 0.73866 0.36203 0.22993 0.0
H2202 H 0.76606 0.37653 0.31356 0.0
C2203 C 0.74944 0.3605 0.43484 0.0
C2204 C 0.73743 0.35786 0.342 0.0
C2205 C 0.74608 0.35779 0.47117 0.0
C2206 C 0.75284 0.35869 0.19064 0.0
C2207 C 0.74845 0.36146 0.2259 0.0
C2208 C 0.7581 0.37119 0.32099 0.0
C2209 C 0.74051 0.36338 0.40837 0.0
C2210 C 0.74394 0.36446 0.36881 0.0
C2211 C 0.75657 0.36309 0.25569 0.0
C2212 C 0.75185 0.36421 0.29429 0.0
H2213 H 0.71527 0.36188 0.46349 0.0
H2214 H 0.72114 0.36643 0.39969 0.0
H2215 H 0.75938 0.37648 0.37796 0.0
H2216 H 0.7834 0.3594 0.2088 0.0
H2217 H 0.7758 0.36376 0.27068 0.0
C2218 C 0.89988 0.50166 0.72591 0.0
C2219 C 0.89546 0.49044 0.7393 0.0
C2220 C 0.89716 0.50552 0.69009 0.0
C2221 C 0.8885 0.49281 0.59927 0.0
H2222 H 0.88858 0.5271 0.57222 0.0
C2223 C 0.90304 0.50892 0.45522 0.0
C2224 C 0.89833 0.51982 0.4404 0.0
C2225 C 0.89978 0.50511 0.49066 0.0
C2226 C 0.8883 0.51747 0.5791 0.0
H2227 H 0.88408 0.4748 0.72622 0.0
H2228 H 0.87902 0.4817 0.66387 0.0
H2229 H 0.88734 0.52136 0.63691 0.0
H2230 H 0.88602 0.53498 0.45058 0.0
H2231 H 0.88003 0.52816 0.51229 0.0
H2232 H 0.88926 0.48892 0.54146 0.0
C2233 C 0.88488 0.48738 0.68079 0.0
C2234 C 0.88778 0.51417 0.61639 0.0
C2235 C 0.8877 0.48346 0.71666 0.0
C2236 C 0.88986 0.52657 0.4613 0.0
C2237 C 0.8865 0.52269 0.49678 0.0
C2238 C 0.88886 0.49611 0.56198 0.0
C2239 C 0.88983 0.49832 0.6667 0.0
C2240 C 0.8883 0.5018 0.62707 0.0
C2241 C 0.8916 0.51202 0.51222 0.0
C2242 C 0.8892 0.50849 0.55141 0.0
H2243 H 0.90591 0.50727 0.74253 0.0
H2244 H 0.90133 0.51389 0.68027 0.0
H2245 H 0.88897 0.48319 0.60622 0.0
H2246 H 0.90962 0.5035 0.43997 0.0
H2247 H 0.9041 0.49697 0.50164 0.0
C2248 C 0.22796 0.36084 0.22228 0.0
C2249 C 0.23613 0.35804 0.1936 0.0
C2250 C 0.23232 0.36337 0.25784 0.0
C2251 C 0.25988 0.35776 0.31552 0.0
H2252 H 0.24247 0.37775 0.38664 0.0
C2253 C 0.27664 0.36223 0.46543 0.0
C2254 C 0.26771 0.35907 0.49165 0.0
C2255 C 0.27331 0.36475 0.4289 0.0
C2256 C 0.24744 0.37218 0.36698 0.0
H2257 H 0.25528 0.35658 0.17885 0.0
H2258 H 0.26291 0.36156 0.24011 0.0
H2259 H 0.2358 0.37747 0.3222 0.0
H2260 H 0.24823 0.35692 0.50079 0.0
H2261 H 0.24242 0.3615 0.43723 0.0
H2262 H 0.27148 0.35246 0.36031 0.0
C2263 C 0.25312 0.36131 0.23584 0.0
C2264 C 0.24359 0.37195 0.33009 0.0
C2265 C 0.24875 0.35855 0.20056 0.0
C2266 C 0.25533 0.35927 0.48119 0.0
C2267 C 0.25199 0.36196 0.44482 0.0
C2268 C 0.26381 0.35813 0.35218 0.0
C2269 C 0.24497 0.36335 0.26531 0.0
C2270 C 0.24963 0.36456 0.30394 0.0
C2271 C 0.26097 0.36435 0.41804 0.0
C2272 C 0.25753 0.36518 0.37844 0.0
H2273 H 0.21817 0.36045 0.21773 0.0
H2274 H 0.22573 0.36476 0.27974 0.0
H2275 H 0.26463 0.35173 0.29664 0.0
H2276 H 0.28626 0.36214 0.47263 0.0
H2277 H 0.28041 0.36667 0.40886 0.0
C2278 C 0.40229 0.49952 0.94456 0.0
C2279 C 0.3982 0.48824 0.93067 0.0
C2280 C 0.39916 0.50327 0.98017 0.0
C2281 C 0.38987 0.49032 0.07007 0.0
H2282 H 0.38885 0.52459 0.09721 0.0
C2283 C 0.40269 0.50676 0.21522 0.0
C2284 C 0.39758 0.51754 0.22966 0.0
C2285 C 0.39982 0.50286 0.17957 0.0
C2286 C 0.38887 0.51496 0.09028 0.0
H2287 H 0.38701 0.47236 0.9426 0.0
H2288 H 0.38125 0.47906 0.00459 0.0
H2289 H 0.38841 0.51885 0.03242 0.0
H2290 H 0.38496 0.53237 0.21852 0.0
H2291 H 0.37968 0.52538 0.1564 0.0
H2292 H 0.39015 0.48642 0.12792 0.0
C2293 C 0.38715 0.48488 0.98823 0.0
C2294 C 0.3888 0.51166 0.05296 0.0
C2295 C 0.39038 0.48107 0.95257 0.0
C2296 C 0.38911 0.52406 0.20813 0.0
C2297 C 0.38615 0.52009 0.17241 0.0
C2298 C 0.38978 0.49361 0.10739 0.0
C2299 C 0.39174 0.49591 0.00283 0.0
C2300 C 0.38974 0.49932 0.04231 0.0
C2301 C 0.39166 0.50956 0.15738 0.0
C2302 C 0.38972 0.50599 0.11801 0.0
H2303 H 0.40835 0.50527 0.9285 0.0
H2304 H 0.40307 0.51171 0.99044 0.0
H2305 H 0.39065 0.48072 0.06313 0.0
H2306 H 0.40929 0.50152 0.23097 0.0
H2307 H 0.40444 0.49484 0.16893 0.0
C2308 C 0.22716 0.65192 0.957 0.0
C2309 C 0.23533 0.65463 0.98576 0.0
C2310 C 0.23153 0.64949 0.92137 0.0
C2311 C 0.25913 0.65508 0.86373 0.0
H2312 H 0.24174 0.6351 0.79257 0.0
C2313 C 0.27617 0.65004 0.71408 0.0
C2314 C 0.26732 0.65315 0.68755 0.0
C2315 C 0.27274 0.64774 0.75067 0.0
C2316 C 0.2467 0.64067 0.81224 0.0
H2317 H 0.25447 0.65609 1.00051 0.0
H2318 H 0.26212 0.65129 0.93913 0.0
H2319 H 0.23499 0.63545 0.85692 0.0
H2320 H 0.24788 0.6555 0.678 0.0
H2321 H 0.2419 0.65129 0.74166 0.0
H2322 H 0.27082 0.66028 0.81902 0.0
C2323 C 0.25232 0.65153 0.9434 0.0
C2324 C 0.2428 0.64095 0.84908 0.0
C2325 C 0.24795 0.65418 0.97875 0.0
C2326 C 0.25492 0.65317 0.69784 0.0
C2327 C 0.25148 0.6507 0.73426 0.0
C2328 C 0.26311 0.65466 0.82711 0.0
C2329 C 0.24418 0.64953 0.91389 0.0
C2330 C 0.24885 0.64832 0.87526 0.0
C2331 C 0.26038 0.64832 0.76129 0.0
C2332 C 0.25684 0.64761 0.80084 0.0
H2333 H 0.21737 0.65227 0.96157 0.0
H2334 H 0.22494 0.64813 0.89945 0.0
H2335 H 0.26389 0.6611 0.88262 0.0
H2336 H 0.2858 0.64997 0.70703 0.0
H2337 H 0.27978 0.64583 0.77091 0.0
C2338 C 0.10005 0.50784 0.45744 0.0
C2339 C 0.10088 0.52019 0.44697 0.0
C2340 C 0.10262 0.50426 0.49368 0.0
C2341 C 0.10067 0.51603 0.587 0.0
H2342 H 0.11858 0.48678 0.61419 0.0
C2343 C 0.10196 0.50045 0.73826 0.0
C2344 C 0.1008 0.48785 0.74495 0.0
C2345 C 0.10457 0.50478 0.70281 0.0
C2346 C 0.11345 0.49491 0.60712 0.0
H2347 H 0.1055 0.53841 0.46595 0.0
H2348 H 0.10978 0.53216 0.5296 0.0
H2349 H 0.11843 0.49357 0.5499 0.0
H2350 H 0.10189 0.46988 0.72008 0.0
H2351 H 0.10596 0.47738 0.65791 0.0
H2352 H 0.09507 0.5171 0.6433 0.0
C2353 C 0.10718 0.52527 0.50961 0.0
C2354 C 0.11344 0.49883 0.57028 0.0
C2355 C 0.1048 0.52883 0.47316 0.0
C2356 C 0.10282 0.47964 0.71579 0.0
C2357 C 0.1052 0.48398 0.6801 0.0
C2358 C 0.10053 0.51202 0.62364 0.0
C2359 C 0.1059 0.51298 0.52038 0.0
C2360 C 0.10695 0.50937 0.55981 0.0
C2361 C 0.10581 0.49663 0.67292 0.0
C2362 C 0.10681 0.50134 0.63425 0.0
H2363 H 0.09708 0.50096 0.43787 0.0
H2364 H 0.10146 0.49474 0.50122 0.0
H2365 H 0.09542 0.52407 0.57966 0.0
H2366 H 0.10058 0.507 0.76032 0.0
H2367 H 0.10533 0.51456 0.69876 0.0
loop_
_geom_bond_atom_site_label_1
_geom_bond_atom_site_label_2
_geom_bond_distance
_geom_bond_site_symmetry_2
_ccdc_geom_bond_type
O0 Cd1 2.223 1_556 S
O0 C8 1.315 . S
Cd1 O0 2.223 1_554 S
Cd1 O4 2.297 . S
Cd1 O5 2.439 . S
Cd1 O11 2.240 . S
Cd2 O3 2.240 . S
Cd2 O10 2.223 . S
Cd2 O12 2.297 . S
Cd2 O13 2.439 . S
O3 Cd2 2.240 . S
O3 C8 1.279 1_554 S
O4 Cd1 2.297 . S
O4 C6 1.247 . S
O5 Cd1 2.439 . S
O5 C6 1.208 . S
C6 O4 1.247 . S
C6 O5 1.208 . S
C7 O12 1.247 . S
C7 O13 1.208 . S
C8 O0 1.315 . S
C8 O3 1.279 1_556 S
C9 O10 1.315 . S
C9 O11 1.279 . S
O10 Cd2 2.223 . S
O10 C9 1.315 . S
O11 Cd1 2.240 . S
O11 C9 1.279 . S
O12 Cd2 2.297 . S
O12 C7 1.247 . S
O13 Cd2 2.439 . S
O13 C7 1.208 . S
O14 Cd15 2.223 . S
O14 C22 1.315 . S
Cd15 O14 2.223 . S
Cd15 O18 2.297 . S
Cd15 O19 2.439 . S
Cd15 O25 2.240 . S
Cd16 O17 2.240 . S
Cd16 O24 2.223 . S
Cd16 O26 2.297 . S
Cd16 O27 2.439 . S
O17 Cd16 2.240 . S
O17 C22 1.279 . S
O18 Cd15 2.297 . S
O18 C20 1.247 . S
O19 Cd15 2.439 . S
O19 C20 1.208 . S
C20 O18 1.247 . S
C20 O19 1.208 . S
C21 O26 1.247 . S
C21 O27 1.208 . S
C22 O14 1.315 . S
C22 O17 1.279 . S
C23 O24 1.315 . S
C23 O25 1.279 . S
O24 Cd16 2.223 . S
O24 C23 1.315 . S
O25 Cd15 2.240 . S
O25 C23 1.279 . S
O26 Cd16 2.297 . S
O26 C21 1.247 . S
O27 Cd16 2.439 . S
O27 C21 1.208 . S
O28 Cd29 2.223 . S
O28 C36 1.315 . S
Cd29 O28 2.223 . S
Cd29 O32 2.297 . S
Cd29 O33 2.439 . S
Cd29 O39 2.240 . S
Cd30 O31 2.240 . S
Cd30 O38 2.223 . S
Cd30 O40 2.297 . S
Cd30 O41 2.439 . S
O31 Cd30 2.240 . S
O31 C36 1.279 . S
O32 Cd29 2.297 . S
O32 C34 1.247 . S
O33 Cd29 2.439 . S
O33 C34 1.208 . S
C34 O32 1.247 . S
C34 O33 1.208 . S
C35 O40 1.247 . S
C35 O41 1.208 . S
C36 O28 1.315 . S
C36 O31 1.279 . S
C37 O38 1.315 . S
C37 O39 1.279 . S
O38 Cd30 2.223 . S
O38 C37 1.315 . S
O39 Cd29 2.240 . S
O39 C37 1.279 . S
O40 Cd30 2.297 . S
O40 C35 1.247 . S
O41 Cd30 2.439 . S
O41 C35 1.208 . S
O42 Cd43 2.223 . S
O42 C50 1.315 . S
Cd43 O42 2.223 . S
Cd43 O46 2.297 . S
Cd43 O47 2.439 . S
Cd43 O53 2.240 . S
Cd44 O45 2.240 . S
Cd44 O52 2.223 . S
Cd44 O54 2.297 . S
Cd44 O55 2.439 . S
O45 Cd44 2.240 . S
O45 C50 1.279 . S
O46 Cd43 2.297 . S
O46 C48 1.247 . S
O47 Cd43 2.439 . S
O47 C48 1.208 . S
C48 O46 1.247 . S
C48 O47 1.208 . S
C49 O54 1.247 . S
C49 O55 1.208 . S
C50 O42 1.315 . S
C50 O45 1.279 . S
C51 O52 1.315 . S
C51 O53 1.279 . S
O52 Cd44 2.223 . S
O52 C51 1.315 . S
O53 Cd43 2.240 . S
O53 C51 1.279 . S
O54 Cd44 2.297 . S
O54 C49 1.247 . S
O55 Cd44 2.439 . S
O55 C49 1.208 . S
O56 Cd57 2.223 . S
O56 C64 1.315 . S
Cd57 O56 2.223 . S
Cd57 O60 2.297 . S
Cd57 O61 2.439 . S
Cd57 O67 2.240 . S
Cd58 O59 2.240 . S
Cd58 O66 2.223 . S
Cd58 O68 2.297 . S
Cd58 O69 2.439 . S
O59 Cd58 2.240 . S
O59 C64 1.279 . S
O60 Cd57 2.297 . S
O60 C62 1.247 . S
O61 Cd57 2.439 . S
O61 C62 1.208 . S
C62 O60 1.247 . S
C62 O61 1.208 . S
C63 O68 1.247 . S
C63 O69 1.208 . S
C64 O56 1.315 . S
C64 O59 1.279 . S
C65 O66 1.315 . S
C65 O67 1.279 . S
O66 Cd58 2.223 . S
O66 C65 1.315 . S
O67 Cd57 2.240 . S
O67 C65 1.279 . S
O68 Cd58 2.297 . S
O68 C63 1.247 . S
O69 Cd58 2.439 . S
O69 C63 1.208 . S
O70 Cd71 2.223 . S
O70 C78 1.315 . S
Cd71 O70 2.223 . S
Cd71 O74 2.297 . S
Cd71 O75 2.439 . S
Cd71 O81 2.240 . S
Cd72 O73 2.240 . S
Cd72 O80 2.223 . S
Cd72 O82 2.297 . S
Cd72 O83 2.439 . S
O73 Cd72 2.240 . S
O73 C78 1.279 . S
O74 Cd71 2.297 . S
O74 C76 1.247 . S
O75 Cd71 2.439 . S
O75 C76 1.208 . S
C76 O74 1.247 . S
C76 O75 1.208 . S
C77 O82 1.247 . S
C77 O83 1.208 . S
C78 O70 1.315 . S
C78 O73 1.279 . S
C79 O80 1.315 . S
C79 O81 1.279 . S
O80 Cd72 2.223 . S
O80 C79 1.315 . S
O81 Cd71 2.240 . S
O81 C79 1.279 . S
O82 Cd72 2.297 . S
O82 C77 1.247 . S
O83 Cd72 2.439 . S
O83 C77 1.208 . S
O84 Cd85 2.223 . S
O84 C92 1.315 . S
Cd85 O84 2.223 . S
Cd85 O88 2.297 . S
Cd85 O89 2.439 . S
Cd85 O95 2.240 . S
Cd86 O87 2.240 . S
Cd86 O94 2.223 . S
Cd86 O96 2.297 . S
Cd86 O97 2.439 . S
O87 Cd86 2.240 . S
O87 C92 1.279 . S
O88 Cd85 2.297 . S
O88 C90 1.247 . S
O89 Cd85 2.439 . S
O89 C90 1.208 . S
C90 O88 1.247 . S
C90 O89 1.208 . S
C91 O96 1.247 . S
C91 O97 1.208 . S
C92 O84 1.315 . S
C92 O87 1.279 . S
C93 O94 1.315 . S
C93 O95 1.279 . S
O94 Cd86 2.223 . S
O94 C93 1.315 . S
O95 Cd85 2.240 . S
O95 C93 1.279 . S
O96 Cd86 2.297 . S
O96 C91 1.247 . S
O97 Cd86 2.439 . S
O97 C91 1.208 . S
O98 Cd99 2.223 . S
O98 C106 1.315 . S
Cd99 O98 2.223 . S
Cd99 O102 2.297 . S
Cd99 O103 2.439 . S
Cd99 O109 2.240 . S
Cd100 O101 2.240 . S
Cd100 O108 2.223 . S
Cd100 O110 2.297 . S
Cd100 O111 2.439 . S
O101 Cd100 2.240 . S
O101 C106 1.279 . S
O102 Cd99 2.297 . S
O102 C104 1.247 . S
O103 Cd99 2.439 . S
O103 C104 1.208 . S
C104 O102 1.247 . S
C104 O103 1.208 . S
C105 O110 1.247 . S
C105 O111 1.208 . S
C106 O98 1.315 . S
C106 O101 1.279 . S
C107 O108 1.315 . S
C107 O109 1.279 . S
O108 Cd100 2.223 . S
O108 C107 1.315 . S
O109 Cd99 2.240 . S
O109 C107 1.279 . S
O110 Cd100 2.297 . S
O110 C105 1.247 . S
O111 Cd100 2.439 . S
O111 C105 1.208 . S
O112 Cd113 2.223 . S
O112 C120 1.315 . S
Cd113 O112 2.223 . S
Cd113 O116 2.297 . S
Cd113 O117 2.439 . S
Cd113 O123 2.240 . S
Cd114 O115 2.240 . S
Cd114 O122 2.223 . S
Cd114 O124 2.297 . S
Cd114 O125 2.439 . S
O115 Cd114 2.240 . S
O115 C120 1.279 . S
O116 Cd113 2.297 . S
O116 C118 1.247 . S
O117 Cd113 2.439 . S
O117 C118 1.208 . S
C118 O116 1.247 . S
C118 O117 1.208 . S
C119 O124 1.247 . S
C119 O125 1.208 . S
C120 O112 1.315 . S
C120 O115 1.279 . S
C121 O122 1.315 . S
C121 O123 1.279 . S
O122 Cd114 2.223 . S
O122 C121 1.315 . S
O123 Cd113 2.240 . S
O123 C121 1.279 . S
O124 Cd114 2.297 . S
O124 C119 1.247 . S
O125 Cd114 2.439 . S
O125 C119 1.208 . S
O126 Cd127 2.223 . S
O126 C134 1.315 . S
Cd127 O126 2.223 . S
Cd127 O130 2.297 . S
Cd127 O131 2.439 . S
Cd127 O137 2.240 . S
Cd128 O129 2.240 . S
Cd128 O136 2.223 . S
Cd128 O138 2.297 . S
Cd128 O139 2.439 . S
O129 Cd128 2.240 . S
O129 C134 1.279 . S
O130 Cd127 2.297 . S
O130 C132 1.247 . S
O131 Cd127 2.439 . S
O131 C132 1.208 . S
C132 O130 1.247 . S
C132 O131 1.208 . S
C133 O138 1.247 . S
C133 O139 1.208 . S
C134 O126 1.315 . S
C134 O129 1.279 . S
C135 O136 1.315 . S
C135 O137 1.279 . S
O136 Cd128 2.223 . S
O136 C135 1.315 . S
O137 Cd127 2.240 . S
O137 C135 1.279 . S
O138 Cd128 2.297 . S
O138 C133 1.247 . S
O139 Cd128 2.439 . S
O139 C133 1.208 . S
O140 Cd141 2.223 . S
O140 C148 1.315 . S
Cd141 O140 2.223 . S
Cd141 O144 2.297 . S
Cd141 O145 2.439 . S
Cd141 O151 2.240 . S
Cd142 O143 2.240 . S
Cd142 O150 2.223 . S
Cd142 O152 2.297 . S
Cd142 O153 2.439 . S
O143 Cd142 2.240 . S
O143 C148 1.279 . S
O144 Cd141 2.297 . S
O144 C146 1.247 . S
O145 Cd141 2.439 . S
O145 C146 1.208 . S
C146 O144 1.247 . S
C146 O145 1.208 . S
C147 O152 1.247 . S
C147 O153 1.208 . S
C148 O140 1.315 . S
C148 O143 1.279 . S
C149 O150 1.315 . S
C149 O151 1.279 . S
O150 Cd142 2.223 . S
O150 C149 1.315 . S
O151 Cd141 2.240 . S
O151 C149 1.279 . S
O152 Cd142 2.297 . S
O152 C147 1.247 . S
O153 Cd142 2.439 . S
O153 C147 1.208 . S
O154 Cd155 2.223 . S
O154 C162 1.315 . S
Cd155 O154 2.223 . S
Cd155 O158 2.297 . S
Cd155 O159 2.439 . S
Cd155 O165 2.240 . S
Cd156 O157 2.240 . S
Cd156 O164 2.223 . S
Cd156 O166 2.297 . S
Cd156 O167 2.439 . S
O157 Cd156 2.240 . S
O157 C162 1.279 . S
O158 Cd155 2.297 . S
O158 C160 1.247 . S
O159 Cd155 2.439 . S
O159 C160 1.208 . S
C160 O158 1.247 . S
C160 O159 1.208 . S
C161 O166 1.247 . S
C161 O167 1.208 . S
C162 O154 1.315 . S
C162 O157 1.279 . S
C163 O164 1.315 . S
C163 O165 1.279 . S
O164 Cd156 2.223 . S
O164 C163 1.315 . S
O165 Cd155 2.240 . S
O165 C163 1.279 . S
O166 Cd156 2.297 . S
O166 C161 1.247 . S
O167 Cd156 2.439 . S
O167 C161 1.208 . S
O168 Cd169 2.223 1_556 S
O168 C176 1.315 . S
Cd169 O168 2.223 1_554 S
Cd169 O172 2.297 . S
Cd169 O173 2.439 . S
Cd169 O179 2.240 . S
Cd170 O171 2.240 . S
Cd170 O178 2.223 . S
Cd170 O180 2.297 . S
Cd170 O181 2.439 . S
O171 Cd170 2.240 . S
O171 C176 1.279 1_554 S
O172 Cd169 2.297 . S
O172 C174 1.247 . S
O173 Cd169 2.439 . S
O173 C174 1.208 . S
C174 O172 1.247 . S
C174 O173 1.208 . S
C175 O180 1.247 . S
C175 O181 1.208 . S
C176 O168 1.315 . S
C176 O171 1.279 1_556 S
C177 O178 1.315 . S
C177 O179 1.279 . S
O178 Cd170 2.223 . S
O178 C177 1.315 . S
O179 Cd169 2.240 . S
O179 C177 1.279 . S
O180 Cd170 2.297 . S
O180 C175 1.247 . S
O181 Cd170 2.439 . S
O181 C175 1.208 . S
O182 Cd183 2.223 . S
O182 C190 1.315 . S
Cd183 O182 2.223 . S
Cd183 O186 2.297 . S
Cd183 O187 2.439 . S
Cd183 O193 2.240 . S
Cd184 O185 2.240 . S
Cd184 O192 2.223 . S
Cd184 O194 2.297 . S
Cd184 O195 2.439 . S
O185 Cd184 2.240 . S
O185 C190 1.279 . S
O186 Cd183 2.297 . S
O186 C188 1.247 . S
O187 Cd183 2.439 . S
O187 C188 1.208 . S
C188 O186 1.247 . S
C188 O187 1.208 . S
C189 O194 1.247 . S
C189 O195 1.208 . S
C190 O182 1.315 . S
C190 O185 1.279 . S
C191 O192 1.315 . S
C191 O193 1.279 . S
O192 Cd184 2.223 . S
O192 C191 1.315 . S
O193 Cd183 2.240 . S
O193 C191 1.279 . S
O194 Cd184 2.297 . S
O194 C189 1.247 . S
O195 Cd184 2.439 . S
O195 C189 1.208 . S
O196 Cd197 2.223 . S
O196 C204 1.315 . S
Cd197 O196 2.223 . S
Cd197 O200 2.297 . S
Cd197 O201 2.439 . S
Cd197 O207 2.240 . S
Cd198 O199 2.240 . S
Cd198 O206 2.223 . S
Cd198 O208 2.297 . S
Cd198 O209 2.439 . S
O199 Cd198 2.240 . S
O199 C204 1.279 . S
O200 Cd197 2.297 . S
O200 C202 1.247 . S
O201 Cd197 2.439 . S
O201 C202 1.208 . S
C202 O200 1.247 . S
C202 O201 1.208 . S
C203 O208 1.247 . S
C203 O209 1.208 . S
C204 O196 1.315 . S
C204 O199 1.279 . S
C205 O206 1.315 . S
C205 O207 1.279 . S
O206 Cd198 2.223 . S
O206 C205 1.315 . S
O207 Cd197 2.240 . S
O207 C205 1.279 . S
O208 Cd198 2.297 . S
O208 C203 1.247 . S
O209 Cd198 2.439 . S
O209 C203 1.208 . S
O210 Cd211 2.223 . S
O210 C218 1.315 . S
Cd211 O210 2.223 . S
Cd211 O214 2.297 . S
Cd211 O215 2.439 . S
Cd211 O221 2.240 . S
Cd212 O213 2.240 . S
Cd212 O220 2.223 . S
Cd212 O222 2.297 . S
Cd212 O223 2.439 . S
O213 Cd212 2.240 . S
O213 C218 1.279 . S
O214 Cd211 2.297 . S
O214 C216 1.247 . S
O215 Cd211 2.439 . S
O215 C216 1.208 . S
C216 O214 1.247 . S
C216 O215 1.208 . S
C217 O222 1.247 . S
C217 O223 1.208 . S
C218 O210 1.315 . S
C218 O213 1.279 . S
C219 O220 1.315 . S
C219 O221 1.279 . S
O220 Cd212 2.223 . S
O220 C219 1.315 . S
O221 Cd211 2.240 . S
O221 C219 1.279 . S
O222 Cd212 2.297 . S
O222 C217 1.247 . S
O223 Cd212 2.439 . S
O223 C217 1.208 . S
O224 Cd225 2.223 . S
O224 C232 1.315 . S
Cd225 O224 2.223 . S
Cd225 O228 2.297 . S
Cd225 O229 2.439 . S
Cd225 O235 2.240 . S
Cd226 O227 2.240 . S
Cd226 O234 2.223 . S
Cd226 O236 2.297 . S
Cd226 O237 2.439 . S
O227 Cd226 2.240 . S
O227 C232 1.279 . S
O228 Cd225 2.297 . S
O228 C230 1.247 . S
O229 Cd225 2.439 . S
O229 C230 1.208 . S
C230 O228 1.247 . S
C230 O229 1.208 . S
C231 O236 1.247 . S
C231 O237 1.208 . S
C232 O224 1.315 . S
C232 O227 1.279 . S
C233 O234 1.315 . S
C233 O235 1.279 . S
O234 Cd226 2.223 . S
O234 C233 1.315 . S
O235 Cd225 2.240 . S
O235 C233 1.279 . S
O236 Cd226 2.297 . S
O236 C231 1.247 . S
O237 Cd226 2.439 . S
O237 C231 1.208 . S
O238 Cd239 2.223 . S
O238 C246 1.315 . S
Cd239 O238 2.223 . S
Cd239 O242 2.297 . S
Cd239 O243 2.439 . S
Cd239 O249 2.240 . S
Cd240 O241 2.240 . S
Cd240 O248 2.223 . S
Cd240 O250 2.297 . S
Cd240 O251 2.439 . S
O241 Cd240 2.240 . S
O241 C246 1.279 . S
O242 Cd239 2.297 . S
O242 C244 1.247 . S
O243 Cd239 2.439 . S
O243 C244 1.208 . S
C244 O242 1.247 . S
C244 O243 1.208 . S
C245 O250 1.247 . S
C245 O251 1.208 . S
C246 O238 1.315 . S
C246 O241 1.279 . S
C247 O248 1.315 . S
C247 O249 1.279 . S
O248 Cd240 2.223 . S
O248 C247 1.315 . S
O249 Cd239 2.240 . S
O249 C247 1.279 . S
O250 Cd240 2.297 . S
O250 C245 1.247 . S
O251 Cd240 2.439 . S
O251 C245 1.208 . S
O252 Cd253 2.223 1_556 S
O252 C260 1.315 . S
Cd253 O252 2.223 1_554 S
Cd253 O256 2.297 . S
Cd253 O257 2.439 . S
Cd253 O263 2.240 . S
Cd254 O255 2.240 . S
Cd254 O262 2.223 . S
Cd254 O264 2.297 . S
Cd254 O265 2.439 . S
O255 Cd254 2.240 . S
O255 C260 1.279 1_554 S
O256 Cd253 2.297 . S
O256 C258 1.247 . S
O257 Cd253 2.439 . S
O257 C258 1.208 . S
C258 O256 1.247 . S
C258 O257 1.208 . S
C259 O264 1.247 . S
C259 O265 1.208 . S
C260 O252 1.315 . S
C260 O255 1.279 1_556 S
C261 O262 1.315 . S
C261 O263 1.279 . S
O262 Cd254 2.223 . S
O262 C261 1.315 . S
O263 Cd253 2.240 . S
O263 C261 1.279 . S
O264 Cd254 2.297 . S
O264 C259 1.247 . S
O265 Cd254 2.439 . S
O265 C259 1.208 . S
O266 Cd267 2.223 . S
O266 C274 1.315 . S
Cd267 O266 2.223 . S
Cd267 O270 2.297 . S
Cd267 O271 2.439 . S
Cd267 O277 2.240 . S
Cd268 O269 2.240 . S
Cd268 O276 2.223 . S
Cd268 O278 2.297 . S
Cd268 O279 2.439 . S
O269 Cd268 2.240 . S
O269 C274 1.279 . S
O270 Cd267 2.297 . S
O270 C272 1.247 . S
O271 Cd267 2.439 . S
O271 C272 1.208 . S
C272 O270 1.247 . S
C272 O271 1.208 . S
C273 O278 1.247 . S
C273 O279 1.208 . S
C274 O266 1.315 . S
C274 O269 1.279 . S
C275 O276 1.315 . S
C275 O277 1.279 . S
O276 Cd268 2.223 . S
O276 C275 1.315 . S
O277 Cd267 2.240 . S
O277 C275 1.279 . S
O278 Cd268 2.297 . S
O278 C273 1.247 . S
O279 Cd268 2.439 . S
O279 C273 1.208 . S
O280 Cd281 2.223 . S
O280 C288 1.315 . S
Cd281 O280 2.223 . S
Cd281 O284 2.297 . S
Cd281 O285 2.439 . S
Cd281 O291 2.240 . S
Cd282 O283 2.240 . S
Cd282 O290 2.223 . S
Cd282 O292 2.297 . S
Cd282 O293 2.439 . S
O283 Cd282 2.240 . S
O283 C288 1.279 . S
O284 Cd281 2.297 . S
O284 C286 1.247 . S
O285 Cd281 2.439 . S
O285 C286 1.208 . S
C286 O284 1.247 . S
C286 O285 1.208 . S
C287 O292 1.247 . S
C287 O293 1.208 . S
C288 O280 1.315 . S
C288 O283 1.279 . S
C289 O290 1.315 . S
C289 O291 1.279 . S
O290 Cd282 2.223 . S
O290 C289 1.315 . S
O291 Cd281 2.240 . S
O291 C289 1.279 . S
O292 Cd282 2.297 . S
O292 C287 1.247 . S
O293 Cd282 2.439 . S
O293 C287 1.208 . S
O294 Cd295 2.223 . S
O294 C302 1.315 . S
Cd295 O294 2.223 . S
Cd295 O298 2.297 . S
Cd295 O299 2.439 . S
Cd295 O305 2.240 . S
Cd296 O297 2.240 . S
Cd296 O304 2.223 . S
Cd296 O306 2.297 . S
Cd296 O307 2.439 . S
O297 Cd296 2.240 . S
O297 C302 1.279 . S
O298 Cd295 2.297 . S
O298 C300 1.247 . S
O299 Cd295 2.439 . S
O299 C300 1.208 . S
C300 O298 1.247 . S
C300 O299 1.208 . S
C301 O306 1.247 . S
C301 O307 1.208 . S
C302 O294 1.315 . S
C302 O297 1.279 . S
C303 O304 1.315 . S
C303 O305 1.279 . S
O304 Cd296 2.223 . S
O304 C303 1.315 . S
O305 Cd295 2.240 . S
O305 C303 1.279 . S
O306 Cd296 2.297 . S
O306 C301 1.247 . S
O307 Cd296 2.439 . S
O307 C301 1.208 . S
O308 Cd309 2.223 . S
O308 C316 1.315 . S
Cd309 O308 2.223 . S
Cd309 O312 2.297 . S
Cd309 O313 2.439 . S
Cd309 O319 2.240 . S
Cd310 O311 2.240 . S
Cd310 O318 2.223 . S
Cd310 O320 2.297 . S
Cd310 O321 2.439 . S
O311 Cd310 2.240 . S
O311 C316 1.279 . S
O312 Cd309 2.297 . S
O312 C314 1.247 . S
O313 Cd309 2.439 . S
O313 C314 1.208 . S
C314 O312 1.247 . S
C314 O313 1.208 . S
C315 O320 1.247 . S
C315 O321 1.208 . S
C316 O308 1.315 . S
C316 O311 1.279 . S
C317 O318 1.315 . S
C317 O319 1.279 . S
O318 Cd310 2.223 . S
O318 C317 1.315 . S
O319 Cd309 2.240 . S
O319 C317 1.279 . S
O320 Cd310 2.297 . S
O320 C315 1.247 . S
O321 Cd310 2.439 . S
O321 C315 1.208 . S
O322 Cd323 2.223 . S
O322 C330 1.315 . S
Cd323 O322 2.223 . S
Cd323 O326 2.297 . S
Cd323 O327 2.439 . S
Cd323 O333 2.240 . S
Cd324 O325 2.240 . S
Cd324 O332 2.223 . S
Cd324 O334 2.297 . S
Cd324 O335 2.439 . S
O325 Cd324 2.240 . S
O325 C330 1.279 . S
O326 Cd323 2.297 . S
O326 C328 1.247 . S
O327 Cd323 2.439 . S
O327 C328 1.208 . S
C328 O326 1.247 . S
C328 O327 1.208 . S
C329 O334 1.247 . S
C329 O335 1.208 . S
C330 O322 1.315 . S
C330 O325 1.279 . S
C331 O332 1.315 . S
C331 O333 1.279 . S
O332 Cd324 2.223 . S
O332 C331 1.315 . S
O333 Cd323 2.240 . S
O333 C331 1.279 . S
O334 Cd324 2.297 . S
O334 C329 1.247 . S
O335 Cd324 2.439 . S
O335 C329 1.208 . S
O336 Cd337 2.223 . S
O336 C344 1.315 . S
Cd337 O336 2.223 . S
Cd337 O340 2.297 . S
Cd337 O341 2.439 . S
Cd337 O347 2.240 . S
Cd338 O339 2.240 . S
Cd338 O346 2.223 . S
Cd338 O348 2.297 . S
Cd338 O349 2.439 . S
O339 Cd338 2.240 . S
O339 C344 1.279 . S
O340 Cd337 2.297 . S
O340 C342 1.247 . S
O341 Cd337 2.439 . S
O341 C342 1.208 . S
C342 O340 1.247 . S
C342 O341 1.208 . S
C343 O348 1.247 . S
C343 O349 1.208 . S
C344 O336 1.315 . S
C344 O339 1.279 . S
C345 O346 1.315 . S
C345 O347 1.279 . S
O346 Cd338 2.223 . S
O346 C345 1.315 . S
O347 Cd337 2.240 . S
O347 C345 1.279 . S
O348 Cd338 2.297 . S
O348 C343 1.247 . S
O349 Cd338 2.439 . S
O349 C343 1.208 . S
O350 Cd351 2.223 . S
O350 C358 1.315 . S
Cd351 O350 2.223 . S
Cd351 O354 2.297 . S
Cd351 O355 2.439 . S
Cd351 O361 2.240 . S
Cd352 O353 2.240 . S
Cd352 O360 2.223 . S
Cd352 O362 2.297 . S
Cd352 O363 2.439 . S
O353 Cd352 2.240 . S
O353 C358 1.279 . S
O354 Cd351 2.297 . S
O354 C356 1.247 . S
O355 Cd351 2.439 . S
O355 C356 1.208 . S
C356 O354 1.247 . S
C356 O355 1.208 . S
C357 O362 1.247 . S
C357 O363 1.208 . S
C358 O350 1.315 . S
C358 O353 1.279 . S
C359 O360 1.315 . S
C359 O361 1.279 . S
O360 Cd352 2.223 . S
O360 C359 1.315 . S
O361 Cd351 2.240 . S
O361 C359 1.279 . S
O362 Cd352 2.297 . S
O362 C357 1.247 . S
O363 Cd352 2.439 . S
O363 C357 1.208 . S
O364 Cd365 2.223 . S
O364 C372 1.315 . S
Cd365 O364 2.223 . S
Cd365 O368 2.297 . S
Cd365 O369 2.439 . S
Cd365 O375 2.240 . S
Cd366 O367 2.240 . S
Cd366 O374 2.223 . S
Cd366 O376 2.297 . S
Cd366 O377 2.439 . S
O367 Cd366 2.240 . S
O367 C372 1.279 . S
O368 Cd365 2.297 . S
O368 C370 1.247 . S
O369 Cd365 2.439 . S
O369 C370 1.208 . S
C370 O368 1.247 . S
C370 O369 1.208 . S
C371 O376 1.247 . S
C371 O377 1.208 . S
C372 O364 1.315 . S
C372 O367 1.279 . S
C373 O374 1.315 . S
C373 O375 1.279 . S
O374 Cd366 2.223 . S
O374 C373 1.315 . S
O375 Cd365 2.240 . S
O375 C373 1.279 . S
O376 Cd366 2.297 . S
O376 C371 1.247 . S
O377 Cd366 2.439 . S
O377 C371 1.208 . S
O378 Cd379 2.223 . S
O378 C386 1.315 . S
Cd379 O378 2.223 . S
Cd379 O382 2.297 . S
Cd379 O383 2.439 . S
Cd379 O389 2.240 . S
Cd380 O381 2.240 . S
Cd380 O388 2.223 . S
Cd380 O390 2.297 . S
Cd380 O391 2.439 . S
O381 Cd380 2.240 . S
O381 C386 1.279 . S
O382 Cd379 2.297 . S
O382 C384 1.247 . S
O383 Cd379 2.439 . S
O383 C384 1.208 . S
C384 O382 1.247 . S
C384 O383 1.208 . S
C385 O390 1.247 . S
C385 O391 1.208 . S
C386 O378 1.315 . S
C386 O381 1.279 . S
C387 O388 1.315 . S
C387 O389 1.279 . S
O388 Cd380 2.223 . S
O388 C387 1.315 . S
O389 Cd379 2.240 . S
O389 C387 1.279 . S
O390 Cd380 2.297 . S
O390 C385 1.247 . S
O391 Cd380 2.439 . S
O391 C385 1.208 . S
O392 Cd393 2.223 . S
O392 C400 1.315 . S
Cd393 O392 2.223 . S
Cd393 O396 2.297 . S
Cd393 O397 2.439 . S
Cd393 O403 2.240 . S
Cd394 O395 2.240 . S
Cd394 O402 2.223 . S
Cd394 O404 2.297 . S
Cd394 O405 2.439 . S
O395 Cd394 2.240 . S
O395 C400 1.279 . S
O396 Cd393 2.297 . S
O396 C398 1.247 . S
O397 Cd393 2.439 . S
O397 C398 1.208 . S
C398 O396 1.247 . S
C398 O397 1.208 . S
C399 O404 1.247 . S
C399 O405 1.208 . S
C400 O392 1.315 . S
C400 O395 1.279 . S
C401 O402 1.315 . S
C401 O403 1.279 . S
O402 Cd394 2.223 . S
O402 C401 1.315 . S
O403 Cd393 2.240 . S
O403 C401 1.279 . S
O404 Cd394 2.297 . S
O404 C399 1.247 . S
O405 Cd394 2.439 . S
O405 C399 1.208 . S
O406 Cd407 2.223 . S
O406 C414 1.315 . S
Cd407 O406 2.223 . S
Cd407 O410 2.297 . S
Cd407 O411 2.439 . S
Cd407 O417 2.240 . S
Cd408 O409 2.240 . S
Cd408 O416 2.223 . S
Cd408 O418 2.297 . S
Cd408 O419 2.439 . S
O409 Cd408 2.240 . S
O409 C414 1.279 . S
O410 Cd407 2.297 . S
O410 C412 1.247 . S
O411 Cd407 2.439 . S
O411 C412 1.208 . S
C412 O410 1.247 . S
C412 O411 1.208 . S
C413 O418 1.247 . S
C413 O419 1.208 . S
C414 O406 1.315 . S
C414 O409 1.279 . S
C415 O416 1.315 . S
C415 O417 1.279 . S
O416 Cd408 2.223 . S
O416 C415 1.315 . S
O417 Cd407 2.240 . S
O417 C415 1.279 . S
O418 Cd408 2.297 . S
O418 C413 1.247 . S
O419 Cd408 2.439 . S
O419 C413 1.208 . S
O420 Cd421 2.223 1_556 S
O420 C428 1.315 . S
Cd421 O420 2.223 1_554 S
Cd421 O424 2.297 . S
Cd421 O425 2.439 . S
Cd421 O431 2.240 . S
Cd422 O423 2.240 . S
Cd422 O430 2.223 . S
Cd422 O432 2.297 . S
Cd422 O433 2.439 . S
O423 Cd422 2.240 . S
O423 C428 1.279 1_554 S
O424 Cd421 2.297 . S
O424 C426 1.247 . S
O425 Cd421 2.439 . S
O425 C426 1.208 . S
C426 O424 1.247 . S
C426 O425 1.208 . S
C427 O432 1.247 . S
C427 O433 1.208 . S
C428 O420 1.315 . S
C428 O423 1.279 1_556 S
C429 O430 1.315 . S
C429 O431 1.279 . S
O430 Cd422 2.223 . S
O430 C429 1.315 . S
O431 Cd421 2.240 . S
O431 C429 1.279 . S
O432 Cd422 2.297 . S
O432 C427 1.247 . S
O433 Cd422 2.439 . S
O433 C427 1.208 . S
O434 Cd435 2.223 . S
O434 C442 1.315 . S
Cd435 O434 2.223 . S
Cd435 O438 2.297 . S
Cd435 O439 2.439 . S
Cd435 O445 2.240 . S
Cd436 O437 2.240 . S
Cd436 O444 2.223 . S
Cd436 O446 2.297 . S
Cd436 O447 2.439 . S
O437 Cd436 2.240 . S
O437 C442 1.279 . S
O438 Cd435 2.297 . S
O438 C440 1.247 . S
O439 Cd435 2.439 . S
O439 C440 1.208 . S
C440 O438 1.247 . S
C440 O439 1.208 . S
C441 O446 1.247 . S
C441 O447 1.208 . S
C442 O434 1.315 . S
C442 O437 1.279 . S
C443 O444 1.315 . S
C443 O445 1.279 . S
O444 Cd436 2.223 . S
O444 C443 1.315 . S
O445 Cd435 2.240 . S
O445 C443 1.279 . S
O446 Cd436 2.297 . S
O446 C441 1.247 . S
O447 Cd436 2.439 . S
O447 C441 1.208 . S
C448 C449 1.349 . S
C448 C450 1.327 . S
C448 H473 0.950 . S
C449 C448 1.349 . S
C449 C465 1.349 . S
C450 C448 1.327 . S
C450 C469 1.429 . S
C450 H474 0.950 . S
C451 C468 1.574 . S
C451 C470 1.368 . S
C451 H475 0.949 . S
H452 C456 0.949 1_554 S
C453 C454 1.349 1_556 S
C453 C455 1.327 . S
C453 H476 0.950 . S
C454 C453 1.349 1_554 S
C454 C466 1.349 . S
C455 C453 1.327 . S
C455 C471 1.429 . S
C455 H477 0.950 . S
C456 H452 0.949 1_556 S
C456 C464 1.574 . S
C456 C472 1.368 . S
H457 C465 0.950 . S
H458 C463 0.950 . S
H459 C464 0.949 . S
H460 C466 0.950 . S
H461 C467 0.950 . S
H462 C468 0.949 . S
C463 H458 0.950 . S
C463 C465 1.327 . S
C463 C469 1.429 . S
C464 C456 1.574 . S
C464 H459 0.949 . S
C464 C470 1.368 . S
C465 C449 1.349 . S
C465 H457 0.950 . S
C465 C463 1.327 . S
C466 C454 1.349 . S
C466 H460 0.950 . S
C466 C467 1.327 . S
C467 H461 0.950 . S
C467 C466 1.327 . S
C467 C471 1.429 1_554 S
C468 C451 1.574 . S
C468 H462 0.949 . S
C468 C472 1.368 . S
C469 C450 1.429 . S
C469 C463 1.429 . S
C469 C470 1.523 . S
C470 C451 1.368 . S
C470 C464 1.368 . S
C470 C469 1.523 . S
C471 C455 1.429 . S
C471 C467 1.429 1_556 S
C471 C472 1.523 . S
C472 C456 1.368 . S
C472 C468 1.368 . S
C472 C471 1.523 . S
H473 C448 0.950 . S
H474 C450 0.950 . S
H475 C451 0.949 . S
H476 C453 0.950 . S
H477 C455 0.950 . S
C478 C479 1.349 . S
C478 C480 1.327 . S
C478 H503 0.950 . S
C479 C478 1.349 . S
C479 C495 1.349 . S
C480 C478 1.327 . S
C480 C499 1.429 . S
C480 H504 0.950 . S
C481 C498 1.574 . S
C481 C500 1.368 . S
C481 H505 0.949 . S
H482 C486 0.949 . S
C483 C484 1.349 . S
C483 C485 1.327 . S
C483 H506 0.950 . S
C484 C483 1.349 . S
C484 C496 1.349 . S
C485 C483 1.327 . S
C485 C501 1.429 . S
C485 H507 0.950 . S
C486 H482 0.949 . S
C486 C494 1.574 . S
C486 C502 1.368 . S
H487 C495 0.950 . S
H488 C493 0.950 . S
H489 C494 0.949 . S
H490 C496 0.950 . S
H491 C497 0.950 . S
H492 C498 0.949 . S
C493 H488 0.950 . S
C493 C495 1.327 . S
C493 C499 1.429 . S
C494 C486 1.574 . S
C494 H489 0.949 . S
C494 C500 1.368 . S
C495 C479 1.349 . S
C495 H487 0.950 . S
C495 C493 1.327 . S
C496 C484 1.349 . S
C496 H490 0.950 . S
C496 C497 1.327 . S
C497 H491 0.950 . S
C497 C496 1.327 . S
C497 C501 1.429 . S
C498 C481 1.574 . S
C498 H492 0.949 . S
C498 C502 1.368 . S
C499 C480 1.429 . S
C499 C493 1.429 . S
C499 C500 1.523 . S
C500 C481 1.368 . S
C500 C494 1.368 . S
C500 C499 1.523 . S
C501 C485 1.429 . S
C501 C497 1.429 . S
C501 C502 1.523 . S
C502 C486 1.368 . S
C502 C498 1.368 . S
C502 C501 1.523 . S
H503 C478 0.950 . S
H504 C480 0.950 . S
H505 C481 0.949 . S
H506 C483 0.950 . S
H507 C485 0.950 . S
C508 C509 1.349 . S
C508 C510 1.327 . S
C508 H533 0.950 . S
C509 C508 1.349 . S
C509 C525 1.349 . S
C510 C508 1.327 . S
C510 C529 1.429 . S
C510 H534 0.950 . S
C511 C528 1.574 . S
C511 C530 1.368 . S
C511 H535 0.949 . S
H512 C516 0.949 . S
C513 C514 1.349 . S
C513 C515 1.327 . S
C513 H536 0.950 . S
C514 C513 1.349 . S
C514 C526 1.349 . S
C515 C513 1.327 . S
C515 C531 1.429 . S
C515 H537 0.950 . S
C516 H512 0.949 . S
C516 C524 1.574 . S
C516 C532 1.368 . S
H517 C525 0.950 . S
H518 C523 0.950 . S
H519 C524 0.949 . S
H520 C526 0.950 . S
H521 C527 0.950 . S
H522 C528 0.949 . S
C523 H518 0.950 . S
C523 C525 1.327 . S
C523 C529 1.429 . S
C524 C516 1.574 . S
C524 H519 0.949 . S
C524 C530 1.368 . S
C525 C509 1.349 . S
C525 H517 0.950 . S
C525 C523 1.327 . S
C526 C514 1.349 . S
C526 H520 0.950 . S
C526 C527 1.327 . S
C527 H521 0.950 . S
C527 C526 1.327 . S
C527 C531 1.429 . S
C528 C511 1.574 . S
C528 H522 0.949 . S
C528 C532 1.368 . S
C529 C510 1.429 . S
C529 C523 1.429 . S
C529 C530 1.523 . S
C530 C511 1.368 . S
C530 C524 1.368 . S
C530 C529 1.523 . S
C531 C515 1.429 . S
C531 C527 1.429 . S
C531 C532 1.523 . S
C532 C516 1.368 . S
C532 C528 1.368 . S
C532 C531 1.523 . S
H533 C508 0.950 . S
H534 C510 0.950 . S
H535 C511 0.949 . S
H536 C513 0.950 . S
H537 C515 0.950 . S
C538 C539 1.349 . S
C538 C540 1.327 . S
C538 H563 0.950 . S
C539 C538 1.349 . S
C539 C555 1.349 . S
C540 C538 1.327 . S
C540 C559 1.429 . S
C540 H564 0.950 . S
C541 C558 1.574 . S
C541 C560 1.368 . S
C541 H565 0.949 . S
H542 C546 0.949 . S
C543 C544 1.349 . S
C543 C545 1.327 . S
C543 H566 0.950 . S
C544 C543 1.349 . S
C544 C556 1.349 . S
C545 C543 1.327 . S
C545 C561 1.429 . S
C545 H567 0.950 . S
C546 H542 0.949 . S
C546 C554 1.574 . S
C546 C562 1.368 . S
H547 C555 0.950 . S
H548 C553 0.950 . S
H549 C554 0.949 . S
H550 C556 0.950 . S
H551 C557 0.950 . S
H552 C558 0.949 . S
C553 H548 0.950 . S
C553 C555 1.327 . S
C553 C559 1.429 . S
C554 C546 1.574 . S
C554 H549 0.949 . S
C554 C560 1.368 . S
C555 C539 1.349 . S
C555 H547 0.950 . S
C555 C553 1.327 . S
C556 C544 1.349 . S
C556 H550 0.950 . S
C556 C557 1.327 . S
C557 H551 0.950 . S
C557 C556 1.327 . S
C557 C561 1.429 . S
C558 C541 1.574 . S
C558 H552 0.949 . S
C558 C562 1.368 . S
C559 C540 1.429 . S
C559 C553 1.429 . S
C559 C560 1.523 . S
C560 C541 1.368 . S
C560 C554 1.368 . S
C560 C559 1.523 . S
C561 C545 1.429 . S
C561 C557 1.429 . S
C561 C562 1.523 . S
C562 C546 1.368 . S
C562 C558 1.368 . S
C562 C561 1.523 . S
H563 C538 0.950 . S
H564 C540 0.950 . S
H565 C541 0.949 . S
H566 C543 0.950 . S
H567 C545 0.950 . S
C568 C569 1.349 . S
C568 C570 1.327 . S
C568 H593 0.950 . S
C569 C568 1.349 . S
C569 C585 1.349 . S
C570 C568 1.327 . S
C570 C589 1.429 . S
C570 H594 0.950 . S
C571 C588 1.574 . S
C571 C590 1.368 . S
C571 H595 0.949 . S
H572 C576 0.949 . S
C573 C574 1.349 . S
C573 C575 1.327 . S
C573 H596 0.950 . S
C574 C573 1.349 . S
C574 C586 1.349 . S
C575 C573 1.327 . S
C575 C591 1.429 . S
C575 H597 0.950 . S
C576 H572 0.949 . S
C576 C584 1.574 . S
C576 C592 1.368 . S
H577 C585 0.950 . S
H578 C583 0.950 . S
H579 C584 0.949 . S
H580 C586 0.950 . S
H581 C587 0.950 . S
H582 C588 0.949 . S
C583 H578 0.950 . S
C583 C585 1.327 . S
C583 C589 1.429 . S
C584 C576 1.574 . S
C584 H579 0.949 . S
C584 C590 1.368 . S
C585 C569 1.349 . S
C585 H577 0.950 . S
C585 C583 1.327 . S
C586 C574 1.349 . S
C586 H580 0.950 . S
C586 C587 1.327 . S
C587 H581 0.950 . S
C587 C586 1.327 . S
C587 C591 1.429 . S
C588 C571 1.574 . S
C588 H582 0.949 . S
C588 C592 1.368 . S
C589 C570 1.429 . S
C589 C583 1.429 . S
C589 C590 1.523 . S
C590 C571 1.368 . S
C590 C584 1.368 . S
C590 C589 1.523 . S
C591 C575 1.429 . S
C591 C587 1.429 . S
C591 C592 1.523 . S
C592 C576 1.368 . S
C592 C588 1.368 . S
C592 C591 1.523 . S
H593 C568 0.950 . S
H594 C570 0.950 . S
H595 C571 0.949 . S
H596 C573 0.950 . S
H597 C575 0.950 . S
C598 C599 1.349 . S
C598 C600 1.327 . S
C598 H623 0.950 . S
C599 C598 1.349 . S
C599 C615 1.349 . S
C600 C598 1.327 . S
C600 C619 1.429 . S
C600 H624 0.950 . S
C601 C618 1.574 1_556 S
C601 C620 1.368 . S
C601 H625 0.949 . S
H602 C606 0.949 . S
C603 C604 1.349 . S
C603 C605 1.327 . S
C603 H626 0.950 . S
C604 C603 1.349 . S
C604 C616 1.349 1_554 S
C605 C603 1.327 . S
C605 C621 1.429 1_554 S
C605 H627 0.950 . S
C606 H602 0.949 . S
C606 C614 1.574 . S
C606 C622 1.368 . S
H607 C615 0.950 . S
H608 C613 0.950 . S
H609 C614 0.949 . S
H610 C616 0.950 . S
H611 C617 0.950 . S
H612 C618 0.949 . S
C613 H608 0.950 . S
C613 C615 1.327 . S
C613 C619 1.429 . S
C614 C606 1.574 . S
C614 H609 0.949 . S
C614 C620 1.368 . S
C615 C599 1.349 . S
C615 H607 0.950 . S
C615 C613 1.327 . S
C616 C604 1.349 1_556 S
C616 H610 0.950 . S
C616 C617 1.327 . S
C617 H611 0.950 . S
C617 C616 1.327 . S
C617 C621 1.429 . S
C618 C601 1.574 1_554 S
C618 H612 0.949 . S
C618 C622 1.368 1_554 S
C619 C600 1.429 . S
C619 C613 1.429 . S
C619 C620 1.523 . S
C620 C601 1.368 . S
C620 C614 1.368 . S
C620 C619 1.523 . S
C621 C605 1.429 1_556 S
C621 C617 1.429 . S
C621 C622 1.523 . S
C622 C606 1.368 . S
C622 C618 1.368 1_556 S
C622 C621 1.523 . S
H623 C598 0.950 . S
H624 C600 0.950 . S
H625 C601 0.949 . S
H626 C603 0.950 . S
H627 C605 0.950 . S
C628 C629 1.349 . S
C628 C630 1.327 . S
C628 H653 0.950 . S
C629 C628 1.349 . S
C629 C645 1.349 . S
C630 C628 1.327 . S
C630 C649 1.429 . S
C630 H654 0.950 . S
C631 C648 1.574 . S
C631 C650 1.368 . S
C631 H655 0.949 . S
H632 C636 0.949 . S
C633 C634 1.349 . S
C633 C635 1.327 . S
C633 H656 0.950 . S
C634 C633 1.349 . S
C634 C646 1.349 . S
C635 C633 1.327 . S
C635 C651 1.429 . S
C635 H657 0.950 . S
C636 H632 0.949 . S
C636 C644 1.574 . S
C636 C652 1.368 . S
H637 C645 0.950 . S
H638 C643 0.950 . S
H639 C644 0.949 . S
H640 C646 0.950 . S
H641 C647 0.950 . S
H642 C648 0.949 . S
C643 H638 0.950 . S
C643 C645 1.327 . S
C643 C649 1.429 . S
C644 C636 1.574 . S
C644 H639 0.949 . S
C644 C650 1.368 . S
C645 C629 1.349 . S
C645 H637 0.950 . S
C645 C643 1.327 . S
C646 C634 1.349 . S
C646 H640 0.950 . S
C646 C647 1.327 . S
C647 H641 0.950 . S
C647 C646 1.327 . S
C647 C651 1.429 . S
C648 C631 1.574 . S
C648 H642 0.949 . S
C648 C652 1.368 . S
C649 C630 1.429 . S
C649 C643 1.429 . S
C649 C650 1.523 . S
C650 C631 1.368 . S
C650 C644 1.368 . S
C650 C649 1.523 . S
C651 C635 1.429 . S
C651 C647 1.429 . S
C651 C652 1.523 . S
C652 C636 1.368 . S
C652 C648 1.368 . S
C652 C651 1.523 . S
H653 C628 0.950 . S
H654 C630 0.950 . S
H655 C631 0.949 . S
H656 C633 0.950 . S
H657 C635 0.950 . S
C658 C659 1.349 . S
C658 C660 1.327 . S
C658 H683 0.950 . S
C659 C658 1.349 . S
C659 C675 1.349 . S
C660 C658 1.327 . S
C660 C679 1.429 . S
C660 H684 0.950 . S
C661 C678 1.574 . S
C661 C680 1.368 . S
C661 H685 0.949 . S
H662 C666 0.949 . S
C663 C664 1.349 . S
C663 C665 1.327 . S
C663 H686 0.950 . S
C664 C663 1.349 . S
C664 C676 1.349 . S
C665 C663 1.327 . S
C665 C681 1.429 . S
C665 H687 0.950 . S
C666 H662 0.949 . S
C666 C674 1.574 . S
C666 C682 1.368 . S
H667 C675 0.950 . S
H668 C673 0.950 . S
H669 C674 0.949 . S
H670 C676 0.950 . S
H671 C677 0.950 . S
H672 C678 0.949 . S
C673 H668 0.950 . S
C673 C675 1.327 . S
C673 C679 1.429 . S
C674 C666 1.574 . S
C674 H669 0.949 . S
C674 C680 1.368 . S
C675 C659 1.349 . S
C675 H667 0.950 . S
C675 C673 1.327 . S
C676 C664 1.349 . S
C676 H670 0.950 . S
C676 C677 1.327 . S
C677 H671 0.950 . S
C677 C676 1.327 . S
C677 C681 1.429 . S
C678 C661 1.574 . S
C678 H672 0.949 . S
C678 C682 1.368 . S
C679 C660 1.429 . S
C679 C673 1.429 . S
C679 C680 1.523 . S
C680 C661 1.368 . S
C680 C674 1.368 . S
C680 C679 1.523 . S
C681 C665 1.429 . S
C681 C677 1.429 . S
C681 C682 1.523 . S
C682 C666 1.368 . S
C682 C678 1.368 . S
C682 C681 1.523 . S
H683 C658 0.950 . S
H684 C660 0.950 . S
H685 C661 0.949 . S
H686 C663 0.950 . S
H687 C665 0.950 . S
C688 C689 1.349 . S
C688 C690 1.327 . S
C688 H713 0.950 . S
C689 C688 1.349 . S
C689 C705 1.349 . S
C690 C688 1.327 . S
C690 C709 1.429 . S
C690 H714 0.950 . S
C691 C708 1.574 . S
C691 C710 1.368 . S
C691 H715 0.949 . S
H692 C696 0.949 . S
C693 C694 1.349 . S
C693 C695 1.327 . S
C693 H716 0.950 . S
C694 C693 1.349 . S
C694 C706 1.349 . S
C695 C693 1.327 . S
C695 C711 1.429 . S
C695 H717 0.950 . S
C696 H692 0.949 . S
C696 C704 1.574 . S
C696 C712 1.368 . S
H697 C705 0.950 . S
H698 C703 0.950 . S
H699 C704 0.949 . S
H700 C706 0.950 . S
H701 C707 0.950 . S
H702 C708 0.949 . S
C703 H698 0.950 . S
C703 C705 1.327 . S
C703 C709 1.429 . S
C704 C696 1.574 . S
C704 H699 0.949 . S
C704 C710 1.368 . S
C705 C689 1.349 . S
C705 H697 0.950 . S
C705 C703 1.327 . S
C706 C694 1.349 . S
C706 H700 0.950 . S
C706 C707 1.327 . S
C707 H701 0.950 . S
C707 C706 1.327 . S
C707 C711 1.429 . S
C708 C691 1.574 . S
C708 H702 0.949 . S
C708 C712 1.368 . S
C709 C690 1.429 . S
C709 C703 1.429 . S
C709 C710 1.523 . S
C710 C691 1.368 . S
C710 C704 1.368 . S
C710 C709 1.523 . S
C711 C695 1.429 . S
C711 C707 1.429 . S
C711 C712 1.523 . S
C712 C696 1.368 . S
C712 C708 1.368 . S
C712 C711 1.523 . S
H713 C688 0.950 . S
H714 C690 0.950 . S
H715 C691 0.949 . S
H716 C693 0.950 . S
H717 C695 0.950 . S
C718 C719 1.349 . S
C718 C720 1.327 . S
C718 H743 0.950 . S
C719 C718 1.349 . S
C719 C735 1.349 . S
C720 C718 1.327 . S
C720 C739 1.429 . S
C720 H744 0.950 . S
C721 C738 1.574 . S
C721 C740 1.368 . S
C721 H745 0.949 . S
H722 C726 0.949 . S
C723 C724 1.349 . S
C723 C725 1.327 . S
C723 H746 0.950 . S
C724 C723 1.349 . S
C724 C736 1.349 . S
C725 C723 1.327 . S
C725 C741 1.429 . S
C725 H747 0.950 . S
C726 H722 0.949 . S
C726 C734 1.574 . S
C726 C742 1.368 . S
H727 C735 0.950 . S
H728 C733 0.950 . S
H729 C734 0.949 . S
H730 C736 0.950 . S
H731 C737 0.950 . S
H732 C738 0.949 . S
C733 H728 0.950 . S
C733 C735 1.327 . S
C733 C739 1.429 . S
C734 C726 1.574 . S
C734 H729 0.949 . S
C734 C740 1.368 . S
C735 C719 1.349 . S
C735 H727 0.950 . S
C735 C733 1.327 . S
C736 C724 1.349 . S
C736 H730 0.950 . S
C736 C737 1.327 . S
C737 H731 0.950 . S
C737 C736 1.327 . S
C737 C741 1.429 . S
C738 C721 1.574 . S
C738 H732 0.949 . S
C738 C742 1.368 . S
C739 C720 1.429 . S
C739 C733 1.429 . S
C739 C740 1.523 . S
C740 C721 1.368 . S
C740 C734 1.368 . S
C740 C739 1.523 . S
C741 C725 1.429 . S
C741 C737 1.429 . S
C741 C742 1.523 . S
C742 C726 1.368 . S
C742 C738 1.368 . S
C742 C741 1.523 . S
H743 C718 0.950 . S
H744 C720 0.950 . S
H745 C721 0.949 . S
H746 C723 0.950 . S
H747 C725 0.950 . S
C748 C749 1.349 . S
C748 C750 1.327 . S
C748 H773 0.950 . S
C749 C748 1.349 . S
C749 C765 1.349 . S
C750 C748 1.327 . S
C750 C769 1.429 . S
C750 H774 0.950 . S
C751 C768 1.574 . S
C751 C770 1.368 . S
C751 H775 0.949 . S
H752 C756 0.949 . S
C753 C754 1.349 . S
C753 C755 1.327 . S
C753 H776 0.950 . S
C754 C753 1.349 . S
C754 C766 1.349 . S
C755 C753 1.327 . S
C755 C771 1.429 1_554 S
C755 H777 0.950 1_554 S
C756 H752 0.949 . S
C756 C764 1.574 . S
C756 C772 1.368 . S
H757 C765 0.950 . S
H758 C763 0.950 . S
H759 C764 0.949 . S
H760 C766 0.950 . S
H761 C767 0.950 1_556 S
H762 C768 0.949 . S
C763 H758 0.950 . S
C763 C765 1.327 . S
C763 C769 1.429 . S
C764 C756 1.574 . S
C764 H759 0.949 . S
C764 C770 1.368 . S
C765 C749 1.349 . S
C765 H757 0.950 . S
C765 C763 1.327 . S
C766 C754 1.349 . S
C766 H760 0.950 . S
C766 C767 1.327 . S
C767 H761 0.950 1_554 S
C767 C766 1.327 . S
C767 C771 1.429 1_554 S
C768 C751 1.574 . S
C768 H762 0.949 . S
C768 C772 1.368 . S
C769 C750 1.429 . S
C769 C763 1.429 . S
C769 C770 1.523 . S
C770 C751 1.368 . S
C770 C764 1.368 . S
C770 C769 1.523 . S
C771 C755 1.429 1_556 S
C771 C767 1.429 1_556 S
C771 C772 1.523 . S
C772 C756 1.368 . S
C772 C768 1.368 . S
C772 C771 1.523 . S
H773 C748 0.950 . S
H774 C750 0.950 . S
H775 C751 0.949 . S
H776 C753 0.950 . S
H777 C755 0.950 1_556 S
C778 C779 1.349 . S
C778 C780 1.327 . S
C778 H803 0.950 . S
C779 C778 1.349 . S
C779 C795 1.349 . S
C780 C778 1.327 . S
C780 C799 1.429 . S
C780 H804 0.950 . S
C781 C798 1.574 . S
C781 C800 1.368 . S
C781 H805 0.949 . S
H782 C786 0.949 . S
C783 C784 1.349 . S
C783 C785 1.327 . S
C783 H806 0.950 . S
C784 C783 1.349 . S
C784 C796 1.349 . S
C785 C783 1.327 . S
C785 C801 1.429 . S
C785 H807 0.950 . S
C786 H782 0.949 . S
C786 C794 1.574 . S
C786 C802 1.368 . S
H787 C795 0.950 . S
H788 C793 0.950 . S
H789 C794 0.949 . S
H790 C796 0.950 . S
H791 C797 0.950 . S
H792 C798 0.949 . S
C793 H788 0.950 . S
C793 C795 1.327 . S
C793 C799 1.429 . S
C794 C786 1.574 . S
C794 H789 0.949 . S
C794 C800 1.368 . S
C795 C779 1.349 . S
C795 H787 0.950 . S
C795 C793 1.327 . S
C796 C784 1.349 . S
C796 H790 0.950 . S
C796 C797 1.327 . S
C797 H791 0.950 . S
C797 C796 1.327 . S
C797 C801 1.429 . S
C798 C781 1.574 . S
C798 H792 0.949 . S
C798 C802 1.368 . S
C799 C780 1.429 . S
C799 C793 1.429 . S
C799 C800 1.523 . S
C800 C781 1.368 . S
C800 C794 1.368 . S
C800 C799 1.523 . S
C801 C785 1.429 . S
C801 C797 1.429 . S
C801 C802 1.523 . S
C802 C786 1.368 . S
C802 C798 1.368 . S
C802 C801 1.523 . S
H803 C778 0.950 . S
H804 C780 0.950 . S
H805 C781 0.949 . S
H806 C783 0.950 . S
H807 C785 0.950 . S
C808 C809 1.349 . S
C808 C810 1.327 . S
C808 H833 0.950 . S
C809 C808 1.349 . S
C809 C825 1.349 . S
C810 C808 1.327 . S
C810 C829 1.429 . S
C810 H834 0.950 . S
C811 C828 1.574 . S
C811 C830 1.368 . S
C811 H835 0.949 . S
H812 C816 0.949 . S
C813 C814 1.349 . S
C813 C815 1.327 . S
C813 H836 0.950 . S
C814 C813 1.349 . S
C814 C826 1.349 . S
C815 C813 1.327 . S
C815 C831 1.429 . S
C815 H837 0.950 . S
C816 H812 0.949 . S
C816 C824 1.574 . S
C816 C832 1.368 . S
H817 C825 0.950 . S
H818 C823 0.950 . S
H819 C824 0.949 . S
H820 C826 0.950 . S
H821 C827 0.950 . S
H822 C828 0.949 . S
C823 H818 0.950 . S
C823 C825 1.327 . S
C823 C829 1.429 . S
C824 C816 1.574 . S
C824 H819 0.949 . S
C824 C830 1.368 . S
C825 C809 1.349 . S
C825 H817 0.950 . S
C825 C823 1.327 . S
C826 C814 1.349 . S
C826 H820 0.950 . S
C826 C827 1.327 . S
C827 H821 0.950 . S
C827 C826 1.327 . S
C827 C831 1.429 . S
C828 C811 1.574 . S
C828 H822 0.949 . S
C828 C832 1.368 . S
C829 C810 1.429 . S
C829 C823 1.429 . S
C829 C830 1.523 . S
C830 C811 1.368 . S
C830 C824 1.368 . S
C830 C829 1.523 . S
C831 C815 1.429 . S
C831 C827 1.429 . S
C831 C832 1.523 . S
C832 C816 1.368 . S
C832 C828 1.368 . S
C832 C831 1.523 . S
H833 C808 0.950 . S
H834 C810 0.950 . S
H835 C811 0.949 . S
H836 C813 0.950 . S
H837 C815 0.950 . S
C838 C839 1.349 . S
C838 C840 1.327 . S
C838 H863 0.950 . S
C839 C838 1.349 . S
C839 C855 1.349 . S
C840 C838 1.327 . S
C840 C859 1.429 . S
C840 H864 0.950 . S
C841 C858 1.574 . S
C841 C860 1.368 . S
C841 H865 0.949 . S
H842 C846 0.949 . S
C843 C844 1.349 . S
C843 C845 1.327 . S
C843 H866 0.950 . S
C844 C843 1.349 . S
C844 C856 1.349 . S
C845 C843 1.327 . S
C845 C861 1.429 . S
C845 H867 0.950 . S
C846 H842 0.949 . S
C846 C854 1.574 . S
C846 C862 1.368 . S
H847 C855 0.950 . S
H848 C853 0.950 . S
H849 C854 0.949 . S
H850 C856 0.950 . S
H851 C857 0.950 . S
H852 C858 0.949 . S
C853 H848 0.950 . S
C853 C855 1.327 . S
C853 C859 1.429 . S
C854 C846 1.574 . S
C854 H849 0.949 . S
C854 C860 1.368 . S
C855 C839 1.349 . S
C855 H847 0.950 . S
C855 C853 1.327 . S
C856 C844 1.349 . S
C856 H850 0.950 . S
C856 C857 1.327 . S
C857 H851 0.950 . S
C857 C856 1.327 . S
C857 C861 1.429 . S
C858 C841 1.574 . S
C858 H852 0.949 . S
C858 C862 1.368 . S
C859 C840 1.429 . S
C859 C853 1.429 . S
C859 C860 1.523 . S
C860 C841 1.368 . S
C860 C854 1.368 . S
C860 C859 1.523 . S
C861 C845 1.429 . S
C861 C857 1.429 . S
C861 C862 1.523 . S
C862 C846 1.368 . S
C862 C858 1.368 . S
C862 C861 1.523 . S
H863 C838 0.950 . S
H864 C840 0.950 . S
H865 C841 0.949 . S
H866 C843 0.950 . S
H867 C845 0.950 . S
C868 C869 1.349 . S
C868 C870 1.327 . S
C868 H893 0.950 . S
C869 C868 1.349 . S
C869 C885 1.349 . S
C870 C868 1.327 . S
C870 C889 1.429 . S
C870 H894 0.950 . S
C871 C888 1.574 . S
C871 C890 1.368 . S
C871 H895 0.949 . S
H872 C876 0.949 . S
C873 C874 1.349 . S
C873 C875 1.327 . S
C873 H896 0.950 . S
C874 C873 1.349 . S
C874 C886 1.349 . S
C875 C873 1.327 . S
C875 C891 1.429 . S
C875 H897 0.950 . S
C876 H872 0.949 . S
C876 C884 1.574 . S
C876 C892 1.368 . S
H877 C885 0.950 . S
H878 C883 0.950 . S
H879 C884 0.949 . S
H880 C886 0.950 . S
H881 C887 0.950 . S
H882 C888 0.949 . S
C883 H878 0.950 . S
C883 C885 1.327 . S
C883 C889 1.429 . S
C884 C876 1.574 . S
C884 H879 0.949 . S
C884 C890 1.368 . S
C885 C869 1.349 . S
C885 H877 0.950 . S
C885 C883 1.327 . S
C886 C874 1.349 . S
C886 H880 0.950 . S
C886 C887 1.327 . S
C887 H881 0.950 . S
C887 C886 1.327 . S
C887 C891 1.429 . S
C888 C871 1.574 . S
C888 H882 0.949 . S
C888 C892 1.368 . S
C889 C870 1.429 . S
C889 C883 1.429 . S
C889 C890 1.523 . S
C890 C871 1.368 . S
C890 C884 1.368 . S
C890 C889 1.523 . S
C891 C875 1.429 . S
C891 C887 1.429 . S
C891 C892 1.523 . S
C892 C876 1.368 . S
C892 C888 1.368 . S
C892 C891 1.523 . S
H893 C868 0.950 . S
H894 C870 0.950 . S
H895 C871 0.949 . S
H896 C873 0.950 . S
H897 C875 0.950 . S
C898 C899 1.349 . S
C898 C900 1.327 . S
C898 H923 0.950 . S
C899 C898 1.349 . S
C899 C915 1.349 . S
C900 C898 1.327 . S
C900 C919 1.429 . S
C900 H924 0.950 . S
C901 C918 1.574 1_556 S
C901 C920 1.368 . S
C901 H925 0.949 . S
H902 C906 0.949 . S
C903 C904 1.349 . S
C903 C905 1.327 . S
C903 H926 0.950 . S
C904 C903 1.349 . S
C904 C916 1.349 1_554 S
C905 C903 1.327 . S
C905 C921 1.429 1_554 S
C905 H927 0.950 . S
C906 H902 0.949 . S
C906 C914 1.574 . S
C906 C922 1.368 . S
H907 C915 0.950 . S
H908 C913 0.950 . S
H909 C914 0.949 . S
H910 C916 0.950 . S
H911 C917 0.950 . S
H912 C918 0.949 . S
C913 H908 0.950 . S
C913 C915 1.327 . S
C913 C919 1.429 . S
C914 C906 1.574 . S
C914 H909 0.949 . S
C914 C920 1.368 . S
C915 C899 1.349 . S
C915 H907 0.950 . S
C915 C913 1.327 . S
C916 C904 1.349 1_556 S
C916 H910 0.950 . S
C916 C917 1.327 . S
C917 H911 0.950 . S
C917 C916 1.327 . S
C917 C921 1.429 . S
C918 C901 1.574 1_554 S
C918 H912 0.949 . S
C918 C922 1.368 1_554 S
C919 C900 1.429 . S
C919 C913 1.429 . S
C919 C920 1.523 . S
C920 C901 1.368 . S
C920 C914 1.368 . S
C920 C919 1.523 . S
C921 C905 1.429 1_556 S
C921 C917 1.429 . S
C921 C922 1.523 . S
C922 C906 1.368 . S
C922 C918 1.368 1_556 S
C922 C921 1.523 . S
H923 C898 0.950 . S
H924 C900 0.950 . S
H925 C901 0.949 . S
H926 C903 0.950 . S
H927 C905 0.950 . S
C928 C929 1.349 . S
C928 C930 1.327 . S
C928 H953 0.950 . S
C929 C928 1.349 . S
C929 C945 1.349 . S
C930 C928 1.327 . S
C930 C949 1.429 . S
C930 H954 0.950 . S
C931 C948 1.574 . S
C931 C950 1.368 . S
C931 H955 0.949 . S
H932 C936 0.949 . S
C933 C934 1.349 . S
C933 C935 1.327 . S
C933 H956 0.950 . S
C934 C933 1.349 . S
C934 C946 1.349 . S
C935 C933 1.327 . S
C935 C951 1.429 . S
C935 H957 0.950 . S
C936 H932 0.949 . S
C936 C944 1.574 . S
C936 C952 1.368 . S
H937 C945 0.950 . S
H938 C943 0.950 . S
H939 C944 0.949 . S
H940 C946 0.950 . S
H941 C947 0.950 . S
H942 C948 0.949 . S
C943 H938 0.950 . S
C943 C945 1.327 . S
C943 C949 1.429 . S
C944 C936 1.574 . S
C944 H939 0.949 . S
C944 C950 1.368 . S
C945 C929 1.349 . S
C945 H937 0.950 . S
C945 C943 1.327 . S
C946 C934 1.349 . S
C946 H940 0.950 . S
C946 C947 1.327 . S
C947 H941 0.950 . S
C947 C946 1.327 . S
C947 C951 1.429 . S
C948 C931 1.574 . S
C948 H942 0.949 . S
C948 C952 1.368 . S
C949 C930 1.429 . S
C949 C943 1.429 . S
C949 C950 1.523 . S
C950 C931 1.368 . S
C950 C944 1.368 . S
C950 C949 1.523 . S
C951 C935 1.429 . S
C951 C947 1.429 . S
C951 C952 1.523 . S
C952 C936 1.368 . S
C952 C948 1.368 . S
C952 C951 1.523 . S
H953 C928 0.950 . S
H954 C930 0.950 . S
H955 C931 0.949 . S
H956 C933 0.950 . S
H957 C935 0.950 . S
C958 C959 1.349 . S
C958 C960 1.327 . S
C958 H983 0.950 . S
C959 C958 1.349 . S
C959 C975 1.349 . S
C960 C958 1.327 . S
C960 C979 1.429 . S
C960 H984 0.950 . S
C961 C978 1.574 . S
C961 C980 1.368 . S
C961 H985 0.949 . S
H962 C966 0.949 . S
C963 C964 1.349 . S
C963 C965 1.327 1_556 S
C963 H986 0.950 . S
C964 C963 1.349 . S
C964 C976 1.349 . S
C965 C963 1.327 1_554 S
C965 C981 1.429 . S
C965 H987 0.950 . S
C966 H962 0.949 . S
C966 C974 1.574 1_545 S
C966 C982 1.368 . S
H967 C975 0.950 . S
H968 C973 0.950 1_545 S
H969 C974 0.949 . S
H970 C976 0.950 . S
H971 C977 0.950 . S
H972 C978 0.949 . S
C973 H968 0.950 1_565 S
C973 C975 1.327 . S
C973 C979 1.429 . S
C974 C966 1.574 1_565 S
C974 H969 0.949 . S
C974 C980 1.368 1_565 S
C975 C959 1.349 . S
C975 H967 0.950 . S
C975 C973 1.327 . S
C976 C964 1.349 . S
C976 H970 0.950 . S
C976 C977 1.327 . S
C977 H971 0.950 . S
C977 C976 1.327 . S
C977 C981 1.429 1_556 S
C978 C961 1.574 . S
C978 H972 0.949 . S
C978 C982 1.368 . S
C979 C960 1.429 . S
C979 C973 1.429 . S
C979 C980 1.523 1_565 S
C980 C961 1.368 . S
C980 C974 1.368 1_545 S
C980 C979 1.523 1_545 S
C981 C965 1.429 . S
C981 C977 1.429 1_554 S
C981 C982 1.523 . S
C982 C966 1.368 . S
C982 C978 1.368 . S
C982 C981 1.523 . S
H983 C958 0.950 . S
H984 C960 0.950 . S
H985 C961 0.949 . S
H986 C963 0.950 . S
H987 C965 0.950 . S
C988 C989 1.349 . S
C988 C990 1.327 . S
C988 H1013 0.950 . S
C989 C988 1.349 . S
C989 C1005 1.349 . S
C990 C988 1.327 . S
C990 C1009 1.429 . S
C990 H1014 0.950 . S
C991 C1008 1.574 . S
C991 C1010 1.368 . S
C991 H1015 0.949 . S
H992 C996 0.949 . S
C993 C994 1.349 . S
C993 C995 1.327 . S
C993 H1016 0.950 . S
C994 C993 1.349 . S
C994 C1006 1.349 . S
C995 C993 1.327 . S
C995 C1011 1.429 . S
C995 H1017 0.950 . S
C996 H992 0.949 . S
C996 C1004 1.574 . S
C996 C1012 1.368 . S
H997 C1005 0.950 . S
H998 C1003 0.950 . S
H999 C1004 0.949 . S
H1000 C1006 0.950 . S
H1001 C1007 0.950 . S
H1002 C1008 0.949 . S
C1003 H998 0.950 . S
C1003 C1005 1.327 . S
C1003 C1009 1.429 . S
C1004 C996 1.574 . S
C1004 H999 0.949 . S
C1004 C1010 1.368 . S
C1005 C989 1.349 . S
C1005 H997 0.950 . S
C1005 C1003 1.327 . S
C1006 C994 1.349 . S
C1006 H1000 0.950 . S
C1006 C1007 1.327 . S
C1007 H1001 0.950 . S
C1007 C1006 1.327 . S
C1007 C1011 1.429 . S
C1008 C991 1.574 . S
C1008 H1002 0.949 . S
C1008 C1012 1.368 . S
C1009 C990 1.429 . S
C1009 C1003 1.429 . S
C1009 C1010 1.523 . S
C1010 C991 1.368 . S
C1010 C1004 1.368 . S
C1010 C1009 1.523 . S
C1011 C995 1.429 . S
C1011 C1007 1.429 . S
C1011 C1012 1.523 . S
C1012 C996 1.368 . S
C1012 C1008 1.368 . S
C1012 C1011 1.523 . S
H1013 C988 0.950 . S
H1014 C990 0.950 . S
H1015 C991 0.949 . S
H1016 C993 0.950 . S
H1017 C995 0.950 . S
C1018 C1019 1.349 . S
C1018 C1020 1.327 . S
C1018 H1043 0.950 . S
C1019 C1018 1.349 . S
C1019 C1035 1.349 . S
C1020 C1018 1.327 . S
C1020 C1039 1.429 . S
C1020 H1044 0.950 . S
C1021 C1038 1.574 . S
C1021 C1040 1.368 . S
C1021 H1045 0.949 . S
H1022 C1026 0.949 . S
C1023 C1024 1.349 . S
C1023 C1025 1.308 1_565 S
C1023 H1046 0.950 . S
C1024 C1023 1.349 . S
C1024 C1036 1.349 . S
C1025 C1023 1.308 1_545 S
C1025 C1041 1.413 1_545 S
C1025 H1047 0.987 . S
C1026 H1022 0.949 . S
C1026 C1034 1.574 1_565 S
C1026 C1042 1.368 1_565 S
H1027 C1035 0.950 . S
H1028 C1033 0.950 . S
H1029 C1034 0.949 1_565 S
H1030 C1036 0.950 . S
H1031 C1037 0.950 . S
H1032 C1038 0.949 . S
C1033 H1028 0.950 . S
C1033 C1035 1.327 . S
C1033 C1039 1.429 . S
C1034 C1026 1.574 1_545 S
C1034 H1029 0.949 1_545 S
C1034 C1040 1.368 . S
C1035 C1019 1.349 . S
C1035 H1027 0.950 . S
C1035 C1033 1.327 . S
C1036 C1024 1.349 . S
C1036 H1030 0.950 . S
C1036 C1037 1.327 . S
C1037 H1031 0.950 . S
C1037 C1036 1.327 . S
C1037 C1041 1.429 . S
C1038 C1021 1.574 . S
C1038 H1032 0.949 . S
C1038 C1042 1.368 . S
C1039 C1020 1.429 . S
C1039 C1033 1.429 . S
C1039 C1040 1.523 . S
C1040 C1021 1.368 . S
C1040 C1034 1.368 . S
C1040 C1039 1.523 . S
C1041 C1025 1.413 1_565 S
C1041 C1037 1.429 . S
C1041 C1042 1.523 1_565 S
C1042 C1026 1.368 1_545 S
C1042 C1038 1.368 . S
C1042 C1041 1.523 1_545 S
H1043 C1018 0.950 . S
H1044 C1020 0.950 . S
H1045 C1021 0.949 . S
H1046 C1023 0.950 . S
H1047 C1025 0.987 . S
C1048 C1049 1.349 . S
C1048 C1050 1.327 . S
C1048 H1073 0.950 . S
C1049 C1048 1.349 . S
C1049 C1065 1.349 . S
C1050 C1048 1.327 . S
C1050 C1069 1.429 . S
C1050 H1074 0.950 . S
C1051 C1068 1.574 . S
C1051 C1070 1.368 . S
C1051 H1075 0.949 . S
H1052 C1056 0.949 . S
C1053 C1054 1.349 . S
C1053 C1055 1.327 . S
C1053 H1076 0.950 . S
C1054 C1053 1.349 . S
C1054 C1066 1.349 . S
C1055 C1053 1.327 . S
C1055 C1071 1.429 . S
C1055 H1077 0.950 . S
C1056 H1052 0.949 . S
C1056 C1064 1.574 . S
C1056 C1072 1.368 . S
H1057 C1065 0.950 . S
H1058 C1063 0.950 . S
H1059 C1064 0.949 . S
H1060 C1066 0.950 . S
H1061 C1067 0.950 . S
H1062 C1068 0.949 . S
C1063 H1058 0.950 . S
C1063 C1065 1.327 . S
C1063 C1069 1.429 . S
C1064 C1056 1.574 . S
C1064 H1059 0.949 . S
C1064 C1070 1.368 . S
C1065 C1049 1.349 . S
C1065 H1057 0.950 . S
C1065 C1063 1.327 . S
C1066 C1054 1.349 . S
C1066 H1060 0.950 . S
C1066 C1067 1.327 . S
C1067 H1061 0.950 . S
C1067 C1066 1.327 . S
C1067 C1071 1.429 . S
C1068 C1051 1.574 . S
C1068 H1062 0.949 . S
C1068 C1072 1.368 . S
C1069 C1050 1.429 . S
C1069 C1063 1.429 . S
C1069 C1070 1.523 . S
C1070 C1051 1.368 . S
C1070 C1064 1.368 . S
C1070 C1069 1.523 . S
C1071 C1055 1.429 . S
C1071 C1067 1.429 . S
C1071 C1072 1.523 . S
C1072 C1056 1.368 . S
C1072 C1068 1.368 . S
C1072 C1071 1.523 . S
H1073 C1048 0.950 . S
H1074 C1050 0.950 . S
H1075 C1051 0.949 . S
H1076 C1053 0.950 . S
H1077 C1055 0.950 . S
C1078 C1079 1.349 . S
C1078 C1080 1.327 . S
C1078 H1103 0.950 . S
C1079 C1078 1.349 . S
C1079 C1095 1.349 . S
C1080 C1078 1.327 . S
C1080 C1099 1.429 1_556 S
C1080 H1104 0.950 . S
C1081 C1098 1.574 . S
C1081 C1100 1.368 . S
C1081 H1105 0.949 . S
H1082 C1086 0.949 . S
C1083 C1084 1.349 . S
C1083 C1085 1.327 . S
C1083 H1106 0.950 . S
C1084 C1083 1.349 . S
C1084 C1096 1.349 . S
C1085 C1083 1.327 . S
C1085 C1101 1.429 . S
C1085 H1107 0.950 1_565 S
C1086 H1082 0.949 . S
C1086 C1094 1.574 1_565 S
C1086 C1102 1.368 1_565 S
H1087 C1095 0.950 . S
H1088 C1093 0.962 . S
H1089 C1094 0.949 . S
H1090 C1096 0.950 . S
H1091 C1097 0.950 . S
H1092 C1098 0.949 . S
C1093 H1088 0.962 . S
C1093 C1095 1.308 1_554 S
C1093 C1099 1.436 . S
C1094 C1086 1.574 1_545 S
C1094 H1089 0.949 . S
C1094 C1100 1.368 . S
C1095 C1079 1.349 . S
C1095 H1087 0.950 . S
C1095 C1093 1.308 1_556 S
C1096 C1084 1.349 . S
C1096 H1090 0.950 . S
C1096 C1097 1.327 . S
C1097 H1091 0.950 . S
C1097 C1096 1.327 . S
C1097 C1101 1.429 . S
C1098 C1081 1.574 . S
C1098 H1092 0.949 . S
C1098 C1102 1.368 . S
C1099 C1080 1.429 1_554 S
C1099 C1093 1.436 . S
C1099 C1100 1.523 . S
C1100 C1081 1.368 . S
C1100 C1094 1.368 . S
C1100 C1099 1.523 . S
C1101 C1085 1.429 . S
C1101 C1097 1.429 . S
C1101 C1102 1.523 1_565 S
C1102 C1086 1.368 1_545 S
C1102 C1098 1.368 . S
C1102 C1101 1.523 1_545 S
H1103 C1078 0.950 . S
H1104 C1080 0.950 . S
H1105 C1081 0.949 . S
H1106 C1083 0.950 . S
H1107 C1085 0.950 1_545 S
C1108 C1109 1.349 . S
C1108 C1110 1.327 . S
C1108 H1133 0.950 . S
C1109 C1108 1.349 . S
C1109 C1125 1.349 . S
C1110 C1108 1.327 . S
C1110 C1129 1.429 . S
C1110 H1134 0.950 . S
C1111 C1128 1.574 . S
C1111 C1130 1.368 . S
C1111 H1135 0.949 . S
H1112 C1116 0.949 . S
C1113 C1114 1.349 . S
C1113 C1115 1.327 . S
C1113 H1136 0.950 . S
C1114 C1113 1.349 . S
C1114 C1126 1.349 . S
C1115 C1113 1.327 . S
C1115 C1131 1.429 . S
C1115 H1137 0.950 . S
C1116 H1112 0.949 . S
C1116 C1124 1.574 . S
C1116 C1132 1.368 . S
H1117 C1125 0.950 . S
H1118 C1123 0.950 . S
H1119 C1124 0.949 . S
H1120 C1126 0.950 . S
H1121 C1127 0.950 . S
H1122 C1128 0.949 . S
C1123 H1118 0.950 . S
C1123 C1125 1.327 . S
C1123 C1129 1.429 . S
C1124 C1116 1.574 . S
C1124 H1119 0.949 . S
C1124 C1130 1.368 . S
C1125 C1109 1.349 . S
C1125 H1117 0.950 . S
C1125 C1123 1.327 . S
C1126 C1114 1.349 . S
C1126 H1120 0.950 . S
C1126 C1127 1.327 . S
C1127 H1121 0.950 . S
C1127 C1126 1.327 . S
C1127 C1131 1.429 . S
C1128 C1111 1.574 . S
C1128 H1122 0.949 . S
C1128 C1132 1.368 . S
C1129 C1110 1.429 . S
C1129 C1123 1.429 . S
C1129 C1130 1.523 . S
C1130 C1111 1.368 . S
C1130 C1124 1.368 . S
C1130 C1129 1.523 . S
C1131 C1115 1.429 . S
C1131 C1127 1.429 . S
C1131 C1132 1.523 . S
C1132 C1116 1.368 . S
C1132 C1128 1.368 . S
C1132 C1131 1.523 . S
H1133 C1108 0.950 . S
H1134 C1110 0.950 . S
H1135 C1111 0.949 . S
H1136 C1113 0.950 . S
H1137 C1115 0.950 . S
C1138 C1139 1.349 . S
C1138 C1140 1.327 . S
C1138 H1163 0.950 . S
C1139 C1138 1.349 . S
C1139 C1155 1.349 . S
C1140 C1138 1.327 . S
C1140 C1159 1.429 . S
C1140 H1164 0.950 . S
C1141 C1158 1.574 . S
C1141 C1160 1.368 . S
C1141 H1165 0.949 . S
H1142 C1146 0.949 . S
C1143 C1144 1.349 . S
C1143 C1145 1.327 1_565 S
C1143 H1166 0.950 1_565 S
C1144 C1143 1.349 . S
C1144 C1156 1.349 . S
C1145 C1143 1.327 1_545 S
C1145 C1161 1.429 1_545 S
C1145 H1167 0.950 . S
C1146 H1142 0.949 . S
C1146 C1154 1.581 . S
C1146 C1162 1.368 1_565 S
H1147 C1155 0.950 . S
H1148 C1153 0.950 . S
H1149 C1154 0.958 . S
H1150 C1156 0.950 . S
H1151 C1157 0.950 . S
H1152 C1158 0.949 . S
C1153 H1148 0.950 . S
C1153 C1155 1.327 . S
C1153 C1159 1.429 . S
C1154 C1146 1.581 . S
C1154 H1149 0.958 . S
C1154 C1160 1.351 1_565 S
C1155 C1139 1.349 . S
C1155 H1147 0.950 . S
C1155 C1153 1.327 . S
C1156 C1144 1.349 . S
C1156 H1150 0.950 . S
C1156 C1157 1.327 . S
C1157 H1151 0.950 . S
C1157 C1156 1.327 . S
C1157 C1161 1.429 . S
C1158 C1141 1.574 . S
C1158 H1152 0.949 . S
C1158 C1162 1.368 . S
C1159 C1140 1.429 . S
C1159 C1153 1.429 . S
C1159 C1160 1.523 . S
C1160 C1141 1.368 . S
C1160 C1154 1.351 1_545 S
C1160 C1159 1.523 . S
C1161 C1145 1.429 1_565 S
C1161 C1157 1.429 . S
C1161 C1162 1.523 1_565 S
C1162 C1146 1.368 1_545 S
C1162 C1158 1.368 . S
C1162 C1161 1.523 1_545 S
H1163 C1138 0.950 . S
H1164 C1140 0.950 . S
H1165 C1141 0.949 . S
H1166 C1143 0.950 1_545 S
H1167 C1145 0.950 . S
C1168 C1169 1.349 . S
C1168 C1170 1.327 . S
C1168 H1193 0.950 . S
C1169 C1168 1.349 . S
C1169 C1185 1.349 . S
C1170 C1168 1.327 . S
C1170 C1189 1.429 . S
C1170 H1194 0.950 . S
C1171 C1188 1.574 . S
C1171 C1190 1.368 . S
C1171 H1195 0.949 . S
H1172 C1176 0.949 . S
C1173 C1174 1.349 . S
C1173 C1175 1.327 . S
C1173 H1196 0.950 . S
C1174 C1173 1.349 . S
C1174 C1186 1.349 . S
C1175 C1173 1.327 . S
C1175 C1191 1.429 . S
C1175 H1197 0.950 . S
C1176 H1172 0.949 . S
C1176 C1184 1.574 . S
C1176 C1192 1.368 . S
H1177 C1185 0.950 . S
H1178 C1183 0.950 . S
H1179 C1184 0.949 . S
H1180 C1186 0.950 . S
H1181 C1187 0.950 . S
H1182 C1188 0.949 . S
C1183 H1178 0.950 . S
C1183 C1185 1.327 . S
C1183 C1189 1.429 . S
C1184 C1176 1.574 . S
C1184 H1179 0.949 . S
C1184 C1190 1.368 . S
C1185 C1169 1.349 . S
C1185 H1177 0.950 . S
C1185 C1183 1.327 . S
C1186 C1174 1.349 . S
C1186 H1180 0.950 . S
C1186 C1187 1.327 . S
C1187 H1181 0.950 . S
C1187 C1186 1.327 . S
C1187 C1191 1.429 . S
C1188 C1171 1.574 . S
C1188 H1182 0.949 . S
C1188 C1192 1.368 . S
C1189 C1170 1.429 . S
C1189 C1183 1.429 . S
C1189 C1190 1.523 . S
C1190 C1171 1.368 . S
C1190 C1184 1.368 . S
C1190 C1189 1.523 . S
C1191 C1175 1.429 . S
C1191 C1187 1.429 . S
C1191 C1192 1.523 . S
C1192 C1176 1.368 . S
C1192 C1188 1.368 . S
C1192 C1191 1.523 . S
H1193 C1168 0.950 . S
H1194 C1170 0.950 . S
H1195 C1171 0.949 . S
H1196 C1173 0.950 . S
H1197 C1175 0.950 . S
C1198 C1199 1.349 . S
C1198 C1200 1.327 . S
C1198 H1223 0.950 . S
C1199 C1198 1.349 . S
C1199 C1215 1.349 . S
C1200 C1198 1.327 . S
C1200 C1219 1.429 . S
C1200 H1224 0.950 . S
C1201 C1218 1.574 . S
C1201 C1220 1.368 . S
C1201 H1225 0.949 . S
H1202 C1206 0.949 . S
C1203 C1204 1.349 . S
C1203 C1205 1.327 . S
C1203 H1226 0.950 . S
C1204 C1203 1.349 . S
C1204 C1216 1.349 . S
C1205 C1203 1.327 . S
C1205 C1221 1.429 . S
C1205 H1227 0.950 . S
C1206 H1202 0.949 . S
C1206 C1214 1.574 . S
C1206 C1222 1.368 . S
H1207 C1215 0.950 . S
H1208 C1213 0.950 . S
H1209 C1214 0.949 . S
H1210 C1216 0.950 . S
H1211 C1217 0.950 . S
H1212 C1218 0.949 . S
C1213 H1208 0.950 . S
C1213 C1215 1.327 . S
C1213 C1219 1.429 . S
C1214 C1206 1.574 . S
C1214 H1209 0.949 . S
C1214 C1220 1.368 . S
C1215 C1199 1.349 . S
C1215 H1207 0.950 . S
C1215 C1213 1.327 . S
C1216 C1204 1.349 . S
C1216 H1210 0.950 . S
C1216 C1217 1.327 . S
C1217 H1211 0.950 . S
C1217 C1216 1.327 . S
C1217 C1221 1.429 . S
C1218 C1201 1.574 . S
C1218 H1212 0.949 . S
C1218 C1222 1.368 . S
C1219 C1200 1.429 . S
C1219 C1213 1.429 . S
C1219 C1220 1.523 . S
C1220 C1201 1.368 . S
C1220 C1214 1.368 . S
C1220 C1219 1.523 . S
C1221 C1205 1.429 . S
C1221 C1217 1.429 . S
C1221 C1222 1.523 . S
C1222 C1206 1.368 . S
C1222 C1218 1.368 . S
C1222 C1221 1.523 . S
H1223 C1198 0.950 . S
H1224 C1200 0.950 . S
H1225 C1201 0.949 . S
H1226 C1203 0.950 . S
H1227 C1205 0.950 . S
C1228 C1229 1.349 . S
C1228 C1230 1.327 . S
C1228 H1253 0.950 . S
C1229 C1228 1.349 . S
C1229 C1245 1.349 . S
C1230 C1228 1.327 . S
C1230 C1249 1.429 . S
C1230 H1254 0.950 . S
C1231 C1248 1.574 . S
C1231 C1250 1.368 . S
C1231 H1255 0.949 . S
H1232 C1236 0.949 . S
C1233 C1234 1.349 . S
C1233 C1235 1.327 . S
C1233 H1256 0.950 . S
C1234 C1233 1.349 . S
C1234 C1246 1.349 . S
C1235 C1233 1.327 . S
C1235 C1251 1.429 . S
C1235 H1257 0.950 . S
C1236 H1232 0.949 . S
C1236 C1244 1.574 . S
C1236 C1252 1.368 . S
H1237 C1245 0.950 . S
H1238 C1243 0.950 . S
H1239 C1244 0.949 . S
H1240 C1246 0.950 . S
H1241 C1247 0.950 . S
H1242 C1248 0.949 . S
C1243 H1238 0.950 . S
C1243 C1245 1.327 . S
C1243 C1249 1.429 . S
C1244 C1236 1.574 . S
C1244 H1239 0.949 . S
C1244 C1250 1.368 . S
C1245 C1229 1.349 . S
C1245 H1237 0.950 . S
C1245 C1243 1.327 . S
C1246 C1234 1.349 . S
C1246 H1240 0.950 . S
C1246 C1247 1.327 . S
C1247 H1241 0.950 . S
C1247 C1246 1.327 . S
C1247 C1251 1.429 . S
C1248 C1231 1.574 . S
C1248 H1242 0.949 . S
C1248 C1252 1.368 . S
C1249 C1230 1.429 . S
C1249 C1243 1.429 . S
C1249 C1250 1.523 . S
C1250 C1231 1.368 . S
C1250 C1244 1.368 . S
C1250 C1249 1.523 . S
C1251 C1235 1.429 . S
C1251 C1247 1.429 . S
C1251 C1252 1.523 . S
C1252 C1236 1.368 . S
C1252 C1248 1.368 . S
C1252 C1251 1.523 . S
H1253 C1228 0.950 . S
H1254 C1230 0.950 . S
H1255 C1231 0.949 . S
H1256 C1233 0.950 . S
H1257 C1235 0.950 . S
C1258 C1259 1.349 . S
C1258 C1260 1.327 . S
C1258 H1283 0.950 . S
C1259 C1258 1.349 . S
C1259 C1275 1.349 . S
C1260 C1258 1.327 . S
C1260 C1279 1.429 . S
C1260 H1284 0.950 . S
C1261 C1278 1.574 . S
C1261 C1280 1.368 . S
C1261 H1285 0.949 . S
H1262 C1266 0.949 . S
C1263 C1264 1.349 . S
C1263 C1265 1.327 . S
C1263 H1286 0.950 . S
C1264 C1263 1.349 . S
C1264 C1276 1.349 . S
C1265 C1263 1.327 . S
C1265 C1281 1.429 1_556 S
C1265 H1287 0.950 1_556 S
C1266 H1262 0.949 . S
C1266 C1274 1.574 . S
C1266 C1282 1.368 . S
H1267 C1275 0.950 . S
H1268 C1273 0.950 . S
H1269 C1274 0.949 . S
H1270 C1276 0.950 . S
H1271 C1277 0.950 1_554 S
H1272 C1278 0.949 . S
C1273 H1268 0.950 . S
C1273 C1275 1.327 . S
C1273 C1279 1.429 . S
C1274 C1266 1.574 . S
C1274 H1269 0.949 . S
C1274 C1280 1.368 . S
C1275 C1259 1.349 . S
C1275 H1267 0.950 . S
C1275 C1273 1.327 . S
C1276 C1264 1.349 . S
C1276 H1270 0.950 . S
C1276 C1277 1.327 . S
C1277 H1271 0.950 1_556 S
C1277 C1276 1.327 . S
C1277 C1281 1.429 1_556 S
C1278 C1261 1.574 . S
C1278 H1272 0.949 . S
C1278 C1282 1.368 . S
C1279 C1260 1.429 . S
C1279 C1273 1.429 . S
C1279 C1280 1.523 . S
C1280 C1261 1.368 . S
C1280 C1274 1.368 . S
C1280 C1279 1.523 . S
C1281 C1265 1.429 1_554 S
C1281 C1277 1.429 1_554 S
C1281 C1282 1.523 . S
C1282 C1266 1.368 . S
C1282 C1278 1.368 . S
C1282 C1281 1.523 . S
H1283 C1258 0.950 . S
H1284 C1260 0.950 . S
H1285 C1261 0.949 . S
H1286 C1263 0.950 . S
H1287 C1265 0.950 1_554 S
C1288 C1289 1.349 . S
C1288 C1290 1.327 . S
C1288 H1313 0.950 . S
C1289 C1288 1.349 . S
C1289 C1305 1.349 . S
C1290 C1288 1.327 . S
C1290 C1309 1.429 . S
C1290 H1314 0.950 . S
C1291 C1308 1.574 . S
C1291 C1310 1.368 . S
C1291 H1315 0.949 . S
H1292 C1296 0.949 . S
C1293 C1294 1.349 . S
C1293 C1295 1.327 . S
C1293 H1316 0.950 . S
C1294 C1293 1.349 . S
C1294 C1306 1.349 . S
C1295 C1293 1.327 . S
C1295 C1311 1.429 . S
C1295 H1317 0.950 . S
C1296 H1292 0.949 . S
C1296 C1304 1.574 . S
C1296 C1312 1.368 . S
H1297 C1305 0.950 . S
H1298 C1303 0.950 . S
H1299 C1304 0.949 . S
H1300 C1306 0.950 . S
H1301 C1307 0.950 . S
H1302 C1308 0.949 . S
C1303 H1298 0.950 . S
C1303 C1305 1.327 . S
C1303 C1309 1.429 . S
C1304 C1296 1.574 . S
C1304 H1299 0.949 . S
C1304 C1310 1.368 . S
C1305 C1289 1.349 . S
C1305 H1297 0.950 . S
C1305 C1303 1.327 . S
C1306 C1294 1.349 . S
C1306 H1300 0.950 . S
C1306 C1307 1.327 . S
C1307 H1301 0.950 . S
C1307 C1306 1.327 . S
C1307 C1311 1.429 . S
C1308 C1291 1.574 . S
C1308 H1302 0.949 . S
C1308 C1312 1.368 . S
C1309 C1290 1.429 . S
C1309 C1303 1.429 . S
C1309 C1310 1.523 . S
C1310 C1291 1.368 . S
C1310 C1304 1.368 . S
C1310 C1309 1.523 . S
C1311 C1295 1.429 . S
C1311 C1307 1.429 . S
C1311 C1312 1.523 . S
C1312 C1296 1.368 . S
C1312 C1308 1.368 . S
C1312 C1311 1.523 . S
H1313 C1288 0.950 . S
H1314 C1290 0.950 . S
H1315 C1291 0.949 . S
H1316 C1293 0.950 . S
H1317 C1295 0.950 . S
C1318 C1319 1.349 . S
C1318 C1320 1.327 . S
C1318 H1343 0.950 . S
C1319 C1318 1.349 . S
C1319 C1335 1.349 . S
C1320 C1318 1.327 . S
C1320 C1339 1.429 . S
C1320 H1344 0.950 . S
C1321 C1338 1.574 . S
C1321 C1340 1.368 . S
C1321 H1345 0.949 . S
H1322 C1326 0.949 . S
C1323 C1324 1.349 . S
C1323 C1325 1.327 . S
C1323 H1346 0.950 . S
C1324 C1323 1.349 . S
C1324 C1336 1.349 . S
C1325 C1323 1.327 . S
C1325 C1341 1.429 . S
C1325 H1347 0.950 . S
C1326 H1322 0.949 . S
C1326 C1334 1.574 . S
C1326 C1342 1.368 . S
H1327 C1335 0.950 . S
H1328 C1333 0.950 . S
H1329 C1334 0.949 . S
H1330 C1336 0.950 . S
H1331 C1337 0.950 . S
H1332 C1338 0.949 . S
C1333 H1328 0.950 . S
C1333 C1335 1.327 . S
C1333 C1339 1.429 . S
C1334 C1326 1.574 . S
C1334 H1329 0.949 . S
C1334 C1340 1.368 . S
C1335 C1319 1.349 . S
C1335 H1327 0.950 . S
C1335 C1333 1.327 . S
C1336 C1324 1.349 . S
C1336 H1330 0.950 . S
C1336 C1337 1.327 . S
C1337 H1331 0.950 . S
C1337 C1336 1.327 . S
C1337 C1341 1.429 . S
C1338 C1321 1.574 . S
C1338 H1332 0.949 . S
C1338 C1342 1.368 . S
C1339 C1320 1.429 . S
C1339 C1333 1.429 . S
C1339 C1340 1.523 . S
C1340 C1321 1.368 . S
C1340 C1334 1.368 . S
C1340 C1339 1.523 . S
C1341 C1325 1.429 . S
C1341 C1337 1.429 . S
C1341 C1342 1.523 . S
C1342 C1326 1.368 . S
C1342 C1338 1.368 . S
C1342 C1341 1.523 . S
H1343 C1318 0.950 . S
H1344 C1320 0.950 . S
H1345 C1321 0.949 . S
H1346 C1323 0.950 . S
H1347 C1325 0.950 . S
C1348 C1349 1.349 . S
C1348 C1350 1.327 . S
C1348 H1373 0.950 . S
C1349 C1348 1.349 . S
C1349 C1365 1.349 . S
C1350 C1348 1.327 . S
C1350 C1369 1.429 . S
C1350 H1374 0.950 . S
C1351 C1368 1.574 . S
C1351 C1370 1.368 . S
C1351 H1375 0.949 . S
H1352 C1356 0.949 . S
C1353 C1354 1.349 . S
C1353 C1355 1.327 . S
C1353 H1376 0.950 . S
C1354 C1353 1.349 . S
C1354 C1366 1.349 . S
C1355 C1353 1.327 . S
C1355 C1371 1.429 . S
C1355 H1377 0.950 . S
C1356 H1352 0.949 . S
C1356 C1364 1.574 . S
C1356 C1372 1.368 . S
H1357 C1365 0.950 . S
H1358 C1363 0.950 . S
H1359 C1364 0.949 . S
H1360 C1366 0.950 . S
H1361 C1367 0.950 . S
H1362 C1368 0.949 . S
C1363 H1358 0.950 . S
C1363 C1365 1.327 . S
C1363 C1369 1.429 . S
C1364 C1356 1.574 . S
C1364 H1359 0.949 . S
C1364 C1370 1.368 . S
C1365 C1349 1.349 . S
C1365 H1357 0.950 . S
C1365 C1363 1.327 . S
C1366 C1354 1.349 . S
C1366 H1360 0.950 . S
C1366 C1367 1.327 . S
C1367 H1361 0.950 . S
C1367 C1366 1.327 . S
C1367 C1371 1.429 . S
C1368 C1351 1.574 . S
C1368 H1362 0.949 . S
C1368 C1372 1.368 . S
C1369 C1350 1.429 . S
C1369 C1363 1.429 . S
C1369 C1370 1.523 . S
C1370 C1351 1.368 . S
C1370 C1364 1.368 . S
C1370 C1369 1.523 . S
C1371 C1355 1.429 . S
C1371 C1367 1.429 . S
C1371 C1372 1.523 . S
C1372 C1356 1.368 . S
C1372 C1368 1.368 . S
C1372 C1371 1.523 . S
H1373 C1348 0.950 . S
H1374 C1350 0.950 . S
H1375 C1351 0.949 . S
H1376 C1353 0.950 . S
H1377 C1355 0.950 . S
C1378 C1379 1.349 . S
C1378 C1380 1.327 . S
C1378 H1403 0.950 . S
C1379 C1378 1.349 . S
C1379 C1395 1.349 . S
C1380 C1378 1.327 . S
C1380 C1399 1.429 . S
C1380 H1404 0.950 . S
C1381 C1398 1.574 . S
C1381 C1400 1.368 . S
C1381 H1405 0.949 . S
H1382 C1386 0.949 . S
C1383 C1384 1.349 . S
C1383 C1385 1.327 1_556 S
C1383 H1406 0.950 . S
C1384 C1383 1.349 . S
C1384 C1396 1.349 . S
C1385 C1383 1.327 1_554 S
C1385 C1401 1.429 . S
C1385 H1407 0.950 . S
C1386 H1382 0.949 . S
C1386 C1394 1.574 . S
C1386 C1402 1.368 . S
H1387 C1395 0.950 . S
H1388 C1393 0.950 . S
H1389 C1394 0.949 . S
H1390 C1396 0.950 . S
H1391 C1397 0.950 . S
H1392 C1398 0.949 . S
C1393 H1388 0.950 . S
C1393 C1395 1.327 . S
C1393 C1399 1.429 . S
C1394 C1386 1.574 . S
C1394 H1389 0.949 . S
C1394 C1400 1.368 . S
C1395 C1379 1.349 . S
C1395 H1387 0.950 . S
C1395 C1393 1.327 . S
C1396 C1384 1.349 . S
C1396 H1390 0.950 . S
C1396 C1397 1.327 . S
C1397 H1391 0.950 . S
C1397 C1396 1.327 . S
C1397 C1401 1.429 1_556 S
C1398 C1381 1.574 . S
C1398 H1392 0.949 . S
C1398 C1402 1.368 . S
C1399 C1380 1.429 . S
C1399 C1393 1.429 . S
C1399 C1400 1.523 . S
C1400 C1381 1.368 . S
C1400 C1394 1.368 . S
C1400 C1399 1.523 . S
C1401 C1385 1.429 . S
C1401 C1397 1.429 1_554 S
C1401 C1402 1.523 . S
C1402 C1386 1.368 . S
C1402 C1398 1.368 . S
C1402 C1401 1.523 . S
H1403 C1378 0.950 . S
H1404 C1380 0.950 . S
H1405 C1381 0.949 . S
H1406 C1383 0.950 . S
H1407 C1385 0.950 . S
C1408 C1409 1.349 . S
C1408 C1410 1.327 . S
C1408 H1433 0.950 . S
C1409 C1408 1.349 . S
C1409 C1425 1.349 . S
C1410 C1408 1.327 . S
C1410 C1429 1.429 . S
C1410 H1434 0.950 . S
C1411 C1428 1.574 . S
C1411 C1430 1.368 . S
C1411 H1435 0.949 . S
H1412 C1416 0.949 . S
C1413 C1414 1.349 . S
C1413 C1415 1.327 . S
C1413 H1436 0.950 . S
C1414 C1413 1.349 . S
C1414 C1426 1.349 . S
C1415 C1413 1.327 . S
C1415 C1431 1.429 . S
C1415 H1437 0.950 . S
C1416 H1412 0.949 . S
C1416 C1424 1.574 . S
C1416 C1432 1.368 . S
H1417 C1425 0.950 . S
H1418 C1423 0.950 . S
H1419 C1424 0.949 . S
H1420 C1426 0.950 . S
H1421 C1427 0.950 . S
H1422 C1428 0.949 . S
C1423 H1418 0.950 . S
C1423 C1425 1.327 . S
C1423 C1429 1.429 . S
C1424 C1416 1.574 . S
C1424 H1419 0.949 . S
C1424 C1430 1.368 . S
C1425 C1409 1.349 . S
C1425 H1417 0.950 . S
C1425 C1423 1.327 . S
C1426 C1414 1.349 . S
C1426 H1420 0.950 . S
C1426 C1427 1.327 . S
C1427 H1421 0.950 . S
C1427 C1426 1.327 . S
C1427 C1431 1.429 . S
C1428 C1411 1.574 . S
C1428 H1422 0.949 . S
C1428 C1432 1.368 . S
C1429 C1410 1.429 . S
C1429 C1423 1.429 . S
C1429 C1430 1.523 . S
C1430 C1411 1.368 . S
C1430 C1424 1.368 . S
C1430 C1429 1.523 . S
C1431 C1415 1.429 . S
C1431 C1427 1.429 . S
C1431 C1432 1.523 . S
C1432 C1416 1.368 . S
C1432 C1428 1.368 . S
C1432 C1431 1.523 . S
H1433 C1408 0.950 . S
H1434 C1410 0.950 . S
H1435 C1411 0.949 . S
H1436 C1413 0.950 . S
H1437 C1415 0.950 . S
C1438 C1439 1.349 . S
C1438 C1440 1.327 . S
C1438 H1463 0.950 . S
C1439 C1438 1.349 . S
C1439 C1455 1.349 . S
C1440 C1438 1.327 . S
C1440 C1459 1.429 . S
C1440 H1464 0.950 . S
C1441 C1458 1.574 1_455 S
C1441 C1460 1.368 . S
C1441 H1465 0.949 . S
H1442 C1446 0.949 . S
C1443 C1444 1.349 . S
C1443 C1445 1.327 . S
C1443 H1466 0.950 . S
C1444 C1443 1.349 . S
C1444 C1456 1.349 . S
C1445 C1443 1.327 . S
C1445 C1461 1.429 . S
C1445 H1467 0.950 . S
C1446 H1442 0.949 . S
C1446 C1454 1.574 1_655 S
C1446 C1462 1.368 . S
H1447 C1455 0.950 . S
H1448 C1453 0.950 . S
H1449 C1454 0.949 . S
H1450 C1456 0.950 . S
H1451 C1457 0.950 . S
H1452 C1458 0.949 . S
C1453 H1448 0.950 . S
C1453 C1455 1.327 . S
C1453 C1459 1.429 . S
C1454 C1446 1.574 1_455 S
C1454 H1449 0.949 . S
C1454 C1460 1.368 . S
C1455 C1439 1.349 . S
C1455 H1447 0.950 . S
C1455 C1453 1.327 . S
C1456 C1444 1.349 . S
C1456 H1450 0.950 . S
C1456 C1457 1.327 . S
C1457 H1451 0.950 . S
C1457 C1456 1.327 . S
C1457 C1461 1.429 . S
C1458 C1441 1.574 1_655 S
C1458 H1452 0.949 . S
C1458 C1462 1.368 . S
C1459 C1440 1.429 . S
C1459 C1453 1.429 . S
C1459 C1460 1.523 . S
C1460 C1441 1.368 . S
C1460 C1454 1.368 . S
C1460 C1459 1.523 . S
C1461 C1445 1.429 . S
C1461 C1457 1.429 . S
C1461 C1462 1.523 . S
C1462 C1446 1.368 . S
C1462 C1458 1.368 . S
C1462 C1461 1.523 . S
H1463 C1438 0.950 . S
H1464 C1440 0.950 . S
H1465 C1441 0.949 . S
H1466 C1443 0.950 . S
H1467 C1445 0.950 . S
C1468 C1469 1.349 . S
C1468 C1470 1.327 . S
C1468 H1493 0.950 . S
C1469 C1468 1.349 . S
C1469 C1485 1.349 . S
C1470 C1468 1.327 . S
C1470 C1489 1.429 . S
C1470 H1494 0.950 . S
C1471 C1488 1.574 . S
C1471 C1490 1.368 . S
C1471 H1495 0.949 . S
H1472 C1476 0.949 . S
C1473 C1474 1.349 . S
C1473 C1475 1.327 . S
C1473 H1496 0.950 . S
C1474 C1473 1.349 . S
C1474 C1486 1.349 . S
C1475 C1473 1.327 . S
C1475 C1491 1.429 . S
C1475 H1497 0.950 . S
C1476 H1472 0.949 . S
C1476 C1484 1.574 . S
C1476 C1492 1.368 . S
H1477 C1485 0.950 . S
H1478 C1483 0.950 . S
H1479 C1484 0.949 . S
H1480 C1486 0.950 . S
H1481 C1487 0.950 . S
H1482 C1488 0.949 . S
C1483 H1478 0.950 . S
C1483 C1485 1.327 . S
C1483 C1489 1.429 . S
C1484 C1476 1.574 . S
C1484 H1479 0.949 . S
C1484 C1490 1.368 . S
C1485 C1469 1.349 . S
C1485 H1477 0.950 . S
C1485 C1483 1.327 . S
C1486 C1474 1.349 . S
C1486 H1480 0.950 . S
C1486 C1487 1.327 . S
C1487 H1481 0.950 . S
C1487 C1486 1.327 . S
C1487 C1491 1.429 . S
C1488 C1471 1.574 . S
C1488 H1482 0.949 . S
C1488 C1492 1.368 . S
C1489 C1470 1.429 . S
C1489 C1483 1.429 . S
C1489 C1490 1.523 . S
C1490 C1471 1.368 . S
C1490 C1484 1.368 . S
C1490 C1489 1.523 . S
C1491 C1475 1.429 . S
C1491 C1487 1.429 . S
C1491 C1492 1.523 . S
C1492 C1476 1.368 . S
C1492 C1488 1.368 . S
C1492 C1491 1.523 . S
H1493 C1468 0.950 . S
H1494 C1470 0.950 . S
H1495 C1471 0.949 . S
H1496 C1473 0.950 . S
H1497 C1475 0.950 . S
C1498 C1499 1.349 . S
C1498 C1500 1.327 . S
C1498 H1523 0.950 . S
C1499 C1498 1.349 . S
C1499 C1515 1.349 . S
C1500 C1498 1.327 . S
C1500 C1519 1.429 . S
C1500 H1524 0.950 . S
C1501 C1518 1.574 . S
C1501 C1520 1.368 . S
C1501 H1525 0.949 . S
H1502 C1506 0.949 . S
C1503 C1504 1.349 . S
C1503 C1505 1.327 . S
C1503 H1526 0.950 . S
C1504 C1503 1.349 . S
C1504 C1516 1.349 . S
C1505 C1503 1.327 . S
C1505 C1521 1.429 . S
C1505 H1527 0.950 . S
C1506 H1502 0.949 . S
C1506 C1514 1.574 . S
C1506 C1522 1.368 . S
H1507 C1515 0.950 . S
H1508 C1513 0.950 . S
H1509 C1514 0.949 . S
H1510 C1516 0.950 . S
H1511 C1517 0.950 . S
H1512 C1518 0.949 . S
C1513 H1508 0.950 . S
C1513 C1515 1.327 . S
C1513 C1519 1.429 . S
C1514 C1506 1.574 . S
C1514 H1509 0.949 . S
C1514 C1520 1.368 . S
C1515 C1499 1.349 . S
C1515 H1507 0.950 . S
C1515 C1513 1.327 . S
C1516 C1504 1.349 . S
C1516 H1510 0.950 . S
C1516 C1517 1.327 . S
C1517 H1511 0.950 . S
C1517 C1516 1.327 . S
C1517 C1521 1.429 . S
C1518 C1501 1.574 . S
C1518 H1512 0.949 . S
C1518 C1522 1.368 . S
C1519 C1500 1.429 . S
C1519 C1513 1.429 . S
C1519 C1520 1.523 . S
C1520 C1501 1.368 . S
C1520 C1514 1.368 . S
C1520 C1519 1.523 . S
C1521 C1505 1.429 . S
C1521 C1517 1.429 . S
C1521 C1522 1.523 . S
C1522 C1506 1.368 . S
C1522 C1518 1.368 . S
C1522 C1521 1.523 . S
H1523 C1498 0.950 . S
H1524 C1500 0.950 . S
H1525 C1501 0.949 . S
H1526 C1503 0.950 . S
H1527 C1505 0.950 . S
C1528 C1529 1.349 . S
C1528 C1530 1.327 . S
C1528 H1553 0.950 . S
C1529 C1528 1.349 . S
C1529 C1545 1.349 . S
C1530 C1528 1.327 . S
C1530 C1549 1.429 . S
C1530 H1554 0.950 . S
C1531 C1548 1.574 . S
C1531 C1550 1.368 . S
C1531 H1555 0.949 . S
H1532 C1536 0.949 . S
C1533 C1534 1.349 . S
C1533 C1535 1.327 . S
C1533 H1556 0.950 . S
C1534 C1533 1.349 . S
C1534 C1546 1.349 . S
C1535 C1533 1.327 . S
C1535 C1551 1.429 . S
C1535 H1557 0.950 . S
C1536 H1532 0.949 . S
C1536 C1544 1.574 . S
C1536 C1552 1.368 . S
H1537 C1545 0.950 . S
H1538 C1543 0.950 . S
H1539 C1544 0.949 . S
H1540 C1546 0.950 . S
H1541 C1547 0.950 . S
H1542 C1548 0.949 . S
C1543 H1538 0.950 . S
C1543 C1545 1.327 . S
C1543 C1549 1.429 . S
C1544 C1536 1.574 . S
C1544 H1539 0.949 . S
C1544 C1550 1.368 . S
C1545 C1529 1.349 . S
C1545 H1537 0.950 . S
C1545 C1543 1.327 . S
C1546 C1534 1.349 . S
C1546 H1540 0.950 . S
C1546 C1547 1.327 . S
C1547 H1541 0.950 . S
C1547 C1546 1.327 . S
C1547 C1551 1.429 . S
C1548 C1531 1.574 . S
C1548 H1542 0.949 . S
C1548 C1552 1.368 . S
C1549 C1530 1.429 . S
C1549 C1543 1.429 . S
C1549 C1550 1.523 . S
C1550 C1531 1.368 . S
C1550 C1544 1.368 . S
C1550 C1549 1.523 . S
C1551 C1535 1.429 . S
C1551 C1547 1.429 . S
C1551 C1552 1.523 . S
C1552 C1536 1.368 . S
C1552 C1548 1.368 . S
C1552 C1551 1.523 . S
H1553 C1528 0.950 . S
H1554 C1530 0.950 . S
H1555 C1531 0.949 . S
H1556 C1533 0.950 . S
H1557 C1535 0.950 . S
C1558 C1559 1.349 . S
C1558 C1560 1.327 . S
C1558 H1583 0.950 . S
C1559 C1558 1.349 . S
C1559 C1575 1.349 . S
C1560 C1558 1.327 . S
C1560 C1579 1.429 . S
C1560 H1584 0.950 . S
C1561 C1578 1.574 . S
C1561 C1580 1.368 . S
C1561 H1585 0.949 . S
H1562 C1566 0.949 . S
C1563 C1564 1.349 . S
C1563 C1565 1.327 . S
C1563 H1586 0.950 . S
C1564 C1563 1.349 . S
C1564 C1576 1.349 . S
C1565 C1563 1.327 . S
C1565 C1581 1.429 . S
C1565 H1587 0.950 . S
C1566 H1562 0.949 . S
C1566 C1574 1.574 . S
C1566 C1582 1.368 . S
H1567 C1575 0.950 . S
H1568 C1573 0.950 . S
H1569 C1574 0.949 . S
H1570 C1576 0.950 . S
H1571 C1577 0.950 . S
H1572 C1578 0.949 . S
C1573 H1568 0.950 . S
C1573 C1575 1.327 . S
C1573 C1579 1.429 . S
C1574 C1566 1.574 . S
C1574 H1569 0.949 . S
C1574 C1580 1.368 . S
C1575 C1559 1.349 . S
C1575 H1567 0.950 . S
C1575 C1573 1.327 . S
C1576 C1564 1.349 . S
C1576 H1570 0.950 . S
C1576 C1577 1.327 . S
C1577 H1571 0.950 . S
C1577 C1576 1.327 . S
C1577 C1581 1.429 . S
C1578 C1561 1.574 . S
C1578 H1572 0.949 . S
C1578 C1582 1.368 . S
C1579 C1560 1.429 . S
C1579 C1573 1.429 . S
C1579 C1580 1.523 . S
C1580 C1561 1.368 . S
C1580 C1574 1.368 . S
C1580 C1579 1.523 . S
C1581 C1565 1.429 . S
C1581 C1577 1.429 . S
C1581 C1582 1.523 . S
C1582 C1566 1.368 . S
C1582 C1578 1.368 . S
C1582 C1581 1.523 . S
H1583 C1558 0.950 . S
H1584 C1560 0.950 . S
H1585 C1561 0.949 . S
H1586 C1563 0.950 . S
H1587 C1565 0.950 . S
C1588 C1589 1.349 . S
C1588 C1590 1.327 . S
C1588 H1613 0.950 . S
C1589 C1588 1.349 . S
C1589 C1605 1.349 . S
C1590 C1588 1.327 . S
C1590 C1609 1.429 . S
C1590 H1614 0.950 . S
C1591 C1608 1.574 . S
C1591 C1610 1.368 . S
C1591 H1615 0.949 . S
H1592 C1596 0.949 . S
C1593 C1594 1.349 . S
C1593 C1595 1.327 . S
C1593 H1616 0.950 . S
C1594 C1593 1.349 . S
C1594 C1606 1.349 . S
C1595 C1593 1.327 . S
C1595 C1611 1.429 . S
C1595 H1617 0.950 . S
C1596 H1592 0.949 . S
C1596 C1604 1.574 . S
C1596 C1612 1.368 . S
H1597 C1605 0.950 . S
H1598 C1603 0.950 . S
H1599 C1604 0.949 . S
H1600 C1606 0.950 . S
H1601 C1607 0.950 . S
H1602 C1608 0.949 . S
C1603 H1598 0.950 . S
C1603 C1605 1.327 . S
C1603 C1609 1.429 . S
C1604 C1596 1.574 . S
C1604 H1599 0.949 . S
C1604 C1610 1.368 . S
C1605 C1589 1.349 . S
C1605 H1597 0.950 . S
C1605 C1603 1.327 . S
C1606 C1594 1.349 . S
C1606 H1600 0.950 . S
C1606 C1607 1.327 . S
C1607 H1601 0.950 . S
C1607 C1606 1.327 . S
C1607 C1611 1.429 . S
C1608 C1591 1.574 . S
C1608 H1602 0.949 . S
C1608 C1612 1.368 . S
C1609 C1590 1.429 . S
C1609 C1603 1.429 . S
C1609 C1610 1.523 . S
C1610 C1591 1.368 . S
C1610 C1604 1.368 . S
C1610 C1609 1.523 . S
C1611 C1595 1.429 . S
C1611 C1607 1.429 . S
C1611 C1612 1.523 . S
C1612 C1596 1.368 . S
C1612 C1608 1.368 . S
C1612 C1611 1.523 . S
H1613 C1588 0.950 . S
H1614 C1590 0.950 . S
H1615 C1591 0.949 . S
H1616 C1593 0.950 . S
H1617 C1595 0.950 . S
C1618 C1619 1.349 . S
C1618 C1620 1.327 . S
C1618 H1643 0.950 . S
C1619 C1618 1.349 . S
C1619 C1635 1.349 . S
C1620 C1618 1.327 . S
C1620 C1639 1.429 . S
C1620 H1644 0.950 . S
C1621 C1638 1.574 1_655 S
C1621 C1640 1.368 . S
C1621 H1645 0.949 . S
H1622 C1626 0.949 . S
C1623 C1624 1.349 . S
C1623 C1625 1.327 . S
C1623 H1646 0.950 . S
C1624 C1623 1.349 . S
C1624 C1636 1.349 . S
C1625 C1623 1.327 . S
C1625 C1641 1.429 . S
C1625 H1647 0.950 . S
C1626 H1622 0.949 . S
C1626 C1634 1.574 1_455 S
C1626 C1642 1.368 . S
H1627 C1635 0.950 . S
H1628 C1633 0.950 . S
H1629 C1634 0.949 . S
H1630 C1636 0.950 . S
H1631 C1637 0.950 . S
H1632 C1638 0.949 . S
C1633 H1628 0.950 . S
C1633 C1635 1.327 . S
C1633 C1639 1.429 . S
C1634 C1626 1.574 1_655 S
C1634 H1629 0.949 . S
C1634 C1640 1.368 . S
C1635 C1619 1.349 . S
C1635 H1627 0.950 . S
C1635 C1633 1.327 . S
C1636 C1624 1.349 . S
C1636 H1630 0.950 . S
C1636 C1637 1.327 . S
C1637 H1631 0.950 . S
C1637 C1636 1.327 . S
C1637 C1641 1.429 . S
C1638 C1621 1.574 1_455 S
C1638 H1632 0.949 . S
C1638 C1642 1.368 . S
C1639 C1620 1.429 . S
C1639 C1633 1.429 . S
C1639 C1640 1.523 . S
C1640 C1621 1.368 . S
C1640 C1634 1.368 . S
C1640 C1639 1.523 . S
C1641 C1625 1.429 . S
C1641 C1637 1.429 . S
C1641 C1642 1.523 . S
C1642 C1626 1.368 . S
C1642 C1638 1.368 . S
C1642 C1641 1.523 . S
H1643 C1618 0.950 . S
H1644 C1620 0.950 . S
H1645 C1621 0.949 . S
H1646 C1623 0.950 . S
H1647 C1625 0.950 . S
C1648 C1649 1.349 . S
C1648 C1650 1.327 . S
C1648 H1673 0.950 . S
C1649 C1648 1.349 . S
C1649 C1665 1.349 . S
C1650 C1648 1.327 . S
C1650 C1669 1.429 . S
C1650 H1674 0.950 . S
C1651 C1668 1.574 . S
C1651 C1670 1.368 . S
C1651 H1675 0.949 . S
H1652 C1656 0.949 . S
C1653 C1654 1.349 . S
C1653 C1655 1.327 . S
C1653 H1676 0.950 . S
C1654 C1653 1.349 . S
C1654 C1666 1.349 . S
C1655 C1653 1.327 . S
C1655 C1671 1.429 . S
C1655 H1677 0.950 . S
C1656 H1652 0.949 . S
C1656 C1664 1.574 . S
C1656 C1672 1.368 . S
H1657 C1665 0.950 . S
H1658 C1663 0.950 . S
H1659 C1664 0.949 . S
H1660 C1666 0.950 . S
H1661 C1667 0.950 . S
H1662 C1668 0.949 . S
C1663 H1658 0.950 . S
C1663 C1665 1.327 . S
C1663 C1669 1.429 . S
C1664 C1656 1.574 . S
C1664 H1659 0.949 . S
C1664 C1670 1.368 . S
C1665 C1649 1.349 . S
C1665 H1657 0.950 . S
C1665 C1663 1.327 . S
C1666 C1654 1.349 . S
C1666 H1660 0.950 . S
C1666 C1667 1.327 . S
C1667 H1661 0.950 . S
C1667 C1666 1.327 . S
C1667 C1671 1.429 . S
C1668 C1651 1.574 . S
C1668 H1662 0.949 . S
C1668 C1672 1.368 . S
C1669 C1650 1.429 . S
C1669 C1663 1.429 . S
C1669 C1670 1.523 . S
C1670 C1651 1.368 . S
C1670 C1664 1.368 . S
C1670 C1669 1.523 . S
C1671 C1655 1.429 . S
C1671 C1667 1.429 . S
C1671 C1672 1.523 . S
C1672 C1656 1.368 . S
C1672 C1668 1.368 . S
C1672 C1671 1.523 . S
H1673 C1648 0.950 . S
H1674 C1650 0.950 . S
H1675 C1651 0.949 . S
H1676 C1653 0.950 . S
H1677 C1655 0.950 . S
C1678 C1679 1.349 . S
C1678 C1680 1.327 . S
C1678 H1703 0.950 . S
C1679 C1678 1.349 . S
C1679 C1695 1.349 . S
C1680 C1678 1.327 . S
C1680 C1699 1.429 . S
C1680 H1704 0.950 . S
C1681 C1698 1.574 . S
C1681 C1700 1.368 . S
C1681 H1705 0.949 . S
H1682 C1686 0.949 . S
C1683 C1684 1.349 . S
C1683 C1685 1.327 . S
C1683 H1706 0.950 . S
C1684 C1683 1.349 . S
C1684 C1696 1.349 . S
C1685 C1683 1.327 . S
C1685 C1701 1.429 . S
C1685 H1707 0.950 . S
C1686 H1682 0.949 . S
C1686 C1694 1.574 . S
C1686 C1702 1.368 . S
H1687 C1695 0.950 . S
H1688 C1693 0.950 . S
H1689 C1694 0.949 . S
H1690 C1696 0.950 . S
H1691 C1697 0.950 . S
H1692 C1698 0.949 . S
C1693 H1688 0.950 . S
C1693 C1695 1.327 . S
C1693 C1699 1.429 . S
C1694 C1686 1.574 . S
C1694 H1689 0.949 . S
C1694 C1700 1.368 . S
C1695 C1679 1.349 . S
C1695 H1687 0.950 . S
C1695 C1693 1.327 . S
C1696 C1684 1.349 . S
C1696 H1690 0.950 . S
C1696 C1697 1.327 . S
C1697 H1691 0.950 . S
C1697 C1696 1.327 . S
C1697 C1701 1.429 . S
C1698 C1681 1.574 . S
C1698 H1692 0.949 . S
C1698 C1702 1.368 . S
C1699 C1680 1.429 . S
C1699 C1693 1.429 . S
C1699 C1700 1.523 . S
C1700 C1681 1.368 . S
C1700 C1694 1.368 . S
C1700 C1699 1.523 . S
C1701 C1685 1.429 . S
C1701 C1697 1.429 . S
C1701 C1702 1.523 . S
C1702 C1686 1.368 . S
C1702 C1698 1.368 . S
C1702 C1701 1.523 . S
H1703 C1678 0.950 . S
H1704 C1680 0.950 . S
H1705 C1681 0.949 . S
H1706 C1683 0.950 . S
H1707 C1685 0.950 . S
C1708 C1709 1.349 . S
C1708 C1710 1.327 . S
C1708 H1733 0.950 . S
C1709 C1708 1.349 . S
C1709 C1725 1.349 . S
C1710 C1708 1.327 . S
C1710 C1729 1.429 . S
C1710 H1734 0.950 . S
C1711 C1728 1.574 . S
C1711 C1730 1.368 . S
C1711 H1735 0.949 . S
H1712 C1716 0.949 . S
C1713 C1714 1.349 . S
C1713 C1715 1.327 . S
C1713 H1736 0.950 . S
C1714 C1713 1.349 . S
C1714 C1726 1.349 . S
C1715 C1713 1.327 . S
C1715 C1731 1.429 . S
C1715 H1737 0.950 . S
C1716 H1712 0.949 . S
C1716 C1724 1.574 . S
C1716 C1732 1.368 . S
H1717 C1725 0.950 . S
H1718 C1723 0.950 . S
H1719 C1724 0.949 . S
H1720 C1726 0.950 . S
H1721 C1727 0.950 . S
H1722 C1728 0.949 . S
C1723 H1718 0.950 . S
C1723 C1725 1.327 . S
C1723 C1729 1.429 . S
C1724 C1716 1.574 . S
C1724 H1719 0.949 . S
C1724 C1730 1.368 . S
C1725 C1709 1.349 . S
C1725 H1717 0.950 . S
C1725 C1723 1.327 . S
C1726 C1714 1.349 . S
C1726 H1720 0.950 . S
C1726 C1727 1.327 . S
C1727 H1721 0.950 . S
C1727 C1726 1.327 . S
C1727 C1731 1.429 . S
C1728 C1711 1.574 . S
C1728 H1722 0.949 . S
C1728 C1732 1.368 . S
C1729 C1710 1.429 . S
C1729 C1723 1.429 . S
C1729 C1730 1.523 . S
C1730 C1711 1.368 . S
C1730 C1724 1.368 . S
C1730 C1729 1.523 . S
C1731 C1715 1.429 . S
C1731 C1727 1.429 . S
C1731 C1732 1.523 . S
C1732 C1716 1.368 . S
C1732 C1728 1.368 . S
C1732 C1731 1.523 . S
H1733 C1708 0.950 . S
H1734 C1710 0.950 . S
H1735 C1711 0.949 . S
H1736 C1713 0.950 . S
H1737 C1715 0.950 . S
C1738 C1739 1.349 . S
C1738 C1740 1.327 . S
C1738 H1763 0.950 . S
C1739 C1738 1.349 . S
C1739 C1755 1.349 . S
C1740 C1738 1.327 . S
C1740 C1759 1.429 . S
C1740 H1764 0.950 . S
C1741 C1758 1.574 . S
C1741 C1760 1.368 . S
C1741 H1765 0.949 . S
H1742 C1746 0.949 . S
C1743 C1744 1.349 . S
C1743 C1745 1.327 . S
C1743 H1766 0.950 . S
C1744 C1743 1.349 . S
C1744 C1756 1.349 . S
C1745 C1743 1.327 . S
C1745 C1761 1.429 . S
C1745 H1767 0.950 . S
C1746 H1742 0.949 . S
C1746 C1754 1.574 . S
C1746 C1762 1.368 . S
H1747 C1755 0.950 . S
H1748 C1753 0.950 . S
H1749 C1754 0.949 . S
H1750 C1756 0.950 . S
H1751 C1757 0.950 . S
H1752 C1758 0.949 . S
C1753 H1748 0.950 . S
C1753 C1755 1.327 . S
C1753 C1759 1.429 . S
C1754 C1746 1.574 . S
C1754 H1749 0.949 . S
C1754 C1760 1.368 . S
C1755 C1739 1.349 . S
C1755 H1747 0.950 . S
C1755 C1753 1.327 . S
C1756 C1744 1.349 . S
C1756 H1750 0.950 . S
C1756 C1757 1.327 . S
C1757 H1751 0.950 . S
C1757 C1756 1.327 . S
C1757 C1761 1.429 . S
C1758 C1741 1.574 . S
C1758 H1752 0.949 . S
C1758 C1762 1.368 . S
C1759 C1740 1.429 . S
C1759 C1753 1.429 . S
C1759 C1760 1.523 . S
C1760 C1741 1.368 . S
C1760 C1754 1.368 . S
C1760 C1759 1.523 . S
C1761 C1745 1.429 . S
C1761 C1757 1.429 . S
C1761 C1762 1.523 . S
C1762 C1746 1.368 . S
C1762 C1758 1.368 . S
C1762 C1761 1.523 . S
H1763 C1738 0.950 . S
H1764 C1740 0.950 . S
H1765 C1741 0.949 . S
H1766 C1743 0.950 . S
H1767 C1745 0.950 . S
C1768 C1769 1.349 . S
C1768 C1770 1.327 . S
C1768 H1793 0.950 . S
C1769 C1768 1.349 . S
C1769 C1785 1.349 . S
C1770 C1768 1.327 . S
C1770 C1789 1.429 . S
C1770 H1794 0.950 . S
C1771 C1788 1.574 . S
C1771 C1790 1.368 . S
C1771 H1795 0.949 . S
H1772 C1776 0.949 . S
C1773 C1774 1.349 . S
C1773 C1775 1.327 . S
C1773 H1796 0.950 . S
C1774 C1773 1.349 . S
C1774 C1786 1.349 . S
C1775 C1773 1.327 . S
C1775 C1791 1.429 . S
C1775 H1797 0.950 . S
C1776 H1772 0.949 . S
C1776 C1784 1.574 . S
C1776 C1792 1.368 . S
H1777 C1785 0.950 . S
H1778 C1783 0.950 . S
H1779 C1784 0.949 . S
H1780 C1786 0.950 . S
H1781 C1787 0.950 . S
H1782 C1788 0.949 . S
C1783 H1778 0.950 . S
C1783 C1785 1.327 . S
C1783 C1789 1.429 . S
C1784 C1776 1.574 . S
C1784 H1779 0.949 . S
C1784 C1790 1.368 . S
C1785 C1769 1.349 . S
C1785 H1777 0.950 . S
C1785 C1783 1.327 . S
C1786 C1774 1.349 . S
C1786 H1780 0.950 . S
C1786 C1787 1.327 . S
C1787 H1781 0.950 . S
C1787 C1786 1.327 . S
C1787 C1791 1.429 . S
C1788 C1771 1.574 . S
C1788 H1782 0.949 . S
C1788 C1792 1.368 . S
C1789 C1770 1.429 . S
C1789 C1783 1.429 . S
C1789 C1790 1.523 . S
C1790 C1771 1.368 . S
C1790 C1784 1.368 . S
C1790 C1789 1.523 . S
C1791 C1775 1.429 . S
C1791 C1787 1.429 . S
C1791 C1792 1.523 . S
C1792 C1776 1.368 . S
C1792 C1788 1.368 . S
C1792 C1791 1.523 . S
H1793 C1768 0.950 . S
H1794 C1770 0.950 . S
H1795 C1771 0.949 . S
H1796 C1773 0.950 . S
H1797 C1775 0.950 . S
C1798 C1799 1.349 . S
C1798 C1800 1.327 . S
C1798 H1823 0.950 . S
C1799 C1798 1.349 . S
C1799 C1815 1.349 . S
C1800 C1798 1.327 . S
C1800 C1819 1.429 . S
C1800 H1824 0.950 . S
C1801 C1818 1.574 1_655 S
C1801 C1820 1.368 . S
C1801 H1825 0.949 . S
H1802 C1806 0.949 . S
C1803 C1804 1.349 . S
C1803 C1805 1.327 . S
C1803 H1826 0.950 . S
C1804 C1803 1.349 . S
C1804 C1816 1.349 . S
C1805 C1803 1.327 . S
C1805 C1821 1.429 . S
C1805 H1827 0.950 . S
C1806 H1802 0.949 . S
C1806 C1814 1.574 1_455 S
C1806 C1822 1.368 . S
H1807 C1815 0.950 . S
H1808 C1813 0.950 . S
H1809 C1814 0.949 . S
H1810 C1816 0.950 . S
H1811 C1817 0.950 . S
H1812 C1818 0.949 . S
C1813 H1808 0.950 . S
C1813 C1815 1.327 . S
C1813 C1819 1.429 . S
C1814 C1806 1.574 1_655 S
C1814 H1809 0.949 . S
C1814 C1820 1.368 . S
C1815 C1799 1.349 . S
C1815 H1807 0.950 . S
C1815 C1813 1.327 . S
C1816 C1804 1.349 . S
C1816 H1810 0.950 . S
C1816 C1817 1.327 . S
C1817 H1811 0.950 . S
C1817 C1816 1.327 . S
C1817 C1821 1.429 . S
C1818 C1801 1.574 1_455 S
C1818 H1812 0.949 . S
C1818 C1822 1.368 . S
C1819 C1800 1.429 . S
C1819 C1813 1.429 . S
C1819 C1820 1.523 . S
C1820 C1801 1.368 . S
C1820 C1814 1.368 . S
C1820 C1819 1.523 . S
C1821 C1805 1.429 . S
C1821 C1817 1.429 . S
C1821 C1822 1.523 . S
C1822 C1806 1.368 . S
C1822 C1818 1.368 . S
C1822 C1821 1.523 . S
H1823 C1798 0.950 . S
H1824 C1800 0.950 . S
H1825 C1801 0.949 . S
H1826 C1803 0.950 . S
H1827 C1805 0.950 . S
C1828 C1829 1.349 . S
C1828 C1830 1.327 . S
C1828 H1853 0.950 . S
C1829 C1828 1.349 . S
C1829 C1845 1.349 . S
C1830 C1828 1.327 . S
C1830 C1849 1.429 . S
C1830 H1854 0.950 . S
C1831 C1848 1.574 1_655 S
C1831 C1850 1.368 . S
C1831 H1855 0.949 . S
H1832 C1836 0.949 . S
C1833 C1834 1.349 . S
C1833 C1835 1.327 . S
C1833 H1856 0.950 . S
C1834 C1833 1.349 . S
C1834 C1846 1.349 . S
C1835 C1833 1.327 . S
C1835 C1851 1.429 . S
C1835 H1857 0.950 . S
C1836 H1832 0.949 . S
C1836 C1844 1.574 1_455 S
C1836 C1852 1.368 . S
H1837 C1845 0.950 . S
H1838 C1843 0.950 . S
H1839 C1844 0.949 . S
H1840 C1846 0.950 . S
H1841 C1847 0.950 . S
H1842 C1848 0.949 . S
C1843 H1838 0.950 . S
C1843 C1845 1.327 . S
C1843 C1849 1.429 . S
C1844 C1836 1.574 1_655 S
C1844 H1839 0.949 . S
C1844 C1850 1.368 . S
C1845 C1829 1.349 . S
C1845 H1837 0.950 . S
C1845 C1843 1.327 . S
C1846 C1834 1.349 . S
C1846 H1840 0.950 . S
C1846 C1847 1.327 . S
C1847 H1841 0.950 . S
C1847 C1846 1.327 . S
C1847 C1851 1.429 . S
C1848 C1831 1.574 1_455 S
C1848 H1842 0.949 . S
C1848 C1852 1.368 . S
C1849 C1830 1.429 . S
C1849 C1843 1.429 . S
C1849 C1850 1.523 . S
C1850 C1831 1.368 . S
C1850 C1844 1.368 . S
C1850 C1849 1.523 . S
C1851 C1835 1.429 . S
C1851 C1847 1.429 . S
C1851 C1852 1.523 . S
C1852 C1836 1.368 . S
C1852 C1848 1.368 . S
C1852 C1851 1.523 . S
H1853 C1828 0.950 . S
H1854 C1830 0.950 . S
H1855 C1831 0.949 . S
H1856 C1833 0.950 . S
H1857 C1835 0.950 . S
C1858 C1859 1.349 . S
C1858 C1860 1.327 . S
C1858 H1883 0.950 . S
C1859 C1858 1.349 . S
C1859 C1875 1.349 . S
C1860 C1858 1.327 . S
C1860 C1879 1.429 . S
C1860 H1884 0.950 . S
C1861 C1878 1.574 . S
C1861 C1880 1.368 . S
C1861 H1885 0.949 . S
H1862 C1866 0.949 . S
C1863 C1864 1.349 . S
C1863 C1865 1.327 . S
C1863 H1886 0.950 . S
C1864 C1863 1.349 . S
C1864 C1876 1.349 . S
C1865 C1863 1.327 . S
C1865 C1881 1.429 . S
C1865 H1887 0.950 . S
C1866 H1862 0.949 . S
C1866 C1874 1.574 . S
C1866 C1882 1.368 . S
H1867 C1875 0.950 . S
H1868 C1873 0.950 . S
H1869 C1874 0.949 . S
H1870 C1876 0.950 . S
H1871 C1877 0.950 . S
H1872 C1878 0.949 . S
C1873 H1868 0.950 . S
C1873 C1875 1.327 . S
C1873 C1879 1.429 . S
C1874 C1866 1.574 . S
C1874 H1869 0.949 . S
C1874 C1880 1.368 . S
C1875 C1859 1.349 . S
C1875 H1867 0.950 . S
C1875 C1873 1.327 . S
C1876 C1864 1.349 . S
C1876 H1870 0.950 . S
C1876 C1877 1.327 . S
C1877 H1871 0.950 . S
C1877 C1876 1.327 . S
C1877 C1881 1.429 . S
C1878 C1861 1.574 . S
C1878 H1872 0.949 . S
C1878 C1882 1.368 . S
C1879 C1860 1.429 . S
C1879 C1873 1.429 . S
C1879 C1880 1.523 . S
C1880 C1861 1.368 . S
C1880 C1874 1.368 . S
C1880 C1879 1.523 . S
C1881 C1865 1.429 . S
C1881 C1877 1.429 . S
C1881 C1882 1.523 . S
C1882 C1866 1.368 . S
C1882 C1878 1.368 . S
C1882 C1881 1.523 . S
H1883 C1858 0.950 . S
H1884 C1860 0.950 . S
H1885 C1861 0.949 . S
H1886 C1863 0.950 . S
H1887 C1865 0.950 . S
C1888 C1889 1.349 . S
C1888 C1890 1.327 . S
C1888 H1913 0.950 . S
C1889 C1888 1.349 . S
C1889 C1905 1.349 . S
C1890 C1888 1.327 . S
C1890 C1909 1.429 . S
C1890 H1914 0.950 . S
C1891 C1908 1.574 . S
C1891 C1910 1.368 . S
C1891 H1915 0.949 . S
H1892 C1896 0.949 . S
C1893 C1894 1.349 . S
C1893 C1895 1.327 . S
C1893 H1916 0.950 . S
C1894 C1893 1.349 . S
C1894 C1906 1.349 . S
C1895 C1893 1.327 . S
C1895 C1911 1.429 . S
C1895 H1917 0.950 . S
C1896 H1892 0.949 . S
C1896 C1904 1.574 . S
C1896 C1912 1.368 . S
H1897 C1905 0.950 . S
H1898 C1903 0.950 . S
H1899 C1904 0.949 . S
H1900 C1906 0.950 . S
H1901 C1907 0.950 . S
H1902 C1908 0.949 . S
C1903 H1898 0.950 . S
C1903 C1905 1.327 . S
C1903 C1909 1.429 . S
C1904 C1896 1.574 . S
C1904 H1899 0.949 . S
C1904 C1910 1.368 . S
C1905 C1889 1.349 . S
C1905 H1897 0.950 . S
C1905 C1903 1.327 . S
C1906 C1894 1.349 . S
C1906 H1900 0.950 . S
C1906 C1907 1.327 . S
C1907 H1901 0.950 . S
C1907 C1906 1.327 . S
C1907 C1911 1.429 . S
C1908 C1891 1.574 . S
C1908 H1902 0.949 . S
C1908 C1912 1.368 . S
C1909 C1890 1.429 . S
C1909 C1903 1.429 . S
C1909 C1910 1.523 . S
C1910 C1891 1.368 . S
C1910 C1904 1.368 . S
C1910 C1909 1.523 . S
C1911 C1895 1.429 . S
C1911 C1907 1.429 . S
C1911 C1912 1.523 . S
C1912 C1896 1.368 . S
C1912 C1908 1.368 . S
C1912 C1911 1.523 . S
H1913 C1888 0.950 . S
H1914 C1890 0.950 . S
H1915 C1891 0.949 . S
H1916 C1893 0.950 . S
H1917 C1895 0.950 . S
C1918 C1919 1.349 . S
C1918 C1920 1.327 . S
C1918 H1943 0.950 . S
C1919 C1918 1.349 . S
C1919 C1935 1.344 . S
C1920 C1918 1.327 . S
C1920 C1939 1.429 . S
C1920 H1944 0.950 . S
C1921 C1938 1.574 . S
C1921 C1940 1.368 . S
C1921 H1945 0.949 . S
H1922 C1926 0.949 . S
C1923 C1924 1.349 . S
C1923 C1925 1.327 . S
C1923 H1946 0.950 . S
C1924 C1923 1.349 . S
C1924 C1936 1.349 . S
C1925 C1923 1.327 . S
C1925 C1941 1.429 . S
C1925 H1947 0.950 . S
C1926 H1922 0.949 . S
C1926 C1934 1.574 . S
C1926 C1942 1.368 1_565 S
H1927 C1935 0.953 1_545 S
H1928 C1933 0.950 . S
H1929 C1934 0.949 . S
H1930 C1936 0.950 . S
H1931 C1937 0.886 1_565 S
H1932 C1938 0.949 . S
C1933 H1928 0.950 . S
C1933 C1935 1.329 1_545 S
C1933 C1939 1.429 1_545 S
C1934 C1926 1.574 . S
C1934 H1929 0.949 . S
C1934 C1940 1.368 1_565 S
C1935 C1919 1.344 . S
C1935 H1927 0.953 1_565 S
C1935 C1933 1.329 1_565 S
C1936 C1924 1.349 . S
C1936 H1930 0.950 . S
C1936 C1937 1.327 . S
C1937 H1931 0.886 1_545 S
C1937 C1936 1.327 . S
C1937 C1941 1.429 . S
C1938 C1921 1.574 . S
C1938 H1932 0.949 . S
C1938 C1942 1.368 . S
C1939 C1920 1.429 . S
C1939 C1933 1.429 1_565 S
C1939 C1940 1.523 1_565 S
C1940 C1921 1.368 . S
C1940 C1934 1.368 1_545 S
C1940 C1939 1.523 1_545 S
C1941 C1925 1.429 . S
C1941 C1937 1.429 . S
C1941 C1942 1.523 . S
C1942 C1926 1.368 1_545 S
C1942 C1938 1.368 . S
C1942 C1941 1.523 . S
H1943 C1918 0.950 . S
H1944 C1920 0.950 . S
H1945 C1921 0.949 . S
H1946 C1923 0.950 . S
H1947 C1925 0.950 . S
C1948 C1949 1.349 . S
C1948 C1950 1.327 . S
C1948 H1973 0.950 . S
C1949 C1948 1.349 . S
C1949 C1965 1.349 . S
C1950 C1948 1.327 . S
C1950 C1969 1.429 . S
C1950 H1974 0.950 . S
C1951 C1968 1.574 . S
C1951 C1970 1.368 . S
C1951 H1975 0.949 . S
H1952 C1956 0.949 . S
C1953 C1954 1.349 . S
C1953 C1955 1.327 . S
C1953 H1976 0.950 . S
C1954 C1953 1.349 . S
C1954 C1966 1.349 . S
C1955 C1953 1.327 . S
C1955 C1971 1.429 . S
C1955 H1977 0.950 . S
C1956 H1952 0.949 . S
C1956 C1964 1.574 . S
C1956 C1972 1.368 . S
H1957 C1965 0.950 . S
H1958 C1963 0.950 . S
H1959 C1964 0.949 . S
H1960 C1966 0.950 . S
H1961 C1967 0.950 . S
H1962 C1968 0.949 . S
C1963 H1958 0.950 . S
C1963 C1965 1.327 . S
C1963 C1969 1.429 . S
C1964 C1956 1.574 . S
C1964 H1959 0.949 . S
C1964 C1970 1.368 . S
C1965 C1949 1.349 . S
C1965 H1957 0.950 . S
C1965 C1963 1.327 . S
C1966 C1954 1.349 . S
C1966 H1960 0.950 . S
C1966 C1967 1.327 . S
C1967 H1961 0.950 . S
C1967 C1966 1.327 . S
C1967 C1971 1.429 . S
C1968 C1951 1.574 . S
C1968 H1962 0.949 . S
C1968 C1972 1.368 . S
C1969 C1950 1.429 . S
C1969 C1963 1.429 . S
C1969 C1970 1.523 . S
C1970 C1951 1.368 . S
C1970 C1964 1.368 . S
C1970 C1969 1.523 . S
C1971 C1955 1.429 . S
C1971 C1967 1.429 . S
C1971 C1972 1.523 . S
C1972 C1956 1.368 . S
C1972 C1968 1.368 . S
C1972 C1971 1.523 . S
H1973 C1948 0.950 . S
H1974 C1950 0.950 . S
H1975 C1951 0.949 . S
H1976 C1953 0.950 . S
H1977 C1955 0.950 . S
C1978 C1979 1.349 . S
C1978 C1980 1.327 . S
C1978 H2003 0.950 . S
C1979 C1978 1.349 . S
C1979 C1995 1.349 . S
C1980 C1978 1.327 . S
C1980 C1999 1.429 1_556 S
C1980 H2004 0.950 . S
C1981 C1998 1.574 . S
C1981 C2000 1.368 . S
C1981 H2005 0.949 . S
H1982 C1986 0.949 . S
C1983 C1984 1.349 . S
C1983 C1985 1.327 1_565 S
C1983 H2006 0.950 1_565 S
C1984 C1983 1.349 . S
C1984 C1996 1.349 . S
C1985 C1983 1.327 1_545 S
C1985 C2001 1.429 1_545 S
C1985 H2007 0.950 . S
C1986 H1982 0.949 . S
C1986 C1994 1.578 . S
C1986 C2002 1.368 1_565 S
H1987 C1995 0.950 . S
H1988 C1993 0.950 . S
H1989 C1994 0.954 . S
H1990 C1996 0.950 . S
H1991 C1997 0.950 . S
H1992 C1998 0.949 . S
C1993 H1988 0.950 . S
C1993 C1995 1.327 1_554 S
C1993 C1999 1.429 . S
C1994 C1986 1.578 . S
C1994 H1989 0.954 . S
C1994 C2000 1.359 1_565 S
C1995 C1979 1.349 . S
C1995 H1987 0.950 . S
C1995 C1993 1.327 1_556 S
C1996 C1984 1.349 . S
C1996 H1990 0.950 . S
C1996 C1997 1.327 . S
C1997 H1991 0.950 . S
C1997 C1996 1.327 . S
C1997 C2001 1.429 . S
C1998 C1981 1.574 . S
C1998 H1992 0.949 . S
C1998 C2002 1.368 . S
C1999 C1980 1.429 1_554 S
C1999 C1993 1.429 . S
C1999 C2000 1.523 . S
C2000 C1981 1.368 . S
C2000 C1994 1.359 1_545 S
C2000 C1999 1.523 . S
C2001 C1985 1.429 1_565 S
C2001 C1997 1.429 . S
C2001 C2002 1.523 1_565 S
C2002 C1986 1.368 1_545 S
C2002 C1998 1.368 . S
C2002 C2001 1.523 1_545 S
H2003 C1978 0.950 . S
H2004 C1980 0.950 . S
H2005 C1981 0.949 . S
H2006 C1983 0.950 1_545 S
H2007 C1985 0.950 . S
C2008 C2009 1.349 . S
C2008 C2010 1.327 . S
C2008 H2033 0.950 . S
C2009 C2008 1.349 . S
C2009 C2025 1.349 . S
C2010 C2008 1.327 . S
C2010 C2029 1.429 . S
C2010 H2034 0.950 . S
C2011 C2028 1.574 . S
C2011 C2030 1.368 . S
C2011 H2035 0.949 . S
H2012 C2016 0.949 . S
C2013 C2014 1.349 . S
C2013 C2015 1.327 . S
C2013 H2036 0.950 . S
C2014 C2013 1.349 . S
C2014 C2026 1.349 . S
C2015 C2013 1.327 . S
C2015 C2031 1.429 . S
C2015 H2037 0.950 . S
C2016 H2012 0.949 . S
C2016 C2024 1.574 . S
C2016 C2032 1.368 . S
H2017 C2025 0.950 . S
H2018 C2023 0.950 . S
H2019 C2024 0.949 . S
H2020 C2026 0.950 . S
H2021 C2027 0.950 . S
H2022 C2028 0.949 . S
C2023 H2018 0.950 . S
C2023 C2025 1.327 . S
C2023 C2029 1.429 . S
C2024 C2016 1.574 . S
C2024 H2019 0.949 . S
C2024 C2030 1.368 . S
C2025 C2009 1.349 . S
C2025 H2017 0.950 . S
C2025 C2023 1.327 . S
C2026 C2014 1.349 . S
C2026 H2020 0.950 . S
C2026 C2027 1.327 . S
C2027 H2021 0.950 . S
C2027 C2026 1.327 . S
C2027 C2031 1.429 . S
C2028 C2011 1.574 . S
C2028 H2022 0.949 . S
C2028 C2032 1.368 . S
C2029 C2010 1.429 . S
C2029 C2023 1.429 . S
C2029 C2030 1.523 . S
C2030 C2011 1.368 . S
C2030 C2024 1.368 . S
C2030 C2029 1.523 . S
C2031 C2015 1.429 . S
C2031 C2027 1.429 . S
C2031 C2032 1.523 . S
C2032 C2016 1.368 . S
C2032 C2028 1.368 . S
C2032 C2031 1.523 . S
H2033 C2008 0.950 . S
H2034 C2010 0.950 . S
H2035 C2011 0.949 . S
H2036 C2013 0.950 . S
H2037 C2015 0.950 . S
C2038 C2039 1.349 . S
C2038 C2040 1.327 . S
C2038 H2063 0.950 . S
C2039 C2038 1.349 . S
C2039 C2055 1.349 . S
C2040 C2038 1.327 . S
C2040 C2059 1.429 . S
C2040 H2064 0.950 . S
C2041 C2058 1.574 . S
C2041 C2060 1.368 1_565 S
C2041 H2065 0.949 . S
H2042 C2046 0.949 . S
C2043 C2044 1.349 . S
C2043 C2045 1.327 . S
C2043 H2066 0.950 . S
C2044 C2043 1.349 . S
C2044 C2056 1.403 . S
C2045 C2043 1.327 . S
C2045 C2061 1.429 . S
C2045 H2067 0.950 . S
C2046 H2042 0.949 . S
C2046 C2054 1.574 . S
C2046 C2062 1.368 . S
H2047 C2055 0.950 . S
H2048 C2053 0.972 . S
H2049 C2054 0.949 . S
H2050 C2056 0.919 1_545 S
H2051 C2057 0.950 . S
H2052 C2058 0.949 . S
C2053 H2048 0.972 . S
C2053 C2055 1.327 . S
C2053 C2059 1.429 . S
C2054 C2046 1.574 . S
C2054 H2049 0.949 . S
C2054 C2060 1.368 . S
C2055 C2039 1.349 . S
C2055 H2047 0.950 . S
C2055 C2053 1.327 . S
C2056 C2044 1.403 . S
C2056 H2050 0.919 1_565 S
C2056 C2057 1.307 1_565 S
C2057 H2051 0.950 . S
C2057 C2056 1.307 1_545 S
C2057 C2061 1.429 1_545 S
C2058 C2041 1.574 . S
C2058 H2052 0.949 . S
C2058 C2062 1.368 1_565 S
C2059 C2040 1.429 . S
C2059 C2053 1.429 . S
C2059 C2060 1.523 . S
C2060 C2041 1.368 1_545 S
C2060 C2054 1.368 . S
C2060 C2059 1.523 . S
C2061 C2045 1.429 . S
C2061 C2057 1.429 1_565 S
C2061 C2062 1.523 1_565 S
C2062 C2046 1.368 . S
C2062 C2058 1.368 1_545 S
C2062 C2061 1.523 1_545 S
H2063 C2038 0.950 . S
H2064 C2040 0.950 . S
H2065 C2041 0.949 . S
H2066 C2043 0.950 . S
H2067 C2045 0.950 . S
C2068 C2069 1.349 . S
C2068 C2070 1.327 . S
C2068 H2093 0.950 . S
C2069 C2068 1.349 . S
C2069 C2085 1.349 . S
C2070 C2068 1.327 . S
C2070 C2089 1.429 . S
C2070 H2094 0.950 . S
C2071 C2088 1.574 . S
C2071 C2090 1.368 . S
C2071 H2095 0.949 . S
H2072 C2076 0.949 . S
C2073 C2074 1.349 . S
C2073 C2075 1.327 . S
C2073 H2096 0.950 . S
C2074 C2073 1.349 . S
C2074 C2086 1.349 . S
C2075 C2073 1.327 . S
C2075 C2091 1.429 . S
C2075 H2097 0.950 . S
C2076 H2072 0.949 . S
C2076 C2084 1.574 . S
C2076 C2092 1.368 . S
H2077 C2085 0.950 . S
H2078 C2083 0.950 . S
H2079 C2084 0.949 . S
H2080 C2086 0.950 . S
H2081 C2087 0.950 . S
H2082 C2088 0.949 . S
C2083 H2078 0.950 . S
C2083 C2085 1.327 . S
C2083 C2089 1.429 . S
C2084 C2076 1.574 . S
C2084 H2079 0.949 . S
C2084 C2090 1.368 . S
C2085 C2069 1.349 . S
C2085 H2077 0.950 . S
C2085 C2083 1.327 . S
C2086 C2074 1.349 . S
C2086 H2080 0.950 . S
C2086 C2087 1.327 . S
C2087 H2081 0.950 . S
C2087 C2086 1.327 . S
C2087 C2091 1.429 . S
C2088 C2071 1.574 . S
C2088 H2082 0.949 . S
C2088 C2092 1.368 . S
C2089 C2070 1.429 . S
C2089 C2083 1.429 . S
C2089 C2090 1.523 . S
C2090 C2071 1.368 . S
C2090 C2084 1.368 . S
C2090 C2089 1.523 . S
C2091 C2075 1.429 . S
C2091 C2087 1.429 . S
C2091 C2092 1.523 . S
C2092 C2076 1.368 . S
C2092 C2088 1.368 . S
C2092 C2091 1.523 . S
H2093 C2068 0.950 . S
H2094 C2070 0.950 . S
H2095 C2071 0.949 . S
H2096 C2073 0.950 . S
H2097 C2075 0.950 . S
C2098 C2099 1.349 . S
C2098 C2100 1.327 1_565 S
C2098 H2123 0.950 1_565 S
C2099 C2098 1.349 . S
C2099 C2115 1.349 . S
C2100 C2098 1.327 1_545 S
C2100 C2119 1.429 1_545 S
C2100 H2124 0.950 . S
C2101 C2118 1.589 . S
C2101 C2120 1.368 1_565 S
C2101 H2125 0.949 . S
H2102 C2106 0.949 . S
C2103 C2104 1.349 . S
C2103 C2105 1.327 . S
C2103 H2126 0.950 . S
C2104 C2103 1.349 . S
C2104 C2116 1.349 . S
C2105 C2103 1.327 . S
C2105 C2121 1.429 1_556 S
C2105 H2127 0.950 . S
C2106 H2102 0.949 . S
C2106 C2114 1.574 . S
C2106 C2122 1.368 . S
H2107 C2115 0.950 . S
H2108 C2113 0.950 . S
H2109 C2114 0.949 . S
H2110 C2116 0.950 . S
H2111 C2117 0.950 . S
H2112 C2118 0.970 . S
C2113 H2108 0.950 . S
C2113 C2115 1.327 . S
C2113 C2119 1.429 . S
C2114 C2106 1.574 . S
C2114 H2109 0.949 . S
C2114 C2120 1.368 . S
C2115 C2099 1.349 . S
C2115 H2107 0.950 . S
C2115 C2113 1.327 . S
C2116 C2104 1.349 . S
C2116 H2110 0.950 . S
C2116 C2117 1.327 1_556 S
C2117 H2111 0.950 . S
C2117 C2116 1.327 1_554 S
C2117 C2121 1.429 . S
C2118 C2101 1.589 . S
C2118 H2112 0.970 . S
C2118 C2122 1.331 1_565 S
C2119 C2100 1.429 1_565 S
C2119 C2113 1.429 . S
C2119 C2120 1.523 1_565 S
C2120 C2101 1.368 1_545 S
C2120 C2114 1.368 . S
C2120 C2119 1.523 1_545 S
C2121 C2105 1.429 1_554 S
C2121 C2117 1.429 . S
C2121 C2122 1.523 . S
C2122 C2106 1.368 . S
C2122 C2118 1.331 1_545 S
C2122 C2121 1.523 . S
H2123 C2098 0.950 1_545 S
H2124 C2100 0.950 . S
H2125 C2101 0.949 . S
H2126 C2103 0.950 . S
H2127 C2105 0.950 . S
C2128 C2129 1.349 . S
C2128 C2130 1.327 . S
C2128 H2153 0.950 . S
C2129 C2128 1.349 . S
C2129 C2145 1.349 . S
C2130 C2128 1.327 . S
C2130 C2149 1.429 . S
C2130 H2154 0.950 . S
C2131 C2148 1.574 . S
C2131 C2150 1.368 . S
C2131 H2155 0.949 . S
H2132 C2136 0.949 . S
C2133 C2134 1.349 . S
C2133 C2135 1.327 . S
C2133 H2156 0.950 . S
C2134 C2133 1.349 . S
C2134 C2146 1.349 . S
C2135 C2133 1.327 . S
C2135 C2151 1.429 . S
C2135 H2157 0.950 . S
C2136 H2132 0.949 . S
C2136 C2144 1.574 . S
C2136 C2152 1.368 . S
H2137 C2145 0.950 . S
H2138 C2143 0.950 . S
H2139 C2144 0.949 . S
H2140 C2146 0.950 . S
H2141 C2147 0.950 . S
H2142 C2148 0.949 . S
C2143 H2138 0.950 . S
C2143 C2145 1.327 . S
C2143 C2149 1.429 . S
C2144 C2136 1.574 . S
C2144 H2139 0.949 . S
C2144 C2150 1.368 . S
C2145 C2129 1.349 . S
C2145 H2137 0.950 . S
C2145 C2143 1.327 . S
C2146 C2134 1.349 . S
C2146 H2140 0.950 . S
C2146 C2147 1.327 . S
C2147 H2141 0.950 . S
C2147 C2146 1.327 . S
C2147 C2151 1.429 . S
C2148 C2131 1.574 . S
C2148 H2142 0.949 . S
C2148 C2152 1.368 . S
C2149 C2130 1.429 . S
C2149 C2143 1.429 . S
C2149 C2150 1.523 . S
C2150 C2131 1.368 . S
C2150 C2144 1.368 . S
C2150 C2149 1.523 . S
C2151 C2135 1.429 . S
C2151 C2147 1.429 . S
C2151 C2152 1.523 . S
C2152 C2136 1.368 . S
C2152 C2148 1.368 . S
C2152 C2151 1.523 . S
H2153 C2128 0.950 . S
H2154 C2130 0.950 . S
H2155 C2131 0.949 . S
H2156 C2133 0.950 . S
H2157 C2135 0.950 . S
C2158 C2159 1.349 . S
C2158 C2160 1.327 . S
C2158 H2183 0.950 . S
C2159 C2158 1.349 . S
C2159 C2175 1.349 . S
C2160 C2158 1.327 . S
C2160 C2179 1.429 . S
C2160 H2184 0.950 . S
C2161 C2178 1.574 . S
C2161 C2180 1.368 . S
C2161 H2185 0.949 . S
H2162 C2166 0.949 . S
C2163 C2164 1.349 . S
C2163 C2165 1.327 . S
C2163 H2186 0.950 . S
C2164 C2163 1.349 . S
C2164 C2176 1.349 . S
C2165 C2163 1.327 . S
C2165 C2181 1.429 1_556 S
C2165 H2187 0.950 . S
C2166 H2162 0.949 . S
C2166 C2174 1.574 . S
C2166 C2182 1.368 . S
H2167 C2175 0.950 . S
H2168 C2173 0.950 . S
H2169 C2174 0.949 . S
H2170 C2176 0.950 . S
H2171 C2177 0.950 . S
H2172 C2178 0.949 . S
C2173 H2168 0.950 . S
C2173 C2175 1.327 . S
C2173 C2179 1.429 . S
C2174 C2166 1.574 . S
C2174 H2169 0.949 . S
C2174 C2180 1.368 . S
C2175 C2159 1.349 . S
C2175 H2167 0.950 . S
C2175 C2173 1.327 . S
C2176 C2164 1.349 . S
C2176 H2170 0.950 . S
C2176 C2177 1.327 1_556 S
C2177 H2171 0.950 . S
C2177 C2176 1.327 1_554 S
C2177 C2181 1.429 . S
C2178 C2161 1.574 . S
C2178 H2172 0.949 . S
C2178 C2182 1.368 . S
C2179 C2160 1.429 . S
C2179 C2173 1.429 . S
C2179 C2180 1.523 . S
C2180 C2161 1.368 . S
C2180 C2174 1.368 . S
C2180 C2179 1.523 . S
C2181 C2165 1.429 1_554 S
C2181 C2177 1.429 . S
C2181 C2182 1.523 . S
C2182 C2166 1.368 . S
C2182 C2178 1.368 . S
C2182 C2181 1.523 . S
H2183 C2158 0.950 . S
H2184 C2160 0.950 . S
H2185 C2161 0.949 . S
H2186 C2163 0.950 . S
H2187 C2165 0.950 . S
C2188 C2189 1.349 . S
C2188 C2190 1.327 . S
C2188 H2213 0.950 . S
C2189 C2188 1.349 . S
C2189 C2205 1.349 . S
C2190 C2188 1.327 . S
C2190 C2209 1.429 . S
C2190 H2214 0.950 . S
C2191 C2208 1.574 . S
C2191 C2210 1.368 . S
C2191 H2215 0.949 . S
H2192 C2196 0.949 . S
C2193 C2194 1.349 . S
C2193 C2195 1.327 . S
C2193 H2216 0.950 . S
C2194 C2193 1.349 . S
C2194 C2206 1.349 . S
C2195 C2193 1.327 . S
C2195 C2211 1.429 . S
C2195 H2217 0.950 . S
C2196 H2192 0.949 . S
C2196 C2204 1.574 . S
C2196 C2212 1.368 . S
H2197 C2205 0.950 . S
H2198 C2203 0.950 . S
H2199 C2204 0.949 . S
H2200 C2206 0.950 . S
H2201 C2207 0.950 . S
H2202 C2208 0.949 . S
C2203 H2198 0.950 . S
C2203 C2205 1.327 . S
C2203 C2209 1.429 . S
C2204 C2196 1.574 . S
C2204 H2199 0.949 . S
C2204 C2210 1.368 . S
C2205 C2189 1.349 . S
C2205 H2197 0.950 . S
C2205 C2203 1.327 . S
C2206 C2194 1.349 . S
C2206 H2200 0.950 . S
C2206 C2207 1.327 . S
C2207 H2201 0.950 . S
C2207 C2206 1.327 . S
C2207 C2211 1.429 . S
C2208 C2191 1.574 . S
C2208 H2202 0.949 . S
C2208 C2212 1.368 . S
C2209 C2190 1.429 . S
C2209 C2203 1.429 . S
C2209 C2210 1.523 . S
C2210 C2191 1.368 . S
C2210 C2204 1.368 . S
C2210 C2209 1.523 . S
C2211 C2195 1.429 . S
C2211 C2207 1.429 . S
C2211 C2212 1.523 . S
C2212 C2196 1.368 . S
C2212 C2208 1.368 . S
C2212 C2211 1.523 . S
H2213 C2188 0.950 . S
H2214 C2190 0.950 . S
H2215 C2191 0.949 . S
H2216 C2193 0.950 . S
H2217 C2195 0.950 . S
C2218 C2219 1.349 . S
C2218 C2220 1.327 . S
C2218 H2243 0.950 . S
C2219 C2218 1.349 . S
C2219 C2235 1.349 . S
C2220 C2218 1.327 . S
C2220 C2239 1.429 . S
C2220 H2244 0.950 . S
C2221 C2238 1.574 . S
C2221 C2240 1.368 . S
C2221 H2245 0.949 . S
H2222 C2226 0.949 . S
C2223 C2224 1.349 . S
C2223 C2225 1.327 . S
C2223 H2246 0.950 . S
C2224 C2223 1.349 . S
C2224 C2236 1.349 . S
C2225 C2223 1.327 . S
C2225 C2241 1.429 . S
C2225 H2247 0.950 . S
C2226 H2222 0.949 . S
C2226 C2234 1.574 . S
C2226 C2242 1.368 . S
H2227 C2235 0.950 . S
H2228 C2233 0.950 . S
H2229 C2234 0.949 . S
H2230 C2236 0.950 . S
H2231 C2237 0.950 . S
H2232 C2238 0.949 . S
C2233 H2228 0.950 . S
C2233 C2235 1.327 . S
C2233 C2239 1.429 . S
C2234 C2226 1.574 . S
C2234 H2229 0.949 . S
C2234 C2240 1.368 . S
C2235 C2219 1.349 . S
C2235 H2227 0.950 . S
C2235 C2233 1.327 . S
C2236 C2224 1.349 . S
C2236 H2230 0.950 . S
C2236 C2237 1.327 . S
C2237 H2231 0.950 . S
C2237 C2236 1.327 . S
C2237 C2241 1.429 . S
C2238 C2221 1.574 . S
C2238 H2232 0.949 . S
C2238 C2242 1.368 . S
C2239 C2220 1.429 . S
C2239 C2233 1.429 . S
C2239 C2240 1.523 . S
C2240 C2221 1.368 . S
C2240 C2234 1.368 . S
C2240 C2239 1.523 . S
C2241 C2225 1.429 . S
C2241 C2237 1.429 . S
C2241 C2242 1.523 . S
C2242 C2226 1.368 . S
C2242 C2238 1.368 . S
C2242 C2241 1.523 . S
H2243 C2218 0.950 . S
H2244 C2220 0.950 . S
H2245 C2221 0.949 . S
H2246 C2223 0.950 . S
H2247 C2225 0.950 . S
C2248 C2249 1.349 . S
C2248 C2250 1.327 . S
C2248 H2273 0.950 . S
C2249 C2248 1.349 . S
C2249 C2265 1.349 . S
C2250 C2248 1.327 . S
C2250 C2269 1.429 . S
C2250 H2274 0.950 . S
C2251 C2268 1.574 . S
C2251 C2270 1.368 . S
C2251 H2275 0.949 . S
H2252 C2256 0.949 . S
C2253 C2254 1.349 . S
C2253 C2255 1.327 . S
C2253 H2276 0.950 . S
C2254 C2253 1.349 . S
C2254 C2266 1.349 . S
C2255 C2253 1.327 . S
C2255 C2271 1.429 . S
C2255 H2277 0.950 . S
C2256 H2252 0.949 . S
C2256 C2264 1.574 . S
C2256 C2272 1.368 . S
H2257 C2265 0.950 . S
H2258 C2263 0.950 . S
H2259 C2264 0.949 . S
H2260 C2266 0.950 . S
H2261 C2267 0.950 . S
H2262 C2268 0.949 . S
C2263 H2258 0.950 . S
C2263 C2265 1.327 . S
C2263 C2269 1.429 . S
C2264 C2256 1.574 . S
C2264 H2259 0.949 . S
C2264 C2270 1.368 . S
C2265 C2249 1.349 . S
C2265 H2257 0.950 . S
C2265 C2263 1.327 . S
C2266 C2254 1.349 . S
C2266 H2260 0.950 . S
C2266 C2267 1.327 . S
C2267 H2261 0.950 . S
C2267 C2266 1.327 . S
C2267 C2271 1.429 . S
C2268 C2251 1.574 . S
C2268 H2262 0.949 . S
C2268 C2272 1.368 . S
C2269 C2250 1.429 . S
C2269 C2263 1.429 . S
C2269 C2270 1.523 . S
C2270 C2251 1.368 . S
C2270 C2264 1.368 . S
C2270 C2269 1.523 . S
C2271 C2255 1.429 . S
C2271 C2267 1.429 . S
C2271 C2272 1.523 . S
C2272 C2256 1.368 . S
C2272 C2268 1.368 . S
C2272 C2271 1.523 . S
H2273 C2248 0.950 . S
H2274 C2250 0.950 . S
H2275 C2251 0.949 . S
H2276 C2253 0.950 . S
H2277 C2255 0.950 . S
C2278 C2279 1.349 . S
C2278 C2280 1.327 . S
C2278 H2303 0.950 . S
C2279 C2278 1.349 . S
C2279 C2295 1.349 . S
C2280 C2278 1.327 . S
C2280 C2299 1.429 1_556 S
C2280 H2304 0.950 . S
C2281 C2298 1.574 . S
C2281 C2300 1.368 . S
C2281 H2305 0.949 . S
H2282 C2286 0.949 . S
C2283 C2284 1.349 . S
C2283 C2285 1.327 . S
C2283 H2306 0.950 . S
C2284 C2283 1.349 . S
C2284 C2296 1.349 . S
C2285 C2283 1.327 . S
C2285 C2301 1.429 . S
C2285 H2307 0.950 . S
C2286 H2282 0.949 . S
C2286 C2294 1.574 . S
C2286 C2302 1.368 . S
H2287 C2295 0.950 . S
H2288 C2293 0.950 . S
H2289 C2294 0.949 . S
H2290 C2296 0.950 . S
H2291 C2297 0.950 . S
H2292 C2298 0.949 . S
C2293 H2288 0.950 . S
C2293 C2295 1.327 1_554 S
C2293 C2299 1.429 . S
C2294 C2286 1.574 . S
C2294 H2289 0.949 . S
C2294 C2300 1.368 . S
C2295 C2279 1.349 . S
C2295 H2287 0.950 . S
C2295 C2293 1.327 1_556 S
C2296 C2284 1.349 . S
C2296 H2290 0.950 . S
C2296 C2297 1.327 . S
C2297 H2291 0.950 . S
C2297 C2296 1.327 . S
C2297 C2301 1.429 . S
C2298 C2281 1.574 . S
C2298 H2292 0.949 . S
C2298 C2302 1.368 . S
C2299 C2280 1.429 1_554 S
C2299 C2293 1.429 . S
C2299 C2300 1.523 . S
C2300 C2281 1.368 . S
C2300 C2294 1.368 . S
C2300 C2299 1.523 . S
C2301 C2285 1.429 . S
C2301 C2297 1.429 . S
C2301 C2302 1.523 . S
C2302 C2286 1.368 . S
C2302 C2298 1.368 . S
C2302 C2301 1.523 . S
H2303 C2278 0.950 . S
H2304 C2280 0.950 . S
H2305 C2281 0.949 . S
H2306 C2283 0.950 . S
H2307 C2285 0.950 . S
C2308 C2309 1.349 . S
C2308 C2310 1.327 . S
C2308 H2333 0.950 . S
C2309 C2308 1.349 . S
C2309 C2325 1.349 . S
C2310 C2308 1.327 . S
C2310 C2329 1.429 . S
C2310 H2334 0.950 . S
C2311 C2328 1.574 . S
C2311 C2330 1.368 . S
C2311 H2335 0.949 . S
H2312 C2316 0.949 . S
C2313 C2314 1.349 . S
C2313 C2315 1.327 . S
C2313 H2336 0.950 . S
C2314 C2313 1.349 . S
C2314 C2326 1.349 . S
C2315 C2313 1.327 . S
C2315 C2331 1.429 . S
C2315 H2337 0.950 . S
C2316 H2312 0.949 . S
C2316 C2324 1.574 . S
C2316 C2332 1.368 . S
H2317 C2325 0.950 . S
H2318 C2323 0.950 . S
H2319 C2324 0.949 . S
H2320 C2326 0.950 . S
H2321 C2327 0.950 . S
H2322 C2328 0.949 . S
C2323 H2318 0.950 . S
C2323 C2325 1.327 . S
C2323 C2329 1.429 . S
C2324 C2316 1.574 . S
C2324 H2319 0.949 . S
C2324 C2330 1.368 . S
C2325 C2309 1.349 . S
C2325 H2317 0.950 . S
C2325 C2323 1.327 . S
C2326 C2314 1.349 . S
C2326 H2320 0.950 . S
C2326 C2327 1.327 . S
C2327 H2321 0.950 . S
C2327 C2326 1.327 . S
C2327 C2331 1.429 . S
C2328 C2311 1.574 . S
C2328 H2322 0.949 . S
C2328 C2332 1.368 . S
C2329 C2310 1.429 . S
C2329 C2323 1.429 . S
C2329 C2330 1.523 . S
C2330 C2311 1.368 . S
C2330 C2324 1.368 . S
C2330 C2329 1.523 . S
C2331 C2315 1.429 . S
C2331 C2327 1.429 . S
C2331 C2332 1.523 . S
C2332 C2316 1.368 . S
C2332 C2328 1.368 . S
C2332 C2331 1.523 . S
H2333 C2308 0.950 . S
H2334 C2310 0.950 . S
H2335 C2311 0.949 . S
H2336 C2313 0.950 . S
H2337 C2315 0.950 . S
C2338 C2339 1.349 . S
C2338 C2340 1.327 . S
C2338 H2363 0.950 . S
C2339 C2338 1.349 . S
C2339 C2355 1.349 . S
C2340 C2338 1.327 . S
C2340 C2359 1.429 . S
C2340 H2364 0.950 . S
C2341 C2358 1.574 . S
C2341 C2360 1.368 . S
C2341 H2365 0.949 . S
H2342 C2346 0.949 . S
C2343 C2344 1.349 . S
C2343 C2345 1.327 . S
C2343 H2366 0.950 . S
C2344 C2343 1.349 . S
C2344 C2356 1.349 . S
C2345 C2343 1.327 . S
C2345 C2361 1.429 . S
C2345 H2367 0.950 . S
C2346 H2342 0.949 . S
C2346 C2354 1.574 . S
C2346 C2362 1.368 . S
H2347 C2355 0.950 . S
H2348 C2353 0.950 . S
H2349 C2354 0.949 . S
H2350 C2356 0.950 . S
H2351 C2357 0.950 . S
H2352 C2358 0.949 . S
C2353 H2348 0.950 . S
C2353 C2355 1.327 . S
C2353 C2359 1.429 . S
C2354 C2346 1.574 . S
C2354 H2349 0.949 . S
C2354 C2360 1.368 . S
C2355 C2339 1.349 . S
C2355 H2347 0.950 . S
C2355 C2353 1.327 . S
C2356 C2344 1.349 . S
C2356 H2350 0.950 . S
C2356 C2357 1.327 . S
C2357 H2351 0.950 . S
C2357 C2356 1.327 . S
C2357 C2361 1.429 . S
C2358 C2341 1.574 . S
C2358 H2352 0.949 . S
C2358 C2362 1.368 . S
C2359 C2340 1.429 . S
C2359 C2353 1.429 . S
C2359 C2360 1.523 . S
C2360 C2341 1.368 . S
C2360 C2354 1.368 . S
C2360 C2359 1.523 . S
C2361 C2345 1.429 . S
C2361 C2357 1.429 . S
C2361 C2362 1.523 . S
C2362 C2346 1.368 . S
C2362 C2358 1.368 . S
C2362 C2361 1.523 . S
H2363 C2338 0.950 . S
H2364 C2340 0.950 . S
H2365 C2341 0.949 . S
H2366 C2343 0.950 . S
H2367 C2345 0.950 . S
C449 C104 1.534 . S
C454 C6 1.534 . S
C479 C20 1.534 . S
C484 C62 1.534 . S
C509 C76 1.534 . S
C514 C34 1.534 . S
C539 C48 1.534 . S
C544 C90 1.534 . S
C569 C118 1.534 . S
C574 C216 1.534 . S
C599 C132 1.534 . S
C604 C174 1.534 . S
C629 C146 1.534 . S
C634 C188 1.534 . S
C659 C160 1.534 . S
C664 C202 1.534 . S
C689 C230 1.534 . S
C694 C328 1.534 . S
C719 C244 1.534 . S
C724 C286 1.534 . S
C749 C300 1.534 . S
C754 C258 1.534 . S
C779 C314 1.534 . S
C784 C272 1.534 . S
C809 C342 1.534 . S
C814 C440 1.534 . S
C839 C398 1.534 . S
C844 C356 1.534 . S
C869 C412 1.534 . S
C874 C370 1.534 . S
C899 C384 1.534 . S
C904 C426 1.534 . S
C929 C8 0.785 . S
C934 C92 0.785 . S
C959 C22 0.786 . S
C964 C106 0.786 . S
C989 C64 0.785 . S
C994 C36 0.785 . S
C1019 C50 0.786 . S
C1024 C78 0.786 . S
C1049 C120 0.785 . S
C1054 C204 0.785 . S
C1079 C134 0.786 . S
C1084 C218 0.786 . S
C1109 C176 0.785 . S
C1114 C148 0.785 . S
C1139 C190 0.786 . S
C1144 C162 0.786 . S
C1169 C232 0.786 . S
C1174 C316 0.786 . S
C1199 C330 0.785 . S
C1204 C246 0.785 . S
C1229 C288 0.785 . S
C1234 C260 0.785 . S
C1259 C274 0.786 . S
C1264 C302 0.786 . S
C1289 C344 0.785 . S
C1294 C428 0.785 . S
C1319 C358 0.785 . S
C1324 C442 0.785 . S
C1349 C400 0.786 . S
C1354 C372 0.786 . S
C1379 C414 0.786 . S
C1384 C386 0.786 . S
C1409 C9 1.583 . S
C1414 C429 1.583 . S
C1439 C23 1.583 . S
C1444 C219 1.583 . S
C1469 C37 1.583 . S
C1474 C401 1.583 . S
C1499 C51 1.583 . S
C1504 C191 1.583 . S
C1529 C65 1.583 . S
C1534 C373 1.583 . S
C1559 C79 1.583 . S
C1564 C163 1.583 . S
C1589 C93 1.583 . S
C1594 C345 1.583 . S
C1619 C135 1.583 . S
C1624 C107 1.583 . S
C1649 C317 1.583 . S
C1654 C121 1.583 . S
C1679 C149 1.583 . S
C1684 C289 1.583 . S
C1709 C261 1.583 . S
C1714 C177 1.583 . S
C1739 C233 1.583 . S
C1744 C205 1.583 . S
C1769 C247 1.583 . S
C1774 C443 1.583 . S
C1799 C275 1.583 . S
C1804 C415 1.583 . S
C1829 C303 1.583 . S
C1834 C387 1.583 . S
C1859 C359 1.583 . S
C1864 C331 1.583 . S
C1889 C7 1.577 . S
C1894 C91 1.577 . S
C1919 C21 1.576 . S
C1924 C105 1.576 . S
C1949 C63 1.576 1_556 S
C1954 C35 1.576 . S
C1979 C49 1.576 . S
C1984 C77 1.576 . S
C2009 C119 1.576 1_556 S
C2014 C203 1.576 . S
C2039 C133 1.576 . S
C2044 C217 1.576 . S
C2069 C175 1.577 . S
C2074 C147 1.577 . S
C2099 C161 1.576 . S
C2104 C189 1.576 . S
C2129 C315 1.576 1_556 S
C2134 C231 1.576 . S
C2159 C329 1.576 . S
C2164 C245 1.576 . S
C2189 C287 1.576 . S
C2194 C259 1.576 . S
C2219 C301 1.576 . S
C2224 C273 1.576 . S
C2249 C427 1.576 . S
C2254 C343 1.576 . S
C2279 C441 1.576 . S
C2284 C357 1.576 . S
C2309 C371 1.576 1_556 S
C2314 C399 1.576 . S
C2339 C413 1.576 . S
C2344 C385 1.576 . S
