# Generated by pormake.
# Topology fnd, (5)-cn, num edge types: 1
# Building blocks:
#     Node 0, Type 0, BuildingBlock: BEQFEK_clean_sbu_0, # of connection points: 5
#     Node 1, Type 0, BuildingBlock: BEQFEK_clean_sbu_0, # of connection points: 5
#     Node 2, Type 0, BuildingBlock: BEQFEK_clean_sbu_0, # of connection points: 5
#     Node 3, Type 0, BuildingBlock: BEQFEK_clean_sbu_0, # of connection points: 5
#     Node 4, Type 0, BuildingBlock: BEQFEK_clean_sbu_0, # of connection points: 5
#     Node 5, Type 0, BuildingBlock: BEQFEK_clean_sbu_0, # of connection points: 5
#     Node 6, Type 0, BuildingBlock: BEQFEK_clean_sbu_0, # of connection points: 5
#     Node 7, Type 0, BuildingBlock: BEQFEK_clean_sbu_0, # of connection points: 5
#     Node 8, Type 0, BuildingBlock: BEQFEK_clean_sbu_0, # of connection points: 5
#     Node 9, Type 0, BuildingBlock: BEQFEK_clean_sbu_0, # of connection points: 5
#     Node 10, Type 0, BuildingBlock: BEQFEK_clean_sbu_0, # of connection points: 5
#     Node 11, Type 0, BuildingBlock: BEQFEK_clean_sbu_0, # of connection points: 5
#     Node 12, Type 0, BuildingBlock: BEQFEK_clean_sbu_0, # of connection points: 5
#     Node 13, Type 0, BuildingBlock: BEQFEK_clean_sbu_0, # of connection points: 5
#     Node 14, Type 0, BuildingBlock: BEQFEK_clean_sbu_0, # of connection points: 5
#     Node 15, Type 0, BuildingBlock: BEQFEK_clean_sbu_0, # of connection points: 5
#     Node 16, Type 0, BuildingBlock: BEQFEK_clean_sbu_0, # of connection points: 5
#     Node 17, Type 0, BuildingBlock: BEQFEK_clean_sbu_0, # of connection points: 5
#     Edge 18, Type (0, 0), BuildingBlock: UVAHIK_clean_linker_0, # of connection points: 2
#     Edge 19, Type (0, 0), BuildingBlock: UVAHIK_clean_linker_0, # of connection points: 2
#     Edge 20, Type (0, 0), BuildingBlock: UVAHIK_clean_linker_0, # of connection points: 2
#     Edge 21, Type (0, 0), BuildingBlock: UVAHIK_clean_linker_0, # of connection points: 2
#     Edge 22, Type (0, 0), BuildingBlock: UVAHIK_clean_linker_0, # of connection points: 2
#     Edge 23, Type (0, 0), BuildingBlock: UVAHIK_clean_linker_0, # of connection points: 2
#     Edge 24, Type (0, 0), BuildingBlock: UVAHIK_clean_linker_0, # of connection points: 2
#     Edge 25, Type (0, 0), BuildingBlock: UVAHIK_clean_linker_0, # of connection points: 2
#     Edge 26, Type (0, 0), BuildingBlock: UVAHIK_clean_linker_0, # of connection points: 2
#     Edge 27, Type (0, 0), BuildingBlock: UVAHIK_clean_linker_0, # of connection points: 2
#     Edge 28, Type (0, 0), BuildingBlock: UVAHIK_clean_linker_0, # of connection points: 2
#     Edge 29, Type (0, 0), BuildingBlock: UVAHIK_clean_linker_0, # of connection points: 2
#     Edge 30, Type (0, 0), BuildingBlock: UVAHIK_clean_linker_0, # of connection points: 2
#     Edge 31, Type (0, 0), BuildingBlock: UVAHIK_clean_linker_0, # of connection points: 2
#     Edge 32, Type (0, 0), BuildingBlock: UVAHIK_clean_linker_0, # of connection points: 2
#     Edge 33, Type (0, 0), BuildingBlock: UVAHIK_clean_linker_0, # of connection points: 2
#     Edge 34, Type (0, 0), BuildingBlock: UVAHIK_clean_linker_0, # of connection points: 2
#     Edge 35, Type (0, 0), BuildingBlock: UVAHIK_clean_linker_0, # of connection points: 2
#     Edge 36, Type (0, 0), BuildingBlock: UVAHIK_clean_linker_0, # of connection points: 2
#     Edge 37, Type (0, 0), BuildingBlock: UVAHIK_clean_linker_0, # of connection points: 2
#     Edge 38, Type (0, 0), BuildingBlock: UVAHIK_clean_linker_0, # of connection points: 2
#     Edge 39, Type (0, 0), BuildingBlock: UVAHIK_clean_linker_0, # of connection points: 2
#     Edge 40, Type (0, 0), BuildingBlock: UVAHIK_clean_linker_0, # of connection points: 2
#     Edge 41, Type (0, 0), BuildingBlock: UVAHIK_clean_linker_0, # of connection points: 2
#     Edge 42, Type (0, 0), BuildingBlock: UVAHIK_clean_linker_0, # of connection points: 2
#     Edge 43, Type (0, 0), BuildingBlock: UVAHIK_clean_linker_0, # of connection points: 2
#     Edge 44, Type (0, 0), BuildingBlock: UVAHIK_clean_linker_0, # of connection points: 2
#     Edge 45, Type (0, 0), BuildingBlock: UVAHIK_clean_linker_0, # of connection points: 2
#     Edge 46, Type (0, 0), BuildingBlock: UVAHIK_clean_linker_0, # of connection points: 2
#     Edge 47, Type (0, 0), BuildingBlock: UVAHIK_clean_linker_0, # of connection points: 2
#     Edge 48, Type (0, 0), BuildingBlock: UVAHIK_clean_linker_0, # of connection points: 2
#     Edge 49, Type (0, 0), BuildingBlock: UVAHIK_clean_linker_0, # of connection points: 2
#     Edge 50, Type (0, 0), BuildingBlock: UVAHIK_clean_linker_0, # of connection points: 2
#     Edge 51, Type (0, 0), BuildingBlock: UVAHIK_clean_linker_0, # of connection points: 2
#     Edge 52, Type (0, 0), BuildingBlock: UVAHIK_clean_linker_0, # of connection points: 2
#     Edge 53, Type (0, 0), BuildingBlock: UVAHIK_clean_linker_0, # of connection points: 2
#     Edge 54, Type (0, 0), BuildingBlock: UVAHIK_clean_linker_0, # of connection points: 2
#     Edge 55, Type (0, 0), BuildingBlock: UVAHIK_clean_linker_0, # of connection points: 2
#     Edge 56, Type (0, 0), BuildingBlock: UVAHIK_clean_linker_0, # of connection points: 2
#     Edge 57, Type (0, 0), BuildingBlock: UVAHIK_clean_linker_0, # of connection points: 2
#     Edge 58, Type (0, 0), BuildingBlock: UVAHIK_clean_linker_0, # of connection points: 2
#     Edge 59, Type (0, 0), BuildingBlock: UVAHIK_clean_linker_0, # of connection points: 2
#     Edge 60, Type (0, 0), BuildingBlock: UVAHIK_clean_linker_0, # of connection points: 2
#     Edge 61, Type (0, 0), BuildingBlock: UVAHIK_clean_linker_0, # of connection points: 2
#     Edge 62, Type (0, 0), BuildingBlock: UVAHIK_clean_linker_0, # of connection points: 2
# Relax obj value: 0.148
# Max RMSD: 0.197
# Mean RMSD: 0.197
data_MOF--net-fnd--node1-BEQFEK_clean_sbu_0--edge1-UVAHIK_clean_linker_0
_symmetry_space_group_name_H-M    P1
_symmetry_Int_Tables_number       1
_symmetry_cell_setting            triclinic
loop_
_symmetry_equiv_pos_as_xyz
'x, y, z'
_cell_length_a     103.02662
_cell_length_b     103.05641
_cell_length_c     23.563446
_cell_angle_alpha  90.055762
_cell_angle_beta   89.976632
_cell_angle_gamma 120.03607
loop_
_atom_site_label
_atom_site_type_symbol
_atom_site_fract_x
_atom_site_fract_y
_atom_site_fract_z
_atom_type_partial_charge
Co0 Co 0.10607 0.21874 0.50071 0.0
Co1 Co 0.10126 0.2112 0.37117 0.0
C2 C 0.11989 0.20279 0.43974 0.0
O3 O 0.11707 0.20821 0.48339 0.0
O4 O 0.11474 0.20328 0.39111 0.0
C5 C 0.12317 0.22878 0.60361 0.0
O6 O 0.13302 0.2267 0.57567 0.0
C7 C 0.10641 0.21227 0.2475 0.0
C8 C 0.08424 0.20762 0.21636 0.0
C9 C 0.09853 0.21142 0.19846 0.0
N10 N 0.09722 0.2094 0.29212 0.0
N11 N 0.08393 0.20634 0.27308 0.0
C12 C 0.12271 0.2172 0.25284 0.0
H13 H 0.12668 0.22097 0.29682 0.0
H14 H 0.12944 0.2264 0.22251 0.0
H15 H 0.12437 0.20761 0.24276 0.0
C16 C 0.11557 0.249 0.45785 0.0
N17 N 0.11096 0.23443 0.44926 0.0
N18 N 0.10919 0.2315 0.39454 0.0
C19 C 0.11268 0.24424 0.36639 0.0
C20 C 0.11681 0.25571 0.40565 0.0
C21 C 0.11766 0.25599 0.51532 0.0
H22 H 0.10804 0.24859 0.54291 0.0
H23 H 0.12798 0.25713 0.5349 0.0
H24 H 0.1186 0.26718 0.51304 0.0
O25 O 0.0844 0.20446 0.49843 0.0
O26 O 0.0814 0.19871 0.40687 0.0
H27 H 0.10096 0.23812 0.28715 0.0
H28 H 0.11655 0.25712 0.28888 0.0
C29 C 0.11251 0.24548 0.30314 0.0
H30 H 0.11992 0.24174 0.2844 0.0
H31 H 0.07481 0.20402 0.29904 0.0
O32 O 0.1112 0.2264 0.579 0.0
C33 C 0.07609 0.19718 0.45674 0.0
Co34 Co 0.77611 0.8883 0.50778 0.0
Co35 Co 0.78421 0.89169 0.3777 0.0
C36 C 0.79634 0.91822 0.45421 0.0
O37 O 0.78964 0.90977 0.49615 0.0
O38 O 0.79517 0.9129 0.40444 0.0
C39 C 0.76753 0.89647 0.61058 0.0
O40 O 0.76981 0.90807 0.57996 0.0
C41 C 0.7833 0.8988 0.25703 0.0
C42 C 0.79144 0.88495 0.21569 0.0
C43 C 0.78629 0.89477 0.20453 0.0
N44 N 0.7864 0.89153 0.29739 0.0
N45 N 0.79135 0.88335 0.27236 0.0
C46 C 0.77849 0.91003 0.26905 0.0
H47 H 0.77617 0.9102 0.31497 0.0
H48 H 0.76835 0.90745 0.24417 0.0
H49 H 0.78754 0.92131 0.25585 0.0
C50 C 0.74536 0.87362 0.46021 0.0
N51 N 0.76036 0.88078 0.45388 0.0
N52 N 0.76365 0.88187 0.39939 0.0
C53 C 0.75078 0.87508 0.36944 0.0
C54 C 0.73881 0.86985 0.40684 0.0
C55 C 0.73764 0.87102 0.51632 0.0
H56 H 0.74173 0.88193 0.53806 0.0
H57 H 0.7253 0.86549 0.51176 0.0
H58 H 0.74057 0.86404 0.54332 0.0
O59 O 0.7879 0.87803 0.50126 0.0
O60 O 0.7935 0.88053 0.40928 0.0
H61 H 0.75873 0.86999 0.29298 0.0
H62 H 0.73877 0.86254 0.29499 0.0
C63 C 0.74978 0.87227 0.30681 0.0
H64 H 0.75107 0.88226 0.28419 0.0
H65 H 0.79452 0.87654 0.29395 0.0
O66 O 0.76875 0.88599 0.58719 0.0
C67 C 0.79414 0.87586 0.45854 0.0
Co68 Co 0.10393 0.88717 0.51755 0.0
Co69 Co 0.1004 0.89012 0.38691 0.0
C70 C 0.07373 0.87325 0.46001 0.0
O71 O 0.08221 0.87622 0.50305 0.0
O72 O 0.0791 0.87783 0.41058 0.0
C73 C 0.09893 0.87051 0.62017 0.0
O74 O 0.08883 0.85924 0.58999 0.0
C75 C 0.09453 0.88456 0.26276 0.0
C76 C 0.11498 0.90433 0.23006 0.0
C77 C 0.10223 0.89134 0.21299 0.0
N78 N 0.10265 0.89304 0.30695 0.0
N79 N 0.11471 0.90491 0.28689 0.0
C80 C 0.07966 0.87052 0.26856 0.0
H81 H 0.07361 0.87125 0.30614 0.0
H82 H 0.08141 0.86084 0.27452 0.0
H83 H 0.07269 0.86859 0.23014 0.0
C84 C 0.12328 0.8755 0.47546 0.0
N85 N 0.11395 0.88092 0.46701 0.0
N86 N 0.11186 0.88146 0.41219 0.0
C87 C 0.11958 0.87613 0.38396 0.0
C88 C 0.12719 0.87232 0.42304 0.0
C89 C 0.12889 0.87416 0.53246 0.0
H90 H 0.13095 0.88382 0.55951 0.0
H91 H 0.12022 0.86375 0.5533 0.0
H92 H 0.13939 0.8737 0.52877 0.0
O93 O 0.11154 0.90881 0.51071 0.0
O94 O 0.10914 0.91066 0.4179 0.0
H95 H 0.12569 0.88476 0.2997 0.0
H96 H 0.12306 0.86619 0.30843 0.0
C97 C 0.11887 0.8738 0.32107 0.0
H98 H 0.10712 0.86882 0.30663 0.0
H99 H 0.12302 0.91323 0.31224 0.0
O100 O 0.10683 0.88321 0.59678 0.0
C101 C 0.11297 0.91658 0.46686 0.0
Co102 Co 0.2128 0.10683 0.48471 0.0
Co103 Co 0.20485 0.10258 0.61487 0.0
C104 C 0.1948 0.11902 0.53966 0.0
O105 O 0.20085 0.11651 0.49728 0.0
O106 O 0.19556 0.1145 0.58918 0.0
C107 C 0.22246 0.12358 0.38215 0.0
O108 O 0.22113 0.1335 0.41289 0.0
C109 C 0.2064 0.11063 0.73582 0.0
C110 C 0.19706 0.08841 0.77652 0.0
C111 C 0.20307 0.10351 0.78812 0.0
N112 N 0.20267 0.10019 0.69515 0.0
N113 N 0.19701 0.08693 0.71979 0.0
C114 C 0.21214 0.12689 0.7243 0.0
H115 H 0.21463 0.12939 0.67848 0.0
H116 H 0.22239 0.13397 0.74947 0.0
H117 H 0.20354 0.12976 0.73746 0.0
C118 C 0.24357 0.12056 0.53159 0.0
N119 N 0.2286 0.11377 0.53826 0.0
N120 N 0.22535 0.11181 0.59281 0.0
C121 C 0.23819 0.11705 0.62248 0.0
C122 C 0.25012 0.12293 0.58481 0.0
C123 C 0.2513 0.12525 0.47538 0.0
H124 H 0.24731 0.11527 0.44763 0.0
H125 H 0.24829 0.13304 0.45467 0.0
H126 H 0.26367 0.13092 0.47961 0.0
O127 O 0.1995 0.08492 0.4906 0.0
O128 O 0.19402 0.08215 0.58267 0.0
H129 H 0.22977 0.10448 0.69963 0.0
H130 H 0.24986 0.11615 0.69731 0.0
C131 C 0.2391 0.11542 0.68526 0.0
H132 H 0.23839 0.12455 0.70717 0.0
H133 H 0.19324 0.07687 0.6979 0.0
O134 O 0.22022 0.11149 0.40535 0.0
C135 C 0.19283 0.07669 0.53325 0.0
Co136 Co 0.88584 0.10644 0.49857 0.0
Co137 Co 0.89194 0.10422 0.62728 0.0
C138 C 0.87576 0.07689 0.55689 0.0
O139 O 0.87748 0.08499 0.51371 0.0
O140 O 0.88043 0.08268 0.60574 0.0
C141 C 0.86917 0.09783 0.3945 0.0
O142 O 0.86073 0.0851 0.42097 0.0
C143 C 0.88668 0.0998 0.75046 0.0
C144 C 0.90891 0.1169 0.7828 0.0
C145 C 0.8945 0.10656 0.79993 0.0
N146 N 0.89604 0.10612 0.7063 0.0
N147 N 0.90936 0.11609 0.72603 0.0
C148 C 0.87033 0.08871 0.74434 0.0
H149 H 0.8684 0.07733 0.75378 0.0
H150 H 0.86654 0.08877 0.70029 0.0
H151 H 0.86367 0.09122 0.77482 0.0
C152 C 0.87138 0.12263 0.54595 0.0
N153 N 0.8788 0.11507 0.55225 0.0
N154 N 0.88168 0.11459 0.60641 0.0
C155 C 0.87646 0.12221 0.63621 0.0
C156 C 0.86961 0.12736 0.59901 0.0
C157 C 0.86568 0.12471 0.49026 0.0
H158 H 0.8591 0.11368 0.46904 0.0
H159 H 0.85848 0.12979 0.49546 0.0
H160 H 0.87534 0.13194 0.4625 0.0
O161 O 0.90796 0.11644 0.5 0.0
O162 O 0.91176 0.11372 0.59068 0.0
H163 H 0.8906 0.12828 0.70978 0.0
H164 H 0.87808 0.13568 0.70931 0.0
C165 C 0.87919 0.12581 0.69816 0.0
H166 H 0.87085 0.1161 0.72317 0.0
H167 H 0.9186 0.12287 0.70056 0.0
O168 O 0.88007 0.10854 0.42062 0.0
C169 C 0.91675 0.11819 0.54092 0.0
Co170 Co 0.88466 0.77536 0.48989 0.0
Co171 Co 0.88682 0.78383 0.61865 0.0
C172 C 0.91423 0.79404 0.54853 0.0
O173 O 0.90618 0.78772 0.50516 0.0
O174 O 0.90836 0.79337 0.59685 0.0
C175 C 0.89266 0.76658 0.38587 0.0
O176 O 0.90528 0.77037 0.41235 0.0
C177 C 0.8913 0.78285 0.74178 0.0
C178 C 0.87495 0.78896 0.77457 0.0
C179 C 0.88485 0.7843 0.79144 0.0
N180 N 0.88521 0.78622 0.69779 0.0
N181 N 0.8757 0.79016 0.71779 0.0
C182 C 0.90187 0.77696 0.73533 0.0
H183 H 0.90158 0.77303 0.69122 0.0
H184 H 0.89901 0.76769 0.76572 0.0
H185 H 0.91343 0.7861 0.74469 0.0
C186 C 0.86755 0.74476 0.53778 0.0
N187 N 0.87551 0.75976 0.54385 0.0
N188 N 0.87606 0.76322 0.59797 0.0
C189 C 0.86809 0.75048 0.62789 0.0
C190 C 0.86265 0.7384 0.59092 0.0
C191 C 0.86523 0.73683 0.48229 0.0
H192 H 0.87624 0.74083 0.46141 0.0
H193 H 0.85965 0.7245 0.48771 0.0
H194 H 0.85835 0.73963 0.4541 0.0
O195 O 0.87541 0.78819 0.49087 0.0
O196 O 0.87722 0.79406 0.58233 0.0
H197 H 0.85423 0.73903 0.70063 0.0
H198 H 0.87388 0.75077 0.71517 0.0
C199 C 0.8644 0.7498 0.68969 0.0
H200 H 0.86237 0.75906 0.70095 0.0
H201 H 0.86918 0.793 0.69251 0.0
O202 O 0.88225 0.76732 0.412 0.0
C203 C 0.87324 0.79486 0.53206 0.0
Co204 Co 0.77057 0.54632 0.84931 0.0
Co205 Co 0.76733 0.54029 0.71867 0.0
C206 C 0.78641 0.5325 0.7879 0.0
O207 O 0.78289 0.53707 0.83236 0.0
O208 O 0.78132 0.53311 0.7393 0.0
C209 C 0.78699 0.55815 0.95268 0.0
O210 O 0.79854 0.55988 0.92296 0.0
C211 C 0.7726 0.54062 0.59443 0.0
C212 C 0.75235 0.54056 0.56305 0.0
C213 C 0.76558 0.54143 0.54524 0.0
N214 N 0.76404 0.53972 0.63908 0.0
N215 N 0.75187 0.53946 0.61984 0.0
C216 C 0.7869 0.54027 0.59929 0.0
H217 H 0.78607 0.53275 0.63433 0.0
H218 H 0.79625 0.5517 0.60903 0.0
H219 H 0.78942 0.53625 0.55935 0.0
C220 C 0.78059 0.57724 0.80992 0.0
N221 N 0.77556 0.5626 0.80028 0.0
N222 N 0.77467 0.56017 0.74522 0.0
C223 C 0.77934 0.57326 0.71798 0.0
C224 C 0.78312 0.58447 0.75806 0.0
C225 C 0.78253 0.58402 0.86765 0.0
H226 H 0.77308 0.57638 0.89542 0.0
H227 H 0.79307 0.58559 0.88663 0.0
H228 H 0.78308 0.59505 0.86559 0.0
O229 O 0.74914 0.53135 0.84303 0.0
O230 O 0.74719 0.52686 0.75058 0.0
H231 H 0.77025 0.57051 0.63442 0.0
H232 H 0.78836 0.58715 0.64289 0.0
C233 C 0.78138 0.5752 0.65505 0.0
H234 H 0.78692 0.56907 0.63928 0.0
H235 H 0.74342 0.53897 0.64576 0.0
O236 O 0.77429 0.55292 0.9288 0.0
C237 C 0.74137 0.52445 0.79977 0.0
Co238 Co 0.44415 0.22073 0.83079 0.0
Co239 Co 0.45007 0.22123 0.70059 0.0
C240 C 0.46111 0.2495 0.76467 0.0
O241 O 0.45565 0.24198 0.80985 0.0
O242 O 0.45974 0.24307 0.71704 0.0
C243 C 0.43676 0.23014 0.93461 0.0
O244 O 0.44077 0.2427 0.90735 0.0
C245 C 0.44888 0.22489 0.57715 0.0
C246 C 0.44987 0.2051 0.54666 0.0
C247 C 0.4482 0.21697 0.52849 0.0
N248 N 0.45062 0.21783 0.6219 0.0
N249 N 0.45148 0.20619 0.60329 0.0
C250 C 0.44637 0.23796 0.5821 0.0
H251 H 0.45704 0.24842 0.57299 0.0
H252 H 0.44273 0.23872 0.6257 0.0
H253 H 0.43782 0.23696 0.55102 0.0
C254 C 0.41281 0.20203 0.79239 0.0
N255 N 0.42762 0.21025 0.78197 0.0
N256 N 0.42995 0.21063 0.72696 0.0
C257 C 0.41664 0.2026 0.70049 0.0
C258 C 0.40536 0.19689 0.74113 0.0
C259 C 0.40608 0.19886 0.85056 0.0
H260 H 0.41243 0.19539 0.87871 0.0
H261 H 0.40699 0.20926 0.86832 0.0
H262 H 0.39412 0.18991 0.84991 0.0
O263 O 0.45758 0.21229 0.82868 0.0
O264 O 0.46162 0.21281 0.73592 0.0
H265 H 0.42047 0.19545 0.6201 0.0
H266 H 0.40277 0.19504 0.62454 0.0
C267 C 0.41471 0.20123 0.63739 0.0
H268 H 0.41987 0.21257 0.6186 0.0
H269 H 0.45256 0.19864 0.62954 0.0
O270 O 0.43723 0.21946 0.90952 0.0
C271 C 0.4637 0.20984 0.78631 0.0
Co272 Co 0.77329 0.22391 0.85512 0.0
Co273 Co 0.76849 0.22577 0.725 0.0
C274 C 0.7426 0.20848 0.80001 0.0
O275 O 0.75147 0.21237 0.84221 0.0
O276 O 0.74748 0.21258 0.74969 0.0
C277 C 0.76877 0.2076 0.95775 0.0
O278 O 0.75883 0.19626 0.92742 0.0
C279 C 0.76232 0.22014 0.60098 0.0
C280 C 0.78232 0.24032 0.56797 0.0
C281 C 0.76973 0.22717 0.55107 0.0
N282 N 0.77043 0.22867 0.64506 0.0
N283 N 0.78223 0.24078 0.62484 0.0
C284 C 0.74766 0.20587 0.60697 0.0
H285 H 0.7416 0.20637 0.64495 0.0
H286 H 0.74974 0.19637 0.61236 0.0
H287 H 0.74056 0.2038 0.56886 0.0
C288 C 0.79246 0.21213 0.81227 0.0
N289 N 0.78327 0.21773 0.80425 0.0
N290 N 0.7809 0.21808 0.74956 0.0
C291 C 0.7884 0.21255 0.72097 0.0
C292 C 0.79603 0.20868 0.75974 0.0
C293 C 0.79794 0.21046 0.86906 0.0
H294 H 0.80033 0.22017 0.8964 0.0
H295 H 0.78906 0.20015 0.88974 0.0
H296 H 0.80821 0.2096 0.86502 0.0
O297 O 0.78044 0.24545 0.84704 0.0
O298 O 0.77599 0.24618 0.7555 0.0
H299 H 0.79356 0.22074 0.63588 0.0
H300 H 0.79169 0.20248 0.64532 0.0
C301 C 0.78724 0.20986 0.65827 0.0
H302 H 0.77534 0.20448 0.64527 0.0
H303 H 0.79046 0.24921 0.65009 0.0
O304 O 0.77657 0.22032 0.93436 0.0
C305 C 0.7805 0.25267 0.80324 0.0
Co306 Co 0.88379 0.44076 0.80463 0.0
Co307 Co 0.87675 0.43768 0.9348 0.0
C308 C 0.8707 0.45766 0.8631 0.0
O309 O 0.87545 0.45397 0.81961 0.0
O310 O 0.87058 0.45231 0.91195 0.0
C311 C 0.89688 0.45684 0.70147 0.0
O312 O 0.89935 0.4687 0.73087 0.0
C313 C 0.87718 0.44347 0.05886 0.0
C314 C 0.87398 0.42197 0.09158 0.0
C315 C 0.87665 0.43596 0.10865 0.0
N316 N 0.87531 0.4344 0.01467 0.0
N317 N 0.87317 0.42151 0.03471 0.0
C318 C 0.87911 0.4588 0.05301 0.0
H319 H 0.87284 0.45926 0.01567 0.0
H320 H 0.89114 0.4671 0.04661 0.0
H321 H 0.87506 0.4619 0.09153 0.0
C322 C 0.91376 0.44824 0.84767 0.0
N323 N 0.89941 0.44468 0.85567 0.0
N324 N 0.89661 0.44385 0.91044 0.0
C325 C 0.90918 0.44707 0.93912 0.0
C326 C 0.92041 0.44981 0.90032 0.0
C327 C 0.92066 0.44936 0.7907 0.0
H328 H 0.91256 0.44019 0.76283 0.0
H329 H 0.92338 0.46019 0.77089 0.0
H330 H 0.93107 0.44872 0.7941 0.0
O331 O 0.86782 0.41968 0.81014 0.0
O332 O 0.86272 0.41779 0.90214 0.0
H333 H 0.90455 0.43708 0.02154 0.0
H334 H 0.92253 0.45404 0.01619 0.0
C335 C 0.91066 0.44841 0.00235 0.0
H336 H 0.90566 0.45505 0.01807 0.0
H337 H 0.87161 0.41253 0.00936 0.0
O338 O 0.89086 0.44411 0.72557 0.0
C339 C 0.86035 0.41204 0.85278 0.0
Co340 Co 0.55214 0.43946 0.79797 0.0
Co341 Co 0.55474 0.43473 0.92788 0.0
C342 C 0.53819 0.40874 0.85212 0.0
O343 O 0.54144 0.41758 0.81007 0.0
O344 O 0.54238 0.4137 0.90231 0.0
C345 C 0.53563 0.43458 0.69517 0.0
O346 O 0.52445 0.42426 0.72501 0.0
C347 C 0.54924 0.42822 0.0518 0.0
C348 C 0.56936 0.4482 0.08533 0.0
C349 C 0.55623 0.43555 0.10194 0.0
N350 N 0.55775 0.43646 0.00791 0.0
N351 N 0.56983 0.44824 0.02845 0.0
C352 C 0.535 0.41355 0.04538 0.0
H353 H 0.53543 0.40768 0.0067 0.0
H354 H 0.52543 0.41557 0.04107 0.0
H355 H 0.53306 0.4063 0.08291 0.0
C356 C 0.53966 0.45783 0.84306 0.0
N357 N 0.54552 0.44882 0.84999 0.0
N358 N 0.54623 0.4465 0.90452 0.0
C359 C 0.54071 0.45387 0.93406 0.0
C360 C 0.53647 0.46136 0.89616 0.0
C361 C 0.5377 0.46334 0.7868 0.0
H362 H 0.54747 0.4661 0.75916 0.0
H363 H 0.52751 0.45433 0.76593 0.0
H364 H 0.53648 0.47339 0.79162 0.0
O365 O 0.57389 0.44743 0.8053 0.0
O366 O 0.57518 0.44315 0.89665 0.0
H367 H 0.54967 0.4593 0.01813 0.0
H368 H 0.53131 0.45735 0.01123 0.0
C369 C 0.53859 0.45289 0.99708 0.0
H370 H 0.53333 0.44104 0.01041 0.0
H371 H 0.57823 0.45656 0.00344 0.0
O372 O 0.54824 0.44271 0.71899 0.0
C373 C 0.58143 0.44787 0.84868 0.0
Co374 Co 0.55431 0.11121 0.82548 0.0
Co375 Co 0.55573 0.11757 0.95565 0.0
C376 C 0.58351 0.12712 0.88989 0.0
O377 O 0.57569 0.12186 0.84514 0.0
O378 O 0.57739 0.12624 0.93783 0.0
C379 C 0.5624 0.10234 0.7221 0.0
O380 O 0.57458 0.10512 0.74983 0.0
C381 C 0.55949 0.11632 0.07929 0.0
C382 C 0.5404 0.11856 0.1098 0.0
C383 C 0.55178 0.11611 0.12799 0.0
N384 N 0.55273 0.11851 0.03453 0.0
N385 N 0.54153 0.12012 0.05318 0.0
C386 C 0.57203 0.113 0.07434 0.0
H387 H 0.57272 0.10946 0.0305 0.0
H388 H 0.57045 0.10412 0.10479 0.0
H389 H 0.58277 0.1233 0.08444 0.0
C390 C 0.53474 0.08016 0.86512 0.0
N391 N 0.54347 0.09493 0.87496 0.0
N392 N 0.54425 0.09743 0.92996 0.0
C393 C 0.53597 0.08426 0.95698 0.0
C394 C 0.52968 0.0729 0.91673 0.0
C395 C 0.53108 0.07326 0.8072 0.0
H396 H 0.52799 0.0799 0.779 0.0
H397 H 0.54115 0.07352 0.78913 0.0
H398 H 0.5217 0.0615 0.80844 0.0
O399 O 0.54669 0.12535 0.82808 0.0
O400 O 0.54789 0.12968 0.92076 0.0
H401 H 0.52984 0.0888 0.03824 0.0
H402 H 0.52839 0.07063 0.03352 0.0
C403 C 0.53499 0.0825 0.02017 0.0
H404 H 0.54641 0.08718 0.03775 0.0
H405 H 0.53425 0.12167 0.02697 0.0
O406 O 0.55238 0.10404 0.74681 0.0
C407 C 0.54479 0.1318 0.87065 0.0
Co408 Co 0.43826 0.8799 0.16861 0.0
Co409 Co 0.43087 0.87297 0.03944 0.0
C410 C 0.44535 0.85899 0.10484 0.0
O411 O 0.44498 0.86568 0.14963 0.0
O412 O 0.44047 0.86085 0.05766 0.0
C413 C 0.45466 0.88566 0.2732 0.0
O414 O 0.46163 0.87962 0.24721 0.0
C415 C 0.43601 0.87388 0.91655 0.0
C416 C 0.41491 0.87177 0.88398 0.0
C417 C 0.42879 0.87406 0.86707 0.0
N418 N 0.42686 0.87181 0.96052 0.0
N419 N 0.41418 0.87028 0.94069 0.0
C420 C 0.45181 0.87712 0.92298 0.0
H421 H 0.45581 0.88073 0.96705 0.0
H422 H 0.4593 0.8859 0.89253 0.0
H423 H 0.45221 0.86676 0.91384 0.0
C424 C 0.45451 0.91092 0.12492 0.0
N425 N 0.44615 0.89602 0.11684 0.0
N426 N 0.44303 0.89326 0.06247 0.0
C427 C 0.44916 0.90639 0.0343 0.0
C428 C 0.45674 0.91795 0.07283 0.0
C429 C 0.4604 0.91813 0.1814 0.0
H430 H 0.4667 0.91318 0.20114 0.0
H431 H 0.46788 0.93043 0.17765 0.0
H432 H 0.45084 0.91573 0.20969 0.0
O433 O 0.41613 0.86911 0.16855 0.0
O434 O 0.41116 0.86443 0.07667 0.0
H435 H 0.43476 0.90025 0.96154 0.0
H436 H 0.44926 0.91962 0.96266 0.0
C437 C 0.44661 0.90804 0.9728 0.0
H438 H 0.4539 0.90536 0.94666 0.0
H439 H 0.40526 0.86885 0.96609 0.0
O440 O 0.44473 0.88715 0.2468 0.0
C441 C 0.40685 0.86363 0.12773 0.0
Co442 Co 0.10687 0.55166 0.18598 0.0
Co443 Co 0.11427 0.55612 0.05598 0.0
C444 C 0.12051 0.58193 0.12956 0.0
O445 O 0.11546 0.57327 0.17233 0.0
O446 O 0.12069 0.5769 0.0803 0.0
C447 C 0.09373 0.5545 0.28918 0.0
O448 O 0.09135 0.56397 0.25997 0.0
C449 C 0.11418 0.56186 0.93207 0.0
C450 C 0.11752 0.54367 0.89885 0.0
C451 C 0.11488 0.55502 0.88206 0.0
N452 N 0.11593 0.55454 0.97607 0.0
N453 N 0.11815 0.54386 0.95574 0.0
C454 C 0.11219 0.57522 0.93831 0.0
H455 H 0.11819 0.58175 0.97644 0.0
H456 H 0.10011 0.57143 0.94355 0.0
H457 H 0.11649 0.58254 0.90037 0.0
C458 C 0.077 0.52943 0.1414 0.0
N459 N 0.09138 0.54022 0.13411 0.0
N460 N 0.09432 0.54241 0.07948 0.0
C461 C 0.08181 0.53319 0.05019 0.0
C462 C 0.07047 0.52457 0.08842 0.0
C463 C 0.06997 0.52343 0.198 0.0
H464 H 0.07801 0.52227 0.22585 0.0
H465 H 0.06721 0.53147 0.21825 0.0
H466 H 0.05957 0.51239 0.19391 0.0
O467 O 0.12287 0.54664 0.18025 0.0
O468 O 0.12817 0.55011 0.0884 0.0
H469 H 0.08663 0.52811 0.96754 0.0
H470 H 0.06866 0.52712 0.97264 0.0
C471 C 0.0805 0.53328 0.98694 0.0
H472 H 0.08557 0.54498 0.97191 0.0
H473 H 0.11964 0.53638 0.98089 0.0
O474 O 0.09967 0.54774 0.26487 0.0
C475 C 0.13046 0.54665 0.13767 0.0
Co476 Co 0.43642 0.55151 0.18079 0.0
Co477 Co 0.43246 0.55514 0.05106 0.0
C478 C 0.40602 0.53863 0.12509 0.0
O479 O 0.41462 0.54141 0.16765 0.0
O480 O 0.41126 0.54311 0.07547 0.0
C481 C 0.43069 0.53479 0.2838 0.0
O482 O 0.41991 0.52389 0.25437 0.0
C483 C 0.42599 0.54998 0.92718 0.0
C484 C 0.44626 0.56981 0.89383 0.0
C485 C 0.43341 0.55687 0.87711 0.0
N486 N 0.43435 0.55834 0.97115 0.0
N487 N 0.44631 0.57026 0.95073 0.0
C488 C 0.41112 0.53596 0.93349 0.0
H489 H 0.40521 0.53673 0.97145 0.0
H490 H 0.41286 0.52625 0.93913 0.0
H491 H 0.40402 0.53403 0.89549 0.0
C492 C 0.45431 0.53856 0.13538 0.0
N493 N 0.44554 0.54469 0.12856 0.0
N494 N 0.44359 0.54587 0.07401 0.0
C495 C 0.45095 0.54037 0.04433 0.0
C496 C 0.45807 0.53568 0.08218 0.0
C497 C 0.45955 0.53626 0.19171 0.0
H498 H 0.46256 0.54605 0.21956 0.0
H499 H 0.45027 0.5262 0.21225 0.0
H500 H 0.46936 0.53464 0.18715 0.0
O501 O 0.44524 0.57336 0.17484 0.0
O502 O 0.44168 0.57557 0.08347 0.0
H503 H 0.45718 0.55015 0.96173 0.0
H504 H 0.45494 0.53164 0.96644 0.0
C505 C 0.45049 0.53889 0.98106 0.0
H506 H 0.43876 0.53389 0.96631 0.0
H507 H 0.45475 0.57852 0.97583 0.0
O508 O 0.43933 0.5472 0.25964 0.0
C509 C 0.44639 0.58139 0.13211 0.0
Co510 Co 0.54689 0.77186 0.13576 0.0
Co511 Co 0.53933 0.76819 0.26584 0.0
C512 C 0.52627 0.78134 0.18956 0.0
O513 O 0.53292 0.77941 0.14772 0.0
O514 O 0.52783 0.77779 0.23984 0.0
C515 C 0.55617 0.78881 0.03328 0.0
O516 O 0.55487 0.79878 0.06373 0.0
C517 C 0.53752 0.77365 0.38926 0.0
C518 C 0.5393 0.75474 0.4246 0.0
C519 C 0.53838 0.76723 0.44005 0.0
N520 N 0.53825 0.76545 0.3461 0.0
N521 N 0.53911 0.75408 0.36771 0.0
C522 C 0.53566 0.78705 0.38162 0.0
H523 H 0.52927 0.78592 0.34238 0.0
H524 H 0.54684 0.79726 0.37767 0.0
H525 H 0.52974 0.78841 0.41847 0.0
C526 C 0.57785 0.788 0.18103 0.0
N527 N 0.56287 0.78059 0.18803 0.0
N528 N 0.55974 0.77933 0.24261 0.0
C529 C 0.57267 0.78601 0.27212 0.0
C530 C 0.58456 0.79165 0.23413 0.0
C531 C 0.58547 0.79065 0.1247 0.0
H532 H 0.57937 0.78054 0.09765 0.0
H533 H 0.58521 0.80009 0.10317 0.0
H534 H 0.5973 0.79342 0.12938 0.0
O535 O 0.53584 0.7499 0.14314 0.0
O536 O 0.52997 0.74764 0.23453 0.0
H537 H 0.56974 0.77624 0.35449 0.0
H538 H 0.5852 0.79527 0.35006 0.0
C539 C 0.57363 0.78743 0.3354 0.0
H540 H 0.56626 0.79166 0.35039 0.0
H541 H 0.53995 0.74605 0.34347 0.0
O542 O 0.55392 0.77674 0.05663 0.0
C543 C 0.52948 0.74181 0.18638 0.0
Co544 Co 0.21676 0.76978 0.16798 0.0
Co545 Co 0.22178 0.76797 0.29788 0.0
C546 C 0.20542 0.74039 0.22999 0.0
O547 O 0.20763 0.7484 0.18611 0.0
O548 O 0.21004 0.74629 0.27868 0.0
C549 C 0.19966 0.76065 0.06515 0.0
O550 O 0.19101 0.74824 0.09311 0.0
C551 C 0.21697 0.76357 0.42156 0.0
C552 C 0.23781 0.78327 0.45236 0.0
C553 C 0.22428 0.77135 0.47043 0.0
N554 N 0.22572 0.77081 0.37683 0.0
N555 N 0.23826 0.78237 0.39566 0.0
C556 C 0.20139 0.75051 0.41651 0.0
H557 H 0.19706 0.74968 0.37276 0.0
H558 H 0.19381 0.75157 0.44728 0.0
H559 H 0.20154 0.74005 0.42614 0.0
C560 C 0.20421 0.78823 0.20998 0.0
N561 N 0.21021 0.77943 0.21884 0.0
N562 N 0.21188 0.77838 0.2737 0.0
C563 C 0.20689 0.78645 0.30163 0.0
C564 C 0.20195 0.79301 0.26217 0.0
C565 C 0.20174 0.79275 0.15243 0.0
H566 H 0.21167 0.79584 0.12529 0.0
H567 H 0.19193 0.78306 0.13233 0.0
H568 H 0.19972 0.80234 0.15473 0.0
O569 O 0.23872 0.77912 0.17035 0.0
O570 O 0.24189 0.77745 0.26271 0.0
H571 H 0.21803 0.79346 0.38182 0.0
H572 H 0.20042 0.7933 0.37893 0.0
C573 C 0.20644 0.78747 0.36491 0.0
H574 H 0.20054 0.77604 0.38293 0.0
H575 H 0.24687 0.79004 0.36955 0.0
O576 O 0.21098 0.7713 0.08965 0.0
C577 C 0.24717 0.78136 0.2129 0.0
Co578 Co 0.21692 0.44597 0.15817 0.0
Co579 Co 0.22097 0.45389 0.28823 0.0
C580 C 0.24693 0.4596 0.21581 0.0
O581 O 0.23854 0.45479 0.17228 0.0
O582 O 0.24162 0.45968 0.26452 0.0
C583 C 0.22163 0.43436 0.05506 0.0
O584 O 0.23216 0.43396 0.08511 0.0
C585 C 0.22573 0.45061 0.40928 0.0
C586 C 0.21629 0.46345 0.44961 0.0
C587 C 0.22292 0.45493 0.46145 0.0
N588 N 0.22082 0.45619 0.36841 0.0
N589 N 0.21527 0.46392 0.39282 0.0
C590 C 0.23377 0.44214 0.39807 0.0
H591 H 0.23343 0.43953 0.35221 0.0
H592 H 0.2287 0.4316 0.42285 0.0
H593 H 0.24561 0.44903 0.41192 0.0
C594 C 0.19567 0.41591 0.20433 0.0
N595 N 0.20565 0.43059 0.21112 0.0
N596 N 0.20689 0.43398 0.26551 0.0
C597 C 0.19738 0.42162 0.29488 0.0
C598 C 0.19015 0.40975 0.25732 0.0
C599 C 0.19233 0.40795 0.1485 0.0
H600 H 0.20294 0.40974 0.1294 0.0
H601 H 0.18451 0.39574 0.15287 0.0
H602 H 0.18746 0.41282 0.11926 0.0
O603 O 0.21158 0.46191 0.16338 0.0
O604 O 0.21532 0.46783 0.25482 0.0
H605 H 0.18323 0.41164 0.36819 0.0
H606 H 0.203 0.41998 0.38085 0.0
C607 C 0.19441 0.42125 0.35723 0.0
H608 H 0.19483 0.43175 0.37064 0.0
H609 H 0.21066 0.46942 0.3707 0.0
O610 O 0.21318 0.43847 0.07879 0.0
C611 C 0.21173 0.4698 0.20528 0.0
C612 C 0.18396 0.13014 0.47432 0.0
C613 C 0.18688 0.12746 0.53012 0.0
C614 C 0.17686 0.13839 0.46423 0.0
C615 C 0.17017 0.1669 0.52676 0.0
H616 H 0.13818 0.15304 0.41557 0.0
C617 C 0.13349 0.19394 0.50188 0.0
C618 C 0.12881 0.19528 0.4472 0.0
C619 C 0.14117 0.18619 0.51043 0.0
C620 C 0.14725 0.15719 0.44605 0.0
H621 H 0.18457 0.13131 0.61912 0.0
H622 H 0.17213 0.14587 0.60127 0.0
H623 H 0.14989 0.13801 0.43535 0.0
H624 H 0.12889 0.18981 0.35832 0.0
H625 H 0.14258 0.17639 0.37325 0.0
H626 H 0.16767 0.18614 0.53717 0.0
C627 C 0.17543 0.14156 0.5655 0.0
C628 C 0.1539 0.14854 0.4576 0.0
C629 C 0.18246 0.13316 0.5757 0.0
C630 C 0.13229 0.18893 0.40098 0.0
C631 C 0.14004 0.18118 0.40959 0.0
C632 C 0.1636 0.1756 0.51497 0.0
C633 C 0.17259 0.14424 0.50962 0.0
C634 C 0.16537 0.15329 0.49822 0.0
C635 C 0.14445 0.17962 0.46454 0.0
C636 C 0.152 0.1708 0.47472 0.0
H637 H 0.18721 0.1259 0.43816 0.0
H638 H 0.17496 0.14043 0.42075 0.0
H639 H 0.17917 0.17094 0.55756 0.0
H640 H 0.13098 0.19863 0.53859 0.0
H641 H 0.14417 0.18501 0.55338 0.0
C642 C 0.86536 0.05448 0.49371 0.0
C643 C 0.86841 0.06049 0.54892 0.0
C644 C 0.85844 0.03907 0.48513 0.0
C645 C 0.83381 0.00325 0.55345 0.0
H646 H 0.84786 0.98717 0.43465 0.0
C647 C 0.8083 0.93994 0.52068 0.0
C648 C 0.80558 0.93451 0.46461 0.0
C649 C 0.81664 0.95526 0.53155 0.0
C650 C 0.84371 0.99151 0.46754 0.0
H651 H 0.86661 0.055 0.63848 0.0
H652 H 0.85437 0.02789 0.62332 0.0
H653 H 0.86142 0.01405 0.45416 0.0
H654 H 0.80964 0.94094 0.37595 0.0
H655 H 0.82409 0.96786 0.39502 0.0
H656 H 0.81596 0.98082 0.56627 0.0
C657 C 0.85736 0.03521 0.58681 0.0
C658 C 0.8515 0.00687 0.47885 0.0
C659 C 0.8644 0.05071 0.59546 0.0
C660 C 0.81157 0.94477 0.41958 0.0
C661 C 0.8199 0.96017 0.43053 0.0
C662 C 0.82599 0.98791 0.542 0.0
C663 C 0.85434 0.02927 0.53151 0.0
C664 C 0.84658 0.0129 0.52171 0.0
C665 C 0.82242 0.96557 0.48668 0.0
C666 C 0.83082 0.98187 0.4988 0.0
H667 H 0.86832 0.06167 0.4568 0.0
H668 H 0.85607 0.0348 0.44209 0.0
H669 H 0.82964 0.00762 0.58611 0.0
H670 H 0.80399 0.93236 0.55649 0.0
H671 H 0.81863 0.95902 0.57526 0.0
C672 C 0.94034 0.80735 0.58871 0.0
C673 C 0.9307 0.80226 0.54158 0.0
C674 C 0.9559 0.8148 0.58105 0.0
C675 C 0.98473 0.82036 0.47459 0.0
H676 H 0.01069 0.85504 0.56638 0.0
C677 C 0.04733 0.86023 0.42267 0.0
C678 C 0.05732 0.86458 0.46874 0.0
C679 C 0.03185 0.85231 0.43191 0.0
C680 C 0.00357 0.84529 0.54075 0.0
H681 H 0.92984 0.80127 0.44942 0.0
H682 H 0.95676 0.81443 0.43629 0.0
H683 H 0.9837 0.84178 0.58311 0.0
H684 H 0.05883 0.86387 0.56062 0.0
H685 H 0.03192 0.85013 0.57636 0.0
H686 H 0.00462 0.82403 0.43175 0.0
C687 C 0.95239 0.81238 0.47916 0.0
C688 C 0.98813 0.83767 0.55046 0.0
C689 C 0.93692 0.80491 0.48677 0.0
C690 C 0.05148 0.86075 0.52408 0.0
C691 C 0.03605 0.85295 0.53326 0.0
C692 C 0.00015 0.82804 0.46468 0.0
C693 C 0.96207 0.81733 0.52613 0.0
C694 C 0.97853 0.82515 0.51732 0.0
C695 C 0.02608 0.8487 0.48736 0.0
C696 C 0.00972 0.84059 0.4976 0.0
H697 H 0.93589 0.80543 0.63146 0.0
H698 H 0.96307 0.81836 0.61813 0.0
H699 H 0.97767 0.81059 0.44898 0.0
H700 H 0.05146 0.86299 0.37956 0.0
H701 H 0.02438 0.84924 0.39577 0.0
C702 C 0.80164 0.85771 0.4244 0.0
C703 C 0.80242 0.8678 0.46601 0.0
C704 C 0.80953 0.85007 0.43116 0.0
C705 C 0.83035 0.84121 0.54024 0.0
H706 H 0.84299 0.82834 0.40717 0.0
C707 C 0.85486 0.80233 0.56221 0.0
C708 C 0.86539 0.80325 0.5224 0.0
C709 C 0.84736 0.81029 0.55406 0.0
C710 C 0.83982 0.83206 0.44497 0.0
H711 H 0.81229 0.87826 0.54634 0.0
H712 H 0.82693 0.86582 0.55661 0.0
H713 H 0.83061 0.84283 0.39567 0.0
H714 H 0.8766 0.81325 0.44333 0.0
H715 H 0.86431 0.82806 0.43067 0.0
H716 H 0.84061 0.83153 0.58963 0.0
C717 C 0.81968 0.8631 0.52 0.0
C718 C 0.83236 0.84014 0.43832 0.0
C719 C 0.81138 0.87035 0.51407 0.0
C720 C 0.86841 0.81232 0.47435 0.0
C721 C 0.86125 0.8207 0.46704 0.0
C722 C 0.83821 0.83355 0.5469 0.0
C723 C 0.81879 0.85274 0.47885 0.0
C724 C 0.82731 0.84466 0.48586 0.0
C725 C 0.85059 0.81979 0.50682 0.0
C726 C 0.84285 0.82862 0.4994 0.0
H727 H 0.79468 0.85551 0.38711 0.0
H728 H 0.80816 0.84194 0.39918 0.0
H729 H 0.82649 0.84421 0.57808 0.0
H730 H 0.85222 0.79523 0.59928 0.0
H731 H 0.83892 0.80882 0.58478 0.0
C732 C 0.17466 0.05434 0.47757 0.0
C733 C 0.1837 0.06039 0.52575 0.0
C734 C 0.16578 0.03882 0.47127 0.0
C735 C 0.15178 0.0029 0.55225 0.0
H736 H 0.14345 0.98599 0.40087 0.0
C737 C 0.11634 0.93909 0.51914 0.0
C738 C 0.11968 0.93288 0.47236 0.0
C739 C 0.1229 0.95462 0.5244 0.0
C740 C 0.14585 0.99044 0.44359 0.0
H741 H 0.19096 0.05523 0.60445 0.0
H742 H 0.17646 0.02825 0.59181 0.0
H743 H 0.15795 0.01283 0.4126 0.0
H744 H 0.13258 0.9378 0.39485 0.0
H745 H 0.1449 0.96482 0.4058 0.0
H746 H 0.14086 0.9805 0.58336 0.0
C747 C 0.17546 0.03527 0.56004 0.0
C748 C 0.15394 0.00597 0.45036 0.0
C749 C 0.18393 0.05076 0.56715 0.0
C750 C 0.12973 0.94238 0.43105 0.0
C751 C 0.13668 0.9579 0.4372 0.0
C752 C 0.14411 0.98736 0.54552 0.0
C753 C 0.16615 0.02904 0.51221 0.0
C754 C 0.15709 0.01245 0.50482 0.0
C755 C 0.13335 0.96428 0.48393 0.0
C756 C 0.14106 0.98088 0.49107 0.0
H757 H 0.17422 0.06161 0.44539 0.0
H758 H 0.15855 0.03457 0.43452 0.0
H759 H 0.15357 0.00734 0.59495 0.0
H760 H 0.10848 0.93192 0.55121 0.0
H761 H 0.11969 0.95898 0.5602 0.0
C762 C 0.94293 0.12936 0.57746 0.0
C763 C 0.93309 0.12563 0.53114 0.0
C764 C 0.95836 0.13647 0.56888 0.0
C765 C 0.98701 0.14275 0.46363 0.0
H766 H 0.01267 0.17705 0.5578 0.0
C767 C 0.05008 0.18142 0.4189 0.0
C768 C 0.05981 0.18735 0.46562 0.0
C769 C 0.03461 0.17308 0.42697 0.0
C770 C 0.00569 0.16735 0.53176 0.0
H771 H 0.93175 0.12632 0.43936 0.0
H772 H 0.95885 0.13877 0.42444 0.0
H773 H 0.98561 0.16422 0.57108 0.0
H774 H 0.06096 0.18864 0.55756 0.0
H775 H 0.03396 0.17379 0.57167 0.0
H776 H 0.0071 0.14579 0.42458 0.0
C777 C 0.95452 0.1361 0.46734 0.0
C778 C 0.9902 0.16005 0.53922 0.0
C779 C 0.93903 0.12907 0.47593 0.0
C780 C 0.05376 0.18434 0.52066 0.0
C781 C 0.03828 0.17591 0.52873 0.0
C782 C 0.00254 0.15 0.45638 0.0
C783 C 0.96431 0.13993 0.5138 0.0
C784 C 0.98072 0.14769 0.50524 0.0
C785 C 0.02852 0.1704 0.48194 0.0
C786 C 0.01205 0.16239 0.49036 0.0
H787 H 0.93874 0.12686 0.62057 0.0
H788 H 0.96566 0.13915 0.6054 0.0
H789 H 0.97994 0.13313 0.43732 0.0
H790 H 0.05438 0.18356 0.37589 0.0
H791 H 0.0274 0.16914 0.39001 0.0
C792 C 0.85874 0.47188 0.90189 0.0
C793 C 0.86453 0.46778 0.85557 0.0
C794 C 0.85188 0.48049 0.89348 0.0
C795 C 0.83174 0.48858 0.78456 0.0
H796 H 0.83795 0.52121 0.88386 0.0
C797 C 0.80227 0.5228 0.74544 0.0
C798 C 0.79657 0.52632 0.79356 0.0
C799 C 0.81177 0.51686 0.75145 0.0
C800 C 0.83599 0.51203 0.85605 0.0
H801 H 0.86819 0.47005 0.76438 0.0
H802 H 0.85623 0.485 0.75003 0.0
H803 H 0.85252 0.50873 0.89837 0.0
H804 H 0.79643 0.5264 0.88576 0.0
H805 H 0.81263 0.51574 0.89606 0.0
H806 H 0.81496 0.49153 0.74314 0.0
C807 C 0.85684 0.48141 0.79265 0.0
C808 C 0.84436 0.50492 0.86434 0.0
C809 C 0.86375 0.47289 0.80102 0.0
C810 C 0.80065 0.52387 0.84772 0.0
C811 C 0.81005 0.51785 0.85369 0.0
C812 C 0.82331 0.4956 0.77651 0.0
C813 C 0.85064 0.4851 0.83862 0.0
C814 C 0.84225 0.49308 0.82884 0.0
C815 C 0.8157 0.51424 0.80567 0.0
C816 C 0.82525 0.50734 0.81241 0.0
H817 H 0.85918 0.46816 0.94444 0.0
H818 H 0.8471 0.48311 0.92964 0.0
H819 H 0.82973 0.47932 0.75705 0.0
H820 H 0.79944 0.52466 0.70313 0.0
H821 H 0.81609 0.51438 0.71358 0.0
C822 C 0.47379 0.27517 0.72045 0.0
C823 C 0.46942 0.26603 0.76899 0.0
C824 C 0.48161 0.2908 0.72594 0.0
C825 C 0.50532 0.32076 0.82625 0.0
H826 H 0.4923 0.34485 0.74434 0.0
C827 C 0.5261 0.38214 0.88616 0.0
C828 C 0.52981 0.39241 0.84144 0.0
C829 C 0.51878 0.36676 0.87518 0.0
C830 C 0.49619 0.3383 0.767 0.0
H831 H 0.46993 0.26613 0.86125 0.0
H832 H 0.48344 0.29316 0.87047 0.0
H833 H 0.47999 0.3179 0.72664 0.0
H834 H 0.52853 0.39454 0.75012 0.0
H835 H 0.51599 0.36779 0.73115 0.0
H836 H 0.52148 0.34106 0.86668 0.0
C837 C 0.48094 0.28832 0.82828 0.0
C838 C 0.48916 0.32289 0.75676 0.0
C839 C 0.47308 0.2728 0.82289 0.0
C840 C 0.52583 0.38695 0.78566 0.0
C841 C 0.51856 0.3716 0.77472 0.0
C842 C 0.51237 0.33614 0.83632 0.0
C843 C 0.48531 0.29749 0.77999 0.0
C844 C 0.49353 0.31396 0.78689 0.0
C845 C 0.51506 0.36134 0.81927 0.0
C846 C 0.50776 0.34505 0.80735 0.0
H847 H 0.47112 0.27028 0.67838 0.0
H848 H 0.48491 0.29766 0.68803 0.0
H849 H 0.50906 0.31416 0.84944 0.0
H850 H 0.52893 0.38597 0.92961 0.0
H851 H 0.516 0.35911 0.91053 0.0
C852 C 0.72095 0.19587 0.86676 0.0
C853 C 0.72632 0.19917 0.81066 0.0
C854 C 0.70563 0.18736 0.87762 0.0
C855 C 0.66983 0.15994 0.81391 0.0
H856 H 0.65251 0.17402 0.92768 0.0
C857 C 0.60656 0.1366 0.83079 0.0
C858 C 0.6 0.13452 0.8848 0.0
C859 C 0.62206 0.1437 0.82476 0.0
C860 C 0.65721 0.1698 0.8965 0.0
H861 H 0.71977 0.19593 0.72198 0.0
H862 H 0.6929 0.18098 0.74115 0.0
H863 H 0.67947 0.18802 0.91032 0.0
H864 H 0.60461 0.13818 0.975 0.0
H865 H 0.63187 0.15055 0.96439 0.0
H866 H 0.64762 0.14173 0.79999 0.0
C867 C 0.70064 0.18498 0.77657 0.0
C868 C 0.67263 0.17784 0.88641 0.0
C869 C 0.716 0.1936 0.76563 0.0
C870 C 0.60933 0.13966 0.93281 0.0
C871 C 0.62492 0.14678 0.92672 0.0
C872 C 0.65444 0.15185 0.82421 0.0
C873 C 0.69532 0.18187 0.83271 0.0
C874 C 0.67905 0.17308 0.84457 0.0
C875 C 0.63143 0.14888 0.87254 0.0
C876 C 0.64793 0.1568 0.86506 0.0
H877 H 0.72857 0.19994 0.90254 0.0
H878 H 0.70184 0.18498 0.92126 0.0
H879 H 0.67454 0.15588 0.78212 0.0
H880 H 0.59975 0.13289 0.79276 0.0
H881 H 0.6267 0.14541 0.78236 0.0
C882 C 0.47301 0.19284 0.75627 0.0
C883 C 0.4733 0.20325 0.79528 0.0
C884 C 0.48199 0.18643 0.76461 0.0
C885 C 0.50494 0.18127 0.87532 0.0
H886 H 0.51724 0.167 0.74533 0.0
C887 C 0.52843 0.14164 0.90315 0.0
C888 C 0.53829 0.1415 0.86244 0.0
C889 C 0.52175 0.15037 0.89496 0.0
C890 C 0.51421 0.17115 0.78227 0.0
H891 H 0.4834 0.21555 0.87256 0.0
H892 H 0.49987 0.20516 0.88546 0.0
H893 H 0.50423 0.18075 0.73061 0.0
H894 H 0.54938 0.15069 0.78235 0.0
H895 H 0.53852 0.16676 0.76951 0.0
H896 H 0.51587 0.17264 0.92685 0.0
C897 C 0.49225 0.20133 0.84974 0.0
C898 C 0.50639 0.1788 0.7738 0.0
C899 C 0.4829 0.20739 0.84228 0.0
C900 C 0.54167 0.15052 0.81403 0.0
C901 C 0.53534 0.15964 0.8066 0.0
C902 C 0.51317 0.17404 0.88373 0.0
C903 C 0.49183 0.19065 0.81125 0.0
C904 C 0.5013 0.18364 0.82022 0.0
C905 C 0.52512 0.15955 0.84664 0.0
C906 C 0.51759 0.16852 0.83741 0.0
H907 H 0.46557 0.1894 0.71992 0.0
H908 H 0.48095 0.17797 0.73481 0.0
H909 H 0.50115 0.18465 0.91238 0.0
H910 H 0.52554 0.13464 0.94061 0.0
H911 H 0.51367 0.1496 0.9261 0.0
C912 C 0.78822 0.27739 0.75769 0.0
C913 C 0.78625 0.26897 0.80714 0.0
C914 C 0.79429 0.29288 0.76079 0.0
C915 C 0.80169 0.32384 0.8576 0.0
H916 H 0.83443 0.34767 0.75439 0.0
C917 C 0.84329 0.38661 0.89313 0.0
C918 C 0.84927 0.39597 0.84551 0.0
C919 C 0.83383 0.3712 0.88639 0.0
C920 C 0.82512 0.34122 0.78281 0.0
H921 H 0.78874 0.27016 0.89877 0.0
H922 H 0.79939 0.29727 0.90403 0.0
H923 H 0.82107 0.32049 0.74657 0.0
H924 H 0.84941 0.3966 0.75345 0.0
H925 H 0.83264 0.36975 0.74171 0.0
H926 H 0.80579 0.34458 0.89408 0.0
C927 C 0.79615 0.29183 0.86298 0.0
C928 C 0.8175 0.32564 0.7784 0.0
C929 C 0.79015 0.27633 0.85989 0.0
C930 C 0.84512 0.38968 0.79101 0.0
C931 C 0.83556 0.37428 0.78428 0.0
C932 C 0.80925 0.33945 0.86177 0.0
C933 C 0.79845 0.30026 0.81337 0.0
C934 C 0.80583 0.31679 0.81616 0.0
C935 C 0.83005 0.36483 0.83188 0.0
C936 C 0.82118 0.34831 0.82486 0.0
H937 H 0.78529 0.27207 0.71636 0.0
H938 H 0.79581 0.2991 0.72195 0.0
H939 H 0.79261 0.31726 0.8868 0.0
H940 H 0.84629 0.3911 0.93574 0.0
H941 H 0.82995 0.36424 0.92397 0.0
C942 C 0.60497 0.45809 0.79086 0.0
C943 C 0.5978 0.45413 0.84396 0.0
C944 C 0.62049 0.46425 0.78696 0.0
C945 C 0.65476 0.48541 0.87017 0.0
H946 H 0.67289 0.47273 0.75461 0.0
C947 C 0.71853 0.51011 0.86022 0.0
C948 C 0.72508 0.5141 0.8061 0.0
C949 C 0.703 0.5013 0.86605 0.0
C950 C 0.66799 0.47647 0.78683 0.0
H951 H 0.6013 0.45339 0.93455 0.0
H952 H 0.62834 0.46417 0.92755 0.0
H953 H 0.6456 0.46037 0.7617 0.0
H954 H 0.7205 0.51162 0.71559 0.0
H955 H 0.69344 0.49656 0.72583 0.0
H956 H 0.67702 0.50174 0.89453 0.0
C957 C 0.62196 0.46257 0.88906 0.0
C958 C 0.65239 0.46939 0.79087 0.0
C959 C 0.60646 0.45634 0.89296 0.0
C960 C 0.71582 0.50872 0.75794 0.0
C961 C 0.70029 0.50001 0.76379 0.0
C962 C 0.67033 0.49255 0.86592 0.0
C963 C 0.62913 0.46666 0.8361 0.0
C964 C 0.64564 0.47384 0.83245 0.0
C965 C 0.69369 0.49639 0.81791 0.0
C966 C 0.67714 0.48821 0.82405 0.0
H967 H 0.59862 0.45651 0.75231 0.0
H968 H 0.62577 0.46744 0.74564 0.0
H969 H 0.64985 0.48921 0.90211 0.0
H970 H 0.72536 0.51396 0.89818 0.0
H971 H 0.69828 0.49847 0.90835 0.0
C972 C 0.45433 0.84476 0.16238 0.0
C973 C 0.45159 0.84887 0.10875 0.0
C974 C 0.4607 0.83567 0.16715 0.0
C975 C 0.48514 0.8255 0.09206 0.0
H976 H 0.47186 0.79446 0.2069 0.0
C977 C 0.51368 0.79026 0.12239 0.0
C978 C 0.51646 0.78771 0.17855 0.0
C979 C 0.50456 0.79637 0.11121 0.0
C980 C 0.47576 0.80317 0.17497 0.0
H981 H 0.45314 0.84642 0.01795 0.0
H982 H 0.46444 0.8305 0.02642 0.0
H983 H 0.45759 0.80717 0.19043 0.0
H984 H 0.51173 0.78948 0.26704 0.0
H985 H 0.49598 0.80045 0.24749 0.0
H986 H 0.50352 0.82182 0.07752 0.0
C987 C 0.46164 0.83441 0.06467 0.0
C988 C 0.46756 0.81039 0.16538 0.0
C989 C 0.45514 0.84346 0.05984 0.0
C990 C 0.5098 0.79129 0.22333 0.0
C991 C 0.5007 0.79748 0.21209 0.0
C992 C 0.49336 0.81832 0.10175 0.0
C993 C 0.46455 0.83052 0.11844 0.0
C994 C 0.4723 0.82177 0.12441 0.0
C995 C 0.49805 0.80015 0.15589 0.0
C996 C 0.48887 0.80721 0.14382 0.0
H997 H 0.45167 0.84866 0.20098 0.0
H998 H 0.463 0.83303 0.20912 0.0
H999 H 0.48916 0.83438 0.06078 0.0
H1000 H 0.51853 0.78753 0.08677 0.0
H1001 H 0.50255 0.79807 0.06746 0.0
C1002 C 0.19491 0.71775 0.16826 0.0
C1003 C 0.19716 0.72394 0.22305 0.0
C1004 C 0.18662 0.70232 0.16025 0.0
C1005 C 0.15708 0.66795 0.22363 0.0
H1006 H 0.17103 0.64873 0.11777 0.0
C1007 C 0.1278 0.60382 0.19377 0.0
C1008 C 0.12736 0.59825 0.13885 0.0
C1009 C 0.1357 0.61919 0.20438 0.0
C1010 C 0.16687 0.65396 0.1468 0.0
H1011 H 0.19257 0.71875 0.31254 0.0
H1012 H 0.1779 0.69154 0.2983 0.0
H1013 H 0.18674 0.67534 0.13826 0.0
H1014 H 0.13427 0.60452 0.05143 0.0
H1015 H 0.14786 0.63143 0.06984 0.0
H1016 H 0.13711 0.64659 0.23169 0.0
C1017 C 0.1826 0.69877 0.26171 0.0
C1018 C 0.17591 0.66918 0.1588 0.0
C1019 C 0.19105 0.7143 0.26986 0.0
C1020 C 0.13446 0.60844 0.09427 0.0
C1021 C 0.14234 0.62384 0.1049 0.0
C1022 C 0.14798 0.65272 0.21144 0.0
C1023 C 0.1803 0.69267 0.20674 0.0
C1024 C 0.17107 0.67634 0.19705 0.0
C1025 C 0.1433 0.62936 0.1603 0.0
C1026 C 0.15276 0.64558 0.17265 0.0
H1027 H 0.19949 0.72484 0.13123 0.0
H1028 H 0.18488 0.69795 0.11738 0.0
H1029 H 0.153 0.67325 0.25271 0.0
H1030 H 0.12242 0.5963 0.22916 0.0
H1031 H 0.13631 0.62306 0.24758 0.0
C1032 C 0.3796 0.52491 0.08826 0.0
C1033 C 0.38964 0.52994 0.13427 0.0
C1034 C 0.36415 0.51654 0.09771 0.0
C1035 C 0.33562 0.50914 0.20553 0.0
H1036 H 0.31079 0.47314 0.11811 0.0
C1037 C 0.27296 0.47104 0.25553 0.0
C1038 C 0.26324 0.46587 0.20861 0.0
C1039 C 0.28845 0.47789 0.24777 0.0
C1040 C 0.31755 0.48324 0.14254 0.0
H1041 H 0.39128 0.53013 0.22627 0.0
H1042 H 0.36441 0.51563 0.24242 0.0
H1043 H 0.33774 0.4875 0.10041 0.0
H1044 H 0.26217 0.46349 0.11682 0.0
H1045 H 0.28909 0.47564 0.10338 0.0
H1046 H 0.31549 0.50512 0.24695 0.0
C1047 C 0.36848 0.51821 0.19917 0.0
C1048 C 0.33296 0.49144 0.13234 0.0
C1049 C 0.38389 0.52646 0.18979 0.0
C1050 C 0.26932 0.46733 0.15398 0.0
C1051 C 0.28478 0.47422 0.14623 0.0
C1052 C 0.32021 0.501 0.21548 0.0
C1053 C 0.35846 0.51316 0.15328 0.0
C1054 C 0.34212 0.50448 0.1637 0.0
C1055 C 0.29454 0.47975 0.19293 0.0
C1056 C 0.31099 0.48798 0.18402 0.0
H1057 H 0.38367 0.52738 0.045 0.0
H1058 H 0.35663 0.51287 0.06159 0.0
H1059 H 0.34241 0.51925 0.22985 0.0
H1060 H 0.26862 0.46998 0.29821 0.0
H1061 H 0.29567 0.48181 0.2847 0.0
C1062 C 0.14685 0.54122 0.19964 0.0
C1063 C 0.14183 0.54209 0.14515 0.0
C1064 C 0.15693 0.53606 0.20692 0.0
C1065 C 0.18291 0.52699 0.1295 0.0
H1066 H 0.17366 0.49909 0.25387 0.0
C1067 C 0.20253 0.48337 0.14365 0.0
C1068 C 0.20697 0.48103 0.1973 0.0
C1069 C 0.19684 0.49308 0.13756 0.0
C1070 C 0.17653 0.50703 0.21945 0.0
H1071 H 0.14373 0.53862 0.05536 0.0
H1072 H 0.16093 0.52915 0.0682 0.0
H1073 H 0.1595 0.51197 0.24322 0.0
H1074 H 0.20963 0.48764 0.28606 0.0
H1075 H 0.19967 0.50447 0.27521 0.0
H1076 H 0.1996 0.52147 0.10475 0.0
C1077 C 0.15737 0.53277 0.10526 0.0
C1078 C 0.16845 0.51446 0.2134 0.0
C1079 C 0.14742 0.5381 0.09793 0.0
C1080 C 0.20618 0.48906 0.24419 0.0
C1081 C 0.20045 0.49869 0.2381 0.0
C1082 C 0.19092 0.51943 0.13532 0.0
C1083 C 0.16206 0.53147 0.15992 0.0
C1084 C 0.17145 0.52444 0.16814 0.0
C1085 C 0.19545 0.50055 0.18501 0.0
C1086 C 0.18772 0.50931 0.18016 0.0
H1087 H 0.1429 0.54441 0.23679 0.0
H1088 H 0.16057 0.53549 0.2495 0.0
H1089 H 0.18563 0.53477 0.09462 0.0
H1090 H 0.20306 0.47741 0.10664 0.0
H1091 H 0.19297 0.49425 0.09619 0.0
C1092 C 0.5181 0.71853 0.12694 0.0
C1093 C 0.52113 0.72532 0.18073 0.0
C1094 C 0.50984 0.70295 0.12177 0.0
C1095 C 0.4832 0.66884 0.20048 0.0
H1096 H 0.49422 0.64873 0.08728 0.0
C1097 C 0.45806 0.60459 0.19215 0.0
C1098 C 0.45395 0.59785 0.13829 0.0
C1099 C 0.46586 0.62018 0.1975 0.0
C1100 C 0.49094 0.65422 0.11871 0.0
H1101 H 0.51811 0.72107 0.27137 0.0
H1102 H 0.50399 0.69392 0.26234 0.0
H1103 H 0.50898 0.67592 0.0965 0.0
H1104 H 0.45462 0.60222 0.04785 0.0
H1105 H 0.46824 0.62941 0.05739 0.0
H1106 H 0.46528 0.64705 0.22314 0.0
C1107 C 0.5077 0.70063 0.22408 0.0
C1108 C 0.49937 0.66978 0.12395 0.0
C1109 C 0.51588 0.7162 0.22925 0.0
C1110 C 0.45762 0.60703 0.08999 0.0
C1111 C 0.4655 0.6226 0.09535 0.0
C1112 C 0.47484 0.65326 0.19548 0.0
C1113 C 0.50451 0.69382 0.17029 0.0
C1114 C 0.49558 0.67727 0.16484 0.0
C1115 C 0.46979 0.62932 0.14909 0.0
C1116 C 0.47861 0.64582 0.15446 0.0
H1117 H 0.52193 0.72524 0.08871 0.0
H1118 H 0.5074 0.69807 0.07967 0.0
H1119 H 0.47983 0.67428 0.23177 0.0
H1120 H 0.4554 0.59783 0.23019 0.0
H1121 H 0.46912 0.62508 0.23942 0.0
C1122 C 0.38479 0.84668 0.1871 0.0
C1123 C 0.3907 0.85594 0.13944 0.0
C1124 C 0.36931 0.83854 0.1958 0.0
C1125 C 0.33313 0.82611 0.1194 0.0
H1126 H 0.31701 0.81554 0.27157 0.0
C1127 C 0.2699 0.78712 0.15627 0.0
C1128 C 0.26351 0.78934 0.20516 0.0
C1129 C 0.28545 0.79485 0.14922 0.0
C1130 C 0.32124 0.81857 0.22871 0.0
H1131 H 0.38537 0.86461 0.06486 0.0
H1132 H 0.35849 0.85136 0.08195 0.0
H1133 H 0.34379 0.83079 0.2584 0.0
H1134 H 0.26811 0.80153 0.2844 0.0
H1135 H 0.29507 0.81576 0.27067 0.0
H1136 H 0.31056 0.81492 0.0899 0.0
C1137 C 0.36557 0.84963 0.11124 0.0
C1138 C 0.33672 0.82711 0.22106 0.0
C1139 C 0.381 0.85738 0.10164 0.0
C1140 C 0.27283 0.7995 0.24661 0.0
C1141 C 0.28832 0.80757 0.23882 0.0
C1142 C 0.31764 0.81795 0.12713 0.0
C1143 C 0.35946 0.83986 0.15787 0.0
C1144 C 0.34291 0.83095 0.16626 0.0
C1145 C 0.29489 0.80532 0.19014 0.0
C1146 C 0.31145 0.81399 0.18189 0.0
H1147 H 0.3921 0.84531 0.2165 0.0
H1148 H 0.36512 0.83095 0.23157 0.0
H1149 H 0.33737 0.8285 0.0764 0.0
H1150 H 0.26289 0.77923 0.12396 0.0
H1151 H 0.29001 0.79249 0.11182 0.0
C1152 C 0.11285 0.27542 0.36066 0.0
C1153 C 0.12161 0.27155 0.39449 0.0
C1154 C 0.11783 0.29043 0.34809 0.0
C1155 C 0.14405 0.32892 0.39551 0.0
H1156 H 0.14525 0.33958 0.23696 0.0
C1157 C 0.18511 0.3874 0.31355 0.0
C1158 C 0.18033 0.39388 0.27239 0.0
C1159 C 0.17587 0.37256 0.32985 0.0
C1160 C 0.14473 0.33678 0.2815 0.0
H1161 H 0.14212 0.2801 0.44295 0.0
H1162 H 0.15081 0.30637 0.4216 0.0
H1163 H 0.13245 0.3132 0.26451 0.0
H1164 H 0.16223 0.3902 0.21593 0.0
H1165 H 0.14591 0.36396 0.24422 0.0
H1166 H 0.1566 0.35243 0.4125 0.0
C1167 C 0.14009 0.29786 0.4049 0.0
C1168 C 0.13742 0.32169 0.29725 0.0
C1169 C 0.13517 0.28287 0.417 0.0
C1170 C 0.16616 0.3853 0.24738 0.0
C1171 C 0.15686 0.37037 0.26364 0.0
C1172 C 0.1513 0.34397 0.37983 0.0
C1173 C 0.13154 0.30178 0.36986 0.0
C1174 C 0.1374 0.31764 0.3542 0.0
C1175 C 0.16162 0.3639 0.30532 0.0
C1176 C 0.1521 0.34804 0.32249 0.0
H1177 H 0.10222 0.26681 0.34364 0.0
H1178 H 0.11098 0.29317 0.32139 0.0
H1179 H 0.14394 0.32609 0.43984 0.0
H1180 H 0.19608 0.39379 0.33289 0.0
H1181 H 0.18 0.3678 0.3611 0.0
C1182 C 0.61065 0.81317 0.22423 0.0
C1183 C 0.60066 0.79917 0.24783 0.0
C1184 C 0.62573 0.8207 0.24036 0.0
C1185 C 0.65023 0.82276 0.35767 0.0
H1186 H 0.68221 0.84382 0.24848 0.0
C1187 C 0.71278 0.84811 0.41544 0.0
C1188 C 0.72278 0.86211 0.39192 0.0
C1189 C 0.69779 0.84044 0.39823 0.0
C1190 C 0.67339 0.83813 0.27957 0.0
H1191 H 0.59848 0.78166 0.30439 0.0
H1192 H 0.62484 0.79474 0.33261 0.0
H1193 H 0.65624 0.83021 0.21604 0.0
H1194 H 0.72516 0.87929 0.33312 0.0
H1195 H 0.69893 0.86601 0.30336 0.0
H1196 H 0.66734 0.83072 0.42124 0.0
C1197 C 0.62103 0.80007 0.30259 0.0
C1198 C 0.65853 0.83033 0.26096 0.0
C1199 C 0.606 0.79257 0.28638 0.0
C1200 C 0.7176 0.86844 0.35156 0.0
C1201 C 0.70264 0.86081 0.33437 0.0
C1202 C 0.66508 0.83058 0.37629 0.0
C1203 C 0.63102 0.8143 0.28033 0.0
C1204 C 0.6468 0.82255 0.29982 0.0
C1205 C 0.69259 0.84666 0.35715 0.0
C1206 C 0.67681 0.83836 0.33745 0.0
H1207 H 0.60671 0.81846 0.19456 0.0
H1208 H 0.63314 0.83169 0.22281 0.0
H1209 H 0.6414 0.81707 0.38875 0.0
H1210 H 0.71664 0.84295 0.44601 0.0
H1211 H 0.69036 0.82947 0.41603 0.0
C1212 C 0.1823 0.80022 0.25088 0.0
C1213 C 0.1961 0.8032 0.27362 0.0
C1214 C 0.17624 0.80922 0.26548 0.0
C1215 C 0.17637 0.83278 0.38067 0.0
H1216 H 0.15814 0.8468 0.27082 0.0
C1217 C 0.13512 0.85333 0.43875 0.0
C1218 C 0.13714 0.86622 0.41082 0.0
C1219 C 0.14371 0.84685 0.42344 0.0
C1220 C 0.1633 0.84305 0.30187 0.0
H1221 H 0.21483 0.81824 0.32662 0.0
H1222 H 0.20409 0.83387 0.35313 0.0
H1223 H 0.17068 0.83333 0.23825 0.0
H1224 H 0.15013 0.88296 0.34741 0.0
H1225 H 0.16499 0.87147 0.3198 0.0
H1226 H 0.16876 0.84228 0.44437 0.0
C1227 C 0.19791 0.82451 0.32455 0.0
C1228 C 0.17035 0.83526 0.28329 0.0
C1229 C 0.20402 0.8156 0.30946 0.0
C1230 C 0.14822 0.87286 0.36882 0.0
C1231 C 0.1567 0.86631 0.35309 0.0
C1232 C 0.16916 0.84042 0.39931 0.0
C1233 C 0.18387 0.82127 0.30332 0.0
C1234 C 0.1769 0.83002 0.32255 0.0
C1235 C 0.15436 0.85313 0.37969 0.0
C1236 C 0.16252 0.84557 0.36008 0.0
H1237 H 0.17601 0.79066 0.22327 0.0
H1238 H 0.16535 0.80645 0.24882 0.0
H1239 H 0.18122 0.82873 0.41182 0.0
H1240 H 0.12655 0.84798 0.47099 0.0
H1241 H 0.14164 0.83663 0.44431 0.0
C1242 C 0.37971 0.19325 0.75251 0.0
C1243 C 0.38907 0.18814 0.73132 0.0
C1244 C 0.36446 0.18566 0.73925 0.0
C1245 C 0.33367 0.14977 0.68322 0.0
H1246 H 0.31634 0.1743 0.64195 0.0
C1247 C 0.27551 0.12556 0.57703 0.0
C1248 C 0.26616 0.13054 0.59938 0.0
C1249 C 0.29055 0.13242 0.59346 0.0
C1250 C 0.32099 0.16731 0.65381 0.0
H1251 H 0.38996 0.17087 0.68209 0.0
H1252 H 0.36334 0.15773 0.6576 0.0
H1253 H 0.34239 0.18629 0.67263 0.0
H1254 H 0.26492 0.14648 0.65573 0.0
H1255 H 0.2912 0.15852 0.68458 0.0
H1256 H 0.31225 0.13079 0.66362 0.0
C1257 C 0.36768 0.16749 0.68486 0.0
C1258 C 0.33589 0.17416 0.67161 0.0
C1259 C 0.38291 0.17505 0.6984 0.0
C1260 C 0.272 0.14252 0.63794 0.0
C1261 C 0.28702 0.14942 0.65414 0.0
C1262 C 0.31877 0.14292 0.66514 0.0
C1263 C 0.35833 0.17285 0.7044 0.0
C1264 C 0.34239 0.16548 0.68663 0.0
C1265 C 0.29643 0.1444 0.63227 0.0
C1266 C 0.31229 0.15163 0.65038 0.0
H1267 H 0.38427 0.20334 0.77804 0.0
H1268 H 0.3575 0.18992 0.7558 0.0
H1269 H 0.3383 0.14277 0.69514 0.0
H1270 H 0.27113 0.11622 0.54765 0.0
H1271 H 0.29759 0.12841 0.57564 0.0
C1272 C 0.80194 0.18824 0.77482 0.0
C1273 C 0.80509 0.20158 0.74753 0.0
C1274 C 0.80977 0.18092 0.76007 0.0
C1275 C 0.83091 0.17723 0.64171 0.0
H1276 H 0.84345 0.15843 0.75473 0.0
C1277 C 0.86622 0.14956 0.58649 0.0
C1278 C 0.86216 0.13595 0.61363 0.0
C1279 C 0.85963 0.15799 0.6027 0.0
C1280 C 0.83989 0.1635 0.72264 0.0
H1281 H 0.81915 0.21814 0.68536 0.0
H1282 H 0.83294 0.20539 0.6595 0.0
H1283 H 0.83167 0.17275 0.78488 0.0
H1284 H 0.84796 0.12024 0.67785 0.0
H1285 H 0.83631 0.13487 0.70604 0.0
H1286 H 0.83902 0.16788 0.57945 0.0
C1287 C 0.82427 0.20043 0.6916 0.0
C1288 C 0.83316 0.17171 0.73993 0.0
C1289 C 0.81645 0.20775 0.70645 0.0
C1290 C 0.85131 0.13078 0.65668 0.0
C1291 C 0.84473 0.13919 0.67293 0.0
C1292 C 0.83763 0.16901 0.62442 0.0
C1293 C 0.82088 0.18684 0.71774 0.0
C1294 C 0.82853 0.1786 0.69963 0.0
C1295 C 0.84889 0.15294 0.64642 0.0
C1296 C 0.8421 0.16198 0.6647 0.0
H1297 H 0.79311 0.18323 0.80626 0.0
H1298 H 0.80679 0.17038 0.78051 0.0
H1299 H 0.82725 0.18222 0.60962 0.0
H1300 H 0.87472 0.15382 0.55366 0.0
H1301 H 0.86318 0.16862 0.58191 0.0
C1302 C 0.7823 0.60538 0.70845 0.0
C1303 C 0.78934 0.60059 0.74725 0.0
C1304 C 0.78894 0.62049 0.69374 0.0
C1305 C 0.81763 0.65859 0.73799 0.0
H1306 H 0.82023 0.66732 0.57689 0.0
C1307 C 0.85889 0.71674 0.64928 0.0
C1308 C 0.85379 0.72243 0.60611 0.0
C1309 C 0.85019 0.7019 0.6668 0.0
C1310 C 0.81942 0.66508 0.62204 0.0
H1311 H 0.80847 0.60765 0.80262 0.0
H1312 H 0.82014 0.63414 0.77724 0.0
H1313 H 0.80603 0.64141 0.60926 0.0
H1314 H 0.83577 0.7173 0.54708 0.0
H1315 H 0.82042 0.69119 0.57764 0.0
H1316 H 0.83113 0.68224 0.75077 0.0
C1317 C 0.80944 0.62628 0.7584 0.0
C1318 C 0.81128 0.65025 0.64059 0.0
C1319 C 0.8028 0.61115 0.77294 0.0
C1320 C 0.83996 0.71303 0.58001 0.0
C1321 C 0.83121 0.69815 0.59756 0.0
C1322 C 0.82574 0.67342 0.71946 0.0
C1323 C 0.80272 0.63105 0.71786 0.0
C1324 C 0.81045 0.64685 0.6987 0.0
C1325 C 0.83619 0.69248 0.64154 0.0
C1326 C 0.82688 0.6768 0.66125 0.0
H1327 H 0.7718 0.59739 0.68866 0.0
H1328 H 0.7834 0.62389 0.66305 0.0
H1329 H 0.817 0.65631 0.78308 0.0
H1330 H 0.8696 0.72382 0.66967 0.0
H1331 H 0.85446 0.69779 0.69999 0.0
C1332 C 0.05201 0.50191 0.03486 0.0
C1333 C 0.0549 0.5131 0.07501 0.0
C1334 C 0.03736 0.49211 0.01707 0.0
C1335 C -0.00243 0.4776 0.05235 0.0
H1336 H 0.99194 0.47516 0.88905 0.0
C1337 C 0.93892 0.44542 0.9524 0.0
C1338 C 0.93599 0.45384 0.91302 0.0
C1339 C 0.95358 0.45022 0.96978 0.0
C1340 C 0.99336 0.47568 0.93469 0.0
H1341 H 0.04492 0.5225 0.13021 0.0
H1342 H 0.01921 0.50527 0.09963 0.0
H1343 H 0.01728 0.48792 0.92827 0.0
H1344 H 0.94593 0.47337 0.85865 0.0
H1345 H 0.97167 0.48177 0.88855 0.0
H1346 H 0.97366 0.46584 0.05881 0.0
C1347 C 0.02823 0.50402 0.08193 0.0
C1348 C 0.00784 0.48286 0.95715 0.0
C1349 C 0.0429 0.51388 0.09941 0.0
C1350 C 0.94797 0.46668 0.88886 0.0
C1351 C 0.96266 0.47144 0.90595 0.0
C1352 C 0.9831 0.47033 0.0299 0.0
C1353 C 0.02537 0.49328 0.03962 0.0
C1354 C 0.01008 0.48415 0.01619 0.0
C1355 C 0.96556 0.46346 0.9476 0.0
C1356 C 0.98086 0.46958 0.97088 0.0
H1357 H 0.06113 0.50099 0.01616 0.0
H1358 H 0.03544 0.48381 0.98496 0.0
H1359 H -0.001 0.47835 0.09801 0.0
H1360 H 0.92981 0.43534 0.97089 0.0
H1361 H 0.95553 0.44375 0.00136 0.0
C1362 C 0.47937 0.53654 0.02908 0.0
C1363 C 0.46763 0.52926 0.06816 0.0
C1364 C 0.48763 0.5299 0.01163 0.0
C1365 C 0.48455 0.49295 -0.00082 0.0
H1366 H 0.52738 0.51625 0.97181 0.0
C1367 C 0.51616 0.46765 0.88534 0.0
C1368 C 0.52977 0.47068 0.91002 0.0
C1369 C 0.5091 0.47553 0.90285 0.0
C1370 C 0.51543 0.50958 0.9795 0.0
H1371 H 0.45556 0.5097 0.12145 0.0
H1372 H 0.47022 0.49811 0.09187 0.0
H1373 H 0.51431 0.52847 0.01099 0.0
H1374 H 0.5471 0.48464 0.97 0.0
H1375 H 0.5347 0.4983 0.00142 0.0
H1376 H 0.48572 0.474 0.9689 0.0
C1377 C 0.47287 0.50883 0.07387 0.0
C1378 C 0.50793 0.5166 0.00151 0.0
C1379 C 0.4646 0.51549 0.09126 0.0
C1380 C 0.53653 0.48207 0.95078 0.0
C1381 C 0.52948 0.48994 0.96838 0.0
C1382 C 0.49206 0.48593 0.97724 0.0
C1383 C 0.48432 0.51586 0.03318 0.0
C1384 C 0.49241 0.50836 0.01155 0.0
C1385 C 0.51556 0.48658 0.94529 0.0
C1386 C 0.50757 0.49417 0.96711 0.0
H1387 H 0.48195 0.54725 0.01114 0.0
H1388 H 0.49628 0.53555 0.97991 0.0
H1389 H 0.47256 0.48633 0.00573 0.0
H1390 H 0.51076 0.45886 0.85387 0.0
H1391 H 0.49849 0.47286 0.88365 0.0
C1392 C 0.50793 0.05083 0.96171 0.0
C1393 C 0.52072 0.05665 0.92716 0.0
C1394 C 0.50029 0.03566 0.97607 0.0
C1395 C 0.49442 -0.00121 0.93428 0.0
H1396 H 0.48609 0.98924 0.09414 0.0
C1397 C 0.47601 0.93991 0.01917 0.0
C1398 C 0.46471 0.9341 0.06044 0.0
C1399 C 0.48275 0.95495 0.00355 0.0
C1400 C 0.48815 0.99169 0.04927 0.0
H1401 H 0.53529 0.05134 0.8786 0.0
H1402 H 0.52178 0.02469 0.90291 0.0
H1403 H 0.49724 0.01521 0.06291 0.0
H1404 H 0.45154 0.93918 0.11827 0.0
H1405 H 0.46317 0.96554 0.09059 0.0
H1406 H 0.48523 0.97531 0.92036 0.0
C1407 C 0.51767 0.03182 0.91901 0.0
C1408 C 0.49453 0.00655 0.03143 0.0
C1409 C 0.52539 0.04702 0.90509 0.0
C1410 C 0.4604 0.94355 0.08678 0.0
C1411 C 0.46706 0.9586 0.07092 0.0
C1412 C 0.48793 0.98392 0.95203 0.0
C1413 C 0.50522 0.02606 0.95548 0.0
C1414 C 0.49781 0.01024 0.97384 0.0
C1415 C 0.4782 0.96442 0.02862 0.0
C1416 C 0.48484 0.98021 0.00979 0.0
H1417 H 0.50405 0.05808 0.97849 0.0
H1418 H 0.49059 0.03144 0.0036 0.0
H1419 H 0.49668 0.00133 0.88954 0.0
H1420 H 0.4795 0.93275 -0.00144 0.0
H1421 H 0.4915 0.95915 0.97169 0.0
C1422 C 0.13411 0.2283 0.69778 0.0
C1423 C 0.12482 0.23174 0.66514 0.0
C1424 C 0.13363 0.22862 0.75704 0.0
C1425 C 0.10674 0.22402 0.86795 0.0
H1426 H 0.13987 0.23485 0.97154 0.0
C1427 C 0.09826 0.22308 0.1068 0.0
C1428 C 0.10407 0.21584 0.13987 0.0
C1429 C 0.10254 0.22665 0.0504 0.0
C1430 C 0.13054 0.23171 0.94293 0.0
H1431 H 0.10884 0.23957 0.66837 0.0
H1432 H 0.10829 0.24054 0.77151 0.0
H1433 H 0.14472 0.23918 0.86942 0.0
H1434 H 0.11898 0.20669 0.13982 0.0
H1435 H 0.12654 0.213 0.04048 0.0
H1436 H 0.09253 0.21645 0.94073 0.0
C1437 C 0.11556 0.23709 0.75158 0.0
C1438 C 0.1333 0.2342 0.88463 0.0
C1439 C 0.11592 0.23661 0.69254 0.0
C1440 C 0.11453 0.21252 0.11569 0.0
C1441 C 0.11883 0.2161 0.05886 0.0
C1442 C 0.10401 0.22159 0.92586 0.0
C1443 C 0.12394 0.23251 0.7845 0.0
C1444 C 0.12141 0.23044 0.8466 0.0
C1445 C 0.11264 0.22296 0.0255 0.0
C1446 C 0.11585 0.22547 0.96401 0.0
H1447 H 0.1411 0.22452 0.67772 0.0
H1448 H 0.14019 0.225 0.78117 0.0
H1449 H 0.09726 0.22056 0.83974 0.0
H1450 H 0.0903 0.22595 0.12447 0.0
H1451 H 0.09778 0.23217 0.02598 0.0
C1452 C 0.76772 0.90964 0.7001 0.0
C1453 C 0.76558 0.89657 0.67276 0.0
C1454 C 0.76787 0.91048 0.75929 0.0
C1455 C 0.75767 0.88814 0.89098 0.0
H1456 H 0.7927 0.92277 0.95385 0.0
C1457 C 0.79454 0.90307 0.10551 0.0
C1458 C 0.78343 0.89853 0.14735 0.0
C1459 C 0.79133 0.90463 0.0492 0.0
C1460 C 0.78281 0.91309 0.93691 0.0
H1461 H 0.76106 0.87386 0.68611 0.0
H1462 H 0.76122 0.87532 0.78953 0.0
H1463 H 0.78803 0.92134 0.85179 0.0
H1464 H 0.76019 0.89176 0.16346 0.0
H1465 H 0.75454 0.89453 0.06476 0.0
H1466 H 0.75271 0.8797 0.97601 0.0
C1467 C 0.76281 0.88491 0.76511 0.0
C1468 C 0.78008 0.91232 0.8786 0.0
C1469 C 0.76279 0.8841 0.70587 0.0
C1470 C 0.76908 0.89576 0.13225 0.0
C1471 C 0.7658 0.89713 0.07573 0.0
C1472 C 0.76032 0.88899 0.94942 0.0
C1473 C 0.76572 0.89824 0.79239 0.0
C1474 C 0.76764 0.8997 0.85489 0.0
C1475 C 0.77684 0.90137 0.03354 0.0
C1476 C 0.77309 0.90134 0.97278 0.0
H1477 H 0.76985 0.91944 0.67587 0.0
H1478 H 0.76997 0.92084 0.77922 0.0
H1479 H 0.74795 0.87832 0.87387 0.0
H1480 H 0.80562 0.90505 0.11617 0.0
H1481 H 0.8 0.90773 0.01749 0.0
C1482 C 0.11059 0.88139 0.71372 0.0
C1483 C 0.10015 0.869 0.68198 0.0
C1484 C 0.11076 0.88069 0.77269 0.0
C1485 C 0.08594 0.86098 0.89266 0.0
H1486 H 0.12269 0.88481 0.9774 0.0
C1487 C 0.09249 0.87058 0.14028 0.0
C1488 C 0.09924 0.88593 0.15365 0.0
C1489 C 0.09166 0.86596 0.08386 0.0
C1490 C 0.11237 0.87801 0.95421 0.0
H1491 H 0.08217 0.84587 0.68705 0.0
H1492 H 0.08263 0.84457 0.79059 0.0
H1493 H 0.12397 0.88055 0.87626 0.0
H1494 H 0.11018 0.90837 0.11832 0.0
H1495 H 0.10904 0.90028 0.02035 0.0
H1496 H 0.07443 0.85861 0.9714 0.0
C1497 C 0.09051 0.85492 0.76967 0.0
C1498 C 0.11307 0.87563 0.89637 0.0
C1499 C 0.0903 0.85564 0.7104 0.0
C1500 C 0.10489 0.89648 0.10946 0.0
C1501 C 0.10428 0.89188 0.05348 0.0
C1502 C 0.08526 0.86319 0.95093 0.0
C1503 C 0.10057 0.86754 0.80151 0.0
C1504 C 0.09986 0.86759 0.86444 0.0
C1505 C 0.09788 0.87663 0.04039 0.0
C1506 C 0.09847 0.87216 0.9815 0.0
H1507 H 0.11836 0.89185 0.6932 0.0
H1508 H 0.1185 0.89072 0.79571 0.0
H1509 H 0.07554 0.85482 0.86931 0.0
H1510 H 0.08855 0.86217 0.17322 0.0
H1511 H 0.08678 0.85413 0.07445 0.0
C1512 C 0.19511 0.104 0.88727 0.0
C1513 C 0.20627 0.11008 0.84546 0.0
C1514 C 0.19851 0.1087 0.94362 0.0
C1515 C 0.20781 0.12571 0.0559 0.0
H1516 H 0.24153 0.12368 0.11904 0.0
C1517 C 0.2232 0.13697 0.29264 0.0
C1518 C 0.22451 0.12555 0.32 0.0
C1519 C 0.22311 0.13766 0.23344 0.0
C1520 C 0.23214 0.12437 0.1019 0.0
H1521 H 0.2298 0.12557 0.82945 0.0
H1522 H 0.23579 0.13388 0.92819 0.0
H1523 H 0.23671 0.12041 0.01692 0.0
H1524 H 0.22761 0.10645 0.30677 0.0
H1525 H 0.22756 0.10775 0.20335 0.0
H1526 H 0.20297 0.12924 0.14098 0.0
C1527 C 0.22435 0.12566 0.91718 0.0
C1528 C 0.22946 0.12263 0.04347 0.0
C1529 C 0.22088 0.12108 0.86063 0.0
C1530 C 0.22653 0.11534 0.28695 0.0
C1531 C 0.22658 0.11613 0.22773 0.0
C1532 C 0.21059 0.12762 0.11419 0.0
C1533 C 0.21323 0.11936 0.95933 0.0
C1534 C 0.21708 0.12298 0.02008 0.0
C1535 C 0.22449 0.12707 0.2004 0.0
C1536 C 0.22261 0.12668 0.13793 0.0
H1537 H 0.18382 0.09534 0.87655 0.0
H1538 H 0.18977 0.1035 0.9753 0.0
H1539 H 0.19825 0.12611 0.03892 0.0
H1540 H 0.22166 0.14504 0.31683 0.0
H1541 H 0.22165 0.14631 0.21346 0.0
C1542 C 0.89429 0.11839 0.89132 0.0
C1543 C 0.88879 0.10536 0.85824 0.0
C1544 C 0.88987 0.11758 0.94761 0.0
C1545 C 0.86208 0.09366 0.05498 0.0
H1546 H 0.89479 0.11742 0.15855 0.0
C1547 C 0.85907 0.08616 0.29972 0.0
C1548 C 0.86745 0.09907 0.33291 0.0
C1549 C 0.85953 0.08711 0.2405 0.0
C1550 C 0.88546 0.11092 0.13022 0.0
H1551 H 0.87425 0.08124 0.85785 0.0
H1552 H 0.86656 0.07977 0.95714 0.0
H1553 H 0.89972 0.1184 0.05762 0.0
H1554 H 0.88176 0.12324 0.3305 0.0
H1555 H 0.88232 0.12493 0.22739 0.0
H1556 H 0.84788 0.08601 0.12845 0.0
C1557 C 0.87409 0.09065 0.93894 0.0
C1558 C 0.8883 0.11145 0.07229 0.0
C1559 C 0.87848 0.09148 0.88217 0.0
C1560 C 0.87539 0.11306 0.306 0.0
C1561 C 0.87576 0.11402 0.24696 0.0
C1562 C 0.85922 0.09312 0.11329 0.0
C1563 C 0.87998 0.10369 0.97245 0.0
C1564 C 0.87666 0.10289 0.03396 0.0
C1565 C 0.8683 0.101 0.21356 0.0
C1566 C 0.8709 0.10181 0.15145 0.0
H1567 H 0.90211 0.12927 0.87372 0.0
H1568 H 0.89437 0.12786 0.97196 0.0
H1569 H 0.85288 0.087 0.02635 0.0
H1570 H 0.85282 0.07522 0.31929 0.0
H1571 H 0.8537 0.07687 0.21595 0.0
C1572 C 0.90409 0.76754 0.29111 0.0
C1573 C 0.8913 0.76363 0.32423 0.0
C1574 C 0.90317 0.76715 0.23187 0.0
C1575 C 0.88032 0.77095 0.12177 0.0
H1576 H 0.90282 0.76057 0.01736 0.0
C1577 C 0.87285 0.77269 0.8831 0.0
C1578 C 0.88587 0.77965 0.84972 0.0
C1579 C 0.87351 0.76897 0.93934 0.0
C1580 C 0.89657 0.7636 0.04615 0.0
H1581 H 0.8673 0.75496 0.3216 0.0
H1582 H 0.86564 0.754 0.21848 0.0
H1583 H 0.90358 0.75632 0.1194 0.0
H1584 H 0.90981 0.78809 0.84882 0.0
H1585 H 0.91103 0.78167 0.94804 0.0
H1586 H 0.87349 0.77844 0.04941 0.0
C1587 C 0.87646 0.75779 0.23813 0.0
C1588 C 0.89697 0.76114 0.10442 0.0
C1589 C 0.8774 0.75827 0.29719 0.0
C1590 C 0.89957 0.78252 0.87334 0.0
C1591 C 0.90026 0.77885 0.93008 0.0
C1592 C 0.87993 0.77339 0.0639 0.0
C1593 C 0.88942 0.76276 0.20483 0.0
C1594 C 0.88878 0.76474 0.14276 0.0
C1595 C 0.88726 0.77229 0.96388 0.0
C1596 C 0.88797 0.76968 0.02536 0.0
H1597 H 0.91496 0.77168 0.31076 0.0
H1598 H 0.91336 0.77108 0.2074 0.0
H1599 H 0.87423 0.77426 0.15025 0.0
H1600 H 0.86209 0.77015 0.86576 0.0
H1601 H 0.86325 0.76365 0.96391 0.0
C1602 C 0.77562 0.55858 0.04543 0.0
C1603 C 0.78827 0.56099 0.0144 0.0
C1604 C 0.77619 0.5597 0.10433 0.0
C1605 C 0.79637 0.55624 0.22614 0.0
H1606 H 0.77118 0.568 0.30775 0.0
C1607 C 0.78628 0.55346 0.47284 0.0
C1608 C 0.77098 0.54428 0.48595 0.0
C1609 C 0.79088 0.55734 0.41651 0.0
C1610 C 0.77835 0.56481 0.28543 0.0
H1611 H 0.81169 0.56719 0.02061 0.0
H1612 H 0.81274 0.56939 0.12408 0.0
H1613 H 0.77551 0.57322 0.20645 0.0
H1614 H 0.74858 0.53203 0.45041 0.0
H1615 H 0.75662 0.53916 0.35247 0.0
H1616 H 0.79905 0.54776 0.30588 0.0
C1617 C 0.80231 0.56637 0.10265 0.0
C1618 C 0.78079 0.56771 0.22752 0.0
C1619 C 0.80172 0.56519 0.04343 0.0
C1620 C 0.76044 0.53904 0.44168 0.0
C1621 C 0.765 0.54313 0.38575 0.0
C1622 C 0.79411 0.55355 0.28446 0.0
C1623 C 0.78946 0.56338 0.13379 0.0
C1624 C 0.78933 0.56293 0.19674 0.0
C1625 C 0.78021 0.55244 0.37287 0.0
C1626 C 0.78466 0.55735 0.3139 0.0
H1627 H 0.76508 0.55535 0.02444 0.0
H1628 H 0.76599 0.55705 0.12684 0.0
H1629 H 0.80293 0.55231 0.20369 0.0
H1630 H 0.79464 0.55823 0.50593 0.0
H1631 H 0.80266 0.56465 0.40726 0.0
C1632 C 0.4501 0.23317 0.44566 0.0
C1633 C 0.44442 0.21891 0.46997 0.0
C1634 C 0.44699 0.2346 0.38896 0.0
C1635 C 0.43794 0.21359 0.25617 0.0
H1636 H 0.42779 0.24276 0.1999 0.0
C1637 C 0.42602 0.21478 0.02163 0.0
C1638 C 0.43346 0.22893 0.99577 0.0
C1639 C 0.42486 0.21356 0.08051 0.0
C1640 C 0.43068 0.23461 0.21507 0.0
H1641 H 0.4307 0.19501 0.45503 0.0
H1642 H 0.42527 0.19748 0.35651 0.0
H1643 H 0.43099 0.24092 0.30212 0.0
H1644 H 0.44466 0.2529 0.01064 0.0
H1645 H 0.44302 0.25079 0.11388 0.0
H1646 H 0.43807 0.20748 0.16989 0.0
C1647 C 0.43224 0.20755 0.38081 0.0
C1648 C 0.43252 0.23358 0.27342 0.0
C1649 C 0.43535 0.20614 0.43717 0.0
C1650 C 0.43889 0.24185 0.02958 0.0
C1651 C 0.43789 0.24063 0.08868 0.0
C1652 C 0.43617 0.21465 0.19818 0.0
C1653 C 0.43823 0.22177 0.35582 0.0
C1654 C 0.43612 0.22301 0.29441 0.0
C1655 C 0.43132 0.22648 0.11474 0.0
C1656 C 0.43248 0.22513 0.17689 0.0
H1657 H 0.45736 0.24319 0.46963 0.0
H1658 H 0.4519 0.24568 0.37047 0.0
H1659 H 0.44105 0.20557 0.271 0.0
H1660 H 0.42149 0.20463 0.99645 0.0
H1661 H 0.41936 0.20249 0.09931 0.0
C1662 C 0.77184 0.23253 0.44778 0.0
C1663 C 0.76666 0.22187 0.49163 0.0
C1664 C 0.77134 0.22814 0.39158 0.0
C1665 C 0.75353 0.1997 0.28757 0.0
H1666 H 0.79263 0.21811 0.21552 0.0
C1667 C 0.76006 0.19267 0.04776 0.0
C1668 C 0.76979 0.20613 0.01968 0.0
C1669 C 0.75998 0.19195 0.10706 0.0
C1670 C 0.78162 0.2129 0.23488 0.0
H1671 H 0.75684 0.19815 0.51037 0.0
H1672 H 0.7553 0.19044 0.41122 0.0
H1673 H 0.79073 0.22203 0.31656 0.0
H1674 H 0.78752 0.22918 0.03157 0.0
H1675 H 0.78718 0.22803 0.13416 0.0
H1676 H 0.7443 0.19135 0.20532 0.0
C1677 C 0.75971 0.20219 0.42107 0.0
C1678 C 0.78057 0.21509 0.29266 0.0
C1679 C 0.76042 0.20661 0.47771 0.0
C1680 C 0.77986 0.21863 0.05183 0.0
C1681 C 0.77974 0.21793 0.11084 0.0
C1682 C 0.75455 0.19768 0.22937 0.0
C1683 C 0.76554 0.21299 0.37796 0.0
C1684 C 0.76651 0.20883 0.31902 0.0
C1685 C 0.76964 0.20467 0.13926 0.0
C1686 C 0.76861 0.20464 0.2021 0.0
H1687 H 0.77672 0.24437 0.4571 0.0
H1688 H 0.7758 0.23663 0.35871 0.0
H1689 H 0.74258 0.1948 0.30734 0.0
H1690 H 0.75221 0.18282 0.0241 0.0
H1691 H 0.75219 0.18152 0.12767 0.0
C1692 C 0.89579 0.4448 0.60849 0.0
C1693 C 0.89948 0.45783 0.63957 0.0
C1694 C 0.89652 0.44518 0.54948 0.0
C1695 C 0.89458 0.46659 0.42844 0.0
H1696 H 0.90236 0.43877 0.34471 0.0
C1697 C 0.8904 0.45639 0.18112 0.0
C1698 C 0.87986 0.4414 0.16796 0.0
C1699 C 0.8946 0.46077 0.23749 0.0
C1700 C 0.90028 0.44667 0.36763 0.0
H1701 H 0.90761 0.48168 0.63322 0.0
H1702 H 0.90917 0.4824 0.52962 0.0
H1703 H 0.90825 0.44274 0.44567 0.0
H1704 H 0.86543 0.41933 0.20363 0.0
H1705 H 0.8731 0.42694 0.30159 0.0
H1706 H 0.88656 0.47039 0.34954 0.0
C1707 C 0.90541 0.47182 0.55108 0.0
C1708 C 0.90356 0.4489 0.42538 0.0
C1709 C 0.90461 0.47142 0.6104 0.0
C1710 C 0.87353 0.43097 0.21232 0.0
C1711 C 0.87791 0.43528 0.26829 0.0
C1712 C 0.89152 0.46453 0.37025 0.0
C1713 C 0.90109 0.45863 0.51992 0.0
C1714 C 0.90022 0.45844 0.45697 0.0
C1715 C 0.88861 0.45015 0.28116 0.0
C1716 C 0.89389 0.45417 0.34005 0.0
H1717 H 0.89181 0.43412 0.62956 0.0
H1718 H 0.89285 0.43473 0.52704 0.0
H1719 H 0.89175 0.47394 0.45148 0.0
H1720 H 0.896 0.46461 0.14808 0.0
H1721 H 0.90298 0.47228 0.24673 0.0
C1722 C 0.52093 0.42561 0.60463 0.0
C1723 C 0.53424 0.43558 0.63315 0.0
C1724 C 0.52034 0.42548 0.54529 0.0
C1725 C 0.54138 0.44726 0.41774 0.0
H1726 H 0.52387 0.40821 0.34562 0.0
C1727 C 0.56152 0.43768 0.20536 0.0
C1728 C 0.55089 0.4324 0.16135 0.0
C1729 C 0.55708 0.43716 0.26151 0.0
C1730 C 0.5286 0.41915 0.36529 0.0
H1731 H 0.55713 0.45369 0.6219 0.0
H1732 H 0.55623 0.45327 0.51928 0.0
H1733 H 0.5202 0.40993 0.44744 0.0
H1734 H 0.52714 0.42234 0.14235 0.0
H1735 H 0.51935 0.42073 0.24137 0.0
H1736 H 0.55057 0.45638 0.33616 0.0
C1737 C 0.54613 0.44568 0.54227 0.0
C1738 C 0.52646 0.42018 0.4234 0.0
C1739 C 0.5467 0.44585 0.60133 0.0
C1740 C 0.5356 0.42601 0.1751 0.0
C1741 C 0.53112 0.42526 0.23168 0.0
C1742 C 0.5437 0.44621 0.36007 0.0
C1743 C 0.53304 0.43533 0.51343 0.0
C1744 C 0.5332 0.43425 0.45058 0.0
C1745 C 0.54189 0.4312 0.27494 0.0
C1746 C 0.53765 0.43215 0.33382 0.0
H1747 H 0.5111 0.4176 0.62801 0.0
H1748 H 0.51002 0.41751 0.52439 0.0
H1749 H 0.54642 0.45828 0.43696 0.0
H1750 H 0.57338 0.44269 0.19622 0.0
H1751 H 0.56554 0.44171 0.29448 0.0
C1752 C 0.54697 0.09282 0.63453 0.0
C1753 C 0.56104 0.09907 0.66088 0.0
C1754 C 0.54583 0.09181 0.5756 0.0
C1755 C 0.56665 0.09597 0.44164 0.0
H1756 H 0.54023 0.10969 0.38499 0.0
C1757 C 0.56739 0.11667 0.21105 0.0
C1758 C 0.5533 0.11195 0.18646 0.0
C1759 C 0.56844 0.11327 0.26776 0.0
C1760 C 0.54752 0.10565 0.40004 0.0
H1761 H 0.58486 0.10829 0.64682 0.0
H1762 H 0.58293 0.10695 0.54352 0.0
H1763 H 0.54157 0.1063 0.48614 0.0
H1764 H 0.52929 0.09958 0.20096 0.0
H1765 H 0.53112 0.09369 0.29944 0.0
H1766 H 0.57283 0.09579 0.35474 0.0
C1767 C 0.57275 0.10261 0.56834 0.0
C1768 C 0.54824 0.10364 0.45805 0.0
C1769 C 0.57387 0.10344 0.6275 0.0
C1770 C 0.54031 0.10352 0.219 0.0
C1771 C 0.54135 0.10013 0.27533 0.0
C1772 C 0.56597 0.09807 0.38327 0.0
C1773 C 0.55876 0.09727 0.5418 0.0
C1774 C 0.55775 0.09873 0.4796 0.0
C1775 C 0.55541 0.10519 0.30061 0.0
C1776 C 0.55634 0.10288 0.36205 0.0
H1777 H 0.53687 0.08912 0.65938 0.0
H1778 H 0.53484 0.08725 0.55644 0.0
H1779 H 0.57405 0.09213 0.45699 0.0
H1780 H 0.5776 0.12345 0.18734 0.0
H1781 H 0.57942 0.11745 0.28649 0.0
C1782 C 0.45076 0.89695 0.36057 0.0
C1783 C 0.45678 0.88885 0.3346 0.0
C1784 C 0.45058 0.89798 0.41951 0.0
C1785 C 0.46471 0.89108 0.55437 0.0
H1786 H 0.42551 0.88188 0.60905 0.0
C1787 C 0.44363 0.87248 0.78537 0.0
C1788 C 0.43477 0.87795 0.80887 0.0
C1789 C 0.44827 0.87552 0.72871 0.0
C1790 C 0.4366 0.8847 0.59467 0.0
H1791 H 0.46828 0.87639 0.34971 0.0
H1792 H 0.46771 0.87797 0.45295 0.0
H1793 H 0.43069 0.8849 0.50813 0.0
H1794 H 0.42432 0.89134 0.79273 0.0
H1795 H 0.43255 0.89682 0.69458 0.0
H1796 H 0.47044 0.89058 0.64157 0.0
C1797 C 0.46325 0.88362 0.42771 0.0
C1798 C 0.43959 0.88646 0.53674 0.0
C1799 C 0.46352 0.88267 0.36857 0.0
C1800 C 0.431 0.88683 0.77544 0.0
C1801 C 0.43569 0.88995 0.71922 0.0
C1802 C 0.46171 0.88932 0.61268 0.0
C1803 C 0.45631 0.89085 0.45375 0.0
C1804 C 0.45366 0.8897 0.51585 0.0
C1805 C 0.4441 0.88407 0.69482 0.0
C1806 C 0.44761 0.88614 0.63335 0.0
H1807 H 0.4457 0.90205 0.33543 0.0
H1808 H 0.44548 0.90394 0.43837 0.0
H1809 H 0.47568 0.89361 0.53947 0.0
H1810 H 0.44648 0.86539 0.80995 0.0
H1811 H 0.45461 0.87071 0.71087 0.0
C1812 C 0.08619 0.56149 0.38043 0.0
C1813 C 0.09125 0.55297 0.35116 0.0
C1814 C 0.08559 0.56125 0.43979 0.0
C1815 C 0.08797 0.54062 0.56575 0.0
H1816 H 0.10492 0.57931 0.64035 0.0
C1817 C 0.11821 0.5533 0.77843 0.0
C1818 C 0.1118 0.55735 0.82272 0.0
C1819 C 0.11386 0.55318 0.72241 0.0
C1820 C 0.09999 0.56844 0.61999 0.0
H1821 H 0.09901 0.53702 0.36104 0.0
H1822 H 0.09832 0.53688 0.46362 0.0
H1823 H 0.0995 0.57735 0.53857 0.0
H1824 H 0.09562 0.56438 0.84234 0.0
H1825 H 0.08866 0.56495 0.74362 0.0
H1826 H 0.08942 0.53195 0.6466 0.0
C1827 C 0.09455 0.54356 0.44125 0.0
C1828 C 0.09679 0.56726 0.56189 0.0
C1829 C 0.09507 0.54374 0.3822 0.0
C1830 C 0.10126 0.56177 0.8094 0.0
C1831 C 0.09708 0.5619 0.75297 0.0
C1832 C 0.0914 0.54186 0.6234 0.0
C1833 C 0.09005 0.5525 0.47089 0.0
C1834 C 0.09115 0.55339 0.5338 0.0
C1835 C 0.10311 0.55726 0.7094 0.0
C1836 C 0.09776 0.55582 0.65054 0.0
H1837 H 0.08309 0.56867 0.35766 0.0
H1838 H 0.08187 0.56811 0.4613 0.0
H1839 H 0.08328 0.52971 0.54583 0.0
H1840 H 0.12632 0.54979 0.78724 0.0
H1841 H 0.1187 0.54965 0.68921 0.0
C1842 C 0.42337 0.53618 0.80409 0.0
C1843 C 0.43015 0.55152 0.81772 0.0
C1844 C 0.42235 0.5316 0.74753 0.0
C1845 C 0.44294 0.54329 0.61869 0.0
H1846 H 0.40624 0.52101 0.53216 0.0
C1847 C 0.44241 0.54573 0.37727 0.0
C1848 C 0.43166 0.53345 0.34588 0.0
C1849 C 0.44229 0.54533 0.43634 0.0
C1850 C 0.41659 0.52691 0.55596 0.0
H1851 H 0.44092 0.57399 0.78267 0.0
H1852 H 0.43948 0.56596 0.68435 0.0
H1853 H 0.40495 0.52505 0.63395 0.0
H1854 H 0.41282 0.51077 0.35185 0.0
H1855 H 0.41282 0.50996 0.4555 0.0
H1856 H 0.45468 0.54524 0.54164 0.0
C1857 C 0.43481 0.55755 0.71744 0.0
C1858 C 0.41581 0.52928 0.61404 0.0
C1859 C 0.4356 0.5621 0.77361 0.0
C1860 C 0.42121 0.52045 0.37487 0.0
C1861 C 0.42115 0.52002 0.43424 0.0
C1862 C 0.44373 0.54073 0.56105 0.0
C1863 C 0.4284 0.54231 0.70413 0.0
C1864 C 0.42899 0.53788 0.64521 0.0
C1865 C 0.43151 0.53258 0.46566 0.0
C1866 C 0.43058 0.53298 0.52851 0.0
H1867 H 0.41959 0.52774 0.8369 0.0
H1868 H 0.41749 0.51979 0.73792 0.0
H1869 H 0.45323 0.5498 0.64238 0.0
H1870 H 0.45062 0.55592 0.35633 0.0
H1871 H 0.45029 0.55532 0.45895 0.0
C1872 C 0.55866 0.77938 0.93861 0.0
C1873 C 0.55827 0.79061 0.97115 0.0
C1874 C 0.55876 0.78003 0.87953 0.0
C1875 C 0.54733 0.79572 0.76251 0.0
H1876 H 0.56646 0.77851 0.67216 0.0
C1877 C 0.54762 0.78803 0.5124 0.0
C1878 C 0.53979 0.77264 0.49916 0.0
C1879 C 0.55068 0.79278 0.56898 0.0
C1880 C 0.56119 0.78348 0.69696 0.0
H1881 H 0.55846 0.81174 0.96718 0.0
H1882 H 0.5589 0.81299 0.86363 0.0
H1883 H 0.57217 0.78305 0.77321 0.0
H1884 H 0.52878 0.75023 0.53482 0.0
H1885 H 0.53447 0.75858 0.63325 0.0
H1886 H 0.5363 0.79596 0.68541 0.0
C1887 C 0.55884 0.80354 0.88397 0.0
C1888 C 0.56435 0.78598 0.75475 0.0
C1889 C 0.5587 0.80287 0.94329 0.0
C1890 C 0.5348 0.76216 0.54361 0.0
C1891 C 0.53803 0.76689 0.59983 0.0
C1892 C 0.54432 0.79337 0.70433 0.0
C1893 C 0.55858 0.79197 0.85142 0.0
C1894 C 0.55709 0.79166 0.78864 0.0
C1895 C 0.54619 0.7822 0.61277 0.0
C1896 C 0.55092 0.78685 0.67173 0.0
H1897 H 0.55835 0.76978 0.95868 0.0
H1898 H 0.55832 0.7708 0.85597 0.0
H1899 H 0.54143 0.79997 0.78739 0.0
H1900 H 0.55212 0.79642 0.47936 0.0
H1901 H 0.55715 0.80465 0.57839 0.0
C1902 C 0.22242 0.78224 0.5618 0.0
C1903 C 0.21855 0.76943 0.529 0.0
C1904 C 0.21796 0.7809 0.61821 0.0
C1905 C 0.19211 0.75535 0.72615 0.0
H1906 H 0.2241 0.78134 0.82876 0.0
C1907 C 0.18984 0.74847 0.97102 0.0
C1908 C 0.19762 0.76157 0.00373 0.0
C1909 C 0.19015 0.7493 0.91179 0.0
C1910 C 0.21494 0.7742 0.80072 0.0
H1911 H 0.20692 0.74514 0.52942 0.0
H1912 H 0.19907 0.74278 0.62883 0.0
H1913 H 0.22895 0.7827 0.72767 0.0
H1914 H 0.21058 0.78583 0.00078 0.0
H1915 H 0.21074 0.78732 0.89767 0.0
H1916 H 0.17813 0.74678 0.7999 0.0
C1917 C 0.20536 0.75385 0.61023 0.0
C1918 C 0.21775 0.77494 0.74276 0.0
C1919 C 0.20983 0.7552 0.55341 0.0
C1920 C 0.20471 0.77554 0.97651 0.0
C1921 C 0.20486 0.77638 0.91749 0.0
C1922 C 0.18926 0.75464 0.78449 0.0
C1923 C 0.20964 0.76672 0.64335 0.0
C1924 C 0.20637 0.76559 0.70483 0.0
C1925 C 0.19811 0.76325 0.88446 0.0
C1926 C 0.20066 0.76413 0.82232 0.0
H1927 H 0.22898 0.79336 0.5439 0.0
H1928 H 0.22121 0.79101 0.64247 0.0
H1929 H 0.18313 0.74806 0.69769 0.0
H1930 H 0.18427 0.73754 0.99098 0.0
H1931 H 0.18487 0.73898 0.88757 0.0
C1932 C 0.21891 0.43557 0.53376 0.0
C1933 C 0.22511 0.45071 0.5188 0.0
C1934 C 0.2193 0.43154 0.59015 0.0
C1935 C 0.21161 0.4276 0.71703 0.0
H1936 H 0.24666 0.4497 0.81239 0.0
C1937 C 0.20941 0.43195 0.96069 0.0
C1938 C 0.22087 0.43193 0.99297 0.0
C1939 C 0.20976 0.43156 0.90145 0.0
C1940 C 0.23683 0.44328 0.7862 0.0
H1941 H 0.23662 0.47351 0.55012 0.0
H1942 H 0.23754 0.46654 0.64858 0.0
H1943 H 0.24856 0.45446 0.71039 0.0
H1944 H 0.24126 0.43069 0.98845 0.0
H1945 H 0.24189 0.43009 0.88501 0.0
H1946 H 0.19976 0.41674 0.79319 0.0
C1947 C 0.23252 0.45778 0.61685 0.0
C1948 C 0.2379 0.4461 0.72794 0.0
C1949 C 0.23196 0.46177 0.56068 0.0
C1950 C 0.2323 0.43079 0.96485 0.0
C1951 C 0.23271 0.43052 0.90561 0.0
C1952 C 0.2105 0.42489 0.77545 0.0
C1953 C 0.22596 0.44262 0.63233 0.0
C1954 C 0.22524 0.43846 0.69292 0.0
C1955 C 0.22163 0.43123 0.8733 0.0
C1956 C 0.22305 0.43287 0.81073 0.0
H1957 H 0.21313 0.42681 0.50252 0.0
H1958 H 0.21413 0.41978 0.60099 0.0
H1959 H 0.20164 0.42164 0.69109 0.0
H1960 H 0.20042 0.43277 0.98109 0.0
H1961 H 0.20112 0.43222 0.87767 0.0
loop_
_geom_bond_atom_site_label_1
_geom_bond_atom_site_label_2
_geom_bond_distance
_geom_bond_site_symmetry_2
_ccdc_geom_bond_type
Co0 O3 1.970 . S
Co0 N17 1.989 . S
Co0 O25 1.967 . S
Co0 O32 1.920 . S
Co1 O4 1.966 . S
Co1 N10 2.022 . S
Co1 N18 1.993 . S
Co1 O26 1.941 . S
C2 O3 1.258 . S
C2 O4 1.263 . S
O3 Co0 1.970 . S
O3 C2 1.258 . S
O4 Co1 1.966 . S
O4 C2 1.263 . S
C5 O6 1.235 . S
C5 O32 1.289 . S
O6 C5 1.235 . S
C7 C9 1.400 . S
C7 N10 1.351 . S
C7 C12 1.501 . S
C8 C9 1.387 . S
C8 N11 1.341 . S
C9 C7 1.400 . S
C9 C8 1.387 . S
N10 Co1 2.022 . S
N10 C7 1.351 . S
N10 N11 1.365 . S
N11 C8 1.341 . S
N11 N10 1.365 . S
N11 H31 0.862 . S
C12 C7 1.501 . S
C12 H13 0.961 . S
C12 H14 0.961 . S
C12 H15 0.960 . S
H13 C12 0.961 . S
H14 C12 0.961 . S
H15 C12 0.960 . S
C16 N17 1.342 . S
C16 C20 1.401 . S
C16 C21 1.499 . S
N17 Co0 1.989 . S
N17 C16 1.342 . S
N17 N18 1.388 . S
N18 Co1 1.993 . S
N18 N17 1.388 . S
N18 C19 1.346 . S
C19 N18 1.346 . S
C19 C20 1.396 . S
C19 C29 1.510 . S
C20 C16 1.401 . S
C20 C19 1.396 . S
C21 C16 1.499 . S
C21 H22 0.959 . S
C21 H23 0.960 . S
C21 H24 0.961 . S
H22 C21 0.959 . S
H23 C21 0.960 . S
H24 C21 0.961 . S
O25 Co0 1.967 . S
O25 C33 1.258 . S
O26 Co1 1.941 . S
O26 C33 1.266 . S
H27 C29 0.959 . S
H28 C29 0.961 . S
C29 C19 1.510 . S
C29 H27 0.959 . S
C29 H28 0.961 . S
C29 H30 0.960 . S
H30 C29 0.960 . S
H31 N11 0.862 . S
O32 Co0 1.920 . S
O32 C5 1.289 . S
C33 O25 1.258 . S
C33 O26 1.266 . S
Co34 O37 1.970 . S
Co34 N51 1.989 . S
Co34 O59 1.967 . S
Co34 O66 1.920 . S
Co35 O38 1.966 . S
Co35 N44 2.022 . S
Co35 N52 1.993 . S
Co35 O60 1.941 . S
C36 O37 1.258 . S
C36 O38 1.263 . S
O37 Co34 1.970 . S
O37 C36 1.258 . S
O38 Co35 1.966 . S
O38 C36 1.263 . S
C39 O40 1.235 . S
C39 O66 1.289 . S
O40 C39 1.235 . S
C41 C43 1.400 . S
C41 N44 1.351 . S
C41 C46 1.501 . S
C42 C43 1.387 . S
C42 N45 1.341 . S
C43 C41 1.400 . S
C43 C42 1.387 . S
N44 Co35 2.022 . S
N44 C41 1.351 . S
N44 N45 1.365 . S
N45 C42 1.341 . S
N45 N44 1.365 . S
N45 H65 0.862 . S
C46 C41 1.501 . S
C46 H47 0.961 . S
C46 H48 0.961 . S
C46 H49 0.960 . S
H47 C46 0.961 . S
H48 C46 0.961 . S
H49 C46 0.960 . S
C50 N51 1.342 . S
C50 C54 1.401 . S
C50 C55 1.499 . S
N51 Co34 1.989 . S
N51 C50 1.342 . S
N51 N52 1.388 . S
N52 Co35 1.993 . S
N52 N51 1.388 . S
N52 C53 1.346 . S
C53 N52 1.346 . S
C53 C54 1.396 . S
C53 C63 1.510 . S
C54 C50 1.401 . S
C54 C53 1.396 . S
C55 C50 1.499 . S
C55 H56 0.959 . S
C55 H57 0.960 . S
C55 H58 0.961 . S
H56 C55 0.959 . S
H57 C55 0.960 . S
H58 C55 0.961 . S
O59 Co34 1.967 . S
O59 C67 1.258 . S
O60 Co35 1.941 . S
O60 C67 1.266 . S
H61 C63 0.959 . S
H62 C63 0.961 . S
C63 C53 1.510 . S
C63 H61 0.959 . S
C63 H62 0.961 . S
C63 H64 0.960 . S
H64 C63 0.960 . S
H65 N45 0.862 . S
O66 Co34 1.920 . S
O66 C39 1.289 . S
C67 O59 1.258 . S
C67 O60 1.266 . S
Co68 O71 1.970 . S
Co68 N85 1.989 . S
Co68 O93 1.967 . S
Co68 O100 1.920 . S
Co69 O72 1.966 . S
Co69 N78 2.022 . S
Co69 N86 1.993 . S
Co69 O94 1.941 . S
C70 O71 1.258 . S
C70 O72 1.263 . S
O71 Co68 1.970 . S
O71 C70 1.258 . S
O72 Co69 1.966 . S
O72 C70 1.263 . S
C73 O74 1.235 . S
C73 O100 1.289 . S
O74 C73 1.235 . S
C75 C77 1.400 . S
C75 N78 1.351 . S
C75 C80 1.501 . S
C76 C77 1.387 . S
C76 N79 1.341 . S
C77 C75 1.400 . S
C77 C76 1.387 . S
N78 Co69 2.022 . S
N78 C75 1.351 . S
N78 N79 1.365 . S
N79 C76 1.341 . S
N79 N78 1.365 . S
N79 H99 0.862 . S
C80 C75 1.501 . S
C80 H81 0.961 . S
C80 H82 0.961 . S
C80 H83 0.960 . S
H81 C80 0.961 . S
H82 C80 0.961 . S
H83 C80 0.960 . S
C84 N85 1.342 . S
C84 C88 1.401 . S
C84 C89 1.499 . S
N85 Co68 1.989 . S
N85 C84 1.342 . S
N85 N86 1.388 . S
N86 Co69 1.993 . S
N86 N85 1.388 . S
N86 C87 1.346 . S
C87 N86 1.346 . S
C87 C88 1.396 . S
C87 C97 1.510 . S
C88 C84 1.401 . S
C88 C87 1.396 . S
C89 C84 1.499 . S
C89 H90 0.959 . S
C89 H91 0.960 . S
C89 H92 0.961 . S
H90 C89 0.959 . S
H91 C89 0.960 . S
H92 C89 0.961 . S
O93 Co68 1.967 . S
O93 C101 1.258 . S
O94 Co69 1.941 . S
O94 C101 1.266 . S
H95 C97 0.959 . S
H96 C97 0.961 . S
C97 C87 1.510 . S
C97 H95 0.959 . S
C97 H96 0.961 . S
C97 H98 0.960 . S
H98 C97 0.960 . S
H99 N79 0.862 . S
O100 Co68 1.920 . S
O100 C73 1.289 . S
C101 O93 1.258 . S
C101 O94 1.266 . S
Co102 O105 1.970 . S
Co102 N119 1.989 . S
Co102 O127 1.967 . S
Co102 O134 1.920 . S
Co103 O106 1.966 . S
Co103 N112 2.022 . S
Co103 N120 1.993 . S
Co103 O128 1.941 . S
C104 O105 1.258 . S
C104 O106 1.263 . S
O105 Co102 1.970 . S
O105 C104 1.258 . S
O106 Co103 1.966 . S
O106 C104 1.263 . S
C107 O108 1.235 . S
C107 O134 1.289 . S
O108 C107 1.235 . S
C109 C111 1.400 . S
C109 N112 1.351 . S
C109 C114 1.501 . S
C110 C111 1.387 . S
C110 N113 1.341 . S
C111 C109 1.400 . S
C111 C110 1.387 . S
N112 Co103 2.022 . S
N112 C109 1.351 . S
N112 N113 1.365 . S
N113 C110 1.341 . S
N113 N112 1.365 . S
N113 H133 0.862 . S
C114 C109 1.501 . S
C114 H115 0.961 . S
C114 H116 0.961 . S
C114 H117 0.960 . S
H115 C114 0.961 . S
H116 C114 0.961 . S
H117 C114 0.960 . S
C118 N119 1.342 . S
C118 C122 1.401 . S
C118 C123 1.499 . S
N119 Co102 1.989 . S
N119 C118 1.342 . S
N119 N120 1.388 . S
N120 Co103 1.993 . S
N120 N119 1.388 . S
N120 C121 1.346 . S
C121 N120 1.346 . S
C121 C122 1.396 . S
C121 C131 1.510 . S
C122 C118 1.401 . S
C122 C121 1.396 . S
C123 C118 1.499 . S
C123 H124 0.959 . S
C123 H125 0.960 . S
C123 H126 0.961 . S
H124 C123 0.959 . S
H125 C123 0.960 . S
H126 C123 0.961 . S
O127 Co102 1.967 . S
O127 C135 1.258 . S
O128 Co103 1.941 . S
O128 C135 1.266 . S
H129 C131 0.959 . S
H130 C131 0.961 . S
C131 C121 1.510 . S
C131 H129 0.959 . S
C131 H130 0.961 . S
C131 H132 0.960 . S
H132 C131 0.960 . S
H133 N113 0.862 . S
O134 Co102 1.920 . S
O134 C107 1.289 . S
C135 O127 1.258 . S
C135 O128 1.266 . S
Co136 O139 1.970 . S
Co136 N153 1.989 . S
Co136 O161 1.967 . S
Co136 O168 1.920 . S
Co137 O140 1.966 . S
Co137 N146 2.022 . S
Co137 N154 1.993 . S
Co137 O162 1.941 . S
C138 O139 1.258 . S
C138 O140 1.263 . S
O139 Co136 1.970 . S
O139 C138 1.258 . S
O140 Co137 1.966 . S
O140 C138 1.263 . S
C141 O142 1.235 . S
C141 O168 1.289 . S
O142 C141 1.235 . S
C143 C145 1.400 . S
C143 N146 1.351 . S
C143 C148 1.501 . S
C144 C145 1.387 . S
C144 N147 1.341 . S
C145 C143 1.400 . S
C145 C144 1.387 . S
N146 Co137 2.022 . S
N146 C143 1.351 . S
N146 N147 1.365 . S
N147 C144 1.341 . S
N147 N146 1.365 . S
N147 H167 0.862 . S
C148 C143 1.501 . S
C148 H149 0.961 . S
C148 H150 0.961 . S
C148 H151 0.960 . S
H149 C148 0.961 . S
H150 C148 0.961 . S
H151 C148 0.960 . S
C152 N153 1.342 . S
C152 C156 1.401 . S
C152 C157 1.499 . S
N153 Co136 1.989 . S
N153 C152 1.342 . S
N153 N154 1.388 . S
N154 Co137 1.993 . S
N154 N153 1.388 . S
N154 C155 1.346 . S
C155 N154 1.346 . S
C155 C156 1.396 . S
C155 C165 1.510 . S
C156 C152 1.401 . S
C156 C155 1.396 . S
C157 C152 1.499 . S
C157 H158 0.959 . S
C157 H159 0.960 . S
C157 H160 0.961 . S
H158 C157 0.959 . S
H159 C157 0.960 . S
H160 C157 0.961 . S
O161 Co136 1.967 . S
O161 C169 1.258 . S
O162 Co137 1.941 . S
O162 C169 1.266 . S
H163 C165 0.959 . S
H164 C165 0.961 . S
C165 C155 1.510 . S
C165 H163 0.959 . S
C165 H164 0.961 . S
C165 H166 0.960 . S
H166 C165 0.960 . S
H167 N147 0.862 . S
O168 Co136 1.920 . S
O168 C141 1.289 . S
C169 O161 1.258 . S
C169 O162 1.266 . S
Co170 O173 1.970 . S
Co170 N187 1.989 . S
Co170 O195 1.967 . S
Co170 O202 1.920 . S
Co171 O174 1.966 . S
Co171 N180 2.022 . S
Co171 N188 1.993 . S
Co171 O196 1.941 . S
C172 O173 1.258 . S
C172 O174 1.263 . S
O173 Co170 1.970 . S
O173 C172 1.258 . S
O174 Co171 1.966 . S
O174 C172 1.263 . S
C175 O176 1.235 . S
C175 O202 1.289 . S
O176 C175 1.235 . S
C177 C179 1.400 . S
C177 N180 1.351 . S
C177 C182 1.501 . S
C178 C179 1.387 . S
C178 N181 1.341 . S
C179 C177 1.400 . S
C179 C178 1.387 . S
N180 Co171 2.022 . S
N180 C177 1.351 . S
N180 N181 1.365 . S
N181 C178 1.341 . S
N181 N180 1.365 . S
N181 H201 0.862 . S
C182 C177 1.501 . S
C182 H183 0.961 . S
C182 H184 0.961 . S
C182 H185 0.960 . S
H183 C182 0.961 . S
H184 C182 0.961 . S
H185 C182 0.960 . S
C186 N187 1.342 . S
C186 C190 1.401 . S
C186 C191 1.499 . S
N187 Co170 1.989 . S
N187 C186 1.342 . S
N187 N188 1.388 . S
N188 Co171 1.993 . S
N188 N187 1.388 . S
N188 C189 1.346 . S
C189 N188 1.346 . S
C189 C190 1.396 . S
C189 C199 1.510 . S
C190 C186 1.401 . S
C190 C189 1.396 . S
C191 C186 1.499 . S
C191 H192 0.959 . S
C191 H193 0.960 . S
C191 H194 0.961 . S
H192 C191 0.959 . S
H193 C191 0.960 . S
H194 C191 0.961 . S
O195 Co170 1.967 . S
O195 C203 1.258 . S
O196 Co171 1.941 . S
O196 C203 1.266 . S
H197 C199 0.959 . S
H198 C199 0.961 . S
C199 C189 1.510 . S
C199 H197 0.959 . S
C199 H198 0.961 . S
C199 H200 0.960 . S
H200 C199 0.960 . S
H201 N181 0.862 . S
O202 Co170 1.920 . S
O202 C175 1.289 . S
C203 O195 1.258 . S
C203 O196 1.266 . S
Co204 O207 1.970 . S
Co204 N221 1.989 . S
Co204 O229 1.967 . S
Co204 O236 1.920 . S
Co205 O208 1.966 . S
Co205 N214 2.022 . S
Co205 N222 1.993 . S
Co205 O230 1.941 . S
C206 O207 1.258 . S
C206 O208 1.263 . S
O207 Co204 1.970 . S
O207 C206 1.258 . S
O208 Co205 1.966 . S
O208 C206 1.263 . S
C209 O210 1.235 . S
C209 O236 1.289 . S
O210 C209 1.235 . S
C211 C213 1.400 . S
C211 N214 1.351 . S
C211 C216 1.501 . S
C212 C213 1.387 . S
C212 N215 1.341 . S
C213 C211 1.400 . S
C213 C212 1.387 . S
N214 Co205 2.022 . S
N214 C211 1.351 . S
N214 N215 1.365 . S
N215 C212 1.341 . S
N215 N214 1.365 . S
N215 H235 0.862 . S
C216 C211 1.501 . S
C216 H217 0.961 . S
C216 H218 0.961 . S
C216 H219 0.960 . S
H217 C216 0.961 . S
H218 C216 0.961 . S
H219 C216 0.960 . S
C220 N221 1.342 . S
C220 C224 1.401 . S
C220 C225 1.499 . S
N221 Co204 1.989 . S
N221 C220 1.342 . S
N221 N222 1.388 . S
N222 Co205 1.993 . S
N222 N221 1.388 . S
N222 C223 1.346 . S
C223 N222 1.346 . S
C223 C224 1.396 . S
C223 C233 1.510 . S
C224 C220 1.401 . S
C224 C223 1.396 . S
C225 C220 1.499 . S
C225 H226 0.959 . S
C225 H227 0.960 . S
C225 H228 0.961 . S
H226 C225 0.959 . S
H227 C225 0.960 . S
H228 C225 0.961 . S
O229 Co204 1.967 . S
O229 C237 1.258 . S
O230 Co205 1.941 . S
O230 C237 1.266 . S
H231 C233 0.959 . S
H232 C233 0.961 . S
C233 C223 1.510 . S
C233 H231 0.959 . S
C233 H232 0.961 . S
C233 H234 0.960 . S
H234 C233 0.960 . S
H235 N215 0.862 . S
O236 Co204 1.920 . S
O236 C209 1.289 . S
C237 O229 1.258 . S
C237 O230 1.266 . S
Co238 O241 1.970 . S
Co238 N255 1.989 . S
Co238 O263 1.967 . S
Co238 O270 1.920 . S
Co239 O242 1.966 . S
Co239 N248 2.022 . S
Co239 N256 1.993 . S
Co239 O264 1.941 . S
C240 O241 1.258 . S
C240 O242 1.263 . S
O241 Co238 1.970 . S
O241 C240 1.258 . S
O242 Co239 1.966 . S
O242 C240 1.263 . S
C243 O244 1.235 . S
C243 O270 1.289 . S
O244 C243 1.235 . S
C245 C247 1.400 . S
C245 N248 1.351 . S
C245 C250 1.501 . S
C246 C247 1.387 . S
C246 N249 1.341 . S
C247 C245 1.400 . S
C247 C246 1.387 . S
N248 Co239 2.022 . S
N248 C245 1.351 . S
N248 N249 1.365 . S
N249 C246 1.341 . S
N249 N248 1.365 . S
N249 H269 0.862 . S
C250 C245 1.501 . S
C250 H251 0.961 . S
C250 H252 0.961 . S
C250 H253 0.960 . S
H251 C250 0.961 . S
H252 C250 0.961 . S
H253 C250 0.960 . S
C254 N255 1.342 . S
C254 C258 1.401 . S
C254 C259 1.499 . S
N255 Co238 1.989 . S
N255 C254 1.342 . S
N255 N256 1.388 . S
N256 Co239 1.993 . S
N256 N255 1.388 . S
N256 C257 1.346 . S
C257 N256 1.346 . S
C257 C258 1.396 . S
C257 C267 1.510 . S
C258 C254 1.401 . S
C258 C257 1.396 . S
C259 C254 1.499 . S
C259 H260 0.959 . S
C259 H261 0.960 . S
C259 H262 0.961 . S
H260 C259 0.959 . S
H261 C259 0.960 . S
H262 C259 0.961 . S
O263 Co238 1.967 . S
O263 C271 1.258 . S
O264 Co239 1.941 . S
O264 C271 1.266 . S
H265 C267 0.959 . S
H266 C267 0.961 . S
C267 C257 1.510 . S
C267 H265 0.959 . S
C267 H266 0.961 . S
C267 H268 0.960 . S
H268 C267 0.960 . S
H269 N249 0.862 . S
O270 Co238 1.920 . S
O270 C243 1.289 . S
C271 O263 1.258 . S
C271 O264 1.266 . S
Co272 O275 1.970 . S
Co272 N289 1.989 . S
Co272 O297 1.967 . S
Co272 O304 1.920 . S
Co273 O276 1.966 . S
Co273 N282 2.022 . S
Co273 N290 1.993 . S
Co273 O298 1.941 . S
C274 O275 1.258 . S
C274 O276 1.263 . S
O275 Co272 1.970 . S
O275 C274 1.258 . S
O276 Co273 1.966 . S
O276 C274 1.263 . S
C277 O278 1.235 . S
C277 O304 1.289 . S
O278 C277 1.235 . S
C279 C281 1.400 . S
C279 N282 1.351 . S
C279 C284 1.501 . S
C280 C281 1.387 . S
C280 N283 1.341 . S
C281 C279 1.400 . S
C281 C280 1.387 . S
N282 Co273 2.022 . S
N282 C279 1.351 . S
N282 N283 1.365 . S
N283 C280 1.341 . S
N283 N282 1.365 . S
N283 H303 0.862 . S
C284 C279 1.501 . S
C284 H285 0.961 . S
C284 H286 0.961 . S
C284 H287 0.960 . S
H285 C284 0.961 . S
H286 C284 0.961 . S
H287 C284 0.960 . S
C288 N289 1.342 . S
C288 C292 1.401 . S
C288 C293 1.499 . S
N289 Co272 1.989 . S
N289 C288 1.342 . S
N289 N290 1.388 . S
N290 Co273 1.993 . S
N290 N289 1.388 . S
N290 C291 1.346 . S
C291 N290 1.346 . S
C291 C292 1.396 . S
C291 C301 1.510 . S
C292 C288 1.401 . S
C292 C291 1.396 . S
C293 C288 1.499 . S
C293 H294 0.959 . S
C293 H295 0.960 . S
C293 H296 0.961 . S
H294 C293 0.959 . S
H295 C293 0.960 . S
H296 C293 0.961 . S
O297 Co272 1.967 . S
O297 C305 1.258 . S
O298 Co273 1.941 . S
O298 C305 1.266 . S
H299 C301 0.959 . S
H300 C301 0.961 . S
C301 C291 1.510 . S
C301 H299 0.959 . S
C301 H300 0.961 . S
C301 H302 0.960 . S
H302 C301 0.960 . S
H303 N283 0.862 . S
O304 Co272 1.920 . S
O304 C277 1.289 . S
C305 O297 1.258 . S
C305 O298 1.266 . S
Co306 O309 1.970 . S
Co306 N323 1.989 . S
Co306 O331 1.967 . S
Co306 O338 1.920 . S
Co307 O310 1.966 . S
Co307 N316 2.022 1_556 S
Co307 N324 1.993 . S
Co307 O332 1.941 . S
C308 O309 1.258 . S
C308 O310 1.263 . S
O309 Co306 1.970 . S
O309 C308 1.258 . S
O310 Co307 1.966 . S
O310 C308 1.263 . S
C311 O312 1.235 . S
C311 O338 1.289 . S
O312 C311 1.235 . S
C313 C315 1.400 . S
C313 N316 1.351 . S
C313 C318 1.501 . S
C314 C315 1.387 . S
C314 N317 1.341 . S
C315 C313 1.400 . S
C315 C314 1.387 . S
N316 Co307 2.022 1_554 S
N316 C313 1.351 . S
N316 N317 1.365 . S
N317 C314 1.341 . S
N317 N316 1.365 . S
N317 H337 0.862 . S
C318 C313 1.501 . S
C318 H319 0.961 . S
C318 H320 0.961 . S
C318 H321 0.960 . S
H319 C318 0.961 . S
H320 C318 0.961 . S
H321 C318 0.960 . S
C322 N323 1.342 . S
C322 C326 1.401 . S
C322 C327 1.499 . S
N323 Co306 1.989 . S
N323 C322 1.342 . S
N323 N324 1.388 . S
N324 Co307 1.993 . S
N324 N323 1.388 . S
N324 C325 1.346 . S
C325 N324 1.346 . S
C325 C326 1.396 . S
C325 C335 1.510 1_556 S
C326 C322 1.401 . S
C326 C325 1.396 . S
C327 C322 1.499 . S
C327 H328 0.959 . S
C327 H329 0.960 . S
C327 H330 0.961 . S
H328 C327 0.959 . S
H329 C327 0.960 . S
H330 C327 0.961 . S
O331 Co306 1.967 . S
O331 C339 1.258 . S
O332 Co307 1.941 . S
O332 C339 1.266 . S
H333 C335 0.959 . S
H334 C335 0.961 . S
C335 C325 1.510 1_554 S
C335 H333 0.959 . S
C335 H334 0.961 . S
C335 H336 0.960 . S
H336 C335 0.960 . S
H337 N317 0.862 . S
O338 Co306 1.920 . S
O338 C311 1.289 . S
C339 O331 1.258 . S
C339 O332 1.266 . S
Co340 O343 1.970 . S
Co340 N357 1.989 . S
Co340 O365 1.967 . S
Co340 O372 1.920 . S
Co341 O344 1.966 . S
Co341 N350 2.022 1_556 S
Co341 N358 1.993 . S
Co341 O366 1.941 . S
C342 O343 1.258 . S
C342 O344 1.263 . S
O343 Co340 1.970 . S
O343 C342 1.258 . S
O344 Co341 1.966 . S
O344 C342 1.263 . S
C345 O346 1.235 . S
C345 O372 1.289 . S
O346 C345 1.235 . S
C347 C349 1.400 . S
C347 N350 1.351 . S
C347 C352 1.501 . S
C348 C349 1.387 . S
C348 N351 1.341 . S
C349 C347 1.400 . S
C349 C348 1.387 . S
N350 Co341 2.022 1_554 S
N350 C347 1.351 . S
N350 N351 1.365 . S
N351 C348 1.341 . S
N351 N350 1.365 . S
N351 H371 0.862 . S
C352 C347 1.501 . S
C352 H353 0.961 . S
C352 H354 0.961 . S
C352 H355 0.960 . S
H353 C352 0.961 . S
H354 C352 0.961 . S
H355 C352 0.960 . S
C356 N357 1.342 . S
C356 C360 1.401 . S
C356 C361 1.499 . S
N357 Co340 1.989 . S
N357 C356 1.342 . S
N357 N358 1.388 . S
N358 Co341 1.993 . S
N358 N357 1.388 . S
N358 C359 1.346 . S
C359 N358 1.346 . S
C359 C360 1.396 . S
C359 C369 1.510 1_556 S
C360 C356 1.401 . S
C360 C359 1.396 . S
C361 C356 1.499 . S
C361 H362 0.959 . S
C361 H363 0.960 . S
C361 H364 0.961 . S
H362 C361 0.959 . S
H363 C361 0.960 . S
H364 C361 0.961 . S
O365 Co340 1.967 . S
O365 C373 1.258 . S
O366 Co341 1.941 . S
O366 C373 1.266 . S
H367 C369 0.959 . S
H368 C369 0.961 . S
C369 C359 1.510 1_554 S
C369 H367 0.959 . S
C369 H368 0.961 . S
C369 H370 0.960 . S
H370 C369 0.960 . S
H371 N351 0.862 . S
O372 Co340 1.920 . S
O372 C345 1.289 . S
C373 O365 1.258 . S
C373 O366 1.266 . S
Co374 O377 1.970 . S
Co374 N391 1.989 . S
Co374 O399 1.967 . S
Co374 O406 1.920 . S
Co375 O378 1.966 . S
Co375 N384 2.022 1_556 S
Co375 N392 1.993 . S
Co375 O400 1.941 . S
C376 O377 1.258 . S
C376 O378 1.263 . S
O377 Co374 1.970 . S
O377 C376 1.258 . S
O378 Co375 1.966 . S
O378 C376 1.263 . S
C379 O380 1.235 . S
C379 O406 1.289 . S
O380 C379 1.235 . S
C381 C383 1.400 . S
C381 N384 1.351 . S
C381 C386 1.501 . S
C382 C383 1.387 . S
C382 N385 1.341 . S
C383 C381 1.400 . S
C383 C382 1.387 . S
N384 Co375 2.022 1_554 S
N384 C381 1.351 . S
N384 N385 1.365 . S
N385 C382 1.341 . S
N385 N384 1.365 . S
N385 H405 0.862 . S
C386 C381 1.501 . S
C386 H387 0.961 . S
C386 H388 0.961 . S
C386 H389 0.960 . S
H387 C386 0.961 . S
H388 C386 0.961 . S
H389 C386 0.960 . S
C390 N391 1.342 . S
C390 C394 1.401 . S
C390 C395 1.499 . S
N391 Co374 1.989 . S
N391 C390 1.342 . S
N391 N392 1.388 . S
N392 Co375 1.993 . S
N392 N391 1.388 . S
N392 C393 1.346 . S
C393 N392 1.346 . S
C393 C394 1.396 . S
C393 C403 1.510 1_556 S
C394 C390 1.401 . S
C394 C393 1.396 . S
C395 C390 1.499 . S
C395 H396 0.959 . S
C395 H397 0.960 . S
C395 H398 0.961 . S
H396 C395 0.959 . S
H397 C395 0.960 . S
H398 C395 0.961 . S
O399 Co374 1.967 . S
O399 C407 1.258 . S
O400 Co375 1.941 . S
O400 C407 1.266 . S
H401 C403 0.959 . S
H402 C403 0.961 . S
C403 C393 1.510 1_554 S
C403 H401 0.959 . S
C403 H402 0.961 . S
C403 H404 0.960 . S
H404 C403 0.960 . S
H405 N385 0.862 . S
O406 Co374 1.920 . S
O406 C379 1.289 . S
C407 O399 1.258 . S
C407 O400 1.266 . S
Co408 O411 1.970 . S
Co408 N425 1.989 . S
Co408 O433 1.967 . S
Co408 O440 1.920 . S
Co409 O412 1.966 . S
Co409 N418 2.022 1_554 S
Co409 N426 1.993 . S
Co409 O434 1.941 . S
C410 O411 1.258 . S
C410 O412 1.263 . S
O411 Co408 1.970 . S
O411 C410 1.258 . S
O412 Co409 1.966 . S
O412 C410 1.263 . S
C413 O414 1.235 . S
C413 O440 1.289 . S
O414 C413 1.235 . S
C415 C417 1.400 . S
C415 N418 1.351 . S
C415 C420 1.501 . S
C416 C417 1.387 . S
C416 N419 1.341 . S
C417 C415 1.400 . S
C417 C416 1.387 . S
N418 Co409 2.022 1_556 S
N418 C415 1.351 . S
N418 N419 1.365 . S
N419 C416 1.341 . S
N419 N418 1.365 . S
N419 H439 0.862 . S
C420 C415 1.501 . S
C420 H421 0.961 . S
C420 H422 0.961 . S
C420 H423 0.960 . S
H421 C420 0.961 . S
H422 C420 0.961 . S
H423 C420 0.960 . S
C424 N425 1.342 . S
C424 C428 1.401 . S
C424 C429 1.499 . S
N425 Co408 1.989 . S
N425 C424 1.342 . S
N425 N426 1.388 . S
N426 Co409 1.993 . S
N426 N425 1.388 . S
N426 C427 1.346 . S
C427 N426 1.346 . S
C427 C428 1.396 . S
C427 C437 1.510 1_554 S
C428 C424 1.401 . S
C428 C427 1.396 . S
C429 C424 1.499 . S
C429 H430 0.959 . S
C429 H431 0.960 . S
C429 H432 0.961 . S
H430 C429 0.959 . S
H431 C429 0.960 . S
H432 C429 0.961 . S
O433 Co408 1.967 . S
O433 C441 1.258 . S
O434 Co409 1.941 . S
O434 C441 1.266 . S
H435 C437 0.959 . S
H436 C437 0.961 . S
C437 C427 1.510 1_556 S
C437 H435 0.959 . S
C437 H436 0.961 . S
C437 H438 0.960 . S
H438 C437 0.960 . S
H439 N419 0.862 . S
O440 Co408 1.920 . S
O440 C413 1.289 . S
C441 O433 1.258 . S
C441 O434 1.266 . S
Co442 O445 1.970 . S
Co442 N459 1.989 . S
Co442 O467 1.967 . S
Co442 O474 1.920 . S
Co443 O446 1.966 . S
Co443 N452 2.022 1_554 S
Co443 N460 1.993 . S
Co443 O468 1.941 . S
C444 O445 1.258 . S
C444 O446 1.263 . S
O445 Co442 1.970 . S
O445 C444 1.258 . S
O446 Co443 1.966 . S
O446 C444 1.263 . S
C447 O448 1.235 . S
C447 O474 1.289 . S
O448 C447 1.235 . S
C449 C451 1.400 . S
C449 N452 1.351 . S
C449 C454 1.501 . S
C450 C451 1.387 . S
C450 N453 1.341 . S
C451 C449 1.400 . S
C451 C450 1.387 . S
N452 Co443 2.022 1_556 S
N452 C449 1.351 . S
N452 N453 1.365 . S
N453 C450 1.341 . S
N453 N452 1.365 . S
N453 H473 0.862 . S
C454 C449 1.501 . S
C454 H455 0.961 . S
C454 H456 0.961 . S
C454 H457 0.960 . S
H455 C454 0.961 . S
H456 C454 0.961 . S
H457 C454 0.960 . S
C458 N459 1.342 . S
C458 C462 1.401 . S
C458 C463 1.499 . S
N459 Co442 1.989 . S
N459 C458 1.342 . S
N459 N460 1.388 . S
N460 Co443 1.993 . S
N460 N459 1.388 . S
N460 C461 1.346 . S
C461 N460 1.346 . S
C461 C462 1.396 . S
C461 C471 1.510 1_554 S
C462 C458 1.401 . S
C462 C461 1.396 . S
C463 C458 1.499 . S
C463 H464 0.959 . S
C463 H465 0.960 . S
C463 H466 0.961 . S
H464 C463 0.959 . S
H465 C463 0.960 . S
H466 C463 0.961 . S
O467 Co442 1.967 . S
O467 C475 1.258 . S
O468 Co443 1.941 . S
O468 C475 1.266 . S
H469 C471 0.959 . S
H470 C471 0.961 . S
C471 C461 1.510 1_556 S
C471 H469 0.959 . S
C471 H470 0.961 . S
C471 H472 0.960 . S
H472 C471 0.960 . S
H473 N453 0.862 . S
O474 Co442 1.920 . S
O474 C447 1.289 . S
C475 O467 1.258 . S
C475 O468 1.266 . S
Co476 O479 1.970 . S
Co476 N493 1.989 . S
Co476 O501 1.967 . S
Co476 O508 1.920 . S
Co477 O480 1.966 . S
Co477 N486 2.022 1_554 S
Co477 N494 1.993 . S
Co477 O502 1.941 . S
C478 O479 1.258 . S
C478 O480 1.263 . S
O479 Co476 1.970 . S
O479 C478 1.258 . S
O480 Co477 1.966 . S
O480 C478 1.263 . S
C481 O482 1.235 . S
C481 O508 1.289 . S
O482 C481 1.235 . S
C483 C485 1.400 . S
C483 N486 1.351 . S
C483 C488 1.501 . S
C484 C485 1.387 . S
C484 N487 1.341 . S
C485 C483 1.400 . S
C485 C484 1.387 . S
N486 Co477 2.022 1_556 S
N486 C483 1.351 . S
N486 N487 1.365 . S
N487 C484 1.341 . S
N487 N486 1.365 . S
N487 H507 0.862 . S
C488 C483 1.501 . S
C488 H489 0.961 . S
C488 H490 0.961 . S
C488 H491 0.960 . S
H489 C488 0.961 . S
H490 C488 0.961 . S
H491 C488 0.960 . S
C492 N493 1.342 . S
C492 C496 1.401 . S
C492 C497 1.499 . S
N493 Co476 1.989 . S
N493 C492 1.342 . S
N493 N494 1.388 . S
N494 Co477 1.993 . S
N494 N493 1.388 . S
N494 C495 1.346 . S
C495 N494 1.346 . S
C495 C496 1.396 . S
C495 C505 1.510 1_554 S
C496 C492 1.401 . S
C496 C495 1.396 . S
C497 C492 1.499 . S
C497 H498 0.959 . S
C497 H499 0.960 . S
C497 H500 0.961 . S
H498 C497 0.959 . S
H499 C497 0.960 . S
H500 C497 0.961 . S
O501 Co476 1.967 . S
O501 C509 1.258 . S
O502 Co477 1.941 . S
O502 C509 1.266 . S
H503 C505 0.959 . S
H504 C505 0.961 . S
C505 C495 1.510 1_556 S
C505 H503 0.959 . S
C505 H504 0.961 . S
C505 H506 0.960 . S
H506 C505 0.960 . S
H507 N487 0.862 . S
O508 Co476 1.920 . S
O508 C481 1.289 . S
C509 O501 1.258 . S
C509 O502 1.266 . S
Co510 O513 1.970 . S
Co510 N527 1.989 . S
Co510 O535 1.967 . S
Co510 O542 1.920 . S
Co511 O514 1.966 . S
Co511 N520 2.022 . S
Co511 N528 1.993 . S
Co511 O536 1.941 . S
C512 O513 1.258 . S
C512 O514 1.263 . S
O513 Co510 1.970 . S
O513 C512 1.258 . S
O514 Co511 1.966 . S
O514 C512 1.263 . S
C515 O516 1.235 . S
C515 O542 1.289 . S
O516 C515 1.235 . S
C517 C519 1.400 . S
C517 N520 1.351 . S
C517 C522 1.501 . S
C518 C519 1.387 . S
C518 N521 1.341 . S
C519 C517 1.400 . S
C519 C518 1.387 . S
N520 Co511 2.022 . S
N520 C517 1.351 . S
N520 N521 1.365 . S
N521 C518 1.341 . S
N521 N520 1.365 . S
N521 H541 0.862 . S
C522 C517 1.501 . S
C522 H523 0.961 . S
C522 H524 0.961 . S
C522 H525 0.960 . S
H523 C522 0.961 . S
H524 C522 0.961 . S
H525 C522 0.960 . S
C526 N527 1.342 . S
C526 C530 1.401 . S
C526 C531 1.499 . S
N527 Co510 1.989 . S
N527 C526 1.342 . S
N527 N528 1.388 . S
N528 Co511 1.993 . S
N528 N527 1.388 . S
N528 C529 1.346 . S
C529 N528 1.346 . S
C529 C530 1.396 . S
C529 C539 1.510 . S
C530 C526 1.401 . S
C530 C529 1.396 . S
C531 C526 1.499 . S
C531 H532 0.959 . S
C531 H533 0.960 . S
C531 H534 0.961 . S
H532 C531 0.959 . S
H533 C531 0.960 . S
H534 C531 0.961 . S
O535 Co510 1.967 . S
O535 C543 1.258 . S
O536 Co511 1.941 . S
O536 C543 1.266 . S
H537 C539 0.959 . S
H538 C539 0.961 . S
C539 C529 1.510 . S
C539 H537 0.959 . S
C539 H538 0.961 . S
C539 H540 0.960 . S
H540 C539 0.960 . S
H541 N521 0.862 . S
O542 Co510 1.920 . S
O542 C515 1.289 . S
C543 O535 1.258 . S
C543 O536 1.266 . S
Co544 O547 1.970 . S
Co544 N561 1.989 . S
Co544 O569 1.967 . S
Co544 O576 1.920 . S
Co545 O548 1.966 . S
Co545 N554 2.022 . S
Co545 N562 1.993 . S
Co545 O570 1.941 . S
C546 O547 1.258 . S
C546 O548 1.263 . S
O547 Co544 1.970 . S
O547 C546 1.258 . S
O548 Co545 1.966 . S
O548 C546 1.263 . S
C549 O550 1.235 . S
C549 O576 1.289 . S
O550 C549 1.235 . S
C551 C553 1.400 . S
C551 N554 1.351 . S
C551 C556 1.501 . S
C552 C553 1.387 . S
C552 N555 1.341 . S
C553 C551 1.400 . S
C553 C552 1.387 . S
N554 Co545 2.022 . S
N554 C551 1.351 . S
N554 N555 1.365 . S
N555 C552 1.341 . S
N555 N554 1.365 . S
N555 H575 0.862 . S
C556 C551 1.501 . S
C556 H557 0.961 . S
C556 H558 0.961 . S
C556 H559 0.960 . S
H557 C556 0.961 . S
H558 C556 0.961 . S
H559 C556 0.960 . S
C560 N561 1.342 . S
C560 C564 1.401 . S
C560 C565 1.499 . S
N561 Co544 1.989 . S
N561 C560 1.342 . S
N561 N562 1.388 . S
N562 Co545 1.993 . S
N562 N561 1.388 . S
N562 C563 1.346 . S
C563 N562 1.346 . S
C563 C564 1.396 . S
C563 C573 1.510 . S
C564 C560 1.401 . S
C564 C563 1.396 . S
C565 C560 1.499 . S
C565 H566 0.959 . S
C565 H567 0.960 . S
C565 H568 0.961 . S
H566 C565 0.959 . S
H567 C565 0.960 . S
H568 C565 0.961 . S
O569 Co544 1.967 . S
O569 C577 1.258 . S
O570 Co545 1.941 . S
O570 C577 1.266 . S
H571 C573 0.959 . S
H572 C573 0.961 . S
C573 C563 1.510 . S
C573 H571 0.959 . S
C573 H572 0.961 . S
C573 H574 0.960 . S
H574 C573 0.960 . S
H575 N555 0.862 . S
O576 Co544 1.920 . S
O576 C549 1.289 . S
C577 O569 1.258 . S
C577 O570 1.266 . S
Co578 O581 1.970 . S
Co578 N595 1.989 . S
Co578 O603 1.967 . S
Co578 O610 1.920 . S
Co579 O582 1.966 . S
Co579 N588 2.022 . S
Co579 N596 1.993 . S
Co579 O604 1.941 . S
C580 O581 1.258 . S
C580 O582 1.263 . S
O581 Co578 1.970 . S
O581 C580 1.258 . S
O582 Co579 1.966 . S
O582 C580 1.263 . S
C583 O584 1.235 . S
C583 O610 1.289 . S
O584 C583 1.235 . S
C585 C587 1.400 . S
C585 N588 1.351 . S
C585 C590 1.501 . S
C586 C587 1.387 . S
C586 N589 1.341 . S
C587 C585 1.400 . S
C587 C586 1.387 . S
N588 Co579 2.022 . S
N588 C585 1.351 . S
N588 N589 1.365 . S
N589 C586 1.341 . S
N589 N588 1.365 . S
N589 H609 0.862 . S
C590 C585 1.501 . S
C590 H591 0.961 . S
C590 H592 0.961 . S
C590 H593 0.960 . S
H591 C590 0.961 . S
H592 C590 0.961 . S
H593 C590 0.960 . S
C594 N595 1.342 . S
C594 C598 1.401 . S
C594 C599 1.499 . S
N595 Co578 1.989 . S
N595 C594 1.342 . S
N595 N596 1.388 . S
N596 Co579 1.993 . S
N596 N595 1.388 . S
N596 C597 1.346 . S
C597 N596 1.346 . S
C597 C598 1.396 . S
C597 C607 1.510 . S
C598 C594 1.401 . S
C598 C597 1.396 . S
C599 C594 1.499 . S
C599 H600 0.959 . S
C599 H601 0.960 . S
C599 H602 0.961 . S
H600 C599 0.959 . S
H601 C599 0.960 . S
H602 C599 0.961 . S
O603 Co578 1.967 . S
O603 C611 1.258 . S
O604 Co579 1.941 . S
O604 C611 1.266 . S
H605 C607 0.959 . S
H606 C607 0.961 . S
C607 C597 1.510 . S
C607 H605 0.959 . S
C607 H606 0.961 . S
C607 H608 0.960 . S
H608 C607 0.960 . S
H609 N589 0.862 . S
O610 Co578 1.920 . S
O610 C583 1.289 . S
C611 O603 1.258 . S
C611 O604 1.266 . S
C612 C613 1.349 . S
C612 C614 1.327 . S
C612 H637 0.950 . S
C613 C612 1.349 . S
C613 C629 1.349 . S
C614 C612 1.327 . S
C614 C633 1.429 . S
C614 H638 0.950 . S
C615 C632 1.574 . S
C615 C634 1.368 . S
C615 H639 0.949 . S
H616 C620 0.949 . S
C617 C618 1.349 . S
C617 C619 1.327 . S
C617 H640 0.950 . S
C618 C617 1.349 . S
C618 C630 1.349 . S
C619 C617 1.327 . S
C619 C635 1.429 . S
C619 H641 0.950 . S
C620 H616 0.949 . S
C620 C628 1.574 . S
C620 C636 1.368 . S
H621 C629 0.950 . S
H622 C627 0.950 . S
H623 C628 0.949 . S
H624 C630 0.950 . S
H625 C631 0.950 . S
H626 C632 0.949 . S
C627 H622 0.950 . S
C627 C629 1.327 . S
C627 C633 1.429 . S
C628 C620 1.574 . S
C628 H623 0.949 . S
C628 C634 1.368 . S
C629 C613 1.349 . S
C629 H621 0.950 . S
C629 C627 1.327 . S
C630 C618 1.349 . S
C630 H624 0.950 . S
C630 C631 1.327 . S
C631 H625 0.950 . S
C631 C630 1.327 . S
C631 C635 1.429 . S
C632 C615 1.574 . S
C632 H626 0.949 . S
C632 C636 1.368 . S
C633 C614 1.429 . S
C633 C627 1.429 . S
C633 C634 1.523 . S
C634 C615 1.368 . S
C634 C628 1.368 . S
C634 C633 1.523 . S
C635 C619 1.429 . S
C635 C631 1.429 . S
C635 C636 1.523 . S
C636 C620 1.368 . S
C636 C632 1.368 . S
C636 C635 1.523 . S
H637 C612 0.950 . S
H638 C614 0.950 . S
H639 C615 0.949 . S
H640 C617 0.950 . S
H641 C619 0.950 . S
C642 C643 1.349 . S
C642 C644 1.327 . S
C642 H667 0.950 . S
C643 C642 1.349 . S
C643 C659 1.349 . S
C644 C642 1.327 . S
C644 C663 1.429 . S
C644 H668 0.950 . S
C645 C662 1.574 1_545 S
C645 C664 1.368 . S
C645 H669 0.949 . S
H646 C650 0.949 . S
C647 C648 1.349 . S
C647 C649 1.327 . S
C647 H670 0.950 . S
C648 C647 1.349 . S
C648 C660 1.349 . S
C649 C647 1.327 . S
C649 C665 1.429 . S
C649 H671 0.950 . S
C650 H646 0.949 . S
C650 C658 1.574 1_565 S
C650 C666 1.368 . S
H651 C659 0.950 . S
H652 C657 0.950 . S
H653 C658 0.949 . S
H654 C660 0.950 . S
H655 C661 0.950 . S
H656 C662 0.949 . S
C657 H652 0.950 . S
C657 C659 1.327 . S
C657 C663 1.429 . S
C658 C650 1.574 1_545 S
C658 H653 0.949 . S
C658 C664 1.368 . S
C659 C643 1.349 . S
C659 H651 0.950 . S
C659 C657 1.327 . S
C660 C648 1.349 . S
C660 H654 0.950 . S
C660 C661 1.327 . S
C661 H655 0.950 . S
C661 C660 1.327 . S
C661 C665 1.429 . S
C662 C645 1.574 1_565 S
C662 H656 0.949 . S
C662 C666 1.368 . S
C663 C644 1.429 . S
C663 C657 1.429 . S
C663 C664 1.523 . S
C664 C645 1.368 . S
C664 C658 1.368 . S
C664 C663 1.523 . S
C665 C649 1.429 . S
C665 C661 1.429 . S
C665 C666 1.523 . S
C666 C650 1.368 . S
C666 C662 1.368 . S
C666 C665 1.523 . S
H667 C642 0.950 . S
H668 C644 0.950 . S
H669 C645 0.949 . S
H670 C647 0.950 . S
H671 C649 0.950 . S
C672 C673 1.349 . S
C672 C674 1.327 . S
C672 H697 0.950 . S
C673 C672 1.349 . S
C673 C689 1.349 . S
C674 C672 1.327 . S
C674 C693 1.429 . S
C674 H698 0.950 . S
C675 C692 1.574 1_655 S
C675 C694 1.368 . S
C675 H699 0.949 . S
H676 C680 0.949 . S
C677 C678 1.349 . S
C677 C679 1.327 . S
C677 H700 0.950 . S
C678 C677 1.349 . S
C678 C690 1.349 . S
C679 C677 1.327 . S
C679 C695 1.429 . S
C679 H701 0.950 . S
C680 H676 0.949 . S
C680 C688 1.574 1_455 S
C680 C696 1.368 . S
H681 C689 0.950 . S
H682 C687 0.950 . S
H683 C688 0.949 . S
H684 C690 0.950 . S
H685 C691 0.950 . S
H686 C692 0.949 . S
C687 H682 0.950 . S
C687 C689 1.327 . S
C687 C693 1.429 . S
C688 C680 1.574 1_655 S
C688 H683 0.949 . S
C688 C694 1.368 . S
C689 C673 1.349 . S
C689 H681 0.950 . S
C689 C687 1.327 . S
C690 C678 1.349 . S
C690 H684 0.950 . S
C690 C691 1.327 . S
C691 H685 0.950 . S
C691 C690 1.327 . S
C691 C695 1.429 . S
C692 C675 1.574 1_455 S
C692 H686 0.949 . S
C692 C696 1.368 . S
C693 C674 1.429 . S
C693 C687 1.429 . S
C693 C694 1.523 . S
C694 C675 1.368 . S
C694 C688 1.368 . S
C694 C693 1.523 . S
C695 C679 1.429 . S
C695 C691 1.429 . S
C695 C696 1.523 . S
C696 C680 1.368 . S
C696 C692 1.368 . S
C696 C695 1.523 . S
H697 C672 0.950 . S
H698 C674 0.950 . S
H699 C675 0.949 . S
H700 C677 0.950 . S
H701 C679 0.950 . S
C702 C703 1.349 . S
C702 C704 1.327 . S
C702 H727 0.950 . S
C703 C702 1.349 . S
C703 C719 1.349 . S
C704 C702 1.327 . S
C704 C723 1.429 . S
C704 H728 0.950 . S
C705 C722 1.574 . S
C705 C724 1.368 . S
C705 H729 0.949 . S
H706 C710 0.949 . S
C707 C708 1.349 . S
C707 C709 1.327 . S
C707 H730 0.950 . S
C708 C707 1.349 . S
C708 C720 1.349 . S
C709 C707 1.327 . S
C709 C725 1.429 . S
C709 H731 0.950 . S
C710 H706 0.949 . S
C710 C718 1.574 . S
C710 C726 1.368 . S
H711 C719 0.950 . S
H712 C717 0.950 . S
H713 C718 0.949 . S
H714 C720 0.950 . S
H715 C721 0.950 . S
H716 C722 0.949 . S
C717 H712 0.950 . S
C717 C719 1.327 . S
C717 C723 1.429 . S
C718 C710 1.574 . S
C718 H713 0.949 . S
C718 C724 1.368 . S
C719 C703 1.349 . S
C719 H711 0.950 . S
C719 C717 1.327 . S
C720 C708 1.349 . S
C720 H714 0.950 . S
C720 C721 1.327 . S
C721 H715 0.950 . S
C721 C720 1.327 . S
C721 C725 1.429 . S
C722 C705 1.574 . S
C722 H716 0.949 . S
C722 C726 1.368 . S
C723 C704 1.429 . S
C723 C717 1.429 . S
C723 C724 1.523 . S
C724 C705 1.368 . S
C724 C718 1.368 . S
C724 C723 1.523 . S
C725 C709 1.429 . S
C725 C721 1.429 . S
C725 C726 1.523 . S
C726 C710 1.368 . S
C726 C722 1.368 . S
C726 C725 1.523 . S
H727 C702 0.950 . S
H728 C704 0.950 . S
H729 C705 0.949 . S
H730 C707 0.950 . S
H731 C709 0.950 . S
C732 C733 1.349 . S
C732 C734 1.327 . S
C732 H757 0.950 . S
C733 C732 1.349 . S
C733 C749 1.349 . S
C734 C732 1.327 . S
C734 C753 1.429 . S
C734 H758 0.950 . S
C735 C752 1.574 1_545 S
C735 C754 1.368 . S
C735 H759 0.949 . S
H736 C740 0.949 . S
C737 C738 1.349 . S
C737 C739 1.327 . S
C737 H760 0.950 . S
C738 C737 1.349 . S
C738 C750 1.349 . S
C739 C737 1.327 . S
C739 C755 1.429 . S
C739 H761 0.950 . S
C740 H736 0.949 . S
C740 C748 1.574 1_565 S
C740 C756 1.368 . S
H741 C749 0.950 . S
H742 C747 0.950 . S
H743 C748 0.949 . S
H744 C750 0.950 . S
H745 C751 0.950 . S
H746 C752 0.949 . S
C747 H742 0.950 . S
C747 C749 1.327 . S
C747 C753 1.429 . S
C748 C740 1.574 1_545 S
C748 H743 0.949 . S
C748 C754 1.368 . S
C749 C733 1.349 . S
C749 H741 0.950 . S
C749 C747 1.327 . S
C750 C738 1.349 . S
C750 H744 0.950 . S
C750 C751 1.327 . S
C751 H745 0.950 . S
C751 C750 1.327 . S
C751 C755 1.429 . S
C752 C735 1.574 1_565 S
C752 H746 0.949 . S
C752 C756 1.368 . S
C753 C734 1.429 . S
C753 C747 1.429 . S
C753 C754 1.523 . S
C754 C735 1.368 . S
C754 C748 1.368 . S
C754 C753 1.523 . S
C755 C739 1.429 . S
C755 C751 1.429 . S
C755 C756 1.523 . S
C756 C740 1.368 . S
C756 C752 1.368 . S
C756 C755 1.523 . S
H757 C732 0.950 . S
H758 C734 0.950 . S
H759 C735 0.949 . S
H760 C737 0.950 . S
H761 C739 0.950 . S
C762 C763 1.349 . S
C762 C764 1.327 . S
C762 H787 0.950 . S
C763 C762 1.349 . S
C763 C779 1.349 . S
C764 C762 1.327 . S
C764 C783 1.429 . S
C764 H788 0.950 . S
C765 C782 1.574 1_655 S
C765 C784 1.368 . S
C765 H789 0.949 . S
H766 C770 0.949 . S
C767 C768 1.349 . S
C767 C769 1.327 . S
C767 H790 0.950 . S
C768 C767 1.349 . S
C768 C780 1.349 . S
C769 C767 1.327 . S
C769 C785 1.429 . S
C769 H791 0.950 . S
C770 H766 0.949 . S
C770 C778 1.574 1_455 S
C770 C786 1.368 . S
H771 C779 0.950 . S
H772 C777 0.950 . S
H773 C778 0.949 . S
H774 C780 0.950 . S
H775 C781 0.950 . S
H776 C782 0.949 . S
C777 H772 0.950 . S
C777 C779 1.327 . S
C777 C783 1.429 . S
C778 C770 1.574 1_655 S
C778 H773 0.949 . S
C778 C784 1.368 . S
C779 C763 1.349 . S
C779 H771 0.950 . S
C779 C777 1.327 . S
C780 C768 1.349 . S
C780 H774 0.950 . S
C780 C781 1.327 . S
C781 H775 0.950 . S
C781 C780 1.327 . S
C781 C785 1.429 . S
C782 C765 1.574 1_455 S
C782 H776 0.949 . S
C782 C786 1.368 . S
C783 C764 1.429 . S
C783 C777 1.429 . S
C783 C784 1.523 . S
C784 C765 1.368 . S
C784 C778 1.368 . S
C784 C783 1.523 . S
C785 C769 1.429 . S
C785 C781 1.429 . S
C785 C786 1.523 . S
C786 C770 1.368 . S
C786 C782 1.368 . S
C786 C785 1.523 . S
H787 C762 0.950 . S
H788 C764 0.950 . S
H789 C765 0.949 . S
H790 C767 0.950 . S
H791 C769 0.950 . S
C792 C793 1.349 . S
C792 C794 1.327 . S
C792 H817 0.950 . S
C793 C792 1.349 . S
C793 C809 1.349 . S
C794 C792 1.327 . S
C794 C813 1.429 . S
C794 H818 0.950 . S
C795 C812 1.574 . S
C795 C814 1.368 . S
C795 H819 0.949 . S
H796 C800 0.949 . S
C797 C798 1.349 . S
C797 C799 1.327 . S
C797 H820 0.950 . S
C798 C797 1.349 . S
C798 C810 1.349 . S
C799 C797 1.327 . S
C799 C815 1.429 . S
C799 H821 0.950 . S
C800 H796 0.949 . S
C800 C808 1.574 . S
C800 C816 1.368 . S
H801 C809 0.950 . S
H802 C807 0.950 . S
H803 C808 0.949 . S
H804 C810 0.950 . S
H805 C811 0.950 . S
H806 C812 0.949 . S
C807 H802 0.950 . S
C807 C809 1.327 . S
C807 C813 1.429 . S
C808 C800 1.574 . S
C808 H803 0.949 . S
C808 C814 1.368 . S
C809 C793 1.349 . S
C809 H801 0.950 . S
C809 C807 1.327 . S
C810 C798 1.349 . S
C810 H804 0.950 . S
C810 C811 1.327 . S
C811 H805 0.950 . S
C811 C810 1.327 . S
C811 C815 1.429 . S
C812 C795 1.574 . S
C812 H806 0.949 . S
C812 C816 1.368 . S
C813 C794 1.429 . S
C813 C807 1.429 . S
C813 C814 1.523 . S
C814 C795 1.368 . S
C814 C808 1.368 . S
C814 C813 1.523 . S
C815 C799 1.429 . S
C815 C811 1.429 . S
C815 C816 1.523 . S
C816 C800 1.368 . S
C816 C812 1.368 . S
C816 C815 1.523 . S
H817 C792 0.950 . S
H818 C794 0.950 . S
H819 C795 0.949 . S
H820 C797 0.950 . S
H821 C799 0.950 . S
C822 C823 1.349 . S
C822 C824 1.327 . S
C822 H847 0.950 . S
C823 C822 1.349 . S
C823 C839 1.349 . S
C824 C822 1.327 . S
C824 C843 1.429 . S
C824 H848 0.950 . S
C825 C842 1.574 . S
C825 C844 1.368 . S
C825 H849 0.949 . S
H826 C830 0.949 . S
C827 C828 1.349 . S
C827 C829 1.327 . S
C827 H850 0.950 . S
C828 C827 1.349 . S
C828 C840 1.349 . S
C829 C827 1.327 . S
C829 C845 1.429 . S
C829 H851 0.950 . S
C830 H826 0.949 . S
C830 C838 1.574 . S
C830 C846 1.368 . S
H831 C839 0.950 . S
H832 C837 0.950 . S
H833 C838 0.949 . S
H834 C840 0.950 . S
H835 C841 0.950 . S
H836 C842 0.949 . S
C837 H832 0.950 . S
C837 C839 1.327 . S
C837 C843 1.429 . S
C838 C830 1.574 . S
C838 H833 0.949 . S
C838 C844 1.368 . S
C839 C823 1.349 . S
C839 H831 0.950 . S
C839 C837 1.327 . S
C840 C828 1.349 . S
C840 H834 0.950 . S
C840 C841 1.327 . S
C841 H835 0.950 . S
C841 C840 1.327 . S
C841 C845 1.429 . S
C842 C825 1.574 . S
C842 H836 0.949 . S
C842 C846 1.368 . S
C843 C824 1.429 . S
C843 C837 1.429 . S
C843 C844 1.523 . S
C844 C825 1.368 . S
C844 C838 1.368 . S
C844 C843 1.523 . S
C845 C829 1.429 . S
C845 C841 1.429 . S
C845 C846 1.523 . S
C846 C830 1.368 . S
C846 C842 1.368 . S
C846 C845 1.523 . S
H847 C822 0.950 . S
H848 C824 0.950 . S
H849 C825 0.949 . S
H850 C827 0.950 . S
H851 C829 0.950 . S
C852 C853 1.349 . S
C852 C854 1.327 . S
C852 H877 0.950 . S
C853 C852 1.349 . S
C853 C869 1.349 . S
C854 C852 1.327 . S
C854 C873 1.429 . S
C854 H878 0.950 . S
C855 C872 1.574 . S
C855 C874 1.368 . S
C855 H879 0.949 . S
H856 C860 0.949 . S
C857 C858 1.349 . S
C857 C859 1.327 . S
C857 H880 0.950 . S
C858 C857 1.349 . S
C858 C870 1.349 . S
C859 C857 1.327 . S
C859 C875 1.429 . S
C859 H881 0.950 . S
C860 H856 0.949 . S
C860 C868 1.574 . S
C860 C876 1.368 . S
H861 C869 0.950 . S
H862 C867 0.950 . S
H863 C868 0.949 . S
H864 C870 0.950 . S
H865 C871 0.950 . S
H866 C872 0.949 . S
C867 H862 0.950 . S
C867 C869 1.327 . S
C867 C873 1.429 . S
C868 C860 1.574 . S
C868 H863 0.949 . S
C868 C874 1.368 . S
C869 C853 1.349 . S
C869 H861 0.950 . S
C869 C867 1.327 . S
C870 C858 1.349 . S
C870 H864 0.950 . S
C870 C871 1.327 . S
C871 H865 0.950 . S
C871 C870 1.327 . S
C871 C875 1.429 . S
C872 C855 1.574 . S
C872 H866 0.949 . S
C872 C876 1.368 . S
C873 C854 1.429 . S
C873 C867 1.429 . S
C873 C874 1.523 . S
C874 C855 1.368 . S
C874 C868 1.368 . S
C874 C873 1.523 . S
C875 C859 1.429 . S
C875 C871 1.429 . S
C875 C876 1.523 . S
C876 C860 1.368 . S
C876 C872 1.368 . S
C876 C875 1.523 . S
H877 C852 0.950 . S
H878 C854 0.950 . S
H879 C855 0.949 . S
H880 C857 0.950 . S
H881 C859 0.950 . S
C882 C883 1.349 . S
C882 C884 1.327 . S
C882 H907 0.950 . S
C883 C882 1.349 . S
C883 C899 1.349 . S
C884 C882 1.327 . S
C884 C903 1.429 . S
C884 H908 0.950 . S
C885 C902 1.574 . S
C885 C904 1.368 . S
C885 H909 0.949 . S
H886 C890 0.949 . S
C887 C888 1.349 . S
C887 C889 1.327 . S
C887 H910 0.950 . S
C888 C887 1.349 . S
C888 C900 1.349 . S
C889 C887 1.327 . S
C889 C905 1.429 . S
C889 H911 0.950 . S
C890 H886 0.949 . S
C890 C898 1.574 . S
C890 C906 1.368 . S
H891 C899 0.950 . S
H892 C897 0.950 . S
H893 C898 0.949 . S
H894 C900 0.950 . S
H895 C901 0.950 . S
H896 C902 0.949 . S
C897 H892 0.950 . S
C897 C899 1.327 . S
C897 C903 1.429 . S
C898 C890 1.574 . S
C898 H893 0.949 . S
C898 C904 1.368 . S
C899 C883 1.349 . S
C899 H891 0.950 . S
C899 C897 1.327 . S
C900 C888 1.349 . S
C900 H894 0.950 . S
C900 C901 1.327 . S
C901 H895 0.950 . S
C901 C900 1.327 . S
C901 C905 1.429 . S
C902 C885 1.574 . S
C902 H896 0.949 . S
C902 C906 1.368 . S
C903 C884 1.429 . S
C903 C897 1.429 . S
C903 C904 1.523 . S
C904 C885 1.368 . S
C904 C898 1.368 . S
C904 C903 1.523 . S
C905 C889 1.429 . S
C905 C901 1.429 . S
C905 C906 1.523 . S
C906 C890 1.368 . S
C906 C902 1.368 . S
C906 C905 1.523 . S
H907 C882 0.950 . S
H908 C884 0.950 . S
H909 C885 0.949 . S
H910 C887 0.950 . S
H911 C889 0.950 . S
C912 C913 1.349 . S
C912 C914 1.327 . S
C912 H937 0.950 . S
C913 C912 1.349 . S
C913 C929 1.349 . S
C914 C912 1.327 . S
C914 C933 1.429 . S
C914 H938 0.950 . S
C915 C932 1.574 . S
C915 C934 1.368 . S
C915 H939 0.949 . S
H916 C920 0.949 . S
C917 C918 1.349 . S
C917 C919 1.327 . S
C917 H940 0.950 . S
C918 C917 1.349 . S
C918 C930 1.349 . S
C919 C917 1.327 . S
C919 C935 1.429 . S
C919 H941 0.950 . S
C920 H916 0.949 . S
C920 C928 1.574 . S
C920 C936 1.368 . S
H921 C929 0.950 . S
H922 C927 0.950 . S
H923 C928 0.949 . S
H924 C930 0.950 . S
H925 C931 0.950 . S
H926 C932 0.949 . S
C927 H922 0.950 . S
C927 C929 1.327 . S
C927 C933 1.429 . S
C928 C920 1.574 . S
C928 H923 0.949 . S
C928 C934 1.368 . S
C929 C913 1.349 . S
C929 H921 0.950 . S
C929 C927 1.327 . S
C930 C918 1.349 . S
C930 H924 0.950 . S
C930 C931 1.327 . S
C931 H925 0.950 . S
C931 C930 1.327 . S
C931 C935 1.429 . S
C932 C915 1.574 . S
C932 H926 0.949 . S
C932 C936 1.368 . S
C933 C914 1.429 . S
C933 C927 1.429 . S
C933 C934 1.523 . S
C934 C915 1.368 . S
C934 C928 1.368 . S
C934 C933 1.523 . S
C935 C919 1.429 . S
C935 C931 1.429 . S
C935 C936 1.523 . S
C936 C920 1.368 . S
C936 C932 1.368 . S
C936 C935 1.523 . S
H937 C912 0.950 . S
H938 C914 0.950 . S
H939 C915 0.949 . S
H940 C917 0.950 . S
H941 C919 0.950 . S
C942 C943 1.349 . S
C942 C944 1.327 . S
C942 H967 0.950 . S
C943 C942 1.349 . S
C943 C959 1.349 . S
C944 C942 1.327 . S
C944 C963 1.429 . S
C944 H968 0.950 . S
C945 C962 1.574 . S
C945 C964 1.368 . S
C945 H969 0.949 . S
H946 C950 0.949 . S
C947 C948 1.349 . S
C947 C949 1.327 . S
C947 H970 0.950 . S
C948 C947 1.349 . S
C948 C960 1.349 . S
C949 C947 1.327 . S
C949 C965 1.429 . S
C949 H971 0.950 . S
C950 H946 0.949 . S
C950 C958 1.574 . S
C950 C966 1.368 . S
H951 C959 0.950 . S
H952 C957 0.950 . S
H953 C958 0.949 . S
H954 C960 0.950 . S
H955 C961 0.950 . S
H956 C962 0.949 . S
C957 H952 0.950 . S
C957 C959 1.327 . S
C957 C963 1.429 . S
C958 C950 1.574 . S
C958 H953 0.949 . S
C958 C964 1.368 . S
C959 C943 1.349 . S
C959 H951 0.950 . S
C959 C957 1.327 . S
C960 C948 1.349 . S
C960 H954 0.950 . S
C960 C961 1.327 . S
C961 H955 0.950 . S
C961 C960 1.327 . S
C961 C965 1.429 . S
C962 C945 1.574 . S
C962 H956 0.949 . S
C962 C966 1.368 . S
C963 C944 1.429 . S
C963 C957 1.429 . S
C963 C964 1.523 . S
C964 C945 1.368 . S
C964 C958 1.368 . S
C964 C963 1.523 . S
C965 C949 1.429 . S
C965 C961 1.429 . S
C965 C966 1.523 . S
C966 C950 1.368 . S
C966 C962 1.368 . S
C966 C965 1.523 . S
H967 C942 0.950 . S
H968 C944 0.950 . S
H969 C945 0.949 . S
H970 C947 0.950 . S
H971 C949 0.950 . S
C972 C973 1.349 . S
C972 C974 1.327 . S
C972 H997 0.950 . S
C973 C972 1.349 . S
C973 C989 1.349 . S
C974 C972 1.327 . S
C974 C993 1.429 . S
C974 H998 0.950 . S
C975 C992 1.574 . S
C975 C994 1.368 . S
C975 H999 0.949 . S
H976 C980 0.949 . S
C977 C978 1.349 . S
C977 C979 1.327 . S
C977 H1000 0.950 . S
C978 C977 1.349 . S
C978 C990 1.349 . S
C979 C977 1.327 . S
C979 C995 1.429 . S
C979 H1001 0.950 . S
C980 H976 0.949 . S
C980 C988 1.574 . S
C980 C996 1.368 . S
H981 C989 0.950 . S
H982 C987 0.950 . S
H983 C988 0.949 . S
H984 C990 0.950 . S
H985 C991 0.950 . S
H986 C992 0.949 . S
C987 H982 0.950 . S
C987 C989 1.327 . S
C987 C993 1.429 . S
C988 C980 1.574 . S
C988 H983 0.949 . S
C988 C994 1.368 . S
C989 C973 1.349 . S
C989 H981 0.950 . S
C989 C987 1.327 . S
C990 C978 1.349 . S
C990 H984 0.950 . S
C990 C991 1.327 . S
C991 H985 0.950 . S
C991 C990 1.327 . S
C991 C995 1.429 . S
C992 C975 1.574 . S
C992 H986 0.949 . S
C992 C996 1.368 . S
C993 C974 1.429 . S
C993 C987 1.429 . S
C993 C994 1.523 . S
C994 C975 1.368 . S
C994 C988 1.368 . S
C994 C993 1.523 . S
C995 C979 1.429 . S
C995 C991 1.429 . S
C995 C996 1.523 . S
C996 C980 1.368 . S
C996 C992 1.368 . S
C996 C995 1.523 . S
H997 C972 0.950 . S
H998 C974 0.950 . S
H999 C975 0.949 . S
H1000 C977 0.950 . S
H1001 C979 0.950 . S
C1002 C1003 1.349 . S
C1002 C1004 1.327 . S
C1002 H1027 0.950 . S
C1003 C1002 1.349 . S
C1003 C1019 1.349 . S
C1004 C1002 1.327 . S
C1004 C1023 1.429 . S
C1004 H1028 0.950 . S
C1005 C1022 1.574 . S
C1005 C1024 1.368 . S
C1005 H1029 0.949 . S
H1006 C1010 0.949 . S
C1007 C1008 1.349 . S
C1007 C1009 1.327 . S
C1007 H1030 0.950 . S
C1008 C1007 1.349 . S
C1008 C1020 1.349 . S
C1009 C1007 1.327 . S
C1009 C1025 1.429 . S
C1009 H1031 0.950 . S
C1010 H1006 0.949 . S
C1010 C1018 1.574 . S
C1010 C1026 1.368 . S
H1011 C1019 0.950 . S
H1012 C1017 0.950 . S
H1013 C1018 0.949 . S
H1014 C1020 0.950 . S
H1015 C1021 0.950 . S
H1016 C1022 0.949 . S
C1017 H1012 0.950 . S
C1017 C1019 1.327 . S
C1017 C1023 1.429 . S
C1018 C1010 1.574 . S
C1018 H1013 0.949 . S
C1018 C1024 1.368 . S
C1019 C1003 1.349 . S
C1019 H1011 0.950 . S
C1019 C1017 1.327 . S
C1020 C1008 1.349 . S
C1020 H1014 0.950 . S
C1020 C1021 1.327 . S
C1021 H1015 0.950 . S
C1021 C1020 1.327 . S
C1021 C1025 1.429 . S
C1022 C1005 1.574 . S
C1022 H1016 0.949 . S
C1022 C1026 1.368 . S
C1023 C1004 1.429 . S
C1023 C1017 1.429 . S
C1023 C1024 1.523 . S
C1024 C1005 1.368 . S
C1024 C1018 1.368 . S
C1024 C1023 1.523 . S
C1025 C1009 1.429 . S
C1025 C1021 1.429 . S
C1025 C1026 1.523 . S
C1026 C1010 1.368 . S
C1026 C1022 1.368 . S
C1026 C1025 1.523 . S
H1027 C1002 0.950 . S
H1028 C1004 0.950 . S
H1029 C1005 0.949 . S
H1030 C1007 0.950 . S
H1031 C1009 0.950 . S
C1032 C1033 1.349 . S
C1032 C1034 1.327 . S
C1032 H1057 0.950 . S
C1033 C1032 1.349 . S
C1033 C1049 1.349 . S
C1034 C1032 1.327 . S
C1034 C1053 1.429 . S
C1034 H1058 0.950 . S
C1035 C1052 1.574 . S
C1035 C1054 1.368 . S
C1035 H1059 0.949 . S
H1036 C1040 0.949 . S
C1037 C1038 1.349 . S
C1037 C1039 1.327 . S
C1037 H1060 0.950 . S
C1038 C1037 1.349 . S
C1038 C1050 1.349 . S
C1039 C1037 1.327 . S
C1039 C1055 1.429 . S
C1039 H1061 0.950 . S
C1040 H1036 0.949 . S
C1040 C1048 1.574 . S
C1040 C1056 1.368 . S
H1041 C1049 0.950 . S
H1042 C1047 0.950 . S
H1043 C1048 0.949 . S
H1044 C1050 0.950 . S
H1045 C1051 0.950 . S
H1046 C1052 0.949 . S
C1047 H1042 0.950 . S
C1047 C1049 1.327 . S
C1047 C1053 1.429 . S
C1048 C1040 1.574 . S
C1048 H1043 0.949 . S
C1048 C1054 1.368 . S
C1049 C1033 1.349 . S
C1049 H1041 0.950 . S
C1049 C1047 1.327 . S
C1050 C1038 1.349 . S
C1050 H1044 0.950 . S
C1050 C1051 1.327 . S
C1051 H1045 0.950 . S
C1051 C1050 1.327 . S
C1051 C1055 1.429 . S
C1052 C1035 1.574 . S
C1052 H1046 0.949 . S
C1052 C1056 1.368 . S
C1053 C1034 1.429 . S
C1053 C1047 1.429 . S
C1053 C1054 1.523 . S
C1054 C1035 1.368 . S
C1054 C1048 1.368 . S
C1054 C1053 1.523 . S
C1055 C1039 1.429 . S
C1055 C1051 1.429 . S
C1055 C1056 1.523 . S
C1056 C1040 1.368 . S
C1056 C1052 1.368 . S
C1056 C1055 1.523 . S
H1057 C1032 0.950 . S
H1058 C1034 0.950 . S
H1059 C1035 0.949 . S
H1060 C1037 0.950 . S
H1061 C1039 0.950 . S
C1062 C1063 1.349 . S
C1062 C1064 1.327 . S
C1062 H1087 0.950 . S
C1063 C1062 1.349 . S
C1063 C1079 1.349 . S
C1064 C1062 1.327 . S
C1064 C1083 1.429 . S
C1064 H1088 0.950 . S
C1065 C1082 1.574 . S
C1065 C1084 1.368 . S
C1065 H1089 0.949 . S
H1066 C1070 0.949 . S
C1067 C1068 1.349 . S
C1067 C1069 1.327 . S
C1067 H1090 0.950 . S
C1068 C1067 1.349 . S
C1068 C1080 1.349 . S
C1069 C1067 1.327 . S
C1069 C1085 1.429 . S
C1069 H1091 0.950 . S
C1070 H1066 0.949 . S
C1070 C1078 1.574 . S
C1070 C1086 1.368 . S
H1071 C1079 0.950 . S
H1072 C1077 0.950 . S
H1073 C1078 0.949 . S
H1074 C1080 0.950 . S
H1075 C1081 0.950 . S
H1076 C1082 0.949 . S
C1077 H1072 0.950 . S
C1077 C1079 1.327 . S
C1077 C1083 1.429 . S
C1078 C1070 1.574 . S
C1078 H1073 0.949 . S
C1078 C1084 1.368 . S
C1079 C1063 1.349 . S
C1079 H1071 0.950 . S
C1079 C1077 1.327 . S
C1080 C1068 1.349 . S
C1080 H1074 0.950 . S
C1080 C1081 1.327 . S
C1081 H1075 0.950 . S
C1081 C1080 1.327 . S
C1081 C1085 1.429 . S
C1082 C1065 1.574 . S
C1082 H1076 0.949 . S
C1082 C1086 1.368 . S
C1083 C1064 1.429 . S
C1083 C1077 1.429 . S
C1083 C1084 1.523 . S
C1084 C1065 1.368 . S
C1084 C1078 1.368 . S
C1084 C1083 1.523 . S
C1085 C1069 1.429 . S
C1085 C1081 1.429 . S
C1085 C1086 1.523 . S
C1086 C1070 1.368 . S
C1086 C1082 1.368 . S
C1086 C1085 1.523 . S
H1087 C1062 0.950 . S
H1088 C1064 0.950 . S
H1089 C1065 0.949 . S
H1090 C1067 0.950 . S
H1091 C1069 0.950 . S
C1092 C1093 1.349 . S
C1092 C1094 1.327 . S
C1092 H1117 0.950 . S
C1093 C1092 1.349 . S
C1093 C1109 1.349 . S
C1094 C1092 1.327 . S
C1094 C1113 1.429 . S
C1094 H1118 0.950 . S
C1095 C1112 1.574 . S
C1095 C1114 1.368 . S
C1095 H1119 0.949 . S
H1096 C1100 0.949 . S
C1097 C1098 1.349 . S
C1097 C1099 1.327 . S
C1097 H1120 0.950 . S
C1098 C1097 1.349 . S
C1098 C1110 1.349 . S
C1099 C1097 1.327 . S
C1099 C1115 1.429 . S
C1099 H1121 0.950 . S
C1100 H1096 0.949 . S
C1100 C1108 1.574 . S
C1100 C1116 1.368 . S
H1101 C1109 0.950 . S
H1102 C1107 0.950 . S
H1103 C1108 0.949 . S
H1104 C1110 0.950 . S
H1105 C1111 0.950 . S
H1106 C1112 0.949 . S
C1107 H1102 0.950 . S
C1107 C1109 1.327 . S
C1107 C1113 1.429 . S
C1108 C1100 1.574 . S
C1108 H1103 0.949 . S
C1108 C1114 1.368 . S
C1109 C1093 1.349 . S
C1109 H1101 0.950 . S
C1109 C1107 1.327 . S
C1110 C1098 1.349 . S
C1110 H1104 0.950 . S
C1110 C1111 1.327 . S
C1111 H1105 0.950 . S
C1111 C1110 1.327 . S
C1111 C1115 1.429 . S
C1112 C1095 1.574 . S
C1112 H1106 0.949 . S
C1112 C1116 1.368 . S
C1113 C1094 1.429 . S
C1113 C1107 1.429 . S
C1113 C1114 1.523 . S
C1114 C1095 1.368 . S
C1114 C1108 1.368 . S
C1114 C1113 1.523 . S
C1115 C1099 1.429 . S
C1115 C1111 1.429 . S
C1115 C1116 1.523 . S
C1116 C1100 1.368 . S
C1116 C1112 1.368 . S
C1116 C1115 1.523 . S
H1117 C1092 0.950 . S
H1118 C1094 0.950 . S
H1119 C1095 0.949 . S
H1120 C1097 0.950 . S
H1121 C1099 0.950 . S
C1122 C1123 1.349 . S
C1122 C1124 1.327 . S
C1122 H1147 0.950 . S
C1123 C1122 1.349 . S
C1123 C1139 1.349 . S
C1124 C1122 1.327 . S
C1124 C1143 1.429 . S
C1124 H1148 0.950 . S
C1125 C1142 1.574 . S
C1125 C1144 1.368 . S
C1125 H1149 0.949 . S
H1126 C1130 0.949 . S
C1127 C1128 1.349 . S
C1127 C1129 1.327 . S
C1127 H1150 0.950 . S
C1128 C1127 1.349 . S
C1128 C1140 1.349 . S
C1129 C1127 1.327 . S
C1129 C1145 1.429 . S
C1129 H1151 0.950 . S
C1130 H1126 0.949 . S
C1130 C1138 1.574 . S
C1130 C1146 1.368 . S
H1131 C1139 0.950 . S
H1132 C1137 0.950 . S
H1133 C1138 0.949 . S
H1134 C1140 0.950 . S
H1135 C1141 0.950 . S
H1136 C1142 0.949 . S
C1137 H1132 0.950 . S
C1137 C1139 1.327 . S
C1137 C1143 1.429 . S
C1138 C1130 1.574 . S
C1138 H1133 0.949 . S
C1138 C1144 1.368 . S
C1139 C1123 1.349 . S
C1139 H1131 0.950 . S
C1139 C1137 1.327 . S
C1140 C1128 1.349 . S
C1140 H1134 0.950 . S
C1140 C1141 1.327 . S
C1141 H1135 0.950 . S
C1141 C1140 1.327 . S
C1141 C1145 1.429 . S
C1142 C1125 1.574 . S
C1142 H1136 0.949 . S
C1142 C1146 1.368 . S
C1143 C1124 1.429 . S
C1143 C1137 1.429 . S
C1143 C1144 1.523 . S
C1144 C1125 1.368 . S
C1144 C1138 1.368 . S
C1144 C1143 1.523 . S
C1145 C1129 1.429 . S
C1145 C1141 1.429 . S
C1145 C1146 1.523 . S
C1146 C1130 1.368 . S
C1146 C1142 1.368 . S
C1146 C1145 1.523 . S
H1147 C1122 0.950 . S
H1148 C1124 0.950 . S
H1149 C1125 0.949 . S
H1150 C1127 0.950 . S
H1151 C1129 0.950 . S
C1152 C1153 1.349 . S
C1152 C1154 1.327 . S
C1152 H1177 0.950 . S
C1153 C1152 1.349 . S
C1153 C1169 1.349 . S
C1154 C1152 1.327 . S
C1154 C1173 1.429 . S
C1154 H1178 0.950 . S
C1155 C1172 1.574 . S
C1155 C1174 1.368 . S
C1155 H1179 0.949 . S
H1156 C1160 0.949 . S
C1157 C1158 1.349 . S
C1157 C1159 1.327 . S
C1157 H1180 0.950 . S
C1158 C1157 1.349 . S
C1158 C1170 1.349 . S
C1159 C1157 1.327 . S
C1159 C1175 1.429 . S
C1159 H1181 0.950 . S
C1160 H1156 0.949 . S
C1160 C1168 1.574 . S
C1160 C1176 1.368 . S
H1161 C1169 0.950 . S
H1162 C1167 0.950 . S
H1163 C1168 0.949 . S
H1164 C1170 0.950 . S
H1165 C1171 0.950 . S
H1166 C1172 0.949 . S
C1167 H1162 0.950 . S
C1167 C1169 1.327 . S
C1167 C1173 1.429 . S
C1168 C1160 1.574 . S
C1168 H1163 0.949 . S
C1168 C1174 1.368 . S
C1169 C1153 1.349 . S
C1169 H1161 0.950 . S
C1169 C1167 1.327 . S
C1170 C1158 1.349 . S
C1170 H1164 0.950 . S
C1170 C1171 1.327 . S
C1171 H1165 0.950 . S
C1171 C1170 1.327 . S
C1171 C1175 1.429 . S
C1172 C1155 1.574 . S
C1172 H1166 0.949 . S
C1172 C1176 1.368 . S
C1173 C1154 1.429 . S
C1173 C1167 1.429 . S
C1173 C1174 1.523 . S
C1174 C1155 1.368 . S
C1174 C1168 1.368 . S
C1174 C1173 1.523 . S
C1175 C1159 1.429 . S
C1175 C1171 1.429 . S
C1175 C1176 1.523 . S
C1176 C1160 1.368 . S
C1176 C1172 1.368 . S
C1176 C1175 1.523 . S
H1177 C1152 0.950 . S
H1178 C1154 0.950 . S
H1179 C1155 0.949 . S
H1180 C1157 0.950 . S
H1181 C1159 0.950 . S
C1182 C1183 1.349 . S
C1182 C1184 1.327 . S
C1182 H1207 0.950 . S
C1183 C1182 1.349 . S
C1183 C1199 1.349 . S
C1184 C1182 1.327 . S
C1184 C1203 1.429 . S
C1184 H1208 0.950 . S
C1185 C1202 1.574 . S
C1185 C1204 1.368 . S
C1185 H1209 0.949 . S
H1186 C1190 0.949 . S
C1187 C1188 1.349 . S
C1187 C1189 1.327 . S
C1187 H1210 0.950 . S
C1188 C1187 1.349 . S
C1188 C1200 1.349 . S
C1189 C1187 1.327 . S
C1189 C1205 1.429 . S
C1189 H1211 0.950 . S
C1190 H1186 0.949 . S
C1190 C1198 1.574 . S
C1190 C1206 1.368 . S
H1191 C1199 0.950 . S
H1192 C1197 0.950 . S
H1193 C1198 0.949 . S
H1194 C1200 0.950 . S
H1195 C1201 0.950 . S
H1196 C1202 0.949 . S
C1197 H1192 0.950 . S
C1197 C1199 1.327 . S
C1197 C1203 1.429 . S
C1198 C1190 1.574 . S
C1198 H1193 0.949 . S
C1198 C1204 1.368 . S
C1199 C1183 1.349 . S
C1199 H1191 0.950 . S
C1199 C1197 1.327 . S
C1200 C1188 1.349 . S
C1200 H1194 0.950 . S
C1200 C1201 1.327 . S
C1201 H1195 0.950 . S
C1201 C1200 1.327 . S
C1201 C1205 1.429 . S
C1202 C1185 1.574 . S
C1202 H1196 0.949 . S
C1202 C1206 1.368 . S
C1203 C1184 1.429 . S
C1203 C1197 1.429 . S
C1203 C1204 1.523 . S
C1204 C1185 1.368 . S
C1204 C1198 1.368 . S
C1204 C1203 1.523 . S
C1205 C1189 1.429 . S
C1205 C1201 1.429 . S
C1205 C1206 1.523 . S
C1206 C1190 1.368 . S
C1206 C1202 1.368 . S
C1206 C1205 1.523 . S
H1207 C1182 0.950 . S
H1208 C1184 0.950 . S
H1209 C1185 0.949 . S
H1210 C1187 0.950 . S
H1211 C1189 0.950 . S
C1212 C1213 1.349 . S
C1212 C1214 1.327 . S
C1212 H1237 0.950 . S
C1213 C1212 1.349 . S
C1213 C1229 1.349 . S
C1214 C1212 1.327 . S
C1214 C1233 1.429 . S
C1214 H1238 0.950 . S
C1215 C1232 1.574 . S
C1215 C1234 1.368 . S
C1215 H1239 0.949 . S
H1216 C1220 0.949 . S
C1217 C1218 1.349 . S
C1217 C1219 1.327 . S
C1217 H1240 0.950 . S
C1218 C1217 1.349 . S
C1218 C1230 1.349 . S
C1219 C1217 1.327 . S
C1219 C1235 1.429 . S
C1219 H1241 0.950 . S
C1220 H1216 0.949 . S
C1220 C1228 1.574 . S
C1220 C1236 1.368 . S
H1221 C1229 0.950 . S
H1222 C1227 0.950 . S
H1223 C1228 0.949 . S
H1224 C1230 0.950 . S
H1225 C1231 0.950 . S
H1226 C1232 0.949 . S
C1227 H1222 0.950 . S
C1227 C1229 1.327 . S
C1227 C1233 1.429 . S
C1228 C1220 1.574 . S
C1228 H1223 0.949 . S
C1228 C1234 1.368 . S
C1229 C1213 1.349 . S
C1229 H1221 0.950 . S
C1229 C1227 1.327 . S
C1230 C1218 1.349 . S
C1230 H1224 0.950 . S
C1230 C1231 1.327 . S
C1231 H1225 0.950 . S
C1231 C1230 1.327 . S
C1231 C1235 1.429 . S
C1232 C1215 1.574 . S
C1232 H1226 0.949 . S
C1232 C1236 1.368 . S
C1233 C1214 1.429 . S
C1233 C1227 1.429 . S
C1233 C1234 1.523 . S
C1234 C1215 1.368 . S
C1234 C1228 1.368 . S
C1234 C1233 1.523 . S
C1235 C1219 1.429 . S
C1235 C1231 1.429 . S
C1235 C1236 1.523 . S
C1236 C1220 1.368 . S
C1236 C1232 1.368 . S
C1236 C1235 1.523 . S
H1237 C1212 0.950 . S
H1238 C1214 0.950 . S
H1239 C1215 0.949 . S
H1240 C1217 0.950 . S
H1241 C1219 0.950 . S
C1242 C1243 1.349 . S
C1242 C1244 1.327 . S
C1242 H1267 0.950 . S
C1243 C1242 1.349 . S
C1243 C1259 1.349 . S
C1244 C1242 1.327 . S
C1244 C1263 1.429 . S
C1244 H1268 0.950 . S
C1245 C1262 1.574 . S
C1245 C1264 1.368 . S
C1245 H1269 0.949 . S
H1246 C1250 0.949 . S
C1247 C1248 1.349 . S
C1247 C1249 1.327 . S
C1247 H1270 0.950 . S
C1248 C1247 1.349 . S
C1248 C1260 1.349 . S
C1249 C1247 1.327 . S
C1249 C1265 1.429 . S
C1249 H1271 0.950 . S
C1250 H1246 0.949 . S
C1250 C1258 1.574 . S
C1250 C1266 1.368 . S
H1251 C1259 0.950 . S
H1252 C1257 0.950 . S
H1253 C1258 0.949 . S
H1254 C1260 0.950 . S
H1255 C1261 0.950 . S
H1256 C1262 0.949 . S
C1257 H1252 0.950 . S
C1257 C1259 1.327 . S
C1257 C1263 1.429 . S
C1258 C1250 1.574 . S
C1258 H1253 0.949 . S
C1258 C1264 1.368 . S
C1259 C1243 1.349 . S
C1259 H1251 0.950 . S
C1259 C1257 1.327 . S
C1260 C1248 1.349 . S
C1260 H1254 0.950 . S
C1260 C1261 1.327 . S
C1261 H1255 0.950 . S
C1261 C1260 1.327 . S
C1261 C1265 1.429 . S
C1262 C1245 1.574 . S
C1262 H1256 0.949 . S
C1262 C1266 1.368 . S
C1263 C1244 1.429 . S
C1263 C1257 1.429 . S
C1263 C1264 1.523 . S
C1264 C1245 1.368 . S
C1264 C1258 1.368 . S
C1264 C1263 1.523 . S
C1265 C1249 1.429 . S
C1265 C1261 1.429 . S
C1265 C1266 1.523 . S
C1266 C1250 1.368 . S
C1266 C1262 1.368 . S
C1266 C1265 1.523 . S
H1267 C1242 0.950 . S
H1268 C1244 0.950 . S
H1269 C1245 0.949 . S
H1270 C1247 0.950 . S
H1271 C1249 0.950 . S
C1272 C1273 1.349 . S
C1272 C1274 1.327 . S
C1272 H1297 0.950 . S
C1273 C1272 1.349 . S
C1273 C1289 1.349 . S
C1274 C1272 1.327 . S
C1274 C1293 1.429 . S
C1274 H1298 0.950 . S
C1275 C1292 1.574 . S
C1275 C1294 1.368 . S
C1275 H1299 0.949 . S
H1276 C1280 0.949 . S
C1277 C1278 1.349 . S
C1277 C1279 1.327 . S
C1277 H1300 0.950 . S
C1278 C1277 1.349 . S
C1278 C1290 1.349 . S
C1279 C1277 1.327 . S
C1279 C1295 1.429 . S
C1279 H1301 0.950 . S
C1280 H1276 0.949 . S
C1280 C1288 1.574 . S
C1280 C1296 1.368 . S
H1281 C1289 0.950 . S
H1282 C1287 0.950 . S
H1283 C1288 0.949 . S
H1284 C1290 0.950 . S
H1285 C1291 0.950 . S
H1286 C1292 0.949 . S
C1287 H1282 0.950 . S
C1287 C1289 1.327 . S
C1287 C1293 1.429 . S
C1288 C1280 1.574 . S
C1288 H1283 0.949 . S
C1288 C1294 1.368 . S
C1289 C1273 1.349 . S
C1289 H1281 0.950 . S
C1289 C1287 1.327 . S
C1290 C1278 1.349 . S
C1290 H1284 0.950 . S
C1290 C1291 1.327 . S
C1291 H1285 0.950 . S
C1291 C1290 1.327 . S
C1291 C1295 1.429 . S
C1292 C1275 1.574 . S
C1292 H1286 0.949 . S
C1292 C1296 1.368 . S
C1293 C1274 1.429 . S
C1293 C1287 1.429 . S
C1293 C1294 1.523 . S
C1294 C1275 1.368 . S
C1294 C1288 1.368 . S
C1294 C1293 1.523 . S
C1295 C1279 1.429 . S
C1295 C1291 1.429 . S
C1295 C1296 1.523 . S
C1296 C1280 1.368 . S
C1296 C1292 1.368 . S
C1296 C1295 1.523 . S
H1297 C1272 0.950 . S
H1298 C1274 0.950 . S
H1299 C1275 0.949 . S
H1300 C1277 0.950 . S
H1301 C1279 0.950 . S
C1302 C1303 1.349 . S
C1302 C1304 1.327 . S
C1302 H1327 0.950 . S
C1303 C1302 1.349 . S
C1303 C1319 1.349 . S
C1304 C1302 1.327 . S
C1304 C1323 1.429 . S
C1304 H1328 0.950 . S
C1305 C1322 1.574 . S
C1305 C1324 1.368 . S
C1305 H1329 0.949 . S
H1306 C1310 0.949 . S
C1307 C1308 1.349 . S
C1307 C1309 1.327 . S
C1307 H1330 0.950 . S
C1308 C1307 1.349 . S
C1308 C1320 1.349 . S
C1309 C1307 1.327 . S
C1309 C1325 1.429 . S
C1309 H1331 0.950 . S
C1310 H1306 0.949 . S
C1310 C1318 1.574 . S
C1310 C1326 1.368 . S
H1311 C1319 0.950 . S
H1312 C1317 0.950 . S
H1313 C1318 0.949 . S
H1314 C1320 0.950 . S
H1315 C1321 0.950 . S
H1316 C1322 0.949 . S
C1317 H1312 0.950 . S
C1317 C1319 1.327 . S
C1317 C1323 1.429 . S
C1318 C1310 1.574 . S
C1318 H1313 0.949 . S
C1318 C1324 1.368 . S
C1319 C1303 1.349 . S
C1319 H1311 0.950 . S
C1319 C1317 1.327 . S
C1320 C1308 1.349 . S
C1320 H1314 0.950 . S
C1320 C1321 1.327 . S
C1321 H1315 0.950 . S
C1321 C1320 1.327 . S
C1321 C1325 1.429 . S
C1322 C1305 1.574 . S
C1322 H1316 0.949 . S
C1322 C1326 1.368 . S
C1323 C1304 1.429 . S
C1323 C1317 1.429 . S
C1323 C1324 1.523 . S
C1324 C1305 1.368 . S
C1324 C1318 1.368 . S
C1324 C1323 1.523 . S
C1325 C1309 1.429 . S
C1325 C1321 1.429 . S
C1325 C1326 1.523 . S
C1326 C1310 1.368 . S
C1326 C1322 1.368 . S
C1326 C1325 1.523 . S
H1327 C1302 0.950 . S
H1328 C1304 0.950 . S
H1329 C1305 0.949 . S
H1330 C1307 0.950 . S
H1331 C1309 0.950 . S
C1332 C1333 1.349 1_556 S
C1332 C1334 1.327 . S
C1332 H1357 0.950 . S
C1333 C1332 1.349 1_554 S
C1333 C1349 1.349 . S
C1334 C1332 1.327 . S
C1334 C1353 1.429 1_556 S
C1334 H1358 0.950 . S
C1335 C1352 1.574 1_455 S
C1335 C1354 1.368 . S
C1335 H1359 0.949 . S
H1336 C1340 0.949 . S
C1337 C1338 1.349 1_554 S
C1337 C1339 1.327 . S
C1337 H1360 0.950 . S
C1338 C1337 1.349 1_556 S
C1338 C1350 1.349 . S
C1339 C1337 1.327 . S
C1339 C1355 1.429 1_554 S
C1339 H1361 0.950 . S
C1340 H1336 0.949 . S
C1340 C1348 1.574 1_655 S
C1340 C1356 1.368 . S
H1341 C1349 0.950 . S
H1342 C1347 0.950 . S
H1343 C1348 0.949 . S
H1344 C1350 0.950 . S
H1345 C1351 0.950 . S
H1346 C1352 0.949 . S
C1347 H1342 0.950 . S
C1347 C1349 1.327 . S
C1347 C1353 1.429 . S
C1348 C1340 1.574 1_455 S
C1348 H1343 0.949 . S
C1348 C1354 1.368 1_556 S
C1349 C1333 1.349 . S
C1349 H1341 0.950 . S
C1349 C1347 1.327 . S
C1350 C1338 1.349 . S
C1350 H1344 0.950 . S
C1350 C1351 1.327 . S
C1351 H1345 0.950 . S
C1351 C1350 1.327 . S
C1351 C1355 1.429 . S
C1352 C1335 1.574 1_655 S
C1352 H1346 0.949 . S
C1352 C1356 1.368 1_554 S
C1353 C1334 1.429 1_554 S
C1353 C1347 1.429 . S
C1353 C1354 1.523 . S
C1354 C1335 1.368 . S
C1354 C1348 1.368 1_554 S
C1354 C1353 1.523 . S
C1355 C1339 1.429 1_556 S
C1355 C1351 1.429 . S
C1355 C1356 1.523 . S
C1356 C1340 1.368 . S
C1356 C1352 1.368 1_556 S
C1356 C1355 1.523 . S
H1357 C1332 0.950 . S
H1358 C1334 0.950 . S
H1359 C1335 0.949 . S
H1360 C1337 0.950 . S
H1361 C1339 0.950 . S
C1362 C1363 1.349 . S
C1362 C1364 1.327 . S
C1362 H1387 0.950 . S
C1363 C1362 1.349 . S
C1363 C1379 1.349 . S
C1364 C1362 1.327 . S
C1364 C1383 1.429 . S
C1364 H1388 0.950 1_554 S
C1365 C1382 1.574 . S
C1365 C1384 1.368 . S
C1365 H1389 0.949 . S
H1366 C1370 0.949 . S
C1367 C1368 1.349 . S
C1367 C1369 1.327 . S
C1367 H1390 0.950 . S
C1368 C1367 1.349 . S
C1368 C1380 1.349 . S
C1369 C1367 1.327 . S
C1369 C1385 1.429 . S
C1369 H1391 0.950 1_556 S
C1370 H1366 0.949 . S
C1370 C1378 1.574 . S
C1370 C1386 1.368 . S
H1371 C1379 0.950 . S
H1372 C1377 0.950 . S
H1373 C1378 0.949 . S
H1374 C1380 0.950 . S
H1375 C1381 0.950 . S
H1376 C1382 0.949 . S
C1377 H1372 0.950 . S
C1377 C1379 1.327 . S
C1377 C1383 1.429 . S
C1378 C1370 1.574 . S
C1378 H1373 0.949 . S
C1378 C1384 1.368 1_556 S
C1379 C1363 1.349 . S
C1379 H1371 0.950 . S
C1379 C1377 1.327 . S
C1380 C1368 1.349 . S
C1380 H1374 0.950 . S
C1380 C1381 1.327 . S
C1381 H1375 0.950 . S
C1381 C1380 1.327 . S
C1381 C1385 1.429 . S
C1382 C1365 1.574 . S
C1382 H1376 0.949 . S
C1382 C1386 1.368 1_554 S
C1383 C1364 1.429 . S
C1383 C1377 1.429 . S
C1383 C1384 1.523 . S
C1384 C1365 1.368 . S
C1384 C1378 1.368 1_554 S
C1384 C1383 1.523 . S
C1385 C1369 1.429 . S
C1385 C1381 1.429 . S
C1385 C1386 1.523 . S
C1386 C1370 1.368 . S
C1386 C1382 1.368 1_556 S
C1386 C1385 1.523 . S
H1387 C1362 0.950 . S
H1388 C1364 0.950 1_556 S
H1389 C1365 0.949 . S
H1390 C1367 0.950 . S
H1391 C1369 0.950 1_554 S
C1392 C1393 1.349 . S
C1392 C1394 1.327 1_556 S
C1392 H1417 0.950 1_556 S
C1393 C1392 1.349 . S
C1393 C1409 1.349 . S
C1394 C1392 1.327 1_554 S
C1394 C1413 1.429 1_554 S
C1394 H1418 0.950 . S
C1395 C1412 1.574 1_545 S
C1395 C1414 1.368 . S
C1395 H1419 0.949 . S
H1396 C1400 0.949 . S
C1397 C1398 1.349 . S
C1397 C1399 1.327 1_554 S
C1397 H1420 0.950 1_554 S
C1398 C1397 1.349 . S
C1398 C1410 1.349 . S
C1399 C1397 1.327 1_556 S
C1399 C1415 1.429 1_556 S
C1399 H1421 0.950 . S
C1400 H1396 0.949 . S
C1400 C1408 1.574 1_565 S
C1400 C1416 1.368 . S
H1401 C1409 0.950 . S
H1402 C1407 0.950 . S
H1403 C1408 0.949 . S
H1404 C1410 0.950 . S
H1405 C1411 0.950 . S
H1406 C1412 0.949 . S
C1407 H1402 0.950 . S
C1407 C1409 1.327 . S
C1407 C1413 1.429 . S
C1408 C1400 1.574 1_545 S
C1408 H1403 0.949 . S
C1408 C1414 1.368 1_554 S
C1409 C1393 1.349 . S
C1409 H1401 0.950 . S
C1409 C1407 1.327 . S
C1410 C1398 1.349 . S
C1410 H1404 0.950 . S
C1410 C1411 1.327 . S
C1411 H1405 0.950 . S
C1411 C1410 1.327 . S
C1411 C1415 1.429 . S
C1412 C1395 1.574 1_565 S
C1412 H1406 0.949 . S
C1412 C1416 1.368 1_556 S
C1413 C1394 1.429 1_556 S
C1413 C1407 1.429 . S
C1413 C1414 1.523 . S
C1414 C1395 1.368 . S
C1414 C1408 1.368 1_556 S
C1414 C1413 1.523 . S
C1415 C1399 1.429 1_554 S
C1415 C1411 1.429 . S
C1415 C1416 1.523 . S
C1416 C1400 1.368 . S
C1416 C1412 1.368 1_554 S
C1416 C1415 1.523 . S
H1417 C1392 0.950 1_554 S
H1418 C1394 0.950 . S
H1419 C1395 0.949 . S
H1420 C1397 0.950 1_556 S
H1421 C1399 0.950 . S
C1422 C1423 1.349 . S
C1422 C1424 1.327 . S
C1422 H1447 0.950 . S
C1423 C1422 1.349 . S
C1423 C1439 1.349 . S
C1424 C1422 1.327 . S
C1424 C1443 1.429 . S
C1424 H1448 0.950 . S
C1425 C1442 1.574 . S
C1425 C1444 1.368 . S
C1425 H1449 0.949 . S
H1426 C1430 0.949 . S
C1427 C1428 1.349 . S
C1427 C1429 1.327 . S
C1427 H1450 0.950 . S
C1428 C1427 1.349 . S
C1428 C1440 1.349 . S
C1429 C1427 1.327 . S
C1429 C1445 1.429 . S
C1429 H1451 0.950 . S
C1430 H1426 0.949 . S
C1430 C1438 1.574 . S
C1430 C1446 1.368 . S
H1431 C1439 0.950 . S
H1432 C1437 0.950 . S
H1433 C1438 0.949 . S
H1434 C1440 0.950 . S
H1435 C1441 0.950 . S
H1436 C1442 0.949 . S
C1437 H1432 0.950 . S
C1437 C1439 1.327 . S
C1437 C1443 1.429 . S
C1438 C1430 1.574 . S
C1438 H1433 0.949 . S
C1438 C1444 1.368 . S
C1439 C1423 1.349 . S
C1439 H1431 0.950 . S
C1439 C1437 1.327 . S
C1440 C1428 1.349 . S
C1440 H1434 0.950 . S
C1440 C1441 1.327 . S
C1441 H1435 0.950 . S
C1441 C1440 1.327 . S
C1441 C1445 1.429 . S
C1442 C1425 1.574 . S
C1442 H1436 0.949 . S
C1442 C1446 1.368 . S
C1443 C1424 1.429 . S
C1443 C1437 1.429 . S
C1443 C1444 1.523 . S
C1444 C1425 1.368 . S
C1444 C1438 1.368 . S
C1444 C1443 1.523 . S
C1445 C1429 1.429 . S
C1445 C1441 1.429 . S
C1445 C1446 1.523 1_554 S
C1446 C1430 1.368 . S
C1446 C1442 1.368 . S
C1446 C1445 1.523 1_556 S
H1447 C1422 0.950 . S
H1448 C1424 0.950 . S
H1449 C1425 0.949 . S
H1450 C1427 0.950 . S
H1451 C1429 0.950 . S
C1452 C1453 1.349 . S
C1452 C1454 1.327 . S
C1452 H1477 0.950 . S
C1453 C1452 1.349 . S
C1453 C1469 1.349 . S
C1454 C1452 1.327 . S
C1454 C1473 1.429 . S
C1454 H1478 0.950 . S
C1455 C1472 1.574 . S
C1455 C1474 1.368 . S
C1455 H1479 0.949 . S
H1456 C1460 0.949 . S
C1457 C1458 1.349 . S
C1457 C1459 1.327 . S
C1457 H1480 0.950 . S
C1458 C1457 1.349 . S
C1458 C1470 1.349 . S
C1459 C1457 1.327 . S
C1459 C1475 1.429 . S
C1459 H1481 0.950 . S
C1460 H1456 0.949 . S
C1460 C1468 1.574 . S
C1460 C1476 1.368 . S
H1461 C1469 0.950 . S
H1462 C1467 0.950 . S
H1463 C1468 0.949 . S
H1464 C1470 0.950 . S
H1465 C1471 0.950 . S
H1466 C1472 0.949 . S
C1467 H1462 0.950 . S
C1467 C1469 1.327 . S
C1467 C1473 1.429 . S
C1468 C1460 1.574 . S
C1468 H1463 0.949 . S
C1468 C1474 1.368 . S
C1469 C1453 1.349 . S
C1469 H1461 0.950 . S
C1469 C1467 1.327 . S
C1470 C1458 1.349 . S
C1470 H1464 0.950 . S
C1470 C1471 1.327 . S
C1471 H1465 0.950 . S
C1471 C1470 1.327 . S
C1471 C1475 1.429 . S
C1472 C1455 1.574 . S
C1472 H1466 0.949 . S
C1472 C1476 1.368 . S
C1473 C1454 1.429 . S
C1473 C1467 1.429 . S
C1473 C1474 1.523 . S
C1474 C1455 1.368 . S
C1474 C1468 1.368 . S
C1474 C1473 1.523 . S
C1475 C1459 1.429 . S
C1475 C1471 1.429 . S
C1475 C1476 1.523 1_554 S
C1476 C1460 1.368 . S
C1476 C1472 1.368 . S
C1476 C1475 1.523 1_556 S
H1477 C1452 0.950 . S
H1478 C1454 0.950 . S
H1479 C1455 0.949 . S
H1480 C1457 0.950 . S
H1481 C1459 0.950 . S
C1482 C1483 1.349 . S
C1482 C1484 1.327 . S
C1482 H1507 0.950 . S
C1483 C1482 1.349 . S
C1483 C1499 1.349 . S
C1484 C1482 1.327 . S
C1484 C1503 1.429 . S
C1484 H1508 0.950 . S
C1485 C1502 1.574 . S
C1485 C1504 1.368 . S
C1485 H1509 0.949 . S
H1486 C1490 0.949 . S
C1487 C1488 1.349 . S
C1487 C1489 1.327 . S
C1487 H1510 0.950 . S
C1488 C1487 1.349 . S
C1488 C1500 1.349 . S
C1489 C1487 1.327 . S
C1489 C1505 1.429 . S
C1489 H1511 0.950 . S
C1490 H1486 0.949 . S
C1490 C1498 1.574 . S
C1490 C1506 1.368 . S
H1491 C1499 0.950 . S
H1492 C1497 0.950 . S
H1493 C1498 0.949 . S
H1494 C1500 0.950 . S
H1495 C1501 0.950 . S
H1496 C1502 0.949 . S
C1497 H1492 0.950 . S
C1497 C1499 1.327 . S
C1497 C1503 1.429 . S
C1498 C1490 1.574 . S
C1498 H1493 0.949 . S
C1498 C1504 1.368 . S
C1499 C1483 1.349 . S
C1499 H1491 0.950 . S
C1499 C1497 1.327 . S
C1500 C1488 1.349 . S
C1500 H1494 0.950 . S
C1500 C1501 1.327 . S
C1501 H1495 0.950 . S
C1501 C1500 1.327 . S
C1501 C1505 1.429 . S
C1502 C1485 1.574 . S
C1502 H1496 0.949 . S
C1502 C1506 1.368 . S
C1503 C1484 1.429 . S
C1503 C1497 1.429 . S
C1503 C1504 1.523 . S
C1504 C1485 1.368 . S
C1504 C1498 1.368 . S
C1504 C1503 1.523 . S
C1505 C1489 1.429 . S
C1505 C1501 1.429 . S
C1505 C1506 1.523 1_554 S
C1506 C1490 1.368 . S
C1506 C1502 1.368 . S
C1506 C1505 1.523 1_556 S
H1507 C1482 0.950 . S
H1508 C1484 0.950 . S
H1509 C1485 0.949 . S
H1510 C1487 0.950 . S
H1511 C1489 0.950 . S
C1512 C1513 1.349 . S
C1512 C1514 1.327 . S
C1512 H1537 0.950 . S
C1513 C1512 1.349 . S
C1513 C1529 1.349 . S
C1514 C1512 1.327 . S
C1514 C1533 1.429 . S
C1514 H1538 0.950 . S
C1515 C1532 1.574 . S
C1515 C1534 1.368 . S
C1515 H1539 0.949 . S
H1516 C1520 0.949 . S
C1517 C1518 1.349 . S
C1517 C1519 1.327 . S
C1517 H1540 0.950 . S
C1518 C1517 1.349 . S
C1518 C1530 1.349 . S
C1519 C1517 1.327 . S
C1519 C1535 1.429 . S
C1519 H1541 0.950 . S
C1520 H1516 0.949 . S
C1520 C1528 1.574 . S
C1520 C1536 1.368 . S
H1521 C1529 0.950 . S
H1522 C1527 0.950 . S
H1523 C1528 0.949 . S
H1524 C1530 0.950 . S
H1525 C1531 0.950 . S
H1526 C1532 0.949 . S
C1527 H1522 0.950 . S
C1527 C1529 1.327 . S
C1527 C1533 1.429 . S
C1528 C1520 1.574 . S
C1528 H1523 0.949 . S
C1528 C1534 1.368 . S
C1529 C1513 1.349 . S
C1529 H1521 0.950 . S
C1529 C1527 1.327 . S
C1530 C1518 1.349 . S
C1530 H1524 0.950 . S
C1530 C1531 1.327 . S
C1531 H1525 0.950 . S
C1531 C1530 1.327 . S
C1531 C1535 1.429 . S
C1532 C1515 1.574 . S
C1532 H1526 0.949 . S
C1532 C1536 1.368 . S
C1533 C1514 1.429 . S
C1533 C1527 1.429 . S
C1533 C1534 1.523 1_556 S
C1534 C1515 1.368 . S
C1534 C1528 1.368 . S
C1534 C1533 1.523 1_554 S
C1535 C1519 1.429 . S
C1535 C1531 1.429 . S
C1535 C1536 1.523 . S
C1536 C1520 1.368 . S
C1536 C1532 1.368 . S
C1536 C1535 1.523 . S
H1537 C1512 0.950 . S
H1538 C1514 0.950 . S
H1539 C1515 0.949 . S
H1540 C1517 0.950 . S
H1541 C1519 0.950 . S
C1542 C1543 1.349 . S
C1542 C1544 1.327 . S
C1542 H1567 0.950 . S
C1543 C1542 1.349 . S
C1543 C1559 1.349 . S
C1544 C1542 1.327 . S
C1544 C1563 1.429 . S
C1544 H1568 0.950 . S
C1545 C1562 1.574 . S
C1545 C1564 1.368 . S
C1545 H1569 0.949 . S
H1546 C1550 0.949 . S
C1547 C1548 1.349 . S
C1547 C1549 1.327 . S
C1547 H1570 0.950 . S
C1548 C1547 1.349 . S
C1548 C1560 1.349 . S
C1549 C1547 1.327 . S
C1549 C1565 1.429 . S
C1549 H1571 0.950 . S
C1550 H1546 0.949 . S
C1550 C1558 1.574 . S
C1550 C1566 1.368 . S
H1551 C1559 0.950 . S
H1552 C1557 0.950 . S
H1553 C1558 0.949 . S
H1554 C1560 0.950 . S
H1555 C1561 0.950 . S
H1556 C1562 0.949 . S
C1557 H1552 0.950 . S
C1557 C1559 1.327 . S
C1557 C1563 1.429 . S
C1558 C1550 1.574 . S
C1558 H1553 0.949 . S
C1558 C1564 1.368 . S
C1559 C1543 1.349 . S
C1559 H1551 0.950 . S
C1559 C1557 1.327 . S
C1560 C1548 1.349 . S
C1560 H1554 0.950 . S
C1560 C1561 1.327 . S
C1561 H1555 0.950 . S
C1561 C1560 1.327 . S
C1561 C1565 1.429 . S
C1562 C1545 1.574 . S
C1562 H1556 0.949 . S
C1562 C1566 1.368 . S
C1563 C1544 1.429 . S
C1563 C1557 1.429 . S
C1563 C1564 1.523 1_556 S
C1564 C1545 1.368 . S
C1564 C1558 1.368 . S
C1564 C1563 1.523 1_554 S
C1565 C1549 1.429 . S
C1565 C1561 1.429 . S
C1565 C1566 1.523 . S
C1566 C1550 1.368 . S
C1566 C1562 1.368 . S
C1566 C1565 1.523 . S
H1567 C1542 0.950 . S
H1568 C1544 0.950 . S
H1569 C1545 0.949 . S
H1570 C1547 0.950 . S
H1571 C1549 0.950 . S
C1572 C1573 1.349 . S
C1572 C1574 1.327 . S
C1572 H1597 0.950 . S
C1573 C1572 1.349 . S
C1573 C1589 1.349 . S
C1574 C1572 1.327 . S
C1574 C1593 1.429 . S
C1574 H1598 0.950 . S
C1575 C1592 1.574 . S
C1575 C1594 1.368 . S
C1575 H1599 0.949 . S
H1576 C1580 0.949 . S
C1577 C1578 1.349 . S
C1577 C1579 1.327 . S
C1577 H1600 0.950 . S
C1578 C1577 1.349 . S
C1578 C1590 1.349 . S
C1579 C1577 1.327 . S
C1579 C1595 1.429 . S
C1579 H1601 0.950 . S
C1580 H1576 0.949 . S
C1580 C1588 1.574 . S
C1580 C1596 1.368 . S
H1581 C1589 0.950 . S
H1582 C1587 0.950 . S
H1583 C1588 0.949 . S
H1584 C1590 0.950 . S
H1585 C1591 0.950 . S
H1586 C1592 0.949 . S
C1587 H1582 0.950 . S
C1587 C1589 1.327 . S
C1587 C1593 1.429 . S
C1588 C1580 1.574 . S
C1588 H1583 0.949 . S
C1588 C1594 1.368 . S
C1589 C1573 1.349 . S
C1589 H1581 0.950 . S
C1589 C1587 1.327 . S
C1590 C1578 1.349 . S
C1590 H1584 0.950 . S
C1590 C1591 1.327 . S
C1591 H1585 0.950 . S
C1591 C1590 1.327 . S
C1591 C1595 1.429 . S
C1592 C1575 1.574 . S
C1592 H1586 0.949 . S
C1592 C1596 1.368 . S
C1593 C1574 1.429 . S
C1593 C1587 1.429 . S
C1593 C1594 1.523 . S
C1594 C1575 1.368 . S
C1594 C1588 1.368 . S
C1594 C1593 1.523 . S
C1595 C1579 1.429 . S
C1595 C1591 1.429 . S
C1595 C1596 1.523 1_556 S
C1596 C1580 1.368 . S
C1596 C1592 1.368 . S
C1596 C1595 1.523 1_554 S
H1597 C1572 0.950 . S
H1598 C1574 0.950 . S
H1599 C1575 0.949 . S
H1600 C1577 0.950 . S
H1601 C1579 0.950 . S
C1602 C1603 1.349 1_554 S
C1602 C1604 1.327 . S
C1602 H1627 0.950 1_554 S
C1603 C1602 1.349 1_556 S
C1603 C1619 1.349 1_556 S
C1604 C1602 1.327 . S
C1604 C1623 1.429 . S
C1604 H1628 0.950 . S
C1605 C1622 1.574 . S
C1605 C1624 1.368 . S
C1605 H1629 0.949 . S
H1606 C1610 0.949 . S
C1607 C1608 1.349 . S
C1607 C1609 1.327 . S
C1607 H1630 0.950 . S
C1608 C1607 1.349 . S
C1608 C1620 1.349 . S
C1609 C1607 1.327 . S
C1609 C1625 1.429 . S
C1609 H1631 0.950 . S
C1610 H1606 0.949 . S
C1610 C1618 1.574 . S
C1610 C1626 1.368 . S
H1611 C1619 0.950 1_556 S
H1612 C1617 0.950 . S
H1613 C1618 0.949 . S
H1614 C1620 0.950 . S
H1615 C1621 0.950 . S
H1616 C1622 0.949 . S
C1617 H1612 0.950 . S
C1617 C1619 1.327 . S
C1617 C1623 1.429 . S
C1618 C1610 1.574 . S
C1618 H1613 0.949 . S
C1618 C1624 1.368 . S
C1619 C1603 1.349 1_554 S
C1619 H1611 0.950 1_554 S
C1619 C1617 1.327 . S
C1620 C1608 1.349 . S
C1620 H1614 0.950 . S
C1620 C1621 1.327 . S
C1621 H1615 0.950 . S
C1621 C1620 1.327 . S
C1621 C1625 1.429 . S
C1622 C1605 1.574 . S
C1622 H1616 0.949 . S
C1622 C1626 1.368 . S
C1623 C1604 1.429 . S
C1623 C1617 1.429 . S
C1623 C1624 1.523 . S
C1624 C1605 1.368 . S
C1624 C1618 1.368 . S
C1624 C1623 1.523 . S
C1625 C1609 1.429 . S
C1625 C1621 1.429 . S
C1625 C1626 1.523 . S
C1626 C1610 1.368 . S
C1626 C1622 1.368 . S
C1626 C1625 1.523 . S
H1627 C1602 0.950 1_556 S
H1628 C1604 0.950 . S
H1629 C1605 0.949 . S
H1630 C1607 0.950 . S
H1631 C1609 0.950 . S
C1632 C1633 1.349 . S
C1632 C1634 1.327 . S
C1632 H1657 0.950 . S
C1633 C1632 1.349 . S
C1633 C1649 1.349 . S
C1634 C1632 1.327 . S
C1634 C1653 1.429 . S
C1634 H1658 0.950 . S
C1635 C1652 1.574 . S
C1635 C1654 1.368 . S
C1635 H1659 0.949 . S
H1636 C1640 0.949 . S
C1637 C1638 1.349 1_554 S
C1637 C1639 1.327 . S
C1637 H1660 0.950 1_554 S
C1638 C1637 1.349 1_556 S
C1638 C1650 1.349 1_556 S
C1639 C1637 1.327 . S
C1639 C1655 1.429 . S
C1639 H1661 0.950 . S
C1640 H1636 0.949 . S
C1640 C1648 1.574 . S
C1640 C1656 1.368 . S
H1641 C1649 0.950 . S
H1642 C1647 0.950 . S
H1643 C1648 0.949 . S
H1644 C1650 0.950 1_556 S
H1645 C1651 0.950 . S
H1646 C1652 0.949 . S
C1647 H1642 0.950 . S
C1647 C1649 1.327 . S
C1647 C1653 1.429 . S
C1648 C1640 1.574 . S
C1648 H1643 0.949 . S
C1648 C1654 1.368 . S
C1649 C1633 1.349 . S
C1649 H1641 0.950 . S
C1649 C1647 1.327 . S
C1650 C1638 1.349 1_554 S
C1650 H1644 0.950 1_554 S
C1650 C1651 1.327 . S
C1651 H1645 0.950 . S
C1651 C1650 1.327 . S
C1651 C1655 1.429 . S
C1652 C1635 1.574 . S
C1652 H1646 0.949 . S
C1652 C1656 1.368 . S
C1653 C1634 1.429 . S
C1653 C1647 1.429 . S
C1653 C1654 1.523 . S
C1654 C1635 1.368 . S
C1654 C1648 1.368 . S
C1654 C1653 1.523 . S
C1655 C1639 1.429 . S
C1655 C1651 1.429 . S
C1655 C1656 1.523 . S
C1656 C1640 1.368 . S
C1656 C1652 1.368 . S
C1656 C1655 1.523 . S
H1657 C1632 0.950 . S
H1658 C1634 0.950 . S
H1659 C1635 0.949 . S
H1660 C1637 0.950 1_556 S
H1661 C1639 0.950 . S
C1662 C1663 1.349 . S
C1662 C1664 1.327 . S
C1662 H1687 0.950 . S
C1663 C1662 1.349 . S
C1663 C1679 1.349 . S
C1664 C1662 1.327 . S
C1664 C1683 1.429 . S
C1664 H1688 0.950 . S
C1665 C1682 1.574 . S
C1665 C1684 1.368 . S
C1665 H1689 0.949 . S
H1666 C1670 0.949 . S
C1667 C1668 1.349 1_554 S
C1667 C1669 1.327 . S
C1667 H1690 0.950 1_554 S
C1668 C1667 1.349 1_556 S
C1668 C1680 1.349 1_556 S
C1669 C1667 1.327 . S
C1669 C1685 1.429 . S
C1669 H1691 0.950 . S
C1670 H1666 0.949 . S
C1670 C1678 1.574 . S
C1670 C1686 1.368 . S
H1671 C1679 0.950 . S
H1672 C1677 0.950 . S
H1673 C1678 0.949 . S
H1674 C1680 0.950 1_556 S
H1675 C1681 0.950 . S
H1676 C1682 0.949 . S
C1677 H1672 0.950 . S
C1677 C1679 1.327 . S
C1677 C1683 1.429 . S
C1678 C1670 1.574 . S
C1678 H1673 0.949 . S
C1678 C1684 1.368 . S
C1679 C1663 1.349 . S
C1679 H1671 0.950 . S
C1679 C1677 1.327 . S
C1680 C1668 1.349 1_554 S
C1680 H1674 0.950 1_554 S
C1680 C1681 1.327 . S
C1681 H1675 0.950 . S
C1681 C1680 1.327 . S
C1681 C1685 1.429 . S
C1682 C1665 1.574 . S
C1682 H1676 0.949 . S
C1682 C1686 1.368 . S
C1683 C1664 1.429 . S
C1683 C1677 1.429 . S
C1683 C1684 1.523 . S
C1684 C1665 1.368 . S
C1684 C1678 1.368 . S
C1684 C1683 1.523 . S
C1685 C1669 1.429 . S
C1685 C1681 1.429 . S
C1685 C1686 1.523 . S
C1686 C1670 1.368 . S
C1686 C1682 1.368 . S
C1686 C1685 1.523 . S
H1687 C1662 0.950 . S
H1688 C1664 0.950 . S
H1689 C1665 0.949 . S
H1690 C1667 0.950 1_556 S
H1691 C1669 0.950 . S
C1692 C1693 1.349 . S
C1692 C1694 1.327 . S
C1692 H1717 0.950 . S
C1693 C1692 1.349 . S
C1693 C1709 1.349 . S
C1694 C1692 1.327 . S
C1694 C1713 1.429 . S
C1694 H1718 0.950 . S
C1695 C1712 1.574 . S
C1695 C1714 1.368 . S
C1695 H1719 0.949 . S
H1696 C1700 0.949 . S
C1697 C1698 1.349 . S
C1697 C1699 1.327 . S
C1697 H1720 0.950 . S
C1698 C1697 1.349 . S
C1698 C1710 1.349 . S
C1699 C1697 1.327 . S
C1699 C1715 1.429 . S
C1699 H1721 0.950 . S
C1700 H1696 0.949 . S
C1700 C1708 1.574 . S
C1700 C1716 1.368 . S
H1701 C1709 0.950 . S
H1702 C1707 0.950 . S
H1703 C1708 0.949 . S
H1704 C1710 0.950 . S
H1705 C1711 0.950 . S
H1706 C1712 0.949 . S
C1707 H1702 0.950 . S
C1707 C1709 1.327 . S
C1707 C1713 1.429 . S
C1708 C1700 1.574 . S
C1708 H1703 0.949 . S
C1708 C1714 1.368 . S
C1709 C1693 1.349 . S
C1709 H1701 0.950 . S
C1709 C1707 1.327 . S
C1710 C1698 1.349 . S
C1710 H1704 0.950 . S
C1710 C1711 1.327 . S
C1711 H1705 0.950 . S
C1711 C1710 1.327 . S
C1711 C1715 1.429 . S
C1712 C1695 1.574 . S
C1712 H1706 0.949 . S
C1712 C1716 1.368 . S
C1713 C1694 1.429 . S
C1713 C1707 1.429 . S
C1713 C1714 1.523 . S
C1714 C1695 1.368 . S
C1714 C1708 1.368 . S
C1714 C1713 1.523 . S
C1715 C1699 1.429 . S
C1715 C1711 1.429 . S
C1715 C1716 1.523 . S
C1716 C1700 1.368 . S
C1716 C1712 1.368 . S
C1716 C1715 1.523 . S
H1717 C1692 0.950 . S
H1718 C1694 0.950 . S
H1719 C1695 0.949 . S
H1720 C1697 0.950 . S
H1721 C1699 0.950 . S
C1722 C1723 1.349 . S
C1722 C1724 1.327 . S
C1722 H1747 0.950 . S
C1723 C1722 1.349 . S
C1723 C1739 1.349 . S
C1724 C1722 1.327 . S
C1724 C1743 1.429 . S
C1724 H1748 0.950 . S
C1725 C1742 1.574 . S
C1725 C1744 1.368 . S
C1725 H1749 0.949 . S
H1726 C1730 0.949 . S
C1727 C1728 1.349 . S
C1727 C1729 1.327 . S
C1727 H1750 0.950 . S
C1728 C1727 1.349 . S
C1728 C1740 1.349 . S
C1729 C1727 1.327 . S
C1729 C1745 1.429 . S
C1729 H1751 0.950 . S
C1730 H1726 0.949 . S
C1730 C1738 1.574 . S
C1730 C1746 1.368 . S
H1731 C1739 0.950 . S
H1732 C1737 0.950 . S
H1733 C1738 0.949 . S
H1734 C1740 0.950 . S
H1735 C1741 0.950 . S
H1736 C1742 0.949 . S
C1737 H1732 0.950 . S
C1737 C1739 1.327 . S
C1737 C1743 1.429 . S
C1738 C1730 1.574 . S
C1738 H1733 0.949 . S
C1738 C1744 1.368 . S
C1739 C1723 1.349 . S
C1739 H1731 0.950 . S
C1739 C1737 1.327 . S
C1740 C1728 1.349 . S
C1740 H1734 0.950 . S
C1740 C1741 1.327 . S
C1741 H1735 0.950 . S
C1741 C1740 1.327 . S
C1741 C1745 1.429 . S
C1742 C1725 1.574 . S
C1742 H1736 0.949 . S
C1742 C1746 1.368 . S
C1743 C1724 1.429 . S
C1743 C1737 1.429 . S
C1743 C1744 1.523 . S
C1744 C1725 1.368 . S
C1744 C1738 1.368 . S
C1744 C1743 1.523 . S
C1745 C1729 1.429 . S
C1745 C1741 1.429 . S
C1745 C1746 1.523 . S
C1746 C1730 1.368 . S
C1746 C1742 1.368 . S
C1746 C1745 1.523 . S
H1747 C1722 0.950 . S
H1748 C1724 0.950 . S
H1749 C1725 0.949 . S
H1750 C1727 0.950 . S
H1751 C1729 0.950 . S
C1752 C1753 1.349 . S
C1752 C1754 1.327 . S
C1752 H1777 0.950 . S
C1753 C1752 1.349 . S
C1753 C1769 1.349 . S
C1754 C1752 1.327 . S
C1754 C1773 1.429 . S
C1754 H1778 0.950 . S
C1755 C1772 1.574 . S
C1755 C1774 1.368 . S
C1755 H1779 0.949 . S
H1756 C1760 0.949 . S
C1757 C1758 1.349 . S
C1757 C1759 1.327 . S
C1757 H1780 0.950 . S
C1758 C1757 1.349 . S
C1758 C1770 1.349 . S
C1759 C1757 1.327 . S
C1759 C1775 1.429 . S
C1759 H1781 0.950 . S
C1760 H1756 0.949 . S
C1760 C1768 1.574 . S
C1760 C1776 1.368 . S
H1761 C1769 0.950 . S
H1762 C1767 0.950 . S
H1763 C1768 0.949 . S
H1764 C1770 0.950 . S
H1765 C1771 0.950 . S
H1766 C1772 0.949 . S
C1767 H1762 0.950 . S
C1767 C1769 1.327 . S
C1767 C1773 1.429 . S
C1768 C1760 1.574 . S
C1768 H1763 0.949 . S
C1768 C1774 1.368 . S
C1769 C1753 1.349 . S
C1769 H1761 0.950 . S
C1769 C1767 1.327 . S
C1770 C1758 1.349 . S
C1770 H1764 0.950 . S
C1770 C1771 1.327 . S
C1771 H1765 0.950 . S
C1771 C1770 1.327 . S
C1771 C1775 1.429 . S
C1772 C1755 1.574 . S
C1772 H1766 0.949 . S
C1772 C1776 1.368 . S
C1773 C1754 1.429 . S
C1773 C1767 1.429 . S
C1773 C1774 1.523 . S
C1774 C1755 1.368 . S
C1774 C1768 1.368 . S
C1774 C1773 1.523 . S
C1775 C1759 1.429 . S
C1775 C1771 1.429 . S
C1775 C1776 1.523 . S
C1776 C1760 1.368 . S
C1776 C1772 1.368 . S
C1776 C1775 1.523 . S
H1777 C1752 0.950 . S
H1778 C1754 0.950 . S
H1779 C1755 0.949 . S
H1780 C1757 0.950 . S
H1781 C1759 0.950 . S
C1782 C1783 1.349 . S
C1782 C1784 1.327 . S
C1782 H1807 0.950 . S
C1783 C1782 1.349 . S
C1783 C1799 1.349 . S
C1784 C1782 1.327 . S
C1784 C1803 1.429 . S
C1784 H1808 0.950 . S
C1785 C1802 1.574 . S
C1785 C1804 1.368 . S
C1785 H1809 0.949 . S
H1786 C1790 0.949 . S
C1787 C1788 1.349 . S
C1787 C1789 1.327 . S
C1787 H1810 0.950 . S
C1788 C1787 1.349 . S
C1788 C1800 1.349 . S
C1789 C1787 1.327 . S
C1789 C1805 1.429 . S
C1789 H1811 0.950 . S
C1790 H1786 0.949 . S
C1790 C1798 1.574 . S
C1790 C1806 1.368 . S
H1791 C1799 0.950 . S
H1792 C1797 0.950 . S
H1793 C1798 0.949 . S
H1794 C1800 0.950 . S
H1795 C1801 0.950 . S
H1796 C1802 0.949 . S
C1797 H1792 0.950 . S
C1797 C1799 1.327 . S
C1797 C1803 1.429 . S
C1798 C1790 1.574 . S
C1798 H1793 0.949 . S
C1798 C1804 1.368 . S
C1799 C1783 1.349 . S
C1799 H1791 0.950 . S
C1799 C1797 1.327 . S
C1800 C1788 1.349 . S
C1800 H1794 0.950 . S
C1800 C1801 1.327 . S
C1801 H1795 0.950 . S
C1801 C1800 1.327 . S
C1801 C1805 1.429 . S
C1802 C1785 1.574 . S
C1802 H1796 0.949 . S
C1802 C1806 1.368 . S
C1803 C1784 1.429 . S
C1803 C1797 1.429 . S
C1803 C1804 1.523 . S
C1804 C1785 1.368 . S
C1804 C1798 1.368 . S
C1804 C1803 1.523 . S
C1805 C1789 1.429 . S
C1805 C1801 1.429 . S
C1805 C1806 1.523 . S
C1806 C1790 1.368 . S
C1806 C1802 1.368 . S
C1806 C1805 1.523 . S
H1807 C1782 0.950 . S
H1808 C1784 0.950 . S
H1809 C1785 0.949 . S
H1810 C1787 0.950 . S
H1811 C1789 0.950 . S
C1812 C1813 1.349 . S
C1812 C1814 1.327 . S
C1812 H1837 0.950 . S
C1813 C1812 1.349 . S
C1813 C1829 1.349 . S
C1814 C1812 1.327 . S
C1814 C1833 1.429 . S
C1814 H1838 0.950 . S
C1815 C1832 1.574 . S
C1815 C1834 1.368 . S
C1815 H1839 0.949 . S
H1816 C1820 0.949 . S
C1817 C1818 1.349 . S
C1817 C1819 1.327 . S
C1817 H1840 0.950 . S
C1818 C1817 1.349 . S
C1818 C1830 1.349 . S
C1819 C1817 1.327 . S
C1819 C1835 1.429 . S
C1819 H1841 0.950 . S
C1820 H1816 0.949 . S
C1820 C1828 1.574 . S
C1820 C1836 1.368 . S
H1821 C1829 0.950 . S
H1822 C1827 0.950 . S
H1823 C1828 0.949 . S
H1824 C1830 0.950 . S
H1825 C1831 0.950 . S
H1826 C1832 0.949 . S
C1827 H1822 0.950 . S
C1827 C1829 1.327 . S
C1827 C1833 1.429 . S
C1828 C1820 1.574 . S
C1828 H1823 0.949 . S
C1828 C1834 1.368 . S
C1829 C1813 1.349 . S
C1829 H1821 0.950 . S
C1829 C1827 1.327 . S
C1830 C1818 1.349 . S
C1830 H1824 0.950 . S
C1830 C1831 1.327 . S
C1831 H1825 0.950 . S
C1831 C1830 1.327 . S
C1831 C1835 1.429 . S
C1832 C1815 1.574 . S
C1832 H1826 0.949 . S
C1832 C1836 1.368 . S
C1833 C1814 1.429 . S
C1833 C1827 1.429 . S
C1833 C1834 1.523 . S
C1834 C1815 1.368 . S
C1834 C1828 1.368 . S
C1834 C1833 1.523 . S
C1835 C1819 1.429 . S
C1835 C1831 1.429 . S
C1835 C1836 1.523 . S
C1836 C1820 1.368 . S
C1836 C1832 1.368 . S
C1836 C1835 1.523 . S
H1837 C1812 0.950 . S
H1838 C1814 0.950 . S
H1839 C1815 0.949 . S
H1840 C1817 0.950 . S
H1841 C1819 0.950 . S
C1842 C1843 1.349 . S
C1842 C1844 1.327 . S
C1842 H1867 0.950 . S
C1843 C1842 1.349 . S
C1843 C1859 1.349 . S
C1844 C1842 1.327 . S
C1844 C1863 1.429 . S
C1844 H1868 0.950 . S
C1845 C1862 1.574 . S
C1845 C1864 1.368 . S
C1845 H1869 0.949 . S
H1846 C1850 0.949 . S
C1847 C1848 1.349 . S
C1847 C1849 1.327 . S
C1847 H1870 0.950 . S
C1848 C1847 1.349 . S
C1848 C1860 1.349 . S
C1849 C1847 1.327 . S
C1849 C1865 1.429 . S
C1849 H1871 0.950 . S
C1850 H1846 0.949 . S
C1850 C1858 1.574 . S
C1850 C1866 1.368 . S
H1851 C1859 0.950 . S
H1852 C1857 0.950 . S
H1853 C1858 0.949 . S
H1854 C1860 0.950 . S
H1855 C1861 0.950 . S
H1856 C1862 0.949 . S
C1857 H1852 0.950 . S
C1857 C1859 1.327 . S
C1857 C1863 1.429 . S
C1858 C1850 1.574 . S
C1858 H1853 0.949 . S
C1858 C1864 1.368 . S
C1859 C1843 1.349 . S
C1859 H1851 0.950 . S
C1859 C1857 1.327 . S
C1860 C1848 1.349 . S
C1860 H1854 0.950 . S
C1860 C1861 1.327 . S
C1861 H1855 0.950 . S
C1861 C1860 1.327 . S
C1861 C1865 1.429 . S
C1862 C1845 1.574 . S
C1862 H1856 0.949 . S
C1862 C1866 1.368 . S
C1863 C1844 1.429 . S
C1863 C1857 1.429 . S
C1863 C1864 1.523 . S
C1864 C1845 1.368 . S
C1864 C1858 1.368 . S
C1864 C1863 1.523 . S
C1865 C1849 1.429 . S
C1865 C1861 1.429 . S
C1865 C1866 1.523 . S
C1866 C1850 1.368 . S
C1866 C1862 1.368 . S
C1866 C1865 1.523 . S
H1867 C1842 0.950 . S
H1868 C1844 0.950 . S
H1869 C1845 0.949 . S
H1870 C1847 0.950 . S
H1871 C1849 0.950 . S
C1872 C1873 1.349 1_556 S
C1872 C1874 1.327 . S
C1872 H1897 0.950 1_556 S
C1873 C1872 1.349 1_554 S
C1873 C1889 1.349 1_554 S
C1874 C1872 1.327 . S
C1874 C1893 1.429 . S
C1874 H1898 0.950 . S
C1875 C1892 1.574 . S
C1875 C1894 1.368 . S
C1875 H1899 0.949 . S
H1876 C1880 0.949 . S
C1877 C1878 1.349 . S
C1877 C1879 1.327 . S
C1877 H1900 0.950 . S
C1878 C1877 1.349 . S
C1878 C1890 1.349 . S
C1879 C1877 1.327 . S
C1879 C1895 1.429 . S
C1879 H1901 0.950 . S
C1880 H1876 0.949 . S
C1880 C1888 1.574 . S
C1880 C1896 1.368 . S
H1881 C1889 0.950 1_554 S
H1882 C1887 0.950 . S
H1883 C1888 0.949 . S
H1884 C1890 0.950 . S
H1885 C1891 0.950 . S
H1886 C1892 0.949 . S
C1887 H1882 0.950 . S
C1887 C1889 1.327 . S
C1887 C1893 1.429 . S
C1888 C1880 1.574 . S
C1888 H1883 0.949 . S
C1888 C1894 1.368 . S
C1889 C1873 1.349 1_556 S
C1889 H1881 0.950 1_556 S
C1889 C1887 1.327 . S
C1890 C1878 1.349 . S
C1890 H1884 0.950 . S
C1890 C1891 1.327 . S
C1891 H1885 0.950 . S
C1891 C1890 1.327 . S
C1891 C1895 1.429 . S
C1892 C1875 1.574 . S
C1892 H1886 0.949 . S
C1892 C1896 1.368 . S
C1893 C1874 1.429 . S
C1893 C1887 1.429 . S
C1893 C1894 1.523 . S
C1894 C1875 1.368 . S
C1894 C1888 1.368 . S
C1894 C1893 1.523 . S
C1895 C1879 1.429 . S
C1895 C1891 1.429 . S
C1895 C1896 1.523 . S
C1896 C1880 1.368 . S
C1896 C1892 1.368 . S
C1896 C1895 1.523 . S
H1897 C1872 0.950 1_554 S
H1898 C1874 0.950 . S
H1899 C1875 0.949 . S
H1900 C1877 0.950 . S
H1901 C1879 0.950 . S
C1902 C1903 1.349 . S
C1902 C1904 1.327 . S
C1902 H1927 0.950 . S
C1903 C1902 1.349 . S
C1903 C1919 1.349 . S
C1904 C1902 1.327 . S
C1904 C1923 1.429 . S
C1904 H1928 0.950 . S
C1905 C1922 1.574 . S
C1905 C1924 1.368 . S
C1905 H1929 0.949 . S
H1906 C1910 0.949 . S
C1907 C1908 1.349 1_556 S
C1907 C1909 1.327 . S
C1907 H1930 0.950 1_556 S
C1908 C1907 1.349 1_554 S
C1908 C1920 1.349 1_554 S
C1909 C1907 1.327 . S
C1909 C1925 1.429 . S
C1909 H1931 0.950 . S
C1910 H1906 0.949 . S
C1910 C1918 1.574 . S
C1910 C1926 1.368 . S
H1911 C1919 0.950 . S
H1912 C1917 0.950 . S
H1913 C1918 0.949 . S
H1914 C1920 0.950 1_554 S
H1915 C1921 0.950 . S
H1916 C1922 0.949 . S
C1917 H1912 0.950 . S
C1917 C1919 1.327 . S
C1917 C1923 1.429 . S
C1918 C1910 1.574 . S
C1918 H1913 0.949 . S
C1918 C1924 1.368 . S
C1919 C1903 1.349 . S
C1919 H1911 0.950 . S
C1919 C1917 1.327 . S
C1920 C1908 1.349 1_556 S
C1920 H1914 0.950 1_556 S
C1920 C1921 1.327 . S
C1921 H1915 0.950 . S
C1921 C1920 1.327 . S
C1921 C1925 1.429 . S
C1922 C1905 1.574 . S
C1922 H1916 0.949 . S
C1922 C1926 1.368 . S
C1923 C1904 1.429 . S
C1923 C1917 1.429 . S
C1923 C1924 1.523 . S
C1924 C1905 1.368 . S
C1924 C1918 1.368 . S
C1924 C1923 1.523 . S
C1925 C1909 1.429 . S
C1925 C1921 1.429 . S
C1925 C1926 1.523 . S
C1926 C1910 1.368 . S
C1926 C1922 1.368 . S
C1926 C1925 1.523 . S
H1927 C1902 0.950 . S
H1928 C1904 0.950 . S
H1929 C1905 0.949 . S
H1930 C1907 0.950 1_554 S
H1931 C1909 0.950 . S
C1932 C1933 1.349 . S
C1932 C1934 1.327 . S
C1932 H1957 0.950 . S
C1933 C1932 1.349 . S
C1933 C1949 1.349 . S
C1934 C1932 1.327 . S
C1934 C1953 1.429 . S
C1934 H1958 0.950 . S
C1935 C1952 1.574 . S
C1935 C1954 1.368 . S
C1935 H1959 0.949 . S
H1936 C1940 0.949 . S
C1937 C1938 1.349 1_556 S
C1937 C1939 1.327 . S
C1937 H1960 0.950 1_556 S
C1938 C1937 1.349 1_554 S
C1938 C1950 1.349 1_554 S
C1939 C1937 1.327 . S
C1939 C1955 1.429 . S
C1939 H1961 0.950 . S
C1940 H1936 0.949 . S
C1940 C1948 1.574 . S
C1940 C1956 1.368 . S
H1941 C1949 0.950 . S
H1942 C1947 0.950 . S
H1943 C1948 0.949 . S
H1944 C1950 0.950 1_554 S
H1945 C1951 0.950 . S
H1946 C1952 0.949 . S
C1947 H1942 0.950 . S
C1947 C1949 1.327 . S
C1947 C1953 1.429 . S
C1948 C1940 1.574 . S
C1948 H1943 0.949 . S
C1948 C1954 1.368 . S
C1949 C1933 1.349 . S
C1949 H1941 0.950 . S
C1949 C1947 1.327 . S
C1950 C1938 1.349 1_556 S
C1950 H1944 0.950 1_556 S
C1950 C1951 1.327 . S
C1951 H1945 0.950 . S
C1951 C1950 1.327 . S
C1951 C1955 1.429 . S
C1952 C1935 1.574 . S
C1952 H1946 0.949 . S
C1952 C1956 1.368 . S
C1953 C1934 1.429 . S
C1953 C1947 1.429 . S
C1953 C1954 1.523 . S
C1954 C1935 1.368 . S
C1954 C1948 1.368 . S
C1954 C1953 1.523 . S
C1955 C1939 1.429 . S
C1955 C1951 1.429 . S
C1955 C1956 1.523 . S
C1956 C1940 1.368 . S
C1956 C1952 1.368 . S
C1956 C1955 1.523 . S
H1957 C1932 0.950 . S
H1958 C1934 0.950 . S
H1959 C1935 0.949 . S
H1960 C1937 0.950 1_554 S
H1961 C1939 0.950 . S
C613 C104 1.677 . S
C618 C2 1.677 . S
C643 C138 1.676 . S
C648 C36 1.676 . S
C673 C172 1.676 . S
C678 C70 1.676 . S
C703 C67 1.058 . S
C708 C203 1.058 . S
C733 C135 1.058 . S
C738 C101 1.058 . S
C763 C169 1.058 . S
C768 C33 1.058 . S
C793 C308 1.677 . S
C798 C206 1.677 . S
C823 C240 1.677 . S
C828 C342 1.677 . S
C853 C274 1.676 . S
C858 C376 1.676 . S
C883 C271 1.058 . S
C888 C407 1.058 . S
C913 C305 1.058 . S
C918 C339 1.058 . S
C943 C373 1.058 . S
C948 C237 1.058 . S
C973 C410 1.677 . S
C978 C512 1.677 . S
C1003 C546 1.676 . S
C1008 C444 1.676 . S
C1033 C478 1.677 . S
C1038 C580 1.677 . S
C1063 C475 1.058 . S
C1068 C611 1.058 . S
C1093 C543 1.058 . S
C1098 C509 1.058 . S
C1123 C441 1.058 . S
C1128 C577 1.058 . S
C1153 C20 1.865 . S
C1158 C598 1.865 . S
C1183 C530 1.865 . S
C1188 C54 1.864 . S
C1213 C564 1.865 . S
C1218 C88 1.865 . S
C1243 C258 1.865 . S
C1248 C122 1.865 . S
C1273 C292 1.865 . S
C1278 C156 1.865 . S
C1303 C224 1.865 . S
C1308 C190 1.864 . S
C1333 C462 1.864 . S
C1338 C326 1.865 . S
C1363 C496 1.865 . S
C1368 C360 1.865 . S
C1393 C394 1.864 . S
C1398 C428 1.865 . S
C1423 C5 1.310 . S
C1428 C9 1.240 . S
C1453 C39 1.310 . S
C1458 C43 1.240 . S
C1483 C73 1.310 . S
C1488 C77 1.240 . S
C1513 C111 1.240 . S
C1518 C107 1.310 . S
C1543 C145 1.240 . S
C1548 C141 1.310 . S
C1573 C175 1.310 . S
C1578 C179 1.240 . S
C1603 C209 1.310 . S
C1608 C213 1.240 . S
C1633 C247 1.240 . S
C1638 C243 1.310 . S
C1663 C281 1.240 . S
C1668 C277 1.310 . S
C1693 C311 1.310 . S
C1698 C315 1.240 . S
C1723 C345 1.310 . S
C1728 C349 1.240 . S
C1753 C379 1.310 . S
C1758 C383 1.240 . S
C1783 C413 1.310 . S
C1788 C417 1.240 . S
C1813 C447 1.310 . S
C1818 C451 1.240 . S
C1843 C485 1.240 . S
C1848 C481 1.310 . S
C1873 C515 1.310 . S
C1878 C519 1.240 . S
C1903 C553 1.240 . S
C1908 C549 1.310 . S
C1933 C587 1.240 . S
C1938 C583 1.310 . S
