# Generated by pormake.
# Topology wlk, (5)-cn, num edge types: 1
# Building blocks:
#     Node 0, Type 0, BuildingBlock: XOMCOT_clean_sbu_1, # of connection points: 5
#     Node 1, Type 0, BuildingBlock: XOMCOT_clean_sbu_1, # of connection points: 5
#     Node 2, Type 0, BuildingBlock: XOMCOT_clean_sbu_1, # of connection points: 5
#     Node 3, Type 0, BuildingBlock: XOMCOT_clean_sbu_1, # of connection points: 5
#     Node 4, Type 0, BuildingBlock: XOMCOT_clean_sbu_1, # of connection points: 5
#     Node 5, Type 0, BuildingBlock: XOMCOT_clean_sbu_1, # of connection points: 5
#     Node 6, Type 0, BuildingBlock: XOMCOT_clean_sbu_1, # of connection points: 5
#     Node 7, Type 0, BuildingBlock: XOMCOT_clean_sbu_1, # of connection points: 5
#     Node 8, Type 0, BuildingBlock: XOMCOT_clean_sbu_1, # of connection points: 5
#     Node 9, Type 0, BuildingBlock: XOMCOT_clean_sbu_1, # of connection points: 5
#     Node 10, Type 0, BuildingBlock: XOMCOT_clean_sbu_1, # of connection points: 5
#     Node 11, Type 0, BuildingBlock: XOMCOT_clean_sbu_1, # of connection points: 5
#     Node 12, Type 0, BuildingBlock: XOMCOT_clean_sbu_1, # of connection points: 5
#     Node 13, Type 0, BuildingBlock: XOMCOT_clean_sbu_1, # of connection points: 5
#     Node 14, Type 0, BuildingBlock: XOMCOT_clean_sbu_1, # of connection points: 5
#     Node 15, Type 0, BuildingBlock: XOMCOT_clean_sbu_1, # of connection points: 5
#     Node 16, Type 0, BuildingBlock: XOMCOT_clean_sbu_1, # of connection points: 5
#     Node 17, Type 0, BuildingBlock: XOMCOT_clean_sbu_1, # of connection points: 5
#     Edge 18, Type (0, 0), BuildingBlock: CIFDUS_clean_linker_0, # of connection points: 2
#     Edge 19, Type (0, 0), BuildingBlock: CIFDUS_clean_linker_0, # of connection points: 2
#     Edge 20, Type (0, 0), BuildingBlock: CIFDUS_clean_linker_0, # of connection points: 2
#     Edge 21, Type (0, 0), BuildingBlock: CIFDUS_clean_linker_0, # of connection points: 2
#     Edge 22, Type (0, 0), BuildingBlock: CIFDUS_clean_linker_0, # of connection points: 2
#     Edge 23, Type (0, 0), BuildingBlock: CIFDUS_clean_linker_0, # of connection points: 2
#     Edge 24, Type (0, 0), BuildingBlock: CIFDUS_clean_linker_0, # of connection points: 2
#     Edge 25, Type (0, 0), BuildingBlock: CIFDUS_clean_linker_0, # of connection points: 2
#     Edge 26, Type (0, 0), BuildingBlock: CIFDUS_clean_linker_0, # of connection points: 2
#     Edge 27, Type (0, 0), BuildingBlock: CIFDUS_clean_linker_0, # of connection points: 2
#     Edge 28, Type (0, 0), BuildingBlock: CIFDUS_clean_linker_0, # of connection points: 2
#     Edge 29, Type (0, 0), BuildingBlock: CIFDUS_clean_linker_0, # of connection points: 2
#     Edge 30, Type (0, 0), BuildingBlock: CIFDUS_clean_linker_0, # of connection points: 2
#     Edge 31, Type (0, 0), BuildingBlock: CIFDUS_clean_linker_0, # of connection points: 2
#     Edge 32, Type (0, 0), BuildingBlock: CIFDUS_clean_linker_0, # of connection points: 2
#     Edge 33, Type (0, 0), BuildingBlock: CIFDUS_clean_linker_0, # of connection points: 2
#     Edge 34, Type (0, 0), BuildingBlock: CIFDUS_clean_linker_0, # of connection points: 2
#     Edge 35, Type (0, 0), BuildingBlock: CIFDUS_clean_linker_0, # of connection points: 2
#     Edge 36, Type (0, 0), BuildingBlock: CIFDUS_clean_linker_0, # of connection points: 2
#     Edge 37, Type (0, 0), BuildingBlock: CIFDUS_clean_linker_0, # of connection points: 2
#     Edge 38, Type (0, 0), BuildingBlock: CIFDUS_clean_linker_0, # of connection points: 2
#     Edge 39, Type (0, 0), BuildingBlock: CIFDUS_clean_linker_0, # of connection points: 2
#     Edge 40, Type (0, 0), BuildingBlock: CIFDUS_clean_linker_0, # of connection points: 2
#     Edge 41, Type (0, 0), BuildingBlock: CIFDUS_clean_linker_0, # of connection points: 2
#     Edge 42, Type (0, 0), BuildingBlock: CIFDUS_clean_linker_0, # of connection points: 2
#     Edge 43, Type (0, 0), BuildingBlock: CIFDUS_clean_linker_0, # of connection points: 2
#     Edge 44, Type (0, 0), BuildingBlock: CIFDUS_clean_linker_0, # of connection points: 2
#     Edge 45, Type (0, 0), BuildingBlock: CIFDUS_clean_linker_0, # of connection points: 2
#     Edge 46, Type (0, 0), BuildingBlock: CIFDUS_clean_linker_0, # of connection points: 2
#     Edge 47, Type (0, 0), BuildingBlock: CIFDUS_clean_linker_0, # of connection points: 2
#     Edge 48, Type (0, 0), BuildingBlock: CIFDUS_clean_linker_0, # of connection points: 2
#     Edge 49, Type (0, 0), BuildingBlock: CIFDUS_clean_linker_0, # of connection points: 2
#     Edge 50, Type (0, 0), BuildingBlock: CIFDUS_clean_linker_0, # of connection points: 2
#     Edge 51, Type (0, 0), BuildingBlock: CIFDUS_clean_linker_0, # of connection points: 2
#     Edge 52, Type (0, 0), BuildingBlock: CIFDUS_clean_linker_0, # of connection points: 2
#     Edge 53, Type (0, 0), BuildingBlock: CIFDUS_clean_linker_0, # of connection points: 2
#     Edge 54, Type (0, 0), BuildingBlock: CIFDUS_clean_linker_0, # of connection points: 2
#     Edge 55, Type (0, 0), BuildingBlock: CIFDUS_clean_linker_0, # of connection points: 2
#     Edge 56, Type (0, 0), BuildingBlock: CIFDUS_clean_linker_0, # of connection points: 2
#     Edge 57, Type (0, 0), BuildingBlock: CIFDUS_clean_linker_0, # of connection points: 2
#     Edge 58, Type (0, 0), BuildingBlock: CIFDUS_clean_linker_0, # of connection points: 2
#     Edge 59, Type (0, 0), BuildingBlock: CIFDUS_clean_linker_0, # of connection points: 2
#     Edge 60, Type (0, 0), BuildingBlock: CIFDUS_clean_linker_0, # of connection points: 2
#     Edge 61, Type (0, 0), BuildingBlock: CIFDUS_clean_linker_0, # of connection points: 2
#     Edge 62, Type (0, 0), BuildingBlock: CIFDUS_clean_linker_0, # of connection points: 2
# Relax obj value: 0.167
# Max RMSD: 0.219
# Mean RMSD: 0.219
data_MOF--net-wlk--node1-XOMCOT_clean_sbu_1--edge1-CIFDUS_clean_linker_0
_symmetry_space_group_name_H-M    P1
_symmetry_Int_Tables_number       1
_symmetry_cell_setting            triclinic
loop_
_symmetry_equiv_pos_as_xyz
'x, y, z'
_cell_length_a     57.60009
_cell_length_b     57.774212
_cell_length_c     25.149595
_cell_angle_alpha  90.034801
_cell_angle_beta   90.007199
_cell_angle_gamma 119.68414
loop_
_atom_site_label
_atom_site_type_symbol
_atom_site_fract_x
_atom_site_fract_y
_atom_site_fract_z
_atom_type_partial_charge
C0 C 0.21697 0.26891 0.96983 0.0
C1 C 0.2205 0.24816 0.9526 0.0
N2 N 0.22028 0.23389 0.99525 0.0
N3 N 0.21465 0.26797 0.02322 0.0
C4 C 0.21634 0.24624 0.03735 0.0
H5 H 0.21696 0.28422 0.9451 0.0
Co6 Co 0.21212 0.29276 0.06851 0.0
C7 C 0.24757 0.2985 0.15963 0.0
O8 O 0.25531 0.32401 0.16253 0.0
N9 N 0.20888 0.31704 0.11556 0.0
C10 C 0.20893 0.35156 0.15556 0.0
C11 C 0.21335 0.34213 0.10855 0.0
C12 C 0.20071 0.31151 0.16696 0.0
N13 N 0.2012 0.33235 0.19267 0.0
O14 O 0.17682 0.26571 0.09033 0.0
H15 H 0.2195 0.35335 0.07211 0.0
H16 H 0.19563 0.29275 0.18578 0.0
O17 O 0.23025 0.28382 0.12479 0.0
C18 C 0.16146 0.26673 0.05479 0.0
O19 O 0.17266 0.28321 0.01477 0.0
N20 N 0.24492 0.31983 0.04062 0.0
C21 C 0.2879 0.35867 0.98132 0.0
C22 C 0.29138 0.34146 0.01593 0.0
C23 C 0.26955 0.32189 0.04459 0.0
C24 C 0.24097 0.3353 1.00502 0.0
C25 C 0.26213 0.35526 0.97638 0.0
H26 H 0.27236 0.30776 0.06775 0.0
H27 H 0.22095 0.33176 0.998 0.0
H28 H 0.21499 0.2398 0.07811 0.0
H29 H 0.22409 0.24464 0.91195 0.0
H30 H 0.21119 0.37111 0.16167 0.0
H31 H 0.31053 0.34233 0.01934 0.0
H32 H 0.25807 0.36767 0.95013 0.0
C33 C 0.77476 0.95924 0.97727 0.0
C34 C 0.79479 0.98378 0.96027 0.0
N35 N 0.80649 0.99916 1.00328 0.0
N36 N 0.77368 0.959 0.03081 0.0
C37 C 0.7934 0.98346 0.04545 0.0
H38 H 0.76128 0.94286 0.95213 0.0
Co39 Co 0.74842 0.93106 0.07337 0.0
C40 C 0.7398 0.95757 0.16524 0.0
O41 O 0.71423 0.94008 0.16078 0.0
N42 N 0.72345 0.90256 0.11735 0.0
C43 C 0.68807 0.86838 0.15516 0.0
C44 C 0.69823 0.88256 0.10886 0.0
C45 C 0.72835 0.89912 0.1687 0.0
N46 N 0.70694 0.87902 0.19325 0.0
O47 O 0.77518 0.92189 0.09395 0.0
H48 H 0.68726 0.87848 0.07215 0.0
H49 H 0.74719 0.91195 0.18819 0.0
O50 O 0.75654 0.95624 0.13346 0.0
C51 C 0.77278 0.90487 0.05866 0.0
O52 O 0.75533 0.89966 0.02035 0.0
N53 N 0.72178 0.93801 0.04634 0.0
C54 C 0.68167 0.94286 0.99314 0.0
C55 C 0.69961 0.96312 0.0273 0.0
C56 C 0.72001 0.96063 0.05246 0.0
C57 C 0.70614 0.91951 0.00962 0.0
C58 C 0.68567 0.92117 0.98357 0.0
H59 H 0.73456 0.97714 0.07581 0.0
H60 H 0.70976 0.90332 1.00004 0.0
H61 H 0.79789 0.98975 0.08642 0.0
H62 H 0.79951 0.99008 0.91931 0.0
H63 H 0.66787 0.85217 0.16059 0.0
H64 H 0.69805 0.98079 0.0343 0.0
H65 H 0.67355 0.90587 0.95502 0.0
C66 C 0.07917 0.82044 0.97651 0.0
C67 C 0.05565 0.81838 0.95843 0.0
N68 N 0.04171 0.8194 1.00041 0.0
N69 N 0.08016 0.82194 0.0302 0.0
C70 C 0.0576 0.82271 0.04297 0.0
H71 H 0.09451 0.82111 0.95107 0.0
Co72 Co 0.1079 0.82454 0.07741 0.0
C73 C 0.05863 0.78723 0.13374 0.0
O74 O 0.05036 0.77515 0.08761 0.0
N75 N 0.13543 0.82818 0.12286 0.0
C76 C 0.1742 0.83193 0.14704 0.0
C77 C 0.15759 0.82849 0.10496 0.0
C78 C 0.1391 0.83172 0.17624 0.0
N79 N 0.16275 0.83412 0.19219 0.0
O80 O 0.11663 0.86063 0.09425 0.0
H81 H 0.16141 0.82633 0.06366 0.0
H82 H 0.12496 0.83304 0.20261 0.0
O83 O 0.0815 0.80858 0.13683 0.0
C84 C 0.1331 0.87485 0.05788 0.0
O85 O 0.13869 0.8624 0.02058 0.0
N86 N 0.10269 0.79045 0.05643 0.0
C87 C 0.09885 0.7431 0.01785 0.0
C88 C 0.0937 0.74557 0.07152 0.0
C89 C 0.09667 0.76971 0.09041 0.0
C90 C 0.11064 0.78925 1.00591 0.0
C91 C 0.10826 0.76568 0.98538 0.0
H92 H 0.09421 0.77165 0.13245 0.0
H93 H 0.11984 0.80693 0.98173 0.0
H94 H 0.05272 0.82528 0.08324 0.0
H95 H 0.04912 0.81555 0.91744 0.0
H96 H 0.19323 0.83253 0.14429 0.0
H97 H 0.08779 0.72911 0.09886 0.0
H98 H 0.11353 0.76517 0.94423 0.0
C99 C 0.85337 0.78543 0.02941 0.0
C100 C 0.84795 0.80496 0.04659 0.0
N101 N 0.82731 0.80311 0.01802 0.0
N102 N 0.8363 0.7712 0.98999 0.0
C103 C 0.82045 0.78224 0.98477 0.0
H104 H 0.86935 0.78244 0.0439 0.0
Co105 Co 0.83699 0.74439 0.94708 0.0
C106 C 0.81825 0.76333 0.85144 0.0
O107 O 0.84214 0.77972 0.83259 0.0
N108 N 0.83795 0.71837 0.90311 0.0
C109 C 0.83799 0.68243 0.87122 0.0
C110 C 0.83447 0.69421 0.91605 0.0
C111 C 0.84386 0.7209 0.85061 0.0
N112 N 0.84397 0.69933 0.82986 0.0
O113 O 0.87173 0.77068 0.9196 0.0
H114 H 0.82997 0.68582 0.95565 0.0
H115 H 0.8482 0.73845 0.82806 0.0
O116 O 0.81571 0.74988 0.89341 0.0
C117 C 0.88742 0.76733 0.95095 0.0
O118 O 0.87648 0.74835 0.98682 0.0
N119 N 0.80563 0.71816 0.97994 0.0
C120 C 0.76715 0.67522 0.03926 0.0
C121 C 0.76265 0.67828 0.9853 0.0
C122 C 0.78229 0.7 0.9561 0.0
C123 C 0.80979 0.71589 0.03247 0.0
C124 C 0.79076 0.69504 0.06287 0.0
H125 H 0.77939 0.70139 0.91398 0.0
H126 H 0.82861 0.72984 0.05063 0.0
H127 H 0.80429 0.77533 0.95653 0.0
H128 H 0.85915 0.82004 0.07615 0.0
H129 H 0.83682 0.66317 0.86973 0.0
H130 H 0.74479 0.66346 0.96527 0.0
H131 H 0.795 0.6941 0.10452 0.0
C132 C 0.26387 0.07015 0.03383 0.0
C133 C 0.24444 0.04546 0.05144 0.0
N134 N 0.23245 0.02987 0.00882 0.0
N135 N 0.26431 0.07032 0.98026 0.0
C136 C 0.24477 0.04564 0.96623 0.0
H137 H 0.27758 0.08661 0.05854 0.0
Co138 Co 0.28949 0.09833 0.93744 0.0
C139 C 0.29727 0.0713 0.84522 0.0
O140 O 0.3229 0.08857 0.84972 0.0
N141 N 0.3144 0.12703 0.89343 0.0
C142 C 0.34885 0.16338 0.85865 0.0
C143 C 0.33845 0.14856 0.90414 0.0
C144 C 0.31022 0.1303 0.84146 0.0
N145 N 0.33117 0.15173 0.81894 0.0
O146 O 0.26297 0.10818 0.9185 0.0
H147 H 0.34815 0.15393 0.94228 0.0
H148 H 0.29237 0.11654 0.81999 0.0
O149 O 0.28064 0.07314 0.87657 0.0
C150 C 0.26497 0.12464 0.95478 0.0
O151 O 0.2819 0.12917 0.99377 0.0
N152 N 0.31598 0.09056 0.96249 0.0
C153 C 0.35619 0.08289 1.0079 0.0
C154 C 0.3351 0.06248 0.97875 0.0
C155 C 0.31502 0.06655 0.95719 0.0
C156 C 0.33431 0.10919 0.99595 0.0
C157 C 0.35518 0.10636 0.01709 0.0
H158 H 0.29844 0.05013 0.93723 0.0
H159 H 0.33244 0.1262 1.00735 0.0
H160 H 0.24006 0.03917 0.92541 0.0
H161 H 0.24044 0.03917 0.09254 0.0
H162 H 0.36789 0.18155 0.85539 0.0
H163 H 0.33364 0.04321 0.97352 0.0
H164 H 0.37022 0.12256 0.0405 0.0
C165 C 0.96281 0.19485 0.03454 0.0
C166 C 0.98747 0.19961 0.05253 0.0
N167 N 1.00609 0.21494 0.01656 0.0
N168 N 0.96565 0.20693 0.98714 0.0
C169 C 0.99234 0.21946 0.97813 0.0
H170 H 0.94397 0.18264 0.05437 0.0
Co171 Co 0.9379 0.2039 0.94144 0.0
C172 C 0.9774 0.21479 0.85128 0.0
O173 O 0.97777 0.19227 0.85385 0.0
N174 N 0.91034 0.20052 0.89499 0.0
C175 C 0.8702 0.18886 0.86126 0.0
C176 C 0.88444 0.19155 0.90716 0.0
C177 C 0.91117 0.20302 0.84128 0.0
N178 N 0.88706 0.19595 0.81959 0.0
O179 O 0.92834 0.16749 0.92464 0.0
H180 H 0.87603 0.18611 0.94662 0.0
H181 H 0.92898 0.20928 0.81794 0.0
O182 O 0.96298 0.21926 0.88342 0.0
C183 C 0.9102 0.15327 0.95844 0.0
O184 O 0.90345 0.16573 0.99361 0.0
N185 N 0.94486 0.23799 0.96237 0.0
C186 C 0.95079 0.28562 1.00457 0.0
C187 C 0.97109 0.28545 0.97355 0.0
C188 C 0.96768 0.26148 0.95259 0.0
C189 C 0.92526 0.23764 0.9932 0.0
C190 C 0.92749 0.26113 0.01355 0.0
H191 H 0.98378 0.26191 0.92988 0.0
H192 H 0.90778 0.21888 1.00271 0.0
H193 H 1.00175 0.23179 0.94391 0.0
H194 H 0.99114 0.19152 0.08829 0.0
H195 H 0.84884 0.181 0.85878 0.0
H196 H 0.98984 0.3035 0.96652 0.0
H197 H 0.91097 0.25985 0.03633 0.0
C198 C 0.88024 0.59346 0.31508 0.0
C199 C 0.88386 0.57266 0.2991 0.0
N200 N 0.88211 0.558 0.34203 0.0
N201 N 0.87679 0.5926 0.3684 0.0
C202 C 0.87676 0.56995 0.38291 0.0
H203 H 0.88053 0.60826 0.28864 0.0
Co204 Co 0.873 0.61675 0.41581 0.0
C205 C 0.91426 0.60843 0.46829 0.0
O206 O 0.92623 0.61248 0.42198 0.0
N207 N 0.8686 0.63941 0.46294 0.0
C208 C 0.86423 0.67256 0.49697 0.0
C209 C 0.86818 0.66193 0.45102 0.0
C210 C 0.86447 0.63652 0.51613 0.0
N211 N 0.86186 0.65653 0.53806 0.0
O212 O 0.83829 0.58801 0.43694 0.0
H213 H 0.87046 0.67004 0.4114 0.0
H214 H 0.86352 0.62005 0.5384 0.0
O215 O 0.89232 0.60895 0.47231 0.0
C216 C 0.82222 0.58695 0.40056 0.0
O217 O 0.83243 0.60295 0.35953 0.0
N218 N 0.90497 0.64649 0.39013 0.0
C219 C 0.94795 0.6865 0.33433 0.0
C220 C 0.95078 0.68199 0.38814 0.0
C221 C 0.9286 0.66227 0.41604 0.0
C222 C 0.90114 0.65377 0.34087 0.0
C223 C 0.92244 0.6731 0.31165 0.0
H224 H 0.93076 0.65929 0.45772 0.0
H225 H 0.8814 0.64391 0.32349 0.0
H226 H 0.87371 0.56281 0.42344 0.0
H227 H 0.88868 0.56945 0.25918 0.0
H228 H 0.86266 0.69043 0.49964 0.0
H229 H 0.97002 0.69274 0.40766 0.0
H230 H 0.91918 0.67692 0.27092 0.0
C231 C 0.4419 0.28944 0.31261 0.0
C232 C 0.46202 0.31407 0.2963 0.0
N233 N 0.47463 0.32863 0.3397 0.0
N234 N 0.44161 0.28828 0.36613 0.0
C235 C 0.46192 0.31232 0.38143 0.0
H236 H 0.42776 0.27366 0.2871 0.0
Co237 Co 0.41622 0.25979 0.40767 0.0
C238 C 0.40957 0.28505 0.50468 0.0
O239 O 0.38378 0.26823 0.50212 0.0
N240 N 0.39109 0.2306 0.45024 0.0
C241 C 0.35593 0.19459 0.48406 0.0
C242 C 0.36642 0.21009 0.43941 0.0
C243 C 0.39547 0.22602 0.50126 0.0
N244 N 0.37412 0.20481 0.52338 0.0
O245 O 0.44256 0.2495 0.42528 0.0
H246 H 0.3562 0.20607 0.40184 0.0
H247 H 0.41371 0.23891 0.52257 0.0
O248 O 0.42536 0.28406 0.46985 0.0
C249 C 0.44131 0.23381 0.38806 0.0
O250 O 0.42498 0.22985 0.3482 0.0
N251 N 0.38998 0.26818 0.3842 0.0
C252 C 0.35121 0.27755 0.33666 0.0
C253 C 0.37124 0.29676 0.36973 0.0
C254 C 0.39056 0.29184 0.39254 0.0
C255 C 0.37245 0.25059 0.3482 0.0
C256 C 0.3523 0.25424 0.32584 0.0
H257 H 0.4065 0.30754 0.41516 0.0
H258 H 0.37444 0.23376 0.33577 0.0
H259 H 0.46702 0.31787 0.4226 0.0
H260 H 0.46618 0.32101 0.25562 0.0
H261 H 0.33637 0.17707 0.48708 0.0
H262 H 0.37265 0.31588 0.37687 0.0
H263 H 0.33794 0.23881 0.30004 0.0
C264 C 0.74589 0.17078 0.32088 0.0
C265 C 0.7208 0.16342 0.30118 0.0
N266 N 0.70243 0.14684 0.33635 0.0
N267 N 0.74354 0.15913 0.36854 0.0
C268 C 0.71685 0.14462 0.3766 0.0
H269 H 0.76462 0.18352 0.30108 0.0
Co270 Co 0.77168 0.16191 0.41152 0.0
C271 C 0.74624 0.13286 0.51196 0.0
O272 O 0.76427 0.12527 0.51414 0.0
N273 N 0.80043 0.16557 0.45473 0.0
C274 C 0.83382 0.16263 0.49267 0.0
C275 C 0.81809 0.15686 0.44793 0.0
C276 C 0.80674 0.17756 0.5031 0.0
N277 N 0.82645 0.1754 0.52788 0.0
O278 O 0.78213 0.19846 0.42794 0.0
H279 H 0.81918 0.14618 0.41374 0.0
H280 H 0.796 0.18656 0.52078 0.0
O281 O 0.74702 0.14796 0.47366 0.0
C282 C 0.80054 0.21274 0.3948 0.0
O283 O 0.80747 0.20046 0.35954 0.0
N284 N 0.76316 0.12728 0.38919 0.0
C285 C 0.75328 0.07984 0.33905 0.0
C286 C 0.73684 0.0797 0.3805 0.0
C287 C 0.74158 0.10361 0.40379 0.0
C288 C 0.77887 0.12791 0.34802 0.0
C289 C 0.77453 0.10451 0.32283 0.0
H290 H 0.72708 0.10275 0.43179 0.0
H291 H 0.79478 0.1469 0.33412 0.0
H292 H 0.70812 0.13239 0.41119 0.0
H293 H 0.71652 0.16929 0.26322 0.0
H294 H 0.8486 0.1566 0.49952 0.0
H295 H 0.71997 0.06132 0.39434 0.0
H296 H 0.7872 0.10595 0.28976 0.0
C297 C 0.49013 0.09038 0.36903 0.0
C298 C 0.48662 0.11104 0.38699 0.0
N299 N 0.48788 0.12618 0.34503 0.0
N300 N 0.49346 0.09225 0.31588 0.0
C301 C 0.49246 0.11445 0.30265 0.0
H302 H 0.48922 0.07439 0.39292 0.0
Co303 Co 0.4957 0.06752 0.27023 0.0
C304 C 0.46359 0.06495 0.17612 0.0
O305 O 0.45473 0.0392 0.17344 0.0
N306 N 0.49873 0.04303 0.22288 0.0
C307 C 0.49703 1.00781 0.18232 0.0
C308 C 0.49267 0.01735 0.22912 0.0
C309 C 0.50807 0.0488 0.1722 0.0
N310 N 0.50648 0.02753 0.14624 0.0
O311 O 0.53219 0.09355 0.25351 0.0
H312 H 0.4856 1.00573 0.26486 0.0
H313 H 0.51482 0.06804 0.15391 0.0
O314 O 0.48068 0.079 0.21192 0.0
C315 C 0.54614 0.08864 0.28643 0.0
O316 O 0.53326 0.06934 0.32094 0.0
N317 N 0.46118 0.04145 0.29281 0.0
C318 C 0.41301 1.00095 0.33562 0.0
C319 C 0.41398 0.02255 0.3075 0.0
C320 C 0.43821 0.04262 0.28679 0.0
C321 C 0.46121 0.02269 0.32538 0.0
C322 C 0.43744 1.00162 0.34477 0.0
H323 H 0.43852 0.05945 0.26754 0.0
H324 H 0.47997 0.02403 0.33639 0.0
H325 H 0.49461 0.12159 0.26227 0.0
H326 H 0.48219 0.11382 0.42751 0.0
H327 H 0.49376 0.98791 0.17561 0.0
H328 H 0.39643 0.02456 0.30237 0.0
H329 H 0.43869 0.98622 0.36668 0.0
C330 C 0.94177 0.40377 0.38268 0.0
C331 C 0.92103 0.37953 0.39913 0.0
N332 N 0.90687 0.36599 0.35602 0.0
N333 N 0.94088 0.40558 0.32937 0.0
C334 C 0.9192 0.38248 0.31445 0.0
H335 H 0.95706 0.41877 0.40782 0.0
Co336 Co 0.96591 0.43337 0.28643 0.0
C337 C 0.96911 0.40666 0.18692 0.0
O338 O 0.99482 0.42376 0.18365 0.0
N339 N 0.99064 0.4617 0.24262 0.0
C340 C 0.02658 0.49476 0.20385 0.0
C341 C 1.01662 0.48011 0.24978 0.0
C342 C 0.98512 0.46661 0.19283 0.0
N343 N 1.00681 0.48593 0.16758 0.0
O344 O 0.93951 0.44366 0.26974 0.0
H345 H 0.02821 0.48248 0.28506 0.0
H346 H 0.96571 0.45504 0.17441 0.0
O347 O 0.95533 0.40848 0.22517 0.0
C348 C 0.9396 0.45881 0.30692 0.0
O349 O 0.9557 0.46337 0.34748 0.0
N350 N 0.99217 0.42467 0.30872 0.0
C351 C 0.02901 0.41316 0.35845 0.0
C352 C 1.01125 0.39617 0.31939 0.0
C353 C 0.99246 0.40176 0.29653 0.0
C354 C 1.00864 0.44097 0.34769 0.0
C355 C 0.02736 0.43582 0.37256 0.0
H356 H 0.97753 0.38687 0.27101 0.0
H357 H 1.00665 0.45774 0.3608 0.0
H358 H 0.91276 0.37773 0.2736 0.0
H359 H 0.91749 0.37204 0.43945 0.0
H360 H 0.04719 0.50972 0.1969 0.0
H361 H 1.01129 0.37822 0.30721 0.0
H362 H 0.03965 0.449 0.404 0.0
C363 C 0.63404 0.54241 0.38626 0.0
C364 C 0.65704 0.54333 0.40446 0.0
N365 N 0.6677 0.53597 0.36472 0.0
N366 N 0.63012 0.53494 0.33465 0.0
C367 C 0.65032 0.52997 0.32366 0.0
H368 H 0.62176 0.54794 0.40931 0.0
Co369 Co 0.604 0.53347 0.28542 0.0
C370 C 0.65645 0.56947 0.23236 0.0
O371 O 0.66731 0.57959 0.27866 0.0
N372 N 0.57835 0.53138 0.23646 0.0
C373 C 0.54213 0.52906 0.19979 0.0
C374 C 0.55505 0.53063 0.24695 0.0
C375 C 0.57893 0.52981 0.18277 0.0
N376 N 0.55719 0.52857 0.15915 0.0
O377 O 0.59587 0.49787 0.26477 0.0
H378 H 0.54785 0.53119 0.28635 0.0
H379 H 0.59486 0.5291 0.16146 0.0
O380 O 0.63184 0.55125 0.22975 0.0
C381 C 0.57901 0.48303 0.30009 0.0
O382 O 0.57327 0.49486 0.33838 0.0
N383 N 0.60815 0.56621 0.31095 0.0
C384 C 0.60708 0.60831 0.36483 0.0
C385 C 0.62212 0.61288 0.31788 0.0
C386 C 0.62176 0.59145 0.29066 0.0
C387 C 0.59206 0.5613 0.35406 0.0
C388 C 0.59117 0.58181 0.38137 0.0
H389 H 0.63224 0.59541 0.2534 0.0
H390 H 0.57987 0.54107 0.36787 0.0
H391 H 0.6531 0.52371 0.28478 0.0
H392 H 0.66607 0.55062 0.44302 0.0
H393 H 0.52322 0.52864 0.19603 0.0
H394 H 0.63435 0.6328 0.30237 0.0
H395 H 0.578 0.57672 0.41534 0.0
C396 C 0.54693 0.93328 0.62582 0.0
C397 C 0.5495 0.91385 0.5992 0.0
N398 N 0.54283 0.89313 0.63219 0.0
N399 N 0.53938 0.92547 0.67639 0.0
C400 C 0.53533 0.90026 0.67773 0.0
H401 H 0.55299 0.95301 0.61083 0.0
Co402 Co 0.54139 0.9489 0.73211 0.0
C403 C 0.56798 0.92052 0.79215 0.0
O404 O 0.57285 0.90892 0.75246 0.0
N405 N 0.54375 0.97223 0.7888 0.0
C406 C 0.56265 1.00165 0.85471 0.0
C407 C 0.56721 0.99037 0.81111 0.0
C408 C 0.52505 0.97244 0.82158 0.0
N409 N 0.53614 0.99038 0.86178 0.0
O410 O 0.50461 0.92382 0.7512 0.0
H411 H 0.58678 0.99419 0.79892 0.0
H412 H 0.50381 0.95895 0.81771 0.0
O413 O 0.55682 0.93467 0.78453 0.0
C414 C 0.49077 0.93037 0.7212 0.0
O415 O 0.50389 0.9506 0.68876 0.0
N416 N 0.57558 0.97482 0.7077 0.0
C417 C 0.62325 0.01749 0.669 0.0
C418 C 0.62185 0.9934 0.68457 0.0
C419 C 0.59787 0.97235 0.70387 0.0
C420 C 0.57611 0.9974 0.69007 0.0
C421 C 0.59975 0.01912 0.67182 0.0
H422 H 0.59727 0.95408 0.71459 0.0
H423 H 0.55809 0.99883 0.69173 0.0
H424 H 0.52951 0.88819 0.71333 0.0
H425 H 0.55907 0.91634 0.56092 0.0
H426 H 0.57778 0.01564 0.88161 0.0
H427 H 0.63899 0.99054 0.68122 0.0
H428 H 0.59951 0.0371 0.66086 0.0
C429 C 0.10753 0.61756 0.64972 0.0
C430 C 0.12653 0.64222 0.6309 0.0
N431 N 0.13921 0.65803 0.67282 0.0
N432 N 0.10812 0.61773 0.70332 0.0
C433 C 0.12791 0.64247 0.71604 0.0
H434 H 0.09324 0.60101 0.62592 0.0
Co435 Co 0.08336 0.59076 0.74841 0.0
C436 C 0.07923 0.61956 0.84255 0.0
O437 O 0.05329 0.60319 0.84154 0.0
N438 N 0.0588 0.56325 0.79459 0.0
C439 C 0.02359 0.52977 0.83437 0.0
C440 C 0.03331 0.54353 0.78753 0.0
C441 C 0.06429 0.56005 0.84568 0.0
N442 N 0.04301 0.54038 0.87136 0.0
O443 O 0.10965 0.58028 0.76589 0.0
H444 H 1.02187 0.53925 0.75144 0.0
H445 H 0.08348 0.57265 0.86416 0.0
O446 O 0.09417 0.61679 0.80814 0.0
C447 C 0.10691 0.56316 0.73048 0.0
O448 O 0.08913 0.55789 0.69284 0.0
N449 N 0.05712 0.59908 0.72461 0.0
C450 C 1.02046 0.60889 0.67008 0.0
C451 C 0.03974 0.62829 0.7037 0.0
C452 C 0.05817 0.62316 0.73003 0.0
C453 C 0.03958 0.58084 0.68942 0.0
C454 C 1.02053 0.58489 0.66319 0.0
H455 H 0.07405 0.63914 0.75226 0.0
H456 H 0.04117 0.56346 0.67969 0.0
H457 H 0.13348 0.64925 0.75642 0.0
H458 H 0.12957 0.64843 0.5897 0.0
H459 H 1.00335 0.51385 0.84095 0.0
H460 H 0.0411 0.64758 0.70822 0.0
H461 H 1.00702 0.57003 0.63526 0.0
C462 C 0.41914 0.48781 0.64344 0.0
C463 C 0.39418 0.48279 0.62703 0.0
N464 N 0.37978 0.48163 0.67027 0.0
N465 N 0.42061 0.48974 0.69688 0.0
C466 C 0.39649 0.4862 0.71193 0.0
H467 H 0.43497 0.48925 0.61808 0.0
Co468 Co 0.44938 0.49455 0.7405 0.0
C469 C 0.42358 0.46011 0.83402 0.0
O470 O 0.44208 0.45311 0.83293 0.0
N471 N 0.47845 0.5002 0.78599 0.0
C472 C 0.51457 0.50293 0.82494 0.0
C473 C 0.50023 0.49748 0.77829 0.0
C474 C 0.48089 0.50844 0.83732 0.0
N475 N 0.50218 0.50951 0.86242 0.0
O476 O 0.45622 0.52986 0.75949 0.0
H477 H 0.50558 0.49151 0.74185 0.0
H478 H 0.46664 0.51275 0.85648 0.0
O479 O 0.42395 0.47672 0.79972 0.0
C480 C 0.47253 0.54425 0.72303 0.0
O481 O 0.47806 0.53194 0.68534 0.0
N482 N 0.44508 0.46189 0.71458 0.0
C483 C 0.44234 0.41917 0.65599 0.0
C484 C 0.42169 0.41534 0.69116 0.0
C485 C 0.42323 0.43705 0.71945 0.0
C486 C 0.46445 0.46608 0.67862 0.0
C487 C 0.46399 0.44509 0.65044 0.0
H488 H 0.40628 0.43397 0.74303 0.0
H489 H 0.48016 0.48616 0.67049 0.0
H490 H 0.39124 0.4868 0.75296 0.0
H491 H 0.38696 0.47926 0.58647 0.0
H492 H 0.53216 0.50106 0.83119 0.0
H493 H 0.40393 0.39602 0.69513 0.0
H494 H 0.48039 0.44941 0.62377 0.0
C495 C 0.16797 0.42796 0.71437 0.0
C496 C 0.16215 0.44723 0.73158 0.0
N497 N 0.15946 0.45974 0.68872 0.0
N498 N 0.16895 0.42815 0.66081 0.0
C499 C 0.16398 0.44789 0.64647 0.0
H500 H 0.17061 0.41419 0.73931 0.0
Co501 Co 0.17416 0.40464 0.61659 0.0
C502 C 0.13886 0.3963 0.52417 0.0
O503 O 0.1322 0.371 0.52477 0.0
N504 N 0.18004 0.3816 0.57073 0.0
C505 C 0.18279 0.34823 0.53214 0.0
C506 C 0.17754 0.35732 0.57875 0.0
C507 C 0.18806 0.38716 0.51927 0.0
N508 N 0.18918 0.36695 0.49443 0.0
O509 O 0.20942 0.43313 0.59748 0.0
H510 H 0.1722 0.34644 0.61565 0.0
H511 H 0.19181 0.40536 0.49967 0.0
O512 O 0.15611 0.41237 0.55769 0.0
C513 C 0.22454 0.43207 0.63368 0.0
O514 O 0.21298 0.41501 0.67267 0.0
N515 N 0.14157 0.37603 0.64232 0.0
C516 C 0.09916 0.33116 0.69003 0.0
C517 C 0.09433 0.34808 0.65732 0.0
C518 C 0.11591 0.37087 0.63488 0.0
C519 C 0.14651 0.36144 0.67842 0.0
C520 C 0.12578 0.33872 0.70174 0.0
H521 H 0.11182 0.38425 0.61202 0.0
H522 H 0.16692 0.36735 0.68877 0.0
H523 H 0.16347 0.45335 0.60558 0.0
H524 H 0.15908 0.45094 0.77245 0.0
H525 H 0.18196 0.32926 0.5266 0.0
H526 H 0.07414 0.34371 0.64875 0.0
H527 H 0.13065 0.32732 0.7292 0.0
C528 C 0.60246 0.74064 0.7016 0.0
C529 C 0.58345 0.71575 0.71935 0.0
N530 N 0.57369 0.69925 0.67714 0.0
N531 N 0.60489 0.73999 0.64842 0.0
C532 C 0.58692 0.71463 0.6347 0.0
H533 H 0.61415 0.75801 0.72609 0.0
Co534 Co 0.62906 0.76843 0.60541 0.0
C535 C 0.63332 0.74332 0.50329 0.0
O536 O 0.65823 0.7621 0.49649 0.0
N537 N 0.65302 0.79738 0.56194 0.0
C538 C 0.68892 0.83077 0.52397 0.0
C539 C 0.67907 0.81549 0.56919 0.0
C540 C 0.64732 0.80303 0.51296 0.0
N541 N 0.66901 0.82259 0.48809 0.0
O542 O 0.60092 0.77647 0.58721 0.0
H543 H 0.69073 0.81695 0.60388 0.0
H544 H 0.62789 0.79163 0.49452 0.0
O545 O 0.62024 0.7435 0.54444 0.0
C546 C 0.60417 0.79592 0.6167 0.0
O547 O 0.62363 0.805 0.65183 0.0
N548 N 0.65707 0.76254 0.62946 0.0
C549 C 0.70015 0.76081 0.67734 0.0
C550 C 0.68672 0.74437 0.63386 0.0
C551 C 0.66471 0.74497 0.61136 0.0
C552 C 0.66925 0.77774 0.67322 0.0
C553 C 0.69078 0.77721 0.69774 0.0
H554 H 0.65394 0.73102 0.58018 0.0
H555 H 0.66248 0.79087 0.68859 0.0
H556 H 0.58358 0.70753 0.59417 0.0
H557 H 0.57794 0.71017 0.76041 0.0
H558 H 0.70959 0.84557 0.517 0.0
H559 H 0.69291 0.73082 0.61802 0.0
H560 H 0.70042 0.79 0.73163 0.0
C561 C 0.29101 0.85286 0.69089 0.0
C562 C 0.3161 0.85941 0.70929 0.0
N563 N 0.33454 0.87778 0.67655 0.0
N564 N 0.29328 0.86681 0.64633 0.0
C565 C 0.32003 0.88199 0.63906 0.0
H566 H 0.27229 0.83882 0.70922 0.0
Co567 Co 0.26454 0.86452 0.60532 0.0
C568 C 0.28924 0.89222 0.50286 0.0
O569 O 0.27185 0.90063 0.49994 0.0
N570 N 0.23503 0.86129 0.56447 0.0
C571 C 0.19784 0.86101 0.53862 0.0
C572 C 0.21585 0.86693 0.57946 0.0
C573 C 0.22746 0.85098 0.51472 0.0
N574 N 0.2053 0.85124 0.49756 0.0
O575 O 0.25314 0.8277 0.5887 0.0
H576 H 0.21462 0.87473 0.61765 0.0
H577 H 0.23833 0.84383 0.4911 0.0
O578 O 0.28827 0.87762 0.54222 0.0
C579 C 0.23472 0.81346 0.62188 0.0
O580 O 0.22773 0.82584 0.65679 0.0
N581 N 0.27402 0.89952 0.62783 0.0
C582 C 0.28406 0.94746 0.67644 0.0
C583 C 0.29941 0.94735 0.63304 0.0
C584 C 0.29459 0.92325 0.61034 0.0
C585 C 0.25966 0.89917 0.67125 0.0
C586 C 0.26405 0.92278 0.69569 0.0
H587 H 0.30818 0.92407 0.58017 0.0
H588 H 0.24473 0.88026 0.68747 0.0
H589 H 0.32867 0.89597 0.60687 0.0
H590 H 0.32027 0.85145 0.74465 0.0
H591 H 0.18088 0.86429 0.53872 0.0
H592 H 0.31539 0.96573 0.61693 0.0
H593 H 0.25235 0.92155 0.73035 0.0
H594 H 0.26942 0.31383 0.2576 0.0
H595 H 0.26083 0.26144 0.12774 0.0
H596 H 0.29198 0.25016 0.17095 0.0
H597 H 0.32438 0.25828 0.24155 0.0
H598 H 0.32969 0.30739 0.37613 0.0
H599 H 0.29777 0.31749 0.33408 0.0
C600 C 0.2741 0.29964 0.23922 0.0
C601 C 0.26287 0.28847 0.1896 0.0
C602 C 0.2919 0.29314 0.26448 0.0
C603 C 0.26895 0.27003 0.16625 0.0
C604 C 0.28699 0.26381 0.1907 0.0
C605 C 0.31826 0.27066 0.2628 0.0
C606 C 0.33015 0.28229 0.31207 0.0
C607 C 0.29896 0.27563 0.23939 0.0
C608 C 0.32186 0.29873 0.33755 0.0
C609 C 0.30324 0.30433 0.31381 0.0
H610 H 0.70691 0.96957 0.22012 0.0
H611 H 0.79048 0.99859 0.18842 0.0
H612 H 0.80223 0.03858 0.24148 0.0
H613 H 0.78831 0.06578 0.29465 0.0
H614 H 0.704 0.03714 0.31777 0.0
H615 H 0.69318 0.99634 0.27103 0.0
C616 C 0.72778 0.98446 0.22498 0.0
C617 C 0.74778 0.98098 0.20035 0.0
C618 C 0.73427 1.00752 0.2542 0.0
C619 C 0.77466 1.00069 0.20702 0.0
C620 C 0.78137 0.0236 0.23724 0.0
C621 C 0.76756 0.05073 0.2892 0.0
C622 C 0.74709 0.05468 0.31063 0.0
C623 C 0.76128 0.02737 0.26053 0.0
C624 C 0.72033 0.03464 0.30338 0.0
C625 C 0.71402 1.01128 0.27602 0.0
H626 H 0.02933 0.73457 0.14628 0.0
H627 H 0.05248 0.80836 0.2282 0.0
H628 H 1.02157 0.78354 0.30131 0.0
H629 H 0.98475 0.74035 0.33764 0.0
H630 H 0.96279 0.66773 0.25171 0.0
H631 H 0.99657 0.69252 0.18461 0.0
C632 C 0.02772 0.74532 0.18019 0.0
C633 C 0.04277 0.77327 0.18146 0.0
C634 C 1.01004 0.73102 0.22132 0.0
C635 C 0.04097 0.78682 0.22627 0.0
C636 C 0.02323 0.77262 0.26787 0.0
C637 C 0.98779 0.73008 0.3046 0.0
C638 C 0.97122 0.70228 0.29923 0.0
C639 C 1.0072 0.74466 0.26533 0.0
C640 C 0.9752 0.68911 0.2563 0.0
C641 C 0.99445 0.70326 0.21791 0.0
H642 H 0.70658 0.7495 0.77933 0.0
H643 H 0.74714 0.7732 0.62861 0.0
H644 H 0.78763 0.77684 0.66885 0.0
H645 H 0.81184 0.7741 0.74796 0.0
H646 H 0.76941 0.74638 0.89648 0.0
H647 H 0.72959 0.74359 0.85642 0.0
C648 C 0.72429 0.75535 0.75539 0.0
C649 C 0.72399 0.76121 0.70121 0.0
C650 C 0.74727 0.75683 0.77857 0.0
C651 C 0.74693 0.76851 0.67037 0.0
C652 C 0.77009 0.77069 0.69344 0.0
C653 C 0.79389 0.76748 0.77152 0.0
C654 C 0.79389 0.76093 0.8255 0.0
C655 C 0.77058 0.76507 0.74766 0.0
C656 C 0.77021 0.75187 0.85509 0.0
C657 C 0.74732 0.7502 0.83216 0.0
H658 H 0.32978 0.05986 0.78715 0.0
H659 H 0.24669 0.02874 0.82709 0.0
H660 H 0.23504 0.98801 0.77671 0.0
H661 H 0.24898 0.96072 0.72376 0.0
H662 H 0.33299 0.99182 0.69139 0.0
H663 H 0.34353 0.03316 0.73577 0.0
C664 C 0.30901 0.04434 0.78469 0.0
C665 C 0.28915 0.04749 0.81097 0.0
C666 C 0.30261 0.02088 0.75687 0.0
C667 C 0.26241 0.02696 0.80721 0.0
C668 C 0.25577 1.00362 0.77854 0.0
C669 C 0.26963 0.97644 0.72665 0.0
C670 C 0.29007 0.97295 0.70344 0.0
C671 C 0.27579 1.00021 0.75373 0.0
C672 C 0.31665 0.99387 0.70735 0.0
C673 C 0.32281 0.01757 0.7333 0.0
H674 H 1.02135 0.22011 0.79818 0.0
H675 H 0.97544 0.25955 0.82557 0.0
H676 H 1.00811 0.29836 0.77631 0.0
H677 H 0.05132 0.32256 0.73042 0.0
H678 H 0.09715 0.28314 0.70188 0.0
H679 H 0.06313 0.24322 0.7465 0.0
C680 C 1.01831 0.23703 0.79274 0.0
C681 C 0.99603 0.23689 0.81604 0.0
C682 C 0.03738 0.25956 0.76452 0.0
C683 C 0.99252 0.25913 0.80864 0.0
C684 C 1.01122 0.28142 0.78039 0.0
C685 C 0.05369 0.30511 0.73313 0.0
C686 C 0.07702 0.30612 0.71325 0.0
C687 C 0.03397 0.28208 0.75889 0.0
C688 C 0.07972 0.28325 0.71773 0.0
C689 C 0.06017 0.26028 0.74304 0.0
H690 H 0.96491 0.64264 0.49509 0.0
H691 H 0.89558 0.57028 0.54599 0.0
H692 H 0.92216 0.56455 0.61598 0.0
H693 H 0.96641 0.5785 0.65716 0.0
H694 H 0.03489 0.65209 0.60733 0.0
H695 H 1.00736 0.65928 0.54288 0.0
C696 C 0.95558 0.62585 0.52216 0.0
C697 C 0.92849 0.6068 0.51558 0.0
C698 C 0.97088 0.62293 0.56222 0.0
C699 C 0.91641 0.58522 0.55078 0.0
C700 C 0.93166 0.58189 0.59043 0.0
C701 C 0.97513 0.59626 0.63261 0.0
C702 C 1.00266 0.61471 0.63678 0.0
C703 C 0.95908 0.60035 0.59575 0.0
C704 C 1.01374 0.63774 0.60513 0.0
C705 C 0.99805 0.64176 0.56802 0.0
H706 H 0.42072 0.36636 0.68252 0.0
H707 H 0.46009 0.42148 0.55352 0.0
H708 H 0.4576 0.38562 0.49898 0.0
H709 H 0.441 0.3378 0.48443 0.0
H710 H 0.39697 0.28198 0.60893 0.0
H711 H 0.40456 0.31866 0.66837 0.0
C712 C 0.42863 0.37059 0.64242 0.0
C713 C 0.44077 0.39687 0.62283 0.0
C714 C 0.42638 0.3496 0.61022 0.0
C715 C 0.45117 0.40175 0.57069 0.0
C716 C 0.44958 0.38113 0.539 0.0
C717 C 0.43367 0.33381 0.52501 0.0
C718 C 0.41879 0.30735 0.54269 0.0
C719 C 0.43699 0.35492 0.55807 0.0
C720 C 0.40873 0.30228 0.59481 0.0
C721 C 0.41288 0.32322 0.62861 0.0
H722 H 0.63033 0.05572 0.59513 0.0
H723 H 0.67449 0.03199 0.69959 0.0
H724 H 0.71629 0.06723 0.66365 0.0
H725 H 0.74033 0.10272 0.5987 0.0
H726 H 0.6968 0.1289 0.4991 0.0
H727 H 0.6548 0.0955 0.53909 0.0
C728 C 0.64898 0.05845 0.61115 0.0
C729 C 0.64889 0.04053 0.64951 0.0
C730 C 0.67317 0.07935 0.59137 0.0
C731 C 0.6736 0.04463 0.66886 0.0
C732 C 0.69766 0.06508 0.64879 0.0
C733 C 0.72171 0.10144 0.58616 0.0
C734 C 0.72173 0.11777 0.54456 0.0
C735 C 0.69766 0.08221 0.60938 0.0
C736 C 0.69744 0.11621 0.52993 0.0
C737 C 0.67335 0.09702 0.55279 0.0
H738 H 0.44098 0.04942 0.07907 0.0
H739 H 0.45223 0.10349 0.20734 0.0
H740 H 0.42038 0.11437 0.16614 0.0
H741 H 0.38594 0.1047 0.09894 0.0
H742 H 0.37721 0.05309 0.96663 0.0
H743 H 0.41084 0.04443 1.00527 0.0
C744 C 0.43682 0.06398 0.09739 0.0
C745 C 0.44893 0.07566 0.14613 0.0
C746 C 0.4184 0.07002 0.07357 0.0
C747 C 0.44347 0.09454 0.16946 0.0
C748 C 0.42498 0.10049 0.14622 0.0
C749 C 0.39168 0.09206 0.07747 0.0
C750 C 0.37834 0.07923 0.03005 0.0
C751 C 0.41182 0.08782 0.09893 0.0
C752 C 0.38619 0.0626 1.004 0.0
C753 C 0.40576 0.05785 0.02574 0.0
H754 H 0.98386 0.40172 0.08713 0.0
H755 H 0.93146 0.35634 0.21542 0.0
H756 H 0.92049 0.31485 0.16967 0.0
H757 H 0.9297 0.29178 0.09828 0.0
H758 H 0.97967 0.33699 0.96619 0.0
H759 H 0.98832 0.37821 0.00937 0.0
C760 C 0.96964 0.38272 0.10451 0.0
C761 C 0.95843 0.38208 0.15458 0.0
C762 C 0.96355 0.35892 0.07801 0.0
C763 C 0.94 0.35738 0.17662 0.0
C764 C 0.93401 0.33364 0.15073 0.0
C765 C 0.94193 0.31044 0.07781 0.0
C766 C 0.95428 0.31087 0.02899 0.0
C767 C 0.94619 0.33418 0.10202 0.0
C768 C 0.97048 0.33571 1.0044 0.0
C769 C 0.97524 0.35943 0.02881 0.0
H770 H 0.70858 0.58733 0.21462 0.0
H771 H 0.63868 0.58311 0.14304 0.0
H772 H 0.6665 0.61439 0.0734 0.0
H773 H 0.71179 0.6472 0.03968 0.0
H774 H 0.78077 0.64838 0.11019 0.0
H775 H 0.75231 0.61417 0.17302 0.0
C776 C 0.6994 0.59283 0.18305 0.0
C777 C 0.67174 0.58313 0.18403 0.0
C778 C 0.71546 0.61071 0.14341 0.0
C779 C 0.65997 0.59023 0.14284 0.0
C780 C 0.67593 0.60832 0.10335 0.0
C781 C 0.72054 0.63963 0.06812 0.0
C782 C 0.7486 0.65125 0.07125 0.0
C783 C 0.70387 0.61936 0.10414 0.0
C784 C 0.75941 0.64077 0.10809 0.0
C785 C 0.74312 0.62097 0.14393 0.0
H786 H 0.6081 0.96434 0.83822 0.0
H787 H 0.55909 0.87936 0.85574 0.0
H788 H 0.58853 0.87949 0.92605 0.0
H789 H 0.63122 0.90275 0.9732 0.0
H790 H 0.6831 0.98705 0.94864 0.0
H791 H 0.64945 0.98843 0.89159 0.0
C792 C 0.60348 0.94607 0.85891 0.0
C793 C 0.58131 0.92191 0.84282 0.0
C794 C 0.6213 0.94616 0.89736 0.0
C795 C 0.57585 0.89817 0.86834 0.0
C796 C 0.59282 0.89824 0.90807 0.0
C797 C 0.63517 0.92148 0.95556 0.0
C798 C 0.65989 0.94466 0.96466 0.0
C799 C 0.61614 0.92194 0.92137 0.0
C800 C 0.66429 0.96888 0.94257 0.0
C801 C 0.6451 0.96965 0.90955 0.0
H802 H 0.05426 0.62695 0.92666 0.0
H803 H 0.12761 0.66607 0.83695 0.0
H804 H 0.14092 0.70753 0.88524 0.0
H805 H 0.1299 0.73361 0.94818 0.0
H806 H 0.05618 0.69398 0.03692 0.0
H807 H 0.04508 0.65179 0.99437 0.0
C808 C 0.07332 0.64445 0.91794 0.0
C809 C 0.08969 0.64344 0.87744 0.0
C810 C 0.08074 0.66823 0.94568 0.0
C811 C 0.11449 0.66624 0.86746 0.0
C812 C 0.12207 0.69004 0.89502 0.0
C813 C 0.11143 0.71572 0.9583 0.0
C814 C 0.09379 0.71709 0.99546 0.0
C815 C 0.10504 0.69144 0.93331 0.0
C816 C 0.07022 0.69356 0.00882 0.0
C817 C 0.06375 0.66941 0.98422 0.0
H818 H 0.34088 0.38828 1.00831 0.0
H819 H 0.28605 0.3751 0.87945 0.0
H820 H 0.32249 0.40819 0.82582 0.0
H821 H 0.37067 0.43877 0.81233 0.0
H822 H 0.42596 0.44825 0.93714 0.0
H823 H 0.38884 0.41886 0.9951 0.0
C824 C 0.33684 0.39243 0.96838 0.0
C825 C 0.31049 0.37911 0.94855 0.0
C826 C 0.35811 0.41099 0.93678 0.0
C827 C 0.30586 0.38526 0.89673 0.0
C828 C 0.3268 0.40412 0.86559 0.0
C829 C 0.37445 0.4348 0.85264 0.0
C830 C 0.4009 0.44585 0.87083 0.0
C831 C 0.35305 0.41696 0.88495 0.0
C832 C 0.40568 0.44007 0.92257 0.0
C833 C 0.38449 0.42315 0.95556 0.0
H834 H 0.07921 0.44696 0.39921 0.0
H835 H 1.02068 0.36339 0.38336 0.0
H836 H 0.05035 0.35142 0.42866 0.0
H837 H 0.09182 0.36406 0.47566 0.0
H838 H 0.14919 0.44709 0.50033 0.0
H839 H 0.1208 0.45978 0.44961 0.0
C840 C 0.07276 0.42612 0.40597 0.0
C841 C 0.04766 0.4062 0.38672 0.0
C842 C 0.08969 0.4192 0.43393 0.0
C843 C 0.04004 0.3793 0.39583 0.0
C844 C 0.05693 0.37234 0.42243 0.0
C845 C 0.09835 0.38499 0.46965 0.0
C846 C 0.12277 0.40459 0.49141 0.0
C847 C 0.08171 0.39207 0.44173 0.0
C848 C 0.13057 0.43158 0.48381 0.0
C849 C 0.1143 0.43883 0.45489 0.0
H850 H 0.61319 0.69224 0.53532 0.0
H851 H 0.63313 0.74156 0.39568 0.0
H852 H 0.62473 0.70354 0.33937 0.0
H853 H 0.61516 0.65722 0.33086 0.0
H854 H 0.60189 0.6103 0.47318 0.0
H855 H 0.60375 0.64604 0.52679 0.0
C856 C 0.61504 0.69441 0.49244 0.0
C857 C 0.62329 0.71943 0.46941 0.0
C858 C 0.61165 0.67288 0.46072 0.0
C859 C 0.62643 0.7223 0.41402 0.0
C860 C 0.62186 0.70065 0.38195 0.0
C861 C 0.6129 0.65475 0.37358 0.0
C862 C 0.60813 0.63064 0.39725 0.0
C863 C 0.61516 0.67599 0.405 0.0
C864 C 0.60486 0.62808 0.45296 0.0
C865 C 0.60618 0.64872 0.4841 0.0
H866 H 0.29517 0.91877 0.41037 0.0
H867 H 0.33839 0.89649 0.5198 0.0
H868 H 0.3805 0.92857 0.47866 0.0
H869 H 0.4049 0.96625 0.41904 0.0
H870 H 0.36148 0.98392 0.30006 0.0
H871 H 0.31964 0.95083 0.33914 0.0
C872 C 0.31377 0.92059 0.42471 0.0
C873 C 0.31365 0.90598 0.46962 0.0
C874 C 0.33793 0.93873 0.4001 0.0
C875 C 0.33786 0.90805 0.48658 0.0
C876 C 0.36201 0.92645 0.46298 0.0
C877 C 0.3866 0.9627 0.4 0.0
C878 C 0.38708 0.97868 0.3569 0.0
C879 C 0.36232 0.94252 0.42082 0.0
C880 C 0.36239 0.97323 0.33453 0.0
C881 C 0.33819 0.95385 0.35636 0.0
H882 H 0.17062 0.32194 0.43555 0.0
H883 H 0.21886 0.40751 0.4266 0.0
H884 H 0.22652 0.40437 0.33198 0.0
H885 H 0.22001 0.37736 0.25197 0.0
H886 H 0.17133 0.29177 0.26067 0.0
H887 H 0.16389 0.29491 0.35527 0.0
C888 C 0.18306 0.33991 0.41316 0.0
C889 C 0.19419 0.36496 0.43858 0.0
C890 C 0.18738 0.33796 0.35857 0.0
C891 C 0.20982 0.38801 0.40828 0.0
C892 C 0.21431 0.38621 0.35409 0.0
C893 C 0.2075 0.35935 0.27419 0.0
C894 C 0.19627 0.33433 0.24863 0.0
C895 C 0.20314 0.3613 0.32876 0.0
C896 C 0.18053 0.31128 0.27894 0.0
C897 C 0.17614 0.31307 0.33319 0.0
H898 H 0.70579 0.86898 0.44305 0.0
H899 H 0.63867 0.79175 0.40614 0.0
H900 H 0.64474 0.8023 0.3117 0.0
H901 H 0.66979 0.83284 0.23898 0.0
H902 H 0.73665 0.91035 0.27568 0.0
H903 H 0.7305 0.89987 0.37008 0.0
C904 C 0.69249 0.85443 0.41441 0.0
C905 C 0.67169 0.82964 0.43224 0.0
C906 C 0.69628 0.86049 0.35972 0.0
C907 C 0.65453 0.81118 0.39419 0.0
C908 C 0.65816 0.81709 0.33987 0.0
C909 C 0.68296 0.84759 0.26741 0.0
C910 C 0.70378 0.87236 0.24942 0.0
C911 C 0.67905 0.84163 0.32211 0.0
C912 C 0.72076 0.89094 0.28754 0.0
C913 C 0.7171 0.88506 0.34192 0.0
H914 H 0.1367 0.82337 0.28735 0.0
H915 H 0.21525 0.85571 0.21793 0.0
H916 H 0.23497 0.86205 0.30573 0.0
H917 H 0.23058 0.8595 0.40322 0.0
H918 H 0.15276 0.82926 0.4738 0.0
H919 H 0.13235 0.82127 0.38543 0.0
C920 C 0.15813 0.83196 0.29131 0.0
C921 C 0.17422 0.83869 0.2453 0.0
C922 C 0.16963 0.83596 0.34259 0.0
C923 C 0.20205 0.84971 0.25192 0.0
C924 C 0.21351 0.85354 0.30246 0.0
C925 C 0.20912 0.85082 0.39921 0.0
C926 C 0.19323 0.84485 0.44519 0.0
C927 C 0.19755 0.84669 0.34813 0.0
C928 C 0.16548 0.83413 0.43915 0.0
C929 C 0.15379 0.82955 0.38855 0.0
H930 H 0.83049 0.65259 0.7795 0.0
H931 H 0.87108 0.7378 0.75584 0.0
H932 H 0.87984 0.73195 0.66377 0.0
H933 H 0.87628 0.7029 0.58921 0.0
H934 H 0.83668 0.61784 0.61232 0.0
H935 H 0.82792 0.62349 0.70516 0.0
C936 C 0.84146 0.66995 0.75454 0.0
C937 C 0.8498 0.69563 0.77528 0.0
C938 C 0.8468 0.66651 0.70118 0.0
C939 C 0.86383 0.71774 0.74147 0.0
C940 C 0.86907 0.71445 0.68854 0.0
C941 C 0.86557 0.68555 0.61436 0.0
C942 C 0.85711 0.65995 0.59339 0.0
C943 C 0.86056 0.68895 0.66784 0.0
C944 C 0.84369 0.63779 0.62721 0.0
C945 C 0.83852 0.64101 0.68038 0.0
H946 H 0.37781 0.17876 0.76534 0.0
H947 H 0.29236 0.14241 0.74703 0.0
H948 H 0.29811 0.15512 0.65328 0.0
H949 H 0.3274 0.17726 0.57692 0.0
H950 H 0.41288 0.21333 0.59505 0.0
H951 H 0.4071 0.20051 0.68863 0.0
C952 C 0.36042 0.17384 0.7411 0.0
C953 C 0.33465 0.15967 0.76359 0.0
C954 C 0.36389 0.18124 0.68709 0.0
C955 C 0.31239 0.15306 0.73094 0.0
C956 C 0.31568 0.16044 0.67727 0.0
C957 C 0.34481 0.18206 0.60096 0.0
C958 C 0.37059 0.1963 0.57844 0.0
C959 C 0.34134 0.17451 0.65489 0.0
C960 C 0.39283 0.20269 0.61103 0.0
C961 C 0.38953 0.19525 0.66467 0.0
H962 H 0.87243 0.18203 0.57138 0.0
H963 H 0.79973 0.18276 0.60975 0.0
H964 H 0.81273 0.19048 0.7029 0.0
H965 H 0.8438 0.19517 0.77475 0.0
H966 H 0.91512 0.1917 0.73656 0.0
H967 H 0.9035 0.18692 0.64284 0.0
C968 C 0.85931 0.18376 0.59995 0.0
C969 C 0.83505 0.18174 0.5828 0.0
C970 C 0.86663 0.18767 0.65403 0.0
C971 C 0.81867 0.18455 0.62091 0.0
C972 C 0.82599 0.18875 0.67463 0.0
C973 C 0.85679 0.19324 0.74611 0.0
C974 C 0.88039 0.19388 0.76348 0.0
C975 C 0.84977 0.19004 0.6918 0.0
C976 C 0.89706 0.19174 0.72508 0.0
C977 C 0.89032 0.18878 0.67113 0.0
H978 H 0.48282 0.98423 0.08248 0.0
H979 H 0.54417 0.06692 0.08567 0.0
H980 H 0.5568 0.06332 0.99449 0.0
H981 H 0.55269 0.03583 0.91654 0.0
H982 H 0.49215 0.95291 0.91359 0.0
H983 H 0.47652 0.95749 1.00151 0.0
C984 C 0.499 1.00145 0.06326 0.0
C985 C 0.5128 0.02575 0.09127 0.0
C986 C 0.50617 0.99918 0.01078 0.0
C987 C 0.53323 0.04804 0.06518 0.0
C988 C 0.54051 0.04594 0.01307 0.0
C989 C 0.53591 0.01881 0.93498 0.0
C990 C 0.52377 0.99398 0.90869 0.0
C991 C 0.52743 0.02152 0.98586 0.0
C992 C 0.50174 0.97225 0.93266 0.0
C993 C 0.493 0.97482 0.98322 0.0
H994 H 1.00687 0.49422 0.91822 0.0
H995 H 0.07299 0.57249 0.95252 0.0
H996 H 0.06742 0.56265 0.04736 0.0
H997 H 0.0432 0.53213 0.12127 0.0
H998 H 0.97686 0.45409 0.08645 0.0
H999 H 0.98255 0.46395 0.99172 0.0
C1000 C 1.02 0.50925 0.94627 0.0
C1001 C 0.04041 0.53406 0.92761 0.0
C1002 C 1.01642 0.50364 1.00109 0.0
C1003 C 0.05741 0.55305 0.96509 0.0
C1004 C 0.05407 0.54753 0.01963 0.0
C1005 C 0.03001 0.51725 0.09301 0.0
C1006 C 1.00948 0.49246 0.11149 0.0
C1007 C 0.03359 0.52293 0.03815 0.0
C1008 C 0.99247 0.47354 0.07396 0.0
C1009 C 0.99589 0.47906 0.01949 0.0
H1010 H 0.55069 0.52797 0.90856 0.0
H1011 H 0.46752 0.49902 0.94401 0.0
H1012 H 0.47724 0.50263 0.039 0.0
H1013 H 0.50897 0.51234 0.11228 0.0
H1014 H 0.59238 0.54203 0.07699 0.0
H1015 H 0.58277 0.53912 0.9822 0.0
C1016 C 0.53468 0.52242 0.93702 0.0
C1017 C 0.50839 0.51327 0.91872 0.0
C1018 C 0.54038 0.52437 0.99191 0.0
C1019 C 0.48799 0.5065 0.95651 0.0
C1020 C 0.49351 0.50834 0.01105 0.0
C1021 C 0.52519 0.51847 0.08415 0.0
C1022 C 0.55141 0.52722 0.1026 0.0
C1023 C 0.5196 0.51709 0.02927 0.0
C1024 C 0.57193 0.53473 0.0647 0.0
C1025 C 0.56648 0.53327 0.01015 0.0
H1026 H 0.21742 0.20142 0.91318 0.0
H1027 H 0.23696 0.21688 0.08015 0.0
H1028 H 0.24962 0.18273 0.08225 0.0
H1029 H 0.25821 0.15063 0.03676 0.0
H1030 H 0.24101 0.13514 0.86953 0.0
H1031 H 0.22423 0.1669 0.86769 0.0
C1032 C 0.22445 0.19739 0.95006 0.0
C1033 C 0.22619 0.21215 0.99643 0.0
C1034 C 0.23218 0.17764 0.95103 0.0
C1035 C 0.235 0.20604 0.04386 0.0
C1036 C 0.24247 0.18647 0.04513 0.0
C1037 C 0.25061 0.15396 0.99978 0.0
C1038 C 0.25105 0.14058 0.95323 0.0
C1039 C 0.24151 0.17246 0.99894 0.0
C1040 C 0.24082 0.14503 0.90599 0.0
C1041 C 0.23141 0.16336 0.90492 0.0
H1042 H 0.88053 0.12191 0.03873 0.0
H1043 H 0.90623 0.11777 0.87971 0.0
H1044 H 0.87703 0.06904 0.88033 0.0
H1045 H 0.84207 0.028 0.92504 0.0
H1046 H 0.81626 0.03446 0.08307 0.0
H1047 H 0.8478 0.08182 0.08373 0.0
C1048 C 0.87995 0.11046 1.00406 0.0
C1049 C 0.89545 0.12359 0.959 0.0
C1050 C 0.86296 0.08276 1.00453 0.0
C1051 C 0.89459 0.10823 0.91493 0.0
C1052 C 0.87775 0.08038 0.91525 0.0
C1053 C 0.84328 0.03973 0.95962 0.0
C1054 C 0.82652 0.02725 1.00399 0.0
C1055 C 0.86144 0.06746 0.95958 0.0
C1056 C 0.82889 0.043 0.04861 0.0
C1057 C 0.84689 0.07031 0.04894 0.0
H1058 H 1.01249 0.82149 0.91633 0.0
H1059 H 1.00769 0.80411 0.08451 0.0
H1060 H 0.96046 0.78987 0.08381 0.0
H1061 H 0.9196 0.77811 0.03518 0.0
H1062 H 0.92207 0.79277 0.86674 0.0
H1063 H 0.97106 0.81246 0.86795 0.0
C1064 C 1.00123 0.81468 0.95295 0.0
C1065 C 1.01414 0.81386 1.00043 0.0
C1066 C 0.9735 0.80588 0.95221 0.0
C1067 C 0.9989 0.80536 0.04742 0.0
C1068 C 0.97162 0.79695 0.04705 0.0
C1069 C 0.93082 0.78585 0.99861 0.0
C1070 C 0.91712 0.78372 0.95077 0.0
C1071 C 0.95865 0.79655 0.9996 0.0
C1072 C 0.93207 0.79424 0.90409 0.0
C1073 C 0.96006 0.80527 0.90482 0.0
H1074 H 0.775 0.87447 0.98011 0.0
H1075 H 0.80261 0.90006 0.14028 0.0
H1076 H 0.82227 0.8707 0.14198 0.0
H1077 H 0.82974 0.83614 0.09829 0.0
H1078 H 0.80133 0.81192 0.9376 0.0
H1079 H 0.78334 0.84193 0.93655 0.0
C1080 C 0.78537 0.87381 0.0156 0.0
C1081 C 0.7872 0.88945 0.06014 0.0
C1082 C 0.79617 0.85676 0.01642 0.0
C1083 C 0.80097 0.88836 0.10536 0.0
C1084 C 0.81206 0.87143 0.10638 0.0
C1085 C 0.81976 0.83752 0.06293 0.0
C1086 C 0.81671 0.82126 0.01833 0.0
C1087 C 0.80951 0.85527 0.06223 0.0
C1088 C 0.80355 0.82343 0.97305 0.0
C1089 C 0.79341 0.84089 0.97213 0.0
H1090 H 0.19866 1.00047 0.08899 0.0
H1091 H 0.22244 0.99456 0.92878 0.0
H1092 H 0.1922 0.94687 0.92947 0.0
H1093 H 0.16115 0.90643 0.97608 0.0
H1094 H 0.13761 0.91027 0.13718 0.0
H1095 H 0.16555 0.95911 0.13546 0.0
C1096 C 0.19731 0.98881 0.05421 0.0
C1097 C 0.2131 1.00154 0.00885 0.0
C1098 C 0.17993 0.96091 0.05502 0.0
C1099 C 0.21054 0.98583 0.96404 0.0
C1100 C 0.19329 0.95833 0.96447 0.0
C1101 C 0.16192 0.91783 0.01098 0.0
C1102 C 0.14737 0.90455 0.05691 0.0
C1103 C 0.17819 0.94565 0.00984 0.0
C1104 C 0.14852 0.91988 0.10129 0.0
C1105 C 0.16463 0.94782 0.10033 0.0
H1106 H 0.12742 0.25512 0.97328 0.0
H1107 H 0.12877 0.24602 0.14314 0.0
H1108 H 0.08014 0.22839 0.14652 0.0
H1109 H 0.0378 0.21882 0.10093 0.0
H1110 H 0.03845 0.22835 0.93033 0.0
H1111 H 0.08576 0.24312 0.92796 0.0
C1112 C 0.11712 0.24909 0.01118 0.0
C1113 C 0.13177 0.25203 0.05795 0.0
C1114 C 0.08951 0.23951 0.01277 0.0
C1115 C 0.11798 0.24381 0.1065 0.0
C1116 C 0.09021 0.23397 0.10841 0.0
C1117 C 0.0482 0.22391 0.06319 0.0
C1118 C 0.03429 0.22291 0.01602 0.0
C1119 C 0.07581 0.23223 0.06181 0.0
C1120 C 0.04839 0.22961 0.96758 0.0
C1121 C 0.07557 0.23783 0.96599 0.0
H1122 H 0.88202 0.52616 0.26181 0.0
H1123 H 0.89949 0.54317 0.42902 0.0
H1124 H 0.91637 0.51219 0.43293 0.0
H1125 H 0.92969 0.48312 0.38837 0.0
H1126 H 0.91429 0.46648 0.22091 0.0
H1127 H 0.89316 0.49442 0.21771 0.0
C1128 C 0.88944 0.52308 0.29917 0.0
C1129 C 0.88941 0.53731 0.34501 0.0
C1130 C 0.89971 0.50538 0.30109 0.0
C1131 C 0.89878 0.53251 0.39316 0.0
C1132 C 0.90874 0.51487 0.3954 0.0
C1133 C 0.92156 0.48538 0.35107 0.0
C1134 C 0.92381 0.47285 0.3048 0.0
C1135 C 0.90978 0.50162 0.34951 0.0
C1136 C 0.91283 0.47584 0.25712 0.0
C1137 C 0.90087 0.49194 0.25529 0.0
H1138 H 0.55163 0.45045 0.38094 0.0
H1139 H 0.57254 0.44861 0.21696 0.0
H1140 H 0.54282 0.39997 0.21545 0.0
H1141 H 0.5086 0.35845 0.25996 0.0
H1142 H 0.48724 0.36269 0.42306 0.0
H1143 H 0.51956 0.40983 0.42547 0.0
C1144 C 0.54992 0.43952 0.3447 0.0
C1145 C 0.56424 0.45332 0.29893 0.0
C1146 C 0.53254 0.41188 0.34397 0.0
C1147 C 0.56188 0.43858 0.25278 0.0
C1148 C 0.54472 0.41078 0.2519 0.0
C1149 C 0.51093 0.36962 0.29606 0.0
C1150 C 0.49516 0.35656 0.34131 0.0
C1151 C 0.52951 0.39726 0.29706 0.0
C1152 C 0.49903 0.37164 0.38779 0.0
C1153 C 0.5175 0.39884 0.38917 0.0
H1154 H 0.5776 0.07622 0.34501 0.0
H1155 H 0.58187 0.13339 0.22953 0.0
H1156 H 0.63097 0.15663 0.23458 0.0
H1157 H 0.67261 0.16085 0.27371 0.0
H1158 H 0.66638 0.10191 0.38733 0.0
H1159 H 0.61809 0.07956 0.38147 0.0
C1160 C 0.58911 0.09379 0.32077 0.0
C1161 C 0.57592 0.10308 0.28706 0.0
C1162 C 0.61708 0.10687 0.32386 0.0
C1163 C 0.59142 0.12578 0.25584 0.0
C1164 C 0.6195 0.13907 0.25883 0.0
C1165 C 0.66076 0.14301 0.29689 0.0
C1166 C 0.67354 0.13341 0.33142 0.0
C1167 C 0.63258 0.12982 0.2929 0.0
C1168 C 0.65752 0.1103 0.36131 0.0
C1169 C 0.62973 0.09727 0.35769 0.0
H1170 H 0.48875 0.15693 0.42872 0.0
H1171 H 0.47341 0.14513 0.25978 0.0
H1172 H 0.46044 0.17903 0.25856 0.0
H1173 H 0.45024 0.2098 0.30513 0.0
H1174 H 0.46355 0.2218 0.47404 0.0
H1175 H 0.48066 0.19032 0.47537 0.0
C1176 C 0.48258 0.1617 0.39158 0.0
C1177 C 0.48204 0.14797 0.34443 0.0
C1178 C 0.47471 0.18135 0.39106 0.0
C1179 C 0.47437 0.15509 0.29673 0.0
C1180 C 0.46673 0.17454 0.29593 0.0
C1181 C 0.45708 0.20577 0.34236 0.0
C1182 C 0.45542 0.21807 0.38952 0.0
C1183 C 0.46642 0.18746 0.34285 0.0
C1184 C 0.46468 0.21275 0.43713 0.0
C1185 C 0.47427 0.19457 0.43789 0.0
H1186 H 0.82731 0.245 0.31338 0.0
H1187 H 0.80787 0.24692 0.47824 0.0
H1188 H 0.83833 0.29539 0.48021 0.0
H1189 H 0.87308 0.3366 0.43596 0.0
H1190 H 0.89216 0.33262 0.27124 0.0
H1191 H 0.85912 0.28573 0.26841 0.0
C1192 C 0.82951 0.25599 0.34979 0.0
C1193 C 0.8155 0.24232 0.39575 0.0
C1194 C 0.84716 0.28355 0.35067 0.0
C1195 C 0.81834 0.25697 0.44227 0.0
C1196 C 0.83592 0.28465 0.44343 0.0
C1197 C 0.87002 0.32551 0.39943 0.0
C1198 C 0.8855 0.33848 0.35395 0.0
C1199 C 0.8509 0.29808 0.39808 0.0
C1200 C 0.8807 0.32365 0.30679 0.0
C1201 C 0.8618 0.2966 0.30515 0.0
H1202 H 0.69899 0.5382 0.44831 0.0
H1203 H 0.69815 0.54343 0.27696 0.0
H1204 H 0.74503 0.55611 0.27375 0.0
H1205 H 0.78745 0.5705 0.31902 0.0
H1206 H 0.7903 0.56783 0.49005 0.0
H1207 H 0.74158 0.54918 0.49388 0.0
C1208 C 0.70897 0.54195 0.4102 0.0
C1209 C 0.69466 0.53993 0.36296 0.0
C1210 C 0.73645 0.54985 0.40855 0.0
C1211 C 0.70811 0.54445 0.31403 0.0
C1212 C 0.73518 0.55198 0.3121 0.0
C1213 C 0.77742 0.5655 0.35726 0.0
C1214 C 0.79258 0.57076 0.40424 0.0
C1215 C 0.74967 0.55538 0.35906 0.0
C1216 C 0.77916 0.56387 0.45329 0.0
C1217 C 0.75131 0.55344 0.45542 0.0
H1218 H 0.62046 0.8467 0.64293 0.0
H1219 H 0.5525 0.77688 0.57864 0.0
H1220 H 0.52669 0.80051 0.57851 0.0
H1221 H 0.52346 0.84158 0.59981 0.0
H1222 H 0.59353 0.91107 0.65864 0.0
H1223 H 0.61839 0.88705 0.6586 0.0
C1224 C 0.59997 0.83651 0.62878 0.0
C1225 C 0.58838 0.80992 0.61131 0.0
C1226 C 0.58553 0.85022 0.62855 0.0
C1227 C 0.56195 0.79734 0.59226 0.0
C1228 C 0.54717 0.81085 0.59249 0.0
C1229 C 0.5441 0.85122 0.61275 0.0
C1230 C 0.55649 0.87784 0.63097 0.0
C1231 C 0.55867 0.83731 0.6111 0.0
C1232 C 0.58345 0.8904 0.64626 0.0
C1233 C 0.59771 0.87674 0.64574 0.0
H1234 H 0.2054 0.78192 0.70241 0.0
H1235 H 0.23259 0.77824 0.54455 0.0
H1236 H 0.20599 0.72928 0.54692 0.0
H1237 H 0.17316 0.68758 0.59327 0.0
H1238 H 0.14637 0.69338 0.75062 0.0
H1239 H 0.17485 0.74134 0.74905 0.0
C1240 C 0.20565 0.77052 0.66835 0.0
C1241 C 0.22083 0.78382 0.62312 0.0
C1242 C 0.19033 0.74264 0.67001 0.0
C1243 C 0.22112 0.76856 0.57986 0.0
C1244 C 0.2058 0.74057 0.58119 0.0
C1245 C 0.17358 0.69934 0.6272 0.0
C1246 C 0.15754 0.68653 0.67215 0.0
C1247 C 0.19001 0.72737 0.6259 0.0
C1248 C 0.15867 0.70227 0.7159 0.0
C1249 C 0.17485 0.72989 0.71489 0.0
H1250 H 0.25793 0.43865 0.71439 0.0
H1251 H 0.25833 0.45829 0.54888 0.0
H1252 H 0.30707 0.47669 0.54609 0.0
H1253 H 0.34912 0.48438 0.59007 0.0
H1254 H 0.3463 0.46181 0.75484 0.0
H1255 H 0.29908 0.44754 0.75827 0.0
C1256 C 0.26858 0.44712 0.67757 0.0
C1257 C 0.25434 0.44692 0.63178 0.0
C1258 C 0.29629 0.45704 0.6761 0.0
C1259 C 0.2687 0.45827 0.58478 0.0
C1260 C 0.29657 0.46859 0.58316 0.0
C1261 C 0.33823 0.47633 0.62675 0.0
C1262 C 0.35174 0.47436 0.67218 0.0
C1263 C 0.31053 0.4676 0.6284 0.0
C1264 C 0.33702 0.46411 0.71939 0.0
C1265 C 0.30976 0.4557 0.72138 0.0
H1266 H 0.10998 0.53378 0.65036 0.0
H1267 H 0.13638 0.55759 0.81173 0.0
H1268 H 0.15597 0.52819 0.8126 0.0
H1269 H 0.16354 0.4939 0.76811 0.0
H1270 H 0.13522 0.47024 0.60726 0.0
H1271 H 0.1187 0.50153 0.60572 0.0
C1272 C 0.12011 0.53274 0.68587 0.0
C1273 C 0.12151 0.54784 0.73109 0.0
C1274 C 0.13098 0.51569 0.68616 0.0
C1275 C 0.13502 0.5463 0.77633 0.0
C1276 C 0.1461 0.52935 0.77685 0.0
C1277 C 0.15373 0.49553 0.73273 0.0
C1278 C 0.1508 0.47948 0.68779 0.0
C1279 C 0.14384 0.51361 0.73217 0.0
C1280 C 0.13827 0.48234 0.6422 0.0
C1281 C 0.12857 0.5002 0.64135 0.0
H1282 H 0.50323 0.57588 0.64391 0.0
H1283 H 0.47532 0.57971 0.80106 0.0
H1284 H 0.50364 0.62856 0.80006 0.0
H1285 H 0.53802 0.66992 0.75519 0.0
H1286 H 0.56652 0.66349 0.59978 0.0
H1287 H 0.53613 0.61596 0.5997 0.0
C1288 C 0.50311 0.58723 0.67816 0.0
C1289 C 0.48715 0.57397 0.72268 0.0
C1290 C 0.51969 0.61498 0.67761 0.0
C1291 C 0.48729 0.5893 0.76621 0.0
C1292 C 0.50362 0.61724 0.76568 0.0
C1293 C 0.5377 0.65819 0.72133 0.0
C1294 C 0.55477 0.67081 0.67737 0.0
C1295 C 0.52025 0.63029 0.72178 0.0
C1296 C 0.55358 0.65494 0.63381 0.0
C1297 C 0.53623 0.62749 0.63381 0.0
H1298 H 0.36384 0.86124 0.73497 0.0
H1299 H 0.3716 0.92332 0.62816 0.0
H1300 H 0.41985 0.94425 0.63324 0.0
H1301 H 0.45996 0.94548 0.66705 0.0
H1302 H 0.45404 0.88491 0.77535 0.0
H1303 H 0.40498 0.86321 0.77127 0.0
C1304 C 0.37595 0.87947 0.7131 0.0
C1305 C 0.36352 0.89039 0.68085 0.0
C1306 C 0.40415 0.89181 0.71657 0.0
C1307 C 0.38004 0.91395 0.65259 0.0
C1308 C 0.40786 0.92616 0.65573 0.0
C1309 C 0.44811 0.9275 0.68999 0.0
C1310 C 0.4609 0.91684 0.7214 0.0
C1311 C 0.42011 0.91526 0.68739 0.0
C1312 C 0.44489 0.89361 0.75085 0.0
C1313 C 0.4168 0.88119 0.74839 0.0
loop_
_geom_bond_atom_site_label_1
_geom_bond_atom_site_label_2
_geom_bond_distance
_geom_bond_site_symmetry_2
_ccdc_geom_bond_type
C0 C1 1.351 1_554 S
C0 N3 1.368 . S
C0 H5 0.931 . S
C1 C0 1.351 1_556 S
C1 N2 1.373 1_556 S
C1 H29 0.930 . S
N2 C1 1.373 1_554 S
N2 C4 1.340 . S
N3 C0 1.368 . S
N3 C4 1.321 . S
N3 Co6 2.135 . S
C4 N2 1.340 . S
C4 N3 1.321 . S
C4 H28 0.930 . S
H5 C0 0.931 . S
Co6 N3 2.135 . S
Co6 N9 2.121 . S
Co6 O14 2.055 . S
Co6 O17 2.039 . S
Co6 N20 2.140 . S
C7 O8 1.227 . S
C7 O17 1.265 . S
O8 C7 1.227 . S
N9 Co6 2.121 . S
N9 C11 1.375 . S
N9 C12 1.313 . S
C10 C11 1.338 . S
C10 N13 1.377 . S
C10 H30 0.930 . S
C11 N9 1.375 . S
C11 C10 1.338 . S
C11 H15 0.931 . S
C12 N9 1.313 . S
C12 N13 1.344 . S
C12 H16 0.930 . S
N13 C10 1.377 . S
N13 C12 1.344 . S
O14 Co6 2.055 . S
O14 C18 1.253 . S
H15 C11 0.931 . S
H16 C12 0.930 . S
O17 Co6 2.039 . S
O17 C7 1.265 . S
C18 O14 1.253 . S
C18 O19 1.227 . S
O19 C18 1.227 . S
N20 Co6 2.140 . S
N20 C23 1.346 . S
N20 C24 1.345 . S
C21 C22 1.388 . S
C21 C25 1.392 . S
C22 C21 1.388 . S
C22 C23 1.369 . S
C22 H31 0.924 1_554 S
C23 N20 1.346 . S
C23 C22 1.369 . S
C23 H26 0.928 . S
C24 N20 1.345 . S
C24 C25 1.371 . S
C24 H27 0.931 . S
C25 C21 1.392 . S
C25 C24 1.371 . S
C25 H32 0.930 . S
H26 C23 0.928 . S
H27 C24 0.931 . S
H28 C4 0.930 . S
H29 C1 0.930 . S
H30 C10 0.930 . S
H31 C22 0.924 1_556 S
H32 C25 0.930 . S
C33 C34 1.351 1_554 S
C33 N36 1.368 . S
C33 H38 0.931 . S
C34 C33 1.351 1_556 S
C34 N35 1.373 1_566 S
C34 H62 0.930 . S
N35 C34 1.373 1_544 S
N35 C37 1.339 1_545 S
N36 C33 1.368 . S
N36 C37 1.325 . S
N36 Co39 2.135 . S
C37 N35 1.339 1_565 S
C37 N36 1.325 . S
C37 H61 0.928 1_565 S
H38 C33 0.931 . S
Co39 N36 2.135 . S
Co39 N42 2.121 . S
Co39 O47 2.055 . S
Co39 O50 2.039 . S
Co39 N53 2.140 . S
C40 O41 1.227 . S
C40 O50 1.265 . S
O41 C40 1.227 . S
N42 Co39 2.121 . S
N42 C44 1.375 . S
N42 C45 1.313 . S
C43 C44 1.338 . S
C43 N46 1.377 . S
C43 H63 0.930 . S
C44 N42 1.375 . S
C44 C43 1.338 . S
C44 H48 0.931 . S
C45 N42 1.313 . S
C45 N46 1.344 . S
C45 H49 0.930 . S
N46 C43 1.377 . S
N46 C45 1.344 . S
O47 Co39 2.055 . S
O47 C51 1.253 . S
H48 C44 0.931 . S
H49 C45 0.930 . S
O50 Co39 2.039 . S
O50 C40 1.265 . S
C51 O47 1.253 . S
C51 O52 1.227 . S
O52 C51 1.227 . S
N53 Co39 2.140 . S
N53 C56 1.346 . S
N53 C57 1.345 . S
C54 C55 1.388 . S
C54 C58 1.392 . S
C55 C54 1.388 . S
C55 C56 1.369 . S
C55 H64 0.924 1_554 S
C56 N53 1.346 . S
C56 C55 1.369 . S
C56 H59 0.928 . S
C57 N53 1.345 . S
C57 C58 1.371 . S
C57 H60 0.931 . S
C58 C54 1.392 . S
C58 C57 1.371 . S
C58 H65 0.930 . S
H59 C56 0.928 . S
H60 C57 0.931 . S
H61 C37 0.928 1_545 S
H62 C34 0.930 . S
H63 C43 0.930 . S
H64 C55 0.924 1_556 S
H65 C58 0.930 . S
C66 C67 1.351 1_554 S
C66 N69 1.368 . S
C66 H71 0.931 . S
C67 C66 1.351 1_556 S
C67 N68 1.373 1_456 S
C67 H95 0.930 . S
N68 C67 1.373 1_654 S
N68 C70 1.338 1_655 S
N69 C66 1.368 . S
N69 C70 1.324 . S
N69 Co72 2.135 . S
C70 N68 1.338 1_455 S
C70 N69 1.324 . S
C70 H94 0.929 1_455 S
H71 C66 0.931 . S
Co72 N69 2.135 . S
Co72 N75 2.121 . S
Co72 O80 2.055 . S
Co72 O83 2.039 . S
Co72 N86 2.140 . S
C73 O74 1.227 . S
C73 O83 1.265 . S
O74 C73 1.227 . S
N75 Co72 2.121 . S
N75 C77 1.375 . S
N75 C78 1.313 . S
C76 C77 1.338 . S
C76 N79 1.377 . S
C76 H96 0.930 . S
C77 N75 1.375 . S
C77 C76 1.338 . S
C77 H81 0.931 . S
C78 N75 1.313 . S
C78 N79 1.344 . S
C78 H82 0.930 . S
N79 C76 1.377 . S
N79 C78 1.344 . S
O80 Co72 2.055 . S
O80 C84 1.253 . S
H81 C77 0.931 . S
H82 C78 0.930 . S
O83 Co72 2.039 . S
O83 C73 1.265 . S
C84 O80 1.253 . S
C84 O85 1.227 . S
O85 C84 1.227 . S
N86 Co72 2.140 . S
N86 C89 1.346 . S
N86 C90 1.345 . S
C87 C88 1.388 . S
C87 C91 1.393 . S
C88 C87 1.388 . S
C88 C89 1.369 . S
C88 H97 0.924 1_554 S
C89 N86 1.346 . S
C89 C88 1.369 . S
C89 H92 0.928 . S
C90 N86 1.345 . S
C90 C91 1.371 . S
C90 H93 0.931 . S
C91 C87 1.393 . S
C91 C90 1.371 . S
C91 H98 0.930 . S
H92 C89 0.928 . S
H93 C90 0.931 . S
H94 C70 0.929 1_655 S
H95 C67 0.930 . S
H96 C76 0.930 . S
H97 C88 0.924 1_556 S
H98 C91 0.930 . S
C99 C100 1.351 1_556 S
C99 N102 1.368 . S
C99 H104 0.931 . S
C100 C99 1.351 1_554 S
C100 N101 1.373 1_554 S
C100 H128 0.930 . S
N101 C100 1.373 1_556 S
N101 C103 1.340 . S
N102 C99 1.368 . S
N102 C103 1.321 . S
N102 Co105 2.135 . S
C103 N101 1.340 . S
C103 N102 1.321 . S
C103 H127 0.930 . S
H104 C99 0.931 . S
Co105 N102 2.135 . S
Co105 N108 2.121 . S
Co105 O113 2.055 . S
Co105 O116 2.039 . S
Co105 N119 2.140 . S
C106 O107 1.227 . S
C106 O116 1.265 . S
O107 C106 1.227 . S
N108 Co105 2.121 . S
N108 C110 1.375 . S
N108 C111 1.313 . S
C109 C110 1.338 . S
C109 N112 1.377 . S
C109 H129 0.930 . S
C110 N108 1.375 . S
C110 C109 1.338 . S
C110 H114 0.931 . S
C111 N108 1.313 . S
C111 N112 1.344 . S
C111 H115 0.930 . S
N112 C109 1.377 . S
N112 C111 1.344 . S
O113 Co105 2.055 . S
O113 C117 1.253 . S
H114 C110 0.931 . S
H115 C111 0.930 . S
O116 Co105 2.039 . S
O116 C106 1.265 . S
C117 O113 1.253 . S
C117 O118 1.227 . S
O118 C117 1.227 . S
N119 Co105 2.140 . S
N119 C122 1.346 . S
N119 C123 1.345 . S
C120 C121 1.388 . S
C120 C124 1.392 . S
C121 C120 1.388 . S
C121 C122 1.369 . S
C121 H130 0.924 1_556 S
C122 N119 1.346 . S
C122 C121 1.369 . S
C122 H125 0.928 . S
C123 N119 1.345 . S
C123 C124 1.371 . S
C123 H126 0.931 . S
C124 C120 1.392 . S
C124 C123 1.371 . S
C124 H131 0.930 . S
H125 C122 0.928 . S
H126 C123 0.931 . S
H127 C103 0.930 . S
H128 C100 0.930 . S
H129 C109 0.930 . S
H130 C121 0.924 1_554 S
H131 C124 0.930 . S
C132 C133 1.351 1_556 S
C132 N135 1.368 . S
C132 H137 0.931 . S
C133 C132 1.351 1_554 S
C133 N134 1.373 1_544 S
C133 H161 0.930 . S
N134 C133 1.373 1_566 S
N134 C136 1.339 1_565 S
N135 C132 1.368 . S
N135 C136 1.325 . S
N135 Co138 2.135 . S
C136 N134 1.339 1_545 S
C136 N135 1.325 . S
C136 H160 0.928 1_545 S
H137 C132 0.931 . S
Co138 N135 2.135 . S
Co138 N141 2.121 . S
Co138 O146 2.055 . S
Co138 O149 2.039 . S
Co138 N152 2.140 . S
C139 O140 1.227 . S
C139 O149 1.265 . S
O140 C139 1.227 . S
N141 Co138 2.121 . S
N141 C143 1.375 . S
N141 C144 1.313 . S
C142 C143 1.338 . S
C142 N145 1.377 . S
C142 H162 0.930 . S
C143 N141 1.375 . S
C143 C142 1.338 . S
C143 H147 0.931 . S
C144 N141 1.313 . S
C144 N145 1.344 . S
C144 H148 0.930 . S
N145 C142 1.377 . S
N145 C144 1.344 . S
O146 Co138 2.055 . S
O146 C150 1.253 . S
H147 C143 0.931 . S
H148 C144 0.930 . S
O149 Co138 2.039 . S
O149 C139 1.265 . S
C150 O146 1.253 . S
C150 O151 1.227 . S
O151 C150 1.227 . S
N152 Co138 2.140 . S
N152 C155 1.346 . S
N152 C156 1.345 . S
C153 C154 1.388 . S
C153 C157 1.392 . S
C154 C153 1.388 . S
C154 C155 1.369 . S
C154 H163 0.924 1_556 S
C155 N152 1.346 . S
C155 C154 1.369 . S
C155 H158 0.928 . S
C156 N152 1.345 . S
C156 C157 1.371 . S
C156 H159 0.931 . S
C157 C153 1.392 . S
C157 C156 1.371 . S
C157 H164 0.930 . S
H158 C155 0.928 . S
H159 C156 0.931 . S
H160 C136 0.928 1_565 S
H161 C133 0.930 . S
H162 C142 0.930 . S
H163 C154 0.924 1_554 S
H164 C157 0.930 . S
C165 C166 1.351 1_556 S
C165 N168 1.368 . S
C165 H170 0.931 . S
C166 C165 1.351 1_554 S
C166 N167 1.373 1_654 S
C166 H194 0.930 . S
N167 C166 1.373 1_456 S
N167 C169 1.338 1_455 S
N168 C165 1.368 . S
N168 C169 1.324 . S
N168 Co171 2.135 . S
C169 N167 1.338 1_655 S
C169 N168 1.324 . S
C169 H193 0.929 1_655 S
H170 C165 0.931 . S
Co171 N168 2.135 . S
Co171 N174 2.121 . S
Co171 O179 2.055 . S
Co171 O182 2.039 . S
Co171 N185 2.140 . S
C172 O173 1.227 . S
C172 O182 1.265 . S
O173 C172 1.227 . S
N174 Co171 2.121 . S
N174 C176 1.375 . S
N174 C177 1.313 . S
C175 C176 1.338 . S
C175 N178 1.377 . S
C175 H195 0.930 . S
C176 N174 1.375 . S
C176 C175 1.338 . S
C176 H180 0.931 . S
C177 N174 1.313 . S
C177 N178 1.344 . S
C177 H181 0.930 . S
N178 C175 1.377 . S
N178 C177 1.344 . S
O179 Co171 2.055 . S
O179 C183 1.253 . S
H180 C176 0.931 . S
H181 C177 0.930 . S
O182 Co171 2.039 . S
O182 C172 1.265 . S
C183 O179 1.253 . S
C183 O184 1.227 . S
O184 C183 1.227 . S
N185 Co171 2.140 . S
N185 C188 1.346 . S
N185 C189 1.345 . S
C186 C187 1.388 . S
C186 C190 1.393 . S
C187 C186 1.388 . S
C187 C188 1.369 . S
C187 H196 0.924 1_556 S
C188 N185 1.346 . S
C188 C187 1.369 . S
C188 H191 0.928 . S
C189 N185 1.345 . S
C189 C190 1.371 . S
C189 H192 0.931 . S
C190 C186 1.393 . S
C190 C189 1.371 . S
C190 H197 0.930 . S
H191 C188 0.928 . S
H192 C189 0.931 . S
H193 C169 0.929 1_455 S
H194 C166 0.930 . S
H195 C175 0.930 . S
H196 C187 0.924 1_554 S
H197 C190 0.930 . S
C198 C199 1.351 . S
C198 N201 1.368 . S
C198 H203 0.931 . S
C199 C198 1.351 . S
C199 N200 1.373 . S
C199 H227 0.930 . S
N200 C199 1.373 . S
N200 C202 1.340 . S
N201 C198 1.368 . S
N201 C202 1.321 . S
N201 Co204 2.135 . S
C202 N200 1.340 . S
C202 N201 1.321 . S
C202 H226 0.930 . S
H203 C198 0.931 . S
Co204 N201 2.135 . S
Co204 N207 2.121 . S
Co204 O212 2.055 . S
Co204 O215 2.039 . S
Co204 N218 2.140 . S
C205 O206 1.227 . S
C205 O215 1.265 . S
O206 C205 1.227 . S
N207 Co204 2.121 . S
N207 C209 1.375 . S
N207 C210 1.313 . S
C208 C209 1.338 . S
C208 N211 1.377 . S
C208 H228 0.930 . S
C209 N207 1.375 . S
C209 C208 1.338 . S
C209 H213 0.931 . S
C210 N207 1.313 . S
C210 N211 1.344 . S
C210 H214 0.930 . S
N211 C208 1.377 . S
N211 C210 1.344 . S
O212 Co204 2.055 . S
O212 C216 1.253 . S
H213 C209 0.931 . S
H214 C210 0.930 . S
O215 Co204 2.039 . S
O215 C205 1.265 . S
C216 O212 1.253 . S
C216 O217 1.227 . S
O217 C216 1.227 . S
N218 Co204 2.140 . S
N218 C221 1.346 . S
N218 C222 1.345 . S
C219 C220 1.387 . S
C219 C223 1.391 . S
C220 C219 1.387 . S
C220 C221 1.369 . S
C220 H229 0.929 . S
C221 N218 1.346 . S
C221 C220 1.369 . S
C221 H224 0.928 . S
C222 N218 1.345 . S
C222 C223 1.371 . S
C222 H225 0.931 . S
C223 C219 1.391 . S
C223 C222 1.371 . S
C223 H230 0.930 . S
H224 C221 0.928 . S
H225 C222 0.931 . S
H226 C202 0.930 . S
H227 C199 0.930 . S
H228 C208 0.930 . S
H229 C220 0.929 . S
H230 C223 0.930 . S
C231 C232 1.351 . S
C231 N234 1.368 . S
C231 H236 0.931 . S
C232 C231 1.351 . S
C232 N233 1.373 . S
C232 H260 0.930 . S
N233 C232 1.373 . S
N233 C235 1.340 . S
N234 C231 1.368 . S
N234 C235 1.321 . S
N234 Co237 2.135 . S
C235 N233 1.340 . S
C235 N234 1.321 . S
C235 H259 0.930 . S
H236 C231 0.931 . S
Co237 N234 2.135 . S
Co237 N240 2.121 . S
Co237 O245 2.055 . S
Co237 O248 2.039 . S
Co237 N251 2.140 . S
C238 O239 1.227 . S
C238 O248 1.265 . S
O239 C238 1.227 . S
N240 Co237 2.121 . S
N240 C242 1.375 . S
N240 C243 1.313 . S
C241 C242 1.338 . S
C241 N244 1.377 . S
C241 H261 0.930 . S
C242 N240 1.375 . S
C242 C241 1.338 . S
C242 H246 0.931 . S
C243 N240 1.313 . S
C243 N244 1.344 . S
C243 H247 0.930 . S
N244 C241 1.377 . S
N244 C243 1.344 . S
O245 Co237 2.055 . S
O245 C249 1.253 . S
H246 C242 0.931 . S
H247 C243 0.930 . S
O248 Co237 2.039 . S
O248 C238 1.265 . S
C249 O245 1.253 . S
C249 O250 1.227 . S
O250 C249 1.227 . S
N251 Co237 2.140 . S
N251 C254 1.346 . S
N251 C255 1.345 . S
C252 C253 1.387 . S
C252 C256 1.391 . S
C253 C252 1.387 . S
C253 C254 1.369 . S
C253 H262 0.929 . S
C254 N251 1.346 . S
C254 C253 1.369 . S
C254 H257 0.928 . S
C255 N251 1.345 . S
C255 C256 1.371 . S
C255 H258 0.931 . S
C256 C252 1.391 . S
C256 C255 1.371 . S
C256 H263 0.930 . S
H257 C254 0.928 . S
H258 C255 0.931 . S
H259 C235 0.930 . S
H260 C232 0.930 . S
H261 C241 0.930 . S
H262 C253 0.929 . S
H263 C256 0.930 . S
C264 C265 1.351 . S
C264 N267 1.368 . S
C264 H269 0.931 . S
C265 C264 1.351 . S
C265 N266 1.373 . S
C265 H293 0.930 . S
N266 C265 1.373 . S
N266 C268 1.340 . S
N267 C264 1.368 . S
N267 C268 1.321 . S
N267 Co270 2.135 . S
C268 N266 1.340 . S
C268 N267 1.321 . S
C268 H292 0.930 . S
H269 C264 0.931 . S
Co270 N267 2.135 . S
Co270 N273 2.121 . S
Co270 O278 2.055 . S
Co270 O281 2.039 . S
Co270 N284 2.140 . S
C271 O272 1.227 . S
C271 O281 1.265 . S
O272 C271 1.227 . S
N273 Co270 2.121 . S
N273 C275 1.375 . S
N273 C276 1.313 . S
C274 C275 1.338 . S
C274 N277 1.377 . S
C274 H294 0.930 . S
C275 N273 1.375 . S
C275 C274 1.338 . S
C275 H279 0.931 . S
C276 N273 1.313 . S
C276 N277 1.344 . S
C276 H280 0.930 . S
N277 C274 1.377 . S
N277 C276 1.344 . S
O278 Co270 2.055 . S
O278 C282 1.253 . S
H279 C275 0.931 . S
H280 C276 0.930 . S
O281 Co270 2.039 . S
O281 C271 1.265 . S
C282 O278 1.253 . S
C282 O283 1.227 . S
O283 C282 1.227 . S
N284 Co270 2.140 . S
N284 C287 1.346 . S
N284 C288 1.345 . S
C285 C286 1.387 . S
C285 C289 1.391 . S
C286 C285 1.387 . S
C286 C287 1.369 . S
C286 H295 0.929 . S
C287 N284 1.346 . S
C287 C286 1.369 . S
C287 H290 0.928 . S
C288 N284 1.345 . S
C288 C289 1.371 . S
C288 H291 0.931 . S
C289 C285 1.391 . S
C289 C288 1.371 . S
C289 H296 0.930 . S
H290 C287 0.928 . S
H291 C288 0.931 . S
H292 C268 0.930 . S
H293 C265 0.930 . S
H294 C274 0.930 . S
H295 C286 0.929 . S
H296 C289 0.930 . S
C297 C298 1.351 . S
C297 N300 1.368 . S
C297 H302 0.931 . S
C298 C297 1.351 . S
C298 N299 1.373 . S
C298 H326 0.930 . S
N299 C298 1.373 . S
N299 C301 1.340 . S
N300 C297 1.368 . S
N300 C301 1.321 . S
N300 Co303 2.135 . S
C301 N299 1.340 . S
C301 N300 1.321 . S
C301 H325 0.930 . S
H302 C297 0.931 . S
Co303 N300 2.135 . S
Co303 N306 2.121 . S
Co303 O311 2.055 . S
Co303 O314 2.039 . S
Co303 N317 2.140 . S
C304 O305 1.227 . S
C304 O314 1.265 . S
O305 C304 1.227 . S
N306 Co303 2.121 . S
N306 C308 1.375 . S
N306 C309 1.313 . S
C307 C308 1.338 . S
C307 N310 1.377 . S
C307 H327 0.930 . S
C308 N306 1.375 . S
C308 C307 1.338 . S
C308 H312 0.931 . S
C309 N306 1.313 . S
C309 N310 1.344 . S
C309 H313 0.930 . S
N310 C307 1.377 . S
N310 C309 1.344 . S
O311 Co303 2.055 . S
O311 C315 1.253 . S
H312 C308 0.931 . S
H313 C309 0.930 . S
O314 Co303 2.039 . S
O314 C304 1.265 . S
C315 O311 1.253 . S
C315 O316 1.227 . S
O316 C315 1.227 . S
N317 Co303 2.140 . S
N317 C320 1.346 . S
N317 C321 1.345 . S
C318 C319 1.387 . S
C318 C322 1.391 . S
C319 C318 1.387 . S
C319 C320 1.369 . S
C319 H328 0.929 . S
C320 N317 1.346 . S
C320 C319 1.369 . S
C320 H323 0.928 . S
C321 N317 1.345 . S
C321 C322 1.371 . S
C321 H324 0.931 . S
C322 C318 1.391 . S
C322 C321 1.371 . S
C322 H329 0.932 . S
H323 C320 0.928 . S
H324 C321 0.931 . S
H325 C301 0.930 . S
H326 C298 0.930 . S
H327 C307 0.930 . S
H328 C319 0.929 . S
H329 C322 0.932 . S
C330 C331 1.351 . S
C330 N333 1.368 . S
C330 H335 0.931 . S
C331 C330 1.351 . S
C331 N332 1.373 . S
C331 H359 0.930 . S
N332 C331 1.373 . S
N332 C334 1.340 . S
N333 C330 1.368 . S
N333 C334 1.321 . S
N333 Co336 2.135 . S
C334 N332 1.340 . S
C334 N333 1.321 . S
C334 H358 0.930 . S
H335 C330 0.931 . S
Co336 N333 2.135 . S
Co336 N339 2.121 . S
Co336 O344 2.055 . S
Co336 O347 2.039 . S
Co336 N350 2.140 . S
C337 O338 1.227 . S
C337 O347 1.265 . S
O338 C337 1.227 . S
N339 Co336 2.121 . S
N339 C341 1.375 . S
N339 C342 1.313 . S
C340 C341 1.338 . S
C340 N343 1.377 . S
C340 H360 0.930 . S
C341 N339 1.375 . S
C341 C340 1.338 . S
C341 H345 0.931 . S
C342 N339 1.313 . S
C342 N343 1.344 . S
C342 H346 0.930 . S
N343 C340 1.377 . S
N343 C342 1.344 . S
O344 Co336 2.055 . S
O344 C348 1.253 . S
H345 C341 0.931 . S
H346 C342 0.930 . S
O347 Co336 2.039 . S
O347 C337 1.265 . S
C348 O344 1.253 . S
C348 O349 1.227 . S
O349 C348 1.227 . S
N350 Co336 2.140 . S
N350 C353 1.346 . S
N350 C354 1.345 . S
C351 C352 1.387 . S
C351 C355 1.391 . S
C352 C351 1.387 . S
C352 C353 1.369 . S
C352 H361 0.929 . S
C353 N350 1.346 . S
C353 C352 1.369 . S
C353 H356 0.928 . S
C354 N350 1.345 . S
C354 C355 1.371 . S
C354 H357 0.931 . S
C355 C351 1.391 . S
C355 C354 1.371 . S
C355 H362 0.931 . S
H356 C353 0.928 . S
H357 C354 0.931 . S
H358 C334 0.930 . S
H359 C331 0.930 . S
H360 C340 0.930 . S
H361 C352 0.929 . S
H362 C355 0.931 . S
C363 C364 1.351 . S
C363 N366 1.368 . S
C363 H368 0.931 . S
C364 C363 1.351 . S
C364 N365 1.373 . S
C364 H392 0.930 . S
N365 C364 1.373 . S
N365 C367 1.340 . S
N366 C363 1.368 . S
N366 C367 1.321 . S
N366 Co369 2.135 . S
C367 N365 1.340 . S
C367 N366 1.321 . S
C367 H391 0.930 . S
H368 C363 0.931 . S
Co369 N366 2.135 . S
Co369 N372 2.121 . S
Co369 O377 2.055 . S
Co369 O380 2.039 . S
Co369 N383 2.140 . S
C370 O371 1.227 . S
C370 O380 1.265 . S
O371 C370 1.227 . S
N372 Co369 2.121 . S
N372 C374 1.375 . S
N372 C375 1.313 . S
C373 C374 1.338 . S
C373 N376 1.377 . S
C373 H393 0.930 . S
C374 N372 1.375 . S
C374 C373 1.338 . S
C374 H378 0.931 . S
C375 N372 1.313 . S
C375 N376 1.344 . S
C375 H379 0.930 . S
N376 C373 1.377 . S
N376 C375 1.344 . S
O377 Co369 2.055 . S
O377 C381 1.253 . S
H378 C374 0.931 . S
H379 C375 0.930 . S
O380 Co369 2.039 . S
O380 C370 1.265 . S
C381 O377 1.253 . S
C381 O382 1.227 . S
O382 C381 1.227 . S
N383 Co369 2.140 . S
N383 C386 1.346 . S
N383 C387 1.345 . S
C384 C385 1.387 . S
C384 C388 1.391 . S
C385 C384 1.387 . S
C385 C386 1.369 . S
C385 H394 0.929 . S
C386 N383 1.346 . S
C386 C385 1.369 . S
C386 H389 0.928 . S
C387 N383 1.345 . S
C387 C388 1.371 . S
C387 H390 0.931 . S
C388 C384 1.391 . S
C388 C387 1.371 . S
C388 H395 0.930 . S
H389 C386 0.928 . S
H390 C387 0.931 . S
H391 C367 0.930 . S
H392 C364 0.930 . S
H393 C373 0.930 . S
H394 C385 0.929 . S
H395 C388 0.930 . S
C396 C397 1.351 . S
C396 N399 1.368 . S
C396 H401 0.931 . S
C397 C396 1.351 . S
C397 N398 1.373 . S
C397 H425 0.930 . S
N398 C397 1.373 . S
N398 C400 1.340 . S
N399 C396 1.368 . S
N399 C400 1.321 . S
N399 Co402 2.135 . S
C400 N398 1.340 . S
C400 N399 1.321 . S
C400 H424 0.930 . S
H401 C396 0.931 . S
Co402 N399 2.135 . S
Co402 N405 2.121 . S
Co402 O410 2.055 . S
Co402 O413 2.039 . S
Co402 N416 2.140 . S
C403 O404 1.227 . S
C403 O413 1.265 . S
O404 C403 1.227 . S
N405 Co402 2.121 . S
N405 C407 1.375 . S
N405 C408 1.313 . S
C406 C407 1.338 . S
C406 N409 1.377 . S
C406 H426 0.930 . S
C407 N405 1.375 . S
C407 C406 1.338 . S
C407 H411 0.931 . S
C408 N405 1.313 . S
C408 N409 1.344 . S
C408 H412 0.930 . S
N409 C406 1.377 . S
N409 C408 1.344 . S
O410 Co402 2.055 . S
O410 C414 1.253 . S
H411 C407 0.931 . S
H412 C408 0.930 . S
O413 Co402 2.039 . S
O413 C403 1.265 . S
C414 O410 1.253 . S
C414 O415 1.227 . S
O415 C414 1.227 . S
N416 Co402 2.140 . S
N416 C419 1.346 . S
N416 C420 1.345 . S
C417 C418 1.387 . S
C417 C421 1.391 . S
C418 C417 1.387 . S
C418 C419 1.369 . S
C418 H427 0.929 . S
C419 N416 1.346 . S
C419 C418 1.369 . S
C419 H422 0.928 . S
C420 N416 1.345 . S
C420 C421 1.371 . S
C420 H423 0.931 . S
C421 C417 1.391 . S
C421 C420 1.371 . S
C421 H428 0.932 . S
H422 C419 0.928 . S
H423 C420 0.931 . S
H424 C400 0.930 . S
H425 C397 0.930 . S
H426 C406 0.930 . S
H427 C418 0.929 . S
H428 C421 0.932 . S
C429 C430 1.351 . S
C429 N432 1.368 . S
C429 H434 0.931 . S
C430 C429 1.351 . S
C430 N431 1.373 . S
C430 H458 0.930 . S
N431 C430 1.373 . S
N431 C433 1.340 . S
N432 C429 1.368 . S
N432 C433 1.321 . S
N432 Co435 2.135 . S
C433 N431 1.340 . S
C433 N432 1.321 . S
C433 H457 0.930 . S
H434 C429 0.931 . S
Co435 N432 2.135 . S
Co435 N438 2.121 . S
Co435 O443 2.055 . S
Co435 O446 2.039 . S
Co435 N449 2.140 . S
C436 O437 1.227 . S
C436 O446 1.265 . S
O437 C436 1.227 . S
N438 Co435 2.121 . S
N438 C440 1.375 . S
N438 C441 1.313 . S
C439 C440 1.338 . S
C439 N442 1.377 . S
C439 H459 0.930 . S
C440 N438 1.375 . S
C440 C439 1.338 . S
C440 H444 0.931 . S
C441 N438 1.313 . S
C441 N442 1.344 . S
C441 H445 0.930 . S
N442 C439 1.377 . S
N442 C441 1.344 . S
O443 Co435 2.055 . S
O443 C447 1.253 . S
H444 C440 0.931 . S
H445 C441 0.930 . S
O446 Co435 2.039 . S
O446 C436 1.265 . S
C447 O443 1.253 . S
C447 O448 1.227 . S
O448 C447 1.227 . S
N449 Co435 2.140 . S
N449 C452 1.346 . S
N449 C453 1.345 . S
C450 C451 1.387 . S
C450 C454 1.391 . S
C451 C450 1.387 . S
C451 C452 1.369 . S
C451 H460 0.929 . S
C452 N449 1.346 . S
C452 C451 1.369 . S
C452 H455 0.928 . S
C453 N449 1.345 . S
C453 C454 1.371 . S
C453 H456 0.931 . S
C454 C450 1.391 . S
C454 C453 1.371 . S
C454 H461 0.931 . S
H455 C452 0.928 . S
H456 C453 0.931 . S
H457 C433 0.930 . S
H458 C430 0.930 . S
H459 C439 0.930 . S
H460 C451 0.929 . S
H461 C454 0.931 . S
C462 C463 1.351 . S
C462 N465 1.368 . S
C462 H467 0.931 . S
C463 C462 1.351 . S
C463 N464 1.373 . S
C463 H491 0.930 . S
N464 C463 1.373 . S
N464 C466 1.340 . S
N465 C462 1.368 . S
N465 C466 1.321 . S
N465 Co468 2.135 . S
C466 N464 1.340 . S
C466 N465 1.321 . S
C466 H490 0.930 . S
H467 C462 0.931 . S
Co468 N465 2.135 . S
Co468 N471 2.121 . S
Co468 O476 2.055 . S
Co468 O479 2.039 . S
Co468 N482 2.140 . S
C469 O470 1.227 . S
C469 O479 1.265 . S
O470 C469 1.227 . S
N471 Co468 2.121 . S
N471 C473 1.375 . S
N471 C474 1.313 . S
C472 C473 1.338 . S
C472 N475 1.377 . S
C472 H492 0.930 . S
C473 N471 1.375 . S
C473 C472 1.338 . S
C473 H477 0.931 . S
C474 N471 1.313 . S
C474 N475 1.344 . S
C474 H478 0.930 . S
N475 C472 1.377 . S
N475 C474 1.344 . S
O476 Co468 2.055 . S
O476 C480 1.253 . S
H477 C473 0.931 . S
H478 C474 0.930 . S
O479 Co468 2.039 . S
O479 C469 1.265 . S
C480 O476 1.253 . S
C480 O481 1.227 . S
O481 C480 1.227 . S
N482 Co468 2.140 . S
N482 C485 1.346 . S
N482 C486 1.345 . S
C483 C484 1.387 . S
C483 C487 1.391 . S
C484 C483 1.387 . S
C484 C485 1.369 . S
C484 H493 0.929 . S
C485 N482 1.346 . S
C485 C484 1.369 . S
C485 H488 0.928 . S
C486 N482 1.345 . S
C486 C487 1.371 . S
C486 H489 0.931 . S
C487 C483 1.391 . S
C487 C486 1.371 . S
C487 H494 0.930 . S
H488 C485 0.928 . S
H489 C486 0.931 . S
H490 C466 0.930 . S
H491 C463 0.930 . S
H492 C472 0.930 . S
H493 C484 0.929 . S
H494 C487 0.930 . S
C495 C496 1.351 . S
C495 N498 1.368 . S
C495 H500 0.931 . S
C496 C495 1.351 . S
C496 N497 1.373 . S
C496 H524 0.930 . S
N497 C496 1.373 . S
N497 C499 1.340 . S
N498 C495 1.368 . S
N498 C499 1.321 . S
N498 Co501 2.135 . S
C499 N497 1.340 . S
C499 N498 1.321 . S
C499 H523 0.930 . S
H500 C495 0.931 . S
Co501 N498 2.135 . S
Co501 N504 2.121 . S
Co501 O509 2.055 . S
Co501 O512 2.039 . S
Co501 N515 2.140 . S
C502 O503 1.227 . S
C502 O512 1.265 . S
O503 C502 1.227 . S
N504 Co501 2.121 . S
N504 C506 1.375 . S
N504 C507 1.313 . S
C505 C506 1.338 . S
C505 N508 1.377 . S
C505 H525 0.930 . S
C506 N504 1.375 . S
C506 C505 1.338 . S
C506 H510 0.931 . S
C507 N504 1.313 . S
C507 N508 1.344 . S
C507 H511 0.930 . S
N508 C505 1.377 . S
N508 C507 1.344 . S
O509 Co501 2.055 . S
O509 C513 1.253 . S
H510 C506 0.931 . S
H511 C507 0.930 . S
O512 Co501 2.039 . S
O512 C502 1.265 . S
C513 O509 1.253 . S
C513 O514 1.227 . S
O514 C513 1.227 . S
N515 Co501 2.140 . S
N515 C518 1.346 . S
N515 C519 1.345 . S
C516 C517 1.387 . S
C516 C520 1.391 . S
C517 C516 1.387 . S
C517 C518 1.369 . S
C517 H526 0.929 . S
C518 N515 1.346 . S
C518 C517 1.369 . S
C518 H521 0.928 . S
C519 N515 1.345 . S
C519 C520 1.371 . S
C519 H522 0.931 . S
C520 C516 1.391 . S
C520 C519 1.371 . S
C520 H527 0.930 . S
H521 C518 0.928 . S
H522 C519 0.931 . S
H523 C499 0.930 . S
H524 C496 0.930 . S
H525 C505 0.930 . S
H526 C517 0.929 . S
H527 C520 0.930 . S
C528 C529 1.351 . S
C528 N531 1.368 . S
C528 H533 0.931 . S
C529 C528 1.351 . S
C529 N530 1.373 . S
C529 H557 0.930 . S
N530 C529 1.373 . S
N530 C532 1.340 . S
N531 C528 1.368 . S
N531 C532 1.321 . S
N531 Co534 2.135 . S
C532 N530 1.340 . S
C532 N531 1.321 . S
C532 H556 0.930 . S
H533 C528 0.931 . S
Co534 N531 2.135 . S
Co534 N537 2.121 . S
Co534 O542 2.055 . S
Co534 O545 2.039 . S
Co534 N548 2.140 . S
C535 O536 1.227 . S
C535 O545 1.265 . S
O536 C535 1.227 . S
N537 Co534 2.121 . S
N537 C539 1.375 . S
N537 C540 1.313 . S
C538 C539 1.338 . S
C538 N541 1.377 . S
C538 H558 0.930 . S
C539 N537 1.375 . S
C539 C538 1.338 . S
C539 H543 0.931 . S
C540 N537 1.313 . S
C540 N541 1.344 . S
C540 H544 0.930 . S
N541 C538 1.377 . S
N541 C540 1.344 . S
O542 Co534 2.055 . S
O542 C546 1.253 . S
H543 C539 0.931 . S
H544 C540 0.930 . S
O545 Co534 2.039 . S
O545 C535 1.265 . S
C546 O542 1.253 . S
C546 O547 1.227 . S
O547 C546 1.227 . S
N548 Co534 2.140 . S
N548 C551 1.346 . S
N548 C552 1.345 . S
C549 C550 1.387 . S
C549 C553 1.391 . S
C550 C549 1.387 . S
C550 C551 1.369 . S
C550 H559 0.929 . S
C551 N548 1.346 . S
C551 C550 1.369 . S
C551 H554 0.928 . S
C552 N548 1.345 . S
C552 C553 1.371 . S
C552 H555 0.931 . S
C553 C549 1.391 . S
C553 C552 1.371 . S
C553 H560 0.930 . S
H554 C551 0.928 . S
H555 C552 0.931 . S
H556 C532 0.930 . S
H557 C529 0.930 . S
H558 C538 0.930 . S
H559 C550 0.929 . S
H560 C553 0.930 . S
C561 C562 1.351 . S
C561 N564 1.368 . S
C561 H566 0.931 . S
C562 C561 1.351 . S
C562 N563 1.373 . S
C562 H590 0.930 . S
N563 C562 1.373 . S
N563 C565 1.340 . S
N564 C561 1.368 . S
N564 C565 1.321 . S
N564 Co567 2.135 . S
C565 N563 1.340 . S
C565 N564 1.321 . S
C565 H589 0.930 . S
H566 C561 0.931 . S
Co567 N564 2.135 . S
Co567 N570 2.121 . S
Co567 O575 2.055 . S
Co567 O578 2.039 . S
Co567 N581 2.140 . S
C568 O569 1.227 . S
C568 O578 1.265 . S
O569 C568 1.227 . S
N570 Co567 2.121 . S
N570 C572 1.375 . S
N570 C573 1.313 . S
C571 C572 1.338 . S
C571 N574 1.377 . S
C571 H591 0.930 . S
C572 N570 1.375 . S
C572 C571 1.338 . S
C572 H576 0.931 . S
C573 N570 1.313 . S
C573 N574 1.344 . S
C573 H577 0.930 . S
N574 C571 1.377 . S
N574 C573 1.344 . S
O575 Co567 2.055 . S
O575 C579 1.253 . S
H576 C572 0.931 . S
H577 C573 0.930 . S
O578 Co567 2.039 . S
O578 C568 1.265 . S
C579 O575 1.253 . S
C579 O580 1.227 . S
O580 C579 1.227 . S
N581 Co567 2.140 . S
N581 C584 1.346 . S
N581 C585 1.345 . S
C582 C583 1.387 . S
C582 C586 1.391 . S
C583 C582 1.387 . S
C583 C584 1.369 . S
C583 H592 0.929 . S
C584 N581 1.346 . S
C584 C583 1.369 . S
C584 H587 0.928 . S
C585 N581 1.345 . S
C585 C586 1.371 . S
C585 H588 0.931 . S
C586 C582 1.391 . S
C586 C585 1.371 . S
C586 H593 0.930 . S
H587 C584 0.928 . S
H588 C585 0.931 . S
H589 C565 0.930 . S
H590 C562 0.930 . S
H591 C571 0.930 . S
H592 C583 0.929 . S
H593 C586 0.930 . S
H594 C600 0.930 . S
H595 C603 0.930 . S
H596 C604 0.930 . S
H597 C605 0.930 . S
H598 C608 0.930 . S
H599 C609 0.930 . S
C600 H594 0.930 . S
C600 C601 1.355 . S
C600 C602 1.415 . S
C601 C600 1.355 . S
C601 C603 1.419 . S
C602 C600 1.415 . S
C602 C607 1.425 . S
C602 C609 1.409 . S
C603 H595 0.930 . S
C603 C601 1.419 . S
C603 C604 1.362 . S
C604 H596 0.930 . S
C604 C603 1.362 . S
C604 C607 1.409 . S
C605 H597 0.930 . S
C605 C606 1.355 . S
C605 C607 1.415 . S
C606 C605 1.355 . S
C606 C608 1.419 . S
C607 C602 1.425 . S
C607 C604 1.409 . S
C607 C605 1.415 . S
C608 H598 0.930 . S
C608 C606 1.419 . S
C608 C609 1.362 . S
C609 H599 0.930 . S
C609 C602 1.409 . S
C609 C608 1.362 . S
H610 C616 0.930 . S
H611 C619 0.930 . S
H612 C620 0.930 . S
H613 C621 0.930 . S
H614 C624 0.930 . S
H615 C625 0.930 . S
C616 H610 0.930 . S
C616 C617 1.307 1_545 S
C616 C618 1.415 . S
C617 C616 1.307 1_565 S
C617 C619 1.427 . S
C618 C616 1.415 . S
C618 C623 1.425 . S
C618 C625 1.409 . S
C619 H611 0.930 . S
C619 C617 1.427 . S
C619 C620 1.362 1_565 S
C620 H612 0.930 . S
C620 C619 1.362 1_545 S
C620 C623 1.409 . S
C621 H613 0.930 . S
C621 C622 1.355 . S
C621 C623 1.415 . S
C622 C621 1.355 . S
C622 C624 1.419 . S
C623 C618 1.425 . S
C623 C620 1.409 . S
C623 C621 1.415 . S
C624 H614 0.930 . S
C624 C622 1.419 . S
C624 C625 1.362 . S
C625 H615 0.930 . S
C625 C618 1.409 . S
C625 C624 1.362 . S
H626 C632 0.930 . S
H627 C635 0.930 . S
H628 C636 0.930 . S
H629 C637 0.930 . S
H630 C640 0.930 . S
H631 C641 0.930 . S
C632 H626 0.930 . S
C632 C633 1.355 1_655 S
C632 C634 1.415 . S
C633 C632 1.355 1_455 S
C633 C635 1.419 . S
C634 C632 1.415 . S
C634 C639 1.425 . S
C634 C641 1.409 . S
C635 H627 0.930 . S
C635 C633 1.419 . S
C635 C636 1.362 . S
C636 H628 0.930 . S
C636 C635 1.362 . S
C636 C639 1.409 1_455 S
C637 H629 0.930 . S
C637 C638 1.355 . S
C637 C639 1.415 . S
C638 C637 1.355 . S
C638 C640 1.419 . S
C639 C634 1.425 . S
C639 C636 1.409 1_655 S
C639 C637 1.415 . S
C640 H630 0.930 . S
C640 C638 1.419 . S
C640 C641 1.362 . S
C641 H631 0.930 . S
C641 C634 1.409 . S
C641 C640 1.362 . S
H642 C648 0.930 . S
H643 C651 0.930 . S
H644 C652 0.930 . S
H645 C653 0.930 . S
H646 C656 0.930 . S
H647 C657 0.930 . S
C648 H642 0.930 . S
C648 C649 1.355 . S
C648 C650 1.415 . S
C649 C648 1.355 . S
C649 C651 1.419 . S
C650 C648 1.415 . S
C650 C655 1.425 . S
C650 C657 1.409 . S
C651 H643 0.930 . S
C651 C649 1.419 . S
C651 C652 1.362 . S
C652 H644 0.930 . S
C652 C651 1.362 . S
C652 C655 1.409 . S
C653 H645 0.930 . S
C653 C654 1.355 . S
C653 C655 1.415 . S
C654 C653 1.355 . S
C654 C656 1.419 . S
C655 C650 1.425 . S
C655 C652 1.409 . S
C655 C653 1.415 . S
C656 H646 0.930 . S
C656 C654 1.419 . S
C656 C657 1.362 . S
C657 H647 0.930 . S
C657 C650 1.409 . S
C657 C656 1.362 . S
H658 C664 0.930 . S
H659 C667 0.930 . S
H660 C668 0.936 . S
H661 C669 0.930 . S
H662 C672 0.930 . S
H663 C673 0.930 . S
C664 H658 0.930 . S
C664 C665 1.355 1_565 S
C664 C666 1.415 . S
C665 C664 1.355 1_545 S
C665 C667 1.419 . S
C666 C664 1.415 . S
C666 C671 1.425 . S
C666 C673 1.409 . S
C667 H659 0.930 . S
C667 C665 1.419 . S
C667 C668 1.362 1_545 S
C668 H660 0.936 . S
C668 C667 1.362 1_565 S
C668 C671 1.409 . S
C669 H661 0.930 . S
C669 C670 1.355 . S
C669 C671 1.415 . S
C670 C669 1.355 . S
C670 C672 1.419 . S
C671 C666 1.425 . S
C671 C668 1.409 . S
C671 C669 1.415 . S
C672 H662 0.930 . S
C672 C670 1.419 . S
C672 C673 1.362 . S
C673 H663 0.930 . S
C673 C666 1.409 . S
C673 C672 1.362 . S
H674 C680 0.930 . S
H675 C683 0.930 . S
H676 C684 0.930 . S
H677 C685 0.930 . S
H678 C688 0.930 . S
H679 C689 0.930 . S
C680 H674 0.930 . S
C680 C681 1.355 1_455 S
C680 C682 1.415 . S
C681 C680 1.355 1_655 S
C681 C683 1.419 . S
C682 C680 1.415 . S
C682 C687 1.425 . S
C682 C689 1.409 . S
C683 H675 0.930 . S
C683 C681 1.419 . S
C683 C684 1.362 1_655 S
C684 H676 0.930 . S
C684 C683 1.362 1_455 S
C684 C687 1.409 . S
C685 H677 0.930 . S
C685 C686 1.355 . S
C685 C687 1.415 . S
C686 C685 1.355 . S
C686 C688 1.419 . S
C687 C682 1.425 . S
C687 C684 1.409 . S
C687 C685 1.415 . S
C688 H678 0.930 . S
C688 C686 1.419 . S
C688 C689 1.362 . S
C689 H679 0.930 . S
C689 C682 1.409 . S
C689 C688 1.362 . S
H690 C696 0.930 . S
H691 C699 0.930 . S
H692 C700 0.930 . S
H693 C701 0.930 . S
H694 C704 0.930 . S
H695 C705 0.930 . S
C696 H690 0.930 . S
C696 C697 1.355 . S
C696 C698 1.415 . S
C697 C696 1.355 . S
C697 C699 1.419 . S
C698 C696 1.415 . S
C698 C703 1.425 . S
C698 C705 1.409 . S
C699 H691 0.930 . S
C699 C697 1.419 . S
C699 C700 1.362 . S
C700 H692 0.930 . S
C700 C699 1.362 . S
C700 C703 1.409 . S
C701 H693 0.930 . S
C701 C702 1.355 . S
C701 C703 1.415 . S
C702 C701 1.355 . S
C702 C704 1.419 1_655 S
C703 C698 1.425 . S
C703 C700 1.409 . S
C703 C701 1.415 . S
C704 H694 0.930 . S
C704 C702 1.419 1_455 S
C704 C705 1.362 1_455 S
C705 H695 0.930 . S
C705 C698 1.409 . S
C705 C704 1.362 1_655 S
H706 C712 0.930 . S
H707 C715 0.930 . S
H708 C716 0.930 . S
H709 C717 0.930 . S
H710 C720 0.930 . S
H711 C721 0.930 . S
C712 H706 0.930 . S
C712 C713 1.355 . S
C712 C714 1.415 . S
C713 C712 1.355 . S
C713 C715 1.419 . S
C714 C712 1.415 . S
C714 C719 1.425 . S
C714 C721 1.409 . S
C715 H707 0.930 . S
C715 C713 1.419 . S
C715 C716 1.362 . S
C716 H708 0.930 . S
C716 C715 1.362 . S
C716 C719 1.409 . S
C717 H709 0.930 . S
C717 C718 1.355 . S
C717 C719 1.415 . S
C718 C717 1.355 . S
C718 C720 1.419 . S
C719 C714 1.425 . S
C719 C716 1.409 . S
C719 C717 1.415 . S
C720 H710 0.930 . S
C720 C718 1.419 . S
C720 C721 1.362 . S
C721 H711 0.930 . S
C721 C714 1.409 . S
C721 C720 1.362 . S
H722 C728 0.930 . S
H723 C731 0.946 . S
H724 C732 0.930 . S
H725 C733 0.930 . S
H726 C736 0.930 . S
H727 C737 0.930 . S
C728 H722 0.930 . S
C728 C729 1.355 . S
C728 C730 1.415 . S
C729 C728 1.355 . S
C729 C731 1.419 . S
C730 C728 1.415 . S
C730 C735 1.425 . S
C730 C737 1.409 . S
C731 H723 0.946 . S
C731 C729 1.419 . S
C731 C732 1.362 . S
C732 H724 0.930 . S
C732 C731 1.362 . S
C732 C735 1.409 . S
C733 H725 0.930 . S
C733 C734 1.355 . S
C733 C735 1.415 . S
C734 C733 1.355 . S
C734 C736 1.419 . S
C735 C730 1.425 . S
C735 C732 1.409 . S
C735 C733 1.415 . S
C736 H726 0.930 . S
C736 C734 1.419 . S
C736 C737 1.362 . S
C737 H727 0.930 . S
C737 C730 1.409 . S
C737 C736 1.362 . S
H738 C744 0.930 . S
H739 C747 0.930 . S
H740 C748 0.930 . S
H741 C749 0.930 . S
H742 C752 0.930 . S
H743 C753 0.930 1_556 S
C744 H738 0.930 . S
C744 C745 1.355 . S
C744 C746 1.415 . S
C745 C744 1.355 . S
C745 C747 1.419 . S
C746 C744 1.415 . S
C746 C751 1.425 . S
C746 C753 1.409 . S
C747 H739 0.930 . S
C747 C745 1.419 . S
C747 C748 1.362 . S
C748 H740 0.930 . S
C748 C747 1.362 . S
C748 C751 1.409 . S
C749 H741 0.930 . S
C749 C750 1.355 . S
C749 C751 1.415 . S
C750 C749 1.355 . S
C750 C752 1.419 1_554 S
C751 C746 1.425 . S
C751 C748 1.409 . S
C751 C749 1.415 . S
C752 H742 0.930 . S
C752 C750 1.419 1_556 S
C752 C753 1.362 1_556 S
C753 H743 0.930 1_554 S
C753 C746 1.409 . S
C753 C752 1.362 1_554 S
H754 C760 0.930 . S
H755 C763 0.930 . S
H756 C764 0.930 . S
H757 C765 0.930 . S
H758 C768 0.930 . S
H759 C769 0.932 . S
C760 H754 0.930 . S
C760 C761 1.355 . S
C760 C762 1.415 . S
C761 C760 1.355 . S
C761 C763 1.419 . S
C762 C760 1.415 . S
C762 C767 1.425 . S
C762 C769 1.407 1_554 S
C763 H755 0.930 . S
C763 C761 1.419 . S
C763 C764 1.362 . S
C764 H756 0.930 . S
C764 C763 1.362 . S
C764 C767 1.409 . S
C765 H757 0.930 . S
C765 C766 1.355 . S
C765 C767 1.415 . S
C766 C765 1.355 . S
C766 C768 1.419 1_554 S
C767 C762 1.425 . S
C767 C764 1.409 . S
C767 C765 1.415 . S
C768 H758 0.930 . S
C768 C766 1.419 1_556 S
C768 C769 1.363 . S
C769 H759 0.932 . S
C769 C762 1.407 1_556 S
C769 C768 1.363 . S
H770 C776 0.930 . S
H771 C779 0.930 . S
H772 C780 0.930 . S
H773 C781 0.930 . S
H774 C784 0.923 1_556 S
H775 C785 0.930 . S
C776 H770 0.930 . S
C776 C777 1.355 . S
C776 C778 1.415 . S
C777 C776 1.355 . S
C777 C779 1.419 . S
C778 C776 1.415 . S
C778 C783 1.425 . S
C778 C785 1.409 . S
C779 H771 0.930 . S
C779 C777 1.419 . S
C779 C780 1.362 . S
C780 H772 0.930 . S
C780 C779 1.362 . S
C780 C783 1.409 . S
C781 H773 0.930 . S
C781 C782 1.355 . S
C781 C783 1.415 . S
C782 C781 1.355 . S
C782 C784 1.423 . S
C783 C778 1.425 . S
C783 C780 1.409 . S
C783 C781 1.415 . S
C784 H774 0.923 1_554 S
C784 C782 1.423 . S
C784 C785 1.365 . S
C785 H775 0.930 . S
C785 C778 1.409 . S
C785 C784 1.365 . S
H786 C792 0.930 . S
H787 C795 0.930 . S
H788 C796 0.930 . S
H789 C797 0.930 . S
H790 C800 0.930 . S
H791 C801 0.930 . S
C792 H786 0.930 . S
C792 C793 1.355 . S
C792 C794 1.415 . S
C793 C792 1.355 . S
C793 C795 1.419 . S
C794 C792 1.415 . S
C794 C799 1.425 . S
C794 C801 1.409 . S
C795 H787 0.930 . S
C795 C793 1.419 . S
C795 C796 1.362 . S
C796 H788 0.930 . S
C796 C795 1.362 . S
C796 C799 1.409 . S
C797 H789 0.930 . S
C797 C798 1.355 . S
C797 C799 1.415 . S
C798 C797 1.355 . S
C798 C800 1.419 . S
C799 C794 1.425 . S
C799 C796 1.409 . S
C799 C797 1.415 . S
C800 H790 0.930 . S
C800 C798 1.419 . S
C800 C801 1.362 . S
C801 H791 0.930 . S
C801 C794 1.409 . S
C801 C800 1.362 . S
H802 C808 0.930 . S
H803 C811 0.930 . S
H804 C812 0.930 . S
H805 C813 0.930 1_554 S
H806 C816 0.930 . S
H807 C817 0.930 . S
C808 H802 0.930 . S
C808 C809 1.355 . S
C808 C810 1.415 . S
C809 C808 1.355 . S
C809 C811 1.419 . S
C810 C808 1.415 . S
C810 C815 1.425 . S
C810 C817 1.409 . S
C811 H803 0.930 . S
C811 C809 1.419 . S
C811 C812 1.362 . S
C812 H804 0.930 . S
C812 C811 1.362 . S
C812 C815 1.409 . S
C813 H805 0.930 1_556 S
C813 C814 1.355 . S
C813 C815 1.415 . S
C814 C813 1.355 . S
C814 C816 1.419 . S
C815 C810 1.425 . S
C815 C812 1.409 . S
C815 C813 1.415 . S
C816 H806 0.930 . S
C816 C814 1.419 . S
C816 C817 1.362 . S
C817 H807 0.930 . S
C817 C810 1.409 . S
C817 C816 1.362 . S
H818 C824 0.929 . S
H819 C827 0.930 . S
H820 C828 0.930 . S
H821 C829 0.930 . S
H822 C832 0.930 . S
H823 C833 0.930 . S
C824 H818 0.929 . S
C824 C825 1.355 . S
C824 C826 1.415 . S
C825 C824 1.355 . S
C825 C827 1.419 . S
C826 C824 1.415 . S
C826 C831 1.425 . S
C826 C833 1.409 . S
C827 H819 0.930 . S
C827 C825 1.419 . S
C827 C828 1.362 . S
C828 H820 0.930 . S
C828 C827 1.362 . S
C828 C831 1.409 . S
C829 H821 0.930 . S
C829 C830 1.355 . S
C829 C831 1.415 . S
C830 C829 1.355 . S
C830 C832 1.419 . S
C831 C826 1.425 . S
C831 C828 1.409 . S
C831 C829 1.415 . S
C832 H822 0.930 . S
C832 C830 1.419 . S
C832 C833 1.362 . S
C833 H823 0.930 . S
C833 C826 1.409 . S
C833 C832 1.362 . S
H834 C840 0.930 . S
H835 C843 0.930 1_655 S
H836 C844 0.930 . S
H837 C845 0.930 . S
H838 C848 0.930 . S
H839 C849 0.930 . S
C840 H834 0.930 . S
C840 C841 1.355 . S
C840 C842 1.415 . S
C841 C840 1.355 . S
C841 C843 1.419 . S
C842 C840 1.415 . S
C842 C847 1.425 . S
C842 C849 1.409 . S
C843 H835 0.930 1_455 S
C843 C841 1.419 . S
C843 C844 1.362 . S
C844 H836 0.930 . S
C844 C843 1.362 . S
C844 C847 1.409 . S
C845 H837 0.930 . S
C845 C846 1.355 . S
C845 C847 1.415 . S
C846 C845 1.355 . S
C846 C848 1.419 . S
C847 C842 1.425 . S
C847 C844 1.409 . S
C847 C845 1.415 . S
C848 H838 0.930 . S
C848 C846 1.419 . S
C848 C849 1.362 . S
C849 H839 0.930 . S
C849 C842 1.409 . S
C849 C848 1.362 . S
H850 C856 0.930 . S
H851 C859 0.930 . S
H852 C860 0.930 . S
H853 C861 0.930 . S
H854 C864 0.930 . S
H855 C865 0.930 . S
C856 H850 0.930 . S
C856 C857 1.355 . S
C856 C858 1.415 . S
C857 C856 1.355 . S
C857 C859 1.419 . S
C858 C856 1.415 . S
C858 C863 1.425 . S
C858 C865 1.409 . S
C859 H851 0.930 . S
C859 C857 1.419 . S
C859 C860 1.362 . S
C860 H852 0.930 . S
C860 C859 1.362 . S
C860 C863 1.409 . S
C861 H853 0.930 . S
C861 C862 1.355 . S
C861 C863 1.415 . S
C862 C861 1.355 . S
C862 C864 1.419 . S
C863 C858 1.425 . S
C863 C860 1.409 . S
C863 C861 1.415 . S
C864 H854 0.930 . S
C864 C862 1.419 . S
C864 C865 1.362 . S
C865 H855 0.930 . S
C865 C858 1.409 . S
C865 C864 1.362 . S
H866 C872 0.930 . S
H867 C875 0.930 . S
H868 C876 0.930 . S
H869 C877 0.930 1_545 S
H870 C880 0.930 . S
H871 C881 0.930 . S
C872 H866 0.930 . S
C872 C873 1.355 . S
C872 C874 1.415 . S
C873 C872 1.355 . S
C873 C875 1.419 . S
C874 C872 1.415 . S
C874 C879 1.425 . S
C874 C881 1.409 . S
C875 H867 0.930 . S
C875 C873 1.419 . S
C875 C876 1.362 . S
C876 H868 0.930 . S
C876 C875 1.362 . S
C876 C879 1.409 . S
C877 H869 0.930 1_565 S
C877 C878 1.355 . S
C877 C879 1.415 . S
C878 C877 1.355 . S
C878 C880 1.419 . S
C879 C874 1.425 . S
C879 C876 1.409 . S
C879 C877 1.415 . S
C880 H870 0.930 . S
C880 C878 1.419 . S
C880 C881 1.362 . S
C881 H871 0.930 . S
C881 C874 1.409 . S
C881 C880 1.362 . S
H882 C888 0.930 . S
H883 C891 0.930 . S
H884 C892 0.930 . S
H885 C893 0.930 . S
H886 C896 0.930 . S
H887 C897 0.930 . S
C888 H882 0.930 . S
C888 C889 1.355 . S
C888 C890 1.415 . S
C889 C888 1.355 . S
C889 C891 1.419 . S
C890 C888 1.415 . S
C890 C895 1.425 . S
C890 C897 1.409 . S
C891 H883 0.930 . S
C891 C889 1.419 . S
C891 C892 1.362 . S
C892 H884 0.930 . S
C892 C891 1.362 . S
C892 C895 1.409 . S
C893 H885 0.930 . S
C893 C894 1.355 . S
C893 C895 1.415 . S
C894 C893 1.355 . S
C894 C896 1.419 . S
C895 C890 1.425 . S
C895 C892 1.409 . S
C895 C893 1.415 . S
C896 H886 0.930 . S
C896 C894 1.419 . S
C896 C897 1.362 . S
C897 H887 0.930 . S
C897 C890 1.409 . S
C897 C896 1.362 . S
H898 C904 0.930 . S
H899 C907 0.930 . S
H900 C908 0.930 . S
H901 C909 0.930 . S
H902 C912 0.930 . S
H903 C913 0.930 . S
C904 H898 0.930 . S
C904 C905 1.355 . S
C904 C906 1.415 . S
C905 C904 1.355 . S
C905 C907 1.419 . S
C906 C904 1.415 . S
C906 C911 1.425 . S
C906 C913 1.409 . S
C907 H899 0.930 . S
C907 C905 1.419 . S
C907 C908 1.362 . S
C908 H900 0.930 . S
C908 C907 1.362 . S
C908 C911 1.409 . S
C909 H901 0.930 . S
C909 C910 1.355 . S
C909 C911 1.415 . S
C910 C909 1.355 . S
C910 C912 1.419 . S
C911 C906 1.425 . S
C911 C908 1.409 . S
C911 C909 1.415 . S
C912 H902 0.930 . S
C912 C910 1.419 . S
C912 C913 1.362 . S
C913 H903 0.930 . S
C913 C906 1.409 . S
C913 C912 1.362 . S
H914 C920 0.930 . S
H915 C923 0.930 . S
H916 C924 0.930 . S
H917 C925 0.930 . S
H918 C928 0.930 . S
H919 C929 0.930 . S
C920 H914 0.930 . S
C920 C921 1.355 . S
C920 C922 1.415 . S
C921 C920 1.355 . S
C921 C923 1.419 . S
C922 C920 1.415 . S
C922 C927 1.425 . S
C922 C929 1.409 . S
C923 H915 0.930 . S
C923 C921 1.419 . S
C923 C924 1.362 . S
C924 H916 0.930 . S
C924 C923 1.362 . S
C924 C927 1.409 . S
C925 H917 0.930 . S
C925 C926 1.355 . S
C925 C927 1.415 . S
C926 C925 1.355 . S
C926 C928 1.419 . S
C927 C922 1.425 . S
C927 C924 1.409 . S
C927 C925 1.415 . S
C928 H918 0.930 . S
C928 C926 1.419 . S
C928 C929 1.362 . S
C929 H919 0.930 . S
C929 C922 1.409 . S
C929 C928 1.362 . S
H930 C936 0.930 . S
H931 C939 0.930 . S
H932 C940 0.930 . S
H933 C941 0.930 . S
H934 C944 0.930 . S
H935 C945 0.930 . S
C936 H930 0.930 . S
C936 C937 1.355 . S
C936 C938 1.415 . S
C937 C936 1.355 . S
C937 C939 1.419 . S
C938 C936 1.415 . S
C938 C943 1.425 . S
C938 C945 1.409 . S
C939 H931 0.930 . S
C939 C937 1.419 . S
C939 C940 1.362 . S
C940 H932 0.930 . S
C940 C939 1.362 . S
C940 C943 1.409 . S
C941 H933 0.930 . S
C941 C942 1.355 . S
C941 C943 1.415 . S
C942 C941 1.355 . S
C942 C944 1.419 . S
C943 C938 1.425 . S
C943 C940 1.409 . S
C943 C941 1.415 . S
C944 H934 0.930 . S
C944 C942 1.419 . S
C944 C945 1.362 . S
C945 H935 0.930 . S
C945 C938 1.409 . S
C945 C944 1.362 . S
H946 C952 0.930 . S
H947 C955 0.930 . S
H948 C956 0.930 . S
H949 C957 0.930 . S
H950 C960 0.930 . S
H951 C961 0.930 . S
C952 H946 0.930 . S
C952 C953 1.355 . S
C952 C954 1.415 . S
C953 C952 1.355 . S
C953 C955 1.419 . S
C954 C952 1.415 . S
C954 C959 1.425 . S
C954 C961 1.409 . S
C955 H947 0.930 . S
C955 C953 1.419 . S
C955 C956 1.362 . S
C956 H948 0.930 . S
C956 C955 1.362 . S
C956 C959 1.409 . S
C957 H949 0.930 . S
C957 C958 1.355 . S
C957 C959 1.415 . S
C958 C957 1.355 . S
C958 C960 1.419 . S
C959 C954 1.425 . S
C959 C956 1.409 . S
C959 C957 1.415 . S
C960 H950 0.930 . S
C960 C958 1.419 . S
C960 C961 1.362 . S
C961 H951 0.930 . S
C961 C954 1.409 . S
C961 C960 1.362 . S
H962 C968 0.930 . S
H963 C971 0.930 . S
H964 C972 0.930 . S
H965 C973 0.930 . S
H966 C976 0.930 . S
H967 C977 0.930 . S
C968 H962 0.930 . S
C968 C969 1.355 . S
C968 C970 1.415 . S
C969 C968 1.355 . S
C969 C971 1.419 . S
C970 C968 1.415 . S
C970 C975 1.425 . S
C970 C977 1.409 . S
C971 H963 0.930 . S
C971 C969 1.419 . S
C971 C972 1.362 . S
C972 H964 0.930 . S
C972 C971 1.362 . S
C972 C975 1.409 . S
C973 H965 0.930 . S
C973 C974 1.355 . S
C973 C975 1.415 . S
C974 C973 1.355 . S
C974 C976 1.419 . S
C975 C970 1.425 . S
C975 C972 1.409 . S
C975 C973 1.415 . S
C976 H966 0.930 . S
C976 C974 1.419 . S
C976 C977 1.362 . S
C977 H967 0.930 . S
C977 C970 1.409 . S
C977 C976 1.362 . S
H978 C984 0.930 . S
H979 C987 0.930 . S
H980 C988 0.930 . S
H981 C989 0.930 . S
H982 C992 0.930 . S
H983 C993 0.930 . S
C984 H978 0.930 . S
C984 C985 1.355 . S
C984 C986 1.415 . S
C985 C984 1.355 . S
C985 C987 1.419 1_545 S
C986 C984 1.415 . S
C986 C991 1.425 1_544 S
C986 C993 1.409 1_554 S
C987 H979 0.930 . S
C987 C985 1.419 1_565 S
C987 C988 1.362 . S
C988 H980 0.930 . S
C988 C987 1.362 . S
C988 C991 1.409 1_554 S
C989 H981 0.930 . S
C989 C990 1.355 . S
C989 C991 1.415 . S
C990 C989 1.355 . S
C990 C992 1.419 1_565 S
C991 C986 1.425 1_566 S
C991 C988 1.409 1_556 S
C991 C989 1.415 . S
C992 H982 0.930 . S
C992 C990 1.419 1_545 S
C992 C993 1.362 . S
C993 H983 0.930 . S
C993 C986 1.409 1_556 S
C993 C992 1.362 . S
H994 C1000 0.930 . S
H995 C1003 0.930 . S
H996 C1004 0.930 1_554 S
H997 C1005 0.930 . S
H998 C1008 0.930 . S
H999 C1009 0.930 1_556 S
C1000 H994 0.930 . S
C1000 C1001 1.355 . S
C1000 C1002 1.415 . S
C1001 C1000 1.355 . S
C1001 C1003 1.419 . S
C1002 C1000 1.415 . S
C1002 C1007 1.425 1_456 S
C1002 C1009 1.409 1_556 S
C1003 H995 0.930 . S
C1003 C1001 1.419 . S
C1003 C1004 1.362 1_455 S
C1004 H996 0.930 1_556 S
C1004 C1003 1.362 1_655 S
C1004 C1007 1.409 1_556 S
C1005 H997 0.930 . S
C1005 C1006 1.355 . S
C1005 C1007 1.415 . S
C1006 C1005 1.355 . S
C1006 C1008 1.419 . S
C1007 C1002 1.425 1_654 S
C1007 C1004 1.409 1_554 S
C1007 C1005 1.415 . S
C1008 H998 0.930 . S
C1008 C1006 1.419 . S
C1008 C1009 1.362 1_655 S
C1009 H999 0.930 1_554 S
C1009 C1002 1.409 1_554 S
C1009 C1008 1.362 1_455 S
H1010 C1016 0.930 . S
H1011 C1019 0.930 . S
H1012 C1020 0.930 . S
H1013 C1021 0.930 . S
H1014 C1024 0.930 . S
H1015 C1025 0.930 . S
C1016 H1010 0.930 . S
C1016 C1017 1.355 . S
C1016 C1018 1.415 . S
C1017 C1016 1.355 . S
C1017 C1019 1.419 . S
C1018 C1016 1.415 . S
C1018 C1023 1.425 1_556 S
C1018 C1025 1.409 . S
C1019 H1011 0.930 . S
C1019 C1017 1.419 . S
C1019 C1020 1.362 1_556 S
C1020 H1012 0.930 . S
C1020 C1019 1.362 1_554 S
C1020 C1023 1.409 . S
C1021 H1013 0.930 . S
C1021 C1022 1.355 . S
C1021 C1023 1.415 . S
C1022 C1021 1.355 . S
C1022 C1024 1.419 . S
C1023 C1018 1.425 1_554 S
C1023 C1020 1.409 . S
C1023 C1021 1.415 . S
C1024 H1014 0.930 . S
C1024 C1022 1.419 . S
C1024 C1025 1.362 1_554 S
C1025 H1015 0.930 . S
C1025 C1018 1.409 . S
C1025 C1024 1.362 1_556 S
H1026 C1032 0.930 . S
H1027 C1035 0.930 . S
H1028 C1036 0.930 . S
H1029 C1037 0.930 . S
H1030 C1040 0.930 1_554 S
H1031 C1041 0.930 . S
C1032 H1026 0.930 . S
C1032 C1033 1.355 1_554 S
C1032 C1034 1.415 1_554 S
C1033 C1032 1.355 1_556 S
C1033 C1035 1.419 . S
C1034 C1032 1.415 1_556 S
C1034 C1039 1.425 . S
C1034 C1041 1.409 1_556 S
C1035 H1027 0.930 . S
C1035 C1033 1.419 . S
C1035 C1036 1.362 . S
C1036 H1028 0.930 . S
C1036 C1035 1.362 . S
C1036 C1039 1.409 . S
C1037 H1029 0.930 . S
C1037 C1038 1.355 . S
C1037 C1039 1.415 . S
C1038 C1037 1.355 . S
C1038 C1040 1.419 . S
C1039 C1034 1.425 . S
C1039 C1036 1.409 . S
C1039 C1037 1.415 . S
C1040 H1030 0.930 1_556 S
C1040 C1038 1.419 . S
C1040 C1041 1.362 1_556 S
C1041 H1031 0.930 . S
C1041 C1034 1.409 1_554 S
C1041 C1040 1.362 1_554 S
H1042 C1048 0.930 . S
H1043 C1051 0.930 . S
H1044 C1052 0.930 . S
H1045 C1053 0.930 1_554 S
H1046 C1056 0.930 . S
H1047 C1057 0.930 . S
C1048 H1042 0.930 . S
C1048 C1049 1.355 . S
C1048 C1050 1.415 . S
C1049 C1048 1.355 . S
C1049 C1051 1.419 . S
C1050 C1048 1.415 . S
C1050 C1055 1.425 . S
C1050 C1057 1.409 . S
C1051 H1043 0.930 . S
C1051 C1049 1.419 . S
C1051 C1052 1.362 . S
C1052 H1044 0.930 . S
C1052 C1051 1.362 . S
C1052 C1055 1.409 . S
C1053 H1045 0.930 1_556 S
C1053 C1054 1.355 . S
C1053 C1055 1.415 . S
C1054 C1053 1.355 . S
C1054 C1056 1.420 . S
C1055 C1050 1.425 . S
C1055 C1052 1.409 . S
C1055 C1053 1.415 . S
C1056 H1046 0.930 . S
C1056 C1054 1.420 . S
C1056 C1057 1.362 . S
C1057 H1047 0.930 . S
C1057 C1050 1.409 . S
C1057 C1056 1.362 . S
H1058 C1064 0.930 . S
H1059 C1067 0.930 . S
H1060 C1068 0.930 . S
H1061 C1069 0.930 . S
H1062 C1072 0.930 1_554 S
H1063 C1073 0.930 . S
C1064 H1058 0.930 . S
C1064 C1065 1.355 1_554 S
C1064 C1066 1.415 1_554 S
C1065 C1064 1.355 1_556 S
C1065 C1067 1.419 . S
C1066 C1064 1.415 1_556 S
C1066 C1071 1.425 . S
C1066 C1073 1.409 1_556 S
C1067 H1059 0.930 . S
C1067 C1065 1.419 . S
C1067 C1068 1.362 . S
C1068 H1060 0.930 . S
C1068 C1067 1.362 . S
C1068 C1071 1.409 . S
C1069 H1061 0.930 . S
C1069 C1070 1.355 . S
C1069 C1071 1.415 . S
C1070 C1069 1.355 . S
C1070 C1072 1.419 . S
C1071 C1066 1.425 . S
C1071 C1068 1.409 . S
C1071 C1069 1.415 . S
C1072 H1062 0.930 1_556 S
C1072 C1070 1.419 . S
C1072 C1073 1.362 1_556 S
C1073 H1063 0.930 . S
C1073 C1066 1.409 1_554 S
C1073 C1072 1.362 1_554 S
H1074 C1080 0.930 . S
H1075 C1083 0.930 . S
H1076 C1084 0.930 . S
H1077 C1085 0.930 . S
H1078 C1088 0.930 . S
H1079 C1089 0.930 . S
C1080 H1074 0.930 . S
C1080 C1081 1.355 . S
C1080 C1082 1.415 . S
C1081 C1080 1.355 . S
C1081 C1083 1.419 . S
C1082 C1080 1.415 . S
C1082 C1087 1.425 . S
C1082 C1089 1.409 1_554 S
C1083 H1075 0.930 . S
C1083 C1081 1.419 . S
C1083 C1084 1.362 . S
C1084 H1076 0.930 . S
C1084 C1083 1.362 . S
C1084 C1087 1.409 . S
C1085 H1077 0.930 . S
C1085 C1086 1.355 1_554 S
C1085 C1087 1.415 . S
C1086 C1085 1.355 1_556 S
C1086 C1088 1.419 . S
C1087 C1082 1.425 . S
C1087 C1084 1.409 . S
C1087 C1085 1.415 . S
C1088 H1078 0.930 . S
C1088 C1086 1.419 . S
C1088 C1089 1.362 . S
C1089 H1079 0.930 . S
C1089 C1082 1.409 1_556 S
C1089 C1088 1.362 . S
H1090 C1096 0.930 . S
H1091 C1099 0.930 . S
H1092 C1100 0.930 . S
H1093 C1101 0.930 . S
H1094 C1104 0.930 . S
H1095 C1105 0.930 . S
C1096 H1090 0.930 . S
C1096 C1097 1.355 1_554 S
C1096 C1098 1.415 . S
C1097 C1096 1.355 1_556 S
C1097 C1099 1.419 . S
C1098 C1096 1.415 . S
C1098 C1103 1.425 . S
C1098 C1105 1.409 . S
C1099 H1091 0.930 . S
C1099 C1097 1.419 . S
C1099 C1100 1.362 1_556 S
C1100 H1092 0.930 . S
C1100 C1099 1.362 1_554 S
C1100 C1103 1.409 . S
C1101 H1093 0.930 . S
C1101 C1102 1.355 . S
C1101 C1103 1.415 . S
C1102 C1101 1.355 . S
C1102 C1104 1.419 . S
C1103 C1098 1.425 . S
C1103 C1100 1.409 . S
C1103 C1101 1.415 . S
C1104 H1094 0.930 . S
C1104 C1102 1.419 . S
C1104 C1105 1.362 . S
C1105 H1095 0.930 . S
C1105 C1098 1.409 . S
C1105 C1104 1.362 . S
H1106 C1112 0.930 . S
H1107 C1115 0.930 . S
H1108 C1116 0.930 . S
H1109 C1117 0.935 . S
H1110 C1120 0.930 . S
H1111 C1121 0.930 . S
C1112 H1106 0.930 . S
C1112 C1113 1.355 . S
C1112 C1114 1.415 . S
C1113 C1112 1.355 . S
C1113 C1115 1.419 . S
C1114 C1112 1.415 . S
C1114 C1119 1.425 . S
C1114 C1121 1.409 . S
C1115 H1107 0.930 . S
C1115 C1113 1.419 . S
C1115 C1116 1.362 . S
C1116 H1108 0.930 . S
C1116 C1115 1.362 . S
C1116 C1119 1.409 . S
C1117 H1109 0.935 . S
C1117 C1118 1.354 1_556 S
C1117 C1119 1.409 1_556 S
C1118 C1117 1.354 1_554 S
C1118 C1120 1.419 . S
C1119 C1114 1.425 . S
C1119 C1116 1.409 . S
C1119 C1117 1.409 1_554 S
C1120 H1110 0.930 . S
C1120 C1118 1.419 . S
C1120 C1121 1.362 . S
C1121 H1111 0.930 . S
C1121 C1114 1.409 . S
C1121 C1120 1.362 . S
H1122 C1128 0.930 . S
H1123 C1131 0.930 . S
H1124 C1132 0.930 . S
H1125 C1133 0.930 . S
H1126 C1136 0.930 . S
H1127 C1137 0.930 . S
C1128 H1122 0.930 . S
C1128 C1129 1.355 . S
C1128 C1130 1.415 . S
C1129 C1128 1.355 . S
C1129 C1131 1.419 . S
C1130 C1128 1.415 . S
C1130 C1135 1.425 . S
C1130 C1137 1.409 . S
C1131 H1123 0.930 . S
C1131 C1129 1.419 . S
C1131 C1132 1.362 . S
C1132 H1124 0.930 . S
C1132 C1131 1.362 . S
C1132 C1135 1.409 . S
C1133 H1125 0.930 . S
C1133 C1134 1.355 . S
C1133 C1135 1.415 . S
C1134 C1133 1.355 . S
C1134 C1136 1.419 . S
C1135 C1130 1.425 . S
C1135 C1132 1.409 . S
C1135 C1133 1.415 . S
C1136 H1126 0.930 . S
C1136 C1134 1.419 . S
C1136 C1137 1.362 . S
C1137 H1127 0.930 . S
C1137 C1130 1.409 . S
C1137 C1136 1.362 . S
H1138 C1144 0.930 . S
H1139 C1147 0.930 . S
H1140 C1148 0.930 . S
H1141 C1149 0.930 . S
H1142 C1152 0.930 . S
H1143 C1153 0.930 . S
C1144 H1138 0.930 . S
C1144 C1145 1.355 . S
C1144 C1146 1.415 . S
C1145 C1144 1.355 . S
C1145 C1147 1.419 . S
C1146 C1144 1.415 . S
C1146 C1151 1.425 . S
C1146 C1153 1.409 . S
C1147 H1139 0.930 . S
C1147 C1145 1.419 . S
C1147 C1148 1.362 . S
C1148 H1140 0.930 . S
C1148 C1147 1.362 . S
C1148 C1151 1.409 . S
C1149 H1141 0.930 . S
C1149 C1150 1.355 . S
C1149 C1151 1.415 . S
C1150 C1149 1.355 . S
C1150 C1152 1.419 . S
C1151 C1146 1.425 . S
C1151 C1148 1.409 . S
C1151 C1149 1.415 . S
C1152 H1142 0.930 . S
C1152 C1150 1.419 . S
C1152 C1153 1.362 . S
C1153 H1143 0.930 . S
C1153 C1146 1.409 . S
C1153 C1152 1.362 . S
H1154 C1160 0.930 . S
H1155 C1163 0.930 . S
H1156 C1164 0.930 . S
H1157 C1165 0.930 . S
H1158 C1168 0.930 . S
H1159 C1169 0.930 . S
C1160 H1154 0.930 . S
C1160 C1161 1.355 . S
C1160 C1162 1.415 . S
C1161 C1160 1.355 . S
C1161 C1163 1.419 . S
C1162 C1160 1.415 . S
C1162 C1167 1.425 . S
C1162 C1169 1.409 . S
C1163 H1155 0.930 . S
C1163 C1161 1.419 . S
C1163 C1164 1.362 . S
C1164 H1156 0.930 . S
C1164 C1163 1.362 . S
C1164 C1167 1.409 . S
C1165 H1157 0.930 . S
C1165 C1166 1.355 . S
C1165 C1167 1.415 . S
C1166 C1165 1.355 . S
C1166 C1168 1.419 . S
C1167 C1162 1.425 . S
C1167 C1164 1.409 . S
C1167 C1165 1.415 . S
C1168 H1158 0.930 . S
C1168 C1166 1.419 . S
C1168 C1169 1.362 . S
C1169 H1159 0.930 . S
C1169 C1162 1.409 . S
C1169 C1168 1.362 . S
H1170 C1176 0.930 . S
H1171 C1179 0.930 . S
H1172 C1180 0.930 . S
H1173 C1181 0.930 . S
H1174 C1184 0.930 . S
H1175 C1185 0.930 . S
C1176 H1170 0.930 . S
C1176 C1177 1.355 . S
C1176 C1178 1.415 . S
C1177 C1176 1.355 . S
C1177 C1179 1.419 . S
C1178 C1176 1.415 . S
C1178 C1183 1.425 . S
C1178 C1185 1.409 . S
C1179 H1171 0.930 . S
C1179 C1177 1.419 . S
C1179 C1180 1.362 . S
C1180 H1172 0.930 . S
C1180 C1179 1.362 . S
C1180 C1183 1.409 . S
C1181 H1173 0.930 . S
C1181 C1182 1.355 . S
C1181 C1183 1.415 . S
C1182 C1181 1.355 . S
C1182 C1184 1.419 . S
C1183 C1178 1.425 . S
C1183 C1180 1.409 . S
C1183 C1181 1.415 . S
C1184 H1174 0.930 . S
C1184 C1182 1.419 . S
C1184 C1185 1.362 . S
C1185 H1175 0.930 . S
C1185 C1178 1.409 . S
C1185 C1184 1.362 . S
H1186 C1192 0.930 . S
H1187 C1195 0.930 . S
H1188 C1196 0.930 . S
H1189 C1197 0.930 . S
H1190 C1200 0.930 . S
H1191 C1201 0.930 . S
C1192 H1186 0.930 . S
C1192 C1193 1.355 . S
C1192 C1194 1.415 . S
C1193 C1192 1.355 . S
C1193 C1195 1.419 . S
C1194 C1192 1.415 . S
C1194 C1199 1.425 . S
C1194 C1201 1.409 . S
C1195 H1187 0.930 . S
C1195 C1193 1.419 . S
C1195 C1196 1.362 . S
C1196 H1188 0.930 . S
C1196 C1195 1.362 . S
C1196 C1199 1.409 . S
C1197 H1189 0.930 . S
C1197 C1198 1.355 . S
C1197 C1199 1.415 . S
C1198 C1197 1.355 . S
C1198 C1200 1.419 . S
C1199 C1194 1.425 . S
C1199 C1196 1.409 . S
C1199 C1197 1.415 . S
C1200 H1190 0.930 . S
C1200 C1198 1.419 . S
C1200 C1201 1.362 . S
C1201 H1191 0.930 . S
C1201 C1194 1.409 . S
C1201 C1200 1.362 . S
H1202 C1208 0.930 . S
H1203 C1211 0.930 . S
H1204 C1212 0.930 . S
H1205 C1213 0.930 . S
H1206 C1216 0.930 . S
H1207 C1217 0.930 . S
C1208 H1202 0.930 . S
C1208 C1209 1.355 . S
C1208 C1210 1.415 . S
C1209 C1208 1.355 . S
C1209 C1211 1.419 . S
C1210 C1208 1.415 . S
C1210 C1215 1.425 . S
C1210 C1217 1.409 . S
C1211 H1203 0.930 . S
C1211 C1209 1.419 . S
C1211 C1212 1.362 . S
C1212 H1204 0.930 . S
C1212 C1211 1.362 . S
C1212 C1215 1.409 . S
C1213 H1205 0.930 . S
C1213 C1214 1.355 . S
C1213 C1215 1.415 . S
C1214 C1213 1.355 . S
C1214 C1216 1.419 . S
C1215 C1210 1.425 . S
C1215 C1212 1.409 . S
C1215 C1213 1.415 . S
C1216 H1206 0.930 . S
C1216 C1214 1.419 . S
C1216 C1217 1.362 . S
C1217 H1207 0.930 . S
C1217 C1210 1.409 . S
C1217 C1216 1.362 . S
H1218 C1224 0.930 . S
H1219 C1227 0.930 . S
H1220 C1228 0.930 . S
H1221 C1229 0.930 . S
H1222 C1232 0.930 . S
H1223 C1233 0.930 . S
C1224 H1218 0.930 . S
C1224 C1225 1.355 . S
C1224 C1226 1.415 . S
C1225 C1224 1.355 . S
C1225 C1227 1.419 . S
C1226 C1224 1.415 . S
C1226 C1231 1.425 . S
C1226 C1233 1.409 . S
C1227 H1219 0.930 . S
C1227 C1225 1.419 . S
C1227 C1228 1.362 . S
C1228 H1220 0.930 . S
C1228 C1227 1.362 . S
C1228 C1231 1.409 . S
C1229 H1221 0.930 . S
C1229 C1230 1.355 . S
C1229 C1231 1.415 . S
C1230 C1229 1.355 . S
C1230 C1232 1.419 . S
C1231 C1226 1.425 . S
C1231 C1228 1.409 . S
C1231 C1229 1.415 . S
C1232 H1222 0.930 . S
C1232 C1230 1.419 . S
C1232 C1233 1.362 . S
C1233 H1223 0.930 . S
C1233 C1226 1.409 . S
C1233 C1232 1.362 . S
H1234 C1240 0.930 . S
H1235 C1243 0.930 . S
H1236 C1244 0.930 . S
H1237 C1245 0.930 . S
H1238 C1248 0.930 . S
H1239 C1249 0.930 . S
C1240 H1234 0.930 . S
C1240 C1241 1.355 . S
C1240 C1242 1.415 . S
C1241 C1240 1.355 . S
C1241 C1243 1.419 . S
C1242 C1240 1.415 . S
C1242 C1247 1.425 . S
C1242 C1249 1.409 . S
C1243 H1235 0.930 . S
C1243 C1241 1.419 . S
C1243 C1244 1.362 . S
C1244 H1236 0.930 . S
C1244 C1243 1.362 . S
C1244 C1247 1.409 . S
C1245 H1237 0.930 . S
C1245 C1246 1.355 . S
C1245 C1247 1.415 . S
C1246 C1245 1.355 . S
C1246 C1248 1.419 . S
C1247 C1242 1.425 . S
C1247 C1244 1.409 . S
C1247 C1245 1.415 . S
C1248 H1238 0.930 . S
C1248 C1246 1.419 . S
C1248 C1249 1.362 . S
C1249 H1239 0.930 . S
C1249 C1242 1.409 . S
C1249 C1248 1.362 . S
H1250 C1256 0.930 . S
H1251 C1259 0.930 . S
H1252 C1260 0.930 . S
H1253 C1261 0.930 . S
H1254 C1264 0.930 . S
H1255 C1265 0.930 . S
C1256 H1250 0.930 . S
C1256 C1257 1.355 . S
C1256 C1258 1.415 . S
C1257 C1256 1.355 . S
C1257 C1259 1.419 . S
C1258 C1256 1.415 . S
C1258 C1263 1.425 . S
C1258 C1265 1.409 . S
C1259 H1251 0.930 . S
C1259 C1257 1.419 . S
C1259 C1260 1.362 . S
C1260 H1252 0.930 . S
C1260 C1259 1.362 . S
C1260 C1263 1.409 . S
C1261 H1253 0.930 . S
C1261 C1262 1.355 . S
C1261 C1263 1.415 . S
C1262 C1261 1.355 . S
C1262 C1264 1.419 . S
C1263 C1258 1.425 . S
C1263 C1260 1.409 . S
C1263 C1261 1.415 . S
C1264 H1254 0.930 . S
C1264 C1262 1.419 . S
C1264 C1265 1.362 . S
C1265 H1255 0.930 . S
C1265 C1258 1.409 . S
C1265 C1264 1.362 . S
H1266 C1272 0.930 . S
H1267 C1275 0.930 . S
H1268 C1276 0.930 . S
H1269 C1277 0.930 . S
H1270 C1280 0.930 . S
H1271 C1281 0.930 . S
C1272 H1266 0.930 . S
C1272 C1273 1.355 . S
C1272 C1274 1.415 . S
C1273 C1272 1.355 . S
C1273 C1275 1.419 . S
C1274 C1272 1.415 . S
C1274 C1279 1.425 . S
C1274 C1281 1.409 . S
C1275 H1267 0.930 . S
C1275 C1273 1.419 . S
C1275 C1276 1.362 . S
C1276 H1268 0.930 . S
C1276 C1275 1.362 . S
C1276 C1279 1.409 . S
C1277 H1269 0.930 . S
C1277 C1278 1.355 . S
C1277 C1279 1.415 . S
C1278 C1277 1.355 . S
C1278 C1280 1.419 . S
C1279 C1274 1.425 . S
C1279 C1276 1.409 . S
C1279 C1277 1.415 . S
C1280 H1270 0.930 . S
C1280 C1278 1.419 . S
C1280 C1281 1.362 . S
C1281 H1271 0.930 . S
C1281 C1274 1.409 . S
C1281 C1280 1.362 . S
H1282 C1288 0.930 . S
H1283 C1291 0.930 . S
H1284 C1292 0.930 . S
H1285 C1293 0.930 . S
H1286 C1296 0.930 . S
H1287 C1297 0.930 . S
C1288 H1282 0.930 . S
C1288 C1289 1.355 . S
C1288 C1290 1.415 . S
C1289 C1288 1.355 . S
C1289 C1291 1.419 . S
C1290 C1288 1.415 . S
C1290 C1295 1.425 . S
C1290 C1297 1.409 . S
C1291 H1283 0.930 . S
C1291 C1289 1.419 . S
C1291 C1292 1.362 . S
C1292 H1284 0.930 . S
C1292 C1291 1.362 . S
C1292 C1295 1.409 . S
C1293 H1285 0.930 . S
C1293 C1294 1.355 . S
C1293 C1295 1.415 . S
C1294 C1293 1.355 . S
C1294 C1296 1.419 . S
C1295 C1290 1.425 . S
C1295 C1292 1.409 . S
C1295 C1293 1.415 . S
C1296 H1286 0.930 . S
C1296 C1294 1.419 . S
C1296 C1297 1.362 . S
C1297 H1287 0.930 . S
C1297 C1290 1.409 . S
C1297 C1296 1.362 . S
H1298 C1304 0.930 . S
H1299 C1307 0.930 . S
H1300 C1308 0.930 . S
H1301 C1309 0.930 . S
H1302 C1312 0.930 . S
H1303 C1313 0.930 . S
C1304 H1298 0.930 . S
C1304 C1305 1.355 . S
C1304 C1306 1.415 . S
C1305 C1304 1.355 . S
C1305 C1307 1.419 . S
C1306 C1304 1.415 . S
C1306 C1311 1.425 . S
C1306 C1313 1.409 . S
C1307 H1299 0.930 . S
C1307 C1305 1.419 . S
C1307 C1308 1.362 . S
C1308 H1300 0.930 . S
C1308 C1307 1.362 . S
C1308 C1311 1.409 . S
C1309 H1301 0.930 . S
C1309 C1310 1.355 . S
C1309 C1311 1.415 . S
C1310 C1309 1.355 . S
C1310 C1312 1.419 . S
C1311 C1306 1.425 . S
C1311 C1308 1.409 . S
C1311 C1309 1.415 . S
C1312 H1302 0.930 . S
C1312 C1310 1.419 . S
C1312 C1313 1.362 . S
C1313 H1303 0.930 . S
C1313 C1306 1.409 . S
C1313 C1312 1.362 . S
C601 C7 1.091 . S
C606 C252 1.182 . S
C617 C40 1.231 . S
C622 C285 1.214 . S
C633 C73 1.140 . S
C638 C219 1.200 . S
C649 C549 1.182 . S
C654 C106 1.090 . S
C665 C139 1.171 . S
C670 C582 1.209 . S
C681 C172 1.091 . S
C686 C516 1.183 . S
C697 C205 1.183 . S
C702 C450 1.206 1_655 S
C713 C483 1.197 . S
C718 C238 1.131 . S
C729 C417 1.200 1_545 S
C734 C271 1.164 . S
C745 C304 1.143 . S
C750 C153 1.192 1_554 S
C761 C337 1.106 . S
C766 C186 1.182 1_554 S
C777 C370 1.091 . S
C782 C120 1.180 1_554 S
C793 C403 1.136 . S
C798 C54 1.196 1_556 S
C809 C436 1.183 . S
C814 C87 1.209 1_556 S
C825 C21 1.195 1_556 S
C830 C469 1.132 . S
C841 C351 1.196 1_455 S
C846 C502 1.151 . S
C857 C535 1.131 . S
C862 C384 1.197 . S
C873 C568 1.100 . S
C878 C318 1.183 1_565 S
C889 N508 1.630 . S
C894 N13 1.630 . S
C905 N541 1.543 . S
C910 N46 1.543 . S
C921 N79 1.576 . S
C926 N574 1.576 . S
C937 N112 1.583 . S
C942 N211 1.583 . S
C953 N145 1.601 . S
C958 N244 1.601 . S
C969 N277 1.543 . S
C974 N178 1.543 . S
C985 N310 1.571 . S
C990 N409 1.571 . S
C1001 N442 1.560 . S
C1006 N343 1.560 . S
C1017 N475 1.547 . S
C1022 N376 1.547 . S
C1033 N2 1.518 1_556 S
C1038 C150 1.507 . S
C1049 C183 1.532 . S
C1054 N35 1.539 1_556 S
C1065 N68 1.521 1_556 S
C1070 C117 1.509 . S
C1081 C51 1.525 . S
C1086 N101 1.515 . S
C1097 N134 1.490 . S
C1102 C84 1.497 . S
C1113 C18 1.484 . S
C1118 N167 1.490 1_554 S
C1129 N200 1.484 . S
C1134 C348 1.484 . S
C1145 C381 1.527 . S
C1150 N233 1.537 . S
C1161 C315 1.510 . S
C1166 N266 1.521 . S
C1177 N299 1.490 . S
C1182 C249 1.497 . S
C1193 C282 1.528 . S
C1198 N332 1.538 . S
C1209 N365 1.546 . S
C1214 C216 1.547 . S
C1225 C546 1.496 . S
C1230 N398 1.507 . S
C1241 C579 1.485 . S
C1246 N431 1.485 . S
C1257 C513 1.544 . S
C1262 N464 1.538 . S
C1273 C447 1.483 . S
C1278 N497 1.487 . S
C1289 C480 1.546 . S
C1294 N530 1.543 . S
C1305 N563 1.541 . S
C1310 C414 1.532 . S
