# Generated by pormake.
# Topology wse, (4)-cn, num edge types: 1
# Building blocks:
#     Node 0, Type 0, BuildingBlock: QUQFOY_clean_sbu_1, # of connection points: 4
#     Node 1, Type 0, BuildingBlock: QUQFOY_clean_sbu_1, # of connection points: 4
#     Node 2, Type 0, BuildingBlock: QUQFOY_clean_sbu_1, # of connection points: 4
#     Node 3, Type 0, BuildingBlock: QUQFOY_clean_sbu_1, # of connection points: 4
#     Node 4, Type 0, BuildingBlock: QUQFOY_clean_sbu_1, # of connection points: 4
#     Node 5, Type 0, BuildingBlock: QUQFOY_clean_sbu_1, # of connection points: 4
#     Node 6, Type 0, BuildingBlock: QUQFOY_clean_sbu_1, # of connection points: 4
#     Node 7, Type 0, BuildingBlock: QUQFOY_clean_sbu_1, # of connection points: 4
#     Node 8, Type 0, BuildingBlock: QUQFOY_clean_sbu_1, # of connection points: 4
#     Node 9, Type 0, BuildingBlock: QUQFOY_clean_sbu_1, # of connection points: 4
#     Node 10, Type 0, BuildingBlock: QUQFOY_clean_sbu_1, # of connection points: 4
#     Node 11, Type 0, BuildingBlock: QUQFOY_clean_sbu_1, # of connection points: 4
#     Node 12, Type 0, BuildingBlock: QUQFOY_clean_sbu_1, # of connection points: 4
#     Node 13, Type 0, BuildingBlock: QUQFOY_clean_sbu_1, # of connection points: 4
#     Node 14, Type 0, BuildingBlock: QUQFOY_clean_sbu_1, # of connection points: 4
#     Node 15, Type 0, BuildingBlock: QUQFOY_clean_sbu_1, # of connection points: 4
#     Node 16, Type 0, BuildingBlock: QUQFOY_clean_sbu_1, # of connection points: 4
#     Node 17, Type 0, BuildingBlock: QUQFOY_clean_sbu_1, # of connection points: 4
#     Node 18, Type 0, BuildingBlock: QUQFOY_clean_sbu_1, # of connection points: 4
#     Node 19, Type 0, BuildingBlock: QUQFOY_clean_sbu_1, # of connection points: 4
#     Node 20, Type 0, BuildingBlock: QUQFOY_clean_sbu_1, # of connection points: 4
#     Node 21, Type 0, BuildingBlock: QUQFOY_clean_sbu_1, # of connection points: 4
#     Node 22, Type 0, BuildingBlock: QUQFOY_clean_sbu_1, # of connection points: 4
#     Node 23, Type 0, BuildingBlock: QUQFOY_clean_sbu_1, # of connection points: 4
#     Node 24, Type 0, BuildingBlock: QUQFOY_clean_sbu_1, # of connection points: 4
#     Node 25, Type 0, BuildingBlock: QUQFOY_clean_sbu_1, # of connection points: 4
#     Node 26, Type 0, BuildingBlock: QUQFOY_clean_sbu_1, # of connection points: 4
#     Node 27, Type 0, BuildingBlock: QUQFOY_clean_sbu_1, # of connection points: 4
#     Node 28, Type 0, BuildingBlock: QUQFOY_clean_sbu_1, # of connection points: 4
#     Node 29, Type 0, BuildingBlock: QUQFOY_clean_sbu_1, # of connection points: 4
#     Node 30, Type 0, BuildingBlock: QUQFOY_clean_sbu_1, # of connection points: 4
#     Node 31, Type 0, BuildingBlock: QUQFOY_clean_sbu_1, # of connection points: 4
#     Node 32, Type 0, BuildingBlock: QUQFOY_clean_sbu_1, # of connection points: 4
#     Node 33, Type 0, BuildingBlock: QUQFOY_clean_sbu_1, # of connection points: 4
#     Node 34, Type 0, BuildingBlock: QUQFOY_clean_sbu_1, # of connection points: 4
#     Node 35, Type 0, BuildingBlock: QUQFOY_clean_sbu_1, # of connection points: 4
#     Node 36, Type 0, BuildingBlock: QUQFOY_clean_sbu_1, # of connection points: 4
#     Node 37, Type 0, BuildingBlock: QUQFOY_clean_sbu_1, # of connection points: 4
#     Node 38, Type 0, BuildingBlock: QUQFOY_clean_sbu_1, # of connection points: 4
#     Node 39, Type 0, BuildingBlock: QUQFOY_clean_sbu_1, # of connection points: 4
#     Node 40, Type 0, BuildingBlock: QUQFOY_clean_sbu_1, # of connection points: 4
#     Node 41, Type 0, BuildingBlock: QUQFOY_clean_sbu_1, # of connection points: 4
#     Node 42, Type 0, BuildingBlock: QUQFOY_clean_sbu_1, # of connection points: 4
#     Node 43, Type 0, BuildingBlock: QUQFOY_clean_sbu_1, # of connection points: 4
#     Node 44, Type 0, BuildingBlock: QUQFOY_clean_sbu_1, # of connection points: 4
#     Node 45, Type 0, BuildingBlock: QUQFOY_clean_sbu_1, # of connection points: 4
#     Node 46, Type 0, BuildingBlock: QUQFOY_clean_sbu_1, # of connection points: 4
#     Node 47, Type 0, BuildingBlock: QUQFOY_clean_sbu_1, # of connection points: 4
#     Node 48, Type 0, BuildingBlock: QUQFOY_clean_sbu_1, # of connection points: 4
#     Node 49, Type 0, BuildingBlock: QUQFOY_clean_sbu_1, # of connection points: 4
#     Node 50, Type 0, BuildingBlock: QUQFOY_clean_sbu_1, # of connection points: 4
#     Node 51, Type 0, BuildingBlock: QUQFOY_clean_sbu_1, # of connection points: 4
#     Node 52, Type 0, BuildingBlock: QUQFOY_clean_sbu_1, # of connection points: 4
#     Node 53, Type 0, BuildingBlock: QUQFOY_clean_sbu_1, # of connection points: 4
#     Node 54, Type 0, BuildingBlock: QUQFOY_clean_sbu_1, # of connection points: 4
#     Node 55, Type 0, BuildingBlock: QUQFOY_clean_sbu_1, # of connection points: 4
#     Node 56, Type 0, BuildingBlock: QUQFOY_clean_sbu_1, # of connection points: 4
#     Node 57, Type 0, BuildingBlock: QUQFOY_clean_sbu_1, # of connection points: 4
#     Node 58, Type 0, BuildingBlock: QUQFOY_clean_sbu_1, # of connection points: 4
#     Node 59, Type 0, BuildingBlock: QUQFOY_clean_sbu_1, # of connection points: 4
#     Node 60, Type 0, BuildingBlock: QUQFOY_clean_sbu_1, # of connection points: 4
#     Node 61, Type 0, BuildingBlock: QUQFOY_clean_sbu_1, # of connection points: 4
#     Node 62, Type 0, BuildingBlock: QUQFOY_clean_sbu_1, # of connection points: 4
#     Node 63, Type 0, BuildingBlock: QUQFOY_clean_sbu_1, # of connection points: 4
#     Node 64, Type 0, BuildingBlock: QUQFOY_clean_sbu_1, # of connection points: 4
#     Node 65, Type 0, BuildingBlock: QUQFOY_clean_sbu_1, # of connection points: 4
#     Node 66, Type 0, BuildingBlock: QUQFOY_clean_sbu_1, # of connection points: 4
#     Node 67, Type 0, BuildingBlock: QUQFOY_clean_sbu_1, # of connection points: 4
#     Node 68, Type 0, BuildingBlock: QUQFOY_clean_sbu_1, # of connection points: 4
#     Node 69, Type 0, BuildingBlock: QUQFOY_clean_sbu_1, # of connection points: 4
#     Node 70, Type 0, BuildingBlock: QUQFOY_clean_sbu_1, # of connection points: 4
#     Node 71, Type 0, BuildingBlock: QUQFOY_clean_sbu_1, # of connection points: 4
#     Node 72, Type 0, BuildingBlock: QUQFOY_clean_sbu_1, # of connection points: 4
#     Node 73, Type 0, BuildingBlock: QUQFOY_clean_sbu_1, # of connection points: 4
#     Node 74, Type 0, BuildingBlock: QUQFOY_clean_sbu_1, # of connection points: 4
#     Node 75, Type 0, BuildingBlock: QUQFOY_clean_sbu_1, # of connection points: 4
#     Node 76, Type 0, BuildingBlock: QUQFOY_clean_sbu_1, # of connection points: 4
#     Node 77, Type 0, BuildingBlock: QUQFOY_clean_sbu_1, # of connection points: 4
#     Node 78, Type 0, BuildingBlock: QUQFOY_clean_sbu_1, # of connection points: 4
#     Node 79, Type 0, BuildingBlock: QUQFOY_clean_sbu_1, # of connection points: 4
#     Node 80, Type 0, BuildingBlock: QUQFOY_clean_sbu_1, # of connection points: 4
#     Node 81, Type 0, BuildingBlock: QUQFOY_clean_sbu_1, # of connection points: 4
#     Node 82, Type 0, BuildingBlock: QUQFOY_clean_sbu_1, # of connection points: 4
#     Node 83, Type 0, BuildingBlock: QUQFOY_clean_sbu_1, # of connection points: 4
#     Node 84, Type 0, BuildingBlock: QUQFOY_clean_sbu_1, # of connection points: 4
#     Node 85, Type 0, BuildingBlock: QUQFOY_clean_sbu_1, # of connection points: 4
#     Node 86, Type 0, BuildingBlock: QUQFOY_clean_sbu_1, # of connection points: 4
#     Node 87, Type 0, BuildingBlock: QUQFOY_clean_sbu_1, # of connection points: 4
#     Node 88, Type 0, BuildingBlock: QUQFOY_clean_sbu_1, # of connection points: 4
#     Node 89, Type 0, BuildingBlock: QUQFOY_clean_sbu_1, # of connection points: 4
#     Node 90, Type 0, BuildingBlock: QUQFOY_clean_sbu_1, # of connection points: 4
#     Node 91, Type 0, BuildingBlock: QUQFOY_clean_sbu_1, # of connection points: 4
#     Node 92, Type 0, BuildingBlock: QUQFOY_clean_sbu_1, # of connection points: 4
#     Node 93, Type 0, BuildingBlock: QUQFOY_clean_sbu_1, # of connection points: 4
#     Node 94, Type 0, BuildingBlock: QUQFOY_clean_sbu_1, # of connection points: 4
#     Node 95, Type 0, BuildingBlock: QUQFOY_clean_sbu_1, # of connection points: 4
#     Edge 96, Type (0, 0), BuildingBlock: XIVTED_clean_linker_0, # of connection points: 2
#     Edge 97, Type (0, 0), BuildingBlock: XIVTED_clean_linker_0, # of connection points: 2
#     Edge 98, Type (0, 0), BuildingBlock: XIVTED_clean_linker_0, # of connection points: 2
#     Edge 99, Type (0, 0), BuildingBlock: XIVTED_clean_linker_0, # of connection points: 2
#     Edge 100, Type (0, 0), BuildingBlock: XIVTED_clean_linker_0, # of connection points: 2
#     Edge 101, Type (0, 0), BuildingBlock: XIVTED_clean_linker_0, # of connection points: 2
#     Edge 102, Type (0, 0), BuildingBlock: XIVTED_clean_linker_0, # of connection points: 2
#     Edge 103, Type (0, 0), BuildingBlock: XIVTED_clean_linker_0, # of connection points: 2
#     Edge 104, Type (0, 0), BuildingBlock: XIVTED_clean_linker_0, # of connection points: 2
#     Edge 105, Type (0, 0), BuildingBlock: XIVTED_clean_linker_0, # of connection points: 2
#     Edge 106, Type (0, 0), BuildingBlock: XIVTED_clean_linker_0, # of connection points: 2
#     Edge 107, Type (0, 0), BuildingBlock: XIVTED_clean_linker_0, # of connection points: 2
#     Edge 108, Type (0, 0), BuildingBlock: XIVTED_clean_linker_0, # of connection points: 2
#     Edge 109, Type (0, 0), BuildingBlock: XIVTED_clean_linker_0, # of connection points: 2
#     Edge 110, Type (0, 0), BuildingBlock: XIVTED_clean_linker_0, # of connection points: 2
#     Edge 111, Type (0, 0), BuildingBlock: XIVTED_clean_linker_0, # of connection points: 2
#     Edge 112, Type (0, 0), BuildingBlock: XIVTED_clean_linker_0, # of connection points: 2
#     Edge 113, Type (0, 0), BuildingBlock: XIVTED_clean_linker_0, # of connection points: 2
#     Edge 114, Type (0, 0), BuildingBlock: XIVTED_clean_linker_0, # of connection points: 2
#     Edge 115, Type (0, 0), BuildingBlock: XIVTED_clean_linker_0, # of connection points: 2
#     Edge 116, Type (0, 0), BuildingBlock: XIVTED_clean_linker_0, # of connection points: 2
#     Edge 117, Type (0, 0), BuildingBlock: XIVTED_clean_linker_0, # of connection points: 2
#     Edge 118, Type (0, 0), BuildingBlock: XIVTED_clean_linker_0, # of connection points: 2
#     Edge 119, Type (0, 0), BuildingBlock: XIVTED_clean_linker_0, # of connection points: 2
#     Edge 120, Type (0, 0), BuildingBlock: XIVTED_clean_linker_0, # of connection points: 2
#     Edge 121, Type (0, 0), BuildingBlock: XIVTED_clean_linker_0, # of connection points: 2
#     Edge 122, Type (0, 0), BuildingBlock: XIVTED_clean_linker_0, # of connection points: 2
#     Edge 123, Type (0, 0), BuildingBlock: XIVTED_clean_linker_0, # of connection points: 2
#     Edge 124, Type (0, 0), BuildingBlock: XIVTED_clean_linker_0, # of connection points: 2
#     Edge 125, Type (0, 0), BuildingBlock: XIVTED_clean_linker_0, # of connection points: 2
#     Edge 126, Type (0, 0), BuildingBlock: XIVTED_clean_linker_0, # of connection points: 2
#     Edge 127, Type (0, 0), BuildingBlock: XIVTED_clean_linker_0, # of connection points: 2
#     Edge 128, Type (0, 0), BuildingBlock: XIVTED_clean_linker_0, # of connection points: 2
#     Edge 129, Type (0, 0), BuildingBlock: XIVTED_clean_linker_0, # of connection points: 2
#     Edge 130, Type (0, 0), BuildingBlock: XIVTED_clean_linker_0, # of connection points: 2
#     Edge 131, Type (0, 0), BuildingBlock: XIVTED_clean_linker_0, # of connection points: 2
#     Edge 132, Type (0, 0), BuildingBlock: XIVTED_clean_linker_0, # of connection points: 2
#     Edge 133, Type (0, 0), BuildingBlock: XIVTED_clean_linker_0, # of connection points: 2
#     Edge 134, Type (0, 0), BuildingBlock: XIVTED_clean_linker_0, # of connection points: 2
#     Edge 135, Type (0, 0), BuildingBlock: XIVTED_clean_linker_0, # of connection points: 2
#     Edge 136, Type (0, 0), BuildingBlock: XIVTED_clean_linker_0, # of connection points: 2
#     Edge 137, Type (0, 0), BuildingBlock: XIVTED_clean_linker_0, # of connection points: 2
#     Edge 138, Type (0, 0), BuildingBlock: XIVTED_clean_linker_0, # of connection points: 2
#     Edge 139, Type (0, 0), BuildingBlock: XIVTED_clean_linker_0, # of connection points: 2
#     Edge 140, Type (0, 0), BuildingBlock: XIVTED_clean_linker_0, # of connection points: 2
#     Edge 141, Type (0, 0), BuildingBlock: XIVTED_clean_linker_0, # of connection points: 2
#     Edge 142, Type (0, 0), BuildingBlock: XIVTED_clean_linker_0, # of connection points: 2
#     Edge 143, Type (0, 0), BuildingBlock: XIVTED_clean_linker_0, # of connection points: 2
#     Edge 144, Type (0, 0), BuildingBlock: XIVTED_clean_linker_0, # of connection points: 2
#     Edge 145, Type (0, 0), BuildingBlock: XIVTED_clean_linker_0, # of connection points: 2
#     Edge 146, Type (0, 0), BuildingBlock: XIVTED_clean_linker_0, # of connection points: 2
#     Edge 147, Type (0, 0), BuildingBlock: XIVTED_clean_linker_0, # of connection points: 2
#     Edge 148, Type (0, 0), BuildingBlock: XIVTED_clean_linker_0, # of connection points: 2
#     Edge 149, Type (0, 0), BuildingBlock: XIVTED_clean_linker_0, # of connection points: 2
#     Edge 150, Type (0, 0), BuildingBlock: XIVTED_clean_linker_0, # of connection points: 2
#     Edge 151, Type (0, 0), BuildingBlock: XIVTED_clean_linker_0, # of connection points: 2
#     Edge 152, Type (0, 0), BuildingBlock: XIVTED_clean_linker_0, # of connection points: 2
#     Edge 153, Type (0, 0), BuildingBlock: XIVTED_clean_linker_0, # of connection points: 2
#     Edge 154, Type (0, 0), BuildingBlock: XIVTED_clean_linker_0, # of connection points: 2
#     Edge 155, Type (0, 0), BuildingBlock: XIVTED_clean_linker_0, # of connection points: 2
#     Edge 156, Type (0, 0), BuildingBlock: XIVTED_clean_linker_0, # of connection points: 2
#     Edge 157, Type (0, 0), BuildingBlock: XIVTED_clean_linker_0, # of connection points: 2
#     Edge 158, Type (0, 0), BuildingBlock: XIVTED_clean_linker_0, # of connection points: 2
#     Edge 159, Type (0, 0), BuildingBlock: XIVTED_clean_linker_0, # of connection points: 2
#     Edge 160, Type (0, 0), BuildingBlock: XIVTED_clean_linker_0, # of connection points: 2
#     Edge 161, Type (0, 0), BuildingBlock: XIVTED_clean_linker_0, # of connection points: 2
#     Edge 162, Type (0, 0), BuildingBlock: XIVTED_clean_linker_0, # of connection points: 2
#     Edge 163, Type (0, 0), BuildingBlock: XIVTED_clean_linker_0, # of connection points: 2
#     Edge 164, Type (0, 0), BuildingBlock: XIVTED_clean_linker_0, # of connection points: 2
#     Edge 165, Type (0, 0), BuildingBlock: XIVTED_clean_linker_0, # of connection points: 2
#     Edge 166, Type (0, 0), BuildingBlock: XIVTED_clean_linker_0, # of connection points: 2
#     Edge 167, Type (0, 0), BuildingBlock: XIVTED_clean_linker_0, # of connection points: 2
#     Edge 168, Type (0, 0), BuildingBlock: XIVTED_clean_linker_0, # of connection points: 2
#     Edge 169, Type (0, 0), BuildingBlock: XIVTED_clean_linker_0, # of connection points: 2
#     Edge 170, Type (0, 0), BuildingBlock: XIVTED_clean_linker_0, # of connection points: 2
#     Edge 171, Type (0, 0), BuildingBlock: XIVTED_clean_linker_0, # of connection points: 2
#     Edge 172, Type (0, 0), BuildingBlock: XIVTED_clean_linker_0, # of connection points: 2
#     Edge 173, Type (0, 0), BuildingBlock: XIVTED_clean_linker_0, # of connection points: 2
#     Edge 174, Type (0, 0), BuildingBlock: XIVTED_clean_linker_0, # of connection points: 2
#     Edge 175, Type (0, 0), BuildingBlock: XIVTED_clean_linker_0, # of connection points: 2
#     Edge 176, Type (0, 0), BuildingBlock: XIVTED_clean_linker_0, # of connection points: 2
#     Edge 177, Type (0, 0), BuildingBlock: XIVTED_clean_linker_0, # of connection points: 2
#     Edge 178, Type (0, 0), BuildingBlock: XIVTED_clean_linker_0, # of connection points: 2
#     Edge 179, Type (0, 0), BuildingBlock: XIVTED_clean_linker_0, # of connection points: 2
#     Edge 180, Type (0, 0), BuildingBlock: XIVTED_clean_linker_0, # of connection points: 2
#     Edge 181, Type (0, 0), BuildingBlock: XIVTED_clean_linker_0, # of connection points: 2
#     Edge 182, Type (0, 0), BuildingBlock: XIVTED_clean_linker_0, # of connection points: 2
#     Edge 183, Type (0, 0), BuildingBlock: XIVTED_clean_linker_0, # of connection points: 2
#     Edge 184, Type (0, 0), BuildingBlock: XIVTED_clean_linker_0, # of connection points: 2
#     Edge 185, Type (0, 0), BuildingBlock: XIVTED_clean_linker_0, # of connection points: 2
#     Edge 186, Type (0, 0), BuildingBlock: XIVTED_clean_linker_0, # of connection points: 2
#     Edge 187, Type (0, 0), BuildingBlock: XIVTED_clean_linker_0, # of connection points: 2
#     Edge 188, Type (0, 0), BuildingBlock: XIVTED_clean_linker_0, # of connection points: 2
#     Edge 189, Type (0, 0), BuildingBlock: XIVTED_clean_linker_0, # of connection points: 2
#     Edge 190, Type (0, 0), BuildingBlock: XIVTED_clean_linker_0, # of connection points: 2
#     Edge 191, Type (0, 0), BuildingBlock: XIVTED_clean_linker_0, # of connection points: 2
#     Edge 192, Type (0, 0), BuildingBlock: XIVTED_clean_linker_0, # of connection points: 2
#     Edge 193, Type (0, 0), BuildingBlock: XIVTED_clean_linker_0, # of connection points: 2
#     Edge 194, Type (0, 0), BuildingBlock: XIVTED_clean_linker_0, # of connection points: 2
#     Edge 195, Type (0, 0), BuildingBlock: XIVTED_clean_linker_0, # of connection points: 2
#     Edge 196, Type (0, 0), BuildingBlock: XIVTED_clean_linker_0, # of connection points: 2
#     Edge 197, Type (0, 0), BuildingBlock: XIVTED_clean_linker_0, # of connection points: 2
#     Edge 198, Type (0, 0), BuildingBlock: XIVTED_clean_linker_0, # of connection points: 2
#     Edge 199, Type (0, 0), BuildingBlock: XIVTED_clean_linker_0, # of connection points: 2
#     Edge 200, Type (0, 0), BuildingBlock: XIVTED_clean_linker_0, # of connection points: 2
#     Edge 201, Type (0, 0), BuildingBlock: XIVTED_clean_linker_0, # of connection points: 2
#     Edge 202, Type (0, 0), BuildingBlock: XIVTED_clean_linker_0, # of connection points: 2
#     Edge 203, Type (0, 0), BuildingBlock: XIVTED_clean_linker_0, # of connection points: 2
#     Edge 204, Type (0, 0), BuildingBlock: XIVTED_clean_linker_0, # of connection points: 2
#     Edge 205, Type (0, 0), BuildingBlock: XIVTED_clean_linker_0, # of connection points: 2
#     Edge 206, Type (0, 0), BuildingBlock: XIVTED_clean_linker_0, # of connection points: 2
#     Edge 207, Type (0, 0), BuildingBlock: XIVTED_clean_linker_0, # of connection points: 2
#     Edge 208, Type (0, 0), BuildingBlock: XIVTED_clean_linker_0, # of connection points: 2
#     Edge 209, Type (0, 0), BuildingBlock: XIVTED_clean_linker_0, # of connection points: 2
#     Edge 210, Type (0, 0), BuildingBlock: XIVTED_clean_linker_0, # of connection points: 2
#     Edge 211, Type (0, 0), BuildingBlock: XIVTED_clean_linker_0, # of connection points: 2
#     Edge 212, Type (0, 0), BuildingBlock: XIVTED_clean_linker_0, # of connection points: 2
#     Edge 213, Type (0, 0), BuildingBlock: XIVTED_clean_linker_0, # of connection points: 2
#     Edge 214, Type (0, 0), BuildingBlock: XIVTED_clean_linker_0, # of connection points: 2
#     Edge 215, Type (0, 0), BuildingBlock: XIVTED_clean_linker_0, # of connection points: 2
#     Edge 216, Type (0, 0), BuildingBlock: XIVTED_clean_linker_0, # of connection points: 2
#     Edge 217, Type (0, 0), BuildingBlock: XIVTED_clean_linker_0, # of connection points: 2
#     Edge 218, Type (0, 0), BuildingBlock: XIVTED_clean_linker_0, # of connection points: 2
#     Edge 219, Type (0, 0), BuildingBlock: XIVTED_clean_linker_0, # of connection points: 2
#     Edge 220, Type (0, 0), BuildingBlock: XIVTED_clean_linker_0, # of connection points: 2
#     Edge 221, Type (0, 0), BuildingBlock: XIVTED_clean_linker_0, # of connection points: 2
#     Edge 222, Type (0, 0), BuildingBlock: XIVTED_clean_linker_0, # of connection points: 2
#     Edge 223, Type (0, 0), BuildingBlock: XIVTED_clean_linker_0, # of connection points: 2
#     Edge 224, Type (0, 0), BuildingBlock: XIVTED_clean_linker_0, # of connection points: 2
#     Edge 225, Type (0, 0), BuildingBlock: XIVTED_clean_linker_0, # of connection points: 2
#     Edge 226, Type (0, 0), BuildingBlock: XIVTED_clean_linker_0, # of connection points: 2
#     Edge 227, Type (0, 0), BuildingBlock: XIVTED_clean_linker_0, # of connection points: 2
#     Edge 228, Type (0, 0), BuildingBlock: XIVTED_clean_linker_0, # of connection points: 2
#     Edge 229, Type (0, 0), BuildingBlock: XIVTED_clean_linker_0, # of connection points: 2
#     Edge 230, Type (0, 0), BuildingBlock: XIVTED_clean_linker_0, # of connection points: 2
#     Edge 231, Type (0, 0), BuildingBlock: XIVTED_clean_linker_0, # of connection points: 2
#     Edge 232, Type (0, 0), BuildingBlock: XIVTED_clean_linker_0, # of connection points: 2
#     Edge 233, Type (0, 0), BuildingBlock: XIVTED_clean_linker_0, # of connection points: 2
#     Edge 234, Type (0, 0), BuildingBlock: XIVTED_clean_linker_0, # of connection points: 2
#     Edge 235, Type (0, 0), BuildingBlock: XIVTED_clean_linker_0, # of connection points: 2
#     Edge 236, Type (0, 0), BuildingBlock: XIVTED_clean_linker_0, # of connection points: 2
#     Edge 237, Type (0, 0), BuildingBlock: XIVTED_clean_linker_0, # of connection points: 2
#     Edge 238, Type (0, 0), BuildingBlock: XIVTED_clean_linker_0, # of connection points: 2
#     Edge 239, Type (0, 0), BuildingBlock: XIVTED_clean_linker_0, # of connection points: 2
#     Edge 240, Type (0, 0), BuildingBlock: XIVTED_clean_linker_0, # of connection points: 2
#     Edge 241, Type (0, 0), BuildingBlock: XIVTED_clean_linker_0, # of connection points: 2
#     Edge 242, Type (0, 0), BuildingBlock: XIVTED_clean_linker_0, # of connection points: 2
#     Edge 243, Type (0, 0), BuildingBlock: XIVTED_clean_linker_0, # of connection points: 2
#     Edge 244, Type (0, 0), BuildingBlock: XIVTED_clean_linker_0, # of connection points: 2
#     Edge 245, Type (0, 0), BuildingBlock: XIVTED_clean_linker_0, # of connection points: 2
#     Edge 246, Type (0, 0), BuildingBlock: XIVTED_clean_linker_0, # of connection points: 2
#     Edge 247, Type (0, 0), BuildingBlock: XIVTED_clean_linker_0, # of connection points: 2
#     Edge 248, Type (0, 0), BuildingBlock: XIVTED_clean_linker_0, # of connection points: 2
#     Edge 249, Type (0, 0), BuildingBlock: XIVTED_clean_linker_0, # of connection points: 2
#     Edge 250, Type (0, 0), BuildingBlock: XIVTED_clean_linker_0, # of connection points: 2
#     Edge 251, Type (0, 0), BuildingBlock: XIVTED_clean_linker_0, # of connection points: 2
#     Edge 252, Type (0, 0), BuildingBlock: XIVTED_clean_linker_0, # of connection points: 2
#     Edge 253, Type (0, 0), BuildingBlock: XIVTED_clean_linker_0, # of connection points: 2
#     Edge 254, Type (0, 0), BuildingBlock: XIVTED_clean_linker_0, # of connection points: 2
#     Edge 255, Type (0, 0), BuildingBlock: XIVTED_clean_linker_0, # of connection points: 2
#     Edge 256, Type (0, 0), BuildingBlock: XIVTED_clean_linker_0, # of connection points: 2
#     Edge 257, Type (0, 0), BuildingBlock: XIVTED_clean_linker_0, # of connection points: 2
#     Edge 258, Type (0, 0), BuildingBlock: XIVTED_clean_linker_0, # of connection points: 2
#     Edge 259, Type (0, 0), BuildingBlock: XIVTED_clean_linker_0, # of connection points: 2
#     Edge 260, Type (0, 0), BuildingBlock: XIVTED_clean_linker_0, # of connection points: 2
#     Edge 261, Type (0, 0), BuildingBlock: XIVTED_clean_linker_0, # of connection points: 2
#     Edge 262, Type (0, 0), BuildingBlock: XIVTED_clean_linker_0, # of connection points: 2
#     Edge 263, Type (0, 0), BuildingBlock: XIVTED_clean_linker_0, # of connection points: 2
#     Edge 264, Type (0, 0), BuildingBlock: XIVTED_clean_linker_0, # of connection points: 2
#     Edge 265, Type (0, 0), BuildingBlock: XIVTED_clean_linker_0, # of connection points: 2
#     Edge 266, Type (0, 0), BuildingBlock: XIVTED_clean_linker_0, # of connection points: 2
#     Edge 267, Type (0, 0), BuildingBlock: XIVTED_clean_linker_0, # of connection points: 2
#     Edge 268, Type (0, 0), BuildingBlock: XIVTED_clean_linker_0, # of connection points: 2
#     Edge 269, Type (0, 0), BuildingBlock: XIVTED_clean_linker_0, # of connection points: 2
#     Edge 270, Type (0, 0), BuildingBlock: XIVTED_clean_linker_0, # of connection points: 2
#     Edge 271, Type (0, 0), BuildingBlock: XIVTED_clean_linker_0, # of connection points: 2
#     Edge 272, Type (0, 0), BuildingBlock: XIVTED_clean_linker_0, # of connection points: 2
#     Edge 273, Type (0, 0), BuildingBlock: XIVTED_clean_linker_0, # of connection points: 2
#     Edge 274, Type (0, 0), BuildingBlock: XIVTED_clean_linker_0, # of connection points: 2
#     Edge 275, Type (0, 0), BuildingBlock: XIVTED_clean_linker_0, # of connection points: 2
#     Edge 276, Type (0, 0), BuildingBlock: XIVTED_clean_linker_0, # of connection points: 2
#     Edge 277, Type (0, 0), BuildingBlock: XIVTED_clean_linker_0, # of connection points: 2
#     Edge 278, Type (0, 0), BuildingBlock: XIVTED_clean_linker_0, # of connection points: 2
#     Edge 279, Type (0, 0), BuildingBlock: XIVTED_clean_linker_0, # of connection points: 2
#     Edge 280, Type (0, 0), BuildingBlock: XIVTED_clean_linker_0, # of connection points: 2
#     Edge 281, Type (0, 0), BuildingBlock: XIVTED_clean_linker_0, # of connection points: 2
#     Edge 282, Type (0, 0), BuildingBlock: XIVTED_clean_linker_0, # of connection points: 2
#     Edge 283, Type (0, 0), BuildingBlock: XIVTED_clean_linker_0, # of connection points: 2
#     Edge 284, Type (0, 0), BuildingBlock: XIVTED_clean_linker_0, # of connection points: 2
#     Edge 285, Type (0, 0), BuildingBlock: XIVTED_clean_linker_0, # of connection points: 2
#     Edge 286, Type (0, 0), BuildingBlock: XIVTED_clean_linker_0, # of connection points: 2
#     Edge 287, Type (0, 0), BuildingBlock: XIVTED_clean_linker_0, # of connection points: 2
# Relax obj value: 0.259
# Max RMSD: 0.178
# Mean RMSD: 0.174
data_MOF--net-wse--node1-QUQFOY_clean_sbu_1--edge1-XIVTED_clean_linker_0
_symmetry_space_group_name_H-M    P1
_symmetry_Int_Tables_number       1
_symmetry_cell_setting            triclinic
loop_
_symmetry_equiv_pos_as_xyz
'x, y, z'
_cell_length_a     106.65369
_cell_length_b     106.64246
_cell_length_c     106.64529
_cell_angle_alpha  90.013548
_cell_angle_beta   89.98773
_cell_angle_gamma 90.001844
loop_
_atom_site_label
_atom_site_type_symbol
_atom_site_fract_x
_atom_site_fract_y
_atom_site_fract_z
_atom_type_partial_charge
O0 O 0.05434 0.18345 0.42879 0.0
Cd1 Cd 0.07337 0.18565 0.43229 0.0
Cd2 Cd 0.07134 0.16016 0.42911 0.0
O3 O 0.05358 0.1637 0.4227 0.0
O4 O 0.07462 0.20404 0.43532 0.0
O5 O 0.08364 0.19484 0.41911 0.0
C6 C 0.08124 0.20495 0.4253 0.0
C7 C 0.08636 0.14946 0.41767 0.0
C8 C 0.04821 0.17417 0.42445 0.0
C9 C 0.07882 0.16877 0.45437 0.0
O10 O 0.0739 0.15983 0.44823 0.0
O11 O 0.08062 0.17934 0.44917 0.0
O12 O 0.07701 0.14365 0.42272 0.0
O13 O 0.08674 0.16156 0.41853 0.0
O14 O 0.84734 0.06907 0.4453 0.0
Cd15 Cd 0.84736 0.06819 0.42609 0.0
Cd16 Cd 0.82012 0.0698 0.42908 0.0
O17 O 0.8278 0.07583 0.44594 0.0
O18 O 0.86312 0.07593 0.41998 0.0
O19 O 0.84429 0.08439 0.41725 0.0
C20 C 0.85635 0.08521 0.41613 0.0
C21 C 0.7984 0.07402 0.42901 0.0
C22 C 0.83824 0.07381 0.45132 0.0
C23 C 0.83337 0.04622 0.41755 0.0
O24 O 0.82383 0.05218 0.42154 0.0
O25 O 0.8442 0.05112 0.41795 0.0
O26 O 0.80339 0.06578 0.43619 0.0
O27 O 0.80572 0.08 0.42146 0.0
O28 O 0.94867 0.82155 0.42477 0.0
Cd29 Cd 0.93071 0.81734 0.43109 0.0
Cd30 Cd 0.93172 0.84464 0.42831 0.0
O31 O 0.94922 0.84188 0.42093 0.0
O32 O 0.93457 0.80045 0.43789 0.0
O33 O 0.92128 0.80304 0.42236 0.0
C34 C 0.92694 0.79556 0.42998 0.0
C35 C 0.91552 0.8544 0.41771 0.0
C36 C 0.95452 0.83123 0.42096 0.0
C37 C 0.92515 0.83497 0.45327 0.0
O38 O 0.92984 0.84424 0.44748 0.0
O39 O 0.92366 0.82449 0.44778 0.0
O40 O 0.92466 0.86079 0.42241 0.0
O41 O 0.916 0.84229 0.41842 0.0
O42 O 0.16206 0.93372 0.44747 0.0
Cd43 Cd 0.15883 0.93448 0.42847 0.0
Cd44 Cd 0.1853 0.93424 0.4267 0.0
O45 O 0.18254 0.93118 0.44574 0.0
O46 O 0.14242 0.92646 0.42493 0.0
O47 O 0.16065 0.91852 0.41878 0.0
C48 C 0.14857 0.91755 0.41949 0.0
C49 C 0.20469 0.92675 0.41951 0.0
C50 C 0.1727 0.93175 0.45244 0.0
C51 C 0.16992 0.95679 0.41675 0.0
O52 O 0.18029 0.9512 0.41861 0.0
O53 O 0.15966 0.95169 0.41996 0.0
O54 O 0.20378 0.93675 0.42614 0.0
O55 O 0.19455 0.92073 0.41685 0.0
O56 O 0.04949 0.82168 0.5773 0.0
Cd57 Cd 0.06783 0.81843 0.57143 0.0
Cd58 Cd 0.06583 0.8451 0.57432 0.0
O59 O 0.04847 0.84186 0.58181 0.0
O60 O 0.06528 0.80145 0.56424 0.0
O61 O 0.07794 0.80466 0.58021 0.0
C62 C 0.07312 0.797 0.57219 0.0
C63 C 0.08265 0.85366 0.58492 0.0
C64 C 0.04338 0.83111 0.58134 0.0
C65 C 0.07281 0.83637 0.54943 0.0
O66 O 0.06739 0.84529 0.55513 0.0
O67 O 0.07494 0.82606 0.55501 0.0
O68 O 0.07359 0.86065 0.58092 0.0
O69 O 0.08167 0.84163 0.58362 0.0
O70 O 0.16483 0.06573 0.55175 0.0
Cd71 Cd 0.16128 0.06399 0.57067 0.0
Cd72 Cd 0.1873 0.06081 0.57201 0.0
O73 O 0.18508 0.06158 0.55272 0.0
O74 O 0.14472 0.07188 0.57382 0.0
O75 O 0.16255 0.07944 0.58135 0.0
C76 C 0.15053 0.08042 0.58012 0.0
C77 C 0.20641 0.06911 0.57899 0.0
C78 C 0.17532 0.06407 0.54635 0.0
C79 C 0.17024 0.04044 0.58258 0.0
O80 O 0.18113 0.04515 0.58153 0.0
O81 O 0.16073 0.04622 0.57836 0.0
O82 O 0.2057 0.05826 0.5738 0.0
O83 O 0.1962 0.07543 0.5804 0.0
O84 O 0.95494 0.17811 0.58447 0.0
Cd85 Cd 0.93797 0.1844 0.57718 0.0
Cd86 Cd 0.93398 0.1586 0.57705 0.0
O87 O 0.95178 0.15766 0.58422 0.0
O88 O 0.94018 0.2029 0.5785 0.0
O89 O 0.92439 0.19289 0.58746 0.0
C90 C 0.93006 0.20331 0.58504 0.0
C91 C 0.91735 0.1483 0.58664 0.0
C92 C 0.95883 0.167 0.58642 0.0
C93 C 0.93227 0.17158 0.55233 0.0
O94 O 0.93228 0.16113 0.55803 0.0
O95 O 0.93413 0.18174 0.55828 0.0
O96 O 0.92594 0.14222 0.58067 0.0
O97 O 0.91848 0.16033 0.5876 0.0
O98 O 0.83495 0.93273 0.55574 0.0
Cd99 Cd 0.83835 0.93411 0.57471 0.0
Cd100 Cd 0.81257 0.93841 0.57569 0.0
O101 O 0.81481 0.93745 0.55643 0.0
O102 O 0.85489 0.92603 0.57756 0.0
O103 O 0.83708 0.91842 0.58506 0.0
C104 C 0.84907 0.91736 0.58366 0.0
C105 C 0.79353 0.93016 0.58293 0.0
C106 C 0.82459 0.93472 0.55019 0.0
C107 C 0.83017 0.95833 0.58606 0.0
O108 O 0.81907 0.95421 0.58477 0.0
O109 O 0.83947 0.95184 0.58241 0.0
O110 O 0.79417 0.94096 0.57763 0.0
O111 O 0.80378 0.92389 0.58433 0.0
O112 O 0.44058 0.06999 0.16394 0.0
Cd113 Cd 0.42159 0.06844 0.16073 0.0
Cd114 Cd 0.42102 0.06421 0.18681 0.0
O115 O 0.4402 0.06456 0.18392 0.0
O116 O 0.41881 0.07588 0.14388 0.0
O117 O 0.41124 0.08419 0.16134 0.0
C118 C 0.41271 0.08479 0.14932 0.0
C119 C 0.4151 0.07235 0.20636 0.0
C120 C 0.44627 0.06758 0.17411 0.0
C121 C 0.40995 0.04447 0.16947 0.0
O122 O 0.41119 0.04879 0.18051 0.0
O123 O 0.41388 0.05067 0.16009 0.0
O124 O 0.41985 0.06133 0.20524 0.0
O125 O 0.41341 0.07887 0.19631 0.0
O126 O 0.94656 0.43131 0.18464 0.0
Cd127 Cd 0.92747 0.43453 0.18662 0.0
Cd128 Cd 0.9294 0.43084 0.16149 0.0
O129 O 0.94734 0.42492 0.165 0.0
O130 O 0.92577 0.43732 0.205 0.0
O131 O 0.91724 0.42106 0.19542 0.0
C132 C 0.91933 0.42716 0.20565 0.0
C133 C 0.91444 0.41839 0.1519 0.0
C134 C 0.95273 0.42691 0.17542 0.0
C135 C 0.9216 0.45623 0.16942 0.0
O136 O 0.92638 0.4499 0.16054 0.0
O137 O 0.92009 0.4513 0.18016 0.0
O138 O 0.92339 0.42347 0.14552 0.0
O139 O 0.91438 0.41991 0.16394 0.0
O140 O 0.55209 0.93259 0.15394 0.0
Cd141 Cd 0.57116 0.93442 0.15201 0.0
Cd142 Cd 0.57045 0.93569 0.17981 0.0
O143 O 0.55252 0.93015 0.17452 0.0
O144 O 0.57612 0.92646 0.13596 0.0
O145 O 0.58165 0.91911 0.15463 0.0
C146 C 0.58171 0.91798 0.14255 0.0
C147 C 0.57319 0.9338 0.20169 0.0
C148 C 0.54657 0.93011 0.16419 0.0
C149 C 0.58091 0.95758 0.16314 0.0
O150 O 0.57841 0.95236 0.17357 0.0
O151 O 0.57867 0.95202 0.15287 0.0
O152 O 0.566 0.94205 0.19673 0.0
O153 O 0.57897 0.92625 0.19422 0.0
O154 O 0.04616 0.58524 0.18004 0.0
Cd155 Cd 0.06293 0.5777 0.18654 0.0
Cd156 Cd 0.06748 0.57786 0.16056 0.0
O157 O 0.04968 0.58502 0.15965 0.0
O158 O 0.06041 0.57871 0.20503 0.0
O159 O 0.07646 0.58766 0.19545 0.0
C160 C 0.07062 0.58509 0.20574 0.0
C161 C 0.08368 0.58731 0.14945 0.0
C162 C 0.04249 0.58724 0.16886 0.0
C163 C 0.06891 0.55302 0.17346 0.0
O164 O 0.06925 0.55884 0.16309 0.0
O165 O 0.06672 0.55883 0.18364 0.0
O166 O 0.07491 0.58119 0.14383 0.0
O167 O 0.08304 0.58846 0.1615 0.0
O168 O 0.44682 0.93019 0.84638 0.0
Cd169 Cd 0.42768 0.93142 0.84805 0.0
Cd170 Cd 0.42883 0.93173 0.82021 0.0
O171 O 0.44659 0.92622 0.82604 0.0
O172 O 0.42277 0.92347 0.86414 0.0
O173 O 0.41798 0.91557 0.84549 0.0
C174 C 0.41782 0.91457 0.85758 0.0
C175 C 0.42671 0.92959 0.79827 0.0
C176 C 0.45246 0.927 0.83639 0.0
C177 C 0.41782 0.95405 0.83601 0.0
O178 O 0.42082 0.94856 0.82585 0.0
O179 O 0.41962 0.94879 0.84652 0.0
O180 O 0.43392 0.93776 0.80335 0.0
O181 O 0.42057 0.92224 0.80566 0.0
O182 O 0.04942 0.42237 0.8227 0.0
Cd183 Cd 0.06744 0.42891 0.81909 0.0
Cd184 Cd 0.06562 0.42672 0.84626 0.0
O185 O 0.04833 0.41894 0.8431 0.0
O186 O 0.06437 0.43547 0.80195 0.0
O187 O 0.07771 0.42014 0.80543 0.0
C188 C 0.07243 0.42769 0.79759 0.0
C189 C 0.08223 0.41659 0.85583 0.0
C190 C 0.04335 0.41867 0.83229 0.0
C191 C 0.07211 0.4515 0.83652 0.0
O192 O 0.06708 0.44591 0.84573 0.0
O193 O 0.07404 0.44576 0.82626 0.0
O194 O 0.07296 0.4209 0.86233 0.0
O195 O 0.08161 0.41733 0.84373 0.0
O196 O 0.55273 0.06936 0.83998 0.0
Cd197 Cd 0.57158 0.0677 0.84375 0.0
Cd198 Cd 0.5731 0.06297 0.8168 0.0
O199 O 0.55403 0.06513 0.81973 0.0
O200 O 0.5744 0.07594 0.8602 0.0
O201 O 0.5821 0.08323 0.84232 0.0
C202 C 0.58063 0.08447 0.8543 0.0
C203 C 0.57852 0.06601 0.79559 0.0
C204 C 0.54754 0.06777 0.82938 0.0
C205 C 0.58332 0.04366 0.83571 0.0
O206 O 0.58225 0.04779 0.82458 0.0
O207 O 0.5792 0.04995 0.84495 0.0
O208 O 0.57245 0.05635 0.79941 0.0
O209 O 0.58168 0.07425 0.80386 0.0
O210 O 0.95099 0.57551 0.82371 0.0
Cd211 Cd 0.9336 0.56828 0.81862 0.0
Cd212 Cd 0.93404 0.56914 0.84608 0.0
O213 O 0.95122 0.57752 0.84431 0.0
O214 O 0.93865 0.56267 0.80161 0.0
O215 O 0.92395 0.57684 0.80435 0.0
C216 C 0.93052 0.57008 0.79677 0.0
C217 C 0.91677 0.57855 0.85524 0.0
C218 C 0.95656 0.57875 0.83376 0.0
C219 C 0.92902 0.54464 0.83465 0.0
O220 O 0.93322 0.54996 0.84443 0.0
O221 O 0.92744 0.5508 0.82458 0.0
O222 O 0.92573 0.574 0.86201 0.0
O223 O 0.91801 0.57834 0.84317 0.0
O224 O 0.15264 0.44667 0.07016 0.0
Cd225 Cd 0.15213 0.42747 0.06893 0.0
Cd226 Cd 0.17908 0.42945 0.0707 0.0
O227 O 0.1723 0.44674 0.07656 0.0
O228 O 0.13637 0.42153 0.0768 0.0
O229 O 0.15527 0.41832 0.08494 0.0
C230 C 0.14321 0.41741 0.08592 0.0
C231 C 0.20049 0.42751 0.07581 0.0
C232 C 0.16199 0.45243 0.07473 0.0
C233 C 0.16587 0.41877 0.04683 0.0
O234 O 0.1755 0.42238 0.0529 0.0
O235 O 0.15504 0.41948 0.0517 0.0
O236 O 0.19647 0.43526 0.06755 0.0
O237 O 0.19233 0.42051 0.08135 0.0
O238 O 0.16488 0.55394 0.93134 0.0
Cd239 Cd 0.16113 0.57284 0.93276 0.0
Cd240 Cd 0.1862 0.57367 0.94004 0.0
O241 O 0.18416 0.55438 0.93886 0.0
O242 O 0.14475 0.57509 0.92415 0.0
O243 O 0.16243 0.58339 0.91714 0.0
C244 C 0.15053 0.58153 0.91573 0.0
C245 C 0.20532 0.58119 0.93239 0.0
C246 C 0.17482 0.54827 0.93466 0.0
C247 C 0.16683 0.58392 0.95801 0.0
O248 O 0.17835 0.58281 0.95522 0.0
O249 O 0.1584 0.58021 0.95045 0.0
O250 O 0.20442 0.57607 0.94327 0.0
O251 O 0.19526 0.58233 0.92576 0.0
O252 O 0.44648 0.1608 0.92913 0.0
Cd253 Cd 0.42759 0.15724 0.93076 0.0
Cd254 Cd 0.42693 0.1834 0.93814 0.0
O255 O 0.44597 0.18038 0.93585 0.0
O256 O 0.42503 0.14109 0.92182 0.0
O257 O 0.41689 0.15904 0.91534 0.0
C258 C 0.41863 0.14718 0.91357 0.0
C259 C 0.42159 0.20462 0.9353 0.0
C260 C 0.45208 0.17092 0.93195 0.0
C261 C 0.41656 0.16339 0.95589 0.0
O262 O 0.41779 0.17487 0.95295 0.0
O263 O 0.42027 0.15478 0.94853 0.0
O264 O 0.42746 0.20068 0.94505 0.0
O265 O 0.41848 0.19644 0.92695 0.0
O266 O 0.83457 0.44261 0.93253 0.0
Cd267 Cd 0.83784 0.42364 0.93398 0.0
Cd268 Cd 0.81197 0.42273 0.93792 0.0
O269 O 0.81437 0.44198 0.93696 0.0
O270 O 0.85423 0.42055 0.92572 0.0
O271 O 0.8362 0.41335 0.91831 0.0
C272 C 0.8482 0.4146 0.91709 0.0
C273 C 0.79275 0.41596 0.92971 0.0
C274 C 0.82419 0.44818 0.93432 0.0
C275 C 0.82937 0.41201 0.95789 0.0
O276 O 0.81834 0.41337 0.95361 0.0
O277 O 0.83877 0.4158 0.95164 0.0
O278 O 0.79356 0.4211 0.94058 0.0
O279 O 0.80294 0.41438 0.92338 0.0
O280 O 0.55807 0.84493 0.92949 0.0
Cd281 Cd 0.57725 0.84475 0.93126 0.0
Cd282 Cd 0.57407 0.81767 0.92958 0.0
O283 O 0.55748 0.82532 0.92294 0.0
O284 O 0.58367 0.86081 0.92444 0.0
O285 O 0.58698 0.84232 0.91545 0.0
C286 C 0.58809 0.8544 0.91515 0.0
C287 C 0.57444 0.7961 0.92464 0.0
C288 C 0.55214 0.83583 0.92465 0.0
C289 C 0.58428 0.83065 0.95378 0.0
O290 O 0.5804 0.82113 0.9477 0.0
O291 O 0.58451 0.8414 0.9487 0.0
O292 O 0.56693 0.80078 0.93278 0.0
O293 O 0.58223 0.80364 0.91928 0.0
O294 O 0.84378 0.55166 0.06803 0.0
Cd295 Cd 0.84361 0.57077 0.06555 0.0
Cd296 Cd 0.81655 0.5679 0.06757 0.0
O297 O 0.82399 0.5511 0.07402 0.0
O298 O 0.85957 0.57766 0.07212 0.0
O299 O 0.84101 0.5813 0.08082 0.0
C300 C 0.85307 0.58265 0.08104 0.0
C301 C 0.79513 0.56909 0.07282 0.0
C302 C 0.83454 0.54574 0.07263 0.0
C303 C 0.82928 0.57784 0.04316 0.0
O304 O 0.81976 0.57437 0.04945 0.0
O305 O 0.84017 0.57753 0.04795 0.0
O306 O 0.79943 0.56116 0.06487 0.0
O307 O 0.80298 0.57675 0.0779 0.0
O308 O 0.44582 0.84374 0.06971 0.0
Cd309 Cd 0.42666 0.84372 0.06768 0.0
Cd310 Cd 0.42997 0.81665 0.06896 0.0
O311 O 0.44668 0.82396 0.07574 0.0
O312 O 0.42031 0.85984 0.07444 0.0
O313 O 0.41658 0.84138 0.0833 0.0
C314 C 0.41558 0.85347 0.08359 0.0
C315 C 0.42864 0.79494 0.07312 0.0
C316 C 0.4519 0.83458 0.07426 0.0
C317 C 0.41997 0.83004 0.04486 0.0
O318 O 0.42386 0.82049 0.05087 0.0
O319 O 0.41963 0.84073 0.05007 0.0
O320 O 0.43664 0.79962 0.06546 0.0
O321 O 0.42111 0.80261 0.07866 0.0
O322 O 0.55177 0.15438 0.07043 0.0
Cd323 Cd 0.57093 0.15295 0.06937 0.0
Cd324 Cd 0.56961 0.18041 0.0691 0.0
O325 O 0.55186 0.17465 0.07467 0.0
O326 O 0.57584 0.1369 0.07735 0.0
O327 O 0.58034 0.15559 0.08535 0.0
C328 C 0.58054 0.14349 0.08636 0.0
C329 C 0.57237 0.20215 0.07223 0.0
C330 C 0.54605 0.16427 0.07375 0.0
C331 C 0.58051 0.16495 0.04661 0.0
O332 O 0.57724 0.1751 0.05198 0.0
O333 O 0.57913 0.15448 0.05208 0.0
O334 O 0.56482 0.19767 0.06401 0.0
O335 O 0.57851 0.19425 0.07902 0.0
O336 O 0.90557 0.82399 0.55133 0.0
Cd337 Cd 0.90418 0.82143 0.57054 0.0
Cd338 Cd 0.93038 0.81985 0.56825 0.0
O339 O 0.92588 0.82789 0.55127 0.0
O340 O 0.88789 0.82884 0.57568 0.0
O341 O 0.9063 0.83668 0.58132 0.0
C342 C 0.8942 0.8375 0.58132 0.0
C343 C 0.95121 0.82311 0.57468 0.0
C344 C 0.91539 0.82761 0.54564 0.0
C345 C 0.91474 0.79672 0.57572 0.0
O346 O 0.9248 0.8016 0.57162 0.0
O347 O 0.90502 0.80338 0.57738 0.0
O348 O 0.94838 0.81603 0.56536 0.0
O349 O 0.94217 0.82878 0.58038 0.0
O350 O 0.20004 0.92357 0.57953 0.0
Cd351 Cd 0.18363 0.93047 0.57168 0.0
Cd352 Cd 0.18097 0.90453 0.56871 0.0
O353 O 0.19848 0.90319 0.57645 0.0
O354 O 0.18777 0.94854 0.57329 0.0
O355 O 0.17101 0.94027 0.58216 0.0
C356 C 0.17794 0.94996 0.5801 0.0
C357 C 0.16388 0.89524 0.57838 0.0
C358 C 0.20458 0.91258 0.58043 0.0
C359 C 0.17956 0.91961 0.54538 0.0
O360 O 0.17988 0.90861 0.54991 0.0
O361 O 0.18055 0.92915 0.55248 0.0
O362 O 0.17182 0.88869 0.572 0.0
O363 O 0.16578 0.90718 0.57941 0.0
O364 O 0.09297 0.17388 0.55353 0.0
Cd365 Cd 0.09322 0.17524 0.57284 0.0
Cd366 Cd 0.06828 0.17339 0.57019 0.0
O367 O 0.07377 0.16631 0.55302 0.0
O368 O 0.10941 0.16825 0.57876 0.0
O369 O 0.09099 0.15923 0.58232 0.0
C370 C 0.10309 0.1589 0.58316 0.0
C371 C 0.04949 0.16578 0.57848 0.0
C372 C 0.08403 0.16881 0.5475 0.0
C373 C 0.07975 0.19825 0.57838 0.0
O374 O 0.07063 0.19236 0.57345 0.0
O375 O 0.09002 0.19264 0.58053 0.0
O376 O 0.04975 0.17244 0.56846 0.0
O377 O 0.05998 0.16305 0.58385 0.0
O378 O 0.80422 0.07188 0.56907 0.0
Cd379 Cd 0.82292 0.06744 0.56672 0.0
Cd380 Cd 0.82357 0.09282 0.56855 0.0
O381 O 0.80524 0.09178 0.57449 0.0
O382 O 0.82106 0.04893 0.56652 0.0
O383 O 0.83261 0.05875 0.58065 0.0
C384 C 0.82801 0.04843 0.57634 0.0
C385 C 0.83892 0.10256 0.58045 0.0
C386 C 0.7989 0.08187 0.57279 0.0
C387 C 0.8308 0.08158 0.54387 0.0
O388 O 0.8271 0.09142 0.54951 0.0
O389 O 0.83097 0.07111 0.54954 0.0
O390 O 0.83072 0.10899 0.5743 0.0
O391 O 0.83808 0.09046 0.58021 0.0
O392 O 0.90922 0.18134 0.45443 0.0
Cd393 Cd 0.90703 0.18289 0.43527 0.0
Cd394 Cd 0.93402 0.18289 0.4356 0.0
O395 O 0.92948 0.1771 0.45354 0.0
O396 O 0.89105 0.17483 0.43022 0.0
O397 O 0.9098 0.16754 0.42487 0.0
C398 C 0.89773 0.1664 0.42463 0.0
C399 C 0.95529 0.1797 0.43071 0.0
C400 C 0.91935 0.17804 0.45975 0.0
C401 C 0.91861 0.20597 0.42634 0.0
O402 O 0.92874 0.20041 0.42925 0.0
O403 O 0.90816 0.20044 0.42752 0.0
O404 O 0.95168 0.18771 0.43892 0.0
O405 O 0.9468 0.17298 0.42533 0.0
O406 O 0.7983 0.92741 0.4223 0.0
Cd407 Cd 0.81349 0.9357 0.43089 0.0
Cd408 Cd 0.82005 0.91034 0.43291 0.0
O409 O 0.80224 0.90746 0.42601 0.0
O410 O 0.80847 0.95354 0.42906 0.0
O411 O 0.82606 0.94615 0.42108 0.0
C412 C 0.81858 0.9555 0.42281 0.0
C413 C 0.83674 0.90022 0.4232 0.0
C414 C 0.79508 0.91596 0.42176 0.0
C415 C 0.81917 0.92504 0.45675 0.0
O416 O 0.82197 0.91466 0.45163 0.0
O417 O 0.81534 0.93421 0.45017 0.0
O418 O 0.82897 0.89423 0.43027 0.0
O419 O 0.83496 0.91209 0.42151 0.0
O420 O 0.09157 0.82501 0.45163 0.0
Cd421 Cd 0.0933 0.82199 0.43255 0.0
Cd422 Cd 0.06709 0.82043 0.43421 0.0
O423 O 0.0712 0.82857 0.45125 0.0
O424 O 0.10952 0.82954 0.42745 0.0
O425 O 0.09106 0.83695 0.42141 0.0
C426 C 0.10314 0.83798 0.42157 0.0
C427 C 0.04646 0.82376 0.42729 0.0
C428 C 0.08158 0.82859 0.45707 0.0
C429 C 0.08287 0.79719 0.42734 0.0
O430 O 0.07267 0.80216 0.43096 0.0
O431 O 0.09269 0.80379 0.42609 0.0
O432 O 0.04903 0.81666 0.43666 0.0
O433 O 0.05564 0.82942 0.42181 0.0
O434 O 0.20271 0.07533 0.41831 0.0
Cd435 Cd 0.18782 0.06684 0.42722 0.0
Cd436 Cd 0.1812 0.09203 0.42983 0.0
O437 O 0.19882 0.09518 0.42253 0.0
O438 O 0.19266 0.04905 0.42467 0.0
O439 O 0.17476 0.05676 0.4177 0.0
C440 C 0.18225 0.04732 0.41886 0.0
C441 C 0.16429 0.10229 0.42069 0.0
C442 C 0.20586 0.0868 0.41787 0.0
C443 C 0.18259 0.07681 0.45338 0.0
O444 O 0.17957 0.08724 0.44849 0.0
O445 O 0.1865 0.06784 0.44657 0.0
O446 O 0.1721 0.10811 0.42785 0.0
O447 O 0.16617 0.0905 0.41858 0.0
O448 O 0.55107 0.9105 0.82355 0.0
Cd449 Cd 0.57021 0.90922 0.8208 0.0
Cd450 Cd 0.56902 0.93485 0.822 0.0
O451 O 0.55112 0.93068 0.82813 0.0
O452 O 0.57605 0.89298 0.82771 0.0
O453 O 0.58124 0.91145 0.8358 0.0
C454 C 0.58177 0.89934 0.8363 0.0
C455 C 0.57749 0.95377 0.82919 0.0
C456 C 0.54535 0.92029 0.82724 0.0
C457 C 0.57672 0.92188 0.79741 0.0
O458 O 0.57348 0.93165 0.8034 0.0
O459 O 0.57692 0.91131 0.80285 0.0
O460 O 0.56857 0.95343 0.82112 0.0
O461 O 0.58156 0.9433 0.83367 0.0
O462 O 0.09294 0.54894 0.82348 0.0
Cd463 Cd 0.09492 0.56797 0.8203 0.0
Cd464 Cd 0.06853 0.56682 0.81995 0.0
O465 O 0.07269 0.5496 0.8277 0.0
O466 O 0.1114 0.57297 0.8274 0.0
O467 O 0.09317 0.57921 0.83524 0.0
C468 C 0.10528 0.57895 0.83596 0.0
C469 C 0.04807 0.57391 0.82393 0.0
C470 C 0.08299 0.54363 0.82733 0.0
C471 C 0.08353 0.57336 0.79599 0.0
O472 O 0.07348 0.57015 0.80151 0.0
O473 O 0.09372 0.57425 0.80208 0.0
O474 O 0.05035 0.56462 0.81664 0.0
O475 O 0.05743 0.57919 0.82946 0.0
O476 O 0.44923 0.08744 0.81969 0.0
Cd477 Cd 0.4303 0.09089 0.81745 0.0
Cd478 Cd 0.42908 0.0643 0.81591 0.0
O479 O 0.44806 0.06677 0.81871 0.0
O480 O 0.42693 0.10769 0.82475 0.0
O481 O 0.41952 0.09003 0.83283 0.0
C482 C 0.42069 0.10208 0.83348 0.0
C483 C 0.42155 0.04456 0.82212 0.0
C484 C 0.45447 0.07674 0.81996 0.0
C485 C 0.42002 0.08047 0.7938 0.0
O486 O 0.42161 0.0699 0.79904 0.0
O487 O 0.42289 0.09051 0.79952 0.0
O488 O 0.42859 0.04601 0.81247 0.0
O489 O 0.4188 0.05437 0.82863 0.0
O490 O 0.90685 0.44709 0.82302 0.0
Cd491 Cd 0.90373 0.42821 0.82099 0.0
Cd492 Cd 0.9306 0.42736 0.81734 0.0
O493 O 0.92753 0.44595 0.82231 0.0
O494 O 0.88746 0.42448 0.82924 0.0
O495 O 0.9057 0.41729 0.83617 0.0
C496 C 0.89368 0.41821 0.83751 0.0
C497 C 0.95132 0.42089 0.82109 0.0
C498 C 0.91753 0.45229 0.82381 0.0
C499 C 0.91245 0.41834 0.79657 0.0
O500 O 0.92348 0.42001 0.80077 0.0
O501 O 0.90295 0.42109 0.80317 0.0
O502 O 0.94845 0.42836 0.81209 0.0
O503 O 0.94237 0.41699 0.82824 0.0
O504 O 0.54453 0.08776 0.18104 0.0
Cd505 Cd 0.56344 0.0913 0.18349 0.0
Cd506 Cd 0.56526 0.06557 0.18432 0.0
O507 O 0.54623 0.06712 0.1813 0.0
O508 O 0.56758 0.10751 0.17538 0.0
O509 O 0.57461 0.08913 0.16858 0.0
C510 C 0.57395 0.10117 0.16725 0.0
C511 C 0.57446 0.04695 0.17725 0.0
C512 C 0.53955 0.07694 0.18037 0.0
C513 C 0.57332 0.08108 0.20712 0.0
O514 O 0.57192 0.07061 0.20165 0.0
O515 O 0.57059 0.0912 0.20148 0.0
O516 O 0.56705 0.04724 0.18673 0.0
O517 O 0.57653 0.05727 0.1713 0.0
O518 O 0.90813 0.55551 0.17359 0.0
Cd519 Cd 0.90847 0.57484 0.17522 0.0
Cd520 Cd 0.93315 0.57154 0.17337 0.0
O521 O 0.92731 0.55459 0.16604 0.0
O522 O 0.89249 0.58141 0.16837 0.0
O523 O 0.91103 0.58462 0.15946 0.0
C524 C 0.89897 0.58591 0.15918 0.0
C525 C 0.95198 0.57973 0.16579 0.0
C526 C 0.91692 0.5493 0.16847 0.0
C527 C 0.92201 0.57974 0.19828 0.0
O528 O 0.93096 0.57452 0.19239 0.0
O529 O 0.91184 0.58227 0.19266 0.0
O530 O 0.95162 0.56951 0.17216 0.0
O531 O 0.94156 0.58534 0.16332 0.0
O532 O 0.44821 0.91192 0.17551 0.0
Cd533 Cd 0.42909 0.90971 0.17805 0.0
Cd534 Cd 0.42967 0.93543 0.17813 0.0
O535 O 0.44743 0.93214 0.17118 0.0
O536 O 0.42434 0.89321 0.17089 0.0
O537 O 0.41806 0.91138 0.16295 0.0
C538 C 0.41832 0.89927 0.16232 0.0
C539 C 0.42042 0.9546 0.17274 0.0
C540 C 0.45356 0.92195 0.1719 0.0
C541 C 0.42287 0.92095 0.20212 0.0
O542 O 0.42618 0.93101 0.19667 0.0
O543 O 0.42223 0.91076 0.19603 0.0
O544 O 0.42973 0.95391 0.18033 0.0
O545 O 0.41645 0.94439 0.16764 0.0
O546 O 0.09205 0.45507 0.18285 0.0
Cd547 Cd 0.09402 0.43587 0.18444 0.0
Cd548 Cd 0.06715 0.4367 0.18528 0.0
O549 O 0.07172 0.4544 0.17889 0.0
O550 O 0.10984 0.43072 0.17612 0.0
O551 O 0.09095 0.42545 0.16914 0.0
C552 C 0.10301 0.42517 0.16779 0.0
C553 C 0.04576 0.43201 0.18263 0.0
C554 C 0.08194 0.46048 0.17961 0.0
C555 C 0.08305 0.42777 0.20811 0.0
O556 O 0.07282 0.43095 0.20289 0.0
O557 O 0.09329 0.42828 0.20209 0.0
O558 O 0.04963 0.44033 0.19039 0.0
O559 O 0.05405 0.42633 0.1759 0.0
O560 O 0.79611 0.57627 0.923 0.0
Cd561 Cd 0.81078 0.56727 0.93175 0.0
Cd562 Cd 0.81759 0.56446 0.90638 0.0
O563 O 0.80002 0.57192 0.90317 0.0
O564 O 0.80513 0.56916 0.94938 0.0
O565 O 0.82322 0.57665 0.94273 0.0
C566 C 0.81536 0.57503 0.95179 0.0
C567 C 0.835 0.57358 0.89697 0.0
C568 C 0.79299 0.57667 0.91152 0.0
C569 C 0.81595 0.54102 0.92161 0.0
O570 O 0.81895 0.54577 0.91111 0.0
O571 O 0.8122 0.54795 0.93055 0.0
O572 O 0.82726 0.56678 0.89064 0.0
O573 O 0.83273 0.57541 0.90874 0.0
O574 O 0.80342 0.42661 0.072 0.0
Cd575 Cd 0.82198 0.42956 0.06732 0.0
Cd576 Cd 0.8227 0.42833 0.09295 0.0
O577 O 0.80459 0.42177 0.09204 0.0
O578 O 0.81961 0.42988 0.04888 0.0
O579 O 0.83204 0.41616 0.05814 0.0
C580 C 0.82697 0.4204 0.04802 0.0
C581 C 0.8381 0.4173 0.10361 0.0
C582 C 0.79821 0.42299 0.08208 0.0
C583 C 0.82917 0.45295 0.08107 0.0
O584 O 0.82564 0.44746 0.09105 0.0
O585 O 0.82949 0.44704 0.07074 0.0
O586 O 0.82956 0.42349 0.10953 0.0
O587 O 0.83763 0.41701 0.09149 0.0
O588 O 0.55053 0.82448 0.09058 0.0
Cd589 Cd 0.56975 0.82169 0.09115 0.0
Cd590 Cd 0.56653 0.81963 0.06579 0.0
O591 O 0.54972 0.82806 0.07024 0.0
O592 O 0.57578 0.82958 0.10686 0.0
O593 O 0.5807 0.83658 0.0879 0.0
C594 C 0.5813 0.83784 0.09995 0.0
C595 C 0.57388 0.82304 0.04535 0.0
C596 C 0.54448 0.828 0.08093 0.0
C597 C 0.57383 0.79663 0.08134 0.0
O598 O 0.56924 0.8013 0.0714 0.0
O599 O 0.57629 0.80357 0.09068 0.0
O600 O 0.56421 0.81623 0.04764 0.0
O601 O 0.57936 0.8284 0.0547 0.0
O602 O 0.19327 0.57007 0.06815 0.0
Cd603 Cd 0.17409 0.5679 0.06593 0.0
Cd604 Cd 0.17575 0.57012 0.09094 0.0
O605 O 0.19365 0.57647 0.08779 0.0
O606 O 0.1724 0.56646 0.04743 0.0
O607 O 0.16429 0.58225 0.05814 0.0
C608 C 0.16619 0.57678 0.04752 0.0
C609 C 0.16081 0.58202 0.10126 0.0
C610 C 0.19927 0.57438 0.07751 0.0
C611 C 0.1677 0.54535 0.08144 0.0
O612 O 0.17275 0.55097 0.09065 0.0
O613 O 0.16608 0.55108 0.07113 0.0
O614 O 0.16973 0.57654 0.10733 0.0
O615 O 0.16071 0.58116 0.08916 0.0
O616 O 0.44711 0.1748 0.08857 0.0
Cd617 Cd 0.42789 0.17706 0.08907 0.0
Cd618 Cd 0.42981 0.17533 0.06386 0.0
O619 O 0.44714 0.16835 0.06896 0.0
O620 O 0.4219 0.1707 0.10551 0.0
O621 O 0.41744 0.16158 0.08735 0.0
C622 C 0.41674 0.16157 0.09947 0.0
C623 C 0.42138 0.16672 0.04554 0.0
C624 C 0.45286 0.17011 0.07925 0.0
C625 C 0.42235 0.20032 0.07552 0.0
O626 O 0.42649 0.19436 0.06605 0.0
O627 O 0.42093 0.19477 0.08596 0.0
O628 O 0.43119 0.17371 0.04534 0.0
O629 O 0.41615 0.16446 0.05621 0.0
O630 O 0.20125 0.41978 0.9275 0.0
Cd631 Cd 0.18638 0.4288 0.93593 0.0
Cd632 Cd 0.17949 0.43092 0.91054 0.0
O633 O 0.19702 0.4233 0.90757 0.0
O634 O 0.1915 0.42697 0.95374 0.0
O635 O 0.17359 0.41952 0.94658 0.0
C636 C 0.18117 0.42114 0.95587 0.0
C637 C 0.16227 0.42193 0.90059 0.0
C638 C 0.20424 0.41899 0.916 0.0
C639 C 0.18137 0.45479 0.92522 0.0
O640 O 0.17833 0.44974 0.91487 0.0
O641 O 0.18505 0.4481 0.93437 0.0
O642 O 0.17028 0.42864 0.89452 0.0
O643 O 0.16412 0.42015 0.91244 0.0
O644 O 0.55048 0.17946 0.91299 0.0
Cd645 Cd 0.56942 0.1813 0.90939 0.0
Cd646 Cd 0.57096 0.18354 0.93583 0.0
O647 O 0.55192 0.18091 0.9336 0.0
O648 O 0.57282 0.17325 0.89296 0.0
O649 O 0.58003 0.16589 0.91103 0.0
C650 C 0.57896 0.16474 0.899 0.0
C651 C 0.57846 0.17805 0.95578 0.0
C652 C 0.54536 0.17953 0.92375 0.0
C653 C 0.58015 0.20505 0.91894 0.0
O654 O 0.57861 0.20012 0.92966 0.0
O655 O 0.57708 0.19909 0.90909 0.0
O656 O 0.57156 0.18773 0.95395 0.0
O657 O 0.58108 0.17109 0.94625 0.0
O658 O 0.45433 0.82162 0.90822 0.0
Cd659 Cd 0.43532 0.81786 0.90764 0.0
Cd660 Cd 0.43815 0.81709 0.93326 0.0
O661 O 0.45479 0.82569 0.92849 0.0
O662 O 0.42873 0.82529 0.89191 0.0
O663 O 0.42382 0.83235 0.91085 0.0
C664 C 0.42303 0.83345 0.8988 0.0
C665 C 0.43075 0.82123 0.95353 0.0
C666 C 0.46012 0.82563 0.91784 0.0
C667 C 0.43168 0.7931 0.91872 0.0
O668 O 0.43565 0.79845 0.92859 0.0
O669 O 0.42962 0.79945 0.90887 0.0
O670 O 0.44055 0.81453 0.95152 0.0
O671 O 0.42518 0.82611 0.94398 0.0
O672 O 0.54111 0.67523 0.91519 0.0
Cd673 Cd 0.55622 0.68355 0.92403 0.0
Cd674 Cd 0.56398 0.65822 0.92473 0.0
O675 O 0.54611 0.65533 0.9179 0.0
O676 O 0.55069 0.70133 0.92374 0.0
O677 O 0.56851 0.69526 0.91524 0.0
C678 C 0.56087 0.70423 0.91799 0.0
C679 C 0.58099 0.64826 0.91541 0.0
C680 C 0.53841 0.66366 0.91426 0.0
C681 C 0.56267 0.6717 0.94924 0.0
O682 O 0.56594 0.66174 0.9436 0.0
O683 O 0.55826 0.68094 0.94315 0.0
O684 O 0.57288 0.64212 0.92192 0.0
O685 O 0.57921 0.66014 0.91379 0.0
O686 O 0.33761 0.56786 0.94239 0.0
Cd687 Cd 0.33998 0.56668 0.92327 0.0
Cd688 Cd 0.31382 0.56339 0.92344 0.0
O689 O 0.31735 0.5636 0.94251 0.0
O690 O 0.35652 0.57444 0.91971 0.0
O691 O 0.33851 0.58262 0.91336 0.0
C692 C 0.35058 0.58342 0.9142 0.0
C693 C 0.29404 0.57149 0.91823 0.0
C694 C 0.32748 0.56594 0.94834 0.0
C695 C 0.33025 0.5432 0.91165 0.0
O696 O 0.31942 0.54787 0.91338 0.0
O697 O 0.33999 0.54904 0.91525 0.0
O698 O 0.29537 0.56054 0.92304 0.0
O699 O 0.30401 0.57801 0.91612 0.0
O700 O 0.44979 0.32255 0.92045 0.0
Cd701 Cd 0.43175 0.31887 0.92693 0.0
Cd702 Cd 0.43322 0.34593 0.92414 0.0
O703 O 0.45058 0.34288 0.91657 0.0
O704 O 0.43503 0.30194 0.93395 0.0
O705 O 0.42161 0.30485 0.91858 0.0
C706 C 0.42696 0.29729 0.92635 0.0
C707 C 0.41659 0.35495 0.91357 0.0
C708 C 0.45574 0.33216 0.91659 0.0
C709 C 0.42681 0.33672 0.94912 0.0
O710 O 0.43168 0.34589 0.94334 0.0
O711 O 0.42505 0.32631 0.9436 0.0
O712 O 0.4257 0.36172 0.91783 0.0
O713 O 0.41738 0.34289 0.91468 0.0
O714 O 0.66266 0.43279 0.94334 0.0
Cd715 Cd 0.65974 0.43469 0.92434 0.0
Cd716 Cd 0.68563 0.43798 0.92382 0.0
O717 O 0.68292 0.43703 0.94302 0.0
O718 O 0.64334 0.42667 0.9207 0.0
O719 O 0.66147 0.41926 0.91373 0.0
C720 C 0.64943 0.41812 0.91468 0.0
C721 C 0.70473 0.42939 0.9172 0.0
C722 C 0.67298 0.43443 0.94906 0.0
C723 C 0.66892 0.45853 0.91314 0.0
O724 O 0.67981 0.45388 0.91449 0.0
O725 O 0.65931 0.45255 0.91683 0.0
O726 O 0.70411 0.44022 0.92245 0.0
O727 O 0.69443 0.42329 0.91547 0.0
O728 O 0.55184 0.32192 0.07418 0.0
Cd729 Cd 0.56985 0.31755 0.06816 0.0
Cd730 Cd 0.56899 0.34468 0.07037 0.0
O731 O 0.55142 0.34229 0.0778 0.0
O732 O 0.56613 0.30023 0.06241 0.0
O733 O 0.57942 0.30391 0.07772 0.0
C734 C 0.57373 0.29591 0.07067 0.0
C735 C 0.58539 0.35443 0.08071 0.0
C736 C 0.54603 0.33168 0.07783 0.0
C737 C 0.57526 0.33443 0.04549 0.0
O738 O 0.57078 0.34386 0.0512 0.0
O739 O 0.57671 0.32403 0.05114 0.0
O740 O 0.57628 0.36085 0.07597 0.0
O741 O 0.58476 0.34232 0.08021 0.0
O742 O 0.65618 0.56755 0.04786 0.0
Cd743 Cd 0.65273 0.56657 0.06677 0.0
Cd744 Cd 0.68041 0.56578 0.06845 0.0
O745 O 0.67661 0.57045 0.0499 0.0
O746 O 0.63637 0.57468 0.07024 0.0
O747 O 0.6546 0.58238 0.07667 0.0
C748 C 0.64254 0.58344 0.07587 0.0
C749 C 0.70191 0.56807 0.07304 0.0
C750 C 0.66682 0.57 0.04311 0.0
C751 C 0.66324 0.54412 0.07856 0.0
O752 O 0.67376 0.54942 0.07669 0.0
O753 O 0.65313 0.54935 0.07517 0.0
O754 O 0.69769 0.55941 0.06585 0.0
O755 O 0.69392 0.57587 0.07768 0.0
O756 O 0.44674 0.67295 0.08026 0.0
Cd757 Cd 0.42993 0.67899 0.07249 0.0
Cd758 Cd 0.42896 0.65098 0.07392 0.0
O759 O 0.44651 0.65229 0.08161 0.0
O760 O 0.43631 0.69568 0.06727 0.0
O761 O 0.42094 0.69379 0.08085 0.0
C762 C 0.4284 0.70097 0.07461 0.0
C763 C 0.41243 0.64091 0.08377 0.0
C764 C 0.45204 0.66269 0.08323 0.0
C765 C 0.42426 0.6627 0.04914 0.0
O766 O 0.4273 0.65269 0.05483 0.0
O767 O 0.42392 0.67314 0.0549 0.0
O768 O 0.42141 0.63464 0.07862 0.0
O769 O 0.4132 0.65302 0.08389 0.0
O770 O 0.3379 0.42894 0.05134 0.0
Cd771 Cd 0.34142 0.43003 0.07029 0.0
Cd772 Cd 0.31459 0.43445 0.07165 0.0
O773 O 0.3176 0.43292 0.05249 0.0
O774 O 0.35775 0.42159 0.07323 0.0
O775 O 0.33969 0.41433 0.08051 0.0
C776 C 0.35169 0.41304 0.07927 0.0
C777 C 0.29347 0.43095 0.07712 0.0
C778 C 0.32736 0.43059 0.04605 0.0
C779 C 0.33322 0.4536 0.08265 0.0
O780 O 0.32214 0.44941 0.08133 0.0
O781 O 0.34255 0.44756 0.0784 0.0
O782 O 0.29709 0.44079 0.07123 0.0
O783 O 0.30189 0.42275 0.08 0.0
O784 O 0.94744 0.56618 0.65492 0.0
Cd785 Cd 0.92833 0.56516 0.65289 0.0
Cd786 Cd 0.92882 0.56522 0.68087 0.0
O787 O 0.94667 0.57056 0.67516 0.0
O788 O 0.92374 0.57311 0.63669 0.0
O789 O 0.91884 0.58115 0.65526 0.0
C790 C 0.91884 0.5821 0.64316 0.0
C791 C 0.92694 0.5673 0.70283 0.0
C792 C 0.95282 0.56955 0.66499 0.0
C793 C 0.91774 0.5429 0.66508 0.0
O794 O 0.92054 0.54851 0.67523 0.0
O795 O 0.91997 0.54794 0.65454 0.0
O796 O 0.9339 0.55899 0.69764 0.0
O797 O 0.92085 0.57478 0.69554 0.0
O798 O 0.44985 0.92514 0.67819 0.0
Cd799 Cd 0.43183 0.93123 0.68247 0.0
Cd800 Cd 0.43272 0.92829 0.6553 0.0
O801 O 0.45025 0.92094 0.65793 0.0
O802 O 0.43575 0.93801 0.69936 0.0
O803 O 0.42253 0.92243 0.69681 0.0
C804 C 0.42822 0.93004 0.70428 0.0
C805 C 0.4164 0.91767 0.64574 0.0
C806 C 0.45565 0.92123 0.66852 0.0
C807 C 0.42622 0.95332 0.66485 0.0
O808 O 0.43092 0.94747 0.65561 0.0
O809 O 0.42469 0.94787 0.67534 0.0
O810 O 0.42552 0.92228 0.63924 0.0
O811 O 0.41697 0.91848 0.65784 0.0
O812 O 0.0515 0.43031 0.65964 0.0
Cd813 Cd 0.07045 0.4311 0.65606 0.0
Cd814 Cd 0.07176 0.4358 0.68323 0.0
O815 O 0.0527 0.43401 0.68 0.0
O816 O 0.07311 0.42246 0.63977 0.0
O817 O 0.08021 0.41512 0.65786 0.0
C818 C 0.07883 0.41373 0.6459 0.0
C819 C 0.07667 0.43317 0.70462 0.0
C820 C 0.04625 0.43182 0.67022 0.0
C821 C 0.08299 0.45464 0.66427 0.0
O822 O 0.08147 0.45059 0.67537 0.0
O823 O 0.07888 0.44849 0.65493 0.0
O824 O 0.07091 0.44286 0.70044 0.0
O825 O 0.0798 0.42465 0.69663 0.0
O826 O 0.55302 0.07645 0.67749 0.0
Cd827 Cd 0.57131 0.07064 0.68108 0.0
Cd828 Cd 0.56994 0.07397 0.65439 0.0
O829 O 0.55244 0.08127 0.65737 0.0
O830 O 0.56848 0.06346 0.69801 0.0
O831 O 0.58114 0.07948 0.69503 0.0
C832 C 0.5762 0.07146 0.70261 0.0
C833 C 0.58663 0.08479 0.64581 0.0
C834 C 0.5471 0.08059 0.66798 0.0
C835 C 0.5767 0.04887 0.66304 0.0
O836 O 0.57164 0.05478 0.65405 0.0
O837 O 0.5785 0.05422 0.67353 0.0
O838 O 0.57769 0.08053 0.63883 0.0
O839 O 0.58561 0.08358 0.65785 0.0
O840 O 0.948 0.42802 0.34006 0.0
Cd841 Cd 0.92884 0.43023 0.33937 0.0
Cd842 Cd 0.93223 0.42796 0.31399 0.0
O843 O 0.94941 0.42159 0.32048 0.0
O844 O 0.92188 0.42417 0.35549 0.0
O845 O 0.91841 0.41481 0.33722 0.0
C846 C 0.917 0.41499 0.34928 0.0
C847 C 0.92564 0.41954 0.29477 0.0
C848 C 0.95442 0.42346 0.33113 0.0
C849 C 0.92346 0.45302 0.32507 0.0
O850 O 0.9278 0.44683 0.31582 0.0
O851 O 0.92218 0.44784 0.3357 0.0
O852 O 0.93538 0.42658 0.29563 0.0
O853 O 0.91954 0.41699 0.3049 0.0
O854 O 0.54953 0.92474 0.3218 0.0
Cd855 Cd 0.5672 0.93171 0.31734 0.0
Cd856 Cd 0.56674 0.92898 0.34467 0.0
O857 O 0.54923 0.92158 0.34226 0.0
O858 O 0.56291 0.9382 0.30043 0.0
O859 O 0.57694 0.92334 0.30303 0.0
C860 C 0.57089 0.93065 0.29554 0.0
C861 C 0.58316 0.91813 0.35374 0.0
C862 C 0.54386 0.92112 0.33166 0.0
C863 C 0.57264 0.95408 0.33494 0.0
O864 O 0.56857 0.94815 0.34441 0.0
O865 O 0.57369 0.94868 0.32437 0.0
O866 O 0.57424 0.92277 0.3605 0.0
O867 O 0.58237 0.91912 0.34167 0.0
O868 O 0.0606 0.57153 0.3364 0.0
Cd869 Cd 0.0796 0.56988 0.33942 0.0
Cd870 Cd 0.08005 0.56567 0.31348 0.0
O871 O 0.06091 0.56625 0.31639 0.0
O872 O 0.0826 0.57748 0.35616 0.0
O873 O 0.08991 0.58562 0.3385 0.0
C874 C 0.08855 0.58637 0.35052 0.0
C875 C 0.08592 0.57412 0.29404 0.0
C876 C 0.05488 0.56925 0.32622 0.0
C877 C 0.09076 0.54566 0.33067 0.0
O878 O 0.08953 0.54997 0.31963 0.0
O879 O 0.08711 0.55202 0.34007 0.0
O880 O 0.08115 0.56309 0.29499 0.0
O881 O 0.08776 0.58042 0.30421 0.0
O882 O 0.45318 0.08517 0.32029 0.0
Cd883 Cd 0.43643 0.07698 0.31464 0.0
Cd884 Cd 0.43442 0.07673 0.34099 0.0
O885 O 0.45172 0.08505 0.34093 0.0
O886 O 0.43911 0.0773 0.29614 0.0
O887 O 0.42287 0.08644 0.30516 0.0
C888 C 0.42892 0.08363 0.29507 0.0
C889 C 0.41736 0.08576 0.35094 0.0
C890 C 0.45781 0.08756 0.33103 0.0
C891 C 0.43265 0.052 0.3282 0.0
O892 O 0.4336 0.05763 0.33865 0.0
O893 O 0.43319 0.05808 0.31795 0.0
O894 O 0.42626 0.08052 0.35725 0.0
O895 O 0.41843 0.08632 0.33887 0.0
O896 O 0.6605 0.94397 0.56957 0.0
Cd897 Cd 0.65868 0.92482 0.56807 0.0
Cd898 Cd 0.68508 0.92517 0.56801 0.0
O899 O 0.68107 0.9438 0.57185 0.0
O900 O 0.64228 0.92016 0.57552 0.0
O901 O 0.66058 0.91481 0.58382 0.0
C902 C 0.64847 0.91491 0.5845 0.0
C903 C 0.70459 0.91877 0.57588 0.0
C904 C 0.67072 0.94971 0.57165 0.0
C905 C 0.67051 0.91527 0.54501 0.0
O906 O 0.68077 0.91781 0.55053 0.0
O907 O 0.66011 0.9171 0.55049 0.0
O908 O 0.70365 0.92573 0.56611 0.0
O909 O 0.69442 0.91524 0.58139 0.0
O910 O 0.65893 0.05189 0.43488 0.0
Cd911 Cd 0.65612 0.07087 0.43649 0.0
Cd912 Cd 0.68357 0.07161 0.43885 0.0
O913 O 0.67958 0.0532 0.43379 0.0
O914 O 0.64003 0.07503 0.42821 0.0
O915 O 0.65853 0.08146 0.4212 0.0
C916 C 0.64648 0.081 0.41989 0.0
C917 C 0.70512 0.07597 0.43647 0.0
C918 C 0.66955 0.04678 0.43322 0.0
C919 C 0.66583 0.08145 0.46001 0.0
O920 O 0.67661 0.07955 0.45526 0.0
O921 O 0.65597 0.07849 0.45406 0.0
O922 O 0.70087 0.06882 0.44516 0.0
O923 O 0.6971 0.08083 0.42883 0.0
O924 O 0.94828 0.65427 0.43006 0.0
Cd925 Cd 0.92919 0.65209 0.43099 0.0
Cd926 Cd 0.92952 0.67985 0.43177 0.0
O927 O 0.94754 0.67466 0.42643 0.0
O928 O 0.92482 0.63605 0.42266 0.0
O929 O 0.91971 0.65473 0.41505 0.0
C930 C 0.91988 0.64266 0.4138 0.0
C931 C 0.9266 0.70169 0.42977 0.0
C932 C 0.95368 0.66446 0.42711 0.0
C933 C 0.91866 0.66341 0.45368 0.0
O934 O 0.92144 0.67374 0.44841 0.0
O935 O 0.92084 0.65305 0.44825 0.0
O936 O 0.93385 0.69683 0.43804 0.0
O937 O 0.92091 0.69414 0.42223 0.0
O938 O 0.33564 0.94977 0.43139 0.0
Cd939 Cd 0.33928 0.93085 0.43245 0.0
Cd940 Cd 0.31312 0.92942 0.43568 0.0
O941 O 0.31523 0.94873 0.43477 0.0
O942 O 0.35575 0.92817 0.42416 0.0
O943 O 0.33783 0.92093 0.41653 0.0
C944 C 0.34981 0.92237 0.41536 0.0
C945 C 0.29394 0.92201 0.42794 0.0
C946 C 0.32508 0.95513 0.43273 0.0
C947 C 0.33048 0.9186 0.45584 0.0
O948 O 0.31956 0.92002 0.45131 0.0
O949 O 0.34003 0.9226 0.44996 0.0
O950 O 0.2948 0.92748 0.43864 0.0
O951 O 0.30402 0.92067 0.42139 0.0
O952 O 0.05247 0.33956 0.42817 0.0
Cd953 Cd 0.07156 0.33859 0.43096 0.0
Cd954 Cd 0.06775 0.31352 0.42861 0.0
O955 O 0.05116 0.32022 0.42106 0.0
O956 O 0.07875 0.35475 0.42526 0.0
O957 O 0.08235 0.33659 0.41576 0.0
C958 C 0.08375 0.34864 0.41608 0.0
C959 C 0.07494 0.29441 0.42045 0.0
C960 C 0.04619 0.33087 0.423 0.0
C961 C 0.07522 0.32436 0.45409 0.0
O962 O 0.07065 0.31531 0.44778 0.0
O963 O 0.07756 0.33476 0.44881 0.0
O964 O 0.0647 0.29519 0.42674 0.0
O965 O 0.08124 0.30456 0.41854 0.0
O966 O 0.33683 0.05383 0.56506 0.0
Cd967 Cd 0.34027 0.07279 0.56367 0.0
Cd968 Cd 0.3142 0.07399 0.56035 0.0
O969 O 0.31656 0.05472 0.56095 0.0
O970 O 0.35678 0.07584 0.57174 0.0
O971 O 0.33886 0.08311 0.57935 0.0
C972 C 0.35088 0.08188 0.5804 0.0
C973 C 0.29492 0.08073 0.56845 0.0
C974 C 0.32637 0.04839 0.56334 0.0
C975 C 0.33136 0.08485 0.54018 0.0
O976 O 0.32044 0.08363 0.54479 0.0
O977 O 0.34088 0.08073 0.54603 0.0
O978 O 0.29582 0.07563 0.55758 0.0
O979 O 0.30504 0.08219 0.57492 0.0
O980 O 0.94029 0.33664 0.57155 0.0
Cd981 Cd 0.92118 0.33854 0.56985 0.0
Cd982 Cd 0.92171 0.31187 0.56907 0.0
O983 O 0.94016 0.31602 0.57345 0.0
O984 O 0.91691 0.35515 0.57708 0.0
O985 O 0.91109 0.3371 0.58561 0.0
C986 C 0.91156 0.34921 0.58617 0.0
C987 C 0.91581 0.29188 0.57618 0.0
C988 C 0.94601 0.3264 0.57358 0.0
C989 C 0.91218 0.32712 0.5463 0.0
O990 O 0.91474 0.31671 0.55155 0.0
O991 O 0.91368 0.33737 0.55216 0.0
O992 O 0.92273 0.2934 0.56646 0.0
O993 O 0.91192 0.30175 0.58198 0.0
O994 O 0.0529 0.65934 0.5686 0.0
Cd995 Cd 0.07176 0.65568 0.56661 0.0
Cd996 Cd 0.07301 0.68291 0.56259 0.0
O997 O 0.05401 0.67969 0.5648 0.0
O998 O 0.07455 0.63886 0.57409 0.0
O999 O 0.08249 0.65633 0.58207 0.0
C1000 C 0.08096 0.64432 0.58278 0.0
C1001 C 0.07803 0.70419 0.56586 0.0
C1002 C 0.04762 0.66993 0.56729 0.0
C1003 C 0.08333 0.66455 0.54277 0.0
O1004 O 0.08223 0.67554 0.54724 0.0
O1005 O 0.07924 0.65511 0.54877 0.0
O1006 O 0.07202 0.70036 0.55618 0.0
O1007 O 0.08138 0.69589 0.574 0.0
O1008 O 0.40882 0.32226 0.04669 0.0
Cd1009 Cd 0.40752 0.31859 0.06566 0.0
Cd1010 Cd 0.43371 0.31793 0.06353 0.0
O1011 O 0.4291 0.32632 0.04672 0.0
O1012 O 0.39123 0.32561 0.0713 0.0
O1013 O 0.40965 0.33323 0.07723 0.0
C1014 C 0.39755 0.33402 0.0773 0.0
C1015 C 0.45429 0.32173 0.07037 0.0
C1016 C 0.41859 0.32622 0.04113 0.0
C1017 C 0.41876 0.29396 0.06983 0.0
O1018 O 0.42876 0.2994 0.06635 0.0
O1019 O 0.40874 0.30019 0.07137 0.0
O1020 O 0.45186 0.3148 0.06084 0.0
O1021 O 0.445 0.32699 0.07604 0.0
O1022 O 0.70011 0.42955 0.07576 0.0
Cd1023 Cd 0.68332 0.43522 0.06824 0.0
Cd1024 Cd 0.68171 0.40927 0.06596 0.0
O1025 O 0.6996 0.40905 0.0734 0.0
O1026 O 0.68638 0.45348 0.0699 0.0
O1027 O 0.67004 0.44427 0.0786 0.0
C1028 C 0.67645 0.45433 0.07664 0.0
C1029 C 0.66536 0.39887 0.07584 0.0
C1030 C 0.70532 0.41891 0.07683 0.0
C1031 C 0.67983 0.42408 0.04223 0.0
O1032 O 0.67966 0.41319 0.04708 0.0
O1033 O 0.68117 0.43375 0.04908 0.0
O1034 O 0.67368 0.39285 0.06942 0.0
O1035 O 0.66653 0.4109 0.07691 0.0
O1036 O 0.5842 0.67887 0.04739 0.0
Cd1037 Cd 0.58788 0.6805 0.06631 0.0
Cd1038 Cd 0.56169 0.68208 0.0682 0.0
O1039 O 0.56358 0.6797 0.04908 0.0
O1040 O 0.60431 0.67246 0.06961 0.0
O1041 O 0.58625 0.665 0.07675 0.0
C1042 C 0.59828 0.66389 0.07566 0.0
C1043 C 0.54226 0.67572 0.07634 0.0
C1044 C 0.57339 0.6787 0.04238 0.0
C1045 C 0.57813 0.7039 0.07739 0.0
O1046 O 0.56748 0.69878 0.07589 0.0
O1047 O 0.58805 0.69817 0.07417 0.0
O1048 O 0.54344 0.68547 0.0694 0.0
O1049 O 0.55215 0.66915 0.07859 0.0
O1050 O 0.29798 0.56555 0.07235 0.0
Cd1051 Cd 0.31583 0.56052 0.06718 0.0
Cd1052 Cd 0.31746 0.586 0.06563 0.0
O1053 O 0.29903 0.58616 0.0716 0.0
O1054 O 0.31392 0.54216 0.06941 0.0
O1055 O 0.32854 0.55299 0.07929 0.0
C1056 C 0.32311 0.54239 0.07718 0.0
C1057 C 0.33305 0.59634 0.07672 0.0
C1058 C 0.29279 0.5762 0.07349 0.0
C1059 C 0.3214 0.57169 0.04181 0.0
O1060 O 0.3208 0.58248 0.04685 0.0
O1061 O 0.31989 0.56186 0.04837 0.0
O1062 O 0.32513 0.60241 0.06987 0.0
O1063 O 0.33187 0.5843 0.07756 0.0
O1064 O 0.4072 0.67538 0.95064 0.0
Cd1065 Cd 0.40711 0.67759 0.9314 0.0
Cd1066 Cd 0.43182 0.67437 0.93344 0.0
O1067 O 0.42621 0.66734 0.95059 0.0
O1068 O 0.39103 0.67105 0.92467 0.0
O1069 O 0.40949 0.66206 0.92121 0.0
C1070 C 0.39743 0.66192 0.91991 0.0
C1071 C 0.44956 0.66501 0.92461 0.0
C1072 C 0.4161 0.66989 0.95635 0.0
C1073 C 0.42189 0.70004 0.92608 0.0
O1074 O 0.43089 0.69355 0.93046 0.0
O1075 O 0.4112 0.69507 0.9244 0.0
O1076 O 0.45017 0.67144 0.93477 0.0
O1077 O 0.43877 0.66365 0.91931 0.0
O1078 O 0.29855 0.42578 0.91828 0.0
Cd1079 Cd 0.31407 0.43354 0.92684 0.0
Cd1080 Cd 0.31953 0.408 0.92861 0.0
O1081 O 0.30165 0.40563 0.92168 0.0
O1082 O 0.30962 0.45149 0.92474 0.0
O1083 O 0.32697 0.44342 0.91684 0.0
C1084 C 0.31971 0.45299 0.91834 0.0
C1085 C 0.33629 0.39828 0.91866 0.0
C1086 C 0.29487 0.41449 0.91754 0.0
C1087 C 0.31948 0.42254 0.95261 0.0
O1088 O 0.32164 0.41206 0.94736 0.0
O1089 O 0.31609 0.43197 0.94614 0.0
O1090 O 0.32853 0.39202 0.92551 0.0
O1091 O 0.33439 0.41017 0.91725 0.0
O1092 O 0.59307 0.32507 0.94698 0.0
Cd1093 Cd 0.59452 0.32258 0.92778 0.0
Cd1094 Cd 0.56843 0.32103 0.9298 0.0
O1095 O 0.57272 0.3288 0.94697 0.0
O1096 O 0.61065 0.33026 0.92257 0.0
O1097 O 0.59207 0.33773 0.91695 0.0
C1098 C 0.60416 0.33874 0.91688 0.0
C1099 C 0.54773 0.32442 0.92311 0.0
C1100 C 0.58318 0.32854 0.95266 0.0
C1101 C 0.58411 0.29791 0.92233 0.0
O1102 O 0.57399 0.30281 0.92626 0.0
O1103 O 0.59388 0.30455 0.92094 0.0
O1104 O 0.55039 0.31721 0.93236 0.0
O1105 O 0.55685 0.33018 0.91763 0.0
O1106 O 0.69767 0.57615 0.91636 0.0
Cd1107 Cd 0.68118 0.56953 0.92433 0.0
Cd1108 Cd 0.67943 0.59611 0.92695 0.0
O1109 O 0.69682 0.59667 0.91884 0.0
O1110 O 0.6857 0.55149 0.92366 0.0
O1111 O 0.66908 0.559 0.91393 0.0
C1112 C 0.67617 0.54957 0.91657 0.0
C1113 C 0.66244 0.60601 0.91775 0.0
C1114 C 0.70253 0.58695 0.91506 0.0
C1115 C 0.67716 0.58125 0.95038 0.0
O1116 O 0.67835 0.59216 0.94576 0.0
O1117 O 0.67757 0.57159 0.94339 0.0
O1118 O 0.67085 0.6123 0.92379 0.0
O1119 O 0.66388 0.59401 0.91668 0.0
O1120 O 0.05388 0.41061 0.32752 0.0
Cd1121 Cd 0.0731 0.40946 0.32518 0.0
Cd1122 Cd 0.07073 0.4353 0.32534 0.0
O1123 O 0.05317 0.43077 0.33213 0.0
O1124 O 0.07828 0.39282 0.33165 0.0
O1125 O 0.08396 0.41078 0.34046 0.0
C1126 C 0.08404 0.39865 0.34055 0.0
C1127 C 0.07864 0.45523 0.33023 0.0
C1128 C 0.04777 0.42019 0.33114 0.0
C1129 C 0.07854 0.42134 0.30128 0.0
O1130 O 0.07451 0.43107 0.30684 0.0
O1131 O 0.07996 0.41117 0.30726 0.0
O1132 O 0.06925 0.45369 0.32286 0.0
O1133 O 0.08335 0.44543 0.33553 0.0
O1134 O 0.5913 0.0524 0.32642 0.0
Cd1135 Cd 0.59301 0.07159 0.32403 0.0
Cd1136 Cd 0.56764 0.07042 0.32401 0.0
O1137 O 0.57126 0.05296 0.33147 0.0
O1138 O 0.60909 0.07681 0.33171 0.0
O1139 O 0.59045 0.08231 0.33919 0.0
C1140 C 0.60254 0.08241 0.34022 0.0
C1141 C 0.54821 0.07934 0.32885 0.0
C1142 C 0.58149 0.04694 0.33046 0.0
C1143 C 0.58186 0.0773 0.29997 0.0
O1144 O 0.57199 0.07344 0.30539 0.0
O1145 O 0.59193 0.07864 0.30613 0.0
O1146 O 0.54924 0.06974 0.32166 0.0
O1147 O 0.55824 0.08378 0.33393 0.0
O1148 O 0.95655 0.58907 0.31886 0.0
Cd1149 Cd 0.93766 0.59233 0.31597 0.0
Cd1150 Cd 0.9367 0.56579 0.31339 0.0
O1151 O 0.95526 0.56841 0.31794 0.0
O1152 O 0.93321 0.60833 0.32434 0.0
O1153 O 0.92613 0.58978 0.33056 0.0
C1154 C 0.92671 0.60179 0.33219 0.0
C1155 C 0.92976 0.54513 0.31669 0.0
C1156 C 0.96168 0.57832 0.31946 0.0
C1157 C 0.92919 0.58295 0.2914 0.0
O1158 O 0.93074 0.57222 0.29629 0.0
O1159 O 0.93119 0.59283 0.29773 0.0
O1160 O 0.93774 0.54797 0.30815 0.0
O1161 O 0.92572 0.55404 0.32379 0.0
O1162 O 0.40858 0.95434 0.31965 0.0
Cd1163 Cd 0.40549 0.93525 0.31851 0.0
Cd1164 Cd 0.43194 0.93443 0.31863 0.0
O1165 O 0.42872 0.95271 0.32415 0.0
O1166 O 0.38917 0.93138 0.3266 0.0
O1167 O 0.40752 0.92523 0.33425 0.0
C1168 C 0.39545 0.92581 0.33533 0.0
C1169 C 0.45231 0.9273 0.32302 0.0
C1170 C 0.41889 0.95933 0.32294 0.0
C1171 C 0.41662 0.92621 0.29528 0.0
O1172 O 0.42682 0.92896 0.30077 0.0
O1173 O 0.40625 0.92719 0.30102 0.0
O1174 O 0.45008 0.93572 0.31475 0.0
O1175 O 0.44295 0.92296 0.32932 0.0
O1176 O 0.05121 0.58691 0.67693 0.0
Cd1177 Cd 0.07033 0.58922 0.67892 0.0
Cd1178 Cd 0.07033 0.56344 0.67872 0.0
O1179 O 0.0521 0.56662 0.67298 0.0
O1180 O 0.07489 0.6054 0.67098 0.0
O1181 O 0.08086 0.58689 0.66357 0.0
C1182 C 0.08054 0.59897 0.66241 0.0
C1183 C 0.079 0.54439 0.67206 0.0
C1184 C 0.04587 0.57676 0.6737 0.0
C1185 C 0.07815 0.57787 0.70254 0.0
O1186 O 0.07521 0.56772 0.69702 0.0
O1187 O 0.07774 0.58822 0.69669 0.0
O1188 O 0.07051 0.54492 0.68057 0.0
O1189 O 0.08257 0.55473 0.66691 0.0
O1190 O 0.40883 0.05186 0.67368 0.0
Cd1191 Cd 0.40736 0.07109 0.67589 0.0
Cd1192 Cd 0.43363 0.06866 0.67857 0.0
O1193 O 0.42928 0.05164 0.67053 0.0
O1194 O 0.39107 0.07585 0.66823 0.0
O1195 O 0.40945 0.08166 0.66046 0.0
C1196 C 0.39736 0.08144 0.65954 0.0
C1197 C 0.45466 0.07474 0.67603 0.0
C1198 C 0.41875 0.04607 0.67048 0.0
C1199 C 0.41709 0.07659 0.70092 0.0
O1200 O 0.42731 0.07233 0.69652 0.0
O1201 O 0.40767 0.07823 0.69384 0.0
O1202 O 0.45142 0.0656 0.68315 0.0
O1203 O 0.44594 0.08049 0.66994 0.0
O1204 O 0.94801 0.41151 0.67723 0.0
Cd1205 Cd 0.92941 0.40724 0.68007 0.0
Cd1206 Cd 0.92746 0.43283 0.68564 0.0
O1207 O 0.9467 0.43122 0.6834 0.0
O1208 O 0.92636 0.39091 0.67168 0.0
O1209 O 0.91752 0.40868 0.66553 0.0
C1210 C 0.91912 0.39676 0.66396 0.0
C1211 C 0.91946 0.45246 0.67983 0.0
C1212 C 0.95319 0.42197 0.67957 0.0
C1213 C 0.91894 0.41386 0.7051 0.0
O1214 O 0.91911 0.42515 0.70132 0.0
O1215 O 0.92322 0.40511 0.69826 0.0
O1216 O 0.92573 0.45086 0.68999 0.0
O1217 O 0.91761 0.44284 0.67273 0.0
O1218 O 0.59391 0.9509 0.67584 0.0
Cd1219 Cd 0.59464 0.93185 0.67942 0.0
Cd1220 Cd 0.56857 0.93478 0.68029 0.0
O1221 O 0.57363 0.9514 0.6718 0.0
O1222 O 0.61071 0.92566 0.67236 0.0
O1223 O 0.59209 0.92036 0.66478 0.0
C1224 C 0.60418 0.91982 0.66401 0.0
C1225 C 0.54773 0.92859 0.67686 0.0
C1226 C 0.58428 0.95672 0.67191 0.0
C1227 C 0.58346 0.92789 0.70409 0.0
O1228 O 0.57356 0.93184 0.69877 0.0
O1229 O 0.59335 0.92598 0.69776 0.0
O1230 O 0.55057 0.93813 0.68362 0.0
O1231 O 0.55675 0.92256 0.67152 0.0
O1232 O 0.29998 0.08387 0.42272 0.0
Cd1233 Cd 0.315 0.07456 0.43055 0.0
Cd1234 Cd 0.31995 0.07158 0.40502 0.0
O1235 O 0.30233 0.07913 0.40274 0.0
O1236 O 0.31062 0.07724 0.44844 0.0
O1237 O 0.32852 0.08378 0.44035 0.0
C1238 C 0.32116 0.08288 0.44991 0.0
C1239 C 0.3368 0.08068 0.39472 0.0
C1240 C 0.29604 0.08417 0.41149 0.0
C1241 C 0.31894 0.04818 0.42037 0.0
O1242 O 0.32142 0.05293 0.40974 0.0
O1243 O 0.31581 0.05514 0.42954 0.0
O1244 O 0.32874 0.07387 0.3888 0.0
O1245 O 0.33518 0.08249 0.4066 0.0
O1246 O 0.29948 0.92015 0.57332 0.0
Cd1247 Cd 0.31471 0.92909 0.5654 0.0
Cd1248 Cd 0.32005 0.93196 0.59082 0.0
O1249 O 0.30218 0.92503 0.59322 0.0
O1250 O 0.31043 0.92647 0.54748 0.0
O1251 O 0.32813 0.91961 0.55571 0.0
C1252 C 0.3209 0.92068 0.54607 0.0
C1253 C 0.3366 0.92246 0.6013 0.0
C1254 C 0.29564 0.92012 0.58459 0.0
C1255 C 0.31948 0.95536 0.57548 0.0
O1256 O 0.32207 0.95055 0.58607 0.0
O1257 O 0.31595 0.94847 0.5664 0.0
O1258 O 0.32871 0.92955 0.60711 0.0
O1259 O 0.335 0.9206 0.58943 0.0
O1260 O 0.04432 0.3173 0.59329 0.0
Cd1261 Cd 0.06351 0.31531 0.59489 0.0
Cd1262 Cd 0.06191 0.31485 0.56827 0.0
O1263 O 0.04477 0.32233 0.57321 0.0
O1264 O 0.06883 0.32332 0.61083 0.0
O1265 O 0.07389 0.33068 0.59204 0.0
C1266 C 0.07416 0.33187 0.60411 0.0
C1267 C 0.06684 0.31761 0.54694 0.0
C1268 C 0.03884 0.32132 0.5835 0.0
C1269 C 0.07002 0.29139 0.58353 0.0
O1270 O 0.06638 0.29677 0.57355 0.0
O1271 O 0.07073 0.29748 0.59373 0.0
O1272 O 0.05789 0.31048 0.55063 0.0
O1273 O 0.07299 0.3237 0.55539 0.0
O1274 O 0.69963 0.07156 0.57113 0.0
Cd1275 Cd 0.681 0.06706 0.56834 0.0
Cd1276 Cd 0.68298 0.06724 0.59372 0.0
O1277 O 0.70073 0.07442 0.59153 0.0
O1278 O 0.68159 0.06715 0.54978 0.0
O1279 O 0.66913 0.07978 0.56047 0.0
C1280 C 0.67351 0.07606 0.54983 0.0
C1281 C 0.66726 0.07829 0.60385 0.0
C1282 C 0.70587 0.0746 0.58081 0.0
C1283 C 0.67678 0.0427 0.58192 0.0
O1284 O 0.68073 0.04808 0.5918 0.0
O1285 O 0.67528 0.04891 0.57186 0.0
O1286 O 0.67592 0.07256 0.61008 0.0
O1287 O 0.66778 0.07804 0.59173 0.0
O1288 O 0.94916 0.67834 0.58715 0.0
Cd1289 Cd 0.93014 0.68019 0.59035 0.0
Cd1290 Cd 0.92906 0.68203 0.56403 0.0
O1291 O 0.94807 0.67947 0.5665 0.0
O1292 O 0.92636 0.67201 0.60663 0.0
O1293 O 0.91966 0.66473 0.58833 0.0
C1294 C 0.92046 0.66348 0.60037 0.0
C1295 C 0.9216 0.67589 0.54425 0.0
C1296 C 0.95447 0.67825 0.57648 0.0
C1297 C 0.9196 0.70383 0.58037 0.0
O1298 O 0.92137 0.69876 0.56974 0.0
O1299 O 0.92244 0.69799 0.59035 0.0
O1300 O 0.92852 0.68561 0.54578 0.0
O1301 O 0.91894 0.66925 0.554 0.0
O1302 O 0.69976 0.92051 0.42584 0.0
Cd1303 Cd 0.68343 0.92828 0.43304 0.0
Cd1304 Cd 0.68061 0.93057 0.40635 0.0
O1305 O 0.69812 0.92284 0.40536 0.0
O1306 O 0.68877 0.92821 0.45087 0.0
O1307 O 0.67215 0.9178 0.44436 0.0
C1308 C 0.67955 0.9209 0.45341 0.0
C1309 C 0.66386 0.92101 0.39635 0.0
C1310 C 0.70424 0.91922 0.41487 0.0
C1311 C 0.67841 0.95409 0.4211 0.0
O1312 O 0.67927 0.94938 0.4102 0.0
O1313 O 0.67931 0.94722 0.43081 0.0
O1314 O 0.6721 0.92734 0.39015 0.0
O1315 O 0.66528 0.91992 0.40835 0.0
O1316 O 0.05197 0.67828 0.40916 0.0
Cd1317 Cd 0.07109 0.68077 0.4074 0.0
Cd1318 Cd 0.07051 0.67931 0.43332 0.0
O1319 O 0.05249 0.67344 0.42928 0.0
O1320 O 0.07642 0.67382 0.39097 0.0
O1321 O 0.08189 0.66554 0.40926 0.0
C1322 C 0.08209 0.66508 0.39713 0.0
C1323 C 0.07852 0.67243 0.45259 0.0
C1324 C 0.04647 0.67452 0.41905 0.0
C1325 C 0.0783 0.7039 0.42016 0.0
O1326 O 0.0753 0.6978 0.42994 0.0
O1327 O 0.07808 0.69862 0.40951 0.0
O1328 O 0.06982 0.6807 0.45187 0.0
O1329 O 0.08264 0.66757 0.4423 0.0
O1330 O 0.94703 0.32613 0.40929 0.0
Cd1331 Cd 0.92781 0.32348 0.40855 0.0
Cd1332 Cd 0.93106 0.32232 0.43431 0.0
O1333 O 0.94801 0.3303 0.42953 0.0
O1334 O 0.92235 0.33015 0.39209 0.0
O1335 O 0.91674 0.33859 0.41024 0.0
C1336 C 0.91653 0.33888 0.39812 0.0
C1337 C 0.92393 0.32577 0.45484 0.0
C1338 C 0.9532 0.32978 0.41882 0.0
C1339 C 0.92352 0.29887 0.41938 0.0
O1340 O 0.92806 0.30391 0.42917 0.0
O1341 O 0.92121 0.30543 0.40975 0.0
O1342 O 0.93359 0.319 0.45245 0.0
O1343 O 0.91843 0.33123 0.44556 0.0
H1344 H 0.08769 0.12426 0.41325 0.0
H1345 H 0.14387 0.09233 0.40851 0.0
H1346 H 0.10958 0.15822 0.4111 0.0
H1347 H 0.15944 0.12736 0.42148 0.0
H1348 H 0.12452 0.1033 0.40294 0.0
H1349 H 0.10663 0.11204 0.40997 0.0
C1350 C 0.09645 0.12916 0.41172 0.0
C1351 C 0.09708 0.14228 0.41264 0.0
C1352 C 0.13213 0.10859 0.40705 0.0
C1353 C 0.11893 0.12831 0.40877 0.0
C1354 C 0.14324 0.10233 0.41012 0.0
C1355 C 0.15316 0.10889 0.41574 0.0
C1356 C 0.13097 0.12146 0.4097 0.0
C1357 C 0.15193 0.12188 0.41741 0.0
C1358 C 0.10732 0.12215 0.40976 0.0
C1359 C 0.10867 0.14812 0.41056 0.0
N1360 N 0.141 0.1277 0.41452 0.0
N1361 N 0.11918 0.14109 0.40899 0.0
H1362 H 0.88123 0.08946 0.41154 0.0
H1363 H 0.87277 0.16275 0.42019 0.0
H1364 H 0.84526 0.10801 0.41202 0.0
H1365 H 0.9088 0.14474 0.41631 0.0
H1366 H 0.86258 0.14328 0.41384 0.0
H1367 H 0.89147 0.10984 0.40968 0.0
C1368 C 0.87546 0.09781 0.411 0.0
C1369 C 0.86237 0.09704 0.41216 0.0
C1370 C 0.87272 0.14361 0.4142 0.0
C1371 C 0.87406 0.12044 0.41024 0.0
C1372 C 0.87855 0.15473 0.41785 0.0
C1373 C 0.89165 0.1553 0.41898 0.0
C1374 C 0.88003 0.13291 0.41181 0.0
C1375 C 0.89867 0.14468 0.41568 0.0
C1376 C 0.88132 0.10946 0.40997 0.0
C1377 C 0.85538 0.10816 0.41129 0.0
N1378 N 0.89276 0.13385 0.41244 0.0
N1379 N 0.86132 0.11941 0.41061 0.0
H1380 H 0.85826 0.9105 0.41353 0.0
H1381 H 0.89279 0.84404 0.41175 0.0
H1382 H 0.84025 0.87502 0.42092 0.0
H1383 H 0.91219 0.87952 0.41372 0.0
H1384 H 0.87302 0.85531 0.40901 0.0
H1385 H 0.87747 0.89923 0.4078 0.0
C1386 C 0.85828 0.90035 0.41374 0.0
C1387 C 0.84774 0.89368 0.41791 0.0
C1388 C 0.88164 0.86062 0.40983 0.0
C1389 C 0.86959 0.88078 0.41135 0.0
C1390 C 0.89294 0.85419 0.41132 0.0
C1391 C 0.90412 0.86086 0.41321 0.0
C1392 C 0.88153 0.87379 0.41021 0.0
C1393 C 0.90375 0.874 0.4125 0.0
C1394 C 0.86924 0.89393 0.41049 0.0
C1395 C 0.84825 0.88053 0.41795 0.0
N1396 N 0.89261 0.88005 0.41124 0.0
N1397 N 0.85902 0.87452 0.41485 0.0
H1398 H 0.09258 0.86011 0.41388 0.0
H1399 H 0.15883 0.89511 0.41229 0.0
H1400 H 0.12826 0.84142 0.41784 0.0
H1401 H 0.12331 0.91388 0.4172 0.0
H1402 H 0.14763 0.87539 0.40875 0.0
H1403 H 0.10365 0.87972 0.40945 0.0
C1404 C 0.10273 0.86007 0.41356 0.0
C1405 C 0.10951 0.84917 0.41643 0.0
C1406 C 0.14229 0.88387 0.41042 0.0
C1407 C 0.12221 0.87156 0.41146 0.0
C1408 C 0.14868 0.89514 0.4124 0.0
C1409 C 0.142 0.90611 0.41524 0.0
C1410 C 0.12914 0.88361 0.41125 0.0
C1411 C 0.12885 0.9056 0.41522 0.0
C1412 C 0.10904 0.87128 0.41109 0.0
C1413 C 0.12266 0.84965 0.41585 0.0
N1414 N 0.12285 0.89451 0.41339 0.0
N1415 N 0.12858 0.86069 0.41357 0.0
H1416 H 0.14283 0.90659 0.58789 0.0
H1417 H 0.10497 0.84201 0.58998 0.0
H1418 H 0.1591 0.87021 0.5808 0.0
H1419 H 0.08743 0.87849 0.58934 0.0
H1420 H 0.12538 0.85216 0.59228 0.0
H1421 H 0.12314 0.89633 0.59378 0.0
C1422 C 0.14233 0.89644 0.58776 0.0
C1423 C 0.15255 0.88924 0.58365 0.0
C1424 C 0.11704 0.85793 0.59185 0.0
C1425 C 0.13011 0.87747 0.59037 0.0
C1426 C 0.10537 0.85214 0.59061 0.0
C1427 C 0.0945 0.85942 0.58923 0.0
C1428 C 0.11784 0.87109 0.59171 0.0
C1429 C 0.09559 0.87251 0.59017 0.0
C1430 C 0.13109 0.8906 0.5911 0.0
C1431 C 0.1514 0.87613 0.58372 0.0
N1432 N 0.10707 0.87794 0.59117 0.0
N1433 N 0.14034 0.87068 0.5869 0.0
H1434 H 0.09301 0.1359 0.58861 0.0
H1435 H 0.16014 0.10257 0.58901 0.0
H1436 H 0.12819 0.15588 0.58749 0.0
H1437 H 0.12518 0.08343 0.58199 0.0
H1438 H 0.14838 0.12173 0.59376 0.0
H1439 H 0.10453 0.11631 0.59166 0.0
C1440 C 0.10314 0.13621 0.58927 0.0
C1441 C 0.10966 0.14752 0.58759 0.0
C1442 C 0.14329 0.11328 0.59135 0.0
C1443 C 0.12289 0.12514 0.59096 0.0
C1444 C 0.14999 0.10234 0.58868 0.0
C1445 C 0.14363 0.09145 0.58491 0.0
C1446 C 0.13015 0.1133 0.59031 0.0
C1447 C 0.13047 0.09167 0.58468 0.0
C1448 C 0.10971 0.12502 0.59095 0.0
C1449 C 0.12279 0.14736 0.58857 0.0
N1450 N 0.12418 0.10244 0.58721 0.0
N1451 N 0.12898 0.13632 0.59004 0.0
H1452 H 0.89478 0.15847 0.59357 0.0
H1453 H 0.86054 0.09203 0.5895 0.0
H1454 H 0.91395 0.12308 0.58933 0.0
H1455 H 0.84185 0.12763 0.58486 0.0
H1456 H 0.87967 0.10317 0.59552 0.0
H1457 H 0.87504 0.14711 0.59647 0.0
C1458 C 0.89489 0.14831 0.59353 0.0
C1459 C 0.90597 0.14171 0.59098 0.0
C1460 C 0.87131 0.10853 0.59339 0.0
C1461 C 0.88347 0.12869 0.59422 0.0
C1462 C 0.86038 0.10217 0.59 0.0
C1463 C 0.84966 0.10892 0.58645 0.0
C1464 C 0.8715 0.1217 0.59325 0.0
C1465 C 0.84997 0.12206 0.58732 0.0
C1466 C 0.88361 0.14184 0.59513 0.0
C1467 C 0.90558 0.12855 0.59107 0.0
N1468 N 0.86076 0.12802 0.59048 0.0
N1469 N 0.89448 0.12248 0.59249 0.0
H1470 H 0.86913 0.8404 0.58574 0.0
H1471 H 0.87439 0.91427 0.58582 0.0
H1472 H 0.90441 0.86007 0.58813 0.0
H1473 H 0.83935 0.89466 0.59081 0.0
H1474 H 0.88563 0.89464 0.58922 0.0
H1475 H 0.85815 0.85998 0.59021 0.0
C1476 C 0.87458 0.84881 0.58742 0.0
C1477 C 0.8877 0.84865 0.58638 0.0
C1478 C 0.87549 0.89464 0.58978 0.0
C1479 C 0.87517 0.87115 0.59132 0.0
C1480 C 0.86906 0.90585 0.58782 0.0
C1481 C 0.8559 0.90606 0.58786 0.0
C1482 C 0.86872 0.88349 0.59159 0.0
C1483 C 0.84949 0.8949 0.59062 0.0
C1484 C 0.8683 0.85999 0.58998 0.0
C1485 C 0.89428 0.85979 0.58875 0.0
N1486 N 0.85596 0.88402 0.59216 0.0
N1487 N 0.88793 0.87064 0.59089 0.0
H1488 H 0.40529 0.10779 0.15814 0.0
H1489 H 0.40936 0.13882 0.09004 0.0
H1490 H 0.41104 0.08702 0.12388 0.0
H1491 H 0.4122 0.15965 0.12464 0.0
H1492 H 0.40438 0.11997 0.1021 0.0
H1493 H 0.40227 0.12689 0.14573 0.0
C1494 C 0.40567 0.1072 0.148 0.0
C1495 C 0.40862 0.09585 0.14204 0.0
C1496 C 0.4059 0.12871 0.10704 0.0
C1497 C 0.40523 0.11761 0.12782 0.0
C1498 C 0.4087 0.13949 0.10015 0.0
C1499 C 0.41141 0.15078 0.10635 0.0
C1500 C 0.40579 0.12923 0.1202 0.0
C1501 C 0.41036 0.1511 0.11948 0.0
C1502 C 0.404 0.1181 0.14093 0.0
C1503 C 0.40897 0.09561 0.12888 0.0
N1504 N 0.40778 0.14045 0.12598 0.0
N1505 N 0.40743 0.10635 0.12222 0.0
H1506 H 0.89197 0.41086 0.16184 0.0
H1507 H 0.86043 0.40869 0.09421 0.0
H1508 H 0.91251 0.41261 0.127 0.0
H1509 H 0.84016 0.41377 0.12887 0.0
H1510 H 0.87936 0.40395 0.10629 0.0
H1511 H 0.87299 0.40566 0.15009 0.0
C1512 C 0.89256 0.40987 0.15175 0.0
C1513 C 0.90377 0.41245 0.14536 0.0
C1514 C 0.87071 0.40588 0.11124 0.0
C1515 C 0.88209 0.40663 0.13187 0.0
C1516 C 0.85989 0.40854 0.10435 0.0
C1517 C 0.84878 0.41189 0.11055 0.0
C1518 C 0.87037 0.40656 0.1244 0.0
C1519 C 0.84859 0.41147 0.12371 0.0
C1520 C 0.88171 0.40695 0.14504 0.0
C1521 C 0.904 0.41093 0.13229 0.0
N1522 N 0.85927 0.40905 0.13019 0.0
N1523 N 0.89327 0.40832 0.12595 0.0
H1524 H 0.58995 0.89628 0.15357 0.0
H1525 H 0.58868 0.85961 0.08845 0.0
H1526 H 0.58514 0.91395 0.11748 0.0
H1527 H 0.58628 0.84186 0.12474 0.0
H1528 H 0.59343 0.87953 0.09881 0.0
H1529 H 0.5946 0.87648 0.14296 0.0
C1530 C 0.59012 0.89606 0.14342 0.0
C1531 C 0.58691 0.90671 0.1364 0.0
C1532 C 0.59209 0.87122 0.10449 0.0
C1533 C 0.59213 0.8841 0.12422 0.0
C1534 C 0.58943 0.85983 0.09858 0.0
C1535 C 0.58683 0.84913 0.10576 0.0
C1536 C 0.59215 0.87186 0.11765 0.0
C1537 C 0.588 0.84994 0.11885 0.0
C1538 C 0.59273 0.88475 0.13737 0.0
C1539 C 0.58735 0.9059 0.12327 0.0
N1540 N 0.59039 0.86116 0.12438 0.0
N1541 N 0.58973 0.89475 0.1176 0.0
H1542 H 0.08558 0.59054 0.12417 0.0
H1543 H 0.15943 0.58737 0.12629 0.0
H1544 H 0.10689 0.59381 0.1584 0.0
H1545 H 0.13819 0.58983 0.09194 0.0
H1546 H 0.14067 0.5931 0.13807 0.0
H1547 H 0.10476 0.59369 0.11213 0.0
C1548 C 0.09428 0.59213 0.12915 0.0
C1549 C 0.09469 0.5917 0.14229 0.0
C1550 C 0.14015 0.59262 0.12794 0.0
C1551 C 0.11674 0.59511 0.12857 0.0
C1552 C 0.15087 0.58934 0.1212 0.0
C1553 C 0.15031 0.5879 0.10813 0.0
C1554 C 0.12875 0.59431 0.12158 0.0
C1555 C 0.13901 0.5907 0.10202 0.0
C1556 C 0.10524 0.59394 0.12227 0.0
C1557 C 0.10618 0.59397 0.14827 0.0
N1558 N 0.12861 0.59355 0.10882 0.0
N1559 N 0.11681 0.59534 0.14136 0.0
H1560 H 0.41411 0.91055 0.88263 0.0
H1561 H 0.41737 0.837 0.87406 0.0
H1562 H 0.41177 0.89209 0.84669 0.0
H1563 H 0.4154 0.85521 0.91015 0.0
H1564 H 0.41169 0.85675 0.86402 0.0
H1565 H 0.41096 0.89038 0.89295 0.0
C1566 C 0.41271 0.90228 0.87689 0.0
C1567 C 0.41342 0.90297 0.86377 0.0
C1568 C 0.41227 0.8564 0.87415 0.0
C1569 C 0.40998 0.8798 0.87555 0.0
C1570 C 0.41552 0.84511 0.8799 0.0
C1571 C 0.41707 0.84451 0.89295 0.0
C1572 C 0.41075 0.86723 0.88149 0.0
C1573 C 0.41442 0.85527 0.90005 0.0
C1574 C 0.41091 0.89075 0.8828 0.0
C1575 C 0.41141 0.89198 0.85683 0.0
N1576 N 0.41161 0.86625 0.89421 0.0
N1577 N 0.41001 0.8808 0.8628 0.0
H1578 H 0.10498 0.41124 0.84518 0.0
H1579 H 0.14065 0.41273 0.91112 0.0
H1580 H 0.08608 0.41289 0.88094 0.0
H1581 H 0.15816 0.4202 0.87541 0.0
H1582 H 0.12114 0.40747 0.90013 0.0
H1583 H 0.12497 0.40892 0.85614 0.0
C1584 C 0.10499 0.41085 0.85533 0.0
C1585 C 0.09387 0.41247 0.86216 0.0
C1586 C 0.12932 0.4101 0.89471 0.0
C1587 C 0.11672 0.40995 0.87475 0.0
C1588 C 0.14045 0.41307 0.90097 0.0
C1589 C 0.15098 0.41709 0.89417 0.0
C1590 C 0.12877 0.41107 0.88158 0.0
C1591 C 0.15022 0.41733 0.88104 0.0
C1592 C 0.11642 0.40959 0.86158 0.0
C1593 C 0.09446 0.41184 0.8753 0.0
N1594 N 0.13928 0.41447 0.87518 0.0
N1595 N 0.10572 0.41079 0.88118 0.0
H1596 H 0.58299 0.0878 0.87956 0.0
H1597 H 0.58182 0.16149 0.87376 0.0
H1598 H 0.58763 0.10707 0.84429 0.0
H1599 H 0.58642 0.14233 0.9091 0.0
H1600 H 0.58606 0.14185 0.86279 0.0
H1601 H 0.58638 0.10756 0.89059 0.0
C1602 C 0.58492 0.09617 0.87414 0.0
C1603 C 0.58486 0.09583 0.86099 0.0
C1604 C 0.58635 0.14196 0.87294 0.0
C1605 C 0.58857 0.11854 0.87355 0.0
C1606 C 0.58391 0.15318 0.87921 0.0
C1607 C 0.5836 0.1535 0.89236 0.0
C1608 C 0.58829 0.13093 0.87987 0.0
C1609 C 0.58648 0.14249 0.89895 0.0
C1610 C 0.58688 0.10745 0.88044 0.0
C1611 C 0.58752 0.10693 0.85444 0.0
N1612 N 0.5885 0.13159 0.89263 0.0
N1613 N 0.58905 0.11788 0.86079 0.0
H1614 H 0.85622 0.58274 0.90829 0.0
H1615 H 0.89447 0.58405 0.84377 0.0
H1616 H 0.84004 0.57525 0.87196 0.0
H1617 H 0.9119 0.58176 0.88023 0.0
H1618 H 0.87407 0.58645 0.85397 0.0
H1619 H 0.87618 0.58779 0.89804 0.0
C1620 C 0.8568 0.58236 0.89815 0.0
C1621 C 0.84653 0.57839 0.89097 0.0
C1622 C 0.88239 0.58561 0.85973 0.0
C1623 C 0.86925 0.58417 0.87922 0.0
C1624 C 0.89405 0.58431 0.85392 0.0
C1625 C 0.90488 0.5825 0.86116 0.0
C1626 C 0.88157 0.58514 0.87287 0.0
C1627 C 0.90376 0.58296 0.87428 0.0
C1628 C 0.86819 0.58521 0.89232 0.0
C1629 C 0.84779 0.57809 0.87787 0.0
N1630 N 0.89229 0.58409 0.87972 0.0
N1631 N 0.85897 0.58083 0.87243 0.0
H1632 H 0.11832 0.41315 0.09046 0.0
H1633 H 0.12787 0.42057 0.16372 0.0
H1634 H 0.15454 0.41279 0.10849 0.0
H1635 H 0.09156 0.41716 0.14621 0.0
H1636 H 0.13773 0.41442 0.14402 0.0
H1637 H 0.10833 0.4111 0.11095 0.0
C1638 C 0.12419 0.41239 0.09871 0.0
C1639 C 0.13728 0.41336 0.09778 0.0
C1640 C 0.12759 0.41483 0.14451 0.0
C1641 C 0.12589 0.41122 0.1213 0.0
C1642 C 0.12196 0.41836 0.15577 0.0
C1643 C 0.10888 0.41957 0.15655 0.0
C1644 C 0.12012 0.41265 0.13389 0.0
C1645 C 0.10168 0.41646 0.14599 0.0
C1646 C 0.11847 0.41124 0.11042 0.0
C1647 C 0.14441 0.41221 0.10878 0.0
N1648 N 0.10741 0.41333 0.13503 0.0
N1649 N 0.13862 0.41142 0.1201 0.0
H1650 H 0.13049 0.58264 0.83877 0.0
H1651 H 0.12528 0.58377 0.91252 0.0
H1652 H 0.09531 0.58663 0.85836 0.0
H1653 H 0.16041 0.58846 0.89301 0.0
H1654 H 0.11412 0.58713 0.89284 0.0
H1655 H 0.14162 0.58715 0.85827 0.0
C1656 C 0.1251 0.58468 0.84713 0.0
C1657 C 0.11195 0.58408 0.84698 0.0
C1658 C 0.12426 0.58764 0.89287 0.0
C1659 C 0.12464 0.58906 0.86939 0.0
C1660 C 0.13064 0.5857 0.90411 0.0
C1661 C 0.14379 0.58568 0.90436 0.0
C1662 C 0.13107 0.58935 0.88173 0.0
C1663 C 0.15026 0.58833 0.89322 0.0
C1664 C 0.13147 0.58726 0.85827 0.0
C1665 C 0.10546 0.58691 0.85807 0.0
N1666 N 0.14384 0.58984 0.8823 0.0
N1667 N 0.11187 0.58905 0.86887 0.0
H1668 H 0.4189 0.1275 0.83597 0.0
H1669 H 0.40865 0.1578 0.89234 0.0
H1670 H 0.41234 0.09297 0.85602 0.0
H1671 H 0.4193 0.12215 0.90823 0.0
H1672 H 0.40517 0.14747 0.87216 0.0
H1673 H 0.41482 0.13919 0.85512 0.0
C1674 C 0.41631 0.12239 0.84436 0.0
C1675 C 0.41606 0.10923 0.84442 0.0
C1676 C 0.40831 0.1419 0.88004 0.0
C1677 C 0.41121 0.1226 0.86647 0.0
C1678 C 0.41015 0.14779 0.89161 0.0
C1679 C 0.41452 0.14087 0.90192 0.0
C1680 C 0.41094 0.12903 0.87879 0.0
C1681 C 0.41614 0.12789 0.90048 0.0
C1682 C 0.41385 0.1291 0.85532 0.0
C1683 C 0.41266 0.10311 0.85555 0.0
N1684 N 0.41447 0.12242 0.88911 0.0
N1685 N 0.4106 0.10984 0.86619 0.0
H1686 H 0.83796 0.40753 0.8946 0.0
H1687 H 0.90417 0.40994 0.85947 0.0
H1688 H 0.87345 0.41252 0.91339 0.0
H1689 H 0.8685 0.41528 0.84112 0.0
H1690 H 0.89309 0.40512 0.879 0.0
H1691 H 0.84919 0.40455 0.87478 0.0
C1692 C 0.84812 0.40775 0.89461 0.0
C1693 C 0.85478 0.41048 0.90561 0.0
C1694 C 0.8877 0.40716 0.87064 0.0
C1695 C 0.86764 0.40713 0.88302 0.0
C1696 C 0.89402 0.40987 0.85948 0.0
C1697 C 0.88725 0.41321 0.84871 0.0
C1698 C 0.87454 0.40773 0.87098 0.0
C1699 C 0.8741 0.41293 0.84926 0.0
C1700 C 0.85451 0.4061 0.88329 0.0
C1701 C 0.86794 0.41062 0.90508 0.0
N1702 N 0.86817 0.41037 0.86023 0.0
N1703 N 0.87393 0.40911 0.89395 0.0
H1704 H 0.5868 0.87433 0.8386 0.0
H1705 H 0.59317 0.87938 0.91229 0.0
H1706 H 0.59003 0.90946 0.85843 0.0
H1707 H 0.59321 0.8443 0.89209 0.0
H1708 H 0.59602 0.89052 0.89252 0.0
H1709 H 0.59298 0.86325 0.85763 0.0
C1710 C 0.589 0.87973 0.84691 0.0
C1711 C 0.58768 0.89282 0.847 0.0
C1712 C 0.59564 0.88037 0.89242 0.0
C1713 C 0.59462 0.88018 0.86888 0.0
C1714 C 0.59403 0.87399 0.90372 0.0
C1715 C 0.59271 0.8609 0.90382 0.0
C1716 C 0.59577 0.87362 0.88111 0.0
C1717 C 0.59404 0.85441 0.89245 0.0
C1718 C 0.59255 0.8734 0.85779 0.0
C1719 C 0.59081 0.89935 0.85799 0.0
N1720 N 0.59526 0.86086 0.88152 0.0
N1721 N 0.59391 0.89294 0.86856 0.0
H1722 H 0.90932 0.59247 0.13658 0.0
H1723 H 0.84266 0.59071 0.10312 0.0
H1724 H 0.87396 0.59067 0.15621 0.0
H1725 H 0.87805 0.58775 0.0837 0.0
H1726 H 0.85393 0.5963 0.12228 0.0
H1727 H 0.89799 0.59639 0.11705 0.0
C1728 C 0.89919 0.59316 0.13684 0.0
C1729 C 0.89256 0.59098 0.14799 0.0
C1730 C 0.85921 0.59464 0.11377 0.0
C1731 C 0.87954 0.59533 0.12567 0.0
C1732 C 0.85278 0.59148 0.10281 0.0
C1733 C 0.85944 0.58851 0.09186 0.0
C1734 C 0.87239 0.59478 0.11376 0.0
C1735 C 0.87254 0.58975 0.09199 0.0
C1736 C 0.89272 0.59536 0.12567 0.0
C1737 C 0.87945 0.59208 0.14778 0.0
N1738 N 0.8786 0.59261 0.10282 0.0
N1739 N 0.87336 0.59398 0.13676 0.0
H1740 H 0.41024 0.87841 0.08616 0.0
H1741 H 0.41441 0.87407 0.15999 0.0
H1742 H 0.40993 0.84347 0.10656 0.0
H1743 H 0.4102 0.90896 0.13994 0.0
H1744 H 0.40923 0.86267 0.14086 0.0
H1745 H 0.40656 0.88965 0.10575 0.0
C1746 C 0.40916 0.87308 0.09474 0.0
C1747 C 0.41062 0.86 0.09476 0.0
C1748 C 0.40922 0.87283 0.14066 0.0
C1749 C 0.4066 0.87282 0.11727 0.0
C1750 C 0.4122 0.87935 0.1516 0.0
C1751 C 0.41295 0.89248 0.1515 0.0
C1752 C 0.40716 0.87948 0.12949 0.0
C1753 C 0.40984 0.89883 0.14041 0.0
C1754 C 0.40706 0.87951 0.10593 0.0
C1755 C 0.40899 0.85357 0.10612 0.0
N1756 N 0.40731 0.89226 0.12978 0.0
N1757 N 0.40731 0.86006 0.11696 0.0
H1758 H 0.58465 0.11852 0.09038 0.0
H1759 H 0.57724 0.12631 0.16365 0.0
H1760 H 0.58536 0.15438 0.10911 0.0
H1761 H 0.5829 0.0905 0.14565 0.0
H1762 H 0.58304 0.13679 0.14417 0.0
H1763 H 0.58701 0.10813 0.11063 0.0
C1764 C 0.58554 0.12422 0.09873 0.0
C1765 C 0.5846 0.13733 0.09808 0.0
C1766 C 0.58322 0.12664 0.14451 0.0
C1767 C 0.58711 0.12549 0.12133 0.0
C1768 C 0.57988 0.12064 0.15564 0.0
C1769 C 0.5794 0.10751 0.15621 0.0
C1770 C 0.58591 0.11946 0.13381 0.0
C1771 C 0.58304 0.10065 0.14559 0.0
C1772 C 0.58688 0.11828 0.11031 0.0
C1773 C 0.58593 0.14425 0.10919 0.0
N1774 N 0.58594 0.10671 0.13475 0.0
N1775 N 0.58688 0.13824 0.12039 0.0
H1776 H 0.65845 0.63117 0.91507 0.0
H1777 H 0.58505 0.62316 0.91277 0.0
H1778 H 0.64041 0.59529 0.91003 0.0
H1779 H 0.60329 0.65902 0.90853 0.0
H1780 H 0.60516 0.61276 0.90953 0.0
H1781 H 0.63857 0.64157 0.91055 0.0
C1782 C 0.65034 0.62548 0.91284 0.0
C1783 C 0.65103 0.61234 0.91311 0.0
C1784 C 0.60475 0.62289 0.90908 0.0
C1785 C 0.62821 0.62419 0.90806 0.0
C1786 C 0.59327 0.62884 0.91095 0.0
C1787 C 0.59254 0.64197 0.91109 0.0
C1788 C 0.61565 0.63013 0.90758 0.0
C1789 C 0.60345 0.64887 0.90856 0.0
C1790 C 0.63899 0.63143 0.91023 0.0
C1791 C 0.64027 0.60545 0.91002 0.0
N1792 N 0.61461 0.64287 0.90715 0.0
N1793 N 0.62924 0.61145 0.90784 0.0
H1794 H 0.4077 0.63963 0.9123 0.0
H1795 H 0.34081 0.60628 0.9076 0.0
H1796 H 0.37238 0.65921 0.91504 0.0
H1797 H 0.37589 0.58659 0.91199 0.0
H1798 H 0.35246 0.62589 0.90497 0.0
H1799 H 0.39637 0.62047 0.90682 0.0
C1800 C 0.39758 0.63997 0.91152 0.0
C1801 C 0.39097 0.65099 0.91434 0.0
C1802 C 0.35761 0.61724 0.90631 0.0
C1803 C 0.37794 0.62907 0.90817 0.0
C1804 C 0.35096 0.60604 0.90775 0.0
C1805 C 0.35739 0.59482 0.91022 0.0
C1806 C 0.37075 0.6172 0.9073 0.0
C1807 C 0.37055 0.59505 0.91029 0.0
C1808 C 0.39111 0.62901 0.90844 0.0
C1809 C 0.37786 0.65088 0.91311 0.0
N1810 N 0.37678 0.60608 0.90902 0.0
N1811 N 0.37176 0.64005 0.91028 0.0
H1812 H 0.39414 0.34379 0.90804 0.0
H1813 H 0.35756 0.40914 0.9091 0.0
H1814 H 0.41241 0.37989 0.90924 0.0
H1815 H 0.34052 0.37316 0.91636 0.0
H1816 H 0.37713 0.39844 0.90356 0.0
H1817 H 0.374 0.35436 0.90524 0.0
C1818 C 0.39396 0.35393 0.90744 0.0
C1819 C 0.40494 0.36098 0.90911 0.0
C1820 C 0.36904 0.39289 0.90618 0.0
C1821 C 0.38193 0.37313 0.90604 0.0
C1822 C 0.35787 0.39899 0.90931 0.0
C1823 C 0.34748 0.39203 0.9134 0.0
C1824 C 0.36976 0.37976 0.90708 0.0
C1825 C 0.34837 0.3789 0.91345 0.0
C1826 C 0.38245 0.35996 0.90591 0.0
C1827 C 0.40414 0.37409 0.90818 0.0
N1828 N 0.35935 0.3732 0.91047 0.0
N1829 N 0.39281 0.37975 0.90689 0.0
H1830 H 0.59346 0.36086 0.90934 0.0
H1831 H 0.65965 0.39586 0.90688 0.0
H1832 H 0.6292 0.34219 0.91274 0.0
H1833 H 0.62418 0.41455 0.91237 0.0
H1834 H 0.64841 0.37618 0.90322 0.0
H1835 H 0.60445 0.38045 0.90463 0.0
C1836 C 0.6036 0.36082 0.90884 0.0
C1837 C 0.61044 0.34994 0.91165 0.0
C1838 C 0.64309 0.38464 0.90503 0.0
C1839 C 0.62304 0.3723 0.90634 0.0
C1840 C 0.6495 0.39588 0.90706 0.0
C1841 C 0.64284 0.40681 0.91014 0.0
C1842 C 0.62995 0.38435 0.90603 0.0
C1843 C 0.62969 0.4063 0.91022 0.0
C1844 C 0.60987 0.37202 0.90621 0.0
C1845 C 0.62357 0.35042 0.91083 0.0
N1846 N 0.62368 0.39523 0.90835 0.0
N1847 N 0.62945 0.36145 0.90839 0.0
H1848 H 0.5887 0.37947 0.08517 0.0
H1849 H 0.66224 0.37361 0.0786 0.0
H1850 H 0.60833 0.34409 0.0858 0.0
H1851 H 0.64335 0.4089 0.08456 0.0
H1852 H 0.64293 0.36259 0.08395 0.0
H1853 H 0.60865 0.39035 0.08788 0.0
C1854 C 0.59719 0.37397 0.08612 0.0
C1855 C 0.59687 0.36086 0.08506 0.0
C1856 C 0.64303 0.37274 0.08428 0.0
C1857 C 0.61979 0.37327 0.08794 0.0
C1858 C 0.65406 0.37904 0.0812 0.0
C1859 C 0.65435 0.39219 0.08096 0.0
C1860 C 0.63213 0.37963 0.08696 0.0
C1861 C 0.64352 0.39875 0.08454 0.0
C1862 C 0.60859 0.3802 0.08766 0.0
C1863 C 0.60814 0.35422 0.08646 0.0
N1864 N 0.63278 0.39239 0.08719 0.0
N1865 N 0.61917 0.36051 0.0876 0.0
H1866 H 0.61736 0.58683 0.07902 0.0
H1867 H 0.62352 0.66056 0.07831 0.0
H1868 H 0.65281 0.60602 0.08252 0.0
H1869 H 0.58816 0.64146 0.08302 0.0
H1870 H 0.63446 0.64085 0.08221 0.0
H1871 H 0.60651 0.60661 0.08284 0.0
C1872 C 0.62287 0.59519 0.08078 0.0
C1873 C 0.63601 0.59483 0.08027 0.0
C1874 C 0.62431 0.64099 0.0826 0.0
C1875 C 0.62364 0.61755 0.08448 0.0
C1876 C 0.61806 0.65225 0.08035 0.0
C1877 C 0.60491 0.6526 0.08016 0.0
C1878 C 0.61737 0.62996 0.08446 0.0
C1879 C 0.59831 0.64158 0.08299 0.0
C1880 C 0.61666 0.60648 0.08298 0.0
C1881 C 0.64267 0.6059 0.08274 0.0
N1882 N 0.60461 0.63065 0.08481 0.0
N1883 N 0.63641 0.61686 0.08452 0.0
H1884 H 0.33588 0.62155 0.08014 0.0
H1885 H 0.40916 0.6158 0.08769 0.0
H1886 H 0.35471 0.58625 0.08618 0.0
H1887 H 0.38947 0.65112 0.08906 0.0
H1888 H 0.38923 0.60483 0.09014 0.0
H1889 H 0.35498 0.63256 0.08623 0.0
C1890 C 0.34399 0.61611 0.08293 0.0
C1891 C 0.34377 0.60296 0.08246 0.0
C1892 C 0.38927 0.61498 0.09014 0.0
C1893 C 0.36575 0.61551 0.08929 0.0
C1894 C 0.40066 0.62126 0.08875 0.0
C1895 C 0.40094 0.63439 0.08796 0.0
C1896 C 0.37806 0.62188 0.09054 0.0
C1897 C 0.38967 0.64098 0.08951 0.0
C1898 C 0.3549 0.62241 0.08644 0.0
C1899 C 0.3545 0.5964 0.08631 0.0
N1900 N 0.37865 0.63465 0.09048 0.0
N1901 N 0.36513 0.60274 0.08934 0.0
H1902 H 0.4079 0.35607 0.08547 0.0
H1903 H 0.34146 0.39067 0.08678 0.0
H1904 H 0.3724 0.33713 0.08115 0.0
H1905 H 0.37692 0.40947 0.08162 0.0
H1906 H 0.35273 0.37102 0.09057 0.0
H1907 H 0.39666 0.37554 0.09007 0.0
C1908 C 0.39775 0.35593 0.08577 0.0
C1909 C 0.39107 0.34502 0.08271 0.0
C1910 C 0.35804 0.3795 0.0888 0.0
C1911 C 0.37817 0.36725 0.08785 0.0
C1912 C 0.35161 0.39072 0.08668 0.0
C1913 C 0.35826 0.40167 0.08368 0.0
C1914 C 0.37119 0.37927 0.08798 0.0
C1915 C 0.37141 0.4012 0.08371 0.0
C1916 C 0.39134 0.36706 0.08832 0.0
C1917 C 0.37792 0.34538 0.08327 0.0
N1918 N 0.37744 0.39016 0.08569 0.0
N1919 N 0.3719 0.35636 0.08561 0.0
H1920 H 0.91757 0.65972 0.62554 0.0
H1921 H 0.91518 0.58595 0.61808 0.0
H1922 H 0.91307 0.64124 0.58982 0.0
H1923 H 0.91304 0.60473 0.65386 0.0
H1924 H 0.91184 0.60602 0.60759 0.0
H1925 H 0.91339 0.63987 0.63611 0.0
C1926 C 0.91552 0.65151 0.61992 0.0
C1927 C 0.91584 0.65209 0.60678 0.0
C1928 C 0.9119 0.60574 0.61774 0.0
C1929 C 0.91121 0.62927 0.61883 0.0
C1930 C 0.91381 0.59427 0.62374 0.0
C1931 C 0.91457 0.59369 0.63687 0.0
C1932 C 0.91091 0.61675 0.62491 0.0
C1933 C 0.91261 0.60475 0.64372 0.0
C1934 C 0.91311 0.64017 0.62596 0.0
C1935 C 0.913 0.64119 0.59997 0.0
N1936 N 0.91108 0.61586 0.63766 0.0
N1937 N 0.91101 0.63018 0.60608 0.0
H1938 H 0.33981 0.92039 0.62657 0.0
H1939 H 0.41312 0.91275 0.62078 0.0
H1940 H 0.3584 0.91307 0.59139 0.0
H1941 H 0.39348 0.91269 0.65617 0.0
H1942 H 0.39316 0.90996 0.60994 0.0
H1943 H 0.35903 0.91492 0.63766 0.0
C1944 C 0.34791 0.91748 0.62118 0.0
C1945 C 0.34757 0.91736 0.60803 0.0
C1946 C 0.39322 0.91031 0.62009 0.0
C1947 C 0.3697 0.91122 0.62067 0.0
C1948 C 0.40463 0.91189 0.6263 0.0
C1949 C 0.40494 0.91317 0.63939 0.0
C1950 C 0.38203 0.91018 0.62703 0.0
C1951 C 0.39367 0.91188 0.64605 0.0
C1952 C 0.35889 0.91431 0.62752 0.0
C1953 C 0.35829 0.91337 0.60153 0.0
N1954 N 0.38264 0.91069 0.63978 0.0
N1955 N 0.369 0.91067 0.60791 0.0
H1956 H 0.08052 0.40951 0.62069 0.0
H1957 H 0.07875 0.33583 0.62902 0.0
H1958 H 0.08532 0.39121 0.65645 0.0
H1959 H 0.08092 0.354 0.59293 0.0
H1960 H 0.08361 0.35579 0.63912 0.0
H1961 H 0.08311 0.38932 0.61023 0.0
C1962 C 0.08231 0.40126 0.62634 0.0
C1963 C 0.08254 0.40202 0.63948 0.0
C1964 C 0.08323 0.35539 0.62898 0.0
C1965 C 0.08534 0.37881 0.62756 0.0
C1966 C 0.08045 0.34398 0.6232 0.0
C1967 C 0.07926 0.34329 0.61011 0.0
C1968 C 0.08466 0.36623 0.62164 0.0
C1969 C 0.08165 0.35412 0.60305 0.0
C1970 C 0.0838 0.38973 0.62036 0.0
C1971 C 0.085 0.39105 0.64631 0.0
N1972 N 0.08404 0.36519 0.60891 0.0
N1973 N 0.08609 0.37986 0.64028 0.0
H1974 H 0.60786 0.09333 0.6576 0.0
H1975 H 0.66438 0.08162 0.62906 0.0
H1976 H 0.59234 0.0864 0.62087 0.0
H1977 H 0.64554 0.08768 0.59378 0.0
H1978 H 0.64537 0.08748 0.64006 0.0
H1979 H 0.62841 0.09636 0.64808 0.0
C1980 C 0.60876 0.09256 0.64751 0.0
C1981 C 0.59842 0.08929 0.64006 0.0
C1982 C 0.64539 0.08795 0.62994 0.0
C1983 C 0.62207 0.09215 0.6291 0.0
C1984 C 0.65629 0.08447 0.62362 0.0
C1985 C 0.65651 0.084 0.61048 0.0
C1986 C 0.63455 0.09096 0.62305 0.0
C1987 C 0.64577 0.08783 0.60393 0.0
C1988 C 0.62057 0.09411 0.64207 0.0
C1989 C 0.60009 0.08867 0.62702 0.0
N1990 N 0.63516 0.09093 0.61029 0.0
N1991 N 0.61173 0.08988 0.62199 0.0
H1992 H 0.90844 0.3614 0.40754 0.0
H1993 H 0.90954 0.39236 0.33964 0.0
H1994 H 0.91229 0.34073 0.37295 0.0
H1995 H 0.91166 0.4132 0.37428 0.0
H1996 H 0.90452 0.37348 0.35162 0.0
H1997 H 0.90363 0.38027 0.39542 0.0
C1998 C 0.908 0.36076 0.39741 0.0
C1999 C 0.91103 0.34955 0.39123 0.0
C2000 C 0.90586 0.38223 0.35658 0.0
C2001 C 0.90563 0.37108 0.37733 0.0
C2002 C 0.90869 0.39303 0.34974 0.0
C2003 C 0.9113 0.40431 0.356 0.0
C2004 C 0.90567 0.38273 0.36975 0.0
C2005 C 0.90995 0.40465 0.36909 0.0
C2006 C 0.9053 0.37155 0.39049 0.0
C2007 C 0.91024 0.34924 0.3781 0.0
N2008 N 0.90743 0.39397 0.37555 0.0
N2009 N 0.90781 0.35989 0.37157 0.0
H2010 H 0.66029 0.91813 0.37119 0.0
H2011 H 0.58682 0.91284 0.37856 0.0
H2012 H 0.64194 0.9126 0.40683 0.0
H2013 H 0.60574 0.91274 0.34278 0.0
H2014 H 0.60691 0.9094 0.38895 0.0
H2015 H 0.64072 0.91301 0.36054 0.0
C2016 C 0.65217 0.91568 0.37678 0.0
C2017 C 0.65267 0.916 0.38992 0.0
C2018 C 0.60666 0.9099 0.37882 0.0
C2019 C 0.63017 0.91026 0.37778 0.0
C2020 C 0.59518 0.91185 0.37287 0.0
C2021 C 0.59464 0.91331 0.3598 0.0
C2022 C 0.6177 0.90957 0.37166 0.0
C2023 C 0.60574 0.91181 0.35289 0.0
C2024 C 0.64099 0.91272 0.37068 0.0
C2025 C 0.64192 0.91258 0.39668 0.0
N2026 N 0.61685 0.91026 0.35892 0.0
N2027 N 0.63104 0.91006 0.39053 0.0
H2028 H 0.08666 0.66282 0.37201 0.0
H2029 H 0.09079 0.58899 0.37588 0.0
H2030 H 0.08979 0.64261 0.40693 0.0
H2031 H 0.0948 0.60952 0.34125 0.0
H2032 H 0.09314 0.60854 0.38752 0.0
H2033 H 0.09227 0.64373 0.3607 0.0
C2034 C 0.08872 0.6544 0.37732 0.0
C2035 C 0.08758 0.65426 0.39043 0.0
C2036 C 0.09373 0.60877 0.37739 0.0
C2037 C 0.09385 0.63231 0.37751 0.0
C2038 C 0.09238 0.59759 0.37073 0.0
C2039 C 0.09242 0.59766 0.35757 0.0
C2040 C 0.09491 0.62013 0.37084 0.0
C2041 C 0.09463 0.60906 0.35139 0.0
C2042 C 0.09194 0.6435 0.37085 0.0
C2043 C 0.09047 0.64313 0.39681 0.0
N2044 N 0.09555 0.61988 0.35808 0.0
N2045 N 0.09327 0.63254 0.39028 0.0
H2046 H 0.41369 0.08926 0.37604 0.0
H2047 H 0.34037 0.0826 0.36947 0.0
H2048 H 0.39451 0.09094 0.34045 0.0
H2049 H 0.35863 0.08968 0.40488 0.0
H2050 H 0.35982 0.08778 0.35862 0.0
H2051 H 0.39362 0.09174 0.38675 0.0
C2052 C 0.40527 0.09037 0.37047 0.0
C2053 C 0.40574 0.08971 0.35734 0.0
C2054 C 0.35955 0.0884 0.36875 0.0
C2055 C 0.38271 0.09235 0.36954 0.0
C2056 C 0.34844 0.0854 0.37496 0.0
C2057 C 0.34794 0.08554 0.38811 0.0
C2058 C 0.3703 0.09136 0.37574 0.0
C2059 C 0.35864 0.08937 0.39473 0.0
C2060 C 0.39381 0.09179 0.3766 0.0
C2061 C 0.39456 0.09131 0.3506 0.0
N2062 N 0.36946 0.09192 0.38849 0.0
N2063 N 0.38347 0.09233 0.35678 0.0
H2064 H 0.62908 0.91441 0.66134 0.0
H2065 H 0.62329 0.9113 0.58757 0.0
H2066 H 0.59369 0.91211 0.64186 0.0
H2067 H 0.65851 0.90863 0.6073 0.0
H2068 H 0.61221 0.90808 0.60733 0.0
H2069 H 0.63988 0.90878 0.64197 0.0
C2070 C 0.62356 0.9125 0.65303 0.0
C2071 C 0.61048 0.91394 0.65315 0.0
C2072 C 0.62236 0.90797 0.60733 0.0
C2073 C 0.62281 0.90768 0.63087 0.0
C2074 C 0.6287 0.90981 0.59603 0.0
C2075 C 0.64184 0.91045 0.59582 0.0
C2076 C 0.62921 0.90694 0.61853 0.0
C2077 C 0.64837 0.90833 0.60705 0.0
C2078 C 0.62973 0.90928 0.64196 0.0
C2079 C 0.6038 0.91122 0.64215 0.0
N2080 N 0.64198 0.9069 0.61799 0.0
N2081 N 0.61006 0.90845 0.63139 0.0
H2082 H 0.65733 0.08925 0.39809 0.0
H2083 H 0.59167 0.08988 0.36227 0.0
H2084 H 0.6214 0.08436 0.41607 0.0
H2085 H 0.62758 0.08629 0.34395 0.0
H2086 H 0.60248 0.09396 0.38208 0.0
H2087 H 0.64653 0.09416 0.37844 0.0
C2088 C 0.64718 0.08944 0.39797 0.0
C2089 C 0.64025 0.08616 0.40866 0.0
C2090 C 0.60798 0.0925 0.37367 0.0
C2091 C 0.62787 0.09172 0.38626 0.0
C2092 C 0.60182 0.09023 0.36235 0.0
C2093 C 0.60875 0.0875 0.3515 0.0
C2094 C 0.62114 0.09206 0.37412 0.0
C2095 C 0.62188 0.08813 0.35214 0.0
C2096 C 0.64102 0.09221 0.38675 0.0
C2097 C 0.62711 0.08663 0.40799 0.0
N2098 N 0.62765 0.09018 0.3633 0.0
N2099 N 0.62135 0.08919 0.39694 0.0
H2100 H 0.92299 0.6268 0.33621 0.0
H2101 H 0.91639 0.61766 0.40936 0.0
H2102 H 0.91787 0.59061 0.35357 0.0
H2103 H 0.91463 0.65381 0.39127 0.0
H2104 H 0.91402 0.60757 0.38895 0.0
H2105 H 0.91713 0.63685 0.35591 0.0
C2106 C 0.92045 0.62096 0.34413 0.0
C2107 C 0.9211 0.60784 0.34331 0.0
C2108 C 0.91392 0.61771 0.38945 0.0
C2109 C 0.91455 0.6193 0.36596 0.0
C2110 C 0.91528 0.62348 0.40111 0.0
C2111 C 0.91591 0.6366 0.40199 0.0
C2112 C 0.91339 0.6251 0.37857 0.0
C2113 C 0.9143 0.64367 0.39102 0.0
C2114 C 0.91708 0.62671 0.35538 0.0
C2115 C 0.91758 0.60075 0.35382 0.0
N2116 N 0.91334 0.63783 0.37973 0.0
N2117 N 0.91467 0.60657 0.36478 0.0
H2118 H 0.40593 0.91843 0.3576 0.0
H2119 H 0.33969 0.91549 0.39275 0.0
H2120 H 0.37025 0.92289 0.33904 0.0
H2121 H 0.3751 0.92093 0.41156 0.0
H2122 H 0.35096 0.91284 0.3729 0.0
H2123 H 0.39486 0.91403 0.37723 0.0
C2124 C 0.39578 0.91827 0.3576 0.0
C2125 C 0.389 0.9212 0.34671 0.0
C2126 C 0.35626 0.91444 0.38142 0.0
C2127 C 0.3763 0.91621 0.36911 0.0
C2128 C 0.34984 0.91589 0.39275 0.0
C2129 C 0.35646 0.91861 0.40379 0.0
C2130 C 0.36937 0.91564 0.38115 0.0
C2131 C 0.36961 0.91901 0.40324 0.0
C2132 C 0.38947 0.91581 0.36881 0.0
C2133 C 0.37585 0.92083 0.34725 0.0
N2134 N 0.37563 0.91767 0.3921 0.0
N2135 N 0.36993 0.9185 0.35829 0.0
H2136 H 0.09221 0.40766 0.36321 0.0
H2137 H 0.09109 0.33931 0.39328 0.0
H2138 H 0.08789 0.37339 0.34212 0.0
H2139 H 0.08917 0.37365 0.41462 0.0
H2140 H 0.09592 0.35155 0.37451 0.0
H2141 H 0.097 0.39524 0.3819 0.0
C2142 C 0.09252 0.39754 0.36244 0.0
C2143 C 0.0894 0.39154 0.35116 0.0
C2144 C 0.09467 0.35639 0.38335 0.0
C2145 C 0.09478 0.37729 0.37248 0.0
C2146 C 0.09197 0.3494 0.39409 0.0
C2147 C 0.08946 0.35549 0.40548 0.0
C2148 C 0.09484 0.36955 0.38403 0.0
C2149 C 0.09081 0.36858 0.40598 0.0
C2150 C 0.09522 0.39045 0.37312 0.0
C2151 C 0.09002 0.3784 0.35068 0.0
N2152 N 0.09321 0.37519 0.39537 0.0
N2153 N 0.09247 0.37171 0.36123 0.0
H2154 H 0.341 0.08983 0.60278 0.0
H2155 H 0.40768 0.08832 0.63702 0.0
H2156 H 0.3762 0.08371 0.58377 0.0
H2157 H 0.37222 0.08514 0.65627 0.0
H2158 H 0.39639 0.09224 0.61743 0.0
H2159 H 0.35251 0.09365 0.62228 0.0
C2160 C 0.35115 0.08952 0.60265 0.0
C2161 C 0.35765 0.08626 0.59168 0.0
C2162 C 0.3911 0.09088 0.62599 0.0
C2163 C 0.37084 0.09058 0.61393 0.0
C2164 C 0.39754 0.0887 0.63718 0.0
C2165 C 0.39088 0.08621 0.64825 0.0
C2166 C 0.37792 0.09061 0.62589 0.0
C2167 C 0.37773 0.08684 0.64791 0.0
C2168 C 0.35771 0.09165 0.61379 0.0
C2169 C 0.3708 0.08601 0.59205 0.0
N2170 N 0.37168 0.08884 0.63688 0.0
N2171 N 0.37696 0.08801 0.60302 0.0
H2172 H 0.90554 0.33955 0.60919 0.0
H2173 H 0.90921 0.40667 0.6424 0.0
H2174 H 0.9088 0.37453 0.5891 0.0
H2175 H 0.91656 0.37149 0.661 0.0
H2176 H 0.90316 0.39507 0.62348 0.0
H2177 H 0.90345 0.3513 0.62878 0.0
C2178 C 0.90553 0.3497 0.60885 0.0
C2179 C 0.90757 0.35607 0.59753 0.0
C2180 C 0.90591 0.38991 0.63178 0.0
C2181 C 0.90527 0.36955 0.61989 0.0
C2182 C 0.90933 0.39651 0.64258 0.0
C2183 C 0.91358 0.39003 0.6532 0.0
C2184 C 0.90666 0.37675 0.63168 0.0
C2185 C 0.91352 0.37687 0.65294 0.0
C2186 C 0.9044 0.3564 0.62005 0.0
C2187 C 0.90744 0.36924 0.59765 0.0
N2188 N 0.91024 0.37067 0.64232 0.0
N2189 N 0.90648 0.37554 0.60868 0.0
H2190 H 0.09058 0.58812 0.64134 0.0
H2191 H 0.08223 0.6189 0.58519 0.0
H2192 H 0.08131 0.62409 0.65742 0.0
H2193 H 0.08943 0.65322 0.60538 0.0
H2194 H 0.08592 0.60707 0.6043 0.0
H2195 H 0.09491 0.59845 0.62136 0.0
C2196 C 0.08955 0.59821 0.6407 0.0
C2197 C 0.0853 0.60522 0.65099 0.0
C2198 C 0.08712 0.61714 0.60455 0.0
C2199 C 0.0898 0.61706 0.62803 0.0
C2200 C 0.08488 0.62393 0.59361 0.0
C2201 C 0.0854 0.63707 0.59372 0.0
C2202 C 0.08983 0.62354 0.61574 0.0
C2203 C 0.08889 0.64309 0.60488 0.0
C2204 C 0.09188 0.60409 0.62923 0.0
C2205 C 0.08435 0.61828 0.64967 0.0
N2206 N 0.09074 0.63629 0.61551 0.0
N2207 N 0.08643 0.62376 0.63836 0.0
H2208 H 0.0763 0.21569 0.40267 0.0
H2209 H 0.09782 0.28395 0.42495 0.0
H2210 H 0.09403 0.22267 0.43829 0.0
H2211 H 0.06204 0.27661 0.40768 0.0
H2212 H 0.10303 0.26152 0.42302 0.0
H2213 H 0.07782 0.23823 0.39781 0.0
C2214 C 0.08095 0.2219 0.40923 0.0
C2215 C 0.08505 0.21743 0.42088 0.0
C2216 C 0.09422 0.26494 0.41931 0.0
C2217 C 0.08691 0.24294 0.41539 0.0
C2218 C 0.09129 0.27769 0.42033 0.0
C2219 C 0.0795 0.28202 0.41648 0.0
C2220 C 0.0854 0.25664 0.41414 0.0
C2221 C 0.07122 0.27356 0.41077 0.0
C2222 C 0.08173 0.23471 0.4065 0.0
C2223 C 0.09077 0.22584 0.42921 0.0
N2224 N 0.0743 0.26123 0.40982 0.0
N2225 N 0.09149 0.23823 0.42633 0.0
H2226 H 0.78283 0.08625 0.41214 0.0
H2227 H 0.72246 0.07182 0.45446 0.0
H2228 H 0.7829 0.06715 0.44782 0.0
H2229 H 0.71891 0.08502 0.41638 0.0
H2230 H 0.74504 0.07325 0.45272 0.0
H2231 H 0.75986 0.08867 0.4139 0.0
C2232 C 0.77805 0.08267 0.42035 0.0
C2233 C 0.78476 0.0764 0.4298 0.0
C2234 C 0.7394 0.07588 0.4447 0.0
C2235 C 0.75872 0.0792 0.4319 0.0
C2236 C 0.72645 0.07507 0.4457 0.0
C2237 C 0.71878 0.07814 0.43549 0.0
C2238 C 0.74488 0.07969 0.43336 0.0
C2239 C 0.72451 0.0825 0.42445 0.0
C2240 C 0.76498 0.08402 0.42133 0.0
C2241 C 0.77813 0.07193 0.44023 0.0
N2242 N 0.73728 0.08303 0.42361 0.0
N2243 N 0.76556 0.07341 0.44097 0.0
H2244 H 0.93332 0.77935 0.44835 0.0
H2245 H 0.91505 0.71639 0.41166 0.0
H2246 H 0.91625 0.78047 0.41168 0.0
H2247 H 0.93455 0.71843 0.44707 0.0
H2248 H 0.91361 0.7395 0.41155 0.0
H2249 H 0.93182 0.75675 0.44826 0.0
C2250 C 0.92922 0.77482 0.44024 0.0
C2251 C 0.92503 0.78183 0.42995 0.0
C2252 C 0.91815 0.73482 0.41933 0.0
C2253 C 0.92334 0.75564 0.42971 0.0
C2254 C 0.91896 0.72167 0.41941 0.0
C2255 C 0.92501 0.71548 0.42934 0.0
C2256 C 0.92335 0.74171 0.42931 0.0
C2257 C 0.9299 0.72274 0.43915 0.0
C2258 C 0.92836 0.76184 0.44018 0.0
C2259 C 0.91964 0.77539 0.41979 0.0
N2260 N 0.92897 0.73539 0.43886 0.0
N2261 N 0.91903 0.7626 0.41986 0.0
H2262 H 0.22198 0.93937 0.40592 0.0
H2263 H 0.27627 0.90913 0.44082 0.0
H2264 H 0.21587 0.90458 0.4255 0.0
H2265 H 0.28336 0.92647 0.40503 0.0
H2266 H 0.25422 0.90656 0.43502 0.0
H2267 H 0.24438 0.93445 0.4045 0.0
C2268 C 0.22535 0.93051 0.40957 0.0
C2269 C 0.21717 0.92232 0.41577 0.0
C2270 C 0.26065 0.91061 0.42829 0.0
C2271 C 0.24272 0.91689 0.41466 0.0
C2272 C 0.2732 0.91211 0.43161 0.0
C2273 C 0.28155 0.91803 0.42338 0.0
C2274 C 0.25635 0.91551 0.41686 0.0
C2275 C 0.27717 0.92181 0.41158 0.0
C2276 C 0.2381 0.9277 0.40876 0.0
C2277 C 0.22193 0.91105 0.42053 0.0
N2278 N 0.26475 0.92079 0.40879 0.0
N2279 N 0.23449 0.9088 0.42018 0.0
H2280 H 0.08324 0.71752 0.58753 0.0
H2281 H 0.0723 0.78223 0.55172 0.0
H2282 H 0.07838 0.7217 0.54759 0.0
H2283 H 0.08164 0.78129 0.59107 0.0
H2284 H 0.07608 0.7599 0.55038 0.0
H2285 H 0.08438 0.74055 0.58947 0.0
C2286 C 0.08262 0.72326 0.57918 0.0
C2287 C 0.08053 0.71773 0.56741 0.0
C2288 C 0.0774 0.76449 0.55934 0.0
C2289 C 0.08178 0.74387 0.56953 0.0
C2290 C 0.07519 0.77729 0.56012 0.0
C2291 C 0.07652 0.78359 0.57155 0.0
C2292 C 0.08078 0.75776 0.57014 0.0
C2293 C 0.08048 0.77673 0.58207 0.0
C2294 C 0.08323 0.73637 0.58029 0.0
C2295 C 0.07978 0.72555 0.55688 0.0
N2296 N 0.08231 0.76408 0.58117 0.0
N2297 N 0.08032 0.73816 0.55822 0.0
H2298 H 0.22526 0.05715 0.59111 0.0
H2299 H 0.27607 0.0927 0.55633 0.0
H2300 H 0.2158 0.09231 0.57361 0.0
H2301 H 0.28531 0.07514 0.59152 0.0
H2302 H 0.25402 0.09341 0.56268 0.0
H2303 H 0.24722 0.06376 0.59212 0.0
C2304 C 0.2278 0.06641 0.58779 0.0
C2305 C 0.21879 0.07422 0.58227 0.0
C2306 C 0.26091 0.08973 0.56917 0.0
C2307 C 0.24386 0.08163 0.58297 0.0
C2308 C 0.27346 0.0893 0.56554 0.0
C2309 C 0.28244 0.08385 0.57343 0.0
C2310 C 0.25727 0.08422 0.58055 0.0
C2311 C 0.27863 0.07948 0.58523 0.0
C2312 C 0.2403 0.07018 0.58838 0.0
C2313 C 0.22251 0.08608 0.578 0.0
N2314 N 0.26624 0.07944 0.58831 0.0
N2315 N 0.23486 0.08931 0.57811 0.0
H2316 H 0.91844 0.28288 0.60002 0.0
H2317 H 0.9417 0.22203 0.59774 0.0
H2318 H 0.90821 0.27185 0.56252 0.0
H2319 H 0.90696 0.21255 0.57946 0.0
H2320 H 0.93477 0.24392 0.59914 0.0
H2321 H 0.91926 0.26057 0.60604 0.0
C2322 C 0.91596 0.27577 0.5932 0.0
C2323 C 0.91332 0.2791 0.58076 0.0
C2324 C 0.92848 0.23697 0.59522 0.0
C2325 C 0.9142 0.25384 0.58752 0.0
C2326 C 0.93244 0.22453 0.59439 0.0
C2327 C 0.92481 0.21554 0.5886 0.0
C2328 C 0.91702 0.24049 0.58979 0.0
C2329 C 0.91301 0.21922 0.58415 0.0
C2330 C 0.91654 0.26311 0.5966 0.0
C2331 C 0.91035 0.26959 0.57219 0.0
N2332 N 0.90961 0.23152 0.58449 0.0
N2333 N 0.9109 0.25737 0.57571 0.0
H2334 H 0.78433 0.90673 0.57821 0.0
H2335 H 0.71453 0.92518 0.59849 0.0
H2336 H 0.77462 0.94223 0.59491 0.0
H2337 H 0.72315 0.90628 0.56384 0.0
H2338 H 0.737 0.92503 0.60384 0.0
H2339 H 0.76217 0.90033 0.57965 0.0
C2340 C 0.77761 0.91298 0.58257 0.0
C2341 C 0.78119 0.92503 0.58639 0.0
C2342 C 0.73388 0.92056 0.59527 0.0
C2343 C 0.75612 0.91776 0.5882 0.0
C2344 C 0.72111 0.92056 0.59227 0.0
C2345 C 0.7171 0.91571 0.58075 0.0
C2346 C 0.74255 0.91545 0.58677 0.0
C2347 C 0.72595 0.91008 0.57283 0.0
C2348 C 0.76501 0.90936 0.58332 0.0
C2349 C 0.77215 0.93289 0.5918 0.0
N2350 N 0.73831 0.91015 0.57596 0.0
N2351 N 0.76 0.92914 0.59251 0.0
H2352 H 0.44196 0.09354 0.27562 0.0
H2353 H 0.40329 0.06083 0.22571 0.0
H2354 H 0.40535 0.07988 0.28586 0.0
H2355 H 0.42235 0.09502 0.21572 0.0
H2356 H 0.40369 0.06728 0.24778 0.0
H2357 H 0.43533 0.09429 0.25363 0.0
C2358 C 0.43242 0.091 0.27324 0.0
C2359 C 0.42415 0.08668 0.28249 0.0
C2360 C 0.40747 0.07353 0.24072 0.0
C2361 C 0.41668 0.08707 0.25742 0.0
C2362 C 0.40726 0.06985 0.22817 0.0
C2363 C 0.41276 0.07745 0.21896 0.0
C2364 C 0.41367 0.08463 0.2441 0.0
C2365 C 0.41792 0.08898 0.22258 0.0
C2366 C 0.42864 0.09145 0.26072 0.0
C2367 C 0.41193 0.08336 0.27896 0.0
N2368 N 0.41857 0.09209 0.23494 0.0
N2369 N 0.40865 0.0833 0.26662 0.0
H2370 H 0.90617 0.43971 0.22339 0.0
H2371 H 0.93908 0.40717 0.27712 0.0
H2372 H 0.92438 0.40441 0.21609 0.0
H2373 H 0.90287 0.42368 0.284 0.0
H2374 H 0.93382 0.40537 0.25481 0.0
H2375 H 0.90421 0.43393 0.24555 0.0
C2376 C 0.90942 0.43058 0.22643 0.0
C2377 C 0.91538 0.42248 0.21799 0.0
C2378 C 0.92687 0.40903 0.26125 0.0
C2379 C 0.91366 0.41603 0.24328 0.0
C2380 C 0.92987 0.41005 0.27394 0.0
C2381 C 0.92135 0.41551 0.28232 0.0
C2382 C 0.9155 0.41398 0.25688 0.0
C2383 C 0.90961 0.4193 0.27779 0.0
C2384 C 0.9083 0.42728 0.23904 0.0
C2385 C 0.91962 0.41083 0.22235 0.0
N2386 N 0.90714 0.4188 0.26528 0.0
N2387 N 0.91899 0.40808 0.2348 0.0
H2388 H 0.58385 0.91368 0.28065 0.0
H2389 H 0.56559 0.95138 0.2183 0.0
H2390 H 0.56233 0.94793 0.27908 0.0
H2391 H 0.58382 0.91528 0.21657 0.0
H2392 H 0.56641 0.9506 0.24092 0.0
H2393 H 0.58581 0.91429 0.25759 0.0
C2394 C 0.57961 0.92133 0.27549 0.0
C2395 C 0.57284 0.93072 0.2818 0.0
C2396 C 0.57027 0.9428 0.23568 0.0
C2397 C 0.57509 0.9315 0.25562 0.0
C2398 C 0.56979 0.94324 0.22269 0.0
C2399 C 0.57453 0.93331 0.2155 0.0
C2400 C 0.57544 0.93231 0.24171 0.0
C2401 C 0.58001 0.92311 0.22178 0.0
C2402 C 0.58071 0.92166 0.26236 0.0
C2403 C 0.56754 0.94041 0.27468 0.0
N2404 N 0.58025 0.92281 0.23459 0.0
N2405 N 0.56878 0.94052 0.26205 0.0
H2406 H 0.09462 0.58188 0.21392 0.0
H2407 H 0.07835 0.59696 0.28546 0.0
H2408 H 0.05818 0.59469 0.22579 0.0
H2409 H 0.0974 0.56318 0.27411 0.0
H2410 H 0.07707 0.60334 0.2633 0.0
H2411 H 0.10162 0.58231 0.23594 0.0
C2412 C 0.08826 0.58521 0.22111 0.0
C2413 C 0.07582 0.58822 0.21814 0.0
C2414 C 0.08187 0.59473 0.26575 0.0
C2415 C 0.08376 0.58891 0.24306 0.0
C2416 C 0.08267 0.59114 0.27834 0.0
C2417 C 0.08797 0.57954 0.28152 0.0
C2418 C 0.08669 0.5868 0.25642 0.0
C2419 C 0.09323 0.57219 0.27198 0.0
C2420 C 0.09222 0.58538 0.23361 0.0
C2421 C 0.06784 0.59227 0.22777 0.0
N2422 N 0.09242 0.57591 0.25982 0.0
N2423 N 0.07193 0.59246 0.23984 0.0
H2424 H 0.41433 0.91222 0.78332 0.0
H2425 H 0.43594 0.94771 0.72073 0.0
H2426 H 0.43666 0.94595 0.78165 0.0
H2427 H 0.41657 0.9122 0.71923 0.0
H2428 H 0.43446 0.94745 0.74333 0.0
H2429 H 0.41346 0.9121 0.76018 0.0
C2430 C 0.419 0.91959 0.77812 0.0
C2431 C 0.42563 0.92908 0.78444 0.0
C2432 C 0.4305 0.93966 0.73815 0.0
C2433 C 0.42461 0.92903 0.75817 0.0
C2434 C 0.43134 0.93981 0.72517 0.0
C2435 C 0.42647 0.9299 0.71805 0.0
C2436 C 0.42479 0.92948 0.74424 0.0
C2437 C 0.42048 0.92001 0.72439 0.0
C2438 C 0.41851 0.91951 0.76495 0.0
C2439 C 0.4315 0.93839 0.77726 0.0
N2440 N 0.41987 0.92 0.73718 0.0
N2441 N 0.43085 0.93811 0.76459 0.0
H2442 H 0.08271 0.40897 0.78275 0.0
H2443 H 0.07731 0.45205 0.7215 0.0
H2444 H 0.06911 0.44706 0.78169 0.0
H2445 H 0.08162 0.41192 0.7187 0.0
H2446 H 0.07866 0.4505 0.74413 0.0
H2447 H 0.08613 0.40993 0.75985 0.0
C2448 C 0.08056 0.41753 0.77774 0.0
C2449 C 0.0755 0.42791 0.78408 0.0
C2450 C 0.07937 0.44199 0.73863 0.0
C2451 C 0.0795 0.42912 0.75816 0.0
C2452 C 0.07862 0.44288 0.72567 0.0
C2453 C 0.07915 0.43207 0.71821 0.0
C2454 C 0.08054 0.43018 0.74432 0.0
C2455 C 0.08108 0.42047 0.72415 0.0
C2456 C 0.08248 0.41806 0.76472 0.0
C2457 C 0.07288 0.43878 0.77719 0.0
N2458 N 0.08155 0.41979 0.73692 0.0
N2459 N 0.0749 0.43908 0.76466 0.0
H2460 H 0.57513 0.05108 0.71747 0.0
H2461 H 0.58427 0.0875 0.78219 0.0
H2462 H 0.5842 0.09049 0.7184 0.0
H2463 H 0.57902 0.04757 0.77823 0.0
H2464 H 0.58606 0.08919 0.75918 0.0
H2465 H 0.57825 0.04992 0.73992 0.0
C2466 C 0.57783 0.05952 0.72244 0.0
C2467 C 0.57927 0.07092 0.7161 0.0
C2468 C 0.58467 0.08007 0.76341 0.0
C2469 C 0.58276 0.06973 0.74206 0.0
C2470 C 0.58368 0.07909 0.77651 0.0
C2471 C 0.58131 0.0674 0.78209 0.0
C2472 C 0.58332 0.06925 0.75597 0.0
C2473 C 0.58064 0.05681 0.77434 0.0
C2474 C 0.57965 0.05886 0.73531 0.0
C2475 C 0.58296 0.08152 0.723 0.0
N2476 N 0.58154 0.05802 0.76174 0.0
N2477 N 0.58442 0.08072 0.73569 0.0
H2478 H 0.93691 0.5508 0.71928 0.0
H2479 H 0.91567 0.58578 0.78224 0.0
H2480 H 0.91539 0.58507 0.71799 0.0
H2481 H 0.94179 0.55494 0.77984 0.0
H2482 H 0.91377 0.58545 0.75915 0.0
H2483 H 0.93684 0.55173 0.74189 0.0
C2484 C 0.93214 0.55857 0.72376 0.0
C2485 C 0.92624 0.56793 0.71668 0.0
C2486 C 0.91989 0.57879 0.76376 0.0
C2487 C 0.92617 0.56911 0.7429 0.0
C2488 C 0.92097 0.57897 0.77689 0.0
C2489 C 0.92892 0.57039 0.78298 0.0
C2490 C 0.92674 0.56992 0.7568 0.0
C2491 C 0.93557 0.56177 0.77562 0.0
C2492 C 0.93211 0.55911 0.73675 0.0
C2493 C 0.92011 0.57768 0.72311 0.0
N2494 N 0.93431 0.56176 0.76301 0.0
N2495 N 0.92027 0.57807 0.73591 0.0
H2496 H 0.21413 0.40872 0.0875 0.0
H2497 H 0.28059 0.40928 0.08332 0.0
H2498 H 0.21772 0.44529 0.07056 0.0
H2499 H 0.2757 0.44901 0.07746 0.0
H2500 H 0.25773 0.40707 0.08535 0.0
H2501 H 0.23702 0.40822 0.09049 0.0
C2502 C 0.21973 0.41663 0.08446 0.0
C2503 C 0.21405 0.42699 0.07864 0.0
C2504 C 0.26167 0.4163 0.0839 0.0
C2505 C 0.2401 0.42648 0.08188 0.0
C2506 C 0.27473 0.41755 0.0827 0.0
C2507 C 0.28002 0.42931 0.08005 0.0
C2508 C 0.25398 0.42695 0.08249 0.0
C2509 C 0.27204 0.43972 0.0793 0.0
C2510 C 0.2328 0.41631 0.08607 0.0
C2511 C 0.22168 0.43703 0.07494 0.0
N2512 N 0.25948 0.43826 0.0804 0.0
N2513 N 0.23424 0.4365 0.07662 0.0
H2514 H 0.22416 0.59292 0.94485 0.0
H2515 H 0.28535 0.59518 0.92294 0.0
H2516 H 0.21489 0.5764 0.90915 0.0
H2517 H 0.27384 0.55891 0.90929 0.0
H2518 H 0.26315 0.60152 0.92393 0.0
H2519 H 0.24613 0.59432 0.93827 0.0
C2520 C 0.22673 0.58992 0.93548 0.0
C2521 C 0.21777 0.58458 0.92749 0.0
C2522 C 0.26556 0.59229 0.92047 0.0
C2523 C 0.24282 0.58587 0.92004 0.0
C2524 C 0.27817 0.58871 0.9198 0.0
C2525 C 0.28133 0.57648 0.91615 0.0
C2526 C 0.25618 0.58361 0.91724 0.0
C2527 C 0.27172 0.56839 0.91228 0.0
C2528 C 0.23923 0.59078 0.93171 0.0
C2529 C 0.22154 0.58068 0.91552 0.0
N2530 N 0.25956 0.57207 0.91297 0.0
N2531 N 0.23389 0.58105 0.91228 0.0
H2532 H 0.42152 0.22217 0.95362 0.0
H2533 H 0.41596 0.28192 0.90849 0.0
H2534 H 0.4163 0.218 0.91371 0.0
H2535 H 0.43096 0.28195 0.94607 0.0
H2536 H 0.41224 0.25912 0.91038 0.0
H2537 H 0.42055 0.24476 0.95125 0.0
C2538 C 0.42007 0.22602 0.94433 0.0
C2539 C 0.41918 0.21819 0.93382 0.0
C2540 C 0.41628 0.2642 0.91819 0.0
C2541 C 0.41824 0.24424 0.93099 0.0
C2542 C 0.41837 0.27717 0.91713 0.0
C2543 C 0.42389 0.28379 0.92709 0.0
C2544 C 0.41953 0.258 0.92937 0.0
C2545 C 0.42683 0.27722 0.93809 0.0
C2546 C 0.41955 0.23896 0.94297 0.0
C2547 C 0.41711 0.22374 0.92204 0.0
N2548 N 0.42462 0.26475 0.93891 0.0
N2549 N 0.41686 0.23648 0.9209 0.0
H2550 H 0.77337 0.40461 0.94164 0.0
H2551 H 0.72414 0.44094 0.90555 0.0
H2552 H 0.78376 0.4214 0.90639 0.0
H2553 H 0.71349 0.40602 0.92284 0.0
H2554 H 0.74598 0.43386 0.90511 0.0
H2555 H 0.75143 0.40436 0.93485 0.0
C2556 C 0.77103 0.40793 0.93233 0.0
C2557 C 0.7803 0.41304 0.92454 0.0
C2558 C 0.73883 0.42759 0.90867 0.0
C2559 C 0.75529 0.41319 0.91692 0.0
C2560 C 0.72639 0.43164 0.90895 0.0
C2561 C 0.71708 0.42403 0.91423 0.0
C2562 C 0.742 0.41608 0.91418 0.0
C2563 C 0.72044 0.4121 0.91862 0.0
C2564 C 0.75855 0.40776 0.92845 0.0
C2565 C 0.77685 0.41732 0.91261 0.0
N2566 N 0.73271 0.40861 0.91882 0.0
N2567 N 0.76453 0.41763 0.90928 0.0
H2568 H 0.59106 0.78127 0.91121 0.0
H2569 H 0.58363 0.71507 0.91197 0.0
H2570 H 0.5557 0.78022 0.93088 0.0
H2571 H 0.54471 0.72381 0.91872 0.0
H2572 H 0.5883 0.73762 0.91148 0.0
H2573 H 0.58892 0.75869 0.90683 0.0
C2574 C 0.58289 0.7763 0.91461 0.0
C2575 C 0.57362 0.78261 0.92153 0.0
C2576 C 0.57871 0.73461 0.91275 0.0
C2577 C 0.5711 0.75692 0.91665 0.0
C2578 C 0.57604 0.72172 0.91306 0.0
C2579 C 0.56378 0.71756 0.91553 0.0
C2580 C 0.569 0.74329 0.91492 0.0
C2581 C 0.55432 0.72657 0.91695 0.0
C2582 C 0.5817 0.7634 0.91219 0.0
C2583 C 0.56318 0.77576 0.92564 0.0
N2584 N 0.55716 0.73894 0.91677 0.0
N2585 N 0.56221 0.76336 0.92311 0.0
H2586 H 0.71611 0.58804 0.08177 0.0
H2587 H 0.77952 0.5493 0.07136 0.0
H2588 H 0.71866 0.54929 0.07039 0.0
H2589 H 0.78002 0.58857 0.08102 0.0
H2590 H 0.75697 0.54907 0.07384 0.0
H2591 H 0.73914 0.58849 0.08413 0.0
C2592 C 0.72148 0.57963 0.0799 0.0
C2593 C 0.7155 0.56866 0.07572 0.0
C2594 C 0.76191 0.55778 0.0755 0.0
C2595 C 0.74161 0.56908 0.07844 0.0
C2596 C 0.77484 0.5579 0.07407 0.0
C2597 C 0.78162 0.56901 0.07583 0.0
C2598 C 0.75555 0.56891 0.07852 0.0
C2599 C 0.77509 0.57983 0.07954 0.0
C2600 C 0.73459 0.5799 0.08122 0.0
C2601 C 0.72286 0.55802 0.07345 0.0
N2602 N 0.76233 0.57957 0.0806 0.0
N2603 N 0.73546 0.55852 0.07479 0.0
H2604 H 0.44567 0.71707 0.06538 0.0
H2605 H 0.41072 0.78049 0.08525 0.0
H2606 H 0.41103 0.71644 0.08632 0.0
H2607 H 0.44594 0.77807 0.06544 0.0
H2608 H 0.41045 0.7574 0.08683 0.0
H2609 H 0.44572 0.73969 0.06633 0.0
C2610 C 0.43802 0.72171 0.0702 0.0
C2611 C 0.42828 0.71481 0.07571 0.0
C2612 C 0.41823 0.76199 0.08221 0.0
C2613 C 0.42825 0.74104 0.07683 0.0
C2614 C 0.41841 0.77513 0.08133 0.0
C2615 C 0.42832 0.78121 0.07511 0.0
C2616 C 0.42806 0.75499 0.07687 0.0
C2617 C 0.43803 0.77384 0.07021 0.0
C2618 C 0.43806 0.7347 0.07077 0.0
C2619 C 0.41871 0.72141 0.08192 0.0
N2620 N 0.43762 0.7612 0.07117 0.0
N2621 N 0.41888 0.73422 0.08226 0.0
H2622 H 0.58787 0.21573 0.08812 0.0
H2623 H 0.5863 0.28246 0.08903 0.0
H2624 H 0.56016 0.21998 0.05892 0.0
H2625 H 0.56488 0.27803 0.05498 0.0
H2626 H 0.58737 0.25953 0.09096 0.0
H2627 H 0.59001 0.23866 0.08898 0.0
C2628 C 0.58219 0.22148 0.08196 0.0
C2629 C 0.57382 0.21591 0.07345 0.0
C2630 C 0.58259 0.26356 0.08299 0.0
C2631 C 0.57611 0.24209 0.0744 0.0
C2632 C 0.58195 0.27667 0.08191 0.0
C2633 C 0.57544 0.28218 0.07187 0.0
C2634 C 0.57668 0.25599 0.07391 0.0
C2635 C 0.56994 0.27426 0.06294 0.0
C2636 C 0.58338 0.23459 0.08248 0.0
C2637 C 0.56674 0.22378 0.06565 0.0
N2638 N 0.57064 0.26166 0.06422 0.0
N2639 N 0.56808 0.23638 0.06631 0.0
H2640 H 0.92817 0.77949 0.56292 0.0
H2641 H 0.91539 0.71909 0.60097 0.0
H2642 H 0.9002 0.78271 0.592 0.0
H2643 H 0.91507 0.71909 0.56045 0.0
H2644 H 0.91245 0.74204 0.6006 0.0
H2645 H 0.92717 0.75674 0.56472 0.0
C2646 C 0.92188 0.7754 0.56977 0.0
C2647 C 0.91424 0.78298 0.57732 0.0
C2648 C 0.9128 0.73688 0.59186 0.0
C2649 C 0.91317 0.75695 0.57948 0.0
C2650 C 0.91449 0.72384 0.59204 0.0
C2651 C 0.91567 0.71716 0.58073 0.0
C2652 C 0.91257 0.74317 0.58031 0.0
C2653 C 0.91439 0.7238 0.56942 0.0
C2654 C 0.92126 0.76244 0.57072 0.0
C2655 C 0.90619 0.77715 0.58598 0.0
N2656 N 0.91317 0.73644 0.56951 0.0
N2657 N 0.90593 0.76439 0.58694 0.0
H2658 H 0.21811 0.92856 0.5952 0.0
H2659 H 0.28216 0.90284 0.57139 0.0
H2660 H 0.22075 0.89325 0.5756 0.0
H2661 H 0.27993 0.92726 0.60358 0.0
H2662 H 0.25979 0.89836 0.57351 0.0
H2663 H 0.24063 0.92769 0.59933 0.0
C2664 C 0.2234 0.92052 0.59195 0.0
C2665 C 0.21759 0.91104 0.58491 0.0
C2666 C 0.26424 0.90449 0.58027 0.0
C2667 C 0.24337 0.9101 0.58942 0.0
C2668 C 0.27699 0.90708 0.57904 0.0
C2669 C 0.28285 0.91554 0.58724 0.0
C2670 C 0.25724 0.91065 0.58957 0.0
C2671 C 0.27575 0.92071 0.59704 0.0
C2672 C 0.23624 0.92001 0.59435 0.0
C2673 C 0.22487 0.90079 0.58101 0.0
N2674 N 0.26323 0.9184 0.59777 0.0
N2675 N 0.23744 0.90072 0.58309 0.0
H2676 H 0.09524 0.21387 0.59204 0.0
H2677 H 0.06366 0.27519 0.56497 0.0
H2678 H 0.06148 0.21373 0.56968 0.0
H2679 H 0.0817 0.27642 0.60122 0.0
H2680 H 0.06628 0.25258 0.56462 0.0
H2681 H 0.09338 0.23682 0.59407 0.0
C2682 C 0.08742 0.21863 0.58763 0.0
C2683 C 0.07852 0.21188 0.58063 0.0
C2684 C 0.06968 0.25779 0.57266 0.0
C2685 C 0.07652 0.23792 0.58274 0.0
C2686 C 0.06827 0.27073 0.57284 0.0
C2687 C 0.07243 0.27774 0.58318 0.0
C2688 C 0.07545 0.25173 0.58278 0.0
C2689 C 0.07831 0.27136 0.5931 0.0
C2690 C 0.08637 0.23167 0.58882 0.0
C2691 C 0.06857 0.2185 0.57515 0.0
N2692 N 0.0797 0.25866 0.59265 0.0
N2693 N 0.06793 0.23114 0.57621 0.0
H2694 H 0.78435 0.09759 0.58727 0.0
H2695 H 0.72045 0.07063 0.56026 0.0
H2696 H 0.78217 0.0662 0.5618 0.0
H2697 H 0.72212 0.08482 0.59817 0.0
H2698 H 0.743 0.07347 0.55842 0.0
H2699 H 0.76132 0.09704 0.58938 0.0
C2700 C 0.77904 0.09063 0.58212 0.0
C2701 C 0.78515 0.08189 0.57439 0.0
C2702 C 0.73842 0.07602 0.56712 0.0
C2703 C 0.75906 0.0814 0.57657 0.0
C2704 C 0.72553 0.07446 0.56818 0.0
C2705 C 0.71938 0.07739 0.57945 0.0
C2706 C 0.74526 0.0807 0.57731 0.0
C2707 C 0.72651 0.08235 0.58936 0.0
C2708 C 0.76597 0.09031 0.58337 0.0
C2709 C 0.77786 0.07305 0.56794 0.0
N2710 N 0.73913 0.08386 0.58807 0.0
N2711 N 0.76522 0.0731 0.5691 0.0
H2712 H 0.93932 0.22084 0.42567 0.0
H2713 H 0.90751 0.28463 0.40486 0.0
H2714 H 0.89938 0.22165 0.41884 0.0
H2715 H 0.93628 0.28188 0.4332 0.0
H2716 H 0.9059 0.26151 0.40477 0.0
H2717 H 0.94011 0.24338 0.42249 0.0
C2718 C 0.93071 0.22571 0.42335 0.0
C2719 C 0.91921 0.21934 0.42271 0.0
C2720 C 0.91252 0.26607 0.41098 0.0
C2721 C 0.92015 0.24521 0.41902 0.0
C2722 C 0.91347 0.27918 0.41102 0.0
C2723 C 0.922 0.28513 0.41909 0.0
C2724 C 0.92042 0.25902 0.41878 0.0
C2725 C 0.92951 0.27769 0.4269 0.0
C2726 C 0.93119 0.2386 0.42158 0.0
C2727 C 0.90841 0.22622 0.41955 0.0
N2728 N 0.92862 0.26504 0.42646 0.0
N2729 N 0.90912 0.23887 0.41787 0.0
H2730 H 0.71757 0.90471 0.43119 0.0
H2731 H 0.78133 0.89484 0.42683 0.0
H2732 H 0.72051 0.92356 0.39551 0.0
H2733 H 0.77971 0.93004 0.40693 0.0
H2734 H 0.75889 0.89188 0.42288 0.0
H2735 H 0.74001 0.90035 0.43049 0.0
C2736 C 0.7229 0.90768 0.42307 0.0
C2737 C 0.7172 0.91459 0.41344 0.0
C2738 C 0.76349 0.9002 0.41932 0.0
C2739 C 0.74289 0.90962 0.41255 0.0
C2740 C 0.77631 0.90183 0.42145 0.0
C2741 C 0.78231 0.91283 0.41743 0.0
C2742 C 0.75671 0.90961 0.41308 0.0
C2743 C 0.77538 0.92154 0.41042 0.0
C2744 C 0.73571 0.90508 0.42262 0.0
C2745 C 0.72454 0.91821 0.40313 0.0
N2746 N 0.76291 0.91979 0.40855 0.0
N2747 N 0.73708 0.91594 0.4031 0.0
H2748 H 0.09923 0.78313 0.41298 0.0
H2749 H 0.07476 0.71865 0.44067 0.0
H2750 H 0.06748 0.77996 0.43789 0.0
H2751 H 0.08774 0.72017 0.40232 0.0
H2752 H 0.07699 0.7413 0.44211 0.0
H2753 H 0.09946 0.76006 0.41093 0.0
C2754 C 0.09235 0.77761 0.418 0.0
C2755 C 0.08329 0.78345 0.42558 0.0
C2756 C 0.07943 0.73666 0.43341 0.0
C2757 C 0.08371 0.75733 0.4235 0.0
C2758 C 0.07822 0.72371 0.43257 0.0
C2759 C 0.08095 0.71749 0.4213 0.0
C2760 C 0.08356 0.7435 0.42298 0.0
C2761 C 0.08543 0.72462 0.41115 0.0
C2762 C 0.09247 0.76451 0.41679 0.0
C2763 C 0.07457 0.77588 0.43187 0.0
N2764 N 0.0866 0.73731 0.41222 0.0
N2765 N 0.07507 0.76324 0.43078 0.0
H2766 H 0.21906 0.10863 0.42141 0.0
H2767 H 0.28284 0.10096 0.42556 0.0
H2768 H 0.22137 0.07243 0.40342 0.0
H2769 H 0.28019 0.07822 0.39219 0.0
H2770 H 0.26048 0.10531 0.42416 0.0
H2771 H 0.24127 0.11206 0.41674 0.0
C2772 C 0.22418 0.10149 0.41632 0.0
C2773 C 0.21845 0.09009 0.41308 0.0
C2774 C 0.26481 0.09974 0.41686 0.0
C2775 C 0.24385 0.09384 0.40796 0.0
C2776 C 0.27759 0.09716 0.41773 0.0
C2777 C 0.28333 0.08909 0.40906 0.0
C2778 C 0.25769 0.09406 0.40735 0.0
C2779 C 0.27611 0.08445 0.3991 0.0
C2780 C 0.23689 0.1034 0.41377 0.0
C2781 C 0.22549 0.08124 0.40635 0.0
N2782 N 0.26358 0.08674 0.3987 0.0
N2783 N 0.23786 0.08324 0.40414 0.0
H2784 H 0.59925 0.91365 0.71887 0.0
H2785 H 0.57221 0.94189 0.78225 0.0
H2786 H 0.56762 0.93886 0.72067 0.0
H2787 H 0.5871 0.90423 0.78154 0.0
H2788 H 0.57482 0.94313 0.75963 0.0
H2789 H 0.59874 0.91196 0.74195 0.0
C2790 C 0.59223 0.91882 0.7241 0.0
C2791 C 0.58343 0.92637 0.71786 0.0
C2792 C 0.57757 0.93461 0.76443 0.0
C2793 C 0.583 0.92468 0.74401 0.0
C2794 C 0.57615 0.9339 0.77737 0.0
C2795 C 0.57934 0.92289 0.78382 0.0
C2796 C 0.58238 0.92431 0.75784 0.0
C2797 C 0.58442 0.91286 0.77692 0.0
C2798 C 0.59193 0.91782 0.7372 0.0
C2799 C 0.57453 0.93286 0.72506 0.0
N2800 N 0.5858 0.9138 0.76425 0.0
N2801 N 0.57461 0.93194 0.73772 0.0
H2802 H 0.08854 0.59632 0.7175 0.0
H2803 H 0.06623 0.56409 0.77985 0.0
H2804 H 0.07372 0.55865 0.71868 0.0
H2805 H 0.1003 0.58597 0.78073 0.0
H2806 H 0.06615 0.56547 0.75709 0.0
H2807 H 0.09088 0.59573 0.7405 0.0
C2808 C 0.08589 0.58792 0.72255 0.0
C2809 C 0.08087 0.57754 0.71615 0.0
C2810 C 0.07364 0.56999 0.76227 0.0
C2811 C 0.08328 0.57696 0.74225 0.0
C2812 C 0.07366 0.56929 0.77527 0.0
C2813 C 0.08332 0.57491 0.78222 0.0
C2814 C 0.08319 0.57654 0.75608 0.0
C2815 C 0.09272 0.58146 0.7757 0.0
C2816 C 0.08726 0.5876 0.73561 0.0
C2817 C 0.07761 0.56688 0.72316 0.0
N2818 N 0.09239 0.58218 0.76293 0.0
N2819 N 0.07871 0.56694 0.73581 0.0
H2820 H 0.40248 0.0935 0.71406 0.0
H2821 H 0.41507 0.06039 0.77885 0.0
H2822 H 0.42915 0.06345 0.71887 0.0
H2823 H 0.41653 0.10088 0.77813 0.0
H2824 H 0.41266 0.06028 0.75618 0.0
H2825 H 0.40102 0.09541 0.73715 0.0
C2826 C 0.40798 0.08733 0.71995 0.0
C2827 C 0.416 0.07835 0.7146 0.0
C2828 C 0.41332 0.06919 0.76104 0.0
C2829 C 0.41407 0.08024 0.74063 0.0
C2830 C 0.41467 0.06929 0.77399 0.0
C2831 C 0.41624 0.08067 0.78043 0.0
C2832 C 0.41334 0.08051 0.75442 0.0
C2833 C 0.41549 0.09189 0.77353 0.0
C2834 C 0.40717 0.08846 0.73303 0.0
C2835 C 0.42295 0.07058 0.7226 0.0
N2836 N 0.41419 0.09155 0.76081 0.0
N2837 N 0.42171 0.0716 0.73519 0.0
H2838 H 0.9266 0.39478 0.72042 0.0
H2839 H 0.89254 0.42277 0.78103 0.0
H2840 H 0.90246 0.42723 0.71942 0.0
H2841 H 0.92881 0.40486 0.78216 0.0
H2842 H 0.89167 0.41895 0.75837 0.0
H2843 H 0.92284 0.39302 0.74305 0.0
C2844 C 0.92027 0.40134 0.7249 0.0
C2845 C 0.91494 0.41125 0.7181 0.0
C2846 C 0.8997 0.41568 0.76365 0.0
C2847 C 0.91057 0.40924 0.74383 0.0
C2848 C 0.90019 0.41779 0.77656 0.0
C2849 C 0.91084 0.41426 0.78343 0.0
C2850 C 0.90982 0.4098 0.75765 0.0
C2851 C 0.9205 0.40788 0.77717 0.0
C2852 C 0.9182 0.40037 0.7378 0.0
C2853 C 0.90687 0.41954 0.72437 0.0
N2854 N 0.91979 0.4059 0.76461 0.0
N2855 N 0.90497 0.41839 0.73691 0.0
H2856 H 0.575 0.06089 0.22253 0.0
H2857 H 0.59694 0.09242 0.28532 0.0
H2858 H 0.57965 0.10115 0.22235 0.0
H2859 H 0.56626 0.06608 0.28344 0.0
H2860 H 0.59629 0.09427 0.26221 0.0
H2861 H 0.57822 0.06082 0.24508 0.0
C2862 C 0.57688 0.06972 0.22717 0.0
C2863 C 0.57691 0.08108 0.22052 0.0
C2864 C 0.58971 0.08817 0.26698 0.0
C2865 C 0.58071 0.08095 0.24639 0.0
C2866 C 0.5901 0.08707 0.28007 0.0
C2867 C 0.58163 0.0791 0.28626 0.0
C2868 C 0.58108 0.08094 0.26018 0.0
C2869 C 0.57292 0.07238 0.27907 0.0
C2870 C 0.57867 0.06965 0.24006 0.0
C2871 C 0.57944 0.09221 0.22714 0.0
N2872 N 0.57298 0.07333 0.26641 0.0
N2873 N 0.58123 0.09188 0.2398 0.0
H2874 H 0.93927 0.56952 0.21395 0.0
H2875 H 0.92201 0.6034 0.27706 0.0
H2876 H 0.90749 0.59464 0.21368 0.0
H2877 H 0.93048 0.56384 0.27469 0.0
H2878 H 0.91983 0.60387 0.25399 0.0
H2879 H 0.94025 0.57138 0.23668 0.0
C2880 C 0.93258 0.57555 0.21864 0.0
C2881 C 0.92321 0.58185 0.21191 0.0
C2882 C 0.92205 0.59513 0.25866 0.0
C2883 C 0.92438 0.58404 0.23793 0.0
C2884 C 0.9233 0.59484 0.27175 0.0
C2885 C 0.92647 0.58358 0.27782 0.0
C2886 C 0.92434 0.58418 0.25173 0.0
C2887 C 0.92803 0.57275 0.27049 0.0
C2888 C 0.93312 0.57654 0.23161 0.0
C2889 C 0.91479 0.58953 0.21855 0.0
N2890 N 0.92713 0.57337 0.25785 0.0
N2891 N 0.91557 0.59044 0.23127 0.0
H2892 H 0.43157 0.93823 0.21859 0.0
H2893 H 0.39773 0.91694 0.28007 0.0
H2894 H 0.40975 0.90416 0.21687 0.0
H2895 H 0.43642 0.92894 0.27952 0.0
H2896 H 0.39856 0.91456 0.25706 0.0
H2897 H 0.42956 0.93814 0.24132 0.0
C2898 C 0.42624 0.93078 0.22298 0.0
C2899 C 0.42086 0.92115 0.21582 0.0
C2900 C 0.40685 0.91756 0.2621 0.0
C2901 C 0.41847 0.92109 0.24187 0.0
C2902 C 0.4064 0.91894 0.27517 0.0
C2903 C 0.417 0.92322 0.28173 0.0
C2904 C 0.41785 0.9208 0.25566 0.0
C2905 C 0.428 0.92566 0.27491 0.0
C2906 C 0.42517 0.9307 0.23595 0.0
C2907 C 0.4141 0.91171 0.22207 0.0
N2908 N 0.42807 0.92461 0.26226 0.0
N2909 N 0.41302 0.91193 0.23481 0.0
H2910 H 0.06948 0.43884 0.28524 0.0
H2911 H 0.10203 0.41789 0.22276 0.0
H2912 H 0.0917 0.40499 0.28605 0.0
H2913 H 0.06372 0.43098 0.22436 0.0
H2914 H 0.1017 0.41532 0.24575 0.0
H2915 H 0.07109 0.43913 0.26252 0.0
C2916 C 0.07481 0.43151 0.28066 0.0
C2917 C 0.08042 0.42183 0.28756 0.0
C2918 C 0.09338 0.41861 0.24095 0.0
C2919 C 0.08231 0.42218 0.26148 0.0
C2920 C 0.09355 0.4201 0.22789 0.0
C2921 C 0.08291 0.42474 0.22164 0.0
C2922 C 0.08262 0.42209 0.24768 0.0
C2923 C 0.07216 0.42742 0.22874 0.0
C2924 C 0.07565 0.43165 0.26768 0.0
C2925 C 0.08718 0.41257 0.28104 0.0
N2926 N 0.07236 0.42624 0.24137 0.0
N2927 N 0.088 0.41299 0.26829 0.0
H2928 H 0.71512 0.57008 0.90049 0.0
H2929 H 0.77899 0.57156 0.89054 0.0
H2930 H 0.71955 0.60576 0.91906 0.0
H2931 H 0.77829 0.59257 0.92513 0.0
H2932 H 0.75671 0.57632 0.88753 0.0
H2933 H 0.73752 0.56989 0.89595 0.0
C2934 C 0.72077 0.57802 0.90335 0.0
C2935 C 0.71549 0.5879 0.91026 0.0
C2936 C 0.76147 0.57994 0.89573 0.0
C2937 C 0.74116 0.58778 0.90506 0.0
C2938 C 0.77421 0.57735 0.89739 0.0
C2939 C 0.78041 0.58145 0.90825 0.0
C2940 C 0.75498 0.58672 0.90498 0.0
C2941 C 0.7738 0.58901 0.91676 0.0
C2942 C 0.73356 0.57797 0.90065 0.0
C2943 C 0.72324 0.59795 0.91373 0.0
N2944 N 0.7614 0.59131 0.915 0.0
N2945 N 0.73576 0.59749 0.91136 0.0
H2946 H 0.78132 0.43473 0.06728 0.0
H2947 H 0.72035 0.39822 0.08126 0.0
H2948 H 0.78391 0.40767 0.09727 0.0
H2949 H 0.72088 0.43873 0.08068 0.0
H2950 H 0.74332 0.39837 0.08409 0.0
H2951 H 0.75853 0.43301 0.06798 0.0
C2952 C 0.77709 0.42833 0.07394 0.0
C2953 C 0.78449 0.42135 0.08226 0.0
C2954 C 0.73826 0.40716 0.08355 0.0
C2955 C 0.75845 0.41927 0.08296 0.0
C2956 C 0.72522 0.4071 0.08192 0.0
C2957 C 0.71868 0.41848 0.08058 0.0
C2958 C 0.74469 0.41863 0.08352 0.0
C2959 C 0.72547 0.42972 0.08154 0.0
C2960 C 0.76411 0.42742 0.07437 0.0
C2961 C 0.77849 0.41325 0.09076 0.0
N2962 N 0.73811 0.42951 0.08269 0.0
N2963 N 0.76573 0.41232 0.09084 0.0
H2964 H 0.59876 0.71929 0.08063 0.0
H2965 H 0.55937 0.77927 0.06996 0.0
H2966 H 0.55832 0.71889 0.0832 0.0
H2967 H 0.59117 0.78285 0.09472 0.0
H2968 H 0.56098 0.75653 0.07146 0.0
H2969 H 0.59833 0.74221 0.08356 0.0
C2970 C 0.58984 0.72394 0.08203 0.0
C2971 C 0.57854 0.71717 0.08145 0.0
C2972 C 0.5676 0.7623 0.07659 0.0
C2973 C 0.57806 0.74316 0.08455 0.0
C2974 C 0.56675 0.77525 0.07566 0.0
C2975 C 0.57516 0.78291 0.08223 0.0
C2976 C 0.5771 0.75691 0.08387 0.0
C2977 C 0.58449 0.7772 0.08957 0.0
C2978 C 0.58963 0.73697 0.08371 0.0
C2979 C 0.56727 0.72369 0.08338 0.0
N2980 N 0.58534 0.76445 0.09009 0.0
N2981 N 0.5673 0.73633 0.08458 0.0
H2982 H 0.27823 0.59621 0.08119 0.0
H2983 H 0.21509 0.56359 0.06067 0.0
H2984 H 0.2761 0.55732 0.07008 0.0
H2985 H 0.21471 0.58863 0.09249 0.0
H2986 H 0.23793 0.56474 0.06033 0.0
H2987 H 0.25513 0.59672 0.08244 0.0
C2988 C 0.27294 0.58779 0.07912 0.0
C2989 C 0.27909 0.57671 0.07554 0.0
C2990 C 0.23282 0.57003 0.06734 0.0
C2991 C 0.25293 0.57736 0.0766 0.0
C2992 C 0.2198 0.56945 0.0675 0.0
C2993 C 0.213 0.57596 0.07668 0.0
C2994 C 0.23912 0.57735 0.07626 0.0
C2995 C 0.21963 0.58339 0.08532 0.0
C2996 C 0.25982 0.5881 0.07983 0.0
C2997 C 0.2718 0.56606 0.07293 0.0
N2998 N 0.23238 0.58392 0.0849 0.0
N2999 N 0.25912 0.56671 0.07336 0.0
H3000 H 0.40988 0.21583 0.09201 0.0
H3001 H 0.43596 0.27767 0.06049 0.0
H3002 H 0.43013 0.21603 0.05693 0.0
H3003 H 0.40168 0.27876 0.08202 0.0
H3004 H 0.43583 0.2549 0.06176 0.0
H3005 H 0.40819 0.2388 0.0908 0.0
C3006 C 0.41389 0.22068 0.08403 0.0
C3007 C 0.4202 0.214 0.07457 0.0
C3008 C 0.42832 0.26011 0.0662 0.0
C3009 C 0.41847 0.24013 0.07329 0.0
C3010 C 0.42843 0.27313 0.06557 0.0
C3011 C 0.4188 0.28015 0.07116 0.0
C3012 C 0.41864 0.25398 0.07264 0.0
C3013 C 0.40926 0.27369 0.07755 0.0
C3014 C 0.41289 0.23374 0.08335 0.0
C3015 C 0.42518 0.22075 0.06443 0.0
N3016 N 0.40945 0.26093 0.0782 0.0
N3017 N 0.42433 0.23344 0.06414 0.0
H3018 H 0.21722 0.4225 0.89405 0.0
H3019 H 0.28091 0.42869 0.90154 0.0
H3020 H 0.22017 0.40509 0.93047 0.0
H3021 H 0.27946 0.3949 0.92372 0.0
H3022 H 0.25848 0.42687 0.89764 0.0
H3023 H 0.23956 0.41848 0.89062 0.0
C3024 C 0.22251 0.41765 0.90124 0.0
C3025 C 0.2169 0.4144 0.91269 0.0
C3026 C 0.26309 0.4196 0.903 0.0
C3027 C 0.24245 0.41002 0.90893 0.0
C3028 C 0.2759 0.4207 0.90533 0.0
C3029 C 0.28202 0.41199 0.91305 0.0
C3030 C 0.2563 0.40981 0.90862 0.0
C3031 C 0.27509 0.40182 0.91771 0.0
C3032 C 0.23528 0.41548 0.89932 0.0
C3033 C 0.22418 0.40801 0.92161 0.0
N3034 N 0.26252 0.40118 0.91568 0.0
N3035 N 0.23661 0.40615 0.91959 0.0
H3036 H 0.56981 0.28068 0.93419 0.0
H3037 H 0.58424 0.21989 0.89803 0.0
H3038 H 0.59955 0.28391 0.90691 0.0
H3039 H 0.58463 0.22073 0.93854 0.0
H3040 H 0.58693 0.24287 0.89793 0.0
H3041 H 0.57106 0.25793 0.93257 0.0
C3042 C 0.57653 0.2766 0.92775 0.0
C3043 C 0.58461 0.28418 0.92068 0.0
C3044 C 0.58666 0.23788 0.90677 0.0
C3045 C 0.58596 0.25816 0.91873 0.0
C3046 C 0.58511 0.22482 0.90686 0.0
C3047 C 0.58401 0.21837 0.91831 0.0
C3048 C 0.58683 0.2444 0.91819 0.0
C3049 C 0.58525 0.22525 0.92948 0.0
C3050 C 0.57728 0.26364 0.92691 0.0
C3051 C 0.59321 0.27835 0.91255 0.0
N3052 N 0.58632 0.2379 0.92913 0.0
N3053 N 0.59361 0.26559 0.9117 0.0
H3054 H 0.41777 0.77837 0.90263 0.0
H3055 H 0.44177 0.71448 0.93315 0.0
H3056 H 0.44206 0.77646 0.93496 0.0
H3057 H 0.40639 0.71646 0.91356 0.0
H3058 H 0.44429 0.73702 0.93043 0.0
H3059 H 0.41552 0.7554 0.90339 0.0
C3060 C 0.42264 0.77314 0.90984 0.0
C3061 C 0.43007 0.77933 0.91878 0.0
C3062 C 0.43599 0.73251 0.92669 0.0
C3063 C 0.4277 0.75323 0.91956 0.0
C3064 C 0.43456 0.71963 0.92818 0.0
C3065 C 0.4238 0.71357 0.92365 0.0
C3066 C 0.42667 0.73943 0.92049 0.0
C3067 C 0.41478 0.72077 0.91728 0.0
C3068 C 0.42133 0.76008 0.91029 0.0
C3069 C 0.43616 0.77211 0.92793 0.0
N3070 N 0.41642 0.73336 0.91588 0.0
N3071 N 0.4349 0.75947 0.92804 0.0
H3072 H 0.03399 0.19537 0.42628 0.0
H3073 H 0.96789 0.16053 0.41863 0.0
H3074 H 0.03119 0.15579 0.41817 0.0
H3075 H 0.97329 0.19687 0.43564 0.0
H3076 H 0.99065 0.15936 0.41476 0.0
H3077 H 0.01125 0.19689 0.42564 0.0
C3078 C 0.02861 0.187 0.42425 0.0
C3079 C 0.03453 0.1754 0.42246 0.0
C3080 C 0.98678 0.16759 0.41927 0.0
C3081 C 0.00837 0.17706 0.42181 0.0
C3082 C 0.97383 0.16827 0.42146 0.0
C3083 C 0.96874 0.17875 0.42759 0.0
C3084 C 0.99454 0.17755 0.42308 0.0
C3085 C 0.97682 0.18853 0.43103 0.0
C3086 C 0.01559 0.18787 0.42392 0.0
C3087 C 0.02701 0.16491 0.41972 0.0
N3088 N 0.98928 0.18768 0.42875 0.0
N3089 N 0.01429 0.16596 0.4196 0.0
H3090 H 0.81168 0.03429 0.4112 0.0
H3091 H 0.84149 0.96572 0.41659 0.0
H3092 H 0.85142 0.02789 0.41548 0.0
H3093 H 0.802 0.97429 0.41863 0.0
H3094 H 0.84571 0.98787 0.41163 0.0
H3095 H 0.80851 0.01181 0.40893 0.0
C3096 C 0.81978 0.02816 0.41149 0.0
C3097 C 0.83181 0.03296 0.41376 0.0
C3098 C 0.83612 0.98482 0.41301 0.0
C3099 C 0.82821 0.00711 0.41137 0.0
C3100 C 0.83371 0.97221 0.41579 0.0
C3101 C 0.8214 0.96824 0.4182 0.0
C3102 C 0.82612 0.9934 0.41251 0.0
C3103 C 0.81166 0.97699 0.41704 0.0
C3104 C 0.81796 0.0153 0.41023 0.0
C3105 C 0.84197 0.02457 0.41385 0.0
N3106 N 0.81423 0.98914 0.41436 0.0
N3107 N 0.83991 0.012 0.4129 0.0
H3108 H 0.96809 0.80975 0.41811 0.0
H3109 H 0.03496 0.8437 0.41546 0.0
H3110 H 0.97173 0.85006 0.41673 0.0
H3111 H 0.02819 0.80641 0.42961 0.0
H3112 H 0.0124 0.84561 0.41068 0.0
H3113 H 0.99077 0.80786 0.41654 0.0
C3114 C 0.97364 0.81822 0.41732 0.0
C3115 C 0.96799 0.8301 0.4178 0.0
C3116 C 0.01594 0.83698 0.4147 0.0
C3117 C 0.99406 0.82797 0.41609 0.0
C3118 C 0.02876 0.83588 0.41738 0.0
C3119 C 0.03336 0.82494 0.42307 0.0
C3120 C 0.00783 0.82697 0.4175 0.0
C3121 C 0.02499 0.81508 0.42539 0.0
C3122 C 0.98661 0.81713 0.41645 0.0
C3123 C 0.9757 0.84072 0.41653 0.0
N3124 N 0.01267 0.81633 0.42262 0.0
N3125 N 0.98839 0.83942 0.4159 0.0
H3126 H 0.1893 0.96905 0.40544 0.0
H3127 H 0.15893 0.03677 0.41556 0.0
H3128 H 0.15116 0.97447 0.41787 0.0
H3129 H 0.19846 0.02916 0.41173 0.0
H3130 H 0.15453 0.01455 0.41108 0.0
H3131 H 0.19115 0.99153 0.40197 0.0
C3132 C 0.18124 0.97495 0.40726 0.0
C3133 C 0.17015 0.96989 0.4122 0.0
C3134 C 0.16414 0.01783 0.41102 0.0
C3135 C 0.17226 0.99573 0.40841 0.0
C3136 C 0.16664 0.03048 0.41352 0.0
C3137 C 0.17908 0.03471 0.41419 0.0
C3138 C 0.17416 0.00949 0.40903 0.0
C3139 C 0.18875 0.02622 0.41149 0.0
C3140 C 0.18231 0.98781 0.4053 0.0
C3141 C 0.15994 0.97799 0.41418 0.0
N3142 N 0.18609 0.01402 0.40912 0.0
N3143 N 0.16131 0.99057 0.41249 0.0
H3144 H 0.96275 0.84251 0.58735 0.0
H3145 H 0.02992 0.80938 0.58238 0.0
H3146 H 0.96971 0.80622 0.57088 0.0
H3147 H 0.02594 0.84946 0.58664 0.0
H3148 H 0.00724 0.80722 0.58355 0.0
H3149 H 0.98534 0.84436 0.59197 0.0
C3150 C 0.969 0.8349 0.58486 0.0
C3151 C 0.96442 0.82426 0.5786 0.0
C3152 C 0.01132 0.81649 0.58435 0.0
C3153 C 0.99001 0.82622 0.58398 0.0
C3154 C 0.0243 0.81773 0.58372 0.0
C3155 C 0.02986 0.82964 0.58419 0.0
C3156 C 0.00378 0.82722 0.58544 0.0
C3157 C 0.02205 0.8401 0.58611 0.0
C3158 C 0.98184 0.83597 0.58746 0.0
C3159 C 0.97286 0.81466 0.57556 0.0
N3160 N 0.00936 0.83866 0.58651 0.0
N3161 N 0.98521 0.81587 0.57826 0.0
H3162 H 0.18732 0.02728 0.59628 0.0
H3163 H 0.15484 0.96115 0.58272 0.0
H3164 H 0.15066 0.0239 0.57949 0.0
H3165 H 0.19438 0.96724 0.58849 0.0
H3166 H 0.15103 0.98348 0.58745 0.0
H3167 H 0.18753 0.00473 0.59988 0.0
C3168 C 0.17921 0.02182 0.59354 0.0
C3169 C 0.16908 0.02745 0.58732 0.0
C3170 C 0.16049 0.97982 0.58791 0.0
C3171 C 0.16934 0.00155 0.59125 0.0
C3172 C 0.16265 0.96712 0.58529 0.0
C3173 C 0.17495 0.96248 0.58509 0.0
C3174 C 0.17071 0.98774 0.59054 0.0
C3175 C 0.18478 0.97053 0.58839 0.0
C3176 C 0.17934 0.00893 0.59558 0.0
C3177 C 0.15872 0.01992 0.58419 0.0
N3178 N 0.18245 0.98277 0.59091 0.0
N3179 N 0.15922 0.00728 0.58597 0.0
H3180 H 0.03349 0.14774 0.57041 0.0
H3181 H 0.97559 0.1838 0.59632 0.0
H3182 H 0.03768 0.17694 0.59798 0.0
H3183 H 0.97252 0.14548 0.58363 0.0
H3184 H 0.99831 0.18114 0.59799 0.0
H3185 H 0.01124 0.14597 0.57595 0.0
C3186 C 0.02976 0.15347 0.57793 0.0
C3187 C 0.03734 0.16236 0.5839 0.0
C3188 C 0.99263 0.17324 0.59509 0.0
C3189 C 0.01193 0.16084 0.58989 0.0
C3190 C 0.97966 0.17476 0.5941 0.0
C3191 C 0.97215 0.1649 0.58969 0.0
C3192 C 0.99815 0.16187 0.59137 0.0
C3193 C 0.97794 0.15337 0.58701 0.0
C3194 C 0.01709 0.15252 0.58105 0.0
C3195 C 0.03209 0.16984 0.59333 0.0
N3196 N 0.99062 0.15225 0.58764 0.0
N3197 N 0.01962 0.1691 0.59588 0.0
H3198 H 0.80976 0.03383 0.58563 0.0
H3199 H 0.8513 0.97301 0.58398 0.0
H3200 H 0.84984 0.03557 0.58098 0.0
H3201 H 0.81297 0.97383 0.59698 0.0
H3202 H 0.85213 0.99589 0.58581 0.0
H3203 H 0.81162 0.01217 0.59267 0.0
C3204 C 0.819 0.02965 0.58635 0.0
C3205 C 0.82966 0.03637 0.58275 0.0
C3206 C 0.84364 0.99102 0.58853 0.0
C3207 C 0.8319 0.01146 0.59038 0.0
C3208 C 0.84317 0.97795 0.58753 0.0
C3209 C 0.83195 0.97151 0.59006 0.0
C3210 C 0.8328 0.99766 0.59201 0.0
C3211 C 0.82174 0.97841 0.59467 0.0
C3212 C 0.82008 0.01729 0.59036 0.0
C3213 C 0.84142 0.03062 0.58376 0.0
N3214 N 0.82234 0.9911 0.59529 0.0
N3215 N 0.84223 0.01835 0.58726 0.0
H3216 H 0.39817 0.02971 0.18674 0.0
H3217 H 0.41373 0.96595 0.15052 0.0
H3218 H 0.41245 0.02911 0.14886 0.0
H3219 H 0.41345 0.97089 0.19063 0.0
H3220 H 0.40666 0.98789 0.1481 0.0
H3221 H 0.39642 0.00693 0.18619 0.0
C3222 C 0.4007 0.02482 0.1782 0.0
C3223 C 0.40577 0.03131 0.16795 0.0
C3224 C 0.40791 0.98404 0.15741 0.0
C3225 C 0.40392 0.00519 0.16733 0.0
C3226 C 0.41188 0.97157 0.15878 0.0
C3227 C 0.41426 0.96677 0.17078 0.0
C3228 C 0.40609 0.9915 0.16814 0.0
C3229 C 0.41183 0.97435 0.18122 0.0
C3230 C 0.39972 0.0118 0.17791 0.0
C3231 C 0.40866 0.02447 0.15705 0.0
N3232 N 0.40793 0.98634 0.17966 0.0
N3233 N 0.40794 0.01172 0.15711 0.0
H3234 H 0.0281 0.43741 0.2 0.0
H3235 H 0.96962 0.41955 0.15731 0.0
H3236 H 0.03264 0.4202 0.16365 0.0
H3237 H 0.96712 0.43003 0.19635 0.0
H3238 H 0.99252 0.41883 0.15926 0.0
H3239 H 0.00565 0.43407 0.19865 0.0
C3240 C 0.02435 0.43289 0.19171 0.0
C3241 C 0.03224 0.42918 0.18186 0.0
C3242 C 0.98692 0.42114 0.16741 0.0
C3243 C 0.00637 0.42536 0.18021 0.0
C3244 C 0.97386 0.42156 0.16632 0.0
C3245 C 0.96643 0.425 0.17665 0.0
C3246 C 0.99256 0.42426 0.17889 0.0
C3247 C 0.97243 0.42746 0.18809 0.0
C3248 C 0.0115 0.43093 0.19097 0.0
C3249 C 0.02686 0.42323 0.17143 0.0
N3250 N 0.98512 0.42715 0.18886 0.0
N3251 N 0.01419 0.42162 0.1708 0.0
H3252 H 0.57979 0.97483 0.14399 0.0
H3253 H 0.58474 0.03013 0.19295 0.0
H3254 H 0.59136 0.9705 0.18253 0.0
H3255 H 0.57727 0.03661 0.15378 0.0
H3256 H 0.59097 0.00873 0.18812 0.0
H3257 H 0.58249 0.99757 0.14602 0.0
C3258 C 0.58318 0.97862 0.15278 0.0
C3259 C 0.58508 0.97079 0.1632 0.0
C3260 C 0.58817 0.01482 0.18049 0.0
C3261 C 0.58809 0.99673 0.16559 0.0
C3262 C 0.58462 0.02704 0.18326 0.0
C3263 C 0.58038 0.03501 0.17375 0.0
C3264 C 0.58712 0.01038 0.16813 0.0
C3265 C 0.58047 0.03066 0.16135 0.0
C3266 C 0.58468 0.99161 0.15394 0.0
C3267 C 0.58952 0.9762 0.17433 0.0
N3268 N 0.58352 0.01849 0.15891 0.0
N3269 N 0.59069 0.98882 0.17527 0.0
H3270 H 0.02537 0.59709 0.18537 0.0
H3271 H 0.96847 0.57098 0.14856 0.0
H3272 H 0.02933 0.58477 0.14701 0.0
H3273 H 0.9634 0.59977 0.17641 0.0
H3274 H 0.99075 0.57649 0.1472 0.0
H3275 H 0.00271 0.59893 0.18214 0.0
C3276 C 0.02151 0.59498 0.17621 0.0
C3277 C 0.02924 0.59062 0.16649 0.0
C3278 C 0.98471 0.58186 0.15334 0.0
C3279 C 0.00335 0.5925 0.16282 0.0
C3280 C 0.97202 0.57874 0.15407 0.0
C3281 C 0.96418 0.58508 0.16247 0.0
C3282 C 0.98961 0.59103 0.16144 0.0
C3283 C 0.96919 0.59484 0.16968 0.0
C3284 C 0.00859 0.59608 0.17436 0.0
C3285 C 0.02373 0.5881 0.15479 0.0
N3286 N 0.98169 0.59736 0.16921 0.0
N3287 N 0.01109 0.58881 0.15336 0.0
H3288 H 0.40797 0.96618 0.81584 0.0
H3289 H 0.41645 0.03457 0.84542 0.0
H3290 H 0.41817 0.97203 0.85457 0.0
H3291 H 0.41637 0.02581 0.80594 0.0
H3292 H 0.41172 0.01239 0.85002 0.0
H3293 H 0.4051 0.98868 0.8134 0.0
C3294 C 0.40942 0.97219 0.8239 0.0
C3295 C 0.41356 0.96724 0.83536 0.0
C3296 C 0.41255 0.01542 0.84036 0.0
C3297 C 0.41047 0.99311 0.83257 0.0
C3298 C 0.4152 0.02803 0.83775 0.0
C3299 C 0.41695 0.03192 0.8253 0.0
C3300 C 0.41147 0.00681 0.83043 0.0
C3301 C 0.41527 0.02314 0.81568 0.0
C3302 C 0.40781 0.98506 0.8225 0.0
C3303 C 0.41508 0.97548 0.84553 0.0
N3304 N 0.41268 0.01102 0.81844 0.0
N3305 N 0.41376 0.98807 0.84385 0.0
H3306 H 0.03061 0.4146 0.81049 0.0
H3307 H 0.96281 0.41251 0.84269 0.0
H3308 H 0.02554 0.41495 0.85066 0.0
H3309 H 0.96992 0.42117 0.80382 0.0
H3310 H 0.98544 0.40895 0.84569 0.0
H3311 H 0.00808 0.41218 0.80788 0.0
C3312 C 0.02478 0.41403 0.81879 0.0
C3313 C 0.02998 0.41519 0.83082 0.0
C3314 C 0.98198 0.41149 0.83649 0.0
C3315 C 0.00405 0.41253 0.82786 0.0
C3316 C 0.9691 0.41348 0.83477 0.0
C3317 C 0.96454 0.41728 0.82303 0.0
C3318 C 0.99023 0.41316 0.82634 0.0
C3319 C 0.97306 0.41841 0.81307 0.0
C3320 C 0.01188 0.41267 0.81728 0.0
C3321 C 0.02192 0.4142 0.84121 0.0
N3322 N 0.98546 0.41641 0.81497 0.0
N3323 N 0.00931 0.41309 0.83949 0.0
H3324 H 0.59759 0.02988 0.81963 0.0
H3325 H 0.57988 0.96488 0.85232 0.0
H3326 H 0.57911 0.02773 0.85557 0.0
H3327 H 0.58749 0.97023 0.81301 0.0
H3328 H 0.58561 0.987 0.85615 0.0
H3329 H 0.60052 0.00723 0.82 0.0
C3330 C 0.59436 0.02466 0.82773 0.0
C3331 C 0.58784 0.03066 0.83745 0.0
C3332 C 0.58629 0.98321 0.84675 0.0
C3333 C 0.59098 0.00466 0.83782 0.0
C3334 C 0.58311 0.97063 0.8446 0.0
C3335 C 0.5832 0.96589 0.83234 0.0
C3336 C 0.58973 0.99087 0.83657 0.0
C3337 C 0.58726 0.97364 0.82258 0.0
C3338 C 0.59601 0.01172 0.82792 0.0
C3339 C 0.58406 0.02345 0.84781 0.0
N3340 N 0.5903 0.98576 0.82489 0.0
N3341 N 0.58545 0.01075 0.84761 0.0
H3342 H 0.03014 0.57408 0.80617 0.0
H3343 H 0.97362 0.58153 0.853 0.0
H3344 H 0.03646 0.58353 0.84497 0.0
H3345 H 0.97003 0.58444 0.81277 0.0
H3346 H 0.99642 0.58367 0.85081 0.0
H3347 H 0.00802 0.57893 0.80871 0.0
C3348 C 0.02683 0.5773 0.81523 0.0
C3349 C 0.03506 0.57831 0.82541 0.0
C3350 C 0.99059 0.58409 0.84251 0.0
C3351 C 0.00963 0.58372 0.82849 0.0
C3352 C 0.97757 0.58288 0.84374 0.0
C3353 C 0.9699 0.58255 0.83303 0.0
C3354 C 0.99592 0.58488 0.83049 0.0
C3355 C 0.97556 0.5844 0.82129 0.0
C3356 C 0.0142 0.58013 0.81667 0.0
C3357 C 0.03035 0.58263 0.83691 0.0
N3358 N 0.9882 0.58529 0.82033 0.0
N3359 N 0.01785 0.58496 0.83822 0.0
H3360 H 0.18746 0.41187 0.03505 0.0
H3361 H 0.15805 0.41606 0.96623 0.0
H3362 H 0.14788 0.41702 0.0284 0.0
H3363 H 0.19757 0.41692 0.97481 0.0
H3364 H 0.15361 0.41206 0.98852 0.0
H3365 H 0.19067 0.40902 0.01265 0.0
C3366 C 0.1794 0.41226 0.02888 0.0
C3367 C 0.16741 0.4149 0.0336 0.0
C3368 C 0.16325 0.41296 0.98546 0.0
C3369 C 0.17106 0.41181 0.00781 0.0
C3370 C 0.16578 0.4152 0.97276 0.0
C3371 C 0.17818 0.41699 0.96873 0.0
C3372 C 0.17321 0.41241 0.99408 0.0
C3373 C 0.18786 0.41579 0.97754 0.0
C3374 C 0.18124 0.41064 0.01607 0.0
C3375 C 0.1573 0.4151 0.02515 0.0
N3376 N 0.18516 0.41366 0.98978 0.0
N3377 N 0.15937 0.41378 0.01262 0.0
H3378 H 0.14495 0.57914 0.97052 0.0
H3379 H 0.17334 0.59889 0.03696 0.0
H3380 H 0.18094 0.59712 0.97496 0.0
H3381 H 0.1503 0.5663 0.03079 0.0
H3382 H 0.17066 0.60467 0.01476 0.0
H3383 H 0.14147 0.58112 0.99312 0.0
C3384 C 0.15197 0.58383 0.97617 0.0
C3385 C 0.16336 0.58777 0.97089 0.0
C3386 C 0.16589 0.59647 0.01839 0.0
C3387 C 0.15938 0.59008 0.99667 0.0
C3388 C 0.16733 0.59325 0.03103 0.0
C3389 C 0.16199 0.58215 0.03559 0.0
C3390 C 0.15892 0.58862 0.01045 0.0
C3391 C 0.15452 0.57495 0.02755 0.0
C3392 C 0.14999 0.58489 0.98907 0.0
C3393 C 0.17211 0.59377 0.97869 0.0
N3394 N 0.15325 0.57827 0.01533 0.0
N3395 N 0.17001 0.59462 0.99123 0.0
H3396 H 0.39978 0.17358 0.03387 0.0
H3397 H 0.42185 0.14224 0.96945 0.0
H3398 H 0.43217 0.14977 0.03006 0.0
H3399 H 0.40237 0.17763 0.97183 0.0
H3400 H 0.41941 0.13969 0.99216 0.0
H3401 H 0.39467 0.16975 0.01168 0.0
C3402 C 0.40552 0.16718 0.02846 0.0
C3403 C 0.41635 0.16192 0.03368 0.0
C3404 C 0.41542 0.14786 0.98763 0.0
C3405 C 0.4107 0.15759 0.00852 0.0
C3406 C 0.41674 0.1493 0.97468 0.0
C3407 C 0.4125 0.16027 0.96879 0.0
C3408 C 0.40967 0.15738 0.99468 0.0
C3409 C 0.40596 0.16912 0.97604 0.0
C3410 C 0.40268 0.16508 0.01583 0.0
C3411 C 0.4237 0.15392 0.0263 0.0
N3412 N 0.40487 0.16755 0.98864 0.0
N3413 N 0.42079 0.15206 0.01404 0.0
H3414 H 0.81206 0.40021 0.97257 0.0
H3415 H 0.84903 0.41393 0.03627 0.0
H3416 H 0.85007 0.41411 0.97317 0.0
H3417 H 0.80886 0.41365 0.03189 0.0
H3418 H 0.85118 0.40741 0.01415 0.0
H3419 H 0.81279 0.39787 0.99528 0.0
C3420 C 0.82066 0.40254 0.97744 0.0
C3421 C 0.83091 0.40766 0.97098 0.0
C3422 C 0.84192 0.40852 0.01816 0.0
C3423 C 0.83174 0.40513 0.99704 0.0
C3424 C 0.8407 0.41218 0.03073 0.0
C3425 C 0.82876 0.4144 0.03575 0.0
C3426 C 0.8311 0.40689 0.01079 0.0
C3427 C 0.81823 0.41213 0.02826 0.0
C3428 C 0.82106 0.40122 0.99042 0.0
C3429 C 0.84189 0.41029 0.9778 0.0
N3430 N 0.81965 0.40855 0.01616 0.0
N3431 N 0.84194 0.40924 0.99052 0.0
H3432 H 0.58724 0.84236 0.03447 0.0
H3433 H 0.58583 0.80896 0.96729 0.0
H3434 H 0.57102 0.80612 0.02672 0.0
H3435 H 0.58881 0.84916 0.97126 0.0
H3436 H 0.58629 0.80692 0.99001 0.0
H3437 H 0.5931 0.84413 0.01215 0.0
C3438 C 0.58506 0.83474 0.02812 0.0
C3439 C 0.57851 0.82415 0.03236 0.0
C3440 C 0.58699 0.81618 0.98591 0.0
C3441 C 0.58532 0.82599 0.00712 0.0
C3442 C 0.58677 0.81737 0.97292 0.0
C3443 C 0.58703 0.82928 0.96733 0.0
C3444 C 0.58746 0.82697 0.99344 0.0
C3445 C 0.58844 0.8398 0.97516 0.0
C3446 C 0.58837 0.83576 0.01543 0.0
C3447 C 0.5759 0.81453 0.0238 0.0
N3448 N 0.58843 0.83842 0.98786 0.0
N3449 N 0.5793 0.81568 0.01161 0.0
H3450 H 0.80741 0.58307 0.03099 0.0
H3451 H 0.83813 0.58063 0.96265 0.0
H3452 H 0.84734 0.58035 0.02488 0.0
H3453 H 0.79847 0.57869 0.97043 0.0
H3454 H 0.84201 0.58454 0.98505 0.0
H3455 H 0.80436 0.5857 0.00854 0.0
C3456 C 0.81556 0.58315 0.02494 0.0
C3457 C 0.82763 0.58128 0.02982 0.0
C3458 C 0.83245 0.58342 0.98179 0.0
C3459 C 0.82418 0.58415 0.00398 0.0
C3460 C 0.83024 0.58124 0.96903 0.0
C3461 C 0.81798 0.57916 0.96474 0.0
C3462 C 0.82231 0.58362 0.99021 0.0
C3463 C 0.80809 0.58005 0.97336 0.0
C3464 C 0.81382 0.58464 0.01209 0.0
C3465 C 0.83785 0.58166 0.0215 0.0
N3466 N 0.81048 0.58211 0.98567 0.0
N3467 N 0.83589 0.58287 0.00895 0.0
H3468 H 0.41764 0.84098 0.96396 0.0
H3469 H 0.41759 0.80837 0.0315 0.0
H3470 H 0.43318 0.80461 0.97242 0.0
H3471 H 0.4163 0.84863 0.02726 0.0
H3472 H 0.41715 0.80618 0.0088 0.0
H3473 H 0.41166 0.84323 0.98623 0.0
C3474 C 0.41964 0.83344 0.97046 0.0
C3475 C 0.42604 0.82266 0.96644 0.0
C3476 C 0.41681 0.8155 0.01283 0.0
C3477 C 0.41907 0.82504 0.99159 0.0
C3478 C 0.41703 0.81677 0.02581 0.0
C3479 C 0.41725 0.82872 0.03131 0.0
C3480 C 0.41683 0.82623 0.00523 0.0
C3481 C 0.41629 0.83924 0.02341 0.0
C3482 C 0.41626 0.83473 0.98311 0.0
C3483 C 0.42842 0.81315 0.97518 0.0
N3484 N 0.41631 0.83776 0.01072 0.0
N3485 N 0.42495 0.81456 0.98731 0.0
H3486 H 0.5846 0.19491 0.97358 0.0
H3487 H 0.58156 0.14585 0.02924 0.0
H3488 H 0.58242 0.15509 0.96697 0.0
H3489 H 0.58888 0.18539 0.03381 0.0
H3490 H 0.58469 0.14817 0.00657 0.0
H3491 H 0.58903 0.19092 0.99556 0.0
C3492 C 0.58519 0.18528 0.97678 0.0
C3493 C 0.583 0.17531 0.96853 0.0
C3494 C 0.58583 0.15628 0.01258 0.0
C3495 C 0.58782 0.17061 0.99383 0.0
C3496 C 0.58408 0.15495 0.02553 0.0
C3497 C 0.58472 0.1655 0.0334 0.0
C3498 C 0.58822 0.16822 0.00754 0.0
C3499 C 0.58805 0.17705 0.02808 0.0
C3500 C 0.58775 0.18299 0.98935 0.0
C3501 C 0.58403 0.16302 0.9731 0.0
N3502 N 0.58951 0.17812 0.0155 0.0
N3503 N 0.58613 0.161 0.98555 0.0
H3504 H 0.52598 0.64208 0.92032 0.0
H3505 H 0.45911 0.66994 0.90144 0.0
H3506 H 0.52122 0.67723 0.90082 0.0
H3507 H 0.46657 0.64979 0.93564 0.0
H3508 H 0.48098 0.66641 0.89489 0.0
H3509 H 0.50329 0.63874 0.91929 0.0
C3510 C 0.52023 0.64891 0.91548 0.0
C3511 C 0.52546 0.66007 0.91085 0.0
C3512 C 0.47768 0.66243 0.90363 0.0
C3513 C 0.49959 0.65623 0.9096 0.0
C3514 C 0.46523 0.66436 0.90731 0.0
C3515 C 0.46116 0.66013 0.91906 0.0
C3516 C 0.48591 0.65605 0.91169 0.0
C3517 C 0.46944 0.65317 0.9265 0.0
C3518 C 0.50729 0.64701 0.91495 0.0
C3519 C 0.51754 0.66859 0.90469 0.0
N3520 N 0.48147 0.6514 0.92273 0.0
N3521 N 0.50496 0.66657 0.90437 0.0
H3522 H 0.34994 0.52671 0.91419 0.0
H3523 H 0.30312 0.46996 0.90957 0.0
H3524 H 0.31232 0.52956 0.89957 0.0
H3525 H 0.34274 0.46427 0.91523 0.0
H3526 H 0.30721 0.49155 0.90352 0.0
H3527 H 0.34876 0.50386 0.91202 0.0
C3528 C 0.34157 0.52258 0.91019 0.0
C3529 C 0.3311 0.53004 0.90731 0.0
C3530 C 0.31508 0.4856 0.9059 0.0
C3531 C 0.32964 0.50395 0.90499 0.0
C3532 C 0.31273 0.47327 0.9094 0.0
C3533 C 0.3226 0.46541 0.91303 0.0
C3534 C 0.32738 0.49028 0.90634 0.0
C3535 C 0.33488 0.4701 0.91252 0.0
C3536 C 0.34088 0.50952 0.90901 0.0
C3537 C 0.32052 0.52417 0.90216 0.0
N3538 N 0.33692 0.48235 0.90948 0.0
N3539 N 0.31999 0.51149 0.90137 0.0
H3540 H 0.46924 0.31055 0.9142 0.0
H3541 H 0.53623 0.34427 0.91111 0.0
H3542 H 0.47304 0.35081 0.912 0.0
H3543 H 0.52937 0.3072 0.92578 0.0
H3544 H 0.51367 0.34617 0.90631 0.0
H3545 H 0.49192 0.30856 0.91278 0.0
C3546 C 0.47482 0.31899 0.91325 0.0
C3547 C 0.46921 0.33088 0.91346 0.0
C3548 C 0.51719 0.33759 0.91046 0.0
C3549 C 0.49529 0.32864 0.91193 0.0
C3550 C 0.53001 0.3365 0.91316 0.0
C3551 C 0.53459 0.32563 0.91898 0.0
C3552 C 0.50906 0.32763 0.91339 0.0
C3553 C 0.52619 0.31582 0.92145 0.0
C3554 C 0.4878 0.31783 0.91247 0.0
C3555 C 0.47697 0.34146 0.91201 0.0
N3556 N 0.51387 0.31707 0.91866 0.0
N3557 N 0.48966 0.3401 0.91147 0.0
H3558 H 0.69352 0.53289 0.90891 0.0
H3559 H 0.64879 0.47457 0.91533 0.0
H3560 H 0.65362 0.53735 0.91351 0.0
H3561 H 0.6867 0.47256 0.90128 0.0
H3562 H 0.64922 0.49738 0.91243 0.0
H3563 H 0.69038 0.51086 0.90393 0.0
C3564 C 0.68405 0.52921 0.90871 0.0
C3565 C 0.67382 0.53686 0.91172 0.0
C3566 C 0.65734 0.4919 0.90973 0.0
C3567 C 0.67012 0.51151 0.90631 0.0
C3568 C 0.65709 0.47887 0.91135 0.0
C3569 C 0.66783 0.47167 0.90879 0.0
C3570 C 0.66842 0.49771 0.9056 0.0
C3571 C 0.67829 0.47775 0.90363 0.0
C3572 C 0.68224 0.51663 0.90583 0.0
C3573 C 0.66174 0.53169 0.91124 0.0
N3574 N 0.67838 0.4904 0.9024 0.0
N3575 N 0.66022 0.51922 0.90884 0.0
H3576 H 0.52875 0.35063 0.08135 0.0
H3577 H 0.47257 0.30439 0.06854 0.0
H3578 H 0.5324 0.3103 0.08096 0.0
H3579 H 0.46573 0.34201 0.08171 0.0
H3580 H 0.49465 0.30676 0.0736 0.0
H3581 H 0.50587 0.34823 0.08245 0.0
C3582 C 0.52478 0.34129 0.08173 0.0
C3583 C 0.53251 0.33065 0.08082 0.0
C3584 C 0.48836 0.31449 0.07554 0.0
C3585 C 0.50644 0.32788 0.08195 0.0
C3586 C 0.47575 0.31316 0.07258 0.0
C3587 C 0.46737 0.32306 0.07462 0.0
C3588 C 0.49276 0.32593 0.08032 0.0
C3589 C 0.47194 0.33417 0.08 0.0
C3590 C 0.51173 0.33994 0.08235 0.0
C3591 C 0.52684 0.31879 0.08141 0.0
N3592 N 0.48443 0.3354 0.08248 0.0
N3593 N 0.51418 0.31774 0.08176 0.0
H3594 H 0.68184 0.53216 0.09133 0.0
H3595 H 0.65277 0.4642 0.07949 0.0
H3596 H 0.64457 0.52642 0.07666 0.0
H3597 H 0.69196 0.47246 0.08497 0.0
H3598 H 0.64777 0.48628 0.0842 0.0
H3599 H 0.68353 0.50973 0.09525 0.0
C3600 C 0.67392 0.5262 0.08911 0.0
C3601 C 0.66316 0.53113 0.0834 0.0
C3602 C 0.65742 0.48316 0.08461 0.0
C3603 C 0.66511 0.50536 0.08767 0.0
C3604 C 0.66026 0.47059 0.08199 0.0
C3605 C 0.67279 0.46664 0.08169 0.0
C3606 C 0.66722 0.49164 0.0871 0.0
C3607 C 0.68218 0.47522 0.08493 0.0
C3608 C 0.6749 0.51338 0.09134 0.0
C3609 C 0.6531 0.52298 0.08095 0.0
N3610 N 0.67921 0.48732 0.08741 0.0
N3611 N 0.65441 0.51042 0.08287 0.0
H3612 H 0.46467 0.68249 0.09319 0.0
H3613 H 0.53229 0.65238 0.08134 0.0
H3614 H 0.4697 0.6439 0.08209 0.0
H3615 H 0.52398 0.69193 0.08283 0.0
H3616 H 0.5103 0.64788 0.087 0.0
H3617 H 0.48728 0.68459 0.09541 0.0
C3618 C 0.47053 0.67438 0.09141 0.0
C3619 C 0.46531 0.66307 0.0872 0.0
C3620 C 0.5134 0.65752 0.08628 0.0
C3621 C 0.49129 0.66549 0.08951 0.0
C3622 C 0.5259 0.66008 0.0831 0.0
C3623 C 0.52983 0.67253 0.08146 0.0
C3624 C 0.50496 0.66752 0.088 0.0
C3625 C 0.52125 0.68219 0.08381 0.0
C3626 C 0.48346 0.6756 0.09265 0.0
C3627 C 0.47336 0.65282 0.08525 0.0
N3628 N 0.50924 0.67948 0.08689 0.0
N3629 N 0.48601 0.65433 0.08618 0.0
H3630 H 0.31723 0.46641 0.09789 0.0
H3631 H 0.34679 0.53253 0.07942 0.0
H3632 H 0.35254 0.47016 0.07848 0.0
H3633 H 0.30801 0.52556 0.08836 0.0
H3634 H 0.35179 0.51077 0.08548 0.0
H3635 H 0.31698 0.48899 0.10138 0.0
C3636 C 0.32508 0.47196 0.09459 0.0
C3637 C 0.33477 0.46645 0.08762 0.0
C3638 C 0.34226 0.51414 0.0864 0.0
C3639 C 0.33441 0.49236 0.09138 0.0
C3640 C 0.33943 0.52653 0.08303 0.0
C3641 C 0.32697 0.53069 0.08332 0.0
C3642 C 0.33255 0.50608 0.09023 0.0
C3643 C 0.31772 0.52261 0.08791 0.0
C3644 C 0.32491 0.48486 0.09656 0.0
C3645 C 0.3448 0.47407 0.08377 0.0
N3646 N 0.32067 0.51067 0.0911 0.0
N3647 N 0.34423 0.48672 0.08544 0.0
H3648 H 0.90737 0.53118 0.68526 0.0
H3649 H 0.91535 0.46246 0.65638 0.0
H3650 H 0.91801 0.5247 0.64674 0.0
H3651 H 0.91367 0.4713 0.69581 0.0
H3652 H 0.91112 0.48466 0.65155 0.0
H3653 H 0.90398 0.50877 0.68788 0.0
C3654 C 0.90881 0.52506 0.67728 0.0
C3655 C 0.91322 0.5298 0.66583 0.0
C3656 C 0.91148 0.48166 0.66124 0.0
C3657 C 0.90953 0.50403 0.66884 0.0
C3658 C 0.91384 0.46902 0.66399 0.0
C3659 C 0.91501 0.46513 0.6765 0.0
C3660 C 0.91014 0.49032 0.6711 0.0
C3661 C 0.91302 0.47396 0.68603 0.0
C3662 C 0.9069 0.51224 0.6788 0.0
C3663 C 0.91472 0.52142 0.65577 0.0
N3664 N 0.91075 0.48612 0.68313 0.0
N3665 N 0.9131 0.50888 0.65757 0.0
H3666 H 0.52958 0.93215 0.69409 0.0
H3667 H 0.47269 0.91654 0.64961 0.0
H3668 H 0.53584 0.91623 0.65744 0.0
H3669 H 0.4696 0.91957 0.68987 0.0
H3670 H 0.49559 0.91564 0.65173 0.0
H3671 H 0.50741 0.9273 0.69229 0.0
C3672 C 0.52626 0.92757 0.68565 0.0
C3673 C 0.53451 0.92468 0.67585 0.0
C3674 C 0.48985 0.91627 0.66009 0.0
C3675 C 0.50901 0.91917 0.67365 0.0
C3676 C 0.47678 0.91678 0.65889 0.0
C3677 C 0.4692 0.91836 0.66957 0.0
C3678 C 0.49531 0.91746 0.67201 0.0
C3679 C 0.47504 0.91857 0.68136 0.0
C3680 C 0.51359 0.92473 0.68466 0.0
C3681 C 0.52973 0.91862 0.66519 0.0
N3682 N 0.48771 0.91831 0.68223 0.0
N3683 N 0.5172 0.91622 0.66427 0.0
H3684 H 0.0821 0.53374 0.64878 0.0
H3685 H 0.09765 0.46774 0.68054 0.0
H3686 H 0.08796 0.52726 0.68822 0.0
H3687 H 0.07944 0.47091 0.64455 0.0
H3688 H 0.10114 0.49032 0.68054 0.0
H3689 H 0.0875 0.5116 0.64464 0.0
C3690 C 0.08487 0.52774 0.65649 0.0
C3691 C 0.08453 0.53218 0.66885 0.0
C3692 C 0.09658 0.48606 0.67252 0.0
C3693 C 0.09074 0.50717 0.66425 0.0
C3694 C 0.09462 0.47316 0.6725 0.0
C3695 C 0.08799 0.46748 0.66266 0.0
C3696 C 0.09177 0.4934 0.66272 0.0
C3697 C 0.08447 0.47494 0.65239 0.0
C3698 C 0.08787 0.51515 0.65414 0.0
C3699 C 0.08804 0.5241 0.67857 0.0
N3700 N 0.08616 0.4876 0.6528 0.0
N3701 N 0.09094 0.51198 0.67607 0.0
H3702 H 0.47254 0.07086 0.69355 0.0
H3703 H 0.53011 0.08644 0.64939 0.0
H3704 H 0.4671 0.08675 0.65676 0.0
H3705 H 0.53309 0.08088 0.68939 0.0
H3706 H 0.50723 0.08756 0.65156 0.0
H3707 H 0.49485 0.07511 0.69195 0.0
C3708 C 0.47607 0.07531 0.68513 0.0
C3709 C 0.46799 0.07836 0.67522 0.0
C3710 C 0.51294 0.0863 0.65986 0.0
C3711 C 0.49367 0.08318 0.67325 0.0
C3712 C 0.52599 0.08566 0.65864 0.0
C3713 C 0.53354 0.08336 0.6692 0.0
C3714 C 0.50743 0.08453 0.6717 0.0
C3715 C 0.52768 0.08248 0.68095 0.0
C3716 C 0.48882 0.0778 0.68424 0.0
C3717 C 0.47305 0.08425 0.66459 0.0
N3718 N 0.515 0.08291 0.68184 0.0
N3719 N 0.48564 0.08631 0.66379 0.0
H3720 H 0.92268 0.46646 0.30331 0.0
H3721 H 0.91961 0.5333 0.33735 0.0
H3722 H 0.91838 0.47046 0.34338 0.0
H3723 H 0.93054 0.52712 0.29888 0.0
H3724 H 0.91508 0.51073 0.33932 0.0
H3725 H 0.92121 0.48911 0.30112 0.0
C3726 C 0.92131 0.47209 0.31166 0.0
C3727 C 0.92086 0.46656 0.32357 0.0
C3728 C 0.91834 0.51439 0.33043 0.0
C3729 C 0.9193 0.4926 0.32113 0.0
C3730 C 0.92089 0.52723 0.3293 0.0
C3731 C 0.92562 0.53201 0.318 0.0
C3732 C 0.92042 0.50641 0.32013 0.0
C3733 C 0.9271 0.5238 0.30784 0.0
C3734 C 0.92049 0.48505 0.3104 0.0
C3735 C 0.9189 0.47435 0.33402 0.0
N3736 N 0.92457 0.51143 0.30916 0.0
N3737 N 0.91835 0.48702 0.33258 0.0
H3738 H 0.46358 0.918 0.3444 0.0
H3739 H 0.53049 0.91601 0.31048 0.0
H3740 H 0.47046 0.92641 0.30544 0.0
H3741 H 0.52662 0.91843 0.35071 0.0
H3742 H 0.50784 0.91408 0.30863 0.0
H3743 H 0.48603 0.91295 0.34692 0.0
C3744 C 0.46977 0.91859 0.33637 0.0
C3745 C 0.46526 0.92278 0.32475 0.0
C3746 C 0.51194 0.91489 0.31789 0.0
C3747 C 0.49065 0.91693 0.32748 0.0
C3748 C 0.52489 0.91597 0.31896 0.0
C3749 C 0.53046 0.91764 0.33075 0.0
C3750 C 0.50442 0.91557 0.32868 0.0
C3751 C 0.52271 0.9173 0.34142 0.0
C3752 C 0.48253 0.91575 0.33781 0.0
C3753 C 0.4736 0.9234 0.31462 0.0
N3754 N 0.51003 0.9165 0.34012 0.0
N3755 N 0.48587 0.92056 0.31623 0.0
H3756 H 0.10073 0.53002 0.31301 0.0
H3757 H 0.08747 0.46706 0.35151 0.0
H3758 H 0.08894 0.53082 0.35174 0.0
H3759 H 0.08241 0.47184 0.3117 0.0
H3760 H 0.09458 0.48911 0.35292 0.0
H3761 H 0.10149 0.50721 0.31395 0.0
C3762 C 0.09856 0.52543 0.32181 0.0
C3763 C 0.09446 0.53235 0.33223 0.0
C3764 C 0.09208 0.4852 0.34388 0.0
C3765 C 0.09521 0.50619 0.3333 0.0
C3766 C 0.08807 0.47269 0.34308 0.0
C3767 C 0.08423 0.46778 0.3315 0.0
C3768 C 0.09255 0.49257 0.33296 0.0
C3769 C 0.08513 0.47537 0.32082 0.0
C3770 C 0.09896 0.51239 0.32232 0.0
C3771 C 0.09198 0.52585 0.34343 0.0
N3772 N 0.08919 0.48736 0.32181 0.0
N3773 N 0.09216 0.51307 0.34362 0.0
H3774 H 0.53612 0.08652 0.35052 0.0
H3775 H 0.47254 0.09685 0.31226 0.0
H3776 H 0.53234 0.08539 0.3103 0.0
H3777 H 0.47325 0.08764 0.35168 0.0
H3778 H 0.49525 0.09929 0.31266 0.0
H3779 H 0.51394 0.09298 0.35211 0.0
C3780 C 0.53069 0.08794 0.34205 0.0
C3781 C 0.53589 0.08532 0.33027 0.0
C3782 C 0.49042 0.09691 0.32128 0.0
C3783 C 0.51086 0.09272 0.33197 0.0
C3784 C 0.47745 0.09554 0.32106 0.0
C3785 C 0.47101 0.09174 0.33188 0.0
C3786 C 0.49707 0.09434 0.33235 0.0
C3787 C 0.47786 0.09041 0.34307 0.0
C3788 C 0.51808 0.09156 0.34295 0.0
C3789 C 0.52856 0.08719 0.31956 0.0
N3790 N 0.49058 0.09146 0.34297 0.0
N3791 N 0.51642 0.09071 0.32066 0.0
H3792 H 0.69762 0.91729 0.47076 0.0
H3793 H 0.65091 0.91402 0.52823 0.0
H3794 H 0.65764 0.91439 0.46551 0.0
H3795 H 0.69092 0.90854 0.53112 0.0
H3796 H 0.65259 0.91214 0.50538 0.0
H3797 H 0.69497 0.91228 0.49283 0.0
C3798 C 0.68826 0.91549 0.47427 0.0
C3799 C 0.67782 0.91639 0.46636 0.0
C3800 C 0.66095 0.91112 0.51105 0.0
C3801 C 0.67464 0.9108 0.49176 0.0
C3802 C 0.66 0.91216 0.5241 0.0
C3803 C 0.67083 0.91167 0.5316 0.0
C3804 C 0.67281 0.90964 0.50551 0.0
C3805 C 0.68234 0.9092 0.52573 0.0
C3806 C 0.68674 0.91257 0.48688 0.0
C3807 C 0.66592 0.91382 0.47135 0.0
N3808 N 0.68304 0.90846 0.51305 0.0
N3809 N 0.66461 0.91134 0.48382 0.0
H3810 H 0.65042 0.07806 0.53864 0.0
H3811 H 0.68381 0.09347 0.47363 0.0
H3812 H 0.68948 0.08716 0.53392 0.0
H3813 H 0.64601 0.07926 0.47633 0.0
H3814 H 0.68393 0.09683 0.49621 0.0
H3815 H 0.6467 0.08378 0.51655 0.0
C3816 C 0.6581 0.08165 0.53304 0.0
C3817 C 0.67027 0.08212 0.53794 0.0
C3818 C 0.67553 0.09313 0.49187 0.0
C3819 C 0.6662 0.08852 0.51291 0.0
C3820 C 0.67545 0.09122 0.47896 0.0
C3821 C 0.66499 0.08583 0.47313 0.0
C3822 C 0.66514 0.08943 0.49908 0.0
C3823 C 0.65434 0.08331 0.48048 0.0
C3824 C 0.65602 0.08482 0.52046 0.0
C3825 C 0.67998 0.08663 0.53037 0.0
N3826 N 0.65477 0.08489 0.49313 0.0
N3827 N 0.67776 0.08955 0.51821 0.0
H3828 H 0.90802 0.68305 0.46603 0.0
H3829 H 0.91711 0.65261 0.53392 0.0
H3830 H 0.91935 0.64455 0.47131 0.0
H3831 H 0.91582 0.6922 0.52582 0.0
H3832 H 0.91249 0.64823 0.51168 0.0
H3833 H 0.90485 0.685 0.48854 0.0
C3834 C 0.90966 0.67493 0.47191 0.0
C3835 C 0.91421 0.6637 0.46681 0.0
C3836 C 0.91302 0.65785 0.51487 0.0
C3837 C 0.91078 0.66594 0.49269 0.0
C3838 C 0.91561 0.66034 0.52752 0.0
C3839 C 0.91701 0.67277 0.5316 0.0
C3840 C 0.91165 0.66789 0.50642 0.0
C3841 C 0.91501 0.68248 0.52299 0.0
C3842 C 0.90787 0.67606 0.48479 0.0
C3843 C 0.91595 0.65343 0.47488 0.0
N3844 N 0.91249 0.67984 0.51083 0.0
N3845 N 0.91446 0.65486 0.48749 0.0
H3846 H 0.31364 0.90428 0.4686 0.0
H3847 H 0.34429 0.91923 0.53526 0.0
H3848 H 0.34975 0.92209 0.47264 0.0
H3849 H 0.30521 0.9114 0.5285 0.0
H3850 H 0.34874 0.9146 0.51305 0.0
H3851 H 0.31313 0.90063 0.49113 0.0
C3852 C 0.32159 0.90722 0.47421 0.0
C3853 C 0.33163 0.91374 0.46878 0.0
C3854 C 0.33925 0.91367 0.51653 0.0
C3855 C 0.331 0.90979 0.49466 0.0
C3856 C 0.33672 0.91625 0.52917 0.0
C3857 C 0.32435 0.91584 0.5336 0.0
C3858 C 0.32933 0.91048 0.50844 0.0
C3859 C 0.31486 0.91199 0.52539 0.0
C3860 C 0.32127 0.90516 0.48709 0.0
C3861 C 0.34176 0.91714 0.47648 0.0
N3862 N 0.31753 0.90954 0.51321 0.0
N3863 N 0.34108 0.91535 0.48911 0.0
H3864 H 0.06002 0.30109 0.52894 0.0
H3865 H 0.08304 0.34207 0.47119 0.0
H3866 H 0.08065 0.3355 0.53425 0.0
H3867 H 0.07072 0.30359 0.46837 0.0
H3868 H 0.08283 0.34016 0.4941 0.0
H3869 H 0.06412 0.30222 0.50661 0.0
C3870 C 0.06544 0.30892 0.52539 0.0
C3871 C 0.06991 0.31829 0.53346 0.0
C3872 C 0.08033 0.33212 0.48843 0.0
C3873 C 0.07465 0.31965 0.50772 0.0
C3874 C 0.08044 0.33318 0.47536 0.0
C3875 C 0.07674 0.32302 0.46782 0.0
C3876 C 0.0764 0.32084 0.49397 0.0
C3877 C 0.07352 0.31173 0.47376 0.0
C3878 C 0.06785 0.30951 0.51261 0.0
C3879 C 0.07701 0.32811 0.52833 0.0
N3880 N 0.07331 0.311 0.48645 0.0
N3881 N 0.07906 0.32863 0.51572 0.0
H3882 H 0.351 0.08179 0.52372 0.0
H3883 H 0.30546 0.09342 0.46672 0.0
H3884 H 0.31424 0.0984 0.52692 0.0
H3885 H 0.34423 0.0833 0.46143 0.0
H3886 H 0.30983 0.09829 0.48857 0.0
H3887 H 0.3503 0.08528 0.50101 0.0
C3888 C 0.34292 0.08646 0.5197 0.0
C3889 C 0.33254 0.08956 0.52719 0.0
C3890 C 0.31748 0.09519 0.48265 0.0
C3891 C 0.33163 0.09345 0.50127 0.0
C3892 C 0.31497 0.0924 0.47017 0.0
C3893 C 0.32448 0.08783 0.46236 0.0
C3894 C 0.32954 0.09307 0.48751 0.0
C3895 C 0.33665 0.08678 0.46722 0.0
C3896 C 0.34251 0.08841 0.50673 0.0
C3897 C 0.32235 0.09562 0.52149 0.0
N3898 N 0.3388 0.08912 0.4796 0.0
N3899 N 0.32208 0.09717 0.50888 0.0
H3900 H 0.9114 0.34516 0.46662 0.0
H3901 H 0.90786 0.30699 0.53107 0.0
H3902 H 0.9255 0.30769 0.47242 0.0
H3903 H 0.90996 0.34743 0.53046 0.0
H3904 H 0.90764 0.30689 0.50824 0.0
H3905 H 0.90498 0.34582 0.48889 0.0
C3906 C 0.913 0.33706 0.47253 0.0
C3907 C 0.91912 0.32642 0.46778 0.0
C3908 C 0.90797 0.3158 0.51311 0.0
C3909 C 0.9116 0.32698 0.49288 0.0
C3910 C 0.90805 0.31588 0.52616 0.0
C3911 C 0.90921 0.32723 0.53272 0.0
C3912 C 0.90904 0.32713 0.50652 0.0
C3913 C 0.90923 0.33845 0.52579 0.0
C3914 C 0.90937 0.33744 0.48518 0.0
C3915 C 0.92098 0.31615 0.47577 0.0
N3916 N 0.90935 0.33812 0.51302 0.0
N3917 N 0.91723 0.31669 0.48789 0.0
H3918 H 0.08201 0.64923 0.46334 0.0
H3919 H 0.09716 0.68131 0.52936 0.0
H3920 H 0.08667 0.68884 0.46986 0.0
H3921 H 0.07963 0.64495 0.52635 0.0
H3922 H 0.10018 0.6815 0.50672 0.0
H3923 H 0.08734 0.64527 0.48554 0.0
C3924 C 0.08448 0.65702 0.46937 0.0
C3925 C 0.08385 0.66937 0.46491 0.0
C3926 C 0.09586 0.67337 0.51102 0.0
C3927 C 0.08999 0.66497 0.48997 0.0
C3928 C 0.09416 0.67324 0.52396 0.0
C3929 C 0.08787 0.66322 0.52972 0.0
C3930 C 0.09115 0.66348 0.50373 0.0
C3931 C 0.08439 0.65293 0.52226 0.0
C3932 C 0.08745 0.65478 0.48199 0.0
C3933 C 0.08698 0.67919 0.47303 0.0
N3934 N 0.08584 0.65342 0.50958 0.0
N3935 N 0.08987 0.67679 0.48516 0.0
H3936 H 0.06928 0.15394 0.5327 0.0
H3937 H 0.09339 0.18382 0.4692 0.0
H3938 H 0.10109 0.17892 0.53116 0.0
H3939 H 0.07082 0.15023 0.47025 0.0
H3940 H 0.0964 0.18223 0.49186 0.0
H3941 H 0.0697 0.15237 0.50985 0.0
C3942 C 0.07643 0.159 0.52756 0.0
C3943 C 0.08511 0.16665 0.53384 0.0
C3944 C 0.09091 0.17513 0.48711 0.0
C3945 C 0.08554 0.16501 0.50767 0.0
C3946 C 0.08915 0.17605 0.47418 0.0
C3947 C 0.08175 0.1672 0.46783 0.0
C3948 C 0.08507 0.1654 0.49379 0.0
C3949 C 0.07656 0.15728 0.47476 0.0
C3950 C 0.07668 0.15807 0.51452 0.0
C3951 C 0.09421 0.17293 0.5267 0.0
N3952 N 0.07818 0.15674 0.48739 0.0
N3953 N 0.09408 0.17211 0.51398 0.0
H3954 H 0.85479 0.0637 0.46823 0.0
H3955 H 0.82538 0.10008 0.52691 0.0
H3956 H 0.82424 0.09008 0.46522 0.0
H3957 H 0.8438 0.06418 0.53018 0.0
H3958 H 0.82909 0.0996 0.50425 0.0
H3959 H 0.85491 0.06691 0.49103 0.0
C3960 C 0.84824 0.07029 0.47234 0.0
C3961 C 0.83941 0.07654 0.46485 0.0
C3962 C 0.83241 0.0919 0.50997 0.0
C3963 C 0.83957 0.0803 0.49079 0.0
C3964 C 0.83035 0.09218 0.5229 0.0
C3965 C 0.83417 0.08209 0.53042 0.0
C3966 C 0.83848 0.08153 0.50457 0.0
C3967 C 0.84057 0.07209 0.52471 0.0
C3968 C 0.84828 0.07207 0.48532 0.0
C3969 C 0.83111 0.08495 0.47066 0.0
N3970 N 0.84249 0.07205 0.51211 0.0
N3971 N 0.83138 0.08658 0.48328 0.0
H3972 H 0.89755 0.821 0.52835 0.0
H3973 H 0.93368 0.85215 0.4704 0.0
H3974 H 0.93224 0.84148 0.53222 0.0
H3975 H 0.90928 0.82006 0.46676 0.0
H3976 H 0.92976 0.85219 0.49307 0.0
H3977 H 0.89834 0.82453 0.50564 0.0
C3978 C 0.90523 0.82639 0.52445 0.0
C3979 C 0.91492 0.83084 0.53216 0.0
C3980 C 0.92519 0.84523 0.48726 0.0
C3981 C 0.91582 0.83497 0.50628 0.0
C3982 C 0.92737 0.84523 0.47434 0.0
C3983 C 0.9219 0.836 0.46671 0.0
C3984 C 0.91733 0.83607 0.49253 0.0
C3985 C 0.91381 0.82725 0.47231 0.0
C3986 C 0.9057 0.82835 0.51151 0.0
C3987 C 0.92465 0.83776 0.52661 0.0
N3988 N 0.91179 0.82748 0.48489 0.0
N3989 N 0.92487 0.83958 0.514 0.0
H3990 H 0.19054 0.91857 0.46521 0.0
H3991 H 0.16962 0.9398 0.53311 0.0
H3992 H 0.15708 0.94063 0.47081 0.0
H3993 H 0.18634 0.90354 0.52657 0.0
H3994 H 0.16761 0.94269 0.51037 0.0
H3995 H 0.19193 0.91537 0.48793 0.0
C3996 C 0.18352 0.92278 0.47122 0.0
C3997 C 0.17367 0.92987 0.46614 0.0
C3998 C 0.17168 0.9341 0.51396 0.0
C3999 C 0.17532 0.92638 0.49206 0.0
C4000 C 0.17288 0.93247 0.52689 0.0
C4001 C 0.17814 0.92141 0.53171 0.0
C4002 C 0.17606 0.92476 0.5058 0.0
C4003 C 0.18218 0.91218 0.52323 0.0
C4004 C 0.18429 0.92089 0.48415 0.0
C4005 C 0.16478 0.93505 0.47436 0.0
N4006 N 0.18118 0.91411 0.51067 0.0
N4007 N 0.16589 0.93331 0.48694 0.0
H4008 H 0.06393 0.84192 0.47002 0.0
H4009 H 0.09016 0.82278 0.53648 0.0
H4010 H 0.09959 0.82334 0.47466 0.0
H4011 H 0.06289 0.85232 0.53185 0.0
H4012 H 0.09384 0.8229 0.51388 0.0
H4013 H 0.06333 0.84593 0.49257 0.0
C4014 C 0.07169 0.83877 0.47577 0.0
C4015 C 0.08178 0.83218 0.47047 0.0
C4016 C 0.08717 0.82947 0.51781 0.0
C4017 C 0.08107 0.83664 0.49629 0.0
C4018 C 0.08503 0.82938 0.53071 0.0
C4019 C 0.07612 0.83749 0.53603 0.0
C4020 C 0.08019 0.83754 0.51013 0.0
C4021 C 0.06982 0.8459 0.52812 0.0
C4022 C 0.07136 0.84112 0.48863 0.0
C4023 C 0.09162 0.82842 0.47835 0.0
N4024 N 0.07183 0.84558 0.51553 0.0
N4025 N 0.09093 0.83055 0.49091 0.0
H4026 H 0.1689 0.09075 0.47006 0.0
H4027 H 0.19398 0.05555 0.5309 0.0
H4028 H 0.19362 0.05877 0.46795 0.0
H4029 H 0.15895 0.07581 0.53043 0.0
H4030 H 0.19572 0.05852 0.5082 0.0
H4031 H 0.16691 0.0874 0.49269 0.0
C4032 C 0.17395 0.08306 0.47436 0.0
C4033 C 0.18144 0.07502 0.4671 0.0
C4034 C 0.18763 0.06226 0.51308 0.0
C4035 C 0.17925 0.0712 0.49297 0.0
C4036 C 0.18665 0.06061 0.52603 0.0
C4037 C 0.17629 0.06542 0.53257 0.0
C4038 C 0.17832 0.06898 0.50665 0.0
C4039 C 0.16706 0.07188 0.52576 0.0
C4040 C 0.17275 0.08111 0.48725 0.0
C4041 C 0.18771 0.06516 0.47317 0.0
N4042 N 0.16834 0.07356 0.51318 0.0
N4043 N 0.18654 0.06357 0.48577 0.0
H4044 H 0.93615 0.15292 0.53519 0.0
H4045 H 0.9046 0.18876 0.47783 0.0
H4046 H 0.92264 0.19092 0.53852 0.0
H4047 H 0.93517 0.16274 0.47274 0.0
H4048 H 0.90709 0.18678 0.50066 0.0
H4049 H 0.93197 0.15368 0.51259 0.0
C4050 C 0.93227 0.1614 0.53117 0.0
C4051 C 0.92982 0.17191 0.5387 0.0
C4052 C 0.91316 0.18145 0.4945 0.0
C4053 C 0.9248 0.17272 0.513 0.0
C4054 C 0.91169 0.1825 0.48152 0.0
C4055 C 0.91973 0.17594 0.47343 0.0
C4056 C 0.92253 0.17358 0.49936 0.0
C4057 C 0.92884 0.16802 0.47868 0.0
C4058 C 0.92991 0.16182 0.5183 0.0
C4059 C 0.92478 0.18266 0.53302 0.0
N4060 N 0.92997 0.16702 0.49132 0.0
N4061 N 0.92236 0.18277 0.5205 0.0
H4062 H 0.83247 0.91043 0.47318 0.0
H4063 H 0.80644 0.94397 0.53458 0.0
H4064 H 0.80834 0.9429 0.47168 0.0
H4065 H 0.84105 0.92297 0.53435 0.0
H4066 H 0.80527 0.94179 0.51176 0.0
H4067 H 0.83403 0.91298 0.49595 0.0
C4068 C 0.82749 0.91808 0.47763 0.0
C4069 C 0.82027 0.92647 0.47051 0.0
C4070 C 0.81313 0.9377 0.51672 0.0
C4071 C 0.82193 0.92935 0.49654 0.0
C4072 C 0.81379 0.9389 0.52973 0.0
C4073 C 0.82387 0.93366 0.53638 0.0
C4074 C 0.8225 0.93102 0.51031 0.0
C4075 C 0.83314 0.92721 0.5296 0.0
C4076 C 0.82842 0.91955 0.49061 0.0
C4077 C 0.81405 0.93624 0.47679 0.0
N4078 N 0.83219 0.926 0.51694 0.0
N4079 N 0.81495 0.93736 0.48945 0.0
H4080 H 0.46217 0.05598 0.19049 0.0
H4081 H 0.5229 0.09409 0.17083 0.0
H4082 H 0.46176 0.08152 0.15911 0.0
H4083 H 0.52497 0.05687 0.18659 0.0
H4084 H 0.50009 0.09163 0.16879 0.0
H4085 H 0.485 0.05814 0.19162 0.0
C4086 C 0.46689 0.06204 0.18384 0.0
C4087 C 0.46008 0.06856 0.17468 0.0
C4088 C 0.50559 0.08401 0.17265 0.0
C4089 C 0.48611 0.07121 0.17605 0.0
C4090 C 0.51856 0.08542 0.17387 0.0
C4091 C 0.52583 0.07567 0.17888 0.0
C4092 C 0.49985 0.07289 0.17674 0.0
C4093 C 0.51974 0.06461 0.18262 0.0
C4094 C 0.4799 0.06323 0.18447 0.0
C4095 C 0.46667 0.07627 0.16627 0.0
N4096 N 0.50709 0.06356 0.18159 0.0
N4097 N 0.47933 0.07748 0.16723 0.0
H4098 H 0.90714 0.47131 0.18433 0.0
H4099 H 0.93124 0.53426 0.15343 0.0
H4100 H 0.92929 0.47178 0.15045 0.0
H4101 H 0.89968 0.53324 0.17875 0.0
H4102 H 0.93055 0.5114 0.152 0.0
H4103 H 0.9041 0.49394 0.18239 0.0
C4104 C 0.91127 0.47615 0.17642 0.0
C4105 C 0.91857 0.46965 0.16759 0.0
C4106 C 0.92367 0.51619 0.15774 0.0
C4107 C 0.91524 0.49559 0.1654 0.0
C4108 C 0.92408 0.52924 0.15858 0.0
C4109 C 0.91556 0.53567 0.1663 0.0
C4110 C 0.91484 0.50948 0.16483 0.0
C4111 C 0.90644 0.52867 0.1727 0.0
C4112 C 0.9095 0.48907 0.17529 0.0
C4113 C 0.92362 0.47641 0.15749 0.0
N4114 N 0.90643 0.51593 0.17198 0.0
N4115 N 0.92201 0.48904 0.15676 0.0
H4116 H 0.46669 0.93874 0.15764 0.0
H4117 H 0.53321 0.91721 0.18182 0.0
H4118 H 0.4714 0.90539 0.18008 0.0
H4119 H 0.52892 0.93716 0.14688 0.0
H4120 H 0.5105 0.91404 0.18254 0.0
H4121 H 0.48944 0.93962 0.15461 0.0
C4122 C 0.4725 0.93156 0.16186 0.0
C4123 C 0.46715 0.92199 0.16916 0.0
C4124 C 0.51455 0.91901 0.17466 0.0
C4125 C 0.49315 0.92308 0.16588 0.0
C4126 C 0.52749 0.92088 0.17427 0.0
C4127 C 0.53295 0.9275 0.16429 0.0
C4128 C 0.50698 0.92402 0.16515 0.0
C4129 C 0.5251 0.93198 0.15473 0.0
C4130 C 0.48546 0.93205 0.16009 0.0
C4131 C 0.47513 0.91291 0.17436 0.0
N4132 N 0.51247 0.93031 0.15547 0.0
N4133 N 0.48775 0.91377 0.17277 0.0
H4134 H 0.06542 0.53604 0.15457 0.0
H4135 H 0.09673 0.47852 0.19034 0.0
H4136 H 0.07826 0.53906 0.19283 0.0
H4137 H 0.06631 0.47349 0.16414 0.0
H4138 H 0.09426 0.50135 0.18838 0.0
H4139 H 0.06972 0.51345 0.15518 0.0
C4140 C 0.06918 0.53196 0.16307 0.0
C4141 C 0.0714 0.53939 0.1737 0.0
C4142 C 0.08823 0.4952 0.183 0.0
C4143 C 0.07657 0.51372 0.17433 0.0
C4144 C 0.08969 0.48222 0.18402 0.0
C4145 C 0.08167 0.47415 0.17742 0.0
C4146 C 0.07889 0.50008 0.17511 0.0
C4147 C 0.07263 0.47941 0.16945 0.0
C4148 C 0.07161 0.5191 0.16341 0.0
C4149 C 0.07629 0.53362 0.18448 0.0
N4150 N 0.0715 0.49206 0.16848 0.0
N4151 N 0.07879 0.52112 0.1845 0.0
H4152 H 0.4698 0.93518 0.85352 0.0
H4153 H 0.52818 0.90284 0.81944 0.0
H4154 H 0.46621 0.91344 0.81957 0.0
H4155 H 0.5316 0.93669 0.84137 0.0
H4156 H 0.50545 0.90325 0.82285 0.0
H4157 H 0.49261 0.9324 0.85255 0.0
C4158 C 0.47379 0.92971 0.84595 0.0
C4159 C 0.46612 0.92461 0.83656 0.0
C4160 C 0.51122 0.91052 0.82697 0.0
C4161 C 0.49211 0.92132 0.83547 0.0
C4162 C 0.52418 0.91027 0.82508 0.0
C4163 C 0.53177 0.9198 0.83004 0.0
C4164 C 0.50587 0.92025 0.83405 0.0
C4165 C 0.52607 0.92922 0.83727 0.0
C4166 C 0.48679 0.92818 0.84538 0.0
C4167 C 0.4718 0.91763 0.82694 0.0
N4168 N 0.51345 0.92921 0.83907 0.0
N4169 N 0.48445 0.91618 0.82665 0.0
H4170 H 0.10067 0.5259 0.82148 0.0
H4171 H 0.06286 0.46914 0.85284 0.0
H4172 H 0.06554 0.53076 0.84101 0.0
H4173 H 0.08865 0.46451 0.82199 0.0
H4174 H 0.06691 0.49179 0.85244 0.0
H4175 H 0.09947 0.50332 0.82554 0.0
C4176 C 0.09279 0.52225 0.82676 0.0
C4177 C 0.08312 0.5302 0.8308 0.0
C4178 C 0.07175 0.48576 0.84585 0.0
C4179 C 0.08175 0.50444 0.83551 0.0
C4180 C 0.06949 0.47286 0.8461 0.0
C4181 C 0.07533 0.46496 0.83735 0.0
C4182 C 0.08004 0.49074 0.83691 0.0
C4183 C 0.08383 0.47028 0.82881 0.0
C4184 C 0.0921 0.50937 0.82902 0.0
C4185 C 0.07313 0.52495 0.8376 0.0
N4186 N 0.08591 0.48284 0.82879 0.0
N4187 N 0.07268 0.51239 0.83971 0.0
H4188 H 0.47051 0.09379 0.83068 0.0
H4189 H 0.53249 0.0574 0.8115 0.0
H4190 H 0.46967 0.05744 0.81289 0.0
H4191 H 0.53135 0.08105 0.84432 0.0
H4192 H 0.50978 0.05969 0.80934 0.0
H4193 H 0.4933 0.09165 0.83331 0.0
C4194 C 0.47512 0.08539 0.8273 0.0
C4195 C 0.4682 0.07576 0.82158 0.0
C4196 C 0.51451 0.06435 0.81702 0.0
C4197 C 0.49415 0.07336 0.82441 0.0
C4198 C 0.52746 0.06309 0.81824 0.0
C4199 C 0.5338 0.06902 0.82813 0.0
C4200 C 0.50787 0.07181 0.82559 0.0
C4201 C 0.5268 0.07626 0.83662 0.0
C4202 C 0.48807 0.08416 0.82886 0.0
C4203 C 0.47463 0.06505 0.81741 0.0
N4204 N 0.5142 0.07755 0.8351 0.0
N4205 N 0.48726 0.06419 0.81882 0.0
H4206 H 0.8997 0.47032 0.81988 0.0
H4207 H 0.9394 0.52639 0.84948 0.0
H4208 H 0.93733 0.46514 0.83383 0.0
H4209 H 0.91261 0.532 0.81969 0.0
H4210 H 0.93601 0.50365 0.84784 0.0
H4211 H 0.90168 0.49291 0.82372 0.0
C4212 C 0.90834 0.47392 0.82383 0.0
C4213 C 0.91841 0.46587 0.82646 0.0
C4214 C 0.93083 0.50991 0.84174 0.0
C4215 C 0.92063 0.49158 0.83102 0.0
C4216 C 0.9327 0.52285 0.84272 0.0
C4217 C 0.92633 0.53106 0.83465 0.0
C4218 C 0.92234 0.50522 0.83283 0.0
C4219 C 0.91779 0.52598 0.82601 0.0
C4220 C 0.90947 0.48679 0.82597 0.0
C4221 C 0.92939 0.47104 0.83155 0.0
N4222 N 0.91602 0.51339 0.82535 0.0
N4223 N 0.9302 0.48358 0.83372 0.0
H4224 H 0.17747 0.46621 0.08976 0.0
H4225 H 0.15244 0.53182 0.06591 0.0
H4226 H 0.14479 0.46955 0.06612 0.0
H4227 H 0.17601 0.52811 0.0986 0.0
H4228 H 0.14942 0.50911 0.06576 0.0
H4229 H 0.17716 0.48886 0.09305 0.0
C4230 C 0.17018 0.4717 0.08532 0.0
C4231 C 0.1612 0.46599 0.07757 0.0
C4232 C 0.15512 0.51328 0.07306 0.0
C4233 C 0.16086 0.49196 0.08123 0.0
C4234 C 0.15688 0.52624 0.07314 0.0
C4235 C 0.16457 0.53186 0.08223 0.0
C4236 C 0.16127 0.50584 0.08201 0.0
C4237 C 0.17002 0.52417 0.09141 0.0
C4238 C 0.16998 0.48463 0.08725 0.0
C4239 C 0.15191 0.47357 0.07215 0.0
N4240 N 0.16841 0.51153 0.09096 0.0
N4241 N 0.15208 0.4862 0.07395 0.0
H4242 H 0.19191 0.46933 0.94358 0.0
H4243 H 0.15937 0.53281 0.9212 0.0
H4244 H 0.16897 0.47168 0.91031 0.0
H4245 H 0.19202 0.53225 0.94511 0.0
H4246 H 0.16098 0.51006 0.91885 0.0
H4247 H 0.19033 0.49209 0.94598 0.0
C4248 C 0.18653 0.47462 0.93679 0.0
C4249 C 0.18057 0.46858 0.92672 0.0
C4250 C 0.16779 0.51493 0.9246 0.0
C4251 C 0.17865 0.49461 0.92949 0.0
C4252 C 0.16685 0.52791 0.926 0.0
C4253 C 0.17558 0.53446 0.93336 0.0
C4254 C 0.17742 0.5084 0.93075 0.0
C4255 C 0.18511 0.52759 0.93931 0.0
C4256 C 0.18567 0.48762 0.93815 0.0
C4257 C 0.17375 0.47594 0.91819 0.0
N4258 N 0.18574 0.51493 0.93792 0.0
N4259 N 0.17292 0.48856 0.91981 0.0
H4260 H 0.46761 0.15635 0.91752 0.0
H4261 H 0.53064 0.18649 0.94348 0.0
H4262 H 0.46791 0.18752 0.94335 0.0
H4263 H 0.52879 0.1694 0.90683 0.0
H4264 H 0.50792 0.18422 0.94544 0.0
H4265 H 0.49043 0.15832 0.9153 0.0
C4266 C 0.47248 0.16356 0.92276 0.0
C4267 C 0.46586 0.1718 0.93062 0.0
C4268 C 0.5125 0.18099 0.93697 0.0
C4269 C 0.49187 0.174 0.92821 0.0
C4270 C 0.52546 0.18223 0.93585 0.0
C4271 C 0.53161 0.17815 0.92495 0.0
C4272 C 0.50564 0.17542 0.92722 0.0
C4273 C 0.5244 0.17273 0.91536 0.0
C4274 C 0.48546 0.16472 0.92143 0.0
C4275 C 0.47262 0.18101 0.93714 0.0
N4276 N 0.51178 0.17144 0.91675 0.0
N4277 N 0.48527 0.18181 0.93586 0.0
H4278 H 0.80486 0.52687 0.9399 0.0
H4279 H 0.84078 0.46375 0.9224 0.0
H4280 H 0.82952 0.52401 0.90792 0.0
H4281 H 0.8058 0.46398 0.94278 0.0
H4282 H 0.83881 0.48641 0.9193 0.0
H4283 H 0.80703 0.50428 0.94328 0.0
C4284 C 0.81074 0.52149 0.93359 0.0
C4285 C 0.817 0.52733 0.92359 0.0
C4286 C 0.83159 0.48148 0.92445 0.0
C4287 C 0.81962 0.50153 0.92751 0.0
C4288 C 0.83273 0.46857 0.9263 0.0
C4289 C 0.82342 0.46196 0.93285 0.0
C4290 C 0.82117 0.48786 0.92937 0.0
C4291 C 0.81316 0.46869 0.93763 0.0
C4292 C 0.81194 0.50861 0.93551 0.0
C4293 C 0.82447 0.51989 0.9157 0.0
N4294 N 0.81234 0.48128 0.93584 0.0
N4295 N 0.82564 0.50738 0.91788 0.0
H4296 H 0.47688 0.82058 0.89901 0.0
H4297 H 0.53497 0.85234 0.93439 0.0
H4298 H 0.47357 0.83964 0.93457 0.0
H4299 H 0.53866 0.82179 0.90808 0.0
H4300 H 0.51219 0.85202 0.93111 0.0
H4301 H 0.49936 0.82528 0.8989 0.0
C4302 C 0.48084 0.8259 0.9067 0.0
C4303 C 0.47338 0.82958 0.91689 0.0
C4304 C 0.51804 0.8455 0.92596 0.0
C4305 C 0.49901 0.83504 0.91678 0.0
C4306 C 0.53101 0.84572 0.92778 0.0
C4307 C 0.53868 0.83698 0.92161 0.0
C4308 C 0.51276 0.83662 0.91779 0.0
C4309 C 0.53307 0.82859 0.91315 0.0
C4310 C 0.49366 0.82854 0.90665 0.0
C4311 C 0.47901 0.83647 0.92661 0.0
N4312 N 0.52044 0.82858 0.91153 0.0
N4313 N 0.4915 0.83894 0.92634 0.0
H4314 H 0.84237 0.46635 0.06363 0.0
H4315 H 0.82003 0.53224 0.08879 0.0
H4316 H 0.82275 0.47043 0.09879 0.0
H4317 H 0.85144 0.52859 0.06354 0.0
H4318 H 0.82049 0.5096 0.0923 0.0
H4319 H 0.84551 0.48906 0.06301 0.0
C4320 C 0.83881 0.47201 0.07127 0.0
C4321 C 0.83221 0.46649 0.08124 0.0
C4322 C 0.82738 0.51377 0.08611 0.0
C4323 C 0.83565 0.49249 0.0805 0.0
C4324 C 0.8271 0.52668 0.08407 0.0
C4325 C 0.83567 0.53229 0.0758 0.0
C4326 C 0.83613 0.50636 0.07965 0.0
C4327 C 0.84467 0.52465 0.06999 0.0
C4328 C 0.84066 0.48496 0.07094 0.0
C4329 C 0.82788 0.47428 0.09093 0.0
N4330 N 0.84455 0.51203 0.07188 0.0
N4331 N 0.82952 0.48691 0.09023 0.0
H4332 H 0.4685 0.85198 0.06518 0.0
H4333 H 0.52792 0.82173 0.09956 0.0
H4334 H 0.46602 0.82003 0.0899 0.0
H4335 H 0.5304 0.84158 0.06438 0.0
H4336 H 0.5052 0.8252 0.09961 0.0
H4337 H 0.49128 0.85232 0.06837 0.0
C4338 C 0.47272 0.84516 0.07142 0.0
C4339 C 0.46539 0.83588 0.07718 0.0
C4340 C 0.51077 0.8289 0.09196 0.0
C4341 C 0.49133 0.83629 0.08092 0.0
C4342 C 0.52372 0.82698 0.09195 0.0
C4343 C 0.53103 0.83126 0.08188 0.0
C4344 C 0.50513 0.8353 0.08193 0.0
C4345 C 0.52509 0.83799 0.07225 0.0
C4346 C 0.4857 0.84533 0.07319 0.0
C4347 C 0.47134 0.82726 0.08516 0.0
N4348 N 0.51248 0.83978 0.0725 0.0
N4349 N 0.48397 0.82765 0.08677 0.0
H4350 H 0.53205 0.18124 0.0869 0.0
H4351 H 0.46668 0.1549 0.06395 0.0
H4352 H 0.52896 0.14663 0.06613 0.0
H4353 H 0.46998 0.17933 0.09605 0.0
H4354 H 0.48945 0.15221 0.06394 0.0
H4355 H 0.50931 0.18133 0.08971 0.0
C4356 C 0.52659 0.17362 0.08298 0.0
C4357 C 0.5324 0.16394 0.07621 0.0
C4358 C 0.48518 0.15804 0.07107 0.0
C4359 C 0.50636 0.16407 0.0793 0.0
C4360 C 0.47219 0.15961 0.07106 0.0
C4361 C 0.46644 0.1674 0.07998 0.0
C4362 C 0.49249 0.16449 0.0799 0.0
C4363 C 0.47403 0.17323 0.08901 0.0
C4364 C 0.51362 0.17365 0.08464 0.0
C4365 C 0.52486 0.15427 0.07141 0.0
N4366 N 0.48669 0.1718 0.08864 0.0
N4367 N 0.51221 0.15466 0.07291 0.0
H4368 H 0.55072 0.68778 0.96522 0.0
H4369 H 0.59055 0.66951 0.02554 0.0
H4370 H 0.57798 0.65786 0.96455 0.0
H4371 H 0.55329 0.68514 0.02792 0.0
H4372 H 0.58797 0.66758 0.00275 0.0
H4373 H 0.55341 0.6894 0.98794 0.0
C4374 C 0.55728 0.68156 0.96985 0.0
C4375 C 0.56411 0.67264 0.96299 0.0
C4376 C 0.58037 0.6714 0.0083 0.0
C4377 C 0.56733 0.67457 0.98893 0.0
C4378 C 0.58185 0.67256 0.02127 0.0
C4379 C 0.5721 0.67747 0.02863 0.0
C4380 C 0.56918 0.67542 0.00266 0.0
C4381 C 0.56101 0.68124 0.02262 0.0
C4382 C 0.55878 0.68246 0.98281 0.0
C4383 C 0.57247 0.66481 0.96949 0.0
N4384 N 0.55989 0.68022 0.00998 0.0
N4385 N 0.57392 0.66601 0.9821 0.0
H4386 H 0.31517 0.55181 0.02701 0.0
H4387 H 0.34354 0.57882 0.96369 0.0
H4388 H 0.33161 0.58877 0.02545 0.0
H4389 H 0.31115 0.55456 0.96442 0.0
H4390 H 0.3427 0.58016 0.98667 0.0
H4391 H 0.3172 0.55018 0.00424 0.0
C4392 C 0.31931 0.55954 0.0219 0.0
C4393 C 0.32319 0.57047 0.02813 0.0
C4394 C 0.33581 0.57455 0.98176 0.0
C4395 C 0.32562 0.56859 0.00212 0.0
C4396 C 0.33632 0.57372 0.96869 0.0
C4397 C 0.32738 0.56658 0.96217 0.0
C4398 C 0.3265 0.56796 0.98831 0.0
C4399 C 0.31817 0.56022 0.96908 0.0
C4400 C 0.32039 0.55863 0.00891 0.0
C4401 C 0.32843 0.58022 0.021 0.0
N4402 N 0.31803 0.56098 0.98179 0.0
N4403 N 0.32956 0.57903 0.00834 0.0
H4404 H 0.40013 0.32116 0.02399 0.0
H4405 H 0.43646 0.35301 0.96655 0.0
H4406 H 0.4357 0.34007 0.02797 0.0
H4407 H 0.4102 0.3225 0.96235 0.0
H4408 H 0.43295 0.35251 0.9893 0.0
H4409 H 0.40048 0.32582 0.00151 0.0
C4410 C 0.40793 0.32643 0.02017 0.0
C4411 C 0.41797 0.3301 0.02783 0.0
C4412 C 0.42787 0.34604 0.98335 0.0
C4413 C 0.41838 0.33551 0.00219 0.0
C4414 C 0.42982 0.34636 0.97039 0.0
C4415 C 0.42371 0.33769 0.96259 0.0
C4416 C 0.41962 0.33713 0.98847 0.0
C4417 C 0.41522 0.32925 0.96805 0.0
C4418 C 0.40814 0.32904 0.00735 0.0
C4419 C 0.42783 0.33692 0.02238 0.0
N4420 N 0.41345 0.32915 0.98065 0.0
N4421 N 0.42782 0.33937 0.00988 0.0
H4422 H 0.6878 0.44384 0.02811 0.0
H4423 H 0.65704 0.42119 0.96423 0.0
H4424 H 0.66926 0.40798 0.02514 0.0
H4425 H 0.69021 0.44436 0.96522 0.0
H4426 H 0.65858 0.41847 0.98703 0.0
H4427 H 0.68595 0.44642 0.0054 0.0
C4428 C 0.6833 0.43653 0.02268 0.0
C4429 C 0.67869 0.42566 0.02851 0.0
C4430 C 0.6655 0.42414 0.98222 0.0
C4431 C 0.67644 0.42866 0.00257 0.0
C4432 C 0.66459 0.42576 0.96925 0.0
C4433 C 0.67352 0.43301 0.96284 0.0
C4434 C 0.67524 0.43003 0.98882 0.0
C4435 C 0.68316 0.43866 0.96979 0.0
C4436 C 0.6823 0.43799 0.00973 0.0
C4437 C 0.673 0.41646 0.021 0.0
N4438 N 0.68371 0.43713 0.98243 0.0
N4439 N 0.67194 0.41821 0.0084 0.0
H4440 H 0.5907 0.3191 0.03195 0.0
H4441 H 0.56627 0.3423 0.96611 0.0
H4442 H 0.56665 0.35145 0.02825 0.0
H4443 H 0.60079 0.32155 0.97003 0.0
H4444 H 0.5658 0.3454 0.98882 0.0
H4445 H 0.59416 0.31935 0.0093 0.0
C4446 C 0.58622 0.32632 0.02638 0.0
C4447 C 0.5783 0.33522 0.03198 0.0
C4448 C 0.57356 0.3403 0.9847 0.0
C4449 C 0.58213 0.33546 0.00604 0.0
C4450 C 0.57381 0.33849 0.97174 0.0
C4451 C 0.58355 0.33159 0.96619 0.0
C4452 C 0.58296 0.33496 0.99218 0.0
C4453 C 0.59311 0.32693 0.97393 0.0
C4454 C 0.58825 0.32648 0.01346 0.0
C4455 C 0.57282 0.3444 0.02431 0.0
N4456 N 0.59248 0.32854 0.98657 0.0
N4457 N 0.57469 0.34417 0.0117 0.0
H4458 H 0.66601 0.56166 0.96259 0.0
H4459 H 0.6848 0.58355 0.03092 0.0
H4460 H 0.68389 0.59736 0.9692 0.0
H4461 H 0.65155 0.56147 0.02429 0.0
H4462 H 0.68696 0.58668 0.00827 0.0
H4463 H 0.66294 0.55929 0.98525 0.0
C4464 C 0.66932 0.56898 0.96881 0.0
C4465 C 0.67522 0.57973 0.96402 0.0
C4466 C 0.67917 0.5812 0.0118 0.0
C4467 C 0.67187 0.57698 0.98988 0.0
C4468 C 0.67796 0.57936 0.0247 0.0
C4469 C 0.66797 0.57224 0.02948 0.0
C4470 C 0.67051 0.57563 0.00361 0.0
C4471 C 0.65934 0.56707 0.02099 0.0
C4472 C 0.6675 0.56765 0.98171 0.0
C4473 C 0.67926 0.58895 0.9725 0.0
N4474 N 0.66089 0.56875 0.00844 0.0
N4475 N 0.67762 0.58732 0.98504 0.0
H4476 H 0.43013 0.64432 0.03214 0.0
H4477 H 0.40016 0.68038 0.97358 0.0
H4478 H 0.41193 0.68035 0.03521 0.0
H4479 H 0.43013 0.65341 0.97004 0.0
H4480 H 0.40065 0.67751 0.99639 0.0
H4481 H 0.42651 0.64473 0.00946 0.0
C4482 C 0.42527 0.65225 0.02807 0.0
C4483 C 0.42143 0.66237 0.03557 0.0
C4484 C 0.40703 0.67215 0.99058 0.0
C4485 C 0.41718 0.66283 0.00969 0.0
C4486 C 0.40671 0.67372 0.97758 0.0
C4487 C 0.41519 0.6672 0.96992 0.0
C4488 C 0.41576 0.66387 0.99592 0.0
C4489 C 0.42351 0.65872 0.97561 0.0
C4490 C 0.42325 0.65249 0.01514 0.0
C4491 C 0.41517 0.67241 0.02978 0.0
N4492 N 0.4236 0.65731 0.98827 0.0
N4493 N 0.41325 0.67239 0.01718 0.0
H4494 H 0.33274 0.40734 0.96849 0.0
H4495 H 0.30886 0.4401 0.03105 0.0
H4496 H 0.30954 0.44051 0.96805 0.0
H4497 H 0.34345 0.41913 0.02958 0.0
H4498 H 0.30713 0.43836 0.00823 0.0
H4499 H 0.33495 0.40951 0.99125 0.0
C4500 C 0.32809 0.41506 0.97318 0.0
C4501 C 0.32094 0.42376 0.96636 0.0
C4502 C 0.31511 0.43418 0.01292 0.0
C4503 C 0.32335 0.42621 0.99237 0.0
C4504 C 0.31609 0.43512 0.02593 0.0
C4505 C 0.32633 0.42976 0.03223 0.0
C4506 C 0.32431 0.42763 0.00616 0.0
C4507 C 0.33544 0.42346 0.0251 0.0
C4508 C 0.32941 0.41632 0.98614 0.0
C4509 C 0.31518 0.43362 0.97292 0.0
N4510 N 0.33416 0.42248 0.01245 0.0
N4511 N 0.31643 0.43452 0.98558 0.0
H4512 H 0.96601 0.58362 0.68181 0.0
H4513 H 0.03266 0.55928 0.66038 0.0
H4514 H 0.97071 0.56085 0.64868 0.0
H4515 H 0.02808 0.59375 0.68111 0.0
H4516 H 0.00996 0.55852 0.65709 0.0
H4517 H 0.98874 0.58637 0.68287 0.0
C4518 C 0.97182 0.57925 0.67472 0.0
C4519 C 0.96647 0.57195 0.66516 0.0
C4520 C 0.01395 0.5663 0.66227 0.0
C4521 C 0.99248 0.57495 0.66643 0.0
C4522 C 0.02688 0.56671 0.6642 0.0
C4523 C 0.03226 0.57657 0.67107 0.0
C4524 C 0.0063 0.57567 0.66745 0.0
C4525 C 0.02433 0.58599 0.67574 0.0
C4526 C 0.98478 0.58087 0.67531 0.0
C4527 C 0.97445 0.56656 0.65619 0.0
N4528 N 0.01173 0.58522 0.67397 0.0
N4529 N 0.98708 0.56803 0.65713 0.0
H4530 H 0.43588 0.03249 0.65713 0.0
H4531 H 0.41023 0.96691 0.67952 0.0
H4532 H 0.40073 0.02888 0.67686 0.0
H4533 H 0.43524 0.97041 0.64789 0.0
H4534 H 0.40684 0.98957 0.67907 0.0
H4535 H 0.43615 0.0098 0.6539 0.0
C4536 C 0.42816 0.02693 0.66069 0.0
C4537 C 0.4183 0.03257 0.66736 0.0
C4538 C 0.41294 0.98536 0.67213 0.0
C4539 C 0.41866 0.00659 0.66383 0.0
C4540 C 0.41493 0.97244 0.67241 0.0
C4541 C 0.4231 0.96678 0.66378 0.0
C4542 C 0.41937 0.99273 0.66333 0.0
C4543 C 0.42887 0.97439 0.65472 0.0
C4544 C 0.4283 0.01399 0.6588 0.0
C4545 C 0.40851 0.02492 0.67169 0.0
N4546 N 0.42704 0.98701 0.65485 0.0
N4547 N 0.40903 0.01228 0.67001 0.0
H4548 H 0.03132 0.441 0.6889 0.0
H4549 H 0.96906 0.40727 0.6657 0.0
H4550 H 0.02979 0.42033 0.65413 0.0
H4551 H 0.96848 0.44003 0.68948 0.0
H4552 H 0.99172 0.40996 0.663 0.0
H4553 H 0.00858 0.43882 0.69093 0.0
C4554 C 0.0262 0.43601 0.68169 0.0
C4555 C 0.03246 0.43084 0.67132 0.0
C4556 C 0.9866 0.41656 0.66877 0.0
C4557 C 0.00647 0.42821 0.67368 0.0
C4558 C 0.97369 0.41501 0.67037 0.0
C4559 C 0.96687 0.42344 0.67783 0.0
C4560 C 0.99275 0.42648 0.67486 0.0
C4561 C 0.97336 0.43334 0.68361 0.0
C4562 C 0.01323 0.43481 0.68284 0.0
C4563 C 0.02533 0.42451 0.66224 0.0
N4564 N 0.98595 0.43453 0.68208 0.0
N4565 N 0.01272 0.42327 0.66368 0.0
H4566 H 0.6029 0.97356 0.67746 0.0
H4567 H 0.56729 0.0318 0.64623 0.0
H4568 H 0.56764 0.97023 0.65786 0.0
H4569 H 0.59321 0.03533 0.67711 0.0
H4570 H 0.57081 0.00907 0.64625 0.0
H4571 H 0.60283 0.99614 0.67316 0.0
C4572 C 0.59524 0.97754 0.6721 0.0
C4573 C 0.58518 0.97004 0.66814 0.0
C4574 C 0.57582 0.01487 0.65291 0.0
C4575 C 0.5851 0.99578 0.66316 0.0
C4576 C 0.57387 0.02783 0.65287 0.0
C4577 C 0.57986 0.03543 0.66178 0.0
C4578 C 0.58395 0.00954 0.6618 0.0
C4579 C 0.58828 0.02978 0.67018 0.0
C4580 C 0.59519 0.99041 0.6697 0.0
C4581 C 0.57551 0.9757 0.66123 0.0
N4582 N 0.59004 0.01717 0.67002 0.0
N4583 N 0.57568 0.98824 0.659 0.0
H4584 H 0.03266 0.43661 0.34385 0.0
H4585 H 0.96964 0.40856 0.31685 0.0
H4586 H 0.0317 0.40181 0.32319 0.0
H4587 H 0.97011 0.43308 0.34905 0.0
H4588 H 0.99241 0.40637 0.31849 0.0
H4589 H 0.00978 0.436 0.34546 0.0
C4590 C 0.02765 0.42878 0.33975 0.0
C4591 C 0.0341 0.41928 0.33332 0.0
C4592 C 0.98751 0.41211 0.32528 0.0
C4593 C 0.00793 0.41863 0.33498 0.0
C4594 C 0.97453 0.4134 0.32433 0.0
C4595 C 0.96798 0.42106 0.33279 0.0
C4596 C 0.99404 0.41873 0.33461 0.0
C4597 C 0.97478 0.42707 0.34234 0.0
C4598 C 0.0146 0.42843 0.34071 0.0
C4599 C 0.02712 0.40934 0.32823 0.0
N4600 N 0.98747 0.42591 0.34288 0.0
N4601 N 0.01439 0.40936 0.32902 0.0
H4602 H 0.56469 0.03352 0.34445 0.0
H4603 H 0.58781 0.96776 0.31954 0.0
H4604 H 0.59858 0.0294 0.3227 0.0
H4605 H 0.56447 0.9711 0.35243 0.0
H4606 H 0.59146 0.99037 0.32009 0.0
H4607 H 0.56395 0.01076 0.34717 0.0
C4608 C 0.57204 0.02784 0.34033 0.0
C4609 C 0.58167 0.03336 0.33326 0.0
C4610 C 0.58565 0.98614 0.32727 0.0
C4611 C 0.58078 0.00732 0.33622 0.0
C4612 C 0.58352 0.97325 0.32693 0.0
C4613 C 0.57576 0.96756 0.33591 0.0
C4614 C 0.57978 0.99346 0.33649 0.0
C4615 C 0.57051 0.97511 0.34532 0.0
C4616 C 0.57163 0.01485 0.34194 0.0
C4617 C 0.59098 0.02554 0.32821 0.0
N4618 N 0.57247 0.98772 0.34527 0.0
N4619 N 0.59021 0.0129 0.32964 0.0
H4620 H 0.97805 0.59557 0.32949 0.0
H4621 H 0.03899 0.55788 0.30972 0.0
H4622 H 0.97648 0.55843 0.31345 0.0
H4623 H 0.03943 0.58314 0.34135 0.0
H4624 H 0.01619 0.56009 0.3086 0.0
H4625 H 0.00089 0.59327 0.33173 0.0
C4626 C 0.9825 0.58695 0.32646 0.0
C4627 C 0.97537 0.57717 0.32129 0.0
C4628 C 0.02129 0.56511 0.31581 0.0
C4629 C 0.00133 0.57459 0.32364 0.0
C4630 C 0.03428 0.56389 0.31643 0.0
C4631 C 0.04109 0.57031 0.32567 0.0
C4632 C 0.01508 0.57301 0.32431 0.0
C4633 C 0.03451 0.57796 0.33414 0.0
C4634 C 0.99548 0.58564 0.32779 0.0
C4635 C 0.98159 0.56618 0.31754 0.0
N4636 N 0.02185 0.5792 0.33319 0.0
N4637 N 0.99422 0.56524 0.31868 0.0
H4638 H 0.40419 0.97761 0.31252 0.0
H4639 H 0.43824 0.03477 0.34639 0.0
H4640 H 0.43576 0.97221 0.33724 0.0
H4641 H 0.42189 0.03814 0.30952 0.0
H4642 H 0.43417 0.01214 0.34582 0.0
H4643 H 0.40716 0.00038 0.31416 0.0
C4644 C 0.41163 0.98122 0.31841 0.0
C4645 C 0.41978 0.97304 0.32472 0.0
C4646 C 0.43149 0.01787 0.33788 0.0
C4647 C 0.42315 0.99895 0.32667 0.0
C4648 C 0.43378 0.03076 0.3382 0.0
C4649 C 0.43046 0.03832 0.32796 0.0
C4650 C 0.42559 0.01258 0.32737 0.0
C4651 C 0.4247 0.03263 0.31757 0.0
C4652 C 0.41337 0.99417 0.31926 0.0
C4653 C 0.42933 0.9782 0.33216 0.0
N4654 N 0.42237 0.0201 0.31758 0.0
N4655 N 0.43073 0.99084 0.33297 0.0
H4656 H 0.65271 0.9668 0.565 0.0
H4657 H 0.68645 0.025 0.5978 0.0
H4658 H 0.68851 0.96373 0.58362 0.0
H4659 H 0.66224 0.02923 0.56566 0.0
H4660 H 0.68421 0.00218 0.59614 0.0
H4661 H 0.65316 0.98954 0.5685 0.0
C4662 C 0.66062 0.97089 0.56988 0.0
C4663 C 0.67063 0.96339 0.57395 0.0
C4664 C 0.67933 0.00814 0.58952 0.0
C4665 C 0.67109 0.98927 0.57812 0.0
C4666 C 0.68054 0.02114 0.5905 0.0
C4667 C 0.67458 0.02901 0.5818 0.0
C4668 C 0.67193 0.003 0.57992 0.0
C4669 C 0.66708 0.0235 0.57249 0.0
C4670 C 0.66088 0.98384 0.57184 0.0
C4671 C 0.68066 0.96919 0.58022 0.0
N4672 N 0.66595 0.01082 0.5718 0.0
N4673 N 0.68061 0.98178 0.58215 0.0
H4674 H 0.66708 0.96631 0.44057 0.0
H4675 H 0.68778 0.03433 0.42029 0.0
H4676 H 0.68526 0.97286 0.40502 0.0
H4677 H 0.65328 0.02831 0.44055 0.0
H4678 H 0.68938 0.01167 0.41677 0.0
H4679 H 0.66422 0.98901 0.44301 0.0
C4680 C 0.67047 0.97253 0.43329 0.0
C4681 C 0.67642 0.96772 0.42258 0.0
C4682 C 0.68144 0.01535 0.42193 0.0
C4683 C 0.67335 0.99359 0.42542 0.0
C4684 C 0.68054 0.02824 0.42399 0.0
C4685 C 0.67037 0.03318 0.43072 0.0
C4686 C 0.67228 0.00733 0.42691 0.0
C4687 C 0.66123 0.02488 0.43527 0.0
C4688 C 0.66878 0.98543 0.43467 0.0
C4689 C 0.68058 0.97619 0.4134 0.0
N4690 N 0.66248 0.01231 0.43341 0.0
N4691 N 0.67911 0.98874 0.41509 0.0
H4692 H 0.02888 0.68273 0.40222 0.0
H4693 H 0.97138 0.6475 0.43484 0.0
H4694 H 0.03311 0.66014 0.43554 0.0
H4695 H 0.96707 0.68191 0.41398 0.0
H4696 H 0.99415 0.64887 0.43184 0.0
H4697 H 0.00617 0.67929 0.40311 0.0
C4698 C 0.02505 0.67694 0.40964 0.0
C4699 C 0.03288 0.67179 0.41887 0.0
C4700 C 0.98818 0.65607 0.42788 0.0
C4701 C 0.00699 0.66774 0.41986 0.0
C4702 C 0.97521 0.65527 0.42954 0.0
C4703 C 0.96734 0.66466 0.42473 0.0
C4704 C 0.99327 0.66619 0.42118 0.0
C4705 C 0.97281 0.67454 0.41795 0.0
C4706 C 0.01211 0.67504 0.41017 0.0
C4707 C 0.0274 0.66439 0.42829 0.0
N4708 N 0.98543 0.67503 0.41635 0.0
N4709 N 0.0148 0.66257 0.42854 0.0
H4710 H 0.33187 0.03126 0.40606 0.0
H4711 H 0.30641 0.97065 0.44118 0.0
H4712 H 0.30815 0.03385 0.43876 0.0
H4713 H 0.34165 0.97099 0.42126 0.0
H4714 H 0.30491 0.99342 0.43837 0.0
H4715 H 0.33351 0.0086 0.40936 0.0
C4716 C 0.32697 0.02706 0.41391 0.0
C4717 C 0.31987 0.03445 0.42216 0.0
C4718 C 0.31298 0.98848 0.43467 0.0
C4719 C 0.32164 0.00856 0.4259 0.0
C4720 C 0.31383 0.97551 0.43623 0.0
C4721 C 0.32418 0.96892 0.43147 0.0
C4722 C 0.32242 0.99487 0.42807 0.0
C4723 C 0.33354 0.9757 0.42515 0.0
C4724 C 0.32797 0.01415 0.41581 0.0
C4725 C 0.31377 0.02851 0.43221 0.0
N4726 N 0.33238 0.98829 0.42354 0.0
N4727 N 0.31472 0.01588 0.43375 0.0
H4728 H 0.96799 0.343 0.43508 0.0
H4729 H 0.03139 0.31704 0.40726 0.0
H4730 H 0.96934 0.32252 0.4002 0.0
H4731 H 0.03034 0.34879 0.43235 0.0
H4732 H 0.00869 0.31874 0.40455 0.0
H4733 H 0.9908 0.3452 0.4344 0.0
C4734 C 0.97307 0.33908 0.42721 0.0
C4735 C 0.96676 0.33249 0.41773 0.0
C4736 C 0.01345 0.32544 0.41052 0.0
C4737 C 0.99287 0.33482 0.41699 0.0
C4738 C 0.0264 0.32445 0.4121 0.0
C4739 C 0.03275 0.33273 0.42012 0.0
C4740 C 0.00676 0.33461 0.41719 0.0
C4741 C 0.02582 0.3422 0.4261 0.0
C4742 C 0.98608 0.34037 0.42681 0.0
C4743 C 0.97382 0.32766 0.40772 0.0
N4744 N 0.01316 0.34276 0.42466 0.0
N4745 N 0.98652 0.32876 0.4077 0.0
H4746 H 0.30794 0.03288 0.55444 0.0
H4747 H 0.33277 0.97208 0.58972 0.0
H4748 H 0.34276 0.03249 0.57506 0.0
H4749 H 0.30892 0.96984 0.5571 0.0
H4750 H 0.33472 0.99472 0.58643 0.0
H4751 H 0.30637 0.01013 0.55716 0.0
C4752 C 0.31526 0.02801 0.55952 0.0
C4753 C 0.32551 0.03459 0.56452 0.0
C4754 C 0.32909 0.98925 0.57998 0.0
C4755 C 0.32367 0.00863 0.56779 0.0
C4756 C 0.32791 0.97635 0.58189 0.0
C4757 C 0.32067 0.96906 0.57366 0.0
C4758 C 0.3228 0.99494 0.56992 0.0
C4759 C 0.31463 0.97509 0.56363 0.0
C4760 C 0.31437 0.01504 0.56103 0.0
C4761 C 0.33474 0.02779 0.57099 0.0
N4762 N 0.31576 0.9877 0.56209 0.0
N4763 N 0.33354 0.01519 0.57254 0.0
H4764 H 0.95977 0.30839 0.58549 0.0
H4765 H 0.02574 0.33668 0.56779 0.0
H4766 H 0.96318 0.34462 0.56776 0.0
H4767 H 0.02102 0.31173 0.5993 0.0
H4768 H 0.00295 0.339 0.56651 0.0
H4769 H 0.98237 0.30845 0.58941 0.0
C4770 C 0.96528 0.31636 0.58242 0.0
C4771 C 0.95961 0.32649 0.57623 0.0
C4772 C 0.00692 0.33314 0.5738 0.0
C4773 C 0.98544 0.32656 0.58062 0.0
C4774 C 0.0199 0.33179 0.57452 0.0
C4775 C 0.02526 0.32396 0.58364 0.0
C4776 C 0.99923 0.3264 0.58207 0.0
C4777 C 0.01727 0.31788 0.59215 0.0
C4778 C 0.97814 0.31642 0.58475 0.0
C4779 C 0.96718 0.33662 0.57256 0.0
N4780 N 0.00463 0.31908 0.59104 0.0
N4781 N 0.97975 0.33633 0.57468 0.0
H4782 H 0.9706 0.66751 0.59342 0.0
H4783 H 0.03239 0.68789 0.55735 0.0
H4784 H 0.96962 0.68582 0.55735 0.0
H4785 H 0.0316 0.65461 0.58036 0.0
H4786 H 0.00967 0.68982 0.55977 0.0
H4787 H 0.99343 0.66517 0.59128 0.0
C4788 C 0.97519 0.67107 0.58509 0.0
C4789 C 0.96822 0.67685 0.57553 0.0
C4790 C 0.01448 0.68209 0.56426 0.0
C4791 C 0.9942 0.67435 0.57313 0.0
C4792 C 0.02744 0.68101 0.56293 0.0
C4793 C 0.03388 0.67105 0.56863 0.0
C4794 C 0.00794 0.67332 0.57156 0.0
C4795 C 0.02697 0.66237 0.57574 0.0
C4796 C 0.98816 0.66967 0.58386 0.0
C4797 C 0.97462 0.68124 0.56491 0.0
N4798 N 0.01436 0.66376 0.57709 0.0
N4799 N 0.98726 0.68 0.56404 0.0
loop_
_geom_bond_atom_site_label_1
_geom_bond_atom_site_label_2
_geom_bond_distance
_geom_bond_site_symmetry_2
_ccdc_geom_bond_type
O0 Cd1 2.223 . S
O0 C8 1.315 . S
Cd1 O0 2.223 . S
Cd1 O4 2.297 . S
Cd1 O5 2.439 . S
Cd1 O11 2.240 . S
Cd2 O3 2.240 . S
Cd2 O10 2.223 . S
Cd2 O12 2.297 . S
Cd2 O13 2.439 . S
O3 Cd2 2.240 . S
O3 C8 1.279 . S
O4 Cd1 2.297 . S
O4 C6 1.247 . S
O5 Cd1 2.439 . S
O5 C6 1.208 . S
C6 O4 1.247 . S
C6 O5 1.208 . S
C7 O12 1.247 . S
C7 O13 1.208 . S
C8 O0 1.315 . S
C8 O3 1.279 . S
C9 O10 1.315 . S
C9 O11 1.279 . S
O10 Cd2 2.223 . S
O10 C9 1.315 . S
O11 Cd1 2.240 . S
O11 C9 1.279 . S
O12 Cd2 2.297 . S
O12 C7 1.247 . S
O13 Cd2 2.439 . S
O13 C7 1.208 . S
O14 Cd15 2.223 . S
O14 C22 1.315 . S
Cd15 O14 2.223 . S
Cd15 O18 2.297 . S
Cd15 O19 2.439 . S
Cd15 O25 2.240 . S
Cd16 O17 2.240 . S
Cd16 O24 2.223 . S
Cd16 O26 2.297 . S
Cd16 O27 2.439 . S
O17 Cd16 2.240 . S
O17 C22 1.279 . S
O18 Cd15 2.297 . S
O18 C20 1.247 . S
O19 Cd15 2.439 . S
O19 C20 1.208 . S
C20 O18 1.247 . S
C20 O19 1.208 . S
C21 O26 1.247 . S
C21 O27 1.208 . S
C22 O14 1.315 . S
C22 O17 1.279 . S
C23 O24 1.315 . S
C23 O25 1.279 . S
O24 Cd16 2.223 . S
O24 C23 1.315 . S
O25 Cd15 2.240 . S
O25 C23 1.279 . S
O26 Cd16 2.297 . S
O26 C21 1.247 . S
O27 Cd16 2.439 . S
O27 C21 1.208 . S
O28 Cd29 2.223 . S
O28 C36 1.315 . S
Cd29 O28 2.223 . S
Cd29 O32 2.297 . S
Cd29 O33 2.439 . S
Cd29 O39 2.240 . S
Cd30 O31 2.240 . S
Cd30 O38 2.223 . S
Cd30 O40 2.297 . S
Cd30 O41 2.439 . S
O31 Cd30 2.240 . S
O31 C36 1.279 . S
O32 Cd29 2.297 . S
O32 C34 1.247 . S
O33 Cd29 2.439 . S
O33 C34 1.208 . S
C34 O32 1.247 . S
C34 O33 1.208 . S
C35 O40 1.247 . S
C35 O41 1.208 . S
C36 O28 1.315 . S
C36 O31 1.279 . S
C37 O38 1.315 . S
C37 O39 1.279 . S
O38 Cd30 2.223 . S
O38 C37 1.315 . S
O39 Cd29 2.240 . S
O39 C37 1.279 . S
O40 Cd30 2.297 . S
O40 C35 1.247 . S
O41 Cd30 2.439 . S
O41 C35 1.208 . S
O42 Cd43 2.223 . S
O42 C50 1.315 . S
Cd43 O42 2.223 . S
Cd43 O46 2.297 . S
Cd43 O47 2.439 . S
Cd43 O53 2.240 . S
Cd44 O45 2.240 . S
Cd44 O52 2.223 . S
Cd44 O54 2.297 . S
Cd44 O55 2.439 . S
O45 Cd44 2.240 . S
O45 C50 1.279 . S
O46 Cd43 2.297 . S
O46 C48 1.247 . S
O47 Cd43 2.439 . S
O47 C48 1.208 . S
C48 O46 1.247 . S
C48 O47 1.208 . S
C49 O54 1.247 . S
C49 O55 1.208 . S
C50 O42 1.315 . S
C50 O45 1.279 . S
C51 O52 1.315 . S
C51 O53 1.279 . S
O52 Cd44 2.223 . S
O52 C51 1.315 . S
O53 Cd43 2.240 . S
O53 C51 1.279 . S
O54 Cd44 2.297 . S
O54 C49 1.247 . S
O55 Cd44 2.439 . S
O55 C49 1.208 . S
O56 Cd57 2.223 . S
O56 C64 1.315 . S
Cd57 O56 2.223 . S
Cd57 O60 2.297 . S
Cd57 O61 2.439 . S
Cd57 O67 2.240 . S
Cd58 O59 2.240 . S
Cd58 O66 2.223 . S
Cd58 O68 2.297 . S
Cd58 O69 2.439 . S
O59 Cd58 2.240 . S
O59 C64 1.279 . S
O60 Cd57 2.297 . S
O60 C62 1.247 . S
O61 Cd57 2.439 . S
O61 C62 1.208 . S
C62 O60 1.247 . S
C62 O61 1.208 . S
C63 O68 1.247 . S
C63 O69 1.208 . S
C64 O56 1.315 . S
C64 O59 1.279 . S
C65 O66 1.315 . S
C65 O67 1.279 . S
O66 Cd58 2.223 . S
O66 C65 1.315 . S
O67 Cd57 2.240 . S
O67 C65 1.279 . S
O68 Cd58 2.297 . S
O68 C63 1.247 . S
O69 Cd58 2.439 . S
O69 C63 1.208 . S
O70 Cd71 2.223 . S
O70 C78 1.315 . S
Cd71 O70 2.223 . S
Cd71 O74 2.297 . S
Cd71 O75 2.439 . S
Cd71 O81 2.240 . S
Cd72 O73 2.240 . S
Cd72 O80 2.223 . S
Cd72 O82 2.297 . S
Cd72 O83 2.439 . S
O73 Cd72 2.240 . S
O73 C78 1.279 . S
O74 Cd71 2.297 . S
O74 C76 1.247 . S
O75 Cd71 2.439 . S
O75 C76 1.208 . S
C76 O74 1.247 . S
C76 O75 1.208 . S
C77 O82 1.247 . S
C77 O83 1.208 . S
C78 O70 1.315 . S
C78 O73 1.279 . S
C79 O80 1.315 . S
C79 O81 1.279 . S
O80 Cd72 2.223 . S
O80 C79 1.315 . S
O81 Cd71 2.240 . S
O81 C79 1.279 . S
O82 Cd72 2.297 . S
O82 C77 1.247 . S
O83 Cd72 2.439 . S
O83 C77 1.208 . S
O84 Cd85 2.223 . S
O84 C92 1.315 . S
Cd85 O84 2.223 . S
Cd85 O88 2.297 . S
Cd85 O89 2.439 . S
Cd85 O95 2.240 . S
Cd86 O87 2.240 . S
Cd86 O94 2.223 . S
Cd86 O96 2.297 . S
Cd86 O97 2.439 . S
O87 Cd86 2.240 . S
O87 C92 1.279 . S
O88 Cd85 2.297 . S
O88 C90 1.247 . S
O89 Cd85 2.439 . S
O89 C90 1.208 . S
C90 O88 1.247 . S
C90 O89 1.208 . S
C91 O96 1.247 . S
C91 O97 1.208 . S
C92 O84 1.315 . S
C92 O87 1.279 . S
C93 O94 1.315 . S
C93 O95 1.279 . S
O94 Cd86 2.223 . S
O94 C93 1.315 . S
O95 Cd85 2.240 . S
O95 C93 1.279 . S
O96 Cd86 2.297 . S
O96 C91 1.247 . S
O97 Cd86 2.439 . S
O97 C91 1.208 . S
O98 Cd99 2.223 . S
O98 C106 1.315 . S
Cd99 O98 2.223 . S
Cd99 O102 2.297 . S
Cd99 O103 2.439 . S
Cd99 O109 2.240 . S
Cd100 O101 2.240 . S
Cd100 O108 2.223 . S
Cd100 O110 2.297 . S
Cd100 O111 2.439 . S
O101 Cd100 2.240 . S
O101 C106 1.279 . S
O102 Cd99 2.297 . S
O102 C104 1.247 . S
O103 Cd99 2.439 . S
O103 C104 1.208 . S
C104 O102 1.247 . S
C104 O103 1.208 . S
C105 O110 1.247 . S
C105 O111 1.208 . S
C106 O98 1.315 . S
C106 O101 1.279 . S
C107 O108 1.315 . S
C107 O109 1.279 . S
O108 Cd100 2.223 . S
O108 C107 1.315 . S
O109 Cd99 2.240 . S
O109 C107 1.279 . S
O110 Cd100 2.297 . S
O110 C105 1.247 . S
O111 Cd100 2.439 . S
O111 C105 1.208 . S
O112 Cd113 2.223 . S
O112 C120 1.315 . S
Cd113 O112 2.223 . S
Cd113 O116 2.297 . S
Cd113 O117 2.439 . S
Cd113 O123 2.240 . S
Cd114 O115 2.240 . S
Cd114 O122 2.223 . S
Cd114 O124 2.297 . S
Cd114 O125 2.439 . S
O115 Cd114 2.240 . S
O115 C120 1.279 . S
O116 Cd113 2.297 . S
O116 C118 1.247 . S
O117 Cd113 2.439 . S
O117 C118 1.208 . S
C118 O116 1.247 . S
C118 O117 1.208 . S
C119 O124 1.247 . S
C119 O125 1.208 . S
C120 O112 1.315 . S
C120 O115 1.279 . S
C121 O122 1.315 . S
C121 O123 1.279 . S
O122 Cd114 2.223 . S
O122 C121 1.315 . S
O123 Cd113 2.240 . S
O123 C121 1.279 . S
O124 Cd114 2.297 . S
O124 C119 1.247 . S
O125 Cd114 2.439 . S
O125 C119 1.208 . S
O126 Cd127 2.223 . S
O126 C134 1.315 . S
Cd127 O126 2.223 . S
Cd127 O130 2.297 . S
Cd127 O131 2.439 . S
Cd127 O137 2.240 . S
Cd128 O129 2.240 . S
Cd128 O136 2.223 . S
Cd128 O138 2.297 . S
Cd128 O139 2.439 . S
O129 Cd128 2.240 . S
O129 C134 1.279 . S
O130 Cd127 2.297 . S
O130 C132 1.247 . S
O131 Cd127 2.439 . S
O131 C132 1.208 . S
C132 O130 1.247 . S
C132 O131 1.208 . S
C133 O138 1.247 . S
C133 O139 1.208 . S
C134 O126 1.315 . S
C134 O129 1.279 . S
C135 O136 1.315 . S
C135 O137 1.279 . S
O136 Cd128 2.223 . S
O136 C135 1.315 . S
O137 Cd127 2.240 . S
O137 C135 1.279 . S
O138 Cd128 2.297 . S
O138 C133 1.247 . S
O139 Cd128 2.439 . S
O139 C133 1.208 . S
O140 Cd141 2.223 . S
O140 C148 1.315 . S
Cd141 O140 2.223 . S
Cd141 O144 2.297 . S
Cd141 O145 2.439 . S
Cd141 O151 2.240 . S
Cd142 O143 2.240 . S
Cd142 O150 2.223 . S
Cd142 O152 2.297 . S
Cd142 O153 2.439 . S
O143 Cd142 2.240 . S
O143 C148 1.279 . S
O144 Cd141 2.297 . S
O144 C146 1.247 . S
O145 Cd141 2.439 . S
O145 C146 1.208 . S
C146 O144 1.247 . S
C146 O145 1.208 . S
C147 O152 1.247 . S
C147 O153 1.208 . S
C148 O140 1.315 . S
C148 O143 1.279 . S
C149 O150 1.315 . S
C149 O151 1.279 . S
O150 Cd142 2.223 . S
O150 C149 1.315 . S
O151 Cd141 2.240 . S
O151 C149 1.279 . S
O152 Cd142 2.297 . S
O152 C147 1.247 . S
O153 Cd142 2.439 . S
O153 C147 1.208 . S
O154 Cd155 2.223 . S
O154 C162 1.315 . S
Cd155 O154 2.223 . S
Cd155 O158 2.297 . S
Cd155 O159 2.439 . S
Cd155 O165 2.240 . S
Cd156 O157 2.240 . S
Cd156 O164 2.223 . S
Cd156 O166 2.297 . S
Cd156 O167 2.439 . S
O157 Cd156 2.240 . S
O157 C162 1.279 . S
O158 Cd155 2.297 . S
O158 C160 1.247 . S
O159 Cd155 2.439 . S
O159 C160 1.208 . S
C160 O158 1.247 . S
C160 O159 1.208 . S
C161 O166 1.247 . S
C161 O167 1.208 . S
C162 O154 1.315 . S
C162 O157 1.279 . S
C163 O164 1.315 . S
C163 O165 1.279 . S
O164 Cd156 2.223 . S
O164 C163 1.315 . S
O165 Cd155 2.240 . S
O165 C163 1.279 . S
O166 Cd156 2.297 . S
O166 C161 1.247 . S
O167 Cd156 2.439 . S
O167 C161 1.208 . S
O168 Cd169 2.223 . S
O168 C176 1.315 . S
Cd169 O168 2.223 . S
Cd169 O172 2.297 . S
Cd169 O173 2.439 . S
Cd169 O179 2.240 . S
Cd170 O171 2.240 . S
Cd170 O178 2.223 . S
Cd170 O180 2.297 . S
Cd170 O181 2.439 . S
O171 Cd170 2.240 . S
O171 C176 1.279 . S
O172 Cd169 2.297 . S
O172 C174 1.247 . S
O173 Cd169 2.439 . S
O173 C174 1.208 . S
C174 O172 1.247 . S
C174 O173 1.208 . S
C175 O180 1.247 . S
C175 O181 1.208 . S
C176 O168 1.315 . S
C176 O171 1.279 . S
C177 O178 1.315 . S
C177 O179 1.279 . S
O178 Cd170 2.223 . S
O178 C177 1.315 . S
O179 Cd169 2.240 . S
O179 C177 1.279 . S
O180 Cd170 2.297 . S
O180 C175 1.247 . S
O181 Cd170 2.439 . S
O181 C175 1.208 . S
O182 Cd183 2.223 . S
O182 C190 1.315 . S
Cd183 O182 2.223 . S
Cd183 O186 2.297 . S
Cd183 O187 2.439 . S
Cd183 O193 2.240 . S
Cd184 O185 2.240 . S
Cd184 O192 2.223 . S
Cd184 O194 2.297 . S
Cd184 O195 2.439 . S
O185 Cd184 2.240 . S
O185 C190 1.279 . S
O186 Cd183 2.297 . S
O186 C188 1.247 . S
O187 Cd183 2.439 . S
O187 C188 1.208 . S
C188 O186 1.247 . S
C188 O187 1.208 . S
C189 O194 1.247 . S
C189 O195 1.208 . S
C190 O182 1.315 . S
C190 O185 1.279 . S
C191 O192 1.315 . S
C191 O193 1.279 . S
O192 Cd184 2.223 . S
O192 C191 1.315 . S
O193 Cd183 2.240 . S
O193 C191 1.279 . S
O194 Cd184 2.297 . S
O194 C189 1.247 . S
O195 Cd184 2.439 . S
O195 C189 1.208 . S
O196 Cd197 2.223 . S
O196 C204 1.315 . S
Cd197 O196 2.223 . S
Cd197 O200 2.297 . S
Cd197 O201 2.439 . S
Cd197 O207 2.240 . S
Cd198 O199 2.240 . S
Cd198 O206 2.223 . S
Cd198 O208 2.297 . S
Cd198 O209 2.439 . S
O199 Cd198 2.240 . S
O199 C204 1.279 . S
O200 Cd197 2.297 . S
O200 C202 1.247 . S
O201 Cd197 2.439 . S
O201 C202 1.208 . S
C202 O200 1.247 . S
C202 O201 1.208 . S
C203 O208 1.247 . S
C203 O209 1.208 . S
C204 O196 1.315 . S
C204 O199 1.279 . S
C205 O206 1.315 . S
C205 O207 1.279 . S
O206 Cd198 2.223 . S
O206 C205 1.315 . S
O207 Cd197 2.240 . S
O207 C205 1.279 . S
O208 Cd198 2.297 . S
O208 C203 1.247 . S
O209 Cd198 2.439 . S
O209 C203 1.208 . S
O210 Cd211 2.223 . S
O210 C218 1.315 . S
Cd211 O210 2.223 . S
Cd211 O214 2.297 . S
Cd211 O215 2.439 . S
Cd211 O221 2.240 . S
Cd212 O213 2.240 . S
Cd212 O220 2.223 . S
Cd212 O222 2.297 . S
Cd212 O223 2.439 . S
O213 Cd212 2.240 . S
O213 C218 1.279 . S
O214 Cd211 2.297 . S
O214 C216 1.247 . S
O215 Cd211 2.439 . S
O215 C216 1.208 . S
C216 O214 1.247 . S
C216 O215 1.208 . S
C217 O222 1.247 . S
C217 O223 1.208 . S
C218 O210 1.315 . S
C218 O213 1.279 . S
C219 O220 1.315 . S
C219 O221 1.279 . S
O220 Cd212 2.223 . S
O220 C219 1.315 . S
O221 Cd211 2.240 . S
O221 C219 1.279 . S
O222 Cd212 2.297 . S
O222 C217 1.247 . S
O223 Cd212 2.439 . S
O223 C217 1.208 . S
O224 Cd225 2.223 . S
O224 C232 1.315 . S
Cd225 O224 2.223 . S
Cd225 O228 2.297 . S
Cd225 O229 2.439 . S
Cd225 O235 2.240 . S
Cd226 O227 2.240 . S
Cd226 O234 2.223 . S
Cd226 O236 2.297 . S
Cd226 O237 2.439 . S
O227 Cd226 2.240 . S
O227 C232 1.279 . S
O228 Cd225 2.297 . S
O228 C230 1.247 . S
O229 Cd225 2.439 . S
O229 C230 1.208 . S
C230 O228 1.247 . S
C230 O229 1.208 . S
C231 O236 1.247 . S
C231 O237 1.208 . S
C232 O224 1.315 . S
C232 O227 1.279 . S
C233 O234 1.315 . S
C233 O235 1.279 . S
O234 Cd226 2.223 . S
O234 C233 1.315 . S
O235 Cd225 2.240 . S
O235 C233 1.279 . S
O236 Cd226 2.297 . S
O236 C231 1.247 . S
O237 Cd226 2.439 . S
O237 C231 1.208 . S
O238 Cd239 2.223 . S
O238 C246 1.315 . S
Cd239 O238 2.223 . S
Cd239 O242 2.297 . S
Cd239 O243 2.439 . S
Cd239 O249 2.240 . S
Cd240 O241 2.240 . S
Cd240 O248 2.223 . S
Cd240 O250 2.297 . S
Cd240 O251 2.439 . S
O241 Cd240 2.240 . S
O241 C246 1.279 . S
O242 Cd239 2.297 . S
O242 C244 1.247 . S
O243 Cd239 2.439 . S
O243 C244 1.208 . S
C244 O242 1.247 . S
C244 O243 1.208 . S
C245 O250 1.247 . S
C245 O251 1.208 . S
C246 O238 1.315 . S
C246 O241 1.279 . S
C247 O248 1.315 . S
C247 O249 1.279 . S
O248 Cd240 2.223 . S
O248 C247 1.315 . S
O249 Cd239 2.240 . S
O249 C247 1.279 . S
O250 Cd240 2.297 . S
O250 C245 1.247 . S
O251 Cd240 2.439 . S
O251 C245 1.208 . S
O252 Cd253 2.223 . S
O252 C260 1.315 . S
Cd253 O252 2.223 . S
Cd253 O256 2.297 . S
Cd253 O257 2.439 . S
Cd253 O263 2.240 . S
Cd254 O255 2.240 . S
Cd254 O262 2.223 . S
Cd254 O264 2.297 . S
Cd254 O265 2.439 . S
O255 Cd254 2.240 . S
O255 C260 1.279 . S
O256 Cd253 2.297 . S
O256 C258 1.247 . S
O257 Cd253 2.439 . S
O257 C258 1.208 . S
C258 O256 1.247 . S
C258 O257 1.208 . S
C259 O264 1.247 . S
C259 O265 1.208 . S
C260 O252 1.315 . S
C260 O255 1.279 . S
C261 O262 1.315 . S
C261 O263 1.279 . S
O262 Cd254 2.223 . S
O262 C261 1.315 . S
O263 Cd253 2.240 . S
O263 C261 1.279 . S
O264 Cd254 2.297 . S
O264 C259 1.247 . S
O265 Cd254 2.439 . S
O265 C259 1.208 . S
O266 Cd267 2.223 . S
O266 C274 1.315 . S
Cd267 O266 2.223 . S
Cd267 O270 2.297 . S
Cd267 O271 2.439 . S
Cd267 O277 2.240 . S
Cd268 O269 2.240 . S
Cd268 O276 2.223 . S
Cd268 O278 2.297 . S
Cd268 O279 2.439 . S
O269 Cd268 2.240 . S
O269 C274 1.279 . S
O270 Cd267 2.297 . S
O270 C272 1.247 . S
O271 Cd267 2.439 . S
O271 C272 1.208 . S
C272 O270 1.247 . S
C272 O271 1.208 . S
C273 O278 1.247 . S
C273 O279 1.208 . S
C274 O266 1.315 . S
C274 O269 1.279 . S
C275 O276 1.315 . S
C275 O277 1.279 . S
O276 Cd268 2.223 . S
O276 C275 1.315 . S
O277 Cd267 2.240 . S
O277 C275 1.279 . S
O278 Cd268 2.297 . S
O278 C273 1.247 . S
O279 Cd268 2.439 . S
O279 C273 1.208 . S
O280 Cd281 2.223 . S
O280 C288 1.315 . S
Cd281 O280 2.223 . S
Cd281 O284 2.297 . S
Cd281 O285 2.439 . S
Cd281 O291 2.240 . S
Cd282 O283 2.240 . S
Cd282 O290 2.223 . S
Cd282 O292 2.297 . S
Cd282 O293 2.439 . S
O283 Cd282 2.240 . S
O283 C288 1.279 . S
O284 Cd281 2.297 . S
O284 C286 1.247 . S
O285 Cd281 2.439 . S
O285 C286 1.208 . S
C286 O284 1.247 . S
C286 O285 1.208 . S
C287 O292 1.247 . S
C287 O293 1.208 . S
C288 O280 1.315 . S
C288 O283 1.279 . S
C289 O290 1.315 . S
C289 O291 1.279 . S
O290 Cd282 2.223 . S
O290 C289 1.315 . S
O291 Cd281 2.240 . S
O291 C289 1.279 . S
O292 Cd282 2.297 . S
O292 C287 1.247 . S
O293 Cd282 2.439 . S
O293 C287 1.208 . S
O294 Cd295 2.223 . S
O294 C302 1.315 . S
Cd295 O294 2.223 . S
Cd295 O298 2.297 . S
Cd295 O299 2.439 . S
Cd295 O305 2.240 . S
Cd296 O297 2.240 . S
Cd296 O304 2.223 . S
Cd296 O306 2.297 . S
Cd296 O307 2.439 . S
O297 Cd296 2.240 . S
O297 C302 1.279 . S
O298 Cd295 2.297 . S
O298 C300 1.247 . S
O299 Cd295 2.439 . S
O299 C300 1.208 . S
C300 O298 1.247 . S
C300 O299 1.208 . S
C301 O306 1.247 . S
C301 O307 1.208 . S
C302 O294 1.315 . S
C302 O297 1.279 . S
C303 O304 1.315 . S
C303 O305 1.279 . S
O304 Cd296 2.223 . S
O304 C303 1.315 . S
O305 Cd295 2.240 . S
O305 C303 1.279 . S
O306 Cd296 2.297 . S
O306 C301 1.247 . S
O307 Cd296 2.439 . S
O307 C301 1.208 . S
O308 Cd309 2.223 . S
O308 C316 1.315 . S
Cd309 O308 2.223 . S
Cd309 O312 2.297 . S
Cd309 O313 2.439 . S
Cd309 O319 2.240 . S
Cd310 O311 2.240 . S
Cd310 O318 2.223 . S
Cd310 O320 2.297 . S
Cd310 O321 2.439 . S
O311 Cd310 2.240 . S
O311 C316 1.279 . S
O312 Cd309 2.297 . S
O312 C314 1.247 . S
O313 Cd309 2.439 . S
O313 C314 1.208 . S
C314 O312 1.247 . S
C314 O313 1.208 . S
C315 O320 1.247 . S
C315 O321 1.208 . S
C316 O308 1.315 . S
C316 O311 1.279 . S
C317 O318 1.315 . S
C317 O319 1.279 . S
O318 Cd310 2.223 . S
O318 C317 1.315 . S
O319 Cd309 2.240 . S
O319 C317 1.279 . S
O320 Cd310 2.297 . S
O320 C315 1.247 . S
O321 Cd310 2.439 . S
O321 C315 1.208 . S
O322 Cd323 2.223 . S
O322 C330 1.315 . S
Cd323 O322 2.223 . S
Cd323 O326 2.297 . S
Cd323 O327 2.439 . S
Cd323 O333 2.240 . S
Cd324 O325 2.240 . S
Cd324 O332 2.223 . S
Cd324 O334 2.297 . S
Cd324 O335 2.439 . S
O325 Cd324 2.240 . S
O325 C330 1.279 . S
O326 Cd323 2.297 . S
O326 C328 1.247 . S
O327 Cd323 2.439 . S
O327 C328 1.208 . S
C328 O326 1.247 . S
C328 O327 1.208 . S
C329 O334 1.247 . S
C329 O335 1.208 . S
C330 O322 1.315 . S
C330 O325 1.279 . S
C331 O332 1.315 . S
C331 O333 1.279 . S
O332 Cd324 2.223 . S
O332 C331 1.315 . S
O333 Cd323 2.240 . S
O333 C331 1.279 . S
O334 Cd324 2.297 . S
O334 C329 1.247 . S
O335 Cd324 2.439 . S
O335 C329 1.208 . S
O336 Cd337 2.223 . S
O336 C344 1.315 . S
Cd337 O336 2.223 . S
Cd337 O340 2.297 . S
Cd337 O341 2.439 . S
Cd337 O347 2.240 . S
Cd338 O339 2.240 . S
Cd338 O346 2.223 . S
Cd338 O348 2.297 . S
Cd338 O349 2.439 . S
O339 Cd338 2.240 . S
O339 C344 1.279 . S
O340 Cd337 2.297 . S
O340 C342 1.247 . S
O341 Cd337 2.439 . S
O341 C342 1.208 . S
C342 O340 1.247 . S
C342 O341 1.208 . S
C343 O348 1.247 . S
C343 O349 1.208 . S
C344 O336 1.315 . S
C344 O339 1.279 . S
C345 O346 1.315 . S
C345 O347 1.279 . S
O346 Cd338 2.223 . S
O346 C345 1.315 . S
O347 Cd337 2.240 . S
O347 C345 1.279 . S
O348 Cd338 2.297 . S
O348 C343 1.247 . S
O349 Cd338 2.439 . S
O349 C343 1.208 . S
O350 Cd351 2.223 . S
O350 C358 1.315 . S
Cd351 O350 2.223 . S
Cd351 O354 2.297 . S
Cd351 O355 2.439 . S
Cd351 O361 2.240 . S
Cd352 O353 2.240 . S
Cd352 O360 2.223 . S
Cd352 O362 2.297 . S
Cd352 O363 2.439 . S
O353 Cd352 2.240 . S
O353 C358 1.279 . S
O354 Cd351 2.297 . S
O354 C356 1.247 . S
O355 Cd351 2.439 . S
O355 C356 1.208 . S
C356 O354 1.247 . S
C356 O355 1.208 . S
C357 O362 1.247 . S
C357 O363 1.208 . S
C358 O350 1.315 . S
C358 O353 1.279 . S
C359 O360 1.315 . S
C359 O361 1.279 . S
O360 Cd352 2.223 . S
O360 C359 1.315 . S
O361 Cd351 2.240 . S
O361 C359 1.279 . S
O362 Cd352 2.297 . S
O362 C357 1.247 . S
O363 Cd352 2.439 . S
O363 C357 1.208 . S
O364 Cd365 2.223 . S
O364 C372 1.315 . S
Cd365 O364 2.223 . S
Cd365 O368 2.297 . S
Cd365 O369 2.439 . S
Cd365 O375 2.240 . S
Cd366 O367 2.240 . S
Cd366 O374 2.223 . S
Cd366 O376 2.297 . S
Cd366 O377 2.439 . S
O367 Cd366 2.240 . S
O367 C372 1.279 . S
O368 Cd365 2.297 . S
O368 C370 1.247 . S
O369 Cd365 2.439 . S
O369 C370 1.208 . S
C370 O368 1.247 . S
C370 O369 1.208 . S
C371 O376 1.247 . S
C371 O377 1.208 . S
C372 O364 1.315 . S
C372 O367 1.279 . S
C373 O374 1.315 . S
C373 O375 1.279 . S
O374 Cd366 2.223 . S
O374 C373 1.315 . S
O375 Cd365 2.240 . S
O375 C373 1.279 . S
O376 Cd366 2.297 . S
O376 C371 1.247 . S
O377 Cd366 2.439 . S
O377 C371 1.208 . S
O378 Cd379 2.223 . S
O378 C386 1.315 . S
Cd379 O378 2.223 . S
Cd379 O382 2.297 . S
Cd379 O383 2.439 . S
Cd379 O389 2.240 . S
Cd380 O381 2.240 . S
Cd380 O388 2.223 . S
Cd380 O390 2.297 . S
Cd380 O391 2.439 . S
O381 Cd380 2.240 . S
O381 C386 1.279 . S
O382 Cd379 2.297 . S
O382 C384 1.247 . S
O383 Cd379 2.439 . S
O383 C384 1.208 . S
C384 O382 1.247 . S
C384 O383 1.208 . S
C385 O390 1.247 . S
C385 O391 1.208 . S
C386 O378 1.315 . S
C386 O381 1.279 . S
C387 O388 1.315 . S
C387 O389 1.279 . S
O388 Cd380 2.223 . S
O388 C387 1.315 . S
O389 Cd379 2.240 . S
O389 C387 1.279 . S
O390 Cd380 2.297 . S
O390 C385 1.247 . S
O391 Cd380 2.439 . S
O391 C385 1.208 . S
O392 Cd393 2.223 . S
O392 C400 1.315 . S
Cd393 O392 2.223 . S
Cd393 O396 2.297 . S
Cd393 O397 2.439 . S
Cd393 O403 2.240 . S
Cd394 O395 2.240 . S
Cd394 O402 2.223 . S
Cd394 O404 2.297 . S
Cd394 O405 2.439 . S
O395 Cd394 2.240 . S
O395 C400 1.279 . S
O396 Cd393 2.297 . S
O396 C398 1.247 . S
O397 Cd393 2.439 . S
O397 C398 1.208 . S
C398 O396 1.247 . S
C398 O397 1.208 . S
C399 O404 1.247 . S
C399 O405 1.208 . S
C400 O392 1.315 . S
C400 O395 1.279 . S
C401 O402 1.315 . S
C401 O403 1.279 . S
O402 Cd394 2.223 . S
O402 C401 1.315 . S
O403 Cd393 2.240 . S
O403 C401 1.279 . S
O404 Cd394 2.297 . S
O404 C399 1.247 . S
O405 Cd394 2.439 . S
O405 C399 1.208 . S
O406 Cd407 2.223 . S
O406 C414 1.315 . S
Cd407 O406 2.223 . S
Cd407 O410 2.297 . S
Cd407 O411 2.439 . S
Cd407 O417 2.240 . S
Cd408 O409 2.240 . S
Cd408 O416 2.223 . S
Cd408 O418 2.297 . S
Cd408 O419 2.439 . S
O409 Cd408 2.240 . S
O409 C414 1.279 . S
O410 Cd407 2.297 . S
O410 C412 1.247 . S
O411 Cd407 2.439 . S
O411 C412 1.208 . S
C412 O410 1.247 . S
C412 O411 1.208 . S
C413 O418 1.247 . S
C413 O419 1.208 . S
C414 O406 1.315 . S
C414 O409 1.279 . S
C415 O416 1.315 . S
C415 O417 1.279 . S
O416 Cd408 2.223 . S
O416 C415 1.315 . S
O417 Cd407 2.240 . S
O417 C415 1.279 . S
O418 Cd408 2.297 . S
O418 C413 1.247 . S
O419 Cd408 2.439 . S
O419 C413 1.208 . S
O420 Cd421 2.223 . S
O420 C428 1.315 . S
Cd421 O420 2.223 . S
Cd421 O424 2.297 . S
Cd421 O425 2.439 . S
Cd421 O431 2.240 . S
Cd422 O423 2.240 . S
Cd422 O430 2.223 . S
Cd422 O432 2.297 . S
Cd422 O433 2.439 . S
O423 Cd422 2.240 . S
O423 C428 1.279 . S
O424 Cd421 2.297 . S
O424 C426 1.247 . S
O425 Cd421 2.439 . S
O425 C426 1.208 . S
C426 O424 1.247 . S
C426 O425 1.208 . S
C427 O432 1.247 . S
C427 O433 1.208 . S
C428 O420 1.315 . S
C428 O423 1.279 . S
C429 O430 1.315 . S
C429 O431 1.279 . S
O430 Cd422 2.223 . S
O430 C429 1.315 . S
O431 Cd421 2.240 . S
O431 C429 1.279 . S
O432 Cd422 2.297 . S
O432 C427 1.247 . S
O433 Cd422 2.439 . S
O433 C427 1.208 . S
O434 Cd435 2.223 . S
O434 C442 1.315 . S
Cd435 O434 2.223 . S
Cd435 O438 2.297 . S
Cd435 O439 2.439 . S
Cd435 O445 2.240 . S
Cd436 O437 2.240 . S
Cd436 O444 2.223 . S
Cd436 O446 2.297 . S
Cd436 O447 2.439 . S
O437 Cd436 2.240 . S
O437 C442 1.279 . S
O438 Cd435 2.297 . S
O438 C440 1.247 . S
O439 Cd435 2.439 . S
O439 C440 1.208 . S
C440 O438 1.247 . S
C440 O439 1.208 . S
C441 O446 1.247 . S
C441 O447 1.208 . S
C442 O434 1.315 . S
C442 O437 1.279 . S
C443 O444 1.315 . S
C443 O445 1.279 . S
O444 Cd436 2.223 . S
O444 C443 1.315 . S
O445 Cd435 2.240 . S
O445 C443 1.279 . S
O446 Cd436 2.297 . S
O446 C441 1.247 . S
O447 Cd436 2.439 . S
O447 C441 1.208 . S
O448 Cd449 2.223 . S
O448 C456 1.315 . S
Cd449 O448 2.223 . S
Cd449 O452 2.297 . S
Cd449 O453 2.439 . S
Cd449 O459 2.240 . S
Cd450 O451 2.240 . S
Cd450 O458 2.223 . S
Cd450 O460 2.297 . S
Cd450 O461 2.439 . S
O451 Cd450 2.240 . S
O451 C456 1.279 . S
O452 Cd449 2.297 . S
O452 C454 1.247 . S
O453 Cd449 2.439 . S
O453 C454 1.208 . S
C454 O452 1.247 . S
C454 O453 1.208 . S
C455 O460 1.247 . S
C455 O461 1.208 . S
C456 O448 1.315 . S
C456 O451 1.279 . S
C457 O458 1.315 . S
C457 O459 1.279 . S
O458 Cd450 2.223 . S
O458 C457 1.315 . S
O459 Cd449 2.240 . S
O459 C457 1.279 . S
O460 Cd450 2.297 . S
O460 C455 1.247 . S
O461 Cd450 2.439 . S
O461 C455 1.208 . S
O462 Cd463 2.223 . S
O462 C470 1.315 . S
Cd463 O462 2.223 . S
Cd463 O466 2.297 . S
Cd463 O467 2.439 . S
Cd463 O473 2.240 . S
Cd464 O465 2.240 . S
Cd464 O472 2.223 . S
Cd464 O474 2.297 . S
Cd464 O475 2.439 . S
O465 Cd464 2.240 . S
O465 C470 1.279 . S
O466 Cd463 2.297 . S
O466 C468 1.247 . S
O467 Cd463 2.439 . S
O467 C468 1.208 . S
C468 O466 1.247 . S
C468 O467 1.208 . S
C469 O474 1.247 . S
C469 O475 1.208 . S
C470 O462 1.315 . S
C470 O465 1.279 . S
C471 O472 1.315 . S
C471 O473 1.279 . S
O472 Cd464 2.223 . S
O472 C471 1.315 . S
O473 Cd463 2.240 . S
O473 C471 1.279 . S
O474 Cd464 2.297 . S
O474 C469 1.247 . S
O475 Cd464 2.439 . S
O475 C469 1.208 . S
O476 Cd477 2.223 . S
O476 C484 1.315 . S
Cd477 O476 2.223 . S
Cd477 O480 2.297 . S
Cd477 O481 2.439 . S
Cd477 O487 2.240 . S
Cd478 O479 2.240 . S
Cd478 O486 2.223 . S
Cd478 O488 2.297 . S
Cd478 O489 2.439 . S
O479 Cd478 2.240 . S
O479 C484 1.279 . S
O480 Cd477 2.297 . S
O480 C482 1.247 . S
O481 Cd477 2.439 . S
O481 C482 1.208 . S
C482 O480 1.247 . S
C482 O481 1.208 . S
C483 O488 1.247 . S
C483 O489 1.208 . S
C484 O476 1.315 . S
C484 O479 1.279 . S
C485 O486 1.315 . S
C485 O487 1.279 . S
O486 Cd478 2.223 . S
O486 C485 1.315 . S
O487 Cd477 2.240 . S
O487 C485 1.279 . S
O488 Cd478 2.297 . S
O488 C483 1.247 . S
O489 Cd478 2.439 . S
O489 C483 1.208 . S
O490 Cd491 2.223 . S
O490 C498 1.315 . S
Cd491 O490 2.223 . S
Cd491 O494 2.297 . S
Cd491 O495 2.439 . S
Cd491 O501 2.240 . S
Cd492 O493 2.240 . S
Cd492 O500 2.223 . S
Cd492 O502 2.297 . S
Cd492 O503 2.439 . S
O493 Cd492 2.240 . S
O493 C498 1.279 . S
O494 Cd491 2.297 . S
O494 C496 1.247 . S
O495 Cd491 2.439 . S
O495 C496 1.208 . S
C496 O494 1.247 . S
C496 O495 1.208 . S
C497 O502 1.247 . S
C497 O503 1.208 . S
C498 O490 1.315 . S
C498 O493 1.279 . S
C499 O500 1.315 . S
C499 O501 1.279 . S
O500 Cd492 2.223 . S
O500 C499 1.315 . S
O501 Cd491 2.240 . S
O501 C499 1.279 . S
O502 Cd492 2.297 . S
O502 C497 1.247 . S
O503 Cd492 2.439 . S
O503 C497 1.208 . S
O504 Cd505 2.223 . S
O504 C512 1.315 . S
Cd505 O504 2.223 . S
Cd505 O508 2.297 . S
Cd505 O509 2.439 . S
Cd505 O515 2.240 . S
Cd506 O507 2.240 . S
Cd506 O514 2.223 . S
Cd506 O516 2.297 . S
Cd506 O517 2.439 . S
O507 Cd506 2.240 . S
O507 C512 1.279 . S
O508 Cd505 2.297 . S
O508 C510 1.247 . S
O509 Cd505 2.439 . S
O509 C510 1.208 . S
C510 O508 1.247 . S
C510 O509 1.208 . S
C511 O516 1.247 . S
C511 O517 1.208 . S
C512 O504 1.315 . S
C512 O507 1.279 . S
C513 O514 1.315 . S
C513 O515 1.279 . S
O514 Cd506 2.223 . S
O514 C513 1.315 . S
O515 Cd505 2.240 . S
O515 C513 1.279 . S
O516 Cd506 2.297 . S
O516 C511 1.247 . S
O517 Cd506 2.439 . S
O517 C511 1.208 . S
O518 Cd519 2.223 . S
O518 C526 1.315 . S
Cd519 O518 2.223 . S
Cd519 O522 2.297 . S
Cd519 O523 2.439 . S
Cd519 O529 2.240 . S
Cd520 O521 2.240 . S
Cd520 O528 2.223 . S
Cd520 O530 2.297 . S
Cd520 O531 2.439 . S
O521 Cd520 2.240 . S
O521 C526 1.279 . S
O522 Cd519 2.297 . S
O522 C524 1.247 . S
O523 Cd519 2.439 . S
O523 C524 1.208 . S
C524 O522 1.247 . S
C524 O523 1.208 . S
C525 O530 1.247 . S
C525 O531 1.208 . S
C526 O518 1.315 . S
C526 O521 1.279 . S
C527 O528 1.315 . S
C527 O529 1.279 . S
O528 Cd520 2.223 . S
O528 C527 1.315 . S
O529 Cd519 2.240 . S
O529 C527 1.279 . S
O530 Cd520 2.297 . S
O530 C525 1.247 . S
O531 Cd520 2.439 . S
O531 C525 1.208 . S
O532 Cd533 2.223 . S
O532 C540 1.315 . S
Cd533 O532 2.223 . S
Cd533 O536 2.297 . S
Cd533 O537 2.439 . S
Cd533 O543 2.240 . S
Cd534 O535 2.240 . S
Cd534 O542 2.223 . S
Cd534 O544 2.297 . S
Cd534 O545 2.439 . S
O535 Cd534 2.240 . S
O535 C540 1.279 . S
O536 Cd533 2.297 . S
O536 C538 1.247 . S
O537 Cd533 2.439 . S
O537 C538 1.208 . S
C538 O536 1.247 . S
C538 O537 1.208 . S
C539 O544 1.247 . S
C539 O545 1.208 . S
C540 O532 1.315 . S
C540 O535 1.279 . S
C541 O542 1.315 . S
C541 O543 1.279 . S
O542 Cd534 2.223 . S
O542 C541 1.315 . S
O543 Cd533 2.240 . S
O543 C541 1.279 . S
O544 Cd534 2.297 . S
O544 C539 1.247 . S
O545 Cd534 2.439 . S
O545 C539 1.208 . S
O546 Cd547 2.223 . S
O546 C554 1.315 . S
Cd547 O546 2.223 . S
Cd547 O550 2.297 . S
Cd547 O551 2.439 . S
Cd547 O557 2.240 . S
Cd548 O549 2.240 . S
Cd548 O556 2.223 . S
Cd548 O558 2.297 . S
Cd548 O559 2.439 . S
O549 Cd548 2.240 . S
O549 C554 1.279 . S
O550 Cd547 2.297 . S
O550 C552 1.247 . S
O551 Cd547 2.439 . S
O551 C552 1.208 . S
C552 O550 1.247 . S
C552 O551 1.208 . S
C553 O558 1.247 . S
C553 O559 1.208 . S
C554 O546 1.315 . S
C554 O549 1.279 . S
C555 O556 1.315 . S
C555 O557 1.279 . S
O556 Cd548 2.223 . S
O556 C555 1.315 . S
O557 Cd547 2.240 . S
O557 C555 1.279 . S
O558 Cd548 2.297 . S
O558 C553 1.247 . S
O559 Cd548 2.439 . S
O559 C553 1.208 . S
O560 Cd561 2.223 . S
O560 C568 1.315 . S
Cd561 O560 2.223 . S
Cd561 O564 2.297 . S
Cd561 O565 2.439 . S
Cd561 O571 2.240 . S
Cd562 O563 2.240 . S
Cd562 O570 2.223 . S
Cd562 O572 2.297 . S
Cd562 O573 2.439 . S
O563 Cd562 2.240 . S
O563 C568 1.279 . S
O564 Cd561 2.297 . S
O564 C566 1.247 . S
O565 Cd561 2.439 . S
O565 C566 1.208 . S
C566 O564 1.247 . S
C566 O565 1.208 . S
C567 O572 1.247 . S
C567 O573 1.208 . S
C568 O560 1.315 . S
C568 O563 1.279 . S
C569 O570 1.315 . S
C569 O571 1.279 . S
O570 Cd562 2.223 . S
O570 C569 1.315 . S
O571 Cd561 2.240 . S
O571 C569 1.279 . S
O572 Cd562 2.297 . S
O572 C567 1.247 . S
O573 Cd562 2.439 . S
O573 C567 1.208 . S
O574 Cd575 2.223 . S
O574 C582 1.315 . S
Cd575 O574 2.223 . S
Cd575 O578 2.297 . S
Cd575 O579 2.439 . S
Cd575 O585 2.240 . S
Cd576 O577 2.240 . S
Cd576 O584 2.223 . S
Cd576 O586 2.297 . S
Cd576 O587 2.439 . S
O577 Cd576 2.240 . S
O577 C582 1.279 . S
O578 Cd575 2.297 . S
O578 C580 1.247 . S
O579 Cd575 2.439 . S
O579 C580 1.208 . S
C580 O578 1.247 . S
C580 O579 1.208 . S
C581 O586 1.247 . S
C581 O587 1.208 . S
C582 O574 1.315 . S
C582 O577 1.279 . S
C583 O584 1.315 . S
C583 O585 1.279 . S
O584 Cd576 2.223 . S
O584 C583 1.315 . S
O585 Cd575 2.240 . S
O585 C583 1.279 . S
O586 Cd576 2.297 . S
O586 C581 1.247 . S
O587 Cd576 2.439 . S
O587 C581 1.208 . S
O588 Cd589 2.223 . S
O588 C596 1.315 . S
Cd589 O588 2.223 . S
Cd589 O592 2.297 . S
Cd589 O593 2.439 . S
Cd589 O599 2.240 . S
Cd590 O591 2.240 . S
Cd590 O598 2.223 . S
Cd590 O600 2.297 . S
Cd590 O601 2.439 . S
O591 Cd590 2.240 . S
O591 C596 1.279 . S
O592 Cd589 2.297 . S
O592 C594 1.247 . S
O593 Cd589 2.439 . S
O593 C594 1.208 . S
C594 O592 1.247 . S
C594 O593 1.208 . S
C595 O600 1.247 . S
C595 O601 1.208 . S
C596 O588 1.315 . S
C596 O591 1.279 . S
C597 O598 1.315 . S
C597 O599 1.279 . S
O598 Cd590 2.223 . S
O598 C597 1.315 . S
O599 Cd589 2.240 . S
O599 C597 1.279 . S
O600 Cd590 2.297 . S
O600 C595 1.247 . S
O601 Cd590 2.439 . S
O601 C595 1.208 . S
O602 Cd603 2.223 . S
O602 C610 1.315 . S
Cd603 O602 2.223 . S
Cd603 O606 2.297 . S
Cd603 O607 2.439 . S
Cd603 O613 2.240 . S
Cd604 O605 2.240 . S
Cd604 O612 2.223 . S
Cd604 O614 2.297 . S
Cd604 O615 2.439 . S
O605 Cd604 2.240 . S
O605 C610 1.279 . S
O606 Cd603 2.297 . S
O606 C608 1.247 . S
O607 Cd603 2.439 . S
O607 C608 1.208 . S
C608 O606 1.247 . S
C608 O607 1.208 . S
C609 O614 1.247 . S
C609 O615 1.208 . S
C610 O602 1.315 . S
C610 O605 1.279 . S
C611 O612 1.315 . S
C611 O613 1.279 . S
O612 Cd604 2.223 . S
O612 C611 1.315 . S
O613 Cd603 2.240 . S
O613 C611 1.279 . S
O614 Cd604 2.297 . S
O614 C609 1.247 . S
O615 Cd604 2.439 . S
O615 C609 1.208 . S
O616 Cd617 2.223 . S
O616 C624 1.315 . S
Cd617 O616 2.223 . S
Cd617 O620 2.297 . S
Cd617 O621 2.439 . S
Cd617 O627 2.240 . S
Cd618 O619 2.240 . S
Cd618 O626 2.223 . S
Cd618 O628 2.297 . S
Cd618 O629 2.439 . S
O619 Cd618 2.240 . S
O619 C624 1.279 . S
O620 Cd617 2.297 . S
O620 C622 1.247 . S
O621 Cd617 2.439 . S
O621 C622 1.208 . S
C622 O620 1.247 . S
C622 O621 1.208 . S
C623 O628 1.247 . S
C623 O629 1.208 . S
C624 O616 1.315 . S
C624 O619 1.279 . S
C625 O626 1.315 . S
C625 O627 1.279 . S
O626 Cd618 2.223 . S
O626 C625 1.315 . S
O627 Cd617 2.240 . S
O627 C625 1.279 . S
O628 Cd618 2.297 . S
O628 C623 1.247 . S
O629 Cd618 2.439 . S
O629 C623 1.208 . S
O630 Cd631 2.223 . S
O630 C638 1.315 . S
Cd631 O630 2.223 . S
Cd631 O634 2.297 . S
Cd631 O635 2.439 . S
Cd631 O641 2.240 . S
Cd632 O633 2.240 . S
Cd632 O640 2.223 . S
Cd632 O642 2.297 . S
Cd632 O643 2.439 . S
O633 Cd632 2.240 . S
O633 C638 1.279 . S
O634 Cd631 2.297 . S
O634 C636 1.247 . S
O635 Cd631 2.439 . S
O635 C636 1.208 . S
C636 O634 1.247 . S
C636 O635 1.208 . S
C637 O642 1.247 . S
C637 O643 1.208 . S
C638 O630 1.315 . S
C638 O633 1.279 . S
C639 O640 1.315 . S
C639 O641 1.279 . S
O640 Cd632 2.223 . S
O640 C639 1.315 . S
O641 Cd631 2.240 . S
O641 C639 1.279 . S
O642 Cd632 2.297 . S
O642 C637 1.247 . S
O643 Cd632 2.439 . S
O643 C637 1.208 . S
O644 Cd645 2.223 . S
O644 C652 1.315 . S
Cd645 O644 2.223 . S
Cd645 O648 2.297 . S
Cd645 O649 2.439 . S
Cd645 O655 2.240 . S
Cd646 O647 2.240 . S
Cd646 O654 2.223 . S
Cd646 O656 2.297 . S
Cd646 O657 2.439 . S
O647 Cd646 2.240 . S
O647 C652 1.279 . S
O648 Cd645 2.297 . S
O648 C650 1.247 . S
O649 Cd645 2.439 . S
O649 C650 1.208 . S
C650 O648 1.247 . S
C650 O649 1.208 . S
C651 O656 1.247 . S
C651 O657 1.208 . S
C652 O644 1.315 . S
C652 O647 1.279 . S
C653 O654 1.315 . S
C653 O655 1.279 . S
O654 Cd646 2.223 . S
O654 C653 1.315 . S
O655 Cd645 2.240 . S
O655 C653 1.279 . S
O656 Cd646 2.297 . S
O656 C651 1.247 . S
O657 Cd646 2.439 . S
O657 C651 1.208 . S
O658 Cd659 2.223 . S
O658 C666 1.315 . S
Cd659 O658 2.223 . S
Cd659 O662 2.297 . S
Cd659 O663 2.439 . S
Cd659 O669 2.240 . S
Cd660 O661 2.240 . S
Cd660 O668 2.223 . S
Cd660 O670 2.297 . S
Cd660 O671 2.439 . S
O661 Cd660 2.240 . S
O661 C666 1.279 . S
O662 Cd659 2.297 . S
O662 C664 1.247 . S
O663 Cd659 2.439 . S
O663 C664 1.208 . S
C664 O662 1.247 . S
C664 O663 1.208 . S
C665 O670 1.247 . S
C665 O671 1.208 . S
C666 O658 1.315 . S
C666 O661 1.279 . S
C667 O668 1.315 . S
C667 O669 1.279 . S
O668 Cd660 2.223 . S
O668 C667 1.315 . S
O669 Cd659 2.240 . S
O669 C667 1.279 . S
O670 Cd660 2.297 . S
O670 C665 1.247 . S
O671 Cd660 2.439 . S
O671 C665 1.208 . S
O672 Cd673 2.223 . S
O672 C680 1.315 . S
Cd673 O672 2.223 . S
Cd673 O676 2.297 . S
Cd673 O677 2.439 . S
Cd673 O683 2.240 . S
Cd674 O675 2.240 . S
Cd674 O682 2.223 . S
Cd674 O684 2.297 . S
Cd674 O685 2.439 . S
O675 Cd674 2.240 . S
O675 C680 1.279 . S
O676 Cd673 2.297 . S
O676 C678 1.247 . S
O677 Cd673 2.439 . S
O677 C678 1.208 . S
C678 O676 1.247 . S
C678 O677 1.208 . S
C679 O684 1.247 . S
C679 O685 1.208 . S
C680 O672 1.315 . S
C680 O675 1.279 . S
C681 O682 1.315 . S
C681 O683 1.279 . S
O682 Cd674 2.223 . S
O682 C681 1.315 . S
O683 Cd673 2.240 . S
O683 C681 1.279 . S
O684 Cd674 2.297 . S
O684 C679 1.247 . S
O685 Cd674 2.439 . S
O685 C679 1.208 . S
O686 Cd687 2.223 . S
O686 C694 1.315 . S
Cd687 O686 2.223 . S
Cd687 O690 2.297 . S
Cd687 O691 2.439 . S
Cd687 O697 2.240 . S
Cd688 O689 2.240 . S
Cd688 O696 2.223 . S
Cd688 O698 2.297 . S
Cd688 O699 2.439 . S
O689 Cd688 2.240 . S
O689 C694 1.279 . S
O690 Cd687 2.297 . S
O690 C692 1.247 . S
O691 Cd687 2.439 . S
O691 C692 1.208 . S
C692 O690 1.247 . S
C692 O691 1.208 . S
C693 O698 1.247 . S
C693 O699 1.208 . S
C694 O686 1.315 . S
C694 O689 1.279 . S
C695 O696 1.315 . S
C695 O697 1.279 . S
O696 Cd688 2.223 . S
O696 C695 1.315 . S
O697 Cd687 2.240 . S
O697 C695 1.279 . S
O698 Cd688 2.297 . S
O698 C693 1.247 . S
O699 Cd688 2.439 . S
O699 C693 1.208 . S
O700 Cd701 2.223 . S
O700 C708 1.315 . S
Cd701 O700 2.223 . S
Cd701 O704 2.297 . S
Cd701 O705 2.439 . S
Cd701 O711 2.240 . S
Cd702 O703 2.240 . S
Cd702 O710 2.223 . S
Cd702 O712 2.297 . S
Cd702 O713 2.439 . S
O703 Cd702 2.240 . S
O703 C708 1.279 . S
O704 Cd701 2.297 . S
O704 C706 1.247 . S
O705 Cd701 2.439 . S
O705 C706 1.208 . S
C706 O704 1.247 . S
C706 O705 1.208 . S
C707 O712 1.247 . S
C707 O713 1.208 . S
C708 O700 1.315 . S
C708 O703 1.279 . S
C709 O710 1.315 . S
C709 O711 1.279 . S
O710 Cd702 2.223 . S
O710 C709 1.315 . S
O711 Cd701 2.240 . S
O711 C709 1.279 . S
O712 Cd702 2.297 . S
O712 C707 1.247 . S
O713 Cd702 2.439 . S
O713 C707 1.208 . S
O714 Cd715 2.223 . S
O714 C722 1.315 . S
Cd715 O714 2.223 . S
Cd715 O718 2.297 . S
Cd715 O719 2.439 . S
Cd715 O725 2.240 . S
Cd716 O717 2.240 . S
Cd716 O724 2.223 . S
Cd716 O726 2.297 . S
Cd716 O727 2.439 . S
O717 Cd716 2.240 . S
O717 C722 1.279 . S
O718 Cd715 2.297 . S
O718 C720 1.247 . S
O719 Cd715 2.439 . S
O719 C720 1.208 . S
C720 O718 1.247 . S
C720 O719 1.208 . S
C721 O726 1.247 . S
C721 O727 1.208 . S
C722 O714 1.315 . S
C722 O717 1.279 . S
C723 O724 1.315 . S
C723 O725 1.279 . S
O724 Cd716 2.223 . S
O724 C723 1.315 . S
O725 Cd715 2.240 . S
O725 C723 1.279 . S
O726 Cd716 2.297 . S
O726 C721 1.247 . S
O727 Cd716 2.439 . S
O727 C721 1.208 . S
O728 Cd729 2.223 . S
O728 C736 1.315 . S
Cd729 O728 2.223 . S
Cd729 O732 2.297 . S
Cd729 O733 2.439 . S
Cd729 O739 2.240 . S
Cd730 O731 2.240 . S
Cd730 O738 2.223 . S
Cd730 O740 2.297 . S
Cd730 O741 2.439 . S
O731 Cd730 2.240 . S
O731 C736 1.279 . S
O732 Cd729 2.297 . S
O732 C734 1.247 . S
O733 Cd729 2.439 . S
O733 C734 1.208 . S
C734 O732 1.247 . S
C734 O733 1.208 . S
C735 O740 1.247 . S
C735 O741 1.208 . S
C736 O728 1.315 . S
C736 O731 1.279 . S
C737 O738 1.315 . S
C737 O739 1.279 . S
O738 Cd730 2.223 . S
O738 C737 1.315 . S
O739 Cd729 2.240 . S
O739 C737 1.279 . S
O740 Cd730 2.297 . S
O740 C735 1.247 . S
O741 Cd730 2.439 . S
O741 C735 1.208 . S
O742 Cd743 2.223 . S
O742 C750 1.315 . S
Cd743 O742 2.223 . S
Cd743 O746 2.297 . S
Cd743 O747 2.439 . S
Cd743 O753 2.240 . S
Cd744 O745 2.240 . S
Cd744 O752 2.223 . S
Cd744 O754 2.297 . S
Cd744 O755 2.439 . S
O745 Cd744 2.240 . S
O745 C750 1.279 . S
O746 Cd743 2.297 . S
O746 C748 1.247 . S
O747 Cd743 2.439 . S
O747 C748 1.208 . S
C748 O746 1.247 . S
C748 O747 1.208 . S
C749 O754 1.247 . S
C749 O755 1.208 . S
C750 O742 1.315 . S
C750 O745 1.279 . S
C751 O752 1.315 . S
C751 O753 1.279 . S
O752 Cd744 2.223 . S
O752 C751 1.315 . S
O753 Cd743 2.240 . S
O753 C751 1.279 . S
O754 Cd744 2.297 . S
O754 C749 1.247 . S
O755 Cd744 2.439 . S
O755 C749 1.208 . S
O756 Cd757 2.223 . S
O756 C764 1.315 . S
Cd757 O756 2.223 . S
Cd757 O760 2.297 . S
Cd757 O761 2.439 . S
Cd757 O767 2.240 . S
Cd758 O759 2.240 . S
Cd758 O766 2.223 . S
Cd758 O768 2.297 . S
Cd758 O769 2.439 . S
O759 Cd758 2.240 . S
O759 C764 1.279 . S
O760 Cd757 2.297 . S
O760 C762 1.247 . S
O761 Cd757 2.439 . S
O761 C762 1.208 . S
C762 O760 1.247 . S
C762 O761 1.208 . S
C763 O768 1.247 . S
C763 O769 1.208 . S
C764 O756 1.315 . S
C764 O759 1.279 . S
C765 O766 1.315 . S
C765 O767 1.279 . S
O766 Cd758 2.223 . S
O766 C765 1.315 . S
O767 Cd757 2.240 . S
O767 C765 1.279 . S
O768 Cd758 2.297 . S
O768 C763 1.247 . S
O769 Cd758 2.439 . S
O769 C763 1.208 . S
O770 Cd771 2.223 . S
O770 C778 1.315 . S
Cd771 O770 2.223 . S
Cd771 O774 2.297 . S
Cd771 O775 2.439 . S
Cd771 O781 2.240 . S
Cd772 O773 2.240 . S
Cd772 O780 2.223 . S
Cd772 O782 2.297 . S
Cd772 O783 2.439 . S
O773 Cd772 2.240 . S
O773 C778 1.279 . S
O774 Cd771 2.297 . S
O774 C776 1.247 . S
O775 Cd771 2.439 . S
O775 C776 1.208 . S
C776 O774 1.247 . S
C776 O775 1.208 . S
C777 O782 1.247 . S
C777 O783 1.208 . S
C778 O770 1.315 . S
C778 O773 1.279 . S
C779 O780 1.315 . S
C779 O781 1.279 . S
O780 Cd772 2.223 . S
O780 C779 1.315 . S
O781 Cd771 2.240 . S
O781 C779 1.279 . S
O782 Cd772 2.297 . S
O782 C777 1.247 . S
O783 Cd772 2.439 . S
O783 C777 1.208 . S
O784 Cd785 2.223 . S
O784 C792 1.315 . S
Cd785 O784 2.223 . S
Cd785 O788 2.297 . S
Cd785 O789 2.439 . S
Cd785 O795 2.240 . S
Cd786 O787 2.240 . S
Cd786 O794 2.223 . S
Cd786 O796 2.297 . S
Cd786 O797 2.439 . S
O787 Cd786 2.240 . S
O787 C792 1.279 . S
O788 Cd785 2.297 . S
O788 C790 1.247 . S
O789 Cd785 2.439 . S
O789 C790 1.208 . S
C790 O788 1.247 . S
C790 O789 1.208 . S
C791 O796 1.247 . S
C791 O797 1.208 . S
C792 O784 1.315 . S
C792 O787 1.279 . S
C793 O794 1.315 . S
C793 O795 1.279 . S
O794 Cd786 2.223 . S
O794 C793 1.315 . S
O795 Cd785 2.240 . S
O795 C793 1.279 . S
O796 Cd786 2.297 . S
O796 C791 1.247 . S
O797 Cd786 2.439 . S
O797 C791 1.208 . S
O798 Cd799 2.223 . S
O798 C806 1.315 . S
Cd799 O798 2.223 . S
Cd799 O802 2.297 . S
Cd799 O803 2.439 . S
Cd799 O809 2.240 . S
Cd800 O801 2.240 . S
Cd800 O808 2.223 . S
Cd800 O810 2.297 . S
Cd800 O811 2.439 . S
O801 Cd800 2.240 . S
O801 C806 1.279 . S
O802 Cd799 2.297 . S
O802 C804 1.247 . S
O803 Cd799 2.439 . S
O803 C804 1.208 . S
C804 O802 1.247 . S
C804 O803 1.208 . S
C805 O810 1.247 . S
C805 O811 1.208 . S
C806 O798 1.315 . S
C806 O801 1.279 . S
C807 O808 1.315 . S
C807 O809 1.279 . S
O808 Cd800 2.223 . S
O808 C807 1.315 . S
O809 Cd799 2.240 . S
O809 C807 1.279 . S
O810 Cd800 2.297 . S
O810 C805 1.247 . S
O811 Cd800 2.439 . S
O811 C805 1.208 . S
O812 Cd813 2.223 . S
O812 C820 1.315 . S
Cd813 O812 2.223 . S
Cd813 O816 2.297 . S
Cd813 O817 2.439 . S
Cd813 O823 2.240 . S
Cd814 O815 2.240 . S
Cd814 O822 2.223 . S
Cd814 O824 2.297 . S
Cd814 O825 2.439 . S
O815 Cd814 2.240 . S
O815 C820 1.279 . S
O816 Cd813 2.297 . S
O816 C818 1.247 . S
O817 Cd813 2.439 . S
O817 C818 1.208 . S
C818 O816 1.247 . S
C818 O817 1.208 . S
C819 O824 1.247 . S
C819 O825 1.208 . S
C820 O812 1.315 . S
C820 O815 1.279 . S
C821 O822 1.315 . S
C821 O823 1.279 . S
O822 Cd814 2.223 . S
O822 C821 1.315 . S
O823 Cd813 2.240 . S
O823 C821 1.279 . S
O824 Cd814 2.297 . S
O824 C819 1.247 . S
O825 Cd814 2.439 . S
O825 C819 1.208 . S
O826 Cd827 2.223 . S
O826 C834 1.315 . S
Cd827 O826 2.223 . S
Cd827 O830 2.297 . S
Cd827 O831 2.439 . S
Cd827 O837 2.240 . S
Cd828 O829 2.240 . S
Cd828 O836 2.223 . S
Cd828 O838 2.297 . S
Cd828 O839 2.439 . S
O829 Cd828 2.240 . S
O829 C834 1.279 . S
O830 Cd827 2.297 . S
O830 C832 1.247 . S
O831 Cd827 2.439 . S
O831 C832 1.208 . S
C832 O830 1.247 . S
C832 O831 1.208 . S
C833 O838 1.247 . S
C833 O839 1.208 . S
C834 O826 1.315 . S
C834 O829 1.279 . S
C835 O836 1.315 . S
C835 O837 1.279 . S
O836 Cd828 2.223 . S
O836 C835 1.315 . S
O837 Cd827 2.240 . S
O837 C835 1.279 . S
O838 Cd828 2.297 . S
O838 C833 1.247 . S
O839 Cd828 2.439 . S
O839 C833 1.208 . S
O840 Cd841 2.223 . S
O840 C848 1.315 . S
Cd841 O840 2.223 . S
Cd841 O844 2.297 . S
Cd841 O845 2.439 . S
Cd841 O851 2.240 . S
Cd842 O843 2.240 . S
Cd842 O850 2.223 . S
Cd842 O852 2.297 . S
Cd842 O853 2.439 . S
O843 Cd842 2.240 . S
O843 C848 1.279 . S
O844 Cd841 2.297 . S
O844 C846 1.247 . S
O845 Cd841 2.439 . S
O845 C846 1.208 . S
C846 O844 1.247 . S
C846 O845 1.208 . S
C847 O852 1.247 . S
C847 O853 1.208 . S
C848 O840 1.315 . S
C848 O843 1.279 . S
C849 O850 1.315 . S
C849 O851 1.279 . S
O850 Cd842 2.223 . S
O850 C849 1.315 . S
O851 Cd841 2.240 . S
O851 C849 1.279 . S
O852 Cd842 2.297 . S
O852 C847 1.247 . S
O853 Cd842 2.439 . S
O853 C847 1.208 . S
O854 Cd855 2.223 . S
O854 C862 1.315 . S
Cd855 O854 2.223 . S
Cd855 O858 2.297 . S
Cd855 O859 2.439 . S
Cd855 O865 2.240 . S
Cd856 O857 2.240 . S
Cd856 O864 2.223 . S
Cd856 O866 2.297 . S
Cd856 O867 2.439 . S
O857 Cd856 2.240 . S
O857 C862 1.279 . S
O858 Cd855 2.297 . S
O858 C860 1.247 . S
O859 Cd855 2.439 . S
O859 C860 1.208 . S
C860 O858 1.247 . S
C860 O859 1.208 . S
C861 O866 1.247 . S
C861 O867 1.208 . S
C862 O854 1.315 . S
C862 O857 1.279 . S
C863 O864 1.315 . S
C863 O865 1.279 . S
O864 Cd856 2.223 . S
O864 C863 1.315 . S
O865 Cd855 2.240 . S
O865 C863 1.279 . S
O866 Cd856 2.297 . S
O866 C861 1.247 . S
O867 Cd856 2.439 . S
O867 C861 1.208 . S
O868 Cd869 2.223 . S
O868 C876 1.315 . S
Cd869 O868 2.223 . S
Cd869 O872 2.297 . S
Cd869 O873 2.439 . S
Cd869 O879 2.240 . S
Cd870 O871 2.240 . S
Cd870 O878 2.223 . S
Cd870 O880 2.297 . S
Cd870 O881 2.439 . S
O871 Cd870 2.240 . S
O871 C876 1.279 . S
O872 Cd869 2.297 . S
O872 C874 1.247 . S
O873 Cd869 2.439 . S
O873 C874 1.208 . S
C874 O872 1.247 . S
C874 O873 1.208 . S
C875 O880 1.247 . S
C875 O881 1.208 . S
C876 O868 1.315 . S
C876 O871 1.279 . S
C877 O878 1.315 . S
C877 O879 1.279 . S
O878 Cd870 2.223 . S
O878 C877 1.315 . S
O879 Cd869 2.240 . S
O879 C877 1.279 . S
O880 Cd870 2.297 . S
O880 C875 1.247 . S
O881 Cd870 2.439 . S
O881 C875 1.208 . S
O882 Cd883 2.223 . S
O882 C890 1.315 . S
Cd883 O882 2.223 . S
Cd883 O886 2.297 . S
Cd883 O887 2.439 . S
Cd883 O893 2.240 . S
Cd884 O885 2.240 . S
Cd884 O892 2.223 . S
Cd884 O894 2.297 . S
Cd884 O895 2.439 . S
O885 Cd884 2.240 . S
O885 C890 1.279 . S
O886 Cd883 2.297 . S
O886 C888 1.247 . S
O887 Cd883 2.439 . S
O887 C888 1.208 . S
C888 O886 1.247 . S
C888 O887 1.208 . S
C889 O894 1.247 . S
C889 O895 1.208 . S
C890 O882 1.315 . S
C890 O885 1.279 . S
C891 O892 1.315 . S
C891 O893 1.279 . S
O892 Cd884 2.223 . S
O892 C891 1.315 . S
O893 Cd883 2.240 . S
O893 C891 1.279 . S
O894 Cd884 2.297 . S
O894 C889 1.247 . S
O895 Cd884 2.439 . S
O895 C889 1.208 . S
O896 Cd897 2.223 . S
O896 C904 1.315 . S
Cd897 O896 2.223 . S
Cd897 O900 2.297 . S
Cd897 O901 2.439 . S
Cd897 O907 2.240 . S
Cd898 O899 2.240 . S
Cd898 O906 2.223 . S
Cd898 O908 2.297 . S
Cd898 O909 2.439 . S
O899 Cd898 2.240 . S
O899 C904 1.279 . S
O900 Cd897 2.297 . S
O900 C902 1.247 . S
O901 Cd897 2.439 . S
O901 C902 1.208 . S
C902 O900 1.247 . S
C902 O901 1.208 . S
C903 O908 1.247 . S
C903 O909 1.208 . S
C904 O896 1.315 . S
C904 O899 1.279 . S
C905 O906 1.315 . S
C905 O907 1.279 . S
O906 Cd898 2.223 . S
O906 C905 1.315 . S
O907 Cd897 2.240 . S
O907 C905 1.279 . S
O908 Cd898 2.297 . S
O908 C903 1.247 . S
O909 Cd898 2.439 . S
O909 C903 1.208 . S
O910 Cd911 2.223 . S
O910 C918 1.315 . S
Cd911 O910 2.223 . S
Cd911 O914 2.297 . S
Cd911 O915 2.439 . S
Cd911 O921 2.240 . S
Cd912 O913 2.240 . S
Cd912 O920 2.223 . S
Cd912 O922 2.297 . S
Cd912 O923 2.439 . S
O913 Cd912 2.240 . S
O913 C918 1.279 . S
O914 Cd911 2.297 . S
O914 C916 1.247 . S
O915 Cd911 2.439 . S
O915 C916 1.208 . S
C916 O914 1.247 . S
C916 O915 1.208 . S
C917 O922 1.247 . S
C917 O923 1.208 . S
C918 O910 1.315 . S
C918 O913 1.279 . S
C919 O920 1.315 . S
C919 O921 1.279 . S
O920 Cd912 2.223 . S
O920 C919 1.315 . S
O921 Cd911 2.240 . S
O921 C919 1.279 . S
O922 Cd912 2.297 . S
O922 C917 1.247 . S
O923 Cd912 2.439 . S
O923 C917 1.208 . S
O924 Cd925 2.223 . S
O924 C932 1.315 . S
Cd925 O924 2.223 . S
Cd925 O928 2.297 . S
Cd925 O929 2.439 . S
Cd925 O935 2.240 . S
Cd926 O927 2.240 . S
Cd926 O934 2.223 . S
Cd926 O936 2.297 . S
Cd926 O937 2.439 . S
O927 Cd926 2.240 . S
O927 C932 1.279 . S
O928 Cd925 2.297 . S
O928 C930 1.247 . S
O929 Cd925 2.439 . S
O929 C930 1.208 . S
C930 O928 1.247 . S
C930 O929 1.208 . S
C931 O936 1.247 . S
C931 O937 1.208 . S
C932 O924 1.315 . S
C932 O927 1.279 . S
C933 O934 1.315 . S
C933 O935 1.279 . S
O934 Cd926 2.223 . S
O934 C933 1.315 . S
O935 Cd925 2.240 . S
O935 C933 1.279 . S
O936 Cd926 2.297 . S
O936 C931 1.247 . S
O937 Cd926 2.439 . S
O937 C931 1.208 . S
O938 Cd939 2.223 . S
O938 C946 1.315 . S
Cd939 O938 2.223 . S
Cd939 O942 2.297 . S
Cd939 O943 2.439 . S
Cd939 O949 2.240 . S
Cd940 O941 2.240 . S
Cd940 O948 2.223 . S
Cd940 O950 2.297 . S
Cd940 O951 2.439 . S
O941 Cd940 2.240 . S
O941 C946 1.279 . S
O942 Cd939 2.297 . S
O942 C944 1.247 . S
O943 Cd939 2.439 . S
O943 C944 1.208 . S
C944 O942 1.247 . S
C944 O943 1.208 . S
C945 O950 1.247 . S
C945 O951 1.208 . S
C946 O938 1.315 . S
C946 O941 1.279 . S
C947 O948 1.315 . S
C947 O949 1.279 . S
O948 Cd940 2.223 . S
O948 C947 1.315 . S
O949 Cd939 2.240 . S
O949 C947 1.279 . S
O950 Cd940 2.297 . S
O950 C945 1.247 . S
O951 Cd940 2.439 . S
O951 C945 1.208 . S
O952 Cd953 2.223 . S
O952 C960 1.315 . S
Cd953 O952 2.223 . S
Cd953 O956 2.297 . S
Cd953 O957 2.439 . S
Cd953 O963 2.240 . S
Cd954 O955 2.240 . S
Cd954 O962 2.223 . S
Cd954 O964 2.297 . S
Cd954 O965 2.439 . S
O955 Cd954 2.240 . S
O955 C960 1.279 . S
O956 Cd953 2.297 . S
O956 C958 1.247 . S
O957 Cd953 2.439 . S
O957 C958 1.208 . S
C958 O956 1.247 . S
C958 O957 1.208 . S
C959 O964 1.247 . S
C959 O965 1.208 . S
C960 O952 1.315 . S
C960 O955 1.279 . S
C961 O962 1.315 . S
C961 O963 1.279 . S
O962 Cd954 2.223 . S
O962 C961 1.315 . S
O963 Cd953 2.240 . S
O963 C961 1.279 . S
O964 Cd954 2.297 . S
O964 C959 1.247 . S
O965 Cd954 2.439 . S
O965 C959 1.208 . S
O966 Cd967 2.223 . S
O966 C974 1.315 . S
Cd967 O966 2.223 . S
Cd967 O970 2.297 . S
Cd967 O971 2.439 . S
Cd967 O977 2.240 . S
Cd968 O969 2.240 . S
Cd968 O976 2.223 . S
Cd968 O978 2.297 . S
Cd968 O979 2.439 . S
O969 Cd968 2.240 . S
O969 C974 1.279 . S
O970 Cd967 2.297 . S
O970 C972 1.247 . S
O971 Cd967 2.439 . S
O971 C972 1.208 . S
C972 O970 1.247 . S
C972 O971 1.208 . S
C973 O978 1.247 . S
C973 O979 1.208 . S
C974 O966 1.315 . S
C974 O969 1.279 . S
C975 O976 1.315 . S
C975 O977 1.279 . S
O976 Cd968 2.223 . S
O976 C975 1.315 . S
O977 Cd967 2.240 . S
O977 C975 1.279 . S
O978 Cd968 2.297 . S
O978 C973 1.247 . S
O979 Cd968 2.439 . S
O979 C973 1.208 . S
O980 Cd981 2.223 . S
O980 C988 1.315 . S
Cd981 O980 2.223 . S
Cd981 O984 2.297 . S
Cd981 O985 2.439 . S
Cd981 O991 2.240 . S
Cd982 O983 2.240 . S
Cd982 O990 2.223 . S
Cd982 O992 2.297 . S
Cd982 O993 2.439 . S
O983 Cd982 2.240 . S
O983 C988 1.279 . S
O984 Cd981 2.297 . S
O984 C986 1.247 . S
O985 Cd981 2.439 . S
O985 C986 1.208 . S
C986 O984 1.247 . S
C986 O985 1.208 . S
C987 O992 1.247 . S
C987 O993 1.208 . S
C988 O980 1.315 . S
C988 O983 1.279 . S
C989 O990 1.315 . S
C989 O991 1.279 . S
O990 Cd982 2.223 . S
O990 C989 1.315 . S
O991 Cd981 2.240 . S
O991 C989 1.279 . S
O992 Cd982 2.297 . S
O992 C987 1.247 . S
O993 Cd982 2.439 . S
O993 C987 1.208 . S
O994 Cd995 2.223 . S
O994 C1002 1.315 . S
Cd995 O994 2.223 . S
Cd995 O998 2.297 . S
Cd995 O999 2.439 . S
Cd995 O1005 2.240 . S
Cd996 O997 2.240 . S
Cd996 O1004 2.223 . S
Cd996 O1006 2.297 . S
Cd996 O1007 2.439 . S
O997 Cd996 2.240 . S
O997 C1002 1.279 . S
O998 Cd995 2.297 . S
O998 C1000 1.247 . S
O999 Cd995 2.439 . S
O999 C1000 1.208 . S
C1000 O998 1.247 . S
C1000 O999 1.208 . S
C1001 O1006 1.247 . S
C1001 O1007 1.208 . S
C1002 O994 1.315 . S
C1002 O997 1.279 . S
C1003 O1004 1.315 . S
C1003 O1005 1.279 . S
O1004 Cd996 2.223 . S
O1004 C1003 1.315 . S
O1005 Cd995 2.240 . S
O1005 C1003 1.279 . S
O1006 Cd996 2.297 . S
O1006 C1001 1.247 . S
O1007 Cd996 2.439 . S
O1007 C1001 1.208 . S
O1008 Cd1009 2.223 . S
O1008 C1016 1.315 . S
Cd1009 O1008 2.223 . S
Cd1009 O1012 2.297 . S
Cd1009 O1013 2.439 . S
Cd1009 O1019 2.240 . S
Cd1010 O1011 2.240 . S
Cd1010 O1018 2.223 . S
Cd1010 O1020 2.297 . S
Cd1010 O1021 2.439 . S
O1011 Cd1010 2.240 . S
O1011 C1016 1.279 . S
O1012 Cd1009 2.297 . S
O1012 C1014 1.247 . S
O1013 Cd1009 2.439 . S
O1013 C1014 1.208 . S
C1014 O1012 1.247 . S
C1014 O1013 1.208 . S
C1015 O1020 1.247 . S
C1015 O1021 1.208 . S
C1016 O1008 1.315 . S
C1016 O1011 1.279 . S
C1017 O1018 1.315 . S
C1017 O1019 1.279 . S
O1018 Cd1010 2.223 . S
O1018 C1017 1.315 . S
O1019 Cd1009 2.240 . S
O1019 C1017 1.279 . S
O1020 Cd1010 2.297 . S
O1020 C1015 1.247 . S
O1021 Cd1010 2.439 . S
O1021 C1015 1.208 . S
O1022 Cd1023 2.223 . S
O1022 C1030 1.315 . S
Cd1023 O1022 2.223 . S
Cd1023 O1026 2.297 . S
Cd1023 O1027 2.439 . S
Cd1023 O1033 2.240 . S
Cd1024 O1025 2.240 . S
Cd1024 O1032 2.223 . S
Cd1024 O1034 2.297 . S
Cd1024 O1035 2.439 . S
O1025 Cd1024 2.240 . S
O1025 C1030 1.279 . S
O1026 Cd1023 2.297 . S
O1026 C1028 1.247 . S
O1027 Cd1023 2.439 . S
O1027 C1028 1.208 . S
C1028 O1026 1.247 . S
C1028 O1027 1.208 . S
C1029 O1034 1.247 . S
C1029 O1035 1.208 . S
C1030 O1022 1.315 . S
C1030 O1025 1.279 . S
C1031 O1032 1.315 . S
C1031 O1033 1.279 . S
O1032 Cd1024 2.223 . S
O1032 C1031 1.315 . S
O1033 Cd1023 2.240 . S
O1033 C1031 1.279 . S
O1034 Cd1024 2.297 . S
O1034 C1029 1.247 . S
O1035 Cd1024 2.439 . S
O1035 C1029 1.208 . S
O1036 Cd1037 2.223 . S
O1036 C1044 1.315 . S
Cd1037 O1036 2.223 . S
Cd1037 O1040 2.297 . S
Cd1037 O1041 2.439 . S
Cd1037 O1047 2.240 . S
Cd1038 O1039 2.240 . S
Cd1038 O1046 2.223 . S
Cd1038 O1048 2.297 . S
Cd1038 O1049 2.439 . S
O1039 Cd1038 2.240 . S
O1039 C1044 1.279 . S
O1040 Cd1037 2.297 . S
O1040 C1042 1.247 . S
O1041 Cd1037 2.439 . S
O1041 C1042 1.208 . S
C1042 O1040 1.247 . S
C1042 O1041 1.208 . S
C1043 O1048 1.247 . S
C1043 O1049 1.208 . S
C1044 O1036 1.315 . S
C1044 O1039 1.279 . S
C1045 O1046 1.315 . S
C1045 O1047 1.279 . S
O1046 Cd1038 2.223 . S
O1046 C1045 1.315 . S
O1047 Cd1037 2.240 . S
O1047 C1045 1.279 . S
O1048 Cd1038 2.297 . S
O1048 C1043 1.247 . S
O1049 Cd1038 2.439 . S
O1049 C1043 1.208 . S
O1050 Cd1051 2.223 . S
O1050 C1058 1.315 . S
Cd1051 O1050 2.223 . S
Cd1051 O1054 2.297 . S
Cd1051 O1055 2.439 . S
Cd1051 O1061 2.240 . S
Cd1052 O1053 2.240 . S
Cd1052 O1060 2.223 . S
Cd1052 O1062 2.297 . S
Cd1052 O1063 2.439 . S
O1053 Cd1052 2.240 . S
O1053 C1058 1.279 . S
O1054 Cd1051 2.297 . S
O1054 C1056 1.247 . S
O1055 Cd1051 2.439 . S
O1055 C1056 1.208 . S
C1056 O1054 1.247 . S
C1056 O1055 1.208 . S
C1057 O1062 1.247 . S
C1057 O1063 1.208 . S
C1058 O1050 1.315 . S
C1058 O1053 1.279 . S
C1059 O1060 1.315 . S
C1059 O1061 1.279 . S
O1060 Cd1052 2.223 . S
O1060 C1059 1.315 . S
O1061 Cd1051 2.240 . S
O1061 C1059 1.279 . S
O1062 Cd1052 2.297 . S
O1062 C1057 1.247 . S
O1063 Cd1052 2.439 . S
O1063 C1057 1.208 . S
O1064 Cd1065 2.223 . S
O1064 C1072 1.315 . S
Cd1065 O1064 2.223 . S
Cd1065 O1068 2.297 . S
Cd1065 O1069 2.439 . S
Cd1065 O1075 2.240 . S
Cd1066 O1067 2.240 . S
Cd1066 O1074 2.223 . S
Cd1066 O1076 2.297 . S
Cd1066 O1077 2.439 . S
O1067 Cd1066 2.240 . S
O1067 C1072 1.279 . S
O1068 Cd1065 2.297 . S
O1068 C1070 1.247 . S
O1069 Cd1065 2.439 . S
O1069 C1070 1.208 . S
C1070 O1068 1.247 . S
C1070 O1069 1.208 . S
C1071 O1076 1.247 . S
C1071 O1077 1.208 . S
C1072 O1064 1.315 . S
C1072 O1067 1.279 . S
C1073 O1074 1.315 . S
C1073 O1075 1.279 . S
O1074 Cd1066 2.223 . S
O1074 C1073 1.315 . S
O1075 Cd1065 2.240 . S
O1075 C1073 1.279 . S
O1076 Cd1066 2.297 . S
O1076 C1071 1.247 . S
O1077 Cd1066 2.439 . S
O1077 C1071 1.208 . S
O1078 Cd1079 2.223 . S
O1078 C1086 1.315 . S
Cd1079 O1078 2.223 . S
Cd1079 O1082 2.297 . S
Cd1079 O1083 2.439 . S
Cd1079 O1089 2.240 . S
Cd1080 O1081 2.240 . S
Cd1080 O1088 2.223 . S
Cd1080 O1090 2.297 . S
Cd1080 O1091 2.439 . S
O1081 Cd1080 2.240 . S
O1081 C1086 1.279 . S
O1082 Cd1079 2.297 . S
O1082 C1084 1.247 . S
O1083 Cd1079 2.439 . S
O1083 C1084 1.208 . S
C1084 O1082 1.247 . S
C1084 O1083 1.208 . S
C1085 O1090 1.247 . S
C1085 O1091 1.208 . S
C1086 O1078 1.315 . S
C1086 O1081 1.279 . S
C1087 O1088 1.315 . S
C1087 O1089 1.279 . S
O1088 Cd1080 2.223 . S
O1088 C1087 1.315 . S
O1089 Cd1079 2.240 . S
O1089 C1087 1.279 . S
O1090 Cd1080 2.297 . S
O1090 C1085 1.247 . S
O1091 Cd1080 2.439 . S
O1091 C1085 1.208 . S
O1092 Cd1093 2.223 . S
O1092 C1100 1.315 . S
Cd1093 O1092 2.223 . S
Cd1093 O1096 2.297 . S
Cd1093 O1097 2.439 . S
Cd1093 O1103 2.240 . S
Cd1094 O1095 2.240 . S
Cd1094 O1102 2.223 . S
Cd1094 O1104 2.297 . S
Cd1094 O1105 2.439 . S
O1095 Cd1094 2.240 . S
O1095 C1100 1.279 . S
O1096 Cd1093 2.297 . S
O1096 C1098 1.247 . S
O1097 Cd1093 2.439 . S
O1097 C1098 1.208 . S
C1098 O1096 1.247 . S
C1098 O1097 1.208 . S
C1099 O1104 1.247 . S
C1099 O1105 1.208 . S
C1100 O1092 1.315 . S
C1100 O1095 1.279 . S
C1101 O1102 1.315 . S
C1101 O1103 1.279 . S
O1102 Cd1094 2.223 . S
O1102 C1101 1.315 . S
O1103 Cd1093 2.240 . S
O1103 C1101 1.279 . S
O1104 Cd1094 2.297 . S
O1104 C1099 1.247 . S
O1105 Cd1094 2.439 . S
O1105 C1099 1.208 . S
O1106 Cd1107 2.223 . S
O1106 C1114 1.315 . S
Cd1107 O1106 2.223 . S
Cd1107 O1110 2.297 . S
Cd1107 O1111 2.439 . S
Cd1107 O1117 2.240 . S
Cd1108 O1109 2.240 . S
Cd1108 O1116 2.223 . S
Cd1108 O1118 2.297 . S
Cd1108 O1119 2.439 . S
O1109 Cd1108 2.240 . S
O1109 C1114 1.279 . S
O1110 Cd1107 2.297 . S
O1110 C1112 1.247 . S
O1111 Cd1107 2.439 . S
O1111 C1112 1.208 . S
C1112 O1110 1.247 . S
C1112 O1111 1.208 . S
C1113 O1118 1.247 . S
C1113 O1119 1.208 . S
C1114 O1106 1.315 . S
C1114 O1109 1.279 . S
C1115 O1116 1.315 . S
C1115 O1117 1.279 . S
O1116 Cd1108 2.223 . S
O1116 C1115 1.315 . S
O1117 Cd1107 2.240 . S
O1117 C1115 1.279 . S
O1118 Cd1108 2.297 . S
O1118 C1113 1.247 . S
O1119 Cd1108 2.439 . S
O1119 C1113 1.208 . S
O1120 Cd1121 2.223 . S
O1120 C1128 1.315 . S
Cd1121 O1120 2.223 . S
Cd1121 O1124 2.297 . S
Cd1121 O1125 2.439 . S
Cd1121 O1131 2.240 . S
Cd1122 O1123 2.240 . S
Cd1122 O1130 2.223 . S
Cd1122 O1132 2.297 . S
Cd1122 O1133 2.439 . S
O1123 Cd1122 2.240 . S
O1123 C1128 1.279 . S
O1124 Cd1121 2.297 . S
O1124 C1126 1.247 . S
O1125 Cd1121 2.439 . S
O1125 C1126 1.208 . S
C1126 O1124 1.247 . S
C1126 O1125 1.208 . S
C1127 O1132 1.247 . S
C1127 O1133 1.208 . S
C1128 O1120 1.315 . S
C1128 O1123 1.279 . S
C1129 O1130 1.315 . S
C1129 O1131 1.279 . S
O1130 Cd1122 2.223 . S
O1130 C1129 1.315 . S
O1131 Cd1121 2.240 . S
O1131 C1129 1.279 . S
O1132 Cd1122 2.297 . S
O1132 C1127 1.247 . S
O1133 Cd1122 2.439 . S
O1133 C1127 1.208 . S
O1134 Cd1135 2.223 . S
O1134 C1142 1.315 . S
Cd1135 O1134 2.223 . S
Cd1135 O1138 2.297 . S
Cd1135 O1139 2.439 . S
Cd1135 O1145 2.240 . S
Cd1136 O1137 2.240 . S
Cd1136 O1144 2.223 . S
Cd1136 O1146 2.297 . S
Cd1136 O1147 2.439 . S
O1137 Cd1136 2.240 . S
O1137 C1142 1.279 . S
O1138 Cd1135 2.297 . S
O1138 C1140 1.247 . S
O1139 Cd1135 2.439 . S
O1139 C1140 1.208 . S
C1140 O1138 1.247 . S
C1140 O1139 1.208 . S
C1141 O1146 1.247 . S
C1141 O1147 1.208 . S
C1142 O1134 1.315 . S
C1142 O1137 1.279 . S
C1143 O1144 1.315 . S
C1143 O1145 1.279 . S
O1144 Cd1136 2.223 . S
O1144 C1143 1.315 . S
O1145 Cd1135 2.240 . S
O1145 C1143 1.279 . S
O1146 Cd1136 2.297 . S
O1146 C1141 1.247 . S
O1147 Cd1136 2.439 . S
O1147 C1141 1.208 . S
O1148 Cd1149 2.223 . S
O1148 C1156 1.315 . S
Cd1149 O1148 2.223 . S
Cd1149 O1152 2.297 . S
Cd1149 O1153 2.439 . S
Cd1149 O1159 2.240 . S
Cd1150 O1151 2.240 . S
Cd1150 O1158 2.223 . S
Cd1150 O1160 2.297 . S
Cd1150 O1161 2.439 . S
O1151 Cd1150 2.240 . S
O1151 C1156 1.279 . S
O1152 Cd1149 2.297 . S
O1152 C1154 1.247 . S
O1153 Cd1149 2.439 . S
O1153 C1154 1.208 . S
C1154 O1152 1.247 . S
C1154 O1153 1.208 . S
C1155 O1160 1.247 . S
C1155 O1161 1.208 . S
C1156 O1148 1.315 . S
C1156 O1151 1.279 . S
C1157 O1158 1.315 . S
C1157 O1159 1.279 . S
O1158 Cd1150 2.223 . S
O1158 C1157 1.315 . S
O1159 Cd1149 2.240 . S
O1159 C1157 1.279 . S
O1160 Cd1150 2.297 . S
O1160 C1155 1.247 . S
O1161 Cd1150 2.439 . S
O1161 C1155 1.208 . S
O1162 Cd1163 2.223 . S
O1162 C1170 1.315 . S
Cd1163 O1162 2.223 . S
Cd1163 O1166 2.297 . S
Cd1163 O1167 2.439 . S
Cd1163 O1173 2.240 . S
Cd1164 O1165 2.240 . S
Cd1164 O1172 2.223 . S
Cd1164 O1174 2.297 . S
Cd1164 O1175 2.439 . S
O1165 Cd1164 2.240 . S
O1165 C1170 1.279 . S
O1166 Cd1163 2.297 . S
O1166 C1168 1.247 . S
O1167 Cd1163 2.439 . S
O1167 C1168 1.208 . S
C1168 O1166 1.247 . S
C1168 O1167 1.208 . S
C1169 O1174 1.247 . S
C1169 O1175 1.208 . S
C1170 O1162 1.315 . S
C1170 O1165 1.279 . S
C1171 O1172 1.315 . S
C1171 O1173 1.279 . S
O1172 Cd1164 2.223 . S
O1172 C1171 1.315 . S
O1173 Cd1163 2.240 . S
O1173 C1171 1.279 . S
O1174 Cd1164 2.297 . S
O1174 C1169 1.247 . S
O1175 Cd1164 2.439 . S
O1175 C1169 1.208 . S
O1176 Cd1177 2.223 . S
O1176 C1184 1.315 . S
Cd1177 O1176 2.223 . S
Cd1177 O1180 2.297 . S
Cd1177 O1181 2.439 . S
Cd1177 O1187 2.240 . S
Cd1178 O1179 2.240 . S
Cd1178 O1186 2.223 . S
Cd1178 O1188 2.297 . S
Cd1178 O1189 2.439 . S
O1179 Cd1178 2.240 . S
O1179 C1184 1.279 . S
O1180 Cd1177 2.297 . S
O1180 C1182 1.247 . S
O1181 Cd1177 2.439 . S
O1181 C1182 1.208 . S
C1182 O1180 1.247 . S
C1182 O1181 1.208 . S
C1183 O1188 1.247 . S
C1183 O1189 1.208 . S
C1184 O1176 1.315 . S
C1184 O1179 1.279 . S
C1185 O1186 1.315 . S
C1185 O1187 1.279 . S
O1186 Cd1178 2.223 . S
O1186 C1185 1.315 . S
O1187 Cd1177 2.240 . S
O1187 C1185 1.279 . S
O1188 Cd1178 2.297 . S
O1188 C1183 1.247 . S
O1189 Cd1178 2.439 . S
O1189 C1183 1.208 . S
O1190 Cd1191 2.223 . S
O1190 C1198 1.315 . S
Cd1191 O1190 2.223 . S
Cd1191 O1194 2.297 . S
Cd1191 O1195 2.439 . S
Cd1191 O1201 2.240 . S
Cd1192 O1193 2.240 . S
Cd1192 O1200 2.223 . S
Cd1192 O1202 2.297 . S
Cd1192 O1203 2.439 . S
O1193 Cd1192 2.240 . S
O1193 C1198 1.279 . S
O1194 Cd1191 2.297 . S
O1194 C1196 1.247 . S
O1195 Cd1191 2.439 . S
O1195 C1196 1.208 . S
C1196 O1194 1.247 . S
C1196 O1195 1.208 . S
C1197 O1202 1.247 . S
C1197 O1203 1.208 . S
C1198 O1190 1.315 . S
C1198 O1193 1.279 . S
C1199 O1200 1.315 . S
C1199 O1201 1.279 . S
O1200 Cd1192 2.223 . S
O1200 C1199 1.315 . S
O1201 Cd1191 2.240 . S
O1201 C1199 1.279 . S
O1202 Cd1192 2.297 . S
O1202 C1197 1.247 . S
O1203 Cd1192 2.439 . S
O1203 C1197 1.208 . S
O1204 Cd1205 2.223 . S
O1204 C1212 1.315 . S
Cd1205 O1204 2.223 . S
Cd1205 O1208 2.297 . S
Cd1205 O1209 2.439 . S
Cd1205 O1215 2.240 . S
Cd1206 O1207 2.240 . S
Cd1206 O1214 2.223 . S
Cd1206 O1216 2.297 . S
Cd1206 O1217 2.439 . S
O1207 Cd1206 2.240 . S
O1207 C1212 1.279 . S
O1208 Cd1205 2.297 . S
O1208 C1210 1.247 . S
O1209 Cd1205 2.439 . S
O1209 C1210 1.208 . S
C1210 O1208 1.247 . S
C1210 O1209 1.208 . S
C1211 O1216 1.247 . S
C1211 O1217 1.208 . S
C1212 O1204 1.315 . S
C1212 O1207 1.279 . S
C1213 O1214 1.315 . S
C1213 O1215 1.279 . S
O1214 Cd1206 2.223 . S
O1214 C1213 1.315 . S
O1215 Cd1205 2.240 . S
O1215 C1213 1.279 . S
O1216 Cd1206 2.297 . S
O1216 C1211 1.247 . S
O1217 Cd1206 2.439 . S
O1217 C1211 1.208 . S
O1218 Cd1219 2.223 . S
O1218 C1226 1.315 . S
Cd1219 O1218 2.223 . S
Cd1219 O1222 2.297 . S
Cd1219 O1223 2.439 . S
Cd1219 O1229 2.240 . S
Cd1220 O1221 2.240 . S
Cd1220 O1228 2.223 . S
Cd1220 O1230 2.297 . S
Cd1220 O1231 2.439 . S
O1221 Cd1220 2.240 . S
O1221 C1226 1.279 . S
O1222 Cd1219 2.297 . S
O1222 C1224 1.247 . S
O1223 Cd1219 2.439 . S
O1223 C1224 1.208 . S
C1224 O1222 1.247 . S
C1224 O1223 1.208 . S
C1225 O1230 1.247 . S
C1225 O1231 1.208 . S
C1226 O1218 1.315 . S
C1226 O1221 1.279 . S
C1227 O1228 1.315 . S
C1227 O1229 1.279 . S
O1228 Cd1220 2.223 . S
O1228 C1227 1.315 . S
O1229 Cd1219 2.240 . S
O1229 C1227 1.279 . S
O1230 Cd1220 2.297 . S
O1230 C1225 1.247 . S
O1231 Cd1220 2.439 . S
O1231 C1225 1.208 . S
O1232 Cd1233 2.223 . S
O1232 C1240 1.315 . S
Cd1233 O1232 2.223 . S
Cd1233 O1236 2.297 . S
Cd1233 O1237 2.439 . S
Cd1233 O1243 2.240 . S
Cd1234 O1235 2.240 . S
Cd1234 O1242 2.223 . S
Cd1234 O1244 2.297 . S
Cd1234 O1245 2.439 . S
O1235 Cd1234 2.240 . S
O1235 C1240 1.279 . S
O1236 Cd1233 2.297 . S
O1236 C1238 1.247 . S
O1237 Cd1233 2.439 . S
O1237 C1238 1.208 . S
C1238 O1236 1.247 . S
C1238 O1237 1.208 . S
C1239 O1244 1.247 . S
C1239 O1245 1.208 . S
C1240 O1232 1.315 . S
C1240 O1235 1.279 . S
C1241 O1242 1.315 . S
C1241 O1243 1.279 . S
O1242 Cd1234 2.223 . S
O1242 C1241 1.315 . S
O1243 Cd1233 2.240 . S
O1243 C1241 1.279 . S
O1244 Cd1234 2.297 . S
O1244 C1239 1.247 . S
O1245 Cd1234 2.439 . S
O1245 C1239 1.208 . S
O1246 Cd1247 2.223 . S
O1246 C1254 1.315 . S
Cd1247 O1246 2.223 . S
Cd1247 O1250 2.297 . S
Cd1247 O1251 2.439 . S
Cd1247 O1257 2.240 . S
Cd1248 O1249 2.240 . S
Cd1248 O1256 2.223 . S
Cd1248 O1258 2.297 . S
Cd1248 O1259 2.439 . S
O1249 Cd1248 2.240 . S
O1249 C1254 1.279 . S
O1250 Cd1247 2.297 . S
O1250 C1252 1.247 . S
O1251 Cd1247 2.439 . S
O1251 C1252 1.208 . S
C1252 O1250 1.247 . S
C1252 O1251 1.208 . S
C1253 O1258 1.247 . S
C1253 O1259 1.208 . S
C1254 O1246 1.315 . S
C1254 O1249 1.279 . S
C1255 O1256 1.315 . S
C1255 O1257 1.279 . S
O1256 Cd1248 2.223 . S
O1256 C1255 1.315 . S
O1257 Cd1247 2.240 . S
O1257 C1255 1.279 . S
O1258 Cd1248 2.297 . S
O1258 C1253 1.247 . S
O1259 Cd1248 2.439 . S
O1259 C1253 1.208 . S
O1260 Cd1261 2.223 . S
O1260 C1268 1.315 . S
Cd1261 O1260 2.223 . S
Cd1261 O1264 2.297 . S
Cd1261 O1265 2.439 . S
Cd1261 O1271 2.240 . S
Cd1262 O1263 2.240 . S
Cd1262 O1270 2.223 . S
Cd1262 O1272 2.297 . S
Cd1262 O1273 2.439 . S
O1263 Cd1262 2.240 . S
O1263 C1268 1.279 . S
O1264 Cd1261 2.297 . S
O1264 C1266 1.247 . S
O1265 Cd1261 2.439 . S
O1265 C1266 1.208 . S
C1266 O1264 1.247 . S
C1266 O1265 1.208 . S
C1267 O1272 1.247 . S
C1267 O1273 1.208 . S
C1268 O1260 1.315 . S
C1268 O1263 1.279 . S
C1269 O1270 1.315 . S
C1269 O1271 1.279 . S
O1270 Cd1262 2.223 . S
O1270 C1269 1.315 . S
O1271 Cd1261 2.240 . S
O1271 C1269 1.279 . S
O1272 Cd1262 2.297 . S
O1272 C1267 1.247 . S
O1273 Cd1262 2.439 . S
O1273 C1267 1.208 . S
O1274 Cd1275 2.223 . S
O1274 C1282 1.315 . S
Cd1275 O1274 2.223 . S
Cd1275 O1278 2.297 . S
Cd1275 O1279 2.439 . S
Cd1275 O1285 2.240 . S
Cd1276 O1277 2.240 . S
Cd1276 O1284 2.223 . S
Cd1276 O1286 2.297 . S
Cd1276 O1287 2.439 . S
O1277 Cd1276 2.240 . S
O1277 C1282 1.279 . S
O1278 Cd1275 2.297 . S
O1278 C1280 1.247 . S
O1279 Cd1275 2.439 . S
O1279 C1280 1.208 . S
C1280 O1278 1.247 . S
C1280 O1279 1.208 . S
C1281 O1286 1.247 . S
C1281 O1287 1.208 . S
C1282 O1274 1.315 . S
C1282 O1277 1.279 . S
C1283 O1284 1.315 . S
C1283 O1285 1.279 . S
O1284 Cd1276 2.223 . S
O1284 C1283 1.315 . S
O1285 Cd1275 2.240 . S
O1285 C1283 1.279 . S
O1286 Cd1276 2.297 . S
O1286 C1281 1.247 . S
O1287 Cd1276 2.439 . S
O1287 C1281 1.208 . S
O1288 Cd1289 2.223 . S
O1288 C1296 1.315 . S
Cd1289 O1288 2.223 . S
Cd1289 O1292 2.297 . S
Cd1289 O1293 2.439 . S
Cd1289 O1299 2.240 . S
Cd1290 O1291 2.240 . S
Cd1290 O1298 2.223 . S
Cd1290 O1300 2.297 . S
Cd1290 O1301 2.439 . S
O1291 Cd1290 2.240 . S
O1291 C1296 1.279 . S
O1292 Cd1289 2.297 . S
O1292 C1294 1.247 . S
O1293 Cd1289 2.439 . S
O1293 C1294 1.208 . S
C1294 O1292 1.247 . S
C1294 O1293 1.208 . S
C1295 O1300 1.247 . S
C1295 O1301 1.208 . S
C1296 O1288 1.315 . S
C1296 O1291 1.279 . S
C1297 O1298 1.315 . S
C1297 O1299 1.279 . S
O1298 Cd1290 2.223 . S
O1298 C1297 1.315 . S
O1299 Cd1289 2.240 . S
O1299 C1297 1.279 . S
O1300 Cd1290 2.297 . S
O1300 C1295 1.247 . S
O1301 Cd1290 2.439 . S
O1301 C1295 1.208 . S
O1302 Cd1303 2.223 . S
O1302 C1310 1.315 . S
Cd1303 O1302 2.223 . S
Cd1303 O1306 2.297 . S
Cd1303 O1307 2.439 . S
Cd1303 O1313 2.240 . S
Cd1304 O1305 2.240 . S
Cd1304 O1312 2.223 . S
Cd1304 O1314 2.297 . S
Cd1304 O1315 2.439 . S
O1305 Cd1304 2.240 . S
O1305 C1310 1.279 . S
O1306 Cd1303 2.297 . S
O1306 C1308 1.247 . S
O1307 Cd1303 2.439 . S
O1307 C1308 1.208 . S
C1308 O1306 1.247 . S
C1308 O1307 1.208 . S
C1309 O1314 1.247 . S
C1309 O1315 1.208 . S
C1310 O1302 1.315 . S
C1310 O1305 1.279 . S
C1311 O1312 1.315 . S
C1311 O1313 1.279 . S
O1312 Cd1304 2.223 . S
O1312 C1311 1.315 . S
O1313 Cd1303 2.240 . S
O1313 C1311 1.279 . S
O1314 Cd1304 2.297 . S
O1314 C1309 1.247 . S
O1315 Cd1304 2.439 . S
O1315 C1309 1.208 . S
O1316 Cd1317 2.223 . S
O1316 C1324 1.315 . S
Cd1317 O1316 2.223 . S
Cd1317 O1320 2.297 . S
Cd1317 O1321 2.439 . S
Cd1317 O1327 2.240 . S
Cd1318 O1319 2.240 . S
Cd1318 O1326 2.223 . S
Cd1318 O1328 2.297 . S
Cd1318 O1329 2.439 . S
O1319 Cd1318 2.240 . S
O1319 C1324 1.279 . S
O1320 Cd1317 2.297 . S
O1320 C1322 1.247 . S
O1321 Cd1317 2.439 . S
O1321 C1322 1.208 . S
C1322 O1320 1.247 . S
C1322 O1321 1.208 . S
C1323 O1328 1.247 . S
C1323 O1329 1.208 . S
C1324 O1316 1.315 . S
C1324 O1319 1.279 . S
C1325 O1326 1.315 . S
C1325 O1327 1.279 . S
O1326 Cd1318 2.223 . S
O1326 C1325 1.315 . S
O1327 Cd1317 2.240 . S
O1327 C1325 1.279 . S
O1328 Cd1318 2.297 . S
O1328 C1323 1.247 . S
O1329 Cd1318 2.439 . S
O1329 C1323 1.208 . S
O1330 Cd1331 2.223 . S
O1330 C1338 1.315 . S
Cd1331 O1330 2.223 . S
Cd1331 O1334 2.297 . S
Cd1331 O1335 2.439 . S
Cd1331 O1341 2.240 . S
Cd1332 O1333 2.240 . S
Cd1332 O1340 2.223 . S
Cd1332 O1342 2.297 . S
Cd1332 O1343 2.439 . S
O1333 Cd1332 2.240 . S
O1333 C1338 1.279 . S
O1334 Cd1331 2.297 . S
O1334 C1336 1.247 . S
O1335 Cd1331 2.439 . S
O1335 C1336 1.208 . S
C1336 O1334 1.247 . S
C1336 O1335 1.208 . S
C1337 O1342 1.247 . S
C1337 O1343 1.208 . S
C1338 O1330 1.315 . S
C1338 O1333 1.279 . S
C1339 O1340 1.315 . S
C1339 O1341 1.279 . S
O1340 Cd1332 2.223 . S
O1340 C1339 1.315 . S
O1341 Cd1331 2.240 . S
O1341 C1339 1.279 . S
O1342 Cd1332 2.297 . S
O1342 C1337 1.247 . S
O1343 Cd1332 2.439 . S
O1343 C1337 1.208 . S
H1344 C1350 0.930 . S
H1345 C1354 0.930 . S
H1346 C1359 0.929 . S
H1347 C1357 0.929 . S
H1348 C1352 0.929 . S
H1349 C1358 0.929 . S
C1350 H1344 0.930 . S
C1350 C1351 1.367 . S
C1350 C1358 1.378 . S
C1351 C1350 1.367 . S
C1351 C1359 1.433 . S
C1352 H1348 0.929 . S
C1352 C1354 1.378 . S
C1352 C1356 1.350 . S
C1353 C1356 1.463 . S
C1353 C1358 1.350 . S
C1353 N1361 1.427 . S
C1354 H1345 0.930 . S
C1354 C1352 1.378 . S
C1354 C1355 1.367 . S
C1355 C1354 1.367 . S
C1355 C1357 1.433 . S
C1356 C1352 1.350 . S
C1356 C1353 1.463 . S
C1356 N1360 1.427 . S
C1357 H1347 0.929 . S
C1357 C1355 1.433 . S
C1357 N1360 1.384 . S
C1358 H1349 0.929 . S
C1358 C1350 1.378 . S
C1358 C1353 1.350 . S
C1359 H1346 0.929 . S
C1359 C1351 1.433 . S
C1359 N1361 1.384 . S
N1360 C1356 1.427 . S
N1360 C1357 1.384 . S
N1361 C1353 1.427 . S
N1361 C1359 1.384 . S
H1362 C1368 0.930 . S
H1363 C1372 0.930 . S
H1364 C1377 0.929 . S
H1365 C1375 0.929 . S
H1366 C1370 0.929 . S
H1367 C1376 0.929 . S
C1368 H1362 0.930 . S
C1368 C1369 1.367 . S
C1368 C1376 1.378 . S
C1369 C1368 1.367 . S
C1369 C1377 1.433 . S
C1370 H1366 0.929 . S
C1370 C1372 1.378 . S
C1370 C1374 1.350 . S
C1371 C1374 1.463 . S
C1371 C1376 1.350 . S
C1371 N1379 1.427 . S
C1372 H1363 0.930 . S
C1372 C1370 1.378 . S
C1372 C1373 1.367 . S
C1373 C1372 1.367 . S
C1373 C1375 1.433 . S
C1374 C1370 1.350 . S
C1374 C1371 1.463 . S
C1374 N1378 1.427 . S
C1375 H1365 0.929 . S
C1375 C1373 1.433 . S
C1375 N1378 1.384 . S
C1376 H1367 0.929 . S
C1376 C1368 1.378 . S
C1376 C1371 1.350 . S
C1377 H1364 0.929 . S
C1377 C1369 1.433 . S
C1377 N1379 1.384 . S
N1378 C1374 1.427 . S
N1378 C1375 1.384 . S
N1379 C1371 1.427 . S
N1379 C1377 1.384 . S
H1380 C1386 0.930 . S
H1381 C1390 0.930 . S
H1382 C1395 0.929 . S
H1383 C1393 0.929 . S
H1384 C1388 0.929 . S
H1385 C1394 0.929 . S
C1386 H1380 0.930 . S
C1386 C1387 1.367 . S
C1386 C1394 1.378 . S
C1387 C1386 1.367 . S
C1387 C1395 1.433 . S
C1388 H1384 0.929 . S
C1388 C1390 1.378 . S
C1388 C1392 1.350 . S
C1389 C1392 1.463 . S
C1389 C1394 1.350 . S
C1389 N1397 1.427 . S
C1390 H1381 0.930 . S
C1390 C1388 1.378 . S
C1390 C1391 1.367 . S
C1391 C1390 1.367 . S
C1391 C1393 1.433 . S
C1392 C1388 1.350 . S
C1392 C1389 1.463 . S
C1392 N1396 1.427 . S
C1393 H1383 0.929 . S
C1393 C1391 1.433 . S
C1393 N1396 1.384 . S
C1394 H1385 0.929 . S
C1394 C1386 1.378 . S
C1394 C1389 1.350 . S
C1395 H1382 0.929 . S
C1395 C1387 1.433 . S
C1395 N1397 1.384 . S
N1396 C1392 1.427 . S
N1396 C1393 1.384 . S
N1397 C1389 1.427 . S
N1397 C1395 1.384 . S
H1398 C1404 0.930 . S
H1399 C1408 0.930 . S
H1400 C1413 0.929 . S
H1401 C1411 0.929 . S
H1402 C1406 0.929 . S
H1403 C1412 0.929 . S
C1404 H1398 0.930 . S
C1404 C1405 1.367 . S
C1404 C1412 1.378 . S
C1405 C1404 1.367 . S
C1405 C1413 1.433 . S
C1406 H1402 0.929 . S
C1406 C1408 1.378 . S
C1406 C1410 1.350 . S
C1407 C1410 1.463 . S
C1407 C1412 1.350 . S
C1407 N1415 1.427 . S
C1408 H1399 0.930 . S
C1408 C1406 1.378 . S
C1408 C1409 1.367 . S
C1409 C1408 1.367 . S
C1409 C1411 1.433 . S
C1410 C1406 1.350 . S
C1410 C1407 1.463 . S
C1410 N1414 1.427 . S
C1411 H1401 0.929 . S
C1411 C1409 1.433 . S
C1411 N1414 1.384 . S
C1412 H1403 0.929 . S
C1412 C1404 1.378 . S
C1412 C1407 1.350 . S
C1413 H1400 0.929 . S
C1413 C1405 1.433 . S
C1413 N1415 1.384 . S
N1414 C1410 1.427 . S
N1414 C1411 1.384 . S
N1415 C1407 1.427 . S
N1415 C1413 1.384 . S
H1416 C1422 0.930 . S
H1417 C1426 0.930 . S
H1418 C1431 0.929 . S
H1419 C1429 0.929 . S
H1420 C1424 0.929 . S
H1421 C1430 0.929 . S
C1422 H1416 0.930 . S
C1422 C1423 1.367 . S
C1422 C1430 1.378 . S
C1423 C1422 1.367 . S
C1423 C1431 1.433 . S
C1424 H1420 0.929 . S
C1424 C1426 1.378 . S
C1424 C1428 1.350 . S
C1425 C1428 1.463 . S
C1425 C1430 1.350 . S
C1425 N1433 1.427 . S
C1426 H1417 0.930 . S
C1426 C1424 1.378 . S
C1426 C1427 1.367 . S
C1427 C1426 1.367 . S
C1427 C1429 1.433 . S
C1428 C1424 1.350 . S
C1428 C1425 1.463 . S
C1428 N1432 1.427 . S
C1429 H1419 0.929 . S
C1429 C1427 1.433 . S
C1429 N1432 1.384 . S
C1430 H1421 0.929 . S
C1430 C1422 1.378 . S
C1430 C1425 1.350 . S
C1431 H1418 0.929 . S
C1431 C1423 1.433 . S
C1431 N1433 1.384 . S
N1432 C1428 1.427 . S
N1432 C1429 1.384 . S
N1433 C1425 1.427 . S
N1433 C1431 1.384 . S
H1434 C1440 0.930 . S
H1435 C1444 0.930 . S
H1436 C1449 0.929 . S
H1437 C1447 0.929 . S
H1438 C1442 0.929 . S
H1439 C1448 0.929 . S
C1440 H1434 0.930 . S
C1440 C1441 1.367 . S
C1440 C1448 1.378 . S
C1441 C1440 1.367 . S
C1441 C1449 1.433 . S
C1442 H1438 0.929 . S
C1442 C1444 1.378 . S
C1442 C1446 1.350 . S
C1443 C1446 1.463 . S
C1443 C1448 1.350 . S
C1443 N1451 1.427 . S
C1444 H1435 0.930 . S
C1444 C1442 1.378 . S
C1444 C1445 1.367 . S
C1445 C1444 1.367 . S
C1445 C1447 1.433 . S
C1446 C1442 1.350 . S
C1446 C1443 1.463 . S
C1446 N1450 1.427 . S
C1447 H1437 0.929 . S
C1447 C1445 1.433 . S
C1447 N1450 1.384 . S
C1448 H1439 0.929 . S
C1448 C1440 1.378 . S
C1448 C1443 1.350 . S
C1449 H1436 0.929 . S
C1449 C1441 1.433 . S
C1449 N1451 1.384 . S
N1450 C1446 1.427 . S
N1450 C1447 1.384 . S
N1451 C1443 1.427 . S
N1451 C1449 1.384 . S
H1452 C1458 0.930 . S
H1453 C1462 0.930 . S
H1454 C1467 0.929 . S
H1455 C1465 0.929 . S
H1456 C1460 0.929 . S
H1457 C1466 0.929 . S
C1458 H1452 0.930 . S
C1458 C1459 1.367 . S
C1458 C1466 1.378 . S
C1459 C1458 1.367 . S
C1459 C1467 1.433 . S
C1460 H1456 0.929 . S
C1460 C1462 1.378 . S
C1460 C1464 1.350 . S
C1461 C1464 1.463 . S
C1461 C1466 1.350 . S
C1461 N1469 1.427 . S
C1462 H1453 0.930 . S
C1462 C1460 1.378 . S
C1462 C1463 1.367 . S
C1463 C1462 1.367 . S
C1463 C1465 1.433 . S
C1464 C1460 1.350 . S
C1464 C1461 1.463 . S
C1464 N1468 1.427 . S
C1465 H1455 0.929 . S
C1465 C1463 1.433 . S
C1465 N1468 1.384 . S
C1466 H1457 0.929 . S
C1466 C1458 1.378 . S
C1466 C1461 1.350 . S
C1467 H1454 0.929 . S
C1467 C1459 1.433 . S
C1467 N1469 1.384 . S
N1468 C1464 1.427 . S
N1468 C1465 1.384 . S
N1469 C1461 1.427 . S
N1469 C1467 1.384 . S
H1470 C1476 0.930 . S
H1471 C1480 0.930 . S
H1472 C1485 0.929 . S
H1473 C1483 0.929 . S
H1474 C1478 0.929 . S
H1475 C1484 0.929 . S
C1476 H1470 0.930 . S
C1476 C1477 1.367 . S
C1476 C1484 1.378 . S
C1477 C1476 1.367 . S
C1477 C1485 1.433 . S
C1478 H1474 0.929 . S
C1478 C1480 1.378 . S
C1478 C1482 1.350 . S
C1479 C1482 1.463 . S
C1479 C1484 1.350 . S
C1479 N1487 1.427 . S
C1480 H1471 0.930 . S
C1480 C1478 1.378 . S
C1480 C1481 1.367 . S
C1481 C1480 1.367 . S
C1481 C1483 1.433 . S
C1482 C1478 1.350 . S
C1482 C1479 1.463 . S
C1482 N1486 1.427 . S
C1483 H1473 0.929 . S
C1483 C1481 1.433 . S
C1483 N1486 1.384 . S
C1484 H1475 0.929 . S
C1484 C1476 1.378 . S
C1484 C1479 1.350 . S
C1485 H1472 0.929 . S
C1485 C1477 1.433 . S
C1485 N1487 1.384 . S
N1486 C1482 1.427 . S
N1486 C1483 1.384 . S
N1487 C1479 1.427 . S
N1487 C1485 1.384 . S
H1488 C1494 0.930 . S
H1489 C1498 0.930 . S
H1490 C1503 0.929 . S
H1491 C1501 0.929 . S
H1492 C1496 0.929 . S
H1493 C1502 0.929 . S
C1494 H1488 0.930 . S
C1494 C1495 1.367 . S
C1494 C1502 1.378 . S
C1495 C1494 1.367 . S
C1495 C1503 1.433 . S
C1496 H1492 0.929 . S
C1496 C1498 1.378 . S
C1496 C1500 1.350 . S
C1497 C1500 1.463 . S
C1497 C1502 1.350 . S
C1497 N1505 1.427 . S
C1498 H1489 0.930 . S
C1498 C1496 1.378 . S
C1498 C1499 1.367 . S
C1499 C1498 1.367 . S
C1499 C1501 1.433 . S
C1500 C1496 1.350 . S
C1500 C1497 1.463 . S
C1500 N1504 1.427 . S
C1501 H1491 0.929 . S
C1501 C1499 1.433 . S
C1501 N1504 1.384 . S
C1502 H1493 0.929 . S
C1502 C1494 1.378 . S
C1502 C1497 1.350 . S
C1503 H1490 0.929 . S
C1503 C1495 1.433 . S
C1503 N1505 1.384 . S
N1504 C1500 1.427 . S
N1504 C1501 1.384 . S
N1505 C1497 1.427 . S
N1505 C1503 1.384 . S
H1506 C1512 0.930 . S
H1507 C1516 0.930 . S
H1508 C1521 0.929 . S
H1509 C1519 0.929 . S
H1510 C1514 0.929 . S
H1511 C1520 0.929 . S
C1512 H1506 0.930 . S
C1512 C1513 1.367 . S
C1512 C1520 1.378 . S
C1513 C1512 1.367 . S
C1513 C1521 1.433 . S
C1514 H1510 0.929 . S
C1514 C1516 1.378 . S
C1514 C1518 1.350 . S
C1515 C1518 1.463 . S
C1515 C1520 1.350 . S
C1515 N1523 1.427 . S
C1516 H1507 0.930 . S
C1516 C1514 1.378 . S
C1516 C1517 1.367 . S
C1517 C1516 1.367 . S
C1517 C1519 1.433 . S
C1518 C1514 1.350 . S
C1518 C1515 1.463 . S
C1518 N1522 1.427 . S
C1519 H1509 0.929 . S
C1519 C1517 1.433 . S
C1519 N1522 1.384 . S
C1520 H1511 0.929 . S
C1520 C1512 1.378 . S
C1520 C1515 1.350 . S
C1521 H1508 0.929 . S
C1521 C1513 1.433 . S
C1521 N1523 1.384 . S
N1522 C1518 1.427 . S
N1522 C1519 1.384 . S
N1523 C1515 1.427 . S
N1523 C1521 1.384 . S
H1524 C1530 0.930 . S
H1525 C1534 0.930 . S
H1526 C1539 0.929 . S
H1527 C1537 0.929 . S
H1528 C1532 0.929 . S
H1529 C1538 0.929 . S
C1530 H1524 0.930 . S
C1530 C1531 1.367 . S
C1530 C1538 1.378 . S
C1531 C1530 1.367 . S
C1531 C1539 1.433 . S
C1532 H1528 0.929 . S
C1532 C1534 1.378 . S
C1532 C1536 1.350 . S
C1533 C1536 1.463 . S
C1533 C1538 1.350 . S
C1533 N1541 1.427 . S
C1534 H1525 0.930 . S
C1534 C1532 1.378 . S
C1534 C1535 1.367 . S
C1535 C1534 1.367 . S
C1535 C1537 1.433 . S
C1536 C1532 1.350 . S
C1536 C1533 1.463 . S
C1536 N1540 1.427 . S
C1537 H1527 0.929 . S
C1537 C1535 1.433 . S
C1537 N1540 1.384 . S
C1538 H1529 0.929 . S
C1538 C1530 1.378 . S
C1538 C1533 1.350 . S
C1539 H1526 0.929 . S
C1539 C1531 1.433 . S
C1539 N1541 1.384 . S
N1540 C1536 1.427 . S
N1540 C1537 1.384 . S
N1541 C1533 1.427 . S
N1541 C1539 1.384 . S
H1542 C1548 0.930 . S
H1543 C1552 0.930 . S
H1544 C1557 0.929 . S
H1545 C1555 0.929 . S
H1546 C1550 0.929 . S
H1547 C1556 0.929 . S
C1548 H1542 0.930 . S
C1548 C1549 1.367 . S
C1548 C1556 1.378 . S
C1549 C1548 1.367 . S
C1549 C1557 1.433 . S
C1550 H1546 0.929 . S
C1550 C1552 1.378 . S
C1550 C1554 1.350 . S
C1551 C1554 1.463 . S
C1551 C1556 1.350 . S
C1551 N1559 1.427 . S
C1552 H1543 0.930 . S
C1552 C1550 1.378 . S
C1552 C1553 1.367 . S
C1553 C1552 1.367 . S
C1553 C1555 1.433 . S
C1554 C1550 1.350 . S
C1554 C1551 1.463 . S
C1554 N1558 1.427 . S
C1555 H1545 0.929 . S
C1555 C1553 1.433 . S
C1555 N1558 1.384 . S
C1556 H1547 0.929 . S
C1556 C1548 1.378 . S
C1556 C1551 1.350 . S
C1557 H1544 0.929 . S
C1557 C1549 1.433 . S
C1557 N1559 1.384 . S
N1558 C1554 1.427 . S
N1558 C1555 1.384 . S
N1559 C1551 1.427 . S
N1559 C1557 1.384 . S
H1560 C1566 0.930 . S
H1561 C1570 0.930 . S
H1562 C1575 0.929 . S
H1563 C1573 0.929 . S
H1564 C1568 0.929 . S
H1565 C1574 0.929 . S
C1566 H1560 0.930 . S
C1566 C1567 1.367 . S
C1566 C1574 1.378 . S
C1567 C1566 1.367 . S
C1567 C1575 1.433 . S
C1568 H1564 0.929 . S
C1568 C1570 1.378 . S
C1568 C1572 1.350 . S
C1569 C1572 1.463 . S
C1569 C1574 1.350 . S
C1569 N1577 1.427 . S
C1570 H1561 0.930 . S
C1570 C1568 1.378 . S
C1570 C1571 1.367 . S
C1571 C1570 1.367 . S
C1571 C1573 1.433 . S
C1572 C1568 1.350 . S
C1572 C1569 1.463 . S
C1572 N1576 1.427 . S
C1573 H1563 0.929 . S
C1573 C1571 1.433 . S
C1573 N1576 1.384 . S
C1574 H1565 0.929 . S
C1574 C1566 1.378 . S
C1574 C1569 1.350 . S
C1575 H1562 0.929 . S
C1575 C1567 1.433 . S
C1575 N1577 1.384 . S
N1576 C1572 1.427 . S
N1576 C1573 1.384 . S
N1577 C1569 1.427 . S
N1577 C1575 1.384 . S
H1578 C1584 0.930 . S
H1579 C1588 0.930 . S
H1580 C1593 0.929 . S
H1581 C1591 0.929 . S
H1582 C1586 0.929 . S
H1583 C1592 0.929 . S
C1584 H1578 0.930 . S
C1584 C1585 1.367 . S
C1584 C1592 1.378 . S
C1585 C1584 1.367 . S
C1585 C1593 1.433 . S
C1586 H1582 0.929 . S
C1586 C1588 1.378 . S
C1586 C1590 1.350 . S
C1587 C1590 1.463 . S
C1587 C1592 1.350 . S
C1587 N1595 1.427 . S
C1588 H1579 0.930 . S
C1588 C1586 1.378 . S
C1588 C1589 1.367 . S
C1589 C1588 1.367 . S
C1589 C1591 1.433 . S
C1590 C1586 1.350 . S
C1590 C1587 1.463 . S
C1590 N1594 1.427 . S
C1591 H1581 0.929 . S
C1591 C1589 1.433 . S
C1591 N1594 1.384 . S
C1592 H1583 0.929 . S
C1592 C1584 1.378 . S
C1592 C1587 1.350 . S
C1593 H1580 0.929 . S
C1593 C1585 1.433 . S
C1593 N1595 1.384 . S
N1594 C1590 1.427 . S
N1594 C1591 1.384 . S
N1595 C1587 1.427 . S
N1595 C1593 1.384 . S
H1596 C1602 0.930 . S
H1597 C1606 0.930 . S
H1598 C1611 0.929 . S
H1599 C1609 0.929 . S
H1600 C1604 0.929 . S
H1601 C1610 0.929 . S
C1602 H1596 0.930 . S
C1602 C1603 1.367 . S
C1602 C1610 1.378 . S
C1603 C1602 1.367 . S
C1603 C1611 1.433 . S
C1604 H1600 0.929 . S
C1604 C1606 1.378 . S
C1604 C1608 1.350 . S
C1605 C1608 1.463 . S
C1605 C1610 1.350 . S
C1605 N1613 1.427 . S
C1606 H1597 0.930 . S
C1606 C1604 1.378 . S
C1606 C1607 1.367 . S
C1607 C1606 1.367 . S
C1607 C1609 1.433 . S
C1608 C1604 1.350 . S
C1608 C1605 1.463 . S
C1608 N1612 1.427 . S
C1609 H1599 0.929 . S
C1609 C1607 1.433 . S
C1609 N1612 1.384 . S
C1610 H1601 0.929 . S
C1610 C1602 1.378 . S
C1610 C1605 1.350 . S
C1611 H1598 0.929 . S
C1611 C1603 1.433 . S
C1611 N1613 1.384 . S
N1612 C1608 1.427 . S
N1612 C1609 1.384 . S
N1613 C1605 1.427 . S
N1613 C1611 1.384 . S
H1614 C1620 0.930 . S
H1615 C1624 0.930 . S
H1616 C1629 0.929 . S
H1617 C1627 0.929 . S
H1618 C1622 0.929 . S
H1619 C1628 0.929 . S
C1620 H1614 0.930 . S
C1620 C1621 1.367 . S
C1620 C1628 1.378 . S
C1621 C1620 1.367 . S
C1621 C1629 1.433 . S
C1622 H1618 0.929 . S
C1622 C1624 1.378 . S
C1622 C1626 1.350 . S
C1623 C1626 1.463 . S
C1623 C1628 1.350 . S
C1623 N1631 1.427 . S
C1624 H1615 0.930 . S
C1624 C1622 1.378 . S
C1624 C1625 1.367 . S
C1625 C1624 1.367 . S
C1625 C1627 1.433 . S
C1626 C1622 1.350 . S
C1626 C1623 1.463 . S
C1626 N1630 1.427 . S
C1627 H1617 0.929 . S
C1627 C1625 1.433 . S
C1627 N1630 1.384 . S
C1628 H1619 0.929 . S
C1628 C1620 1.378 . S
C1628 C1623 1.350 . S
C1629 H1616 0.929 . S
C1629 C1621 1.433 . S
C1629 N1631 1.384 . S
N1630 C1626 1.427 . S
N1630 C1627 1.384 . S
N1631 C1623 1.427 . S
N1631 C1629 1.384 . S
H1632 C1638 0.930 . S
H1633 C1642 0.930 . S
H1634 C1647 0.929 . S
H1635 C1645 0.929 . S
H1636 C1640 0.929 . S
H1637 C1646 0.929 . S
C1638 H1632 0.930 . S
C1638 C1639 1.367 . S
C1638 C1646 1.378 . S
C1639 C1638 1.367 . S
C1639 C1647 1.433 . S
C1640 H1636 0.929 . S
C1640 C1642 1.378 . S
C1640 C1644 1.350 . S
C1641 C1644 1.463 . S
C1641 C1646 1.350 . S
C1641 N1649 1.427 . S
C1642 H1633 0.930 . S
C1642 C1640 1.378 . S
C1642 C1643 1.367 . S
C1643 C1642 1.367 . S
C1643 C1645 1.433 . S
C1644 C1640 1.350 . S
C1644 C1641 1.463 . S
C1644 N1648 1.427 . S
C1645 H1635 0.929 . S
C1645 C1643 1.433 . S
C1645 N1648 1.384 . S
C1646 H1637 0.929 . S
C1646 C1638 1.378 . S
C1646 C1641 1.350 . S
C1647 H1634 0.929 . S
C1647 C1639 1.433 . S
C1647 N1649 1.384 . S
N1648 C1644 1.427 . S
N1648 C1645 1.384 . S
N1649 C1641 1.427 . S
N1649 C1647 1.384 . S
H1650 C1656 0.930 . S
H1651 C1660 0.930 . S
H1652 C1665 0.929 . S
H1653 C1663 0.929 . S
H1654 C1658 0.929 . S
H1655 C1664 0.929 . S
C1656 H1650 0.930 . S
C1656 C1657 1.367 . S
C1656 C1664 1.378 . S
C1657 C1656 1.367 . S
C1657 C1665 1.433 . S
C1658 H1654 0.929 . S
C1658 C1660 1.378 . S
C1658 C1662 1.350 . S
C1659 C1662 1.463 . S
C1659 C1664 1.350 . S
C1659 N1667 1.427 . S
C1660 H1651 0.930 . S
C1660 C1658 1.378 . S
C1660 C1661 1.367 . S
C1661 C1660 1.367 . S
C1661 C1663 1.433 . S
C1662 C1658 1.350 . S
C1662 C1659 1.463 . S
C1662 N1666 1.427 . S
C1663 H1653 0.929 . S
C1663 C1661 1.433 . S
C1663 N1666 1.384 . S
C1664 H1655 0.929 . S
C1664 C1656 1.378 . S
C1664 C1659 1.350 . S
C1665 H1652 0.929 . S
C1665 C1657 1.433 . S
C1665 N1667 1.384 . S
N1666 C1662 1.427 . S
N1666 C1663 1.384 . S
N1667 C1659 1.427 . S
N1667 C1665 1.384 . S
H1668 C1674 0.930 . S
H1669 C1678 0.930 . S
H1670 C1683 0.929 . S
H1671 C1681 0.929 . S
H1672 C1676 0.929 . S
H1673 C1682 0.929 . S
C1674 H1668 0.930 . S
C1674 C1675 1.367 . S
C1674 C1682 1.378 . S
C1675 C1674 1.367 . S
C1675 C1683 1.433 . S
C1676 H1672 0.929 . S
C1676 C1678 1.378 . S
C1676 C1680 1.350 . S
C1677 C1680 1.463 . S
C1677 C1682 1.350 . S
C1677 N1685 1.427 . S
C1678 H1669 0.930 . S
C1678 C1676 1.378 . S
C1678 C1679 1.367 . S
C1679 C1678 1.367 . S
C1679 C1681 1.433 . S
C1680 C1676 1.350 . S
C1680 C1677 1.463 . S
C1680 N1684 1.427 . S
C1681 H1671 0.929 . S
C1681 C1679 1.433 . S
C1681 N1684 1.384 . S
C1682 H1673 0.929 . S
C1682 C1674 1.378 . S
C1682 C1677 1.350 . S
C1683 H1670 0.929 . S
C1683 C1675 1.433 . S
C1683 N1685 1.384 . S
N1684 C1680 1.427 . S
N1684 C1681 1.384 . S
N1685 C1677 1.427 . S
N1685 C1683 1.384 . S
H1686 C1692 0.930 . S
H1687 C1696 0.930 . S
H1688 C1701 0.929 . S
H1689 C1699 0.929 . S
H1690 C1694 0.929 . S
H1691 C1700 0.929 . S
C1692 H1686 0.930 . S
C1692 C1693 1.367 . S
C1692 C1700 1.378 . S
C1693 C1692 1.367 . S
C1693 C1701 1.433 . S
C1694 H1690 0.929 . S
C1694 C1696 1.378 . S
C1694 C1698 1.350 . S
C1695 C1698 1.463 . S
C1695 C1700 1.350 . S
C1695 N1703 1.427 . S
C1696 H1687 0.930 . S
C1696 C1694 1.378 . S
C1696 C1697 1.367 . S
C1697 C1696 1.367 . S
C1697 C1699 1.433 . S
C1698 C1694 1.350 . S
C1698 C1695 1.463 . S
C1698 N1702 1.427 . S
C1699 H1689 0.929 . S
C1699 C1697 1.433 . S
C1699 N1702 1.384 . S
C1700 H1691 0.929 . S
C1700 C1692 1.378 . S
C1700 C1695 1.350 . S
C1701 H1688 0.929 . S
C1701 C1693 1.433 . S
C1701 N1703 1.384 . S
N1702 C1698 1.427 . S
N1702 C1699 1.384 . S
N1703 C1695 1.427 . S
N1703 C1701 1.384 . S
H1704 C1710 0.930 . S
H1705 C1714 0.930 . S
H1706 C1719 0.929 . S
H1707 C1717 0.929 . S
H1708 C1712 0.929 . S
H1709 C1718 0.929 . S
C1710 H1704 0.930 . S
C1710 C1711 1.367 . S
C1710 C1718 1.378 . S
C1711 C1710 1.367 . S
C1711 C1719 1.433 . S
C1712 H1708 0.929 . S
C1712 C1714 1.378 . S
C1712 C1716 1.350 . S
C1713 C1716 1.463 . S
C1713 C1718 1.350 . S
C1713 N1721 1.427 . S
C1714 H1705 0.930 . S
C1714 C1712 1.378 . S
C1714 C1715 1.367 . S
C1715 C1714 1.367 . S
C1715 C1717 1.433 . S
C1716 C1712 1.350 . S
C1716 C1713 1.463 . S
C1716 N1720 1.427 . S
C1717 H1707 0.929 . S
C1717 C1715 1.433 . S
C1717 N1720 1.384 . S
C1718 H1709 0.929 . S
C1718 C1710 1.378 . S
C1718 C1713 1.350 . S
C1719 H1706 0.929 . S
C1719 C1711 1.433 . S
C1719 N1721 1.384 . S
N1720 C1716 1.427 . S
N1720 C1717 1.384 . S
N1721 C1713 1.427 . S
N1721 C1719 1.384 . S
H1722 C1728 0.930 . S
H1723 C1732 0.930 . S
H1724 C1737 0.929 . S
H1725 C1735 0.929 . S
H1726 C1730 0.929 . S
H1727 C1736 0.929 . S
C1728 H1722 0.930 . S
C1728 C1729 1.367 . S
C1728 C1736 1.378 . S
C1729 C1728 1.367 . S
C1729 C1737 1.433 . S
C1730 H1726 0.929 . S
C1730 C1732 1.378 . S
C1730 C1734 1.350 . S
C1731 C1734 1.463 . S
C1731 C1736 1.350 . S
C1731 N1739 1.427 . S
C1732 H1723 0.930 . S
C1732 C1730 1.378 . S
C1732 C1733 1.367 . S
C1733 C1732 1.367 . S
C1733 C1735 1.433 . S
C1734 C1730 1.350 . S
C1734 C1731 1.463 . S
C1734 N1738 1.427 . S
C1735 H1725 0.929 . S
C1735 C1733 1.433 . S
C1735 N1738 1.384 . S
C1736 H1727 0.929 . S
C1736 C1728 1.378 . S
C1736 C1731 1.350 . S
C1737 H1724 0.929 . S
C1737 C1729 1.433 . S
C1737 N1739 1.384 . S
N1738 C1734 1.427 . S
N1738 C1735 1.384 . S
N1739 C1731 1.427 . S
N1739 C1737 1.384 . S
H1740 C1746 0.930 . S
H1741 C1750 0.930 . S
H1742 C1755 0.929 . S
H1743 C1753 0.929 . S
H1744 C1748 0.929 . S
H1745 C1754 0.929 . S
C1746 H1740 0.930 . S
C1746 C1747 1.367 . S
C1746 C1754 1.378 . S
C1747 C1746 1.367 . S
C1747 C1755 1.433 . S
C1748 H1744 0.929 . S
C1748 C1750 1.378 . S
C1748 C1752 1.350 . S
C1749 C1752 1.463 . S
C1749 C1754 1.350 . S
C1749 N1757 1.427 . S
C1750 H1741 0.930 . S
C1750 C1748 1.378 . S
C1750 C1751 1.367 . S
C1751 C1750 1.367 . S
C1751 C1753 1.433 . S
C1752 C1748 1.350 . S
C1752 C1749 1.463 . S
C1752 N1756 1.427 . S
C1753 H1743 0.929 . S
C1753 C1751 1.433 . S
C1753 N1756 1.384 . S
C1754 H1745 0.929 . S
C1754 C1746 1.378 . S
C1754 C1749 1.350 . S
C1755 H1742 0.929 . S
C1755 C1747 1.433 . S
C1755 N1757 1.384 . S
N1756 C1752 1.427 . S
N1756 C1753 1.384 . S
N1757 C1749 1.427 . S
N1757 C1755 1.384 . S
H1758 C1764 0.930 . S
H1759 C1768 0.930 . S
H1760 C1773 0.929 . S
H1761 C1771 0.929 . S
H1762 C1766 0.929 . S
H1763 C1772 0.929 . S
C1764 H1758 0.930 . S
C1764 C1765 1.367 . S
C1764 C1772 1.378 . S
C1765 C1764 1.367 . S
C1765 C1773 1.433 . S
C1766 H1762 0.929 . S
C1766 C1768 1.378 . S
C1766 C1770 1.350 . S
C1767 C1770 1.463 . S
C1767 C1772 1.350 . S
C1767 N1775 1.427 . S
C1768 H1759 0.930 . S
C1768 C1766 1.378 . S
C1768 C1769 1.367 . S
C1769 C1768 1.367 . S
C1769 C1771 1.433 . S
C1770 C1766 1.350 . S
C1770 C1767 1.463 . S
C1770 N1774 1.427 . S
C1771 H1761 0.929 . S
C1771 C1769 1.433 . S
C1771 N1774 1.384 . S
C1772 H1763 0.929 . S
C1772 C1764 1.378 . S
C1772 C1767 1.350 . S
C1773 H1760 0.929 . S
C1773 C1765 1.433 . S
C1773 N1775 1.384 . S
N1774 C1770 1.427 . S
N1774 C1771 1.384 . S
N1775 C1767 1.427 . S
N1775 C1773 1.384 . S
H1776 C1782 0.930 . S
H1777 C1786 0.930 . S
H1778 C1791 0.929 . S
H1779 C1789 0.929 . S
H1780 C1784 0.929 . S
H1781 C1790 0.929 . S
C1782 H1776 0.930 . S
C1782 C1783 1.367 . S
C1782 C1790 1.378 . S
C1783 C1782 1.367 . S
C1783 C1791 1.433 . S
C1784 H1780 0.929 . S
C1784 C1786 1.378 . S
C1784 C1788 1.350 . S
C1785 C1788 1.463 . S
C1785 C1790 1.350 . S
C1785 N1793 1.427 . S
C1786 H1777 0.930 . S
C1786 C1784 1.378 . S
C1786 C1787 1.367 . S
C1787 C1786 1.367 . S
C1787 C1789 1.433 . S
C1788 C1784 1.350 . S
C1788 C1785 1.463 . S
C1788 N1792 1.427 . S
C1789 H1779 0.929 . S
C1789 C1787 1.433 . S
C1789 N1792 1.384 . S
C1790 H1781 0.929 . S
C1790 C1782 1.378 . S
C1790 C1785 1.350 . S
C1791 H1778 0.929 . S
C1791 C1783 1.433 . S
C1791 N1793 1.384 . S
N1792 C1788 1.427 . S
N1792 C1789 1.384 . S
N1793 C1785 1.427 . S
N1793 C1791 1.384 . S
H1794 C1800 0.930 . S
H1795 C1804 0.930 . S
H1796 C1809 0.929 . S
H1797 C1807 0.929 . S
H1798 C1802 0.929 . S
H1799 C1808 0.929 . S
C1800 H1794 0.930 . S
C1800 C1801 1.367 . S
C1800 C1808 1.378 . S
C1801 C1800 1.367 . S
C1801 C1809 1.433 . S
C1802 H1798 0.929 . S
C1802 C1804 1.378 . S
C1802 C1806 1.350 . S
C1803 C1806 1.463 . S
C1803 C1808 1.350 . S
C1803 N1811 1.427 . S
C1804 H1795 0.930 . S
C1804 C1802 1.378 . S
C1804 C1805 1.367 . S
C1805 C1804 1.367 . S
C1805 C1807 1.433 . S
C1806 C1802 1.350 . S
C1806 C1803 1.463 . S
C1806 N1810 1.427 . S
C1807 H1797 0.929 . S
C1807 C1805 1.433 . S
C1807 N1810 1.384 . S
C1808 H1799 0.929 . S
C1808 C1800 1.378 . S
C1808 C1803 1.350 . S
C1809 H1796 0.929 . S
C1809 C1801 1.433 . S
C1809 N1811 1.384 . S
N1810 C1806 1.427 . S
N1810 C1807 1.384 . S
N1811 C1803 1.427 . S
N1811 C1809 1.384 . S
H1812 C1818 0.930 . S
H1813 C1822 0.930 . S
H1814 C1827 0.929 . S
H1815 C1825 0.929 . S
H1816 C1820 0.929 . S
H1817 C1826 0.929 . S
C1818 H1812 0.930 . S
C1818 C1819 1.367 . S
C1818 C1826 1.378 . S
C1819 C1818 1.367 . S
C1819 C1827 1.433 . S
C1820 H1816 0.929 . S
C1820 C1822 1.378 . S
C1820 C1824 1.350 . S
C1821 C1824 1.463 . S
C1821 C1826 1.350 . S
C1821 N1829 1.427 . S
C1822 H1813 0.930 . S
C1822 C1820 1.378 . S
C1822 C1823 1.367 . S
C1823 C1822 1.367 . S
C1823 C1825 1.433 . S
C1824 C1820 1.350 . S
C1824 C1821 1.463 . S
C1824 N1828 1.427 . S
C1825 H1815 0.929 . S
C1825 C1823 1.433 . S
C1825 N1828 1.384 . S
C1826 H1817 0.929 . S
C1826 C1818 1.378 . S
C1826 C1821 1.350 . S
C1827 H1814 0.929 . S
C1827 C1819 1.433 . S
C1827 N1829 1.384 . S
N1828 C1824 1.427 . S
N1828 C1825 1.384 . S
N1829 C1821 1.427 . S
N1829 C1827 1.384 . S
H1830 C1836 0.930 . S
H1831 C1840 0.930 . S
H1832 C1845 0.929 . S
H1833 C1843 0.929 . S
H1834 C1838 0.929 . S
H1835 C1844 0.929 . S
C1836 H1830 0.930 . S
C1836 C1837 1.367 . S
C1836 C1844 1.378 . S
C1837 C1836 1.367 . S
C1837 C1845 1.433 . S
C1838 H1834 0.929 . S
C1838 C1840 1.378 . S
C1838 C1842 1.350 . S
C1839 C1842 1.463 . S
C1839 C1844 1.350 . S
C1839 N1847 1.427 . S
C1840 H1831 0.930 . S
C1840 C1838 1.378 . S
C1840 C1841 1.367 . S
C1841 C1840 1.367 . S
C1841 C1843 1.433 . S
C1842 C1838 1.350 . S
C1842 C1839 1.463 . S
C1842 N1846 1.427 . S
C1843 H1833 0.929 . S
C1843 C1841 1.433 . S
C1843 N1846 1.384 . S
C1844 H1835 0.929 . S
C1844 C1836 1.378 . S
C1844 C1839 1.350 . S
C1845 H1832 0.929 . S
C1845 C1837 1.433 . S
C1845 N1847 1.384 . S
N1846 C1842 1.427 . S
N1846 C1843 1.384 . S
N1847 C1839 1.427 . S
N1847 C1845 1.384 . S
H1848 C1854 0.930 . S
H1849 C1858 0.930 . S
H1850 C1863 0.929 . S
H1851 C1861 0.929 . S
H1852 C1856 0.929 . S
H1853 C1862 0.929 . S
C1854 H1848 0.930 . S
C1854 C1855 1.367 . S
C1854 C1862 1.378 . S
C1855 C1854 1.367 . S
C1855 C1863 1.433 . S
C1856 H1852 0.929 . S
C1856 C1858 1.378 . S
C1856 C1860 1.350 . S
C1857 C1860 1.463 . S
C1857 C1862 1.350 . S
C1857 N1865 1.427 . S
C1858 H1849 0.930 . S
C1858 C1856 1.378 . S
C1858 C1859 1.367 . S
C1859 C1858 1.367 . S
C1859 C1861 1.433 . S
C1860 C1856 1.350 . S
C1860 C1857 1.463 . S
C1860 N1864 1.427 . S
C1861 H1851 0.929 . S
C1861 C1859 1.433 . S
C1861 N1864 1.384 . S
C1862 H1853 0.929 . S
C1862 C1854 1.378 . S
C1862 C1857 1.350 . S
C1863 H1850 0.929 . S
C1863 C1855 1.433 . S
C1863 N1865 1.384 . S
N1864 C1860 1.427 . S
N1864 C1861 1.384 . S
N1865 C1857 1.427 . S
N1865 C1863 1.384 . S
H1866 C1872 0.930 . S
H1867 C1876 0.930 . S
H1868 C1881 0.929 . S
H1869 C1879 0.929 . S
H1870 C1874 0.929 . S
H1871 C1880 0.929 . S
C1872 H1866 0.930 . S
C1872 C1873 1.367 . S
C1872 C1880 1.378 . S
C1873 C1872 1.367 . S
C1873 C1881 1.433 . S
C1874 H1870 0.929 . S
C1874 C1876 1.378 . S
C1874 C1878 1.350 . S
C1875 C1878 1.463 . S
C1875 C1880 1.350 . S
C1875 N1883 1.427 . S
C1876 H1867 0.930 . S
C1876 C1874 1.378 . S
C1876 C1877 1.367 . S
C1877 C1876 1.367 . S
C1877 C1879 1.433 . S
C1878 C1874 1.350 . S
C1878 C1875 1.463 . S
C1878 N1882 1.427 . S
C1879 H1869 0.929 . S
C1879 C1877 1.433 . S
C1879 N1882 1.384 . S
C1880 H1871 0.929 . S
C1880 C1872 1.378 . S
C1880 C1875 1.350 . S
C1881 H1868 0.929 . S
C1881 C1873 1.433 . S
C1881 N1883 1.384 . S
N1882 C1878 1.427 . S
N1882 C1879 1.384 . S
N1883 C1875 1.427 . S
N1883 C1881 1.384 . S
H1884 C1890 0.930 . S
H1885 C1894 0.930 . S
H1886 C1899 0.929 . S
H1887 C1897 0.929 . S
H1888 C1892 0.929 . S
H1889 C1898 0.929 . S
C1890 H1884 0.930 . S
C1890 C1891 1.367 . S
C1890 C1898 1.378 . S
C1891 C1890 1.367 . S
C1891 C1899 1.433 . S
C1892 H1888 0.929 . S
C1892 C1894 1.378 . S
C1892 C1896 1.350 . S
C1893 C1896 1.463 . S
C1893 C1898 1.350 . S
C1893 N1901 1.427 . S
C1894 H1885 0.930 . S
C1894 C1892 1.378 . S
C1894 C1895 1.367 . S
C1895 C1894 1.367 . S
C1895 C1897 1.433 . S
C1896 C1892 1.350 . S
C1896 C1893 1.463 . S
C1896 N1900 1.427 . S
C1897 H1887 0.929 . S
C1897 C1895 1.433 . S
C1897 N1900 1.384 . S
C1898 H1889 0.929 . S
C1898 C1890 1.378 . S
C1898 C1893 1.350 . S
C1899 H1886 0.929 . S
C1899 C1891 1.433 . S
C1899 N1901 1.384 . S
N1900 C1896 1.427 . S
N1900 C1897 1.384 . S
N1901 C1893 1.427 . S
N1901 C1899 1.384 . S
H1902 C1908 0.930 . S
H1903 C1912 0.930 . S
H1904 C1917 0.929 . S
H1905 C1915 0.929 . S
H1906 C1910 0.929 . S
H1907 C1916 0.929 . S
C1908 H1902 0.930 . S
C1908 C1909 1.367 . S
C1908 C1916 1.378 . S
C1909 C1908 1.367 . S
C1909 C1917 1.433 . S
C1910 H1906 0.929 . S
C1910 C1912 1.378 . S
C1910 C1914 1.350 . S
C1911 C1914 1.463 . S
C1911 C1916 1.350 . S
C1911 N1919 1.427 . S
C1912 H1903 0.930 . S
C1912 C1910 1.378 . S
C1912 C1913 1.367 . S
C1913 C1912 1.367 . S
C1913 C1915 1.433 . S
C1914 C1910 1.350 . S
C1914 C1911 1.463 . S
C1914 N1918 1.427 . S
C1915 H1905 0.929 . S
C1915 C1913 1.433 . S
C1915 N1918 1.384 . S
C1916 H1907 0.929 . S
C1916 C1908 1.378 . S
C1916 C1911 1.350 . S
C1917 H1904 0.929 . S
C1917 C1909 1.433 . S
C1917 N1919 1.384 . S
N1918 C1914 1.427 . S
N1918 C1915 1.384 . S
N1919 C1911 1.427 . S
N1919 C1917 1.384 . S
H1920 C1926 0.930 . S
H1921 C1930 0.930 . S
H1922 C1935 0.929 . S
H1923 C1933 0.929 . S
H1924 C1928 0.929 . S
H1925 C1934 0.929 . S
C1926 H1920 0.930 . S
C1926 C1927 1.367 . S
C1926 C1934 1.378 . S
C1927 C1926 1.367 . S
C1927 C1935 1.433 . S
C1928 H1924 0.929 . S
C1928 C1930 1.378 . S
C1928 C1932 1.350 . S
C1929 C1932 1.463 . S
C1929 C1934 1.350 . S
C1929 N1937 1.427 . S
C1930 H1921 0.930 . S
C1930 C1928 1.378 . S
C1930 C1931 1.367 . S
C1931 C1930 1.367 . S
C1931 C1933 1.433 . S
C1932 C1928 1.350 . S
C1932 C1929 1.463 . S
C1932 N1936 1.427 . S
C1933 H1923 0.929 . S
C1933 C1931 1.433 . S
C1933 N1936 1.384 . S
C1934 H1925 0.929 . S
C1934 C1926 1.378 . S
C1934 C1929 1.350 . S
C1935 H1922 0.929 . S
C1935 C1927 1.433 . S
C1935 N1937 1.384 . S
N1936 C1932 1.427 . S
N1936 C1933 1.384 . S
N1937 C1929 1.427 . S
N1937 C1935 1.384 . S
H1938 C1944 0.930 . S
H1939 C1948 0.930 . S
H1940 C1953 0.929 . S
H1941 C1951 0.929 . S
H1942 C1946 0.929 . S
H1943 C1952 0.929 . S
C1944 H1938 0.930 . S
C1944 C1945 1.367 . S
C1944 C1952 1.378 . S
C1945 C1944 1.367 . S
C1945 C1953 1.433 . S
C1946 H1942 0.929 . S
C1946 C1948 1.378 . S
C1946 C1950 1.350 . S
C1947 C1950 1.463 . S
C1947 C1952 1.350 . S
C1947 N1955 1.427 . S
C1948 H1939 0.930 . S
C1948 C1946 1.378 . S
C1948 C1949 1.367 . S
C1949 C1948 1.367 . S
C1949 C1951 1.433 . S
C1950 C1946 1.350 . S
C1950 C1947 1.463 . S
C1950 N1954 1.427 . S
C1951 H1941 0.929 . S
C1951 C1949 1.433 . S
C1951 N1954 1.384 . S
C1952 H1943 0.929 . S
C1952 C1944 1.378 . S
C1952 C1947 1.350 . S
C1953 H1940 0.929 . S
C1953 C1945 1.433 . S
C1953 N1955 1.384 . S
N1954 C1950 1.427 . S
N1954 C1951 1.384 . S
N1955 C1947 1.427 . S
N1955 C1953 1.384 . S
H1956 C1962 0.930 . S
H1957 C1966 0.930 . S
H1958 C1971 0.929 . S
H1959 C1969 0.929 . S
H1960 C1964 0.929 . S
H1961 C1970 0.929 . S
C1962 H1956 0.930 . S
C1962 C1963 1.367 . S
C1962 C1970 1.378 . S
C1963 C1962 1.367 . S
C1963 C1971 1.433 . S
C1964 H1960 0.929 . S
C1964 C1966 1.378 . S
C1964 C1968 1.350 . S
C1965 C1968 1.463 . S
C1965 C1970 1.350 . S
C1965 N1973 1.427 . S
C1966 H1957 0.930 . S
C1966 C1964 1.378 . S
C1966 C1967 1.367 . S
C1967 C1966 1.367 . S
C1967 C1969 1.433 . S
C1968 C1964 1.350 . S
C1968 C1965 1.463 . S
C1968 N1972 1.427 . S
C1969 H1959 0.929 . S
C1969 C1967 1.433 . S
C1969 N1972 1.384 . S
C1970 H1961 0.929 . S
C1970 C1962 1.378 . S
C1970 C1965 1.350 . S
C1971 H1958 0.929 . S
C1971 C1963 1.433 . S
C1971 N1973 1.384 . S
N1972 C1968 1.427 . S
N1972 C1969 1.384 . S
N1973 C1965 1.427 . S
N1973 C1971 1.384 . S
H1974 C1980 0.930 . S
H1975 C1984 0.930 . S
H1976 C1989 0.929 . S
H1977 C1987 0.929 . S
H1978 C1982 0.929 . S
H1979 C1988 0.929 . S
C1980 H1974 0.930 . S
C1980 C1981 1.367 . S
C1980 C1988 1.378 . S
C1981 C1980 1.367 . S
C1981 C1989 1.433 . S
C1982 H1978 0.929 . S
C1982 C1984 1.378 . S
C1982 C1986 1.350 . S
C1983 C1986 1.463 . S
C1983 C1988 1.350 . S
C1983 N1991 1.427 . S
C1984 H1975 0.930 . S
C1984 C1982 1.378 . S
C1984 C1985 1.367 . S
C1985 C1984 1.367 . S
C1985 C1987 1.433 . S
C1986 C1982 1.350 . S
C1986 C1983 1.463 . S
C1986 N1990 1.427 . S
C1987 H1977 0.929 . S
C1987 C1985 1.433 . S
C1987 N1990 1.384 . S
C1988 H1979 0.929 . S
C1988 C1980 1.378 . S
C1988 C1983 1.350 . S
C1989 H1976 0.929 . S
C1989 C1981 1.433 . S
C1989 N1991 1.384 . S
N1990 C1986 1.427 . S
N1990 C1987 1.384 . S
N1991 C1983 1.427 . S
N1991 C1989 1.384 . S
H1992 C1998 0.930 . S
H1993 C2002 0.930 . S
H1994 C2007 0.929 . S
H1995 C2005 0.929 . S
H1996 C2000 0.929 . S
H1997 C2006 0.929 . S
C1998 H1992 0.930 . S
C1998 C1999 1.367 . S
C1998 C2006 1.378 . S
C1999 C1998 1.367 . S
C1999 C2007 1.433 . S
C2000 H1996 0.929 . S
C2000 C2002 1.378 . S
C2000 C2004 1.350 . S
C2001 C2004 1.463 . S
C2001 C2006 1.350 . S
C2001 N2009 1.427 . S
C2002 H1993 0.930 . S
C2002 C2000 1.378 . S
C2002 C2003 1.367 . S
C2003 C2002 1.367 . S
C2003 C2005 1.433 . S
C2004 C2000 1.350 . S
C2004 C2001 1.463 . S
C2004 N2008 1.427 . S
C2005 H1995 0.929 . S
C2005 C2003 1.433 . S
C2005 N2008 1.384 . S
C2006 H1997 0.929 . S
C2006 C1998 1.378 . S
C2006 C2001 1.350 . S
C2007 H1994 0.929 . S
C2007 C1999 1.433 . S
C2007 N2009 1.384 . S
N2008 C2004 1.427 . S
N2008 C2005 1.384 . S
N2009 C2001 1.427 . S
N2009 C2007 1.384 . S
H2010 C2016 0.930 . S
H2011 C2020 0.930 . S
H2012 C2025 0.929 . S
H2013 C2023 0.929 . S
H2014 C2018 0.929 . S
H2015 C2024 0.929 . S
C2016 H2010 0.930 . S
C2016 C2017 1.367 . S
C2016 C2024 1.378 . S
C2017 C2016 1.367 . S
C2017 C2025 1.433 . S
C2018 H2014 0.929 . S
C2018 C2020 1.378 . S
C2018 C2022 1.350 . S
C2019 C2022 1.463 . S
C2019 C2024 1.350 . S
C2019 N2027 1.427 . S
C2020 H2011 0.930 . S
C2020 C2018 1.378 . S
C2020 C2021 1.367 . S
C2021 C2020 1.367 . S
C2021 C2023 1.433 . S
C2022 C2018 1.350 . S
C2022 C2019 1.463 . S
C2022 N2026 1.427 . S
C2023 H2013 0.929 . S
C2023 C2021 1.433 . S
C2023 N2026 1.384 . S
C2024 H2015 0.929 . S
C2024 C2016 1.378 . S
C2024 C2019 1.350 . S
C2025 H2012 0.929 . S
C2025 C2017 1.433 . S
C2025 N2027 1.384 . S
N2026 C2022 1.427 . S
N2026 C2023 1.384 . S
N2027 C2019 1.427 . S
N2027 C2025 1.384 . S
H2028 C2034 0.930 . S
H2029 C2038 0.930 . S
H2030 C2043 0.929 . S
H2031 C2041 0.929 . S
H2032 C2036 0.929 . S
H2033 C2042 0.929 . S
C2034 H2028 0.930 . S
C2034 C2035 1.367 . S
C2034 C2042 1.378 . S
C2035 C2034 1.367 . S
C2035 C2043 1.433 . S
C2036 H2032 0.929 . S
C2036 C2038 1.378 . S
C2036 C2040 1.350 . S
C2037 C2040 1.463 . S
C2037 C2042 1.350 . S
C2037 N2045 1.427 . S
C2038 H2029 0.930 . S
C2038 C2036 1.378 . S
C2038 C2039 1.367 . S
C2039 C2038 1.367 . S
C2039 C2041 1.433 . S
C2040 C2036 1.350 . S
C2040 C2037 1.463 . S
C2040 N2044 1.427 . S
C2041 H2031 0.929 . S
C2041 C2039 1.433 . S
C2041 N2044 1.384 . S
C2042 H2033 0.929 . S
C2042 C2034 1.378 . S
C2042 C2037 1.350 . S
C2043 H2030 0.929 . S
C2043 C2035 1.433 . S
C2043 N2045 1.384 . S
N2044 C2040 1.427 . S
N2044 C2041 1.384 . S
N2045 C2037 1.427 . S
N2045 C2043 1.384 . S
H2046 C2052 0.930 . S
H2047 C2056 0.930 . S
H2048 C2061 0.929 . S
H2049 C2059 0.929 . S
H2050 C2054 0.929 . S
H2051 C2060 0.929 . S
C2052 H2046 0.930 . S
C2052 C2053 1.367 . S
C2052 C2060 1.378 . S
C2053 C2052 1.367 . S
C2053 C2061 1.433 . S
C2054 H2050 0.929 . S
C2054 C2056 1.378 . S
C2054 C2058 1.350 . S
C2055 C2058 1.463 . S
C2055 C2060 1.350 . S
C2055 N2063 1.427 . S
C2056 H2047 0.930 . S
C2056 C2054 1.378 . S
C2056 C2057 1.367 . S
C2057 C2056 1.367 . S
C2057 C2059 1.433 . S
C2058 C2054 1.350 . S
C2058 C2055 1.463 . S
C2058 N2062 1.427 . S
C2059 H2049 0.929 . S
C2059 C2057 1.433 . S
C2059 N2062 1.384 . S
C2060 H2051 0.929 . S
C2060 C2052 1.378 . S
C2060 C2055 1.350 . S
C2061 H2048 0.929 . S
C2061 C2053 1.433 . S
C2061 N2063 1.384 . S
N2062 C2058 1.427 . S
N2062 C2059 1.384 . S
N2063 C2055 1.427 . S
N2063 C2061 1.384 . S
H2064 C2070 0.930 . S
H2065 C2074 0.930 . S
H2066 C2079 0.929 . S
H2067 C2077 0.929 . S
H2068 C2072 0.929 . S
H2069 C2078 0.929 . S
C2070 H2064 0.930 . S
C2070 C2071 1.367 . S
C2070 C2078 1.378 . S
C2071 C2070 1.367 . S
C2071 C2079 1.433 . S
C2072 H2068 0.929 . S
C2072 C2074 1.378 . S
C2072 C2076 1.350 . S
C2073 C2076 1.463 . S
C2073 C2078 1.350 . S
C2073 N2081 1.427 . S
C2074 H2065 0.930 . S
C2074 C2072 1.378 . S
C2074 C2075 1.367 . S
C2075 C2074 1.367 . S
C2075 C2077 1.433 . S
C2076 C2072 1.350 . S
C2076 C2073 1.463 . S
C2076 N2080 1.427 . S
C2077 H2067 0.929 . S
C2077 C2075 1.433 . S
C2077 N2080 1.384 . S
C2078 H2069 0.929 . S
C2078 C2070 1.378 . S
C2078 C2073 1.350 . S
C2079 H2066 0.929 . S
C2079 C2071 1.433 . S
C2079 N2081 1.384 . S
N2080 C2076 1.427 . S
N2080 C2077 1.384 . S
N2081 C2073 1.427 . S
N2081 C2079 1.384 . S
H2082 C2088 0.930 . S
H2083 C2092 0.930 . S
H2084 C2097 0.929 . S
H2085 C2095 0.929 . S
H2086 C2090 0.929 . S
H2087 C2096 0.929 . S
C2088 H2082 0.930 . S
C2088 C2089 1.367 . S
C2088 C2096 1.378 . S
C2089 C2088 1.367 . S
C2089 C2097 1.433 . S
C2090 H2086 0.929 . S
C2090 C2092 1.378 . S
C2090 C2094 1.350 . S
C2091 C2094 1.463 . S
C2091 C2096 1.350 . S
C2091 N2099 1.427 . S
C2092 H2083 0.930 . S
C2092 C2090 1.378 . S
C2092 C2093 1.367 . S
C2093 C2092 1.367 . S
C2093 C2095 1.433 . S
C2094 C2090 1.350 . S
C2094 C2091 1.463 . S
C2094 N2098 1.427 . S
C2095 H2085 0.929 . S
C2095 C2093 1.433 . S
C2095 N2098 1.384 . S
C2096 H2087 0.929 . S
C2096 C2088 1.378 . S
C2096 C2091 1.350 . S
C2097 H2084 0.929 . S
C2097 C2089 1.433 . S
C2097 N2099 1.384 . S
N2098 C2094 1.427 . S
N2098 C2095 1.384 . S
N2099 C2091 1.427 . S
N2099 C2097 1.384 . S
H2100 C2106 0.930 . S
H2101 C2110 0.930 . S
H2102 C2115 0.929 . S
H2103 C2113 0.929 . S
H2104 C2108 0.929 . S
H2105 C2114 0.929 . S
C2106 H2100 0.930 . S
C2106 C2107 1.367 . S
C2106 C2114 1.378 . S
C2107 C2106 1.367 . S
C2107 C2115 1.433 . S
C2108 H2104 0.929 . S
C2108 C2110 1.378 . S
C2108 C2112 1.350 . S
C2109 C2112 1.463 . S
C2109 C2114 1.350 . S
C2109 N2117 1.427 . S
C2110 H2101 0.930 . S
C2110 C2108 1.378 . S
C2110 C2111 1.367 . S
C2111 C2110 1.367 . S
C2111 C2113 1.433 . S
C2112 C2108 1.350 . S
C2112 C2109 1.463 . S
C2112 N2116 1.427 . S
C2113 H2103 0.929 . S
C2113 C2111 1.433 . S
C2113 N2116 1.384 . S
C2114 H2105 0.929 . S
C2114 C2106 1.378 . S
C2114 C2109 1.350 . S
C2115 H2102 0.929 . S
C2115 C2107 1.433 . S
C2115 N2117 1.384 . S
N2116 C2112 1.427 . S
N2116 C2113 1.384 . S
N2117 C2109 1.427 . S
N2117 C2115 1.384 . S
H2118 C2124 0.930 . S
H2119 C2128 0.930 . S
H2120 C2133 0.929 . S
H2121 C2131 0.929 . S
H2122 C2126 0.929 . S
H2123 C2132 0.929 . S
C2124 H2118 0.930 . S
C2124 C2125 1.367 . S
C2124 C2132 1.378 . S
C2125 C2124 1.367 . S
C2125 C2133 1.433 . S
C2126 H2122 0.929 . S
C2126 C2128 1.378 . S
C2126 C2130 1.350 . S
C2127 C2130 1.463 . S
C2127 C2132 1.350 . S
C2127 N2135 1.427 . S
C2128 H2119 0.930 . S
C2128 C2126 1.378 . S
C2128 C2129 1.367 . S
C2129 C2128 1.367 . S
C2129 C2131 1.433 . S
C2130 C2126 1.350 . S
C2130 C2127 1.463 . S
C2130 N2134 1.427 . S
C2131 H2121 0.929 . S
C2131 C2129 1.433 . S
C2131 N2134 1.384 . S
C2132 H2123 0.929 . S
C2132 C2124 1.378 . S
C2132 C2127 1.350 . S
C2133 H2120 0.929 . S
C2133 C2125 1.433 . S
C2133 N2135 1.384 . S
N2134 C2130 1.427 . S
N2134 C2131 1.384 . S
N2135 C2127 1.427 . S
N2135 C2133 1.384 . S
H2136 C2142 0.930 . S
H2137 C2146 0.930 . S
H2138 C2151 0.929 . S
H2139 C2149 0.929 . S
H2140 C2144 0.929 . S
H2141 C2150 0.929 . S
C2142 H2136 0.930 . S
C2142 C2143 1.367 . S
C2142 C2150 1.378 . S
C2143 C2142 1.367 . S
C2143 C2151 1.433 . S
C2144 H2140 0.929 . S
C2144 C2146 1.378 . S
C2144 C2148 1.350 . S
C2145 C2148 1.463 . S
C2145 C2150 1.350 . S
C2145 N2153 1.427 . S
C2146 H2137 0.930 . S
C2146 C2144 1.378 . S
C2146 C2147 1.367 . S
C2147 C2146 1.367 . S
C2147 C2149 1.433 . S
C2148 C2144 1.350 . S
C2148 C2145 1.463 . S
C2148 N2152 1.427 . S
C2149 H2139 0.929 . S
C2149 C2147 1.433 . S
C2149 N2152 1.384 . S
C2150 H2141 0.929 . S
C2150 C2142 1.378 . S
C2150 C2145 1.350 . S
C2151 H2138 0.929 . S
C2151 C2143 1.433 . S
C2151 N2153 1.384 . S
N2152 C2148 1.427 . S
N2152 C2149 1.384 . S
N2153 C2145 1.427 . S
N2153 C2151 1.384 . S
H2154 C2160 0.930 . S
H2155 C2164 0.930 . S
H2156 C2169 0.929 . S
H2157 C2167 0.929 . S
H2158 C2162 0.929 . S
H2159 C2168 0.929 . S
C2160 H2154 0.930 . S
C2160 C2161 1.367 . S
C2160 C2168 1.378 . S
C2161 C2160 1.367 . S
C2161 C2169 1.433 . S
C2162 H2158 0.929 . S
C2162 C2164 1.378 . S
C2162 C2166 1.350 . S
C2163 C2166 1.463 . S
C2163 C2168 1.350 . S
C2163 N2171 1.427 . S
C2164 H2155 0.930 . S
C2164 C2162 1.378 . S
C2164 C2165 1.367 . S
C2165 C2164 1.367 . S
C2165 C2167 1.433 . S
C2166 C2162 1.350 . S
C2166 C2163 1.463 . S
C2166 N2170 1.427 . S
C2167 H2157 0.929 . S
C2167 C2165 1.433 . S
C2167 N2170 1.384 . S
C2168 H2159 0.929 . S
C2168 C2160 1.378 . S
C2168 C2163 1.350 . S
C2169 H2156 0.929 . S
C2169 C2161 1.433 . S
C2169 N2171 1.384 . S
N2170 C2166 1.427 . S
N2170 C2167 1.384 . S
N2171 C2163 1.427 . S
N2171 C2169 1.384 . S
H2172 C2178 0.930 . S
H2173 C2182 0.930 . S
H2174 C2187 0.929 . S
H2175 C2185 0.929 . S
H2176 C2180 0.929 . S
H2177 C2186 0.929 . S
C2178 H2172 0.930 . S
C2178 C2179 1.367 . S
C2178 C2186 1.378 . S
C2179 C2178 1.367 . S
C2179 C2187 1.433 . S
C2180 H2176 0.929 . S
C2180 C2182 1.378 . S
C2180 C2184 1.350 . S
C2181 C2184 1.463 . S
C2181 C2186 1.350 . S
C2181 N2189 1.427 . S
C2182 H2173 0.930 . S
C2182 C2180 1.378 . S
C2182 C2183 1.367 . S
C2183 C2182 1.367 . S
C2183 C2185 1.433 . S
C2184 C2180 1.350 . S
C2184 C2181 1.463 . S
C2184 N2188 1.427 . S
C2185 H2175 0.929 . S
C2185 C2183 1.433 . S
C2185 N2188 1.384 . S
C2186 H2177 0.929 . S
C2186 C2178 1.378 . S
C2186 C2181 1.350 . S
C2187 H2174 0.929 . S
C2187 C2179 1.433 . S
C2187 N2189 1.384 . S
N2188 C2184 1.427 . S
N2188 C2185 1.384 . S
N2189 C2181 1.427 . S
N2189 C2187 1.384 . S
H2190 C2196 0.930 . S
H2191 C2200 0.930 . S
H2192 C2205 0.929 . S
H2193 C2203 0.929 . S
H2194 C2198 0.929 . S
H2195 C2204 0.929 . S
C2196 H2190 0.930 . S
C2196 C2197 1.367 . S
C2196 C2204 1.378 . S
C2197 C2196 1.367 . S
C2197 C2205 1.433 . S
C2198 H2194 0.929 . S
C2198 C2200 1.378 . S
C2198 C2202 1.350 . S
C2199 C2202 1.463 . S
C2199 C2204 1.350 . S
C2199 N2207 1.427 . S
C2200 H2191 0.930 . S
C2200 C2198 1.378 . S
C2200 C2201 1.367 . S
C2201 C2200 1.367 . S
C2201 C2203 1.433 . S
C2202 C2198 1.350 . S
C2202 C2199 1.463 . S
C2202 N2206 1.427 . S
C2203 H2193 0.929 . S
C2203 C2201 1.433 . S
C2203 N2206 1.384 . S
C2204 H2195 0.929 . S
C2204 C2196 1.378 . S
C2204 C2199 1.350 . S
C2205 H2192 0.929 . S
C2205 C2197 1.433 . S
C2205 N2207 1.384 . S
N2206 C2202 1.427 . S
N2206 C2203 1.384 . S
N2207 C2199 1.427 . S
N2207 C2205 1.384 . S
H2208 C2214 0.930 . S
H2209 C2218 0.930 . S
H2210 C2223 0.929 . S
H2211 C2221 0.929 . S
H2212 C2216 0.929 . S
H2213 C2222 0.929 . S
C2214 H2208 0.930 . S
C2214 C2215 1.367 . S
C2214 C2222 1.378 . S
C2215 C2214 1.367 . S
C2215 C2223 1.433 . S
C2216 H2212 0.929 . S
C2216 C2218 1.378 . S
C2216 C2220 1.350 . S
C2217 C2220 1.463 . S
C2217 C2222 1.350 . S
C2217 N2225 1.427 . S
C2218 H2209 0.930 . S
C2218 C2216 1.378 . S
C2218 C2219 1.367 . S
C2219 C2218 1.367 . S
C2219 C2221 1.433 . S
C2220 C2216 1.350 . S
C2220 C2217 1.463 . S
C2220 N2224 1.427 . S
C2221 H2211 0.929 . S
C2221 C2219 1.433 . S
C2221 N2224 1.384 . S
C2222 H2213 0.929 . S
C2222 C2214 1.378 . S
C2222 C2217 1.350 . S
C2223 H2210 0.929 . S
C2223 C2215 1.433 . S
C2223 N2225 1.384 . S
N2224 C2220 1.427 . S
N2224 C2221 1.384 . S
N2225 C2217 1.427 . S
N2225 C2223 1.384 . S
H2226 C2232 0.930 . S
H2227 C2236 0.930 . S
H2228 C2241 0.929 . S
H2229 C2239 0.929 . S
H2230 C2234 0.929 . S
H2231 C2240 0.929 . S
C2232 H2226 0.930 . S
C2232 C2233 1.367 . S
C2232 C2240 1.378 . S
C2233 C2232 1.367 . S
C2233 C2241 1.433 . S
C2234 H2230 0.929 . S
C2234 C2236 1.378 . S
C2234 C2238 1.350 . S
C2235 C2238 1.463 . S
C2235 C2240 1.350 . S
C2235 N2243 1.427 . S
C2236 H2227 0.930 . S
C2236 C2234 1.378 . S
C2236 C2237 1.367 . S
C2237 C2236 1.367 . S
C2237 C2239 1.433 . S
C2238 C2234 1.350 . S
C2238 C2235 1.463 . S
C2238 N2242 1.427 . S
C2239 H2229 0.929 . S
C2239 C2237 1.433 . S
C2239 N2242 1.384 . S
C2240 H2231 0.929 . S
C2240 C2232 1.378 . S
C2240 C2235 1.350 . S
C2241 H2228 0.929 . S
C2241 C2233 1.433 . S
C2241 N2243 1.384 . S
N2242 C2238 1.427 . S
N2242 C2239 1.384 . S
N2243 C2235 1.427 . S
N2243 C2241 1.384 . S
H2244 C2250 0.930 . S
H2245 C2254 0.930 . S
H2246 C2259 0.929 . S
H2247 C2257 0.929 . S
H2248 C2252 0.929 . S
H2249 C2258 0.929 . S
C2250 H2244 0.930 . S
C2250 C2251 1.367 . S
C2250 C2258 1.378 . S
C2251 C2250 1.367 . S
C2251 C2259 1.433 . S
C2252 H2248 0.929 . S
C2252 C2254 1.378 . S
C2252 C2256 1.350 . S
C2253 C2256 1.463 . S
C2253 C2258 1.350 . S
C2253 N2261 1.427 . S
C2254 H2245 0.930 . S
C2254 C2252 1.378 . S
C2254 C2255 1.367 . S
C2255 C2254 1.367 . S
C2255 C2257 1.433 . S
C2256 C2252 1.350 . S
C2256 C2253 1.463 . S
C2256 N2260 1.427 . S
C2257 H2247 0.929 . S
C2257 C2255 1.433 . S
C2257 N2260 1.384 . S
C2258 H2249 0.929 . S
C2258 C2250 1.378 . S
C2258 C2253 1.350 . S
C2259 H2246 0.929 . S
C2259 C2251 1.433 . S
C2259 N2261 1.384 . S
N2260 C2256 1.427 . S
N2260 C2257 1.384 . S
N2261 C2253 1.427 . S
N2261 C2259 1.384 . S
H2262 C2268 0.930 . S
H2263 C2272 0.930 . S
H2264 C2277 0.929 . S
H2265 C2275 0.929 . S
H2266 C2270 0.929 . S
H2267 C2276 0.929 . S
C2268 H2262 0.930 . S
C2268 C2269 1.367 . S
C2268 C2276 1.378 . S
C2269 C2268 1.367 . S
C2269 C2277 1.433 . S
C2270 H2266 0.929 . S
C2270 C2272 1.378 . S
C2270 C2274 1.350 . S
C2271 C2274 1.463 . S
C2271 C2276 1.350 . S
C2271 N2279 1.427 . S
C2272 H2263 0.930 . S
C2272 C2270 1.378 . S
C2272 C2273 1.367 . S
C2273 C2272 1.367 . S
C2273 C2275 1.433 . S
C2274 C2270 1.350 . S
C2274 C2271 1.463 . S
C2274 N2278 1.427 . S
C2275 H2265 0.929 . S
C2275 C2273 1.433 . S
C2275 N2278 1.384 . S
C2276 H2267 0.929 . S
C2276 C2268 1.378 . S
C2276 C2271 1.350 . S
C2277 H2264 0.929 . S
C2277 C2269 1.433 . S
C2277 N2279 1.384 . S
N2278 C2274 1.427 . S
N2278 C2275 1.384 . S
N2279 C2271 1.427 . S
N2279 C2277 1.384 . S
H2280 C2286 0.930 . S
H2281 C2290 0.930 . S
H2282 C2295 0.929 . S
H2283 C2293 0.929 . S
H2284 C2288 0.929 . S
H2285 C2294 0.929 . S
C2286 H2280 0.930 . S
C2286 C2287 1.367 . S
C2286 C2294 1.378 . S
C2287 C2286 1.367 . S
C2287 C2295 1.433 . S
C2288 H2284 0.929 . S
C2288 C2290 1.378 . S
C2288 C2292 1.350 . S
C2289 C2292 1.463 . S
C2289 C2294 1.350 . S
C2289 N2297 1.427 . S
C2290 H2281 0.930 . S
C2290 C2288 1.378 . S
C2290 C2291 1.367 . S
C2291 C2290 1.367 . S
C2291 C2293 1.433 . S
C2292 C2288 1.350 . S
C2292 C2289 1.463 . S
C2292 N2296 1.427 . S
C2293 H2283 0.929 . S
C2293 C2291 1.433 . S
C2293 N2296 1.384 . S
C2294 H2285 0.929 . S
C2294 C2286 1.378 . S
C2294 C2289 1.350 . S
C2295 H2282 0.929 . S
C2295 C2287 1.433 . S
C2295 N2297 1.384 . S
N2296 C2292 1.427 . S
N2296 C2293 1.384 . S
N2297 C2289 1.427 . S
N2297 C2295 1.384 . S
H2298 C2304 0.930 . S
H2299 C2308 0.930 . S
H2300 C2313 0.929 . S
H2301 C2311 0.929 . S
H2302 C2306 0.929 . S
H2303 C2312 0.929 . S
C2304 H2298 0.930 . S
C2304 C2305 1.367 . S
C2304 C2312 1.378 . S
C2305 C2304 1.367 . S
C2305 C2313 1.433 . S
C2306 H2302 0.929 . S
C2306 C2308 1.378 . S
C2306 C2310 1.350 . S
C2307 C2310 1.463 . S
C2307 C2312 1.350 . S
C2307 N2315 1.427 . S
C2308 H2299 0.930 . S
C2308 C2306 1.378 . S
C2308 C2309 1.367 . S
C2309 C2308 1.367 . S
C2309 C2311 1.433 . S
C2310 C2306 1.350 . S
C2310 C2307 1.463 . S
C2310 N2314 1.427 . S
C2311 H2301 0.929 . S
C2311 C2309 1.433 . S
C2311 N2314 1.384 . S
C2312 H2303 0.929 . S
C2312 C2304 1.378 . S
C2312 C2307 1.350 . S
C2313 H2300 0.929 . S
C2313 C2305 1.433 . S
C2313 N2315 1.384 . S
N2314 C2310 1.427 . S
N2314 C2311 1.384 . S
N2315 C2307 1.427 . S
N2315 C2313 1.384 . S
H2316 C2322 0.930 . S
H2317 C2326 0.930 . S
H2318 C2331 0.929 . S
H2319 C2329 0.929 . S
H2320 C2324 0.929 . S
H2321 C2330 0.929 . S
C2322 H2316 0.930 . S
C2322 C2323 1.367 . S
C2322 C2330 1.378 . S
C2323 C2322 1.367 . S
C2323 C2331 1.433 . S
C2324 H2320 0.929 . S
C2324 C2326 1.378 . S
C2324 C2328 1.350 . S
C2325 C2328 1.463 . S
C2325 C2330 1.350 . S
C2325 N2333 1.427 . S
C2326 H2317 0.930 . S
C2326 C2324 1.378 . S
C2326 C2327 1.367 . S
C2327 C2326 1.367 . S
C2327 C2329 1.433 . S
C2328 C2324 1.350 . S
C2328 C2325 1.463 . S
C2328 N2332 1.427 . S
C2329 H2319 0.929 . S
C2329 C2327 1.433 . S
C2329 N2332 1.384 . S
C2330 H2321 0.929 . S
C2330 C2322 1.378 . S
C2330 C2325 1.350 . S
C2331 H2318 0.929 . S
C2331 C2323 1.433 . S
C2331 N2333 1.384 . S
N2332 C2328 1.427 . S
N2332 C2329 1.384 . S
N2333 C2325 1.427 . S
N2333 C2331 1.384 . S
H2334 C2340 0.930 . S
H2335 C2344 0.930 . S
H2336 C2349 0.929 . S
H2337 C2347 0.929 . S
H2338 C2342 0.929 . S
H2339 C2348 0.929 . S
C2340 H2334 0.930 . S
C2340 C2341 1.367 . S
C2340 C2348 1.378 . S
C2341 C2340 1.367 . S
C2341 C2349 1.433 . S
C2342 H2338 0.929 . S
C2342 C2344 1.378 . S
C2342 C2346 1.350 . S
C2343 C2346 1.463 . S
C2343 C2348 1.350 . S
C2343 N2351 1.427 . S
C2344 H2335 0.930 . S
C2344 C2342 1.378 . S
C2344 C2345 1.367 . S
C2345 C2344 1.367 . S
C2345 C2347 1.433 . S
C2346 C2342 1.350 . S
C2346 C2343 1.463 . S
C2346 N2350 1.427 . S
C2347 H2337 0.929 . S
C2347 C2345 1.433 . S
C2347 N2350 1.384 . S
C2348 H2339 0.929 . S
C2348 C2340 1.378 . S
C2348 C2343 1.350 . S
C2349 H2336 0.929 . S
C2349 C2341 1.433 . S
C2349 N2351 1.384 . S
N2350 C2346 1.427 . S
N2350 C2347 1.384 . S
N2351 C2343 1.427 . S
N2351 C2349 1.384 . S
H2352 C2358 0.930 . S
H2353 C2362 0.930 . S
H2354 C2367 0.929 . S
H2355 C2365 0.929 . S
H2356 C2360 0.929 . S
H2357 C2366 0.929 . S
C2358 H2352 0.930 . S
C2358 C2359 1.367 . S
C2358 C2366 1.378 . S
C2359 C2358 1.367 . S
C2359 C2367 1.433 . S
C2360 H2356 0.929 . S
C2360 C2362 1.378 . S
C2360 C2364 1.350 . S
C2361 C2364 1.463 . S
C2361 C2366 1.350 . S
C2361 N2369 1.427 . S
C2362 H2353 0.930 . S
C2362 C2360 1.378 . S
C2362 C2363 1.367 . S
C2363 C2362 1.367 . S
C2363 C2365 1.433 . S
C2364 C2360 1.350 . S
C2364 C2361 1.463 . S
C2364 N2368 1.427 . S
C2365 H2355 0.929 . S
C2365 C2363 1.433 . S
C2365 N2368 1.384 . S
C2366 H2357 0.929 . S
C2366 C2358 1.378 . S
C2366 C2361 1.350 . S
C2367 H2354 0.929 . S
C2367 C2359 1.433 . S
C2367 N2369 1.384 . S
N2368 C2364 1.427 . S
N2368 C2365 1.384 . S
N2369 C2361 1.427 . S
N2369 C2367 1.384 . S
H2370 C2376 0.930 . S
H2371 C2380 0.930 . S
H2372 C2385 0.929 . S
H2373 C2383 0.929 . S
H2374 C2378 0.929 . S
H2375 C2384 0.929 . S
C2376 H2370 0.930 . S
C2376 C2377 1.367 . S
C2376 C2384 1.378 . S
C2377 C2376 1.367 . S
C2377 C2385 1.433 . S
C2378 H2374 0.929 . S
C2378 C2380 1.378 . S
C2378 C2382 1.350 . S
C2379 C2382 1.463 . S
C2379 C2384 1.350 . S
C2379 N2387 1.427 . S
C2380 H2371 0.930 . S
C2380 C2378 1.378 . S
C2380 C2381 1.367 . S
C2381 C2380 1.367 . S
C2381 C2383 1.433 . S
C2382 C2378 1.350 . S
C2382 C2379 1.463 . S
C2382 N2386 1.427 . S
C2383 H2373 0.929 . S
C2383 C2381 1.433 . S
C2383 N2386 1.384 . S
C2384 H2375 0.929 . S
C2384 C2376 1.378 . S
C2384 C2379 1.350 . S
C2385 H2372 0.929 . S
C2385 C2377 1.433 . S
C2385 N2387 1.384 . S
N2386 C2382 1.427 . S
N2386 C2383 1.384 . S
N2387 C2379 1.427 . S
N2387 C2385 1.384 . S
H2388 C2394 0.930 . S
H2389 C2398 0.930 . S
H2390 C2403 0.929 . S
H2391 C2401 0.929 . S
H2392 C2396 0.929 . S
H2393 C2402 0.929 . S
C2394 H2388 0.930 . S
C2394 C2395 1.367 . S
C2394 C2402 1.378 . S
C2395 C2394 1.367 . S
C2395 C2403 1.433 . S
C2396 H2392 0.929 . S
C2396 C2398 1.378 . S
C2396 C2400 1.350 . S
C2397 C2400 1.463 . S
C2397 C2402 1.350 . S
C2397 N2405 1.427 . S
C2398 H2389 0.930 . S
C2398 C2396 1.378 . S
C2398 C2399 1.367 . S
C2399 C2398 1.367 . S
C2399 C2401 1.433 . S
C2400 C2396 1.350 . S
C2400 C2397 1.463 . S
C2400 N2404 1.427 . S
C2401 H2391 0.929 . S
C2401 C2399 1.433 . S
C2401 N2404 1.384 . S
C2402 H2393 0.929 . S
C2402 C2394 1.378 . S
C2402 C2397 1.350 . S
C2403 H2390 0.929 . S
C2403 C2395 1.433 . S
C2403 N2405 1.384 . S
N2404 C2400 1.427 . S
N2404 C2401 1.384 . S
N2405 C2397 1.427 . S
N2405 C2403 1.384 . S
H2406 C2412 0.930 . S
H2407 C2416 0.930 . S
H2408 C2421 0.929 . S
H2409 C2419 0.929 . S
H2410 C2414 0.929 . S
H2411 C2420 0.929 . S
C2412 H2406 0.930 . S
C2412 C2413 1.367 . S
C2412 C2420 1.378 . S
C2413 C2412 1.367 . S
C2413 C2421 1.433 . S
C2414 H2410 0.929 . S
C2414 C2416 1.378 . S
C2414 C2418 1.350 . S
C2415 C2418 1.463 . S
C2415 C2420 1.350 . S
C2415 N2423 1.427 . S
C2416 H2407 0.930 . S
C2416 C2414 1.378 . S
C2416 C2417 1.367 . S
C2417 C2416 1.367 . S
C2417 C2419 1.433 . S
C2418 C2414 1.350 . S
C2418 C2415 1.463 . S
C2418 N2422 1.427 . S
C2419 H2409 0.929 . S
C2419 C2417 1.433 . S
C2419 N2422 1.384 . S
C2420 H2411 0.929 . S
C2420 C2412 1.378 . S
C2420 C2415 1.350 . S
C2421 H2408 0.929 . S
C2421 C2413 1.433 . S
C2421 N2423 1.384 . S
N2422 C2418 1.427 . S
N2422 C2419 1.384 . S
N2423 C2415 1.427 . S
N2423 C2421 1.384 . S
H2424 C2430 0.930 . S
H2425 C2434 0.930 . S
H2426 C2439 0.929 . S
H2427 C2437 0.929 . S
H2428 C2432 0.929 . S
H2429 C2438 0.929 . S
C2430 H2424 0.930 . S
C2430 C2431 1.367 . S
C2430 C2438 1.378 . S
C2431 C2430 1.367 . S
C2431 C2439 1.433 . S
C2432 H2428 0.929 . S
C2432 C2434 1.378 . S
C2432 C2436 1.350 . S
C2433 C2436 1.463 . S
C2433 C2438 1.350 . S
C2433 N2441 1.427 . S
C2434 H2425 0.930 . S
C2434 C2432 1.378 . S
C2434 C2435 1.367 . S
C2435 C2434 1.367 . S
C2435 C2437 1.433 . S
C2436 C2432 1.350 . S
C2436 C2433 1.463 . S
C2436 N2440 1.427 . S
C2437 H2427 0.929 . S
C2437 C2435 1.433 . S
C2437 N2440 1.384 . S
C2438 H2429 0.929 . S
C2438 C2430 1.378 . S
C2438 C2433 1.350 . S
C2439 H2426 0.929 . S
C2439 C2431 1.433 . S
C2439 N2441 1.384 . S
N2440 C2436 1.427 . S
N2440 C2437 1.384 . S
N2441 C2433 1.427 . S
N2441 C2439 1.384 . S
H2442 C2448 0.930 . S
H2443 C2452 0.930 . S
H2444 C2457 0.929 . S
H2445 C2455 0.929 . S
H2446 C2450 0.929 . S
H2447 C2456 0.929 . S
C2448 H2442 0.930 . S
C2448 C2449 1.367 . S
C2448 C2456 1.378 . S
C2449 C2448 1.367 . S
C2449 C2457 1.433 . S
C2450 H2446 0.929 . S
C2450 C2452 1.378 . S
C2450 C2454 1.350 . S
C2451 C2454 1.463 . S
C2451 C2456 1.350 . S
C2451 N2459 1.427 . S
C2452 H2443 0.930 . S
C2452 C2450 1.378 . S
C2452 C2453 1.367 . S
C2453 C2452 1.367 . S
C2453 C2455 1.433 . S
C2454 C2450 1.350 . S
C2454 C2451 1.463 . S
C2454 N2458 1.427 . S
C2455 H2445 0.929 . S
C2455 C2453 1.433 . S
C2455 N2458 1.384 . S
C2456 H2447 0.929 . S
C2456 C2448 1.378 . S
C2456 C2451 1.350 . S
C2457 H2444 0.929 . S
C2457 C2449 1.433 . S
C2457 N2459 1.384 . S
N2458 C2454 1.427 . S
N2458 C2455 1.384 . S
N2459 C2451 1.427 . S
N2459 C2457 1.384 . S
H2460 C2466 0.930 . S
H2461 C2470 0.930 . S
H2462 C2475 0.929 . S
H2463 C2473 0.929 . S
H2464 C2468 0.929 . S
H2465 C2474 0.929 . S
C2466 H2460 0.930 . S
C2466 C2467 1.367 . S
C2466 C2474 1.378 . S
C2467 C2466 1.367 . S
C2467 C2475 1.433 . S
C2468 H2464 0.929 . S
C2468 C2470 1.378 . S
C2468 C2472 1.350 . S
C2469 C2472 1.463 . S
C2469 C2474 1.350 . S
C2469 N2477 1.427 . S
C2470 H2461 0.930 . S
C2470 C2468 1.378 . S
C2470 C2471 1.367 . S
C2471 C2470 1.367 . S
C2471 C2473 1.433 . S
C2472 C2468 1.350 . S
C2472 C2469 1.463 . S
C2472 N2476 1.427 . S
C2473 H2463 0.929 . S
C2473 C2471 1.433 . S
C2473 N2476 1.384 . S
C2474 H2465 0.929 . S
C2474 C2466 1.378 . S
C2474 C2469 1.350 . S
C2475 H2462 0.929 . S
C2475 C2467 1.433 . S
C2475 N2477 1.384 . S
N2476 C2472 1.427 . S
N2476 C2473 1.384 . S
N2477 C2469 1.427 . S
N2477 C2475 1.384 . S
H2478 C2484 0.930 . S
H2479 C2488 0.930 . S
H2480 C2493 0.929 . S
H2481 C2491 0.929 . S
H2482 C2486 0.929 . S
H2483 C2492 0.929 . S
C2484 H2478 0.930 . S
C2484 C2485 1.367 . S
C2484 C2492 1.378 . S
C2485 C2484 1.367 . S
C2485 C2493 1.433 . S
C2486 H2482 0.929 . S
C2486 C2488 1.378 . S
C2486 C2490 1.350 . S
C2487 C2490 1.463 . S
C2487 C2492 1.350 . S
C2487 N2495 1.427 . S
C2488 H2479 0.930 . S
C2488 C2486 1.378 . S
C2488 C2489 1.367 . S
C2489 C2488 1.367 . S
C2489 C2491 1.433 . S
C2490 C2486 1.350 . S
C2490 C2487 1.463 . S
C2490 N2494 1.427 . S
C2491 H2481 0.929 . S
C2491 C2489 1.433 . S
C2491 N2494 1.384 . S
C2492 H2483 0.929 . S
C2492 C2484 1.378 . S
C2492 C2487 1.350 . S
C2493 H2480 0.929 . S
C2493 C2485 1.433 . S
C2493 N2495 1.384 . S
N2494 C2490 1.427 . S
N2494 C2491 1.384 . S
N2495 C2487 1.427 . S
N2495 C2493 1.384 . S
H2496 C2502 0.930 . S
H2497 C2506 0.930 . S
H2498 C2511 0.929 . S
H2499 C2509 0.929 . S
H2500 C2504 0.929 . S
H2501 C2510 0.929 . S
C2502 H2496 0.930 . S
C2502 C2503 1.367 . S
C2502 C2510 1.378 . S
C2503 C2502 1.367 . S
C2503 C2511 1.433 . S
C2504 H2500 0.929 . S
C2504 C2506 1.378 . S
C2504 C2508 1.350 . S
C2505 C2508 1.463 . S
C2505 C2510 1.350 . S
C2505 N2513 1.427 . S
C2506 H2497 0.930 . S
C2506 C2504 1.378 . S
C2506 C2507 1.367 . S
C2507 C2506 1.367 . S
C2507 C2509 1.433 . S
C2508 C2504 1.350 . S
C2508 C2505 1.463 . S
C2508 N2512 1.427 . S
C2509 H2499 0.929 . S
C2509 C2507 1.433 . S
C2509 N2512 1.384 . S
C2510 H2501 0.929 . S
C2510 C2502 1.378 . S
C2510 C2505 1.350 . S
C2511 H2498 0.929 . S
C2511 C2503 1.433 . S
C2511 N2513 1.384 . S
N2512 C2508 1.427 . S
N2512 C2509 1.384 . S
N2513 C2505 1.427 . S
N2513 C2511 1.384 . S
H2514 C2520 0.930 . S
H2515 C2524 0.930 . S
H2516 C2529 0.929 . S
H2517 C2527 0.929 . S
H2518 C2522 0.929 . S
H2519 C2528 0.929 . S
C2520 H2514 0.930 . S
C2520 C2521 1.367 . S
C2520 C2528 1.378 . S
C2521 C2520 1.367 . S
C2521 C2529 1.433 . S
C2522 H2518 0.929 . S
C2522 C2524 1.378 . S
C2522 C2526 1.350 . S
C2523 C2526 1.463 . S
C2523 C2528 1.350 . S
C2523 N2531 1.427 . S
C2524 H2515 0.930 . S
C2524 C2522 1.378 . S
C2524 C2525 1.367 . S
C2525 C2524 1.367 . S
C2525 C2527 1.433 . S
C2526 C2522 1.350 . S
C2526 C2523 1.463 . S
C2526 N2530 1.427 . S
C2527 H2517 0.929 . S
C2527 C2525 1.433 . S
C2527 N2530 1.384 . S
C2528 H2519 0.929 . S
C2528 C2520 1.378 . S
C2528 C2523 1.350 . S
C2529 H2516 0.929 . S
C2529 C2521 1.433 . S
C2529 N2531 1.384 . S
N2530 C2526 1.427 . S
N2530 C2527 1.384 . S
N2531 C2523 1.427 . S
N2531 C2529 1.384 . S
H2532 C2538 0.930 . S
H2533 C2542 0.930 . S
H2534 C2547 0.929 . S
H2535 C2545 0.929 . S
H2536 C2540 0.929 . S
H2537 C2546 0.929 . S
C2538 H2532 0.930 . S
C2538 C2539 1.367 . S
C2538 C2546 1.378 . S
C2539 C2538 1.367 . S
C2539 C2547 1.433 . S
C2540 H2536 0.929 . S
C2540 C2542 1.378 . S
C2540 C2544 1.350 . S
C2541 C2544 1.463 . S
C2541 C2546 1.350 . S
C2541 N2549 1.427 . S
C2542 H2533 0.930 . S
C2542 C2540 1.378 . S
C2542 C2543 1.367 . S
C2543 C2542 1.367 . S
C2543 C2545 1.433 . S
C2544 C2540 1.350 . S
C2544 C2541 1.463 . S
C2544 N2548 1.427 . S
C2545 H2535 0.929 . S
C2545 C2543 1.433 . S
C2545 N2548 1.384 . S
C2546 H2537 0.929 . S
C2546 C2538 1.378 . S
C2546 C2541 1.350 . S
C2547 H2534 0.929 . S
C2547 C2539 1.433 . S
C2547 N2549 1.384 . S
N2548 C2544 1.427 . S
N2548 C2545 1.384 . S
N2549 C2541 1.427 . S
N2549 C2547 1.384 . S
H2550 C2556 0.930 . S
H2551 C2560 0.930 . S
H2552 C2565 0.929 . S
H2553 C2563 0.929 . S
H2554 C2558 0.929 . S
H2555 C2564 0.929 . S
C2556 H2550 0.930 . S
C2556 C2557 1.367 . S
C2556 C2564 1.378 . S
C2557 C2556 1.367 . S
C2557 C2565 1.433 . S
C2558 H2554 0.929 . S
C2558 C2560 1.378 . S
C2558 C2562 1.350 . S
C2559 C2562 1.463 . S
C2559 C2564 1.350 . S
C2559 N2567 1.427 . S
C2560 H2551 0.930 . S
C2560 C2558 1.378 . S
C2560 C2561 1.367 . S
C2561 C2560 1.367 . S
C2561 C2563 1.433 . S
C2562 C2558 1.350 . S
C2562 C2559 1.463 . S
C2562 N2566 1.427 . S
C2563 H2553 0.929 . S
C2563 C2561 1.433 . S
C2563 N2566 1.384 . S
C2564 H2555 0.929 . S
C2564 C2556 1.378 . S
C2564 C2559 1.350 . S
C2565 H2552 0.929 . S
C2565 C2557 1.433 . S
C2565 N2567 1.384 . S
N2566 C2562 1.427 . S
N2566 C2563 1.384 . S
N2567 C2559 1.427 . S
N2567 C2565 1.384 . S
H2568 C2574 0.930 . S
H2569 C2578 0.930 . S
H2570 C2583 0.929 . S
H2571 C2581 0.929 . S
H2572 C2576 0.929 . S
H2573 C2582 0.929 . S
C2574 H2568 0.930 . S
C2574 C2575 1.367 . S
C2574 C2582 1.378 . S
C2575 C2574 1.367 . S
C2575 C2583 1.433 . S
C2576 H2572 0.929 . S
C2576 C2578 1.378 . S
C2576 C2580 1.350 . S
C2577 C2580 1.463 . S
C2577 C2582 1.350 . S
C2577 N2585 1.427 . S
C2578 H2569 0.930 . S
C2578 C2576 1.378 . S
C2578 C2579 1.367 . S
C2579 C2578 1.367 . S
C2579 C2581 1.433 . S
C2580 C2576 1.350 . S
C2580 C2577 1.463 . S
C2580 N2584 1.427 . S
C2581 H2571 0.929 . S
C2581 C2579 1.433 . S
C2581 N2584 1.384 . S
C2582 H2573 0.929 . S
C2582 C2574 1.378 . S
C2582 C2577 1.350 . S
C2583 H2570 0.929 . S
C2583 C2575 1.433 . S
C2583 N2585 1.384 . S
N2584 C2580 1.427 . S
N2584 C2581 1.384 . S
N2585 C2577 1.427 . S
N2585 C2583 1.384 . S
H2586 C2592 0.930 . S
H2587 C2596 0.930 . S
H2588 C2601 0.929 . S
H2589 C2599 0.929 . S
H2590 C2594 0.929 . S
H2591 C2600 0.929 . S
C2592 H2586 0.930 . S
C2592 C2593 1.367 . S
C2592 C2600 1.378 . S
C2593 C2592 1.367 . S
C2593 C2601 1.433 . S
C2594 H2590 0.929 . S
C2594 C2596 1.378 . S
C2594 C2598 1.350 . S
C2595 C2598 1.463 . S
C2595 C2600 1.350 . S
C2595 N2603 1.427 . S
C2596 H2587 0.930 . S
C2596 C2594 1.378 . S
C2596 C2597 1.367 . S
C2597 C2596 1.367 . S
C2597 C2599 1.433 . S
C2598 C2594 1.350 . S
C2598 C2595 1.463 . S
C2598 N2602 1.427 . S
C2599 H2589 0.929 . S
C2599 C2597 1.433 . S
C2599 N2602 1.384 . S
C2600 H2591 0.929 . S
C2600 C2592 1.378 . S
C2600 C2595 1.350 . S
C2601 H2588 0.929 . S
C2601 C2593 1.433 . S
C2601 N2603 1.384 . S
N2602 C2598 1.427 . S
N2602 C2599 1.384 . S
N2603 C2595 1.427 . S
N2603 C2601 1.384 . S
H2604 C2610 0.930 . S
H2605 C2614 0.930 . S
H2606 C2619 0.929 . S
H2607 C2617 0.929 . S
H2608 C2612 0.929 . S
H2609 C2618 0.929 . S
C2610 H2604 0.930 . S
C2610 C2611 1.367 . S
C2610 C2618 1.378 . S
C2611 C2610 1.367 . S
C2611 C2619 1.433 . S
C2612 H2608 0.929 . S
C2612 C2614 1.378 . S
C2612 C2616 1.350 . S
C2613 C2616 1.463 . S
C2613 C2618 1.350 . S
C2613 N2621 1.427 . S
C2614 H2605 0.930 . S
C2614 C2612 1.378 . S
C2614 C2615 1.367 . S
C2615 C2614 1.367 . S
C2615 C2617 1.433 . S
C2616 C2612 1.350 . S
C2616 C2613 1.463 . S
C2616 N2620 1.427 . S
C2617 H2607 0.929 . S
C2617 C2615 1.433 . S
C2617 N2620 1.384 . S
C2618 H2609 0.929 . S
C2618 C2610 1.378 . S
C2618 C2613 1.350 . S
C2619 H2606 0.929 . S
C2619 C2611 1.433 . S
C2619 N2621 1.384 . S
N2620 C2616 1.427 . S
N2620 C2617 1.384 . S
N2621 C2613 1.427 . S
N2621 C2619 1.384 . S
H2622 C2628 0.930 . S
H2623 C2632 0.930 . S
H2624 C2637 0.929 . S
H2625 C2635 0.929 . S
H2626 C2630 0.929 . S
H2627 C2636 0.929 . S
C2628 H2622 0.930 . S
C2628 C2629 1.367 . S
C2628 C2636 1.378 . S
C2629 C2628 1.367 . S
C2629 C2637 1.433 . S
C2630 H2626 0.929 . S
C2630 C2632 1.378 . S
C2630 C2634 1.350 . S
C2631 C2634 1.463 . S
C2631 C2636 1.350 . S
C2631 N2639 1.427 . S
C2632 H2623 0.930 . S
C2632 C2630 1.378 . S
C2632 C2633 1.367 . S
C2633 C2632 1.367 . S
C2633 C2635 1.433 . S
C2634 C2630 1.350 . S
C2634 C2631 1.463 . S
C2634 N2638 1.427 . S
C2635 H2625 0.929 . S
C2635 C2633 1.433 . S
C2635 N2638 1.384 . S
C2636 H2627 0.929 . S
C2636 C2628 1.378 . S
C2636 C2631 1.350 . S
C2637 H2624 0.929 . S
C2637 C2629 1.433 . S
C2637 N2639 1.384 . S
N2638 C2634 1.427 . S
N2638 C2635 1.384 . S
N2639 C2631 1.427 . S
N2639 C2637 1.384 . S
H2640 C2646 0.930 . S
H2641 C2650 0.930 . S
H2642 C2655 0.929 . S
H2643 C2653 0.929 . S
H2644 C2648 0.929 . S
H2645 C2654 0.929 . S
C2646 H2640 0.930 . S
C2646 C2647 1.367 . S
C2646 C2654 1.378 . S
C2647 C2646 1.367 . S
C2647 C2655 1.433 . S
C2648 H2644 0.929 . S
C2648 C2650 1.378 . S
C2648 C2652 1.350 . S
C2649 C2652 1.463 . S
C2649 C2654 1.350 . S
C2649 N2657 1.427 . S
C2650 H2641 0.930 . S
C2650 C2648 1.378 . S
C2650 C2651 1.367 . S
C2651 C2650 1.367 . S
C2651 C2653 1.433 . S
C2652 C2648 1.350 . S
C2652 C2649 1.463 . S
C2652 N2656 1.427 . S
C2653 H2643 0.929 . S
C2653 C2651 1.433 . S
C2653 N2656 1.384 . S
C2654 H2645 0.929 . S
C2654 C2646 1.378 . S
C2654 C2649 1.350 . S
C2655 H2642 0.929 . S
C2655 C2647 1.433 . S
C2655 N2657 1.384 . S
N2656 C2652 1.427 . S
N2656 C2653 1.384 . S
N2657 C2649 1.427 . S
N2657 C2655 1.384 . S
H2658 C2664 0.930 . S
H2659 C2668 0.930 . S
H2660 C2673 0.929 . S
H2661 C2671 0.929 . S
H2662 C2666 0.929 . S
H2663 C2672 0.929 . S
C2664 H2658 0.930 . S
C2664 C2665 1.367 . S
C2664 C2672 1.378 . S
C2665 C2664 1.367 . S
C2665 C2673 1.433 . S
C2666 H2662 0.929 . S
C2666 C2668 1.378 . S
C2666 C2670 1.350 . S
C2667 C2670 1.463 . S
C2667 C2672 1.350 . S
C2667 N2675 1.427 . S
C2668 H2659 0.930 . S
C2668 C2666 1.378 . S
C2668 C2669 1.367 . S
C2669 C2668 1.367 . S
C2669 C2671 1.433 . S
C2670 C2666 1.350 . S
C2670 C2667 1.463 . S
C2670 N2674 1.427 . S
C2671 H2661 0.929 . S
C2671 C2669 1.433 . S
C2671 N2674 1.384 . S
C2672 H2663 0.929 . S
C2672 C2664 1.378 . S
C2672 C2667 1.350 . S
C2673 H2660 0.929 . S
C2673 C2665 1.433 . S
C2673 N2675 1.384 . S
N2674 C2670 1.427 . S
N2674 C2671 1.384 . S
N2675 C2667 1.427 . S
N2675 C2673 1.384 . S
H2676 C2682 0.930 . S
H2677 C2686 0.930 . S
H2678 C2691 0.929 . S
H2679 C2689 0.929 . S
H2680 C2684 0.929 . S
H2681 C2690 0.929 . S
C2682 H2676 0.930 . S
C2682 C2683 1.367 . S
C2682 C2690 1.378 . S
C2683 C2682 1.367 . S
C2683 C2691 1.433 . S
C2684 H2680 0.929 . S
C2684 C2686 1.378 . S
C2684 C2688 1.350 . S
C2685 C2688 1.463 . S
C2685 C2690 1.350 . S
C2685 N2693 1.427 . S
C2686 H2677 0.930 . S
C2686 C2684 1.378 . S
C2686 C2687 1.367 . S
C2687 C2686 1.367 . S
C2687 C2689 1.433 . S
C2688 C2684 1.350 . S
C2688 C2685 1.463 . S
C2688 N2692 1.427 . S
C2689 H2679 0.929 . S
C2689 C2687 1.433 . S
C2689 N2692 1.384 . S
C2690 H2681 0.929 . S
C2690 C2682 1.378 . S
C2690 C2685 1.350 . S
C2691 H2678 0.929 . S
C2691 C2683 1.433 . S
C2691 N2693 1.384 . S
N2692 C2688 1.427 . S
N2692 C2689 1.384 . S
N2693 C2685 1.427 . S
N2693 C2691 1.384 . S
H2694 C2700 0.930 . S
H2695 C2704 0.930 . S
H2696 C2709 0.929 . S
H2697 C2707 0.929 . S
H2698 C2702 0.929 . S
H2699 C2708 0.929 . S
C2700 H2694 0.930 . S
C2700 C2701 1.367 . S
C2700 C2708 1.378 . S
C2701 C2700 1.367 . S
C2701 C2709 1.433 . S
C2702 H2698 0.929 . S
C2702 C2704 1.378 . S
C2702 C2706 1.350 . S
C2703 C2706 1.463 . S
C2703 C2708 1.350 . S
C2703 N2711 1.427 . S
C2704 H2695 0.930 . S
C2704 C2702 1.378 . S
C2704 C2705 1.367 . S
C2705 C2704 1.367 . S
C2705 C2707 1.433 . S
C2706 C2702 1.350 . S
C2706 C2703 1.463 . S
C2706 N2710 1.427 . S
C2707 H2697 0.929 . S
C2707 C2705 1.433 . S
C2707 N2710 1.384 . S
C2708 H2699 0.929 . S
C2708 C2700 1.378 . S
C2708 C2703 1.350 . S
C2709 H2696 0.929 . S
C2709 C2701 1.433 . S
C2709 N2711 1.384 . S
N2710 C2706 1.427 . S
N2710 C2707 1.384 . S
N2711 C2703 1.427 . S
N2711 C2709 1.384 . S
H2712 C2718 0.930 . S
H2713 C2722 0.930 . S
H2714 C2727 0.929 . S
H2715 C2725 0.929 . S
H2716 C2720 0.929 . S
H2717 C2726 0.929 . S
C2718 H2712 0.930 . S
C2718 C2719 1.367 . S
C2718 C2726 1.378 . S
C2719 C2718 1.367 . S
C2719 C2727 1.433 . S
C2720 H2716 0.929 . S
C2720 C2722 1.378 . S
C2720 C2724 1.350 . S
C2721 C2724 1.463 . S
C2721 C2726 1.350 . S
C2721 N2729 1.427 . S
C2722 H2713 0.930 . S
C2722 C2720 1.378 . S
C2722 C2723 1.367 . S
C2723 C2722 1.367 . S
C2723 C2725 1.433 . S
C2724 C2720 1.350 . S
C2724 C2721 1.463 . S
C2724 N2728 1.427 . S
C2725 H2715 0.929 . S
C2725 C2723 1.433 . S
C2725 N2728 1.384 . S
C2726 H2717 0.929 . S
C2726 C2718 1.378 . S
C2726 C2721 1.350 . S
C2727 H2714 0.929 . S
C2727 C2719 1.433 . S
C2727 N2729 1.384 . S
N2728 C2724 1.427 . S
N2728 C2725 1.384 . S
N2729 C2721 1.427 . S
N2729 C2727 1.384 . S
H2730 C2736 0.930 . S
H2731 C2740 0.930 . S
H2732 C2745 0.929 . S
H2733 C2743 0.929 . S
H2734 C2738 0.929 . S
H2735 C2744 0.929 . S
C2736 H2730 0.930 . S
C2736 C2737 1.367 . S
C2736 C2744 1.378 . S
C2737 C2736 1.367 . S
C2737 C2745 1.433 . S
C2738 H2734 0.929 . S
C2738 C2740 1.378 . S
C2738 C2742 1.350 . S
C2739 C2742 1.463 . S
C2739 C2744 1.350 . S
C2739 N2747 1.427 . S
C2740 H2731 0.930 . S
C2740 C2738 1.378 . S
C2740 C2741 1.367 . S
C2741 C2740 1.367 . S
C2741 C2743 1.433 . S
C2742 C2738 1.350 . S
C2742 C2739 1.463 . S
C2742 N2746 1.427 . S
C2743 H2733 0.929 . S
C2743 C2741 1.433 . S
C2743 N2746 1.384 . S
C2744 H2735 0.929 . S
C2744 C2736 1.378 . S
C2744 C2739 1.350 . S
C2745 H2732 0.929 . S
C2745 C2737 1.433 . S
C2745 N2747 1.384 . S
N2746 C2742 1.427 . S
N2746 C2743 1.384 . S
N2747 C2739 1.427 . S
N2747 C2745 1.384 . S
H2748 C2754 0.930 . S
H2749 C2758 0.930 . S
H2750 C2763 0.929 . S
H2751 C2761 0.929 . S
H2752 C2756 0.929 . S
H2753 C2762 0.929 . S
C2754 H2748 0.930 . S
C2754 C2755 1.367 . S
C2754 C2762 1.378 . S
C2755 C2754 1.367 . S
C2755 C2763 1.433 . S
C2756 H2752 0.929 . S
C2756 C2758 1.378 . S
C2756 C2760 1.350 . S
C2757 C2760 1.463 . S
C2757 C2762 1.350 . S
C2757 N2765 1.427 . S
C2758 H2749 0.930 . S
C2758 C2756 1.378 . S
C2758 C2759 1.367 . S
C2759 C2758 1.367 . S
C2759 C2761 1.433 . S
C2760 C2756 1.350 . S
C2760 C2757 1.463 . S
C2760 N2764 1.427 . S
C2761 H2751 0.929 . S
C2761 C2759 1.433 . S
C2761 N2764 1.384 . S
C2762 H2753 0.929 . S
C2762 C2754 1.378 . S
C2762 C2757 1.350 . S
C2763 H2750 0.929 . S
C2763 C2755 1.433 . S
C2763 N2765 1.384 . S
N2764 C2760 1.427 . S
N2764 C2761 1.384 . S
N2765 C2757 1.427 . S
N2765 C2763 1.384 . S
H2766 C2772 0.930 . S
H2767 C2776 0.930 . S
H2768 C2781 0.929 . S
H2769 C2779 0.929 . S
H2770 C2774 0.929 . S
H2771 C2780 0.929 . S
C2772 H2766 0.930 . S
C2772 C2773 1.367 . S
C2772 C2780 1.378 . S
C2773 C2772 1.367 . S
C2773 C2781 1.433 . S
C2774 H2770 0.929 . S
C2774 C2776 1.378 . S
C2774 C2778 1.350 . S
C2775 C2778 1.463 . S
C2775 C2780 1.350 . S
C2775 N2783 1.427 . S
C2776 H2767 0.930 . S
C2776 C2774 1.378 . S
C2776 C2777 1.367 . S
C2777 C2776 1.367 . S
C2777 C2779 1.433 . S
C2778 C2774 1.350 . S
C2778 C2775 1.463 . S
C2778 N2782 1.427 . S
C2779 H2769 0.929 . S
C2779 C2777 1.433 . S
C2779 N2782 1.384 . S
C2780 H2771 0.929 . S
C2780 C2772 1.378 . S
C2780 C2775 1.350 . S
C2781 H2768 0.929 . S
C2781 C2773 1.433 . S
C2781 N2783 1.384 . S
N2782 C2778 1.427 . S
N2782 C2779 1.384 . S
N2783 C2775 1.427 . S
N2783 C2781 1.384 . S
H2784 C2790 0.930 . S
H2785 C2794 0.930 . S
H2786 C2799 0.929 . S
H2787 C2797 0.929 . S
H2788 C2792 0.929 . S
H2789 C2798 0.929 . S
C2790 H2784 0.930 . S
C2790 C2791 1.367 . S
C2790 C2798 1.378 . S
C2791 C2790 1.367 . S
C2791 C2799 1.433 . S
C2792 H2788 0.929 . S
C2792 C2794 1.378 . S
C2792 C2796 1.350 . S
C2793 C2796 1.463 . S
C2793 C2798 1.350 . S
C2793 N2801 1.427 . S
C2794 H2785 0.930 . S
C2794 C2792 1.378 . S
C2794 C2795 1.367 . S
C2795 C2794 1.367 . S
C2795 C2797 1.433 . S
C2796 C2792 1.350 . S
C2796 C2793 1.463 . S
C2796 N2800 1.427 . S
C2797 H2787 0.929 . S
C2797 C2795 1.433 . S
C2797 N2800 1.384 . S
C2798 H2789 0.929 . S
C2798 C2790 1.378 . S
C2798 C2793 1.350 . S
C2799 H2786 0.929 . S
C2799 C2791 1.433 . S
C2799 N2801 1.384 . S
N2800 C2796 1.427 . S
N2800 C2797 1.384 . S
N2801 C2793 1.427 . S
N2801 C2799 1.384 . S
H2802 C2808 0.930 . S
H2803 C2812 0.930 . S
H2804 C2817 0.929 . S
H2805 C2815 0.929 . S
H2806 C2810 0.929 . S
H2807 C2816 0.929 . S
C2808 H2802 0.930 . S
C2808 C2809 1.367 . S
C2808 C2816 1.378 . S
C2809 C2808 1.367 . S
C2809 C2817 1.433 . S
C2810 H2806 0.929 . S
C2810 C2812 1.378 . S
C2810 C2814 1.350 . S
C2811 C2814 1.463 . S
C2811 C2816 1.350 . S
C2811 N2819 1.427 . S
C2812 H2803 0.930 . S
C2812 C2810 1.378 . S
C2812 C2813 1.367 . S
C2813 C2812 1.367 . S
C2813 C2815 1.433 . S
C2814 C2810 1.350 . S
C2814 C2811 1.463 . S
C2814 N2818 1.427 . S
C2815 H2805 0.929 . S
C2815 C2813 1.433 . S
C2815 N2818 1.384 . S
C2816 H2807 0.929 . S
C2816 C2808 1.378 . S
C2816 C2811 1.350 . S
C2817 H2804 0.929 . S
C2817 C2809 1.433 . S
C2817 N2819 1.384 . S
N2818 C2814 1.427 . S
N2818 C2815 1.384 . S
N2819 C2811 1.427 . S
N2819 C2817 1.384 . S
H2820 C2826 0.930 . S
H2821 C2830 0.930 . S
H2822 C2835 0.929 . S
H2823 C2833 0.929 . S
H2824 C2828 0.929 . S
H2825 C2834 0.929 . S
C2826 H2820 0.930 . S
C2826 C2827 1.367 . S
C2826 C2834 1.378 . S
C2827 C2826 1.367 . S
C2827 C2835 1.433 . S
C2828 H2824 0.929 . S
C2828 C2830 1.378 . S
C2828 C2832 1.350 . S
C2829 C2832 1.463 . S
C2829 C2834 1.350 . S
C2829 N2837 1.427 . S
C2830 H2821 0.930 . S
C2830 C2828 1.378 . S
C2830 C2831 1.367 . S
C2831 C2830 1.367 . S
C2831 C2833 1.433 . S
C2832 C2828 1.350 . S
C2832 C2829 1.463 . S
C2832 N2836 1.427 . S
C2833 H2823 0.929 . S
C2833 C2831 1.433 . S
C2833 N2836 1.384 . S
C2834 H2825 0.929 . S
C2834 C2826 1.378 . S
C2834 C2829 1.350 . S
C2835 H2822 0.929 . S
C2835 C2827 1.433 . S
C2835 N2837 1.384 . S
N2836 C2832 1.427 . S
N2836 C2833 1.384 . S
N2837 C2829 1.427 . S
N2837 C2835 1.384 . S
H2838 C2844 0.930 . S
H2839 C2848 0.930 . S
H2840 C2853 0.929 . S
H2841 C2851 0.929 . S
H2842 C2846 0.929 . S
H2843 C2852 0.929 . S
C2844 H2838 0.930 . S
C2844 C2845 1.367 . S
C2844 C2852 1.378 . S
C2845 C2844 1.367 . S
C2845 C2853 1.433 . S
C2846 H2842 0.929 . S
C2846 C2848 1.378 . S
C2846 C2850 1.350 . S
C2847 C2850 1.463 . S
C2847 C2852 1.350 . S
C2847 N2855 1.427 . S
C2848 H2839 0.930 . S
C2848 C2846 1.378 . S
C2848 C2849 1.367 . S
C2849 C2848 1.367 . S
C2849 C2851 1.433 . S
C2850 C2846 1.350 . S
C2850 C2847 1.463 . S
C2850 N2854 1.427 . S
C2851 H2841 0.929 . S
C2851 C2849 1.433 . S
C2851 N2854 1.384 . S
C2852 H2843 0.929 . S
C2852 C2844 1.378 . S
C2852 C2847 1.350 . S
C2853 H2840 0.929 . S
C2853 C2845 1.433 . S
C2853 N2855 1.384 . S
N2854 C2850 1.427 . S
N2854 C2851 1.384 . S
N2855 C2847 1.427 . S
N2855 C2853 1.384 . S
H2856 C2862 0.930 . S
H2857 C2866 0.930 . S
H2858 C2871 0.929 . S
H2859 C2869 0.929 . S
H2860 C2864 0.929 . S
H2861 C2870 0.929 . S
C2862 H2856 0.930 . S
C2862 C2863 1.367 . S
C2862 C2870 1.378 . S
C2863 C2862 1.367 . S
C2863 C2871 1.433 . S
C2864 H2860 0.929 . S
C2864 C2866 1.378 . S
C2864 C2868 1.350 . S
C2865 C2868 1.463 . S
C2865 C2870 1.350 . S
C2865 N2873 1.427 . S
C2866 H2857 0.930 . S
C2866 C2864 1.378 . S
C2866 C2867 1.367 . S
C2867 C2866 1.367 . S
C2867 C2869 1.433 . S
C2868 C2864 1.350 . S
C2868 C2865 1.463 . S
C2868 N2872 1.427 . S
C2869 H2859 0.929 . S
C2869 C2867 1.433 . S
C2869 N2872 1.384 . S
C2870 H2861 0.929 . S
C2870 C2862 1.378 . S
C2870 C2865 1.350 . S
C2871 H2858 0.929 . S
C2871 C2863 1.433 . S
C2871 N2873 1.384 . S
N2872 C2868 1.427 . S
N2872 C2869 1.384 . S
N2873 C2865 1.427 . S
N2873 C2871 1.384 . S
H2874 C2880 0.930 . S
H2875 C2884 0.930 . S
H2876 C2889 0.929 . S
H2877 C2887 0.929 . S
H2878 C2882 0.929 . S
H2879 C2888 0.929 . S
C2880 H2874 0.930 . S
C2880 C2881 1.367 . S
C2880 C2888 1.378 . S
C2881 C2880 1.367 . S
C2881 C2889 1.433 . S
C2882 H2878 0.929 . S
C2882 C2884 1.378 . S
C2882 C2886 1.350 . S
C2883 C2886 1.463 . S
C2883 C2888 1.350 . S
C2883 N2891 1.427 . S
C2884 H2875 0.930 . S
C2884 C2882 1.378 . S
C2884 C2885 1.367 . S
C2885 C2884 1.367 . S
C2885 C2887 1.433 . S
C2886 C2882 1.350 . S
C2886 C2883 1.463 . S
C2886 N2890 1.427 . S
C2887 H2877 0.929 . S
C2887 C2885 1.433 . S
C2887 N2890 1.384 . S
C2888 H2879 0.929 . S
C2888 C2880 1.378 . S
C2888 C2883 1.350 . S
C2889 H2876 0.929 . S
C2889 C2881 1.433 . S
C2889 N2891 1.384 . S
N2890 C2886 1.427 . S
N2890 C2887 1.384 . S
N2891 C2883 1.427 . S
N2891 C2889 1.384 . S
H2892 C2898 0.930 . S
H2893 C2902 0.930 . S
H2894 C2907 0.929 . S
H2895 C2905 0.929 . S
H2896 C2900 0.929 . S
H2897 C2906 0.929 . S
C2898 H2892 0.930 . S
C2898 C2899 1.367 . S
C2898 C2906 1.378 . S
C2899 C2898 1.367 . S
C2899 C2907 1.433 . S
C2900 H2896 0.929 . S
C2900 C2902 1.378 . S
C2900 C2904 1.350 . S
C2901 C2904 1.463 . S
C2901 C2906 1.350 . S
C2901 N2909 1.427 . S
C2902 H2893 0.930 . S
C2902 C2900 1.378 . S
C2902 C2903 1.367 . S
C2903 C2902 1.367 . S
C2903 C2905 1.433 . S
C2904 C2900 1.350 . S
C2904 C2901 1.463 . S
C2904 N2908 1.427 . S
C2905 H2895 0.929 . S
C2905 C2903 1.433 . S
C2905 N2908 1.384 . S
C2906 H2897 0.929 . S
C2906 C2898 1.378 . S
C2906 C2901 1.350 . S
C2907 H2894 0.929 . S
C2907 C2899 1.433 . S
C2907 N2909 1.384 . S
N2908 C2904 1.427 . S
N2908 C2905 1.384 . S
N2909 C2901 1.427 . S
N2909 C2907 1.384 . S
H2910 C2916 0.930 . S
H2911 C2920 0.930 . S
H2912 C2925 0.929 . S
H2913 C2923 0.929 . S
H2914 C2918 0.929 . S
H2915 C2924 0.929 . S
C2916 H2910 0.930 . S
C2916 C2917 1.367 . S
C2916 C2924 1.378 . S
C2917 C2916 1.367 . S
C2917 C2925 1.433 . S
C2918 H2914 0.929 . S
C2918 C2920 1.378 . S
C2918 C2922 1.350 . S
C2919 C2922 1.463 . S
C2919 C2924 1.350 . S
C2919 N2927 1.427 . S
C2920 H2911 0.930 . S
C2920 C2918 1.378 . S
C2920 C2921 1.367 . S
C2921 C2920 1.367 . S
C2921 C2923 1.433 . S
C2922 C2918 1.350 . S
C2922 C2919 1.463 . S
C2922 N2926 1.427 . S
C2923 H2913 0.929 . S
C2923 C2921 1.433 . S
C2923 N2926 1.384 . S
C2924 H2915 0.929 . S
C2924 C2916 1.378 . S
C2924 C2919 1.350 . S
C2925 H2912 0.929 . S
C2925 C2917 1.433 . S
C2925 N2927 1.384 . S
N2926 C2922 1.427 . S
N2926 C2923 1.384 . S
N2927 C2919 1.427 . S
N2927 C2925 1.384 . S
H2928 C2934 0.930 . S
H2929 C2938 0.930 . S
H2930 C2943 0.929 . S
H2931 C2941 0.929 . S
H2932 C2936 0.929 . S
H2933 C2942 0.929 . S
C2934 H2928 0.930 . S
C2934 C2935 1.367 . S
C2934 C2942 1.378 . S
C2935 C2934 1.367 . S
C2935 C2943 1.433 . S
C2936 H2932 0.929 . S
C2936 C2938 1.378 . S
C2936 C2940 1.350 . S
C2937 C2940 1.463 . S
C2937 C2942 1.350 . S
C2937 N2945 1.427 . S
C2938 H2929 0.930 . S
C2938 C2936 1.378 . S
C2938 C2939 1.367 . S
C2939 C2938 1.367 . S
C2939 C2941 1.433 . S
C2940 C2936 1.350 . S
C2940 C2937 1.463 . S
C2940 N2944 1.427 . S
C2941 H2931 0.929 . S
C2941 C2939 1.433 . S
C2941 N2944 1.384 . S
C2942 H2933 0.929 . S
C2942 C2934 1.378 . S
C2942 C2937 1.350 . S
C2943 H2930 0.929 . S
C2943 C2935 1.433 . S
C2943 N2945 1.384 . S
N2944 C2940 1.427 . S
N2944 C2941 1.384 . S
N2945 C2937 1.427 . S
N2945 C2943 1.384 . S
H2946 C2952 0.930 . S
H2947 C2956 0.930 . S
H2948 C2961 0.929 . S
H2949 C2959 0.929 . S
H2950 C2954 0.929 . S
H2951 C2960 0.929 . S
C2952 H2946 0.930 . S
C2952 C2953 1.367 . S
C2952 C2960 1.378 . S
C2953 C2952 1.367 . S
C2953 C2961 1.433 . S
C2954 H2950 0.929 . S
C2954 C2956 1.378 . S
C2954 C2958 1.350 . S
C2955 C2958 1.463 . S
C2955 C2960 1.350 . S
C2955 N2963 1.427 . S
C2956 H2947 0.930 . S
C2956 C2954 1.378 . S
C2956 C2957 1.367 . S
C2957 C2956 1.367 . S
C2957 C2959 1.433 . S
C2958 C2954 1.350 . S
C2958 C2955 1.463 . S
C2958 N2962 1.427 . S
C2959 H2949 0.929 . S
C2959 C2957 1.433 . S
C2959 N2962 1.384 . S
C2960 H2951 0.929 . S
C2960 C2952 1.378 . S
C2960 C2955 1.350 . S
C2961 H2948 0.929 . S
C2961 C2953 1.433 . S
C2961 N2963 1.384 . S
N2962 C2958 1.427 . S
N2962 C2959 1.384 . S
N2963 C2955 1.427 . S
N2963 C2961 1.384 . S
H2964 C2970 0.930 . S
H2965 C2974 0.930 . S
H2966 C2979 0.929 . S
H2967 C2977 0.929 . S
H2968 C2972 0.929 . S
H2969 C2978 0.929 . S
C2970 H2964 0.930 . S
C2970 C2971 1.367 . S
C2970 C2978 1.378 . S
C2971 C2970 1.367 . S
C2971 C2979 1.433 . S
C2972 H2968 0.929 . S
C2972 C2974 1.378 . S
C2972 C2976 1.350 . S
C2973 C2976 1.463 . S
C2973 C2978 1.350 . S
C2973 N2981 1.427 . S
C2974 H2965 0.930 . S
C2974 C2972 1.378 . S
C2974 C2975 1.367 . S
C2975 C2974 1.367 . S
C2975 C2977 1.433 . S
C2976 C2972 1.350 . S
C2976 C2973 1.463 . S
C2976 N2980 1.427 . S
C2977 H2967 0.929 . S
C2977 C2975 1.433 . S
C2977 N2980 1.384 . S
C2978 H2969 0.929 . S
C2978 C2970 1.378 . S
C2978 C2973 1.350 . S
C2979 H2966 0.929 . S
C2979 C2971 1.433 . S
C2979 N2981 1.384 . S
N2980 C2976 1.427 . S
N2980 C2977 1.384 . S
N2981 C2973 1.427 . S
N2981 C2979 1.384 . S
H2982 C2988 0.930 . S
H2983 C2992 0.930 . S
H2984 C2997 0.929 . S
H2985 C2995 0.929 . S
H2986 C2990 0.929 . S
H2987 C2996 0.929 . S
C2988 H2982 0.930 . S
C2988 C2989 1.367 . S
C2988 C2996 1.378 . S
C2989 C2988 1.367 . S
C2989 C2997 1.433 . S
C2990 H2986 0.929 . S
C2990 C2992 1.378 . S
C2990 C2994 1.350 . S
C2991 C2994 1.463 . S
C2991 C2996 1.350 . S
C2991 N2999 1.427 . S
C2992 H2983 0.930 . S
C2992 C2990 1.378 . S
C2992 C2993 1.367 . S
C2993 C2992 1.367 . S
C2993 C2995 1.433 . S
C2994 C2990 1.350 . S
C2994 C2991 1.463 . S
C2994 N2998 1.427 . S
C2995 H2985 0.929 . S
C2995 C2993 1.433 . S
C2995 N2998 1.384 . S
C2996 H2987 0.929 . S
C2996 C2988 1.378 . S
C2996 C2991 1.350 . S
C2997 H2984 0.929 . S
C2997 C2989 1.433 . S
C2997 N2999 1.384 . S
N2998 C2994 1.427 . S
N2998 C2995 1.384 . S
N2999 C2991 1.427 . S
N2999 C2997 1.384 . S
H3000 C3006 0.930 . S
H3001 C3010 0.930 . S
H3002 C3015 0.929 . S
H3003 C3013 0.929 . S
H3004 C3008 0.929 . S
H3005 C3014 0.929 . S
C3006 H3000 0.930 . S
C3006 C3007 1.367 . S
C3006 C3014 1.378 . S
C3007 C3006 1.367 . S
C3007 C3015 1.433 . S
C3008 H3004 0.929 . S
C3008 C3010 1.378 . S
C3008 C3012 1.350 . S
C3009 C3012 1.463 . S
C3009 C3014 1.350 . S
C3009 N3017 1.427 . S
C3010 H3001 0.930 . S
C3010 C3008 1.378 . S
C3010 C3011 1.367 . S
C3011 C3010 1.367 . S
C3011 C3013 1.433 . S
C3012 C3008 1.350 . S
C3012 C3009 1.463 . S
C3012 N3016 1.427 . S
C3013 H3003 0.929 . S
C3013 C3011 1.433 . S
C3013 N3016 1.384 . S
C3014 H3005 0.929 . S
C3014 C3006 1.378 . S
C3014 C3009 1.350 . S
C3015 H3002 0.929 . S
C3015 C3007 1.433 . S
C3015 N3017 1.384 . S
N3016 C3012 1.427 . S
N3016 C3013 1.384 . S
N3017 C3009 1.427 . S
N3017 C3015 1.384 . S
H3018 C3024 0.930 . S
H3019 C3028 0.930 . S
H3020 C3033 0.929 . S
H3021 C3031 0.929 . S
H3022 C3026 0.929 . S
H3023 C3032 0.929 . S
C3024 H3018 0.930 . S
C3024 C3025 1.367 . S
C3024 C3032 1.378 . S
C3025 C3024 1.367 . S
C3025 C3033 1.433 . S
C3026 H3022 0.929 . S
C3026 C3028 1.378 . S
C3026 C3030 1.350 . S
C3027 C3030 1.463 . S
C3027 C3032 1.350 . S
C3027 N3035 1.427 . S
C3028 H3019 0.930 . S
C3028 C3026 1.378 . S
C3028 C3029 1.367 . S
C3029 C3028 1.367 . S
C3029 C3031 1.433 . S
C3030 C3026 1.350 . S
C3030 C3027 1.463 . S
C3030 N3034 1.427 . S
C3031 H3021 0.929 . S
C3031 C3029 1.433 . S
C3031 N3034 1.384 . S
C3032 H3023 0.929 . S
C3032 C3024 1.378 . S
C3032 C3027 1.350 . S
C3033 H3020 0.929 . S
C3033 C3025 1.433 . S
C3033 N3035 1.384 . S
N3034 C3030 1.427 . S
N3034 C3031 1.384 . S
N3035 C3027 1.427 . S
N3035 C3033 1.384 . S
H3036 C3042 0.930 . S
H3037 C3046 0.930 . S
H3038 C3051 0.929 . S
H3039 C3049 0.929 . S
H3040 C3044 0.929 . S
H3041 C3050 0.929 . S
C3042 H3036 0.930 . S
C3042 C3043 1.367 . S
C3042 C3050 1.378 . S
C3043 C3042 1.367 . S
C3043 C3051 1.433 . S
C3044 H3040 0.929 . S
C3044 C3046 1.378 . S
C3044 C3048 1.350 . S
C3045 C3048 1.463 . S
C3045 C3050 1.350 . S
C3045 N3053 1.427 . S
C3046 H3037 0.930 . S
C3046 C3044 1.378 . S
C3046 C3047 1.367 . S
C3047 C3046 1.367 . S
C3047 C3049 1.433 . S
C3048 C3044 1.350 . S
C3048 C3045 1.463 . S
C3048 N3052 1.427 . S
C3049 H3039 0.929 . S
C3049 C3047 1.433 . S
C3049 N3052 1.384 . S
C3050 H3041 0.929 . S
C3050 C3042 1.378 . S
C3050 C3045 1.350 . S
C3051 H3038 0.929 . S
C3051 C3043 1.433 . S
C3051 N3053 1.384 . S
N3052 C3048 1.427 . S
N3052 C3049 1.384 . S
N3053 C3045 1.427 . S
N3053 C3051 1.384 . S
H3054 C3060 0.930 . S
H3055 C3064 0.930 . S
H3056 C3069 0.929 . S
H3057 C3067 0.929 . S
H3058 C3062 0.929 . S
H3059 C3068 0.929 . S
C3060 H3054 0.930 . S
C3060 C3061 1.367 . S
C3060 C3068 1.378 . S
C3061 C3060 1.367 . S
C3061 C3069 1.433 . S
C3062 H3058 0.929 . S
C3062 C3064 1.378 . S
C3062 C3066 1.350 . S
C3063 C3066 1.463 . S
C3063 C3068 1.350 . S
C3063 N3071 1.427 . S
C3064 H3055 0.930 . S
C3064 C3062 1.378 . S
C3064 C3065 1.367 . S
C3065 C3064 1.367 . S
C3065 C3067 1.433 . S
C3066 C3062 1.350 . S
C3066 C3063 1.463 . S
C3066 N3070 1.427 . S
C3067 H3057 0.929 . S
C3067 C3065 1.433 . S
C3067 N3070 1.384 . S
C3068 H3059 0.929 . S
C3068 C3060 1.378 . S
C3068 C3063 1.350 . S
C3069 H3056 0.929 . S
C3069 C3061 1.433 . S
C3069 N3071 1.384 . S
N3070 C3066 1.427 . S
N3070 C3067 1.384 . S
N3071 C3063 1.427 . S
N3071 C3069 1.384 . S
H3072 C3078 0.930 . S
H3073 C3082 0.930 . S
H3074 C3087 0.929 . S
H3075 C3085 0.929 . S
H3076 C3080 0.929 1_455 S
H3077 C3086 0.929 . S
C3078 H3072 0.930 . S
C3078 C3079 1.367 . S
C3078 C3086 1.378 . S
C3079 C3078 1.367 . S
C3079 C3087 1.433 . S
C3080 H3076 0.929 1_655 S
C3080 C3082 1.378 . S
C3080 C3084 1.350 1_655 S
C3081 C3084 1.463 . S
C3081 C3086 1.350 . S
C3081 N3089 1.427 . S
C3082 H3073 0.930 . S
C3082 C3080 1.378 . S
C3082 C3083 1.367 . S
C3083 C3082 1.367 . S
C3083 C3085 1.433 . S
C3084 C3080 1.350 1_455 S
C3084 C3081 1.463 . S
C3084 N3088 1.440 . S
C3085 H3075 0.929 . S
C3085 C3083 1.433 . S
C3085 N3088 1.350 1_655 S
C3086 H3077 0.929 . S
C3086 C3078 1.378 . S
C3086 C3081 1.350 . S
C3087 H3074 0.929 . S
C3087 C3079 1.433 . S
C3087 N3089 1.384 . S
N3088 C3084 1.440 . S
N3088 C3085 1.350 1_455 S
N3089 C3081 1.427 . S
N3089 C3087 1.384 . S
H3090 C3096 0.930 . S
H3091 C3100 0.930 . S
H3092 C3105 0.929 . S
H3093 C3103 0.929 . S
H3094 C3098 0.929 1_545 S
H3095 C3104 0.929 . S
C3096 H3090 0.930 . S
C3096 C3097 1.367 . S
C3096 C3104 1.378 . S
C3097 C3096 1.367 . S
C3097 C3105 1.433 . S
C3098 H3094 0.929 1_565 S
C3098 C3100 1.378 . S
C3098 C3102 1.350 1_565 S
C3099 C3102 1.463 . S
C3099 C3104 1.350 . S
C3099 N3107 1.427 . S
C3100 H3091 0.930 . S
C3100 C3098 1.378 . S
C3100 C3101 1.367 . S
C3101 C3100 1.367 . S
C3101 C3103 1.433 . S
C3102 C3098 1.350 1_545 S
C3102 C3099 1.463 . S
C3102 N3106 1.443 . S
C3103 H3093 0.929 . S
C3103 C3101 1.433 . S
C3103 N3106 1.343 1_565 S
C3104 H3095 0.929 . S
C3104 C3096 1.378 . S
C3104 C3099 1.350 . S
C3105 H3092 0.929 . S
C3105 C3097 1.433 . S
C3105 N3107 1.384 . S
N3106 C3102 1.443 . S
N3106 C3103 1.343 1_545 S
N3107 C3099 1.427 . S
N3107 C3105 1.384 . S
H3108 C3114 0.930 . S
H3109 C3118 0.930 . S
H3110 C3123 0.929 . S
H3111 C3121 0.929 . S
H3112 C3116 0.908 1_655 S
H3113 C3122 0.929 . S
C3114 H3108 0.930 . S
C3114 C3115 1.367 . S
C3114 C3122 1.378 . S
C3115 C3114 1.367 . S
C3115 C3123 1.433 . S
C3116 H3112 0.908 1_455 S
C3116 C3118 1.419 . S
C3116 C3120 1.331 1_455 S
C3117 C3120 1.463 . S
C3117 C3122 1.350 . S
C3117 N3125 1.427 . S
C3118 H3109 0.930 . S
C3118 C3116 1.419 . S
C3118 C3119 1.367 . S
C3119 C3118 1.367 . S
C3119 C3121 1.433 . S
C3120 C3116 1.331 1_655 S
C3120 C3117 1.463 . S
C3120 N3124 1.390 1_655 S
C3121 H3111 0.929 . S
C3121 C3119 1.433 . S
C3121 N3124 1.465 . S
C3122 H3113 0.929 . S
C3122 C3114 1.378 . S
C3122 C3117 1.350 . S
C3123 H3110 0.929 . S
C3123 C3115 1.433 . S
C3123 N3125 1.384 . S
N3124 C3120 1.390 1_455 S
N3124 C3121 1.465 . S
N3125 C3117 1.427 . S
N3125 C3123 1.384 . S
H3126 C3132 0.930 . S
H3127 C3136 0.930 . S
H3128 C3141 0.929 . S
H3129 C3139 0.929 . S
H3130 C3134 0.929 1_565 S
H3131 C3140 0.929 . S
C3132 H3126 0.930 . S
C3132 C3133 1.367 . S
C3132 C3140 1.378 . S
C3133 C3132 1.367 . S
C3133 C3141 1.433 . S
C3134 H3130 0.929 1_545 S
C3134 C3136 1.378 . S
C3134 C3138 1.350 1_545 S
C3135 C3138 1.463 . S
C3135 C3140 1.350 . S
C3135 N3143 1.427 . S
C3136 H3127 0.930 . S
C3136 C3134 1.378 . S
C3136 C3137 1.367 . S
C3137 C3136 1.367 . S
C3137 C3139 1.433 . S
C3138 C3134 1.350 1_565 S
C3138 C3135 1.463 . S
C3138 N3142 1.423 1_565 S
C3139 H3129 0.929 . S
C3139 C3137 1.433 . S
C3139 N3142 1.395 . S
C3140 H3131 0.929 . S
C3140 C3132 1.378 . S
C3140 C3135 1.350 . S
C3141 H3128 0.929 . S
C3141 C3133 1.433 . S
C3141 N3143 1.384 . S
N3142 C3138 1.423 1_545 S
N3142 C3139 1.395 . S
N3143 C3135 1.427 . S
N3143 C3141 1.384 . S
H3144 C3150 0.930 . S
H3145 C3154 0.930 . S
H3146 C3159 0.929 . S
H3147 C3157 0.929 . S
H3148 C3152 0.929 . S
H3149 C3158 0.929 1_455 S
C3150 H3144 0.930 . S
C3150 C3151 1.367 . S
C3150 C3158 1.378 . S
C3151 C3150 1.367 . S
C3151 C3159 1.433 . S
C3152 H3148 0.929 . S
C3152 C3154 1.378 . S
C3152 C3156 1.350 . S
C3153 C3156 1.463 . S
C3153 C3158 1.350 1_455 S
C3153 N3161 1.420 1_455 S
C3154 H3145 0.930 . S
C3154 C3152 1.378 . S
C3154 C3155 1.367 . S
C3155 C3154 1.367 . S
C3155 C3157 1.433 . S
C3156 C3152 1.350 . S
C3156 C3153 1.463 . S
C3156 N3160 1.427 . S
C3157 H3147 0.929 . S
C3157 C3155 1.433 . S
C3157 N3160 1.384 . S
C3158 H3149 0.929 1_655 S
C3158 C3150 1.378 . S
C3158 C3153 1.350 1_655 S
C3159 H3146 0.929 . S
C3159 C3151 1.433 . S
C3159 N3161 1.401 . S
N3160 C3156 1.427 . S
N3160 C3157 1.384 . S
N3161 C3153 1.420 1_655 S
N3161 C3159 1.401 . S
H3162 C3168 0.930 . S
H3163 C3172 0.930 . S
H3164 C3177 0.929 . S
H3165 C3175 0.929 . S
H3166 C3170 0.929 1_545 S
H3167 C3176 0.929 . S
C3168 H3162 0.930 . S
C3168 C3169 1.367 . S
C3168 C3176 1.378 . S
C3169 C3168 1.367 . S
C3169 C3177 1.433 . S
C3170 H3166 0.929 1_565 S
C3170 C3172 1.378 . S
C3170 C3174 1.350 1_565 S
C3171 C3174 1.463 . S
C3171 C3176 1.350 . S
C3171 N3179 1.427 . S
C3172 H3163 0.930 . S
C3172 C3170 1.378 . S
C3172 C3173 1.367 . S
C3173 C3172 1.367 . S
C3173 C3175 1.433 . S
C3174 C3170 1.350 1_545 S
C3174 C3171 1.463 . S
C3174 N3178 1.425 1_545 S
C3175 H3165 0.929 . S
C3175 C3173 1.433 . S
C3175 N3178 1.388 . S
C3176 H3167 0.929 . S
C3176 C3168 1.378 . S
C3176 C3171 1.350 . S
C3177 H3164 0.929 . S
C3177 C3169 1.433 . S
C3177 N3179 1.384 . S
N3178 C3174 1.425 1_565 S
N3178 C3175 1.388 . S
N3179 C3171 1.427 . S
N3179 C3177 1.384 . S
H3180 C3186 0.930 . S
H3181 C3190 0.930 . S
H3182 C3195 0.929 . S
H3183 C3193 0.929 . S
H3184 C3188 0.929 . S
H3185 C3194 0.944 . S
C3186 H3180 0.930 . S
C3186 C3187 1.367 . S
C3186 C3194 1.352 1_455 S
C3187 C3186 1.367 . S
C3187 C3195 1.433 . S
C3188 H3184 0.929 . S
C3188 C3190 1.378 . S
C3188 C3192 1.350 . S
C3189 C3192 1.463 . S
C3189 C3194 1.361 . S
C3189 N3197 1.427 1_655 S
C3190 H3181 0.930 . S
C3190 C3188 1.378 . S
C3190 C3191 1.367 . S
C3191 C3190 1.367 . S
C3191 C3193 1.433 . S
C3192 C3188 1.350 . S
C3192 C3189 1.463 . S
C3192 N3196 1.427 . S
C3193 H3183 0.929 . S
C3193 C3191 1.433 . S
C3193 N3196 1.384 . S
C3194 H3185 0.944 . S
C3194 C3186 1.352 1_655 S
C3194 C3189 1.361 . S
C3195 H3182 0.929 . S
C3195 C3187 1.433 . S
C3195 N3197 1.384 . S
N3196 C3192 1.427 . S
N3196 C3193 1.384 . S
N3197 C3189 1.427 1_455 S
N3197 C3195 1.384 . S
H3198 C3204 0.930 . S
H3199 C3208 0.930 . S
H3200 C3213 0.929 . S
H3201 C3211 0.929 . S
H3202 C3206 0.929 . S
H3203 C3212 0.897 1_565 S
C3204 H3198 0.930 . S
C3204 C3205 1.367 . S
C3204 C3212 1.445 . S
C3205 C3204 1.367 . S
C3205 C3213 1.433 . S
C3206 H3202 0.929 . S
C3206 C3208 1.378 . S
C3206 C3210 1.350 . S
C3207 C3210 1.463 . S
C3207 C3212 1.318 1_565 S
C3207 N3215 1.403 1_565 S
C3208 H3199 0.930 . S
C3208 C3206 1.378 . S
C3208 C3209 1.367 . S
C3209 C3208 1.367 . S
C3209 C3211 1.433 . S
C3210 C3206 1.350 . S
C3210 C3207 1.463 . S
C3210 N3214 1.427 . S
C3211 H3201 0.929 . S
C3211 C3209 1.433 . S
C3211 N3214 1.384 . S
C3212 H3203 0.897 1_545 S
C3212 C3204 1.445 . S
C3212 C3207 1.318 1_545 S
C3213 H3200 0.929 . S
C3213 C3205 1.433 . S
C3213 N3215 1.439 . S
N3214 C3210 1.427 . S
N3214 C3211 1.384 . S
N3215 C3207 1.403 1_545 S
N3215 C3213 1.439 . S
H3216 C3222 0.930 . S
H3217 C3226 0.930 . S
H3218 C3231 0.929 . S
H3219 C3229 0.929 . S
H3220 C3224 0.931 1_545 S
H3221 C3230 0.929 . S
C3222 H3216 0.930 . S
C3222 C3223 1.367 . S
C3222 C3230 1.378 . S
C3223 C3222 1.367 . S
C3223 C3231 1.433 . S
C3224 H3220 0.931 1_565 S
C3224 C3226 1.373 . S
C3224 C3228 1.352 1_565 S
C3225 C3228 1.463 . S
C3225 C3230 1.350 . S
C3225 N3233 1.427 . S
C3226 H3217 0.930 . S
C3226 C3224 1.373 . S
C3226 C3227 1.367 . S
C3227 C3226 1.367 . S
C3227 C3229 1.433 . S
C3228 C3224 1.352 1_545 S
C3228 C3225 1.463 . S
C3228 N3232 1.427 1_545 S
C3229 H3219 0.929 . S
C3229 C3227 1.433 . S
C3229 N3232 1.384 . S
C3230 H3221 0.929 . S
C3230 C3222 1.378 . S
C3230 C3225 1.350 . S
C3231 H3218 0.929 . S
C3231 C3223 1.433 . S
C3231 N3233 1.384 . S
N3232 C3228 1.427 1_565 S
N3232 C3229 1.384 . S
N3233 C3225 1.427 . S
N3233 C3231 1.384 . S
H3234 C3240 0.930 . S
H3235 C3244 0.930 . S
H3236 C3249 0.929 . S
H3237 C3247 0.929 . S
H3238 C3242 0.929 . S
H3239 C3248 0.955 . S
C3240 H3234 0.930 . S
C3240 C3241 1.367 . S
C3240 C3248 1.335 1_455 S
C3241 C3240 1.367 . S
C3241 C3249 1.433 . S
C3242 H3238 0.929 . S
C3242 C3244 1.378 . S
C3242 C3246 1.350 . S
C3243 C3246 1.463 . S
C3243 C3248 1.368 . S
C3243 N3251 1.427 1_655 S
C3244 H3235 0.930 . S
C3244 C3242 1.378 . S
C3244 C3245 1.367 . S
C3245 C3244 1.367 . S
C3245 C3247 1.433 . S
C3246 C3242 1.350 . S
C3246 C3243 1.463 . S
C3246 N3250 1.427 . S
C3247 H3237 0.929 . S
C3247 C3245 1.433 . S
C3247 N3250 1.384 . S
C3248 H3239 0.955 . S
C3248 C3240 1.335 1_655 S
C3248 C3243 1.368 . S
C3249 H3236 0.929 . S
C3249 C3241 1.433 . S
C3249 N3251 1.384 . S
N3250 C3246 1.427 . S
N3250 C3247 1.384 . S
N3251 C3243 1.427 1_455 S
N3251 C3249 1.384 . S
H3252 C3258 0.930 . S
H3253 C3262 0.930 . S
H3254 C3267 0.929 . S
H3255 C3265 0.929 . S
H3256 C3260 0.929 1_565 S
H3257 C3266 0.929 . S
C3258 H3252 0.930 . S
C3258 C3259 1.367 . S
C3258 C3266 1.378 . S
C3259 C3258 1.367 . S
C3259 C3267 1.433 . S
C3260 H3256 0.929 1_545 S
C3260 C3262 1.378 . S
C3260 C3264 1.350 1_545 S
C3261 C3264 1.463 . S
C3261 C3266 1.350 . S
C3261 N3269 1.427 . S
C3262 H3253 0.930 . S
C3262 C3260 1.378 . S
C3262 C3263 1.367 . S
C3263 C3262 1.367 . S
C3263 C3265 1.433 . S
C3264 C3260 1.350 1_565 S
C3264 C3261 1.463 . S
C3264 N3268 1.445 . S
C3265 H3255 0.929 . S
C3265 C3263 1.433 . S
C3265 N3268 1.338 1_545 S
C3266 H3257 0.929 . S
C3266 C3258 1.378 . S
C3266 C3261 1.350 . S
C3267 H3254 0.929 . S
C3267 C3259 1.433 . S
C3267 N3269 1.384 . S
N3268 C3264 1.445 . S
N3268 C3265 1.338 1_565 S
N3269 C3261 1.427 . S
N3269 C3267 1.384 . S
H3270 C3276 0.930 . S
H3271 C3280 0.930 . S
H3272 C3285 0.929 . S
H3273 C3283 0.929 . S
H3274 C3278 0.949 . S
H3275 C3284 0.929 . S
C3276 H3270 0.930 . S
C3276 C3277 1.367 . S
C3276 C3284 1.378 . S
C3277 C3276 1.367 . S
C3277 C3285 1.433 . S
C3278 H3274 0.949 . S
C3278 C3280 1.344 1_455 S
C3278 C3282 1.364 . S
C3279 C3282 1.463 . S
C3279 C3284 1.350 . S
C3279 N3287 1.427 . S
C3280 H3271 0.930 . S
C3280 C3278 1.344 1_655 S
C3280 C3281 1.367 . S
C3281 C3280 1.367 . S
C3281 C3283 1.433 . S
C3282 C3278 1.364 . S
C3282 C3279 1.463 . S
C3282 N3286 1.427 1_455 S
C3283 H3273 0.929 . S
C3283 C3281 1.433 . S
C3283 N3286 1.384 . S
C3284 H3275 0.929 . S
C3284 C3276 1.378 . S
C3284 C3279 1.350 . S
C3285 H3272 0.929 . S
C3285 C3277 1.433 . S
C3285 N3287 1.384 . S
N3286 C3282 1.427 1_655 S
N3286 C3283 1.384 . S
N3287 C3279 1.427 . S
N3287 C3285 1.384 . S
H3288 C3294 0.930 . S
H3289 C3298 0.930 . S
H3290 C3303 0.929 . S
H3291 C3301 0.929 . S
H3292 C3296 0.929 . S
H3293 C3302 0.929 . S
C3294 H3288 0.930 . S
C3294 C3295 1.367 . S
C3294 C3302 1.378 . S
C3295 C3294 1.367 . S
C3295 C3303 1.433 . S
C3296 H3292 0.929 . S
C3296 C3298 1.377 1_565 S
C3296 C3300 1.350 . S
C3297 C3300 1.463 . S
C3297 C3302 1.350 . S
C3297 N3305 1.427 . S
C3298 H3289 0.930 . S
C3298 C3296 1.377 1_545 S
C3298 C3299 1.367 . S
C3299 C3298 1.367 . S
C3299 C3301 1.433 . S
C3300 C3296 1.350 . S
C3300 C3297 1.463 . S
C3300 N3304 1.427 1_565 S
C3301 H3291 0.929 . S
C3301 C3299 1.433 . S
C3301 N3304 1.384 . S
C3302 H3293 0.929 . S
C3302 C3294 1.378 . S
C3302 C3297 1.350 . S
C3303 H3290 0.929 . S
C3303 C3295 1.433 . S
C3303 N3305 1.384 . S
N3304 C3300 1.427 1_545 S
N3304 C3301 1.384 . S
N3305 C3297 1.427 . S
N3305 C3303 1.384 . S
H3306 C3312 0.930 . S
H3307 C3316 0.930 . S
H3308 C3321 0.929 . S
H3309 C3319 0.929 . S
H3310 C3314 0.917 1_455 S
H3311 C3320 0.929 . S
C3312 H3306 0.930 . S
C3312 C3313 1.367 . S
C3312 C3320 1.378 . S
C3313 C3312 1.367 . S
C3313 C3321 1.433 . S
C3314 H3310 0.917 1_655 S
C3314 C3316 1.401 . S
C3314 C3318 1.339 1_655 S
C3315 C3318 1.463 . S
C3315 C3320 1.350 . S
C3315 N3323 1.427 . S
C3316 H3307 0.930 . S
C3316 C3314 1.401 . S
C3316 C3317 1.367 . S
C3317 C3316 1.367 . S
C3317 C3319 1.433 . S
C3318 C3314 1.339 1_455 S
C3318 C3315 1.463 . S
C3318 N3322 1.427 1_455 S
C3319 H3309 0.929 . S
C3319 C3317 1.433 . S
C3319 N3322 1.384 . S
C3320 H3311 0.929 . S
C3320 C3312 1.378 . S
C3320 C3315 1.350 . S
C3321 H3308 0.929 . S
C3321 C3313 1.433 . S
C3321 N3323 1.384 . S
N3322 C3318 1.427 1_655 S
N3322 C3319 1.384 . S
N3323 C3315 1.427 . S
N3323 C3321 1.384 . S
H3324 C3330 0.930 . S
H3325 C3334 0.930 . S
H3326 C3339 0.929 . S
H3327 C3337 0.929 . S
H3328 C3332 0.924 . S
H3329 C3338 0.929 . S
C3330 H3324 0.930 . S
C3330 C3331 1.367 . S
C3330 C3338 1.378 . S
C3331 C3330 1.367 . S
C3331 C3339 1.433 . S
C3332 H3328 0.924 . S
C3332 C3334 1.386 1_545 S
C3332 C3336 1.346 . S
C3333 C3336 1.463 . S
C3333 C3338 1.350 . S
C3333 N3341 1.427 . S
C3334 H3325 0.930 . S
C3334 C3332 1.386 1_565 S
C3334 C3335 1.367 . S
C3335 C3334 1.367 . S
C3335 C3337 1.433 . S
C3336 C3332 1.346 . S
C3336 C3333 1.463 . S
C3336 N3340 1.427 1_545 S
C3337 H3327 0.929 . S
C3337 C3335 1.433 . S
C3337 N3340 1.384 . S
C3338 H3329 0.929 . S
C3338 C3330 1.378 . S
C3338 C3333 1.350 . S
C3339 H3326 0.929 . S
C3339 C3331 1.433 . S
C3339 N3341 1.384 . S
N3340 C3336 1.427 1_565 S
N3340 C3337 1.384 . S
N3341 C3333 1.427 . S
N3341 C3339 1.384 . S
H3342 C3348 0.930 . S
H3343 C3352 0.930 . S
H3344 C3357 0.929 . S
H3345 C3355 0.929 . S
H3346 C3350 0.929 . S
H3347 C3356 0.929 1_655 S
C3348 H3342 0.930 . S
C3348 C3349 1.367 . S
C3348 C3356 1.378 . S
C3349 C3348 1.367 . S
C3349 C3357 1.433 . S
C3350 H3346 0.929 . S
C3350 C3352 1.378 . S
C3350 C3354 1.350 . S
C3351 C3354 1.463 . S
C3351 C3356 1.350 1_655 S
C3351 N3359 1.419 1_655 S
C3352 H3343 0.930 . S
C3352 C3350 1.378 . S
C3352 C3353 1.367 . S
C3353 C3352 1.367 . S
C3353 C3355 1.433 . S
C3354 C3350 1.350 . S
C3354 C3351 1.463 . S
C3354 N3358 1.427 . S
C3355 H3345 0.929 . S
C3355 C3353 1.433 . S
C3355 N3358 1.384 . S
C3356 H3347 0.929 1_455 S
C3356 C3348 1.378 . S
C3356 C3351 1.350 1_455 S
C3357 H3344 0.929 . S
C3357 C3349 1.433 . S
C3357 N3359 1.403 . S
N3358 C3354 1.427 . S
N3358 C3355 1.384 . S
N3359 C3351 1.419 1_455 S
N3359 C3357 1.403 . S
H3360 C3366 0.930 . S
H3361 C3370 0.930 . S
H3362 C3375 0.929 . S
H3363 C3373 0.929 . S
H3364 C3368 0.957 . S
H3365 C3374 0.929 . S
C3366 H3360 0.930 . S
C3366 C3367 1.367 . S
C3366 C3374 1.378 . S
C3367 C3366 1.367 . S
C3367 C3375 1.433 . S
C3368 H3364 0.957 . S
C3368 C3370 1.331 1_554 S
C3368 C3372 1.369 . S
C3369 C3372 1.463 . S
C3369 C3374 1.350 . S
C3369 N3377 1.427 . S
C3370 H3361 0.930 . S
C3370 C3368 1.331 1_556 S
C3370 C3371 1.367 . S
C3371 C3370 1.367 . S
C3371 C3373 1.433 . S
C3372 C3368 1.369 . S
C3372 C3369 1.463 . S
C3372 N3376 1.427 1_554 S
C3373 H3363 0.929 . S
C3373 C3371 1.433 . S
C3373 N3376 1.384 . S
C3374 H3365 0.929 . S
C3374 C3366 1.378 . S
C3374 C3369 1.350 . S
C3375 H3362 0.929 . S
C3375 C3367 1.433 . S
C3375 N3377 1.384 . S
N3376 C3372 1.427 1_556 S
N3376 C3373 1.384 . S
N3377 C3369 1.427 . S
N3377 C3375 1.384 . S
H3378 C3384 0.930 . S
H3379 C3388 0.930 . S
H3380 C3393 0.929 . S
H3381 C3391 0.929 . S
H3382 C3386 0.892 1_556 S
H3383 C3392 0.929 . S
C3384 H3378 0.930 . S
C3384 C3385 1.367 . S
C3384 C3392 1.378 . S
C3385 C3384 1.367 . S
C3385 C3393 1.433 . S
C3386 H3382 0.892 1_554 S
C3386 C3388 1.459 . S
C3386 C3390 1.311 1_554 S
C3387 C3390 1.463 . S
C3387 C3392 1.350 . S
C3387 N3395 1.427 . S
C3388 H3379 0.930 . S
C3388 C3386 1.459 . S
C3388 C3389 1.367 . S
C3389 C3388 1.367 . S
C3389 C3391 1.433 . S
C3390 C3386 1.311 1_556 S
C3390 C3387 1.463 . S
C3390 N3394 1.409 1_556 S
C3391 H3381 0.929 . S
C3391 C3389 1.433 . S
C3391 N3394 1.425 . S
C3392 H3383 0.929 . S
C3392 C3384 1.378 . S
C3392 C3387 1.350 . S
C3393 H3380 0.929 . S
C3393 C3385 1.433 . S
C3393 N3395 1.384 . S
N3394 C3390 1.409 1_554 S
N3394 C3391 1.425 . S
N3395 C3387 1.427 . S
N3395 C3393 1.384 . S
H3396 C3402 0.930 . S
H3397 C3406 0.930 . S
H3398 C3411 0.929 . S
H3399 C3409 0.929 . S
H3400 C3404 0.929 . S
H3401 C3410 0.895 1_556 S
C3402 H3396 0.930 . S
C3402 C3403 1.367 . S
C3402 C3410 1.449 . S
C3403 C3402 1.367 . S
C3403 C3411 1.433 . S
C3404 H3400 0.929 . S
C3404 C3406 1.378 . S
C3404 C3408 1.350 . S
C3405 C3408 1.463 . S
C3405 C3410 1.316 1_556 S
C3405 N3413 1.405 1_556 S
C3406 H3397 0.930 . S
C3406 C3404 1.378 . S
C3406 C3407 1.367 . S
C3407 C3406 1.367 . S
C3407 C3409 1.433 . S
C3408 C3404 1.350 . S
C3408 C3405 1.463 . S
C3408 N3412 1.427 . S
C3409 H3399 0.929 . S
C3409 C3407 1.433 . S
C3409 N3412 1.384 . S
C3410 H3401 0.895 1_554 S
C3410 C3402 1.449 . S
C3410 C3405 1.316 1_554 S
C3411 H3398 0.929 . S
C3411 C3403 1.433 . S
C3411 N3413 1.435 . S
N3412 C3408 1.427 . S
N3412 C3409 1.384 . S
N3413 C3405 1.405 1_554 S
N3413 C3411 1.435 . S
H3414 C3420 0.930 . S
H3415 C3424 0.930 . S
H3416 C3429 0.929 . S
H3417 C3427 0.929 . S
H3418 C3422 0.929 1_556 S
H3419 C3428 0.929 . S
C3420 H3414 0.930 . S
C3420 C3421 1.367 . S
C3420 C3428 1.378 . S
C3421 C3420 1.367 . S
C3421 C3429 1.433 . S
C3422 H3418 0.929 1_554 S
C3422 C3424 1.378 . S
C3422 C3426 1.350 1_554 S
C3423 C3426 1.463 . S
C3423 C3428 1.350 . S
C3423 N3431 1.427 . S
C3424 H3415 0.930 . S
C3424 C3422 1.378 . S
C3424 C3425 1.367 . S
C3425 C3424 1.367 . S
C3425 C3427 1.433 . S
C3426 C3422 1.350 1_556 S
C3426 C3423 1.463 . S
C3426 N3430 1.442 . S
C3427 H3417 0.929 . S
C3427 C3425 1.433 . S
C3427 N3430 1.347 1_554 S
C3428 H3419 0.929 . S
C3428 C3420 1.378 . S
C3428 C3423 1.350 . S
C3429 H3416 0.929 . S
C3429 C3421 1.433 . S
C3429 N3431 1.384 . S
N3430 C3426 1.442 . S
N3430 C3427 1.347 1_556 S
N3431 C3423 1.427 . S
N3431 C3429 1.384 . S
H3432 C3438 0.930 . S
H3433 C3442 0.930 . S
H3434 C3447 0.929 . S
H3435 C3445 0.929 . S
H3436 C3440 0.929 . S
H3437 C3446 0.932 1_556 S
C3438 H3432 0.930 . S
C3438 C3439 1.367 . S
C3438 C3446 1.371 . S
C3439 C3438 1.367 . S
C3439 C3447 1.433 . S
C3440 H3436 0.929 . S
C3440 C3442 1.378 . S
C3440 C3444 1.350 . S
C3441 C3444 1.463 . S
C3441 C3446 1.353 1_556 S
C3441 N3449 1.427 1_556 S
C3442 H3433 0.930 . S
C3442 C3440 1.378 . S
C3442 C3443 1.367 . S
C3443 C3442 1.367 . S
C3443 C3445 1.433 . S
C3444 C3440 1.350 . S
C3444 C3441 1.463 . S
C3444 N3448 1.427 . S
C3445 H3435 0.929 . S
C3445 C3443 1.433 . S
C3445 N3448 1.384 . S
C3446 H3437 0.932 1_554 S
C3446 C3438 1.371 . S
C3446 C3441 1.353 1_554 S
C3447 H3434 0.929 . S
C3447 C3439 1.433 . S
C3447 N3449 1.384 . S
N3448 C3444 1.427 . S
N3448 C3445 1.384 . S
N3449 C3441 1.427 1_554 S
N3449 C3447 1.384 . S
H3450 C3456 0.930 . S
H3451 C3460 0.930 . S
H3452 C3465 0.929 . S
H3453 C3463 0.929 . S
H3454 C3458 0.929 1_554 S
H3455 C3464 0.929 . S
C3456 H3450 0.930 . S
C3456 C3457 1.367 . S
C3456 C3464 1.378 . S
C3457 C3456 1.367 . S
C3457 C3465 1.433 . S
C3458 H3454 0.929 1_556 S
C3458 C3460 1.378 . S
C3458 C3462 1.350 1_556 S
C3459 C3462 1.463 . S
C3459 C3464 1.350 . S
C3459 N3467 1.427 . S
C3460 H3451 0.930 . S
C3460 C3458 1.378 . S
C3460 C3461 1.367 . S
C3461 C3460 1.367 . S
C3461 C3463 1.433 . S
C3462 C3458 1.350 1_554 S
C3462 C3459 1.463 . S
C3462 N3466 1.430 . S
C3463 H3453 0.929 . S
C3463 C3461 1.433 . S
C3463 N3466 1.376 1_556 S
C3464 H3455 0.929 . S
C3464 C3456 1.378 . S
C3464 C3459 1.350 . S
C3465 H3452 0.929 . S
C3465 C3457 1.433 . S
C3465 N3467 1.384 . S
N3466 C3462 1.430 . S
N3466 C3463 1.376 1_554 S
N3467 C3459 1.427 . S
N3467 C3465 1.384 . S
H3468 C3474 0.930 . S
H3469 C3478 0.930 . S
H3470 C3483 0.929 . S
H3471 C3481 0.929 . S
H3472 C3476 0.929 . S
H3473 C3482 0.929 1_554 S
C3474 H3468 0.930 . S
C3474 C3475 1.367 . S
C3474 C3482 1.378 . S
C3475 C3474 1.367 . S
C3475 C3483 1.433 . S
C3476 H3472 0.929 . S
C3476 C3478 1.378 . S
C3476 C3480 1.350 . S
C3477 C3480 1.463 . S
C3477 C3482 1.350 1_554 S
C3477 N3485 1.425 1_554 S
C3478 H3469 0.930 . S
C3478 C3476 1.378 . S
C3478 C3479 1.367 . S
C3479 C3478 1.367 . S
C3479 C3481 1.433 . S
C3480 C3476 1.350 . S
C3480 C3477 1.463 . S
C3480 N3484 1.427 . S
C3481 H3471 0.929 . S
C3481 C3479 1.433 . S
C3481 N3484 1.384 . S
C3482 H3473 0.929 1_556 S
C3482 C3474 1.378 . S
C3482 C3477 1.350 1_556 S
C3483 H3470 0.929 . S
C3483 C3475 1.433 . S
C3483 N3485 1.390 . S
N3484 C3480 1.427 . S
N3484 C3481 1.384 . S
N3485 C3477 1.425 1_556 S
N3485 C3483 1.390 . S
H3486 C3492 0.930 . S
H3487 C3496 0.930 . S
H3488 C3501 0.929 . S
H3489 C3499 0.929 . S
H3490 C3494 0.929 . S
H3491 C3500 0.914 1_554 S
C3492 H3486 0.930 . S
C3492 C3493 1.367 . S
C3492 C3500 1.406 . S
C3493 C3492 1.367 . S
C3493 C3501 1.433 . S
C3494 H3490 0.929 . S
C3494 C3496 1.378 . S
C3494 C3498 1.350 . S
C3495 C3498 1.463 . S
C3495 C3500 1.337 1_554 S
C3495 N3503 1.384 1_554 S
C3496 H3487 0.930 . S
C3496 C3494 1.378 . S
C3496 C3497 1.367 . S
C3497 C3496 1.367 . S
C3497 C3499 1.433 . S
C3498 C3494 1.350 . S
C3498 C3495 1.463 . S
C3498 N3502 1.427 . S
C3499 H3489 0.929 . S
C3499 C3497 1.433 . S
C3499 N3502 1.384 . S
C3500 H3491 0.914 1_556 S
C3500 C3492 1.406 . S
C3500 C3495 1.337 1_556 S
C3501 H3488 0.929 . S
C3501 C3493 1.433 . S
C3501 N3503 1.478 . S
N3502 C3498 1.427 . S
N3502 C3499 1.384 . S
N3503 C3495 1.384 1_556 S
N3503 C3501 1.478 . S
H3504 C3510 0.930 . S
H3505 C3514 0.930 . S
H3506 C3519 0.929 . S
H3507 C3517 0.929 . S
H3508 C3512 0.929 . S
H3509 C3518 0.929 . S
C3510 H3504 0.930 . S
C3510 C3511 1.367 . S
C3510 C3518 1.378 . S
C3511 C3510 1.367 . S
C3511 C3519 1.433 . S
C3512 H3508 0.929 . S
C3512 C3514 1.378 . S
C3512 C3516 1.350 . S
C3513 C3516 1.463 . S
C3513 C3518 1.350 . S
C3513 N3521 1.427 . S
C3514 H3505 0.930 . S
C3514 C3512 1.378 . S
C3514 C3515 1.367 . S
C3515 C3514 1.367 . S
C3515 C3517 1.433 . S
C3516 C3512 1.350 . S
C3516 C3513 1.463 . S
C3516 N3520 1.427 . S
C3517 H3507 0.929 . S
C3517 C3515 1.433 . S
C3517 N3520 1.384 . S
C3518 H3509 0.929 . S
C3518 C3510 1.378 . S
C3518 C3513 1.350 . S
C3519 H3506 0.929 . S
C3519 C3511 1.433 . S
C3519 N3521 1.384 . S
N3520 C3516 1.427 . S
N3520 C3517 1.384 . S
N3521 C3513 1.427 . S
N3521 C3519 1.384 . S
H3522 C3528 0.930 . S
H3523 C3532 0.930 . S
H3524 C3537 0.929 . S
H3525 C3535 0.929 . S
H3526 C3530 0.929 . S
H3527 C3536 0.929 . S
C3528 H3522 0.930 . S
C3528 C3529 1.367 . S
C3528 C3536 1.378 . S
C3529 C3528 1.367 . S
C3529 C3537 1.433 . S
C3530 H3526 0.929 . S
C3530 C3532 1.378 . S
C3530 C3534 1.350 . S
C3531 C3534 1.463 . S
C3531 C3536 1.350 . S
C3531 N3539 1.427 . S
C3532 H3523 0.930 . S
C3532 C3530 1.378 . S
C3532 C3533 1.367 . S
C3533 C3532 1.367 . S
C3533 C3535 1.433 . S
C3534 C3530 1.350 . S
C3534 C3531 1.463 . S
C3534 N3538 1.427 . S
C3535 H3525 0.929 . S
C3535 C3533 1.433 . S
C3535 N3538 1.384 . S
C3536 H3527 0.929 . S
C3536 C3528 1.378 . S
C3536 C3531 1.350 . S
C3537 H3524 0.929 . S
C3537 C3529 1.433 . S
C3537 N3539 1.384 . S
N3538 C3534 1.427 . S
N3538 C3535 1.384 . S
N3539 C3531 1.427 . S
N3539 C3537 1.384 . S
H3540 C3546 0.930 . S
H3541 C3550 0.930 . S
H3542 C3555 0.929 . S
H3543 C3553 0.929 . S
H3544 C3548 0.929 . S
H3545 C3554 0.929 . S
C3546 H3540 0.930 . S
C3546 C3547 1.367 . S
C3546 C3554 1.378 . S
C3547 C3546 1.367 . S
C3547 C3555 1.433 . S
C3548 H3544 0.929 . S
C3548 C3550 1.378 . S
C3548 C3552 1.350 . S
C3549 C3552 1.463 . S
C3549 C3554 1.350 . S
C3549 N3557 1.427 . S
C3550 H3541 0.930 . S
C3550 C3548 1.378 . S
C3550 C3551 1.367 . S
C3551 C3550 1.367 . S
C3551 C3553 1.433 . S
C3552 C3548 1.350 . S
C3552 C3549 1.463 . S
C3552 N3556 1.427 . S
C3553 H3543 0.929 . S
C3553 C3551 1.433 . S
C3553 N3556 1.384 . S
C3554 H3545 0.929 . S
C3554 C3546 1.378 . S
C3554 C3549 1.350 . S
C3555 H3542 0.929 . S
C3555 C3547 1.433 . S
C3555 N3557 1.384 . S
N3556 C3552 1.427 . S
N3556 C3553 1.384 . S
N3557 C3549 1.427 . S
N3557 C3555 1.384 . S
H3558 C3564 0.930 . S
H3559 C3568 0.930 . S
H3560 C3573 0.929 . S
H3561 C3571 0.929 . S
H3562 C3566 0.929 . S
H3563 C3572 0.929 . S
C3564 H3558 0.930 . S
C3564 C3565 1.367 . S
C3564 C3572 1.378 . S
C3565 C3564 1.367 . S
C3565 C3573 1.433 . S
C3566 H3562 0.929 . S
C3566 C3568 1.378 . S
C3566 C3570 1.350 . S
C3567 C3570 1.463 . S
C3567 C3572 1.350 . S
C3567 N3575 1.427 . S
C3568 H3559 0.930 . S
C3568 C3566 1.378 . S
C3568 C3569 1.367 . S
C3569 C3568 1.367 . S
C3569 C3571 1.433 . S
C3570 C3566 1.350 . S
C3570 C3567 1.463 . S
C3570 N3574 1.427 . S
C3571 H3561 0.929 . S
C3571 C3569 1.433 . S
C3571 N3574 1.384 . S
C3572 H3563 0.929 . S
C3572 C3564 1.378 . S
C3572 C3567 1.350 . S
C3573 H3560 0.929 . S
C3573 C3565 1.433 . S
C3573 N3575 1.384 . S
N3574 C3570 1.427 . S
N3574 C3571 1.384 . S
N3575 C3567 1.427 . S
N3575 C3573 1.384 . S
H3576 C3582 0.930 . S
H3577 C3586 0.930 . S
H3578 C3591 0.929 . S
H3579 C3589 0.929 . S
H3580 C3584 0.929 . S
H3581 C3590 0.929 . S
C3582 H3576 0.930 . S
C3582 C3583 1.367 . S
C3582 C3590 1.378 . S
C3583 C3582 1.367 . S
C3583 C3591 1.433 . S
C3584 H3580 0.929 . S
C3584 C3586 1.378 . S
C3584 C3588 1.350 . S
C3585 C3588 1.463 . S
C3585 C3590 1.350 . S
C3585 N3593 1.427 . S
C3586 H3577 0.930 . S
C3586 C3584 1.378 . S
C3586 C3587 1.367 . S
C3587 C3586 1.367 . S
C3587 C3589 1.433 . S
C3588 C3584 1.350 . S
C3588 C3585 1.463 . S
C3588 N3592 1.427 . S
C3589 H3579 0.929 . S
C3589 C3587 1.433 . S
C3589 N3592 1.384 . S
C3590 H3581 0.929 . S
C3590 C3582 1.378 . S
C3590 C3585 1.350 . S
C3591 H3578 0.929 . S
C3591 C3583 1.433 . S
C3591 N3593 1.384 . S
N3592 C3588 1.427 . S
N3592 C3589 1.384 . S
N3593 C3585 1.427 . S
N3593 C3591 1.384 . S
H3594 C3600 0.930 . S
H3595 C3604 0.930 . S
H3596 C3609 0.929 . S
H3597 C3607 0.929 . S
H3598 C3602 0.929 . S
H3599 C3608 0.929 . S
C3600 H3594 0.930 . S
C3600 C3601 1.367 . S
C3600 C3608 1.378 . S
C3601 C3600 1.367 . S
C3601 C3609 1.433 . S
C3602 H3598 0.929 . S
C3602 C3604 1.378 . S
C3602 C3606 1.350 . S
C3603 C3606 1.463 . S
C3603 C3608 1.350 . S
C3603 N3611 1.427 . S
C3604 H3595 0.930 . S
C3604 C3602 1.378 . S
C3604 C3605 1.367 . S
C3605 C3604 1.367 . S
C3605 C3607 1.433 . S
C3606 C3602 1.350 . S
C3606 C3603 1.463 . S
C3606 N3610 1.427 . S
C3607 H3597 0.929 . S
C3607 C3605 1.433 . S
C3607 N3610 1.384 . S
C3608 H3599 0.929 . S
C3608 C3600 1.378 . S
C3608 C3603 1.350 . S
C3609 H3596 0.929 . S
C3609 C3601 1.433 . S
C3609 N3611 1.384 . S
N3610 C3606 1.427 . S
N3610 C3607 1.384 . S
N3611 C3603 1.427 . S
N3611 C3609 1.384 . S
H3612 C3618 0.930 . S
H3613 C3622 0.930 . S
H3614 C3627 0.929 . S
H3615 C3625 0.929 . S
H3616 C3620 0.929 . S
H3617 C3626 0.929 . S
C3618 H3612 0.930 . S
C3618 C3619 1.367 . S
C3618 C3626 1.378 . S
C3619 C3618 1.367 . S
C3619 C3627 1.433 . S
C3620 H3616 0.929 . S
C3620 C3622 1.378 . S
C3620 C3624 1.350 . S
C3621 C3624 1.463 . S
C3621 C3626 1.350 . S
C3621 N3629 1.427 . S
C3622 H3613 0.930 . S
C3622 C3620 1.378 . S
C3622 C3623 1.367 . S
C3623 C3622 1.367 . S
C3623 C3625 1.433 . S
C3624 C3620 1.350 . S
C3624 C3621 1.463 . S
C3624 N3628 1.427 . S
C3625 H3615 0.929 . S
C3625 C3623 1.433 . S
C3625 N3628 1.384 . S
C3626 H3617 0.929 . S
C3626 C3618 1.378 . S
C3626 C3621 1.350 . S
C3627 H3614 0.929 . S
C3627 C3619 1.433 . S
C3627 N3629 1.384 . S
N3628 C3624 1.427 . S
N3628 C3625 1.384 . S
N3629 C3621 1.427 . S
N3629 C3627 1.384 . S
H3630 C3636 0.930 . S
H3631 C3640 0.930 . S
H3632 C3645 0.929 . S
H3633 C3643 0.929 . S
H3634 C3638 0.929 . S
H3635 C3644 0.929 . S
C3636 H3630 0.930 . S
C3636 C3637 1.367 . S
C3636 C3644 1.378 . S
C3637 C3636 1.367 . S
C3637 C3645 1.433 . S
C3638 H3634 0.929 . S
C3638 C3640 1.378 . S
C3638 C3642 1.350 . S
C3639 C3642 1.463 . S
C3639 C3644 1.350 . S
C3639 N3647 1.427 . S
C3640 H3631 0.930 . S
C3640 C3638 1.378 . S
C3640 C3641 1.367 . S
C3641 C3640 1.367 . S
C3641 C3643 1.433 . S
C3642 C3638 1.350 . S
C3642 C3639 1.463 . S
C3642 N3646 1.427 . S
C3643 H3633 0.929 . S
C3643 C3641 1.433 . S
C3643 N3646 1.384 . S
C3644 H3635 0.929 . S
C3644 C3636 1.378 . S
C3644 C3639 1.350 . S
C3645 H3632 0.929 . S
C3645 C3637 1.433 . S
C3645 N3647 1.384 . S
N3646 C3642 1.427 . S
N3646 C3643 1.384 . S
N3647 C3639 1.427 . S
N3647 C3645 1.384 . S
H3648 C3654 0.930 . S
H3649 C3658 0.930 . S
H3650 C3663 0.929 . S
H3651 C3661 0.929 . S
H3652 C3656 0.929 . S
H3653 C3662 0.929 . S
C3654 H3648 0.930 . S
C3654 C3655 1.367 . S
C3654 C3662 1.378 . S
C3655 C3654 1.367 . S
C3655 C3663 1.433 . S
C3656 H3652 0.929 . S
C3656 C3658 1.378 . S
C3656 C3660 1.350 . S
C3657 C3660 1.463 . S
C3657 C3662 1.350 . S
C3657 N3665 1.427 . S
C3658 H3649 0.930 . S
C3658 C3656 1.378 . S
C3658 C3659 1.367 . S
C3659 C3658 1.367 . S
C3659 C3661 1.433 . S
C3660 C3656 1.350 . S
C3660 C3657 1.463 . S
C3660 N3664 1.427 . S
C3661 H3651 0.929 . S
C3661 C3659 1.433 . S
C3661 N3664 1.384 . S
C3662 H3653 0.929 . S
C3662 C3654 1.378 . S
C3662 C3657 1.350 . S
C3663 H3650 0.929 . S
C3663 C3655 1.433 . S
C3663 N3665 1.384 . S
N3664 C3660 1.427 . S
N3664 C3661 1.384 . S
N3665 C3657 1.427 . S
N3665 C3663 1.384 . S
H3666 C3672 0.930 . S
H3667 C3676 0.930 . S
H3668 C3681 0.929 . S
H3669 C3679 0.929 . S
H3670 C3674 0.929 . S
H3671 C3680 0.929 . S
C3672 H3666 0.930 . S
C3672 C3673 1.367 . S
C3672 C3680 1.378 . S
C3673 C3672 1.367 . S
C3673 C3681 1.433 . S
C3674 H3670 0.929 . S
C3674 C3676 1.378 . S
C3674 C3678 1.350 . S
C3675 C3678 1.463 . S
C3675 C3680 1.350 . S
C3675 N3683 1.427 . S
C3676 H3667 0.930 . S
C3676 C3674 1.378 . S
C3676 C3677 1.367 . S
C3677 C3676 1.367 . S
C3677 C3679 1.433 . S
C3678 C3674 1.350 . S
C3678 C3675 1.463 . S
C3678 N3682 1.427 . S
C3679 H3669 0.929 . S
C3679 C3677 1.433 . S
C3679 N3682 1.384 . S
C3680 H3671 0.929 . S
C3680 C3672 1.378 . S
C3680 C3675 1.350 . S
C3681 H3668 0.929 . S
C3681 C3673 1.433 . S
C3681 N3683 1.384 . S
N3682 C3678 1.427 . S
N3682 C3679 1.384 . S
N3683 C3675 1.427 . S
N3683 C3681 1.384 . S
H3684 C3690 0.930 . S
H3685 C3694 0.930 . S
H3686 C3699 0.929 . S
H3687 C3697 0.929 . S
H3688 C3692 0.929 . S
H3689 C3698 0.929 . S
C3690 H3684 0.930 . S
C3690 C3691 1.367 . S
C3690 C3698 1.378 . S
C3691 C3690 1.367 . S
C3691 C3699 1.433 . S
C3692 H3688 0.929 . S
C3692 C3694 1.378 . S
C3692 C3696 1.350 . S
C3693 C3696 1.463 . S
C3693 C3698 1.350 . S
C3693 N3701 1.427 . S
C3694 H3685 0.930 . S
C3694 C3692 1.378 . S
C3694 C3695 1.367 . S
C3695 C3694 1.367 . S
C3695 C3697 1.433 . S
C3696 C3692 1.350 . S
C3696 C3693 1.463 . S
C3696 N3700 1.427 . S
C3697 H3687 0.929 . S
C3697 C3695 1.433 . S
C3697 N3700 1.384 . S
C3698 H3689 0.929 . S
C3698 C3690 1.378 . S
C3698 C3693 1.350 . S
C3699 H3686 0.929 . S
C3699 C3691 1.433 . S
C3699 N3701 1.384 . S
N3700 C3696 1.427 . S
N3700 C3697 1.384 . S
N3701 C3693 1.427 . S
N3701 C3699 1.384 . S
H3702 C3708 0.930 . S
H3703 C3712 0.930 . S
H3704 C3717 0.929 . S
H3705 C3715 0.929 . S
H3706 C3710 0.929 . S
H3707 C3716 0.929 . S
C3708 H3702 0.930 . S
C3708 C3709 1.367 . S
C3708 C3716 1.378 . S
C3709 C3708 1.367 . S
C3709 C3717 1.433 . S
C3710 H3706 0.929 . S
C3710 C3712 1.378 . S
C3710 C3714 1.350 . S
C3711 C3714 1.463 . S
C3711 C3716 1.350 . S
C3711 N3719 1.427 . S
C3712 H3703 0.930 . S
C3712 C3710 1.378 . S
C3712 C3713 1.367 . S
C3713 C3712 1.367 . S
C3713 C3715 1.433 . S
C3714 C3710 1.350 . S
C3714 C3711 1.463 . S
C3714 N3718 1.427 . S
C3715 H3705 0.929 . S
C3715 C3713 1.433 . S
C3715 N3718 1.384 . S
C3716 H3707 0.929 . S
C3716 C3708 1.378 . S
C3716 C3711 1.350 . S
C3717 H3704 0.929 . S
C3717 C3709 1.433 . S
C3717 N3719 1.384 . S
N3718 C3714 1.427 . S
N3718 C3715 1.384 . S
N3719 C3711 1.427 . S
N3719 C3717 1.384 . S
H3720 C3726 0.930 . S
H3721 C3730 0.930 . S
H3722 C3735 0.929 . S
H3723 C3733 0.929 . S
H3724 C3728 0.929 . S
H3725 C3734 0.929 . S
C3726 H3720 0.930 . S
C3726 C3727 1.367 . S
C3726 C3734 1.378 . S
C3727 C3726 1.367 . S
C3727 C3735 1.433 . S
C3728 H3724 0.929 . S
C3728 C3730 1.378 . S
C3728 C3732 1.350 . S
C3729 C3732 1.463 . S
C3729 C3734 1.350 . S
C3729 N3737 1.427 . S
C3730 H3721 0.930 . S
C3730 C3728 1.378 . S
C3730 C3731 1.367 . S
C3731 C3730 1.367 . S
C3731 C3733 1.433 . S
C3732 C3728 1.350 . S
C3732 C3729 1.463 . S
C3732 N3736 1.427 . S
C3733 H3723 0.929 . S
C3733 C3731 1.433 . S
C3733 N3736 1.384 . S
C3734 H3725 0.929 . S
C3734 C3726 1.378 . S
C3734 C3729 1.350 . S
C3735 H3722 0.929 . S
C3735 C3727 1.433 . S
C3735 N3737 1.384 . S
N3736 C3732 1.427 . S
N3736 C3733 1.384 . S
N3737 C3729 1.427 . S
N3737 C3735 1.384 . S
H3738 C3744 0.930 . S
H3739 C3748 0.930 . S
H3740 C3753 0.929 . S
H3741 C3751 0.929 . S
H3742 C3746 0.929 . S
H3743 C3752 0.929 . S
C3744 H3738 0.930 . S
C3744 C3745 1.367 . S
C3744 C3752 1.378 . S
C3745 C3744 1.367 . S
C3745 C3753 1.433 . S
C3746 H3742 0.929 . S
C3746 C3748 1.378 . S
C3746 C3750 1.350 . S
C3747 C3750 1.463 . S
C3747 C3752 1.350 . S
C3747 N3755 1.427 . S
C3748 H3739 0.930 . S
C3748 C3746 1.378 . S
C3748 C3749 1.367 . S
C3749 C3748 1.367 . S
C3749 C3751 1.433 . S
C3750 C3746 1.350 . S
C3750 C3747 1.463 . S
C3750 N3754 1.427 . S
C3751 H3741 0.929 . S
C3751 C3749 1.433 . S
C3751 N3754 1.384 . S
C3752 H3743 0.929 . S
C3752 C3744 1.378 . S
C3752 C3747 1.350 . S
C3753 H3740 0.929 . S
C3753 C3745 1.433 . S
C3753 N3755 1.384 . S
N3754 C3750 1.427 . S
N3754 C3751 1.384 . S
N3755 C3747 1.427 . S
N3755 C3753 1.384 . S
H3756 C3762 0.930 . S
H3757 C3766 0.930 . S
H3758 C3771 0.929 . S
H3759 C3769 0.929 . S
H3760 C3764 0.929 . S
H3761 C3770 0.929 . S
C3762 H3756 0.930 . S
C3762 C3763 1.367 . S
C3762 C3770 1.378 . S
C3763 C3762 1.367 . S
C3763 C3771 1.433 . S
C3764 H3760 0.929 . S
C3764 C3766 1.378 . S
C3764 C3768 1.350 . S
C3765 C3768 1.463 . S
C3765 C3770 1.350 . S
C3765 N3773 1.427 . S
C3766 H3757 0.930 . S
C3766 C3764 1.378 . S
C3766 C3767 1.367 . S
C3767 C3766 1.367 . S
C3767 C3769 1.433 . S
C3768 C3764 1.350 . S
C3768 C3765 1.463 . S
C3768 N3772 1.427 . S
C3769 H3759 0.929 . S
C3769 C3767 1.433 . S
C3769 N3772 1.384 . S
C3770 H3761 0.929 . S
C3770 C3762 1.378 . S
C3770 C3765 1.350 . S
C3771 H3758 0.929 . S
C3771 C3763 1.433 . S
C3771 N3773 1.384 . S
N3772 C3768 1.427 . S
N3772 C3769 1.384 . S
N3773 C3765 1.427 . S
N3773 C3771 1.384 . S
H3774 C3780 0.930 . S
H3775 C3784 0.930 . S
H3776 C3789 0.929 . S
H3777 C3787 0.929 . S
H3778 C3782 0.929 . S
H3779 C3788 0.929 . S
C3780 H3774 0.930 . S
C3780 C3781 1.367 . S
C3780 C3788 1.378 . S
C3781 C3780 1.367 . S
C3781 C3789 1.433 . S
C3782 H3778 0.929 . S
C3782 C3784 1.378 . S
C3782 C3786 1.350 . S
C3783 C3786 1.463 . S
C3783 C3788 1.350 . S
C3783 N3791 1.427 . S
C3784 H3775 0.930 . S
C3784 C3782 1.378 . S
C3784 C3785 1.367 . S
C3785 C3784 1.367 . S
C3785 C3787 1.433 . S
C3786 C3782 1.350 . S
C3786 C3783 1.463 . S
C3786 N3790 1.427 . S
C3787 H3777 0.929 . S
C3787 C3785 1.433 . S
C3787 N3790 1.384 . S
C3788 H3779 0.929 . S
C3788 C3780 1.378 . S
C3788 C3783 1.350 . S
C3789 H3776 0.929 . S
C3789 C3781 1.433 . S
C3789 N3791 1.384 . S
N3790 C3786 1.427 . S
N3790 C3787 1.384 . S
N3791 C3783 1.427 . S
N3791 C3789 1.384 . S
H3792 C3798 0.930 . S
H3793 C3802 0.930 . S
H3794 C3807 0.929 . S
H3795 C3805 0.929 . S
H3796 C3800 0.929 . S
H3797 C3806 0.929 . S
C3798 H3792 0.930 . S
C3798 C3799 1.367 . S
C3798 C3806 1.378 . S
C3799 C3798 1.367 . S
C3799 C3807 1.433 . S
C3800 H3796 0.929 . S
C3800 C3802 1.378 . S
C3800 C3804 1.350 . S
C3801 C3804 1.463 . S
C3801 C3806 1.350 . S
C3801 N3809 1.427 . S
C3802 H3793 0.930 . S
C3802 C3800 1.378 . S
C3802 C3803 1.367 . S
C3803 C3802 1.367 . S
C3803 C3805 1.433 . S
C3804 C3800 1.350 . S
C3804 C3801 1.463 . S
C3804 N3808 1.427 . S
C3805 H3795 0.929 . S
C3805 C3803 1.433 . S
C3805 N3808 1.384 . S
C3806 H3797 0.929 . S
C3806 C3798 1.378 . S
C3806 C3801 1.350 . S
C3807 H3794 0.929 . S
C3807 C3799 1.433 . S
C3807 N3809 1.384 . S
N3808 C3804 1.427 . S
N3808 C3805 1.384 . S
N3809 C3801 1.427 . S
N3809 C3807 1.384 . S
H3810 C3816 0.930 . S
H3811 C3820 0.930 . S
H3812 C3825 0.929 . S
H3813 C3823 0.929 . S
H3814 C3818 0.929 . S
H3815 C3824 0.929 . S
C3816 H3810 0.930 . S
C3816 C3817 1.367 . S
C3816 C3824 1.378 . S
C3817 C3816 1.367 . S
C3817 C3825 1.433 . S
C3818 H3814 0.929 . S
C3818 C3820 1.378 . S
C3818 C3822 1.350 . S
C3819 C3822 1.463 . S
C3819 C3824 1.350 . S
C3819 N3827 1.427 . S
C3820 H3811 0.930 . S
C3820 C3818 1.378 . S
C3820 C3821 1.367 . S
C3821 C3820 1.367 . S
C3821 C3823 1.433 . S
C3822 C3818 1.350 . S
C3822 C3819 1.463 . S
C3822 N3826 1.427 . S
C3823 H3813 0.929 . S
C3823 C3821 1.433 . S
C3823 N3826 1.384 . S
C3824 H3815 0.929 . S
C3824 C3816 1.378 . S
C3824 C3819 1.350 . S
C3825 H3812 0.929 . S
C3825 C3817 1.433 . S
C3825 N3827 1.384 . S
N3826 C3822 1.427 . S
N3826 C3823 1.384 . S
N3827 C3819 1.427 . S
N3827 C3825 1.384 . S
H3828 C3834 0.930 . S
H3829 C3838 0.930 . S
H3830 C3843 0.929 . S
H3831 C3841 0.929 . S
H3832 C3836 0.929 . S
H3833 C3842 0.929 . S
C3834 H3828 0.930 . S
C3834 C3835 1.367 . S
C3834 C3842 1.378 . S
C3835 C3834 1.367 . S
C3835 C3843 1.433 . S
C3836 H3832 0.929 . S
C3836 C3838 1.378 . S
C3836 C3840 1.350 . S
C3837 C3840 1.463 . S
C3837 C3842 1.350 . S
C3837 N3845 1.427 . S
C3838 H3829 0.930 . S
C3838 C3836 1.378 . S
C3838 C3839 1.367 . S
C3839 C3838 1.367 . S
C3839 C3841 1.433 . S
C3840 C3836 1.350 . S
C3840 C3837 1.463 . S
C3840 N3844 1.427 . S
C3841 H3831 0.929 . S
C3841 C3839 1.433 . S
C3841 N3844 1.384 . S
C3842 H3833 0.929 . S
C3842 C3834 1.378 . S
C3842 C3837 1.350 . S
C3843 H3830 0.929 . S
C3843 C3835 1.433 . S
C3843 N3845 1.384 . S
N3844 C3840 1.427 . S
N3844 C3841 1.384 . S
N3845 C3837 1.427 . S
N3845 C3843 1.384 . S
H3846 C3852 0.930 . S
H3847 C3856 0.930 . S
H3848 C3861 0.929 . S
H3849 C3859 0.929 . S
H3850 C3854 0.929 . S
H3851 C3860 0.929 . S
C3852 H3846 0.930 . S
C3852 C3853 1.367 . S
C3852 C3860 1.378 . S
C3853 C3852 1.367 . S
C3853 C3861 1.433 . S
C3854 H3850 0.929 . S
C3854 C3856 1.378 . S
C3854 C3858 1.350 . S
C3855 C3858 1.463 . S
C3855 C3860 1.350 . S
C3855 N3863 1.427 . S
C3856 H3847 0.930 . S
C3856 C3854 1.378 . S
C3856 C3857 1.367 . S
C3857 C3856 1.367 . S
C3857 C3859 1.433 . S
C3858 C3854 1.350 . S
C3858 C3855 1.463 . S
C3858 N3862 1.427 . S
C3859 H3849 0.929 . S
C3859 C3857 1.433 . S
C3859 N3862 1.384 . S
C3860 H3851 0.929 . S
C3860 C3852 1.378 . S
C3860 C3855 1.350 . S
C3861 H3848 0.929 . S
C3861 C3853 1.433 . S
C3861 N3863 1.384 . S
N3862 C3858 1.427 . S
N3862 C3859 1.384 . S
N3863 C3855 1.427 . S
N3863 C3861 1.384 . S
H3864 C3870 0.930 . S
H3865 C3874 0.930 . S
H3866 C3879 0.929 . S
H3867 C3877 0.929 . S
H3868 C3872 0.929 . S
H3869 C3878 0.929 . S
C3870 H3864 0.930 . S
C3870 C3871 1.367 . S
C3870 C3878 1.378 . S
C3871 C3870 1.367 . S
C3871 C3879 1.433 . S
C3872 H3868 0.929 . S
C3872 C3874 1.378 . S
C3872 C3876 1.350 . S
C3873 C3876 1.463 . S
C3873 C3878 1.350 . S
C3873 N3881 1.427 . S
C3874 H3865 0.930 . S
C3874 C3872 1.378 . S
C3874 C3875 1.367 . S
C3875 C3874 1.367 . S
C3875 C3877 1.433 . S
C3876 C3872 1.350 . S
C3876 C3873 1.463 . S
C3876 N3880 1.427 . S
C3877 H3867 0.929 . S
C3877 C3875 1.433 . S
C3877 N3880 1.384 . S
C3878 H3869 0.929 . S
C3878 C3870 1.378 . S
C3878 C3873 1.350 . S
C3879 H3866 0.929 . S
C3879 C3871 1.433 . S
C3879 N3881 1.384 . S
N3880 C3876 1.427 . S
N3880 C3877 1.384 . S
N3881 C3873 1.427 . S
N3881 C3879 1.384 . S
H3882 C3888 0.930 . S
H3883 C3892 0.930 . S
H3884 C3897 0.929 . S
H3885 C3895 0.929 . S
H3886 C3890 0.929 . S
H3887 C3896 0.929 . S
C3888 H3882 0.930 . S
C3888 C3889 1.367 . S
C3888 C3896 1.378 . S
C3889 C3888 1.367 . S
C3889 C3897 1.433 . S
C3890 H3886 0.929 . S
C3890 C3892 1.378 . S
C3890 C3894 1.350 . S
C3891 C3894 1.463 . S
C3891 C3896 1.350 . S
C3891 N3899 1.427 . S
C3892 H3883 0.930 . S
C3892 C3890 1.378 . S
C3892 C3893 1.367 . S
C3893 C3892 1.367 . S
C3893 C3895 1.433 . S
C3894 C3890 1.350 . S
C3894 C3891 1.463 . S
C3894 N3898 1.427 . S
C3895 H3885 0.929 . S
C3895 C3893 1.433 . S
C3895 N3898 1.384 . S
C3896 H3887 0.929 . S
C3896 C3888 1.378 . S
C3896 C3891 1.350 . S
C3897 H3884 0.929 . S
C3897 C3889 1.433 . S
C3897 N3899 1.384 . S
N3898 C3894 1.427 . S
N3898 C3895 1.384 . S
N3899 C3891 1.427 . S
N3899 C3897 1.384 . S
H3900 C3906 0.930 . S
H3901 C3910 0.930 . S
H3902 C3915 0.929 . S
H3903 C3913 0.929 . S
H3904 C3908 0.929 . S
H3905 C3914 0.929 . S
C3906 H3900 0.930 . S
C3906 C3907 1.367 . S
C3906 C3914 1.378 . S
C3907 C3906 1.367 . S
C3907 C3915 1.433 . S
C3908 H3904 0.929 . S
C3908 C3910 1.378 . S
C3908 C3912 1.350 . S
C3909 C3912 1.463 . S
C3909 C3914 1.350 . S
C3909 N3917 1.427 . S
C3910 H3901 0.930 . S
C3910 C3908 1.378 . S
C3910 C3911 1.367 . S
C3911 C3910 1.367 . S
C3911 C3913 1.433 . S
C3912 C3908 1.350 . S
C3912 C3909 1.463 . S
C3912 N3916 1.427 . S
C3913 H3903 0.929 . S
C3913 C3911 1.433 . S
C3913 N3916 1.384 . S
C3914 H3905 0.929 . S
C3914 C3906 1.378 . S
C3914 C3909 1.350 . S
C3915 H3902 0.929 . S
C3915 C3907 1.433 . S
C3915 N3917 1.384 . S
N3916 C3912 1.427 . S
N3916 C3913 1.384 . S
N3917 C3909 1.427 . S
N3917 C3915 1.384 . S
H3918 C3924 0.930 . S
H3919 C3928 0.930 . S
H3920 C3933 0.929 . S
H3921 C3931 0.929 . S
H3922 C3926 0.929 . S
H3923 C3932 0.929 . S
C3924 H3918 0.930 . S
C3924 C3925 1.367 . S
C3924 C3932 1.378 . S
C3925 C3924 1.367 . S
C3925 C3933 1.433 . S
C3926 H3922 0.929 . S
C3926 C3928 1.378 . S
C3926 C3930 1.350 . S
C3927 C3930 1.463 . S
C3927 C3932 1.350 . S
C3927 N3935 1.427 . S
C3928 H3919 0.930 . S
C3928 C3926 1.378 . S
C3928 C3929 1.367 . S
C3929 C3928 1.367 . S
C3929 C3931 1.433 . S
C3930 C3926 1.350 . S
C3930 C3927 1.463 . S
C3930 N3934 1.427 . S
C3931 H3921 0.929 . S
C3931 C3929 1.433 . S
C3931 N3934 1.384 . S
C3932 H3923 0.929 . S
C3932 C3924 1.378 . S
C3932 C3927 1.350 . S
C3933 H3920 0.929 . S
C3933 C3925 1.433 . S
C3933 N3935 1.384 . S
N3934 C3930 1.427 . S
N3934 C3931 1.384 . S
N3935 C3927 1.427 . S
N3935 C3933 1.384 . S
H3936 C3942 0.930 . S
H3937 C3946 0.930 . S
H3938 C3951 0.929 . S
H3939 C3949 0.929 . S
H3940 C3944 0.929 . S
H3941 C3950 0.929 . S
C3942 H3936 0.930 . S
C3942 C3943 1.367 . S
C3942 C3950 1.378 . S
C3943 C3942 1.367 . S
C3943 C3951 1.433 . S
C3944 H3940 0.929 . S
C3944 C3946 1.378 . S
C3944 C3948 1.350 . S
C3945 C3948 1.463 . S
C3945 C3950 1.350 . S
C3945 N3953 1.427 . S
C3946 H3937 0.930 . S
C3946 C3944 1.378 . S
C3946 C3947 1.367 . S
C3947 C3946 1.367 . S
C3947 C3949 1.433 . S
C3948 C3944 1.350 . S
C3948 C3945 1.463 . S
C3948 N3952 1.427 . S
C3949 H3939 0.929 . S
C3949 C3947 1.433 . S
C3949 N3952 1.384 . S
C3950 H3941 0.929 . S
C3950 C3942 1.378 . S
C3950 C3945 1.350 . S
C3951 H3938 0.929 . S
C3951 C3943 1.433 . S
C3951 N3953 1.384 . S
N3952 C3948 1.427 . S
N3952 C3949 1.384 . S
N3953 C3945 1.427 . S
N3953 C3951 1.384 . S
H3954 C3960 0.930 . S
H3955 C3964 0.930 . S
H3956 C3969 0.929 . S
H3957 C3967 0.929 . S
H3958 C3962 0.929 . S
H3959 C3968 0.929 . S
C3960 H3954 0.930 . S
C3960 C3961 1.367 . S
C3960 C3968 1.378 . S
C3961 C3960 1.367 . S
C3961 C3969 1.433 . S
C3962 H3958 0.929 . S
C3962 C3964 1.378 . S
C3962 C3966 1.350 . S
C3963 C3966 1.463 . S
C3963 C3968 1.350 . S
C3963 N3971 1.427 . S
C3964 H3955 0.930 . S
C3964 C3962 1.378 . S
C3964 C3965 1.367 . S
C3965 C3964 1.367 . S
C3965 C3967 1.433 . S
C3966 C3962 1.350 . S
C3966 C3963 1.463 . S
C3966 N3970 1.427 . S
C3967 H3957 0.929 . S
C3967 C3965 1.433 . S
C3967 N3970 1.384 . S
C3968 H3959 0.929 . S
C3968 C3960 1.378 . S
C3968 C3963 1.350 . S
C3969 H3956 0.929 . S
C3969 C3961 1.433 . S
C3969 N3971 1.384 . S
N3970 C3966 1.427 . S
N3970 C3967 1.384 . S
N3971 C3963 1.427 . S
N3971 C3969 1.384 . S
H3972 C3978 0.930 . S
H3973 C3982 0.930 . S
H3974 C3987 0.929 . S
H3975 C3985 0.929 . S
H3976 C3980 0.929 . S
H3977 C3986 0.929 . S
C3978 H3972 0.930 . S
C3978 C3979 1.367 . S
C3978 C3986 1.378 . S
C3979 C3978 1.367 . S
C3979 C3987 1.433 . S
C3980 H3976 0.929 . S
C3980 C3982 1.378 . S
C3980 C3984 1.350 . S
C3981 C3984 1.463 . S
C3981 C3986 1.350 . S
C3981 N3989 1.427 . S
C3982 H3973 0.930 . S
C3982 C3980 1.378 . S
C3982 C3983 1.367 . S
C3983 C3982 1.367 . S
C3983 C3985 1.433 . S
C3984 C3980 1.350 . S
C3984 C3981 1.463 . S
C3984 N3988 1.427 . S
C3985 H3975 0.929 . S
C3985 C3983 1.433 . S
C3985 N3988 1.384 . S
C3986 H3977 0.929 . S
C3986 C3978 1.378 . S
C3986 C3981 1.350 . S
C3987 H3974 0.929 . S
C3987 C3979 1.433 . S
C3987 N3989 1.384 . S
N3988 C3984 1.427 . S
N3988 C3985 1.384 . S
N3989 C3981 1.427 . S
N3989 C3987 1.384 . S
H3990 C3996 0.930 . S
H3991 C4000 0.930 . S
H3992 C4005 0.929 . S
H3993 C4003 0.929 . S
H3994 C3998 0.929 . S
H3995 C4004 0.929 . S
C3996 H3990 0.930 . S
C3996 C3997 1.367 . S
C3996 C4004 1.378 . S
C3997 C3996 1.367 . S
C3997 C4005 1.433 . S
C3998 H3994 0.929 . S
C3998 C4000 1.378 . S
C3998 C4002 1.350 . S
C3999 C4002 1.463 . S
C3999 C4004 1.350 . S
C3999 N4007 1.427 . S
C4000 H3991 0.930 . S
C4000 C3998 1.378 . S
C4000 C4001 1.367 . S
C4001 C4000 1.367 . S
C4001 C4003 1.433 . S
C4002 C3998 1.350 . S
C4002 C3999 1.463 . S
C4002 N4006 1.427 . S
C4003 H3993 0.929 . S
C4003 C4001 1.433 . S
C4003 N4006 1.384 . S
C4004 H3995 0.929 . S
C4004 C3996 1.378 . S
C4004 C3999 1.350 . S
C4005 H3992 0.929 . S
C4005 C3997 1.433 . S
C4005 N4007 1.384 . S
N4006 C4002 1.427 . S
N4006 C4003 1.384 . S
N4007 C3999 1.427 . S
N4007 C4005 1.384 . S
H4008 C4014 0.930 . S
H4009 C4018 0.930 . S
H4010 C4023 0.929 . S
H4011 C4021 0.929 . S
H4012 C4016 0.929 . S
H4013 C4022 0.929 . S
C4014 H4008 0.930 . S
C4014 C4015 1.367 . S
C4014 C4022 1.378 . S
C4015 C4014 1.367 . S
C4015 C4023 1.433 . S
C4016 H4012 0.929 . S
C4016 C4018 1.378 . S
C4016 C4020 1.350 . S
C4017 C4020 1.463 . S
C4017 C4022 1.350 . S
C4017 N4025 1.427 . S
C4018 H4009 0.930 . S
C4018 C4016 1.378 . S
C4018 C4019 1.367 . S
C4019 C4018 1.367 . S
C4019 C4021 1.433 . S
C4020 C4016 1.350 . S
C4020 C4017 1.463 . S
C4020 N4024 1.427 . S
C4021 H4011 0.929 . S
C4021 C4019 1.433 . S
C4021 N4024 1.384 . S
C4022 H4013 0.929 . S
C4022 C4014 1.378 . S
C4022 C4017 1.350 . S
C4023 H4010 0.929 . S
C4023 C4015 1.433 . S
C4023 N4025 1.384 . S
N4024 C4020 1.427 . S
N4024 C4021 1.384 . S
N4025 C4017 1.427 . S
N4025 C4023 1.384 . S
H4026 C4032 0.930 . S
H4027 C4036 0.930 . S
H4028 C4041 0.929 . S
H4029 C4039 0.929 . S
H4030 C4034 0.929 . S
H4031 C4040 0.929 . S
C4032 H4026 0.930 . S
C4032 C4033 1.367 . S
C4032 C4040 1.378 . S
C4033 C4032 1.367 . S
C4033 C4041 1.433 . S
C4034 H4030 0.929 . S
C4034 C4036 1.378 . S
C4034 C4038 1.350 . S
C4035 C4038 1.463 . S
C4035 C4040 1.350 . S
C4035 N4043 1.427 . S
C4036 H4027 0.930 . S
C4036 C4034 1.378 . S
C4036 C4037 1.367 . S
C4037 C4036 1.367 . S
C4037 C4039 1.433 . S
C4038 C4034 1.350 . S
C4038 C4035 1.463 . S
C4038 N4042 1.427 . S
C4039 H4029 0.929 . S
C4039 C4037 1.433 . S
C4039 N4042 1.384 . S
C4040 H4031 0.929 . S
C4040 C4032 1.378 . S
C4040 C4035 1.350 . S
C4041 H4028 0.929 . S
C4041 C4033 1.433 . S
C4041 N4043 1.384 . S
N4042 C4038 1.427 . S
N4042 C4039 1.384 . S
N4043 C4035 1.427 . S
N4043 C4041 1.384 . S
H4044 C4050 0.930 . S
H4045 C4054 0.930 . S
H4046 C4059 0.929 . S
H4047 C4057 0.929 . S
H4048 C4052 0.929 . S
H4049 C4058 0.929 . S
C4050 H4044 0.930 . S
C4050 C4051 1.367 . S
C4050 C4058 1.378 . S
C4051 C4050 1.367 . S
C4051 C4059 1.433 . S
C4052 H4048 0.929 . S
C4052 C4054 1.378 . S
C4052 C4056 1.350 . S
C4053 C4056 1.463 . S
C4053 C4058 1.350 . S
C4053 N4061 1.427 . S
C4054 H4045 0.930 . S
C4054 C4052 1.378 . S
C4054 C4055 1.367 . S
C4055 C4054 1.367 . S
C4055 C4057 1.433 . S
C4056 C4052 1.350 . S
C4056 C4053 1.463 . S
C4056 N4060 1.427 . S
C4057 H4047 0.929 . S
C4057 C4055 1.433 . S
C4057 N4060 1.384 . S
C4058 H4049 0.929 . S
C4058 C4050 1.378 . S
C4058 C4053 1.350 . S
C4059 H4046 0.929 . S
C4059 C4051 1.433 . S
C4059 N4061 1.384 . S
N4060 C4056 1.427 . S
N4060 C4057 1.384 . S
N4061 C4053 1.427 . S
N4061 C4059 1.384 . S
H4062 C4068 0.930 . S
H4063 C4072 0.930 . S
H4064 C4077 0.929 . S
H4065 C4075 0.929 . S
H4066 C4070 0.929 . S
H4067 C4076 0.929 . S
C4068 H4062 0.930 . S
C4068 C4069 1.367 . S
C4068 C4076 1.378 . S
C4069 C4068 1.367 . S
C4069 C4077 1.433 . S
C4070 H4066 0.929 . S
C4070 C4072 1.378 . S
C4070 C4074 1.350 . S
C4071 C4074 1.463 . S
C4071 C4076 1.350 . S
C4071 N4079 1.427 . S
C4072 H4063 0.930 . S
C4072 C4070 1.378 . S
C4072 C4073 1.367 . S
C4073 C4072 1.367 . S
C4073 C4075 1.433 . S
C4074 C4070 1.350 . S
C4074 C4071 1.463 . S
C4074 N4078 1.427 . S
C4075 H4065 0.929 . S
C4075 C4073 1.433 . S
C4075 N4078 1.384 . S
C4076 H4067 0.929 . S
C4076 C4068 1.378 . S
C4076 C4071 1.350 . S
C4077 H4064 0.929 . S
C4077 C4069 1.433 . S
C4077 N4079 1.384 . S
N4078 C4074 1.427 . S
N4078 C4075 1.384 . S
N4079 C4071 1.427 . S
N4079 C4077 1.384 . S
H4080 C4086 0.930 . S
H4081 C4090 0.930 . S
H4082 C4095 0.929 . S
H4083 C4093 0.929 . S
H4084 C4088 0.929 . S
H4085 C4094 0.929 . S
C4086 H4080 0.930 . S
C4086 C4087 1.367 . S
C4086 C4094 1.378 . S
C4087 C4086 1.367 . S
C4087 C4095 1.433 . S
C4088 H4084 0.929 . S
C4088 C4090 1.378 . S
C4088 C4092 1.350 . S
C4089 C4092 1.463 . S
C4089 C4094 1.350 . S
C4089 N4097 1.427 . S
C4090 H4081 0.930 . S
C4090 C4088 1.378 . S
C4090 C4091 1.367 . S
C4091 C4090 1.367 . S
C4091 C4093 1.433 . S
C4092 C4088 1.350 . S
C4092 C4089 1.463 . S
C4092 N4096 1.427 . S
C4093 H4083 0.929 . S
C4093 C4091 1.433 . S
C4093 N4096 1.384 . S
C4094 H4085 0.929 . S
C4094 C4086 1.378 . S
C4094 C4089 1.350 . S
C4095 H4082 0.929 . S
C4095 C4087 1.433 . S
C4095 N4097 1.384 . S
N4096 C4092 1.427 . S
N4096 C4093 1.384 . S
N4097 C4089 1.427 . S
N4097 C4095 1.384 . S
H4098 C4104 0.930 . S
H4099 C4108 0.930 . S
H4100 C4113 0.929 . S
H4101 C4111 0.929 . S
H4102 C4106 0.929 . S
H4103 C4112 0.929 . S
C4104 H4098 0.930 . S
C4104 C4105 1.367 . S
C4104 C4112 1.378 . S
C4105 C4104 1.367 . S
C4105 C4113 1.433 . S
C4106 H4102 0.929 . S
C4106 C4108 1.378 . S
C4106 C4110 1.350 . S
C4107 C4110 1.463 . S
C4107 C4112 1.350 . S
C4107 N4115 1.427 . S
C4108 H4099 0.930 . S
C4108 C4106 1.378 . S
C4108 C4109 1.367 . S
C4109 C4108 1.367 . S
C4109 C4111 1.433 . S
C4110 C4106 1.350 . S
C4110 C4107 1.463 . S
C4110 N4114 1.427 . S
C4111 H4101 0.929 . S
C4111 C4109 1.433 . S
C4111 N4114 1.384 . S
C4112 H4103 0.929 . S
C4112 C4104 1.378 . S
C4112 C4107 1.350 . S
C4113 H4100 0.929 . S
C4113 C4105 1.433 . S
C4113 N4115 1.384 . S
N4114 C4110 1.427 . S
N4114 C4111 1.384 . S
N4115 C4107 1.427 . S
N4115 C4113 1.384 . S
H4116 C4122 0.930 . S
H4117 C4126 0.930 . S
H4118 C4131 0.929 . S
H4119 C4129 0.929 . S
H4120 C4124 0.929 . S
H4121 C4130 0.929 . S
C4122 H4116 0.930 . S
C4122 C4123 1.367 . S
C4122 C4130 1.378 . S
C4123 C4122 1.367 . S
C4123 C4131 1.433 . S
C4124 H4120 0.929 . S
C4124 C4126 1.378 . S
C4124 C4128 1.350 . S
C4125 C4128 1.463 . S
C4125 C4130 1.350 . S
C4125 N4133 1.427 . S
C4126 H4117 0.930 . S
C4126 C4124 1.378 . S
C4126 C4127 1.367 . S
C4127 C4126 1.367 . S
C4127 C4129 1.433 . S
C4128 C4124 1.350 . S
C4128 C4125 1.463 . S
C4128 N4132 1.427 . S
C4129 H4119 0.929 . S
C4129 C4127 1.433 . S
C4129 N4132 1.384 . S
C4130 H4121 0.929 . S
C4130 C4122 1.378 . S
C4130 C4125 1.350 . S
C4131 H4118 0.929 . S
C4131 C4123 1.433 . S
C4131 N4133 1.384 . S
N4132 C4128 1.427 . S
N4132 C4129 1.384 . S
N4133 C4125 1.427 . S
N4133 C4131 1.384 . S
H4134 C4140 0.930 . S
H4135 C4144 0.930 . S
H4136 C4149 0.929 . S
H4137 C4147 0.929 . S
H4138 C4142 0.929 . S
H4139 C4148 0.929 . S
C4140 H4134 0.930 . S
C4140 C4141 1.367 . S
C4140 C4148 1.378 . S
C4141 C4140 1.367 . S
C4141 C4149 1.433 . S
C4142 H4138 0.929 . S
C4142 C4144 1.378 . S
C4142 C4146 1.350 . S
C4143 C4146 1.463 . S
C4143 C4148 1.350 . S
C4143 N4151 1.427 . S
C4144 H4135 0.930 . S
C4144 C4142 1.378 . S
C4144 C4145 1.367 . S
C4145 C4144 1.367 . S
C4145 C4147 1.433 . S
C4146 C4142 1.350 . S
C4146 C4143 1.463 . S
C4146 N4150 1.427 . S
C4147 H4137 0.929 . S
C4147 C4145 1.433 . S
C4147 N4150 1.384 . S
C4148 H4139 0.929 . S
C4148 C4140 1.378 . S
C4148 C4143 1.350 . S
C4149 H4136 0.929 . S
C4149 C4141 1.433 . S
C4149 N4151 1.384 . S
N4150 C4146 1.427 . S
N4150 C4147 1.384 . S
N4151 C4143 1.427 . S
N4151 C4149 1.384 . S
H4152 C4158 0.930 . S
H4153 C4162 0.930 . S
H4154 C4167 0.929 . S
H4155 C4165 0.929 . S
H4156 C4160 0.929 . S
H4157 C4166 0.929 . S
C4158 H4152 0.930 . S
C4158 C4159 1.367 . S
C4158 C4166 1.378 . S
C4159 C4158 1.367 . S
C4159 C4167 1.433 . S
C4160 H4156 0.929 . S
C4160 C4162 1.378 . S
C4160 C4164 1.350 . S
C4161 C4164 1.463 . S
C4161 C4166 1.350 . S
C4161 N4169 1.427 . S
C4162 H4153 0.930 . S
C4162 C4160 1.378 . S
C4162 C4163 1.367 . S
C4163 C4162 1.367 . S
C4163 C4165 1.433 . S
C4164 C4160 1.350 . S
C4164 C4161 1.463 . S
C4164 N4168 1.427 . S
C4165 H4155 0.929 . S
C4165 C4163 1.433 . S
C4165 N4168 1.384 . S
C4166 H4157 0.929 . S
C4166 C4158 1.378 . S
C4166 C4161 1.350 . S
C4167 H4154 0.929 . S
C4167 C4159 1.433 . S
C4167 N4169 1.384 . S
N4168 C4164 1.427 . S
N4168 C4165 1.384 . S
N4169 C4161 1.427 . S
N4169 C4167 1.384 . S
H4170 C4176 0.930 . S
H4171 C4180 0.930 . S
H4172 C4185 0.929 . S
H4173 C4183 0.929 . S
H4174 C4178 0.929 . S
H4175 C4184 0.929 . S
C4176 H4170 0.930 . S
C4176 C4177 1.367 . S
C4176 C4184 1.378 . S
C4177 C4176 1.367 . S
C4177 C4185 1.433 . S
C4178 H4174 0.929 . S
C4178 C4180 1.378 . S
C4178 C4182 1.350 . S
C4179 C4182 1.463 . S
C4179 C4184 1.350 . S
C4179 N4187 1.427 . S
C4180 H4171 0.930 . S
C4180 C4178 1.378 . S
C4180 C4181 1.367 . S
C4181 C4180 1.367 . S
C4181 C4183 1.433 . S
C4182 C4178 1.350 . S
C4182 C4179 1.463 . S
C4182 N4186 1.427 . S
C4183 H4173 0.929 . S
C4183 C4181 1.433 . S
C4183 N4186 1.384 . S
C4184 H4175 0.929 . S
C4184 C4176 1.378 . S
C4184 C4179 1.350 . S
C4185 H4172 0.929 . S
C4185 C4177 1.433 . S
C4185 N4187 1.384 . S
N4186 C4182 1.427 . S
N4186 C4183 1.384 . S
N4187 C4179 1.427 . S
N4187 C4185 1.384 . S
H4188 C4194 0.930 . S
H4189 C4198 0.930 . S
H4190 C4203 0.929 . S
H4191 C4201 0.929 . S
H4192 C4196 0.929 . S
H4193 C4202 0.929 . S
C4194 H4188 0.930 . S
C4194 C4195 1.367 . S
C4194 C4202 1.378 . S
C4195 C4194 1.367 . S
C4195 C4203 1.433 . S
C4196 H4192 0.929 . S
C4196 C4198 1.378 . S
C4196 C4200 1.350 . S
C4197 C4200 1.463 . S
C4197 C4202 1.350 . S
C4197 N4205 1.427 . S
C4198 H4189 0.930 . S
C4198 C4196 1.378 . S
C4198 C4199 1.367 . S
C4199 C4198 1.367 . S
C4199 C4201 1.433 . S
C4200 C4196 1.350 . S
C4200 C4197 1.463 . S
C4200 N4204 1.427 . S
C4201 H4191 0.929 . S
C4201 C4199 1.433 . S
C4201 N4204 1.384 . S
C4202 H4193 0.929 . S
C4202 C4194 1.378 . S
C4202 C4197 1.350 . S
C4203 H4190 0.929 . S
C4203 C4195 1.433 . S
C4203 N4205 1.384 . S
N4204 C4200 1.427 . S
N4204 C4201 1.384 . S
N4205 C4197 1.427 . S
N4205 C4203 1.384 . S
H4206 C4212 0.930 . S
H4207 C4216 0.930 . S
H4208 C4221 0.929 . S
H4209 C4219 0.929 . S
H4210 C4214 0.929 . S
H4211 C4220 0.929 . S
C4212 H4206 0.930 . S
C4212 C4213 1.367 . S
C4212 C4220 1.378 . S
C4213 C4212 1.367 . S
C4213 C4221 1.433 . S
C4214 H4210 0.929 . S
C4214 C4216 1.378 . S
C4214 C4218 1.350 . S
C4215 C4218 1.463 . S
C4215 C4220 1.350 . S
C4215 N4223 1.427 . S
C4216 H4207 0.930 . S
C4216 C4214 1.378 . S
C4216 C4217 1.367 . S
C4217 C4216 1.367 . S
C4217 C4219 1.433 . S
C4218 C4214 1.350 . S
C4218 C4215 1.463 . S
C4218 N4222 1.427 . S
C4219 H4209 0.929 . S
C4219 C4217 1.433 . S
C4219 N4222 1.384 . S
C4220 H4211 0.929 . S
C4220 C4212 1.378 . S
C4220 C4215 1.350 . S
C4221 H4208 0.929 . S
C4221 C4213 1.433 . S
C4221 N4223 1.384 . S
N4222 C4218 1.427 . S
N4222 C4219 1.384 . S
N4223 C4215 1.427 . S
N4223 C4221 1.384 . S
H4224 C4230 0.930 . S
H4225 C4234 0.930 . S
H4226 C4239 0.929 . S
H4227 C4237 0.929 . S
H4228 C4232 0.929 . S
H4229 C4238 0.929 . S
C4230 H4224 0.930 . S
C4230 C4231 1.367 . S
C4230 C4238 1.378 . S
C4231 C4230 1.367 . S
C4231 C4239 1.433 . S
C4232 H4228 0.929 . S
C4232 C4234 1.378 . S
C4232 C4236 1.350 . S
C4233 C4236 1.463 . S
C4233 C4238 1.350 . S
C4233 N4241 1.427 . S
C4234 H4225 0.930 . S
C4234 C4232 1.378 . S
C4234 C4235 1.367 . S
C4235 C4234 1.367 . S
C4235 C4237 1.433 . S
C4236 C4232 1.350 . S
C4236 C4233 1.463 . S
C4236 N4240 1.427 . S
C4237 H4227 0.929 . S
C4237 C4235 1.433 . S
C4237 N4240 1.384 . S
C4238 H4229 0.929 . S
C4238 C4230 1.378 . S
C4238 C4233 1.350 . S
C4239 H4226 0.929 . S
C4239 C4231 1.433 . S
C4239 N4241 1.384 . S
N4240 C4236 1.427 . S
N4240 C4237 1.384 . S
N4241 C4233 1.427 . S
N4241 C4239 1.384 . S
H4242 C4248 0.930 . S
H4243 C4252 0.930 . S
H4244 C4257 0.929 . S
H4245 C4255 0.929 . S
H4246 C4250 0.929 . S
H4247 C4256 0.929 . S
C4248 H4242 0.930 . S
C4248 C4249 1.367 . S
C4248 C4256 1.378 . S
C4249 C4248 1.367 . S
C4249 C4257 1.433 . S
C4250 H4246 0.929 . S
C4250 C4252 1.378 . S
C4250 C4254 1.350 . S
C4251 C4254 1.463 . S
C4251 C4256 1.350 . S
C4251 N4259 1.427 . S
C4252 H4243 0.930 . S
C4252 C4250 1.378 . S
C4252 C4253 1.367 . S
C4253 C4252 1.367 . S
C4253 C4255 1.433 . S
C4254 C4250 1.350 . S
C4254 C4251 1.463 . S
C4254 N4258 1.427 . S
C4255 H4245 0.929 . S
C4255 C4253 1.433 . S
C4255 N4258 1.384 . S
C4256 H4247 0.929 . S
C4256 C4248 1.378 . S
C4256 C4251 1.350 . S
C4257 H4244 0.929 . S
C4257 C4249 1.433 . S
C4257 N4259 1.384 . S
N4258 C4254 1.427 . S
N4258 C4255 1.384 . S
N4259 C4251 1.427 . S
N4259 C4257 1.384 . S
H4260 C4266 0.930 . S
H4261 C4270 0.930 . S
H4262 C4275 0.929 . S
H4263 C4273 0.929 . S
H4264 C4268 0.929 . S
H4265 C4274 0.929 . S
C4266 H4260 0.930 . S
C4266 C4267 1.367 . S
C4266 C4274 1.378 . S
C4267 C4266 1.367 . S
C4267 C4275 1.433 . S
C4268 H4264 0.929 . S
C4268 C4270 1.378 . S
C4268 C4272 1.350 . S
C4269 C4272 1.463 . S
C4269 C4274 1.350 . S
C4269 N4277 1.427 . S
C4270 H4261 0.930 . S
C4270 C4268 1.378 . S
C4270 C4271 1.367 . S
C4271 C4270 1.367 . S
C4271 C4273 1.433 . S
C4272 C4268 1.350 . S
C4272 C4269 1.463 . S
C4272 N4276 1.427 . S
C4273 H4263 0.929 . S
C4273 C4271 1.433 . S
C4273 N4276 1.384 . S
C4274 H4265 0.929 . S
C4274 C4266 1.378 . S
C4274 C4269 1.350 . S
C4275 H4262 0.929 . S
C4275 C4267 1.433 . S
C4275 N4277 1.384 . S
N4276 C4272 1.427 . S
N4276 C4273 1.384 . S
N4277 C4269 1.427 . S
N4277 C4275 1.384 . S
H4278 C4284 0.930 . S
H4279 C4288 0.930 . S
H4280 C4293 0.929 . S
H4281 C4291 0.929 . S
H4282 C4286 0.929 . S
H4283 C4292 0.929 . S
C4284 H4278 0.930 . S
C4284 C4285 1.367 . S
C4284 C4292 1.378 . S
C4285 C4284 1.367 . S
C4285 C4293 1.433 . S
C4286 H4282 0.929 . S
C4286 C4288 1.378 . S
C4286 C4290 1.350 . S
C4287 C4290 1.463 . S
C4287 C4292 1.350 . S
C4287 N4295 1.427 . S
C4288 H4279 0.930 . S
C4288 C4286 1.378 . S
C4288 C4289 1.367 . S
C4289 C4288 1.367 . S
C4289 C4291 1.433 . S
C4290 C4286 1.350 . S
C4290 C4287 1.463 . S
C4290 N4294 1.427 . S
C4291 H4281 0.929 . S
C4291 C4289 1.433 . S
C4291 N4294 1.384 . S
C4292 H4283 0.929 . S
C4292 C4284 1.378 . S
C4292 C4287 1.350 . S
C4293 H4280 0.929 . S
C4293 C4285 1.433 . S
C4293 N4295 1.384 . S
N4294 C4290 1.427 . S
N4294 C4291 1.384 . S
N4295 C4287 1.427 . S
N4295 C4293 1.384 . S
H4296 C4302 0.930 . S
H4297 C4306 0.930 . S
H4298 C4311 0.929 . S
H4299 C4309 0.929 . S
H4300 C4304 0.929 . S
H4301 C4310 0.929 . S
C4302 H4296 0.930 . S
C4302 C4303 1.367 . S
C4302 C4310 1.378 . S
C4303 C4302 1.367 . S
C4303 C4311 1.433 . S
C4304 H4300 0.929 . S
C4304 C4306 1.378 . S
C4304 C4308 1.350 . S
C4305 C4308 1.463 . S
C4305 C4310 1.350 . S
C4305 N4313 1.427 . S
C4306 H4297 0.930 . S
C4306 C4304 1.378 . S
C4306 C4307 1.367 . S
C4307 C4306 1.367 . S
C4307 C4309 1.433 . S
C4308 C4304 1.350 . S
C4308 C4305 1.463 . S
C4308 N4312 1.427 . S
C4309 H4299 0.929 . S
C4309 C4307 1.433 . S
C4309 N4312 1.384 . S
C4310 H4301 0.929 . S
C4310 C4302 1.378 . S
C4310 C4305 1.350 . S
C4311 H4298 0.929 . S
C4311 C4303 1.433 . S
C4311 N4313 1.384 . S
N4312 C4308 1.427 . S
N4312 C4309 1.384 . S
N4313 C4305 1.427 . S
N4313 C4311 1.384 . S
H4314 C4320 0.930 . S
H4315 C4324 0.930 . S
H4316 C4329 0.929 . S
H4317 C4327 0.929 . S
H4318 C4322 0.929 . S
H4319 C4328 0.929 . S
C4320 H4314 0.930 . S
C4320 C4321 1.367 . S
C4320 C4328 1.378 . S
C4321 C4320 1.367 . S
C4321 C4329 1.433 . S
C4322 H4318 0.929 . S
C4322 C4324 1.378 . S
C4322 C4326 1.350 . S
C4323 C4326 1.463 . S
C4323 C4328 1.350 . S
C4323 N4331 1.427 . S
C4324 H4315 0.930 . S
C4324 C4322 1.378 . S
C4324 C4325 1.367 . S
C4325 C4324 1.367 . S
C4325 C4327 1.433 . S
C4326 C4322 1.350 . S
C4326 C4323 1.463 . S
C4326 N4330 1.427 . S
C4327 H4317 0.929 . S
C4327 C4325 1.433 . S
C4327 N4330 1.384 . S
C4328 H4319 0.929 . S
C4328 C4320 1.378 . S
C4328 C4323 1.350 . S
C4329 H4316 0.929 . S
C4329 C4321 1.433 . S
C4329 N4331 1.384 . S
N4330 C4326 1.427 . S
N4330 C4327 1.384 . S
N4331 C4323 1.427 . S
N4331 C4329 1.384 . S
H4332 C4338 0.930 . S
H4333 C4342 0.930 . S
H4334 C4347 0.929 . S
H4335 C4345 0.929 . S
H4336 C4340 0.929 . S
H4337 C4346 0.929 . S
C4338 H4332 0.930 . S
C4338 C4339 1.367 . S
C4338 C4346 1.378 . S
C4339 C4338 1.367 . S
C4339 C4347 1.433 . S
C4340 H4336 0.929 . S
C4340 C4342 1.378 . S
C4340 C4344 1.350 . S
C4341 C4344 1.463 . S
C4341 C4346 1.350 . S
C4341 N4349 1.427 . S
C4342 H4333 0.930 . S
C4342 C4340 1.378 . S
C4342 C4343 1.367 . S
C4343 C4342 1.367 . S
C4343 C4345 1.433 . S
C4344 C4340 1.350 . S
C4344 C4341 1.463 . S
C4344 N4348 1.427 . S
C4345 H4335 0.929 . S
C4345 C4343 1.433 . S
C4345 N4348 1.384 . S
C4346 H4337 0.929 . S
C4346 C4338 1.378 . S
C4346 C4341 1.350 . S
C4347 H4334 0.929 . S
C4347 C4339 1.433 . S
C4347 N4349 1.384 . S
N4348 C4344 1.427 . S
N4348 C4345 1.384 . S
N4349 C4341 1.427 . S
N4349 C4347 1.384 . S
H4350 C4356 0.930 . S
H4351 C4360 0.930 . S
H4352 C4365 0.929 . S
H4353 C4363 0.929 . S
H4354 C4358 0.929 . S
H4355 C4364 0.929 . S
C4356 H4350 0.930 . S
C4356 C4357 1.367 . S
C4356 C4364 1.378 . S
C4357 C4356 1.367 . S
C4357 C4365 1.433 . S
C4358 H4354 0.929 . S
C4358 C4360 1.378 . S
C4358 C4362 1.350 . S
C4359 C4362 1.463 . S
C4359 C4364 1.350 . S
C4359 N4367 1.427 . S
C4360 H4351 0.930 . S
C4360 C4358 1.378 . S
C4360 C4361 1.367 . S
C4361 C4360 1.367 . S
C4361 C4363 1.433 . S
C4362 C4358 1.350 . S
C4362 C4359 1.463 . S
C4362 N4366 1.427 . S
C4363 H4353 0.929 . S
C4363 C4361 1.433 . S
C4363 N4366 1.384 . S
C4364 H4355 0.929 . S
C4364 C4356 1.378 . S
C4364 C4359 1.350 . S
C4365 H4352 0.929 . S
C4365 C4357 1.433 . S
C4365 N4367 1.384 . S
N4366 C4362 1.427 . S
N4366 C4363 1.384 . S
N4367 C4359 1.427 . S
N4367 C4365 1.384 . S
H4368 C4374 0.930 . S
H4369 C4378 0.930 . S
H4370 C4383 0.929 . S
H4371 C4381 0.929 . S
H4372 C4376 0.931 . S
H4373 C4382 0.929 . S
C4374 H4368 0.930 . S
C4374 C4375 1.367 . S
C4374 C4382 1.378 . S
C4375 C4374 1.367 . S
C4375 C4383 1.433 . S
C4376 H4372 0.931 . S
C4376 C4378 1.378 . S
C4376 C4380 1.350 1_554 S
C4377 C4380 1.463 . S
C4377 C4382 1.350 . S
C4377 N4385 1.427 . S
C4378 H4369 0.930 . S
C4378 C4376 1.378 . S
C4378 C4379 1.367 . S
C4379 C4378 1.367 . S
C4379 C4381 1.433 . S
C4380 C4376 1.350 1_556 S
C4380 C4377 1.463 . S
C4380 N4384 1.442 . S
C4381 H4371 0.929 . S
C4381 C4379 1.433 . S
C4381 N4384 1.340 1_554 S
C4382 H4373 0.929 . S
C4382 C4374 1.378 . S
C4382 C4377 1.350 . S
C4383 H4370 0.929 . S
C4383 C4375 1.433 . S
C4383 N4385 1.384 . S
N4384 C4380 1.442 . S
N4384 C4381 1.340 1_556 S
N4385 C4377 1.427 . S
N4385 C4383 1.384 . S
H4386 C4392 0.930 . S
H4387 C4396 0.930 . S
H4388 C4401 0.929 . S
H4389 C4399 0.929 . S
H4390 C4394 0.929 . S
H4391 C4400 0.952 . S
C4392 H4386 0.930 . S
C4392 C4393 1.367 . S
C4392 C4400 1.342 1_554 S
C4393 C4392 1.367 . S
C4393 C4401 1.433 . S
C4394 H4390 0.929 . S
C4394 C4396 1.378 . S
C4394 C4398 1.350 . S
C4395 C4398 1.463 . S
C4395 C4400 1.363 . S
C4395 N4403 1.427 1_556 S
C4396 H4387 0.930 . S
C4396 C4394 1.378 . S
C4396 C4397 1.367 . S
C4397 C4396 1.367 . S
C4397 C4399 1.433 . S
C4398 C4394 1.350 . S
C4398 C4395 1.463 . S
C4398 N4402 1.427 . S
C4399 H4389 0.929 . S
C4399 C4397 1.433 . S
C4399 N4402 1.384 . S
C4400 H4391 0.952 . S
C4400 C4392 1.342 1_556 S
C4400 C4395 1.363 . S
C4401 H4388 0.929 . S
C4401 C4393 1.433 . S
C4401 N4403 1.384 . S
N4402 C4398 1.427 . S
N4402 C4399 1.384 . S
N4403 C4395 1.427 1_554 S
N4403 C4401 1.384 . S
H4404 C4410 0.930 . S
H4405 C4414 0.930 . S
H4406 C4419 0.929 . S
H4407 C4417 0.929 . S
H4408 C4412 0.929 . S
H4409 C4418 0.929 1_556 S
C4410 H4404 0.930 . S
C4410 C4411 1.367 . S
C4410 C4418 1.378 . S
C4411 C4410 1.367 . S
C4411 C4419 1.433 . S
C4412 H4408 0.929 . S
C4412 C4414 1.378 . S
C4412 C4416 1.350 . S
C4413 C4416 1.463 . S
C4413 C4418 1.350 1_556 S
C4413 N4421 1.427 1_556 S
C4414 H4405 0.930 . S
C4414 C4412 1.378 . S
C4414 C4415 1.367 . S
C4415 C4414 1.367 . S
C4415 C4417 1.433 . S
C4416 C4412 1.350 . S
C4416 C4413 1.463 . S
C4416 N4420 1.427 . S
C4417 H4407 0.929 . S
C4417 C4415 1.433 . S
C4417 N4420 1.384 . S
C4418 H4409 0.929 1_554 S
C4418 C4410 1.378 . S
C4418 C4413 1.350 1_554 S
C4419 H4406 0.929 . S
C4419 C4411 1.433 . S
C4419 N4421 1.384 . S
N4420 C4416 1.427 . S
N4420 C4417 1.384 . S
N4421 C4413 1.427 1_554 S
N4421 C4419 1.384 . S
H4422 C4428 0.930 . S
H4423 C4432 0.930 . S
H4424 C4437 0.929 . S
H4425 C4435 0.929 . S
H4426 C4430 0.929 . S
H4427 C4436 0.951 . S
C4428 H4422 0.930 . S
C4428 C4429 1.367 . S
C4428 C4436 1.344 1_554 S
C4429 C4428 1.367 . S
C4429 C4437 1.433 . S
C4430 H4426 0.929 . S
C4430 C4432 1.378 . S
C4430 C4434 1.350 . S
C4431 C4434 1.463 . S
C4431 C4436 1.362 . S
C4431 N4439 1.427 1_556 S
C4432 H4423 0.930 . S
C4432 C4430 1.378 . S
C4432 C4433 1.367 . S
C4433 C4432 1.367 . S
C4433 C4435 1.433 . S
C4434 C4430 1.350 . S
C4434 C4431 1.463 . S
C4434 N4438 1.427 . S
C4435 H4425 0.929 . S
C4435 C4433 1.433 . S
C4435 N4438 1.384 . S
C4436 H4427 0.951 . S
C4436 C4428 1.344 1_556 S
C4436 C4431 1.362 . S
C4437 H4424 0.929 . S
C4437 C4429 1.433 . S
C4437 N4439 1.384 . S
N4438 C4434 1.427 . S
N4438 C4435 1.384 . S
N4439 C4431 1.427 1_554 S
N4439 C4437 1.384 . S
H4440 C4446 0.930 . S
H4441 C4450 0.930 . S
H4442 C4455 0.929 . S
H4443 C4453 0.929 . S
H4444 C4448 0.926 . S
H4445 C4454 0.929 . S
C4446 H4440 0.930 . S
C4446 C4447 1.367 . S
C4446 C4454 1.378 . S
C4447 C4446 1.367 . S
C4447 C4455 1.433 . S
C4448 H4444 0.926 . S
C4448 C4450 1.378 . S
C4448 C4452 1.350 1_556 S
C4449 C4452 1.463 . S
C4449 C4454 1.350 . S
C4449 N4457 1.427 . S
C4450 H4441 0.930 . S
C4450 C4448 1.378 . S
C4450 C4451 1.367 . S
C4451 C4450 1.367 . S
C4451 C4453 1.433 . S
C4452 C4448 1.350 1_554 S
C4452 C4449 1.463 . S
C4452 N4456 1.439 . S
C4453 H4443 0.929 . S
C4453 C4451 1.433 . S
C4453 N4456 1.348 1_556 S
C4454 H4445 0.929 . S
C4454 C4446 1.378 . S
C4454 C4449 1.350 . S
C4455 H4442 0.929 . S
C4455 C4447 1.433 . S
C4455 N4457 1.384 . S
N4456 C4452 1.439 . S
N4456 C4453 1.348 1_554 S
N4457 C4449 1.427 . S
N4457 C4455 1.384 . S
H4458 C4464 0.930 . S
H4459 C4468 0.930 . S
H4460 C4473 0.929 . S
H4461 C4471 0.929 . S
H4462 C4466 0.929 . S
H4463 C4472 0.930 . S
C4464 H4458 0.930 . S
C4464 C4465 1.367 . S
C4464 C4472 1.378 . S
C4465 C4464 1.367 . S
C4465 C4473 1.433 . S
C4466 H4462 0.929 . S
C4466 C4468 1.378 . S
C4466 C4470 1.350 . S
C4467 C4470 1.463 . S
C4467 C4472 1.350 1_554 S
C4467 N4475 1.441 . S
C4468 H4459 0.930 . S
C4468 C4466 1.378 . S
C4468 C4469 1.367 . S
C4469 C4468 1.367 . S
C4469 C4471 1.433 . S
C4470 C4466 1.350 . S
C4470 C4467 1.463 . S
C4470 N4474 1.427 . S
C4471 H4461 0.929 . S
C4471 C4469 1.433 . S
C4471 N4474 1.384 . S
C4472 H4463 0.930 . S
C4472 C4464 1.378 . S
C4472 C4467 1.350 1_556 S
C4473 H4460 0.929 . S
C4473 C4465 1.433 . S
C4473 N4475 1.342 1_556 S
N4474 C4470 1.427 . S
N4474 C4471 1.384 . S
N4475 C4467 1.441 . S
N4475 C4473 1.342 1_554 S
H4476 C4482 0.930 . S
H4477 C4486 0.930 . S
H4478 C4491 0.929 . S
H4479 C4489 0.929 . S
H4480 C4484 0.908 1_554 S
H4481 C4490 0.929 . S
C4482 H4476 0.930 . S
C4482 C4483 1.367 . S
C4482 C4490 1.378 . S
C4483 C4482 1.367 . S
C4483 C4491 1.433 . S
C4484 H4480 0.908 1_556 S
C4484 C4486 1.414 . S
C4484 C4488 1.335 1_556 S
C4485 C4488 1.463 . S
C4485 C4490 1.350 . S
C4485 N4493 1.427 . S
C4486 H4477 0.930 . S
C4486 C4484 1.414 . S
C4486 C4487 1.367 . S
C4487 C4486 1.367 . S
C4487 C4489 1.433 . S
C4488 C4484 1.335 1_554 S
C4488 C4485 1.463 . S
C4488 N4492 1.427 1_554 S
C4489 H4479 0.929 . S
C4489 C4487 1.433 . S
C4489 N4492 1.384 . S
C4490 H4481 0.929 . S
C4490 C4482 1.378 . S
C4490 C4485 1.350 . S
C4491 H4478 0.929 . S
C4491 C4483 1.433 . S
C4491 N4493 1.384 . S
N4492 C4488 1.427 1_556 S
N4492 C4489 1.384 . S
N4493 C4485 1.427 . S
N4493 C4491 1.384 . S
H4494 C4500 0.930 . S
H4495 C4504 0.930 . S
H4496 C4509 0.929 . S
H4497 C4507 0.929 . S
H4498 C4502 0.929 . S
H4499 C4508 0.928 . S
C4500 H4494 0.930 . S
C4500 C4501 1.367 . S
C4500 C4508 1.378 . S
C4501 C4500 1.367 . S
C4501 C4509 1.433 . S
C4502 H4498 0.929 . S
C4502 C4504 1.378 . S
C4502 C4506 1.350 . S
C4503 C4506 1.463 . S
C4503 C4508 1.350 1_554 S
C4503 N4511 1.440 . S
C4504 H4495 0.930 . S
C4504 C4502 1.378 . S
C4504 C4505 1.367 . S
C4505 C4504 1.367 . S
C4505 C4507 1.433 . S
C4506 C4502 1.350 . S
C4506 C4503 1.463 . S
C4506 N4510 1.427 . S
C4507 H4497 0.929 . S
C4507 C4505 1.433 . S
C4507 N4510 1.384 . S
C4508 H4499 0.928 . S
C4508 C4500 1.378 . S
C4508 C4503 1.350 1_556 S
C4509 H4496 0.929 . S
C4509 C4501 1.433 . S
C4509 N4511 1.346 1_556 S
N4510 C4506 1.427 . S
N4510 C4507 1.384 . S
N4511 C4503 1.440 . S
N4511 C4509 1.346 1_554 S
H4512 C4518 0.930 . S
H4513 C4522 0.930 . S
H4514 C4527 0.929 . S
H4515 C4525 0.929 . S
H4516 C4520 0.929 1_655 S
H4517 C4526 0.929 . S
C4518 H4512 0.930 . S
C4518 C4519 1.367 . S
C4518 C4526 1.378 . S
C4519 C4518 1.367 . S
C4519 C4527 1.433 . S
C4520 H4516 0.929 1_455 S
C4520 C4522 1.378 . S
C4520 C4524 1.350 1_455 S
C4521 C4524 1.463 . S
C4521 C4526 1.350 . S
C4521 N4529 1.427 . S
C4522 H4513 0.930 . S
C4522 C4520 1.378 . S
C4522 C4523 1.367 . S
C4523 C4522 1.367 . S
C4523 C4525 1.433 . S
C4524 C4520 1.350 1_655 S
C4524 C4521 1.463 . S
C4524 N4528 1.427 1_655 S
C4525 H4515 0.929 . S
C4525 C4523 1.433 . S
C4525 N4528 1.384 . S
C4526 H4517 0.929 . S
C4526 C4518 1.378 . S
C4526 C4521 1.350 . S
C4527 H4514 0.929 . S
C4527 C4519 1.433 . S
C4527 N4529 1.384 . S
N4528 C4524 1.427 1_455 S
N4528 C4525 1.384 . S
N4529 C4521 1.427 . S
N4529 C4527 1.384 . S
H4530 C4536 0.930 . S
H4531 C4540 0.930 . S
H4532 C4545 0.929 . S
H4533 C4543 0.929 . S
H4534 C4538 0.929 . S
H4535 C4544 0.929 1_565 S
C4536 H4530 0.930 . S
C4536 C4537 1.367 . S
C4536 C4544 1.378 . S
C4537 C4536 1.367 . S
C4537 C4545 1.433 . S
C4538 H4534 0.929 . S
C4538 C4540 1.378 . S
C4538 C4542 1.350 . S
C4539 C4542 1.463 . S
C4539 C4544 1.350 1_565 S
C4539 N4547 1.415 1_565 S
C4540 H4531 0.930 . S
C4540 C4538 1.378 . S
C4540 C4541 1.367 . S
C4541 C4540 1.367 . S
C4541 C4543 1.433 . S
C4542 C4538 1.350 . S
C4542 C4539 1.463 . S
C4542 N4546 1.427 . S
C4543 H4533 0.929 . S
C4543 C4541 1.433 . S
C4543 N4546 1.384 . S
C4544 H4535 0.929 1_545 S
C4544 C4536 1.378 . S
C4544 C4539 1.350 1_545 S
C4545 H4532 0.929 . S
C4545 C4537 1.433 . S
C4545 N4547 1.415 . S
N4546 C4542 1.427 . S
N4546 C4543 1.384 . S
N4547 C4539 1.415 1_545 S
N4547 C4545 1.415 . S
H4548 C4554 0.930 . S
H4549 C4558 0.930 . S
H4550 C4563 0.929 . S
H4551 C4561 0.929 . S
H4552 C4556 0.930 1_455 S
H4553 C4562 0.929 . S
C4554 H4548 0.930 . S
C4554 C4555 1.367 . S
C4554 C4562 1.378 . S
C4555 C4554 1.367 . S
C4555 C4563 1.433 . S
C4556 H4552 0.930 1_655 S
C4556 C4558 1.378 . S
C4556 C4560 1.350 1_655 S
C4557 C4560 1.463 . S
C4557 C4562 1.350 . S
C4557 N4565 1.427 . S
C4558 H4549 0.930 . S
C4558 C4556 1.378 . S
C4558 C4559 1.367 . S
C4559 C4558 1.367 . S
C4559 C4561 1.433 . S
C4560 C4556 1.350 1_455 S
C4560 C4557 1.463 . S
C4560 N4564 1.437 . S
C4561 H4551 0.929 . S
C4561 C4559 1.433 . S
C4561 N4564 1.354 1_655 S
C4562 H4553 0.929 . S
C4562 C4554 1.378 . S
C4562 C4557 1.350 . S
C4563 H4550 0.929 . S
C4563 C4555 1.433 . S
C4563 N4565 1.384 . S
N4564 C4560 1.437 . S
N4564 C4561 1.354 1_455 S
N4565 C4557 1.427 . S
N4565 C4563 1.384 . S
H4566 C4572 0.930 . S
H4567 C4576 0.930 . S
H4568 C4581 0.929 . S
H4569 C4579 0.929 . S
H4570 C4574 0.929 . S
H4571 C4580 0.923 . S
C4572 H4566 0.930 . S
C4572 C4573 1.367 . S
C4572 C4580 1.387 1_565 S
C4573 C4572 1.367 . S
C4573 C4581 1.433 . S
C4574 H4570 0.929 . S
C4574 C4576 1.378 . S
C4574 C4578 1.350 . S
C4575 C4578 1.463 . S
C4575 C4580 1.346 . S
C4575 N4583 1.427 1_545 S
C4576 H4567 0.930 . S
C4576 C4574 1.378 . S
C4576 C4577 1.367 . S
C4577 C4576 1.367 . S
C4577 C4579 1.433 . S
C4578 C4574 1.350 . S
C4578 C4575 1.463 . S
C4578 N4582 1.427 . S
C4579 H4569 0.929 . S
C4579 C4577 1.433 . S
C4579 N4582 1.384 . S
C4580 H4571 0.923 . S
C4580 C4572 1.387 1_545 S
C4580 C4575 1.346 . S
C4581 H4568 0.929 . S
C4581 C4573 1.433 . S
C4581 N4583 1.384 . S
N4582 C4578 1.427 . S
N4582 C4579 1.384 . S
N4583 C4575 1.427 1_565 S
N4583 C4581 1.384 . S
H4584 C4590 0.930 . S
H4585 C4594 0.930 . S
H4586 C4599 0.929 . S
H4587 C4597 0.929 . S
H4588 C4592 0.929 . S
H4589 C4598 0.929 1_655 S
C4590 H4584 0.930 . S
C4590 C4591 1.367 . S
C4590 C4598 1.378 . S
C4591 C4590 1.367 . S
C4591 C4599 1.433 . S
C4592 H4588 0.929 . S
C4592 C4594 1.378 . S
C4592 C4596 1.350 . S
C4593 C4596 1.463 . S
C4593 C4598 1.350 1_655 S
C4593 N4601 1.427 1_655 S
C4594 H4585 0.930 . S
C4594 C4592 1.378 . S
C4594 C4595 1.367 . S
C4595 C4594 1.367 . S
C4595 C4597 1.433 . S
C4596 C4592 1.350 . S
C4596 C4593 1.463 . S
C4596 N4600 1.427 . S
C4597 H4587 0.929 . S
C4597 C4595 1.433 . S
C4597 N4600 1.384 . S
C4598 H4589 0.929 1_455 S
C4598 C4590 1.378 . S
C4598 C4593 1.350 1_455 S
C4599 H4586 0.929 . S
C4599 C4591 1.433 . S
C4599 N4601 1.384 . S
N4600 C4596 1.427 . S
N4600 C4597 1.384 . S
N4601 C4593 1.427 1_455 S
N4601 C4599 1.384 . S
H4602 C4608 0.930 . S
H4603 C4612 0.930 . S
H4604 C4617 0.929 . S
H4605 C4615 0.929 . S
H4606 C4610 0.929 . S
H4607 C4616 0.920 1_565 S
C4608 H4602 0.930 . S
C4608 C4609 1.367 . S
C4608 C4616 1.378 . S
C4609 C4608 1.367 . S
C4609 C4617 1.433 . S
C4610 H4606 0.929 . S
C4610 C4612 1.378 . S
C4610 C4614 1.350 . S
C4611 C4614 1.463 . S
C4611 C4616 1.350 1_565 S
C4611 N4619 1.431 . S
C4612 H4603 0.930 . S
C4612 C4610 1.378 . S
C4612 C4613 1.367 . S
C4613 C4612 1.367 . S
C4613 C4615 1.433 . S
C4614 C4610 1.350 . S
C4614 C4611 1.463 . S
C4614 N4618 1.427 . S
C4615 H4605 0.929 . S
C4615 C4613 1.433 . S
C4615 N4618 1.384 . S
C4616 H4607 0.920 1_545 S
C4616 C4608 1.378 . S
C4616 C4611 1.350 1_545 S
C4617 H4604 0.929 . S
C4617 C4609 1.433 . S
C4617 N4619 1.371 1_545 S
N4618 C4614 1.427 . S
N4618 C4615 1.384 . S
N4619 C4611 1.431 . S
N4619 C4617 1.371 1_565 S
H4620 C4626 0.930 . S
H4621 C4630 0.930 . S
H4622 C4635 0.929 . S
H4623 C4633 0.929 . S
H4624 C4628 0.929 . S
H4625 C4634 0.926 . S
C4626 H4620 0.930 . S
C4626 C4627 1.367 . S
C4626 C4634 1.378 . S
C4627 C4626 1.367 . S
C4627 C4635 1.433 . S
C4628 H4624 0.929 . S
C4628 C4630 1.378 . S
C4628 C4632 1.350 . S
C4629 C4632 1.463 . S
C4629 C4634 1.350 1_455 S
C4629 N4637 1.439 . S
C4630 H4621 0.930 . S
C4630 C4628 1.378 . S
C4630 C4631 1.367 . S
C4631 C4630 1.367 . S
C4631 C4633 1.433 . S
C4632 C4628 1.350 . S
C4632 C4629 1.463 . S
C4632 N4636 1.427 . S
C4633 H4623 0.929 . S
C4633 C4631 1.433 . S
C4633 N4636 1.384 . S
C4634 H4625 0.926 . S
C4634 C4626 1.378 . S
C4634 C4629 1.350 1_655 S
C4635 H4622 0.929 . S
C4635 C4627 1.433 . S
C4635 N4637 1.349 1_655 S
N4636 C4632 1.427 . S
N4636 C4633 1.384 . S
N4637 C4629 1.439 . S
N4637 C4635 1.349 1_455 S
H4638 C4644 0.930 . S
H4639 C4648 0.930 . S
H4640 C4653 0.929 . S
H4641 C4651 0.929 . S
H4642 C4646 0.929 . S
H4643 C4652 0.912 1_545 S
C4644 H4638 0.930 . S
C4644 C4645 1.367 . S
C4644 C4652 1.406 . S
C4645 C4644 1.367 . S
C4645 C4653 1.433 . S
C4646 H4642 0.929 . S
C4646 C4648 1.378 . S
C4646 C4650 1.350 . S
C4647 C4650 1.463 . S
C4647 C4652 1.338 1_545 S
C4647 N4655 1.427 1_545 S
C4648 H4639 0.930 . S
C4648 C4646 1.378 . S
C4648 C4649 1.367 . S
C4649 C4648 1.367 . S
C4649 C4651 1.433 . S
C4650 C4646 1.350 . S
C4650 C4647 1.463 . S
C4650 N4654 1.427 . S
C4651 H4641 0.929 . S
C4651 C4649 1.433 . S
C4651 N4654 1.384 . S
C4652 H4643 0.912 1_565 S
C4652 C4644 1.406 . S
C4652 C4647 1.338 1_565 S
C4653 H4640 0.929 . S
C4653 C4645 1.433 . S
C4653 N4655 1.384 . S
N4654 C4650 1.427 . S
N4654 C4651 1.384 . S
N4655 C4647 1.427 1_565 S
N4655 C4653 1.384 . S
H4656 C4662 0.930 . S
H4657 C4666 0.930 . S
H4658 C4671 0.929 . S
H4659 C4669 0.929 . S
H4660 C4664 0.915 1_565 S
H4661 C4670 0.929 . S
C4662 H4656 0.930 . S
C4662 C4663 1.367 . S
C4662 C4670 1.378 . S
C4663 C4662 1.367 . S
C4663 C4671 1.433 . S
C4664 H4660 0.915 1_545 S
C4664 C4666 1.402 . S
C4664 C4668 1.340 1_545 S
C4665 C4668 1.463 . S
C4665 C4670 1.350 . S
C4665 N4673 1.427 . S
C4666 H4657 0.930 . S
C4666 C4664 1.402 . S
C4666 C4667 1.367 . S
C4667 C4666 1.367 . S
C4667 C4669 1.433 . S
C4668 C4664 1.340 1_565 S
C4668 C4665 1.463 . S
C4668 N4672 1.427 1_565 S
C4669 H4659 0.929 . S
C4669 C4667 1.433 . S
C4669 N4672 1.384 . S
C4670 H4661 0.929 . S
C4670 C4662 1.378 . S
C4670 C4665 1.350 . S
C4671 H4658 0.929 . S
C4671 C4663 1.433 . S
C4671 N4673 1.384 . S
N4672 C4668 1.427 1_545 S
N4672 C4669 1.384 . S
N4673 C4665 1.427 . S
N4673 C4671 1.384 . S
H4674 C4680 0.930 . S
H4675 C4684 0.930 . S
H4676 C4689 0.929 . S
H4677 C4687 0.929 . S
H4678 C4682 0.929 . S
H4679 C4688 0.931 . S
C4680 H4674 0.930 . S
C4680 C4681 1.367 . S
C4680 C4688 1.378 . S
C4681 C4680 1.367 . S
C4681 C4689 1.433 . S
C4682 H4678 0.929 . S
C4682 C4684 1.378 . S
C4682 C4686 1.350 . S
C4683 C4686 1.463 . S
C4683 C4688 1.350 1_545 S
C4683 N4691 1.442 . S
C4684 H4675 0.930 . S
C4684 C4682 1.378 . S
C4684 C4685 1.367 . S
C4685 C4684 1.367 . S
C4685 C4687 1.433 . S
C4686 C4682 1.350 . S
C4686 C4683 1.463 . S
C4686 N4690 1.427 . S
C4687 H4677 0.929 . S
C4687 C4685 1.433 . S
C4687 N4690 1.384 . S
C4688 H4679 0.931 . S
C4688 C4680 1.378 . S
C4688 C4683 1.350 1_565 S
C4689 H4676 0.929 . S
C4689 C4681 1.433 . S
C4689 N4691 1.341 1_565 S
N4690 C4686 1.427 . S
N4690 C4687 1.384 . S
N4691 C4683 1.442 . S
N4691 C4689 1.341 1_545 S
H4692 C4698 0.930 . S
H4693 C4702 0.930 . S
H4694 C4707 0.929 . S
H4695 C4705 0.929 . S
H4696 C4700 0.929 . S
H4697 C4706 0.882 1_655 S
C4698 H4692 0.930 . S
C4698 C4699 1.367 . S
C4698 C4706 1.471 . S
C4699 C4698 1.367 . S
C4699 C4707 1.433 . S
C4700 H4696 0.929 . S
C4700 C4702 1.378 . S
C4700 C4704 1.350 . S
C4701 C4704 1.463 . S
C4701 C4706 1.309 1_655 S
C4701 N4709 1.427 1_655 S
C4702 H4693 0.930 . S
C4702 C4700 1.378 . S
C4702 C4703 1.367 . S
C4703 C4702 1.367 . S
C4703 C4705 1.433 . S
C4704 C4700 1.350 . S
C4704 C4701 1.463 . S
C4704 N4708 1.427 . S
C4705 H4695 0.929 . S
C4705 C4703 1.433 . S
C4705 N4708 1.384 . S
C4706 H4697 0.882 1_455 S
C4706 C4698 1.471 . S
C4706 C4701 1.309 1_455 S
C4707 H4694 0.929 . S
C4707 C4699 1.433 . S
C4707 N4709 1.384 . S
N4708 C4704 1.427 . S
N4708 C4705 1.384 . S
N4709 C4701 1.427 1_455 S
N4709 C4707 1.384 . S
H4710 C4716 0.930 . S
H4711 C4720 0.930 . S
H4712 C4725 0.929 . S
H4713 C4723 0.929 . S
H4714 C4718 0.929 . S
H4715 C4724 0.916 1_565 S
C4716 H4710 0.930 . S
C4716 C4717 1.367 . S
C4716 C4724 1.378 . S
C4717 C4716 1.367 . S
C4717 C4725 1.433 . S
C4718 H4714 0.929 . S
C4718 C4720 1.378 . S
C4718 C4722 1.350 . S
C4719 C4722 1.463 . S
C4719 C4724 1.350 1_565 S
C4719 N4727 1.430 . S
C4720 H4711 0.930 . S
C4720 C4718 1.378 . S
C4720 C4721 1.367 . S
C4721 C4720 1.367 . S
C4721 C4723 1.433 . S
C4722 C4718 1.350 . S
C4722 C4719 1.463 . S
C4722 N4726 1.427 . S
C4723 H4713 0.929 . S
C4723 C4721 1.433 . S
C4723 N4726 1.384 . S
C4724 H4715 0.916 1_545 S
C4724 C4716 1.378 . S
C4724 C4719 1.350 1_545 S
C4725 H4712 0.929 . S
C4725 C4717 1.433 . S
C4725 N4727 1.377 1_545 S
N4726 C4722 1.427 . S
N4726 C4723 1.384 . S
N4727 C4719 1.430 . S
N4727 C4725 1.377 1_565 S
H4728 C4734 0.930 . S
H4729 C4738 0.930 . S
H4730 C4743 0.929 . S
H4731 C4741 0.929 . S
H4732 C4736 0.929 . S
H4733 C4742 0.930 . S
C4734 H4728 0.930 . S
C4734 C4735 1.367 . S
C4734 C4742 1.378 . S
C4735 C4734 1.367 . S
C4735 C4743 1.433 . S
C4736 H4732 0.929 . S
C4736 C4738 1.378 . S
C4736 C4740 1.350 . S
C4737 C4740 1.463 . S
C4737 C4742 1.350 1_455 S
C4737 N4745 1.441 . S
C4738 H4729 0.930 . S
C4738 C4736 1.378 . S
C4738 C4739 1.367 . S
C4739 C4738 1.367 . S
C4739 C4741 1.433 . S
C4740 C4736 1.350 . S
C4740 C4737 1.463 . S
C4740 N4744 1.427 . S
C4741 H4731 0.929 . S
C4741 C4739 1.433 . S
C4741 N4744 1.384 . S
C4742 H4733 0.930 . S
C4742 C4734 1.378 . S
C4742 C4737 1.350 1_655 S
C4743 H4730 0.929 . S
C4743 C4735 1.433 . S
C4743 N4745 1.343 1_655 S
N4744 C4740 1.427 . S
N4744 C4741 1.384 . S
N4745 C4737 1.441 . S
N4745 C4743 1.343 1_455 S
H4746 C4752 0.930 . S
H4747 C4756 0.930 . S
H4748 C4761 0.929 . S
H4749 C4759 0.929 . S
H4750 C4754 0.905 1_545 S
H4751 C4760 0.929 . S
C4752 H4746 0.930 . S
C4752 C4753 1.367 . S
C4752 C4760 1.378 . S
C4753 C4752 1.367 . S
C4753 C4761 1.433 . S
C4754 H4750 0.905 1_565 S
C4754 C4756 1.378 . S
C4754 C4758 1.350 1_565 S
C4755 C4758 1.463 . S
C4755 C4760 1.350 . S
C4755 N4763 1.427 . S
C4756 H4747 0.930 . S
C4756 C4754 1.378 . S
C4756 C4757 1.367 . S
C4757 C4756 1.367 . S
C4757 C4759 1.433 . S
C4758 C4754 1.350 1_545 S
C4758 C4755 1.463 . S
C4758 N4762 1.430 1_545 S
C4759 H4749 0.929 . S
C4759 C4757 1.433 . S
C4759 N4762 1.375 . S
C4760 H4751 0.929 . S
C4760 C4752 1.378 . S
C4760 C4755 1.350 . S
C4761 H4748 0.929 . S
C4761 C4753 1.433 . S
C4761 N4763 1.384 . S
N4762 C4758 1.430 1_565 S
N4762 C4759 1.375 . S
N4763 C4755 1.427 . S
N4763 C4761 1.384 . S
H4764 C4770 0.930 . S
H4765 C4774 0.930 . S
H4766 C4779 0.929 . S
H4767 C4777 0.929 . S
H4768 C4772 0.889 1_655 S
H4769 C4778 0.929 . S
C4770 H4764 0.930 . S
C4770 C4771 1.367 . S
C4770 C4778 1.378 . S
C4771 C4770 1.367 . S
C4771 C4779 1.433 . S
C4772 H4768 0.889 1_455 S
C4772 C4774 1.456 . S
C4772 C4776 1.317 1_455 S
C4773 C4776 1.463 . S
C4773 C4778 1.350 . S
C4773 N4781 1.427 . S
C4774 H4765 0.930 . S
C4774 C4772 1.456 . S
C4774 C4775 1.367 . S
C4775 C4774 1.367 . S
C4775 C4777 1.433 . S
C4776 C4772 1.317 1_655 S
C4776 C4773 1.463 . S
C4776 N4780 1.427 1_655 S
C4777 H4767 0.929 . S
C4777 C4775 1.433 . S
C4777 N4780 1.384 . S
C4778 H4769 0.929 . S
C4778 C4770 1.378 . S
C4778 C4773 1.350 . S
C4779 H4766 0.929 . S
C4779 C4771 1.433 . S
C4779 N4781 1.384 . S
N4780 C4776 1.427 1_455 S
N4780 C4777 1.384 . S
N4781 C4773 1.427 . S
N4781 C4779 1.384 . S
H4782 C4788 0.930 . S
H4783 C4792 0.930 . S
H4784 C4797 0.929 . S
H4785 C4795 0.929 . S
H4786 C4790 0.929 . S
H4787 C4796 0.922 1_455 S
C4788 H4782 0.930 . S
C4788 C4789 1.367 . S
C4788 C4796 1.378 . S
C4789 C4788 1.367 . S
C4789 C4797 1.433 . S
C4790 H4786 0.929 . S
C4790 C4792 1.378 . S
C4790 C4794 1.350 . S
C4791 C4794 1.463 . S
C4791 C4796 1.350 1_455 S
C4791 N4799 1.433 . S
C4792 H4783 0.930 . S
C4792 C4790 1.378 . S
C4792 C4793 1.367 . S
C4793 C4792 1.367 . S
C4793 C4795 1.433 . S
C4794 C4790 1.350 . S
C4794 C4791 1.463 . S
C4794 N4798 1.427 . S
C4795 H4785 0.929 . S
C4795 C4793 1.433 . S
C4795 N4798 1.384 . S
C4796 H4787 0.922 1_655 S
C4796 C4788 1.378 . S
C4796 C4791 1.350 1_655 S
C4797 H4784 0.929 . S
C4797 C4789 1.433 . S
C4797 N4799 1.367 1_655 S
N4798 C4794 1.427 . S
N4798 C4795 1.384 . S
N4799 C4791 1.433 . S
N4799 C4797 1.367 1_455 S
C1351 C7 1.323 . S
C1355 C441 1.361 . S
C1369 C20 1.320 . S
C1373 C398 1.356 . S
C1387 C413 1.372 . S
C1391 C35 1.338 . S
C1405 C426 1.372 . S
C1409 C48 1.339 . S
C1423 C357 1.367 . S
C1427 C63 1.329 . S
C1441 C370 1.372 . S
C1445 C76 1.341 . S
C1459 C91 1.324 . S
C1463 C385 1.362 . S
C1477 C342 1.359 . S
C1481 C104 1.333 . S
C1495 C118 1.339 . S
C1499 C622 1.372 . S
C1513 C133 1.337 . S
C1517 C581 1.364 . S
C1531 C146 1.336 . S
C1535 C594 1.371 . S
C1549 C161 1.321 . S
C1553 C609 1.359 . S
C1567 C174 1.323 . S
C1571 C664 1.354 . S
C1585 C189 1.332 . S
C1589 C637 1.369 . S
C1603 C202 1.334 . S
C1607 C650 1.360 . S
C1621 C567 1.365 . S
C1625 C217 1.326 . S
C1639 C230 1.320 . S
C1643 C552 1.356 . S
C1657 C468 1.358 . S
C1661 C244 1.320 . S
C1675 C482 1.363 . S
C1679 C258 1.337 . S
C1693 C272 1.340 . S
C1697 C496 1.367 . S
C1711 C454 1.354 . S
C1715 C286 1.321 . S
C1729 C524 1.365 . S
C1733 C300 1.339 . S
C1747 C314 1.332 . S
C1751 C538 1.359 . S
C1765 C328 1.324 . S
C1769 C510 1.354 . S
C1783 C1113 1.356 . S
C1787 C679 1.328 . S
C1801 C1070 1.365 . S
C1805 C692 1.327 . S
C1819 C707 1.339 . S
C1823 C1085 1.366 . S
C1837 C1098 1.364 . S
C1841 C720 1.326 . S
C1855 C735 1.320 . S
C1859 C1029 1.357 . S
C1873 C748 1.321 . S
C1877 C1042 1.359 . S
C1891 C1057 1.355 . S
C1895 C763 1.326 . S
C1909 C1014 1.365 . S
C1913 C776 1.327 . S
C1927 C1294 1.362 . S
C1931 C790 1.336 . S
C1945 C1253 1.355 . S
C1949 C805 1.325 . S
C1963 C818 1.321 . S
C1967 C1266 1.354 . S
C1981 C833 1.337 . S
C1985 C1281 1.363 . S
C1999 C1336 1.369 . S
C2003 C846 1.341 . S
C2017 C1309 1.355 . S
C2021 C861 1.319 . S
C2035 C1322 1.357 . S
C2039 C874 1.320 . S
C2053 C889 1.337 . S
C2057 C1239 1.363 . S
C2071 C1224 1.359 . S
C2075 C902 1.332 . S
C2089 C916 1.341 . S
C2093 C1140 1.369 . S
C2107 C1154 1.354 . S
C2111 C930 1.320 . S
C2125 C1168 1.372 . S
C2129 C944 1.341 . S
C2143 C1126 1.368 . S
C2147 C958 1.331 . S
C2161 C972 1.341 . S
C2165 C1196 1.372 . S
C2179 C986 1.335 . S
C2183 C1210 1.371 . S
C2197 C1182 1.362 . S
C2201 C1000 1.323 . S
C2215 C6 1.464 . S
C2219 C959 1.464 . S
C2233 C21 1.468 . S
C2237 C917 1.458 . S
C2251 C34 1.446 . S
C2255 C931 1.455 . S
C2269 C49 1.458 . S
C2273 C945 1.469 . S
C2287 C1001 1.454 . S
C2291 C62 1.447 . S
C2305 C77 1.464 . S
C2309 C973 1.464 . S
C2323 C987 1.468 . S
C2327 C90 1.447 . S
C2341 C105 1.445 . S
C2345 C903 1.457 . S
C2359 C888 1.460 . S
C2363 C119 1.467 . S
C2377 C132 1.448 . S
C2381 C847 1.452 . S
C2395 C860 1.466 . S
C2399 C147 1.462 . S
C2413 C160 1.447 . S
C2417 C875 1.453 . S
C2431 C175 1.463 . S
C2435 C804 1.444 . S
C2449 C188 1.468 . S
C2453 C819 1.458 . S
C2467 C832 1.445 . S
C2471 C203 1.457 . S
C2485 C791 1.449 . S
C2489 C216 1.469 . S
C2503 C231 1.446 . S
C2507 C777 1.467 . S
C2521 C245 1.446 . S
C2525 C693 1.468 . S
C2539 C259 1.452 . S
C2543 C706 1.470 . S
C2557 C273 1.465 . S
C2561 C721 1.463 . S
C2575 C287 1.446 . S
C2579 C678 1.467 . S
C2593 C749 1.452 . S
C2597 C301 1.448 . S
C2611 C762 1.455 . S
C2615 C315 1.469 . S
C2629 C329 1.467 . S
C2633 C734 1.446 . S
C2647 C345 1.630 . S
C2651 C1297 1.638 . S
C2665 C358 1.631 . S
C2669 C1254 1.630 . S
C2683 C373 1.635 . S
C2687 C1269 1.628 . S
C2701 C386 1.638 . S
C2705 C1282 1.631 . S
C2719 C401 1.630 . S
C2723 C1339 1.637 . S
C2737 C1310 1.628 . S
C2741 C414 1.634 . S
C2755 C429 1.635 . S
C2759 C1325 1.628 . S
C2773 C442 1.637 . S
C2777 C1240 1.633 . S
C2791 C1227 1.635 . S
C2795 C457 1.628 . S
C2809 C1185 1.636 . S
C2813 C471 1.629 . S
C2827 C1199 1.638 . S
C2831 C485 1.630 . S
C2845 C1213 1.636 . S
C2849 C499 1.635 . S
C2863 C513 1.634 . S
C2867 C1143 1.637 . S
C2881 C527 1.630 . S
C2885 C1157 1.638 . S
C2899 C541 1.629 . S
C2903 C1171 1.636 . S
C2917 C1129 1.629 . S
C2921 C555 1.631 . S
C2935 C1114 1.629 . S
C2939 C568 1.637 . S
C2953 C582 1.634 . S
C2957 C1030 1.637 . S
C2971 C1045 1.636 . S
C2975 C597 1.629 . S
C2989 C1058 1.636 . S
C2993 C610 1.628 . S
C3007 C625 1.637 . S
C3011 C1017 1.634 . S
C3025 C638 1.637 . S
C3029 C1086 1.630 . S
C3043 C1101 1.629 . S
C3047 C653 1.636 . S
C3061 C667 1.633 . S
C3065 C1073 1.628 . S
C3079 C8 1.521 . S
C3083 C399 1.453 . S
C3097 C23 1.521 . S
C3101 C412 1.453 . S
C3115 C36 1.520 . S
C3119 C427 1.447 . S
C3133 C51 1.519 . S
C3137 C440 1.452 . S
C3151 C343 1.451 . S
C3155 C64 1.519 . S
C3169 C79 1.519 . S
C3173 C356 1.452 . S
C3187 C371 1.439 . S
C3191 C92 1.524 . S
C3205 C384 1.438 . S
C3209 C107 1.530 . S
C3223 C121 1.522 . S
C3227 C539 1.444 . S
C3241 C553 1.433 . S
C3245 C134 1.528 . S
C3259 C149 1.522 . S
C3263 C511 1.452 . S
C3277 C162 1.525 . S
C3281 C525 1.438 . S
C3295 C177 1.522 . S
C3299 C483 1.442 . S
C3313 C190 1.521 . S
C3317 C497 1.446 . S
C3331 C205 1.522 . S
C3335 C455 1.443 . S
C3349 C469 1.441 . S
C3353 C218 1.529 . S
C3367 C233 1.527 . S
C3371 C636 1.434 . S
C3385 C247 1.529 . S
C3389 C608 1.439 . S
C3403 C623 1.438 . S
C3407 C261 1.530 . S
C3421 C275 1.521 . S
C3425 C580 1.453 . S
C3439 C595 1.443 . S
C3443 C289 1.522 . S
C3457 C303 1.520 . S
C3461 C566 1.453 . S
C3475 C665 1.452 . S
C3479 C317 1.519 . S
C3493 C651 1.435 . S
C3497 C331 1.530 . S
C3511 C680 1.526 . S
C3515 C1071 1.446 . S
C3529 C695 1.530 . S
C3533 C1084 1.439 . S
C3547 C708 1.522 . S
C3551 C1099 1.443 . S
C3565 C1112 1.433 . S
C3569 C723 1.530 . S
C3583 C736 1.529 . S
C3587 C1015 1.440 . S
C3601 C751 1.519 . S
C3605 C1028 1.452 . S
C3619 C764 1.523 . S
C3623 C1043 1.442 . S
C3637 C779 1.526 . S
C3641 C1056 1.436 . S
C3655 C793 1.521 . S
C3659 C1211 1.444 . S
C3673 C1225 1.434 . S
C3677 C806 1.528 . S
C3691 C1183 1.451 . S
C3695 C821 1.519 . S
C3709 C1197 1.433 . S
C3713 C834 1.530 . S
C3727 C849 1.522 . S
C3731 C1155 1.452 . S
C3745 C1169 1.453 . S
C3749 C862 1.519 . S
C3763 C877 1.522 . S
C3767 C1127 1.442 . S
C3781 C1141 1.440 . S
C3785 C890 1.524 . S
C3799 C1308 1.433 . S
C3803 C905 1.529 . S
C3817 C1280 1.436 . S
C3821 C919 1.526 . S
C3835 C933 1.523 . S
C3839 C1295 1.440 . S
C3853 C947 1.523 . S
C3857 C1252 1.441 . S
C3871 C1267 1.434 . S
C3875 C961 1.530 . S
C3889 C975 1.530 . S
C3893 C1238 1.439 . S
C3907 C1337 1.453 . S
C3911 C989 1.520 . S
C3925 C1323 1.449 . S
C3929 C1003 1.520 . S
C3943 C372 1.639 . S
C3947 C9 1.650 . S
C3961 C22 1.652 . S
C3965 C387 1.641 . S
C3979 C344 1.643 . S
C3983 C37 1.652 . S
C3997 C50 1.650 . S
C4001 C359 1.641 . S
C4015 C428 1.642 . S
C4019 C65 1.650 . S
C4033 C443 1.638 . S
C4037 C78 1.652 . S
C4051 C93 1.652 . S
C4055 C400 1.643 . S
C4069 C415 1.638 . S
C4073 C106 1.652 . S
C4087 C120 1.651 . S
C4091 C512 1.638 . S
C4105 C135 1.650 . S
C4109 C526 1.643 . S
C4123 C540 1.639 . S
C4127 C148 1.650 . S
C4141 C163 1.652 . S
C4145 C554 1.639 . S
C4159 C176 1.652 . S
C4163 C456 1.640 . S
C4177 C470 1.639 . S
C4181 C191 1.652 . S
C4195 C484 1.638 . S
C4199 C204 1.652 . S
C4213 C498 1.642 . S
C4217 C219 1.652 . S
C4231 C232 1.651 . S
C4235 C611 1.638 . S
C4249 C639 1.643 . S
C4253 C246 1.650 . S
C4267 C260 1.651 . S
C4271 C652 1.643 . S
C4285 C569 1.643 . S
C4289 C274 1.651 . S
C4303 C666 1.644 . S
C4307 C288 1.651 . S
C4321 C583 1.638 . S
C4325 C302 1.650 . S
C4339 C316 1.652 . S
C4343 C596 1.643 . S
C4357 C330 1.650 . S
C4361 C624 1.639 . S
C4375 C681 1.651 . S
C4379 C1044 1.637 . S
C4393 C1059 1.644 . S
C4397 C694 1.651 . S
C4411 C1016 1.641 . S
C4415 C709 1.652 . S
C4429 C1031 1.644 . S
C4433 C722 1.651 . S
C4447 C737 1.651 . S
C4451 C1100 1.638 . S
C4465 C1115 1.637 . S
C4469 C750 1.651 . S
C4483 C765 1.652 . S
C4487 C1072 1.642 . S
C4501 C1087 1.638 . S
C4505 C778 1.651 . S
C4519 C792 1.650 . S
C4523 C1184 1.641 . S
C4537 C1198 1.639 . S
C4541 C807 1.650 . S
C4555 C820 1.651 . S
C4559 C1212 1.638 . S
C4573 C1226 1.643 . S
C4577 C835 1.652 . S
C4591 C1128 1.640 . S
C4595 C848 1.650 . S
C4609 C1142 1.638 . S
C4613 C863 1.650 . S
C4627 C1156 1.638 . S
C4631 C876 1.651 . S
C4645 C1170 1.642 . S
C4649 C891 1.652 . S
C4663 C904 1.652 . S
C4667 C1283 1.642 . S
C4681 C1311 1.637 . S
C4685 C918 1.651 . S
C4699 C1324 1.641 . S
C4703 C932 1.652 . S
C4717 C1241 1.638 . S
C4721 C946 1.652 . S
C4735 C1338 1.638 . S
C4739 C960 1.651 . S
C4753 C974 1.652 . S
C4757 C1255 1.638 . S
C4771 C988 1.650 . S
C4775 C1268 1.641 . S
C4789 C1296 1.638 . S
C4793 C1002 1.652 . S
