# Generated by pormake.
# Topology sol, (6)-cn, num edge types: 1
# Building blocks:
#     Node 0, Type 0, BuildingBlock: IZENUY_clean_sbu_0, # of connection points: 6
#     Node 1, Type 0, BuildingBlock: IZENUY_clean_sbu_0, # of connection points: 6
#     Node 2, Type 0, BuildingBlock: IZENUY_clean_sbu_0, # of connection points: 6
#     Node 3, Type 0, BuildingBlock: IZENUY_clean_sbu_0, # of connection points: 6
#     Node 4, Type 0, BuildingBlock: IZENUY_clean_sbu_0, # of connection points: 6
#     Node 5, Type 0, BuildingBlock: IZENUY_clean_sbu_0, # of connection points: 6
#     Node 6, Type 0, BuildingBlock: IZENUY_clean_sbu_0, # of connection points: 6
#     Node 7, Type 0, BuildingBlock: IZENUY_clean_sbu_0, # of connection points: 6
#     Edge 8, Type (0, 0), BuildingBlock: OJICUG_clean_linker_0, # of connection points: 2
#     Edge 9, Type (0, 0), BuildingBlock: OJICUG_clean_linker_0, # of connection points: 2
#     Edge 10, Type (0, 0), BuildingBlock: OJICUG_clean_linker_0, # of connection points: 2
#     Edge 11, Type (0, 0), BuildingBlock: OJICUG_clean_linker_0, # of connection points: 2
#     Edge 12, Type (0, 0), BuildingBlock: OJICUG_clean_linker_0, # of connection points: 2
#     Edge 13, Type (0, 0), BuildingBlock: OJICUG_clean_linker_0, # of connection points: 2
#     Edge 14, Type (0, 0), BuildingBlock: OJICUG_clean_linker_0, # of connection points: 2
#     Edge 15, Type (0, 0), BuildingBlock: OJICUG_clean_linker_0, # of connection points: 2
#     Edge 16, Type (0, 0), BuildingBlock: OJICUG_clean_linker_0, # of connection points: 2
#     Edge 17, Type (0, 0), BuildingBlock: OJICUG_clean_linker_0, # of connection points: 2
#     Edge 18, Type (0, 0), BuildingBlock: OJICUG_clean_linker_0, # of connection points: 2
#     Edge 19, Type (0, 0), BuildingBlock: OJICUG_clean_linker_0, # of connection points: 2
#     Edge 20, Type (0, 0), BuildingBlock: OJICUG_clean_linker_0, # of connection points: 2
#     Edge 21, Type (0, 0), BuildingBlock: OJICUG_clean_linker_0, # of connection points: 2
#     Edge 22, Type (0, 0), BuildingBlock: OJICUG_clean_linker_0, # of connection points: 2
#     Edge 23, Type (0, 0), BuildingBlock: OJICUG_clean_linker_0, # of connection points: 2
#     Edge 24, Type (0, 0), BuildingBlock: OJICUG_clean_linker_0, # of connection points: 2
#     Edge 25, Type (0, 0), BuildingBlock: OJICUG_clean_linker_0, # of connection points: 2
#     Edge 26, Type (0, 0), BuildingBlock: OJICUG_clean_linker_0, # of connection points: 2
#     Edge 27, Type (0, 0), BuildingBlock: OJICUG_clean_linker_0, # of connection points: 2
#     Edge 28, Type (0, 0), BuildingBlock: OJICUG_clean_linker_0, # of connection points: 2
#     Edge 29, Type (0, 0), BuildingBlock: OJICUG_clean_linker_0, # of connection points: 2
#     Edge 30, Type (0, 0), BuildingBlock: OJICUG_clean_linker_0, # of connection points: 2
#     Edge 31, Type (0, 0), BuildingBlock: OJICUG_clean_linker_0, # of connection points: 2
# Relax obj value: 0.162
# Max RMSD: 0.159
# Mean RMSD: 0.159
data_MOF--net-sol--node1-IZENUY_clean_sbu_0--edge1-OJICUG_clean_linker_0
_symmetry_space_group_name_H-M    P1
_symmetry_Int_Tables_number       1
_symmetry_cell_setting            triclinic
loop_
_symmetry_equiv_pos_as_xyz
'x, y, z'
_cell_length_a     25.854127
_cell_length_b     20.686709
_cell_length_c     20.701794
_cell_angle_alpha  89.474268
_cell_angle_beta   90.008872
_cell_angle_gamma 89.967942
loop_
_atom_site_label
_atom_site_type_symbol
_atom_site_fract_x
_atom_site_fract_y
_atom_site_fract_z
_atom_type_partial_charge
Fe0 Fe 0.1818 0.11798 0.16584 0.0
Fe1 Fe 0.25873 0.18978 0.07835 0.0
O2 O 0.1941 0.17234 0.10159 0.0
Fe3 Fe 0.14141 0.2107 0.06162 0.0
O4 O 0.09834 0.21086 0.1326 0.0
O5 O 0.14904 0.17934 0.21125 0.0
O6 O 0.23955 0.13912 0.21268 0.0
C7 C 0.267 0.18972 0.21124 0.0
C8 C 0.10375 0.0874 0.0734 0.0
O9 O 0.27517 0.21912 0.15862 0.0
C10 C 0.21426 0.19098 0.95952 0.0
O11 O 0.21466 0.05383 0.12503 0.0
O12 O 0.28397 0.10902 0.09683 0.0
O13 O 0.11568 0.13309 0.03492 0.0
O14 O 0.1212 0.08655 0.1308 0.0
C15 C 0.20939 0.30994 0.07736 0.0
O16 O 0.24678 0.16311 0.99594 0.0
O17 O 0.17508 0.21892 0.98349 0.0
C18 C 0.26108 0.05592 0.10681 0.0
O19 O 0.24468 0.27334 0.05674 0.0
O20 O 0.16402 0.28965 0.08713 0.0
C21 C 0.10972 0.20941 0.19212 0.0
Fe22 Fe 0.37217 0.35422 0.66244 0.0
Fe23 Fe 0.29886 0.27526 0.57916 0.0
O24 O 0.36269 0.29825 0.59965 0.0
Fe25 Fe 0.41639 0.26494 0.55849 0.0
O26 O 0.459 0.26462 0.63045 0.0
O27 O 0.40822 0.29603 0.7095 0.0
O28 O 0.31473 0.32883 0.70935 0.0
C29 C 0.29254 0.27419 0.71066 0.0
C30 C 0.45047 0.38984 0.57151 0.0
O31 O 0.2881 0.24183 0.6597 0.0
C32 C 0.3399 0.28308 0.45858 0.0
O33 O 0.33647 0.41504 0.6182 0.0
O34 O 0.26912 0.3531 0.59989 0.0
O35 O 0.43942 0.34467 0.53305 0.0
O36 O 0.43171 0.38995 0.62813 0.0
C37 C 0.35419 0.15883 0.5677 0.0
O38 O 0.30666 0.30547 0.49728 0.0
O39 O 0.38211 0.25903 0.47971 0.0
C40 C 0.29015 0.40814 0.60085 0.0
O41 O 0.31612 0.19438 0.5541 0.0
O42 O 0.3977 0.18271 0.58129 0.0
C43 C 0.44845 0.26773 0.6904 0.0
Fe44 Fe 0.68281 0.35369 0.90198 0.0
Fe45 Fe 0.76132 0.28138 0.98724 0.0
O46 O 0.69626 0.30043 0.96695 0.0
Fe47 Fe 0.64414 0.26473 1.01078 0.0
O48 O 0.59821 0.26474 0.94209 0.0
O49 O 0.64682 0.29257 0.86011 0.0
O50 O 0.73806 0.32909 0.85214 0.0
C51 C 0.76579 0.27871 0.85431 0.0
C52 C 0.60868 0.38898 0.9981 0.0
O53 O 0.77508 0.25062 0.9072 0.0
C54 C 0.72141 0.28349 0.10841 0.0
O55 O 0.71867 0.41784 0.93884 0.0
O56 O 0.78749 0.36135 0.96678 0.0
O57 O 0.621 0.34374 0.03698 0.0
O58 O 0.62444 0.3883 0.93991 0.0
C59 C 0.70954 0.16265 0.99262 0.0
O60 O 0.75265 0.30946 0.0692 0.0
O61 O 0.68033 0.257 0.08786 0.0
C62 C 0.76528 0.41487 0.95626 0.0
O63 O 0.74636 0.19837 1.01057 0.0
O64 O 0.66421 0.18438 0.98566 0.0
C65 C 0.60699 0.26553 0.88181 0.0
Fe66 Fe 0.88211 0.11764 0.40453 0.0
Fe67 Fe 0.80225 0.18665 0.48871 0.0
O68 O 0.86767 0.16947 0.46922 0.0
Fe69 Fe 0.9191 0.20569 0.51319 0.0
O70 O 0.96461 0.20864 0.44447 0.0
O71 O 0.91637 0.18079 0.36257 0.0
O72 O 0.82616 0.14067 0.35465 0.0
C73 C 0.79804 0.19069 0.35575 0.0
C74 C 0.95756 0.08326 0.5001 0.0
O75 O 0.78857 0.21856 0.40825 0.0
C76 C 0.84179 0.18318 0.61017 0.0
O77 O 0.84775 0.0521 0.44213 0.0
O78 O 0.77763 0.10663 0.46786 0.0
O79 O 0.94397 0.12691 0.53928 0.0
O80 O 0.94147 0.08461 0.44207 0.0
C81 C 0.85191 0.3061 0.49455 0.0
O82 O 0.81087 0.15739 0.57084 0.0
O83 O 0.88271 0.21062 0.58995 0.0
C84 C 0.80089 0.0538 0.45866 0.0
O85 O 0.81573 0.26919 0.51246 0.0
O86 O 0.89766 0.28589 0.48827 0.0
C87 C 0.95514 0.20968 0.38439 0.0
Fe88 Fe 0.80245 0.78135 0.98719 0.0
Fe89 Fe 0.881 0.85344 0.90192 0.0
O90 O 0.86752 0.80031 0.96696 0.0
Fe91 Fe 0.91963 0.76465 1.01094 0.0
O92 O 0.89961 0.68427 0.98589 0.0
O93 O 0.81742 0.69835 1.01063 0.0
O94 O 0.78873 0.7505 0.90717 0.0
C95 C 0.79805 0.77848 0.85424 0.0
C96 C 0.84224 0.78353 0.10842 0.0
O97 O 0.8258 0.8288 0.85202 0.0
C98 C 0.95502 0.88888 0.99811 0.0
O99 O 0.77628 0.86132 0.96659 0.0
O100 O 0.84509 0.91768 0.93859 0.0
O101 O 0.88337 0.75703 0.08798 0.0
O102 O 0.81105 0.80952 0.06913 0.0
C103 C 0.9569 0.76524 0.88202 0.0
O104 O 0.93932 0.88808 0.93989 0.0
O105 O 0.94269 0.84371 0.03705 0.0
C106 C 0.79848 0.9148 0.95598 0.0
O107 O 0.91704 0.7922 0.86022 0.0
O108 O 0.96562 0.76456 0.94232 0.0
C109 C 0.85428 0.66258 0.99279 0.0
Fe110 Fe 0.7612 0.68666 0.48864 0.0
Fe111 Fe 0.68124 0.61791 0.40443 0.0
O112 O 0.69575 0.66957 0.46921 0.0
Fe113 Fe 0.64436 0.70574 0.51335 0.0
O114 O 0.66573 0.78598 0.48854 0.0
O115 O 0.74772 0.76918 0.51252 0.0
O116 O 0.77481 0.71867 0.40821 0.0
C117 C 0.76529 0.69091 0.35566 0.0
C118 C 0.72181 0.68307 0.61017 0.0
O119 O 0.7371 0.64099 0.35448 0.0
C120 C 0.60593 0.58334 0.5001 0.0
O121 O 0.7858 0.60664 0.46764 0.0
O122 O 0.71567 0.55226 0.44181 0.0
O123 O 0.68085 0.71053 0.59006 0.0
O124 O 0.75269 0.65729 0.57075 0.0
C125 C 0.60814 0.71003 0.38464 0.0
O126 O 0.62193 0.58482 0.44203 0.0
O127 O 0.61957 0.62691 0.53934 0.0
C128 C 0.76253 0.55387 0.45832 0.0
O129 O 0.64691 0.68118 0.36269 0.0
O130 O 0.59875 0.70883 0.44473 0.0
C131 C 0.71149 0.80614 0.49474 0.0
Fe132 Fe 0.38155 0.61773 0.16589 0.0
Fe133 Fe 0.42198 0.71058 0.06187 0.0
O134 O 0.36928 0.67221 0.10171 0.0
Fe135 Fe 0.30466 0.68974 0.07841 0.0
O136 O 0.2882 0.71902 0.15869 0.0
O137 O 0.32376 0.63887 0.21266 0.0
O138 O 0.41427 0.67899 0.21145 0.0
C139 C 0.45354 0.70915 0.1924 0.0
C140 C 0.30232 0.55585 0.10667 0.0
O141 O 0.46498 0.71064 0.13291 0.0
C142 C 0.34923 0.69097 0.95965 0.0
O143 O 0.44219 0.58631 0.13091 0.0
O144 O 0.44776 0.63301 0.03511 0.0
O145 O 0.27943 0.60899 0.09678 0.0
O146 O 0.34874 0.55368 0.12493 0.0
C147 C 0.35396 0.80985 0.07761 0.0
O148 O 0.38836 0.71889 0.9837 0.0
O149 O 0.31667 0.66313 0.99599 0.0
C150 C 0.45969 0.58725 0.07353 0.0
O151 O 0.39932 0.78951 0.08742 0.0
O152 O 0.3187 0.77331 0.05688 0.0
C153 C 0.29636 0.68954 0.21128 0.0
Fe154 Fe 0.14735 0.76502 0.55867 0.0
Fe155 Fe 0.26489 0.7753 0.57917 0.0
O156 O 0.20107 0.79834 0.59973 0.0
Fe157 Fe 0.19163 0.85438 0.66248 0.0
O158 O 0.15564 0.79627 0.70964 0.0
O159 O 0.10481 0.76479 0.63068 0.0
O160 O 0.1661 0.68281 0.58153 0.0
C161 C 0.20959 0.6589 0.56787 0.0
C162 C 0.11324 0.88994 0.57161 0.0
O163 O 0.24763 0.69442 0.55418 0.0
C164 C 0.27359 0.90819 0.60077 0.0
O165 O 0.18154 0.75903 0.47986 0.0
O166 O 0.25698 0.80547 0.49729 0.0
O167 O 0.13205 0.89012 0.62821 0.0
O168 O 0.12427 0.84473 0.53319 0.0
C169 C 0.27131 0.7743 0.71065 0.0
O170 O 0.29462 0.85313 0.59982 0.0
O171 O 0.22727 0.91514 0.61814 0.0
C172 C 0.22371 0.78307 0.45865 0.0
O173 O 0.27573 0.74191 0.65971 0.0
O174 O 0.24912 0.82897 0.70933 0.0
C175 C 0.11542 0.76794 0.69062 0.0
C176 C 0.08538 0.22832 0.30699 0.0
C177 C 0.07145 0.22836 0.24122 0.0
H178 H 0.05898 0.2233 0.40486 0.0
C179 C 1.01941 0.23707 0.22419 0.0
H180 H 0.12541 0.22319 0.32157 0.0
C181 C 0.98145 0.23746 0.27199 0.0
C182 C 0.99501 0.22929 0.3374 0.0
H183 H 1.00755 0.23831 0.17401 0.0
H184 H 0.94124 0.23934 0.25737 0.0
C185 C 0.04739 0.22885 0.35482 0.0
C186 C 0.47509 0.2514 0.80571 0.0
C187 C 0.488 0.25111 0.73957 0.0
H188 H 0.50277 0.25519 0.90316 0.0
C189 C 0.54 0.24338 0.72184 0.0
H190 H 0.43521 0.25624 0.82101 0.0
C191 C 0.57862 0.24271 0.76902 0.0
C192 C 0.56601 0.24942 0.83479 0.0
H193 H 0.55124 0.24234 0.67146 0.0
H194 H 0.61863 0.2408 0.75362 0.0
C195 C 0.51375 0.25041 0.85293 0.0
C196 C 0.05022 0.75066 0.85321 0.0
C197 C 0.99796 0.74925 0.83507 0.0
H198 H 0.12872 0.75697 0.82129 0.0
C199 C 0.98538 0.74229 0.76931 0.0
H200 H 0.06117 0.75565 0.90343 0.0
C201 C 1.024 0.74313 0.72214 0.0
C202 C 0.07595 0.75127 0.73985 0.0
H203 H 0.94538 0.74007 0.75392 0.0
H204 H 1.01275 0.74188 0.67176 0.0
C205 C 0.08887 0.75182 0.80599 0.0
C206 C 0.58165 0.73801 0.27236 0.0
C207 C 0.56816 0.72956 0.33775 0.0
H208 H 0.55553 0.7389 0.17438 0.0
C209 C 0.51579 0.72864 0.35517 0.0
H210 H 0.62184 0.74026 0.25775 0.0
C211 C 0.47779 0.72792 0.30735 0.0
C212 C 0.4917 0.72822 0.24157 0.0
H213 H 0.50425 0.72286 0.4052 0.0
H214 H 0.43779 0.72241 0.32191 0.0
C215 C 0.54368 0.73742 0.22456 0.0
C216 C 0.04343 0.03689 0.99179 0.0
C217 C 0.06545 0.03691 0.05392 0.0
H218 H 0.99162 -0.00899 0.92573 0.0
C219 C 0.05027 -0.01206 0.09786 0.0
H220 H 0.05398 0.07363 0.95659 0.0
C221 C 1.01431 0.94039 0.08022 0.0
C222 C 0.99246 0.9402 1.018 0.0
H223 H 0.06623 -0.01386 0.14621 0.0
H224 H 1.00387 0.90356 0.11537 0.0
C225 C 1.0075 -0.0107 0.97412 0.0
C226 C 0.54343 0.53344 0.58073 0.0
C227 C 0.56648 0.53363 0.51915 0.0
H228 H 0.48896 0.48885 0.64529 0.0
C229 C 0.55058 0.48619 0.47482 0.0
H230 H 0.55443 0.56907 0.61618 0.0
C231 C 0.51288 0.44011 0.49144 0.0
C232 C 0.48978 0.43991 0.55296 0.0
H233 H 0.56725 0.48453 0.42688 0.0
H234 H 0.50196 0.4045 0.45594 0.0
C235 C 0.50563 0.48735 0.59734 0.0
C236 C 0.51324 0.48777 0.0979 0.0
C237 C 0.49805 0.53682 0.05402 0.0
H238 H 0.55973 0.40339 0.11531 0.0
C239 C 0.52012 0.53695 0.99193 0.0
H240 H 0.49724 0.48587 0.14622 0.0
C241 C 0.55612 0.48942 0.97423 0.0
C242 C 0.57118 0.44024 1.01803 0.0
H243 H 0.50956 0.57375 0.95679 0.0
H244 H 0.57204 0.49123 0.92586 0.0
C245 C 0.54927 0.44028 0.08021 0.0
C246 C 1.01295 -0.01391 0.47492 0.0
C247 C 0.99707 0.0336 0.51919 0.0
H248 H 0.06162 0.90437 0.4561 0.0
C249 C 1.02019 0.03354 0.58073 0.0
H250 H 0.99622 0.98433 0.42701 0.0
C251 C 0.05806 -0.01251 0.59736 0.0
C252 C 0.07389 0.93998 0.55304 0.0
H253 H 1.00921 0.06924 0.61613 0.0
H254 H 0.07479 -0.01092 0.64528 0.0
C255 C 0.05071 0.94005 0.49156 0.0
C256 C 0.29595 0.88261 0.1343 0.0
C257 C 0.3388 0.87537 0.09372 0.0
H258 H 0.23788 0.94544 0.1701 0.0
C259 C 0.35971 0.92919 0.06159 0.0
H260 H 0.27949 0.84164 0.1598 0.0
C261 C 0.33549 -0.01059 0.06721 0.0
C262 C 0.29025 -0.00467 0.10451 0.0
H263 H 0.3925 0.9239 1.02949 0.0
H264 H 0.35056 0.03034 0.04019 0.0
C265 C 0.27184 0.94194 0.13964 0.0
C266 C 0.19676 0.54695 0.61196 0.0
C267 C 0.21854 0.58896 0.56582 0.0
H268 H 0.20309 0.45426 0.65938 0.0
C269 C 0.25766 0.56627 0.52465 0.0
H270 H 0.16682 0.56367 0.64437 0.0
C271 C 0.27884 0.50536 0.53415 0.0
C272 C 0.26035 0.46556 0.5838 0.0
H273 H 0.27458 0.59751 0.488 0.0
H274 H 0.31143 0.49057 0.50482 0.0
C275 C 0.21763 0.48495 0.62077 0.0
C276 C 0.83775 0.48202 1.00073 0.0
C277 C 0.7948 0.47532 0.95952 0.0
H278 H 0.89148 0.54855 0.04383 0.0
C279 C 0.7779 0.52851 0.92288 0.0
H280 H 0.85161 0.44133 1.02916 0.0
C281 C 0.80079 0.58838 0.93062 0.0
C282 C 0.84097 0.59651 0.97519 0.0
H283 H 0.74572 0.52445 0.8896 0.0
H284 H 0.78527 0.62901 0.90372 0.0
C285 C 0.86074 0.5428 1.00879 0.0
C286 C 0.79164 0.93955 0.42874 0.0
C287 C 0.77215 -0.00703 0.46182 0.0
H288 H 0.78616 0.83888 0.4124 0.0
C289 C 0.72683 -0.01347 0.49904 0.0
H290 H 0.82568 0.94343 0.3984 0.0
C291 C 0.7037 0.92576 0.50679 0.0
C292 C 0.72592 0.87191 0.4771 0.0
H293 H 0.71095 0.02749 0.52453 0.0
H294 H 0.6708 0.92021 0.53875 0.0
C295 C 0.76873 0.8797 0.43634 0.0
C296 C 0.76319 0.08846 0.93059 0.0
C297 C 0.72289 0.09659 0.97497 0.0
H298 H 0.81832 0.02449 0.88967 0.0
C299 C 0.70296 0.04285 1.00833 0.0
H300 H 0.77884 0.12912 0.90388 0.0
C301 C 0.72592 0.98202 1.00024 0.0
C302 C 0.76898 0.97531 0.95921 0.0
H303 H 0.67212 0.04861 0.04321 0.0
H304 H 0.71194 0.94131 1.02849 0.0
C305 C 0.78604 0.02855 0.9228 0.0
C306 C 0.77161 0.43953 0.42861 0.0
C307 C 0.79126 0.49298 0.46145 0.0
H308 H 0.77694 0.33879 0.41254 0.0
C309 C 0.83669 0.48652 0.49846 0.0
H310 H 0.73747 0.44341 0.39843 0.0
C311 C 0.8598 0.42572 0.50627 0.0
C312 C 0.83743 0.37185 0.47684 0.0
H313 H 0.8527 0.52751 0.52378 0.0
H314 H 0.89282 0.42017 0.53806 0.0
C315 C 0.79449 0.37963 0.43627 0.0
C316 C 0.20373 0.42928 0.06122 0.0
C317 C 0.22453 0.37545 0.09349 0.0
H318 H 0.21297 0.53039 0.03974 0.0
C319 C 0.2673 0.38264 0.13423 0.0
H320 H 0.17101 0.42402 1.029 0.0
C321 C 0.29144 0.44192 0.13957 0.0
C322 C 0.27313 0.49531 0.10432 0.0
H323 H 0.28368 0.34167 0.15984 0.0
H324 H 0.32533 0.44538 0.17016 0.0
C325 C 0.22797 0.48945 0.06686 0.0
C326 C 0.34614 0.98489 0.62064 0.0
C327 C 0.30337 0.96559 0.58371 0.0
H328 H 0.39701 0.0635 0.64419 0.0
C329 C 0.28488 0.00542 0.53407 0.0
H330 H 0.3607 0.95417 0.65923 0.0
C331 C 0.30609 0.06627 0.52452 0.0
C332 C 0.34525 0.08889 0.56565 0.0
H333 H 0.25225 -0.00932 0.50476 0.0
H334 H 0.28914 0.09754 0.48789 0.0
C335 C 0.36704 0.04684 0.61179 0.0
C336 C 0.25739 0.16585 0.85321 0.0
C337 C 0.22992 0.20879 0.89272 0.0
H338 H 0.29734 0.15256 0.76306 0.0
C339 C 0.22121 0.27232 0.87023 0.0
H340 H 0.26503 0.11687 0.86955 0.0
C341 C 0.24111 0.29322 0.81081 0.0
C342 C 0.2687 0.25054 0.77143 0.0
H343 H 0.20089 0.30692 0.89993 0.0
H344 H 0.2352 0.343 0.79579 0.0
C345 C 0.27577 0.18624 0.79245 0.0
C346 C 0.33494 0.24759 0.27779 0.0
C347 C 0.28695 0.2157 0.27316 0.0
H348 H 0.39041 0.29289 0.34087 0.0
C349 C 0.25646 0.20932 0.32898 0.0
H350 H 0.35918 0.25336 0.23547 0.0
C351 C 0.27315 0.2341 0.38789 0.0
C352 C 0.32159 0.26435 0.39336 0.0
H353 H 0.21922 0.18544 0.32706 0.0
H354 H 0.24868 0.22752 0.42995 0.0
C355 C 0.35267 0.27042 0.33783 0.0
C356 C 0.80952 0.21738 0.23901 0.0
C357 C 0.77765 0.21727 0.29391 0.0
H358 H 0.81725 0.24058 0.13858 0.0
C359 C 0.72733 0.24281 0.28853 0.0
H360 H 0.84854 0.19843 0.24173 0.0
C361 C 0.70868 0.26544 0.22849 0.0
C362 C 0.7409 0.26562 0.17371 0.0
H363 H 0.70198 0.24343 0.33017 0.0
H364 H 0.66921 0.28265 0.22481 0.0
C365 C 0.79172 0.24216 0.18005 0.0
C366 C 0.8543 0.20148 0.72957 0.0
C367 C 0.82197 0.20062 0.67494 0.0
H368 H 0.86137 0.22524 0.83031 0.0
C369 C 0.77125 0.22448 0.68051 0.0
H370 H 0.89375 0.18413 0.72636 0.0
C371 C 0.75371 0.25049 0.73858 0.0
C372 C 0.78581 0.25145 0.79324 0.0
H373 H 0.7457 0.22564 0.63901 0.0
H374 H 0.71477 0.26972 0.74081 0.0
C375 C 0.83594 0.22533 0.78873 0.0
C376 C 0.77175 0.74274 0.18005 0.0
C377 C 0.82269 0.76573 0.17372 0.0
H378 H 0.71473 0.69942 0.24169 0.0
C379 C 0.85493 0.76514 0.2285 0.0
H380 H 0.74618 0.74148 0.1386 0.0
C381 C 0.8362 0.74257 0.2885 0.0
C382 C 0.78575 0.71748 0.29386 0.0
H383 H 0.89449 0.78198 0.22484 0.0
H384 H 0.86158 0.74286 0.33013 0.0
C385 C 0.75385 0.71801 0.23899 0.0
C386 C 0.72778 0.72537 0.78869 0.0
C387 C 0.77798 0.7512 0.79321 0.0
H388 H 0.66986 0.68444 0.72633 0.0
C389 C 0.8101 0.74994 0.73858 0.0
H390 H 0.70233 0.72551 0.83025 0.0
C391 C 0.7925 0.72395 0.68053 0.0
C392 C 0.7417 0.70041 0.67495 0.0
H393 H 0.84909 0.76895 0.74082 0.0
H394 H 0.81806 0.72491 0.63905 0.0
C395 C 0.70936 0.70154 0.72956 0.0
C396 C 0.28794 0.68632 0.79246 0.0
C397 C 0.29509 0.7506 0.77144 0.0
H398 H 0.29853 0.61696 0.86961 0.0
C399 C 0.32267 0.79322 0.81085 0.0
H400 H 0.26637 0.65269 0.76303 0.0
C401 C 0.34248 0.77229 0.87032 0.0
C402 C 0.33368 0.70879 0.89281 0.0
H403 H 0.32863 0.84297 0.79582 0.0
H404 H 0.36279 0.80685 0.90006 0.0
C405 C 0.30622 0.6659 0.85326 0.0
C406 C 0.21091 0.77063 0.33789 0.0
C407 C 0.24194 0.76424 0.39345 0.0
H408 H 0.20438 0.75378 0.2355 0.0
C409 C 0.29025 0.73362 0.388 0.0
H410 H 0.17326 0.7934 0.34092 0.0
C411 C 0.30687 0.7088 0.32908 0.0
C412 C 0.27644 0.7155 0.27322 0.0
H413 H 0.31467 0.72681 0.43008 0.0
H414 H 0.34402 0.68465 0.32717 0.0
C415 C 0.22858 0.74775 0.27784 0.0
loop_
_geom_bond_atom_site_label_1
_geom_bond_atom_site_label_2
_geom_bond_distance
_geom_bond_site_symmetry_2
_ccdc_geom_bond_type
Fe0 O2 1.918 . S
Fe0 O5 1.997 . S
Fe0 O6 2.002 . S
Fe0 O11 1.976 . S
Fe0 O14 1.996 . S
Fe1 O2 1.918 . S
Fe1 O9 1.997 . S
Fe1 O12 1.996 . S
Fe1 O16 1.976 . S
Fe1 O19 2.002 . S
O2 Fe0 1.918 . S
O2 Fe1 1.918 . S
O2 Fe3 1.918 . S
Fe3 O2 1.918 . S
Fe3 O4 2.002 . S
Fe3 O13 1.976 . S
Fe3 O17 1.996 1_554 S
Fe3 O20 1.997 . S
O4 Fe3 2.002 . S
O4 C21 1.295 . S
O5 Fe0 1.997 . S
O5 C21 1.235 . S
O6 Fe0 2.002 . S
O6 C7 1.295 . S
C7 O6 1.295 . S
C7 O9 1.235 . S
C8 O13 1.287 . S
C8 O14 1.255 . S
O9 Fe1 1.997 . S
O9 C7 1.235 . S
C10 O16 1.287 1_556 S
C10 O17 1.255 . S
O11 Fe0 1.976 . S
O11 C18 1.287 . S
O12 Fe1 1.996 . S
O12 C18 1.255 . S
O13 Fe3 1.976 . S
O13 C8 1.287 . S
O14 Fe0 1.996 . S
O14 C8 1.255 . S
C15 O19 1.295 . S
C15 O20 1.235 . S
O16 Fe1 1.976 . S
O16 C10 1.287 1_554 S
O17 Fe3 1.996 1_556 S
O17 C10 1.255 . S
C18 O11 1.287 . S
C18 O12 1.255 . S
O19 Fe1 2.002 . S
O19 C15 1.295 . S
O20 Fe3 1.997 . S
O20 C15 1.235 . S
C21 O4 1.295 . S
C21 O5 1.235 . S
Fe22 O24 1.918 . S
Fe22 O27 1.997 . S
Fe22 O28 2.002 . S
Fe22 O33 1.976 . S
Fe22 O36 1.996 . S
Fe23 O24 1.918 . S
Fe23 O31 1.997 . S
Fe23 O34 1.996 . S
Fe23 O38 1.976 . S
Fe23 O41 2.002 . S
O24 Fe22 1.918 . S
O24 Fe23 1.918 . S
O24 Fe25 1.918 . S
Fe25 O24 1.918 . S
Fe25 O26 2.002 . S
Fe25 O35 1.976 . S
Fe25 O39 1.996 . S
Fe25 O42 1.997 . S
O26 Fe25 2.002 . S
O26 C43 1.295 . S
O27 Fe22 1.997 . S
O27 C43 1.235 . S
O28 Fe22 2.002 . S
O28 C29 1.295 . S
C29 O28 1.295 . S
C29 O31 1.235 . S
C30 O35 1.287 . S
C30 O36 1.255 . S
O31 Fe23 1.997 . S
O31 C29 1.235 . S
C32 O38 1.287 . S
C32 O39 1.255 . S
O33 Fe22 1.976 . S
O33 C40 1.287 . S
O34 Fe23 1.996 . S
O34 C40 1.255 . S
O35 Fe25 1.976 . S
O35 C30 1.287 . S
O36 Fe22 1.996 . S
O36 C30 1.255 . S
C37 O41 1.295 . S
C37 O42 1.235 . S
O38 Fe23 1.976 . S
O38 C32 1.287 . S
O39 Fe25 1.996 . S
O39 C32 1.255 . S
C40 O33 1.287 . S
C40 O34 1.255 . S
O41 Fe23 2.002 . S
O41 C37 1.295 . S
O42 Fe25 1.997 . S
O42 C37 1.235 . S
C43 O26 1.295 . S
C43 O27 1.235 . S
Fe44 O46 1.918 . S
Fe44 O49 1.997 . S
Fe44 O50 2.002 . S
Fe44 O55 1.976 . S
Fe44 O58 1.996 . S
Fe45 O46 1.918 . S
Fe45 O53 1.997 . S
Fe45 O56 1.996 . S
Fe45 O60 1.976 . S
Fe45 O63 2.002 . S
O46 Fe44 1.918 . S
O46 Fe45 1.918 . S
O46 Fe47 1.918 . S
Fe47 O46 1.918 . S
Fe47 O48 2.002 . S
Fe47 O57 1.976 . S
Fe47 O61 1.996 1_556 S
Fe47 O64 1.997 . S
O48 Fe47 2.002 . S
O48 C65 1.295 . S
O49 Fe44 1.997 . S
O49 C65 1.235 . S
O50 Fe44 2.002 . S
O50 C51 1.295 . S
C51 O50 1.295 . S
C51 O53 1.235 . S
C52 O57 1.287 . S
C52 O58 1.255 . S
O53 Fe45 1.997 . S
O53 C51 1.235 . S
C54 O60 1.287 1_554 S
C54 O61 1.255 . S
O55 Fe44 1.976 . S
O55 C62 1.287 . S
O56 Fe45 1.996 . S
O56 C62 1.255 . S
O57 Fe47 1.976 . S
O57 C52 1.287 . S
O58 Fe44 1.996 . S
O58 C52 1.255 . S
C59 O63 1.295 . S
C59 O64 1.235 . S
O60 Fe45 1.976 . S
O60 C54 1.287 1_556 S
O61 Fe47 1.996 1_554 S
O61 C54 1.255 . S
C62 O55 1.287 . S
C62 O56 1.255 . S
O63 Fe45 2.002 . S
O63 C59 1.295 . S
O64 Fe47 1.997 . S
O64 C59 1.235 . S
C65 O48 1.295 . S
C65 O49 1.235 . S
Fe66 O68 1.918 . S
Fe66 O71 1.997 . S
Fe66 O72 2.002 . S
Fe66 O77 1.976 . S
Fe66 O80 1.996 . S
Fe67 O68 1.918 . S
Fe67 O75 1.997 . S
Fe67 O78 1.996 . S
Fe67 O82 1.976 . S
Fe67 O85 2.002 . S
O68 Fe66 1.918 . S
O68 Fe67 1.918 . S
O68 Fe69 1.918 . S
Fe69 O68 1.918 . S
Fe69 O70 2.002 . S
Fe69 O79 1.976 . S
Fe69 O83 1.996 . S
Fe69 O86 1.997 . S
O70 Fe69 2.002 . S
O70 C87 1.295 . S
O71 Fe66 1.997 . S
O71 C87 1.235 . S
O72 Fe66 2.002 . S
O72 C73 1.295 . S
C73 O72 1.295 . S
C73 O75 1.235 . S
C74 O79 1.287 . S
C74 O80 1.255 . S
O75 Fe67 1.997 . S
O75 C73 1.235 . S
C76 O82 1.287 . S
C76 O83 1.255 . S
O77 Fe66 1.976 . S
O77 C84 1.287 . S
O78 Fe67 1.996 . S
O78 C84 1.255 . S
O79 Fe69 1.976 . S
O79 C74 1.287 . S
O80 Fe66 1.996 . S
O80 C74 1.255 . S
C81 O85 1.295 . S
C81 O86 1.235 . S
O82 Fe67 1.976 . S
O82 C76 1.287 . S
O83 Fe69 1.996 . S
O83 C76 1.255 . S
C84 O77 1.287 . S
C84 O78 1.255 . S
O85 Fe67 2.002 . S
O85 C81 1.295 . S
O86 Fe69 1.997 . S
O86 C81 1.235 . S
C87 O70 1.295 . S
C87 O71 1.235 . S
Fe88 O90 1.918 . S
Fe88 O93 1.997 . S
Fe88 O94 2.002 . S
Fe88 O99 1.976 . S
Fe88 O102 1.996 . S
Fe89 O90 1.918 . S
Fe89 O97 1.997 . S
Fe89 O100 1.996 . S
Fe89 O104 1.976 . S
Fe89 O107 2.002 . S
O90 Fe88 1.918 . S
O90 Fe89 1.918 . S
O90 Fe91 1.918 . S
Fe91 O90 1.918 . S
Fe91 O92 2.002 . S
Fe91 O101 1.976 1_556 S
Fe91 O105 1.996 . S
Fe91 O108 1.997 . S
O92 Fe91 2.002 . S
O92 C109 1.295 . S
O93 Fe88 1.997 . S
O93 C109 1.235 . S
O94 Fe88 2.002 . S
O94 C95 1.295 . S
C95 O94 1.295 . S
C95 O97 1.235 . S
C96 O101 1.287 . S
C96 O102 1.255 1_554 S
O97 Fe89 1.997 . S
O97 C95 1.235 . S
C98 O104 1.287 . S
C98 O105 1.255 . S
O99 Fe88 1.976 . S
O99 C106 1.287 . S
O100 Fe89 1.996 . S
O100 C106 1.255 . S
O101 Fe91 1.976 1_554 S
O101 C96 1.287 . S
O102 Fe88 1.996 . S
O102 C96 1.255 1_556 S
C103 O107 1.295 . S
C103 O108 1.235 . S
O104 Fe89 1.976 . S
O104 C98 1.287 . S
O105 Fe91 1.996 . S
O105 C98 1.255 . S
C106 O99 1.287 . S
C106 O100 1.255 . S
O107 Fe89 2.002 . S
O107 C103 1.295 . S
O108 Fe91 1.997 . S
O108 C103 1.235 . S
C109 O92 1.295 . S
C109 O93 1.235 . S
Fe110 O112 1.918 . S
Fe110 O115 1.997 . S
Fe110 O116 2.002 . S
Fe110 O121 1.976 . S
Fe110 O124 1.996 . S
Fe111 O112 1.918 . S
Fe111 O119 1.997 . S
Fe111 O122 1.996 . S
Fe111 O126 1.976 . S
Fe111 O129 2.002 . S
O112 Fe110 1.918 . S
O112 Fe111 1.918 . S
O112 Fe113 1.918 . S
Fe113 O112 1.918 . S
Fe113 O114 2.002 . S
Fe113 O123 1.976 . S
Fe113 O127 1.996 . S
Fe113 O130 1.997 . S
O114 Fe113 2.002 . S
O114 C131 1.295 . S
O115 Fe110 1.997 . S
O115 C131 1.235 . S
O116 Fe110 2.002 . S
O116 C117 1.295 . S
C117 O116 1.295 . S
C117 O119 1.235 . S
C118 O123 1.287 . S
C118 O124 1.255 . S
O119 Fe111 1.997 . S
O119 C117 1.235 . S
C120 O126 1.287 . S
C120 O127 1.255 . S
O121 Fe110 1.976 . S
O121 C128 1.287 . S
O122 Fe111 1.996 . S
O122 C128 1.255 . S
O123 Fe113 1.976 . S
O123 C118 1.287 . S
O124 Fe110 1.996 . S
O124 C118 1.255 . S
C125 O129 1.295 . S
C125 O130 1.235 . S
O126 Fe111 1.976 . S
O126 C120 1.287 . S
O127 Fe113 1.996 . S
O127 C120 1.255 . S
C128 O121 1.287 . S
C128 O122 1.255 . S
O129 Fe111 2.002 . S
O129 C125 1.295 . S
O130 Fe113 1.997 . S
O130 C125 1.235 . S
C131 O114 1.295 . S
C131 O115 1.235 . S
Fe132 O134 1.918 . S
Fe132 O137 1.997 . S
Fe132 O138 2.002 . S
Fe132 O143 1.976 . S
Fe132 O146 1.996 . S
Fe133 O134 1.918 . S
Fe133 O141 1.997 . S
Fe133 O144 1.996 . S
Fe133 O148 1.976 1_554 S
Fe133 O151 2.002 . S
O134 Fe132 1.918 . S
O134 Fe133 1.918 . S
O134 Fe135 1.918 . S
Fe135 O134 1.918 . S
Fe135 O136 2.002 . S
Fe135 O145 1.976 . S
Fe135 O149 1.996 . S
Fe135 O152 1.997 . S
O136 Fe135 2.002 . S
O136 C153 1.295 . S
O137 Fe132 1.997 . S
O137 C153 1.235 . S
O138 Fe132 2.002 . S
O138 C139 1.295 . S
C139 O138 1.295 . S
C139 O141 1.235 . S
C140 O145 1.287 . S
C140 O146 1.255 . S
O141 Fe133 1.997 . S
O141 C139 1.235 . S
C142 O148 1.287 . S
C142 O149 1.255 1_556 S
O143 Fe132 1.976 . S
O143 C150 1.287 . S
O144 Fe133 1.996 . S
O144 C150 1.255 . S
O145 Fe135 1.976 . S
O145 C140 1.287 . S
O146 Fe132 1.996 . S
O146 C140 1.255 . S
C147 O151 1.295 . S
C147 O152 1.235 . S
O148 Fe133 1.976 1_556 S
O148 C142 1.287 . S
O149 Fe135 1.996 . S
O149 C142 1.255 1_554 S
C150 O143 1.287 . S
C150 O144 1.255 . S
O151 Fe133 2.002 . S
O151 C147 1.295 . S
O152 Fe135 1.997 . S
O152 C147 1.235 . S
C153 O136 1.295 . S
C153 O137 1.235 . S
Fe154 O156 1.918 . S
Fe154 O159 1.997 . S
Fe154 O160 2.002 . S
Fe154 O165 1.976 . S
Fe154 O168 1.996 . S
Fe155 O156 1.918 . S
Fe155 O163 1.997 . S
Fe155 O166 1.996 . S
Fe155 O170 1.976 . S
Fe155 O173 2.002 . S
O156 Fe154 1.918 . S
O156 Fe155 1.918 . S
O156 Fe157 1.918 . S
Fe157 O156 1.918 . S
Fe157 O158 2.002 . S
Fe157 O167 1.976 . S
Fe157 O171 1.996 . S
Fe157 O174 1.997 . S
O158 Fe157 2.002 . S
O158 C175 1.295 . S
O159 Fe154 1.997 . S
O159 C175 1.235 . S
O160 Fe154 2.002 . S
O160 C161 1.295 . S
C161 O160 1.295 . S
C161 O163 1.235 . S
C162 O167 1.287 . S
C162 O168 1.255 . S
O163 Fe155 1.997 . S
O163 C161 1.235 . S
C164 O170 1.287 . S
C164 O171 1.255 . S
O165 Fe154 1.976 . S
O165 C172 1.287 . S
O166 Fe155 1.996 . S
O166 C172 1.255 . S
O167 Fe157 1.976 . S
O167 C162 1.287 . S
O168 Fe154 1.996 . S
O168 C162 1.255 . S
C169 O173 1.295 . S
C169 O174 1.235 . S
O170 Fe155 1.976 . S
O170 C164 1.287 . S
O171 Fe157 1.996 . S
O171 C164 1.255 . S
C172 O165 1.287 . S
C172 O166 1.255 . S
O173 Fe155 2.002 . S
O173 C169 1.295 . S
O174 Fe157 1.997 . S
O174 C169 1.235 . S
C175 O158 1.295 . S
C175 O159 1.235 . S
C176 C177 1.387 . S
C176 H180 0.950 . S
C176 C185 1.390 1_455 S
C177 C176 1.387 . S
C177 C179 1.387 . S
H178 C185 0.950 . S
C179 C177 1.387 . S
C179 C181 1.390 1_455 S
C179 H183 0.950 . S
H180 C176 0.950 . S
C181 C179 1.390 1_655 S
C181 C182 1.387 . S
C181 H184 0.950 . S
C182 C181 1.387 . S
C182 C185 1.387 . S
H183 C179 0.950 . S
H184 C181 0.950 . S
C185 C176 1.390 1_655 S
C185 H178 0.950 . S
C185 C182 1.387 . S
C186 C187 1.387 . S
C186 H190 0.950 . S
C186 C195 1.390 . S
C187 C186 1.387 . S
C187 C189 1.387 . S
H188 C195 0.950 . S
C189 C187 1.387 . S
C189 C191 1.390 . S
C189 H193 0.950 . S
H190 C186 0.950 . S
C191 C189 1.390 . S
C191 C192 1.387 . S
C191 H194 0.950 . S
C192 C191 1.387 . S
C192 C195 1.387 . S
H193 C189 0.950 . S
H194 C191 0.950 . S
C195 C186 1.390 . S
C195 H188 0.950 . S
C195 C192 1.387 . S
C196 C197 1.387 . S
C196 H200 0.950 . S
C196 C205 1.390 1_655 S
C197 C196 1.387 . S
C197 C199 1.387 . S
H198 C205 0.950 . S
C199 C197 1.387 . S
C199 C201 1.390 1_655 S
C199 H203 0.950 . S
H200 C196 0.950 . S
C201 C199 1.390 1_455 S
C201 C202 1.387 . S
C201 H204 0.950 . S
C202 C201 1.387 . S
C202 C205 1.387 . S
H203 C199 0.950 . S
H204 C201 0.950 . S
C205 C196 1.390 1_455 S
C205 H198 0.950 . S
C205 C202 1.387 . S
C206 C207 1.387 . S
C206 H210 0.950 . S
C206 C215 1.390 . S
C207 C206 1.387 . S
C207 C209 1.387 . S
H208 C215 0.950 . S
C209 C207 1.387 . S
C209 C211 1.390 . S
C209 H213 0.950 . S
H210 C206 0.950 . S
C211 C209 1.390 . S
C211 C212 1.387 . S
C211 H214 0.950 . S
C212 C211 1.387 . S
C212 C215 1.387 . S
H213 C209 0.950 . S
H214 C211 0.950 . S
C215 C206 1.390 . S
C215 H208 0.950 . S
C215 C212 1.387 . S
C216 C217 1.387 1_556 S
C216 H220 0.950 . S
C216 C225 1.390 1_445 S
C217 C216 1.387 1_554 S
C217 C219 1.387 . S
H218 C225 0.950 . S
C219 C217 1.387 . S
C219 C221 1.390 1_445 S
C219 H223 0.950 . S
H220 C216 0.950 . S
C221 C219 1.390 1_665 S
C221 C222 1.387 1_554 S
C221 H224 0.950 . S
C222 C221 1.387 1_556 S
C222 C225 1.387 . S
H223 C219 0.950 . S
H224 C221 0.950 . S
C225 C216 1.390 1_665 S
C225 H218 0.950 . S
C225 C222 1.387 . S
C226 C227 1.387 . S
C226 H230 0.950 . S
C226 C235 1.390 . S
C227 C226 1.387 . S
C227 C229 1.387 . S
H228 C235 0.950 . S
C229 C227 1.387 . S
C229 C231 1.390 . S
C229 H233 0.950 . S
H230 C226 0.950 . S
C231 C229 1.390 . S
C231 C232 1.387 . S
C231 H234 0.950 . S
C232 C231 1.387 . S
C232 C235 1.387 . S
H233 C229 0.950 . S
H234 C231 0.950 . S
C235 C226 1.390 . S
C235 H228 0.950 . S
C235 C232 1.387 . S
C236 C237 1.387 . S
C236 H240 0.950 . S
C236 C245 1.390 . S
C237 C236 1.387 . S
C237 C239 1.387 1_554 S
H238 C245 0.950 . S
C239 C237 1.387 1_556 S
C239 C241 1.390 . S
C239 H243 0.950 . S
H240 C236 0.950 . S
C241 C239 1.390 . S
C241 C242 1.387 . S
C241 H244 0.950 . S
C242 C241 1.387 . S
C242 C245 1.387 1_556 S
H243 C239 0.950 . S
H244 C241 0.950 . S
C245 C236 1.390 . S
C245 H238 0.950 . S
C245 C242 1.387 1_554 S
C246 C247 1.387 1_565 S
C246 H250 0.950 . S
C246 C255 1.390 . S
C247 C246 1.387 1_545 S
C247 C249 1.383 1_655 S
H248 C255 0.950 . S
C249 C247 1.383 1_455 S
C249 C251 1.394 . S
C249 H253 0.950 . S
H250 C246 0.950 . S
C251 C249 1.394 . S
C251 C252 1.387 1_545 S
C251 H254 0.950 . S
C252 C251 1.387 1_565 S
C252 C255 1.387 1_455 S
H253 C249 0.950 . S
H254 C251 0.950 . S
C255 C246 1.390 . S
C255 H248 0.950 . S
C255 C252 1.387 1_655 S
C256 C257 1.387 . S
C256 H260 0.950 . S
C256 C265 1.390 . S
C257 C256 1.387 . S
C257 C259 1.387 . S
H258 C265 0.950 1_545 S
C259 C257 1.387 . S
C259 C261 1.390 1_565 S
C259 H263 0.950 . S
H260 C256 0.950 . S
C261 C259 1.390 1_545 S
C261 C262 1.387 . S
C261 H264 0.950 . S
C262 C261 1.387 . S
C262 C265 1.387 1_545 S
H263 C259 0.950 . S
H264 C261 0.950 . S
C265 C256 1.390 . S
C265 H258 0.950 1_565 S
C265 C262 1.387 1_565 S
C266 C267 1.387 . S
C266 H270 0.950 . S
C266 C275 1.390 . S
C267 C266 1.387 . S
C267 C269 1.387 . S
H268 C275 0.950 . S
C269 C267 1.387 . S
C269 C271 1.390 . S
C269 H273 0.950 . S
H270 C266 0.950 . S
C271 C269 1.390 . S
C271 C272 1.387 . S
C271 H274 0.950 . S
C272 C271 1.387 . S
C272 C275 1.387 . S
H273 C269 0.950 . S
H274 C271 0.950 . S
C275 C266 1.390 . S
C275 H268 0.950 . S
C275 C272 1.387 . S
C276 C277 1.387 . S
C276 H280 0.950 . S
C276 C285 1.390 . S
C277 C276 1.387 . S
C277 C279 1.387 . S
H278 C285 0.950 . S
C279 C277 1.387 . S
C279 C281 1.390 . S
C279 H283 0.950 . S
H280 C276 0.950 . S
C281 C279 1.390 . S
C281 C282 1.387 . S
C281 H284 0.950 . S
C282 C281 1.387 . S
C282 C285 1.387 . S
H283 C279 0.950 . S
H284 C281 0.950 . S
C285 C276 1.390 . S
C285 H278 0.950 . S
C285 C282 1.387 . S
C286 C287 1.387 1_565 S
C286 H290 0.950 1_565 S
C286 C295 1.390 . S
C287 C286 1.387 1_545 S
C287 C289 1.392 . S
H288 C295 0.950 . S
C289 C287 1.392 . S
C289 C291 1.381 1_545 S
C289 H293 0.955 . S
H290 C286 0.950 1_545 S
C291 C289 1.381 1_565 S
C291 C292 1.387 . S
C291 H294 0.950 . S
C292 C291 1.387 . S
C292 C295 1.387 . S
H293 C289 0.955 . S
H294 C291 0.950 . S
C295 C286 1.390 . S
C295 H288 0.950 . S
C295 C292 1.387 . S
C296 C297 1.387 . S
C296 H300 0.950 . S
C296 C305 1.390 . S
C297 C296 1.387 . S
C297 C299 1.387 . S
H298 C305 0.950 1_565 S
C299 C297 1.387 . S
C299 C301 1.396 . S
C299 H303 0.950 . S
H300 C296 0.950 . S
C301 C299 1.396 . S
C301 C302 1.385 1_545 S
C301 H304 0.946 1_545 S
C302 C301 1.385 1_565 S
C302 C305 1.387 1_565 S
H303 C299 0.950 . S
H304 C301 0.946 1_565 S
C305 C296 1.390 . S
C305 H298 0.950 1_545 S
C305 C302 1.387 1_545 S
C306 C307 1.387 . S
C306 H310 0.950 . S
C306 C315 1.390 . S
C307 C306 1.387 . S
C307 C309 1.387 . S
H308 C315 0.950 . S
C309 C307 1.387 . S
C309 C311 1.390 . S
C309 H313 0.950 . S
H310 C306 0.950 . S
C311 C309 1.390 . S
C311 C312 1.387 . S
C311 H314 0.950 . S
C312 C311 1.387 . S
C312 C315 1.387 . S
H313 C309 0.950 . S
H314 C311 0.950 . S
C315 C306 1.390 . S
C315 H308 0.950 . S
C315 C312 1.387 . S
C316 C317 1.387 . S
C316 H320 0.950 . S
C316 C325 1.390 . S
C317 C316 1.387 . S
C317 C319 1.387 . S
H318 C325 0.950 . S
C319 C317 1.387 . S
C319 C321 1.390 . S
C319 H323 0.950 . S
H320 C316 0.950 . S
C321 C319 1.390 . S
C321 C322 1.387 . S
C321 H324 0.950 . S
C322 C321 1.387 . S
C322 C325 1.387 . S
H323 C319 0.950 . S
H324 C321 0.950 . S
C325 C316 1.390 . S
C325 H318 0.950 . S
C325 C322 1.387 . S
C326 C327 1.387 1_545 S
C326 H330 0.950 1_545 S
C326 C335 1.390 . S
C327 C326 1.387 1_565 S
C327 C329 1.387 . S
H328 C335 0.950 . S
C329 C327 1.387 . S
C329 C331 1.390 1_565 S
C329 H333 0.950 . S
H330 C326 0.950 1_565 S
C331 C329 1.390 1_545 S
C331 C332 1.387 . S
C331 H334 0.950 . S
C332 C331 1.387 . S
C332 C335 1.387 . S
H333 C329 0.950 . S
H334 C331 0.950 . S
C335 C326 1.390 . S
C335 H328 0.950 . S
C335 C332 1.387 . S
C336 C337 1.387 . S
C336 H340 0.950 . S
C336 C345 1.390 . S
C337 C336 1.387 . S
C337 C339 1.387 . S
H338 C345 0.950 . S
C339 C337 1.387 . S
C339 C341 1.390 . S
C339 H343 0.950 . S
H340 C336 0.950 . S
C341 C339 1.390 . S
C341 C342 1.387 . S
C341 H344 0.950 . S
C342 C341 1.387 . S
C342 C345 1.387 . S
H343 C339 0.950 . S
H344 C341 0.950 . S
C345 C336 1.390 . S
C345 H338 0.950 . S
C345 C342 1.387 . S
C346 C347 1.387 . S
C346 H350 0.950 . S
C346 C355 1.390 . S
C347 C346 1.387 . S
C347 C349 1.387 . S
H348 C355 0.950 . S
C349 C347 1.387 . S
C349 C351 1.390 . S
C349 H353 0.950 . S
H350 C346 0.950 . S
C351 C349 1.390 . S
C351 C352 1.387 . S
C351 H354 0.950 . S
C352 C351 1.387 . S
C352 C355 1.387 . S
H353 C349 0.950 . S
H354 C351 0.950 . S
C355 C346 1.390 . S
C355 H348 0.950 . S
C355 C352 1.387 . S
C356 C357 1.387 . S
C356 H360 0.950 . S
C356 C365 1.390 . S
C357 C356 1.387 . S
C357 C359 1.387 . S
H358 C365 0.950 . S
C359 C357 1.387 . S
C359 C361 1.390 . S
C359 H363 0.950 . S
H360 C356 0.950 . S
C361 C359 1.390 . S
C361 C362 1.387 . S
C361 H364 0.950 . S
C362 C361 1.387 . S
C362 C365 1.387 . S
H363 C359 0.950 . S
H364 C361 0.950 . S
C365 C356 1.390 . S
C365 H358 0.950 . S
C365 C362 1.387 . S
C366 C367 1.387 . S
C366 H370 0.950 . S
C366 C375 1.390 . S
C367 C366 1.387 . S
C367 C369 1.387 . S
H368 C375 0.950 . S
C369 C367 1.387 . S
C369 C371 1.390 . S
C369 H373 0.950 . S
H370 C366 0.950 . S
C371 C369 1.390 . S
C371 C372 1.387 . S
C371 H374 0.950 . S
C372 C371 1.387 . S
C372 C375 1.387 . S
H373 C369 0.950 . S
H374 C371 0.950 . S
C375 C366 1.390 . S
C375 H368 0.950 . S
C375 C372 1.387 . S
C376 C377 1.387 . S
C376 H380 0.950 . S
C376 C385 1.390 . S
C377 C376 1.387 . S
C377 C379 1.387 . S
H378 C385 0.950 . S
C379 C377 1.387 . S
C379 C381 1.390 . S
C379 H383 0.950 . S
H380 C376 0.950 . S
C381 C379 1.390 . S
C381 C382 1.387 . S
C381 H384 0.950 . S
C382 C381 1.387 . S
C382 C385 1.387 . S
H383 C379 0.950 . S
H384 C381 0.950 . S
C385 C376 1.390 . S
C385 H378 0.950 . S
C385 C382 1.387 . S
C386 C387 1.387 . S
C386 H390 0.950 . S
C386 C395 1.390 . S
C387 C386 1.387 . S
C387 C389 1.387 . S
H388 C395 0.950 . S
C389 C387 1.387 . S
C389 C391 1.390 . S
C389 H393 0.950 . S
H390 C386 0.950 . S
C391 C389 1.390 . S
C391 C392 1.387 . S
C391 H394 0.950 . S
C392 C391 1.387 . S
C392 C395 1.387 . S
H393 C389 0.950 . S
H394 C391 0.950 . S
C395 C386 1.390 . S
C395 H388 0.950 . S
C395 C392 1.387 . S
C396 C397 1.387 . S
C396 H400 0.950 . S
C396 C405 1.390 . S
C397 C396 1.387 . S
C397 C399 1.387 . S
H398 C405 0.950 . S
C399 C397 1.387 . S
C399 C401 1.390 . S
C399 H403 0.950 . S
H400 C396 0.950 . S
C401 C399 1.390 . S
C401 C402 1.387 . S
C401 H404 0.950 . S
C402 C401 1.387 . S
C402 C405 1.387 . S
H403 C399 0.950 . S
H404 C401 0.950 . S
C405 C396 1.390 . S
C405 H398 0.950 . S
C405 C402 1.387 . S
C406 C407 1.387 . S
C406 H410 0.950 . S
C406 C415 1.390 . S
C407 C406 1.387 . S
C407 C409 1.387 . S
H408 C415 0.950 . S
C409 C407 1.387 . S
C409 C411 1.390 . S
C409 H413 0.950 . S
H410 C406 0.950 . S
C411 C409 1.390 . S
C411 C412 1.387 . S
C411 H414 0.950 . S
C412 C411 1.387 . S
C412 C415 1.387 . S
H413 C409 0.950 . S
H414 C411 0.950 . S
C415 C406 1.390 . S
C415 H408 0.950 . S
C415 C412 1.387 . S
C177 C21 1.134 . S
C182 C87 1.134 . S
C187 C43 1.134 . S
C192 C65 1.134 . S
C197 C103 1.112 . S
C202 C175 1.112 . S
C207 C125 1.112 . S
C212 C139 1.112 . S
C217 C8 1.844 . S
C222 C98 1.853 . S
C227 C120 1.852 . S
C232 C30 1.844 . S
C237 C150 1.853 . S
C242 C52 1.845 . S
C247 C74 1.844 . S
C252 C162 1.852 . S
C257 C147 1.073 . S
C262 C18 1.095 . S
C267 C161 1.073 . S
C272 C40 1.095 . S
C277 C62 1.095 . S
C282 C109 1.076 . S
C287 C84 1.095 . S
C292 C131 1.073 . S
C297 C59 1.069 . S
C302 C106 1.092 . S
C307 C128 1.092 . S
C312 C81 1.069 . S
C317 C15 1.065 . S
C322 C140 1.093 . S
C327 C164 1.093 . S
C332 C37 1.069 . S
C337 C10 1.547 . S
C342 C29 1.556 . S
C347 C7 1.556 . S
C352 C32 1.548 . S
C357 C73 1.556 . S
C362 C54 1.548 . S
C367 C76 1.547 . S
C372 C51 1.556 . S
C377 C96 1.551 . S
C382 C117 1.559 . S
C387 C95 1.560 . S
C392 C118 1.552 . S
C397 C169 1.560 . S
C402 C142 1.552 . S
C407 C172 1.552 . S
C412 C153 1.560 . S
