# Generated by pormake.
# Topology smm, (6)-cn, num edge types: 1
# Building blocks:
#     Node 0, Type 0, BuildingBlock: BETFEN_clean_sbu_0, # of connection points: 6
#     Node 1, Type 0, BuildingBlock: BETFEN_clean_sbu_0, # of connection points: 6
#     Node 2, Type 0, BuildingBlock: BETFEN_clean_sbu_0, # of connection points: 6
#     Node 3, Type 0, BuildingBlock: BETFEN_clean_sbu_0, # of connection points: 6
#     Node 4, Type 0, BuildingBlock: BETFEN_clean_sbu_0, # of connection points: 6
#     Node 5, Type 0, BuildingBlock: BETFEN_clean_sbu_0, # of connection points: 6
#     Node 6, Type 0, BuildingBlock: BETFEN_clean_sbu_0, # of connection points: 6
#     Node 7, Type 0, BuildingBlock: BETFEN_clean_sbu_0, # of connection points: 6
#     Node 8, Type 0, BuildingBlock: BETFEN_clean_sbu_0, # of connection points: 6
#     Edge 9, Type (0, 0), BuildingBlock: ZUJKAS_clean_linker_0, # of connection points: 2
#     Edge 10, Type (0, 0), BuildingBlock: ZUJKAS_clean_linker_0, # of connection points: 2
#     Edge 11, Type (0, 0), BuildingBlock: ZUJKAS_clean_linker_0, # of connection points: 2
#     Edge 12, Type (0, 0), BuildingBlock: ZUJKAS_clean_linker_0, # of connection points: 2
#     Edge 13, Type (0, 0), BuildingBlock: ZUJKAS_clean_linker_0, # of connection points: 2
#     Edge 14, Type (0, 0), BuildingBlock: ZUJKAS_clean_linker_0, # of connection points: 2
#     Edge 15, Type (0, 0), BuildingBlock: ZUJKAS_clean_linker_0, # of connection points: 2
#     Edge 16, Type (0, 0), BuildingBlock: ZUJKAS_clean_linker_0, # of connection points: 2
#     Edge 17, Type (0, 0), BuildingBlock: ZUJKAS_clean_linker_0, # of connection points: 2
#     Edge 18, Type (0, 0), BuildingBlock: ZUJKAS_clean_linker_0, # of connection points: 2
#     Edge 19, Type (0, 0), BuildingBlock: ZUJKAS_clean_linker_0, # of connection points: 2
#     Edge 20, Type (0, 0), BuildingBlock: ZUJKAS_clean_linker_0, # of connection points: 2
#     Edge 21, Type (0, 0), BuildingBlock: ZUJKAS_clean_linker_0, # of connection points: 2
#     Edge 22, Type (0, 0), BuildingBlock: ZUJKAS_clean_linker_0, # of connection points: 2
#     Edge 23, Type (0, 0), BuildingBlock: ZUJKAS_clean_linker_0, # of connection points: 2
#     Edge 24, Type (0, 0), BuildingBlock: ZUJKAS_clean_linker_0, # of connection points: 2
#     Edge 25, Type (0, 0), BuildingBlock: ZUJKAS_clean_linker_0, # of connection points: 2
#     Edge 26, Type (0, 0), BuildingBlock: ZUJKAS_clean_linker_0, # of connection points: 2
#     Edge 27, Type (0, 0), BuildingBlock: ZUJKAS_clean_linker_0, # of connection points: 2
#     Edge 28, Type (0, 0), BuildingBlock: ZUJKAS_clean_linker_0, # of connection points: 2
#     Edge 29, Type (0, 0), BuildingBlock: ZUJKAS_clean_linker_0, # of connection points: 2
#     Edge 30, Type (0, 0), BuildingBlock: ZUJKAS_clean_linker_0, # of connection points: 2
#     Edge 31, Type (0, 0), BuildingBlock: ZUJKAS_clean_linker_0, # of connection points: 2
#     Edge 32, Type (0, 0), BuildingBlock: ZUJKAS_clean_linker_0, # of connection points: 2
#     Edge 33, Type (0, 0), BuildingBlock: ZUJKAS_clean_linker_0, # of connection points: 2
#     Edge 34, Type (0, 0), BuildingBlock: ZUJKAS_clean_linker_0, # of connection points: 2
#     Edge 35, Type (0, 0), BuildingBlock: ZUJKAS_clean_linker_0, # of connection points: 2
# Relax obj value: 0.091
# Max RMSD: 0.179
# Mean RMSD: 0.151
data_MOF--net-smm--node1-BETFEN_clean_sbu_0--edge1-ZUJKAS_clean_linker_0
_symmetry_space_group_name_H-M    P1
_symmetry_Int_Tables_number       1
_symmetry_cell_setting            triclinic
loop_
_symmetry_equiv_pos_as_xyz
'x, y, z'
_cell_length_a     75.652226
_cell_length_b     94.353263
_cell_length_c     18.79672
_cell_angle_alpha  92.650089
_cell_angle_beta   93.447102
_cell_angle_gamma 121.84172
loop_
_atom_site_label
_atom_site_type_symbol
_atom_site_fract_x
_atom_site_fract_y
_atom_site_fract_z
_atom_type_partial_charge
Pr0 Pr 0.08356 0.22997 0.04384 0.0
Pr1 Pr 1.04256 0.19769 0.07299 0.0
C2 C 0.1133 0.25748 -0.01211 0.0
C3 C 0.12286 0.27562 0.9805 0.0
C4 C 0.13942 0.28767 0.02971 0.0
C5 C 0.15029 0.30463 0.01756 0.0
C6 C 0.14497 0.30996 0.95567 0.0
C7 C 0.12799 0.29796 0.90758 0.0
C8 C 0.11713 0.281 0.91972 0.0
C9 C 0.07912 0.22486 0.18784 0.0
C10 C 1.04058 0.2315 0.06886 0.0
C11 C 1.01423 0.16795 0.11778 0.0
C12 C 1.01089 0.15107 0.10791 0.0
C13 C 1.0212 0.14753 0.05697 0.0
C14 C 1.01819 0.13157 0.04769 0.0
C15 C 1.00489 0.11882 0.08949 0.0
C16 C 0.99479 0.12251 0.14112 0.0
C17 C 0.99775 0.13849 0.15012 0.0
C18 C 1.0478 0.20296 0.92927 0.0
C19 C 0.08595 0.19668 0.05703 0.0
O20 O 0.09481 0.24694 0.95402 0.0
O21 O 0.11634 0.25284 0.04973 0.0
O22 O 0.06475 0.22228 0.14158 0.0
O23 O 0.09706 0.23144 0.16158 0.0
O24 O 1.03182 0.2166 0.09401 0.0
O25 O 0.05874 0.23818 0.04092 0.0
O26 O 1.03128 0.1792 0.15741 0.0
O27 O 1.01063 0.17372 0.06028 0.0
O28 O 0.06175 0.20521 0.97649 0.0
O29 O 1.02982 0.19689 0.9547 0.0
O30 O 0.09421 0.21095 0.02717 0.0
O31 O 0.068 0.19041 0.08536 0.0
H32 H 0.14447 0.28395 0.07653 0.0
H33 H 0.16344 0.31347 0.05527 0.0
H34 H 0.12329 0.30164 0.85986 0.0
H35 H 0.1046 0.27204 0.8803 0.0
H36 H 1.03163 0.15715 0.02438 0.0
H37 H 1.02646 0.12926 0.00827 0.0
H38 H 0.98432 0.11297 0.1738 0.0
H39 H 0.98974 0.14101 0.18996 0.0
Pr40 Pr 0.94515 0.84133 0.00487 0.0
Pr41 Pr 0.94232 0.87209 0.96758 0.0
C42 C 0.94131 0.81355 0.05819 0.0
C43 C 0.92947 0.79477 0.05634 0.0
C44 C 0.92691 0.78454 -0.00537 0.0
C45 C 0.91776 0.76712 -0.00351 0.0
C46 C 0.9109 0.75931 0.06016 0.0
C47 C 0.9132 0.7696 0.12144 0.0
C48 C 0.92234 0.78699 0.11952 0.0
C49 C 0.94745 0.84726 0.86131 0.0
C50 C 0.89839 0.83674 0.95474 0.0
C51 C 0.94482 0.89971 0.92093 0.0
C52 C 0.95321 0.91767 0.94148 0.0
C53 C 0.94895 0.923 0.00575 0.0
C54 C 0.95525 0.9398 0.02068 0.0
C55 C 0.96598 0.95169 0.9718 0.0
C56 C 0.97077 0.94636 0.90858 0.0
C57 C 0.9644 0.92956 0.89358 0.0
C58 C 0.94099 0.86624 0.11192 0.0
C59 C 0.9895 0.8782 0.00119 0.0
O60 O 0.9334 0.82171 0.08633 0.0
O61 O 0.95217 0.82072 0.0049 0.0
O62 O 0.93536 0.84845 0.90083 0.0
O63 O 0.9577 0.84152 0.89387 0.0
O64 O 0.90903 0.85074 0.92405 0.0
O65 O 0.9083 0.83125 -0.00516 0.0
O66 O 0.95807 0.8953 0.90626 0.0
O67 O 0.92941 0.88869 0.95455 0.0
O68 O 0.95284 0.86517 0.07107 0.0
O69 O 0.93031 0.87167 0.08021 0.0
O70 O 0.98087 0.86395 0.03276 0.0
O71 O 0.97771 0.88218 0.96356 0.0
H72 H 0.93227 0.79002 0.94495 0.0
H73 H 0.91606 0.75977 0.94771 0.0
H74 H 0.90851 0.76432 0.17191 0.0
H75 H 0.92433 0.79447 0.16833 0.0
H76 H 0.94033 0.91414 0.04381 0.0
H77 H 0.95106 0.94333 0.06953 0.0
H78 H 0.97933 0.95516 0.87024 0.0
H79 H 0.96788 0.92577 0.84367 0.0
Pr80 Pr 0.2531 0.0384 0.0028 0.0
Pr81 Pr 0.23772 0.06137 0.05366 0.0
C82 C 0.26859 1.02255 0.93063 0.0
C83 C 0.28625 1.02007 0.92557 0.0
C84 C 0.2952 1.01683 -0.0146 0.0
C85 C 0.30999 1.01237 0.97737 0.0
C86 C 0.31618 1.01107 0.9094 0.0
C87 C 0.30776 1.01496 0.85014 0.0
C88 C 0.29294 1.01938 0.85819 0.0
C89 C 0.25205 0.04117 0.15037 0.0
C90 C 0.28852 0.0793 0.0466 0.0
C91 C 0.22118 0.07788 0.11414 0.0
C92 C 0.20841 0.0853 0.0997 0.0
C93 C 0.21136 0.09505 0.04203 0.0
C94 C 0.20057 0.10334 0.03395 0.0
C95 C 0.18662 0.10206 0.08338 0.0
C96 C 0.18328 0.09185 0.13972 0.0
C97 C 0.19408 0.08361 0.14778 0.0
C98 C 0.23875 0.05795 0.906 0.0
C99 C 0.20361 1.01982 0.02734 0.0
O100 O 0.27091 0.03664 0.91268 0.0
O101 O 0.25722 1.01658 -0.01592 0.0
O102 O 0.25758 0.05299 0.11122 0.0
O103 O 0.24945 1.02791 0.11553 0.0
O104 O 0.27409 0.07989 0.08086 0.0
O105 O 0.28379 0.06554 0.007 0.0
O106 O 0.21179 0.06157 0.10894 0.0
O107 O 0.23976 0.0853 0.09167 0.0
O108 O 0.23226 0.04623 0.94595 0.0
O109 O 0.24382 0.07193 0.94091 0.0
O110 O 0.21686 1.01925 -0.01362 0.0
O111 O 0.20904 0.03386 0.06638 0.0
H112 H 0.29038 1.01732 0.03811 0.0
H113 H 0.31638 1.00971 0.02434 0.0
H114 H 0.31197 1.01394 0.79693 0.0
H115 H 0.28615 1.0217 0.81118 0.0
H116 H 0.22236 0.0966 0.00415 0.0
H117 H 0.2037 0.11117 -0.00974 0.0
H118 H 0.1724 0.09029 0.17807 0.0
H119 H 0.19154 0.07616 0.19267 0.0
Pr120 Pr 0.77504 0.54647 0.15229 0.0
Pr121 Pr 0.81039 0.54133 0.11386 0.0
C122 C 0.74534 0.54831 0.21653 0.0
C123 C 0.74311 0.56093 0.25641 0.0
C124 C 0.72336 0.55886 0.25541 0.0
C125 C 0.72096 0.57101 0.29063 0.0
C126 C 0.73831 0.58546 0.32758 0.0
C127 C 0.75809 0.58739 0.32926 0.0
C128 C 0.76049 0.57525 0.29363 0.0
C129 C 0.77934 0.54577 0.00687 0.0
C130 C 0.81852 0.58032 0.12619 0.0
C131 C 0.84153 0.53771 0.07256 0.0
C132 C 0.8487 0.52586 0.08254 0.0
C133 C 0.8561 0.52431 0.15047 0.0
C134 C 0.8629 0.51317 0.15886 0.0
C135 C 0.86242 0.50322 0.09968 0.0
C136 C 0.85498 0.50478 0.03179 0.0
C137 C 0.84829 0.51599 0.02335 0.0
C138 C 0.80423 0.54148 0.2582 0.0
C139 C 0.76417 0.50705 0.12596 0.0
O140 O 0.7573 0.54384 0.24836 0.0
O141 O 0.74772 0.55008 0.14855 0.0
O142 O 0.78096 0.5363 0.04832 0.0
O143 O 0.77332 0.55485 0.03827 0.0
O144 O 0.82319 0.57008 0.09284 0.0
O145 O 0.80253 0.5743 0.16509 0.0
O146 O 0.82398 0.53209 0.03233 0.0
O147 O 0.84376 0.54754 0.12839 0.0
O148 O 0.80475 0.55176 0.21691 0.0
O149 O 0.80688 0.53044 0.2255 0.0
O150 O 0.75873 0.51721 0.15327 0.0
O151 O 0.78254 0.51302 0.10062 0.0
H152 H 0.70979 0.54788 0.2269 0.0
H153 H 0.70548 0.56905 0.2892 0.0
H154 H 0.77177 0.59846 0.35673 0.0
H155 H 0.77592 0.5771 0.2945 0.0
H156 H 0.8566 0.53166 0.19744 0.0
H157 H 0.86826 0.5122 0.21207 0.0
H158 H 0.85462 0.49751 -0.0152 0.0
H159 H 0.84281 0.51696 0.97029 0.0
Pr160 Pr 0.55491 0.21669 0.15501 0.0
Pr161 Pr 0.55436 0.2486 0.12096 0.0
C162 C 0.55269 0.18948 0.20399 0.0
C163 C 0.54242 0.17479 0.24625 0.0
C164 C 0.52936 0.15866 0.21092 0.0
C165 C 0.52267 0.14446 0.24809 0.0
C166 C 0.52903 0.14603 0.32141 0.0
C167 C 0.54118 0.16218 0.35757 0.0
C168 C 0.54784 0.1764 0.32038 0.0
C169 C 0.56129 0.22496 0.01436 0.0
C170 C 0.50827 0.21244 0.1264 0.0
C171 C 0.55674 0.27616 0.07414 0.0
C172 C 0.57326 0.29431 0.08148 0.0
C173 C 0.56829 0.30631 0.06635 0.0
C174 C 0.58399 0.32343 0.07085 0.0
C175 C 0.60512 0.329 0.09041 0.0
C176 C 0.60996 0.31688 0.10613 0.0
C177 C 0.59425 0.29979 0.10188 0.0
C178 C 0.56241 0.24604 0.26538 0.0
C179 C 0.59956 0.25131 0.14836 0.0
O180 O 0.56394 0.20449 0.23808 0.0
O181 O 0.54322 0.18904 0.14241 0.0
O182 O 0.54829 0.22574 0.05047 0.0
O183 O 0.5708 0.21895 0.04931 0.0
O184 O 0.5176 0.22807 0.10744 0.0
O185 O 0.51915 0.20608 0.15068 0.0
O186 O 0.56071 0.26641 0.03563 0.0
O187 O 0.54797 0.26961 0.13199 0.0
O188 O 0.54892 0.2343 0.22136 0.0
O189 O 0.57197 0.26006 0.23623 0.0
O190 O 0.58979 0.2381 0.18494 0.0
O191 O 0.58898 0.25613 0.10865 0.0
H192 H 0.52502 0.15698 0.15377 0.0
H193 H 0.51303 0.13221 0.21883 0.0
H194 H 0.54652 0.16387 0.41385 0.0
H195 H 0.55804 0.18864 0.3492 0.0
H196 H 0.55225 0.30242 0.05027 0.0
H197 H 0.57959 0.33227 0.05753 0.0
H198 H 0.62592 0.3206 0.12241 0.0
H199 H 0.59852 0.29081 0.11416 0.0
Pr200 Pr 0.96312 0.37429 0.20001 0.0
Pr201 Pr 0.9186 0.34592 0.13937 0.0
C202 C 1.00103 0.39365 0.27311 0.0
C203 C 1.02228 0.40438 0.31095 0.0
C204 C 1.03985 0.41075 0.27218 0.0
C205 C 0.06004 0.42009 0.30739 0.0
C206 C 0.06318 0.42338 0.38228 0.0
C207 C 1.0456 0.41729 0.4211 0.0
C208 C 1.02533 0.40779 0.38578 0.0
C209 C 0.95533 0.37138 0.05239 0.0
C210 C 0.95349 0.33571 0.15684 0.0
C211 C 0.88 0.32593 0.06982 0.0
C212 C 0.85866 0.32225 0.07542 0.0
C213 C 0.85405 0.32914 0.13383 0.0
C214 C 0.83348 0.32491 0.14007 0.0
C215 C 0.81714 0.31369 0.08797 0.0
C216 C 0.822 0.30706 0.02896 0.0
C217 C 0.84254 0.31129 0.02286 0.0
C218 C 0.92601 0.34967 0.28782 0.0
C219 C 0.92948 0.38555 0.1701 0.0
O220 O 0.98427 0.38437 0.30557 0.0
O221 O 0.99777 0.39307 0.20363 0.0
O222 O 0.94959 0.35923 0.08998 0.0
O223 O 0.96636 0.38575 0.09037 0.0
O224 O 0.93658 0.33245 0.11668 0.0
O225 O 0.96419 0.34959 0.20092 0.0
O226 O 0.89368 0.3407 0.05057 0.0
O227 O 0.88767 0.32119 0.12102 0.0
O228 O 0.93189 0.36143 0.2483 0.0
O229 O 0.91476 0.33517 0.25135 0.0
O230 O 0.94729 0.38989 0.2073 0.0
O231 O 0.9173 0.37043 0.13571 0.0
H232 H 1.03803 0.40831 0.21448 0.0
H233 H 0.07323 0.42481 0.27582 0.0
H234 H 1.04752 0.41957 0.47887 0.0
H235 H 1.01206 0.403 0.41705 0.0
H236 H 0.86632 0.33761 0.17506 0.0
H237 H 0.83033 0.33013 0.18655 0.0
H238 H 0.80993 0.29862 -0.01279 0.0
H239 H 0.84582 0.30589 0.97729 0.0
Pr240 Pr 0.48346 0.93709 0.81011 0.0
Pr241 Pr 0.44374 0.90466 0.84085 0.0
C242 C 0.51147 0.9655 0.75499 0.0
C243 C 0.51192 0.97994 0.7266 0.0
C244 C 0.52701 0.98961 0.68104 0.0
C245 C 0.5271 1.00292 0.65101 0.0
C246 C 0.51199 1.00678 0.66579 0.0
C247 C 0.49696 0.99711 0.71213 0.0
C248 C 0.49693 0.98379 0.74221 0.0
C249 C 0.47952 0.93221 0.95441 0.0
C250 C 0.43934 0.93666 0.82849 0.0
C251 C 0.41514 0.87577 0.89008 0.0
C252 C 0.41006 0.85853 0.87756 0.0
C253 C 0.41903 0.85441 0.8236 0.0
C254 C 0.41427 0.83803 0.8111 0.0
C255 C 0.40055 0.82547 0.85274 0.0
C256 C 0.39178 0.82975 0.90741 0.0
C257 C 0.39651 0.84617 0.91966 0.0
C258 C 0.44817 0.90917 0.6961 0.0
C259 C 0.4883 0.90492 0.82909 0.0
O260 O 0.49966 0.95116 0.71646 0.0
O261 O 0.5101 0.96425 0.82373 0.0
O262 O 0.46499 0.92948 0.90847 0.0
O263 O 0.49732 0.93844 0.92724 0.0
O264 O 0.43282 0.92313 0.8627 0.0
O265 O 0.45641 0.9428 0.79448 0.0
O266 O 0.43339 0.88628 0.9253 0.0
O267 O 0.411 0.88187 0.83486 0.0
O268 O 0.46247 0.91206 0.74319 0.0
O269 O 0.43027 0.90283 0.7223 0.0
O270 O 0.49713 0.91986 0.80453 0.0
O271 O 0.46934 0.89756 0.85077 0.0
H272 H 0.53869 0.98679 0.66833 0.0
H273 H 0.53909 1.01026 0.61651 0.0
H274 H 0.48497 0.9996 0.72407 0.0
H275 H 0.48509 0.97642 0.77712 0.0
H276 H 0.42963 0.86388 0.79081 0.0
H277 H 0.42106 0.83515 0.76792 0.0
H278 H 0.38139 0.82043 0.94106 0.0
H279 H 0.38961 0.84923 0.96193 0.0
Pr280 Pr 0.32813 0.55461 0.68768 0.0
Pr281 Pr 0.31584 0.57965 0.64434 0.0
C282 C 0.33013 0.53032 0.75053 0.0
C283 C 0.31523 0.51277 0.76311 0.0
C284 C 0.29651 0.50286 0.7185 0.0
C285 C 0.28198 0.48648 0.73329 0.0
C286 C 0.28585 0.47975 0.79325 0.0
C287 C 0.3047 0.48975 0.83756 0.0
C288 C 0.31923 0.50611 0.82258 0.0
C289 C 0.32943 0.55986 0.54343 0.0
C290 C 0.27785 0.54095 0.63689 0.0
C291 C 0.31236 0.6038 0.58767 0.0
C292 C 0.32228 0.62183 0.60562 0.0
C293 C 0.33584 0.6296 0.66847 0.0
C294 C 0.34433 0.64659 0.68799 0.0
C295 C 0.33946 0.65606 0.6447 0.0
C296 C 0.32633 0.6483 0.58065 0.0
C297 C 0.31774 0.63127 0.56137 0.0
C298 C 0.31569 0.57499 0.78962 0.0
C299 C 0.36667 0.59375 0.68834 0.0
O300 O 0.32788 0.54148 0.78567 0.0
O301 O 0.33408 0.53347 0.68426 0.0
O302 O 0.31534 0.55822 0.58104 0.0
O303 O 0.34314 0.55787 0.57912 0.0
O304 O 0.28453 0.55501 0.60672 0.0
O305 O 0.29089 0.53867 0.67776 0.0
O306 O 0.32452 0.59898 0.56453 0.0
O307 O 0.30013 0.59428 0.63396 0.0
O308 O 0.32926 0.57641 0.75025 0.0
O309 O 0.30188 0.57701 0.75522 0.0
O310 O 0.36133 0.57918 0.71253 0.0
O311 O 0.35263 0.59617 0.65558 0.0
H312 H 0.29301 0.50786 0.67274 0.0
H313 H 0.26751 0.4792 0.69863 0.0
H314 H 0.30827 0.4849 0.88367 0.0
H315 H 0.33354 0.51361 0.85785 0.0
H316 H 0.33957 0.62245 0.70295 0.0
H317 H 0.3546 0.65229 0.73713 0.0
H318 H 0.32218 0.65528 0.54661 0.0
H319 H 0.30729 0.62541 0.51266 0.0
Pr320 Pr 0.62962 0.73117 0.75635 0.0
Pr321 Pr 0.63008 0.76277 0.81144 0.0
C322 C 0.6344 0.70832 0.68359 0.0
C323 C 0.64964 0.70361 0.66718 0.0
C324 C 0.65229 0.69277 0.70902 0.0
C325 C 0.6648 0.68676 0.6885 0.0
C326 C 0.67481 0.69137 0.6254 0.0
C327 C 0.67269 0.70264 0.58485 0.0
C328 C 0.66021 0.70864 0.60535 0.0
C329 C 0.6273 0.73434 0.90308 0.0
C330 C 0.67553 0.7656 0.8103 0.0
C331 C 0.62492 0.78646 0.87572 0.0
C332 C 0.61255 0.79443 0.86915 0.0
C333 C 0.60369 0.7951 0.80249 0.0
C334 C 0.59321 0.8037 0.79735 0.0
C335 C 0.5914 0.81184 0.85877 0.0
C336 C 0.59997 0.8108 0.92551 0.0
C337 C 0.61041 0.8022 0.93054 0.0
C338 C 0.63104 0.75891 0.66392 0.0
C339 C 0.58412 0.72608 0.76608 0.0
O340 O 0.63638 0.72152 0.65606 0.0
O341 O 0.62819 0.70656 0.74794 0.0
O342 O 0.63898 0.74611 0.86686 0.0
O343 O 0.61706 0.72 0.86456 0.0
O344 O 0.66536 0.77133 0.84452 0.0
O345 O 0.66527 0.75204 0.76482 0.0
O346 O 0.61543 0.77101 0.89303 0.0
O347 O 0.63822 0.78951 0.82841 0.0
O348 O 0.61985 0.7475 0.70215 0.0
O349 O 0.64156 0.77337 0.70104 0.0
O350 O 0.59452 0.72092 0.73093 0.0
O351 O 0.59402 0.74061 0.80646 0.0
H352 H 0.64416 0.68848 0.75645 0.0
H353 H 0.66588 0.67794 0.72044 0.0
H354 H 0.68039 0.70657 0.5364 0.0
H355 H 0.65838 0.71687 0.57154 0.0
H356 H 0.60517 0.78921 0.75428 0.0
H357 H 0.58699 0.80432 0.74499 0.0
H358 H 0.5986 0.81661 0.97415 0.0
H359 H 0.61707 0.80182 -0.01746 0.0
H360 H 0.15735 0.32197 0.82604 0.0
H361 H 0.17999 0.35111 0.8005 0.0
H362 H 0.18473 0.36749 0.02258 0.0
H363 H 0.16186 0.33836 0.04863 0.0
H364 H 0.1755 0.37906 0.82327 0.0
H365 H 0.24611 0.3884 0.97999 0.0
H366 H 0.22314 0.3679 0.95458 0.0
H367 H 0.22343 0.38089 0.02817 0.0
C368 C 0.16293 0.33176 0.86938 0.0
C369 C 0.15781 0.32778 0.93952 0.0
C370 C 0.17598 0.34841 0.85469 0.0
C371 C 0.18429 0.36144 0.9098 0.0
C372 C 0.17882 0.3576 0.97951 0.0
H373 H 0.27327 0.46891 0.92422 0.0
H374 H 0.24797 0.44041 0.95193 0.0
C375 C 0.16575 0.34094 -0.00571 0.0
C376 C 0.19886 0.379 0.89424 0.0
H377 H 0.2492 0.4121 0.93071 0.0
C378 C 0.19162 0.3863 0.84666 0.0
C379 C 0.21988 0.38841 0.92489 0.0
C380 C 0.22873 0.38101 0.97431 0.0
C381 C 0.20477 0.40285 0.8296 0.0
C382 C 0.22586 0.41222 0.85978 0.0
C383 C 0.23304 0.40493 0.90765 0.0
C384 C 0.24081 0.42957 0.84219 0.0
C385 C 0.19583 0.41025 0.78056 0.0
C386 C 0.24538 0.43294 0.77134 0.0
C387 C 0.25985 0.44923 0.75533 0.0
C388 C 0.27025 0.46245 0.81 0.0
C389 C 0.26572 0.459 0.88096 0.0
C390 C 0.25119 0.44273 0.89686 0.0
H391 H 0.17851 0.4034 0.77873 0.0
H392 H 0.20236 0.42366 0.79773 0.0
H393 H 0.19988 0.40935 0.72546 0.0
H394 H 0.23799 0.42292 0.72848 0.0
H395 H 0.26322 0.45141 0.70031 0.0
H396 H 0.8682 0.80627 0.00088 0.0
H397 H 0.82985 0.79256 0.98014 0.0
H398 H 0.83787 0.83369 0.86494 0.0
H399 H 0.87544 0.84707 0.88352 0.0
H400 H 0.80289 0.8033 0.01675 0.0
H401 H 0.7991 0.79405 0.72247 0.0
H402 H 0.82207 0.79945 0.78049 0.0
H403 H 0.81732 0.81546 0.75577 0.0
C404 C 0.86174 0.81228 0.97065 0.0
C405 C 0.87507 0.82769 0.94317 0.0
C406 C 0.83982 0.80448 0.95905 0.0
C407 C 0.83089 0.81192 0.91963 0.0
C408 C 0.84423 0.82743 0.89378 0.0
H409 H 0.7041 0.79395 0.89958 0.0
H410 H 0.7415 0.80498 0.92899 0.0
C411 C 0.86589 0.83512 0.90487 0.0
C412 C 0.80774 0.80386 0.90502 0.0
H413 H 0.76937 0.79238 0.76878 0.0
C414 C 0.79549 0.80072 0.96253 0.0
C415 C 0.79794 0.80032 0.83429 0.0
C416 C 0.80975 0.80233 0.76975 0.0
C417 C 0.77391 0.7946 0.95123 0.0
C418 C 0.76436 0.7919 0.88049 0.0
C419 C 0.77658 0.79465 0.82312 0.0
C420 C 0.74159 0.78547 0.86384 0.0
C421 C 0.76154 0.79085 0.01523 0.0
C422 C 0.7292 0.77119 0.81551 0.0
C423 C 0.70804 0.76511 0.79755 0.0
C424 C 0.69847 0.77306 0.82755 0.0
C425 C 0.71088 0.78747 0.87556 0.0
C426 C 0.73225 0.79368 0.89308 0.0
H427 H 0.76947 0.78895 0.06214 0.0
H428 H 0.75995 0.8016 0.03047 0.0
H429 H 0.74563 0.77949 0.00298 0.0
H430 H 0.73589 0.7646 0.79182 0.0
H431 H 0.69913 0.75396 0.76056 0.0
H432 H 0.34834 1.02225 0.82323 0.0
H433 H 0.37013 1.01064 0.80229 0.0
H434 H 0.3383 0.97429 0.95286 0.0
H435 H 0.31618 0.98551 0.97287 0.0
H436 H 0.39723 1.00668 0.90101 0.0
H437 H 0.33234 0.9456 0.77003 0.0
H438 H 0.33018 0.96371 0.78256 0.0
H439 H 0.32737 0.95127 0.85569 0.0
C440 C 0.34591 1.01173 0.85166 0.0
C441 C 0.33042 1.00479 0.89958 0.0
C442 C 0.35846 1.00517 0.83989 0.0
C443 C 0.35564 0.99143 0.87517 0.0
C444 C 0.34054 0.98472 0.92416 0.0
H445 H 0.40594 0.92883 0.90312 0.0
H446 H 0.38684 0.943 0.9098 0.0
C447 C 0.32806 0.99129 0.93617 0.0
C448 C 0.36839 0.98403 0.86096 0.0
H449 H 0.36442 0.9475 0.80302 0.0
C450 C 0.39012 0.99379 0.87894 0.0
C451 C 0.3591 0.96723 0.83183 0.0
C452 C 0.33599 0.95636 0.80822 0.0
C453 C 0.40268 0.987 0.87149 0.0
C454 C 0.39329 0.97006 0.84402 0.0
C455 C 0.37163 0.96046 0.82429 0.0
C456 C 0.40534 0.96172 0.83905 0.0
C457 C 0.42574 0.99781 0.89577 0.0
C458 C 0.42206 0.96738 0.79634 0.0
C459 C 0.43314 0.95928 0.79247 0.0
C460 C 0.42762 0.94528 0.83088 0.0
C461 C 0.4107 0.93956 0.87277 0.0
C462 C 0.39971 0.94766 0.8767 0.0
H463 H 0.4296 1.00914 0.93038 0.0
H464 H 0.43111 0.99066 0.92571 0.0
H465 H 0.43462 1.002 0.84822 0.0
H466 H 0.42643 0.97798 0.76553 0.0
H467 H 0.44594 0.96394 0.75915 0.0
H468 H 0.48559 0.18197 0.17883 0.0
H469 H 0.44817 0.1619 0.1628 0.0
H470 H 0.43945 0.1961 0.04392 0.0
H471 H 0.47753 0.21646 0.0587 0.0
H472 H 0.41565 0.16296 0.20473 0.0
H473 H 0.40773 0.15355 0.908 0.0
H474 H 0.43283 0.16462 0.96047 0.0
H475 H 0.41869 0.17479 0.94456 0.0
C476 C 0.47589 0.1854 0.14908 0.0
C477 C 0.48487 0.20097 0.11965 0.0
C478 C 0.4543 0.17379 0.14012 0.0
C479 C 0.44076 0.17721 0.1012 0.0
C480 C 0.44949 0.19291 0.07297 0.0
H481 H 0.30414 0.11038 0.1183 0.0
H482 H 0.34007 0.13462 0.13016 0.0
C483 C 0.4713 0.20465 0.08205 0.0
C484 C 0.4177 0.16416 0.09125 0.0
H485 H 0.37689 0.13823 0.96498 0.0
C486 C 0.40717 0.15767 0.1522 0.0
C487 C 0.40652 0.15694 0.02285 0.0
C488 C 0.41699 0.16268 0.95509 0.0
C489 C 0.38612 0.14421 0.14687 0.0
C490 C 0.37487 0.13709 0.0785 0.0
C491 C 0.38532 0.14366 0.01748 0.0
C492 C 0.35258 0.12243 0.06927 0.0
C493 C 0.37642 0.13733 0.21482 0.0
C494 C 0.34717 0.10748 0.02919 0.0
C495 C 0.3265 0.09357 0.02178 0.0
C496 C 0.31055 0.0942 0.05409 0.0
C497 C 0.31593 0.10928 0.09322 0.0
C498 C 0.3366 0.1232 0.10039 0.0
H499 H 0.38849 0.141 0.26049 0.0
H500 H 0.36664 0.14239 0.22891 0.0
H501 H 0.36631 0.12345 0.20794 0.0
H502 H 0.35906 0.10647 0.0043 0.0
H503 H 0.32307 0.08227 -0.00905 0.0
H504 H 0.98907 0.33932 0.22436 0.0
H505 H 1.00279 0.32114 0.20818 0.0
H506 H 0.94953 0.28762 0.05787 0.0
H507 H 0.93587 0.3059 0.07269 0.0
H508 H 0.98735 0.28863 0.23213 0.0
H509 H 0.9973 0.29593 0.94371 0.0
H510 H 0.99197 0.30909 -0.00069 0.0
H511 H 0.9711 0.28839 0.96463 0.0
C512 C 0.98022 0.32809 0.18779 0.0
C513 C 0.96138 0.3242 0.1495 0.0
C514 C 0.98812 0.31767 0.17863 0.0
C515 C 0.97745 0.30311 0.13078 0.0
C516 C 0.95838 0.29897 0.09378 0.0
H517 H 1.00339 0.22252 0.12321 0.0
H518 H 0.98772 0.23936 0.13778 0.0
C519 C 0.95048 0.30941 0.10275 0.0
C520 C 0.98627 0.29228 0.12013 0.0
H521 H 1.00249 0.27556 -0.00677 0.0
C522 C 0.99065 0.28579 0.17984 0.0
C523 C 0.99092 0.2887 0.05214 0.0
C524 C 0.98779 0.29601 -0.01364 0.0
C525 C 0.99928 0.27575 0.17343 0.0
C526 C 1.00335 0.27177 0.1051 0.0
C527 C 0.99918 0.2784 0.04552 0.0
C528 C 1.01254 0.2612 0.09456 0.0
C529 C 1.00447 0.26989 0.24035 0.0
C530 C 1.03139 0.26753 0.06312 0.0
C531 C 1.04031 0.25785 0.05403 0.0
C532 C 1.03057 0.24151 0.0759 0.0
C533 C 1.01146 0.23506 0.1061 0.0
C534 C 1.00252 0.24475 0.11501 0.0
H535 H 1.00583 0.27764 0.28917 0.0
H536 H 0.9918 0.25677 0.24545 0.0
H537 H 1.01935 0.27028 0.23816 0.0
H538 H 1.03942 0.28012 0.04647 0.0
H539 H 0.055 0.26329 0.03045 0.0
H540 H 0.92167 0.73888 -0.01052 0.0
H541 H 0.90694 0.70884 -0.00495 0.0
H542 H 0.86542 0.7073 0.14588 0.0
H543 H 0.87941 0.73711 0.13854 0.0
H544 H 0.90578 0.69047 0.10395 0.0
H545 H 0.82439 0.66877 0.00413 0.0
H546 H 0.84581 0.68995 -0.00149 0.0
H547 H 0.83388 0.6838 0.08081 0.0
C548 C 0.90915 0.73217 0.02302 0.0
C549 C 0.90176 0.74069 0.06312 0.0
C550 C 0.90083 0.7149 0.02665 0.0
C551 C 0.88471 0.7055 0.07 0.0
C552 C 0.87747 0.71399 0.11066 0.0
H553 H 0.81329 0.60405 0.19331 0.0
H554 H 0.83021 0.63371 0.17682 0.0
C555 C 0.88576 0.73123 0.10709 0.0
C556 C 0.87574 0.68697 0.07369 0.0
H557 H 0.8297 0.64868 0.05714 0.0
C558 C 0.88915 0.68134 0.09305 0.0
C559 C 0.85403 0.67483 0.05925 0.0
C560 C 0.83871 0.67959 0.0338 0.0
C561 C 0.88146 0.66423 0.10091 0.0
C562 C 0.8597 0.65217 0.08806 0.0
C563 C 0.84636 0.65777 0.06741 0.0
C564 C 0.8502 0.63386 0.09901 0.0
C565 C 0.89668 0.65931 0.12552 0.0
C566 C 0.85564 0.62366 0.06102 0.0
C567 C 0.84587 0.6064 0.07046 0.0
C568 C 0.83032 0.59886 0.11797 0.0
C569 C 0.82513 0.6092 0.15618 0.0
C570 C 0.83482 0.62631 0.1467 0.0
H571 H 0.91187 0.67031 0.14933 0.0
H572 H 0.89015 0.65 0.16565 0.0
H573 H 0.89973 0.65352 0.07895 0.0
H574 H 0.86713 0.62895 0.02278 0.0
H575 H 0.85021 0.59893 0.03954 0.0
H576 H 0.25813 0.50816 0.67073 0.0
H577 H 0.22158 0.48566 0.63546 0.0
H578 H 0.21065 0.52067 0.53301 0.0
H579 H 0.24683 0.54298 0.56679 0.0
H580 H 0.18279 0.48257 0.66159 0.0
H581 H 0.19349 0.48346 0.37259 0.0
H582 H 0.21523 0.49338 0.44132 0.0
H583 H 0.20192 0.50375 0.41513 0.0
C584 C 0.24791 0.51106 0.6409 0.0
C585 C 0.25553 0.52735 0.62082 0.0
C586 C 0.22703 0.4982 0.62087 0.0
C587 C 0.21352 0.50143 0.58037 0.0
C588 C 0.22091 0.5178 0.56281 0.0
H589 H 0.07937 0.44903 0.48923 0.0
H590 H 0.11568 0.46637 0.54248 0.0
C591 C 0.24165 0.53057 0.58246 0.0
C592 C 0.19175 0.48783 0.55482 0.0
H593 H 0.15827 0.46942 0.40256 0.0
C594 C 0.17743 0.47953 0.60497 0.0
C595 C 0.18485 0.48368 0.48092 0.0
C596 C 0.19972 0.49141 0.42432 0.0
C597 C 0.15619 0.46767 0.58312 0.0
C598 C 0.14907 0.46427 0.50924 0.0
C599 C 0.16361 0.47212 0.45921 0.0
C600 C 0.12663 0.45288 0.48203 0.0
C601 C 0.14165 0.45887 0.63935 0.0
C602 C 0.12066 0.43963 0.42964 0.0
C603 C 0.1 0.42987 0.39854 0.0
C604 C 0.0848 0.43311 0.4191 0.0
C605 C 0.09065 0.4461 0.47285 0.0
C606 C 0.1114 0.45597 0.50359 0.0
H607 H 0.15032 0.45878 0.68904 0.0
H608 H 0.13377 0.4656 0.65338 0.0
H609 H 0.12947 0.44574 0.61961 0.0
H610 H 0.1321 0.437 0.41197 0.0
H611 H 0.09594 0.41982 0.35793 0.0
H612 H 0.70152 0.68513 0.70319 0.0
H613 H 0.71796 0.6703 0.66018 0.0
H614 H 0.68955 0.66464 0.44644 0.0
H615 H 0.67314 0.67936 0.48874 0.0
H616 H 0.69793 0.63811 0.59872 0.0
H617 H 0.7494 0.68133 0.41022 0.0
H618 H 0.73779 0.68754 0.47624 0.0
H619 H 0.72293 0.67603 0.39285 0.0
C620 C 0.69892 0.68083 0.64693 0.0
C621 C 0.68612 0.68352 0.59929 0.0
C622 C 0.70839 0.67243 0.62242 0.0
C623 C 0.7053 0.66664 0.54987 0.0
C624 C 0.69267 0.66942 0.50222 0.0
H625 H 0.71558 0.59811 0.27469 0.0
H626 H 0.70997 0.61877 0.33462 0.0
C627 C 0.68326 0.67784 0.52655 0.0
C628 C 0.71384 0.65654 0.52447 0.0
H629 H 0.74111 0.65291 0.39405 0.0
C630 C 0.70771 0.64148 0.55487 0.0
C631 C 0.72661 0.66098 0.46733 0.0
C632 C 0.73474 0.67744 0.43527 0.0
C633 C 0.71306 0.63032 0.52708 0.0
C634 C 0.72503 0.63444 0.4679 0.0
C635 C 0.73184 0.64977 0.43925 0.0
C636 C 0.72931 0.62245 0.43173 0.0
C637 C 0.70505 0.61384 0.55892 0.0
C638 C 0.74228 0.61787 0.46627 0.0
C639 C 0.74548 0.606 0.4322 0.0
C640 C 0.73569 0.59853 0.36314 0.0
C641 C 0.72305 0.60344 0.32832 0.0
C642 C 0.71995 0.61532 0.36223 0.0
H643 H 0.69329 0.61145 0.597 0.0
H644 H 0.69789 0.60333 0.51605 0.0
H645 H 0.71832 0.61396 0.58816 0.0
H646 H 0.74981 0.62338 0.51969 0.0
H647 H 0.75524 0.60243 0.46045 0.0
H648 H 0.51789 0.1389 0.45807 0.0
H649 H 0.51369 0.11523 0.52091 0.0
H650 H 0.52575 0.09553 0.33111 0.0
H651 H 0.53054 0.11924 0.26875 0.0
H652 H 0.48601 0.07956 0.48573 0.0
H653 H 0.56965 0.10019 0.48768 0.0
H654 H 0.56029 0.11385 0.46914 0.0
H655 H 0.55718 0.09854 0.40067 0.0
C656 C 0.51967 0.12953 0.42978 0.0
C657 C 0.52461 0.13102 0.35838 0.0
C658 C 0.51716 0.11598 0.46563 0.0
C659 C 0.51972 0.10378 0.43095 0.0
C660 C 0.52401 0.10495 0.35917 0.0
H661 H 0.51893 1.01522 0.52834 0.0
H662 H 0.51994 0.0387 0.47459 0.0
C663 C 0.52649 0.11843 0.32333 0.0
C664 C 0.51839 0.08996 0.4698 0.0
H665 H 0.54662 0.07283 0.52148 0.0
C666 C 0.49928 0.07813 0.49417 0.0
C667 C 0.53576 0.08818 0.48085 0.0
C668 C 0.55694 0.10094 0.45886 0.0
C669 C 0.49689 0.06422 0.52714 0.0
C670 C 0.51417 0.06227 0.53685 0.0
C671 C 0.53336 0.07429 0.51362 0.0
C672 C 0.51268 0.0477 0.56953 0.0
C673 C 0.47575 0.05143 0.54923 0.0
C674 C 0.50834 0.04501 0.64093 0.0
C675 C 0.50789 1.03164 0.67207 0.0
C676 C 0.51189 1.02077 0.63246 0.0
C677 C 0.5161 1.02348 0.56076 0.0
C678 C 0.51655 0.03684 0.52978 0.0
H679 H 0.46311 0.05272 0.52359 0.0
H680 H 0.47202 0.03851 0.53521 0.0
H681 H 0.47594 0.05319 0.60811 0.0
H682 H 0.50573 0.05344 0.67304 0.0
H683 H 0.50489 1.03005 0.72765 0.0
H684 H 0.1702 0.10808 0.96195 0.0
H685 H 0.15392 0.12461 0.95361 0.0
H686 H 0.16227 0.13406 0.18344 0.0
H687 H 0.1792 0.11812 0.1922 0.0
H688 H 0.11855 0.12014 0.00859 0.0
H689 H 0.18782 0.18105 0.12047 0.0
H690 H 0.18953 0.1633 0.09224 0.0
H691 H 0.18092 0.16461 0.17811 0.0
C692 C 0.16881 0.11383 0.01073 0.0
C693 C 0.17613 0.11176 0.07776 0.0
C694 C 0.15935 0.12319 0.00588 0.0
C695 C 0.15714 0.13083 0.0678 0.0
C696 C 0.16415 0.12859 0.13476 0.0
H697 H 0.07351 0.16699 0.1144 0.0
H698 H 0.09068 0.15119 0.11443 0.0
C699 C 0.1736 0.11925 0.13969 0.0
C700 C 0.1472 0.14087 0.06262 0.0
H701 H 0.15529 0.17951 0.10859 0.0
C702 C 0.12663 0.13314 0.03012 0.0
C703 C 0.1578 0.15794 0.0897 0.0
C704 C 0.18031 0.16728 0.12145 0.0
C705 C 0.11623 0.14185 0.02559 0.0
C706 C 0.12653 0.15871 0.05549 0.0
C707 C 0.14728 0.16655 0.08635 0.0
C708 C 0.11607 0.16841 0.05553 0.0
C709 C 0.09439 0.13296 -0.01212 0.0
C710 C 0.12489 0.18368 0.02435 0.0
C711 C 0.11521 0.1929 0.02491 0.0
C712 C 0.0965 0.18709 0.05701 0.0
C713 C 0.08783 0.17186 0.08885 0.0
C714 C 0.09756 0.1627 0.08843 0.0
H715 H 0.09123 0.12226 0.95029 0.0
H716 H 0.0829 0.12791 0.02817 0.0
H717 H 0.0918 0.14164 0.95755 0.0
H718 H 0.13923 0.18842 -0.00099 0.0
H719 H 0.12236 0.20456 -4e-05 0.0
H720 H 0.96446 0.97199 0.87476 0.0
H721 H 0.97259 1.00062 0.89695 0.0
H722 H 0.98665 0.99987 0.12193 0.0
H723 H 0.97949 0.97148 0.0998 0.0
H724 H 0.95362 1.01202 0.97827 0.0
H725 H 1.03721 0.04385 0.08193 0.0
H726 H 1.02288 1.02289 0.03767 0.0
H727 H 1.02021 1.02646 0.13016 0.0
C728 C 0.96972 0.978 0.92883 0.0
C729 C 0.97144 0.96937 -0.01464 0.0
C730 C 0.97418 0.99436 0.94152 0.0
C731 C 0.98053 1.00255 0.01096 0.0
C732 C 0.98222 0.99399 0.06762 0.0
H733 H 1.00335 0.09843 0.19172 0.0
H734 H 0.99726 0.07022 0.17325 0.0
C735 C 0.97783 0.97763 0.05496 0.0
C736 C 0.98451 1.01976 0.02415 0.0
H737 H 1.02133 0.0598 0.09288 0.0
C738 C 0.96847 1.02247 0.00302 0.0
C739 C 1.00388 0.03343 0.05658 0.0
C740 C 1.02211 1.0316 0.0773 0.0
C741 C 0.97117 0.03836 0.01407 0.0
C742 C 0.99048 0.05199 0.04658 0.0
C743 C 1.0065 0.04931 0.06815 0.0
C744 C 0.9944 0.06917 0.05769 0.0
C745 C 0.9532 0.04042 -0.00815 0.0
C746 C 0.99505 0.07802 -0.00113 0.0
C747 C 0.99854 0.09412 0.00922 0.0
C748 C 1.00142 0.10173 0.07869 0.0
C749 C 1.00092 0.09286 0.13754 0.0
C750 C 0.99758 0.07679 0.12711 0.0
H751 H 0.93812 1.02818 -0.01774 0.0
H752 H 0.95172 0.04841 0.03332 0.0
H753 H 0.95619 0.04667 0.94148 0.0
H754 H 0.99287 0.07245 0.94484 0.0
H755 H 0.99868 0.10053 0.9627 0.0
H756 H 1.00934 0.90859 0.94728 0.0
H757 H 1.04607 0.93017 0.95853 0.0
H758 H 0.06017 0.89961 0.08366 0.0
H759 H 1.02254 0.87752 0.07369 0.0
H760 H 0.08254 0.93396 0.13922 0.0
H761 H 0.0904 0.92958 0.85004 0.0
H762 H 0.0692 0.93223 0.86698 0.0
H763 H 0.06823 0.91356 0.89039 0.0
C764 C 1.02003 0.90617 0.97708 0.0
C765 C 1.01266 0.89098 0.00891 0.0
C766 C 1.04127 0.91868 -0.01685 0.0
C767 C 0.05617 0.91654 0.02056 0.0
C768 C 1.04906 0.90157 0.05383 0.0
H769 H 0.18851 0.98811 0.96457 0.0
H770 H 0.15407 0.9628 0.96825 0.0
C771 C 1.02752 0.88889 0.0479 0.0
C772 C 0.07893 0.93019 0.02424 0.0
H773 H 0.11689 0.95501 0.91804 0.0
C774 C 0.09014 0.93842 0.09089 0.0
C775 C 0.08915 0.93604 0.96148 0.0
C776 C 0.0787 0.92729 0.88825 0.0
C777 C 0.1108 0.9526 0.09619 0.0
C778 C 0.12054 0.95905 0.03306 0.0
C779 C 0.10957 0.95038 0.96668 0.0
C780 C 0.14203 0.97464 0.034 0.0
C781 C 0.12202 0.96039 0.16964 0.0
C782 C 0.14708 0.99003 0.06914 0.0
C783 C 0.16698 1.00463 0.06745 0.0
C784 C 0.18235 1.00433 0.02971 0.0
C785 C 0.17719 0.98895 -0.00585 0.0
C786 C 0.15739 0.97437 -0.00375 0.0
H787 H 0.1155 0.95121 0.21035 0.0
H788 H 0.13901 0.96535 0.17041 0.0
H789 H 0.12003 0.9709 0.18545 0.0
H790 H 0.13551 0.99087 0.09699 0.0
H791 H 0.17022 1.0162 0.09515 0.0
H792 H 0.84492 0.47128 0.03507 0.0
H793 H 0.85676 0.45185 0.05017 0.0
H794 H 0.90827 0.48868 0.19894 0.0
H795 H 0.89648 0.50813 0.18442 0.0
H796 H 0.89303 0.4544 0.02239 0.0
H797 H 0.88435 0.44826 0.31205 0.0
H798 H 0.8735 0.45788 0.25922 0.0
H799 H 0.90082 0.46952 0.29141 0.0
C800 C 0.85881 0.47529 0.07088 0.0
C801 C 0.86965 0.4913 0.10878 0.0
C802 C 0.86553 0.46412 0.07971 0.0
C803 C 0.88322 0.46861 0.12674 0.0
C804 C 0.89424 0.48466 0.16389 0.0
H805 H 0.94944 0.41789 0.23368 0.0
H806 H 0.93864 0.43813 0.223 0.0
C807 C 0.88748 0.49582 0.15537 0.0
C808 C 0.8904 0.45667 0.13519 0.0
H809 H 0.90156 0.43613 0.2584 0.0
C810 C 0.8948 0.45037 0.07402 0.0
C811 C 0.89282 0.45138 0.20254 0.0
C812 C 0.88744 0.45697 0.26997 0.0
C813 C 0.90171 0.43917 0.07835 0.0
C814 C 0.90406 0.43385 0.1456 0.0
C815 C 0.89983 0.44022 0.20688 0.0
C816 C 0.91048 0.42143 0.15306 0.0
C817 C 0.90682 0.43335 0.01088 0.0
C818 C 0.8981 0.40517 0.11845 0.0
C819 C 0.9042 0.39356 0.12451 0.0
C820 C 0.92284 0.39788 0.16564 0.0
C821 C 0.93505 0.4141 0.20134 0.0
C822 C 0.92888 0.42571 0.19535 0.0
H823 H 0.90964 0.44186 0.96813 0.0
H824 H 0.92085 0.43254 0.02137 0.0
H825 H 0.89345 0.4207 -0.00939 0.0
H826 H 0.88362 0.40141 0.08675 0.0
H827 H 0.89428 0.3812 0.09656 0.0
H828 H 0.72483 0.49064 0.17068 0.0
H829 H 0.69929 0.46056 0.16361 0.0
H830 H 0.74247 0.451 0.06541 0.0
H831 H 0.76835 0.48123 0.07291 0.0
H832 H 0.6805 0.43769 0.04477 0.0
H833 H 0.7248 0.41954 0.22445 0.0
H834 H 0.73221 0.44104 0.22022 0.0
H835 H 0.73847 0.43093 0.15172 0.0
C836 C 0.72906 0.48221 0.14786 0.0
C837 C 0.74882 0.48852 0.12256 0.0
C838 C 0.71433 0.46493 0.14377 0.0
C839 C 0.7189 0.45336 0.11479 0.0
C840 C 0.73861 0.45957 0.08935 0.0
H841 H 0.64508 0.34335 0.04963 0.0
H842 H 0.67235 0.37312 0.05424 0.0
C843 C 0.7534 0.47692 0.0933 0.0
C844 C 0.70275 0.43493 0.10959 0.0
H845 H 0.69279 0.39748 0.16461 0.0
C846 C 0.68321 0.42892 0.07113 0.0
C847 C 0.70618 0.42336 0.14359 0.0
C848 C 0.72646 0.429 0.18788 0.0
C849 C 0.6672 0.4118 0.06518 0.0
C850 C 0.67049 0.40025 0.10007 0.0
C851 C 0.69012 0.40623 0.13792 0.0
C852 C 0.65378 0.382 0.09824 0.0
C853 C 0.64705 0.40623 0.02008 0.0
C854 C 0.6342 0.37685 0.12252 0.0
C855 C 0.61852 0.35978 0.11999 0.0
C856 C 0.622 0.3473 0.09382 0.0
C857 C 0.64177 0.35249 0.07077 0.0
C858 C 0.65743 0.36958 0.0731 0.0
H859 H 0.64925 0.41529 0.98052 0.0
H860 H 0.64064 0.39373 -0.00913 0.0
H861 H 0.63535 0.4054 0.0553 0.0
H862 H 0.63107 0.38606 0.14413 0.0
H863 H 0.60373 0.35636 0.13964 0.0
H864 H 0.62621 0.24431 0.22053 0.0
H865 H 0.66369 0.25732 0.21308 0.0
H866 H 0.6629 0.29113 0.06812 0.0
H867 H 0.62524 0.27803 0.07449 0.0
H868 H 0.68314 0.27599 0.01938 0.0
H869 H 0.71286 0.30242 0.30076 0.0
H870 H 0.69292 0.28052 0.29261 0.0
H871 H 0.68661 0.29543 0.26426 0.0
C872 C 0.63399 0.25464 0.18762 0.0
C873 C 0.62264 0.26011 0.14811 0.0
C874 C 0.6555 0.26214 0.18379 0.0
C875 C 0.66621 0.27537 0.14082 0.0
C876 C 0.655 0.281 0.10194 0.0
H877 H 0.80261 0.33335 0.13595 0.0
H878 H 0.76631 0.32489 0.14773 0.0
C879 C 0.63346 0.27351 0.10575 0.0
C880 C 0.68881 0.28259 0.13325 0.0
H881 H 0.7368 0.30076 0.22849 0.0
C882 C 0.69489 0.28154 0.06503 0.0
C883 C 0.70422 0.29001 0.19263 0.0
C884 C 0.69889 0.29234 0.26659 0.0
C885 C 0.7158 0.28721 0.05495 0.0
C886 C 0.73103 0.29389 0.11484 0.0
C887 C 0.72509 0.29546 0.18271 0.0
C888 C 0.75309 0.29901 0.10824 0.0
C889 C 0.7214 0.28606 0.98011 0.0
C890 C 0.75779 0.28723 0.08329 0.0
C891 C 0.7785 0.292 0.07683 0.0
C892 C 0.79506 0.30867 0.09551 0.0
C893 C 0.79031 0.32039 0.12156 0.0
C894 C 0.76955 0.3156 0.12805 0.0
H895 H 0.70957 0.28515 0.93905 0.0
H896 H 0.73693 0.2971 0.97203 0.0
H897 H 0.72208 0.27465 0.97141 0.0
H898 H 0.74541 0.27428 0.06935 0.0
H899 H 0.78155 0.28253 0.05814 0.0
H900 H 0.60325 0.84191 0.93186 0.0
H901 H 0.58599 0.85765 0.92523 0.0
H902 H 0.53891 0.82009 0.76651 0.0
H903 H 0.55603 0.80415 0.77306 0.0
H904 H 0.55327 0.85243 0.73123 0.0
H905 H 0.53209 0.84591 0.01031 0.0
H906 H 0.55947 0.85468 0.00362 0.0
H907 H 0.54084 0.83349 0.96737 0.0
C908 C 0.58908 0.83684 0.89608 0.0
C909 C 0.58097 0.82161 0.85354 0.0
C910 C 0.57922 0.84591 0.89233 0.0
C911 C 0.56091 0.83995 0.8463 0.0
C912 C 0.55298 0.82493 0.80267 0.0
H913 H 0.4737 0.87325 0.86817 0.0
H914 H 0.49138 0.85785 0.86962 0.0
C915 C 0.56285 0.81585 0.80631 0.0
C916 C 0.55015 0.84943 0.84348 0.0
H917 H 0.52714 0.86486 0.94634 0.0
C918 C 0.54752 0.85512 0.77823 0.0
C919 C 0.54237 0.85279 0.90453 0.0
C920 C 0.54362 0.84627 0.97528 0.0
C921 C 0.53766 0.86425 0.77267 0.0
C922 C 0.53048 0.86806 0.83428 0.0
C923 C 0.53284 0.86215 0.89923 0.0
C924 C 0.51984 0.87765 0.83225 0.0
C925 C 0.53461 0.86941 0.70043 0.0
C926 C 0.52996 0.89407 0.8114 0.0
C927 C 0.51983 0.90298 0.81036 0.0
C928 C 0.4994 0.89572 0.83071 0.0
C929 C 0.48943 0.87933 0.85221 0.0
C930 C 0.49953 0.87046 0.8531 0.0
H931 H 0.53589 0.86188 0.65616 0.0
H932 H 0.51911 0.86806 0.6922 0.0
H933 H 0.54687 0.88276 0.69728 0.0
H934 H 0.54579 0.90007 0.79654 0.0
H935 H 0.52805 0.91557 0.79382 0.0
H936 H 0.3399 0.6692 0.77744 0.0
H937 H 0.35122 0.69816 0.81481 0.0
H938 H 0.36814 0.7119 0.60233 0.0
H939 H 0.35658 0.68285 0.56433 0.0
H940 H 0.38902 0.7274 0.81702 0.0
H941 H 0.32929 0.72853 0.63515 0.0
H942 H 0.32823 0.7094 0.65121 0.0
H943 H 0.34541 0.72309 0.58982 0.0
C944 C 0.34619 0.67842 0.73885 0.0
C945 C 0.34727 0.67378 0.66788 0.0
C946 C 0.35258 0.69494 0.7602 0.0
C947 C 0.36017 0.7071 0.71102 0.0
C948 C 0.36184 0.70261 0.64063 0.0
H949 H 0.42644 0.8147 0.81723 0.0
H950 H 0.41687 0.78598 0.78471 0.0
C951 C 0.3553 0.68605 0.61906 0.0
C952 C 0.36621 0.72443 0.73362 0.0
H953 H 0.35547 0.7544 0.69798 0.0
C954 C 0.38167 0.73332 0.79115 0.0
C955 C 0.35634 0.73199 0.70046 0.0
C956 C 0.33875 0.72272 0.64121 0.0
C957 C 0.38772 0.74966 0.81599 0.0
C958 C 0.37834 0.75741 0.78124 0.0
C959 C 0.36273 0.74846 0.72418 0.0
C960 C 0.38435 0.77477 0.80323 0.0
C961 C 0.40376 0.75831 0.88007 0.0
C962 C 0.36915 0.77803 0.823 0.0
C963 C 0.37446 0.79446 0.84023 0.0
C964 C 0.39511 0.80795 0.83792 0.0
C965 C 0.41035 0.80461 0.81884 0.0
C966 C 0.40498 0.78818 0.80118 0.0
H967 H 0.4048 0.74917 0.91244 0.0
H968 H 0.41935 0.7667 0.86144 0.0
H969 H 0.40003 0.76601 0.91502 0.0
H970 H 0.35309 0.76784 0.82442 0.0
H971 H 0.36228 0.79659 0.85357 0.0
H972 H 0.5601 0.69848 0.67229 0.0
H973 H 0.52276 0.67837 0.6656 0.0
H974 H 0.51747 0.70731 0.83776 0.0
H975 H 0.55549 0.72769 0.84595 0.0
H976 H 0.49605 0.67284 0.85465 0.0
H977 H 0.47552 0.68299 0.5826 0.0
H978 H 0.49629 0.67906 0.5846 0.0
H979 H 0.50029 0.69758 0.63337 0.0
C980 C 0.55113 0.70078 0.70868 0.0
C981 C 0.56093 0.71482 0.75969 0.0
C982 C 0.52963 0.68923 0.70433 0.0
C983 C 0.51718 0.69141 0.75032 0.0
C984 C 0.52676 0.70543 0.80132 0.0
H985 H 0.38142 0.62647 0.66725 0.0
H986 H 0.41721 0.65044 0.68838 0.0
C987 C 0.54846 0.71711 0.80572 0.0
C988 C 0.49436 0.67854 0.74582 0.0
H989 H 0.45067 0.65695 0.62669 0.0
C990 C 0.48603 0.6695 0.80514 0.0
C991 C 0.48117 0.67426 0.6815 0.0
C992 C 0.48872 0.6841 0.61716 0.0
C993 C 0.46513 0.65592 0.80097 0.0
C994 C 0.45232 0.651 0.73522 0.0
C995 C 0.46048 0.66048 0.67684 0.0
C996 C 0.43036 0.63624 0.72554 0.0
C997 C 0.45697 0.64707 0.86726 0.0
C998 C 0.42565 0.6201 0.73882 0.0
C999 C 0.40501 0.60625 0.72716 0.0
C1000 C 0.38869 0.60822 0.70089 0.0
C1001 C 0.39353 0.62438 0.68715 0.0
C1002 C 0.41406 0.63818 0.69936 0.0
H1003 H 0.46623 0.65526 0.91667 0.0
H1004 H 0.44032 0.64292 0.87002 0.0
H1005 H 0.45822 0.63586 0.8662 0.0
H1006 H 0.43798 0.61814 0.75719 0.0
H1007 H 0.4019 0.594 0.73796 0.0
H1008 H 0.08431 0.21468 0.86917 0.0
H1009 H 0.09004 0.21874 0.74306 0.0
H1010 H 1.025 0.20153 0.69266 0.0
H1011 H 1.01911 0.1973 0.81891 0.0
H1012 H 1.04032 0.18639 0.60202 0.0
H1013 H 0.09202 0.2558 0.62993 0.0
H1014 H 0.1001 0.24527 0.68834 0.0
H1015 H 0.076 0.24423 0.69883 0.0
C1016 C 0.07126 0.21184 0.83124 0.0
C1017 C 1.05127 0.2057 0.85359 0.0
C1018 C 0.07458 0.21425 0.75939 0.0
C1019 C 0.058 0.21064 0.70889 0.0
C1020 C 1.03801 0.20446 0.73106 0.0
H1021 H 1.04294 0.21281 0.2503 0.0
H1022 H 1.03797 0.20905 0.37694 0.0
C1023 C 1.03467 0.20206 0.803 0.0
C1024 C 0.06137 0.21277 0.63249 0.0
H1025 H 0.08834 0.24191 0.5165 0.0
C1026 C 1.05074 0.19852 0.58315 0.0
C1027 C 0.07507 0.22862 0.60841 0.0
C1028 C 0.08634 0.2444 0.65893 0.0
C1029 C 1.05365 0.19967 0.51018 0.0
C1030 C 0.06726 0.21553 0.48599 0.0
C1031 C 0.07796 0.22977 0.53538 0.0
C1032 C 0.07028 0.21766 0.40935 0.0
C1033 C 1.04243 0.18386 0.45983 0.0
C1034 C 0.09019 0.22408 0.38598 0.0
C1035 C 0.0931 0.22634 0.31368 0.0
C1036 C 0.07615 0.22232 0.26394 0.0
C1037 C 0.05626 0.21596 0.28753 0.0
C1038 C 1.05337 0.21371 0.35971 0.0
H1039 H 1.03722 0.17251 0.4889 0.0
H1040 H 1.02836 0.18272 0.43164 0.0
H1041 H 1.05261 0.18417 0.41896 0.0
H1042 H 0.10344 0.22728 0.42367 0.0
H1043 H 0.10859 0.23128 0.29681 0.0
H1044 H 0.92551 0.85777 0.78474 0.0
H1045 H 0.92484 0.86093 0.65624 0.0
H1046 H 0.96942 0.84596 0.63768 0.0
H1047 H 0.97 0.84259 0.76607 0.0
H1048 H 0.95874 0.88152 0.57625 0.0
H1049 H 0.92022 0.81377 0.48736 0.0
H1050 H 0.92047 0.82126 0.57779 0.0
H1051 H 0.9433 0.82227 0.54903 0.0
C1052 C 0.93513 0.85513 0.75318 0.0
C1053 C 0.94765 0.84977 0.78485 0.0
C1054 C 0.93475 0.85696 0.68003 0.0
C1055 C 0.94681 0.8534 0.63768 0.0
C1056 C 0.95971 0.84844 0.6695 0.0
H1057 H 0.96381 0.8562 0.18635 0.0
H1058 H 0.96542 0.85327 0.31502 0.0
C1059 C 0.96009 0.8466 0.74268 0.0
C1060 C 0.94596 0.85498 0.56016 0.0
H1061 H 0.93192 0.83257 0.39715 0.0
C1062 C 0.95283 0.87084 0.53696 0.0
C1063 C 0.93825 0.84097 0.5095 0.0
C1064 C 0.92996 0.82356 0.53191 0.0
C1065 C 0.95244 0.87311 0.46391 0.0
C1066 C 0.94466 0.85909 0.41326 0.0
C1067 C 0.93787 0.84325 0.43644 0.0
C1068 C 0.94338 0.86062 0.33578 0.0
C1069 C 0.96066 0.89051 0.44148 0.0
C1070 C 0.93016 0.8654 0.30521 0.0
C1071 C 0.92921 0.86707 0.23199 0.0
C1072 C 0.94144 0.86393 0.18851 0.0
C1073 C 0.95433 0.85879 0.21896 0.0
C1074 C 0.95525 0.8571 0.29218 0.0
H1075 H 0.97057 0.90032 0.48582 0.0
H1076 H 0.96996 0.89277 0.39509 0.0
H1077 H 0.94729 0.89182 0.42514 0.0
H1078 H 0.92059 0.86784 0.33803 0.0
H1079 H 0.91904 0.87093 0.20956 0.0
H1080 H 0.27012 0.07853 0.82905 0.0
H1081 H 0.27205 0.07507 0.70055 0.0
H1082 H 0.21046 1.02998 0.68062 0.0
H1083 H 0.20958 1.03264 0.81043 0.0
H1084 H 0.23123 1.02463 0.60045 0.0
H1085 H 0.24793 0.08718 0.54474 0.0
H1086 H 0.26826 0.0894 0.607 0.0
H1087 H 0.24185 0.07964 0.63165 0.0
C1088 C 0.25705 0.06791 0.79684 0.0
C1089 C 0.23963 0.05592 0.82877 0.0
C1090 C 0.25802 0.06602 0.72332 0.0
C1091 C 0.24109 0.05259 0.67991 0.0
C1092 C 0.2237 0.04053 0.71248 0.0
H1093 H 0.2354 0.0568 0.2171 0.0
H1094 H 0.23098 0.0583 0.34451 0.0
C1095 C 0.22313 0.04205 0.78649 0.0
C1096 C 0.24175 0.0508 0.60112 0.0
H1097 H 0.25479 0.07262 0.45338 0.0
C1098 C 0.23609 0.0351 0.56821 0.0
C1099 C 0.24762 0.06428 0.55815 0.0
C1100 C 0.2515 0.08098 0.58721 0.0
C1101 C 0.23637 1.03255 0.49424 0.0
C1102 C 0.24391 0.04637 0.45238 0.0
C1103 C 0.24932 0.06202 0.48517 0.0
C1104 C 0.24605 0.04494 0.37452 0.0
C1105 C 0.22787 1.01491 0.46207 0.0
C1106 C 0.25606 0.03703 0.34833 0.0
C1107 C 0.2577 0.03553 0.27507 0.0
C1108 C 0.25037 0.0427 0.2273 0.0
C1109 C 0.24117 0.0512 0.25332 0.0
C1110 C 0.23871 0.05208 0.32611 0.0
H1111 H 0.21597 1.00553 0.49433 0.0
H1112 H 0.22056 1.01279 0.40647 0.0
H1113 H 0.24078 1.01257 0.46176 0.0
H1114 H 0.26274 1.03209 0.38443 0.0
H1115 H 0.26514 1.02913 0.25595 0.0
H1116 H 0.7826 0.51424 0.33143 0.0
H1117 H 0.77462 0.51377 0.45585 0.0
H1118 H 0.80923 0.5679 0.47841 0.0
H1119 H 0.8155 0.56821 0.35223 0.0
H1120 H 0.79687 0.52292 0.57058 0.0
H1121 H 0.76056 0.56046 0.57003 0.0
H1122 H 0.76628 0.55359 0.48844 0.0
H1123 H 0.78617 0.57253 0.54123 0.0
C1124 C 0.78822 0.52599 0.36304 0.0
C1125 C 0.79958 0.54125 0.33286 0.0
C1126 C 0.7837 0.52574 0.43405 0.0
C1127 C 0.79096 0.5408 0.47662 0.0
C1128 C 0.8027 0.55609 0.44635 0.0
H1129 H 0.81065 0.54716 0.93909 0.0
H1130 H 0.81298 0.54578 0.80995 0.0
C1131 C 0.80654 0.55629 0.37455 0.0
C1132 C 0.78732 0.54049 0.55356 0.0
H1133 H 0.77403 0.55816 0.68555 0.0
C1134 C 0.79154 0.53044 0.59534 0.0
C1135 C 0.77993 0.54998 0.58614 0.0
C1136 C 0.77275 0.55956 0.54377 0.0
C1137 C 0.78902 0.52987 0.66862 0.0
C1138 C 0.78342 0.54049 0.70237 0.0
C1139 C 0.77872 0.55024 0.66032 0.0
C1140 C 0.78233 0.54171 0.78096 0.0
C1141 C 0.79189 0.51754 0.70814 0.0
C1142 C 0.76493 0.54089 0.80819 0.0
C1143 C 0.7641 0.54248 0.88196 0.0
C1144 C 0.78037 0.54443 0.92955 0.0
C1145 C 0.79776 0.54529 0.90289 0.0
C1146 C 0.79896 0.54433 0.82916 0.0
H1147 H 0.78817 0.50652 0.67156 0.0
H1148 H 0.80848 0.52366 0.73017 0.0
H1149 H 0.78181 0.51298 0.7527 0.0
H1150 H 0.75193 0.53897 0.7724 0.0
H1151 H 0.75057 0.54184 0.90184 0.0
H1152 H 0.58389 0.27096 0.37338 0.0
H1153 H 0.58592 0.26785 0.50166 0.0
H1154 H 0.54966 0.21404 0.45728 0.0
H1155 H 0.54675 0.21712 0.32951 0.0
H1156 H 0.53452 0.22339 0.55829 0.0
H1157 H 0.62016 0.25555 0.62375 0.0
H1158 H 0.61283 0.2687 0.5823 0.0
H1159 H 0.6081 0.25002 0.53279 0.0
C1160 C 0.57655 0.25849 0.39114 0.0
C1161 C 0.56516 0.24428 0.34186 0.0
C1162 C 0.57787 0.25672 0.46431 0.0
C1163 C 0.56822 0.24071 0.48901 0.0
C1164 C 0.55726 0.22651 0.43941 0.0
H1165 H 0.58373 0.21893 0.92367 0.0
H1166 H 0.58554 0.22291 0.796 0.0
C1167 C 0.55565 0.22828 0.36649 0.0
C1168 C 0.56817 0.23869 0.56667 0.0
H1169 H 0.59972 0.24997 0.72295 0.0
C1170 C 0.54879 0.22911 0.59419 0.0
C1171 C 0.58681 0.24599 0.61332 0.0
C1172 C 0.60815 0.25549 0.58644 0.0
C1173 C 0.54749 0.22675 0.66715 0.0
C1174 C 0.56607 0.23471 0.71433 0.0
C1175 C 0.58549 0.2441 0.68678 0.0
C1176 C 0.56568 0.23305 0.79221 0.0
C1177 C 0.52623 0.21545 0.69248 0.0
C1178 C 0.55429 0.23777 0.83266 0.0
C1179 C 0.55296 0.23524 0.90523 0.0
C1180 C 0.56338 0.22831 0.93872 0.0
C1181 C 0.57546 0.22422 0.89894 0.0
C1182 C 0.57655 0.22653 0.82616 0.0
H1183 H 0.5147 0.2066 0.64804 0.0
H1184 H 0.52699 0.20808 0.7356 0.0
H1185 H 0.52035 0.22321 0.7138 0.0
H1186 H 0.54625 0.24325 0.80796 0.0
H1187 H 0.54366 0.2386 0.93491 0.0
H1188 H 0.91269 0.32564 0.38106 0.0
H1189 H 0.91772 0.32987 0.51207 0.0
H1190 H 0.95226 0.38342 0.5018 0.0
H1191 H 0.94706 0.37929 0.37093 0.0
H1192 H 0.95615 0.34795 0.60124 0.0
H1193 H 0.90661 0.3747 0.6345 0.0
H1194 H 0.90539 0.36345 0.5521 0.0
H1195 H 0.92645 0.3848 0.57444 0.0
C1196 C 0.92131 0.3383 0.40686 0.0
C1197 C 0.92939 0.35215 0.36625 0.0
C1198 C 0.92417 0.34069 0.48143 0.0
C1199 C 0.93507 0.35694 0.51619 0.0
C1200 C 0.94346 0.37079 0.47571 0.0
H1201 H 0.96888 0.39607 0.96219 0.0
H1202 H 0.96416 0.39263 0.83101 0.0
C1203 C 0.94059 0.36841 0.40117 0.0
C1204 C 0.93793 0.35938 0.59495 0.0
H1205 H 0.926 0.37497 0.73893 0.0
C1206 C 0.94952 0.35381 0.63149 0.0
C1207 C 0.92927 0.36707 0.63377 0.0
C1208 C 0.91608 0.37274 0.59691 0.0
C1209 C 0.95291 0.3559 0.70632 0.0
C1210 C 0.94416 0.3635 0.74516 0.0
C1211 C 0.93266 0.36916 0.70863 0.0
C1212 C 0.9466 0.36553 0.82395 0.0
C1213 C 0.96609 0.3502 0.74317 0.0
C1214 C 0.9379 0.35141 0.86279 0.0
C1215 C 0.94057 0.35333 0.93736 0.0
C1216 C 0.9519 0.36941 0.97398 0.0
C1217 C 0.96018 0.38355 0.93505 0.0
C1218 C 0.95749 0.38161 0.86039 0.0
H1219 H 0.97576 0.34847 0.70576 0.0
H1220 H 0.97657 0.35936 0.78864 0.0
H1221 H 0.95569 0.33802 0.76468 0.0
H1222 H 0.92908 0.33891 0.83538 0.0
H1223 H 0.93388 0.34223 0.96626 0.0
H1224 H 0.41909 0.90331 0.58661 0.0
H1225 H 0.42441 0.90695 0.45969 0.0
H1226 H 0.48931 0.92344 0.50685 0.0
H1227 H 0.48414 0.91991 0.63359 0.0
H1228 H 0.48248 0.94403 0.41947 0.0
H1229 H 0.43277 0.87679 0.31791 0.0
H1230 H 0.42019 0.88448 0.37164 0.0
H1231 H 0.44176 0.88362 0.4115 0.0
C1232 C 0.43446 0.90765 0.56975 0.0
C1233 C 0.45119 0.9113 0.61972 0.0
C1234 C 0.43745 0.90965 0.49733 0.0
C1235 C 0.45718 0.91525 0.4739 0.0
C1236 C 0.47395 0.91904 0.5239 0.0
H1237 H 0.50902 0.93825 0.0628 0.0
H1238 H 0.50398 0.93416 0.18966 0.0
C1239 C 0.47097 0.91703 0.59619 0.0
C1240 C 0.46053 0.91749 0.39745 0.0
H1241 H 0.44588 0.89642 0.23104 0.0
C1242 C 0.47457 0.93363 0.3782 0.0
C1243 C 0.45014 0.90387 0.34398 0.0
C1244 C 0.4355 0.88618 0.36208 0.0
C1245 C 0.47822 0.93659 0.3065 0.0
C1246 C 0.46784 0.92297 0.25299 0.0
C1247 C 0.45383 0.90682 0.27229 0.0
C1248 C 0.47099 0.92525 0.17641 0.0
C1249 C 0.49276 0.95431 0.28846 0.0
C1250 C 0.45402 0.92116 0.12686 0.0
C1251 C 0.45683 0.92338 0.05461 0.0
C1252 C 0.47667 0.92967 0.03064 0.0
C1253 C 0.49361 0.93351 0.08004 0.0
C1254 C 0.49077 0.93127 0.15243 0.0
H1255 H 0.49534 0.96366 0.33257 0.0
H1256 H 0.50814 0.95613 0.27921 0.0
H1257 H 0.48649 0.95682 0.23895 0.0
H1258 H 0.43861 0.91641 0.14426 0.0
H1259 H 0.44347 0.92024 0.01759 0.0
H1260 H 0.34573 0.57332 0.8684 0.0
H1261 H 0.34827 0.57066 -0.00324 0.0
H1262 H 0.29125 0.57002 0.01373 0.0
H1263 H 0.28863 0.57276 0.88484 0.0
H1264 H 0.32514 0.59248 0.11766 0.0
H1265 H 0.31187 0.52856 0.10075 0.0
H1266 H 0.33194 0.54308 0.04917 0.0
H1267 H 0.30526 0.53682 0.02596 0.0
C1268 C 0.33364 0.5725 0.89937 0.0
C1269 C 0.31691 0.57316 0.86681 0.0
C1270 C 0.33508 0.57091 0.97257 0.0
C1271 C 0.31979 0.56991 0.01434 0.0
C1272 C 0.30313 0.57068 -0.0179 0.0
H1273 H 0.3009 0.56308 0.46309 0.0
H1274 H 0.29934 0.56608 0.3349 0.0
C1275 C 0.30165 0.57223 0.9087 0.0
C1276 C 0.32159 0.56858 0.09214 0.0
H1277 H 0.32256 0.54355 0.21573 0.0
C1278 C 0.32448 0.58176 0.13924 0.0
C1279 C 0.32087 0.55462 0.11979 0.0
C1280 C 0.31714 0.53988 0.07143 0.0
C1281 C 0.32693 0.58146 0.2136 0.0
C1282 C 0.32607 0.56745 0.24131 0.0
C1283 C 0.32327 0.5543 0.19417 0.0
C1284 C 0.32735 0.56594 0.31915 0.0
C1285 C 0.33079 0.59626 0.26178 0.0
C1286 C 0.3434 0.56452 0.35243 0.0
C1287 C 0.34426 0.56269 0.42575 0.0
C1288 C 0.32898 0.56213 0.46651 0.0
C1289 C 0.31293 0.56352 0.43297 0.0
C1290 C 0.31208 0.56534 0.35987 0.0
H1291 H 0.33675 0.60769 0.23273 0.0
H1292 H 0.31586 0.59337 0.28208 0.0
H1293 H 0.34218 0.59901 0.30849 0.0
H1294 H 0.35526 0.56486 0.32168 0.0
H1295 H 0.35678 0.56162 0.45037 0.0
H1296 H 0.60804 0.72949 0.57984 0.0
H1297 H 0.60721 0.72499 0.45016 0.0
H1298 H 0.65238 0.77766 0.4423 0.0
H1299 H 0.6532 0.78229 0.57229 0.0
H1300 H 0.61703 0.76397 0.33933 0.0
H1301 H 0.65298 0.72562 0.33981 0.0
H1302 H 0.63105 0.71832 0.39162 0.0
H1303 H 0.65464 0.7382 0.41831 0.0
C1304 C 0.61788 0.7401 0.55051 0.0
C1305 C 0.63075 0.75624 0.58595 0.0
C1306 C 0.61746 0.73749 0.47657 0.0
C1307 C 0.62995 0.75095 0.43695 0.0
C1308 C 0.64272 0.7671 0.47215 0.0
H1309 H 0.64888 0.76346 -0.0106 0.0
H1310 H 0.64885 0.76728 0.11887 0.0
C1311 C 0.64318 0.76972 0.54622 0.0
C1312 C 0.62923 0.74824 0.35845 0.0
H1313 H 0.63894 0.7277 0.22734 0.0
C1314 C 0.6219 0.7561 0.31474 0.0
C1315 C 0.63549 0.7379 0.3268 0.0
C1316 C 0.64416 0.72962 0.37142 0.0
C1317 C 0.62041 0.75372 0.23989 0.0
C1318 C 0.62678 0.74345 0.20819 0.0
C1319 C 0.63402 0.73553 0.25192 0.0
C1320 C 0.62654 0.74109 0.12971 0.0
C1321 C 0.61168 0.76197 0.1954 0.0
C1322 C 0.61433 0.72503 0.09319 0.0
C1323 C 0.61442 0.72279 0.01918 0.0
C1324 C 0.62685 0.73658 0.98087 0.0
C1325 C 0.63911 0.75262 0.01762 0.0
C1326 C 0.63901 0.75484 0.09146 0.0
H1327 H 0.60237 0.76553 0.22668 0.0
H1328 H 0.62479 0.77356 0.17697 0.0
H1329 H 0.60164 0.75358 0.14746 0.0
H1330 H 0.60469 0.71426 0.12195 0.0
H1331 H 0.60486 0.7103 -0.00793 0.0
loop_
_geom_bond_atom_site_label_1
_geom_bond_atom_site_label_2
_geom_bond_distance
_geom_bond_site_symmetry_2
_ccdc_geom_bond_type
Pr0 C2 2.880 . S
Pr0 O20 2.562 . S
Pr0 O21 2.490 . S
Pr0 O22 2.695 . S
Pr0 O23 2.512 . S
Pr0 O25 2.437 . S
Pr0 O28 2.436 1_554 S
Pr0 O30 2.438 . S
Pr1 C11 2.880 1_455 S
Pr1 O22 2.436 . S
Pr1 O24 2.438 . S
Pr1 O26 2.562 . S
Pr1 O27 2.490 1_455 S
Pr1 O28 2.695 1_554 S
Pr1 O29 2.512 1_554 S
Pr1 O31 2.437 . S
C2 Pr0 2.880 . S
C2 C3 1.491 . S
C2 O20 1.254 . S
C2 O21 1.225 . S
C3 C2 1.491 . S
C3 C4 1.392 . S
C3 C8 1.357 . S
C4 C3 1.392 . S
C4 C5 1.368 . S
C4 H32 0.929 . S
C5 C4 1.368 . S
C5 C6 1.386 . S
C5 H33 0.929 . S
C6 C5 1.386 . S
C6 C7 1.373 1_554 S
C7 C6 1.373 1_556 S
C7 C8 1.409 1_556 S
C7 H34 0.931 . S
C8 C3 1.357 . S
C8 C7 1.409 1_554 S
C8 H35 0.928 1_554 S
C9 O22 1.270 . S
C9 O23 1.248 . S
C10 O24 1.267 . S
C10 O25 1.278 . S
C11 Pr1 2.880 1_655 S
C11 C12 1.491 . S
C11 O26 1.254 1_655 S
C11 O27 1.225 . S
C12 C11 1.491 . S
C12 C13 1.392 . S
C12 C17 1.356 . S
C13 C12 1.392 . S
C13 C14 1.368 . S
C13 H36 0.929 1_554 S
C14 C13 1.368 . S
C14 C15 1.386 . S
C14 H37 0.929 1_554 S
C15 C14 1.386 . S
C15 C16 1.373 . S
C16 C15 1.373 . S
C16 C17 1.409 . S
C16 H38 0.931 . S
C17 C12 1.356 . S
C17 C16 1.409 . S
C17 H39 0.932 . S
C18 O28 1.270 . S
C18 O29 1.248 . S
C19 O30 1.267 . S
C19 O31 1.278 . S
O20 Pr0 2.562 . S
O20 C2 1.254 . S
O21 Pr0 2.490 . S
O21 C2 1.225 . S
O22 Pr0 2.695 . S
O22 Pr1 2.436 . S
O22 C9 1.270 . S
O23 Pr0 2.512 . S
O23 C9 1.248 . S
O24 Pr1 2.438 . S
O24 C10 1.267 . S
O25 Pr0 2.437 . S
O25 C10 1.278 . S
O26 Pr1 2.562 . S
O26 C11 1.254 1_455 S
O27 Pr1 2.490 1_655 S
O27 C11 1.225 . S
O28 Pr0 2.436 1_556 S
O28 Pr1 2.695 1_556 S
O28 C18 1.270 . S
O29 Pr1 2.512 1_556 S
O29 C18 1.248 . S
O30 Pr0 2.438 . S
O30 C19 1.267 . S
O31 Pr1 2.437 . S
O31 C19 1.278 . S
H32 C4 0.929 . S
H33 C5 0.929 . S
H34 C7 0.931 . S
H35 C8 0.928 1_556 S
H36 C13 0.929 1_556 S
H37 C14 0.929 1_556 S
H38 C16 0.931 . S
H39 C17 0.932 . S
Pr40 C42 2.880 . S
Pr40 O60 2.562 . S
Pr40 O61 2.490 1_554 S
Pr40 O62 2.695 1_554 S
Pr40 O63 2.512 1_554 S
Pr40 O65 2.437 1_554 S
Pr40 O68 2.436 . S
Pr40 O70 2.438 . S
Pr41 C51 2.880 . S
Pr41 O62 2.436 1_554 S
Pr41 O64 2.438 . S
Pr41 O66 2.562 1_554 S
Pr41 O67 2.490 . S
Pr41 O68 2.695 . S
Pr41 O69 2.512 . S
Pr41 O71 2.437 . S
C42 Pr40 2.880 . S
C42 C43 1.491 . S
C42 O60 1.254 . S
C42 O61 1.225 1_554 S
C43 C42 1.491 . S
C43 C44 1.392 1_554 S
C43 C48 1.356 . S
C44 C43 1.392 1_556 S
C44 C45 1.368 . S
C44 H72 0.929 . S
C45 C44 1.368 . S
C45 C46 1.386 1_556 S
C45 H73 0.929 . S
C46 C45 1.386 1_554 S
C46 C47 1.373 . S
C47 C46 1.373 . S
C47 C48 1.409 . S
C47 H74 0.931 . S
C48 C43 1.356 . S
C48 C47 1.409 . S
C48 H75 0.930 . S
C49 O62 1.270 . S
C49 O63 1.248 . S
C50 O64 1.267 . S
C50 O65 1.278 1_554 S
C51 Pr41 2.880 . S
C51 C52 1.491 . S
C51 O66 1.254 1_554 S
C51 O67 1.225 . S
C52 C51 1.491 . S
C52 C53 1.392 . S
C52 C57 1.356 1_554 S
C53 C52 1.392 . S
C53 C54 1.368 . S
C53 H76 0.929 . S
C54 C53 1.368 . S
C54 C55 1.386 . S
C54 H77 0.929 . S
C55 C54 1.386 . S
C55 C56 1.373 1_554 S
C56 C55 1.373 1_556 S
C56 C57 1.409 . S
C56 H78 0.931 . S
C57 C52 1.356 1_556 S
C57 C56 1.409 . S
C57 H79 0.930 . S
C58 O68 1.270 . S
C58 O69 1.248 . S
C59 O70 1.267 . S
C59 O71 1.278 . S
O60 Pr40 2.562 . S
O60 C42 1.254 . S
O61 Pr40 2.490 1_556 S
O61 C42 1.225 1_556 S
O62 Pr40 2.695 1_556 S
O62 Pr41 2.436 1_556 S
O62 C49 1.270 . S
O63 Pr40 2.512 1_556 S
O63 C49 1.248 . S
O64 Pr41 2.438 . S
O64 C50 1.267 . S
O65 Pr40 2.437 1_556 S
O65 C50 1.278 1_556 S
O66 Pr41 2.562 1_556 S
O66 C51 1.254 1_556 S
O67 Pr41 2.490 . S
O67 C51 1.225 . S
O68 Pr40 2.436 . S
O68 Pr41 2.695 . S
O68 C58 1.270 . S
O69 Pr41 2.512 . S
O69 C58 1.248 . S
O70 Pr40 2.438 . S
O70 C59 1.267 . S
O71 Pr41 2.437 . S
O71 C59 1.278 . S
H72 C44 0.929 . S
H73 C45 0.929 . S
H74 C47 0.931 . S
H75 C48 0.930 . S
H76 C53 0.929 . S
H77 C54 0.929 . S
H78 C56 0.931 . S
H79 C57 0.930 . S
Pr80 C82 2.881 1_545 S
Pr80 O100 2.588 1_554 S
Pr80 O101 2.490 1_545 S
Pr80 O102 2.695 . S
Pr80 O103 2.512 . S
Pr80 O105 2.437 . S
Pr80 O108 2.436 1_554 S
Pr80 O110 2.438 1_545 S
Pr81 C91 2.880 . S
Pr81 O102 2.436 . S
Pr81 O104 2.438 . S
Pr81 O106 2.562 . S
Pr81 O107 2.490 1_554 S
Pr81 O108 2.695 1_554 S
Pr81 O109 2.512 1_554 S
Pr81 O111 2.437 1_554 S
C82 Pr80 2.881 1_565 S
C82 C83 1.490 1_554 S
C82 O100 1.208 1_564 S
C82 O101 1.232 . S
C83 C82 1.490 1_556 S
C83 C84 1.392 1_556 S
C83 C88 1.356 . S
C84 C83 1.392 1_554 S
C84 C85 1.368 . S
C84 H112 0.929 . S
C85 C84 1.368 . S
C85 C86 1.386 1_554 S
C85 H113 0.929 . S
C86 C85 1.386 1_556 S
C86 C87 1.373 . S
C87 C86 1.373 . S
C87 C88 1.409 . S
C87 H114 0.931 . S
C88 C83 1.356 . S
C88 C87 1.409 . S
C88 H115 0.885 1_565 S
C89 O102 1.270 . S
C89 O103 1.248 . S
C90 O104 1.267 . S
C90 O105 1.278 . S
C91 Pr81 2.880 . S
C91 C92 1.491 . S
C91 O106 1.254 . S
C91 O107 1.225 1_554 S
C92 C91 1.491 . S
C92 C93 1.392 1_554 S
C92 C97 1.356 . S
C93 C92 1.392 1_556 S
C93 C94 1.368 1_556 S
C93 H116 0.929 . S
C94 C93 1.368 1_554 S
C94 C95 1.386 . S
C94 H117 0.929 1_554 S
C95 C94 1.386 . S
C95 C96 1.373 . S
C96 C95 1.373 . S
C96 C97 1.409 . S
C96 H118 0.931 . S
C97 C92 1.356 . S
C97 C96 1.409 . S
C97 H119 0.930 . S
C98 O108 1.270 . S
C98 O109 1.248 . S
C99 O110 1.267 1_545 S
C99 O111 1.278 1_554 S
O100 Pr80 2.588 1_556 S
O100 C82 1.208 1_546 S
O101 Pr80 2.490 1_565 S
O101 C82 1.232 . S
O102 Pr80 2.695 . S
O102 Pr81 2.436 . S
O102 C89 1.270 . S
O103 Pr80 2.512 . S
O103 C89 1.248 . S
O104 Pr81 2.438 . S
O104 C90 1.267 . S
O105 Pr80 2.437 . S
O105 C90 1.278 . S
O106 Pr81 2.562 . S
O106 C91 1.254 . S
O107 Pr81 2.490 1_556 S
O107 C91 1.225 1_556 S
O108 Pr80 2.436 1_556 S
O108 Pr81 2.695 1_556 S
O108 C98 1.270 . S
O109 Pr81 2.512 1_556 S
O109 C98 1.248 . S
O110 Pr80 2.438 1_565 S
O110 C99 1.267 1_565 S
O111 Pr81 2.437 1_556 S
O111 C99 1.278 1_556 S
H112 C84 0.929 . S
H113 C85 0.929 . S
H114 C87 0.931 . S
H115 C88 0.885 1_545 S
H116 C93 0.929 . S
H117 C94 0.929 1_556 S
H118 C96 0.931 . S
H119 C97 0.930 . S
Pr120 C122 2.880 . S
Pr120 O140 2.562 . S
Pr120 O141 2.490 . S
Pr120 O142 2.695 . S
Pr120 O143 2.512 . S
Pr120 O145 2.437 . S
Pr120 O148 2.436 . S
Pr120 O150 2.438 . S
Pr121 C131 2.880 . S
Pr121 O142 2.436 . S
Pr121 O144 2.438 . S
Pr121 O146 2.562 . S
Pr121 O147 2.490 . S
Pr121 O148 2.695 . S
Pr121 O149 2.512 . S
Pr121 O151 2.437 . S
C122 Pr120 2.880 . S
C122 C123 1.491 . S
C122 O140 1.254 . S
C122 O141 1.225 . S
C123 C122 1.491 . S
C123 C124 1.392 . S
C123 C128 1.356 . S
C124 C123 1.392 . S
C124 C125 1.368 . S
C124 H152 0.929 . S
C125 C124 1.368 . S
C125 C126 1.386 . S
C125 H153 0.929 . S
C126 C125 1.386 . S
C126 C127 1.373 . S
C127 C126 1.373 . S
C127 C128 1.409 . S
C127 H154 0.931 . S
C128 C123 1.356 . S
C128 C127 1.409 . S
C128 H155 0.930 . S
C129 O142 1.270 . S
C129 O143 1.248 . S
C130 O144 1.267 . S
C130 O145 1.278 . S
C131 Pr121 2.880 . S
C131 C132 1.491 . S
C131 O146 1.254 . S
C131 O147 1.225 . S
C132 C131 1.491 . S
C132 C133 1.392 . S
C132 C137 1.356 . S
C133 C132 1.392 . S
C133 C134 1.368 . S
C133 H156 0.929 . S
C134 C133 1.368 . S
C134 C135 1.386 . S
C134 H157 0.929 . S
C135 C134 1.386 . S
C135 C136 1.373 . S
C136 C135 1.373 . S
C136 C137 1.409 . S
C136 H158 0.931 . S
C137 C132 1.356 . S
C137 C136 1.409 . S
C137 H159 0.930 . S
C138 O148 1.270 . S
C138 O149 1.248 . S
C139 O150 1.267 . S
C139 O151 1.278 . S
O140 Pr120 2.562 . S
O140 C122 1.254 . S
O141 Pr120 2.490 . S
O141 C122 1.225 . S
O142 Pr120 2.695 . S
O142 Pr121 2.436 . S
O142 C129 1.270 . S
O143 Pr120 2.512 . S
O143 C129 1.248 . S
O144 Pr121 2.438 . S
O144 C130 1.267 . S
O145 Pr120 2.437 . S
O145 C130 1.278 . S
O146 Pr121 2.562 . S
O146 C131 1.254 . S
O147 Pr121 2.490 . S
O147 C131 1.225 . S
O148 Pr120 2.436 . S
O148 Pr121 2.695 . S
O148 C138 1.270 . S
O149 Pr121 2.512 . S
O149 C138 1.248 . S
O150 Pr120 2.438 . S
O150 C139 1.267 . S
O151 Pr121 2.437 . S
O151 C139 1.278 . S
H152 C124 0.929 . S
H153 C125 0.929 . S
H154 C127 0.931 . S
H155 C128 0.930 . S
H156 C133 0.929 . S
H157 C134 0.929 . S
H158 C136 0.931 . S
H159 C137 0.930 . S
Pr160 C162 2.880 . S
Pr160 O180 2.562 . S
Pr160 O181 2.490 . S
Pr160 O182 2.695 . S
Pr160 O183 2.512 . S
Pr160 O185 2.437 . S
Pr160 O188 2.436 . S
Pr160 O190 2.438 . S
Pr161 C171 2.880 . S
Pr161 O182 2.436 . S
Pr161 O184 2.438 . S
Pr161 O186 2.562 . S
Pr161 O187 2.490 . S
Pr161 O188 2.695 . S
Pr161 O189 2.512 . S
Pr161 O191 2.437 . S
C162 Pr160 2.880 . S
C162 C163 1.491 . S
C162 O180 1.254 . S
C162 O181 1.225 . S
C163 C162 1.491 . S
C163 C164 1.392 . S
C163 C168 1.356 . S
C164 C163 1.392 . S
C164 C165 1.368 . S
C164 H192 0.929 . S
C165 C164 1.368 . S
C165 C166 1.386 . S
C165 H193 0.929 . S
C166 C165 1.386 . S
C166 C167 1.373 . S
C167 C166 1.373 . S
C167 C168 1.409 . S
C167 H194 0.931 . S
C168 C163 1.356 . S
C168 C167 1.409 . S
C168 H195 0.930 . S
C169 O182 1.270 . S
C169 O183 1.248 . S
C170 O184 1.267 . S
C170 O185 1.278 . S
C171 Pr161 2.880 . S
C171 C172 1.491 . S
C171 O186 1.254 . S
C171 O187 1.225 . S
C172 C171 1.491 . S
C172 C173 1.392 . S
C172 C177 1.356 . S
C173 C172 1.392 . S
C173 C174 1.368 . S
C173 H196 0.929 . S
C174 C173 1.368 . S
C174 C175 1.386 . S
C174 H197 0.929 . S
C175 C174 1.386 . S
C175 C176 1.373 . S
C176 C175 1.373 . S
C176 C177 1.409 . S
C176 H198 0.931 . S
C177 C172 1.356 . S
C177 C176 1.409 . S
C177 H199 0.930 . S
C178 O188 1.270 . S
C178 O189 1.248 . S
C179 O190 1.267 . S
C179 O191 1.278 . S
O180 Pr160 2.562 . S
O180 C162 1.254 . S
O181 Pr160 2.490 . S
O181 C162 1.225 . S
O182 Pr160 2.695 . S
O182 Pr161 2.436 . S
O182 C169 1.270 . S
O183 Pr160 2.512 . S
O183 C169 1.248 . S
O184 Pr161 2.438 . S
O184 C170 1.267 . S
O185 Pr160 2.437 . S
O185 C170 1.278 . S
O186 Pr161 2.562 . S
O186 C171 1.254 . S
O187 Pr161 2.490 . S
O187 C171 1.225 . S
O188 Pr160 2.436 . S
O188 Pr161 2.695 . S
O188 C178 1.270 . S
O189 Pr161 2.512 . S
O189 C178 1.248 . S
O190 Pr160 2.438 . S
O190 C179 1.267 . S
O191 Pr161 2.437 . S
O191 C179 1.278 . S
H192 C164 0.929 . S
H193 C165 0.929 . S
H194 C167 0.931 . S
H195 C168 0.930 . S
H196 C173 0.929 . S
H197 C174 0.929 . S
H198 C176 0.931 . S
H199 C177 0.930 . S
Pr200 C202 2.880 . S
Pr200 O220 2.562 . S
Pr200 O221 2.490 . S
Pr200 O222 2.695 . S
Pr200 O223 2.512 . S
Pr200 O225 2.437 . S
Pr200 O228 2.436 . S
Pr200 O230 2.438 . S
Pr201 C211 2.880 . S
Pr201 O222 2.436 . S
Pr201 O224 2.438 . S
Pr201 O226 2.562 . S
Pr201 O227 2.490 . S
Pr201 O228 2.695 . S
Pr201 O229 2.512 . S
Pr201 O231 2.437 . S
C202 Pr200 2.880 . S
C202 C203 1.491 . S
C202 O220 1.254 . S
C202 O221 1.225 . S
C203 C202 1.491 . S
C203 C204 1.392 1_655 S
C203 C208 1.356 . S
C204 C203 1.392 1_455 S
C204 C205 1.368 . S
C204 H232 0.929 1_455 S
C205 C204 1.368 . S
C205 C206 1.386 . S
C205 H233 0.929 . S
C206 C205 1.386 . S
C206 C207 1.373 . S
C207 C206 1.373 . S
C207 C208 1.409 1_455 S
C207 H234 0.931 . S
C208 C203 1.356 . S
C208 C207 1.409 1_655 S
C208 H235 0.930 . S
C209 O222 1.270 . S
C209 O223 1.248 . S
C210 O224 1.267 . S
C210 O225 1.278 . S
C211 Pr201 2.880 . S
C211 C212 1.491 . S
C211 O226 1.254 . S
C211 O227 1.225 . S
C212 C211 1.491 . S
C212 C213 1.392 . S
C212 C217 1.356 . S
C213 C212 1.392 . S
C213 C214 1.368 . S
C213 H236 0.929 . S
C214 C213 1.368 . S
C214 C215 1.386 . S
C214 H237 0.929 . S
C215 C214 1.386 . S
C215 C216 1.373 . S
C216 C215 1.373 . S
C216 C217 1.409 . S
C216 H238 0.931 . S
C217 C212 1.356 . S
C217 C216 1.409 . S
C217 H239 0.930 . S
C218 O228 1.270 . S
C218 O229 1.248 . S
C219 O230 1.267 . S
C219 O231 1.278 . S
O220 Pr200 2.562 . S
O220 C202 1.254 . S
O221 Pr200 2.490 . S
O221 C202 1.225 . S
O222 Pr200 2.695 . S
O222 Pr201 2.436 . S
O222 C209 1.270 . S
O223 Pr200 2.512 . S
O223 C209 1.248 . S
O224 Pr201 2.438 . S
O224 C210 1.267 . S
O225 Pr200 2.437 . S
O225 C210 1.278 . S
O226 Pr201 2.562 . S
O226 C211 1.254 . S
O227 Pr201 2.490 . S
O227 C211 1.225 . S
O228 Pr200 2.436 . S
O228 Pr201 2.695 . S
O228 C218 1.270 . S
O229 Pr201 2.512 . S
O229 C218 1.248 . S
O230 Pr200 2.438 . S
O230 C219 1.267 . S
O231 Pr201 2.437 . S
O231 C219 1.278 . S
H232 C204 0.929 1_655 S
H233 C205 0.929 . S
H234 C207 0.931 . S
H235 C208 0.930 . S
H236 C213 0.929 . S
H237 C214 0.929 . S
H238 C216 0.931 . S
H239 C217 0.930 . S
Pr240 C242 2.880 . S
Pr240 O260 2.562 . S
Pr240 O261 2.490 . S
Pr240 O262 2.695 . S
Pr240 O263 2.512 . S
Pr240 O265 2.437 . S
Pr240 O268 2.436 . S
Pr240 O270 2.438 . S
Pr241 C251 2.880 . S
Pr241 O262 2.436 . S
Pr241 O264 2.438 . S
Pr241 O266 2.562 . S
Pr241 O267 2.490 . S
Pr241 O268 2.695 . S
Pr241 O269 2.512 . S
Pr241 O271 2.437 . S
C242 Pr240 2.880 . S
C242 C243 1.491 . S
C242 O260 1.254 . S
C242 O261 1.225 . S
C243 C242 1.491 . S
C243 C244 1.392 . S
C243 C248 1.356 . S
C244 C243 1.392 . S
C244 C245 1.368 . S
C244 H272 0.929 . S
C245 C244 1.368 . S
C245 C246 1.386 . S
C245 H273 0.929 . S
C246 C245 1.386 . S
C246 C247 1.373 . S
C247 C246 1.373 . S
C247 C248 1.409 . S
C247 H274 0.931 . S
C248 C243 1.356 . S
C248 C247 1.409 . S
C248 H275 0.930 . S
C249 O262 1.270 . S
C249 O263 1.248 . S
C250 O264 1.267 . S
C250 O265 1.278 . S
C251 Pr241 2.880 . S
C251 C252 1.491 . S
C251 O266 1.254 . S
C251 O267 1.225 . S
C252 C251 1.491 . S
C252 C253 1.392 . S
C252 C257 1.356 . S
C253 C252 1.392 . S
C253 C254 1.368 . S
C253 H276 0.929 . S
C254 C253 1.368 . S
C254 C255 1.386 . S
C254 H277 0.929 . S
C255 C254 1.386 . S
C255 C256 1.373 . S
C256 C255 1.373 . S
C256 C257 1.409 . S
C256 H278 0.931 . S
C257 C252 1.356 . S
C257 C256 1.409 . S
C257 H279 0.930 . S
C258 O268 1.270 . S
C258 O269 1.248 . S
C259 O270 1.267 . S
C259 O271 1.278 . S
O260 Pr240 2.562 . S
O260 C242 1.254 . S
O261 Pr240 2.490 . S
O261 C242 1.225 . S
O262 Pr240 2.695 . S
O262 Pr241 2.436 . S
O262 C249 1.270 . S
O263 Pr240 2.512 . S
O263 C249 1.248 . S
O264 Pr241 2.438 . S
O264 C250 1.267 . S
O265 Pr240 2.437 . S
O265 C250 1.278 . S
O266 Pr241 2.562 . S
O266 C251 1.254 . S
O267 Pr241 2.490 . S
O267 C251 1.225 . S
O268 Pr240 2.436 . S
O268 Pr241 2.695 . S
O268 C258 1.270 . S
O269 Pr241 2.512 . S
O269 C258 1.248 . S
O270 Pr240 2.438 . S
O270 C259 1.267 . S
O271 Pr241 2.437 . S
O271 C259 1.278 . S
H272 C244 0.929 . S
H273 C245 0.929 . S
H274 C247 0.931 . S
H275 C248 0.930 . S
H276 C253 0.929 . S
H277 C254 0.929 . S
H278 C256 0.931 . S
H279 C257 0.930 . S
Pr280 C282 2.880 . S
Pr280 O300 2.562 . S
Pr280 O301 2.490 . S
Pr280 O302 2.695 . S
Pr280 O303 2.512 . S
Pr280 O305 2.437 . S
Pr280 O308 2.436 . S
Pr280 O310 2.438 . S
Pr281 C291 2.880 . S
Pr281 O302 2.436 . S
Pr281 O304 2.438 . S
Pr281 O306 2.562 . S
Pr281 O307 2.490 . S
Pr281 O308 2.695 . S
Pr281 O309 2.512 . S
Pr281 O311 2.437 . S
C282 Pr280 2.880 . S
C282 C283 1.491 . S
C282 O300 1.254 . S
C282 O301 1.225 . S
C283 C282 1.491 . S
C283 C284 1.392 . S
C283 C288 1.356 . S
C284 C283 1.392 . S
C284 C285 1.368 . S
C284 H312 0.929 . S
C285 C284 1.368 . S
C285 C286 1.386 . S
C285 H313 0.929 . S
C286 C285 1.386 . S
C286 C287 1.373 . S
C287 C286 1.373 . S
C287 C288 1.409 . S
C287 H314 0.931 . S
C288 C283 1.356 . S
C288 C287 1.409 . S
C288 H315 0.930 . S
C289 O302 1.270 . S
C289 O303 1.248 . S
C290 O304 1.267 . S
C290 O305 1.278 . S
C291 Pr281 2.880 . S
C291 C292 1.491 . S
C291 O306 1.254 . S
C291 O307 1.225 . S
C292 C291 1.491 . S
C292 C293 1.392 . S
C292 C297 1.356 . S
C293 C292 1.392 . S
C293 C294 1.368 . S
C293 H316 0.929 . S
C294 C293 1.368 . S
C294 C295 1.386 . S
C294 H317 0.929 . S
C295 C294 1.386 . S
C295 C296 1.373 . S
C296 C295 1.373 . S
C296 C297 1.409 . S
C296 H318 0.931 . S
C297 C292 1.356 . S
C297 C296 1.409 . S
C297 H319 0.930 . S
C298 O308 1.270 . S
C298 O309 1.248 . S
C299 O310 1.267 . S
C299 O311 1.278 . S
O300 Pr280 2.562 . S
O300 C282 1.254 . S
O301 Pr280 2.490 . S
O301 C282 1.225 . S
O302 Pr280 2.695 . S
O302 Pr281 2.436 . S
O302 C289 1.270 . S
O303 Pr280 2.512 . S
O303 C289 1.248 . S
O304 Pr281 2.438 . S
O304 C290 1.267 . S
O305 Pr280 2.437 . S
O305 C290 1.278 . S
O306 Pr281 2.562 . S
O306 C291 1.254 . S
O307 Pr281 2.490 . S
O307 C291 1.225 . S
O308 Pr280 2.436 . S
O308 Pr281 2.695 . S
O308 C298 1.270 . S
O309 Pr281 2.512 . S
O309 C298 1.248 . S
O310 Pr280 2.438 . S
O310 C299 1.267 . S
O311 Pr281 2.437 . S
O311 C299 1.278 . S
H312 C284 0.929 . S
H313 C285 0.929 . S
H314 C287 0.931 . S
H315 C288 0.930 . S
H316 C293 0.929 . S
H317 C294 0.929 . S
H318 C296 0.931 . S
H319 C297 0.930 . S
Pr320 C322 2.880 . S
Pr320 O340 2.562 . S
Pr320 O341 2.490 . S
Pr320 O342 2.695 . S
Pr320 O343 2.512 . S
Pr320 O345 2.437 . S
Pr320 O348 2.436 . S
Pr320 O350 2.438 . S
Pr321 C331 2.880 . S
Pr321 O342 2.436 . S
Pr321 O344 2.438 . S
Pr321 O346 2.562 . S
Pr321 O347 2.490 . S
Pr321 O348 2.695 . S
Pr321 O349 2.512 . S
Pr321 O351 2.437 . S
C322 Pr320 2.880 . S
C322 C323 1.491 . S
C322 O340 1.254 . S
C322 O341 1.225 . S
C323 C322 1.491 . S
C323 C324 1.392 . S
C323 C328 1.356 . S
C324 C323 1.392 . S
C324 C325 1.368 . S
C324 H352 0.929 . S
C325 C324 1.368 . S
C325 C326 1.386 . S
C325 H353 0.929 . S
C326 C325 1.386 . S
C326 C327 1.373 . S
C327 C326 1.373 . S
C327 C328 1.409 . S
C327 H354 0.931 . S
C328 C323 1.356 . S
C328 C327 1.409 . S
C328 H355 0.930 . S
C329 O342 1.270 . S
C329 O343 1.248 . S
C330 O344 1.267 . S
C330 O345 1.278 . S
C331 Pr321 2.880 . S
C331 C332 1.491 . S
C331 O346 1.254 . S
C331 O347 1.225 . S
C332 C331 1.491 . S
C332 C333 1.392 . S
C332 C337 1.356 . S
C333 C332 1.392 . S
C333 C334 1.368 . S
C333 H356 0.929 . S
C334 C333 1.368 . S
C334 C335 1.386 . S
C334 H357 0.929 . S
C335 C334 1.386 . S
C335 C336 1.373 . S
C336 C335 1.373 . S
C336 C337 1.409 . S
C336 H358 0.931 . S
C337 C332 1.356 . S
C337 C336 1.409 . S
C337 H359 0.930 . S
C338 O348 1.270 . S
C338 O349 1.248 . S
C339 O350 1.267 . S
C339 O351 1.278 . S
O340 Pr320 2.562 . S
O340 C322 1.254 . S
O341 Pr320 2.490 . S
O341 C322 1.225 . S
O342 Pr320 2.695 . S
O342 Pr321 2.436 . S
O342 C329 1.270 . S
O343 Pr320 2.512 . S
O343 C329 1.248 . S
O344 Pr321 2.438 . S
O344 C330 1.267 . S
O345 Pr320 2.437 . S
O345 C330 1.278 . S
O346 Pr321 2.562 . S
O346 C331 1.254 . S
O347 Pr321 2.490 . S
O347 C331 1.225 . S
O348 Pr320 2.436 . S
O348 Pr321 2.695 . S
O348 C338 1.270 . S
O349 Pr321 2.512 . S
O349 C338 1.248 . S
O350 Pr320 2.438 . S
O350 C339 1.267 . S
O351 Pr321 2.437 . S
O351 C339 1.278 . S
H352 C324 0.929 . S
H353 C325 0.929 . S
H354 C327 0.931 . S
H355 C328 0.930 . S
H356 C333 0.929 . S
H357 C334 0.929 . S
H358 C336 0.931 . S
H359 C337 0.930 . S
H360 C368 0.929 . S
H361 C370 0.930 . S
H362 C372 0.930 . S
H363 C375 0.929 . S
H364 C378 0.930 . S
H365 C380 0.960 . S
H366 C380 0.960 . S
H367 C380 0.960 . S
C368 H360 0.929 . S
C368 C369 1.377 1_556 S
C368 C370 1.384 . S
C369 C368 1.377 1_554 S
C369 C375 1.390 . S
C370 H361 0.930 . S
C370 C368 1.384 . S
C370 C371 1.372 . S
C371 C370 1.372 . S
C371 C372 1.400 1_556 S
C371 C376 1.490 . S
C372 H362 0.930 . S
C372 C371 1.400 1_554 S
C372 C375 1.386 . S
H373 C389 0.930 . S
H374 C390 0.931 . S
C375 H363 0.929 . S
C375 C369 1.390 . S
C375 C372 1.386 . S
C376 C371 1.490 . S
C376 C378 1.395 . S
C376 C379 1.403 . S
H377 C383 0.930 . S
C378 H364 0.930 . S
C378 C376 1.395 . S
C378 C381 1.403 . S
C379 C376 1.403 . S
C379 C380 1.524 1_556 S
C379 C383 1.400 . S
C380 H365 0.960 . S
C380 H366 0.960 . S
C380 H367 0.960 . S
C380 C379 1.524 1_554 S
C381 C378 1.403 . S
C381 C382 1.392 . S
C381 C385 1.495 . S
C382 C381 1.392 . S
C382 C383 1.385 . S
C382 C384 1.478 . S
C383 H377 0.930 . S
C383 C379 1.400 . S
C383 C382 1.385 . S
C384 C382 1.478 . S
C384 C386 1.381 . S
C384 C390 1.383 . S
C385 C381 1.495 . S
C385 H391 0.959 . S
C385 H392 0.961 . S
C385 H393 0.960 . S
C386 C384 1.381 . S
C386 C387 1.394 . S
C386 H394 0.930 . S
C387 C386 1.394 . S
C387 C388 1.383 . S
C387 H395 0.929 . S
C388 C387 1.383 . S
C388 C389 1.377 . S
C389 H373 0.930 . S
C389 C388 1.377 . S
C389 C390 1.379 . S
C390 H374 0.931 . S
C390 C384 1.383 . S
C390 C389 1.379 . S
H391 C385 0.959 . S
H392 C385 0.961 . S
H393 C385 0.960 . S
H394 C386 0.930 . S
H395 C387 0.929 . S
H396 C404 0.929 . S
H397 C406 0.930 . S
H398 C408 0.930 . S
H399 C411 0.929 . S
H400 C414 0.930 . S
H401 C416 0.960 . S
H402 C416 0.960 . S
H403 C416 0.960 . S
C404 H396 0.929 . S
C404 C405 1.377 . S
C404 C406 1.384 . S
C405 C404 1.377 . S
C405 C411 1.390 1_556 S
C406 H397 0.930 . S
C406 C404 1.384 . S
C406 C407 1.372 . S
C407 C406 1.372 . S
C407 C408 1.400 . S
C407 C412 1.490 . S
C408 H398 0.930 . S
C408 C407 1.400 . S
C408 C411 1.386 1_556 S
H409 C425 0.930 . S
H410 C426 0.931 . S
C411 H399 0.929 . S
C411 C405 1.390 1_554 S
C411 C408 1.386 1_554 S
C412 C407 1.490 . S
C412 C414 1.395 . S
C412 C415 1.403 . S
H413 C419 0.930 . S
C414 H400 0.930 . S
C414 C412 1.395 . S
C414 C417 1.403 . S
C415 C412 1.403 . S
C415 C416 1.524 . S
C415 C419 1.400 . S
C416 H401 0.960 . S
C416 H402 0.960 . S
C416 H403 0.960 . S
C416 C415 1.524 . S
C417 C414 1.403 . S
C417 C418 1.392 . S
C417 C421 1.495 . S
C418 C417 1.392 . S
C418 C419 1.385 . S
C418 C420 1.478 . S
C419 H413 0.930 . S
C419 C415 1.400 . S
C419 C418 1.385 . S
C420 C418 1.478 . S
C420 C422 1.381 . S
C420 C426 1.383 . S
C421 C417 1.495 . S
C421 H427 0.959 . S
C421 H428 0.961 . S
C421 H429 0.960 . S
C422 C420 1.381 . S
C422 C423 1.394 . S
C422 H430 0.930 . S
C423 C422 1.394 . S
C423 C424 1.383 . S
C423 H431 0.929 . S
C424 C423 1.383 . S
C424 C425 1.377 . S
C425 H409 0.930 . S
C425 C424 1.377 . S
C425 C426 1.379 . S
C426 H410 0.931 . S
C426 C420 1.383 . S
C426 C425 1.379 . S
H427 C421 0.959 . S
H428 C421 0.961 . S
H429 C421 0.960 . S
H430 C422 0.930 . S
H431 C423 0.929 . S
H432 C440 0.929 . S
H433 C442 0.930 . S
H434 C444 0.930 . S
H435 C447 0.929 1_554 S
H436 C450 0.930 . S
H437 C452 0.960 . S
H438 C452 0.960 . S
H439 C452 0.960 . S
C440 H432 0.929 . S
C440 C441 1.377 . S
C440 C442 1.384 . S
C441 C440 1.377 . S
C441 C447 1.390 . S
C442 H433 0.930 . S
C442 C440 1.384 . S
C442 C443 1.372 . S
C443 C442 1.372 . S
C443 C444 1.400 . S
C443 C448 1.490 . S
C444 H434 0.930 . S
C444 C443 1.400 . S
C444 C447 1.386 . S
H445 C461 0.930 . S
H446 C462 0.931 . S
C447 H435 0.929 1_556 S
C447 C441 1.390 . S
C447 C444 1.386 . S
C448 C443 1.490 . S
C448 C450 1.395 . S
C448 C451 1.403 . S
H449 C455 0.930 . S
C450 H436 0.930 . S
C450 C448 1.395 . S
C450 C453 1.403 . S
C451 C448 1.403 . S
C451 C452 1.524 . S
C451 C455 1.400 . S
C452 H437 0.960 . S
C452 H438 0.960 . S
C452 H439 0.960 . S
C452 C451 1.524 . S
C453 C450 1.403 . S
C453 C454 1.392 . S
C453 C457 1.495 . S
C454 C453 1.392 . S
C454 C455 1.385 . S
C454 C456 1.478 . S
C455 H449 0.930 . S
C455 C451 1.400 . S
C455 C454 1.385 . S
C456 C454 1.478 . S
C456 C458 1.381 . S
C456 C462 1.383 . S
C457 C453 1.495 . S
C457 H463 0.959 . S
C457 H464 0.961 . S
C457 H465 0.960 . S
C458 C456 1.381 . S
C458 C459 1.394 . S
C458 H466 0.930 . S
C459 C458 1.394 . S
C459 C460 1.383 . S
C459 H467 0.929 . S
C460 C459 1.383 . S
C460 C461 1.377 . S
C461 H445 0.930 . S
C461 C460 1.377 . S
C461 C462 1.379 . S
C462 H446 0.931 . S
C462 C456 1.383 . S
C462 C461 1.379 . S
H463 C457 0.959 . S
H464 C457 0.961 . S
H465 C457 0.960 . S
H466 C458 0.930 . S
H467 C459 0.929 . S
H468 C476 0.929 . S
H469 C478 0.930 . S
H470 C480 0.930 . S
H471 C483 0.929 . S
H472 C486 0.930 . S
H473 C488 0.960 1_556 S
H474 C488 0.960 . S
H475 C488 0.960 1_556 S
C476 H468 0.929 . S
C476 C477 1.377 . S
C476 C478 1.384 . S
C477 C476 1.377 . S
C477 C483 1.390 . S
C478 H469 0.930 . S
C478 C476 1.384 . S
C478 C479 1.372 . S
C479 C478 1.372 . S
C479 C480 1.400 . S
C479 C484 1.490 . S
C480 H470 0.930 . S
C480 C479 1.400 . S
C480 C483 1.386 . S
H481 C497 0.930 1_556 S
H482 C498 0.931 . S
C483 H471 0.929 . S
C483 C477 1.390 . S
C483 C480 1.386 . S
C484 C479 1.490 . S
C484 C486 1.395 . S
C484 C487 1.403 . S
H485 C491 0.930 . S
C486 H472 0.930 . S
C486 C484 1.395 . S
C486 C489 1.403 . S
C487 C484 1.403 . S
C487 C488 1.524 . S
C487 C491 1.400 . S
C488 H473 0.960 1_554 S
C488 H474 0.960 . S
C488 H475 0.960 1_554 S
C488 C487 1.524 . S
C489 C486 1.403 . S
C489 C490 1.392 . S
C489 C493 1.495 . S
C490 C489 1.392 . S
C490 C491 1.385 . S
C490 C492 1.478 . S
C491 H485 0.930 . S
C491 C487 1.400 . S
C491 C490 1.385 . S
C492 C490 1.478 . S
C492 C494 1.381 . S
C492 C498 1.383 . S
C493 C489 1.495 . S
C493 H499 0.959 . S
C493 H500 0.961 . S
C493 H501 0.960 . S
C494 C492 1.381 . S
C494 C495 1.394 . S
C494 H502 0.930 . S
C495 C494 1.394 . S
C495 C496 1.383 . S
C495 H503 0.929 . S
C496 C495 1.383 . S
C496 C497 1.377 . S
C497 H481 0.930 1_554 S
C497 C496 1.377 . S
C497 C498 1.379 . S
C498 H482 0.931 . S
C498 C492 1.383 . S
C498 C497 1.379 . S
H499 C493 0.959 . S
H500 C493 0.961 . S
H501 C493 0.960 . S
H502 C494 0.930 . S
H503 C495 0.929 . S
H504 C512 0.929 . S
H505 C514 0.930 . S
H506 C516 0.930 . S
H507 C519 0.929 . S
H508 C522 0.930 . S
H509 C524 0.960 . S
H510 C524 0.960 . S
H511 C524 0.960 . S
C512 H504 0.929 . S
C512 C513 1.377 . S
C512 C514 1.384 . S
C513 C512 1.377 . S
C513 C519 1.390 . S
C514 H505 0.930 . S
C514 C512 1.384 . S
C514 C515 1.372 . S
C515 C514 1.372 . S
C515 C516 1.400 . S
C515 C520 1.490 . S
C516 H506 0.930 . S
C516 C515 1.400 . S
C516 C519 1.386 . S
H517 C533 0.930 . S
H518 C534 0.931 . S
C519 H507 0.929 . S
C519 C513 1.390 . S
C519 C516 1.386 . S
C520 C515 1.490 . S
C520 C522 1.395 . S
C520 C523 1.403 . S
H521 C527 0.930 . S
C522 H508 0.930 . S
C522 C520 1.395 . S
C522 C525 1.403 . S
C523 C520 1.403 . S
C523 C524 1.524 . S
C523 C527 1.400 . S
C524 H509 0.960 . S
C524 H510 0.960 . S
C524 H511 0.960 . S
C524 C523 1.524 . S
C525 C522 1.403 . S
C525 C526 1.392 . S
C525 C529 1.495 1_655 S
C526 C525 1.392 . S
C526 C527 1.385 . S
C526 C528 1.478 . S
C527 H521 0.930 . S
C527 C523 1.400 . S
C527 C526 1.385 . S
C528 C526 1.478 . S
C528 C530 1.368 1_655 S
C528 C534 1.383 . S
C529 C525 1.495 1_455 S
C529 H535 0.959 . S
C529 H536 0.961 . S
C529 H537 0.960 . S
C530 C528 1.368 1_455 S
C530 C531 1.409 . S
C530 H538 0.929 . S
C531 C530 1.409 . S
C531 C532 1.385 1_455 S
C531 H539 0.929 . S
C532 C531 1.385 1_655 S
C532 C533 1.386 . S
C533 H517 0.930 . S
C533 C532 1.386 . S
C533 C534 1.379 . S
C534 H518 0.931 . S
C534 C528 1.383 . S
C534 C533 1.379 . S
H535 C529 0.959 . S
H536 C529 0.961 . S
H537 C529 0.960 . S
H538 C530 0.929 . S
H539 C531 0.929 . S
H540 C548 0.929 . S
H541 C550 0.930 . S
H542 C552 0.930 . S
H543 C555 0.929 . S
H544 C558 0.930 . S
H545 C560 0.960 . S
H546 C560 0.960 1_556 S
H547 C560 0.960 . S
C548 H540 0.929 . S
C548 C549 1.377 . S
C548 C550 1.384 . S
C549 C548 1.377 . S
C549 C555 1.390 . S
C550 H541 0.930 . S
C550 C548 1.384 . S
C550 C551 1.372 . S
C551 C550 1.372 . S
C551 C552 1.400 . S
C551 C556 1.490 . S
C552 H542 0.930 . S
C552 C551 1.400 . S
C552 C555 1.386 . S
H553 C569 0.930 . S
H554 C570 0.931 . S
C555 H543 0.929 . S
C555 C549 1.390 . S
C555 C552 1.386 . S
C556 C551 1.490 . S
C556 C558 1.395 . S
C556 C559 1.403 . S
H557 C563 0.930 . S
C558 H544 0.930 . S
C558 C556 1.395 . S
C558 C561 1.403 . S
C559 C556 1.403 . S
C559 C560 1.524 . S
C559 C563 1.400 . S
C560 H545 0.960 . S
C560 H546 0.960 1_554 S
C560 H547 0.960 . S
C560 C559 1.524 . S
C561 C558 1.403 . S
C561 C562 1.392 . S
C561 C565 1.495 . S
C562 C561 1.392 . S
C562 C563 1.385 . S
C562 C564 1.478 . S
C563 H557 0.930 . S
C563 C559 1.400 . S
C563 C562 1.385 . S
C564 C562 1.478 . S
C564 C566 1.381 . S
C564 C570 1.383 . S
C565 C561 1.495 . S
C565 H571 0.959 . S
C565 H572 0.961 . S
C565 H573 0.960 . S
C566 C564 1.381 . S
C566 C567 1.394 . S
C566 H574 0.930 . S
C567 C566 1.394 . S
C567 C568 1.383 . S
C567 H575 0.929 . S
C568 C567 1.383 . S
C568 C569 1.377 . S
C569 H553 0.930 . S
C569 C568 1.377 . S
C569 C570 1.379 . S
C570 H554 0.931 . S
C570 C564 1.383 . S
C570 C569 1.379 . S
H571 C565 0.959 . S
H572 C565 0.961 . S
H573 C565 0.960 . S
H574 C566 0.930 . S
H575 C567 0.929 . S
H576 C584 0.929 . S
H577 C586 0.930 . S
H578 C588 0.930 . S
H579 C591 0.929 . S
H580 C594 0.930 . S
H581 C596 0.960 . S
H582 C596 0.960 . S
H583 C596 0.960 . S
C584 H576 0.929 . S
C584 C585 1.377 . S
C584 C586 1.384 . S
C585 C584 1.377 . S
C585 C591 1.390 . S
C586 H577 0.930 . S
C586 C584 1.384 . S
C586 C587 1.372 . S
C587 C586 1.372 . S
C587 C588 1.400 . S
C587 C592 1.490 . S
C588 H578 0.930 . S
C588 C587 1.400 . S
C588 C591 1.386 . S
H589 C605 0.930 . S
H590 C606 0.931 . S
C591 H579 0.929 . S
C591 C585 1.390 . S
C591 C588 1.386 . S
C592 C587 1.490 . S
C592 C594 1.395 . S
C592 C595 1.403 . S
H593 C599 0.930 . S
C594 H580 0.930 . S
C594 C592 1.395 . S
C594 C597 1.403 . S
C595 C592 1.403 . S
C595 C596 1.524 . S
C595 C599 1.400 . S
C596 H581 0.960 . S
C596 H582 0.960 . S
C596 H583 0.960 . S
C596 C595 1.524 . S
C597 C594 1.403 . S
C597 C598 1.392 . S
C597 C601 1.495 . S
C598 C597 1.392 . S
C598 C599 1.385 . S
C598 C600 1.478 . S
C599 H593 0.930 . S
C599 C595 1.400 . S
C599 C598 1.385 . S
C600 C598 1.478 . S
C600 C602 1.381 . S
C600 C606 1.383 . S
C601 C597 1.495 . S
C601 H607 0.959 . S
C601 H608 0.961 . S
C601 H609 0.960 . S
C602 C600 1.381 . S
C602 C603 1.394 . S
C602 H610 0.930 . S
C603 C602 1.394 . S
C603 C604 1.383 . S
C603 H611 0.929 . S
C604 C603 1.383 . S
C604 C605 1.377 . S
C605 H589 0.930 . S
C605 C604 1.377 . S
C605 C606 1.379 . S
C606 H590 0.931 . S
C606 C600 1.383 . S
C606 C605 1.379 . S
H607 C601 0.959 . S
H608 C601 0.961 . S
H609 C601 0.960 . S
H610 C602 0.930 . S
H611 C603 0.929 . S
H612 C620 0.929 . S
H613 C622 0.930 . S
H614 C624 0.930 . S
H615 C627 0.929 . S
H616 C630 0.930 . S
H617 C632 0.960 . S
H618 C632 0.960 . S
H619 C632 0.960 . S
C620 H612 0.929 . S
C620 C621 1.377 . S
C620 C622 1.384 . S
C621 C620 1.377 . S
C621 C627 1.390 . S
C622 H613 0.930 . S
C622 C620 1.384 . S
C622 C623 1.372 . S
C623 C622 1.372 . S
C623 C624 1.400 . S
C623 C628 1.490 . S
C624 H614 0.930 . S
C624 C623 1.400 . S
C624 C627 1.386 . S
H625 C641 0.930 . S
H626 C642 0.931 . S
C627 H615 0.929 . S
C627 C621 1.390 . S
C627 C624 1.386 . S
C628 C623 1.490 . S
C628 C630 1.395 . S
C628 C631 1.403 . S
H629 C635 0.930 . S
C630 H616 0.930 . S
C630 C628 1.395 . S
C630 C633 1.403 . S
C631 C628 1.403 . S
C631 C632 1.524 . S
C631 C635 1.400 . S
C632 H617 0.960 . S
C632 H618 0.960 . S
C632 H619 0.960 . S
C632 C631 1.524 . S
C633 C630 1.403 . S
C633 C634 1.392 . S
C633 C637 1.495 . S
C634 C633 1.392 . S
C634 C635 1.385 . S
C634 C636 1.478 . S
C635 H629 0.930 . S
C635 C631 1.400 . S
C635 C634 1.385 . S
C636 C634 1.478 . S
C636 C638 1.381 . S
C636 C642 1.383 . S
C637 C633 1.495 . S
C637 H643 0.959 . S
C637 H644 0.961 . S
C637 H645 0.960 . S
C638 C636 1.381 . S
C638 C639 1.394 . S
C638 H646 0.930 . S
C639 C638 1.394 . S
C639 C640 1.383 . S
C639 H647 0.929 . S
C640 C639 1.383 . S
C640 C641 1.377 . S
C641 H625 0.930 . S
C641 C640 1.377 . S
C641 C642 1.379 . S
C642 H626 0.931 . S
C642 C636 1.383 . S
C642 C641 1.379 . S
H643 C637 0.959 . S
H644 C637 0.961 . S
H645 C637 0.960 . S
H646 C638 0.930 . S
H647 C639 0.929 . S
H648 C656 0.929 . S
H649 C658 0.930 . S
H650 C660 0.930 . S
H651 C663 0.929 . S
H652 C666 0.930 . S
H653 C668 0.960 . S
H654 C668 0.960 . S
H655 C668 0.960 . S
C656 H648 0.929 . S
C656 C657 1.377 . S
C656 C658 1.384 . S
C657 C656 1.377 . S
C657 C663 1.390 . S
C658 H649 0.930 . S
C658 C656 1.384 . S
C658 C659 1.372 . S
C659 C658 1.372 . S
C659 C660 1.400 . S
C659 C664 1.490 . S
C660 H650 0.930 . S
C660 C659 1.400 . S
C660 C663 1.386 . S
H661 C677 0.937 . S
H662 C678 0.931 . S
C663 H651 0.929 . S
C663 C657 1.390 . S
C663 C660 1.386 . S
C664 C659 1.490 . S
C664 C666 1.395 . S
C664 C667 1.403 . S
H665 C671 0.930 . S
C666 H652 0.930 . S
C666 C664 1.395 . S
C666 C669 1.403 . S
C667 C664 1.403 . S
C667 C668 1.524 . S
C667 C671 1.400 . S
C668 H653 0.960 . S
C668 H654 0.960 . S
C668 H655 0.960 . S
C668 C667 1.524 . S
C669 C666 1.403 . S
C669 C670 1.392 . S
C669 C673 1.495 . S
C670 C669 1.392 . S
C670 C671 1.385 . S
C670 C672 1.478 . S
C671 H665 0.930 . S
C671 C667 1.400 . S
C671 C670 1.385 . S
C672 C670 1.478 . S
C672 C674 1.381 . S
C672 C678 1.383 . S
C673 C669 1.495 . S
C673 H679 0.959 . S
C673 H680 0.961 1_545 S
C673 H681 0.960 1_545 S
C674 C672 1.381 . S
C674 C675 1.394 1_545 S
C674 H682 0.930 . S
C675 C674 1.394 1_565 S
C675 C676 1.383 . S
C675 H683 0.929 . S
C676 C675 1.383 . S
C676 C677 1.379 . S
C677 H661 0.937 . S
C677 C676 1.379 . S
C677 C678 1.370 1_565 S
C678 H662 0.931 . S
C678 C672 1.383 . S
C678 C677 1.370 1_545 S
H679 C673 0.959 . S
H680 C673 0.961 1_565 S
H681 C673 0.960 1_565 S
H682 C674 0.930 . S
H683 C675 0.929 . S
H684 C692 0.929 1_556 S
H685 C694 0.930 1_556 S
H686 C696 0.930 . S
H687 C699 0.929 . S
H688 C702 0.930 1_556 S
H689 C704 0.960 . S
H690 C704 0.960 . S
H691 C704 0.960 . S
C692 H684 0.929 1_554 S
C692 C693 1.377 . S
C692 C694 1.384 . S
C693 C692 1.377 . S
C693 C699 1.390 . S
C694 H685 0.930 1_554 S
C694 C692 1.384 . S
C694 C695 1.372 . S
C695 C694 1.372 . S
C695 C696 1.400 . S
C695 C700 1.490 . S
C696 H686 0.930 . S
C696 C695 1.400 . S
C696 C699 1.386 . S
H697 C713 0.930 . S
H698 C714 0.931 . S
C699 H687 0.929 . S
C699 C693 1.390 . S
C699 C696 1.386 . S
C700 C695 1.490 . S
C700 C702 1.395 . S
C700 C703 1.403 . S
H701 C707 0.930 . S
C702 H688 0.930 1_554 S
C702 C700 1.395 . S
C702 C705 1.403 . S
C703 C700 1.403 . S
C703 C704 1.524 . S
C703 C707 1.400 . S
C704 H689 0.960 . S
C704 H690 0.960 . S
C704 H691 0.960 . S
C704 C703 1.524 . S
C705 C702 1.403 . S
C705 C706 1.392 . S
C705 C709 1.496 1_554 S
C706 C705 1.392 . S
C706 C707 1.385 . S
C706 C708 1.478 . S
C707 H701 0.930 . S
C707 C703 1.400 . S
C707 C706 1.385 . S
C708 C706 1.478 . S
C708 C710 1.381 1_554 S
C708 C714 1.383 . S
C709 C705 1.496 1_556 S
C709 H715 0.959 . S
C709 H716 0.961 . S
C709 H717 0.960 . S
C710 C708 1.381 1_556 S
C710 C711 1.394 1_556 S
C710 H718 0.930 . S
C711 C710 1.394 1_554 S
C711 C712 1.382 . S
C711 H719 0.931 1_554 S
C712 C711 1.382 . S
C712 C713 1.377 . S
C713 H697 0.930 . S
C713 C712 1.377 . S
C713 C714 1.379 . S
C714 H698 0.931 . S
C714 C708 1.383 . S
C714 C713 1.379 . S
H715 C709 0.959 . S
H716 C709 0.961 . S
H717 C709 0.960 . S
H718 C710 0.930 . S
H719 C711 0.931 1_556 S
H720 C728 0.929 . S
H721 C730 0.930 . S
H722 C732 0.930 . S
H723 C735 0.929 . S
H724 C738 0.930 . S
H725 C740 0.960 . S
H726 C740 0.960 1_565 S
H727 C740 0.960 1_564 S
C728 H720 0.929 . S
C728 C729 1.377 1_556 S
C728 C730 1.384 . S
C729 C728 1.377 1_554 S
C729 C735 1.390 . S
C730 H721 0.930 . S
C730 C728 1.384 . S
C730 C731 1.372 1_556 S
C731 C730 1.372 1_554 S
C731 C732 1.400 . S
C731 C736 1.490 . S
C732 H722 0.930 . S
C732 C731 1.400 . S
C732 C735 1.386 . S
H733 C749 0.930 . S
H734 C750 0.931 . S
C735 H723 0.929 . S
C735 C729 1.390 . S
C735 C732 1.386 . S
C736 C731 1.490 . S
C736 C738 1.395 . S
C736 C739 1.403 1_565 S
H737 C743 0.930 . S
C738 H724 0.930 . S
C738 C736 1.395 . S
C738 C741 1.403 1_565 S
C739 C736 1.403 1_545 S
C739 C740 1.524 1_554 S
C739 C743 1.400 . S
C740 H725 0.960 . S
C740 H726 0.960 1_545 S
C740 H727 0.960 1_546 S
C740 C739 1.524 1_556 S
C741 C738 1.403 1_545 S
C741 C742 1.392 . S
C741 C745 1.495 . S
C742 C741 1.392 . S
C742 C743 1.385 . S
C742 C744 1.478 . S
C743 H737 0.930 . S
C743 C739 1.400 . S
C743 C742 1.385 . S
C744 C742 1.478 . S
C744 C746 1.381 . S
C744 C750 1.383 . S
C745 C741 1.495 . S
C745 H751 0.959 . S
C745 H752 0.961 . S
C745 H753 0.960 . S
C746 C744 1.381 . S
C746 C747 1.394 . S
C746 H754 0.930 1_554 S
C747 C746 1.394 . S
C747 C748 1.383 . S
C747 H755 0.929 1_554 S
C748 C747 1.383 . S
C748 C749 1.377 . S
C749 H733 0.930 . S
C749 C748 1.377 . S
C749 C750 1.379 . S
C750 H734 0.931 . S
C750 C744 1.383 . S
C750 C749 1.379 . S
H751 C745 0.959 . S
H752 C745 0.961 . S
H753 C745 0.960 . S
H754 C746 0.930 1_556 S
H755 C747 0.929 1_556 S
H756 C764 0.929 . S
H757 C766 0.930 . S
H758 C768 0.930 1_455 S
H759 C771 0.929 . S
H760 C774 0.930 . S
H761 C776 0.960 . S
H762 C776 0.960 . S
H763 C776 0.960 . S
C764 H756 0.929 . S
C764 C765 1.377 . S
C764 C766 1.384 . S
C765 C764 1.377 . S
C765 C771 1.390 . S
C766 H757 0.930 . S
C766 C764 1.384 . S
C766 C767 1.372 . S
C767 C766 1.372 . S
C767 C768 1.400 . S
C767 C772 1.490 1_655 S
C768 H758 0.930 1_655 S
C768 C767 1.400 . S
C768 C771 1.386 . S
H769 C785 0.930 . S
H770 C786 0.931 . S
C771 H759 0.929 . S
C771 C765 1.390 . S
C771 C768 1.386 . S
C772 C767 1.490 1_455 S
C772 C774 1.395 . S
C772 C775 1.403 1_554 S
H773 C779 0.930 . S
C774 H760 0.930 . S
C774 C772 1.395 . S
C774 C777 1.403 . S
C775 C772 1.403 1_556 S
C775 C776 1.524 . S
C775 C779 1.400 . S
C776 H761 0.960 . S
C776 H762 0.960 . S
C776 H763 0.960 . S
C776 C775 1.524 . S
C777 C774 1.403 . S
C777 C778 1.392 . S
C777 C781 1.495 . S
C778 C777 1.392 . S
C778 C779 1.385 1_554 S
C778 C780 1.478 . S
C779 H773 0.930 . S
C779 C775 1.400 . S
C779 C778 1.385 1_556 S
C780 C778 1.478 . S
C780 C782 1.381 . S
C780 C786 1.383 . S
C781 C777 1.495 . S
C781 H787 0.959 . S
C781 H788 0.961 . S
C781 H789 0.960 . S
C782 C780 1.381 . S
C782 C783 1.394 . S
C782 H790 0.930 . S
C783 C782 1.394 . S
C783 C784 1.383 . S
C783 H791 0.929 . S
C784 C783 1.383 . S
C784 C785 1.377 . S
C785 H769 0.930 . S
C785 C784 1.377 . S
C785 C786 1.379 . S
C786 H770 0.931 . S
C786 C780 1.383 . S
C786 C785 1.379 . S
H787 C781 0.959 . S
H788 C781 0.961 . S
H789 C781 0.960 . S
H790 C782 0.930 . S
H791 C783 0.929 . S
H792 C800 0.929 . S
H793 C802 0.930 . S
H794 C804 0.930 . S
H795 C807 0.929 . S
H796 C810 0.930 . S
H797 C812 0.960 . S
H798 C812 0.960 . S
H799 C812 0.960 . S
C800 H792 0.929 . S
C800 C801 1.377 . S
C800 C802 1.384 . S
C801 C800 1.377 . S
C801 C807 1.390 . S
C802 H793 0.930 . S
C802 C800 1.384 . S
C802 C803 1.372 . S
C803 C802 1.372 . S
C803 C804 1.400 . S
C803 C808 1.490 . S
C804 H794 0.930 . S
C804 C803 1.400 . S
C804 C807 1.386 . S
H805 C821 0.930 . S
H806 C822 0.931 . S
C807 H795 0.929 . S
C807 C801 1.390 . S
C807 C804 1.386 . S
C808 C803 1.490 . S
C808 C810 1.395 . S
C808 C811 1.403 . S
H809 C815 0.930 . S
C810 H796 0.930 . S
C810 C808 1.395 . S
C810 C813 1.403 . S
C811 C808 1.403 . S
C811 C812 1.524 . S
C811 C815 1.400 . S
C812 H797 0.960 . S
C812 H798 0.960 . S
C812 H799 0.960 . S
C812 C811 1.524 . S
C813 C810 1.403 . S
C813 C814 1.392 . S
C813 C817 1.495 . S
C814 C813 1.392 . S
C814 C815 1.385 . S
C814 C816 1.478 . S
C815 H809 0.930 . S
C815 C811 1.400 . S
C815 C814 1.385 . S
C816 C814 1.478 . S
C816 C818 1.381 . S
C816 C822 1.383 . S
C817 C813 1.495 . S
C817 H823 0.959 . S
C817 H824 0.961 . S
C817 H825 0.960 . S
C818 C816 1.381 . S
C818 C819 1.394 . S
C818 H826 0.930 . S
C819 C818 1.394 . S
C819 C820 1.383 . S
C819 H827 0.929 . S
C820 C819 1.383 . S
C820 C821 1.377 . S
C821 H805 0.930 . S
C821 C820 1.377 . S
C821 C822 1.379 . S
C822 H806 0.931 . S
C822 C816 1.383 . S
C822 C821 1.379 . S
H823 C817 0.959 . S
H824 C817 0.961 . S
H825 C817 0.960 . S
H826 C818 0.930 . S
H827 C819 0.929 . S
H828 C836 0.929 . S
H829 C838 0.930 . S
H830 C840 0.930 . S
H831 C843 0.929 . S
H832 C846 0.930 . S
H833 C848 0.960 . S
H834 C848 0.960 . S
H835 C848 0.960 . S
C836 H828 0.929 . S
C836 C837 1.377 . S
C836 C838 1.384 . S
C837 C836 1.377 . S
C837 C843 1.390 . S
C838 H829 0.930 . S
C838 C836 1.384 . S
C838 C839 1.372 . S
C839 C838 1.372 . S
C839 C840 1.400 . S
C839 C844 1.490 . S
C840 H830 0.930 . S
C840 C839 1.400 . S
C840 C843 1.386 . S
H841 C857 0.930 . S
H842 C858 0.931 . S
C843 H831 0.929 . S
C843 C837 1.390 . S
C843 C840 1.386 . S
C844 C839 1.490 . S
C844 C846 1.395 . S
C844 C847 1.403 . S
H845 C851 0.930 . S
C846 H832 0.930 . S
C846 C844 1.395 . S
C846 C849 1.403 . S
C847 C844 1.403 . S
C847 C848 1.524 . S
C847 C851 1.400 . S
C848 H833 0.960 . S
C848 H834 0.960 . S
C848 H835 0.960 . S
C848 C847 1.524 . S
C849 C846 1.403 . S
C849 C850 1.392 . S
C849 C853 1.495 . S
C850 C849 1.392 . S
C850 C851 1.385 . S
C850 C852 1.478 . S
C851 H845 0.930 . S
C851 C847 1.400 . S
C851 C850 1.385 . S
C852 C850 1.478 . S
C852 C854 1.381 . S
C852 C858 1.383 . S
C853 C849 1.495 . S
C853 H859 0.959 . S
C853 H860 0.961 . S
C853 H861 0.960 . S
C854 C852 1.381 . S
C854 C855 1.394 . S
C854 H862 0.930 . S
C855 C854 1.394 . S
C855 C856 1.383 . S
C855 H863 0.929 . S
C856 C855 1.383 . S
C856 C857 1.377 . S
C857 H841 0.930 . S
C857 C856 1.377 . S
C857 C858 1.379 . S
C858 H842 0.931 . S
C858 C852 1.383 . S
C858 C857 1.379 . S
H859 C853 0.959 . S
H860 C853 0.961 . S
H861 C853 0.960 . S
H862 C854 0.930 . S
H863 C855 0.929 . S
H864 C872 0.929 . S
H865 C874 0.930 . S
H866 C876 0.930 . S
H867 C879 0.929 . S
H868 C882 0.930 . S
H869 C884 0.960 . S
H870 C884 0.960 . S
H871 C884 0.960 . S
C872 H864 0.929 . S
C872 C873 1.377 . S
C872 C874 1.384 . S
C873 C872 1.377 . S
C873 C879 1.390 . S
C874 H865 0.930 . S
C874 C872 1.384 . S
C874 C875 1.372 . S
C875 C874 1.372 . S
C875 C876 1.400 . S
C875 C880 1.490 . S
C876 H866 0.930 . S
C876 C875 1.400 . S
C876 C879 1.386 . S
H877 C893 0.930 . S
H878 C894 0.931 . S
C879 H867 0.929 . S
C879 C873 1.390 . S
C879 C876 1.386 . S
C880 C875 1.490 . S
C880 C882 1.395 . S
C880 C883 1.403 . S
H881 C887 0.930 . S
C882 H868 0.930 . S
C882 C880 1.395 . S
C882 C885 1.403 . S
C883 C880 1.403 . S
C883 C884 1.524 . S
C883 C887 1.400 . S
C884 H869 0.960 . S
C884 H870 0.960 . S
C884 H871 0.960 . S
C884 C883 1.524 . S
C885 C882 1.403 . S
C885 C886 1.392 . S
C885 C889 1.495 . S
C886 C885 1.392 . S
C886 C887 1.385 . S
C886 C888 1.478 . S
C887 H881 0.930 . S
C887 C883 1.400 . S
C887 C886 1.385 . S
C888 C886 1.478 . S
C888 C890 1.381 . S
C888 C894 1.383 . S
C889 C885 1.495 . S
C889 H895 0.959 . S
C889 H896 0.961 . S
C889 H897 0.960 . S
C890 C888 1.381 . S
C890 C891 1.394 . S
C890 H898 0.930 . S
C891 C890 1.394 . S
C891 C892 1.383 . S
C891 H899 0.929 . S
C892 C891 1.383 . S
C892 C893 1.377 . S
C893 H877 0.930 . S
C893 C892 1.377 . S
C893 C894 1.379 . S
C894 H878 0.931 . S
C894 C888 1.383 . S
C894 C893 1.379 . S
H895 C889 0.959 . S
H896 C889 0.961 . S
H897 C889 0.960 . S
H898 C890 0.930 . S
H899 C891 0.929 . S
H900 C908 0.929 . S
H901 C910 0.930 . S
H902 C912 0.930 . S
H903 C915 0.929 . S
H904 C918 0.930 . S
H905 C920 0.960 . S
H906 C920 0.960 . S
H907 C920 0.960 . S
C908 H900 0.929 . S
C908 C909 1.377 . S
C908 C910 1.384 . S
C909 C908 1.377 . S
C909 C915 1.390 . S
C910 H901 0.930 . S
C910 C908 1.384 . S
C910 C911 1.372 . S
C911 C910 1.372 . S
C911 C912 1.400 . S
C911 C916 1.490 . S
C912 H902 0.930 . S
C912 C911 1.400 . S
C912 C915 1.386 . S
H913 C929 0.930 . S
H914 C930 0.931 . S
C915 H903 0.929 . S
C915 C909 1.390 . S
C915 C912 1.386 . S
C916 C911 1.490 . S
C916 C918 1.395 . S
C916 C919 1.403 . S
H917 C923 0.930 . S
C918 H904 0.930 . S
C918 C916 1.395 . S
C918 C921 1.403 . S
C919 C916 1.403 . S
C919 C920 1.524 . S
C919 C923 1.400 . S
C920 H905 0.960 . S
C920 H906 0.960 . S
C920 H907 0.960 . S
C920 C919 1.524 . S
C921 C918 1.403 . S
C921 C922 1.392 . S
C921 C925 1.495 . S
C922 C921 1.392 . S
C922 C923 1.385 . S
C922 C924 1.478 . S
C923 H917 0.930 . S
C923 C919 1.400 . S
C923 C922 1.385 . S
C924 C922 1.478 . S
C924 C926 1.381 . S
C924 C930 1.383 . S
C925 C921 1.495 . S
C925 H931 0.959 . S
C925 H932 0.961 . S
C925 H933 0.960 . S
C926 C924 1.381 . S
C926 C927 1.394 . S
C926 H934 0.930 . S
C927 C926 1.394 . S
C927 C928 1.383 . S
C927 H935 0.929 . S
C928 C927 1.383 . S
C928 C929 1.377 . S
C929 H913 0.930 . S
C929 C928 1.377 . S
C929 C930 1.379 . S
C930 H914 0.931 . S
C930 C924 1.383 . S
C930 C929 1.379 . S
H931 C925 0.959 . S
H932 C925 0.961 . S
H933 C925 0.960 . S
H934 C926 0.930 . S
H935 C927 0.929 . S
H936 C944 0.929 . S
H937 C946 0.930 . S
H938 C948 0.930 . S
H939 C951 0.929 . S
H940 C954 0.930 . S
H941 C956 0.960 . S
H942 C956 0.960 . S
H943 C956 0.960 . S
C944 H936 0.929 . S
C944 C945 1.377 . S
C944 C946 1.384 . S
C945 C944 1.377 . S
C945 C951 1.390 . S
C946 H937 0.930 . S
C946 C944 1.384 . S
C946 C947 1.372 . S
C947 C946 1.372 . S
C947 C948 1.400 . S
C947 C952 1.490 . S
C948 H938 0.930 . S
C948 C947 1.400 . S
C948 C951 1.386 . S
H949 C965 0.930 . S
H950 C966 0.931 . S
C951 H939 0.929 . S
C951 C945 1.390 . S
C951 C948 1.386 . S
C952 C947 1.490 . S
C952 C954 1.395 . S
C952 C955 1.403 . S
H953 C959 0.930 . S
C954 H940 0.930 . S
C954 C952 1.395 . S
C954 C957 1.403 . S
C955 C952 1.403 . S
C955 C956 1.524 . S
C955 C959 1.400 . S
C956 H941 0.960 . S
C956 H942 0.960 . S
C956 H943 0.960 . S
C956 C955 1.524 . S
C957 C954 1.403 . S
C957 C958 1.392 . S
C957 C961 1.495 . S
C958 C957 1.392 . S
C958 C959 1.385 . S
C958 C960 1.478 . S
C959 H953 0.930 . S
C959 C955 1.400 . S
C959 C958 1.385 . S
C960 C958 1.478 . S
C960 C962 1.381 . S
C960 C966 1.383 . S
C961 C957 1.495 . S
C961 H967 0.959 . S
C961 H968 0.961 . S
C961 H969 0.960 . S
C962 C960 1.381 . S
C962 C963 1.394 . S
C962 H970 0.930 . S
C963 C962 1.394 . S
C963 C964 1.383 . S
C963 H971 0.929 . S
C964 C963 1.383 . S
C964 C965 1.377 . S
C965 H949 0.930 . S
C965 C964 1.377 . S
C965 C966 1.379 . S
C966 H950 0.931 . S
C966 C960 1.383 . S
C966 C965 1.379 . S
H967 C961 0.959 . S
H968 C961 0.961 . S
H969 C961 0.960 . S
H970 C962 0.930 . S
H971 C963 0.929 . S
H972 C980 0.929 . S
H973 C982 0.930 . S
H974 C984 0.930 . S
H975 C987 0.929 . S
H976 C990 0.930 . S
H977 C992 0.960 . S
H978 C992 0.960 . S
H979 C992 0.960 . S
C980 H972 0.929 . S
C980 C981 1.377 . S
C980 C982 1.384 . S
C981 C980 1.377 . S
C981 C987 1.390 . S
C982 H973 0.930 . S
C982 C980 1.384 . S
C982 C983 1.372 . S
C983 C982 1.372 . S
C983 C984 1.400 . S
C983 C988 1.490 . S
C984 H974 0.930 . S
C984 C983 1.400 . S
C984 C987 1.386 . S
H985 C1001 0.930 . S
H986 C1002 0.931 . S
C987 H975 0.929 . S
C987 C981 1.390 . S
C987 C984 1.386 . S
C988 C983 1.490 . S
C988 C990 1.395 . S
C988 C991 1.403 . S
H989 C995 0.930 . S
C990 H976 0.930 . S
C990 C988 1.395 . S
C990 C993 1.403 . S
C991 C988 1.403 . S
C991 C992 1.524 . S
C991 C995 1.400 . S
C992 H977 0.960 . S
C992 H978 0.960 . S
C992 H979 0.960 . S
C992 C991 1.524 . S
C993 C990 1.403 . S
C993 C994 1.392 . S
C993 C997 1.495 . S
C994 C993 1.392 . S
C994 C995 1.385 . S
C994 C996 1.478 . S
C995 H989 0.930 . S
C995 C991 1.400 . S
C995 C994 1.385 . S
C996 C994 1.478 . S
C996 C998 1.381 . S
C996 C1002 1.383 . S
C997 C993 1.495 . S
C997 H1003 0.959 . S
C997 H1004 0.961 . S
C997 H1005 0.960 . S
C998 C996 1.381 . S
C998 C999 1.394 . S
C998 H1006 0.930 . S
C999 C998 1.394 . S
C999 C1000 1.383 . S
C999 H1007 0.929 . S
C1000 C999 1.383 . S
C1000 C1001 1.377 . S
C1001 H985 0.930 . S
C1001 C1000 1.377 . S
C1001 C1002 1.379 . S
C1002 H986 0.931 . S
C1002 C996 1.383 . S
C1002 C1001 1.379 . S
H1003 C997 0.959 . S
H1004 C997 0.961 . S
H1005 C997 0.960 . S
H1006 C998 0.930 . S
H1007 C999 0.929 . S
H1008 C1016 0.929 . S
H1009 C1018 0.930 . S
H1010 C1020 0.930 . S
H1011 C1023 0.929 . S
H1012 C1026 0.930 . S
H1013 C1028 0.960 . S
H1014 C1028 0.960 . S
H1015 C1028 0.960 . S
C1016 H1008 0.929 . S
C1016 C1017 1.377 . S
C1016 C1018 1.384 . S
C1017 C1016 1.377 . S
C1017 C1023 1.390 . S
C1018 H1009 0.930 . S
C1018 C1016 1.384 . S
C1018 C1019 1.372 . S
C1019 C1018 1.372 . S
C1019 C1020 1.400 . S
C1019 C1024 1.490 . S
C1020 H1010 0.930 . S
C1020 C1019 1.400 . S
C1020 C1023 1.386 . S
H1021 C1037 0.930 . S
H1022 C1038 0.931 . S
C1023 H1011 0.929 . S
C1023 C1017 1.390 . S
C1023 C1020 1.386 . S
C1024 C1019 1.490 . S
C1024 C1026 1.395 . S
C1024 C1027 1.403 . S
H1025 C1031 0.930 . S
C1026 H1012 0.930 . S
C1026 C1024 1.395 . S
C1026 C1029 1.403 . S
C1027 C1024 1.403 . S
C1027 C1028 1.524 . S
C1027 C1031 1.400 . S
C1028 H1013 0.960 . S
C1028 H1014 0.960 . S
C1028 H1015 0.960 . S
C1028 C1027 1.524 . S
C1029 C1026 1.403 . S
C1029 C1030 1.392 . S
C1029 C1033 1.495 1_455 S
C1030 C1029 1.392 . S
C1030 C1031 1.385 . S
C1030 C1032 1.478 . S
C1031 H1025 0.930 . S
C1031 C1027 1.400 . S
C1031 C1030 1.385 . S
C1032 C1030 1.478 . S
C1032 C1034 1.381 . S
C1032 C1038 1.383 . S
C1033 C1029 1.495 1_655 S
C1033 H1039 0.959 . S
C1033 H1040 0.961 . S
C1033 H1041 0.960 . S
C1034 C1032 1.381 . S
C1034 C1035 1.394 . S
C1034 H1042 0.930 . S
C1035 C1034 1.394 . S
C1035 C1036 1.383 . S
C1035 H1043 0.929 . S
C1036 C1035 1.383 . S
C1036 C1037 1.377 . S
C1037 H1021 0.930 . S
C1037 C1036 1.377 . S
C1037 C1038 1.379 . S
C1038 H1022 0.931 . S
C1038 C1032 1.383 . S
C1038 C1037 1.379 . S
H1039 C1033 0.959 . S
H1040 C1033 0.961 . S
H1041 C1033 0.960 . S
H1042 C1034 0.930 . S
H1043 C1035 0.929 . S
H1044 C1052 0.929 . S
H1045 C1054 0.930 . S
H1046 C1056 0.930 . S
H1047 C1059 0.929 . S
H1048 C1062 0.930 . S
H1049 C1064 0.960 . S
H1050 C1064 0.960 . S
H1051 C1064 0.960 . S
C1052 H1044 0.929 . S
C1052 C1053 1.377 . S
C1052 C1054 1.384 . S
C1053 C1052 1.377 . S
C1053 C1059 1.390 . S
C1054 H1045 0.930 . S
C1054 C1052 1.384 . S
C1054 C1055 1.372 . S
C1055 C1054 1.372 . S
C1055 C1056 1.400 . S
C1055 C1060 1.490 . S
C1056 H1046 0.930 . S
C1056 C1055 1.400 . S
C1056 C1059 1.386 . S
H1057 C1073 0.930 . S
H1058 C1074 0.931 . S
C1059 H1047 0.929 . S
C1059 C1053 1.390 . S
C1059 C1056 1.386 . S
C1060 C1055 1.490 . S
C1060 C1062 1.395 . S
C1060 C1063 1.403 . S
H1061 C1067 0.930 . S
C1062 H1048 0.930 . S
C1062 C1060 1.395 . S
C1062 C1065 1.403 . S
C1063 C1060 1.403 . S
C1063 C1064 1.524 . S
C1063 C1067 1.400 . S
C1064 H1049 0.960 . S
C1064 H1050 0.960 . S
C1064 H1051 0.960 . S
C1064 C1063 1.524 . S
C1065 C1062 1.403 . S
C1065 C1066 1.392 . S
C1065 C1069 1.495 . S
C1066 C1065 1.392 . S
C1066 C1067 1.385 . S
C1066 C1068 1.478 . S
C1067 H1061 0.930 . S
C1067 C1063 1.400 . S
C1067 C1066 1.385 . S
C1068 C1066 1.478 . S
C1068 C1070 1.381 . S
C1068 C1074 1.383 . S
C1069 C1065 1.495 . S
C1069 H1075 0.959 . S
C1069 H1076 0.961 . S
C1069 H1077 0.960 . S
C1070 C1068 1.381 . S
C1070 C1071 1.394 . S
C1070 H1078 0.930 . S
C1071 C1070 1.394 . S
C1071 C1072 1.383 . S
C1071 H1079 0.929 . S
C1072 C1071 1.383 . S
C1072 C1073 1.377 . S
C1073 H1057 0.930 . S
C1073 C1072 1.377 . S
C1073 C1074 1.379 . S
C1074 H1058 0.931 . S
C1074 C1068 1.383 . S
C1074 C1073 1.379 . S
H1075 C1069 0.959 . S
H1076 C1069 0.961 . S
H1077 C1069 0.960 . S
H1078 C1070 0.930 . S
H1079 C1071 0.929 . S
H1080 C1088 0.929 . S
H1081 C1090 0.930 . S
H1082 C1092 0.930 . S
H1083 C1095 0.929 . S
H1084 C1098 0.930 1_565 S
H1085 C1100 0.960 . S
H1086 C1100 0.960 . S
H1087 C1100 0.960 . S
C1088 H1080 0.929 . S
C1088 C1089 1.377 . S
C1088 C1090 1.384 . S
C1089 C1088 1.377 . S
C1089 C1095 1.390 . S
C1090 H1081 0.930 . S
C1090 C1088 1.384 . S
C1090 C1091 1.372 . S
C1091 C1090 1.372 . S
C1091 C1092 1.400 . S
C1091 C1096 1.490 . S
C1092 H1082 0.930 . S
C1092 C1091 1.400 . S
C1092 C1095 1.386 . S
H1093 C1109 0.930 . S
H1094 C1110 0.931 . S
C1095 H1083 0.929 . S
C1095 C1089 1.390 . S
C1095 C1092 1.386 . S
C1096 C1091 1.490 . S
C1096 C1098 1.395 . S
C1096 C1099 1.403 . S
H1097 C1103 0.930 . S
C1098 H1084 0.930 1_545 S
C1098 C1096 1.395 . S
C1098 C1101 1.403 . S
C1099 C1096 1.403 . S
C1099 C1100 1.524 . S
C1099 C1103 1.400 . S
C1100 H1085 0.960 . S
C1100 H1086 0.960 . S
C1100 H1087 0.960 . S
C1100 C1099 1.524 . S
C1101 C1098 1.403 . S
C1101 C1102 1.392 . S
C1101 C1105 1.495 1_545 S
C1102 C1101 1.392 . S
C1102 C1103 1.385 . S
C1102 C1104 1.478 . S
C1103 H1097 0.930 . S
C1103 C1099 1.400 . S
C1103 C1102 1.385 . S
C1104 C1102 1.478 . S
C1104 C1106 1.381 . S
C1104 C1110 1.383 . S
C1105 C1101 1.495 1_565 S
C1105 H1111 0.959 . S
C1105 H1112 0.961 . S
C1105 H1113 0.960 . S
C1106 C1104 1.381 . S
C1106 C1107 1.394 . S
C1106 H1114 0.930 . S
C1107 C1106 1.394 . S
C1107 C1108 1.383 . S
C1107 H1115 0.929 . S
C1108 C1107 1.383 . S
C1108 C1109 1.377 . S
C1109 H1093 0.930 . S
C1109 C1108 1.377 . S
C1109 C1110 1.379 . S
C1110 H1094 0.931 . S
C1110 C1104 1.383 . S
C1110 C1109 1.379 . S
H1111 C1105 0.959 . S
H1112 C1105 0.961 . S
H1113 C1105 0.960 . S
H1114 C1106 0.930 . S
H1115 C1107 0.929 . S
H1116 C1124 0.929 . S
H1117 C1126 0.930 . S
H1118 C1128 0.930 . S
H1119 C1131 0.929 . S
H1120 C1134 0.930 . S
H1121 C1136 0.960 . S
H1122 C1136 0.960 . S
H1123 C1136 0.960 . S
C1124 H1116 0.929 . S
C1124 C1125 1.377 . S
C1124 C1126 1.384 . S
C1125 C1124 1.377 . S
C1125 C1131 1.390 . S
C1126 H1117 0.930 . S
C1126 C1124 1.384 . S
C1126 C1127 1.372 . S
C1127 C1126 1.372 . S
C1127 C1128 1.400 . S
C1127 C1132 1.490 . S
C1128 H1118 0.930 . S
C1128 C1127 1.400 . S
C1128 C1131 1.386 . S
H1129 C1145 0.930 . S
H1130 C1146 0.931 . S
C1131 H1119 0.929 . S
C1131 C1125 1.390 . S
C1131 C1128 1.386 . S
C1132 C1127 1.490 . S
C1132 C1134 1.395 . S
C1132 C1135 1.403 . S
H1133 C1139 0.930 . S
C1134 H1120 0.930 . S
C1134 C1132 1.395 . S
C1134 C1137 1.403 . S
C1135 C1132 1.403 . S
C1135 C1136 1.524 . S
C1135 C1139 1.400 . S
C1136 H1121 0.960 . S
C1136 H1122 0.960 . S
C1136 H1123 0.960 . S
C1136 C1135 1.524 . S
C1137 C1134 1.403 . S
C1137 C1138 1.392 . S
C1137 C1141 1.495 . S
C1138 C1137 1.392 . S
C1138 C1139 1.385 . S
C1138 C1140 1.478 . S
C1139 H1133 0.930 . S
C1139 C1135 1.400 . S
C1139 C1138 1.385 . S
C1140 C1138 1.478 . S
C1140 C1142 1.381 . S
C1140 C1146 1.383 . S
C1141 C1137 1.495 . S
C1141 H1147 0.959 . S
C1141 H1148 0.961 . S
C1141 H1149 0.960 . S
C1142 C1140 1.381 . S
C1142 C1143 1.394 . S
C1142 H1150 0.930 . S
C1143 C1142 1.394 . S
C1143 C1144 1.383 1_556 S
C1143 H1151 0.929 1_556 S
C1144 C1143 1.383 1_554 S
C1144 C1145 1.377 . S
C1145 H1129 0.930 . S
C1145 C1144 1.377 . S
C1145 C1146 1.379 1_554 S
C1146 H1130 0.931 . S
C1146 C1140 1.383 . S
C1146 C1145 1.379 1_556 S
H1147 C1141 0.959 . S
H1148 C1141 0.961 . S
H1149 C1141 0.960 . S
H1150 C1142 0.930 . S
H1151 C1143 0.929 1_554 S
H1152 C1160 0.929 . S
H1153 C1162 0.930 . S
H1154 C1164 0.930 . S
H1155 C1167 0.929 . S
H1156 C1170 0.930 . S
H1157 C1172 0.960 . S
H1158 C1172 0.960 . S
H1159 C1172 0.960 . S
C1160 H1152 0.929 . S
C1160 C1161 1.377 . S
C1160 C1162 1.384 . S
C1161 C1160 1.377 . S
C1161 C1167 1.390 . S
C1162 H1153 0.930 . S
C1162 C1160 1.384 . S
C1162 C1163 1.372 . S
C1163 C1162 1.372 . S
C1163 C1164 1.400 . S
C1163 C1168 1.490 . S
C1164 H1154 0.930 . S
C1164 C1163 1.400 . S
C1164 C1167 1.386 . S
H1165 C1181 0.930 . S
H1166 C1182 0.931 . S
C1167 H1155 0.929 . S
C1167 C1161 1.390 . S
C1167 C1164 1.386 . S
C1168 C1163 1.490 . S
C1168 C1170 1.395 . S
C1168 C1171 1.403 . S
H1169 C1175 0.930 . S
C1170 H1156 0.930 . S
C1170 C1168 1.395 . S
C1170 C1173 1.403 . S
C1171 C1168 1.403 . S
C1171 C1172 1.524 . S
C1171 C1175 1.400 . S
C1172 H1157 0.960 . S
C1172 H1158 0.960 . S
C1172 H1159 0.960 . S
C1172 C1171 1.524 . S
C1173 C1170 1.403 . S
C1173 C1174 1.392 . S
C1173 C1177 1.495 . S
C1174 C1173 1.392 . S
C1174 C1175 1.385 . S
C1174 C1176 1.478 . S
C1175 H1169 0.930 . S
C1175 C1171 1.400 . S
C1175 C1174 1.385 . S
C1176 C1174 1.478 . S
C1176 C1178 1.381 . S
C1176 C1182 1.383 . S
C1177 C1173 1.495 . S
C1177 H1183 0.959 . S
C1177 H1184 0.961 . S
C1177 H1185 0.960 . S
C1178 C1176 1.381 . S
C1178 C1179 1.394 . S
C1178 H1186 0.930 . S
C1179 C1178 1.394 . S
C1179 C1180 1.383 1_556 S
C1179 H1187 0.929 1_556 S
C1180 C1179 1.383 1_554 S
C1180 C1181 1.377 1_554 S
C1181 H1165 0.930 . S
C1181 C1180 1.377 1_556 S
C1181 C1182 1.379 . S
C1182 H1166 0.931 . S
C1182 C1176 1.383 . S
C1182 C1181 1.379 . S
H1183 C1177 0.959 . S
H1184 C1177 0.961 . S
H1185 C1177 0.960 . S
H1186 C1178 0.930 . S
H1187 C1179 0.929 1_554 S
H1188 C1196 0.929 . S
H1189 C1198 0.930 . S
H1190 C1200 0.930 . S
H1191 C1203 0.929 . S
H1192 C1206 0.930 . S
H1193 C1208 0.960 . S
H1194 C1208 0.960 . S
H1195 C1208 0.960 . S
C1196 H1188 0.929 . S
C1196 C1197 1.377 . S
C1196 C1198 1.384 . S
C1197 C1196 1.377 . S
C1197 C1203 1.390 . S
C1198 H1189 0.930 . S
C1198 C1196 1.384 . S
C1198 C1199 1.372 . S
C1199 C1198 1.372 . S
C1199 C1200 1.400 . S
C1199 C1204 1.490 . S
C1200 H1190 0.930 . S
C1200 C1199 1.400 . S
C1200 C1203 1.386 . S
H1201 C1217 0.930 . S
H1202 C1218 0.931 . S
C1203 H1191 0.929 . S
C1203 C1197 1.390 . S
C1203 C1200 1.386 . S
C1204 C1199 1.490 . S
C1204 C1206 1.395 . S
C1204 C1207 1.403 . S
H1205 C1211 0.930 . S
C1206 H1192 0.930 . S
C1206 C1204 1.395 . S
C1206 C1209 1.403 . S
C1207 C1204 1.403 . S
C1207 C1208 1.524 . S
C1207 C1211 1.400 . S
C1208 H1193 0.960 . S
C1208 H1194 0.960 . S
C1208 H1195 0.960 . S
C1208 C1207 1.524 . S
C1209 C1206 1.403 . S
C1209 C1210 1.392 . S
C1209 C1213 1.495 . S
C1210 C1209 1.392 . S
C1210 C1211 1.385 . S
C1210 C1212 1.478 . S
C1211 H1205 0.930 . S
C1211 C1207 1.400 . S
C1211 C1210 1.385 . S
C1212 C1210 1.478 . S
C1212 C1214 1.381 . S
C1212 C1218 1.383 . S
C1213 C1209 1.495 . S
C1213 H1219 0.959 . S
C1213 H1220 0.961 . S
C1213 H1221 0.960 . S
C1214 C1212 1.381 . S
C1214 C1215 1.394 1_556 S
C1214 H1222 0.930 . S
C1215 C1214 1.394 1_554 S
C1215 C1216 1.383 . S
C1215 H1223 0.929 . S
C1216 C1215 1.383 . S
C1216 C1217 1.377 . S
C1217 H1201 0.930 . S
C1217 C1216 1.377 . S
C1217 C1218 1.379 1_554 S
C1218 H1202 0.931 . S
C1218 C1212 1.383 . S
C1218 C1217 1.379 1_556 S
H1219 C1213 0.959 . S
H1220 C1213 0.961 . S
H1221 C1213 0.960 . S
H1222 C1214 0.930 . S
H1223 C1215 0.929 . S
H1224 C1232 0.929 . S
H1225 C1234 0.930 . S
H1226 C1236 0.930 . S
H1227 C1239 0.929 . S
H1228 C1242 0.930 . S
H1229 C1244 0.960 . S
H1230 C1244 0.960 . S
H1231 C1244 0.960 . S
C1232 H1224 0.929 . S
C1232 C1233 1.377 . S
C1232 C1234 1.384 . S
C1233 C1232 1.377 . S
C1233 C1239 1.390 . S
C1234 H1225 0.930 . S
C1234 C1232 1.384 . S
C1234 C1235 1.372 . S
C1235 C1234 1.372 . S
C1235 C1236 1.400 . S
C1235 C1240 1.490 . S
C1236 H1226 0.930 . S
C1236 C1235 1.400 . S
C1236 C1239 1.386 . S
H1237 C1253 0.930 . S
H1238 C1254 0.931 . S
C1239 H1227 0.929 . S
C1239 C1233 1.390 . S
C1239 C1236 1.386 . S
C1240 C1235 1.490 . S
C1240 C1242 1.395 . S
C1240 C1243 1.403 . S
H1241 C1247 0.930 . S
C1242 H1228 0.930 . S
C1242 C1240 1.395 . S
C1242 C1245 1.403 . S
C1243 C1240 1.403 . S
C1243 C1244 1.524 . S
C1243 C1247 1.400 . S
C1244 H1229 0.960 . S
C1244 H1230 0.960 . S
C1244 H1231 0.960 . S
C1244 C1243 1.524 . S
C1245 C1242 1.403 . S
C1245 C1246 1.392 . S
C1245 C1249 1.495 . S
C1246 C1245 1.392 . S
C1246 C1247 1.385 . S
C1246 C1248 1.478 . S
C1247 H1241 0.930 . S
C1247 C1243 1.400 . S
C1247 C1246 1.385 . S
C1248 C1246 1.478 . S
C1248 C1250 1.381 . S
C1248 C1254 1.383 . S
C1249 C1245 1.495 . S
C1249 H1255 0.959 . S
C1249 H1256 0.961 . S
C1249 H1257 0.960 . S
C1250 C1248 1.381 . S
C1250 C1251 1.394 1_554 S
C1250 H1258 0.930 . S
C1251 C1250 1.394 1_556 S
C1251 C1252 1.383 . S
C1251 H1259 0.929 . S
C1252 C1251 1.383 . S
C1252 C1253 1.377 . S
C1253 H1237 0.930 . S
C1253 C1252 1.377 . S
C1253 C1254 1.379 1_556 S
C1254 H1238 0.931 . S
C1254 C1248 1.383 . S
C1254 C1253 1.379 1_554 S
H1255 C1249 0.959 . S
H1256 C1249 0.961 . S
H1257 C1249 0.960 . S
H1258 C1250 0.930 . S
H1259 C1251 0.929 . S
H1260 C1268 0.929 . S
H1261 C1270 0.930 . S
H1262 C1272 0.930 . S
H1263 C1275 0.929 . S
H1264 C1278 0.930 . S
H1265 C1280 0.960 . S
H1266 C1280 0.960 . S
H1267 C1280 0.960 . S
C1268 H1260 0.929 . S
C1268 C1269 1.377 . S
C1268 C1270 1.384 1_556 S
C1269 C1268 1.377 . S
C1269 C1275 1.390 . S
C1270 H1261 0.930 . S
C1270 C1268 1.384 1_554 S
C1270 C1271 1.372 . S
C1271 C1270 1.372 . S
C1271 C1272 1.400 . S
C1271 C1276 1.490 . S
C1272 H1262 0.930 . S
C1272 C1271 1.400 . S
C1272 C1275 1.386 1_554 S
H1273 C1289 0.930 . S
H1274 C1290 0.931 . S
C1275 H1263 0.929 . S
C1275 C1269 1.390 . S
C1275 C1272 1.386 1_556 S
C1276 C1271 1.490 . S
C1276 C1278 1.395 . S
C1276 C1279 1.403 . S
H1277 C1283 0.930 . S
C1278 H1264 0.930 . S
C1278 C1276 1.395 . S
C1278 C1281 1.403 . S
C1279 C1276 1.403 . S
C1279 C1280 1.524 . S
C1279 C1283 1.400 . S
C1280 H1265 0.960 . S
C1280 H1266 0.960 . S
C1280 H1267 0.960 . S
C1280 C1279 1.524 . S
C1281 C1278 1.403 . S
C1281 C1282 1.392 . S
C1281 C1285 1.495 . S
C1282 C1281 1.392 . S
C1282 C1283 1.385 . S
C1282 C1284 1.478 . S
C1283 H1277 0.930 . S
C1283 C1279 1.400 . S
C1283 C1282 1.385 . S
C1284 C1282 1.478 . S
C1284 C1286 1.381 . S
C1284 C1290 1.383 . S
C1285 C1281 1.495 . S
C1285 H1291 0.959 . S
C1285 H1292 0.961 . S
C1285 H1293 0.960 . S
C1286 C1284 1.381 . S
C1286 C1287 1.394 . S
C1286 H1294 0.930 . S
C1287 C1286 1.394 . S
C1287 C1288 1.383 . S
C1287 H1295 0.929 . S
C1288 C1287 1.383 . S
C1288 C1289 1.377 . S
C1289 H1273 0.930 . S
C1289 C1288 1.377 . S
C1289 C1290 1.379 . S
C1290 H1274 0.931 . S
C1290 C1284 1.383 . S
C1290 C1289 1.379 . S
H1291 C1285 0.959 . S
H1292 C1285 0.961 . S
H1293 C1285 0.960 . S
H1294 C1286 0.930 . S
H1295 C1287 0.929 . S
H1296 C1304 0.929 . S
H1297 C1306 0.930 . S
H1298 C1308 0.930 . S
H1299 C1311 0.929 . S
H1300 C1314 0.930 . S
H1301 C1316 0.960 . S
H1302 C1316 0.960 . S
H1303 C1316 0.960 . S
C1304 H1296 0.929 . S
C1304 C1305 1.377 . S
C1304 C1306 1.384 . S
C1305 C1304 1.377 . S
C1305 C1311 1.390 . S
C1306 H1297 0.930 . S
C1306 C1304 1.384 . S
C1306 C1307 1.372 . S
C1307 C1306 1.372 . S
C1307 C1308 1.400 . S
C1307 C1312 1.490 . S
C1308 H1298 0.930 . S
C1308 C1307 1.400 . S
C1308 C1311 1.386 . S
H1309 C1325 0.930 . S
H1310 C1326 0.931 . S
C1311 H1299 0.929 . S
C1311 C1305 1.390 . S
C1311 C1308 1.386 . S
C1312 C1307 1.490 . S
C1312 C1314 1.395 . S
C1312 C1315 1.403 . S
H1313 C1319 0.930 . S
C1314 H1300 0.930 . S
C1314 C1312 1.395 . S
C1314 C1317 1.403 . S
C1315 C1312 1.403 . S
C1315 C1316 1.524 . S
C1315 C1319 1.400 . S
C1316 H1301 0.960 . S
C1316 H1302 0.960 . S
C1316 H1303 0.960 . S
C1316 C1315 1.524 . S
C1317 C1314 1.403 . S
C1317 C1318 1.392 . S
C1317 C1321 1.495 . S
C1318 C1317 1.392 . S
C1318 C1319 1.385 . S
C1318 C1320 1.478 . S
C1319 H1313 0.930 . S
C1319 C1315 1.400 . S
C1319 C1318 1.385 . S
C1320 C1318 1.478 . S
C1320 C1322 1.381 . S
C1320 C1326 1.383 . S
C1321 C1317 1.495 . S
C1321 H1327 0.959 . S
C1321 H1328 0.961 . S
C1321 H1329 0.960 . S
C1322 C1320 1.381 . S
C1322 C1323 1.394 1_554 S
C1322 H1330 0.930 . S
C1323 C1322 1.394 1_556 S
C1323 C1324 1.383 . S
C1323 H1331 0.929 . S
C1324 C1323 1.383 . S
C1324 C1325 1.377 . S
C1325 H1309 0.930 . S
C1325 C1324 1.377 . S
C1325 C1326 1.379 1_556 S
C1326 H1310 0.931 . S
C1326 C1320 1.383 . S
C1326 C1325 1.379 1_554 S
H1327 C1321 0.959 . S
H1328 C1321 0.961 . S
H1329 C1321 0.960 . S
H1330 C1322 0.930 . S
H1331 C1323 0.929 . S
C369 C6 1.492 . S
C388 C286 1.511 . S
C405 C50 2.717 1_556 S
C424 C330 2.745 . S
C441 C86 1.891 . S
C460 C250 1.845 . S
C477 C170 3.075 . S
C496 C90 3.038 . S
C513 C210 2.870 . S
C532 C10 2.877 1_655 S
C549 C46 2.632 . S
C568 C130 2.594 . S
C585 C290 1.859 . S
C604 C206 1.882 . S
C621 C326 1.557 . S
C640 C126 1.556 . S
C657 C166 1.585 . S
C676 C246 1.575 . S
C693 C95 1.834 . S
C712 C19 1.859 . S
C729 C55 1.308 . S
C748 C15 1.324 . S
C765 C59 3.334 . S
C784 C99 3.297 1_565 S
C801 C135 1.877 . S
C820 C219 1.864 . S
C837 C139 1.962 . S
C856 C175 1.981 . S
C873 C179 1.667 . S
C892 C215 1.683 . S
C909 C335 1.956 . S
C928 C259 1.981 . S
C945 C295 0.641 . S
C964 C255 0.651 . S
C981 C339 2.215 . S
C1000 C299 2.252 . S
C1017 C18 0.870 . S
C1036 C9 0.902 . S
C1053 C49 0.850 . S
C1072 C58 0.816 . S
C1089 C98 0.852 . S
C1108 C89 0.812 . S
C1125 C138 0.886 . S
C1144 C129 0.888 . S
C1161 C178 0.865 . S
C1180 C169 0.874 . S
C1197 C218 0.849 . S
C1216 C209 0.835 . S
C1233 C258 0.881 . S
C1252 C249 0.853 . S
C1269 C298 0.869 . S
C1288 C289 0.895 . S
C1305 C338 0.863 . S
C1324 C329 0.896 . S
