# Generated by pormake.
# Topology wio, (6)-cn, num edge types: 1
# Building blocks:
#     Node 0, Type 0, BuildingBlock: BETDIP_clean_sbu_0, # of connection points: 6
#     Node 1, Type 0, BuildingBlock: BETDIP_clean_sbu_0, # of connection points: 6
#     Node 2, Type 0, BuildingBlock: BETDIP_clean_sbu_0, # of connection points: 6
#     Node 3, Type 0, BuildingBlock: BETDIP_clean_sbu_0, # of connection points: 6
#     Node 4, Type 0, BuildingBlock: BETDIP_clean_sbu_0, # of connection points: 6
#     Node 5, Type 0, BuildingBlock: BETDIP_clean_sbu_0, # of connection points: 6
#     Node 6, Type 0, BuildingBlock: BETDIP_clean_sbu_0, # of connection points: 6
#     Node 7, Type 0, BuildingBlock: BETDIP_clean_sbu_0, # of connection points: 6
#     Node 8, Type 0, BuildingBlock: BETDIP_clean_sbu_0, # of connection points: 6
#     Node 9, Type 0, BuildingBlock: BETDIP_clean_sbu_0, # of connection points: 6
#     Node 10, Type 0, BuildingBlock: BETDIP_clean_sbu_0, # of connection points: 6
#     Node 11, Type 0, BuildingBlock: BETDIP_clean_sbu_0, # of connection points: 6
#     Node 12, Type 0, BuildingBlock: BETDIP_clean_sbu_0, # of connection points: 6
#     Node 13, Type 0, BuildingBlock: BETDIP_clean_sbu_0, # of connection points: 6
#     Node 14, Type 0, BuildingBlock: BETDIP_clean_sbu_0, # of connection points: 6
#     Node 15, Type 0, BuildingBlock: BETDIP_clean_sbu_0, # of connection points: 6
#     Node 16, Type 0, BuildingBlock: BETDIP_clean_sbu_0, # of connection points: 6
#     Node 17, Type 0, BuildingBlock: BETDIP_clean_sbu_0, # of connection points: 6
#     Node 18, Type 0, BuildingBlock: BETDIP_clean_sbu_0, # of connection points: 6
#     Node 19, Type 0, BuildingBlock: BETDIP_clean_sbu_0, # of connection points: 6
#     Node 20, Type 0, BuildingBlock: BETDIP_clean_sbu_0, # of connection points: 6
#     Node 21, Type 0, BuildingBlock: BETDIP_clean_sbu_0, # of connection points: 6
#     Node 22, Type 0, BuildingBlock: BETDIP_clean_sbu_0, # of connection points: 6
#     Node 23, Type 0, BuildingBlock: BETDIP_clean_sbu_0, # of connection points: 6
#     Node 24, Type 0, BuildingBlock: BETDIP_clean_sbu_0, # of connection points: 6
#     Node 25, Type 0, BuildingBlock: BETDIP_clean_sbu_0, # of connection points: 6
#     Node 26, Type 0, BuildingBlock: BETDIP_clean_sbu_0, # of connection points: 6
#     Node 27, Type 0, BuildingBlock: BETDIP_clean_sbu_0, # of connection points: 6
#     Node 28, Type 0, BuildingBlock: BETDIP_clean_sbu_0, # of connection points: 6
#     Node 29, Type 0, BuildingBlock: BETDIP_clean_sbu_0, # of connection points: 6
#     Node 30, Type 0, BuildingBlock: BETDIP_clean_sbu_0, # of connection points: 6
#     Node 31, Type 0, BuildingBlock: BETDIP_clean_sbu_0, # of connection points: 6
#     Edge 32, Type (0, 0), BuildingBlock: EZIPEK_clean_linker_0, # of connection points: 2
#     Edge 33, Type (0, 0), BuildingBlock: EZIPEK_clean_linker_0, # of connection points: 2
#     Edge 34, Type (0, 0), BuildingBlock: EZIPEK_clean_linker_0, # of connection points: 2
#     Edge 35, Type (0, 0), BuildingBlock: EZIPEK_clean_linker_0, # of connection points: 2
#     Edge 36, Type (0, 0), BuildingBlock: EZIPEK_clean_linker_0, # of connection points: 2
#     Edge 37, Type (0, 0), BuildingBlock: EZIPEK_clean_linker_0, # of connection points: 2
#     Edge 38, Type (0, 0), BuildingBlock: EZIPEK_clean_linker_0, # of connection points: 2
#     Edge 39, Type (0, 0), BuildingBlock: EZIPEK_clean_linker_0, # of connection points: 2
#     Edge 40, Type (0, 0), BuildingBlock: EZIPEK_clean_linker_0, # of connection points: 2
#     Edge 41, Type (0, 0), BuildingBlock: EZIPEK_clean_linker_0, # of connection points: 2
#     Edge 42, Type (0, 0), BuildingBlock: EZIPEK_clean_linker_0, # of connection points: 2
#     Edge 43, Type (0, 0), BuildingBlock: EZIPEK_clean_linker_0, # of connection points: 2
#     Edge 44, Type (0, 0), BuildingBlock: EZIPEK_clean_linker_0, # of connection points: 2
#     Edge 45, Type (0, 0), BuildingBlock: EZIPEK_clean_linker_0, # of connection points: 2
#     Edge 46, Type (0, 0), BuildingBlock: EZIPEK_clean_linker_0, # of connection points: 2
#     Edge 47, Type (0, 0), BuildingBlock: EZIPEK_clean_linker_0, # of connection points: 2
#     Edge 48, Type (0, 0), BuildingBlock: EZIPEK_clean_linker_0, # of connection points: 2
#     Edge 49, Type (0, 0), BuildingBlock: EZIPEK_clean_linker_0, # of connection points: 2
#     Edge 50, Type (0, 0), BuildingBlock: EZIPEK_clean_linker_0, # of connection points: 2
#     Edge 51, Type (0, 0), BuildingBlock: EZIPEK_clean_linker_0, # of connection points: 2
#     Edge 52, Type (0, 0), BuildingBlock: EZIPEK_clean_linker_0, # of connection points: 2
#     Edge 53, Type (0, 0), BuildingBlock: EZIPEK_clean_linker_0, # of connection points: 2
#     Edge 54, Type (0, 0), BuildingBlock: EZIPEK_clean_linker_0, # of connection points: 2
#     Edge 55, Type (0, 0), BuildingBlock: EZIPEK_clean_linker_0, # of connection points: 2
#     Edge 56, Type (0, 0), BuildingBlock: EZIPEK_clean_linker_0, # of connection points: 2
#     Edge 57, Type (0, 0), BuildingBlock: EZIPEK_clean_linker_0, # of connection points: 2
#     Edge 58, Type (0, 0), BuildingBlock: EZIPEK_clean_linker_0, # of connection points: 2
#     Edge 59, Type (0, 0), BuildingBlock: EZIPEK_clean_linker_0, # of connection points: 2
#     Edge 60, Type (0, 0), BuildingBlock: EZIPEK_clean_linker_0, # of connection points: 2
#     Edge 61, Type (0, 0), BuildingBlock: EZIPEK_clean_linker_0, # of connection points: 2
#     Edge 62, Type (0, 0), BuildingBlock: EZIPEK_clean_linker_0, # of connection points: 2
#     Edge 63, Type (0, 0), BuildingBlock: EZIPEK_clean_linker_0, # of connection points: 2
#     Edge 64, Type (0, 0), BuildingBlock: EZIPEK_clean_linker_0, # of connection points: 2
#     Edge 65, Type (0, 0), BuildingBlock: EZIPEK_clean_linker_0, # of connection points: 2
#     Edge 66, Type (0, 0), BuildingBlock: EZIPEK_clean_linker_0, # of connection points: 2
#     Edge 67, Type (0, 0), BuildingBlock: EZIPEK_clean_linker_0, # of connection points: 2
#     Edge 68, Type (0, 0), BuildingBlock: EZIPEK_clean_linker_0, # of connection points: 2
#     Edge 69, Type (0, 0), BuildingBlock: EZIPEK_clean_linker_0, # of connection points: 2
#     Edge 70, Type (0, 0), BuildingBlock: EZIPEK_clean_linker_0, # of connection points: 2
#     Edge 71, Type (0, 0), BuildingBlock: EZIPEK_clean_linker_0, # of connection points: 2
#     Edge 72, Type (0, 0), BuildingBlock: EZIPEK_clean_linker_0, # of connection points: 2
#     Edge 73, Type (0, 0), BuildingBlock: EZIPEK_clean_linker_0, # of connection points: 2
#     Edge 74, Type (0, 0), BuildingBlock: EZIPEK_clean_linker_0, # of connection points: 2
#     Edge 75, Type (0, 0), BuildingBlock: EZIPEK_clean_linker_0, # of connection points: 2
#     Edge 76, Type (0, 0), BuildingBlock: EZIPEK_clean_linker_0, # of connection points: 2
#     Edge 77, Type (0, 0), BuildingBlock: EZIPEK_clean_linker_0, # of connection points: 2
#     Edge 78, Type (0, 0), BuildingBlock: EZIPEK_clean_linker_0, # of connection points: 2
#     Edge 79, Type (0, 0), BuildingBlock: EZIPEK_clean_linker_0, # of connection points: 2
#     Edge 80, Type (0, 0), BuildingBlock: EZIPEK_clean_linker_0, # of connection points: 2
#     Edge 81, Type (0, 0), BuildingBlock: EZIPEK_clean_linker_0, # of connection points: 2
#     Edge 82, Type (0, 0), BuildingBlock: EZIPEK_clean_linker_0, # of connection points: 2
#     Edge 83, Type (0, 0), BuildingBlock: EZIPEK_clean_linker_0, # of connection points: 2
#     Edge 84, Type (0, 0), BuildingBlock: EZIPEK_clean_linker_0, # of connection points: 2
#     Edge 85, Type (0, 0), BuildingBlock: EZIPEK_clean_linker_0, # of connection points: 2
#     Edge 86, Type (0, 0), BuildingBlock: EZIPEK_clean_linker_0, # of connection points: 2
#     Edge 87, Type (0, 0), BuildingBlock: EZIPEK_clean_linker_0, # of connection points: 2
#     Edge 88, Type (0, 0), BuildingBlock: EZIPEK_clean_linker_0, # of connection points: 2
#     Edge 89, Type (0, 0), BuildingBlock: EZIPEK_clean_linker_0, # of connection points: 2
#     Edge 90, Type (0, 0), BuildingBlock: EZIPEK_clean_linker_0, # of connection points: 2
#     Edge 91, Type (0, 0), BuildingBlock: EZIPEK_clean_linker_0, # of connection points: 2
#     Edge 92, Type (0, 0), BuildingBlock: EZIPEK_clean_linker_0, # of connection points: 2
#     Edge 93, Type (0, 0), BuildingBlock: EZIPEK_clean_linker_0, # of connection points: 2
#     Edge 94, Type (0, 0), BuildingBlock: EZIPEK_clean_linker_0, # of connection points: 2
#     Edge 95, Type (0, 0), BuildingBlock: EZIPEK_clean_linker_0, # of connection points: 2
#     Edge 96, Type (0, 0), BuildingBlock: EZIPEK_clean_linker_0, # of connection points: 2
#     Edge 97, Type (0, 0), BuildingBlock: EZIPEK_clean_linker_0, # of connection points: 2
#     Edge 98, Type (0, 0), BuildingBlock: EZIPEK_clean_linker_0, # of connection points: 2
#     Edge 99, Type (0, 0), BuildingBlock: EZIPEK_clean_linker_0, # of connection points: 2
#     Edge 100, Type (0, 0), BuildingBlock: EZIPEK_clean_linker_0, # of connection points: 2
#     Edge 101, Type (0, 0), BuildingBlock: EZIPEK_clean_linker_0, # of connection points: 2
#     Edge 102, Type (0, 0), BuildingBlock: EZIPEK_clean_linker_0, # of connection points: 2
#     Edge 103, Type (0, 0), BuildingBlock: EZIPEK_clean_linker_0, # of connection points: 2
#     Edge 104, Type (0, 0), BuildingBlock: EZIPEK_clean_linker_0, # of connection points: 2
#     Edge 105, Type (0, 0), BuildingBlock: EZIPEK_clean_linker_0, # of connection points: 2
#     Edge 106, Type (0, 0), BuildingBlock: EZIPEK_clean_linker_0, # of connection points: 2
#     Edge 107, Type (0, 0), BuildingBlock: EZIPEK_clean_linker_0, # of connection points: 2
#     Edge 108, Type (0, 0), BuildingBlock: EZIPEK_clean_linker_0, # of connection points: 2
#     Edge 109, Type (0, 0), BuildingBlock: EZIPEK_clean_linker_0, # of connection points: 2
#     Edge 110, Type (0, 0), BuildingBlock: EZIPEK_clean_linker_0, # of connection points: 2
#     Edge 111, Type (0, 0), BuildingBlock: EZIPEK_clean_linker_0, # of connection points: 2
#     Edge 112, Type (0, 0), BuildingBlock: EZIPEK_clean_linker_0, # of connection points: 2
#     Edge 113, Type (0, 0), BuildingBlock: EZIPEK_clean_linker_0, # of connection points: 2
#     Edge 114, Type (0, 0), BuildingBlock: EZIPEK_clean_linker_0, # of connection points: 2
#     Edge 115, Type (0, 0), BuildingBlock: EZIPEK_clean_linker_0, # of connection points: 2
#     Edge 116, Type (0, 0), BuildingBlock: EZIPEK_clean_linker_0, # of connection points: 2
#     Edge 117, Type (0, 0), BuildingBlock: EZIPEK_clean_linker_0, # of connection points: 2
#     Edge 118, Type (0, 0), BuildingBlock: EZIPEK_clean_linker_0, # of connection points: 2
#     Edge 119, Type (0, 0), BuildingBlock: EZIPEK_clean_linker_0, # of connection points: 2
#     Edge 120, Type (0, 0), BuildingBlock: EZIPEK_clean_linker_0, # of connection points: 2
#     Edge 121, Type (0, 0), BuildingBlock: EZIPEK_clean_linker_0, # of connection points: 2
#     Edge 122, Type (0, 0), BuildingBlock: EZIPEK_clean_linker_0, # of connection points: 2
#     Edge 123, Type (0, 0), BuildingBlock: EZIPEK_clean_linker_0, # of connection points: 2
#     Edge 124, Type (0, 0), BuildingBlock: EZIPEK_clean_linker_0, # of connection points: 2
#     Edge 125, Type (0, 0), BuildingBlock: EZIPEK_clean_linker_0, # of connection points: 2
#     Edge 126, Type (0, 0), BuildingBlock: EZIPEK_clean_linker_0, # of connection points: 2
#     Edge 127, Type (0, 0), BuildingBlock: EZIPEK_clean_linker_0, # of connection points: 2
# Relax obj value: 0.217
# Max RMSD: 0.241
# Mean RMSD: 0.241
data_MOF--net-wio--node1-BETDIP_clean_sbu_0--edge1-EZIPEK_clean_linker_0
_symmetry_space_group_name_H-M    P1
_symmetry_Int_Tables_number       1
_symmetry_cell_setting            triclinic
loop_
_symmetry_equiv_pos_as_xyz
'x, y, z'
_cell_length_a     48.640043
_cell_length_b     48.827294
_cell_length_c     40.825611
_cell_angle_alpha  89.967846
_cell_angle_beta   90.025346
_cell_angle_gamma 89.945024
loop_
_atom_site_label
_atom_site_type_symbol
_atom_site_fract_x
_atom_site_fract_y
_atom_site_fract_z
_atom_type_partial_charge
Tb0 Tb 0.16082 0.1149 0.30652 0.0
Tb1 Tb 0.09742 0.12298 0.31743 0.0
C2 C 0.20897 0.09822 0.29649 0.0
C3 C 0.23282 0.10737 0.27714 0.0
C4 C 0.24535 0.08864 0.25578 0.0
C5 C 0.26584 0.09725 0.23421 0.0
C6 C 0.27429 0.12469 0.23386 0.0
C7 C 0.26269 0.14325 0.25622 0.0
C8 C 0.24187 0.13471 0.27756 0.0
C9 C 0.14464 0.16394 0.32837 0.0
C10 C 0.12481 0.1371 0.24719 0.0
C11 C 0.05383 0.1443 0.33936 0.0
C12 C 0.03685 0.14192 0.36975 0.0
C13 C 0.03955 0.16089 0.39538 0.0
C14 C 0.02353 0.15871 0.42393 0.0
C15 C 1.00511 0.13655 0.42887 0.0
C16 C 1.00042 0.11973 0.40105 0.0
C17 C 0.01637 0.12188 0.37257 0.0
C18 C 0.1085 0.07168 0.29746 0.0
C19 C 0.13157 0.09126 0.37137 0.0
O20 O 0.18774 0.09062 0.27898 0.0
O21 O 0.20194 0.11294 0.32202 0.0
O22 O 0.13483 0.14075 0.3349 0.0
O23 O 0.16563 0.15973 0.30933 0.0
O24 O 0.14825 0.12597 0.25696 0.0
O25 O 0.10334 0.14042 0.26734 0.0
O26 O 0.07818 0.15546 0.34234 0.0
O27 O 0.05424 0.12323 0.31947 0.0
O28 O 0.12452 0.09186 0.30112 0.0
O29 O 0.08415 0.08118 0.30419 0.0
O30 O 0.10791 0.10322 0.3638 0.0
O31 O 0.15398 0.09304 0.35289 0.0
H32 H 0.23861 0.0675 0.25502 0.0
H33 H 0.2746 0.08267 0.21714 0.0
H34 H 0.26903 0.16451 0.25623 0.0
H35 H 0.23239 0.14961 0.29365 0.0
H36 H 0.0538 0.17784 0.3932 0.0
H37 H 0.0254 0.17524 0.44122 0.0
H38 H 0.98393 0.10499 0.40034 0.0
H39 H 1.01226 0.10797 0.3525 0.0
Tb40 Tb 0.16178 0.90534 0.55503 0.0
Tb41 Tb 0.15488 0.84403 0.56278 0.0
C42 C 0.17793 0.95353 0.54592 0.0
C43 C 0.16969 0.97594 0.5235 0.0
C44 C 0.1891 0.98682 0.5016 0.0
C45 C 0.18142 1.00682 0.4788 0.0
C46 C 0.15424 0.01642 0.47765 0.0
C47 C 0.13492 1.00609 0.5 0.0
C48 C 0.14252 0.9859 0.52264 0.0
C49 C 0.1105 0.88928 0.56932 0.0
C50 C 0.14156 0.87105 0.49401 0.0
C51 C 0.14309 0.79682 0.58456 0.0
C52 C 0.14504 0.78121 0.61609 0.0
C53 C 0.12764 0.78626 0.64289 0.0
C54 C 0.12992 0.77079 0.67198 0.0
C55 C 0.15072 0.75059 0.67619 0.0
C56 C 0.1658 0.74397 0.64749 0.0
C57 C 0.16353 0.7593 0.61856 0.0
C58 C 0.20431 0.86066 0.54096 0.0
C59 C 0.17728 0.87883 0.6237 0.0
O60 O 0.18925 0.93214 0.53186 0.0
O61 O 0.16048 0.94664 0.56897 0.0
O62 O 0.1328 0.87934 0.57949 0.0
O63 O 0.11703 0.90971 0.55058 0.0
O64 O 0.15606 0.8923 0.50417 0.0
O65 O 0.13516 0.85063 0.51432 0.0
O66 O 0.12526 0.81686 0.58217 0.0
O67 O 0.16634 0.80302 0.57041 0.0
O68 O 0.18867 0.87172 0.56135 0.0
O69 O 0.19218 0.83808 0.53239 0.0
O70 O 0.16847 0.85506 0.61221 0.0
O71 O 0.17805 0.90094 0.60475 0.0
H72 H 0.21013 0.97948 0.50176 0.0
H73 H 0.1966 0.01455 0.46173 0.0
H74 H 0.11385 1.01327 0.49944 0.0
H75 H 0.12702 0.97786 0.53907 0.0
H76 H 0.11187 0.80187 0.64128 0.0
H77 H 0.11441 0.77455 0.6902 0.0
H78 H 0.17931 0.72643 0.6466 0.0
H79 H 0.17611 0.75361 0.59775 0.0
Tb80 Tb 0.36693 0.9081 0.81175 0.0
Tb81 Tb 0.42756 0.90838 0.81322 0.0
C82 C 0.31707 0.91527 0.79713 0.0
C83 C 0.29641 0.90617 0.77305 0.0
C84 C 0.3023 0.90487 0.73934 0.0
C85 C 0.28149 0.89876 0.71683 0.0
C86 C 0.25463 0.89369 0.72779 0.0
C87 C 0.24893 0.89414 0.76145 0.0
C88 C 0.26967 0.90041 0.7839 0.0
C89 C 0.38806 0.86613 0.84354 0.0
C90 C 0.40011 0.89248 0.74574 0.0
C91 C 0.4771 0.90015 0.82999 0.0
C92 C 0.49331 0.89673 0.86074 0.0
C93 C 0.48604 0.91024 0.88997 0.0
C94 C 0.50316 0.9088 0.9177 0.0
C95 C 0.52795 0.89397 0.91672 0.0
C96 C 0.53479 0.87984 0.88787 0.0
C97 C 0.51762 0.88115 0.86023 0.0
C98 C 0.40559 0.95509 0.79052 0.0
C99 C 0.39343 0.93137 0.87488 0.0
O100 O 0.33715 0.93047 0.7861 0.0
O101 O 0.32548 0.89715 0.81848 0.0
O102 O 0.39762 0.87622 0.8171 0.0
O103 O 0.36481 0.87762 0.85017 0.0
O104 O 0.3764 0.89551 0.76126 0.0
O105 O 0.42385 0.89521 0.76156 0.0
O106 O 0.46014 0.88051 0.82183 0.0
O107 O 0.46643 0.9243 0.82472 0.0
O108 O 0.39693 0.93996 0.81329 0.0
O109 O 0.42807 0.94359 0.78003 0.0
O110 O 0.41663 0.92037 0.86407 0.0
O111 O 0.37131 0.93218 0.8562 0.0
H112 H 0.32277 0.90913 0.73035 0.0
H113 H 0.28619 0.89841 0.6909 0.0
H114 H 0.22829 0.89024 0.77024 0.0
H115 H 0.26468 0.90137 0.80974 0.0
H116 H 0.46751 0.9225 0.89115 0.0
H117 H 0.49755 0.92004 0.93957 0.0
H118 H 0.55386 0.86844 0.88643 0.0
H119 H 0.52378 0.87064 0.83806 0.0
Tb120 Tb 0.36609 0.11501 0.05988 0.0
Tb121 Tb 0.37551 0.17827 0.06803 0.0
C122 C 0.34902 0.0671 0.05024 0.0
C123 C 0.35783 0.04385 1.02951 0.0
C124 C 0.33856 0.03157 1.00853 0.0
C125 C 0.34672 1.01145 0.98619 0.0
C126 C 0.3743 1.00311 0.98454 0.0
C127 C 0.39348 0.0146 1.00631 0.0
C128 C 0.38536 0.03498 1.02847 0.0
C129 C 0.41636 0.13068 0.07838 0.0
C130 C 0.3862 0.14953 0.99811 0.0
C131 C 0.39788 0.22183 0.08784 0.0
C132 C 0.39776 0.23878 0.11828 0.0
C133 C 0.42163 0.24063 0.13767 0.0
C134 C 0.42269 0.25836 0.16472 0.0
C135 C 0.39994 0.27479 0.17286 0.0
C136 C 0.37578 0.27233 0.15424 0.0
C137 C 0.37467 0.25454 0.12728 0.0
C138 C 0.32326 0.16806 0.05083 0.0
C139 C 0.34569 0.14571 0.12483 0.0
O140 O 0.34005 0.0885 1.03405 0.0
O141 O 0.36483 0.07389 0.07499 0.0
O142 O 0.39354 0.14112 0.0858 0.0
O143 O 0.41099 0.10946 0.06032 0.0
O144 O 0.37634 0.12632 1.01003 0.0
O145 O 0.39001 0.17171 1.01682 0.0
O146 O 0.40966 0.19774 0.08949 0.0
O147 O 0.37531 0.22123 0.07034 0.0
O148 O 0.34312 0.15149 0.05437 0.0
O149 O 0.33357 0.19218 0.05622 0.0
O150 O 0.35771 0.16886 0.11575 0.0
O151 O 0.3462 0.12291 0.10712 0.0
H152 H 0.31727 0.03813 1.00879 0.0
H153 H 0.33164 1.00283 0.96961 0.0
H154 H 0.41485 1.00841 1.00536 0.0
H155 H 0.40072 0.04423 1.04417 0.0
H156 H 0.43979 0.22889 0.13138 0.0
H157 H 0.4416 0.26003 0.17859 0.0
H158 H 0.35805 0.2849 0.15993 0.0
H159 H 0.35591 0.25372 0.11301 0.0
Tb160 Tb 0.15254 0.90786 0.28907 0.0
Tb161 Tb 0.09152 0.90463 0.28683 0.0
C162 C 0.20211 0.91757 0.3022 0.0
C163 C 0.22306 0.90965 0.32656 0.0
C164 C 0.24841 0.89942 0.31551 0.0
C165 C 0.26912 0.89261 0.33778 0.0
C166 C 0.26491 0.89626 0.37147 0.0
C167 C 0.23945 0.90608 0.38268 0.0
C168 C 0.2186 0.91267 0.3604 0.0
C169 C 0.13342 0.86428 0.25806 0.0
C170 C 0.12034 0.88909 0.35407 0.0
C171 C 0.04299 0.89317 0.26848 0.0
C172 C 0.02786 0.89152 0.23656 0.0
C173 C 0.0164 0.86656 0.22598 0.0
C174 C 1.00043 0.86524 0.19723 0.0
C175 C 0.99588 0.88879 0.17806 0.0
C176 C 1.00805 0.91354 0.18811 0.0
C177 C 0.02334 0.915 0.21721 0.0
C178 C 0.11058 0.9529 0.30786 0.0
C179 C 0.12611 0.92816 0.22499 0.0
O180 O 0.18164 0.93295 0.31214 0.0
O181 O 0.19414 0.89826 0.28217 0.0
O182 O 0.12347 0.87445 0.2842 0.0
O183 O 0.15613 0.87669 0.25135 0.0
O184 O 0.14378 0.89593 0.33986 0.0
O185 O 0.09672 0.88932 0.33754 0.0
O186 O 0.06178 0.87467 0.27443 0.0
O187 O 0.05084 0.91735 0.2783 0.0
O188 O 0.12043 0.93751 0.28612 0.0
O189 O 0.08839 0.94095 0.31843 0.0
O190 O 0.10323 0.91639 0.23581 0.0
O191 O 0.14724 0.93148 0.24482 0.0
H192 H 0.25226 0.89692 0.28954 0.0
H193 H 0.2886 0.88492 0.32876 0.0
H194 H 0.23583 0.90885 0.40866 0.0
H195 H 0.19919 0.92033 0.36963 0.0
H196 H 0.01921 0.84816 0.24042 0.0
H197 H 0.99111 0.84595 0.19034 0.0
H198 H 1.00473 0.93208 0.17406 0.0
H199 H 0.03116 0.93474 0.22485 0.0
Tb200 Tb 0.36918 0.90971 0.53538 0.0
Tb201 Tb 0.37048 0.84961 0.53541 0.0
C202 C 0.36167 0.95971 0.5478 0.0
C203 C 0.37183 0.98033 0.571 0.0
C204 C 0.35419 1.00157 0.58058 0.0
C205 C 0.36265 0.02065 0.60393 0.0
C206 C 0.38894 0.01884 0.61785 0.0
C207 C 0.40701 0.99811 0.60759 0.0
C208 C 0.39844 0.97882 0.58436 0.0
C209 C 0.41193 0.88914 0.50396 0.0
C210 C 0.38602 0.87819 0.60216 0.0
C211 C 0.38138 0.80114 0.51755 0.0
C212 C 0.38418 0.78577 0.48592 0.0
C213 C 0.41025 0.78048 0.47216 0.0
C214 C 0.41306 0.76352 0.44448 0.0
C215 C 0.38988 0.75116 0.43017 0.0
C216 C 0.3638 0.7572 0.4431 0.0
C217 C 0.36096 0.7743 0.47051 0.0
C218 C 0.32298 0.87007 0.55833 0.0
C219 C 0.34478 0.8818 0.47387 0.0
O220 O 0.34681 0.94002 0.56035 0.0
O221 O 0.37925 0.95068 0.52615 0.0
O222 O 0.40207 0.8801 0.53077 0.0
O223 O 0.39943 0.91158 0.49644 0.0
O224 O 0.38218 0.9015 0.58614 0.0
O225 O 0.38394 0.85425 0.58683 0.0
O226 O 0.40019 0.81934 0.52469 0.0
O227 O 0.35683 0.8096 0.52574 0.0
O228 O 0.33773 0.87908 0.53526 0.0
O229 O 0.33527 0.84803 0.56887 0.0
O230 O 0.35642 0.85905 0.48489 0.0
O231 O 0.34437 0.90419 0.49184 0.0
H232 H 0.33361 1.003 0.57055 0.0
H233 H 0.34839 0.03634 0.61192 0.0
H234 H 0.42722 0.99623 0.61853 0.0
H235 H 0.41231 0.96246 0.57737 0.0
H236 H 0.42862 0.78874 0.48343 0.0
H237 H 0.43343 0.75882 0.43537 0.0
H238 H 0.34566 0.7476 0.43287 0.0
H239 H 0.34056 0.77766 0.48036 0.0
Tb240 Tb 0.37158 0.11924 0.78804 0.0
Tb241 Tb 0.43268 0.11975 0.79003 0.0
C242 C 0.3216 0.11081 0.8003 0.0
C243 C 0.30061 0.1188 0.82473 0.0
C244 C 0.29016 0.09893 0.84624 0.0
C245 C 0.26997 0.10582 0.86911 0.0
C246 C 0.25964 0.13262 0.87066 0.0
C247 C 0.26964 0.1525 0.84894 0.0
C248 C 0.28996 0.14564 0.82608 0.0
C249 C 0.39365 0.16148 0.75854 0.0
C250 C 0.40198 0.13612 0.85532 0.0
C251 C 0.48122 0.13281 0.77404 0.0
C252 C 0.4975 0.13521 0.74311 0.0
C253 C 0.50183 0.161 0.72851 0.0
C254 C 0.51857 0.16371 0.70071 0.0
C255 C 0.532 0.14081 0.68729 0.0
C256 C 0.52733 0.11496 0.70138 0.0
C257 C 0.51026 0.11217 0.72891 0.0
C258 C 0.41168 0.07286 0.81146 0.0
C259 C 0.40033 0.09334 0.72737 0.0
O260 O 0.34147 0.09469 0.81038 0.0
O261 O 0.33043 0.12996 0.7805 0.0
O262 O 0.40199 0.15098 0.78524 0.0
O263 O 0.37093 0.14993 0.74974 0.0
O264 O 0.37905 0.1344 0.8379 0.0
O265 O 0.4264 0.13192 0.84155 0.0
O266 O 0.46148 0.15059 0.77875 0.0
O267 O 0.47406 0.10831 0.78357 0.0
O268 O 0.40274 0.08824 0.78894 0.0
O269 O 0.43393 0.08427 0.82294 0.0
O270 O 0.42394 0.10211 0.74037 0.0
O271 O 0.37679 0.0971 0.7427 0.0
H272 H 0.29775 0.07807 0.84553 0.0
H273 H 0.26271 0.09034 0.88603 0.0
H274 H 0.26218 0.17338 0.85021 0.0
H275 H 0.29742 0.16141 0.80969 0.0
H276 H 0.49256 0.17921 0.73888 0.0
H277 H 0.52189 0.18387 0.69037 0.0
H278 H 0.53754 0.09702 0.6916 0.0
H279 H 0.50762 0.092 0.7395 0.0
Tb280 Tb 0.16519 0.11813 1.04763 0.0
Tb281 Tb 0.1543 0.17898 1.03658 0.0
C282 C 0.18189 0.07278 0.06884 0.0
C283 C 0.1706 0.05043 0.0893 0.0
C284 C 0.17965 0.0471 0.12176 0.0
C285 C 0.16992 0.0254 0.14084 0.0
C286 C 0.15108 1.00665 0.12771 0.0
C287 C 0.14187 1.0099 0.09543 0.0
C288 C 0.15154 0.0316 0.07635 0.0
C289 C 0.11862 0.12842 1.0167 0.0
C290 C 0.13962 0.15372 0.10653 0.0
C291 C 0.13548 0.22215 1.01035 0.0
C292 C 0.1395 0.23924 0.98023 0.0
C293 C 0.12093 0.23752 0.95395 0.0
C294 C 0.12362 0.25446 0.92625 0.0
C295 C 0.14591 0.27299 0.92266 0.0
C296 C 0.16252 0.27642 0.95103 0.0
C297 C 0.15987 0.2595 0.97871 0.0
C298 C 0.20389 0.16769 0.06165 0.0
C299 C 0.18682 0.14394 0.98155 0.0
O300 O 0.18699 0.09613 0.08348 0.0
O301 O 0.17073 0.07619 1.03995 0.0
O302 O 0.12978 0.14305 1.03867 0.0
O303 O 0.13095 0.10497 1.01689 0.0
O304 O 0.15031 0.13033 0.09619 0.0
O305 O 0.13674 0.17531 0.08666 0.0
O306 O 0.12474 0.1978 1.0064 0.0
O307 O 0.15501 0.22199 1.03249 0.0
O308 O 0.18995 0.15385 1.04164 0.0
O309 O 0.18999 0.19007 0.067 0.0
O310 O 0.17353 0.16686 0.98942 0.0
O311 O 0.1882 0.12303 1.00218 0.0
H312 H 0.19449 0.06111 0.13228 0.0
H313 H 0.17734 0.023 0.1657 0.0
H314 H 0.12751 0.99542 0.08491 0.0
H315 H 0.14429 0.03338 0.05136 0.0
H316 H 0.1037 0.22349 0.95513 0.0
H317 H 0.10723 0.25332 0.90855 0.0
H318 H 0.17728 0.29279 0.95301 0.0
H319 H 0.17347 0.26287 0.99933 0.0
Tb320 Tb 0.93121 0.90321 0.78094 0.0
Tb321 Tb 0.87079 0.91607 0.79074 0.0
C322 C 0.9755 0.88448 0.75728 0.0
C323 C 0.99171 0.88675 0.72627 0.0
C324 C 0.99002 0.86646 0.70198 0.0
C325 C 1.00598 0.86803 0.67331 0.0
C326 C 0.02333 0.89075 0.6668 0.0
C327 C 0.02686 0.90931 0.69327 0.0
C328 C 1.01098 0.90776 0.72188 0.0
C329 C 0.92029 0.95313 0.80662 0.0
C330 C 0.89865 0.93356 0.72388 0.0
C331 C 0.8263 0.93477 0.81264 0.0
C332 C 0.80348 0.92462 0.8333 0.0
C333 C 0.8039 0.92909 0.86734 0.0
C334 C 0.78241 0.91977 0.88701 0.0
C335 C 0.76002 0.90605 0.87299 0.0
C336 C 0.75934 0.90162 0.83908 0.0
C337 C 0.78086 0.91095 0.81933 0.0
C338 C 0.87917 0.86908 0.76018 0.0
C339 C 0.90516 0.88855 0.8499 0.0
O340 O 0.95186 0.87174 0.75573 0.0
O341 O 0.97417 0.90609 0.7762 0.0
O342 O 0.90696 0.94016 0.78517 0.0
O343 O 0.94199 0.93825 0.81238 0.0
O344 O 0.91997 0.91813 0.73187 0.0
O345 O 0.87875 0.93882 0.74523 0.0
O346 O 0.85007 0.93798 0.82727 0.0
O347 O 0.82886 0.924 0.7834 0.0
O348 O 0.89431 0.8798 0.7821 0.0
O349 O 0.85606 0.88217 0.76077 0.0
O350 O 0.88233 0.90048 0.8394 0.0
O351 O 0.92677 0.88498 0.8303 0.0
H352 H 0.97677 0.84887 0.70545 0.0
H353 H 1.00503 0.85054 0.65731 0.0
H354 H 0.04251 0.92493 0.69293 0.0
H355 H 1.01433 0.92283 0.74092 0.0
H356 H 0.82083 0.9398 0.87884 0.0
H357 H 0.78319 0.92328 0.9132 0.0
H358 H 0.74214 0.89102 0.82798 0.0
H359 H 0.77977 0.90745 0.79316 0.0
Tb360 Tb 0.87553 0.18139 0.53517 0.0
Tb361 Tb 0.86916 0.12039 0.54539 0.0
C362 C 0.89103 0.22731 0.51271 0.0
C363 C 0.89239 0.24306 0.48159 0.0
C364 C 0.88026 0.23362 0.45241 0.0
C365 C 0.88027 0.25011 0.42408 0.0
C366 C 0.89226 0.27635 0.42457 0.0
C367 C 0.90481 0.28545 0.45357 0.0
C368 C 0.90492 0.26896 0.48171 0.0
C369 C 0.82746 0.16661 0.5616 0.0
C370 C 0.84686 0.14548 0.47888 0.0
C371 C 0.85349 0.07197 0.55394 0.0
C372 C 0.86256 0.04889 0.5746 0.0
C373 C 0.84352 0.03602 0.59533 0.0
C374 C 0.85204 0.01536 0.61675 0.0
C375 C 0.87966 1.00716 0.6175 0.0
C376 C 0.89859 0.01933 0.59609 0.0
C377 C 0.89015 0.04018 0.57489 0.0
C378 C 0.91959 0.13673 0.52816 0.0
C379 C 0.88966 0.15558 0.60521 0.0
O380 O 0.90722 0.20603 0.51583 0.0
O381 O 0.86659 0.22258 0.5246 0.0
O382 O 0.8419 0.15419 0.54095 0.0
O383 O 0.84051 0.18922 0.5683 0.0
O384 O 0.85467 0.17021 0.48893 0.0
O385 O 0.85152 0.12318 0.49644 0.0
O386 O 0.84294 0.09295 0.5696 0.0
O387 O 0.8701 0.07945 0.53034 0.0
O388 O 0.89682 0.14583 0.51839 0.0
O389 O 0.91409 0.11678 0.54812 0.0
O390 O 0.87606 0.13354 0.59584 0.0
O391 O 0.89508 0.17585 0.5842 0.0
H392 H 0.87028 0.21385 0.45172 0.0
H393 H 0.87023 0.24276 0.4021 0.0
H394 H 0.91395 0.30565 0.45465 0.0
H395 H 0.91428 0.27677 0.50391 0.0
H396 H 0.82218 0.04241 0.59548 0.0
H397 H 0.83724 1.0062 0.63328 0.0
H398 H 0.92002 1.0133 0.59659 0.0
H399 H 0.90533 0.04982 0.55929 0.0
Tb400 Tb 0.60052 0.12357 0.28431 0.0
Tb401 Tb 0.66116 0.1149 0.28879 0.0
C402 C 0.55418 0.14038 0.26421 0.0
C403 C 0.53619 0.13847 0.23489 0.0
C404 C 0.5467 0.13336 0.20335 0.0
C405 C 0.52897 0.13203 0.17615 0.0
C406 C 0.50049 0.13602 0.18 0.0
C407 C 0.49013 0.14125 0.2115 0.0
C408 C 0.50777 0.14244 0.23861 0.0
C409 C 0.61485 0.07367 0.30576 0.0
C410 C 0.63322 0.09411 0.2251 0.0
C411 C 0.70989 0.10207 0.30315 0.0
C412 C 0.73146 0.11178 0.32554 0.0
C413 C 0.75125 0.09316 0.33686 0.0
C414 C 0.77112 0.10144 0.35947 0.0
C415 C 0.77154 0.12851 0.37092 0.0
C416 C 0.75221 0.14742 0.35898 0.0
C417 C 0.73216 0.13906 0.33649 0.0
C418 C 0.64649 0.16131 0.25955 0.0
C419 C 0.62838 0.13602 0.35279 0.0
O420 O 0.5771 0.15411 0.26108 0.0
O421 O 0.5576 0.1181 0.28148 0.0
O422 O 0.62665 0.08841 0.28491 0.0
O423 O 0.59288 0.08689 0.31471 0.0
O424 O 0.61209 0.10983 0.23396 0.0
O425 O 0.65322 0.0891 0.24626 0.0
O426 O 0.68829 0.09113 0.31697 0.0
O427 O 0.7033 0.11841 0.27902 0.0
O428 O 0.63505 0.15056 0.28444 0.0
O429 O 0.66815 0.14714 0.25277 0.0
O430 O 0.65126 0.12614 0.33962 0.0
O431 O 0.60571 0.13933 0.33488 0.0
H432 H 0.56855 0.1304 0.19973 0.0
H433 H 0.53742 0.12776 0.15215 0.0
H434 H 0.46826 0.14422 0.21514 0.0
H435 H 0.49918 0.14649 0.26261 0.0
H436 H 0.75095 0.07204 0.32873 0.0
H437 H 0.78569 0.08656 0.36878 0.0
H438 H 0.75205 0.16828 0.36799 0.0
H439 H 0.71692 0.15369 0.32817 0.0
Tb440 Tb 0.65325 0.84915 1.03087 0.0
Tb441 Tb 0.66203 0.91199 1.03848 0.0
C442 C 0.63056 0.80565 1.0119 0.0
C443 C 0.63018 0.78925 0.9812 0.0
C444 C 0.60568 0.78678 0.96311 0.0
C445 C 0.60438 0.76963 0.93561 0.0
C446 C 0.62752 0.75444 0.92585 0.0
C447 C 0.65227 0.75762 0.9431 0.0
C448 C 0.65363 0.77486 0.97047 0.0
C449 C 0.70576 0.85919 1.04655 0.0
C450 C 0.68268 0.88156 0.97368 0.0
C451 C 0.67765 0.96026 1.04829 0.0
C452 C 0.66862 0.98194 0.07133 0.0
C453 C 0.67339 0.9793 0.10524 0.0
C454 C 0.66503 0.99977 0.12687 0.0
C455 C 0.65165 0.02322 0.11517 0.0
C456 C 0.64647 0.02592 0.0815 0.0
C457 C 0.65504 1.00547 0.0597 0.0
C458 C 0.61178 0.89574 1.01964 0.0
C459 C 0.64367 0.87767 0.10104 0.0
O460 O 0.6185 0.82963 1.01101 0.0
O461 O 0.6536 0.80627 1.02848 0.0
O462 O 0.68595 0.87599 1.04369 0.0
O463 O 0.69511 0.8351 1.04193 0.0
O464 O 0.67086 0.85834 0.98291 0.0
O465 O 0.68167 0.90448 0.99116 0.0
O466 O 0.68929 0.93877 0.06163 0.0
O467 O 0.6605 0.95358 1.02485 0.0
O468 O 0.63483 0.88578 1.01232 0.0
O469 O 0.61691 0.91656 1.03844 0.0
O470 O 0.65301 0.90091 0.08873 0.0
O471 O 0.6397 0.8555 0.08245 0.0
H472 H 0.5873 0.79757 0.97075 0.0
H473 H 0.58505 0.76733 0.92273 0.0
H474 H 0.6703 0.74599 0.93607 0.0
H475 H 0.67289 0.77632 0.98367 0.0
H476 H 0.68369 0.96147 0.11521 0.0
H477 H 0.66916 0.99741 0.15281 0.0
H478 H 0.63622 0.044 0.07214 0.0
H479 H 0.65111 1.00805 1.03376 0.0
Tb480 Tb 0.93589 0.12618 0.81631 0.0
Tb481 Tb 0.87804 0.10823 0.80249 0.0
C482 C 0.97659 0.15341 0.8364 0.0
C483 C 0.99678 0.15107 0.86363 0.0
C484 C 0.02189 0.16517 0.86187 0.0
C485 C 0.04088 0.1638 0.88776 0.0
C486 C 0.03506 0.14841 0.91604 0.0
C487 C 1.00982 0.13449 0.91797 0.0
C488 C 0.99086 0.13579 0.89203 0.0
C489 C 0.93357 0.0728 0.80316 0.0
C490 C 0.90365 0.08724 0.86572 0.0
C491 C 0.83307 0.091 0.77967 0.0
C492 C 0.8102 0.10227 0.75985 0.0
C493 C 0.78779 0.11553 0.77491 0.0
C494 C 0.76588 0.1254 0.7561 0.0
C495 C 0.7659 0.12188 0.72202 0.0
C496 C 0.7882 0.10878 0.70691 0.0
C497 C 0.81011 0.09898 0.72564 0.0
C498 C 0.88316 0.15341 0.83952 0.0
C499 C 0.90909 0.1394 0.74555 0.0
O500 O 0.95112 0.15814 0.8452 0.0
O501 O 0.97818 0.13533 0.81268 0.0
O502 O 0.91824 0.09156 0.79113 0.0
O503 O 0.95151 0.08479 0.82164 0.0
O504 O 0.92073 0.1085 0.86314 0.0
O505 O 0.88809 0.07976 0.84095 0.0
O506 O 0.85671 0.08806 0.76496 0.0
O507 O 0.83599 0.10055 0.80932 0.0
O508 O 0.89751 0.14642 0.81519 0.0
O509 O 0.86353 0.1358 0.84177 0.0
O510 O 0.88523 0.13121 0.75754 0.0
O511 O 0.93203 0.13893 0.76376 0.0
H512 H 0.02688 0.1772 0.84038 0.0
H513 H 0.06034 0.17441 0.88553 0.0
H514 H 1.00504 0.12218 0.9393 0.0
H515 H 0.9716 0.12481 0.8941 0.0
H516 H 0.78708 0.11814 0.80124 0.0
H517 H 0.7488 0.13552 0.76808 0.0
H518 H 0.7885 0.10596 0.68059 0.0
H519 H 0.82689 0.08865 0.71331 0.0
Tb520 Tb 0.6619 0.17806 0.56231 0.0
Tb521 Tb 0.66227 0.11815 0.56129 0.0
C522 C 0.65217 0.22692 0.57918 0.0
C523 C 0.64795 0.24237 0.61034 0.0
C524 C 0.62152 0.24554 0.62393 0.0
C525 C 0.61742 0.26183 0.65181 0.0
C526 C 0.63955 0.2758 0.66632 0.0
C527 C 0.66603 0.27215 0.65337 0.0
C528 C 0.67019 0.25563 0.62573 0.0
C529 C 0.70936 0.15736 0.53997 0.0
C530 C 0.68592 0.14497 0.62391 0.0
C531 C 0.67095 0.06894 0.54592 0.0
C532 C 0.66218 0.04853 0.52127 0.0
C533 C 0.68017 0.04145 0.49568 0.0
C534 C 0.67309 0.02099 0.47334 0.0
C535 C 0.648 1.00716 0.47631 0.0
C536 C 0.62984 0.01419 0.50161 0.0
C537 C 0.63689 0.03469 0.52402 0.0
C538 C 0.62033 0.1384 0.59391 0.0
C539 C 0.64502 0.15066 0.49551 0.0
O540 O 0.63305 0.20962 0.57016 0.0
O541 O 0.67679 0.21724 0.57376 0.0
O542 O 0.6942 0.1482 0.5625 0.0
O543 O 0.69724 0.17938 0.52924 0.0
O544 O 0.6749 0.16804 0.613 0.0
O545 O 0.68623 0.12274 0.60564 0.0
O546 O 0.68568 0.08948 0.53518 0.0
O547 O 0.65292 0.07659 0.56788 0.0
O548 O 0.62984 0.14801 0.56716 0.0
O549 O 0.63242 0.11547 0.60048 0.0
O550 O 0.64668 0.1273 0.5119 0.0
O551 O 0.64957 0.17431 0.51052 0.0
H552 H 0.60386 0.23585 0.61267 0.0
H553 H 0.59678 0.26452 0.66123 0.0
H554 H 0.68336 0.28291 0.66395 0.0
H555 H 0.69078 0.2539 0.61585 0.0
H556 H 0.69988 0.05154 0.49314 0.0
H557 H 0.68725 0.01584 0.45381 0.0
H558 H 0.61034 1.00369 0.50409 0.0
H559 H 0.62268 0.03945 0.54362 0.0
Tb560 Tb 0.60327 0.90537 0.3118 0.0
Tb561 Tb 0.66252 0.91114 0.30838 0.0
C562 C 0.55429 0.89497 0.32936 0.0
C563 C 0.53752 0.89261 0.35969 0.0
C564 C 0.54769 0.88069 0.38872 0.0
C565 C 0.53062 0.87799 0.41642 0.0
C566 C 0.5032 0.88721 0.41553 0.0
C567 C 0.49329 0.89935 0.38665 0.0
C568 C 0.51025 0.90204 0.35912 0.0
C569 C 0.62002 0.95469 0.28971 0.0
C570 C 0.63534 0.92925 0.37296 0.0
C571 C 0.71053 0.92378 0.29076 0.0
C572 C 0.73194 0.91424 0.26777 0.0
C573 C 0.73772 0.93003 0.23982 0.0
C574 C 0.7581 0.9219 0.21786 0.0
C575 C 0.7732 0.89793 0.22357 0.0
C576 C 0.76775 0.88214 0.25156 0.0
C577 C 0.74724 0.89024 0.27356 0.0
C578 C 0.64854 0.86505 0.33727 0.0
C579 C 0.62994 0.89112 0.24396 0.0
O580 O 0.57297 0.87634 0.32387 0.0
O581 O 0.56311 0.91934 0.32174 0.0
O582 O 0.63027 0.94021 0.31205 0.0
O583 O 0.59865 0.94126 0.27956 0.0
O584 O 0.61429 0.91417 0.36328 0.0
O585 O 0.65566 0.93464 0.35268 0.0
O586 O 0.68823 0.93362 0.27727 0.0
O587 O 0.70512 0.90858 0.31638 0.0
O588 O 0.63636 0.8752 0.31223 0.0
O589 O 0.6687 0.88082 0.34545 0.0
O590 O 0.65348 0.89592 0.25906 0.0
O591 O 0.60637 0.89228 0.26025 0.0
H592 H 0.56865 0.87324 0.38988 0.0
H593 H 0.53866 0.86839 0.43836 0.0
H594 H 0.47222 0.90647 0.3853 0.0
H595 H 0.5019 0.91125 0.3371 0.0
H596 H 0.72642 0.94873 0.23492 0.0
H597 H 0.76205 0.93423 0.1963 0.0
H598 H 0.77927 0.86354 0.25621 0.0
H599 H 0.7434 0.87773 0.29499 0.0
Tb600 Tb 0.87398 0.8426 0.05855 0.0
Tb601 Tb 0.86607 0.90294 0.04959 0.0
C602 C 0.88794 0.79604 0.08 0.0
C603 C 0.89084 0.78173 0.11201 0.0
C604 C 0.91154 0.76191 0.1161 0.0
C605 C 0.91225 0.74533 0.14421 0.0
C606 C 0.89222 0.74823 0.16876 0.0
C607 C 0.87224 0.76885 0.16542 0.0
C608 C 0.87158 0.78549 0.13738 0.0
C609 C 0.82517 0.85652 1.03236 0.0
C610 C 0.84663 0.87678 0.11653 0.0
C611 C 0.85167 0.9515 1.03896 0.0
C612 C 0.86194 0.97281 1.01609 0.0
C613 C 0.85354 0.97288 0.98308 0.0
C614 C 0.86337 0.99268 0.9614 0.0
C615 C 0.88171 1.0129 0.97218 0.0
C616 C 0.89024 1.01301 1.00501 0.0
C617 C 0.88043 0.99311 1.02682 0.0
C618 C 0.91674 0.88751 0.06965 0.0
C619 C 0.88748 0.86893 0.98942 0.0
O620 O 0.90566 0.81538 0.07287 0.0
O621 O 0.86296 0.8026 0.07122 0.0
O622 O 0.83887 0.86883 0.05383 0.0
O623 O 0.83953 0.83509 1.02444 0.0
O624 O 0.85923 0.85385 0.10768 0.0
O625 O 0.84536 0.89836 0.09684 0.0
O626 O 0.83977 0.93022 1.02551 0.0
O627 O 0.86796 0.94447 0.06306 0.0
O628 O 0.89373 0.87807 0.07746 0.0
O629 O 0.91148 0.90709 1.0491 0.0
O630 O 0.87255 0.88998 0.999 0.0
O631 O 0.89441 0.8492 1.01043 0.0
H632 H 0.92653 0.75849 0.09691 0.0
H633 H 0.9277 0.72941 0.14613 0.0
H634 H 0.85647 0.77131 0.18392 0.0
H635 H 0.85535 0.80054 0.135 0.0
H636 H 0.83923 0.95772 0.97392 0.0
H637 H 0.85631 0.99252 0.93622 0.0
H638 H 0.90409 0.02873 1.01381 0.0
H639 H 0.88718 0.99369 0.05209 0.0
Tb640 Tb 0.65927 0.62069 0.81098 0.0
Tb641 Tb 0.59894 0.61848 0.80912 0.0
C642 C 0.70927 0.61345 0.79768 0.0
C643 C 0.72876 0.6211 0.7714 0.0
C644 C 0.73048 0.60559 0.74242 0.0
C645 C 0.74945 0.61246 0.7181 0.0
C646 C 0.7673 0.63464 0.72259 0.0
C647 C 0.76589 0.65007 0.75147 0.0
C648 C 0.74677 0.64335 0.77572 0.0
C649 C 0.63605 0.66304 0.83923 0.0
C650 C 0.6282 0.63463 0.74307 0.0
C651 C 0.54896 0.62569 0.82425 0.0
C652 C 0.53275 0.62992 0.85502 0.0
C653 C 0.52829 0.65635 0.86784 0.0
C654 C 0.51211 0.66025 0.89596 0.0
C655 C 0.49927 0.63791 0.91144 0.0
C656 C 0.50385 0.6115 0.8989 0.0
C657 C 0.52039 0.60755 0.87112 0.0
C658 C 0.62309 0.57206 0.78982 0.0
C659 C 0.63181 0.60111 0.87487 0.0
O660 O 0.68981 0.5961 0.78995 0.0
O661 O 0.70025 0.63324 0.81642 0.0
O662 O 0.6276 0.6517 0.81298 0.0
O663 O 0.65943 0.6526 0.84766 0.0
O664 O 0.65122 0.63339 0.7603 0.0
O665 O 0.60401 0.63032 0.75725 0.0
O666 O 0.56531 0.64543 0.81463 0.0
O667 O 0.56026 0.60165 0.82009 0.0
O668 O 0.63026 0.58784 0.81275 0.0
O669 O 0.60091 0.58262 0.77718 0.0
O670 O 0.60849 0.60882 0.86094 0.0
O671 O 0.6547 0.60043 0.85763 0.0
H672 H 0.71737 0.58798 0.7386 0.0
H673 H 0.75046 0.60029 0.69595 0.0
H674 H 0.7797 0.66717 0.75528 0.0
H675 H 0.74625 0.65541 0.79797 0.0
H676 H 0.53717 0.67413 0.85602 0.0
H677 H 0.50886 0.68083 0.90504 0.0
H678 H 0.4941 0.59395 0.91023 0.0
H679 H 0.52307 0.58693 0.86188 0.0
Tb680 Tb 0.65841 0.4149 0.05693 0.0
Tb681 Tb 0.65311 0.35184 0.06871 0.0
C682 C 0.67306 0.46344 1.04668 0.0
C683 C 0.66427 0.48531 1.02404 0.0
C684 C 0.65993 0.48001 0.99054 0.0
C685 C 0.65241 0.50121 0.96932 0.0
C686 C 0.64884 0.52789 0.98132 0.0
C687 C 0.65245 0.53308 1.01485 0.0
C688 C 0.66024 0.51193 1.03603 0.0
C689 C 0.60943 0.39669 0.07753 0.0
C690 C 0.64176 0.37752 0.99659 0.0
C691 C 0.63247 0.30772 0.08951 0.0
C692 C 0.63034 0.29275 0.12117 0.0
C693 C 0.6068 0.27707 0.12789 0.0
C694 C 0.60609 0.25936 0.15499 0.0
C695 C 0.62884 0.25715 0.17608 0.0
C696 C 0.65168 0.27419 0.17064 0.0
C697 C 0.65248 0.29172 0.14337 0.0
C698 C 0.70462 0.36432 0.05157 0.0
C699 C 0.67739 0.38955 0.12566 0.0
O700 O 0.6851 0.44212 1.0334 0.0
O701 O 0.65538 0.45656 0.06938 0.0
O702 O 0.63305 0.38822 0.08477 0.0
O703 O 0.61308 0.41719 0.05762 0.0
O704 O 0.64996 0.4017 1.00736 0.0
O705 O 0.63924 0.3558 1.01649 0.0
O706 O 0.6184 0.33048 0.08638 0.0
O707 O 0.65705 0.30965 0.07667 0.0
O708 O 0.68395 0.37997 0.05414 0.0
O709 O 0.69575 0.33978 0.05783 0.0
O710 O 0.6683 0.36498 0.1168 0.0
O711 O 0.67722 0.41059 0.10512 0.0
H712 H 0.66261 0.45959 0.98066 0.0
H713 H 0.64968 0.4969 0.94349 0.0
H714 H 0.64979 0.55359 1.02443 0.0
H715 H 0.66335 0.51641 0.06176 0.0
H716 H 0.5895 0.2774 0.11116 0.0
H717 H 0.58848 0.24607 0.15829 0.0
H718 H 0.66969 0.27246 0.18613 0.0
H719 H 0.67099 0.30339 0.13871 0.0
Tb720 Tb 0.8704 0.40924 0.30324 0.0
Tb721 Tb 0.93196 0.40395 0.3131 0.0
C722 C 0.82127 0.42347 0.29499 0.0
C723 C 0.79901 0.41537 0.27268 0.0
C724 C 0.77167 0.42025 0.28174 0.0
C725 C 0.75028 0.41404 0.26014 0.0
C726 C 0.75603 0.40295 0.22918 0.0
C727 C 0.78335 0.39739 0.22037 0.0
C728 C 0.80475 0.40345 0.24209 0.0
C729 C 0.88823 0.35962 0.32205 0.0
C730 C 0.90568 0.39092 0.24285 0.0
C731 C 0.97853 0.38891 0.33455 0.0
C732 C 0.99427 0.38604 0.36562 0.0
C733 C 0.98543 0.39804 0.39514 0.0
C734 C 1.0023 0.39728 0.42319 0.0
C735 C 0.02834 0.38467 0.42213 0.0
C736 C 0.03675 0.37208 0.39287 0.0
C737 C 0.01988 0.37271 0.36499 0.0
C738 C 0.91627 0.45181 0.28685 0.0
C739 C 0.89543 0.43154 0.3697 0.0
O740 O 0.84222 0.43594 0.28136 0.0
O741 O 0.82889 0.40507 0.31646 0.0
O742 O 0.89683 0.38276 0.3306 0.0
O743 O 0.86795 0.36412 0.30207 0.0
O744 O 0.88339 0.40383 0.25272 0.0
O745 O 0.92618 0.38522 0.2636 0.0
O746 O 0.95802 0.37207 0.32933 0.0
O747 O 0.97272 0.41382 0.32516 0.0
O748 O 0.90399 0.4371 0.30746 0.0
O749 O 0.93921 0.43913 0.28039 0.0
O750 O 0.92011 0.42274 0.3603 0.0
O751 O 0.87319 0.42798 0.3515 0.0
H752 H 0.76689 0.42934 0.30527 0.0
H753 H 0.72929 0.41859 0.26716 0.0
H754 H 0.78808 0.38899 0.19647 0.0
H755 H 0.82576 0.39937 0.23476 0.0
H756 H 0.96591 0.40864 0.39625 0.0
H757 H 0.99546 0.40734 0.44538 0.0
H758 H 0.05677 0.36243 0.39134 0.0
H759 H 0.02725 0.36346 0.34253 0.0
Tb760 Tb 0.87594 0.61909 0.56254 0.0
Tb761 Tb 0.87479 0.68237 0.55915 0.0
C762 C 0.87968 0.56808 0.55401 0.0
C763 C 0.88176 0.54815 0.52709 0.0
C764 C 0.89634 0.55422 0.49828 0.0
C765 C 0.89932 0.53437 0.47388 0.0
C766 C 0.88756 0.50829 0.4778 0.0
C767 C 0.87277 0.50235 0.50642 0.0
C768 C 0.87 0.52212 0.53096 0.0
C769 C 0.91287 0.64534 0.59786 0.0
C770 C 0.88946 0.65075 0.49398 0.0
C771 C 0.89151 0.72941 0.57611 0.0
C772 C 0.89183 0.74637 0.6066 0.0
C773 C 0.91623 0.75964 0.61621 0.0
C774 C 0.9166 0.77748 0.64325 0.0
C775 C 0.89256 0.78246 0.66141 0.0
C776 C 0.86839 0.76841 0.65261 0.0
C777 C 0.86803 0.7505 0.62562 0.0
C778 C 0.82615 0.66334 0.53923 0.0
C779 C 0.84401 0.64995 0.61707 0.0
O780 O 0.85624 0.58087 0.55742 0.0
O781 O 0.90076 0.58435 0.55807 0.0
O782 O 0.90498 0.65154 0.56922 0.0
O783 O 0.90082 0.623 0.60649 0.0
O784 O 0.88565 0.62773 0.51085 0.0
O785 O 0.88775 0.67533 0.50811 0.0
O786 O 0.90707 0.70757 0.57593 0.0
O787 O 0.86779 0.72487 0.56197 0.0
O788 O 0.8471 0.64958 0.54828 0.0
O789 O 0.83334 0.68901 0.53997 0.0
O790 O 0.85567 0.67302 0.60685 0.0
O791 O 0.8472 0.6262 0.60199 0.0
H792 H 0.90554 0.57419 0.49471 0.0
H793 H 0.91049 0.53941 0.45173 0.0
H794 H 0.86328 0.48246 0.50965 0.0
H795 H 0.85875 0.51707 0.55305 0.0
H796 H 0.9349 0.75679 0.60217 0.0
H797 H 0.93541 0.78824 0.64924 0.0
H798 H 0.84952 0.77206 0.66599 0.0
H799 H 0.84894 0.74046 0.61915 0.0
Tb800 Tb 0.65735 0.40858 0.78684 0.0
Tb801 Tb 0.59627 0.40616 0.78735 0.0
C802 C 0.70639 0.4199 0.80107 0.0
C803 C 0.72735 0.41266 0.82602 0.0
C804 C 0.72825 0.42611 0.8565 0.0
C805 C 0.74902 0.4201 0.87913 0.0
C806 C 0.7695 0.4009 0.87146 0.0
C807 C 0.76876 0.38753 0.84108 0.0
C808 C 0.74789 0.39334 0.81858 0.0
C809 C 0.63761 0.36547 0.75649 0.0
C810 C 0.62641 0.39017 0.85343 0.0
C811 C 0.54737 0.39574 0.76981 0.0
C812 C 0.5317 0.39617 0.73815 0.0
C813 C 0.53029 0.37321 0.71746 0.0
C814 C 0.51559 0.37418 0.68772 0.0
C815 C 0.50249 0.39852 0.67666 0.0
C816 C 0.50144 0.42014 0.6999 0.0
C817 C 0.51627 0.41929 0.72935 0.0
C818 C 0.61681 0.45409 0.80705 0.0
C819 C 0.62888 0.42888 0.72351 0.0
O820 O 0.68525 0.43453 0.81069 0.0
O821 O 0.69933 0.40063 0.78041 0.0
O822 O 0.6279 0.37554 0.78295 0.0
O823 O 0.66047 0.37755 0.74933 0.0
O824 O 0.6495 0.39348 0.83668 0.0
O825 O 0.60208 0.39292 0.83879 0.0
O826 O 0.56625 0.37692 0.77391 0.0
O827 O 0.55547 0.41937 0.78121 0.0
O828 O 0.62555 0.4384 0.78497 0.0
O829 O 0.59459 0.44288 0.81859 0.0
O830 O 0.60615 0.41826 0.73613 0.0
O831 O 0.65126 0.43108 0.74164 0.0
H832 H 0.71319 0.4416 0.86269 0.0
H833 H 0.74939 0.43074 0.90241 0.0
H834 H 0.78454 0.3728 0.83467 0.0
H835 H 0.7481 0.383 0.79511 0.0
H836 H 0.54029 0.35425 0.72441 0.0
H837 H 0.51403 0.35523 0.67432 0.0
H838 H 0.48854 0.43786 0.69649 0.0
H839 H 0.51518 0.43679 0.7456 0.0
Tb840 Tb 0.86595 0.40973 1.0415 0.0
Tb841 Tb 0.87238 0.34841 1.0339 0.0
C842 C 0.85015 0.4582 0.04933 0.0
C843 C 0.85862 0.48113 0.07062 0.0
C844 C 0.83928 0.49281 0.09199 0.0
C845 C 0.84724 0.51288 0.11443 0.0
C846 C 0.87463 0.52175 0.11565 0.0
C847 C 0.89384 0.51088 0.09353 0.0
C848 C 0.88595 0.49056 0.0713 0.0
C849 C 0.91659 0.3929 1.02451 0.0
C850 C 0.88669 0.37568 0.10255 0.0
C851 C 0.88474 0.30079 1.01415 0.0
C852 C 0.8869 0.28435 0.98334 0.0
C853 C 0.91201 0.27187 0.97484 0.0
C854 C 0.91345 0.25294 0.94893 0.0
C855 C 0.88985 0.24627 0.9307 0.0
C856 C 0.86503 0.25961 0.93817 0.0
C857 C 0.86349 0.27817 0.96437 0.0
C858 C 0.82371 0.36512 0.05825 0.0
C859 C 0.84852 0.38319 0.9737 0.0
O860 O 0.83922 0.43723 0.06461 0.0
O861 O 0.86725 0.45071 1.02619 0.0
O862 O 0.89376 0.38337 1.01583 0.0
O863 O 0.9111 0.41376 1.04304 0.0
O864 O 0.87273 0.39734 0.09242 0.0
O865 O 0.89252 0.35516 0.08214 0.0
O866 O 0.90303 0.31997 1.01965 0.0
O867 O 0.86014 0.30827 1.02339 0.0
O868 O 0.83858 0.37618 1.03698 0.0
O869 O 0.83634 0.34262 0.06623 0.0
O870 O 0.85931 0.35977 0.98407 0.0
O871 O 0.84702 0.40479 0.99331 0.0
H872 H 0.81812 0.48586 0.0919 0.0
H873 H 0.83218 0.52108 0.13135 0.0
H874 H 0.91507 0.51752 0.09422 0.0
H875 H 0.90136 0.48187 0.05522 0.0
H876 H 0.93032 0.27582 0.9892 0.0
H877 H 0.93274 0.24265 0.94395 0.0
H878 H 0.84646 0.2545 0.92486 0.0
H879 H 0.84364 0.28676 0.97054 0.0
Tb880 Tb 0.86683 0.61538 0.28942 0.0
Tb881 Tb 0.93077 0.62159 0.28113 0.0
C882 C 0.81783 0.60074 0.29839 0.0
C883 C 0.79496 0.60971 0.31961 0.0
C884 C 0.79998 0.62091 0.3508 0.0
C885 C 0.7781 0.62676 0.37196 0.0
C886 C 0.75092 0.62171 0.36214 0.0
C887 C 0.74585 0.61153 0.33054 0.0
C888 C 0.76773 0.60551 0.30946 0.0
C889 C 0.88532 0.66444 0.27045 0.0
C890 C 0.90238 0.63297 0.35141 0.0
C891 C 0.97574 0.64223 0.26229 0.0
C892 C 0.99275 0.64246 0.23202 0.0
C893 C 0.98128 0.63832 0.20073 0.0
C894 C 0.99819 0.63753 0.17275 0.0
C895 C 0.02683 0.64088 0.17559 0.0
C896 C 0.03814 0.64537 0.20681 0.0
C897 C 0.02129 0.64618 0.23467 0.0
C898 C 0.91781 0.57028 0.29857 0.0
C899 C 0.89668 0.5934 0.22443 0.0
O900 O 0.83891 0.58991 0.31365 0.0
O901 O 0.82531 0.61751 0.27497 0.0
O902 O 0.8944 0.64112 0.2631 0.0
O903 O 0.86407 0.66041 0.28912 0.0
O904 O 0.87868 0.62413 0.33953 0.0
O905 O 0.92471 0.63602 0.33256 0.0
O906 O 0.95215 0.6552 0.26141 0.0
O907 O 0.97383 0.61876 0.2776 0.0
O908 O 0.90224 0.59085 0.29491 0.0
O909 O 0.94258 0.57927 0.29342 0.0
O910 O 0.92044 0.60438 0.23339 0.0
O911 O 0.87382 0.59514 0.24215 0.0
H912 H 0.82082 0.62441 0.35916 0.0
H913 H 0.78238 0.63453 0.39628 0.0
H914 H 0.72499 0.60743 0.32264 0.0
H915 H 0.76343 0.59689 0.28556 0.0
H916 H 0.95934 0.63532 0.19797 0.0
H917 H 0.98903 0.63376 0.149 0.0
H918 H 0.06015 0.64775 0.20968 0.0
H919 H 0.03065 0.64934 0.25845 0.0
Tb920 Tb 0.66198 0.61234 0.53923 0.0
Tb921 Tb 0.65849 0.6733 0.53015 0.0
C922 C 0.67438 0.56298 0.54808 0.0
C923 C 0.66535 0.54181 0.57156 0.0
C924 C 0.66293 0.54759 0.60522 0.0
C925 C 0.65473 0.52716 0.62714 0.0
C926 C 0.64853 0.50078 0.61574 0.0
C927 C 0.65035 0.49512 0.5821 0.0
C928 C 0.65881 0.51548 0.56019 0.0
C929 C 0.61144 0.63174 0.52567 0.0
C930 C 0.64744 0.648 0.60084 0.0
C931 C 0.64646 0.72132 0.51146 0.0
C932 C 0.64285 0.73742 0.48083 0.0
C933 C 0.6233 0.75863 0.47958 0.0
C934 C 0.62217 0.77651 0.45261 0.0
C935 C 0.64031 0.77322 0.42607 0.0
C936 C 0.65887 0.75108 0.42662 0.0
C937 C 0.66051 0.73378 0.45396 0.0
C938 C 0.70779 0.65525 0.55092 0.0
C939 C 0.67608 0.63557 0.46891 0.0
O940 O 0.68846 0.58348 0.56026 0.0
O941 O 0.65601 0.571 0.5267 0.0
O942 O 0.63422 0.63956 0.51489 0.0
O943 O 0.61681 0.61136 0.54504 0.0
O944 O 0.65975 0.62579 0.58979 0.0
O945 O 0.64132 0.66849 0.58049 0.0
O946 O 0.62802 0.7027 0.51853 0.0
O947 O 0.67138 0.71291 0.51798 0.0
O948 O 0.6914 0.64412 0.53116 0.0
O949 O 0.69605 0.67797 0.5598 0.0
O950 O 0.66862 0.6603 0.47952 0.0
O951 O 0.67742 0.61456 0.48938 0.0
H952 H 0.66753 0.5678 0.61466 0.0
H953 H 0.65339 0.53185 0.65303 0.0
H954 H 0.64566 0.47484 0.57295 0.0
H955 H 0.66038 0.51064 0.53436 0.0
H956 H 0.60964 0.7621 0.50013 0.0
H957 H 0.60781 0.79347 0.45295 0.0
H958 H 0.67325 0.7482 0.40665 0.0
H959 H 0.67639 0.71829 0.45474 0.0
Tb960 Tb 0.43428 0.4085 0.29187 0.0
Tb961 Tb 0.37368 0.4095 0.29215 0.0
C962 C 0.48335 0.39934 0.27452 0.0
C963 C 0.49797 0.39679 0.24258 0.0
C964 C 0.51673 0.37526 0.23761 0.0
C965 C 0.5323 0.37373 0.20869 0.0
C966 C 0.52943 0.39374 0.18416 0.0
C967 C 0.50997 0.4147 0.18853 0.0
C968 C 0.49431 0.41617 0.21736 0.0
C969 C 0.41313 0.456 0.31371 0.0
C970 C 0.40168 0.43179 0.22963 0.0
C971 C 0.32363 0.41697 0.3058 0.0
C972 C 0.30338 0.40912 0.3312 0.0
C973 C 0.29611 0.42807 0.35567 0.0
C974 C 0.27614 0.42156 0.37898 0.0
C975 C 0.26294 0.39608 0.37809 0.0
C976 C 0.27 0.37708 0.35373 0.0
C977 C 0.29004 0.38355 0.33041 0.0
C978 C 0.39466 0.36713 0.26054 0.0
C979 C 0.40598 0.39203 0.35812 0.0
O980 O 0.46597 0.37995 0.28217 0.0
O981 O 0.47384 0.42353 0.28213 0.0
O982 O 0.40428 0.44083 0.29107 0.0
O983 O 0.43526 0.44406 0.32462 0.0
O984 O 0.42435 0.4202 0.24092 0.0
O985 O 0.37923 0.43317 0.24765 0.0
O986 O 0.34343 0.43327 0.31514 0.0
O987 O 0.33244 0.39785 0.28598 0.0
O988 O 0.40369 0.37699 0.28737 0.0
O989 O 0.37185 0.37924 0.25325 0.0
O990 O 0.38256 0.39803 0.34324 0.0
O991 O 0.42968 0.39273 0.34204 0.0
H992 H 0.51991 0.36001 0.25653 0.0
H993 H 0.54736 0.35754 0.20599 0.0
H994 H 0.50756 0.43047 0.17006 0.0
H995 H 0.47989 0.4329 0.22022 0.0
H996 H 0.30573 0.44805 0.35666 0.0
H997 H 0.27092 0.43641 0.39768 0.0
H998 H 0.25994 0.35732 0.35278 0.0
H999 H 0.29491 0.36861 0.31169 0.0
Tb1000 Tb 0.37059 0.67735 1.03787 0.0
Tb1001 Tb 0.37126 0.61725 1.03973 0.0
C1002 C 0.37832 0.72675 1.02137 0.0
C1003 C 0.38215 0.74295 0.99064 0.0
C1004 C 0.40822 0.74575 0.97597 0.0
C1005 C 0.41187 0.76254 0.94837 0.0
C1006 C 0.38969 0.77747 0.93531 0.0
C1007 C 0.36359 0.77439 0.94955 0.0
C1008 C 0.35986 0.75734 0.97685 0.0
C1009 C 0.32357 0.65504 0.06003 0.0
C1010 C 0.34925 0.6437 0.97585 0.0
C1011 C 0.36346 0.56757 0.05344 0.0
C1012 C 0.37238 0.54688 0.07755 0.0
C1013 C 0.35332 0.53714 0.10059 0.0
C1014 C 0.36089 0.51709 0.12317 0.0
C1015 C 0.38758 0.50628 0.12287 0.0
C1016 C 0.40665 0.51562 0.09968 0.0
C1017 C 0.39913 0.53586 0.07716 0.0
C1018 C 0.41339 0.63788 1.00752 0.0
C1019 C 0.38798 0.65068 0.10521 0.0
O1020 O 0.39806 0.71013 1.03035 0.0
O1021 O 0.35411 0.71597 1.0263 0.0
O1022 O 0.33897 0.64663 1.0374 0.0
O1023 O 0.33475 0.67756 0.07062 0.0
O1024 O 0.36001 0.66682 0.98673 0.0
O1025 O 0.34786 0.62185 0.99473 0.0
O1026 O 0.34828 0.58756 0.06472 0.0
O1027 O 0.38162 0.57608 1.03216 0.0
O1028 O 0.40328 0.64771 1.03386 0.0
O1029 O 0.40199 0.61457 1.00154 0.0
O1030 O 0.38348 0.62681 0.09067 0.0
O1031 O 0.38586 0.67395 0.08855 0.0
H1032 H 0.42595 0.73531 0.98607 0.0
H1033 H 0.43221 0.76468 0.9379 0.0
H1034 H 0.34621 0.78579 0.94005 0.0
H1035 H 0.33958 0.75598 0.98767 0.0
H1036 H 0.3325 0.54504 0.10112 0.0
H1037 H 0.34598 0.51003 0.14098 0.0
H1038 H 0.42734 0.50739 0.09925 0.0
H1039 H 0.41422 0.54277 0.0595 0.0
Tb1040 Tb 0.10483 0.6246 0.78302 0.0
Tb1041 Tb 0.16759 0.61456 0.79275 0.0
C1042 C 0.06082 0.64802 0.76622 0.0
C1043 C 0.04229 0.64882 0.73728 0.0
C1044 C 0.05034 0.66099 0.70746 0.0
C1045 C 0.03182 0.66288 0.68118 0.0
C1046 C 1.00501 0.65255 0.68421 0.0
C1047 C 0.99705 0.64022 0.71379 0.0
C1048 C 1.01546 0.63843 0.74004 0.0
C1049 C 0.11458 0.57157 0.79683 0.0
C1050 C 0.13868 0.5996 0.72403 0.0
C1051 C 0.21571 0.59702 0.80022 0.0
C1052 C 0.23923 0.60592 0.82041 0.0
C1053 C 0.25212 0.58689 0.84113 0.0
C1054 C 0.27225 0.59541 0.86331 0.0
C1055 C 0.27991 0.62307 0.86494 0.0
C1056 C 0.26797 0.64196 0.84325 0.0
C1057 C 0.2476 0.6335 0.82129 0.0
C1058 C 0.15258 0.66578 0.7768 0.0
C1059 C 0.13273 0.63355 0.85405 0.0
O1060 O 0.0852 0.65906 0.76314 0.0
O1061 O 0.0616 0.62513 0.78293 0.0
O1062 O 0.13112 0.59152 0.79554 0.0
O1063 O 0.0906 0.58209 0.79064 0.0
O1064 O 0.11517 0.61048 0.73395 0.0
O1065 O 0.16029 0.5975 0.74382 0.0
O1066 O 0.19459 0.58766 0.8167 0.0
O1067 O 0.20834 0.61318 0.77613 0.0
O1068 O 0.14236 0.64345 0.76745 0.0
O1069 O 0.17314 0.65928 0.79563 0.0
O1070 O 0.15575 0.62222 0.84339 0.0
O1071 O 0.11139 0.63858 0.83433 0.0
H1072 H 0.07081 0.66935 0.70451 0.0
H1073 H 0.03828 0.67263 0.65863 0.0
H1074 H 0.9764 0.63227 0.71668 0.0
H1075 H 1.00857 0.62921 0.76274 0.0
H1076 H 0.24593 0.56558 0.84093 0.0
H1077 H 0.28127 0.58059 0.87991 0.0
H1078 H 0.27366 0.66339 0.84427 0.0
H1079 H 0.23789 0.64867 0.80575 0.0
Tb1080 Tb 0.15483 0.34381 0.5373 0.0
Tb1081 Tb 0.16044 0.40745 0.54653 0.0
C1082 C 0.13522 0.29886 0.51725 0.0
C1083 C 0.13612 0.28203 0.48687 0.0
C1084 C 0.11446 0.26388 0.47994 0.0
C1085 C 0.11557 0.24651 0.45255 0.0
C1086 C 0.13839 0.24691 0.43145 0.0
C1087 C 0.15979 0.26555 0.43788 0.0
C1088 C 0.15866 0.28297 0.46529 0.0
C1089 C 0.20591 0.35729 0.55709 0.0
C1090 C 0.18501 0.37805 0.48246 0.0
C1091 C 0.17429 0.45636 0.55632 0.0
C1092 C 0.16422 0.4791 0.57683 0.0
C1093 C 0.16785 0.50619 0.56631 0.0
C1094 C 0.16129 0.52803 0.58708 0.0
C1095 C 0.15127 0.523 0.61878 0.0
C1096 C 0.14666 0.49594 0.62891 0.0
C1097 C 0.15291 0.47412 0.608 0.0
C1098 C 0.1117 0.38904 0.52537 0.0
C1099 C 0.14034 0.37171 0.60692 0.0
O1100 O 0.12201 0.32221 0.51565 0.0
O1101 O 0.15812 0.30102 0.53392 0.0
O1102 O 0.18494 0.3723 0.5531 0.0
O1103 O 0.19732 0.33255 0.55129 0.0
O1104 O 0.17327 0.35448 0.49035 0.0
O1105 O 0.18261 0.40067 0.50033 0.0
O1106 O 0.18449 0.4355 0.57243 0.0
O1107 O 0.15869 0.44878 0.53177 0.0
O1108 O 0.13537 0.3801 0.51878 0.0
O1109 O 0.1153 0.41007 0.54435 0.0
O1110 O 0.1505 0.39524 0.59641 0.0
O1111 O 0.13761 0.34982 0.58743 0.0
H1112 H 0.09685 0.26276 0.49614 0.0
H1113 H 0.0989 0.23226 0.44824 0.0
H1114 H 0.17764 0.26619 0.42205 0.0
H1115 H 0.17562 0.29679 0.46995 0.0
H1116 H 0.17655 0.51045 0.54241 0.0
H1117 H 0.16497 0.54882 0.57892 0.0
H1118 H 0.13894 0.49171 0.65328 0.0
H1119 H 0.14975 0.45337 0.61661 0.0
Tb1120 Tb 0.42895 0.62473 0.31793 0.0
Tb1121 Tb 0.36884 0.6128 0.30836 0.0
C1122 C 0.47326 0.6437 0.34131 0.0
C1123 C 0.49059 0.64165 0.37119 0.0
C1124 C 0.47936 0.63767 0.40264 0.0
C1125 C 0.4966 0.63613 0.4303 0.0
C1126 C 0.52528 0.63875 0.42698 0.0
C1127 C 0.53634 0.64285 0.39558 0.0
C1128 C 0.51921 0.64429 0.36805 0.0
C1129 C 0.41844 0.57437 0.29528 0.0
C1130 C 0.39451 0.59324 0.37402 0.0
C1131 C 0.32243 0.59656 0.28963 0.0
C1132 C 0.3002 0.60607 0.26769 0.0
C1133 C 0.30427 0.6091 0.23374 0.0
C1134 C 0.28241 0.61684 0.21344 0.0
C1135 C 0.2563 0.6218 0.22679 0.0
C1136 C 0.25234 0.61933 0.26067 0.0
C1137 C 0.27408 0.61138 0.28092 0.0
C1138 C 0.37943 0.65993 0.33872 0.0
C1139 C 0.4033 0.63623 0.24744 0.0
O1140 O 0.44933 0.65572 0.34412 0.0
O1141 O 0.47202 0.62208 0.32252 0.0
O1142 O 0.4047 0.58857 0.31488 0.0
O1143 O 0.44057 0.58828 0.28898 0.0
O1144 O 0.41486 0.61062 0.36728 0.0
O1145 O 0.37667 0.58676 0.3508 0.0
O1146 O 0.3456 0.58886 0.27603 0.0
O1147 O 0.32631 0.61092 0.31629 0.0
O1148 O 0.39295 0.64946 0.31519 0.0
O1149 O 0.35745 0.64544 0.34258 0.0
O1150 O 0.38018 0.6255 0.25863 0.0
O1151 O 0.42489 0.64042 0.26702 0.0
H1152 H 0.45735 0.63566 0.40581 0.0
H1153 H 0.48761 0.63267 0.45421 0.0
H1154 H 0.55837 0.6447 0.39236 0.0
H1155 H 0.52837 0.64745 0.34416 0.0
H1156 H 0.32417 0.60522 0.22279 0.0
H1157 H 0.28576 0.61869 0.18729 0.0
H1158 H 0.23228 0.62306 0.2713 0.0
H1159 H 0.27041 0.60908 0.30696 0.0
Tb1160 Tb 0.15557 0.67556 0.06469 0.0
Tb1161 Tb 0.16123 0.61407 0.05876 0.0
C1162 C 0.1429 0.72293 0.08411 0.0
C1163 C 0.14025 0.73773 0.1159 0.0
C1164 C 0.11559 0.73733 0.134 0.0
C1165 C 0.11248 0.75392 0.16186 0.0
C1166 C 0.13387 0.77133 0.172 0.0
C1167 C 0.15884 0.77084 0.15486 0.0
C1168 C 0.16199 0.7543 0.12712 0.0
C1169 C 0.20469 0.65836 1.04331 0.0
C1170 C 0.17756 0.64174 0.12637 0.0
C1171 C 0.17606 0.56501 0.05317 0.0
C1172 C 0.1674 0.542 1.03228 0.0
C1173 C 0.18741 0.52428 1.01952 0.0
C1174 C 0.1802 0.50442 0.99643 0.0
C1175 C 0.15284 0.50192 0.98598 0.0
C1176 C 0.13255 0.5188 0.99978 0.0
C1177 C 0.13981 0.53887 1.02265 0.0
C1178 C 0.1105 0.63215 0.0738 0.0
C1179 C 0.1443 0.64773 0.99582 0.0
O1180 O 0.12468 0.70406 0.07692 0.0
O1181 O 0.16773 0.71568 0.07551 0.0
O1182 O 0.18902 0.64734 0.06381 0.0
O1183 O 0.19272 0.68096 1.03442 0.0
O1184 O 0.16756 0.66514 0.11504 0.0
O1185 O 0.17889 0.61965 0.10751 0.0
O1186 O 0.1879 0.58534 1.03765 0.0
O1187 O 0.1584 0.57346 0.07517 0.0
O1188 O 0.13338 0.64122 0.0828 0.0
O1189 O 0.11594 0.61107 0.05554 0.0
O1190 O 0.1571 0.62585 1.00731 0.0
O1191 O 0.13774 0.66859 1.01536 0.0
H1192 H 0.09838 0.72494 0.12605 0.0
H1193 H 0.09295 0.75417 0.17459 0.0
H1194 H 0.17551 0.78425 0.16208 0.0
H1195 H 0.1812 0.75525 0.11376 0.0
H1196 H 0.20879 0.5265 1.02648 0.0
H1197 H 0.19611 0.49172 0.98575 0.0
H1198 H 0.11141 0.51733 0.99162 0.0
H1199 H 0.12406 0.55253 1.03189 0.0
Tb1200 Tb 0.10084 0.40434 0.81694 0.0
Tb1201 Tb 0.16179 0.41026 0.80616 0.0
C1202 C 0.05458 0.38998 0.83962 0.0
C1203 C 0.03947 0.38838 0.87128 0.0
C1204 C 0.02072 0.36691 0.8764 0.0
C1205 C 1.00337 0.36678 0.90388 0.0
C1206 C 1.00437 0.38817 0.92684 0.0
C1207 C 0.02395 0.40908 0.92255 0.0
C1208 C 0.04137 0.40918 0.89507 0.0
C1209 C 0.11563 0.45203 0.78936 0.0
C1210 C 0.13722 0.43173 0.8733 0.0
C1211 C 0.2106 0.42511 0.79693 0.0
C1212 C 0.2332 0.41724 0.77475 0.0
C1213 C 0.22851 0.41246 0.74123 0.0
C1214 C 0.25041 0.40589 0.72048 0.0
C1215 C 0.2772 0.40371 0.73299 0.0
C1216 C 0.28182 0.40791 0.76654 0.0
C1217 C 0.25997 0.41475 0.78724 0.0
C1218 C 0.14516 0.3602 0.82463 0.0
C1219 C 0.12597 0.3897 0.74699 0.0
O1220 O 0.075 0.37293 0.83486 0.0
O1221 O 0.06005 0.41442 0.82837 0.0
O1222 O 0.1282 0.43808 0.81051 0.0
O1223 O 0.09301 0.43877 0.78321 0.0
O1224 O 0.11254 0.42313 0.86397 0.0
O1225 O 0.15931 0.42865 0.85474 0.0
O1226 O 0.18929 0.4371 0.78339 0.0
O1227 O 0.20352 0.40694 0.81894 0.0
O1228 O 0.13636 0.38309 0.83408 0.0
O1229 O 0.16491 0.36536 0.8042 0.0
O1230 O 0.14813 0.40338 0.75591 0.0
O1231 O 0.10598 0.38422 0.76837 0.0
H1232 H 0.01874 0.3507 0.85843 0.0
H1233 H 0.98834 0.35057 0.90651 0.0
H1234 H 0.025 0.42587 0.93983 0.0
H1235 H 0.05559 0.42602 0.89184 0.0
H1236 H 0.20801 0.41399 0.73101 0.0
H1237 H 0.24652 0.40258 0.69465 0.0
H1238 H 0.30238 0.40624 0.77655 0.0
H1239 H 0.26399 0.41826 0.81301 0.0
Tb1240 Tb 0.37516 0.35047 0.56805 0.0
Tb1241 Tb 0.36687 0.41054 0.55996 0.0
C1242 C 0.38871 0.30341 0.58791 0.0
C1243 C 0.39146 0.2886 0.61958 0.0
C1244 C 0.41575 0.28993 0.63834 0.0
C1245 C 0.41906 0.27327 0.66611 0.0
C1246 C 0.39824 0.2549 0.67538 0.0
C1247 C 0.3736 0.25444 0.65758 0.0
C1248 C 0.37026 0.27104 0.62997 0.0
C1249 C 0.3251 0.36463 0.54599 0.0
C1250 C 0.35306 0.38471 0.62913 0.0
C1251 C 0.35073 0.45879 0.55122 0.0
C1252 C 0.35875 0.48052 0.52782 0.0
C1253 C 0.35423 0.47737 0.49396 0.0
C1254 C 0.36212 0.49786 0.47207 0.0
C1255 C 0.37478 0.52177 0.48352 0.0
C1256 C 0.37955 0.52501 0.51718 0.0
C1257 C 0.3715 0.50455 0.5392 0.0
C1258 C 0.41873 0.39571 0.57483 0.0
C1259 C 0.38623 0.37676 0.49869 0.0
O1260 O 0.4065 0.32268 0.58101 0.0
O1261 O 0.3638 0.31017 0.57915 0.0
O1262 O 0.33993 0.37675 0.56653 0.0
O1263 O 0.33873 0.34301 0.53718 0.0
O1264 O 0.36365 0.36144 0.61831 0.0
O1265 O 0.35059 0.40623 0.60952 0.0
O1266 O 0.33833 0.43731 0.53884 0.0
O1267 O 0.36911 0.45207 0.57321 0.0
O1268 O 0.39658 0.38581 0.58523 0.0
O1269 O 0.41179 0.41523 0.55491 0.0
O1270 O 0.37135 0.39766 0.50894 0.0
O1271 O 0.39393 0.35709 0.51926 0.0
H1272 H 0.43254 0.30312 0.63098 0.0
H1273 H 0.4383 0.27376 0.67944 0.0
H1274 H 0.35737 0.2403 0.66423 0.0
H1275 H 0.35136 0.26937 0.61605 0.0
H1276 H 0.34457 0.45912 0.48426 0.0
H1277 H 0.35821 0.49516 0.44614 0.0
H1278 H 0.38917 0.54348 0.52635 0.0
H1279 H 0.37523 0.50747 0.56513 0.0
C1280 C 0.32185 0.12492 0.20996 0.0
C1281 C 0.29414 0.13399 0.20855 0.0
C1282 C 0.30371 0.15802 0.1571 0.0
C1283 C 0.32986 0.14515 0.15581 0.0
N1284 N 0.36462 0.11694 0.1808 0.0
N1285 N 0.25757 0.15691 0.17927 0.0
C1286 C 0.33922 0.12886 0.18232 0.0
C1287 C 0.28481 0.15025 0.18192 0.0
N1288 N 0.33159 0.11308 0.23802 0.0
N1289 N 0.29687 0.17763 0.13463 0.0
H1290 H 0.24283 0.15119 0.19647 0.0
H1291 H 0.24903 0.16623 0.1587 0.0
H1292 H 0.31009 0.18388 0.11608 0.0
H1293 H 0.27919 0.18959 0.13619 0.0
H1294 H 0.35217 0.10819 0.24185 0.0
H1295 H 0.31938 0.11023 0.25876 0.0
H1296 H 0.37147 0.10209 0.1972 0.0
H1297 H 0.3786 0.1213 0.16216 0.0
C1298 C 0.15042 0.08244 0.42773 0.0
C1299 C 0.13335 0.07408 0.40139 0.0
C1300 C 0.12922 0.02823 0.42554 0.0
C1301 C 0.14589 0.03669 0.45222 0.0
N1302 N 0.16767 0.07306 0.48246 0.0
N1303 N 0.10073 0.04161 0.37959 0.0
C1304 C 0.15512 0.06421 0.45443 0.0
C1305 C 0.1208 0.04783 0.40178 0.0
N1306 N 0.16223 0.10781 0.42705 0.0
N1307 N 0.12254 1.00117 0.42198 0.0
H1308 H 0.09392 0.05537 0.36191 0.0
H1309 H 0.08897 0.02382 0.38059 0.0
H1310 H 0.12859 0.98606 0.43854 0.0
H1311 H 0.11298 0.99322 0.40125 0.0
H1312 H 0.1776 0.11408 0.44312 0.0
H1313 H 0.15719 0.12241 0.4094 0.0
H1314 H 0.17257 0.09345 0.48703 0.0
H1315 H 0.17123 0.06029 0.50252 0.0
C1316 C 0.21477 0.91104 0.69468 0.0
C1317 C 0.23204 0.88891 0.70404 0.0
C1318 C 0.2047 0.8575 0.67043 0.0
C1319 C 0.19052 0.88035 0.65686 0.0
N1320 N 0.1731 0.9256 0.66683 0.0
N1321 N 0.24489 0.84135 0.69979 0.0
C1322 C 0.19292 0.90626 0.67224 0.0
C1323 C 0.22734 0.86218 0.69173 0.0
N1324 N 0.22012 0.93685 0.70602 0.0
N1325 N 0.1952 0.83149 0.66558 0.0
H1326 H 0.26105 0.84368 0.71636 0.0
H1327 H 0.24472 0.82237 0.68817 0.0
H1328 H 0.17595 0.82739 0.65566 0.0
H1329 H 0.2039 0.81423 0.67642 0.0
H1330 H 0.21041 0.95438 0.69724 0.0
H1331 H 0.23572 0.9411 0.7228 0.0
H1332 H 0.17209 0.94425 0.67908 0.0
H1333 H 0.15565 0.92147 0.6528 0.0
C1334 C 0.37836 0.93804 0.93314 0.0
C1335 C 0.39332 0.94758 0.90562 0.0
C1336 C 0.39801 0.99291 0.93103 0.0
C1337 C 0.38306 0.98338 0.95867 0.0
N1338 N 0.3643 0.94573 0.98952 0.0
N1339 N 0.42276 0.98173 0.88122 0.0
C1340 C 0.37487 0.95552 0.96078 0.0
C1341 C 0.40507 0.97421 0.90564 0.0
N1342 N 0.36708 0.91241 0.93252 0.0
N1343 N 0.40407 0.02017 0.92815 0.0
H1344 H 0.42782 0.96903 0.86165 0.0
H1345 H 0.43424 0.99971 0.88158 0.0
H1346 H 0.39887 0.03467 0.94582 0.0
H1347 H 0.41251 0.02897 0.90724 0.0
H1348 H 0.35315 0.90528 0.94988 0.0
H1349 H 0.37082 0.89852 0.91362 0.0
H1350 H 0.36024 0.92513 0.99386 0.0
H1351 H 0.3617 0.95801 1.0102 0.0
C1352 C 0.30312 0.86482 0.44346 0.0
C1353 C 0.32721 0.88131 0.44428 0.0
C1354 C 0.31077 0.90731 0.39683 0.0
C1355 C 0.28729 0.8901 0.39515 0.0
N1356 N 0.2644 0.84854 0.41158 0.0
N1357 N 0.35712 0.91348 0.41747 0.0
C1358 C 0.28456 0.86754 0.41678 0.0
C1359 C 0.33204 0.90101 0.41948 0.0
N1360 N 0.29691 0.84784 0.46905 0.0
N1361 N 0.31212 0.93047 0.37807 0.0
H1362 H 0.37321 0.90889 0.4335 0.0
H1363 H 0.36284 0.92616 0.39812 0.0
H1364 H 0.29681 0.9361 0.36149 0.0
H1365 H 0.32727 0.94534 0.38092 0.0
H1366 H 0.27793 0.83821 0.4716 0.0
H1367 H 0.30965 0.84498 0.48924 0.0
H1368 H 0.26315 0.83019 0.42451 0.0
H1369 H 0.25045 0.84988 0.39222 0.0
C1370 C 0.38769 0.02803 0.67772 0.0
C1371 C 0.39583 0.0366 0.64615 0.0
C1372 C 0.41204 0.08035 0.66869 0.0
C1373 C 0.4005 0.0733 0.69962 0.0
N1374 N 0.37508 0.0403 0.73265 0.0
N1375 N 0.41455 0.07086 0.61026 0.0
C1376 C 0.38779 0.04709 0.70389 0.0
C1377 C 0.40793 0.06266 0.64129 0.0
N1378 N 0.38025 1.00133 0.68287 0.0
N1379 N 0.42663 0.10403 0.66531 0.0
H1380 H 0.41274 0.05799 0.58997 0.0
H1381 H 0.42033 0.09075 0.60421 0.0
H1382 H 0.42858 0.11821 0.68406 0.0
H1383 H 0.43823 0.10888 0.64469 0.0
H1384 H 0.37738 0.99285 0.70602 0.0
H1385 H 0.37929 0.98679 0.66421 0.0
H1386 H 0.36163 0.02383 0.735 0.0
H1387 H 0.3768 0.05138 0.75419 0.0
C1388 C 0.19458 0.14741 0.9203 0.0
C1389 C 0.20533 0.14381 0.95249 0.0
C1390 C 0.25183 0.14229 0.92953 0.0
C1391 C 0.24078 0.14017 0.89776 0.0
N1392 N 0.20138 0.13939 0.8621 0.0
N1393 N 0.24517 0.13371 0.9867 0.0
C1394 C 0.21204 0.14259 0.8928 0.0
C1395 C 0.2342 0.14009 0.95686 0.0
N1396 N 0.16791 0.15535 0.91588 0.0
N1397 N 0.27925 0.14716 0.93368 0.0
H1398 H 0.23396 0.13254 1.00822 0.0
H1399 H 0.26555 0.12753 0.98967 0.0
H1400 H 0.29274 0.14942 0.91399 0.0
H1401 H 0.28778 0.15216 0.95633 0.0
H1402 H 0.15983 0.16074 0.89314 0.0
H1403 H 0.15438 0.1588 0.9352 0.0
H1404 H 0.18038 0.13782 0.85743 0.0
H1405 H 0.2137 0.13652 0.84147 0.0
C1406 C 0.10766 0.95959 0.18111 0.0
C1407 C 0.12807 0.94095 0.19186 0.0
C1408 C 0.16022 0.96026 0.15162 0.0
C1409 C 0.14209 0.98276 0.1474 0.0
N1410 N 0.0985 1.00451 0.15859 0.0
N1411 N 0.17182 0.91937 0.18264 0.0
C1412 C 0.11563 0.98249 0.16194 0.0
C1413 C 0.15371 0.93986 0.17527 0.0
N1414 N 0.08066 0.95484 0.18783 0.0
N1415 N 0.1834 0.95839 0.13279 0.0
H1416 H 0.16616 0.90261 0.19696 0.0
H1417 H 0.19222 0.91897 0.175 0.0
H1418 H 0.18862 0.97306 0.11527 0.0
H1419 H 0.19647 0.94152 0.13266 0.0
H1420 H 0.06472 0.96684 0.1786 0.0
H1421 H 0.07408 0.93667 0.19844 0.0
H1422 H 0.08033 1.00664 0.17187 0.0
H1423 H 0.10347 0.02162 0.14448 0.0
C1424 C 0.74211 0.87266 0.91415 0.0
C1425 C 0.73755 0.89607 0.89434 0.0
C1426 C 0.69224 0.90229 0.91921 0.0
C1427 C 0.69898 0.88233 0.94303 0.0
N1428 N 0.73039 0.84789 0.96349 0.0
N1429 N 0.7089 0.93416 0.87834 0.0
C1430 C 0.7237 0.86692 0.94028 0.0
C1431 C 0.7126 0.91099 0.89661 0.0
N1432 N 0.76396 0.85585 0.90774 0.0
N1433 N 0.6661 0.91246 0.91797 0.0
H1434 H 0.72323 0.94103 0.8612 0.0
H1435 H 0.69251 0.94761 0.88172 0.0
H1436 H 0.65065 0.90523 0.93343 0.0
H1437 H 0.65905 0.9255 0.8996 0.0
H1438 H 0.76696 0.837 0.91912 0.0
H1439 H 0.77789 0.85961 0.88883 0.0
H1440 H 0.7498 0.83905 0.96555 0.0
H1441 H 0.71698 0.84176 0.98187 0.0
C1442 C 0.88521 0.95882 0.63773 0.0
C1443 C 0.88913 0.98735 0.64261 0.0
C1444 C 0.9085 0.97845 0.69695 0.0
C1445 C 0.9004 0.95077 0.69398 0.0
N1446 N 0.89428 0.91279 0.65768 0.0
N1447 N 0.90521 0.02485 0.67609 0.0
C1448 C 0.89259 0.94028 0.66316 0.0
C1449 C 0.90145 0.99731 0.67182 0.0
N1450 N 0.87374 0.94961 0.60924 0.0
N1451 N 0.92452 0.98611 0.72282 0.0
H1452 H 0.90029 0.03937 0.65829 0.0
H1453 H 0.91194 0.03364 0.69783 0.0
H1454 H 0.9314 0.97204 0.7402 0.0
H1455 H 0.93364 1.00528 0.72506 0.0
H1456 H 0.86742 0.92946 0.60566 0.0
H1457 H 0.86924 0.96253 0.58959 0.0
H1458 H 0.89088 0.90368 0.63501 0.0
H1459 H 0.90248 0.89953 0.67519 0.0
C1460 C 0.78113 0.13119 0.43078 0.0
C1461 C 0.7902 0.13586 0.39833 0.0
C1462 C 0.83544 0.15051 0.4188 0.0
C1463 C 0.82729 0.14307 0.45101 0.0
N1464 N 0.79286 0.12375 0.48742 0.0
N1465 N 0.82574 0.14861 0.36033 0.0
C1466 C 0.80027 0.13275 0.45693 0.0
C1467 C 0.81725 0.14538 0.39202 0.0
N1468 N 0.75396 0.12576 0.43669 0.0
N1469 N 0.86066 0.16211 0.4138 0.0
H1470 H 0.81263 0.14592 0.34036 0.0
H1471 H 0.84598 0.15256 0.35358 0.0
H1472 H 0.87523 0.16428 0.43237 0.0
H1473 H 0.86676 0.17087 0.39174 0.0
H1474 H 0.74526 0.12554 0.45998 0.0
H1475 H 0.73934 0.12366 0.41817 0.0
H1476 H 0.77528 0.11222 0.49198 0.0
H1477 H 0.80472 0.12644 0.50831 0.0
C1478 C 0.66363 0.06578 0.14595 0.0
C1479 C 0.64413 0.04523 0.1386 0.0
C1480 C 0.6132 0.06353 0.18077 0.0
C1481 C 0.63479 0.08081 0.19218 0.0
N1482 N 0.68091 0.09865 0.18503 0.0
N1483 N 0.60076 0.0233 0.14913 0.0
C1484 C 0.65999 0.08221 0.17434 0.0
C1485 C 0.61887 0.04397 0.15578 0.0
N1486 N 0.68568 0.06959 0.12566 0.0
N1487 N 0.58732 0.06559 0.19351 0.0
H1488 H 0.60366 1.00939 0.13006 0.0
H1489 H 0.58378 0.01884 0.16372 0.0
H1490 H 0.58187 0.07918 0.21192 0.0
H1491 H 0.57034 0.05556 0.18366 0.0
H1492 H 0.69903 0.08618 0.12741 0.0
H1493 H 0.68934 0.05745 0.1051 0.0
H1494 H 0.70094 0.09748 0.17617 0.0
H1495 H 0.67879 0.11276 0.20394 0.0
C1496 C 0.74658 0.1549 0.68123 0.0
C1497 C 0.74265 0.13178 0.70168 0.0
C1498 C 0.69675 0.12506 0.67837 0.0
C1499 C 0.70284 0.14475 0.65399 0.0
N1500 N 0.73449 0.17768 0.63066 0.0
N1501 N 0.71466 0.09365 0.71907 0.0
C1502 C 0.72777 0.15992 0.65529 0.0
C1503 C 0.71771 0.11674 0.70048 0.0
N1504 N 0.76836 0.17198 0.68667 0.0
N1505 N 0.67081 0.11444 0.68029 0.0
H1506 H 0.72948 0.08692 0.73569 0.0
H1507 H 0.69831 0.08009 0.71639 0.0
H1508 H 0.65503 0.12065 0.6646 0.0
H1509 H 0.66427 0.10174 0.69924 0.0
H1510 H 0.77089 0.19065 0.67469 0.0
H1511 H 0.78256 0.16873 0.70545 0.0
H1512 H 0.75389 0.18643 0.62817 0.0
H1513 H 0.72148 0.18234 0.6112 0.0
C1514 C 0.62515 0.99233 0.42426 0.0
C1515 C 0.64079 0.98547 0.45241 0.0
C1516 C 0.64888 0.93926 0.43083 0.0
C1517 C 0.63318 0.94615 0.4028 0.0
N1518 N 0.60107 0.97643 0.37592 0.0
N1519 N 0.66302 0.95144 0.48602 0.0
C1520 C 0.61949 0.97178 0.40062 0.0
C1521 C 0.65116 0.95853 0.45685 0.0
N1522 N 0.61685 0.0188 0.41939 0.0
N1523 N 0.66228 0.91466 0.43197 0.0
H1524 H 0.66526 0.96521 0.50536 0.0
H1525 H 0.66875 0.93152 0.49206 0.0
H1526 H 0.65975 0.89964 0.41403 0.0
H1527 H 0.67672 0.90952 0.44977 0.0
H1528 H 0.60861 0.02593 0.39743 0.0
H1529 H 0.61991 0.03429 0.4366 0.0
H1530 H 0.58862 0.99374 0.37456 0.0
H1531 H 0.59631 0.96182 0.35823 0.0
C1532 C 0.80758 0.86122 0.15235 0.0
C1533 C 0.83121 0.87793 0.14793 0.0
C1534 C 0.81996 0.90286 0.19843 0.0
C1535 C 0.79426 0.88921 0.19948 0.0
N1536 N 0.76215 0.85712 0.17604 0.0
N1537 N 0.86108 0.91364 0.16733 0.0
C1538 C 0.78781 0.86858 0.17635 0.0
C1539 C 0.83781 0.89839 0.17132 0.0
N1540 N 0.80389 0.83828 0.1338 0.0
N1541 N 0.82736 0.91973 0.22366 0.0
H1542 H 0.8757 0.90901 0.14955 0.0
H1543 H 0.8656 0.93114 0.18085 0.0
H1544 H 0.81467 0.92334 0.2438 0.0
H1545 H 0.84675 0.9285 0.22604 0.0
H1546 H 0.78904 0.82356 0.13901 0.0
H1547 H 0.81724 0.83234 0.11528 0.0
H1548 H 0.75502 0.84467 0.15716 0.0
H1549 H 0.74707 0.86171 0.19335 0.0
C1550 C 0.87356 0.07088 0.91202 0.0
C1551 C 0.90009 0.07207 0.89717 0.0
C1552 C 0.91584 0.03533 0.93394 0.0
C1553 C 0.8897 0.03522 0.94932 0.0
N1554 N 0.84682 0.05822 0.95965 0.0
N1555 N 0.94815 0.05949 0.8992 0.0
C1556 C 0.86965 0.05482 0.94053 0.0
C1557 C 0.92186 0.05577 0.91 0.0
N1558 N 0.85163 0.08414 0.89834 0.0
N1559 N 0.9344 0.01515 0.94102 0.0
H1560 H 0.95341 0.07413 0.88182 0.0
H1561 H 0.96513 0.04989 0.90969 0.0
H1562 H 0.93082 1.00018 0.95876 0.0
H1563 H 0.95243 1.01206 0.92778 0.0
H1564 H 0.8314 0.08094 0.90578 0.0
H1565 H 0.85313 0.09682 0.87802 0.0
H1566 H 0.83289 0.07423 0.95643 0.0
H1567 H 0.84333 0.04678 0.98085 0.0
C1568 C 0.81449 0.62917 0.69891 0.0
C1569 C 0.788 0.64125 0.69719 0.0
C1570 C 0.79965 0.66283 0.64475 0.0
C1571 C 0.82611 0.6505 0.64641 0.0
N1572 N 0.86127 0.62843 0.67835 0.0
N1573 N 0.75636 0.67286 0.67199 0.0
C1574 C 0.83428 0.63558 0.67453 0.0
C1575 C 0.78092 0.65918 0.67117 0.0
N1576 N 0.82043 0.6109 0.72333 0.0
N1577 N 0.79213 0.67719 0.61745 0.0
H1578 H 0.74186 0.67004 0.69051 0.0
H1579 H 0.75091 0.68829 0.65565 0.0
H1580 H 0.80587 0.68204 0.59882 0.0
H1581 H 0.77212 0.68347 0.61246 0.0
H1582 H 0.83813 0.59891 0.72375 0.0
H1583 H 0.80676 0.6063 0.74223 0.0
H1584 H 0.86923 0.61973 0.69962 0.0
H1585 H 0.87635 0.63387 0.66142 0.0
C1586 C 0.61012 0.57515 0.92264 0.0
C1587 C 0.63261 0.58976 0.90897 0.0
C1588 C 0.664 0.56856 0.94851 0.0
C1589 C 0.64258 0.55068 0.9584 0.0
N1590 N 0.59508 0.53679 0.95606 0.0
N1591 N 0.67636 0.61044 0.92028 0.0
C1592 C 0.61548 0.55412 0.94604 0.0
C1593 C 0.65821 0.58956 0.92552 0.0
N1594 N 0.58375 0.58274 0.91545 0.0
N1595 N 0.69025 0.56444 0.95949 0.0
H1596 H 0.67146 0.62716 0.90544 0.0
H1597 H 0.69447 0.61297 0.93355 0.0
H1598 H 0.69547 0.5493 0.97642 0.0
H1599 H 0.70726 0.57466 0.95 0.0
H1600 H 0.56646 0.57387 0.92602 0.0
H1601 H 0.57903 0.60073 0.90302 0.0
H1602 H 0.57583 0.53574 0.94497 0.0
H1603 H 0.5979 0.52223 0.97447 0.0
C1604 C 0.69802 0.37118 0.17895 0.0
C1605 C 0.69104 0.39364 0.15843 0.0
C1606 C 0.72359 0.42281 0.18806 0.0
C1607 C 0.73345 0.39951 0.20511 0.0
N1608 N 0.73082 0.35122 0.21697 0.0
N1609 N 0.68564 0.44274 0.15842 0.0
C1610 C 0.72077 0.37359 0.20076 0.0
C1611 C 0.70044 0.42015 0.16729 0.0
N1612 N 0.68111 0.34892 0.18034 0.0
N1613 N 0.73694 0.44734 0.19071 0.0
H1614 H 0.66639 0.44121 0.14738 0.0
H1615 H 0.69023 0.46248 0.16638 0.0
H1616 H 0.75397 0.45032 0.20584 0.0
H1617 H 0.73258 0.46408 0.17573 0.0
H1618 H 0.68403 0.33254 0.19629 0.0
H1619 H 0.66174 0.34888 0.16943 0.0
H1620 H 0.72467 0.33124 0.2119 0.0
H1621 H 0.74677 0.35245 0.23401 0.0
C1622 C 0.90492 0.46356 0.45439 0.0
C1623 C 0.88917 0.48791 0.45083 0.0
C1624 C 0.88023 0.47655 0.39358 0.0
C1625 C 0.89329 0.45064 0.39796 0.0
N1626 N 0.91399 0.41763 0.43439 0.0
N1627 N 0.85654 0.5143 0.41936 0.0
C1628 C 0.90457 0.44361 0.42892 0.0
C1629 C 0.87521 0.49338 0.42113 0.0
N1630 N 0.92086 0.45988 0.4816 0.0
N1631 N 0.8739 0.48602 0.36296 0.0
H1632 H 0.85186 0.52697 0.43916 0.0
H1633 H 0.84367 0.51729 0.39925 0.0
H1634 H 0.87785 0.4752 0.34158 0.0
H1635 H 0.86749 0.50605 0.35847 0.0
H1636 H 0.93499 0.44395 0.48399 0.0
H1637 H 0.92171 0.47408 0.50065 0.0
H1638 H 0.92001 0.41055 0.45738 0.0
H1639 H 0.9134 0.40232 0.41659 0.0
C1640 C 0.81324 0.41521 0.89971 0.0
C1641 C 0.79235 0.39534 0.89479 0.0
C1642 C 0.81757 0.36333 0.92977 0.0
C1643 C 0.83455 0.38505 0.94095 0.0
N1644 N 0.85219 0.43052 0.93207 0.0
N1645 N 0.77304 0.35117 0.90803 0.0
C1646 C 0.8335 0.41069 0.92439 0.0
C1647 C 0.7941 0.36955 0.91057 0.0
N1648 N 0.81414 0.43794 0.88013 0.0
N1649 N 0.82461 0.33672 0.93545 0.0
H1650 H 0.75529 0.35499 0.89442 0.0
H1651 H 0.77216 0.33329 0.92196 0.0
H1652 H 0.84379 0.33112 0.94443 0.0
H1653 H 0.81353 0.32023 0.92605 0.0
H1654 H 0.83016 0.45203 0.8803 0.0
H1655 H 0.79977 0.44172 0.8617 0.0
H1656 H 0.85053 0.45085 0.92468 0.0
H1657 H 0.8695 0.42639 0.94631 0.0
C1658 C 0.87941 0.58666 0.16706 0.0
C1659 C 0.89548 0.57718 0.19375 0.0
C1660 C 0.89935 0.53189 0.16827 0.0
C1661 C 0.88337 0.54136 0.14145 0.0
N1662 N 0.86308 0.57884 0.11158 0.0
N1663 N 0.92703 0.54354 0.21549 0.0
C1664 C 0.87486 0.56914 0.13972 0.0
C1665 C 0.90759 0.55071 0.19289 0.0
N1666 N 0.86845 0.61242 0.16803 0.0
N1667 N 0.90544 0.50462 0.17114 0.0
H1668 H 0.93366 0.55666 0.2339 0.0
H1669 H 0.93854 0.52558 0.21421 0.0
H1670 H 0.89942 0.48999 0.154 0.0
H1671 H 0.91453 0.49599 0.1918 0.0
H1672 H 0.85376 0.6196 0.15159 0.0
H1673 H 0.87362 0.62647 0.18623 0.0
H1674 H 0.85865 0.5994 0.10745 0.0
H1675 H 0.8597 0.56654 0.09109 0.0
C1676 C 0.71614 0.65125 0.39148 0.0
C1677 C 0.72787 0.62503 0.38579 0.0
C1678 C 0.69528 0.60484 0.42466 0.0
C1679 C 0.68749 0.6315 0.43491 0.0
N1680 N 0.6777 0.67647 0.41418 0.0
N1681 N 0.72918 0.57655 0.39753 0.0
C1682 C 0.69423 0.65393 0.41442 0.0
C1683 C 0.71732 0.60165 0.40219 0.0
N1684 N 0.72635 0.67367 0.3756 0.0
N1685 N 0.68003 0.58279 0.43429 0.0
H1686 H 0.74526 0.57319 0.38113 0.0
H1687 H 0.7245 0.55949 0.41181 0.0
H1688 H 0.66168 0.58505 0.44724 0.0
H1689 H 0.68324 0.563 0.42558 0.0
H1690 H 0.72091 0.69367 0.38167 0.0
H1691 H 0.74159 0.67233 0.35769 0.0
H1692 H 0.68014 0.6927 0.39788 0.0
H1693 H 0.65905 0.6769 0.42676 0.0
C1694 C 0.65473 0.43903 0.67223 0.0
C1695 C 0.62964 0.44085 0.68973 0.0
C1696 C 0.61445 0.47792 0.65327 0.0
C1697 C 0.64119 0.47875 0.63932 0.0
N1698 N 0.68744 0.46101 0.63614 0.0
N1699 N 0.58148 0.45314 0.68647 0.0
C1700 C 0.66138 0.45922 0.64852 0.0
C1701 C 0.6081 0.45763 0.67726 0.0
N1702 N 0.67154 0.417 0.67733 0.0
N1703 N 0.59541 0.49716 0.64435 0.0
H1704 H 0.5754 0.4368 0.70103 0.0
H1705 H 0.56472 0.46331 0.6763 0.0
H1706 H 0.59875 0.51126 0.62556 0.0
H1707 H 0.57699 0.5003 0.65676 0.0
H1708 H 0.68901 0.4129 0.66346 0.0
H1709 H 0.66601 0.40099 0.6929 0.0
H1710 H 0.70393 0.44957 0.64497 0.0
H1711 H 0.69323 0.47542 0.61859 0.0
C1712 C 0.22869 0.36517 0.45332 0.0
C1713 C 0.20303 0.37921 0.4531 0.0
C1714 C 0.21503 0.40045 0.40046 0.0
C1715 C 0.24188 0.38927 0.4031 0.0
N1716 N 0.27567 0.36364 0.43359 0.0
N1717 N 0.17135 0.4101 0.42682 0.0
C1718 C 0.24905 0.37217 0.42983 0.0
C1719 C 0.19608 0.39681 0.42669 0.0
N1720 N 0.23366 0.34499 0.47576 0.0
N1721 N 0.20752 0.41395 0.37249 0.0
H1722 H 0.15609 0.40588 0.444 0.0
H1723 H 0.16624 0.42587 0.41076 0.0
H1724 H 0.22095 0.41703 0.35291 0.0
H1725 H 0.18753 0.42033 0.36749 0.0
H1726 H 0.25075 0.33216 0.47494 0.0
H1727 H 0.2196 0.33921 0.49358 0.0
H1728 H 0.28301 0.35399 0.45461 0.0
H1729 H 0.29118 0.36815 0.4168 0.0
C1730 C 0.41625 0.47434 0.20058 0.0
C1731 C 0.40294 0.44845 0.19955 0.0
C1732 C 0.38568 0.45837 0.14448 0.0
C1733 C 0.39545 0.4856 0.14767 0.0
N1734 N 0.41859 0.52055 0.179 0.0
N1735 N 0.37529 0.41516 0.17125 0.0
C1736 C 0.41072 0.49379 0.17558 0.0
C1737 C 0.3879 0.44018 0.17155 0.0
N1738 N 0.43393 0.48046 0.22559 0.0
N1739 N 0.37467 0.44993 0.11536 0.0
H1740 H 0.37806 0.40072 0.18981 0.0
H1741 H 0.36128 0.40907 0.15342 0.0
H1742 H 0.37287 0.46285 0.0951 0.0
H1743 H 0.36937 0.42973 0.11029 0.0
H1744 H 0.44647 0.49772 0.22586 0.0
H1745 H 0.43784 0.46733 0.24514 0.0
H1746 H 0.42699 0.52862 0.20036 0.0
H1747 H 0.41506 0.53545 0.16117 0.0
C1748 C 0.28831 0.64641 0.91882 0.0
C1749 C 0.29896 0.63234 0.89113 0.0
C1750 C 0.34436 0.62958 0.91719 0.0
C1751 C 0.33363 0.64352 0.94481 0.0
N1752 N 0.2978 0.67097 0.96917 0.0
N1753 N 0.33788 0.61582 0.86051 0.0
C1754 C 0.3064 0.65398 0.94459 0.0
C1755 C 0.3273 0.62559 0.88924 0.0
N1756 N 0.26064 0.65113 0.92134 0.0
N1757 N 0.37066 0.61971 0.91806 0.0
H1758 H 0.32586 0.61282 0.83964 0.0
H1759 H 0.35878 0.61278 0.8564 0.0
H1760 H 0.38412 0.62384 0.93733 0.0
H1761 H 0.37883 0.60659 0.90049 0.0
H1762 H 0.25118 0.65877 0.94228 0.0
H1763 H 0.24655 0.6456 0.90329 0.0
H1764 H 0.27918 0.68148 0.9688 0.0
H1765 H 0.31023 0.67651 0.98886 0.0
C1766 C 0.11765 0.57764 0.67273 0.0
C1767 C 0.14103 0.58697 0.6905 0.0
C1768 C 0.17106 0.55841 0.65647 0.0
C1769 C 0.14756 0.54603 0.6422 0.0
N1770 N 0.09834 0.54339 0.63619 0.0
N1771 N 0.18917 0.59744 0.68579 0.0
C1772 C 0.12078 0.55564 0.65002 0.0
C1773 C 0.16758 0.5807 0.67829 0.0
N1774 N 0.09325 0.5914 0.67495 0.0
N1775 N 0.19668 0.54793 0.65067 0.0
H1776 H 0.18647 0.61565 0.69875 0.0
H1777 H 0.20865 0.59541 0.67547 0.0
H1778 H 0.20029 0.53144 0.63503 0.0
H1779 H 0.21411 0.55408 0.66356 0.0
H1780 H 0.07587 0.58652 0.66128 0.0
H1781 H 0.0915 0.61047 0.68612 0.0
H1782 H 0.07826 0.54682 0.64399 0.0
H1783 H 0.09989 0.52841 0.61808 0.0
C1784 C 0.20724 0.66193 0.17176 0.0
C1785 C 0.19084 0.64017 0.15941 0.0
C1786 C 0.21349 0.60794 0.1968 0.0
C1787 C 0.23273 0.62864 0.20515 0.0
N1788 N 0.24873 0.67521 0.20074 0.0
N1789 N 0.17009 0.59665 0.17075 0.0
C1790 C 0.22969 0.65569 0.19289 0.0
C1791 C 0.19146 0.61438 0.1753 0.0
N1792 N 0.20031 0.68855 0.16547 0.0
N1793 N 0.21726 0.58173 0.20781 0.0
H1794 H 0.15294 0.60195 0.15673 0.0
H1795 H 0.16776 0.57835 0.18354 0.0
H1796 H 0.23312 0.57614 0.22367 0.0
H1797 H 0.20591 0.56507 0.1995 0.0
H1798 H 0.21055 0.70528 0.17546 0.0
H1799 H 0.18186 0.69422 0.15455 0.0
H1800 H 0.24994 0.69416 0.18913 0.0
H1801 H 0.26456 0.67183 0.21751 0.0
C1802 C 0.1466 0.47781 0.89806 0.0
C1803 C 0.13951 0.44973 0.90248 0.0
C1804 C 0.14004 0.456 0.9622 0.0
C1805 C 0.14632 0.48412 0.95755 0.0
N1806 N 0.15025 0.52317 0.92166 0.0
N1807 N 0.12578 0.41276 0.93801 0.0
C1808 C 0.14793 0.49542 0.92564 0.0
C1809 C 0.13491 0.43906 0.93437 0.0
N1810 N 0.15273 0.48767 0.86756 0.0
N1811 N 0.13978 0.44541 0.99321 0.0
H1812 H 0.12325 0.39937 0.91834 0.0
H1813 H 0.11917 0.40458 0.96019 0.0
H1814 H 0.14249 0.45749 1.01404 0.0
H1815 H 0.13839 0.42459 0.99838 0.0
H1816 H 0.16162 0.50673 0.86335 0.0
H1817 H 0.15061 0.47632 0.84621 0.0
H1818 H 0.14776 0.53307 0.89926 0.0
H1819 H 0.15243 0.5368 0.94114 0.0
C1820 C 0.33956 0.41293 0.6776 0.0
C1821 C 0.3409 0.38673 0.66277 0.0
C1822 C 0.30469 0.37018 0.69962 0.0
C1823 C 0.30055 0.39743 0.71074 0.0
N1824 N 0.31334 0.44517 0.71016 0.0
N1825 N 0.33456 0.33811 0.67168 0.0
C1826 C 0.31816 0.41886 0.70019 0.0
C1827 C 0.32641 0.3645 0.67723 0.0
N1828 N 0.35973 0.43161 0.67104 0.0
N1829 N 0.28734 0.34986 0.7098 0.0
H1830 H 0.35282 0.33308 0.65992 0.0
H1831 H 0.32577 0.32117 0.68305 0.0
H1832 H 0.27234 0.35284 0.7277 0.0
H1833 H 0.28663 0.33051 0.69915 0.0
H1834 H 0.36155 0.45036 0.68296 0.0
H1835 H 0.37659 0.42685 0.65628 0.0
H1836 H 0.32329 0.46213 0.70028 0.0
H1837 H 0.29794 0.4504 0.72678 0.0
C1838 C 0.36076 0.56198 0.44974 0.0
C1839 C 0.3817 0.54384 0.45995 0.0
C1840 C 0.41382 0.56517 0.42129 0.0
C1841 C 0.39147 0.57973 0.40671 0.0
N1842 N 0.3428 0.59127 0.40731 0.0
N1843 N 0.42779 0.52647 0.45476 0.0
C1844 C 0.36475 0.57811 0.4212 0.0
C1845 C 0.40823 0.54517 0.44581 0.0
N1846 N 0.33704 0.56394 0.46758 0.0
N1847 N 0.44033 0.57017 0.41206 0.0
H1848 H 0.42472 0.51211 0.47334 0.0
H1849 H 0.44629 0.52391 0.44231 0.0
H1850 H 0.44595 0.58399 0.39399 0.0
H1851 H 0.45728 0.56232 0.42455 0.0
H1852 H 0.32224 0.57903 0.46371 0.0
H1853 H 0.33328 0.55209 0.48838 0.0
H1854 H 0.32248 0.58735 0.41382 0.0
H1855 H 0.34436 0.60513 0.38807 0.0
C1856 C 0.12525 0.22979 0.37473 0.0
C1857 C 0.14073 0.22646 0.40405 0.0
C1858 C 0.16181 0.18476 0.38123 0.0
C1859 C 0.14439 0.18652 0.35328 0.0
N1860 N 0.10819 0.20961 0.32408 0.0
N1861 N 0.17046 0.19842 0.43739 0.0
C1862 C 0.12574 0.20879 0.35021 0.0
C1863 C 0.15822 0.20337 0.40779 0.0
N1864 N 0.11066 0.2534 0.37 0.0
N1865 N 0.18226 0.16555 0.38228 0.0
H1866 H 0.16851 0.21148 0.45746 0.0
H1867 H 0.18059 0.18022 0.44302 0.0
H1868 H 0.185 0.15071 0.36429 0.0
H1869 H 0.19776 0.16547 0.39988 0.0
H1870 H 0.10113 0.25854 0.34802 0.0
H1871 H 0.10975 0.26897 0.38745 0.0
H1872 H 0.09192 0.22336 0.32205 0.0
H1873 H 0.10892 0.19532 0.30509 0.0
C1874 C 0.08203 0.91399 0.61193 0.0
C1875 C 0.08575 0.89094 0.5911 0.0
C1876 C 0.04082 0.87355 0.60975 0.0
C1877 C 0.04027 0.89368 0.63504 0.0
N1878 N 0.04775 0.94236 0.63745 0.0
N1879 N 0.06779 0.84871 0.56941 0.0
C1880 C 0.05721 0.91687 0.62976 0.0
C1881 C 0.06485 0.87068 0.58976 0.0
N1882 N 0.10248 0.93277 0.61606 0.0
N1883 N 0.01693 0.86118 0.60054 0.0
H1884 H 0.08429 0.84673 0.55326 0.0
H1885 H 0.05473 0.83181 0.57016 0.0
H1886 H 0.99796 0.86797 0.60933 0.0
H1887 H 1.01541 0.84793 0.58063 0.0
H1888 H 0.10113 0.94857 0.63318 0.0
H1889 H 0.12172 0.93084 0.60521 0.0
H1890 H 0.05835 0.96021 0.63136 0.0
H1891 H 0.02765 0.94548 0.64565 0.0
C1892 C 0.38164 0.81565 0.85375 0.0
C1893 C 0.39633 0.84014 0.86036 0.0
C1894 C 0.40857 0.82254 0.91489 0.0
C1895 C 0.39397 0.79797 0.90842 0.0
N1896 N 0.37211 0.76841 0.86905 0.0
N1897 N 0.43087 0.8626 0.89251 0.0
C1898 C 0.3823 0.79363 0.87689 0.0
C1899 C 0.41216 0.84207 0.88941 0.0
N1900 N 0.36619 0.81393 0.82589 0.0
N1901 N 0.41762 0.82814 0.94589 0.0
H1902 H 0.43464 0.876 0.87337 0.0
H1903 H 0.44484 0.86402 0.91179 0.0
H1904 H 0.41501 0.8148 0.96558 0.0
H1905 H 0.42552 0.8471 0.95279 0.0
H1906 H 0.35227 0.79821 0.8213 0.0
H1907 H 0.36662 0.82906 0.80782 0.0
H1908 H 0.36552 0.76311 0.84563 0.0
H1909 H 0.37243 0.75199 0.88541 0.0
C1910 C 0.46008 0.15136 0.10095 0.0
C1911 C 0.43971 0.1306 0.10229 0.0
C1912 C 0.4631 0.11052 0.15018 0.0
C1913 C 0.48102 0.13339 0.15163 0.0
N1914 N 0.49476 0.17737 0.13033 0.0
N1915 N 0.41967 0.09232 0.13136 0.0
C1916 C 0.47916 0.15425 0.12739 0.0
C1917 C 0.44071 0.1106 0.12768 0.0
N1918 N 0.46154 0.16797 0.07408 0.0
N1919 N 0.46782 0.08838 0.16992 0.0
H1920 H 0.40264 0.09169 0.11594 0.0
H1921 H 0.41773 0.07948 0.1516 0.0
H1922 H 0.48412 0.08749 0.18651 0.0
H1923 H 0.45733 0.0699 0.16757 0.0
H1924 H 0.4775 0.18177 0.07006 0.0
H1925 H 0.44793 0.16628 0.05441 0.0
H1926 H 0.4921 0.19461 0.11564 0.0
H1927 H 0.50899 0.18015 0.14915 0.0
C1928 C 0.11057 0.83765 0.21295 0.0
C1929 C 0.12643 0.83746 0.24217 0.0
C1930 C 0.14139 0.79041 0.22905 0.0
C1931 C 0.12918 0.79279 0.19755 0.0
N1932 N 0.1045 0.82017 0.15801 0.0
N1933 N 0.15739 0.81362 0.27824 0.0
C1934 C 0.11413 0.81668 0.18924 0.0
C1935 C 0.14169 0.8136 0.25049 0.0
N1936 N 0.09172 0.8578 0.20795 0.0
N1937 N 0.15259 0.76596 0.23838 0.0
H1938 H 0.15696 0.82971 0.29504 0.0
H1939 H 0.1716 0.79839 0.28394 0.0
H1940 H 0.15278 0.74885 0.22306 0.0
H1941 H 0.15966 0.76194 0.26196 0.0
H1942 H 0.07752 0.85783 0.18884 0.0
H1943 H 0.08807 0.87256 0.22548 0.0
H1944 H 0.09654 0.83863 0.14938 0.0
H1945 H 0.1065 0.80544 0.13969 0.0
C1946 C 0.48317 0.90198 0.47027 0.0
C1947 C 0.4839 0.8831 0.4438 0.0
C1948 C 0.44046 0.86292 0.46265 0.0
C1949 C 0.43912 0.88222 0.48868 0.0
N1950 N 0.46226 0.91548 0.52206 0.0
N1951 N 0.46776 0.84088 0.42041 0.0
C1952 C 0.46167 0.90011 0.49412 0.0
C1953 C 0.46403 0.86196 0.44198 0.0
N1954 N 0.50221 0.9225 0.47166 0.0
N1955 N 0.41843 0.84658 0.45629 0.0
H1956 H 0.48475 0.8397 0.40487 0.0
H1957 H 0.45552 0.82339 0.42009 0.0
H1958 H 0.40174 0.84556 0.47197 0.0
H1959 H 0.41623 0.83506 0.43499 0.0
H1960 H 0.50115 0.93881 0.48801 0.0
H1961 H 0.51849 0.92399 0.45514 0.0
H1962 H 0.47897 0.92737 0.52914 0.0
H1963 H 0.4468 0.91429 0.53974 0.0
C1964 C 0.41773 0.20951 0.69272 0.0
C1965 C 0.40304 0.23364 0.70101 0.0
C1966 C 0.38838 0.21252 0.75286 0.0
C1967 C 0.40235 0.1881 0.74397 0.0
N1968 N 0.43604 0.16587 0.71033 0.0
N1969 N 0.37964 0.26074 0.74151 0.0
C1970 C 0.41904 0.18759 0.71556 0.0
C1971 C 0.39016 0.23602 0.73209 0.0
N1972 N 0.4289 0.20676 0.66213 0.0
N1973 N 0.37239 0.21273 0.78037 0.0
H1974 H 0.38066 0.2781 0.72661 0.0
H1975 H 0.37194 0.26468 0.76481 0.0
H1976 H 0.37185 0.19631 0.79674 0.0
H1977 H 0.359 0.22857 0.78643 0.0
H1978 H 0.43665 0.1884 0.65303 0.0
H1979 H 0.4288 0.22237 0.64471 0.0
H1980 H 0.4508 0.16517 0.69189 0.0
H1981 H 0.43689 0.14945 0.72644 0.0
C1982 C 0.07495 0.15334 0.99745 0.0
C1983 C 0.09821 0.13653 0.99054 0.0
C1984 C 0.07847 0.12609 0.9362 0.0
C1985 C 0.05661 0.14459 0.94197 0.0
N1986 N 0.03634 0.1795 0.97585 0.0
N1987 N 0.12507 0.11331 0.94878 0.0
C1988 C 0.0556 0.1594 0.97193 0.0
C1989 C 0.10078 0.12474 0.95863 0.0
N1990 N 0.07038 0.16235 1.02865 0.0
N1991 N 0.07771 0.10916 0.90952 0.0
H1992 H 0.14285 0.11353 0.96286 0.0
H1993 H 0.12879 0.10695 0.92483 0.0
H1994 H 0.06197 0.10963 0.89218 0.0
H1995 H 0.09133 0.0929 0.90626 0.0
H1996 H 0.05231 0.17208 1.03585 0.0
H1997 H 0.08356 0.15815 1.04811 0.0
H1998 H 0.03635 0.19309 0.99551 0.0
H1999 H 0.02165 0.18401 0.958 0.0
C2000 C 0.90088 0.82336 0.74209 0.0
C2001 C 0.88605 0.8478 0.73434 0.0
C2002 C 0.87957 0.8304 0.67775 0.0
C2003 C 0.8916 0.80506 0.68652 0.0
N2004 N 0.91225 0.7762 0.72737 0.0
N2005 N 0.85897 0.87296 0.69412 0.0
C2006 C 0.90214 0.80132 0.71872 0.0
C2007 C 0.87475 0.85074 0.70206 0.0
N2008 N 0.91339 0.82086 0.77192 0.0
N2009 N 0.87383 0.8357 0.64552 0.0
H2010 H 0.85947 0.89145 0.70669 0.0
H2011 H 0.84558 0.87319 0.67419 0.0
H2012 H 0.87704 0.82154 0.62679 0.0
H2013 H 0.86829 0.85497 0.63678 0.0
H2014 H 0.92717 0.80528 0.7777 0.0
H2015 H 0.91139 0.83521 0.79057 0.0
H2016 H 0.91744 0.77072 0.75121 0.0
H2017 H 0.91379 0.75999 0.71083 0.0
C2018 C 0.97042 0.11002 0.4644 0.0
C2019 C 0.98842 0.13263 0.46062 0.0
C2020 C 0.96578 0.15413 0.50827 0.0
C2021 C 0.94385 0.13508 0.50573 0.0
N2022 N 0.92486 0.09518 0.47875 0.0
N2023 N 1.01399 0.1617 0.49722 0.0
C2024 C 0.94611 0.11301 0.48321 0.0
C2025 C 0.98934 0.15119 0.48755 0.0
N2026 N 0.97851 0.08462 0.4544 0.0
N2027 N 0.96427 0.17501 0.5304 0.0
H2028 H 0.03244 0.15449 0.48741 0.0
H2029 H 0.01649 0.17361 0.51818 0.0
H2030 H 0.94808 0.17694 0.54701 0.0
H2031 H 0.97822 0.1912 0.53074 0.0
H2032 H 0.96719 0.06696 0.45928 0.0
H2033 H 0.99832 0.08105 0.44547 0.0
H2034 H 0.92503 0.08028 0.46044 0.0
H2035 H 0.90619 0.09698 0.49097 0.0
C2036 C 0.62384 0.23404 0.23197 0.0
C2037 C 0.63138 0.23286 0.19834 0.0
C2038 C 0.64115 0.18399 0.20432 0.0
C2039 C 0.63744 0.1855 0.23895 0.0
N2040 N 0.62739 0.21352 0.28618 0.0
N2041 N 0.65149 0.20741 0.15373 0.0
C2042 C 0.62902 0.21092 0.25294 0.0
C2043 C 0.64131 0.20807 0.18499 0.0
N2044 N 0.61163 0.25721 0.24377 0.0
N2045 N 0.64304 0.1592 0.18925 0.0
H2046 H 0.6512 0.22417 0.13791 0.0
H2047 H 0.66241 0.19079 0.14438 0.0
H2048 H 0.64146 0.14112 0.20208 0.0
H2049 H 0.64256 0.15654 0.16393 0.0
H2050 H 0.60301 0.25858 0.26705 0.0
H2051 H 0.60837 0.27451 0.22924 0.0
H2052 H 0.62437 0.23217 0.298 0.0
H2053 H 0.63094 0.19733 0.30224 0.0
C2054 C 0.56849 0.9163 0.94452 0.0
C2055 C 0.54817 0.89542 0.9445 0.0
C2056 C 0.5672 0.87737 0.99626 0.0
C2057 C 0.58892 0.89671 0.99489 0.0
N2058 N 0.61189 0.93314 0.96566 0.0
N2059 N 0.52788 0.85623 0.97188 0.0
C2060 C 0.58987 0.91594 0.96858 0.0
C2061 C 0.54744 0.87613 0.9706 0.0
N2062 N 0.56703 0.93688 0.92182 0.0
N2063 N 0.56529 0.85977 1.02215 0.0
H2064 H 0.51249 0.85373 0.95432 0.0
H2065 H 0.51249 0.85373 0.95432 0.0
H2066 H 0.57884 0.86033 1.04198 0.0
H2067 H 0.54978 0.84507 1.02396 0.0
H2068 H 0.5789 0.95458 0.92275 0.0
H2069 H 0.55235 0.93742 0.9032 0.0
H2070 H 0.61557 0.94541 0.94529 0.0
H2071 H 0.62802 0.93359 0.98236 0.0
C2072 C 0.89815 0.22596 0.87409 0.0
C2073 C 0.89004 0.22255 0.90726 0.0
C2074 C 0.88284 0.17347 0.89708 0.0
C2075 C 0.88759 0.17721 0.86283 0.0
N2076 N 0.89662 0.20866 0.8184 0.0
N2077 N 0.87177 0.19351 0.94971 0.0
C2078 C 0.89472 0.20388 0.85127 0.0
C2079 C 0.88151 0.19645 0.91847 0.0
N2080 N 0.90921 0.25036 0.86438 0.0
N2081 N 0.88118 0.14772 0.90985 0.0
H2082 H 0.87212 0.20917 0.96706 0.0
H2083 H 0.86153 0.17604 0.95782 0.0
H2084 H 0.88303 0.13033 0.89567 0.0
H2085 H 0.88116 0.14349 0.93486 0.0
H2086 H 0.91846 0.25335 0.84167 0.0
H2087 H 0.91103 0.26712 0.88008 0.0
H2088 H 0.89858 0.22813 0.80827 0.0
H2089 H 0.89388 0.19349 0.80087 0.0
C2090 C 0.57786 0.15792 0.66668 0.0
C2091 C 0.55273 0.14412 0.66033 0.0
C2092 C 0.56969 0.13208 0.60521 0.0
C2093 C 0.59451 0.14643 0.61152 0.0
N2094 N 0.61786 0.18012 0.64383 0.0
N2095 N 0.52224 0.12335 0.62102 0.0
C2096 C 0.59708 0.16168 0.64085 0.0
C2097 C 0.54784 0.13289 0.6287 0.0
N2098 N 0.5842 0.16612 0.6978 0.0
N2099 N 0.56744 0.11687 0.57728 0.0
H2100 H 0.50592 0.12379 0.63758 0.0
H2101 H 0.51659 0.11718 0.59756 0.0
H2102 H 0.58246 0.11715 0.55902 0.0
H2103 H 0.55142 0.10324 0.57288 0.0
H2104 H 0.60351 0.17347 0.70445 0.0
H2105 H 0.57118 0.16317 0.71775 0.0
H2106 H 0.62 0.19341 0.66362 0.0
H2107 H 0.63049 0.1846 0.6241 0.0
C2108 C 0.67037 0.82673 0.36842 0.0
C2109 C 0.64691 0.83639 0.35132 0.0
C2110 C 0.62017 0.79915 0.37709 0.0
C2111 C 0.6422 0.79452 0.39956 0.0
N2112 N 0.68722 0.80793 0.41905 0.0
N2113 N 0.60144 0.82633 0.33206 0.0
C2114 C 0.66706 0.80932 0.39578 0.0
C2115 C 0.62223 0.82095 0.35344 0.0
N2116 N 0.6961 0.83308 0.35742 0.0
N2117 N 0.59788 0.78215 0.37776 0.0
H2118 H 0.60466 0.83803 0.31108 0.0
H2119 H 0.58163 0.81856 0.33422 0.0
H2120 H 0.59625 0.76582 0.39413 0.0
H2121 H 0.58168 0.78304 0.36118 0.0
H2122 H 0.71392 0.82484 0.3677 0.0
H2123 H 0.69928 0.84329 0.33526 0.0
H2124 H 0.70458 0.82043 0.4185 0.0
H2125 H 0.68529 0.79665 0.44062 0.0
C2126 C 0.96171 0.87119 0.09504 0.0
C2127 C 0.93915 0.88972 0.09499 0.0
C2128 C 0.95233 0.90494 0.15032 0.0
C2129 C 0.97633 0.88842 0.14933 0.0
N2130 N 1.00637 0.8592 0.11789 0.0
N2131 N 0.91802 0.92953 0.11954 0.0
C2132 C 0.98173 0.87242 0.12085 0.0
C2133 C 0.93609 0.90824 0.12163 0.0
N2134 N 0.96385 0.85219 0.07064 0.0
N2135 N 0.94403 0.91642 0.17921 0.0
H2136 H 0.90558 0.93278 0.0993 0.0
H2137 H 0.91727 0.94533 0.13667 0.0
H2138 H 0.95446 0.91353 0.20126 0.0
H2139 H 0.92513 0.92622 0.18202 0.0
H2140 H 0.97789 0.83608 0.07113 0.0
H2141 H 0.95037 0.85165 0.05074 0.0
H2142 H 1.01268 0.84943 0.09651 0.0
H2143 H 0.02155 0.86001 0.13591 0.0
C2144 C 0.60993 0.68728 0.88306 0.0
C2145 C 0.62615 0.68911 0.85435 0.0
C2146 C 0.6375 0.73675 0.86876 0.0
C2147 C 0.6252 0.73291 0.9 0.0
N2148 N 0.60207 0.70316 0.93838 0.0
N2149 N 0.65557 0.71556 0.81927 0.0
C2150 C 0.6118 0.70789 0.90746 0.0
C2151 C 0.6397 0.71405 0.8468 0.0
N2152 N 0.59241 0.66582 0.88675 0.0
N2153 N 0.64692 0.7621 0.86016 0.0
H2154 H 0.65627 0.69978 0.80204 0.0
H2155 H 0.66872 0.73181 0.81413 0.0
H2156 H 0.64569 0.77894 0.87583 0.0
H2157 H 0.65392 0.76698 0.83678 0.0
H2158 H 0.57866 0.66379 0.90614 0.0
H2159 H 0.58916 0.65217 0.86775 0.0
H2160 H 0.59512 0.68411 0.94631 0.0
H2161 H 0.60305 0.71757 0.95717 0.0
C2162 C 0.56412 0.37986 0.10098 0.0
C2163 C 0.5874 0.39732 0.10322 0.0
C2164 C 0.57323 0.41098 0.15886 0.0
C2165 C 0.54917 0.39478 0.15598 0.0
N2166 N 0.51966 0.36628 0.12322 0.0
N2167 N 0.61117 0.43352 0.13187 0.0
C2168 C 0.54401 0.37992 0.12666 0.0
C2169 C 0.59104 0.41403 0.13146 0.0
N2170 N 0.5616 0.36281 0.07461 0.0
N2171 N 0.57962 0.42281 0.18827 0.0
H2172 H 0.62502 0.43624 0.11279 0.0
H2173 H 0.61269 0.4486 0.14979 0.0
H2174 H 0.56687 0.42177 0.20877 0.0
H2175 H 0.59858 0.43177 0.19327 0.0
H2176 H 0.54692 0.34739 0.07291 0.0
H2177 H 0.57534 0.36313 0.05498 0.0
H2178 H 0.51321 0.35726 0.10145 0.0
H2179 H 0.50493 0.36548 0.14178 0.0
C2180 C 0.86841 0.33684 0.37252 0.0
C2181 C 0.88762 0.33643 0.34617 0.0
C2182 C 0.90974 0.29576 0.37061 0.0
C2183 C 0.88969 0.29553 0.39596 0.0
N2184 N 0.84671 0.31232 0.41727 0.0
N2185 N 0.92397 0.31334 0.31737 0.0
C2186 C 0.86801 0.31496 0.39563 0.0
C2187 C 0.90748 0.31515 0.34437 0.0
N2188 N 0.85133 0.35882 0.37652 0.0
N2189 N 0.93141 0.27797 0.37222 0.0
H2190 H 0.92296 0.32737 0.2981 0.0
H2191 H 0.93715 0.29697 0.31283 0.0
H2192 H 0.93319 0.26309 0.39046 0.0
H2193 H 0.94839 0.27893 0.35677 0.0
H2194 H 0.83949 0.36201 0.39742 0.0
H2195 H 0.85056 0.37517 0.36023 0.0
H2196 H 0.82871 0.32382 0.41585 0.0
H2197 H 0.84589 0.29691 0.43495 0.0
C2198 C 0.96337 0.63851 0.6064 0.0
C2199 C 0.93921 0.65369 0.61361 0.0
C2200 C 0.9626 0.67436 0.66088 0.0
C2201 C 0.98449 0.65544 0.65721 0.0
N2202 N 1.00596 0.61888 0.62688 0.0
N2203 N 0.91532 0.68565 0.64844 0.0
C2204 C 0.98522 0.63765 0.62971 0.0
C2205 C 0.93884 0.67183 0.64079 0.0
N2206 N 0.96517 0.62465 0.57741 0.0
N2207 N 0.96464 0.69485 0.68356 0.0
H2208 H 0.89805 0.68526 0.63351 0.0
H2209 H 0.91247 0.69639 0.67021 0.0
H2210 H 0.98184 0.69722 0.69859 0.0
H2211 H 0.95064 0.71094 0.68532 0.0
H2212 H 0.98306 0.61514 0.56923 0.0
H2213 H 0.94943 0.62483 0.56005 0.0
H2214 H 1.00605 0.6032 0.60962 0.0
H2215 H 0.02242 0.61787 0.64321 0.0
C2216 C 0.64344 0.31462 0.74798 0.0
C2217 C 0.62976 0.33937 0.73964 0.0
C2218 C 0.6215 0.32176 0.68413 0.0
C2219 C 0.63466 0.29678 0.69243 0.0
N2220 N 0.65307 0.26706 0.73414 0.0
N2221 N 0.59789 0.36191 0.70377 0.0
C2222 C 0.64395 0.29242 0.72507 0.0
C2223 C 0.61627 0.34138 0.70896 0.0
N2224 N 0.6569 0.31284 0.77727 0.0
N2225 N 0.61524 0.32752 0.65219 0.0
H2226 H 0.59193 0.37457 0.72278 0.0
H2227 H 0.58578 0.36362 0.68281 0.0
H2228 H 0.61913 0.31407 0.63292 0.0
H2229 H 0.60858 0.34673 0.64436 0.0
H2230 H 0.67007 0.29682 0.78342 0.0
H2231 H 0.6556 0.3282 0.79499 0.0
H2232 H 0.65785 0.26179 0.75819 0.0
H2233 H 0.65371 0.25057 0.71789 0.0
C2234 C 0.94023 0.41117 0.97382 0.0
C2235 C 0.94045 0.39309 1.00122 0.0
C2236 C 0.98456 0.37394 0.98192 0.0
C2237 C 0.98286 0.39024 0.95312 0.0
N2238 N 0.95682 0.42123 0.91914 0.0
N2239 N 0.96152 0.35562 1.03016 0.0
C2240 C 0.96015 0.4081 0.9485 0.0
C2241 C 0.96232 0.37402 1.00495 0.0
N2242 N 0.92118 0.43169 0.97207 0.0
N2243 N 1.00777 0.35885 0.98758 0.0
H2244 H 0.94622 0.35591 1.04807 0.0
H2245 H 0.97498 0.33914 1.03236 0.0
H2246 H 0.02416 0.35818 0.97111 0.0
H2247 H 1.01173 0.34864 1.00945 0.0
H2248 H 0.92217 0.44766 0.95519 0.0
H2249 H 0.90538 0.43405 0.98894 0.0
H2250 H 0.93896 0.43167 0.91259 0.0
H2251 H 0.97093 0.41983 0.89999 0.0
C2252 C 0.90567 0.73038 0.22501 0.0
C2253 C 0.89006 0.72753 0.19576 0.0
C2254 C 0.86847 0.68597 0.21795 0.0
C2255 C 0.88588 0.68726 0.24595 0.0
N2256 N 0.92203 0.70974 0.2758 0.0
N2257 N 0.85949 0.70064 0.16224 0.0
C2258 C 0.90474 0.70928 0.24941 0.0
C2259 C 0.87218 0.70484 0.19174 0.0
N2260 N 0.92094 0.75354 0.22964 0.0
N2261 N 0.84783 0.66703 0.21659 0.0
H2262 H 0.86107 0.71418 0.14258 0.0
H2263 H 0.84919 0.68264 0.15624 0.0
H2264 H 0.84513 0.65181 0.2341 0.0
H2265 H 0.83221 0.66742 0.19915 0.0
H2266 H 0.93074 0.75841 0.25153 0.0
H2267 H 0.9224 0.76897 0.21203 0.0
H2268 H 0.93835 0.72334 0.27829 0.0
H2269 H 0.92091 0.69538 0.2947 0.0
C2270 C 0.56818 0.65425 0.50411 0.0
C2271 C 0.5868 0.63183 0.50357 0.0
C2272 C 0.56044 0.61147 0.45814 0.0
C2273 C 0.54431 0.63555 0.45568 0.0
N2274 N 0.53399 0.68111 0.47468 0.0
N2275 N 0.60339 0.59143 0.47549 0.0
C2276 C 0.54831 0.65723 0.47844 0.0
C2277 C 0.58354 0.61094 0.47951 0.0
N2278 N 0.56943 0.67262 0.52929 0.0
N2279 N 0.55354 0.58889 0.44014 0.0
H2280 H 0.62106 0.59058 0.48971 0.0
H2281 H 0.60369 0.57776 0.45591 0.0
H2282 H 0.53671 0.58851 0.42428 0.0
H2283 H 0.56275 0.56981 0.44342 0.0
H2284 H 0.5549 0.68798 0.53301 0.0
H2285 H 0.58388 0.67107 0.54809 0.0
H2286 H 0.5381 0.69881 0.488 0.0
H2287 H 0.51909 0.68381 0.45658 0.0
C2288 C 0.41724 0.3208 0.19174 0.0
C2289 C 0.40223 0.29657 0.19861 0.0
C2290 C 0.38716 0.31654 0.25115 0.0
C2291 C 0.4025 0.34064 0.24435 0.0
N2292 N 0.4383 0.3619 0.21283 0.0
N2293 N 0.37748 0.26895 0.2375 0.0
C2294 C 0.41952 0.34146 0.21613 0.0
C2295 C 0.38866 0.29366 0.22926 0.0
N2296 N 0.42816 0.32483 0.16124 0.0
N2297 N 0.37036 0.31596 0.27795 0.0
H2298 H 0.37815 0.25202 0.22193 0.0
H2299 H 0.36952 0.26456 0.26058 0.0
H2300 H 0.37005 0.3317 0.29524 0.0
H2301 H 0.35604 0.30057 0.28237 0.0
H2302 H 0.43638 0.34345 0.15355 0.0
H2303 H 0.42695 0.3104 0.14249 0.0
H2304 H 0.4532 0.3625 0.19452 0.0
H2305 H 0.44109 0.37628 0.23107 0.0
C2306 C 0.48508 0.63166 0.97101 0.0
C2307 C 0.47941 0.64225 0.93921 0.0
C2308 C 0.436 0.66103 0.96012 0.0
C2309 C 0.43904 0.64615 0.98967 0.0
N2310 N 0.46669 0.61686 1.02361 0.0
N2311 N 0.44695 0.66384 0.90249 0.0
C2312 C 0.46387 0.63158 0.99537 0.0
C2313 C 0.45428 0.65633 0.93355 0.0
N2314 N 0.51078 0.62199 0.97801 0.0
N2315 N 0.41566 0.68002 0.95762 0.0
H2316 H 0.45914 0.66004 0.882 0.0
H2317 H 0.42752 0.67139 0.89659 0.0
H2318 H 0.40398 0.68525 0.9779 0.0
H2319 H 0.41323 0.69301 0.93757 0.0
H2320 H 0.51699 0.61622 1.00143 0.0
H2321 H 0.52667 0.62198 0.96085 0.0
H2322 H 0.48267 0.60308 1.02778 0.0
H2323 H 0.45218 0.61774 1.04242 0.0
C2324 C 0.17798 0.71611 0.71135 0.0
C2325 C 0.15522 0.73414 0.70816 0.0
C2326 C 0.13513 0.7122 0.75727 0.0
C2327 C 0.1541 0.69016 0.75438 0.0
N2328 N 0.19365 0.67107 0.72648 0.0
N2329 N 0.12738 0.76014 0.7457 0.0
C2330 C 0.17566 0.69219 0.73098 0.0
C2331 C 0.13743 0.73541 0.73589 0.0
N2332 N 0.20306 0.72379 0.69955 0.0
N2333 N 0.11512 0.71124 0.78065 0.0
H2334 H 0.13506 0.77836 0.73598 0.0
H2335 H 0.11585 0.7629 0.76694 0.0
H2336 H 0.11403 0.69562 0.79807 0.0
H2337 H 0.09883 0.7251 0.78143 0.0
H2338 H 0.22098 0.71262 0.70386 0.0
H2339 H 0.20629 0.7432 0.6895 0.0
H2340 H 0.20794 0.67082 0.70745 0.0
H2341 H 0.19265 0.65287 0.73968 0.0
C2342 C 0.0669 0.4089 0.45148 0.0
C2343 C 0.04807 0.38673 0.45037 0.0
C2344 C 0.06838 0.36827 0.50128 0.0
C2345 C 0.0891 0.38874 0.50028 0.0
N2346 N 0.11002 0.42683 0.4719 0.0
N2347 N 0.03203 0.34392 0.47246 0.0
C2348 C 0.08878 0.40868 0.47477 0.0
C2349 C 0.04909 0.36605 0.47488 0.0
N2350 N 0.06366 0.43047 0.43042 0.0
N2351 N 0.06674 0.35139 0.52793 0.0
H2352 H 0.01714 0.34215 0.45418 0.0
H2353 H 0.03372 0.3266 0.48721 0.0
H2354 H 0.08053 0.35254 0.54748 0.0
H2355 H 0.05063 0.33778 0.53191 0.0
H2356 H 0.07449 0.44877 0.43247 0.0
H2357 H 0.04845 0.43109 0.41241 0.0
H2358 H 0.11275 0.43964 0.45178 0.0
H2359 H 0.12647 0.42752 0.48816 0.0
C2360 C 0.39273 0.70109 0.41791 0.0
C2361 C 0.39279 0.72819 0.40592 0.0
C2362 C 0.39262 0.70999 0.34933 0.0
C2363 C 0.38756 0.68309 0.36155 0.0
N2364 N 0.37933 0.65453 0.40924 0.0
N2365 N 0.39236 0.75917 0.36021 0.0
C2366 C 0.38688 0.67909 0.3963 0.0
C2367 C 0.39292 0.73286 0.37155 0.0
N2368 N 0.39832 0.69621 0.45024 0.0
N2369 N 0.39666 0.71382 0.31656 0.0
H2370 H 0.39347 0.77605 0.37583 0.0
H2371 H 0.3893 0.7643 0.33573 0.0
H2372 H 0.39584 0.69787 0.29967 0.0
H2373 H 0.40291 0.73234 0.30639 0.0
H2374 H 0.40195 0.67667 0.4596 0.0
H2375 H 0.40212 0.71175 0.46715 0.0
H2376 H 0.37472 0.65156 0.43391 0.0
H2377 H 0.37541 0.63761 0.39505 0.0
C2378 C 0.06845 0.65559 0.09721 0.0
C2379 C 0.08649 0.63268 0.09693 0.0
C2380 C 0.0609 0.61295 0.14344 0.0
C2381 C 0.04554 0.63748 0.14661 0.0
N2382 N 0.0361 0.6834 0.1282 0.0
N2383 N 0.10256 0.59158 0.12406 0.0
C2384 C 0.04956 0.65912 0.12379 0.0
C2385 C 0.08329 0.61178 0.12103 0.0
N2386 N 0.0691 0.67374 0.07176 0.0
N2387 N 0.05392 0.59054 0.16172 0.0
H2388 H 0.11975 0.59017 0.10911 0.0
H2389 H 0.10302 0.5778 0.14354 0.0
H2390 H 0.03774 0.59063 0.17849 0.0
H2391 H 0.06236 0.57118 0.15794 0.0
H2392 H 0.05491 0.68953 0.06882 0.0
H2393 H 0.0825 0.67152 0.05196 0.0
H2394 H 0.04044 0.70103 0.1148 0.0
H2395 H 0.02183 0.68646 0.14691 0.0
C2396 C 0.16837 0.33437 0.87076 0.0
C2397 C 0.14681 0.33607 0.84731 0.0
C2398 C 0.13202 0.28985 0.86407 0.0
C2399 C 0.14986 0.29095 0.8918 0.0
N2400 N 0.19742 0.30278 0.89993 0.0
N2401 N 0.10797 0.31468 0.82115 0.0
C2402 C 0.17181 0.31001 0.8894 0.0
C2403 C 0.1286 0.31356 0.84379 0.0
N2404 N 0.18547 0.35607 0.87594 0.0
N2405 N 0.12268 0.26509 0.8534 0.0
H2406 H 0.10558 0.33111 0.80504 0.0
H2407 H 0.09231 0.30016 0.82003 0.0
H2408 H 0.13019 0.2468 0.86321 0.0
H2409 H 0.1115 0.26254 0.83185 0.0
H2410 H 0.19984 0.35636 0.89492 0.0
H2411 H 0.18362 0.37455 0.8634 0.0
H2412 H 0.21474 0.31493 0.89607 0.0
H2413 H 0.20176 0.28291 0.90789 0.0
C2414 C 0.47236 0.4243 0.63464 0.0
C2415 C 0.48715 0.40041 0.64356 0.0
C2416 C 0.46346 0.37657 0.59806 0.0
C2417 C 0.44358 0.39795 0.59667 0.0
N2418 N 0.42869 0.44205 0.61757 0.0
N2419 N 0.50947 0.36348 0.61501 0.0
C2420 C 0.448 0.42186 0.61586 0.0
C2421 C 0.48636 0.37872 0.62017 0.0
N2422 N 0.48372 0.4495 0.63934 0.0
N2423 N 0.46064 0.35432 0.57815 0.0
H2424 H 0.52821 0.36877 0.62574 0.0
H2425 H 0.51124 0.34874 0.59672 0.0
H2426 H 0.44583 0.3534 0.55969 0.0
H2427 H 0.47223 0.33651 0.58089 0.0
H2428 H 0.4746 0.46745 0.63067 0.0
H2429 H 0.50395 0.45172 0.64752 0.0
H2430 H 0.4307 0.45875 0.63333 0.0
H2431 H 0.40963 0.44058 0.60626 0.0
C2432 C 0.13455 0.0275 0.31216 0.0
C2433 C 0.11409 0.04132 0.29347 0.0
C2434 C 0.09407 0.99627 0.27969 0.0
C2435 C 0.11145 0.98338 0.30327 0.0
N2436 N 0.14706 0.98726 0.34386 0.0
N2437 N 0.07581 0.03831 0.2563 0.0
C2438 C 0.13137 0.99918 0.32001 0.0
C2439 C 0.09435 0.0254 0.27624 0.0
N2440 N 0.15785 0.04094 0.32081 0.0
N2441 N 0.07783 0.98063 0.25981 0.0
H2442 H 0.07779 0.05884 0.24959 0.0
H2443 H 0.05822 0.02905 0.24695 0.0
H2444 H 0.07689 0.95943 0.26142 0.0
H2445 H 0.06671 0.98828 0.24007 0.0
H2446 H 0.17449 0.03174 0.33254 0.0
H2447 H 0.16196 0.06015 0.31148 0.0
H2448 H 0.15982 0.99837 0.35946 0.0
H2449 H 0.14545 0.96658 0.35 0.0
C2450 C 0.24776 0.85046 0.57318 0.0
C2451 C 0.23484 0.86276 0.5454 0.0
C2452 C 0.27779 0.88718 0.5333 0.0
C2453 C 0.29182 0.87209 0.55806 0.0
N2454 N 0.28734 0.849 0.60971 0.0
N2455 N 0.23849 0.89041 0.49684 0.0
C2456 C 0.27597 0.85633 0.58035 0.0
C2457 C 0.25016 0.88041 0.52486 0.0
N2458 N 0.23329 0.83249 0.59219 0.0
N2459 N 0.28978 0.90992 0.52032 0.0
H2460 H 0.21827 0.88603 0.49007 0.0
H2461 H 0.24962 0.90082 0.47894 0.0
H2462 H 0.30761 0.9181 0.53037 0.0
H2463 H 0.28006 0.92294 0.50374 0.0
H2464 H 0.24206 0.82051 0.61052 0.0
H2465 H 0.21269 0.82787 0.58814 0.0
H2466 H 0.2765 0.83968 0.62864 0.0
H2467 H 0.30689 0.85545 0.61681 0.0
C2468 C 0.42017 1.00229 0.77166 0.0
C2469 C 0.40282 0.98595 0.79149 0.0
C2470 C 0.39141 0.02666 0.82469 0.0
C2471 C 0.41055 0.04242 0.80671 0.0
N2472 N 0.44616 0.04413 0.76543 0.0
N2473 N 0.36288 0.98627 0.82632 0.0
C2474 C 0.42577 0.0299 0.78083 0.0
C2475 C 0.38585 0.99914 0.81514 0.0
N2476 N 0.42934 0.99213 0.74244 0.0
N2477 N 0.37925 0.03769 0.85176 0.0
H2478 H 0.35622 0.96799 0.81617 0.0
H2479 H 0.3484 0.99535 0.84164 0.0
H2480 H 0.38398 0.05729 0.86 0.0
H2481 H 0.36715 0.02652 0.86801 0.0
H2482 H 0.43976 1.00378 0.72508 0.0
H2483 H 0.42304 0.97313 0.73348 0.0
H2484 H 0.45998 0.03528 0.74909 0.0
H2485 H 0.45096 0.06426 0.77115 0.0
C2486 C 0.24762 0.18437 1.03431 0.0
C2487 C 0.23462 0.16805 0.05881 0.0
C2488 C 0.27855 0.14423 0.06804 0.0
C2489 C 0.29257 0.16347 1.04795 0.0
N2490 N 0.28985 0.20079 1.00949 0.0
N2491 N 0.23854 0.13442 0.10158 0.0
C2492 C 0.27681 0.18322 1.03042 0.0
C2493 C 0.25039 0.14859 0.07643 0.0
N2494 N 0.23201 0.19974 1.01331 0.0
N2495 N 0.29159 0.12096 0.07761 0.0
H2496 H 0.21813 0.13746 0.10861 0.0
H2497 H 0.2496 0.12184 0.11745 0.0
H2498 H 0.31058 0.11582 0.06803 0.0
H2499 H 0.2821 0.10516 0.09047 0.0
H2500 H 0.23975 0.20901 0.99229 0.0
H2501 H 0.21076 0.20162 1.01514 0.0
H2502 H 0.28073 0.21834 0.99987 0.0
H2503 H 0.31024 0.19804 1.00225 0.0
C2504 C 0.94921 0.02472 0.81901 0.0
C2505 C 0.93046 0.04182 0.80144 0.0
C2506 C 0.90135 1.00112 0.79223 0.0
C2507 C 0.92025 0.98424 0.80983 0.0
N2508 N 0.95467 0.98411 0.85219 0.0
N2509 N 0.89444 0.04277 0.76106 0.0
C2510 C 0.9419 0.9973 0.82692 0.0
C2511 C 0.9079 0.02914 0.78543 0.0
N2512 N 0.97537 0.03345 0.82526 0.0
N2513 N 0.87629 0.991 0.78368 0.0
H2514 H 0.90144 0.06134 0.75176 0.0
H2515 H 0.87927 0.03388 0.74655 0.0
H2516 H 0.86983 0.97177 0.7911 0.0
H2517 H 0.86062 1.00288 0.77361 0.0
H2518 H 0.99025 0.02095 0.836 0.0
H2519 H 0.98367 0.051 0.8147 0.0
H2520 H 0.96897 0.99368 0.86738 0.0
H2521 H 0.94793 0.9652 0.86093 0.0
C2522 C 0.75399 0.14015 0.56642 0.0
C2523 C 0.74046 0.1559 0.54182 0.0
C2524 C 0.78416 0.17953 0.53053 0.0
C2525 C 0.79682 0.1658 0.55754 0.0
N2526 N 0.79268 0.13562 0.60373 0.0
N2527 N 0.74629 0.18097 0.49173 0.0
C2528 C 0.78136 0.14685 0.57618 0.0
C2529 C 0.75656 0.17305 0.52145 0.0
N2530 N 0.7418 0.11698 0.57801 0.0
N2531 N 0.79834 0.19911 0.51366 0.0
H2532 H 0.72739 0.17402 0.48297 0.0
H2533 H 0.75776 0.19106 0.47392 0.0
H2534 H 0.81864 0.2041 0.51862 0.0
H2535 H 0.78934 0.2121 0.49649 0.0
H2536 H 0.75117 0.10345 0.59428 0.0
H2537 H 0.72409 0.10915 0.56733 0.0
H2538 H 0.78148 0.12407 0.62052 0.0
H2539 H 0.81263 0.14013 0.61145 0.0
C2540 C 0.59822 0.02969 0.27904 0.0
C2541 C 0.61569 0.0431 0.30204 0.0
C2542 C 0.64066 0.99978 0.31035 0.0
C2543 C 0.62167 0.98575 0.28969 0.0
N2544 N 0.5914 0.99054 0.24341 0.0
N2545 N 0.65269 0.04046 0.34097 0.0
C2546 C 0.60283 1.00157 0.27099 0.0
C2547 C 0.63664 0.02796 0.318 0.0
N2548 N 0.57683 0.04359 0.26508 0.0
N2549 N 0.66436 0.98711 0.31972 0.0
H2550 H 0.65232 0.06146 0.34482 0.0
H2551 H 0.66505 0.0299 0.35755 0.0
H2552 H 0.66996 0.96818 0.3106 0.0
H2553 H 0.68032 0.99663 0.3323 0.0
H2554 H 0.56129 0.03403 0.25177 0.0
H2555 H 0.57335 0.0644 0.26852 0.0
H2556 H 0.57954 1.00168 0.22686 0.0
H2557 H 0.59713 0.97139 0.23439 0.0
C2558 C 0.7509 0.88285 1.02845 0.0
C2559 C 0.73668 0.86312 1.04773 0.0
C2560 C 0.77993 0.83714 0.05398 0.0
C2561 C 0.79418 0.85658 1.03419 0.0
N2562 N 0.79198 0.89489 0.99744 0.0
N2563 N 0.74013 0.82732 0.08779 0.0
C2564 C 0.77928 0.87871 1.02018 0.0
C2565 C 0.75203 0.84198 0.063 0.0
N2566 N 0.73783 0.90636 1.01976 0.0
N2567 N 0.79236 0.81323 0.06306 0.0
H2568 H 0.72044 0.83168 0.09653 0.0
H2569 H 0.75066 0.81321 0.10223 0.0
H2570 H 0.81259 0.80837 0.05769 0.0
H2571 H 0.78183 0.79689 0.07359 0.0
H2572 H 0.74709 0.92265 1.00761 0.0
H2573 H 0.71856 0.91093 1.02886 0.0
H2574 H 0.78187 0.90959 0.98342 0.0
H2575 H 0.8123 0.89171 0.99017 0.0
C2576 C 0.6137 0.52491 0.76711 0.0
C2577 C 0.62705 0.54136 0.79083 0.0
C2578 C 0.63427 0.50036 0.82522 0.0
C2579 C 0.61891 0.48446 0.80275 0.0
N2580 N 0.58927 0.48299 0.75533 0.0
N2581 N 0.6608 0.54156 0.83406 0.0
C2582 C 0.60754 0.49706 0.77434 0.0
C2583 C 0.64038 0.52825 0.81769 0.0
N2584 N 0.60856 0.53548 0.73671 0.0
N2585 N 0.64216 0.48911 0.85437 0.0
H2586 H 0.66892 0.55984 0.82541 0.0
H2587 H 0.67257 0.53269 0.85255 0.0
H2588 H 0.63722 0.46906 0.8608 0.0
H2589 H 0.65089 0.50035 0.87338 0.0
H2590 H 0.60138 0.5238 0.71715 0.0
H2591 H 0.61496 0.55508 0.7299 0.0
H2592 H 0.57776 0.49215 0.7368 0.0
H2593 H 0.5833 0.46297 0.76034 0.0
C2594 C 0.77753 0.38481 0.07441 0.0
C2595 C 0.79298 0.36633 0.05493 0.0
C2596 C 0.75024 0.35224 1.02683 0.0
C2597 C 0.73477 0.37044 1.04677 0.0
N2598 N 0.73547 0.41104 0.07984 0.0
N2599 N 0.79473 0.33646 1.00777 0.0
C2600 C 0.74894 0.38883 0.06775 0.0
C2601 C 0.77952 0.35126 1.02964 0.0
N2602 N 0.79004 0.39824 0.09969 0.0
N2603 N 0.7367 0.33567 1.00518 0.0
H2604 H 0.81595 0.33442 1.00936 0.0
H2605 H 0.7867 0.32753 0.98673 0.0
H2606 H 0.71589 0.33821 0.99969 0.0
H2607 H 0.74569 0.3191 0.99327 0.0
H2608 H 0.77933 0.40972 0.117 0.0
H2609 H 0.81092 0.396 0.10497 0.0
H2610 H 0.74477 0.42622 0.09389 0.0
H2611 H 0.71614 0.41626 0.07118 0.0
C2612 C 0.89253 0.52654 0.28128 0.0
C2613 C 0.91164 0.54008 0.30204 0.0
C2614 C 0.93146 0.49509 0.31631 0.0
C2615 C 0.9157 0.48239 0.29099 0.0
N2616 N 0.88185 0.48646 0.24832 0.0
N2617 N 0.94736 0.53681 0.34254 0.0
C2618 C 0.89636 0.49828 0.27323 0.0
C2619 C 0.93036 0.52407 0.32064 0.0
N2620 N 0.86988 0.54022 0.27074 0.0
N2621 N 0.94676 0.47941 0.3372 0.0
H2622 H 0.9446 0.55719 0.34956 0.0
H2623 H 0.96447 0.52757 0.35316 0.0
H2624 H 0.94954 0.45853 0.33416 0.0
H2625 H 0.95532 0.48664 0.35889 0.0
H2626 H 0.85409 0.53133 0.25721 0.0
H2627 H 0.86516 0.55936 0.28001 0.0
H2628 H 0.8695 0.49752 0.23218 0.0
H2629 H 0.88403 0.46587 0.24198 0.0
C2630 C 0.74991 0.67055 0.51894 0.0
C2631 C 0.73823 0.65441 0.54456 0.0
C2632 C 0.784 0.63462 0.55474 0.0
C2633 C 0.79639 0.65486 0.53469 0.0
N2634 N 0.7908 0.68879 0.49254 0.0
N2635 N 0.74446 0.62042 0.58668 0.0
C2636 C 0.77911 0.67169 0.51509 0.0
C2637 C 0.75538 0.63618 0.56233 0.0
N2638 N 0.73309 0.68413 0.49758 0.0
N2639 N 0.79914 0.61274 0.56441 0.0
H2640 H 0.72345 0.61977 0.59154 0.0
H2641 H 0.75644 0.60934 0.6032 0.0
H2642 H 0.81842 0.60963 0.55436 0.0
H2643 H 0.79129 0.59613 0.57739 0.0
H2644 H 0.73983 0.69361 0.47622 0.0
H2645 H 0.71184 0.6843 0.49975 0.0
H2646 H 0.7804 0.7047 0.48091 0.0
H2647 H 0.81141 0.68711 0.48568 0.0
C2648 C 0.40019 0.52822 0.27951 0.0
C2649 C 0.41838 0.5439 0.29891 0.0
C2650 C 0.42725 0.50333 0.33358 0.0
C2651 C 0.41079 0.48703 0.31253 0.0
N2652 N 0.37203 0.48775 0.27572 0.0
N2653 N 0.45188 0.54579 0.34254 0.0
C2654 C 0.39463 0.50047 0.28815 0.0
C2655 C 0.43262 0.53129 0.32546 0.0
N2656 N 0.38858 0.53976 0.25228 0.0
N2657 N 0.43557 0.49281 0.36299 0.0
H2658 H 0.45592 0.56643 0.33841 0.0
H2659 H 0.46546 0.53685 0.35913 0.0
H2660 H 0.42922 0.47361 0.37122 0.0
H2661 H 0.44536 0.50424 0.38106 0.0
H2662 H 0.37757 0.52863 0.23493 0.0
H2663 H 0.39228 0.55999 0.24531 0.0
H2664 H 0.35818 0.49691 0.25965 0.0
H2665 H 0.36477 0.46964 0.28568 0.0
C2666 C 0.27609 0.66572 0.08242 0.0
C2667 C 0.29265 0.65101 0.05994 0.0
C2668 C 0.25111 0.63958 1.02781 0.0
C2669 C 0.23515 0.65682 1.04817 0.0
N2670 N 0.2326 0.68772 0.09432 0.0
N2671 N 0.29282 0.61315 1.02213 0.0
C2672 C 0.24766 0.67013 0.07548 0.0
C2673 C 0.27935 0.63489 1.03551 0.0
N2674 N 0.28707 0.67334 0.11185 0.0
N2675 N 0.23939 0.628 1.00072 0.0
H2676 H 0.31137 0.60632 1.03162 0.0
H2677 H 0.28396 0.5994 1.00577 0.0
H2678 H 0.21873 0.63072 0.99463 0.0
H2679 H 0.25058 0.61766 0.98284 0.0
H2680 H 0.27572 0.68187 0.1309 0.0
H2681 H 0.30686 0.66762 0.11887 0.0
H2682 H 0.24116 0.70067 0.1118 0.0
H2683 H 0.21168 0.69096 0.09094 0.0
C2684 C 0.09943 0.49629 0.81589 0.0
C2685 C 0.11583 0.4828 0.79183 0.0
C2686 C 0.13881 0.52681 0.78052 0.0
C2687 C 0.11927 0.541 0.80013 0.0
N2688 N 0.08134 0.53866 0.83803 0.0
N2689 N 0.14969 0.4859 0.7491 0.0
C2690 C 0.09975 0.52547 0.81825 0.0
C2691 C 0.1351 0.49831 0.77353 0.0
N2692 N 0.08447 0.48124 0.83776 0.0
N2693 N 0.16175 0.54005 0.77007 0.0
H2694 H 0.14763 0.46513 0.74359 0.0
H2695 H 0.16192 0.49663 0.73255 0.0
H2696 H 0.16662 0.55934 0.77883 0.0
H2697 H 0.17771 0.5306 0.75736 0.0
H2698 H 0.07534 0.48946 0.85861 0.0
H2699 H 0.08295 0.46007 0.83676 0.0
H2700 H 0.06389 0.52934 0.8477 0.0
H2701 H 0.08305 0.55934 0.84402 0.0
C2702 C 0.24907 0.38412 0.54007 0.0
C2703 C 0.23621 0.36421 0.56039 0.0
C2704 C 0.2825 0.34762 0.57573 0.0
C2705 C 0.29449 0.36387 0.55046 0.0
N2706 N 0.28842 0.39615 0.50651 0.0
N2707 N 0.24143 0.32777 0.59971 0.0
C2708 C 0.27751 0.38165 0.53199 0.0
C2709 C 0.25326 0.34624 0.57888 0.0
N2710 N 0.23473 0.40651 0.53036 0.0
N2711 N 0.29901 0.33422 0.59758 0.0
H2712 H 0.22063 0.32845 0.6059 0.0
H2713 H 0.25201 0.3114 0.61015 0.0
H2714 H 0.32033 0.33434 0.59609 0.0
H2715 H 0.29178 0.32485 0.6188 0.0
H2716 H 0.24323 0.42273 0.51725 0.0
H2717 H 0.21567 0.41058 0.54035 0.0
H2718 H 0.27643 0.40724 0.49 0.0
H2719 H 0.30917 0.39506 0.50013 0.0
C2720 C 0.14671 0.16984 0.16559 0.0
C2721 C 0.13108 0.1547 0.14232 0.0
C2722 C 0.10786 0.13068 0.18829 0.0
C2723 C 0.12344 0.1459 0.21152 0.0
N2724 N 0.15296 0.1843 0.22224 0.0
N2725 N 0.09267 0.12507 0.13175 0.0
C2726 C 0.14133 0.16688 0.20003 0.0
C2727 C 0.11032 0.13654 0.15387 0.0
N2728 N 0.16788 0.18592 0.15495 0.0
N2729 N 0.0918 0.10954 0.19895 0.0
H2730 H 0.09386 0.12912 0.10668 0.0
H2731 H 0.07545 0.1137 0.13833 0.0
H2732 H 0.08896 0.10514 0.22371 0.0
H2733 H 0.08262 0.09536 0.18338 0.0
H2734 H 0.18239 0.19465 0.17051 0.0
H2735 H 0.17202 0.18917 0.13022 0.0
H2736 H 0.16409 0.20166 0.2157 0.0
H2737 H 0.14919 0.18282 0.24734 0.0
C2738 C 0.14756 0.85698 0.43411 0.0
C2739 C 0.13231 0.87115 0.4585 0.0
C2740 C 0.10711 0.89569 0.4145 0.0
C2741 C 0.1217 0.88084 0.38999 0.0
N2742 N 0.15125 0.84272 0.37718 0.0
N2743 N 0.09298 0.89891 0.47154 0.0
C2744 C 0.14054 0.86008 0.40012 0.0
C2745 C 0.11062 0.88887 0.44847 0.0
N2746 N 0.16953 0.84132 0.4433 0.0
N2747 N 0.09115 0.91751 0.40566 0.0
H2748 H 0.09456 0.89366 0.49622 0.0
H2749 H 0.07523 0.90986 0.46583 0.0
H2750 H 0.08806 0.92332 0.38139 0.0
H2751 H 0.0828 0.93123 0.42247 0.0
H2752 H 0.18369 0.83327 0.42677 0.0
H2753 H 0.17459 0.8378 0.46777 0.0
H2754 H 0.16303 0.82558 0.383 0.0
H2755 H 0.146 0.84389 0.35244 0.0
C2756 C 0.4135 0.86785 0.69155 0.0
C2757 C 0.39879 0.88874 0.70862 0.0
C2758 C 0.37317 0.89827 0.65753 0.0
C2759 C 0.39008 0.88002 0.63922 0.0
N2760 N 0.42988 0.85052 0.63903 0.0
N2761 N 0.37067 0.92933 0.70347 0.0
C2762 C 0.41124 0.86559 0.65633 0.0
C2763 C 0.38044 0.90553 0.69026 0.0
N2764 N 0.42885 0.84947 0.70889 0.0
N2765 N 0.34917 0.90786 0.64437 0.0
H2766 H 0.37688 0.93662 0.72631 0.0
H2767 H 0.35895 0.94332 0.69014 0.0
H2768 H 0.34182 0.90164 0.62156 0.0
H2769 H 0.33493 0.91915 0.65786 0.0
H2770 H 0.43772 0.83215 0.69837 0.0
H2771 H 0.43072 0.85024 0.73431 0.0
H2772 H 0.44733 0.84184 0.6496 0.0
H2773 H 0.42923 0.84879 0.6136 0.0
C2774 C 0.41682 0.15849 0.91028 0.0
C2775 C 0.39898 0.1409 0.89207 0.0
C2776 C 0.37024 0.13646 0.94158 0.0
C2777 C 0.39017 0.15005 0.96117 0.0
N2778 N 0.43522 0.17058 0.96385 0.0
N2779 N 0.36277 0.10685 0.89537 0.0
C2780 C 0.41425 0.16026 0.94543 0.0
C2781 C 0.37686 0.12812 0.90917 0.0
N2782 N 0.43549 0.17439 0.89416 0.0
N2783 N 0.34446 0.1319 0.95365 0.0
H2784 H 0.36769 0.09853 0.87271 0.0
H2785 H 0.34849 0.09513 0.90824 0.0
H2786 H 0.33773 0.13993 0.97594 0.0
H2787 H 0.32887 0.12292 0.93987 0.0
H2788 H 0.44717 0.18937 0.90582 0.0
H2789 H 0.43723 0.17464 0.86873 0.0
H2790 H 0.45433 0.17564 0.95404 0.0
H2791 H 0.43437 0.17183 0.9893 0.0
C2792 C 0.88501 0.85944 0.89548 0.0
C2793 C 0.90525 0.87863 0.88516 0.0
C2794 C 0.919 0.88439 0.94331 0.0
C2795 C 0.89621 0.86836 0.95375 0.0
N2796 N 0.8566 0.84142 0.9395 0.0
N2797 N 0.94087 0.9106 0.89976 0.0
C2798 C 0.87916 0.85587 0.92968 0.0
C2799 C 0.92238 0.89111 0.90923 0.0
N2800 N 0.8717 0.84413 0.87238 0.0
N2801 N 0.93757 0.8931 0.96614 0.0
H2802 H 0.94444 0.91548 0.87529 0.0
H2803 H 0.95149 0.92309 0.91608 0.0
H2804 H 0.93564 0.88841 0.99097 0.0
H2805 H 0.95602 0.90271 0.9603 0.0
H2806 H 0.85862 0.82794 0.87798 0.0
H2807 H 0.87582 0.84595 0.84738 0.0
H2808 H 0.8412 0.83488 0.92361 0.0
H2809 H 0.85257 0.83717 0.96402 0.0
C2810 C 0.88996 0.1684 0.69883 0.0
C2811 C 0.90908 0.14815 0.70971 0.0
C2812 C 0.92083 0.1394 0.65147 0.0
C2813 C 0.89896 0.1566 0.64075 0.0
N2814 N 0.86131 0.18628 0.65481 0.0
N2815 N 0.94059 0.11194 0.69527 0.0
C2816 C 0.88335 0.171 0.66464 0.0
C2817 C 0.92425 0.13328 0.6857 0.0
N2818 N 0.87837 0.18557 0.72132 0.0
N2819 N 0.93864 0.12905 0.62877 0.0
H2820 H 0.94369 0.10664 0.71972 0.0
H2821 H 0.94938 0.09812 0.67891 0.0
H2822 H 0.93693 0.13355 0.60388 0.0
H2823 H 0.95655 0.11851 0.63486 0.0
H2824 H 0.86638 0.20247 0.71511 0.0
H2825 H 0.88296 0.18441 0.74622 0.0
H2826 H 0.8468 0.19434 0.6709 0.0
H2827 H 0.85658 0.18953 0.63022 0.0
C2828 C 0.65075 0.12602 0.44116 0.0
C2829 C 0.63993 0.14887 0.4586 0.0
C2830 C 0.62091 0.16538 0.40539 0.0
C2831 C 0.6287 0.14044 0.38977 0.0
N2832 N 0.64067 0.0933 0.3988 0.0
N2833 N 0.60936 0.18799 0.45676 0.0
C2834 C 0.64049 0.11968 0.40954 0.0
C2835 C 0.62349 0.16803 0.44056 0.0
N2836 N 0.67194 0.11094 0.45372 0.0
N2837 N 0.61175 0.18676 0.38685 0.0
H2838 H 0.60954 0.18987 0.48216 0.0
H2839 H 0.59525 0.20085 0.44521 0.0
H2840 H 0.60957 0.18545 0.3615 0.0
H2841 H 0.60844 0.20628 0.39638 0.0
H2842 H 0.68124 0.09509 0.44062 0.0
H2843 H 0.68269 0.1167 0.47471 0.0
H2844 H 0.64778 0.07705 0.41311 0.0
H2845 H 0.62966 0.08767 0.37798 0.0
C2846 C 0.6168 0.86569 0.15439 0.0
C2847 C 0.63999 0.8773 0.13804 0.0
C2848 C 0.65167 0.90128 0.18904 0.0
C2849 C 0.63131 0.88676 0.20706 0.0
N2850 N 0.59761 0.85039 0.20637 0.0
N2851 N 0.68486 0.89777 0.14557 0.0
C2852 C 0.61468 0.86756 0.18961 0.0
C2853 C 0.65911 0.89237 0.15723 0.0
N2854 N 0.59623 0.8539 0.13661 0.0
N2855 N 0.66299 0.92474 0.20126 0.0
H2856 H 0.69213 0.88971 0.12353 0.0
H2857 H 0.69994 0.90717 0.15985 0.0
H2858 H 0.65576 0.93419 0.22249 0.0
H2859 H 0.67665 0.93676 0.18778 0.0
H2860 H 0.57773 0.8476 0.14703 0.0
H2861 H 0.5966 0.8527 0.11114 0.0
H2862 H 0.58701 0.83441 0.19514 0.0
H2863 H 0.5962 0.85036 0.23183 0.0
C2864 C 0.65432 0.62734 0.69005 0.0
C2865 C 0.63118 0.639 0.70622 0.0
C2866 C 0.61681 0.65758 0.65207 0.0
C2867 C 0.64218 0.64904 0.63764 0.0
N2868 N 0.68884 0.63509 0.64885 0.0
N2869 N 0.59299 0.67056 0.7022 0.0
C2870 C 0.66207 0.6369 0.65856 0.0
C2871 C 0.61308 0.65569 0.68712 0.0
N2872 N 0.66818 0.60581 0.7036 0.0
N2873 N 0.5958 0.6664 0.6326 0.0
H2874 H 0.59024 0.67062 0.7275 0.0
H2875 H 0.58096 0.68491 0.68986 0.0
H2876 H 0.5974 0.66768 0.60723 0.0
H2877 H 0.57607 0.67015 0.64151 0.0
H2878 H 0.68382 0.59554 0.69113 0.0
H2879 H 0.6616 0.59587 0.72481 0.0
H2880 H 0.70437 0.62784 0.66424 0.0
H2881 H 0.69582 0.64434 0.62738 0.0
C2882 C 0.6114 0.36745 0.90862 0.0
C2883 C 0.62921 0.38512 0.89036 0.0
C2884 C 0.65825 0.38878 0.93983 0.0
C2885 C 0.63821 0.37565 0.95959 0.0
N2886 N 0.59324 0.35509 0.96235 0.0
N2887 N 0.66503 0.41954 0.89473 0.0
C2888 C 0.61407 0.36557 0.94385 0.0
C2889 C 0.65141 0.39763 0.90767 0.0
N2890 N 0.59268 0.3516 0.89254 0.0
N2891 N 0.68424 0.39276 0.95161 0.0
H2892 H 0.65932 0.42895 0.87291 0.0
H2893 H 0.67951 0.43069 0.90805 0.0
H2894 H 0.69058 0.3854 0.97442 0.0
H2895 H 0.70015 0.40036 0.93709 0.0
H2896 H 0.58096 0.33666 0.90424 0.0
H2897 H 0.59096 0.3513 0.86712 0.0
H2898 H 0.57406 0.35013 0.95266 0.0
H2899 H 0.59448 0.35337 0.98775 0.0
C2900 C 0.88516 0.35708 0.16144 0.0
C2901 C 0.89638 0.37559 0.138 0.0
C2902 C 0.91765 0.4018 0.18347 0.0
C2903 C 0.90673 0.38319 0.20689 0.0
N2904 N 0.88473 0.34012 0.2177 0.0
N2905 N 0.92909 0.41125 0.12663 0.0
C2906 C 0.89205 0.35982 0.1956 0.0
C2907 C 0.91439 0.39662 0.1491 0.0
N2908 N 0.86671 0.33777 0.15135 0.0
N2909 N 0.93023 0.42517 0.19404 0.0
H2910 H 0.92795 0.40729 0.1016 0.0
H2911 H 0.94446 0.42514 0.13284 0.0
H2912 H 0.93418 0.42899 0.21869 0.0
H2913 H 0.93528 0.44142 0.17865 0.0
H2914 H 0.85517 0.3258 0.16733 0.0
H2915 H 0.86163 0.33485 0.1268 0.0
H2916 H 0.87624 0.32135 0.21116 0.0
H2917 H 0.88952 0.34162 0.24256 0.0
C2918 C 0.91427 0.66109 0.40364 0.0
C2919 C 0.90299 0.63736 0.38832 0.0
C2920 C 0.87977 0.62634 0.44026 0.0
C2921 C 0.89378 0.64772 0.45714 0.0
N2922 N 0.92973 0.68185 0.45459 0.0
N2923 N 0.88318 0.59259 0.39736 0.0
C2924 C 0.91259 0.66414 0.43875 0.0
C2925 C 0.88839 0.6185 0.40836 0.0
N2926 N 0.92562 0.68128 0.38494 0.0
N2927 N 0.85699 0.61438 0.45362 0.0
H2928 H 0.89078 0.58524 0.37513 0.0
H2929 H 0.87441 0.57756 0.41221 0.0
H2930 H 0.84774 0.62144 0.47505 0.0
H2931 H 0.84516 0.60006 0.44095 0.0
H2932 H 0.93157 0.70015 0.39452 0.0
H2933 H 0.92682 0.68015 0.3595 0.0
H2934 H 0.94547 0.69237 0.44271 0.0
H2935 H 0.93018 0.6838 0.47998 0.0
C2936 C 0.38448 0.36527 0.40509 0.0
C2937 C 0.40461 0.38445 0.39422 0.0
C2938 C 0.41743 0.392 0.45232 0.0
C2939 C 0.39454 0.3763 0.46299 0.0
N2940 N 0.35457 0.34975 0.44903 0.0
N2941 N 0.43825 0.41876 0.40888 0.0
C2942 C 0.37768 0.36331 0.4392 0.0
C2943 C 0.42083 0.39828 0.41821 0.0
N2944 N 0.37241 0.34817 0.38285 0.0
N2945 N 0.43619 0.40079 0.47488 0.0
H2946 H 0.44138 0.42433 0.38459 0.0
H2947 H 0.44791 0.43183 0.42541 0.0
H2948 H 0.43442 0.3963 0.49977 0.0
H2949 H 0.45477 0.40998 0.46861 0.0
H2950 H 0.35948 0.33209 0.3894 0.0
H2951 H 0.37768 0.34815 0.35808 0.0
H2952 H 0.33956 0.34279 0.43285 0.0
H2953 H 0.3495 0.34706 0.47363 0.0
C2954 C 0.38567 0.66424 0.19929 0.0
C2955 C 0.40382 0.64369 0.21128 0.0
C2956 C 0.41618 0.63282 0.15374 0.0
C2957 C 0.39519 0.65062 0.14168 0.0
N2958 N 0.35784 0.6815 0.15448 0.0
N2959 N 0.4344 0.60624 0.19931 0.0
C2960 C 0.37964 0.66614 0.16488 0.0
C2961 C 0.41873 0.62757 0.1883 0.0
N2962 N 0.37433 0.68233 0.22096 0.0
N2963 N 0.4344 0.62151 0.13216 0.0
H2964 H 0.43735 0.60219 0.22414 0.0
H2965 H 0.44287 0.59147 0.18392 0.0
H2966 H 0.43381 0.62555 0.10707 0.0
H2967 H 0.45172 0.61051 0.13939 0.0
H2968 H 0.36335 0.69966 0.21387 0.0
H2969 H 0.37819 0.68143 0.24608 0.0
H2970 H 0.34347 0.69018 0.17028 0.0
H2971 H 0.35271 0.68394 0.12995 0.0
C2972 C 0.14725 0.6626 0.9027 0.0
C2973 C 0.13137 0.64051 0.89014 0.0
C2974 C 0.11857 0.6282 0.94696 0.0
C2975 C 0.13728 0.64797 0.95962 0.0
N2976 N 0.17103 0.68293 0.94915 0.0
N2977 N 0.10334 0.60089 0.90051 0.0
C2978 C 0.1518 0.66512 0.93734 0.0
C2979 C 0.11718 0.62311 0.91237 0.0
N2980 N 0.15767 0.68151 0.88137 0.0
N2981 N 0.1016 0.61464 0.96811 0.0
H2982 H 0.10117 0.59708 0.87552 0.0
H2983 H 0.09551 0.58536 0.91528 0.0
H2984 H 0.10174 0.61828 0.99327 0.0
H2985 H 0.08568 0.60186 0.96061 0.0
H2986 H 0.16717 0.69958 0.88873 0.0
H2987 H 0.15456 0.6803 0.85613 0.0
H2988 H 0.18489 0.69346 0.93436 0.0
H2989 H 0.1743 0.68597 0.9741 0.0
C2990 C 0.1085 0.39499 0.68825 0.0
C2991 C 0.12449 0.38033 0.71161 0.0
C2992 C 0.14788 0.35609 0.66603 0.0
C2993 C 0.13199 0.37087 0.64267 0.0
N2994 N 0.09288 0.39957 0.63178 0.0
N2995 N 0.15432 0.34221 0.72284 0.0
C2996 C 0.11092 0.38878 0.65398 0.0
C2997 C 0.14255 0.35936 0.70042 0.0
N2998 N 0.09188 0.41578 0.69866 0.0
N2999 N 0.16911 0.34003 0.65548 0.0
H3000 H 0.15025 0.34372 0.74785 0.0
H3001 H 0.16573 0.32495 0.71656 0.0
H3002 H 0.17315 0.3366 0.63074 0.0
H3003 H 0.18372 0.33148 0.67107 0.0
H3004 H 0.0824 0.42969 0.68295 0.0
H3005 H 0.08871 0.42005 0.72337 0.0
H3006 H 0.07549 0.41075 0.63825 0.0
H3007 H 0.09391 0.39506 0.60682 0.0
loop_
_geom_bond_atom_site_label_1
_geom_bond_atom_site_label_2
_geom_bond_distance
_geom_bond_site_symmetry_2
_ccdc_geom_bond_type
Tb0 C2 2.809 . S
Tb0 O20 2.484 . S
Tb0 O21 2.440 . S
Tb0 O22 2.658 . S
Tb0 O23 2.409 . S
Tb0 O24 2.378 . S
Tb0 O28 2.325 . S
Tb0 O31 2.341 . S
Tb1 C11 2.809 . S
Tb1 O22 2.325 . S
Tb1 O25 2.341 . S
Tb1 O26 2.484 . S
Tb1 O27 2.440 . S
Tb1 O28 2.658 . S
Tb1 O29 2.409 . S
Tb1 O30 2.378 . S
C2 Tb0 2.809 . S
C2 C3 1.514 . S
C2 O20 1.248 . S
C2 O21 1.266 . S
C3 C2 1.514 . S
C3 C4 1.359 . S
C3 C8 1.348 . S
C4 C3 1.359 . S
C4 C5 1.380 . S
C4 H32 0.929 . S
C5 C4 1.380 . S
C5 C6 1.347 . S
C5 H33 0.931 . S
C6 C5 1.347 . S
C6 C7 1.369 . S
C7 C6 1.369 . S
C7 C8 1.408 . S
C7 H34 0.930 . S
C8 C3 1.348 . S
C8 C7 1.408 . S
C8 H35 0.930 . S
C9 O22 1.281 . S
C9 O23 1.254 . S
C10 O24 1.236 . S
C10 O25 1.266 . S
C11 Tb1 2.809 . S
C11 C12 1.514 . S
C11 O26 1.248 . S
C11 O27 1.266 . S
C12 C11 1.514 . S
C12 C13 1.359 . S
C12 C17 1.348 . S
C13 C12 1.359 . S
C13 C14 1.380 . S
C13 H36 0.929 . S
C14 C13 1.380 . S
C14 C15 1.347 1_455 S
C14 H37 0.931 . S
C15 C14 1.347 1_655 S
C15 C16 1.369 . S
C16 C15 1.369 . S
C16 C17 1.408 1_655 S
C16 H38 0.930 . S
C17 C12 1.348 . S
C17 C16 1.408 1_455 S
C17 H39 0.930 . S
C18 O28 1.281 . S
C18 O29 1.254 . S
C19 O30 1.236 . S
C19 O31 1.266 . S
O20 Tb0 2.484 . S
O20 C2 1.248 . S
O21 Tb0 2.440 . S
O21 C2 1.266 . S
O22 Tb0 2.658 . S
O22 Tb1 2.325 . S
O22 C9 1.281 . S
O23 Tb0 2.409 . S
O23 C9 1.254 . S
O24 Tb0 2.378 . S
O24 C10 1.236 . S
O25 Tb1 2.341 . S
O25 C10 1.266 . S
O26 Tb1 2.484 . S
O26 C11 1.248 . S
O27 Tb1 2.440 . S
O27 C11 1.266 . S
O28 Tb0 2.325 . S
O28 Tb1 2.658 . S
O28 C18 1.281 . S
O29 Tb1 2.409 . S
O29 C18 1.254 . S
O30 Tb1 2.378 . S
O30 C19 1.236 . S
O31 Tb0 2.341 . S
O31 C19 1.266 . S
H32 C4 0.929 . S
H33 C5 0.931 . S
H34 C7 0.930 . S
H35 C8 0.930 . S
H36 C13 0.929 . S
H37 C14 0.931 . S
H38 C16 0.930 . S
H39 C17 0.930 . S
Tb40 C42 2.809 . S
Tb40 O60 2.484 . S
Tb40 O61 2.440 . S
Tb40 O62 2.658 . S
Tb40 O63 2.409 . S
Tb40 O64 2.378 . S
Tb40 O68 2.325 . S
Tb40 O71 2.341 . S
Tb41 C51 2.809 . S
Tb41 O62 2.325 . S
Tb41 O65 2.341 . S
Tb41 O66 2.484 . S
Tb41 O67 2.440 . S
Tb41 O68 2.658 . S
Tb41 O69 2.409 . S
Tb41 O70 2.378 . S
C42 Tb40 2.809 . S
C42 C43 1.514 . S
C42 O60 1.248 . S
C42 O61 1.266 . S
C43 C42 1.514 . S
C43 C44 1.359 . S
C43 C48 1.348 . S
C44 C43 1.359 . S
C44 C45 1.380 . S
C44 H72 0.929 . S
C45 C44 1.380 . S
C45 C46 1.347 1_565 S
C45 H73 0.931 . S
C46 C45 1.347 1_545 S
C46 C47 1.369 . S
C47 C46 1.369 . S
C47 C48 1.408 1_545 S
C47 H74 0.930 . S
C48 C43 1.348 . S
C48 C47 1.408 1_565 S
C48 H75 0.930 . S
C49 O62 1.281 . S
C49 O63 1.254 . S
C50 O64 1.236 . S
C50 O65 1.266 . S
C51 Tb41 2.809 . S
C51 C52 1.514 . S
C51 O66 1.248 . S
C51 O67 1.266 . S
C52 C51 1.514 . S
C52 C53 1.359 . S
C52 C57 1.348 . S
C53 C52 1.359 . S
C53 C54 1.380 . S
C53 H76 0.929 . S
C54 C53 1.380 . S
C54 C55 1.347 . S
C54 H77 0.931 . S
C55 C54 1.347 . S
C55 C56 1.369 . S
C56 C55 1.369 . S
C56 C57 1.408 . S
C56 H78 0.930 . S
C57 C52 1.348 . S
C57 C56 1.408 . S
C57 H79 0.930 . S
C58 O68 1.281 . S
C58 O69 1.254 . S
C59 O70 1.236 . S
C59 O71 1.266 . S
O60 Tb40 2.484 . S
O60 C42 1.248 . S
O61 Tb40 2.440 . S
O61 C42 1.266 . S
O62 Tb40 2.658 . S
O62 Tb41 2.325 . S
O62 C49 1.281 . S
O63 Tb40 2.409 . S
O63 C49 1.254 . S
O64 Tb40 2.378 . S
O64 C50 1.236 . S
O65 Tb41 2.341 . S
O65 C50 1.266 . S
O66 Tb41 2.484 . S
O66 C51 1.248 . S
O67 Tb41 2.440 . S
O67 C51 1.266 . S
O68 Tb40 2.325 . S
O68 Tb41 2.658 . S
O68 C58 1.281 . S
O69 Tb41 2.409 . S
O69 C58 1.254 . S
O70 Tb41 2.378 . S
O70 C59 1.236 . S
O71 Tb40 2.341 . S
O71 C59 1.266 . S
H72 C44 0.929 . S
H73 C45 0.931 . S
H74 C47 0.930 . S
H75 C48 0.930 . S
H76 C53 0.929 . S
H77 C54 0.931 . S
H78 C56 0.930 . S
H79 C57 0.930 . S
Tb80 C82 2.809 . S
Tb80 O100 2.484 . S
Tb80 O101 2.440 . S
Tb80 O102 2.658 . S
Tb80 O103 2.409 . S
Tb80 O104 2.378 . S
Tb80 O108 2.325 . S
Tb80 O111 2.341 . S
Tb81 C91 2.809 . S
Tb81 O102 2.325 . S
Tb81 O105 2.341 . S
Tb81 O106 2.484 . S
Tb81 O107 2.440 . S
Tb81 O108 2.658 . S
Tb81 O109 2.409 . S
Tb81 O110 2.378 . S
C82 Tb80 2.809 . S
C82 C83 1.514 . S
C82 O100 1.248 . S
C82 O101 1.266 . S
C83 C82 1.514 . S
C83 C84 1.359 . S
C83 C88 1.348 . S
C84 C83 1.359 . S
C84 C85 1.380 . S
C84 H112 0.929 . S
C85 C84 1.380 . S
C85 C86 1.347 . S
C85 H113 0.931 . S
C86 C85 1.347 . S
C86 C87 1.369 . S
C87 C86 1.369 . S
C87 C88 1.408 . S
C87 H114 0.930 . S
C88 C83 1.348 . S
C88 C87 1.408 . S
C88 H115 0.930 . S
C89 O102 1.281 . S
C89 O103 1.254 . S
C90 O104 1.236 . S
C90 O105 1.266 . S
C91 Tb81 2.809 . S
C91 C92 1.514 . S
C91 O106 1.248 . S
C91 O107 1.266 . S
C92 C91 1.514 . S
C92 C93 1.359 . S
C92 C97 1.348 . S
C93 C92 1.359 . S
C93 C94 1.380 . S
C93 H116 0.929 . S
C94 C93 1.380 . S
C94 C95 1.347 . S
C94 H117 0.931 . S
C95 C94 1.347 . S
C95 C96 1.369 . S
C96 C95 1.369 . S
C96 C97 1.408 . S
C96 H118 0.930 . S
C97 C92 1.348 . S
C97 C96 1.408 . S
C97 H119 0.930 . S
C98 O108 1.281 . S
C98 O109 1.254 . S
C99 O110 1.236 . S
C99 O111 1.266 . S
O100 Tb80 2.484 . S
O100 C82 1.248 . S
O101 Tb80 2.440 . S
O101 C82 1.266 . S
O102 Tb80 2.658 . S
O102 Tb81 2.325 . S
O102 C89 1.281 . S
O103 Tb80 2.409 . S
O103 C89 1.254 . S
O104 Tb80 2.378 . S
O104 C90 1.236 . S
O105 Tb81 2.341 . S
O105 C90 1.266 . S
O106 Tb81 2.484 . S
O106 C91 1.248 . S
O107 Tb81 2.440 . S
O107 C91 1.266 . S
O108 Tb80 2.325 . S
O108 Tb81 2.658 . S
O108 C98 1.281 . S
O109 Tb81 2.409 . S
O109 C98 1.254 . S
O110 Tb81 2.378 . S
O110 C99 1.236 . S
O111 Tb80 2.341 . S
O111 C99 1.266 . S
H112 C84 0.929 . S
H113 C85 0.931 . S
H114 C87 0.930 . S
H115 C88 0.930 . S
H116 C93 0.929 . S
H117 C94 0.931 . S
H118 C96 0.930 . S
H119 C97 0.930 . S
Tb120 C122 2.809 1_554 S
Tb120 O140 2.484 1_554 S
Tb120 O141 2.440 1_554 S
Tb120 O142 2.658 . S
Tb120 O143 2.409 . S
Tb120 O144 2.378 1_554 S
Tb120 O148 2.331 . S
Tb120 O151 2.341 . S
Tb121 C131 2.809 . S
Tb121 O142 2.325 . S
Tb121 O145 2.341 1_554 S
Tb121 O146 2.484 . S
Tb121 O147 2.440 . S
Tb121 O148 2.665 . S
Tb121 O149 2.409 . S
Tb121 O150 2.378 . S
C122 Tb120 2.809 1_556 S
C122 C123 1.514 . S
C122 O140 1.248 . S
C122 O141 1.266 . S
C123 C122 1.514 . S
C123 C124 1.359 . S
C123 C128 1.348 . S
C124 C123 1.359 . S
C124 C125 1.380 . S
C124 H152 0.929 . S
C125 C124 1.380 . S
C125 C126 1.347 1_545 S
C125 H153 0.931 . S
C126 C125 1.347 1_565 S
C126 C127 1.369 . S
C127 C126 1.369 . S
C127 C128 1.408 1_565 S
C127 H154 0.930 . S
C128 C123 1.348 . S
C128 C127 1.408 1_545 S
C128 H155 0.930 . S
C129 O142 1.281 . S
C129 O143 1.254 . S
C130 O144 1.236 . S
C130 O145 1.266 . S
C131 Tb121 2.809 . S
C131 C132 1.514 . S
C131 O146 1.248 . S
C131 O147 1.266 . S
C132 C131 1.514 . S
C132 C133 1.359 . S
C132 C137 1.348 . S
C133 C132 1.359 . S
C133 C134 1.380 . S
C133 H156 0.929 . S
C134 C133 1.380 . S
C134 C135 1.347 . S
C134 H157 0.931 . S
C135 C134 1.347 . S
C135 C136 1.369 . S
C136 C135 1.369 . S
C136 C137 1.408 . S
C136 H158 0.930 . S
C137 C132 1.348 . S
C137 C136 1.408 . S
C137 H159 0.930 . S
C138 O148 1.279 1_556 S
C138 O149 1.254 1_556 S
C139 O150 1.236 . S
C139 O151 1.266 . S
O140 Tb120 2.484 1_556 S
O140 C122 1.248 . S
O141 Tb120 2.440 1_556 S
O141 C122 1.266 . S
O142 Tb120 2.658 . S
O142 Tb121 2.325 . S
O142 C129 1.281 . S
O143 Tb120 2.409 . S
O143 C129 1.254 . S
O144 Tb120 2.378 1_556 S
O144 C130 1.236 . S
O145 Tb121 2.341 1_556 S
O145 C130 1.266 . S
O146 Tb121 2.484 . S
O146 C131 1.248 . S
O147 Tb121 2.440 . S
O147 C131 1.266 . S
O148 Tb120 2.331 . S
O148 Tb121 2.665 . S
O148 C138 1.279 1_554 S
O149 Tb121 2.409 . S
O149 C138 1.254 1_554 S
O150 Tb121 2.378 . S
O150 C139 1.236 . S
O151 Tb120 2.341 . S
O151 C139 1.266 . S
H152 C124 0.929 . S
H153 C125 0.931 . S
H154 C127 0.930 . S
H155 C128 0.930 . S
H156 C133 0.929 . S
H157 C134 0.931 . S
H158 C136 0.930 . S
H159 C137 0.930 . S
Tb160 C162 2.809 . S
Tb160 O180 2.484 . S
Tb160 O181 2.440 . S
Tb160 O182 2.658 . S
Tb160 O183 2.409 . S
Tb160 O184 2.378 . S
Tb160 O188 2.325 . S
Tb160 O191 2.341 . S
Tb161 C171 2.809 . S
Tb161 O182 2.325 . S
Tb161 O185 2.341 . S
Tb161 O186 2.484 . S
Tb161 O187 2.440 . S
Tb161 O188 2.658 . S
Tb161 O189 2.409 . S
Tb161 O190 2.378 . S
C162 Tb160 2.809 . S
C162 C163 1.514 . S
C162 O180 1.248 . S
C162 O181 1.266 . S
C163 C162 1.514 . S
C163 C164 1.359 . S
C163 C168 1.348 . S
C164 C163 1.359 . S
C164 C165 1.380 . S
C164 H192 0.929 . S
C165 C164 1.380 . S
C165 C166 1.347 . S
C165 H193 0.931 . S
C166 C165 1.347 . S
C166 C167 1.369 . S
C167 C166 1.369 . S
C167 C168 1.408 . S
C167 H194 0.930 . S
C168 C163 1.348 . S
C168 C167 1.408 . S
C168 H195 0.930 . S
C169 O182 1.281 . S
C169 O183 1.254 . S
C170 O184 1.236 . S
C170 O185 1.266 . S
C171 Tb161 2.809 . S
C171 C172 1.514 . S
C171 O186 1.248 . S
C171 O187 1.266 . S
C172 C171 1.514 . S
C172 C173 1.359 . S
C172 C177 1.348 . S
C173 C172 1.359 . S
C173 C174 1.380 . S
C173 H196 0.929 . S
C174 C173 1.380 . S
C174 C175 1.347 1_455 S
C174 H197 0.931 . S
C175 C174 1.347 1_655 S
C175 C176 1.369 . S
C176 C175 1.369 . S
C176 C177 1.408 1_655 S
C176 H198 0.930 . S
C177 C172 1.348 . S
C177 C176 1.408 1_455 S
C177 H199 0.930 . S
C178 O188 1.281 . S
C178 O189 1.254 . S
C179 O190 1.236 . S
C179 O191 1.266 . S
O180 Tb160 2.484 . S
O180 C162 1.248 . S
O181 Tb160 2.440 . S
O181 C162 1.266 . S
O182 Tb160 2.658 . S
O182 Tb161 2.325 . S
O182 C169 1.281 . S
O183 Tb160 2.409 . S
O183 C169 1.254 . S
O184 Tb160 2.378 . S
O184 C170 1.236 . S
O185 Tb161 2.341 . S
O185 C170 1.266 . S
O186 Tb161 2.484 . S
O186 C171 1.248 . S
O187 Tb161 2.440 . S
O187 C171 1.266 . S
O188 Tb160 2.325 . S
O188 Tb161 2.658 . S
O188 C178 1.281 . S
O189 Tb161 2.409 . S
O189 C178 1.254 . S
O190 Tb161 2.378 . S
O190 C179 1.236 . S
O191 Tb160 2.341 . S
O191 C179 1.266 . S
H192 C164 0.929 . S
H193 C165 0.931 . S
H194 C167 0.930 . S
H195 C168 0.930 . S
H196 C173 0.929 . S
H197 C174 0.931 . S
H198 C176 0.930 . S
H199 C177 0.930 . S
Tb200 C202 2.809 . S
Tb200 O220 2.484 . S
Tb200 O221 2.440 . S
Tb200 O222 2.658 . S
Tb200 O223 2.409 . S
Tb200 O224 2.378 . S
Tb200 O228 2.325 . S
Tb200 O231 2.341 . S
Tb201 C211 2.809 . S
Tb201 O222 2.325 . S
Tb201 O225 2.341 . S
Tb201 O226 2.484 . S
Tb201 O227 2.440 . S
Tb201 O228 2.658 . S
Tb201 O229 2.409 . S
Tb201 O230 2.378 . S
C202 Tb200 2.809 . S
C202 C203 1.514 . S
C202 O220 1.248 . S
C202 O221 1.266 . S
C203 C202 1.514 . S
C203 C204 1.359 . S
C203 C208 1.348 . S
C204 C203 1.359 . S
C204 C205 1.380 . S
C204 H232 0.929 . S
C205 C204 1.380 . S
C205 C206 1.347 1_565 S
C205 H233 0.931 . S
C206 C205 1.347 1_545 S
C206 C207 1.369 . S
C207 C206 1.369 . S
C207 C208 1.408 1_545 S
C207 H234 0.930 . S
C208 C203 1.348 . S
C208 C207 1.408 1_565 S
C208 H235 0.930 . S
C209 O222 1.281 . S
C209 O223 1.254 . S
C210 O224 1.236 . S
C210 O225 1.266 . S
C211 Tb201 2.809 . S
C211 C212 1.514 . S
C211 O226 1.248 . S
C211 O227 1.266 . S
C212 C211 1.514 . S
C212 C213 1.359 . S
C212 C217 1.348 . S
C213 C212 1.359 . S
C213 C214 1.380 . S
C213 H236 0.929 . S
C214 C213 1.380 . S
C214 C215 1.347 . S
C214 H237 0.931 . S
C215 C214 1.347 . S
C215 C216 1.369 . S
C216 C215 1.369 . S
C216 C217 1.408 . S
C216 H238 0.930 . S
C217 C212 1.348 . S
C217 C216 1.408 . S
C217 H239 0.930 . S
C218 O228 1.281 . S
C218 O229 1.254 . S
C219 O230 1.236 . S
C219 O231 1.266 . S
O220 Tb200 2.484 . S
O220 C202 1.248 . S
O221 Tb200 2.440 . S
O221 C202 1.266 . S
O222 Tb200 2.658 . S
O222 Tb201 2.325 . S
O222 C209 1.281 . S
O223 Tb200 2.409 . S
O223 C209 1.254 . S
O224 Tb200 2.378 . S
O224 C210 1.236 . S
O225 Tb201 2.341 . S
O225 C210 1.266 . S
O226 Tb201 2.484 . S
O226 C211 1.248 . S
O227 Tb201 2.440 . S
O227 C211 1.266 . S
O228 Tb200 2.325 . S
O228 Tb201 2.658 . S
O228 C218 1.281 . S
O229 Tb201 2.409 . S
O229 C218 1.254 . S
O230 Tb201 2.378 . S
O230 C219 1.236 . S
O231 Tb200 2.341 . S
O231 C219 1.266 . S
H232 C204 0.929 . S
H233 C205 0.931 . S
H234 C207 0.930 . S
H235 C208 0.930 . S
H236 C213 0.929 . S
H237 C214 0.931 . S
H238 C216 0.930 . S
H239 C217 0.930 . S
Tb240 C242 2.809 . S
Tb240 O260 2.484 . S
Tb240 O261 2.440 . S
Tb240 O262 2.658 . S
Tb240 O263 2.409 . S
Tb240 O264 2.378 . S
Tb240 O268 2.325 . S
Tb240 O271 2.341 . S
Tb241 C251 2.809 . S
Tb241 O262 2.325 . S
Tb241 O265 2.341 . S
Tb241 O266 2.484 . S
Tb241 O267 2.440 . S
Tb241 O268 2.658 . S
Tb241 O269 2.409 . S
Tb241 O270 2.378 . S
C242 Tb240 2.809 . S
C242 C243 1.514 . S
C242 O260 1.248 . S
C242 O261 1.266 . S
C243 C242 1.514 . S
C243 C244 1.359 . S
C243 C248 1.348 . S
C244 C243 1.359 . S
C244 C245 1.380 . S
C244 H272 0.929 . S
C245 C244 1.380 . S
C245 C246 1.347 . S
C245 H273 0.931 . S
C246 C245 1.347 . S
C246 C247 1.369 . S
C247 C246 1.369 . S
C247 C248 1.408 . S
C247 H274 0.930 . S
C248 C243 1.348 . S
C248 C247 1.408 . S
C248 H275 0.930 . S
C249 O262 1.281 . S
C249 O263 1.254 . S
C250 O264 1.236 . S
C250 O265 1.266 . S
C251 Tb241 2.809 . S
C251 C252 1.514 . S
C251 O266 1.248 . S
C251 O267 1.266 . S
C252 C251 1.514 . S
C252 C253 1.359 . S
C252 C257 1.348 . S
C253 C252 1.359 . S
C253 C254 1.380 . S
C253 H276 0.929 . S
C254 C253 1.380 . S
C254 C255 1.347 . S
C254 H277 0.931 . S
C255 C254 1.347 . S
C255 C256 1.369 . S
C256 C255 1.369 . S
C256 C257 1.408 . S
C256 H278 0.930 . S
C257 C252 1.348 . S
C257 C256 1.408 . S
C257 H279 0.930 . S
C258 O268 1.281 . S
C258 O269 1.254 . S
C259 O270 1.236 . S
C259 O271 1.266 . S
O260 Tb240 2.484 . S
O260 C242 1.248 . S
O261 Tb240 2.440 . S
O261 C242 1.266 . S
O262 Tb240 2.658 . S
O262 Tb241 2.325 . S
O262 C249 1.281 . S
O263 Tb240 2.409 . S
O263 C249 1.254 . S
O264 Tb240 2.378 . S
O264 C250 1.236 . S
O265 Tb241 2.341 . S
O265 C250 1.266 . S
O266 Tb241 2.484 . S
O266 C251 1.248 . S
O267 Tb241 2.440 . S
O267 C251 1.266 . S
O268 Tb240 2.325 . S
O268 Tb241 2.658 . S
O268 C258 1.281 . S
O269 Tb241 2.409 . S
O269 C258 1.254 . S
O270 Tb241 2.378 . S
O270 C259 1.236 . S
O271 Tb240 2.341 . S
O271 C259 1.266 . S
H272 C244 0.929 . S
H273 C245 0.931 . S
H274 C247 0.930 . S
H275 C248 0.930 . S
H276 C253 0.929 . S
H277 C254 0.931 . S
H278 C256 0.930 . S
H279 C257 0.930 . S
Tb280 C282 2.809 1_556 S
Tb280 O300 2.484 1_556 S
Tb280 O301 2.440 1_556 S
Tb280 O302 2.658 . S
Tb280 O303 2.409 . S
Tb280 O304 2.378 1_556 S
Tb280 O308 2.331 . S
Tb280 O311 2.341 . S
Tb281 C291 2.809 . S
Tb281 O302 2.325 . S
Tb281 O305 2.341 1_556 S
Tb281 O306 2.484 . S
Tb281 O307 2.440 . S
Tb281 O308 2.665 . S
Tb281 O309 2.409 . S
Tb281 O310 2.378 . S
C282 Tb280 2.809 1_554 S
C282 C283 1.514 . S
C282 O300 1.248 . S
C282 O301 1.266 . S
C283 C282 1.514 . S
C283 C284 1.359 . S
C283 C288 1.348 . S
C284 C283 1.359 . S
C284 C285 1.380 . S
C284 H312 0.929 . S
C285 C284 1.380 . S
C285 C286 1.347 1_545 S
C285 H313 0.931 . S
C286 C285 1.347 1_565 S
C286 C287 1.369 . S
C287 C286 1.369 . S
C287 C288 1.408 1_565 S
C287 H314 0.930 . S
C288 C283 1.348 . S
C288 C287 1.408 1_545 S
C288 H315 0.930 . S
C289 O302 1.281 . S
C289 O303 1.254 . S
C290 O304 1.236 . S
C290 O305 1.266 . S
C291 Tb281 2.809 . S
C291 C292 1.514 . S
C291 O306 1.248 . S
C291 O307 1.266 . S
C292 C291 1.514 . S
C292 C293 1.359 . S
C292 C297 1.348 . S
C293 C292 1.359 . S
C293 C294 1.380 . S
C293 H316 0.929 . S
C294 C293 1.380 . S
C294 C295 1.347 . S
C294 H317 0.931 . S
C295 C294 1.347 . S
C295 C296 1.369 . S
C296 C295 1.369 . S
C296 C297 1.408 . S
C296 H318 0.930 . S
C297 C292 1.348 . S
C297 C296 1.408 . S
C297 H319 0.930 . S
C298 O308 1.279 1_554 S
C298 O309 1.254 1_554 S
C299 O310 1.236 . S
C299 O311 1.266 . S
O300 Tb280 2.484 1_554 S
O300 C282 1.248 . S
O301 Tb280 2.440 1_554 S
O301 C282 1.266 . S
O302 Tb280 2.658 . S
O302 Tb281 2.325 . S
O302 C289 1.281 . S
O303 Tb280 2.409 . S
O303 C289 1.254 . S
O304 Tb280 2.378 1_554 S
O304 C290 1.236 . S
O305 Tb281 2.341 1_554 S
O305 C290 1.266 . S
O306 Tb281 2.484 . S
O306 C291 1.248 . S
O307 Tb281 2.440 . S
O307 C291 1.266 . S
O308 Tb280 2.331 . S
O308 Tb281 2.665 . S
O308 C298 1.279 1_556 S
O309 Tb281 2.409 . S
O309 C298 1.254 1_556 S
O310 Tb281 2.378 . S
O310 C299 1.236 . S
O311 Tb280 2.341 . S
O311 C299 1.266 . S
H312 C284 0.929 . S
H313 C285 0.931 . S
H314 C287 0.930 . S
H315 C288 0.930 . S
H316 C293 0.929 . S
H317 C294 0.931 . S
H318 C296 0.930 . S
H319 C297 0.930 . S
Tb320 C322 2.809 . S
Tb320 O340 2.484 . S
Tb320 O341 2.440 . S
Tb320 O342 2.658 . S
Tb320 O343 2.409 . S
Tb320 O344 2.378 . S
Tb320 O348 2.325 . S
Tb320 O351 2.341 . S
Tb321 C331 2.809 . S
Tb321 O342 2.325 . S
Tb321 O345 2.341 . S
Tb321 O346 2.484 . S
Tb321 O347 2.440 . S
Tb321 O348 2.658 . S
Tb321 O349 2.409 . S
Tb321 O350 2.378 . S
C322 Tb320 2.809 . S
C322 C323 1.514 . S
C322 O340 1.248 . S
C322 O341 1.266 . S
C323 C322 1.514 . S
C323 C324 1.359 . S
C323 C328 1.348 . S
C324 C323 1.359 . S
C324 C325 1.380 . S
C324 H352 0.929 . S
C325 C324 1.380 . S
C325 C326 1.347 1_655 S
C325 H353 0.931 . S
C326 C325 1.347 1_455 S
C326 C327 1.369 . S
C327 C326 1.369 . S
C327 C328 1.408 1_455 S
C327 H354 0.930 . S
C328 C323 1.348 . S
C328 C327 1.408 1_655 S
C328 H355 0.930 . S
C329 O342 1.281 . S
C329 O343 1.254 . S
C330 O344 1.236 . S
C330 O345 1.266 . S
C331 Tb321 2.809 . S
C331 C332 1.514 . S
C331 O346 1.248 . S
C331 O347 1.266 . S
C332 C331 1.514 . S
C332 C333 1.359 . S
C332 C337 1.348 . S
C333 C332 1.359 . S
C333 C334 1.380 . S
C333 H356 0.929 . S
C334 C333 1.380 . S
C334 C335 1.347 . S
C334 H357 0.931 . S
C335 C334 1.347 . S
C335 C336 1.369 . S
C336 C335 1.369 . S
C336 C337 1.408 . S
C336 H358 0.930 . S
C337 C332 1.348 . S
C337 C336 1.408 . S
C337 H359 0.930 . S
C338 O348 1.281 . S
C338 O349 1.254 . S
C339 O350 1.236 . S
C339 O351 1.266 . S
O340 Tb320 2.484 . S
O340 C322 1.248 . S
O341 Tb320 2.440 . S
O341 C322 1.266 . S
O342 Tb320 2.658 . S
O342 Tb321 2.325 . S
O342 C329 1.281 . S
O343 Tb320 2.409 . S
O343 C329 1.254 . S
O344 Tb320 2.378 . S
O344 C330 1.236 . S
O345 Tb321 2.341 . S
O345 C330 1.266 . S
O346 Tb321 2.484 . S
O346 C331 1.248 . S
O347 Tb321 2.440 . S
O347 C331 1.266 . S
O348 Tb320 2.325 . S
O348 Tb321 2.658 . S
O348 C338 1.281 . S
O349 Tb321 2.409 . S
O349 C338 1.254 . S
O350 Tb321 2.378 . S
O350 C339 1.236 . S
O351 Tb320 2.341 . S
O351 C339 1.266 . S
H352 C324 0.929 . S
H353 C325 0.931 . S
H354 C327 0.930 . S
H355 C328 0.930 . S
H356 C333 0.929 . S
H357 C334 0.931 . S
H358 C336 0.930 . S
H359 C337 0.930 . S
Tb360 C362 2.809 . S
Tb360 O380 2.484 . S
Tb360 O381 2.440 . S
Tb360 O382 2.658 . S
Tb360 O383 2.409 . S
Tb360 O384 2.378 . S
Tb360 O388 2.325 . S
Tb360 O391 2.341 . S
Tb361 C371 2.809 . S
Tb361 O382 2.325 . S
Tb361 O385 2.341 . S
Tb361 O386 2.484 . S
Tb361 O387 2.440 . S
Tb361 O388 2.658 . S
Tb361 O389 2.409 . S
Tb361 O390 2.378 . S
C362 Tb360 2.809 . S
C362 C363 1.514 . S
C362 O380 1.248 . S
C362 O381 1.266 . S
C363 C362 1.514 . S
C363 C364 1.359 . S
C363 C368 1.348 . S
C364 C363 1.359 . S
C364 C365 1.380 . S
C364 H392 0.929 . S
C365 C364 1.380 . S
C365 C366 1.347 . S
C365 H393 0.931 . S
C366 C365 1.347 . S
C366 C367 1.369 . S
C367 C366 1.369 . S
C367 C368 1.408 . S
C367 H394 0.930 . S
C368 C363 1.348 . S
C368 C367 1.408 . S
C368 H395 0.930 . S
C369 O382 1.281 . S
C369 O383 1.254 . S
C370 O384 1.236 . S
C370 O385 1.266 . S
C371 Tb361 2.809 . S
C371 C372 1.514 . S
C371 O386 1.248 . S
C371 O387 1.266 . S
C372 C371 1.514 . S
C372 C373 1.359 . S
C372 C377 1.348 . S
C373 C372 1.359 . S
C373 C374 1.380 . S
C373 H396 0.929 . S
C374 C373 1.380 . S
C374 C375 1.347 1_545 S
C374 H397 0.931 . S
C375 C374 1.347 1_565 S
C375 C376 1.369 . S
C376 C375 1.369 . S
C376 C377 1.408 1_565 S
C376 H398 0.930 . S
C377 C372 1.348 . S
C377 C376 1.408 1_545 S
C377 H399 0.930 . S
C378 O388 1.281 . S
C378 O389 1.254 . S
C379 O390 1.236 . S
C379 O391 1.266 . S
O380 Tb360 2.484 . S
O380 C362 1.248 . S
O381 Tb360 2.440 . S
O381 C362 1.266 . S
O382 Tb360 2.658 . S
O382 Tb361 2.325 . S
O382 C369 1.281 . S
O383 Tb360 2.409 . S
O383 C369 1.254 . S
O384 Tb360 2.378 . S
O384 C370 1.236 . S
O385 Tb361 2.341 . S
O385 C370 1.266 . S
O386 Tb361 2.484 . S
O386 C371 1.248 . S
O387 Tb361 2.440 . S
O387 C371 1.266 . S
O388 Tb360 2.325 . S
O388 Tb361 2.658 . S
O388 C378 1.281 . S
O389 Tb361 2.409 . S
O389 C378 1.254 . S
O390 Tb361 2.378 . S
O390 C379 1.236 . S
O391 Tb360 2.341 . S
O391 C379 1.266 . S
H392 C364 0.929 . S
H393 C365 0.931 . S
H394 C367 0.930 . S
H395 C368 0.930 . S
H396 C373 0.929 . S
H397 C374 0.931 . S
H398 C376 0.930 . S
H399 C377 0.930 . S
Tb400 C402 2.809 . S
Tb400 O420 2.484 . S
Tb400 O421 2.440 . S
Tb400 O422 2.658 . S
Tb400 O423 2.409 . S
Tb400 O424 2.378 . S
Tb400 O428 2.325 . S
Tb400 O431 2.341 . S
Tb401 C411 2.809 . S
Tb401 O422 2.325 . S
Tb401 O425 2.341 . S
Tb401 O426 2.484 . S
Tb401 O427 2.440 . S
Tb401 O428 2.658 . S
Tb401 O429 2.409 . S
Tb401 O430 2.378 . S
C402 Tb400 2.809 . S
C402 C403 1.514 . S
C402 O420 1.248 . S
C402 O421 1.266 . S
C403 C402 1.514 . S
C403 C404 1.359 . S
C403 C408 1.348 . S
C404 C403 1.359 . S
C404 C405 1.380 . S
C404 H432 0.929 . S
C405 C404 1.380 . S
C405 C406 1.347 . S
C405 H433 0.931 . S
C406 C405 1.347 . S
C406 C407 1.369 . S
C407 C406 1.369 . S
C407 C408 1.408 . S
C407 H434 0.930 . S
C408 C403 1.348 . S
C408 C407 1.408 . S
C408 H435 0.930 . S
C409 O422 1.281 . S
C409 O423 1.254 . S
C410 O424 1.236 . S
C410 O425 1.266 . S
C411 Tb401 2.809 . S
C411 C412 1.514 . S
C411 O426 1.248 . S
C411 O427 1.266 . S
C412 C411 1.514 . S
C412 C413 1.359 . S
C412 C417 1.348 . S
C413 C412 1.359 . S
C413 C414 1.380 . S
C413 H436 0.929 . S
C414 C413 1.380 . S
C414 C415 1.347 . S
C414 H437 0.931 . S
C415 C414 1.347 . S
C415 C416 1.369 . S
C416 C415 1.369 . S
C416 C417 1.408 . S
C416 H438 0.930 . S
C417 C412 1.348 . S
C417 C416 1.408 . S
C417 H439 0.930 . S
C418 O428 1.281 . S
C418 O429 1.254 . S
C419 O430 1.236 . S
C419 O431 1.266 . S
O420 Tb400 2.484 . S
O420 C402 1.248 . S
O421 Tb400 2.440 . S
O421 C402 1.266 . S
O422 Tb400 2.658 . S
O422 Tb401 2.325 . S
O422 C409 1.281 . S
O423 Tb400 2.409 . S
O423 C409 1.254 . S
O424 Tb400 2.378 . S
O424 C410 1.236 . S
O425 Tb401 2.341 . S
O425 C410 1.266 . S
O426 Tb401 2.484 . S
O426 C411 1.248 . S
O427 Tb401 2.440 . S
O427 C411 1.266 . S
O428 Tb400 2.325 . S
O428 Tb401 2.658 . S
O428 C418 1.281 . S
O429 Tb401 2.409 . S
O429 C418 1.254 . S
O430 Tb401 2.378 . S
O430 C419 1.236 . S
O431 Tb400 2.341 . S
O431 C419 1.266 . S
H432 C404 0.929 . S
H433 C405 0.931 . S
H434 C407 0.930 . S
H435 C408 0.930 . S
H436 C413 0.929 . S
H437 C414 0.931 . S
H438 C416 0.930 . S
H439 C417 0.930 . S
Tb440 C442 2.809 . S
Tb440 O460 2.484 . S
Tb440 O461 2.440 . S
Tb440 O462 2.665 . S
Tb440 O463 2.409 . S
Tb440 O464 2.378 . S
Tb440 O468 2.325 . S
Tb440 O471 2.341 1_556 S
Tb441 C451 2.809 1_556 S
Tb441 O462 2.331 . S
Tb441 O465 2.341 . S
Tb441 O466 2.484 1_556 S
Tb441 O467 2.440 1_556 S
Tb441 O468 2.658 . S
Tb441 O469 2.409 . S
Tb441 O470 2.378 1_556 S
C442 Tb440 2.809 . S
C442 C443 1.514 . S
C442 O460 1.248 . S
C442 O461 1.266 . S
C443 C442 1.514 . S
C443 C444 1.359 . S
C443 C448 1.348 . S
C444 C443 1.359 . S
C444 C445 1.380 . S
C444 H472 0.929 . S
C445 C444 1.380 . S
C445 C446 1.347 . S
C445 H473 0.931 . S
C446 C445 1.347 . S
C446 C447 1.369 . S
C447 C446 1.369 . S
C447 C448 1.408 . S
C447 H474 0.930 . S
C448 C443 1.348 . S
C448 C447 1.408 . S
C448 H475 0.930 . S
C449 O462 1.279 1_554 S
C449 O463 1.254 1_554 S
C450 O464 1.236 . S
C450 O465 1.266 . S
C451 Tb441 2.809 1_554 S
C451 C452 1.514 . S
C451 O466 1.248 . S
C451 O467 1.266 . S
C452 C451 1.514 . S
C452 C453 1.359 . S
C452 C457 1.348 . S
C453 C452 1.359 . S
C453 C454 1.380 . S
C453 H476 0.929 . S
C454 C453 1.380 . S
C454 C455 1.347 1_565 S
C454 H477 0.931 . S
C455 C454 1.347 1_545 S
C455 C456 1.369 . S
C456 C455 1.369 . S
C456 C457 1.408 1_545 S
C456 H478 0.930 . S
C457 C452 1.348 . S
C457 C456 1.408 1_565 S
C457 H479 0.930 . S
C458 O468 1.281 . S
C458 O469 1.254 . S
C459 O470 1.236 . S
C459 O471 1.266 . S
O460 Tb440 2.484 . S
O460 C442 1.248 . S
O461 Tb440 2.440 . S
O461 C442 1.266 . S
O462 Tb440 2.665 . S
O462 Tb441 2.331 . S
O462 C449 1.279 1_556 S
O463 Tb440 2.409 . S
O463 C449 1.254 1_556 S
O464 Tb440 2.378 . S
O464 C450 1.236 . S
O465 Tb441 2.341 . S
O465 C450 1.266 . S
O466 Tb441 2.484 1_554 S
O466 C451 1.248 . S
O467 Tb441 2.440 1_554 S
O467 C451 1.266 . S
O468 Tb440 2.325 . S
O468 Tb441 2.658 . S
O468 C458 1.281 . S
O469 Tb441 2.409 . S
O469 C458 1.254 . S
O470 Tb441 2.378 1_554 S
O470 C459 1.236 . S
O471 Tb440 2.341 1_554 S
O471 C459 1.266 . S
H472 C444 0.929 . S
H473 C445 0.931 . S
H474 C447 0.930 . S
H475 C448 0.930 . S
H476 C453 0.929 . S
H477 C454 0.931 . S
H478 C456 0.930 . S
H479 C457 0.930 . S
Tb480 C482 2.809 . S
Tb480 O500 2.484 . S
Tb480 O501 2.440 . S
Tb480 O502 2.658 . S
Tb480 O503 2.409 . S
Tb480 O504 2.378 . S
Tb480 O508 2.325 . S
Tb480 O511 2.341 . S
Tb481 C491 2.809 . S
Tb481 O502 2.325 . S
Tb481 O505 2.341 . S
Tb481 O506 2.484 . S
Tb481 O507 2.440 . S
Tb481 O508 2.658 . S
Tb481 O509 2.409 . S
Tb481 O510 2.378 . S
C482 Tb480 2.809 . S
C482 C483 1.514 . S
C482 O500 1.248 . S
C482 O501 1.266 . S
C483 C482 1.514 . S
C483 C484 1.359 . S
C483 C488 1.348 . S
C484 C483 1.359 . S
C484 C485 1.380 . S
C484 H512 0.929 . S
C485 C484 1.380 . S
C485 C486 1.347 1_655 S
C485 H513 0.931 . S
C486 C485 1.347 1_455 S
C486 C487 1.369 . S
C487 C486 1.369 . S
C487 C488 1.408 1_455 S
C487 H514 0.930 . S
C488 C483 1.348 . S
C488 C487 1.408 1_655 S
C488 H515 0.930 . S
C489 O502 1.281 . S
C489 O503 1.254 . S
C490 O504 1.236 . S
C490 O505 1.266 . S
C491 Tb481 2.809 . S
C491 C492 1.514 . S
C491 O506 1.248 . S
C491 O507 1.266 . S
C492 C491 1.514 . S
C492 C493 1.359 . S
C492 C497 1.348 . S
C493 C492 1.359 . S
C493 C494 1.380 . S
C493 H516 0.929 . S
C494 C493 1.380 . S
C494 C495 1.347 . S
C494 H517 0.931 . S
C495 C494 1.347 . S
C495 C496 1.369 . S
C496 C495 1.369 . S
C496 C497 1.408 . S
C496 H518 0.930 . S
C497 C492 1.348 . S
C497 C496 1.408 . S
C497 H519 0.930 . S
C498 O508 1.281 . S
C498 O509 1.254 . S
C499 O510 1.236 . S
C499 O511 1.266 . S
O500 Tb480 2.484 . S
O500 C482 1.248 . S
O501 Tb480 2.440 . S
O501 C482 1.266 . S
O502 Tb480 2.658 . S
O502 Tb481 2.325 . S
O502 C489 1.281 . S
O503 Tb480 2.409 . S
O503 C489 1.254 . S
O504 Tb480 2.378 . S
O504 C490 1.236 . S
O505 Tb481 2.341 . S
O505 C490 1.266 . S
O506 Tb481 2.484 . S
O506 C491 1.248 . S
O507 Tb481 2.440 . S
O507 C491 1.266 . S
O508 Tb480 2.325 . S
O508 Tb481 2.658 . S
O508 C498 1.281 . S
O509 Tb481 2.409 . S
O509 C498 1.254 . S
O510 Tb481 2.378 . S
O510 C499 1.236 . S
O511 Tb480 2.341 . S
O511 C499 1.266 . S
H512 C484 0.929 . S
H513 C485 0.931 . S
H514 C487 0.930 . S
H515 C488 0.930 . S
H516 C493 0.929 . S
H517 C494 0.931 . S
H518 C496 0.930 . S
H519 C497 0.930 . S
Tb520 C522 2.809 . S
Tb520 O540 2.484 . S
Tb520 O541 2.440 . S
Tb520 O542 2.658 . S
Tb520 O543 2.409 . S
Tb520 O544 2.378 . S
Tb520 O548 2.325 . S
Tb520 O551 2.341 . S
Tb521 C531 2.809 . S
Tb521 O542 2.325 . S
Tb521 O545 2.341 . S
Tb521 O546 2.484 . S
Tb521 O547 2.440 . S
Tb521 O548 2.658 . S
Tb521 O549 2.409 . S
Tb521 O550 2.378 . S
C522 Tb520 2.809 . S
C522 C523 1.514 . S
C522 O540 1.248 . S
C522 O541 1.266 . S
C523 C522 1.514 . S
C523 C524 1.359 . S
C523 C528 1.348 . S
C524 C523 1.359 . S
C524 C525 1.380 . S
C524 H552 0.929 . S
C525 C524 1.380 . S
C525 C526 1.347 . S
C525 H553 0.931 . S
C526 C525 1.347 . S
C526 C527 1.369 . S
C527 C526 1.369 . S
C527 C528 1.408 . S
C527 H554 0.930 . S
C528 C523 1.348 . S
C528 C527 1.408 . S
C528 H555 0.930 . S
C529 O542 1.281 . S
C529 O543 1.254 . S
C530 O544 1.236 . S
C530 O545 1.266 . S
C531 Tb521 2.809 . S
C531 C532 1.514 . S
C531 O546 1.248 . S
C531 O547 1.266 . S
C532 C531 1.514 . S
C532 C533 1.359 . S
C532 C537 1.348 . S
C533 C532 1.359 . S
C533 C534 1.380 . S
C533 H556 0.929 . S
C534 C533 1.380 . S
C534 C535 1.347 1_545 S
C534 H557 0.931 . S
C535 C534 1.347 1_565 S
C535 C536 1.369 . S
C536 C535 1.369 . S
C536 C537 1.408 1_565 S
C536 H558 0.930 . S
C537 C532 1.348 . S
C537 C536 1.408 1_545 S
C537 H559 0.930 . S
C538 O548 1.281 . S
C538 O549 1.254 . S
C539 O550 1.236 . S
C539 O551 1.266 . S
O540 Tb520 2.484 . S
O540 C522 1.248 . S
O541 Tb520 2.440 . S
O541 C522 1.266 . S
O542 Tb520 2.658 . S
O542 Tb521 2.325 . S
O542 C529 1.281 . S
O543 Tb520 2.409 . S
O543 C529 1.254 . S
O544 Tb520 2.378 . S
O544 C530 1.236 . S
O545 Tb521 2.341 . S
O545 C530 1.266 . S
O546 Tb521 2.484 . S
O546 C531 1.248 . S
O547 Tb521 2.440 . S
O547 C531 1.266 . S
O548 Tb520 2.325 . S
O548 Tb521 2.658 . S
O548 C538 1.281 . S
O549 Tb521 2.409 . S
O549 C538 1.254 . S
O550 Tb521 2.378 . S
O550 C539 1.236 . S
O551 Tb520 2.341 . S
O551 C539 1.266 . S
H552 C524 0.929 . S
H553 C525 0.931 . S
H554 C527 0.930 . S
H555 C528 0.930 . S
H556 C533 0.929 . S
H557 C534 0.931 . S
H558 C536 0.930 . S
H559 C537 0.930 . S
Tb560 C562 2.809 . S
Tb560 O580 2.484 . S
Tb560 O581 2.440 . S
Tb560 O582 2.658 . S
Tb560 O583 2.409 . S
Tb560 O584 2.378 . S
Tb560 O588 2.325 . S
Tb560 O591 2.341 . S
Tb561 C571 2.809 . S
Tb561 O582 2.325 . S
Tb561 O585 2.341 . S
Tb561 O586 2.484 . S
Tb561 O587 2.440 . S
Tb561 O588 2.658 . S
Tb561 O589 2.409 . S
Tb561 O590 2.378 . S
C562 Tb560 2.809 . S
C562 C563 1.514 . S
C562 O580 1.248 . S
C562 O581 1.266 . S
C563 C562 1.514 . S
C563 C564 1.359 . S
C563 C568 1.348 . S
C564 C563 1.359 . S
C564 C565 1.380 . S
C564 H592 0.929 . S
C565 C564 1.380 . S
C565 C566 1.347 . S
C565 H593 0.931 . S
C566 C565 1.347 . S
C566 C567 1.369 . S
C567 C566 1.369 . S
C567 C568 1.408 . S
C567 H594 0.930 . S
C568 C563 1.348 . S
C568 C567 1.408 . S
C568 H595 0.930 . S
C569 O582 1.281 . S
C569 O583 1.254 . S
C570 O584 1.236 . S
C570 O585 1.266 . S
C571 Tb561 2.809 . S
C571 C572 1.514 . S
C571 O586 1.248 . S
C571 O587 1.266 . S
C572 C571 1.514 . S
C572 C573 1.359 . S
C572 C577 1.348 . S
C573 C572 1.359 . S
C573 C574 1.380 . S
C573 H596 0.929 . S
C574 C573 1.380 . S
C574 C575 1.347 . S
C574 H597 0.931 . S
C575 C574 1.347 . S
C575 C576 1.369 . S
C576 C575 1.369 . S
C576 C577 1.408 . S
C576 H598 0.930 . S
C577 C572 1.348 . S
C577 C576 1.408 . S
C577 H599 0.930 . S
C578 O588 1.281 . S
C578 O589 1.254 . S
C579 O590 1.236 . S
C579 O591 1.266 . S
O580 Tb560 2.484 . S
O580 C562 1.248 . S
O581 Tb560 2.440 . S
O581 C562 1.266 . S
O582 Tb560 2.658 . S
O582 Tb561 2.325 . S
O582 C569 1.281 . S
O583 Tb560 2.409 . S
O583 C569 1.254 . S
O584 Tb560 2.378 . S
O584 C570 1.236 . S
O585 Tb561 2.341 . S
O585 C570 1.266 . S
O586 Tb561 2.484 . S
O586 C571 1.248 . S
O587 Tb561 2.440 . S
O587 C571 1.266 . S
O588 Tb560 2.325 . S
O588 Tb561 2.658 . S
O588 C578 1.281 . S
O589 Tb561 2.409 . S
O589 C578 1.254 . S
O590 Tb561 2.378 . S
O590 C579 1.236 . S
O591 Tb560 2.341 . S
O591 C579 1.266 . S
H592 C564 0.929 . S
H593 C565 0.931 . S
H594 C567 0.930 . S
H595 C568 0.930 . S
H596 C573 0.929 . S
H597 C574 0.931 . S
H598 C576 0.930 . S
H599 C577 0.930 . S
Tb600 C602 2.809 . S
Tb600 O620 2.484 . S
Tb600 O621 2.440 . S
Tb600 O622 2.665 . S
Tb600 O623 2.409 . S
Tb600 O624 2.378 . S
Tb600 O628 2.325 . S
Tb600 O631 2.341 1_554 S
Tb601 C611 2.809 1_554 S
Tb601 O622 2.331 . S
Tb601 O625 2.341 . S
Tb601 O626 2.484 1_554 S
Tb601 O627 2.440 1_554 S
Tb601 O628 2.658 . S
Tb601 O629 2.409 . S
Tb601 O630 2.378 1_554 S
C602 Tb600 2.809 . S
C602 C603 1.514 . S
C602 O620 1.248 . S
C602 O621 1.266 . S
C603 C602 1.514 . S
C603 C604 1.359 . S
C603 C608 1.348 . S
C604 C603 1.359 . S
C604 C605 1.380 . S
C604 H632 0.929 . S
C605 C604 1.380 . S
C605 C606 1.347 . S
C605 H633 0.931 . S
C606 C605 1.347 . S
C606 C607 1.369 . S
C607 C606 1.369 . S
C607 C608 1.408 . S
C607 H634 0.930 . S
C608 C603 1.348 . S
C608 C607 1.408 . S
C608 H635 0.930 . S
C609 O622 1.279 1_556 S
C609 O623 1.254 1_556 S
C610 O624 1.236 . S
C610 O625 1.266 . S
C611 Tb601 2.809 1_556 S
C611 C612 1.514 . S
C611 O626 1.248 . S
C611 O627 1.266 . S
C612 C611 1.514 . S
C612 C613 1.359 . S
C612 C617 1.348 . S
C613 C612 1.359 . S
C613 C614 1.380 . S
C613 H636 0.929 . S
C614 C613 1.380 . S
C614 C615 1.347 1_565 S
C614 H637 0.931 . S
C615 C614 1.347 1_545 S
C615 C616 1.369 . S
C616 C615 1.369 . S
C616 C617 1.408 1_545 S
C616 H638 0.930 . S
C617 C612 1.348 . S
C617 C616 1.408 1_565 S
C617 H639 0.930 . S
C618 O628 1.281 . S
C618 O629 1.254 . S
C619 O630 1.236 . S
C619 O631 1.266 . S
O620 Tb600 2.484 . S
O620 C602 1.248 . S
O621 Tb600 2.440 . S
O621 C602 1.266 . S
O622 Tb600 2.665 . S
O622 Tb601 2.331 . S
O622 C609 1.279 1_554 S
O623 Tb600 2.409 . S
O623 C609 1.254 1_554 S
O624 Tb600 2.378 . S
O624 C610 1.236 . S
O625 Tb601 2.341 . S
O625 C610 1.266 . S
O626 Tb601 2.484 1_556 S
O626 C611 1.248 . S
O627 Tb601 2.440 1_556 S
O627 C611 1.266 . S
O628 Tb600 2.325 . S
O628 Tb601 2.658 . S
O628 C618 1.281 . S
O629 Tb601 2.409 . S
O629 C618 1.254 . S
O630 Tb601 2.378 1_556 S
O630 C619 1.236 . S
O631 Tb600 2.341 1_556 S
O631 C619 1.266 . S
H632 C604 0.929 . S
H633 C605 0.931 . S
H634 C607 0.930 . S
H635 C608 0.930 . S
H636 C613 0.929 . S
H637 C614 0.931 . S
H638 C616 0.930 . S
H639 C617 0.930 . S
Tb640 C642 2.809 . S
Tb640 O660 2.484 . S
Tb640 O661 2.440 . S
Tb640 O662 2.658 . S
Tb640 O663 2.409 . S
Tb640 O664 2.378 . S
Tb640 O668 2.325 . S
Tb640 O671 2.341 . S
Tb641 C651 2.809 . S
Tb641 O662 2.325 . S
Tb641 O665 2.341 . S
Tb641 O666 2.484 . S
Tb641 O667 2.440 . S
Tb641 O668 2.658 . S
Tb641 O669 2.409 . S
Tb641 O670 2.378 . S
C642 Tb640 2.809 . S
C642 C643 1.514 . S
C642 O660 1.248 . S
C642 O661 1.266 . S
C643 C642 1.514 . S
C643 C644 1.359 . S
C643 C648 1.348 . S
C644 C643 1.359 . S
C644 C645 1.380 . S
C644 H672 0.929 . S
C645 C644 1.380 . S
C645 C646 1.347 . S
C645 H673 0.931 . S
C646 C645 1.347 . S
C646 C647 1.369 . S
C647 C646 1.369 . S
C647 C648 1.408 . S
C647 H674 0.930 . S
C648 C643 1.348 . S
C648 C647 1.408 . S
C648 H675 0.930 . S
C649 O662 1.281 . S
C649 O663 1.254 . S
C650 O664 1.236 . S
C650 O665 1.266 . S
C651 Tb641 2.809 . S
C651 C652 1.514 . S
C651 O666 1.248 . S
C651 O667 1.266 . S
C652 C651 1.514 . S
C652 C653 1.359 . S
C652 C657 1.348 . S
C653 C652 1.359 . S
C653 C654 1.380 . S
C653 H676 0.929 . S
C654 C653 1.380 . S
C654 C655 1.347 . S
C654 H677 0.931 . S
C655 C654 1.347 . S
C655 C656 1.369 . S
C656 C655 1.369 . S
C656 C657 1.408 . S
C656 H678 0.930 . S
C657 C652 1.348 . S
C657 C656 1.408 . S
C657 H679 0.930 . S
C658 O668 1.281 . S
C658 O669 1.254 . S
C659 O670 1.236 . S
C659 O671 1.266 . S
O660 Tb640 2.484 . S
O660 C642 1.248 . S
O661 Tb640 2.440 . S
O661 C642 1.266 . S
O662 Tb640 2.658 . S
O662 Tb641 2.325 . S
O662 C649 1.281 . S
O663 Tb640 2.409 . S
O663 C649 1.254 . S
O664 Tb640 2.378 . S
O664 C650 1.236 . S
O665 Tb641 2.341 . S
O665 C650 1.266 . S
O666 Tb641 2.484 . S
O666 C651 1.248 . S
O667 Tb641 2.440 . S
O667 C651 1.266 . S
O668 Tb640 2.325 . S
O668 Tb641 2.658 . S
O668 C658 1.281 . S
O669 Tb641 2.409 . S
O669 C658 1.254 . S
O670 Tb641 2.378 . S
O670 C659 1.236 . S
O671 Tb640 2.341 . S
O671 C659 1.266 . S
H672 C644 0.929 . S
H673 C645 0.931 . S
H674 C647 0.930 . S
H675 C648 0.930 . S
H676 C653 0.929 . S
H677 C654 0.931 . S
H678 C656 0.930 . S
H679 C657 0.930 . S
Tb680 C682 2.809 1_554 S
Tb680 O700 2.484 1_554 S
Tb680 O701 2.440 1_554 S
Tb680 O702 2.658 . S
Tb680 O703 2.409 . S
Tb680 O704 2.378 1_554 S
Tb680 O708 2.331 . S
Tb680 O711 2.341 . S
Tb681 C691 2.809 . S
Tb681 O702 2.325 . S
Tb681 O705 2.341 1_554 S
Tb681 O706 2.484 . S
Tb681 O707 2.440 . S
Tb681 O708 2.665 . S
Tb681 O709 2.409 . S
Tb681 O710 2.378 . S
C682 Tb680 2.809 1_556 S
C682 C683 1.514 . S
C682 O700 1.248 . S
C682 O701 1.266 . S
C683 C682 1.514 . S
C683 C684 1.359 . S
C683 C688 1.348 . S
C684 C683 1.359 . S
C684 C685 1.380 . S
C684 H712 0.929 . S
C685 C684 1.380 . S
C685 C686 1.347 . S
C685 H713 0.931 . S
C686 C685 1.347 . S
C686 C687 1.369 . S
C687 C686 1.369 . S
C687 C688 1.408 . S
C687 H714 0.930 . S
C688 C683 1.348 . S
C688 C687 1.408 . S
C688 H715 0.930 . S
C689 O702 1.281 . S
C689 O703 1.254 . S
C690 O704 1.236 . S
C690 O705 1.266 . S
C691 Tb681 2.809 . S
C691 C692 1.514 . S
C691 O706 1.248 . S
C691 O707 1.266 . S
C692 C691 1.514 . S
C692 C693 1.359 . S
C692 C697 1.348 . S
C693 C692 1.359 . S
C693 C694 1.380 . S
C693 H716 0.929 . S
C694 C693 1.380 . S
C694 C695 1.347 . S
C694 H717 0.931 . S
C695 C694 1.347 . S
C695 C696 1.369 . S
C696 C695 1.369 . S
C696 C697 1.408 . S
C696 H718 0.930 . S
C697 C692 1.348 . S
C697 C696 1.408 . S
C697 H719 0.930 . S
C698 O708 1.279 1_556 S
C698 O709 1.254 1_556 S
C699 O710 1.236 . S
C699 O711 1.266 . S
O700 Tb680 2.484 1_556 S
O700 C682 1.248 . S
O701 Tb680 2.440 1_556 S
O701 C682 1.266 . S
O702 Tb680 2.658 . S
O702 Tb681 2.325 . S
O702 C689 1.281 . S
O703 Tb680 2.409 . S
O703 C689 1.254 . S
O704 Tb680 2.378 1_556 S
O704 C690 1.236 . S
O705 Tb681 2.341 1_556 S
O705 C690 1.266 . S
O706 Tb681 2.484 . S
O706 C691 1.248 . S
O707 Tb681 2.440 . S
O707 C691 1.266 . S
O708 Tb680 2.331 . S
O708 Tb681 2.665 . S
O708 C698 1.279 1_554 S
O709 Tb681 2.409 . S
O709 C698 1.254 1_554 S
O710 Tb681 2.378 . S
O710 C699 1.236 . S
O711 Tb680 2.341 . S
O711 C699 1.266 . S
H712 C684 0.929 . S
H713 C685 0.931 . S
H714 C687 0.930 . S
H715 C688 0.930 . S
H716 C693 0.929 . S
H717 C694 0.931 . S
H718 C696 0.930 . S
H719 C697 0.930 . S
Tb720 C722 2.809 . S
Tb720 O740 2.484 . S
Tb720 O741 2.440 . S
Tb720 O742 2.658 . S
Tb720 O743 2.409 . S
Tb720 O744 2.378 . S
Tb720 O748 2.325 . S
Tb720 O751 2.341 . S
Tb721 C731 2.809 . S
Tb721 O742 2.325 . S
Tb721 O745 2.341 . S
Tb721 O746 2.484 . S
Tb721 O747 2.440 . S
Tb721 O748 2.658 . S
Tb721 O749 2.409 . S
Tb721 O750 2.378 . S
C722 Tb720 2.809 . S
C722 C723 1.514 . S
C722 O740 1.248 . S
C722 O741 1.266 . S
C723 C722 1.514 . S
C723 C724 1.359 . S
C723 C728 1.348 . S
C724 C723 1.359 . S
C724 C725 1.380 . S
C724 H752 0.929 . S
C725 C724 1.380 . S
C725 C726 1.347 . S
C725 H753 0.931 . S
C726 C725 1.347 . S
C726 C727 1.369 . S
C727 C726 1.369 . S
C727 C728 1.408 . S
C727 H754 0.930 . S
C728 C723 1.348 . S
C728 C727 1.408 . S
C728 H755 0.930 . S
C729 O742 1.281 . S
C729 O743 1.254 . S
C730 O744 1.236 . S
C730 O745 1.266 . S
C731 Tb721 2.809 . S
C731 C732 1.514 . S
C731 O746 1.248 . S
C731 O747 1.266 . S
C732 C731 1.514 . S
C732 C733 1.359 . S
C732 C737 1.348 . S
C733 C732 1.359 . S
C733 C734 1.380 . S
C733 H756 0.929 . S
C734 C733 1.380 . S
C734 C735 1.347 1_655 S
C734 H757 0.931 . S
C735 C734 1.347 1_455 S
C735 C736 1.369 . S
C736 C735 1.369 . S
C736 C737 1.408 1_455 S
C736 H758 0.930 . S
C737 C732 1.348 . S
C737 C736 1.408 1_655 S
C737 H759 0.930 . S
C738 O748 1.281 . S
C738 O749 1.254 . S
C739 O750 1.236 . S
C739 O751 1.266 . S
O740 Tb720 2.484 . S
O740 C722 1.248 . S
O741 Tb720 2.440 . S
O741 C722 1.266 . S
O742 Tb720 2.658 . S
O742 Tb721 2.325 . S
O742 C729 1.281 . S
O743 Tb720 2.409 . S
O743 C729 1.254 . S
O744 Tb720 2.378 . S
O744 C730 1.236 . S
O745 Tb721 2.341 . S
O745 C730 1.266 . S
O746 Tb721 2.484 . S
O746 C731 1.248 . S
O747 Tb721 2.440 . S
O747 C731 1.266 . S
O748 Tb720 2.325 . S
O748 Tb721 2.658 . S
O748 C738 1.281 . S
O749 Tb721 2.409 . S
O749 C738 1.254 . S
O750 Tb721 2.378 . S
O750 C739 1.236 . S
O751 Tb720 2.341 . S
O751 C739 1.266 . S
H752 C724 0.929 . S
H753 C725 0.931 . S
H754 C727 0.930 . S
H755 C728 0.930 . S
H756 C733 0.929 . S
H757 C734 0.931 . S
H758 C736 0.930 . S
H759 C737 0.930 . S
Tb760 C762 2.809 . S
Tb760 O780 2.484 . S
Tb760 O781 2.440 . S
Tb760 O782 2.658 . S
Tb760 O783 2.409 . S
Tb760 O784 2.378 . S
Tb760 O788 2.325 . S
Tb760 O791 2.341 . S
Tb761 C771 2.809 . S
Tb761 O782 2.325 . S
Tb761 O785 2.341 . S
Tb761 O786 2.484 . S
Tb761 O787 2.440 . S
Tb761 O788 2.658 . S
Tb761 O789 2.409 . S
Tb761 O790 2.378 . S
C762 Tb760 2.809 . S
C762 C763 1.514 . S
C762 O780 1.248 . S
C762 O781 1.266 . S
C763 C762 1.514 . S
C763 C764 1.359 . S
C763 C768 1.348 . S
C764 C763 1.359 . S
C764 C765 1.380 . S
C764 H792 0.929 . S
C765 C764 1.380 . S
C765 C766 1.347 . S
C765 H793 0.931 . S
C766 C765 1.347 . S
C766 C767 1.369 . S
C767 C766 1.369 . S
C767 C768 1.408 . S
C767 H794 0.930 . S
C768 C763 1.348 . S
C768 C767 1.408 . S
C768 H795 0.930 . S
C769 O782 1.281 . S
C769 O783 1.254 . S
C770 O784 1.236 . S
C770 O785 1.266 . S
C771 Tb761 2.809 . S
C771 C772 1.514 . S
C771 O786 1.248 . S
C771 O787 1.266 . S
C772 C771 1.514 . S
C772 C773 1.359 . S
C772 C777 1.348 . S
C773 C772 1.359 . S
C773 C774 1.380 . S
C773 H796 0.929 . S
C774 C773 1.380 . S
C774 C775 1.347 . S
C774 H797 0.931 . S
C775 C774 1.347 . S
C775 C776 1.369 . S
C776 C775 1.369 . S
C776 C777 1.408 . S
C776 H798 0.930 . S
C777 C772 1.348 . S
C777 C776 1.408 . S
C777 H799 0.930 . S
C778 O788 1.281 . S
C778 O789 1.254 . S
C779 O790 1.236 . S
C779 O791 1.266 . S
O780 Tb760 2.484 . S
O780 C762 1.248 . S
O781 Tb760 2.440 . S
O781 C762 1.266 . S
O782 Tb760 2.658 . S
O782 Tb761 2.325 . S
O782 C769 1.281 . S
O783 Tb760 2.409 . S
O783 C769 1.254 . S
O784 Tb760 2.378 . S
O784 C770 1.236 . S
O785 Tb761 2.341 . S
O785 C770 1.266 . S
O786 Tb761 2.484 . S
O786 C771 1.248 . S
O787 Tb761 2.440 . S
O787 C771 1.266 . S
O788 Tb760 2.325 . S
O788 Tb761 2.658 . S
O788 C778 1.281 . S
O789 Tb761 2.409 . S
O789 C778 1.254 . S
O790 Tb761 2.378 . S
O790 C779 1.236 . S
O791 Tb760 2.341 . S
O791 C779 1.266 . S
H792 C764 0.929 . S
H793 C765 0.931 . S
H794 C767 0.930 . S
H795 C768 0.930 . S
H796 C773 0.929 . S
H797 C774 0.931 . S
H798 C776 0.930 . S
H799 C777 0.930 . S
Tb800 C802 2.809 . S
Tb800 O820 2.484 . S
Tb800 O821 2.440 . S
Tb800 O822 2.658 . S
Tb800 O823 2.409 . S
Tb800 O824 2.378 . S
Tb800 O828 2.325 . S
Tb800 O831 2.341 . S
Tb801 C811 2.809 . S
Tb801 O822 2.325 . S
Tb801 O825 2.341 . S
Tb801 O826 2.484 . S
Tb801 O827 2.440 . S
Tb801 O828 2.658 . S
Tb801 O829 2.409 . S
Tb801 O830 2.378 . S
C802 Tb800 2.809 . S
C802 C803 1.514 . S
C802 O820 1.248 . S
C802 O821 1.266 . S
C803 C802 1.514 . S
C803 C804 1.359 . S
C803 C808 1.348 . S
C804 C803 1.359 . S
C804 C805 1.380 . S
C804 H832 0.929 . S
C805 C804 1.380 . S
C805 C806 1.347 . S
C805 H833 0.931 . S
C806 C805 1.347 . S
C806 C807 1.369 . S
C807 C806 1.369 . S
C807 C808 1.408 . S
C807 H834 0.930 . S
C808 C803 1.348 . S
C808 C807 1.408 . S
C808 H835 0.930 . S
C809 O822 1.281 . S
C809 O823 1.254 . S
C810 O824 1.236 . S
C810 O825 1.266 . S
C811 Tb801 2.809 . S
C811 C812 1.514 . S
C811 O826 1.248 . S
C811 O827 1.266 . S
C812 C811 1.514 . S
C812 C813 1.359 . S
C812 C817 1.348 . S
C813 C812 1.359 . S
C813 C814 1.380 . S
C813 H836 0.929 . S
C814 C813 1.380 . S
C814 C815 1.347 . S
C814 H837 0.931 . S
C815 C814 1.347 . S
C815 C816 1.369 . S
C816 C815 1.369 . S
C816 C817 1.408 . S
C816 H838 0.930 . S
C817 C812 1.348 . S
C817 C816 1.408 . S
C817 H839 0.930 . S
C818 O828 1.281 . S
C818 O829 1.254 . S
C819 O830 1.236 . S
C819 O831 1.266 . S
O820 Tb800 2.484 . S
O820 C802 1.248 . S
O821 Tb800 2.440 . S
O821 C802 1.266 . S
O822 Tb800 2.658 . S
O822 Tb801 2.325 . S
O822 C809 1.281 . S
O823 Tb800 2.409 . S
O823 C809 1.254 . S
O824 Tb800 2.378 . S
O824 C810 1.236 . S
O825 Tb801 2.341 . S
O825 C810 1.266 . S
O826 Tb801 2.484 . S
O826 C811 1.248 . S
O827 Tb801 2.440 . S
O827 C811 1.266 . S
O828 Tb800 2.325 . S
O828 Tb801 2.658 . S
O828 C818 1.281 . S
O829 Tb801 2.409 . S
O829 C818 1.254 . S
O830 Tb801 2.378 . S
O830 C819 1.236 . S
O831 Tb800 2.341 . S
O831 C819 1.266 . S
H832 C804 0.929 . S
H833 C805 0.931 . S
H834 C807 0.930 . S
H835 C808 0.930 . S
H836 C813 0.929 . S
H837 C814 0.931 . S
H838 C816 0.930 . S
H839 C817 0.930 . S
Tb840 C842 2.809 1_556 S
Tb840 O860 2.484 1_556 S
Tb840 O861 2.440 1_556 S
Tb840 O862 2.658 . S
Tb840 O863 2.409 . S
Tb840 O864 2.378 1_556 S
Tb840 O868 2.331 . S
Tb840 O871 2.341 . S
Tb841 C851 2.809 . S
Tb841 O862 2.325 . S
Tb841 O865 2.341 1_556 S
Tb841 O866 2.484 . S
Tb841 O867 2.440 . S
Tb841 O868 2.665 . S
Tb841 O869 2.409 . S
Tb841 O870 2.378 . S
C842 Tb840 2.809 1_554 S
C842 C843 1.514 . S
C842 O860 1.248 . S
C842 O861 1.266 . S
C843 C842 1.514 . S
C843 C844 1.359 . S
C843 C848 1.348 . S
C844 C843 1.359 . S
C844 C845 1.380 . S
C844 H872 0.929 . S
C845 C844 1.380 . S
C845 C846 1.347 . S
C845 H873 0.931 . S
C846 C845 1.347 . S
C846 C847 1.369 . S
C847 C846 1.369 . S
C847 C848 1.408 . S
C847 H874 0.930 . S
C848 C843 1.348 . S
C848 C847 1.408 . S
C848 H875 0.930 . S
C849 O862 1.281 . S
C849 O863 1.254 . S
C850 O864 1.236 . S
C850 O865 1.266 . S
C851 Tb841 2.809 . S
C851 C852 1.514 . S
C851 O866 1.248 . S
C851 O867 1.266 . S
C852 C851 1.514 . S
C852 C853 1.359 . S
C852 C857 1.348 . S
C853 C852 1.359 . S
C853 C854 1.380 . S
C853 H876 0.929 . S
C854 C853 1.380 . S
C854 C855 1.347 . S
C854 H877 0.931 . S
C855 C854 1.347 . S
C855 C856 1.369 . S
C856 C855 1.369 . S
C856 C857 1.408 . S
C856 H878 0.930 . S
C857 C852 1.348 . S
C857 C856 1.408 . S
C857 H879 0.930 . S
C858 O868 1.279 1_554 S
C858 O869 1.254 1_554 S
C859 O870 1.236 . S
C859 O871 1.266 . S
O860 Tb840 2.484 1_554 S
O860 C842 1.248 . S
O861 Tb840 2.440 1_554 S
O861 C842 1.266 . S
O862 Tb840 2.658 . S
O862 Tb841 2.325 . S
O862 C849 1.281 . S
O863 Tb840 2.409 . S
O863 C849 1.254 . S
O864 Tb840 2.378 1_554 S
O864 C850 1.236 . S
O865 Tb841 2.341 1_554 S
O865 C850 1.266 . S
O866 Tb841 2.484 . S
O866 C851 1.248 . S
O867 Tb841 2.440 . S
O867 C851 1.266 . S
O868 Tb840 2.331 . S
O868 Tb841 2.665 . S
O868 C858 1.279 1_556 S
O869 Tb841 2.409 . S
O869 C858 1.254 1_556 S
O870 Tb841 2.378 . S
O870 C859 1.236 . S
O871 Tb840 2.341 . S
O871 C859 1.266 . S
H872 C844 0.929 . S
H873 C845 0.931 . S
H874 C847 0.930 . S
H875 C848 0.930 . S
H876 C853 0.929 . S
H877 C854 0.931 . S
H878 C856 0.930 . S
H879 C857 0.930 . S
Tb880 C882 2.809 . S
Tb880 O900 2.484 . S
Tb880 O901 2.440 . S
Tb880 O902 2.658 . S
Tb880 O903 2.409 . S
Tb880 O904 2.378 . S
Tb880 O908 2.325 . S
Tb880 O911 2.341 . S
Tb881 C891 2.809 . S
Tb881 O902 2.325 . S
Tb881 O905 2.341 . S
Tb881 O906 2.484 . S
Tb881 O907 2.440 . S
Tb881 O908 2.658 . S
Tb881 O909 2.409 . S
Tb881 O910 2.378 . S
C882 Tb880 2.809 . S
C882 C883 1.514 . S
C882 O900 1.248 . S
C882 O901 1.266 . S
C883 C882 1.514 . S
C883 C884 1.359 . S
C883 C888 1.348 . S
C884 C883 1.359 . S
C884 C885 1.380 . S
C884 H912 0.929 . S
C885 C884 1.380 . S
C885 C886 1.347 . S
C885 H913 0.931 . S
C886 C885 1.347 . S
C886 C887 1.369 . S
C887 C886 1.369 . S
C887 C888 1.408 . S
C887 H914 0.930 . S
C888 C883 1.348 . S
C888 C887 1.408 . S
C888 H915 0.930 . S
C889 O902 1.281 . S
C889 O903 1.254 . S
C890 O904 1.236 . S
C890 O905 1.266 . S
C891 Tb881 2.809 . S
C891 C892 1.514 . S
C891 O906 1.248 . S
C891 O907 1.266 . S
C892 C891 1.514 . S
C892 C893 1.359 . S
C892 C897 1.348 . S
C893 C892 1.359 . S
C893 C894 1.380 . S
C893 H916 0.929 . S
C894 C893 1.380 . S
C894 C895 1.347 1_655 S
C894 H917 0.931 . S
C895 C894 1.347 1_455 S
C895 C896 1.369 . S
C896 C895 1.369 . S
C896 C897 1.408 1_455 S
C896 H918 0.930 . S
C897 C892 1.348 . S
C897 C896 1.408 1_655 S
C897 H919 0.930 . S
C898 O908 1.281 . S
C898 O909 1.254 . S
C899 O910 1.236 . S
C899 O911 1.266 . S
O900 Tb880 2.484 . S
O900 C882 1.248 . S
O901 Tb880 2.440 . S
O901 C882 1.266 . S
O902 Tb880 2.658 . S
O902 Tb881 2.325 . S
O902 C889 1.281 . S
O903 Tb880 2.409 . S
O903 C889 1.254 . S
O904 Tb880 2.378 . S
O904 C890 1.236 . S
O905 Tb881 2.341 . S
O905 C890 1.266 . S
O906 Tb881 2.484 . S
O906 C891 1.248 . S
O907 Tb881 2.440 . S
O907 C891 1.266 . S
O908 Tb880 2.325 . S
O908 Tb881 2.658 . S
O908 C898 1.281 . S
O909 Tb881 2.409 . S
O909 C898 1.254 . S
O910 Tb881 2.378 . S
O910 C899 1.236 . S
O911 Tb880 2.341 . S
O911 C899 1.266 . S
H912 C884 0.929 . S
H913 C885 0.931 . S
H914 C887 0.930 . S
H915 C888 0.930 . S
H916 C893 0.929 . S
H917 C894 0.931 . S
H918 C896 0.930 . S
H919 C897 0.930 . S
Tb920 C922 2.809 . S
Tb920 O940 2.484 . S
Tb920 O941 2.440 . S
Tb920 O942 2.658 . S
Tb920 O943 2.409 . S
Tb920 O944 2.378 . S
Tb920 O948 2.325 . S
Tb920 O951 2.341 . S
Tb921 C931 2.809 . S
Tb921 O942 2.325 . S
Tb921 O945 2.341 . S
Tb921 O946 2.484 . S
Tb921 O947 2.440 . S
Tb921 O948 2.658 . S
Tb921 O949 2.409 . S
Tb921 O950 2.378 . S
C922 Tb920 2.809 . S
C922 C923 1.514 . S
C922 O940 1.248 . S
C922 O941 1.266 . S
C923 C922 1.514 . S
C923 C924 1.359 . S
C923 C928 1.348 . S
C924 C923 1.359 . S
C924 C925 1.380 . S
C924 H952 0.929 . S
C925 C924 1.380 . S
C925 C926 1.347 . S
C925 H953 0.931 . S
C926 C925 1.347 . S
C926 C927 1.369 . S
C927 C926 1.369 . S
C927 C928 1.408 . S
C927 H954 0.930 . S
C928 C923 1.348 . S
C928 C927 1.408 . S
C928 H955 0.930 . S
C929 O942 1.281 . S
C929 O943 1.254 . S
C930 O944 1.236 . S
C930 O945 1.266 . S
C931 Tb921 2.809 . S
C931 C932 1.514 . S
C931 O946 1.248 . S
C931 O947 1.266 . S
C932 C931 1.514 . S
C932 C933 1.359 . S
C932 C937 1.348 . S
C933 C932 1.359 . S
C933 C934 1.380 . S
C933 H956 0.929 . S
C934 C933 1.380 . S
C934 C935 1.347 . S
C934 H957 0.931 . S
C935 C934 1.347 . S
C935 C936 1.369 . S
C936 C935 1.369 . S
C936 C937 1.408 . S
C936 H958 0.930 . S
C937 C932 1.348 . S
C937 C936 1.408 . S
C937 H959 0.930 . S
C938 O948 1.281 . S
C938 O949 1.254 . S
C939 O950 1.236 . S
C939 O951 1.266 . S
O940 Tb920 2.484 . S
O940 C922 1.248 . S
O941 Tb920 2.440 . S
O941 C922 1.266 . S
O942 Tb920 2.658 . S
O942 Tb921 2.325 . S
O942 C929 1.281 . S
O943 Tb920 2.409 . S
O943 C929 1.254 . S
O944 Tb920 2.378 . S
O944 C930 1.236 . S
O945 Tb921 2.341 . S
O945 C930 1.266 . S
O946 Tb921 2.484 . S
O946 C931 1.248 . S
O947 Tb921 2.440 . S
O947 C931 1.266 . S
O948 Tb920 2.325 . S
O948 Tb921 2.658 . S
O948 C938 1.281 . S
O949 Tb921 2.409 . S
O949 C938 1.254 . S
O950 Tb921 2.378 . S
O950 C939 1.236 . S
O951 Tb920 2.341 . S
O951 C939 1.266 . S
H952 C924 0.929 . S
H953 C925 0.931 . S
H954 C927 0.930 . S
H955 C928 0.930 . S
H956 C933 0.929 . S
H957 C934 0.931 . S
H958 C936 0.930 . S
H959 C937 0.930 . S
Tb960 C962 2.809 . S
Tb960 O980 2.484 . S
Tb960 O981 2.440 . S
Tb960 O982 2.658 . S
Tb960 O983 2.409 . S
Tb960 O984 2.378 . S
Tb960 O988 2.325 . S
Tb960 O991 2.341 . S
Tb961 C971 2.809 . S
Tb961 O982 2.325 . S
Tb961 O985 2.341 . S
Tb961 O986 2.484 . S
Tb961 O987 2.440 . S
Tb961 O988 2.658 . S
Tb961 O989 2.409 . S
Tb961 O990 2.378 . S
C962 Tb960 2.809 . S
C962 C963 1.514 . S
C962 O980 1.248 . S
C962 O981 1.266 . S
C963 C962 1.514 . S
C963 C964 1.359 . S
C963 C968 1.348 . S
C964 C963 1.359 . S
C964 C965 1.380 . S
C964 H992 0.929 . S
C965 C964 1.380 . S
C965 C966 1.347 . S
C965 H993 0.931 . S
C966 C965 1.347 . S
C966 C967 1.369 . S
C967 C966 1.369 . S
C967 C968 1.408 . S
C967 H994 0.930 . S
C968 C963 1.348 . S
C968 C967 1.408 . S
C968 H995 0.930 . S
C969 O982 1.281 . S
C969 O983 1.254 . S
C970 O984 1.236 . S
C970 O985 1.266 . S
C971 Tb961 2.809 . S
C971 C972 1.514 . S
C971 O986 1.248 . S
C971 O987 1.266 . S
C972 C971 1.514 . S
C972 C973 1.359 . S
C972 C977 1.348 . S
C973 C972 1.359 . S
C973 C974 1.380 . S
C973 H996 0.929 . S
C974 C973 1.380 . S
C974 C975 1.347 . S
C974 H997 0.931 . S
C975 C974 1.347 . S
C975 C976 1.369 . S
C976 C975 1.369 . S
C976 C977 1.408 . S
C976 H998 0.930 . S
C977 C972 1.348 . S
C977 C976 1.408 . S
C977 H999 0.930 . S
C978 O988 1.281 . S
C978 O989 1.254 . S
C979 O990 1.236 . S
C979 O991 1.266 . S
O980 Tb960 2.484 . S
O980 C962 1.248 . S
O981 Tb960 2.440 . S
O981 C962 1.266 . S
O982 Tb960 2.658 . S
O982 Tb961 2.325 . S
O982 C969 1.281 . S
O983 Tb960 2.409 . S
O983 C969 1.254 . S
O984 Tb960 2.378 . S
O984 C970 1.236 . S
O985 Tb961 2.341 . S
O985 C970 1.266 . S
O986 Tb961 2.484 . S
O986 C971 1.248 . S
O987 Tb961 2.440 . S
O987 C971 1.266 . S
O988 Tb960 2.325 . S
O988 Tb961 2.658 . S
O988 C978 1.281 . S
O989 Tb961 2.409 . S
O989 C978 1.254 . S
O990 Tb961 2.378 . S
O990 C979 1.236 . S
O991 Tb960 2.341 . S
O991 C979 1.266 . S
H992 C964 0.929 . S
H993 C965 0.931 . S
H994 C967 0.930 . S
H995 C968 0.930 . S
H996 C973 0.929 . S
H997 C974 0.931 . S
H998 C976 0.930 . S
H999 C977 0.930 . S
Tb1000 C1002 2.809 . S
Tb1000 O1020 2.484 . S
Tb1000 O1021 2.440 . S
Tb1000 O1022 2.665 . S
Tb1000 O1023 2.409 . S
Tb1000 O1024 2.378 . S
Tb1000 O1028 2.325 . S
Tb1000 O1031 2.341 1_556 S
Tb1001 C1011 2.809 1_556 S
Tb1001 O1022 2.331 . S
Tb1001 O1025 2.341 . S
Tb1001 O1026 2.484 1_556 S
Tb1001 O1027 2.440 1_556 S
Tb1001 O1028 2.658 . S
Tb1001 O1029 2.409 . S
Tb1001 O1030 2.378 1_556 S
C1002 Tb1000 2.809 . S
C1002 C1003 1.514 . S
C1002 O1020 1.248 . S
C1002 O1021 1.266 . S
C1003 C1002 1.514 . S
C1003 C1004 1.359 . S
C1003 C1008 1.348 . S
C1004 C1003 1.359 . S
C1004 C1005 1.380 . S
C1004 H1032 0.929 . S
C1005 C1004 1.380 . S
C1005 C1006 1.347 . S
C1005 H1033 0.931 . S
C1006 C1005 1.347 . S
C1006 C1007 1.369 . S
C1007 C1006 1.369 . S
C1007 C1008 1.408 . S
C1007 H1034 0.930 . S
C1008 C1003 1.348 . S
C1008 C1007 1.408 . S
C1008 H1035 0.930 . S
C1009 O1022 1.279 1_554 S
C1009 O1023 1.254 1_554 S
C1010 O1024 1.236 . S
C1010 O1025 1.266 . S
C1011 Tb1001 2.809 1_554 S
C1011 C1012 1.514 . S
C1011 O1026 1.248 . S
C1011 O1027 1.266 . S
C1012 C1011 1.514 . S
C1012 C1013 1.359 . S
C1012 C1017 1.348 . S
C1013 C1012 1.359 . S
C1013 C1014 1.380 . S
C1013 H1036 0.929 . S
C1014 C1013 1.380 . S
C1014 C1015 1.347 . S
C1014 H1037 0.931 . S
C1015 C1014 1.347 . S
C1015 C1016 1.369 . S
C1016 C1015 1.369 . S
C1016 C1017 1.408 . S
C1016 H1038 0.930 . S
C1017 C1012 1.348 . S
C1017 C1016 1.408 . S
C1017 H1039 0.930 . S
C1018 O1028 1.281 . S
C1018 O1029 1.254 . S
C1019 O1030 1.236 . S
C1019 O1031 1.266 . S
O1020 Tb1000 2.484 . S
O1020 C1002 1.248 . S
O1021 Tb1000 2.440 . S
O1021 C1002 1.266 . S
O1022 Tb1000 2.665 . S
O1022 Tb1001 2.331 . S
O1022 C1009 1.279 1_556 S
O1023 Tb1000 2.409 . S
O1023 C1009 1.254 1_556 S
O1024 Tb1000 2.378 . S
O1024 C1010 1.236 . S
O1025 Tb1001 2.341 . S
O1025 C1010 1.266 . S
O1026 Tb1001 2.484 1_554 S
O1026 C1011 1.248 . S
O1027 Tb1001 2.440 1_554 S
O1027 C1011 1.266 . S
O1028 Tb1000 2.325 . S
O1028 Tb1001 2.658 . S
O1028 C1018 1.281 . S
O1029 Tb1001 2.409 . S
O1029 C1018 1.254 . S
O1030 Tb1001 2.378 1_554 S
O1030 C1019 1.236 . S
O1031 Tb1000 2.341 1_554 S
O1031 C1019 1.266 . S
H1032 C1004 0.929 . S
H1033 C1005 0.931 . S
H1034 C1007 0.930 . S
H1035 C1008 0.930 . S
H1036 C1013 0.929 . S
H1037 C1014 0.931 . S
H1038 C1016 0.930 . S
H1039 C1017 0.930 . S
Tb1040 C1042 2.809 . S
Tb1040 O1060 2.484 . S
Tb1040 O1061 2.440 . S
Tb1040 O1062 2.658 . S
Tb1040 O1063 2.409 . S
Tb1040 O1064 2.378 . S
Tb1040 O1068 2.325 . S
Tb1040 O1071 2.341 . S
Tb1041 C1051 2.809 . S
Tb1041 O1062 2.325 . S
Tb1041 O1065 2.341 . S
Tb1041 O1066 2.484 . S
Tb1041 O1067 2.440 . S
Tb1041 O1068 2.658 . S
Tb1041 O1069 2.409 . S
Tb1041 O1070 2.378 . S
C1042 Tb1040 2.809 . S
C1042 C1043 1.514 . S
C1042 O1060 1.248 . S
C1042 O1061 1.266 . S
C1043 C1042 1.514 . S
C1043 C1044 1.359 . S
C1043 C1048 1.348 . S
C1044 C1043 1.359 . S
C1044 C1045 1.380 . S
C1044 H1072 0.929 . S
C1045 C1044 1.380 . S
C1045 C1046 1.347 1_455 S
C1045 H1073 0.931 . S
C1046 C1045 1.347 1_655 S
C1046 C1047 1.369 . S
C1047 C1046 1.369 . S
C1047 C1048 1.408 1_655 S
C1047 H1074 0.930 . S
C1048 C1043 1.348 . S
C1048 C1047 1.408 1_455 S
C1048 H1075 0.930 . S
C1049 O1062 1.281 . S
C1049 O1063 1.254 . S
C1050 O1064 1.236 . S
C1050 O1065 1.266 . S
C1051 Tb1041 2.809 . S
C1051 C1052 1.514 . S
C1051 O1066 1.248 . S
C1051 O1067 1.266 . S
C1052 C1051 1.514 . S
C1052 C1053 1.359 . S
C1052 C1057 1.348 . S
C1053 C1052 1.359 . S
C1053 C1054 1.380 . S
C1053 H1076 0.929 . S
C1054 C1053 1.380 . S
C1054 C1055 1.347 . S
C1054 H1077 0.931 . S
C1055 C1054 1.347 . S
C1055 C1056 1.369 . S
C1056 C1055 1.369 . S
C1056 C1057 1.408 . S
C1056 H1078 0.930 . S
C1057 C1052 1.348 . S
C1057 C1056 1.408 . S
C1057 H1079 0.930 . S
C1058 O1068 1.281 . S
C1058 O1069 1.254 . S
C1059 O1070 1.236 . S
C1059 O1071 1.266 . S
O1060 Tb1040 2.484 . S
O1060 C1042 1.248 . S
O1061 Tb1040 2.440 . S
O1061 C1042 1.266 . S
O1062 Tb1040 2.658 . S
O1062 Tb1041 2.325 . S
O1062 C1049 1.281 . S
O1063 Tb1040 2.409 . S
O1063 C1049 1.254 . S
O1064 Tb1040 2.378 . S
O1064 C1050 1.236 . S
O1065 Tb1041 2.341 . S
O1065 C1050 1.266 . S
O1066 Tb1041 2.484 . S
O1066 C1051 1.248 . S
O1067 Tb1041 2.440 . S
O1067 C1051 1.266 . S
O1068 Tb1040 2.325 . S
O1068 Tb1041 2.658 . S
O1068 C1058 1.281 . S
O1069 Tb1041 2.409 . S
O1069 C1058 1.254 . S
O1070 Tb1041 2.378 . S
O1070 C1059 1.236 . S
O1071 Tb1040 2.341 . S
O1071 C1059 1.266 . S
H1072 C1044 0.929 . S
H1073 C1045 0.931 . S
H1074 C1047 0.930 . S
H1075 C1048 0.930 . S
H1076 C1053 0.929 . S
H1077 C1054 0.931 . S
H1078 C1056 0.930 . S
H1079 C1057 0.930 . S
Tb1080 C1082 2.809 . S
Tb1080 O1100 2.484 . S
Tb1080 O1101 2.440 . S
Tb1080 O1102 2.658 . S
Tb1080 O1103 2.409 . S
Tb1080 O1104 2.378 . S
Tb1080 O1108 2.325 . S
Tb1080 O1111 2.341 . S
Tb1081 C1091 2.809 . S
Tb1081 O1102 2.325 . S
Tb1081 O1105 2.341 . S
Tb1081 O1106 2.484 . S
Tb1081 O1107 2.440 . S
Tb1081 O1108 2.658 . S
Tb1081 O1109 2.409 . S
Tb1081 O1110 2.378 . S
C1082 Tb1080 2.809 . S
C1082 C1083 1.514 . S
C1082 O1100 1.248 . S
C1082 O1101 1.266 . S
C1083 C1082 1.514 . S
C1083 C1084 1.359 . S
C1083 C1088 1.348 . S
C1084 C1083 1.359 . S
C1084 C1085 1.380 . S
C1084 H1112 0.929 . S
C1085 C1084 1.380 . S
C1085 C1086 1.347 . S
C1085 H1113 0.931 . S
C1086 C1085 1.347 . S
C1086 C1087 1.369 . S
C1087 C1086 1.369 . S
C1087 C1088 1.408 . S
C1087 H1114 0.930 . S
C1088 C1083 1.348 . S
C1088 C1087 1.408 . S
C1088 H1115 0.930 . S
C1089 O1102 1.281 . S
C1089 O1103 1.254 . S
C1090 O1104 1.236 . S
C1090 O1105 1.266 . S
C1091 Tb1081 2.809 . S
C1091 C1092 1.514 . S
C1091 O1106 1.248 . S
C1091 O1107 1.266 . S
C1092 C1091 1.514 . S
C1092 C1093 1.359 . S
C1092 C1097 1.348 . S
C1093 C1092 1.359 . S
C1093 C1094 1.380 . S
C1093 H1116 0.929 . S
C1094 C1093 1.380 . S
C1094 C1095 1.347 . S
C1094 H1117 0.931 . S
C1095 C1094 1.347 . S
C1095 C1096 1.369 . S
C1096 C1095 1.369 . S
C1096 C1097 1.408 . S
C1096 H1118 0.930 . S
C1097 C1092 1.348 . S
C1097 C1096 1.408 . S
C1097 H1119 0.930 . S
C1098 O1108 1.281 . S
C1098 O1109 1.254 . S
C1099 O1110 1.236 . S
C1099 O1111 1.266 . S
O1100 Tb1080 2.484 . S
O1100 C1082 1.248 . S
O1101 Tb1080 2.440 . S
O1101 C1082 1.266 . S
O1102 Tb1080 2.658 . S
O1102 Tb1081 2.325 . S
O1102 C1089 1.281 . S
O1103 Tb1080 2.409 . S
O1103 C1089 1.254 . S
O1104 Tb1080 2.378 . S
O1104 C1090 1.236 . S
O1105 Tb1081 2.341 . S
O1105 C1090 1.266 . S
O1106 Tb1081 2.484 . S
O1106 C1091 1.248 . S
O1107 Tb1081 2.440 . S
O1107 C1091 1.266 . S
O1108 Tb1080 2.325 . S
O1108 Tb1081 2.658 . S
O1108 C1098 1.281 . S
O1109 Tb1081 2.409 . S
O1109 C1098 1.254 . S
O1110 Tb1081 2.378 . S
O1110 C1099 1.236 . S
O1111 Tb1080 2.341 . S
O1111 C1099 1.266 . S
H1112 C1084 0.929 . S
H1113 C1085 0.931 . S
H1114 C1087 0.930 . S
H1115 C1088 0.930 . S
H1116 C1093 0.929 . S
H1117 C1094 0.931 . S
H1118 C1096 0.930 . S
H1119 C1097 0.930 . S
Tb1120 C1122 2.809 . S
Tb1120 O1140 2.484 . S
Tb1120 O1141 2.440 . S
Tb1120 O1142 2.658 . S
Tb1120 O1143 2.409 . S
Tb1120 O1144 2.378 . S
Tb1120 O1148 2.325 . S
Tb1120 O1151 2.341 . S
Tb1121 C1131 2.809 . S
Tb1121 O1142 2.325 . S
Tb1121 O1145 2.341 . S
Tb1121 O1146 2.484 . S
Tb1121 O1147 2.440 . S
Tb1121 O1148 2.658 . S
Tb1121 O1149 2.409 . S
Tb1121 O1150 2.378 . S
C1122 Tb1120 2.809 . S
C1122 C1123 1.514 . S
C1122 O1140 1.248 . S
C1122 O1141 1.266 . S
C1123 C1122 1.514 . S
C1123 C1124 1.359 . S
C1123 C1128 1.348 . S
C1124 C1123 1.359 . S
C1124 C1125 1.380 . S
C1124 H1152 0.929 . S
C1125 C1124 1.380 . S
C1125 C1126 1.347 . S
C1125 H1153 0.931 . S
C1126 C1125 1.347 . S
C1126 C1127 1.369 . S
C1127 C1126 1.369 . S
C1127 C1128 1.408 . S
C1127 H1154 0.930 . S
C1128 C1123 1.348 . S
C1128 C1127 1.408 . S
C1128 H1155 0.930 . S
C1129 O1142 1.281 . S
C1129 O1143 1.254 . S
C1130 O1144 1.236 . S
C1130 O1145 1.266 . S
C1131 Tb1121 2.809 . S
C1131 C1132 1.514 . S
C1131 O1146 1.248 . S
C1131 O1147 1.266 . S
C1132 C1131 1.514 . S
C1132 C1133 1.359 . S
C1132 C1137 1.348 . S
C1133 C1132 1.359 . S
C1133 C1134 1.380 . S
C1133 H1156 0.929 . S
C1134 C1133 1.380 . S
C1134 C1135 1.347 . S
C1134 H1157 0.931 . S
C1135 C1134 1.347 . S
C1135 C1136 1.369 . S
C1136 C1135 1.369 . S
C1136 C1137 1.408 . S
C1136 H1158 0.930 . S
C1137 C1132 1.348 . S
C1137 C1136 1.408 . S
C1137 H1159 0.930 . S
C1138 O1148 1.281 . S
C1138 O1149 1.254 . S
C1139 O1150 1.236 . S
C1139 O1151 1.266 . S
O1140 Tb1120 2.484 . S
O1140 C1122 1.248 . S
O1141 Tb1120 2.440 . S
O1141 C1122 1.266 . S
O1142 Tb1120 2.658 . S
O1142 Tb1121 2.325 . S
O1142 C1129 1.281 . S
O1143 Tb1120 2.409 . S
O1143 C1129 1.254 . S
O1144 Tb1120 2.378 . S
O1144 C1130 1.236 . S
O1145 Tb1121 2.341 . S
O1145 C1130 1.266 . S
O1146 Tb1121 2.484 . S
O1146 C1131 1.248 . S
O1147 Tb1121 2.440 . S
O1147 C1131 1.266 . S
O1148 Tb1120 2.325 . S
O1148 Tb1121 2.658 . S
O1148 C1138 1.281 . S
O1149 Tb1121 2.409 . S
O1149 C1138 1.254 . S
O1150 Tb1121 2.378 . S
O1150 C1139 1.236 . S
O1151 Tb1120 2.341 . S
O1151 C1139 1.266 . S
H1152 C1124 0.929 . S
H1153 C1125 0.931 . S
H1154 C1127 0.930 . S
H1155 C1128 0.930 . S
H1156 C1133 0.929 . S
H1157 C1134 0.931 . S
H1158 C1136 0.930 . S
H1159 C1137 0.930 . S
Tb1160 C1162 2.809 . S
Tb1160 O1180 2.484 . S
Tb1160 O1181 2.440 . S
Tb1160 O1182 2.665 . S
Tb1160 O1183 2.409 . S
Tb1160 O1184 2.378 . S
Tb1160 O1188 2.325 . S
Tb1160 O1191 2.341 1_554 S
Tb1161 C1171 2.809 1_554 S
Tb1161 O1182 2.331 . S
Tb1161 O1185 2.341 . S
Tb1161 O1186 2.484 1_554 S
Tb1161 O1187 2.440 1_554 S
Tb1161 O1188 2.658 . S
Tb1161 O1189 2.409 . S
Tb1161 O1190 2.378 1_554 S
C1162 Tb1160 2.809 . S
C1162 C1163 1.514 . S
C1162 O1180 1.248 . S
C1162 O1181 1.266 . S
C1163 C1162 1.514 . S
C1163 C1164 1.359 . S
C1163 C1168 1.348 . S
C1164 C1163 1.359 . S
C1164 C1165 1.380 . S
C1164 H1192 0.929 . S
C1165 C1164 1.380 . S
C1165 C1166 1.347 . S
C1165 H1193 0.931 . S
C1166 C1165 1.347 . S
C1166 C1167 1.369 . S
C1167 C1166 1.369 . S
C1167 C1168 1.408 . S
C1167 H1194 0.930 . S
C1168 C1163 1.348 . S
C1168 C1167 1.408 . S
C1168 H1195 0.930 . S
C1169 O1182 1.279 1_556 S
C1169 O1183 1.254 1_556 S
C1170 O1184 1.236 . S
C1170 O1185 1.266 . S
C1171 Tb1161 2.809 1_556 S
C1171 C1172 1.514 . S
C1171 O1186 1.248 . S
C1171 O1187 1.266 . S
C1172 C1171 1.514 . S
C1172 C1173 1.359 . S
C1172 C1177 1.348 . S
C1173 C1172 1.359 . S
C1173 C1174 1.380 . S
C1173 H1196 0.929 . S
C1174 C1173 1.380 . S
C1174 C1175 1.347 . S
C1174 H1197 0.931 . S
C1175 C1174 1.347 . S
C1175 C1176 1.369 . S
C1176 C1175 1.369 . S
C1176 C1177 1.408 . S
C1176 H1198 0.930 . S
C1177 C1172 1.348 . S
C1177 C1176 1.408 . S
C1177 H1199 0.930 . S
C1178 O1188 1.281 . S
C1178 O1189 1.254 . S
C1179 O1190 1.236 . S
C1179 O1191 1.266 . S
O1180 Tb1160 2.484 . S
O1180 C1162 1.248 . S
O1181 Tb1160 2.440 . S
O1181 C1162 1.266 . S
O1182 Tb1160 2.665 . S
O1182 Tb1161 2.331 . S
O1182 C1169 1.279 1_554 S
O1183 Tb1160 2.409 . S
O1183 C1169 1.254 1_554 S
O1184 Tb1160 2.378 . S
O1184 C1170 1.236 . S
O1185 Tb1161 2.341 . S
O1185 C1170 1.266 . S
O1186 Tb1161 2.484 1_556 S
O1186 C1171 1.248 . S
O1187 Tb1161 2.440 1_556 S
O1187 C1171 1.266 . S
O1188 Tb1160 2.325 . S
O1188 Tb1161 2.658 . S
O1188 C1178 1.281 . S
O1189 Tb1161 2.409 . S
O1189 C1178 1.254 . S
O1190 Tb1161 2.378 1_556 S
O1190 C1179 1.236 . S
O1191 Tb1160 2.341 1_556 S
O1191 C1179 1.266 . S
H1192 C1164 0.929 . S
H1193 C1165 0.931 . S
H1194 C1167 0.930 . S
H1195 C1168 0.930 . S
H1196 C1173 0.929 . S
H1197 C1174 0.931 . S
H1198 C1176 0.930 . S
H1199 C1177 0.930 . S
Tb1200 C1202 2.809 . S
Tb1200 O1220 2.484 . S
Tb1200 O1221 2.440 . S
Tb1200 O1222 2.658 . S
Tb1200 O1223 2.409 . S
Tb1200 O1224 2.378 . S
Tb1200 O1228 2.325 . S
Tb1200 O1231 2.341 . S
Tb1201 C1211 2.809 . S
Tb1201 O1222 2.325 . S
Tb1201 O1225 2.341 . S
Tb1201 O1226 2.484 . S
Tb1201 O1227 2.440 . S
Tb1201 O1228 2.658 . S
Tb1201 O1229 2.409 . S
Tb1201 O1230 2.378 . S
C1202 Tb1200 2.809 . S
C1202 C1203 1.514 . S
C1202 O1220 1.248 . S
C1202 O1221 1.266 . S
C1203 C1202 1.514 . S
C1203 C1204 1.359 . S
C1203 C1208 1.348 . S
C1204 C1203 1.359 . S
C1204 C1205 1.380 . S
C1204 H1232 0.929 . S
C1205 C1204 1.380 . S
C1205 C1206 1.347 1_455 S
C1205 H1233 0.931 . S
C1206 C1205 1.347 1_655 S
C1206 C1207 1.369 . S
C1207 C1206 1.369 . S
C1207 C1208 1.408 1_655 S
C1207 H1234 0.930 . S
C1208 C1203 1.348 . S
C1208 C1207 1.408 1_455 S
C1208 H1235 0.930 . S
C1209 O1222 1.281 . S
C1209 O1223 1.254 . S
C1210 O1224 1.236 . S
C1210 O1225 1.266 . S
C1211 Tb1201 2.809 . S
C1211 C1212 1.514 . S
C1211 O1226 1.248 . S
C1211 O1227 1.266 . S
C1212 C1211 1.514 . S
C1212 C1213 1.359 . S
C1212 C1217 1.348 . S
C1213 C1212 1.359 . S
C1213 C1214 1.380 . S
C1213 H1236 0.929 . S
C1214 C1213 1.380 . S
C1214 C1215 1.347 . S
C1214 H1237 0.931 . S
C1215 C1214 1.347 . S
C1215 C1216 1.369 . S
C1216 C1215 1.369 . S
C1216 C1217 1.408 . S
C1216 H1238 0.930 . S
C1217 C1212 1.348 . S
C1217 C1216 1.408 . S
C1217 H1239 0.930 . S
C1218 O1228 1.281 . S
C1218 O1229 1.254 . S
C1219 O1230 1.236 . S
C1219 O1231 1.266 . S
O1220 Tb1200 2.484 . S
O1220 C1202 1.248 . S
O1221 Tb1200 2.440 . S
O1221 C1202 1.266 . S
O1222 Tb1200 2.658 . S
O1222 Tb1201 2.325 . S
O1222 C1209 1.281 . S
O1223 Tb1200 2.409 . S
O1223 C1209 1.254 . S
O1224 Tb1200 2.378 . S
O1224 C1210 1.236 . S
O1225 Tb1201 2.341 . S
O1225 C1210 1.266 . S
O1226 Tb1201 2.484 . S
O1226 C1211 1.248 . S
O1227 Tb1201 2.440 . S
O1227 C1211 1.266 . S
O1228 Tb1200 2.325 . S
O1228 Tb1201 2.658 . S
O1228 C1218 1.281 . S
O1229 Tb1201 2.409 . S
O1229 C1218 1.254 . S
O1230 Tb1201 2.378 . S
O1230 C1219 1.236 . S
O1231 Tb1200 2.341 . S
O1231 C1219 1.266 . S
H1232 C1204 0.929 . S
H1233 C1205 0.931 . S
H1234 C1207 0.930 . S
H1235 C1208 0.930 . S
H1236 C1213 0.929 . S
H1237 C1214 0.931 . S
H1238 C1216 0.930 . S
H1239 C1217 0.930 . S
Tb1240 C1242 2.809 . S
Tb1240 O1260 2.484 . S
Tb1240 O1261 2.440 . S
Tb1240 O1262 2.658 . S
Tb1240 O1263 2.409 . S
Tb1240 O1264 2.378 . S
Tb1240 O1268 2.325 . S
Tb1240 O1271 2.341 . S
Tb1241 C1251 2.809 . S
Tb1241 O1262 2.325 . S
Tb1241 O1265 2.341 . S
Tb1241 O1266 2.484 . S
Tb1241 O1267 2.440 . S
Tb1241 O1268 2.658 . S
Tb1241 O1269 2.409 . S
Tb1241 O1270 2.378 . S
C1242 Tb1240 2.809 . S
C1242 C1243 1.514 . S
C1242 O1260 1.248 . S
C1242 O1261 1.266 . S
C1243 C1242 1.514 . S
C1243 C1244 1.359 . S
C1243 C1248 1.348 . S
C1244 C1243 1.359 . S
C1244 C1245 1.380 . S
C1244 H1272 0.929 . S
C1245 C1244 1.380 . S
C1245 C1246 1.347 . S
C1245 H1273 0.931 . S
C1246 C1245 1.347 . S
C1246 C1247 1.369 . S
C1247 C1246 1.369 . S
C1247 C1248 1.408 . S
C1247 H1274 0.930 . S
C1248 C1243 1.348 . S
C1248 C1247 1.408 . S
C1248 H1275 0.930 . S
C1249 O1262 1.281 . S
C1249 O1263 1.254 . S
C1250 O1264 1.236 . S
C1250 O1265 1.266 . S
C1251 Tb1241 2.809 . S
C1251 C1252 1.514 . S
C1251 O1266 1.248 . S
C1251 O1267 1.266 . S
C1252 C1251 1.514 . S
C1252 C1253 1.359 . S
C1252 C1257 1.348 . S
C1253 C1252 1.359 . S
C1253 C1254 1.380 . S
C1253 H1276 0.929 . S
C1254 C1253 1.380 . S
C1254 C1255 1.347 . S
C1254 H1277 0.931 . S
C1255 C1254 1.347 . S
C1255 C1256 1.369 . S
C1256 C1255 1.369 . S
C1256 C1257 1.408 . S
C1256 H1278 0.930 . S
C1257 C1252 1.348 . S
C1257 C1256 1.408 . S
C1257 H1279 0.930 . S
C1258 O1268 1.281 . S
C1258 O1269 1.254 . S
C1259 O1270 1.236 . S
C1259 O1271 1.266 . S
O1260 Tb1240 2.484 . S
O1260 C1242 1.248 . S
O1261 Tb1240 2.440 . S
O1261 C1242 1.266 . S
O1262 Tb1240 2.658 . S
O1262 Tb1241 2.325 . S
O1262 C1249 1.281 . S
O1263 Tb1240 2.409 . S
O1263 C1249 1.254 . S
O1264 Tb1240 2.378 . S
O1264 C1250 1.236 . S
O1265 Tb1241 2.341 . S
O1265 C1250 1.266 . S
O1266 Tb1241 2.484 . S
O1266 C1251 1.248 . S
O1267 Tb1241 2.440 . S
O1267 C1251 1.266 . S
O1268 Tb1240 2.325 . S
O1268 Tb1241 2.658 . S
O1268 C1258 1.281 . S
O1269 Tb1241 2.409 . S
O1269 C1258 1.254 . S
O1270 Tb1241 2.378 . S
O1270 C1259 1.236 . S
O1271 Tb1240 2.341 . S
O1271 C1259 1.266 . S
H1272 C1244 0.929 . S
H1273 C1245 0.931 . S
H1274 C1247 0.930 . S
H1275 C1248 0.930 . S
H1276 C1253 0.929 . S
H1277 C1254 0.931 . S
H1278 C1256 0.930 . S
H1279 C1257 0.930 . S
C1280 C1281 1.363 . S
C1280 C1286 1.379 . S
C1280 N1288 1.356 . S
C1281 C1280 1.363 . S
C1281 C1287 1.363 . S
C1282 C1283 1.363 . S
C1282 C1287 1.379 . S
C1282 N1289 1.356 . S
C1283 C1282 1.363 . S
C1283 C1286 1.363 . S
N1284 C1286 1.356 . S
N1284 H1296 0.984 . S
N1284 H1297 0.985 . S
N1285 C1287 1.356 . S
N1285 H1290 0.984 . S
N1285 H1291 0.985 . S
C1286 C1280 1.379 . S
C1286 C1283 1.363 . S
C1286 N1284 1.356 . S
C1287 C1281 1.363 . S
C1287 C1282 1.379 . S
C1287 N1285 1.356 . S
N1288 C1280 1.356 . S
N1288 H1294 0.984 . S
N1288 H1295 0.984 . S
N1289 C1282 1.356 . S
N1289 H1292 0.984 . S
N1289 H1293 0.985 . S
H1290 N1285 0.984 . S
H1291 N1285 0.985 . S
H1292 N1289 0.984 . S
H1293 N1289 0.985 . S
H1294 N1288 0.984 . S
H1295 N1288 0.984 . S
H1296 N1284 0.984 . S
H1297 N1284 0.985 . S
C1298 C1299 1.363 . S
C1298 C1304 1.379 . S
C1298 N1306 1.356 . S
C1299 C1298 1.363 . S
C1299 C1305 1.363 . S
C1300 C1301 1.363 . S
C1300 C1305 1.379 . S
C1300 N1307 1.356 1_545 S
C1301 C1300 1.363 . S
C1301 C1304 1.363 . S
N1302 C1304 1.356 . S
N1302 H1314 0.984 . S
N1302 H1315 0.985 . S
N1303 C1305 1.356 . S
N1303 H1308 0.984 . S
N1303 H1309 0.985 . S
C1304 C1298 1.379 . S
C1304 C1301 1.363 . S
C1304 N1302 1.356 . S
C1305 C1299 1.363 . S
C1305 C1300 1.379 . S
C1305 N1303 1.356 . S
N1306 C1298 1.356 . S
N1306 H1312 0.984 . S
N1306 H1313 0.984 . S
N1307 C1300 1.356 1_565 S
N1307 H1310 0.984 . S
N1307 H1311 0.985 . S
H1308 N1303 0.984 . S
H1309 N1303 0.985 . S
H1310 N1307 0.984 . S
H1311 N1307 0.985 . S
H1312 N1306 0.984 . S
H1313 N1306 0.984 . S
H1314 N1302 0.984 . S
H1315 N1302 0.985 . S
C1316 C1317 1.363 . S
C1316 C1322 1.379 . S
C1316 N1324 1.356 . S
C1317 C1316 1.363 . S
C1317 C1323 1.363 . S
C1318 C1319 1.363 . S
C1318 C1323 1.379 . S
C1318 N1325 1.356 . S
C1319 C1318 1.363 . S
C1319 C1322 1.363 . S
N1320 C1322 1.356 . S
N1320 H1332 0.984 . S
N1320 H1333 0.985 . S
N1321 C1323 1.356 . S
N1321 H1326 0.984 . S
N1321 H1327 0.985 . S
C1322 C1316 1.379 . S
C1322 C1319 1.363 . S
C1322 N1320 1.356 . S
C1323 C1317 1.363 . S
C1323 C1318 1.379 . S
C1323 N1321 1.356 . S
N1324 C1316 1.356 . S
N1324 H1330 0.984 . S
N1324 H1331 0.984 . S
N1325 C1318 1.356 . S
N1325 H1328 0.984 . S
N1325 H1329 0.985 . S
H1326 N1321 0.984 . S
H1327 N1321 0.985 . S
H1328 N1325 0.984 . S
H1329 N1325 0.985 . S
H1330 N1324 0.984 . S
H1331 N1324 0.984 . S
H1332 N1320 0.984 . S
H1333 N1320 0.985 . S
C1334 C1335 1.363 . S
C1334 C1340 1.379 . S
C1334 N1342 1.356 . S
C1335 C1334 1.363 . S
C1335 C1341 1.363 . S
C1336 C1337 1.363 . S
C1336 C1341 1.379 . S
C1336 N1343 1.356 1_565 S
C1337 C1336 1.363 . S
C1337 C1340 1.363 . S
N1338 C1340 1.356 . S
N1338 H1350 0.984 . S
N1338 H1351 0.985 . S
N1339 C1341 1.356 . S
N1339 H1344 0.984 . S
N1339 H1345 0.985 . S
C1340 C1334 1.379 . S
C1340 C1337 1.363 . S
C1340 N1338 1.356 . S
C1341 C1335 1.363 . S
C1341 C1336 1.379 . S
C1341 N1339 1.356 . S
N1342 C1334 1.356 . S
N1342 H1348 0.984 . S
N1342 H1349 0.984 . S
N1343 C1336 1.356 1_545 S
N1343 H1346 0.984 . S
N1343 H1347 0.985 . S
H1344 N1339 0.984 . S
H1345 N1339 0.985 . S
H1346 N1343 0.984 . S
H1347 N1343 0.985 . S
H1348 N1342 0.984 . S
H1349 N1342 0.984 . S
H1350 N1338 0.984 . S
H1351 N1338 0.985 . S
C1352 C1353 1.363 . S
C1352 C1358 1.379 . S
C1352 N1360 1.356 . S
C1353 C1352 1.363 . S
C1353 C1359 1.363 . S
C1354 C1355 1.363 . S
C1354 C1359 1.379 . S
C1354 N1361 1.356 . S
C1355 C1354 1.363 . S
C1355 C1358 1.363 . S
N1356 C1358 1.356 . S
N1356 H1368 0.984 . S
N1356 H1369 0.985 . S
N1357 C1359 1.356 . S
N1357 H1362 0.984 . S
N1357 H1363 0.985 . S
C1358 C1352 1.379 . S
C1358 C1355 1.363 . S
C1358 N1356 1.356 . S
C1359 C1353 1.363 . S
C1359 C1354 1.379 . S
C1359 N1357 1.356 . S
N1360 C1352 1.356 . S
N1360 H1366 0.984 . S
N1360 H1367 0.984 . S
N1361 C1354 1.356 . S
N1361 H1364 0.984 . S
N1361 H1365 0.985 . S
H1362 N1357 0.984 . S
H1363 N1357 0.985 . S
H1364 N1361 0.984 . S
H1365 N1361 0.985 . S
H1366 N1360 0.984 . S
H1367 N1360 0.984 . S
H1368 N1356 0.984 . S
H1369 N1356 0.985 . S
C1370 C1371 1.363 . S
C1370 C1376 1.379 . S
C1370 N1378 1.356 1_545 S
C1371 C1370 1.363 . S
C1371 C1377 1.363 . S
C1372 C1373 1.363 . S
C1372 C1377 1.379 . S
C1372 N1379 1.356 . S
C1373 C1372 1.363 . S
C1373 C1376 1.363 . S
N1374 C1376 1.356 . S
N1374 H1386 0.984 . S
N1374 H1387 0.985 . S
N1375 C1377 1.356 . S
N1375 H1380 0.984 . S
N1375 H1381 0.985 . S
C1376 C1370 1.379 . S
C1376 C1373 1.363 . S
C1376 N1374 1.356 . S
C1377 C1371 1.363 . S
C1377 C1372 1.379 . S
C1377 N1375 1.356 . S
N1378 C1370 1.356 1_565 S
N1378 H1384 0.984 . S
N1378 H1385 0.984 . S
N1379 C1372 1.356 . S
N1379 H1382 0.984 . S
N1379 H1383 0.985 . S
H1380 N1375 0.984 . S
H1381 N1375 0.985 . S
H1382 N1379 0.984 . S
H1383 N1379 0.985 . S
H1384 N1378 0.984 . S
H1385 N1378 0.984 . S
H1386 N1374 0.984 . S
H1387 N1374 0.985 . S
C1388 C1389 1.363 . S
C1388 C1394 1.379 . S
C1388 N1396 1.356 . S
C1389 C1388 1.363 . S
C1389 C1395 1.363 . S
C1390 C1391 1.363 . S
C1390 C1395 1.379 . S
C1390 N1397 1.356 . S
C1391 C1390 1.363 . S
C1391 C1394 1.363 . S
N1392 C1394 1.356 . S
N1392 H1404 0.984 . S
N1392 H1405 0.985 . S
N1393 C1395 1.356 . S
N1393 H1398 0.984 . S
N1393 H1399 0.985 . S
C1394 C1388 1.379 . S
C1394 C1391 1.363 . S
C1394 N1392 1.356 . S
C1395 C1389 1.363 . S
C1395 C1390 1.379 . S
C1395 N1393 1.356 . S
N1396 C1388 1.356 . S
N1396 H1402 0.984 . S
N1396 H1403 0.984 . S
N1397 C1390 1.356 . S
N1397 H1400 0.984 . S
N1397 H1401 0.985 . S
H1398 N1393 0.984 . S
H1399 N1393 0.985 . S
H1400 N1397 0.984 . S
H1401 N1397 0.985 . S
H1402 N1396 0.984 . S
H1403 N1396 0.984 . S
H1404 N1392 0.984 . S
H1405 N1392 0.985 . S
C1406 C1407 1.363 . S
C1406 C1412 1.379 . S
C1406 N1414 1.356 . S
C1407 C1406 1.363 . S
C1407 C1413 1.363 . S
C1408 C1409 1.363 . S
C1408 C1413 1.379 . S
C1408 N1415 1.356 . S
C1409 C1408 1.363 . S
C1409 C1412 1.363 . S
N1410 C1412 1.356 1_545 S
N1410 H1422 0.984 . S
N1410 H1423 0.985 . S
N1411 C1413 1.356 . S
N1411 H1416 0.984 . S
N1411 H1417 0.985 . S
C1412 C1406 1.379 . S
C1412 C1409 1.363 . S
C1412 N1410 1.356 1_565 S
C1413 C1407 1.363 . S
C1413 C1408 1.379 . S
C1413 N1411 1.356 . S
N1414 C1406 1.356 . S
N1414 H1420 0.984 . S
N1414 H1421 0.984 . S
N1415 C1408 1.356 . S
N1415 H1418 0.984 . S
N1415 H1419 0.985 . S
H1416 N1411 0.984 . S
H1417 N1411 0.985 . S
H1418 N1415 0.984 . S
H1419 N1415 0.985 . S
H1420 N1414 0.984 . S
H1421 N1414 0.984 . S
H1422 N1410 0.984 . S
H1423 N1410 0.985 . S
C1424 C1425 1.363 . S
C1424 C1430 1.379 . S
C1424 N1432 1.356 . S
C1425 C1424 1.363 . S
C1425 C1431 1.363 . S
C1426 C1427 1.363 . S
C1426 C1431 1.379 . S
C1426 N1433 1.356 . S
C1427 C1426 1.363 . S
C1427 C1430 1.363 . S
N1428 C1430 1.356 . S
N1428 H1440 0.984 . S
N1428 H1441 0.985 . S
N1429 C1431 1.356 . S
N1429 H1434 0.984 . S
N1429 H1435 0.985 . S
C1430 C1424 1.379 . S
C1430 C1427 1.363 . S
C1430 N1428 1.356 . S
C1431 C1425 1.363 . S
C1431 C1426 1.379 . S
C1431 N1429 1.356 . S
N1432 C1424 1.356 . S
N1432 H1438 0.984 . S
N1432 H1439 0.984 . S
N1433 C1426 1.356 . S
N1433 H1436 0.984 . S
N1433 H1437 0.985 . S
H1434 N1429 0.984 . S
H1435 N1429 0.985 . S
H1436 N1433 0.984 . S
H1437 N1433 0.985 . S
H1438 N1432 0.984 . S
H1439 N1432 0.984 . S
H1440 N1428 0.984 . S
H1441 N1428 0.985 . S
C1442 C1443 1.363 . S
C1442 C1448 1.379 . S
C1442 N1450 1.356 . S
C1443 C1442 1.363 . S
C1443 C1449 1.363 . S
C1444 C1445 1.363 . S
C1444 C1449 1.379 . S
C1444 N1451 1.356 . S
C1445 C1444 1.363 . S
C1445 C1448 1.363 . S
N1446 C1448 1.356 . S
N1446 H1458 0.984 . S
N1446 H1459 0.985 . S
N1447 C1449 1.356 1_545 S
N1447 H1452 0.984 . S
N1447 H1453 0.985 . S
C1448 C1442 1.379 . S
C1448 C1445 1.363 . S
C1448 N1446 1.356 . S
C1449 C1443 1.363 . S
C1449 C1444 1.379 . S
C1449 N1447 1.356 1_565 S
N1450 C1442 1.356 . S
N1450 H1456 0.984 . S
N1450 H1457 0.984 . S
N1451 C1444 1.356 . S
N1451 H1454 0.984 . S
N1451 H1455 0.985 . S
H1452 N1447 0.984 . S
H1453 N1447 0.985 . S
H1454 N1451 0.984 . S
H1455 N1451 0.985 . S
H1456 N1450 0.984 . S
H1457 N1450 0.984 . S
H1458 N1446 0.984 . S
H1459 N1446 0.985 . S
C1460 C1461 1.363 . S
C1460 C1466 1.379 . S
C1460 N1468 1.356 . S
C1461 C1460 1.363 . S
C1461 C1467 1.363 . S
C1462 C1463 1.363 . S
C1462 C1467 1.379 . S
C1462 N1469 1.356 . S
C1463 C1462 1.363 . S
C1463 C1466 1.363 . S
N1464 C1466 1.356 . S
N1464 H1476 0.984 . S
N1464 H1477 0.985 . S
N1465 C1467 1.356 . S
N1465 H1470 0.984 . S
N1465 H1471 0.985 . S
C1466 C1460 1.379 . S
C1466 C1463 1.363 . S
C1466 N1464 1.356 . S
C1467 C1461 1.363 . S
C1467 C1462 1.379 . S
C1467 N1465 1.356 . S
N1468 C1460 1.356 . S
N1468 H1474 0.984 . S
N1468 H1475 0.984 . S
N1469 C1462 1.356 . S
N1469 H1472 0.984 . S
N1469 H1473 0.985 . S
H1470 N1465 0.984 . S
H1471 N1465 0.985 . S
H1472 N1469 0.984 . S
H1473 N1469 0.985 . S
H1474 N1468 0.984 . S
H1475 N1468 0.984 . S
H1476 N1464 0.984 . S
H1477 N1464 0.985 . S
C1478 C1479 1.363 . S
C1478 C1484 1.379 . S
C1478 N1486 1.356 . S
C1479 C1478 1.363 . S
C1479 C1485 1.363 . S
C1480 C1481 1.363 . S
C1480 C1485 1.379 . S
C1480 N1487 1.356 . S
C1481 C1480 1.363 . S
C1481 C1484 1.363 . S
N1482 C1484 1.356 . S
N1482 H1494 0.984 . S
N1482 H1495 0.985 . S
N1483 C1485 1.356 . S
N1483 H1488 0.993 . S
N1483 H1489 0.985 . S
C1484 C1478 1.379 . S
C1484 C1481 1.363 . S
C1484 N1482 1.356 . S
C1485 C1479 1.363 . S
C1485 C1480 1.379 . S
C1485 N1483 1.356 . S
N1486 C1478 1.356 . S
N1486 H1492 0.984 . S
N1486 H1493 0.984 . S
N1487 C1480 1.356 . S
N1487 H1490 0.984 . S
N1487 H1491 0.985 . S
H1488 N1483 0.993 . S
H1489 N1483 0.985 . S
H1490 N1487 0.984 . S
H1491 N1487 0.985 . S
H1492 N1486 0.984 . S
H1493 N1486 0.984 . S
H1494 N1482 0.984 . S
H1495 N1482 0.985 . S
C1496 C1497 1.363 . S
C1496 C1502 1.379 . S
C1496 N1504 1.356 . S
C1497 C1496 1.363 . S
C1497 C1503 1.363 . S
C1498 C1499 1.363 . S
C1498 C1503 1.379 . S
C1498 N1505 1.356 . S
C1499 C1498 1.363 . S
C1499 C1502 1.363 . S
N1500 C1502 1.356 . S
N1500 H1512 0.984 . S
N1500 H1513 0.985 . S
N1501 C1503 1.356 . S
N1501 H1506 0.984 . S
N1501 H1507 0.985 . S
C1502 C1496 1.379 . S
C1502 C1499 1.363 . S
C1502 N1500 1.356 . S
C1503 C1497 1.363 . S
C1503 C1498 1.379 . S
C1503 N1501 1.356 . S
N1504 C1496 1.356 . S
N1504 H1510 0.984 . S
N1504 H1511 0.984 . S
N1505 C1498 1.356 . S
N1505 H1508 0.984 . S
N1505 H1509 0.985 . S
H1506 N1501 0.984 . S
H1507 N1501 0.985 . S
H1508 N1505 0.984 . S
H1509 N1505 0.985 . S
H1510 N1504 0.984 . S
H1511 N1504 0.984 . S
H1512 N1500 0.984 . S
H1513 N1500 0.985 . S
C1514 C1515 1.363 . S
C1514 C1520 1.379 . S
C1514 N1522 1.356 1_565 S
C1515 C1514 1.363 . S
C1515 C1521 1.363 . S
C1516 C1517 1.363 . S
C1516 C1521 1.379 . S
C1516 N1523 1.356 . S
C1517 C1516 1.363 . S
C1517 C1520 1.363 . S
N1518 C1520 1.356 . S
N1518 H1530 0.984 . S
N1518 H1531 0.985 . S
N1519 C1521 1.356 . S
N1519 H1524 0.984 . S
N1519 H1525 0.985 . S
C1520 C1514 1.379 . S
C1520 C1517 1.363 . S
C1520 N1518 1.356 . S
C1521 C1515 1.363 . S
C1521 C1516 1.379 . S
C1521 N1519 1.356 . S
N1522 C1514 1.356 1_545 S
N1522 H1528 0.984 . S
N1522 H1529 0.984 . S
N1523 C1516 1.356 . S
N1523 H1526 0.984 . S
N1523 H1527 0.985 . S
H1524 N1519 0.984 . S
H1525 N1519 0.985 . S
H1526 N1523 0.984 . S
H1527 N1523 0.985 . S
H1528 N1522 0.984 . S
H1529 N1522 0.984 . S
H1530 N1518 0.984 . S
H1531 N1518 0.985 . S
C1532 C1533 1.363 . S
C1532 C1538 1.379 . S
C1532 N1540 1.356 . S
C1533 C1532 1.363 . S
C1533 C1539 1.363 . S
C1534 C1535 1.363 . S
C1534 C1539 1.379 . S
C1534 N1541 1.356 . S
C1535 C1534 1.363 . S
C1535 C1538 1.363 . S
N1536 C1538 1.356 . S
N1536 H1548 0.984 . S
N1536 H1549 0.985 . S
N1537 C1539 1.356 . S
N1537 H1542 0.984 . S
N1537 H1543 0.985 . S
C1538 C1532 1.379 . S
C1538 C1535 1.363 . S
C1538 N1536 1.356 . S
C1539 C1533 1.363 . S
C1539 C1534 1.379 . S
C1539 N1537 1.356 . S
N1540 C1532 1.356 . S
N1540 H1546 0.984 . S
N1540 H1547 0.984 . S
N1541 C1534 1.356 . S
N1541 H1544 0.984 . S
N1541 H1545 0.985 . S
H1542 N1537 0.984 . S
H1543 N1537 0.985 . S
H1544 N1541 0.984 . S
H1545 N1541 0.985 . S
H1546 N1540 0.984 . S
H1547 N1540 0.984 . S
H1548 N1536 0.984 . S
H1549 N1536 0.985 . S
C1550 C1551 1.363 . S
C1550 C1556 1.379 . S
C1550 N1558 1.356 . S
C1551 C1550 1.363 . S
C1551 C1557 1.363 . S
C1552 C1553 1.363 . S
C1552 C1557 1.379 . S
C1552 N1559 1.356 . S
C1553 C1552 1.363 . S
C1553 C1556 1.363 . S
N1554 C1556 1.356 . S
N1554 H1566 0.984 . S
N1554 H1567 0.985 . S
N1555 C1557 1.356 . S
N1555 H1560 0.984 . S
N1555 H1561 0.985 . S
C1556 C1550 1.379 . S
C1556 C1553 1.363 . S
C1556 N1554 1.356 . S
C1557 C1551 1.363 . S
C1557 C1552 1.379 . S
C1557 N1555 1.356 . S
N1558 C1550 1.356 . S
N1558 H1564 0.984 . S
N1558 H1565 0.984 . S
N1559 C1552 1.356 . S
N1559 H1562 0.984 1_545 S
N1559 H1563 0.985 . S
H1560 N1555 0.984 . S
H1561 N1555 0.985 . S
H1562 N1559 0.984 1_565 S
H1563 N1559 0.985 . S
H1564 N1558 0.984 . S
H1565 N1558 0.984 . S
H1566 N1554 0.984 . S
H1567 N1554 0.985 . S
C1568 C1569 1.363 . S
C1568 C1574 1.379 . S
C1568 N1576 1.356 . S
C1569 C1568 1.363 . S
C1569 C1575 1.363 . S
C1570 C1571 1.363 . S
C1570 C1575 1.379 . S
C1570 N1577 1.356 . S
C1571 C1570 1.363 . S
C1571 C1574 1.363 . S
N1572 C1574 1.356 . S
N1572 H1584 0.984 . S
N1572 H1585 0.985 . S
N1573 C1575 1.356 . S
N1573 H1578 0.984 . S
N1573 H1579 0.985 . S
C1574 C1568 1.379 . S
C1574 C1571 1.363 . S
C1574 N1572 1.356 . S
C1575 C1569 1.363 . S
C1575 C1570 1.379 . S
C1575 N1573 1.356 . S
N1576 C1568 1.356 . S
N1576 H1582 0.984 . S
N1576 H1583 0.984 . S
N1577 C1570 1.356 . S
N1577 H1580 0.984 . S
N1577 H1581 0.985 . S
H1578 N1573 0.984 . S
H1579 N1573 0.985 . S
H1580 N1577 0.984 . S
H1581 N1577 0.985 . S
H1582 N1576 0.984 . S
H1583 N1576 0.984 . S
H1584 N1572 0.984 . S
H1585 N1572 0.985 . S
C1586 C1587 1.363 . S
C1586 C1592 1.379 . S
C1586 N1594 1.356 . S
C1587 C1586 1.363 . S
C1587 C1593 1.363 . S
C1588 C1589 1.363 . S
C1588 C1593 1.379 . S
C1588 N1595 1.356 . S
C1589 C1588 1.363 . S
C1589 C1592 1.363 . S
N1590 C1592 1.356 . S
N1590 H1602 0.984 . S
N1590 H1603 0.985 . S
N1591 C1593 1.356 . S
N1591 H1596 0.984 . S
N1591 H1597 0.985 . S
C1592 C1586 1.379 . S
C1592 C1589 1.363 . S
C1592 N1590 1.356 . S
C1593 C1587 1.363 . S
C1593 C1588 1.379 . S
C1593 N1591 1.356 . S
N1594 C1586 1.356 . S
N1594 H1600 0.984 . S
N1594 H1601 0.984 . S
N1595 C1588 1.356 . S
N1595 H1598 0.984 . S
N1595 H1599 0.985 . S
H1596 N1591 0.984 . S
H1597 N1591 0.985 . S
H1598 N1595 0.984 . S
H1599 N1595 0.985 . S
H1600 N1594 0.984 . S
H1601 N1594 0.984 . S
H1602 N1590 0.984 . S
H1603 N1590 0.985 . S
C1604 C1605 1.363 . S
C1604 C1610 1.379 . S
C1604 N1612 1.356 . S
C1605 C1604 1.363 . S
C1605 C1611 1.363 . S
C1606 C1607 1.363 . S
C1606 C1611 1.379 . S
C1606 N1613 1.356 . S
C1607 C1606 1.363 . S
C1607 C1610 1.363 . S
N1608 C1610 1.356 . S
N1608 H1620 0.984 . S
N1608 H1621 0.985 . S
N1609 C1611 1.356 . S
N1609 H1614 0.984 . S
N1609 H1615 0.985 . S
C1610 C1604 1.379 . S
C1610 C1607 1.363 . S
C1610 N1608 1.356 . S
C1611 C1605 1.363 . S
C1611 C1606 1.379 . S
C1611 N1609 1.356 . S
N1612 C1604 1.356 . S
N1612 H1618 0.984 . S
N1612 H1619 0.984 . S
N1613 C1606 1.356 . S
N1613 H1616 0.984 . S
N1613 H1617 0.985 . S
H1614 N1609 0.984 . S
H1615 N1609 0.985 . S
H1616 N1613 0.984 . S
H1617 N1613 0.985 . S
H1618 N1612 0.984 . S
H1619 N1612 0.984 . S
H1620 N1608 0.984 . S
H1621 N1608 0.985 . S
C1622 C1623 1.363 . S
C1622 C1628 1.379 . S
C1622 N1630 1.356 . S
C1623 C1622 1.363 . S
C1623 C1629 1.363 . S
C1624 C1625 1.363 . S
C1624 C1629 1.379 . S
C1624 N1631 1.356 . S
C1625 C1624 1.363 . S
C1625 C1628 1.363 . S
N1626 C1628 1.356 . S
N1626 H1638 0.984 . S
N1626 H1639 0.985 . S
N1627 C1629 1.356 . S
N1627 H1632 0.984 . S
N1627 H1633 0.985 . S
C1628 C1622 1.379 . S
C1628 C1625 1.363 . S
C1628 N1626 1.356 . S
C1629 C1623 1.363 . S
C1629 C1624 1.379 . S
C1629 N1627 1.356 . S
N1630 C1622 1.356 . S
N1630 H1636 0.984 . S
N1630 H1637 0.984 . S
N1631 C1624 1.356 . S
N1631 H1634 0.984 . S
N1631 H1635 0.985 . S
H1632 N1627 0.984 . S
H1633 N1627 0.985 . S
H1634 N1631 0.984 . S
H1635 N1631 0.985 . S
H1636 N1630 0.984 . S
H1637 N1630 0.984 . S
H1638 N1626 0.984 . S
H1639 N1626 0.985 . S
C1640 C1641 1.363 . S
C1640 C1646 1.379 . S
C1640 N1648 1.356 . S
C1641 C1640 1.363 . S
C1641 C1647 1.363 . S
C1642 C1643 1.363 . S
C1642 C1647 1.379 . S
C1642 N1649 1.356 . S
C1643 C1642 1.363 . S
C1643 C1646 1.363 . S
N1644 C1646 1.356 . S
N1644 H1656 0.984 . S
N1644 H1657 0.985 . S
N1645 C1647 1.356 . S
N1645 H1650 0.984 . S
N1645 H1651 0.985 . S
C1646 C1640 1.379 . S
C1646 C1643 1.363 . S
C1646 N1644 1.356 . S
C1647 C1641 1.363 . S
C1647 C1642 1.379 . S
C1647 N1645 1.356 . S
N1648 C1640 1.356 . S
N1648 H1654 0.984 . S
N1648 H1655 0.984 . S
N1649 C1642 1.356 . S
N1649 H1652 0.984 . S
N1649 H1653 0.985 . S
H1650 N1645 0.984 . S
H1651 N1645 0.985 . S
H1652 N1649 0.984 . S
H1653 N1649 0.985 . S
H1654 N1648 0.984 . S
H1655 N1648 0.984 . S
H1656 N1644 0.984 . S
H1657 N1644 0.985 . S
C1658 C1659 1.363 . S
C1658 C1664 1.379 . S
C1658 N1666 1.356 . S
C1659 C1658 1.363 . S
C1659 C1665 1.363 . S
C1660 C1661 1.363 . S
C1660 C1665 1.379 . S
C1660 N1667 1.356 . S
C1661 C1660 1.363 . S
C1661 C1664 1.363 . S
N1662 C1664 1.356 . S
N1662 H1674 0.984 . S
N1662 H1675 0.985 . S
N1663 C1665 1.356 . S
N1663 H1668 0.984 . S
N1663 H1669 0.985 . S
C1664 C1658 1.379 . S
C1664 C1661 1.363 . S
C1664 N1662 1.356 . S
C1665 C1659 1.363 . S
C1665 C1660 1.379 . S
C1665 N1663 1.356 . S
N1666 C1658 1.356 . S
N1666 H1672 0.984 . S
N1666 H1673 0.984 . S
N1667 C1660 1.356 . S
N1667 H1670 0.984 . S
N1667 H1671 0.985 . S
H1668 N1663 0.984 . S
H1669 N1663 0.985 . S
H1670 N1667 0.984 . S
H1671 N1667 0.985 . S
H1672 N1666 0.984 . S
H1673 N1666 0.984 . S
H1674 N1662 0.984 . S
H1675 N1662 0.985 . S
C1676 C1677 1.363 . S
C1676 C1682 1.379 . S
C1676 N1684 1.356 . S
C1677 C1676 1.363 . S
C1677 C1683 1.363 . S
C1678 C1679 1.363 . S
C1678 C1683 1.379 . S
C1678 N1685 1.356 . S
C1679 C1678 1.363 . S
C1679 C1682 1.363 . S
N1680 C1682 1.356 . S
N1680 H1692 0.984 . S
N1680 H1693 0.985 . S
N1681 C1683 1.356 . S
N1681 H1686 0.984 . S
N1681 H1687 0.985 . S
C1682 C1676 1.379 . S
C1682 C1679 1.363 . S
C1682 N1680 1.356 . S
C1683 C1677 1.363 . S
C1683 C1678 1.379 . S
C1683 N1681 1.356 . S
N1684 C1676 1.356 . S
N1684 H1690 0.984 . S
N1684 H1691 0.984 . S
N1685 C1678 1.356 . S
N1685 H1688 0.984 . S
N1685 H1689 0.985 . S
H1686 N1681 0.984 . S
H1687 N1681 0.985 . S
H1688 N1685 0.984 . S
H1689 N1685 0.985 . S
H1690 N1684 0.984 . S
H1691 N1684 0.984 . S
H1692 N1680 0.984 . S
H1693 N1680 0.985 . S
C1694 C1695 1.363 . S
C1694 C1700 1.379 . S
C1694 N1702 1.356 . S
C1695 C1694 1.363 . S
C1695 C1701 1.363 . S
C1696 C1697 1.363 . S
C1696 C1701 1.379 . S
C1696 N1703 1.356 . S
C1697 C1696 1.363 . S
C1697 C1700 1.363 . S
N1698 C1700 1.356 . S
N1698 H1710 0.984 . S
N1698 H1711 0.985 . S
N1699 C1701 1.356 . S
N1699 H1704 0.984 . S
N1699 H1705 0.985 . S
C1700 C1694 1.379 . S
C1700 C1697 1.363 . S
C1700 N1698 1.356 . S
C1701 C1695 1.363 . S
C1701 C1696 1.379 . S
C1701 N1699 1.356 . S
N1702 C1694 1.356 . S
N1702 H1708 0.984 . S
N1702 H1709 0.984 . S
N1703 C1696 1.356 . S
N1703 H1706 0.984 . S
N1703 H1707 0.985 . S
H1704 N1699 0.984 . S
H1705 N1699 0.985 . S
H1706 N1703 0.984 . S
H1707 N1703 0.985 . S
H1708 N1702 0.984 . S
H1709 N1702 0.984 . S
H1710 N1698 0.984 . S
H1711 N1698 0.985 . S
C1712 C1713 1.363 . S
C1712 C1718 1.379 . S
C1712 N1720 1.356 . S
C1713 C1712 1.363 . S
C1713 C1719 1.363 . S
C1714 C1715 1.363 . S
C1714 C1719 1.379 . S
C1714 N1721 1.356 . S
C1715 C1714 1.363 . S
C1715 C1718 1.363 . S
N1716 C1718 1.356 . S
N1716 H1728 0.984 . S
N1716 H1729 0.985 . S
N1717 C1719 1.356 . S
N1717 H1722 0.984 . S
N1717 H1723 0.985 . S
C1718 C1712 1.379 . S
C1718 C1715 1.363 . S
C1718 N1716 1.356 . S
C1719 C1713 1.363 . S
C1719 C1714 1.379 . S
C1719 N1717 1.356 . S
N1720 C1712 1.356 . S
N1720 H1726 0.984 . S
N1720 H1727 0.984 . S
N1721 C1714 1.356 . S
N1721 H1724 0.984 . S
N1721 H1725 0.985 . S
H1722 N1717 0.984 . S
H1723 N1717 0.985 . S
H1724 N1721 0.984 . S
H1725 N1721 0.985 . S
H1726 N1720 0.984 . S
H1727 N1720 0.984 . S
H1728 N1716 0.984 . S
H1729 N1716 0.985 . S
C1730 C1731 1.363 . S
C1730 C1736 1.379 . S
C1730 N1738 1.356 . S
C1731 C1730 1.363 . S
C1731 C1737 1.363 . S
C1732 C1733 1.363 . S
C1732 C1737 1.379 . S
C1732 N1739 1.356 . S
C1733 C1732 1.363 . S
C1733 C1736 1.363 . S
N1734 C1736 1.356 . S
N1734 H1746 0.984 . S
N1734 H1747 0.985 . S
N1735 C1737 1.356 . S
N1735 H1740 0.984 . S
N1735 H1741 0.985 . S
C1736 C1730 1.379 . S
C1736 C1733 1.363 . S
C1736 N1734 1.356 . S
C1737 C1731 1.363 . S
C1737 C1732 1.379 . S
C1737 N1735 1.356 . S
N1738 C1730 1.356 . S
N1738 H1744 0.984 . S
N1738 H1745 0.984 . S
N1739 C1732 1.356 . S
N1739 H1742 0.984 . S
N1739 H1743 0.985 . S
H1740 N1735 0.984 . S
H1741 N1735 0.985 . S
H1742 N1739 0.984 . S
H1743 N1739 0.985 . S
H1744 N1738 0.984 . S
H1745 N1738 0.984 . S
H1746 N1734 0.984 . S
H1747 N1734 0.985 . S
C1748 C1749 1.363 . S
C1748 C1754 1.379 . S
C1748 N1756 1.356 . S
C1749 C1748 1.363 . S
C1749 C1755 1.363 . S
C1750 C1751 1.363 . S
C1750 C1755 1.379 . S
C1750 N1757 1.356 . S
C1751 C1750 1.363 . S
C1751 C1754 1.363 . S
N1752 C1754 1.356 . S
N1752 H1764 0.984 . S
N1752 H1765 0.985 . S
N1753 C1755 1.356 . S
N1753 H1758 0.984 . S
N1753 H1759 0.985 . S
C1754 C1748 1.379 . S
C1754 C1751 1.363 . S
C1754 N1752 1.356 . S
C1755 C1749 1.363 . S
C1755 C1750 1.379 . S
C1755 N1753 1.356 . S
N1756 C1748 1.356 . S
N1756 H1762 0.984 . S
N1756 H1763 0.984 . S
N1757 C1750 1.356 . S
N1757 H1760 0.984 . S
N1757 H1761 0.985 . S
H1758 N1753 0.984 . S
H1759 N1753 0.985 . S
H1760 N1757 0.984 . S
H1761 N1757 0.985 . S
H1762 N1756 0.984 . S
H1763 N1756 0.984 . S
H1764 N1752 0.984 . S
H1765 N1752 0.985 . S
C1766 C1767 1.363 . S
C1766 C1772 1.379 . S
C1766 N1774 1.356 . S
C1767 C1766 1.363 . S
C1767 C1773 1.363 . S
C1768 C1769 1.363 . S
C1768 C1773 1.379 . S
C1768 N1775 1.356 . S
C1769 C1768 1.363 . S
C1769 C1772 1.363 . S
N1770 C1772 1.356 . S
N1770 H1782 0.984 . S
N1770 H1783 0.985 . S
N1771 C1773 1.356 . S
N1771 H1776 0.984 . S
N1771 H1777 0.985 . S
C1772 C1766 1.379 . S
C1772 C1769 1.363 . S
C1772 N1770 1.356 . S
C1773 C1767 1.363 . S
C1773 C1768 1.379 . S
C1773 N1771 1.356 . S
N1774 C1766 1.356 . S
N1774 H1780 0.984 . S
N1774 H1781 0.984 . S
N1775 C1768 1.356 . S
N1775 H1778 0.984 . S
N1775 H1779 0.985 . S
H1776 N1771 0.984 . S
H1777 N1771 0.985 . S
H1778 N1775 0.984 . S
H1779 N1775 0.985 . S
H1780 N1774 0.984 . S
H1781 N1774 0.984 . S
H1782 N1770 0.984 . S
H1783 N1770 0.985 . S
C1784 C1785 1.363 . S
C1784 C1790 1.379 . S
C1784 N1792 1.356 . S
C1785 C1784 1.363 . S
C1785 C1791 1.363 . S
C1786 C1787 1.363 . S
C1786 C1791 1.379 . S
C1786 N1793 1.356 . S
C1787 C1786 1.363 . S
C1787 C1790 1.363 . S
N1788 C1790 1.356 . S
N1788 H1800 0.984 . S
N1788 H1801 0.985 . S
N1789 C1791 1.356 . S
N1789 H1794 0.984 . S
N1789 H1795 0.985 . S
C1790 C1784 1.379 . S
C1790 C1787 1.363 . S
C1790 N1788 1.356 . S
C1791 C1785 1.363 . S
C1791 C1786 1.379 . S
C1791 N1789 1.356 . S
N1792 C1784 1.356 . S
N1792 H1798 0.984 . S
N1792 H1799 0.984 . S
N1793 C1786 1.356 . S
N1793 H1796 0.984 . S
N1793 H1797 0.985 . S
H1794 N1789 0.984 . S
H1795 N1789 0.985 . S
H1796 N1793 0.984 . S
H1797 N1793 0.985 . S
H1798 N1792 0.984 . S
H1799 N1792 0.984 . S
H1800 N1788 0.984 . S
H1801 N1788 0.985 . S
C1802 C1803 1.363 . S
C1802 C1808 1.379 . S
C1802 N1810 1.356 . S
C1803 C1802 1.363 . S
C1803 C1809 1.363 . S
C1804 C1805 1.363 . S
C1804 C1809 1.379 . S
C1804 N1811 1.356 . S
C1805 C1804 1.363 . S
C1805 C1808 1.363 . S
N1806 C1808 1.356 . S
N1806 H1818 0.984 . S
N1806 H1819 0.985 . S
N1807 C1809 1.356 . S
N1807 H1812 0.984 . S
N1807 H1813 0.985 . S
C1808 C1802 1.379 . S
C1808 C1805 1.363 . S
C1808 N1806 1.356 . S
C1809 C1803 1.363 . S
C1809 C1804 1.379 . S
C1809 N1807 1.356 . S
N1810 C1802 1.356 . S
N1810 H1816 0.984 . S
N1810 H1817 0.984 . S
N1811 C1804 1.356 . S
N1811 H1814 0.984 . S
N1811 H1815 0.985 . S
H1812 N1807 0.984 . S
H1813 N1807 0.985 . S
H1814 N1811 0.984 . S
H1815 N1811 0.985 . S
H1816 N1810 0.984 . S
H1817 N1810 0.984 . S
H1818 N1806 0.984 . S
H1819 N1806 0.985 . S
C1820 C1821 1.363 . S
C1820 C1826 1.379 . S
C1820 N1828 1.356 . S
C1821 C1820 1.363 . S
C1821 C1827 1.363 . S
C1822 C1823 1.363 . S
C1822 C1827 1.379 . S
C1822 N1829 1.356 . S
C1823 C1822 1.363 . S
C1823 C1826 1.363 . S
N1824 C1826 1.356 . S
N1824 H1836 0.984 . S
N1824 H1837 0.985 . S
N1825 C1827 1.356 . S
N1825 H1830 0.984 . S
N1825 H1831 0.985 . S
C1826 C1820 1.379 . S
C1826 C1823 1.363 . S
C1826 N1824 1.356 . S
C1827 C1821 1.363 . S
C1827 C1822 1.379 . S
C1827 N1825 1.356 . S
N1828 C1820 1.356 . S
N1828 H1834 0.984 . S
N1828 H1835 0.984 . S
N1829 C1822 1.356 . S
N1829 H1832 0.984 . S
N1829 H1833 0.985 . S
H1830 N1825 0.984 . S
H1831 N1825 0.985 . S
H1832 N1829 0.984 . S
H1833 N1829 0.985 . S
H1834 N1828 0.984 . S
H1835 N1828 0.984 . S
H1836 N1824 0.984 . S
H1837 N1824 0.985 . S
C1838 C1839 1.363 . S
C1838 C1844 1.379 . S
C1838 N1846 1.356 . S
C1839 C1838 1.363 . S
C1839 C1845 1.363 . S
C1840 C1841 1.363 . S
C1840 C1845 1.379 . S
C1840 N1847 1.356 . S
C1841 C1840 1.363 . S
C1841 C1844 1.363 . S
N1842 C1844 1.356 . S
N1842 H1854 0.984 . S
N1842 H1855 0.985 . S
N1843 C1845 1.356 . S
N1843 H1848 0.984 . S
N1843 H1849 0.985 . S
C1844 C1838 1.379 . S
C1844 C1841 1.363 . S
C1844 N1842 1.356 . S
C1845 C1839 1.363 . S
C1845 C1840 1.379 . S
C1845 N1843 1.356 . S
N1846 C1838 1.356 . S
N1846 H1852 0.984 . S
N1846 H1853 0.984 . S
N1847 C1840 1.356 . S
N1847 H1850 0.984 . S
N1847 H1851 0.985 . S
H1848 N1843 0.984 . S
H1849 N1843 0.985 . S
H1850 N1847 0.984 . S
H1851 N1847 0.985 . S
H1852 N1846 0.984 . S
H1853 N1846 0.984 . S
H1854 N1842 0.984 . S
H1855 N1842 0.985 . S
C1856 C1857 1.363 . S
C1856 C1862 1.379 . S
C1856 N1864 1.356 . S
C1857 C1856 1.363 . S
C1857 C1863 1.363 . S
C1858 C1859 1.363 . S
C1858 C1863 1.379 . S
C1858 N1865 1.356 . S
C1859 C1858 1.363 . S
C1859 C1862 1.363 . S
N1860 C1862 1.356 . S
N1860 H1872 0.984 . S
N1860 H1873 0.985 . S
N1861 C1863 1.356 . S
N1861 H1866 0.984 . S
N1861 H1867 0.985 . S
C1862 C1856 1.379 . S
C1862 C1859 1.363 . S
C1862 N1860 1.356 . S
C1863 C1857 1.363 . S
C1863 C1858 1.379 . S
C1863 N1861 1.356 . S
N1864 C1856 1.356 . S
N1864 H1870 0.984 . S
N1864 H1871 0.984 . S
N1865 C1858 1.356 . S
N1865 H1868 0.984 . S
N1865 H1869 0.985 . S
H1866 N1861 0.984 . S
H1867 N1861 0.985 . S
H1868 N1865 0.984 . S
H1869 N1865 0.985 . S
H1870 N1864 0.984 . S
H1871 N1864 0.984 . S
H1872 N1860 0.984 . S
H1873 N1860 0.985 . S
C1874 C1875 1.363 . S
C1874 C1880 1.379 . S
C1874 N1882 1.356 . S
C1875 C1874 1.363 . S
C1875 C1881 1.363 . S
C1876 C1877 1.363 . S
C1876 C1881 1.379 . S
C1876 N1883 1.356 . S
C1877 C1876 1.363 . S
C1877 C1880 1.363 . S
N1878 C1880 1.356 . S
N1878 H1890 0.984 . S
N1878 H1891 0.985 . S
N1879 C1881 1.356 . S
N1879 H1884 0.984 . S
N1879 H1885 0.985 . S
C1880 C1874 1.379 . S
C1880 C1877 1.363 . S
C1880 N1878 1.356 . S
C1881 C1875 1.363 . S
C1881 C1876 1.379 . S
C1881 N1879 1.356 . S
N1882 C1874 1.356 . S
N1882 H1888 0.984 . S
N1882 H1889 0.984 . S
N1883 C1876 1.356 . S
N1883 H1886 0.984 1_455 S
N1883 H1887 0.985 1_455 S
H1884 N1879 0.984 . S
H1885 N1879 0.985 . S
H1886 N1883 0.984 1_655 S
H1887 N1883 0.985 1_655 S
H1888 N1882 0.984 . S
H1889 N1882 0.984 . S
H1890 N1878 0.984 . S
H1891 N1878 0.985 . S
C1892 C1893 1.363 . S
C1892 C1898 1.379 . S
C1892 N1900 1.356 . S
C1893 C1892 1.363 . S
C1893 C1899 1.363 . S
C1894 C1895 1.363 . S
C1894 C1899 1.379 . S
C1894 N1901 1.356 . S
C1895 C1894 1.363 . S
C1895 C1898 1.363 . S
N1896 C1898 1.356 . S
N1896 H1908 0.984 . S
N1896 H1909 0.985 . S
N1897 C1899 1.356 . S
N1897 H1902 0.984 . S
N1897 H1903 0.985 . S
C1898 C1892 1.379 . S
C1898 C1895 1.363 . S
C1898 N1896 1.356 . S
C1899 C1893 1.363 . S
C1899 C1894 1.379 . S
C1899 N1897 1.356 . S
N1900 C1892 1.356 . S
N1900 H1906 0.984 . S
N1900 H1907 0.984 . S
N1901 C1894 1.356 . S
N1901 H1904 0.984 . S
N1901 H1905 0.985 . S
H1902 N1897 0.984 . S
H1903 N1897 0.985 . S
H1904 N1901 0.984 . S
H1905 N1901 0.985 . S
H1906 N1900 0.984 . S
H1907 N1900 0.984 . S
H1908 N1896 0.984 . S
H1909 N1896 0.985 . S
C1910 C1911 1.363 . S
C1910 C1916 1.379 . S
C1910 N1918 1.356 . S
C1911 C1910 1.363 . S
C1911 C1917 1.363 . S
C1912 C1913 1.363 . S
C1912 C1917 1.379 . S
C1912 N1919 1.356 . S
C1913 C1912 1.363 . S
C1913 C1916 1.363 . S
N1914 C1916 1.356 . S
N1914 H1926 0.984 . S
N1914 H1927 0.985 . S
N1915 C1917 1.356 . S
N1915 H1920 0.984 . S
N1915 H1921 0.985 . S
C1916 C1910 1.379 . S
C1916 C1913 1.363 . S
C1916 N1914 1.356 . S
C1917 C1911 1.363 . S
C1917 C1912 1.379 . S
C1917 N1915 1.356 . S
N1918 C1910 1.356 . S
N1918 H1924 0.984 . S
N1918 H1925 0.984 . S
N1919 C1912 1.356 . S
N1919 H1922 0.984 . S
N1919 H1923 0.985 . S
H1920 N1915 0.984 . S
H1921 N1915 0.985 . S
H1922 N1919 0.984 . S
H1923 N1919 0.985 . S
H1924 N1918 0.984 . S
H1925 N1918 0.984 . S
H1926 N1914 0.984 . S
H1927 N1914 0.985 . S
C1928 C1929 1.363 . S
C1928 C1934 1.379 . S
C1928 N1936 1.356 . S
C1929 C1928 1.363 . S
C1929 C1935 1.363 . S
C1930 C1931 1.363 . S
C1930 C1935 1.379 . S
C1930 N1937 1.356 . S
C1931 C1930 1.363 . S
C1931 C1934 1.363 . S
N1932 C1934 1.356 . S
N1932 H1944 0.984 . S
N1932 H1945 0.985 . S
N1933 C1935 1.356 . S
N1933 H1938 0.984 . S
N1933 H1939 0.985 . S
C1934 C1928 1.379 . S
C1934 C1931 1.363 . S
C1934 N1932 1.356 . S
C1935 C1929 1.363 . S
C1935 C1930 1.379 . S
C1935 N1933 1.356 . S
N1936 C1928 1.356 . S
N1936 H1942 0.984 . S
N1936 H1943 0.984 . S
N1937 C1930 1.356 . S
N1937 H1940 0.984 . S
N1937 H1941 0.985 . S
H1938 N1933 0.984 . S
H1939 N1933 0.985 . S
H1940 N1937 0.984 . S
H1941 N1937 0.985 . S
H1942 N1936 0.984 . S
H1943 N1936 0.984 . S
H1944 N1932 0.984 . S
H1945 N1932 0.985 . S
C1946 C1947 1.363 . S
C1946 C1952 1.379 . S
C1946 N1954 1.356 . S
C1947 C1946 1.363 . S
C1947 C1953 1.363 . S
C1948 C1949 1.363 . S
C1948 C1953 1.379 . S
C1948 N1955 1.356 . S
C1949 C1948 1.363 . S
C1949 C1952 1.363 . S
N1950 C1952 1.356 . S
N1950 H1962 0.984 . S
N1950 H1963 0.985 . S
N1951 C1953 1.356 . S
N1951 H1956 0.984 . S
N1951 H1957 0.985 . S
C1952 C1946 1.379 . S
C1952 C1949 1.363 . S
C1952 N1950 1.356 . S
C1953 C1947 1.363 . S
C1953 C1948 1.379 . S
C1953 N1951 1.356 . S
N1954 C1946 1.356 . S
N1954 H1960 0.984 . S
N1954 H1961 0.984 . S
N1955 C1948 1.356 . S
N1955 H1958 0.984 . S
N1955 H1959 0.985 . S
H1956 N1951 0.984 . S
H1957 N1951 0.985 . S
H1958 N1955 0.984 . S
H1959 N1955 0.985 . S
H1960 N1954 0.984 . S
H1961 N1954 0.984 . S
H1962 N1950 0.984 . S
H1963 N1950 0.985 . S
C1964 C1965 1.363 . S
C1964 C1970 1.379 . S
C1964 N1972 1.356 . S
C1965 C1964 1.363 . S
C1965 C1971 1.363 . S
C1966 C1967 1.363 . S
C1966 C1971 1.379 . S
C1966 N1973 1.356 . S
C1967 C1966 1.363 . S
C1967 C1970 1.363 . S
N1968 C1970 1.356 . S
N1968 H1980 0.984 . S
N1968 H1981 0.985 . S
N1969 C1971 1.356 . S
N1969 H1974 0.984 . S
N1969 H1975 0.985 . S
C1970 C1964 1.379 . S
C1970 C1967 1.363 . S
C1970 N1968 1.356 . S
C1971 C1965 1.363 . S
C1971 C1966 1.379 . S
C1971 N1969 1.356 . S
N1972 C1964 1.356 . S
N1972 H1978 0.984 . S
N1972 H1979 0.984 . S
N1973 C1966 1.356 . S
N1973 H1976 0.984 . S
N1973 H1977 0.985 . S
H1974 N1969 0.984 . S
H1975 N1969 0.985 . S
H1976 N1973 0.984 . S
H1977 N1973 0.985 . S
H1978 N1972 0.984 . S
H1979 N1972 0.984 . S
H1980 N1968 0.984 . S
H1981 N1968 0.985 . S
C1982 C1983 1.363 . S
C1982 C1988 1.379 . S
C1982 N1990 1.356 . S
C1983 C1982 1.363 . S
C1983 C1989 1.363 . S
C1984 C1985 1.363 . S
C1984 C1989 1.379 . S
C1984 N1991 1.356 . S
C1985 C1984 1.363 . S
C1985 C1988 1.363 . S
N1986 C1988 1.356 . S
N1986 H1998 0.984 1_455 S
N1986 H1999 0.985 1_455 S
N1987 C1989 1.356 . S
N1987 H1992 0.984 . S
N1987 H1993 0.985 . S
C1988 C1982 1.379 . S
C1988 C1985 1.363 . S
C1988 N1986 1.356 . S
C1989 C1983 1.363 . S
C1989 C1984 1.379 . S
C1989 N1987 1.356 . S
N1990 C1982 1.356 . S
N1990 H1996 0.984 . S
N1990 H1997 0.984 . S
N1991 C1984 1.356 . S
N1991 H1994 0.984 . S
N1991 H1995 0.985 . S
H1992 N1987 0.984 . S
H1993 N1987 0.985 . S
H1994 N1991 0.984 . S
H1995 N1991 0.985 . S
H1996 N1990 0.984 . S
H1997 N1990 0.984 . S
H1998 N1986 0.984 1_655 S
H1999 N1986 0.985 1_655 S
C2000 C2001 1.363 . S
C2000 C2006 1.379 . S
C2000 N2008 1.356 . S
C2001 C2000 1.363 . S
C2001 C2007 1.363 . S
C2002 C2003 1.363 . S
C2002 C2007 1.379 . S
C2002 N2009 1.356 . S
C2003 C2002 1.363 . S
C2003 C2006 1.363 . S
N2004 C2006 1.356 . S
N2004 H2016 0.984 . S
N2004 H2017 0.985 . S
N2005 C2007 1.356 . S
N2005 H2010 0.984 . S
N2005 H2011 0.985 . S
C2006 C2000 1.379 . S
C2006 C2003 1.363 . S
C2006 N2004 1.356 . S
C2007 C2001 1.363 . S
C2007 C2002 1.379 . S
C2007 N2005 1.356 . S
N2008 C2000 1.356 . S
N2008 H2014 0.984 . S
N2008 H2015 0.984 . S
N2009 C2002 1.356 . S
N2009 H2012 0.984 . S
N2009 H2013 0.985 . S
H2010 N2005 0.984 . S
H2011 N2005 0.985 . S
H2012 N2009 0.984 . S
H2013 N2009 0.985 . S
H2014 N2008 0.984 . S
H2015 N2008 0.984 . S
H2016 N2004 0.984 . S
H2017 N2004 0.985 . S
C2018 C2019 1.363 . S
C2018 C2024 1.379 . S
C2018 N2026 1.356 . S
C2019 C2018 1.363 . S
C2019 C2025 1.363 . S
C2020 C2021 1.363 . S
C2020 C2025 1.379 . S
C2020 N2027 1.356 . S
C2021 C2020 1.363 . S
C2021 C2024 1.363 . S
N2022 C2024 1.356 . S
N2022 H2034 0.984 . S
N2022 H2035 0.985 . S
N2023 C2025 1.356 . S
N2023 H2028 0.984 1_655 S
N2023 H2029 0.985 . S
C2024 C2018 1.379 . S
C2024 C2021 1.363 . S
C2024 N2022 1.356 . S
C2025 C2019 1.363 . S
C2025 C2020 1.379 . S
C2025 N2023 1.356 . S
N2026 C2018 1.356 . S
N2026 H2032 0.984 . S
N2026 H2033 0.984 . S
N2027 C2020 1.356 . S
N2027 H2030 0.984 . S
N2027 H2031 0.985 . S
H2028 N2023 0.984 1_455 S
H2029 N2023 0.985 . S
H2030 N2027 0.984 . S
H2031 N2027 0.985 . S
H2032 N2026 0.984 . S
H2033 N2026 0.984 . S
H2034 N2022 0.984 . S
H2035 N2022 0.985 . S
C2036 C2037 1.363 . S
C2036 C2042 1.379 . S
C2036 N2044 1.356 . S
C2037 C2036 1.363 . S
C2037 C2043 1.363 . S
C2038 C2039 1.363 . S
C2038 C2043 1.379 . S
C2038 N2045 1.356 . S
C2039 C2038 1.363 . S
C2039 C2042 1.363 . S
N2040 C2042 1.356 . S
N2040 H2052 0.984 . S
N2040 H2053 0.985 . S
N2041 C2043 1.356 . S
N2041 H2046 0.984 . S
N2041 H2047 0.985 . S
C2042 C2036 1.379 . S
C2042 C2039 1.363 . S
C2042 N2040 1.356 . S
C2043 C2037 1.363 . S
C2043 C2038 1.379 . S
C2043 N2041 1.356 . S
N2044 C2036 1.356 . S
N2044 H2050 0.984 . S
N2044 H2051 0.984 . S
N2045 C2038 1.356 . S
N2045 H2048 0.984 . S
N2045 H2049 0.985 . S
H2046 N2041 0.984 . S
H2047 N2041 0.985 . S
H2048 N2045 0.984 . S
H2049 N2045 0.985 . S
H2050 N2044 0.984 . S
H2051 N2044 0.984 . S
H2052 N2040 0.984 . S
H2053 N2040 0.985 . S
C2054 C2055 1.363 . S
C2054 C2060 1.379 . S
C2054 N2062 1.356 . S
C2055 C2054 1.363 . S
C2055 C2061 1.363 . S
C2056 C2057 1.363 . S
C2056 C2061 1.379 . S
C2056 N2063 1.356 . S
C2057 C2056 1.363 . S
C2057 C2060 1.363 . S
N2058 C2060 1.356 . S
N2058 H2070 0.984 . S
N2058 H2071 0.985 . S
N2059 C2061 1.356 . S
N2059 H2064 0.984 . S
N2059 H2065 0.985 . S
C2060 C2054 1.379 . S
C2060 C2057 1.363 . S
C2060 N2058 1.356 . S
C2061 C2055 1.363 . S
C2061 C2056 1.379 . S
C2061 N2059 1.356 . S
N2062 C2054 1.356 . S
N2062 H2068 0.984 . S
N2062 H2069 0.984 . S
N2063 C2056 1.356 . S
N2063 H2066 0.984 . S
N2063 H2067 0.985 . S
H2064 N2059 0.984 . S
H2065 N2059 0.985 . S
H2066 N2063 0.984 . S
H2067 N2063 0.985 . S
H2068 N2062 0.984 . S
H2069 N2062 0.984 . S
H2070 N2058 0.984 . S
H2071 N2058 0.985 . S
C2072 C2073 1.363 . S
C2072 C2078 1.379 . S
C2072 N2080 1.356 . S
C2073 C2072 1.363 . S
C2073 C2079 1.363 . S
C2074 C2075 1.363 . S
C2074 C2079 1.379 . S
C2074 N2081 1.356 . S
C2075 C2074 1.363 . S
C2075 C2078 1.363 . S
N2076 C2078 1.356 . S
N2076 H2088 0.984 . S
N2076 H2089 0.985 . S
N2077 C2079 1.356 . S
N2077 H2082 0.984 . S
N2077 H2083 0.985 . S
C2078 C2072 1.379 . S
C2078 C2075 1.363 . S
C2078 N2076 1.356 . S
C2079 C2073 1.363 . S
C2079 C2074 1.379 . S
C2079 N2077 1.356 . S
N2080 C2072 1.356 . S
N2080 H2086 0.984 . S
N2080 H2087 0.984 . S
N2081 C2074 1.356 . S
N2081 H2084 0.984 . S
N2081 H2085 0.985 . S
H2082 N2077 0.984 . S
H2083 N2077 0.985 . S
H2084 N2081 0.984 . S
H2085 N2081 0.985 . S
H2086 N2080 0.984 . S
H2087 N2080 0.984 . S
H2088 N2076 0.984 . S
H2089 N2076 0.985 . S
C2090 C2091 1.363 . S
C2090 C2096 1.379 . S
C2090 N2098 1.356 . S
C2091 C2090 1.363 . S
C2091 C2097 1.363 . S
C2092 C2093 1.363 . S
C2092 C2097 1.379 . S
C2092 N2099 1.356 . S
C2093 C2092 1.363 . S
C2093 C2096 1.363 . S
N2094 C2096 1.356 . S
N2094 H2106 0.984 . S
N2094 H2107 0.985 . S
N2095 C2097 1.356 . S
N2095 H2100 0.984 . S
N2095 H2101 0.985 . S
C2096 C2090 1.379 . S
C2096 C2093 1.363 . S
C2096 N2094 1.356 . S
C2097 C2091 1.363 . S
C2097 C2092 1.379 . S
C2097 N2095 1.356 . S
N2098 C2090 1.356 . S
N2098 H2104 0.984 . S
N2098 H2105 0.984 . S
N2099 C2092 1.356 . S
N2099 H2102 0.984 . S
N2099 H2103 0.985 . S
H2100 N2095 0.984 . S
H2101 N2095 0.985 . S
H2102 N2099 0.984 . S
H2103 N2099 0.985 . S
H2104 N2098 0.984 . S
H2105 N2098 0.984 . S
H2106 N2094 0.984 . S
H2107 N2094 0.985 . S
C2108 C2109 1.363 . S
C2108 C2114 1.379 . S
C2108 N2116 1.356 . S
C2109 C2108 1.363 . S
C2109 C2115 1.363 . S
C2110 C2111 1.363 . S
C2110 C2115 1.379 . S
C2110 N2117 1.356 . S
C2111 C2110 1.363 . S
C2111 C2114 1.363 . S
N2112 C2114 1.356 . S
N2112 H2124 0.984 . S
N2112 H2125 0.985 . S
N2113 C2115 1.356 . S
N2113 H2118 0.984 . S
N2113 H2119 0.985 . S
C2114 C2108 1.379 . S
C2114 C2111 1.363 . S
C2114 N2112 1.356 . S
C2115 C2109 1.363 . S
C2115 C2110 1.379 . S
C2115 N2113 1.356 . S
N2116 C2108 1.356 . S
N2116 H2122 0.984 . S
N2116 H2123 0.984 . S
N2117 C2110 1.356 . S
N2117 H2120 0.984 . S
N2117 H2121 0.985 . S
H2118 N2113 0.984 . S
H2119 N2113 0.985 . S
H2120 N2117 0.984 . S
H2121 N2117 0.985 . S
H2122 N2116 0.984 . S
H2123 N2116 0.984 . S
H2124 N2112 0.984 . S
H2125 N2112 0.985 . S
C2126 C2127 1.363 . S
C2126 C2132 1.379 . S
C2126 N2134 1.356 . S
C2127 C2126 1.363 . S
C2127 C2133 1.363 . S
C2128 C2129 1.363 . S
C2128 C2133 1.379 . S
C2128 N2135 1.356 . S
C2129 C2128 1.363 . S
C2129 C2132 1.363 . S
N2130 C2132 1.356 . S
N2130 H2142 0.984 1_655 S
N2130 H2143 0.985 1_655 S
N2131 C2133 1.356 . S
N2131 H2136 0.984 . S
N2131 H2137 0.985 . S
C2132 C2126 1.379 . S
C2132 C2129 1.363 . S
C2132 N2130 1.356 . S
C2133 C2127 1.363 . S
C2133 C2128 1.379 . S
C2133 N2131 1.356 . S
N2134 C2126 1.356 . S
N2134 H2140 0.984 . S
N2134 H2141 0.984 . S
N2135 C2128 1.356 . S
N2135 H2138 0.984 . S
N2135 H2139 0.985 . S
H2136 N2131 0.984 . S
H2137 N2131 0.985 . S
H2138 N2135 0.984 . S
H2139 N2135 0.985 . S
H2140 N2134 0.984 . S
H2141 N2134 0.984 . S
H2142 N2130 0.984 1_455 S
H2143 N2130 0.985 1_455 S
C2144 C2145 1.363 . S
C2144 C2150 1.379 . S
C2144 N2152 1.356 . S
C2145 C2144 1.363 . S
C2145 C2151 1.363 . S
C2146 C2147 1.363 . S
C2146 C2151 1.379 . S
C2146 N2153 1.356 . S
C2147 C2146 1.363 . S
C2147 C2150 1.363 . S
N2148 C2150 1.356 . S
N2148 H2160 0.984 . S
N2148 H2161 0.985 . S
N2149 C2151 1.356 . S
N2149 H2154 0.984 . S
N2149 H2155 0.985 . S
C2150 C2144 1.379 . S
C2150 C2147 1.363 . S
C2150 N2148 1.356 . S
C2151 C2145 1.363 . S
C2151 C2146 1.379 . S
C2151 N2149 1.356 . S
N2152 C2144 1.356 . S
N2152 H2158 0.984 . S
N2152 H2159 0.984 . S
N2153 C2146 1.356 . S
N2153 H2156 0.984 . S
N2153 H2157 0.985 . S
H2154 N2149 0.984 . S
H2155 N2149 0.985 . S
H2156 N2153 0.984 . S
H2157 N2153 0.985 . S
H2158 N2152 0.984 . S
H2159 N2152 0.984 . S
H2160 N2148 0.984 . S
H2161 N2148 0.985 . S
C2162 C2163 1.363 . S
C2162 C2168 1.379 . S
C2162 N2170 1.356 . S
C2163 C2162 1.363 . S
C2163 C2169 1.363 . S
C2164 C2165 1.363 . S
C2164 C2169 1.379 . S
C2164 N2171 1.356 . S
C2165 C2164 1.363 . S
C2165 C2168 1.363 . S
N2166 C2168 1.356 . S
N2166 H2178 0.984 . S
N2166 H2179 0.985 . S
N2167 C2169 1.356 . S
N2167 H2172 0.984 . S
N2167 H2173 0.985 . S
C2168 C2162 1.379 . S
C2168 C2165 1.363 . S
C2168 N2166 1.356 . S
C2169 C2163 1.363 . S
C2169 C2164 1.379 . S
C2169 N2167 1.356 . S
N2170 C2162 1.356 . S
N2170 H2176 0.984 . S
N2170 H2177 0.984 . S
N2171 C2164 1.356 . S
N2171 H2174 0.984 . S
N2171 H2175 0.985 . S
H2172 N2167 0.984 . S
H2173 N2167 0.985 . S
H2174 N2171 0.984 . S
H2175 N2171 0.985 . S
H2176 N2170 0.984 . S
H2177 N2170 0.984 . S
H2178 N2166 0.984 . S
H2179 N2166 0.985 . S
C2180 C2181 1.363 . S
C2180 C2186 1.379 . S
C2180 N2188 1.356 . S
C2181 C2180 1.363 . S
C2181 C2187 1.363 . S
C2182 C2183 1.363 . S
C2182 C2187 1.379 . S
C2182 N2189 1.356 . S
C2183 C2182 1.363 . S
C2183 C2186 1.363 . S
N2184 C2186 1.356 . S
N2184 H2196 0.984 . S
N2184 H2197 0.985 . S
N2185 C2187 1.356 . S
N2185 H2190 0.984 . S
N2185 H2191 0.985 . S
C2186 C2180 1.379 . S
C2186 C2183 1.363 . S
C2186 N2184 1.356 . S
C2187 C2181 1.363 . S
C2187 C2182 1.379 . S
C2187 N2185 1.356 . S
N2188 C2180 1.356 . S
N2188 H2194 0.984 . S
N2188 H2195 0.984 . S
N2189 C2182 1.356 . S
N2189 H2192 0.984 . S
N2189 H2193 0.985 . S
H2190 N2185 0.984 . S
H2191 N2185 0.985 . S
H2192 N2189 0.984 . S
H2193 N2189 0.985 . S
H2194 N2188 0.984 . S
H2195 N2188 0.984 . S
H2196 N2184 0.984 . S
H2197 N2184 0.985 . S
C2198 C2199 1.363 . S
C2198 C2204 1.379 . S
C2198 N2206 1.356 . S
C2199 C2198 1.363 . S
C2199 C2205 1.363 . S
C2200 C2201 1.363 . S
C2200 C2205 1.379 . S
C2200 N2207 1.356 . S
C2201 C2200 1.363 . S
C2201 C2204 1.363 . S
N2202 C2204 1.356 . S
N2202 H2214 0.984 . S
N2202 H2215 0.985 . S
N2203 C2205 1.356 . S
N2203 H2208 0.984 . S
N2203 H2209 0.985 . S
C2204 C2198 1.379 . S
C2204 C2201 1.363 . S
C2204 N2202 1.356 . S
C2205 C2199 1.363 . S
C2205 C2200 1.379 . S
C2205 N2203 1.356 . S
N2206 C2198 1.356 . S
N2206 H2212 0.984 . S
N2206 H2213 0.984 . S
N2207 C2200 1.356 . S
N2207 H2210 0.984 . S
N2207 H2211 0.985 . S
H2208 N2203 0.984 . S
H2209 N2203 0.985 . S
H2210 N2207 0.984 . S
H2211 N2207 0.985 . S
H2212 N2206 0.984 . S
H2213 N2206 0.984 . S
H2214 N2202 0.984 . S
H2215 N2202 0.985 . S
C2216 C2217 1.363 . S
C2216 C2222 1.379 . S
C2216 N2224 1.356 . S
C2217 C2216 1.363 . S
C2217 C2223 1.363 . S
C2218 C2219 1.363 . S
C2218 C2223 1.379 . S
C2218 N2225 1.356 . S
C2219 C2218 1.363 . S
C2219 C2222 1.363 . S
N2220 C2222 1.356 . S
N2220 H2232 0.984 . S
N2220 H2233 0.985 . S
N2221 C2223 1.356 . S
N2221 H2226 0.984 . S
N2221 H2227 0.985 . S
C2222 C2216 1.379 . S
C2222 C2219 1.363 . S
C2222 N2220 1.356 . S
C2223 C2217 1.363 . S
C2223 C2218 1.379 . S
C2223 N2221 1.356 . S
N2224 C2216 1.356 . S
N2224 H2230 0.984 . S
N2224 H2231 0.984 . S
N2225 C2218 1.356 . S
N2225 H2228 0.984 . S
N2225 H2229 0.985 . S
H2226 N2221 0.984 . S
H2227 N2221 0.985 . S
H2228 N2225 0.984 . S
H2229 N2225 0.985 . S
H2230 N2224 0.984 . S
H2231 N2224 0.984 . S
H2232 N2220 0.984 . S
H2233 N2220 0.985 . S
C2234 C2235 1.363 . S
C2234 C2240 1.379 . S
C2234 N2242 1.356 . S
C2235 C2234 1.363 . S
C2235 C2241 1.363 . S
C2236 C2237 1.363 . S
C2236 C2241 1.379 . S
C2236 N2243 1.356 . S
C2237 C2236 1.363 . S
C2237 C2240 1.363 . S
N2238 C2240 1.356 . S
N2238 H2250 0.984 . S
N2238 H2251 0.985 . S
N2239 C2241 1.356 . S
N2239 H2244 0.984 . S
N2239 H2245 0.985 . S
C2240 C2234 1.379 . S
C2240 C2237 1.363 . S
C2240 N2238 1.356 . S
C2241 C2235 1.363 . S
C2241 C2236 1.379 . S
C2241 N2239 1.356 . S
N2242 C2234 1.356 . S
N2242 H2248 0.984 . S
N2242 H2249 0.984 . S
N2243 C2236 1.356 . S
N2243 H2246 0.984 1_655 S
N2243 H2247 0.985 1_655 S
H2244 N2239 0.984 . S
H2245 N2239 0.985 . S
H2246 N2243 0.984 1_455 S
H2247 N2243 0.985 1_455 S
H2248 N2242 0.984 . S
H2249 N2242 0.984 . S
H2250 N2238 0.984 . S
H2251 N2238 0.985 . S
C2252 C2253 1.363 . S
C2252 C2258 1.379 . S
C2252 N2260 1.356 . S
C2253 C2252 1.363 . S
C2253 C2259 1.363 . S
C2254 C2255 1.363 . S
C2254 C2259 1.379 . S
C2254 N2261 1.356 . S
C2255 C2254 1.363 . S
C2255 C2258 1.363 . S
N2256 C2258 1.356 . S
N2256 H2268 0.984 . S
N2256 H2269 0.985 . S
N2257 C2259 1.356 . S
N2257 H2262 0.984 . S
N2257 H2263 0.985 . S
C2258 C2252 1.379 . S
C2258 C2255 1.363 . S
C2258 N2256 1.356 . S
C2259 C2253 1.363 . S
C2259 C2254 1.379 . S
C2259 N2257 1.356 . S
N2260 C2252 1.356 . S
N2260 H2266 0.984 . S
N2260 H2267 0.984 . S
N2261 C2254 1.356 . S
N2261 H2264 0.984 . S
N2261 H2265 0.985 . S
H2262 N2257 0.984 . S
H2263 N2257 0.985 . S
H2264 N2261 0.984 . S
H2265 N2261 0.985 . S
H2266 N2260 0.984 . S
H2267 N2260 0.984 . S
H2268 N2256 0.984 . S
H2269 N2256 0.985 . S
C2270 C2271 1.363 . S
C2270 C2276 1.379 . S
C2270 N2278 1.356 . S
C2271 C2270 1.363 . S
C2271 C2277 1.363 . S
C2272 C2273 1.363 . S
C2272 C2277 1.379 . S
C2272 N2279 1.356 . S
C2273 C2272 1.363 . S
C2273 C2276 1.363 . S
N2274 C2276 1.356 . S
N2274 H2286 0.984 . S
N2274 H2287 0.985 . S
N2275 C2277 1.356 . S
N2275 H2280 0.984 . S
N2275 H2281 0.985 . S
C2276 C2270 1.379 . S
C2276 C2273 1.363 . S
C2276 N2274 1.356 . S
C2277 C2271 1.363 . S
C2277 C2272 1.379 . S
C2277 N2275 1.356 . S
N2278 C2270 1.356 . S
N2278 H2284 0.984 . S
N2278 H2285 0.984 . S
N2279 C2272 1.356 . S
N2279 H2282 0.984 . S
N2279 H2283 0.985 . S
H2280 N2275 0.984 . S
H2281 N2275 0.985 . S
H2282 N2279 0.984 . S
H2283 N2279 0.985 . S
H2284 N2278 0.984 . S
H2285 N2278 0.984 . S
H2286 N2274 0.984 . S
H2287 N2274 0.985 . S
C2288 C2289 1.363 . S
C2288 C2294 1.379 . S
C2288 N2296 1.356 . S
C2289 C2288 1.363 . S
C2289 C2295 1.363 . S
C2290 C2291 1.363 . S
C2290 C2295 1.379 . S
C2290 N2297 1.356 . S
C2291 C2290 1.363 . S
C2291 C2294 1.363 . S
N2292 C2294 1.356 . S
N2292 H2304 0.984 . S
N2292 H2305 0.985 . S
N2293 C2295 1.356 . S
N2293 H2298 0.984 . S
N2293 H2299 0.985 . S
C2294 C2288 1.379 . S
C2294 C2291 1.363 . S
C2294 N2292 1.356 . S
C2295 C2289 1.363 . S
C2295 C2290 1.379 . S
C2295 N2293 1.356 . S
N2296 C2288 1.356 . S
N2296 H2302 0.984 . S
N2296 H2303 0.984 . S
N2297 C2290 1.356 . S
N2297 H2300 0.984 . S
N2297 H2301 0.985 . S
H2298 N2293 0.984 . S
H2299 N2293 0.985 . S
H2300 N2297 0.984 . S
H2301 N2297 0.985 . S
H2302 N2296 0.984 . S
H2303 N2296 0.984 . S
H2304 N2292 0.984 . S
H2305 N2292 0.985 . S
C2306 C2307 1.363 . S
C2306 C2312 1.379 . S
C2306 N2314 1.356 . S
C2307 C2306 1.363 . S
C2307 C2313 1.363 . S
C2308 C2309 1.363 . S
C2308 C2313 1.379 . S
C2308 N2315 1.356 . S
C2309 C2308 1.363 . S
C2309 C2312 1.363 . S
N2310 C2312 1.356 . S
N2310 H2322 0.999 . S
N2310 H2323 0.985 . S
N2311 C2313 1.356 . S
N2311 H2316 0.984 . S
N2311 H2317 0.985 . S
C2312 C2306 1.379 . S
C2312 C2309 1.363 . S
C2312 N2310 1.356 . S
C2313 C2307 1.363 . S
C2313 C2308 1.379 . S
C2313 N2311 1.356 . S
N2314 C2306 1.356 . S
N2314 H2320 0.984 . S
N2314 H2321 0.984 . S
N2315 C2308 1.356 . S
N2315 H2318 0.984 . S
N2315 H2319 0.985 . S
H2316 N2311 0.984 . S
H2317 N2311 0.985 . S
H2318 N2315 0.984 . S
H2319 N2315 0.985 . S
H2320 N2314 0.984 . S
H2321 N2314 0.984 . S
H2322 N2310 0.999 . S
H2323 N2310 0.985 . S
C2324 C2325 1.363 . S
C2324 C2330 1.379 . S
C2324 N2332 1.356 . S
C2325 C2324 1.363 . S
C2325 C2331 1.363 . S
C2326 C2327 1.363 . S
C2326 C2331 1.379 . S
C2326 N2333 1.356 . S
C2327 C2326 1.363 . S
C2327 C2330 1.363 . S
N2328 C2330 1.356 . S
N2328 H2340 0.984 . S
N2328 H2341 0.985 . S
N2329 C2331 1.356 . S
N2329 H2334 0.984 . S
N2329 H2335 0.985 . S
C2330 C2324 1.379 . S
C2330 C2327 1.363 . S
C2330 N2328 1.356 . S
C2331 C2325 1.363 . S
C2331 C2326 1.379 . S
C2331 N2329 1.356 . S
N2332 C2324 1.356 . S
N2332 H2338 0.984 . S
N2332 H2339 0.984 . S
N2333 C2326 1.356 . S
N2333 H2336 0.984 . S
N2333 H2337 0.985 . S
H2334 N2329 0.984 . S
H2335 N2329 0.985 . S
H2336 N2333 0.984 . S
H2337 N2333 0.985 . S
H2338 N2332 0.984 . S
H2339 N2332 0.984 . S
H2340 N2328 0.984 . S
H2341 N2328 0.985 . S
C2342 C2343 1.363 . S
C2342 C2348 1.379 . S
C2342 N2350 1.356 . S
C2343 C2342 1.363 . S
C2343 C2349 1.363 . S
C2344 C2345 1.363 . S
C2344 C2349 1.379 . S
C2344 N2351 1.356 . S
C2345 C2344 1.363 . S
C2345 C2348 1.363 . S
N2346 C2348 1.356 . S
N2346 H2358 0.984 . S
N2346 H2359 0.985 . S
N2347 C2349 1.356 . S
N2347 H2352 0.961 1_455 S
N2347 H2353 0.985 . S
C2348 C2342 1.379 . S
C2348 C2345 1.363 . S
C2348 N2346 1.356 . S
C2349 C2343 1.363 . S
C2349 C2344 1.379 . S
C2349 N2347 1.356 . S
N2350 C2342 1.356 . S
N2350 H2356 0.984 . S
N2350 H2357 0.984 . S
N2351 C2344 1.356 . S
N2351 H2354 0.984 . S
N2351 H2355 0.985 . S
H2352 N2347 0.961 1_655 S
H2353 N2347 0.985 . S
H2354 N2351 0.984 . S
H2355 N2351 0.985 . S
H2356 N2350 0.984 . S
H2357 N2350 0.984 . S
H2358 N2346 0.984 . S
H2359 N2346 0.985 . S
C2360 C2361 1.363 . S
C2360 C2366 1.379 . S
C2360 N2368 1.356 . S
C2361 C2360 1.363 . S
C2361 C2367 1.363 . S
C2362 C2363 1.363 . S
C2362 C2367 1.379 . S
C2362 N2369 1.356 . S
C2363 C2362 1.363 . S
C2363 C2366 1.363 . S
N2364 C2366 1.356 . S
N2364 H2376 0.984 . S
N2364 H2377 0.985 . S
N2365 C2367 1.356 . S
N2365 H2370 0.984 . S
N2365 H2371 0.985 . S
C2366 C2360 1.379 . S
C2366 C2363 1.363 . S
C2366 N2364 1.356 . S
C2367 C2361 1.363 . S
C2367 C2362 1.379 . S
C2367 N2365 1.356 . S
N2368 C2360 1.356 . S
N2368 H2374 0.984 . S
N2368 H2375 0.984 . S
N2369 C2362 1.356 . S
N2369 H2372 0.984 . S
N2369 H2373 0.985 . S
H2370 N2365 0.984 . S
H2371 N2365 0.985 . S
H2372 N2369 0.984 . S
H2373 N2369 0.985 . S
H2374 N2368 0.984 . S
H2375 N2368 0.984 . S
H2376 N2364 0.984 . S
H2377 N2364 0.985 . S
C2378 C2379 1.363 . S
C2378 C2384 1.379 . S
C2378 N2386 1.356 . S
C2379 C2378 1.363 . S
C2379 C2385 1.363 . S
C2380 C2381 1.363 . S
C2380 C2385 1.379 . S
C2380 N2387 1.356 . S
C2381 C2380 1.363 . S
C2381 C2384 1.363 . S
N2382 C2384 1.356 . S
N2382 H2394 0.984 . S
N2382 H2395 1.006 . S
N2383 C2385 1.356 . S
N2383 H2388 0.984 . S
N2383 H2389 0.985 . S
C2384 C2378 1.379 . S
C2384 C2381 1.363 . S
C2384 N2382 1.356 . S
C2385 C2379 1.363 . S
C2385 C2380 1.379 . S
C2385 N2383 1.356 . S
N2386 C2378 1.356 . S
N2386 H2392 0.984 . S
N2386 H2393 0.984 . S
N2387 C2380 1.356 . S
N2387 H2390 0.984 . S
N2387 H2391 0.985 . S
H2388 N2383 0.984 . S
H2389 N2383 0.985 . S
H2390 N2387 0.984 . S
H2391 N2387 0.985 . S
H2392 N2386 0.984 . S
H2393 N2386 0.984 . S
H2394 N2382 0.984 . S
H2395 N2382 1.006 . S
C2396 C2397 1.363 . S
C2396 C2402 1.379 . S
C2396 N2404 1.356 . S
C2397 C2396 1.363 . S
C2397 C2403 1.363 . S
C2398 C2399 1.363 . S
C2398 C2403 1.379 . S
C2398 N2405 1.356 . S
C2399 C2398 1.363 . S
C2399 C2402 1.363 . S
N2400 C2402 1.356 . S
N2400 H2412 0.984 . S
N2400 H2413 0.985 . S
N2401 C2403 1.356 . S
N2401 H2406 0.984 . S
N2401 H2407 0.985 . S
C2402 C2396 1.379 . S
C2402 C2399 1.363 . S
C2402 N2400 1.356 . S
C2403 C2397 1.363 . S
C2403 C2398 1.379 . S
C2403 N2401 1.356 . S
N2404 C2396 1.356 . S
N2404 H2410 0.984 . S
N2404 H2411 0.984 . S
N2405 C2398 1.356 . S
N2405 H2408 0.984 . S
N2405 H2409 0.985 . S
H2406 N2401 0.984 . S
H2407 N2401 0.985 . S
H2408 N2405 0.984 . S
H2409 N2405 0.985 . S
H2410 N2404 0.984 . S
H2411 N2404 0.984 . S
H2412 N2400 0.984 . S
H2413 N2400 0.985 . S
C2414 C2415 1.363 . S
C2414 C2420 1.379 . S
C2414 N2422 1.356 . S
C2415 C2414 1.363 . S
C2415 C2421 1.363 . S
C2416 C2417 1.363 . S
C2416 C2421 1.379 . S
C2416 N2423 1.356 . S
C2417 C2416 1.363 . S
C2417 C2420 1.363 . S
N2418 C2420 1.356 . S
N2418 H2430 0.984 . S
N2418 H2431 0.985 . S
N2419 C2421 1.356 . S
N2419 H2424 0.984 . S
N2419 H2425 0.985 . S
C2420 C2414 1.379 . S
C2420 C2417 1.363 . S
C2420 N2418 1.356 . S
C2421 C2415 1.363 . S
C2421 C2416 1.379 . S
C2421 N2419 1.356 . S
N2422 C2414 1.356 . S
N2422 H2428 0.984 . S
N2422 H2429 0.984 . S
N2423 C2416 1.356 . S
N2423 H2426 0.984 . S
N2423 H2427 0.985 . S
H2424 N2419 0.984 . S
H2425 N2419 0.985 . S
H2426 N2423 0.984 . S
H2427 N2423 0.985 . S
H2428 N2422 0.984 . S
H2429 N2422 0.984 . S
H2430 N2418 0.984 . S
H2431 N2418 0.985 . S
C2432 C2433 1.363 . S
C2432 C2438 1.379 1_545 S
C2432 N2440 1.356 . S
C2433 C2432 1.363 . S
C2433 C2439 1.363 . S
C2434 C2435 1.363 . S
C2434 C2439 1.379 1_565 S
C2434 N2441 1.356 . S
C2435 C2434 1.363 . S
C2435 C2438 1.363 . S
N2436 C2438 1.356 . S
N2436 H2448 0.984 . S
N2436 H2449 0.985 . S
N2437 C2439 1.356 . S
N2437 H2442 0.984 . S
N2437 H2443 0.985 . S
C2438 C2432 1.379 1_565 S
C2438 C2435 1.363 . S
C2438 N2436 1.356 . S
C2439 C2433 1.363 . S
C2439 C2434 1.379 1_545 S
C2439 N2437 1.356 . S
N2440 C2432 1.356 . S
N2440 H2446 0.984 . S
N2440 H2447 0.984 . S
N2441 C2434 1.356 . S
N2441 H2444 0.984 . S
N2441 H2445 0.985 . S
H2442 N2437 0.984 . S
H2443 N2437 0.985 . S
H2444 N2441 0.984 . S
H2445 N2441 0.985 . S
H2446 N2440 0.984 . S
H2447 N2440 0.984 . S
H2448 N2436 0.984 . S
H2449 N2436 0.985 . S
C2450 C2451 1.363 . S
C2450 C2456 1.379 . S
C2450 N2458 1.356 . S
C2451 C2450 1.363 . S
C2451 C2457 1.363 . S
C2452 C2453 1.363 . S
C2452 C2457 1.379 . S
C2452 N2459 1.356 . S
C2453 C2452 1.363 . S
C2453 C2456 1.363 . S
N2454 C2456 1.356 . S
N2454 H2466 0.984 . S
N2454 H2467 0.985 . S
N2455 C2457 1.356 . S
N2455 H2460 0.984 . S
N2455 H2461 0.985 . S
C2456 C2450 1.379 . S
C2456 C2453 1.363 . S
C2456 N2454 1.356 . S
C2457 C2451 1.363 . S
C2457 C2452 1.379 . S
C2457 N2455 1.356 . S
N2458 C2450 1.356 . S
N2458 H2464 0.984 . S
N2458 H2465 0.984 . S
N2459 C2452 1.356 . S
N2459 H2462 0.984 . S
N2459 H2463 0.985 . S
H2460 N2455 0.984 . S
H2461 N2455 0.985 . S
H2462 N2459 0.984 . S
H2463 N2459 0.985 . S
H2464 N2458 0.984 . S
H2465 N2458 0.984 . S
H2466 N2454 0.984 . S
H2467 N2454 0.985 . S
C2468 C2469 1.363 . S
C2468 C2474 1.379 1_565 S
C2468 N2476 1.356 . S
C2469 C2468 1.363 . S
C2469 C2475 1.363 . S
C2470 C2471 1.363 . S
C2470 C2475 1.379 1_545 S
C2470 N2477 1.356 . S
C2471 C2470 1.363 . S
C2471 C2474 1.363 . S
N2472 C2474 1.356 . S
N2472 H2484 0.984 . S
N2472 H2485 0.985 . S
N2473 C2475 1.356 . S
N2473 H2478 0.984 . S
N2473 H2479 0.985 . S
C2474 C2468 1.379 1_545 S
C2474 C2471 1.363 . S
C2474 N2472 1.356 . S
C2475 C2469 1.363 . S
C2475 C2470 1.379 1_565 S
C2475 N2473 1.356 . S
N2476 C2468 1.356 . S
N2476 H2482 0.984 . S
N2476 H2483 0.984 . S
N2477 C2470 1.356 . S
N2477 H2480 0.984 . S
N2477 H2481 0.985 . S
H2478 N2473 0.984 . S
H2479 N2473 0.985 . S
H2480 N2477 0.984 . S
H2481 N2477 0.985 . S
H2482 N2476 0.984 . S
H2483 N2476 0.984 . S
H2484 N2472 0.984 . S
H2485 N2472 0.985 . S
C2486 C2487 1.363 1_556 S
C2486 C2492 1.379 . S
C2486 N2494 1.356 . S
C2487 C2486 1.363 1_554 S
C2487 C2493 1.363 . S
C2488 C2489 1.363 1_554 S
C2488 C2493 1.379 . S
C2488 N2495 1.356 . S
C2489 C2488 1.363 1_556 S
C2489 C2492 1.363 . S
N2490 C2492 1.356 . S
N2490 H2502 0.984 . S
N2490 H2503 0.985 . S
N2491 C2493 1.356 . S
N2491 H2496 0.984 . S
N2491 H2497 0.985 . S
C2492 C2486 1.379 . S
C2492 C2489 1.363 . S
C2492 N2490 1.356 . S
C2493 C2487 1.363 . S
C2493 C2488 1.379 . S
C2493 N2491 1.356 . S
N2494 C2486 1.356 . S
N2494 H2500 0.984 . S
N2494 H2501 0.984 . S
N2495 C2488 1.356 . S
N2495 H2498 0.984 . S
N2495 H2499 0.985 . S
H2496 N2491 0.984 . S
H2497 N2491 0.985 . S
H2498 N2495 0.984 . S
H2499 N2495 0.985 . S
H2500 N2494 0.984 . S
H2501 N2494 0.984 . S
H2502 N2490 0.984 . S
H2503 N2490 0.985 . S
C2504 C2505 1.363 . S
C2504 C2510 1.379 1_545 S
C2504 N2512 1.356 . S
C2505 C2504 1.363 . S
C2505 C2511 1.363 . S
C2506 C2507 1.363 . S
C2506 C2511 1.379 1_565 S
C2506 N2513 1.356 . S
C2507 C2506 1.363 . S
C2507 C2510 1.363 . S
N2508 C2510 1.356 . S
N2508 H2520 0.984 . S
N2508 H2521 0.985 . S
N2509 C2511 1.356 . S
N2509 H2514 0.984 . S
N2509 H2515 0.985 . S
C2510 C2504 1.379 1_565 S
C2510 C2507 1.363 . S
C2510 N2508 1.356 . S
C2511 C2505 1.363 . S
C2511 C2506 1.379 1_545 S
C2511 N2509 1.356 . S
N2512 C2504 1.356 . S
N2512 H2518 0.984 . S
N2512 H2519 0.984 . S
N2513 C2506 1.356 . S
N2513 H2516 0.984 . S
N2513 H2517 0.985 . S
H2514 N2509 0.984 . S
H2515 N2509 0.985 . S
H2516 N2513 0.984 . S
H2517 N2513 0.985 . S
H2518 N2512 0.984 . S
H2519 N2512 0.984 . S
H2520 N2508 0.984 . S
H2521 N2508 0.985 . S
C2522 C2523 1.363 . S
C2522 C2528 1.379 . S
C2522 N2530 1.356 . S
C2523 C2522 1.363 . S
C2523 C2529 1.363 . S
C2524 C2525 1.363 . S
C2524 C2529 1.379 . S
C2524 N2531 1.356 . S
C2525 C2524 1.363 . S
C2525 C2528 1.363 . S
N2526 C2528 1.356 . S
N2526 H2538 0.984 . S
N2526 H2539 0.985 . S
N2527 C2529 1.356 . S
N2527 H2532 0.984 . S
N2527 H2533 0.985 . S
C2528 C2522 1.379 . S
C2528 C2525 1.363 . S
C2528 N2526 1.356 . S
C2529 C2523 1.363 . S
C2529 C2524 1.379 . S
C2529 N2527 1.356 . S
N2530 C2522 1.356 . S
N2530 H2536 0.984 . S
N2530 H2537 0.984 . S
N2531 C2524 1.356 . S
N2531 H2534 0.984 . S
N2531 H2535 0.985 . S
H2532 N2527 0.984 . S
H2533 N2527 0.985 . S
H2534 N2531 0.984 . S
H2535 N2531 0.985 . S
H2536 N2530 0.984 . S
H2537 N2530 0.984 . S
H2538 N2526 0.984 . S
H2539 N2526 0.985 . S
C2540 C2541 1.363 . S
C2540 C2546 1.379 1_545 S
C2540 N2548 1.356 . S
C2541 C2540 1.363 . S
C2541 C2547 1.363 . S
C2542 C2543 1.363 . S
C2542 C2547 1.379 1_565 S
C2542 N2549 1.356 . S
C2543 C2542 1.363 . S
C2543 C2546 1.363 . S
N2544 C2546 1.356 . S
N2544 H2556 0.984 . S
N2544 H2557 0.985 . S
N2545 C2547 1.356 . S
N2545 H2550 0.984 . S
N2545 H2551 0.985 . S
C2546 C2540 1.379 1_565 S
C2546 C2543 1.363 . S
C2546 N2544 1.356 . S
C2547 C2541 1.363 . S
C2547 C2542 1.379 1_545 S
C2547 N2545 1.356 . S
N2548 C2540 1.356 . S
N2548 H2554 0.984 . S
N2548 H2555 0.984 . S
N2549 C2542 1.356 . S
N2549 H2552 0.984 . S
N2549 H2553 0.985 . S
H2550 N2545 0.984 . S
H2551 N2545 0.985 . S
H2552 N2549 0.984 . S
H2553 N2549 0.985 . S
H2554 N2548 0.984 . S
H2555 N2548 0.984 . S
H2556 N2544 0.984 . S
H2557 N2544 0.985 . S
C2558 C2559 1.363 1_556 S
C2558 C2564 1.379 . S
C2558 N2566 1.356 . S
C2559 C2558 1.363 1_554 S
C2559 C2565 1.363 . S
C2560 C2561 1.363 1_554 S
C2560 C2565 1.379 . S
C2560 N2567 1.356 . S
C2561 C2560 1.363 1_556 S
C2561 C2564 1.363 . S
N2562 C2564 1.356 . S
N2562 H2574 0.984 . S
N2562 H2575 0.985 . S
N2563 C2565 1.356 . S
N2563 H2568 0.984 . S
N2563 H2569 0.985 . S
C2564 C2558 1.379 . S
C2564 C2561 1.363 . S
C2564 N2562 1.356 . S
C2565 C2559 1.363 . S
C2565 C2560 1.379 . S
C2565 N2563 1.356 . S
N2566 C2558 1.356 . S
N2566 H2572 0.984 . S
N2566 H2573 0.984 . S
N2567 C2560 1.356 . S
N2567 H2570 0.984 . S
N2567 H2571 0.985 . S
H2568 N2563 0.984 . S
H2569 N2563 0.985 . S
H2570 N2567 0.984 . S
H2571 N2567 0.985 . S
H2572 N2566 0.984 . S
H2573 N2566 0.984 . S
H2574 N2562 0.984 . S
H2575 N2562 0.985 . S
C2576 C2577 1.363 . S
C2576 C2582 1.379 . S
C2576 N2584 1.356 . S
C2577 C2576 1.363 . S
C2577 C2583 1.363 . S
C2578 C2579 1.363 . S
C2578 C2583 1.379 . S
C2578 N2585 1.356 . S
C2579 C2578 1.363 . S
C2579 C2582 1.363 . S
N2580 C2582 1.356 . S
N2580 H2592 0.984 . S
N2580 H2593 0.985 . S
N2581 C2583 1.356 . S
N2581 H2586 0.984 . S
N2581 H2587 0.985 . S
C2582 C2576 1.379 . S
C2582 C2579 1.363 . S
C2582 N2580 1.356 . S
C2583 C2577 1.363 . S
C2583 C2578 1.379 . S
C2583 N2581 1.356 . S
N2584 C2576 1.356 . S
N2584 H2590 0.984 . S
N2584 H2591 0.984 . S
N2585 C2578 1.356 . S
N2585 H2588 0.984 . S
N2585 H2589 0.985 . S
H2586 N2581 0.984 . S
H2587 N2581 0.985 . S
H2588 N2585 0.984 . S
H2589 N2585 0.985 . S
H2590 N2584 0.984 . S
H2591 N2584 0.984 . S
H2592 N2580 0.984 . S
H2593 N2580 0.985 . S
C2594 C2595 1.363 . S
C2594 C2600 1.379 . S
C2594 N2602 1.356 . S
C2595 C2594 1.363 . S
C2595 C2601 1.363 1_554 S
C2596 C2597 1.363 . S
C2596 C2601 1.379 . S
C2596 N2603 1.356 . S
C2597 C2596 1.363 . S
C2597 C2600 1.363 1_556 S
N2598 C2600 1.356 . S
N2598 H2610 0.984 . S
N2598 H2611 0.985 . S
N2599 C2601 1.356 . S
N2599 H2604 0.984 . S
N2599 H2605 0.985 . S
C2600 C2594 1.379 . S
C2600 C2597 1.363 1_554 S
C2600 N2598 1.356 . S
C2601 C2595 1.363 1_556 S
C2601 C2596 1.379 . S
C2601 N2599 1.356 . S
N2602 C2594 1.356 . S
N2602 H2608 0.984 . S
N2602 H2609 0.984 . S
N2603 C2596 1.356 . S
N2603 H2606 0.984 . S
N2603 H2607 0.985 . S
H2604 N2599 0.984 . S
H2605 N2599 0.985 . S
H2606 N2603 0.984 . S
H2607 N2603 0.985 . S
H2608 N2602 0.984 . S
H2609 N2602 0.984 . S
H2610 N2598 0.984 . S
H2611 N2598 0.985 . S
C2612 C2613 1.363 . S
C2612 C2618 1.379 . S
C2612 N2620 1.356 . S
C2613 C2612 1.363 . S
C2613 C2619 1.363 . S
C2614 C2615 1.363 . S
C2614 C2619 1.379 . S
C2614 N2621 1.356 . S
C2615 C2614 1.363 . S
C2615 C2618 1.363 . S
N2616 C2618 1.356 . S
N2616 H2628 0.984 . S
N2616 H2629 0.985 . S
N2617 C2619 1.356 . S
N2617 H2622 0.984 . S
N2617 H2623 0.985 . S
C2618 C2612 1.379 . S
C2618 C2615 1.363 . S
C2618 N2616 1.356 . S
C2619 C2613 1.363 . S
C2619 C2614 1.379 . S
C2619 N2617 1.356 . S
N2620 C2612 1.356 . S
N2620 H2626 0.984 . S
N2620 H2627 0.984 . S
N2621 C2614 1.356 . S
N2621 H2624 0.984 . S
N2621 H2625 0.985 . S
H2622 N2617 0.984 . S
H2623 N2617 0.985 . S
H2624 N2621 0.984 . S
H2625 N2621 0.985 . S
H2626 N2620 0.984 . S
H2627 N2620 0.984 . S
H2628 N2616 0.984 . S
H2629 N2616 0.985 . S
C2630 C2631 1.363 . S
C2630 C2636 1.379 . S
C2630 N2638 1.356 . S
C2631 C2630 1.363 . S
C2631 C2637 1.363 . S
C2632 C2633 1.363 . S
C2632 C2637 1.379 . S
C2632 N2639 1.356 . S
C2633 C2632 1.363 . S
C2633 C2636 1.363 . S
N2634 C2636 1.356 . S
N2634 H2646 0.984 . S
N2634 H2647 0.985 . S
N2635 C2637 1.356 . S
N2635 H2640 0.984 . S
N2635 H2641 0.985 . S
C2636 C2630 1.379 . S
C2636 C2633 1.363 . S
C2636 N2634 1.356 . S
C2637 C2631 1.363 . S
C2637 C2632 1.379 . S
C2637 N2635 1.356 . S
N2638 C2630 1.356 . S
N2638 H2644 0.984 . S
N2638 H2645 0.984 . S
N2639 C2632 1.356 . S
N2639 H2642 0.984 . S
N2639 H2643 0.985 . S
H2640 N2635 0.984 . S
H2641 N2635 0.985 . S
H2642 N2639 0.984 . S
H2643 N2639 0.985 . S
H2644 N2638 0.984 . S
H2645 N2638 0.984 . S
H2646 N2634 0.984 . S
H2647 N2634 0.985 . S
C2648 C2649 1.363 . S
C2648 C2654 1.379 . S
C2648 N2656 1.356 . S
C2649 C2648 1.363 . S
C2649 C2655 1.363 . S
C2650 C2651 1.363 . S
C2650 C2655 1.379 . S
C2650 N2657 1.356 . S
C2651 C2650 1.363 . S
C2651 C2654 1.363 . S
N2652 C2654 1.356 . S
N2652 H2664 0.984 . S
N2652 H2665 0.985 . S
N2653 C2655 1.356 . S
N2653 H2658 0.984 . S
N2653 H2659 0.985 . S
C2654 C2648 1.379 . S
C2654 C2651 1.363 . S
C2654 N2652 1.356 . S
C2655 C2649 1.363 . S
C2655 C2650 1.379 . S
C2655 N2653 1.356 . S
N2656 C2648 1.356 . S
N2656 H2662 0.984 . S
N2656 H2663 0.984 . S
N2657 C2650 1.356 . S
N2657 H2660 0.984 . S
N2657 H2661 0.985 . S
H2658 N2653 0.984 . S
H2659 N2653 0.985 . S
H2660 N2657 0.984 . S
H2661 N2657 0.985 . S
H2662 N2656 0.984 . S
H2663 N2656 0.984 . S
H2664 N2652 0.984 . S
H2665 N2652 0.985 . S
C2666 C2667 1.363 . S
C2666 C2672 1.379 . S
C2666 N2674 1.356 . S
C2667 C2666 1.363 . S
C2667 C2673 1.363 1_554 S
C2668 C2669 1.363 . S
C2668 C2673 1.379 . S
C2668 N2675 1.356 . S
C2669 C2668 1.363 . S
C2669 C2672 1.363 1_556 S
N2670 C2672 1.356 . S
N2670 H2682 0.984 . S
N2670 H2683 0.985 . S
N2671 C2673 1.356 . S
N2671 H2676 0.984 . S
N2671 H2677 0.985 . S
C2672 C2666 1.379 . S
C2672 C2669 1.363 1_554 S
C2672 N2670 1.356 . S
C2673 C2667 1.363 1_556 S
C2673 C2668 1.379 . S
C2673 N2671 1.356 . S
N2674 C2666 1.356 . S
N2674 H2680 0.984 . S
N2674 H2681 0.984 . S
N2675 C2668 1.356 . S
N2675 H2678 0.984 . S
N2675 H2679 0.985 . S
H2676 N2671 0.984 . S
H2677 N2671 0.985 . S
H2678 N2675 0.984 . S
H2679 N2675 0.985 . S
H2680 N2674 0.984 . S
H2681 N2674 0.984 . S
H2682 N2670 0.984 . S
H2683 N2670 0.985 . S
C2684 C2685 1.363 . S
C2684 C2690 1.379 . S
C2684 N2692 1.356 . S
C2685 C2684 1.363 . S
C2685 C2691 1.363 . S
C2686 C2687 1.363 . S
C2686 C2691 1.379 . S
C2686 N2693 1.356 . S
C2687 C2686 1.363 . S
C2687 C2690 1.363 . S
N2688 C2690 1.356 . S
N2688 H2700 0.984 . S
N2688 H2701 0.985 . S
N2689 C2691 1.356 . S
N2689 H2694 0.984 . S
N2689 H2695 0.985 . S
C2690 C2684 1.379 . S
C2690 C2687 1.363 . S
C2690 N2688 1.356 . S
C2691 C2685 1.363 . S
C2691 C2686 1.379 . S
C2691 N2689 1.356 . S
N2692 C2684 1.356 . S
N2692 H2698 0.984 . S
N2692 H2699 0.984 . S
N2693 C2686 1.356 . S
N2693 H2696 0.984 . S
N2693 H2697 0.985 . S
H2694 N2689 0.984 . S
H2695 N2689 0.985 . S
H2696 N2693 0.984 . S
H2697 N2693 0.985 . S
H2698 N2692 0.984 . S
H2699 N2692 0.984 . S
H2700 N2688 0.984 . S
H2701 N2688 0.985 . S
C2702 C2703 1.363 . S
C2702 C2708 1.379 . S
C2702 N2710 1.356 . S
C2703 C2702 1.363 . S
C2703 C2709 1.363 . S
C2704 C2705 1.363 . S
C2704 C2709 1.379 . S
C2704 N2711 1.356 . S
C2705 C2704 1.363 . S
C2705 C2708 1.363 . S
N2706 C2708 1.356 . S
N2706 H2718 0.984 . S
N2706 H2719 0.985 . S
N2707 C2709 1.356 . S
N2707 H2712 0.984 . S
N2707 H2713 0.985 . S
C2708 C2702 1.379 . S
C2708 C2705 1.363 . S
C2708 N2706 1.356 . S
C2709 C2703 1.363 . S
C2709 C2704 1.379 . S
C2709 N2707 1.356 . S
N2710 C2702 1.356 . S
N2710 H2716 0.984 . S
N2710 H2717 0.984 . S
N2711 C2704 1.356 . S
N2711 H2714 0.984 . S
N2711 H2715 0.985 . S
H2712 N2707 0.984 . S
H2713 N2707 0.985 . S
H2714 N2711 0.984 . S
H2715 N2711 0.985 . S
H2716 N2710 0.984 . S
H2717 N2710 0.984 . S
H2718 N2706 0.984 . S
H2719 N2706 0.985 . S
C2720 C2721 1.363 . S
C2720 C2726 1.379 . S
C2720 N2728 1.356 . S
C2721 C2720 1.363 . S
C2721 C2727 1.363 . S
C2722 C2723 1.363 . S
C2722 C2727 1.379 . S
C2722 N2729 1.356 . S
C2723 C2722 1.363 . S
C2723 C2726 1.363 . S
N2724 C2726 1.356 . S
N2724 H2736 0.984 . S
N2724 H2737 0.985 . S
N2725 C2727 1.356 . S
N2725 H2730 0.984 . S
N2725 H2731 0.985 . S
C2726 C2720 1.379 . S
C2726 C2723 1.363 . S
C2726 N2724 1.356 . S
C2727 C2721 1.363 . S
C2727 C2722 1.379 . S
C2727 N2725 1.356 . S
N2728 C2720 1.356 . S
N2728 H2734 0.984 . S
N2728 H2735 0.984 . S
N2729 C2722 1.356 . S
N2729 H2732 0.984 . S
N2729 H2733 0.985 . S
H2730 N2725 0.984 . S
H2731 N2725 0.985 . S
H2732 N2729 0.984 . S
H2733 N2729 0.985 . S
H2734 N2728 0.984 . S
H2735 N2728 0.984 . S
H2736 N2724 0.984 . S
H2737 N2724 0.985 . S
C2738 C2739 1.363 . S
C2738 C2744 1.379 . S
C2738 N2746 1.356 . S
C2739 C2738 1.363 . S
C2739 C2745 1.363 . S
C2740 C2741 1.363 . S
C2740 C2745 1.379 . S
C2740 N2747 1.356 . S
C2741 C2740 1.363 . S
C2741 C2744 1.363 . S
N2742 C2744 1.356 . S
N2742 H2754 0.984 . S
N2742 H2755 0.985 . S
N2743 C2745 1.356 . S
N2743 H2748 0.984 . S
N2743 H2749 0.985 . S
C2744 C2738 1.379 . S
C2744 C2741 1.363 . S
C2744 N2742 1.356 . S
C2745 C2739 1.363 . S
C2745 C2740 1.379 . S
C2745 N2743 1.356 . S
N2746 C2738 1.356 . S
N2746 H2752 0.984 . S
N2746 H2753 0.984 . S
N2747 C2740 1.356 . S
N2747 H2750 0.984 . S
N2747 H2751 0.985 . S
H2748 N2743 0.984 . S
H2749 N2743 0.985 . S
H2750 N2747 0.984 . S
H2751 N2747 0.985 . S
H2752 N2746 0.984 . S
H2753 N2746 0.984 . S
H2754 N2742 0.984 . S
H2755 N2742 0.985 . S
C2756 C2757 1.363 . S
C2756 C2762 1.379 . S
C2756 N2764 1.356 . S
C2757 C2756 1.363 . S
C2757 C2763 1.363 . S
C2758 C2759 1.363 . S
C2758 C2763 1.379 . S
C2758 N2765 1.356 . S
C2759 C2758 1.363 . S
C2759 C2762 1.363 . S
N2760 C2762 1.356 . S
N2760 H2772 0.984 . S
N2760 H2773 0.985 . S
N2761 C2763 1.356 . S
N2761 H2766 0.984 . S
N2761 H2767 0.985 . S
C2762 C2756 1.379 . S
C2762 C2759 1.363 . S
C2762 N2760 1.356 . S
C2763 C2757 1.363 . S
C2763 C2758 1.379 . S
C2763 N2761 1.356 . S
N2764 C2756 1.356 . S
N2764 H2770 0.984 . S
N2764 H2771 0.984 . S
N2765 C2758 1.356 . S
N2765 H2768 0.984 . S
N2765 H2769 0.985 . S
H2766 N2761 0.984 . S
H2767 N2761 0.985 . S
H2768 N2765 0.984 . S
H2769 N2765 0.985 . S
H2770 N2764 0.984 . S
H2771 N2764 0.984 . S
H2772 N2760 0.984 . S
H2773 N2760 0.985 . S
C2774 C2775 1.363 . S
C2774 C2780 1.379 . S
C2774 N2782 1.356 . S
C2775 C2774 1.363 . S
C2775 C2781 1.363 . S
C2776 C2777 1.363 . S
C2776 C2781 1.379 . S
C2776 N2783 1.356 . S
C2777 C2776 1.363 . S
C2777 C2780 1.363 . S
N2778 C2780 1.356 . S
N2778 H2790 0.984 . S
N2778 H2791 0.985 . S
N2779 C2781 1.356 . S
N2779 H2784 0.984 . S
N2779 H2785 0.985 . S
C2780 C2774 1.379 . S
C2780 C2777 1.363 . S
C2780 N2778 1.356 . S
C2781 C2775 1.363 . S
C2781 C2776 1.379 . S
C2781 N2779 1.356 . S
N2782 C2774 1.356 . S
N2782 H2788 0.984 . S
N2782 H2789 0.984 . S
N2783 C2776 1.356 . S
N2783 H2786 0.984 . S
N2783 H2787 0.985 . S
H2784 N2779 0.984 . S
H2785 N2779 0.985 . S
H2786 N2783 0.984 . S
H2787 N2783 0.985 . S
H2788 N2782 0.984 . S
H2789 N2782 0.984 . S
H2790 N2778 0.984 . S
H2791 N2778 0.985 . S
C2792 C2793 1.363 . S
C2792 C2798 1.379 . S
C2792 N2800 1.356 . S
C2793 C2792 1.363 . S
C2793 C2799 1.363 . S
C2794 C2795 1.363 . S
C2794 C2799 1.379 . S
C2794 N2801 1.356 . S
C2795 C2794 1.363 . S
C2795 C2798 1.363 . S
N2796 C2798 1.356 . S
N2796 H2808 0.984 . S
N2796 H2809 0.985 . S
N2797 C2799 1.356 . S
N2797 H2802 0.984 . S
N2797 H2803 0.985 . S
C2798 C2792 1.379 . S
C2798 C2795 1.363 . S
C2798 N2796 1.356 . S
C2799 C2793 1.363 . S
C2799 C2794 1.379 . S
C2799 N2797 1.356 . S
N2800 C2792 1.356 . S
N2800 H2806 0.984 . S
N2800 H2807 0.984 . S
N2801 C2794 1.356 . S
N2801 H2804 0.984 . S
N2801 H2805 0.985 . S
H2802 N2797 0.984 . S
H2803 N2797 0.985 . S
H2804 N2801 0.984 . S
H2805 N2801 0.985 . S
H2806 N2800 0.984 . S
H2807 N2800 0.984 . S
H2808 N2796 0.984 . S
H2809 N2796 0.985 . S
C2810 C2811 1.363 . S
C2810 C2816 1.379 . S
C2810 N2818 1.356 . S
C2811 C2810 1.363 . S
C2811 C2817 1.363 . S
C2812 C2813 1.363 . S
C2812 C2817 1.379 . S
C2812 N2819 1.356 . S
C2813 C2812 1.363 . S
C2813 C2816 1.363 . S
N2814 C2816 1.356 . S
N2814 H2826 0.984 . S
N2814 H2827 0.985 . S
N2815 C2817 1.356 . S
N2815 H2820 0.984 . S
N2815 H2821 0.985 . S
C2816 C2810 1.379 . S
C2816 C2813 1.363 . S
C2816 N2814 1.356 . S
C2817 C2811 1.363 . S
C2817 C2812 1.379 . S
C2817 N2815 1.356 . S
N2818 C2810 1.356 . S
N2818 H2824 0.984 . S
N2818 H2825 0.984 . S
N2819 C2812 1.356 . S
N2819 H2822 0.984 . S
N2819 H2823 0.985 . S
H2820 N2815 0.984 . S
H2821 N2815 0.985 . S
H2822 N2819 0.984 . S
H2823 N2819 0.985 . S
H2824 N2818 0.984 . S
H2825 N2818 0.984 . S
H2826 N2814 0.984 . S
H2827 N2814 0.985 . S
C2828 C2829 1.363 . S
C2828 C2834 1.379 . S
C2828 N2836 1.356 . S
C2829 C2828 1.363 . S
C2829 C2835 1.363 . S
C2830 C2831 1.363 . S
C2830 C2835 1.379 . S
C2830 N2837 1.356 . S
C2831 C2830 1.363 . S
C2831 C2834 1.363 . S
N2832 C2834 1.356 . S
N2832 H2844 0.984 . S
N2832 H2845 0.985 . S
N2833 C2835 1.356 . S
N2833 H2838 0.984 . S
N2833 H2839 0.985 . S
C2834 C2828 1.379 . S
C2834 C2831 1.363 . S
C2834 N2832 1.356 . S
C2835 C2829 1.363 . S
C2835 C2830 1.379 . S
C2835 N2833 1.356 . S
N2836 C2828 1.356 . S
N2836 H2842 0.984 . S
N2836 H2843 0.984 . S
N2837 C2830 1.356 . S
N2837 H2840 0.984 . S
N2837 H2841 0.985 . S
H2838 N2833 0.984 . S
H2839 N2833 0.985 . S
H2840 N2837 0.984 . S
H2841 N2837 0.985 . S
H2842 N2836 0.984 . S
H2843 N2836 0.984 . S
H2844 N2832 0.984 . S
H2845 N2832 0.985 . S
C2846 C2847 1.363 . S
C2846 C2852 1.379 . S
C2846 N2854 1.356 . S
C2847 C2846 1.363 . S
C2847 C2853 1.363 . S
C2848 C2849 1.363 . S
C2848 C2853 1.379 . S
C2848 N2855 1.356 . S
C2849 C2848 1.363 . S
C2849 C2852 1.363 . S
N2850 C2852 1.356 . S
N2850 H2862 0.984 . S
N2850 H2863 0.985 . S
N2851 C2853 1.356 . S
N2851 H2856 0.984 . S
N2851 H2857 0.985 . S
C2852 C2846 1.379 . S
C2852 C2849 1.363 . S
C2852 N2850 1.356 . S
C2853 C2847 1.363 . S
C2853 C2848 1.379 . S
C2853 N2851 1.356 . S
N2854 C2846 1.356 . S
N2854 H2860 0.984 . S
N2854 H2861 0.984 . S
N2855 C2848 1.356 . S
N2855 H2858 0.984 . S
N2855 H2859 0.985 . S
H2856 N2851 0.984 . S
H2857 N2851 0.985 . S
H2858 N2855 0.984 . S
H2859 N2855 0.985 . S
H2860 N2854 0.984 . S
H2861 N2854 0.984 . S
H2862 N2850 0.984 . S
H2863 N2850 0.985 . S
C2864 C2865 1.363 . S
C2864 C2870 1.379 . S
C2864 N2872 1.356 . S
C2865 C2864 1.363 . S
C2865 C2871 1.363 . S
C2866 C2867 1.363 . S
C2866 C2871 1.379 . S
C2866 N2873 1.356 . S
C2867 C2866 1.363 . S
C2867 C2870 1.363 . S
N2868 C2870 1.356 . S
N2868 H2880 0.984 . S
N2868 H2881 0.985 . S
N2869 C2871 1.356 . S
N2869 H2874 0.984 . S
N2869 H2875 0.985 . S
C2870 C2864 1.379 . S
C2870 C2867 1.363 . S
C2870 N2868 1.356 . S
C2871 C2865 1.363 . S
C2871 C2866 1.379 . S
C2871 N2869 1.356 . S
N2872 C2864 1.356 . S
N2872 H2878 0.984 . S
N2872 H2879 0.984 . S
N2873 C2866 1.356 . S
N2873 H2876 0.984 . S
N2873 H2877 0.985 . S
H2874 N2869 0.984 . S
H2875 N2869 0.985 . S
H2876 N2873 0.984 . S
H2877 N2873 0.985 . S
H2878 N2872 0.984 . S
H2879 N2872 0.984 . S
H2880 N2868 0.984 . S
H2881 N2868 0.985 . S
C2882 C2883 1.363 . S
C2882 C2888 1.379 . S
C2882 N2890 1.356 . S
C2883 C2882 1.363 . S
C2883 C2889 1.363 . S
C2884 C2885 1.363 . S
C2884 C2889 1.379 . S
C2884 N2891 1.356 . S
C2885 C2884 1.363 . S
C2885 C2888 1.363 . S
N2886 C2888 1.356 . S
N2886 H2898 0.984 . S
N2886 H2899 0.985 . S
N2887 C2889 1.356 . S
N2887 H2892 0.984 . S
N2887 H2893 0.985 . S
C2888 C2882 1.379 . S
C2888 C2885 1.363 . S
C2888 N2886 1.356 . S
C2889 C2883 1.363 . S
C2889 C2884 1.379 . S
C2889 N2887 1.356 . S
N2890 C2882 1.356 . S
N2890 H2896 0.984 . S
N2890 H2897 0.984 . S
N2891 C2884 1.356 . S
N2891 H2894 0.984 . S
N2891 H2895 0.985 . S
H2892 N2887 0.984 . S
H2893 N2887 0.985 . S
H2894 N2891 0.984 . S
H2895 N2891 0.985 . S
H2896 N2890 0.984 . S
H2897 N2890 0.984 . S
H2898 N2886 0.984 . S
H2899 N2886 0.985 . S
C2900 C2901 1.363 . S
C2900 C2906 1.379 . S
C2900 N2908 1.356 . S
C2901 C2900 1.363 . S
C2901 C2907 1.363 . S
C2902 C2903 1.363 . S
C2902 C2907 1.379 . S
C2902 N2909 1.356 . S
C2903 C2902 1.363 . S
C2903 C2906 1.363 . S
N2904 C2906 1.356 . S
N2904 H2916 0.984 . S
N2904 H2917 0.985 . S
N2905 C2907 1.356 . S
N2905 H2910 0.984 . S
N2905 H2911 0.985 . S
C2906 C2900 1.379 . S
C2906 C2903 1.363 . S
C2906 N2904 1.356 . S
C2907 C2901 1.363 . S
C2907 C2902 1.379 . S
C2907 N2905 1.356 . S
N2908 C2900 1.356 . S
N2908 H2914 0.984 . S
N2908 H2915 0.984 . S
N2909 C2902 1.356 . S
N2909 H2912 0.984 . S
N2909 H2913 0.985 . S
H2910 N2905 0.984 . S
H2911 N2905 0.985 . S
H2912 N2909 0.984 . S
H2913 N2909 0.985 . S
H2914 N2908 0.984 . S
H2915 N2908 0.984 . S
H2916 N2904 0.984 . S
H2917 N2904 0.985 . S
C2918 C2919 1.363 . S
C2918 C2924 1.379 . S
C2918 N2926 1.356 . S
C2919 C2918 1.363 . S
C2919 C2925 1.363 . S
C2920 C2921 1.363 . S
C2920 C2925 1.379 . S
C2920 N2927 1.356 . S
C2921 C2920 1.363 . S
C2921 C2924 1.363 . S
N2922 C2924 1.356 . S
N2922 H2934 0.984 . S
N2922 H2935 0.985 . S
N2923 C2925 1.356 . S
N2923 H2928 0.984 . S
N2923 H2929 0.985 . S
C2924 C2918 1.379 . S
C2924 C2921 1.363 . S
C2924 N2922 1.356 . S
C2925 C2919 1.363 . S
C2925 C2920 1.379 . S
C2925 N2923 1.356 . S
N2926 C2918 1.356 . S
N2926 H2932 0.984 . S
N2926 H2933 0.984 . S
N2927 C2920 1.356 . S
N2927 H2930 0.984 . S
N2927 H2931 0.985 . S
H2928 N2923 0.984 . S
H2929 N2923 0.985 . S
H2930 N2927 0.984 . S
H2931 N2927 0.985 . S
H2932 N2926 0.984 . S
H2933 N2926 0.984 . S
H2934 N2922 0.984 . S
H2935 N2922 0.985 . S
C2936 C2937 1.363 . S
C2936 C2942 1.379 . S
C2936 N2944 1.356 . S
C2937 C2936 1.363 . S
C2937 C2943 1.363 . S
C2938 C2939 1.363 . S
C2938 C2943 1.379 . S
C2938 N2945 1.356 . S
C2939 C2938 1.363 . S
C2939 C2942 1.363 . S
N2940 C2942 1.356 . S
N2940 H2952 0.984 . S
N2940 H2953 0.985 . S
N2941 C2943 1.356 . S
N2941 H2946 0.984 . S
N2941 H2947 0.985 . S
C2942 C2936 1.379 . S
C2942 C2939 1.363 . S
C2942 N2940 1.356 . S
C2943 C2937 1.363 . S
C2943 C2938 1.379 . S
C2943 N2941 1.356 . S
N2944 C2936 1.356 . S
N2944 H2950 0.984 . S
N2944 H2951 0.984 . S
N2945 C2938 1.356 . S
N2945 H2948 0.984 . S
N2945 H2949 0.985 . S
H2946 N2941 0.984 . S
H2947 N2941 0.985 . S
H2948 N2945 0.984 . S
H2949 N2945 0.985 . S
H2950 N2944 0.984 . S
H2951 N2944 0.984 . S
H2952 N2940 0.984 . S
H2953 N2940 0.985 . S
C2954 C2955 1.363 . S
C2954 C2960 1.379 . S
C2954 N2962 1.356 . S
C2955 C2954 1.363 . S
C2955 C2961 1.363 . S
C2956 C2957 1.363 . S
C2956 C2961 1.379 . S
C2956 N2963 1.356 . S
C2957 C2956 1.363 . S
C2957 C2960 1.363 . S
N2958 C2960 1.356 . S
N2958 H2970 0.984 . S
N2958 H2971 0.985 . S
N2959 C2961 1.356 . S
N2959 H2964 0.984 . S
N2959 H2965 0.985 . S
C2960 C2954 1.379 . S
C2960 C2957 1.363 . S
C2960 N2958 1.356 . S
C2961 C2955 1.363 . S
C2961 C2956 1.379 . S
C2961 N2959 1.356 . S
N2962 C2954 1.356 . S
N2962 H2968 0.984 . S
N2962 H2969 0.984 . S
N2963 C2956 1.356 . S
N2963 H2966 0.984 . S
N2963 H2967 0.985 . S
H2964 N2959 0.984 . S
H2965 N2959 0.985 . S
H2966 N2963 0.984 . S
H2967 N2963 0.985 . S
H2968 N2962 0.984 . S
H2969 N2962 0.984 . S
H2970 N2958 0.984 . S
H2971 N2958 0.985 . S
C2972 C2973 1.363 . S
C2972 C2978 1.379 . S
C2972 N2980 1.356 . S
C2973 C2972 1.363 . S
C2973 C2979 1.363 . S
C2974 C2975 1.363 . S
C2974 C2979 1.379 . S
C2974 N2981 1.356 . S
C2975 C2974 1.363 . S
C2975 C2978 1.363 . S
N2976 C2978 1.356 . S
N2976 H2988 0.984 . S
N2976 H2989 0.985 . S
N2977 C2979 1.356 . S
N2977 H2982 0.984 . S
N2977 H2983 0.985 . S
C2978 C2972 1.379 . S
C2978 C2975 1.363 . S
C2978 N2976 1.356 . S
C2979 C2973 1.363 . S
C2979 C2974 1.379 . S
C2979 N2977 1.356 . S
N2980 C2972 1.356 . S
N2980 H2986 0.984 . S
N2980 H2987 0.984 . S
N2981 C2974 1.356 . S
N2981 H2984 0.984 . S
N2981 H2985 0.985 . S
H2982 N2977 0.984 . S
H2983 N2977 0.985 . S
H2984 N2981 0.984 . S
H2985 N2981 0.985 . S
H2986 N2980 0.984 . S
H2987 N2980 0.984 . S
H2988 N2976 0.984 . S
H2989 N2976 0.985 . S
C2990 C2991 1.363 . S
C2990 C2996 1.379 . S
C2990 N2998 1.356 . S
C2991 C2990 1.363 . S
C2991 C2997 1.363 . S
C2992 C2993 1.363 . S
C2992 C2997 1.379 . S
C2992 N2999 1.356 . S
C2993 C2992 1.363 . S
C2993 C2996 1.363 . S
N2994 C2996 1.356 . S
N2994 H3006 0.984 . S
N2994 H3007 0.985 . S
N2995 C2997 1.356 . S
N2995 H3000 0.984 . S
N2995 H3001 0.985 . S
C2996 C2990 1.379 . S
C2996 C2993 1.363 . S
C2996 N2994 1.356 . S
C2997 C2991 1.363 . S
C2997 C2992 1.379 . S
C2997 N2995 1.356 . S
N2998 C2990 1.356 . S
N2998 H3004 0.984 . S
N2998 H3005 0.984 . S
N2999 C2992 1.356 . S
N2999 H3002 0.984 . S
N2999 H3003 0.985 . S
H3000 N2995 0.984 . S
H3001 N2995 0.985 . S
H3002 N2999 0.984 . S
H3003 N2999 0.985 . S
H3004 N2998 0.984 . S
H3005 N2998 0.984 . S
H3006 N2994 0.984 . S
H3007 N2994 0.985 . S
C1281 C6 1.086 . S
C1283 C139 1.033 . S
C1299 C19 1.033 . S
C1301 C46 1.086 . S
C1317 C86 1.086 . S
C1319 C59 1.033 . S
C1335 C99 1.033 . S
C1337 C126 1.086 . S
C1353 C219 1.033 . S
C1355 C166 1.086 . S
C1371 C206 1.086 . S
C1373 C259 1.033 . S
C1389 C299 1.033 . S
C1391 C246 1.086 . S
C1407 C179 1.033 . S
C1409 C286 1.086 . S
C1425 C335 1.086 . S
C1427 C450 1.033 . S
C1443 C375 1.086 . S
C1445 C330 1.033 . S
C1461 C415 1.086 . S
C1463 C370 1.033 . S
C1479 C455 1.086 . S
C1481 C410 1.033 . S
C1497 C495 1.086 . S
C1499 C530 1.033 . S
C1515 C535 1.086 . S
C1517 C570 1.033 . S
C1533 C610 1.033 . S
C1535 C575 1.086 . S
C1551 C490 1.033 . S
C1553 C615 1.086 . S
C1569 C646 1.086 . S
C1571 C779 1.033 . S
C1587 C659 1.033 . S
C1589 C686 1.086 . S
C1605 C699 1.033 . S
C1607 C726 1.086 . S
C1623 C766 1.086 . S
C1625 C739 1.033 . S
C1641 C806 1.086 . S
C1643 C859 1.033 . S
C1659 C899 1.033 . S
C1661 C846 1.086 . S
C1677 C886 1.086 . S
C1679 C939 1.033 . S
C1695 C819 1.033 . S
C1697 C926 1.086 . S
C1713 C1090 1.033 . S
C1715 C975 1.086 . S
C1731 C970 1.033 . S
C1733 C1015 1.086 . S
C1749 C1055 1.086 . S
C1751 C1010 1.033 . S
C1767 C1050 1.033 . S
C1769 C1095 1.086 . S
C1785 C1170 1.033 . S
C1787 C1135 1.086 . S
C1803 C1210 1.033 . S
C1805 C1175 1.086 . S
C1821 C1250 1.033 . S
C1823 C1215 1.086 . S
C1839 C1255 1.086 . S
C1841 C1130 1.033 . S
C1857 C1086 1.645 . S
C1859 C9 1.559 . S
C1875 C49 1.559 . S
C1877 C326 1.645 . S
C1893 C89 1.559 . S
C1895 C1006 1.645 . S
C1911 C129 1.559 . S
C1913 C406 1.645 . S
C1929 C169 1.559 . S
C1931 C1166 1.645 . S
C1947 C566 1.645 . S
C1949 C209 1.559 . S
C1965 C1246 1.645 . S
C1967 C249 1.559 . S
C1983 C289 1.559 . S
C1985 C486 1.645 . S
C2001 C338 1.559 . S
C2003 C775 1.645 . S
C2019 C15 1.645 . S
C2021 C378 1.559 . S
C2037 C695 1.645 . S
C2039 C418 1.559 . S
C2055 C95 1.645 . S
C2057 C458 1.559 . S
C2073 C855 1.645 . S
C2075 C498 1.559 . S
C2091 C255 1.645 . S
C2093 C538 1.559 . S
C2109 C578 1.559 . S
C2111 C935 1.645 . S
C2127 C618 1.559 . S
C2129 C175 1.645 . S
C2145 C649 1.559 . S
C2147 C446 1.645 . S
C2163 C689 1.559 . S
C2165 C966 1.645 . S
C2181 C729 1.559 . S
C2183 C366 1.645 . S
C2199 C769 1.559 . S
C2201 C1046 1.645 . S
C2217 C809 1.559 . S
C2219 C526 1.645 . S
C2235 C849 1.559 . S
C2237 C1206 1.645 . S
C2253 C606 1.645 . S
C2255 C889 1.559 . S
C2271 C929 1.559 . S
C2273 C1126 1.645 . S
C2289 C135 1.645 . S
C2291 C978 1.559 . S
C2307 C655 1.645 . S
C2309 C1018 1.559 . S
C2325 C55 1.645 . S
C2327 C1058 1.559 . S
C2343 C735 1.645 . S
C2345 C1098 1.559 . S
C2361 C215 1.645 . S
C2363 C1138 1.559 . S
C2379 C1178 1.559 . S
C2381 C895 1.645 . S
C2397 C1218 1.559 . S
C2399 C295 1.645 . S
C2415 C815 1.645 . S
C2417 C1258 1.559 . S
C2433 C18 1.359 . S
C2435 C178 1.359 . S
C2451 C58 1.359 . S
C2453 C218 1.359 . S
C2469 C98 1.359 . S
C2471 C258 1.359 . S
C2487 C298 1.359 . S
C2489 C138 1.359 . S
C2505 C489 1.359 . S
C2507 C329 1.359 . S
C2523 C529 1.359 . S
C2525 C369 1.359 . S
C2541 C409 1.359 . S
C2543 C569 1.359 . S
C2559 C449 1.359 . S
C2561 C609 1.359 . S
C2577 C658 1.359 . S
C2579 C818 1.359 . S
C2595 C858 1.359 . S
C2597 C698 1.359 . S
C2613 C898 1.359 . S
C2615 C738 1.359 . S
C2631 C938 1.359 . S
C2633 C778 1.359 . S
C2649 C1129 1.359 . S
C2651 C969 1.359 . S
C2667 C1009 1.359 . S
C2669 C1169 1.359 . S
C2685 C1209 1.359 . S
C2687 C1049 1.359 . S
C2703 C1089 1.359 . S
C2705 C1249 1.359 . S
C2721 C290 2.663 . S
C2723 C10 2.663 . S
C2739 C50 2.663 . S
C2741 C170 2.663 . S
C2757 C90 2.663 . S
C2759 C210 2.663 . S
C2775 C250 2.663 . S
C2777 C130 2.663 . S
C2793 C339 2.663 . S
C2795 C619 2.663 . S
C2811 C499 2.663 . S
C2813 C379 2.663 . S
C2829 C539 2.663 . S
C2831 C419 2.663 . S
C2847 C459 2.663 . S
C2849 C579 2.663 . S
C2865 C650 2.663 . S
C2867 C930 2.663 . S
C2883 C810 2.663 . S
C2885 C690 2.663 . S
C2901 C850 2.663 . S
C2903 C730 2.663 . S
C2919 C890 2.663 . S
C2921 C770 2.663 . S
C2937 C979 2.663 . S
C2939 C1259 2.663 . S
C2955 C1139 2.663 . S
C2957 C1019 2.663 . S
C2973 C1059 2.663 . S
C2975 C1179 2.663 . S
C2991 C1219 2.663 . S
C2993 C1099 2.663 . S
