# Generated by pormake.
# Topology unj, (4)-cn, num edge types: 1
# Building blocks:
#     Node 0, Type 0, BuildingBlock: UXUYUI_clean_sbu_0, # of connection points: 4
#     Node 1, Type 0, BuildingBlock: UXUYUI_clean_sbu_0, # of connection points: 4
#     Node 2, Type 0, BuildingBlock: UXUYUI_clean_sbu_0, # of connection points: 4
#     Node 3, Type 0, BuildingBlock: UXUYUI_clean_sbu_0, # of connection points: 4
#     Node 4, Type 0, BuildingBlock: UXUYUI_clean_sbu_0, # of connection points: 4
#     Node 5, Type 0, BuildingBlock: UXUYUI_clean_sbu_0, # of connection points: 4
#     Edge 6, Type (0, 0), BuildingBlock: EYOCIG_clean_linker_4, # of connection points: 2
#     Edge 7, Type (0, 0), BuildingBlock: EYOCIG_clean_linker_4, # of connection points: 2
#     Edge 8, Type (0, 0), BuildingBlock: EYOCIG_clean_linker_4, # of connection points: 2
#     Edge 9, Type (0, 0), BuildingBlock: EYOCIG_clean_linker_4, # of connection points: 2
#     Edge 10, Type (0, 0), BuildingBlock: EYOCIG_clean_linker_4, # of connection points: 2
#     Edge 11, Type (0, 0), BuildingBlock: EYOCIG_clean_linker_4, # of connection points: 2
#     Edge 12, Type (0, 0), BuildingBlock: EYOCIG_clean_linker_4, # of connection points: 2
#     Edge 13, Type (0, 0), BuildingBlock: EYOCIG_clean_linker_4, # of connection points: 2
#     Edge 14, Type (0, 0), BuildingBlock: EYOCIG_clean_linker_4, # of connection points: 2
#     Edge 15, Type (0, 0), BuildingBlock: EYOCIG_clean_linker_4, # of connection points: 2
#     Edge 16, Type (0, 0), BuildingBlock: EYOCIG_clean_linker_4, # of connection points: 2
#     Edge 17, Type (0, 0), BuildingBlock: EYOCIG_clean_linker_4, # of connection points: 2
# Relax obj value: 0.030
# Max RMSD: 0.052
# Mean RMSD: 0.052
data_MOF--net-unj--node1-UXUYUI_clean_sbu_0--edge1-EYOCIG_clean_linker_4
_symmetry_space_group_name_H-M    P1
_symmetry_Int_Tables_number       1
_symmetry_cell_setting            triclinic
loop_
_symmetry_equiv_pos_as_xyz
'x, y, z'
_cell_length_a     43.937981
_cell_length_b     43.938861
_cell_length_c     41.391436
_cell_angle_alpha  89.998793
_cell_angle_beta   89.997649
_cell_angle_gamma 119.99698
loop_
_atom_site_label
_atom_site_type_symbol
_atom_site_fract_x
_atom_site_fract_y
_atom_site_fract_z
_atom_type_partial_charge
Li0 Li 0.4497 0.20075 0.58957 0.0
Li1 Li 0.49793 0.23772 0.62906 0.0
Li2 Li 0.44982 0.25204 0.61436 0.0
Li3 Li 0.49797 0.26309 0.57486 0.0
C4 C 0.42324 0.18702 0.65794 0.0
N5 N 0.37661 0.14056 0.70274 0.0
C6 C 0.43496 0.17278 0.68177 0.0
C7 C 0.38784 0.17768 0.65682 0.0
C8 C 0.41096 0.1493 0.7042 0.0
C9 C 0.36466 0.15413 0.67973 0.0
C10 C 0.52353 0.20921 0.57607 0.0
C11 C 0.58139 0.2209 0.56108 0.0
N12 N 0.56852 0.18585 0.55686 0.0
C13 C 0.51085 0.17331 0.57163 0.0
C14 C 0.55905 0.23325 0.57081 0.0
C15 C 0.53402 0.16202 0.56189 0.0
C16 C 0.41609 0.15026 0.54101 0.0
N17 N 0.42023 0.15458 0.57355 0.0
C18 C 0.38344 0.09282 0.58205 0.0
C19 C 0.40446 0.12676 0.59412 0.0
C20 C 0.37907 0.08775 0.54864 0.0
C21 C 0.39541 0.11673 0.52791 0.0
H22 H 0.42919 0.17285 0.52526 0.0
H23 H 0.40858 0.13073 0.61982 0.0
C24 C 0.53308 0.2574 0.68927 0.0
N25 N 0.52756 0.23721 0.66258 0.0
C26 C 0.55511 0.25806 0.71402 0.0
C27 C 0.56504 0.21692 0.68351 0.0
C28 C 0.54272 0.21689 0.65946 0.0
C29 C 0.5714 0.23776 0.71101 0.0
H30 H 0.52046 0.27307 0.69126 0.0
H31 H 0.5375 0.20057 0.63839 0.0
C32 C 0.42329 0.23927 0.54602 0.0
N33 N 0.37663 0.23909 0.50125 0.0
C34 C 0.43501 0.2652 0.52215 0.0
C35 C 0.38788 0.21324 0.54719 0.0
C36 C 0.411 0.26468 0.49974 0.0
C37 C 0.36469 0.2136 0.52429 0.0
C38 C 0.52365 0.3173 0.62781 0.0
C39 C 0.51091 0.34049 0.63216 0.0
C40 C 0.55916 0.32882 0.63317 0.0
C41 C 0.53401 0.37495 0.64191 0.0
C42 C 0.58144 0.36352 0.64289 0.0
N43 N 0.5685 0.38566 0.64704 0.0
C44 C 0.41633 0.26925 0.66281 0.0
C45 C 0.40493 0.28118 0.60964 0.0
C46 C 0.39586 0.28238 0.67582 0.0
N47 N 0.4205 0.26897 0.63028 0.0
C48 C 0.38412 0.29438 0.62162 0.0
C49 C 0.37975 0.2952 0.65502 0.0
H50 H 0.42928 0.25963 0.67861 0.0
H51 H 0.40908 0.28127 0.58395 0.0
C52 C 0.53293 0.27817 0.51461 0.0
N53 N 0.52762 0.29304 0.54127 0.0
C54 C 0.55498 0.29935 0.48979 0.0
C55 C 0.56537 0.35066 0.52017 0.0
C56 C 0.54302 0.32855 0.54429 0.0
C57 C 0.57151 0.33596 0.4927 0.0
H58 H 0.52012 0.24985 0.51271 0.0
H59 H 0.53798 0.3398 0.56536 0.0
O60 O 0.44652 0.2103 0.63607 0.0
O61 O 0.50111 0.22067 0.58524 0.0
O62 O 0.44659 0.23929 0.56787 0.0
O63 O 0.50128 0.28338 0.61867 0.0
H64 H 0.4623 0.17975 0.68291 0.0
H65 H 0.37842 0.18854 0.63848 0.0
H66 H 0.41966 0.13806 0.72279 0.0
H67 H 0.33718 0.14666 0.67923 0.0
H68 H 0.60896 0.23918 0.55688 0.0
H69 H 0.48343 0.15435 0.5757 0.0
H70 H 0.56921 0.26113 0.57419 0.0
H71 H 0.52458 0.13431 0.55834 0.0
H72 H 0.37126 0.07077 0.59858 0.0
H73 H 0.39261 0.11343 0.50194 0.0
H74 H 0.55946 0.2743 0.73514 0.0
H75 H 0.57719 0.20085 0.68063 0.0
H76 H 0.46235 0.28555 0.52098 0.0
H77 H 0.37847 0.193 0.56556 0.0
H78 H 0.41968 0.28459 0.48113 0.0
H79 H 0.3372 0.19361 0.52482 0.0
H80 H 0.4835 0.332 0.62801 0.0
H81 H 0.56936 0.31113 0.62986 0.0
H82 H 0.52452 0.39318 0.64541 0.0
H83 H 0.609 0.37286 0.64717 0.0
H84 H 0.39304 0.28296 0.70178 0.0
H85 H 0.37209 0.30437 0.60504 0.0
H86 H 0.55917 0.2873 0.4687 0.0
H87 H 0.5777 0.3789 0.52295 0.0
Li88 Li 0.26627 0.4948 0.79582 0.0
Li89 Li 0.25512 0.44667 0.7563 0.0
Li90 Li 0.24083 0.49482 0.74166 0.0
Li91 Li 0.20384 0.44657 0.78112 0.0
C92 C 0.32038 0.52048 0.74279 0.0
N93 N 0.38874 0.56536 0.72357 0.0
C94 C 0.34357 0.50775 0.73842 0.0
C95 C 0.33189 0.55599 0.73746 0.0
C96 C 0.37804 0.53086 0.72867 0.0
C97 C 0.3666 0.57828 0.72774 0.0
C98 C 0.24236 0.42011 0.82466 0.0
C99 C 0.21669 0.36153 0.84644 0.0
N100 N 0.2422 0.37348 0.86946 0.0
C101 C 0.26832 0.43184 0.8485 0.0
C102 C 0.21632 0.38471 0.82352 0.0
C103 C 0.2678 0.40784 0.87093 0.0
C104 C 0.28178 0.5299 0.85607 0.0
N105 N 0.29643 0.5244 0.82934 0.0
C106 C 0.35422 0.56182 0.85026 0.0
C107 C 0.33191 0.53954 0.8262 0.0
C108 C 0.33975 0.56815 0.87779 0.0
C109 C 0.30317 0.55187 0.88082 0.0
H110 H 0.25349 0.51728 0.85807 0.0
H111 H 0.34299 0.53434 0.80511 0.0
C112 C 0.27233 0.41324 0.7078 0.0
N113 N 0.27203 0.41736 0.74034 0.0
C114 C 0.28546 0.39278 0.69476 0.0
C115 C 0.29743 0.38096 0.74895 0.0
C116 C 0.28422 0.40176 0.76095 0.0
C117 C 0.29827 0.37664 0.71554 0.0
H118 H 0.26272 0.4262 0.69201 0.0
H119 H 0.2843 0.40588 0.78665 0.0
C120 C 0.21236 0.52043 0.79466 0.0
N121 N 0.18896 0.5654 0.81381 0.0
C122 C 0.17645 0.50774 0.79906 0.0
C123 C 0.2364 0.55595 0.79995 0.0
C124 C 0.16514 0.53091 0.80877 0.0
C125 C 0.22402 0.57828 0.80963 0.0
C126 C 0.1902 0.42016 0.71271 0.0
C127 C 0.17599 0.43187 0.68884 0.0
C128 C 0.18087 0.38476 0.71386 0.0
C129 C 0.15254 0.40787 0.6664 0.0
C130 C 0.15735 0.36158 0.69093 0.0
N131 N 0.1438 0.37351 0.66789 0.0
C132 C 0.26044 0.52989 0.68142 0.0
C133 C 0.21998 0.5396 0.71124 0.0
C134 C 0.26106 0.55185 0.65664 0.0
N135 N 0.2403 0.52443 0.70814 0.0
C136 C 0.21997 0.56186 0.68716 0.0
C137 C 0.24077 0.56815 0.65963 0.0
H138 H 0.2761 0.51725 0.67944 0.0
H139 H 0.20369 0.53442 0.73233 0.0
C140 C 0.15306 0.41268 0.82949 0.0
N141 N 0.15758 0.41704 0.79698 0.0
C142 C 0.11945 0.39191 0.8424 0.0
C143 C 0.09587 0.38028 0.78815 0.0
C144 C 0.12988 0.40139 0.77627 0.0
C145 C 0.0906 0.37569 0.82153 0.0
H146 H 0.17555 0.42568 0.84536 0.0
H147 H 0.13399 0.40569 0.7506 0.0
O148 O 0.28647 0.49811 0.75197 0.0
O149 O 0.24237 0.44339 0.80279 0.0
O150 O 0.22384 0.49801 0.78553 0.0
O151 O 0.2134 0.44344 0.73462 0.0
H152 H 0.33509 0.48034 0.74255 0.0
H153 H 0.3142 0.56619 0.74079 0.0
H154 H 0.39627 0.52138 0.72516 0.0
H155 H 0.37593 0.60585 0.72349 0.0
H156 H 0.19669 0.33405 0.84593 0.0
H157 H 0.28868 0.45918 0.84965 0.0
H158 H 0.19606 0.37529 0.80517 0.0
H159 H 0.28773 0.41654 0.88952 0.0
H160 H 0.38243 0.57395 0.84737 0.0
H161 H 0.29129 0.5562 0.90197 0.0
H162 H 0.28606 0.39 0.6688 0.0
H163 H 0.30741 0.36892 0.76552 0.0
H164 H 0.15751 0.48032 0.79498 0.0
H165 H 0.26428 0.56611 0.7966 0.0
H166 H 0.13743 0.52146 0.81229 0.0
H167 H 0.24229 0.60585 0.81384 0.0
H168 H 0.18294 0.4592 0.68769 0.0
H169 H 0.19169 0.37535 0.73223 0.0
H170 H 0.14132 0.41655 0.64779 0.0
H171 H 0.14988 0.33409 0.69145 0.0
H172 H 0.27727 0.55615 0.6355 0.0
H173 H 0.2039 0.57401 0.69002 0.0
H174 H 0.11599 0.38894 0.86835 0.0
H175 H 0.07392 0.36819 0.77151 0.0
Li176 Li 0.81473 0.25203 0.92293 0.0
Li177 Li 0.7777 0.26324 0.96239 0.0
Li178 Li 0.76346 0.20081 0.94772 0.0
Li179 Li 0.75235 0.23785 0.9082 0.0
C180 C 0.82845 0.23929 0.9913 0.0
N181 N 0.87492 0.23912 0.03609 0.0
C182 C 0.84268 0.26525 1.01514 0.0
C183 C 0.83779 0.21324 0.99017 0.0
C184 C 0.86616 0.26473 0.03756 0.0
C185 C 0.86135 0.21361 1.01307 0.0
C186 C 0.80623 0.31736 0.90941 0.0
C187 C 0.79457 0.36355 0.89442 0.0
N188 N 0.82963 0.38573 0.89024 0.0
C189 C 0.84213 0.34058 0.90502 0.0
C190 C 0.78219 0.32885 0.90411 0.0
C191 C 0.85345 0.37505 0.8953 0.0
C192 C 0.86526 0.26889 0.8744 0.0
N193 N 0.86092 0.26872 0.90694 0.0
C194 C 0.92267 0.29359 0.91546 0.0
C195 C 0.88873 0.28073 0.92751 0.0
C196 C 0.92775 0.29427 0.88205 0.0
C197 C 0.89879 0.28167 0.86131 0.0
H198 H 0.84268 0.25942 0.85864 0.0
H199 H 0.88475 0.2809 0.95321 0.0
C200 C 0.75785 0.27862 0.02257 0.0
N201 N 0.7781 0.29334 0.99591 0.0
C202 C 0.75706 0.29994 0.04729 0.0
C203 C 0.79818 0.35107 1.01683 0.0
C204 C 0.79834 0.32883 0.9928 0.0
C205 C 0.77728 0.33654 0.04429 0.0
H206 H 0.74224 0.25032 0.02454 0.0
H207 H 0.8147 0.33997 0.97175 0.0
C208 C 0.77627 0.18709 0.87936 0.0
N209 N 0.77645 0.14064 0.83457 0.0
C210 C 0.75032 0.17288 0.8555 0.0
C211 C 0.80231 0.17773 0.88051 0.0
C212 C 0.75086 0.1494 0.83308 0.0
C213 C 0.80195 0.15419 0.8576 0.0
C214 C 0.69817 0.20935 0.96118 0.0
C215 C 0.67498 0.17344 0.96558 0.0
C216 C 0.68666 0.23337 0.9665 0.0
C217 C 0.64052 0.1621 0.97534 0.0
C218 C 0.65196 0.22096 0.97624 0.0
N219 N 0.62982 0.1859 0.98043 0.0
C220 C 0.74625 0.15005 0.99613 0.0
C221 C 0.73435 0.12682 0.94292 0.0
C222 C 0.73312 0.11642 1.00908 0.0
N223 N 0.74655 0.15456 0.9636 0.0
C224 C 0.72115 0.09279 0.95484 0.0
C225 C 0.72031 0.08753 0.98823 0.0
H226 H 0.75586 0.17258 1.01197 0.0
H227 H 0.73426 0.13093 0.91724 0.0
C228 C 0.7371 0.25745 0.84788 0.0
N229 N 0.72232 0.23736 0.8746 0.0
C230 C 0.71583 0.25807 0.82302 0.0
C231 C 0.66463 0.21709 0.85349 0.0
C232 C 0.68683 0.21711 0.87766 0.0
C233 C 0.67923 0.23783 0.82595 0.0
H234 H 0.7654 0.27306 0.84595 0.0
H235 H 0.67565 0.20086 0.89876 0.0
O236 O 0.80516 0.2393 0.96944 0.0
O237 O 0.79473 0.28346 0.91855 0.0
O238 O 0.77623 0.21034 0.90125 0.0
O239 O 0.73208 0.22088 0.95201 0.0
H240 H 0.8357 0.28561 1.01629 0.0
H241 H 0.82695 0.19297 0.97182 0.0
H242 H 0.8774 0.28466 0.05615 0.0
H243 H 0.86883 0.1936 1.01257 0.0
H244 H 0.77631 0.37286 0.89019 0.0
H245 H 0.86108 0.3321 0.90911 0.0
H246 H 0.75431 0.31113 0.90745 0.0
H247 H 0.88116 0.3933 0.89179 0.0
H248 H 0.94471 0.30342 0.93199 0.0
H249 H 0.9021 0.28215 0.83534 0.0
H250 H 0.74078 0.28801 0.06838 0.0
H251 H 0.81419 0.3793 1.01396 0.0
H252 H 0.72996 0.17986 0.85435 0.0
H253 H 0.82255 0.18855 0.89888 0.0
H254 H 0.73093 0.13818 0.81448 0.0
H255 H 0.82195 0.1467 0.85812 0.0
H256 H 0.68346 0.15451 0.96145 0.0
H257 H 0.70436 0.26125 0.96315 0.0
H258 H 0.62228 0.13439 0.97886 0.0
H259 H 0.64264 0.23921 0.98049 0.0
H260 H 0.73253 0.11297 0.03504 0.0
H261 H 0.71118 0.07082 0.93822 0.0
H262 H 0.7278 0.27423 0.80187 0.0
H263 H 0.6364 0.20107 0.8563 0.0
Li264 Li 0.56883 0.81152 0.08963 0.0
Li265 Li 0.52063 0.7745 0.12911 0.0
Li266 Li 0.5689 0.76035 0.11449 0.0
Li267 Li 0.52072 0.7491 0.07495 0.0
C268 C 0.59532 0.82532 0.15799 0.0
N269 N 0.64198 0.8718 0.20276 0.0
C270 C 0.58361 0.83955 0.18185 0.0
C271 C 0.63073 0.83469 0.15682 0.0
C272 C 0.60762 0.86303 0.20426 0.0
C273 C 0.65392 0.85824 0.17972 0.0
C274 C 0.49502 0.80297 0.07609 0.0
C275 C 0.43721 0.79139 0.06106 0.0
N276 N 0.45013 0.82646 0.05692 0.0
C277 C 0.50775 0.83889 0.07174 0.0
C278 C 0.45951 0.77897 0.07076 0.0
C279 C 0.48463 0.85025 0.06202 0.0
C280 C 0.60226 0.8621 0.0411 0.0
N281 N 0.59815 0.85772 0.07364 0.0
C282 C 0.63456 0.91952 0.08219 0.0
C283 C 0.61377 0.88553 0.09423 0.0
C284 C 0.63887 0.92464 0.04878 0.0
C285 C 0.62272 0.89568 0.02803 0.0
H286 H 0.58928 0.83952 0.02533 0.0
H287 H 0.60965 0.88151 0.11993 0.0
C288 C 0.48538 0.75472 0.18927 0.0
N289 N 0.49093 0.77494 0.16259 0.0
C290 C 0.46329 0.75398 0.21398 0.0
C291 C 0.45333 0.79511 0.18347 0.0
C292 C 0.47572 0.79521 0.15946 0.0
C293 C 0.44694 0.77422 0.21095 0.0
H294 H 0.49805 0.73908 0.19126 0.0
H295 H 0.48096 0.81156 0.13841 0.0
C296 C 0.5954 0.7731 0.04609 0.0
N297 N 0.64202 0.77333 1.00125 0.0
C298 C 0.58367 0.74715 0.02223 0.0
C299 C 0.63079 0.79916 0.04721 0.0
C300 C 0.60766 0.74771 0.99978 0.0
C301 C 0.65396 0.79882 0.02428 0.0
C302 C 0.49505 0.69498 0.12793 0.0
C303 C 0.50775 0.67177 0.13235 0.0
C304 C 0.45952 0.68349 0.13321 0.0
C305 C 0.48459 0.6373 0.14206 0.0
C306 C 0.4372 0.64879 0.14291 0.0
N307 N 0.45009 0.62662 0.14711 0.0
C308 C 0.60269 0.74354 0.163 0.0
C309 C 0.61419 0.73165 0.10986 0.0
C310 C 0.62347 0.73078 0.17603 0.0
N311 N 0.59843 0.74367 0.13047 0.0
C312 C 0.63531 0.71881 0.12185 0.0
C313 C 0.63979 0.71817 0.15525 0.0
H314 H 0.58961 0.75302 0.17879 0.0
H315 H 0.60998 0.73145 0.08417 0.0
C316 C 0.48582 0.73379 1.01464 0.0
N317 N 0.49117 0.71903 0.04137 0.0
C318 C 0.46392 0.71251 0.9898 0.0
C319 C 0.45375 0.66133 0.02028 0.0
C320 C 0.47594 0.68354 0.04443 0.0
C321 C 0.44757 0.67591 0.99274 0.0
H322 H 0.4985 0.76209 1.01271 0.0
H323 H 0.48103 0.67237 0.06553 0.0
O324 O 0.57202 0.80204 0.13614 0.0
O325 O 0.5174 0.79143 0.08525 0.0
O326 O 0.57212 0.77305 0.06799 0.0
O327 O 0.51747 0.72889 0.11881 0.0
H328 H 0.55626 0.83255 0.18302 0.0
H329 H 0.64014 0.82386 0.13846 0.0
H330 H 0.59893 0.87426 0.22287 0.0
H331 H 0.68141 0.86573 0.17919 0.0
H332 H 0.40964 0.77315 0.05681 0.0
H333 H 0.53516 0.85781 0.07588 0.0
H334 H 0.44931 0.75108 0.07408 0.0
H335 H 0.49411 0.87796 0.05852 0.0
H336 H 0.64662 0.94156 0.09874 0.0
H337 H 0.62549 0.89902 1.00206 0.0
H338 H 0.45892 0.73771 0.23509 0.0
H339 H 0.44114 0.81114 0.18059 0.0
H340 H 0.55634 0.72678 0.0211 0.0
H341 H 0.64021 0.81941 0.06557 0.0
H342 H 0.59897 0.72779 0.98118 0.0
H343 H 0.68144 0.81884 0.02477 0.0
H344 H 0.53517 0.68025 0.12827 0.0
H345 H 0.44935 0.7012 0.12985 0.0
H346 H 0.49405 0.61905 0.1456 0.0
H347 H 0.40963 0.63948 0.14712 0.0
H348 H 0.62636 0.73032 0.20199 0.0
H349 H 0.64748 0.70897 0.10529 0.0
H350 H 0.45971 0.72447 0.96866 0.0
H351 H 0.44154 0.6331 0.0231 0.0
Li352 Li 0.76344 0.56582 0.25635 0.0
Li353 Li 0.75229 0.51752 0.29575 0.0
Li354 Li 0.81466 0.5657 0.28105 0.0
Li355 Li 0.77758 0.51762 0.24148 0.0
C356 C 0.77623 0.59219 0.3247 0.0
N357 N 0.7764 0.63885 0.36946 0.0
C358 C 0.75029 0.58047 0.34856 0.0
C359 C 0.80227 0.62759 0.32353 0.0
C360 C 0.75081 0.60448 0.37097 0.0
C361 C 0.8019 0.65078 0.34643 0.0
C362 C 0.69809 0.49196 0.24281 0.0
C363 C 0.65194 0.4341 0.22782 0.0
N364 N 0.62975 0.44697 0.22362 0.0
C365 C 0.67486 0.50463 0.2384 0.0
C366 C 0.68664 0.45645 0.23753 0.0
C367 C 0.6404 0.48146 0.22868 0.0
C368 C 0.7466 0.59966 0.20795 0.0
N369 N 0.74674 0.59536 0.24048 0.0
C370 C 0.72188 0.63223 0.24917 0.0
C371 C 0.73472 0.61109 0.26112 0.0
C372 C 0.72123 0.63675 0.21577 0.0
C373 C 0.73383 0.62045 0.19496 0.0
H374 H 0.75608 0.5866 0.19213 0.0
H375 H 0.73452 0.60685 0.28681 0.0
C376 C 0.73716 0.48241 0.35594 0.0
N377 N 0.72232 0.48781 0.3293 0.0
C378 C 0.71596 0.46032 0.38072 0.0
C379 C 0.66468 0.45005 0.35036 0.0
C380 C 0.68682 0.47244 0.32627 0.0
C381 C 0.67935 0.44382 0.3778 0.0
H382 H 0.76547 0.4952 0.35785 0.0
H383 H 0.67558 0.47755 0.30523 0.0
C384 C 0.82845 0.5923 0.21275 0.0
N385 N 0.87498 0.63891 0.16798 0.0
C386 C 0.84268 0.58055 0.18893 0.0
C387 C 0.83783 0.62772 0.21387 0.0
C388 C 0.8662 0.60454 0.16651 0.0
C389 C 0.86142 0.65088 0.19097 0.0
C390 C 0.80615 0.49188 0.29443 0.0
C391 C 0.84206 0.50461 0.29884 0.0
C392 C 0.78214 0.45637 0.29976 0.0
C393 C 0.8534 0.48149 0.30864 0.0
C394 C 0.79454 0.43408 0.30953 0.0
N395 N 0.8296 0.447 0.31375 0.0
C396 C 0.86519 0.5991 0.32961 0.0
C397 C 0.88868 0.61071 0.2765 0.0
C398 C 0.89874 0.61959 0.34271 0.0
N399 N 0.86085 0.59502 0.29706 0.0
C400 C 0.92265 0.63154 0.28857 0.0
C401 C 0.92773 0.63582 0.32199 0.0
H402 H 0.84259 0.58607 0.34536 0.0
H403 H 0.8847 0.60663 0.25079 0.0
C404 C 0.75781 0.48278 0.18115 0.0
N405 N 0.77794 0.48805 0.20784 0.0
C406 C 0.75705 0.46083 0.15629 0.0
C407 C 0.79798 0.45046 0.18667 0.0
C408 C 0.7981 0.4727 0.21085 0.0
C409 C 0.77719 0.44436 0.15917 0.0
H410 H 0.74226 0.49554 0.17927 0.0
H411 H 0.81437 0.47771 0.23193 0.0
O412 O 0.77621 0.56889 0.30284 0.0
O413 O 0.73199 0.51439 0.25196 0.0
O414 O 0.80511 0.56903 0.23459 0.0
O415 O 0.79463 0.51426 0.28524 0.0
H416 H 0.72994 0.55313 0.34973 0.0
H417 H 0.82251 0.637 0.30517 0.0
H418 H 0.73089 0.5958 0.38957 0.0
H419 H 0.82189 0.67827 0.3459 0.0
H420 H 0.64265 0.40654 0.2236 0.0
H421 H 0.68332 0.53205 0.24249 0.0
H422 H 0.70437 0.4463 0.24088 0.0
H423 H 0.62213 0.49089 0.22514 0.0
H424 H 0.71204 0.64438 0.26576 0.0
H425 H 0.73337 0.62337 0.169 0.0
H426 H 0.72798 0.45607 0.4018 0.0
H427 H 0.63644 0.43774 0.34756 0.0
H428 H 0.83568 0.55321 0.18779 0.0
H429 H 0.82699 0.63716 0.2322 0.0
H430 H 0.87743 0.59582 0.14794 0.0
H431 H 0.86892 0.67837 0.19146 0.0
H432 H 0.86099 0.53202 0.29471 0.0
H433 H 0.75425 0.44618 0.29639 0.0
H434 H 0.88111 0.49098 0.31218 0.0
H435 H 0.77629 0.40652 0.31379 0.0
H436 H 0.90205 0.62234 0.36869 0.0
H437 H 0.9447 0.64365 0.27205 0.0
H438 H 0.74085 0.45667 0.13518 0.0
H439 H 0.81392 0.43816 0.18945 0.0
Li440 Li 0.20386 0.76034 0.42306 0.0
Li441 Li 0.24099 0.74928 0.4625 0.0
Li442 Li 0.25519 0.81166 0.44768 0.0
Li443 Li 0.26622 0.77451 0.40822 0.0
C444 C 0.19026 0.77322 0.49138 0.0
N445 N 0.14373 0.77331 0.53614 0.0
C446 C 0.17602 0.74724 0.5152 0.0
C447 C 0.18089 0.79925 0.49025 0.0
C448 C 0.15251 0.74772 0.53762 0.0
C449 C 0.15731 0.79885 0.51314 0.0
C450 C 0.2124 0.69505 0.40952 0.0
C451 C 0.22409 0.64891 0.39444 0.0
N452 N 0.18904 0.62673 0.39022 0.0
C453 C 0.1765 0.67184 0.40509 0.0
C454 C 0.23645 0.68359 0.4042 0.0
C455 C 0.16521 0.63739 0.39531 0.0
C456 C 0.15307 0.74313 0.37472 0.0
N457 N 0.15759 0.74343 0.40724 0.0
C458 C 0.09583 0.7181 0.41603 0.0
C459 C 0.12986 0.73127 0.42793 0.0
C460 C 0.09056 0.71726 0.38264 0.0
C461 C 0.11944 0.73003 0.36178 0.0
H462 H 0.17559 0.75271 0.35887 0.0
H463 H 0.13397 0.73118 0.45361 0.0
C464 C 0.2606 0.73392 0.52281 0.0
N465 N 0.2405 0.71921 0.49608 0.0
C466 C 0.26117 0.71259 0.54764 0.0
C467 C 0.22013 0.66147 0.51713 0.0
C468 C 0.22019 0.68373 0.493 0.0
C469 C 0.24088 0.676 0.54467 0.0
H470 H 0.27625 0.76222 0.52477 0.0
H471 H 0.20393 0.67259 0.47189 0.0
C472 C 0.24228 0.82524 0.37935 0.0
N473 N 0.24217 0.87173 0.33455 0.0
C474 C 0.26826 0.83947 0.35552 0.0
C475 C 0.21624 0.83461 0.38047 0.0
C476 C 0.26776 0.86296 0.33309 0.0
C477 C 0.21664 0.85817 0.35756 0.0
C478 C 0.32051 0.80312 0.46116 0.0
C479 C 0.34372 0.83902 0.46556 0.0
C480 C 0.33198 0.77907 0.46648 0.0
C481 C 0.37818 0.85033 0.47532 0.0
C482 C 0.36667 0.79145 0.47622 0.0
N483 N 0.38884 0.8265 0.48041 0.0
C484 C 0.27218 0.86248 0.49601 0.0
C485 C 0.28405 0.88565 0.44279 0.0
C486 C 0.28505 0.89609 0.50892 0.0
N487 N 0.27199 0.85795 0.4635 0.0
C488 C 0.29698 0.91966 0.45466 0.0
C489 C 0.29769 0.92494 0.48804 0.0
H490 H 0.26267 0.83998 0.51188 0.0
H491 H 0.28421 0.88153 0.41711 0.0
C492 C 0.28128 0.75475 0.34788 0.0
N493 N 0.29615 0.77487 0.37458 0.0
C494 C 0.30246 0.75402 0.323 0.0
C495 C 0.35376 0.79493 0.35338 0.0
C496 C 0.33165 0.79503 0.37758 0.0
C497 C 0.33907 0.77417 0.32587 0.0
H498 H 0.25296 0.73921 0.34601 0.0
H499 H 0.34291 0.81128 0.39866 0.0
O500 O 0.21356 0.77324 0.46952 0.0
O501 O 0.22388 0.72893 0.41874 0.0
O502 O 0.24227 0.80197 0.40123 0.0
O503 O 0.28661 0.79163 0.452 0.0
H504 H 0.18301 0.72689 0.51634 0.0
H505 H 0.19173 0.81953 0.47191 0.0
H506 H 0.14127 0.72777 0.55619 0.0
H507 H 0.14981 0.81884 0.51264 0.0
H508 H 0.24237 0.63961 0.3902 0.0
H509 H 0.15755 0.68029 0.40921 0.0
H510 H 0.26433 0.7013 0.40757 0.0
H511 H 0.1375 0.61914 0.39177 0.0
H512 H 0.07386 0.70815 0.43265 0.0
H513 H 0.11599 0.72943 0.33582 0.0
H514 H 0.27733 0.72451 0.5688 0.0
H515 H 0.20407 0.63325 0.51428 0.0
H516 H 0.28861 0.83248 0.35439 0.0
H517 H 0.19597 0.82377 0.39881 0.0
H518 H 0.28771 0.8742 0.31451 0.0
H519 H 0.19664 0.86567 0.35806 0.0
H520 H 0.33526 0.85797 0.46144 0.0
H521 H 0.31426 0.75119 0.46314 0.0
H522 H 0.39643 0.87803 0.47885 0.0
H523 H 0.37597 0.77318 0.48047 0.0
H524 H 0.28555 0.89955 0.53487 0.0
H525 H 0.30684 0.94161 0.43801 0.0
H526 H 0.29041 0.73784 0.30187 0.0
H527 H 0.382 0.81088 0.35614 0.0
C528 C 0.34273 0.02358 0.5246 0.0
C529 C 0.35929 0.05281 0.5356 0.0
C530 C 0.32558 0.98927 0.51172 0.0
C531 C 0.31288 0.95998 0.50087 0.0
C532 C 0.34371 0.32347 0.67883 0.0
C533 C 0.36013 0.31059 0.66795 0.0
C534 C 0.32654 0.34063 0.69167 0.0
C535 C 0.31366 0.35703 0.70258 0.0
C536 C 0.99195 0.32204 0.85809 0.0
C537 C 0.9627 0.30939 0.86903 0.0
C538 C 0.02628 0.3392 0.84523 0.0
C539 C 0.05557 0.35582 0.83437 0.0
C540 C 0.67489 0.98889 0.02484 0.0
C541 C 0.65848 0.95962 0.03579 0.0
C542 C 0.69205 0.0232 1.01198 0.0
C543 C 0.70492 0.0525 1.0011 0.0
C544 C 0.69347 0.67327 0.19196 0.0
C545 C 0.70611 0.65663 0.20285 0.0
C546 C 0.6763 0.69043 0.17911 0.0
C547 C 0.65967 0.70306 0.16821 0.0
C548 C 0.02623 0.68904 0.35891 0.0
C549 C 0.05553 0.70189 0.36978 0.0
C550 C 0.99193 0.67188 0.34602 0.0
C551 C 0.96268 0.65546 0.33503 0.0
C552 C 0.6144 0.37786 0.44717 0.0
C553 C 0.59481 0.35848 0.46773 0.0
C554 C 0.63741 0.40087 0.42328 0.0
C555 C 0.6568 0.42049 0.40274 0.0
C556 C 0.24141 0.6339 0.59022 0.0
C557 C 0.24138 0.65334 0.56963 0.0
C558 C 0.24139 0.61091 0.61415 0.0
C559 C 0.24131 0.59138 0.63472 0.0
C560 C 0.63722 0.23845 0.78035 0.0
C561 C 0.65663 0.23839 0.80096 0.0
C562 C 0.61423 0.23844 0.75643 0.0
C563 C 0.59467 0.23833 0.73589 0.0
C564 C 0.38194 0.61091 0.92323 0.0
C565 C 0.36247 0.59138 0.90269 0.0
C566 C 0.40492 0.63389 0.94716 0.0
C567 C 0.4244 0.6533 0.96776 0.0
C568 C 0.7764 0.37864 0.08967 0.0
C569 C 0.77659 0.35919 0.06916 0.0
C570 C 0.77638 0.40163 0.11357 0.0
C571 C 0.77651 0.42115 0.13416 0.0
C572 C 0.38097 0.7734 0.28023 0.0
C573 C 0.36159 0.77351 0.30084 0.0
C574 C 0.40398 0.77342 0.25632 0.0
C575 C 0.4236 0.77358 0.23581 0.0
loop_
_geom_bond_atom_site_label_1
_geom_bond_atom_site_label_2
_geom_bond_distance
_geom_bond_site_symmetry_2
_ccdc_geom_bond_type
Li0 N17 1.990 . S
Li0 O60 1.956 . S
Li0 O61 1.970 . S
Li0 O62 1.961 . S
Li1 N25 1.990 . S
Li1 O60 1.970 . S
Li1 O61 1.956 . S
Li1 O63 1.961 . S
Li2 N47 1.990 . S
Li2 O60 1.961 . S
Li2 O62 1.956 . S
Li2 O63 1.970 . S
Li3 N53 1.990 . S
Li3 O61 1.961 . S
Li3 O62 1.970 . S
Li3 O63 1.956 . S
C4 C6 1.348 . S
C4 C7 1.356 . S
C4 O60 1.325 . S
N5 C8 1.314 . S
N5 C9 1.279 . S
C6 C4 1.348 . S
C6 C8 1.353 . S
C6 H64 0.929 . S
C7 C4 1.356 . S
C7 C9 1.358 . S
C7 H65 0.930 . S
C8 N5 1.314 . S
C8 C6 1.353 . S
C8 H66 0.930 . S
C9 N5 1.279 . S
C9 C7 1.358 . S
C9 H67 0.930 . S
C10 C13 1.348 . S
C10 C14 1.356 . S
C10 O61 1.325 . S
C11 N12 1.279 . S
C11 C14 1.358 . S
C11 H68 0.930 . S
N12 C11 1.279 . S
N12 C15 1.314 . S
C13 C10 1.348 . S
C13 C15 1.353 . S
C13 H69 0.929 . S
C14 C10 1.356 . S
C14 C11 1.358 . S
C14 H70 0.930 . S
C15 N12 1.314 . S
C15 C13 1.353 . S
C15 H71 0.930 . S
C16 N17 1.314 . S
C16 C21 1.353 . S
C16 H22 0.930 . S
N17 Li0 1.990 . S
N17 C16 1.314 . S
N17 C19 1.279 . S
C18 C19 1.358 . S
C18 C20 1.356 . S
C18 H72 0.930 . S
C19 N17 1.279 . S
C19 C18 1.358 . S
C19 H23 0.930 . S
C20 C18 1.356 . S
C20 C21 1.348 . S
C21 C16 1.353 . S
C21 C20 1.348 . S
C21 H73 0.929 . S
H22 C16 0.930 . S
H23 C19 0.930 . S
C24 N25 1.314 . S
C24 C26 1.353 . S
C24 H30 0.930 . S
N25 Li1 1.990 . S
N25 C24 1.314 . S
N25 C28 1.279 . S
C26 C24 1.353 . S
C26 C29 1.348 . S
C26 H74 0.929 . S
C27 C28 1.358 . S
C27 C29 1.356 . S
C27 H75 0.930 . S
C28 N25 1.279 . S
C28 C27 1.358 . S
C28 H31 0.930 . S
C29 C26 1.348 . S
C29 C27 1.356 . S
H30 C24 0.930 . S
H31 C28 0.930 . S
C32 C34 1.348 . S
C32 C35 1.356 . S
C32 O62 1.325 . S
N33 C36 1.314 . S
N33 C37 1.279 . S
C34 C32 1.348 . S
C34 C36 1.353 . S
C34 H76 0.929 . S
C35 C32 1.356 . S
C35 C37 1.358 . S
C35 H77 0.930 . S
C36 N33 1.314 . S
C36 C34 1.353 . S
C36 H78 0.930 . S
C37 N33 1.279 . S
C37 C35 1.358 . S
C37 H79 0.930 . S
C38 C39 1.348 . S
C38 C40 1.356 . S
C38 O63 1.325 . S
C39 C38 1.348 . S
C39 C41 1.353 . S
C39 H80 0.929 . S
C40 C38 1.356 . S
C40 C42 1.358 . S
C40 H81 0.930 . S
C41 C39 1.353 . S
C41 N43 1.314 . S
C41 H82 0.930 . S
C42 C40 1.358 . S
C42 N43 1.279 . S
C42 H83 0.930 . S
N43 C41 1.314 . S
N43 C42 1.279 . S
C44 C46 1.353 . S
C44 N47 1.314 . S
C44 H50 0.930 . S
C45 N47 1.279 . S
C45 C48 1.358 . S
C45 H51 0.930 . S
C46 C44 1.353 . S
C46 C49 1.348 . S
C46 H84 0.929 . S
N47 Li2 1.990 . S
N47 C44 1.314 . S
N47 C45 1.279 . S
C48 C45 1.358 . S
C48 C49 1.356 . S
C48 H85 0.930 . S
C49 C46 1.348 . S
C49 C48 1.356 . S
H50 C44 0.930 . S
H51 C45 0.930 . S
C52 N53 1.314 . S
C52 C54 1.353 . S
C52 H58 0.930 . S
N53 Li3 1.990 . S
N53 C52 1.314 . S
N53 C56 1.279 . S
C54 C52 1.353 . S
C54 C57 1.348 . S
C54 H86 0.929 . S
C55 C56 1.358 . S
C55 C57 1.356 . S
C55 H87 0.930 . S
C56 N53 1.279 . S
C56 C55 1.358 . S
C56 H59 0.930 . S
C57 C54 1.348 . S
C57 C55 1.356 . S
H58 C52 0.930 . S
H59 C56 0.930 . S
O60 Li0 1.956 . S
O60 Li1 1.970 . S
O60 Li2 1.961 . S
O60 C4 1.325 . S
O61 Li0 1.970 . S
O61 Li1 1.956 . S
O61 Li3 1.961 . S
O61 C10 1.325 . S
O62 Li0 1.961 . S
O62 Li2 1.956 . S
O62 Li3 1.970 . S
O62 C32 1.325 . S
O63 Li1 1.961 . S
O63 Li2 1.970 . S
O63 Li3 1.956 . S
O63 C38 1.325 . S
H64 C6 0.929 . S
H65 C7 0.930 . S
H66 C8 0.930 . S
H67 C9 0.930 . S
H68 C11 0.930 . S
H69 C13 0.929 . S
H70 C14 0.930 . S
H71 C15 0.930 . S
H72 C18 0.930 . S
H73 C21 0.929 . S
H74 C26 0.929 . S
H75 C27 0.930 . S
H76 C34 0.929 . S
H77 C35 0.930 . S
H78 C36 0.930 . S
H79 C37 0.930 . S
H80 C39 0.929 . S
H81 C40 0.930 . S
H82 C41 0.930 . S
H83 C42 0.930 . S
H84 C46 0.929 . S
H85 C48 0.930 . S
H86 C54 0.929 . S
H87 C55 0.930 . S
Li88 N105 1.990 . S
Li88 O148 1.956 . S
Li88 O149 1.970 . S
Li88 O150 1.961 . S
Li89 N113 1.990 . S
Li89 O148 1.970 . S
Li89 O149 1.956 . S
Li89 O151 1.961 . S
Li90 N135 1.990 . S
Li90 O148 1.961 . S
Li90 O150 1.956 . S
Li90 O151 1.970 . S
Li91 N141 1.990 . S
Li91 O149 1.961 . S
Li91 O150 1.970 . S
Li91 O151 1.956 . S
C92 C94 1.348 . S
C92 C95 1.356 . S
C92 O148 1.325 . S
N93 C96 1.314 . S
N93 C97 1.279 . S
C94 C92 1.348 . S
C94 C96 1.353 . S
C94 H152 0.929 . S
C95 C92 1.356 . S
C95 C97 1.358 . S
C95 H153 0.930 . S
C96 N93 1.314 . S
C96 C94 1.353 . S
C96 H154 0.930 . S
C97 N93 1.279 . S
C97 C95 1.358 . S
C97 H155 0.930 . S
C98 C101 1.348 . S
C98 C102 1.356 . S
C98 O149 1.325 . S
C99 N100 1.279 . S
C99 C102 1.358 . S
C99 H156 0.930 . S
N100 C99 1.279 . S
N100 C103 1.314 . S
C101 C98 1.348 . S
C101 C103 1.353 . S
C101 H157 0.929 . S
C102 C98 1.356 . S
C102 C99 1.358 . S
C102 H158 0.930 . S
C103 N100 1.314 . S
C103 C101 1.353 . S
C103 H159 0.930 . S
C104 N105 1.314 . S
C104 C109 1.353 . S
C104 H110 0.930 . S
N105 Li88 1.990 . S
N105 C104 1.314 . S
N105 C107 1.279 . S
C106 C107 1.358 . S
C106 C108 1.356 . S
C106 H160 0.930 . S
C107 N105 1.279 . S
C107 C106 1.358 . S
C107 H111 0.930 . S
C108 C106 1.356 . S
C108 C109 1.348 . S
C109 C104 1.353 . S
C109 C108 1.348 . S
C109 H161 0.929 . S
H110 C104 0.930 . S
H111 C107 0.930 . S
C112 N113 1.314 . S
C112 C114 1.353 . S
C112 H118 0.930 . S
N113 Li89 1.990 . S
N113 C112 1.314 . S
N113 C116 1.279 . S
C114 C112 1.353 . S
C114 C117 1.348 . S
C114 H162 0.929 . S
C115 C116 1.358 . S
C115 C117 1.356 . S
C115 H163 0.930 . S
C116 N113 1.279 . S
C116 C115 1.358 . S
C116 H119 0.930 . S
C117 C114 1.348 . S
C117 C115 1.356 . S
H118 C112 0.930 . S
H119 C116 0.930 . S
C120 C122 1.348 . S
C120 C123 1.356 . S
C120 O150 1.325 . S
N121 C124 1.314 . S
N121 C125 1.279 . S
C122 C120 1.348 . S
C122 C124 1.353 . S
C122 H164 0.929 . S
C123 C120 1.356 . S
C123 C125 1.358 . S
C123 H165 0.930 . S
C124 N121 1.314 . S
C124 C122 1.353 . S
C124 H166 0.930 . S
C125 N121 1.279 . S
C125 C123 1.358 . S
C125 H167 0.930 . S
C126 C127 1.348 . S
C126 C128 1.356 . S
C126 O151 1.325 . S
C127 C126 1.348 . S
C127 C129 1.353 . S
C127 H168 0.929 . S
C128 C126 1.356 . S
C128 C130 1.358 . S
C128 H169 0.930 . S
C129 C127 1.353 . S
C129 N131 1.314 . S
C129 H170 0.930 . S
C130 C128 1.358 . S
C130 N131 1.279 . S
C130 H171 0.930 . S
N131 C129 1.314 . S
N131 C130 1.279 . S
C132 C134 1.353 . S
C132 N135 1.314 . S
C132 H138 0.930 . S
C133 N135 1.279 . S
C133 C136 1.358 . S
C133 H139 0.930 . S
C134 C132 1.353 . S
C134 C137 1.348 . S
C134 H172 0.929 . S
N135 Li90 1.990 . S
N135 C132 1.314 . S
N135 C133 1.279 . S
C136 C133 1.358 . S
C136 C137 1.356 . S
C136 H173 0.930 . S
C137 C134 1.348 . S
C137 C136 1.356 . S
H138 C132 0.930 . S
H139 C133 0.930 . S
C140 N141 1.314 . S
C140 C142 1.353 . S
C140 H146 0.930 . S
N141 Li91 1.990 . S
N141 C140 1.314 . S
N141 C144 1.279 . S
C142 C140 1.353 . S
C142 C145 1.348 . S
C142 H174 0.929 . S
C143 C144 1.358 . S
C143 C145 1.356 . S
C143 H175 0.930 . S
C144 N141 1.279 . S
C144 C143 1.358 . S
C144 H147 0.930 . S
C145 C142 1.348 . S
C145 C143 1.356 . S
H146 C140 0.930 . S
H147 C144 0.930 . S
O148 Li88 1.956 . S
O148 Li89 1.970 . S
O148 Li90 1.961 . S
O148 C92 1.325 . S
O149 Li88 1.970 . S
O149 Li89 1.956 . S
O149 Li91 1.961 . S
O149 C98 1.325 . S
O150 Li88 1.961 . S
O150 Li90 1.956 . S
O150 Li91 1.970 . S
O150 C120 1.325 . S
O151 Li89 1.961 . S
O151 Li90 1.970 . S
O151 Li91 1.956 . S
O151 C126 1.325 . S
H152 C94 0.929 . S
H153 C95 0.930 . S
H154 C96 0.930 . S
H155 C97 0.930 . S
H156 C99 0.930 . S
H157 C101 0.929 . S
H158 C102 0.930 . S
H159 C103 0.930 . S
H160 C106 0.930 . S
H161 C109 0.929 . S
H162 C114 0.929 . S
H163 C115 0.930 . S
H164 C122 0.929 . S
H165 C123 0.930 . S
H166 C124 0.930 . S
H167 C125 0.930 . S
H168 C127 0.929 . S
H169 C128 0.930 . S
H170 C129 0.930 . S
H171 C130 0.930 . S
H172 C134 0.929 . S
H173 C136 0.930 . S
H174 C142 0.929 . S
H175 C143 0.930 . S
Li176 N193 1.990 . S
Li176 O236 1.956 . S
Li176 O237 1.970 . S
Li176 O238 1.961 . S
Li177 N201 1.990 . S
Li177 O236 1.970 . S
Li177 O237 1.956 . S
Li177 O239 1.961 . S
Li178 N223 1.990 . S
Li178 O236 1.961 . S
Li178 O238 1.956 . S
Li178 O239 1.970 . S
Li179 N229 1.990 . S
Li179 O237 1.961 . S
Li179 O238 1.970 . S
Li179 O239 1.956 . S
C180 C182 1.348 . S
C180 C183 1.356 . S
C180 O236 1.325 . S
N181 C184 1.314 . S
N181 C185 1.279 1_554 S
C182 C180 1.348 . S
C182 C184 1.353 1_556 S
C182 H240 0.929 . S
C183 C180 1.356 . S
C183 C185 1.358 . S
C183 H241 0.930 . S
C184 N181 1.314 . S
C184 C182 1.353 1_554 S
C184 H242 0.930 . S
C185 N181 1.279 1_556 S
C185 C183 1.358 . S
C185 H243 0.930 . S
C186 C189 1.348 . S
C186 C190 1.356 . S
C186 O237 1.325 . S
C187 N188 1.279 . S
C187 C190 1.358 . S
C187 H244 0.930 . S
N188 C187 1.279 . S
N188 C191 1.314 . S
C189 C186 1.348 . S
C189 C191 1.353 . S
C189 H245 0.929 . S
C190 C186 1.356 . S
C190 C187 1.358 . S
C190 H246 0.930 . S
C191 N188 1.314 . S
C191 C189 1.353 . S
C191 H247 0.930 . S
C192 N193 1.314 . S
C192 C197 1.353 . S
C192 H198 0.930 . S
N193 Li176 1.990 . S
N193 C192 1.314 . S
N193 C195 1.279 . S
C194 C195 1.358 . S
C194 C196 1.356 . S
C194 H248 0.930 . S
C195 N193 1.279 . S
C195 C194 1.358 . S
C195 H199 0.930 . S
C196 C194 1.356 . S
C196 C197 1.348 . S
C197 C192 1.353 . S
C197 C196 1.348 . S
C197 H249 0.929 . S
H198 C192 0.930 . S
H199 C195 0.930 . S
C200 N201 1.314 1_554 S
C200 C202 1.353 . S
C200 H206 0.930 . S
N201 Li177 1.990 . S
N201 C200 1.314 1_556 S
N201 C204 1.279 . S
C202 C200 1.353 . S
C202 C205 1.348 . S
C202 H250 0.929 . S
C203 C204 1.361 1_554 S
C203 C205 1.353 . S
C203 H251 0.930 1_554 S
C204 N201 1.279 . S
C204 C203 1.361 1_556 S
C204 H207 0.930 . S
C205 C202 1.348 . S
C205 C203 1.353 . S
H206 C200 0.930 . S
H207 C204 0.930 . S
C208 C210 1.348 . S
C208 C211 1.356 . S
C208 O238 1.325 . S
N209 C212 1.314 . S
N209 C213 1.279 . S
C210 C208 1.348 . S
C210 C212 1.353 . S
C210 H252 0.929 . S
C211 C208 1.356 . S
C211 C213 1.358 . S
C211 H253 0.930 . S
C212 N209 1.314 . S
C212 C210 1.353 . S
C212 H254 0.930 . S
C213 N209 1.279 . S
C213 C211 1.358 . S
C213 H255 0.930 . S
C214 C215 1.348 . S
C214 C216 1.356 . S
C214 O239 1.325 . S
C215 C214 1.348 . S
C215 C217 1.353 . S
C215 H256 0.929 . S
C216 C214 1.356 . S
C216 C218 1.358 . S
C216 H257 0.930 . S
C217 C215 1.353 . S
C217 N219 1.314 . S
C217 H258 0.930 . S
C218 C216 1.358 . S
C218 N219 1.279 . S
C218 H259 0.930 . S
N219 C217 1.314 . S
N219 C218 1.279 . S
C220 C222 1.353 . S
C220 N223 1.314 . S
C220 H226 0.930 . S
C221 N223 1.279 . S
C221 C224 1.358 . S
C221 H227 0.930 . S
C222 C220 1.353 . S
C222 C225 1.348 . S
C222 H260 0.929 1_556 S
N223 Li178 1.990 . S
N223 C220 1.314 . S
N223 C221 1.279 . S
C224 C221 1.358 . S
C224 C225 1.356 . S
C224 H261 0.930 . S
C225 C222 1.348 . S
C225 C224 1.356 . S
H226 C220 0.930 . S
H227 C221 0.930 . S
C228 N229 1.314 . S
C228 C230 1.353 . S
C228 H234 0.930 . S
N229 Li179 1.990 . S
N229 C228 1.314 . S
N229 C232 1.279 . S
C230 C228 1.353 . S
C230 C233 1.348 . S
C230 H262 0.929 . S
C231 C232 1.358 . S
C231 C233 1.356 . S
C231 H263 0.930 . S
C232 N229 1.279 . S
C232 C231 1.358 . S
C232 H235 0.930 . S
C233 C230 1.348 . S
C233 C231 1.356 . S
H234 C228 0.930 . S
H235 C232 0.930 . S
O236 Li176 1.956 . S
O236 Li177 1.970 . S
O236 Li178 1.961 . S
O236 C180 1.325 . S
O237 Li176 1.970 . S
O237 Li177 1.956 . S
O237 Li179 1.961 . S
O237 C186 1.325 . S
O238 Li176 1.961 . S
O238 Li178 1.956 . S
O238 Li179 1.970 . S
O238 C208 1.325 . S
O239 Li177 1.961 . S
O239 Li178 1.970 . S
O239 Li179 1.956 . S
O239 C214 1.325 . S
H240 C182 0.929 . S
H241 C183 0.930 . S
H242 C184 0.930 . S
H243 C185 0.930 . S
H244 C187 0.930 . S
H245 C189 0.929 . S
H246 C190 0.930 . S
H247 C191 0.930 . S
H248 C194 0.930 . S
H249 C197 0.929 . S
H250 C202 0.929 . S
H251 C203 0.930 1_556 S
H252 C210 0.929 . S
H253 C211 0.930 . S
H254 C212 0.930 . S
H255 C213 0.930 . S
H256 C215 0.929 . S
H257 C216 0.930 . S
H258 C217 0.930 . S
H259 C218 0.930 . S
H260 C222 0.929 1_554 S
H261 C224 0.930 . S
H262 C230 0.929 . S
H263 C231 0.930 . S
Li264 N281 1.990 . S
Li264 O324 1.956 . S
Li264 O325 1.970 . S
Li264 O326 1.961 . S
Li265 N289 1.990 . S
Li265 O324 1.970 . S
Li265 O325 1.956 . S
Li265 O327 1.961 . S
Li266 N311 1.990 . S
Li266 O324 1.961 . S
Li266 O326 1.956 . S
Li266 O327 1.970 . S
Li267 N317 1.990 . S
Li267 O325 1.961 . S
Li267 O326 1.970 . S
Li267 O327 1.956 . S
C268 C270 1.348 . S
C268 C271 1.356 . S
C268 O324 1.325 . S
N269 C272 1.314 . S
N269 C273 1.279 . S
C270 C268 1.348 . S
C270 C272 1.353 . S
C270 H328 0.929 . S
C271 C268 1.356 . S
C271 C273 1.358 . S
C271 H329 0.930 . S
C272 N269 1.314 . S
C272 C270 1.353 . S
C272 H330 0.930 . S
C273 N269 1.279 . S
C273 C271 1.358 . S
C273 H331 0.930 . S
C274 C277 1.348 . S
C274 C278 1.356 . S
C274 O325 1.325 . S
C275 N276 1.279 . S
C275 C278 1.358 . S
C275 H332 0.930 . S
N276 C275 1.279 . S
N276 C279 1.314 . S
C277 C274 1.348 . S
C277 C279 1.353 . S
C277 H333 0.929 . S
C278 C274 1.356 . S
C278 C275 1.358 . S
C278 H334 0.930 . S
C279 N276 1.314 . S
C279 C277 1.353 . S
C279 H335 0.930 . S
C280 N281 1.314 . S
C280 C285 1.353 . S
C280 H286 0.930 . S
N281 Li264 1.990 . S
N281 C280 1.314 . S
N281 C283 1.279 . S
C282 C283 1.358 . S
C282 C284 1.356 . S
C282 H336 0.930 . S
C283 N281 1.279 . S
C283 C282 1.358 . S
C283 H287 0.930 . S
C284 C282 1.356 . S
C284 C285 1.348 . S
C285 C280 1.353 . S
C285 C284 1.348 . S
C285 H337 0.929 1_554 S
H286 C280 0.930 . S
H287 C283 0.930 . S
C288 N289 1.314 . S
C288 C290 1.353 . S
C288 H294 0.930 . S
N289 Li265 1.990 . S
N289 C288 1.314 . S
N289 C292 1.279 . S
C290 C288 1.353 . S
C290 C293 1.348 . S
C290 H338 0.929 . S
C291 C292 1.358 . S
C291 C293 1.356 . S
C291 H339 0.930 . S
C292 N289 1.279 . S
C292 C291 1.358 . S
C292 H295 0.930 . S
C293 C290 1.348 . S
C293 C291 1.356 . S
H294 C288 0.930 . S
H295 C292 0.930 . S
C296 C298 1.348 . S
C296 C299 1.356 . S
C296 O326 1.325 . S
N297 C300 1.314 . S
N297 C301 1.279 1_556 S
C298 C296 1.348 . S
C298 C300 1.353 1_554 S
C298 H340 0.929 . S
C299 C296 1.356 . S
C299 C301 1.358 . S
C299 H341 0.930 . S
C300 N297 1.314 . S
C300 C298 1.353 1_556 S
C300 H342 0.930 . S
C301 N297 1.279 1_554 S
C301 C299 1.358 . S
C301 H343 0.930 . S
C302 C303 1.348 . S
C302 C304 1.356 . S
C302 O327 1.325 . S
C303 C302 1.348 . S
C303 C305 1.353 . S
C303 H344 0.929 . S
C304 C302 1.356 . S
C304 C306 1.358 . S
C304 H345 0.930 . S
C305 C303 1.353 . S
C305 N307 1.314 . S
C305 H346 0.930 . S
C306 C304 1.358 . S
C306 N307 1.279 . S
C306 H347 0.930 . S
N307 C305 1.314 . S
N307 C306 1.279 . S
C308 C310 1.353 . S
C308 N311 1.314 . S
C308 H314 0.930 . S
C309 N311 1.279 . S
C309 C312 1.358 . S
C309 H315 0.930 . S
C310 C308 1.353 . S
C310 C313 1.348 . S
C310 H348 0.929 . S
N311 Li266 1.990 . S
N311 C308 1.314 . S
N311 C309 1.279 . S
C312 C309 1.358 . S
C312 C313 1.356 . S
C312 H349 0.930 . S
C313 C310 1.348 . S
C313 C312 1.356 . S
H314 C308 0.930 . S
H315 C309 0.930 . S
C316 N317 1.314 1_556 S
C316 C318 1.353 . S
C316 H322 0.930 . S
N317 Li267 1.990 . S
N317 C316 1.314 1_554 S
N317 C320 1.279 . S
C318 C316 1.353 . S
C318 C321 1.348 . S
C318 H350 0.929 . S
C319 C320 1.361 1_556 S
C319 C321 1.353 . S
C319 H351 0.930 1_556 S
C320 N317 1.279 . S
C320 C319 1.361 1_554 S
C320 H323 0.930 . S
C321 C318 1.348 . S
C321 C319 1.353 . S
H322 C316 0.930 . S
H323 C320 0.930 . S
O324 Li264 1.956 . S
O324 Li265 1.970 . S
O324 Li266 1.961 . S
O324 C268 1.325 . S
O325 Li264 1.970 . S
O325 Li265 1.956 . S
O325 Li267 1.961 . S
O325 C274 1.325 . S
O326 Li264 1.961 . S
O326 Li266 1.956 . S
O326 Li267 1.970 . S
O326 C296 1.325 . S
O327 Li265 1.961 . S
O327 Li266 1.970 . S
O327 Li267 1.956 . S
O327 C302 1.325 . S
H328 C270 0.929 . S
H329 C271 0.930 . S
H330 C272 0.930 . S
H331 C273 0.930 . S
H332 C275 0.930 . S
H333 C277 0.929 . S
H334 C278 0.930 . S
H335 C279 0.930 . S
H336 C282 0.930 . S
H337 C285 0.929 1_556 S
H338 C290 0.929 . S
H339 C291 0.930 . S
H340 C298 0.929 . S
H341 C299 0.930 . S
H342 C300 0.930 . S
H343 C301 0.930 . S
H344 C303 0.929 . S
H345 C304 0.930 . S
H346 C305 0.930 . S
H347 C306 0.930 . S
H348 C310 0.929 . S
H349 C312 0.930 . S
H350 C318 0.929 . S
H351 C319 0.930 1_554 S
Li352 N369 1.990 . S
Li352 O412 1.956 . S
Li352 O413 1.970 . S
Li352 O414 1.961 . S
Li353 N377 1.990 . S
Li353 O412 1.970 . S
Li353 O413 1.956 . S
Li353 O415 1.961 . S
Li354 N399 1.990 . S
Li354 O412 1.961 . S
Li354 O414 1.956 . S
Li354 O415 1.970 . S
Li355 N405 1.990 . S
Li355 O413 1.961 . S
Li355 O414 1.970 . S
Li355 O415 1.956 . S
C356 C358 1.348 . S
C356 C359 1.356 . S
C356 O412 1.325 . S
N357 C360 1.314 . S
N357 C361 1.279 . S
C358 C356 1.348 . S
C358 C360 1.353 . S
C358 H416 0.929 . S
C359 C356 1.356 . S
C359 C361 1.358 . S
C359 H417 0.930 . S
C360 N357 1.314 . S
C360 C358 1.353 . S
C360 H418 0.930 . S
C361 N357 1.279 . S
C361 C359 1.358 . S
C361 H419 0.930 . S
C362 C365 1.348 . S
C362 C366 1.356 . S
C362 O413 1.325 . S
C363 N364 1.279 . S
C363 C366 1.358 . S
C363 H420 0.930 . S
N364 C363 1.279 . S
N364 C367 1.314 . S
C365 C362 1.348 . S
C365 C367 1.353 . S
C365 H421 0.929 . S
C366 C362 1.356 . S
C366 C363 1.358 . S
C366 H422 0.930 . S
C367 N364 1.314 . S
C367 C365 1.353 . S
C367 H423 0.930 . S
C368 N369 1.314 . S
C368 C373 1.353 . S
C368 H374 0.930 . S
N369 Li352 1.990 . S
N369 C368 1.314 . S
N369 C371 1.279 . S
C370 C371 1.358 . S
C370 C372 1.356 . S
C370 H424 0.930 . S
C371 N369 1.279 . S
C371 C370 1.358 . S
C371 H375 0.930 . S
C372 C370 1.356 . S
C372 C373 1.348 . S
C373 C368 1.353 . S
C373 C372 1.348 . S
C373 H425 0.929 . S
H374 C368 0.930 . S
H375 C371 0.930 . S
C376 N377 1.314 . S
C376 C378 1.353 . S
C376 H382 0.930 . S
N377 Li353 1.990 . S
N377 C376 1.314 . S
N377 C380 1.279 . S
C378 C376 1.353 . S
C378 C381 1.348 . S
C378 H426 0.929 . S
C379 C380 1.358 . S
C379 C381 1.356 . S
C379 H427 0.930 . S
C380 N377 1.279 . S
C380 C379 1.358 . S
C380 H383 0.930 . S
C381 C378 1.348 . S
C381 C379 1.356 . S
H382 C376 0.930 . S
H383 C380 0.930 . S
C384 C386 1.348 . S
C384 C387 1.356 . S
C384 O414 1.325 . S
N385 C388 1.314 . S
N385 C389 1.279 . S
C386 C384 1.348 . S
C386 C388 1.353 . S
C386 H428 0.929 . S
C387 C384 1.356 . S
C387 C389 1.358 . S
C387 H429 0.930 . S
C388 N385 1.314 . S
C388 C386 1.353 . S
C388 H430 0.930 . S
C389 N385 1.279 . S
C389 C387 1.358 . S
C389 H431 0.930 . S
C390 C391 1.348 . S
C390 C392 1.356 . S
C390 O415 1.325 . S
C391 C390 1.348 . S
C391 C393 1.353 . S
C391 H432 0.929 . S
C392 C390 1.356 . S
C392 C394 1.358 . S
C392 H433 0.930 . S
C393 C391 1.353 . S
C393 N395 1.314 . S
C393 H434 0.930 . S
C394 C392 1.358 . S
C394 N395 1.279 . S
C394 H435 0.930 . S
N395 C393 1.314 . S
N395 C394 1.279 . S
C396 C398 1.353 . S
C396 N399 1.314 . S
C396 H402 0.930 . S
C397 N399 1.279 . S
C397 C400 1.358 . S
C397 H403 0.930 . S
C398 C396 1.353 . S
C398 C401 1.348 . S
C398 H436 0.929 . S
N399 Li354 1.990 . S
N399 C396 1.314 . S
N399 C397 1.279 . S
C400 C397 1.358 . S
C400 C401 1.356 . S
C400 H437 0.930 . S
C401 C398 1.348 . S
C401 C400 1.356 . S
H402 C396 0.930 . S
H403 C397 0.930 . S
C404 N405 1.314 . S
C404 C406 1.353 . S
C404 H410 0.930 . S
N405 Li355 1.990 . S
N405 C404 1.314 . S
N405 C408 1.279 . S
C406 C404 1.353 . S
C406 C409 1.348 . S
C406 H438 0.929 . S
C407 C408 1.358 . S
C407 C409 1.356 . S
C407 H439 0.930 . S
C408 N405 1.279 . S
C408 C407 1.358 . S
C408 H411 0.930 . S
C409 C406 1.348 . S
C409 C407 1.356 . S
H410 C404 0.930 . S
H411 C408 0.930 . S
O412 Li352 1.956 . S
O412 Li353 1.970 . S
O412 Li354 1.961 . S
O412 C356 1.325 . S
O413 Li352 1.970 . S
O413 Li353 1.956 . S
O413 Li355 1.961 . S
O413 C362 1.325 . S
O414 Li352 1.961 . S
O414 Li354 1.956 . S
O414 Li355 1.970 . S
O414 C384 1.325 . S
O415 Li353 1.961 . S
O415 Li354 1.970 . S
O415 Li355 1.956 . S
O415 C390 1.325 . S
H416 C358 0.929 . S
H417 C359 0.930 . S
H418 C360 0.930 . S
H419 C361 0.930 . S
H420 C363 0.930 . S
H421 C365 0.929 . S
H422 C366 0.930 . S
H423 C367 0.930 . S
H424 C370 0.930 . S
H425 C373 0.929 . S
H426 C378 0.929 . S
H427 C379 0.930 . S
H428 C386 0.929 . S
H429 C387 0.930 . S
H430 C388 0.930 . S
H431 C389 0.930 . S
H432 C391 0.929 . S
H433 C392 0.930 . S
H434 C393 0.930 . S
H435 C394 0.930 . S
H436 C398 0.929 . S
H437 C400 0.930 . S
H438 C406 0.929 . S
H439 C407 0.930 . S
Li440 N457 1.990 . S
Li440 O500 1.956 . S
Li440 O501 1.970 . S
Li440 O502 1.961 . S
Li441 N465 1.990 . S
Li441 O500 1.970 . S
Li441 O501 1.956 . S
Li441 O503 1.961 . S
Li442 N487 1.990 . S
Li442 O500 1.961 . S
Li442 O502 1.956 . S
Li442 O503 1.970 . S
Li443 N493 1.990 . S
Li443 O501 1.961 . S
Li443 O502 1.970 . S
Li443 O503 1.956 . S
C444 C446 1.348 . S
C444 C447 1.356 . S
C444 O500 1.325 . S
N445 C448 1.314 . S
N445 C449 1.279 . S
C446 C444 1.348 . S
C446 C448 1.353 . S
C446 H504 0.929 . S
C447 C444 1.356 . S
C447 C449 1.358 . S
C447 H505 0.930 . S
C448 N445 1.314 . S
C448 C446 1.353 . S
C448 H506 0.930 . S
C449 N445 1.279 . S
C449 C447 1.358 . S
C449 H507 0.930 . S
C450 C453 1.348 . S
C450 C454 1.356 . S
C450 O501 1.325 . S
C451 N452 1.279 . S
C451 C454 1.358 . S
C451 H508 0.930 . S
N452 C451 1.279 . S
N452 C455 1.314 . S
C453 C450 1.348 . S
C453 C455 1.353 . S
C453 H509 0.929 . S
C454 C450 1.356 . S
C454 C451 1.358 . S
C454 H510 0.930 . S
C455 N452 1.314 . S
C455 C453 1.353 . S
C455 H511 0.930 . S
C456 N457 1.314 . S
C456 C461 1.353 . S
C456 H462 0.930 . S
N457 Li440 1.990 . S
N457 C456 1.314 . S
N457 C459 1.279 . S
C458 C459 1.358 . S
C458 C460 1.356 . S
C458 H512 0.930 . S
C459 N457 1.279 . S
C459 C458 1.358 . S
C459 H463 0.930 . S
C460 C458 1.356 . S
C460 C461 1.348 . S
C461 C456 1.353 . S
C461 C460 1.348 . S
C461 H513 0.929 . S
H462 C456 0.930 . S
H463 C459 0.930 . S
C464 N465 1.314 . S
C464 C466 1.353 . S
C464 H470 0.930 . S
N465 Li441 1.990 . S
N465 C464 1.314 . S
N465 C468 1.279 . S
C466 C464 1.353 . S
C466 C469 1.348 . S
C466 H514 0.929 . S
C467 C468 1.358 . S
C467 C469 1.356 . S
C467 H515 0.930 . S
C468 N465 1.279 . S
C468 C467 1.358 . S
C468 H471 0.930 . S
C469 C466 1.348 . S
C469 C467 1.356 . S
H470 C464 0.930 . S
H471 C468 0.930 . S
C472 C474 1.348 . S
C472 C475 1.356 . S
C472 O502 1.325 . S
N473 C476 1.314 . S
N473 C477 1.279 . S
C474 C472 1.348 . S
C474 C476 1.353 . S
C474 H516 0.929 . S
C475 C472 1.356 . S
C475 C477 1.358 . S
C475 H517 0.930 . S
C476 N473 1.314 . S
C476 C474 1.353 . S
C476 H518 0.930 . S
C477 N473 1.279 . S
C477 C475 1.358 . S
C477 H519 0.930 . S
C478 C479 1.348 . S
C478 C480 1.356 . S
C478 O503 1.325 . S
C479 C478 1.348 . S
C479 C481 1.353 . S
C479 H520 0.929 . S
C480 C478 1.356 . S
C480 C482 1.358 . S
C480 H521 0.930 . S
C481 C479 1.353 . S
C481 N483 1.314 . S
C481 H522 0.930 . S
C482 C480 1.358 . S
C482 N483 1.279 . S
C482 H523 0.930 . S
N483 C481 1.314 . S
N483 C482 1.279 . S
C484 C486 1.353 . S
C484 N487 1.314 . S
C484 H490 0.930 . S
C485 N487 1.279 . S
C485 C488 1.358 . S
C485 H491 0.930 . S
C486 C484 1.353 . S
C486 C489 1.348 . S
C486 H524 0.929 . S
N487 Li442 1.990 . S
N487 C484 1.314 . S
N487 C485 1.279 . S
C488 C485 1.358 . S
C488 C489 1.356 . S
C488 H525 0.930 . S
C489 C486 1.348 . S
C489 C488 1.356 . S
H490 C484 0.930 . S
H491 C485 0.930 . S
C492 N493 1.314 . S
C492 C494 1.353 . S
C492 H498 0.930 . S
N493 Li443 1.990 . S
N493 C492 1.314 . S
N493 C496 1.279 . S
C494 C492 1.353 . S
C494 C497 1.348 . S
C494 H526 0.929 . S
C495 C496 1.358 . S
C495 C497 1.356 . S
C495 H527 0.930 . S
C496 N493 1.279 . S
C496 C495 1.358 . S
C496 H499 0.930 . S
C497 C494 1.348 . S
C497 C495 1.356 . S
H498 C492 0.930 . S
H499 C496 0.930 . S
O500 Li440 1.956 . S
O500 Li441 1.970 . S
O500 Li442 1.961 . S
O500 C444 1.325 . S
O501 Li440 1.970 . S
O501 Li441 1.956 . S
O501 Li443 1.961 . S
O501 C450 1.325 . S
O502 Li440 1.961 . S
O502 Li442 1.956 . S
O502 Li443 1.970 . S
O502 C472 1.325 . S
O503 Li441 1.961 . S
O503 Li442 1.970 . S
O503 Li443 1.956 . S
O503 C478 1.325 . S
H504 C446 0.929 . S
H505 C447 0.930 . S
H506 C448 0.930 . S
H507 C449 0.930 . S
H508 C451 0.930 . S
H509 C453 0.929 . S
H510 C454 0.930 . S
H511 C455 0.930 . S
H512 C458 0.930 . S
H513 C461 0.929 . S
H514 C466 0.929 . S
H515 C467 0.930 . S
H516 C474 0.929 . S
H517 C475 0.930 . S
H518 C476 0.930 . S
H519 C477 0.930 . S
H520 C479 0.929 . S
H521 C480 0.930 . S
H522 C481 0.930 . S
H523 C482 0.930 . S
H524 C486 0.929 . S
H525 C488 0.930 . S
H526 C494 0.929 . S
H527 C495 0.930 . S
C528 C529 1.170 . S
C528 C530 1.380 1_545 S
C529 C528 1.170 . S
C530 C528 1.380 1_565 S
C530 C531 1.170 . S
C531 C530 1.170 . S
C532 C533 1.170 . S
C532 C534 1.380 . S
C533 C532 1.170 . S
C534 C532 1.380 . S
C534 C535 1.170 . S
C535 C534 1.170 . S
C536 C537 1.170 . S
C536 C538 1.380 1_655 S
C537 C536 1.170 . S
C538 C536 1.380 1_455 S
C538 C539 1.170 . S
C539 C538 1.170 . S
C540 C541 1.170 . S
C540 C542 1.380 1_564 S
C541 C540 1.170 . S
C542 C540 1.380 1_546 S
C542 C543 1.170 . S
C543 C542 1.170 . S
C544 C545 1.170 . S
C544 C546 1.380 . S
C545 C544 1.170 . S
C546 C544 1.380 . S
C546 C547 1.170 . S
C547 C546 1.170 . S
C548 C549 1.170 . S
C548 C550 1.380 1_455 S
C549 C548 1.170 . S
C550 C548 1.380 1_655 S
C550 C551 1.170 . S
C551 C550 1.170 . S
C552 C553 1.170 . S
C552 C554 1.380 . S
C553 C552 1.170 . S
C554 C552 1.380 . S
C554 C555 1.170 . S
C555 C554 1.170 . S
C556 C557 1.170 . S
C556 C558 1.380 . S
C557 C556 1.170 . S
C558 C556 1.380 . S
C558 C559 1.170 . S
C559 C558 1.170 . S
C560 C561 1.170 . S
C560 C562 1.380 . S
C561 C560 1.170 . S
C562 C560 1.380 . S
C562 C563 1.170 . S
C563 C562 1.170 . S
C564 C565 1.170 . S
C564 C566 1.380 . S
C565 C564 1.170 . S
C566 C564 1.380 . S
C566 C567 1.170 . S
C567 C566 1.170 . S
C568 C569 1.170 . S
C568 C570 1.380 . S
C569 C568 1.170 . S
C570 C568 1.380 . S
C570 C571 1.170 . S
C571 C570 1.170 . S
C572 C573 1.170 . S
C572 C574 1.380 . S
C573 C572 1.170 . S
C574 C572 1.380 . S
C574 C575 1.170 . S
C575 C574 1.170 . S
C529 C20 1.380 . S
C531 C489 1.387 . S
C533 C49 1.380 . S
C535 C117 1.378 . S
C537 C196 1.382 . S
C539 C145 1.387 . S
C541 C284 1.377 . S
C543 C225 1.381 . S
C545 C372 1.386 . S
C547 C313 1.384 . S
C549 C460 1.383 . S
C551 C401 1.377 . S
C553 C57 1.579 . S
C555 C381 1.576 . S
C557 C469 1.578 . S
C559 C137 1.575 . S
C561 C233 1.580 . S
C563 C29 1.573 . S
C565 C108 1.575 . S
C567 C321 1.578 . S
C569 C205 1.573 . S
C571 C409 1.582 . S
C573 C497 1.582 . S
C575 C293 1.573 . S
