# Generated by pormake.
# Topology rac, (4)-cn, num edge types: 1
# Building blocks:
#     Node 0, Type 0, BuildingBlock: ICAMEG_clean_sbu_1, # of connection points: 4
#     Node 1, Type 0, BuildingBlock: ICAMEG_clean_sbu_1, # of connection points: 4
#     Node 2, Type 0, BuildingBlock: ICAMEG_clean_sbu_1, # of connection points: 4
#     Node 3, Type 0, BuildingBlock: ICAMEG_clean_sbu_1, # of connection points: 4
#     Node 4, Type 0, BuildingBlock: ICAMEG_clean_sbu_1, # of connection points: 4
#     Node 5, Type 0, BuildingBlock: ICAMEG_clean_sbu_1, # of connection points: 4
#     Node 6, Type 0, BuildingBlock: ICAMEG_clean_sbu_1, # of connection points: 4
#     Node 7, Type 0, BuildingBlock: ICAMEG_clean_sbu_1, # of connection points: 4
#     Edge 8, Type (0, 0), BuildingBlock: XIVTED_clean_linker_0, # of connection points: 2
#     Edge 9, Type (0, 0), BuildingBlock: XIVTED_clean_linker_0, # of connection points: 2
#     Edge 10, Type (0, 0), BuildingBlock: XIVTED_clean_linker_0, # of connection points: 2
#     Edge 11, Type (0, 0), BuildingBlock: XIVTED_clean_linker_0, # of connection points: 2
#     Edge 12, Type (0, 0), BuildingBlock: XIVTED_clean_linker_0, # of connection points: 2
#     Edge 13, Type (0, 0), BuildingBlock: XIVTED_clean_linker_0, # of connection points: 2
#     Edge 14, Type (0, 0), BuildingBlock: XIVTED_clean_linker_0, # of connection points: 2
#     Edge 15, Type (0, 0), BuildingBlock: XIVTED_clean_linker_0, # of connection points: 2
#     Edge 16, Type (0, 0), BuildingBlock: XIVTED_clean_linker_0, # of connection points: 2
#     Edge 17, Type (0, 0), BuildingBlock: XIVTED_clean_linker_0, # of connection points: 2
#     Edge 18, Type (0, 0), BuildingBlock: XIVTED_clean_linker_0, # of connection points: 2
#     Edge 19, Type (0, 0), BuildingBlock: XIVTED_clean_linker_0, # of connection points: 2
#     Edge 20, Type (0, 0), BuildingBlock: XIVTED_clean_linker_0, # of connection points: 2
#     Edge 21, Type (0, 0), BuildingBlock: XIVTED_clean_linker_0, # of connection points: 2
#     Edge 22, Type (0, 0), BuildingBlock: XIVTED_clean_linker_0, # of connection points: 2
#     Edge 23, Type (0, 0), BuildingBlock: XIVTED_clean_linker_0, # of connection points: 2
# Relax obj value: 0.286
# Max RMSD: 0.139
# Mean RMSD: 0.139
data_MOF--net-rac--node1-ICAMEG_clean_sbu_1--edge1-XIVTED_clean_linker_0
_symmetry_space_group_name_H-M    P1
_symmetry_Int_Tables_number       1
_symmetry_cell_setting            triclinic
loop_
_symmetry_equiv_pos_as_xyz
'x, y, z'
_cell_length_a     46.026355
_cell_length_b     20.546372
_cell_length_c     41.714298
_cell_angle_alpha  89.995905
_cell_angle_beta   89.989499
_cell_angle_gamma 89.933685
loop_
_atom_site_label
_atom_site_type_symbol
_atom_site_fract_x
_atom_site_fract_y
_atom_site_fract_z
_atom_type_partial_charge
Co0 Co 0.32584 0.32896 0.07184 0.0
Co1 Co 0.3736 0.26619 0.01712 0.0
O2 O 0.36553 0.31218 0.05729 0.0
C3 C 0.35518 0.27618 0.12954 0.0
O4 O 0.36864 0.23418 0.11106 0.0
C5 C 0.40981 0.38499 0.01299 0.0
O6 O 0.38633 0.41815 0.02032 0.0
O7 O 0.3492 0.32945 0.99288 0.0
O8 O 0.31172 0.33955 0.02686 0.0
H9 H 0.3478 0.16285 0.91177 0.0
H10 H 0.37372 0.40702 0.09968 0.0
O11 O 0.33812 0.31843 0.11753 0.0
H12 H 0.30886 0.56588 0.04726 0.0
H13 H 0.25018 0.42912 0.14384 0.0
H14 H 0.26729 0.28491 0.0512 0.0
H15 H 0.29689 0.44911 0.04718 0.0
H16 H 0.3 0.40739 0.12483 0.0
O17 O 0.40855 0.32324 0.01028 0.0
H18 H 0.33777 0.21915 0.96284 0.0
H19 H 0.42774 0.21897 0.98543 0.0
H20 H 0.21711 0.3052 0.06949 0.0
H21 H 0.38619 0.52383 0.10103 0.0
H22 H 0.20833 0.3777 0.11615 0.0
H23 H 0.35367 0.60409 0.07455 0.0
O24 O 0.31709 0.2348 0.06968 0.0
H25 H 0.45116 0.20204 0.09584 0.0
H26 H 0.37741 0.12124 0.01994 0.0
H27 H 0.40709 0.04275 0.05043 0.0
H28 H 0.44434 0.08304 0.08864 0.0
H29 H 0.42074 0.27887 0.06518 0.0
H30 H 0.43878 0.16319 0.93449 0.0
H31 H 0.39862 0.13452 0.89732 0.0
O32 O 0.33881 0.20743 0.02336 0.0
C33 C 0.32325 0.34647 0.99933 0.0
C34 C 0.36547 0.17491 0.92781 0.0
C35 C 0.41654 0.17518 0.94054 0.0
N36 N 0.38211 0.22184 0.97719 0.0
C37 C 0.35992 0.20662 0.95679 0.0
C38 C 0.41016 0.20689 0.96932 0.0
C39 C 0.394 0.15908 0.91971 0.0
C40 C 0.3593 0.44181 0.08851 0.0
N41 N 0.33459 0.42126 0.07348 0.0
C42 C 0.36653 0.50782 0.08918 0.0
C43 C 0.34832 0.55282 0.07427 0.0
C44 C 0.32317 0.53145 0.05897 0.0
C45 C 0.31657 0.46516 0.05888 0.0
C46 C 0.25374 0.39732 0.12352 0.0
C47 C 0.26364 0.3166 0.07149 0.0
C48 C 0.2819 0.38478 0.11266 0.0
N49 N 0.28655 0.34519 0.08681 0.0
C50 C 0.23519 0.32781 0.08177 0.0
C51 C 0.23027 0.36851 0.10795 0.0
C52 C 0.32096 0.19596 0.04624 0.0
C53 C 0.43505 0.18389 0.0792 0.0
C54 C 0.39343 0.13919 0.03668 0.0
C55 C 0.41025 0.09449 0.05379 0.0
C56 C 0.43117 0.11713 0.07519 0.0
N57 N 0.39736 0.20461 0.04075 0.0
C58 C 0.41785 0.22717 0.06167 0.0
Co59 Co 0.18437 0.67335 0.07196 0.0
Co60 Co 0.13692 0.73594 0.01683 0.0
O61 O 0.14479 0.69019 0.05709 0.0
C62 C 0.15464 0.72674 0.12928 0.0
O63 O 0.14142 0.76866 0.11055 0.0
C64 C 0.10107 0.61676 0.0126 0.0
O65 O 0.12467 0.58411 0.02003 0.0
O66 O 0.16157 0.67287 0.99277 0.0
O67 O 0.19874 0.66231 0.02711 0.0
H68 H 0.16321 0.83931 0.91162 0.0
H69 H 0.13623 0.59585 0.09968 0.0
O70 O 0.17179 0.68434 0.11755 0.0
H71 H 0.20099 0.43618 0.04769 0.0
H72 H 0.25947 0.57281 0.1445 0.0
H73 H 0.24309 0.71684 0.05163 0.0
H74 H 0.21325 0.55279 0.04766 0.0
H75 H 0.20979 0.59512 0.12527 0.0
O76 O 0.10211 0.67852 0.0098 0.0
H77 H 0.17301 0.7832 0.96278 0.0
H78 H 0.0829 0.78258 0.98471 0.0
H79 H 0.29315 0.69595 0.07015 0.0
H80 H 0.1235 0.4792 0.101 0.0
H81 H 0.30157 0.62348 0.11691 0.0
H82 H 0.15595 0.39852 0.07474 0.0
O83 O 0.19325 0.76745 0.06964 0.0
H84 H 0.05879 0.79975 0.09496 0.0
H85 H 0.13289 0.88085 0.01952 0.0
H86 H 0.10293 0.95922 0.04976 0.0
H87 H 0.0655 0.91878 0.08774 0.0
H88 H 0.08949 0.72305 0.06455 0.0
H89 H 0.07208 0.83816 0.93365 0.0
H90 H 0.11243 0.86715 0.89677 0.0
O91 O 0.17159 0.79493 0.02329 0.0
C92 C 0.18744 0.65568 -0.00055 0.0
C93 C 0.14545 0.82712 0.92753 0.0
C94 C 0.0943 0.82639 0.93988 0.0
N95 N 0.12858 0.78012 0.9768 0.0
C96 C 0.15088 0.79551 0.95657 0.0
C97 C 0.10055 0.79479 0.96872 0.0
C98 C 0.11695 0.84267 0.9192 0.0
C99 C 0.15065 0.56087 0.08862 0.0
N100 N 0.17547 0.58112 0.07372 0.0
C101 C 0.14325 0.49496 0.08928 0.0
C102 C 0.16143 0.44973 0.07448 0.0
C103 C 0.18671 0.47078 0.05932 0.0
C104 C 0.19347 0.53699 0.05926 0.0
C105 C 0.25608 0.60457 0.12414 0.0
C106 C 0.24658 0.6852 0.07198 0.0
C107 C 0.22799 0.61746 0.11315 0.0
N108 N 0.22354 0.65696 0.08723 0.0
C109 C 0.27497 0.67364 0.08239 0.0
C110 C 0.27969 0.63297 0.10862 0.0
C111 C 0.18943 0.80631 0.04618 0.0
C112 C 0.07498 0.81796 0.07842 0.0
C113 C 0.11679 0.86284 0.03616 0.0
C114 C 0.09981 0.90747 0.05313 0.0
C115 C 0.07879 0.88475 0.0744 0.0
N116 N 0.11292 0.7974 0.04024 0.0
C117 C 0.09233 0.77476 0.06103 0.0
Co118 Co 0.32691 0.17129 0.42484 0.0
Co119 Co 0.37355 0.23626 0.48019 0.0
O120 O 0.36622 0.18937 0.44011 0.0
C121 C 0.35676 0.2249 0.3677 0.0
O122 O 0.36971 0.26706 0.38648 0.0
C123 C 0.4095 0.11713 0.48543 0.0
O124 O 0.38596 0.08449 0.47794 0.0
O125 O 0.34878 0.17379 0.50442 0.0
O126 O 0.31221 0.16051 0.46953 0.0
H127 H 0.34606 0.34239 0.58439 0.0
H128 H 0.37572 0.09473 0.39781 0.0
O129 O 0.33979 0.1821 0.37935 0.0
H130 H 0.31154 0.93398 0.4496 0.0
H131 H 0.253 0.06766 0.35199 0.0
H132 H 0.26779 0.2136 0.44441 0.0
H133 H 0.29861 0.05029 0.44929 0.0
H134 H 0.30241 0.09176 0.3715 0.0
O135 O 0.40841 0.17898 0.48799 0.0
H136 H 0.33684 0.28501 0.53344 0.0
H137 H 0.42717 0.28373 0.51268 0.0
H138 H 0.21799 0.19083 0.42563 0.0
H139 H 0.38913 0.97837 0.39683 0.0
H140 H 0.21037 0.11724 0.37916 0.0
H141 H 0.35695 0.89715 0.42297 0.0
O142 O 0.3175 0.26511 0.42668 0.0
H143 H 0.45242 0.29822 0.40268 0.0
H144 H 0.37736 0.38108 0.47658 0.0
H145 H 0.40753 0.45874 0.44624 0.0
H146 H 0.44544 0.41741 0.40904 0.0
H147 H 0.42151 0.22224 0.43317 0.0
H148 H 0.43741 0.34058 0.56353 0.0
H149 H 0.39666 0.37053 0.59971 0.0
O150 O 0.33878 0.29513 0.47288 0.0
C151 C 0.32315 0.15547 0.49744 0.0
C152 C 0.36399 0.32979 0.56878 0.0
C153 C 0.41527 0.32869 0.55709 0.0
N154 N 0.38141 0.28154 0.52002 0.0
C155 C 0.35889 0.29747 0.53987 0.0
C156 C 0.40934 0.29638 0.52837 0.0
C157 C 0.39239 0.3455 0.57737 0.0
C158 C 0.36144 0.05951 0.40883 0.0
N159 N 0.33639 0.07928 0.42346 0.0
C160 C 0.36921 0.99376 0.40836 0.0
C161 C 0.35118 0.94823 0.42309 0.0
C162 C 0.32569 0.96882 0.43801 0.0
C163 C 0.31855 0.03487 0.43788 0.0
C164 C 0.25604 0.09979 0.37227 0.0
C165 C 0.26465 0.18152 0.42417 0.0
C166 C 0.28397 0.11372 0.3834 0.0
N167 N 0.28798 0.15371 0.40922 0.0
C168 C 0.23641 0.16889 0.41362 0.0
C169 C 0.23214 0.12761 0.38753 0.0
C170 C 0.32108 0.30517 0.44967 0.0
C171 C 0.43602 0.31682 0.41887 0.0
C172 C 0.39367 0.36268 0.46027 0.0
C173 C 0.41077 0.40691 0.44325 0.0
C174 C 0.43206 0.38369 0.42241 0.0
N175 N 0.39769 0.29715 0.45668 0.0
C176 C 0.41854 0.27403 0.43632 0.0
Co177 Co 0.18405 0.83024 0.42514 0.0
Co178 Co 0.13708 0.76581 0.48027 0.0
O179 O 0.14459 0.8121 0.44003 0.0
C180 C 0.15474 0.77652 0.36757 0.0
O181 O 0.14133 0.73459 0.38609 0.0
C182 C 0.10041 0.88413 0.48474 0.0
O183 O 0.12375 0.91748 0.47723 0.0
O184 O 0.16135 0.82936 0.5044 0.0
O185 O 0.19835 0.8415 0.46997 0.0
H186 H 0.16419 0.66245 0.58525 0.0
H187 H 0.1354 0.90638 0.39751 0.0
O188 O 0.17164 0.81908 0.37953 0.0
H189 H 0.19925 0.06794 0.44916 0.0
H190 H 0.25853 0.93304 0.35267 0.0
H191 H 0.24303 0.78827 0.44541 0.0
H192 H 0.21212 0.95158 0.44949 0.0
H193 H 0.20898 0.90937 0.37188 0.0
O194 O 0.10189 0.82237 0.48748 0.0
H195 H 0.17356 0.71901 0.53411 0.0
H196 H 0.0834 0.71771 0.51248 0.0
H197 H 0.29296 0.81061 0.42694 0.0
H198 H 0.12203 0.02274 0.39592 0.0
H199 H 0.30094 0.88356 0.38028 0.0
H200 H 0.15405 0.10437 0.42197 0.0
O201 O 0.1935 0.73644 0.42729 0.0
H202 H 0.0591 0.70051 0.40237 0.0
H203 H 0.13393 0.62083 0.47737 0.0
H204 H 0.10431 0.54189 0.44719 0.0
H205 H 0.06651 0.58161 0.40944 0.0
H206 H 0.08948 0.7778 0.4327 0.0
H207 H 0.07301 0.66165 0.56351 0.0
H208 H 0.1136 0.63342 0.60023 0.0
O209 O 0.17215 0.70755 0.47361 0.0
C210 C 0.18707 0.84746 0.49767 0.0
C211 C 0.14633 0.67431 0.56941 0.0
C212 C 0.09515 0.67394 0.55722 0.0
N213 N 0.12909 0.72115 0.52024 0.0
C214 C 0.15152 0.70616 0.54038 0.0
C215 C 0.10116 0.70581 0.5284 0.0
C216 C 0.11794 0.65809 0.57781 0.0
C217 C 0.1496 0.94177 0.40851 0.0
N218 N 0.17453 0.92221 0.42345 0.0
C219 C 0.14186 0.00751 0.40769 0.0
C220 C 0.1598 0.05328 0.42238 0.0
C221 C 0.18517 0.03291 0.43762 0.0
C222 C 0.19227 0.96684 0.43785 0.0
C223 C 0.25533 0.90117 0.37302 0.0
C224 C 0.24632 0.8201 0.4251 0.0
C225 C 0.22732 0.88749 0.38399 0.0
N226 N 0.22311 0.84779 0.40988 0.0
C227 C 0.27464 0.83249 0.41472 0.0
C228 C 0.27911 0.87341 0.38854 0.0
C229 C 0.18995 0.697 0.45054 0.0
C230 C 0.07546 0.68261 0.4188 0.0
C231 C 0.11767 0.63854 0.46081 0.0
C232 C 0.10089 0.59358 0.44389 0.0
C233 C 0.07966 0.6159 0.42274 0.0
N234 N 0.11342 0.7039 0.45682 0.0
C235 C 0.09263 0.72614 0.43615 0.0
Co236 Co 0.68411 0.67562 0.92679 0.0
Co237 Co 0.6366 0.73816 0.98186 0.0
O238 O 0.64448 0.69266 0.94151 0.0
C239 C 0.65478 0.72931 0.86921 0.0
O240 O 0.64112 0.77086 0.88776 0.0
C241 C 0.60028 0.61953 0.98577 0.0
O242 O 0.62372 0.58637 0.97827 0.0
O243 O 0.66098 0.67447 0.00586 0.0
O244 O 0.69829 0.66421 0.97168 0.0
H245 H 0.66285 0.83994 0.08745 0.0
H246 H 0.636 0.59863 0.89874 0.0
O247 O 0.67183 0.68697 0.88115 0.0
H248 H 0.70045 0.43813 0.95055 0.0
H249 H 0.75941 0.57565 0.85428 0.0
H250 H 0.74279 0.71877 0.94743 0.0
H251 H 0.71277 0.55471 0.95098 0.0
H252 H 0.70968 0.59759 0.87349 0.0
O253 O 0.6016 0.68124 0.98866 0.0
H254 H 0.67266 0.78432 0.03615 0.0
H255 H 0.58261 0.78526 0.01392 0.0
H256 H 0.79289 0.69825 0.92893 0.0
H257 H 0.6232 0.48204 0.89702 0.0
H258 H 0.80142 0.6263 0.88201 0.0
H259 H 0.6555 0.40094 0.92318 0.0
O260 O 0.69307 0.76962 0.92926 0.0
H261 H 0.55882 0.8039 0.90373 0.0
H262 H 0.63298 0.88315 0.97953 0.0
H263 H 0.60327 0.96227 0.94947 0.0
H264 H 0.56581 0.92276 0.91132 0.0
H265 H 0.58928 0.72645 0.93396 0.0
H266 H 0.5718 0.84037 0.0651 0.0
H267 H 0.61211 0.86831 0.1022 0.0
O268 O 0.67145 0.79676 0.97568 0.0
C269 C 0.68687 0.65727 0.99926 0.0
C270 C 0.64511 0.8282 0.07144 0.0
C271 C 0.594 0.82836 0.05892 0.0
N272 N 0.62826 0.78205 0.02197 0.0
C273 C 0.65054 0.79688 0.04233 0.0
C274 C 0.60025 0.79703 0.03001 0.0
C275 C 0.61663 0.84405 0.07972 0.0
C276 C 0.65034 0.56348 0.90977 0.0
N277 N 0.67512 0.58346 0.92483 0.0
C278 C 0.64291 0.49759 0.90888 0.0
C279 C 0.66101 0.45213 0.92363 0.0
C280 C 0.68624 0.47292 0.93896 0.0
C281 C 0.69303 0.53911 0.93925 0.0
C282 C 0.75596 0.60719 0.87471 0.0
C283 C 0.74633 0.68731 0.92703 0.0
C284 C 0.72785 0.61986 0.88569 0.0
N285 N 0.72333 0.65914 0.91168 0.0
C286 C 0.77474 0.67597 0.91663 0.0
C287 C 0.77952 0.63558 0.8903 0.0
C288 C 0.6893 0.80826 0.95281 0.0
C289 C 0.57503 0.82171 0.92034 0.0
C290 C 0.61687 0.86554 0.9628 0.0
C291 C 0.60003 0.91059 0.94594 0.0
C292 C 0.57899 0.8884 0.92457 0.0
N293 N 0.61285 0.80021 0.95853 0.0
C294 C 0.59225 0.77808 0.93763 0.0
Co295 Co 0.82559 0.33058 0.92676 0.0
Co296 Co 0.87346 0.26853 0.9816 0.0
O297 O 0.86529 0.31407 0.94134 0.0
C298 C 0.85492 0.27691 0.86924 0.0
O299 O 0.86846 0.23535 0.88789 0.0
C300 C 0.90925 0.3879 0.98543 0.0
O301 O 0.88562 0.42048 0.97807 0.0
O302 O 0.84889 0.33159 0.00578 0.0
O303 O 0.81151 0.3418 0.97169 0.0
H304 H 0.84796 0.16555 0.08715 0.0
H305 H 0.87343 0.40821 0.89852 0.0
O306 O 0.83785 0.31933 0.88109 0.0
H307 H 0.80879 0.5678 0.95073 0.0
H308 H 0.74988 0.42974 0.85453 0.0
H309 H 0.76708 0.28678 0.94762 0.0
H310 H 0.79671 0.45109 0.95109 0.0
H311 H 0.79972 0.40824 0.87352 0.0
O312 O 0.90825 0.32615 0.98831 0.0
H313 H 0.83777 0.22133 0.03599 0.0
H314 H 0.92773 0.22233 0.01335 0.0
H315 H 0.71688 0.30687 0.92935 0.0
H316 H 0.88598 0.52495 0.89686 0.0
H317 H 0.70806 0.37875 0.88247 0.0
H318 H 0.85359 0.60559 0.92324 0.0
O319 O 0.81687 0.23648 0.92926 0.0
H320 H 0.9512 0.20482 0.90298 0.0
H321 H 0.87765 0.12362 0.97904 0.0
H322 H 0.90752 0.04529 0.94868 0.0
H323 H 0.94468 0.08578 0.91039 0.0
H324 H 0.92058 0.28148 0.93351 0.0
H325 H 0.93894 0.16708 0.06439 0.0
H326 H 0.89887 0.13808 0.10162 0.0
O327 O 0.83882 0.20928 0.97548 0.0
C328 C 0.82296 0.34861 0.99926 0.0
C329 C 0.8656 0.17775 0.07108 0.0
C330 C 0.91667 0.17869 0.05832 0.0
N331 N 0.8821 0.22458 0.02161 0.0
C332 C 0.85995 0.20917 0.04204 0.0
C333 C 0.9102 0.2101 0.0295 0.0
C334 C 0.89417 0.16241 0.0792 0.0
C335 C 0.85905 0.44316 0.90963 0.0
N336 N 0.83436 0.42285 0.92477 0.0
C337 C 0.86633 0.50913 0.90878 0.0
C338 C 0.84819 0.55434 0.92365 0.0
C339 C 0.82304 0.53321 0.93905 0.0
C340 C 0.81639 0.46695 0.9393 0.0
C341 C 0.75346 0.39823 0.87495 0.0
C342 C 0.76341 0.31821 0.92723 0.0
C343 C 0.78163 0.38581 0.8858 0.0
N344 N 0.7863 0.34658 0.91177 0.0
C345 C 0.73494 0.3293 0.91696 0.0
C346 C 0.73 0.36965 0.89065 0.0
C347 C 0.82088 0.19772 0.95271 0.0
C348 C 0.93513 0.18658 0.91965 0.0
C349 C 0.89362 0.14166 0.96226 0.0
C350 C 0.91056 0.09705 0.94523 0.0
C351 C 0.93143 0.1198 0.92378 0.0
N352 N 0.89739 0.2071 0.95808 0.0
C353 C 0.91782 0.22976 0.93712 0.0
Co354 Co 0.68432 0.83118 0.57344 0.0
Co355 Co 0.63708 0.76705 0.51854 0.0
O356 O 0.64483 0.81385 0.55854 0.0
C357 C 0.65461 0.77862 0.63089 0.0
O358 O 0.64155 0.73629 0.61228 0.0
C359 C 0.6012 0.8864 0.51361 0.0
O360 O 0.6248 0.91899 0.52092 0.0
O361 O 0.66176 0.8294 0.49413 0.0
O362 O 0.69876 0.84138 0.52858 0.0
H363 H 0.6636 0.66078 0.41407 0.0
H364 H 0.63601 0.90906 0.60069 0.0
O365 O 0.67166 0.82101 0.61905 0.0
H366 H 0.70064 0.06795 0.54817 0.0
H367 H 0.75914 0.93341 0.64564 0.0
H368 H 0.74315 0.78765 0.55339 0.0
H369 H 0.71304 0.95135 0.54861 0.0
H370 H 0.70951 0.91042 0.62648 0.0
O371 O 0.60223 0.82455 0.51108 0.0
H372 H 0.6733 0.71817 0.4649 0.0
H373 H 0.58314 0.71991 0.48657 0.0
H374 H 0.79315 0.80933 0.5718 0.0
H375 H 0.62315 0.02573 0.60156 0.0
H376 H 0.80137 0.88276 0.61821 0.0
H377 H 0.65555 0.10602 0.57504 0.0
O378 O 0.69335 0.73711 0.57164 0.0
H379 H 0.55881 0.70558 0.59687 0.0
H380 H 0.63309 0.62225 0.52215 0.0
H381 H 0.6031 0.54478 0.55282 0.0
H382 H 0.56558 0.58634 0.59044 0.0
H383 H 0.58954 0.78137 0.56605 0.0
H384 H 0.57242 0.66305 0.43585 0.0
H385 H 0.61285 0.63287 0.39927 0.0
O386 O 0.67182 0.70796 0.52546 0.0
C387 C 0.68755 0.847 0.50082 0.0
C388 C 0.64581 0.6735 0.42986 0.0
C389 C 0.59463 0.67485 0.44206 0.0
N390 N 0.62884 0.72188 0.47877 0.0
C391 C 0.65118 0.70582 0.4587 0.0
C392 C 0.60082 0.70716 0.47071 0.0
C393 C 0.61732 0.6579 0.42155 0.0
C394 C 0.6504 0.94387 0.58951 0.0
N395 N 0.67526 0.92341 0.57473 0.0
C396 C 0.64293 0.0098 0.58992 0.0
C397 C 0.66109 0.05481 0.57497 0.0
C398 C 0.6864 0.03352 0.55992 0.0
C399 C 0.69323 0.96732 0.56012 0.0
C400 C 0.75583 0.90131 0.6254 0.0
C401 C 0.74655 0.81969 0.5736 0.0
C402 C 0.72777 0.888 0.61447 0.0
N403 N 0.72344 0.84802 0.58871 0.0
C404 C 0.77491 0.8317 0.58394 0.0
C405 C 0.77952 0.8729 0.60999 0.0
C406 C 0.6896 0.6974 0.54853 0.0
C407 C 0.57504 0.68687 0.58049 0.0
C408 C 0.61695 0.64075 0.53863 0.0
C409 C 0.59996 0.59663 0.55584 0.0
C410 C 0.57888 0.61998 0.57692 0.0
N411 N 0.61305 0.7063 0.54227 0.0
C412 C 0.59241 0.72955 0.56286 0.0
Co413 Co 0.82662 0.17131 0.57386 0.0
Co414 Co 0.87325 0.2373 0.51879 0.0
O415 O 0.86594 0.18972 0.55869 0.0
C416 C 0.85631 0.22435 0.63116 0.0
O417 O 0.86909 0.267 0.61249 0.0
C418 C 0.90968 0.11882 0.51319 0.0
O419 O 0.88632 0.08546 0.52062 0.0
O420 O 0.84868 0.17485 0.49434 0.0
O421 O 0.812 0.16116 0.52909 0.0
H422 H 0.84571 0.34448 0.41488 0.0
H423 H 0.87544 0.09437 0.6006 0.0
O424 O 0.83946 0.18147 0.61939 0.0
H425 H 0.81118 0.93433 0.54842 0.0
H426 H 0.75267 0.06688 0.64643 0.0
H427 H 0.7675 0.21372 0.55434 0.0
H428 H 0.79832 0.05068 0.54902 0.0
H429 H 0.80208 0.09103 0.62692 0.0
O430 O 0.90828 0.18066 0.51085 0.0
H431 H 0.83653 0.28622 0.4656 0.0
H432 H 0.92681 0.28604 0.48661 0.0
H433 H 0.7177 0.19093 0.57313 0.0
H434 H 0.8888 0.97797 0.60126 0.0
H435 H 0.71007 0.11693 0.61945 0.0
H436 H 0.85658 0.8971 0.57493 0.0
O437 O 0.81714 0.26515 0.57236 0.0
H438 H 0.95176 0.2991 0.59674 0.0
H439 H 0.8767 0.38213 0.52292 0.0
H440 H 0.90657 0.45971 0.55364 0.0
H441 H 0.94448 0.4183 0.59081 0.0
H442 H 0.92113 0.2232 0.56588 0.0
H443 H 0.93701 0.34378 0.43599 0.0
H444 H 0.89626 0.37362 0.3998 0.0
O445 O 0.83832 0.29564 0.52619 0.0
C446 C 0.82303 0.15643 0.5012 0.0
C447 C 0.86363 0.33193 0.4305 0.0
C448 C 0.91488 0.33146 0.44232 0.0
N449 N 0.88108 0.28325 0.47913 0.0
C450 C 0.85856 0.29911 0.45928 0.0
C451 C 0.90898 0.29864 0.47091 0.0
C452 C 0.89201 0.34821 0.42203 0.0
C453 C 0.86115 0.0593 0.58948 0.0
N454 N 0.83611 0.0793 0.57491 0.0
C455 C 0.86889 0.99353 0.58977 0.0
C456 C 0.85083 0.9482 0.57494 0.0
C457 C 0.82535 0.96901 0.56008 0.0
C458 C 0.81825 0.03508 0.56037 0.0
C459 C 0.75573 0.09921 0.62622 0.0
C460 C 0.76435 0.18144 0.57451 0.0
C461 C 0.78366 0.11316 0.61509 0.0
N462 N 0.78767 0.15344 0.58938 0.0
C463 C 0.73611 0.16881 0.58507 0.0
C464 C 0.73183 0.12729 0.61106 0.0
C465 C 0.82063 0.3054 0.54944 0.0
C466 C 0.93536 0.31774 0.58056 0.0
C467 C 0.89301 0.36369 0.5392 0.0
C468 C 0.90994 0.40788 0.55644 0.0
C469 C 0.93123 0.38461 0.57726 0.0
N470 N 0.89719 0.29816 0.54257 0.0
C471 C 0.91804 0.275 0.56291 0.0
H472 H 0.31127 0.11586 0.99458 0.0
H473 H 0.19919 0.88642 0.99454 0.0
H474 H 0.28866 0.14099 0.09429 0.0
H475 H 0.2217 0.86121 0.09427 0.0
H476 H 0.23152 0.98074 0.99214 0.0
H477 H 0.27896 0.0215 0.99216 0.0
C478 C 0.29954 0.1016 0.01597 0.0
C479 C 0.30258 0.13678 0.04464 0.0
C480 C 0.22964 0.95409 0.01443 0.0
C481 C 0.26521 0.02935 0.04188 0.0
C482 C 0.2109 0.90065 0.01594 0.0
C483 C 0.20782 0.86547 0.04461 0.0
C484 C 0.24522 0.97285 0.04187 0.0
C485 C 0.22353 0.88647 0.07158 0.0
C486 C 0.28082 0.04814 0.01444 0.0
C487 C 0.28686 0.11575 0.0716 0.0
N488 N 0.24139 0.93896 0.06959 0.0
N489 N 0.26901 0.06324 0.0696 0.0
H490 H 0.20316 0.61863 0.50209 0.0
H491 H 0.29338 0.36169 0.39892 0.0
H492 H 0.21918 0.64071 0.40069 0.0
H493 H 0.30654 0.38352 0.50081 0.0
H494 H 0.26121 0.45618 0.39962 0.0
H495 H 0.23585 0.52402 0.50257 0.0
C496 C 0.21336 0.60341 0.47992 0.0
C497 C 0.20841 0.63777 0.4513 0.0
C498 C 0.27121 0.44049 0.42181 0.0
C499 C 0.24565 0.52964 0.45173 0.0
C500 C 0.28956 0.38644 0.42147 0.0
C501 C 0.30276 0.36461 0.44986 0.0
C502 C 0.26552 0.47263 0.45083 0.0
C503 C 0.29699 0.39887 0.47833 0.0
C504 C 0.23215 0.54973 0.48028 0.0
C505 C 0.22239 0.61598 0.42334 0.0
N506 N 0.2786 0.45091 0.47815 0.0
N507 N 0.24021 0.56325 0.42424 0.0
H508 H 0.69928 0.88779 0.00463 0.0
H509 H 0.81129 0.11773 0.00447 0.0
H510 H 0.72153 0.8634 0.90477 0.0
H511 H 0.78862 0.14247 0.90475 0.0
H512 H 0.77902 0.02329 0.007 0.0
H513 H 0.7317 0.98197 0.00711 0.0
C514 C 0.71096 0.90217 0.98323 0.0
C515 C 0.70777 0.86727 0.95448 0.0
C516 C 0.78086 0.04986 0.98469 0.0
C517 C 0.74527 0.97447 0.95731 0.0
C518 C 0.79956 0.10336 0.98311 0.0
C519 C 0.80257 0.13845 0.9544 0.0
C520 C 0.76524 0.03097 0.95728 0.0
C521 C 0.78685 0.1173 0.92747 0.0
C522 C 0.72974 0.95552 0.98478 0.0
C523 C 0.72343 0.88843 0.92751 0.0
N524 N 0.76902 0.06478 0.92954 0.0
N525 N 0.74134 0.94082 0.92955 0.0
H526 H 0.70271 0.61876 0.49709 0.0
H527 H 0.79265 0.36127 0.60022 0.0
H528 H 0.71856 0.64081 0.59851 0.0
H529 H 0.80612 0.38403 0.49842 0.0
H530 H 0.7604 0.45566 0.59959 0.0
H531 H 0.73527 0.52395 0.49668 0.0
C532 C 0.71284 0.60346 0.51929 0.0
C533 C 0.70789 0.6379 0.54788 0.0
C534 C 0.77049 0.44017 0.5774 0.0
C535 C 0.74499 0.52953 0.54754 0.0
C536 C 0.78888 0.38619 0.57771 0.0
C537 C 0.8022 0.36467 0.54932 0.0
C538 C 0.76487 0.47254 0.54842 0.0
C539 C 0.79648 0.39913 0.52089 0.0
C540 C 0.73155 0.54968 0.51897 0.0
C541 C 0.72178 0.61601 0.57588 0.0
N542 N 0.77805 0.45109 0.52111 0.0
N543 N 0.73954 0.56317 0.57502 0.0
H544 H 0.31385 0.30871 0.17307 0.0
H545 H 0.40274 0.27006 0.33202 0.0
H546 H 0.40084 0.23135 0.16594 0.0
H547 H 0.31568 0.19419 0.32364 0.0
H548 H 0.40443 0.28226 0.27314 0.0
H549 H 0.31595 0.29537 0.23128 0.0
C550 C 0.33352 0.28953 0.1838 0.0
C551 C 0.3572 0.27086 0.16473 0.0
C552 C 0.38513 0.26266 0.28441 0.0
C553 C 0.35979 0.25665 0.23117 0.0
C554 C 0.38409 0.25596 0.31781 0.0
C555 C 0.35907 0.23093 0.33257 0.0
C556 C 0.36064 0.24624 0.26611 0.0
C557 C 0.33545 0.21326 0.31318 0.0
C558 C 0.3346 0.28169 0.21691 0.0
C559 C 0.38208 0.24589 0.17989 0.0
N560 N 0.33666 0.22213 0.28099 0.0
N561 N 0.38286 0.23993 0.21242 0.0
H562 H 0.19688 0.80561 0.32451 0.0
H563 H 0.10873 0.77308 0.16481 0.0
H564 H 0.10897 0.73384 0.33077 0.0
H565 H 0.19516 0.69335 0.17358 0.0
H566 H 0.10671 0.78423 0.22371 0.0
H567 H 0.19518 0.79205 0.2663 0.0
C568 C 0.17711 0.78758 0.31357 0.0
C569 C 0.15302 0.77063 0.33239 0.0
C570 C 0.12594 0.76399 0.21252 0.0
C571 C 0.15089 0.75619 0.26594 0.0
C572 C 0.12718 0.75791 0.17911 0.0
C573 C 0.15213 0.73217 0.16443 0.0
C574 C 0.15017 0.74618 0.23097 0.0
C575 C 0.17546 0.71307 0.18395 0.0
C576 C 0.17625 0.7796 0.28047 0.0
C577 C 0.12802 0.74706 0.317 0.0
N578 N 0.17407 0.72134 0.21617 0.0
N579 N 0.12746 0.74101 0.28447 0.0
H580 H 0.69703 0.70079 0.82616 0.0
H581 H 0.6088 0.73228 0.66648 0.0
H582 H 0.60891 0.77169 0.83239 0.0
H583 H 0.69502 0.81272 0.67515 0.0
H584 H 0.60681 0.7214 0.7254 0.0
H585 H 0.69532 0.71442 0.76795 0.0
C586 C 0.67722 0.71866 0.81522 0.0
C587 C 0.65307 0.73533 0.83403 0.0
C588 C 0.62598 0.74175 0.71418 0.0
C589 C 0.65093 0.74986 0.76759 0.0
C590 C 0.62721 0.74769 0.68076 0.0
C591 C 0.65209 0.77353 0.66606 0.0
C592 C 0.65017 0.7598 0.7326 0.0
C593 C 0.67536 0.79292 0.68555 0.0
C594 C 0.67635 0.72668 0.78211 0.0
C595 C 0.62801 0.75869 0.81864 0.0
N596 N 0.67401 0.78478 0.71778 0.0
N597 N 0.62744 0.76478 0.7861 0.0
H598 H 0.90202 0.27092 0.66678 0.0
H599 H 0.81316 0.30671 0.82578 0.0
H600 H 0.81563 0.1913 0.67531 0.0
H601 H 0.90078 0.23309 0.83287 0.0
H602 H 0.81519 0.29245 0.76762 0.0
H603 H 0.90372 0.28292 0.72566 0.0
C604 C 0.88352 0.25592 0.68103 0.0
C605 C 0.85868 0.22995 0.66631 0.0
C606 C 0.83398 0.27976 0.78196 0.0
C607 C 0.86026 0.24502 0.73278 0.0
C608 C 0.83294 0.28814 0.81504 0.0
C609 C 0.85684 0.27084 0.83408 0.0
C610 C 0.85934 0.25559 0.7677 0.0
C611 C 0.88187 0.24659 0.81894 0.0
C612 C 0.88457 0.26251 0.71442 0.0
C613 C 0.83527 0.21113 0.68574 0.0
N614 N 0.88261 0.24014 0.78643 0.0
N615 N 0.83646 0.21993 0.71794 0.0
H616 H 0.46266 0.33191 0.99731 0.0
H617 H 0.54747 0.67262 0.0016 0.0
H618 H 0.42135 0.51556 0.0188 0.0
H619 H 0.58869 0.48903 0.97979 0.0
H620 H 0.50118 0.61598 0.00809 0.0
H621 H 0.50893 0.38857 0.99081 0.0
C622 C 0.46327 0.38418 0.00062 0.0
C623 C 0.43798 0.41898 0.00857 0.0
C624 C 0.52034 0.58803 0.00192 0.0
C625 C 0.4911 0.48429 0.0012 0.0
C626 C 0.54683 0.62036 0.99822 0.0
C627 C 0.5721 0.58557 0.99018 0.0
C628 C 0.51898 0.52029 0.99754 0.0
C629 C 0.56984 0.51791 0.98606 0.0
C630 C 0.48975 0.41653 0.99691 0.0
C631 C 0.44022 0.48667 0.01259 0.0
N632 N 0.54378 0.48755 0.98978 0.0
N633 N 0.46627 0.51704 0.00888 0.0
H634 H 0.09018 0.48605 0.01862 0.0
H635 H 0.92013 0.51862 0.97925 0.0
H636 H 0.04793 0.66852 0.99695 0.0
H637 H 0.96243 0.33622 0.00096 0.0
H638 H 0.96668 0.57435 0.98564 0.0
H639 H 0.04364 0.43037 0.01212 0.0
C640 C 0.07115 0.51445 0.01242 0.0
C641 C 0.07305 0.58214 0.00827 0.0
C642 C 0.96579 0.52214 0.98904 0.0
C643 C 0.01953 0.51853 0.00087 0.0
C644 C 0.93917 0.49024 0.98543 0.0
C645 C 0.93728 0.42256 0.98963 0.0
C646 C 0.9908 0.48622 0.99691 0.0
C647 C 0.96278 0.38845 0.99752 0.0
C648 C 0.04454 0.48258 0.00874 0.0
C649 C 0.04757 0.61629 0.00035 0.0
N650 N 0.98842 0.4206 0.00089 0.0
N651 N 0.02192 0.58416 0.99692 0.0
H652 H 0.59042 0.0173 0.51925 0.0
H653 H 0.42033 0.98628 0.47981 0.0
H654 H 0.54793 0.83508 0.49813 0.0
H655 H 0.46273 0.16852 0.50112 0.0
H656 H 0.46679 0.93016 0.48651 0.0
H657 H 0.54394 0.07347 0.51263 0.0
C658 C 0.57135 0.98904 0.51314 0.0
C659 C 0.57318 0.92126 0.50918 0.0
C660 C 0.46595 0.98241 0.48977 0.0
C661 C 0.51971 0.98549 0.50165 0.0
C662 C 0.43937 0.01455 0.48599 0.0
C663 C 0.43752 0.08232 0.48997 0.0
C664 C 0.49099 0.01814 0.49758 0.0
C665 C 0.46304 0.11625 0.49785 0.0
C666 C 0.54477 0.02121 0.5094 0.0
C667 C 0.54763 0.88735 0.50138 0.0
N668 N 0.48866 0.08385 0.50138 0.0
N669 N 0.52202 0.91978 0.49788 0.0
H670 H 0.96247 0.17199 0.49731 0.0
H671 H 0.04762 0.83094 0.50059 0.0
H672 H 0.92137 0.98817 0.51848 0.0
H673 H 0.08863 0.01466 0.47906 0.0
H674 H 1.00128 0.88761 0.50729 0.0
H675 H 0.00878 0.11526 0.49047 0.0
C676 C 0.96313 0.11967 0.50047 0.0
C677 C 0.93788 0.08486 0.50843 0.0
C678 C 0.0204 0.91558 0.50113 0.0
C679 C 0.99105 0.01945 0.50069 0.0
C680 C 0.04693 0.88322 0.49732 0.0
C681 C 0.07216 0.91802 0.4893 0.0
C682 C 0.01897 0.98337 0.49689 0.0
C683 C 0.06982 0.98574 0.48532 0.0
C684 C 0.98963 0.08728 0.49657 0.0
C685 C 0.94019 0.01709 0.51226 0.0
N686 N 0.04374 0.01611 0.48914 0.0
N687 N 0.96625 0.9867 0.50837 0.0
H688 H 0.17224 0.54696 0.96623 0.0
H689 H 0.3387 0.45568 0.96663 0.0
H690 H 0.24298 0.68021 0.98202 0.0
H691 H 0.26789 0.32203 0.98124 0.0
H692 H 0.30407 0.53654 0.94627 0.0
H693 H 0.20699 0.46643 0.94576 0.0
C694 C 0.1949 0.56035 0.96384 0.0
C695 C 0.20497 0.61966 0.97603 0.0
C696 C 0.29626 0.48856 0.95269 0.0
C697 C 0.24469 0.52807 0.95349 0.0
C698 C 0.31606 0.44228 0.96399 0.0
C699 C 0.30592 0.38274 0.97583 0.0
C700 C 0.26633 0.47473 0.95342 0.0
C701 C 0.27637 0.36787 0.97249 0.0
C702 C 0.21476 0.51427 0.95248 0.0
C703 C 0.23455 0.63454 0.973 0.0
N704 N 0.25748 0.41408 0.96218 0.0
N705 N 0.25349 0.58853 0.96261 0.0
H706 H 0.33818 0.04702 0.53098 0.0
H707 H 0.17164 0.95695 0.53016 0.0
H708 H 0.26759 0.18068 0.51457 0.0
H709 H 0.24241 0.82276 0.51579 0.0
H710 H 0.20629 0.03771 0.55044 0.0
H711 H 0.3033 0.96688 0.55139 0.0
C712 C 0.31552 0.0606 0.53324 0.0
C713 C 0.30553 0.11992 0.52092 0.0
C714 C 0.21408 0.98964 0.54409 0.0
C715 C 0.26567 0.02876 0.54337 0.0
C716 C 0.19427 0.94343 0.53285 0.0
C717 C 0.2044 0.88373 0.52113 0.0
C718 C 0.244 0.97559 0.54343 0.0
C719 C 0.23394 0.8687 0.52448 0.0
C720 C 0.29559 0.01474 0.54456 0.0
C721 C 0.27595 0.13503 0.52374 0.0
N722 N 0.25284 0.91483 0.53475 0.0
N723 N 0.25693 0.08922 0.5341 0.0
H724 H 0.67163 0.54799 0.03203 0.0
H725 H 0.83819 0.45781 0.03208 0.0
H726 H 0.74225 0.68199 0.01714 0.0
H727 H 0.7676 0.32372 0.01722 0.0
H728 H 0.8034 0.53832 0.05248 0.0
H729 H 0.7064 0.46744 0.05245 0.0
C730 C 0.69426 0.56151 0.03461 0.0
C731 C 0.70431 0.62107 0.02269 0.0
C732 C 0.79568 0.49033 0.04599 0.0
C733 C 0.74404 0.52946 0.04516 0.0
C734 C 0.81556 0.44425 0.03467 0.0
C735 C 0.80553 0.38468 0.02275 0.0
C736 C 0.76577 0.47628 0.04519 0.0
C737 C 0.776 0.36958 0.02603 0.0
C738 C 0.71413 0.51543 0.04595 0.0
C739 C 0.73384 0.63614 0.02595 0.0
N740 N 0.75702 0.4156 0.03635 0.0
N741 N 0.7528 0.59012 0.0363 0.0
H742 H 0.74232 0.81897 0.48193 0.0
H743 H 0.76822 0.18464 0.48257 0.0
H744 H 0.67325 0.95799 0.46902 0.0
H745 H 0.83728 0.04584 0.46904 0.0
H746 H 0.73355 0.10548 0.46187 0.0
H747 H 0.77698 0.89842 0.46144 0.0
C748 C 0.73435 0.86549 0.47338 0.0
C749 C 0.70508 0.88244 0.47726 0.0
C750 C 0.75639 0.09278 0.4622 0.0
C751 C 0.74465 0.9748 0.45537 0.0
C752 C 0.77619 0.13825 0.47383 0.0
C753 C 0.80547 0.12127 0.47758 0.0
C754 C 0.76587 0.0292 0.45546 0.0
C755 C 0.81481 0.06056 0.46637 0.0
C756 C 0.75414 0.91112 0.46186 0.0
C757 C 0.69572 0.94329 0.46626 0.0
N758 N 0.7949 0.01583 0.45669 0.0
N759 N 0.71562 0.98816 0.4567 0.0
loop_
_geom_bond_atom_site_label_1
_geom_bond_atom_site_label_2
_geom_bond_distance
_geom_bond_site_symmetry_2
_ccdc_geom_bond_type
Co0 O2 2.143 . S
Co0 O8 2.074 . S
Co0 O11 2.093 . S
Co0 O24 2.097 . S
Co0 N41 2.151 . S
Co0 N49 2.214 . S
Co1 O2 2.160 . S
Co1 O7 2.058 . S
Co1 O17 2.062 . S
Co1 O32 2.037 . S
Co1 N36 2.145 1_554 S
Co1 N57 2.257 . S
O2 Co0 2.143 . S
O2 Co1 2.160 . S
C3 O4 1.278 . S
C3 O11 1.224 . S
O4 C3 1.278 . S
C5 O6 1.245 . S
C5 O17 1.250 . S
O6 C5 1.245 . S
O7 Co1 2.058 . S
O7 C33 1.269 . S
O8 Co0 2.074 . S
O8 C33 1.257 . S
H9 C34 0.930 . S
H10 C40 0.930 . S
O11 Co0 2.093 . S
O11 C3 1.224 . S
H12 C44 0.929 . S
H13 C46 0.930 . S
H14 C47 0.930 . S
H15 C45 0.929 . S
H16 C48 0.928 . S
O17 Co1 2.062 . S
O17 C5 1.250 . S
H18 C37 0.929 . S
H19 C38 0.929 . S
H20 C50 0.931 . S
H21 C42 0.929 . S
H22 C51 0.930 . S
H23 C43 0.931 . S
O24 Co0 2.097 . S
O24 C52 1.214 . S
H25 C53 0.929 . S
H26 C54 0.929 1_556 S
H27 C55 0.930 . S
H28 C56 0.929 . S
H29 C58 0.930 . S
H30 C35 0.930 . S
H31 C39 0.930 . S
O32 Co1 2.037 . S
O32 C52 1.234 . S
C33 O7 1.269 . S
C33 O8 1.257 . S
C34 H9 0.930 . S
C34 C37 1.388 . S
C34 C39 1.418 . S
C35 H30 0.930 . S
C35 C38 1.404 . S
C35 C39 1.353 . S
N36 Co1 2.145 1_556 S
N36 C37 1.397 . S
N36 C38 1.334 . S
C37 H18 0.929 . S
C37 C34 1.388 . S
C37 N36 1.397 . S
C38 H19 0.929 . S
C38 C35 1.404 . S
C38 N36 1.334 . S
C39 H31 0.930 . S
C39 C34 1.418 . S
C39 C35 1.353 . S
C40 H10 0.930 . S
C40 N41 1.330 . S
C40 C42 1.446 . S
N41 Co0 2.151 . S
N41 C40 1.330 . S
N41 C45 1.418 . S
C42 H21 0.929 . S
C42 C40 1.446 . S
C42 C43 1.332 . S
C43 H23 0.931 . S
C43 C42 1.332 . S
C43 C44 1.267 . S
C44 H12 0.929 . S
C44 C43 1.267 . S
C44 C45 1.251 . S
C45 H15 0.929 . S
C45 N41 1.418 . S
C45 C44 1.251 . S
C46 H13 0.930 . S
C46 C48 1.406 . S
C46 C51 1.261 . S
C47 H14 0.930 . S
C47 N49 1.325 . S
C47 C50 1.357 . S
C48 H16 0.928 . S
C48 C46 1.406 . S
C48 N49 1.261 . S
N49 Co0 2.214 . S
N49 C47 1.325 . S
N49 C48 1.261 . S
C50 H20 0.931 . S
C50 C47 1.357 . S
C50 C51 1.312 . S
C51 H22 0.930 . S
C51 C46 1.261 . S
C51 C50 1.312 . S
C52 O24 1.214 . S
C52 O32 1.234 . S
C53 H25 0.929 . S
C53 C56 1.391 . S
C53 C58 1.391 . S
C54 H26 0.929 1_554 S
C54 C55 1.390 . S
C54 N57 1.391 . S
C55 H27 0.930 . S
C55 C54 1.390 . S
C55 C56 1.392 . S
C56 H28 0.929 . S
C56 C53 1.391 . S
C56 C55 1.392 . S
N57 Co1 2.257 . S
N57 C54 1.391 . S
N57 C58 1.388 . S
C58 H29 0.930 . S
C58 C53 1.391 . S
C58 N57 1.388 . S
Co59 O61 2.143 . S
Co59 O67 2.074 . S
Co59 O70 2.093 . S
Co59 O83 2.097 . S
Co59 N100 2.151 . S
Co59 N108 2.214 . S
Co60 O61 2.160 . S
Co60 O66 2.058 . S
Co60 O76 2.062 . S
Co60 O91 2.037 . S
Co60 N95 2.145 1_554 S
Co60 N116 2.257 . S
O61 Co59 2.143 . S
O61 Co60 2.160 . S
C62 O63 1.278 . S
C62 O70 1.224 . S
O63 C62 1.278 . S
C64 O65 1.245 . S
C64 O76 1.250 . S
O65 C64 1.245 . S
O66 Co60 2.058 . S
O66 C92 1.269 . S
O67 Co59 2.074 . S
O67 C92 1.257 . S
H68 C93 0.930 . S
H69 C99 0.930 . S
O70 Co59 2.093 . S
O70 C62 1.224 . S
H71 C103 0.929 . S
H72 C105 0.930 . S
H73 C106 0.930 . S
H74 C104 0.929 . S
H75 C107 0.928 . S
O76 Co60 2.062 . S
O76 C64 1.250 . S
H77 C96 0.929 . S
H78 C97 0.929 . S
H79 C109 0.931 . S
H80 C101 0.929 . S
H81 C110 0.930 . S
H82 C102 0.931 . S
O83 Co59 2.097 . S
O83 C111 1.214 . S
H84 C112 0.929 . S
H85 C113 0.929 1_556 S
H86 C114 0.930 . S
H87 C115 0.929 . S
H88 C117 0.930 . S
H89 C94 0.930 . S
H90 C98 0.930 . S
O91 Co60 2.037 . S
O91 C111 1.234 . S
C92 O66 1.269 . S
C92 O67 1.257 . S
C93 H68 0.930 . S
C93 C96 1.388 . S
C93 C98 1.418 . S
C94 H89 0.930 . S
C94 C97 1.404 . S
C94 C98 1.353 . S
N95 Co60 2.145 1_556 S
N95 C96 1.397 . S
N95 C97 1.334 . S
C96 H77 0.929 . S
C96 C93 1.388 . S
C96 N95 1.397 . S
C97 H78 0.929 . S
C97 C94 1.404 . S
C97 N95 1.334 . S
C98 H90 0.930 . S
C98 C93 1.418 . S
C98 C94 1.353 . S
C99 H69 0.930 . S
C99 N100 1.330 . S
C99 C101 1.446 . S
N100 Co59 2.151 . S
N100 C99 1.330 . S
N100 C104 1.418 . S
C101 H80 0.929 . S
C101 C99 1.446 . S
C101 C102 1.332 . S
C102 H82 0.931 . S
C102 C101 1.332 . S
C102 C103 1.267 . S
C103 H71 0.929 . S
C103 C102 1.267 . S
C103 C104 1.251 . S
C104 H74 0.929 . S
C104 N100 1.418 . S
C104 C103 1.251 . S
C105 H72 0.930 . S
C105 C107 1.406 . S
C105 C110 1.261 . S
C106 H73 0.930 . S
C106 N108 1.325 . S
C106 C109 1.357 . S
C107 H75 0.928 . S
C107 C105 1.406 . S
C107 N108 1.261 . S
N108 Co59 2.214 . S
N108 C106 1.325 . S
N108 C107 1.261 . S
C109 H79 0.931 . S
C109 C106 1.357 . S
C109 C110 1.312 . S
C110 H81 0.930 . S
C110 C105 1.261 . S
C110 C109 1.312 . S
C111 O83 1.214 . S
C111 O91 1.234 . S
C112 H84 0.929 . S
C112 C115 1.391 . S
C112 C117 1.391 . S
C113 H85 0.929 1_554 S
C113 C114 1.390 . S
C113 N116 1.391 . S
C114 H86 0.930 . S
C114 C113 1.390 . S
C114 C115 1.392 . S
C115 H87 0.929 . S
C115 C112 1.391 . S
C115 C114 1.392 . S
N116 Co60 2.257 . S
N116 C113 1.391 . S
N116 C117 1.388 . S
C117 H88 0.930 . S
C117 C112 1.391 . S
C117 N116 1.388 . S
Co118 O120 2.143 . S
Co118 O126 2.074 . S
Co118 O129 2.093 . S
Co118 O142 2.097 . S
Co118 N159 2.151 . S
Co118 N167 2.214 . S
Co119 O120 2.160 . S
Co119 O125 2.058 . S
Co119 O135 2.057 . S
Co119 O150 2.037 . S
Co119 N154 2.145 . S
Co119 N175 2.257 . S
O120 Co118 2.143 . S
O120 Co119 2.160 . S
C121 O122 1.278 . S
C121 O129 1.224 . S
O122 C121 1.278 . S
C123 O124 1.245 . S
C123 O135 1.232 . S
O124 C123 1.245 . S
O125 Co119 2.058 . S
O125 C151 1.269 . S
O126 Co118 2.074 . S
O126 C151 1.257 . S
H127 C152 0.930 . S
H128 C158 0.930 . S
O129 Co118 2.093 . S
O129 C121 1.224 . S
H130 C162 0.929 . S
H131 C164 0.930 . S
H132 C165 0.930 . S
H133 C163 0.929 . S
H134 C166 0.928 . S
O135 Co119 2.057 . S
O135 C123 1.232 . S
H136 C155 0.929 . S
H137 C156 0.929 . S
H138 C168 0.931 . S
H139 C160 0.929 . S
H140 C169 0.930 . S
H141 C161 0.931 1_565 S
O142 Co118 2.097 . S
O142 C170 1.214 . S
H143 C171 0.929 . S
H144 C172 0.929 . S
H145 C173 0.930 . S
H146 C174 0.929 . S
H147 C176 0.930 . S
H148 C153 0.930 . S
H149 C157 0.930 . S
O150 Co119 2.037 . S
O150 C170 1.234 . S
C151 O125 1.269 . S
C151 O126 1.257 . S
C152 H127 0.930 . S
C152 C155 1.388 . S
C152 C157 1.418 . S
C153 H148 0.930 . S
C153 C156 1.404 . S
C153 C157 1.353 . S
N154 Co119 2.145 . S
N154 C155 1.397 . S
N154 C156 1.334 . S
C155 H136 0.929 . S
C155 C152 1.388 . S
C155 N154 1.397 . S
C156 H137 0.929 . S
C156 C153 1.404 . S
C156 N154 1.334 . S
C157 H149 0.930 . S
C157 C152 1.418 . S
C157 C153 1.353 . S
C158 H128 0.930 . S
C158 N159 1.330 . S
C158 C160 1.446 . S
N159 Co118 2.151 . S
N159 C158 1.330 . S
N159 C163 1.418 . S
C160 H139 0.929 . S
C160 C158 1.446 . S
C160 C161 1.332 . S
C161 H141 0.931 1_545 S
C161 C160 1.332 . S
C161 C162 1.267 . S
C162 H130 0.929 . S
C162 C161 1.267 . S
C162 C163 1.251 . S
C163 H133 0.929 . S
C163 N159 1.418 . S
C163 C162 1.251 . S
C164 H131 0.930 . S
C164 C166 1.406 . S
C164 C169 1.261 . S
C165 H132 0.930 . S
C165 N167 1.325 . S
C165 C168 1.357 . S
C166 H134 0.928 . S
C166 C164 1.406 . S
C166 N167 1.261 . S
N167 Co118 2.214 . S
N167 C165 1.325 . S
N167 C166 1.261 . S
C168 H138 0.931 . S
C168 C165 1.357 . S
C168 C169 1.312 . S
C169 H140 0.930 . S
C169 C164 1.261 . S
C169 C168 1.312 . S
C170 O142 1.214 . S
C170 O150 1.234 . S
C171 H143 0.929 . S
C171 C174 1.391 . S
C171 C176 1.391 . S
C172 H144 0.929 . S
C172 C173 1.390 . S
C172 N175 1.391 . S
C173 H145 0.930 . S
C173 C172 1.390 . S
C173 C174 1.392 . S
C174 H146 0.929 . S
C174 C171 1.391 . S
C174 C173 1.392 . S
N175 Co119 2.257 . S
N175 C172 1.391 . S
N175 C176 1.388 . S
C176 H147 0.930 . S
C176 C171 1.391 . S
C176 N175 1.388 . S
Co177 O179 2.143 . S
Co177 O185 2.074 . S
Co177 O188 2.093 . S
Co177 O201 2.097 . S
Co177 N218 2.151 . S
Co177 N226 2.214 . S
Co178 O179 2.160 . S
Co178 O184 2.058 . S
Co178 O194 2.057 . S
Co178 O209 2.037 . S
Co178 N213 2.145 . S
Co178 N234 2.257 . S
O179 Co177 2.143 . S
O179 Co178 2.160 . S
C180 O181 1.278 . S
C180 O188 1.224 . S
O181 C180 1.278 . S
C182 O183 1.245 . S
C182 O194 1.232 . S
O183 C182 1.245 . S
O184 Co178 2.058 . S
O184 C210 1.269 . S
O185 Co177 2.074 . S
O185 C210 1.257 . S
H186 C211 0.930 . S
H187 C217 0.930 . S
O188 Co177 2.093 . S
O188 C180 1.224 . S
H189 C221 0.929 . S
H190 C223 0.930 . S
H191 C224 0.930 . S
H192 C222 0.929 . S
H193 C225 0.928 . S
O194 Co178 2.057 . S
O194 C182 1.232 . S
H195 C214 0.929 . S
H196 C215 0.929 . S
H197 C227 0.931 . S
H198 C219 0.929 . S
H199 C228 0.930 . S
H200 C220 0.931 1_545 S
O201 Co177 2.097 . S
O201 C229 1.214 . S
H202 C230 0.929 . S
H203 C231 0.929 . S
H204 C232 0.930 . S
H205 C233 0.929 . S
H206 C235 0.930 . S
H207 C212 0.930 . S
H208 C216 0.930 . S
O209 Co178 2.037 . S
O209 C229 1.234 . S
C210 O184 1.269 . S
C210 O185 1.257 . S
C211 H186 0.930 . S
C211 C214 1.388 . S
C211 C216 1.418 . S
C212 H207 0.930 . S
C212 C215 1.404 . S
C212 C216 1.353 . S
N213 Co178 2.145 . S
N213 C214 1.397 . S
N213 C215 1.334 . S
C214 H195 0.929 . S
C214 C211 1.388 . S
C214 N213 1.397 . S
C215 H196 0.929 . S
C215 C212 1.404 . S
C215 N213 1.334 . S
C216 H208 0.930 . S
C216 C211 1.418 . S
C216 C212 1.353 . S
C217 H187 0.930 . S
C217 N218 1.330 . S
C217 C219 1.446 . S
N218 Co177 2.151 . S
N218 C217 1.330 . S
N218 C222 1.418 . S
C219 H198 0.929 . S
C219 C217 1.446 . S
C219 C220 1.332 . S
C220 H200 0.931 1_565 S
C220 C219 1.332 . S
C220 C221 1.267 . S
C221 H189 0.929 . S
C221 C220 1.267 . S
C221 C222 1.251 . S
C222 H192 0.929 . S
C222 N218 1.418 . S
C222 C221 1.251 . S
C223 H190 0.930 . S
C223 C225 1.406 . S
C223 C228 1.261 . S
C224 H191 0.930 . S
C224 N226 1.325 . S
C224 C227 1.357 . S
C225 H193 0.928 . S
C225 C223 1.406 . S
C225 N226 1.261 . S
N226 Co177 2.214 . S
N226 C224 1.325 . S
N226 C225 1.261 . S
C227 H197 0.931 . S
C227 C224 1.357 . S
C227 C228 1.312 . S
C228 H199 0.930 . S
C228 C223 1.261 . S
C228 C227 1.312 . S
C229 O201 1.214 . S
C229 O209 1.234 . S
C230 H202 0.929 . S
C230 C233 1.391 . S
C230 C235 1.391 . S
C231 H203 0.929 . S
C231 C232 1.390 . S
C231 N234 1.391 . S
C232 H204 0.930 . S
C232 C231 1.390 . S
C232 C233 1.392 . S
C233 H205 0.929 . S
C233 C230 1.391 . S
C233 C232 1.392 . S
N234 Co178 2.257 . S
N234 C231 1.391 . S
N234 C235 1.388 . S
C235 H206 0.930 . S
C235 C230 1.391 . S
C235 N234 1.388 . S
Co236 O238 2.143 . S
Co236 O244 2.074 . S
Co236 O247 2.093 . S
Co236 O260 2.097 . S
Co236 N277 2.151 . S
Co236 N285 2.214 . S
Co237 O238 2.160 . S
Co237 O243 2.058 . S
Co237 O253 2.062 . S
Co237 O268 2.037 . S
Co237 N272 2.145 1_556 S
Co237 N293 2.257 . S
O238 Co236 2.143 . S
O238 Co237 2.160 . S
C239 O240 1.278 . S
C239 O247 1.224 . S
O240 C239 1.278 . S
C241 O242 1.245 . S
C241 O253 1.250 . S
O242 C241 1.245 . S
O243 Co237 2.058 . S
O243 C269 1.269 . S
O244 Co236 2.074 . S
O244 C269 1.257 . S
H245 C270 0.930 . S
H246 C276 0.930 . S
O247 Co236 2.093 . S
O247 C239 1.224 . S
H248 C280 0.929 . S
H249 C282 0.930 . S
H250 C283 0.930 . S
H251 C281 0.929 . S
H252 C284 0.928 . S
O253 Co237 2.062 . S
O253 C241 1.250 . S
H254 C273 0.929 . S
H255 C274 0.929 . S
H256 C286 0.931 . S
H257 C278 0.929 . S
H258 C287 0.930 . S
H259 C279 0.931 . S
O260 Co236 2.097 . S
O260 C288 1.214 . S
H261 C289 0.929 . S
H262 C290 0.929 1_554 S
H263 C291 0.930 . S
H264 C292 0.929 . S
H265 C294 0.930 . S
H266 C271 0.930 . S
H267 C275 0.930 . S
O268 Co237 2.037 . S
O268 C288 1.234 . S
C269 O243 1.269 . S
C269 O244 1.257 . S
C270 H245 0.930 . S
C270 C273 1.388 . S
C270 C275 1.418 . S
C271 H266 0.930 . S
C271 C274 1.404 . S
C271 C275 1.353 . S
N272 Co237 2.145 1_554 S
N272 C273 1.397 . S
N272 C274 1.334 . S
C273 H254 0.929 . S
C273 C270 1.388 . S
C273 N272 1.397 . S
C274 H255 0.929 . S
C274 C271 1.404 . S
C274 N272 1.334 . S
C275 H267 0.930 . S
C275 C270 1.418 . S
C275 C271 1.353 . S
C276 H246 0.930 . S
C276 N277 1.330 . S
C276 C278 1.446 . S
N277 Co236 2.151 . S
N277 C276 1.330 . S
N277 C281 1.418 . S
C278 H257 0.929 . S
C278 C276 1.446 . S
C278 C279 1.332 . S
C279 H259 0.931 . S
C279 C278 1.332 . S
C279 C280 1.267 . S
C280 H248 0.929 . S
C280 C279 1.267 . S
C280 C281 1.251 . S
C281 H251 0.929 . S
C281 N277 1.418 . S
C281 C280 1.251 . S
C282 H249 0.930 . S
C282 C284 1.406 . S
C282 C287 1.261 . S
C283 H250 0.930 . S
C283 N285 1.325 . S
C283 C286 1.357 . S
C284 H252 0.928 . S
C284 C282 1.406 . S
C284 N285 1.261 . S
N285 Co236 2.214 . S
N285 C283 1.325 . S
N285 C284 1.261 . S
C286 H256 0.931 . S
C286 C283 1.357 . S
C286 C287 1.312 . S
C287 H258 0.930 . S
C287 C282 1.261 . S
C287 C286 1.312 . S
C288 O260 1.214 . S
C288 O268 1.234 . S
C289 H261 0.929 . S
C289 C292 1.391 . S
C289 C294 1.391 . S
C290 H262 0.929 1_556 S
C290 C291 1.390 . S
C290 N293 1.391 . S
C291 H263 0.930 . S
C291 C290 1.390 . S
C291 C292 1.392 . S
C292 H264 0.929 . S
C292 C289 1.391 . S
C292 C291 1.392 . S
N293 Co237 2.257 . S
N293 C290 1.391 . S
N293 C294 1.388 . S
C294 H265 0.930 . S
C294 C289 1.391 . S
C294 N293 1.388 . S
Co295 O297 2.143 . S
Co295 O303 2.074 . S
Co295 O306 2.093 . S
Co295 O319 2.097 . S
Co295 N336 2.151 . S
Co295 N344 2.214 . S
Co296 O297 2.160 . S
Co296 O302 2.058 . S
Co296 O312 2.062 . S
Co296 O327 2.037 . S
Co296 N331 2.145 1_556 S
Co296 N352 2.257 . S
O297 Co295 2.143 . S
O297 Co296 2.160 . S
C298 O299 1.278 . S
C298 O306 1.224 . S
O299 C298 1.278 . S
C300 O301 1.245 . S
C300 O312 1.250 . S
O301 C300 1.245 . S
O302 Co296 2.058 . S
O302 C328 1.269 . S
O303 Co295 2.074 . S
O303 C328 1.257 . S
H304 C329 0.930 . S
H305 C335 0.930 . S
O306 Co295 2.093 . S
O306 C298 1.224 . S
H307 C339 0.929 . S
H308 C341 0.930 . S
H309 C342 0.930 . S
H310 C340 0.929 . S
H311 C343 0.928 . S
O312 Co296 2.062 . S
O312 C300 1.250 . S
H313 C332 0.929 . S
H314 C333 0.929 . S
H315 C345 0.931 . S
H316 C337 0.929 . S
H317 C346 0.930 . S
H318 C338 0.931 . S
O319 Co295 2.097 . S
O319 C347 1.214 . S
H320 C348 0.929 . S
H321 C349 0.929 1_554 S
H322 C350 0.930 . S
H323 C351 0.929 . S
H324 C353 0.930 . S
H325 C330 0.930 . S
H326 C334 0.930 . S
O327 Co296 2.037 . S
O327 C347 1.234 . S
C328 O302 1.269 . S
C328 O303 1.257 . S
C329 H304 0.930 . S
C329 C332 1.388 . S
C329 C334 1.418 . S
C330 H325 0.930 . S
C330 C333 1.404 . S
C330 C334 1.353 . S
N331 Co296 2.145 1_554 S
N331 C332 1.397 . S
N331 C333 1.334 . S
C332 H313 0.929 . S
C332 C329 1.388 . S
C332 N331 1.397 . S
C333 H314 0.929 . S
C333 C330 1.404 . S
C333 N331 1.334 . S
C334 H326 0.930 . S
C334 C329 1.418 . S
C334 C330 1.353 . S
C335 H305 0.930 . S
C335 N336 1.330 . S
C335 C337 1.446 . S
N336 Co295 2.151 . S
N336 C335 1.330 . S
N336 C340 1.418 . S
C337 H316 0.929 . S
C337 C335 1.446 . S
C337 C338 1.332 . S
C338 H318 0.931 . S
C338 C337 1.332 . S
C338 C339 1.267 . S
C339 H307 0.929 . S
C339 C338 1.267 . S
C339 C340 1.251 . S
C340 H310 0.929 . S
C340 N336 1.418 . S
C340 C339 1.251 . S
C341 H308 0.930 . S
C341 C343 1.406 . S
C341 C346 1.261 . S
C342 H309 0.930 . S
C342 N344 1.325 . S
C342 C345 1.357 . S
C343 H311 0.928 . S
C343 C341 1.406 . S
C343 N344 1.261 . S
N344 Co295 2.214 . S
N344 C342 1.325 . S
N344 C343 1.261 . S
C345 H315 0.931 . S
C345 C342 1.357 . S
C345 C346 1.312 . S
C346 H317 0.930 . S
C346 C341 1.261 . S
C346 C345 1.312 . S
C347 O319 1.214 . S
C347 O327 1.234 . S
C348 H320 0.929 . S
C348 C351 1.391 . S
C348 C353 1.391 . S
C349 H321 0.929 1_556 S
C349 C350 1.390 . S
C349 N352 1.391 . S
C350 H322 0.930 . S
C350 C349 1.390 . S
C350 C351 1.392 . S
C351 H323 0.929 . S
C351 C348 1.391 . S
C351 C350 1.392 . S
N352 Co296 2.257 . S
N352 C349 1.391 . S
N352 C353 1.388 . S
C353 H324 0.930 . S
C353 C348 1.391 . S
C353 N352 1.388 . S
Co354 O356 2.143 . S
Co354 O362 2.074 . S
Co354 O365 2.093 . S
Co354 O378 2.097 . S
Co354 N395 2.151 . S
Co354 N403 2.214 . S
Co355 O356 2.160 . S
Co355 O361 2.058 . S
Co355 O371 2.057 . S
Co355 O386 2.037 . S
Co355 N390 2.145 . S
Co355 N411 2.257 . S
O356 Co354 2.143 . S
O356 Co355 2.160 . S
C357 O358 1.278 . S
C357 O365 1.224 . S
O358 C357 1.278 . S
C359 O360 1.245 . S
C359 O371 1.232 . S
O360 C359 1.245 . S
O361 Co355 2.058 . S
O361 C387 1.269 . S
O362 Co354 2.074 . S
O362 C387 1.257 . S
H363 C388 0.930 . S
H364 C394 0.930 . S
O365 Co354 2.093 . S
O365 C357 1.224 . S
H366 C398 0.929 . S
H367 C400 0.930 . S
H368 C401 0.930 . S
H369 C399 0.929 . S
H370 C402 0.928 . S
O371 Co355 2.057 . S
O371 C359 1.232 . S
H372 C391 0.929 . S
H373 C392 0.929 . S
H374 C404 0.931 . S
H375 C396 0.929 . S
H376 C405 0.930 . S
H377 C397 0.931 1_545 S
O378 Co354 2.097 . S
O378 C406 1.214 . S
H379 C407 0.929 . S
H380 C408 0.929 . S
H381 C409 0.930 . S
H382 C410 0.929 . S
H383 C412 0.930 . S
H384 C389 0.930 . S
H385 C393 0.930 . S
O386 Co355 2.037 . S
O386 C406 1.234 . S
C387 O361 1.269 . S
C387 O362 1.257 . S
C388 H363 0.930 . S
C388 C391 1.388 . S
C388 C393 1.418 . S
C389 H384 0.930 . S
C389 C392 1.404 . S
C389 C393 1.353 . S
N390 Co355 2.145 . S
N390 C391 1.397 . S
N390 C392 1.334 . S
C391 H372 0.929 . S
C391 C388 1.388 . S
C391 N390 1.397 . S
C392 H373 0.929 . S
C392 C389 1.404 . S
C392 N390 1.334 . S
C393 H385 0.930 . S
C393 C388 1.418 . S
C393 C389 1.353 . S
C394 H364 0.930 . S
C394 N395 1.330 . S
C394 C396 1.446 . S
N395 Co354 2.151 . S
N395 C394 1.330 . S
N395 C399 1.418 . S
C396 H375 0.929 . S
C396 C394 1.446 . S
C396 C397 1.332 . S
C397 H377 0.931 1_565 S
C397 C396 1.332 . S
C397 C398 1.267 . S
C398 H366 0.929 . S
C398 C397 1.267 . S
C398 C399 1.251 . S
C399 H369 0.929 . S
C399 N395 1.418 . S
C399 C398 1.251 . S
C400 H367 0.930 . S
C400 C402 1.406 . S
C400 C405 1.261 . S
C401 H368 0.930 . S
C401 N403 1.325 . S
C401 C404 1.357 . S
C402 H370 0.928 . S
C402 C400 1.406 . S
C402 N403 1.261 . S
N403 Co354 2.214 . S
N403 C401 1.325 . S
N403 C402 1.261 . S
C404 H374 0.931 . S
C404 C401 1.357 . S
C404 C405 1.312 . S
C405 H376 0.930 . S
C405 C400 1.261 . S
C405 C404 1.312 . S
C406 O378 1.214 . S
C406 O386 1.234 . S
C407 H379 0.929 . S
C407 C410 1.391 . S
C407 C412 1.391 . S
C408 H380 0.929 . S
C408 C409 1.390 . S
C408 N411 1.391 . S
C409 H381 0.930 . S
C409 C408 1.390 . S
C409 C410 1.392 . S
C410 H382 0.929 . S
C410 C407 1.391 . S
C410 C409 1.392 . S
N411 Co355 2.257 . S
N411 C408 1.391 . S
N411 C412 1.388 . S
C412 H383 0.930 . S
C412 C407 1.391 . S
C412 N411 1.388 . S
Co413 O415 2.143 . S
Co413 O421 2.074 . S
Co413 O424 2.093 . S
Co413 O437 2.097 . S
Co413 N454 2.151 . S
Co413 N462 2.214 . S
Co414 O415 2.160 . S
Co414 O420 2.058 . S
Co414 O430 2.057 . S
Co414 O445 2.037 . S
Co414 N449 2.145 . S
Co414 N470 2.257 . S
O415 Co413 2.143 . S
O415 Co414 2.160 . S
C416 O417 1.278 . S
C416 O424 1.224 . S
O417 C416 1.278 . S
C418 O419 1.245 . S
C418 O430 1.232 . S
O419 C418 1.245 . S
O420 Co414 2.058 . S
O420 C446 1.269 . S
O421 Co413 2.074 . S
O421 C446 1.257 . S
H422 C447 0.930 . S
H423 C453 0.930 . S
O424 Co413 2.093 . S
O424 C416 1.224 . S
H425 C457 0.929 . S
H426 C459 0.930 . S
H427 C460 0.930 . S
H428 C458 0.929 . S
H429 C461 0.928 . S
O430 Co414 2.057 . S
O430 C418 1.232 . S
H431 C450 0.929 . S
H432 C451 0.929 . S
H433 C463 0.931 . S
H434 C455 0.929 . S
H435 C464 0.930 . S
H436 C456 0.931 1_565 S
O437 Co413 2.097 . S
O437 C465 1.214 . S
H438 C466 0.929 . S
H439 C467 0.929 . S
H440 C468 0.930 . S
H441 C469 0.929 . S
H442 C471 0.930 . S
H443 C448 0.930 . S
H444 C452 0.930 . S
O445 Co414 2.037 . S
O445 C465 1.234 . S
C446 O420 1.269 . S
C446 O421 1.257 . S
C447 H422 0.930 . S
C447 C450 1.388 . S
C447 C452 1.418 . S
C448 H443 0.930 . S
C448 C451 1.404 . S
C448 C452 1.353 . S
N449 Co414 2.145 . S
N449 C450 1.397 . S
N449 C451 1.334 . S
C450 H431 0.929 . S
C450 C447 1.388 . S
C450 N449 1.397 . S
C451 H432 0.929 . S
C451 C448 1.404 . S
C451 N449 1.334 . S
C452 H444 0.930 . S
C452 C447 1.418 . S
C452 C448 1.353 . S
C453 H423 0.930 . S
C453 N454 1.330 . S
C453 C455 1.446 . S
N454 Co413 2.151 . S
N454 C453 1.330 . S
N454 C458 1.418 . S
C455 H434 0.929 . S
C455 C453 1.446 . S
C455 C456 1.332 . S
C456 H436 0.931 1_545 S
C456 C455 1.332 . S
C456 C457 1.267 . S
C457 H425 0.929 . S
C457 C456 1.267 . S
C457 C458 1.251 . S
C458 H428 0.929 . S
C458 N454 1.418 . S
C458 C457 1.251 . S
C459 H426 0.930 . S
C459 C461 1.406 . S
C459 C464 1.261 . S
C460 H427 0.930 . S
C460 N462 1.325 . S
C460 C463 1.357 . S
C461 H429 0.928 . S
C461 C459 1.406 . S
C461 N462 1.261 . S
N462 Co413 2.214 . S
N462 C460 1.325 . S
N462 C461 1.261 . S
C463 H433 0.931 . S
C463 C460 1.357 . S
C463 C464 1.312 . S
C464 H435 0.930 . S
C464 C459 1.261 . S
C464 C463 1.312 . S
C465 O437 1.214 . S
C465 O445 1.234 . S
C466 H438 0.929 . S
C466 C469 1.391 . S
C466 C471 1.391 . S
C467 H439 0.929 . S
C467 C468 1.390 . S
C467 N470 1.391 . S
C468 H440 0.930 . S
C468 C467 1.390 . S
C468 C469 1.392 . S
C469 H441 0.929 . S
C469 C466 1.391 . S
C469 C468 1.392 . S
N470 Co414 2.257 . S
N470 C467 1.391 . S
N470 C471 1.388 . S
C471 H442 0.930 . S
C471 C466 1.391 . S
C471 N470 1.388 . S
H472 C478 0.930 . S
H473 C482 0.930 . S
H474 C487 0.929 . S
H475 C485 0.929 . S
H476 C480 0.929 . S
H477 C486 0.929 . S
C478 H472 0.930 . S
C478 C479 1.367 . S
C478 C486 1.378 . S
C479 C478 1.367 . S
C479 C487 1.433 . S
C480 H476 0.929 . S
C480 C482 1.378 . S
C480 C484 1.350 . S
C481 C484 1.463 1_545 S
C481 C486 1.350 . S
C481 N489 1.427 1_545 S
C482 H473 0.930 . S
C482 C480 1.378 . S
C482 C483 1.367 . S
C483 C482 1.367 . S
C483 C485 1.433 . S
C484 C480 1.350 . S
C484 C481 1.463 1_565 S
C484 N488 1.427 1_565 S
C485 H475 0.929 . S
C485 C483 1.433 . S
C485 N488 1.384 1_565 S
C486 H477 0.929 . S
C486 C478 1.378 . S
C486 C481 1.350 . S
C487 H474 0.929 . S
C487 C479 1.433 . S
C487 N489 1.384 1_545 S
N488 C484 1.427 1_545 S
N488 C485 1.384 1_545 S
N489 C481 1.427 1_565 S
N489 C487 1.384 1_565 S
H490 C496 0.930 . S
H491 C500 0.930 . S
H492 C505 0.929 . S
H493 C503 0.929 . S
H494 C498 0.929 . S
H495 C504 0.929 . S
C496 H490 0.930 . S
C496 C497 1.367 . S
C496 C504 1.378 . S
C497 C496 1.367 . S
C497 C505 1.433 . S
C498 H494 0.929 . S
C498 C500 1.378 . S
C498 C502 1.350 . S
C499 C502 1.463 . S
C499 C504 1.350 . S
C499 N507 1.427 . S
C500 H491 0.930 . S
C500 C498 1.378 . S
C500 C501 1.367 . S
C501 C500 1.367 . S
C501 C503 1.433 . S
C502 C498 1.350 . S
C502 C499 1.463 . S
C502 N506 1.427 . S
C503 H493 0.929 . S
C503 C501 1.433 . S
C503 N506 1.384 . S
C504 H495 0.929 . S
C504 C496 1.378 . S
C504 C499 1.350 . S
C505 H492 0.929 . S
C505 C497 1.433 . S
C505 N507 1.384 . S
N506 C502 1.427 . S
N506 C503 1.384 . S
N507 C499 1.427 . S
N507 C505 1.384 . S
H508 C514 0.930 . S
H509 C518 0.930 . S
H510 C523 0.929 . S
H511 C521 0.929 . S
H512 C516 0.929 . S
H513 C522 0.929 . S
C514 H508 0.930 . S
C514 C515 1.367 . S
C514 C522 1.378 . S
C515 C514 1.367 . S
C515 C523 1.433 . S
C516 H512 0.929 . S
C516 C518 1.378 . S
C516 C520 1.350 . S
C517 C520 1.463 1_565 S
C517 C522 1.350 . S
C517 N525 1.423 1_565 S
C518 H509 0.930 . S
C518 C516 1.378 . S
C518 C519 1.367 . S
C519 C518 1.367 . S
C519 C521 1.433 . S
C520 C516 1.350 . S
C520 C517 1.463 1_545 S
C520 N524 1.423 1_545 S
C521 H511 0.929 . S
C521 C519 1.433 . S
C521 N524 1.376 1_545 S
C522 H513 0.929 . S
C522 C514 1.378 . S
C522 C517 1.350 . S
C523 H510 0.929 . S
C523 C515 1.433 . S
C523 N525 1.376 1_565 S
N524 C520 1.423 1_565 S
N524 C521 1.376 1_565 S
N525 C517 1.423 1_545 S
N525 C523 1.376 1_545 S
H526 C532 0.930 . S
H527 C536 0.930 . S
H528 C541 0.929 . S
H529 C539 0.929 . S
H530 C534 0.929 . S
H531 C540 0.929 . S
C532 H526 0.930 . S
C532 C533 1.367 . S
C532 C540 1.378 . S
C533 C532 1.367 . S
C533 C541 1.433 . S
C534 H530 0.929 . S
C534 C536 1.378 . S
C534 C538 1.350 . S
C535 C538 1.463 . S
C535 C540 1.350 . S
C535 N543 1.427 . S
C536 H527 0.930 . S
C536 C534 1.378 . S
C536 C537 1.367 . S
C537 C536 1.367 . S
C537 C539 1.433 . S
C538 C534 1.350 . S
C538 C535 1.463 . S
C538 N542 1.427 . S
C539 H529 0.929 . S
C539 C537 1.433 . S
C539 N542 1.384 . S
C540 H531 0.929 . S
C540 C532 1.378 . S
C540 C535 1.350 . S
C541 H528 0.929 . S
C541 C533 1.433 . S
C541 N543 1.384 . S
N542 C538 1.427 . S
N542 C539 1.384 . S
N543 C535 1.427 . S
N543 C541 1.384 . S
H544 C550 0.930 . S
H545 C554 0.930 . S
H546 C559 0.929 . S
H547 C557 0.929 . S
H548 C552 0.929 . S
H549 C558 0.929 . S
C550 H544 0.930 . S
C550 C551 1.367 . S
C550 C558 1.378 . S
C551 C550 1.367 . S
C551 C559 1.433 . S
C552 H548 0.929 . S
C552 C554 1.378 . S
C552 C556 1.350 . S
C553 C556 1.463 . S
C553 C558 1.350 . S
C553 N561 1.427 . S
C554 H545 0.930 . S
C554 C552 1.378 . S
C554 C555 1.367 . S
C555 C554 1.367 . S
C555 C557 1.433 . S
C556 C552 1.350 . S
C556 C553 1.463 . S
C556 N560 1.427 . S
C557 H547 0.929 . S
C557 C555 1.433 . S
C557 N560 1.384 . S
C558 H549 0.929 . S
C558 C550 1.378 . S
C558 C553 1.350 . S
C559 H546 0.929 . S
C559 C551 1.433 . S
C559 N561 1.384 . S
N560 C556 1.427 . S
N560 C557 1.384 . S
N561 C553 1.427 . S
N561 C559 1.384 . S
H562 C568 0.930 . S
H563 C572 0.930 . S
H564 C577 0.929 . S
H565 C575 0.929 . S
H566 C570 0.929 . S
H567 C576 0.929 . S
C568 H562 0.930 . S
C568 C569 1.367 . S
C568 C576 1.378 . S
C569 C568 1.367 . S
C569 C577 1.433 . S
C570 H566 0.929 . S
C570 C572 1.378 . S
C570 C574 1.350 . S
C571 C574 1.463 . S
C571 C576 1.350 . S
C571 N579 1.427 . S
C572 H563 0.930 . S
C572 C570 1.378 . S
C572 C573 1.367 . S
C573 C572 1.367 . S
C573 C575 1.433 . S
C574 C570 1.350 . S
C574 C571 1.463 . S
C574 N578 1.427 . S
C575 H565 0.929 . S
C575 C573 1.433 . S
C575 N578 1.384 . S
C576 H567 0.929 . S
C576 C568 1.378 . S
C576 C571 1.350 . S
C577 H564 0.929 . S
C577 C569 1.433 . S
C577 N579 1.384 . S
N578 C574 1.427 . S
N578 C575 1.384 . S
N579 C571 1.427 . S
N579 C577 1.384 . S
H580 C586 0.930 . S
H581 C590 0.930 . S
H582 C595 0.929 . S
H583 C593 0.929 . S
H584 C588 0.929 . S
H585 C594 0.929 . S
C586 H580 0.930 . S
C586 C587 1.367 . S
C586 C594 1.378 . S
C587 C586 1.367 . S
C587 C595 1.433 . S
C588 H584 0.929 . S
C588 C590 1.378 . S
C588 C592 1.350 . S
C589 C592 1.463 . S
C589 C594 1.350 . S
C589 N597 1.427 . S
C590 H581 0.930 . S
C590 C588 1.378 . S
C590 C591 1.367 . S
C591 C590 1.367 . S
C591 C593 1.433 . S
C592 C588 1.350 . S
C592 C589 1.463 . S
C592 N596 1.427 . S
C593 H583 0.929 . S
C593 C591 1.433 . S
C593 N596 1.384 . S
C594 H585 0.929 . S
C594 C586 1.378 . S
C594 C589 1.350 . S
C595 H582 0.929 . S
C595 C587 1.433 . S
C595 N597 1.384 . S
N596 C592 1.427 . S
N596 C593 1.384 . S
N597 C589 1.427 . S
N597 C595 1.384 . S
H598 C604 0.930 . S
H599 C608 0.930 . S
H600 C613 0.929 . S
H601 C611 0.929 . S
H602 C606 0.929 . S
H603 C612 0.929 . S
C604 H598 0.930 . S
C604 C605 1.367 . S
C604 C612 1.378 . S
C605 C604 1.367 . S
C605 C613 1.433 . S
C606 H602 0.929 . S
C606 C608 1.378 . S
C606 C610 1.350 . S
C607 C610 1.463 . S
C607 C612 1.350 . S
C607 N615 1.427 . S
C608 H599 0.930 . S
C608 C606 1.378 . S
C608 C609 1.367 . S
C609 C608 1.367 . S
C609 C611 1.433 . S
C610 C606 1.350 . S
C610 C607 1.463 . S
C610 N614 1.427 . S
C611 H601 0.929 . S
C611 C609 1.433 . S
C611 N614 1.384 . S
C612 H603 0.929 . S
C612 C604 1.378 . S
C612 C607 1.350 . S
C613 H600 0.929 . S
C613 C605 1.433 . S
C613 N615 1.384 . S
N614 C610 1.427 . S
N614 C611 1.384 . S
N615 C607 1.427 . S
N615 C613 1.384 . S
H616 C622 0.930 . S
H617 C626 0.930 . S
H618 C631 0.929 . S
H619 C629 0.929 . S
H620 C624 0.929 . S
H621 C630 0.929 . S
C622 H616 0.930 . S
C622 C623 1.367 1_556 S
C622 C630 1.378 . S
C623 C622 1.367 1_554 S
C623 C631 1.433 . S
C624 H620 0.929 . S
C624 C626 1.378 . S
C624 C628 1.350 1_554 S
C625 C628 1.463 1_554 S
C625 C630 1.350 1_554 S
C625 N633 1.427 . S
C626 H617 0.930 . S
C626 C624 1.378 . S
C626 C627 1.367 1_554 S
C627 C626 1.367 1_556 S
C627 C629 1.433 . S
C628 C624 1.350 1_556 S
C628 C625 1.463 1_556 S
C628 N632 1.427 . S
C629 H619 0.929 . S
C629 C627 1.433 . S
C629 N632 1.384 . S
C630 H621 0.929 . S
C630 C622 1.378 . S
C630 C625 1.350 1_556 S
C631 H618 0.929 . S
C631 C623 1.433 . S
C631 N633 1.384 . S
N632 C628 1.427 . S
N632 C629 1.384 . S
N633 C625 1.427 . S
N633 C631 1.384 . S
H634 C640 0.930 . S
H635 C644 0.930 . S
H636 C649 0.929 . S
H637 C647 0.929 . S
H638 C642 0.929 1_455 S
H639 C648 0.929 1_655 S
C640 H634 0.930 . S
C640 C641 1.367 . S
C640 C648 1.378 . S
C641 C640 1.367 . S
C641 C649 1.433 1_554 S
C642 H638 0.929 1_655 S
C642 C644 1.378 . S
C642 C646 1.350 . S
C643 C646 1.463 1_454 S
C643 C648 1.350 . S
C643 N651 1.427 1_554 S
C644 H635 0.930 . S
C644 C642 1.378 . S
C644 C645 1.367 . S
C645 C644 1.367 . S
C645 C647 1.433 1_556 S
C646 C642 1.350 . S
C646 C643 1.463 1_656 S
C646 N650 1.427 1_556 S
C647 H637 0.929 . S
C647 C645 1.433 1_554 S
C647 N650 1.384 . S
C648 H639 0.929 1_455 S
C648 C640 1.378 . S
C648 C643 1.350 . S
C649 H636 0.929 . S
C649 C641 1.433 1_556 S
C649 N651 1.384 . S
N650 C646 1.427 1_554 S
N650 C647 1.384 . S
N651 C643 1.427 1_556 S
N651 C649 1.384 . S
H652 C658 0.930 . S
H653 C662 0.930 . S
H654 C667 0.929 . S
H655 C665 0.929 . S
H656 C660 0.929 . S
H657 C666 0.929 . S
C658 H652 0.930 . S
C658 C659 1.367 . S
C658 C666 1.378 . S
C659 C658 1.367 . S
C659 C667 1.433 . S
C660 H656 0.929 . S
C660 C662 1.378 . S
C660 C664 1.350 . S
C661 C664 1.463 1_565 S
C661 C666 1.350 . S
C661 N669 1.427 . S
C662 H653 0.930 . S
C662 C660 1.378 . S
C662 C663 1.367 . S
C663 C662 1.367 . S
C663 C665 1.433 . S
C664 C660 1.350 . S
C664 C661 1.463 1_545 S
C664 N668 1.427 . S
C665 H655 0.929 . S
C665 C663 1.433 . S
C665 N668 1.384 . S
C666 H657 0.929 . S
C666 C658 1.378 . S
C666 C661 1.350 . S
C667 H654 0.929 . S
C667 C659 1.433 . S
C667 N669 1.384 . S
N668 C664 1.427 . S
N668 C665 1.384 . S
N669 C661 1.427 . S
N669 C667 1.384 . S
H670 C676 0.930 . S
H671 C680 0.930 . S
H672 C685 0.929 . S
H673 C683 0.929 . S
H674 C678 0.929 . S
H675 C684 0.929 . S
C676 H670 0.930 . S
C676 C677 1.367 . S
C676 C684 1.378 . S
C677 C676 1.367 . S
C677 C685 1.433 . S
C678 H674 0.929 . S
C678 C680 1.378 . S
C678 C682 1.350 . S
C679 C682 1.463 1_645 S
C679 C684 1.350 . S
C679 N687 1.427 . S
C680 H671 0.930 . S
C680 C678 1.378 . S
C680 C681 1.367 . S
C681 C680 1.367 . S
C681 C683 1.433 . S
C682 C678 1.350 . S
C682 C679 1.463 1_465 S
C682 N686 1.427 . S
C683 H673 0.929 . S
C683 C681 1.433 . S
C683 N686 1.384 . S
C684 H675 0.929 . S
C684 C676 1.378 . S
C684 C679 1.350 . S
C685 H672 0.929 . S
C685 C677 1.433 . S
C685 N687 1.384 . S
N686 C682 1.427 . S
N686 C683 1.384 . S
N687 C679 1.427 . S
N687 C685 1.384 . S
H688 C694 0.930 . S
H689 C698 0.930 1_556 S
H690 C703 0.918 1_556 S
H691 C701 0.929 . S
H692 C696 0.929 1_556 S
H693 C702 0.929 . S
C694 H688 0.930 . S
C694 C695 1.367 . S
C694 C702 1.378 . S
C695 C694 1.367 . S
C695 C703 1.446 . S
C696 H692 0.929 1_554 S
C696 C698 1.378 . S
C696 C700 1.350 . S
C697 C700 1.463 . S
C697 C702 1.350 . S
C697 N705 1.427 . S
C698 H689 0.930 1_554 S
C698 C696 1.378 . S
C698 C699 1.367 . S
C699 C698 1.367 . S
C699 C701 1.433 . S
C700 C696 1.350 . S
C700 C697 1.463 . S
C700 N704 1.427 . S
C701 H691 0.929 . S
C701 C699 1.433 . S
C701 N704 1.384 . S
C702 H693 0.929 . S
C702 C694 1.378 . S
C702 C697 1.350 . S
C703 H690 0.918 1_554 S
C703 C695 1.446 . S
C703 N705 1.384 . S
N704 C700 1.427 . S
N704 C701 1.384 . S
N705 C697 1.427 . S
N705 C703 1.384 . S
H706 C712 0.930 . S
H707 C716 0.930 . S
H708 C721 0.929 . S
H709 C719 0.929 . S
H710 C714 0.929 1_545 S
H711 C720 0.929 1_565 S
C712 H706 0.930 . S
C712 C713 1.367 . S
C712 C720 1.378 . S
C713 C712 1.367 . S
C713 C721 1.433 . S
C714 H710 0.929 1_565 S
C714 C716 1.378 . S
C714 C718 1.350 . S
C715 C718 1.463 1_545 S
C715 C720 1.350 . S
C715 N723 1.427 . S
C716 H707 0.930 . S
C716 C714 1.378 . S
C716 C717 1.367 . S
C717 C716 1.367 . S
C717 C719 1.433 . S
C718 C714 1.350 . S
C718 C715 1.463 1_565 S
C718 N722 1.427 . S
C719 H709 0.929 . S
C719 C717 1.433 . S
C719 N722 1.384 . S
C720 H711 0.929 1_545 S
C720 C712 1.378 . S
C720 C715 1.350 . S
C721 H708 0.929 . S
C721 C713 1.433 . S
C721 N723 1.384 . S
N722 C718 1.427 . S
N722 C719 1.384 . S
N723 C715 1.427 . S
N723 C721 1.384 . S
H724 C730 0.930 . S
H725 C734 0.930 . S
H726 C739 0.929 . S
H727 C737 0.929 . S
H728 C732 0.929 . S
H729 C738 0.929 . S
C730 H724 0.930 . S
C730 C731 1.367 1_554 S
C730 C738 1.378 . S
C731 C730 1.367 1_556 S
C731 C739 1.433 . S
C732 H728 0.929 . S
C732 C734 1.378 . S
C732 C736 1.350 . S
C733 C736 1.463 . S
C733 C738 1.350 1_556 S
C733 N741 1.427 . S
C734 H725 0.930 . S
C734 C732 1.378 . S
C734 C735 1.367 . S
C735 C734 1.367 . S
C735 C737 1.433 1_556 S
C736 C732 1.350 . S
C736 C733 1.463 . S
C736 N740 1.427 1_556 S
C737 H727 0.929 . S
C737 C735 1.433 1_554 S
C737 N740 1.384 . S
C738 H729 0.929 . S
C738 C730 1.378 . S
C738 C733 1.350 1_554 S
C739 H726 0.929 . S
C739 C731 1.433 . S
C739 N741 1.384 . S
N740 C736 1.427 1_554 S
N740 C737 1.384 . S
N741 C733 1.427 . S
N741 C739 1.384 . S
H742 C748 0.930 . S
H743 C752 0.930 . S
H744 C757 0.929 . S
H745 C755 0.929 . S
H746 C750 0.929 . S
H747 C756 0.929 . S
C748 H742 0.930 . S
C748 C749 1.367 . S
C748 C756 1.378 . S
C749 C748 1.367 . S
C749 C757 1.433 . S
C750 H746 0.929 . S
C750 C752 1.378 . S
C750 C754 1.350 . S
C751 C754 1.463 1_565 S
C751 C756 1.350 . S
C751 N759 1.427 . S
C752 H743 0.930 . S
C752 C750 1.378 . S
C752 C753 1.367 . S
C753 C752 1.367 . S
C753 C755 1.433 . S
C754 C750 1.350 . S
C754 C751 1.463 1_545 S
C754 N758 1.427 . S
C755 H745 0.929 . S
C755 C753 1.433 . S
C755 N758 1.384 . S
C756 H747 0.929 . S
C756 C748 1.378 . S
C756 C751 1.350 . S
C757 H744 0.929 . S
C757 C749 1.433 . S
C757 N759 1.384 . S
N758 C754 1.427 . S
N758 C755 1.384 . S
N759 C751 1.427 . S
N759 C757 1.384 . S
C479 C52 1.667 . S
C483 C111 1.667 . S
C497 C229 1.673 . S
C501 C170 1.667 . S
C515 C288 1.667 . S
C519 C347 1.668 . S
C533 C406 1.672 . S
C537 C465 1.666 . S
C551 C3 1.838 . S
C555 C121 1.847 . S
C569 C180 1.842 . S
C573 C62 1.850 . S
C587 C239 1.847 . S
C591 C357 1.847 . S
C605 C416 1.843 . S
C609 C298 1.840 . S
C623 C5 1.300 . S
C627 C241 1.300 . S
C641 C64 1.294 . S
C645 C300 1.294 . S
C659 C359 1.292 . S
C663 C123 1.292 . S
C677 C418 1.300 . S
C681 C182 1.300 . S
C695 C92 1.401 . S
C699 C33 1.406 . S
C713 C151 1.399 . S
C717 C210 1.408 . S
C731 C269 1.410 . S
C735 C328 1.398 . S
C749 C387 1.403 . S
C753 C446 1.406 . S
