# Generated by pormake.
# Topology mok, (4)-cn, num edge types: 1
# Building blocks:
#     Node 0, Type 0, BuildingBlock: QUQFOY_clean_sbu_1, # of connection points: 4
#     Node 1, Type 0, BuildingBlock: QUQFOY_clean_sbu_1, # of connection points: 4
#     Node 2, Type 0, BuildingBlock: QUQFOY_clean_sbu_1, # of connection points: 4
#     Node 3, Type 0, BuildingBlock: QUQFOY_clean_sbu_1, # of connection points: 4
#     Node 4, Type 0, BuildingBlock: QUQFOY_clean_sbu_1, # of connection points: 4
#     Node 5, Type 0, BuildingBlock: QUQFOY_clean_sbu_1, # of connection points: 4
#     Node 6, Type 0, BuildingBlock: QUQFOY_clean_sbu_1, # of connection points: 4
#     Node 7, Type 0, BuildingBlock: QUQFOY_clean_sbu_1, # of connection points: 4
#     Edge 8, Type (0, 0), BuildingBlock: MIFKUJ_clean_linker_0, # of connection points: 2
#     Edge 9, Type (0, 0), BuildingBlock: MIFKUJ_clean_linker_0, # of connection points: 2
#     Edge 10, Type (0, 0), BuildingBlock: MIFKUJ_clean_linker_0, # of connection points: 2
#     Edge 11, Type (0, 0), BuildingBlock: MIFKUJ_clean_linker_0, # of connection points: 2
#     Edge 12, Type (0, 0), BuildingBlock: MIFKUJ_clean_linker_0, # of connection points: 2
#     Edge 13, Type (0, 0), BuildingBlock: MIFKUJ_clean_linker_0, # of connection points: 2
#     Edge 14, Type (0, 0), BuildingBlock: MIFKUJ_clean_linker_0, # of connection points: 2
#     Edge 15, Type (0, 0), BuildingBlock: MIFKUJ_clean_linker_0, # of connection points: 2
#     Edge 16, Type (0, 0), BuildingBlock: MIFKUJ_clean_linker_0, # of connection points: 2
#     Edge 17, Type (0, 0), BuildingBlock: MIFKUJ_clean_linker_0, # of connection points: 2
#     Edge 18, Type (0, 0), BuildingBlock: MIFKUJ_clean_linker_0, # of connection points: 2
#     Edge 19, Type (0, 0), BuildingBlock: MIFKUJ_clean_linker_0, # of connection points: 2
#     Edge 20, Type (0, 0), BuildingBlock: MIFKUJ_clean_linker_0, # of connection points: 2
#     Edge 21, Type (0, 0), BuildingBlock: MIFKUJ_clean_linker_0, # of connection points: 2
#     Edge 22, Type (0, 0), BuildingBlock: MIFKUJ_clean_linker_0, # of connection points: 2
#     Edge 23, Type (0, 0), BuildingBlock: MIFKUJ_clean_linker_0, # of connection points: 2
# Relax obj value: 0.033
# Max RMSD: 0.079
# Mean RMSD: 0.079
data_MOF--net-mok--node1-QUQFOY_clean_sbu_1--edge1-MIFKUJ_clean_linker_0
_symmetry_space_group_name_H-M    P1
_symmetry_Int_Tables_number       1
_symmetry_cell_setting            triclinic
loop_
_symmetry_equiv_pos_as_xyz
'x, y, z'
_cell_length_a     71.256084
_cell_length_b     20.157079
_cell_length_c     36.988597
_cell_angle_alpha  89.976921
_cell_angle_beta   89.829049
_cell_angle_gamma 89.903343
loop_
_atom_site_label
_atom_site_type_symbol
_atom_site_fract_x
_atom_site_fract_y
_atom_site_fract_z
_atom_type_partial_charge
O0 O 0.61431 0.31676 1.00382 0.0
Cd1 Cd 0.61993 0.26234 0.04984 0.0
Cd2 Cd 0.62443 0.38421 0.07731 0.0
O3 O 0.61344 0.41622 0.02853 0.0
O4 O 0.60806 0.17385 0.04107 0.0
O5 O 0.59854 0.24275 0.08388 0.0
C6 C 0.59627 0.18776 0.06652 0.0
C7 C 0.61275 0.41674 0.13362 0.0
C8 C 0.61155 0.37888 1.00106 0.0
C9 C 0.65892 0.29833 0.07185 0.0
O10 O 0.65225 0.3562 0.0768 0.0
O11 O 0.64808 0.25059 0.06339 0.0
O12 O 0.62203 0.45747 0.11345 0.0
O13 O 0.60933 0.35826 0.12101 0.0
O14 O 0.4048 0.69308 1.0023 0.0
Cd15 Cd 0.4002 0.74841 0.04829 0.0
Cd16 Cd 0.39506 0.62704 0.07737 0.0
O17 O 0.4041 0.59349 0.02704 0.0
O18 O 0.41341 0.83475 0.04064 0.0
O19 O 0.42184 0.76189 0.08231 0.0
C20 C 0.42492 0.8174 0.06584 0.0
C21 C 0.40634 0.58469 0.1321 0.0
C22 C 0.40634 0.63045 0.99942 0.0
C23 C 0.36152 0.71986 0.07418 0.0
O24 O 0.3679 0.66223 0.08083 0.0
O25 O 0.37234 0.76502 0.06218 0.0
O26 O 0.39515 0.55088 0.11193 0.0
O27 O 0.41211 0.64131 0.12009 0.0
O28 O 0.61769 0.70134 0.63606 0.0
Cd29 Cd 0.62158 0.74957 0.58734 0.0
Cd30 Cd 0.62487 0.62543 0.56306 0.0
O31 O 0.6138 0.60118 0.61325 0.0
O32 O 0.60952 0.83948 0.59079 0.0
O33 O 0.59852 0.75822 0.5567 0.0
C34 C 0.59669 0.81759 0.56933 0.0
C35 C 0.61265 0.59005 0.50778 0.0
C36 C 0.61365 0.64034 0.64027 0.0
C37 C 0.65974 0.70845 0.56267 0.0
O38 O 0.65289 0.65029 0.56174 0.0
O39 O 0.64912 0.75806 0.56895 0.0
O40 O 0.62164 0.54962 0.52859 0.0
O41 O 0.60975 0.64962 0.51936 0.0
O42 O 0.40177 0.29846 0.63588 0.0
Cd43 Cd 0.39817 0.2475 0.5879 0.0
Cd44 Cd 0.39338 0.37041 0.56232 0.0
O45 O 0.4033 0.39913 0.61257 0.0
O46 O 0.41149 0.16029 0.59244 0.0
O47 O 0.42085 0.24059 0.55578 0.0
C48 C 0.42368 0.18253 0.56957 0.0
C49 C 0.40468 0.41273 0.50752 0.0
C50 C 0.40443 0.36047 0.63974 0.0
C51 C 0.35962 0.28009 0.5631 0.0
O52 O 0.3659 0.33886 0.56046 0.0
O53 O 0.37068 0.23259 0.57094 0.0
O54 O 0.39396 0.44758 0.52833 0.0
O55 O 0.4099 0.35498 0.51882 0.0
O56 O 0.11656 0.8018 1.00013 0.0
Cd57 Cd 0.12157 0.74704 0.04597 0.0
Cd58 Cd 0.12584 0.86815 0.07583 0.0
O59 O 0.11591 0.90046 0.02589 0.0
O60 O 0.10901 0.6594 0.03861 0.0
O61 O 0.09976 0.73249 0.07958 0.0
C62 C 0.0971 0.67662 0.06328 0.0
C63 C 0.11361 0.9046 0.13113 0.0
C64 C 0.11411 0.86413 0.99793 0.0
C65 C 0.16011 0.77998 0.07153 0.0
O66 O 0.15344 0.83714 0.07846 0.0
O67 O 0.14954 0.73399 0.05974 0.0
O68 O 0.12362 0.94319 0.11103 0.0
O69 O 0.10969 0.84626 0.11889 0.0
O70 O 0.90296 0.19678 0.99464 0.0
Cd71 Cd 0.89854 0.24825 0.04231 0.0
Cd72 Cd 0.89413 0.12514 0.06745 0.0
O73 O 0.90483 0.09611 0.01776 0.0
O74 O 0.91082 0.33667 0.03574 0.0
O75 O 0.92082 0.26156 0.07482 0.0
C76 C 0.92305 0.31862 0.05948 0.0
C77 C 0.9053 0.08554 0.12282 0.0
C78 C 0.906 0.13498 0.9907 0.0
C79 C 0.85988 0.21335 0.06533 0.0
O80 O 0.86644 0.1549 0.06798 0.0
O81 O 0.87079 0.26166 0.05832 0.0
O82 O 0.89498 0.0492 0.1022 0.0
O83 O 0.91014 0.14343 0.11109 0.0
O84 O 0.11528 0.1876 0.63321 0.0
Cd85 Cd 0.12019 0.2374 0.58528 0.0
Cd86 Cd 0.12388 0.1131 0.56107 0.0
O87 O 0.11264 0.08671 0.61079 0.0
O88 O 0.10843 0.32719 0.59133 0.0
O89 O 0.09805 0.2523 0.55264 0.0
C90 C 0.09609 0.30968 0.56772 0.0
C91 C 0.11199 0.07976 0.50518 0.0
C92 C 0.11172 0.12629 0.63755 0.0
C93 C 0.15873 0.19682 0.56264 0.0
O94 O 0.15184 0.13879 0.56067 0.0
O95 O 0.14809 0.24634 0.5691 0.0
O96 O 0.12091 0.03865 0.5257 0.0
O97 O 0.10895 0.13885 0.51737 0.0
O98 O 0.90465 0.81175 0.62624 0.0
Cd99 Cd 0.89972 0.75655 0.58015 0.0
Cd100 Cd 0.89468 0.8787 0.55314 0.0
O101 O 0.90498 0.91186 0.60222 0.0
O102 O 0.9119 0.66919 0.59035 0.0
O103 O 0.92153 0.73665 0.54697 0.0
C104 C 0.92388 0.68254 0.56516 0.0
C105 C 0.90568 0.91632 0.49718 0.0
C106 C 0.90696 0.87401 0.6295 0.0
C107 C 0.86076 0.78887 0.55769 0.0
O108 O 0.86719 0.84706 0.55309 0.0
O109 O 0.87178 0.74157 0.56614 0.0
O110 O 0.89508 0.95284 0.51734 0.0
O111 O 0.91091 0.85936 0.50969 0.0
H112 H 0.84046 0.33103 0.07173 0.0
H113 H 0.80629 0.34601 0.07508 0.0
H114 H 0.7987 0.13418 0.06893 0.0
H115 H 0.83261 0.11864 0.06596 0.0
H116 H 0.77573 0.20536 0.02108 0.0
H117 H 0.79295 0.20626 0.14709 0.0
H118 H 0.81045 0.24508 0.20044 0.0
H119 H 0.7878 0.44092 0.18648 0.0
H120 H 0.77036 0.40345 0.1327 0.0
H121 H 0.67885 0.18242 0.06313 0.0
H122 H 0.71298 0.16822 0.06418 0.0
H123 H 0.71973 0.37693 0.08627 0.0
H124 H 0.68577 0.39126 0.08609 0.0
H125 H 0.74341 0.30888 0.12585 0.0
H126 H 0.72651 0.31244 1.00088 0.0
H127 H 0.70936 0.27844 0.94614 0.0
H128 H 0.73178 0.08137 0.95568 0.0
H129 H 0.74886 0.11396 0.01081 0.0
C130 C 0.83151 0.28767 0.07128 0.0
C131 C 0.8393 0.22366 0.06868 0.0
C132 C 0.81201 0.29629 0.07325 0.0
C133 C 0.79997 0.24114 0.0723 0.0
C134 C 0.80772 0.17737 0.06965 0.0
C135 C 0.82715 0.16866 0.06814 0.0
C136 C 0.77927 0.24947 0.07361 0.0
C137 C 0.76862 0.22728 0.04416 0.0
C138 C 0.77008 0.27967 0.10329 0.0
C139 C 0.78052 0.30222 0.13564 0.0
C140 C 0.79184 0.25775 0.1552 0.0
C141 C 0.80172 0.27947 0.18556 0.0
C142 C 0.80028 0.34547 0.19678 0.0
C143 C 0.78892 0.38984 0.17772 0.0
C144 C 0.77903 0.36838 0.14731 0.0
C145 C 0.68759 0.22521 0.06845 0.0
C146 C 0.67952 0.28803 0.07435 0.0
C147 C 0.70712 0.2171 0.06885 0.0
C148 C 0.71898 0.27174 0.07477 0.0
C149 C 0.71092 0.33405 0.08159 0.0
C150 C 0.69144 0.34213 0.08138 0.0
C151 C 0.73976 0.26446 0.07334 0.0
C152 C 0.75047 0.28694 0.10273 0.0
C153 C 0.74904 0.23525 0.04336 0.0
C154 C 0.7388 0.21546 0.0102 0.0
C155 C 0.72766 0.2617 0.99148 0.0
C156 C 0.71797 0.24272 0.96035 0.0
C157 C 0.71944 0.17774 0.9475 0.0
C158 C 0.73064 0.13166 0.96571 0.0
C159 C 0.74033 0.15037 0.99688 0.0
H160 H 0.71193 0.16314 0.92339 0.0
H161 H 0.80794 0.36219 0.22029 0.0
H162 H 0.18292 0.70225 0.02987 0.0
H163 H 0.21711 0.69347 0.0328 0.0
H164 H 0.21737 0.82187 0.12626 0.0
H165 H 0.18334 0.83433 0.12165 0.0
H166 H 0.2439 0.85785 0.08785 0.0
H167 H 0.22521 0.6424 0.12829 0.0
H168 H 0.20869 0.53505 0.12587 0.0
H169 H 0.23766 0.48578 0.02749 0.0
H170 H 0.25418 0.5932 0.02909 0.0
H171 H 0.33723 0.65406 0.11831 0.0
H172 H 0.30323 0.66673 0.12215 0.0
H173 H 0.30549 0.8225 0.04211 0.0
H174 H 0.33969 0.81201 0.03953 0.0
H175 H 0.27778 0.64376 0.07716 0.0
H176 H 0.2685 0.92561 0.04873 0.0
H177 H 0.28492 0.03093 0.06082 0.0
H178 H 0.31179 0.94369 0.15313 0.0
H179 H 0.29535 0.83818 0.14187 0.0
C180 C 0.1903 0.72796 0.05124 0.0
C181 C 0.1805 0.76871 0.07564 0.0
C182 C 0.20987 0.72274 0.05303 0.0
C183 C 0.21998 0.75619 0.08012 0.0
C184 C 0.21004 0.79575 0.10498 0.0
C185 C 0.19056 0.80253 0.1025 0.0
C186 C 0.24089 0.75195 0.08192 0.0
C187 C 0.25126 0.81088 0.08565 0.0
C188 C 0.25068 0.69081 0.07966 0.0
C189 C 0.24081 0.62609 0.07866 0.0
C190 C 0.22797 0.60883 0.10603 0.0
C191 C 0.21862 0.54796 0.10481 0.0
C192 C 0.22209 0.50369 0.0765 0.0
C193 C 0.23496 0.52014 0.04939 0.0
C194 C 0.24434 0.58098 0.05045 0.0
C195 C 0.33051 0.69172 0.10192 0.0
C196 C 0.34115 0.73221 0.0787 0.0
C197 C 0.31102 0.6987 0.10399 0.0
C198 C 0.30166 0.74571 0.08254 0.0
C199 C 0.31232 0.78675 0.05954 0.0
C200 C 0.33189 0.78065 0.058 0.0
C201 C 0.28074 0.74958 0.08326 0.0
C202 C 0.2704 0.69065 0.07965 0.0
C203 C 0.27096 0.8104 0.0871 0.0
C204 C 0.28084 0.8738 0.0942 0.0
C205 C 0.27787 0.92899 0.07166 0.0
C206 C 0.28719 0.9887 0.07836 0.0
C207 C 0.29944 0.99392 0.10765 0.0
C208 C 0.30235 0.9395 0.13037 0.0
C209 C 0.29306 0.87971 0.12381 0.0
H210 H 0.30664 0.04018 0.11278 0.0
H211 H 0.21484 0.4566 0.07561 0.0
H212 H 0.84132 0.67083 0.55991 0.0
H213 H 0.80716 0.65569 0.55796 0.0
H214 H 0.79963 0.86715 0.5478 0.0
H215 H 0.83351 0.88278 0.54952 0.0
H216 H 0.77685 0.81216 0.60037 0.0
H217 H 0.79365 0.77158 0.47596 0.0
H218 H 0.81084 0.71619 0.42649 0.0
H219 H 0.78781 0.52838 0.45858 0.0
H220 H 0.77067 0.58257 0.50859 0.0
H221 H 0.67981 0.82481 0.56031 0.0
H222 H 0.71392 0.83752 0.55663 0.0
H223 H 0.72037 0.62479 0.55271 0.0
H224 H 0.6864 0.61174 0.55536 0.0
H225 H 0.74397 0.67879 0.50745 0.0
H226 H 0.72763 0.71506 0.63152 0.0
H227 H 0.71083 0.76654 0.68273 0.0
H228 H 0.73344 0.95683 0.65408 0.0
H229 H 0.75018 0.9066 0.60236 0.0
C230 C 0.83239 0.71403 0.55702 0.0
C231 C 0.8402 0.77799 0.55484 0.0
C232 C 0.81288 0.7053 0.55585 0.0
C233 C 0.80086 0.76035 0.55267 0.0
C234 C 0.80863 0.82403 0.55033 0.0
C235 C 0.82806 0.83275 0.55117 0.0
C236 C 0.78014 0.75228 0.55258 0.0
C237 C 0.76962 0.78366 0.57981 0.0
C238 C 0.77078 0.71363 0.52634 0.0
C239 C 0.78104 0.68102 0.49625 0.0
C240 C 0.79238 0.71838 0.47267 0.0
C241 C 0.80209 0.68722 0.44449 0.0
C242 C 0.80046 0.61878 0.43946 0.0
C243 C 0.78908 0.58138 0.46254 0.0
C244 C 0.77936 0.61229 0.49079 0.0
C245 C 0.68848 0.78076 0.55841 0.0
C246 C 0.68032 0.71726 0.55833 0.0
C247 C 0.70801 0.78806 0.55651 0.0
C248 C 0.71978 0.73204 0.555 0.0
C249 C 0.71163 0.66878 0.55392 0.0
C250 C 0.69215 0.66144 0.55554 0.0
C251 C 0.74059 0.73901 0.55519 0.0
C252 C 0.75115 0.70733 0.52804 0.0
C253 C 0.75004 0.7768 0.58178 0.0
C254 C 0.73999 0.80718 0.61284 0.0
C255 C 0.7289 0.76798 0.63597 0.0
C256 C 0.71941 0.79691 0.66511 0.0
C257 C 0.72103 0.86495 0.67159 0.0
C258 C 0.73218 0.90416 0.64898 0.0
C259 C 0.74167 0.87548 0.61977 0.0
H260 H 0.71368 0.88725 0.69418 0.0
H261 H 0.80798 0.59475 0.41761 0.0
H262 H 0.17893 0.31306 0.56057 0.0
H263 H 0.21313 0.32528 0.55719 0.0
H264 H 0.21934 0.11257 0.55353 0.0
H265 H 0.18536 0.09981 0.55682 0.0
H266 H 0.24294 0.17023 0.60296 0.0
H267 H 0.22566 0.201 0.47849 0.0
H268 H 0.20826 0.25223 0.42813 0.0
H269 H 0.23177 0.4422 0.45431 0.0
H270 H 0.2491 0.39224 0.50518 0.0
H271 H 0.34055 0.16137 0.56355 0.0
H272 H 0.30656 0.1448 0.55984 0.0
H273 H 0.29842 0.35627 0.55065 0.0
H274 H 0.33221 0.37303 0.55326 0.0
H275 H 0.27561 0.29676 0.50655 0.0
H276 H 0.29166 0.27029 0.63177 0.0
H277 H 0.30853 0.22272 0.68384 0.0
H278 H 0.28688 0.02961 0.65853 0.0
H279 H 0.27008 0.07592 0.60599 0.0
C280 C 0.18757 0.26891 0.55882 0.0
C281 C 0.17935 0.20548 0.55894 0.0
C282 C 0.20711 0.27597 0.55681 0.0
C283 C 0.21878 0.21978 0.55499 0.0
C284 C 0.21062 0.15657 0.55497 0.0
C285 C 0.19114 0.14946 0.55671 0.0
C286 C 0.23954 0.22652 0.55393 0.0
C287 C 0.25012 0.19712 0.58161 0.0
C288 C 0.24886 0.26292 0.52656 0.0
C289 C 0.23853 0.29298 0.49586 0.0
C290 C 0.227 0.2538 0.47369 0.0
C291 C 0.21717 0.28258 0.44502 0.0
C292 C 0.21887 0.35046 0.43808 0.0
C293 C 0.23044 0.38965 0.45974 0.0
C294 C 0.24029 0.36111 0.48848 0.0
C295 C 0.33153 0.20427 0.56048 0.0
C296 C 0.33915 0.26853 0.55887 0.0
C297 C 0.31207 0.19478 0.55856 0.0
C298 C 0.29985 0.2494 0.55553 0.0
C299 C 0.30749 0.31332 0.553 0.0
C300 C 0.32688 0.32279 0.55461 0.0
C301 C 0.27909 0.24058 0.55569 0.0
C302 C 0.26848 0.26964 0.52786 0.0
C303 C 0.2697 0.20439 0.58315 0.0
C304 C 0.27979 0.17644 0.61472 0.0
C305 C 0.29062 0.21759 0.63714 0.0
C306 C 0.30015 0.19087 0.66677 0.0
C307 C 0.29882 0.12315 0.67443 0.0
C308 C 0.28792 0.08204 0.65252 0.0
C309 C 0.27839 0.10849 0.62283 0.0
H310 H 0.3062 0.10257 0.69738 0.0
H311 H 0.21125 0.37266 0.41587 0.0
H312 H 0.60535 0.33372 0.19019 0.0
H313 H 0.60127 0.36374 0.25368 0.0
H314 H 0.6041 0.57126 0.22523 0.0
H315 H 0.6092 0.54113 0.16195 0.0
H316 H 0.62514 0.55328 0.27893 0.0
H317 H 0.56197 0.48728 0.25504 0.0
H318 H 0.53662 0.41402 0.23374 0.0
H319 H 0.55308 0.26535 0.3106 0.0
H320 H 0.57868 0.33739 0.33205 0.0
H321 H 0.60059 0.67049 0.45307 0.0
H322 H 0.59633 0.64089 0.38948 0.0
H323 H 0.6088 0.43654 0.41426 0.0
H324 H 0.61328 0.46577 0.47794 0.0
H325 H 0.57844 0.45569 0.3632 0.0
H326 H 0.64267 0.52339 0.3839 0.0
H327 H 0.66722 0.59993 0.40526 0.0
H328 H 0.64699 0.75085 0.33319 0.0
H329 H 0.62213 0.67546 0.31179 0.0
C330 C 0.60479 0.38576 0.19742 0.0
C331 C 0.60759 0.43509 0.1711 0.0
C332 C 0.60236 0.40297 0.23379 0.0
C333 C 0.60215 0.46995 0.24447 0.0
C334 C 0.60426 0.51925 0.21787 0.0
C335 C 0.60709 0.50202 0.18164 0.0
C336 C 0.60115 0.48858 0.28348 0.0
C337 C 0.61464 0.53278 0.29704 0.0
C338 C 0.58778 0.46089 0.30765 0.0
C339 C 0.57234 0.41755 0.29494 0.0
C340 C 0.56026 0.43879 0.26723 0.0
C341 C 0.54584 0.39751 0.25516 0.0
C342 C 0.54327 0.33501 0.27075 0.0
C343 C 0.55509 0.31375 0.29852 0.0
C344 C 0.56955 0.35482 0.31068 0.0
C345 C 0.60211 0.61902 0.44516 0.0
C346 C 0.60739 0.57053 0.47054 0.0
C347 C 0.59971 0.60226 0.40879 0.0
C348 C 0.60241 0.53665 0.39716 0.0
C349 C 0.60665 0.48745 0.42272 0.0
C350 C 0.60926 0.5043 0.45906 0.0
C351 C 0.60227 0.52039 0.35804 0.0
C352 C 0.5887 0.4765 0.34469 0.0
C353 C 0.61539 0.54888 0.33389 0.0
C354 C 0.63042 0.59405 0.34655 0.0
C355 C 0.64336 0.57309 0.37284 0.0
C356 C 0.65734 0.61623 0.38491 0.0
C357 C 0.65863 0.68028 0.37067 0.0
C358 C 0.64596 0.70126 0.34425 0.0
C359 C 0.63192 0.65834 0.33212 0.0
H360 H 0.66947 0.7136 0.38005 0.0
H361 H 0.5321 0.30312 0.26135 0.0
H362 H 0.38947 0.48536 0.16995 0.0
H363 H 0.39354 0.45736 0.23346 0.0
H364 H 0.43777 0.60257 0.24192 0.0
H365 H 0.43305 0.6332 0.17847 0.0
H366 H 0.41807 0.409 0.27449 0.0
H367 H 0.43831 0.67062 0.3256 0.0
H368 H 0.43378 0.78807 0.30875 0.0
H369 H 0.38304 0.73785 0.2528 0.0
H370 H 0.38714 0.62034 0.2697 0.0
H371 H 0.43266 0.36838 0.46243 0.0
H372 H 0.43797 0.39976 0.39922 0.0
H373 H 0.39142 0.53673 0.4053 0.0
H374 H 0.38684 0.50846 0.46872 0.0
H375 H 0.41541 0.58949 0.36543 0.0
H376 H 0.38868 0.3709 0.36839 0.0
H377 H 0.38674 0.25264 0.38518 0.0
H378 H 0.43951 0.21542 0.33257 0.0
H379 H 0.44187 0.33369 0.31584 0.0
C380 C 0.40021 0.51097 0.18517 0.0
C381 C 0.41084 0.56192 0.1692 0.0
C382 C 0.40256 0.49476 0.2216 0.0
C383 C 0.41575 0.52851 0.2429 0.0
C384 C 0.42717 0.57684 0.22643 0.0
C385 C 0.42457 0.59401 0.19005 0.0
C386 C 0.41678 0.51479 0.28251 0.0
C387 C 0.41761 0.44859 0.29433 0.0
C388 C 0.41583 0.56608 0.30867 0.0
C389 C 0.41319 0.63664 0.2985 0.0
C390 C 0.42618 0.68472 0.30975 0.0
C391 C 0.42368 0.75127 0.3002 0.0
C392 C 0.40817 0.77036 0.27959 0.0
C393 C 0.39508 0.72297 0.26862 0.0
C394 C 0.3975 0.65639 0.27815 0.0
C395 C 0.42377 0.40593 0.45035 0.0
C396 C 0.4093 0.4358 0.47052 0.0
C397 C 0.42671 0.4235 0.41411 0.0
C398 C 0.41484 0.46966 0.397 0.0
C399 C 0.40082 0.50107 0.41764 0.0
C400 C 0.39818 0.48473 0.454 0.0
C401 C 0.41635 0.48361 0.35744 0.0
C402 C 0.41611 0.54989 0.34562 0.0
C403 C 0.41693 0.43228 0.33125 0.0
C404 C 0.41556 0.36121 0.34126 0.0
C405 C 0.39993 0.33755 0.36063 0.0
C406 C 0.39875 0.27053 0.3701 0.0
C407 C 0.41302 0.22659 0.36006 0.0
C408 C 0.42849 0.24955 0.34041 0.0
C409 C 0.42975 0.31654 0.33092 0.0
H410 H 0.41208 0.17472 0.36741 0.0
H411 H 0.40628 0.82189 0.2722 0.0
H412 H 0.40818 0.49844 0.98069 0.0
H413 H 0.41059 0.45171 0.9197 0.0
H414 H 0.41397 0.64901 0.87504 0.0
H415 H 0.41146 0.69603 0.93555 0.0
H416 H 0.38822 0.57565 0.84036 0.0
H417 H 0.45234 0.54874 0.8775 0.0
H418 H 0.47794 0.51117 0.91732 0.0
H419 H 0.46089 0.30876 0.9027 0.0
H420 H 0.43502 0.34521 0.86315 0.0
H421 H 0.40912 0.49071 0.65938 0.0
H422 H 0.41209 0.53552 0.72053 0.0
H423 H 0.40984 0.33743 0.76444 0.0
H424 H 0.40716 0.29212 0.70347 0.0
H425 H 0.43543 0.41045 0.79965 0.0
H426 H 0.3711 0.43582 0.76441 0.0
H427 H 0.34498 0.47155 0.72535 0.0
H428 H 0.36173 0.67482 0.73758 0.0
H429 H 0.38813 0.64019 0.77633 0.0
C430 C 0.40966 0.53186 0.95794 0.0
C431 C 0.40956 0.60103 0.9631 0.0
C432 C 0.41108 0.50506 0.92308 0.0
C433 C 0.4125 0.54689 0.89277 0.0
C434 C 0.41283 0.61578 0.89797 0.0
C435 C 0.41145 0.64255 0.93269 0.0
C436 C 0.4127 0.51939 0.85548 0.0
C437 C 0.39872 0.54028 0.83132 0.0
C438 C 0.42607 0.47181 0.84395 0.0
C439 C 0.44163 0.44977 0.86766 0.0
C440 C 0.45395 0.49626 0.88302 0.0
C441 C 0.46853 0.47516 0.90549 0.0
C442 C 0.47101 0.40764 0.91261 0.0
C443 C 0.45894 0.36105 0.8972 0.0
C444 C 0.44433 0.3819 0.87473 0.0
C445 C 0.40943 0.45658 0.68199 0.0
C446 C 0.40775 0.3878 0.67645 0.0
C447 C 0.41105 0.48231 0.71698 0.0
C448 C 0.4109 0.4399 0.74715 0.0
C449 C 0.40994 0.37114 0.74161 0.0
C450 C 0.40835 0.34535 0.70667 0.0
C451 C 0.41105 0.46721 0.7845 0.0
C452 C 0.425 0.44607 0.80868 0.0
C453 C 0.39759 0.51435 0.79619 0.0
C454 C 0.38171 0.53534 0.77295 0.0
C455 C 0.36931 0.48809 0.75853 0.0
C456 C 0.35444 0.50815 0.73649 0.0
C457 C 0.35173 0.5754 0.72891 0.0
C458 C 0.36386 0.62274 0.74343 0.0
C459 C 0.37878 0.60293 0.76545 0.0
H460 H 0.3402 0.59083 0.71185 0.0
H461 H 0.48231 0.3914 0.93001 0.0
H462 H 0.60298 0.31275 0.93883 0.0
H463 H 0.60013 0.35847 0.87804 0.0
H464 H 0.60888 0.55555 0.92004 0.0
H465 H 0.61141 0.51024 0.98129 0.0
H466 H 0.5827 0.55618 0.86724 0.0
H467 H 0.64494 0.46985 0.88215 0.0
H468 H 0.66876 0.38548 0.89732 0.0
H469 H 0.6475 0.25794 0.81404 0.0
H470 H 0.62337 0.34122 0.79871 0.0
H471 H 0.6135 0.70931 0.70399 0.0
H472 H 0.60995 0.66531 0.76506 0.0
H473 H 0.60178 0.46893 0.72165 0.0
H474 H 0.60563 0.51238 0.66031 0.0
H475 H 0.62685 0.46751 0.77512 0.0
H476 H 0.56514 0.55855 0.75882 0.0
H477 H 0.54205 0.64551 0.74389 0.0
H478 H 0.56318 0.7674 0.82975 0.0
H479 H 0.58658 0.68151 0.84489 0.0
C480 C 0.60409 0.36594 0.9353 0.0
C481 C 0.60762 0.40776 0.96495 0.0
C482 C 0.60253 0.39198 0.90044 0.0
C483 C 0.60468 0.46029 0.89436 0.0
C484 C 0.60726 0.50263 0.92408 0.0
C485 C 0.60872 0.47662 0.95908 0.0
C486 C 0.60511 0.48688 0.85687 0.0
C487 C 0.59248 0.53731 0.84718 0.0
C488 C 0.61767 0.46153 0.83051 0.0
C489 C 0.63223 0.41149 0.83954 0.0
C490 C 0.64525 0.4236 0.86726 0.0
C491 C 0.65882 0.37602 0.87585 0.0
C492 C 0.65961 0.31632 0.85672 0.0
C493 C 0.64686 0.30417 0.82888 0.0
C494 C 0.63324 0.35156 0.8202 0.0
C495 C 0.61075 0.65683 0.70731 0.0
C496 C 0.60987 0.61439 0.67715 0.0
C497 C 0.60864 0.63178 0.74233 0.0
C498 C 0.60543 0.56387 0.74799 0.0
C499 C 0.60422 0.52153 0.71794 0.0
C500 C 0.60637 0.54651 0.68287 0.0
C501 C 0.60434 0.53653 0.78529 0.0
C502 C 0.61696 0.4861 0.79504 0.0
C503 C 0.59186 0.56225 0.81169 0.0
C504 C 0.57772 0.6138 0.80279 0.0
C505 C 0.56495 0.60409 0.77435 0.0
C506 C 0.55179 0.65316 0.76588 0.0
C507 C 0.55118 0.71201 0.7858 0.0
C508 C 0.56369 0.72182 0.81432 0.0
C509 C 0.57688 0.67292 0.82289 0.0
H510 H 0.54098 0.74995 0.77919 0.0
H511 H 0.67013 0.27954 0.86342 0.0
H512 H 0.10362 0.82461 0.18757 0.0
H513 H 0.09937 0.85644 0.25074 0.0
H514 H 0.1071 0.06218 0.22191 0.0
H515 H 0.1123 0.03001 0.15895 0.0
H516 H 0.12699 0.03904 0.27686 0.0
H517 H 0.06295 0.99128 0.24978 0.0
H518 H 0.03623 0.92582 0.22723 0.0
H519 H 0.048 0.77312 0.30494 0.0
H520 H 0.07495 0.83728 0.32766 0.0
H521 H 0.1019 0.16264 0.45008 0.0
H522 H 0.09807 0.13418 0.38619 0.0
H523 H 0.10709 0.92769 0.41116 0.0
H524 H 0.11125 0.95578 0.4751 0.0
H525 H 0.07714 0.95511 0.3588 0.0
H526 H 0.14247 0.00465 0.38258 0.0
H527 H 0.16829 0.07432 0.40526 0.0
H528 H 0.15231 0.2304 0.33251 0.0
H529 H 0.12618 0.16196 0.30978 0.0
C530 C 0.10409 0.87674 0.1946 0.0
C531 C 0.10829 0.92481 0.16827 0.0
C532 C 0.10158 0.89501 0.2308 0.0
C533 C 0.1027 0.96195 0.24131 0.0
C534 C 0.10621 0.0102 0.21468 0.0
C535 C 0.10909 0.99181 0.17862 0.0
C536 C 0.10158 0.98121 0.28023 0.0
C537 C 0.11584 0.02158 0.29445 0.0
C538 C 0.0873 0.95754 0.30372 0.0
C539 C 0.07107 0.91887 0.29021 0.0
C540 C 0.05992 0.94353 0.26189 0.0
C541 C 0.04472 0.90669 0.24911 0.0
C542 C 0.04045 0.84528 0.26459 0.0
C543 C 0.05134 0.82067 0.29295 0.0
C544 C 0.06656 0.85729 0.30583 0.0
C545 C 0.10275 0.11101 0.44212 0.0
C546 C 0.10697 0.06147 0.46764 0.0
C547 C 0.1006 0.0949 0.40558 0.0
C548 C 0.10242 0.02891 0.39397 0.0
C549 C 0.10562 0.97889 0.41962 0.0
C550 C 0.10804 0.99507 0.4561 0.0
C551 C 0.10242 0.01279 0.35484 0.0
C552 C 0.08808 0.9729 0.3408 0.0
C553 C 0.11645 0.03753 0.33135 0.0
C554 C 0.13224 0.07849 0.34479 0.0
C555 C 0.14435 0.05405 0.37166 0.0
C556 C 0.15907 0.09327 0.38448 0.0
C557 C 0.16191 0.15683 0.37042 0.0
C558 C 0.15007 0.18121 0.34342 0.0
C559 C 0.13532 0.14222 0.33055 0.0
H560 H 0.1733 0.18712 0.38038 0.0
H561 H 0.02867 0.81683 0.25465 0.0
H562 H 0.93266 0.86524 0.45187 0.0
H563 H 0.9386 0.89557 0.38867 0.0
H564 H 0.89409 0.04081 0.39431 0.0
H565 H 0.88885 0.01325 0.45757 0.0
H566 H 0.91943 0.88347 0.33225 0.0
H567 H 0.89864 0.16391 0.33666 0.0
H568 H 0.90164 0.25915 0.37807 0.0
H569 H 0.94912 0.16697 0.42881 0.0
H570 H 0.94658 0.07159 0.38741 0.0
H571 H 0.88822 0.98891 0.1623 0.0
H572 H 0.89356 0.96003 0.22533 0.0
H573 H 0.93881 0.10188 0.23037 0.0
H574 H 0.93272 0.13372 0.16754 0.0
H575 H 0.92017 0.11511 0.28706 0.0
H576 H 0.9456 0.92399 0.23109 0.0
H577 H 0.94721 0.82823 0.18972 0.0
H578 H 0.89927 0.74144 0.24194 0.0
H579 H 0.89722 0.83708 0.28333 0.0
C580 C 0.9244 0.90448 0.43973 0.0
C581 C 0.91041 0.93724 0.45982 0.0
C582 C 0.92773 0.9216 0.40354 0.0
C583 C 0.917 0.97127 0.3866 0.0
C584 C 0.903 0.00382 0.40679 0.0
C585 C 0.89993 0.98769 0.44305 0.0
C586 C 0.91956 0.98669 0.34739 0.0
C587 C 0.91975 0.93416 0.32243 0.0
C588 C 0.92056 0.05271 0.33431 0.0
C589 C 0.92232 0.11035 0.35905 0.0
C590 C 0.90979 0.16412 0.35651 0.0
C591 C 0.91139 0.21809 0.38002 0.0
C592 C 0.92553 0.21904 0.4061 0.0
C593 C 0.93814 0.16609 0.40867 0.0
C594 C 0.9366 0.11201 0.38521 0.0
C595 C 0.89949 0.01337 0.17665 0.0
C596 C 0.91011 0.06342 0.15987 0.0
C597 C 0.90262 0.99648 0.21277 0.0
C598 C 0.91685 0.02774 0.23275 0.0
C599 C 0.92776 0.07685 0.21571 0.0
C600 C 0.92434 0.09485 0.17972 0.0
C601 C 0.91945 0.01192 0.27188 0.0
C602 C 0.92017 0.06439 0.29685 0.0
C603 C 0.92001 0.9458 0.28495 0.0
C604 C 0.9212 0.88797 0.26019 0.0
C605 C 0.93533 0.88468 0.23361 0.0
C606 C 0.93633 0.83039 0.21017 0.0
C607 C 0.92333 0.77883 0.21316 0.0
C608 C 0.90933 0.78141 0.23965 0.0
C609 C 0.90826 0.8356 0.26315 0.0
H610 H 0.92413 0.73685 0.19498 0.0
H611 H 0.92674 0.26085 0.42429 0.0
H612 H 0.90799 0.00518 0.64979 0.0
H613 H 0.91105 0.04951 0.71111 0.0
H614 H 0.91745 0.85088 0.75277 0.0
H615 H 0.91416 0.80622 0.69188 0.0
H616 H 0.89194 0.91746 0.79064 0.0
H617 H 0.95466 0.95993 0.74862 0.0
H618 H 0.97869 0.00458 0.70717 0.0
H619 H 0.95826 0.2022 0.72573 0.0
H620 H 0.93393 0.15863 0.76694 0.0
H621 H 0.91278 0.00571 0.97101 0.0
H622 H 0.91621 0.96143 0.90976 0.0
H623 H 0.91051 0.15875 0.86594 0.0
H624 H 0.90747 0.20355 0.92693 0.0
H625 H 0.93659 0.09186 0.82938 0.0
H626 H 0.87327 0.05109 0.86831 0.0
H627 H 0.84847 0.00861 0.90875 0.0
H628 H 0.86919 0.81011 0.89467 0.0
H629 H 0.89428 0.85155 0.8545 0.0
C630 C 0.9103 0.97099 0.67194 0.0
C631 C 0.91075 0.9021 0.66586 0.0
C632 C 0.91209 0.99643 0.707 0.0
C633 C 0.91455 0.95354 0.7366 0.0
C634 C 0.91551 0.88495 0.73042 0.0
C635 C 0.91367 0.85952 0.6955 0.0
C636 C 0.91504 0.97948 0.77424 0.0
C637 C 0.90192 0.95479 0.79923 0.0
C638 C 0.92769 0.02959 0.78525 0.0
C639 C 0.94236 0.05593 0.76061 0.0
C640 C 0.9552 0.01285 0.74365 0.0
C641 C 0.96889 0.03798 0.72024 0.0
C642 C 0.96997 0.10617 0.71375 0.0
C643 C 0.95739 0.14939 0.73075 0.0
C644 C 0.94366 0.12451 0.75416 0.0
C645 C 0.91244 0.0398 0.94838 0.0
C646 C 0.9097 0.10817 0.95396 0.0
C647 C 0.91433 0.01436 0.91334 0.0
C648 C 0.91331 0.05663 0.88316 0.0
C649 C 0.9113 0.12512 0.88874 0.0
C650 C 0.9095 0.15062 0.92372 0.0
C651 C 0.91357 0.02945 0.84576 0.0
C652 C 0.92672 0.05412 0.8208 0.0
C653 C 0.90087 0.97956 0.83463 0.0
C654 C 0.88577 0.95451 0.85872 0.0
C655 C 0.87263 0.99845 0.87406 0.0
C656 C 0.8585 0.97455 0.8969 0.0
C657 C 0.85729 0.90673 0.90436 0.0
C658 C 0.87017 0.86264 0.88892 0.0
C659 C 0.88434 0.8863 0.8661 0.0
H660 H 0.84634 0.88832 0.92204 0.0
H661 H 0.98058 0.12552 0.69561 0.0
H662 H 0.11051 0.99625 0.98063 0.0
H663 H 0.10629 0.04457 0.92038 0.0
H664 H 0.10527 0.8484 0.87388 0.0
H665 H 0.10912 0.79989 0.93369 0.0
H666 H 0.12917 0.0366 0.86314 0.0
H667 H 0.07874 0.84541 0.79857 0.0
H668 H 0.05269 0.77223 0.81697 0.0
H669 H 0.03957 0.9026 0.9053 0.0
H670 H 0.06536 0.97702 0.88716 0.0
H671 H 0.10769 0.99677 0.65939 0.0
H672 H 0.10492 0.95541 0.72144 0.0
H673 H 0.10423 0.15642 0.76131 0.0
H674 H 0.10723 0.19813 0.69966 0.0
H675 H 0.07967 0.97036 0.77631 0.0
H676 H 0.12978 0.16391 0.83886 0.0
H677 H 0.15653 0.23415 0.82068 0.0
H678 H 0.17089 0.09559 0.73686 0.0
H679 H 0.1444 0.02413 0.75486 0.0
C680 C 0.10913 0.9634 0.95764 0.0
C681 C 0.11015 0.89416 0.96208 0.0
C682 C 0.10678 0.9911 0.92319 0.0
C683 C 0.10528 0.95015 0.8926 0.0
C684 C 0.10604 0.88107 0.89708 0.0
C685 C 0.10835 0.8534 0.93139 0.0
C686 C 0.10399 0.97932 0.85573 0.0
C687 C 0.11812 0.02314 0.84443 0.0
C688 C 0.08989 0.96026 0.83089 0.0
C689 C 0.0741 0.91649 0.84165 0.0
C690 C 0.07023 0.85865 0.8218 0.0
C691 C 0.05552 0.8169 0.83222 0.0
C692 C 0.04452 0.83265 0.86235 0.0
C693 C 0.04815 0.89033 0.88205 0.0
C694 C 0.06283 0.93226 0.87173 0.0
C695 C 0.10674 0.03221 0.68132 0.0
C696 C 0.10788 0.10078 0.67451 0.0
C697 C 0.10513 0.00847 0.71678 0.0
C698 C 0.10468 0.05279 0.74607 0.0
C699 C 0.1049 0.12126 0.7392 0.0
C700 C 0.10655 0.14501 0.70385 0.0
C701 C 0.10484 0.02756 0.78385 0.0
C702 C 0.09058 0.98433 0.79523 0.0
C703 C 0.11886 0.04688 0.80878 0.0
C704 C 0.13497 0.08912 0.79795 0.0
C705 C 0.13868 0.14837 0.81662 0.0
C706 C 0.15379 0.18839 0.80634 0.0
C707 C 0.16536 0.16947 0.77754 0.0
C708 C 0.16188 0.11034 0.75906 0.0
C709 C 0.1468 0.07011 0.76926 0.0
H710 H 0.17704 0.20054 0.76961 0.0
H711 H 0.03316 0.80021 0.8704 0.0
H712 H 0.45253 0.79293 0.11568 0.0
H713 H 0.48162 0.85529 0.12478 0.0
H714 H 0.46495 0.99391 0.04195 0.0
H715 H 0.43579 0.93283 0.03324 0.0
H716 H 0.5098 0.87582 0.08056 0.0
H717 H 0.48288 0.1452 0.05724 0.0
H718 H 0.45448 0.2119 0.06921 0.0
H719 H 0.43967 0.08263 0.15703 0.0
H720 H 0.4681 0.01569 0.14593 0.0
H721 H 0.58355 0.08555 0.02499 0.0
H722 H 0.55486 0.02145 0.03294 0.0
H723 H 0.5431 0.12663 0.13208 0.0
H724 H 0.57151 0.19308 0.12338 0.0
H725 H 0.51274 0.12005 0.09578 0.0
H726 H 0.55816 0.95772 0.12952 0.0
H727 H 0.58677 0.88956 0.12344 0.0
H728 H 0.56503 0.80187 0.02646 0.0
H729 H 0.53639 0.87013 0.03169 0.0
C730 C 0.45494 0.83725 0.09977 0.0
C731 C 0.44179 0.85795 0.07379 0.0
C732 C 0.47163 0.87269 0.10489 0.0
C733 C 0.47547 0.92968 0.08427 0.0
C734 C 0.46221 0.95088 0.05869 0.0
C735 C 0.44553 0.91566 0.05364 0.0
C736 C 0.49368 0.96527 0.08809 0.0
C737 C 0.51044 0.92919 0.0841 0.0
C738 C 0.49462 0.03475 0.09345 0.0
C739 C 0.47755 0.07511 0.10053 0.0
C740 C 0.47361 0.13117 0.07921 0.0
C741 C 0.45749 0.16899 0.08583 0.0
C742 C 0.44525 0.15141 0.1138 0.0
C743 C 0.44913 0.09606 0.13529 0.0
C744 C 0.46523 0.05811 0.12881 0.0
C745 C 0.575 0.09454 0.04876 0.0
C746 C 0.57987 0.14432 0.07363 0.0
C747 C 0.55859 0.05752 0.05338 0.0
C748 C 0.54684 0.06828 0.08342 0.0
C749 C 0.55188 0.11721 0.10868 0.0
C750 C 0.56818 0.15499 0.10378 0.0
C751 C 0.52889 0.03084 0.08737 0.0
C752 C 0.51215 0.0666 0.09265 0.0
C753 C 0.52801 0.96084 0.08403 0.0
C754 C 0.54518 0.91939 0.0809 0.0
C755 C 0.55953 0.92419 0.10678 0.0
C756 C 0.57574 0.88549 0.1035 0.0
C757 C 0.57773 0.8415 0.07455 0.0
C758 C 0.56348 0.83598 0.04887 0.0
C759 C 0.54724 0.87459 0.05201 0.0
H760 H 0.5903 0.8116 0.07205 0.0
H761 H 0.43278 0.18073 0.11887 0.0
H762 H 0.59305 0.95266 0.56893 0.0
H763 H 0.5642 0.01725 0.56166 0.0
H764 H 0.53273 0.83588 0.54894 0.0
H765 H 0.56175 0.77183 0.55355 0.0
H766 H 0.51768 0.91838 0.50843 0.0
H767 H 0.53594 0.93156 0.63254 0.0
H768 H 0.55673 0.95406 0.68428 0.0
H769 H 0.56007 0.15912 0.65346 0.0
H770 H 0.53947 0.13765 0.60125 0.0
H771 H 0.43003 0.04991 0.57945 0.0
H772 H 0.4598 0.99 0.57211 0.0
H773 H 0.4866 0.17019 0.53656 0.0
H774 H 0.45679 0.23011 0.54282 0.0
H775 H 0.50379 0.09278 0.59927 0.0
H776 H 0.48184 0.07115 0.4759 0.0
H777 H 0.45859 0.0404 0.42962 0.0
H778 H 0.45937 0.83881 0.46718 0.0
H779 H 0.48243 0.86861 0.51405 0.0
C780 C 0.57999 0.92679 0.56409 0.0
C781 C 0.57963 0.85726 0.56191 0.0
C782 C 0.56344 0.96367 0.5603 0.0
C783 C 0.54605 0.93165 0.55578 0.0
C784 C 0.54584 0.86214 0.55248 0.0
C785 C 0.56247 0.82542 0.55516 0.0
C786 C 0.52807 0.97004 0.55537 0.0
C787 C 0.51466 0.95601 0.52858 0.0
C788 C 0.52394 0.01975 0.58142 0.0
C789 C 0.53634 0.03283 0.61277 0.0
C790 C 0.54122 0.98135 0.63666 0.0
C791 C 0.55295 0.99393 0.66608 0.0
C792 C 0.55976 0.05794 0.67209 0.0
C793 C 0.55481 0.10954 0.64873 0.0
C794 C 0.5431 0.09721 0.61923 0.0
C795 C 0.4422 0.07654 0.56953 0.0
C796 C 0.44106 0.14471 0.56166 0.0
C797 C 0.45917 0.04227 0.56536 0.0
C798 C 0.47536 0.07577 0.55384 0.0
C799 C 0.47423 0.14353 0.54543 0.0
C800 C 0.45717 0.17754 0.54886 0.0
C801 C 0.49368 0.04079 0.55251 0.0
C802 C 0.50702 0.05537 0.57908 0.0
C803 C 0.49748 0.99028 0.52705 0.0
C804 C 0.48372 0.97227 0.49871 0.0
C805 C 0.47692 0.0204 0.47451 0.0
C806 C 0.46381 0.00311 0.44812 0.0
C807 C 0.45747 0.93773 0.44552 0.0
C808 C 0.46428 0.88945 0.46924 0.0
C809 C 0.47739 0.90651 0.4957 0.0
H810 H 0.44731 0.92444 0.42507 0.0
H811 H 0.56884 0.06758 0.69489 0.0
H812 H 0.0884 0.55514 0.03512 0.0
H813 H 0.0587 0.49547 0.0403 0.0
H814 H 0.0372 0.64774 0.11115 0.0
H815 H 0.06705 0.7072 0.10665 0.0
H816 H 0.02527 0.52849 0.13307 0.0
H817 H 0.02641 0.64891 0.02163 0.0
H818 H 0.03924 0.68486 0.96282 0.0
H819 H 0.0373 0.48421 0.92408 0.0
H820 H 0.02469 0.44691 0.98287 0.0
H821 H 0.9305 0.44315 0.03404 0.0
H822 H 0.95939 0.50692 0.04082 0.0
H823 H 0.98284 0.35088 0.10664 0.0
H824 H 0.95379 0.28739 0.1006 0.0
H825 H 0.99287 0.47912 0.01766 0.0
H826 H 0.0155 0.41438 0.16417 0.0
H827 H 1.00087 0.39015 0.22325 0.0
H828 H 0.95176 0.49993 0.19239 0.0
H829 H 0.96619 0.52552 0.13335 0.0
C830 C 0.07746 0.57554 0.05224 0.0
C831 C 0.08006 0.63626 0.07025 0.0
C832 C 0.06044 0.54147 0.05504 0.0
C833 C 0.04556 0.56771 0.07556 0.0
C834 C 0.04843 0.6266 0.09505 0.0
C835 C 0.06552 0.66059 0.09241 0.0
C836 C 0.02674 0.53563 0.07505 0.0
C837 C 0.0182 0.51751 0.10785 0.0
C838 C 0.01724 0.52279 0.0422 0.0
C839 C 0.02477 0.54504 1.00677 0.0
C840 C 0.02885 0.61238 1.00066 0.0
C841 C 0.03606 0.63301 0.96732 0.0
C842 C 0.03913 0.58682 0.93976 0.0
C843 C 0.03494 0.51992 0.94547 0.0
C844 C 0.02775 0.49901 0.97878 0.0
C845 C 0.94169 0.42275 0.05041 0.0
C846 C 0.93982 0.36011 0.06677 0.0
C847 C 0.95826 0.45921 0.05414 0.0
C848 C 0.97334 0.43395 0.0743 0.0
C849 C 0.97134 0.37202 0.09137 0.0
C850 C 0.95472 0.33564 0.08782 0.0
C851 C 0.99146 0.47077 0.07569 0.0
C852 C 0.99991 0.48983 0.04295 0.0
C853 C 1.0006 0.48589 0.10863 0.0
C854 C 0.99187 0.47126 0.1442 0.0
C855 C 1.00161 0.43353 0.17005 0.0
C856 C 0.99335 0.41953 0.20352 0.0
C857 C 0.97537 0.4433 0.21152 0.0
C858 C 0.96565 0.48131 0.18611 0.0
C859 C 0.97385 0.49548 0.15261 0.0
H860 H 0.969 0.43238 0.23744 0.0
H861 H 0.04471 0.60289 0.91396 0.0
H862 H 0.08715 0.42925 0.59822 0.0
H863 H 0.05794 0.49171 0.59191 0.0
H864 H 0.03793 0.34835 0.51459 0.0
H865 H 0.06702 0.28486 0.52126 0.0
H866 H 0.03995 0.55366 0.5399 0.0
H867 H 0.9908 0.32583 0.52725 0.0
H868 H 0.98969 0.20837 0.54603 0.0
H869 H 0.02646 0.25053 0.63484 0.0
H870 H 0.02758 0.36828 0.61688 0.0
H871 H 0.94862 0.68268 0.50804 0.0
H872 H 0.9775 0.61744 0.50187 0.0
H873 H 0.96628 0.52368 0.60461 0.0
H874 H 0.9371 0.58604 0.60994 0.0
H875 H 0.98004 0.43627 0.56376 0.0
H876 H 0.99818 0.65992 0.59225 0.0
H877 H 0.99963 0.78118 0.58368 0.0
H878 H 0.02574 0.75366 0.47997 0.0
H879 H 0.02424 0.63217 0.48776 0.0
C880 C 0.07664 0.41132 0.57954 0.0
C881 C 0.07939 0.35175 0.56043 0.0
C882 C 0.05993 0.44723 0.57591 0.0
C883 C 0.04558 0.42435 0.55316 0.0
C884 C 0.04865 0.36648 0.53277 0.0
C885 C 0.06534 0.33039 0.53648 0.0
C886 C 0.02717 0.45952 0.55213 0.0
C887 C 0.02683 0.5279 0.54488 0.0
C888 C 0.01005 0.42641 0.55939 0.0
C889 C 1.00947 0.35566 0.57039 0.0
C890 C 0.99863 0.31 0.55079 0.0
C891 C 0.99799 0.24339 0.56131 0.0
C892 C 1.00806 0.22195 0.59152 0.0
C893 C 0.01874 0.26712 0.61135 0.0
C894 C 0.0194 0.33377 0.60098 0.0
C895 C 0.95222 0.64752 0.52906 0.0
C896 C 0.94058 0.63967 0.55951 0.0
C897 C 0.96883 0.61057 0.52567 0.0
C898 C 0.97436 0.56634 0.55311 0.0
C899 C 0.96242 0.55726 0.58299 0.0
C900 C 0.94569 0.59315 0.58605 0.0
C901 C 0.99274 0.53068 0.55154 0.0
C902 C 0.9931 0.46205 0.55828 0.0
C903 C 0.00994 0.56406 0.5451 0.0
C904 C 0.01091 0.63702 0.54042 0.0
C905 C 1.00411 0.67976 0.56752 0.0
C906 C 1.00496 0.74851 0.56281 0.0
C907 C 0.01272 0.77511 0.53125 0.0
C908 C 0.0197 0.73299 0.50437 0.0
C909 C 0.01887 0.6642 0.50892 0.0
H910 H 0.01336 0.82835 0.52766 0.0
H911 H 1.00754 0.17038 0.59962 0.0
loop_
_geom_bond_atom_site_label_1
_geom_bond_atom_site_label_2
_geom_bond_distance
_geom_bond_site_symmetry_2
_ccdc_geom_bond_type
O0 Cd1 2.223 1_556 S
O0 C8 1.315 . S
Cd1 O0 2.223 1_554 S
Cd1 O4 2.297 . S
Cd1 O5 2.439 . S
Cd1 O11 2.240 . S
Cd2 O3 2.240 . S
Cd2 O10 2.223 . S
Cd2 O12 2.297 . S
Cd2 O13 2.439 . S
O3 Cd2 2.240 . S
O3 C8 1.279 1_554 S
O4 Cd1 2.297 . S
O4 C6 1.247 . S
O5 Cd1 2.439 . S
O5 C6 1.208 . S
C6 O4 1.247 . S
C6 O5 1.208 . S
C7 O12 1.247 . S
C7 O13 1.208 . S
C8 O0 1.315 . S
C8 O3 1.279 1_556 S
C9 O10 1.315 . S
C9 O11 1.279 . S
O10 Cd2 2.223 . S
O10 C9 1.315 . S
O11 Cd1 2.240 . S
O11 C9 1.279 . S
O12 Cd2 2.297 . S
O12 C7 1.247 . S
O13 Cd2 2.439 . S
O13 C7 1.208 . S
O14 Cd15 2.223 1_556 S
O14 C22 1.315 . S
Cd15 O14 2.223 1_554 S
Cd15 O18 2.297 . S
Cd15 O19 2.439 . S
Cd15 O25 2.240 . S
Cd16 O17 2.240 . S
Cd16 O24 2.223 . S
Cd16 O26 2.297 . S
Cd16 O27 2.439 . S
O17 Cd16 2.240 . S
O17 C22 1.279 1_554 S
O18 Cd15 2.297 . S
O18 C20 1.247 . S
O19 Cd15 2.439 . S
O19 C20 1.208 . S
C20 O18 1.247 . S
C20 O19 1.208 . S
C21 O26 1.247 . S
C21 O27 1.208 . S
C22 O14 1.315 . S
C22 O17 1.279 1_556 S
C23 O24 1.315 . S
C23 O25 1.279 . S
O24 Cd16 2.223 . S
O24 C23 1.315 . S
O25 Cd15 2.240 . S
O25 C23 1.279 . S
O26 Cd16 2.297 . S
O26 C21 1.247 . S
O27 Cd16 2.439 . S
O27 C21 1.208 . S
O28 Cd29 2.223 . S
O28 C36 1.315 . S
Cd29 O28 2.223 . S
Cd29 O32 2.297 . S
Cd29 O33 2.439 . S
Cd29 O39 2.240 . S
Cd30 O31 2.240 . S
Cd30 O38 2.223 . S
Cd30 O40 2.297 . S
Cd30 O41 2.439 . S
O31 Cd30 2.240 . S
O31 C36 1.279 . S
O32 Cd29 2.297 . S
O32 C34 1.247 . S
O33 Cd29 2.439 . S
O33 C34 1.208 . S
C34 O32 1.247 . S
C34 O33 1.208 . S
C35 O40 1.247 . S
C35 O41 1.208 . S
C36 O28 1.315 . S
C36 O31 1.279 . S
C37 O38 1.315 . S
C37 O39 1.279 . S
O38 Cd30 2.223 . S
O38 C37 1.315 . S
O39 Cd29 2.240 . S
O39 C37 1.279 . S
O40 Cd30 2.297 . S
O40 C35 1.247 . S
O41 Cd30 2.439 . S
O41 C35 1.208 . S
O42 Cd43 2.223 . S
O42 C50 1.315 . S
Cd43 O42 2.223 . S
Cd43 O46 2.297 . S
Cd43 O47 2.439 . S
Cd43 O53 2.240 . S
Cd44 O45 2.240 . S
Cd44 O52 2.223 . S
Cd44 O54 2.297 . S
Cd44 O55 2.439 . S
O45 Cd44 2.240 . S
O45 C50 1.279 . S
O46 Cd43 2.297 . S
O46 C48 1.247 . S
O47 Cd43 2.439 . S
O47 C48 1.208 . S
C48 O46 1.247 . S
C48 O47 1.208 . S
C49 O54 1.247 . S
C49 O55 1.208 . S
C50 O42 1.315 . S
C50 O45 1.279 . S
C51 O52 1.315 . S
C51 O53 1.279 . S
O52 Cd44 2.223 . S
O52 C51 1.315 . S
O53 Cd43 2.240 . S
O53 C51 1.279 . S
O54 Cd44 2.297 . S
O54 C49 1.247 . S
O55 Cd44 2.439 . S
O55 C49 1.208 . S
O56 Cd57 2.223 1_556 S
O56 C64 1.315 . S
Cd57 O56 2.223 1_554 S
Cd57 O60 2.297 . S
Cd57 O61 2.439 . S
Cd57 O67 2.240 . S
Cd58 O59 2.240 . S
Cd58 O66 2.223 . S
Cd58 O68 2.297 . S
Cd58 O69 2.439 . S
O59 Cd58 2.240 . S
O59 C64 1.279 1_554 S
O60 Cd57 2.297 . S
O60 C62 1.247 . S
O61 Cd57 2.439 . S
O61 C62 1.208 . S
C62 O60 1.247 . S
C62 O61 1.208 . S
C63 O68 1.247 . S
C63 O69 1.208 . S
C64 O56 1.315 . S
C64 O59 1.279 1_556 S
C65 O66 1.315 . S
C65 O67 1.279 . S
O66 Cd58 2.223 . S
O66 C65 1.315 . S
O67 Cd57 2.240 . S
O67 C65 1.279 . S
O68 Cd58 2.297 . S
O68 C63 1.247 . S
O69 Cd58 2.439 . S
O69 C63 1.208 . S
O70 Cd71 2.223 1_556 S
O70 C78 1.315 . S
Cd71 O70 2.223 1_554 S
Cd71 O74 2.297 . S
Cd71 O75 2.439 . S
Cd71 O81 2.240 . S
Cd72 O73 2.240 . S
Cd72 O80 2.223 . S
Cd72 O82 2.297 . S
Cd72 O83 2.439 . S
O73 Cd72 2.240 . S
O73 C78 1.279 1_554 S
O74 Cd71 2.297 . S
O74 C76 1.247 . S
O75 Cd71 2.439 . S
O75 C76 1.208 . S
C76 O74 1.247 . S
C76 O75 1.208 . S
C77 O82 1.247 . S
C77 O83 1.208 . S
C78 O70 1.315 . S
C78 O73 1.279 1_556 S
C79 O80 1.315 . S
C79 O81 1.279 . S
O80 Cd72 2.223 . S
O80 C79 1.315 . S
O81 Cd71 2.240 . S
O81 C79 1.279 . S
O82 Cd72 2.297 . S
O82 C77 1.247 . S
O83 Cd72 2.439 . S
O83 C77 1.208 . S
O84 Cd85 2.223 . S
O84 C92 1.315 . S
Cd85 O84 2.223 . S
Cd85 O88 2.297 . S
Cd85 O89 2.439 . S
Cd85 O95 2.240 . S
Cd86 O87 2.240 . S
Cd86 O94 2.223 . S
Cd86 O96 2.297 . S
Cd86 O97 2.439 . S
O87 Cd86 2.240 . S
O87 C92 1.279 . S
O88 Cd85 2.297 . S
O88 C90 1.247 . S
O89 Cd85 2.439 . S
O89 C90 1.208 . S
C90 O88 1.247 . S
C90 O89 1.208 . S
C91 O96 1.247 . S
C91 O97 1.208 . S
C92 O84 1.315 . S
C92 O87 1.279 . S
C93 O94 1.315 . S
C93 O95 1.279 . S
O94 Cd86 2.223 . S
O94 C93 1.315 . S
O95 Cd85 2.240 . S
O95 C93 1.279 . S
O96 Cd86 2.297 . S
O96 C91 1.247 . S
O97 Cd86 2.439 . S
O97 C91 1.208 . S
O98 Cd99 2.223 . S
O98 C106 1.315 . S
Cd99 O98 2.223 . S
Cd99 O102 2.297 . S
Cd99 O103 2.439 . S
Cd99 O109 2.240 . S
Cd100 O101 2.240 . S
Cd100 O108 2.223 . S
Cd100 O110 2.297 . S
Cd100 O111 2.439 . S
O101 Cd100 2.240 . S
O101 C106 1.279 . S
O102 Cd99 2.297 . S
O102 C104 1.247 . S
O103 Cd99 2.439 . S
O103 C104 1.208 . S
C104 O102 1.247 . S
C104 O103 1.208 . S
C105 O110 1.247 . S
C105 O111 1.208 . S
C106 O98 1.315 . S
C106 O101 1.279 . S
C107 O108 1.315 . S
C107 O109 1.279 . S
O108 Cd100 2.223 . S
O108 C107 1.315 . S
O109 Cd99 2.240 . S
O109 C107 1.279 . S
O110 Cd100 2.297 . S
O110 C105 1.247 . S
O111 Cd100 2.439 . S
O111 C105 1.208 . S
H112 C130 0.951 . S
H113 C132 0.951 . S
H114 C134 0.950 . S
H115 C135 0.950 . S
H116 C137 0.950 1_556 S
H117 C140 0.950 . S
H118 C141 0.950 . S
H119 C143 0.950 . S
H120 C144 0.950 . S
H121 C145 0.951 . S
H122 C147 0.951 . S
H123 C149 0.950 . S
H124 C150 0.950 . S
H125 C152 0.950 . S
H126 C155 0.950 . S
H127 C156 0.950 . S
H128 C158 0.950 . S
H129 C159 0.950 . S
C130 H112 0.951 . S
C130 C131 1.366 . S
C130 C132 1.388 . S
C131 C130 1.366 . S
C131 C135 1.385 . S
C132 H113 0.951 . S
C132 C130 1.388 . S
C132 C133 1.366 . S
C133 C132 1.366 . S
C133 C134 1.414 . S
C133 C136 1.499 . S
C134 H114 0.950 . S
C134 C133 1.414 . S
C134 C135 1.374 . S
C135 H115 0.950 . S
C135 C131 1.385 . S
C135 C134 1.374 . S
C136 C133 1.499 . S
C136 C137 1.373 . S
C136 C138 1.389 . S
C137 H116 0.950 1_554 S
C137 C136 1.373 . S
C137 C153 1.377 . S
C138 C136 1.389 . S
C138 C139 1.524 . S
C138 C152 1.377 . S
C139 C138 1.524 . S
C139 C140 1.397 . S
C139 C144 1.363 . S
C140 H117 0.950 . S
C140 C139 1.397 . S
C140 C141 1.334 . S
C141 H118 0.950 . S
C141 C140 1.334 . S
C141 C142 1.287 . S
C142 C141 1.287 . S
C142 C143 1.524 . S
C142 H161 0.913 . S
C143 H119 0.950 . S
C143 C142 1.524 . S
C143 C144 1.415 . S
C144 H120 0.950 . S
C144 C139 1.363 . S
C144 C143 1.415 . S
C145 H121 0.951 . S
C145 C146 1.366 . S
C145 C147 1.388 . S
C146 C145 1.366 . S
C146 C150 1.385 . S
C147 H122 0.951 . S
C147 C145 1.388 . S
C147 C148 1.366 . S
C148 C147 1.366 . S
C148 C149 1.414 . S
C148 C151 1.499 . S
C149 H123 0.950 . S
C149 C148 1.414 . S
C149 C150 1.374 . S
C150 H124 0.950 . S
C150 C146 1.385 . S
C150 C149 1.374 . S
C151 C148 1.499 . S
C151 C152 1.373 . S
C151 C153 1.389 . S
C152 H125 0.950 . S
C152 C138 1.377 . S
C152 C151 1.373 . S
C153 C137 1.377 . S
C153 C151 1.389 . S
C153 C154 1.524 1_554 S
C154 C153 1.524 1_556 S
C154 C155 1.397 . S
C154 C159 1.363 . S
C155 H126 0.950 . S
C155 C154 1.397 . S
C155 C156 1.334 . S
C156 H127 0.950 . S
C156 C155 1.334 . S
C156 C157 1.287 . S
C157 C156 1.287 . S
C157 C158 1.524 . S
C157 H160 0.999 . S
C158 H128 0.950 . S
C158 C157 1.524 . S
C158 C159 1.415 . S
C159 H129 0.950 . S
C159 C154 1.363 . S
C159 C158 1.415 . S
H160 C157 0.999 . S
H161 C142 0.913 . S
H162 C180 0.951 1_556 S
H163 C182 0.951 1_556 S
H164 C184 0.950 . S
H165 C185 0.950 . S
H166 C187 0.950 . S
H167 C190 0.950 . S
H168 C191 0.950 1_554 S
H169 C193 0.950 . S
H170 C194 0.950 . S
H171 C195 0.951 . S
H172 C197 0.951 . S
H173 C199 0.950 1_556 S
H174 C200 0.950 1_556 S
H175 C202 0.950 1_556 S
H176 C205 0.950 . S
H177 C206 0.950 . S
H178 C208 0.950 . S
H179 C209 0.950 . S
C180 H162 0.951 1_554 S
C180 C181 1.366 . S
C180 C182 1.388 . S
C181 C180 1.366 . S
C181 C185 1.385 . S
C182 H163 0.951 1_554 S
C182 C180 1.388 . S
C182 C183 1.366 . S
C183 C182 1.366 . S
C183 C184 1.414 . S
C183 C186 1.499 . S
C184 H164 0.950 . S
C184 C183 1.414 . S
C184 C185 1.374 . S
C185 H165 0.950 . S
C185 C181 1.385 . S
C185 C184 1.374 . S
C186 C183 1.499 . S
C186 C187 1.373 . S
C186 C188 1.389 . S
C187 H166 0.950 . S
C187 C186 1.373 . S
C187 C203 1.377 . S
C188 C186 1.389 . S
C188 C189 1.524 1_554 S
C188 C202 1.377 . S
C189 C188 1.524 1_556 S
C189 C190 1.397 1_556 S
C189 C194 1.363 . S
C190 H167 0.950 . S
C190 C189 1.397 1_554 S
C190 C191 1.334 1_554 S
C191 H168 0.950 1_556 S
C191 C190 1.334 1_556 S
C191 C192 1.287 . S
C192 C191 1.287 . S
C192 C193 1.524 . S
C192 H211 0.913 . S
C193 H169 0.950 . S
C193 C192 1.524 . S
C193 C194 1.415 . S
C194 H170 0.950 . S
C194 C189 1.363 . S
C194 C193 1.415 . S
C195 H171 0.951 . S
C195 C196 1.366 . S
C195 C197 1.388 . S
C196 C195 1.366 . S
C196 C200 1.385 . S
C197 H172 0.951 . S
C197 C195 1.388 . S
C197 C198 1.366 . S
C198 C197 1.366 . S
C198 C199 1.414 . S
C198 C201 1.499 . S
C199 H173 0.950 1_554 S
C199 C198 1.414 . S
C199 C200 1.374 . S
C200 H174 0.950 1_554 S
C200 C196 1.385 . S
C200 C199 1.374 . S
C201 C198 1.499 . S
C201 C202 1.373 . S
C201 C203 1.389 . S
C202 H175 0.950 1_554 S
C202 C188 1.377 . S
C202 C201 1.373 . S
C203 C187 1.377 . S
C203 C201 1.389 . S
C203 C204 1.524 . S
C204 C203 1.524 . S
C204 C205 1.397 . S
C204 C209 1.363 . S
C205 H176 0.950 . S
C205 C204 1.397 . S
C205 C206 1.334 . S
C206 H177 0.950 . S
C206 C205 1.334 . S
C206 C207 1.287 . S
C207 C206 1.287 . S
C207 C208 1.524 . S
C207 H210 0.999 . S
C208 H178 0.950 . S
C208 C207 1.524 . S
C208 C209 1.415 . S
C209 H179 0.950 . S
C209 C204 1.363 . S
C209 C208 1.415 . S
H210 C207 0.999 . S
H211 C192 0.913 . S
H212 C230 0.951 . S
H213 C232 0.951 . S
H214 C234 0.950 . S
H215 C235 0.950 . S
H216 C237 0.950 . S
H217 C240 0.950 . S
H218 C241 0.950 . S
H219 C243 0.950 . S
H220 C244 0.950 . S
H221 C245 0.951 . S
H222 C247 0.951 . S
H223 C249 0.950 . S
H224 C250 0.950 . S
H225 C252 0.950 . S
H226 C255 0.950 . S
H227 C256 0.950 . S
H228 C258 0.950 . S
H229 C259 0.950 . S
C230 H212 0.951 . S
C230 C231 1.366 . S
C230 C232 1.388 . S
C231 C230 1.366 . S
C231 C235 1.385 . S
C232 H213 0.951 . S
C232 C230 1.388 . S
C232 C233 1.366 . S
C233 C232 1.366 . S
C233 C234 1.414 . S
C233 C236 1.499 . S
C234 H214 0.950 . S
C234 C233 1.414 . S
C234 C235 1.374 . S
C235 H215 0.950 . S
C235 C231 1.385 . S
C235 C234 1.374 . S
C236 C233 1.499 . S
C236 C237 1.373 . S
C236 C238 1.389 . S
C237 H216 0.950 . S
C237 C236 1.373 . S
C237 C253 1.377 . S
C238 C236 1.389 . S
C238 C239 1.524 . S
C238 C252 1.377 . S
C239 C238 1.524 . S
C239 C240 1.397 . S
C239 C244 1.363 . S
C240 H217 0.950 . S
C240 C239 1.397 . S
C240 C241 1.334 . S
C241 H218 0.950 . S
C241 C240 1.334 . S
C241 C242 1.287 . S
C242 C241 1.287 . S
C242 C243 1.524 . S
C242 H261 0.913 . S
C243 H219 0.950 . S
C243 C242 1.524 . S
C243 C244 1.415 . S
C244 H220 0.950 . S
C244 C239 1.363 . S
C244 C243 1.415 . S
C245 H221 0.951 . S
C245 C246 1.366 . S
C245 C247 1.388 . S
C246 C245 1.366 . S
C246 C250 1.385 . S
C247 H222 0.951 . S
C247 C245 1.388 . S
C247 C248 1.366 . S
C248 C247 1.366 . S
C248 C249 1.414 . S
C248 C251 1.499 . S
C249 H223 0.950 . S
C249 C248 1.414 . S
C249 C250 1.374 . S
C250 H224 0.950 . S
C250 C246 1.385 . S
C250 C249 1.374 . S
C251 C248 1.499 . S
C251 C252 1.373 . S
C251 C253 1.389 . S
C252 H225 0.950 . S
C252 C238 1.377 . S
C252 C251 1.373 . S
C253 C237 1.377 . S
C253 C251 1.389 . S
C253 C254 1.524 . S
C254 C253 1.524 . S
C254 C255 1.397 . S
C254 C259 1.363 . S
C255 H226 0.950 . S
C255 C254 1.397 . S
C255 C256 1.334 . S
C256 H227 0.950 . S
C256 C255 1.334 . S
C256 C257 1.287 . S
C257 C256 1.287 . S
C257 C258 1.524 . S
C257 H260 0.999 . S
C258 H228 0.950 . S
C258 C257 1.524 . S
C258 C259 1.415 . S
C259 H229 0.950 . S
C259 C254 1.363 . S
C259 C258 1.415 . S
H260 C257 0.999 . S
H261 C242 0.913 . S
H262 C280 0.951 . S
H263 C282 0.951 . S
H264 C284 0.950 . S
H265 C285 0.950 . S
H266 C287 0.950 . S
H267 C290 0.950 . S
H268 C291 0.950 . S
H269 C293 0.950 . S
H270 C294 0.950 . S
H271 C295 0.951 . S
H272 C297 0.951 . S
H273 C299 0.950 . S
H274 C300 0.950 . S
H275 C302 0.950 . S
H276 C305 0.950 . S
H277 C306 0.950 . S
H278 C308 0.950 . S
H279 C309 0.950 . S
C280 H262 0.951 . S
C280 C281 1.366 . S
C280 C282 1.388 . S
C281 C280 1.366 . S
C281 C285 1.385 . S
C282 H263 0.951 . S
C282 C280 1.388 . S
C282 C283 1.366 . S
C283 C282 1.366 . S
C283 C284 1.414 . S
C283 C286 1.499 . S
C284 H264 0.950 . S
C284 C283 1.414 . S
C284 C285 1.374 . S
C285 H265 0.950 . S
C285 C281 1.385 . S
C285 C284 1.374 . S
C286 C283 1.499 . S
C286 C287 1.373 . S
C286 C288 1.389 . S
C287 H266 0.950 . S
C287 C286 1.373 . S
C287 C303 1.377 . S
C288 C286 1.389 . S
C288 C289 1.524 . S
C288 C302 1.377 . S
C289 C288 1.524 . S
C289 C290 1.397 . S
C289 C294 1.363 . S
C290 H267 0.950 . S
C290 C289 1.397 . S
C290 C291 1.334 . S
C291 H268 0.950 . S
C291 C290 1.334 . S
C291 C292 1.287 . S
C292 C291 1.287 . S
C292 C293 1.524 . S
C292 H311 0.913 . S
C293 H269 0.950 . S
C293 C292 1.524 . S
C293 C294 1.415 . S
C294 H270 0.950 . S
C294 C289 1.363 . S
C294 C293 1.415 . S
C295 H271 0.951 . S
C295 C296 1.366 . S
C295 C297 1.388 . S
C296 C295 1.366 . S
C296 C300 1.385 . S
C297 H272 0.951 . S
C297 C295 1.388 . S
C297 C298 1.366 . S
C298 C297 1.366 . S
C298 C299 1.414 . S
C298 C301 1.499 . S
C299 H273 0.950 . S
C299 C298 1.414 . S
C299 C300 1.374 . S
C300 H274 0.950 . S
C300 C296 1.385 . S
C300 C299 1.374 . S
C301 C298 1.499 . S
C301 C302 1.373 . S
C301 C303 1.389 . S
C302 H275 0.950 . S
C302 C288 1.377 . S
C302 C301 1.373 . S
C303 C287 1.377 . S
C303 C301 1.389 . S
C303 C304 1.524 . S
C304 C303 1.524 . S
C304 C305 1.397 . S
C304 C309 1.363 . S
C305 H276 0.950 . S
C305 C304 1.397 . S
C305 C306 1.334 . S
C306 H277 0.950 . S
C306 C305 1.334 . S
C306 C307 1.287 . S
C307 C306 1.287 . S
C307 C308 1.524 . S
C307 H310 0.999 . S
C308 H278 0.950 . S
C308 C307 1.524 . S
C308 C309 1.415 . S
C309 H279 0.950 . S
C309 C304 1.363 . S
C309 C308 1.415 . S
H310 C307 0.999 . S
H311 C292 0.913 . S
H312 C330 0.951 . S
H313 C332 0.951 . S
H314 C334 0.950 . S
H315 C335 0.950 . S
H316 C337 0.950 . S
H317 C340 0.950 . S
H318 C341 0.950 . S
H319 C343 0.950 . S
H320 C344 0.950 . S
H321 C345 0.951 . S
H322 C347 0.951 . S
H323 C349 0.950 . S
H324 C350 0.950 . S
H325 C352 0.950 . S
H326 C355 0.950 . S
H327 C356 0.950 . S
H328 C358 0.950 . S
H329 C359 0.950 . S
C330 H312 0.951 . S
C330 C331 1.366 . S
C330 C332 1.388 . S
C331 C330 1.366 . S
C331 C335 1.385 . S
C332 H313 0.951 . S
C332 C330 1.388 . S
C332 C333 1.366 . S
C333 C332 1.366 . S
C333 C334 1.414 . S
C333 C336 1.499 . S
C334 H314 0.950 . S
C334 C333 1.414 . S
C334 C335 1.374 . S
C335 H315 0.950 . S
C335 C331 1.385 . S
C335 C334 1.374 . S
C336 C333 1.499 . S
C336 C337 1.373 . S
C336 C338 1.389 . S
C337 H316 0.950 . S
C337 C336 1.373 . S
C337 C353 1.377 . S
C338 C336 1.389 . S
C338 C339 1.524 . S
C338 C352 1.377 . S
C339 C338 1.524 . S
C339 C340 1.397 . S
C339 C344 1.363 . S
C340 H317 0.950 . S
C340 C339 1.397 . S
C340 C341 1.334 . S
C341 H318 0.950 . S
C341 C340 1.334 . S
C341 C342 1.287 . S
C342 C341 1.287 . S
C342 C343 1.524 . S
C342 H361 0.913 . S
C343 H319 0.950 . S
C343 C342 1.524 . S
C343 C344 1.415 . S
C344 H320 0.950 . S
C344 C339 1.363 . S
C344 C343 1.415 . S
C345 H321 0.951 . S
C345 C346 1.366 . S
C345 C347 1.388 . S
C346 C345 1.366 . S
C346 C350 1.385 . S
C347 H322 0.951 . S
C347 C345 1.388 . S
C347 C348 1.366 . S
C348 C347 1.366 . S
C348 C349 1.414 . S
C348 C351 1.499 . S
C349 H323 0.950 . S
C349 C348 1.414 . S
C349 C350 1.374 . S
C350 H324 0.950 . S
C350 C346 1.385 . S
C350 C349 1.374 . S
C351 C348 1.499 . S
C351 C352 1.373 . S
C351 C353 1.389 . S
C352 H325 0.950 . S
C352 C338 1.377 . S
C352 C351 1.373 . S
C353 C337 1.377 . S
C353 C351 1.389 . S
C353 C354 1.524 . S
C354 C353 1.524 . S
C354 C355 1.397 . S
C354 C359 1.363 . S
C355 H326 0.950 . S
C355 C354 1.397 . S
C355 C356 1.334 . S
C356 H327 0.950 . S
C356 C355 1.334 . S
C356 C357 1.287 . S
C357 C356 1.287 . S
C357 C358 1.524 . S
C357 H360 0.999 . S
C358 H328 0.950 . S
C358 C357 1.524 . S
C358 C359 1.415 . S
C359 H329 0.950 . S
C359 C354 1.363 . S
C359 C358 1.415 . S
H360 C357 0.999 . S
H361 C342 0.913 . S
H362 C380 0.951 . S
H363 C382 0.951 . S
H364 C384 0.950 . S
H365 C385 0.950 . S
H366 C387 0.950 . S
H367 C390 0.950 . S
H368 C391 0.950 . S
H369 C393 0.950 . S
H370 C394 0.950 . S
H371 C395 0.951 . S
H372 C397 0.951 . S
H373 C399 0.950 . S
H374 C400 0.950 . S
H375 C402 0.950 . S
H376 C405 0.950 . S
H377 C406 0.950 . S
H378 C408 0.950 . S
H379 C409 0.950 . S
C380 H362 0.951 . S
C380 C381 1.366 . S
C380 C382 1.388 . S
C381 C380 1.366 . S
C381 C385 1.385 . S
C382 H363 0.951 . S
C382 C380 1.388 . S
C382 C383 1.366 . S
C383 C382 1.366 . S
C383 C384 1.414 . S
C383 C386 1.499 . S
C384 H364 0.950 . S
C384 C383 1.414 . S
C384 C385 1.374 . S
C385 H365 0.950 . S
C385 C381 1.385 . S
C385 C384 1.374 . S
C386 C383 1.499 . S
C386 C387 1.373 . S
C386 C388 1.389 . S
C387 H366 0.950 . S
C387 C386 1.373 . S
C387 C403 1.377 . S
C388 C386 1.389 . S
C388 C389 1.524 . S
C388 C402 1.377 . S
C389 C388 1.524 . S
C389 C390 1.397 . S
C389 C394 1.363 . S
C390 H367 0.950 . S
C390 C389 1.397 . S
C390 C391 1.334 . S
C391 H368 0.950 . S
C391 C390 1.334 . S
C391 C392 1.287 . S
C392 C391 1.287 . S
C392 C393 1.524 . S
C392 H411 0.913 . S
C393 H369 0.950 . S
C393 C392 1.524 . S
C393 C394 1.415 . S
C394 H370 0.950 . S
C394 C389 1.363 . S
C394 C393 1.415 . S
C395 H371 0.951 . S
C395 C396 1.366 . S
C395 C397 1.388 . S
C396 C395 1.366 . S
C396 C400 1.385 . S
C397 H372 0.951 . S
C397 C395 1.388 . S
C397 C398 1.366 . S
C398 C397 1.366 . S
C398 C399 1.414 . S
C398 C401 1.499 . S
C399 H373 0.950 . S
C399 C398 1.414 . S
C399 C400 1.374 . S
C400 H374 0.950 . S
C400 C396 1.385 . S
C400 C399 1.374 . S
C401 C398 1.499 . S
C401 C402 1.373 . S
C401 C403 1.389 . S
C402 H375 0.950 . S
C402 C388 1.377 . S
C402 C401 1.373 . S
C403 C387 1.377 . S
C403 C401 1.389 . S
C403 C404 1.524 . S
C404 C403 1.524 . S
C404 C405 1.397 . S
C404 C409 1.363 . S
C405 H376 0.950 . S
C405 C404 1.397 . S
C405 C406 1.334 . S
C406 H377 0.950 . S
C406 C405 1.334 . S
C406 C407 1.287 . S
C407 C406 1.287 . S
C407 C408 1.524 . S
C407 H410 0.999 . S
C408 H378 0.950 . S
C408 C407 1.524 . S
C408 C409 1.415 . S
C409 H379 0.950 . S
C409 C404 1.363 . S
C409 C408 1.415 . S
H410 C407 0.999 . S
H411 C392 0.913 . S
H412 C430 0.951 . S
H413 C432 0.951 . S
H414 C434 0.950 . S
H415 C435 0.950 . S
H416 C437 0.950 . S
H417 C440 0.950 . S
H418 C441 0.950 . S
H419 C443 0.950 . S
H420 C444 0.950 . S
H421 C445 0.951 . S
H422 C447 0.951 . S
H423 C449 0.950 . S
H424 C450 0.950 . S
H425 C452 0.950 . S
H426 C455 0.950 . S
H427 C456 0.950 . S
H428 C458 0.950 . S
H429 C459 0.950 . S
C430 H412 0.951 . S
C430 C431 1.366 . S
C430 C432 1.388 . S
C431 C430 1.366 . S
C431 C435 1.385 . S
C432 H413 0.951 . S
C432 C430 1.388 . S
C432 C433 1.366 . S
C433 C432 1.366 . S
C433 C434 1.414 . S
C433 C436 1.499 . S
C434 H414 0.950 . S
C434 C433 1.414 . S
C434 C435 1.374 . S
C435 H415 0.950 . S
C435 C431 1.385 . S
C435 C434 1.374 . S
C436 C433 1.499 . S
C436 C437 1.373 . S
C436 C438 1.389 . S
C437 H416 0.950 . S
C437 C436 1.373 . S
C437 C453 1.377 . S
C438 C436 1.389 . S
C438 C439 1.524 . S
C438 C452 1.377 . S
C439 C438 1.524 . S
C439 C440 1.397 . S
C439 C444 1.363 . S
C440 H417 0.950 . S
C440 C439 1.397 . S
C440 C441 1.334 . S
C441 H418 0.950 . S
C441 C440 1.334 . S
C441 C442 1.287 . S
C442 C441 1.287 . S
C442 C443 1.524 . S
C442 H461 0.913 . S
C443 H419 0.950 . S
C443 C442 1.524 . S
C443 C444 1.415 . S
C444 H420 0.950 . S
C444 C439 1.363 . S
C444 C443 1.415 . S
C445 H421 0.951 . S
C445 C446 1.366 . S
C445 C447 1.388 . S
C446 C445 1.366 . S
C446 C450 1.385 . S
C447 H422 0.951 . S
C447 C445 1.388 . S
C447 C448 1.366 . S
C448 C447 1.366 . S
C448 C449 1.414 . S
C448 C451 1.499 . S
C449 H423 0.950 . S
C449 C448 1.414 . S
C449 C450 1.374 . S
C450 H424 0.950 . S
C450 C446 1.385 . S
C450 C449 1.374 . S
C451 C448 1.499 . S
C451 C452 1.373 . S
C451 C453 1.389 . S
C452 H425 0.950 . S
C452 C438 1.377 . S
C452 C451 1.373 . S
C453 C437 1.377 . S
C453 C451 1.389 . S
C453 C454 1.524 . S
C454 C453 1.524 . S
C454 C455 1.397 . S
C454 C459 1.363 . S
C455 H426 0.950 . S
C455 C454 1.397 . S
C455 C456 1.334 . S
C456 H427 0.950 . S
C456 C455 1.334 . S
C456 C457 1.287 . S
C457 C456 1.287 . S
C457 C458 1.524 . S
C457 H460 0.999 . S
C458 H428 0.950 . S
C458 C457 1.524 . S
C458 C459 1.415 . S
C459 H429 0.950 . S
C459 C454 1.363 . S
C459 C458 1.415 . S
H460 C457 0.999 . S
H461 C442 0.913 . S
H462 C480 0.951 . S
H463 C482 0.951 . S
H464 C484 0.950 . S
H465 C485 0.950 . S
H466 C487 0.950 . S
H467 C490 0.950 . S
H468 C491 0.950 . S
H469 C493 0.950 . S
H470 C494 0.950 . S
H471 C495 0.951 . S
H472 C497 0.951 . S
H473 C499 0.950 . S
H474 C500 0.950 . S
H475 C502 0.950 . S
H476 C505 0.950 . S
H477 C506 0.950 . S
H478 C508 0.950 . S
H479 C509 0.950 . S
C480 H462 0.951 . S
C480 C481 1.366 . S
C480 C482 1.388 . S
C481 C480 1.366 . S
C481 C485 1.385 . S
C482 H463 0.951 . S
C482 C480 1.388 . S
C482 C483 1.366 . S
C483 C482 1.366 . S
C483 C484 1.414 . S
C483 C486 1.499 . S
C484 H464 0.950 . S
C484 C483 1.414 . S
C484 C485 1.374 . S
C485 H465 0.950 . S
C485 C481 1.385 . S
C485 C484 1.374 . S
C486 C483 1.499 . S
C486 C487 1.373 . S
C486 C488 1.389 . S
C487 H466 0.950 . S
C487 C486 1.373 . S
C487 C503 1.377 . S
C488 C486 1.389 . S
C488 C489 1.524 . S
C488 C502 1.377 . S
C489 C488 1.524 . S
C489 C490 1.397 . S
C489 C494 1.363 . S
C490 H467 0.950 . S
C490 C489 1.397 . S
C490 C491 1.334 . S
C491 H468 0.950 . S
C491 C490 1.334 . S
C491 C492 1.287 . S
C492 C491 1.287 . S
C492 C493 1.524 . S
C492 H511 0.913 . S
C493 H469 0.950 . S
C493 C492 1.524 . S
C493 C494 1.415 . S
C494 H470 0.950 . S
C494 C489 1.363 . S
C494 C493 1.415 . S
C495 H471 0.951 . S
C495 C496 1.366 . S
C495 C497 1.388 . S
C496 C495 1.366 . S
C496 C500 1.385 . S
C497 H472 0.951 . S
C497 C495 1.388 . S
C497 C498 1.366 . S
C498 C497 1.366 . S
C498 C499 1.414 . S
C498 C501 1.499 . S
C499 H473 0.950 . S
C499 C498 1.414 . S
C499 C500 1.374 . S
C500 H474 0.950 . S
C500 C496 1.385 . S
C500 C499 1.374 . S
C501 C498 1.499 . S
C501 C502 1.373 . S
C501 C503 1.389 . S
C502 H475 0.950 . S
C502 C488 1.377 . S
C502 C501 1.373 . S
C503 C487 1.377 . S
C503 C501 1.389 . S
C503 C504 1.524 . S
C504 C503 1.524 . S
C504 C505 1.397 . S
C504 C509 1.363 . S
C505 H476 0.950 . S
C505 C504 1.397 . S
C505 C506 1.334 . S
C506 H477 0.950 . S
C506 C505 1.334 . S
C506 C507 1.287 . S
C507 C506 1.287 . S
C507 C508 1.524 . S
C507 H510 0.999 . S
C508 H478 0.950 . S
C508 C507 1.524 . S
C508 C509 1.415 . S
C509 H479 0.950 . S
C509 C504 1.363 . S
C509 C508 1.415 . S
H510 C507 0.999 . S
H511 C492 0.913 . S
H512 C530 0.951 . S
H513 C532 0.951 . S
H514 C534 0.950 1_545 S
H515 C535 0.941 1_545 S
H516 C537 0.950 . S
H517 C540 0.950 . S
H518 C541 0.950 . S
H519 C543 0.950 . S
H520 C544 0.950 . S
H521 C545 0.951 . S
H522 C547 0.951 . S
H523 C549 0.950 1_565 S
H524 C550 0.940 1_565 S
H525 C552 0.950 . S
H526 C555 0.950 . S
H527 C556 0.950 . S
H528 C558 0.950 . S
H529 C559 0.950 . S
C530 H512 0.951 . S
C530 C531 1.366 . S
C530 C532 1.388 . S
C531 C530 1.366 . S
C531 C535 1.385 . S
C532 H513 0.951 . S
C532 C530 1.388 . S
C532 C533 1.366 . S
C533 C532 1.366 . S
C533 C534 1.414 . S
C533 C536 1.499 . S
C534 H514 0.950 1_565 S
C534 C533 1.414 . S
C534 C535 1.374 . S
C535 H515 0.941 1_565 S
C535 C531 1.385 . S
C535 C534 1.374 . S
C536 C533 1.499 . S
C536 C537 1.373 1_565 S
C536 C538 1.389 . S
C537 H516 0.950 . S
C537 C536 1.373 1_545 S
C537 C553 1.377 . S
C538 C536 1.389 . S
C538 C539 1.524 . S
C538 C552 1.377 . S
C539 C538 1.524 . S
C539 C540 1.397 . S
C539 C544 1.363 . S
C540 H517 0.950 . S
C540 C539 1.397 . S
C540 C541 1.334 . S
C541 H518 0.950 . S
C541 C540 1.334 . S
C541 C542 1.287 . S
C542 C541 1.287 . S
C542 C543 1.524 . S
C542 H561 0.913 . S
C543 H519 0.950 . S
C543 C542 1.524 . S
C543 C544 1.415 . S
C544 H520 0.950 . S
C544 C539 1.363 . S
C544 C543 1.415 . S
C545 H521 0.951 . S
C545 C546 1.366 . S
C545 C547 1.388 . S
C546 C545 1.366 . S
C546 C550 1.385 . S
C547 H522 0.951 . S
C547 C545 1.388 . S
C547 C548 1.366 . S
C548 C547 1.366 . S
C548 C549 1.414 . S
C548 C551 1.499 . S
C549 H523 0.950 1_545 S
C549 C548 1.414 . S
C549 C550 1.374 . S
C550 H524 0.940 1_545 S
C550 C546 1.385 . S
C550 C549 1.374 . S
C551 C548 1.499 . S
C551 C552 1.373 1_545 S
C551 C553 1.389 . S
C552 H525 0.950 . S
C552 C538 1.377 . S
C552 C551 1.373 1_565 S
C553 C537 1.377 . S
C553 C551 1.389 . S
C553 C554 1.524 . S
C554 C553 1.524 . S
C554 C555 1.397 . S
C554 C559 1.363 . S
C555 H526 0.950 . S
C555 C554 1.397 . S
C555 C556 1.334 . S
C556 H527 0.950 . S
C556 C555 1.334 . S
C556 C557 1.287 . S
C557 C556 1.287 . S
C557 C558 1.524 . S
C557 H560 0.999 . S
C558 H528 0.950 . S
C558 C557 1.524 . S
C558 C559 1.415 . S
C559 H529 0.950 . S
C559 C554 1.363 . S
C559 C558 1.415 . S
H560 C557 0.999 . S
H561 C542 0.913 . S
H562 C580 0.951 . S
H563 C582 0.951 . S
H564 C584 0.950 . S
H565 C585 0.950 . S
H566 C587 0.950 . S
H567 C590 0.950 . S
H568 C591 0.950 . S
H569 C593 0.950 . S
H570 C594 0.950 . S
H571 C595 0.951 . S
H572 C597 0.951 . S
H573 C599 0.950 . S
H574 C600 0.950 . S
H575 C602 0.950 . S
H576 C605 0.950 . S
H577 C606 0.950 . S
H578 C608 0.950 . S
H579 C609 0.950 . S
C580 H562 0.951 . S
C580 C581 1.366 . S
C580 C582 1.388 . S
C581 C580 1.366 . S
C581 C585 1.385 . S
C582 H563 0.951 . S
C582 C580 1.388 . S
C582 C583 1.366 . S
C583 C582 1.366 . S
C583 C584 1.414 . S
C583 C586 1.499 . S
C584 H564 0.950 . S
C584 C583 1.414 . S
C584 C585 1.374 . S
C585 H565 0.950 . S
C585 C581 1.385 . S
C585 C584 1.374 . S
C586 C583 1.499 . S
C586 C587 1.373 . S
C586 C588 1.389 1_565 S
C587 H566 0.950 . S
C587 C586 1.373 . S
C587 C603 1.377 . S
C588 C586 1.389 1_545 S
C588 C589 1.524 . S
C588 C602 1.377 . S
C589 C588 1.524 . S
C589 C590 1.397 . S
C589 C594 1.363 . S
C590 H567 0.950 . S
C590 C589 1.397 . S
C590 C591 1.334 . S
C591 H568 0.950 . S
C591 C590 1.334 . S
C591 C592 1.287 . S
C592 C591 1.287 . S
C592 C593 1.524 . S
C592 H611 0.913 . S
C593 H569 0.950 . S
C593 C592 1.524 . S
C593 C594 1.415 . S
C594 H570 0.950 . S
C594 C589 1.363 . S
C594 C593 1.415 . S
C595 H571 0.951 . S
C595 C596 1.366 . S
C595 C597 1.388 . S
C596 C595 1.366 . S
C596 C600 1.385 . S
C597 H572 0.951 . S
C597 C595 1.388 . S
C597 C598 1.366 . S
C598 C597 1.366 . S
C598 C599 1.414 . S
C598 C601 1.499 . S
C599 H573 0.950 . S
C599 C598 1.414 . S
C599 C600 1.374 . S
C600 H574 0.950 . S
C600 C596 1.385 . S
C600 C599 1.374 . S
C601 C598 1.499 . S
C601 C602 1.373 . S
C601 C603 1.389 1_545 S
C602 H575 0.950 . S
C602 C588 1.377 . S
C602 C601 1.373 . S
C603 C587 1.377 . S
C603 C601 1.389 1_565 S
C603 C604 1.524 . S
C604 C603 1.524 . S
C604 C605 1.397 . S
C604 C609 1.363 . S
C605 H576 0.950 . S
C605 C604 1.397 . S
C605 C606 1.334 . S
C606 H577 0.950 . S
C606 C605 1.334 . S
C606 C607 1.287 . S
C607 C606 1.287 . S
C607 C608 1.524 . S
C607 H610 0.999 . S
C608 H578 0.950 . S
C608 C607 1.524 . S
C608 C609 1.415 . S
C609 H579 0.950 . S
C609 C604 1.363 . S
C609 C608 1.415 . S
H610 C607 0.999 . S
H611 C592 0.913 . S
H612 C630 0.951 . S
H613 C632 0.951 1_545 S
H614 C634 0.950 . S
H615 C635 0.950 . S
H616 C637 0.950 . S
H617 C640 0.950 1_565 S
H618 C641 0.950 . S
H619 C643 0.950 . S
H620 C644 0.950 . S
H621 C645 0.951 . S
H622 C647 0.951 1_565 S
H623 C649 0.950 . S
H624 C650 0.950 . S
H625 C652 0.950 . S
H626 C655 0.950 1_545 S
H627 C656 0.950 . S
H628 C658 0.950 . S
H629 C659 0.950 . S
C630 H612 0.951 . S
C630 C631 1.366 . S
C630 C632 1.388 . S
C631 C630 1.366 . S
C631 C635 1.385 . S
C632 H613 0.951 1_565 S
C632 C630 1.388 . S
C632 C633 1.366 . S
C633 C632 1.366 . S
C633 C634 1.414 . S
C633 C636 1.499 . S
C634 H614 0.950 . S
C634 C633 1.414 . S
C634 C635 1.374 . S
C635 H615 0.950 . S
C635 C631 1.385 . S
C635 C634 1.374 . S
C636 C633 1.499 . S
C636 C637 1.373 . S
C636 C638 1.389 1_565 S
C637 H616 0.950 . S
C637 C636 1.373 . S
C637 C653 1.377 . S
C638 C636 1.389 1_545 S
C638 C639 1.524 . S
C638 C652 1.377 . S
C639 C638 1.524 . S
C639 C640 1.397 . S
C639 C644 1.363 . S
C640 H617 0.950 1_545 S
C640 C639 1.397 . S
C640 C641 1.334 . S
C641 H618 0.950 . S
C641 C640 1.334 . S
C641 C642 1.287 . S
C642 C641 1.287 . S
C642 C643 1.524 . S
C642 H661 0.913 . S
C643 H619 0.950 . S
C643 C642 1.524 . S
C643 C644 1.415 . S
C644 H620 0.950 . S
C644 C639 1.363 . S
C644 C643 1.415 . S
C645 H621 0.951 . S
C645 C646 1.366 . S
C645 C647 1.388 . S
C646 C645 1.366 . S
C646 C650 1.385 . S
C647 H622 0.951 1_545 S
C647 C645 1.388 . S
C647 C648 1.366 . S
C648 C647 1.366 . S
C648 C649 1.414 . S
C648 C651 1.499 . S
C649 H623 0.950 . S
C649 C648 1.414 . S
C649 C650 1.374 . S
C650 H624 0.950 . S
C650 C646 1.385 . S
C650 C649 1.374 . S
C651 C648 1.499 . S
C651 C652 1.373 . S
C651 C653 1.389 1_545 S
C652 H625 0.950 . S
C652 C638 1.377 . S
C652 C651 1.373 . S
C653 C637 1.377 . S
C653 C651 1.389 1_565 S
C653 C654 1.524 . S
C654 C653 1.524 . S
C654 C655 1.397 . S
C654 C659 1.363 . S
C655 H626 0.950 1_565 S
C655 C654 1.397 . S
C655 C656 1.334 . S
C656 H627 0.950 . S
C656 C655 1.334 . S
C656 C657 1.287 . S
C657 C656 1.287 . S
C657 C658 1.524 . S
C657 H660 0.999 . S
C658 H628 0.950 . S
C658 C657 1.524 . S
C658 C659 1.415 . S
C659 H629 0.950 . S
C659 C654 1.363 . S
C659 C658 1.415 . S
H660 C657 0.999 . S
H661 C642 0.913 . S
H662 C680 0.951 . S
H663 C682 0.951 . S
H664 C684 0.950 . S
H665 C685 0.950 . S
H666 C687 0.950 . S
H667 C690 0.950 . S
H668 C691 0.950 . S
H669 C693 0.950 . S
H670 C694 0.950 . S
H671 C695 0.951 . S
H672 C697 0.951 . S
H673 C699 0.950 . S
H674 C700 0.950 . S
H675 C702 0.950 . S
H676 C705 0.950 . S
H677 C706 0.950 . S
H678 C708 0.950 . S
H679 C709 0.950 . S
C680 H662 0.951 . S
C680 C681 1.366 . S
C680 C682 1.388 . S
C681 C680 1.366 . S
C681 C685 1.385 . S
C682 H663 0.951 . S
C682 C680 1.388 . S
C682 C683 1.366 . S
C683 C682 1.366 . S
C683 C684 1.414 . S
C683 C686 1.499 . S
C684 H664 0.950 . S
C684 C683 1.414 . S
C684 C685 1.374 . S
C685 H665 0.950 . S
C685 C681 1.385 . S
C685 C684 1.374 . S
C686 C683 1.499 . S
C686 C687 1.373 1_565 S
C686 C688 1.389 . S
C687 H666 0.950 . S
C687 C686 1.373 1_545 S
C687 C703 1.377 . S
C688 C686 1.389 . S
C688 C689 1.524 . S
C688 C702 1.377 . S
C689 C688 1.524 . S
C689 C690 1.397 . S
C689 C694 1.363 . S
C690 H667 0.950 . S
C690 C689 1.397 . S
C690 C691 1.334 . S
C691 H668 0.950 . S
C691 C690 1.334 . S
C691 C692 1.287 . S
C692 C691 1.287 . S
C692 C693 1.524 . S
C692 H711 0.913 . S
C693 H669 0.950 . S
C693 C692 1.524 . S
C693 C694 1.415 . S
C694 H670 0.950 . S
C694 C689 1.363 . S
C694 C693 1.415 . S
C695 H671 0.951 . S
C695 C696 1.366 . S
C695 C697 1.388 . S
C696 C695 1.366 . S
C696 C700 1.385 . S
C697 H672 0.951 . S
C697 C695 1.388 . S
C697 C698 1.366 . S
C698 C697 1.366 . S
C698 C699 1.414 . S
C698 C701 1.499 . S
C699 H673 0.950 . S
C699 C698 1.414 . S
C699 C700 1.374 . S
C700 H674 0.950 . S
C700 C696 1.385 . S
C700 C699 1.374 . S
C701 C698 1.499 . S
C701 C702 1.373 1_545 S
C701 C703 1.389 . S
C702 H675 0.950 . S
C702 C688 1.377 . S
C702 C701 1.373 1_565 S
C703 C687 1.377 . S
C703 C701 1.389 . S
C703 C704 1.524 . S
C704 C703 1.524 . S
C704 C705 1.397 . S
C704 C709 1.363 . S
C705 H676 0.950 . S
C705 C704 1.397 . S
C705 C706 1.334 . S
C706 H677 0.950 . S
C706 C705 1.334 . S
C706 C707 1.287 . S
C707 C706 1.287 . S
C707 C708 1.524 . S
C707 H710 0.999 . S
C708 H678 0.950 . S
C708 C707 1.524 . S
C708 C709 1.415 . S
C709 H679 0.950 . S
C709 C704 1.363 . S
C709 C708 1.415 . S
H710 C707 0.999 . S
H711 C692 0.913 . S
H712 C730 0.951 . S
H713 C732 0.951 . S
H714 C734 0.950 . S
H715 C735 0.950 . S
H716 C737 0.950 1_556 S
H717 C740 0.950 . S
H718 C741 0.950 . S
H719 C743 0.950 . S
H720 C744 0.950 . S
H721 C745 0.978 . S
H722 C747 0.975 . S
H723 C749 0.950 . S
H724 C750 0.950 . S
H725 C752 0.950 . S
H726 C755 0.950 . S
H727 C756 0.950 1_554 S
H728 C758 0.950 . S
H729 C759 0.950 . S
C730 H712 0.951 . S
C730 C731 1.366 . S
C730 C732 1.388 . S
C731 C730 1.366 . S
C731 C735 1.385 1_554 S
C732 H713 0.951 . S
C732 C730 1.388 . S
C732 C733 1.366 . S
C733 C732 1.366 . S
C733 C734 1.414 1_554 S
C733 C736 1.499 . S
C734 H714 0.950 . S
C734 C733 1.414 1_556 S
C734 C735 1.374 . S
C735 H715 0.950 . S
C735 C731 1.385 1_556 S
C735 C734 1.374 . S
C736 C733 1.499 . S
C736 C737 1.373 . S
C736 C738 1.389 1_565 S
C737 H716 0.950 1_554 S
C737 C736 1.373 . S
C737 C753 1.377 . S
C738 C736 1.389 1_545 S
C738 C739 1.524 . S
C738 C752 1.377 . S
C739 C738 1.524 . S
C739 C740 1.397 . S
C739 C744 1.363 . S
C740 H717 0.950 . S
C740 C739 1.397 . S
C740 C741 1.334 . S
C741 H718 0.950 . S
C741 C740 1.334 . S
C741 C742 1.287 . S
C742 C741 1.287 . S
C742 C743 1.524 . S
C742 H761 0.913 . S
C743 H719 0.950 . S
C743 C742 1.524 . S
C743 C744 1.415 . S
C744 H720 0.950 . S
C744 C739 1.363 . S
C744 C743 1.415 . S
C745 H721 0.978 . S
C745 C746 1.339 1_556 S
C745 C747 1.388 . S
C746 C745 1.339 1_554 S
C746 C750 1.385 . S
C747 H722 0.975 . S
C747 C745 1.388 . S
C747 C748 1.342 1_556 S
C748 C747 1.342 1_554 S
C748 C749 1.414 . S
C748 C751 1.499 . S
C749 H723 0.950 . S
C749 C748 1.414 . S
C749 C750 1.374 . S
C750 H724 0.950 . S
C750 C746 1.385 . S
C750 C749 1.374 . S
C751 C748 1.499 . S
C751 C752 1.373 . S
C751 C753 1.389 1_545 S
C752 H725 0.950 . S
C752 C738 1.377 . S
C752 C751 1.373 . S
C753 C737 1.377 . S
C753 C751 1.389 1_565 S
C753 C754 1.524 1_554 S
C754 C753 1.524 1_556 S
C754 C755 1.397 1_556 S
C754 C759 1.363 . S
C755 H726 0.950 . S
C755 C754 1.397 1_554 S
C755 C756 1.334 1_554 S
C756 H727 0.950 1_556 S
C756 C755 1.334 1_556 S
C756 C757 1.287 . S
C757 C756 1.287 . S
C757 C758 1.524 . S
C757 H760 0.999 . S
C758 H728 0.950 . S
C758 C757 1.524 . S
C758 C759 1.415 . S
C759 H729 0.950 . S
C759 C754 1.363 . S
C759 C758 1.415 . S
H760 C757 0.999 . S
H761 C742 0.913 . S
H762 C780 0.951 . S
H763 C782 0.951 . S
H764 C784 0.950 . S
H765 C785 0.950 . S
H766 C787 0.950 . S
H767 C790 0.950 1_565 S
H768 C791 0.950 . S
H769 C793 0.950 . S
H770 C794 0.950 . S
H771 C795 0.951 . S
H772 C797 0.951 . S
H773 C799 0.950 . S
H774 C800 0.950 . S
H775 C802 0.950 . S
H776 C805 0.950 1_545 S
H777 C806 0.950 . S
H778 C808 0.950 . S
H779 C809 0.950 . S
C780 H762 0.951 . S
C780 C781 1.366 . S
C780 C782 1.388 . S
C781 C780 1.366 . S
C781 C785 1.385 . S
C782 H763 0.951 . S
C782 C780 1.388 . S
C782 C783 1.366 . S
C783 C782 1.366 . S
C783 C784 1.414 . S
C783 C786 1.499 . S
C784 H764 0.950 . S
C784 C783 1.414 . S
C784 C785 1.374 . S
C785 H765 0.950 . S
C785 C781 1.385 . S
C785 C784 1.374 . S
C786 C783 1.499 . S
C786 C787 1.373 . S
C786 C788 1.389 1_565 S
C787 H766 0.950 . S
C787 C786 1.373 . S
C787 C803 1.377 . S
C788 C786 1.389 1_545 S
C788 C789 1.524 . S
C788 C802 1.377 . S
C789 C788 1.524 . S
C789 C790 1.397 . S
C789 C794 1.363 . S
C790 H767 0.950 1_545 S
C790 C789 1.397 . S
C790 C791 1.334 . S
C791 H768 0.950 . S
C791 C790 1.334 . S
C791 C792 1.287 . S
C792 C791 1.287 . S
C792 C793 1.524 . S
C792 H811 0.913 . S
C793 H769 0.950 . S
C793 C792 1.524 . S
C793 C794 1.415 . S
C794 H770 0.950 . S
C794 C789 1.363 . S
C794 C793 1.415 . S
C795 H771 0.951 . S
C795 C796 1.366 . S
C795 C797 1.388 . S
C796 C795 1.366 . S
C796 C800 1.385 . S
C797 H772 0.951 . S
C797 C795 1.388 . S
C797 C798 1.366 . S
C798 C797 1.366 . S
C798 C799 1.414 . S
C798 C801 1.499 . S
C799 H773 0.950 . S
C799 C798 1.414 . S
C799 C800 1.374 . S
C800 H774 0.950 . S
C800 C796 1.385 . S
C800 C799 1.374 . S
C801 C798 1.499 . S
C801 C802 1.373 . S
C801 C803 1.389 1_545 S
C802 H775 0.950 . S
C802 C788 1.377 . S
C802 C801 1.373 . S
C803 C787 1.377 . S
C803 C801 1.389 1_565 S
C803 C804 1.524 . S
C804 C803 1.524 . S
C804 C805 1.397 . S
C804 C809 1.363 . S
C805 H776 0.950 1_565 S
C805 C804 1.397 . S
C805 C806 1.334 . S
C806 H777 0.950 . S
C806 C805 1.334 . S
C806 C807 1.287 . S
C807 C806 1.287 . S
C807 C808 1.524 . S
C807 H810 0.999 . S
C808 H778 0.950 . S
C808 C807 1.524 . S
C808 C809 1.415 . S
C809 H779 0.950 . S
C809 C804 1.363 . S
C809 C808 1.415 . S
H810 C807 0.999 . S
H811 C792 0.913 . S
H812 C830 0.951 . S
H813 C832 0.951 . S
H814 C834 0.950 . S
H815 C835 0.950 . S
H816 C837 0.950 . S
H817 C840 0.950 . S
H818 C841 0.950 . S
H819 C843 0.950 . S
H820 C844 0.950 . S
H821 C845 0.951 . S
H822 C847 0.951 . S
H823 C849 0.950 . S
H824 C850 0.950 . S
H825 C852 0.950 1_556 S
H826 C855 0.950 . S
H827 C856 0.950 . S
H828 C858 0.950 . S
H829 C859 0.950 . S
C830 H812 0.951 . S
C830 C831 1.366 . S
C830 C832 1.388 . S
C831 C830 1.366 . S
C831 C835 1.385 . S
C832 H813 0.951 . S
C832 C830 1.388 . S
C832 C833 1.366 . S
C833 C832 1.366 . S
C833 C834 1.414 . S
C833 C836 1.499 . S
C834 H814 0.950 . S
C834 C833 1.414 . S
C834 C835 1.374 . S
C835 H815 0.950 . S
C835 C831 1.385 . S
C835 C834 1.374 . S
C836 C833 1.499 . S
C836 C837 1.373 . S
C836 C838 1.389 . S
C837 H816 0.950 . S
C837 C836 1.373 . S
C837 C853 1.377 1_455 S
C838 C836 1.389 . S
C838 C839 1.524 1_554 S
C838 C852 1.377 1_455 S
C839 C838 1.524 1_556 S
C839 C840 1.397 . S
C839 C844 1.363 . S
C840 H817 0.950 . S
C840 C839 1.397 . S
C840 C841 1.334 . S
C841 H818 0.950 . S
C841 C840 1.334 . S
C841 C842 1.287 . S
C842 C841 1.287 . S
C842 C843 1.524 . S
C842 H861 0.913 . S
C843 H819 0.950 . S
C843 C842 1.524 . S
C843 C844 1.415 . S
C844 H820 0.950 . S
C844 C839 1.363 . S
C844 C843 1.415 . S
C845 H821 0.951 . S
C845 C846 1.366 . S
C845 C847 1.388 . S
C846 C845 1.366 . S
C846 C850 1.385 . S
C847 H822 0.951 . S
C847 C845 1.388 . S
C847 C848 1.366 . S
C848 C847 1.366 . S
C848 C849 1.414 . S
C848 C851 1.499 . S
C849 H823 0.950 . S
C849 C848 1.414 . S
C849 C850 1.374 . S
C850 H824 0.950 . S
C850 C846 1.385 . S
C850 C849 1.374 . S
C851 C848 1.499 . S
C851 C852 1.373 . S
C851 C853 1.389 . S
C852 H825 0.950 1_554 S
C852 C838 1.377 1_655 S
C852 C851 1.373 . S
C853 C837 1.377 1_655 S
C853 C851 1.389 . S
C853 C854 1.524 . S
C854 C853 1.524 . S
C854 C855 1.397 . S
C854 C859 1.363 . S
C855 H826 0.950 . S
C855 C854 1.397 . S
C855 C856 1.334 . S
C856 H827 0.950 . S
C856 C855 1.334 . S
C856 C857 1.287 . S
C857 C856 1.287 . S
C857 C858 1.524 . S
C857 H860 0.999 . S
C858 H828 0.950 . S
C858 C857 1.524 . S
C858 C859 1.415 . S
C859 H829 0.950 . S
C859 C854 1.363 . S
C859 C858 1.415 . S
H860 C857 0.999 . S
H861 C842 0.913 . S
H862 C880 0.951 . S
H863 C882 0.951 . S
H864 C884 0.950 . S
H865 C885 0.950 . S
H866 C887 0.950 . S
H867 C890 0.957 . S
H868 C891 0.948 1_455 S
H869 C893 0.950 . S
H870 C894 0.950 . S
H871 C895 0.951 . S
H872 C897 0.951 . S
H873 C899 0.950 . S
H874 C900 0.950 . S
H875 C902 0.950 . S
H876 C905 0.957 . S
H877 C906 0.948 1_655 S
H878 C908 0.950 . S
H879 C909 0.950 . S
C880 H862 0.951 . S
C880 C881 1.366 . S
C880 C882 1.388 . S
C881 C880 1.366 . S
C881 C885 1.385 . S
C882 H863 0.951 . S
C882 C880 1.388 . S
C882 C883 1.366 . S
C883 C882 1.366 . S
C883 C884 1.414 . S
C883 C886 1.499 . S
C884 H864 0.950 . S
C884 C883 1.414 . S
C884 C885 1.374 . S
C885 H865 0.950 . S
C885 C881 1.385 . S
C885 C884 1.374 . S
C886 C883 1.499 . S
C886 C887 1.373 . S
C886 C888 1.433 . S
C887 H866 0.950 . S
C887 C886 1.373 . S
C887 C903 1.332 1_455 S
C888 C886 1.433 . S
C888 C889 1.523 . S
C888 C902 1.332 1_455 S
C889 C888 1.523 . S
C889 C890 1.395 . S
C889 C894 1.364 1_455 S
C890 H867 0.957 . S
C890 C889 1.395 . S
C890 C891 1.331 1_455 S
C891 H868 0.948 1_655 S
C891 C890 1.331 1_655 S
C891 C892 1.291 . S
C892 C891 1.291 . S
C892 C893 1.524 . S
C892 H911 0.913 . S
C893 H869 0.950 . S
C893 C892 1.524 . S
C893 C894 1.415 . S
C894 H870 0.950 . S
C894 C889 1.364 1_655 S
C894 C893 1.415 . S
C895 H871 0.951 . S
C895 C896 1.366 . S
C895 C897 1.388 . S
C896 C895 1.366 . S
C896 C900 1.385 . S
C897 H872 0.951 . S
C897 C895 1.388 . S
C897 C898 1.366 . S
C898 C897 1.366 . S
C898 C899 1.414 . S
C898 C901 1.499 . S
C899 H873 0.950 . S
C899 C898 1.414 . S
C899 C900 1.374 . S
C900 H874 0.950 . S
C900 C896 1.385 . S
C900 C899 1.374 . S
C901 C898 1.499 . S
C901 C902 1.373 . S
C901 C903 1.433 . S
C902 H875 0.950 . S
C902 C888 1.332 1_655 S
C902 C901 1.373 . S
C903 C887 1.332 1_655 S
C903 C901 1.433 . S
C903 C904 1.523 . S
C904 C903 1.523 . S
C904 C905 1.395 . S
C904 C909 1.364 1_655 S
C905 H876 0.957 . S
C905 C904 1.395 . S
C905 C906 1.331 1_655 S
C906 H877 0.948 1_455 S
C906 C905 1.331 1_455 S
C906 C907 1.291 . S
C907 C906 1.291 . S
C907 C908 1.524 . S
C907 H910 0.999 . S
C908 H878 0.950 . S
C908 C907 1.524 . S
C908 C909 1.415 . S
C909 H879 0.950 . S
C909 C904 1.364 1_455 S
C909 C908 1.415 . S
H910 C907 0.999 . S
H911 C892 0.913 . S
C131 C79 1.486 . S
C146 C9 1.485 . S
C181 C65 1.485 . S
C196 C23 1.485 . S
C231 C107 1.486 . S
C246 C37 1.485 . S
C281 C93 1.486 . S
C296 C51 1.485 . S
C331 C7 1.519 . S
C346 C35 1.519 . S
C381 C21 1.519 . S
C396 C49 1.519 . S
C431 C22 1.539 . S
C446 C50 1.539 . S
C481 C8 1.540 . S
C496 C36 1.540 . S
C531 C63 1.519 . S
C546 C91 1.520 . S
C581 C105 1.520 . S
C596 C77 1.520 . S
C631 C106 1.539 . S
C646 C78 1.539 . S
C681 C64 1.540 . S
C696 C92 1.540 . S
C731 C20 1.514 . S
C746 C6 1.514 . S
C781 C34 1.514 . S
C796 C48 1.514 . S
C831 C62 1.514 . S
C846 C76 1.514 . S
C881 C90 1.514 . S
C896 C104 1.514 . S
