# Generated by pormake.
# Topology bcs, (6)-cn, num edge types: 1
# Building blocks:
#     Node 0, Type 0, BuildingBlock: BETFEN_clean_sbu_0, # of connection points: 6
#     Node 1, Type 0, BuildingBlock: BETFEN_clean_sbu_0, # of connection points: 6
#     Node 2, Type 0, BuildingBlock: BETFEN_clean_sbu_0, # of connection points: 6
#     Node 3, Type 0, BuildingBlock: BETFEN_clean_sbu_0, # of connection points: 6
#     Node 4, Type 0, BuildingBlock: BETFEN_clean_sbu_0, # of connection points: 6
#     Node 5, Type 0, BuildingBlock: BETFEN_clean_sbu_0, # of connection points: 6
#     Node 6, Type 0, BuildingBlock: BETFEN_clean_sbu_0, # of connection points: 6
#     Node 7, Type 0, BuildingBlock: BETFEN_clean_sbu_0, # of connection points: 6
#     Node 8, Type 0, BuildingBlock: BETFEN_clean_sbu_0, # of connection points: 6
#     Node 9, Type 0, BuildingBlock: BETFEN_clean_sbu_0, # of connection points: 6
#     Node 10, Type 0, BuildingBlock: BETFEN_clean_sbu_0, # of connection points: 6
#     Node 11, Type 0, BuildingBlock: BETFEN_clean_sbu_0, # of connection points: 6
#     Node 12, Type 0, BuildingBlock: BETFEN_clean_sbu_0, # of connection points: 6
#     Node 13, Type 0, BuildingBlock: BETFEN_clean_sbu_0, # of connection points: 6
#     Node 14, Type 0, BuildingBlock: BETFEN_clean_sbu_0, # of connection points: 6
#     Node 15, Type 0, BuildingBlock: BETFEN_clean_sbu_0, # of connection points: 6
#     Edge 16, Type (0, 0), BuildingBlock: KIFKEQ_clean_linker_1, # of connection points: 2
#     Edge 17, Type (0, 0), BuildingBlock: KIFKEQ_clean_linker_1, # of connection points: 2
#     Edge 18, Type (0, 0), BuildingBlock: KIFKEQ_clean_linker_1, # of connection points: 2
#     Edge 19, Type (0, 0), BuildingBlock: KIFKEQ_clean_linker_1, # of connection points: 2
#     Edge 20, Type (0, 0), BuildingBlock: KIFKEQ_clean_linker_1, # of connection points: 2
#     Edge 21, Type (0, 0), BuildingBlock: KIFKEQ_clean_linker_1, # of connection points: 2
#     Edge 22, Type (0, 0), BuildingBlock: KIFKEQ_clean_linker_1, # of connection points: 2
#     Edge 23, Type (0, 0), BuildingBlock: KIFKEQ_clean_linker_1, # of connection points: 2
#     Edge 24, Type (0, 0), BuildingBlock: KIFKEQ_clean_linker_1, # of connection points: 2
#     Edge 25, Type (0, 0), BuildingBlock: KIFKEQ_clean_linker_1, # of connection points: 2
#     Edge 26, Type (0, 0), BuildingBlock: KIFKEQ_clean_linker_1, # of connection points: 2
#     Edge 27, Type (0, 0), BuildingBlock: KIFKEQ_clean_linker_1, # of connection points: 2
#     Edge 28, Type (0, 0), BuildingBlock: KIFKEQ_clean_linker_1, # of connection points: 2
#     Edge 29, Type (0, 0), BuildingBlock: KIFKEQ_clean_linker_1, # of connection points: 2
#     Edge 30, Type (0, 0), BuildingBlock: KIFKEQ_clean_linker_1, # of connection points: 2
#     Edge 31, Type (0, 0), BuildingBlock: KIFKEQ_clean_linker_1, # of connection points: 2
#     Edge 32, Type (0, 0), BuildingBlock: KIFKEQ_clean_linker_1, # of connection points: 2
#     Edge 33, Type (0, 0), BuildingBlock: KIFKEQ_clean_linker_1, # of connection points: 2
#     Edge 34, Type (0, 0), BuildingBlock: KIFKEQ_clean_linker_1, # of connection points: 2
#     Edge 35, Type (0, 0), BuildingBlock: KIFKEQ_clean_linker_1, # of connection points: 2
#     Edge 36, Type (0, 0), BuildingBlock: KIFKEQ_clean_linker_1, # of connection points: 2
#     Edge 37, Type (0, 0), BuildingBlock: KIFKEQ_clean_linker_1, # of connection points: 2
#     Edge 38, Type (0, 0), BuildingBlock: KIFKEQ_clean_linker_1, # of connection points: 2
#     Edge 39, Type (0, 0), BuildingBlock: KIFKEQ_clean_linker_1, # of connection points: 2
#     Edge 40, Type (0, 0), BuildingBlock: KIFKEQ_clean_linker_1, # of connection points: 2
#     Edge 41, Type (0, 0), BuildingBlock: KIFKEQ_clean_linker_1, # of connection points: 2
#     Edge 42, Type (0, 0), BuildingBlock: KIFKEQ_clean_linker_1, # of connection points: 2
#     Edge 43, Type (0, 0), BuildingBlock: KIFKEQ_clean_linker_1, # of connection points: 2
#     Edge 44, Type (0, 0), BuildingBlock: KIFKEQ_clean_linker_1, # of connection points: 2
#     Edge 45, Type (0, 0), BuildingBlock: KIFKEQ_clean_linker_1, # of connection points: 2
#     Edge 46, Type (0, 0), BuildingBlock: KIFKEQ_clean_linker_1, # of connection points: 2
#     Edge 47, Type (0, 0), BuildingBlock: KIFKEQ_clean_linker_1, # of connection points: 2
#     Edge 48, Type (0, 0), BuildingBlock: KIFKEQ_clean_linker_1, # of connection points: 2
#     Edge 49, Type (0, 0), BuildingBlock: KIFKEQ_clean_linker_1, # of connection points: 2
#     Edge 50, Type (0, 0), BuildingBlock: KIFKEQ_clean_linker_1, # of connection points: 2
#     Edge 51, Type (0, 0), BuildingBlock: KIFKEQ_clean_linker_1, # of connection points: 2
#     Edge 52, Type (0, 0), BuildingBlock: KIFKEQ_clean_linker_1, # of connection points: 2
#     Edge 53, Type (0, 0), BuildingBlock: KIFKEQ_clean_linker_1, # of connection points: 2
#     Edge 54, Type (0, 0), BuildingBlock: KIFKEQ_clean_linker_1, # of connection points: 2
#     Edge 55, Type (0, 0), BuildingBlock: KIFKEQ_clean_linker_1, # of connection points: 2
#     Edge 56, Type (0, 0), BuildingBlock: KIFKEQ_clean_linker_1, # of connection points: 2
#     Edge 57, Type (0, 0), BuildingBlock: KIFKEQ_clean_linker_1, # of connection points: 2
#     Edge 58, Type (0, 0), BuildingBlock: KIFKEQ_clean_linker_1, # of connection points: 2
#     Edge 59, Type (0, 0), BuildingBlock: KIFKEQ_clean_linker_1, # of connection points: 2
#     Edge 60, Type (0, 0), BuildingBlock: KIFKEQ_clean_linker_1, # of connection points: 2
#     Edge 61, Type (0, 0), BuildingBlock: KIFKEQ_clean_linker_1, # of connection points: 2
#     Edge 62, Type (0, 0), BuildingBlock: KIFKEQ_clean_linker_1, # of connection points: 2
#     Edge 63, Type (0, 0), BuildingBlock: KIFKEQ_clean_linker_1, # of connection points: 2
# Relax obj value: 0.159
# Max RMSD: 0.238
# Mean RMSD: 0.187
data_MOF--net-bcs--node1-BETFEN_clean_sbu_0--edge1-KIFKEQ_clean_linker_1
_symmetry_space_group_name_H-M    P1
_symmetry_Int_Tables_number       1
_symmetry_cell_setting            triclinic
loop_
_symmetry_equiv_pos_as_xyz
'x, y, z'
_cell_length_a     48.148997
_cell_length_b     41.071952
_cell_length_c     41.357048
_cell_angle_alpha  111.10788
_cell_angle_beta   71.488415
_cell_angle_gamma 121.37611
loop_
_atom_site_label
_atom_site_type_symbol
_atom_site_fract_x
_atom_site_fract_y
_atom_site_fract_z
_atom_type_partial_charge
Pr0 Pr 0.04809 0.01662 0.04144 0.0
Pr1 Pr 1.02158 0.99266 0.97963 0.0
C2 C 0.06626 0.01752 0.09708 0.0
C3 C 0.08682 0.00501 0.10452 0.0
C4 C 0.11257 0.03264 0.12377 0.0
C5 C 0.13088 0.02075 0.13295 0.0
C6 C 0.12348 0.98093 0.12332 0.0
C7 C 0.09822 0.95345 0.10334 0.0
C8 C 0.08013 0.96535 0.09394 0.0
C9 C 0.08561 0.07067 0.99998 0.0
C10 C 0.07857 0.95681 0.96506 0.0
C11 C 1.00517 0.99334 0.92347 0.0
C12 C 0.98472 0.00469 0.91423 0.0
C13 C 0.95011 0.98379 0.91957 0.0
C14 C 0.9316 0.99526 0.91014 0.0
C15 C 0.9474 0.02789 0.89542 0.0
C16 C 0.98198 0.0486 0.89006 0.0
C17 C 1.00042 0.03701 0.89922 0.0
C18 C 0.98342 0.93926 0.02175 0.0
C19 C 0.99057 0.05184 0.05617 0.0
O20 O 0.03938 0.98962 0.08458 0.0
O21 O 0.0814 0.04749 0.08281 0.0
O22 O 0.07451 0.0339 0.98915 0.0
O23 O 0.07746 0.0812 0.03384 0.0
O24 O 0.06019 0.96157 0.94986 0.0
O25 O 0.07615 0.97321 1.00045 0.0
O26 O 1.0304 0.02223 0.93834 0.0
O27 O 0.99052 0.96236 0.93633 0.0
O28 O 0.99519 0.9761 0.03214 0.0
O29 O 0.99065 0.92812 0.9878 0.0
O30 O 1.00921 0.0474 0.07132 0.0
O31 O 0.99287 0.03531 0.02079 0.0
H32 H 0.11812 0.06333 0.13226 0.0
H33 H 0.15011 0.0425 0.14853 0.0
H34 H 0.09232 0.92265 0.09513 0.0
H35 H 0.06059 0.94332 0.07883 0.0
H36 H 0.93732 0.95867 0.93102 0.0
H37 H 0.90495 0.9789 0.9147 0.0
H38 H 0.99486 0.07345 0.87822 0.0
H39 H 1.02708 0.05336 0.89446 0.0
Pr40 Pr 0.28175 0.78764 0.26015 0.0
Pr41 Pr 0.28481 0.7111 0.2535 0.0
C42 C 0.28636 0.85089 0.24869 0.0
C43 C 0.26953 0.8627 0.23459 0.0
C44 C 0.23517 0.84284 0.23652 0.0
C45 C 0.21984 0.85511 0.22314 0.0
C46 C 0.23869 0.8873 0.20751 0.0
C47 C 0.27316 0.90652 0.20509 0.0
C48 C 0.28842 0.89431 0.21854 0.0
C49 C 0.23207 0.73948 0.30366 0.0
C50 C 0.24341 0.70513 0.20086 0.0
C51 C 0.27871 0.64809 0.26675 0.0
C52 C 0.29592 0.63637 0.28045 0.0
C53 C 0.32987 0.64843 0.27004 0.0
C54 C 0.3455 0.63663 0.28345 0.0
C55 C 0.32749 0.61289 0.30772 0.0
C56 C 0.29356 0.60139 0.3184 0.0
C57 C 0.27793 0.613 0.30481 0.0
C58 C 0.33443 0.75899 0.21 0.0
C59 C 0.32653 0.79485 0.31036 0.0
O60 O 0.2998 0.82924 0.22585 0.0
O61 O 0.27217 0.84032 0.27849 0.0
O62 O 0.24321 0.72816 0.27217 0.0
O63 O 0.24493 0.77759 0.31338 0.0
O64 O 0.24558 0.68496 0.21778 0.0
O65 O 0.258 0.74405 0.20938 0.0
O66 O 0.26704 0.67159 0.28964 0.0
O67 O 0.29136 0.65636 0.23587 0.0
O68 O 0.32317 0.7703 0.24142 0.0
O69 O 0.32186 0.72083 0.20029 0.0
O70 O 0.32128 0.81466 0.2959 0.0
O71 O 0.31329 0.75596 0.30098 0.0
H72 H 0.22024 0.81809 0.24856 0.0
H73 H 0.19321 0.83988 0.22561 0.0
H74 H 0.28839 0.9309 0.19262 0.0
H75 H 0.31503 0.90961 0.21647 0.0
H76 H 0.34428 0.66677 0.25146 0.0
H77 H 0.37159 0.64562 0.27439 0.0
H78 H 0.27912 0.58368 0.33748 0.0
H79 H 0.25174 0.60378 0.31339 0.0
Pr80 Pr 0.54892 0.01957 0.47316 0.0
Pr81 Pr 0.52591 0.97877 0.53351 0.0
C82 C 0.55104 0.049 0.42336 0.0
C83 C 0.53066 0.06188 0.416 0.0
C84 C 0.54503 0.10037 0.41235 0.0
C85 C 0.52625 0.11403 0.40662 0.0
C86 C 0.49269 0.08936 0.40415 0.0
C87 C 0.47826 0.05065 0.40752 0.0
C88 C 0.49703 0.03706 0.41362 0.0
C89 C 0.58786 0.06222 0.52597 0.0
C90 C 0.48699 0.02258 0.53682 0.0
C91 C 0.51995 0.94781 0.58416 0.0
C92 C 0.53977 0.93762 0.59557 0.0
C93 C 0.52381 0.90552 0.61075 0.0
C94 C 0.54208 0.89412 0.62049 0.0
C95 C 0.57674 0.91475 0.61534 0.0
C96 C 0.5927 0.94704 0.60007 0.0
C97 C 0.57435 0.95834 0.59017 0.0
C98 C 0.4859 0.93801 0.48196 0.0
C99 C 0.58867 0.977 0.47019 0.0
O100 O 0.53942 0.01132 0.41984 0.0
O101 O 0.56582 0.0709 0.45074 0.0
O102 O 0.55672 0.0434 0.53128 0.0
O103 O 0.59958 0.06138 0.49288 0.0
O104 O 0.49654 0.01384 0.5576 0.0
O105 O 0.50062 0.02207 0.50375 0.0
O106 O 0.52964 0.98522 0.58882 0.0
O107 O 0.51005 0.92644 0.55398 0.0
O108 O 0.51709 0.95496 0.47593 0.0
O109 O 0.47455 0.94011 0.51521 0.0
O110 O 0.57992 0.98648 0.44929 0.0
O111 O 0.57513 0.97762 0.50336 0.0
H112 H 0.57087 0.12003 0.41413 0.0
H113 H 0.53813 0.14384 0.40372 0.0
H114 H 0.45237 0.03111 0.40601 0.0
H115 H 0.48515 0.00733 0.41672 0.0
H116 H 0.49715 0.88894 0.61469 0.0
H117 H 0.52901 0.86864 0.63148 0.0
H118 H 0.61933 0.96373 0.59598 0.0
H119 H 0.58713 0.98305 0.57816 0.0
Pr120 Pr 0.27311 0.21821 0.74874 0.0
Pr121 Pr 0.28811 0.30044 0.77907 0.0
C122 C 0.25339 0.14384 0.71188 0.0
C123 C 0.27122 0.12422 0.68592 0.0
C124 C 0.30565 0.14393 0.68141 0.0
C125 C 0.3235 0.12682 0.6551 0.0
C126 C 0.30696 0.08999 0.63311 0.0
C127 C 0.27246 0.0705 0.63736 0.0
C128 C 0.25451 0.08782 0.66379 0.0
C129 C 0.32432 0.26032 0.78929 0.0
C130 C 0.32833 0.2829 0.70119 0.0
C131 C 0.30754 0.37389 0.81927 0.0
C132 C 0.29553 0.38808 0.85569 0.0
C133 C 0.29145 0.42174 0.86494 0.0
C134 C 0.26799 0.4265 0.89364 0.0
C135 C 0.24841 0.39717 0.91244 0.0
C136 C 0.25608 0.36679 0.90638 0.0
C137 C 0.27998 0.3625 0.87821 0.0
C138 C 0.23768 0.25758 0.73722 0.0
C139 C 0.23169 0.23453 0.8242 0.0
O140 O 0.25339 0.17046 0.70169 0.0
O141 O 0.26011 0.15566 0.74365 0.0
O142 O 0.32096 0.27146 0.76679 0.0
O143 O 0.30097 0.22516 0.79102 0.0
O144 O 0.32919 0.30975 0.73066 0.0
O145 O 0.30653 0.24558 0.69949 0.0
O146 O 0.32238 0.3531 0.8144 0.0
O147 O 0.28624 0.35823 0.79804 0.0
O148 O 0.24064 0.24712 0.76046 0.0
O149 O 0.26115 0.29276 0.73528 0.0
O150 O 0.22834 0.21064 0.79299 0.0
O151 O 0.25659 0.27043 0.82754 0.0
H152 H 0.31862 0.1725 0.69826 0.0
H153 H 0.35015 0.14178 0.65263 0.0
H154 H 0.2596 0.0419 0.62056 0.0
H155 H 0.22783 0.07301 0.66697 0.0
H156 H 0.30334 0.44163 0.84773 0.0
H157 H 0.26203 0.44997 0.89793 0.0
H158 H 0.24097 0.34389 0.92063 0.0
H159 H 0.28331 0.33664 0.87171 0.0
Pr160 Pr 1.01913 0.03581 0.519 0.0
Pr161 Pr 0.04348 0.97889 0.50622 0.0
C162 C 0.99953 0.08423 0.51387 0.0
C163 C 0.97694 0.08367 0.49612 0.0
C164 C 0.95077 0.09187 0.51632 0.0
C165 C 0.93058 0.09429 0.50025 0.0
C166 C 0.93632 0.0889 0.46361 0.0
C167 C 0.96207 0.07981 0.44331 0.0
C168 C 0.98213 0.07712 0.45936 0.0
C169 C 0.98493 0.98596 0.56519 0.0
C170 C 0.98813 0.95 0.45935 0.0
C171 C 0.06259 0.92956 0.51048 0.0
C172 C 0.08469 0.92775 0.52701 0.0
C173 C 0.10929 0.91722 0.50556 0.0
C174 C 0.12868 0.91192 0.52021 0.0
C175 C 0.12376 0.91682 0.5567 0.0
C176 C 0.0996 0.92827 0.57829 0.0
C177 C 0.08027 0.93373 0.56361 0.0
C178 C 0.07794 0.02897 0.46029 0.0
C179 C 0.07493 0.06512 0.56496 0.0
O180 O 1.02546 0.08047 0.4942 0.0
O181 O 0.98637 0.06591 0.53915 0.0
O182 O 0.99257 0.97516 0.53236 0.0
O183 O 0.99518 0.02373 0.57537 0.0
O184 O 1.00115 0.9371 0.47248 0.0
O185 O 0.99454 0.98738 0.46983 0.0
O186 O 0.03705 0.93386 0.53071 0.0
O187 O 0.07614 0.94872 0.48579 0.0
O188 O 0.07013 0.0396 0.49309 0.0
O189 O 0.06782 0.99126 0.45002 0.0
O190 O 0.0629 0.07808 0.55064 0.0
O191 O 0.06731 0.02739 0.55603 0.0
H192 H 0.94635 0.09724 0.54469 0.0
H193 H 0.91116 0.10172 0.51666 0.0
H194 H 0.96686 0.07503 0.41499 0.0
H195 H 1.002 0.07057 0.44295 0.0
H196 H 0.11301 0.91211 0.47727 0.0
H197 H 0.14676 0.90263 0.50277 0.0
H198 H 0.09547 0.93275 0.60653 0.0
H199 H 0.06153 0.94194 0.58091 0.0
Pr200 Pr 0.29769 0.77899 0.73233 0.0
Pr201 Pr 0.26953 0.72903 0.78855 0.0
C202 C 0.30389 0.80409 0.67733 0.0
C203 C 0.2842 0.81309 0.66431 0.0
C204 C 0.29894 0.8329 0.63735 0.0
C205 C 0.28123 0.84403 0.62623 0.0
C206 C 0.24833 0.83542 0.64185 0.0
C207 C 0.23357 0.8152 0.66878 0.0
C208 C 0.25142 0.80432 0.68003 0.0
C209 C 0.34149 0.81695 0.78128 0.0
C210 C 0.23767 0.798 0.80622 0.0
C211 C 0.26312 0.70471 0.84408 0.0
C212 C 0.283 0.69667 0.85771 0.0
C213 C 0.26932 0.68076 0.88714 0.0
C214 C 0.28713 0.67041 0.89896 0.0
C215 C 0.31899 0.67582 0.88148 0.0
C216 C 0.33276 0.69229 0.85216 0.0
C217 C 0.31486 0.70254 0.84031 0.0
C218 C 0.22588 0.69072 0.7396 0.0
C219 C 0.32936 0.70973 0.71454 0.0
O220 O 0.29327 0.76707 0.67577 0.0
O221 O 0.31449 0.82779 0.70671 0.0
O222 O 0.31509 0.78523 0.78045 0.0
O223 O 0.34629 0.83062 0.75512 0.0
O224 O 0.23976 0.77208 0.81772 0.0
O225 O 0.25625 0.80363 0.77405 0.0
O226 O 0.27329 0.74155 0.84544 0.0
O227 O 0.25312 0.6807 0.81452 0.0
O228 O 0.25219 0.72256 0.74031 0.0
O229 O 0.2211 0.67724 0.76589 0.0
O230 O 0.32725 0.73565 0.703 0.0
O231 O 0.31089 0.70425 0.7468 0.0
H232 H 0.32439 0.84039 0.62529 0.0
H233 H 0.29361 0.86017 0.60591 0.0
H234 H 0.20822 0.80771 0.68115 0.0
H235 H 0.2398 0.78953 0.70128 0.0
H236 H 0.2446 0.67566 0.9006 0.0
H237 H 0.27561 0.65725 0.92127 0.0
H238 H 0.35735 0.69724 0.83835 0.0
H239 H 0.32565 0.71449 0.8173 0.0
Pr240 Pr 0.54459 0.97204 0.98812 0.0
Pr241 Pr 0.52049 0.02993 0.02904 0.0
C242 C 0.56022 0.92027 0.93604 0.0
C243 C 0.59339 0.92459 0.91904 0.0
C244 C 0.61102 0.91774 0.93497 0.0
C245 C 0.64452 0.92951 0.92329 0.0
C246 C 0.66097 0.94808 0.89534 0.0
C247 C 0.64313 0.95341 0.87839 0.0
C248 C 0.60956 0.94163 0.89005 0.0
C249 C 0.58774 0.02437 0.03814 0.0
C250 C 0.58156 0.0571 0.96916 0.0
C251 C 0.49686 0.07853 0.07467 0.0
C252 C 0.4628 0.0715 0.08565 0.0
C253 C 0.43738 0.03277 0.08327 0.0
C254 C 0.40468 0.02513 0.08921 0.0
C255 C 0.3972 0.05606 0.09694 0.0
C256 C 0.42272 0.09488 0.09979 0.0
C257 C 0.45541 0.10254 0.09411 0.0
C258 C 0.48953 0.97958 0.9698 0.0
C259 C 0.48608 0.94638 0.05346 0.0
O260 O 0.55223 0.94364 0.93053 0.0
O261 O 0.55154 0.91759 0.9688 0.0
O262 O 0.56367 0.02645 0.03496 0.0
O263 O 0.59074 0.99486 0.01474 0.0
O264 O 0.57207 0.07022 1.00249 0.0
O265 O 0.56878 0.01907 0.95517 0.0
O266 O 0.50432 0.0576 0.0846 0.0
O267 O 0.50833 0.07976 0.04176 0.0
O268 O 0.49447 0.96889 0.99161 0.0
O269 O 0.50126 0.01739 0.97785 0.0
O270 O 0.50127 0.93296 0.0236 0.0
O271 O 0.49095 0.98303 0.06311 0.0
H272 H 0.59925 0.90445 0.95721 0.0
H273 H 0.6575 0.92373 0.93597 0.0
H274 H 0.65523 0.96715 0.85642 0.0
H275 H 0.59659 0.94722 0.8772 0.0
H276 H 0.44286 0.00834 0.07596 0.0
H277 H 0.38535 0.9951 0.08705 0.0
H278 H 0.41737 0.11932 0.10652 0.0
H279 H 0.47489 0.13244 0.09551 0.0
Pr280 Pr 0.30253 0.26337 0.28427 0.0
Pr281 Pr 0.25836 0.24856 0.23972 0.0
C282 C 0.33636 0.26391 0.32566 0.0
C283 C 0.34977 0.24119 0.33073 0.0
C284 C 0.38314 0.25038 0.31821 0.0
C285 C 0.39696 0.2316 0.32531 0.0
C286 C 0.37787 0.20349 0.34549 0.0
C287 C 0.34429 0.19372 0.35748 0.0
C288 C 0.33039 0.21244 0.35024 0.0
C289 C 0.33572 0.30564 0.23196 0.0
C290 C 0.28063 0.1824 0.21995 0.0
C291 C 0.22163 0.24554 0.20021 0.0
C292 C 0.20934 0.26725 0.19188 0.0
C293 C 0.17532 0.25092 0.19315 0.0
C294 C 0.16254 0.26944 0.18401 0.0
C295 C 0.18359 0.30465 0.1731 0.0
C296 C 0.21775 0.32138 0.17233 0.0
C297 C 0.23055 0.30281 0.18165 0.0
C298 C 0.22621 0.20605 0.29178 0.0
C299 C 0.28221 0.33046 0.30169 0.0
O300 O 0.30442 0.25112 0.33258 0.0
O301 O 0.35036 0.27926 0.29845 0.0
O302 O 0.31452 0.26971 0.22671 0.0
O303 O 0.34014 0.32036 0.26445 0.0
O304 O 0.27262 0.19963 0.20578 0.0
O305 O 0.28976 0.19888 0.25115 0.0
O306 O 0.25273 0.25374 0.18968 0.0
O307 O 0.20983 0.23738 0.23097 0.0
O308 O 0.24659 0.24225 0.2971 0.0
O309 O 0.22234 0.19099 0.25918 0.0
O310 O 0.28749 0.31212 0.31751 0.0
O311 O 0.27479 0.31446 0.26977 0.0
H312 H 0.39882 0.27265 0.30339 0.0
H313 H 0.42276 0.23939 0.31517 0.0
H314 H 0.32897 0.17253 0.37342 0.0
H315 H 0.30469 0.20501 0.36063 0.0
H316 H 0.15854 0.22351 0.201 0.0
H317 H 0.13609 0.25615 0.18561 0.0
H318 H 0.23463 0.34835 0.16384 0.0
H319 H 0.25694 0.31601 0.18048 0.0
Pr320 Pr 0.52237 0.53215 0.01708 0.0
Pr321 Pr 0.54567 0.47476 1.00439 0.0
C322 C 0.50491 0.5828 0.01273 0.0
C323 C 0.48192 0.5844 0.9975 0.0
C324 C 0.46141 0.60115 0.01955 0.0
C325 C 0.4415 0.60623 1.00549 0.0
C326 C 0.44191 0.59487 0.96902 0.0
C327 C 0.46183 0.57711 0.94701 0.0
C328 C 0.48159 0.5718 0.96112 0.0
C329 C 0.48667 0.48184 0.0629 0.0
C330 C 0.4902 0.44653 0.95792 0.0
C331 C 0.56452 0.42516 1.00858 0.0
C332 C 0.58709 0.4237 0.02463 0.0
C333 C 0.60801 0.40732 1.00312 0.0
C334 C 0.62752 0.40225 0.01777 0.0
C335 C 0.62637 0.41318 0.05437 0.0
C336 C 0.60622 0.43088 0.07586 0.0
C337 C 0.58676 0.43612 0.06114 0.0
C338 C 0.58152 0.52567 0.95907 0.0
C339 C 0.57693 0.56004 0.06368 0.0
O340 O 0.52862 0.5756 0.99093 0.0
O341 O 0.49258 0.56602 0.03899 0.0
O342 O 0.49465 0.47115 0.03012 0.0
O343 O 0.49737 0.51967 0.07318 0.0
O344 O 0.50305 0.43336 0.97099 0.0
O345 O 0.49708 0.48406 0.96825 0.0
O346 O 0.53955 0.43033 0.0294 0.0
O347 O 0.57754 0.44349 0.98334 0.0
O348 O 0.57344 0.53592 0.99186 0.0
O349 O 0.5708 0.48787 0.94844 0.0
O350 O 0.56603 0.57355 0.04864 0.0
O351 O 0.56864 0.52216 0.05496 0.0
H352 H 0.46139 0.61125 0.04764 0.0
H353 H 0.42669 0.62037 0.0231 0.0
H354 H 0.46234 0.56763 0.91886 0.0
H355 H 0.49704 0.55854 0.94345 0.0
H356 H 0.60875 0.39767 0.97491 0.0
H357 H 0.64326 0.38929 1.00038 0.0
H358 H 0.60459 0.43944 0.10416 0.0
H359 H 0.57093 0.449 0.07842 0.0
Pr360 Pr 0.79631 0.27399 0.23528 0.0
Pr361 Pr 0.76931 0.23106 0.2841 0.0
C362 C 0.8057 0.30891 0.18575 0.0
C363 C 0.78716 0.32251 0.17622 0.0
C364 C 0.80345 0.34903 0.15468 0.0
C365 C 0.78579 0.36069 0.14406 0.0
C366 C 0.75144 0.34593 0.15479 0.0
C367 C 0.73532 0.31981 0.17695 0.0
C368 C 0.75302 0.30823 0.18758 0.0
C369 C 0.83915 0.30765 0.28397 0.0
C370 C 0.73548 0.29593 0.30587 0.0
C371 C 0.75759 0.1942 0.33315 0.0
C372 C 0.77481 0.17935 0.34324 0.0
C373 C 0.75768 0.15444 0.36629 0.0
C374 C 0.77414 0.14167 0.37744 0.0
C375 C 0.80812 0.15365 0.36573 0.0
C376 C 0.82508 0.1782 0.34211 0.0
C377 C 0.80856 0.19095 0.33098 0.0
C378 C 0.72882 0.1972 0.23278 0.0
C379 C 0.83041 0.20949 0.21411 0.0
O380 O 0.79287 0.27097 0.18099 0.0
O381 O 0.81733 0.3285 0.21521 0.0
O382 O 0.80831 0.29565 0.29167 0.0
O383 O 0.84885 0.30272 0.25024 0.0
O384 O 0.73798 0.27089 0.31757 0.0
O385 O 0.75406 0.29983 0.27349 0.0
O386 O 0.7711 0.23228 0.33847 0.0
O387 O 0.74685 0.17559 0.30317 0.0
O388 O 0.75943 0.20871 0.22713 0.0
O389 O 0.71785 0.20436 0.26627 0.0
O390 O 0.8278 0.23429 0.20216 0.0
O391 O 0.81186 0.20564 0.2465 0.0
H392 H 0.82978 0.36026 0.14561 0.0
H393 H 0.79893 0.38046 0.12668 0.0
H394 H 0.709 0.3083 0.1861 0.0
H395 H 0.74 0.28778 0.20434 0.0
H396 H 0.7316 0.14518 0.37596 0.0
H397 H 0.76024 0.12234 0.39521 0.0
H398 H 0.85129 0.18838 0.33289 0.0
H399 H 0.82225 0.21037 0.31327 0.0
Pr400 Pr 0.04563 0.47547 0.49267 0.0
Pr401 Pr 1.02566 0.52879 0.52424 0.0
C402 C 0.07288 0.4296 0.4494 0.0
C403 C 0.10772 0.44126 0.43419 0.0
C404 C 0.12553 0.4302 0.44534 0.0
C405 C 0.15942 0.44475 0.43432 0.0
C406 C 0.17599 0.47034 0.41173 0.0
C407 C 0.15823 0.48144 0.40054 0.0
C408 C 0.12437 0.4672 0.41182 0.0
C409 C 0.07827 0.52636 0.55111 0.0
C410 C 0.08559 0.55632 0.46553 0.0
C411 C 0.99934 0.57556 0.56745 0.0
C412 C 0.96456 0.5661 0.57692 0.0
C413 C 0.94398 0.54412 0.55116 0.0
C414 C 0.91027 0.53214 0.5606 0.0
C415 C 0.89666 0.54128 0.59594 0.0
C416 C 0.91715 0.56233 0.62178 0.0
C417 C 0.95095 0.57474 0.61228 0.0
C418 C 0.99239 0.47799 0.46616 0.0
C419 C 0.98568 0.4477 0.55143 0.0
O420 O 0.05787 0.44151 0.43841 0.0
O421 O 0.066 0.43362 0.48335 0.0
O422 O 0.07571 0.53736 0.5279 0.0
O423 O 0.06204 0.48853 0.54602 0.0
O424 O 0.0761 0.57096 0.4982 0.0
O425 O 0.07254 0.51794 0.45412 0.0
O426 O 1.00723 0.55618 0.57889 0.0
O427 O 1.01258 0.57745 0.53489 0.0
O428 O 0.99555 0.46698 0.48899 0.0
O429 O 1.00774 0.51587 0.47194 0.0
O430 O 0.99566 0.43299 0.51899 0.0
O431 O 0.99847 0.48613 0.56277 0.0
H432 H 0.11327 0.4106 0.46285 0.0
H433 H 0.17247 0.43487 0.4425 0.0
H434 H 0.17049 0.50072 0.38275 0.0
H435 H 0.1114 0.47681 0.40318 0.0
H436 H 0.95386 0.53607 0.52373 0.0
H437 H 0.89488 0.51627 0.54034 0.0
H438 H 0.9072 0.57047 0.64917 0.0
H439 H 0.96644 0.59089 0.63247 0.0
Pr440 Pr 0.77417 0.71596 0.24695 0.0
Pr441 Pr 0.78418 0.79717 0.28184 0.0
C442 C 0.75783 0.64278 0.20683 0.0
C443 C 0.77624 0.62457 0.1782 0.0
C444 C 0.79145 0.60771 0.18612 0.0
C445 C 0.81806 0.6036 0.16291 0.0
C446 C 0.82892 0.61542 0.13146 0.0
C447 C 0.81083 0.62662 0.12116 0.0
C448 C 0.78431 0.63103 0.14448 0.0
C449 C 0.82599 0.76089 0.28675 0.0
C450 C 0.82278 0.78548 0.20174 0.0
C451 C 0.80228 0.86908 0.32454 0.0
C452 C 0.79097 0.88438 0.36075 0.0
C453 C 0.7589 0.86263 0.37655 0.0
C454 C 0.74628 0.87962 0.40918 0.0
C455 C 0.76573 0.91857 0.42635 0.0
C456 C 0.79931 0.93798 0.41244 0.0
C457 C 0.81179 0.92106 0.37943 0.0
C458 C 0.73286 0.75238 0.24156 0.0
C459 C 0.73207 0.72776 0.3245 0.0
O460 O 0.75375 0.66853 0.19987 0.0
O461 O 0.76611 0.65442 0.23785 0.0
O462 O 0.82032 0.7719 0.26584 0.0
O463 O 0.805 0.72444 0.28683 0.0
O464 O 0.82184 0.81101 0.2318 0.0
O465 O 0.8056 0.74716 0.19942 0.0
O466 O 0.81603 0.84737 0.32052 0.0
O467 O 0.78177 0.85455 0.30263 0.0
O468 O 0.73849 0.74141 0.26247 0.0
O469 O 0.75327 0.78921 0.24216 0.0
O470 O 0.73058 0.70396 0.29308 0.0
O471 O 0.75413 0.76515 0.32875 0.0
H472 H 0.78503 0.60148 0.21158 0.0
H473 H 0.83172 0.59415 0.17065 0.0
H474 H 0.81896 0.6353 0.0966 0.0
H475 H 0.77231 0.64303 0.13734 0.0
H476 H 0.74292 0.83364 0.3626 0.0
H477 H 0.72028 0.86367 0.41885 0.0
H478 H 0.81496 0.9677 0.42546 0.0
H479 H 0.83703 0.93747 0.3677 0.0
Pr480 Pr 0.77917 0.29056 0.76539 0.0
Pr481 Pr 0.78482 0.21591 0.75647 0.0
C482 C 0.78004 0.35253 0.75592 0.0
C483 C 0.76254 0.36223 0.74022 0.0
C484 C 0.74037 0.37675 0.76192 0.0
C485 C 0.72518 0.3883 0.74766 0.0
C486 C 0.73207 0.38586 0.71145 0.0
C487 C 0.75389 0.37082 0.68964 0.0
C488 C 0.76905 0.35919 0.70389 0.0
C489 C 0.73266 0.24283 0.81049 0.0
C490 C 0.73863 0.20769 0.70793 0.0
C491 C 0.78275 0.15378 0.76718 0.0
C492 C 0.80042 0.14265 0.78114 0.0
C493 C 0.83189 0.14602 0.76475 0.0
C494 C 0.84738 0.13368 0.77784 0.0
C495 C 0.83174 0.11787 0.8076 0.0
C496 C 0.80045 0.11509 0.82417 0.0
C497 C 0.78492 0.12719 0.81097 0.0
C498 C 0.8317 0.26396 0.71161 0.0
C499 C 0.82516 0.29943 0.8144 0.0
O500 O 0.79764 0.33519 0.73436 0.0
O501 O 0.7646 0.33942 0.78441 0.0
O502 O 0.74209 0.2311 0.7784 0.0
O503 O 0.74581 0.28095 0.82018 0.0
O504 O 0.74306 0.18799 0.72332 0.0
O505 O 0.75293 0.24657 0.71638 0.0
O506 O 0.76839 0.17438 0.79017 0.0
O507 O 0.79593 0.16423 0.73726 0.0
O508 O 0.82204 0.27548 0.74369 0.0
O509 O 0.81867 0.2258 0.70184 0.0
O510 O 0.81911 0.31893 0.8005 0.0
O511 O 0.81298 0.26068 0.80424 0.0
H512 H 0.73505 0.37964 0.79002 0.0
H513 H 0.70807 0.39923 0.76503 0.0
H514 H 0.75993 0.36899 0.66169 0.0
H515 H 0.78627 0.34845 0.68646 0.0
H516 H 0.84443 0.15777 0.74164 0.0
H517 H 0.87133 0.13584 0.7642 0.0
H518 H 0.78795 0.10373 0.84749 0.0
H519 H 0.76061 0.12427 0.82405 0.0
Pr520 Pr 0.81053 0.76669 0.78764 0.0
Pr521 Pr 0.76626 0.74837 0.74156 0.0
C522 C 0.84502 0.77146 0.83089 0.0
C523 C 0.85831 0.75005 0.83781 0.0
C524 C 0.88335 0.77101 0.85831 0.0
C525 C 0.89725 0.75185 0.86468 0.0
C526 C 0.88625 0.71121 0.85071 0.0
C527 C 0.86101 0.69024 0.83007 0.0
C528 C 0.84716 0.70955 0.82363 0.0
C529 C 0.84283 0.80919 0.73544 0.0
C530 C 0.79212 0.68572 0.72328 0.0
C531 C 0.72925 0.74193 0.7003 0.0
C532 C 0.71824 0.76337 0.68998 0.0
C533 C 0.69388 0.74197 0.66858 0.0
C534 C 0.6809 0.76088 0.66033 0.0
C535 C 0.69208 0.8016 0.6734 0.0
C536 C 0.71723 0.82323 0.69415 0.0
C537 C 0.73016 0.80416 0.70253 0.0
C538 C 0.73474 0.70522 0.7932 0.0
C539 C 0.7873 0.83082 0.80306 0.0
O540 O 0.81303 0.75801 0.83752 0.0
O541 O 0.85873 0.78396 0.80214 0.0
O542 O 0.82275 0.77285 0.73 0.0
O543 O 0.84668 0.82423 0.76809 0.0
O544 O 0.78318 0.70151 0.70855 0.0
O545 O 0.80051 0.7028 0.75482 0.0
O546 O 0.76008 0.74904 0.68975 0.0
O547 O 0.71801 0.73738 0.73236 0.0
O548 O 0.754 0.74182 0.79901 0.0
O549 O 0.73168 0.69023 0.76038 0.0
O550 O 0.79322 0.81382 0.8197 0.0
O551 O 0.78061 0.81404 0.77086 0.0
H552 H 0.89241 0.80239 0.86918 0.0
H553 H 0.91704 0.76909 0.88008 0.0
H554 H 0.85178 0.65888 0.81915 0.0
H555 H 0.82787 0.69298 0.80758 0.0
H556 H 0.68445 0.71044 0.65873 0.0
H557 H 0.66192 0.74356 0.64387 0.0
H558 H 0.72613 0.8546 0.70476 0.0
H559 H 0.7489 0.82101 0.71928 0.0
Pr560 Pr 0.54327 0.51209 0.54209 0.0
Pr561 Pr 0.51959 0.49113 0.47931 0.0
C562 C 0.55676 0.50882 0.59879 0.0
C563 C 0.57762 0.49851 0.60826 0.0
C564 C 0.61186 0.51478 0.59684 0.0
C565 C 0.63071 0.50334 0.60563 0.0
C566 C 0.61554 0.47525 0.62566 0.0
C567 C 0.5813 0.45921 0.63709 0.0
C568 C 0.56256 0.47081 0.62851 0.0
C569 C 0.58421 0.56667 0.50168 0.0
C570 C 0.57569 0.45421 0.46526 0.0
C571 C 0.50541 0.49406 0.42285 0.0
C572 C 0.48479 0.50508 0.4135 0.0
C573 C 0.45189 0.47833 0.40911 0.0
C574 C 0.43331 0.48881 0.39862 0.0
C575 C 0.44737 0.52612 0.3922 0.0
C576 C 0.48008 0.55298 0.39716 0.0
C577 C 0.49863 0.54249 0.40745 0.0
C578 C 0.4787 0.43686 0.52017 0.0
C579 C 0.48769 0.54966 0.55578 0.0
O580 O 0.53338 0.47952 0.58143 0.0
O581 O 0.57093 0.54112 0.58798 0.0
O582 O 0.5721 0.52989 0.4906 0.0
O583 O 0.57543 0.57713 0.53542 0.0
O584 O 0.55806 0.45987 0.44984 0.0
O585 O 0.57237 0.46964 0.50086 0.0
O586 O 0.52967 0.52284 0.43931 0.0
O587 O 0.4909 0.46201 0.43412 0.0
O588 O 0.4908 0.47366 0.53092 0.0
O589 O 0.48748 0.42616 0.48645 0.0
O590 O 0.50498 0.54363 0.57133 0.0
O591 O 0.49109 0.53426 0.5202 0.0
H592 H 0.624 0.53601 0.58093 0.0
H593 H 0.65703 0.51592 0.59627 0.0
H594 H 0.56901 0.43794 0.65297 0.0
H595 H 0.53617 0.45793 0.63755 0.0
H596 H 0.44062 0.44915 0.41328 0.0
H597 H 0.40825 0.46736 0.3947 0.0
H598 H 0.49146 0.58219 0.39301 0.0
H599 H 0.52399 0.56369 0.41037 0.0
Pr600 Pr 0.0525 0.51951 0.96817 0.0
Pr601 Pr 1.02473 0.49301 0.03849 0.0
C602 C 0.05703 0.5416 0.9121 0.0
C603 C 0.03845 0.55686 0.90476 0.0
C604 C 0.05481 0.58583 0.8857 0.0
C605 C 0.03772 0.60183 0.88005 0.0
C606 C 1.00386 0.58911 0.89336 0.0
C607 C 0.98758 0.56004 0.91253 0.0
C608 C 1.0047 0.54417 0.91825 0.0
C609 C 0.09673 0.55906 0.01552 0.0
C610 C 1.00834 0.55666 0.0348 0.0
C611 C 1.01827 0.46858 0.09391 0.0
C612 C 0.03637 0.45297 0.10202 0.0
C613 C 1.02658 0.4124 0.09212 0.0
C614 C 0.04449 0.39782 0.09828 0.0
C615 C 0.07247 0.4234 0.11474 0.0
C616 C 0.08211 0.46391 0.12495 0.0
C617 C 0.06427 0.47853 0.11869 0.0
C618 C 0.98064 0.45484 0.99126 0.0
C619 C 0.07008 0.45716 0.97313 0.0
O620 O 0.04091 0.50495 0.91431 0.0
O621 O 0.07563 0.56502 0.93632 0.0
O622 O 0.0664 0.54966 0.02331 0.0
O623 O 0.10595 0.55007 0.98165 0.0
O624 O 1.01359 0.54531 0.05727 0.0
O625 O 1.01517 0.54407 1.00053 0.0
O626 O 0.03411 0.50563 0.09307 0.0
O627 O 1.00043 0.44609 0.06887 0.0
O628 O 1.01068 0.46289 0.98348 0.0
O629 O 0.97173 0.46509 0.02503 0.0
O630 O 0.06545 0.46823 0.94993 0.0
O631 O 0.06309 0.47041 1.00719 0.0
H632 H 0.08093 0.59642 0.87551 0.0
H633 H 0.05122 0.62465 0.86574 0.0
H634 H 0.96149 0.54923 0.92289 0.0
H635 H 0.99157 0.52214 0.93344 0.0
H636 H 1.00514 0.39183 0.07939 0.0
H637 H 0.03613 0.3664 0.09056 0.0
H638 H 0.10374 0.48442 0.13739 0.0
H639 H 0.07257 0.50995 0.12663 0.0
H640 H 0.24048 0.25618 0.89314 0.0
H641 H 0.16957 0.17547 0.82299 0.0
H642 H 0.20453 0.21892 0.93822 0.0
H643 H 0.13395 0.13909 0.86752 0.0
H644 H 0.10421 0.05164 0.92939 0.0
H645 H 0.1385 0.09548 0.89019 0.0
H646 H 0.14969 0.19583 0.97823 0.0
H647 H 0.11531 0.15145 0.01787 0.0
C648 C 0.21692 0.23123 0.88771 0.0
C649 C 0.20804 0.21855 0.85443 0.0
C650 C 0.19637 0.2098 0.91342 0.0
C651 C 0.16668 0.17547 0.90617 0.0
C652 C 0.157 0.16468 0.8737 0.0
C653 C 0.17738 0.18581 0.84823 0.0
C654 C 0.11395 0.08304 0.94048 0.0
C655 C 0.10695 0.09807 0.97671 0.0
C656 C 0.13349 0.10824 0.91795 0.0
C657 C 0.14662 0.14926 0.93098 0.0
C658 C 0.14007 0.16442 0.96738 0.0
C659 C 0.12029 0.13904 0.99002 0.0
H660 H 0.09662 0.91853 0.15188 0.0
H661 H 0.18989 0.01373 0.12199 0.0
H662 H 0.12496 0.89635 0.1718 0.0
H663 H 0.21852 0.99112 0.14133 0.0
H664 H 0.25344 0.96316 0.21456 0.0
H665 H 0.22636 0.98615 0.19364 0.0
H666 H 0.16044 0.86587 0.14922 0.0
H667 H 0.18743 0.84292 0.17037 0.0
C668 C 0.12326 0.93441 0.14918 0.0
C669 C 0.14108 0.96767 0.13518 0.0
C670 C 0.13953 0.92167 0.16051 0.0
C671 C 0.17403 0.94176 0.15791 0.0
C672 C 0.19188 0.97522 0.14405 0.0
C673 C 0.17554 0.98813 0.1329 0.0
C674 C 0.23336 0.94164 0.20004 0.0
C675 C 0.2225 0.9012 0.19421 0.0
C676 C 0.21785 0.95483 0.18802 0.0
C677 C 0.19116 0.92786 0.16986 0.0
C678 C 0.18054 0.88742 0.1637 0.0
C679 C 0.196 0.87424 0.1758 0.0
H680 H 0.42317 0.92615 0.49317 0.0
H681 H 0.49999 0.9097 0.41108 0.0
H682 H 0.38568 0.89358 0.45048 0.0
H683 H 0.46192 0.87594 0.36832 0.0
H684 H 0.36264 0.77018 0.32583 0.0
H685 H 0.40344 0.80774 0.36548 0.0
H686 H 0.38478 0.90689 0.39122 0.0
H687 H 0.34451 0.86981 0.35093 0.0
C688 C 0.43201 0.91552 0.46595 0.0
C689 C 0.46434 0.92005 0.45537 0.0
C690 C 0.41061 0.89711 0.44156 0.0
C691 C 0.42092 0.88214 0.40626 0.0
C692 C 0.45341 0.88709 0.39551 0.0
C693 C 0.47514 0.90641 0.41983 0.0
C694 C 0.36718 0.79996 0.33998 0.0
C695 C 0.35024 0.81698 0.3354 0.0
C696 C 0.39073 0.82151 0.36237 0.0
C697 C 0.39728 0.86017 0.38117 0.0
C698 C 0.38014 0.87711 0.37694 0.0
C699 C 0.35712 0.85588 0.35395 0.0
H700 H 0.36018 0.11926 0.58481 0.0
H701 H 0.29749 0.01844 0.62989 0.0
H702 H 0.40102 0.09501 0.55776 0.0
H703 H 0.3385 0.9942 0.60268 0.0
H704 H 0.4529 0.0211 0.49522 0.0
H705 H 0.40281 0.02768 0.51296 0.0
H706 H 0.4023 0.0387 0.62098 0.0
H707 H 0.45308 0.03209 0.6035 0.0
C708 C 0.35474 0.09119 0.58765 0.0
C709 C 0.32606 0.07042 0.60906 0.0
C710 C 0.3779 0.07749 0.57241 0.0
C711 C 0.37237 0.04311 0.57865 0.0
C712 C 0.34275 0.02083 0.5979 0.0
C713 C 0.31939 0.03437 0.61294 0.0
C714 C 0.44231 0.02499 0.52284 0.0
C715 C 0.45711 0.02695 0.54828 0.0
C716 C 0.41351 0.02818 0.53269 0.0
C717 C 0.39919 0.03324 0.56795 0.0
C718 C 0.41314 0.03408 0.59346 0.0
C719 C 0.44217 0.03087 0.5836 0.0
H720 H 0.10089 0.87723 0.608 0.0
H721 H 0.18949 0.93638 0.53927 0.0
H722 H 0.13107 0.85878 0.62966 0.0
H723 H 0.21963 0.9178 0.56086 0.0
H724 H 0.2495 0.83476 0.57494 0.0
H725 H 0.22023 0.85676 0.55619 0.0
H726 H 0.17547 0.88626 0.66374 0.0
H727 H 0.20511 0.86474 0.68269 0.0
C728 C 0.12693 0.88684 0.59792 0.0
C729 C 0.14275 0.90815 0.57178 0.0
C730 C 0.14421 0.87619 0.61029 0.0
C731 C 0.17769 0.88657 0.59679 0.0
C732 C 0.1937 0.90872 0.57131 0.0
C733 C 0.17644 0.9194 0.55897 0.0
C734 C 0.23371 0.84632 0.59469 0.0
C735 C 0.22977 0.84803 0.63036 0.0
C736 C 0.21692 0.85894 0.58392 0.0
C737 C 0.19564 0.87344 0.60849 0.0
C738 C 0.19144 0.87487 0.64412 0.0
C739 C 0.20836 0.86241 0.65494 0.0
H740 H 0.38136 0.89513 0.79921 0.0
H741 H 0.34923 0.78779 0.82683 0.0
H742 H 0.4159 0.93216 0.84421 0.0
H743 H 0.38622 0.82427 0.87051 0.0
H744 H 0.43706 0.90536 0.96747 0.0
H745 H 0.40097 0.86518 0.92304 0.0
H746 H 0.46242 0.95249 0.86188 0.0
H747 H 0.49612 0.99344 0.90776 0.0
C748 C 0.38213 0.87931 0.81469 0.0
C749 C 0.36254 0.83846 0.80932 0.0
C750 C 0.40247 0.90061 0.8405 0.0
C751 C 0.40495 0.88174 0.8613 0.0
C752 C 0.38514 0.84052 0.85576 0.0
C753 C 0.36394 0.81929 0.83043 0.0
C754 C 0.44266 0.91578 0.94444 0.0
C755 C 0.46922 0.95283 0.94136 0.0
C756 C 0.42201 0.89257 0.91863 0.0
C757 C 0.42785 0.90531 0.88846 0.0
C758 C 0.45568 0.94173 0.88495 0.0
C759 C 0.47554 0.9653 0.9112 0.0
H760 H 0.34573 0.01237 0.14011 0.0
H761 H 0.37152 0.08321 0.06936 0.0
H762 H 0.29516 0.01878 0.16584 0.0
H763 H 0.32213 0.09094 0.09553 0.0
H764 H 0.2593 0.1375 0.15717 0.0
H765 H 0.26648 0.07988 0.12096 0.0
H766 H 0.30432 0.08251 0.20426 0.0
H767 H 0.29627 0.13884 0.24049 0.0
C768 C 0.33984 0.02789 0.1291 0.0
C769 C 0.36284 0.0487 0.10387 0.0
C770 C 0.31092 0.03151 0.14376 0.0
C771 C 0.3053 0.05657 0.13368 0.0
C772 C 0.3257 0.07168 0.10427 0.0
C773 C 0.3544 0.06789 0.08956 0.0
C774 C 0.26839 0.12508 0.16799 0.0
C775 C 0.27884 0.14371 0.20089 0.0
C776 C 0.27208 0.09182 0.14742 0.0
C777 C 0.28688 0.07738 0.15927 0.0
C778 C 0.29296 0.09285 0.19411 0.0
C779 C 0.28902 0.12583 0.21473 0.0
H780 H 0.08441 0.01247 0.38929 0.0
H781 H 0.12057 0.10752 0.47877 0.0
H782 H 0.12011 0.05642 0.35049 0.0
H783 H 0.15845 0.15141 0.43986 0.0
H784 H 0.20468 0.23039 0.36212 0.0
H785 H 0.16851 0.18887 0.40359 0.0
H786 H 0.17202 0.08777 0.32331 0.0
H787 H 0.20572 0.12879 0.28189 0.0
C788 C 0.1004 0.04281 0.40059 0.0
C789 C 0.09975 0.05644 0.43703 0.0
C790 C 0.12132 0.06817 0.37827 0.0
C791 C 0.14304 0.10784 0.39155 0.0
C792 C 0.14208 0.12144 0.42829 0.0
C793 C 0.12046 0.09618 0.45073 0.0
C794 C 0.19767 0.19927 0.35363 0.0
C795 C 0.20769 0.18274 0.31872 0.0
C796 C 0.17697 0.1753 0.37742 0.0
C797 C 0.16645 0.13435 0.36703 0.0
C798 C 0.17816 0.1186 0.33237 0.0
C799 C 0.19797 0.14229 0.30854 0.0
H800 H 0.86418 0.1976 0.14018 0.0
H801 H 0.8542 0.16464 0.23178 0.0
H802 H 0.89799 0.16353 0.10622 0.0
H803 H 0.88877 0.1314 0.19806 0.0
H804 H 0.96858 0.07855 0.13222 0.0
H805 H 0.93405 0.1117 0.16609 0.0
H806 H 0.92107 0.11596 0.07032 0.0
H807 H 0.95492 0.08182 0.03644 0.0
C808 C 0.86872 0.18351 0.15418 0.0
C809 C 0.85401 0.18625 0.19111 0.0
C810 C 0.88916 0.16283 0.13361 0.0
C811 C 0.89865 0.14227 0.1469 0.0
C812 C 0.88417 0.14532 0.18396 0.0
C813 C 0.86321 0.16541 0.20439 0.0
C814 C 0.95875 0.08597 0.11728 0.0
C815 C 0.96697 0.07509 0.07919 0.0
C816 C 0.9378 0.10602 0.13778 0.0
C817 C 0.92228 0.11902 0.12344 0.0
C818 C 0.93076 0.10843 0.08531 0.0
C819 C 0.95124 0.08773 0.06477 0.0
H820 H 0.13076 0.63322 0.48279 0.0
H821 H 0.09084 0.53844 0.39448 0.0
H822 H 0.1663 0.67719 0.44374 0.0
H823 H 0.1244 0.58272 0.35558 0.0
H824 H 0.20829 0.66032 0.2876 0.0
H825 H 0.17543 0.61649 0.32676 0.0
H826 H 0.16867 0.71356 0.4109 0.0
H827 H 0.20447 0.75799 0.37215 0.0
C828 C 0.12951 0.6219 0.45496 0.0
C829 C 0.1082 0.58242 0.4416 0.0
C830 C 0.14963 0.64722 0.43252 0.0
C831 C 0.14832 0.63389 0.39625 0.0
C832 C 0.12685 0.59416 0.38308 0.0
C833 C 0.10737 0.56866 0.40541 0.0
C834 C 0.20009 0.67233 0.31461 0.0
C835 C 0.20945 0.71267 0.32702 0.0
C836 C 0.18075 0.64704 0.33708 0.0
C837 C 0.16916 0.66115 0.37231 0.0
C838 C 0.17769 0.70152 0.38431 0.0
C839 C 0.19789 0.72703 0.362 0.0
H840 H 0.63438 0.91141 0.57981 0.0
H841 H 0.56255 0.88947 0.67406 0.0
H842 H 0.66383 0.88684 0.59528 0.0
H843 H 0.59167 0.86444 0.68907 0.0
H844 H 0.62659 0.77559 0.67743 0.0
H845 H 0.60047 0.80539 0.66402 0.0
H846 H 0.69596 0.90137 0.64068 0.0
H847 H 0.72232 0.87092 0.65345 0.0
C848 C 0.62511 0.90186 0.60403 0.0
C849 C 0.59593 0.9021 0.62556 0.0
C850 C 0.64197 0.88776 0.61284 0.0
C851 C 0.62989 0.87346 0.64323 0.0
C852 C 0.60124 0.87465 0.66517 0.0
C853 C 0.58452 0.8889 0.6565 0.0
C854 C 0.64205 0.80294 0.66926 0.0
C855 C 0.67651 0.82083 0.66629 0.0
C856 C 0.62707 0.82021 0.66193 0.0
C857 C 0.64618 0.85576 0.65141 0.0
C858 C 0.68066 0.87382 0.64853 0.0
C859 C 0.69569 0.85661 0.65612 0.0
H860 H 0.45866 0.46286 0.92547 0.0
H861 H 0.46817 0.36671 0.93221 0.0
H862 H 0.41946 0.4174 0.88495 0.0
H863 H 0.42934 0.32126 0.89112 0.0
H864 H 0.33175 0.24523 0.84493 0.0
H865 H 0.37195 0.28943 0.88506 0.0
H866 H 0.41531 0.37756 0.82614 0.0
H867 H 0.3751 0.33357 0.78646 0.0
C868 C 0.4526 0.43206 0.91817 0.0
C869 C 0.46681 0.41868 0.93224 0.0
C870 C 0.43014 0.40587 0.89467 0.0
C871 C 0.42106 0.36538 0.88444 0.0
C872 C 0.43529 0.35202 0.89854 0.0
C873 C 0.45784 0.37825 0.92201 0.0
C874 C 0.35001 0.27397 0.84048 0.0
C875 C 0.34998 0.28589 0.81259 0.0
C876 C 0.3732 0.29936 0.86345 0.0
C877 C 0.39694 0.33746 0.85924 0.0
C878 C 0.39716 0.3489 0.83083 0.0
C879 C 0.37414 0.3235 0.80785 0.0
H880 H 0.83595 0.74549 0.34041 0.0
H881 H 0.87321 0.83682 0.2871 0.0
H882 H 0.87508 0.79052 0.38142 0.0
H883 H 0.91259 0.88175 0.32762 0.0
H884 H 0.95463 0.96512 0.42828 0.0
H885 H 0.91644 0.9194 0.38676 0.0
H886 H 0.93174 0.82546 0.38864 0.0
H887 H 0.96939 0.87108 0.43082 0.0
C888 C 0.8527 0.7751 0.33724 0.0
C889 C 0.85123 0.78751 0.31052 0.0
C890 C 0.87531 0.80102 0.36074 0.0
C891 C 0.89715 0.84018 0.35824 0.0
C892 C 0.89593 0.85222 0.33102 0.0
C893 C 0.87341 0.8263 0.30753 0.0
C894 C 0.94996 0.93474 0.41984 0.0
C895 C 0.9653 0.92203 0.43309 0.0
C896 C 0.92808 0.9084 0.39573 0.0
C897 C 0.92078 0.86841 0.38399 0.0
C898 C 0.93622 0.85576 0.39723 0.0
C899 C 0.95811 0.88211 0.42136 0.0
H900 H 0.45408 0.58227 0.53598 0.0
H901 H 0.46435 0.57479 0.63165 0.0
H902 H 0.42065 0.61697 0.56986 0.0
H903 H 0.43029 0.60854 0.66547 0.0
H904 H 0.35186 0.66316 0.73111 0.0
H905 H 0.38597 0.62944 0.6972 0.0
H906 H 0.3974 0.6645 0.60623 0.0
H907 H 0.36396 0.69906 0.64045 0.0
C908 C 0.44972 0.58734 0.56427 0.0
C909 C 0.46437 0.57332 0.57867 0.0
C910 C 0.4295 0.60838 0.58482 0.0
C911 C 0.42025 0.61804 0.62292 0.0
C912 C 0.4347 0.60369 0.63721 0.0
C913 C 0.45537 0.58327 0.61672 0.0
C914 C 0.36126 0.66451 0.70388 0.0
C915 C 0.35276 0.68632 0.69098 0.0
C916 C 0.38196 0.64411 0.68333 0.0
C917 C 0.3969 0.64168 0.64644 0.0
C918 C 0.38815 0.66324 0.63347 0.0
C919 C 0.36793 0.68422 0.6542 0.0
H920 H 0.62742 0.13369 0.98861 0.0
H921 H 0.58633 0.04292 0.89878 0.0
H922 H 0.66463 0.17889 0.95073 0.0
H923 H 0.62159 0.08832 0.86132 0.0
H924 H 0.70627 0.26206 0.87935 0.0
H925 H 0.66949 0.21774 0.91807 0.0
H926 H 0.67419 0.11982 0.8337 0.0
H927 H 0.70827 0.16362 0.79465 0.0
C928 C 0.62622 0.12356 0.96078 0.0
C929 C 0.60424 0.08475 0.94657 0.0
C930 C 0.64734 0.14954 0.93903 0.0
C931 C 0.6464 0.13747 0.90271 0.0
C932 C 0.62388 0.09863 0.88884 0.0
C933 C 0.60341 0.07252 0.9104 0.0
C934 C 0.69911 0.23097 0.86917 0.0
C935 C 0.71025 0.21629 0.83408 0.0
C936 C 0.67831 0.20553 0.89144 0.0
C937 C 0.66869 0.16493 0.87924 0.0
C938 C 0.68027 0.15059 0.84407 0.0
C939 C 0.70029 0.17583 0.82168 0.0
H940 H 0.08996 0.36641 0.07089 0.0
H941 H 0.09728 0.44493 0.17432 0.0
H942 H 0.11897 0.33914 0.08317 0.0
H943 H 0.12607 0.41754 0.18671 0.0
H944 H 0.20143 0.38307 0.18752 0.0
H945 H 0.17712 0.41318 0.17126 0.0
H946 H 0.10899 0.29832 0.11946 0.0
H947 H 0.13426 0.26852 0.13419 0.0
C948 C 0.09763 0.37772 0.09631 0.0
C949 C 0.0912 0.40774 0.12169 0.0
C950 C 0.11426 0.3621 0.10336 0.0
C951 C 0.12479 0.37608 0.13597 0.0
C952 C 0.11877 0.40651 0.16112 0.0
C953 C 0.10221 0.42218 0.15405 0.0
C954 C 0.1816 0.36434 0.1722 0.0
C955 C 0.16968 0.32337 0.16234 0.0
C956 C 0.16741 0.38154 0.16323 0.0
C957 C 0.14099 0.35816 0.14418 0.0
C958 C 0.12949 0.31727 0.13382 0.0
C959 C 0.14371 0.30012 0.1427 0.0
H960 H 0.58972 0.51006 0.88789 0.0
H961 H 0.62379 0.60429 0.97856 0.0
H962 H 0.62641 0.55462 0.84978 0.0
H963 H 0.66255 0.64881 0.94041 0.0
H964 H 0.7112 0.72888 0.86313 0.0
H965 H 0.67372 0.6868 0.90389 0.0
H966 H 0.679 0.58637 0.82404 0.0
H967 H 0.71412 0.62794 0.78328 0.0
C968 C 0.60545 0.54034 0.89963 0.0
C969 C 0.60394 0.55353 0.93619 0.0
C970 C 0.62693 0.56606 0.87771 0.0
C971 C 0.64834 0.60569 0.89155 0.0
C972 C 0.64648 0.61887 0.9284 0.0
C973 C 0.62434 0.59323 0.95041 0.0
C974 C 0.70433 0.6978 0.85458 0.0
C975 C 0.71534 0.68164 0.81995 0.0
C976 C 0.68286 0.6735 0.87797 0.0
C977 C 0.67246 0.63256 0.86748 0.0
C978 C 0.68505 0.61718 0.83315 0.0
C979 C 0.7057 0.64119 0.8097 0.0
H980 H 0.69133 0.29822 0.13317 0.0
H981 H 0.76855 0.41816 0.14724 0.0
H982 H 0.66074 0.31535 0.11088 0.0
H983 H 0.73856 0.43494 0.12346 0.0
H984 H 0.66031 0.45908 0.11 0.0
H985 H 0.68951 0.44325 0.13599 0.0
H986 H 0.66441 0.33199 0.05916 0.0
H987 H 0.63413 0.34697 0.03431 0.0
C988 C 0.70172 0.32832 0.13171 0.0
C989 C 0.73243 0.3568 0.14203 0.0
C990 C 0.68435 0.33805 0.11849 0.0
C991 C 0.69726 0.37649 0.11514 0.0
C992 C 0.72776 0.40513 0.12593 0.0
C993 C 0.74514 0.3954 0.13919 0.0
C994 C 0.6608 0.43111 0.09887 0.0
C995 C 0.64494 0.40437 0.06997 0.0
C996 C 0.67783 0.4222 0.11354 0.0
C997 C 0.67929 0.3863 0.09971 0.0
C998 C 0.66345 0.35967 0.0708 0.0
C999 C 0.64646 0.36854 0.0562 0.0
H1000 H 0.9896 0.49593 0.41017 0.0
H1001 H 0.94574 0.40059 0.46055 0.0
H1002 H 0.95339 0.4538 0.36594 0.0
H1003 H 0.90911 0.35842 0.41644 0.0
H1004 H 0.82406 0.3146 0.35508 0.0
H1005 H 0.86143 0.3541 0.39849 0.0
H1006 H 0.94335 0.39365 0.31594 0.0
H1007 H 0.90604 0.35377 0.27255 0.0
C1008 C 0.97221 0.46594 0.4118 0.0
C1009 C 0.97053 0.45172 0.439 0.0
C1010 C 0.95153 0.44168 0.3863 0.0
C1011 C 0.9282 0.40264 0.38755 0.0
C1012 C 0.92655 0.3884 0.41479 0.0
C1013 C 0.94764 0.41251 0.44 0.0
C1014 C 0.85007 0.33162 0.34619 0.0
C1015 C 0.862 0.3311 0.31033 0.0
C1016 C 0.87155 0.35412 0.37106 0.0
C1017 C 0.90547 0.37725 0.36082 0.0
C1018 C 0.91737 0.37655 0.32487 0.0
C1019 C 0.89598 0.35354 0.29995 0.0
H1020 H 0.61159 0.64735 0.51822 0.0
H1021 H 0.6074 0.54698 0.4326 0.0
H1022 H 0.64665 0.69081 0.47782 0.0
H1023 H 0.64253 0.58986 0.39287 0.0
H1024 H 0.6723 0.66426 0.32119 0.0
H1025 H 0.63649 0.62883 0.36626 0.0
H1026 H 0.70238 0.71608 0.4401 0.0
H1027 H 0.73836 0.7525 0.39449 0.0
C1028 C 0.61834 0.63467 0.4909 0.0
C1029 C 0.6066 0.5938 0.47849 0.0
C1030 C 0.63847 0.6595 0.46784 0.0
C1031 C 0.64702 0.64378 0.43203 0.0
C1032 C 0.63582 0.60294 0.42008 0.0
C1033 C 0.61582 0.57832 0.44294 0.0
C1034 C 0.67906 0.67629 0.34714 0.0
C1035 C 0.70838 0.71093 0.35419 0.0
C1036 C 0.65858 0.65579 0.37296 0.0
C1037 C 0.66696 0.66907 0.40656 0.0
C1038 C 0.69529 0.70505 0.41442 0.0
C1039 C 0.71585 0.72592 0.38839 0.0
H1040 H 0.8597 0.27588 0.83429 0.0
H1041 H 0.84082 0.37406 0.85467 0.0
H1042 H 0.89763 0.31425 0.87707 0.0
H1043 H 0.87831 0.41198 0.89776 0.0
H1044 H 0.91758 0.44294 1.00118 0.0
H1045 H 0.87955 0.40542 0.9584 0.0
H1046 H 0.95427 0.37928 0.88061 0.0
H1047 H 0.99245 0.4173 0.92308 0.0
C1048 C 0.86346 0.30549 0.84804 0.0
C1049 C 0.84728 0.32193 0.84108 0.0
C1050 C 0.88528 0.32748 0.87234 0.0
C1051 C 0.89083 0.36602 0.89064 0.0
C1052 C 0.87429 0.38225 0.88413 0.0
C1053 C 0.85297 0.36057 0.85937 0.0
C1054 C 0.92585 0.42925 0.97491 0.0
C1055 C 0.95785 0.43286 0.96544 0.0
C1056 C 0.90418 0.40794 0.95047 0.0
C1057 C 0.91398 0.38933 0.91634 0.0
C1058 C 0.94603 0.39303 0.90687 0.0
C1059 C 0.96786 0.41489 0.9311 0.0
H1060 H 0.85629 0.75492 0.14112 0.0
H1061 H 0.83552 0.85372 0.19238 0.0
H1062 H 0.89581 0.78922 0.09493 0.0
H1063 H 0.87361 0.88693 0.14678 0.0
H1064 H 0.97138 0.9599 0.09268 0.0
H1065 H 0.93265 0.91877 0.1329 0.0
H1066 H 0.90381 0.81742 0.04545 0.0
H1067 H 0.94407 0.85901 1.00474 0.0
C1068 C 0.85974 0.78352 0.14222 0.0
C1069 C 0.84329 0.80193 0.17073 0.0
C1070 C 0.88231 0.80316 0.11585 0.0
C1071 C 0.88852 0.8413 0.11764 0.0
C1072 C 0.87037 0.85824 0.14509 0.0
C1073 C 0.84831 0.83901 0.17123 0.0
C1074 C 0.95705 0.9288 0.08191 0.0
C1075 C 0.96064 0.91277 0.04551 0.0
C1076 C 0.9346 0.90518 0.105 0.0
C1077 C 0.91459 0.86483 0.09242 0.0
C1078 C 0.91886 0.84835 0.056 0.0
C1079 C 0.94176 0.87216 0.03271 0.0
H1080 H 0.89696 0.15183 0.81246 0.0
H1081 H 0.80301 0.05253 0.83343 0.0
H1082 H 0.92352 0.12884 0.834 0.0
H1083 H 0.82929 0.0308 0.85694 0.0
H1084 H 0.89511 0.98147 0.85975 0.0
H1085 H 0.8663 1.00264 0.83906 0.0
H1086 H 0.92739 0.12349 0.88773 0.0
H1087 H 0.9564 0.10228 0.9078 0.0
C1088 C 0.88196 0.1251 0.82167 0.0
C1089 C 0.84786 0.10407 0.8212 0.0
C1090 C 0.89711 0.11221 0.83452 0.0
C1091 C 0.8785 0.07814 0.84748 0.0
C1092 C 0.8444 0.057 0.84693 0.0
C1093 C 0.82927 0.06977 0.83387 0.0
C1094 C 0.90207 0.01249 0.86631 0.0
C1095 C 0.92817 0.04027 0.88512 0.0
C1096 C 0.88558 0.02465 0.85449 0.0
C1097 C 0.89478 0.06483 0.86142 0.0
C1098 C 0.92021 0.09241 0.88119 0.0
C1099 C 0.93677 0.08028 0.89281 0.0
H1100 H 0.734 0.23577 0.66023 0.0
H1101 H 0.6919 0.13037 0.69633 0.0
H1102 H 0.6966 0.20034 0.6173 0.0
H1103 H 0.65426 0.09501 0.65337 0.0
H1104 H 0.56964 0.06231 0.59605 0.0
H1105 H 0.60571 0.09651 0.6407 0.0
H1106 H 0.68945 0.14475 0.5626 0.0
H1107 H 0.65374 0.11021 0.51814 0.0
C1108 C 0.71675 0.20506 0.65906 0.0
C1109 C 0.71604 0.18589 0.68165 0.0
C1110 C 0.69539 0.18474 0.63437 0.0
C1111 C 0.6725 0.14491 0.63198 0.0
C1112 C 0.67148 0.12577 0.6548 0.0
C1113 C 0.69321 0.14597 0.67919 0.0
C1114 C 0.59576 0.08007 0.58849 0.0
C1115 C 0.60889 0.08348 0.5536 0.0
C1116 C 0.6164 0.09956 0.61398 0.0
C1117 C 0.6504 0.12339 0.60513 0.0
C1118 C 0.66333 0.12693 0.57029 0.0
C1119 C 0.64287 0.10704 0.54481 0.0
H1120 H 0.64759 0.03715 0.48068 0.0
H1121 H 0.59612 0.91146 0.4418 0.0
H1122 H 0.69481 0.03201 0.48415 0.0
H1123 H 0.64371 0.90607 0.44412 0.0
H1124 H 0.7132 0.89679 0.47942 0.0
H1125 H 0.67048 0.9173 0.49417 0.0
H1126 H 0.73658 0.01188 0.44212 0.0
H1127 H 0.7787 0.9915 0.42696 0.0
C1128 C 0.64718 0.00866 0.47148 0.0
C1129 C 0.61912 0.97469 0.46014 0.0
C1130 C 0.67373 0.00566 0.47411 0.0
C1131 C 0.67226 0.96861 0.46541 0.0
C1132 C 0.64481 0.93484 0.45206 0.0
C1133 C 0.61814 0.93788 0.44971 0.0
C1134 C 0.71908 0.92307 0.47263 0.0
C1135 C 0.74875 0.94149 0.45083 0.0
C1136 C 0.6946 0.93452 0.48076 0.0
C1137 C 0.70013 0.96502 0.46788 0.0
C1138 C 0.73174 0.98792 0.4519 0.0
C1139 C 0.75605 0.97632 0.44353 0.0
H1140 H 0.85603 0.13079 0.32856 0.0
H1141 H 0.8007 0.14912 0.43263 0.0
H1142 H 0.886 0.1123 0.35052 0.0
H1143 H 0.83061 0.1307 0.45455 0.0
H1144 H 0.86947 0.06245 0.47688 0.0
H1145 H 0.83761 0.0754 0.45183 0.0
H1146 H 0.92691 0.14218 0.38816 0.0
H1147 H 0.95857 0.12883 0.41289 0.0
C1148 C 0.85035 0.13105 0.35614 0.0
C1149 C 0.82592 0.14142 0.3788 0.0
C1150 C 0.86753 0.12043 0.36874 0.0
C1151 C 0.8607 0.11995 0.4043 0.0
C1152 C 0.8361 0.13005 0.42688 0.0
C1153 C 0.81894 0.14065 0.4143 0.0
C1154 C 0.88224 0.07986 0.45751 0.0
C1155 C 0.91654 0.09467 0.44692 0.0
C1156 C 0.86402 0.08737 0.4432 0.0
C1157 C 0.87971 0.11002 0.4181 0.0
C1158 C 0.91394 0.12417 0.40705 0.0
C1159 C 0.93211 0.11653 0.42124 0.0
H1160 H 0.73804 0.14354 0.17433 0.0
H1161 H 0.67198 0.19445 0.22823 0.0
H1162 H 0.70397 0.10179 0.12891 0.0
H1163 H 0.63911 0.15564 0.1811 0.0
H1164 H 0.56951 0.06111 0.10463 0.0
H1165 H 0.60209 0.10122 0.15175 0.0
H1166 H 0.68672 0.09035 0.08079 0.0
H1167 H 0.65274 0.04714 0.03525 0.0
C1168 C 0.71632 0.14617 0.1761 0.0
C1169 C 0.70766 0.17219 0.20495 0.0
C1170 C 0.69673 0.12241 0.1496 0.0
C1171 C 0.66832 0.12485 0.15024 0.0
C1172 C 0.66004 0.15157 0.17928 0.0
C1173 C 0.6791 0.17434 0.20646 0.0
C1174 C 0.5951 0.06728 0.09933 0.0
C1175 C 0.60847 0.05071 0.06627 0.0
C1176 C 0.61415 0.09079 0.12641 0.0
C1177 C 0.64765 0.09968 0.12101 0.0
C1178 C 0.66104 0.08374 0.08721 0.0
C1179 C 0.6416 0.0591 0.06059 0.0
H1180 H 0.77247 0.86112 0.87256 0.0
H1181 H 0.8073 0.88833 0.77107 0.0
H1182 H 0.76052 0.91663 0.89718 0.0
H1183 H 0.79713 0.94544 0.79605 0.0
H1184 H 0.68862 0.93216 0.8274 0.0
H1185 H 0.73961 0.92807 0.80661 0.0
H1186 H 0.76354 0.98107 0.91174 0.0
H1187 H 0.71157 0.98497 0.93272 0.0
C1188 C 0.77887 0.88008 0.85595 0.0
C1189 C 0.78915 0.8697 0.81977 0.0
C1190 C 0.77257 0.91236 0.87011 0.0
C1191 C 0.7768 0.93456 0.84812 0.0
C1192 C 0.79271 0.92805 0.81327 0.0
C1193 C 0.79817 0.89521 0.79894 0.0
C1194 C 0.70544 0.94476 0.8458 0.0
C1195 C 0.69586 0.95777 0.88176 0.0
C1196 C 0.73501 0.94272 0.83385 0.0
C1197 C 0.75532 0.95344 0.85778 0.0
C1198 C 0.748 0.97192 0.89291 0.0
C1199 C 0.71825 0.97387 0.90491 0.0
H1200 H 0.94265 0.90715 0.5477 0.0
H1201 H 0.98046 0.00308 0.63602 0.0
H1202 H 0.90657 0.86347 0.58715 0.0
H1203 H 0.94666 0.95937 0.6753 0.0
H1204 H 0.86391 0.88673 0.74587 0.0
H1205 H 0.89604 0.92764 0.70426 0.0
H1206 H 0.89785 0.82639 0.62285 0.0
H1207 H 0.86302 0.78495 0.66459 0.0
C1208 C 0.9435 0.91875 0.5756 0.0
C1209 C 0.96412 0.95867 0.58881 0.0
C1210 C 0.92293 0.89359 0.59836 0.0
C1211 C 0.92297 0.90746 0.63496 0.0
C1212 C 0.94463 0.94735 0.64772 0.0
C1213 C 0.96447 0.9726 0.62509 0.0
C1214 C 0.87092 0.87316 0.71895 0.0
C1215 C 0.86101 0.83266 0.70854 0.0
C1216 C 0.88988 0.89681 0.69496 0.0
C1217 C 0.90063 0.88102 0.65986 0.0
C1218 C 0.89008 0.84004 0.64933 0.0
C1219 C 0.87017 0.8161 0.6733 0.0
H1220 H 0.21454 0.84382 0.78947 0.0
H1221 H 0.20344 0.80897 0.88038 0.0
H1222 H 0.18021 0.87726 0.8234 0.0
H1223 H 0.16983 0.8433 0.91462 0.0
H1224 H 0.11353 0.92593 0.98481 0.0
H1225 H 0.14713 0.89146 0.95089 0.0
H1226 H 0.13505 0.89694 0.85519 0.0
H1227 H 0.10077 0.93041 0.88907 0.0
C1228 C 0.20532 0.84266 0.81676 0.0
C1229 C 0.21415 0.82124 0.82975 0.0
C1230 C 0.1845 0.86288 0.83731 0.0
C1231 C 0.16979 0.86552 0.87427 0.0
C1232 C 0.17889 0.84436 0.88731 0.0
C1233 C 0.1992 0.82352 0.86658 0.0
C1234 C 0.11737 0.92023 0.95648 0.0
C1235 C 0.10198 0.93331 0.94208 0.0
C1236 C 0.13769 0.89933 0.93592 0.0
C1237 C 0.14633 0.88896 0.89779 0.0
C1238 C 0.13115 0.90241 0.88348 0.0
C1239 C 0.11035 0.92264 0.904 0.0
H1240 H 0.93969 0.37148 0.53332 0.0
H1241 H 0.97898 0.46474 0.62268 0.0
H1242 H 0.902 0.32744 0.57181 0.0
H1243 H 0.94315 0.42027 0.66115 0.0
H1244 H 0.85659 0.34337 0.72776 0.0
H1245 H 0.89127 0.38743 0.68898 0.0
H1246 H 0.89679 0.28968 0.60492 0.0
H1247 H 0.85929 0.24521 0.64321 0.0
C1248 C 0.94036 0.38242 0.56127 0.0
C1249 C 0.96212 0.42153 0.57507 0.0
C1250 C 0.91897 0.35705 0.58341 0.0
C1251 C 0.91938 0.36989 0.61986 0.0
C1252 C 0.94136 0.40923 0.63348 0.0
C1253 C 0.96215 0.43484 0.6114 0.0
C1254 C 0.86482 0.33126 0.70081 0.0
C1255 C 0.85473 0.29077 0.68833 0.0
C1256 C 0.88524 0.35668 0.67858 0.0
C1257 C 0.89714 0.34248 0.6435 0.0
C1258 C 0.88764 0.30187 0.63137 0.0
C1259 C 0.86641 0.27629 0.65343 0.0
H1260 H 0.49128 0.15933 0.4368 0.0
H1261 H 0.45 0.05299 0.35714 0.0
H1262 H 0.46187 0.18574 0.42416 0.0
H1263 H 0.42106 0.07969 0.34379 0.0
H1264 H 0.35214 0.12703 0.3485 0.0
H1265 H 0.37761 0.0985 0.36506 0.0
H1266 H 0.46471 0.21086 0.37897 0.0
H1267 H 0.43863 0.23972 0.3644 0.0
C1268 C 0.47597 0.14167 0.41648 0.0
C1269 C 0.4731 0.10421 0.3978 0.0
C1270 C 0.45919 0.15683 0.40912 0.0
C1271 C 0.43933 0.13503 0.38269 0.0
C1272 C 0.43584 0.09713 0.36458 0.0
C1273 C 0.45245 0.08182 0.37216 0.0
C1274 C 0.37657 0.14571 0.3555 0.0
C1275 C 0.39335 0.18564 0.35501 0.0
C1276 C 0.39133 0.12925 0.36461 0.0
C1277 C 0.42323 0.15235 0.37339 0.0
C1278 C 0.43995 0.19227 0.37287 0.0
C1279 C 0.42516 0.20872 0.36395 0.0
H1280 H 0.58161 0.54711 0.12181 0.0
H1281 H 0.62277 0.6363 0.06499 0.0
H1282 H 0.61648 0.5936 0.16596 0.0
H1283 H 0.6601 0.68215 0.10694 0.0
H1284 H 0.71137 0.7701 0.1989 0.0
H1285 H 0.6726 0.72463 0.158 0.0
H1286 H 0.66386 0.62691 0.18535 0.0
H1287 H 0.69902 0.67262 0.2289 0.0
C1288 C 0.59863 0.57663 0.1185 0.0
C1289 C 0.59931 0.588 0.08997 0.0
C1290 C 0.61911 0.60356 0.14377 0.0
C1291 C 0.64188 0.64246 0.14068 0.0
C1292 C 0.64271 0.65329 0.11146 0.0
C1293 C 0.62142 0.62671 0.08691 0.0
C1294 C 0.70073 0.73884 0.19631 0.0
C1295 C 0.70867 0.72508 0.2169 0.0
C1296 C 0.67867 0.7124 0.17235 0.0
C1297 C 0.66468 0.67123 0.16738 0.0
C1298 C 0.67296 0.65789 0.18827 0.0
C1299 C 0.69389 0.68433 0.2131 0.0
H1300 H 0.20008 0.17839 0.72775 0.0
H1301 H 0.21908 0.27533 0.69166 0.0
H1302 H 0.16346 0.1328 0.68566 0.0
H1303 H 0.17887 0.2304 0.65221 0.0
H1304 H 0.12237 0.14041 0.56372 0.0
H1305 H 0.16156 0.18626 0.6038 0.0
H1306 H 0.11658 0.10074 0.66637 0.0
H1307 H 0.07992 0.05413 0.62398 0.0
C1308 C 0.19612 0.19006 0.7109 0.0
C1309 C 0.21316 0.23058 0.7127 0.0
C1310 C 0.1743 0.1637 0.68687 0.0
C1311 C 0.16722 0.17694 0.66476 0.0
C1312 C 0.18371 0.218 0.66755 0.0
C1313 C 0.2067 0.24424 0.69068 0.0
C1314 C 0.12111 0.13152 0.58605 0.0
C1315 C 0.0981 0.09352 0.59053 0.0
C1316 C 0.14355 0.15812 0.60955 0.0
C1317 C 0.14305 0.14819 0.63919 0.0
C1318 C 0.1192 0.11008 0.6438 0.0
C1319 C 0.0976 0.08305 0.61955 0.0
H1320 H 0.70126 0.30702 0.37974 0.0
H1321 H 0.71226 0.34188 0.28889 0.0
H1322 H 0.66757 0.34117 0.41403 0.0
H1323 H 0.67784 0.37525 0.32293 0.0
H1324 H 0.59882 0.42918 0.38927 0.0
H1325 H 0.63321 0.39592 0.35515 0.0
H1326 H 0.64396 0.38814 0.45048 0.0
H1327 H 0.6102 0.42235 0.48465 0.0
C1328 C 0.697 0.32157 0.36595 0.0
C1329 C 0.71196 0.3193 0.32911 0.0
C1330 C 0.67661 0.3423 0.38674 0.0
C1331 C 0.66744 0.36346 0.3738 0.0
C1332 C 0.68218 0.36088 0.33681 0.0
C1333 C 0.70306 0.3407 0.31617 0.0
C1334 C 0.60811 0.42094 0.40408 0.0
C1335 C 0.59928 0.4309 0.44217 0.0
C1336 C 0.62899 0.40082 0.38341 0.0
C1337 C 0.64387 0.3868 0.3975 0.0
C1338 C 0.6348 0.39648 0.43563 0.0
C1339 C 0.61436 0.41723 0.45636 0.0
H1340 H 0.47688 0.96354 0.12473 0.0
H1341 H 0.44467 0.86867 0.03378 0.0
H1342 H 0.44259 0.91803 0.1625 0.0
H1343 H 0.40801 0.8234 0.07138 0.0
H1344 H 0.36533 0.7417 0.14281 0.0
H1345 H 0.4031 0.78717 0.10541 0.0
H1346 H 0.39138 0.88233 0.18833 0.0
H1347 H 0.35704 0.83773 0.2264 0.0
C1348 C 0.4618 0.93298 0.11299 0.0
C1349 C 0.4633 0.91951 0.0765 0.0
C1350 C 0.4419 0.90675 0.1346 0.0
C1351 C 0.42216 0.86665 0.12027 0.0
C1352 C 0.4233 0.85362 0.08358 0.0
C1353 C 0.44402 0.87965 0.06194 0.0
C1354 C 0.37127 0.77248 0.15296 0.0
C1355 C 0.35791 0.78612 0.18727 0.0
C1356 C 0.39262 0.7986 0.13141 0.0
C1357 C 0.40034 0.83875 0.14346 0.0
C1358 C 0.38683 0.85205 0.17801 0.0
C1359 C 0.36652 0.82624 0.1998 0.0
H1360 H 1.0106 0.60902 0.83375 0.0
H1361 H 0.95578 0.60773 0.93913 0.0
H1362 H 0.98166 0.63783 0.82405 0.0
H1363 H 0.92551 0.63451 0.92871 0.0
H1364 H 0.90488 0.72353 0.91182 0.0
H1365 H 0.93306 0.69404 0.92189 0.0
H1366 H 0.92895 0.62259 0.81542 0.0
H1367 H 0.90232 0.65371 0.80478 0.0
C1368 C 0.99237 0.61485 0.85488 0.0
C1369 C 0.98564 0.60608 0.88726 0.0
C1370 C 0.9754 0.63087 0.84912 0.0
C1371 C 0.95111 0.63838 0.87553 0.0
C1372 C 0.94427 0.6295 0.90788 0.0
C1373 C 0.96137 0.61364 0.91371 0.0
C1374 C 0.91022 0.70176 0.89044 0.0
C1375 C 0.90151 0.69121 0.85741 0.0
C1376 C 0.92603 0.68445 0.89636 0.0
C1377 C 0.93337 0.65594 0.86947 0.0
C1378 C 0.92411 0.64484 0.8366 0.0
C1379 C 0.90841 0.6623 0.83063 0.0
H1380 H 0.44307 0.40359 0.04463 0.0
H1381 H 0.48046 0.49821 0.13386 0.0
H1382 H 0.40472 0.36 0.08366 0.0
H1383 H 0.44431 0.45451 0.17278 0.0
H1384 H 0.35832 0.38339 0.24195 0.0
H1385 H 0.39261 0.42418 0.20047 0.0
H1386 H 0.39342 0.32198 0.11987 0.0
H1387 H 0.35654 0.28077 0.16143 0.0
C1388 C 0.44334 0.4149 0.07264 0.0
C1389 C 0.46453 0.45446 0.08623 0.0
C1390 C 0.42144 0.38979 0.09517 0.0
C1391 C 0.42067 0.40335 0.13189 0.0
C1392 C 0.4429 0.44281 0.14504 0.0
C1393 C 0.46409 0.46803 0.12263 0.0
C1394 C 0.36556 0.3696 0.21522 0.0
C1395 C 0.35481 0.32892 0.20498 0.0
C1396 C 0.38576 0.39315 0.19133 0.0
C1397 C 0.3969 0.37704 0.15654 0.0
C1398 C 0.38543 0.33588 0.14613 0.0
C1399 C 0.36431 0.31206 0.16998 0.0
H1400 H 0.37863 0.58444 0.99265 0.0
H1401 H 0.46235 0.62509 0.91186 0.0
H1402 H 0.34877 0.60297 0.97057 0.0
H1403 H 0.43259 0.64382 0.88988 0.0
H1404 H 0.35639 0.63847 0.84106 0.0
H1405 H 0.38542 0.61689 0.86088 0.0
H1406 H 0.35206 0.66362 0.96878 0.0
H1407 H 0.32315 0.68527 0.949 0.0
C1408 C 0.39064 0.59736 0.97018 0.0
C1409 C 0.42285 0.60341 0.95406 0.0
C1410 C 0.37359 0.60806 0.95759 0.0
C1411 C 0.38841 0.62514 0.92863 0.0
C1412 C 0.42035 0.63034 0.91199 0.0
C1413 C 0.43738 0.61956 0.92456 0.0
C1414 C 0.35554 0.64451 0.869 0.0
C1415 C 0.3374 0.66355 0.89346 0.0
C1416 C 0.37212 0.63206 0.88035 0.0
C1417 C 0.37089 0.63834 0.9164 0.0
C1418 C 0.35297 0.65765 0.94083 0.0
C1419 C 0.33644 0.67011 0.92949 0.0
H1420 H 0.13286 0.59846 0.55127 0.0
H1421 H 0.07086 0.5137 0.61411 0.0
H1422 H 0.16894 0.63892 0.59565 0.0
H1423 H 0.10477 0.55506 0.6598 0.0
H1424 H 0.18544 0.61262 0.7231 0.0
H1425 H 0.15124 0.57475 0.67776 0.0
H1426 H 0.18263 0.68139 0.64822 0.0
H1427 H 0.21921 0.71867 0.69233 0.0
C1428 C 0.12672 0.58878 0.57489 0.0
C1429 C 0.09927 0.5526 0.57896 0.0
C1430 C 0.14731 0.61218 0.60067 0.0
C1431 C 0.14056 0.60054 0.63172 0.0
C1432 C 0.11207 0.5649 0.63607 0.0
C1433 C 0.09216 0.5411 0.6099 0.0
C1434 C 0.18511 0.62799 0.70684 0.0
C1435 C 0.20501 0.66872 0.71144 0.0
C1436 C 0.16501 0.60622 0.68084 0.0
C1437 C 0.16317 0.62452 0.65905 0.0
C1438 C 0.18328 0.66562 0.66379 0.0
C1439 C 0.20421 0.6873 0.68935 0.0
H1440 H 0.39075 0.34069 0.70182 0.0
H1441 H 0.32058 0.25701 0.63156 0.0
H1442 H 0.42771 0.37377 0.6554 0.0
H1443 H 0.35768 0.29106 0.58462 0.0
H1444 H 0.44861 0.35585 0.50385 0.0
H1445 H 0.41322 0.31295 0.54474 0.0
H1446 H 0.42307 0.41529 0.63013 0.0
H1447 H 0.45829 0.45753 0.5899 0.0
C1448 C 0.38344 0.32902 0.67616 0.0
C1449 C 0.35263 0.29655 0.6704 0.0
C1450 C 0.40455 0.34818 0.6496 0.0
C1451 C 0.3953 0.33573 0.61655 0.0
C1452 C 0.36548 0.30144 0.60984 0.0
C1453 C 0.34428 0.28188 0.63662 0.0
C1454 C 0.44308 0.36897 0.53138 0.0
C1455 C 0.45638 0.41003 0.54372 0.0
C1456 C 0.42277 0.34445 0.55473 0.0
C1457 C 0.41569 0.36069 0.59079 0.0
C1458 C 0.42859 0.40175 0.60271 0.0
C1459 C 0.44865 0.42603 0.57956 0.0
H1460 H 0.24761 0.73087 0.14614 0.0
H1461 H 0.19304 0.63039 0.19178 0.0
H1462 H 0.2132 0.69489 0.09988 0.0
H1463 H 0.15833 0.59498 0.14605 0.0
H1464 H 0.0799 0.57507 0.08665 0.0
H1465 H 0.11629 0.60906 0.13053 0.0
H1466 H 0.20084 0.62824 0.048 0.0
H1467 H 0.16417 0.59246 1.00378 0.0
C1468 C 0.22827 0.70119 0.14633 0.0
C1469 C 0.22298 0.6835 0.17263 0.0
C1470 C 0.20876 0.68058 0.11978 0.0
C1471 C 0.18316 0.64225 0.11951 0.0
C1472 C 0.17786 0.62457 0.14578 0.0
C1473 C 0.19778 0.64482 0.17185 0.0
C1474 C 0.10618 0.58593 0.07781 0.0
C1475 C 0.11915 0.58052 0.04179 0.0
C1476 C 0.12699 0.6055 0.10294 0.0
C1477 C 0.16131 0.62109 0.09259 0.0
C1478 C 0.17443 0.61648 0.05659 0.0
C1479 C 0.15349 0.59597 0.03137 0.0
H1480 H 0.706 0.35094 0.65073 0.0
H1481 H 0.72454 0.45247 0.73867 0.0
H1482 H 0.68085 0.37385 0.62678 0.0
H1483 H 0.69824 0.47452 0.71551 0.0
H1484 H 0.67481 0.52127 0.64909 0.0
H1485 H 0.70557 0.50033 0.66702 0.0
H1486 H 0.63036 0.37989 0.64214 0.0
H1487 H 0.60039 0.40062 0.62299 0.0
C1488 C 0.7048 0.3782 0.66485 0.0
C1489 C 0.71705 0.3998 0.69666 0.0
C1490 C 0.69016 0.39113 0.65132 0.0
C1491 C 0.6875 0.42591 0.66933 0.0
C1492 C 0.70023 0.44782 0.70085 0.0
C1493 C 0.71487 0.4349 0.71436 0.0
C1494 C 0.66518 0.49028 0.64695 0.0
C1495 C 0.63514 0.46258 0.63484 0.0
C1496 C 0.68258 0.47835 0.65754 0.0
C1497 C 0.67028 0.43849 0.65613 0.0
C1498 C 0.64064 0.41075 0.64322 0.0
C1499 C 0.62328 0.42267 0.63265 0.0
H1500 H 0.84451 0.57784 0.06528 0.0
H1501 H 0.88591 0.66725 0.15558 0.0
H1502 H 0.89834 0.58 0.03835 0.0
H1503 H 0.94003 0.67029 0.1285 0.0
H1504 H 0.98523 0.58311 0.1027 0.0
H1505 H 0.94928 0.61368 0.12273 0.0
H1506 H 0.95891 0.61729 0.01633 0.0
H1507 H 0.99479 0.5863 0.996 0.0
C1508 C 0.86552 0.59878 0.07862 0.0
C1509 C 0.86158 0.62163 0.11245 0.0
C1510 C 0.89626 0.60047 0.06322 0.0
C1511 C 0.92303 0.62523 0.08166 0.0
C1512 C 0.91957 0.6509 0.11408 0.0
C1513 C 0.88882 0.64894 0.12954 0.0
C1514 C 0.98039 0.59132 0.08371 0.0
C1515 C 0.99197 0.58145 0.04776 0.0
C1516 C 0.96018 0.60929 0.09522 0.0
C1517 C 0.95144 0.6176 0.07088 0.0
C1518 C 0.96536 0.61091 0.03538 0.0
C1519 C 0.98561 0.59296 0.02385 0.0
H1520 H 0.84918 0.50682 0.6473 0.0
H1521 H 0.86806 0.56318 0.56705 0.0
H1522 H 0.80271 0.52109 0.67729 0.0
H1523 H 0.82308 0.57879 0.59721 0.0
H1524 H 0.76683 0.6367 0.66332 0.0
H1525 H 0.77147 0.57697 0.62923 0.0
H1526 H 0.8194 0.5888 0.70827 0.0
H1527 H 0.81382 0.64725 0.74253 0.0
C1528 C 0.8424 0.5207 0.63535 0.0
C1529 C 0.86249 0.53503 0.60563 0.0
C1530 C 0.8159 0.52885 0.65241 0.0
C1531 C 0.81018 0.55249 0.64042 0.0
C1532 C 0.82685 0.56075 0.6074 0.0
C1533 C 0.8529 0.55201 0.59008 0.0
C1534 C 0.7778 0.62602 0.67364 0.0
C1535 C 0.79113 0.64732 0.70488 0.0
C1536 C 0.78008 0.5916 0.65431 0.0
C1537 C 0.79619 0.57842 0.66571 0.0
C1538 C 0.80653 0.59775 0.69873 0.0
C1539 C 0.80397 0.63186 0.71815 0.0
H1540 H 0.46952 0.56576 0.34146 0.0
H1541 H 0.38248 0.5106 0.41385 0.0
H1542 H 0.43969 0.58643 0.3221 0.0
H1543 H 0.3524 0.53088 0.39392 0.0
H1544 H 0.30392 0.54057 0.31922 0.0
H1545 H 0.33209 0.5188 0.34015 0.0
H1546 H 0.41639 0.63354 0.34801 0.0
H1547 H 0.38836 0.6557 0.32748 0.0
C1548 C 0.44407 0.5583 0.35343 0.0
C1549 C 0.42848 0.53699 0.37952 0.0
C1550 C 0.42701 0.5701 0.3423 0.0
C1551 C 0.3939 0.56068 0.35683 0.0
C1552 C 0.37792 0.53844 0.38223 0.0
C1553 C 0.3951 0.52678 0.39355 0.0
C1554 C 0.32829 0.56134 0.32586 0.0
C1555 C 0.344 0.59985 0.32151 0.0
C1556 C 0.34433 0.54879 0.33781 0.0
C1557 C 0.37635 0.57437 0.34552 0.0
C1558 C 0.39187 0.61299 0.34169 0.0
C1559 C 0.37585 0.62564 0.32987 0.0
H1560 H 0.22961 0.44424 0.96994 0.0
H1561 H 0.19345 0.33905 0.88747 0.0
H1562 H 0.17602 0.4439 0.98465 0.0
H1563 H 0.14034 0.33958 0.90134 0.0
H1564 H 0.07098 0.41854 0.01324 0.0
H1565 H 0.10752 0.38991 1.00069 0.0
H1566 H 0.14021 0.40832 0.89587 0.0
H1567 H 0.10411 0.43827 0.90847 0.0
C1568 C 0.20971 0.42028 0.95613 0.0
C1569 C 0.21501 0.39135 0.92823 0.0
C1570 C 0.17933 0.42008 0.9643 0.0
C1571 C 0.15457 0.39152 0.94401 0.0
C1572 C 0.15922 0.36139 0.91736 0.0
C1573 C 0.18931 0.36103 0.90975 0.0
C1574 C 0.0854 0.41579 0.98719 0.0
C1575 C 0.08571 0.43172 0.96206 0.0
C1576 C 0.10591 0.39902 0.98008 0.0
C1577 C 0.12636 0.39735 0.9476 0.0
C1578 C 0.12416 0.40927 0.92105 0.0
C1579 C 0.1038 0.42653 0.92829 0.0
H1580 H 0.30241 0.38871 0.27041 0.0
H1581 H 0.27236 0.36213 0.3717 0.0
H1582 H 0.29892 0.45009 0.29796 0.0
H1583 H 0.26694 0.42193 0.39911 0.0
H1584 H 0.20057 0.46123 0.34256 0.0
H1585 H 0.24736 0.44889 0.3153 0.0
H1586 H 0.27672 0.48801 0.41676 0.0
H1587 H 0.22835 0.49902 0.44435 0.0
C1588 C 0.29546 0.39637 0.29868 0.0
C1589 C 0.28617 0.37022 0.31895 0.0
C1590 C 0.29375 0.4316 0.31448 0.0
C1591 C 0.28146 0.4403 0.35051 0.0
C1592 C 0.27638 0.41636 0.37126 0.0
C1593 C 0.2789 0.3816 0.35554 0.0
C1594 C 0.21789 0.46913 0.35889 0.0
C1595 C 0.21038 0.47962 0.39556 0.0
C1596 C 0.24505 0.46221 0.34322 0.0
C1597 C 0.26498 0.46572 0.36413 0.0
C1598 C 0.26097 0.48356 0.40019 0.0
C1599 C 0.23341 0.48993 0.41597 0.0
loop_
_geom_bond_atom_site_label_1
_geom_bond_atom_site_label_2
_geom_bond_distance
_geom_bond_site_symmetry_2
_ccdc_geom_bond_type
Pr0 C2 2.880 . S
Pr0 O20 2.562 1_545 S
Pr0 O21 2.490 . S
Pr0 O22 2.695 1_554 S
Pr0 O23 2.512 1_554 S
Pr0 O25 2.437 1_544 S
Pr0 O28 2.436 1_445 S
Pr0 O30 2.438 . S
Pr1 C11 2.880 1_565 S
Pr1 O22 2.436 1_665 S
Pr1 O24 2.445 . S
Pr1 O26 2.562 1_565 S
Pr1 O27 2.490 . S
Pr1 O28 2.695 1_556 S
Pr1 O29 2.512 1_556 S
Pr1 O31 2.437 1_566 S
C2 Pr0 2.880 . S
C2 C3 1.491 1_545 S
C2 O20 1.254 1_545 S
C2 O21 1.225 . S
C3 C2 1.491 1_565 S
C3 C4 1.392 1_565 S
C3 C8 1.356 . S
C4 C3 1.392 1_545 S
C4 C5 1.368 . S
C4 H32 0.929 . S
C5 C4 1.368 . S
C5 C6 1.386 1_545 S
C5 H33 0.929 . S
C6 C5 1.386 1_565 S
C6 C7 1.373 . S
C7 C6 1.373 . S
C7 C8 1.409 . S
C7 H34 0.931 . S
C8 C3 1.356 . S
C8 C7 1.409 . S
C8 H35 0.930 . S
C9 O22 1.270 . S
C9 O23 1.248 . S
C10 O24 1.259 1_455 S
C10 O25 1.278 . S
C11 Pr1 2.880 1_545 S
C11 C12 1.491 . S
C11 O26 1.254 . S
C11 O27 1.225 1_545 S
C12 C11 1.491 . S
C12 C13 1.392 1_545 S
C12 C17 1.356 . S
C13 C12 1.392 1_565 S
C13 C14 1.368 . S
C13 H36 0.929 . S
C14 C13 1.368 . S
C14 C15 1.386 1_565 S
C14 H37 0.929 . S
C15 C14 1.386 1_545 S
C15 C16 1.373 . S
C16 C15 1.373 . S
C16 C17 1.409 . S
C16 H38 0.931 . S
C17 C12 1.356 . S
C17 C16 1.409 . S
C17 H39 0.930 . S
C18 O28 1.270 . S
C18 O29 1.248 . S
C19 O30 1.267 1_655 S
C19 O31 1.278 . S
O20 Pr0 2.562 1_565 S
O20 C2 1.254 1_565 S
O21 Pr0 2.490 . S
O21 C2 1.225 . S
O22 Pr0 2.695 1_556 S
O22 Pr1 2.436 1_445 S
O22 C9 1.270 . S
O23 Pr0 2.512 1_556 S
O23 C9 1.248 . S
O24 Pr1 2.445 . S
O24 C10 1.259 1_655 S
O25 Pr0 2.437 1_566 S
O25 C10 1.278 . S
O26 Pr1 2.562 1_545 S
O26 C11 1.254 . S
O27 Pr1 2.490 . S
O27 C11 1.225 1_565 S
O28 Pr0 2.436 1_665 S
O28 Pr1 2.695 1_554 S
O28 C18 1.270 . S
O29 Pr1 2.512 1_554 S
O29 C18 1.248 . S
O30 Pr0 2.438 . S
O30 C19 1.267 1_455 S
O31 Pr1 2.437 1_544 S
O31 C19 1.278 . S
H32 C4 0.929 . S
H33 C5 0.929 . S
H34 C7 0.931 . S
H35 C8 0.930 . S
H36 C13 0.929 . S
H37 C14 0.929 . S
H38 C16 0.931 . S
H39 C17 0.930 . S
Pr40 C42 2.880 . S
Pr40 O60 2.562 . S
Pr40 O61 2.490 . S
Pr40 O62 2.695 . S
Pr40 O63 2.512 . S
Pr40 O65 2.437 . S
Pr40 O68 2.436 . S
Pr40 O70 2.438 . S
Pr41 C51 2.880 . S
Pr41 O62 2.436 . S
Pr41 O64 2.438 . S
Pr41 O66 2.562 . S
Pr41 O67 2.490 . S
Pr41 O68 2.695 . S
Pr41 O69 2.512 . S
Pr41 O71 2.437 . S
C42 Pr40 2.880 . S
C42 C43 1.491 . S
C42 O60 1.254 . S
C42 O61 1.225 . S
C43 C42 1.491 . S
C43 C44 1.392 . S
C43 C48 1.356 . S
C44 C43 1.392 . S
C44 C45 1.368 . S
C44 H72 0.929 . S
C45 C44 1.368 . S
C45 C46 1.386 . S
C45 H73 0.929 . S
C46 C45 1.386 . S
C46 C47 1.373 . S
C47 C46 1.373 . S
C47 C48 1.409 . S
C47 H74 0.931 . S
C48 C43 1.356 . S
C48 C47 1.409 . S
C48 H75 0.930 . S
C49 O62 1.270 . S
C49 O63 1.248 . S
C50 O64 1.267 . S
C50 O65 1.278 . S
C51 Pr41 2.880 . S
C51 C52 1.491 . S
C51 O66 1.254 . S
C51 O67 1.225 . S
C52 C51 1.491 . S
C52 C53 1.392 . S
C52 C57 1.356 . S
C53 C52 1.392 . S
C53 C54 1.368 . S
C53 H76 0.929 . S
C54 C53 1.368 . S
C54 C55 1.386 . S
C54 H77 0.929 . S
C55 C54 1.386 . S
C55 C56 1.373 . S
C56 C55 1.373 . S
C56 C57 1.409 . S
C56 H78 0.931 . S
C57 C52 1.356 . S
C57 C56 1.409 . S
C57 H79 0.930 . S
C58 O68 1.270 . S
C58 O69 1.248 . S
C59 O70 1.267 . S
C59 O71 1.278 . S
O60 Pr40 2.562 . S
O60 C42 1.254 . S
O61 Pr40 2.490 . S
O61 C42 1.225 . S
O62 Pr40 2.695 . S
O62 Pr41 2.436 . S
O62 C49 1.270 . S
O63 Pr40 2.512 . S
O63 C49 1.248 . S
O64 Pr41 2.438 . S
O64 C50 1.267 . S
O65 Pr40 2.437 . S
O65 C50 1.278 . S
O66 Pr41 2.562 . S
O66 C51 1.254 . S
O67 Pr41 2.490 . S
O67 C51 1.225 . S
O68 Pr40 2.436 . S
O68 Pr41 2.695 . S
O68 C58 1.270 . S
O69 Pr41 2.512 . S
O69 C58 1.248 . S
O70 Pr40 2.438 . S
O70 C59 1.267 . S
O71 Pr41 2.437 . S
O71 C59 1.278 . S
H72 C44 0.929 . S
H73 C45 0.929 . S
H74 C47 0.931 . S
H75 C48 0.930 . S
H76 C53 0.929 . S
H77 C54 0.929 . S
H78 C56 0.931 . S
H79 C57 0.930 . S
Pr80 C82 2.880 . S
Pr80 O100 2.562 . S
Pr80 O101 2.490 . S
Pr80 O102 2.695 . S
Pr80 O103 2.512 . S
Pr80 O105 2.437 . S
Pr80 O108 2.436 1_545 S
Pr80 O110 2.438 . S
Pr81 C91 2.880 . S
Pr81 O102 2.436 1_565 S
Pr81 O104 2.404 1_565 S
Pr81 O106 2.562 . S
Pr81 O107 2.490 . S
Pr81 O108 2.695 . S
Pr81 O109 2.512 . S
Pr81 O111 2.437 . S
C82 Pr80 2.880 . S
C82 C83 1.491 . S
C82 O100 1.254 . S
C82 O101 1.225 . S
C83 C82 1.491 . S
C83 C84 1.392 . S
C83 C88 1.356 . S
C84 C83 1.392 . S
C84 C85 1.368 . S
C84 H112 0.929 . S
C85 C84 1.368 . S
C85 C86 1.386 . S
C85 H113 0.929 . S
C86 C85 1.386 . S
C86 C87 1.373 . S
C87 C86 1.373 . S
C87 C88 1.409 . S
C87 H114 0.931 . S
C88 C83 1.356 . S
C88 C87 1.409 . S
C88 H115 0.930 . S
C89 O102 1.270 . S
C89 O103 1.248 . S
C90 O104 1.303 . S
C90 O105 1.278 . S
C91 Pr81 2.880 . S
C91 C92 1.491 . S
C91 O106 1.254 . S
C91 O107 1.225 . S
C92 C91 1.491 . S
C92 C93 1.392 . S
C92 C97 1.356 . S
C93 C92 1.392 . S
C93 C94 1.368 . S
C93 H116 0.929 . S
C94 C93 1.368 . S
C94 C95 1.386 . S
C94 H117 0.929 . S
C95 C94 1.386 . S
C95 C96 1.373 . S
C96 C95 1.373 . S
C96 C97 1.409 . S
C96 H118 0.931 . S
C97 C92 1.356 . S
C97 C96 1.409 . S
C97 H119 0.930 . S
C98 O108 1.270 . S
C98 O109 1.248 . S
C99 O110 1.267 1_565 S
C99 O111 1.278 . S
O100 Pr80 2.562 . S
O100 C82 1.254 . S
O101 Pr80 2.490 . S
O101 C82 1.225 . S
O102 Pr80 2.695 . S
O102 Pr81 2.436 1_545 S
O102 C89 1.270 . S
O103 Pr80 2.512 . S
O103 C89 1.248 . S
O104 Pr81 2.404 1_545 S
O104 C90 1.303 . S
O105 Pr80 2.437 . S
O105 C90 1.278 . S
O106 Pr81 2.562 . S
O106 C91 1.254 . S
O107 Pr81 2.490 . S
O107 C91 1.225 . S
O108 Pr80 2.436 1_565 S
O108 Pr81 2.695 . S
O108 C98 1.270 . S
O109 Pr81 2.512 . S
O109 C98 1.248 . S
O110 Pr80 2.438 . S
O110 C99 1.267 1_545 S
O111 Pr81 2.437 . S
O111 C99 1.278 . S
H112 C84 0.929 . S
H113 C85 0.929 . S
H114 C87 0.931 . S
H115 C88 0.930 . S
H116 C93 0.929 . S
H117 C94 0.929 . S
H118 C96 0.931 . S
H119 C97 0.930 . S
Pr120 C122 2.880 . S
Pr120 O140 2.562 . S
Pr120 O141 2.490 . S
Pr120 O142 2.695 . S
Pr120 O143 2.512 . S
Pr120 O145 2.437 . S
Pr120 O148 2.436 . S
Pr120 O150 2.438 . S
Pr121 C131 2.880 . S
Pr121 O142 2.436 . S
Pr121 O144 2.438 . S
Pr121 O146 2.562 . S
Pr121 O147 2.490 . S
Pr121 O148 2.695 . S
Pr121 O149 2.512 . S
Pr121 O151 2.437 . S
C122 Pr120 2.880 . S
C122 C123 1.491 . S
C122 O140 1.254 . S
C122 O141 1.225 . S
C123 C122 1.491 . S
C123 C124 1.392 . S
C123 C128 1.356 . S
C124 C123 1.392 . S
C124 C125 1.368 . S
C124 H152 0.929 . S
C125 C124 1.368 . S
C125 C126 1.386 . S
C125 H153 0.929 . S
C126 C125 1.386 . S
C126 C127 1.373 . S
C127 C126 1.373 . S
C127 C128 1.409 . S
C127 H154 0.931 . S
C128 C123 1.356 . S
C128 C127 1.409 . S
C128 H155 0.930 . S
C129 O142 1.270 . S
C129 O143 1.248 . S
C130 O144 1.267 . S
C130 O145 1.278 . S
C131 Pr121 2.880 . S
C131 C132 1.491 . S
C131 O146 1.254 . S
C131 O147 1.225 . S
C132 C131 1.491 . S
C132 C133 1.392 . S
C132 C137 1.356 . S
C133 C132 1.392 . S
C133 C134 1.368 . S
C133 H156 0.929 . S
C134 C133 1.368 . S
C134 C135 1.386 . S
C134 H157 0.929 . S
C135 C134 1.386 . S
C135 C136 1.373 . S
C136 C135 1.373 . S
C136 C137 1.409 . S
C136 H158 0.931 . S
C137 C132 1.356 . S
C137 C136 1.409 . S
C137 H159 0.930 . S
C138 O148 1.270 . S
C138 O149 1.248 . S
C139 O150 1.267 . S
C139 O151 1.278 . S
O140 Pr120 2.562 . S
O140 C122 1.254 . S
O141 Pr120 2.490 . S
O141 C122 1.225 . S
O142 Pr120 2.695 . S
O142 Pr121 2.436 . S
O142 C129 1.270 . S
O143 Pr120 2.512 . S
O143 C129 1.248 . S
O144 Pr121 2.438 . S
O144 C130 1.267 . S
O145 Pr120 2.437 . S
O145 C130 1.278 . S
O146 Pr121 2.562 . S
O146 C131 1.254 . S
O147 Pr121 2.490 . S
O147 C131 1.225 . S
O148 Pr120 2.436 . S
O148 Pr121 2.695 . S
O148 C138 1.270 . S
O149 Pr121 2.512 . S
O149 C138 1.248 . S
O150 Pr120 2.438 . S
O150 C139 1.267 . S
O151 Pr121 2.437 . S
O151 C139 1.278 . S
H152 C124 0.929 . S
H153 C125 0.929 . S
H154 C127 0.931 . S
H155 C128 0.930 . S
H156 C133 0.929 . S
H157 C134 0.929 . S
H158 C136 0.931 . S
H159 C137 0.930 . S
Pr160 C162 2.880 . S
Pr160 O180 2.562 . S
Pr160 O181 2.490 . S
Pr160 O182 2.695 1_545 S
Pr160 O183 2.512 1_545 S
Pr160 O185 2.437 1_545 S
Pr160 O188 2.436 1_655 S
Pr160 O190 2.438 1_655 S
Pr161 C171 2.880 . S
Pr161 O182 2.436 1_455 S
Pr161 O184 2.438 1_455 S
Pr161 O186 2.562 . S
Pr161 O187 2.490 . S
Pr161 O188 2.695 1_565 S
Pr161 O189 2.512 1_565 S
Pr161 O191 2.437 1_565 S
C162 Pr160 2.880 . S
C162 C163 1.491 . S
C162 O180 1.254 . S
C162 O181 1.225 . S
C163 C162 1.491 . S
C163 C164 1.392 . S
C163 C168 1.356 . S
C164 C163 1.392 . S
C164 C165 1.368 . S
C164 H192 0.929 . S
C165 C164 1.368 . S
C165 C166 1.386 . S
C165 H193 0.929 . S
C166 C165 1.386 . S
C166 C167 1.373 . S
C167 C166 1.373 . S
C167 C168 1.409 . S
C167 H194 0.931 . S
C168 C163 1.356 . S
C168 C167 1.409 . S
C168 H195 0.930 . S
C169 O182 1.270 . S
C169 O183 1.248 . S
C170 O184 1.267 . S
C170 O185 1.278 . S
C171 Pr161 2.880 . S
C171 C172 1.491 . S
C171 O186 1.254 . S
C171 O187 1.225 . S
C172 C171 1.491 . S
C172 C173 1.392 . S
C172 C177 1.356 . S
C173 C172 1.392 . S
C173 C174 1.368 . S
C173 H196 0.929 . S
C174 C173 1.368 . S
C174 C175 1.386 . S
C174 H197 0.929 . S
C175 C174 1.386 . S
C175 C176 1.373 . S
C176 C175 1.373 . S
C176 C177 1.409 . S
C176 H198 0.931 . S
C177 C172 1.356 . S
C177 C176 1.409 . S
C177 H199 0.930 . S
C178 O188 1.270 . S
C178 O189 1.248 . S
C179 O190 1.267 . S
C179 O191 1.278 . S
O180 Pr160 2.562 . S
O180 C162 1.254 . S
O181 Pr160 2.490 . S
O181 C162 1.225 . S
O182 Pr160 2.695 1_565 S
O182 Pr161 2.436 1_655 S
O182 C169 1.270 . S
O183 Pr160 2.512 1_565 S
O183 C169 1.248 . S
O184 Pr161 2.438 1_655 S
O184 C170 1.267 . S
O185 Pr160 2.437 1_565 S
O185 C170 1.278 . S
O186 Pr161 2.562 . S
O186 C171 1.254 . S
O187 Pr161 2.490 . S
O187 C171 1.225 . S
O188 Pr160 2.436 1_455 S
O188 Pr161 2.695 1_545 S
O188 C178 1.270 . S
O189 Pr161 2.512 1_545 S
O189 C178 1.248 . S
O190 Pr160 2.438 1_455 S
O190 C179 1.267 . S
O191 Pr161 2.437 1_545 S
O191 C179 1.278 . S
H192 C164 0.929 . S
H193 C165 0.929 . S
H194 C167 0.931 . S
H195 C168 0.930 . S
H196 C173 0.929 . S
H197 C174 0.929 . S
H198 C176 0.931 . S
H199 C177 0.930 . S
Pr200 C202 2.880 . S
Pr200 O220 2.562 . S
Pr200 O221 2.490 . S
Pr200 O222 2.695 . S
Pr200 O223 2.512 . S
Pr200 O225 2.437 . S
Pr200 O228 2.436 . S
Pr200 O230 2.438 . S
Pr201 C211 2.880 . S
Pr201 O222 2.436 . S
Pr201 O224 2.438 . S
Pr201 O226 2.562 . S
Pr201 O227 2.490 . S
Pr201 O228 2.695 . S
Pr201 O229 2.512 . S
Pr201 O231 2.437 . S
C202 Pr200 2.880 . S
C202 C203 1.491 . S
C202 O220 1.254 . S
C202 O221 1.225 . S
C203 C202 1.491 . S
C203 C204 1.392 . S
C203 C208 1.356 . S
C204 C203 1.392 . S
C204 C205 1.368 . S
C204 H232 0.929 . S
C205 C204 1.368 . S
C205 C206 1.386 . S
C205 H233 0.929 . S
C206 C205 1.386 . S
C206 C207 1.373 . S
C207 C206 1.373 . S
C207 C208 1.409 . S
C207 H234 0.931 . S
C208 C203 1.356 . S
C208 C207 1.409 . S
C208 H235 0.930 . S
C209 O222 1.270 . S
C209 O223 1.248 . S
C210 O224 1.267 . S
C210 O225 1.278 . S
C211 Pr201 2.880 . S
C211 C212 1.491 . S
C211 O226 1.254 . S
C211 O227 1.225 . S
C212 C211 1.491 . S
C212 C213 1.392 . S
C212 C217 1.356 . S
C213 C212 1.392 . S
C213 C214 1.368 . S
C213 H236 0.929 . S
C214 C213 1.368 . S
C214 C215 1.386 . S
C214 H237 0.929 . S
C215 C214 1.386 . S
C215 C216 1.373 . S
C216 C215 1.373 . S
C216 C217 1.409 . S
C216 H238 0.931 . S
C217 C212 1.356 . S
C217 C216 1.409 . S
C217 H239 0.930 . S
C218 O228 1.270 . S
C218 O229 1.248 . S
C219 O230 1.267 . S
C219 O231 1.278 . S
O220 Pr200 2.562 . S
O220 C202 1.254 . S
O221 Pr200 2.490 . S
O221 C202 1.225 . S
O222 Pr200 2.695 . S
O222 Pr201 2.436 . S
O222 C209 1.270 . S
O223 Pr200 2.512 . S
O223 C209 1.248 . S
O224 Pr201 2.438 . S
O224 C210 1.267 . S
O225 Pr200 2.437 . S
O225 C210 1.278 . S
O226 Pr201 2.562 . S
O226 C211 1.254 . S
O227 Pr201 2.490 . S
O227 C211 1.225 . S
O228 Pr200 2.436 . S
O228 Pr201 2.695 . S
O228 C218 1.270 . S
O229 Pr201 2.512 . S
O229 C218 1.248 . S
O230 Pr200 2.438 . S
O230 C219 1.267 . S
O231 Pr201 2.437 . S
O231 C219 1.278 . S
H232 C204 0.929 . S
H233 C205 0.929 . S
H234 C207 0.931 . S
H235 C208 0.930 . S
H236 C213 0.929 . S
H237 C214 0.929 . S
H238 C216 0.931 . S
H239 C217 0.930 . S
Pr240 C242 2.880 . S
Pr240 O260 2.562 . S
Pr240 O261 2.490 . S
Pr240 O262 2.695 1_566 S
Pr240 O263 2.512 1_566 S
Pr240 O265 2.437 1_565 S
Pr240 O268 2.436 . S
Pr240 O270 2.438 1_556 S
Pr241 C251 2.880 . S
Pr241 O262 2.436 . S
Pr241 O264 2.438 1_554 S
Pr241 O266 2.562 . S
Pr241 O267 2.490 . S
Pr241 O268 2.695 1_544 S
Pr241 O269 2.512 1_544 S
Pr241 O271 2.437 1_545 S
C242 Pr240 2.880 . S
C242 C243 1.491 . S
C242 O260 1.254 . S
C242 O261 1.225 . S
C243 C242 1.491 . S
C243 C244 1.392 . S
C243 C248 1.356 . S
C244 C243 1.392 . S
C244 C245 1.368 . S
C244 H272 0.929 . S
C245 C244 1.368 . S
C245 C246 1.386 . S
C245 H273 0.929 . S
C246 C245 1.386 . S
C246 C247 1.373 . S
C247 C246 1.373 . S
C247 C248 1.409 . S
C247 H274 0.931 . S
C248 C243 1.356 . S
C248 C247 1.409 . S
C248 H275 0.930 . S
C249 O262 1.270 . S
C249 O263 1.248 . S
C250 O264 1.267 . S
C250 O265 1.278 . S
C251 Pr241 2.880 . S
C251 C252 1.491 . S
C251 O266 1.254 . S
C251 O267 1.225 . S
C252 C251 1.491 . S
C252 C253 1.392 . S
C252 C257 1.356 . S
C253 C252 1.392 . S
C253 C254 1.368 . S
C253 H276 0.929 . S
C254 C253 1.368 . S
C254 C255 1.386 . S
C254 H277 0.929 . S
C255 C254 1.386 . S
C255 C256 1.373 . S
C256 C255 1.373 . S
C256 C257 1.409 . S
C256 H278 0.931 . S
C257 C252 1.356 . S
C257 C256 1.409 . S
C257 H279 0.930 . S
C258 O268 1.270 . S
C258 O269 1.248 . S
C259 O270 1.267 . S
C259 O271 1.278 . S
O260 Pr240 2.562 . S
O260 C242 1.254 . S
O261 Pr240 2.490 . S
O261 C242 1.225 . S
O262 Pr240 2.695 1_544 S
O262 Pr241 2.436 . S
O262 C249 1.270 . S
O263 Pr240 2.512 1_544 S
O263 C249 1.248 . S
O264 Pr241 2.438 1_556 S
O264 C250 1.267 . S
O265 Pr240 2.437 1_545 S
O265 C250 1.278 . S
O266 Pr241 2.562 . S
O266 C251 1.254 . S
O267 Pr241 2.490 . S
O267 C251 1.225 . S
O268 Pr240 2.436 . S
O268 Pr241 2.695 1_566 S
O268 C258 1.270 . S
O269 Pr241 2.512 1_566 S
O269 C258 1.248 . S
O270 Pr240 2.438 1_554 S
O270 C259 1.267 . S
O271 Pr241 2.437 1_565 S
O271 C259 1.278 . S
H272 C244 0.929 . S
H273 C245 0.929 . S
H274 C247 0.931 . S
H275 C248 0.930 . S
H276 C253 0.929 . S
H277 C254 0.929 . S
H278 C256 0.931 . S
H279 C257 0.930 . S
Pr280 C282 2.880 . S
Pr280 O300 2.562 . S
Pr280 O301 2.490 . S
Pr280 O302 2.695 . S
Pr280 O303 2.512 . S
Pr280 O305 2.437 . S
Pr280 O308 2.436 . S
Pr280 O310 2.438 . S
Pr281 C291 2.880 . S
Pr281 O302 2.436 . S
Pr281 O304 2.438 . S
Pr281 O306 2.562 . S
Pr281 O307 2.490 . S
Pr281 O308 2.695 . S
Pr281 O309 2.512 . S
Pr281 O311 2.437 . S
C282 Pr280 2.880 . S
C282 C283 1.491 . S
C282 O300 1.254 . S
C282 O301 1.225 . S
C283 C282 1.491 . S
C283 C284 1.392 . S
C283 C288 1.356 . S
C284 C283 1.392 . S
C284 C285 1.368 . S
C284 H312 0.929 . S
C285 C284 1.368 . S
C285 C286 1.386 . S
C285 H313 0.929 . S
C286 C285 1.386 . S
C286 C287 1.373 . S
C287 C286 1.373 . S
C287 C288 1.409 . S
C287 H314 0.931 . S
C288 C283 1.356 . S
C288 C287 1.409 . S
C288 H315 0.930 . S
C289 O302 1.270 . S
C289 O303 1.248 . S
C290 O304 1.267 . S
C290 O305 1.278 . S
C291 Pr281 2.880 . S
C291 C292 1.491 . S
C291 O306 1.254 . S
C291 O307 1.225 . S
C292 C291 1.491 . S
C292 C293 1.392 . S
C292 C297 1.356 . S
C293 C292 1.392 . S
C293 C294 1.368 . S
C293 H316 0.929 . S
C294 C293 1.368 . S
C294 C295 1.386 . S
C294 H317 0.929 . S
C295 C294 1.386 . S
C295 C296 1.373 . S
C296 C295 1.373 . S
C296 C297 1.409 . S
C296 H318 0.931 . S
C297 C292 1.356 . S
C297 C296 1.409 . S
C297 H319 0.930 . S
C298 O308 1.270 . S
C298 O309 1.248 . S
C299 O310 1.267 . S
C299 O311 1.278 . S
O300 Pr280 2.562 . S
O300 C282 1.254 . S
O301 Pr280 2.490 . S
O301 C282 1.225 . S
O302 Pr280 2.695 . S
O302 Pr281 2.436 . S
O302 C289 1.270 . S
O303 Pr280 2.512 . S
O303 C289 1.248 . S
O304 Pr281 2.438 . S
O304 C290 1.267 . S
O305 Pr280 2.437 . S
O305 C290 1.278 . S
O306 Pr281 2.562 . S
O306 C291 1.254 . S
O307 Pr281 2.490 . S
O307 C291 1.225 . S
O308 Pr280 2.436 . S
O308 Pr281 2.695 . S
O308 C298 1.270 . S
O309 Pr281 2.512 . S
O309 C298 1.248 . S
O310 Pr280 2.438 . S
O310 C299 1.267 . S
O311 Pr281 2.437 . S
O311 C299 1.278 . S
H312 C284 0.929 . S
H313 C285 0.929 . S
H314 C287 0.931 . S
H315 C288 0.930 . S
H316 C293 0.929 . S
H317 C294 0.929 . S
H318 C296 0.931 . S
H319 C297 0.930 . S
Pr320 C322 2.880 1_554 S
Pr320 O340 2.562 1_554 S
Pr320 O341 2.490 . S
Pr320 O342 2.695 . S
Pr320 O343 2.512 . S
Pr320 O345 2.437 1_554 S
Pr320 O348 2.436 1_554 S
Pr320 O350 2.438 . S
Pr321 C331 2.880 1_556 S
Pr321 O342 2.436 1_556 S
Pr321 O344 2.438 . S
Pr321 O346 2.562 1_556 S
Pr321 O347 2.490 . S
Pr321 O348 2.695 . S
Pr321 O349 2.512 . S
Pr321 O351 2.437 1_556 S
C322 Pr320 2.880 1_556 S
C322 C323 1.491 . S
C322 O340 1.254 . S
C322 O341 1.225 1_556 S
C323 C322 1.491 . S
C323 C324 1.392 . S
C323 C328 1.356 . S
C324 C323 1.392 . S
C324 C325 1.368 . S
C324 H352 0.929 1_556 S
C325 C324 1.368 . S
C325 C326 1.386 . S
C325 H353 0.929 . S
C326 C325 1.386 . S
C326 C327 1.373 . S
C327 C326 1.373 . S
C327 C328 1.409 . S
C327 H354 0.931 . S
C328 C323 1.356 . S
C328 C327 1.409 . S
C328 H355 0.930 . S
C329 O342 1.270 . S
C329 O343 1.248 . S
C330 O344 1.267 . S
C330 O345 1.278 . S
C331 Pr321 2.880 1_554 S
C331 C332 1.491 . S
C331 O346 1.254 . S
C331 O347 1.225 1_554 S
C332 C331 1.491 . S
C332 C333 1.392 . S
C332 C337 1.356 . S
C333 C332 1.392 . S
C333 C334 1.368 . S
C333 H356 0.929 1_554 S
C334 C333 1.368 . S
C334 C335 1.386 . S
C334 H357 0.929 . S
C335 C334 1.386 . S
C335 C336 1.373 . S
C336 C335 1.373 . S
C336 C337 1.409 . S
C336 H358 0.931 . S
C337 C332 1.356 . S
C337 C336 1.409 . S
C337 H359 0.930 . S
C338 O348 1.270 . S
C338 O349 1.248 . S
C339 O350 1.267 . S
C339 O351 1.278 . S
O340 Pr320 2.562 1_556 S
O340 C322 1.254 . S
O341 Pr320 2.490 . S
O341 C322 1.225 1_554 S
O342 Pr320 2.695 . S
O342 Pr321 2.436 1_554 S
O342 C329 1.270 . S
O343 Pr320 2.512 . S
O343 C329 1.248 . S
O344 Pr321 2.438 . S
O344 C330 1.267 . S
O345 Pr320 2.437 1_556 S
O345 C330 1.278 . S
O346 Pr321 2.562 1_554 S
O346 C331 1.254 . S
O347 Pr321 2.490 . S
O347 C331 1.225 1_556 S
O348 Pr320 2.436 1_556 S
O348 Pr321 2.695 . S
O348 C338 1.270 . S
O349 Pr321 2.512 . S
O349 C338 1.248 . S
O350 Pr320 2.438 . S
O350 C339 1.267 . S
O351 Pr321 2.437 1_554 S
O351 C339 1.278 . S
H352 C324 0.929 1_554 S
H353 C325 0.929 . S
H354 C327 0.931 . S
H355 C328 0.930 . S
H356 C333 0.929 1_556 S
H357 C334 0.929 . S
H358 C336 0.931 . S
H359 C337 0.930 . S
Pr360 C362 2.880 . S
Pr360 O380 2.562 . S
Pr360 O381 2.490 . S
Pr360 O382 2.695 . S
Pr360 O383 2.512 . S
Pr360 O385 2.437 . S
Pr360 O388 2.436 . S
Pr360 O390 2.438 . S
Pr361 C371 2.880 . S
Pr361 O382 2.436 . S
Pr361 O384 2.438 . S
Pr361 O386 2.562 . S
Pr361 O387 2.490 . S
Pr361 O388 2.695 . S
Pr361 O389 2.512 . S
Pr361 O391 2.437 . S
C362 Pr360 2.880 . S
C362 C363 1.491 . S
C362 O380 1.254 . S
C362 O381 1.225 . S
C363 C362 1.491 . S
C363 C364 1.392 . S
C363 C368 1.356 . S
C364 C363 1.392 . S
C364 C365 1.368 . S
C364 H392 0.929 . S
C365 C364 1.368 . S
C365 C366 1.386 . S
C365 H393 0.929 . S
C366 C365 1.386 . S
C366 C367 1.373 . S
C367 C366 1.373 . S
C367 C368 1.409 . S
C367 H394 0.931 . S
C368 C363 1.356 . S
C368 C367 1.409 . S
C368 H395 0.930 . S
C369 O382 1.270 . S
C369 O383 1.248 . S
C370 O384 1.267 . S
C370 O385 1.278 . S
C371 Pr361 2.880 . S
C371 C372 1.491 . S
C371 O386 1.254 . S
C371 O387 1.225 . S
C372 C371 1.491 . S
C372 C373 1.392 . S
C372 C377 1.356 . S
C373 C372 1.392 . S
C373 C374 1.368 . S
C373 H396 0.929 . S
C374 C373 1.368 . S
C374 C375 1.386 . S
C374 H397 0.929 . S
C375 C374 1.386 . S
C375 C376 1.373 . S
C376 C375 1.373 . S
C376 C377 1.409 . S
C376 H398 0.931 . S
C377 C372 1.356 . S
C377 C376 1.409 . S
C377 H399 0.930 . S
C378 O388 1.270 . S
C378 O389 1.248 . S
C379 O390 1.267 . S
C379 O391 1.278 . S
O380 Pr360 2.562 . S
O380 C362 1.254 . S
O381 Pr360 2.490 . S
O381 C362 1.225 . S
O382 Pr360 2.695 . S
O382 Pr361 2.436 . S
O382 C369 1.270 . S
O383 Pr360 2.512 . S
O383 C369 1.248 . S
O384 Pr361 2.438 . S
O384 C370 1.267 . S
O385 Pr360 2.437 . S
O385 C370 1.278 . S
O386 Pr361 2.562 . S
O386 C371 1.254 . S
O387 Pr361 2.490 . S
O387 C371 1.225 . S
O388 Pr360 2.436 . S
O388 Pr361 2.695 . S
O388 C378 1.270 . S
O389 Pr361 2.512 . S
O389 C378 1.248 . S
O390 Pr360 2.438 . S
O390 C379 1.267 . S
O391 Pr361 2.437 . S
O391 C379 1.278 . S
H392 C364 0.929 . S
H393 C365 0.929 . S
H394 C367 0.931 . S
H395 C368 0.930 . S
H396 C373 0.929 . S
H397 C374 0.929 . S
H398 C376 0.931 . S
H399 C377 0.930 . S
Pr400 C402 2.880 . S
Pr400 O420 2.562 . S
Pr400 O421 2.490 . S
Pr400 O422 2.695 . S
Pr400 O423 2.512 . S
Pr400 O425 2.437 . S
Pr400 O428 2.436 1_455 S
Pr400 O430 2.438 1_455 S
Pr401 C411 2.880 . S
Pr401 O422 2.436 1_655 S
Pr401 O424 2.438 1_655 S
Pr401 O426 2.562 . S
Pr401 O427 2.490 . S
Pr401 O428 2.695 . S
Pr401 O429 2.512 . S
Pr401 O431 2.437 . S
C402 Pr400 2.880 . S
C402 C403 1.491 . S
C402 O420 1.254 . S
C402 O421 1.225 . S
C403 C402 1.491 . S
C403 C404 1.392 . S
C403 C408 1.356 . S
C404 C403 1.392 . S
C404 C405 1.368 . S
C404 H432 0.929 . S
C405 C404 1.368 . S
C405 C406 1.386 . S
C405 H433 0.929 . S
C406 C405 1.386 . S
C406 C407 1.373 . S
C407 C406 1.373 . S
C407 C408 1.409 . S
C407 H434 0.931 . S
C408 C403 1.356 . S
C408 C407 1.409 . S
C408 H435 0.930 . S
C409 O422 1.270 . S
C409 O423 1.248 . S
C410 O424 1.267 . S
C410 O425 1.278 . S
C411 Pr401 2.880 . S
C411 C412 1.491 . S
C411 O426 1.254 . S
C411 O427 1.225 . S
C412 C411 1.491 . S
C412 C413 1.392 . S
C412 C417 1.356 . S
C413 C412 1.392 . S
C413 C414 1.368 . S
C413 H436 0.929 . S
C414 C413 1.368 . S
C414 C415 1.386 . S
C414 H437 0.929 . S
C415 C414 1.386 . S
C415 C416 1.373 . S
C416 C415 1.373 . S
C416 C417 1.409 . S
C416 H438 0.931 . S
C417 C412 1.356 . S
C417 C416 1.409 . S
C417 H439 0.930 . S
C418 O428 1.270 . S
C418 O429 1.248 . S
C419 O430 1.267 . S
C419 O431 1.278 . S
O420 Pr400 2.562 . S
O420 C402 1.254 . S
O421 Pr400 2.490 . S
O421 C402 1.225 . S
O422 Pr400 2.695 . S
O422 Pr401 2.436 1_455 S
O422 C409 1.270 . S
O423 Pr400 2.512 . S
O423 C409 1.248 . S
O424 Pr401 2.438 1_455 S
O424 C410 1.267 . S
O425 Pr400 2.437 . S
O425 C410 1.278 . S
O426 Pr401 2.562 . S
O426 C411 1.254 . S
O427 Pr401 2.490 . S
O427 C411 1.225 . S
O428 Pr400 2.436 1_655 S
O428 Pr401 2.695 . S
O428 C418 1.270 . S
O429 Pr401 2.512 . S
O429 C418 1.248 . S
O430 Pr400 2.438 1_655 S
O430 C419 1.267 . S
O431 Pr401 2.437 . S
O431 C419 1.278 . S
H432 C404 0.929 . S
H433 C405 0.929 . S
H434 C407 0.931 . S
H435 C408 0.930 . S
H436 C413 0.929 . S
H437 C414 0.929 . S
H438 C416 0.931 . S
H439 C417 0.930 . S
Pr440 C442 2.880 . S
Pr440 O460 2.562 . S
Pr440 O461 2.490 . S
Pr440 O462 2.695 . S
Pr440 O463 2.512 . S
Pr440 O465 2.437 . S
Pr440 O468 2.436 . S
Pr440 O470 2.438 . S
Pr441 C451 2.880 . S
Pr441 O462 2.436 . S
Pr441 O464 2.438 . S
Pr441 O466 2.562 . S
Pr441 O467 2.490 . S
Pr441 O468 2.695 . S
Pr441 O469 2.512 . S
Pr441 O471 2.437 . S
C442 Pr440 2.880 . S
C442 C443 1.491 . S
C442 O460 1.254 . S
C442 O461 1.225 . S
C443 C442 1.491 . S
C443 C444 1.392 . S
C443 C448 1.356 . S
C444 C443 1.392 . S
C444 C445 1.368 . S
C444 H472 0.929 . S
C445 C444 1.368 . S
C445 C446 1.386 . S
C445 H473 0.929 . S
C446 C445 1.386 . S
C446 C447 1.373 . S
C447 C446 1.373 . S
C447 C448 1.409 . S
C447 H474 0.931 . S
C448 C443 1.356 . S
C448 C447 1.409 . S
C448 H475 0.930 . S
C449 O462 1.270 . S
C449 O463 1.248 . S
C450 O464 1.267 . S
C450 O465 1.278 . S
C451 Pr441 2.880 . S
C451 C452 1.491 . S
C451 O466 1.254 . S
C451 O467 1.225 . S
C452 C451 1.491 . S
C452 C453 1.392 . S
C452 C457 1.356 . S
C453 C452 1.392 . S
C453 C454 1.368 . S
C453 H476 0.929 . S
C454 C453 1.368 . S
C454 C455 1.386 . S
C454 H477 0.929 . S
C455 C454 1.386 . S
C455 C456 1.373 . S
C456 C455 1.373 . S
C456 C457 1.409 . S
C456 H478 0.931 . S
C457 C452 1.356 . S
C457 C456 1.409 . S
C457 H479 0.930 . S
C458 O468 1.270 . S
C458 O469 1.248 . S
C459 O470 1.267 . S
C459 O471 1.278 . S
O460 Pr440 2.562 . S
O460 C442 1.254 . S
O461 Pr440 2.490 . S
O461 C442 1.225 . S
O462 Pr440 2.695 . S
O462 Pr441 2.436 . S
O462 C449 1.270 . S
O463 Pr440 2.512 . S
O463 C449 1.248 . S
O464 Pr441 2.438 . S
O464 C450 1.267 . S
O465 Pr440 2.437 . S
O465 C450 1.278 . S
O466 Pr441 2.562 . S
O466 C451 1.254 . S
O467 Pr441 2.490 . S
O467 C451 1.225 . S
O468 Pr440 2.436 . S
O468 Pr441 2.695 . S
O468 C458 1.270 . S
O469 Pr441 2.512 . S
O469 C458 1.248 . S
O470 Pr440 2.438 . S
O470 C459 1.267 . S
O471 Pr441 2.437 . S
O471 C459 1.278 . S
H472 C444 0.929 . S
H473 C445 0.929 . S
H474 C447 0.931 . S
H475 C448 0.930 . S
H476 C453 0.929 . S
H477 C454 0.929 . S
H478 C456 0.931 . S
H479 C457 0.930 . S
Pr480 C482 2.880 . S
Pr480 O500 2.562 . S
Pr480 O501 2.490 . S
Pr480 O502 2.695 . S
Pr480 O503 2.512 . S
Pr480 O505 2.437 . S
Pr480 O508 2.436 . S
Pr480 O510 2.438 . S
Pr481 C491 2.880 . S
Pr481 O502 2.436 . S
Pr481 O504 2.438 . S
Pr481 O506 2.562 . S
Pr481 O507 2.490 . S
Pr481 O508 2.695 . S
Pr481 O509 2.512 . S
Pr481 O511 2.437 . S
C482 Pr480 2.880 . S
C482 C483 1.491 . S
C482 O500 1.254 . S
C482 O501 1.225 . S
C483 C482 1.491 . S
C483 C484 1.392 . S
C483 C488 1.356 . S
C484 C483 1.392 . S
C484 C485 1.368 . S
C484 H512 0.929 . S
C485 C484 1.368 . S
C485 C486 1.386 . S
C485 H513 0.929 . S
C486 C485 1.386 . S
C486 C487 1.373 . S
C487 C486 1.373 . S
C487 C488 1.409 . S
C487 H514 0.931 . S
C488 C483 1.356 . S
C488 C487 1.409 . S
C488 H515 0.930 . S
C489 O502 1.270 . S
C489 O503 1.248 . S
C490 O504 1.267 . S
C490 O505 1.278 . S
C491 Pr481 2.880 . S
C491 C492 1.491 . S
C491 O506 1.254 . S
C491 O507 1.225 . S
C492 C491 1.491 . S
C492 C493 1.392 . S
C492 C497 1.356 . S
C493 C492 1.392 . S
C493 C494 1.368 . S
C493 H516 0.929 . S
C494 C493 1.368 . S
C494 C495 1.386 . S
C494 H517 0.929 . S
C495 C494 1.386 . S
C495 C496 1.373 . S
C496 C495 1.373 . S
C496 C497 1.409 . S
C496 H518 0.931 . S
C497 C492 1.356 . S
C497 C496 1.409 . S
C497 H519 0.930 . S
C498 O508 1.270 . S
C498 O509 1.248 . S
C499 O510 1.267 . S
C499 O511 1.278 . S
O500 Pr480 2.562 . S
O500 C482 1.254 . S
O501 Pr480 2.490 . S
O501 C482 1.225 . S
O502 Pr480 2.695 . S
O502 Pr481 2.436 . S
O502 C489 1.270 . S
O503 Pr480 2.512 . S
O503 C489 1.248 . S
O504 Pr481 2.438 . S
O504 C490 1.267 . S
O505 Pr480 2.437 . S
O505 C490 1.278 . S
O506 Pr481 2.562 . S
O506 C491 1.254 . S
O507 Pr481 2.490 . S
O507 C491 1.225 . S
O508 Pr480 2.436 . S
O508 Pr481 2.695 . S
O508 C498 1.270 . S
O509 Pr481 2.512 . S
O509 C498 1.248 . S
O510 Pr480 2.438 . S
O510 C499 1.267 . S
O511 Pr481 2.437 . S
O511 C499 1.278 . S
H512 C484 0.929 . S
H513 C485 0.929 . S
H514 C487 0.931 . S
H515 C488 0.930 . S
H516 C493 0.929 . S
H517 C494 0.929 . S
H518 C496 0.931 . S
H519 C497 0.930 . S
Pr520 C522 2.880 . S
Pr520 O540 2.562 . S
Pr520 O541 2.490 . S
Pr520 O542 2.695 . S
Pr520 O543 2.512 . S
Pr520 O545 2.437 . S
Pr520 O548 2.436 . S
Pr520 O550 2.438 . S
Pr521 C531 2.880 . S
Pr521 O542 2.436 . S
Pr521 O544 2.438 . S
Pr521 O546 2.562 . S
Pr521 O547 2.490 . S
Pr521 O548 2.695 . S
Pr521 O549 2.512 . S
Pr521 O551 2.437 . S
C522 Pr520 2.880 . S
C522 C523 1.491 . S
C522 O540 1.254 . S
C522 O541 1.225 . S
C523 C522 1.491 . S
C523 C524 1.392 . S
C523 C528 1.356 . S
C524 C523 1.392 . S
C524 C525 1.368 . S
C524 H552 0.929 . S
C525 C524 1.368 . S
C525 C526 1.386 . S
C525 H553 0.929 . S
C526 C525 1.386 . S
C526 C527 1.373 . S
C527 C526 1.373 . S
C527 C528 1.409 . S
C527 H554 0.931 . S
C528 C523 1.356 . S
C528 C527 1.409 . S
C528 H555 0.930 . S
C529 O542 1.270 . S
C529 O543 1.248 . S
C530 O544 1.267 . S
C530 O545 1.278 . S
C531 Pr521 2.880 . S
C531 C532 1.491 . S
C531 O546 1.254 . S
C531 O547 1.225 . S
C532 C531 1.491 . S
C532 C533 1.392 . S
C532 C537 1.356 . S
C533 C532 1.392 . S
C533 C534 1.368 . S
C533 H556 0.929 . S
C534 C533 1.368 . S
C534 C535 1.386 . S
C534 H557 0.929 . S
C535 C534 1.386 . S
C535 C536 1.373 . S
C536 C535 1.373 . S
C536 C537 1.409 . S
C536 H558 0.931 . S
C537 C532 1.356 . S
C537 C536 1.409 . S
C537 H559 0.930 . S
C538 O548 1.270 . S
C538 O549 1.248 . S
C539 O550 1.267 . S
C539 O551 1.278 . S
O540 Pr520 2.562 . S
O540 C522 1.254 . S
O541 Pr520 2.490 . S
O541 C522 1.225 . S
O542 Pr520 2.695 . S
O542 Pr521 2.436 . S
O542 C529 1.270 . S
O543 Pr520 2.512 . S
O543 C529 1.248 . S
O544 Pr521 2.438 . S
O544 C530 1.267 . S
O545 Pr520 2.437 . S
O545 C530 1.278 . S
O546 Pr521 2.562 . S
O546 C531 1.254 . S
O547 Pr521 2.490 . S
O547 C531 1.225 . S
O548 Pr520 2.436 . S
O548 Pr521 2.695 . S
O548 C538 1.270 . S
O549 Pr521 2.512 . S
O549 C538 1.248 . S
O550 Pr520 2.438 . S
O550 C539 1.267 . S
O551 Pr521 2.437 . S
O551 C539 1.278 . S
H552 C524 0.929 . S
H553 C525 0.929 . S
H554 C527 0.931 . S
H555 C528 0.930 . S
H556 C533 0.929 . S
H557 C534 0.929 . S
H558 C536 0.931 . S
H559 C537 0.930 . S
Pr560 C562 2.880 . S
Pr560 O580 2.562 . S
Pr560 O581 2.490 . S
Pr560 O582 2.695 . S
Pr560 O583 2.512 . S
Pr560 O585 2.437 . S
Pr560 O588 2.436 . S
Pr560 O590 2.438 . S
Pr561 C571 2.880 . S
Pr561 O582 2.436 . S
Pr561 O584 2.438 . S
Pr561 O586 2.562 . S
Pr561 O587 2.490 . S
Pr561 O588 2.695 . S
Pr561 O589 2.512 . S
Pr561 O591 2.437 . S
C562 Pr560 2.880 . S
C562 C563 1.491 . S
C562 O580 1.254 . S
C562 O581 1.225 . S
C563 C562 1.491 . S
C563 C564 1.392 . S
C563 C568 1.356 . S
C564 C563 1.392 . S
C564 C565 1.368 . S
C564 H592 0.929 . S
C565 C564 1.368 . S
C565 C566 1.386 . S
C565 H593 0.929 . S
C566 C565 1.386 . S
C566 C567 1.373 . S
C567 C566 1.373 . S
C567 C568 1.409 . S
C567 H594 0.931 . S
C568 C563 1.356 . S
C568 C567 1.409 . S
C568 H595 0.930 . S
C569 O582 1.270 . S
C569 O583 1.248 . S
C570 O584 1.267 . S
C570 O585 1.278 . S
C571 Pr561 2.880 . S
C571 C572 1.491 . S
C571 O586 1.254 . S
C571 O587 1.225 . S
C572 C571 1.491 . S
C572 C573 1.392 . S
C572 C577 1.356 . S
C573 C572 1.392 . S
C573 C574 1.368 . S
C573 H596 0.929 . S
C574 C573 1.368 . S
C574 C575 1.386 . S
C574 H597 0.929 . S
C575 C574 1.386 . S
C575 C576 1.373 . S
C576 C575 1.373 . S
C576 C577 1.409 . S
C576 H598 0.931 . S
C577 C572 1.356 . S
C577 C576 1.409 . S
C577 H599 0.930 . S
C578 O588 1.270 . S
C578 O589 1.248 . S
C579 O590 1.267 . S
C579 O591 1.278 . S
O580 Pr560 2.562 . S
O580 C562 1.254 . S
O581 Pr560 2.490 . S
O581 C562 1.225 . S
O582 Pr560 2.695 . S
O582 Pr561 2.436 . S
O582 C569 1.270 . S
O583 Pr560 2.512 . S
O583 C569 1.248 . S
O584 Pr561 2.438 . S
O584 C570 1.267 . S
O585 Pr560 2.437 . S
O585 C570 1.278 . S
O586 Pr561 2.562 . S
O586 C571 1.254 . S
O587 Pr561 2.490 . S
O587 C571 1.225 . S
O588 Pr560 2.436 . S
O588 Pr561 2.695 . S
O588 C578 1.270 . S
O589 Pr561 2.512 . S
O589 C578 1.248 . S
O590 Pr560 2.438 . S
O590 C579 1.267 . S
O591 Pr561 2.437 . S
O591 C579 1.278 . S
H592 C564 0.929 . S
H593 C565 0.929 . S
H594 C567 0.931 . S
H595 C568 0.930 . S
H596 C573 0.929 . S
H597 C574 0.929 . S
H598 C576 0.931 . S
H599 C577 0.930 . S
Pr600 C602 2.861 1_455 S
Pr600 O620 2.562 1_455 S
Pr600 O621 2.490 . S
Pr600 O622 2.695 1_556 S
Pr600 O623 2.512 1_556 S
Pr600 O625 2.437 1_456 S
Pr600 O628 2.436 1_455 S
Pr600 O630 2.438 . S
Pr601 C611 2.880 1_655 S
Pr601 O622 2.436 1_655 S
Pr601 O624 2.438 . S
Pr601 O626 2.562 1_655 S
Pr601 O627 2.490 . S
Pr601 O628 2.695 1_554 S
Pr601 O629 2.512 1_554 S
Pr601 O631 2.437 1_654 S
C602 Pr600 2.861 1_655 S
C602 C603 1.510 . S
C602 O620 1.256 . S
C602 O621 1.204 1_655 S
C603 C602 1.510 . S
C603 C604 1.392 1_655 S
C603 C608 1.356 . S
C604 C603 1.392 1_455 S
C604 C605 1.368 . S
C604 H632 0.929 . S
C605 C604 1.368 . S
C605 C606 1.386 1_455 S
C605 H633 0.929 . S
C606 C605 1.386 1_655 S
C606 C607 1.373 . S
C607 C606 1.373 . S
C607 C608 1.409 . S
C607 H634 0.931 . S
C608 C603 1.356 . S
C608 C607 1.409 . S
C608 H635 0.930 . S
C609 O622 1.270 . S
C609 O623 1.248 . S
C610 O624 1.267 . S
C610 O625 1.278 . S
C611 Pr601 2.880 1_455 S
C611 C612 1.491 . S
C611 O626 1.254 . S
C611 O627 1.225 1_455 S
C612 C611 1.491 . S
C612 C613 1.392 1_455 S
C612 C617 1.356 . S
C613 C612 1.392 1_655 S
C613 C614 1.368 . S
C613 H636 0.929 . S
C614 C613 1.368 . S
C614 C615 1.386 1_655 S
C614 H637 0.929 . S
C615 C614 1.386 1_455 S
C615 C616 1.373 . S
C616 C615 1.373 . S
C616 C617 1.409 . S
C616 H638 0.931 . S
C617 C612 1.356 . S
C617 C616 1.409 . S
C617 H639 0.930 . S
C618 O628 1.270 . S
C618 O629 1.248 . S
C619 O630 1.267 . S
C619 O631 1.278 . S
O620 Pr600 2.562 1_655 S
O620 C602 1.256 . S
O621 Pr600 2.490 . S
O621 C602 1.204 1_455 S
O622 Pr600 2.695 1_554 S
O622 Pr601 2.436 1_455 S
O622 C609 1.270 . S
O623 Pr600 2.512 1_554 S
O623 C609 1.248 . S
O624 Pr601 2.438 . S
O624 C610 1.267 . S
O625 Pr600 2.437 1_654 S
O625 C610 1.278 . S
O626 Pr601 2.562 1_455 S
O626 C611 1.254 . S
O627 Pr601 2.490 . S
O627 C611 1.225 1_655 S
O628 Pr600 2.436 1_655 S
O628 Pr601 2.695 1_556 S
O628 C618 1.270 . S
O629 Pr601 2.512 1_556 S
O629 C618 1.248 . S
O630 Pr600 2.438 . S
O630 C619 1.267 . S
O631 Pr601 2.437 1_456 S
O631 C619 1.278 . S
H632 C604 0.929 . S
H633 C605 0.929 . S
H634 C607 0.931 . S
H635 C608 0.930 . S
H636 C613 0.929 . S
H637 C614 0.929 . S
H638 C616 0.931 . S
H639 C617 0.930 . S
H640 C648 0.950 . S
H641 C653 0.950 . S
H642 C650 0.950 . S
H643 C652 0.950 . S
H644 C654 0.950 . S
H645 C656 0.950 . S
H646 C658 0.950 . S
H647 C659 0.950 . S
C648 H640 0.950 . S
C648 C649 1.386 . S
C648 C650 1.391 . S
C649 C648 1.386 . S
C649 C653 1.393 . S
C650 H642 0.950 . S
C650 C648 1.391 . S
C650 C651 1.400 . S
C651 C650 1.400 . S
C651 C652 1.398 . S
C651 C657 1.491 . S
C652 H643 0.950 . S
C652 C651 1.398 . S
C652 C653 1.391 . S
C653 H641 0.950 . S
C653 C649 1.393 . S
C653 C652 1.391 . S
C654 H644 0.950 . S
C654 C655 1.386 . S
C654 C656 1.391 . S
C655 C654 1.386 . S
C655 C659 1.393 . S
C656 H645 0.950 . S
C656 C654 1.391 . S
C656 C657 1.400 . S
C657 C651 1.491 . S
C657 C656 1.400 . S
C657 C658 1.398 . S
C658 H646 0.950 . S
C658 C657 1.398 . S
C658 C659 1.391 . S
C659 H647 0.950 . S
C659 C655 1.393 . S
C659 C658 1.391 . S
H660 C668 0.950 . S
H661 C673 0.950 . S
H662 C670 0.950 . S
H663 C672 0.950 . S
H664 C674 0.950 . S
H665 C676 0.950 . S
H666 C678 0.950 . S
H667 C679 0.950 . S
C668 H660 0.950 . S
C668 C669 1.386 . S
C668 C670 1.391 . S
C669 C668 1.386 . S
C669 C673 1.393 . S
C670 H662 0.950 . S
C670 C668 1.391 . S
C670 C671 1.400 . S
C671 C670 1.400 . S
C671 C672 1.398 . S
C671 C677 1.491 . S
C672 H663 0.950 . S
C672 C671 1.398 . S
C672 C673 1.391 . S
C673 H661 0.950 . S
C673 C669 1.393 . S
C673 C672 1.391 . S
C674 H664 0.950 . S
C674 C675 1.386 . S
C674 C676 1.391 . S
C675 C674 1.386 . S
C675 C679 1.393 . S
C676 H665 0.950 . S
C676 C674 1.391 . S
C676 C677 1.400 . S
C677 C671 1.491 . S
C677 C676 1.400 . S
C677 C678 1.398 . S
C678 H666 0.950 . S
C678 C677 1.398 . S
C678 C679 1.391 . S
C679 H667 0.950 . S
C679 C675 1.393 . S
C679 C678 1.391 . S
H680 C688 0.950 . S
H681 C693 0.950 . S
H682 C690 0.950 . S
H683 C692 0.950 . S
H684 C694 0.950 . S
H685 C696 0.950 . S
H686 C698 0.950 . S
H687 C699 0.950 . S
C688 H680 0.950 . S
C688 C689 1.386 . S
C688 C690 1.391 . S
C689 C688 1.386 . S
C689 C693 1.393 . S
C690 H682 0.950 . S
C690 C688 1.391 . S
C690 C691 1.400 . S
C691 C690 1.400 . S
C691 C692 1.398 . S
C691 C697 1.491 . S
C692 H683 0.950 . S
C692 C691 1.398 . S
C692 C693 1.391 . S
C693 H681 0.950 . S
C693 C689 1.393 . S
C693 C692 1.391 . S
C694 H684 0.950 . S
C694 C695 1.386 . S
C694 C696 1.391 . S
C695 C694 1.386 . S
C695 C699 1.393 . S
C696 H685 0.950 . S
C696 C694 1.391 . S
C696 C697 1.400 . S
C697 C691 1.491 . S
C697 C696 1.400 . S
C697 C698 1.398 . S
C698 H686 0.950 . S
C698 C697 1.398 . S
C698 C699 1.391 . S
C699 H687 0.950 . S
C699 C695 1.393 . S
C699 C698 1.391 . S
H700 C708 0.950 . S
H701 C713 0.950 . S
H702 C710 0.950 . S
H703 C712 0.950 . S
H704 C714 0.950 . S
H705 C716 0.950 . S
H706 C718 0.950 . S
H707 C719 0.950 . S
C708 H700 0.950 . S
C708 C709 1.386 . S
C708 C710 1.391 . S
C709 C708 1.386 . S
C709 C713 1.393 . S
C710 H702 0.950 . S
C710 C708 1.391 . S
C710 C711 1.400 . S
C711 C710 1.400 . S
C711 C712 1.398 . S
C711 C717 1.491 . S
C712 H703 0.950 . S
C712 C711 1.398 . S
C712 C713 1.391 . S
C713 H701 0.950 . S
C713 C709 1.393 . S
C713 C712 1.391 . S
C714 H704 0.950 . S
C714 C715 1.386 . S
C714 C716 1.391 . S
C715 C714 1.386 . S
C715 C719 1.393 . S
C716 H705 0.950 . S
C716 C714 1.391 . S
C716 C717 1.400 . S
C717 C711 1.491 . S
C717 C716 1.400 . S
C717 C718 1.398 . S
C718 H706 0.950 . S
C718 C717 1.398 . S
C718 C719 1.391 . S
C719 H707 0.950 . S
C719 C715 1.393 . S
C719 C718 1.391 . S
H720 C728 0.950 . S
H721 C733 0.950 . S
H722 C730 0.950 . S
H723 C732 0.950 . S
H724 C734 0.950 . S
H725 C736 0.950 . S
H726 C738 0.950 . S
H727 C739 0.950 . S
C728 H720 0.950 . S
C728 C729 1.386 . S
C728 C730 1.391 . S
C729 C728 1.386 . S
C729 C733 1.393 . S
C730 H722 0.950 . S
C730 C728 1.391 . S
C730 C731 1.400 . S
C731 C730 1.400 . S
C731 C732 1.398 . S
C731 C737 1.491 . S
C732 H723 0.950 . S
C732 C731 1.398 . S
C732 C733 1.391 . S
C733 H721 0.950 . S
C733 C729 1.393 . S
C733 C732 1.391 . S
C734 H724 0.950 . S
C734 C735 1.386 . S
C734 C736 1.391 . S
C735 C734 1.386 . S
C735 C739 1.393 . S
C736 H725 0.950 . S
C736 C734 1.391 . S
C736 C737 1.400 . S
C737 C731 1.491 . S
C737 C736 1.400 . S
C737 C738 1.398 . S
C738 H726 0.950 . S
C738 C737 1.398 . S
C738 C739 1.391 . S
C739 H727 0.950 . S
C739 C735 1.393 . S
C739 C738 1.391 . S
H740 C748 0.950 . S
H741 C753 0.950 . S
H742 C750 0.950 . S
H743 C752 0.950 . S
H744 C754 0.950 . S
H745 C756 0.950 . S
H746 C758 0.950 . S
H747 C759 0.950 . S
C748 H740 0.950 . S
C748 C749 1.386 . S
C748 C750 1.391 . S
C749 C748 1.386 . S
C749 C753 1.393 . S
C750 H742 0.950 . S
C750 C748 1.391 . S
C750 C751 1.400 . S
C751 C750 1.400 . S
C751 C752 1.398 . S
C751 C757 1.491 . S
C752 H743 0.950 . S
C752 C751 1.398 . S
C752 C753 1.391 . S
C753 H741 0.950 . S
C753 C749 1.393 . S
C753 C752 1.391 . S
C754 H744 0.950 . S
C754 C755 1.386 . S
C754 C756 1.391 . S
C755 C754 1.386 . S
C755 C759 1.393 . S
C756 H745 0.950 . S
C756 C754 1.391 . S
C756 C757 1.400 . S
C757 C751 1.491 . S
C757 C756 1.400 . S
C757 C758 1.398 . S
C758 H746 0.950 . S
C758 C757 1.398 . S
C758 C759 1.391 . S
C759 H747 0.950 . S
C759 C755 1.393 . S
C759 C758 1.391 . S
H760 C768 0.950 . S
H761 C773 0.950 . S
H762 C770 0.950 . S
H763 C772 0.950 . S
H764 C774 0.950 . S
H765 C776 0.950 . S
H766 C778 0.950 . S
H767 C779 0.950 . S
C768 H760 0.950 . S
C768 C769 1.386 . S
C768 C770 1.391 . S
C769 C768 1.386 . S
C769 C773 1.393 . S
C770 H762 0.950 . S
C770 C768 1.391 . S
C770 C771 1.400 . S
C771 C770 1.400 . S
C771 C772 1.398 . S
C771 C777 1.491 . S
C772 H763 0.950 . S
C772 C771 1.398 . S
C772 C773 1.391 . S
C773 H761 0.950 . S
C773 C769 1.393 . S
C773 C772 1.391 . S
C774 H764 0.950 . S
C774 C775 1.386 . S
C774 C776 1.391 . S
C775 C774 1.386 . S
C775 C779 1.393 . S
C776 H765 0.950 . S
C776 C774 1.391 . S
C776 C777 1.400 . S
C777 C771 1.491 . S
C777 C776 1.400 . S
C777 C778 1.398 . S
C778 H766 0.950 . S
C778 C777 1.398 . S
C778 C779 1.391 . S
C779 H767 0.950 . S
C779 C775 1.393 . S
C779 C778 1.391 . S
H780 C788 0.950 . S
H781 C793 0.950 . S
H782 C790 0.950 . S
H783 C792 0.950 . S
H784 C794 0.950 . S
H785 C796 0.950 . S
H786 C798 0.950 . S
H787 C799 0.950 . S
C788 H780 0.950 . S
C788 C789 1.386 . S
C788 C790 1.391 . S
C789 C788 1.386 . S
C789 C793 1.393 . S
C790 H782 0.950 . S
C790 C788 1.391 . S
C790 C791 1.400 . S
C791 C790 1.400 . S
C791 C792 1.398 . S
C791 C797 1.491 . S
C792 H783 0.950 . S
C792 C791 1.398 . S
C792 C793 1.391 . S
C793 H781 0.950 . S
C793 C789 1.393 . S
C793 C792 1.391 . S
C794 H784 0.950 . S
C794 C795 1.386 . S
C794 C796 1.391 . S
C795 C794 1.386 . S
C795 C799 1.393 . S
C796 H785 0.950 . S
C796 C794 1.391 . S
C796 C797 1.400 . S
C797 C791 1.491 . S
C797 C796 1.400 . S
C797 C798 1.398 . S
C798 H786 0.950 . S
C798 C797 1.398 . S
C798 C799 1.391 . S
C799 H787 0.950 . S
C799 C795 1.393 . S
C799 C798 1.391 . S
H800 C808 0.950 . S
H801 C813 0.950 . S
H802 C810 0.950 . S
H803 C812 0.950 . S
H804 C814 0.950 . S
H805 C816 0.950 . S
H806 C818 0.950 . S
H807 C819 0.950 . S
C808 H800 0.950 . S
C808 C809 1.386 . S
C808 C810 1.391 . S
C809 C808 1.386 . S
C809 C813 1.393 . S
C810 H802 0.950 . S
C810 C808 1.391 . S
C810 C811 1.400 . S
C811 C810 1.400 . S
C811 C812 1.398 . S
C811 C817 1.491 . S
C812 H803 0.950 . S
C812 C811 1.398 . S
C812 C813 1.391 . S
C813 H801 0.950 . S
C813 C809 1.393 . S
C813 C812 1.391 . S
C814 H804 0.950 . S
C814 C815 1.386 . S
C814 C816 1.391 . S
C815 C814 1.386 . S
C815 C819 1.393 . S
C816 H805 0.950 . S
C816 C814 1.391 . S
C816 C817 1.400 . S
C817 C811 1.491 . S
C817 C816 1.400 . S
C817 C818 1.398 . S
C818 H806 0.950 . S
C818 C817 1.398 . S
C818 C819 1.391 . S
C819 H807 0.950 . S
C819 C815 1.393 . S
C819 C818 1.391 . S
H820 C828 0.950 . S
H821 C833 0.950 . S
H822 C830 0.950 . S
H823 C832 0.950 . S
H824 C834 0.950 . S
H825 C836 0.950 . S
H826 C838 0.950 . S
H827 C839 0.950 . S
C828 H820 0.950 . S
C828 C829 1.386 . S
C828 C830 1.391 . S
C829 C828 1.386 . S
C829 C833 1.393 . S
C830 H822 0.950 . S
C830 C828 1.391 . S
C830 C831 1.400 . S
C831 C830 1.400 . S
C831 C832 1.398 . S
C831 C837 1.491 . S
C832 H823 0.950 . S
C832 C831 1.398 . S
C832 C833 1.391 . S
C833 H821 0.950 . S
C833 C829 1.393 . S
C833 C832 1.391 . S
C834 H824 0.950 . S
C834 C835 1.386 . S
C834 C836 1.391 . S
C835 C834 1.386 . S
C835 C839 1.393 . S
C836 H825 0.950 . S
C836 C834 1.391 . S
C836 C837 1.400 . S
C837 C831 1.491 . S
C837 C836 1.400 . S
C837 C838 1.398 . S
C838 H826 0.950 . S
C838 C837 1.398 . S
C838 C839 1.391 . S
C839 H827 0.950 . S
C839 C835 1.393 . S
C839 C838 1.391 . S
H840 C848 0.950 . S
H841 C853 0.950 . S
H842 C850 0.950 . S
H843 C852 0.950 . S
H844 C854 0.950 . S
H845 C856 0.950 . S
H846 C858 0.950 . S
H847 C859 0.950 . S
C848 H840 0.950 . S
C848 C849 1.386 . S
C848 C850 1.391 . S
C849 C848 1.386 . S
C849 C853 1.393 . S
C850 H842 0.950 . S
C850 C848 1.391 . S
C850 C851 1.400 . S
C851 C850 1.400 . S
C851 C852 1.398 . S
C851 C857 1.491 . S
C852 H843 0.950 . S
C852 C851 1.398 . S
C852 C853 1.391 . S
C853 H841 0.950 . S
C853 C849 1.393 . S
C853 C852 1.391 . S
C854 H844 0.950 . S
C854 C855 1.386 . S
C854 C856 1.391 . S
C855 C854 1.386 . S
C855 C859 1.393 . S
C856 H845 0.950 . S
C856 C854 1.391 . S
C856 C857 1.400 . S
C857 C851 1.491 . S
C857 C856 1.400 . S
C857 C858 1.398 . S
C858 H846 0.950 . S
C858 C857 1.398 . S
C858 C859 1.391 . S
C859 H847 0.950 . S
C859 C855 1.393 . S
C859 C858 1.391 . S
H860 C868 0.950 . S
H861 C873 0.950 . S
H862 C870 0.950 . S
H863 C872 0.950 . S
H864 C874 0.950 . S
H865 C876 0.950 . S
H866 C878 0.950 . S
H867 C879 0.950 . S
C868 H860 0.950 . S
C868 C869 1.386 . S
C868 C870 1.391 . S
C869 C868 1.386 . S
C869 C873 1.393 . S
C870 H862 0.950 . S
C870 C868 1.391 . S
C870 C871 1.400 . S
C871 C870 1.400 . S
C871 C872 1.398 . S
C871 C877 1.491 . S
C872 H863 0.950 . S
C872 C871 1.398 . S
C872 C873 1.391 . S
C873 H861 0.950 . S
C873 C869 1.393 . S
C873 C872 1.391 . S
C874 H864 0.950 . S
C874 C875 1.386 . S
C874 C876 1.391 . S
C875 C874 1.386 . S
C875 C879 1.393 . S
C876 H865 0.950 . S
C876 C874 1.391 . S
C876 C877 1.400 . S
C877 C871 1.491 . S
C877 C876 1.400 . S
C877 C878 1.398 . S
C878 H866 0.950 . S
C878 C877 1.398 . S
C878 C879 1.391 . S
C879 H867 0.950 . S
C879 C875 1.393 . S
C879 C878 1.391 . S
H880 C888 0.950 . S
H881 C893 0.950 . S
H882 C890 0.950 . S
H883 C892 0.950 . S
H884 C894 0.950 . S
H885 C896 0.950 . S
H886 C898 0.950 . S
H887 C899 0.950 . S
C888 H880 0.950 . S
C888 C889 1.386 . S
C888 C890 1.391 . S
C889 C888 1.386 . S
C889 C893 1.393 . S
C890 H882 0.950 . S
C890 C888 1.391 . S
C890 C891 1.400 . S
C891 C890 1.400 . S
C891 C892 1.398 . S
C891 C897 1.491 . S
C892 H883 0.950 . S
C892 C891 1.398 . S
C892 C893 1.391 . S
C893 H881 0.950 . S
C893 C889 1.393 . S
C893 C892 1.391 . S
C894 H884 0.950 . S
C894 C895 1.386 . S
C894 C896 1.391 . S
C895 C894 1.386 . S
C895 C899 1.393 . S
C896 H885 0.950 . S
C896 C894 1.391 . S
C896 C897 1.400 . S
C897 C891 1.491 . S
C897 C896 1.400 . S
C897 C898 1.398 . S
C898 H886 0.950 . S
C898 C897 1.398 . S
C898 C899 1.391 . S
C899 H887 0.950 . S
C899 C895 1.393 . S
C899 C898 1.391 . S
H900 C908 0.950 . S
H901 C913 0.950 . S
H902 C910 0.950 . S
H903 C912 0.950 . S
H904 C914 0.950 . S
H905 C916 0.950 . S
H906 C918 0.950 . S
H907 C919 0.950 . S
C908 H900 0.950 . S
C908 C909 1.386 . S
C908 C910 1.391 . S
C909 C908 1.386 . S
C909 C913 1.393 . S
C910 H902 0.950 . S
C910 C908 1.391 . S
C910 C911 1.400 . S
C911 C910 1.400 . S
C911 C912 1.398 . S
C911 C917 1.491 . S
C912 H903 0.950 . S
C912 C911 1.398 . S
C912 C913 1.391 . S
C913 H901 0.950 . S
C913 C909 1.393 . S
C913 C912 1.391 . S
C914 H904 0.950 . S
C914 C915 1.386 . S
C914 C916 1.391 . S
C915 C914 1.386 . S
C915 C919 1.393 . S
C916 H905 0.950 . S
C916 C914 1.391 . S
C916 C917 1.400 . S
C917 C911 1.491 . S
C917 C916 1.400 . S
C917 C918 1.398 . S
C918 H906 0.950 . S
C918 C917 1.398 . S
C918 C919 1.391 . S
C919 H907 0.950 . S
C919 C915 1.393 . S
C919 C918 1.391 . S
H920 C928 0.950 . S
H921 C933 0.950 . S
H922 C930 0.950 . S
H923 C932 0.950 . S
H924 C934 0.950 . S
H925 C936 0.950 . S
H926 C938 0.950 . S
H927 C939 0.950 . S
C928 H920 0.950 . S
C928 C929 1.386 . S
C928 C930 1.391 . S
C929 C928 1.386 . S
C929 C933 1.393 . S
C930 H922 0.950 . S
C930 C928 1.391 . S
C930 C931 1.400 . S
C931 C930 1.400 . S
C931 C932 1.398 . S
C931 C937 1.491 . S
C932 H923 0.950 . S
C932 C931 1.398 . S
C932 C933 1.391 . S
C933 H921 0.950 . S
C933 C929 1.393 . S
C933 C932 1.391 . S
C934 H924 0.950 . S
C934 C935 1.386 . S
C934 C936 1.391 . S
C935 C934 1.386 . S
C935 C939 1.393 . S
C936 H925 0.950 . S
C936 C934 1.391 . S
C936 C937 1.400 . S
C937 C931 1.491 . S
C937 C936 1.400 . S
C937 C938 1.398 . S
C938 H926 0.950 . S
C938 C937 1.398 . S
C938 C939 1.391 . S
C939 H927 0.950 . S
C939 C935 1.393 . S
C939 C938 1.391 . S
H940 C948 0.950 . S
H941 C953 0.950 . S
H942 C950 0.950 . S
H943 C952 0.950 . S
H944 C954 0.950 . S
H945 C956 0.950 . S
H946 C958 0.950 . S
H947 C959 0.950 . S
C948 H940 0.950 . S
C948 C949 1.386 . S
C948 C950 1.391 . S
C949 C948 1.386 . S
C949 C953 1.393 . S
C950 H942 0.950 . S
C950 C948 1.391 . S
C950 C951 1.400 . S
C951 C950 1.400 . S
C951 C952 1.398 . S
C951 C957 1.491 . S
C952 H943 0.950 . S
C952 C951 1.398 . S
C952 C953 1.391 . S
C953 H941 0.950 . S
C953 C949 1.393 . S
C953 C952 1.391 . S
C954 H944 0.950 . S
C954 C955 1.386 . S
C954 C956 1.391 . S
C955 C954 1.386 . S
C955 C959 1.393 . S
C956 H945 0.950 . S
C956 C954 1.391 . S
C956 C957 1.400 . S
C957 C951 1.491 . S
C957 C956 1.400 . S
C957 C958 1.398 . S
C958 H946 0.950 . S
C958 C957 1.398 . S
C958 C959 1.391 . S
C959 H947 0.950 . S
C959 C955 1.393 . S
C959 C958 1.391 . S
H960 C968 0.950 . S
H961 C973 0.950 . S
H962 C970 0.950 . S
H963 C972 0.950 . S
H964 C974 0.950 . S
H965 C976 0.950 . S
H966 C978 0.950 . S
H967 C979 0.950 . S
C968 H960 0.950 . S
C968 C969 1.386 . S
C968 C970 1.391 . S
C969 C968 1.386 . S
C969 C973 1.393 . S
C970 H962 0.950 . S
C970 C968 1.391 . S
C970 C971 1.400 . S
C971 C970 1.400 . S
C971 C972 1.398 . S
C971 C977 1.491 . S
C972 H963 0.950 . S
C972 C971 1.398 . S
C972 C973 1.391 . S
C973 H961 0.950 . S
C973 C969 1.393 . S
C973 C972 1.391 . S
C974 H964 0.950 . S
C974 C975 1.386 . S
C974 C976 1.391 . S
C975 C974 1.386 . S
C975 C979 1.393 . S
C976 H965 0.950 . S
C976 C974 1.391 . S
C976 C977 1.400 . S
C977 C971 1.491 . S
C977 C976 1.400 . S
C977 C978 1.398 . S
C978 H966 0.950 . S
C978 C977 1.398 . S
C978 C979 1.391 . S
C979 H967 0.950 . S
C979 C975 1.393 . S
C979 C978 1.391 . S
H980 C988 0.950 . S
H981 C993 0.950 . S
H982 C990 0.950 . S
H983 C992 0.950 . S
H984 C994 0.950 . S
H985 C996 0.950 . S
H986 C998 0.950 . S
H987 C999 0.950 . S
C988 H980 0.950 . S
C988 C989 1.386 . S
C988 C990 1.391 . S
C989 C988 1.386 . S
C989 C993 1.393 . S
C990 H982 0.950 . S
C990 C988 1.391 . S
C990 C991 1.400 . S
C991 C990 1.400 . S
C991 C992 1.398 . S
C991 C997 1.491 . S
C992 H983 0.950 . S
C992 C991 1.398 . S
C992 C993 1.391 . S
C993 H981 0.950 . S
C993 C989 1.393 . S
C993 C992 1.391 . S
C994 H984 0.950 . S
C994 C995 1.386 . S
C994 C996 1.391 . S
C995 C994 1.386 . S
C995 C999 1.393 . S
C996 H985 0.950 . S
C996 C994 1.391 . S
C996 C997 1.400 . S
C997 C991 1.491 . S
C997 C996 1.400 . S
C997 C998 1.398 . S
C998 H986 0.950 . S
C998 C997 1.398 . S
C998 C999 1.391 . S
C999 H987 0.950 . S
C999 C995 1.393 . S
C999 C998 1.391 . S
H1000 C1008 0.950 . S
H1001 C1013 0.950 . S
H1002 C1010 0.950 . S
H1003 C1012 0.950 . S
H1004 C1014 0.950 . S
H1005 C1016 0.950 . S
H1006 C1018 0.950 . S
H1007 C1019 0.950 . S
C1008 H1000 0.950 . S
C1008 C1009 1.386 . S
C1008 C1010 1.391 . S
C1009 C1008 1.386 . S
C1009 C1013 1.393 . S
C1010 H1002 0.950 . S
C1010 C1008 1.391 . S
C1010 C1011 1.400 . S
C1011 C1010 1.400 . S
C1011 C1012 1.398 . S
C1011 C1017 1.491 . S
C1012 H1003 0.950 . S
C1012 C1011 1.398 . S
C1012 C1013 1.391 . S
C1013 H1001 0.950 . S
C1013 C1009 1.393 . S
C1013 C1012 1.391 . S
C1014 H1004 0.950 . S
C1014 C1015 1.386 . S
C1014 C1016 1.391 . S
C1015 C1014 1.386 . S
C1015 C1019 1.393 . S
C1016 H1005 0.950 . S
C1016 C1014 1.391 . S
C1016 C1017 1.400 . S
C1017 C1011 1.491 . S
C1017 C1016 1.400 . S
C1017 C1018 1.398 . S
C1018 H1006 0.950 . S
C1018 C1017 1.398 . S
C1018 C1019 1.391 . S
C1019 H1007 0.950 . S
C1019 C1015 1.393 . S
C1019 C1018 1.391 . S
H1020 C1028 0.950 . S
H1021 C1033 0.950 . S
H1022 C1030 0.950 . S
H1023 C1032 0.950 . S
H1024 C1034 0.950 . S
H1025 C1036 0.950 . S
H1026 C1038 0.950 . S
H1027 C1039 0.950 . S
C1028 H1020 0.950 . S
C1028 C1029 1.386 . S
C1028 C1030 1.391 . S
C1029 C1028 1.386 . S
C1029 C1033 1.393 . S
C1030 H1022 0.950 . S
C1030 C1028 1.391 . S
C1030 C1031 1.400 . S
C1031 C1030 1.400 . S
C1031 C1032 1.398 . S
C1031 C1037 1.491 . S
C1032 H1023 0.950 . S
C1032 C1031 1.398 . S
C1032 C1033 1.391 . S
C1033 H1021 0.950 . S
C1033 C1029 1.393 . S
C1033 C1032 1.391 . S
C1034 H1024 0.950 . S
C1034 C1035 1.386 . S
C1034 C1036 1.391 . S
C1035 C1034 1.386 . S
C1035 C1039 1.393 . S
C1036 H1025 0.950 . S
C1036 C1034 1.391 . S
C1036 C1037 1.400 . S
C1037 C1031 1.491 . S
C1037 C1036 1.400 . S
C1037 C1038 1.398 . S
C1038 H1026 0.950 . S
C1038 C1037 1.398 . S
C1038 C1039 1.391 . S
C1039 H1027 0.950 . S
C1039 C1035 1.393 . S
C1039 C1038 1.391 . S
H1040 C1048 0.950 . S
H1041 C1053 0.950 . S
H1042 C1050 0.950 . S
H1043 C1052 0.950 . S
H1044 C1054 0.950 . S
H1045 C1056 0.950 . S
H1046 C1058 0.950 . S
H1047 C1059 0.950 . S
C1048 H1040 0.950 . S
C1048 C1049 1.386 . S
C1048 C1050 1.391 . S
C1049 C1048 1.386 . S
C1049 C1053 1.393 . S
C1050 H1042 0.950 . S
C1050 C1048 1.391 . S
C1050 C1051 1.400 . S
C1051 C1050 1.400 . S
C1051 C1052 1.398 . S
C1051 C1057 1.491 . S
C1052 H1043 0.950 . S
C1052 C1051 1.398 . S
C1052 C1053 1.391 . S
C1053 H1041 0.950 . S
C1053 C1049 1.393 . S
C1053 C1052 1.391 . S
C1054 H1044 0.950 . S
C1054 C1055 1.386 . S
C1054 C1056 1.391 . S
C1055 C1054 1.386 . S
C1055 C1059 1.393 . S
C1056 H1045 0.950 . S
C1056 C1054 1.391 . S
C1056 C1057 1.400 . S
C1057 C1051 1.491 . S
C1057 C1056 1.400 . S
C1057 C1058 1.398 . S
C1058 H1046 0.950 . S
C1058 C1057 1.398 . S
C1058 C1059 1.391 . S
C1059 H1047 0.950 . S
C1059 C1055 1.393 . S
C1059 C1058 1.391 . S
H1060 C1068 0.950 . S
H1061 C1073 0.950 . S
H1062 C1070 0.950 . S
H1063 C1072 0.950 . S
H1064 C1074 0.950 . S
H1065 C1076 0.950 . S
H1066 C1078 0.950 . S
H1067 C1079 0.950 . S
C1068 H1060 0.950 . S
C1068 C1069 1.386 . S
C1068 C1070 1.391 . S
C1069 C1068 1.386 . S
C1069 C1073 1.393 . S
C1070 H1062 0.950 . S
C1070 C1068 1.391 . S
C1070 C1071 1.400 . S
C1071 C1070 1.400 . S
C1071 C1072 1.398 . S
C1071 C1077 1.491 . S
C1072 H1063 0.950 . S
C1072 C1071 1.398 . S
C1072 C1073 1.391 . S
C1073 H1061 0.950 . S
C1073 C1069 1.393 . S
C1073 C1072 1.391 . S
C1074 H1064 0.950 . S
C1074 C1075 1.386 . S
C1074 C1076 1.391 . S
C1075 C1074 1.386 . S
C1075 C1079 1.393 . S
C1076 H1065 0.950 . S
C1076 C1074 1.391 . S
C1076 C1077 1.400 . S
C1077 C1071 1.491 . S
C1077 C1076 1.400 . S
C1077 C1078 1.398 . S
C1078 H1066 0.950 . S
C1078 C1077 1.398 . S
C1078 C1079 1.391 . S
C1079 H1067 0.950 . S
C1079 C1075 1.393 . S
C1079 C1078 1.391 . S
H1080 C1088 0.950 . S
H1081 C1093 0.950 . S
H1082 C1090 0.950 . S
H1083 C1092 0.950 . S
H1084 C1094 0.950 . S
H1085 C1096 0.950 . S
H1086 C1098 0.950 . S
H1087 C1099 0.950 . S
C1088 H1080 0.950 . S
C1088 C1089 1.386 . S
C1088 C1090 1.391 . S
C1089 C1088 1.386 . S
C1089 C1093 1.393 . S
C1090 H1082 0.950 . S
C1090 C1088 1.391 . S
C1090 C1091 1.400 . S
C1091 C1090 1.400 . S
C1091 C1092 1.398 . S
C1091 C1097 1.491 . S
C1092 H1083 0.950 . S
C1092 C1091 1.398 . S
C1092 C1093 1.391 . S
C1093 H1081 0.950 . S
C1093 C1089 1.393 . S
C1093 C1092 1.391 . S
C1094 H1084 0.950 . S
C1094 C1095 1.386 . S
C1094 C1096 1.391 . S
C1095 C1094 1.386 . S
C1095 C1099 1.393 . S
C1096 H1085 0.950 . S
C1096 C1094 1.391 . S
C1096 C1097 1.400 . S
C1097 C1091 1.491 . S
C1097 C1096 1.400 . S
C1097 C1098 1.398 . S
C1098 H1086 0.950 . S
C1098 C1097 1.398 . S
C1098 C1099 1.391 . S
C1099 H1087 0.950 . S
C1099 C1095 1.393 . S
C1099 C1098 1.391 . S
H1100 C1108 0.950 . S
H1101 C1113 0.950 . S
H1102 C1110 0.950 . S
H1103 C1112 0.950 . S
H1104 C1114 0.950 . S
H1105 C1116 0.950 . S
H1106 C1118 0.950 . S
H1107 C1119 0.950 . S
C1108 H1100 0.950 . S
C1108 C1109 1.386 . S
C1108 C1110 1.391 . S
C1109 C1108 1.386 . S
C1109 C1113 1.393 . S
C1110 H1102 0.950 . S
C1110 C1108 1.391 . S
C1110 C1111 1.400 . S
C1111 C1110 1.400 . S
C1111 C1112 1.398 . S
C1111 C1117 1.491 . S
C1112 H1103 0.950 . S
C1112 C1111 1.398 . S
C1112 C1113 1.391 . S
C1113 H1101 0.950 . S
C1113 C1109 1.393 . S
C1113 C1112 1.391 . S
C1114 H1104 0.950 . S
C1114 C1115 1.386 . S
C1114 C1116 1.391 . S
C1115 C1114 1.386 . S
C1115 C1119 1.393 . S
C1116 H1105 0.950 . S
C1116 C1114 1.391 . S
C1116 C1117 1.400 . S
C1117 C1111 1.491 . S
C1117 C1116 1.400 . S
C1117 C1118 1.398 . S
C1118 H1106 0.950 . S
C1118 C1117 1.398 . S
C1118 C1119 1.391 . S
C1119 H1107 0.950 . S
C1119 C1115 1.393 . S
C1119 C1118 1.391 . S
H1120 C1128 0.950 1_545 S
H1121 C1133 0.950 . S
H1122 C1130 0.950 . S
H1123 C1132 0.950 . S
H1124 C1134 0.950 . S
H1125 C1136 0.950 . S
H1126 C1138 0.950 . S
H1127 C1139 0.950 . S
C1128 H1120 0.950 1_565 S
C1128 C1129 1.386 . S
C1128 C1130 1.391 . S
C1129 C1128 1.386 . S
C1129 C1133 1.393 . S
C1130 H1122 0.950 . S
C1130 C1128 1.391 . S
C1130 C1131 1.400 . S
C1131 C1130 1.400 . S
C1131 C1132 1.398 . S
C1131 C1137 1.491 . S
C1132 H1123 0.950 . S
C1132 C1131 1.398 . S
C1132 C1133 1.391 . S
C1133 H1121 0.950 . S
C1133 C1129 1.393 . S
C1133 C1132 1.391 . S
C1134 H1124 0.950 . S
C1134 C1135 1.386 . S
C1134 C1136 1.391 . S
C1135 C1134 1.386 . S
C1135 C1139 1.393 . S
C1136 H1125 0.950 . S
C1136 C1134 1.391 . S
C1136 C1137 1.400 . S
C1137 C1131 1.491 . S
C1137 C1136 1.400 . S
C1137 C1138 1.398 . S
C1138 H1126 0.950 . S
C1138 C1137 1.398 . S
C1138 C1139 1.391 . S
C1139 H1127 0.950 . S
C1139 C1135 1.393 . S
C1139 C1138 1.391 . S
H1140 C1148 0.950 . S
H1141 C1153 0.950 . S
H1142 C1150 0.950 . S
H1143 C1152 0.950 . S
H1144 C1154 0.950 . S
H1145 C1156 0.950 . S
H1146 C1158 0.950 . S
H1147 C1159 0.950 . S
C1148 H1140 0.950 . S
C1148 C1149 1.386 . S
C1148 C1150 1.391 . S
C1149 C1148 1.386 . S
C1149 C1153 1.393 . S
C1150 H1142 0.950 . S
C1150 C1148 1.391 . S
C1150 C1151 1.400 . S
C1151 C1150 1.400 . S
C1151 C1152 1.398 . S
C1151 C1157 1.491 . S
C1152 H1143 0.950 . S
C1152 C1151 1.398 . S
C1152 C1153 1.391 . S
C1153 H1141 0.950 . S
C1153 C1149 1.393 . S
C1153 C1152 1.391 . S
C1154 H1144 0.950 . S
C1154 C1155 1.386 . S
C1154 C1156 1.391 . S
C1155 C1154 1.386 . S
C1155 C1159 1.393 . S
C1156 H1145 0.950 . S
C1156 C1154 1.391 . S
C1156 C1157 1.400 . S
C1157 C1151 1.491 . S
C1157 C1156 1.400 . S
C1157 C1158 1.398 . S
C1158 H1146 0.950 . S
C1158 C1157 1.398 . S
C1158 C1159 1.391 . S
C1159 H1147 0.950 . S
C1159 C1155 1.393 . S
C1159 C1158 1.391 . S
H1160 C1168 0.950 . S
H1161 C1173 0.950 . S
H1162 C1170 0.950 . S
H1163 C1172 0.950 . S
H1164 C1174 0.950 . S
H1165 C1176 0.950 . S
H1166 C1178 0.950 . S
H1167 C1179 0.950 . S
C1168 H1160 0.950 . S
C1168 C1169 1.386 . S
C1168 C1170 1.391 . S
C1169 C1168 1.386 . S
C1169 C1173 1.393 . S
C1170 H1162 0.950 . S
C1170 C1168 1.391 . S
C1170 C1171 1.400 . S
C1171 C1170 1.400 . S
C1171 C1172 1.398 . S
C1171 C1177 1.491 . S
C1172 H1163 0.950 . S
C1172 C1171 1.398 . S
C1172 C1173 1.391 . S
C1173 H1161 0.950 . S
C1173 C1169 1.393 . S
C1173 C1172 1.391 . S
C1174 H1164 0.950 . S
C1174 C1175 1.386 . S
C1174 C1176 1.391 . S
C1175 C1174 1.386 . S
C1175 C1179 1.393 . S
C1176 H1165 0.950 . S
C1176 C1174 1.391 . S
C1176 C1177 1.400 . S
C1177 C1171 1.491 . S
C1177 C1176 1.400 . S
C1177 C1178 1.398 . S
C1178 H1166 0.950 . S
C1178 C1177 1.398 . S
C1178 C1179 1.391 . S
C1179 H1167 0.950 . S
C1179 C1175 1.393 . S
C1179 C1178 1.391 . S
H1180 C1188 0.950 . S
H1181 C1193 0.950 . S
H1182 C1190 0.950 . S
H1183 C1192 0.950 . S
H1184 C1194 0.950 . S
H1185 C1196 0.950 . S
H1186 C1198 0.950 . S
H1187 C1199 0.950 . S
C1188 H1180 0.950 . S
C1188 C1189 1.386 . S
C1188 C1190 1.391 . S
C1189 C1188 1.386 . S
C1189 C1193 1.393 . S
C1190 H1182 0.950 . S
C1190 C1188 1.391 . S
C1190 C1191 1.400 . S
C1191 C1190 1.400 . S
C1191 C1192 1.398 . S
C1191 C1197 1.491 . S
C1192 H1183 0.950 . S
C1192 C1191 1.398 . S
C1192 C1193 1.391 . S
C1193 H1181 0.950 . S
C1193 C1189 1.393 . S
C1193 C1192 1.391 . S
C1194 H1184 0.950 . S
C1194 C1195 1.386 . S
C1194 C1196 1.391 . S
C1195 C1194 1.386 . S
C1195 C1199 1.393 . S
C1196 H1185 0.950 . S
C1196 C1194 1.391 . S
C1196 C1197 1.400 . S
C1197 C1191 1.491 . S
C1197 C1196 1.400 . S
C1197 C1198 1.398 . S
C1198 H1186 0.950 . S
C1198 C1197 1.398 . S
C1198 C1199 1.391 . S
C1199 H1187 0.950 . S
C1199 C1195 1.393 . S
C1199 C1198 1.391 . S
H1200 C1208 0.950 . S
H1201 C1213 0.950 . S
H1202 C1210 0.950 . S
H1203 C1212 0.950 . S
H1204 C1214 0.950 . S
H1205 C1216 0.950 . S
H1206 C1218 0.950 . S
H1207 C1219 0.950 . S
C1208 H1200 0.950 . S
C1208 C1209 1.386 . S
C1208 C1210 1.391 . S
C1209 C1208 1.386 . S
C1209 C1213 1.393 . S
C1210 H1202 0.950 . S
C1210 C1208 1.391 . S
C1210 C1211 1.400 . S
C1211 C1210 1.400 . S
C1211 C1212 1.398 . S
C1211 C1217 1.491 . S
C1212 H1203 0.950 . S
C1212 C1211 1.398 . S
C1212 C1213 1.391 . S
C1213 H1201 0.950 . S
C1213 C1209 1.393 . S
C1213 C1212 1.391 . S
C1214 H1204 0.950 . S
C1214 C1215 1.386 . S
C1214 C1216 1.391 . S
C1215 C1214 1.386 . S
C1215 C1219 1.393 . S
C1216 H1205 0.950 . S
C1216 C1214 1.391 . S
C1216 C1217 1.400 . S
C1217 C1211 1.491 . S
C1217 C1216 1.400 . S
C1217 C1218 1.398 . S
C1218 H1206 0.950 . S
C1218 C1217 1.398 . S
C1218 C1219 1.391 . S
C1219 H1207 0.950 . S
C1219 C1215 1.393 . S
C1219 C1218 1.391 . S
H1220 C1228 0.950 . S
H1221 C1233 0.950 . S
H1222 C1230 0.950 . S
H1223 C1232 0.950 . S
H1224 C1234 0.950 . S
H1225 C1236 0.950 . S
H1226 C1238 0.950 . S
H1227 C1239 0.950 . S
C1228 H1220 0.950 . S
C1228 C1229 1.386 . S
C1228 C1230 1.391 . S
C1229 C1228 1.386 . S
C1229 C1233 1.393 . S
C1230 H1222 0.950 . S
C1230 C1228 1.391 . S
C1230 C1231 1.400 . S
C1231 C1230 1.400 . S
C1231 C1232 1.398 . S
C1231 C1237 1.491 . S
C1232 H1223 0.950 . S
C1232 C1231 1.398 . S
C1232 C1233 1.391 . S
C1233 H1221 0.950 . S
C1233 C1229 1.393 . S
C1233 C1232 1.391 . S
C1234 H1224 0.950 . S
C1234 C1235 1.386 . S
C1234 C1236 1.391 . S
C1235 C1234 1.386 . S
C1235 C1239 1.393 . S
C1236 H1225 0.950 . S
C1236 C1234 1.391 . S
C1236 C1237 1.400 . S
C1237 C1231 1.491 . S
C1237 C1236 1.400 . S
C1237 C1238 1.398 . S
C1238 H1226 0.950 . S
C1238 C1237 1.398 . S
C1238 C1239 1.391 . S
C1239 H1227 0.950 . S
C1239 C1235 1.393 . S
C1239 C1238 1.391 . S
H1240 C1248 0.950 . S
H1241 C1253 0.950 . S
H1242 C1250 0.950 . S
H1243 C1252 0.950 . S
H1244 C1254 0.950 . S
H1245 C1256 0.950 . S
H1246 C1258 0.950 . S
H1247 C1259 0.950 . S
C1248 H1240 0.950 . S
C1248 C1249 1.386 . S
C1248 C1250 1.391 . S
C1249 C1248 1.386 . S
C1249 C1253 1.393 . S
C1250 H1242 0.950 . S
C1250 C1248 1.391 . S
C1250 C1251 1.400 . S
C1251 C1250 1.400 . S
C1251 C1252 1.398 . S
C1251 C1257 1.491 . S
C1252 H1243 0.950 . S
C1252 C1251 1.398 . S
C1252 C1253 1.391 . S
C1253 H1241 0.950 . S
C1253 C1249 1.393 . S
C1253 C1252 1.391 . S
C1254 H1244 0.950 . S
C1254 C1255 1.386 . S
C1254 C1256 1.391 . S
C1255 C1254 1.386 . S
C1255 C1259 1.393 . S
C1256 H1245 0.950 . S
C1256 C1254 1.391 . S
C1256 C1257 1.400 . S
C1257 C1251 1.491 . S
C1257 C1256 1.400 . S
C1257 C1258 1.398 . S
C1258 H1246 0.950 . S
C1258 C1257 1.398 . S
C1258 C1259 1.391 . S
C1259 H1247 0.950 . S
C1259 C1255 1.393 . S
C1259 C1258 1.391 . S
H1260 C1268 0.950 . S
H1261 C1273 0.950 . S
H1262 C1270 0.950 . S
H1263 C1272 0.950 . S
H1264 C1274 0.950 . S
H1265 C1276 0.950 . S
H1266 C1278 0.950 . S
H1267 C1279 0.950 . S
C1268 H1260 0.950 . S
C1268 C1269 1.386 . S
C1268 C1270 1.391 . S
C1269 C1268 1.386 . S
C1269 C1273 1.393 . S
C1270 H1262 0.950 . S
C1270 C1268 1.391 . S
C1270 C1271 1.400 . S
C1271 C1270 1.400 . S
C1271 C1272 1.398 . S
C1271 C1277 1.491 . S
C1272 H1263 0.950 . S
C1272 C1271 1.398 . S
C1272 C1273 1.391 . S
C1273 H1261 0.950 . S
C1273 C1269 1.393 . S
C1273 C1272 1.391 . S
C1274 H1264 0.950 . S
C1274 C1275 1.386 . S
C1274 C1276 1.391 . S
C1275 C1274 1.386 . S
C1275 C1279 1.393 . S
C1276 H1265 0.950 . S
C1276 C1274 1.391 . S
C1276 C1277 1.400 . S
C1277 C1271 1.491 . S
C1277 C1276 1.400 . S
C1277 C1278 1.398 . S
C1278 H1266 0.950 . S
C1278 C1277 1.398 . S
C1278 C1279 1.391 . S
C1279 H1267 0.950 . S
C1279 C1275 1.393 . S
C1279 C1278 1.391 . S
H1280 C1288 0.950 . S
H1281 C1293 0.950 . S
H1282 C1290 0.950 . S
H1283 C1292 0.950 . S
H1284 C1294 0.950 . S
H1285 C1296 0.950 . S
H1286 C1298 0.950 . S
H1287 C1299 0.950 . S
C1288 H1280 0.950 . S
C1288 C1289 1.386 . S
C1288 C1290 1.391 . S
C1289 C1288 1.386 . S
C1289 C1293 1.393 . S
C1290 H1282 0.950 . S
C1290 C1288 1.391 . S
C1290 C1291 1.400 . S
C1291 C1290 1.400 . S
C1291 C1292 1.398 . S
C1291 C1297 1.491 . S
C1292 H1283 0.950 . S
C1292 C1291 1.398 . S
C1292 C1293 1.391 . S
C1293 H1281 0.950 . S
C1293 C1289 1.393 . S
C1293 C1292 1.391 . S
C1294 H1284 0.950 . S
C1294 C1295 1.386 . S
C1294 C1296 1.391 . S
C1295 C1294 1.386 . S
C1295 C1299 1.393 . S
C1296 H1285 0.950 . S
C1296 C1294 1.391 . S
C1296 C1297 1.400 . S
C1297 C1291 1.491 . S
C1297 C1296 1.400 . S
C1297 C1298 1.398 . S
C1298 H1286 0.950 . S
C1298 C1297 1.398 . S
C1298 C1299 1.391 . S
C1299 H1287 0.950 . S
C1299 C1295 1.393 . S
C1299 C1298 1.391 . S
H1300 C1308 0.950 . S
H1301 C1313 0.950 . S
H1302 C1310 0.950 . S
H1303 C1312 0.950 . S
H1304 C1314 0.950 . S
H1305 C1316 0.950 . S
H1306 C1318 0.950 . S
H1307 C1319 0.950 . S
C1308 H1300 0.950 . S
C1308 C1309 1.386 . S
C1308 C1310 1.391 . S
C1309 C1308 1.386 . S
C1309 C1313 1.393 . S
C1310 H1302 0.950 . S
C1310 C1308 1.391 . S
C1310 C1311 1.400 . S
C1311 C1310 1.400 . S
C1311 C1312 1.398 . S
C1311 C1317 1.491 . S
C1312 H1303 0.950 . S
C1312 C1311 1.398 . S
C1312 C1313 1.391 . S
C1313 H1301 0.950 . S
C1313 C1309 1.393 . S
C1313 C1312 1.391 . S
C1314 H1304 0.950 . S
C1314 C1315 1.386 . S
C1314 C1316 1.391 . S
C1315 C1314 1.386 . S
C1315 C1319 1.393 . S
C1316 H1305 0.950 . S
C1316 C1314 1.391 . S
C1316 C1317 1.400 . S
C1317 C1311 1.491 . S
C1317 C1316 1.400 . S
C1317 C1318 1.398 . S
C1318 H1306 0.950 . S
C1318 C1317 1.398 . S
C1318 C1319 1.391 . S
C1319 H1307 0.950 . S
C1319 C1315 1.393 . S
C1319 C1318 1.391 . S
H1320 C1328 0.950 . S
H1321 C1333 0.950 . S
H1322 C1330 0.950 . S
H1323 C1332 0.950 . S
H1324 C1334 0.950 . S
H1325 C1336 0.950 . S
H1326 C1338 0.950 . S
H1327 C1339 0.950 . S
C1328 H1320 0.950 . S
C1328 C1329 1.386 . S
C1328 C1330 1.391 . S
C1329 C1328 1.386 . S
C1329 C1333 1.393 . S
C1330 H1322 0.950 . S
C1330 C1328 1.391 . S
C1330 C1331 1.400 . S
C1331 C1330 1.400 . S
C1331 C1332 1.398 . S
C1331 C1337 1.491 . S
C1332 H1323 0.950 . S
C1332 C1331 1.398 . S
C1332 C1333 1.391 . S
C1333 H1321 0.950 . S
C1333 C1329 1.393 . S
C1333 C1332 1.391 . S
C1334 H1324 0.950 . S
C1334 C1335 1.386 . S
C1334 C1336 1.391 . S
C1335 C1334 1.386 . S
C1335 C1339 1.393 . S
C1336 H1325 0.950 . S
C1336 C1334 1.391 . S
C1336 C1337 1.400 . S
C1337 C1331 1.491 . S
C1337 C1336 1.400 . S
C1337 C1338 1.398 . S
C1338 H1326 0.950 . S
C1338 C1337 1.398 . S
C1338 C1339 1.391 . S
C1339 H1327 0.950 . S
C1339 C1335 1.393 . S
C1339 C1338 1.391 . S
H1340 C1348 0.950 . S
H1341 C1353 0.950 . S
H1342 C1350 0.950 . S
H1343 C1352 0.950 . S
H1344 C1354 0.950 . S
H1345 C1356 0.950 . S
H1346 C1358 0.950 . S
H1347 C1359 0.950 . S
C1348 H1340 0.950 . S
C1348 C1349 1.386 . S
C1348 C1350 1.391 . S
C1349 C1348 1.386 . S
C1349 C1353 1.393 . S
C1350 H1342 0.950 . S
C1350 C1348 1.391 . S
C1350 C1351 1.400 . S
C1351 C1350 1.400 . S
C1351 C1352 1.398 . S
C1351 C1357 1.491 . S
C1352 H1343 0.950 . S
C1352 C1351 1.398 . S
C1352 C1353 1.391 . S
C1353 H1341 0.950 . S
C1353 C1349 1.393 . S
C1353 C1352 1.391 . S
C1354 H1344 0.950 . S
C1354 C1355 1.386 . S
C1354 C1356 1.391 . S
C1355 C1354 1.386 . S
C1355 C1359 1.393 . S
C1356 H1345 0.950 . S
C1356 C1354 1.391 . S
C1356 C1357 1.400 . S
C1357 C1351 1.491 . S
C1357 C1356 1.400 . S
C1357 C1358 1.398 . S
C1358 H1346 0.950 . S
C1358 C1357 1.398 . S
C1358 C1359 1.391 . S
C1359 H1347 0.950 . S
C1359 C1355 1.393 . S
C1359 C1358 1.391 . S
H1360 C1368 0.950 . S
H1361 C1373 0.950 . S
H1362 C1370 0.950 . S
H1363 C1372 0.950 . S
H1364 C1374 0.950 . S
H1365 C1376 0.950 . S
H1366 C1378 0.950 . S
H1367 C1379 0.950 . S
C1368 H1360 0.950 . S
C1368 C1369 1.386 . S
C1368 C1370 1.391 . S
C1369 C1368 1.386 . S
C1369 C1373 1.393 . S
C1370 H1362 0.950 . S
C1370 C1368 1.391 . S
C1370 C1371 1.400 . S
C1371 C1370 1.400 . S
C1371 C1372 1.398 . S
C1371 C1377 1.491 . S
C1372 H1363 0.950 . S
C1372 C1371 1.398 . S
C1372 C1373 1.391 . S
C1373 H1361 0.950 . S
C1373 C1369 1.393 . S
C1373 C1372 1.391 . S
C1374 H1364 0.950 . S
C1374 C1375 1.386 . S
C1374 C1376 1.391 . S
C1375 C1374 1.386 . S
C1375 C1379 1.393 . S
C1376 H1365 0.950 . S
C1376 C1374 1.391 . S
C1376 C1377 1.400 . S
C1377 C1371 1.491 . S
C1377 C1376 1.400 . S
C1377 C1378 1.398 . S
C1378 H1366 0.950 . S
C1378 C1377 1.398 . S
C1378 C1379 1.391 . S
C1379 H1367 0.950 . S
C1379 C1375 1.393 . S
C1379 C1378 1.391 . S
H1380 C1388 0.950 . S
H1381 C1393 0.950 . S
H1382 C1390 0.950 . S
H1383 C1392 0.950 . S
H1384 C1394 0.950 . S
H1385 C1396 0.950 . S
H1386 C1398 0.950 . S
H1387 C1399 0.950 . S
C1388 H1380 0.950 . S
C1388 C1389 1.386 . S
C1388 C1390 1.391 . S
C1389 C1388 1.386 . S
C1389 C1393 1.393 . S
C1390 H1382 0.950 . S
C1390 C1388 1.391 . S
C1390 C1391 1.400 . S
C1391 C1390 1.400 . S
C1391 C1392 1.398 . S
C1391 C1397 1.491 . S
C1392 H1383 0.950 . S
C1392 C1391 1.398 . S
C1392 C1393 1.391 . S
C1393 H1381 0.950 . S
C1393 C1389 1.393 . S
C1393 C1392 1.391 . S
C1394 H1384 0.950 . S
C1394 C1395 1.386 . S
C1394 C1396 1.391 . S
C1395 C1394 1.386 . S
C1395 C1399 1.393 . S
C1396 H1385 0.950 . S
C1396 C1394 1.391 . S
C1396 C1397 1.400 . S
C1397 C1391 1.491 . S
C1397 C1396 1.400 . S
C1397 C1398 1.398 . S
C1398 H1386 0.950 . S
C1398 C1397 1.398 . S
C1398 C1399 1.391 . S
C1399 H1387 0.950 . S
C1399 C1395 1.393 . S
C1399 C1398 1.391 . S
H1400 C1408 0.950 . S
H1401 C1413 0.950 . S
H1402 C1410 0.950 . S
H1403 C1412 0.950 . S
H1404 C1414 0.950 . S
H1405 C1416 0.950 . S
H1406 C1418 0.950 . S
H1407 C1419 0.950 . S
C1408 H1400 0.950 . S
C1408 C1409 1.386 . S
C1408 C1410 1.391 . S
C1409 C1408 1.386 . S
C1409 C1413 1.393 . S
C1410 H1402 0.950 . S
C1410 C1408 1.391 . S
C1410 C1411 1.400 . S
C1411 C1410 1.400 . S
C1411 C1412 1.398 . S
C1411 C1417 1.491 . S
C1412 H1403 0.950 . S
C1412 C1411 1.398 . S
C1412 C1413 1.391 . S
C1413 H1401 0.950 . S
C1413 C1409 1.393 . S
C1413 C1412 1.391 . S
C1414 H1404 0.950 . S
C1414 C1415 1.386 . S
C1414 C1416 1.391 . S
C1415 C1414 1.386 . S
C1415 C1419 1.393 . S
C1416 H1405 0.950 . S
C1416 C1414 1.391 . S
C1416 C1417 1.400 . S
C1417 C1411 1.491 . S
C1417 C1416 1.400 . S
C1417 C1418 1.398 . S
C1418 H1406 0.950 . S
C1418 C1417 1.398 . S
C1418 C1419 1.391 . S
C1419 H1407 0.950 . S
C1419 C1415 1.393 . S
C1419 C1418 1.391 . S
H1420 C1428 0.950 . S
H1421 C1433 0.950 . S
H1422 C1430 0.950 . S
H1423 C1432 0.950 . S
H1424 C1434 0.950 . S
H1425 C1436 0.950 . S
H1426 C1438 0.950 . S
H1427 C1439 0.950 . S
C1428 H1420 0.950 . S
C1428 C1429 1.386 . S
C1428 C1430 1.391 . S
C1429 C1428 1.386 . S
C1429 C1433 1.393 . S
C1430 H1422 0.950 . S
C1430 C1428 1.391 . S
C1430 C1431 1.400 . S
C1431 C1430 1.400 . S
C1431 C1432 1.398 . S
C1431 C1437 1.491 . S
C1432 H1423 0.950 . S
C1432 C1431 1.398 . S
C1432 C1433 1.391 . S
C1433 H1421 0.950 . S
C1433 C1429 1.393 . S
C1433 C1432 1.391 . S
C1434 H1424 0.950 . S
C1434 C1435 1.386 . S
C1434 C1436 1.391 . S
C1435 C1434 1.386 . S
C1435 C1439 1.393 . S
C1436 H1425 0.950 . S
C1436 C1434 1.391 . S
C1436 C1437 1.400 . S
C1437 C1431 1.491 . S
C1437 C1436 1.400 . S
C1437 C1438 1.398 . S
C1438 H1426 0.950 . S
C1438 C1437 1.398 . S
C1438 C1439 1.391 . S
C1439 H1427 0.950 . S
C1439 C1435 1.393 . S
C1439 C1438 1.391 . S
H1440 C1448 0.950 . S
H1441 C1453 0.950 . S
H1442 C1450 0.950 . S
H1443 C1452 0.950 . S
H1444 C1454 0.950 . S
H1445 C1456 0.950 . S
H1446 C1458 0.950 . S
H1447 C1459 0.950 . S
C1448 H1440 0.950 . S
C1448 C1449 1.386 . S
C1448 C1450 1.391 . S
C1449 C1448 1.386 . S
C1449 C1453 1.393 . S
C1450 H1442 0.950 . S
C1450 C1448 1.391 . S
C1450 C1451 1.400 . S
C1451 C1450 1.400 . S
C1451 C1452 1.398 . S
C1451 C1457 1.491 . S
C1452 H1443 0.950 . S
C1452 C1451 1.398 . S
C1452 C1453 1.391 . S
C1453 H1441 0.950 . S
C1453 C1449 1.393 . S
C1453 C1452 1.391 . S
C1454 H1444 0.950 . S
C1454 C1455 1.386 . S
C1454 C1456 1.391 . S
C1455 C1454 1.386 . S
C1455 C1459 1.393 . S
C1456 H1445 0.950 . S
C1456 C1454 1.391 . S
C1456 C1457 1.400 . S
C1457 C1451 1.491 . S
C1457 C1456 1.400 . S
C1457 C1458 1.398 . S
C1458 H1446 0.950 . S
C1458 C1457 1.398 . S
C1458 C1459 1.391 . S
C1459 H1447 0.950 . S
C1459 C1455 1.393 . S
C1459 C1458 1.391 . S
H1460 C1468 0.950 . S
H1461 C1473 0.950 . S
H1462 C1470 0.950 . S
H1463 C1472 0.950 . S
H1464 C1474 0.950 . S
H1465 C1476 0.950 . S
H1466 C1478 0.950 . S
H1467 C1479 0.950 . S
C1468 H1460 0.950 . S
C1468 C1469 1.386 . S
C1468 C1470 1.391 . S
C1469 C1468 1.386 . S
C1469 C1473 1.393 . S
C1470 H1462 0.950 . S
C1470 C1468 1.391 . S
C1470 C1471 1.400 . S
C1471 C1470 1.400 . S
C1471 C1472 1.398 . S
C1471 C1477 1.491 . S
C1472 H1463 0.950 . S
C1472 C1471 1.398 . S
C1472 C1473 1.391 . S
C1473 H1461 0.950 . S
C1473 C1469 1.393 . S
C1473 C1472 1.391 . S
C1474 H1464 0.950 . S
C1474 C1475 1.386 . S
C1474 C1476 1.391 . S
C1475 C1474 1.386 . S
C1475 C1479 1.393 . S
C1476 H1465 0.950 . S
C1476 C1474 1.391 . S
C1476 C1477 1.400 . S
C1477 C1471 1.491 . S
C1477 C1476 1.400 . S
C1477 C1478 1.398 . S
C1478 H1466 0.950 . S
C1478 C1477 1.398 . S
C1478 C1479 1.391 . S
C1479 H1467 0.950 . S
C1479 C1475 1.393 . S
C1479 C1478 1.391 . S
H1480 C1488 0.950 . S
H1481 C1493 0.950 . S
H1482 C1490 0.950 . S
H1483 C1492 0.950 . S
H1484 C1494 0.950 . S
H1485 C1496 0.950 . S
H1486 C1498 0.950 . S
H1487 C1499 0.950 . S
C1488 H1480 0.950 . S
C1488 C1489 1.386 . S
C1488 C1490 1.391 . S
C1489 C1488 1.386 . S
C1489 C1493 1.393 . S
C1490 H1482 0.950 . S
C1490 C1488 1.391 . S
C1490 C1491 1.400 . S
C1491 C1490 1.400 . S
C1491 C1492 1.398 . S
C1491 C1497 1.491 . S
C1492 H1483 0.950 . S
C1492 C1491 1.398 . S
C1492 C1493 1.391 . S
C1493 H1481 0.950 . S
C1493 C1489 1.393 . S
C1493 C1492 1.391 . S
C1494 H1484 0.950 . S
C1494 C1495 1.386 . S
C1494 C1496 1.391 . S
C1495 C1494 1.386 . S
C1495 C1499 1.393 . S
C1496 H1485 0.950 . S
C1496 C1494 1.391 . S
C1496 C1497 1.400 . S
C1497 C1491 1.491 . S
C1497 C1496 1.400 . S
C1497 C1498 1.398 . S
C1498 H1486 0.950 . S
C1498 C1497 1.398 . S
C1498 C1499 1.391 . S
C1499 H1487 0.950 . S
C1499 C1495 1.393 . S
C1499 C1498 1.391 . S
H1500 C1508 0.950 . S
H1501 C1513 0.950 . S
H1502 C1510 0.950 . S
H1503 C1512 0.950 . S
H1504 C1514 0.950 . S
H1505 C1516 0.950 . S
H1506 C1518 0.950 . S
H1507 C1519 0.950 . S
C1508 H1500 0.950 . S
C1508 C1509 1.386 . S
C1508 C1510 1.391 . S
C1509 C1508 1.386 . S
C1509 C1513 1.393 . S
C1510 H1502 0.950 . S
C1510 C1508 1.391 . S
C1510 C1511 1.400 . S
C1511 C1510 1.400 . S
C1511 C1512 1.398 . S
C1511 C1517 1.491 . S
C1512 H1503 0.950 . S
C1512 C1511 1.398 . S
C1512 C1513 1.391 . S
C1513 H1501 0.950 . S
C1513 C1509 1.393 . S
C1513 C1512 1.391 . S
C1514 H1504 0.950 . S
C1514 C1515 1.386 . S
C1514 C1516 1.391 . S
C1515 C1514 1.386 . S
C1515 C1519 1.393 . S
C1516 H1505 0.950 . S
C1516 C1514 1.391 . S
C1516 C1517 1.400 . S
C1517 C1511 1.491 . S
C1517 C1516 1.400 . S
C1517 C1518 1.398 . S
C1518 H1506 0.950 . S
C1518 C1517 1.398 . S
C1518 C1519 1.391 . S
C1519 H1507 0.950 . S
C1519 C1515 1.393 . S
C1519 C1518 1.391 . S
H1520 C1528 0.950 . S
H1521 C1533 0.950 . S
H1522 C1530 0.950 . S
H1523 C1532 0.950 . S
H1524 C1534 0.950 . S
H1525 C1536 0.950 . S
H1526 C1538 0.950 . S
H1527 C1539 0.950 . S
C1528 H1520 0.950 . S
C1528 C1529 1.386 . S
C1528 C1530 1.391 . S
C1529 C1528 1.386 . S
C1529 C1533 1.393 . S
C1530 H1522 0.950 . S
C1530 C1528 1.391 . S
C1530 C1531 1.400 . S
C1531 C1530 1.400 . S
C1531 C1532 1.398 . S
C1531 C1537 1.491 . S
C1532 H1523 0.950 . S
C1532 C1531 1.398 . S
C1532 C1533 1.391 . S
C1533 H1521 0.950 . S
C1533 C1529 1.393 . S
C1533 C1532 1.391 . S
C1534 H1524 0.950 . S
C1534 C1535 1.386 . S
C1534 C1536 1.391 . S
C1535 C1534 1.386 . S
C1535 C1539 1.393 . S
C1536 H1525 0.950 . S
C1536 C1534 1.391 . S
C1536 C1537 1.400 . S
C1537 C1531 1.491 . S
C1537 C1536 1.400 . S
C1537 C1538 1.398 . S
C1538 H1526 0.950 . S
C1538 C1537 1.398 . S
C1538 C1539 1.391 . S
C1539 H1527 0.950 . S
C1539 C1535 1.393 . S
C1539 C1538 1.391 . S
H1540 C1548 0.950 . S
H1541 C1553 0.950 . S
H1542 C1550 0.950 . S
H1543 C1552 0.950 . S
H1544 C1554 0.950 . S
H1545 C1556 0.950 . S
H1546 C1558 0.950 . S
H1547 C1559 0.950 . S
C1548 H1540 0.950 . S
C1548 C1549 1.386 . S
C1548 C1550 1.391 . S
C1549 C1548 1.386 . S
C1549 C1553 1.393 . S
C1550 H1542 0.950 . S
C1550 C1548 1.391 . S
C1550 C1551 1.400 . S
C1551 C1550 1.400 . S
C1551 C1552 1.398 . S
C1551 C1557 1.491 . S
C1552 H1543 0.950 . S
C1552 C1551 1.398 . S
C1552 C1553 1.391 . S
C1553 H1541 0.950 . S
C1553 C1549 1.393 . S
C1553 C1552 1.391 . S
C1554 H1544 0.950 . S
C1554 C1555 1.386 . S
C1554 C1556 1.391 . S
C1555 C1554 1.386 . S
C1555 C1559 1.393 . S
C1556 H1545 0.950 . S
C1556 C1554 1.391 . S
C1556 C1557 1.400 . S
C1557 C1551 1.491 . S
C1557 C1556 1.400 . S
C1557 C1558 1.398 . S
C1558 H1546 0.950 . S
C1558 C1557 1.398 . S
C1558 C1559 1.391 . S
C1559 H1547 0.950 . S
C1559 C1555 1.393 . S
C1559 C1558 1.391 . S
H1560 C1568 0.950 . S
H1561 C1573 0.950 . S
H1562 C1570 0.950 . S
H1563 C1572 0.950 . S
H1564 C1574 0.950 . S
H1565 C1576 0.950 . S
H1566 C1578 0.950 . S
H1567 C1579 0.950 . S
C1568 H1560 0.950 . S
C1568 C1569 1.386 . S
C1568 C1570 1.391 . S
C1569 C1568 1.386 . S
C1569 C1573 1.393 . S
C1570 H1562 0.950 . S
C1570 C1568 1.391 . S
C1570 C1571 1.400 . S
C1571 C1570 1.400 . S
C1571 C1572 1.398 . S
C1571 C1577 1.491 . S
C1572 H1563 0.950 . S
C1572 C1571 1.398 . S
C1572 C1573 1.391 . S
C1573 H1561 0.950 . S
C1573 C1569 1.393 . S
C1573 C1572 1.391 . S
C1574 H1564 0.950 . S
C1574 C1575 1.386 . S
C1574 C1576 1.391 . S
C1575 C1574 1.386 . S
C1575 C1579 1.393 . S
C1576 H1565 0.950 . S
C1576 C1574 1.391 . S
C1576 C1577 1.400 . S
C1577 C1571 1.491 . S
C1577 C1576 1.400 . S
C1577 C1578 1.398 . S
C1578 H1566 0.950 . S
C1578 C1577 1.398 . S
C1578 C1579 1.391 . S
C1579 H1567 0.950 . S
C1579 C1575 1.393 . S
C1579 C1578 1.391 . S
H1580 C1588 0.950 . S
H1581 C1593 0.950 . S
H1582 C1590 0.950 . S
H1583 C1592 0.950 . S
H1584 C1594 0.950 . S
H1585 C1596 0.950 . S
H1586 C1598 0.950 . S
H1587 C1599 0.950 . S
C1588 H1580 0.950 . S
C1588 C1589 1.386 . S
C1588 C1590 1.391 . S
C1589 C1588 1.386 . S
C1589 C1593 1.393 . S
C1590 H1582 0.950 . S
C1590 C1588 1.391 . S
C1590 C1591 1.400 . S
C1591 C1590 1.400 . S
C1591 C1592 1.398 . S
C1591 C1597 1.491 . S
C1592 H1583 0.950 . S
C1592 C1591 1.398 . S
C1592 C1593 1.391 . S
C1593 H1581 0.950 . S
C1593 C1589 1.393 . S
C1593 C1592 1.391 . S
C1594 H1584 0.950 . S
C1594 C1595 1.386 . S
C1594 C1596 1.391 . S
C1595 C1594 1.386 . S
C1595 C1599 1.393 . S
C1596 H1585 0.950 . S
C1596 C1594 1.391 . S
C1596 C1597 1.400 . S
C1597 C1591 1.491 . S
C1597 C1596 1.400 . S
C1597 C1598 1.398 . S
C1598 H1586 0.950 . S
C1598 C1597 1.398 . S
C1598 C1599 1.391 . S
C1599 H1587 0.950 . S
C1599 C1595 1.393 . S
C1599 C1598 1.391 . S
C649 C139 1.252 . S
C655 C9 1.249 . S
C669 C6 1.357 . S
C675 C46 1.366 . S
C689 C98 1.380 . S
C695 C59 1.378 . S
C709 C126 1.078 . S
C715 C90 1.095 . S
C729 C175 1.350 . S
C735 C206 1.316 . S
C749 C209 1.516 . S
C755 C258 1.450 . S
C769 C255 1.073 . S
C775 C290 1.085 . S
C789 C178 1.363 . S
C795 C298 1.378 . S
C809 C379 3.912 . S
C815 C19 3.868 . S
C829 C410 1.237 . S
C835 C49 1.262 . S
C849 C95 1.246 . S
C855 C535 1.269 . S
C869 C330 1.327 . S
C875 C129 1.296 . S
C889 C449 1.276 . S
C895 C170 1.311 . S
C909 C579 3.868 . S
C915 C219 3.912 . S
C929 C250 1.252 . S
C935 C489 1.264 . S
C949 C615 1.249 . S
C955 C295 1.274 . S
C969 C338 1.364 . S
C975 C538 1.379 . S
C989 C366 1.302 . S
C995 C335 1.346 . S
C1009 C418 1.459 . S
C1015 C369 1.509 . S
C1029 C569 1.251 . S
C1035 C459 1.256 . S
C1049 C499 1.367 . S
C1055 C618 1.371 . S
C1069 C450 1.258 . S
C1075 C18 1.265 . S
C1089 C495 1.355 . S
C1095 C15 1.346 . S
C1109 C490 1.372 . S
C1115 C89 1.376 . S
C1129 C99 1.098 . S
C1135 C455 1.078 . S
C1149 C375 1.289 . S
C1155 C166 1.337 . S
C1169 C378 1.505 . S
C1175 C249 1.445 . S
C1189 C539 1.087 . S
C1195 C246 1.062 . S
C1209 C169 1.366 . S
C1215 C529 1.379 . S
C1229 C210 3.908 . S
C1235 C10 3.868 . S
C1249 C419 1.229 . S
C1255 C498 1.273 . S
C1269 C86 1.252 . S
C1275 C286 1.267 . S
C1289 C339 1.322 . S
C1295 C458 1.271 . S
C1309 C138 1.271 . S
C1315 C179 1.321 . S
C1329 C370 3.909 . S
C1335 C570 3.875 . S
C1349 C259 1.239 . S
C1355 C58 1.260 . S
C1369 C606 1.245 . S
C1375 C526 1.274 . S
C1389 C329 1.366 . S
C1395 C289 1.379 . S
C1409 C326 1.348 . S
C1415 C215 1.318 . S
C1429 C409 1.450 . S
C1435 C218 1.516 . S
C1449 C130 1.255 . S
C1455 C578 1.250 . S
C1469 C50 1.371 . S
C1475 C609 1.375 . S
C1489 C486 1.372 . S
C1495 C566 1.364 . S
C1509 C446 1.107 . S
C1515 C610 1.117 . S
C1529 C415 1.062 . S
C1535 C530 1.087 . S
C1549 C575 1.357 . S
C1555 C55 1.365 . S
C1569 C135 1.083 . S
C1575 C619 1.106 . S
C1589 C299 1.077 . S
C1595 C406 1.058 . S
