# Generated by pormake.
# Topology vbg, (5)-cn, num edge types: 1
# Building blocks:
#     Node 0, Type 0, BuildingBlock: BEQFEK_clean_sbu_0, # of connection points: 5
#     Node 1, Type 0, BuildingBlock: BEQFEK_clean_sbu_0, # of connection points: 5
#     Node 2, Type 0, BuildingBlock: BEQFEK_clean_sbu_0, # of connection points: 5
#     Node 3, Type 0, BuildingBlock: BEQFEK_clean_sbu_0, # of connection points: 5
#     Node 4, Type 0, BuildingBlock: BEQFEK_clean_sbu_0, # of connection points: 5
#     Node 5, Type 0, BuildingBlock: BEQFEK_clean_sbu_0, # of connection points: 5
#     Node 6, Type 0, BuildingBlock: BEQFEK_clean_sbu_0, # of connection points: 5
#     Node 7, Type 0, BuildingBlock: BEQFEK_clean_sbu_0, # of connection points: 5
#     Node 8, Type 0, BuildingBlock: BEQFEK_clean_sbu_0, # of connection points: 5
#     Node 9, Type 0, BuildingBlock: BEQFEK_clean_sbu_0, # of connection points: 5
#     Node 10, Type 0, BuildingBlock: BEQFEK_clean_sbu_0, # of connection points: 5
#     Node 11, Type 0, BuildingBlock: BEQFEK_clean_sbu_0, # of connection points: 5
#     Node 12, Type 0, BuildingBlock: BEQFEK_clean_sbu_0, # of connection points: 5
#     Node 13, Type 0, BuildingBlock: BEQFEK_clean_sbu_0, # of connection points: 5
#     Node 14, Type 0, BuildingBlock: BEQFEK_clean_sbu_0, # of connection points: 5
#     Node 15, Type 0, BuildingBlock: BEQFEK_clean_sbu_0, # of connection points: 5
#     Node 16, Type 0, BuildingBlock: BEQFEK_clean_sbu_0, # of connection points: 5
#     Node 17, Type 0, BuildingBlock: BEQFEK_clean_sbu_0, # of connection points: 5
#     Node 18, Type 0, BuildingBlock: BEQFEK_clean_sbu_0, # of connection points: 5
#     Node 19, Type 0, BuildingBlock: BEQFEK_clean_sbu_0, # of connection points: 5
#     Node 20, Type 0, BuildingBlock: BEQFEK_clean_sbu_0, # of connection points: 5
#     Node 21, Type 0, BuildingBlock: BEQFEK_clean_sbu_0, # of connection points: 5
#     Node 22, Type 0, BuildingBlock: BEQFEK_clean_sbu_0, # of connection points: 5
#     Node 23, Type 0, BuildingBlock: BEQFEK_clean_sbu_0, # of connection points: 5
#     Node 24, Type 0, BuildingBlock: BEQFEK_clean_sbu_0, # of connection points: 5
#     Node 25, Type 0, BuildingBlock: BEQFEK_clean_sbu_0, # of connection points: 5
#     Node 26, Type 0, BuildingBlock: BEQFEK_clean_sbu_0, # of connection points: 5
#     Node 27, Type 0, BuildingBlock: BEQFEK_clean_sbu_0, # of connection points: 5
#     Node 28, Type 0, BuildingBlock: BEQFEK_clean_sbu_0, # of connection points: 5
#     Node 29, Type 0, BuildingBlock: BEQFEK_clean_sbu_0, # of connection points: 5
#     Node 30, Type 0, BuildingBlock: BEQFEK_clean_sbu_0, # of connection points: 5
#     Node 31, Type 0, BuildingBlock: BEQFEK_clean_sbu_0, # of connection points: 5
#     Edge 32, Type (0, 0), BuildingBlock: XIVTED_clean_linker_0, # of connection points: 2
#     Edge 33, Type (0, 0), BuildingBlock: XIVTED_clean_linker_0, # of connection points: 2
#     Edge 34, Type (0, 0), BuildingBlock: XIVTED_clean_linker_0, # of connection points: 2
#     Edge 35, Type (0, 0), BuildingBlock: XIVTED_clean_linker_0, # of connection points: 2
#     Edge 36, Type (0, 0), BuildingBlock: XIVTED_clean_linker_0, # of connection points: 2
#     Edge 37, Type (0, 0), BuildingBlock: XIVTED_clean_linker_0, # of connection points: 2
#     Edge 38, Type (0, 0), BuildingBlock: XIVTED_clean_linker_0, # of connection points: 2
#     Edge 39, Type (0, 0), BuildingBlock: XIVTED_clean_linker_0, # of connection points: 2
#     Edge 40, Type (0, 0), BuildingBlock: XIVTED_clean_linker_0, # of connection points: 2
#     Edge 41, Type (0, 0), BuildingBlock: XIVTED_clean_linker_0, # of connection points: 2
#     Edge 42, Type (0, 0), BuildingBlock: XIVTED_clean_linker_0, # of connection points: 2
#     Edge 43, Type (0, 0), BuildingBlock: XIVTED_clean_linker_0, # of connection points: 2
#     Edge 44, Type (0, 0), BuildingBlock: XIVTED_clean_linker_0, # of connection points: 2
#     Edge 45, Type (0, 0), BuildingBlock: XIVTED_clean_linker_0, # of connection points: 2
#     Edge 46, Type (0, 0), BuildingBlock: XIVTED_clean_linker_0, # of connection points: 2
#     Edge 47, Type (0, 0), BuildingBlock: XIVTED_clean_linker_0, # of connection points: 2
#     Edge 48, Type (0, 0), BuildingBlock: XIVTED_clean_linker_0, # of connection points: 2
#     Edge 49, Type (0, 0), BuildingBlock: XIVTED_clean_linker_0, # of connection points: 2
#     Edge 50, Type (0, 0), BuildingBlock: XIVTED_clean_linker_0, # of connection points: 2
#     Edge 51, Type (0, 0), BuildingBlock: XIVTED_clean_linker_0, # of connection points: 2
#     Edge 52, Type (0, 0), BuildingBlock: XIVTED_clean_linker_0, # of connection points: 2
#     Edge 53, Type (0, 0), BuildingBlock: XIVTED_clean_linker_0, # of connection points: 2
#     Edge 54, Type (0, 0), BuildingBlock: XIVTED_clean_linker_0, # of connection points: 2
#     Edge 55, Type (0, 0), BuildingBlock: XIVTED_clean_linker_0, # of connection points: 2
#     Edge 56, Type (0, 0), BuildingBlock: XIVTED_clean_linker_0, # of connection points: 2
#     Edge 57, Type (0, 0), BuildingBlock: XIVTED_clean_linker_0, # of connection points: 2
#     Edge 58, Type (0, 0), BuildingBlock: XIVTED_clean_linker_0, # of connection points: 2
#     Edge 59, Type (0, 0), BuildingBlock: XIVTED_clean_linker_0, # of connection points: 2
#     Edge 60, Type (0, 0), BuildingBlock: XIVTED_clean_linker_0, # of connection points: 2
#     Edge 61, Type (0, 0), BuildingBlock: XIVTED_clean_linker_0, # of connection points: 2
#     Edge 62, Type (0, 0), BuildingBlock: XIVTED_clean_linker_0, # of connection points: 2
#     Edge 63, Type (0, 0), BuildingBlock: XIVTED_clean_linker_0, # of connection points: 2
#     Edge 64, Type (0, 0), BuildingBlock: XIVTED_clean_linker_0, # of connection points: 2
#     Edge 65, Type (0, 0), BuildingBlock: XIVTED_clean_linker_0, # of connection points: 2
#     Edge 66, Type (0, 0), BuildingBlock: XIVTED_clean_linker_0, # of connection points: 2
#     Edge 67, Type (0, 0), BuildingBlock: XIVTED_clean_linker_0, # of connection points: 2
#     Edge 68, Type (0, 0), BuildingBlock: XIVTED_clean_linker_0, # of connection points: 2
#     Edge 69, Type (0, 0), BuildingBlock: XIVTED_clean_linker_0, # of connection points: 2
#     Edge 70, Type (0, 0), BuildingBlock: XIVTED_clean_linker_0, # of connection points: 2
#     Edge 71, Type (0, 0), BuildingBlock: XIVTED_clean_linker_0, # of connection points: 2
#     Edge 72, Type (0, 0), BuildingBlock: XIVTED_clean_linker_0, # of connection points: 2
#     Edge 73, Type (0, 0), BuildingBlock: XIVTED_clean_linker_0, # of connection points: 2
#     Edge 74, Type (0, 0), BuildingBlock: XIVTED_clean_linker_0, # of connection points: 2
#     Edge 75, Type (0, 0), BuildingBlock: XIVTED_clean_linker_0, # of connection points: 2
#     Edge 76, Type (0, 0), BuildingBlock: XIVTED_clean_linker_0, # of connection points: 2
#     Edge 77, Type (0, 0), BuildingBlock: XIVTED_clean_linker_0, # of connection points: 2
#     Edge 78, Type (0, 0), BuildingBlock: XIVTED_clean_linker_0, # of connection points: 2
#     Edge 79, Type (0, 0), BuildingBlock: XIVTED_clean_linker_0, # of connection points: 2
#     Edge 80, Type (0, 0), BuildingBlock: XIVTED_clean_linker_0, # of connection points: 2
#     Edge 81, Type (0, 0), BuildingBlock: XIVTED_clean_linker_0, # of connection points: 2
#     Edge 82, Type (0, 0), BuildingBlock: XIVTED_clean_linker_0, # of connection points: 2
#     Edge 83, Type (0, 0), BuildingBlock: XIVTED_clean_linker_0, # of connection points: 2
#     Edge 84, Type (0, 0), BuildingBlock: XIVTED_clean_linker_0, # of connection points: 2
#     Edge 85, Type (0, 0), BuildingBlock: XIVTED_clean_linker_0, # of connection points: 2
#     Edge 86, Type (0, 0), BuildingBlock: XIVTED_clean_linker_0, # of connection points: 2
#     Edge 87, Type (0, 0), BuildingBlock: XIVTED_clean_linker_0, # of connection points: 2
#     Edge 88, Type (0, 0), BuildingBlock: XIVTED_clean_linker_0, # of connection points: 2
#     Edge 89, Type (0, 0), BuildingBlock: XIVTED_clean_linker_0, # of connection points: 2
#     Edge 90, Type (0, 0), BuildingBlock: XIVTED_clean_linker_0, # of connection points: 2
#     Edge 91, Type (0, 0), BuildingBlock: XIVTED_clean_linker_0, # of connection points: 2
#     Edge 92, Type (0, 0), BuildingBlock: XIVTED_clean_linker_0, # of connection points: 2
#     Edge 93, Type (0, 0), BuildingBlock: XIVTED_clean_linker_0, # of connection points: 2
#     Edge 94, Type (0, 0), BuildingBlock: XIVTED_clean_linker_0, # of connection points: 2
#     Edge 95, Type (0, 0), BuildingBlock: XIVTED_clean_linker_0, # of connection points: 2
#     Edge 96, Type (0, 0), BuildingBlock: XIVTED_clean_linker_0, # of connection points: 2
#     Edge 97, Type (0, 0), BuildingBlock: XIVTED_clean_linker_0, # of connection points: 2
#     Edge 98, Type (0, 0), BuildingBlock: XIVTED_clean_linker_0, # of connection points: 2
#     Edge 99, Type (0, 0), BuildingBlock: XIVTED_clean_linker_0, # of connection points: 2
#     Edge 100, Type (0, 0), BuildingBlock: XIVTED_clean_linker_0, # of connection points: 2
#     Edge 101, Type (0, 0), BuildingBlock: XIVTED_clean_linker_0, # of connection points: 2
#     Edge 102, Type (0, 0), BuildingBlock: XIVTED_clean_linker_0, # of connection points: 2
#     Edge 103, Type (0, 0), BuildingBlock: XIVTED_clean_linker_0, # of connection points: 2
#     Edge 104, Type (0, 0), BuildingBlock: XIVTED_clean_linker_0, # of connection points: 2
#     Edge 105, Type (0, 0), BuildingBlock: XIVTED_clean_linker_0, # of connection points: 2
#     Edge 106, Type (0, 0), BuildingBlock: XIVTED_clean_linker_0, # of connection points: 2
#     Edge 107, Type (0, 0), BuildingBlock: XIVTED_clean_linker_0, # of connection points: 2
#     Edge 108, Type (0, 0), BuildingBlock: XIVTED_clean_linker_0, # of connection points: 2
#     Edge 109, Type (0, 0), BuildingBlock: XIVTED_clean_linker_0, # of connection points: 2
#     Edge 110, Type (0, 0), BuildingBlock: XIVTED_clean_linker_0, # of connection points: 2
#     Edge 111, Type (0, 0), BuildingBlock: XIVTED_clean_linker_0, # of connection points: 2
# Relax obj value: 0.283
# Max RMSD: 0.144
# Mean RMSD: 0.144
data_MOF--net-vbg--node1-BEQFEK_clean_sbu_0--edge1-XIVTED_clean_linker_0
_symmetry_space_group_name_H-M    P1
_symmetry_Int_Tables_number       1
_symmetry_cell_setting            triclinic
loop_
_symmetry_equiv_pos_as_xyz
'x, y, z'
_cell_length_a     74.314661
_cell_length_b     49.079123
_cell_length_c     41.05917
_cell_angle_alpha  89.983039
_cell_angle_beta   89.88567
_cell_angle_gamma 90.220425
loop_
_atom_site_label
_atom_site_type_symbol
_atom_site_fract_x
_atom_site_fract_y
_atom_site_fract_z
_atom_type_partial_charge
Co0 Co 0.02465 0.16956 0.47539 0.0
Co1 Co 0.02841 0.21127 0.41944 0.0
C2 C 0.01398 0.15577 0.40549 0.0
O3 O 0.01549 0.14947 0.43551 0.0
O4 O 0.01812 0.17957 0.39574 0.0
C5 C 0.999 0.15021 0.51897 0.0
O6 O 0.98843 0.15773 0.495 0.0
C7 C 0.02019 0.24976 0.36735 0.0
C8 C 0.04551 0.27349 0.36435 0.0
C9 C 0.02859 0.27079 0.35067 0.0
N10 N 0.03157 0.24062 0.39016 0.0
N11 N 0.04664 0.25494 0.38838 0.0
C12 C 1.00209 0.23748 0.36059 0.0
H13 H 1.00042 0.21772 0.37319 0.0
H14 H 0.99143 0.25132 0.3696 0.0
H15 H 1.0002 0.2348 0.33396 0.0
C16 C 0.01371 0.22053 0.50944 0.0
N17 N 0.01627 0.20619 0.4817 0.0
N18 N 0.01545 0.22294 0.45684 0.0
C19 C 0.01117 0.24812 0.4678 0.0
C20 C 0.00984 0.2475 0.50171 0.0
C21 C 0.01972 0.21094 0.54225 0.0
H22 H 0.02748 0.19178 0.54044 0.0
H23 H 0.00786 0.20795 0.55808 0.0
H24 H 0.02831 0.22668 0.55397 0.0
O25 O 0.05134 0.17144 0.47426 0.0
O26 O 0.05296 0.20133 0.43364 0.0
H27 H 0.02331 0.28031 0.44031 0.0
H28 H 1.0019 0.28907 0.45848 0.0
C29 C 0.00964 0.27264 0.44637 0.0
H30 H 1.00274 0.26702 0.42348 0.0
H31 H 0.05781 0.25176 0.40323 0.0
O32 O 0.01588 0.14935 0.51374 0.0
C33 C 0.06054 0.18624 0.45479 0.0
Co34 Co 0.2325 0.20071 0.47274 0.0
Co35 Co 0.225 0.16184 0.41514 0.0
C36 C 0.24236 0.21645 0.40361 0.0
O37 O 0.24181 0.22196 0.43397 0.0
O38 O 0.23695 0.19339 0.39326 0.0
C39 C 0.25632 0.22665 0.51886 0.0
O40 O 0.26841 0.2251 0.49556 0.0
C41 C 0.23312 0.1268 0.36097 0.0
C42 C 0.2078 0.1037 0.35407 0.0
C43 C 0.22506 0.10702 0.34181 0.0
N44 N 0.22116 0.1349 0.38331 0.0
N45 N 0.20601 0.12118 0.37911 0.0
C46 C 0.25219 0.13669 0.35999 0.0
H47 H 0.25634 0.14412 0.38439 0.0
H48 H 0.26137 0.12023 0.35188 0.0
H49 H 0.25324 0.15395 0.34263 0.0
C50 C 0.24553 0.14813 0.50213 0.0
N51 N 0.24047 0.16327 0.47615 0.0
N52 N 0.23725 0.14678 0.45163 0.0
C53 C 0.24008 0.12073 0.46124 0.0
C54 C 0.24541 0.12061 0.49379 0.0
C55 C 0.25004 0.15973 0.53473 0.0
H56 H 0.23896 0.17302 0.54323 0.0
H57 H 0.26245 0.17196 0.53196 0.0
H58 H 0.25279 0.14391 0.55326 0.0
O59 O 0.20547 0.20058 0.47191 0.0
O60 O 0.20117 0.1737 0.42903 0.0
H61 H 0.23714 0.07703 0.45459 0.0
H62 H 0.24303 0.09625 0.41854 0.0
C63 C 0.23497 0.09639 0.4413 0.0
H64 H 0.22057 0.0978 0.43457 0.0
H65 H 0.1945 0.12366 0.39341 0.0
O66 O 0.24015 0.2198 0.51263 0.0
C67 C 0.19505 0.18859 0.45177 0.0
Co68 Co 0.026 0.20757 0.7766 0.0
Co69 Co 0.03104 0.17063 0.83689 0.0
C70 C 0.01509 0.22643 0.84398 0.0
O71 O 0.01711 0.23079 0.81358 0.0
O72 O 0.01905 0.20337 0.85616 0.0
C73 C 0.00351 0.23376 0.72904 0.0
O74 O 0.99141 0.23412 0.75242 0.0
C75 C 0.02073 0.13415 0.88945 0.0
C76 C 0.047 0.11768 0.90506 0.0
C77 C 0.02872 0.1168 0.91175 0.0
N78 N 0.03367 0.14458 0.87034 0.0
N79 N 0.04934 0.13463 0.87965 0.0
C80 C 1.00136 0.14224 0.8874 0.0
H81 H 0.99987 0.16142 0.87344 0.0
H82 H 0.99369 0.12609 0.87454 0.0
H83 H 0.99556 0.14467 0.91216 0.0
C84 C 0.01229 0.15495 0.749 0.0
N85 N 0.01687 0.17063 0.77483 0.0
N86 N 0.01959 0.15466 0.80003 0.0
C87 C 0.01723 0.12837 0.79083 0.0
C88 C 0.0125 0.1276 0.75798 0.0
C89 C 0.00815 0.16594 0.71595 0.0
H90 H 0.99634 0.17937 0.71829 0.0
H91 H 0.00459 0.14982 0.69821 0.0
H92 H 0.01977 0.1779 0.70672 0.0
O93 O 0.0529 0.20548 0.77861 0.0
O94 O 0.05547 0.18099 0.82391 0.0
H95 H 0.03607 0.10828 0.82197 0.0
H96 H 0.02305 0.08534 0.79706 0.0
C97 C 0.0226 0.10451 0.81131 0.0
H98 H 0.01283 0.10205 0.83154 0.0
H99 H 0.06166 0.13971 0.86897 0.0
O100 O 0.01936 0.22572 0.7356 0.0
C101 C 0.06252 0.19404 0.80034 0.0
Co102 Co 0.23256 0.16446 0.77505 0.0
Co103 Co 0.2292 0.20561 0.83159 0.0
C104 C 0.24315 0.14983 0.84468 0.0
O105 O 0.24176 0.14383 0.81454 0.0
O106 O 0.23908 0.17351 0.85475 0.0
C107 C 0.25792 0.14548 0.73089 0.0
O108 O 0.2686 0.15264 0.7549 0.0
C109 C 0.23802 0.24329 0.88403 0.0
C110 C 0.21274 0.26661 0.88885 0.0
C111 C 0.22983 0.26383 0.90168 0.0
N112 N 0.22635 0.2345 0.86147 0.0
N113 N 0.21129 0.24856 0.86432 0.0
C114 C 0.25617 0.23101 0.88977 0.0
H115 H 0.25782 0.21191 0.87581 0.0
H116 H 0.26679 0.24544 0.88168 0.0
H117 H 0.25812 0.2271 0.91616 0.0
C118 C 0.24394 0.21568 0.74165 0.0
N119 N 0.24123 0.2011 0.7692 0.0
N120 N 0.24217 0.21762 0.79427 0.0
C121 C 0.24663 0.24288 0.78363 0.0
C122 C 0.248 0.24255 0.74971 0.0
C123 C 0.23795 0.20642 0.70866 0.0
H124 H 0.24985 0.20328 0.69298 0.0
H125 H 0.22965 0.22242 0.69693 0.0
H126 H 0.2299 0.18744 0.71019 0.0
O127 O 0.20581 0.16652 0.77652 0.0
O128 O 0.20462 0.19605 0.81753 0.0
H129 H 0.23465 0.27471 0.81167 0.0
H130 H 0.25601 0.28382 0.79337 0.0
C131 C 0.24828 0.26722 0.80534 0.0
H132 H 0.25525 0.26144 0.82808 0.0
H133 H 0.19992 0.24551 0.84991 0.0
O134 O 0.24104 0.14467 0.73623 0.0
C135 C 0.19683 0.1812 0.79634 0.0
Co136 Co 0.98455 0.95569 0.53297 0.0
Co137 Co 0.9756 0.91731 0.59072 0.0
C138 C 0.99445 0.97092 0.602 0.0
O139 O 0.99433 0.97644 0.57163 0.0
O140 O 0.98825 0.94829 0.61233 0.0
C141 C 0.00865 0.98008 0.48518 0.0
O142 O 0.02117 0.978 0.50758 0.0
C143 C 0.98282 0.87833 0.6419 0.0
C144 C 0.95556 0.86325 0.65425 0.0
C145 C 0.97356 0.86064 0.66227 0.0
N146 N 0.97085 0.89055 0.62249 0.0
N147 N 0.95458 0.88146 0.62983 0.0
C148 C 1.00251 0.88498 0.64198 0.0
H149 H 0.00765 0.88592 0.66732 0.0
H150 H 0.00512 0.90457 0.62939 0.0
H151 H 0.00994 0.86883 0.62878 0.0
C152 C 0.99625 0.90236 0.50393 0.0
N153 N 0.9915 0.91776 0.52988 0.0
N154 N 0.9873 0.90141 0.55412 0.0
C155 C 0.98896 0.87521 0.54415 0.0
C156 C 0.99473 0.87488 0.51185 0.0
C157 C 1.00195 0.9137 0.47182 0.0
H158 H 0.99128 0.92717 0.46216 0.0
H159 H 0.01438 0.92558 0.47585 0.0
H160 H 0.00514 0.89774 0.45367 0.0
O161 O 0.95748 0.9571 0.53386 0.0
O162 O 0.95226 0.93068 0.57689 0.0
H163 H 0.96861 0.85564 0.57292 0.0
H164 H 0.9815 0.83252 0.54813 0.0
C165 C 0.98221 0.85123 0.5632 0.0
H166 H 0.99133 0.8475 0.58403 0.0
H167 H 0.9428 0.88792 0.61845 0.0
O168 O 0.99247 0.97416 0.49266 0.0
C169 C 0.94668 0.94588 0.55405 0.0
Co170 Co 0.77776 0.91493 0.53108 0.0
Co171 Co 0.77946 0.95576 0.58772 0.0
C172 C 0.76609 0.89975 0.60015 0.0
O173 O 0.76908 0.89415 0.57036 0.0
O174 O 0.76875 0.92375 0.61076 0.0
C175 C 0.7537 0.88952 0.48795 0.0
O176 O 0.74207 0.89623 0.5107 0.0
C177 C 0.76972 0.99387 0.63939 0.0
C178 C 0.79526 1.01649 0.64601 0.0
C179 C 0.77781 1.01428 0.65759 0.0
N180 N 0.78182 0.98463 0.61783 0.0
N181 N 0.79703 0.99828 0.62177 0.0
C182 C 0.75123 0.98213 0.6436 0.0
H183 H 0.7499 0.96243 0.63072 0.0
H184 H 0.7412 0.99631 0.63313 0.0
H185 H 0.74811 0.97944 0.66986 0.0
C186 C 0.76582 0.96606 0.49688 0.0
N187 N 0.76836 0.95128 0.52438 0.0
N188 N 0.76717 0.96772 0.54957 0.0
C189 C 0.76287 0.99304 0.53905 0.0
C190 C 0.76179 0.99291 0.50515 0.0
C191 C 0.77075 0.9565 0.46345 0.0
H192 H 0.77134 0.93422 0.46205 0.0
H193 H 0.76119 0.96468 0.4452 0.0
H194 H 0.78443 0.964 0.45729 0.0
O195 O 0.80424 0.91852 0.53274 0.0
O196 O 0.80451 0.94706 0.57472 0.0
H197 H 0.77736 1.02088 0.56929 0.0
H198 H 0.75939 1.0365 0.54701 0.0
C199 C 0.76346 1.01785 0.56023 0.0
H200 H 0.75444 1.01486 0.58144 0.0
H201 H 0.80871 0.99488 0.60826 0.0
O202 O 0.7704 0.89253 0.4938 0.0
C203 C 0.81277 0.93318 0.55318 0.0
Co204 Co 0.98126 0.92298 0.22623 0.0
Co205 Co 0.97069 0.96107 0.1695 0.0
C206 C 0.9872 0.90506 0.15754 0.0
O207 O 0.98912 0.90061 0.18791 0.0
O208 O 0.98037 0.92736 0.14765 0.0
C209 C 0.00528 0.89748 0.27349 0.0
O210 O 0.01765 0.89791 0.25057 0.0
C211 C 0.97927 0.99778 0.11675 0.0
C212 C 0.95266 1.01411 0.10297 0.0
C213 C 0.97081 1.01528 0.09524 0.0
N214 N 0.96675 0.98705 0.13648 0.0
N215 N 0.95086 0.99686 0.12827 0.0
C216 C 0.9987 0.98983 0.11757 0.0
H217 H 1.00039 0.97011 0.13038 0.0
H218 H 0.00644 1.00551 0.13109 0.0
H219 H 0.00423 0.98841 0.0925 0.0
C220 C 0.99624 0.97563 0.25174 0.0
N221 N 0.99008 0.96019 0.22679 0.0
N222 N 0.98501 0.97652 0.20317 0.0
C223 C 0.98718 1.00274 0.21284 0.0
C224 C 0.99439 1.00311 0.24416 0.0
C225 C 0.00336 0.96438 0.28287 0.0
H226 H 0.01466 0.95074 0.27679 0.0
H227 H 0.00866 0.98042 0.29927 0.0
H228 H 0.99262 0.95273 0.29555 0.0
O229 O 0.95411 0.92427 0.2289 0.0
O230 O 0.94742 0.95329 0.18913 0.0
H231 H 0.96537 1.02129 0.1871 0.0
H232 H 0.97853 1.04492 0.21089 0.0
C233 C 0.97916 1.02651 0.19529 0.0
H234 H 0.98742 1.0312 0.17348 0.0
H235 H 0.93878 0.99155 0.13967 0.0
O236 O 0.98936 0.90495 0.26657 0.0
C237 C 0.94269 0.93827 0.21286 0.0
Co238 Co 0.77206 0.95685 0.22777 0.0
Co239 Co 0.78168 0.91761 0.17173 0.0
C240 C 0.76654 0.97389 0.15851 0.0
O241 O 0.76573 0.97909 0.18885 0.0
O242 O 0.77198 0.95075 0.14855 0.0
C243 C 0.77276 0.98422 0.28905 0.0
O244 O 0.78984 0.98858 0.28243 0.0
C245 C 0.77352 0.87982 0.11996 0.0
C246 C 0.80021 0.86254 0.10832 0.0
C247 C 0.78222 0.86166 0.09955 0.0
N248 N 0.78577 0.8907 0.14002 0.0
N249 N 0.8017 0.88027 0.13314 0.0
C250 C 0.75419 0.8883 0.11936 0.0
H251 H 0.7524 0.90809 0.13196 0.0
H252 H 0.74595 0.87284 0.13236 0.0
H253 H 0.74929 0.8898 0.09391 0.0
C254 C 0.75515 0.90592 0.25369 0.0
N255 N 0.76205 0.9204 0.22853 0.0
N256 N 0.76708 0.9033 0.2057 0.0
C257 C 0.76439 0.87745 0.21627 0.0
C258 C 0.75674 0.87813 0.24735 0.0
C259 C 0.74824 0.91834 0.28438 0.0
H260 H 0.74071 0.9372 0.27874 0.0
H261 H 0.73922 0.90406 0.29764 0.0
H262 H 0.75984 0.92335 0.30015 0.0
O263 O 0.79904 0.95389 0.23162 0.0
O264 O 0.80506 0.92538 0.19104 0.0
H265 H 0.78619 0.85793 0.19137 0.0
H266 H 0.77307 0.8352 0.21637 0.0
C267 C 0.77239 0.85305 0.19989 0.0
H268 H 0.76413 0.84763 0.17837 0.0
H269 H 0.8136 0.88556 0.14506 0.0
O270 O 0.76257 0.97553 0.26657 0.0
C271 C 0.81015 0.93975 0.21506 0.0
Co272 Co 0.0226 0.66726 0.98475 0.0
Co273 Co 0.02673 0.70492 0.925 0.0
C274 C 0.0117 0.64858 0.91702 0.0
O275 O 0.01391 0.64398 0.94732 0.0
O276 O 0.01525 0.67196 0.90518 0.0
C277 C 1.00007 0.64058 0.03204 0.0
O278 O 0.98792 0.64084 0.00883 0.0
C279 C 0.01677 0.7409 0.87192 0.0
C280 C 0.04301 0.75922 0.85851 0.0
C281 C 0.02494 0.75883 0.85037 0.0
N282 N 0.02943 0.73133 0.89204 0.0
N283 N 0.04508 0.74239 0.88406 0.0
C284 C 0.99758 0.73152 0.87227 0.0
H285 H 0.99263 0.72851 0.84703 0.0
H286 H 0.99609 0.71239 0.88635 0.0
H287 H 0.98912 0.74725 0.88412 0.0
C288 C 0.0084 0.71944 0.01331 0.0
N289 N 0.01308 0.704 0.98732 0.0
N290 N 0.01493 0.72006 0.9619 0.0
C291 C 0.01167 0.74613 0.97098 0.0
C292 C 0.00737 0.74671 0.00404 0.0
C293 C 0.00543 0.70837 0.04678 0.0
H294 H 0.01711 0.69587 0.05422 0.0
H295 H 0.99326 0.69543 0.046 0.0
H296 H 1.00296 0.72444 0.06514 0.0
O297 O 0.04951 0.67013 0.98264 0.0
O298 O 0.05124 0.69557 0.93803 0.0
H299 H 0.0148 0.78975 0.96366 0.0
H300 H 0.00616 0.77086 0.92937 0.0
C301 C 0.01575 0.77034 0.94998 0.0
H302 H 0.02954 0.7685 0.93988 0.0
H303 H 0.05721 0.73812 0.89571 0.0
O304 O 0.01601 0.64842 0.02543 0.0
C305 C 0.05877 0.68253 0.96099 0.0
Co306 Co 0.2309 0.70129 0.97172 0.0
Co307 Co 0.22301 0.66207 0.91459 0.0
C308 C 0.24038 0.71673 0.90253 0.0
O309 O 0.24014 0.72229 0.93286 0.0
O310 O 0.23464 0.6938 0.89235 0.0
C311 C 0.25474 0.72829 0.01701 0.0
O312 O 0.26673 0.72697 0.99351 0.0
C313 C 0.23143 0.62382 0.86321 0.0
C314 C 0.20467 0.6069 0.85089 0.0
C315 C 0.22273 0.60576 0.84257 0.0
N316 N 0.2191 0.63487 0.88298 0.0
N317 N 0.20313 0.62465 0.87568 0.0
C318 C 0.25086 0.63203 0.86297 0.0
H319 H 0.25288 0.65138 0.87639 0.0
H320 H 0.25891 0.61609 0.87526 0.0
H321 H 0.25581 0.63418 0.83758 0.0
C322 C 0.24428 0.64907 1.00123 0.0
N323 N 0.23902 0.66397 0.9752 0.0
N324 N 0.23538 0.64724 0.95108 0.0
C325 C 0.23795 0.62125 0.96116 0.0
C326 C 0.24373 0.62146 0.99343 0.0
C327 C 0.24945 0.66104 0.03332 0.0
H328 H 0.26152 0.67382 0.02938 0.0
H329 H 0.25298 0.64541 0.05165 0.0
H330 H 0.23837 0.6739 0.04271 0.0
O331 O 0.20381 0.70089 0.97149 0.0
O332 O 0.19926 0.67362 0.92907 0.0
H333 H 0.21822 0.60007 0.93277 0.0
H334 H 0.23195 0.57802 0.95736 0.0
C335 C 0.23199 0.59675 0.94227 0.0
H336 H 0.24116 0.59375 0.92127 0.0
H337 H 0.19117 0.63014 0.88724 0.0
O338 O 0.23867 0.7207 0.01124 0.0
C339 C 0.19326 0.68857 0.95187 0.0
Co340 Co 0.02457 0.70717 0.28277 0.0
Co341 Co 0.02842 0.66577 0.33905 0.0
C342 C 0.01365 0.72094 0.35257 0.0
O343 O 0.01526 0.72716 0.32253 0.0
O344 O 0.01783 0.69726 0.36249 0.0
C345 C 0.99851 0.72588 0.24043 0.0
O346 O 0.98839 0.71878 0.26534 0.0
C347 C 0.01989 0.62723 0.39101 0.0
C348 C 0.04534 0.60427 0.39513 0.0
C349 C 0.02821 0.6065 0.40814 0.0
N350 N 0.03151 0.63662 0.36859 0.0
N351 N 0.04667 0.62276 0.37105 0.0
C352 C 1.00161 0.63901 0.39703 0.0
H353 H 0.99993 0.65858 0.38407 0.0
H354 H 0.99117 0.62475 0.38794 0.0
H355 H 0.9994 0.64192 0.42355 0.0
C356 C 0.0139 0.65599 0.24895 0.0
N357 N 0.01643 0.67036 0.27666 0.0
N358 N 0.01573 0.65359 0.30153 0.0
C359 C 0.01159 0.62831 0.29058 0.0
C360 C 0.01018 0.62894 0.25668 0.0
C361 C 0.01982 0.66575 0.21607 0.0
H362 H 0.02749 0.68508 0.21779 0.0
H363 H 0.00793 0.66845 0.20039 0.0
H364 H 0.02847 0.65021 0.20425 0.0
O365 O 0.05126 0.70587 0.28397 0.0
O366 O 0.05298 0.67652 0.3252 0.0
H367 H 0.02398 0.5966 0.31815 0.0
H368 H 1.00278 0.58699 0.29979 0.0
C369 C 0.01026 0.60372 0.31196 0.0
H370 H 0.00318 0.60904 0.33479 0.0
H371 H 0.05802 0.62623 0.35661 0.0
O372 O 0.01548 0.72696 0.24447 0.0
C373 C 0.06048 0.69168 0.30387 0.0
Co374 Co 0.22992 0.66351 0.27179 0.0
Co375 Co 0.22802 0.70199 0.33079 0.0
C376 C 0.24223 0.64629 0.33994 0.0
O377 O 0.23903 0.64146 0.30998 0.0
O378 O 0.23952 0.66989 0.35169 0.0
C379 C 0.25507 0.64544 0.22717 0.0
O380 O 0.26566 0.65163 0.25169 0.0
C381 C 0.23707 0.73579 0.38614 0.0
C382 C 0.21399 0.76406 0.38851 0.0
C383 C 0.23006 0.75747 0.40359 0.0
N384 N 0.22559 0.72975 0.36208 0.0
N385 N 0.21179 0.74658 0.3636 0.0
C386 C 0.25499 0.7224 0.39011 0.0
H387 H 0.25965 0.71395 0.36649 0.0
H388 H 0.26513 0.7371 0.39944 0.0
H389 H 0.25369 0.70534 0.40771 0.0
C390 C 0.24126 0.71567 0.24054 0.0
N391 N 0.2387 0.7002 0.26742 0.0
N392 N 0.23999 0.71579 0.29325 0.0
C393 C 0.24448 0.74136 0.28376 0.0
C394 C 0.2455 0.74223 0.24979 0.0
C395 C 0.2352 0.70736 0.20722 0.0
H396 H 0.22689 0.68859 0.20813 0.0
H397 H 0.24709 0.70405 0.19154 0.0
H398 H 0.22717 0.72386 0.19592 0.0
O399 O 0.20338 0.66575 0.27429 0.0
O400 O 0.20301 0.69218 0.31829 0.0
H401 H 0.23313 0.77309 0.31276 0.0
H402 H 0.25492 0.78123 0.29568 0.0
C403 C 0.24659 0.76482 0.30669 0.0
H404 H 0.25306 0.75787 0.32949 0.0
H405 H 0.20095 0.74625 0.34748 0.0
O406 O 0.23816 0.64486 0.23212 0.0
C407 C 0.1948 0.67878 0.2962 0.0
Co408 Co 0.98053 0.46165 0.0231 0.0
Co409 Co 0.98007 0.42153 0.08089 0.0
C410 C 0.99216 0.47842 0.09177 0.0
O411 O 0.98889 0.48365 0.06195 0.0
O412 O 0.99014 0.45438 0.10275 0.0
C413 C 0.00538 0.48317 0.98045 0.0
O414 O 0.01567 0.478 0.00569 0.0
C415 C 0.9901 0.38491 0.13409 0.0
C416 C 0.96552 0.35961 0.13858 0.0
C417 C 0.98241 0.36383 0.15182 0.0
N418 N 0.9783 0.39265 0.11121 0.0
N419 N 0.9637 0.37735 0.11387 0.0
C420 C 0.00789 0.3985 0.13991 0.0
H421 H 0.00891 0.41799 0.12652 0.0
H422 H 0.01884 0.38509 0.13112 0.0
H423 H 0.00991 0.40202 0.16636 0.0
C424 C 0.99307 0.41103 0.99024 0.0
N425 N 0.9905 0.42584 0.01763 0.0
N426 N 0.99247 0.40985 0.04298 0.0
C427 C 0.99734 0.38475 0.03263 0.0
C428 C 0.99789 0.38454 0.99862 0.0
C429 C 0.9866 0.41972 0.95734 0.0
H430 H 0.97796 0.438 0.95904 0.0
H431 H 0.99831 0.42407 0.94154 0.0
H432 H 0.97881 0.40303 0.9457 0.0
O433 O 0.9541 0.45699 0.02524 0.0
O434 O 0.95484 0.42917 0.06797 0.0
H435 H 0.98698 0.3523 0.06196 0.0
H436 H 0.00839 0.34502 0.04289 0.0
C437 C 1.00021 0.36103 0.05485 0.0
H438 H 0.00724 0.36789 0.07714 0.0
H439 H 0.95234 0.37937 0.09918 0.0
O440 O 0.98839 0.48186 0.98421 0.0
C441 C 0.94608 0.44229 0.04642 0.0
Co442 Co 0.77436 0.41579 0.03037 0.0
Co443 Co 0.78263 0.45422 0.08822 0.0
C444 C 0.76465 0.39984 0.0993 0.0
O445 O 0.76494 0.39437 0.06892 0.0
O446 O 0.77046 0.42268 0.10964 0.0
C447 C 0.7509 0.39003 0.98287 0.0
O448 O 0.73855 0.39053 0.00581 0.0
C449 C 0.77453 0.48893 0.14268 0.0
C450 C 0.80011 0.51106 0.15084 0.0
C451 C 0.7827 0.50811 0.16254 0.0
N452 N 0.78657 0.48077 0.12051 0.0
N453 N 0.80188 0.49392 0.12545 0.0
C454 C 0.75534 0.4796 0.14293 0.0
H455 H 0.7513 0.47265 0.11827 0.0
H456 H 0.7463 0.49622 0.15113 0.0
H457 H 0.75391 0.46213 0.15991 0.0
C458 C 0.76124 0.46863 1.00201 0.0
N459 N 0.76653 0.45331 0.02767 0.0
N460 N 0.77045 0.4697 0.05197 0.0
C461 C 0.76805 0.49584 0.04241 0.0
C462 C 0.76217 0.49614 0.01018 0.0
C463 C 0.75553 0.45719 0.96998 0.0
H464 H 0.76659 0.44485 0.95952 0.0
H465 H 0.74365 0.44409 0.97431 0.0
H466 H 0.75149 0.47309 0.95234 0.0
O467 O 0.80144 0.41581 0.03098 0.0
O468 O 0.80632 0.44226 0.07403 0.0
H469 H 0.77283 0.53928 0.0483 0.0
H470 H 0.76592 0.52114 0.08457 0.0
C471 C 0.77408 0.51992 0.06198 0.0
H472 H 0.78835 0.51719 0.06906 0.0
H473 H 0.81347 0.49125 0.11146 0.0
O474 O 0.76688 0.39733 0.98986 0.0
C475 C 0.81212 0.42747 0.05093 0.0
Co476 Co 0.97862 0.41451 0.73434 0.0
Co477 Co 0.97758 0.45446 0.67624 0.0
C478 C 0.99092 0.39825 0.66582 0.0
O479 O 0.98755 0.39295 0.69562 0.0
O480 O 0.98857 0.42216 0.65471 0.0
C481 C 0.00385 0.39361 0.7763 0.0
O482 O 0.01379 0.39807 0.75031 0.0
C483 C 0.98765 0.49151 0.62336 0.0
C484 C 0.96263 0.51526 0.61743 0.0
C485 C 0.97984 0.51205 0.60512 0.0
N486 N 0.97561 0.48311 0.64566 0.0
N487 N 0.96074 0.49748 0.64214 0.0
C488 C 0.00581 0.47898 0.61854 0.0
H489 H 0.00703 0.45966 0.6322 0.0
H490 H 0.01632 0.49311 0.62768 0.0
H491 H 0.00834 0.4754 0.59223 0.0
C492 C 0.99031 0.46563 0.76716 0.0
N493 N 0.9878 0.45088 0.73973 0.0
N494 N 0.98938 0.46708 0.71447 0.0
C495 C 0.99393 0.49235 0.72495 0.0
C496 C 0.99474 0.49237 0.75896 0.0
C497 C 0.98429 0.45638 0.80015 0.0
H498 H 0.97558 0.43808 0.79849 0.0
H499 H 0.99625 0.45184 0.81503 0.0
H500 H 0.97673 0.47282 0.81267 0.0
O501 O 0.95213 0.41751 0.73156 0.0
O502 O 0.95238 0.44485 0.68828 0.0
H503 H 0.98296 0.52429 0.69581 0.0
H504 H 0.00418 0.53277 0.71491 0.0
C505 C 0.99635 0.51634 0.70289 0.0
H506 H 0.00356 0.51 0.68056 0.0
H507 H 0.94916 0.4948 0.65624 0.0
O508 O 0.98682 0.39489 0.77342 0.0
C509 C 0.94387 0.43117 0.70982 0.0
Co510 Co 0.77322 0.4566 0.72533 0.0
Co511 Co 0.77755 0.41661 0.66771 0.0
C512 C 0.76266 0.47226 0.65608 0.0
O513 O 0.76381 0.47779 0.68638 0.0
O514 O 0.76716 0.44889 0.64557 0.0
C515 C 0.74797 0.47398 0.77116 0.0
O516 O 0.73699 0.4667 0.74764 0.0
C517 C 0.76859 0.3796 0.61457 0.0
C518 C 0.79392 0.35658 0.60871 0.0
C519 C 0.77666 0.35918 0.59655 0.0
N520 N 0.78047 0.38845 0.63677 0.0
N521 N 0.79558 0.37463 0.6332 0.0
C522 C 0.75026 0.39152 0.6097 0.0
H523 H 0.74881 0.41099 0.62298 0.0
H524 H 0.7399 0.37725 0.61916 0.0
H525 H 0.74767 0.39467 0.58335 0.0
C526 C 0.76248 0.40444 0.75736 0.0
N527 N 0.76514 0.41954 0.73019 0.0
N528 N 0.76469 0.40338 0.70475 0.0
C529 C 0.76052 0.3778 0.71477 0.0
C530 C 0.75886 0.37757 0.74866 0.0
C531 C 0.76827 0.4133 0.79064 0.0
H532 H 0.77623 0.43239 0.78961 0.0
H533 H 0.75628 0.41604 0.8062 0.0
H534 H 0.77661 0.39726 0.80216 0.0
O535 O 0.79992 0.4554 0.72372 0.0
O536 O 0.80215 0.42671 0.68193 0.0
H537 H 0.77315 0.34698 0.68605 0.0
H538 H 0.75195 0.33661 0.70406 0.0
C539 C 0.75937 0.35374 0.69253 0.0
H540 H 0.7523 0.35954 0.66993 0.0
H541 H 0.80708 0.37769 0.64729 0.0
O542 O 0.76473 0.4754 0.76492 0.0
C543 C 0.80939 0.4416 0.70375 0.0
Co544 Co 0.52295 0.1697 0.97487 0.0
Co545 Co 0.53365 0.20826 0.91859 0.0
C546 C 0.51666 0.15262 0.90595 0.0
O547 O 0.51471 0.14778 0.93627 0.0
O548 O 0.52368 0.17497 0.89641 0.0
C549 C 0.49922 0.1438 0.02297 0.0
O550 O 0.48665 0.14374 1.00051 0.0
C551 C 0.52576 0.24505 0.86581 0.0
C552 C 0.5525 0.26237 0.85392 0.0
C553 C 0.53451 0.26306 0.84515 0.0
N554 N 0.53797 0.23449 0.88608 0.0
N555 N 0.55393 0.24487 0.879 0.0
C556 C 0.50639 0.23655 0.86538 0.0
H557 H 0.50453 0.21678 0.87803 0.0
H558 H 0.49823 0.25198 0.87841 0.0
H559 H 0.50142 0.23503 0.83996 0.0
C560 C 0.50793 0.22243 1.00085 0.0
N561 N 0.51442 0.20707 0.9761 0.0
N562 N 0.51934 0.22346 0.95235 0.0
C563 C 0.51666 0.24963 0.96161 0.0
C564 C 0.50927 0.24993 0.99281 0.0
C565 C 0.50094 0.21109 0.03215 0.0
H566 H 0.48974 0.19705 0.02637 0.0
H567 H 0.49557 0.22705 0.04855 0.0
H568 H 0.51179 0.1998 0.04471 0.0
O569 O 0.55012 0.17032 0.97681 0.0
O570 O 0.55686 0.20003 0.93771 0.0
H571 H 0.53813 0.26926 0.93564 0.0
H572 H 0.52441 0.2923 0.959 0.0
C573 C 0.5242 0.27369 0.94369 0.0
H574 H 0.51591 0.27766 0.92181 0.0
H575 H 0.56581 0.23983 0.89106 0.0
O576 O 0.51503 0.15159 0.01537 0.0
C577 C 0.56158 0.18442 0.96078 0.0
Co578 Co 0.73102 0.20737 0.98029 0.0
Co579 Co 0.72649 0.16812 0.92211 0.0
C580 C 0.73988 0.225 0.91105 0.0
O581 O 0.73883 0.22979 0.94151 0.0
O582 O 0.73586 0.20158 0.89991 0.0
C583 C 0.75743 0.22497 0.02323 0.0
O584 O 0.76749 0.21926 0.99779 0.0
C585 C 0.73474 0.13263 0.86704 0.0
C586 C 0.70994 0.10772 0.86373 0.0
C587 C 0.72666 0.1118 0.84961 0.0
N588 N 0.7234 0.1403 0.89076 0.0
N589 N 0.70861 0.12535 0.88869 0.0
C590 C 0.75257 0.14591 0.86037 0.0
H591 H 0.75374 0.16566 0.87312 0.0
H592 H 0.76354 0.13262 0.86923 0.0
H593 H 0.75444 0.14889 0.83377 0.0
C594 C 0.74324 0.15533 0.00987 0.0
N595 N 0.74004 0.17079 0.98327 0.0
N596 N 0.74064 0.1552 0.95734 0.0
C597 C 0.74546 0.12971 0.96642 0.0
C598 C 0.74741 0.12891 1.00023 0.0
C599 C 0.73738 0.16311 0.0435 0.0
H600 H 0.7292 0.18193 0.04325 0.0
H601 H 0.74932 0.16595 0.05905 0.0
H602 H 0.72924 0.14646 0.0545 0.0
O603 O 0.70446 0.20464 0.98098 0.0
O604 O 0.702 0.17522 0.93994 0.0
H605 H 0.73315 0.09834 0.93797 0.0
H606 H 0.75504 0.08951 0.95395 0.0
C607 C 0.74684 0.10617 0.94346 0.0
H608 H 0.75318 0.11294 0.92044 0.0
H609 H 0.69755 0.12731 0.90419 0.0
O610 O 0.74043 0.22573 0.01948 0.0
C611 C 0.69493 0.18943 0.96258 0.0
Co612 Co 0.52678 0.21166 0.277 0.0
Co613 Co 0.53091 0.17167 0.33433 0.0
C614 C 0.51795 0.22834 0.34671 0.0
O615 O 0.51931 0.23363 0.31639 0.0
O616 O 0.52147 0.2046 0.35736 0.0
C617 C 0.50082 0.22952 0.23322 0.0
O618 O 0.49035 0.22273 0.25778 0.0
C619 C 0.52256 0.1378 0.39003 0.0
C620 C 0.54511 0.10852 0.39034 0.0
C621 C 0.52947 0.11563 0.40667 0.0
N622 N 0.53365 0.1436 0.36521 0.0
N623 N 0.54716 0.12618 0.36553 0.0
C624 C 0.50497 0.15189 0.39538 0.0
H625 H 0.50019 0.16118 0.37233 0.0
H626 H 0.49467 0.1374 0.40468 0.0
H627 H 0.50683 0.1684 0.41353 0.0
C628 C 0.51445 0.15997 0.24626 0.0
N629 N 0.51748 0.17516 0.27318 0.0
N630 N 0.51676 0.15923 0.29883 0.0
C631 C 0.51206 0.13378 0.28924 0.0
C632 C 0.51033 0.13334 0.25538 0.0
C633 C 0.52048 0.16824 0.21285 0.0
H634 H 0.52858 0.18721 0.21353 0.0
H635 H 0.50861 0.17096 0.19708 0.0
H636 H 0.52877 0.15189 0.20179 0.0
O637 O 0.55329 0.20856 0.27619 0.0
O638 O 0.55549 0.17877 0.31687 0.0
H639 H 0.52439 0.10179 0.31642 0.0
H640 H 0.50226 0.09352 0.30114 0.0
C641 C 0.51073 0.10991 0.31178 0.0
H642 H 0.50478 0.11635 0.33529 0.0
H643 H 0.55766 0.12617 0.34861 0.0
O644 O 0.51773 0.23071 0.23803 0.0
C645 C 0.56268 0.19308 0.29437 0.0
Co646 Co 0.73392 0.16425 0.27767 0.0
Co647 Co 0.72438 0.20307 0.33433 0.0
C648 C 0.74099 0.14736 0.34643 0.0
O649 O 0.74252 0.14262 0.31605 0.0
O650 O 0.73428 0.16972 0.35638 0.0
C651 C 0.75778 0.13817 0.23105 0.0
O652 O 0.77 0.13921 0.25411 0.0
C653 C 0.73314 0.2401 0.38672 0.0
C654 C 0.70664 0.25751 0.39942 0.0
C655 C 0.72471 0.25815 0.40767 0.0
N656 N 0.72067 0.22956 0.36684 0.0
N657 N 0.70485 0.24003 0.3744 0.0
C658 C 0.75246 0.23156 0.38651 0.0
H659 H 0.75407 0.21183 0.37371 0.0
H660 H 0.76057 0.24704 0.37329 0.0
H661 H 0.75766 0.22992 0.41176 0.0
C662 C 0.74804 0.21684 0.24998 0.0
N663 N 0.74248 0.20159 0.27561 0.0
N664 N 0.73816 0.21808 0.29958 0.0
C665 C 0.74036 0.24422 0.28965 0.0
C666 C 0.74673 0.2444 0.25769 0.0
C667 C 0.75404 0.2053 0.21817 0.0
H668 H 0.76577 0.19217 0.22296 0.0
H669 H 0.7584 0.22119 0.20066 0.0
H670 H 0.74306 0.19295 0.20735 0.0
O671 O 0.70675 0.16501 0.2767 0.0
O672 O 0.70089 0.19477 0.31617 0.0
H673 H 0.71919 0.2637 0.31625 0.0
H674 H 0.73283 0.2869 0.29272 0.0
C675 C 0.73308 0.26822 0.30788 0.0
H676 H 0.74155 0.27205 0.3296 0.0
H677 H 0.69282 0.23501 0.36274 0.0
O678 O 0.74179 0.1456 0.23758 0.0
C679 C 0.69568 0.17925 0.2933 0.0
Co680 Co 0.48046 0.96335 0.02492 0.0
Co681 Co 0.47847 0.92437 0.08367 0.0
C682 C 0.4921 0.9803 0.09383 0.0
O683 O 0.48905 0.98529 0.06381 0.0
O684 O 0.48954 0.95652 0.1053 0.0
C685 C 0.50596 0.98098 0.98034 0.0
O686 O 0.51644 0.97521 0.00513 0.0
C687 C 0.48626 0.8894 0.13896 0.0
C688 C 0.46304 0.86106 0.1383 0.0
C689 C 0.47872 0.86723 0.15498 0.0
N690 N 0.47545 0.89604 0.11415 0.0
N691 N 0.46156 0.87916 0.11388 0.0
C692 C 0.50406 0.90281 0.14503 0.0
H693 H 0.50928 0.91214 0.12224 0.0
H694 H 0.51395 0.88789 0.15445 0.0
H695 H 0.50232 0.91924 0.16331 0.0
C696 C 0.49194 0.91157 0.99381 0.0
N697 N 0.48942 0.92692 0.02073 0.0
N698 N 0.49096 0.91134 0.04652 0.0
C699 C 0.4957 0.88596 0.03693 0.0
C700 C 0.4966 0.88524 0.00296 0.0
C701 C 0.48507 0.91932 0.96085 0.0
H702 H 0.47714 0.93836 0.96184 0.0
H703 H 0.4965 0.92169 0.94389 0.0
H704 H 0.47639 0.9028 0.95103 0.0
O705 O 0.45393 0.96036 0.02634 0.0
O706 O 0.45361 0.93363 0.07006 0.0
H707 H 0.48458 0.85359 0.06543 0.0
H708 H 0.50655 0.84645 0.04868 0.0
C709 C 0.49797 0.86246 0.05971 0.0
H710 H 0.50421 0.86951 0.08271 0.0
H711 H 0.45117 0.87987 0.09686 0.0
O712 O 0.48906 0.98202 0.98525 0.0
C713 C 0.44537 0.94679 0.0479 0.0
Co714 Co 0.27526 0.91414 0.02177 0.0
Co715 Co 0.27971 0.95196 0.08114 0.0
C716 C 0.26371 0.89712 0.09048 0.0
O717 O 0.26625 0.89234 0.0603 0.0
O718 O 0.26726 0.9205 0.1022 0.0
C719 C 0.24939 0.89391 0.97808 0.0
O720 O 0.23867 0.89927 0.00272 0.0
C721 C 0.27155 0.98642 0.13606 0.0
C722 C 0.29652 1.0106 0.1418 0.0
C723 C 0.2795 1.00655 0.15485 0.0
N724 N 0.28334 0.97885 0.11314 0.0
N725 N 0.29828 0.9932 0.11668 0.0
C726 C 0.25264 0.97587 0.13779 0.0
H727 H 0.24832 0.96824 0.11357 0.0
H728 H 0.24331 0.99202 0.14617 0.0
H729 H 0.25205 0.95863 0.15526 0.0
C730 C 0.26466 0.96734 0.99173 0.0
N731 N 0.2675 0.95153 0.01825 0.0
N732 N 0.26811 0.96725 0.04412 0.0
C733 C 0.26498 0.99336 0.03505 0.0
C734 C 0.2627 0.99436 1.00139 0.0
C735 C 0.26529 0.95718 0.95741 0.0
H736 H 0.27388 0.93888 0.95553 0.0
H737 H 0.2514 0.95235 0.94976 0.0
H738 H 0.27044 0.97261 0.94014 0.0
O739 O 0.30203 0.91496 0.023 0.0
O740 O 0.30402 0.94043 0.06768 0.0
H741 H 0.26298 1.03658 0.04527 0.0
H742 H 0.25898 1.01417 0.07951 0.0
C743 C 0.26714 1.01734 0.0572 0.0
H744 H 0.28146 1.01921 0.06442 0.0
H745 H 0.30961 0.99126 0.10182 0.0
O746 O 0.26632 0.89535 0.98254 0.0
C747 C 0.31138 0.92687 0.04485 0.0
Co748 Co 0.4823 0.92099 0.72389 0.0
Co749 Co 0.47345 0.96017 0.66733 0.0
C750 C 0.48914 0.90395 0.65482 0.0
O751 O 0.49045 0.89906 0.68522 0.0
O752 O 0.4829 0.92664 0.64495 0.0
C753 C 0.50563 0.89445 0.77109 0.0
O754 O 0.51817 0.89551 0.74851 0.0
C755 C 0.48205 0.99373 0.61196 0.0
C756 C 0.45766 1.01891 0.60597 0.0
C757 C 0.47458 1.01408 0.593 0.0
N758 N 0.47008 0.98678 0.63492 0.0
N759 N 0.45546 1.00171 0.63122 0.0
C760 C 0.50068 0.98235 0.61033 0.0
H761 H 0.50475 0.97437 0.63451 0.0
H762 H 0.51042 0.99813 0.60212 0.0
H763 H 0.5009 0.96521 0.59272 0.0
C764 C 0.49736 0.97308 0.75144 0.0
N765 N 0.49147 0.95799 0.72597 0.0
N766 N 0.48778 0.97454 0.70172 0.0
C767 C 0.49102 1.00056 0.71113 0.0
C768 C 0.49717 1.0006 0.74318 0.0
C769 C 0.5025 0.96151 0.7837 0.0
H770 H 0.51433 0.94836 0.77984 0.0
H771 H 0.50642 0.97736 0.80156 0.0
H772 H 0.49123 0.9492 0.79365 0.0
O773 O 0.45524 0.92282 0.72522 0.0
O774 O 0.44976 0.95273 0.68583 0.0
H775 H 0.47052 1.02339 0.68717 0.0
H776 H 0.48786 1.04427 0.70509 0.0
C777 C 0.48516 1.02493 0.69203 0.0
H778 H 0.4923 1.02525 0.6683 0.0
H779 H 0.4441 1.00035 0.64611 0.0
O780 O 0.48975 0.90197 0.76398 0.0
C781 C 0.44434 0.93745 0.70885 0.0
Co782 Co 0.27301 0.95015 0.72195 0.0
Co783 Co 0.28315 0.91108 0.66605 0.0
C784 C 0.26641 0.9663 0.65253 0.0
O785 O 0.26483 0.97142 0.68283 0.0
O786 O 0.27316 0.94382 0.64311 0.0
C787 C 0.24822 0.97545 0.76749 0.0
O788 O 0.23614 0.97299 0.74434 0.0
C789 C 0.27579 0.87744 0.61051 0.0
C790 C 0.3006 0.85313 0.60499 0.0
C791 C 0.28377 0.85756 0.59153 0.0
N792 N 0.28737 0.88456 0.63392 0.0
N793 N 0.30224 0.87015 0.63053 0.0
C794 C 0.25702 0.88826 0.60837 0.0
H795 H 0.25249 0.89565 0.63257 0.0
H796 H 0.24762 0.87235 0.59937 0.0
H797 H 0.25683 0.90573 0.59121 0.0
C798 C 0.25889 0.89744 0.74968 0.0
N799 N 0.26463 0.91272 0.7242 0.0
N800 N 0.26878 0.89626 0.70009 0.0
C801 C 0.26597 0.87014 0.70955 0.0
C802 C 0.25963 0.86992 0.74151 0.0
C803 C 0.25335 0.90887 0.78182 0.0
H804 H 0.24106 0.92096 0.77782 0.0
H805 H 0.24998 0.89293 0.79994 0.0
H806 H 0.26414 0.92222 0.79152 0.0
O807 O 0.3001 0.94964 0.72417 0.0
O808 O 0.30645 0.91973 0.68516 0.0
H809 H 0.28709 0.84808 0.68621 0.0
H810 H 0.2699 0.82656 0.70361 0.0
C811 C 0.27242 0.84601 0.69063 0.0
H812 H 0.26555 0.84544 0.66669 0.0
H813 H 0.31341 0.87178 0.64578 0.0
O814 O 0.26447 0.96913 0.76135 0.0
C815 C 0.31139 0.93533 0.70817 0.0
Co816 Co 0.52109 0.66856 0.47663 0.0
Co817 Co 0.526 0.70635 0.41726 0.0
C818 C 0.51026 0.65074 0.40826 0.0
O819 O 0.51237 0.64599 0.43857 0.0
O820 O 0.51402 0.67412 0.39655 0.0
C821 C 0.49814 0.64261 0.52408 0.0
O822 O 0.48574 0.64396 0.50138 0.0
C823 C 0.51793 0.74102 0.36214 0.0
C824 C 0.54302 0.76504 0.3569 0.0
C825 C 0.52606 0.76127 0.34369 0.0
N826 N 0.52959 0.73316 0.38509 0.0
N827 N 0.5446 0.74741 0.3818 0.0
C828 C 0.49904 0.73055 0.35999 0.0
H829 H 0.49456 0.72262 0.38402 0.0
H830 H 0.48978 0.74683 0.35172 0.0
H831 H 0.49854 0.71353 0.34222 0.0
C832 C 0.50759 0.72101 0.50554 0.0
N833 N 0.51211 0.70553 0.47949 0.0
N834 N 0.51402 0.72157 0.45407 0.0
C835 C 0.51074 0.74765 0.46312 0.0
C836 C 0.5066 0.74828 0.49627 0.0
C837 C 0.50479 0.70996 0.53907 0.0
H838 H 0.51623 0.69674 0.54591 0.0
H839 H 0.49229 0.69776 0.53879 0.0
H840 H 0.50301 0.72608 0.55762 0.0
O841 O 0.54795 0.67069 0.47529 0.0
O842 O 0.55034 0.69603 0.43073 0.0
H843 H 0.52892 0.772 0.43508 0.0
H844 H 0.51122 0.79126 0.45409 0.0
C845 C 0.51447 0.77178 0.44183 0.0
H846 H 0.50646 0.77005 0.41917 0.0
H847 H 0.55585 0.74528 0.39675 0.0
O848 O 0.51419 0.64954 0.51699 0.0
C849 C 0.55752 0.68278 0.45389 0.0
Co850 Co 0.72885 0.70657 0.47583 0.0
Co851 Co 0.72335 0.66739 0.41774 0.0
C852 C 0.73946 0.7231 0.40735 0.0
O853 O 0.73821 0.72859 0.43764 0.0
O854 O 0.73487 0.69972 0.39675 0.0
C855 C 0.75103 0.73386 0.52359 0.0
O856 O 0.76356 0.73338 0.50097 0.0
C857 C 0.73373 0.6324 0.36472 0.0
C858 C 0.70886 0.60897 0.35482 0.0
C859 C 0.72653 0.61245 0.34471 0.0
N860 N 0.72091 0.64041 0.38549 0.0
N861 N 0.70603 0.6265 0.37948 0.0
C862 C 0.75273 0.64258 0.36603 0.0
H863 H 0.75585 0.6504 0.39076 0.0
H864 H 0.7623 0.62617 0.35944 0.0
H865 H 0.75436 0.65964 0.34851 0.0
C866 C 0.7427 0.65475 0.50581 0.0
N867 N 0.73781 0.66963 0.47951 0.0
N868 N 0.73517 0.65292 0.45496 0.0
C869 C 0.73805 0.62699 0.46496 0.0
C870 C 0.7429 0.62718 0.49776 0.0
C871 C 0.74692 0.66669 0.53835 0.0
H872 H 0.75882 0.67997 0.53537 0.0
H873 H 0.75039 0.65111 0.55678 0.0
H874 H 0.73537 0.67893 0.54705 0.0
O875 O 0.70182 0.70453 0.47351 0.0
O876 O 0.69901 0.67752 0.43037 0.0
H877 H 0.73461 0.58327 0.45904 0.0
H878 H 0.74208 0.60163 0.42331 0.0
C879 C 0.73325 0.60247 0.44508 0.0
H880 H 0.71914 0.60425 0.43665 0.0
H881 H 0.694 0.62887 0.39231 0.0
O882 O 0.73522 0.7259 0.51636 0.0
C883 C 0.69208 0.69185 0.45287 0.0
Co884 Co 0.52664 0.71354 0.77469 0.0
Co885 Co 0.52876 0.67543 0.83434 0.0
C886 C 0.51505 0.73155 0.84295 0.0
O887 O 0.5179 0.73614 0.81279 0.0
O888 O 0.51789 0.70806 0.85488 0.0
C889 C 0.501 0.73107 0.73114 0.0
O890 O 0.49087 0.72613 0.75675 0.0
C891 C 0.51979 0.63939 0.88875 0.0
C892 C 0.54478 0.61532 0.89316 0.0
C893 C 0.52778 0.61866 0.90634 0.0
N894 N 0.53147 0.6477 0.86582 0.0
N895 N 0.54637 0.63326 0.86855 0.0
C896 C 0.50171 0.65193 0.89455 0.0
H897 H 0.50068 0.67206 0.88266 0.0
H898 H 0.49109 0.63863 0.88413 0.0
H899 H 0.49913 0.65398 0.92107 0.0
C900 C 0.51515 0.6611 0.74472 0.0
N901 N 0.51773 0.67686 0.77131 0.0
N902 N 0.51644 0.66154 0.79741 0.0
C903 C 0.51194 0.63588 0.78835 0.0
C904 C 0.51089 0.63468 0.75445 0.0
C905 C 0.52133 0.66887 0.71126 0.0
H906 H 0.52941 0.68787 0.71168 0.0
H907 H 0.5095 0.67141 0.69533 0.0
H908 H 0.52965 0.65235 0.70063 0.0
O909 O 0.55319 0.71108 0.77636 0.0
O910 O 0.55362 0.68486 0.82057 0.0
H911 H 0.52348 0.60523 0.81873 0.0
H912 H 0.50227 0.59553 0.80046 0.0
C913 C 0.50995 0.61257 0.81156 0.0
H914 H 0.50277 0.61943 0.83368 0.0
H915 H 0.55766 0.63575 0.85369 0.0
O916 O 0.518 0.73158 0.73488 0.0
C917 C 0.5618 0.698 0.79816 0.0
Co918 Co 0.73163 0.66594 0.78116 0.0
Co919 Co 0.7282 0.70542 0.83943 0.0
C920 C 0.74277 0.64967 0.85005 0.0
O921 O 0.74112 0.64438 0.81975 0.0
O922 O 0.73867 0.67305 0.86103 0.0
C923 C 0.75666 0.64921 0.73469 0.0
O924 O 0.76773 0.65595 0.7583 0.0
C925 C 0.737 0.74213 0.8929 0.0
C926 C 0.71167 0.76523 0.8984 0.0
C927 C 0.72884 0.76246 0.91091 0.0
N928 N 0.72526 0.73347 0.87039 0.0
N929 N 0.71015 0.74735 0.87372 0.0
C930 C 0.75526 0.73006 0.89814 0.0
H931 H 0.75681 0.71077 0.88452 0.0
H932 H 0.76574 0.74443 0.88933 0.0
H933 H 0.75757 0.72653 0.92451 0.0
C934 C 0.7424 0.71824 0.74973 0.0
N935 N 0.7399 0.7029 0.77673 0.0
N936 N 0.74088 0.71875 0.8024 0.0
C937 C 0.74529 0.7443 0.79267 0.0
C938 C 0.74655 0.74484 0.75876 0.0
C939 C 0.73582 0.71013 0.71668 0.0
H940 H 0.72797 0.69092 0.71766 0.0
H941 H 0.74739 0.70798 0.70002 0.0
H942 H 0.72712 0.72636 0.70649 0.0
O943 O 0.70496 0.66749 0.7831 0.0
O944 O 0.70356 0.6956 0.82553 0.0
H945 H 0.73334 0.77532 0.82202 0.0
H946 H 0.75459 0.78504 0.80374 0.0
C947 C 0.74697 0.76809 0.81521 0.0
H948 H 0.75406 0.76179 0.83762 0.0
H949 H 0.69874 0.74441 0.85936 0.0
O950 O 0.73993 0.64756 0.74114 0.0
C951 C 0.69589 0.68123 0.80372 0.0
Co952 Co 0.48446 0.46054 0.52881 0.0
Co953 Co 0.48024 0.4218 0.58755 0.0
C954 C 0.49432 0.47817 0.59748 0.0
O955 O 0.49239 0.48284 0.56717 0.0
O956 O 0.49092 0.45466 0.60908 0.0
C957 C 0.48304 0.49049 0.46862 0.0
O958 O 0.46604 0.49461 0.47585 0.0
C959 C 0.48894 0.38538 0.64124 0.0
C960 C 0.46339 0.36268 0.64754 0.0
C961 C 0.4807 0.36519 0.65954 0.0
N962 N 0.4771 0.39417 0.61903 0.0
N963 N 0.46186 0.38056 0.62287 0.0
C964 C 0.50744 0.39703 0.64566 0.0
H965 H 0.50881 0.41689 0.63315 0.0
H966 H 0.5175 0.38298 0.63499 0.0
H967 H 0.51049 0.39937 0.67197 0.0
C968 C 0.49846 0.40949 0.49899 0.0
N969 N 0.49399 0.42422 0.52561 0.0
N970 N 0.49307 0.40788 0.55087 0.0
C971 C 0.49738 0.38229 0.54123 0.0
C972 C 0.50096 0.38233 0.50779 0.0
C973 C 0.49671 0.42014 0.46507 0.0
H974 H 0.48446 0.43281 0.46344 0.0
H975 H 0.50865 0.4329 0.45948 0.0
H976 H 0.49562 0.40369 0.44671 0.0
O977 O 0.45775 0.45744 0.52918 0.0
O978 O 0.45565 0.43116 0.57313 0.0
H979 H 0.48275 0.35264 0.56885 0.0
H980 H 0.50373 0.34022 0.55202 0.0
C981 C 0.49694 0.35799 0.5632 0.0
H982 H 0.50385 0.36293 0.58629 0.0
H983 H 0.45037 0.3836 0.60879 0.0
O984 O 0.49316 0.47984 0.48988 0.0
C985 C 0.44833 0.44452 0.55013 0.0
Co986 Co 0.27883 0.41451 0.52204 0.0
Co987 Co 0.28037 0.45353 0.5809 0.0
C988 C 0.26679 0.39718 0.59035 0.0
O989 O 0.26996 0.39223 0.5604 0.0
O990 O 0.26937 0.42092 0.60184 0.0
C991 C 0.25331 0.3952 0.47938 0.0
O992 O 0.24334 0.39983 0.50524 0.0
C993 C 0.27028 0.4897 0.63425 0.0
C994 C 0.29543 0.51309 0.64173 0.0
C995 C 0.27803 0.50987 0.6532 0.0
N996 N 0.28249 0.48154 0.61226 0.0
N997 N 0.29748 0.49564 0.61674 0.0
C998 C 0.25197 0.4772 0.63822 0.0
H999 H 0.25059 0.45849 0.62343 0.0
H1000 H 0.24158 0.49179 0.62999 0.0
H1001 H 0.24939 0.47256 0.66429 0.0
C1002 C 0.26697 0.46608 0.49058 0.0
N1003 N 0.26973 0.45093 0.51761 0.0
N1004 N 0.26833 0.4667 0.54328 0.0
C1005 C 0.26363 0.49206 0.53349 0.0
C1006 C 0.2625 0.49255 0.49954 0.0
C1007 C 0.27304 0.45778 0.45726 0.0
H1008 H 0.28136 0.43913 0.45814 0.0
H1009 H 0.26113 0.4544 0.44171 0.0
H1010 H 0.28106 0.47438 0.44588 0.0
O1011 O 0.30537 0.41758 0.52436 0.0
O1012 O 0.30547 0.44436 0.56811 0.0
H1013 H 0.27494 0.52327 0.56349 0.0
H1014 H 0.25389 0.53252 0.54438 0.0
C1015 C 0.26146 0.51572 0.55606 0.0
H1016 H 0.25409 0.50915 0.57814 0.0
H1017 H 0.30919 0.49306 0.60305 0.0
O1018 O 0.27035 0.39564 0.4826 0.0
C1019 C 0.31381 0.43104 0.54613 0.0
Co1020 Co 0.47821 0.41893 0.22069 0.0
Co1021 Co 0.47383 0.4603 0.16515 0.0
C1022 C 0.48799 0.4042 0.1514 0.0
O1023 O 0.48747 0.39862 0.18168 0.0
O1024 O 0.48304 0.4275 0.14128 0.0
C1025 C 0.50248 0.39867 0.26694 0.0
O1026 O 0.51431 0.40711 0.24531 0.0
C1027 C 0.48292 0.49777 0.11255 0.0
C1028 C 0.45818 0.52255 0.10919 0.0
C1029 C 0.47512 0.51911 0.09576 0.0
N1030 N 0.47121 0.48919 0.13525 0.0
N1031 N 0.45646 0.50407 0.1332 0.0
C1032 C 0.50083 0.48486 0.10621 0.0
H1033 H 0.50179 0.46474 0.11818 0.0
H1034 H 0.51166 0.49798 0.11623 0.0
H1035 H 0.50312 0.48272 0.07961 0.0
C1036 C 0.48894 0.47031 0.25438 0.0
N1037 N 0.48678 0.45561 0.22679 0.0
N1038 N 0.48761 0.47215 0.20171 0.0
C1039 C 0.49164 0.49757 0.21244 0.0
C1040 C 0.4927 0.49734 0.24641 0.0
C1041 C 0.48225 0.46105 0.28695 0.0
H1042 H 0.47504 0.44133 0.28523 0.0
H1043 H 0.49371 0.45933 0.30377 0.0
H1044 H 0.47297 0.47645 0.29737 0.0
O1045 O 0.45166 0.42078 0.21966 0.0
O1046 O 0.44918 0.45267 0.18149 0.0
H1047 H 0.47938 0.52932 0.18472 0.0
H1048 H 0.50074 0.53863 0.20266 0.0
C1049 C 0.49307 0.52196 0.19076 0.0
H1050 H 0.50002 0.51636 0.16789 0.0
H1051 H 0.44517 0.50146 0.14802 0.0
O1052 O 0.48594 0.39827 0.25907 0.0
C1053 C 0.44211 0.43689 0.20262 0.0
Co1054 Co 0.27051 0.45318 0.22419 0.0
Co1055 Co 0.28021 0.41376 0.16832 0.0
C1056 C 0.26305 0.4688 0.15505 0.0
O1057 O 0.2617 0.474 0.18536 0.0
O1058 O 0.26981 0.44637 0.14549 0.0
C1059 C 0.24663 0.47943 0.27075 0.0
O1060 O 0.23409 0.47725 0.24837 0.0
C1061 C 0.27244 0.37627 0.1159 0.0
C1062 C 0.29927 0.35928 0.10466 0.0
C1063 C 0.28136 0.35845 0.09534 0.0
N1064 N 0.28449 0.3869 0.13655 0.0
N1065 N 0.30049 0.37664 0.12991 0.0
C1066 C 0.2531 0.38464 0.1149 0.0
H1067 H 0.25105 0.40396 0.12836 0.0
H1068 H 0.24474 0.3687 0.12678 0.0
H1069 H 0.24853 0.38695 0.08933 0.0
C1070 C 0.25709 0.40055 0.25322 0.0
N1071 N 0.2624 0.41561 0.22725 0.0
N1072 N 0.26665 0.39893 0.20343 0.0
C1073 C 0.26457 0.37287 0.2137 0.0
C1074 C 0.25841 0.37292 0.2458 0.0
C1075 C 0.2513 0.41239 0.28502 0.0
H1076 H 0.23936 0.42511 0.28041 0.0
H1077 H 0.24736 0.39663 0.30302 0.0
H1078 H 0.26223 0.42526 0.29515 0.0
O1079 O 0.29761 0.45336 0.22498 0.0
O1080 O 0.3036 0.42318 0.18609 0.0
H1081 H 0.28573 0.35303 0.18752 0.0
H1082 H 0.27171 0.33002 0.21052 0.0
C1083 C 0.27174 0.34879 0.1955 0.0
H1084 H 0.26342 0.34528 0.17352 0.0
H1085 H 0.31229 0.38184 0.14221 0.0
O1086 O 0.26263 0.47239 0.2638 0.0
C1087 C 0.30875 0.4392 0.20849 0.0
H1088 H 0.01674 0.34555 0.16207 0.0
H1089 H 0.99499 0.29204 0.34168 0.0
H1090 H 0.96423 0.34989 0.20668 0.0
H1091 H 0.0471 0.28492 0.29612 0.0
H1092 H 0.98369 0.3145 0.29294 0.0
H1093 H 0.02839 0.32438 0.21142 0.0
C1094 C 0.00773 0.34244 0.18246 0.0
C1095 C 0.98962 0.35007 0.18073 0.0
C1096 C 0.99758 0.30794 0.2935 0.0
C1097 C 1.00268 0.32526 0.23684 0.0
C1098 C 0.00397 0.29487 0.3212 0.0
C1099 C 0.02183 0.28595 0.32241 0.0
C1100 C 0.00919 0.31223 0.26697 0.0
C1101 C 0.03318 0.29135 0.29591 0.0
C1102 C 0.01434 0.33009 0.2105 0.0
C1103 C 0.97832 0.3444 0.20722 0.0
N1104 N 0.02663 0.30402 0.26909 0.0
N1105 N 0.98506 0.33242 0.23432 0.0
H1106 H 0.28417 1.06 0.16984 0.0
H1107 H 0.21995 1.05375 0.32636 0.0
H1108 H 0.25791 0.98665 0.2035 0.0
H1109 H 0.24722 0.12663 0.29391 0.0
H1110 H 0.23331 1.02883 0.28081 0.0
H1111 H 0.27086 0.08485 0.21545 0.0
C1112 C 0.27555 1.04918 0.18682 0.0
C1113 C 0.27175 1.02145 0.18254 0.0
C1114 C 0.23646 1.05025 0.28378 0.0
C1115 C 0.25656 1.04953 0.23465 0.0
C1116 C 0.22881 0.06444 0.30966 0.0
C1117 C 0.23287 0.09205 0.31425 0.0
C1118 C 0.2481 0.06392 0.26222 0.0
C1119 C 0.24427 0.10511 0.29189 0.0
C1120 C 0.26793 0.06334 0.21275 0.0
C1121 C 0.26065 1.00825 0.20527 0.0
N1122 N 0.25153 0.0909 0.26684 0.0
N1123 N 0.25339 1.02244 0.23035 0.0
H1124 H 0.95672 1.02415 0.03516 0.0
H1125 H 0.04229 0.10861 0.97225 0.0
H1126 H 1.00284 1.04303 0.09478 0.0
H1127 H 0.99628 0.08989 0.91226 0.0
H1128 H 0.02805 0.08439 0.01749 0.0
H1129 H 0.97065 1.04903 0.99 0.0
C1130 C 0.9698 1.03352 0.03868 0.0
C1131 C 0.97888 1.03098 0.06838 0.0
C1132 C 0.02101 0.08572 0.99449 0.0
C1133 C 0.99485 1.05942 0.01712 0.0
C1134 C 0.02915 0.09945 0.96867 0.0
C1135 C 0.02024 0.10179 0.93878 0.0
C1136 C 0.0039 0.07405 0.99022 0.0
C1137 C 0.00332 0.08943 0.93525 0.0
C1138 C 0.97776 1.04761 0.01293 0.0
C1139 C 0.99569 1.04363 0.07189 0.0
N1140 N 0.99567 0.07611 0.96074 0.0
N1141 N 0.00318 1.05725 0.04649 0.0
H1142 H 0.29776 0.34996 0.03715 0.0
H1143 H 0.21254 0.27523 0.95831 0.0
H1144 H 0.24883 0.3323 0.08994 0.0
H1145 H 0.26319 0.28658 0.90859 0.0
H1146 H 0.22511 0.29793 0.00625 0.0
H1147 H 0.28519 0.32719 0.98943 0.0
C1148 C 0.28436 0.34127 0.03866 0.0
C1149 C 0.27411 0.3436 0.06717 0.0
C1150 C 0.23351 0.29531 0.98491 0.0
C1151 C 0.25965 0.31764 0.01288 0.0
C1152 C 0.22632 0.28251 0.95758 0.0
C1153 C 0.23704 0.2785 0.92994 0.0
C1154 C 0.25146 0.30436 0.98428 0.0
C1155 C 0.25473 0.2884 0.92991 0.0
C1156 C 0.27716 0.32839 0.01142 0.0
C1157 C 0.25689 0.33188 0.06803 0.0
N1158 N 0.26142 0.30086 0.95676 0.0
N1159 N 0.25015 0.31948 0.04117 0.0
H1160 H 0.99221 0.78427 0.84794 0.0
H1161 H 0.00465 0.83086 0.66285 0.0
H1162 H 0.03958 0.76725 0.79064 0.0
H1163 H 0.95845 0.85148 0.72152 0.0
H1164 H 0.01709 0.80569 0.70869 0.0
H1165 H 0.97899 0.8073 0.80119 0.0
C1166 C 0.9997 0.78499 0.82534 0.0
C1167 C 0.01681 0.77332 0.8228 0.0
C1168 C 0.00426 0.81579 0.71161 0.0
C1169 C 1.00202 0.80022 0.76956 0.0
C1170 C 0.99725 0.83039 0.68554 0.0
C1171 C 0.98079 0.84391 0.68883 0.0
C1172 C 0.99465 0.81459 0.74104 0.0
C1173 C 0.97129 0.8415 0.7182 0.0
C1174 C 0.99223 0.79838 0.79875 0.0
C1175 C 0.02629 0.77591 0.79344 0.0
N1176 N 0.97843 0.82725 0.74332 0.0
N1177 N 0.01873 0.78902 0.76786 0.0
H1178 H 0.70878 0.09741 0.79455 0.0
H1179 H 0.79516 1.02816 0.7132 0.0
H1180 H 0.76057 0.09173 0.84123 0.0
H1181 H 0.7439 1.03538 0.66487 0.0
H1182 H 0.78269 1.05184 0.76034 0.0
H1183 H 0.72113 0.07385 0.74699 0.0
C1184 C 0.72277 0.09126 0.79467 0.0
C1185 C 0.73384 0.09711 0.82133 0.0
C1186 C 0.77413 1.04812 0.73949 0.0
C1187 C 0.748 0.07021 0.76745 0.0
C1188 C 0.78125 1.0347 0.71259 0.0
C1189 C 0.77039 1.02923 0.68553 0.0
C1190 C 0.75604 1.05629 0.73915 0.0
C1191 C 0.75253 1.03826 0.68575 0.0
C1192 C 0.72982 0.07793 0.76757 0.0
C1193 C 0.75179 0.08856 0.82061 0.0
N1194 N 0.74587 1.05131 0.71225 0.0
N1195 N 0.75834 0.07557 0.79402 0.0
H1196 H 0.798 0.85176 0.04114 0.0
H1197 H 0.71222 0.77435 0.96808 0.0
H1198 H 0.74962 0.83548 0.09618 0.0
H1199 H 0.76211 0.78572 0.91592 0.0
H1200 H 0.72524 0.79816 0.01489 0.0
H1201 H 0.78497 0.8277 0.99475 0.0
C1202 C 0.78462 0.84311 0.04341 0.0
C1203 C 0.77466 0.84617 0.07215 0.0
C1204 C 0.73338 0.79528 0.99327 0.0
C1205 C 0.75968 0.81873 0.0194 0.0
C1206 C 0.72593 0.78184 0.9666 0.0
C1207 C 0.73632 0.77753 0.93861 0.0
C1208 C 0.75124 0.80467 0.9916 0.0
C1209 C 0.75392 0.78773 0.93757 0.0
C1210 C 0.77716 0.82949 0.01694 0.0
C1211 C 0.75746 0.83447 0.07403 0.0
N1212 N 0.76086 0.80081 0.96376 0.0
N1213 N 0.75046 0.82133 0.0479 0.0
H1214 H 0.20748 0.59656 0.78357 0.0
H1215 H 0.29382 0.52063 0.71137 0.0
H1216 H 0.25502 0.579 0.8398 0.0
H1217 H 0.24457 0.53237 0.6579 0.0
H1218 H 0.28019 0.54321 0.75843 0.0
H1219 H 0.22083 0.57296 0.73712 0.0
C1220 C 0.22074 0.58772 0.7861 0.0
C1221 C 0.23039 0.59034 0.8152 0.0
C1222 C 0.27231 0.54066 0.73647 0.0
C1223 C 0.24574 0.56343 0.76238 0.0
C1224 C 0.28011 0.52792 0.70965 0.0
C1225 C 0.2701 0.52409 0.68116 0.0
C1226 C 0.25448 0.54987 0.73449 0.0
C1227 C 0.25248 0.53402 0.67987 0.0
C1228 C 0.22838 0.57436 0.7596 0.0
C1229 C 0.24744 0.57839 0.81739 0.0
N1230 N 0.2452 0.54645 0.70623 0.0
N1231 N 0.25463 0.56554 0.79122 0.0
H1232 H 0.01393 0.53243 0.59676 0.0
H1233 H 0.99471 0.58407 0.41566 0.0
H1234 H 0.96247 0.52477 0.54915 0.0
H1235 H 0.04594 0.59328 0.46365 0.0
H1236 H 0.98283 0.56139 0.46398 0.0
H1237 H 0.02612 0.55403 0.54794 0.0
C1238 C 0.00528 0.5349 0.57583 0.0
C1239 C 0.98732 0.52619 0.57656 0.0
C1240 C 0.99665 0.56846 0.46405 0.0
C1241 C 1.00099 0.5515 0.52103 0.0
C1242 C 0.00337 0.58165 0.43658 0.0
C1243 C 0.02114 0.59122 0.43617 0.0
C1244 C 0.00785 0.5647 0.49116 0.0
C1245 C 0.03209 0.58634 0.46324 0.0
C1246 C 0.01219 0.54749 0.54808 0.0
C1247 C 0.97644 0.53109 0.54939 0.0
N1248 N 0.02523 0.57354 0.48982 0.0
N1249 N 0.98348 0.54333 0.5226 0.0
H1250 H 0.24859 0.73547 0.4548 0.0
H1251 H 0.26367 0.87904 0.54222 0.0
H1252 H 0.22873 0.81162 0.41691 0.0
H1253 H 0.28712 0.80397 0.57616 0.0
H1254 H 0.25018 0.8545 0.49675 0.0
H1255 H 0.26225 0.75997 0.50016 0.0
C1256 C 0.24735 0.75741 0.45576 0.0
C1257 C 0.23797 0.77169 0.43166 0.0
C1258 C 0.25822 0.84334 0.51418 0.0
C1259 C 0.25308 0.79974 0.48388 0.0
C1260 C 0.26578 0.8573 0.54029 0.0
C1261 C 0.27612 0.8433 0.5633 0.0
C1262 C 0.26112 0.81522 0.51104 0.0
C1263 C 0.2791 0.81539 0.55895 0.0
C1264 C 0.25501 0.77136 0.48182 0.0
C1265 C 0.23601 0.79993 0.43491 0.0
N1266 N 0.27152 0.80217 0.53337 0.0
N1267 N 0.24359 0.81309 0.46051 0.0
H1268 H 0.75079 0.6317 0.29985 0.0
H1269 H 0.75985 0.48838 0.20932 0.0
H1270 H 0.72175 0.55927 0.3286 0.0
H1271 H 0.78844 0.56093 0.1796 0.0
H1272 H 0.74626 0.5138 0.25393 0.0
H1273 H 0.76533 0.60592 0.25651 0.0
C1274 C 0.74771 0.61024 0.29739 0.0
C1275 C 0.7354 0.59737 0.31828 0.0
C1276 C 0.75544 0.52423 0.2376 0.0
C1277 C 0.75157 0.56795 0.26821 0.0
C1278 C 0.76306 0.50979 0.21192 0.0
C1279 C 0.77486 0.52285 0.19027 0.0
C1280 C 0.75978 0.55187 0.24174 0.0
C1281 C 0.77925 0.55025 0.19567 0.0
C1282 C 0.75588 0.5956 0.27242 0.0
C1283 C 0.73128 0.56986 0.31307 0.0
N1284 N 0.7716 0.56395 0.22081 0.0
N1285 N 0.7394 0.556 0.28858 0.0
H1286 H 0.74332 0.33589 0.59261 0.0
H1287 H 0.75749 0.28404 0.41004 0.0
H1288 H 0.79288 0.34646 0.53921 0.0
H1289 H 0.7095 0.2685 0.46648 0.0
H1290 H 0.7705 0.30793 0.45648 0.0
H1291 H 0.73045 0.31205 0.54606 0.0
C1292 C 0.75138 0.33355 0.57084 0.0
C1293 C 0.76898 0.34375 0.56926 0.0
C1294 C 0.75717 0.29915 0.45879 0.0
C1295 C 0.75458 0.3159 0.51628 0.0
C1296 C 0.74981 0.28527 0.43238 0.0
C1297 C 0.73261 0.27364 0.43481 0.0
C1298 C 0.74716 0.30159 0.48766 0.0
C1299 C 0.72287 0.27703 0.46376 0.0
C1300 C 0.74411 0.31967 0.5444 0.0
C1301 C 0.77919 0.33901 0.54115 0.0
N1302 N 0.73033 0.29061 0.48916 0.0
N1303 N 0.77179 0.32553 0.51558 0.0
H1304 H 0.46436 0.35232 0.71673 0.0
H1305 H 0.54992 0.27311 0.78637 0.0
H1306 H 0.51395 0.342 0.66348 0.0
H1307 H 0.50217 0.28956 0.84285 0.0
H1308 H 0.53679 0.29784 0.74061 0.0
H1309 H 0.47748 0.32761 0.76265 0.0
C1310 C 0.47803 0.34488 0.71483 0.0
C1311 C 0.4883 0.34974 0.68679 0.0
C1312 C 0.52915 0.29592 0.76298 0.0
C1313 C 0.50333 0.32154 0.73877 0.0
C1314 C 0.53665 0.28191 0.78907 0.0
C1315 C 0.52689 0.27873 0.81803 0.0
C1316 C 0.51182 0.30694 0.76607 0.0
C1317 C 0.50984 0.29064 0.8205 0.0
C1318 C 0.48553 0.33092 0.74099 0.0
C1319 C 0.50585 0.33956 0.68519 0.0
N1320 N 0.50279 0.30417 0.79475 0.0
N1321 N 0.51285 0.32595 0.71091 0.0
H1322 H 0.49532 0.99297 0.54409 0.0
H1323 H 0.51188 0.13739 0.45928 0.0
H1324 H 0.47187 0.06791 0.57853 0.0
H1325 H 0.53026 1.06124 0.41889 0.0
H1326 H 0.49824 0.11258 0.50452 0.0
H1327 H 0.50939 1.01789 0.49934 0.0
C1328 C 0.49335 1.01475 0.54246 0.0
C1329 C 0.48279 1.02858 0.56537 0.0
C1330 C 0.50516 0.10127 0.48567 0.0
C1331 C 0.49845 1.05711 0.51391 0.0
C1332 C 0.5128 0.1154 0.45967 0.0
C1333 C 0.52174 0.10123 0.43487 0.0
C1334 C 0.50665 0.07279 0.48699 0.0
C1335 C 0.52332 0.07287 0.43743 0.0
C1336 C 0.50123 1.02893 0.51674 0.0
C1337 C 0.48003 1.05659 0.56139 0.0
N1338 N 0.51576 1.05953 0.46299 0.0
N1339 N 0.4879 0.07001 0.5362 0.0
H1340 H 0.49652 0.88749 0.20829 0.0
H1341 H 0.50489 0.74207 0.29418 0.0
H1342 H 0.47587 0.81295 0.16671 0.0
H1343 H 0.53099 0.81484 0.32979 0.0
H1344 H 0.4928 0.76815 0.24868 0.0
H1345 H 0.50816 0.86161 0.25428 0.0
C1346 C 0.49472 0.86561 0.20854 0.0
C1347 C 0.48568 0.85219 0.18325 0.0
C1348 C 0.50109 0.77846 0.26653 0.0
C1349 C 0.49842 0.82259 0.23625 0.0
C1350 C 0.50783 0.76365 0.29269 0.0
C1351 C 0.5186 0.77653 0.31608 0.0
C1352 C 0.50524 0.8063 0.26376 0.0
C1353 C 0.52263 0.80425 0.31227 0.0
C1354 C 0.50119 0.85088 0.23498 0.0
C1355 C 0.48291 0.824 0.18564 0.0
N1356 N 0.51588 0.81828 0.28664 0.0
N1357 N 0.48933 0.81008 0.21166 0.0
H1358 H 0.45771 0.53473 0.04088 0.0
H1359 H 0.5451 0.6039 0.9617 0.0
H1360 H 0.50924 0.53929 0.08876 0.0
H1361 H 0.4938 0.59797 0.91324 0.0
H1362 H 0.5323 0.57986 0.00856 0.0
H1363 H 0.47053 0.5589 0.99414 0.0
C1364 C 0.47174 0.54081 0.04145 0.0
C1365 C 0.4826 0.53445 0.06818 0.0
C1366 C 0.52381 0.58398 0.98774 0.0
C1367 C 0.49732 0.562 0.01519 0.0
C1368 C 0.53112 0.59757 0.96103 0.0
C1369 C 0.52032 0.60352 0.93409 0.0
C1370 C 0.50562 0.57611 0.98721 0.0
C1371 C 0.50237 0.59473 0.93411 0.0
C1372 C 0.47907 0.55447 0.0148 0.0
C1373 C 0.50062 0.54289 0.06804 0.0
N1374 N 0.49554 0.58151 0.96036 0.0
N1375 N 0.50746 0.5562 0.04185 0.0
H1376 H 0.0166 0.13607 0.5746 0.0
H1377 H 0.9694 0.22459 0.70502 0.0
H1378 H 0.96819 0.17526 0.54072 0.0
H1379 H 0.02465 0.23573 0.67495 0.0
H1380 H 0.96357 0.19981 0.65403 0.0
H1381 H 0.01369 0.16044 0.62614 0.0
C1382 C 0.00499 0.14897 0.5784 0.0
C1383 C 0.99302 0.15446 0.55291 0.0
C1384 C 0.9768 0.20835 0.65849 0.0
C1385 C 0.9898 0.18243 0.61138 0.0
C1386 C 0.98011 0.22287 0.68722 0.0
C1387 C 0.99774 0.23133 0.69474 0.0
C1388 C 0.99125 0.20245 0.63777 0.0
C1389 C 0.01101 0.2288 0.67061 0.0
C1390 C 0.00348 0.16309 0.60761 0.0
C1391 C 0.97797 0.17097 0.5595 0.0
N1392 N 0.00765 0.21374 0.64368 0.0
N1393 N 0.97701 0.18509 0.58798 0.0
H1394 H 0.29005 0.21598 0.54359 0.0
H1395 H 0.23987 0.13274 0.67515 0.0
H1396 H 0.23523 0.23189 0.57271 0.0
H1397 H 0.28923 0.16957 0.7093 0.0
H1398 H 0.2435 0.157 0.62364 0.0
H1399 H 0.29489 0.19232 0.59564 0.0
C1400 C 0.27926 0.21555 0.56137 0.0
C1401 C 0.26196 0.22496 0.55331 0.0
C1402 C 0.25372 0.15919 0.64225 0.0
C1403 C 0.26732 0.19741 0.61157 0.0
C1404 C 0.2518 0.14512 0.67144 0.0
C1405 C 0.26391 0.14992 0.69696 0.0
C1406 C 0.26795 0.17776 0.63848 0.0
C1407 C 0.27935 0.16579 0.69048 0.0
C1408 C 0.282 0.20168 0.59075 0.0
C1409 C 0.24859 0.22414 0.57746 0.0
N1410 N 0.28075 0.17981 0.66196 0.0
N1411 N 0.25136 0.20966 0.60505 0.0
H1412 H 0.98383 0.89098 0.32658 0.0
H1413 H 0.04128 0.9658 0.45804 0.0
H1414 H 0.03841 0.91098 0.29919 0.0
H1415 H 0.98677 0.98717 0.43285 0.0
H1416 H 0.0438 0.94071 0.40643 0.0
H1417 H 0.9881 0.91555 0.37754 0.0
C1418 C 0.99694 0.8997 0.33178 0.0
C1419 C 0.01054 0.89989 0.30808 0.0
C1420 C 0.0315 0.95153 0.41203 0.0
C1421 C 0.01532 0.92846 0.36584 0.0
C1422 C 0.03012 0.96626 0.44114 0.0
C1423 C 0.01349 0.97762 0.45034 0.0
C1424 C 0.01619 0.94845 0.39251 0.0
C1425 C 0.99961 0.9779 0.42727 0.0
C1426 C 0.99923 0.91415 0.36054 0.0
C1427 C 0.02742 0.91089 0.31654 0.0
N1428 N 1.00105 0.96266 0.39991 0.0
N1429 N 0.02925 0.92551 0.34456 0.0
H1430 H 0.73926 0.98572 0.31694 0.0
H1431 H 0.77091 0.86805 0.43538 0.0
H1432 H 0.79421 0.9622 0.33527 0.0
H1433 H 0.72524 0.9173 0.46202 0.0
H1434 H 0.77309 0.8929 0.38405 0.0
H1435 H 0.72944 0.95573 0.36171 0.0
C1436 C 0.74928 0.97502 0.33111 0.0
C1437 C 0.76755 0.97622 0.32226 0.0
C1438 C 0.76229 0.89774 0.40081 0.0
C1439 C 0.75637 0.94103 0.37147 0.0
C1440 C 0.7608 0.88319 0.42975 0.0
C1441 C 0.74843 0.89156 0.4535 0.0
C1442 C 0.75119 0.9204 0.39574 0.0
C1443 C 0.73535 0.91082 0.44469 0.0
C1444 C 0.74364 0.95757 0.35607 0.0
C1445 C 0.78001 0.96187 0.34116 0.0
N1446 N 0.73744 0.92542 0.41679 0.0
N1447 N 0.77413 0.94436 0.36439 0.0
H1448 H 0.96609 0.64979 0.05671 0.0
H1449 H 0.01482 0.73942 0.18309 0.0
H1450 H 0.02126 0.6375 0.08585 0.0
H1451 H 0.96747 0.69956 0.22181 0.0
H1452 H 0.01085 0.71418 0.13235 0.0
H1453 H 0.96076 0.67467 0.1078 0.0
C1454 C 0.97687 0.65125 0.07435 0.0
C1455 C 0.99439 0.64256 0.06647 0.0
C1456 C 1.00108 0.71161 0.15176 0.0
C1457 C 0.98844 0.67145 0.12357 0.0
C1458 C 0.0032 0.72619 0.18053 0.0
C1459 C 0.99186 0.72082 0.20709 0.0
C1460 C 0.98744 0.69188 0.14955 0.0
C1461 C 0.97679 0.7038 0.20214 0.0
C1462 C 0.97384 0.66581 0.10315 0.0
C1463 C 0.00773 0.64468 0.09044 0.0
N1464 N 0.97524 0.68923 0.17408 0.0
N1465 N 0.00466 0.65981 0.11743 0.0
H1466 H 0.23744 0.63417 0.17061 0.0
H1467 H 0.28848 0.71723 0.04136 0.0
H1468 H 0.28658 0.66992 0.20732 0.0
H1469 H 0.23405 0.73522 0.07102 0.0
H1470 H 0.29314 0.69358 0.09344 0.0
H1471 H 0.24164 0.65944 0.11992 0.0
C1472 C 0.24944 0.64654 0.16762 0.0
C1473 C 0.26134 0.65069 0.1936 0.0
C1474 C 0.28041 0.70347 0.0887 0.0
C1475 C 0.26601 0.67969 0.13612 0.0
C1476 C 0.27778 0.71734 0.0593 0.0
C1477 C 0.26057 0.7272 0.05136 0.0
C1478 C 0.26573 0.69975 0.10967 0.0
C1479 C 0.24731 0.72706 0.0757 0.0
C1480 C 0.25168 0.66118 0.13892 0.0
C1481 C 0.27687 0.66661 0.1881 0.0
N1482 N 0.24994 0.71257 0.10332 0.0
N1483 N 0.27859 0.6812 0.16005 0.0
H1484 H 0.03652 0.41687 0.79065 0.0
H1485 H 0.98921 0.49472 0.92259 0.0
H1486 H 0.98841 0.38455 0.83573 0.0
H1487 H 0.03739 0.45948 0.96315 0.0
H1488 H 0.99465 0.46955 0.87227 0.0
H1489 H 0.0427 0.44288 0.84043 0.0
C1490 C 0.02766 0.41427 0.8114 0.0
C1491 C 0.01158 0.39915 0.80873 0.0
C1492 C 0.0043 0.46812 0.89191 0.0
C1493 C 0.01854 0.42896 0.86482 0.0
C1494 C 1.00131 0.48261 0.92047 0.0
C1495 C 0.01253 0.47848 0.9474 0.0
C1496 C 0.01866 0.44975 0.8903 0.0
C1497 C 0.0282 0.4628 0.94313 0.0
C1498 C 0.03118 0.4293 0.83959 0.0
C1499 C 1.00071 0.39642 0.83649 0.0
N1500 N 0.03057 0.44821 0.91529 0.0
N1501 N 0.00408 0.41194 0.86311 0.0
H1502 H 0.76708 0.48581 0.82605 0.0
H1503 H 0.71728 0.40028 0.95736 0.0
H1504 H 0.71696 0.44988 0.79425 0.0
H1505 H 0.77261 0.387 0.92956 0.0
H1506 H 0.71251 0.42463 0.90575 0.0
H1507 H 0.76428 0.46099 0.87734 0.0
C1508 C 0.75517 0.47348 0.83024 0.0
C1509 C 0.74258 0.46912 0.80537 0.0
C1510 C 0.72552 0.41573 0.91084 0.0
C1511 C 0.73948 0.44062 0.86364 0.0
C1512 C 0.72822 0.40146 0.93996 0.0
C1513 C 0.74559 0.39248 0.94828 0.0
C1514 C 0.7403 0.42091 0.89053 0.0
C1515 C 0.75917 0.39433 0.92461 0.0
C1516 C 0.75373 0.45906 0.85929 0.0
C1517 C 0.7272 0.45332 0.81251 0.0
N1518 N 0.75641 0.40918 0.89728 0.0
N1519 N 0.72624 0.43902 0.84089 0.0
H1520 H 0.46601 0.15513 0.04982 0.0
H1521 H 0.51858 0.24059 0.1765 0.0
H1522 H 0.5214 0.14003 0.07532 0.0
H1523 H 0.46927 0.20519 0.21334 0.0
H1524 H 0.51439 0.21535 0.12584 0.0
H1525 H 0.46219 0.17991 0.10145 0.0
C1526 C 0.47714 0.15597 0.06677 0.0
C1527 C 0.49427 0.14637 0.05775 0.0
C1528 C 0.50431 0.21366 0.14486 0.0
C1529 C 0.49007 0.17524 0.11549 0.0
C1530 C 0.50655 0.2283 0.17357 0.0
C1531 C 0.4946 0.22424 0.19961 0.0
C1532 C 0.48992 0.19527 0.14206 0.0
C1533 C 0.47903 0.20843 0.19411 0.0
C1534 C 0.47499 0.17049 0.09588 0.0
C1535 C 0.50813 0.14784 0.08082 0.0
N1536 N 0.4773 0.19389 0.16604 0.0
N1537 N 0.50592 0.16292 0.10813 0.0
H1538 H 0.73666 0.13076 0.1778 0.0
H1539 H 0.78932 0.20039 0.03998 0.0
H1540 H 0.79112 0.15081 0.20552 0.0
H1541 H 0.74078 0.23398 0.08149 0.0
H1542 H 0.79377 0.17387 0.09004 0.0
H1543 H 0.74127 0.15494 0.12653 0.0
C1544 C 0.74982 0.13928 0.17258 0.0
C1545 C 0.76327 0.1398 0.19648 0.0
C1546 C 0.7825 0.18771 0.08833 0.0
C1547 C 0.76845 0.16761 0.13837 0.0
C1548 C 0.77998 0.20307 0.06 0.0
C1549 C 0.76429 0.21878 0.05617 0.0
C1550 C 0.76916 0.18813 0.11241 0.0
C1551 C 0.75279 0.22162 0.08305 0.0
C1552 C 0.75233 0.15341 0.14361 0.0
C1553 C 0.78025 0.15054 0.18802 0.0
N1554 N 0.75514 0.20571 0.10966 0.0
N1555 N 0.78225 0.16491 0.15983 0.0
H1556 H 0.48362 0.88799 0.82354 0.0
H1557 H 0.53753 0.95631 0.96171 0.0
H1558 H 0.53879 0.90587 0.79799 0.0
H1559 H 0.4882 0.98941 0.92313 0.0
H1560 H 0.54131 0.92987 0.9114 0.0
H1561 H 0.4879 0.91203 0.87494 0.0
C1562 C 0.49684 0.89604 0.82924 0.0
C1563 C 0.51064 0.89599 0.80588 0.0
C1564 C 0.52997 0.94354 0.91381 0.0
C1565 C 0.51544 0.92364 0.86419 0.0
C1566 C 0.52785 0.95886 0.94229 0.0
C1567 C 0.51219 0.97448 0.94702 0.0
C1568 C 0.51627 0.94384 0.89051 0.0
C1569 C 0.50022 0.97715 0.92087 0.0
C1570 C 0.49915 0.91011 0.85828 0.0
C1571 C 0.52766 0.90607 0.81503 0.0
N1572 N 0.50222 0.96128 0.89411 0.0
N1573 N 0.5295 0.92033 0.8433 0.0
H1574 H 0.26899 0.98488 0.82073 0.0
H1575 H 0.21633 0.9128 0.958 0.0
H1576 H 0.21508 0.96158 0.79309 0.0
H1577 H 0.2676 0.88502 0.92142 0.0
H1578 H 0.21172 0.93783 0.90685 0.0
H1579 H 0.26484 0.96118 0.8724 0.0
C1580 C 0.25602 0.97571 0.82602 0.0
C1581 C 0.24266 0.97412 0.80203 0.0
C1582 C 0.22369 0.92559 0.90991 0.0
C1583 C 0.238 0.94683 0.86065 0.0
C1584 C 0.22629 0.91101 0.93883 0.0
C1585 C 0.24275 0.89768 0.94446 0.0
C1586 C 0.2377 0.92672 0.88711 0.0
C1587 C 0.255 0.89574 0.91856 0.0
C1588 C 0.25379 0.96184 0.85522 0.0
C1589 C 0.22591 0.96264 0.81064 0.0
N1590 N 0.25252 0.91096 0.89143 0.0
N1591 N 0.22418 0.94855 0.83908 0.0
H1592 H 0.4647 0.65307 0.55036 0.0
H1593 H 0.46871 0.70701 0.71534 0.0
H1594 H 0.51997 0.63806 0.57689 0.0
H1595 H 0.5178 0.73817 0.67262 0.0
H1596 H 0.46345 0.6801 0.66589 0.0
H1597 H 0.46052 0.67758 0.60196 0.0
C1598 C 0.47572 0.65381 0.56756 0.0
C1599 C 0.49295 0.64447 0.55878 0.0
C1600 C 0.47505 0.69349 0.66716 0.0
C1601 C 0.48831 0.67284 0.61669 0.0
C1602 C 0.47803 0.70906 0.69517 0.0
C1603 C 0.49402 0.72429 0.69845 0.0
C1604 C 0.48823 0.69323 0.64277 0.0
C1605 C 0.50552 0.72628 0.67143 0.0
C1606 C 0.47335 0.66814 0.59672 0.0
C1607 C 0.50664 0.64574 0.58219 0.0
N1608 N 0.50269 0.71019 0.64511 0.0
N1609 N 0.50423 0.66068 0.60955 0.0
H1610 H 0.78757 0.67399 0.71212 0.0
H1611 H 0.72893 0.7377 0.57631 0.0
H1612 H 0.7372 0.63935 0.67963 0.0
H1613 H 0.78456 0.72492 0.5501 0.0
H1614 H 0.73421 0.71401 0.62758 0.0
H1615 H 0.78953 0.69984 0.661 0.0
C1616 C 0.77727 0.67098 0.69385 0.0
C1617 C 0.76185 0.65514 0.70061 0.0
C1618 C 0.74533 0.71691 0.61078 0.0
C1619 C 0.76386 0.68517 0.64322 0.0
C1620 C 0.74243 0.73083 0.58181 0.0
C1621 C 0.75613 0.73226 0.55834 0.0
C1622 C 0.7621 0.70492 0.61653 0.0
C1623 C 0.7735 0.72363 0.56723 0.0
C1624 C 0.77835 0.68599 0.66492 0.0
C1625 C 0.74906 0.65184 0.67585 0.0
N1626 N 0.77594 0.70956 0.59548 0.0
N1627 N 0.75005 0.66744 0.64867 0.0
H1628 H 0.5168 0.49226 0.4418 0.0
H1629 H 0.48252 0.38036 0.31818 0.0
H1630 H 0.46131 0.47446 0.41915 0.0
H1631 H 0.5311 0.42504 0.2956 0.0
H1632 H 0.48012 0.40543 0.36915 0.0
H1633 H 0.52613 0.46356 0.3957 0.0
C1634 C 0.50659 0.4832 0.42637 0.0
C1635 C 0.48826 0.48526 0.43463 0.0
C1636 C 0.49154 0.40927 0.35334 0.0
C1637 C 0.49883 0.45152 0.3838 0.0
C1638 C 0.4931 0.39466 0.32453 0.0
C1639 C 0.50646 0.40175 0.30191 0.0
C1640 C 0.50358 0.4307 0.35956 0.0
C1641 C 0.52019 0.4197 0.31191 0.0
C1642 C 0.51194 0.46644 0.40064 0.0
C1643 C 0.47557 0.47322 0.41394 0.0
N1644 N 0.51812 0.43435 0.33978 0.0
N1645 N 0.48112 0.4562 0.39003 0.0
H1646 H 0.26828 0.49026 0.32242 0.0
H1647 H 0.22058 0.41787 0.46442 0.0
H1648 H 0.21414 0.4653 0.29858 0.0
H1649 H 0.26946 0.38788 0.42031 0.0
H1650 H 0.21447 0.44401 0.41469 0.0
H1651 H 0.26545 0.46685 0.3746 0.0
C1652 C 0.25553 0.48084 0.32869 0.0
C1653 C 0.24172 0.47864 0.30561 0.0
C1654 C 0.22622 0.43105 0.4158 0.0
C1655 C 0.23857 0.45175 0.36472 0.0
C1656 C 0.22969 0.41591 0.44394 0.0
C1657 C 0.24589 0.40129 0.44685 0.0
C1658 C 0.23912 0.43153 0.39097 0.0
C1659 C 0.25706 0.39935 0.41941 0.0
C1660 C 0.25405 0.46716 0.35818 0.0
C1661 C 0.22528 0.46684 0.31542 0.0
N1662 N 0.25375 0.41503 0.39293 0.0
N1663 N 0.2243 0.45291 0.34407 0.0
H1664 H 0.08268 0.1703 0.50523 0.0
H1665 H 0.17186 0.19052 0.40145 0.0
H1666 H 0.08366 0.20373 0.40794 0.0
H1667 H 0.17357 0.19272 0.50643 0.0
H1668 H 0.13916 0.1906 0.40364 0.0
H1669 H 0.11578 0.17327 0.50657 0.0
C1670 C 0.08983 0.1781 0.48417 0.0
C1671 C 0.08041 0.18667 0.45638 0.0
C1672 C 0.14662 0.19131 0.42626 0.0
C1673 C 0.11797 0.1901 0.45781 0.0
C1674 C 0.16529 0.19124 0.42502 0.0
C1675 C 0.17537 0.19168 0.45381 0.0
C1676 C 0.13785 0.19128 0.45653 0.0
C1677 C 0.1662 0.19262 0.48371 0.0
C1678 C 0.10864 0.18001 0.48508 0.0
C1679 C 0.09031 0.19689 0.42989 0.0
N1680 N 0.14785 0.19206 0.48436 0.0
N1681 N 0.10849 0.19814 0.43121 0.0
H1682 H 0.17421 0.16865 0.7451 0.0
H1683 H 0.08574 0.19194 0.85084 0.0
H1684 H 0.17427 0.196 0.84504 0.0
H1685 H 0.0843 0.19697 0.74595 0.0
H1686 H 0.11832 0.18836 0.84863 0.0
H1687 H 0.14119 0.17341 0.74433 0.0
C1688 C 0.16729 0.17541 0.76687 0.0
C1689 C 0.17698 0.18191 0.79518 0.0
C1690 C 0.11095 0.19045 0.82603 0.0
C1691 C 0.13954 0.18739 0.79442 0.0
C1692 C 0.09234 0.1925 0.82728 0.0
C1693 C 0.08234 0.19483 0.79853 0.0
C1694 C 0.11974 0.19031 0.79577 0.0
C1695 C 0.09159 0.19545 0.76867 0.0
C1696 C 0.14854 0.17835 0.76631 0.0
C1697 C 0.1674 0.19084 0.82263 0.0
N1698 N 0.10985 0.19292 0.768 0.0
N1699 N 0.14927 0.19319 0.82158 0.0
H1700 H 0.83554 0.91877 0.50297 0.0
H1701 H 0.92375 0.95393 0.60386 0.0
H1702 H 0.83513 0.95375 0.59947 0.0
H1703 H 0.92527 0.94513 0.49942 0.0
H1704 H 0.89106 0.95231 0.60231 0.0
H1705 H 0.86833 0.9256 0.50081 0.0
C1706 C 0.84233 0.9277 0.52372 0.0
C1707 C 0.83259 0.93557 0.55151 0.0
C1708 C 0.89844 0.9511 0.57959 0.0
C1709 C 0.86986 0.94357 0.54907 0.0
C1710 C 0.9171 0.95211 0.58048 0.0
C1711 C 0.92712 0.94976 0.55171 0.0
C1712 C 0.88965 0.94715 0.54974 0.0
C1713 C 0.91793 0.94729 0.52206 0.0
C1714 C 0.86097 0.93183 0.52233 0.0
C1715 C 0.84203 0.94734 0.57755 0.0
N1716 N 0.89961 0.94564 0.52184 0.0
N1717 N 0.86009 0.95084 0.57572 0.0
H1718 H 0.92053 0.9818 0.21264 0.0
H1719 H 0.83228 0.89624 0.21059 0.0
H1720 H 0.92145 0.89584 0.23432 0.0
H1721 H 0.83162 0.98076 0.23932 0.0
H1722 H 0.8648 0.89533 0.21885 0.0
H1723 H 0.88807 0.98216 0.22201 0.0
C1724 C 0.91386 0.96302 0.2197 0.0
C1725 C 0.92357 0.93866 0.22238 0.0
C1726 C 0.85753 0.91396 0.22387 0.0
C1727 C 0.88645 0.93889 0.23269 0.0
C1728 C 0.83901 0.91457 0.21895 0.0
C1729 C 0.82935 0.93874 0.22392 0.0
C1730 C 0.86655 0.93787 0.233 0.0
C1731 C 0.83863 0.96179 0.23511 0.0
C1732 C 0.89539 0.9633 0.22525 0.0
C1733 C 0.91439 0.91499 0.23193 0.0
N1734 N 0.85684 0.96096 0.23864 0.0
N1735 N 0.8962 0.91556 0.2361 0.0
H1736 H 0.0815 0.67204 0.01287 0.0
H1737 H 0.16931 0.68756 0.90273 0.0
H1738 H 0.08137 0.69399 0.91101 0.0
H1739 H 0.17246 0.69409 0.00734 0.0
H1740 H 0.13674 0.68604 0.90647 0.0
H1741 H 0.11464 0.67562 0.01263 0.0
C1742 C 0.08841 0.6774 0.99051 0.0
C1743 C 0.07866 0.68268 0.96192 0.0
C1744 C 0.14446 0.68803 0.92871 0.0
C1745 C 0.11623 0.68689 0.96154 0.0
C1746 C 0.16308 0.68891 0.92656 0.0
C1747 C 0.17356 0.69099 0.95477 0.0
C1748 C 0.13609 0.68884 0.95935 0.0
C1749 C 0.16478 0.69271 0.98502 0.0
C1750 C 0.10724 0.67967 0.99047 0.0
C1751 C 0.08825 0.6898 0.93368 0.0
N1752 N 0.14646 0.69131 0.9866 0.0
N1753 N 0.10641 0.69159 0.93423 0.0
H1754 H 0.08358 0.68193 0.35348 0.0
H1755 H 0.17176 0.67071 0.24462 0.0
H1756 H 0.08244 0.70087 0.25085 0.0
H1757 H 0.17268 0.68904 0.34743 0.0
H1758 H 0.13877 0.67522 0.24538 0.0
H1759 H 0.11623 0.67836 0.35073 0.0
C1760 C 0.09024 0.68548 0.33035 0.0
C1761 C 0.08032 0.6918 0.30236 0.0
C1762 C 0.14629 0.67823 0.26767 0.0
C1763 C 0.11772 0.68729 0.29895 0.0
C1764 C 0.16503 0.67542 0.26734 0.0
C1765 C 0.17494 0.67947 0.29602 0.0
C1766 C 0.1375 0.68459 0.297 0.0
C1767 C 0.16559 0.68581 0.32474 0.0
C1768 C 0.10888 0.68346 0.32882 0.0
C1769 C 0.08965 0.6962 0.27304 0.0
N1770 N 0.14742 0.68802 0.32452 0.0
N1771 N 0.10789 0.6936 0.27199 0.0
H1772 H 0.83265 0.42518 0.99506 0.0
H1773 H 0.92478 0.42259 0.09493 0.0
H1774 H 0.83616 0.42459 0.0999 0.0
H1775 H 0.92231 0.45418 0.99687 0.0
H1776 H 0.89243 0.41542 0.09403 0.0
H1777 H 0.8658 0.42762 0.99219 0.0
C1778 C 0.84041 0.42503 0.01736 0.0
C1779 C 0.83177 0.42473 0.04776 0.0
C1780 C 0.89892 0.42397 0.07268 0.0
C1781 C 0.86927 0.42758 0.0447 0.0
C1782 C 0.91743 0.4281 0.07316 0.0
C1783 C 0.92628 0.43921 0.04599 0.0
C1784 C 0.88908 0.43075 0.04476 0.0
C1785 C 0.91598 0.44585 0.01846 0.0
C1786 C 0.85923 0.4267 0.01573 0.0
C1787 C 0.84233 0.42492 0.07599 0.0
N1788 N 0.89786 0.44145 0.01849 0.0
N1789 N 0.86049 0.42633 0.07376 0.0
H1790 H 0.83065 0.45183 0.75721 0.0
H1791 H 0.92239 0.44209 0.65802 0.0
H1792 H 0.83321 0.43172 0.65498 0.0
H1793 H 0.92018 0.4228 0.76054 0.0
H1794 H 0.8897 0.4458 0.65738 0.0
H1795 H 0.8637 0.44892 0.7598 0.0
C1796 C 0.83816 0.44709 0.73531 0.0
C1797 C 0.82922 0.442 0.70583 0.0
C1798 C 0.89635 0.44066 0.68 0.0
C1799 C 0.86672 0.43878 0.70863 0.0
C1800 C 0.91501 0.43857 0.68042 0.0
C1801 C 0.924 0.43199 0.70936 0.0
C1802 C 0.88656 0.43664 0.70884 0.0
C1803 C 0.91373 0.42766 0.73765 0.0
C1804 C 0.85693 0.44521 0.73688 0.0
C1805 C 0.83955 0.43569 0.67823 0.0
N1806 N 0.8955 0.43027 0.73677 0.0
N1807 N 0.85773 0.4344 0.68027 0.0
H1808 H 0.58321 0.22821 0.96766 0.0
H1809 H 0.67284 0.14714 0.94628 0.0
H1810 H 0.58345 0.14048 0.97249 0.0
H1811 H 0.6724 0.22666 0.99114 0.0
H1812 H 0.64018 0.14443 0.95294 0.0
H1813 H 0.61589 0.22858 0.97425 0.0
C1814 C 0.5902 0.20902 0.97058 0.0
C1815 C 0.58076 0.18426 0.96949 0.0
C1816 C 0.64726 0.16232 0.96163 0.0
C1817 C 0.61808 0.18451 0.97622 0.0
C1818 C 0.66586 0.16403 0.95758 0.0
C1819 C 0.6753 0.18733 0.96786 0.0
C1820 C 0.63798 0.1843 0.97541 0.0
C1821 C 0.66562 0.2084 0.98276 0.0
C1822 C 0.6088 0.20926 0.97441 0.0
C1823 C 0.59033 0.15995 0.97336 0.0
N1824 N 0.64742 0.20658 0.98564 0.0
N1825 N 0.6086 0.16063 0.97594 0.0
H1826 H 0.67296 0.13598 0.28174 0.0
H1827 H 0.58562 0.22996 0.26577 0.0
H1828 H 0.67478 0.22367 0.28742 0.0
H1829 H 0.58411 0.15 0.30953 0.0
H1830 H 0.61829 0.22532 0.2587 0.0
H1831 H 0.63992 0.13833 0.2766 0.0
C1832 C 0.66642 0.15566 0.2812 0.0
C1833 C 0.67642 0.17965 0.28523 0.0
C1834 C 0.61071 0.20876 0.26962 0.0
C1835 C 0.63911 0.18252 0.27911 0.0
C1836 C 0.59214 0.2114 0.27366 0.0
C1837 C 0.58223 0.19052 0.2887 0.0
C1838 C 0.61932 0.18487 0.28006 0.0
C1839 C 0.59131 0.16679 0.29832 0.0
C1840 C 0.64766 0.157 0.27849 0.0
C1841 C 0.66742 0.20471 0.28465 0.0
N1842 N 0.60936 0.16459 0.29384 0.0
N1843 N 0.64927 0.20552 0.28169 0.0
H1844 H 0.33363 0.92217 0.99139 0.0
H1845 H 0.42307 0.93345 0.09789 0.0
H1846 H 0.33419 0.93147 0.0959 0.0
H1847 H 0.42261 0.95465 0.99584 0.0
H1848 H 0.39068 0.92645 0.09602 0.0
H1849 H 0.36665 0.92723 0.99095 0.0
C1850 C 0.34071 0.92485 0.0142 0.0
C1851 C 0.33122 0.92644 0.04372 0.0
C1852 C 0.39761 0.93276 0.07402 0.0
C1853 C 0.36864 0.9323 0.04337 0.0
C1854 C 0.41612 0.93678 0.07507 0.0
C1855 C 0.42554 0.94478 0.047 0.0
C1856 C 0.38836 0.93641 0.0446 0.0
C1857 C 0.41581 0.94875 0.0181 0.0
C1858 C 0.35946 0.92801 0.0139 0.0
C1859 C 0.34097 0.93025 0.07258 0.0
N1860 N 0.39769 0.94435 0.01757 0.0
N1861 N 0.3591 0.93301 0.07167 0.0
H1862 H 0.33408 0.8924 0.70691 0.0
H1863 H 0.42162 0.98027 0.70355 0.0
H1864 H 0.3324 0.97835 0.72852 0.0
H1865 H 0.4231 0.89572 0.7321 0.0
H1866 H 0.38904 0.98027 0.71145 0.0
H1867 H 0.36661 0.8929 0.71503 0.0
C1868 C 0.34059 0.91136 0.71366 0.0
C1869 C 0.33063 0.93546 0.71674 0.0
C1870 C 0.3965 0.96183 0.71645 0.0
C1871 C 0.36785 0.9362 0.72561 0.0
C1872 C 0.41506 0.96173 0.71172 0.0
C1873 C 0.42499 0.93784 0.71683 0.0
C1874 C 0.38773 0.93768 0.72557 0.0
C1875 C 0.4159 0.9145 0.72779 0.0
C1876 C 0.35912 0.91157 0.71849 0.0
C1877 C 0.33965 0.95938 0.72585 0.0
N1878 N 0.39767 0.91484 0.73121 0.0
N1879 N 0.35787 0.95929 0.72936 0.0
H1880 H 0.66918 0.68744 0.40221 0.0
H1881 H 0.57933 0.67372 0.50725 0.0
H1882 H 0.66994 0.69814 0.50652 0.0
H1883 H 0.58091 0.69221 0.40447 0.0
H1884 H 0.61243 0.6775 0.50876 0.0
H1885 H 0.6366 0.68458 0.40381 0.0
C1886 C 0.66243 0.68938 0.42552 0.0
C1887 C 0.67226 0.69307 0.45428 0.0
C1888 C 0.60543 0.6807 0.48599 0.0
C1889 C 0.63477 0.68945 0.45636 0.0
C1890 C 0.58662 0.67829 0.48503 0.0
C1891 C 0.57738 0.68263 0.45569 0.0
C1892 C 0.6149 0.68705 0.45729 0.0
C1893 C 0.58743 0.68878 0.42767 0.0
C1894 C 0.6438 0.68774 0.42641 0.0
C1895 C 0.6628 0.6955 0.48377 0.0
N1896 N 0.60558 0.69072 0.42918 0.0
N1897 N 0.64449 0.6934 0.48414 0.0
H1898 H 0.67297 0.69057 0.85383 0.0
H1899 H 0.58474 0.70553 0.74609 0.0
H1900 H 0.67379 0.67363 0.7507 0.0
H1901 H 0.58397 0.68737 0.84898 0.0
H1902 H 0.61767 0.70011 0.74626 0.0
H1903 H 0.64041 0.69524 0.85152 0.0
C1904 C 0.66625 0.68767 0.83068 0.0
C1905 C 0.67606 0.68161 0.80242 0.0
C1906 C 0.61021 0.69735 0.7687 0.0
C1907 C 0.63875 0.68737 0.79952 0.0
C1908 C 0.5915 0.70068 0.7687 0.0
C1909 C 0.58164 0.69693 0.79757 0.0
C1910 C 0.61901 0.69073 0.79788 0.0
C1911 C 0.59101 0.69038 0.82614 0.0
C1912 C 0.64766 0.69033 0.82939 0.0
C1913 C 0.66666 0.67807 0.77308 0.0
N1914 N 0.60914 0.68762 0.82558 0.0
N1915 N 0.64846 0.68126 0.77229 0.0
H1916 H 0.42688 0.45279 0.49635 0.0
H1917 H 0.33563 0.44221 0.59742 0.0
H1918 H 0.42464 0.43507 0.59927 0.0
H1919 H 0.33719 0.42299 0.49487 0.0
H1920 H 0.36827 0.44653 0.59734 0.0
H1921 H 0.39383 0.44896 0.49412 0.0
C1922 C 0.41944 0.44835 0.51846 0.0
C1923 C 0.42848 0.44422 0.54804 0.0
C1924 C 0.36151 0.44126 0.57486 0.0
C1925 C 0.39098 0.43996 0.54566 0.0
C1926 C 0.34286 0.43881 0.57485 0.0
C1927 C 0.33368 0.4321 0.54612 0.0
C1928 C 0.37113 0.43741 0.54582 0.0
C1929 C 0.34379 0.42795 0.5176 0.0
C1930 C 0.40067 0.44596 0.51711 0.0
C1931 C 0.41824 0.4383 0.57592 0.0
N1932 N 0.36203 0.43087 0.51808 0.0
N1933 N 0.40007 0.43648 0.57406 0.0
H1934 H 0.33056 0.3958 0.21419 0.0
H1935 H 0.41964 0.4789 0.18782 0.0
H1936 H 0.33072 0.48357 0.21842 0.0
H1937 H 0.42003 0.39852 0.23055 0.0
H1938 H 0.38709 0.48091 0.19615 0.0
H1939 H 0.36333 0.39597 0.21837 0.0
C1940 C 0.33757 0.41512 0.21646 0.0
C1941 C 0.32807 0.43973 0.21589 0.0
C1942 C 0.39434 0.46296 0.20396 0.0
C1943 C 0.36548 0.4401 0.21989 0.0
C1944 C 0.41287 0.46165 0.19893 0.0
C1945 C 0.42251 0.43834 0.20817 0.0
C1946 C 0.38533 0.4406 0.21773 0.0
C1947 C 0.4131 0.4168 0.22291 0.0
C1948 C 0.35622 0.4152 0.21892 0.0
C1949 C 0.33765 0.46421 0.21893 0.0
N1950 N 0.39496 0.41829 0.22684 0.0
N1951 N 0.35596 0.46383 0.22019 0.0
H1952 H 0.01606 0.15901 0.33878 0.0
H1953 H 0.98023 1.00733 0.30564 0.0
H1954 H 1.00082 0.10375 0.41591 0.0
H1955 H 0.01113 1.05275 0.2351 0.0
H1956 H 0.98391 1.04471 0.34457 0.0
H1957 H 0.01039 0.12288 0.29901 0.0
C1958 C 0.01134 0.13939 0.34743 0.0
C1959 C 0.00896 0.13454 0.38096 0.0
C1960 C 0.98991 1.04656 0.32061 0.0
C1961 C 1.00241 0.09289 0.33515 0.0
C1962 C 0.98788 1.02516 0.29838 0.0
C1963 C 0.99572 1.02664 0.26723 0.0
C1964 C 0.99955 0.07004 0.31157 0.0
C1965 C 0.00497 1.05066 0.25888 0.0
C1966 C 0.00821 0.1187 0.32461 0.0
C1967 C 1.00289 0.10853 0.39044 0.0
N1968 N 0.00666 0.07137 0.28089 0.0
N1969 N 0.99982 0.08877 0.36772 0.0
H1970 H 0.27415 0.3675 0.30596 0.0
H1971 H 0.2387 0.21518 0.33705 0.0
H1972 H 0.24051 0.32421 0.23791 0.0
H1973 H 0.25668 0.2677 0.41484 0.0
H1974 H 0.24336 0.25249 0.29843 0.0
H1975 H 0.27149 0.32922 0.34409 0.0
C1976 C 0.26608 0.35 0.29912 0.0
C1977 C 0.25725 0.34932 0.26887 0.0
C1978 C 0.24638 0.25582 0.32392 0.0
C1979 C 0.25463 0.30488 0.31214 0.0
C1980 C 0.24385 0.23442 0.34606 0.0
C1981 C 0.24726 0.23815 0.37949 0.0
C1982 C 0.25259 0.28125 0.33497 0.0
C1983 C 0.25383 0.26376 0.38943 0.0
C1984 C 0.26466 0.32807 0.32085 0.0
C1985 C 0.24747 0.32568 0.26098 0.0
N1986 N 0.25627 0.28425 0.36734 0.0
N1987 N 0.24644 0.30445 0.2824 0.0
H1988 H 0.01604 0.38326 0.94046 0.0
H1989 H 0.00357 0.22401 0.90774 0.0
H1990 H 0.98439 0.33201 0.00403 0.0
H1991 H 0.01579 0.28141 0.83115 0.0
H1992 H 0.99868 0.26225 0.94518 0.0
H1993 H 0.01847 0.34539 0.90192 0.0
C1994 C 0.00959 0.36406 0.94639 0.0
C1995 C 1.00011 0.36091 0.97582 0.0
C1996 C 1.00228 0.26646 0.9201 0.0
C1997 C 0.00318 0.31706 0.93187 0.0
C1998 C 0.00506 0.24462 0.89866 0.0
C1999 C 0.01007 0.24938 0.86609 0.0
C2000 C 0.00487 0.29335 0.9092 0.0
C2001 C 0.01184 0.27664 0.8559 0.0
C2002 C 0.01103 0.3424 0.92436 0.0
C2003 C 0.99227 0.33532 0.98221 0.0
N2004 N 0.00945 0.2975 0.87739 0.0
N2005 N 0.99407 0.31439 0.96058 0.0
H2006 H 0.23478 0.14873 0.90959 0.0
H2007 H 0.28606 1.01157 0.95353 0.0
H2008 H 0.2616 0.1016 0.83543 0.0
H2009 H 0.23662 1.03377 1.00138 0.0
H2010 H 0.28199 1.0495 0.91523 0.0
H2011 H 0.24017 0.11198 0.94873 0.0
C2012 C 0.24201 0.13082 0.90157 0.0
C2013 C 0.24776 0.12835 0.86903 0.0
C2014 C 0.27203 1.04603 0.93407 0.0
C2015 C 0.2541 0.08622 0.91409 0.0
C2016 C 0.27426 1.0243 0.9558 0.0
C2017 C 0.26133 1.01893 0.98001 0.0
C2018 C 0.25708 0.06322 0.93724 0.0
C2019 C 0.24679 1.03697 0.98284 0.0
C2020 C 0.24496 0.10977 0.92394 0.0
C2021 C 0.2569 0.10443 0.86017 0.0
N2022 N 0.24506 1.05832 0.96177 0.0
N2023 N 0.2599 0.08439 0.88259 0.0
H2024 H 0.03049 0.11909 0.70043 0.0
H2025 H 0.9896 0.97029 0.66831 0.0
H2026 H 0.99266 0.08054 0.76557 0.0
H2027 H 0.01092 1.02076 0.59115 0.0
H2028 H 0.99498 1.00733 0.70693 0.0
H2029 H 0.02747 0.0805 0.66293 0.0
C2030 C 0.02147 0.10254 0.70679 0.0
C2031 C 0.01151 0.10336 0.73592 0.0
C2032 C 0.99859 1.01024 0.68159 0.0
C2033 C 0.00843 1.05855 0.69344 0.0
C2034 C 0.99564 0.98899 0.65945 0.0
C2035 C 0.99977 0.99226 0.62619 0.0
C2036 C 0.00596 1.03501 0.6707 0.0
C2037 C 0.00749 1.01719 0.61643 0.0
C2038 C 0.01982 0.08045 0.68541 0.0
C2039 C 1.0005 0.08086 0.74332 0.0
N2040 N 0.01032 1.03754 0.63853 0.0
N2041 N 0.99925 1.05942 0.72226 0.0
H2042 H 0.76685 0.74625 0.70332 0.0
H2043 H 0.75332 0.90392 0.66312 0.0
H2044 H 0.73241 0.79708 0.76194 0.0
H2045 H 0.76809 0.84452 0.59046 0.0
H2046 H 0.74798 0.86668 0.70203 0.0
H2047 H 0.77009 0.78347 0.66417 0.0
C2048 C 0.75994 0.76524 0.708 0.0
C2049 C 0.74936 0.76843 0.73613 0.0
C2050 C 0.75226 0.86184 0.67748 0.0
C2051 C 0.75338 0.81161 0.6915 0.0
C2052 C 0.75531 0.88309 0.65522 0.0
C2053 C 0.76116 0.87745 0.62332 0.0
C2054 C 0.75541 0.83474 0.66806 0.0
C2055 C 0.76353 0.84997 0.61464 0.0
C2056 C 0.76186 0.78655 0.68564 0.0
C2057 C 0.74103 0.7938 0.74108 0.0
N2058 N 0.76084 0.82976 0.63689 0.0
N2059 N 0.74329 0.81443 0.71911 0.0
H2060 H 0.02631 0.75887 0.05956 0.0
H2061 H 0.9781 0.90223 0.09267 0.0
H2062 H 0.98466 0.79052 0.99749 0.0
H2063 H 0.00624 0.85758 0.16728 0.0
H2064 H 0.98359 0.86472 0.0546 0.0
H2065 H 0.02218 0.79773 0.09629 0.0
C2066 C 0.0162 0.77394 0.05376 0.0
C2067 C 0.00553 0.77109 0.02573 0.0
C2068 C 0.98862 0.86317 0.07926 0.0
C2069 C 1.0011 0.81627 0.06731 0.0
C2070 C 0.98559 0.88469 0.10104 0.0
C2071 C 0.99168 0.8832 0.13343 0.0
C2072 C 0.99805 0.83998 0.08962 0.0
C2073 C 1.00122 0.85974 0.14269 0.0
C2074 C 0.01391 0.79621 0.07468 0.0
C2075 C 0.99308 0.79178 0.01893 0.0
N2076 N 0.00413 0.83917 0.12095 0.0
N2077 N 0.9912 0.81344 0.03953 0.0
H2078 H 0.76808 0.12739 0.05514 0.0
H2079 H 0.75778 0.9691 0.09343 0.0
H2080 H 0.73375 0.07618 0.9965 0.0
H2081 H 0.76633 1.02905 0.1687 0.0
H2082 H 0.75284 1.00623 0.05416 0.0
H2083 H 0.77166 0.08988 0.09376 0.0
C2084 C 0.76128 0.10828 0.0503 0.0
C2085 C 0.75059 0.10511 0.02235 0.0
C2086 C 0.7557 1.01116 0.07933 0.0
C2087 C 0.75512 1.06158 0.06624 0.0
C2088 C 0.75855 0.99001 0.10175 0.0
C2089 C 0.76242 0.99588 0.13454 0.0
C2090 C 0.75718 1.03842 0.08953 0.0
C2091 C 0.76326 1.02345 0.14382 0.0
C2092 C 0.76341 0.08681 0.07235 0.0
C2093 C 0.74247 0.07952 0.01717 0.0
N2094 N 0.76087 1.0436 0.12144 0.0
N2095 N 0.74498 1.05871 0.03877 0.0
H2096 H 0.0135 0.49336 0.81636 0.0
H2097 H 0.99955 0.65156 0.8538 0.0
H2098 H 0.98093 0.5447 0.75514 0.0
H2099 H 0.0134 0.59335 0.92831 0.0
H2100 H 0.99483 0.61384 0.81554 0.0
H2101 H 0.01594 0.53059 0.85577 0.0
C2102 C 0.00686 0.51245 0.81112 0.0
C2103 C 0.99708 0.51578 0.78211 0.0
C2104 C 0.99875 0.60931 0.84033 0.0
C2105 C 1.00017 0.55898 0.82709 0.0
C2106 C 1.00144 0.63086 0.86226 0.0
C2107 C 0.00685 0.62575 0.8945 0.0
C2108 C 1.00182 0.58234 0.85038 0.0
C2109 C 0.00913 0.59839 0.90385 0.0
C2110 C 0.0083 0.53377 0.83366 0.0
C2111 C 0.98901 0.54126 0.77662 0.0
N2112 N 0.0068 0.57783 0.88188 0.0
N2113 N 0.99082 0.56186 0.79873 0.0
H2114 H 0.23943 0.8234 0.73356 0.0
H2115 H 0.25689 0.76639 0.91344 0.0
H2116 H 0.2761 0.86196 0.8005 0.0
H2117 H 0.23524 0.71649 0.83626 0.0
H2118 H 0.26256 0.80278 0.87371 0.0
H2119 H 0.23615 0.78509 0.7718 0.0
C2120 C 0.24681 0.82376 0.75628 0.0
C2121 C 0.25786 0.84607 0.76401 0.0
C2122 C 0.2567 0.78377 0.86544 0.0
C2123 C 0.25406 0.80247 0.80814 0.0
C2124 C 0.25347 0.76294 0.88815 0.0
C2125 C 0.24559 0.73818 0.87834 0.0
C2126 C 0.25177 0.78012 0.83265 0.0
C2127 C 0.24141 0.73508 0.84509 0.0
C2128 C 0.24494 0.80192 0.77812 0.0
C2129 C 0.26714 0.84545 0.79383 0.0
N2130 N 0.24438 0.75582 0.82362 0.0
N2131 N 0.26491 0.8242 0.81487 0.0
H2132 H 0.97833 0.86835 0.45254 0.0
H2133 H 0.01697 0.71881 0.41909 0.0
H2134 H 0.01328 0.82697 0.51978 0.0
H2135 H 0.99923 0.77196 0.3419 0.0
H2136 H 0.01138 0.75524 0.45844 0.0
H2137 H 0.98174 0.83052 0.41406 0.0
C2138 C 0.9868 0.85132 0.45916 0.0
C2139 C 0.99585 0.85109 0.48918 0.0
C2140 C 0.00862 0.75889 0.43292 0.0
C2141 C 0.99939 0.80723 0.44552 0.0
C2142 C 0.01169 0.73801 0.41037 0.0
C2143 C 0.0086 0.74221 0.37693 0.0
C2144 C 1.00213 0.78419 0.42224 0.0
C2145 C 1.00186 0.76772 0.36732 0.0
C2146 C 0.98868 0.82968 0.43721 0.0
C2147 C 0.00616 0.82806 0.49684 0.0
N2148 N 0.99883 0.78766 0.38981 0.0
N2149 N 0.00767 0.8071 0.47519 0.0
H2150 H 0.27669 0.54475 0.50337 0.0
H2151 H 0.24041 0.59116 0.32847 0.0
H2152 H 0.24271 0.49411 0.4434 0.0
H2153 H 0.25526 0.64923 0.40269 0.0
H2154 H 0.24571 0.55413 0.36724 0.0
H2155 H 0.27271 0.58224 0.4645 0.0
C2156 C 0.26819 0.54156 0.48233 0.0
C2157 C 0.25985 0.5162 0.47697 0.0
C2158 C 0.2479 0.57498 0.37499 0.0
C2159 C 0.25587 0.55882 0.43157 0.0
C2160 C 0.24501 0.59618 0.35276 0.0
C2161 C 0.24735 0.6235 0.36221 0.0
C2162 C 0.25342 0.58095 0.40694 0.0
C2163 C 0.25322 0.62856 0.39424 0.0
C2164 C 0.26609 0.56293 0.45994 0.0
C2165 C 0.24955 0.51313 0.44849 0.0
N2166 N 0.25607 0.60755 0.41537 0.0
N2167 N 0.24793 0.53405 0.42688 0.0
H2168 H 0.98882 0.53365 0.0823 0.0
H2169 H 0.0257 0.57771 0.25779 0.0
H2170 H 0.00566 0.47481 0.15405 0.0
H2171 H 0.99013 0.62789 0.20083 0.0
H2172 H 0.02223 0.54115 0.21752 0.0
H2173 H 0.99365 0.57005 0.12221 0.0
C2174 C 0.99374 0.52836 0.10629 0.0
C2175 C 0.99679 0.50099 0.11473 0.0
C2176 C 0.01515 0.56016 0.21392 0.0
C2177 C 1.00234 0.54278 0.16071 0.0
C2178 C 0.01697 0.58097 0.23711 0.0
C2179 C 0.00801 0.60591 0.23304 0.0
C2180 C 0.00458 0.56441 0.18603 0.0
C2181 C 0.99743 0.60917 0.20494 0.0
C2182 C 0.99636 0.54918 0.12916 0.0
C2183 C 0.00306 0.49553 0.14639 0.0
N2184 N 0.99607 0.58879 0.18254 0.0
N2185 N 0.00565 0.51618 0.16814 0.0
H2186 H 0.73121 0.24994 0.19741 0.0
H2187 H 0.7681 0.4014 0.16587 0.0
H2188 H 0.76458 0.29311 0.26602 0.0
H2189 H 0.74987 0.34885 0.08829 0.0
H2190 H 0.76286 0.36448 0.20475 0.0
H2191 H 0.73428 0.28806 0.15918 0.0
C2192 C 0.7393 0.2674 0.20436 0.0
C2193 C 0.74796 0.26807 0.23476 0.0
C2194 C 0.75991 0.36105 0.17926 0.0
C2195 C 0.75107 0.31231 0.19135 0.0
C2196 C 0.76279 0.38223 0.15695 0.0
C2197 C 0.75948 0.37837 0.12351 0.0
C2198 C 0.75347 0.33573 0.16835 0.0
C2199 C 0.75266 0.35288 0.1137 0.0
C2200 C 0.74095 0.28922 0.18256 0.0
C2201 C 0.75776 0.29164 0.2428 0.0
N2202 N 0.7499 0.3326 0.13595 0.0
N2203 N 0.75905 0.31277 0.22128 0.0
H2204 H 0.02503 0.29914 0.50002 0.0
H2205 H 0.98834 0.34298 0.67579 0.0
H2206 H 0.99002 0.24826 0.55799 0.0
H2207 H 0.00432 0.40205 0.60332 0.0
H2208 H 0.99345 0.30656 0.6361 0.0
H2209 H 0.02142 0.33581 0.54006 0.0
C2210 C 0.0164 0.29573 0.52088 0.0
C2211 C 0.00763 0.27056 0.52529 0.0
C2212 C 0.99592 0.32749 0.62894 0.0
C2213 C 0.00405 0.31223 0.57204 0.0
C2214 C 0.99314 0.34833 0.65169 0.0
C2215 C 0.99586 0.37576 0.64299 0.0
C2216 C 1.00172 0.33392 0.59724 0.0
C2217 C 1.00199 0.38127 0.61119 0.0
C2218 C 0.0145 0.31663 0.54393 0.0
C2219 C 0.99718 0.26715 0.55361 0.0
N2220 N 0.00472 0.3606 0.58954 0.0
N2221 N 0.99574 0.28762 0.57587 0.0
H2222 H 0.72535 0.61874 0.55585 0.0
H2223 H 0.76699 0.47143 0.58973 0.0
H2224 H 0.76383 0.5813 0.49142 0.0
H2225 H 0.74762 0.52295 0.66729 0.0
H2226 H 0.76156 0.50828 0.55092 0.0
H2227 H 0.72928 0.58101 0.59436 0.0
C2228 C 0.73471 0.60263 0.54986 0.0
C2229 C 0.74454 0.60348 0.52056 0.0
C2230 C 0.75842 0.51149 0.5764 0.0
C2231 C 0.74864 0.55963 0.56421 0.0
C2232 C 0.7614 0.49036 0.59866 0.0
C2233 C 0.75778 0.49395 0.63206 0.0
C2234 C 0.75146 0.53644 0.58729 0.0
C2235 C 0.75065 0.51916 0.6419 0.0
C2236 C 0.73688 0.58104 0.57182 0.0
C2237 C 0.75602 0.58155 0.51371 0.0
N2238 N 0.74768 0.53935 0.61966 0.0
N2239 N 0.75774 0.56054 0.53528 0.0
H2240 H 0.51828 1.04637 0.73588 0.0
H2241 H 0.49839 0.10413 0.91515 0.0
H2242 H 0.48028 1.00913 0.80173 0.0
H2243 H 0.52461 0.15184 0.84047 0.0
H2244 H 0.49284 0.06814 0.87498 0.0
H2245 H 0.52196 0.08432 0.77449 0.0
C2246 C 0.51068 1.04624 0.75843 0.0
C2247 C 0.49913 1.02438 0.76575 0.0
C2248 C 0.49971 0.08656 0.86733 0.0
C2249 C 0.50338 0.06759 0.8103 0.0
C2250 C 0.50289 0.10717 0.89031 0.0
C2251 C 0.51199 0.13122 0.88136 0.0
C2252 C 0.50584 0.08971 0.83509 0.0
C2253 C 0.5175 0.1338 0.84864 0.0
C2254 C 0.5128 0.06786 0.7805 0.0
C2255 C 0.4896 1.02529 0.79535 0.0
N2256 N 0.51447 0.1133 0.82687 0.0
N2257 N 0.49203 1.04632 0.81658 0.0
H2258 H 0.7386 0.28022 0.92183 0.0
H2259 H 0.77396 0.32596 0.74612 0.0
H2260 H 0.75112 0.22139 0.84717 0.0
H2261 H 0.7385 0.37559 0.80424 0.0
H2262 H 0.77 0.28863 0.78535 0.0
H2263 H 0.74349 0.3169 0.88223 0.0
C2264 C 0.74258 0.27497 0.89724 0.0
C2265 C 0.74441 0.24756 0.88792 0.0
C2266 C 0.76306 0.3077 0.7894 0.0
C2267 C 0.7501 0.28968 0.84234 0.0
C2268 C 0.76515 0.32896 0.76681 0.0
C2269 C 0.75638 0.354 0.77153 0.0
C2270 C 0.75246 0.31162 0.81741 0.0
C2271 C 0.74569 0.35685 0.79965 0.0
C2272 C 0.74524 0.29596 0.87457 0.0
C2273 C 0.74948 0.24216 0.85551 0.0
N2274 N 0.74413 0.33608 0.82151 0.0
N2275 N 0.75221 0.26298 0.83397 0.0
H2276 H 0.52488 0.37855 0.45714 0.0
H2277 H 0.50462 0.22415 0.40922 0.0
H2278 H 0.4834 0.33243 0.50609 0.0
H2279 H 0.52241 0.28352 0.33857 0.0
H2280 H 0.50026 0.26108 0.44889 0.0
H2281 H 0.52801 0.3415 0.41745 0.0
C2282 C 0.51651 0.36055 0.45971 0.0
C2283 C 0.50391 0.35869 0.48519 0.0
C2284 C 0.50501 0.26599 0.42463 0.0
C2285 C 0.50769 0.3158 0.44002 0.0
C2286 C 0.50751 0.24493 0.40195 0.0
C2287 C 0.51382 0.25066 0.37033 0.0
C2288 C 0.5093 0.29298 0.41605 0.0
C2289 C 0.51738 0.27806 0.36247 0.0
C2290 C 0.51829 0.33943 0.437 0.0
C2291 C 0.49356 0.33466 0.48737 0.0
N2292 N 0.51528 0.29808 0.3852 0.0
N2293 N 0.49574 0.31415 0.46524 0.0
H2294 H 0.76213 0.10188 0.3376 0.0
H2295 H 0.73473 1.03064 0.50538 0.0
H2296 H 0.73013 0.14289 0.41024 0.0
H2297 H 0.78352 1.01016 0.4542 0.0
H2298 H 0.73045 0.06916 0.46792 0.0
H2299 H 0.7678 0.06508 0.37676 0.0
C2300 C 0.75638 0.10327 0.3618 0.0
C2301 C 0.74568 0.12569 0.37055 0.0
C2302 C 0.74207 1.05615 0.46486 0.0
C2303 C 0.75184 0.08321 0.41538 0.0
C2304 C 0.74454 1.03419 0.48627 0.0
C2305 C 0.75937 1.01677 0.48277 0.0
C2306 C 0.75436 1.06055 0.4393 0.0
C2307 C 0.77157 1.02233 0.45734 0.0
C2308 C 0.75963 0.08223 0.38416 0.0
C2309 C 0.73856 0.12619 0.40235 0.0
N2310 N 0.76873 1.04351 0.4365 0.0
N2311 N 0.7416 0.10522 0.42341 0.0
H2312 H 0.52518 0.08163 0.25867 0.0
H2313 H 0.48952 1.03547 0.08323 0.0
H2314 H 0.49016 0.13115 0.19979 0.0
H2315 H 0.50505 0.97718 0.15658 0.0
H2316 H 0.49422 0.07224 0.12265 0.0
H2317 H 0.52164 1.04432 0.2194 0.0
C2318 C 0.51654 0.0846 0.23781 0.0
C2319 C 0.50782 0.10963 0.23282 0.0
C2320 C 0.49668 1.05141 0.13007 0.0
C2321 C 0.50433 0.06723 0.18695 0.0
C2322 C 0.49415 1.03037 0.10746 0.0
C2323 C 0.49686 1.00305 0.11648 0.0
C2324 C 0.50223 1.04529 0.16195 0.0
C2325 C 0.50274 0.99786 0.14847 0.0
C2326 C 0.51469 0.06334 0.21518 0.0
C2327 C 0.49732 0.11241 0.20456 0.0
N2328 N 0.50525 1.01873 0.16997 0.0
N2329 N 0.49595 0.09163 0.18269 0.0
H2330 H 0.2644 0.84208 0.07841 0.0
H2331 H 0.23144 0.79434 0.25517 0.0
H2332 H 0.25202 0.89994 0.15425 0.0
H2333 H 0.26465 0.74474 0.19282 0.0
H2334 H 0.23485 0.83223 0.21658 0.0
H2335 H 0.25965 0.80493 0.1173 0.0
C2336 C 0.26043 0.84704 0.10309 0.0
C2337 C 0.25864 0.87434 0.11294 0.0
C2338 C 0.24141 0.81305 0.21144 0.0
C2339 C 0.2532 0.83161 0.15783 0.0
C2340 C 0.23964 0.79144 0.23366 0.0
C2341 C 0.24789 0.76621 0.2275 0.0
C2342 C 0.2512 0.80932 0.18245 0.0
C2343 C 0.25784 0.76359 0.1985 0.0
C2344 C 0.25786 0.82576 0.12539 0.0
C2345 C 0.25359 0.87929 0.14548 0.0
N2346 N 0.25912 0.78471 0.17707 0.0
N2347 N 0.25103 0.85818 0.16669 0.0
H2348 H 0.50781 0.85612 0.66436 0.0
H2349 H 0.48335 0.79154 0.49093 0.0
H2350 H 0.48013 0.90156 0.58988 0.0
H2351 H 0.52619 0.76079 0.55095 0.0
H2352 H 0.48017 0.83048 0.52825 0.0
H2353 H 0.51287 0.81933 0.62501 0.0
C2354 C 0.50288 0.85849 0.63972 0.0
C2355 C 0.49354 0.88215 0.63057 0.0
C2356 C 0.49028 0.81522 0.53325 0.0
C2357 C 0.49906 0.83967 0.58532 0.0
C2358 C 0.49211 0.79302 0.51191 0.0
C2359 C 0.50488 0.77266 0.51802 0.0
C2360 C 0.50117 0.81698 0.56119 0.0
C2361 C 0.51589 0.77567 0.54564 0.0
C2362 C 0.50579 0.83743 0.61722 0.0
C2363 C 0.48747 0.88386 0.59815 0.0
N2364 N 0.51367 0.79716 0.56629 0.0
N2365 N 0.49017 0.86288 0.5769 0.0
H2366 H 0.27399 0.96675 0.58691 0.0
H2367 H 0.22773 0.11118 0.55142 0.0
H2368 H 0.24827 1.01472 0.66161 0.0
H2369 H 0.26689 0.07536 0.48705 0.0
H2370 H 0.23194 0.07326 0.5895 0.0
H2371 H 0.2682 1.00322 0.54762 0.0
C2372 C 0.26698 0.98481 0.59508 0.0
C2373 C 0.26166 0.98754 0.62784 0.0
C2374 C 0.23963 0.07363 0.56707 0.0
C2375 C 0.25494 1.02958 0.5826 0.0
C2376 C 0.23728 0.09534 0.54535 0.0
C2377 C 0.24721 0.09672 0.51623 0.0
C2378 C 0.25177 1.05269 0.55947 0.0
C2379 C 0.25901 0.07519 0.50926 0.0
C2380 C 0.26376 1.00573 0.57257 0.0
C2381 C 0.25267 1.01161 0.63675 0.0
N2382 N 0.26097 1.05411 0.53068 0.0
N2383 N 0.24959 1.03159 0.61433 0.0
H2384 H 0.51121 0.59557 0.41989 0.0
H2385 H 0.47746 0.54887 0.24341 0.0
H2386 H 0.49851 0.65372 0.34462 0.0
H2387 H 0.5117 0.49915 0.30355 0.0
H2388 H 0.48071 0.58619 0.28273 0.0
H2389 H 0.50638 0.55854 0.38081 0.0
C2390 C 0.50716 0.60062 0.3953 0.0
C2391 C 0.50529 0.62797 0.38567 0.0
C2392 C 0.48752 0.5671 0.28725 0.0
C2393 C 0.49973 0.58539 0.3406 0.0
C2394 C 0.48585 0.54581 0.26459 0.0
C2395 C 0.49452 0.52076 0.26977 0.0
C2396 C 0.49762 0.56323 0.3158 0.0
C2397 C 0.5046 0.51789 0.29855 0.0
C2398 C 0.50454 0.57941 0.3729 0.0
C2399 C 0.50015 0.63303 0.35324 0.0
N2400 N 0.5058 0.53871 0.32043 0.0
N2401 N 0.49751 0.61201 0.33196 0.0
H2402 H 0.73825 0.72083 0.34051 0.0
H2403 H 0.76848 0.87585 0.3109 0.0
H2404 H 0.75115 0.77579 0.41919 0.0
H2405 H 0.74123 0.82764 0.23828 0.0
H2406 H 0.76516 0.83837 0.34973 0.0
H2407 H 0.74284 0.75804 0.30176 0.0
C2408 C 0.74225 0.74062 0.34973 0.0
C2409 C 0.74427 0.74501 0.38341 0.0
C2410 C 0.75986 0.83596 0.32535 0.0
C2411 C 0.7495 0.78803 0.3387 0.0
C2412 C 0.7616 0.8575 0.30315 0.0
C2413 C 0.75486 0.85516 0.27126 0.0
C2414 C 0.7516 0.8115 0.3156 0.0
C2415 C 0.74664 0.8304 0.26252 0.0
C2416 C 0.74475 0.76195 0.32748 0.0
C2417 C 0.74941 0.7713 0.39358 0.0
N2418 N 0.74528 0.80958 0.28447 0.0
N2419 N 0.75183 0.79173 0.37139 0.0
H2420 H 0.51691 0.78667 0.83125 0.0
H2421 H 0.48274 0.83289 0.00789 0.0
H2422 H 0.50249 0.72867 0.90598 0.0
H2423 H 0.51586 0.88362 0.94619 0.0
H2424 H 0.4862 0.79545 0.9688 0.0
H2425 H 0.51207 0.82371 0.87025 0.0
C2426 C 0.5125 0.78169 0.8557 0.0
C2427 C 0.51016 0.75439 0.86525 0.0
C2428 C 0.49274 0.81479 0.9639 0.0
C2429 C 0.50464 0.79689 0.91021 0.0
C2430 C 0.49093 0.83612 0.9864 0.0
C2431 C 0.49912 0.86151 0.98054 0.0
C2432 C 0.50254 0.81895 0.93498 0.0
C2433 C 0.50908 0.8646 0.9516 0.0
C2434 C 0.50988 0.80288 0.87806 0.0
C2435 C 0.50453 0.74934 0.89747 0.0
N2436 N 0.51043 0.84371 0.92991 0.0
N2437 N 0.50196 0.77032 0.91872 0.0
H2438 H 0.75673 0.59858 0.83744 0.0
H2439 H 0.74273 0.54314 0.01897 0.0
H2440 H 0.7398 0.65032 0.91665 0.0
H2441 H 0.77788 0.5036 0.95024 0.0
H2442 H 0.73934 0.58126 0.9806 0.0
H2443 H 0.76244 0.56195 0.87684 0.0
C2444 C 0.75434 0.60236 0.86306 0.0
C2445 C 0.7478 0.62772 0.87359 0.0
C2446 C 0.74781 0.56424 0.97393 0.0
C2447 C 0.754 0.58559 0.91886 0.0
C2448 C 0.74978 0.54253 0.99586 0.0
C2449 C 0.76044 0.52 0.9877 0.0
C2450 C 0.7564 0.56333 0.94336 0.0
C2451 C 0.76922 0.52028 0.9573 0.0
C2452 C 0.7576 0.58141 0.88557 0.0
C2453 C 0.74491 0.63125 0.90725 0.0
N2454 N 0.76688 0.54139 0.93617 0.0
N2455 N 0.74785 0.61043 0.92852 0.0
H2456 H 0.49295 0.53301 0.58492 0.0
H2457 H 0.52563 0.58312 0.76025 0.0
H2458 H 0.5053 0.47597 0.66163 0.0
H2459 H 0.49143 0.63119 0.69812 0.0
H2460 H 0.52236 0.54471 0.7224 0.0
H2461 H 0.49721 0.57054 0.62335 0.0
C2462 C 0.49678 0.52832 0.60973 0.0
C2463 C 0.49874 0.50115 0.61995 0.0
C2464 C 0.51553 0.56367 0.71718 0.0
C2465 C 0.50364 0.54431 0.66426 0.0
C2466 C 0.51723 0.58555 0.73896 0.0
C2467 C 0.50864 0.61047 0.73264 0.0
C2468 C 0.5055 0.56685 0.68846 0.0
C2469 C 0.49847 0.61256 0.7039 0.0
C2470 C 0.49907 0.54982 0.63174 0.0
C2471 C 0.5036 0.49653 0.6526 0.0
N2472 N 0.49728 0.59118 0.68287 0.0
N2473 N 0.50593 0.51785 0.67354 0.0
H2474 H 0.26811 0.24346 0.69386 0.0
H2475 H 0.25287 0.4006 0.6524 0.0
H2476 H 0.23329 0.29437 0.75161 0.0
H2477 H 0.26974 0.34195 0.58039 0.0
H2478 H 0.24764 0.36323 0.69098 0.0
H2479 H 0.27107 0.28033 0.65405 0.0
C2480 C 0.26107 0.26238 0.69822 0.0
C2481 C 0.25052 0.26574 0.72637 0.0
C2482 C 0.25234 0.35853 0.66666 0.0
C2483 C 0.25415 0.30847 0.68096 0.0
C2484 C 0.25534 0.37987 0.64456 0.0
C2485 C 0.26175 0.37452 0.61295 0.0
C2486 C 0.2561 0.33157 0.65742 0.0
C2487 C 0.26471 0.34715 0.60435 0.0
C2488 C 0.26281 0.28348 0.67547 0.0
C2489 C 0.24194 0.29098 0.73081 0.0
N2490 N 0.26205 0.32681 0.6265 0.0
N2491 N 0.24403 0.31137 0.7085 0.0
H2492 H 0.5032 0.35416 0.1635 0.0
H2493 H 0.4912 0.2978 0.98146 0.0
H2494 H 0.48399 0.40434 0.08467 0.0
H2495 H 0.52256 0.2568 0.0546 0.0
H2496 H 0.48721 0.33636 0.01907 0.0
H2497 H 0.50917 0.31758 0.1245 0.0
C2498 C 0.50033 0.35762 0.13798 0.0
C2499 C 0.49306 0.38253 0.12751 0.0
C2500 C 0.49496 0.31892 0.0269 0.0
C2501 C 0.49969 0.34031 0.08251 0.0
C2502 C 0.49724 0.29693 0.00542 0.0
C2503 C 0.50698 0.27385 0.01505 0.0
C2504 C 0.5024 0.3178 0.05838 0.0
C2505 C 0.51459 0.27387 0.04638 0.0
C2506 C 0.50375 0.33665 0.11567 0.0
C2507 C 0.48965 0.38561 0.09398 0.0
N2508 N 0.51203 0.29532 0.06692 0.0
N2509 N 0.49285 0.36475 0.07281 0.0
H2510 H 0.26395 0.57521 0.98521 0.0
H2511 H 0.24523 0.5173 0.16488 0.0
H2512 H 0.22759 0.61339 0.05292 0.0
H2513 H 0.2701 0.46938 0.08918 0.0
H2514 H 0.2397 0.55348 0.12507 0.0
H2515 H 0.26746 0.53702 0.02346 0.0
C2516 C 0.25671 0.57553 0.00812 0.0
C2517 C 0.24569 0.59774 0.01607 0.0
C2518 C 0.24626 0.53497 0.11711 0.0
C2519 C 0.2497 0.55418 0.06016 0.0
C2520 C 0.24942 0.51424 0.13987 0.0
C2521 C 0.25815 0.49009 0.13054 0.0
C2522 C 0.25205 0.53186 0.08468 0.0
C2523 C 0.26327 0.4875 0.09764 0.0
C2524 C 0.25871 0.55375 0.02997 0.0
C2525 C 0.23655 0.59702 0.04608 0.0
N2526 N 0.26028 0.50814 0.07606 0.0
N2527 N 0.23886 0.5758 0.06706 0.0
loop_
_geom_bond_atom_site_label_1
_geom_bond_atom_site_label_2
_geom_bond_distance
_geom_bond_site_symmetry_2
_ccdc_geom_bond_type
Co0 O3 1.970 . S
Co0 N17 1.989 . S
Co0 O25 1.967 . S
Co0 O32 1.920 . S
Co1 O4 1.966 . S
Co1 N10 2.022 . S
Co1 N18 1.993 . S
Co1 O26 1.941 . S
C2 O3 1.258 . S
C2 O4 1.263 . S
O3 Co0 1.970 . S
O3 C2 1.258 . S
O4 Co1 1.966 . S
O4 C2 1.263 . S
C5 O6 1.235 . S
C5 O32 1.289 . S
O6 C5 1.235 . S
C7 C9 1.400 . S
C7 N10 1.351 . S
C7 C12 1.501 . S
C8 C9 1.387 . S
C8 N11 1.341 . S
C9 C7 1.400 . S
C9 C8 1.387 . S
N10 Co1 2.022 . S
N10 C7 1.351 . S
N10 N11 1.365 . S
N11 C8 1.341 . S
N11 N10 1.365 . S
N11 H31 0.862 . S
C12 C7 1.501 . S
C12 H13 0.961 . S
C12 H14 0.961 1_455 S
C12 H15 0.960 . S
H13 C12 0.961 . S
H14 C12 0.961 1_655 S
H15 C12 0.960 . S
C16 N17 1.342 . S
C16 C20 1.401 . S
C16 C21 1.499 . S
N17 Co0 1.989 . S
N17 C16 1.342 . S
N17 N18 1.388 . S
N18 Co1 1.993 . S
N18 N17 1.388 . S
N18 C19 1.346 . S
C19 N18 1.346 . S
C19 C20 1.396 . S
C19 C29 1.510 . S
C20 C16 1.401 . S
C20 C19 1.396 . S
C21 C16 1.499 . S
C21 H22 0.959 . S
C21 H23 0.960 . S
C21 H24 0.961 . S
H22 C21 0.959 . S
H23 C21 0.960 . S
H24 C21 0.961 . S
O25 Co0 1.967 . S
O25 C33 1.258 . S
O26 Co1 1.941 . S
O26 C33 1.266 . S
H27 C29 0.959 . S
H28 C29 0.961 . S
C29 C19 1.510 . S
C29 H27 0.959 . S
C29 H28 0.961 . S
C29 H30 0.960 . S
H30 C29 0.960 . S
H31 N11 0.862 . S
O32 Co0 1.920 . S
O32 C5 1.289 . S
C33 O25 1.258 . S
C33 O26 1.266 . S
Co34 O37 1.970 . S
Co34 N51 1.989 . S
Co34 O59 1.967 . S
Co34 O66 1.920 . S
Co35 O38 1.966 . S
Co35 N44 2.022 . S
Co35 N52 1.993 . S
Co35 O60 1.941 . S
C36 O37 1.258 . S
C36 O38 1.263 . S
O37 Co34 1.970 . S
O37 C36 1.258 . S
O38 Co35 1.966 . S
O38 C36 1.263 . S
C39 O40 1.235 . S
C39 O66 1.289 . S
O40 C39 1.235 . S
C41 C43 1.400 . S
C41 N44 1.351 . S
C41 C46 1.501 . S
C42 C43 1.387 . S
C42 N45 1.341 . S
C43 C41 1.400 . S
C43 C42 1.387 . S
N44 Co35 2.022 . S
N44 C41 1.351 . S
N44 N45 1.365 . S
N45 C42 1.341 . S
N45 N44 1.365 . S
N45 H65 0.862 . S
C46 C41 1.501 . S
C46 H47 0.961 . S
C46 H48 0.961 . S
C46 H49 0.960 . S
H47 C46 0.961 . S
H48 C46 0.961 . S
H49 C46 0.960 . S
C50 N51 1.342 . S
C50 C54 1.401 . S
C50 C55 1.499 . S
N51 Co34 1.989 . S
N51 C50 1.342 . S
N51 N52 1.388 . S
N52 Co35 1.993 . S
N52 N51 1.388 . S
N52 C53 1.346 . S
C53 N52 1.346 . S
C53 C54 1.396 . S
C53 C63 1.510 . S
C54 C50 1.401 . S
C54 C53 1.396 . S
C55 C50 1.499 . S
C55 H56 0.959 . S
C55 H57 0.960 . S
C55 H58 0.961 . S
H56 C55 0.959 . S
H57 C55 0.960 . S
H58 C55 0.961 . S
O59 Co34 1.967 . S
O59 C67 1.258 . S
O60 Co35 1.941 . S
O60 C67 1.266 . S
H61 C63 0.959 1_565 S
H62 C63 0.961 . S
C63 C53 1.510 . S
C63 H61 0.959 1_545 S
C63 H62 0.961 . S
C63 H64 0.960 . S
H64 C63 0.960 . S
H65 N45 0.862 . S
O66 Co34 1.920 . S
O66 C39 1.289 . S
C67 O59 1.258 . S
C67 O60 1.266 . S
Co68 O71 1.970 . S
Co68 N85 1.989 . S
Co68 O93 1.967 . S
Co68 O100 1.920 . S
Co69 O72 1.966 . S
Co69 N78 2.022 . S
Co69 N86 1.993 . S
Co69 O94 1.941 . S
C70 O71 1.258 . S
C70 O72 1.263 . S
O71 Co68 1.970 . S
O71 C70 1.258 . S
O72 Co69 1.966 . S
O72 C70 1.263 . S
C73 O74 1.235 . S
C73 O100 1.289 . S
O74 C73 1.235 . S
C75 C77 1.400 . S
C75 N78 1.351 . S
C75 C80 1.501 . S
C76 C77 1.387 . S
C76 N79 1.341 . S
C77 C75 1.400 . S
C77 C76 1.387 . S
N78 Co69 2.022 . S
N78 C75 1.351 . S
N78 N79 1.365 . S
N79 C76 1.341 . S
N79 N78 1.365 . S
N79 H99 0.862 . S
C80 C75 1.501 . S
C80 H81 0.961 . S
C80 H82 0.961 1_455 S
C80 H83 0.960 . S
H81 C80 0.961 . S
H82 C80 0.961 1_655 S
H83 C80 0.960 . S
C84 N85 1.342 . S
C84 C88 1.401 . S
C84 C89 1.499 . S
N85 Co68 1.989 . S
N85 C84 1.342 . S
N85 N86 1.388 . S
N86 Co69 1.993 . S
N86 N85 1.388 . S
N86 C87 1.346 . S
C87 N86 1.346 . S
C87 C88 1.396 . S
C87 C97 1.510 . S
C88 C84 1.401 . S
C88 C87 1.396 . S
C89 C84 1.499 . S
C89 H90 0.959 . S
C89 H91 0.960 . S
C89 H92 0.961 . S
H90 C89 0.959 . S
H91 C89 0.960 . S
H92 C89 0.961 . S
O93 Co68 1.967 . S
O93 C101 1.258 . S
O94 Co69 1.941 . S
O94 C101 1.266 . S
H95 C97 0.959 1_565 S
H96 C97 0.961 . S
C97 C87 1.510 . S
C97 H95 0.959 1_545 S
C97 H96 0.961 . S
C97 H98 0.960 . S
H98 C97 0.960 . S
H99 N79 0.862 . S
O100 Co68 1.920 . S
O100 C73 1.289 . S
C101 O93 1.258 . S
C101 O94 1.266 . S
Co102 O105 1.970 . S
Co102 N119 1.989 . S
Co102 O127 1.967 . S
Co102 O134 1.920 . S
Co103 O106 1.966 . S
Co103 N112 2.022 . S
Co103 N120 1.993 . S
Co103 O128 1.941 . S
C104 O105 1.258 . S
C104 O106 1.263 . S
O105 Co102 1.970 . S
O105 C104 1.258 . S
O106 Co103 1.966 . S
O106 C104 1.263 . S
C107 O108 1.235 . S
C107 O134 1.289 . S
O108 C107 1.235 . S
C109 C111 1.400 . S
C109 N112 1.351 . S
C109 C114 1.501 . S
C110 C111 1.387 . S
C110 N113 1.341 . S
C111 C109 1.400 . S
C111 C110 1.387 . S
N112 Co103 2.022 . S
N112 C109 1.351 . S
N112 N113 1.365 . S
N113 C110 1.341 . S
N113 N112 1.365 . S
N113 H133 0.862 . S
C114 C109 1.501 . S
C114 H115 0.961 . S
C114 H116 0.961 . S
C114 H117 0.960 . S
H115 C114 0.961 . S
H116 C114 0.961 . S
H117 C114 0.960 . S
C118 N119 1.342 . S
C118 C122 1.401 . S
C118 C123 1.499 . S
N119 Co102 1.989 . S
N119 C118 1.342 . S
N119 N120 1.388 . S
N120 Co103 1.993 . S
N120 N119 1.388 . S
N120 C121 1.346 . S
C121 N120 1.346 . S
C121 C122 1.396 . S
C121 C131 1.510 . S
C122 C118 1.401 . S
C122 C121 1.396 . S
C123 C118 1.499 . S
C123 H124 0.959 . S
C123 H125 0.960 . S
C123 H126 0.961 . S
H124 C123 0.959 . S
H125 C123 0.960 . S
H126 C123 0.961 . S
O127 Co102 1.967 . S
O127 C135 1.258 . S
O128 Co103 1.941 . S
O128 C135 1.266 . S
H129 C131 0.959 . S
H130 C131 0.961 . S
C131 C121 1.510 . S
C131 H129 0.959 . S
C131 H130 0.961 . S
C131 H132 0.960 . S
H132 C131 0.960 . S
H133 N113 0.862 . S
O134 Co102 1.920 . S
O134 C107 1.289 . S
C135 O127 1.258 . S
C135 O128 1.266 . S
Co136 O139 1.970 . S
Co136 N153 1.989 . S
Co136 O161 1.967 . S
Co136 O168 1.920 . S
Co137 O140 1.966 . S
Co137 N146 2.022 . S
Co137 N154 1.993 . S
Co137 O162 1.941 . S
C138 O139 1.258 . S
C138 O140 1.263 . S
O139 Co136 1.970 . S
O139 C138 1.258 . S
O140 Co137 1.966 . S
O140 C138 1.263 . S
C141 O142 1.235 . S
C141 O168 1.289 . S
O142 C141 1.235 . S
C143 C145 1.400 . S
C143 N146 1.351 . S
C143 C148 1.501 . S
C144 C145 1.387 . S
C144 N147 1.341 . S
C145 C143 1.400 . S
C145 C144 1.387 . S
N146 Co137 2.022 . S
N146 C143 1.351 . S
N146 N147 1.365 . S
N147 C144 1.341 . S
N147 N146 1.365 . S
N147 H167 0.862 . S
C148 C143 1.501 . S
C148 H149 0.961 . S
C148 H150 0.961 1_655 S
C148 H151 0.960 . S
H149 C148 0.961 . S
H150 C148 0.961 1_455 S
H151 C148 0.960 . S
C152 N153 1.342 . S
C152 C156 1.401 . S
C152 C157 1.499 . S
N153 Co136 1.989 . S
N153 C152 1.342 . S
N153 N154 1.388 . S
N154 Co137 1.993 . S
N154 N153 1.388 . S
N154 C155 1.346 . S
C155 N154 1.346 . S
C155 C156 1.396 . S
C155 C165 1.510 . S
C156 C152 1.401 . S
C156 C155 1.396 . S
C157 C152 1.499 . S
C157 H158 0.959 . S
C157 H159 0.960 . S
C157 H160 0.961 . S
H158 C157 0.959 . S
H159 C157 0.960 . S
H160 C157 0.961 . S
O161 Co136 1.967 . S
O161 C169 1.258 . S
O162 Co137 1.941 . S
O162 C169 1.266 . S
H163 C165 0.959 . S
H164 C165 0.961 . S
C165 C155 1.510 . S
C165 H163 0.959 . S
C165 H164 0.961 . S
C165 H166 0.960 . S
H166 C165 0.960 . S
H167 N147 0.862 . S
O168 Co136 1.920 . S
O168 C141 1.289 . S
C169 O161 1.258 . S
C169 O162 1.266 . S
Co170 O173 1.970 . S
Co170 N187 1.989 . S
Co170 O195 1.967 . S
Co170 O202 1.920 . S
Co171 O174 1.966 . S
Co171 N180 2.022 . S
Co171 N188 1.993 . S
Co171 O196 1.941 . S
C172 O173 1.258 . S
C172 O174 1.263 . S
O173 Co170 1.970 . S
O173 C172 1.258 . S
O174 Co171 1.966 . S
O174 C172 1.263 . S
C175 O176 1.235 . S
C175 O202 1.289 . S
O176 C175 1.235 . S
C177 C179 1.400 . S
C177 N180 1.351 . S
C177 C182 1.501 . S
C178 C179 1.387 . S
C178 N181 1.341 . S
C179 C177 1.400 . S
C179 C178 1.387 . S
N180 Co171 2.022 . S
N180 C177 1.351 . S
N180 N181 1.365 . S
N181 C178 1.341 . S
N181 N180 1.365 . S
N181 H201 0.862 . S
C182 C177 1.501 . S
C182 H183 0.961 . S
C182 H184 0.961 . S
C182 H185 0.960 . S
H183 C182 0.961 . S
H184 C182 0.961 . S
H185 C182 0.960 . S
C186 N187 1.342 . S
C186 C190 1.401 . S
C186 C191 1.499 . S
N187 Co170 1.989 . S
N187 C186 1.342 . S
N187 N188 1.388 . S
N188 Co171 1.993 . S
N188 N187 1.388 . S
N188 C189 1.346 . S
C189 N188 1.346 . S
C189 C190 1.396 . S
C189 C199 1.510 . S
C190 C186 1.401 . S
C190 C189 1.396 . S
C191 C186 1.499 . S
C191 H192 0.959 . S
C191 H193 0.960 . S
C191 H194 0.961 . S
H192 C191 0.959 . S
H193 C191 0.960 . S
H194 C191 0.961 . S
O195 Co170 1.967 . S
O195 C203 1.258 . S
O196 Co171 1.941 . S
O196 C203 1.266 . S
H197 C199 0.959 1_545 S
H198 C199 0.961 . S
C199 C189 1.510 . S
C199 H197 0.959 1_565 S
C199 H198 0.961 . S
C199 H200 0.960 . S
H200 C199 0.960 . S
H201 N181 0.862 . S
O202 Co170 1.920 . S
O202 C175 1.289 . S
C203 O195 1.258 . S
C203 O196 1.266 . S
Co204 O207 1.970 . S
Co204 N221 1.989 . S
Co204 O229 1.967 . S
Co204 O236 1.920 . S
Co205 O208 1.966 . S
Co205 N214 2.022 . S
Co205 N222 1.993 . S
Co205 O230 1.941 . S
C206 O207 1.258 . S
C206 O208 1.263 . S
O207 Co204 1.970 . S
O207 C206 1.258 . S
O208 Co205 1.966 . S
O208 C206 1.263 . S
C209 O210 1.235 . S
C209 O236 1.289 . S
O210 C209 1.235 . S
C211 C213 1.400 . S
C211 N214 1.351 . S
C211 C216 1.501 . S
C212 C213 1.387 . S
C212 N215 1.341 . S
C213 C211 1.400 . S
C213 C212 1.387 . S
N214 Co205 2.022 . S
N214 C211 1.351 . S
N214 N215 1.365 . S
N215 C212 1.341 . S
N215 N214 1.365 . S
N215 H235 0.862 . S
C216 C211 1.501 . S
C216 H217 0.961 . S
C216 H218 0.961 1_655 S
C216 H219 0.960 . S
H217 C216 0.961 . S
H218 C216 0.961 1_455 S
H219 C216 0.960 . S
C220 N221 1.342 . S
C220 C224 1.401 . S
C220 C225 1.499 . S
N221 Co204 1.989 . S
N221 C220 1.342 . S
N221 N222 1.388 . S
N222 Co205 1.993 . S
N222 N221 1.388 . S
N222 C223 1.346 . S
C223 N222 1.346 . S
C223 C224 1.396 . S
C223 C233 1.510 . S
C224 C220 1.401 . S
C224 C223 1.396 . S
C225 C220 1.499 . S
C225 H226 0.959 . S
C225 H227 0.960 . S
C225 H228 0.961 . S
H226 C225 0.959 . S
H227 C225 0.960 . S
H228 C225 0.961 . S
O229 Co204 1.967 . S
O229 C237 1.258 . S
O230 Co205 1.941 . S
O230 C237 1.266 . S
H231 C233 0.959 1_545 S
H232 C233 0.961 . S
C233 C223 1.510 . S
C233 H231 0.959 1_565 S
C233 H232 0.961 . S
C233 H234 0.960 . S
H234 C233 0.960 . S
H235 N215 0.862 . S
O236 Co204 1.920 . S
O236 C209 1.289 . S
C237 O229 1.258 . S
C237 O230 1.266 . S
Co238 O241 1.970 . S
Co238 N255 1.989 . S
Co238 O263 1.967 . S
Co238 O270 1.920 . S
Co239 O242 1.966 . S
Co239 N248 2.022 . S
Co239 N256 1.993 . S
Co239 O264 1.941 . S
C240 O241 1.258 . S
C240 O242 1.263 . S
O241 Co238 1.970 . S
O241 C240 1.258 . S
O242 Co239 1.966 . S
O242 C240 1.263 . S
C243 O244 1.235 . S
C243 O270 1.289 . S
O244 C243 1.235 . S
C245 C247 1.400 . S
C245 N248 1.351 . S
C245 C250 1.501 . S
C246 C247 1.387 . S
C246 N249 1.341 . S
C247 C245 1.400 . S
C247 C246 1.387 . S
N248 Co239 2.022 . S
N248 C245 1.351 . S
N248 N249 1.365 . S
N249 C246 1.341 . S
N249 N248 1.365 . S
N249 H269 0.862 . S
C250 C245 1.501 . S
C250 H251 0.961 . S
C250 H252 0.961 . S
C250 H253 0.960 . S
H251 C250 0.961 . S
H252 C250 0.961 . S
H253 C250 0.960 . S
C254 N255 1.342 . S
C254 C258 1.401 . S
C254 C259 1.499 . S
N255 Co238 1.989 . S
N255 C254 1.342 . S
N255 N256 1.388 . S
N256 Co239 1.993 . S
N256 N255 1.388 . S
N256 C257 1.346 . S
C257 N256 1.346 . S
C257 C258 1.396 . S
C257 C267 1.510 . S
C258 C254 1.401 . S
C258 C257 1.396 . S
C259 C254 1.499 . S
C259 H260 0.959 . S
C259 H261 0.960 . S
C259 H262 0.961 . S
H260 C259 0.959 . S
H261 C259 0.960 . S
H262 C259 0.961 . S
O263 Co238 1.967 . S
O263 C271 1.258 . S
O264 Co239 1.941 . S
O264 C271 1.266 . S
H265 C267 0.959 . S
H266 C267 0.961 . S
C267 C257 1.510 . S
C267 H265 0.959 . S
C267 H266 0.961 . S
C267 H268 0.960 . S
H268 C267 0.960 . S
H269 N249 0.862 . S
O270 Co238 1.920 . S
O270 C243 1.289 . S
C271 O263 1.258 . S
C271 O264 1.266 . S
Co272 O275 1.970 . S
Co272 N289 1.989 . S
Co272 O297 1.967 . S
Co272 O304 1.920 1_556 S
Co273 O276 1.966 . S
Co273 N282 2.022 . S
Co273 N290 1.993 . S
Co273 O298 1.941 . S
C274 O275 1.258 . S
C274 O276 1.263 . S
O275 Co272 1.970 . S
O275 C274 1.258 . S
O276 Co273 1.966 . S
O276 C274 1.263 . S
C277 O278 1.235 . S
C277 O304 1.289 . S
O278 C277 1.235 . S
C279 C281 1.400 . S
C279 N282 1.351 . S
C279 C284 1.501 . S
C280 C281 1.387 . S
C280 N283 1.341 . S
C281 C279 1.400 . S
C281 C280 1.387 . S
N282 Co273 2.022 . S
N282 C279 1.351 . S
N282 N283 1.365 . S
N283 C280 1.341 . S
N283 N282 1.365 . S
N283 H303 0.862 . S
C284 C279 1.501 . S
C284 H285 0.961 . S
C284 H286 0.961 1_455 S
C284 H287 0.960 . S
H285 C284 0.961 . S
H286 C284 0.961 1_655 S
H287 C284 0.960 . S
C288 N289 1.342 1_554 S
C288 C292 1.401 1_554 S
C288 C293 1.499 . S
N289 Co272 1.989 . S
N289 C288 1.342 1_556 S
N289 N290 1.388 . S
N290 Co273 1.993 . S
N290 N289 1.388 . S
N290 C291 1.346 . S
C291 N290 1.346 . S
C291 C292 1.396 . S
C291 C301 1.510 . S
C292 C288 1.401 1_556 S
C292 C291 1.396 . S
C293 C288 1.499 . S
C293 H294 0.959 . S
C293 H295 0.960 . S
C293 H296 0.961 . S
H294 C293 0.959 . S
H295 C293 0.960 . S
H296 C293 0.961 . S
O297 Co272 1.967 . S
O297 C305 1.258 . S
O298 Co273 1.941 . S
O298 C305 1.266 . S
H299 C301 0.959 . S
H300 C301 0.961 . S
C301 C291 1.510 . S
C301 H299 0.959 . S
C301 H300 0.961 . S
C301 H302 0.960 . S
H302 C301 0.960 . S
H303 N283 0.862 . S
O304 Co272 1.920 1_554 S
O304 C277 1.289 . S
C305 O297 1.258 . S
C305 O298 1.266 . S
Co306 O309 1.970 . S
Co306 N323 1.989 . S
Co306 O331 1.967 . S
Co306 O338 1.920 1_556 S
Co307 O310 1.966 . S
Co307 N316 2.022 . S
Co307 N324 1.993 . S
Co307 O332 1.941 . S
C308 O309 1.258 . S
C308 O310 1.263 . S
O309 Co306 1.970 . S
O309 C308 1.258 . S
O310 Co307 1.966 . S
O310 C308 1.263 . S
C311 O312 1.235 . S
C311 O338 1.289 . S
O312 C311 1.235 . S
C313 C315 1.400 . S
C313 N316 1.351 . S
C313 C318 1.501 . S
C314 C315 1.387 . S
C314 N317 1.341 . S
C315 C313 1.400 . S
C315 C314 1.387 . S
N316 Co307 2.022 . S
N316 C313 1.351 . S
N316 N317 1.365 . S
N317 C314 1.341 . S
N317 N316 1.365 . S
N317 H337 0.862 . S
C318 C313 1.501 . S
C318 H319 0.961 . S
C318 H320 0.961 . S
C318 H321 0.960 . S
H319 C318 0.961 . S
H320 C318 0.961 . S
H321 C318 0.960 . S
C322 N323 1.342 1_554 S
C322 C326 1.401 1_554 S
C322 C327 1.499 . S
N323 Co306 1.989 . S
N323 C322 1.342 1_556 S
N323 N324 1.388 . S
N324 Co307 1.993 . S
N324 N323 1.388 . S
N324 C325 1.346 . S
C325 N324 1.346 . S
C325 C326 1.396 . S
C325 C335 1.510 . S
C326 C322 1.401 1_556 S
C326 C325 1.396 . S
C327 C322 1.499 . S
C327 H328 0.959 . S
C327 H329 0.960 . S
C327 H330 0.961 . S
H328 C327 0.959 . S
H329 C327 0.960 . S
H330 C327 0.961 . S
O331 Co306 1.967 . S
O331 C339 1.258 . S
O332 Co307 1.941 . S
O332 C339 1.266 . S
H333 C335 0.959 . S
H334 C335 0.961 . S
C335 C325 1.510 . S
C335 H333 0.959 . S
C335 H334 0.961 . S
C335 H336 0.960 . S
H336 C335 0.960 . S
H337 N317 0.862 . S
O338 Co306 1.920 1_554 S
O338 C311 1.289 . S
C339 O331 1.258 . S
C339 O332 1.266 . S
Co340 O343 1.970 . S
Co340 N357 1.989 . S
Co340 O365 1.967 . S
Co340 O372 1.920 . S
Co341 O344 1.966 . S
Co341 N350 2.022 . S
Co341 N358 1.993 . S
Co341 O366 1.941 . S
C342 O343 1.258 . S
C342 O344 1.263 . S
O343 Co340 1.970 . S
O343 C342 1.258 . S
O344 Co341 1.966 . S
O344 C342 1.263 . S
C345 O346 1.235 . S
C345 O372 1.289 . S
O346 C345 1.235 . S
C347 C349 1.400 . S
C347 N350 1.351 . S
C347 C352 1.501 . S
C348 C349 1.387 . S
C348 N351 1.341 . S
C349 C347 1.400 . S
C349 C348 1.387 . S
N350 Co341 2.022 . S
N350 C347 1.351 . S
N350 N351 1.365 . S
N351 C348 1.341 . S
N351 N350 1.365 . S
N351 H371 0.862 . S
C352 C347 1.501 . S
C352 H353 0.961 . S
C352 H354 0.961 1_455 S
C352 H355 0.960 . S
H353 C352 0.961 . S
H354 C352 0.961 1_655 S
H355 C352 0.960 . S
C356 N357 1.342 . S
C356 C360 1.401 . S
C356 C361 1.499 . S
N357 Co340 1.989 . S
N357 C356 1.342 . S
N357 N358 1.388 . S
N358 Co341 1.993 . S
N358 N357 1.388 . S
N358 C359 1.346 . S
C359 N358 1.346 . S
C359 C360 1.396 . S
C359 C369 1.510 . S
C360 C356 1.401 . S
C360 C359 1.396 . S
C361 C356 1.499 . S
C361 H362 0.959 . S
C361 H363 0.960 . S
C361 H364 0.961 . S
H362 C361 0.959 . S
H363 C361 0.960 . S
H364 C361 0.961 . S
O365 Co340 1.967 . S
O365 C373 1.258 . S
O366 Co341 1.941 . S
O366 C373 1.266 . S
H367 C369 0.959 . S
H368 C369 0.961 . S
C369 C359 1.510 . S
C369 H367 0.959 . S
C369 H368 0.961 . S
C369 H370 0.960 . S
H370 C369 0.960 . S
H371 N351 0.862 . S
O372 Co340 1.920 . S
O372 C345 1.289 . S
C373 O365 1.258 . S
C373 O366 1.266 . S
Co374 O377 1.970 . S
Co374 N391 1.989 . S
Co374 O399 1.967 . S
Co374 O406 1.920 . S
Co375 O378 1.966 . S
Co375 N384 2.022 . S
Co375 N392 1.993 . S
Co375 O400 1.941 . S
C376 O377 1.258 . S
C376 O378 1.263 . S
O377 Co374 1.970 . S
O377 C376 1.258 . S
O378 Co375 1.966 . S
O378 C376 1.263 . S
C379 O380 1.235 . S
C379 O406 1.289 . S
O380 C379 1.235 . S
C381 C383 1.400 . S
C381 N384 1.351 . S
C381 C386 1.501 . S
C382 C383 1.387 . S
C382 N385 1.341 . S
C383 C381 1.400 . S
C383 C382 1.387 . S
N384 Co375 2.022 . S
N384 C381 1.351 . S
N384 N385 1.365 . S
N385 C382 1.341 . S
N385 N384 1.365 . S
N385 H405 0.862 . S
C386 C381 1.501 . S
C386 H387 0.961 . S
C386 H388 0.961 . S
C386 H389 0.960 . S
H387 C386 0.961 . S
H388 C386 0.961 . S
H389 C386 0.960 . S
C390 N391 1.342 . S
C390 C394 1.401 . S
C390 C395 1.499 . S
N391 Co374 1.989 . S
N391 C390 1.342 . S
N391 N392 1.388 . S
N392 Co375 1.993 . S
N392 N391 1.388 . S
N392 C393 1.346 . S
C393 N392 1.346 . S
C393 C394 1.396 . S
C393 C403 1.510 . S
C394 C390 1.401 . S
C394 C393 1.396 . S
C395 C390 1.499 . S
C395 H396 0.959 . S
C395 H397 0.960 . S
C395 H398 0.961 . S
H396 C395 0.959 . S
H397 C395 0.960 . S
H398 C395 0.961 . S
O399 Co374 1.967 . S
O399 C407 1.258 . S
O400 Co375 1.941 . S
O400 C407 1.266 . S
H401 C403 0.959 . S
H402 C403 0.961 . S
C403 C393 1.510 . S
C403 H401 0.959 . S
C403 H402 0.961 . S
C403 H404 0.960 . S
H404 C403 0.960 . S
H405 N385 0.862 . S
O406 Co374 1.920 . S
O406 C379 1.289 . S
C407 O399 1.258 . S
C407 O400 1.266 . S
Co408 O411 1.970 . S
Co408 N425 1.989 . S
Co408 O433 1.967 . S
Co408 O440 1.920 1_554 S
Co409 O412 1.966 . S
Co409 N418 2.022 . S
Co409 N426 1.993 . S
Co409 O434 1.941 . S
C410 O411 1.258 . S
C410 O412 1.263 . S
O411 Co408 1.970 . S
O411 C410 1.258 . S
O412 Co409 1.966 . S
O412 C410 1.263 . S
C413 O414 1.235 . S
C413 O440 1.289 . S
O414 C413 1.235 . S
C415 C417 1.400 . S
C415 N418 1.351 . S
C415 C420 1.501 . S
C416 C417 1.387 . S
C416 N419 1.341 . S
C417 C415 1.400 . S
C417 C416 1.387 . S
N418 Co409 2.022 . S
N418 C415 1.351 . S
N418 N419 1.365 . S
N419 C416 1.341 . S
N419 N418 1.365 . S
N419 H439 0.862 . S
C420 C415 1.501 . S
C420 H421 0.961 . S
C420 H422 0.961 1_655 S
C420 H423 0.960 . S
H421 C420 0.961 . S
H422 C420 0.961 1_455 S
H423 C420 0.960 . S
C424 N425 1.342 1_556 S
C424 C428 1.401 1_556 S
C424 C429 1.499 . S
N425 Co408 1.989 . S
N425 C424 1.342 1_554 S
N425 N426 1.388 . S
N426 Co409 1.993 . S
N426 N425 1.388 . S
N426 C427 1.346 . S
C427 N426 1.346 . S
C427 C428 1.396 . S
C427 C437 1.510 . S
C428 C424 1.401 1_554 S
C428 C427 1.396 . S
C429 C424 1.499 . S
C429 H430 0.959 . S
C429 H431 0.960 . S
C429 H432 0.961 . S
H430 C429 0.959 . S
H431 C429 0.960 . S
H432 C429 0.961 . S
O433 Co408 1.967 . S
O433 C441 1.258 . S
O434 Co409 1.941 . S
O434 C441 1.266 . S
H435 C437 0.959 . S
H436 C437 0.961 . S
C437 C427 1.510 . S
C437 H435 0.959 . S
C437 H436 0.961 . S
C437 H438 0.960 . S
H438 C437 0.960 . S
H439 N419 0.862 . S
O440 Co408 1.920 1_556 S
O440 C413 1.289 . S
C441 O433 1.258 . S
C441 O434 1.266 . S
Co442 O445 1.970 . S
Co442 N459 1.989 . S
Co442 O467 1.967 . S
Co442 O474 1.920 1_554 S
Co443 O446 1.966 . S
Co443 N452 2.022 . S
Co443 N460 1.993 . S
Co443 O468 1.941 . S
C444 O445 1.258 . S
C444 O446 1.263 . S
O445 Co442 1.970 . S
O445 C444 1.258 . S
O446 Co443 1.966 . S
O446 C444 1.263 . S
C447 O448 1.235 . S
C447 O474 1.289 . S
O448 C447 1.235 . S
C449 C451 1.400 . S
C449 N452 1.351 . S
C449 C454 1.501 . S
C450 C451 1.387 . S
C450 N453 1.341 . S
C451 C449 1.400 . S
C451 C450 1.387 . S
N452 Co443 2.022 . S
N452 C449 1.351 . S
N452 N453 1.365 . S
N453 C450 1.341 . S
N453 N452 1.365 . S
N453 H473 0.862 . S
C454 C449 1.501 . S
C454 H455 0.961 . S
C454 H456 0.961 . S
C454 H457 0.960 . S
H455 C454 0.961 . S
H456 C454 0.961 . S
H457 C454 0.960 . S
C458 N459 1.342 1_556 S
C458 C462 1.401 1_556 S
C458 C463 1.499 . S
N459 Co442 1.989 . S
N459 C458 1.342 1_554 S
N459 N460 1.388 . S
N460 Co443 1.993 . S
N460 N459 1.388 . S
N460 C461 1.346 . S
C461 N460 1.346 . S
C461 C462 1.396 . S
C461 C471 1.510 . S
C462 C458 1.401 1_554 S
C462 C461 1.396 . S
C463 C458 1.499 . S
C463 H464 0.959 . S
C463 H465 0.960 . S
C463 H466 0.961 . S
H464 C463 0.959 . S
H465 C463 0.960 . S
H466 C463 0.961 . S
O467 Co442 1.967 . S
O467 C475 1.258 . S
O468 Co443 1.941 . S
O468 C475 1.266 . S
H469 C471 0.959 . S
H470 C471 0.961 . S
C471 C461 1.510 . S
C471 H469 0.959 . S
C471 H470 0.961 . S
C471 H472 0.960 . S
H472 C471 0.960 . S
H473 N453 0.862 . S
O474 Co442 1.920 1_556 S
O474 C447 1.289 . S
C475 O467 1.258 . S
C475 O468 1.266 . S
Co476 O479 1.970 . S
Co476 N493 1.989 . S
Co476 O501 1.967 . S
Co476 O508 1.920 . S
Co477 O480 1.966 . S
Co477 N486 2.022 . S
Co477 N494 1.993 . S
Co477 O502 1.941 . S
C478 O479 1.258 . S
C478 O480 1.263 . S
O479 Co476 1.970 . S
O479 C478 1.258 . S
O480 Co477 1.966 . S
O480 C478 1.263 . S
C481 O482 1.235 . S
C481 O508 1.289 . S
O482 C481 1.235 . S
C483 C485 1.400 . S
C483 N486 1.351 . S
C483 C488 1.501 . S
C484 C485 1.387 . S
C484 N487 1.341 . S
C485 C483 1.400 . S
C485 C484 1.387 . S
N486 Co477 2.022 . S
N486 C483 1.351 . S
N486 N487 1.365 . S
N487 C484 1.341 . S
N487 N486 1.365 . S
N487 H507 0.862 . S
C488 C483 1.501 . S
C488 H489 0.961 . S
C488 H490 0.961 1_655 S
C488 H491 0.960 . S
H489 C488 0.961 . S
H490 C488 0.961 1_455 S
H491 C488 0.960 . S
C492 N493 1.342 . S
C492 C496 1.401 . S
C492 C497 1.499 . S
N493 Co476 1.989 . S
N493 C492 1.342 . S
N493 N494 1.388 . S
N494 Co477 1.993 . S
N494 N493 1.388 . S
N494 C495 1.346 . S
C495 N494 1.346 . S
C495 C496 1.396 . S
C495 C505 1.510 . S
C496 C492 1.401 . S
C496 C495 1.396 . S
C497 C492 1.499 . S
C497 H498 0.959 . S
C497 H499 0.960 . S
C497 H500 0.961 . S
H498 C497 0.959 . S
H499 C497 0.960 . S
H500 C497 0.961 . S
O501 Co476 1.967 . S
O501 C509 1.258 . S
O502 Co477 1.941 . S
O502 C509 1.266 . S
H503 C505 0.959 . S
H504 C505 0.961 . S
C505 C495 1.510 . S
C505 H503 0.959 . S
C505 H504 0.961 . S
C505 H506 0.960 . S
H506 C505 0.960 . S
H507 N487 0.862 . S
O508 Co476 1.920 . S
O508 C481 1.289 . S
C509 O501 1.258 . S
C509 O502 1.266 . S
Co510 O513 1.970 . S
Co510 N527 1.989 . S
Co510 O535 1.967 . S
Co510 O542 1.920 . S
Co511 O514 1.966 . S
Co511 N520 2.022 . S
Co511 N528 1.993 . S
Co511 O536 1.941 . S
C512 O513 1.258 . S
C512 O514 1.263 . S
O513 Co510 1.970 . S
O513 C512 1.258 . S
O514 Co511 1.966 . S
O514 C512 1.263 . S
C515 O516 1.235 . S
C515 O542 1.289 . S
O516 C515 1.235 . S
C517 C519 1.400 . S
C517 N520 1.351 . S
C517 C522 1.501 . S
C518 C519 1.387 . S
C518 N521 1.341 . S
C519 C517 1.400 . S
C519 C518 1.387 . S
N520 Co511 2.022 . S
N520 C517 1.351 . S
N520 N521 1.365 . S
N521 C518 1.341 . S
N521 N520 1.365 . S
N521 H541 0.862 . S
C522 C517 1.501 . S
C522 H523 0.961 . S
C522 H524 0.961 . S
C522 H525 0.960 . S
H523 C522 0.961 . S
H524 C522 0.961 . S
H525 C522 0.960 . S
C526 N527 1.342 . S
C526 C530 1.401 . S
C526 C531 1.499 . S
N527 Co510 1.989 . S
N527 C526 1.342 . S
N527 N528 1.388 . S
N528 Co511 1.993 . S
N528 N527 1.388 . S
N528 C529 1.346 . S
C529 N528 1.346 . S
C529 C530 1.396 . S
C529 C539 1.510 . S
C530 C526 1.401 . S
C530 C529 1.396 . S
C531 C526 1.499 . S
C531 H532 0.959 . S
C531 H533 0.960 . S
C531 H534 0.961 . S
H532 C531 0.959 . S
H533 C531 0.960 . S
H534 C531 0.961 . S
O535 Co510 1.967 . S
O535 C543 1.258 . S
O536 Co511 1.941 . S
O536 C543 1.266 . S
H537 C539 0.959 . S
H538 C539 0.961 . S
C539 C529 1.510 . S
C539 H537 0.959 . S
C539 H538 0.961 . S
C539 H540 0.960 . S
H540 C539 0.960 . S
H541 N521 0.862 . S
O542 Co510 1.920 . S
O542 C515 1.289 . S
C543 O535 1.258 . S
C543 O536 1.266 . S
Co544 O547 1.970 . S
Co544 N561 1.989 . S
Co544 O569 1.967 . S
Co544 O576 1.920 1_556 S
Co545 O548 1.966 . S
Co545 N554 2.022 . S
Co545 N562 1.993 . S
Co545 O570 1.941 . S
C546 O547 1.258 . S
C546 O548 1.263 . S
O547 Co544 1.970 . S
O547 C546 1.258 . S
O548 Co545 1.966 . S
O548 C546 1.263 . S
C549 O550 1.235 . S
C549 O576 1.289 . S
O550 C549 1.235 . S
C551 C553 1.400 . S
C551 N554 1.351 . S
C551 C556 1.501 . S
C552 C553 1.387 . S
C552 N555 1.341 . S
C553 C551 1.400 . S
C553 C552 1.387 . S
N554 Co545 2.022 . S
N554 C551 1.351 . S
N554 N555 1.365 . S
N555 C552 1.341 . S
N555 N554 1.365 . S
N555 H575 0.862 . S
C556 C551 1.501 . S
C556 H557 0.961 . S
C556 H558 0.961 . S
C556 H559 0.960 . S
H557 C556 0.961 . S
H558 C556 0.961 . S
H559 C556 0.960 . S
C560 N561 1.342 1_554 S
C560 C564 1.401 1_554 S
C560 C565 1.499 . S
N561 Co544 1.989 . S
N561 C560 1.342 1_556 S
N561 N562 1.388 . S
N562 Co545 1.993 . S
N562 N561 1.388 . S
N562 C563 1.346 . S
C563 N562 1.346 . S
C563 C564 1.396 . S
C563 C573 1.510 . S
C564 C560 1.401 1_556 S
C564 C563 1.396 . S
C565 C560 1.499 . S
C565 H566 0.959 . S
C565 H567 0.960 . S
C565 H568 0.961 . S
H566 C565 0.959 . S
H567 C565 0.960 . S
H568 C565 0.961 . S
O569 Co544 1.967 . S
O569 C577 1.258 . S
O570 Co545 1.941 . S
O570 C577 1.266 . S
H571 C573 0.959 . S
H572 C573 0.961 . S
C573 C563 1.510 . S
C573 H571 0.959 . S
C573 H572 0.961 . S
C573 H574 0.960 . S
H574 C573 0.960 . S
H575 N555 0.862 . S
O576 Co544 1.920 1_554 S
O576 C549 1.289 . S
C577 O569 1.258 . S
C577 O570 1.266 . S
Co578 O581 1.970 . S
Co578 N595 1.989 . S
Co578 O603 1.967 . S
Co578 O610 1.920 1_556 S
Co579 O582 1.966 . S
Co579 N588 2.022 . S
Co579 N596 1.993 . S
Co579 O604 1.941 . S
C580 O581 1.258 . S
C580 O582 1.263 . S
O581 Co578 1.970 . S
O581 C580 1.258 . S
O582 Co579 1.966 . S
O582 C580 1.263 . S
C583 O584 1.235 . S
C583 O610 1.289 . S
O584 C583 1.235 . S
C585 C587 1.400 . S
C585 N588 1.351 . S
C585 C590 1.501 . S
C586 C587 1.387 . S
C586 N589 1.341 . S
C587 C585 1.400 . S
C587 C586 1.387 . S
N588 Co579 2.022 . S
N588 C585 1.351 . S
N588 N589 1.365 . S
N589 C586 1.341 . S
N589 N588 1.365 . S
N589 H609 0.862 . S
C590 C585 1.501 . S
C590 H591 0.961 . S
C590 H592 0.961 . S
C590 H593 0.960 . S
H591 C590 0.961 . S
H592 C590 0.961 . S
H593 C590 0.960 . S
C594 N595 1.342 1_554 S
C594 C598 1.401 1_554 S
C594 C599 1.499 . S
N595 Co578 1.989 . S
N595 C594 1.342 1_556 S
N595 N596 1.388 . S
N596 Co579 1.993 . S
N596 N595 1.388 . S
N596 C597 1.346 . S
C597 N596 1.346 . S
C597 C598 1.396 . S
C597 C607 1.510 . S
C598 C594 1.401 1_556 S
C598 C597 1.396 . S
C599 C594 1.499 . S
C599 H600 0.959 . S
C599 H601 0.960 . S
C599 H602 0.961 . S
H600 C599 0.959 . S
H601 C599 0.960 . S
H602 C599 0.961 . S
O603 Co578 1.967 . S
O603 C611 1.258 . S
O604 Co579 1.941 . S
O604 C611 1.266 . S
H605 C607 0.959 1_565 S
H606 C607 0.961 . S
C607 C597 1.510 . S
C607 H605 0.959 1_545 S
C607 H606 0.961 . S
C607 H608 0.960 . S
H608 C607 0.960 . S
H609 N589 0.862 . S
O610 Co578 1.920 1_554 S
O610 C583 1.289 . S
C611 O603 1.258 . S
C611 O604 1.266 . S
Co612 O615 1.970 . S
Co612 N629 1.989 . S
Co612 O637 1.967 . S
Co612 O644 1.920 . S
Co613 O616 1.966 . S
Co613 N622 2.022 . S
Co613 N630 1.993 . S
Co613 O638 1.941 . S
C614 O615 1.258 . S
C614 O616 1.263 . S
O615 Co612 1.970 . S
O615 C614 1.258 . S
O616 Co613 1.966 . S
O616 C614 1.263 . S
C617 O618 1.235 . S
C617 O644 1.289 . S
O618 C617 1.235 . S
C619 C621 1.400 . S
C619 N622 1.351 . S
C619 C624 1.501 . S
C620 C621 1.387 . S
C620 N623 1.341 . S
C621 C619 1.400 . S
C621 C620 1.387 . S
N622 Co613 2.022 . S
N622 C619 1.351 . S
N622 N623 1.365 . S
N623 C620 1.341 . S
N623 N622 1.365 . S
N623 H643 0.862 . S
C624 C619 1.501 . S
C624 H625 0.961 . S
C624 H626 0.961 . S
C624 H627 0.960 . S
H625 C624 0.961 . S
H626 C624 0.961 . S
H627 C624 0.960 . S
C628 N629 1.342 . S
C628 C632 1.401 . S
C628 C633 1.499 . S
N629 Co612 1.989 . S
N629 C628 1.342 . S
N629 N630 1.388 . S
N630 Co613 1.993 . S
N630 N629 1.388 . S
N630 C631 1.346 . S
C631 N630 1.346 . S
C631 C632 1.396 . S
C631 C641 1.510 . S
C632 C628 1.401 . S
C632 C631 1.396 . S
C633 C628 1.499 . S
C633 H634 0.959 . S
C633 H635 0.960 . S
C633 H636 0.961 . S
H634 C633 0.959 . S
H635 C633 0.960 . S
H636 C633 0.961 . S
O637 Co612 1.967 . S
O637 C645 1.258 . S
O638 Co613 1.941 . S
O638 C645 1.266 . S
H639 C641 0.959 1_565 S
H640 C641 0.961 . S
C641 C631 1.510 . S
C641 H639 0.959 1_545 S
C641 H640 0.961 . S
C641 H642 0.960 . S
H642 C641 0.960 . S
H643 N623 0.862 . S
O644 Co612 1.920 . S
O644 C617 1.289 . S
C645 O637 1.258 . S
C645 O638 1.266 . S
Co646 O649 1.970 . S
Co646 N663 1.989 . S
Co646 O671 1.967 . S
Co646 O678 1.920 . S
Co647 O650 1.966 . S
Co647 N656 2.022 . S
Co647 N664 1.993 . S
Co647 O672 1.941 . S
C648 O649 1.258 . S
C648 O650 1.263 . S
O649 Co646 1.970 . S
O649 C648 1.258 . S
O650 Co647 1.966 . S
O650 C648 1.263 . S
C651 O652 1.235 . S
C651 O678 1.289 . S
O652 C651 1.235 . S
C653 C655 1.400 . S
C653 N656 1.351 . S
C653 C658 1.501 . S
C654 C655 1.387 . S
C654 N657 1.341 . S
C655 C653 1.400 . S
C655 C654 1.387 . S
N656 Co647 2.022 . S
N656 C653 1.351 . S
N656 N657 1.365 . S
N657 C654 1.341 . S
N657 N656 1.365 . S
N657 H677 0.862 . S
C658 C653 1.501 . S
C658 H659 0.961 . S
C658 H660 0.961 . S
C658 H661 0.960 . S
H659 C658 0.961 . S
H660 C658 0.961 . S
H661 C658 0.960 . S
C662 N663 1.342 . S
C662 C666 1.401 . S
C662 C667 1.499 . S
N663 Co646 1.989 . S
N663 C662 1.342 . S
N663 N664 1.388 . S
N664 Co647 1.993 . S
N664 N663 1.388 . S
N664 C665 1.346 . S
C665 N664 1.346 . S
C665 C666 1.396 . S
C665 C675 1.510 . S
C666 C662 1.401 . S
C666 C665 1.396 . S
C667 C662 1.499 . S
C667 H668 0.959 . S
C667 H669 0.960 . S
C667 H670 0.961 . S
H668 C667 0.959 . S
H669 C667 0.960 . S
H670 C667 0.961 . S
O671 Co646 1.967 . S
O671 C679 1.258 . S
O672 Co647 1.941 . S
O672 C679 1.266 . S
H673 C675 0.959 . S
H674 C675 0.961 . S
C675 C665 1.510 . S
C675 H673 0.959 . S
C675 H674 0.961 . S
C675 H676 0.960 . S
H676 C675 0.960 . S
H677 N657 0.862 . S
O678 Co646 1.920 . S
O678 C651 1.289 . S
C679 O671 1.258 . S
C679 O672 1.266 . S
Co680 O683 1.970 . S
Co680 N697 1.989 . S
Co680 O705 1.967 . S
Co680 O712 1.920 1_554 S
Co681 O684 1.966 . S
Co681 N690 2.022 . S
Co681 N698 1.993 . S
Co681 O706 1.941 . S
C682 O683 1.258 . S
C682 O684 1.263 . S
O683 Co680 1.970 . S
O683 C682 1.258 . S
O684 Co681 1.966 . S
O684 C682 1.263 . S
C685 O686 1.235 . S
C685 O712 1.289 . S
O686 C685 1.235 . S
C687 C689 1.400 . S
C687 N690 1.351 . S
C687 C692 1.501 . S
C688 C689 1.387 . S
C688 N691 1.341 . S
C689 C687 1.400 . S
C689 C688 1.387 . S
N690 Co681 2.022 . S
N690 C687 1.351 . S
N690 N691 1.365 . S
N691 C688 1.341 . S
N691 N690 1.365 . S
N691 H711 0.862 . S
C692 C687 1.501 . S
C692 H693 0.961 . S
C692 H694 0.961 . S
C692 H695 0.960 . S
H693 C692 0.961 . S
H694 C692 0.961 . S
H695 C692 0.960 . S
C696 N697 1.342 1_556 S
C696 C700 1.401 1_556 S
C696 C701 1.499 . S
N697 Co680 1.989 . S
N697 C696 1.342 1_554 S
N697 N698 1.388 . S
N698 Co681 1.993 . S
N698 N697 1.388 . S
N698 C699 1.346 . S
C699 N698 1.346 . S
C699 C700 1.396 . S
C699 C709 1.510 . S
C700 C696 1.401 1_554 S
C700 C699 1.396 . S
C701 C696 1.499 . S
C701 H702 0.959 . S
C701 H703 0.960 . S
C701 H704 0.961 . S
H702 C701 0.959 . S
H703 C701 0.960 . S
H704 C701 0.961 . S
O705 Co680 1.967 . S
O705 C713 1.258 . S
O706 Co681 1.941 . S
O706 C713 1.266 . S
H707 C709 0.959 . S
H708 C709 0.961 . S
C709 C699 1.510 . S
C709 H707 0.959 . S
C709 H708 0.961 . S
C709 H710 0.960 . S
H710 C709 0.960 . S
H711 N691 0.862 . S
O712 Co680 1.920 1_556 S
O712 C685 1.289 . S
C713 O705 1.258 . S
C713 O706 1.266 . S
Co714 O717 1.970 . S
Co714 N731 1.989 . S
Co714 O739 1.967 . S
Co714 O746 1.920 1_554 S
Co715 O718 1.966 . S
Co715 N724 2.022 . S
Co715 N732 1.993 . S
Co715 O740 1.941 . S
C716 O717 1.258 . S
C716 O718 1.263 . S
O717 Co714 1.970 . S
O717 C716 1.258 . S
O718 Co715 1.966 . S
O718 C716 1.263 . S
C719 O720 1.235 . S
C719 O746 1.289 . S
O720 C719 1.235 . S
C721 C723 1.400 . S
C721 N724 1.351 . S
C721 C726 1.501 . S
C722 C723 1.387 . S
C722 N725 1.341 . S
C723 C721 1.400 . S
C723 C722 1.387 . S
N724 Co715 2.022 . S
N724 C721 1.351 . S
N724 N725 1.365 . S
N725 C722 1.341 . S
N725 N724 1.365 . S
N725 H745 0.862 . S
C726 C721 1.501 . S
C726 H727 0.961 . S
C726 H728 0.961 . S
C726 H729 0.960 . S
H727 C726 0.961 . S
H728 C726 0.961 . S
H729 C726 0.960 . S
C730 N731 1.342 1_556 S
C730 C734 1.401 1_556 S
C730 C735 1.499 . S
N731 Co714 1.989 . S
N731 C730 1.342 1_554 S
N731 N732 1.388 . S
N732 Co715 1.993 . S
N732 N731 1.388 . S
N732 C733 1.346 . S
C733 N732 1.346 . S
C733 C734 1.396 . S
C733 C743 1.510 . S
C734 C730 1.401 1_554 S
C734 C733 1.396 . S
C735 C730 1.499 . S
C735 H736 0.959 . S
C735 H737 0.960 . S
C735 H738 0.961 . S
H736 C735 0.959 . S
H737 C735 0.960 . S
H738 C735 0.961 . S
O739 Co714 1.967 . S
O739 C747 1.258 . S
O740 Co715 1.941 . S
O740 C747 1.266 . S
H741 C743 0.959 1_545 S
H742 C743 0.961 . S
C743 C733 1.510 . S
C743 H741 0.959 1_565 S
C743 H742 0.961 . S
C743 H744 0.960 . S
H744 C743 0.960 . S
H745 N725 0.862 . S
O746 Co714 1.920 1_556 S
O746 C719 1.289 . S
C747 O739 1.258 . S
C747 O740 1.266 . S
Co748 O751 1.970 . S
Co748 N765 1.989 . S
Co748 O773 1.967 . S
Co748 O780 1.920 . S
Co749 O752 1.966 . S
Co749 N758 2.022 . S
Co749 N766 1.993 . S
Co749 O774 1.941 . S
C750 O751 1.258 . S
C750 O752 1.263 . S
O751 Co748 1.970 . S
O751 C750 1.258 . S
O752 Co749 1.966 . S
O752 C750 1.263 . S
C753 O754 1.235 . S
C753 O780 1.289 . S
O754 C753 1.235 . S
C755 C757 1.400 . S
C755 N758 1.351 . S
C755 C760 1.501 . S
C756 C757 1.387 . S
C756 N759 1.341 . S
C757 C755 1.400 . S
C757 C756 1.387 . S
N758 Co749 2.022 . S
N758 C755 1.351 . S
N758 N759 1.365 . S
N759 C756 1.341 . S
N759 N758 1.365 . S
N759 H779 0.862 . S
C760 C755 1.501 . S
C760 H761 0.961 . S
C760 H762 0.961 . S
C760 H763 0.960 . S
H761 C760 0.961 . S
H762 C760 0.961 . S
H763 C760 0.960 . S
C764 N765 1.342 . S
C764 C768 1.401 . S
C764 C769 1.499 . S
N765 Co748 1.989 . S
N765 C764 1.342 . S
N765 N766 1.388 . S
N766 Co749 1.993 . S
N766 N765 1.388 . S
N766 C767 1.346 . S
C767 N766 1.346 . S
C767 C768 1.396 . S
C767 C777 1.510 . S
C768 C764 1.401 . S
C768 C767 1.396 . S
C769 C764 1.499 . S
C769 H770 0.959 . S
C769 H771 0.960 . S
C769 H772 0.961 . S
H770 C769 0.959 . S
H771 C769 0.960 . S
H772 C769 0.961 . S
O773 Co748 1.967 . S
O773 C781 1.258 . S
O774 Co749 1.941 . S
O774 C781 1.266 . S
H775 C777 0.959 1_545 S
H776 C777 0.961 . S
C777 C767 1.510 . S
C777 H775 0.959 1_565 S
C777 H776 0.961 . S
C777 H778 0.960 . S
H778 C777 0.960 . S
H779 N759 0.862 . S
O780 Co748 1.920 . S
O780 C753 1.289 . S
C781 O773 1.258 . S
C781 O774 1.266 . S
Co782 O785 1.970 . S
Co782 N799 1.989 . S
Co782 O807 1.967 . S
Co782 O814 1.920 . S
Co783 O786 1.966 . S
Co783 N792 2.022 . S
Co783 N800 1.993 . S
Co783 O808 1.941 . S
C784 O785 1.258 . S
C784 O786 1.263 . S
O785 Co782 1.970 . S
O785 C784 1.258 . S
O786 Co783 1.966 . S
O786 C784 1.263 . S
C787 O788 1.235 . S
C787 O814 1.289 . S
O788 C787 1.235 . S
C789 C791 1.400 . S
C789 N792 1.351 . S
C789 C794 1.501 . S
C790 C791 1.387 . S
C790 N793 1.341 . S
C791 C789 1.400 . S
C791 C790 1.387 . S
N792 Co783 2.022 . S
N792 C789 1.351 . S
N792 N793 1.365 . S
N793 C790 1.341 . S
N793 N792 1.365 . S
N793 H813 0.862 . S
C794 C789 1.501 . S
C794 H795 0.961 . S
C794 H796 0.961 . S
C794 H797 0.960 . S
H795 C794 0.961 . S
H796 C794 0.961 . S
H797 C794 0.960 . S
C798 N799 1.342 . S
C798 C802 1.401 . S
C798 C803 1.499 . S
N799 Co782 1.989 . S
N799 C798 1.342 . S
N799 N800 1.388 . S
N800 Co783 1.993 . S
N800 N799 1.388 . S
N800 C801 1.346 . S
C801 N800 1.346 . S
C801 C802 1.396 . S
C801 C811 1.510 . S
C802 C798 1.401 . S
C802 C801 1.396 . S
C803 C798 1.499 . S
C803 H804 0.959 . S
C803 H805 0.960 . S
C803 H806 0.961 . S
H804 C803 0.959 . S
H805 C803 0.960 . S
H806 C803 0.961 . S
O807 Co782 1.967 . S
O807 C815 1.258 . S
O808 Co783 1.941 . S
O808 C815 1.266 . S
H809 C811 0.959 . S
H810 C811 0.961 . S
C811 C801 1.510 . S
C811 H809 0.959 . S
C811 H810 0.961 . S
C811 H812 0.960 . S
H812 C811 0.960 . S
H813 N793 0.862 . S
O814 Co782 1.920 . S
O814 C787 1.289 . S
C815 O807 1.258 . S
C815 O808 1.266 . S
Co816 O819 1.970 . S
Co816 N833 1.989 . S
Co816 O841 1.967 . S
Co816 O848 1.920 . S
Co817 O820 1.966 . S
Co817 N826 2.022 . S
Co817 N834 1.993 . S
Co817 O842 1.941 . S
C818 O819 1.258 . S
C818 O820 1.263 . S
O819 Co816 1.970 . S
O819 C818 1.258 . S
O820 Co817 1.966 . S
O820 C818 1.263 . S
C821 O822 1.235 . S
C821 O848 1.289 . S
O822 C821 1.235 . S
C823 C825 1.400 . S
C823 N826 1.351 . S
C823 C828 1.501 . S
C824 C825 1.387 . S
C824 N827 1.341 . S
C825 C823 1.400 . S
C825 C824 1.387 . S
N826 Co817 2.022 . S
N826 C823 1.351 . S
N826 N827 1.365 . S
N827 C824 1.341 . S
N827 N826 1.365 . S
N827 H847 0.862 . S
C828 C823 1.501 . S
C828 H829 0.961 . S
C828 H830 0.961 . S
C828 H831 0.960 . S
H829 C828 0.961 . S
H830 C828 0.961 . S
H831 C828 0.960 . S
C832 N833 1.342 . S
C832 C836 1.401 . S
C832 C837 1.499 . S
N833 Co816 1.989 . S
N833 C832 1.342 . S
N833 N834 1.388 . S
N834 Co817 1.993 . S
N834 N833 1.388 . S
N834 C835 1.346 . S
C835 N834 1.346 . S
C835 C836 1.396 . S
C835 C845 1.510 . S
C836 C832 1.401 . S
C836 C835 1.396 . S
C837 C832 1.499 . S
C837 H838 0.959 . S
C837 H839 0.960 . S
C837 H840 0.961 . S
H838 C837 0.959 . S
H839 C837 0.960 . S
H840 C837 0.961 . S
O841 Co816 1.967 . S
O841 C849 1.258 . S
O842 Co817 1.941 . S
O842 C849 1.266 . S
H843 C845 0.959 . S
H844 C845 0.961 . S
C845 C835 1.510 . S
C845 H843 0.959 . S
C845 H844 0.961 . S
C845 H846 0.960 . S
H846 C845 0.960 . S
H847 N827 0.862 . S
O848 Co816 1.920 . S
O848 C821 1.289 . S
C849 O841 1.258 . S
C849 O842 1.266 . S
Co850 O853 1.970 . S
Co850 N867 1.989 . S
Co850 O875 1.967 . S
Co850 O882 1.920 . S
Co851 O854 1.966 . S
Co851 N860 2.022 . S
Co851 N868 1.993 . S
Co851 O876 1.941 . S
C852 O853 1.258 . S
C852 O854 1.263 . S
O853 Co850 1.970 . S
O853 C852 1.258 . S
O854 Co851 1.966 . S
O854 C852 1.263 . S
C855 O856 1.235 . S
C855 O882 1.289 . S
O856 C855 1.235 . S
C857 C859 1.400 . S
C857 N860 1.351 . S
C857 C862 1.501 . S
C858 C859 1.387 . S
C858 N861 1.341 . S
C859 C857 1.400 . S
C859 C858 1.387 . S
N860 Co851 2.022 . S
N860 C857 1.351 . S
N860 N861 1.365 . S
N861 C858 1.341 . S
N861 N860 1.365 . S
N861 H881 0.862 . S
C862 C857 1.501 . S
C862 H863 0.961 . S
C862 H864 0.961 . S
C862 H865 0.960 . S
H863 C862 0.961 . S
H864 C862 0.961 . S
H865 C862 0.960 . S
C866 N867 1.342 . S
C866 C870 1.401 . S
C866 C871 1.499 . S
N867 Co850 1.989 . S
N867 C866 1.342 . S
N867 N868 1.388 . S
N868 Co851 1.993 . S
N868 N867 1.388 . S
N868 C869 1.346 . S
C869 N868 1.346 . S
C869 C870 1.396 . S
C869 C879 1.510 . S
C870 C866 1.401 . S
C870 C869 1.396 . S
C871 C866 1.499 . S
C871 H872 0.959 . S
C871 H873 0.960 . S
C871 H874 0.961 . S
H872 C871 0.959 . S
H873 C871 0.960 . S
H874 C871 0.961 . S
O875 Co850 1.967 . S
O875 C883 1.258 . S
O876 Co851 1.941 . S
O876 C883 1.266 . S
H877 C879 0.959 . S
H878 C879 0.961 . S
C879 C869 1.510 . S
C879 H877 0.959 . S
C879 H878 0.961 . S
C879 H880 0.960 . S
H880 C879 0.960 . S
H881 N861 0.862 . S
O882 Co850 1.920 . S
O882 C855 1.289 . S
C883 O875 1.258 . S
C883 O876 1.266 . S
Co884 O887 1.970 . S
Co884 N901 1.989 . S
Co884 O909 1.967 . S
Co884 O916 1.920 . S
Co885 O888 1.966 . S
Co885 N894 2.022 . S
Co885 N902 1.993 . S
Co885 O910 1.941 . S
C886 O887 1.258 . S
C886 O888 1.263 . S
O887 Co884 1.970 . S
O887 C886 1.258 . S
O888 Co885 1.966 . S
O888 C886 1.263 . S
C889 O890 1.235 . S
C889 O916 1.289 . S
O890 C889 1.235 . S
C891 C893 1.400 . S
C891 N894 1.351 . S
C891 C896 1.501 . S
C892 C893 1.387 . S
C892 N895 1.341 . S
C893 C891 1.400 . S
C893 C892 1.387 . S
N894 Co885 2.022 . S
N894 C891 1.351 . S
N894 N895 1.365 . S
N895 C892 1.341 . S
N895 N894 1.365 . S
N895 H915 0.862 . S
C896 C891 1.501 . S
C896 H897 0.961 . S
C896 H898 0.961 . S
C896 H899 0.960 . S
H897 C896 0.961 . S
H898 C896 0.961 . S
H899 C896 0.960 . S
C900 N901 1.342 . S
C900 C904 1.401 . S
C900 C905 1.499 . S
N901 Co884 1.989 . S
N901 C900 1.342 . S
N901 N902 1.388 . S
N902 Co885 1.993 . S
N902 N901 1.388 . S
N902 C903 1.346 . S
C903 N902 1.346 . S
C903 C904 1.396 . S
C903 C913 1.510 . S
C904 C900 1.401 . S
C904 C903 1.396 . S
C905 C900 1.499 . S
C905 H906 0.959 . S
C905 H907 0.960 . S
C905 H908 0.961 . S
H906 C905 0.959 . S
H907 C905 0.960 . S
H908 C905 0.961 . S
O909 Co884 1.967 . S
O909 C917 1.258 . S
O910 Co885 1.941 . S
O910 C917 1.266 . S
H911 C913 0.959 . S
H912 C913 0.961 . S
C913 C903 1.510 . S
C913 H911 0.959 . S
C913 H912 0.961 . S
C913 H914 0.960 . S
H914 C913 0.960 . S
H915 N895 0.862 . S
O916 Co884 1.920 . S
O916 C889 1.289 . S
C917 O909 1.258 . S
C917 O910 1.266 . S
Co918 O921 1.970 . S
Co918 N935 1.989 . S
Co918 O943 1.967 . S
Co918 O950 1.920 . S
Co919 O922 1.966 . S
Co919 N928 2.022 . S
Co919 N936 1.993 . S
Co919 O944 1.941 . S
C920 O921 1.258 . S
C920 O922 1.263 . S
O921 Co918 1.970 . S
O921 C920 1.258 . S
O922 Co919 1.966 . S
O922 C920 1.263 . S
C923 O924 1.235 . S
C923 O950 1.289 . S
O924 C923 1.235 . S
C925 C927 1.400 . S
C925 N928 1.351 . S
C925 C930 1.501 . S
C926 C927 1.387 . S
C926 N929 1.341 . S
C927 C925 1.400 . S
C927 C926 1.387 . S
N928 Co919 2.022 . S
N928 C925 1.351 . S
N928 N929 1.365 . S
N929 C926 1.341 . S
N929 N928 1.365 . S
N929 H949 0.862 . S
C930 C925 1.501 . S
C930 H931 0.961 . S
C930 H932 0.961 . S
C930 H933 0.960 . S
H931 C930 0.961 . S
H932 C930 0.961 . S
H933 C930 0.960 . S
C934 N935 1.342 . S
C934 C938 1.401 . S
C934 C939 1.499 . S
N935 Co918 1.989 . S
N935 C934 1.342 . S
N935 N936 1.388 . S
N936 Co919 1.993 . S
N936 N935 1.388 . S
N936 C937 1.346 . S
C937 N936 1.346 . S
C937 C938 1.396 . S
C937 C947 1.510 . S
C938 C934 1.401 . S
C938 C937 1.396 . S
C939 C934 1.499 . S
C939 H940 0.959 . S
C939 H941 0.960 . S
C939 H942 0.961 . S
H940 C939 0.959 . S
H941 C939 0.960 . S
H942 C939 0.961 . S
O943 Co918 1.967 . S
O943 C951 1.258 . S
O944 Co919 1.941 . S
O944 C951 1.266 . S
H945 C947 0.959 . S
H946 C947 0.961 . S
C947 C937 1.510 . S
C947 H945 0.959 . S
C947 H946 0.961 . S
C947 H948 0.960 . S
H948 C947 0.960 . S
H949 N929 0.862 . S
O950 Co918 1.920 . S
O950 C923 1.289 . S
C951 O943 1.258 . S
C951 O944 1.266 . S
Co952 O955 1.970 . S
Co952 N969 1.989 . S
Co952 O977 1.967 . S
Co952 O984 1.920 . S
Co953 O956 1.966 . S
Co953 N962 2.022 . S
Co953 N970 1.993 . S
Co953 O978 1.941 . S
C954 O955 1.258 . S
C954 O956 1.263 . S
O955 Co952 1.970 . S
O955 C954 1.258 . S
O956 Co953 1.966 . S
O956 C954 1.263 . S
C957 O958 1.235 . S
C957 O984 1.289 . S
O958 C957 1.235 . S
C959 C961 1.400 . S
C959 N962 1.351 . S
C959 C964 1.501 . S
C960 C961 1.387 . S
C960 N963 1.341 . S
C961 C959 1.400 . S
C961 C960 1.387 . S
N962 Co953 2.022 . S
N962 C959 1.351 . S
N962 N963 1.365 . S
N963 C960 1.341 . S
N963 N962 1.365 . S
N963 H983 0.862 . S
C964 C959 1.501 . S
C964 H965 0.961 . S
C964 H966 0.961 . S
C964 H967 0.960 . S
H965 C964 0.961 . S
H966 C964 0.961 . S
H967 C964 0.960 . S
C968 N969 1.342 . S
C968 C972 1.401 . S
C968 C973 1.499 . S
N969 Co952 1.989 . S
N969 C968 1.342 . S
N969 N970 1.388 . S
N970 Co953 1.993 . S
N970 N969 1.388 . S
N970 C971 1.346 . S
C971 N970 1.346 . S
C971 C972 1.396 . S
C971 C981 1.510 . S
C972 C968 1.401 . S
C972 C971 1.396 . S
C973 C968 1.499 . S
C973 H974 0.959 . S
C973 H975 0.960 . S
C973 H976 0.961 . S
H974 C973 0.959 . S
H975 C973 0.960 . S
H976 C973 0.961 . S
O977 Co952 1.967 . S
O977 C985 1.258 . S
O978 Co953 1.941 . S
O978 C985 1.266 . S
H979 C981 0.959 . S
H980 C981 0.961 . S
C981 C971 1.510 . S
C981 H979 0.959 . S
C981 H980 0.961 . S
C981 H982 0.960 . S
H982 C981 0.960 . S
H983 N963 0.862 . S
O984 Co952 1.920 . S
O984 C957 1.289 . S
C985 O977 1.258 . S
C985 O978 1.266 . S
Co986 O989 1.970 . S
Co986 N1003 1.989 . S
Co986 O1011 1.967 . S
Co986 O1018 1.920 . S
Co987 O990 1.966 . S
Co987 N996 2.022 . S
Co987 N1004 1.993 . S
Co987 O1012 1.941 . S
C988 O989 1.258 . S
C988 O990 1.263 . S
O989 Co986 1.970 . S
O989 C988 1.258 . S
O990 Co987 1.966 . S
O990 C988 1.263 . S
C991 O992 1.235 . S
C991 O1018 1.289 . S
O992 C991 1.235 . S
C993 C995 1.400 . S
C993 N996 1.351 . S
C993 C998 1.501 . S
C994 C995 1.387 . S
C994 N997 1.341 . S
C995 C993 1.400 . S
C995 C994 1.387 . S
N996 Co987 2.022 . S
N996 C993 1.351 . S
N996 N997 1.365 . S
N997 C994 1.341 . S
N997 N996 1.365 . S
N997 H1017 0.862 . S
C998 C993 1.501 . S
C998 H999 0.961 . S
C998 H1000 0.961 . S
C998 H1001 0.960 . S
H999 C998 0.961 . S
H1000 C998 0.961 . S
H1001 C998 0.960 . S
C1002 N1003 1.342 . S
C1002 C1006 1.401 . S
C1002 C1007 1.499 . S
N1003 Co986 1.989 . S
N1003 C1002 1.342 . S
N1003 N1004 1.388 . S
N1004 Co987 1.993 . S
N1004 N1003 1.388 . S
N1004 C1005 1.346 . S
C1005 N1004 1.346 . S
C1005 C1006 1.396 . S
C1005 C1015 1.510 . S
C1006 C1002 1.401 . S
C1006 C1005 1.396 . S
C1007 C1002 1.499 . S
C1007 H1008 0.959 . S
C1007 H1009 0.960 . S
C1007 H1010 0.961 . S
H1008 C1007 0.959 . S
H1009 C1007 0.960 . S
H1010 C1007 0.961 . S
O1011 Co986 1.967 . S
O1011 C1019 1.258 . S
O1012 Co987 1.941 . S
O1012 C1019 1.266 . S
H1013 C1015 0.959 . S
H1014 C1015 0.961 . S
C1015 C1005 1.510 . S
C1015 H1013 0.959 . S
C1015 H1014 0.961 . S
C1015 H1016 0.960 . S
H1016 C1015 0.960 . S
H1017 N997 0.862 . S
O1018 Co986 1.920 . S
O1018 C991 1.289 . S
C1019 O1011 1.258 . S
C1019 O1012 1.266 . S
Co1020 O1023 1.970 . S
Co1020 N1037 1.989 . S
Co1020 O1045 1.967 . S
Co1020 O1052 1.920 . S
Co1021 O1024 1.966 . S
Co1021 N1030 2.022 . S
Co1021 N1038 1.993 . S
Co1021 O1046 1.941 . S
C1022 O1023 1.258 . S
C1022 O1024 1.263 . S
O1023 Co1020 1.970 . S
O1023 C1022 1.258 . S
O1024 Co1021 1.966 . S
O1024 C1022 1.263 . S
C1025 O1026 1.235 . S
C1025 O1052 1.289 . S
O1026 C1025 1.235 . S
C1027 C1029 1.400 . S
C1027 N1030 1.351 . S
C1027 C1032 1.501 . S
C1028 C1029 1.387 . S
C1028 N1031 1.341 . S
C1029 C1027 1.400 . S
C1029 C1028 1.387 . S
N1030 Co1021 2.022 . S
N1030 C1027 1.351 . S
N1030 N1031 1.365 . S
N1031 C1028 1.341 . S
N1031 N1030 1.365 . S
N1031 H1051 0.862 . S
C1032 C1027 1.501 . S
C1032 H1033 0.961 . S
C1032 H1034 0.961 . S
C1032 H1035 0.960 . S
H1033 C1032 0.961 . S
H1034 C1032 0.961 . S
H1035 C1032 0.960 . S
C1036 N1037 1.342 . S
C1036 C1040 1.401 . S
C1036 C1041 1.499 . S
N1037 Co1020 1.989 . S
N1037 C1036 1.342 . S
N1037 N1038 1.388 . S
N1038 Co1021 1.993 . S
N1038 N1037 1.388 . S
N1038 C1039 1.346 . S
C1039 N1038 1.346 . S
C1039 C1040 1.396 . S
C1039 C1049 1.510 . S
C1040 C1036 1.401 . S
C1040 C1039 1.396 . S
C1041 C1036 1.499 . S
C1041 H1042 0.959 . S
C1041 H1043 0.960 . S
C1041 H1044 0.961 . S
H1042 C1041 0.959 . S
H1043 C1041 0.960 . S
H1044 C1041 0.961 . S
O1045 Co1020 1.967 . S
O1045 C1053 1.258 . S
O1046 Co1021 1.941 . S
O1046 C1053 1.266 . S
H1047 C1049 0.959 . S
H1048 C1049 0.961 . S
C1049 C1039 1.510 . S
C1049 H1047 0.959 . S
C1049 H1048 0.961 . S
C1049 H1050 0.960 . S
H1050 C1049 0.960 . S
H1051 N1031 0.862 . S
O1052 Co1020 1.920 . S
O1052 C1025 1.289 . S
C1053 O1045 1.258 . S
C1053 O1046 1.266 . S
Co1054 O1057 1.970 . S
Co1054 N1071 1.989 . S
Co1054 O1079 1.967 . S
Co1054 O1086 1.920 . S
Co1055 O1058 1.966 . S
Co1055 N1064 2.022 . S
Co1055 N1072 1.993 . S
Co1055 O1080 1.941 . S
C1056 O1057 1.258 . S
C1056 O1058 1.263 . S
O1057 Co1054 1.970 . S
O1057 C1056 1.258 . S
O1058 Co1055 1.966 . S
O1058 C1056 1.263 . S
C1059 O1060 1.235 . S
C1059 O1086 1.289 . S
O1060 C1059 1.235 . S
C1061 C1063 1.400 . S
C1061 N1064 1.351 . S
C1061 C1066 1.501 . S
C1062 C1063 1.387 . S
C1062 N1065 1.341 . S
C1063 C1061 1.400 . S
C1063 C1062 1.387 . S
N1064 Co1055 2.022 . S
N1064 C1061 1.351 . S
N1064 N1065 1.365 . S
N1065 C1062 1.341 . S
N1065 N1064 1.365 . S
N1065 H1085 0.862 . S
C1066 C1061 1.501 . S
C1066 H1067 0.961 . S
C1066 H1068 0.961 . S
C1066 H1069 0.960 . S
H1067 C1066 0.961 . S
H1068 C1066 0.961 . S
H1069 C1066 0.960 . S
C1070 N1071 1.342 . S
C1070 C1074 1.401 . S
C1070 C1075 1.499 . S
N1071 Co1054 1.989 . S
N1071 C1070 1.342 . S
N1071 N1072 1.388 . S
N1072 Co1055 1.993 . S
N1072 N1071 1.388 . S
N1072 C1073 1.346 . S
C1073 N1072 1.346 . S
C1073 C1074 1.396 . S
C1073 C1083 1.510 . S
C1074 C1070 1.401 . S
C1074 C1073 1.396 . S
C1075 C1070 1.499 . S
C1075 H1076 0.959 . S
C1075 H1077 0.960 . S
C1075 H1078 0.961 . S
H1076 C1075 0.959 . S
H1077 C1075 0.960 . S
H1078 C1075 0.961 . S
O1079 Co1054 1.967 . S
O1079 C1087 1.258 . S
O1080 Co1055 1.941 . S
O1080 C1087 1.266 . S
H1081 C1083 0.959 . S
H1082 C1083 0.961 . S
C1083 C1073 1.510 . S
C1083 H1081 0.959 . S
C1083 H1082 0.961 . S
C1083 H1084 0.960 . S
H1084 C1083 0.960 . S
H1085 N1065 0.862 . S
O1086 Co1054 1.920 . S
O1086 C1059 1.289 . S
C1087 O1079 1.258 . S
C1087 O1080 1.266 . S
H1088 C1094 0.933 1_455 S
H1089 C1098 0.933 1_655 S
H1090 C1103 0.929 . S
H1091 C1101 0.929 . S
H1092 C1096 0.929 . S
H1093 C1102 0.929 . S
C1094 H1088 0.933 1_655 S
C1094 C1095 1.362 . S
C1094 C1102 1.380 1_655 S
C1095 C1094 1.362 . S
C1095 C1103 1.433 . S
C1096 H1092 0.929 . S
C1096 C1098 1.380 1_655 S
C1096 C1100 1.350 1_655 S
C1097 C1100 1.463 1_655 S
C1097 C1102 1.350 1_655 S
C1097 N1105 1.427 . S
C1098 H1089 0.933 1_455 S
C1098 C1096 1.380 1_455 S
C1098 C1099 1.362 . S
C1099 C1098 1.362 . S
C1099 C1101 1.433 . S
C1100 C1096 1.350 1_455 S
C1100 C1097 1.463 1_455 S
C1100 N1104 1.427 . S
C1101 H1091 0.929 . S
C1101 C1099 1.433 . S
C1101 N1104 1.384 . S
C1102 H1093 0.929 . S
C1102 C1094 1.380 1_455 S
C1102 C1097 1.350 1_455 S
C1103 H1090 0.929 . S
C1103 C1095 1.433 . S
C1103 N1105 1.384 . S
N1104 C1100 1.427 . S
N1104 C1101 1.384 . S
N1105 C1097 1.427 . S
N1105 C1103 1.384 . S
H1106 C1112 0.930 . S
H1107 C1116 0.930 . S
H1108 C1121 0.929 . S
H1109 C1119 0.929 . S
H1110 C1114 0.929 . S
H1111 C1120 0.929 . S
C1112 H1106 0.930 . S
C1112 C1113 1.367 1_545 S
C1112 C1120 1.378 . S
C1113 C1112 1.367 1_565 S
C1113 C1121 1.433 . S
C1114 H1110 0.929 . S
C1114 C1116 1.378 . S
C1114 C1118 1.350 1_565 S
C1115 C1118 1.463 1_565 S
C1115 C1120 1.350 1_565 S
C1115 N1123 1.427 . S
C1116 H1107 0.930 . S
C1116 C1114 1.378 . S
C1116 C1117 1.367 1_565 S
C1117 C1116 1.367 1_545 S
C1117 C1119 1.433 . S
C1118 C1114 1.350 1_545 S
C1118 C1115 1.463 1_545 S
C1118 N1122 1.427 . S
C1119 H1109 0.929 . S
C1119 C1117 1.433 . S
C1119 N1122 1.384 . S
C1120 H1111 0.929 . S
C1120 C1112 1.378 . S
C1120 C1115 1.350 1_545 S
C1121 H1108 0.929 . S
C1121 C1113 1.433 . S
C1121 N1123 1.384 . S
N1122 C1118 1.427 . S
N1122 C1119 1.384 . S
N1123 C1115 1.427 . S
N1123 C1121 1.384 . S
H1124 C1130 0.930 1_545 S
H1125 C1134 0.930 1_565 S
H1126 C1139 0.929 . S
H1127 C1137 0.929 . S
H1128 C1132 0.929 . S
H1129 C1138 0.929 . S
C1130 H1124 0.930 1_565 S
C1130 C1131 1.367 . S
C1130 C1138 1.378 1_565 S
C1131 C1130 1.367 . S
C1131 C1139 1.433 1_655 S
C1132 H1128 0.929 . S
C1132 C1134 1.378 1_565 S
C1132 C1136 1.350 1_565 S
C1133 C1136 1.463 1_664 S
C1133 C1138 1.350 1_565 S
C1133 N1141 1.427 1_655 S
C1134 H1125 0.930 1_545 S
C1134 C1132 1.378 1_545 S
C1134 C1135 1.367 . S
C1135 C1134 1.367 . S
C1135 C1137 1.433 1_455 S
C1136 C1132 1.350 1_545 S
C1136 C1133 1.463 1_446 S
C1136 N1140 1.427 1_455 S
C1137 H1127 0.929 . S
C1137 C1135 1.433 1_655 S
C1137 N1140 1.384 . S
C1138 H1129 0.929 . S
C1138 C1130 1.378 1_545 S
C1138 C1133 1.350 1_545 S
C1139 H1126 0.929 . S
C1139 C1131 1.433 1_455 S
C1139 N1141 1.384 . S
N1140 C1136 1.427 1_655 S
N1140 C1137 1.384 . S
N1141 C1133 1.427 1_455 S
N1141 C1139 1.384 . S
H1142 C1148 0.930 . S
H1143 C1152 0.930 . S
H1144 C1157 0.929 . S
H1145 C1155 0.929 . S
H1146 C1150 0.929 . S
H1147 C1156 0.929 . S
C1148 H1142 0.930 . S
C1148 C1149 1.367 . S
C1148 C1156 1.378 . S
C1149 C1148 1.367 . S
C1149 C1157 1.433 . S
C1150 H1146 0.929 . S
C1150 C1152 1.378 . S
C1150 C1154 1.350 . S
C1151 C1154 1.463 1_554 S
C1151 C1156 1.350 . S
C1151 N1159 1.427 . S
C1152 H1143 0.930 . S
C1152 C1150 1.378 . S
C1152 C1153 1.367 . S
C1153 C1152 1.367 . S
C1153 C1155 1.433 . S
C1154 C1150 1.350 . S
C1154 C1151 1.463 1_556 S
C1154 N1158 1.427 . S
C1155 H1145 0.929 . S
C1155 C1153 1.433 . S
C1155 N1158 1.384 . S
C1156 H1147 0.929 . S
C1156 C1148 1.378 . S
C1156 C1151 1.350 . S
C1157 H1144 0.929 . S
C1157 C1149 1.433 . S
C1157 N1159 1.384 . S
N1158 C1154 1.427 . S
N1158 C1155 1.384 . S
N1159 C1151 1.427 . S
N1159 C1157 1.384 . S
H1160 C1166 0.930 . S
H1161 C1170 0.930 . S
H1162 C1175 0.929 . S
H1163 C1173 0.929 . S
H1164 C1168 0.929 . S
H1165 C1174 0.929 . S
C1166 H1160 0.930 . S
C1166 C1167 1.367 1_655 S
C1166 C1174 1.378 . S
C1167 C1166 1.367 1_455 S
C1167 C1175 1.433 . S
C1168 H1164 0.929 . S
C1168 C1170 1.378 . S
C1168 C1172 1.350 1_455 S
C1169 C1172 1.463 1_455 S
C1169 C1174 1.350 1_455 S
C1169 N1177 1.427 . S
C1170 H1161 0.930 . S
C1170 C1168 1.378 . S
C1170 C1171 1.367 1_455 S
C1171 C1170 1.367 1_655 S
C1171 C1173 1.433 . S
C1172 C1168 1.350 1_655 S
C1172 C1169 1.463 1_655 S
C1172 N1176 1.427 . S
C1173 H1163 0.929 . S
C1173 C1171 1.433 . S
C1173 N1176 1.384 . S
C1174 H1165 0.929 . S
C1174 C1166 1.378 . S
C1174 C1169 1.350 1_655 S
C1175 H1162 0.929 . S
C1175 C1167 1.433 . S
C1175 N1177 1.384 . S
N1176 C1172 1.427 . S
N1176 C1173 1.384 . S
N1177 C1169 1.427 . S
N1177 C1175 1.384 . S
H1178 C1184 0.928 1_565 S
H1179 C1188 0.928 1_545 S
H1180 C1193 0.929 . S
H1181 C1191 0.929 . S
H1182 C1186 0.929 . S
H1183 C1192 0.929 . S
C1184 H1178 0.928 1_545 S
C1184 C1185 1.371 . S
C1184 C1192 1.376 1_545 S
C1185 C1184 1.371 . S
C1185 C1193 1.433 . S
C1186 H1182 0.929 . S
C1186 C1188 1.376 1_545 S
C1186 C1190 1.350 1_545 S
C1187 C1190 1.463 1_545 S
C1187 C1192 1.350 1_545 S
C1187 N1195 1.427 . S
C1188 H1179 0.928 1_565 S
C1188 C1186 1.376 1_565 S
C1188 C1189 1.371 . S
C1189 C1188 1.371 . S
C1189 C1191 1.433 . S
C1190 C1186 1.350 1_565 S
C1190 C1187 1.463 1_565 S
C1190 N1194 1.427 . S
C1191 H1181 0.929 . S
C1191 C1189 1.433 . S
C1191 N1194 1.384 . S
C1192 H1183 0.929 . S
C1192 C1184 1.376 1_565 S
C1192 C1187 1.350 1_565 S
C1193 H1180 0.929 . S
C1193 C1185 1.433 . S
C1193 N1195 1.384 . S
N1194 C1190 1.427 . S
N1194 C1191 1.384 . S
N1195 C1187 1.427 . S
N1195 C1193 1.384 . S
H1196 C1202 0.930 . S
H1197 C1206 0.930 . S
H1198 C1211 0.929 . S
H1199 C1209 0.929 . S
H1200 C1204 0.924 1_554 S
H1201 C1210 0.924 1_556 S
C1202 H1196 0.930 . S
C1202 C1203 1.367 . S
C1202 C1210 1.378 . S
C1203 C1202 1.367 . S
C1203 C1211 1.433 . S
C1204 H1200 0.924 1_556 S
C1204 C1206 1.378 . S
C1204 C1208 1.350 . S
C1205 C1208 1.463 1_554 S
C1205 C1210 1.350 . S
C1205 N1213 1.427 . S
C1206 H1197 0.930 . S
C1206 C1204 1.378 . S
C1206 C1207 1.367 . S
C1207 C1206 1.367 . S
C1207 C1209 1.433 . S
C1208 C1204 1.350 . S
C1208 C1205 1.463 1_556 S
C1208 N1212 1.427 . S
C1209 H1199 0.929 . S
C1209 C1207 1.433 . S
C1209 N1212 1.384 . S
C1210 H1201 0.924 1_554 S
C1210 C1202 1.378 . S
C1210 C1205 1.350 . S
C1211 H1198 0.929 . S
C1211 C1203 1.433 . S
C1211 N1213 1.384 . S
N1212 C1208 1.427 . S
N1212 C1209 1.384 . S
N1213 C1205 1.427 . S
N1213 C1211 1.384 . S
H1214 C1220 0.930 . S
H1215 C1224 0.930 . S
H1216 C1229 0.929 . S
H1217 C1227 0.929 . S
H1218 C1222 0.929 . S
H1219 C1228 0.929 . S
C1220 H1214 0.930 . S
C1220 C1221 1.367 . S
C1220 C1228 1.378 . S
C1221 C1220 1.367 . S
C1221 C1229 1.433 . S
C1222 H1218 0.929 . S
C1222 C1224 1.378 . S
C1222 C1226 1.350 . S
C1223 C1226 1.463 . S
C1223 C1228 1.350 . S
C1223 N1231 1.427 . S
C1224 H1215 0.930 . S
C1224 C1222 1.378 . S
C1224 C1225 1.367 . S
C1225 C1224 1.367 . S
C1225 C1227 1.433 . S
C1226 C1222 1.350 . S
C1226 C1223 1.463 . S
C1226 N1230 1.427 . S
C1227 H1217 0.929 . S
C1227 C1225 1.433 . S
C1227 N1230 1.384 . S
C1228 H1219 0.929 . S
C1228 C1220 1.378 . S
C1228 C1223 1.350 . S
C1229 H1216 0.929 . S
C1229 C1221 1.433 . S
C1229 N1231 1.384 . S
N1230 C1226 1.427 . S
N1230 C1227 1.384 . S
N1231 C1223 1.427 . S
N1231 C1229 1.384 . S
H1232 C1238 0.930 . S
H1233 C1242 0.930 . S
H1234 C1247 0.929 . S
H1235 C1245 0.929 . S
H1236 C1240 0.929 . S
H1237 C1246 0.929 . S
C1238 H1232 0.930 . S
C1238 C1239 1.367 1_455 S
C1238 C1246 1.378 . S
C1239 C1238 1.367 1_655 S
C1239 C1247 1.433 . S
C1240 H1236 0.929 . S
C1240 C1242 1.378 . S
C1240 C1244 1.350 1_655 S
C1241 C1244 1.463 1_655 S
C1241 C1246 1.350 1_655 S
C1241 N1249 1.427 . S
C1242 H1233 0.930 . S
C1242 C1240 1.378 . S
C1242 C1243 1.367 1_655 S
C1243 C1242 1.367 1_455 S
C1243 C1245 1.433 . S
C1244 C1240 1.350 1_455 S
C1244 C1241 1.463 1_455 S
C1244 N1248 1.427 . S
C1245 H1235 0.929 . S
C1245 C1243 1.433 . S
C1245 N1248 1.384 . S
C1246 H1237 0.929 . S
C1246 C1238 1.378 . S
C1246 C1241 1.350 1_455 S
C1247 H1234 0.929 . S
C1247 C1239 1.433 . S
C1247 N1249 1.384 . S
N1248 C1244 1.427 . S
N1248 C1245 1.384 . S
N1249 C1241 1.427 . S
N1249 C1247 1.384 . S
H1250 C1256 0.930 . S
H1251 C1260 0.930 . S
H1252 C1265 0.929 . S
H1253 C1263 0.929 . S
H1254 C1258 0.929 . S
H1255 C1264 0.929 . S
C1256 H1250 0.930 . S
C1256 C1257 1.367 . S
C1256 C1264 1.378 . S
C1257 C1256 1.367 . S
C1257 C1265 1.433 . S
C1258 H1254 0.929 . S
C1258 C1260 1.378 . S
C1258 C1262 1.350 . S
C1259 C1262 1.463 . S
C1259 C1264 1.350 . S
C1259 N1267 1.427 . S
C1260 H1251 0.930 . S
C1260 C1258 1.378 . S
C1260 C1261 1.367 . S
C1261 C1260 1.367 . S
C1261 C1263 1.433 . S
C1262 C1258 1.350 . S
C1262 C1259 1.463 . S
C1262 N1266 1.427 . S
C1263 H1253 0.929 . S
C1263 C1261 1.433 . S
C1263 N1266 1.384 . S
C1264 H1255 0.929 . S
C1264 C1256 1.378 . S
C1264 C1259 1.350 . S
C1265 H1252 0.929 . S
C1265 C1257 1.433 . S
C1265 N1267 1.384 . S
N1266 C1262 1.427 . S
N1266 C1263 1.384 . S
N1267 C1259 1.427 . S
N1267 C1265 1.384 . S
H1268 C1274 0.930 . S
H1269 C1278 0.930 . S
H1270 C1283 0.929 . S
H1271 C1281 0.929 . S
H1272 C1276 0.929 . S
H1273 C1282 0.929 . S
C1274 H1268 0.930 . S
C1274 C1275 1.367 . S
C1274 C1282 1.378 . S
C1275 C1274 1.367 . S
C1275 C1283 1.433 . S
C1276 H1272 0.929 . S
C1276 C1278 1.378 . S
C1276 C1280 1.350 . S
C1277 C1280 1.463 . S
C1277 C1282 1.350 . S
C1277 N1285 1.427 . S
C1278 H1269 0.930 . S
C1278 C1276 1.378 . S
C1278 C1279 1.367 . S
C1279 C1278 1.367 . S
C1279 C1281 1.433 . S
C1280 C1276 1.350 . S
C1280 C1277 1.463 . S
C1280 N1284 1.427 . S
C1281 H1271 0.929 . S
C1281 C1279 1.433 . S
C1281 N1284 1.384 . S
C1282 H1273 0.929 . S
C1282 C1274 1.378 . S
C1282 C1277 1.350 . S
C1283 H1270 0.929 . S
C1283 C1275 1.433 . S
C1283 N1285 1.384 . S
N1284 C1280 1.427 . S
N1284 C1281 1.384 . S
N1285 C1277 1.427 . S
N1285 C1283 1.384 . S
H1286 C1292 0.930 . S
H1287 C1296 0.930 . S
H1288 C1301 0.929 . S
H1289 C1299 0.929 . S
H1290 C1294 0.929 . S
H1291 C1300 0.929 . S
C1292 H1286 0.930 . S
C1292 C1293 1.367 . S
C1292 C1300 1.378 . S
C1293 C1292 1.367 . S
C1293 C1301 1.433 . S
C1294 H1290 0.929 . S
C1294 C1296 1.378 . S
C1294 C1298 1.350 . S
C1295 C1298 1.463 . S
C1295 C1300 1.350 . S
C1295 N1303 1.427 . S
C1296 H1287 0.930 . S
C1296 C1294 1.378 . S
C1296 C1297 1.367 . S
C1297 C1296 1.367 . S
C1297 C1299 1.433 . S
C1298 C1294 1.350 . S
C1298 C1295 1.463 . S
C1298 N1302 1.427 . S
C1299 H1289 0.929 . S
C1299 C1297 1.433 . S
C1299 N1302 1.384 . S
C1300 H1291 0.929 . S
C1300 C1292 1.378 . S
C1300 C1295 1.350 . S
C1301 H1288 0.929 . S
C1301 C1293 1.433 . S
C1301 N1303 1.384 . S
N1302 C1298 1.427 . S
N1302 C1299 1.384 . S
N1303 C1295 1.427 . S
N1303 C1301 1.384 . S
H1304 C1310 0.930 . S
H1305 C1314 0.930 . S
H1306 C1319 0.929 . S
H1307 C1317 0.929 . S
H1308 C1312 0.929 . S
H1309 C1318 0.929 . S
C1310 H1304 0.930 . S
C1310 C1311 1.367 . S
C1310 C1318 1.378 . S
C1311 C1310 1.367 . S
C1311 C1319 1.433 . S
C1312 H1308 0.929 . S
C1312 C1314 1.378 . S
C1312 C1316 1.350 . S
C1313 C1316 1.463 . S
C1313 C1318 1.350 . S
C1313 N1321 1.427 . S
C1314 H1305 0.930 . S
C1314 C1312 1.378 . S
C1314 C1315 1.367 . S
C1315 C1314 1.367 . S
C1315 C1317 1.433 . S
C1316 C1312 1.350 . S
C1316 C1313 1.463 . S
C1316 N1320 1.427 . S
C1317 H1307 0.929 . S
C1317 C1315 1.433 . S
C1317 N1320 1.384 . S
C1318 H1309 0.929 . S
C1318 C1310 1.378 . S
C1318 C1313 1.350 . S
C1319 H1306 0.929 . S
C1319 C1311 1.433 . S
C1319 N1321 1.384 . S
N1320 C1316 1.427 . S
N1320 C1317 1.384 . S
N1321 C1313 1.427 . S
N1321 C1319 1.384 . S
H1322 C1328 0.930 . S
H1323 C1332 0.930 . S
H1324 C1337 0.929 . S
H1325 C1335 0.929 . S
H1326 C1330 0.929 . S
H1327 C1336 0.929 . S
C1328 H1322 0.930 . S
C1328 C1329 1.367 . S
C1328 C1336 1.378 . S
C1329 C1328 1.367 . S
C1329 C1337 1.433 1_565 S
C1330 H1326 0.929 . S
C1330 C1332 1.378 . S
C1330 C1334 1.350 . S
C1331 C1334 1.463 1_565 S
C1331 C1336 1.350 . S
C1331 N1339 1.427 1_565 S
C1332 H1323 0.930 . S
C1332 C1330 1.378 . S
C1332 C1333 1.367 . S
C1333 C1332 1.367 . S
C1333 C1335 1.433 1_545 S
C1334 C1330 1.350 . S
C1334 C1331 1.463 1_545 S
C1334 N1338 1.427 1_545 S
C1335 H1325 0.929 . S
C1335 C1333 1.433 1_565 S
C1335 N1338 1.384 . S
C1336 H1327 0.929 . S
C1336 C1328 1.378 . S
C1336 C1331 1.350 . S
C1337 H1324 0.929 . S
C1337 C1329 1.433 1_545 S
C1337 N1339 1.384 . S
N1338 C1334 1.427 1_565 S
N1338 C1335 1.384 . S
N1339 C1331 1.427 1_545 S
N1339 C1337 1.384 . S
H1340 C1346 0.930 . S
H1341 C1350 0.930 . S
H1342 C1355 0.929 . S
H1343 C1353 0.929 . S
H1344 C1348 0.929 . S
H1345 C1354 0.929 . S
C1346 H1340 0.930 . S
C1346 C1347 1.367 . S
C1346 C1354 1.378 . S
C1347 C1346 1.367 . S
C1347 C1355 1.433 . S
C1348 H1344 0.929 . S
C1348 C1350 1.378 . S
C1348 C1352 1.350 . S
C1349 C1352 1.463 . S
C1349 C1354 1.350 . S
C1349 N1357 1.427 . S
C1350 H1341 0.930 . S
C1350 C1348 1.378 . S
C1350 C1351 1.367 . S
C1351 C1350 1.367 . S
C1351 C1353 1.433 . S
C1352 C1348 1.350 . S
C1352 C1349 1.463 . S
C1352 N1356 1.427 . S
C1353 H1343 0.929 . S
C1353 C1351 1.433 . S
C1353 N1356 1.384 . S
C1354 H1345 0.929 . S
C1354 C1346 1.378 . S
C1354 C1349 1.350 . S
C1355 H1342 0.929 . S
C1355 C1347 1.433 . S
C1355 N1357 1.384 . S
N1356 C1352 1.427 . S
N1356 C1353 1.384 . S
N1357 C1349 1.427 . S
N1357 C1355 1.384 . S
H1358 C1364 0.930 . S
H1359 C1368 0.930 . S
H1360 C1373 0.929 . S
H1361 C1371 0.929 . S
H1362 C1366 0.929 . S
H1363 C1372 0.929 . S
C1364 H1358 0.930 . S
C1364 C1365 1.367 . S
C1364 C1372 1.378 . S
C1365 C1364 1.367 . S
C1365 C1373 1.433 . S
C1366 H1362 0.929 . S
C1366 C1368 1.378 . S
C1366 C1370 1.350 . S
C1367 C1370 1.463 1_554 S
C1367 C1372 1.350 . S
C1367 N1375 1.427 . S
C1368 H1359 0.930 . S
C1368 C1366 1.378 . S
C1368 C1369 1.367 . S
C1369 C1368 1.367 . S
C1369 C1371 1.433 . S
C1370 C1366 1.350 . S
C1370 C1367 1.463 1_556 S
C1370 N1374 1.427 . S
C1371 H1361 0.929 . S
C1371 C1369 1.433 . S
C1371 N1374 1.384 . S
C1372 H1363 0.929 . S
C1372 C1364 1.378 . S
C1372 C1367 1.350 . S
C1373 H1360 0.929 . S
C1373 C1365 1.433 . S
C1373 N1375 1.384 . S
N1374 C1370 1.427 . S
N1374 C1371 1.384 . S
N1375 C1367 1.427 . S
N1375 C1373 1.384 . S
H1376 C1382 0.930 . S
H1377 C1386 0.930 . S
H1378 C1391 0.929 . S
H1379 C1389 0.929 . S
H1380 C1384 0.929 . S
H1381 C1390 0.929 . S
C1382 H1376 0.930 . S
C1382 C1383 1.367 . S
C1382 C1390 1.378 . S
C1383 C1382 1.367 . S
C1383 C1391 1.433 . S
C1384 H1380 0.929 . S
C1384 C1386 1.378 . S
C1384 C1388 1.350 . S
C1385 C1388 1.463 . S
C1385 C1390 1.350 . S
C1385 N1393 1.427 . S
C1386 H1377 0.930 . S
C1386 C1384 1.378 . S
C1386 C1387 1.367 . S
C1387 C1386 1.367 . S
C1387 C1389 1.433 . S
C1388 C1384 1.350 . S
C1388 C1385 1.463 . S
C1388 N1392 1.427 . S
C1389 H1379 0.929 . S
C1389 C1387 1.433 . S
C1389 N1392 1.384 . S
C1390 H1381 0.929 . S
C1390 C1382 1.378 . S
C1390 C1385 1.350 . S
C1391 H1378 0.929 . S
C1391 C1383 1.433 . S
C1391 N1393 1.384 . S
N1392 C1388 1.427 . S
N1392 C1389 1.384 . S
N1393 C1385 1.427 . S
N1393 C1391 1.384 . S
H1394 C1400 0.930 . S
H1395 C1404 0.930 . S
H1396 C1409 0.929 . S
H1397 C1407 0.929 . S
H1398 C1402 0.929 . S
H1399 C1408 0.929 . S
C1400 H1394 0.930 . S
C1400 C1401 1.367 . S
C1400 C1408 1.378 . S
C1401 C1400 1.367 . S
C1401 C1409 1.433 . S
C1402 H1398 0.929 . S
C1402 C1404 1.378 . S
C1402 C1406 1.350 . S
C1403 C1406 1.463 . S
C1403 C1408 1.350 . S
C1403 N1411 1.427 . S
C1404 H1395 0.930 . S
C1404 C1402 1.378 . S
C1404 C1405 1.367 . S
C1405 C1404 1.367 . S
C1405 C1407 1.433 . S
C1406 C1402 1.350 . S
C1406 C1403 1.463 . S
C1406 N1410 1.427 . S
C1407 H1397 0.929 . S
C1407 C1405 1.433 . S
C1407 N1410 1.384 . S
C1408 H1399 0.929 . S
C1408 C1400 1.378 . S
C1408 C1403 1.350 . S
C1409 H1396 0.929 . S
C1409 C1401 1.433 . S
C1409 N1411 1.384 . S
N1410 C1406 1.427 . S
N1410 C1407 1.384 . S
N1411 C1403 1.427 . S
N1411 C1409 1.384 . S
H1412 C1418 0.930 . S
H1413 C1422 0.930 . S
H1414 C1427 0.929 . S
H1415 C1425 0.929 . S
H1416 C1420 0.929 . S
H1417 C1426 0.929 . S
C1418 H1412 0.930 . S
C1418 C1419 1.367 . S
C1418 C1426 1.378 . S
C1419 C1418 1.367 . S
C1419 C1427 1.433 . S
C1420 H1416 0.929 . S
C1420 C1422 1.378 . S
C1420 C1424 1.350 . S
C1421 C1424 1.463 . S
C1421 C1426 1.350 . S
C1421 N1429 1.427 . S
C1422 H1413 0.930 . S
C1422 C1420 1.378 . S
C1422 C1423 1.367 . S
C1423 C1422 1.367 . S
C1423 C1425 1.433 . S
C1424 C1420 1.350 . S
C1424 C1421 1.463 . S
C1424 N1428 1.427 . S
C1425 H1415 0.929 . S
C1425 C1423 1.433 . S
C1425 N1428 1.384 . S
C1426 H1417 0.929 . S
C1426 C1418 1.378 . S
C1426 C1421 1.350 . S
C1427 H1414 0.929 . S
C1427 C1419 1.433 . S
C1427 N1429 1.384 . S
N1428 C1424 1.427 . S
N1428 C1425 1.384 . S
N1429 C1421 1.427 . S
N1429 C1427 1.384 . S
H1430 C1436 0.930 . S
H1431 C1440 0.930 . S
H1432 C1445 0.929 . S
H1433 C1443 0.929 . S
H1434 C1438 0.929 . S
H1435 C1444 0.929 . S
C1436 H1430 0.930 . S
C1436 C1437 1.367 . S
C1436 C1444 1.378 . S
C1437 C1436 1.367 . S
C1437 C1445 1.433 . S
C1438 H1434 0.929 . S
C1438 C1440 1.378 . S
C1438 C1442 1.350 . S
C1439 C1442 1.463 . S
C1439 C1444 1.350 . S
C1439 N1447 1.427 . S
C1440 H1431 0.930 . S
C1440 C1438 1.378 . S
C1440 C1441 1.367 . S
C1441 C1440 1.367 . S
C1441 C1443 1.433 . S
C1442 C1438 1.350 . S
C1442 C1439 1.463 . S
C1442 N1446 1.427 . S
C1443 H1433 0.929 . S
C1443 C1441 1.433 . S
C1443 N1446 1.384 . S
C1444 H1435 0.929 . S
C1444 C1436 1.378 . S
C1444 C1439 1.350 . S
C1445 H1432 0.929 . S
C1445 C1437 1.433 . S
C1445 N1447 1.384 . S
N1446 C1442 1.427 . S
N1446 C1443 1.384 . S
N1447 C1439 1.427 . S
N1447 C1445 1.384 . S
H1448 C1454 0.930 . S
H1449 C1458 0.930 . S
H1450 C1463 0.929 . S
H1451 C1461 0.929 . S
H1452 C1456 0.929 . S
H1453 C1462 0.929 . S
C1454 H1448 0.930 . S
C1454 C1455 1.367 . S
C1454 C1462 1.378 . S
C1455 C1454 1.367 . S
C1455 C1463 1.433 . S
C1456 H1452 0.929 . S
C1456 C1458 1.378 . S
C1456 C1460 1.350 . S
C1457 C1460 1.463 . S
C1457 C1462 1.350 . S
C1457 N1465 1.427 . S
C1458 H1449 0.930 . S
C1458 C1456 1.378 . S
C1458 C1459 1.367 . S
C1459 C1458 1.367 . S
C1459 C1461 1.433 . S
C1460 C1456 1.350 . S
C1460 C1457 1.463 . S
C1460 N1464 1.427 . S
C1461 H1451 0.929 . S
C1461 C1459 1.433 . S
C1461 N1464 1.384 . S
C1462 H1453 0.929 . S
C1462 C1454 1.378 . S
C1462 C1457 1.350 . S
C1463 H1450 0.929 . S
C1463 C1455 1.433 . S
C1463 N1465 1.384 . S
N1464 C1460 1.427 . S
N1464 C1461 1.384 . S
N1465 C1457 1.427 . S
N1465 C1463 1.384 . S
H1466 C1472 0.930 . S
H1467 C1476 0.930 . S
H1468 C1481 0.929 . S
H1469 C1479 0.929 . S
H1470 C1474 0.929 . S
H1471 C1480 0.929 . S
C1472 H1466 0.930 . S
C1472 C1473 1.367 . S
C1472 C1480 1.378 . S
C1473 C1472 1.367 . S
C1473 C1481 1.433 . S
C1474 H1470 0.929 . S
C1474 C1476 1.378 . S
C1474 C1478 1.350 . S
C1475 C1478 1.463 . S
C1475 C1480 1.350 . S
C1475 N1483 1.427 . S
C1476 H1467 0.930 . S
C1476 C1474 1.378 . S
C1476 C1477 1.367 . S
C1477 C1476 1.367 . S
C1477 C1479 1.433 . S
C1478 C1474 1.350 . S
C1478 C1475 1.463 . S
C1478 N1482 1.427 . S
C1479 H1469 0.929 . S
C1479 C1477 1.433 . S
C1479 N1482 1.384 . S
C1480 H1471 0.929 . S
C1480 C1472 1.378 . S
C1480 C1475 1.350 . S
C1481 H1468 0.929 . S
C1481 C1473 1.433 . S
C1481 N1483 1.384 . S
N1482 C1478 1.427 . S
N1482 C1479 1.384 . S
N1483 C1475 1.427 . S
N1483 C1481 1.384 . S
H1484 C1490 0.930 1_455 S
H1485 C1494 0.930 . S
H1486 C1499 0.929 . S
H1487 C1497 0.929 1_455 S
H1488 C1492 0.929 . S
H1489 C1498 0.929 1_455 S
C1490 H1484 0.930 1_655 S
C1490 C1491 1.367 . S
C1490 C1498 1.378 . S
C1491 C1490 1.367 . S
C1491 C1499 1.433 . S
C1492 H1488 0.929 . S
C1492 C1494 1.378 . S
C1492 C1496 1.350 . S
C1493 C1496 1.463 . S
C1493 C1498 1.350 . S
C1493 N1501 1.427 . S
C1494 H1485 0.930 . S
C1494 C1492 1.378 . S
C1494 C1495 1.367 . S
C1495 C1494 1.367 . S
C1495 C1497 1.433 . S
C1496 C1492 1.350 . S
C1496 C1493 1.463 . S
C1496 N1500 1.427 . S
C1497 H1487 0.929 1_655 S
C1497 C1495 1.433 . S
C1497 N1500 1.384 . S
C1498 H1489 0.929 1_655 S
C1498 C1490 1.378 . S
C1498 C1493 1.350 . S
C1499 H1486 0.929 . S
C1499 C1491 1.433 . S
C1499 N1501 1.384 . S
N1500 C1496 1.427 . S
N1500 C1497 1.384 . S
N1501 C1493 1.427 . S
N1501 C1499 1.384 . S
H1502 C1508 0.930 . S
H1503 C1512 0.930 . S
H1504 C1517 0.929 . S
H1505 C1515 0.929 . S
H1506 C1510 0.929 . S
H1507 C1516 0.929 . S
C1508 H1502 0.930 . S
C1508 C1509 1.367 . S
C1508 C1516 1.378 . S
C1509 C1508 1.367 . S
C1509 C1517 1.433 . S
C1510 H1506 0.929 . S
C1510 C1512 1.378 . S
C1510 C1514 1.350 . S
C1511 C1514 1.463 . S
C1511 C1516 1.350 . S
C1511 N1519 1.427 . S
C1512 H1503 0.930 . S
C1512 C1510 1.378 . S
C1512 C1513 1.367 . S
C1513 C1512 1.367 . S
C1513 C1515 1.433 . S
C1514 C1510 1.350 . S
C1514 C1511 1.463 . S
C1514 N1518 1.427 . S
C1515 H1505 0.929 . S
C1515 C1513 1.433 . S
C1515 N1518 1.384 . S
C1516 H1507 0.929 . S
C1516 C1508 1.378 . S
C1516 C1511 1.350 . S
C1517 H1504 0.929 . S
C1517 C1509 1.433 . S
C1517 N1519 1.384 . S
N1518 C1514 1.427 . S
N1518 C1515 1.384 . S
N1519 C1511 1.427 . S
N1519 C1517 1.384 . S
H1520 C1526 0.930 . S
H1521 C1530 0.930 . S
H1522 C1535 0.929 . S
H1523 C1533 0.929 . S
H1524 C1528 0.929 . S
H1525 C1534 0.929 . S
C1526 H1520 0.930 . S
C1526 C1527 1.367 . S
C1526 C1534 1.378 . S
C1527 C1526 1.367 . S
C1527 C1535 1.433 . S
C1528 H1524 0.929 . S
C1528 C1530 1.378 . S
C1528 C1532 1.350 . S
C1529 C1532 1.463 . S
C1529 C1534 1.350 . S
C1529 N1537 1.427 . S
C1530 H1521 0.930 . S
C1530 C1528 1.378 . S
C1530 C1531 1.367 . S
C1531 C1530 1.367 . S
C1531 C1533 1.433 . S
C1532 C1528 1.350 . S
C1532 C1529 1.463 . S
C1532 N1536 1.427 . S
C1533 H1523 0.929 . S
C1533 C1531 1.433 . S
C1533 N1536 1.384 . S
C1534 H1525 0.929 . S
C1534 C1526 1.378 . S
C1534 C1529 1.350 . S
C1535 H1522 0.929 . S
C1535 C1527 1.433 . S
C1535 N1537 1.384 . S
N1536 C1532 1.427 . S
N1536 C1533 1.384 . S
N1537 C1529 1.427 . S
N1537 C1535 1.384 . S
H1538 C1544 0.930 . S
H1539 C1548 0.930 . S
H1540 C1553 0.929 . S
H1541 C1551 0.929 . S
H1542 C1546 0.929 . S
H1543 C1552 0.929 . S
C1544 H1538 0.930 . S
C1544 C1545 1.367 . S
C1544 C1552 1.378 . S
C1545 C1544 1.367 . S
C1545 C1553 1.433 . S
C1546 H1542 0.929 . S
C1546 C1548 1.378 . S
C1546 C1550 1.350 . S
C1547 C1550 1.463 . S
C1547 C1552 1.350 . S
C1547 N1555 1.427 . S
C1548 H1539 0.930 . S
C1548 C1546 1.378 . S
C1548 C1549 1.367 . S
C1549 C1548 1.367 . S
C1549 C1551 1.433 . S
C1550 C1546 1.350 . S
C1550 C1547 1.463 . S
C1550 N1554 1.427 . S
C1551 H1541 0.929 . S
C1551 C1549 1.433 . S
C1551 N1554 1.384 . S
C1552 H1543 0.929 . S
C1552 C1544 1.378 . S
C1552 C1547 1.350 . S
C1553 H1540 0.929 . S
C1553 C1545 1.433 . S
C1553 N1555 1.384 . S
N1554 C1550 1.427 . S
N1554 C1551 1.384 . S
N1555 C1547 1.427 . S
N1555 C1553 1.384 . S
H1556 C1562 0.930 . S
H1557 C1566 0.930 . S
H1558 C1571 0.929 . S
H1559 C1569 0.929 . S
H1560 C1564 0.929 . S
H1561 C1570 0.929 . S
C1562 H1556 0.930 . S
C1562 C1563 1.367 . S
C1562 C1570 1.378 . S
C1563 C1562 1.367 . S
C1563 C1571 1.433 . S
C1564 H1560 0.929 . S
C1564 C1566 1.378 . S
C1564 C1568 1.350 . S
C1565 C1568 1.463 . S
C1565 C1570 1.350 . S
C1565 N1573 1.427 . S
C1566 H1557 0.930 . S
C1566 C1564 1.378 . S
C1566 C1567 1.367 . S
C1567 C1566 1.367 . S
C1567 C1569 1.433 . S
C1568 C1564 1.350 . S
C1568 C1565 1.463 . S
C1568 N1572 1.427 . S
C1569 H1559 0.929 . S
C1569 C1567 1.433 . S
C1569 N1572 1.384 . S
C1570 H1561 0.929 . S
C1570 C1562 1.378 . S
C1570 C1565 1.350 . S
C1571 H1558 0.929 . S
C1571 C1563 1.433 . S
C1571 N1573 1.384 . S
N1572 C1568 1.427 . S
N1572 C1569 1.384 . S
N1573 C1565 1.427 . S
N1573 C1571 1.384 . S
H1574 C1580 0.930 . S
H1575 C1584 0.930 . S
H1576 C1589 0.929 . S
H1577 C1587 0.929 . S
H1578 C1582 0.929 . S
H1579 C1588 0.929 . S
C1580 H1574 0.930 . S
C1580 C1581 1.367 . S
C1580 C1588 1.378 . S
C1581 C1580 1.367 . S
C1581 C1589 1.433 . S
C1582 H1578 0.929 . S
C1582 C1584 1.378 . S
C1582 C1586 1.350 . S
C1583 C1586 1.463 . S
C1583 C1588 1.350 . S
C1583 N1591 1.427 . S
C1584 H1575 0.930 . S
C1584 C1582 1.378 . S
C1584 C1585 1.367 . S
C1585 C1584 1.367 . S
C1585 C1587 1.433 . S
C1586 C1582 1.350 . S
C1586 C1583 1.463 . S
C1586 N1590 1.427 . S
C1587 H1577 0.929 . S
C1587 C1585 1.433 . S
C1587 N1590 1.384 . S
C1588 H1579 0.929 . S
C1588 C1580 1.378 . S
C1588 C1583 1.350 . S
C1589 H1576 0.929 . S
C1589 C1581 1.433 . S
C1589 N1591 1.384 . S
N1590 C1586 1.427 . S
N1590 C1587 1.384 . S
N1591 C1583 1.427 . S
N1591 C1589 1.384 . S
H1592 C1598 0.930 . S
H1593 C1602 0.930 . S
H1594 C1607 0.929 . S
H1595 C1605 0.929 . S
H1596 C1600 0.929 . S
H1597 C1606 0.929 . S
C1598 H1592 0.930 . S
C1598 C1599 1.367 . S
C1598 C1606 1.378 . S
C1599 C1598 1.367 . S
C1599 C1607 1.433 . S
C1600 H1596 0.929 . S
C1600 C1602 1.378 . S
C1600 C1604 1.350 . S
C1601 C1604 1.463 . S
C1601 C1606 1.350 . S
C1601 N1609 1.427 . S
C1602 H1593 0.930 . S
C1602 C1600 1.378 . S
C1602 C1603 1.367 . S
C1603 C1602 1.367 . S
C1603 C1605 1.433 . S
C1604 C1600 1.350 . S
C1604 C1601 1.463 . S
C1604 N1608 1.427 . S
C1605 H1595 0.929 . S
C1605 C1603 1.433 . S
C1605 N1608 1.384 . S
C1606 H1597 0.929 . S
C1606 C1598 1.378 . S
C1606 C1601 1.350 . S
C1607 H1594 0.929 . S
C1607 C1599 1.433 . S
C1607 N1609 1.384 . S
N1608 C1604 1.427 . S
N1608 C1605 1.384 . S
N1609 C1601 1.427 . S
N1609 C1607 1.384 . S
H1610 C1616 0.930 . S
H1611 C1620 0.930 . S
H1612 C1625 0.929 . S
H1613 C1623 0.929 . S
H1614 C1618 0.929 . S
H1615 C1624 0.929 . S
C1616 H1610 0.930 . S
C1616 C1617 1.367 . S
C1616 C1624 1.378 . S
C1617 C1616 1.367 . S
C1617 C1625 1.433 . S
C1618 H1614 0.929 . S
C1618 C1620 1.378 . S
C1618 C1622 1.350 . S
C1619 C1622 1.463 . S
C1619 C1624 1.350 . S
C1619 N1627 1.427 . S
C1620 H1611 0.930 . S
C1620 C1618 1.378 . S
C1620 C1621 1.367 . S
C1621 C1620 1.367 . S
C1621 C1623 1.433 . S
C1622 C1618 1.350 . S
C1622 C1619 1.463 . S
C1622 N1626 1.427 . S
C1623 H1613 0.929 . S
C1623 C1621 1.433 . S
C1623 N1626 1.384 . S
C1624 H1615 0.929 . S
C1624 C1616 1.378 . S
C1624 C1619 1.350 . S
C1625 H1612 0.929 . S
C1625 C1617 1.433 . S
C1625 N1627 1.384 . S
N1626 C1622 1.427 . S
N1626 C1623 1.384 . S
N1627 C1619 1.427 . S
N1627 C1625 1.384 . S
H1628 C1634 0.930 . S
H1629 C1638 0.930 . S
H1630 C1643 0.929 . S
H1631 C1641 0.929 . S
H1632 C1636 0.929 . S
H1633 C1642 0.929 . S
C1634 H1628 0.930 . S
C1634 C1635 1.367 . S
C1634 C1642 1.378 . S
C1635 C1634 1.367 . S
C1635 C1643 1.433 . S
C1636 H1632 0.929 . S
C1636 C1638 1.378 . S
C1636 C1640 1.350 . S
C1637 C1640 1.463 . S
C1637 C1642 1.350 . S
C1637 N1645 1.427 . S
C1638 H1629 0.930 . S
C1638 C1636 1.378 . S
C1638 C1639 1.367 . S
C1639 C1638 1.367 . S
C1639 C1641 1.433 . S
C1640 C1636 1.350 . S
C1640 C1637 1.463 . S
C1640 N1644 1.427 . S
C1641 H1631 0.929 . S
C1641 C1639 1.433 . S
C1641 N1644 1.384 . S
C1642 H1633 0.929 . S
C1642 C1634 1.378 . S
C1642 C1637 1.350 . S
C1643 H1630 0.929 . S
C1643 C1635 1.433 . S
C1643 N1645 1.384 . S
N1644 C1640 1.427 . S
N1644 C1641 1.384 . S
N1645 C1637 1.427 . S
N1645 C1643 1.384 . S
H1646 C1652 0.930 . S
H1647 C1656 0.930 . S
H1648 C1661 0.929 . S
H1649 C1659 0.929 . S
H1650 C1654 0.929 . S
H1651 C1660 0.929 . S
C1652 H1646 0.930 . S
C1652 C1653 1.367 . S
C1652 C1660 1.378 . S
C1653 C1652 1.367 . S
C1653 C1661 1.433 . S
C1654 H1650 0.929 . S
C1654 C1656 1.378 . S
C1654 C1658 1.350 . S
C1655 C1658 1.463 . S
C1655 C1660 1.350 . S
C1655 N1663 1.427 . S
C1656 H1647 0.930 . S
C1656 C1654 1.378 . S
C1656 C1657 1.367 . S
C1657 C1656 1.367 . S
C1657 C1659 1.433 . S
C1658 C1654 1.350 . S
C1658 C1655 1.463 . S
C1658 N1662 1.427 . S
C1659 H1649 0.929 . S
C1659 C1657 1.433 . S
C1659 N1662 1.384 . S
C1660 H1651 0.929 . S
C1660 C1652 1.378 . S
C1660 C1655 1.350 . S
C1661 H1648 0.929 . S
C1661 C1653 1.433 . S
C1661 N1663 1.384 . S
N1662 C1658 1.427 . S
N1662 C1659 1.384 . S
N1663 C1655 1.427 . S
N1663 C1661 1.384 . S
H1664 C1670 0.930 . S
H1665 C1674 0.930 . S
H1666 C1679 0.929 . S
H1667 C1677 0.929 . S
H1668 C1672 0.929 . S
H1669 C1678 0.929 . S
C1670 H1664 0.930 . S
C1670 C1671 1.367 . S
C1670 C1678 1.378 . S
C1671 C1670 1.367 . S
C1671 C1679 1.433 . S
C1672 H1668 0.929 . S
C1672 C1674 1.378 . S
C1672 C1676 1.350 . S
C1673 C1676 1.463 . S
C1673 C1678 1.350 . S
C1673 N1681 1.427 . S
C1674 H1665 0.930 . S
C1674 C1672 1.378 . S
C1674 C1675 1.367 . S
C1675 C1674 1.367 . S
C1675 C1677 1.433 . S
C1676 C1672 1.350 . S
C1676 C1673 1.463 . S
C1676 N1680 1.427 . S
C1677 H1667 0.929 . S
C1677 C1675 1.433 . S
C1677 N1680 1.384 . S
C1678 H1669 0.929 . S
C1678 C1670 1.378 . S
C1678 C1673 1.350 . S
C1679 H1666 0.929 . S
C1679 C1671 1.433 . S
C1679 N1681 1.384 . S
N1680 C1676 1.427 . S
N1680 C1677 1.384 . S
N1681 C1673 1.427 . S
N1681 C1679 1.384 . S
H1682 C1688 0.930 . S
H1683 C1692 0.930 . S
H1684 C1697 0.929 . S
H1685 C1695 0.929 . S
H1686 C1690 0.929 . S
H1687 C1696 0.929 . S
C1688 H1682 0.930 . S
C1688 C1689 1.367 . S
C1688 C1696 1.378 . S
C1689 C1688 1.367 . S
C1689 C1697 1.433 . S
C1690 H1686 0.929 . S
C1690 C1692 1.378 . S
C1690 C1694 1.350 . S
C1691 C1694 1.463 . S
C1691 C1696 1.350 . S
C1691 N1699 1.427 . S
C1692 H1683 0.930 . S
C1692 C1690 1.378 . S
C1692 C1693 1.367 . S
C1693 C1692 1.367 . S
C1693 C1695 1.433 . S
C1694 C1690 1.350 . S
C1694 C1691 1.463 . S
C1694 N1698 1.427 . S
C1695 H1685 0.929 . S
C1695 C1693 1.433 . S
C1695 N1698 1.384 . S
C1696 H1687 0.929 . S
C1696 C1688 1.378 . S
C1696 C1691 1.350 . S
C1697 H1684 0.929 . S
C1697 C1689 1.433 . S
C1697 N1699 1.384 . S
N1698 C1694 1.427 . S
N1698 C1695 1.384 . S
N1699 C1691 1.427 . S
N1699 C1697 1.384 . S
H1700 C1706 0.930 . S
H1701 C1710 0.930 . S
H1702 C1715 0.929 . S
H1703 C1713 0.929 . S
H1704 C1708 0.929 . S
H1705 C1714 0.929 . S
C1706 H1700 0.930 . S
C1706 C1707 1.367 . S
C1706 C1714 1.378 . S
C1707 C1706 1.367 . S
C1707 C1715 1.433 . S
C1708 H1704 0.929 . S
C1708 C1710 1.378 . S
C1708 C1712 1.350 . S
C1709 C1712 1.463 . S
C1709 C1714 1.350 . S
C1709 N1717 1.427 . S
C1710 H1701 0.930 . S
C1710 C1708 1.378 . S
C1710 C1711 1.367 . S
C1711 C1710 1.367 . S
C1711 C1713 1.433 . S
C1712 C1708 1.350 . S
C1712 C1709 1.463 . S
C1712 N1716 1.427 . S
C1713 H1703 0.929 . S
C1713 C1711 1.433 . S
C1713 N1716 1.384 . S
C1714 H1705 0.929 . S
C1714 C1706 1.378 . S
C1714 C1709 1.350 . S
C1715 H1702 0.929 . S
C1715 C1707 1.433 . S
C1715 N1717 1.384 . S
N1716 C1712 1.427 . S
N1716 C1713 1.384 . S
N1717 C1709 1.427 . S
N1717 C1715 1.384 . S
H1718 C1724 0.930 . S
H1719 C1728 0.930 . S
H1720 C1733 0.929 . S
H1721 C1731 0.929 . S
H1722 C1726 0.929 . S
H1723 C1732 0.929 . S
C1724 H1718 0.930 . S
C1724 C1725 1.367 . S
C1724 C1732 1.378 . S
C1725 C1724 1.367 . S
C1725 C1733 1.433 . S
C1726 H1722 0.929 . S
C1726 C1728 1.378 . S
C1726 C1730 1.350 . S
C1727 C1730 1.463 . S
C1727 C1732 1.350 . S
C1727 N1735 1.427 . S
C1728 H1719 0.930 . S
C1728 C1726 1.378 . S
C1728 C1729 1.367 . S
C1729 C1728 1.367 . S
C1729 C1731 1.433 . S
C1730 C1726 1.350 . S
C1730 C1727 1.463 . S
C1730 N1734 1.427 . S
C1731 H1721 0.929 . S
C1731 C1729 1.433 . S
C1731 N1734 1.384 . S
C1732 H1723 0.929 . S
C1732 C1724 1.378 . S
C1732 C1727 1.350 . S
C1733 H1720 0.929 . S
C1733 C1725 1.433 . S
C1733 N1735 1.384 . S
N1734 C1730 1.427 . S
N1734 C1731 1.384 . S
N1735 C1727 1.427 . S
N1735 C1733 1.384 . S
H1736 C1742 0.930 . S
H1737 C1746 0.930 . S
H1738 C1751 0.929 . S
H1739 C1749 0.929 . S
H1740 C1744 0.929 . S
H1741 C1750 0.929 . S
C1742 H1736 0.930 . S
C1742 C1743 1.367 . S
C1742 C1750 1.378 . S
C1743 C1742 1.367 . S
C1743 C1751 1.433 . S
C1744 H1740 0.929 . S
C1744 C1746 1.378 . S
C1744 C1748 1.350 . S
C1745 C1748 1.463 . S
C1745 C1750 1.350 . S
C1745 N1753 1.427 . S
C1746 H1737 0.930 . S
C1746 C1744 1.378 . S
C1746 C1747 1.367 . S
C1747 C1746 1.367 . S
C1747 C1749 1.433 . S
C1748 C1744 1.350 . S
C1748 C1745 1.463 . S
C1748 N1752 1.427 . S
C1749 H1739 0.929 . S
C1749 C1747 1.433 . S
C1749 N1752 1.384 . S
C1750 H1741 0.929 . S
C1750 C1742 1.378 . S
C1750 C1745 1.350 . S
C1751 H1738 0.929 . S
C1751 C1743 1.433 . S
C1751 N1753 1.384 . S
N1752 C1748 1.427 . S
N1752 C1749 1.384 . S
N1753 C1745 1.427 . S
N1753 C1751 1.384 . S
H1754 C1760 0.930 . S
H1755 C1764 0.930 . S
H1756 C1769 0.929 . S
H1757 C1767 0.929 . S
H1758 C1762 0.929 . S
H1759 C1768 0.929 . S
C1760 H1754 0.930 . S
C1760 C1761 1.367 . S
C1760 C1768 1.378 . S
C1761 C1760 1.367 . S
C1761 C1769 1.433 . S
C1762 H1758 0.929 . S
C1762 C1764 1.378 . S
C1762 C1766 1.350 . S
C1763 C1766 1.463 . S
C1763 C1768 1.350 . S
C1763 N1771 1.427 . S
C1764 H1755 0.930 . S
C1764 C1762 1.378 . S
C1764 C1765 1.367 . S
C1765 C1764 1.367 . S
C1765 C1767 1.433 . S
C1766 C1762 1.350 . S
C1766 C1763 1.463 . S
C1766 N1770 1.427 . S
C1767 H1757 0.929 . S
C1767 C1765 1.433 . S
C1767 N1770 1.384 . S
C1768 H1759 0.929 . S
C1768 C1760 1.378 . S
C1768 C1763 1.350 . S
C1769 H1756 0.929 . S
C1769 C1761 1.433 . S
C1769 N1771 1.384 . S
N1770 C1766 1.427 . S
N1770 C1767 1.384 . S
N1771 C1763 1.427 . S
N1771 C1769 1.384 . S
H1772 C1778 0.930 . S
H1773 C1782 0.930 . S
H1774 C1787 0.929 . S
H1775 C1785 0.929 . S
H1776 C1780 0.929 . S
H1777 C1786 0.929 . S
C1778 H1772 0.930 . S
C1778 C1779 1.367 . S
C1778 C1786 1.378 . S
C1779 C1778 1.367 . S
C1779 C1787 1.433 . S
C1780 H1776 0.929 . S
C1780 C1782 1.378 . S
C1780 C1784 1.350 . S
C1781 C1784 1.463 . S
C1781 C1786 1.350 . S
C1781 N1789 1.427 . S
C1782 H1773 0.930 . S
C1782 C1780 1.378 . S
C1782 C1783 1.367 . S
C1783 C1782 1.367 . S
C1783 C1785 1.433 . S
C1784 C1780 1.350 . S
C1784 C1781 1.463 . S
C1784 N1788 1.427 . S
C1785 H1775 0.929 . S
C1785 C1783 1.433 . S
C1785 N1788 1.384 . S
C1786 H1777 0.929 . S
C1786 C1778 1.378 . S
C1786 C1781 1.350 . S
C1787 H1774 0.929 . S
C1787 C1779 1.433 . S
C1787 N1789 1.384 . S
N1788 C1784 1.427 . S
N1788 C1785 1.384 . S
N1789 C1781 1.427 . S
N1789 C1787 1.384 . S
H1790 C1796 0.930 . S
H1791 C1800 0.930 . S
H1792 C1805 0.929 . S
H1793 C1803 0.929 . S
H1794 C1798 0.929 . S
H1795 C1804 0.929 . S
C1796 H1790 0.930 . S
C1796 C1797 1.367 . S
C1796 C1804 1.378 . S
C1797 C1796 1.367 . S
C1797 C1805 1.433 . S
C1798 H1794 0.929 . S
C1798 C1800 1.378 . S
C1798 C1802 1.350 . S
C1799 C1802 1.463 . S
C1799 C1804 1.350 . S
C1799 N1807 1.427 . S
C1800 H1791 0.930 . S
C1800 C1798 1.378 . S
C1800 C1801 1.367 . S
C1801 C1800 1.367 . S
C1801 C1803 1.433 . S
C1802 C1798 1.350 . S
C1802 C1799 1.463 . S
C1802 N1806 1.427 . S
C1803 H1793 0.929 . S
C1803 C1801 1.433 . S
C1803 N1806 1.384 . S
C1804 H1795 0.929 . S
C1804 C1796 1.378 . S
C1804 C1799 1.350 . S
C1805 H1792 0.929 . S
C1805 C1797 1.433 . S
C1805 N1807 1.384 . S
N1806 C1802 1.427 . S
N1806 C1803 1.384 . S
N1807 C1799 1.427 . S
N1807 C1805 1.384 . S
H1808 C1814 0.930 . S
H1809 C1818 0.930 . S
H1810 C1823 0.929 . S
H1811 C1821 0.929 . S
H1812 C1816 0.929 . S
H1813 C1822 0.929 . S
C1814 H1808 0.930 . S
C1814 C1815 1.367 . S
C1814 C1822 1.378 . S
C1815 C1814 1.367 . S
C1815 C1823 1.433 . S
C1816 H1812 0.929 . S
C1816 C1818 1.378 . S
C1816 C1820 1.350 . S
C1817 C1820 1.463 . S
C1817 C1822 1.350 . S
C1817 N1825 1.427 . S
C1818 H1809 0.930 . S
C1818 C1816 1.378 . S
C1818 C1819 1.367 . S
C1819 C1818 1.367 . S
C1819 C1821 1.433 . S
C1820 C1816 1.350 . S
C1820 C1817 1.463 . S
C1820 N1824 1.427 . S
C1821 H1811 0.929 . S
C1821 C1819 1.433 . S
C1821 N1824 1.384 . S
C1822 H1813 0.929 . S
C1822 C1814 1.378 . S
C1822 C1817 1.350 . S
C1823 H1810 0.929 . S
C1823 C1815 1.433 . S
C1823 N1825 1.384 . S
N1824 C1820 1.427 . S
N1824 C1821 1.384 . S
N1825 C1817 1.427 . S
N1825 C1823 1.384 . S
H1826 C1832 0.930 . S
H1827 C1836 0.930 . S
H1828 C1841 0.929 . S
H1829 C1839 0.929 . S
H1830 C1834 0.929 . S
H1831 C1840 0.929 . S
C1832 H1826 0.930 . S
C1832 C1833 1.367 . S
C1832 C1840 1.378 . S
C1833 C1832 1.367 . S
C1833 C1841 1.433 . S
C1834 H1830 0.929 . S
C1834 C1836 1.378 . S
C1834 C1838 1.350 . S
C1835 C1838 1.463 . S
C1835 C1840 1.350 . S
C1835 N1843 1.427 . S
C1836 H1827 0.930 . S
C1836 C1834 1.378 . S
C1836 C1837 1.367 . S
C1837 C1836 1.367 . S
C1837 C1839 1.433 . S
C1838 C1834 1.350 . S
C1838 C1835 1.463 . S
C1838 N1842 1.427 . S
C1839 H1829 0.929 . S
C1839 C1837 1.433 . S
C1839 N1842 1.384 . S
C1840 H1831 0.929 . S
C1840 C1832 1.378 . S
C1840 C1835 1.350 . S
C1841 H1828 0.929 . S
C1841 C1833 1.433 . S
C1841 N1843 1.384 . S
N1842 C1838 1.427 . S
N1842 C1839 1.384 . S
N1843 C1835 1.427 . S
N1843 C1841 1.384 . S
H1844 C1850 0.930 . S
H1845 C1854 0.930 . S
H1846 C1859 0.929 . S
H1847 C1857 0.929 . S
H1848 C1852 0.929 . S
H1849 C1858 0.929 . S
C1850 H1844 0.930 . S
C1850 C1851 1.367 . S
C1850 C1858 1.378 . S
C1851 C1850 1.367 . S
C1851 C1859 1.433 . S
C1852 H1848 0.929 . S
C1852 C1854 1.378 . S
C1852 C1856 1.350 . S
C1853 C1856 1.463 . S
C1853 C1858 1.350 . S
C1853 N1861 1.427 . S
C1854 H1845 0.930 . S
C1854 C1852 1.378 . S
C1854 C1855 1.367 . S
C1855 C1854 1.367 . S
C1855 C1857 1.433 . S
C1856 C1852 1.350 . S
C1856 C1853 1.463 . S
C1856 N1860 1.427 . S
C1857 H1847 0.929 . S
C1857 C1855 1.433 . S
C1857 N1860 1.384 . S
C1858 H1849 0.929 . S
C1858 C1850 1.378 . S
C1858 C1853 1.350 . S
C1859 H1846 0.929 . S
C1859 C1851 1.433 . S
C1859 N1861 1.384 . S
N1860 C1856 1.427 . S
N1860 C1857 1.384 . S
N1861 C1853 1.427 . S
N1861 C1859 1.384 . S
H1862 C1868 0.930 . S
H1863 C1872 0.930 . S
H1864 C1877 0.929 . S
H1865 C1875 0.929 . S
H1866 C1870 0.929 . S
H1867 C1876 0.929 . S
C1868 H1862 0.930 . S
C1868 C1869 1.367 . S
C1868 C1876 1.378 . S
C1869 C1868 1.367 . S
C1869 C1877 1.433 . S
C1870 H1866 0.929 . S
C1870 C1872 1.378 . S
C1870 C1874 1.350 . S
C1871 C1874 1.463 . S
C1871 C1876 1.350 . S
C1871 N1879 1.427 . S
C1872 H1863 0.930 . S
C1872 C1870 1.378 . S
C1872 C1873 1.367 . S
C1873 C1872 1.367 . S
C1873 C1875 1.433 . S
C1874 C1870 1.350 . S
C1874 C1871 1.463 . S
C1874 N1878 1.427 . S
C1875 H1865 0.929 . S
C1875 C1873 1.433 . S
C1875 N1878 1.384 . S
C1876 H1867 0.929 . S
C1876 C1868 1.378 . S
C1876 C1871 1.350 . S
C1877 H1864 0.929 . S
C1877 C1869 1.433 . S
C1877 N1879 1.384 . S
N1878 C1874 1.427 . S
N1878 C1875 1.384 . S
N1879 C1871 1.427 . S
N1879 C1877 1.384 . S
H1880 C1886 0.930 . S
H1881 C1890 0.930 . S
H1882 C1895 0.929 . S
H1883 C1893 0.929 . S
H1884 C1888 0.929 . S
H1885 C1894 0.929 . S
C1886 H1880 0.930 . S
C1886 C1887 1.367 . S
C1886 C1894 1.378 . S
C1887 C1886 1.367 . S
C1887 C1895 1.433 . S
C1888 H1884 0.929 . S
C1888 C1890 1.378 . S
C1888 C1892 1.350 . S
C1889 C1892 1.463 . S
C1889 C1894 1.350 . S
C1889 N1897 1.427 . S
C1890 H1881 0.930 . S
C1890 C1888 1.378 . S
C1890 C1891 1.367 . S
C1891 C1890 1.367 . S
C1891 C1893 1.433 . S
C1892 C1888 1.350 . S
C1892 C1889 1.463 . S
C1892 N1896 1.427 . S
C1893 H1883 0.929 . S
C1893 C1891 1.433 . S
C1893 N1896 1.384 . S
C1894 H1885 0.929 . S
C1894 C1886 1.378 . S
C1894 C1889 1.350 . S
C1895 H1882 0.929 . S
C1895 C1887 1.433 . S
C1895 N1897 1.384 . S
N1896 C1892 1.427 . S
N1896 C1893 1.384 . S
N1897 C1889 1.427 . S
N1897 C1895 1.384 . S
H1898 C1904 0.930 . S
H1899 C1908 0.930 . S
H1900 C1913 0.929 . S
H1901 C1911 0.929 . S
H1902 C1906 0.929 . S
H1903 C1912 0.929 . S
C1904 H1898 0.930 . S
C1904 C1905 1.367 . S
C1904 C1912 1.378 . S
C1905 C1904 1.367 . S
C1905 C1913 1.433 . S
C1906 H1902 0.929 . S
C1906 C1908 1.378 . S
C1906 C1910 1.350 . S
C1907 C1910 1.463 . S
C1907 C1912 1.350 . S
C1907 N1915 1.427 . S
C1908 H1899 0.930 . S
C1908 C1906 1.378 . S
C1908 C1909 1.367 . S
C1909 C1908 1.367 . S
C1909 C1911 1.433 . S
C1910 C1906 1.350 . S
C1910 C1907 1.463 . S
C1910 N1914 1.427 . S
C1911 H1901 0.929 . S
C1911 C1909 1.433 . S
C1911 N1914 1.384 . S
C1912 H1903 0.929 . S
C1912 C1904 1.378 . S
C1912 C1907 1.350 . S
C1913 H1900 0.929 . S
C1913 C1905 1.433 . S
C1913 N1915 1.384 . S
N1914 C1910 1.427 . S
N1914 C1911 1.384 . S
N1915 C1907 1.427 . S
N1915 C1913 1.384 . S
H1916 C1922 0.930 . S
H1917 C1926 0.930 . S
H1918 C1931 0.929 . S
H1919 C1929 0.929 . S
H1920 C1924 0.929 . S
H1921 C1930 0.929 . S
C1922 H1916 0.930 . S
C1922 C1923 1.367 . S
C1922 C1930 1.378 . S
C1923 C1922 1.367 . S
C1923 C1931 1.433 . S
C1924 H1920 0.929 . S
C1924 C1926 1.378 . S
C1924 C1928 1.350 . S
C1925 C1928 1.463 . S
C1925 C1930 1.350 . S
C1925 N1933 1.427 . S
C1926 H1917 0.930 . S
C1926 C1924 1.378 . S
C1926 C1927 1.367 . S
C1927 C1926 1.367 . S
C1927 C1929 1.433 . S
C1928 C1924 1.350 . S
C1928 C1925 1.463 . S
C1928 N1932 1.427 . S
C1929 H1919 0.929 . S
C1929 C1927 1.433 . S
C1929 N1932 1.384 . S
C1930 H1921 0.929 . S
C1930 C1922 1.378 . S
C1930 C1925 1.350 . S
C1931 H1918 0.929 . S
C1931 C1923 1.433 . S
C1931 N1933 1.384 . S
N1932 C1928 1.427 . S
N1932 C1929 1.384 . S
N1933 C1925 1.427 . S
N1933 C1931 1.384 . S
H1934 C1940 0.930 . S
H1935 C1944 0.930 . S
H1936 C1949 0.929 . S
H1937 C1947 0.929 . S
H1938 C1942 0.929 . S
H1939 C1948 0.929 . S
C1940 H1934 0.930 . S
C1940 C1941 1.367 . S
C1940 C1948 1.378 . S
C1941 C1940 1.367 . S
C1941 C1949 1.433 . S
C1942 H1938 0.929 . S
C1942 C1944 1.378 . S
C1942 C1946 1.350 . S
C1943 C1946 1.463 . S
C1943 C1948 1.350 . S
C1943 N1951 1.427 . S
C1944 H1935 0.930 . S
C1944 C1942 1.378 . S
C1944 C1945 1.367 . S
C1945 C1944 1.367 . S
C1945 C1947 1.433 . S
C1946 C1942 1.350 . S
C1946 C1943 1.463 . S
C1946 N1950 1.427 . S
C1947 H1937 0.929 . S
C1947 C1945 1.433 . S
C1947 N1950 1.384 . S
C1948 H1939 0.929 . S
C1948 C1940 1.378 . S
C1948 C1943 1.350 . S
C1949 H1936 0.929 . S
C1949 C1941 1.433 . S
C1949 N1951 1.384 . S
N1950 C1946 1.427 . S
N1950 C1947 1.384 . S
N1951 C1943 1.427 . S
N1951 C1949 1.384 . S
H1952 C1958 0.930 . S
H1953 C1962 0.930 1_565 S
H1954 C1967 0.939 . S
H1955 C1965 0.929 . S
H1956 C1960 0.929 . S
H1957 C1966 0.929 . S
C1958 H1952 0.930 . S
C1958 C1959 1.367 . S
C1958 C1966 1.378 . S
C1959 C1958 1.367 . S
C1959 C1967 1.418 1_455 S
C1960 H1956 0.929 . S
C1960 C1962 1.378 . S
C1960 C1964 1.350 . S
C1961 C1964 1.463 1_455 S
C1961 C1966 1.350 . S
C1961 N1969 1.427 1_455 S
C1962 H1953 0.930 1_545 S
C1962 C1960 1.378 . S
C1962 C1963 1.367 . S
C1963 C1962 1.367 . S
C1963 C1965 1.433 1_655 S
C1964 C1960 1.350 . S
C1964 C1961 1.463 1_655 S
C1964 N1968 1.427 1_655 S
C1965 H1955 0.929 . S
C1965 C1963 1.433 1_455 S
C1965 N1968 1.384 . S
C1966 H1957 0.929 . S
C1966 C1958 1.378 . S
C1966 C1961 1.350 . S
C1967 H1954 0.939 . S
C1967 C1959 1.418 1_655 S
C1967 N1969 1.390 . S
N1968 C1964 1.427 1_455 S
N1968 C1965 1.384 . S
N1969 C1961 1.427 1_655 S
N1969 C1967 1.390 . S
H1970 C1976 0.930 . S
H1971 C1980 0.930 . S
H1972 C1985 0.929 . S
H1973 C1983 0.929 . S
H1974 C1978 0.929 . S
H1975 C1984 0.929 . S
C1976 H1970 0.930 . S
C1976 C1977 1.367 . S
C1976 C1984 1.378 . S
C1977 C1976 1.367 . S
C1977 C1985 1.433 . S
C1978 H1974 0.929 . S
C1978 C1980 1.378 . S
C1978 C1982 1.350 . S
C1979 C1982 1.463 . S
C1979 C1984 1.350 . S
C1979 N1987 1.427 . S
C1980 H1971 0.930 . S
C1980 C1978 1.378 . S
C1980 C1981 1.367 . S
C1981 C1980 1.367 . S
C1981 C1983 1.433 . S
C1982 C1978 1.350 . S
C1982 C1979 1.463 . S
C1982 N1986 1.427 . S
C1983 H1973 0.929 . S
C1983 C1981 1.433 . S
C1983 N1986 1.384 . S
C1984 H1975 0.929 . S
C1984 C1976 1.378 . S
C1984 C1979 1.350 . S
C1985 H1972 0.929 . S
C1985 C1977 1.433 . S
C1985 N1987 1.384 . S
N1986 C1982 1.427 . S
N1986 C1983 1.384 . S
N1987 C1979 1.427 . S
N1987 C1985 1.384 . S
H1988 C1994 0.930 . S
H1989 C1998 0.930 . S
H1990 C2003 0.914 1_554 S
H1991 C2001 0.929 . S
H1992 C1996 0.929 . S
H1993 C2002 0.929 . S
C1994 H1988 0.930 . S
C1994 C1995 1.367 1_455 S
C1994 C2002 1.378 . S
C1995 C1994 1.367 1_655 S
C1995 C2003 1.433 . S
C1996 H1992 0.929 . S
C1996 C1998 1.378 . S
C1996 C2000 1.350 1_655 S
C1997 C2000 1.463 1_655 S
C1997 C2002 1.350 1_655 S
C1997 N2005 1.427 . S
C1998 H1989 0.930 . S
C1998 C1996 1.378 . S
C1998 C1999 1.367 1_655 S
C1999 C1998 1.367 1_455 S
C1999 C2001 1.433 . S
C2000 C1996 1.350 1_455 S
C2000 C1997 1.463 1_455 S
C2000 N2004 1.427 . S
C2001 H1991 0.929 . S
C2001 C1999 1.433 . S
C2001 N2004 1.384 . S
C2002 H1993 0.929 . S
C2002 C1994 1.378 . S
C2002 C1997 1.350 1_455 S
C2003 H1990 0.914 1_556 S
C2003 C1995 1.433 . S
C2003 N2005 1.384 . S
N2004 C2000 1.427 . S
N2004 C2001 1.384 . S
N2005 C1997 1.427 . S
N2005 C2003 1.384 . S
H2006 C2012 0.930 . S
H2007 C2016 0.930 1_565 S
H2008 C2021 0.929 . S
H2009 C2019 0.929 1_554 S
H2010 C2014 0.929 . S
H2011 C2020 0.929 . S
C2012 H2006 0.930 . S
C2012 C2013 1.367 . S
C2012 C2020 1.378 . S
C2013 C2012 1.367 . S
C2013 C2021 1.433 . S
C2014 H2010 0.929 . S
C2014 C2016 1.378 . S
C2014 C2018 1.350 . S
C2015 C2018 1.463 . S
C2015 C2020 1.350 . S
C2015 N2023 1.427 . S
C2016 H2007 0.930 1_545 S
C2016 C2014 1.378 . S
C2016 C2017 1.367 . S
C2017 C2016 1.367 . S
C2017 C2019 1.433 . S
C2018 C2014 1.350 . S
C2018 C2015 1.463 . S
C2018 N2022 1.427 . S
C2019 H2009 0.929 1_556 S
C2019 C2017 1.433 . S
C2019 N2022 1.384 . S
C2020 H2011 0.929 . S
C2020 C2012 1.378 . S
C2020 C2015 1.350 . S
C2021 H2008 0.929 . S
C2021 C2013 1.433 . S
C2021 N2023 1.384 . S
N2022 C2018 1.427 . S
N2022 C2019 1.384 . S
N2023 C2015 1.427 . S
N2023 C2021 1.384 . S
H2024 C2030 0.930 . S
H2025 C2034 0.930 . S
H2026 C2039 0.929 . S
H2027 C2037 0.929 . S
H2028 C2032 0.929 . S
H2029 C2038 0.929 . S
C2030 H2024 0.930 . S
C2030 C2031 1.367 . S
C2030 C2038 1.378 . S
C2031 C2030 1.367 . S
C2031 C2039 1.433 1_455 S
C2032 H2028 0.929 . S
C2032 C2034 1.378 . S
C2032 C2036 1.350 . S
C2033 C2036 1.463 1_455 S
C2033 C2038 1.350 . S
C2033 N2041 1.427 1_455 S
C2034 H2025 0.930 . S
C2034 C2032 1.378 . S
C2034 C2035 1.367 . S
C2035 C2034 1.367 . S
C2035 C2037 1.433 1_655 S
C2036 C2032 1.350 . S
C2036 C2033 1.463 1_655 S
C2036 N2040 1.427 1_655 S
C2037 H2027 0.929 . S
C2037 C2035 1.433 1_455 S
C2037 N2040 1.384 . S
C2038 H2029 0.929 . S
C2038 C2030 1.378 . S
C2038 C2033 1.350 . S
C2039 H2026 0.929 . S
C2039 C2031 1.433 1_655 S
C2039 N2041 1.384 . S
N2040 C2036 1.427 1_455 S
N2040 C2037 1.384 . S
N2041 C2033 1.427 1_655 S
N2041 C2039 1.384 . S
H2042 C2048 0.930 . S
H2043 C2052 0.930 . S
H2044 C2057 0.929 . S
H2045 C2055 0.929 . S
H2046 C2050 0.929 . S
H2047 C2056 0.929 . S
C2048 H2042 0.930 . S
C2048 C2049 1.367 . S
C2048 C2056 1.378 . S
C2049 C2048 1.367 . S
C2049 C2057 1.433 . S
C2050 H2046 0.929 . S
C2050 C2052 1.378 . S
C2050 C2054 1.350 . S
C2051 C2054 1.463 . S
C2051 C2056 1.350 . S
C2051 N2059 1.427 . S
C2052 H2043 0.930 . S
C2052 C2050 1.378 . S
C2052 C2053 1.367 . S
C2053 C2052 1.367 . S
C2053 C2055 1.433 . S
C2054 C2050 1.350 . S
C2054 C2051 1.463 . S
C2054 N2058 1.427 . S
C2055 H2045 0.929 . S
C2055 C2053 1.433 . S
C2055 N2058 1.384 . S
C2056 H2047 0.929 . S
C2056 C2048 1.378 . S
C2056 C2051 1.350 . S
C2057 H2044 0.929 . S
C2057 C2049 1.433 . S
C2057 N2059 1.384 . S
N2058 C2054 1.427 . S
N2058 C2055 1.384 . S
N2059 C2051 1.427 . S
N2059 C2057 1.384 . S
H2060 C2066 0.930 . S
H2061 C2070 0.930 . S
H2062 C2075 0.940 1_556 S
H2063 C2073 0.928 . S
H2064 C2068 0.929 . S
H2065 C2074 0.929 . S
C2066 H2060 0.930 . S
C2066 C2067 1.367 . S
C2066 C2074 1.378 . S
C2067 C2066 1.367 . S
C2067 C2075 1.416 1_455 S
C2068 H2064 0.929 . S
C2068 C2070 1.378 . S
C2068 C2072 1.350 . S
C2069 C2072 1.463 1_455 S
C2069 C2074 1.350 . S
C2069 N2077 1.427 1_455 S
C2070 H2061 0.930 . S
C2070 C2068 1.378 . S
C2070 C2071 1.367 . S
C2071 C2070 1.367 . S
C2071 C2073 1.435 1_655 S
C2072 C2068 1.350 . S
C2072 C2069 1.463 1_655 S
C2072 N2076 1.427 1_655 S
C2073 H2063 0.928 . S
C2073 C2071 1.435 1_455 S
C2073 N2076 1.383 . S
C2074 H2065 0.929 . S
C2074 C2066 1.378 . S
C2074 C2069 1.350 . S
C2075 H2062 0.940 1_554 S
C2075 C2067 1.416 1_655 S
C2075 N2077 1.391 . S
N2076 C2072 1.427 1_455 S
N2076 C2073 1.383 . S
N2077 C2069 1.427 1_655 S
N2077 C2075 1.391 . S
H2078 C2084 0.930 1_545 S
H2079 C2088 0.930 . S
H2080 C2093 0.929 1_556 S
H2081 C2091 0.929 . S
H2082 C2086 0.929 . S
H2083 C2092 0.929 . S
C2084 H2078 0.930 1_565 S
C2084 C2085 1.367 . S
C2084 C2092 1.378 . S
C2085 C2084 1.367 . S
C2085 C2093 1.433 . S
C2086 H2082 0.929 . S
C2086 C2088 1.378 . S
C2086 C2090 1.350 . S
C2087 C2090 1.463 . S
C2087 C2092 1.350 . S
C2087 N2095 1.427 . S
C2088 H2079 0.930 . S
C2088 C2086 1.378 . S
C2088 C2089 1.367 . S
C2089 C2088 1.367 . S
C2089 C2091 1.433 . S
C2090 C2086 1.350 . S
C2090 C2087 1.463 . S
C2090 N2094 1.427 . S
C2091 H2081 0.929 . S
C2091 C2089 1.433 . S
C2091 N2094 1.384 . S
C2092 H2083 0.929 . S
C2092 C2084 1.378 . S
C2092 C2087 1.350 . S
C2093 H2080 0.929 1_554 S
C2093 C2085 1.433 . S
C2093 N2095 1.384 . S
N2094 C2090 1.427 . S
N2094 C2091 1.384 . S
N2095 C2087 1.427 . S
N2095 C2093 1.384 . S
H2096 C2102 0.930 . S
H2097 C2106 0.930 . S
H2098 C2111 0.929 . S
H2099 C2109 0.929 . S
H2100 C2104 0.929 . S
H2101 C2110 0.929 . S
C2102 H2096 0.930 . S
C2102 C2103 1.367 1_455 S
C2102 C2110 1.378 . S
C2103 C2102 1.367 1_655 S
C2103 C2111 1.433 . S
C2104 H2100 0.929 . S
C2104 C2106 1.378 . S
C2104 C2108 1.350 1_655 S
C2105 C2108 1.463 1_655 S
C2105 C2110 1.350 1_655 S
C2105 N2113 1.427 . S
C2106 H2097 0.930 . S
C2106 C2104 1.378 . S
C2106 C2107 1.367 1_655 S
C2107 C2106 1.367 1_455 S
C2107 C2109 1.433 . S
C2108 C2104 1.350 1_455 S
C2108 C2105 1.463 1_455 S
C2108 N2112 1.427 . S
C2109 H2099 0.929 . S
C2109 C2107 1.433 . S
C2109 N2112 1.384 . S
C2110 H2101 0.929 . S
C2110 C2102 1.378 . S
C2110 C2105 1.350 1_455 S
C2111 H2098 0.929 . S
C2111 C2103 1.433 . S
C2111 N2113 1.384 . S
N2112 C2108 1.427 . S
N2112 C2109 1.384 . S
N2113 C2105 1.427 . S
N2113 C2111 1.384 . S
H2114 C2120 0.930 . S
H2115 C2124 0.930 . S
H2116 C2129 0.929 . S
H2117 C2127 0.929 . S
H2118 C2122 0.929 . S
H2119 C2128 0.929 . S
C2120 H2114 0.930 . S
C2120 C2121 1.367 . S
C2120 C2128 1.378 . S
C2121 C2120 1.367 . S
C2121 C2129 1.433 . S
C2122 H2118 0.929 . S
C2122 C2124 1.378 . S
C2122 C2126 1.350 . S
C2123 C2126 1.463 . S
C2123 C2128 1.350 . S
C2123 N2131 1.427 . S
C2124 H2115 0.930 . S
C2124 C2122 1.378 . S
C2124 C2125 1.367 . S
C2125 C2124 1.367 . S
C2125 C2127 1.433 . S
C2126 C2122 1.350 . S
C2126 C2123 1.463 . S
C2126 N2130 1.427 . S
C2127 H2117 0.929 . S
C2127 C2125 1.433 . S
C2127 N2130 1.384 . S
C2128 H2119 0.929 . S
C2128 C2120 1.378 . S
C2128 C2123 1.350 . S
C2129 H2116 0.929 . S
C2129 C2121 1.433 . S
C2129 N2131 1.384 . S
N2130 C2126 1.427 . S
N2130 C2127 1.384 . S
N2131 C2123 1.427 . S
N2131 C2129 1.384 . S
H2132 C2138 0.930 . S
H2133 C2142 0.930 . S
H2134 C2147 0.929 . S
H2135 C2145 0.929 . S
H2136 C2140 0.929 . S
H2137 C2146 0.929 . S
C2138 H2132 0.930 . S
C2138 C2139 1.367 . S
C2138 C2146 1.378 . S
C2139 C2138 1.367 . S
C2139 C2147 1.433 1_655 S
C2140 H2136 0.929 . S
C2140 C2142 1.378 . S
C2140 C2144 1.350 . S
C2141 C2144 1.463 1_655 S
C2141 C2146 1.350 . S
C2141 N2149 1.427 1_655 S
C2142 H2133 0.930 . S
C2142 C2140 1.378 . S
C2142 C2143 1.367 . S
C2143 C2142 1.367 . S
C2143 C2145 1.433 1_455 S
C2144 C2140 1.350 . S
C2144 C2141 1.463 1_455 S
C2144 N2148 1.427 1_455 S
C2145 H2135 0.929 . S
C2145 C2143 1.433 1_655 S
C2145 N2148 1.384 . S
C2146 H2137 0.929 . S
C2146 C2138 1.378 . S
C2146 C2141 1.350 . S
C2147 H2134 0.929 . S
C2147 C2139 1.433 1_455 S
C2147 N2149 1.384 . S
N2148 C2144 1.427 1_655 S
N2148 C2145 1.384 . S
N2149 C2141 1.427 1_455 S
N2149 C2147 1.384 . S
H2150 C2156 0.930 . S
H2151 C2160 0.930 . S
H2152 C2165 0.929 . S
H2153 C2163 0.929 . S
H2154 C2158 0.929 . S
H2155 C2164 0.929 . S
C2156 H2150 0.930 . S
C2156 C2157 1.367 . S
C2156 C2164 1.378 . S
C2157 C2156 1.367 . S
C2157 C2165 1.433 . S
C2158 H2154 0.929 . S
C2158 C2160 1.378 . S
C2158 C2162 1.350 . S
C2159 C2162 1.463 . S
C2159 C2164 1.350 . S
C2159 N2167 1.427 . S
C2160 H2151 0.930 . S
C2160 C2158 1.378 . S
C2160 C2161 1.367 . S
C2161 C2160 1.367 . S
C2161 C2163 1.433 . S
C2162 C2158 1.350 . S
C2162 C2159 1.463 . S
C2162 N2166 1.427 . S
C2163 H2153 0.929 . S
C2163 C2161 1.433 . S
C2163 N2166 1.384 . S
C2164 H2155 0.929 . S
C2164 C2156 1.378 . S
C2164 C2159 1.350 . S
C2165 H2152 0.929 . S
C2165 C2157 1.433 . S
C2165 N2167 1.384 . S
N2166 C2162 1.427 . S
N2166 C2163 1.384 . S
N2167 C2159 1.427 . S
N2167 C2165 1.384 . S
H2168 C2174 0.930 . S
H2169 C2178 0.930 . S
H2170 C2183 0.946 . S
H2171 C2181 0.929 . S
H2172 C2176 0.929 . S
H2173 C2182 0.929 . S
C2174 H2168 0.930 . S
C2174 C2175 1.367 . S
C2174 C2182 1.378 . S
C2175 C2174 1.367 . S
C2175 C2183 1.409 1_655 S
C2176 H2172 0.929 . S
C2176 C2178 1.378 . S
C2176 C2180 1.350 . S
C2177 C2180 1.463 1_655 S
C2177 C2182 1.350 . S
C2177 N2185 1.427 1_655 S
C2178 H2169 0.930 . S
C2178 C2176 1.378 . S
C2178 C2179 1.367 . S
C2179 C2178 1.367 . S
C2179 C2181 1.433 1_455 S
C2180 C2176 1.350 . S
C2180 C2177 1.463 1_455 S
C2180 N2184 1.427 1_455 S
C2181 H2171 0.929 . S
C2181 C2179 1.433 1_655 S
C2181 N2184 1.384 . S
C2182 H2173 0.929 . S
C2182 C2174 1.378 . S
C2182 C2177 1.350 . S
C2183 H2170 0.946 . S
C2183 C2175 1.409 1_455 S
C2183 N2185 1.393 . S
N2184 C2180 1.427 1_655 S
N2184 C2181 1.384 . S
N2185 C2177 1.427 1_455 S
N2185 C2183 1.393 . S
H2186 C2192 0.930 . S
H2187 C2196 0.930 . S
H2188 C2201 0.929 . S
H2189 C2199 0.929 . S
H2190 C2194 0.929 . S
H2191 C2200 0.929 . S
C2192 H2186 0.930 . S
C2192 C2193 1.367 . S
C2192 C2200 1.378 . S
C2193 C2192 1.367 . S
C2193 C2201 1.433 . S
C2194 H2190 0.929 . S
C2194 C2196 1.378 . S
C2194 C2198 1.350 . S
C2195 C2198 1.463 . S
C2195 C2200 1.350 . S
C2195 N2203 1.427 . S
C2196 H2187 0.930 . S
C2196 C2194 1.378 . S
C2196 C2197 1.367 . S
C2197 C2196 1.367 . S
C2197 C2199 1.433 . S
C2198 C2194 1.350 . S
C2198 C2195 1.463 . S
C2198 N2202 1.427 . S
C2199 H2189 0.929 . S
C2199 C2197 1.433 . S
C2199 N2202 1.384 . S
C2200 H2191 0.929 . S
C2200 C2192 1.378 . S
C2200 C2195 1.350 . S
C2201 H2188 0.929 . S
C2201 C2193 1.433 . S
C2201 N2203 1.384 . S
N2202 C2198 1.427 . S
N2202 C2199 1.384 . S
N2203 C2195 1.427 . S
N2203 C2201 1.384 . S
H2204 C2210 0.930 . S
H2205 C2214 0.930 . S
H2206 C2219 0.929 . S
H2207 C2217 0.929 . S
H2208 C2212 0.929 . S
H2209 C2218 0.929 . S
C2210 H2204 0.930 . S
C2210 C2211 1.367 . S
C2210 C2218 1.378 . S
C2211 C2210 1.367 . S
C2211 C2219 1.433 1_455 S
C2212 H2208 0.929 . S
C2212 C2214 1.378 . S
C2212 C2216 1.350 . S
C2213 C2216 1.463 1_455 S
C2213 C2218 1.350 . S
C2213 N2221 1.427 1_455 S
C2214 H2205 0.930 . S
C2214 C2212 1.378 . S
C2214 C2215 1.367 . S
C2215 C2214 1.367 . S
C2215 C2217 1.433 1_655 S
C2216 C2212 1.350 . S
C2216 C2213 1.463 1_655 S
C2216 N2220 1.427 1_655 S
C2217 H2207 0.929 . S
C2217 C2215 1.433 1_455 S
C2217 N2220 1.384 . S
C2218 H2209 0.929 . S
C2218 C2210 1.378 . S
C2218 C2213 1.350 . S
C2219 H2206 0.929 . S
C2219 C2211 1.433 1_655 S
C2219 N2221 1.384 . S
N2220 C2216 1.427 1_455 S
N2220 C2217 1.384 . S
N2221 C2213 1.427 1_655 S
N2221 C2219 1.384 . S
H2222 C2228 0.930 . S
H2223 C2232 0.930 . S
H2224 C2237 0.929 . S
H2225 C2235 0.929 . S
H2226 C2230 0.929 . S
H2227 C2236 0.929 . S
C2228 H2222 0.930 . S
C2228 C2229 1.367 . S
C2228 C2236 1.378 . S
C2229 C2228 1.367 . S
C2229 C2237 1.433 . S
C2230 H2226 0.929 . S
C2230 C2232 1.378 . S
C2230 C2234 1.350 . S
C2231 C2234 1.463 . S
C2231 C2236 1.350 . S
C2231 N2239 1.427 . S
C2232 H2223 0.930 . S
C2232 C2230 1.378 . S
C2232 C2233 1.367 . S
C2233 C2232 1.367 . S
C2233 C2235 1.433 . S
C2234 C2230 1.350 . S
C2234 C2231 1.463 . S
C2234 N2238 1.427 . S
C2235 H2225 0.929 . S
C2235 C2233 1.433 . S
C2235 N2238 1.384 . S
C2236 H2227 0.929 . S
C2236 C2228 1.378 . S
C2236 C2231 1.350 . S
C2237 H2224 0.929 . S
C2237 C2229 1.433 . S
C2237 N2239 1.384 . S
N2238 C2234 1.427 . S
N2238 C2235 1.384 . S
N2239 C2231 1.427 . S
N2239 C2237 1.384 . S
H2240 C2246 0.930 . S
H2241 C2250 0.930 . S
H2242 C2255 0.912 1_565 S
H2243 C2253 0.929 . S
H2244 C2248 0.929 . S
H2245 C2254 0.929 . S
C2246 H2240 0.930 . S
C2246 C2247 1.367 . S
C2246 C2254 1.378 . S
C2247 C2246 1.367 . S
C2247 C2255 1.433 . S
C2248 H2244 0.929 . S
C2248 C2250 1.378 . S
C2248 C2252 1.350 . S
C2249 C2252 1.463 . S
C2249 C2254 1.350 . S
C2249 N2257 1.427 . S
C2250 H2241 0.930 . S
C2250 C2248 1.378 . S
C2250 C2251 1.367 . S
C2251 C2250 1.367 . S
C2251 C2253 1.433 . S
C2252 C2248 1.350 . S
C2252 C2249 1.463 . S
C2252 N2256 1.427 . S
C2253 H2243 0.929 . S
C2253 C2251 1.433 . S
C2253 N2256 1.384 . S
C2254 H2245 0.929 . S
C2254 C2246 1.378 . S
C2254 C2249 1.350 . S
C2255 H2242 0.912 1_545 S
C2255 C2247 1.433 . S
C2255 N2257 1.384 . S
N2256 C2252 1.427 . S
N2256 C2253 1.384 . S
N2257 C2249 1.427 . S
N2257 C2255 1.384 . S
H2258 C2264 0.930 . S
H2259 C2268 0.930 . S
H2260 C2273 0.929 . S
H2261 C2271 0.929 . S
H2262 C2266 0.929 . S
H2263 C2272 0.929 . S
C2264 H2258 0.930 . S
C2264 C2265 1.367 . S
C2264 C2272 1.378 . S
C2265 C2264 1.367 . S
C2265 C2273 1.433 . S
C2266 H2262 0.929 . S
C2266 C2268 1.378 . S
C2266 C2270 1.350 . S
C2267 C2270 1.463 . S
C2267 C2272 1.350 . S
C2267 N2275 1.427 . S
C2268 H2259 0.930 . S
C2268 C2266 1.378 . S
C2268 C2269 1.367 . S
C2269 C2268 1.367 . S
C2269 C2271 1.433 . S
C2270 C2266 1.350 . S
C2270 C2267 1.463 . S
C2270 N2274 1.427 . S
C2271 H2261 0.929 . S
C2271 C2269 1.433 . S
C2271 N2274 1.384 . S
C2272 H2263 0.929 . S
C2272 C2264 1.378 . S
C2272 C2267 1.350 . S
C2273 H2260 0.929 . S
C2273 C2265 1.433 . S
C2273 N2275 1.384 . S
N2274 C2270 1.427 . S
N2274 C2271 1.384 . S
N2275 C2267 1.427 . S
N2275 C2273 1.384 . S
H2276 C2282 0.930 . S
H2277 C2286 0.930 . S
H2278 C2291 0.929 . S
H2279 C2289 0.929 . S
H2280 C2284 0.929 . S
H2281 C2290 0.929 . S
C2282 H2276 0.930 . S
C2282 C2283 1.367 . S
C2282 C2290 1.378 . S
C2283 C2282 1.367 . S
C2283 C2291 1.433 . S
C2284 H2280 0.929 . S
C2284 C2286 1.378 . S
C2284 C2288 1.350 . S
C2285 C2288 1.463 . S
C2285 C2290 1.350 . S
C2285 N2293 1.427 . S
C2286 H2277 0.930 . S
C2286 C2284 1.378 . S
C2286 C2287 1.367 . S
C2287 C2286 1.367 . S
C2287 C2289 1.433 . S
C2288 C2284 1.350 . S
C2288 C2285 1.463 . S
C2288 N2292 1.427 . S
C2289 H2279 0.929 . S
C2289 C2287 1.433 . S
C2289 N2292 1.384 . S
C2290 H2281 0.929 . S
C2290 C2282 1.378 . S
C2290 C2285 1.350 . S
C2291 H2278 0.929 . S
C2291 C2283 1.433 . S
C2291 N2293 1.384 . S
N2292 C2288 1.427 . S
N2292 C2289 1.384 . S
N2293 C2285 1.427 . S
N2293 C2291 1.384 . S
H2294 C2300 0.930 . S
H2295 C2304 0.930 . S
H2296 C2309 0.929 . S
H2297 C2307 0.929 . S
H2298 C2302 0.929 . S
H2299 C2308 0.929 . S
C2300 H2294 0.930 . S
C2300 C2301 1.367 . S
C2300 C2308 1.378 . S
C2301 C2300 1.367 . S
C2301 C2309 1.433 . S
C2302 H2298 0.929 . S
C2302 C2304 1.378 . S
C2302 C2306 1.350 . S
C2303 C2306 1.463 . S
C2303 C2308 1.350 . S
C2303 N2311 1.427 . S
C2304 H2295 0.930 . S
C2304 C2302 1.378 . S
C2304 C2305 1.367 . S
C2305 C2304 1.367 . S
C2305 C2307 1.433 . S
C2306 C2302 1.350 . S
C2306 C2303 1.463 . S
C2306 N2310 1.427 . S
C2307 H2297 0.929 . S
C2307 C2305 1.433 . S
C2307 N2310 1.384 . S
C2308 H2299 0.929 . S
C2308 C2300 1.378 . S
C2308 C2303 1.350 . S
C2309 H2296 0.929 . S
C2309 C2301 1.433 . S
C2309 N2311 1.384 . S
N2310 C2306 1.427 . S
N2310 C2307 1.384 . S
N2311 C2303 1.427 . S
N2311 C2309 1.384 . S
H2312 C2318 0.930 . S
H2313 C2322 0.930 . S
H2314 C2327 0.929 1_545 S
H2315 C2325 0.929 . S
H2316 C2320 0.929 . S
H2317 C2326 0.929 . S
C2318 H2312 0.930 . S
C2318 C2319 1.367 . S
C2318 C2326 1.378 . S
C2319 C2318 1.367 . S
C2319 C2327 1.433 . S
C2320 H2316 0.929 . S
C2320 C2322 1.378 . S
C2320 C2324 1.350 . S
C2321 C2324 1.463 . S
C2321 C2326 1.350 . S
C2321 N2329 1.427 . S
C2322 H2313 0.930 . S
C2322 C2320 1.378 . S
C2322 C2323 1.367 . S
C2323 C2322 1.367 . S
C2323 C2325 1.433 . S
C2324 C2320 1.350 . S
C2324 C2321 1.463 . S
C2324 N2328 1.427 . S
C2325 H2315 0.929 . S
C2325 C2323 1.433 . S
C2325 N2328 1.384 . S
C2326 H2317 0.929 . S
C2326 C2318 1.378 . S
C2326 C2321 1.350 . S
C2327 H2314 0.929 1_565 S
C2327 C2319 1.433 . S
C2327 N2329 1.384 . S
N2328 C2324 1.427 . S
N2328 C2325 1.384 . S
N2329 C2321 1.427 . S
N2329 C2327 1.384 . S
H2330 C2336 0.930 . S
H2331 C2340 0.930 . S
H2332 C2345 0.929 . S
H2333 C2343 0.929 . S
H2334 C2338 0.929 . S
H2335 C2344 0.929 . S
C2336 H2330 0.930 . S
C2336 C2337 1.367 . S
C2336 C2344 1.378 . S
C2337 C2336 1.367 . S
C2337 C2345 1.433 . S
C2338 H2334 0.929 . S
C2338 C2340 1.378 . S
C2338 C2342 1.350 . S
C2339 C2342 1.463 . S
C2339 C2344 1.350 . S
C2339 N2347 1.427 . S
C2340 H2331 0.930 . S
C2340 C2338 1.378 . S
C2340 C2341 1.367 . S
C2341 C2340 1.367 . S
C2341 C2343 1.433 . S
C2342 C2338 1.350 . S
C2342 C2339 1.463 . S
C2342 N2346 1.427 . S
C2343 H2333 0.929 . S
C2343 C2341 1.433 . S
C2343 N2346 1.384 . S
C2344 H2335 0.929 . S
C2344 C2336 1.378 . S
C2344 C2339 1.350 . S
C2345 H2332 0.929 . S
C2345 C2337 1.433 . S
C2345 N2347 1.384 . S
N2346 C2342 1.427 . S
N2346 C2343 1.384 . S
N2347 C2339 1.427 . S
N2347 C2345 1.384 . S
H2348 C2354 0.930 . S
H2349 C2358 0.930 . S
H2350 C2363 0.929 . S
H2351 C2361 0.929 . S
H2352 C2356 0.929 . S
H2353 C2362 0.929 . S
C2354 H2348 0.930 . S
C2354 C2355 1.367 . S
C2354 C2362 1.378 . S
C2355 C2354 1.367 . S
C2355 C2363 1.433 . S
C2356 H2352 0.929 . S
C2356 C2358 1.378 . S
C2356 C2360 1.350 . S
C2357 C2360 1.463 . S
C2357 C2362 1.350 . S
C2357 N2365 1.427 . S
C2358 H2349 0.930 . S
C2358 C2356 1.378 . S
C2358 C2359 1.367 . S
C2359 C2358 1.367 . S
C2359 C2361 1.433 . S
C2360 C2356 1.350 . S
C2360 C2357 1.463 . S
C2360 N2364 1.427 . S
C2361 H2351 0.929 . S
C2361 C2359 1.433 . S
C2361 N2364 1.384 . S
C2362 H2353 0.929 . S
C2362 C2354 1.378 . S
C2362 C2357 1.350 . S
C2363 H2350 0.929 . S
C2363 C2355 1.433 . S
C2363 N2365 1.384 . S
N2364 C2360 1.427 . S
N2364 C2361 1.384 . S
N2365 C2357 1.427 . S
N2365 C2363 1.384 . S
H2366 C2372 0.930 . S
H2367 C2376 0.930 1_545 S
H2368 C2381 0.929 . S
H2369 C2379 0.929 . S
H2370 C2374 0.929 . S
H2371 C2380 0.929 . S
C2372 H2366 0.930 . S
C2372 C2373 1.367 . S
C2372 C2380 1.378 . S
C2373 C2372 1.367 . S
C2373 C2381 1.433 . S
C2374 H2370 0.929 . S
C2374 C2376 1.378 . S
C2374 C2378 1.350 . S
C2375 C2378 1.463 . S
C2375 C2380 1.350 . S
C2375 N2383 1.427 . S
C2376 H2367 0.930 1_565 S
C2376 C2374 1.378 . S
C2376 C2377 1.367 . S
C2377 C2376 1.367 . S
C2377 C2379 1.433 . S
C2378 C2374 1.350 . S
C2378 C2375 1.463 . S
C2378 N2382 1.427 . S
C2379 H2369 0.929 . S
C2379 C2377 1.433 . S
C2379 N2382 1.384 . S
C2380 H2371 0.929 . S
C2380 C2372 1.378 . S
C2380 C2375 1.350 . S
C2381 H2368 0.929 . S
C2381 C2373 1.433 . S
C2381 N2383 1.384 . S
N2382 C2378 1.427 . S
N2382 C2379 1.384 . S
N2383 C2375 1.427 . S
N2383 C2381 1.384 . S
H2384 C2390 0.930 . S
H2385 C2394 0.930 . S
H2386 C2399 0.929 . S
H2387 C2397 0.929 . S
H2388 C2392 0.929 . S
H2389 C2398 0.929 . S
C2390 H2384 0.930 . S
C2390 C2391 1.367 . S
C2390 C2398 1.378 . S
C2391 C2390 1.367 . S
C2391 C2399 1.433 . S
C2392 H2388 0.929 . S
C2392 C2394 1.378 . S
C2392 C2396 1.350 . S
C2393 C2396 1.463 . S
C2393 C2398 1.350 . S
C2393 N2401 1.427 . S
C2394 H2385 0.930 . S
C2394 C2392 1.378 . S
C2394 C2395 1.367 . S
C2395 C2394 1.367 . S
C2395 C2397 1.433 . S
C2396 C2392 1.350 . S
C2396 C2393 1.463 . S
C2396 N2400 1.427 . S
C2397 H2387 0.929 . S
C2397 C2395 1.433 . S
C2397 N2400 1.384 . S
C2398 H2389 0.929 . S
C2398 C2390 1.378 . S
C2398 C2393 1.350 . S
C2399 H2386 0.929 . S
C2399 C2391 1.433 . S
C2399 N2401 1.384 . S
N2400 C2396 1.427 . S
N2400 C2397 1.384 . S
N2401 C2393 1.427 . S
N2401 C2399 1.384 . S
H2402 C2408 0.930 . S
H2403 C2412 0.930 . S
H2404 C2417 0.929 . S
H2405 C2415 0.929 . S
H2406 C2410 0.929 . S
H2407 C2416 0.929 . S
C2408 H2402 0.930 . S
C2408 C2409 1.367 . S
C2408 C2416 1.378 . S
C2409 C2408 1.367 . S
C2409 C2417 1.433 . S
C2410 H2406 0.929 . S
C2410 C2412 1.378 . S
C2410 C2414 1.350 . S
C2411 C2414 1.463 . S
C2411 C2416 1.350 . S
C2411 N2419 1.427 . S
C2412 H2403 0.930 . S
C2412 C2410 1.378 . S
C2412 C2413 1.367 . S
C2413 C2412 1.367 . S
C2413 C2415 1.433 . S
C2414 C2410 1.350 . S
C2414 C2411 1.463 . S
C2414 N2418 1.427 . S
C2415 H2405 0.929 . S
C2415 C2413 1.433 . S
C2415 N2418 1.384 . S
C2416 H2407 0.929 . S
C2416 C2408 1.378 . S
C2416 C2411 1.350 . S
C2417 H2404 0.929 . S
C2417 C2409 1.433 . S
C2417 N2419 1.384 . S
N2418 C2414 1.427 . S
N2418 C2415 1.384 . S
N2419 C2411 1.427 . S
N2419 C2417 1.384 . S
H2420 C2426 0.930 . S
H2421 C2430 0.930 1_554 S
H2422 C2435 0.929 . S
H2423 C2433 0.929 . S
H2424 C2428 0.929 . S
H2425 C2434 0.929 . S
C2426 H2420 0.930 . S
C2426 C2427 1.367 . S
C2426 C2434 1.378 . S
C2427 C2426 1.367 . S
C2427 C2435 1.433 . S
C2428 H2424 0.929 . S
C2428 C2430 1.378 . S
C2428 C2432 1.350 . S
C2429 C2432 1.463 . S
C2429 C2434 1.350 . S
C2429 N2437 1.427 . S
C2430 H2421 0.930 1_556 S
C2430 C2428 1.378 . S
C2430 C2431 1.367 . S
C2431 C2430 1.367 . S
C2431 C2433 1.433 . S
C2432 C2428 1.350 . S
C2432 C2429 1.463 . S
C2432 N2436 1.427 . S
C2433 H2423 0.929 . S
C2433 C2431 1.433 . S
C2433 N2436 1.384 . S
C2434 H2425 0.929 . S
C2434 C2426 1.378 . S
C2434 C2429 1.350 . S
C2435 H2422 0.929 . S
C2435 C2427 1.433 . S
C2435 N2437 1.384 . S
N2436 C2432 1.427 . S
N2436 C2433 1.384 . S
N2437 C2429 1.427 . S
N2437 C2435 1.384 . S
H2438 C2444 0.930 . S
H2439 C2448 0.930 1_554 S
H2440 C2453 0.929 . S
H2441 C2451 0.929 . S
H2442 C2446 0.929 . S
H2443 C2452 0.929 . S
C2444 H2438 0.930 . S
C2444 C2445 1.367 . S
C2444 C2452 1.378 . S
C2445 C2444 1.367 . S
C2445 C2453 1.433 . S
C2446 H2442 0.929 . S
C2446 C2448 1.378 . S
C2446 C2450 1.350 . S
C2447 C2450 1.463 . S
C2447 C2452 1.350 . S
C2447 N2455 1.427 . S
C2448 H2439 0.930 1_556 S
C2448 C2446 1.378 . S
C2448 C2449 1.367 . S
C2449 C2448 1.367 . S
C2449 C2451 1.433 . S
C2450 C2446 1.350 . S
C2450 C2447 1.463 . S
C2450 N2454 1.427 . S
C2451 H2441 0.929 . S
C2451 C2449 1.433 . S
C2451 N2454 1.384 . S
C2452 H2443 0.929 . S
C2452 C2444 1.378 . S
C2452 C2447 1.350 . S
C2453 H2440 0.929 . S
C2453 C2445 1.433 . S
C2453 N2455 1.384 . S
N2454 C2450 1.427 . S
N2454 C2451 1.384 . S
N2455 C2447 1.427 . S
N2455 C2453 1.384 . S
H2456 C2462 0.930 . S
H2457 C2466 0.930 . S
H2458 C2471 0.929 . S
H2459 C2469 0.929 . S
H2460 C2464 0.929 . S
H2461 C2470 0.929 . S
C2462 H2456 0.930 . S
C2462 C2463 1.367 . S
C2462 C2470 1.378 . S
C2463 C2462 1.367 . S
C2463 C2471 1.433 . S
C2464 H2460 0.929 . S
C2464 C2466 1.378 . S
C2464 C2468 1.350 . S
C2465 C2468 1.463 . S
C2465 C2470 1.350 . S
C2465 N2473 1.427 . S
C2466 H2457 0.930 . S
C2466 C2464 1.378 . S
C2466 C2467 1.367 . S
C2467 C2466 1.367 . S
C2467 C2469 1.433 . S
C2468 C2464 1.350 . S
C2468 C2465 1.463 . S
C2468 N2472 1.427 . S
C2469 H2459 0.929 . S
C2469 C2467 1.433 . S
C2469 N2472 1.384 . S
C2470 H2461 0.929 . S
C2470 C2462 1.378 . S
C2470 C2465 1.350 . S
C2471 H2458 0.929 . S
C2471 C2463 1.433 . S
C2471 N2473 1.384 . S
N2472 C2468 1.427 . S
N2472 C2469 1.384 . S
N2473 C2465 1.427 . S
N2473 C2471 1.384 . S
H2474 C2480 0.930 . S
H2475 C2484 0.930 . S
H2476 C2489 0.929 . S
H2477 C2487 0.929 . S
H2478 C2482 0.929 . S
H2479 C2488 0.929 . S
C2480 H2474 0.930 . S
C2480 C2481 1.367 . S
C2480 C2488 1.378 . S
C2481 C2480 1.367 . S
C2481 C2489 1.433 . S
C2482 H2478 0.929 . S
C2482 C2484 1.378 . S
C2482 C2486 1.350 . S
C2483 C2486 1.463 . S
C2483 C2488 1.350 . S
C2483 N2491 1.427 . S
C2484 H2475 0.930 . S
C2484 C2482 1.378 . S
C2484 C2485 1.367 . S
C2485 C2484 1.367 . S
C2485 C2487 1.433 . S
C2486 C2482 1.350 . S
C2486 C2483 1.463 . S
C2486 N2490 1.427 . S
C2487 H2477 0.929 . S
C2487 C2485 1.433 . S
C2487 N2490 1.384 . S
C2488 H2479 0.929 . S
C2488 C2480 1.378 . S
C2488 C2483 1.350 . S
C2489 H2476 0.929 . S
C2489 C2481 1.433 . S
C2489 N2491 1.384 . S
N2490 C2486 1.427 . S
N2490 C2487 1.384 . S
N2491 C2483 1.427 . S
N2491 C2489 1.384 . S
H2492 C2498 0.930 . S
H2493 C2502 0.930 . S
H2494 C2507 0.929 . S
H2495 C2505 0.929 . S
H2496 C2500 0.929 . S
H2497 C2506 0.929 . S
C2498 H2492 0.930 . S
C2498 C2499 1.367 . S
C2498 C2506 1.378 . S
C2499 C2498 1.367 . S
C2499 C2507 1.433 . S
C2500 H2496 0.929 . S
C2500 C2502 1.378 . S
C2500 C2504 1.350 . S
C2501 C2504 1.463 . S
C2501 C2506 1.350 . S
C2501 N2509 1.427 . S
C2502 H2493 0.930 . S
C2502 C2500 1.378 . S
C2502 C2503 1.367 . S
C2503 C2502 1.367 . S
C2503 C2505 1.433 . S
C2504 C2500 1.350 . S
C2504 C2501 1.463 . S
C2504 N2508 1.427 . S
C2505 H2495 0.929 . S
C2505 C2503 1.433 . S
C2505 N2508 1.384 . S
C2506 H2497 0.929 . S
C2506 C2498 1.378 . S
C2506 C2501 1.350 . S
C2507 H2494 0.929 . S
C2507 C2499 1.433 . S
C2507 N2509 1.384 . S
N2508 C2504 1.427 . S
N2508 C2505 1.384 . S
N2509 C2501 1.427 . S
N2509 C2507 1.384 . S
H2510 C2516 0.930 . S
H2511 C2520 0.930 . S
H2512 C2525 0.929 . S
H2513 C2523 0.929 . S
H2514 C2518 0.929 . S
H2515 C2524 0.929 . S
C2516 H2510 0.930 . S
C2516 C2517 1.367 . S
C2516 C2524 1.378 . S
C2517 C2516 1.367 . S
C2517 C2525 1.433 . S
C2518 H2514 0.929 . S
C2518 C2520 1.378 . S
C2518 C2522 1.350 . S
C2519 C2522 1.463 . S
C2519 C2524 1.350 . S
C2519 N2527 1.427 . S
C2520 H2511 0.930 . S
C2520 C2518 1.378 . S
C2520 C2521 1.367 . S
C2521 C2520 1.367 . S
C2521 C2523 1.433 . S
C2522 C2518 1.350 . S
C2522 C2519 1.463 . S
C2522 N2526 1.427 . S
C2523 H2513 0.929 . S
C2523 C2521 1.433 . S
C2523 N2526 1.384 . S
C2524 H2515 0.929 . S
C2524 C2516 1.378 . S
C2524 C2519 1.350 . S
C2525 H2512 0.929 . S
C2525 C2517 1.433 . S
C2525 N2527 1.384 . S
N2526 C2522 1.427 . S
N2526 C2523 1.384 . S
N2527 C2519 1.427 . S
N2527 C2525 1.384 . S
C1095 C417 0.549 . S
C1099 C9 0.549 . S
C1113 C723 0.541 . S
C1117 C43 0.541 . S
C1131 C213 0.525 . S
C1135 C77 0.525 . S
C1149 C1063 0.522 . S
C1153 C111 0.522 . S
C1167 C281 0.552 . S
C1171 C145 0.552 . S
C1185 C587 0.528 . S
C1189 C179 0.528 . S
C1203 C247 0.525 . S
C1207 C927 0.525 . S
C1221 C315 0.523 . S
C1225 C995 0.523 . S
C1239 C485 0.554 . S
C1243 C349 0.554 . S
C1257 C383 0.545 . S
C1261 C791 0.545 . S
C1275 C859 0.545 . S
C1279 C451 0.545 . S
C1293 C519 0.551 . S
C1297 C655 0.551 . S
C1311 C961 0.528 . S
C1315 C553 0.528 . S
C1329 C757 0.534 . S
C1333 C621 0.534 . S
C1347 C689 0.537 . S
C1351 C825 0.537 . S
C1365 C1029 0.526 . S
C1369 C893 0.526 . S
C1383 C5 0.424 . S
C1387 C73 0.413 . S
C1401 C39 0.376 . S
C1405 C107 0.384 . S
C1419 C209 0.384 . S
C1423 C141 0.376 . S
C1437 C243 0.419 . S
C1441 C175 0.425 . S
C1455 C277 0.376 . S
C1459 C345 0.387 . S
C1473 C379 0.420 . S
C1477 C311 0.403 . S
C1491 C481 0.382 . S
C1495 C413 0.400 . S
C1509 C515 0.389 . S
C1513 C447 0.377 . S
C1527 C549 0.394 . S
C1531 C617 0.413 . S
C1545 C651 0.416 . S
C1549 C583 0.398 . S
C1563 C753 0.411 . S
C1567 C685 0.392 . S
C1581 C787 0.382 . S
C1585 C719 0.376 . S
C1599 C821 0.378 . S
C1603 C889 0.377 . S
C1617 C923 0.377 . S
C1621 C855 0.390 . S
C1635 C957 0.415 . S
C1639 C1025 0.425 . S
C1653 C1059 0.389 . S
C1657 C991 0.377 . S
C1671 C33 1.516 . S
C1675 C67 1.516 . S
C1689 C135 1.515 . S
C1693 C101 1.515 . S
C1707 C203 1.517 . S
C1711 C169 1.516 . S
C1725 C237 1.519 . S
C1729 C271 1.519 . S
C1743 C305 1.518 . S
C1747 C339 1.518 . S
C1761 C373 1.517 . S
C1765 C407 1.517 . S
C1779 C475 1.518 . S
C1783 C441 1.517 . S
C1797 C543 1.517 . S
C1801 C509 1.516 . S
C1815 C577 1.519 . S
C1819 C611 1.519 . S
C1833 C679 1.514 . S
C1837 C645 1.514 . S
C1851 C747 1.519 . S
C1855 C713 1.518 . S
C1869 C815 1.519 . S
C1873 C781 1.518 . S
C1887 C883 1.518 . S
C1891 C849 1.518 . S
C1905 C951 1.518 . S
C1909 C917 1.518 . S
C1923 C985 1.515 . S
C1927 C1019 1.515 . S
C1941 C1087 1.519 . S
C1945 C1053 1.519 . S
C1959 C2 2.399 . S
C1963 C224 2.396 1_545 S
C1977 C1074 2.396 . S
C1981 C36 2.398 . S
C1995 C428 2.396 1_556 S
C1999 C70 2.400 . S
C2013 C104 2.399 . S
C2017 C734 2.396 1_546 S
C2031 C88 2.396 1_565 S
C2035 C138 2.398 . S
C2049 C938 2.397 . S
C2053 C172 2.402 . S
C2067 C292 2.396 1_554 S
C2071 C206 2.399 . S
C2085 C598 2.396 1_564 S
C2089 C240 2.400 . S
C2103 C496 2.396 . S
C2107 C274 2.401 . S
C2121 C802 2.399 . S
C2125 C308 2.402 . S
C2139 C156 2.398 . S
C2143 C342 2.399 . S
C2157 C1006 2.400 . S
C2161 C376 2.401 . S
C2175 C410 2.401 . S
C2179 C360 2.400 . S
C2193 C666 2.396 . S
C2197 C444 2.398 . S
C2211 C20 2.398 . S
C2215 C478 2.399 . S
C2229 C870 2.396 . S
C2233 C512 2.398 . S
C2247 C768 2.400 1_545 S
C2251 C546 2.403 . S
C2265 C580 2.402 . S
C2269 C530 2.400 . S
C2283 C972 2.396 . S
C2287 C614 2.400 . S
C2301 C648 2.403 . S
C2305 C190 2.399 1_545 S
C2319 C632 2.400 1_565 S
C2323 C682 2.401 . S
C2337 C716 2.401 . S
C2341 C394 2.400 . S
C2355 C750 2.402 . S
C2359 C836 2.398 . S
C2373 C784 2.399 . S
C2377 C54 2.396 1_565 S
C2391 C818 2.399 . S
C2395 C1040 2.398 . S
C2409 C852 2.399 . S
C2413 C258 2.397 . S
C2427 C886 2.401 . S
C2431 C700 2.400 1_556 S
C2445 C920 2.403 . S
C2449 C462 2.400 1_556 S
C2463 C954 2.401 . S
C2467 C904 2.400 . S
C2481 C122 2.398 . S
C2485 C988 2.402 . S
C2499 C1022 2.402 . S
C2503 C564 2.398 1_554 S
C2517 C326 2.399 1_554 S
C2521 C1056 2.402 . S
