# Generated by pormake.
# Topology wip, (6)-cn, num edge types: 1
# Building blocks:
#     Node 0, Type 0, BuildingBlock: BETDIP_clean_sbu_0, # of connection points: 6
#     Node 1, Type 0, BuildingBlock: BETDIP_clean_sbu_0, # of connection points: 6
#     Node 2, Type 0, BuildingBlock: BETDIP_clean_sbu_0, # of connection points: 6
#     Node 3, Type 0, BuildingBlock: BETDIP_clean_sbu_0, # of connection points: 6
#     Node 4, Type 0, BuildingBlock: BETDIP_clean_sbu_0, # of connection points: 6
#     Node 5, Type 0, BuildingBlock: BETDIP_clean_sbu_0, # of connection points: 6
#     Node 6, Type 0, BuildingBlock: BETDIP_clean_sbu_0, # of connection points: 6
#     Node 7, Type 0, BuildingBlock: BETDIP_clean_sbu_0, # of connection points: 6
#     Node 8, Type 0, BuildingBlock: BETDIP_clean_sbu_0, # of connection points: 6
#     Node 9, Type 0, BuildingBlock: BETDIP_clean_sbu_0, # of connection points: 6
#     Node 10, Type 0, BuildingBlock: BETDIP_clean_sbu_0, # of connection points: 6
#     Node 11, Type 0, BuildingBlock: BETDIP_clean_sbu_0, # of connection points: 6
#     Node 12, Type 0, BuildingBlock: BETDIP_clean_sbu_0, # of connection points: 6
#     Node 13, Type 0, BuildingBlock: BETDIP_clean_sbu_0, # of connection points: 6
#     Node 14, Type 0, BuildingBlock: BETDIP_clean_sbu_0, # of connection points: 6
#     Node 15, Type 0, BuildingBlock: BETDIP_clean_sbu_0, # of connection points: 6
#     Node 16, Type 0, BuildingBlock: BETDIP_clean_sbu_0, # of connection points: 6
#     Node 17, Type 0, BuildingBlock: BETDIP_clean_sbu_0, # of connection points: 6
#     Node 18, Type 0, BuildingBlock: BETDIP_clean_sbu_0, # of connection points: 6
#     Node 19, Type 0, BuildingBlock: BETDIP_clean_sbu_0, # of connection points: 6
#     Node 20, Type 0, BuildingBlock: BETDIP_clean_sbu_0, # of connection points: 6
#     Node 21, Type 0, BuildingBlock: BETDIP_clean_sbu_0, # of connection points: 6
#     Node 22, Type 0, BuildingBlock: BETDIP_clean_sbu_0, # of connection points: 6
#     Node 23, Type 0, BuildingBlock: BETDIP_clean_sbu_0, # of connection points: 6
#     Node 24, Type 0, BuildingBlock: BETDIP_clean_sbu_0, # of connection points: 6
#     Node 25, Type 0, BuildingBlock: BETDIP_clean_sbu_0, # of connection points: 6
#     Node 26, Type 0, BuildingBlock: BETDIP_clean_sbu_0, # of connection points: 6
#     Node 27, Type 0, BuildingBlock: BETDIP_clean_sbu_0, # of connection points: 6
#     Node 28, Type 0, BuildingBlock: BETDIP_clean_sbu_0, # of connection points: 6
#     Node 29, Type 0, BuildingBlock: BETDIP_clean_sbu_0, # of connection points: 6
#     Node 30, Type 0, BuildingBlock: BETDIP_clean_sbu_0, # of connection points: 6
#     Node 31, Type 0, BuildingBlock: BETDIP_clean_sbu_0, # of connection points: 6
#     Edge 32, Type (0, 0), BuildingBlock: AJUNOK_clean_linker_0, # of connection points: 2
#     Edge 33, Type (0, 0), BuildingBlock: AJUNOK_clean_linker_0, # of connection points: 2
#     Edge 34, Type (0, 0), BuildingBlock: AJUNOK_clean_linker_0, # of connection points: 2
#     Edge 35, Type (0, 0), BuildingBlock: AJUNOK_clean_linker_0, # of connection points: 2
#     Edge 36, Type (0, 0), BuildingBlock: AJUNOK_clean_linker_0, # of connection points: 2
#     Edge 37, Type (0, 0), BuildingBlock: AJUNOK_clean_linker_0, # of connection points: 2
#     Edge 38, Type (0, 0), BuildingBlock: AJUNOK_clean_linker_0, # of connection points: 2
#     Edge 39, Type (0, 0), BuildingBlock: AJUNOK_clean_linker_0, # of connection points: 2
#     Edge 40, Type (0, 0), BuildingBlock: AJUNOK_clean_linker_0, # of connection points: 2
#     Edge 41, Type (0, 0), BuildingBlock: AJUNOK_clean_linker_0, # of connection points: 2
#     Edge 42, Type (0, 0), BuildingBlock: AJUNOK_clean_linker_0, # of connection points: 2
#     Edge 43, Type (0, 0), BuildingBlock: AJUNOK_clean_linker_0, # of connection points: 2
#     Edge 44, Type (0, 0), BuildingBlock: AJUNOK_clean_linker_0, # of connection points: 2
#     Edge 45, Type (0, 0), BuildingBlock: AJUNOK_clean_linker_0, # of connection points: 2
#     Edge 46, Type (0, 0), BuildingBlock: AJUNOK_clean_linker_0, # of connection points: 2
#     Edge 47, Type (0, 0), BuildingBlock: AJUNOK_clean_linker_0, # of connection points: 2
#     Edge 48, Type (0, 0), BuildingBlock: AJUNOK_clean_linker_0, # of connection points: 2
#     Edge 49, Type (0, 0), BuildingBlock: AJUNOK_clean_linker_0, # of connection points: 2
#     Edge 50, Type (0, 0), BuildingBlock: AJUNOK_clean_linker_0, # of connection points: 2
#     Edge 51, Type (0, 0), BuildingBlock: AJUNOK_clean_linker_0, # of connection points: 2
#     Edge 52, Type (0, 0), BuildingBlock: AJUNOK_clean_linker_0, # of connection points: 2
#     Edge 53, Type (0, 0), BuildingBlock: AJUNOK_clean_linker_0, # of connection points: 2
#     Edge 54, Type (0, 0), BuildingBlock: AJUNOK_clean_linker_0, # of connection points: 2
#     Edge 55, Type (0, 0), BuildingBlock: AJUNOK_clean_linker_0, # of connection points: 2
#     Edge 56, Type (0, 0), BuildingBlock: AJUNOK_clean_linker_0, # of connection points: 2
#     Edge 57, Type (0, 0), BuildingBlock: AJUNOK_clean_linker_0, # of connection points: 2
#     Edge 58, Type (0, 0), BuildingBlock: AJUNOK_clean_linker_0, # of connection points: 2
#     Edge 59, Type (0, 0), BuildingBlock: AJUNOK_clean_linker_0, # of connection points: 2
#     Edge 60, Type (0, 0), BuildingBlock: AJUNOK_clean_linker_0, # of connection points: 2
#     Edge 61, Type (0, 0), BuildingBlock: AJUNOK_clean_linker_0, # of connection points: 2
#     Edge 62, Type (0, 0), BuildingBlock: AJUNOK_clean_linker_0, # of connection points: 2
#     Edge 63, Type (0, 0), BuildingBlock: AJUNOK_clean_linker_0, # of connection points: 2
#     Edge 64, Type (0, 0), BuildingBlock: AJUNOK_clean_linker_0, # of connection points: 2
#     Edge 65, Type (0, 0), BuildingBlock: AJUNOK_clean_linker_0, # of connection points: 2
#     Edge 66, Type (0, 0), BuildingBlock: AJUNOK_clean_linker_0, # of connection points: 2
#     Edge 67, Type (0, 0), BuildingBlock: AJUNOK_clean_linker_0, # of connection points: 2
#     Edge 68, Type (0, 0), BuildingBlock: AJUNOK_clean_linker_0, # of connection points: 2
#     Edge 69, Type (0, 0), BuildingBlock: AJUNOK_clean_linker_0, # of connection points: 2
#     Edge 70, Type (0, 0), BuildingBlock: AJUNOK_clean_linker_0, # of connection points: 2
#     Edge 71, Type (0, 0), BuildingBlock: AJUNOK_clean_linker_0, # of connection points: 2
#     Edge 72, Type (0, 0), BuildingBlock: AJUNOK_clean_linker_0, # of connection points: 2
#     Edge 73, Type (0, 0), BuildingBlock: AJUNOK_clean_linker_0, # of connection points: 2
#     Edge 74, Type (0, 0), BuildingBlock: AJUNOK_clean_linker_0, # of connection points: 2
#     Edge 75, Type (0, 0), BuildingBlock: AJUNOK_clean_linker_0, # of connection points: 2
#     Edge 76, Type (0, 0), BuildingBlock: AJUNOK_clean_linker_0, # of connection points: 2
#     Edge 77, Type (0, 0), BuildingBlock: AJUNOK_clean_linker_0, # of connection points: 2
#     Edge 78, Type (0, 0), BuildingBlock: AJUNOK_clean_linker_0, # of connection points: 2
#     Edge 79, Type (0, 0), BuildingBlock: AJUNOK_clean_linker_0, # of connection points: 2
#     Edge 80, Type (0, 0), BuildingBlock: AJUNOK_clean_linker_0, # of connection points: 2
#     Edge 81, Type (0, 0), BuildingBlock: AJUNOK_clean_linker_0, # of connection points: 2
#     Edge 82, Type (0, 0), BuildingBlock: AJUNOK_clean_linker_0, # of connection points: 2
#     Edge 83, Type (0, 0), BuildingBlock: AJUNOK_clean_linker_0, # of connection points: 2
#     Edge 84, Type (0, 0), BuildingBlock: AJUNOK_clean_linker_0, # of connection points: 2
#     Edge 85, Type (0, 0), BuildingBlock: AJUNOK_clean_linker_0, # of connection points: 2
#     Edge 86, Type (0, 0), BuildingBlock: AJUNOK_clean_linker_0, # of connection points: 2
#     Edge 87, Type (0, 0), BuildingBlock: AJUNOK_clean_linker_0, # of connection points: 2
#     Edge 88, Type (0, 0), BuildingBlock: AJUNOK_clean_linker_0, # of connection points: 2
#     Edge 89, Type (0, 0), BuildingBlock: AJUNOK_clean_linker_0, # of connection points: 2
#     Edge 90, Type (0, 0), BuildingBlock: AJUNOK_clean_linker_0, # of connection points: 2
#     Edge 91, Type (0, 0), BuildingBlock: AJUNOK_clean_linker_0, # of connection points: 2
#     Edge 92, Type (0, 0), BuildingBlock: AJUNOK_clean_linker_0, # of connection points: 2
#     Edge 93, Type (0, 0), BuildingBlock: AJUNOK_clean_linker_0, # of connection points: 2
#     Edge 94, Type (0, 0), BuildingBlock: AJUNOK_clean_linker_0, # of connection points: 2
#     Edge 95, Type (0, 0), BuildingBlock: AJUNOK_clean_linker_0, # of connection points: 2
#     Edge 96, Type (0, 0), BuildingBlock: AJUNOK_clean_linker_0, # of connection points: 2
#     Edge 97, Type (0, 0), BuildingBlock: AJUNOK_clean_linker_0, # of connection points: 2
#     Edge 98, Type (0, 0), BuildingBlock: AJUNOK_clean_linker_0, # of connection points: 2
#     Edge 99, Type (0, 0), BuildingBlock: AJUNOK_clean_linker_0, # of connection points: 2
#     Edge 100, Type (0, 0), BuildingBlock: AJUNOK_clean_linker_0, # of connection points: 2
#     Edge 101, Type (0, 0), BuildingBlock: AJUNOK_clean_linker_0, # of connection points: 2
#     Edge 102, Type (0, 0), BuildingBlock: AJUNOK_clean_linker_0, # of connection points: 2
#     Edge 103, Type (0, 0), BuildingBlock: AJUNOK_clean_linker_0, # of connection points: 2
#     Edge 104, Type (0, 0), BuildingBlock: AJUNOK_clean_linker_0, # of connection points: 2
#     Edge 105, Type (0, 0), BuildingBlock: AJUNOK_clean_linker_0, # of connection points: 2
#     Edge 106, Type (0, 0), BuildingBlock: AJUNOK_clean_linker_0, # of connection points: 2
#     Edge 107, Type (0, 0), BuildingBlock: AJUNOK_clean_linker_0, # of connection points: 2
#     Edge 108, Type (0, 0), BuildingBlock: AJUNOK_clean_linker_0, # of connection points: 2
#     Edge 109, Type (0, 0), BuildingBlock: AJUNOK_clean_linker_0, # of connection points: 2
#     Edge 110, Type (0, 0), BuildingBlock: AJUNOK_clean_linker_0, # of connection points: 2
#     Edge 111, Type (0, 0), BuildingBlock: AJUNOK_clean_linker_0, # of connection points: 2
#     Edge 112, Type (0, 0), BuildingBlock: AJUNOK_clean_linker_0, # of connection points: 2
#     Edge 113, Type (0, 0), BuildingBlock: AJUNOK_clean_linker_0, # of connection points: 2
#     Edge 114, Type (0, 0), BuildingBlock: AJUNOK_clean_linker_0, # of connection points: 2
#     Edge 115, Type (0, 0), BuildingBlock: AJUNOK_clean_linker_0, # of connection points: 2
#     Edge 116, Type (0, 0), BuildingBlock: AJUNOK_clean_linker_0, # of connection points: 2
#     Edge 117, Type (0, 0), BuildingBlock: AJUNOK_clean_linker_0, # of connection points: 2
#     Edge 118, Type (0, 0), BuildingBlock: AJUNOK_clean_linker_0, # of connection points: 2
#     Edge 119, Type (0, 0), BuildingBlock: AJUNOK_clean_linker_0, # of connection points: 2
#     Edge 120, Type (0, 0), BuildingBlock: AJUNOK_clean_linker_0, # of connection points: 2
#     Edge 121, Type (0, 0), BuildingBlock: AJUNOK_clean_linker_0, # of connection points: 2
#     Edge 122, Type (0, 0), BuildingBlock: AJUNOK_clean_linker_0, # of connection points: 2
#     Edge 123, Type (0, 0), BuildingBlock: AJUNOK_clean_linker_0, # of connection points: 2
#     Edge 124, Type (0, 0), BuildingBlock: AJUNOK_clean_linker_0, # of connection points: 2
#     Edge 125, Type (0, 0), BuildingBlock: AJUNOK_clean_linker_0, # of connection points: 2
#     Edge 126, Type (0, 0), BuildingBlock: AJUNOK_clean_linker_0, # of connection points: 2
#     Edge 127, Type (0, 0), BuildingBlock: AJUNOK_clean_linker_0, # of connection points: 2
# Relax obj value: 0.611
# Max RMSD: 0.229
# Mean RMSD: 0.229
data_MOF--net-wip--node1-BETDIP_clean_sbu_0--edge1-AJUNOK_clean_linker_0
_symmetry_space_group_name_H-M    P1
_symmetry_Int_Tables_number       1
_symmetry_cell_setting            triclinic
loop_
_symmetry_equiv_pos_as_xyz
'x, y, z'
_cell_length_a     46.566521
_cell_length_b     46.582759
_cell_length_c     25.276266
_cell_angle_alpha  89.864658
_cell_angle_beta   89.95235
_cell_angle_gamma 89.996648
loop_
_atom_site_label
_atom_site_type_symbol
_atom_site_fract_x
_atom_site_fract_y
_atom_site_fract_z
_atom_type_partial_charge
Tb0 Tb 0.08853 0.42971 0.22629 0.0
Tb1 Tb 0.11087 0.48459 0.26831 0.0
C2 C 0.06045 0.39724 0.16616 0.0
C3 C 0.04288 0.4054 0.11913 0.0
C4 C 0.0355 0.43432 0.10999 0.0
C5 C 0.01839 0.44225 1.06664 0.0
C6 C 0.00846 0.42151 1.03073 0.0
C7 C 0.01632 0.39261 1.0393 0.0
C8 C 0.03318 0.38464 0.08316 0.0
C9 C 0.12851 0.41852 0.30004 0.0
C10 C 0.1129 0.47752 0.14283 0.0
C11 C 0.13714 0.52721 0.30617 0.0
C12 C 0.15585 0.53814 0.3484 0.0
C13 C 0.1853 0.5322 0.34836 0.0
C14 C 0.20066 0.5336 0.3955 0.0
C15 C 0.18706 0.54378 0.44152 0.0
C16 C 0.16112 0.55912 0.43501 0.0
C17 C 0.14462 0.55461 0.38975 0.0
C18 C 0.0577 0.48882 0.22688 0.0
C19 C 0.07086 0.44583 0.34261 0.0
O20 O 0.0508 0.40644 0.21169 0.0
O21 O 0.08832 0.40094 0.16194 0.0
O22 O 0.12891 0.44078 0.26832 0.0
O23 O 0.11026 0.40055 0.28004 0.0
O24 O 0.09945 0.45307 0.15194 0.0
O25 O 0.12245 0.49238 0.1838 0.0
O26 O 0.14848 0.50866 0.27329 0.0
O27 O 0.11065 0.52046 0.31872 0.0
O28 O 0.07 0.46857 0.24951 0.0
O29 O 0.07709 0.50862 0.22561 0.0
O30 O 0.09162 0.4657 0.3412 0.0
O31 O 0.06302 0.43206 0.29881 0.0
H32 H 0.04295 0.45091 0.13648 0.0
H33 H 0.01331 0.46472 1.06073 0.0
H34 H 0.00913 0.3761 1.01227 0.0
H35 H 0.03862 0.36224 0.08898 0.0
H36 H 0.19568 0.52419 0.31328 0.0
H37 H 0.22148 0.52344 0.39629 0.0
H38 H 0.15138 0.57043 0.46782 0.0
H39 H 0.12269 0.56236 0.38858 0.0
Tb40 Tb 0.82187 0.83086 0.47593 0.0
Tb41 Tb 0.76861 0.85478 0.51486 0.0
C42 C 0.85652 0.8043 0.41842 0.0
C43 C 0.85033 0.78742 0.36949 0.0
C44 C 0.85328 0.75736 0.36968 0.0
C45 C 0.84431 0.74087 0.32625 0.0
C46 C 0.83206 0.75402 0.28139 0.0
C47 C 0.82981 0.78416 0.28067 0.0
C48 C 0.83879 0.80061 0.32401 0.0
C49 C 0.8332 0.87035 0.55169 0.0
C50 C 0.77583 0.85374 0.39003 0.0
C51 C 0.72675 0.8848 0.5438 0.0
C52 C 0.71585 0.90857 0.57509 0.0
C53 C 0.73344 0.93184 0.5876 0.0
C54 C 0.72391 0.95207 0.62384 0.0
C55 C 0.69818 0.94732 0.65131 0.0
C56 C 0.67793 0.92856 0.629 0.0
C57 C 0.68714 0.90842 0.59186 0.0
C58 C 0.76165 0.80092 0.47674 0.0
C59 C 0.80479 0.81355 0.59102 0.0
O60 O 0.84599 0.79353 0.46227 0.0
O61 O 0.85311 0.83234 0.41583 0.0
O62 O 0.81228 0.87207 0.51741 0.0
O63 O 0.85016 0.85056 0.53404 0.0
O64 O 0.79714 0.83615 0.40095 0.0
O65 O 0.7643 0.86788 0.42994 0.0
O66 O 0.7446 0.8919 0.50608 0.0
O67 O 0.73416 0.86098 0.56804 0.0
O68 O 0.78255 0.81261 0.49836 0.0
O69 O 0.74264 0.82105 0.47588 0.0
O70 O 0.78597 0.8354 0.58966 0.0
O71 O 0.81769 0.80501 0.5469 0.0
H72 H 0.86211 0.7465 0.40396 0.0
H73 H 0.84719 0.71782 0.32768 0.0
H74 H 0.82053 0.79506 0.24687 0.0
H75 H 0.83603 0.82367 0.32214 0.0
H76 H 0.75515 0.93312 0.57255 0.0
H77 H 0.73874 0.96829 0.63672 0.0
H78 H 0.6571 0.92569 0.64741 0.0
H79 H 0.67267 0.89146 0.57974 0.0
Tb80 Tb 0.42111 0.5744 0.72145 0.0
Tb81 Tb 0.39474 0.5243 0.77062 0.0
C82 C 0.44898 0.60687 0.66077 0.0
C83 C 0.46685 0.59986 0.61416 0.0
C84 C 0.47548 0.57137 0.60477 0.0
C85 C 0.49275 0.56461 0.5612 0.0
C86 C 0.50129 0.58612 0.52555 0.0
C87 C 0.49257 0.61461 0.53485 0.0
C88 C 0.47558 0.62143 0.57891 0.0
C89 C 0.37935 0.59096 0.79019 0.0
C90 C 0.39711 0.52394 0.64348 0.0
C91 C 0.36119 0.49088 0.81932 0.0
C92 C 0.34118 0.49448 0.8641 0.0
C93 C 0.31284 0.50312 0.85412 0.0
C94 C 0.29825 0.51947 0.8912 0.0
C95 C 0.31314 0.5294 0.93539 0.0
C96 C 0.34145 0.51886 0.94978 0.0
C97 C 0.35225 0.49693 0.9154 0.0
C98 C 0.44761 0.51249 0.73356 0.0
C99 C 0.43869 0.5629 0.83897 0.0
O100 O 0.45884 0.59739 0.70597 0.0
O101 O 0.4213 0.60231 0.65582 0.0
O102 O 0.37883 0.56817 0.76049 0.0
O103 O 0.40078 0.60594 0.77306 0.0
O104 O 0.41252 0.54758 0.6495 0.0
O105 O 0.38523 0.51226 0.68627 0.0
O106 O 0.35425 0.50531 0.77664 0.0
O107 O 0.38868 0.49325 0.82988 0.0
O108 O 0.43755 0.53538 0.75151 0.0
O109 O 0.42661 0.49435 0.73707 0.0
O110 O 0.41583 0.54536 0.84082 0.0
O111 O 0.44765 0.5733 0.79287 0.0
H112 H 0.46876 0.55427 0.63105 0.0
H113 H 0.49891 0.54246 0.55468 0.0
H114 H 0.49896 0.63162 0.508 0.0
H115 H 0.46919 0.64351 0.58534 0.0
H116 H 0.30301 0.49954 0.81586 0.0
H117 H 0.27672 0.52693 0.88273 0.0
H118 H 0.3628 0.54672 1.02595 0.0
H119 H 0.37228 0.48599 0.92382 0.0
Tb120 Tb 0.68027 0.16832 0.97444 0.0
Tb121 Tb 0.73437 0.14539 1.01971 0.0
C122 C 0.64735 0.19633 0.91507 0.0
C123 C 0.65502 0.21334 0.86739 0.0
C124 C 0.68402 0.21932 0.85605 0.0
C125 C 0.69164 0.23645 0.81265 0.0
C126 C 0.67045 0.24742 0.7788 0.0
C127 C 0.64143 0.24112 0.78959 0.0
C128 C 0.63377 0.22439 0.83375 0.0
C129 C 0.66932 0.12903 1.05017 0.0
C130 C 0.72924 0.14347 0.89347 0.0
C131 C 0.7722 0.11478 1.06211 0.0
C132 C 0.7789 0.09649 0.10776 0.0
C133 C 0.7828 0.10845 0.15777 0.0
C134 C 0.78892 0.09091 0.20064 0.0
C135 C 0.79254 0.06098 0.19449 0.0
C136 C 0.78992 0.04917 0.14373 0.0
C137 C 0.78304 0.06688 0.10077 0.0
C138 C 0.74088 0.19776 0.9767 0.0
C139 C 0.69624 0.18833 0.08962 0.0
O140 O 0.65768 0.20635 0.95945 0.0
O141 O 0.65058 0.16839 0.91153 0.0
O142 O 0.69082 0.12859 1.01746 0.0
O143 O 0.65119 0.14732 1.03063 0.0
O144 O 0.70398 0.15593 0.90069 0.0
O145 O 0.74402 0.13499 0.93551 0.0
O146 O 0.75306 0.10489 1.02878 0.0
O147 O 0.76972 0.14251 1.07016 0.0
O148 O 0.71956 0.18629 0.99788 0.0
O149 O 0.76045 0.17799 0.97845 0.0
O150 O 0.71605 0.1675 0.09035 0.0
O151 O 0.68256 0.19502 1.04512 0.0
H152 H 0.70089 0.21088 0.88102 0.0
H153 H 0.71414 0.24064 0.80489 0.0
H154 H 0.62468 0.24925 0.76389 0.0
H155 H 0.6113 0.2201 0.84157 0.0
H156 H 0.7802 0.13127 0.16441 0.0
H157 H 0.7898 0.10102 0.23912 0.0
H158 H 0.79309 0.02646 0.13705 0.0
H159 H 0.78074 0.0575 1.06193 0.0
Tb160 Tb 0.08757 0.57068 0.83446 0.0
Tb161 Tb 0.11249 0.51775 0.79177 0.0
C162 C 0.05605 0.60281 0.88881 0.0
C163 C 0.03889 0.59662 0.93744 0.0
C164 C 0.00892 0.59289 0.93392 0.0
C165 C 0.99264 0.58532 0.97857 0.0
C166 C 0.00587 0.58165 1.02804 0.0
C167 C 0.03583 0.58521 1.0316 0.0
C168 C 0.05214 0.5926 0.98693 0.0
C169 C 0.1273 0.5841 0.76042 0.0
C170 C 0.11286 0.52428 0.91822 0.0
C171 C 0.1436 0.47826 0.75582 0.0
C172 C 0.16421 0.47048 0.71438 0.0
C173 C 0.19216 0.48178 0.71414 0.0
C174 C 0.20873 0.48001 0.66839 0.0
C175 C 0.19642 0.46873 0.62242 0.0
C176 C 0.17254 0.45046 0.6277 0.0
C177 C 0.15578 0.45216 0.67328 0.0
C178 C 0.05927 0.51019 0.83203 0.0
C179 C 0.0707 0.55391 0.71759 0.0
O180 O 0.04732 0.58972 0.84604 0.0
O181 O 0.08421 0.6027 0.89286 0.0
O182 O 0.12876 0.56203 0.79231 0.0
O183 O 0.10764 0.60048 0.78038 0.0
O184 O 0.0996 0.54893 0.90997 0.0
O185 O 0.12217 0.50954 0.87687 0.0
O186 O 0.1522 0.49727 0.79061 0.0
O187 O 0.11683 0.48232 0.74132 0.0
O188 O 0.07062 0.53129 0.81028 0.0
O189 O 0.07959 0.49129 0.83213 0.0
O190 O 0.09242 0.5351 0.71822 0.0
O191 O 0.0628 0.56734 0.76156 0.0
H192 H 0.99802 0.59563 0.89639 0.0
H193 H 0.96961 0.58286 0.97461 0.0
H194 H 0.04672 0.58214 1.06905 0.0
H195 H 0.07517 0.5949 0.99123 0.0
H196 H 0.2002 0.49399 0.7473 0.0
H197 H 0.22864 0.49187 0.66661 0.0
H198 H 0.16344 0.44013 0.59322 0.0
H199 H 0.13506 0.44157 0.67412 0.0
Tb200 Tb 0.67806 0.82891 0.08497 0.0
Tb201 Tb 0.7297 0.85823 1.04206 0.0
C202 C 0.64634 0.79843 0.14192 0.0
C203 C 0.65339 0.78149 0.19037 0.0
C204 C 0.65201 0.75129 0.18939 0.0
C205 C 0.66023 0.73493 0.23362 0.0
C206 C 0.66986 0.74839 0.28005 0.0
C207 C 0.67173 0.77856 0.28068 0.0
C208 C 0.66355 0.79489 0.23657 0.0
C209 C 0.66402 0.87054 1.01344 0.0
C210 C 0.72554 0.85452 0.16778 0.0
C211 C 0.76151 0.89342 0.99541 0.0
C212 C 0.75598 0.91372 0.95246 0.0
C213 C 0.73029 0.9295 0.95167 0.0
C214 C 0.72278 0.94518 0.90702 0.0
C215 C 0.74009 0.9442 0.86207 0.0
C216 C 0.76691 0.93053 0.86412 0.0
C217 C 0.77494 0.91541 0.90949 0.0
C218 C 0.74123 0.80555 1.08025 0.0
C219 C 0.69573 0.81236 0.96996 0.0
O220 O 0.65823 0.78912 0.09821 0.0
O221 O 0.64713 0.82663 0.1455 0.0
O222 O 0.68497 0.8711 1.04726 0.0
O223 O 0.64855 0.84866 1.02738 0.0
O224 O 0.70352 0.83726 0.15837 0.0
O225 O 0.73729 0.86861 0.12744 0.0
O226 O 0.74816 0.89898 1.03986 0.0
O227 O 0.76003 0.86626 0.98239 0.0
O228 O 0.71896 0.81584 1.06069 0.0
O229 O 0.7596 0.82648 1.07708 0.0
O230 O 0.7123 0.83591 0.97018 0.0
O231 O 0.68327 0.80326 1.01413 0.0
H232 H 0.64464 0.7403 0.15421 0.0
H233 H 0.65845 0.71177 0.23192 0.0
H234 H 0.67956 0.78959 0.31548 0.0
H235 H 0.66545 0.81802 0.23869 0.0
H236 H 0.71551 0.92885 0.98469 0.0
H237 H 0.70221 0.95578 0.90541 0.0
H238 H 0.78019 0.92911 0.82902 0.0
H239 H 0.79484 0.90336 0.90953 0.0
Tb240 Tb 0.42451 0.42199 0.33929 0.0
Tb241 Tb 0.39769 0.4726 0.29626 0.0
C242 C 0.45365 0.38873 0.39579 0.0
C243 C 0.47103 0.39502 0.44374 0.0
C244 C 0.50123 0.39403 0.44145 0.0
C245 C 0.51793 0.40271 0.48477 0.0
C246 C 0.50474 0.41232 0.5315 0.0
C247 C 0.47456 0.41331 0.53369 0.0
C248 C 0.45793 0.40457 0.49062 0.0
C249 C 0.38467 0.40642 0.26596 0.0
C250 C 0.39924 0.46974 0.42243 0.0
C251 C 0.36502 0.5073 0.25074 0.0
C252 C 0.34604 0.50507 0.20545 0.0
C253 C 0.32059 0.52099 0.20382 0.0
C254 C 0.30321 0.51974 0.15902 0.0
C255 C 0.31116 0.50223 0.11619 0.0
C256 C 0.33402 0.48293 0.12224 0.0
C257 C 0.35246 0.48578 0.16491 0.0
C258 C 0.45062 0.48388 0.3333 0.0
C259 C 0.44054 0.43681 0.22271 0.0
O260 O 0.46328 0.40023 0.35201 0.0
O261 O 0.42557 0.39102 0.39992 0.0
O262 O 0.38256 0.42811 0.29838 0.0
O263 O 0.40585 0.39145 0.28404 0.0
O264 O 0.41614 0.4473 0.41372 0.0
O265 O 0.38604 0.48112 0.38089 0.0
O266 O 0.35727 0.49159 0.2912 0.0
O267 O 0.39256 0.50546 0.24057 0.0
O268 O 0.44067 0.46163 0.31302 0.0
O269 O 0.42933 0.50173 0.33303 0.0
O270 O 0.41765 0.45409 0.22357 0.0
O271 O 0.45028 0.42533 0.26734 0.0
H272 H 0.51196 0.38681 0.40585 0.0
H273 H 0.54111 0.40148 0.48206 0.0
H274 H 0.46374 0.421 0.56887 0.0
H275 H 0.43478 0.40581 0.49389 0.0
H276 H 0.31503 0.53546 0.23574 0.0
H277 H 0.28561 0.53483 0.15553 0.0
H278 H 0.3402 0.46889 0.09011 0.0
H279 H 0.37196 0.47314 0.16587 0.0
Tb280 Tb 0.82164 0.16918 0.58373 0.0
Tb281 Tb 0.77444 0.13684 0.54224 0.0
C282 C 0.85403 0.19912 0.64116 0.0
C283 C 0.84716 0.21601 0.68919 0.0
C284 C 0.81846 0.21944 0.70551 0.0
C285 C 0.81152 0.23726 0.74827 0.0
C286 C 0.83318 0.25167 0.77632 0.0
C287 C 0.86198 0.24752 0.76092 0.0
C288 C 0.86888 0.23005 0.71751 0.0
C289 C 0.8398 0.13139 0.50826 0.0
C290 C 0.7775 0.14192 0.66917 0.0
C291 C 0.74657 0.09261 0.51693 0.0
C292 C 0.75192 0.0679 0.48219 0.0
C293 C 0.77755 0.05218 0.48613 0.0
C294 C 0.78582 0.03401 0.44526 0.0
C295 C 0.76896 0.03172 0.39959 0.0
C296 C 0.74151 0.04425 0.39901 0.0
C297 C 0.73307 0.06237 0.44014 0.0
C298 C 0.75718 0.18936 0.55434 0.0
C299 C 0.80338 0.18499 0.47103 0.0
O300 O 0.84208 0.20847 0.59771 0.0
O301 O 0.85213 0.17112 0.64533 0.0
O302 O 0.81999 0.12738 0.54326 0.0
O303 O 0.85165 0.15539 0.52103 0.0
O304 O 0.80377 0.15164 0.65956 0.0
O305 O 0.76103 0.13585 0.62775 0.0
O306 O 0.76257 0.09447 0.55933 0.0
O307 O 0.744 0.11736 0.49283 0.0
O308 O 0.7758 0.17692 0.5842 0.0
O309 O 0.74535 0.17066 0.52334 0.0
O310 O 0.79118 0.15895 0.46975 0.0
O311 O 0.81218 0.19572 0.5164 0.0
H312 H 0.80131 0.20858 0.68473 0.0
H313 H 0.78923 0.23943 0.75989 0.0
H314 H 0.87917 0.25812 0.78212 0.0
H315 H 0.89114 0.22771 0.70581 0.0
H316 H 0.79241 0.05573 0.51832 0.0
H317 H 0.807 0.02454 0.44624 0.0
H318 H 0.72831 0.04326 0.36377 0.0
H319 H 0.71307 0.07412 0.43661 0.0
Tb320 Tb 0.89796 0.51772 0.29219 0.0
Tb321 Tb 0.9217 0.57086 0.33588 0.0
C322 C 0.86985 0.47839 0.24849 0.0
C323 C 0.85285 0.47335 0.2007 0.0
C324 C 0.82286 0.47541 0.20324 0.0
C325 C 0.80701 0.47895 0.15706 0.0
C326 C 0.82118 0.47971 0.10818 0.0
C327 C 0.85017 0.47135 0.10556 0.0
C328 C 0.86616 0.46877 0.1517 0.0
C329 C 0.95052 0.51095 0.33362 0.0
C330 C 0.93899 0.55598 0.21927 0.0
C331 C 0.95118 0.60344 0.39302 0.0
C332 C 0.96898 0.59588 0.43969 0.0
C333 C 0.97963 0.56776 0.44587 0.0
C334 C 0.99677 0.5604 0.48941 0.0
C335 C 0.00319 0.58087 0.52831 0.0
C336 C 0.99245 0.60898 0.52221 0.0
C337 C 0.97558 0.61643 0.47825 0.0
C338 C 0.88198 0.58326 0.26209 0.0
C339 C 0.89664 0.52285 0.41791 0.0
O340 O 0.85881 0.49672 0.28226 0.0
O341 O 0.89754 0.48208 0.24212 0.0
O342 O 0.93952 0.53198 0.3111 0.0
O343 O 0.93016 0.49213 0.33533 0.0
O344 O 0.91777 0.53665 0.21968 0.0
O345 O 0.94733 0.56837 0.26394 0.0
O346 O 0.96028 0.59287 0.34814 0.0
O347 O 0.92326 0.60068 0.39849 0.0
O348 O 0.88081 0.56144 0.29438 0.0
O349 O 0.9013 0.60032 0.28114 0.0
O350 O 0.91075 0.54714 0.41022 0.0
O351 O 0.88649 0.50895 0.37624 0.0
H352 H 0.8121 0.47685 0.24105 0.0
H353 H 0.78451 0.48426 0.16042 0.0
H354 H 0.86127 0.47042 1.06789 0.0
H355 H 0.88913 0.4655 0.14866 0.0
H356 H 0.97458 0.55137 0.41705 0.0
H357 H 0.00445 0.53855 0.49332 0.0
H358 H 0.99715 0.62523 0.55154 0.0
H359 H 0.96762 0.63819 0.47446 0.0
Tb360 Tb 0.2359 0.14315 1.04231 0.0
Tb361 Tb 0.18375 0.16724 0.08423 0.0
C362 C 0.27563 0.11436 1.00012 0.0
C363 C 0.27612 0.0898 0.96476 0.0
C364 C 0.25231 0.07172 0.96436 0.0
C365 C 0.24809 0.05305 0.92282 0.0
C366 C 0.26784 0.05178 0.88161 0.0
C367 C 0.29361 0.06734 0.88488 0.0
C368 C 0.29772 0.08658 0.92661 0.0
C369 C 0.2444 0.196 0.0824 0.0
C370 C 0.19892 0.18595 0.96981 0.0
C371 C 0.1492 0.19349 0.14281 0.0
C372 C 0.15453 0.21063 0.19167 0.0
C373 C 0.15042 0.24058 0.19117 0.0
C374 C 0.15751 0.25736 0.23538 0.0
C375 C 0.16847 0.24452 0.28152 0.0
C376 C 0.17253 0.21458 0.2821 0.0
C377 C 0.1657 0.19786 0.23782 0.0
C378 C 0.17087 0.12725 1.01005 0.0
C379 C 0.23051 0.14332 0.16692 0.0
O380 O 0.26465 0.10893 1.04658 0.0
O381 O 0.26537 0.13809 0.97988 0.0
O382 O 0.22297 0.18539 1.0607 0.0
O383 O 0.26311 0.17562 0.08136 0.0
O384 O 0.21709 0.16366 0.96976 0.0
O385 O 0.18657 0.19415 1.01451 0.0
O386 O 0.15972 0.20445 0.09916 0.0
O387 O 0.15324 0.16556 0.14558 0.0
O388 O 0.19226 0.12534 1.0433 0.0
O389 O 0.15514 0.14815 1.02691 0.0
O390 O 0.20946 0.16142 0.15733 0.0
O391 O 0.24112 0.12883 0.1264 0.0
H392 H 0.23526 0.07475 0.99259 0.0
H393 H 0.22716 0.04364 0.91794 0.0
H394 H 0.30866 0.06732 0.85216 0.0
H395 H 0.31631 0.10056 0.92652 0.0
H396 H 0.14199 0.2511 0.15622 0.0
H397 H 0.15398 0.28033 0.23381 0.0
H398 H 0.18129 0.20408 0.3168 0.0
H399 H 0.16953 0.17496 0.2397 0.0
Tb400 Tb 0.6114 0.47994 0.79458 0.0
Tb401 Tb 0.58867 0.4262 0.83717 0.0
C402 C 0.64225 0.52047 0.7623 0.0
C403 C 0.66522 0.53001 0.72728 0.0
C404 C 0.68657 0.51099 0.711 0.0
C405 C 0.70591 0.51939 0.6721 0.0
C406 C 0.70229 0.54575 0.64606 0.0
C407 C 0.68538 0.56686 0.67066 0.0
C408 C 0.66617 0.55871 0.71046 0.0
C409 C 0.55764 0.48638 0.83206 0.0
C410 C 0.57111 0.44167 0.72086 0.0
C411 C 0.56022 0.39252 0.89452 0.0
C412 C 0.5424 0.39902 0.94207 0.0
C413 C 0.52637 0.42462 0.94486 0.0
C414 C 0.50919 0.43073 0.98901 0.0
C415 C 0.50794 0.41165 1.0321 0.0
C416 C 0.52463 0.38642 1.03003 0.0
C417 C 0.54153 0.38009 0.98537 0.0
C418 C 0.62924 0.41544 0.76347 0.0
C419 C 0.6116 0.47369 0.92062 0.0
O420 O 0.6499 0.50215 0.79905 0.0
O421 O 0.61712 0.51446 0.74149 0.0
O422 O 0.56955 0.46499 0.81219 0.0
O423 O 0.57772 0.50546 0.83352 0.0
O424 O 0.59178 0.46169 0.72119 0.0
O425 O 0.56337 0.42871 0.76543 0.0
O426 O 0.55069 0.40307 0.8498 0.0
O427 O 0.58809 0.39586 0.8994 0.0
O428 O 0.62945 0.43681 0.79649 0.0
O429 O 0.61041 0.39748 0.78175 0.0
O430 O 0.59855 0.44903 0.91216 0.0
O431 O 0.62083 0.48852 0.87942 0.0
H432 H 0.68697 0.48913 0.7255 0.0
H433 H 0.72037 0.50353 0.65645 0.0
H434 H 0.68338 0.58803 0.65321 0.0
H435 H 0.65072 0.57417 0.7251 0.0
H436 H 0.52721 0.4401 0.91294 0.0
H437 H 0.49726 0.45069 0.98984 0.0
H438 H 0.52435 0.37139 1.06279 0.0
H439 H 0.55392 0.36042 0.98468 0.0
Tb440 Tb 0.26596 0.86131 0.53752 0.0
Tb441 Tb 0.31971 0.83693 0.57966 0.0
C442 C 0.2274 0.8952 0.50841 0.0
C443 C 0.2201 0.91919 0.47429 0.0
C444 C 0.24165 0.93554 0.45076 0.0
C445 C 0.23452 0.95569 0.41249 0.0
C446 C 0.20605 0.95843 0.39551 0.0
C447 C 0.18409 0.94539 0.42507 0.0
C448 C 0.19118 0.9255 0.46429 0.0
C449 C 0.2588 0.80757 0.57414 0.0
C450 C 0.30332 0.82101 0.46222 0.0
C451 C 0.35227 0.80611 0.63454 0.0
C452 C 0.34481 0.78956 0.68277 0.0
C453 C 0.31592 0.78279 0.69357 0.0
C454 C 0.30845 0.76672 0.73838 0.0
C455 C 0.32966 0.75757 0.77398 0.0
C456 C 0.35857 0.76447 0.7634 0.0
C457 C 0.3661 0.78023 0.71803 0.0
C458 C 0.33122 0.87736 0.5063 0.0
C459 C 0.27212 0.85977 0.66408 0.0
O460 O 0.24623 0.90099 0.54539 0.0
O461 O 0.23167 0.8701 0.48597 0.0
O462 O 0.28033 0.81966 0.55511 0.0
O463 O 0.2392 0.82724 0.57272 0.0
O464 O 0.28287 0.84122 0.46376 0.0
O465 O 0.31691 0.81285 0.50599 0.0
O466 O 0.33964 0.79716 0.5914 0.0
O467 O 0.35151 0.8342 0.63876 0.0
O468 O 0.30981 0.87787 0.53945 0.0
O469 O 0.34893 0.85823 0.52439 0.0
O470 O 0.29789 0.84878 0.65556 0.0
O471 O 0.25651 0.8677 0.62294 0.0
H472 H 0.26398 0.93141 0.45957 0.0
H473 H 0.25152 0.96585 0.39042 0.0
H474 H 0.16198 0.94706 0.41236 0.0
H475 H 0.17424 0.91346 0.48364 0.0
H476 H 0.29905 0.79005 0.66734 0.0
H477 H 0.28602 0.76202 0.74588 0.0
H478 H 0.37535 0.75764 0.7903 0.0
H479 H 0.38847 0.78519 0.71061 0.0
Tb480 Tb 0.89485 0.48074 0.76758 0.0
Tb481 Tb 0.92233 0.42718 0.72608 0.0
C482 C 0.85726 0.51567 0.79688 0.0
C483 C 0.83296 0.51743 0.83256 0.0
C484 C 0.82443 0.49304 0.86039 0.0
C485 C 0.80542 0.49578 0.90215 0.0
C486 C 0.7946 0.52288 0.91637 0.0
C487 C 0.80031 0.54668 0.88392 0.0
C488 C 0.81968 0.54395 0.84202 0.0
C489 C 0.94866 0.49047 0.73193 0.0
C490 C 0.93924 0.44771 0.84193 0.0
C491 C 0.95262 0.39487 0.66943 0.0
C492 C 0.96994 0.40243 0.62197 0.0
C493 C 0.97406 0.43137 0.60774 0.0
C494 C 0.99107 0.43885 0.56406 0.0
C495 C 0.00417 0.41754 0.53308 0.0
C496 C 0.99953 0.38853 0.54665 0.0
C497 C 0.98273 0.38106 0.59083 0.0
C498 C 0.88129 0.41445 0.79883 0.0
C499 C 0.8979 0.47445 0.64133 0.0
O500 O 0.85383 0.49753 0.75785 0.0
O501 O 0.88276 0.51379 0.81908 0.0
O502 O 0.9366 0.46809 0.74783 0.0
O503 O 0.92872 0.50973 0.7372 0.0
O504 O 0.91629 0.46515 0.84108 0.0
O505 O 0.94765 0.43384 0.79835 0.0
O506 O 0.96153 0.40603 0.71395 0.0
O507 O 0.92465 0.397 0.66429 0.0
O508 O 0.88113 0.43583 0.76553 0.0
O509 O 0.90155 0.39768 0.78186 0.0
O510 O 0.91003 0.44924 0.65076 0.0
O511 O 0.88889 0.48997 0.68182 0.0
H512 H 0.83459 0.4725 0.8532 0.0
H513 H 0.80317 0.4776 0.92865 0.0
H514 H 0.79294 0.56788 0.89518 0.0
H515 H 0.826 0.56288 0.81991 0.0
H516 H 0.96427 0.44834 0.63064 0.0
H517 H 0.99363 0.46133 0.55407 0.0
H518 H 0.0092 0.3716 0.52334 0.0
H519 H 0.9798 0.35862 0.60073 0.0
Tb520 Tb 0.2742 0.13866 0.512 0.0
Tb521 Tb 0.32654 0.16806 0.47449 0.0
C522 C 0.23833 0.10297 0.54595 0.0
C523 C 0.23677 0.08046 0.58541 0.0
C524 C 0.26191 0.07088 0.6098 0.0
C525 C 0.2601 0.05272 0.6531 0.0
C526 C 0.23321 0.04375 0.6721 0.0
C527 C 0.20818 0.05129 0.64456 0.0
C528 C 0.20998 0.06974 0.60116 0.0
C529 C 0.26351 0.19245 0.47747 0.0
C530 C 0.30676 0.18209 0.58968 0.0
C531 C 0.35991 0.19842 0.42024 0.0
C532 C 0.35325 0.21701 0.37392 0.0
C533 C 0.32609 0.23005 0.36918 0.0
C534 C 0.31949 0.24754 0.3257 0.0
C535 C 0.33959 0.25181 0.28502 0.0
C536 C 0.36662 0.23839 0.28923 0.0
C537 C 0.37346 0.22134 0.33346 0.0
C538 C 0.33938 0.12544 0.54479 0.0
C539 C 0.28108 0.1436 0.38771 0.0
O540 O 0.25629 0.09783 0.5073 0.0
O541 O 0.24042 0.12924 0.56409 0.0
O542 O 0.28548 0.18167 0.49725 0.0
O543 O 0.24541 0.17132 0.47663 0.0
O544 O 0.28999 0.15872 0.58692 0.0
O545 O 0.31972 0.19234 0.54671 0.0
O546 O 0.34883 0.2068 0.46534 0.0
O547 O 0.35709 0.17062 0.41307 0.0
O548 O 0.31898 0.12536 0.50977 0.0
O549 O 0.35515 0.14735 0.53239 0.0
O550 O 0.30203 0.16169 0.3993 0.0
O551 O 0.26939 0.12854 0.42647 0.0
H552 H 0.28268 0.07919 0.59795 0.0
H553 H 0.27941 0.04896 0.67599 0.0
H554 H 0.18724 0.04546 0.65994 0.0
H555 H 0.19045 0.077 0.58205 0.0
H556 H 0.30973 0.22641 0.3988 0.0
H557 H 0.29833 0.25709 0.32319 0.0
H558 H 0.38251 0.24115 0.2583 0.0
H559 H 0.39442 0.21133 0.33579 0.0
Tb560 Tb 0.61045 0.51923 0.26783 0.0
Tb561 Tb 0.58922 0.57201 0.22218 0.0
C562 C 0.63892 0.48086 0.31384 0.0
C563 C 0.65838 0.4793 0.35922 0.0
C564 C 0.68591 0.49157 0.35634 0.0
C565 C 0.70109 0.49727 0.40243 0.0
C566 C 0.68821 0.49203 0.45121 0.0
C567 C 0.6633 0.47505 0.45376 0.0
C568 C 0.64836 0.46867 0.40769 0.0
C569 C 0.5577 0.512 0.22745 0.0
C570 C 0.56883 0.5585 0.33726 0.0
C571 C 0.56446 0.60557 0.15949 0.0
C572 C 0.54755 0.59844 0.11113 0.0
C573 C 0.52604 0.5772 0.11297 0.0
C574 C 0.50993 0.57046 1.06799 0.0
C575 C 0.51504 0.58446 1.01963 0.0
C576 C 0.53726 0.6049 1.01695 0.0
C577 C 0.55329 0.61191 1.06237 0.0
C578 C 0.6291 0.58372 0.29721 0.0
C579 C 0.61245 0.52261 0.14236 0.0
O580 O 0.61189 0.48628 0.32447 0.0
O581 O 0.64834 0.49586 0.27352 0.0
O582 O 0.56871 0.53382 0.24763 0.0
O583 O 0.57828 0.49343 0.22598 0.0
O584 O 0.58993 0.53906 0.33861 0.0
O585 O 0.56183 0.57122 0.29199 0.0
O586 O 0.55326 0.59731 0.20462 0.0
O587 O 0.59218 0.60052 0.15738 0.0
O588 O 0.62933 0.56194 0.26506 0.0
O589 O 0.61006 0.60109 0.27796 0.0
O590 O 0.59866 0.54704 0.1491 0.0
O591 O 0.6222 0.50901 0.18465 0.0
H592 H 0.69456 0.49923 0.31915 0.0
H593 H 0.72098 0.50913 0.40014 0.0
H594 H 0.65326 0.47035 0.49137 0.0
H595 H 0.62761 0.45824 0.41064 0.0
H596 H 0.52143 0.56582 0.14934 0.0
H597 H 0.49316 0.55441 1.07111 0.0
H598 H 0.54164 0.61604 0.98017 0.0
H599 H 0.57 0.62801 1.05949 0.0
Tb600 Tb 0.2267 0.86196 1.01381 0.0
Tb601 Tb 0.17443 0.83514 0.96916 0.0
C602 C 0.25958 0.89679 1.05844 0.0
C603 C 0.25426 0.91905 0.09769 0.0
C604 C 0.22866 0.93484 0.09545 0.0
C605 C 0.22048 0.9517 0.13792 0.0
C606 C 0.23753 0.95282 0.1831 0.0
C607 C 0.26451 0.93937 0.1835 0.0
C608 C 0.27287 0.92241 0.14072 0.0
C609 C 0.23737 0.80878 0.97806 0.0
C610 C 0.19142 0.81715 0.08525 0.0
C611 C 0.14257 0.80695 0.90828 0.0
C612 C 0.15035 0.79034 0.86008 0.0
C613 C 0.17822 0.77905 0.85407 0.0
C614 C 0.18555 0.76275 0.80949 0.0
C615 C 0.16545 0.75803 0.76909 0.0
C616 C 0.13784 0.77001 0.77415 0.0
C617 C 0.1303 0.78587 0.8194 0.0
C618 C 0.16031 0.87573 1.04187 0.0
C619 C 0.22332 0.85963 0.88759 0.0
O620 O 0.24759 0.90146 1.01236 0.0
O621 O 0.25593 0.87035 1.07505 0.0
O622 O 0.21465 0.81984 0.99463 0.0
O623 O 0.256 0.82943 0.98092 0.0
O624 O 0.20928 0.83966 0.08506 0.0
O625 O 0.17804 0.8091 1.0411 0.0
O626 O 0.15255 0.79682 0.95304 0.0
O627 O 0.1455 0.83494 0.90505 0.0
O628 O 0.18217 0.87628 1.00964 0.0
O629 O 0.14395 0.85563 1.02325 0.0
O630 O 0.19916 0.84541 0.89595 0.0
O631 O 0.237 0.87064 0.92884 0.0
H632 H 0.21408 0.93276 1.06232 0.0
H633 H 0.19933 0.96098 0.13809 0.0
H634 H 0.27755 0.93942 0.21899 0.0
H635 H 0.29271 0.91031 0.14297 0.0
H636 H 0.19442 0.78286 0.88388 0.0
H637 H 0.20705 0.75401 0.80632 0.0
H638 H 0.12199 0.76672 0.74342 0.0
H639 H 0.10881 0.79459 0.82267 0.0
Tb640 Tb 0.58551 0.925 0.72259 0.0
Tb641 Tb 0.60984 0.97828 0.76473 0.0
C642 C 0.55623 0.89203 0.66597 0.0
C643 C 0.53952 0.89822 0.61683 0.0
C644 C 0.50931 0.89903 0.61877 0.0
C645 C 0.49321 0.90749 0.57452 0.0
C646 C 0.50685 0.91533 0.52697 0.0
C647 C 0.53704 0.91393 0.52459 0.0
C648 C 0.55318 0.90557 0.56893 0.0
C649 C 0.62507 0.9133 0.7978 0.0
C650 C 0.61009 0.97281 0.63853 0.0
C651 C 0.64113 0.01658 0.80331 0.0
C652 C 0.66006 0.02409 0.84724 0.0
C653 C 0.68939 0.02902 0.83754 0.0
C654 C 0.70807 0.03504 0.87927 0.0
C655 C 0.69727 0.03702 0.93078 0.0
C656 C 0.66759 0.03358 0.93969 0.0
C657 C 0.64914 0.02741 0.89832 0.0
C658 C 0.55727 0.98571 0.72343 0.0
C659 C 0.56701 0.94183 0.83844 0.0
O660 O 0.54633 0.90423 0.70885 0.0
O661 O 0.58443 0.89335 0.66322 0.0
O662 O 0.6262 0.93449 0.76424 0.0
O663 O 0.6058 0.89591 0.77948 0.0
O664 O 0.59646 0.94822 0.64699 0.0
O665 O 0.62011 0.98696 0.68 0.0
O666 O 0.65057 0.99657 0.77129 0.0
O667 O 0.61351 0.0144 0.813 0.0
O668 O 0.56814 0.9645 0.7459 0.0
O669 O 0.57783 0.00438 0.72212 0.0
O670 O 0.58809 0.96141 0.83732 0.0
O671 O 0.5597 0.9278 0.79469 0.0
H672 H 0.49809 0.8935 0.65495 0.0
H673 H 0.47 0.90763 0.57743 0.0
H674 H 0.54825 0.91977 0.48856 0.0
H675 H 0.57636 0.90533 0.56582 0.0
H676 H 0.69783 0.02797 0.79767 0.0
H677 H 0.73075 0.03801 0.87141 0.0
H678 H 0.65863 0.03458 0.97924 0.0
H679 H 0.62653 0.02439 0.90682 0.0
Tb680 Tb 0.32892 0.32857 0.97322 0.0
Tb681 Tb 0.27693 0.3577 1.01552 0.0
C682 C 0.35913 0.29465 0.9205 0.0
C683 C 0.35168 0.27775 0.87241 0.0
C684 C 0.34427 0.24851 0.87683 0.0
C685 C 0.33503 0.23295 0.83256 0.0
C686 C 0.33298 0.24623 0.7827 0.0
C687 C 0.34064 0.27538 0.77822 0.0
C688 C 0.34995 0.29089 0.82238 0.0
C689 C 0.34405 0.36879 1.04515 0.0
C690 C 0.28187 0.35398 0.88899 0.0
C691 C 0.24114 0.39315 1.04894 0.0
C692 C 0.23529 0.41531 0.08811 0.0
C693 C 0.24893 0.44221 0.0859 0.0
C694 C 0.24456 0.46192 0.1263 0.0
C695 C 0.22719 0.45468 0.16943 0.0
C696 C 0.21104 0.42925 0.16832 0.0
C697 C 0.215 0.40972 0.12768 0.0
C698 C 0.26641 0.30441 0.98003 0.0
C699 C 0.31132 0.31555 0.09189 0.0
O700 O 0.34551 0.28712 0.9637 0.0
O701 O 0.36088 0.32273 0.91539 0.0
O702 O 0.32208 0.37002 1.01323 0.0
O703 O 0.36028 0.34899 1.02506 0.0
O704 O 0.30626 0.34002 0.89766 0.0
O705 O 0.26796 0.36501 0.9299 0.0
O706 O 0.26061 0.39915 1.01293 0.0
O707 O 0.24248 0.36648 1.06599 0.0
O708 O 0.28846 0.31529 0.99918 0.0
O709 O 0.24807 0.32527 0.98055 0.0
O710 O 0.29354 0.33811 0.08972 0.0
O711 O 0.32409 0.3056 1.04843 0.0
H712 H 0.34542 0.23767 0.91473 0.0
H713 H 0.33001 0.21039 0.83721 0.0
H714 H 0.33936 0.28626 0.74038 0.0
H715 H 0.35552 0.31329 0.81729 0.0
H716 H 0.26392 0.44754 1.0546 0.0
H717 H 0.25672 0.48159 0.1267 0.0
H718 H 0.19746 0.42312 0.20132 0.0
H719 H 0.20342 0.38954 0.12884 0.0
Tb720 Tb 0.92274 0.07592 0.22232 0.0
Tb721 Tb 0.89737 0.02258 0.26262 0.0
C722 C 0.95124 0.10964 0.16586 0.0
C723 C 0.9689 0.10221 0.11917 0.0
C724 C 0.97783 0.07365 0.11156 0.0
C725 C 0.99413 0.06597 1.06731 0.0
C726 C 1.00167 0.08665 1.02932 0.0
C727 C 0.99305 0.11535 1.03727 0.0
C728 C 0.97677 0.12305 0.0818 0.0
C729 C 0.88332 0.08746 0.29749 0.0
C730 C 0.89694 0.02953 0.13832 0.0
C731 C 0.86713 0.98312 0.30132 0.0
C732 C 0.85456 0.97389 0.35114 0.0
C733 C 0.86989 0.97762 0.39779 0.0
C734 C 0.85698 0.97186 0.44573 0.0
C735 C 0.82869 0.96111 0.44847 0.0
C736 C 0.81395 0.95558 0.40107 0.0
C737 C 0.82684 0.9621 0.35251 0.0
C738 C 0.95025 0.01526 0.22219 0.0
C739 C 0.94085 0.05821 0.33694 0.0
O740 O 0.9607 0.09911 0.21067 0.0
O741 O 0.92335 0.10627 0.16048 0.0
O742 O 0.8818 0.06672 0.26321 0.0
O743 O 0.90283 0.10478 0.27987 0.0
O744 O 0.91485 0.05096 0.1478 0.0
O745 O 0.88328 0.01789 0.17892 0.0
O746 O 0.85639 0.00652 0.28045 0.0
O747 O 0.89518 0.98256 0.29906 0.0
O748 O 0.93938 0.03614 0.24528 0.0
O749 O 0.92932 0.99712 0.21818 0.0
O750 O 0.91947 0.03888 0.33576 0.0
O751 O 0.94886 0.0715 0.29285 0.0
H752 H 0.97198 0.05712 0.13971 0.0
H753 H 1.00025 0.04371 1.06215 0.0
H754 H 0.99888 0.13183 1.00893 0.0
H755 H 0.97021 0.14518 0.08689 0.0
H756 H 0.89131 0.98674 0.39761 0.0
H757 H 0.86882 0.9784 0.48038 0.0
H758 H 0.79218 0.9474 0.40157 0.0
H759 H 0.81493 0.95876 0.31624 0.0
Tb760 Tb 0.17963 0.66736 0.46903 0.0
Tb761 Tb 0.23307 0.643 0.51595 0.0
C762 C 0.14657 0.69665 0.41209 0.0
C763 C 0.15215 0.71357 0.363 0.0
C764 C 0.14969 0.74367 0.36392 0.0
C765 C 0.15748 0.76027 0.3198 0.0
C766 C 0.16767 0.74715 0.2734 0.0
C767 C 0.16944 0.71701 0.2719 0.0
C768 C 0.16191 0.70042 0.3162 0.0
C769 C 0.1674 0.62562 0.5415 0.0
C770 C 0.22891 0.64481 0.38856 0.0
C771 C 0.2699 0.60797 0.54963 0.0
C772 C 0.26999 0.58153 0.58069 0.0
C773 C 0.24519 0.56461 0.5819 0.0
C774 C 0.24082 0.54557 0.62346 0.0
C775 C 0.25973 0.54609 0.66654 0.0
C776 C 0.28754 0.55701 0.65853 0.0
C777 C 0.29247 0.57561 0.61591 0.0
C778 C 0.24145 0.69623 0.47749 0.0
C779 C 0.19444 0.6864 0.58554 0.0
O780 O 0.15885 0.70657 0.45487 0.0
O781 O 0.14833 0.66851 0.40904 0.0
O782 O 0.18958 0.62654 0.51026 0.0
O783 O 0.15004 0.64463 0.52185 0.0
O784 O 0.20342 0.65672 0.39515 0.0
O785 O 0.24332 0.63595 0.43069 0.0
O786 O 0.2566 0.60568 0.50432 0.0
O787 O 0.26308 0.63172 0.57476 0.0
O788 O 0.21929 0.68425 0.49459 0.0
O789 O 0.2611 0.67685 0.48386 0.0
O790 O 0.21385 0.66496 0.58699 0.0
O791 O 0.18128 0.69341 0.54071 0.0
H792 H 0.1422 0.75445 0.39928 0.0
H793 H 0.15532 0.78339 0.32183 0.0
H794 H 0.1771 0.70626 0.23664 0.0
H795 H 0.16413 0.67733 0.31391 0.0
H796 H 0.22763 0.5689 0.55503 0.0
H797 H 0.21924 0.53742 0.62868 0.0
H798 H 0.30298 0.55663 0.69056 0.0
H799 H 0.31219 0.58792 0.61444 0.0
Tb800 Tb 0.58452 0.0714 0.33165 0.0
Tb801 Tb 0.61505 0.02024 0.28818 0.0
C802 C 0.55256 0.10276 0.38636 0.0
C803 C 0.53533 0.09625 0.43465 0.0
C804 C 0.50654 0.08724 0.43024 0.0
C805 C 0.49058 0.07978 0.47523 0.0
C806 C 0.50289 0.08141 0.52582 0.0
C807 C 0.53172 0.09019 0.53028 0.0
C808 C 0.54768 0.09769 0.48534 0.0
C809 C 0.62648 0.08656 0.2625 0.0
C810 C 0.60977 0.02339 0.41502 0.0
C811 C 0.65391 0.99016 0.24813 0.0
C812 C 0.6779 0.99614 0.21231 0.0
C813 C 0.69426 0.02128 0.21812 0.0
C814 C 0.71386 0.02915 0.17924 0.0
C815 C 0.71692 0.01243 0.13357 0.0
C816 C 0.70275 0.98582 0.1305 0.0
C817 C 0.68329 0.97774 0.16976 0.0
C818 C 0.56187 0.00746 0.32222 0.0
C819 C 0.5696 0.05371 0.21451 0.0
O820 O 0.54411 0.09003 0.34296 0.0
O821 O 0.5807 0.10269 0.39113 0.0
O822 O 0.62696 0.06517 0.29546 0.0
O823 O 0.60443 0.10178 0.27614 0.0
O824 O 0.59535 0.04758 0.40644 0.0
O825 O 0.62127 0.00979 0.37396 0.0
O826 O 0.65583 0.00236 0.29463 0.0
O827 O 0.62809 0.99223 0.22766 0.0
O828 O 0.57254 0.03043 0.30609 0.0
O829 O 0.58274 0.98913 0.31701 0.0
O830 O 0.59309 0.03702 0.21546 0.0
O831 O 0.56006 0.06614 0.25851 0.0
H832 H 0.49628 0.08585 0.39188 0.0
H833 H 0.4684 0.07326 0.47054 0.0
H834 H 0.54198 0.09123 0.56867 0.0
H835 H 0.56976 0.10444 0.49035 0.0
H836 H 0.69086 0.03564 0.25116 0.0
H837 H 0.72482 0.04953 0.18243 0.0
H838 H 0.70428 0.97275 0.09519 0.0
H839 H 0.67103 0.95814 0.16503 0.0
Tb840 Tb 0.178 0.33209 0.58777 0.0
Tb841 Tb 0.23054 0.35517 0.54221 0.0
C842 C 0.14459 0.30462 0.64706 0.0
C843 C 0.15241 0.28639 0.693 0.0
C844 C 0.18104 0.27736 0.69985 0.0
C845 C 0.18883 0.25993 0.7427 0.0
C846 C 0.16827 0.25164 0.78034 0.0
C847 C 0.13962 0.2607 0.7736 0.0
C848 C 0.13174 0.27781 0.73015 0.0
C849 C 0.16629 0.37451 0.51623 0.0
C850 C 0.22895 0.35364 0.66821 0.0
C851 C 0.26307 0.38969 0.49729 0.0
C852 C 0.25624 0.41035 0.45643 0.0
C853 C 0.26981 0.4371 0.45583 0.0
C854 C 0.26157 0.45765 0.41874 0.0
C855 C 0.23989 0.45138 0.38209 0.0
C856 C 0.22542 0.42504 0.38493 0.0
C857 C 0.23345 0.40473 0.422 0.0
C858 C 0.23893 0.30178 0.57905 0.0
C859 C 0.19209 0.31322 0.47139 0.0
O860 O 0.15355 0.29506 0.60135 0.0
O861 O 0.14924 0.33226 0.65222 0.0
O862 O 0.18774 0.37316 0.54886 0.0
O863 O 0.14915 0.35426 0.53179 0.0
O864 O 0.20344 0.34151 0.66143 0.0
O865 O 0.2429 0.36296 0.62591 0.0
O866 O 0.24999 0.39534 0.54189 0.0
O867 O 0.26145 0.36252 0.48363 0.0
O868 O 0.21665 0.3133 0.56122 0.0
O869 O 0.25836 0.32173 0.57621 0.0
O870 O 0.21142 0.33445 0.47081 0.0
O871 O 0.17927 0.30588 0.51639 0.0
H872 H 0.1975 0.28398 0.67216 0.0
H873 H 0.21108 0.25358 0.74725 0.0
H874 H 0.12335 0.2546 0.80215 0.0
H875 H 0.10958 0.2845 0.7258 0.0
H876 H 0.28702 0.44183 0.48329 0.0
H877 H 0.2736 0.47747 0.41562 0.0
H878 H 0.20945 0.41918 0.35575 0.0
H879 H 0.22228 0.38436 0.42284 0.0
Tb880 Tb 0.91811 0.92875 0.83472 0.0
Tb881 Tb 0.88888 0.98032 0.79342 0.0
C882 C 0.9497 0.89691 0.88968 0.0
C883 C 0.96795 0.90416 0.93596 0.0
C884 C 0.9781 0.93236 0.94329 0.0
C885 C 0.9948 0.93948 0.98754 0.0
C886 C 1.00135 0.91865 1.02595 0.0
C887 C 0.99137 0.89039 1.01837 0.0
C888 C 0.97488 0.88322 0.97381 0.0
C889 C 0.87485 0.91346 0.76766 0.0
C890 C 0.89532 0.97644 0.91877 0.0
C891 C 0.85328 0.0166 0.7594 0.0
C892 C 0.82766 0.01741 0.726 0.0
C893 C 0.80566 0.99713 0.7328 0.0
C894 C 0.78714 0.9914 0.69111 0.0
C895 C 0.79155 0.00498 0.64221 0.0
C896 C 0.80812 0.03017 0.64074 0.0
C897 C 0.82693 0.03593 0.68227 0.0
C898 C 0.94348 0.99094 0.82405 0.0
C899 C 0.92983 0.9444 0.71605 0.0
O900 O 0.95778 0.90825 0.84455 0.0
O901 O 0.9218 0.89881 0.89692 0.0
O902 O 0.87496 0.93557 0.79936 0.0
O903 O 0.89633 0.89792 0.78327 0.0
O904 O 0.91249 0.95456 0.90856 0.0
O905 O 0.88022 0.98739 0.87927 0.0
O906 O 0.85048 0.00239 0.80374 0.0
O907 O 0.87771 0.01097 0.73566 0.0
O908 O 0.93197 0.9688 0.80664 0.0
O909 O 0.92278 0.00947 0.82335 0.0
O910 O 0.9073 0.96228 0.71891 0.0
O911 O 0.9405 0.93211 0.75933 0.0
H912 H 0.97276 0.94907 0.91515 0.0
H913 H 1.00188 0.96145 0.99254 0.0
H914 H 0.99623 0.87383 1.04716 0.0
H915 H 0.96732 0.86138 0.9692 0.0
H916 H 0.80489 0.98327 0.76725 0.0
H917 H 0.77397 0.97247 0.69413 0.0
H918 H 0.81128 0.04152 0.60375 0.0
H919 H 0.84307 0.05248 0.67738 0.0
Tb920 Tb 0.32289 0.67485 1.08031 0.0
Tb921 Tb 0.26863 0.65132 1.04383 0.0
C922 C 0.35639 0.70434 0.13524 0.0
C923 C 0.34971 0.72207 0.18297 0.0
C924 C 0.33956 0.75047 0.17747 0.0
C925 C 0.33096 0.76646 0.22169 0.0
C926 C 0.33276 0.75473 0.27277 0.0
C927 C 0.34308 0.72646 0.27849 0.0
C928 C 0.35151 0.71037 0.23422 0.0
C929 C 0.33332 0.63796 1.00055 0.0
C930 C 0.27875 0.64678 0.16677 0.0
C931 C 0.22662 0.62471 1.00631 0.0
C932 C 0.21758 0.61532 0.95462 0.0
C933 C 0.22704 0.63067 0.9107 0.0
C934 C 0.22399 0.61912 0.86115 0.0
C935 C 0.21083 0.59211 0.85415 0.0
C936 C 0.19887 0.57799 0.89806 0.0
C937 C 0.20244 0.58955 0.9485 0.0
C938 C 0.26352 0.70338 0.08901 0.0
C939 C 0.30229 0.6945 0.96786 0.0
O940 O 0.34513 0.71344 0.09086 0.0
O941 O 0.35446 0.67626 0.14004 0.0
O942 O 0.3128 0.63497 1.03556 0.0
O943 O 0.35081 0.65665 1.02047 0.0
O944 O 0.30143 0.66308 0.15692 0.0
O945 O 0.26486 0.63563 0.12625 0.0
O946 O 0.24965 0.61192 1.02473 0.0
O947 O 0.2275 0.65257 1.0121 0.0
O948 O 0.28317 0.69274 1.0623 0.0
O949 O 0.24543 0.68254 0.09406 0.0
O950 O 0.28341 0.67289 0.9697 0.0
O951 O 0.31676 0.70196 1.01093 0.0
H952 H 0.33806 0.76041 0.13881 0.0
H953 H 0.32341 0.78825 0.21601 0.0
H954 H 0.34455 0.71673 0.31735 0.0
H955 H 0.35918 0.68866 0.24015 0.0
H956 H 0.23904 0.65047 0.9148 0.0
H957 H 0.23525 0.63017 0.82972 0.0
H958 H 0.18853 0.55729 0.89378 0.0
H959 H 0.1949 0.57768 0.98271 0.0
Tb960 Tb 0.39568 0.01807 0.79157 0.0
Tb961 Tb 0.41934 0.07232 0.83303 0.0
C962 C 0.3629 0.97936 0.75867 0.0
C963 C 0.33991 0.9731 0.72157 0.0
C964 C 0.32305 0.99522 0.70104 0.0
C965 C 0.30474 0.98969 0.65908 0.0
C966 C 0.30185 0.96179 0.63899 0.0
C967 C 0.3157 0.93897 0.66496 0.0
C968 C 0.33509 0.94471 0.70565 0.0
C969 C 0.4495 0.01155 0.82827 0.0
C970 C 0.43613 0.05614 0.71668 0.0
C971 C 0.44783 0.10518 0.89165 0.0
C972 C 0.46596 0.09729 0.93815 0.0
C973 C 0.47711 0.0693 0.9432 0.0
C974 C 0.49474 0.06173 0.98607 0.0
C975 C 0.50115 0.08177 1.02582 0.0
C976 C 0.48936 0.10957 1.02157 0.0
C977 C 0.47216 0.11731 0.97801 0.0
C978 C 0.37844 0.08285 0.75984 0.0
C979 C 0.39723 0.02416 0.91733 0.0
O980 O 0.35621 0.99745 0.79631 0.0
O981 O 0.3886 0.98397 0.73886 0.0
O982 O 0.43732 0.03301 0.8089 0.0
O983 O 0.42982 0.99191 0.82797 0.0
O984 O 0.41586 0.03574 0.71832 0.0
O985 O 0.44414 0.06982 0.76032 0.0
O986 O 0.45706 0.09588 0.84588 0.0
O987 O 0.42001 0.10146 0.89688 0.0
O988 O 0.3785 0.06158 0.79334 0.0
O989 O 0.39717 0.10101 0.7778 0.0
O990 O 0.40975 0.04906 0.90796 0.0
O991 O 0.3877 0.00907 0.87681 0.0
H992 H 0.32528 0.01701 0.71522 0.0
H993 H 0.29539 0.00771 0.6386 0.0
H994 H 0.31395 0.91726 0.65 0.0
H995 H 0.3474 0.92725 0.72267 0.0
H996 H 0.47208 0.05312 0.91402 0.0
H997 H 0.5029 0.04 0.98871 0.0
H998 H 0.4937 0.12542 1.05181 0.0
H999 H 0.46365 0.13891 0.97553 0.0
Tb1000 Tb 0.72947 0.64004 0.54837 0.0
Tb1001 Tb 0.67651 0.66482 0.58974 0.0
C1002 C 0.76803 0.60829 0.5124 0.0
C1003 C 0.7761 0.59128 0.46673 0.0
C1004 C 0.77425 0.60316 0.41619 0.0
C1005 C 0.78213 0.58701 0.37296 0.0
C1006 C 0.79252 0.55875 0.37924 0.0
C1007 C 0.79449 0.54678 0.42994 0.0
C1008 C 0.78634 0.56313 0.47373 0.0
C1009 C 0.73702 0.69366 0.58487 0.0
C1010 C 0.69298 0.68098 0.47242 0.0
C1011 C 0.64377 0.69519 0.6449 0.0
C1012 C 0.65157 0.7134 0.69079 0.0
C1013 C 0.67971 0.72418 0.69578 0.0
C1014 C 0.68753 0.74106 0.73925 0.0
C1015 C 0.66755 0.74709 0.77928 0.0
C1016 C 0.63937 0.73637 0.77427 0.0
C1017 C 0.63144 0.71975 0.73035 0.0
C1018 C 0.66431 0.62391 0.5175 0.0
C1019 C 0.724 0.64104 0.67406 0.0
O1020 O 0.74636 0.59864 0.54036 0.0
O1021 O 0.76739 0.63622 0.50566 0.0
O1022 O 0.71563 0.68226 0.56416 0.0
O1023 O 0.75563 0.67311 0.58799 0.0
O1024 O 0.71219 0.65955 0.4739 0.0
O1025 O 0.67991 0.68934 0.51653 0.0
O1026 O 0.65444 0.70361 0.59954 0.0
O1027 O 0.64626 0.66733 0.65168 0.0
O1028 O 0.68573 0.6235 0.55051 0.0
O1029 O 0.64707 0.64346 0.53536 0.0
O1030 O 0.70011 0.65565 0.66519 0.0
O1031 O 0.73746 0.62971 0.63306 0.0
H1032 H 0.76603 0.62466 0.40975 0.0
H1033 H 0.77916 0.59655 0.3342 0.0
H1034 H 0.80223 0.52507 0.43557 0.0
H1035 H 0.78795 0.55386 0.51297 0.0
H1036 H 0.69581 0.71927 0.66625 0.0
H1037 H 0.70943 0.74873 0.74234 0.0
H1038 H 0.6235 0.74077 0.80454 0.0
H1039 H 0.60969 0.71165 0.72755 0.0
Tb1040 Tb 0.10843 0.98018 0.29346 0.0
Tb1041 Tb 0.08152 0.92796 0.33634 0.0
C1042 C 0.14217 0.01717 0.25767 0.0
C1043 C 0.1617 0.02172 0.21401 0.0
C1044 C 0.18473 0.04102 0.21899 0.0
C1045 C 0.20298 0.04599 0.17598 0.0
C1046 C 0.1983 0.03111 0.12886 0.0
C1047 C 0.17571 0.01115 0.12519 0.0
C1048 C 0.15733 0.00681 0.16713 0.0
C1049 C 0.05565 0.98995 0.33288 0.0
C1050 C 0.0655 0.94561 0.21935 0.0
C1051 C 0.04963 0.89605 0.39121 0.0
C1052 C 0.03165 0.90321 0.43782 0.0
C1053 C 0.03008 0.93162 0.45632 0.0
C1054 C 0.01235 0.9388 0.49909 0.0
C1055 C 0.99528 0.91782 0.52396 0.0
C1056 C 0.99681 0.88937 0.50511 0.0
C1057 C 0.0148 0.88216 0.46254 0.0
C1058 C 0.12088 0.914 0.26219 0.0
C1059 C 0.10821 0.97431 0.41941 0.0
O1060 O 0.1499 0.99684 0.2906 0.0
O1061 O 0.11475 0.01617 0.24558 0.0
O1062 O 0.06614 0.96808 0.31227 0.0
O1063 O 0.07656 0.00822 0.33225 0.0
O1064 O 0.08798 0.96351 0.21997 0.0
O1065 O 0.05668 0.93287 0.26363 0.0
O1066 O 0.04152 0.90822 0.34707 0.0
O1067 O 0.07759 0.89746 0.39764 0.0
O1068 O 0.12276 0.93549 0.29488 0.0
O1069 O 0.1008 0.89778 0.28131 0.0
O1070 O 0.09404 0.95013 0.4113 0.0
O1071 O 0.11853 0.9883 0.37801 0.0
H1072 H 0.18817 0.0526 0.25558 0.0
H1073 H 0.21995 0.06178 0.17885 0.0
H1074 H 0.17156 0.99965 0.08875 0.0
H1075 H 0.13926 0.99243 0.16243 0.0
H1076 H 0.04232 0.94846 0.43738 0.0
H1077 H 0.01242 0.96075 0.5131 0.0
H1078 H 0.98392 0.87264 0.52315 0.0
H1079 H 0.01536 0.86018 0.44867 0.0
Tb1080 Tb 0.77247 0.36003 1.04397 0.0
Tb1081 Tb 0.8245 0.33198 0.08511 0.0
C1082 C 0.73528 0.39531 1.01447 0.0
C1083 C 0.73046 0.41867 0.9778 0.0
C1084 C 0.75384 0.43185 0.95347 0.0
C1085 C 0.74932 0.44941 0.91019 0.0
C1086 C 0.7214 0.45526 0.89275 0.0
C1087 C 0.6978 0.44562 0.92245 0.0
C1088 C 0.70237 0.42672 0.96451 0.0
C1089 C 0.76253 0.30645 1.07937 0.0
C1090 C 0.80734 0.31895 0.96654 0.0
C1091 C 0.85546 0.29864 0.13838 0.0
C1092 C 0.84894 0.28256 0.18803 0.0
C1093 C 0.85058 0.25239 0.18876 0.0
C1094 C 0.84206 0.23669 0.23364 0.0
C1095 C 0.8317 0.25079 0.27896 0.0
C1096 C 0.82981 0.28097 0.27793 0.0
C1097 C 0.83848 0.29664 0.23331 0.0
C1098 C 0.83863 0.37265 1.01359 0.0
C1099 C 0.77836 0.35699 0.16982 0.0
O1100 O 0.7544 0.40059 1.05123 0.0
O1101 O 0.73805 0.36963 0.99362 0.0
O1102 O 0.78442 0.31742 1.05966 0.0
O1103 O 0.74411 0.32719 1.07929 0.0
O1104 O 0.78885 0.34095 0.96899 0.0
O1105 O 0.82041 0.30935 1.00994 0.0
O1106 O 0.8407 0.29047 0.0971 0.0
O1107 O 0.8575 0.32677 0.14126 0.0
O1108 O 0.81723 0.37424 1.04674 0.0
O1109 O 0.85456 0.35168 1.03026 0.0
O1110 O 0.80311 0.34397 0.1611 0.0
O1111 O 0.76364 0.36689 0.12914 0.0
H1112 H 0.7755 0.42701 0.9657 0.0
H1113 H 0.76754 0.45479 0.88569 0.0
H1114 H 0.67609 0.44944 0.90876 0.0
H1115 H 0.6841 0.41705 0.98428 0.0
H1116 H 0.85818 0.2409 0.15427 0.0
H1117 H 0.8439 0.21351 0.23314 0.0
H1118 H 0.82138 0.29256 0.31165 0.0
H1119 H 0.83659 0.31979 0.23419 0.0
Tb1120 Tb 0.3967 0.98114 0.26584 0.0
Tb1121 Tb 0.41962 0.92706 0.22295 0.0
C1122 C 0.36404 0.01655 0.30959 0.0
C1123 C 0.34026 0.01156 0.34582 0.0
C1124 C 0.32527 0.98553 0.3425 0.0
C1125 C 0.30785 0.97687 0.3838 0.0
C1126 C 0.30493 0.99409 0.42859 0.0
C1127 C 0.31738 0.02151 0.42962 0.0
C1128 C 0.33523 0.03023 0.38817 0.0
C1129 C 0.45004 0.98813 0.22748 0.0
C1130 C 0.43908 0.94334 0.33783 0.0
C1131 C 0.44582 0.89255 0.16394 0.0
C1132 C 0.46316 0.89829 0.11513 0.0
C1133 C 0.49331 0.89602 0.1166 0.0
C1134 C 0.51016 0.90414 1.07293 0.0
C1135 C 0.49731 0.91433 1.02617 0.0
C1136 C 0.46713 0.91577 1.024 0.0
C1137 C 0.45029 0.90801 1.06792 0.0
C1138 C 0.37709 0.91723 0.29469 0.0
C1139 C 0.39747 0.97632 0.1404 0.0
O1140 O 0.35982 0.00638 0.26207 0.0
O1141 O 0.38948 0.01 0.32818 0.0
O1142 O 0.43809 0.96637 0.2463 0.0
O1143 O 0.43078 0.00812 0.23134 0.0
O1144 O 0.41776 0.9626 0.33733 0.0
O1145 O 0.44626 0.92938 0.29393 0.0
O1146 O 0.45659 0.90254 0.20799 0.0
O1147 O 0.41794 0.89671 0.16134 0.0
O1148 O 0.37849 0.93819 0.26083 0.0
O1149 O 0.39739 0.89969 0.28112 0.0
O1150 O 0.41037 0.95138 0.1485 0.0
O1151 O 0.3878 0.99091 0.18154 0.0
H1152 H 0.32895 0.9707 0.31024 0.0
H1153 H 0.29907 0.95545 0.38333 0.0
H1154 H 0.31586 0.03474 0.46474 0.0
H1155 H 0.34678 0.05035 0.39117 0.0
H1156 H 0.50393 0.88831 0.15196 0.0
H1157 H 0.53329 0.90215 1.07558 0.0
H1158 H 0.45653 0.9234 0.98852 0.0
H1159 H 0.42719 0.91004 1.06501 0.0
Tb1160 Tb 0.76969 0.64009 1.02324 0.0
Tb1161 Tb 0.82226 0.66757 0.97788 0.0
C1162 C 0.73706 0.60359 1.06465 0.0
C1163 C 0.7433 0.57897 0.09848 0.0
C1164 C 0.77 0.5655 0.09351 0.0
C1165 C 0.77949 0.54699 0.13256 0.0
C1166 C 0.76287 0.54214 0.17765 0.0
C1167 C 0.73468 0.55284 0.17984 0.0
C1168 C 0.7249 0.57141 0.14016 0.0
C1169 C 0.75893 0.69342 0.98672 0.0
C1170 C 0.80381 0.68524 0.09407 0.0
C1171 C 0.85462 0.69784 0.92117 0.0
C1172 C 0.84816 0.71476 0.87253 0.0
C1173 C 0.85315 0.74455 0.87132 0.0
C1174 C 0.84466 0.76117 0.82758 0.0
C1175 C 0.83143 0.74824 0.78373 0.0
C1176 C 0.82659 0.71844 0.78488 0.0
C1177 C 0.83489 0.70193 0.82859 0.0
C1178 C 0.83653 0.62682 1.05025 0.0
C1179 C 0.77387 0.64212 0.89655 0.0
O1180 O 0.74751 0.60144 1.01672 0.0
O1181 O 0.74207 0.62881 0.08572 0.0
O1182 O 0.78163 0.68183 1.00204 0.0
O1183 O 0.73983 0.67352 0.9943 0.0
O1184 O 0.78653 0.66231 0.09451 0.0
O1185 O 0.81702 0.69345 1.04971 0.0
O1186 O 0.84246 0.70721 0.96446 0.0
O1187 O 0.85337 0.66972 0.9176 0.0
O1188 O 0.8146 0.62619 1.01823 0.0
O1189 O 0.85253 0.64751 1.03278 0.0
O1190 O 0.79875 0.65537 0.90397 0.0
O1191 O 0.75943 0.63255 0.93822 0.0
H1192 H 0.78473 0.57139 1.06217 0.0
H1193 H 0.80158 0.53999 0.13175 0.0
H1194 H 0.72173 0.54987 0.21506 0.0
H1195 H 0.70418 0.58172 0.14443 0.0
H1196 H 0.86334 0.75504 0.90458 0.0
H1197 H 0.84893 0.78403 0.82756 0.0
H1198 H 0.81637 0.70783 0.75174 0.0
H1199 H 0.83071 0.67913 0.82795 0.0
Tb1200 Tb 0.10784 0.01799 0.76795 0.0
Tb1201 Tb 0.08592 0.07212 0.72331 0.0
C1202 C 0.13811 0.9801 0.81124 0.0
C1203 C 0.15721 0.97797 0.85717 0.0
C1204 C 0.18688 0.9827 0.85102 0.0
C1205 C 0.20372 0.98884 0.89506 0.0
C1206 C 0.19086 0.99037 0.94488 0.0
C1207 C 0.16259 0.98069 0.95187 0.0
C1208 C 0.14575 0.97452 0.90809 0.0
C1209 C 0.05488 0.01198 0.72674 0.0
C1210 C 0.06623 0.05596 0.83895 0.0
C1211 C 0.05793 0.10627 0.66625 0.0
C1212 C 0.04072 0.10053 0.61763 0.0
C1213 C 0.01064 0.10368 0.61835 0.0
C1214 C 0.99391 0.0956 0.57459 0.0
C1215 C 0.00696 0.08467 0.52871 0.0
C1216 C 0.03703 0.08173 0.52784 0.0
C1217 C 0.05366 0.08959 0.57161 0.0
C1218 C 0.12653 0.08313 0.79765 0.0
C1219 C 0.10942 0.02312 0.64189 0.0
O1220 O 0.14725 0.99703 0.77324 0.0
O1221 O 0.11063 0.98355 0.82096 0.0
O1222 O 0.06666 0.03331 0.74729 0.0
O1223 O 0.07436 0.99216 0.72888 0.0
O1224 O 0.08738 0.0366 0.83963 0.0
O1225 O 0.05945 0.06962 0.79446 0.0
O1226 O 0.04775 0.09492 0.70972 0.0
O1227 O 0.08596 0.10339 0.66301 0.0
O1228 O 0.12602 0.0613 0.76552 0.0
O1229 O 0.10771 0.10084 0.77859 0.0
O1230 O 0.09718 0.04845 0.64926 0.0
O1231 O 0.1177 0.00809 0.68371 0.0
H1232 H 0.19649 0.98422 0.81207 0.0
H1233 H 0.22578 0.99534 0.88958 0.0
H1234 H 0.1526 0.9812 0.99061 0.0
H1235 H 0.12322 0.96971 0.9141 0.0
H1236 H 1.00003 0.11216 0.6531 0.0
H1237 H 0.97083 0.09838 0.57623 0.0
H1238 H 0.04774 0.07326 0.49315 0.0
H1239 H 0.07667 0.08687 0.56944 0.0
Tb1240 Tb 0.7346 0.35863 0.51761 0.0
Tb1241 Tb 0.68112 0.33374 0.47505 0.0
C1242 C 0.77008 0.39231 0.55815 0.0
C1243 C 0.76639 0.41607 0.59452 0.0
C1244 C 0.74033 0.43111 0.5942 0.0
C1245 C 0.73312 0.44823 0.63668 0.0
C1246 C 0.75179 0.45062 0.67959 0.0
C1247 C 0.7793 0.43845 0.67713 0.0
C1248 C 0.78659 0.42098 0.63446 0.0
C1249 C 0.74329 0.30606 0.47802 0.0
C1250 C 0.69882 0.31439 0.58937 0.0
C1251 C 0.6476 0.30542 0.4176 0.0
C1252 C 0.65455 0.28836 0.36974 0.0
C1253 C 0.68316 0.28052 0.35903 0.0
C1254 C 0.69004 0.2638 0.31482 0.0
C1255 C 0.66853 0.25503 0.27953 0.0
C1256 C 0.63989 0.26311 0.28991 0.0
C1257 C 0.63296 0.27952 0.33471 0.0
C1258 C 0.66957 0.37532 0.54754 0.0
C1259 C 0.72922 0.35723 0.39182 0.0
O1260 O 0.75814 0.39644 0.51194 0.0
O1261 O 0.76446 0.36684 0.57784 0.0
O1262 O 0.72129 0.31708 0.49751 0.0
O1263 O 0.76273 0.32575 0.4825 0.0
O1264 O 0.71716 0.33657 0.5896 0.0
O1265 O 0.68532 0.307 0.54521 0.0
O1266 O 0.65858 0.29552 0.46168 0.0
O1267 O 0.65069 0.33336 0.41338 0.0
O1268 O 0.69074 0.37498 0.51394 0.0
O1269 O 0.65273 0.35472 0.53265 0.0
O1270 O 0.70468 0.34381 0.40062 0.0
O1271 O 0.74367 0.36754 0.43264 0.0
H1272 H 0.72436 0.42747 0.5638 0.0
H1273 H 0.71154 0.45647 0.63922 0.0
H1274 H 0.79363 0.43958 0.71083 0.0
H1275 H 0.80678 0.40941 0.63498 0.0
H1276 H 0.70032 0.28748 0.38479 0.0
H1277 H 0.71229 0.25824 0.30757 0.0
H1278 H 0.62283 0.25657 0.26344 0.0
H1279 H 0.61078 0.28532 0.34196 0.0
C1280 C 0.16924 0.52339 0.5264 0.0
C1281 C 0.1929 0.52943 0.49331 0.0
C1282 C 0.17098 0.50325 0.5665 0.0
C1283 C 0.19638 0.48792 0.57614 0.0
H1284 H 0.14819 0.53246 0.51976 0.0
H1285 H 0.15187 0.49954 0.59009 0.0
S1286 S 0.26735 0.50357 0.5174 0.0
N1287 N 0.24477 0.52377 0.48326 0.0
N1288 N 0.24754 0.48509 0.55966 0.0
C1289 C 0.22107 0.49544 0.5477 0.0
C1290 C 0.21943 0.51631 0.50614 0.0
C1291 C 0.72517 0.97278 0.78293 0.0
C1292 C 0.72571 0.94694 0.81115 0.0
C1293 C 0.71236 0.97404 0.73278 0.0
C1294 C 0.70036 0.94929 0.70952 0.0
H1295 H 0.73578 0.99159 0.79867 0.0
H1296 H 0.71386 0.99383 0.71035 0.0
S1297 S 0.69758 0.87628 0.76977 0.0
N1298 N 0.71306 0.89657 0.8148 0.0
N1299 N 0.68993 0.89814 0.72045 0.0
C1300 C 0.6998 0.92362 0.7394 0.0
C1301 C 0.71253 0.92259 0.79013 0.0
C1302 C 0.27707 0.54273 1.00067 0.0
C1303 C 0.30134 0.55135 0.971 0.0
C1304 C 0.27939 0.52516 1.04653 0.0
C1305 C 0.30589 0.51342 1.06304 0.0
H1306 H 0.25595 0.54865 0.98653 0.0
H1307 H 0.26002 0.52031 1.06842 0.0
S1308 S 0.38958 0.53093 0.97348 0.0
N1309 N 0.35667 0.56358 0.96152 0.0
N1310 N 0.3617 0.50726 1.02739 0.0
C1311 C 0.32975 0.52378 1.03755 0.0
C1312 C 0.32618 0.55708 0.99772 0.0
C1313 C 0.80447 0.04941 0.33681 0.0
C1314 C 0.78381 0.02854 0.3486 0.0
C1315 C 0.81163 0.05594 0.28493 0.0
C1316 C 0.7969 0.04318 0.24273 0.0
H1317 H 0.812 0.06362 0.36738 0.0
H1318 H 0.8254 0.07422 0.27801 0.0
S1319 S 0.75105 0.97815 0.25356 0.0
N1320 N 0.75585 0.98859 0.31535 0.0
N1321 N 0.76893 0.00125 0.21619 0.0
C1322 C 0.78032 0.01852 0.25385 0.0
C1323 C 0.77337 0.01148 0.3074 0.0
C1324 C 0.82676 0.51752 1.04073 0.0
C1325 C 0.80913 0.49637 1.06379 0.0
C1326 C 0.81746 0.5336 0.9978 0.0
C1327 C 0.7913 0.52702 0.97329 0.0
H1328 H 0.8483 0.52139 1.05527 0.0
H1329 H 0.83297 0.54744 0.97837 0.0
S1330 S 0.73211 0.48523 1.03307 0.0
N1331 N 0.76017 0.47812 1.07093 0.0
N1332 N 0.74374 0.507 0.98595 0.0
C1333 C 0.7715 0.5101 1.00114 0.0
C1334 C 0.78045 0.49446 1.04674 0.0
C1335 C 0.2385 0.06733 0.80769 0.0
C1336 C 0.25571 0.04579 0.82989 0.0
C1337 C 0.2261 0.06369 0.75845 0.0
C1338 C 0.23172 0.0389 0.72891 0.0
H1339 H 0.23534 0.08757 0.82803 0.0
H1340 H 0.21504 0.08184 0.74088 0.0
S1341 S 0.26797 0.97306 0.7766 0.0
N1342 N 0.27243 0.99649 0.82494 0.0
N1343 N 0.24995 0.99001 0.72954 0.0
C1344 C 0.24632 0.01596 0.75288 0.0
C1345 C 0.25848 0.01945 0.80404 0.0
C1346 C 0.72201 0.51298 0.51786 0.0
C1347 C 0.69464 0.51157 0.49497 0.0
C1348 C 0.72648 0.52938 0.56356 0.0
C1349 C 0.7035 0.54424 0.58765 0.0
H1350 H 0.73938 0.49992 0.50258 0.0
H1351 H 0.74693 0.52757 0.58369 0.0
S1352 S 0.62987 0.55291 0.53268 0.0
N1353 N 0.64641 0.53127 0.49118 0.0
N1354 N 0.65408 0.56104 0.57773 0.0
C1355 C 0.67733 0.54625 0.55983 0.0
C1356 C 0.67295 0.52978 0.5136 0.0
C1357 C 0.21533 0.9858 0.31283 0.0
C1358 C 0.20271 0.96194 0.33819 0.0
C1359 C 0.22547 0.98364 0.26075 0.0
C1360 C 0.22304 0.95766 0.23339 0.0
H1361 H 0.21996 0.00509 0.3351 0.0
H1362 H 0.23682 0.00158 0.24315 0.0
S1363 S 0.19202 0.88936 0.28156 0.0
N1364 N 0.1875 0.91212 0.33065 0.0
N1365 N 0.20701 0.90817 0.2336 0.0
C1366 C 0.2088 0.93445 0.25679 0.0
C1367 C 0.19817 0.93668 0.30898 0.0
C1368 C 0.71036 0.05144 1.06996 0.0
C1369 C 0.72553 0.02658 0.08398 0.0
C1370 C 0.70606 0.05861 1.01727 0.0
C1371 C 0.71606 0.04055 0.97712 0.0
H1372 H 0.69786 0.06267 0.09905 0.0
H1373 H 0.69052 0.07511 1.00819 0.0
S1374 S 0.76886 0.98184 0.99388 0.0
N1375 N 0.75923 0.99023 1.05481 0.0
N1376 N 0.75062 0.00339 0.95413 0.0
C1377 C 0.7363 0.01936 0.99038 0.0
C1378 C 0.7409 0.01217 1.04453 0.0
C1379 C 0.2085 0.47317 0.25393 0.0
C1380 C 0.23213 0.4681 0.22096 0.0
C1381 C 0.21158 0.47183 0.30871 0.0
C1382 C 0.23846 0.4669 0.33181 0.0
H1383 H 0.1871 0.47399 0.23734 0.0
H1384 H 0.19249 0.47171 0.33283 0.0
S1385 S 0.30662 0.45339 0.26328 0.0
N1386 N 0.28331 0.45863 0.21531 0.0
N1387 N 0.28919 0.4592 0.31851 0.0
C1388 C 0.26276 0.46588 0.2994 0.0
C1389 C 0.25958 0.46582 0.24362 0.0
C1390 C 0.7865 0.97386 0.50487 0.0
C1391 C 0.81382 0.96093 0.50043 0.0
C1392 C 0.77781 0.98686 0.5523 0.0
C1393 C 0.79569 0.98593 0.59673 0.0
H1394 H 0.77317 0.97694 0.47028 0.0
H1395 H 0.75806 0.99913 0.55325 0.0
S1396 S 0.86756 0.95266 0.60644 0.0
N1397 N 0.85623 0.94409 0.5469 0.0
N1398 N 0.84097 0.97031 0.63418 0.0
C1399 C 0.82142 0.97031 0.59426 0.0
C1400 C 0.82991 0.95675 0.54674 0.0
C1401 C 0.24106 0.53806 0.75906 0.0
C1402 C 0.2455 0.55572 0.71502 0.0
C1403 C 0.22647 0.54885 0.80344 0.0
C1404 C 0.21534 0.57713 0.80354 0.0
H1405 H 0.24971 0.51648 0.7599 0.0
H1406 H 0.22575 0.53575 0.83884 0.0
S1407 S 0.22102 0.63033 0.69601 0.0
N1408 N 0.23913 0.60254 0.67514 0.0
N1409 N 0.20653 0.6205 0.75258 0.0
C1410 C 0.21723 0.59344 0.75716 0.0
C1411 C 0.23414 0.58356 0.71485 0.0
C1412 C 0.31539 0.94914 0.5489 0.0
C1413 C 0.2938 0.95922 0.58295 0.0
C1414 C 0.31764 0.95969 0.49768 0.0
C1415 C 0.29801 0.97995 0.47848 0.0
H1416 H 0.33297 0.93618 0.56368 0.0
H1417 H 0.33629 0.95388 0.47442 0.0
S1418 S 0.23236 0.00542 0.54532 0.0
N1419 N 0.24839 0.98482 0.58971 0.0
N1420 N 0.25321 0.00532 0.49242 0.0
C1421 C 0.2743 0.98743 0.50936 0.0
C1422 C 0.27172 0.97632 0.56159 0.0
C1423 C 0.79988 0.55718 0.23994 0.0
C1424 C 0.77847 0.53724 0.22709 0.0
C1425 C 0.81157 0.5582 0.29018 0.0
C1426 C 0.79885 0.54235 0.33103 0.0
H1427 H 0.80508 0.57441 0.21291 0.0
H1428 H 0.82533 0.57623 0.29953 0.0
S1429 S 0.75299 0.47826 0.31277 0.0
N1430 N 0.75313 0.49412 0.25418 0.0
N1431 N 0.77277 0.49853 0.35216 0.0
C1432 C 0.78133 0.51899 0.31731 0.0
C1433 C 0.77066 0.51664 0.26472 0.0
C1434 C 0.19333 0.0501 1.0427 0.0
C1435 C 0.21278 0.03866 1.07955 0.0
C1436 C 0.18699 0.03444 0.99735 0.0
C1437 C 0.20263 0.00949 0.98509 0.0
H1438 H 0.17829 0.0666 1.05473 0.0
H1439 H 0.16843 0.04054 0.97402 0.0
S1440 S 0.27023 0.98655 1.04879 0.0
N1441 N 0.25688 0.01129 0.08873 0.0
N1442 N 0.24719 0.98334 0.99933 0.0
C1443 C 0.22772 0.0036 1.01344 0.0
C1444 C 0.23307 0.0188 1.06111 0.0
C1445 C 0.74379 0.48031 0.76026 0.0
C1446 C 0.73887 0.45522 0.73126 0.0
C1447 C 0.7334 0.48266 0.81203 0.0
C1448 C 0.71865 0.45962 0.83586 0.0
H1449 H 0.75653 0.49757 0.74359 0.0
H1450 H 0.73947 0.50119 0.83533 0.0
S1451 S 0.70425 0.38823 0.77744 0.0
N1452 N 0.71989 0.40673 0.72976 0.0
N1453 N 0.7008 0.41082 0.82709 0.0
C1454 C 0.71264 0.43499 0.80594 0.0
C1455 C 0.7231 0.43268 0.75371 0.0
C1456 C 0.15412 0.37014 0.41721 0.0
C1457 C 0.16282 0.38805 0.45959 0.0
C1458 C 0.14578 0.3806 0.36634 0.0
C1459 C 0.14408 0.41022 0.35291 0.0
H1460 H 0.15252 0.34729 0.42377 0.0
H1461 H 0.13917 0.36479 0.33747 0.0
S1462 S 0.16078 0.46775 0.44944 0.0
N1463 N 0.16775 0.43824 0.48356 0.0
N1464 N 0.15005 0.45764 0.39018 0.0
C1465 C 0.15206 0.42877 0.39495 0.0
C1466 C 0.16165 0.41792 0.44706 0.0
C1467 C 0.87944 0.89384 0.67337 0.0
C1468 C 0.8615 0.90724 0.71156 0.0
C1469 C 0.86971 0.88376 0.62319 0.0
C1470 C 0.84077 0.88557 0.6055 0.0
H1471 H 0.90192 0.89063 0.68245 0.0
H1472 H 0.88563 0.87401 0.59768 0.0
S1473 S 0.78214 0.91207 0.69326 0.0
N1474 N 0.81123 0.91763 0.72939 0.0
N1475 N 0.79306 0.89856 0.63622 0.0
C1476 C 0.82183 0.8977 0.64393 0.0
C1477 C 0.832 0.90836 0.69594 0.0
C1478 C 0.3695 0.62866 0.92664 0.0
C1479 C 0.3412 0.62389 0.94571 0.0
C1480 C 0.3803 0.61768 0.87803 0.0
C1481 C 0.3644 0.59994 0.84333 0.0
H1482 H 0.38421 0.64148 0.9498 0.0
H1483 H 0.40225 0.62316 0.86796 0.0
S1484 S 0.28597 0.58909 0.86047 0.0
N1485 N 0.29477 0.60657 0.91506 0.0
N1486 N 0.3158 0.58393 0.82643 0.0
C1487 C 0.33513 0.59673 0.85864 0.0
C1488 C 0.32349 0.60914 0.90831 0.0
C1489 C 0.63287 0.10612 0.11273 0.0
C1490 C 0.6621 0.11244 0.10229 0.0
C1491 C 0.62254 0.09668 0.16294 0.0
C1492 C 0.64047 0.09117 0.20712 0.0
H1493 H 0.6171 0.11006 0.08208 0.0
H1494 H 0.5996 0.09528 0.16772 0.0
S1495 S 0.71798 0.10953 0.20771 0.0
N1496 N 0.70854 0.1161 0.1458 0.0
N1497 N 0.68916 0.09719 0.23821 0.0
C1498 C 0.66979 0.09788 0.19824 0.0
C1499 C 0.68045 0.10857 0.14696 0.0
C1500 C 0.15951 0.57632 0.67218 0.0
C1501 C 0.14201 0.59331 0.70663 0.0
C1502 C 0.16924 0.58644 0.62046 0.0
C1503 C 0.16202 0.61409 0.5994 0.0
H1504 H 0.1652 0.55477 0.68442 0.0
H1505 H 0.18144 0.57191 0.59601 0.0
S1506 S 0.11632 0.66712 0.67138 0.0
N1507 N 0.11887 0.64004 0.71296 0.0
N1508 N 0.13518 0.65733 0.6194 0.0
C1509 C 0.14468 0.6308 0.63379 0.0
C1510 C 0.13542 0.62102 0.68574 0.0
C1511 C 0.64504 0.87634 0.86307 0.0
C1512 C 0.64119 0.90583 0.85053 0.0
C1513 C 0.65381 0.8661 0.9138 0.0
C1514 C 0.6602 0.88421 0.95725 0.0
H1515 H 0.63994 0.86039 0.83341 0.0
H1516 H 0.65405 0.84315 0.9196 0.0
S1517 S 0.64811 0.96301 0.95271 0.0
N1518 N 0.64153 0.95314 0.89103 0.0
N1519 N 0.65752 0.93375 0.98531 0.0
C1520 C 0.6558 0.91385 0.94642 0.0
C1521 C 0.6467 0.92456 0.89398 0.0
C1522 C 0.35124 0.41389 0.17971 0.0
C1523 C 0.36979 0.39718 0.2123 0.0
C1524 C 0.3413 0.40502 0.12767 0.0
C1525 C 0.34968 0.37861 0.10391 0.0
H1526 H 0.34481 0.43432 0.19407 0.0
H1527 H 0.32767 0.41941 0.10537 0.0
S1528 S 0.39497 0.32403 0.17345 0.0
N1529 N 0.39306 0.35057 0.2162 0.0
N1530 N 0.37636 0.33481 0.12174 0.0
C1531 C 0.36729 0.36125 0.13721 0.0
C1532 C 0.37671 0.37007 0.18974 0.0
C1533 C 0.8494 0.13475 0.408 0.0
C1534 C 0.84549 0.11725 0.45347 0.0
C1535 C 0.85891 0.12406 0.35805 0.0
C1536 C 0.86637 0.09494 0.34908 0.0
H1537 H 0.84631 0.1576 0.41135 0.0
H1538 H 0.86184 0.13945 0.3263 0.0
S1539 S 0.86634 0.04068 0.4577 0.0
N1540 N 0.85334 0.06944 0.487 0.0
N1541 N 0.87197 0.04936 0.39509 0.0
C1542 C 0.86367 0.07719 0.39495 0.0
C1543 C 0.85312 0.08818 0.44595 0.0
C1544 C 0.85549 0.57364 0.1697 0.0
C1545 C 0.86522 0.59222 0.21085 0.0
C1546 C 0.84413 0.58428 0.11977 0.0
C1547 C 0.84265 0.61404 0.10665 0.0
H1548 H 0.85711 0.55065 0.17547 0.0
H1549 H 0.83803 0.56899 0.08995 0.0
S1550 S 0.87105 0.67158 0.19489 0.0
N1551 N 0.87415 0.6423 0.23094 0.0
N1552 N 0.85715 0.66092 0.13836 0.0
C1553 C 0.85395 0.63228 0.14651 0.0
C1554 C 0.864 0.62183 0.1975 0.0
C1555 C 0.16754 0.08417 0.87231 0.0
C1556 C 0.13862 0.08828 0.855 0.0
C1557 C 0.17836 0.09525 0.92235 0.0
C1558 C 0.16074 0.11003 0.95977 0.0
H1559 H 0.1824 0.07375 0.84576 0.0
H1560 H 0.20096 0.09334 0.93045 0.0
S1561 S 0.08339 0.12668 0.93538 0.0
N1562 N 0.09348 0.11002 0.8811 0.0
N1563 N 0.11193 0.12676 0.97374 0.0
C1564 C 0.13167 0.113 0.94323 0.0
C1565 C 0.12125 0.10324 0.89207 0.0
C1566 C 0.65903 0.3698 0.64659 0.0
C1567 C 0.66597 0.38849 0.60409 0.0
C1568 C 0.64939 0.37933 0.69714 0.0
C1569 C 0.64543 0.40864 0.71062 0.0
H1570 H 0.65941 0.34693 0.64007 0.0
H1571 H 0.64396 0.36297 0.726 0.0
S1572 S 0.6537 0.46748 0.61162 0.0
N1573 N 0.66371 0.43865 0.5782 0.0
N1574 N 0.64629 0.45651 0.67237 0.0
C1575 C 0.6516 0.42799 0.66836 0.0
C1576 C 0.66145 0.41806 0.61595 0.0
C1577 C 0.36817 0.90104 0.4456 0.0
C1578 C 0.33886 0.89437 0.45474 0.0
C1579 C 0.37924 0.91015 0.39564 0.0
C1580 C 0.36212 0.91418 0.34981 0.0
H1581 H 0.38346 0.89773 0.47732 0.0
H1582 H 0.40217 0.91237 0.39261 0.0
S1583 S 0.28401 0.89687 0.34711 0.0
N1584 N 0.29287 0.89099 0.40955 0.0
N1585 N 0.31358 0.90792 0.31702 0.0
C1586 C 0.3326 0.90751 0.35767 0.0
C1587 C 0.32111 0.89798 0.40919 0.0
C1588 C 0.83947 0.41063 0.8711 0.0
C1589 C 0.86907 0.40995 0.85622 0.0
C1590 C 0.82915 0.4002 0.92196 0.0
C1591 C 0.84774 0.3896 0.96247 0.0
H1592 H 0.82381 0.41738 0.84199 0.0
H1593 H 0.8063 0.39845 0.92772 0.0
S1594 S 0.92653 0.38011 0.94353 0.0
N1595 N 0.91572 0.39376 0.88676 0.0
N1596 N 0.89761 0.37871 0.98091 0.0
C1597 C 0.87717 0.38939 0.94784 0.0
C1598 C 0.88734 0.39831 0.8959 0.0
C1599 C 0.34744 0.12922 0.64521 0.0
C1600 C 0.34238 0.11133 0.60081 0.0
C1601 C 0.35595 0.11893 0.69603 0.0
C1602 C 0.36178 0.08967 0.70736 0.0
H1603 H 0.34662 0.15214 0.64023 0.0
H1604 H 0.3598 0.13481 0.72646 0.0
S1605 S 0.35868 0.03318 0.60278 0.0
N1606 N 0.34718 0.06212 0.5714 0.0
N1607 N 0.36514 0.04306 0.66445 0.0
C1608 C 0.35785 0.07118 0.66285 0.0
C1609 C 0.34801 0.08181 0.61082 0.0
C1610 C 0.62147 0.60422 0.38993 0.0
C1611 C 0.6395 0.58826 0.35559 0.0
C1612 C 0.62988 0.61378 0.44108 0.0
C1613 C 0.65746 0.60887 0.46337 0.0
H1614 H 0.60019 0.61022 0.37666 0.0
H1615 H 0.61422 0.62609 0.46315 0.0
S1616 S 0.7142 0.56842 0.39165 0.0
N1617 N 0.68719 0.56776 0.34938 0.0
N1618 N 0.70317 0.58599 0.44466 0.0
C1619 C 0.67594 0.59242 0.43022 0.0
C1620 C 0.66704 0.58221 0.37729 0.0
C1621 C 0.15808 0.91539 0.11868 0.0
C1622 C 0.15519 0.88659 0.10012 0.0
C1623 C 0.14896 0.92451 0.17115 0.0
C1624 C 0.13565 0.90566 0.20833 0.0
H1625 H 0.16595 0.93148 0.09147 0.0
H1626 H 0.15158 0.94669 0.18207 0.0
S1627 S 0.1205 0.82855 0.17997 0.0
N1628 N 0.13558 0.84022 0.12504 0.0
N1629 N 0.12035 0.85628 0.22015 0.0
C1630 C 0.13277 0.87701 0.18982 0.0
C1631 C 0.1417 0.86795 0.13724 0.0
C1632 C 1.00001 0.52471 0.30821 0.0
C1633 C 0.97918 0.50296 0.3133 0.0
C1634 C 0.02432 0.52112 0.27614 0.0
C1635 C 0.02874 0.49561 0.24749 0.0
H1636 H 0.99703 0.54512 0.32791 0.0
H1637 H 0.04012 0.53817 0.27517 0.0
S1638 S 0.98031 0.43243 0.24513 0.0
N1639 N 0.96451 0.45508 0.28592 0.0
N1640 N 0.00989 0.44868 0.22525 0.0
C1641 C 0.00795 0.47388 0.25178 0.0
C1642 C 0.98341 0.47732 0.28498 0.0
C1643 C 0.7285 0.76808 0.52643 0.0
C1644 C 0.75401 0.77204 0.4973 0.0
C1645 C 0.72421 0.74349 0.55776 0.0
C1646 C 0.74531 0.72192 0.56196 0.0
H1647 H 0.71201 0.78448 0.52642 0.0
H1648 H 0.70388 0.74107 0.5781 0.0
S1649 S 0.81493 0.72102 0.48983 0.0
N1650 N 0.79986 0.75163 0.4721 0.0
N1651 N 0.79216 0.70563 0.53121 0.0
C1652 C 0.77077 0.72546 0.53232 0.0
C1653 C 0.77492 0.75035 0.4999 0.0
C1654 C 0.50707 0.47357 0.80778 0.0
C1655 C 0.52919 0.4942 0.80921 0.0
C1656 C 0.48139 0.47853 0.77984 0.0
C1657 C 0.47694 0.50419 0.75128 0.0
H1658 H 0.5097 0.45327 0.8281 0.0
H1659 H 0.4646 0.4625 0.78214 0.0
S1660 S 0.52947 0.56339 0.73534 0.0
N1661 N 0.54577 0.54021 0.77463 0.0
N1662 N 0.4978 0.5492 0.72237 0.0
C1663 C 0.49942 0.52426 0.75008 0.0
C1664 C 0.52541 0.51941 0.7789 0.0
C1665 C 0.77164 0.23063 1.03029 0.0
C1666 C 0.7479 0.22684 0.99645 0.0
C1667 C 0.77488 0.25568 1.0604 0.0
C1668 C 0.75454 0.27796 1.05818 0.0
H1669 H 0.78742 0.21374 1.03505 0.0
H1670 H 0.79378 0.25787 0.08499 0.0
S1671 S 0.68932 0.27926 0.97352 0.0
N1672 N 0.70417 0.24776 0.96169 0.0
N1673 N 0.71033 0.29501 1.01728 0.0
C1674 C 0.7308 0.27454 1.0242 0.0
C1675 C 0.72757 0.24902 0.99353 0.0
C1676 C 0.98235 0.51993 0.78741 0.0
C1677 C 0.97789 0.49649 0.75311 0.0
C1678 C 0.00803 0.52298 0.81612 0.0
C1679 C 0.03019 0.50255 0.8125 0.0
H1680 H 0.9657 0.53587 0.79299 0.0
H1681 H 0.01083 0.54187 0.84051 0.0
S1682 S 0.02974 0.43785 0.72683 0.0
N1683 N 0.99828 0.45311 0.71631 0.0
N1684 N 0.04617 0.45838 0.77045 0.0
C1685 C 0.02596 0.47897 0.77854 0.0
C1686 C 0.99999 0.47614 0.74882 0.0
C1687 C 0.73127 0.72772 1.04359 0.0
C1688 C 0.7532 0.72296 1.00609 0.0
C1689 C 0.72901 0.75389 1.0708 0.0
C1690 C 0.74881 0.77624 1.0624 0.0
H1691 H 0.71596 0.71094 1.05283 0.0
H1692 H 0.71115 0.75696 0.09773 0.0
S1693 S 0.8093 0.77518 0.96676 0.0
N1694 N 0.7943 0.74324 0.96066 0.0
N1695 N 0.79059 0.79211 1.0125 0.0
C1696 C 0.77088 0.77172 1.0252 0.0
C1697 C 0.77287 0.74524 0.99688 0.0
C1698 C 0.48264 0.51857 0.28496 0.0
C1699 C 0.47935 0.49289 0.31392 0.0
C1700 C 0.50737 0.52374 0.25436 0.0
C1701 C 0.52958 0.50328 0.25053 0.0
H1702 H 0.46565 0.53444 0.28449 0.0
H1703 H 0.50932 0.54415 0.23409 0.0
S1704 S 0.53226 0.43366 0.32273 0.0
N1705 N 0.50122 0.44789 0.34007 0.0
N1706 N 0.54707 0.45687 0.28156 0.0
C1707 C 0.52666 0.47773 0.28017 0.0
C1708 C 0.50182 0.47283 0.31218 0.0
C1709 C 0.73124 0.22768 0.50616 0.0
C1710 C 0.75338 0.22041 0.54185 0.0
C1711 C 0.72926 0.25496 0.48342 0.0
C1712 C 0.74961 0.27624 0.49439 0.0
H1713 H 0.71523 0.21195 0.49492 0.0
H1714 H 0.71121 0.25952 0.45788 0.0
S1715 S 0.80856 0.27053 0.59276 0.0
N1716 N 0.79322 0.23856 0.59348 0.0
N1717 N 0.79084 0.28949 0.54829 0.0
C1718 C 0.77123 0.26987 0.53173 0.0
C1719 C 0.77265 0.24215 0.55628 0.0
C1720 C 0.27813 0.25338 0.99753 0.0
C1721 C 0.25843 0.2761 1.00202 0.0
C1722 C 0.27507 0.22824 1.02762 0.0
C1723 C 0.25225 0.22494 1.06375 0.0
H1724 H 0.29632 0.25525 0.97102 0.0
H1725 H 0.29009 0.21086 1.02092 0.0
S1726 S 0.19594 0.27861 0.09358 0.0
N1727 N 0.21605 0.29414 1.04792 0.0
N1728 N 0.21026 0.24664 0.10367 0.0
C1729 C 0.23272 0.24762 1.06937 0.0
C1730 C 0.23572 0.27319 1.03865 0.0
C1731 C 0.26519 0.72854 0.54264 0.0
C1732 C 0.24747 0.72534 0.49774 0.0
C1733 C 0.26766 0.75492 0.56888 0.0
C1734 C 0.25218 0.77902 0.55182 0.0
H1735 H 0.27678 0.7103 0.55855 0.0
H1736 H 0.28197 0.75647 0.60245 0.0
S1737 S 0.20449 0.78248 0.43403 0.0
N1738 N 0.21499 0.74863 0.43643 0.0
N1739 N 0.22015 0.79857 0.48451 0.0
C1740 C 0.2349 0.77628 0.50615 0.0
C1741 C 0.2323 0.74934 0.47963 0.0
C1742 C 0.2763 0.24255 0.50238 0.0
C1743 C 0.2551 0.22109 0.49841 0.0
C1744 C 0.27178 0.26772 0.53167 0.0
C1745 C 0.24582 0.27257 0.55885 0.0
H1746 H 0.29703 0.23955 0.4839 0.0
H1747 H 0.28861 0.28375 0.53187 0.0
S1748 S 0.18444 0.22198 0.56678 0.0
N1749 N 0.20774 0.20567 0.52783 0.0
N1750 N 0.19931 0.25294 0.58258 0.0
C1751 C 0.22467 0.25104 0.55633 0.0
C1752 C 0.22919 0.22543 0.52618 0.0
C1753 C 0.27477 0.75352 1.06412 0.0
C1754 C 0.25396 0.73179 1.06949 0.0
C1755 C 0.2703 0.77737 1.03112 0.0
C1756 C 0.24481 0.78048 1.00164 0.0
H1757 H 0.29525 0.75142 0.08398 0.0
H1758 H 0.28681 0.79372 1.02964 0.0
S1759 S 0.18375 0.72931 1.00007 0.0
N1760 N 0.20684 0.71494 1.04192 0.0
N1761 N 0.19879 0.75937 0.97934 0.0
C1762 C 0.22391 0.75883 1.00648 0.0
C1763 C 0.22825 0.73476 1.04072 0.0
C1764 C 0.48361 0.97751 0.78395 0.0
C1765 C 0.47841 0.00461 0.8067 0.0
C1766 C 0.50803 0.97246 0.75275 0.0
C1767 C 0.52843 0.99418 0.74297 0.0
H1768 H 0.46837 0.96016 0.78908 0.0
H1769 H 0.51144 0.95104 0.73738 0.0
S1770 S 0.5251 0.06886 0.79371 0.0
N1771 N 0.49605 0.05325 0.81763 0.0
N1772 N 0.54156 0.04402 0.75855 0.0
C1773 C 0.52338 0.02144 0.765 0.0
C1774 C 0.49866 0.02646 0.79725 0.0
C1775 C 0.02551 0.02158 0.27549 0.0
C1776 C 0.02735 0.9985 0.31148 0.0
C1777 C 1.00125 0.02539 0.24326 0.0
C1778 C 0.97805 0.00606 0.24494 0.0
H1779 H 0.04329 0.03637 0.27085 0.0
H1780 H 1.00036 0.04406 0.21771 0.0
S1781 S 0.97136 0.94359 0.33597 0.0
N1782 N 0.0033 0.95716 0.34911 0.0
N1783 N 0.95781 0.964 0.28869 0.0
C1784 C 0.97949 0.98315 0.28144 0.0
C1785 C 0.00403 0.97954 0.31466 0.0
C1786 C 0.48578 0.01912 0.27461 0.0
C1787 C 0.47977 0.99397 0.24578 0.0
C1788 C 0.51154 0.02222 0.30282 0.0
C1789 C 0.53249 1.00043 0.30339 0.0
H1790 H 0.47014 0.03629 0.27682 0.0
H1791 H 0.51535 0.04214 0.32357 0.0
S1792 S 0.52738 0.93055 0.2337 0.0
N1793 N 0.4971 0.94715 0.21898 0.0
N1794 N 0.54531 0.95271 0.27232 0.0
C1795 C 0.52668 0.97512 0.27499 0.0
C1796 C 0.50053 0.97209 0.24589 0.0
C1797 C 0.99418 0.97729 0.80435 0.0
C1798 C 0.97239 0.99821 0.80274 0.0
C1799 C 0.02009 0.98085 0.77653 0.0
C1800 C 0.02523 0.00537 0.74513 0.0
H1801 H 0.99104 0.95772 0.82677 0.0
H1802 H 0.03651 0.96456 0.781 0.0
S1803 S 0.97405 0.06505 0.72241 0.0
N1804 N 0.95707 0.04355 0.76393 0.0
N1805 N 0.00558 0.04996 0.71143 0.0
C1806 C 0.00334 0.02606 0.74196 0.0
C1807 C 0.97705 0.02261 0.77077 0.0
C1808 C 0.99913 0.42078 0.93274 0.0
C1809 C 0.99086 0.42996 0.98344 0.0
C1810 C 0.98282 0.42759 0.88767 0.0
C1811 C 0.95711 0.44366 0.89092 0.0
H1812 H 0.01848 0.40816 0.92777 0.0
H1813 H 0.99038 0.41965 0.84992 0.0
S1814 S 0.92595 0.47308 1.01477 0.0
N1815 N 0.95544 0.45647 1.03443 0.0
N1816 N 0.92454 0.46894 0.94992 0.0
C1817 C 0.94884 0.45351 0.94139 0.0
C1818 C 0.9657 0.44672 0.98746 0.0
C1819 C 0.8235 0.72919 0.13846 0.0
C1820 C 0.80821 0.70312 0.14261 0.0
C1821 C 0.83057 0.74552 0.18319 0.0
C1822 C 0.82274 0.73667 0.23447 0.0
H1823 H 0.83068 0.73698 0.10027 0.0
H1824 H 0.84303 0.76492 0.17753 0.0
S1825 S 0.7803 0.67147 0.26749 0.0
N1826 N 0.784 0.6701 0.20254 0.0
N1827 N 0.79692 0.70103 0.28651 0.0
C1828 C 0.80652 0.7112 0.23928 0.0
C1829 C 0.79925 0.69448 0.19349 0.0
C1830 C 0.56084 0.55729 0.43607 0.0
C1831 C 0.55113 0.56475 0.38508 0.0
C1832 C 0.54461 0.56406 0.48146 0.0
C1833 C 0.51819 0.57866 0.47748 0.0
H1834 H 0.58127 0.54652 0.44105 0.0
H1835 H 0.55299 0.55822 0.51998 0.0
S1836 S 0.48154 0.60021 0.35353 0.0
N1837 N 0.51203 0.58573 0.33371 0.0
N1838 N 0.48207 0.59837 0.41872 0.0
C1839 C 0.50793 0.58555 0.42688 0.0
C1840 C 0.52424 0.57862 0.3808 0.0
C1841 C 0.69412 0.28997 0.73417 0.0
C1842 C 0.67871 0.26398 0.7306 0.0
C1843 C 0.70129 0.30597 0.6885 0.0
C1844 C 0.69353 0.29639 0.6376 0.0
H1845 H 0.70013 0.29827 0.7726 0.0
H1846 H 0.71237 0.32624 0.69325 0.0
S1847 S 0.65662 0.22736 0.60729 0.0
N1848 N 0.65825 0.22818 0.67246 0.0
N1849 N 0.67198 0.25734 0.58696 0.0
C1850 C 0.67926 0.26964 0.63382 0.0
C1851 C 0.67177 0.2537 0.68017 0.0
C1852 C 0.95239 0.54634 0.12364 0.0
C1853 C 0.95523 0.56304 0.16979 0.0
C1854 C 0.96861 0.55246 1.07773 0.0
C1855 C 0.98838 0.57541 1.07634 0.0
H1856 H 0.93785 0.52819 0.12309 0.0
H1857 H 0.966 0.53885 1.04338 0.0
S1858 S 0.00205 0.62738 0.18429 0.0
N1859 N 0.97826 0.60488 0.20925 0.0
N1860 N 0.00838 0.61594 0.12369 0.0
C1861 C 0.9909 0.59258 0.12164 0.0
C1862 C 0.97444 0.58654 0.16807 0.0
C1863 C 0.70018 0.69103 0.37427 0.0
C1864 C 0.68732 0.69809 0.42309 0.0
C1865 C 0.69456 0.70724 0.32803 0.0
C1866 C 0.6761 0.73127 0.32891 0.0
H1867 H 0.71461 0.67286 0.37163 0.0
H1868 H 0.70495 0.70107 0.29142 0.0
S1869 S 0.63626 0.75862 0.44546 0.0
N1870 N 0.6547 0.73105 0.46831 0.0
N1871 N 0.64436 0.7607 0.38209 0.0
C1872 C 0.66311 0.73846 0.3772 0.0
C1873 C 0.66865 0.72211 0.42399 0.0
C1874 C 0.56114 0.44634 0.62241 0.0
C1875 C 0.55441 0.43433 0.67214 0.0
C1876 C 0.54531 0.43904 0.57673 0.0
C1877 C 0.52208 0.41962 0.57922 0.0
H1878 H 0.57872 0.46144 0.61868 0.0
H1879 H 0.55102 0.44894 0.53936 0.0
S1880 S 0.49641 0.38083 0.69843 0.0
N1881 N 0.52294 0.4011 0.71986 0.0
N1882 N 0.49416 0.38748 0.63453 0.0
C1883 C 0.51546 0.4072 0.62829 0.0
C1884 C 0.53135 0.41452 0.67453 0.0
C1885 C 0.83346 0.28041 0.91696 0.0
C1886 C 0.81314 0.30297 0.91627 0.0
C1887 C 0.8398 0.26432 0.87166 0.0
C1888 C 0.82602 0.26972 0.82332 0.0
H1889 H 0.84478 0.27487 0.95297 0.0
H1890 H 0.85541 0.24714 0.87477 0.0
S1891 S 0.77167 0.32652 0.7985 0.0
N1892 N 0.77963 0.3301 0.86185 0.0
N1893 N 0.79144 0.29956 0.77665 0.0
C1894 C 0.80567 0.29214 0.82154 0.0
C1895 C 0.79932 0.30883 0.86787 0.0
C1896 C 0.06359 0.55324 0.61808 0.0
C1897 C 0.05291 0.5589 0.66918 0.0
C1898 C 0.04733 0.55993 0.57251 0.0
C1899 C 0.0199 0.57265 0.57643 0.0
H1900 H 0.08486 0.54422 0.61316 0.0
H1901 H 0.05654 0.55572 0.53393 0.0
S1902 S 0.98031 0.58797 0.70042 0.0
N1903 N 0.01162 0.57538 0.72032 0.0
N1904 N 0.98171 0.58787 0.63521 0.0
C1905 C 0.00858 0.57728 0.62711 0.0
C1906 C 0.02489 0.57044 0.67327 0.0
C1907 C 0.19784 0.30308 0.37331 0.0
C1908 C 0.18599 0.29571 0.4229 0.0
C1909 C 0.19204 0.28668 0.32761 0.0
C1910 C 0.17447 0.26203 0.32982 0.0
H1911 H 0.21158 0.32173 0.3696 0.0
H1912 H 0.20164 0.29313 0.29039 0.0
S1913 S 0.13694 0.234 0.44855 0.0
N1914 N 0.15474 0.26226 0.47009 0.0
N1915 N 0.14446 0.23175 0.38494 0.0
C1916 C 0.1624 0.25455 0.37883 0.0
C1917 C 0.16797 0.27128 0.42507 0.0
C1918 C 0.48623 0.42362 0.17606 0.0
C1919 C 0.45701 0.43149 0.17299 0.0
C1920 C 0.50238 0.4173 0.13055 0.0
C1921 C 0.49008 0.41851 1.07977 0.0
H1922 H 0.49688 0.42242 0.21408 0.0
H1923 H 0.5248 0.41163 0.13517 0.0
S1924 S 0.414 0.43632 1.04985 0.0
N1925 N 0.41623 0.43919 0.11484 0.0
N1926 N 0.44647 0.42727 1.02931 0.0
C1927 C 0.46086 0.42631 1.07601 0.0
C1928 C 0.44439 0.43279 0.12252 0.0
C1929 C 0.30603 0.71613 0.82185 0.0
C1930 C 0.32152 0.74212 0.82343 0.0
C1931 C 0.29911 0.70104 0.86864 0.0
C1932 C 0.30722 0.71159 0.91864 0.0
H1933 H 0.2998 0.70709 0.78413 0.0
H1934 H 0.28796 0.6807 0.86548 0.0
S1935 S 0.34471 0.78086 0.94386 0.0
N1936 N 0.3425 0.77894 0.87883 0.0
N1937 N 0.32943 0.7513 0.96637 0.0
C1938 C 0.32166 0.73828 0.92046 0.0
C1939 C 0.32883 0.75334 0.87301 0.0
C1940 C 0.03156 0.41974 0.391 0.0
C1941 C 0.05452 0.43956 0.39241 0.0
C1942 C 0.01567 0.41277 0.43647 0.0
C1943 C 0.02173 0.42543 0.48561 0.0
H1944 H 0.02562 0.40935 0.35432 0.0
H1945 H 0.99821 0.39753 0.43294 0.0
S1946 S 0.07957 0.47839 0.51203 0.0
N1947 N 0.08249 0.47162 0.44812 0.0
N1948 N 0.05247 0.45862 0.53342 0.0
C1949 C 0.04444 0.44542 0.48789 0.0
C1950 C 0.06085 0.45241 0.44147 0.0
C1951 C 0.32781 0.27162 0.14044 0.0
C1952 C 0.31673 0.29981 0.14242 0.0
C1953 C 0.33519 0.2565 0.18654 0.0
C1954 C 0.33175 0.26877 0.23687 0.0
H1955 H 0.33093 0.261 0.10279 0.0
H1956 H 0.34346 0.23487 0.18271 0.0
S1957 S 0.30477 0.34223 0.26451 0.0
N1958 N 0.30331 0.33957 0.1994 0.0
N1959 N 0.3171 0.31107 0.28614 0.0
C1960 C 0.32055 0.29684 0.23972 0.0
C1961 C 0.31304 0.31234 0.19257 0.0
C1962 C 0.50619 0.5695 0.92466 0.0
C1963 C 0.49562 0.57909 0.97368 0.0
C1964 C 0.48746 0.56408 0.88195 0.0
C1965 C 0.45745 0.56778 0.8864 0.0
H1966 H 0.529 0.56597 0.9194 0.0
H1967 H 0.49657 0.55693 0.84503 0.0
S1968 S 0.4201 0.59708 1.00433 0.0
N1969 N 0.45391 0.59474 1.02284 0.0
N1970 N 0.41913 0.58508 0.94287 0.0
C1971 C 0.44701 0.57828 0.93485 0.0
C1972 C 0.46597 0.58375 0.97829 0.0
C1973 C 0.1774 0.71058 0.72742 0.0
C1974 C 0.17332 0.74032 0.72217 0.0
C1975 C 0.18416 0.6934 0.68337 0.0
C1976 C 0.18849 0.70512 0.6327 0.0
H1977 H 0.1742 0.70033 0.76549 0.0
H1978 H 0.18354 0.67066 0.68851 0.0
S1979 S 0.17814 0.78202 0.59766 0.0
N1980 N 0.17213 0.78081 0.66199 0.0
N1981 N 0.18599 0.74882 0.57986 0.0
C1982 C 0.18394 0.73497 0.62704 0.0
C1983 C 0.17632 0.75243 0.6716 0.0
C1984 C 0.47932 0.91803 0.38493 0.0
C1985 C 0.45629 0.93771 0.38683 0.0
C1986 C 0.49561 0.91133 0.43001 0.0
C1987 C 0.48967 0.92388 0.47936 0.0
H1988 H 0.48484 0.90736 0.34828 0.0
H1989 H 0.51271 0.89568 0.42631 0.0
S1990 S 0.43316 0.9783 0.50583 0.0
N1991 N 0.42931 0.9707 0.44244 0.0
N1992 N 0.46009 0.95825 0.52697 0.0
C1993 C 0.46712 0.94405 0.48187 0.0
C1994 C 0.45047 0.95096 0.43577 0.0
C1995 C 0.33536 0.21693 0.64271 0.0
C1996 C 0.31188 0.19784 0.64015 0.0
C1997 C 0.34174 0.23228 0.68868 0.0
C1998 C 0.32494 0.22949 0.73456 0.0
H1999 H 0.34942 0.21989 0.60898 0.0
H2000 H 0.36038 0.2462 0.68841 0.0
S2001 S 0.26004 0.1837 0.74859 0.0
N2002 N 0.27118 0.17762 0.68754 0.0
N2003 N 0.28292 0.20695 0.77418 0.0
C2004 C 0.30118 0.21069 0.73279 0.0
C2005 C 0.29471 0.1948 0.68563 0.0
C2006 C 0.04286 0.06154 0.98365 0.0
C2007 C 0.01751 0.07802 0.98059 0.0
C2008 C 0.05819 0.05372 0.93778 0.0
C2009 C 0.04866 0.06202 0.88712 0.0
H2010 H 0.05126 0.05519 1.02187 0.0
H2011 H 0.07801 0.04179 0.94221 0.0
S2012 S 0.98136 0.10218 0.85773 0.0
N2013 N 0.98223 0.10007 0.92285 0.0
N2014 N 0.01063 0.0857 0.83703 0.0
C2015 C 0.02266 0.07757 0.88371 0.0
C2016 C 0.00723 0.08551 0.93027 0.0
C2017 C 0.16893 0.77505 0.13168 0.0
C2018 C 0.18722 0.79921 0.13389 0.0
C2019 C 0.16318 0.75822 0.17657 0.0
C2020 C 0.17535 0.76474 0.22594 0.0
H2021 H 0.15844 0.7692 0.09505 0.0
H2022 H 0.14852 0.74029 0.17278 0.0
S2023 S 0.22748 0.82316 0.25268 0.0
N2024 N 0.21932 0.82723 0.1895 0.0
N2025 N 0.20849 0.79545 0.27374 0.0
C2026 C 0.19439 0.78818 0.22869 0.0
C2027 C 0.20037 0.80538 0.18278 0.0
C2028 C 0.46864 0.05006 0.57802 0.0
C2029 C 0.48536 0.07524 0.57399 0.0
C2030 C 0.45225 0.04406 0.62368 0.0
C2031 C 0.45197 0.06306 0.66694 0.0
H2032 H 0.46863 0.03465 0.54599 0.0
H2033 H 0.44019 0.0242 0.62542 0.0
S2034 S 0.48967 0.13344 0.67351 0.0
N2035 N 0.49882 0.12019 0.61545 0.0
N2036 N 0.46843 0.10922 0.70071 0.0
C2037 C 0.46801 0.0887 0.66251 0.0
C2038 C 0.4846 0.09469 0.61629 0.0
C2039 C 0.1907 0.2083 0.82455 0.0
C2040 C 0.17704 0.23524 0.82839 0.0
C2041 C 0.19841 0.19255 0.87019 0.0
C2042 C 0.1929 0.20332 0.92126 0.0
H2043 H 0.1949 0.1991 0.786 0.0
H2044 H 0.20816 0.1716 0.8654 0.0
S2045 S 0.16102 0.27476 0.9519 0.0
N2046 N 0.16064 0.27302 0.88674 0.0
N2047 N 0.17517 0.24418 0.97207 0.0
C2048 C 0.18029 0.23088 0.92516 0.0
C2049 C 0.17234 0.24662 0.87891 0.0
C2050 C 0.0596 0.94701 0.11957 0.0
C2051 C 0.04848 0.94036 0.17003 0.0
C2052 C 0.0442 0.94037 1.07303 0.0
C2053 C 0.01722 0.92663 1.07518 0.0
H2054 H 0.08057 0.95688 0.11589 0.0
H2055 H 0.05374 0.94546 1.03505 0.0
S2056 S 0.9769 0.90763 0.19679 0.0
N2057 N 0.00734 0.92129 0.21859 0.0
N2058 N 0.97906 0.90888 0.13169 0.0
C2059 C 0.0055 0.92076 0.12519 0.0
C2060 C 0.02094 0.9276 0.17237 0.0
C2061 C 0.29184 0.80333 0.36957 0.0
C2062 C 0.31112 0.80573 0.41228 0.0
C2063 C 0.29889 0.78701 0.32429 0.0
C2064 C 0.3254 0.77243 0.32021 0.0
H2065 H 0.27097 0.81355 0.3716 0.0
H2066 H 0.28329 0.78532 0.29271 0.0
S2067 S 0.38472 0.77464 0.41783 0.0
N2068 N 0.35896 0.79399 0.4449 0.0
N2069 N 0.37173 0.76353 0.36076 0.0
C2070 C 0.34508 0.77545 0.36182 0.0
C2071 C 0.33808 0.79204 0.40749 0.0
C2072 C 0.50806 0.07698 0.12409 0.0
C2073 C 0.51901 0.07336 1.07272 0.0
C2074 C 0.52431 0.06968 0.169 0.0
C2075 C 0.55243 0.05845 0.16493 0.0
H2076 H 0.48663 0.08553 0.12968 0.0
H2077 H 0.51465 0.07316 0.20745 0.0
S2078 S 0.59171 0.04614 1.03913 0.0
N2079 N 0.56008 0.05851 1.02013 0.0
N2080 N 0.59051 0.04443 0.10439 0.0
C2081 C 0.56353 0.05431 0.11361 0.0
C2082 C 0.54692 0.0619 1.06768 0.0
C2083 C 0.68881 0.7907 0.82429 0.0
C2084 C 0.67643 0.76311 0.82763 0.0
C2085 C 0.69607 0.8063 0.87022 0.0
C2086 C 0.69122 0.79483 0.92111 0.0
H2087 H 0.69221 0.80058 0.78596 0.0
H2088 H 0.70465 0.82779 0.86582 0.0
S2089 S 0.66373 0.72139 0.95042 0.0
N2090 N 0.66274 0.7238 0.88532 0.0
N2091 N 0.67624 0.75252 0.97113 0.0
C2092 C 0.68026 0.76657 0.92449 0.0
C2093 C 0.67286 0.75091 0.87796 0.0
C2094 C 0.97749 0.90683 0.61554 0.0
C2095 C 0.97718 0.9251 0.57117 0.0
C2096 C 0.96177 0.91327 0.66129 0.0
C2097 C 0.9449 0.93832 0.66517 0.0
H2098 H 0.99051 0.88756 0.61548 0.0
H2099 H 0.96301 0.89834 0.69413 0.0
S2100 S 0.93625 0.99337 0.56018 0.0
N2101 N 0.95769 0.96914 0.53347 0.0
N2102 N 0.92926 0.98186 0.62069 0.0
C2103 C 0.94428 0.95687 0.62122 0.0
C2104 C 0.96016 0.95016 0.5741 0.0
C2105 C 0.80635 0.20965 0.32586 0.0
C2106 C 0.82398 0.23429 0.32794 0.0
C2107 C 0.79922 0.19399 0.37201 0.0
C2108 C 0.80952 0.2023 0.4221 0.0
H2109 H 0.79786 0.20249 0.28826 0.0
H2110 H 0.78575 0.17516 0.36832 0.0
S2111 S 0.85809 0.2644 0.44825 0.0
N2112 N 0.85263 0.26534 0.38386 0.0
N2113 N 0.83928 0.2368 0.46994 0.0
C2114 C 0.82733 0.22695 0.42436 0.0
C2115 C 0.83455 0.24267 0.37757 0.0
C2116 C 0.52589 0.91725 0.88465 0.0
C2117 C 0.54955 0.93621 0.88738 0.0
C2118 C 0.50908 0.91069 0.92926 0.0
C2119 C 0.51519 0.92249 0.97912 0.0
H2120 H 0.52015 0.90714 0.8476 0.0
H2121 H 0.49139 0.89579 0.92481 0.0
S2122 S 0.57324 0.97462 1.00819 0.0
N2123 N 0.57704 0.96787 0.94445 0.0
N2124 N 0.54574 0.95509 1.02839 0.0
C2125 C 0.53843 0.94177 0.98261 0.0
C2126 C 0.55545 0.94876 0.93686 0.0
C2127 C 0.80031 0.80534 0.69021 0.0
C2128 C 0.81119 0.79694 0.64052 0.0
C2129 C 0.80703 0.78981 0.73672 0.0
C2130 C 0.82461 0.76515 0.73511 0.0
H2131 H 0.78667 0.8241 0.69332 0.0
H2132 H 0.79816 0.79692 0.77408 0.0
S2133 S 0.85977 0.73456 0.61639 0.0
N2134 N 0.84143 0.76228 0.5939 0.0
N2135 N 0.85362 0.73379 0.68059 0.0
C2136 C 0.83575 0.7567 0.68605 0.0
C2137 C 0.82917 0.77238 0.63903 0.0
C2138 C 0.96633 0.05885 0.48171 0.0
C2139 C 0.98972 0.07809 0.48039 0.0
C2140 C 0.95071 0.05206 0.43542 0.0
C2141 C 0.95763 0.06465 0.38622 0.0
H2142 H 0.96035 0.04875 0.51869 0.0
H2143 H 0.93314 0.03692 0.43831 0.0
S2144 S 0.016 0.1182 0.36325 0.0
N2145 N 0.01812 0.11057 0.42683 0.0
N2146 N 0.98936 0.09845 0.34056 0.0
C2147 C 0.9808 0.0844 0.3851 0.0
C2148 C 0.99663 0.09097 0.4319 0.0
C2149 C 0.69881 0.19674 0.18847 0.0
C2150 C 0.69015 0.20597 0.13779 0.0
C2151 C 0.69198 0.21271 0.23417 0.0
C2152 C 0.67611 0.23844 0.23099 0.0
H2153 H 0.71061 0.17687 0.19305 0.0
H2154 H 0.69878 0.20462 0.27238 0.0
S2155 S 0.65107 0.27388 0.10804 0.0
N2156 N 0.66658 0.24405 0.08758 0.0
N2157 N 0.65399 0.27355 0.17306 0.0
C2158 C 0.66807 0.24831 0.18067 0.0
C2159 C 0.67503 0.23224 0.13426 0.0
C2160 C 0.11905 0.52965 1.02024 0.0
C2161 C 0.1151 0.51194 0.97512 0.0
C2162 C 0.11953 0.51852 1.07327 0.0
C2163 C 0.11519 0.48899 0.08515 0.0
H2164 H 0.12179 0.55254 1.01462 0.0
H2165 H 0.1225 0.53351 0.10548 0.0
S2166 S 0.10161 0.43329 0.98244 0.0
N2167 N 0.10589 0.46299 0.94752 0.0
N2168 N 0.10566 0.44259 1.04499 0.0
C2169 C 0.11079 0.47119 1.04028 0.0
C2170 C 0.11103 0.48241 0.98638 0.0
C2171 C 0.74547 0.88056 0.25226 0.0
C2172 C 0.73882 0.85497 0.2242 0.0
C2173 C 0.75667 0.88037 0.3054 0.0
C2174 C 0.76298 0.85456 0.3333 0.0
H2175 H 0.74145 0.90107 0.23342 0.0
H2176 H 0.76088 0.90074 0.32444 0.0
S2177 S 0.75051 0.78148 0.27848 0.0
N2178 N 0.73971 0.80299 0.2304 0.0
N2179 N 0.76155 0.80263 0.32672 0.0
C2180 C 0.75688 0.82897 0.30518 0.0
C2181 C 0.74469 0.82917 0.25211 0.0
C2182 C 0.41521 0.48733 0.57302 0.0
C2183 C 0.39563 0.50926 0.58796 0.0
C2184 C 0.41579 0.47483 0.52103 0.0
C2185 C 0.39689 0.48313 0.4794 0.0
H2186 H 0.43081 0.47996 0.60175 0.0
H2187 H 0.43191 0.45875 0.51314 0.0
S2188 S 0.34083 0.53962 0.49638 0.0
N2189 N 0.3565 0.53856 0.555 0.0
N2190 N 0.35737 0.51549 0.45942 0.0
C2191 C 0.37706 0.50504 0.49402 0.0
C2192 C 0.37652 0.51784 0.54708 0.0
C2193 C 0.73607 0.13666 0.73836 0.0
C2194 C 0.76575 0.14048 0.72696 0.0
C2195 C 0.72461 0.13733 0.79116 0.0
C2196 C 0.74205 0.1411 0.83676 0.0
H2197 H 0.7212 0.13373 0.70591 0.0
H2198 H 0.70166 0.13484 0.7962 0.0
S2199 S 0.82097 0.15353 0.83094 0.0
N2200 N 0.81201 0.14946 0.7682 0.0
N2201 N 0.791 0.14973 0.86524 0.0
C2202 C 0.77173 0.14476 0.82601 0.0
C2203 C 0.78332 0.14471 0.77228 0.0
C2204 C 0.89132 0.51573 0.57272 0.0
C2205 C 0.89574 0.48612 0.58377 0.0
C2206 C 0.89128 0.52726 0.52004 0.0
C2207 C 0.89473 0.5099 0.47436 0.0
H2208 H 0.88859 0.5305 0.60535 0.0
H2209 H 0.88851 0.55019 0.51513 0.0
S2210 S 0.90804 0.43116 0.47923 0.0
N2211 N 0.90472 0.43999 0.54219 0.0
N2212 N 0.90349 0.46112 0.44518 0.0
C2213 C 0.89885 0.48026 0.48472 0.0
C2214 C 0.89965 0.46863 0.53835 0.0
C2215 C 0.25251 0.1172 0.24934 0.0
C2216 C 0.24406 0.14275 0.2228 0.0
C2217 C 0.26384 0.11729 0.30224 0.0
C2218 C 0.2685 0.14301 0.33114 0.0
H2219 H 0.24981 0.09681 0.22955 0.0
H2220 H 0.26942 0.09695 0.32034 0.0
S2221 S 0.25076 0.21594 0.28053 0.0
N2222 N 0.24137 0.19458 0.23146 0.0
N2223 N 0.26345 0.19478 0.32754 0.0
C2224 C 0.26057 0.16859 0.30461 0.0
C2225 C 0.24826 0.16844 0.25179 0.0
C2226 C 0.61632 0.51544 0.98786 0.0
C2227 C 0.61412 0.48557 0.9776 0.0
C2228 C 0.61614 0.52702 1.0403 0.0
C2229 C 0.6147 0.50952 0.08631 0.0
H2230 H 0.61728 0.53028 0.95487 0.0
H2231 H 0.61704 0.55011 1.04474 0.0
S2232 S 0.60848 0.42989 0.08314 0.0
N2233 N 0.60996 0.43888 1.01994 0.0
N2234 N 0.61079 0.46022 0.11664 0.0
C2235 C 0.61305 0.47961 1.07667 0.0
C2236 C 0.61245 0.46787 1.02329 0.0
C2237 C 0.2651 0.8664 0.8193 0.0
C2238 C 0.23552 0.86158 0.83031 0.0
C2239 C 0.27674 0.8659 0.76659 0.0
C2240 C 0.25951 0.86137 0.72094 0.0
H2241 H 0.27971 0.86987 0.85196 0.0
H2242 H 0.2996 0.8692 0.76164 0.0
S2243 S 0.18089 0.84705 0.726 0.0
N2244 N 0.18962 0.85136 0.78877 0.0
N2245 N 0.21087 0.85144 0.69202 0.0
C2246 C 0.22993 0.85687 0.7314 0.0
C2247 C 0.21823 0.85669 0.78492 0.0
C2248 C 0.61257 0.96872 0.53512 0.0
C2249 C 0.61197 0.98587 0.58163 0.0
C2250 C 0.61292 0.98069 0.48253 0.0
C2251 C 0.61174 0.01074 0.47228 0.0
H2252 H 0.61286 0.94558 0.53925 0.0
H2253 H 0.61329 0.96602 0.44938 0.0
S2254 S 0.60908 0.0658 0.57886 0.0
N2255 N 0.61024 0.03522 0.61199 0.0
N2256 N 0.60971 0.05714 0.51554 0.0
C2257 C 0.61089 0.02805 0.51845 0.0
C2258 C 0.61134 0.01592 0.57187 0.0
C2259 C 0.22613 0.35528 0.77147 0.0
C2260 C 0.24279 0.35524 0.72429 0.0
C2261 C 0.23867 0.35588 0.82339 0.0
C2262 C 0.26884 0.3556 0.83225 0.0
H2263 H 0.20295 0.3549 0.76839 0.0
H2264 H 0.22437 0.35579 0.85719 0.0
S2265 S 0.32281 0.35464 0.72348 0.0
N2266 N 0.29184 0.3549 0.69166 0.0
N2267 N 0.31483 0.35497 0.78717 0.0
C2268 C 0.2857 0.35525 0.78546 0.0
C2269 C 0.27297 0.35538 0.73262 0.0
C2270 C 0.91922 1.00072 1.06109 0.0
C2271 C 0.89552 0.01597 0.08246 0.0
C2272 C 0.91867 0.98777 1.0097 0.0
C2273 C 0.89469 0.98981 0.97511 0.0
H2274 H 0.93852 0.99853 0.08464 0.0
H2275 H 0.93768 0.97646 0.99656 0.0
S2276 S 0.82747 0.0286 1.00949 0.0
N2277 N 0.84732 0.03244 1.06315 0.0
N2278 N 0.8467 0.00958 0.96731 0.0
C2279 C 0.87107 0.00547 0.9957 0.0
C2280 C 0.87137 0.01803 1.04865 0.0
C2281 C 0.22502 0.64123 0.28618 0.0
C2282 C 0.24223 0.64306 0.33241 0.0
C2283 C 0.23691 0.6412 0.23386 0.0
C2284 C 0.26681 0.64386 0.22383 0.0
H2285 H 0.20193 0.6398 0.29032 0.0
H2286 H 0.22224 0.64 0.20072 0.0
S2287 S 0.32189 0.64987 0.32987 0.0
N2288 N 0.29142 0.6474 0.36309 0.0
N2289 N 0.31322 0.64844 0.26656 0.0
C2290 C 0.28423 0.64581 0.26966 0.0
C2291 C 0.2722 0.6451 0.32295 0.0
C2292 C 0.39173 0.97148 1.03859 0.0
C2293 C 0.39573 0.98896 0.08391 0.0
C2294 C 0.39125 0.98289 0.9859 0.0
C2295 C 0.39556 0.01247 0.9747 0.0
H2296 H 0.3888 0.9486 1.04379 0.0
H2297 H 0.38814 0.9681 0.95342 0.0
S2298 S 0.40912 0.06766 1.07826 0.0
N2299 N 0.40492 0.03775 0.11261 0.0
N2300 N 0.40509 0.0587 1.01553 0.0
C2301 C 0.40004 0.03007 1.01975 0.0
C2302 C 0.39983 0.01855 1.07335 0.0
C2303 C 0.73164 0.64442 0.82931 0.0
C2304 C 0.76122 0.63962 0.83987 0.0
C2305 C 0.71993 0.64459 0.77677 0.0
C2306 C 0.73676 0.63918 0.73089 0.0
H2307 H 0.71735 0.64902 0.86203 0.0
H2308 H 0.69728 0.64918 0.77218 0.0
S2309 S 0.81535 0.62421 0.73529 0.0
N2310 N 0.80685 0.62878 0.79817 0.0
N2311 N 0.78526 0.62835 0.70155 0.0
C2312 C 0.76627 0.63372 0.74111 0.0
C2313 C 0.77827 0.63417 0.79448 0.0
C2314 C 0.10587 0.96968 0.52201 0.0
C2315 C 0.11102 0.98669 0.47621 0.0
C2316 C 0.10658 0.98114 0.57461 0.0
C2317 C 0.11178 0.0106 0.58526 0.0
H2318 H 0.10095 0.94711 0.51729 0.0
H2319 H 0.10202 0.96679 0.60731 0.0
S2320 S 0.12729 0.06497 0.48097 0.0
N2321 N 0.12235 0.03512 0.44701 0.0
N2322 N 0.12311 0.05623 0.54387 0.0
C2323 C 0.11721 0.02777 0.53998 0.0
C2324 C 0.11702 0.01604 0.48651 0.0
C2325 C 0.77092 0.36377 0.32422 0.0
C2326 C 0.74133 0.35888 0.33477 0.0
C2327 C 0.78272 0.36317 0.27182 0.0
C2328 C 0.76562 0.3585 0.22621 0.0
H2329 H 0.7854 0.36742 0.35701 0.0
H2330 H 0.80558 0.36656 0.26707 0.0
S2331 S 0.68722 0.34307 0.2302 0.0
N2332 N 0.69564 0.34784 0.29302 0.0
N2333 N 0.71726 0.34782 0.19655 0.0
C2334 C 0.73606 0.35371 0.23615 0.0
C2335 C 0.72417 0.35361 0.28941 0.0
loop_
_geom_bond_atom_site_label_1
_geom_bond_atom_site_label_2
_geom_bond_distance
_geom_bond_site_symmetry_2
_ccdc_geom_bond_type
Tb0 C2 2.809 . S
Tb0 O20 2.484 . S
Tb0 O21 2.440 . S
Tb0 O22 2.658 . S
Tb0 O23 2.409 . S
Tb0 O24 2.378 . S
Tb0 O28 2.325 . S
Tb0 O31 2.341 . S
Tb1 C11 2.809 . S
Tb1 O22 2.325 . S
Tb1 O25 2.341 . S
Tb1 O26 2.484 . S
Tb1 O27 2.440 . S
Tb1 O28 2.658 . S
Tb1 O29 2.409 . S
Tb1 O30 2.378 . S
C2 Tb0 2.809 . S
C2 C3 1.514 1_554 S
C2 O20 1.248 . S
C2 O21 1.266 . S
C3 C2 1.514 1_556 S
C3 C4 1.359 . S
C3 C8 1.348 . S
C4 C3 1.359 . S
C4 C5 1.380 . S
C4 H32 0.929 . S
C5 C4 1.380 . S
C5 C6 1.347 . S
C5 H33 0.931 . S
C6 C5 1.347 . S
C6 C7 1.369 . S
C7 C6 1.369 . S
C7 C8 1.408 . S
C7 H34 0.930 . S
C8 C3 1.348 . S
C8 C7 1.408 . S
C8 H35 0.930 . S
C9 O22 1.281 . S
C9 O23 1.254 . S
C10 O24 1.236 . S
C10 O25 1.266 . S
C11 Tb1 2.809 . S
C11 C12 1.514 . S
C11 O26 1.248 . S
C11 O27 1.266 . S
C12 C11 1.514 . S
C12 C13 1.359 . S
C12 C17 1.348 . S
C13 C12 1.359 . S
C13 C14 1.380 . S
C13 H36 0.929 . S
C14 C13 1.380 . S
C14 C15 1.347 . S
C14 H37 0.931 . S
C15 C14 1.347 . S
C15 C16 1.369 . S
C16 C15 1.369 . S
C16 C17 1.408 . S
C16 H38 0.930 . S
C17 C12 1.348 . S
C17 C16 1.408 . S
C17 H39 0.930 . S
C18 O28 1.281 . S
C18 O29 1.254 . S
C19 O30 1.236 . S
C19 O31 1.266 . S
O20 Tb0 2.484 . S
O20 C2 1.248 . S
O21 Tb0 2.440 . S
O21 C2 1.266 . S
O22 Tb0 2.658 . S
O22 Tb1 2.325 . S
O22 C9 1.281 . S
O23 Tb0 2.409 . S
O23 C9 1.254 . S
O24 Tb0 2.378 . S
O24 C10 1.236 . S
O25 Tb1 2.341 . S
O25 C10 1.266 . S
O26 Tb1 2.484 . S
O26 C11 1.248 . S
O27 Tb1 2.440 . S
O27 C11 1.266 . S
O28 Tb0 2.325 . S
O28 Tb1 2.658 . S
O28 C18 1.281 . S
O29 Tb1 2.409 . S
O29 C18 1.254 . S
O30 Tb1 2.378 . S
O30 C19 1.236 . S
O31 Tb0 2.341 . S
O31 C19 1.266 . S
H32 C4 0.929 . S
H33 C5 0.931 . S
H34 C7 0.930 . S
H35 C8 0.930 . S
H36 C13 0.929 . S
H37 C14 0.931 . S
H38 C16 0.930 . S
H39 C17 0.930 . S
Tb40 C42 2.809 . S
Tb40 O60 2.484 . S
Tb40 O61 2.440 . S
Tb40 O62 2.658 . S
Tb40 O63 2.409 . S
Tb40 O64 2.378 . S
Tb40 O68 2.325 . S
Tb40 O71 2.341 . S
Tb41 C51 2.809 . S
Tb41 O62 2.325 . S
Tb41 O65 2.341 . S
Tb41 O66 2.484 . S
Tb41 O67 2.440 . S
Tb41 O68 2.658 . S
Tb41 O69 2.409 . S
Tb41 O70 2.378 . S
C42 Tb40 2.809 . S
C42 C43 1.514 . S
C42 O60 1.248 . S
C42 O61 1.266 . S
C43 C42 1.514 . S
C43 C44 1.359 . S
C43 C48 1.348 . S
C44 C43 1.359 . S
C44 C45 1.380 . S
C44 H72 0.929 . S
C45 C44 1.380 . S
C45 C46 1.347 . S
C45 H73 0.931 . S
C46 C45 1.347 . S
C46 C47 1.369 . S
C47 C46 1.369 . S
C47 C48 1.408 . S
C47 H74 0.930 . S
C48 C43 1.348 . S
C48 C47 1.408 . S
C48 H75 0.930 . S
C49 O62 1.281 . S
C49 O63 1.254 . S
C50 O64 1.236 . S
C50 O65 1.266 . S
C51 Tb41 2.809 . S
C51 C52 1.514 . S
C51 O66 1.248 . S
C51 O67 1.266 . S
C52 C51 1.514 . S
C52 C53 1.359 . S
C52 C57 1.348 . S
C53 C52 1.359 . S
C53 C54 1.380 . S
C53 H76 0.929 . S
C54 C53 1.380 . S
C54 C55 1.347 . S
C54 H77 0.931 . S
C55 C54 1.347 . S
C55 C56 1.369 . S
C56 C55 1.369 . S
C56 C57 1.408 . S
C56 H78 0.930 . S
C57 C52 1.348 . S
C57 C56 1.408 . S
C57 H79 0.930 . S
C58 O68 1.281 . S
C58 O69 1.254 . S
C59 O70 1.236 . S
C59 O71 1.266 . S
O60 Tb40 2.484 . S
O60 C42 1.248 . S
O61 Tb40 2.440 . S
O61 C42 1.266 . S
O62 Tb40 2.658 . S
O62 Tb41 2.325 . S
O62 C49 1.281 . S
O63 Tb40 2.409 . S
O63 C49 1.254 . S
O64 Tb40 2.378 . S
O64 C50 1.236 . S
O65 Tb41 2.341 . S
O65 C50 1.266 . S
O66 Tb41 2.484 . S
O66 C51 1.248 . S
O67 Tb41 2.440 . S
O67 C51 1.266 . S
O68 Tb40 2.325 . S
O68 Tb41 2.658 . S
O68 C58 1.281 . S
O69 Tb41 2.409 . S
O69 C58 1.254 . S
O70 Tb41 2.378 . S
O70 C59 1.236 . S
O71 Tb40 2.341 . S
O71 C59 1.266 . S
H72 C44 0.929 . S
H73 C45 0.931 . S
H74 C47 0.930 . S
H75 C48 0.930 . S
H76 C53 0.929 . S
H77 C54 0.931 . S
H78 C56 0.930 . S
H79 C57 0.930 . S
Tb80 C82 2.809 . S
Tb80 O100 2.484 . S
Tb80 O101 2.440 . S
Tb80 O102 2.658 . S
Tb80 O103 2.409 . S
Tb80 O104 2.378 . S
Tb80 O108 2.325 . S
Tb80 O111 2.341 . S
Tb81 C91 2.809 . S
Tb81 O102 2.325 . S
Tb81 O105 2.341 . S
Tb81 O106 2.484 . S
Tb81 O107 2.440 . S
Tb81 O108 2.658 . S
Tb81 O109 2.409 . S
Tb81 O110 2.378 . S
C82 Tb80 2.809 . S
C82 C83 1.514 . S
C82 O100 1.248 . S
C82 O101 1.266 . S
C83 C82 1.514 . S
C83 C84 1.359 . S
C83 C88 1.348 . S
C84 C83 1.359 . S
C84 C85 1.380 . S
C84 H112 0.929 . S
C85 C84 1.380 . S
C85 C86 1.347 . S
C85 H113 0.931 . S
C86 C85 1.347 . S
C86 C87 1.369 . S
C87 C86 1.369 . S
C87 C88 1.408 . S
C87 H114 0.930 . S
C88 C83 1.348 . S
C88 C87 1.408 . S
C88 H115 0.930 . S
C89 O102 1.281 . S
C89 O103 1.254 . S
C90 O104 1.236 . S
C90 O105 1.266 . S
C91 Tb81 2.809 . S
C91 C92 1.514 . S
C91 O106 1.248 . S
C91 O107 1.266 . S
C92 C91 1.514 . S
C92 C93 1.359 . S
C92 C97 1.348 . S
C93 C92 1.359 . S
C93 C94 1.380 . S
C93 H116 0.929 . S
C94 C93 1.380 . S
C94 C95 1.347 . S
C94 H117 0.931 . S
C95 C94 1.347 . S
C95 C96 1.369 . S
C96 C95 1.369 . S
C96 C97 1.408 . S
C96 H118 0.930 . S
C97 C92 1.348 . S
C97 C96 1.408 . S
C97 H119 0.930 . S
C98 O108 1.281 . S
C98 O109 1.254 . S
C99 O110 1.236 . S
C99 O111 1.266 . S
O100 Tb80 2.484 . S
O100 C82 1.248 . S
O101 Tb80 2.440 . S
O101 C82 1.266 . S
O102 Tb80 2.658 . S
O102 Tb81 2.325 . S
O102 C89 1.281 . S
O103 Tb80 2.409 . S
O103 C89 1.254 . S
O104 Tb80 2.378 . S
O104 C90 1.236 . S
O105 Tb81 2.341 . S
O105 C90 1.266 . S
O106 Tb81 2.484 . S
O106 C91 1.248 . S
O107 Tb81 2.440 . S
O107 C91 1.266 . S
O108 Tb80 2.325 . S
O108 Tb81 2.658 . S
O108 C98 1.281 . S
O109 Tb81 2.409 . S
O109 C98 1.254 . S
O110 Tb81 2.378 . S
O110 C99 1.236 . S
O111 Tb80 2.341 . S
O111 C99 1.266 . S
H112 C84 0.929 . S
H113 C85 0.931 . S
H114 C87 0.930 . S
H115 C88 0.930 . S
H116 C93 0.929 . S
H117 C94 0.931 . S
H118 C96 0.930 . S
H119 C97 0.930 . S
Tb120 C122 2.809 . S
Tb120 O140 2.484 . S
Tb120 O141 2.440 . S
Tb120 O142 2.658 . S
Tb120 O143 2.409 . S
Tb120 O144 2.378 . S
Tb120 O148 2.325 . S
Tb120 O151 2.341 . S
Tb121 C131 2.809 1_556 S
Tb121 O142 2.325 . S
Tb121 O145 2.341 . S
Tb121 O146 2.484 1_556 S
Tb121 O147 2.440 1_556 S
Tb121 O148 2.658 . S
Tb121 O149 2.409 . S
Tb121 O150 2.378 . S
C122 Tb120 2.809 . S
C122 C123 1.514 . S
C122 O140 1.248 . S
C122 O141 1.266 . S
C123 C122 1.514 . S
C123 C124 1.359 . S
C123 C128 1.348 . S
C124 C123 1.359 . S
C124 C125 1.380 . S
C124 H152 0.929 . S
C125 C124 1.380 . S
C125 C126 1.347 . S
C125 H153 0.931 . S
C126 C125 1.347 . S
C126 C127 1.369 . S
C127 C126 1.369 . S
C127 C128 1.408 . S
C127 H154 0.930 . S
C128 C123 1.348 . S
C128 C127 1.408 . S
C128 H155 0.930 . S
C129 O142 1.281 . S
C129 O143 1.254 . S
C130 O144 1.236 . S
C130 O145 1.266 . S
C131 Tb121 2.809 1_554 S
C131 C132 1.514 . S
C131 O146 1.248 . S
C131 O147 1.266 . S
C132 C131 1.514 . S
C132 C133 1.359 . S
C132 C137 1.348 . S
C133 C132 1.359 . S
C133 C134 1.380 . S
C133 H156 0.929 . S
C134 C133 1.380 . S
C134 C135 1.347 . S
C134 H157 0.931 . S
C135 C134 1.347 . S
C135 C136 1.369 . S
C136 C135 1.369 . S
C136 C137 1.408 . S
C136 H158 0.930 . S
C137 C132 1.348 . S
C137 C136 1.408 . S
C137 H159 0.930 . S
C138 O148 1.281 . S
C138 O149 1.254 . S
C139 O150 1.236 . S
C139 O151 1.266 . S
O140 Tb120 2.484 . S
O140 C122 1.248 . S
O141 Tb120 2.440 . S
O141 C122 1.266 . S
O142 Tb120 2.658 . S
O142 Tb121 2.325 . S
O142 C129 1.281 . S
O143 Tb120 2.409 . S
O143 C129 1.254 . S
O144 Tb120 2.378 . S
O144 C130 1.236 . S
O145 Tb121 2.341 . S
O145 C130 1.266 . S
O146 Tb121 2.484 1_554 S
O146 C131 1.248 . S
O147 Tb121 2.440 1_554 S
O147 C131 1.266 . S
O148 Tb120 2.325 . S
O148 Tb121 2.658 . S
O148 C138 1.281 . S
O149 Tb121 2.409 . S
O149 C138 1.254 . S
O150 Tb121 2.378 . S
O150 C139 1.236 . S
O151 Tb120 2.341 . S
O151 C139 1.266 . S
H152 C124 0.929 . S
H153 C125 0.931 . S
H154 C127 0.930 . S
H155 C128 0.930 . S
H156 C133 0.929 . S
H157 C134 0.931 . S
H158 C136 0.930 . S
H159 C137 0.930 . S
Tb160 C162 2.809 . S
Tb160 O180 2.484 . S
Tb160 O181 2.440 . S
Tb160 O182 2.658 . S
Tb160 O183 2.409 . S
Tb160 O184 2.378 . S
Tb160 O188 2.325 . S
Tb160 O191 2.341 . S
Tb161 C171 2.809 . S
Tb161 O182 2.325 . S
Tb161 O185 2.341 . S
Tb161 O186 2.484 . S
Tb161 O187 2.440 . S
Tb161 O188 2.658 . S
Tb161 O189 2.409 . S
Tb161 O190 2.378 . S
C162 Tb160 2.809 . S
C162 C163 1.514 . S
C162 O180 1.248 . S
C162 O181 1.266 . S
C163 C162 1.514 . S
C163 C164 1.359 . S
C163 C168 1.348 . S
C164 C163 1.359 . S
C164 C165 1.380 . S
C164 H192 0.929 . S
C165 C164 1.380 . S
C165 C166 1.337 1_556 S
C165 H193 0.931 1_556 S
C166 C165 1.337 1_554 S
C166 C167 1.354 1_554 S
C167 C166 1.354 1_556 S
C167 C168 1.408 . S
C167 H194 0.930 . S
C168 C163 1.348 . S
C168 C167 1.408 . S
C168 H195 0.930 . S
C169 O182 1.281 . S
C169 O183 1.254 . S
C170 O184 1.236 . S
C170 O185 1.266 . S
C171 Tb161 2.809 . S
C171 C172 1.514 . S
C171 O186 1.248 . S
C171 O187 1.266 . S
C172 C171 1.514 . S
C172 C173 1.359 . S
C172 C177 1.348 . S
C173 C172 1.359 . S
C173 C174 1.380 . S
C173 H196 0.929 . S
C174 C173 1.380 . S
C174 C175 1.347 . S
C174 H197 0.931 . S
C175 C174 1.347 . S
C175 C176 1.369 . S
C176 C175 1.369 . S
C176 C177 1.408 . S
C176 H198 0.930 . S
C177 C172 1.348 . S
C177 C176 1.408 . S
C177 H199 0.930 . S
C178 O188 1.281 . S
C178 O189 1.254 . S
C179 O190 1.236 . S
C179 O191 1.266 . S
O180 Tb160 2.484 . S
O180 C162 1.248 . S
O181 Tb160 2.440 . S
O181 C162 1.266 . S
O182 Tb160 2.658 . S
O182 Tb161 2.325 . S
O182 C169 1.281 . S
O183 Tb160 2.409 . S
O183 C169 1.254 . S
O184 Tb160 2.378 . S
O184 C170 1.236 . S
O185 Tb161 2.341 . S
O185 C170 1.266 . S
O186 Tb161 2.484 . S
O186 C171 1.248 . S
O187 Tb161 2.440 . S
O187 C171 1.266 . S
O188 Tb160 2.325 . S
O188 Tb161 2.658 . S
O188 C178 1.281 . S
O189 Tb161 2.409 . S
O189 C178 1.254 . S
O190 Tb161 2.378 . S
O190 C179 1.236 . S
O191 Tb160 2.341 . S
O191 C179 1.266 . S
H192 C164 0.929 . S
H193 C165 0.931 1_554 S
H194 C167 0.930 . S
H195 C168 0.930 . S
H196 C173 0.929 . S
H197 C174 0.931 . S
H198 C176 0.930 . S
H199 C177 0.930 . S
Tb200 C202 2.809 . S
Tb200 O220 2.484 . S
Tb200 O221 2.440 . S
Tb200 O222 2.658 1_554 S
Tb200 O223 2.409 . S
Tb200 O224 2.378 . S
Tb200 O228 2.325 . S
Tb200 O231 2.341 1_554 S
Tb201 C211 2.809 . S
Tb201 O222 2.325 . S
Tb201 O225 2.341 1_556 S
Tb201 O226 2.484 . S
Tb201 O227 2.440 . S
Tb201 O228 2.658 1_556 S
Tb201 O229 2.409 . S
Tb201 O230 2.378 . S
C202 Tb200 2.809 . S
C202 C203 1.514 . S
C202 O220 1.248 . S
C202 O221 1.266 . S
C203 C202 1.514 . S
C203 C204 1.359 . S
C203 C208 1.348 . S
C204 C203 1.359 . S
C204 C205 1.380 . S
C204 H232 0.929 . S
C205 C204 1.380 . S
C205 C206 1.347 . S
C205 H233 0.931 . S
C206 C205 1.347 . S
C206 C207 1.369 . S
C207 C206 1.369 . S
C207 C208 1.408 . S
C207 H234 0.930 . S
C208 C203 1.348 . S
C208 C207 1.408 . S
C208 H235 0.930 . S
C209 O222 1.281 . S
C209 O223 1.254 1_556 S
C210 O224 1.236 . S
C210 O225 1.266 . S
C211 Tb201 2.809 . S
C211 C212 1.514 . S
C211 O226 1.248 . S
C211 O227 1.266 . S
C212 C211 1.514 . S
C212 C213 1.359 . S
C212 C217 1.348 . S
C213 C212 1.359 . S
C213 C214 1.380 . S
C213 H236 0.929 . S
C214 C213 1.380 . S
C214 C215 1.347 . S
C214 H237 0.931 . S
C215 C214 1.347 . S
C215 C216 1.369 . S
C216 C215 1.369 . S
C216 C217 1.408 . S
C216 H238 0.930 . S
C217 C212 1.348 . S
C217 C216 1.408 . S
C217 H239 0.930 . S
C218 O228 1.281 1_556 S
C218 O229 1.254 . S
C219 O230 1.236 . S
C219 O231 1.266 . S
O220 Tb200 2.484 . S
O220 C202 1.248 . S
O221 Tb200 2.440 . S
O221 C202 1.266 . S
O222 Tb200 2.658 1_556 S
O222 Tb201 2.325 . S
O222 C209 1.281 . S
O223 Tb200 2.409 . S
O223 C209 1.254 1_554 S
O224 Tb200 2.378 . S
O224 C210 1.236 . S
O225 Tb201 2.341 1_554 S
O225 C210 1.266 . S
O226 Tb201 2.484 . S
O226 C211 1.248 . S
O227 Tb201 2.440 . S
O227 C211 1.266 . S
O228 Tb200 2.325 . S
O228 Tb201 2.658 1_554 S
O228 C218 1.281 1_554 S
O229 Tb201 2.409 . S
O229 C218 1.254 . S
O230 Tb201 2.378 . S
O230 C219 1.236 . S
O231 Tb200 2.341 1_556 S
O231 C219 1.266 . S
H232 C204 0.929 . S
H233 C205 0.931 . S
H234 C207 0.930 . S
H235 C208 0.930 . S
H236 C213 0.929 . S
H237 C214 0.931 . S
H238 C216 0.930 . S
H239 C217 0.930 . S
Tb240 C242 2.809 . S
Tb240 O260 2.484 . S
Tb240 O261 2.440 . S
Tb240 O262 2.658 . S
Tb240 O263 2.409 . S
Tb240 O264 2.378 . S
Tb240 O268 2.325 . S
Tb240 O271 2.341 . S
Tb241 C251 2.809 . S
Tb241 O262 2.325 . S
Tb241 O265 2.341 . S
Tb241 O266 2.484 . S
Tb241 O267 2.440 . S
Tb241 O268 2.658 . S
Tb241 O269 2.409 . S
Tb241 O270 2.378 . S
C242 Tb240 2.809 . S
C242 C243 1.514 . S
C242 O260 1.248 . S
C242 O261 1.266 . S
C243 C242 1.514 . S
C243 C244 1.359 . S
C243 C248 1.348 . S
C244 C243 1.359 . S
C244 C245 1.380 . S
C244 H272 0.929 . S
C245 C244 1.380 . S
C245 C246 1.347 . S
C245 H273 0.931 . S
C246 C245 1.347 . S
C246 C247 1.369 . S
C247 C246 1.369 . S
C247 C248 1.408 . S
C247 H274 0.930 . S
C248 C243 1.348 . S
C248 C247 1.408 . S
C248 H275 0.930 . S
C249 O262 1.281 . S
C249 O263 1.254 . S
C250 O264 1.236 . S
C250 O265 1.266 . S
C251 Tb241 2.809 . S
C251 C252 1.514 . S
C251 O266 1.248 . S
C251 O267 1.266 . S
C252 C251 1.514 . S
C252 C253 1.359 . S
C252 C257 1.348 . S
C253 C252 1.359 . S
C253 C254 1.380 1_554 S
C253 H276 0.929 . S
C254 C253 1.380 1_556 S
C254 C255 1.347 . S
C254 H277 0.931 . S
C255 C254 1.347 . S
C255 C256 1.368 1_556 S
C256 C255 1.368 1_554 S
C256 C257 1.410 . S
C256 H278 0.930 1_554 S
C257 C252 1.348 . S
C257 C256 1.410 . S
C257 H279 0.930 . S
C258 O268 1.281 . S
C258 O269 1.254 . S
C259 O270 1.236 . S
C259 O271 1.266 . S
O260 Tb240 2.484 . S
O260 C242 1.248 . S
O261 Tb240 2.440 . S
O261 C242 1.266 . S
O262 Tb240 2.658 . S
O262 Tb241 2.325 . S
O262 C249 1.281 . S
O263 Tb240 2.409 . S
O263 C249 1.254 . S
O264 Tb240 2.378 . S
O264 C250 1.236 . S
O265 Tb241 2.341 . S
O265 C250 1.266 . S
O266 Tb241 2.484 . S
O266 C251 1.248 . S
O267 Tb241 2.440 . S
O267 C251 1.266 . S
O268 Tb240 2.325 . S
O268 Tb241 2.658 . S
O268 C258 1.281 . S
O269 Tb241 2.409 . S
O269 C258 1.254 . S
O270 Tb241 2.378 . S
O270 C259 1.236 . S
O271 Tb240 2.341 . S
O271 C259 1.266 . S
H272 C244 0.929 . S
H273 C245 0.931 . S
H274 C247 0.930 . S
H275 C248 0.930 . S
H276 C253 0.929 . S
H277 C254 0.931 . S
H278 C256 0.930 1_556 S
H279 C257 0.930 . S
Tb280 C282 2.809 . S
Tb280 O300 2.484 . S
Tb280 O301 2.440 . S
Tb280 O302 2.658 . S
Tb280 O303 2.409 . S
Tb280 O304 2.378 . S
Tb280 O308 2.325 . S
Tb280 O311 2.341 . S
Tb281 C291 2.809 . S
Tb281 O302 2.325 . S
Tb281 O305 2.341 . S
Tb281 O306 2.484 . S
Tb281 O307 2.440 . S
Tb281 O308 2.658 . S
Tb281 O309 2.409 . S
Tb281 O310 2.378 . S
C282 Tb280 2.809 . S
C282 C283 1.514 . S
C282 O300 1.248 . S
C282 O301 1.266 . S
C283 C282 1.514 . S
C283 C284 1.359 . S
C283 C288 1.348 . S
C284 C283 1.359 . S
C284 C285 1.380 . S
C284 H312 0.929 . S
C285 C284 1.380 . S
C285 C286 1.347 . S
C285 H313 0.931 . S
C286 C285 1.347 . S
C286 C287 1.369 . S
C287 C286 1.369 . S
C287 C288 1.408 . S
C287 H314 0.930 . S
C288 C283 1.348 . S
C288 C287 1.408 . S
C288 H315 0.930 . S
C289 O302 1.281 . S
C289 O303 1.254 . S
C290 O304 1.236 . S
C290 O305 1.266 . S
C291 Tb281 2.809 . S
C291 C292 1.514 . S
C291 O306 1.248 . S
C291 O307 1.266 . S
C292 C291 1.514 . S
C292 C293 1.359 . S
C292 C297 1.348 . S
C293 C292 1.359 . S
C293 C294 1.380 . S
C293 H316 0.929 . S
C294 C293 1.380 . S
C294 C295 1.347 . S
C294 H317 0.931 . S
C295 C294 1.347 . S
C295 C296 1.369 . S
C296 C295 1.369 . S
C296 C297 1.408 . S
C296 H318 0.930 . S
C297 C292 1.348 . S
C297 C296 1.408 . S
C297 H319 0.930 . S
C298 O308 1.281 . S
C298 O309 1.254 . S
C299 O310 1.236 . S
C299 O311 1.266 . S
O300 Tb280 2.484 . S
O300 C282 1.248 . S
O301 Tb280 2.440 . S
O301 C282 1.266 . S
O302 Tb280 2.658 . S
O302 Tb281 2.325 . S
O302 C289 1.281 . S
O303 Tb280 2.409 . S
O303 C289 1.254 . S
O304 Tb280 2.378 . S
O304 C290 1.236 . S
O305 Tb281 2.341 . S
O305 C290 1.266 . S
O306 Tb281 2.484 . S
O306 C291 1.248 . S
O307 Tb281 2.440 . S
O307 C291 1.266 . S
O308 Tb280 2.325 . S
O308 Tb281 2.658 . S
O308 C298 1.281 . S
O309 Tb281 2.409 . S
O309 C298 1.254 . S
O310 Tb281 2.378 . S
O310 C299 1.236 . S
O311 Tb280 2.341 . S
O311 C299 1.266 . S
H312 C284 0.929 . S
H313 C285 0.931 . S
H314 C287 0.930 . S
H315 C288 0.930 . S
H316 C293 0.929 . S
H317 C294 0.931 . S
H318 C296 0.930 . S
H319 C297 0.930 . S
Tb320 C322 2.809 . S
Tb320 O340 2.484 . S
Tb320 O341 2.440 . S
Tb320 O342 2.658 . S
Tb320 O343 2.409 . S
Tb320 O344 2.378 . S
Tb320 O348 2.325 . S
Tb320 O351 2.341 . S
Tb321 C331 2.809 . S
Tb321 O342 2.325 . S
Tb321 O345 2.341 . S
Tb321 O346 2.484 . S
Tb321 O347 2.440 . S
Tb321 O348 2.658 . S
Tb321 O349 2.409 . S
Tb321 O350 2.378 . S
C322 Tb320 2.809 . S
C322 C323 1.514 . S
C322 O340 1.248 . S
C322 O341 1.266 . S
C323 C322 1.514 . S
C323 C324 1.359 . S
C323 C328 1.348 . S
C324 C323 1.359 . S
C324 C325 1.380 1_554 S
C324 H352 0.929 . S
C325 C324 1.380 1_556 S
C325 C326 1.347 . S
C325 H353 0.931 . S
C326 C325 1.347 . S
C326 C327 1.368 1_556 S
C327 C326 1.368 1_554 S
C327 C328 1.410 . S
C327 H354 0.930 1_554 S
C328 C323 1.348 . S
C328 C327 1.410 . S
C328 H355 0.930 . S
C329 O342 1.281 . S
C329 O343 1.254 . S
C330 O344 1.236 . S
C330 O345 1.266 . S
C331 Tb321 2.809 . S
C331 C332 1.514 . S
C331 O346 1.248 . S
C331 O347 1.266 . S
C332 C331 1.514 . S
C332 C333 1.359 . S
C332 C337 1.348 . S
C333 C332 1.359 . S
C333 C334 1.380 . S
C333 H356 0.929 . S
C334 C333 1.380 . S
C334 C335 1.347 . S
C334 H357 0.931 . S
C335 C334 1.347 . S
C335 C336 1.369 . S
C336 C335 1.369 . S
C336 C337 1.408 . S
C336 H358 0.930 . S
C337 C332 1.348 . S
C337 C336 1.408 . S
C337 H359 0.930 . S
C338 O348 1.281 . S
C338 O349 1.254 . S
C339 O350 1.236 . S
C339 O351 1.266 . S
O340 Tb320 2.484 . S
O340 C322 1.248 . S
O341 Tb320 2.440 . S
O341 C322 1.266 . S
O342 Tb320 2.658 . S
O342 Tb321 2.325 . S
O342 C329 1.281 . S
O343 Tb320 2.409 . S
O343 C329 1.254 . S
O344 Tb320 2.378 . S
O344 C330 1.236 . S
O345 Tb321 2.341 . S
O345 C330 1.266 . S
O346 Tb321 2.484 . S
O346 C331 1.248 . S
O347 Tb321 2.440 . S
O347 C331 1.266 . S
O348 Tb320 2.325 . S
O348 Tb321 2.658 . S
O348 C338 1.281 . S
O349 Tb321 2.409 . S
O349 C338 1.254 . S
O350 Tb321 2.378 . S
O350 C339 1.236 . S
O351 Tb320 2.341 . S
O351 C339 1.266 . S
H352 C324 0.929 . S
H353 C325 0.931 . S
H354 C327 0.930 1_556 S
H355 C328 0.930 . S
H356 C333 0.929 . S
H357 C334 0.931 . S
H358 C336 0.930 . S
H359 C337 0.930 . S
Tb360 C362 2.809 . S
Tb360 O380 2.484 . S
Tb360 O381 2.440 . S
Tb360 O382 2.658 1_556 S
Tb360 O383 2.409 . S
Tb360 O384 2.378 . S
Tb360 O388 2.325 . S
Tb360 O391 2.341 1_556 S
Tb361 C371 2.809 . S
Tb361 O382 2.325 . S
Tb361 O385 2.341 1_554 S
Tb361 O386 2.484 . S
Tb361 O387 2.440 . S
Tb361 O388 2.658 1_554 S
Tb361 O389 2.409 . S
Tb361 O390 2.378 . S
C362 Tb360 2.809 . S
C362 C363 1.514 . S
C362 O380 1.248 . S
C362 O381 1.266 . S
C363 C362 1.514 . S
C363 C364 1.359 . S
C363 C368 1.348 . S
C364 C363 1.359 . S
C364 C365 1.380 . S
C364 H392 0.929 . S
C365 C364 1.380 . S
C365 C366 1.347 . S
C365 H393 0.931 . S
C366 C365 1.347 . S
C366 C367 1.369 . S
C367 C366 1.369 . S
C367 C368 1.408 . S
C367 H394 0.930 . S
C368 C363 1.348 . S
C368 C367 1.408 . S
C368 H395 0.930 . S
C369 O382 1.281 1_556 S
C369 O383 1.254 . S
C370 O384 1.236 . S
C370 O385 1.266 . S
C371 Tb361 2.809 . S
C371 C372 1.514 . S
C371 O386 1.248 . S
C371 O387 1.266 . S
C372 C371 1.514 . S
C372 C373 1.359 . S
C372 C377 1.348 . S
C373 C372 1.359 . S
C373 C374 1.380 . S
C373 H396 0.929 . S
C374 C373 1.380 . S
C374 C375 1.347 . S
C374 H397 0.931 . S
C375 C374 1.347 . S
C375 C376 1.369 . S
C376 C375 1.369 . S
C376 C377 1.408 . S
C376 H398 0.930 . S
C377 C372 1.348 . S
C377 C376 1.408 . S
C377 H399 0.930 . S
C378 O388 1.281 . S
C378 O389 1.254 1_556 S
C379 O390 1.236 . S
C379 O391 1.266 . S
O380 Tb360 2.484 . S
O380 C362 1.248 . S
O381 Tb360 2.440 . S
O381 C362 1.266 . S
O382 Tb360 2.658 1_554 S
O382 Tb361 2.325 . S
O382 C369 1.281 1_554 S
O383 Tb360 2.409 . S
O383 C369 1.254 . S
O384 Tb360 2.378 . S
O384 C370 1.236 . S
O385 Tb361 2.341 1_556 S
O385 C370 1.266 . S
O386 Tb361 2.484 . S
O386 C371 1.248 . S
O387 Tb361 2.440 . S
O387 C371 1.266 . S
O388 Tb360 2.325 . S
O388 Tb361 2.658 1_556 S
O388 C378 1.281 . S
O389 Tb361 2.409 . S
O389 C378 1.254 1_554 S
O390 Tb361 2.378 . S
O390 C379 1.236 . S
O391 Tb360 2.341 1_554 S
O391 C379 1.266 . S
H392 C364 0.929 . S
H393 C365 0.931 . S
H394 C367 0.930 . S
H395 C368 0.930 . S
H396 C373 0.929 . S
H397 C374 0.931 . S
H398 C376 0.930 . S
H399 C377 0.930 . S
Tb400 C402 2.809 . S
Tb400 O420 2.484 . S
Tb400 O421 2.440 . S
Tb400 O422 2.658 . S
Tb400 O423 2.409 . S
Tb400 O424 2.378 . S
Tb400 O428 2.325 . S
Tb400 O431 2.341 . S
Tb401 C411 2.809 . S
Tb401 O422 2.325 . S
Tb401 O425 2.341 . S
Tb401 O426 2.484 . S
Tb401 O427 2.440 . S
Tb401 O428 2.658 . S
Tb401 O429 2.409 . S
Tb401 O430 2.378 . S
C402 Tb400 2.809 . S
C402 C403 1.514 . S
C402 O420 1.248 . S
C402 O421 1.266 . S
C403 C402 1.514 . S
C403 C404 1.359 . S
C403 C408 1.348 . S
C404 C403 1.359 . S
C404 C405 1.380 . S
C404 H432 0.929 . S
C405 C404 1.380 . S
C405 C406 1.347 . S
C405 H433 0.931 . S
C406 C405 1.347 . S
C406 C407 1.369 . S
C407 C406 1.369 . S
C407 C408 1.408 . S
C407 H434 0.930 . S
C408 C403 1.348 . S
C408 C407 1.408 . S
C408 H435 0.930 . S
C409 O422 1.281 . S
C409 O423 1.254 . S
C410 O424 1.236 . S
C410 O425 1.266 . S
C411 Tb401 2.809 . S
C411 C412 1.514 . S
C411 O426 1.248 . S
C411 O427 1.266 . S
C412 C411 1.514 . S
C412 C413 1.359 . S
C412 C417 1.348 . S
C413 C412 1.359 . S
C413 C414 1.380 . S
C413 H436 0.929 . S
C414 C413 1.380 . S
C414 C415 1.337 1_556 S
C414 H437 0.931 1_556 S
C415 C414 1.337 1_554 S
C415 C416 1.354 1_554 S
C416 C415 1.354 1_556 S
C416 C417 1.408 . S
C416 H438 0.930 . S
C417 C412 1.348 . S
C417 C416 1.408 . S
C417 H439 0.930 . S
C418 O428 1.281 . S
C418 O429 1.254 . S
C419 O430 1.236 . S
C419 O431 1.266 . S
O420 Tb400 2.484 . S
O420 C402 1.248 . S
O421 Tb400 2.440 . S
O421 C402 1.266 . S
O422 Tb400 2.658 . S
O422 Tb401 2.325 . S
O422 C409 1.281 . S
O423 Tb400 2.409 . S
O423 C409 1.254 . S
O424 Tb400 2.378 . S
O424 C410 1.236 . S
O425 Tb401 2.341 . S
O425 C410 1.266 . S
O426 Tb401 2.484 . S
O426 C411 1.248 . S
O427 Tb401 2.440 . S
O427 C411 1.266 . S
O428 Tb400 2.325 . S
O428 Tb401 2.658 . S
O428 C418 1.281 . S
O429 Tb401 2.409 . S
O429 C418 1.254 . S
O430 Tb401 2.378 . S
O430 C419 1.236 . S
O431 Tb400 2.341 . S
O431 C419 1.266 . S
H432 C404 0.929 . S
H433 C405 0.931 . S
H434 C407 0.930 . S
H435 C408 0.930 . S
H436 C413 0.929 . S
H437 C414 0.931 1_554 S
H438 C416 0.930 . S
H439 C417 0.930 . S
Tb440 C442 2.809 . S
Tb440 O460 2.484 . S
Tb440 O461 2.440 . S
Tb440 O462 2.658 . S
Tb440 O463 2.409 . S
Tb440 O464 2.378 . S
Tb440 O468 2.325 . S
Tb440 O471 2.341 . S
Tb441 C451 2.809 . S
Tb441 O462 2.325 . S
Tb441 O465 2.341 . S
Tb441 O466 2.484 . S
Tb441 O467 2.440 . S
Tb441 O468 2.658 . S
Tb441 O469 2.409 . S
Tb441 O470 2.378 . S
C442 Tb440 2.809 . S
C442 C443 1.514 . S
C442 O460 1.248 . S
C442 O461 1.266 . S
C443 C442 1.514 . S
C443 C444 1.359 . S
C443 C448 1.348 . S
C444 C443 1.359 . S
C444 C445 1.380 . S
C444 H472 0.929 . S
C445 C444 1.380 . S
C445 C446 1.347 . S
C445 H473 0.931 . S
C446 C445 1.347 . S
C446 C447 1.369 . S
C447 C446 1.369 . S
C447 C448 1.408 . S
C447 H474 0.930 . S
C448 C443 1.348 . S
C448 C447 1.408 . S
C448 H475 0.930 . S
C449 O462 1.281 . S
C449 O463 1.254 . S
C450 O464 1.236 . S
C450 O465 1.266 . S
C451 Tb441 2.809 . S
C451 C452 1.514 . S
C451 O466 1.248 . S
C451 O467 1.266 . S
C452 C451 1.514 . S
C452 C453 1.359 . S
C452 C457 1.348 . S
C453 C452 1.359 . S
C453 C454 1.380 . S
C453 H476 0.929 . S
C454 C453 1.380 . S
C454 C455 1.347 . S
C454 H477 0.931 . S
C455 C454 1.347 . S
C455 C456 1.369 . S
C456 C455 1.369 . S
C456 C457 1.408 . S
C456 H478 0.930 . S
C457 C452 1.348 . S
C457 C456 1.408 . S
C457 H479 0.930 . S
C458 O468 1.281 . S
C458 O469 1.254 . S
C459 O470 1.236 . S
C459 O471 1.266 . S
O460 Tb440 2.484 . S
O460 C442 1.248 . S
O461 Tb440 2.440 . S
O461 C442 1.266 . S
O462 Tb440 2.658 . S
O462 Tb441 2.325 . S
O462 C449 1.281 . S
O463 Tb440 2.409 . S
O463 C449 1.254 . S
O464 Tb440 2.378 . S
O464 C450 1.236 . S
O465 Tb441 2.341 . S
O465 C450 1.266 . S
O466 Tb441 2.484 . S
O466 C451 1.248 . S
O467 Tb441 2.440 . S
O467 C451 1.266 . S
O468 Tb440 2.325 . S
O468 Tb441 2.658 . S
O468 C458 1.281 . S
O469 Tb441 2.409 . S
O469 C458 1.254 . S
O470 Tb441 2.378 . S
O470 C459 1.236 . S
O471 Tb440 2.341 . S
O471 C459 1.266 . S
H472 C444 0.929 . S
H473 C445 0.931 . S
H474 C447 0.930 . S
H475 C448 0.930 . S
H476 C453 0.929 . S
H477 C454 0.931 . S
H478 C456 0.930 . S
H479 C457 0.930 . S
Tb480 C482 2.809 . S
Tb480 O500 2.484 . S
Tb480 O501 2.440 . S
Tb480 O502 2.658 . S
Tb480 O503 2.409 . S
Tb480 O504 2.378 . S
Tb480 O508 2.325 . S
Tb480 O511 2.341 . S
Tb481 C491 2.809 . S
Tb481 O502 2.325 . S
Tb481 O505 2.341 . S
Tb481 O506 2.484 . S
Tb481 O507 2.440 . S
Tb481 O508 2.658 . S
Tb481 O509 2.409 . S
Tb481 O510 2.378 . S
C482 Tb480 2.809 . S
C482 C483 1.514 . S
C482 O500 1.248 . S
C482 O501 1.266 . S
C483 C482 1.514 . S
C483 C484 1.359 . S
C483 C488 1.348 . S
C484 C483 1.359 . S
C484 C485 1.380 . S
C484 H512 0.929 . S
C485 C484 1.380 . S
C485 C486 1.347 . S
C485 H513 0.931 . S
C486 C485 1.347 . S
C486 C487 1.369 . S
C487 C486 1.369 . S
C487 C488 1.408 . S
C487 H514 0.930 . S
C488 C483 1.348 . S
C488 C487 1.408 . S
C488 H515 0.930 . S
C489 O502 1.281 . S
C489 O503 1.254 . S
C490 O504 1.236 . S
C490 O505 1.266 . S
C491 Tb481 2.809 . S
C491 C492 1.514 . S
C491 O506 1.248 . S
C491 O507 1.266 . S
C492 C491 1.514 . S
C492 C493 1.359 . S
C492 C497 1.348 . S
C493 C492 1.359 . S
C493 C494 1.380 . S
C493 H516 0.929 . S
C494 C493 1.380 . S
C494 C495 1.347 . S
C494 H517 0.931 . S
C495 C494 1.347 . S
C495 C496 1.369 . S
C496 C495 1.369 . S
C496 C497 1.408 . S
C496 H518 0.930 . S
C497 C492 1.348 . S
C497 C496 1.408 . S
C497 H519 0.930 . S
C498 O508 1.281 . S
C498 O509 1.254 . S
C499 O510 1.236 . S
C499 O511 1.266 . S
O500 Tb480 2.484 . S
O500 C482 1.248 . S
O501 Tb480 2.440 . S
O501 C482 1.266 . S
O502 Tb480 2.658 . S
O502 Tb481 2.325 . S
O502 C489 1.281 . S
O503 Tb480 2.409 . S
O503 C489 1.254 . S
O504 Tb480 2.378 . S
O504 C490 1.236 . S
O505 Tb481 2.341 . S
O505 C490 1.266 . S
O506 Tb481 2.484 . S
O506 C491 1.248 . S
O507 Tb481 2.440 . S
O507 C491 1.266 . S
O508 Tb480 2.325 . S
O508 Tb481 2.658 . S
O508 C498 1.281 . S
O509 Tb481 2.409 . S
O509 C498 1.254 . S
O510 Tb481 2.378 . S
O510 C499 1.236 . S
O511 Tb480 2.341 . S
O511 C499 1.266 . S
H512 C484 0.929 . S
H513 C485 0.931 . S
H514 C487 0.930 . S
H515 C488 0.930 . S
H516 C493 0.929 . S
H517 C494 0.931 . S
H518 C496 0.930 . S
H519 C497 0.930 . S
Tb520 C522 2.809 . S
Tb520 O540 2.484 . S
Tb520 O541 2.440 . S
Tb520 O542 2.658 . S
Tb520 O543 2.409 . S
Tb520 O544 2.378 . S
Tb520 O548 2.325 . S
Tb520 O551 2.341 . S
Tb521 C531 2.809 . S
Tb521 O542 2.325 . S
Tb521 O545 2.341 . S
Tb521 O546 2.484 . S
Tb521 O547 2.440 . S
Tb521 O548 2.658 . S
Tb521 O549 2.409 . S
Tb521 O550 2.378 . S
C522 Tb520 2.809 . S
C522 C523 1.514 . S
C522 O540 1.248 . S
C522 O541 1.266 . S
C523 C522 1.514 . S
C523 C524 1.359 . S
C523 C528 1.348 . S
C524 C523 1.359 . S
C524 C525 1.380 . S
C524 H552 0.929 . S
C525 C524 1.380 . S
C525 C526 1.347 . S
C525 H553 0.931 . S
C526 C525 1.347 . S
C526 C527 1.369 . S
C527 C526 1.369 . S
C527 C528 1.408 . S
C527 H554 0.930 . S
C528 C523 1.348 . S
C528 C527 1.408 . S
C528 H555 0.930 . S
C529 O542 1.281 . S
C529 O543 1.254 . S
C530 O544 1.236 . S
C530 O545 1.266 . S
C531 Tb521 2.809 . S
C531 C532 1.514 . S
C531 O546 1.248 . S
C531 O547 1.266 . S
C532 C531 1.514 . S
C532 C533 1.359 . S
C532 C537 1.348 . S
C533 C532 1.359 . S
C533 C534 1.380 . S
C533 H556 0.929 . S
C534 C533 1.380 . S
C534 C535 1.347 . S
C534 H557 0.931 . S
C535 C534 1.347 . S
C535 C536 1.369 . S
C536 C535 1.369 . S
C536 C537 1.408 . S
C536 H558 0.930 . S
C537 C532 1.348 . S
C537 C536 1.408 . S
C537 H559 0.930 . S
C538 O548 1.281 . S
C538 O549 1.254 . S
C539 O550 1.236 . S
C539 O551 1.266 . S
O540 Tb520 2.484 . S
O540 C522 1.248 . S
O541 Tb520 2.440 . S
O541 C522 1.266 . S
O542 Tb520 2.658 . S
O542 Tb521 2.325 . S
O542 C529 1.281 . S
O543 Tb520 2.409 . S
O543 C529 1.254 . S
O544 Tb520 2.378 . S
O544 C530 1.236 . S
O545 Tb521 2.341 . S
O545 C530 1.266 . S
O546 Tb521 2.484 . S
O546 C531 1.248 . S
O547 Tb521 2.440 . S
O547 C531 1.266 . S
O548 Tb520 2.325 . S
O548 Tb521 2.658 . S
O548 C538 1.281 . S
O549 Tb521 2.409 . S
O549 C538 1.254 . S
O550 Tb521 2.378 . S
O550 C539 1.236 . S
O551 Tb520 2.341 . S
O551 C539 1.266 . S
H552 C524 0.929 . S
H553 C525 0.931 . S
H554 C527 0.930 . S
H555 C528 0.930 . S
H556 C533 0.929 . S
H557 C534 0.931 . S
H558 C536 0.930 . S
H559 C537 0.930 . S
Tb560 C562 2.809 . S
Tb560 O580 2.484 . S
Tb560 O581 2.440 . S
Tb560 O582 2.658 . S
Tb560 O583 2.409 . S
Tb560 O584 2.378 . S
Tb560 O588 2.325 . S
Tb560 O591 2.341 . S
Tb561 C571 2.809 . S
Tb561 O582 2.325 . S
Tb561 O585 2.341 . S
Tb561 O586 2.484 . S
Tb561 O587 2.440 . S
Tb561 O588 2.658 . S
Tb561 O589 2.409 . S
Tb561 O590 2.378 . S
C562 Tb560 2.809 . S
C562 C563 1.514 . S
C562 O580 1.248 . S
C562 O581 1.266 . S
C563 C562 1.514 . S
C563 C564 1.359 . S
C563 C568 1.348 . S
C564 C563 1.359 . S
C564 C565 1.380 . S
C564 H592 0.929 . S
C565 C564 1.380 . S
C565 C566 1.347 . S
C565 H593 0.931 . S
C566 C565 1.347 . S
C566 C567 1.369 . S
C567 C566 1.369 . S
C567 C568 1.408 . S
C567 H594 0.930 . S
C568 C563 1.348 . S
C568 C567 1.408 . S
C568 H595 0.930 . S
C569 O582 1.281 . S
C569 O583 1.254 . S
C570 O584 1.236 . S
C570 O585 1.266 . S
C571 Tb561 2.809 . S
C571 C572 1.514 1_554 S
C571 O586 1.248 . S
C571 O587 1.266 . S
C572 C571 1.514 1_556 S
C572 C573 1.359 . S
C572 C577 1.348 . S
C573 C572 1.359 . S
C573 C574 1.380 . S
C573 H596 0.929 . S
C574 C573 1.380 . S
C574 C575 1.347 . S
C574 H597 0.931 . S
C575 C574 1.347 . S
C575 C576 1.369 . S
C576 C575 1.369 . S
C576 C577 1.408 . S
C576 H598 0.930 . S
C577 C572 1.348 . S
C577 C576 1.408 . S
C577 H599 0.930 . S
C578 O588 1.281 . S
C578 O589 1.254 . S
C579 O590 1.236 . S
C579 O591 1.266 . S
O580 Tb560 2.484 . S
O580 C562 1.248 . S
O581 Tb560 2.440 . S
O581 C562 1.266 . S
O582 Tb560 2.658 . S
O582 Tb561 2.325 . S
O582 C569 1.281 . S
O583 Tb560 2.409 . S
O583 C569 1.254 . S
O584 Tb560 2.378 . S
O584 C570 1.236 . S
O585 Tb561 2.341 . S
O585 C570 1.266 . S
O586 Tb561 2.484 . S
O586 C571 1.248 . S
O587 Tb561 2.440 . S
O587 C571 1.266 . S
O588 Tb560 2.325 . S
O588 Tb561 2.658 . S
O588 C578 1.281 . S
O589 Tb561 2.409 . S
O589 C578 1.254 . S
O590 Tb561 2.378 . S
O590 C579 1.236 . S
O591 Tb560 2.341 . S
O591 C579 1.266 . S
H592 C564 0.929 . S
H593 C565 0.931 . S
H594 C567 0.930 . S
H595 C568 0.930 . S
H596 C573 0.929 . S
H597 C574 0.931 . S
H598 C576 0.930 . S
H599 C577 0.930 . S
Tb600 C602 2.809 1_556 S
Tb600 O620 2.484 1_556 S
Tb600 O621 2.440 1_556 S
Tb600 O622 2.658 . S
Tb600 O623 2.409 . S
Tb600 O624 2.378 . S
Tb600 O628 2.325 . S
Tb600 O631 2.341 . S
Tb601 C611 2.809 . S
Tb601 O622 2.325 . S
Tb601 O625 2.341 . S
Tb601 O626 2.484 . S
Tb601 O627 2.440 . S
Tb601 O628 2.658 . S
Tb601 O629 2.409 . S
Tb601 O630 2.378 . S
C602 Tb600 2.809 1_554 S
C602 C603 1.514 . S
C602 O620 1.248 . S
C602 O621 1.266 . S
C603 C602 1.514 . S
C603 C604 1.359 . S
C603 C608 1.348 . S
C604 C603 1.359 . S
C604 C605 1.380 . S
C604 H632 0.929 . S
C605 C604 1.380 . S
C605 C606 1.347 . S
C605 H633 0.931 . S
C606 C605 1.347 . S
C606 C607 1.369 . S
C607 C606 1.369 . S
C607 C608 1.408 . S
C607 H634 0.930 . S
C608 C603 1.348 . S
C608 C607 1.408 . S
C608 H635 0.930 . S
C609 O622 1.281 . S
C609 O623 1.254 . S
C610 O624 1.236 . S
C610 O625 1.266 . S
C611 Tb601 2.809 . S
C611 C612 1.514 . S
C611 O626 1.248 . S
C611 O627 1.266 . S
C612 C611 1.514 . S
C612 C613 1.359 . S
C612 C617 1.348 . S
C613 C612 1.359 . S
C613 C614 1.380 . S
C613 H636 0.929 . S
C614 C613 1.380 . S
C614 C615 1.347 . S
C614 H637 0.931 . S
C615 C614 1.347 . S
C615 C616 1.369 . S
C616 C615 1.369 . S
C616 C617 1.408 . S
C616 H638 0.930 . S
C617 C612 1.348 . S
C617 C616 1.408 . S
C617 H639 0.930 . S
C618 O628 1.281 . S
C618 O629 1.254 . S
C619 O630 1.236 . S
C619 O631 1.266 . S
O620 Tb600 2.484 1_554 S
O620 C602 1.248 . S
O621 Tb600 2.440 1_554 S
O621 C602 1.266 . S
O622 Tb600 2.658 . S
O622 Tb601 2.325 . S
O622 C609 1.281 . S
O623 Tb600 2.409 . S
O623 C609 1.254 . S
O624 Tb600 2.378 . S
O624 C610 1.236 . S
O625 Tb601 2.341 . S
O625 C610 1.266 . S
O626 Tb601 2.484 . S
O626 C611 1.248 . S
O627 Tb601 2.440 . S
O627 C611 1.266 . S
O628 Tb600 2.325 . S
O628 Tb601 2.658 . S
O628 C618 1.281 . S
O629 Tb601 2.409 . S
O629 C618 1.254 . S
O630 Tb601 2.378 . S
O630 C619 1.236 . S
O631 Tb600 2.341 . S
O631 C619 1.266 . S
H632 C604 0.929 . S
H633 C605 0.931 . S
H634 C607 0.930 . S
H635 C608 0.930 . S
H636 C613 0.929 . S
H637 C614 0.931 . S
H638 C616 0.930 . S
H639 C617 0.930 . S
Tb640 C642 2.809 . S
Tb640 O660 2.484 . S
Tb640 O661 2.440 . S
Tb640 O662 2.658 . S
Tb640 O663 2.409 . S
Tb640 O664 2.378 . S
Tb640 O668 2.325 . S
Tb640 O671 2.341 . S
Tb641 C651 2.809 . S
Tb641 O662 2.325 . S
Tb641 O665 2.341 . S
Tb641 O666 2.484 . S
Tb641 O667 2.440 . S
Tb641 O668 2.658 . S
Tb641 O669 2.409 . S
Tb641 O670 2.378 . S
C642 Tb640 2.809 . S
C642 C643 1.514 . S
C642 O660 1.248 . S
C642 O661 1.266 . S
C643 C642 1.514 . S
C643 C644 1.359 . S
C643 C648 1.348 . S
C644 C643 1.359 . S
C644 C645 1.380 . S
C644 H672 0.929 . S
C645 C644 1.380 . S
C645 C646 1.347 . S
C645 H673 0.931 . S
C646 C645 1.347 . S
C646 C647 1.369 . S
C647 C646 1.369 . S
C647 C648 1.408 . S
C647 H674 0.930 . S
C648 C643 1.348 . S
C648 C647 1.408 . S
C648 H675 0.930 . S
C649 O662 1.281 . S
C649 O663 1.254 . S
C650 O664 1.236 . S
C650 O665 1.266 . S
C651 Tb641 2.809 . S
C651 C652 1.514 . S
C651 O666 1.248 . S
C651 O667 1.266 . S
C652 C651 1.514 . S
C652 C653 1.359 . S
C652 C657 1.348 . S
C653 C652 1.359 . S
C653 C654 1.380 . S
C653 H676 0.929 . S
C654 C653 1.380 . S
C654 C655 1.347 . S
C654 H677 0.931 . S
C655 C654 1.347 . S
C655 C656 1.369 1_565 S
C656 C655 1.369 1_545 S
C656 C657 1.408 1_545 S
C656 H678 0.930 . S
C657 C652 1.348 . S
C657 C656 1.408 1_565 S
C657 H679 0.930 1_565 S
C658 O668 1.281 . S
C658 O669 1.254 . S
C659 O670 1.236 . S
C659 O671 1.266 . S
O660 Tb640 2.484 . S
O660 C642 1.248 . S
O661 Tb640 2.440 . S
O661 C642 1.266 . S
O662 Tb640 2.658 . S
O662 Tb641 2.325 . S
O662 C649 1.281 . S
O663 Tb640 2.409 . S
O663 C649 1.254 . S
O664 Tb640 2.378 . S
O664 C650 1.236 . S
O665 Tb641 2.341 . S
O665 C650 1.266 . S
O666 Tb641 2.484 . S
O666 C651 1.248 . S
O667 Tb641 2.440 . S
O667 C651 1.266 . S
O668 Tb640 2.325 . S
O668 Tb641 2.658 . S
O668 C658 1.281 . S
O669 Tb641 2.409 . S
O669 C658 1.254 . S
O670 Tb641 2.378 . S
O670 C659 1.236 . S
O671 Tb640 2.341 . S
O671 C659 1.266 . S
H672 C644 0.929 . S
H673 C645 0.931 . S
H674 C647 0.930 . S
H675 C648 0.930 . S
H676 C653 0.929 . S
H677 C654 0.931 . S
H678 C656 0.930 . S
H679 C657 0.930 1_545 S
Tb680 C682 2.809 . S
Tb680 O700 2.484 . S
Tb680 O701 2.440 . S
Tb680 O702 2.658 . S
Tb680 O703 2.409 . S
Tb680 O704 2.378 . S
Tb680 O708 2.325 . S
Tb680 O711 2.341 . S
Tb681 C691 2.809 1_556 S
Tb681 O702 2.325 . S
Tb681 O705 2.341 . S
Tb681 O706 2.484 1_556 S
Tb681 O707 2.440 1_556 S
Tb681 O708 2.658 . S
Tb681 O709 2.409 . S
Tb681 O710 2.378 . S
C682 Tb680 2.809 . S
C682 C683 1.514 . S
C682 O700 1.248 . S
C682 O701 1.266 . S
C683 C682 1.514 . S
C683 C684 1.359 . S
C683 C688 1.348 . S
C684 C683 1.359 . S
C684 C685 1.380 . S
C684 H712 0.929 . S
C685 C684 1.380 . S
C685 C686 1.347 . S
C685 H713 0.931 . S
C686 C685 1.347 . S
C686 C687 1.369 . S
C687 C686 1.369 . S
C687 C688 1.408 . S
C687 H714 0.930 . S
C688 C683 1.348 . S
C688 C687 1.408 . S
C688 H715 0.930 . S
C689 O702 1.281 . S
C689 O703 1.254 . S
C690 O704 1.236 . S
C690 O705 1.266 . S
C691 Tb681 2.809 1_554 S
C691 C692 1.514 . S
C691 O706 1.248 . S
C691 O707 1.266 . S
C692 C691 1.514 . S
C692 C693 1.359 . S
C692 C697 1.348 . S
C693 C692 1.359 . S
C693 C694 1.380 . S
C693 H716 0.929 . S
C694 C693 1.380 . S
C694 C695 1.347 . S
C694 H717 0.931 . S
C695 C694 1.347 . S
C695 C696 1.369 . S
C696 C695 1.369 . S
C696 C697 1.408 . S
C696 H718 0.930 . S
C697 C692 1.348 . S
C697 C696 1.408 . S
C697 H719 0.930 . S
C698 O708 1.281 . S
C698 O709 1.254 . S
C699 O710 1.236 . S
C699 O711 1.266 . S
O700 Tb680 2.484 . S
O700 C682 1.248 . S
O701 Tb680 2.440 . S
O701 C682 1.266 . S
O702 Tb680 2.658 . S
O702 Tb681 2.325 . S
O702 C689 1.281 . S
O703 Tb680 2.409 . S
O703 C689 1.254 . S
O704 Tb680 2.378 . S
O704 C690 1.236 . S
O705 Tb681 2.341 . S
O705 C690 1.266 . S
O706 Tb681 2.484 1_554 S
O706 C691 1.248 . S
O707 Tb681 2.440 1_554 S
O707 C691 1.266 . S
O708 Tb680 2.325 . S
O708 Tb681 2.658 . S
O708 C698 1.281 . S
O709 Tb681 2.409 . S
O709 C698 1.254 . S
O710 Tb681 2.378 . S
O710 C699 1.236 . S
O711 Tb680 2.341 . S
O711 C699 1.266 . S
H712 C684 0.929 . S
H713 C685 0.931 . S
H714 C687 0.930 . S
H715 C688 0.930 . S
H716 C693 0.929 . S
H717 C694 0.931 . S
H718 C696 0.930 . S
H719 C697 0.930 . S
Tb720 C722 2.809 . S
Tb720 O740 2.484 . S
Tb720 O741 2.440 . S
Tb720 O742 2.658 . S
Tb720 O743 2.409 . S
Tb720 O744 2.378 . S
Tb720 O748 2.325 . S
Tb720 O751 2.341 . S
Tb721 C731 2.809 . S
Tb721 O742 2.325 . S
Tb721 O745 2.341 . S
Tb721 O746 2.484 . S
Tb721 O747 2.440 . S
Tb721 O748 2.658 . S
Tb721 O749 2.409 . S
Tb721 O750 2.378 . S
C722 Tb720 2.809 . S
C722 C723 1.514 1_554 S
C722 O740 1.248 . S
C722 O741 1.266 . S
C723 C722 1.514 1_556 S
C723 C724 1.359 . S
C723 C728 1.348 . S
C724 C723 1.359 . S
C724 C725 1.380 . S
C724 H752 0.929 . S
C725 C724 1.380 . S
C725 C726 1.347 . S
C725 H753 0.931 . S
C726 C725 1.347 . S
C726 C727 1.369 . S
C727 C726 1.369 . S
C727 C728 1.408 . S
C727 H754 0.930 . S
C728 C723 1.348 . S
C728 C727 1.408 . S
C728 H755 0.930 . S
C729 O742 1.281 . S
C729 O743 1.254 . S
C730 O744 1.236 . S
C730 O745 1.266 . S
C731 Tb721 2.809 . S
C731 C732 1.514 . S
C731 O746 1.248 . S
C731 O747 1.266 . S
C732 C731 1.514 . S
C732 C733 1.359 . S
C732 C737 1.348 . S
C733 C732 1.359 . S
C733 C734 1.380 . S
C733 H756 0.929 . S
C734 C733 1.380 . S
C734 C735 1.347 . S
C734 H757 0.931 . S
C735 C734 1.347 . S
C735 C736 1.369 1_545 S
C736 C735 1.369 1_565 S
C736 C737 1.408 1_565 S
C736 H758 0.930 . S
C737 C732 1.348 . S
C737 C736 1.408 1_545 S
C737 H759 0.930 1_545 S
C738 O748 1.281 . S
C738 O749 1.254 . S
C739 O750 1.236 . S
C739 O751 1.266 . S
O740 Tb720 2.484 . S
O740 C722 1.248 . S
O741 Tb720 2.440 . S
O741 C722 1.266 . S
O742 Tb720 2.658 . S
O742 Tb721 2.325 . S
O742 C729 1.281 . S
O743 Tb720 2.409 . S
O743 C729 1.254 . S
O744 Tb720 2.378 . S
O744 C730 1.236 . S
O745 Tb721 2.341 . S
O745 C730 1.266 . S
O746 Tb721 2.484 . S
O746 C731 1.248 . S
O747 Tb721 2.440 . S
O747 C731 1.266 . S
O748 Tb720 2.325 . S
O748 Tb721 2.658 . S
O748 C738 1.281 . S
O749 Tb721 2.409 . S
O749 C738 1.254 . S
O750 Tb721 2.378 . S
O750 C739 1.236 . S
O751 Tb720 2.341 . S
O751 C739 1.266 . S
H752 C724 0.929 . S
H753 C725 0.931 . S
H754 C727 0.930 . S
H755 C728 0.930 . S
H756 C733 0.929 . S
H757 C734 0.931 . S
H758 C736 0.930 . S
H759 C737 0.930 1_565 S
Tb760 C762 2.809 . S
Tb760 O780 2.484 . S
Tb760 O781 2.440 . S
Tb760 O782 2.658 . S
Tb760 O783 2.409 . S
Tb760 O784 2.378 . S
Tb760 O788 2.325 . S
Tb760 O791 2.341 . S
Tb761 C771 2.809 . S
Tb761 O782 2.325 . S
Tb761 O785 2.341 . S
Tb761 O786 2.484 . S
Tb761 O787 2.440 . S
Tb761 O788 2.658 . S
Tb761 O789 2.409 . S
Tb761 O790 2.378 . S
C762 Tb760 2.809 . S
C762 C763 1.514 . S
C762 O780 1.248 . S
C762 O781 1.266 . S
C763 C762 1.514 . S
C763 C764 1.359 . S
C763 C768 1.348 . S
C764 C763 1.359 . S
C764 C765 1.380 . S
C764 H792 0.929 . S
C765 C764 1.380 . S
C765 C766 1.347 . S
C765 H793 0.931 . S
C766 C765 1.347 . S
C766 C767 1.369 . S
C767 C766 1.369 . S
C767 C768 1.408 . S
C767 H794 0.930 . S
C768 C763 1.348 . S
C768 C767 1.408 . S
C768 H795 0.930 . S
C769 O782 1.281 . S
C769 O783 1.254 . S
C770 O784 1.236 . S
C770 O785 1.266 . S
C771 Tb761 2.809 . S
C771 C772 1.514 . S
C771 O786 1.248 . S
C771 O787 1.266 . S
C772 C771 1.514 . S
C772 C773 1.359 . S
C772 C777 1.348 . S
C773 C772 1.359 . S
C773 C774 1.380 . S
C773 H796 0.929 . S
C774 C773 1.380 . S
C774 C775 1.347 . S
C774 H797 0.931 . S
C775 C774 1.347 . S
C775 C776 1.369 . S
C776 C775 1.369 . S
C776 C777 1.408 . S
C776 H798 0.930 . S
C777 C772 1.348 . S
C777 C776 1.408 . S
C777 H799 0.930 . S
C778 O788 1.281 . S
C778 O789 1.254 . S
C779 O790 1.236 . S
C779 O791 1.266 . S
O780 Tb760 2.484 . S
O780 C762 1.248 . S
O781 Tb760 2.440 . S
O781 C762 1.266 . S
O782 Tb760 2.658 . S
O782 Tb761 2.325 . S
O782 C769 1.281 . S
O783 Tb760 2.409 . S
O783 C769 1.254 . S
O784 Tb760 2.378 . S
O784 C770 1.236 . S
O785 Tb761 2.341 . S
O785 C770 1.266 . S
O786 Tb761 2.484 . S
O786 C771 1.248 . S
O787 Tb761 2.440 . S
O787 C771 1.266 . S
O788 Tb760 2.325 . S
O788 Tb761 2.658 . S
O788 C778 1.281 . S
O789 Tb761 2.409 . S
O789 C778 1.254 . S
O790 Tb761 2.378 . S
O790 C779 1.236 . S
O791 Tb760 2.341 . S
O791 C779 1.266 . S
H792 C764 0.929 . S
H793 C765 0.931 . S
H794 C767 0.930 . S
H795 C768 0.930 . S
H796 C773 0.929 . S
H797 C774 0.931 . S
H798 C776 0.930 . S
H799 C777 0.930 . S
Tb800 C802 2.809 . S
Tb800 O820 2.484 . S
Tb800 O821 2.440 . S
Tb800 O822 2.658 . S
Tb800 O823 2.409 . S
Tb800 O824 2.378 . S
Tb800 O828 2.325 . S
Tb800 O831 2.341 . S
Tb801 C811 2.809 . S
Tb801 O822 2.325 . S
Tb801 O825 2.341 . S
Tb801 O826 2.484 . S
Tb801 O827 2.440 . S
Tb801 O828 2.658 . S
Tb801 O829 2.409 . S
Tb801 O830 2.378 . S
C802 Tb800 2.809 . S
C802 C803 1.514 . S
C802 O820 1.248 . S
C802 O821 1.266 . S
C803 C802 1.514 . S
C803 C804 1.359 . S
C803 C808 1.348 . S
C804 C803 1.359 . S
C804 C805 1.380 . S
C804 H832 0.929 . S
C805 C804 1.380 . S
C805 C806 1.347 . S
C805 H833 0.931 . S
C806 C805 1.347 . S
C806 C807 1.369 . S
C807 C806 1.369 . S
C807 C808 1.408 . S
C807 H834 0.930 . S
C808 C803 1.348 . S
C808 C807 1.408 . S
C808 H835 0.930 . S
C809 O822 1.281 . S
C809 O823 1.254 . S
C810 O824 1.236 . S
C810 O825 1.266 . S
C811 Tb801 2.809 . S
C811 C812 1.514 . S
C811 O826 1.248 . S
C811 O827 1.266 . S
C812 C811 1.514 . S
C812 C813 1.359 . S
C812 C817 1.348 . S
C813 C812 1.359 . S
C813 C814 1.380 1_554 S
C813 H836 0.929 . S
C814 C813 1.380 1_556 S
C814 C815 1.347 . S
C814 H837 0.931 . S
C815 C814 1.347 . S
C815 C816 1.368 1_546 S
C816 C815 1.368 1_564 S
C816 C817 1.410 1_565 S
C816 H838 0.930 1_554 S
C817 C812 1.348 . S
C817 C816 1.410 1_545 S
C817 H839 0.930 1_545 S
C818 O828 1.281 . S
C818 O829 1.254 . S
C819 O830 1.236 . S
C819 O831 1.266 . S
O820 Tb800 2.484 . S
O820 C802 1.248 . S
O821 Tb800 2.440 . S
O821 C802 1.266 . S
O822 Tb800 2.658 . S
O822 Tb801 2.325 . S
O822 C809 1.281 . S
O823 Tb800 2.409 . S
O823 C809 1.254 . S
O824 Tb800 2.378 . S
O824 C810 1.236 . S
O825 Tb801 2.341 . S
O825 C810 1.266 . S
O826 Tb801 2.484 . S
O826 C811 1.248 . S
O827 Tb801 2.440 . S
O827 C811 1.266 . S
O828 Tb800 2.325 . S
O828 Tb801 2.658 . S
O828 C818 1.281 . S
O829 Tb801 2.409 . S
O829 C818 1.254 . S
O830 Tb801 2.378 . S
O830 C819 1.236 . S
O831 Tb800 2.341 . S
O831 C819 1.266 . S
H832 C804 0.929 . S
H833 C805 0.931 . S
H834 C807 0.930 . S
H835 C808 0.930 . S
H836 C813 0.929 . S
H837 C814 0.931 . S
H838 C816 0.930 1_556 S
H839 C817 0.930 1_565 S
Tb840 C842 2.809 . S
Tb840 O860 2.484 . S
Tb840 O861 2.440 . S
Tb840 O862 2.658 . S
Tb840 O863 2.409 . S
Tb840 O864 2.378 . S
Tb840 O868 2.325 . S
Tb840 O871 2.341 . S
Tb841 C851 2.809 . S
Tb841 O862 2.325 . S
Tb841 O865 2.341 . S
Tb841 O866 2.484 . S
Tb841 O867 2.440 . S
Tb841 O868 2.658 . S
Tb841 O869 2.409 . S
Tb841 O870 2.378 . S
C842 Tb840 2.809 . S
C842 C843 1.514 . S
C842 O860 1.248 . S
C842 O861 1.266 . S
C843 C842 1.514 . S
C843 C844 1.359 . S
C843 C848 1.348 . S
C844 C843 1.359 . S
C844 C845 1.380 . S
C844 H872 0.929 . S
C845 C844 1.380 . S
C845 C846 1.347 . S
C845 H873 0.931 . S
C846 C845 1.347 . S
C846 C847 1.369 . S
C847 C846 1.369 . S
C847 C848 1.408 . S
C847 H874 0.930 . S
C848 C843 1.348 . S
C848 C847 1.408 . S
C848 H875 0.930 . S
C849 O862 1.281 . S
C849 O863 1.254 . S
C850 O864 1.236 . S
C850 O865 1.266 . S
C851 Tb841 2.809 . S
C851 C852 1.514 . S
C851 O866 1.248 . S
C851 O867 1.266 . S
C852 C851 1.514 . S
C852 C853 1.359 . S
C852 C857 1.348 . S
C853 C852 1.359 . S
C853 C854 1.380 . S
C853 H876 0.929 . S
C854 C853 1.380 . S
C854 C855 1.347 . S
C854 H877 0.931 . S
C855 C854 1.347 . S
C855 C856 1.369 . S
C856 C855 1.369 . S
C856 C857 1.408 . S
C856 H878 0.930 . S
C857 C852 1.348 . S
C857 C856 1.408 . S
C857 H879 0.930 . S
C858 O868 1.281 . S
C858 O869 1.254 . S
C859 O870 1.236 . S
C859 O871 1.266 . S
O860 Tb840 2.484 . S
O860 C842 1.248 . S
O861 Tb840 2.440 . S
O861 C842 1.266 . S
O862 Tb840 2.658 . S
O862 Tb841 2.325 . S
O862 C849 1.281 . S
O863 Tb840 2.409 . S
O863 C849 1.254 . S
O864 Tb840 2.378 . S
O864 C850 1.236 . S
O865 Tb841 2.341 . S
O865 C850 1.266 . S
O866 Tb841 2.484 . S
O866 C851 1.248 . S
O867 Tb841 2.440 . S
O867 C851 1.266 . S
O868 Tb840 2.325 . S
O868 Tb841 2.658 . S
O868 C858 1.281 . S
O869 Tb841 2.409 . S
O869 C858 1.254 . S
O870 Tb841 2.378 . S
O870 C859 1.236 . S
O871 Tb840 2.341 . S
O871 C859 1.266 . S
H872 C844 0.929 . S
H873 C845 0.931 . S
H874 C847 0.930 . S
H875 C848 0.930 . S
H876 C853 0.929 . S
H877 C854 0.931 . S
H878 C856 0.930 . S
H879 C857 0.930 . S
Tb880 C882 2.809 . S
Tb880 O900 2.484 . S
Tb880 O901 2.440 . S
Tb880 O902 2.658 . S
Tb880 O903 2.409 . S
Tb880 O904 2.378 . S
Tb880 O908 2.325 . S
Tb880 O911 2.341 . S
Tb881 C891 2.809 . S
Tb881 O902 2.325 . S
Tb881 O905 2.341 . S
Tb881 O906 2.484 . S
Tb881 O907 2.440 . S
Tb881 O908 2.658 . S
Tb881 O909 2.409 . S
Tb881 O910 2.378 . S
C882 Tb880 2.809 . S
C882 C883 1.514 . S
C882 O900 1.248 . S
C882 O901 1.266 . S
C883 C882 1.514 . S
C883 C884 1.359 . S
C883 C888 1.348 . S
C884 C883 1.359 . S
C884 C885 1.380 . S
C884 H912 0.929 . S
C885 C884 1.380 . S
C885 C886 1.337 1_556 S
C885 H913 0.931 1_556 S
C886 C885 1.337 1_554 S
C886 C887 1.354 1_554 S
C887 C886 1.354 1_556 S
C887 C888 1.408 . S
C887 H914 0.930 . S
C888 C883 1.348 . S
C888 C887 1.408 . S
C888 H915 0.930 . S
C889 O902 1.281 . S
C889 O903 1.254 . S
C890 O904 1.236 . S
C890 O905 1.266 . S
C891 Tb881 2.809 . S
C891 C892 1.514 . S
C891 O906 1.248 . S
C891 O907 1.266 . S
C892 C891 1.514 . S
C892 C893 1.359 . S
C892 C897 1.348 . S
C893 C892 1.359 . S
C893 C894 1.380 . S
C893 H916 0.929 . S
C894 C893 1.380 . S
C894 C895 1.347 . S
C894 H917 0.931 . S
C895 C894 1.347 . S
C895 C896 1.369 1_565 S
C896 C895 1.369 1_545 S
C896 C897 1.408 1_545 S
C896 H918 0.930 . S
C897 C892 1.348 . S
C897 C896 1.408 1_565 S
C897 H919 0.930 1_565 S
C898 O908 1.281 . S
C898 O909 1.254 . S
C899 O910 1.236 . S
C899 O911 1.266 . S
O900 Tb880 2.484 . S
O900 C882 1.248 . S
O901 Tb880 2.440 . S
O901 C882 1.266 . S
O902 Tb880 2.658 . S
O902 Tb881 2.325 . S
O902 C889 1.281 . S
O903 Tb880 2.409 . S
O903 C889 1.254 . S
O904 Tb880 2.378 . S
O904 C890 1.236 . S
O905 Tb881 2.341 . S
O905 C890 1.266 . S
O906 Tb881 2.484 . S
O906 C891 1.248 . S
O907 Tb881 2.440 . S
O907 C891 1.266 . S
O908 Tb880 2.325 . S
O908 Tb881 2.658 . S
O908 C898 1.281 . S
O909 Tb881 2.409 . S
O909 C898 1.254 . S
O910 Tb881 2.378 . S
O910 C899 1.236 . S
O911 Tb880 2.341 . S
O911 C899 1.266 . S
H912 C884 0.929 . S
H913 C885 0.931 1_554 S
H914 C887 0.930 . S
H915 C888 0.930 . S
H916 C893 0.929 . S
H917 C894 0.931 . S
H918 C896 0.930 . S
H919 C897 0.930 1_545 S
Tb920 C922 2.809 . S
Tb920 O940 2.484 . S
Tb920 O941 2.440 . S
Tb920 O942 2.658 1_554 S
Tb920 O943 2.409 . S
Tb920 O944 2.378 . S
Tb920 O948 2.325 . S
Tb920 O951 2.341 1_554 S
Tb921 C931 2.809 . S
Tb921 O942 2.325 . S
Tb921 O945 2.341 1_556 S
Tb921 O946 2.484 . S
Tb921 O947 2.440 . S
Tb921 O948 2.658 1_556 S
Tb921 O949 2.409 . S
Tb921 O950 2.378 . S
C922 Tb920 2.809 . S
C922 C923 1.514 . S
C922 O940 1.248 . S
C922 O941 1.266 . S
C923 C922 1.514 . S
C923 C924 1.359 . S
C923 C928 1.348 . S
C924 C923 1.359 . S
C924 C925 1.380 . S
C924 H952 0.929 . S
C925 C924 1.380 . S
C925 C926 1.347 . S
C925 H953 0.931 . S
C926 C925 1.347 . S
C926 C927 1.369 . S
C927 C926 1.369 . S
C927 C928 1.408 . S
C927 H954 0.930 . S
C928 C923 1.348 . S
C928 C927 1.408 . S
C928 H955 0.930 . S
C929 O942 1.281 . S
C929 O943 1.254 1_556 S
C930 O944 1.236 . S
C930 O945 1.266 . S
C931 Tb921 2.809 . S
C931 C932 1.514 . S
C931 O946 1.248 . S
C931 O947 1.266 . S
C932 C931 1.514 . S
C932 C933 1.359 . S
C932 C937 1.348 . S
C933 C932 1.359 . S
C933 C934 1.380 . S
C933 H956 0.929 . S
C934 C933 1.380 . S
C934 C935 1.347 . S
C934 H957 0.931 . S
C935 C934 1.347 . S
C935 C936 1.369 . S
C936 C935 1.369 . S
C936 C937 1.408 . S
C936 H958 0.930 . S
C937 C932 1.348 . S
C937 C936 1.408 . S
C937 H959 0.930 . S
C938 O948 1.281 1_556 S
C938 O949 1.254 . S
C939 O950 1.236 . S
C939 O951 1.266 . S
O940 Tb920 2.484 . S
O940 C922 1.248 . S
O941 Tb920 2.440 . S
O941 C922 1.266 . S
O942 Tb920 2.658 1_556 S
O942 Tb921 2.325 . S
O942 C929 1.281 . S
O943 Tb920 2.409 . S
O943 C929 1.254 1_554 S
O944 Tb920 2.378 . S
O944 C930 1.236 . S
O945 Tb921 2.341 1_554 S
O945 C930 1.266 . S
O946 Tb921 2.484 . S
O946 C931 1.248 . S
O947 Tb921 2.440 . S
O947 C931 1.266 . S
O948 Tb920 2.325 . S
O948 Tb921 2.658 1_554 S
O948 C938 1.281 1_554 S
O949 Tb921 2.409 . S
O949 C938 1.254 . S
O950 Tb921 2.378 . S
O950 C939 1.236 . S
O951 Tb920 2.341 1_556 S
O951 C939 1.266 . S
H952 C924 0.929 . S
H953 C925 0.931 . S
H954 C927 0.930 . S
H955 C928 0.930 . S
H956 C933 0.929 . S
H957 C934 0.931 . S
H958 C936 0.930 . S
H959 C937 0.930 . S
Tb960 C962 2.809 . S
Tb960 O980 2.484 . S
Tb960 O981 2.440 . S
Tb960 O982 2.658 . S
Tb960 O983 2.409 . S
Tb960 O984 2.378 . S
Tb960 O988 2.325 . S
Tb960 O991 2.341 . S
Tb961 C971 2.809 . S
Tb961 O982 2.325 . S
Tb961 O985 2.341 . S
Tb961 O986 2.484 . S
Tb961 O987 2.440 . S
Tb961 O988 2.658 . S
Tb961 O989 2.409 . S
Tb961 O990 2.378 . S
C962 Tb960 2.809 . S
C962 C963 1.514 . S
C962 O980 1.248 . S
C962 O981 1.266 . S
C963 C962 1.514 . S
C963 C964 1.359 . S
C963 C968 1.348 . S
C964 C963 1.359 . S
C964 C965 1.380 . S
C964 H992 0.929 . S
C965 C964 1.380 . S
C965 C966 1.347 . S
C965 H993 0.931 . S
C966 C965 1.347 . S
C966 C967 1.369 1_545 S
C967 C966 1.369 1_565 S
C967 C968 1.408 1_565 S
C967 H994 0.930 . S
C968 C963 1.348 . S
C968 C967 1.408 1_545 S
C968 H995 0.930 1_545 S
C969 O982 1.281 . S
C969 O983 1.254 . S
C970 O984 1.236 . S
C970 O985 1.266 . S
C971 Tb961 2.809 . S
C971 C972 1.514 . S
C971 O986 1.248 . S
C971 O987 1.266 . S
C972 C971 1.514 . S
C972 C973 1.359 . S
C972 C977 1.348 . S
C973 C972 1.359 . S
C973 C974 1.380 . S
C973 H996 0.929 . S
C974 C973 1.380 . S
C974 C975 1.337 1_556 S
C974 H997 0.931 1_556 S
C975 C974 1.337 1_554 S
C975 C976 1.354 1_554 S
C976 C975 1.354 1_556 S
C976 C977 1.408 . S
C976 H998 0.930 . S
C977 C972 1.348 . S
C977 C976 1.408 . S
C977 H999 0.930 . S
C978 O988 1.281 . S
C978 O989 1.254 . S
C979 O990 1.236 . S
C979 O991 1.266 . S
O980 Tb960 2.484 . S
O980 C962 1.248 . S
O981 Tb960 2.440 . S
O981 C962 1.266 . S
O982 Tb960 2.658 . S
O982 Tb961 2.325 . S
O982 C969 1.281 . S
O983 Tb960 2.409 . S
O983 C969 1.254 . S
O984 Tb960 2.378 . S
O984 C970 1.236 . S
O985 Tb961 2.341 . S
O985 C970 1.266 . S
O986 Tb961 2.484 . S
O986 C971 1.248 . S
O987 Tb961 2.440 . S
O987 C971 1.266 . S
O988 Tb960 2.325 . S
O988 Tb961 2.658 . S
O988 C978 1.281 . S
O989 Tb961 2.409 . S
O989 C978 1.254 . S
O990 Tb961 2.378 . S
O990 C979 1.236 . S
O991 Tb960 2.341 . S
O991 C979 1.266 . S
H992 C964 0.929 . S
H993 C965 0.931 . S
H994 C967 0.930 . S
H995 C968 0.930 1_565 S
H996 C973 0.929 . S
H997 C974 0.931 1_554 S
H998 C976 0.930 . S
H999 C977 0.930 . S
Tb1000 C1002 2.809 . S
Tb1000 O1020 2.484 . S
Tb1000 O1021 2.440 . S
Tb1000 O1022 2.658 . S
Tb1000 O1023 2.409 . S
Tb1000 O1024 2.378 . S
Tb1000 O1028 2.325 . S
Tb1000 O1031 2.341 . S
Tb1001 C1011 2.809 . S
Tb1001 O1022 2.325 . S
Tb1001 O1025 2.341 . S
Tb1001 O1026 2.484 . S
Tb1001 O1027 2.440 . S
Tb1001 O1028 2.658 . S
Tb1001 O1029 2.409 . S
Tb1001 O1030 2.378 . S
C1002 Tb1000 2.809 . S
C1002 C1003 1.514 . S
C1002 O1020 1.248 . S
C1002 O1021 1.266 . S
C1003 C1002 1.514 . S
C1003 C1004 1.359 . S
C1003 C1008 1.348 . S
C1004 C1003 1.359 . S
C1004 C1005 1.380 . S
C1004 H1032 0.929 . S
C1005 C1004 1.380 . S
C1005 C1006 1.347 . S
C1005 H1033 0.931 . S
C1006 C1005 1.347 . S
C1006 C1007 1.369 . S
C1007 C1006 1.369 . S
C1007 C1008 1.408 . S
C1007 H1034 0.930 . S
C1008 C1003 1.348 . S
C1008 C1007 1.408 . S
C1008 H1035 0.930 . S
C1009 O1022 1.281 . S
C1009 O1023 1.254 . S
C1010 O1024 1.236 . S
C1010 O1025 1.266 . S
C1011 Tb1001 2.809 . S
C1011 C1012 1.514 . S
C1011 O1026 1.248 . S
C1011 O1027 1.266 . S
C1012 C1011 1.514 . S
C1012 C1013 1.359 . S
C1012 C1017 1.348 . S
C1013 C1012 1.359 . S
C1013 C1014 1.380 . S
C1013 H1036 0.929 . S
C1014 C1013 1.380 . S
C1014 C1015 1.347 . S
C1014 H1037 0.931 . S
C1015 C1014 1.347 . S
C1015 C1016 1.369 . S
C1016 C1015 1.369 . S
C1016 C1017 1.408 . S
C1016 H1038 0.930 . S
C1017 C1012 1.348 . S
C1017 C1016 1.408 . S
C1017 H1039 0.930 . S
C1018 O1028 1.281 . S
C1018 O1029 1.254 . S
C1019 O1030 1.236 . S
C1019 O1031 1.266 . S
O1020 Tb1000 2.484 . S
O1020 C1002 1.248 . S
O1021 Tb1000 2.440 . S
O1021 C1002 1.266 . S
O1022 Tb1000 2.658 . S
O1022 Tb1001 2.325 . S
O1022 C1009 1.281 . S
O1023 Tb1000 2.409 . S
O1023 C1009 1.254 . S
O1024 Tb1000 2.378 . S
O1024 C1010 1.236 . S
O1025 Tb1001 2.341 . S
O1025 C1010 1.266 . S
O1026 Tb1001 2.484 . S
O1026 C1011 1.248 . S
O1027 Tb1001 2.440 . S
O1027 C1011 1.266 . S
O1028 Tb1000 2.325 . S
O1028 Tb1001 2.658 . S
O1028 C1018 1.281 . S
O1029 Tb1001 2.409 . S
O1029 C1018 1.254 . S
O1030 Tb1001 2.378 . S
O1030 C1019 1.236 . S
O1031 Tb1000 2.341 . S
O1031 C1019 1.266 . S
H1032 C1004 0.929 . S
H1033 C1005 0.931 . S
H1034 C1007 0.930 . S
H1035 C1008 0.930 . S
H1036 C1013 0.929 . S
H1037 C1014 0.931 . S
H1038 C1016 0.930 . S
H1039 C1017 0.930 . S
Tb1040 C1042 2.809 . S
Tb1040 O1060 2.484 . S
Tb1040 O1061 2.440 . S
Tb1040 O1062 2.658 . S
Tb1040 O1063 2.409 . S
Tb1040 O1064 2.378 . S
Tb1040 O1068 2.325 . S
Tb1040 O1071 2.341 . S
Tb1041 C1051 2.809 . S
Tb1041 O1062 2.325 . S
Tb1041 O1065 2.341 . S
Tb1041 O1066 2.484 . S
Tb1041 O1067 2.440 . S
Tb1041 O1068 2.658 . S
Tb1041 O1069 2.409 . S
Tb1041 O1070 2.378 . S
C1042 Tb1040 2.809 . S
C1042 C1043 1.514 . S
C1042 O1060 1.248 . S
C1042 O1061 1.266 . S
C1043 C1042 1.514 . S
C1043 C1044 1.359 . S
C1043 C1048 1.348 . S
C1044 C1043 1.359 . S
C1044 C1045 1.380 1_554 S
C1044 H1072 0.929 . S
C1045 C1044 1.380 1_556 S
C1045 C1046 1.347 . S
C1045 H1073 0.931 . S
C1046 C1045 1.347 . S
C1046 C1047 1.368 1_566 S
C1047 C1046 1.368 1_544 S
C1047 C1048 1.410 1_545 S
C1047 H1074 0.930 1_554 S
C1048 C1043 1.348 . S
C1048 C1047 1.410 1_565 S
C1048 H1075 0.930 1_565 S
C1049 O1062 1.281 . S
C1049 O1063 1.254 . S
C1050 O1064 1.236 . S
C1050 O1065 1.266 . S
C1051 Tb1041 2.809 . S
C1051 C1052 1.514 . S
C1051 O1066 1.248 . S
C1051 O1067 1.266 . S
C1052 C1051 1.514 . S
C1052 C1053 1.359 . S
C1052 C1057 1.348 . S
C1053 C1052 1.359 . S
C1053 C1054 1.380 . S
C1053 H1076 0.929 . S
C1054 C1053 1.380 . S
C1054 C1055 1.347 . S
C1054 H1077 0.931 . S
C1055 C1054 1.347 . S
C1055 C1056 1.369 . S
C1056 C1055 1.369 . S
C1056 C1057 1.408 . S
C1056 H1078 0.930 . S
C1057 C1052 1.348 . S
C1057 C1056 1.408 . S
C1057 H1079 0.930 . S
C1058 O1068 1.281 . S
C1058 O1069 1.254 . S
C1059 O1070 1.236 . S
C1059 O1071 1.266 . S
O1060 Tb1040 2.484 . S
O1060 C1042 1.248 . S
O1061 Tb1040 2.440 . S
O1061 C1042 1.266 . S
O1062 Tb1040 2.658 . S
O1062 Tb1041 2.325 . S
O1062 C1049 1.281 . S
O1063 Tb1040 2.409 . S
O1063 C1049 1.254 . S
O1064 Tb1040 2.378 . S
O1064 C1050 1.236 . S
O1065 Tb1041 2.341 . S
O1065 C1050 1.266 . S
O1066 Tb1041 2.484 . S
O1066 C1051 1.248 . S
O1067 Tb1041 2.440 . S
O1067 C1051 1.266 . S
O1068 Tb1040 2.325 . S
O1068 Tb1041 2.658 . S
O1068 C1058 1.281 . S
O1069 Tb1041 2.409 . S
O1069 C1058 1.254 . S
O1070 Tb1041 2.378 . S
O1070 C1059 1.236 . S
O1071 Tb1040 2.341 . S
O1071 C1059 1.266 . S
H1072 C1044 0.929 . S
H1073 C1045 0.931 . S
H1074 C1047 0.930 1_556 S
H1075 C1048 0.930 1_545 S
H1076 C1053 0.929 . S
H1077 C1054 0.931 . S
H1078 C1056 0.930 . S
H1079 C1057 0.930 . S
Tb1080 C1082 2.809 . S
Tb1080 O1100 2.484 . S
Tb1080 O1101 2.440 . S
Tb1080 O1102 2.658 1_556 S
Tb1080 O1103 2.409 . S
Tb1080 O1104 2.378 . S
Tb1080 O1108 2.325 . S
Tb1080 O1111 2.341 1_556 S
Tb1081 C1091 2.809 . S
Tb1081 O1102 2.325 . S
Tb1081 O1105 2.341 1_554 S
Tb1081 O1106 2.484 . S
Tb1081 O1107 2.440 . S
Tb1081 O1108 2.658 1_554 S
Tb1081 O1109 2.409 . S
Tb1081 O1110 2.378 . S
C1082 Tb1080 2.809 . S
C1082 C1083 1.514 . S
C1082 O1100 1.248 . S
C1082 O1101 1.266 . S
C1083 C1082 1.514 . S
C1083 C1084 1.359 . S
C1083 C1088 1.348 . S
C1084 C1083 1.359 . S
C1084 C1085 1.380 . S
C1084 H1112 0.929 . S
C1085 C1084 1.380 . S
C1085 C1086 1.347 . S
C1085 H1113 0.931 . S
C1086 C1085 1.347 . S
C1086 C1087 1.369 . S
C1087 C1086 1.369 . S
C1087 C1088 1.408 . S
C1087 H1114 0.930 . S
C1088 C1083 1.348 . S
C1088 C1087 1.408 . S
C1088 H1115 0.930 . S
C1089 O1102 1.281 1_556 S
C1089 O1103 1.254 . S
C1090 O1104 1.236 . S
C1090 O1105 1.266 . S
C1091 Tb1081 2.809 . S
C1091 C1092 1.514 . S
C1091 O1106 1.248 . S
C1091 O1107 1.266 . S
C1092 C1091 1.514 . S
C1092 C1093 1.359 . S
C1092 C1097 1.348 . S
C1093 C1092 1.359 . S
C1093 C1094 1.380 . S
C1093 H1116 0.929 . S
C1094 C1093 1.380 . S
C1094 C1095 1.347 . S
C1094 H1117 0.931 . S
C1095 C1094 1.347 . S
C1095 C1096 1.369 . S
C1096 C1095 1.369 . S
C1096 C1097 1.408 . S
C1096 H1118 0.930 . S
C1097 C1092 1.348 . S
C1097 C1096 1.408 . S
C1097 H1119 0.930 . S
C1098 O1108 1.281 . S
C1098 O1109 1.254 1_556 S
C1099 O1110 1.236 . S
C1099 O1111 1.266 . S
O1100 Tb1080 2.484 . S
O1100 C1082 1.248 . S
O1101 Tb1080 2.440 . S
O1101 C1082 1.266 . S
O1102 Tb1080 2.658 1_554 S
O1102 Tb1081 2.325 . S
O1102 C1089 1.281 1_554 S
O1103 Tb1080 2.409 . S
O1103 C1089 1.254 . S
O1104 Tb1080 2.378 . S
O1104 C1090 1.236 . S
O1105 Tb1081 2.341 1_556 S
O1105 C1090 1.266 . S
O1106 Tb1081 2.484 . S
O1106 C1091 1.248 . S
O1107 Tb1081 2.440 . S
O1107 C1091 1.266 . S
O1108 Tb1080 2.325 . S
O1108 Tb1081 2.658 1_556 S
O1108 C1098 1.281 . S
O1109 Tb1081 2.409 . S
O1109 C1098 1.254 1_554 S
O1110 Tb1081 2.378 . S
O1110 C1099 1.236 . S
O1111 Tb1080 2.341 1_554 S
O1111 C1099 1.266 . S
H1112 C1084 0.929 . S
H1113 C1085 0.931 . S
H1114 C1087 0.930 . S
H1115 C1088 0.930 . S
H1116 C1093 0.929 . S
H1117 C1094 0.931 . S
H1118 C1096 0.930 . S
H1119 C1097 0.930 . S
Tb1120 C1122 2.809 . S
Tb1120 O1140 2.484 . S
Tb1120 O1141 2.440 . S
Tb1120 O1142 2.658 . S
Tb1120 O1143 2.409 . S
Tb1120 O1144 2.378 . S
Tb1120 O1148 2.325 . S
Tb1120 O1151 2.341 . S
Tb1121 C1131 2.809 . S
Tb1121 O1142 2.325 . S
Tb1121 O1145 2.341 . S
Tb1121 O1146 2.484 . S
Tb1121 O1147 2.440 . S
Tb1121 O1148 2.658 . S
Tb1121 O1149 2.409 . S
Tb1121 O1150 2.378 . S
C1122 Tb1120 2.809 . S
C1122 C1123 1.514 . S
C1122 O1140 1.248 . S
C1122 O1141 1.266 . S
C1123 C1122 1.514 . S
C1123 C1124 1.359 . S
C1123 C1128 1.348 . S
C1124 C1123 1.359 . S
C1124 C1125 1.380 . S
C1124 H1152 0.929 . S
C1125 C1124 1.380 . S
C1125 C1126 1.347 . S
C1125 H1153 0.931 . S
C1126 C1125 1.347 . S
C1126 C1127 1.369 1_565 S
C1127 C1126 1.369 1_545 S
C1127 C1128 1.408 1_545 S
C1127 H1154 0.930 . S
C1128 C1123 1.348 . S
C1128 C1127 1.408 1_565 S
C1128 H1155 0.930 1_565 S
C1129 O1142 1.281 . S
C1129 O1143 1.254 . S
C1130 O1144 1.236 . S
C1130 O1145 1.266 . S
C1131 Tb1121 2.809 . S
C1131 C1132 1.514 1_554 S
C1131 O1146 1.248 . S
C1131 O1147 1.266 . S
C1132 C1131 1.514 1_556 S
C1132 C1133 1.359 . S
C1132 C1137 1.348 . S
C1133 C1132 1.359 . S
C1133 C1134 1.380 . S
C1133 H1156 0.929 . S
C1134 C1133 1.380 . S
C1134 C1135 1.347 . S
C1134 H1157 0.931 . S
C1135 C1134 1.347 . S
C1135 C1136 1.369 . S
C1136 C1135 1.369 . S
C1136 C1137 1.408 . S
C1136 H1158 0.930 . S
C1137 C1132 1.348 . S
C1137 C1136 1.408 . S
C1137 H1159 0.930 . S
C1138 O1148 1.281 . S
C1138 O1149 1.254 . S
C1139 O1150 1.236 . S
C1139 O1151 1.266 . S
O1140 Tb1120 2.484 . S
O1140 C1122 1.248 . S
O1141 Tb1120 2.440 . S
O1141 C1122 1.266 . S
O1142 Tb1120 2.658 . S
O1142 Tb1121 2.325 . S
O1142 C1129 1.281 . S
O1143 Tb1120 2.409 . S
O1143 C1129 1.254 . S
O1144 Tb1120 2.378 . S
O1144 C1130 1.236 . S
O1145 Tb1121 2.341 . S
O1145 C1130 1.266 . S
O1146 Tb1121 2.484 . S
O1146 C1131 1.248 . S
O1147 Tb1121 2.440 . S
O1147 C1131 1.266 . S
O1148 Tb1120 2.325 . S
O1148 Tb1121 2.658 . S
O1148 C1138 1.281 . S
O1149 Tb1121 2.409 . S
O1149 C1138 1.254 . S
O1150 Tb1121 2.378 . S
O1150 C1139 1.236 . S
O1151 Tb1120 2.341 . S
O1151 C1139 1.266 . S
H1152 C1124 0.929 . S
H1153 C1125 0.931 . S
H1154 C1127 0.930 . S
H1155 C1128 0.930 1_545 S
H1156 C1133 0.929 . S
H1157 C1134 0.931 . S
H1158 C1136 0.930 . S
H1159 C1137 0.930 . S
Tb1160 C1162 2.809 1_556 S
Tb1160 O1180 2.484 1_556 S
Tb1160 O1181 2.440 1_556 S
Tb1160 O1182 2.658 . S
Tb1160 O1183 2.409 . S
Tb1160 O1184 2.378 . S
Tb1160 O1188 2.325 . S
Tb1160 O1191 2.341 . S
Tb1161 C1171 2.809 . S
Tb1161 O1182 2.325 . S
Tb1161 O1185 2.341 . S
Tb1161 O1186 2.484 . S
Tb1161 O1187 2.440 . S
Tb1161 O1188 2.658 . S
Tb1161 O1189 2.409 . S
Tb1161 O1190 2.378 . S
C1162 Tb1160 2.809 1_554 S
C1162 C1163 1.514 . S
C1162 O1180 1.248 . S
C1162 O1181 1.266 . S
C1163 C1162 1.514 . S
C1163 C1164 1.359 . S
C1163 C1168 1.348 . S
C1164 C1163 1.359 . S
C1164 C1165 1.380 . S
C1164 H1192 0.929 . S
C1165 C1164 1.380 . S
C1165 C1166 1.347 . S
C1165 H1193 0.931 . S
C1166 C1165 1.347 . S
C1166 C1167 1.369 . S
C1167 C1166 1.369 . S
C1167 C1168 1.408 . S
C1167 H1194 0.930 . S
C1168 C1163 1.348 . S
C1168 C1167 1.408 . S
C1168 H1195 0.930 . S
C1169 O1182 1.281 . S
C1169 O1183 1.254 . S
C1170 O1184 1.236 . S
C1170 O1185 1.266 . S
C1171 Tb1161 2.809 . S
C1171 C1172 1.514 . S
C1171 O1186 1.248 . S
C1171 O1187 1.266 . S
C1172 C1171 1.514 . S
C1172 C1173 1.359 . S
C1172 C1177 1.348 . S
C1173 C1172 1.359 . S
C1173 C1174 1.380 . S
C1173 H1196 0.929 . S
C1174 C1173 1.380 . S
C1174 C1175 1.347 . S
C1174 H1197 0.931 . S
C1175 C1174 1.347 . S
C1175 C1176 1.369 . S
C1176 C1175 1.369 . S
C1176 C1177 1.408 . S
C1176 H1198 0.930 . S
C1177 C1172 1.348 . S
C1177 C1176 1.408 . S
C1177 H1199 0.930 . S
C1178 O1188 1.281 . S
C1178 O1189 1.254 . S
C1179 O1190 1.236 . S
C1179 O1191 1.266 . S
O1180 Tb1160 2.484 1_554 S
O1180 C1162 1.248 . S
O1181 Tb1160 2.440 1_554 S
O1181 C1162 1.266 . S
O1182 Tb1160 2.658 . S
O1182 Tb1161 2.325 . S
O1182 C1169 1.281 . S
O1183 Tb1160 2.409 . S
O1183 C1169 1.254 . S
O1184 Tb1160 2.378 . S
O1184 C1170 1.236 . S
O1185 Tb1161 2.341 . S
O1185 C1170 1.266 . S
O1186 Tb1161 2.484 . S
O1186 C1171 1.248 . S
O1187 Tb1161 2.440 . S
O1187 C1171 1.266 . S
O1188 Tb1160 2.325 . S
O1188 Tb1161 2.658 . S
O1188 C1178 1.281 . S
O1189 Tb1161 2.409 . S
O1189 C1178 1.254 . S
O1190 Tb1161 2.378 . S
O1190 C1179 1.236 . S
O1191 Tb1160 2.341 . S
O1191 C1179 1.266 . S
H1192 C1164 0.929 . S
H1193 C1165 0.931 . S
H1194 C1167 0.930 . S
H1195 C1168 0.930 . S
H1196 C1173 0.929 . S
H1197 C1174 0.931 . S
H1198 C1176 0.930 . S
H1199 C1177 0.930 . S
Tb1200 C1202 2.809 . S
Tb1200 O1220 2.484 . S
Tb1200 O1221 2.440 . S
Tb1200 O1222 2.658 . S
Tb1200 O1223 2.409 . S
Tb1200 O1224 2.378 . S
Tb1200 O1228 2.325 . S
Tb1200 O1231 2.341 . S
Tb1201 C1211 2.809 . S
Tb1201 O1222 2.325 . S
Tb1201 O1225 2.341 . S
Tb1201 O1226 2.484 . S
Tb1201 O1227 2.440 . S
Tb1201 O1228 2.658 . S
Tb1201 O1229 2.409 . S
Tb1201 O1230 2.378 . S
C1202 Tb1200 2.809 . S
C1202 C1203 1.514 . S
C1202 O1220 1.248 . S
C1202 O1221 1.266 . S
C1203 C1202 1.514 . S
C1203 C1204 1.359 . S
C1203 C1208 1.348 . S
C1204 C1203 1.359 . S
C1204 C1205 1.380 . S
C1204 H1232 0.929 . S
C1205 C1204 1.380 . S
C1205 C1206 1.347 . S
C1205 H1233 0.931 . S
C1206 C1205 1.347 . S
C1206 C1207 1.369 1_545 S
C1207 C1206 1.369 1_565 S
C1207 C1208 1.408 1_565 S
C1207 H1234 0.930 . S
C1208 C1203 1.348 . S
C1208 C1207 1.408 1_545 S
C1208 H1235 0.930 1_545 S
C1209 O1222 1.281 . S
C1209 O1223 1.254 . S
C1210 O1224 1.236 . S
C1210 O1225 1.266 . S
C1211 Tb1201 2.809 . S
C1211 C1212 1.514 . S
C1211 O1226 1.248 . S
C1211 O1227 1.266 . S
C1212 C1211 1.514 . S
C1212 C1213 1.359 . S
C1212 C1217 1.348 . S
C1213 C1212 1.359 . S
C1213 C1214 1.380 . S
C1213 H1236 0.929 . S
C1214 C1213 1.380 . S
C1214 C1215 1.347 . S
C1214 H1237 0.931 . S
C1215 C1214 1.347 . S
C1215 C1216 1.369 . S
C1216 C1215 1.369 . S
C1216 C1217 1.408 . S
C1216 H1238 0.930 . S
C1217 C1212 1.348 . S
C1217 C1216 1.408 . S
C1217 H1239 0.930 . S
C1218 O1228 1.281 . S
C1218 O1229 1.254 . S
C1219 O1230 1.236 . S
C1219 O1231 1.266 . S
O1220 Tb1200 2.484 . S
O1220 C1202 1.248 . S
O1221 Tb1200 2.440 . S
O1221 C1202 1.266 . S
O1222 Tb1200 2.658 . S
O1222 Tb1201 2.325 . S
O1222 C1209 1.281 . S
O1223 Tb1200 2.409 . S
O1223 C1209 1.254 . S
O1224 Tb1200 2.378 . S
O1224 C1210 1.236 . S
O1225 Tb1201 2.341 . S
O1225 C1210 1.266 . S
O1226 Tb1201 2.484 . S
O1226 C1211 1.248 . S
O1227 Tb1201 2.440 . S
O1227 C1211 1.266 . S
O1228 Tb1200 2.325 . S
O1228 Tb1201 2.658 . S
O1228 C1218 1.281 . S
O1229 Tb1201 2.409 . S
O1229 C1218 1.254 . S
O1230 Tb1201 2.378 . S
O1230 C1219 1.236 . S
O1231 Tb1200 2.341 . S
O1231 C1219 1.266 . S
H1232 C1204 0.929 . S
H1233 C1205 0.931 . S
H1234 C1207 0.930 . S
H1235 C1208 0.930 1_565 S
H1236 C1213 0.929 . S
H1237 C1214 0.931 . S
H1238 C1216 0.930 . S
H1239 C1217 0.930 . S
Tb1240 C1242 2.809 . S
Tb1240 O1260 2.484 . S
Tb1240 O1261 2.440 . S
Tb1240 O1262 2.658 . S
Tb1240 O1263 2.409 . S
Tb1240 O1264 2.378 . S
Tb1240 O1268 2.325 . S
Tb1240 O1271 2.341 . S
Tb1241 C1251 2.809 . S
Tb1241 O1262 2.325 . S
Tb1241 O1265 2.341 . S
Tb1241 O1266 2.484 . S
Tb1241 O1267 2.440 . S
Tb1241 O1268 2.658 . S
Tb1241 O1269 2.409 . S
Tb1241 O1270 2.378 . S
C1242 Tb1240 2.809 . S
C1242 C1243 1.514 . S
C1242 O1260 1.248 . S
C1242 O1261 1.266 . S
C1243 C1242 1.514 . S
C1243 C1244 1.359 . S
C1243 C1248 1.348 . S
C1244 C1243 1.359 . S
C1244 C1245 1.380 . S
C1244 H1272 0.929 . S
C1245 C1244 1.380 . S
C1245 C1246 1.347 . S
C1245 H1273 0.931 . S
C1246 C1245 1.347 . S
C1246 C1247 1.369 . S
C1247 C1246 1.369 . S
C1247 C1248 1.408 . S
C1247 H1274 0.930 . S
C1248 C1243 1.348 . S
C1248 C1247 1.408 . S
C1248 H1275 0.930 . S
C1249 O1262 1.281 . S
C1249 O1263 1.254 . S
C1250 O1264 1.236 . S
C1250 O1265 1.266 . S
C1251 Tb1241 2.809 . S
C1251 C1252 1.514 . S
C1251 O1266 1.248 . S
C1251 O1267 1.266 . S
C1252 C1251 1.514 . S
C1252 C1253 1.359 . S
C1252 C1257 1.348 . S
C1253 C1252 1.359 . S
C1253 C1254 1.380 . S
C1253 H1276 0.929 . S
C1254 C1253 1.380 . S
C1254 C1255 1.347 . S
C1254 H1277 0.931 . S
C1255 C1254 1.347 . S
C1255 C1256 1.369 . S
C1256 C1255 1.369 . S
C1256 C1257 1.408 . S
C1256 H1278 0.930 . S
C1257 C1252 1.348 . S
C1257 C1256 1.408 . S
C1257 H1279 0.930 . S
C1258 O1268 1.281 . S
C1258 O1269 1.254 . S
C1259 O1270 1.236 . S
C1259 O1271 1.266 . S
O1260 Tb1240 2.484 . S
O1260 C1242 1.248 . S
O1261 Tb1240 2.440 . S
O1261 C1242 1.266 . S
O1262 Tb1240 2.658 . S
O1262 Tb1241 2.325 . S
O1262 C1249 1.281 . S
O1263 Tb1240 2.409 . S
O1263 C1249 1.254 . S
O1264 Tb1240 2.378 . S
O1264 C1250 1.236 . S
O1265 Tb1241 2.341 . S
O1265 C1250 1.266 . S
O1266 Tb1241 2.484 . S
O1266 C1251 1.248 . S
O1267 Tb1241 2.440 . S
O1267 C1251 1.266 . S
O1268 Tb1240 2.325 . S
O1268 Tb1241 2.658 . S
O1268 C1258 1.281 . S
O1269 Tb1241 2.409 . S
O1269 C1258 1.254 . S
O1270 Tb1241 2.378 . S
O1270 C1259 1.236 . S
O1271 Tb1240 2.341 . S
O1271 C1259 1.266 . S
H1272 C1244 0.929 . S
H1273 C1245 0.931 . S
H1274 C1247 0.930 . S
H1275 C1248 0.930 . S
H1276 C1253 0.929 . S
H1277 C1254 0.931 . S
H1278 C1256 0.930 . S
H1279 C1257 0.930 . S
C1280 C1281 1.369 . S
C1280 C1282 1.419 . S
C1280 H1284 0.930 . S
C1281 C1280 1.369 . S
C1281 C1290 1.429 . S
C1282 C1280 1.419 . S
C1282 C1283 1.363 . S
C1282 H1285 0.929 . S
C1283 C1282 1.363 . S
C1283 C1289 1.428 . S
H1284 C1280 0.930 . S
H1285 C1282 0.929 . S
S1286 N1287 1.613 . S
S1286 N1288 1.610 . S
N1287 S1286 1.613 . S
N1287 C1290 1.350 . S
N1288 S1286 1.610 . S
N1288 C1289 1.351 . S
C1289 C1283 1.428 . S
C1289 N1288 1.351 . S
C1289 C1290 1.434 . S
C1290 C1281 1.429 . S
C1290 N1287 1.350 . S
C1290 C1289 1.434 . S
C1291 C1292 1.369 . S
C1291 C1293 1.419 . S
C1291 H1295 0.930 . S
C1292 C1291 1.369 . S
C1292 C1301 1.429 . S
C1293 C1291 1.419 . S
C1293 C1294 1.363 . S
C1293 H1296 0.929 . S
C1294 C1293 1.363 . S
C1294 C1300 1.428 . S
H1295 C1291 0.930 . S
H1296 C1293 0.929 . S
S1297 N1298 1.613 . S
S1297 N1299 1.610 . S
N1298 S1297 1.613 . S
N1298 C1301 1.350 . S
N1299 S1297 1.610 . S
N1299 C1300 1.351 . S
C1300 C1294 1.428 . S
C1300 N1299 1.351 . S
C1300 C1301 1.434 . S
C1301 C1292 1.429 . S
C1301 N1298 1.350 . S
C1301 C1300 1.434 . S
C1302 C1303 1.369 . S
C1302 C1304 1.419 . S
C1302 H1306 0.930 1_556 S
C1303 C1302 1.369 . S
C1303 C1312 1.429 . S
C1304 C1302 1.419 . S
C1304 C1305 1.363 . S
C1304 H1307 0.929 1_556 S
C1305 C1304 1.363 . S
C1305 C1311 1.428 . S
H1306 C1302 0.930 1_554 S
H1307 C1304 0.929 1_554 S
S1308 N1309 1.613 . S
S1308 N1310 1.610 . S
N1309 S1308 1.613 . S
N1309 C1312 1.350 . S
N1310 S1308 1.610 . S
N1310 C1311 1.351 . S
C1311 C1305 1.428 . S
C1311 N1310 1.351 . S
C1311 C1312 1.434 . S
C1312 C1303 1.429 . S
C1312 N1309 1.350 . S
C1312 C1311 1.434 . S
C1313 C1314 1.369 . S
C1313 C1315 1.419 . S
C1313 H1317 0.930 . S
C1314 C1313 1.369 . S
C1314 C1323 1.429 . S
C1315 C1313 1.419 . S
C1315 C1316 1.363 . S
C1315 H1318 0.929 . S
C1316 C1315 1.363 . S
C1316 C1322 1.428 . S
H1317 C1313 0.930 . S
H1318 C1315 0.929 . S
S1319 N1320 1.613 . S
S1319 N1321 1.610 . S
N1320 S1319 1.613 . S
N1320 C1323 1.350 . S
N1321 S1319 1.610 . S
N1321 C1322 1.351 . S
C1322 C1316 1.428 . S
C1322 N1321 1.351 . S
C1322 C1323 1.434 . S
C1323 C1314 1.429 . S
C1323 N1320 1.350 . S
C1323 C1322 1.434 . S
C1324 C1325 1.369 . S
C1324 C1326 1.419 . S
C1324 H1328 0.930 . S
C1325 C1324 1.369 . S
C1325 C1334 1.429 . S
C1326 C1324 1.419 . S
C1326 C1327 1.363 . S
C1326 H1329 0.929 . S
C1327 C1326 1.363 . S
C1327 C1333 1.428 . S
H1328 C1324 0.930 . S
H1329 C1326 0.929 . S
S1330 N1331 1.613 . S
S1330 N1332 1.610 1_554 S
N1331 S1330 1.613 . S
N1331 C1334 1.350 1_554 S
N1332 S1330 1.610 1_556 S
N1332 C1333 1.351 . S
C1333 C1327 1.428 . S
C1333 N1332 1.351 . S
C1333 C1334 1.434 . S
C1334 C1325 1.429 . S
C1334 N1331 1.350 1_556 S
C1334 C1333 1.434 . S
C1335 C1336 1.369 . S
C1335 C1337 1.419 . S
C1335 H1339 0.930 . S
C1336 C1335 1.369 . S
C1336 C1345 1.429 . S
C1337 C1335 1.419 . S
C1337 C1338 1.363 . S
C1337 H1340 0.929 . S
C1338 C1337 1.363 . S
C1338 C1344 1.428 . S
H1339 C1335 0.930 . S
H1340 C1337 0.929 . S
S1341 N1342 1.613 . S
S1341 N1343 1.610 . S
N1342 S1341 1.613 . S
N1342 C1345 1.350 . S
N1343 S1341 1.610 . S
N1343 C1344 1.351 . S
C1344 C1338 1.428 . S
C1344 N1343 1.351 . S
C1344 C1345 1.434 . S
C1345 C1336 1.429 . S
C1345 N1342 1.350 . S
C1345 C1344 1.434 . S
C1346 C1347 1.369 . S
C1346 C1348 1.419 . S
C1346 H1350 0.930 . S
C1347 C1346 1.369 . S
C1347 C1356 1.429 . S
C1348 C1346 1.419 . S
C1348 C1349 1.363 . S
C1348 H1351 0.929 . S
C1349 C1348 1.363 . S
C1349 C1355 1.428 . S
H1350 C1346 0.930 . S
H1351 C1348 0.929 . S
S1352 N1353 1.613 . S
S1352 N1354 1.610 . S
N1353 S1352 1.613 . S
N1353 C1356 1.350 . S
N1354 S1352 1.610 . S
N1354 C1355 1.351 . S
C1355 C1349 1.428 . S
C1355 N1354 1.351 . S
C1355 C1356 1.434 . S
C1356 C1347 1.429 . S
C1356 N1353 1.350 . S
C1356 C1355 1.434 . S
C1357 C1358 1.369 . S
C1357 C1359 1.419 . S
C1357 H1361 0.930 . S
C1358 C1357 1.369 . S
C1358 C1367 1.429 . S
C1359 C1357 1.419 . S
C1359 C1360 1.363 . S
C1359 H1362 0.929 . S
C1360 C1359 1.363 . S
C1360 C1366 1.428 . S
H1361 C1357 0.930 . S
H1362 C1359 0.929 . S
S1363 N1364 1.613 . S
S1363 N1365 1.610 . S
N1364 S1363 1.613 . S
N1364 C1367 1.350 . S
N1365 S1363 1.610 . S
N1365 C1366 1.351 . S
C1366 C1360 1.428 . S
C1366 N1365 1.351 . S
C1366 C1367 1.434 . S
C1367 C1358 1.429 . S
C1367 N1364 1.350 . S
C1367 C1366 1.434 . S
C1368 C1369 1.369 . S
C1368 C1370 1.419 1_545 S
C1368 H1372 0.930 . S
C1369 C1368 1.369 . S
C1369 C1378 1.429 . S
C1370 C1368 1.419 1_565 S
C1370 C1371 1.363 . S
C1370 H1373 0.929 . S
C1371 C1370 1.363 . S
C1371 C1377 1.428 . S
H1372 C1368 0.930 . S
H1373 C1370 0.929 . S
S1374 N1375 1.613 1_565 S
S1374 N1376 1.610 . S
N1375 S1374 1.613 1_545 S
N1375 C1378 1.350 1_554 S
N1376 S1374 1.610 . S
N1376 C1377 1.351 1_554 S
C1377 C1371 1.428 . S
C1377 N1376 1.351 1_556 S
C1377 C1378 1.434 1_565 S
C1378 C1369 1.429 . S
C1378 N1375 1.350 1_556 S
C1378 C1377 1.434 1_545 S
C1379 C1380 1.369 . S
C1379 C1381 1.419 . S
C1379 H1383 0.930 . S
C1380 C1379 1.369 . S
C1380 C1389 1.429 . S
C1381 C1379 1.419 . S
C1381 C1382 1.363 . S
C1381 H1384 0.929 . S
C1382 C1381 1.363 . S
C1382 C1388 1.428 . S
H1383 C1379 0.930 . S
H1384 C1381 0.929 . S
S1385 N1386 1.613 . S
S1385 N1387 1.610 . S
N1386 S1385 1.613 . S
N1386 C1389 1.350 . S
N1387 S1385 1.610 . S
N1387 C1388 1.351 . S
C1388 C1382 1.428 . S
C1388 N1387 1.351 . S
C1388 C1389 1.434 . S
C1389 C1380 1.429 . S
C1389 N1386 1.350 . S
C1389 C1388 1.434 . S
C1390 C1391 1.369 . S
C1390 C1392 1.419 1_545 S
C1390 H1394 0.930 . S
C1391 C1390 1.369 . S
C1391 C1400 1.429 . S
C1392 C1390 1.419 1_565 S
C1392 C1393 1.363 . S
C1392 H1395 0.929 . S
C1393 C1392 1.363 . S
C1393 C1399 1.428 . S
H1394 C1390 0.930 . S
H1395 C1392 0.929 . S
S1396 N1397 1.613 1_565 S
S1396 N1398 1.610 . S
N1397 S1396 1.613 1_545 S
N1397 C1400 1.350 . S
N1398 S1396 1.610 . S
N1398 C1399 1.351 . S
C1399 C1393 1.428 . S
C1399 N1398 1.351 . S
C1399 C1400 1.434 1_565 S
C1400 C1391 1.429 . S
C1400 N1397 1.350 . S
C1400 C1399 1.434 1_545 S
C1401 C1402 1.369 . S
C1401 C1403 1.419 . S
C1401 H1405 0.930 . S
C1402 C1401 1.369 . S
C1402 C1411 1.429 . S
C1403 C1401 1.419 . S
C1403 C1404 1.363 . S
C1403 H1406 0.929 . S
C1404 C1403 1.363 . S
C1404 C1410 1.428 . S
H1405 C1401 0.930 . S
H1406 C1403 0.929 . S
S1407 N1408 1.613 . S
S1407 N1409 1.610 . S
N1408 S1407 1.613 . S
N1408 C1411 1.350 . S
N1409 S1407 1.610 . S
N1409 C1410 1.351 . S
C1410 C1404 1.428 . S
C1410 N1409 1.351 . S
C1410 C1411 1.434 . S
C1411 C1402 1.429 . S
C1411 N1408 1.350 . S
C1411 C1410 1.434 . S
C1412 C1413 1.369 . S
C1412 C1414 1.419 1_545 S
C1412 H1416 0.930 . S
C1413 C1412 1.369 . S
C1413 C1422 1.429 . S
C1414 C1412 1.419 1_565 S
C1414 C1415 1.363 . S
C1414 H1417 0.929 . S
C1415 C1414 1.363 . S
C1415 C1421 1.428 . S
H1416 C1412 0.930 . S
H1417 C1414 0.929 . S
S1418 N1419 1.613 . S
S1418 N1420 1.610 1_545 S
N1419 S1418 1.613 . S
N1419 C1422 1.350 . S
N1420 S1418 1.610 1_565 S
N1420 C1421 1.351 . S
C1421 C1415 1.428 . S
C1421 N1420 1.351 . S
C1421 C1422 1.434 1_565 S
C1422 C1413 1.429 . S
C1422 N1419 1.350 . S
C1422 C1421 1.434 1_545 S
C1423 C1424 1.369 . S
C1423 C1425 1.419 . S
C1423 H1427 0.930 . S
C1424 C1423 1.369 . S
C1424 C1433 1.429 . S
C1425 C1423 1.419 . S
C1425 C1426 1.363 . S
C1425 H1428 0.929 . S
C1426 C1425 1.363 . S
C1426 C1432 1.428 . S
H1427 C1423 0.930 . S
H1428 C1425 0.929 . S
S1429 N1430 1.613 . S
S1429 N1431 1.610 . S
N1430 S1429 1.613 . S
N1430 C1433 1.350 . S
N1431 S1429 1.610 . S
N1431 C1432 1.351 . S
C1432 C1426 1.428 . S
C1432 N1431 1.351 . S
C1432 C1433 1.434 . S
C1433 C1424 1.429 . S
C1433 N1430 1.350 . S
C1433 C1432 1.434 . S
C1434 C1435 1.369 . S
C1434 C1436 1.419 1_565 S
C1434 H1438 0.930 1_556 S
C1435 C1434 1.369 . S
C1435 C1444 1.429 . S
C1436 C1434 1.419 1_545 S
C1436 C1437 1.363 . S
C1436 H1439 0.929 1_556 S
C1437 C1436 1.363 . S
C1437 C1443 1.428 . S
H1438 C1434 0.930 1_554 S
H1439 C1436 0.929 1_554 S
S1440 N1441 1.613 . S
S1440 N1442 1.610 1_565 S
N1441 S1440 1.613 . S
N1441 C1444 1.350 . S
N1442 S1440 1.610 1_545 S
N1442 C1443 1.351 . S
C1443 C1437 1.428 . S
C1443 N1442 1.351 . S
C1443 C1444 1.434 1_545 S
C1444 C1435 1.429 . S
C1444 N1441 1.350 . S
C1444 C1443 1.434 1_565 S
C1445 C1446 1.369 . S
C1445 C1447 1.419 . S
C1445 H1449 0.930 . S
C1446 C1445 1.369 . S
C1446 C1455 1.429 . S
C1447 C1445 1.419 . S
C1447 C1448 1.363 . S
C1447 H1450 0.929 . S
C1448 C1447 1.363 . S
C1448 C1454 1.428 . S
H1449 C1445 0.930 . S
H1450 C1447 0.929 . S
S1451 N1452 1.613 . S
S1451 N1453 1.610 . S
N1452 S1451 1.613 . S
N1452 C1455 1.350 . S
N1453 S1451 1.610 . S
N1453 C1454 1.351 . S
C1454 C1448 1.428 . S
C1454 N1453 1.351 . S
C1454 C1455 1.434 . S
C1455 C1446 1.429 . S
C1455 N1452 1.350 . S
C1455 C1454 1.434 . S
C1456 C1457 1.369 . S
C1456 C1458 1.419 . S
C1456 H1460 0.930 . S
C1457 C1456 1.369 . S
C1457 C1466 1.429 . S
C1458 C1456 1.419 . S
C1458 C1459 1.363 . S
C1458 H1461 0.929 . S
C1459 C1458 1.363 . S
C1459 C1465 1.428 . S
H1460 C1456 0.930 . S
H1461 C1458 0.929 . S
S1462 N1463 1.613 . S
S1462 N1464 1.610 . S
N1463 S1462 1.613 . S
N1463 C1466 1.350 . S
N1464 S1462 1.610 . S
N1464 C1465 1.351 . S
C1465 C1459 1.428 . S
C1465 N1464 1.351 . S
C1465 C1466 1.434 . S
C1466 C1457 1.429 . S
C1466 N1463 1.350 . S
C1466 C1465 1.434 . S
C1467 C1468 1.369 . S
C1467 C1469 1.419 . S
C1467 H1471 0.930 . S
C1468 C1467 1.369 . S
C1468 C1477 1.429 . S
C1469 C1467 1.419 . S
C1469 C1470 1.363 . S
C1469 H1472 0.929 . S
C1470 C1469 1.363 . S
C1470 C1476 1.428 . S
H1471 C1467 0.930 . S
H1472 C1469 0.929 . S
S1473 N1474 1.613 . S
S1473 N1475 1.610 . S
N1474 S1473 1.613 . S
N1474 C1477 1.350 . S
N1475 S1473 1.610 . S
N1475 C1476 1.351 . S
C1476 C1470 1.428 . S
C1476 N1475 1.351 . S
C1476 C1477 1.434 . S
C1477 C1468 1.429 . S
C1477 N1474 1.350 . S
C1477 C1476 1.434 . S
C1478 C1479 1.369 . S
C1478 C1480 1.419 . S
C1478 H1482 0.930 . S
C1479 C1478 1.369 . S
C1479 C1488 1.429 . S
C1480 C1478 1.419 . S
C1480 C1481 1.363 . S
C1480 H1483 0.929 . S
C1481 C1480 1.363 . S
C1481 C1487 1.428 . S
H1482 C1478 0.930 . S
H1483 C1480 0.929 . S
S1484 N1485 1.613 . S
S1484 N1486 1.610 . S
N1485 S1484 1.613 . S
N1485 C1488 1.350 . S
N1486 S1484 1.610 . S
N1486 C1487 1.351 . S
C1487 C1481 1.428 . S
C1487 N1486 1.351 . S
C1487 C1488 1.434 . S
C1488 C1479 1.429 . S
C1488 N1485 1.350 . S
C1488 C1487 1.434 . S
C1489 C1490 1.369 . S
C1489 C1491 1.419 . S
C1489 H1493 0.930 . S
C1490 C1489 1.369 . S
C1490 C1499 1.429 . S
C1491 C1489 1.419 . S
C1491 C1492 1.363 . S
C1491 H1494 0.929 . S
C1492 C1491 1.363 . S
C1492 C1498 1.428 . S
H1493 C1489 0.930 . S
H1494 C1491 0.929 . S
S1495 N1496 1.613 . S
S1495 N1497 1.610 . S
N1496 S1495 1.613 . S
N1496 C1499 1.350 . S
N1497 S1495 1.610 . S
N1497 C1498 1.351 . S
C1498 C1492 1.428 . S
C1498 N1497 1.351 . S
C1498 C1499 1.434 . S
C1499 C1490 1.429 . S
C1499 N1496 1.350 . S
C1499 C1498 1.434 . S
C1500 C1501 1.369 . S
C1500 C1502 1.419 . S
C1500 H1504 0.930 . S
C1501 C1500 1.369 . S
C1501 C1510 1.429 . S
C1502 C1500 1.419 . S
C1502 C1503 1.363 . S
C1502 H1505 0.929 . S
C1503 C1502 1.363 . S
C1503 C1509 1.428 . S
H1504 C1500 0.930 . S
H1505 C1502 0.929 . S
S1506 N1507 1.613 . S
S1506 N1508 1.610 . S
N1507 S1506 1.613 . S
N1507 C1510 1.350 . S
N1508 S1506 1.610 . S
N1508 C1509 1.351 . S
C1509 C1503 1.428 . S
C1509 N1508 1.351 . S
C1509 C1510 1.434 . S
C1510 C1501 1.429 . S
C1510 N1507 1.350 . S
C1510 C1509 1.434 . S
C1511 C1512 1.369 . S
C1511 C1513 1.419 . S
C1511 H1515 0.930 . S
C1512 C1511 1.369 . S
C1512 C1521 1.429 . S
C1513 C1511 1.419 . S
C1513 C1514 1.363 . S
C1513 H1516 0.929 . S
C1514 C1513 1.363 . S
C1514 C1520 1.428 . S
H1515 C1511 0.930 . S
H1516 C1513 0.929 . S
S1517 N1518 1.613 . S
S1517 N1519 1.610 . S
N1518 S1517 1.613 . S
N1518 C1521 1.350 . S
N1519 S1517 1.610 . S
N1519 C1520 1.351 . S
C1520 C1514 1.428 . S
C1520 N1519 1.351 . S
C1520 C1521 1.434 . S
C1521 C1512 1.429 . S
C1521 N1518 1.350 . S
C1521 C1520 1.434 . S
C1522 C1523 1.369 . S
C1522 C1524 1.419 . S
C1522 H1526 0.930 . S
C1523 C1522 1.369 . S
C1523 C1532 1.429 . S
C1524 C1522 1.419 . S
C1524 C1525 1.363 . S
C1524 H1527 0.929 . S
C1525 C1524 1.363 . S
C1525 C1531 1.428 . S
H1526 C1522 0.930 . S
H1527 C1524 0.929 . S
S1528 N1529 1.613 . S
S1528 N1530 1.610 . S
N1529 S1528 1.613 . S
N1529 C1532 1.350 . S
N1530 S1528 1.610 . S
N1530 C1531 1.351 . S
C1531 C1525 1.428 . S
C1531 N1530 1.351 . S
C1531 C1532 1.434 . S
C1532 C1523 1.429 . S
C1532 N1529 1.350 . S
C1532 C1531 1.434 . S
C1533 C1534 1.369 . S
C1533 C1535 1.419 . S
C1533 H1537 0.930 . S
C1534 C1533 1.369 . S
C1534 C1543 1.429 . S
C1535 C1533 1.419 . S
C1535 C1536 1.363 . S
C1535 H1538 0.929 . S
C1536 C1535 1.363 . S
C1536 C1542 1.428 . S
H1537 C1533 0.930 . S
H1538 C1535 0.929 . S
S1539 N1540 1.613 . S
S1539 N1541 1.610 . S
N1540 S1539 1.613 . S
N1540 C1543 1.350 . S
N1541 S1539 1.610 . S
N1541 C1542 1.351 . S
C1542 C1536 1.428 . S
C1542 N1541 1.351 . S
C1542 C1543 1.434 . S
C1543 C1534 1.429 . S
C1543 N1540 1.350 . S
C1543 C1542 1.434 . S
C1544 C1545 1.369 . S
C1544 C1546 1.419 . S
C1544 H1548 0.930 . S
C1545 C1544 1.369 . S
C1545 C1554 1.429 . S
C1546 C1544 1.419 . S
C1546 C1547 1.363 . S
C1546 H1549 0.929 . S
C1547 C1546 1.363 . S
C1547 C1553 1.428 . S
H1548 C1544 0.930 . S
H1549 C1546 0.929 . S
S1550 N1551 1.613 . S
S1550 N1552 1.610 . S
N1551 S1550 1.613 . S
N1551 C1554 1.350 . S
N1552 S1550 1.610 . S
N1552 C1553 1.351 . S
C1553 C1547 1.428 . S
C1553 N1552 1.351 . S
C1553 C1554 1.434 . S
C1554 C1545 1.429 . S
C1554 N1551 1.350 . S
C1554 C1553 1.434 . S
C1555 C1556 1.369 . S
C1555 C1557 1.419 . S
C1555 H1559 0.930 . S
C1556 C1555 1.369 . S
C1556 C1565 1.429 . S
C1557 C1555 1.419 . S
C1557 C1558 1.363 . S
C1557 H1560 0.929 . S
C1558 C1557 1.363 . S
C1558 C1564 1.428 . S
H1559 C1555 0.930 . S
H1560 C1557 0.929 . S
S1561 N1562 1.613 . S
S1561 N1563 1.610 . S
N1562 S1561 1.613 . S
N1562 C1565 1.350 . S
N1563 S1561 1.610 . S
N1563 C1564 1.351 . S
C1564 C1558 1.428 . S
C1564 N1563 1.351 . S
C1564 C1565 1.434 . S
C1565 C1556 1.429 . S
C1565 N1562 1.350 . S
C1565 C1564 1.434 . S
C1566 C1567 1.369 . S
C1566 C1568 1.419 . S
C1566 H1570 0.930 . S
C1567 C1566 1.369 . S
C1567 C1576 1.429 . S
C1568 C1566 1.419 . S
C1568 C1569 1.363 . S
C1568 H1571 0.929 . S
C1569 C1568 1.363 . S
C1569 C1575 1.428 . S
H1570 C1566 0.930 . S
H1571 C1568 0.929 . S
S1572 N1573 1.613 . S
S1572 N1574 1.610 . S
N1573 S1572 1.613 . S
N1573 C1576 1.350 . S
N1574 S1572 1.610 . S
N1574 C1575 1.351 . S
C1575 C1569 1.428 . S
C1575 N1574 1.351 . S
C1575 C1576 1.434 . S
C1576 C1567 1.429 . S
C1576 N1573 1.350 . S
C1576 C1575 1.434 . S
C1577 C1578 1.369 . S
C1577 C1579 1.419 . S
C1577 H1581 0.930 . S
C1578 C1577 1.369 . S
C1578 C1587 1.429 . S
C1579 C1577 1.419 . S
C1579 C1580 1.363 . S
C1579 H1582 0.929 . S
C1580 C1579 1.363 . S
C1580 C1586 1.428 . S
H1581 C1577 0.930 . S
H1582 C1579 0.929 . S
S1583 N1584 1.613 . S
S1583 N1585 1.610 . S
N1584 S1583 1.613 . S
N1584 C1587 1.350 . S
N1585 S1583 1.610 . S
N1585 C1586 1.351 . S
C1586 C1580 1.428 . S
C1586 N1585 1.351 . S
C1586 C1587 1.434 . S
C1587 C1578 1.429 . S
C1587 N1584 1.350 . S
C1587 C1586 1.434 . S
C1588 C1589 1.369 . S
C1588 C1590 1.419 . S
C1588 H1592 0.930 . S
C1589 C1588 1.369 . S
C1589 C1598 1.429 . S
C1590 C1588 1.419 . S
C1590 C1591 1.363 . S
C1590 H1593 0.929 . S
C1591 C1590 1.363 . S
C1591 C1597 1.428 . S
H1592 C1588 0.930 . S
H1593 C1590 0.929 . S
S1594 N1595 1.613 . S
S1594 N1596 1.610 . S
N1595 S1594 1.613 . S
N1595 C1598 1.350 . S
N1596 S1594 1.610 . S
N1596 C1597 1.351 . S
C1597 C1591 1.428 . S
C1597 N1596 1.351 . S
C1597 C1598 1.434 . S
C1598 C1589 1.429 . S
C1598 N1595 1.350 . S
C1598 C1597 1.434 . S
C1599 C1600 1.369 . S
C1599 C1601 1.419 . S
C1599 H1603 0.930 . S
C1600 C1599 1.369 . S
C1600 C1609 1.429 . S
C1601 C1599 1.419 . S
C1601 C1602 1.363 . S
C1601 H1604 0.929 . S
C1602 C1601 1.363 . S
C1602 C1608 1.428 . S
H1603 C1599 0.930 . S
H1604 C1601 0.929 . S
S1605 N1606 1.613 . S
S1605 N1607 1.610 . S
N1606 S1605 1.613 . S
N1606 C1609 1.350 . S
N1607 S1605 1.610 . S
N1607 C1608 1.351 . S
C1608 C1602 1.428 . S
C1608 N1607 1.351 . S
C1608 C1609 1.434 . S
C1609 C1600 1.429 . S
C1609 N1606 1.350 . S
C1609 C1608 1.434 . S
C1610 C1611 1.369 . S
C1610 C1612 1.419 . S
C1610 H1614 0.930 . S
C1611 C1610 1.369 . S
C1611 C1620 1.429 . S
C1612 C1610 1.419 . S
C1612 C1613 1.363 . S
C1612 H1615 0.929 . S
C1613 C1612 1.363 . S
C1613 C1619 1.428 . S
H1614 C1610 0.930 . S
H1615 C1612 0.929 . S
S1616 N1617 1.613 . S
S1616 N1618 1.610 . S
N1617 S1616 1.613 . S
N1617 C1620 1.350 . S
N1618 S1616 1.610 . S
N1618 C1619 1.351 . S
C1619 C1613 1.428 . S
C1619 N1618 1.351 . S
C1619 C1620 1.434 . S
C1620 C1611 1.429 . S
C1620 N1617 1.350 . S
C1620 C1619 1.434 . S
C1621 C1622 1.369 . S
C1621 C1623 1.419 . S
C1621 H1625 0.930 . S
C1622 C1621 1.369 . S
C1622 C1631 1.429 . S
C1623 C1621 1.419 . S
C1623 C1624 1.363 . S
C1623 H1626 0.929 . S
C1624 C1623 1.363 . S
C1624 C1630 1.428 . S
H1625 C1621 0.930 . S
H1626 C1623 0.929 . S
S1627 N1628 1.613 . S
S1627 N1629 1.610 . S
N1628 S1627 1.613 . S
N1628 C1631 1.350 . S
N1629 S1627 1.610 . S
N1629 C1630 1.351 . S
C1630 C1624 1.428 . S
C1630 N1629 1.351 . S
C1630 C1631 1.434 . S
C1631 C1622 1.429 . S
C1631 N1628 1.350 . S
C1631 C1630 1.434 . S
C1632 C1633 1.369 1_455 S
C1632 C1634 1.419 . S
C1632 H1636 0.930 . S
C1633 C1632 1.369 1_655 S
C1633 C1642 1.429 . S
C1634 C1632 1.419 . S
C1634 C1635 1.363 . S
C1634 H1637 0.929 . S
C1635 C1634 1.363 . S
C1635 C1641 1.428 1_455 S
H1636 C1632 0.930 . S
H1637 C1634 0.929 . S
S1638 N1639 1.613 . S
S1638 N1640 1.610 . S
N1639 S1638 1.613 . S
N1639 C1642 1.350 . S
N1640 S1638 1.610 . S
N1640 C1641 1.351 . S
C1641 C1635 1.428 1_655 S
C1641 N1640 1.351 . S
C1641 C1642 1.434 . S
C1642 C1633 1.429 . S
C1642 N1639 1.350 . S
C1642 C1641 1.434 . S
C1643 C1644 1.369 . S
C1643 C1645 1.419 . S
C1643 H1647 0.930 . S
C1644 C1643 1.369 . S
C1644 C1653 1.429 . S
C1645 C1643 1.419 . S
C1645 C1646 1.363 . S
C1645 H1648 0.929 . S
C1646 C1645 1.363 . S
C1646 C1652 1.428 . S
H1647 C1643 0.930 . S
H1648 C1645 0.929 . S
S1649 N1650 1.613 . S
S1649 N1651 1.610 . S
N1650 S1649 1.613 . S
N1650 C1653 1.350 . S
N1651 S1649 1.610 . S
N1651 C1652 1.351 . S
C1652 C1646 1.428 . S
C1652 N1651 1.351 . S
C1652 C1653 1.434 . S
C1653 C1644 1.429 . S
C1653 N1650 1.350 . S
C1653 C1652 1.434 . S
C1654 C1655 1.369 . S
C1654 C1656 1.419 . S
C1654 H1658 0.930 . S
C1655 C1654 1.369 . S
C1655 C1664 1.429 . S
C1656 C1654 1.419 . S
C1656 C1657 1.363 . S
C1656 H1659 0.929 . S
C1657 C1656 1.363 . S
C1657 C1663 1.428 . S
H1658 C1654 0.930 . S
H1659 C1656 0.929 . S
S1660 N1661 1.613 . S
S1660 N1662 1.610 . S
N1661 S1660 1.613 . S
N1661 C1664 1.350 . S
N1662 S1660 1.610 . S
N1662 C1663 1.351 . S
C1663 C1657 1.428 . S
C1663 N1662 1.351 . S
C1663 C1664 1.434 . S
C1664 C1655 1.429 . S
C1664 N1661 1.350 . S
C1664 C1663 1.434 . S
C1665 C1666 1.369 . S
C1665 C1667 1.419 . S
C1665 H1669 0.930 . S
C1666 C1665 1.369 . S
C1666 C1675 1.429 . S
C1667 C1665 1.419 . S
C1667 C1668 1.363 . S
C1667 H1670 0.929 . S
C1668 C1667 1.363 . S
C1668 C1674 1.428 . S
H1669 C1665 0.930 . S
H1670 C1667 0.929 . S
S1671 N1672 1.613 1_554 S
S1671 N1673 1.610 . S
N1672 S1671 1.613 1_556 S
N1672 C1675 1.350 . S
N1673 S1671 1.610 . S
N1673 C1674 1.351 1_554 S
C1674 C1668 1.428 . S
C1674 N1673 1.351 1_556 S
C1674 C1675 1.434 . S
C1675 C1666 1.429 . S
C1675 N1672 1.350 . S
C1675 C1674 1.434 . S
C1676 C1677 1.369 . S
C1676 C1678 1.419 . S
C1676 H1680 0.930 . S
C1677 C1676 1.369 . S
C1677 C1686 1.429 1_655 S
C1678 C1676 1.419 . S
C1678 C1679 1.363 1_655 S
C1678 H1681 0.929 . S
C1679 C1678 1.363 1_455 S
C1679 C1685 1.428 . S
H1680 C1676 0.930 . S
H1681 C1678 0.929 . S
S1682 N1683 1.613 . S
S1682 N1684 1.610 . S
N1683 S1682 1.613 . S
N1683 C1686 1.350 . S
N1684 S1682 1.610 . S
N1684 C1685 1.351 . S
C1685 C1679 1.428 . S
C1685 N1684 1.351 . S
C1685 C1686 1.434 . S
C1686 C1677 1.429 1_455 S
C1686 N1683 1.350 . S
C1686 C1685 1.434 . S
C1687 C1688 1.369 . S
C1687 C1689 1.419 . S
C1687 H1691 0.930 . S
C1688 C1687 1.369 . S
C1688 C1697 1.429 . S
C1689 C1687 1.419 . S
C1689 C1690 1.363 . S
C1689 H1692 0.929 . S
C1690 C1689 1.363 . S
C1690 C1696 1.428 . S
H1691 C1687 0.930 . S
H1692 C1689 0.929 . S
S1693 N1694 1.613 . S
S1693 N1695 1.610 1_556 S
N1694 S1693 1.613 . S
N1694 C1697 1.350 . S
N1695 S1693 1.610 1_554 S
N1695 C1696 1.351 1_554 S
C1696 C1690 1.428 . S
C1696 N1695 1.351 1_556 S
C1696 C1697 1.434 . S
C1697 C1688 1.429 . S
C1697 N1694 1.350 . S
C1697 C1696 1.434 . S
C1698 C1699 1.369 . S
C1698 C1700 1.419 . S
C1698 H1702 0.930 . S
C1699 C1698 1.369 . S
C1699 C1708 1.429 . S
C1700 C1698 1.419 . S
C1700 C1701 1.363 . S
C1700 H1703 0.929 . S
C1701 C1700 1.363 . S
C1701 C1707 1.428 . S
H1702 C1698 0.930 . S
H1703 C1700 0.929 . S
S1704 N1705 1.613 . S
S1704 N1706 1.610 . S
N1705 S1704 1.613 . S
N1705 C1708 1.350 . S
N1706 S1704 1.610 . S
N1706 C1707 1.351 . S
C1707 C1701 1.428 . S
C1707 N1706 1.351 . S
C1707 C1708 1.434 . S
C1708 C1699 1.429 . S
C1708 N1705 1.350 . S
C1708 C1707 1.434 . S
C1709 C1710 1.369 . S
C1709 C1711 1.419 . S
C1709 H1713 0.930 . S
C1710 C1709 1.369 . S
C1710 C1719 1.429 . S
C1711 C1709 1.419 . S
C1711 C1712 1.363 . S
C1711 H1714 0.929 . S
C1712 C1711 1.363 . S
C1712 C1718 1.428 . S
H1713 C1709 0.930 . S
H1714 C1711 0.929 . S
S1715 N1716 1.613 . S
S1715 N1717 1.610 . S
N1716 S1715 1.613 . S
N1716 C1719 1.350 . S
N1717 S1715 1.610 . S
N1717 C1718 1.351 . S
C1718 C1712 1.428 . S
C1718 N1717 1.351 . S
C1718 C1719 1.434 . S
C1719 C1710 1.429 . S
C1719 N1716 1.350 . S
C1719 C1718 1.434 . S
C1720 C1721 1.369 . S
C1720 C1722 1.419 . S
C1720 H1724 0.930 . S
C1721 C1720 1.369 . S
C1721 C1730 1.429 . S
C1722 C1720 1.419 . S
C1722 C1723 1.363 . S
C1722 H1725 0.929 . S
C1723 C1722 1.363 . S
C1723 C1729 1.428 . S
H1724 C1720 0.930 . S
H1725 C1722 0.929 . S
S1726 N1727 1.613 1_554 S
S1726 N1728 1.610 . S
N1727 S1726 1.613 1_556 S
N1727 C1730 1.350 . S
N1728 S1726 1.610 . S
N1728 C1729 1.351 1_554 S
C1729 C1723 1.428 . S
C1729 N1728 1.351 1_556 S
C1729 C1730 1.434 . S
C1730 C1721 1.429 . S
C1730 N1727 1.350 . S
C1730 C1729 1.434 . S
C1731 C1732 1.369 . S
C1731 C1733 1.419 . S
C1731 H1735 0.930 . S
C1732 C1731 1.369 . S
C1732 C1741 1.429 . S
C1733 C1731 1.419 . S
C1733 C1734 1.363 . S
C1733 H1736 0.929 . S
C1734 C1733 1.363 . S
C1734 C1740 1.428 . S
H1735 C1731 0.930 . S
H1736 C1733 0.929 . S
S1737 N1738 1.613 . S
S1737 N1739 1.610 . S
N1738 S1737 1.613 . S
N1738 C1741 1.350 . S
N1739 S1737 1.610 . S
N1739 C1740 1.351 . S
C1740 C1734 1.428 . S
C1740 N1739 1.351 . S
C1740 C1741 1.434 . S
C1741 C1732 1.429 . S
C1741 N1738 1.350 . S
C1741 C1740 1.434 . S
C1742 C1743 1.369 . S
C1742 C1744 1.419 . S
C1742 H1746 0.930 . S
C1743 C1742 1.369 . S
C1743 C1752 1.429 . S
C1744 C1742 1.419 . S
C1744 C1745 1.363 . S
C1744 H1747 0.929 . S
C1745 C1744 1.363 . S
C1745 C1751 1.428 . S
H1746 C1742 0.930 . S
H1747 C1744 0.929 . S
S1748 N1749 1.613 . S
S1748 N1750 1.610 . S
N1749 S1748 1.613 . S
N1749 C1752 1.350 . S
N1750 S1748 1.610 . S
N1750 C1751 1.351 . S
C1751 C1745 1.428 . S
C1751 N1750 1.351 . S
C1751 C1752 1.434 . S
C1752 C1743 1.429 . S
C1752 N1749 1.350 . S
C1752 C1751 1.434 . S
C1753 C1754 1.369 . S
C1753 C1755 1.419 . S
C1753 H1757 0.930 1_556 S
C1754 C1753 1.369 . S
C1754 C1763 1.429 . S
C1755 C1753 1.419 . S
C1755 C1756 1.363 . S
C1755 H1758 0.929 . S
C1756 C1755 1.363 . S
C1756 C1762 1.428 . S
H1757 C1753 0.930 1_554 S
H1758 C1755 0.929 . S
S1759 N1760 1.613 . S
S1759 N1761 1.610 . S
N1760 S1759 1.613 . S
N1760 C1763 1.350 . S
N1761 S1759 1.610 . S
N1761 C1762 1.351 . S
C1762 C1756 1.428 . S
C1762 N1761 1.351 . S
C1762 C1763 1.434 . S
C1763 C1754 1.429 . S
C1763 N1760 1.350 . S
C1763 C1762 1.434 . S
C1764 C1765 1.369 1_565 S
C1764 C1766 1.419 . S
C1764 H1768 0.930 . S
C1765 C1764 1.369 1_545 S
C1765 C1774 1.429 . S
C1766 C1764 1.419 . S
C1766 C1767 1.363 . S
C1766 H1769 0.929 . S
C1767 C1766 1.363 . S
C1767 C1773 1.428 1_565 S
H1768 C1764 0.930 . S
H1769 C1766 0.929 . S
S1770 N1771 1.613 . S
S1770 N1772 1.610 . S
N1771 S1770 1.613 . S
N1771 C1774 1.350 . S
N1772 S1770 1.610 . S
N1772 C1773 1.351 . S
C1773 C1767 1.428 1_545 S
C1773 N1772 1.351 . S
C1773 C1774 1.434 . S
C1774 C1765 1.429 . S
C1774 N1771 1.350 . S
C1774 C1773 1.434 . S
C1775 C1776 1.369 1_545 S
C1775 C1777 1.419 . S
C1775 H1779 0.930 . S
C1776 C1775 1.369 1_565 S
C1776 C1785 1.429 1_455 S
C1777 C1775 1.419 . S
C1777 C1778 1.363 1_455 S
C1777 H1780 0.929 . S
C1778 C1777 1.363 1_655 S
C1778 C1784 1.428 1_545 S
H1779 C1775 0.930 . S
H1780 C1777 0.929 . S
S1781 N1782 1.613 . S
S1781 N1783 1.610 . S
N1782 S1781 1.613 . S
N1782 C1785 1.350 . S
N1783 S1781 1.610 . S
N1783 C1784 1.351 . S
C1784 C1778 1.428 1_565 S
C1784 N1783 1.351 . S
C1784 C1785 1.434 . S
C1785 C1776 1.429 1_655 S
C1785 N1782 1.350 . S
C1785 C1784 1.434 . S
C1786 C1787 1.369 1_545 S
C1786 C1788 1.419 . S
C1786 H1790 0.930 . S
C1787 C1786 1.369 1_565 S
C1787 C1796 1.429 . S
C1788 C1786 1.419 . S
C1788 C1789 1.363 . S
C1788 H1791 0.929 . S
C1789 C1788 1.363 . S
C1789 C1795 1.428 1_545 S
H1790 C1786 0.930 . S
H1791 C1788 0.929 . S
S1792 N1793 1.613 . S
S1792 N1794 1.610 . S
N1793 S1792 1.613 . S
N1793 C1796 1.350 . S
N1794 S1792 1.610 . S
N1794 C1795 1.351 . S
C1795 C1789 1.428 1_565 S
C1795 N1794 1.351 . S
C1795 C1796 1.434 . S
C1796 C1787 1.429 . S
C1796 N1793 1.350 . S
C1796 C1795 1.434 . S
C1797 C1798 1.369 1_455 S
C1797 C1799 1.419 . S
C1797 H1801 0.930 . S
C1798 C1797 1.369 1_655 S
C1798 C1807 1.429 1_565 S
C1799 C1797 1.419 . S
C1799 C1800 1.363 1_565 S
C1799 H1802 0.929 . S
C1800 C1799 1.363 1_545 S
C1800 C1806 1.428 1_455 S
H1801 C1797 0.930 . S
H1802 C1799 0.929 . S
S1803 N1804 1.613 . S
S1803 N1805 1.610 . S
N1804 S1803 1.613 . S
N1804 C1807 1.350 . S
N1805 S1803 1.610 . S
N1805 C1806 1.351 . S
C1806 C1800 1.428 1_655 S
C1806 N1805 1.351 . S
C1806 C1807 1.434 . S
C1807 C1798 1.429 1_545 S
C1807 N1804 1.350 . S
C1807 C1806 1.434 . S
C1808 C1809 1.369 . S
C1808 C1810 1.419 1_455 S
C1808 H1812 0.930 . S
C1809 C1808 1.369 . S
C1809 C1818 1.429 1_455 S
C1810 C1808 1.419 1_655 S
C1810 C1811 1.363 . S
C1810 H1813 0.929 . S
C1811 C1810 1.363 . S
C1811 C1817 1.428 . S
H1812 C1808 0.930 . S
H1813 C1810 0.929 . S
S1814 N1815 1.613 . S
S1814 N1816 1.610 . S
N1815 S1814 1.613 . S
N1815 C1818 1.350 . S
N1816 S1814 1.610 . S
N1816 C1817 1.351 . S
C1817 C1811 1.428 . S
C1817 N1816 1.351 . S
C1817 C1818 1.434 . S
C1818 C1809 1.429 1_655 S
C1818 N1815 1.350 . S
C1818 C1817 1.434 . S
C1819 C1820 1.369 . S
C1819 C1821 1.419 . S
C1819 H1823 0.930 . S
C1820 C1819 1.369 . S
C1820 C1829 1.429 . S
C1821 C1819 1.419 . S
C1821 C1822 1.363 . S
C1821 H1824 0.929 . S
C1822 C1821 1.363 . S
C1822 C1828 1.428 . S
H1823 C1819 0.930 . S
H1824 C1821 0.929 . S
S1825 N1826 1.613 . S
S1825 N1827 1.610 . S
N1826 S1825 1.613 . S
N1826 C1829 1.350 . S
N1827 S1825 1.610 . S
N1827 C1828 1.351 . S
C1828 C1822 1.428 . S
C1828 N1827 1.351 . S
C1828 C1829 1.434 . S
C1829 C1820 1.429 . S
C1829 N1826 1.350 . S
C1829 C1828 1.434 . S
C1830 C1831 1.369 . S
C1830 C1832 1.419 . S
C1830 H1834 0.930 . S
C1831 C1830 1.369 . S
C1831 C1840 1.429 . S
C1832 C1830 1.419 . S
C1832 C1833 1.363 . S
C1832 H1835 0.929 . S
C1833 C1832 1.363 . S
C1833 C1839 1.428 . S
H1834 C1830 0.930 . S
H1835 C1832 0.929 . S
S1836 N1837 1.613 . S
S1836 N1838 1.610 . S
N1837 S1836 1.613 . S
N1837 C1840 1.350 . S
N1838 S1836 1.610 . S
N1838 C1839 1.351 . S
C1839 C1833 1.428 . S
C1839 N1838 1.351 . S
C1839 C1840 1.434 . S
C1840 C1831 1.429 . S
C1840 N1837 1.350 . S
C1840 C1839 1.434 . S
C1841 C1842 1.369 . S
C1841 C1843 1.419 . S
C1841 H1845 0.930 . S
C1842 C1841 1.369 . S
C1842 C1851 1.429 . S
C1843 C1841 1.419 . S
C1843 C1844 1.363 . S
C1843 H1846 0.929 . S
C1844 C1843 1.363 . S
C1844 C1850 1.428 . S
H1845 C1841 0.930 . S
H1846 C1843 0.929 . S
S1847 N1848 1.613 . S
S1847 N1849 1.610 . S
N1848 S1847 1.613 . S
N1848 C1851 1.350 . S
N1849 S1847 1.610 . S
N1849 C1850 1.351 . S
C1850 C1844 1.428 . S
C1850 N1849 1.351 . S
C1850 C1851 1.434 . S
C1851 C1842 1.429 . S
C1851 N1848 1.350 . S
C1851 C1850 1.434 . S
C1852 C1853 1.369 . S
C1852 C1854 1.419 1_655 S
C1852 H1856 0.930 . S
C1853 C1852 1.369 . S
C1853 C1862 1.429 . S
C1854 C1852 1.419 1_455 S
C1854 C1855 1.363 . S
C1854 H1857 0.929 . S
C1855 C1854 1.363 . S
C1855 C1861 1.428 1_455 S
H1856 C1852 0.930 . S
H1857 C1854 0.929 . S
S1858 N1859 1.613 . S
S1858 N1860 1.610 . S
N1859 S1858 1.613 . S
N1859 C1862 1.350 . S
N1860 S1858 1.610 . S
N1860 C1861 1.351 . S
C1861 C1855 1.428 1_655 S
C1861 N1860 1.351 . S
C1861 C1862 1.434 . S
C1862 C1853 1.429 . S
C1862 N1859 1.350 . S
C1862 C1861 1.434 . S
C1863 C1864 1.369 . S
C1863 C1865 1.419 . S
C1863 H1867 0.930 . S
C1864 C1863 1.369 . S
C1864 C1873 1.429 . S
C1865 C1863 1.419 . S
C1865 C1866 1.363 . S
C1865 H1868 0.929 . S
C1866 C1865 1.363 . S
C1866 C1872 1.428 . S
H1867 C1863 0.930 . S
H1868 C1865 0.929 . S
S1869 N1870 1.613 . S
S1869 N1871 1.610 . S
N1870 S1869 1.613 . S
N1870 C1873 1.350 . S
N1871 S1869 1.610 . S
N1871 C1872 1.351 . S
C1872 C1866 1.428 . S
C1872 N1871 1.351 . S
C1872 C1873 1.434 . S
C1873 C1864 1.429 . S
C1873 N1870 1.350 . S
C1873 C1872 1.434 . S
C1874 C1875 1.369 . S
C1874 C1876 1.419 . S
C1874 H1878 0.930 . S
C1875 C1874 1.369 . S
C1875 C1884 1.429 . S
C1876 C1874 1.419 . S
C1876 C1877 1.363 . S
C1876 H1879 0.929 . S
C1877 C1876 1.363 . S
C1877 C1883 1.428 . S
H1878 C1874 0.930 . S
H1879 C1876 0.929 . S
S1880 N1881 1.613 . S
S1880 N1882 1.610 . S
N1881 S1880 1.613 . S
N1881 C1884 1.350 . S
N1882 S1880 1.610 . S
N1882 C1883 1.351 . S
C1883 C1877 1.428 . S
C1883 N1882 1.351 . S
C1883 C1884 1.434 . S
C1884 C1875 1.429 . S
C1884 N1881 1.350 . S
C1884 C1883 1.434 . S
C1885 C1886 1.369 . S
C1885 C1887 1.419 . S
C1885 H1889 0.930 . S
C1886 C1885 1.369 . S
C1886 C1895 1.429 . S
C1887 C1885 1.419 . S
C1887 C1888 1.363 . S
C1887 H1890 0.929 . S
C1888 C1887 1.363 . S
C1888 C1894 1.428 . S
H1889 C1885 0.930 . S
H1890 C1887 0.929 . S
S1891 N1892 1.613 . S
S1891 N1893 1.610 . S
N1892 S1891 1.613 . S
N1892 C1895 1.350 . S
N1893 S1891 1.610 . S
N1893 C1894 1.351 . S
C1894 C1888 1.428 . S
C1894 N1893 1.351 . S
C1894 C1895 1.434 . S
C1895 C1886 1.429 . S
C1895 N1892 1.350 . S
C1895 C1894 1.434 . S
C1896 C1897 1.369 . S
C1896 C1898 1.419 . S
C1896 H1900 0.930 . S
C1897 C1896 1.369 . S
C1897 C1906 1.429 . S
C1898 C1896 1.419 . S
C1898 C1899 1.363 1_455 S
C1898 H1901 0.929 . S
C1899 C1898 1.363 1_655 S
C1899 C1905 1.428 . S
H1900 C1896 0.930 . S
H1901 C1898 0.929 . S
S1902 N1903 1.613 1_655 S
S1902 N1904 1.610 . S
N1903 S1902 1.613 1_455 S
N1903 C1906 1.350 . S
N1904 S1902 1.610 . S
N1904 C1905 1.351 . S
C1905 C1899 1.428 . S
C1905 N1904 1.351 . S
C1905 C1906 1.434 1_655 S
C1906 C1897 1.429 . S
C1906 N1903 1.350 . S
C1906 C1905 1.434 1_455 S
C1907 C1908 1.369 . S
C1907 C1909 1.419 . S
C1907 H1911 0.930 . S
C1908 C1907 1.369 . S
C1908 C1917 1.429 . S
C1909 C1907 1.419 . S
C1909 C1910 1.363 . S
C1909 H1912 0.929 . S
C1910 C1909 1.363 . S
C1910 C1916 1.428 . S
H1911 C1907 0.930 . S
H1912 C1909 0.929 . S
S1913 N1914 1.613 . S
S1913 N1915 1.610 . S
N1914 S1913 1.613 . S
N1914 C1917 1.350 . S
N1915 S1913 1.610 . S
N1915 C1916 1.351 . S
C1916 C1910 1.428 . S
C1916 N1915 1.351 . S
C1916 C1917 1.434 . S
C1917 C1908 1.429 . S
C1917 N1914 1.350 . S
C1917 C1916 1.434 . S
C1918 C1919 1.369 . S
C1918 C1920 1.419 . S
C1918 H1922 0.930 . S
C1919 C1918 1.369 . S
C1919 C1928 1.429 . S
C1920 C1918 1.419 . S
C1920 C1921 1.363 . S
C1920 H1923 0.929 . S
C1921 C1920 1.363 . S
C1921 C1927 1.428 . S
H1922 C1918 0.930 . S
H1923 C1920 0.929 . S
S1924 N1925 1.613 1_556 S
S1924 N1926 1.610 . S
N1925 S1924 1.613 1_554 S
N1925 C1928 1.350 . S
N1926 S1924 1.610 . S
N1926 C1927 1.351 1_556 S
C1927 C1921 1.428 . S
C1927 N1926 1.351 1_554 S
C1927 C1928 1.434 . S
C1928 C1919 1.429 . S
C1928 N1925 1.350 . S
C1928 C1927 1.434 . S
C1929 C1930 1.369 . S
C1929 C1931 1.419 . S
C1929 H1933 0.930 . S
C1930 C1929 1.369 . S
C1930 C1939 1.429 . S
C1931 C1929 1.419 . S
C1931 C1932 1.363 . S
C1931 H1934 0.929 . S
C1932 C1931 1.363 . S
C1932 C1938 1.428 . S
H1933 C1929 0.930 . S
H1934 C1931 0.929 . S
S1935 N1936 1.613 . S
S1935 N1937 1.610 . S
N1936 S1935 1.613 . S
N1936 C1939 1.350 . S
N1937 S1935 1.610 . S
N1937 C1938 1.351 . S
C1938 C1932 1.428 . S
C1938 N1937 1.351 . S
C1938 C1939 1.434 . S
C1939 C1930 1.429 . S
C1939 N1936 1.350 . S
C1939 C1938 1.434 . S
C1940 C1941 1.369 . S
C1940 C1942 1.419 1_455 S
C1940 H1944 0.930 1_455 S
C1941 C1940 1.369 . S
C1941 C1950 1.429 . S
C1942 C1940 1.419 1_655 S
C1942 C1943 1.363 . S
C1942 H1945 0.929 . S
C1943 C1942 1.363 . S
C1943 C1949 1.428 1_655 S
H1944 C1940 0.930 1_655 S
H1945 C1942 0.929 . S
S1946 N1947 1.613 . S
S1946 N1948 1.610 . S
N1947 S1946 1.613 . S
N1947 C1950 1.350 . S
N1948 S1946 1.610 . S
N1948 C1949 1.351 . S
C1949 C1943 1.428 1_455 S
C1949 N1948 1.351 . S
C1949 C1950 1.434 . S
C1950 C1941 1.429 . S
C1950 N1947 1.350 . S
C1950 C1949 1.434 . S
C1951 C1952 1.369 . S
C1951 C1953 1.419 . S
C1951 H1955 0.930 . S
C1952 C1951 1.369 . S
C1952 C1961 1.429 . S
C1953 C1951 1.419 . S
C1953 C1954 1.363 . S
C1953 H1956 0.929 . S
C1954 C1953 1.363 . S
C1954 C1960 1.428 . S
H1955 C1951 0.930 . S
H1956 C1953 0.929 . S
S1957 N1958 1.613 . S
S1957 N1959 1.610 . S
N1958 S1957 1.613 . S
N1958 C1961 1.350 . S
N1959 S1957 1.610 . S
N1959 C1960 1.351 . S
C1960 C1954 1.428 . S
C1960 N1959 1.351 . S
C1960 C1961 1.434 . S
C1961 C1952 1.429 . S
C1961 N1958 1.350 . S
C1961 C1960 1.434 . S
C1962 C1963 1.369 . S
C1962 C1964 1.419 . S
C1962 H1966 0.930 . S
C1963 C1962 1.369 . S
C1963 C1972 1.429 . S
C1964 C1962 1.419 . S
C1964 C1965 1.363 . S
C1964 H1967 0.929 . S
C1965 C1964 1.363 . S
C1965 C1971 1.428 . S
H1966 C1962 0.930 . S
H1967 C1964 0.929 . S
S1968 N1969 1.613 . S
S1968 N1970 1.610 . S
N1969 S1968 1.613 . S
N1969 C1972 1.350 . S
N1970 S1968 1.610 . S
N1970 C1971 1.351 . S
C1971 C1965 1.428 . S
C1971 N1970 1.351 . S
C1971 C1972 1.434 . S
C1972 C1963 1.429 . S
C1972 N1969 1.350 . S
C1972 C1971 1.434 . S
C1973 C1974 1.369 . S
C1973 C1975 1.419 . S
C1973 H1977 0.930 . S
C1974 C1973 1.369 . S
C1974 C1983 1.429 . S
C1975 C1973 1.419 . S
C1975 C1976 1.363 . S
C1975 H1978 0.929 . S
C1976 C1975 1.363 . S
C1976 C1982 1.428 . S
H1977 C1973 0.930 . S
H1978 C1975 0.929 . S
S1979 N1980 1.613 . S
S1979 N1981 1.610 . S
N1980 S1979 1.613 . S
N1980 C1983 1.350 . S
N1981 S1979 1.610 . S
N1981 C1982 1.351 . S
C1982 C1976 1.428 . S
C1982 N1981 1.351 . S
C1982 C1983 1.434 . S
C1983 C1974 1.429 . S
C1983 N1980 1.350 . S
C1983 C1982 1.434 . S
C1984 C1985 1.369 . S
C1984 C1986 1.419 . S
C1984 H1988 0.930 . S
C1985 C1984 1.369 . S
C1985 C1994 1.429 . S
C1986 C1984 1.419 . S
C1986 C1987 1.363 . S
C1986 H1989 0.929 . S
C1987 C1986 1.363 . S
C1987 C1993 1.428 . S
H1988 C1984 0.930 . S
H1989 C1986 0.929 . S
S1990 N1991 1.613 . S
S1990 N1992 1.610 . S
N1991 S1990 1.613 . S
N1991 C1994 1.350 . S
N1992 S1990 1.610 . S
N1992 C1993 1.351 . S
C1993 C1987 1.428 . S
C1993 N1992 1.351 . S
C1993 C1994 1.434 . S
C1994 C1985 1.429 . S
C1994 N1991 1.350 . S
C1994 C1993 1.434 . S
C1995 C1996 1.369 . S
C1995 C1997 1.419 . S
C1995 H1999 0.930 . S
C1996 C1995 1.369 . S
C1996 C2005 1.429 . S
C1997 C1995 1.419 . S
C1997 C1998 1.363 . S
C1997 H2000 0.929 . S
C1998 C1997 1.363 . S
C1998 C2004 1.428 . S
H1999 C1995 0.930 . S
H2000 C1997 0.929 . S
S2001 N2002 1.613 . S
S2001 N2003 1.610 . S
N2002 S2001 1.613 . S
N2002 C2005 1.350 . S
N2003 S2001 1.610 . S
N2003 C2004 1.351 . S
C2004 C1998 1.428 . S
C2004 N2003 1.351 . S
C2004 C2005 1.434 . S
C2005 C1996 1.429 . S
C2005 N2002 1.350 . S
C2005 C2004 1.434 . S
C2006 C2007 1.369 1_455 S
C2006 C2008 1.419 . S
C2006 H2010 0.930 . S
C2007 C2006 1.369 1_655 S
C2007 C2016 1.429 . S
C2008 C2006 1.419 . S
C2008 C2009 1.363 . S
C2008 H2011 0.929 . S
C2009 C2008 1.363 . S
C2009 C2015 1.428 . S
H2010 C2006 0.930 . S
H2011 C2008 0.929 . S
S2012 N2013 1.613 . S
S2012 N2014 1.610 1_655 S
N2013 S2012 1.613 . S
N2013 C2016 1.350 . S
N2014 S2012 1.610 1_455 S
N2014 C2015 1.351 . S
C2015 C2009 1.428 . S
C2015 N2014 1.351 . S
C2015 C2016 1.434 1_455 S
C2016 C2007 1.429 . S
C2016 N2013 1.350 . S
C2016 C2015 1.434 1_655 S
C2017 C2018 1.369 . S
C2017 C2019 1.419 . S
C2017 H2021 0.930 . S
C2018 C2017 1.369 . S
C2018 C2027 1.429 . S
C2019 C2017 1.419 . S
C2019 C2020 1.363 . S
C2019 H2022 0.929 . S
C2020 C2019 1.363 . S
C2020 C2026 1.428 . S
H2021 C2017 0.930 . S
H2022 C2019 0.929 . S
S2023 N2024 1.613 . S
S2023 N2025 1.610 . S
N2024 S2023 1.613 . S
N2024 C2027 1.350 . S
N2025 S2023 1.610 . S
N2025 C2026 1.351 . S
C2026 C2020 1.428 . S
C2026 N2025 1.351 . S
C2026 C2027 1.434 . S
C2027 C2018 1.429 . S
C2027 N2024 1.350 . S
C2027 C2026 1.434 . S
C2028 C2029 1.369 . S
C2028 C2030 1.419 . S
C2028 H2032 0.930 . S
C2029 C2028 1.369 . S
C2029 C2038 1.429 . S
C2030 C2028 1.419 . S
C2030 C2031 1.363 . S
C2030 H2033 0.929 . S
C2031 C2030 1.363 . S
C2031 C2037 1.428 . S
H2032 C2028 0.930 . S
H2033 C2030 0.929 . S
S2034 N2035 1.613 . S
S2034 N2036 1.610 . S
N2035 S2034 1.613 . S
N2035 C2038 1.350 . S
N2036 S2034 1.610 . S
N2036 C2037 1.351 . S
C2037 C2031 1.428 . S
C2037 N2036 1.351 . S
C2037 C2038 1.434 . S
C2038 C2029 1.429 . S
C2038 N2035 1.350 . S
C2038 C2037 1.434 . S
C2039 C2040 1.369 . S
C2039 C2041 1.419 . S
C2039 H2043 0.930 . S
C2040 C2039 1.369 . S
C2040 C2049 1.429 . S
C2041 C2039 1.419 . S
C2041 C2042 1.363 . S
C2041 H2044 0.929 . S
C2042 C2041 1.363 . S
C2042 C2048 1.428 . S
H2043 C2039 0.930 . S
H2044 C2041 0.929 . S
S2045 N2046 1.613 . S
S2045 N2047 1.610 . S
N2046 S2045 1.613 . S
N2046 C2049 1.350 . S
N2047 S2045 1.610 . S
N2047 C2048 1.351 . S
C2048 C2042 1.428 . S
C2048 N2047 1.351 . S
C2048 C2049 1.434 . S
C2049 C2040 1.429 . S
C2049 N2046 1.350 . S
C2049 C2048 1.434 . S
C2050 C2051 1.369 . S
C2050 C2052 1.419 . S
C2050 H2054 0.930 . S
C2051 C2050 1.369 . S
C2051 C2060 1.429 . S
C2052 C2050 1.419 . S
C2052 C2053 1.363 1_455 S
C2052 H2055 0.929 . S
C2053 C2052 1.363 1_655 S
C2053 C2059 1.428 . S
H2054 C2050 0.930 . S
H2055 C2052 0.929 . S
S2056 N2057 1.613 1_655 S
S2056 N2058 1.610 . S
N2057 S2056 1.613 1_455 S
N2057 C2060 1.350 . S
N2058 S2056 1.610 . S
N2058 C2059 1.351 . S
C2059 C2053 1.428 . S
C2059 N2058 1.351 . S
C2059 C2060 1.434 1_655 S
C2060 C2051 1.429 . S
C2060 N2057 1.350 . S
C2060 C2059 1.434 1_455 S
C2061 C2062 1.369 . S
C2061 C2063 1.419 . S
C2061 H2065 0.930 . S
C2062 C2061 1.369 . S
C2062 C2071 1.429 . S
C2063 C2061 1.419 . S
C2063 C2064 1.363 . S
C2063 H2066 0.929 . S
C2064 C2063 1.363 . S
C2064 C2070 1.428 . S
H2065 C2061 0.930 . S
H2066 C2063 0.929 . S
S2067 N2068 1.613 . S
S2067 N2069 1.610 . S
N2068 S2067 1.613 . S
N2068 C2071 1.350 . S
N2069 S2067 1.610 . S
N2069 C2070 1.351 . S
C2070 C2064 1.428 . S
C2070 N2069 1.351 . S
C2070 C2071 1.434 . S
C2071 C2062 1.429 . S
C2071 N2068 1.350 . S
C2071 C2070 1.434 . S
C2072 C2073 1.369 . S
C2072 C2074 1.419 . S
C2072 H2076 0.930 . S
C2073 C2072 1.369 . S
C2073 C2082 1.429 . S
C2074 C2072 1.419 . S
C2074 C2075 1.363 . S
C2074 H2077 0.929 . S
C2075 C2074 1.363 . S
C2075 C2081 1.428 . S
H2076 C2072 0.930 . S
H2077 C2074 0.929 . S
S2078 N2079 1.613 . S
S2078 N2080 1.610 1_556 S
N2079 S2078 1.613 . S
N2079 C2082 1.350 1_556 S
N2080 S2078 1.610 1_554 S
N2080 C2081 1.351 . S
C2081 C2075 1.428 . S
C2081 N2080 1.351 . S
C2081 C2082 1.434 . S
C2082 C2073 1.429 . S
C2082 N2079 1.350 1_554 S
C2082 C2081 1.434 . S
C2083 C2084 1.369 . S
C2083 C2085 1.419 . S
C2083 H2087 0.930 . S
C2084 C2083 1.369 . S
C2084 C2093 1.429 . S
C2085 C2083 1.419 . S
C2085 C2086 1.363 . S
C2085 H2088 0.929 . S
C2086 C2085 1.363 . S
C2086 C2092 1.428 . S
H2087 C2083 0.930 . S
H2088 C2085 0.929 . S
S2089 N2090 1.613 . S
S2089 N2091 1.610 . S
N2090 S2089 1.613 . S
N2090 C2093 1.350 . S
N2091 S2089 1.610 . S
N2091 C2092 1.351 . S
C2092 C2086 1.428 . S
C2092 N2091 1.351 . S
C2092 C2093 1.434 . S
C2093 C2084 1.429 . S
C2093 N2090 1.350 . S
C2093 C2092 1.434 . S
C2094 C2095 1.369 . S
C2094 C2096 1.419 1_455 S
C2094 H2098 0.930 . S
C2095 C2094 1.369 . S
C2095 C2104 1.429 1_455 S
C2096 C2094 1.419 1_655 S
C2096 C2097 1.363 . S
C2096 H2099 0.929 . S
C2097 C2096 1.363 . S
C2097 C2103 1.428 . S
H2098 C2094 0.930 . S
H2099 C2096 0.929 . S
S2100 N2101 1.613 . S
S2100 N2102 1.610 . S
N2101 S2100 1.613 . S
N2101 C2104 1.350 . S
N2102 S2100 1.610 . S
N2102 C2103 1.351 . S
C2103 C2097 1.428 . S
C2103 N2102 1.351 . S
C2103 C2104 1.434 . S
C2104 C2095 1.429 1_655 S
C2104 N2101 1.350 . S
C2104 C2103 1.434 . S
C2105 C2106 1.369 . S
C2105 C2107 1.419 . S
C2105 H2109 0.930 . S
C2106 C2105 1.369 . S
C2106 C2115 1.429 . S
C2107 C2105 1.419 . S
C2107 C2108 1.363 . S
C2107 H2110 0.929 . S
C2108 C2107 1.363 . S
C2108 C2114 1.428 . S
H2109 C2105 0.930 . S
H2110 C2107 0.929 . S
S2111 N2112 1.613 . S
S2111 N2113 1.610 . S
N2112 S2111 1.613 . S
N2112 C2115 1.350 . S
N2113 S2111 1.610 . S
N2113 C2114 1.351 . S
C2114 C2108 1.428 . S
C2114 N2113 1.351 . S
C2114 C2115 1.434 . S
C2115 C2106 1.429 . S
C2115 N2112 1.350 . S
C2115 C2114 1.434 . S
C2116 C2117 1.369 . S
C2116 C2118 1.419 . S
C2116 H2120 0.930 . S
C2117 C2116 1.369 . S
C2117 C2126 1.429 . S
C2118 C2116 1.419 . S
C2118 C2119 1.363 . S
C2118 H2121 0.929 . S
C2119 C2118 1.363 . S
C2119 C2125 1.428 . S
H2120 C2116 0.930 . S
H2121 C2118 0.929 . S
S2122 N2123 1.613 . S
S2122 N2124 1.610 . S
N2123 S2122 1.613 . S
N2123 C2126 1.350 . S
N2124 S2122 1.610 . S
N2124 C2125 1.351 . S
C2125 C2119 1.428 . S
C2125 N2124 1.351 . S
C2125 C2126 1.434 . S
C2126 C2117 1.429 . S
C2126 N2123 1.350 . S
C2126 C2125 1.434 . S
C2127 C2128 1.369 . S
C2127 C2129 1.419 . S
C2127 H2131 0.930 . S
C2128 C2127 1.369 . S
C2128 C2137 1.429 . S
C2129 C2127 1.419 . S
C2129 C2130 1.363 . S
C2129 H2132 0.929 . S
C2130 C2129 1.363 . S
C2130 C2136 1.428 . S
H2131 C2127 0.930 . S
H2132 C2129 0.929 . S
S2133 N2134 1.613 . S
S2133 N2135 1.610 . S
N2134 S2133 1.613 . S
N2134 C2137 1.350 . S
N2135 S2133 1.610 . S
N2135 C2136 1.351 . S
C2136 C2130 1.428 . S
C2136 N2135 1.351 . S
C2136 C2137 1.434 . S
C2137 C2128 1.429 . S
C2137 N2134 1.350 . S
C2137 C2136 1.434 . S
C2138 C2139 1.369 . S
C2138 C2140 1.419 1_455 S
C2138 H2142 0.930 . S
C2139 C2138 1.369 . S
C2139 C2148 1.429 1_455 S
C2140 C2138 1.419 1_655 S
C2140 C2141 1.363 . S
C2140 H2143 0.929 1_655 S
C2141 C2140 1.363 . S
C2141 C2147 1.428 . S
H2142 C2138 0.930 . S
H2143 C2140 0.929 1_455 S
S2144 N2145 1.613 . S
S2144 N2146 1.610 . S
N2145 S2144 1.613 . S
N2145 C2148 1.350 . S
N2146 S2144 1.610 . S
N2146 C2147 1.351 . S
C2147 C2141 1.428 . S
C2147 N2146 1.351 . S
C2147 C2148 1.434 . S
C2148 C2139 1.429 1_655 S
C2148 N2145 1.350 . S
C2148 C2147 1.434 . S
C2149 C2150 1.369 . S
C2149 C2151 1.419 . S
C2149 H2153 0.930 . S
C2150 C2149 1.369 . S
C2150 C2159 1.429 . S
C2151 C2149 1.419 . S
C2151 C2152 1.363 . S
C2151 H2154 0.929 . S
C2152 C2151 1.363 . S
C2152 C2158 1.428 . S
H2153 C2149 0.930 . S
H2154 C2151 0.929 . S
S2155 N2156 1.613 . S
S2155 N2157 1.610 1_556 S
N2156 S2155 1.613 . S
N2156 C2159 1.350 1_556 S
N2157 S2155 1.610 1_554 S
N2157 C2158 1.351 . S
C2158 C2152 1.428 . S
C2158 N2157 1.351 . S
C2158 C2159 1.434 . S
C2159 C2150 1.429 . S
C2159 N2156 1.350 1_554 S
C2159 C2158 1.434 . S
C2160 C2161 1.369 . S
C2160 C2162 1.419 . S
C2160 H2164 0.930 . S
C2161 C2160 1.369 . S
C2161 C2170 1.429 . S
C2162 C2160 1.419 . S
C2162 C2163 1.363 . S
C2162 H2165 0.929 1_556 S
C2163 C2162 1.363 . S
C2163 C2169 1.428 . S
H2164 C2160 0.930 . S
H2165 C2162 0.929 1_554 S
S2166 N2167 1.613 . S
S2166 N2168 1.610 . S
N2167 S2166 1.613 . S
N2167 C2170 1.350 . S
N2168 S2166 1.610 . S
N2168 C2169 1.351 . S
C2169 C2163 1.428 . S
C2169 N2168 1.351 . S
C2169 C2170 1.434 . S
C2170 C2161 1.429 . S
C2170 N2167 1.350 . S
C2170 C2169 1.434 . S
C2171 C2172 1.369 . S
C2171 C2173 1.419 . S
C2171 H2175 0.930 . S
C2172 C2171 1.369 . S
C2172 C2181 1.429 . S
C2173 C2171 1.419 . S
C2173 C2174 1.363 . S
C2173 H2176 0.929 . S
C2174 C2173 1.363 . S
C2174 C2180 1.428 . S
H2175 C2171 0.930 . S
H2176 C2173 0.929 . S
S2177 N2178 1.613 . S
S2177 N2179 1.610 . S
N2178 S2177 1.613 . S
N2178 C2181 1.350 . S
N2179 S2177 1.610 . S
N2179 C2180 1.351 . S
C2180 C2174 1.428 . S
C2180 N2179 1.351 . S
C2180 C2181 1.434 . S
C2181 C2172 1.429 . S
C2181 N2178 1.350 . S
C2181 C2180 1.434 . S
C2182 C2183 1.369 . S
C2182 C2184 1.419 . S
C2182 H2186 0.930 . S
C2183 C2182 1.369 . S
C2183 C2192 1.429 . S
C2184 C2182 1.419 . S
C2184 C2185 1.363 . S
C2184 H2187 0.929 . S
C2185 C2184 1.363 . S
C2185 C2191 1.428 . S
H2186 C2182 0.930 . S
H2187 C2184 0.929 . S
S2188 N2189 1.613 . S
S2188 N2190 1.610 . S
N2189 S2188 1.613 . S
N2189 C2192 1.350 . S
N2190 S2188 1.610 . S
N2190 C2191 1.351 . S
C2191 C2185 1.428 . S
C2191 N2190 1.351 . S
C2191 C2192 1.434 . S
C2192 C2183 1.429 . S
C2192 N2189 1.350 . S
C2192 C2191 1.434 . S
C2193 C2194 1.369 . S
C2193 C2195 1.419 . S
C2193 H2197 0.930 . S
C2194 C2193 1.369 . S
C2194 C2203 1.429 . S
C2195 C2193 1.419 . S
C2195 C2196 1.363 . S
C2195 H2198 0.929 . S
C2196 C2195 1.363 . S
C2196 C2202 1.428 . S
H2197 C2193 0.930 . S
H2198 C2195 0.929 . S
S2199 N2200 1.613 . S
S2199 N2201 1.610 . S
N2200 S2199 1.613 . S
N2200 C2203 1.350 . S
N2201 S2199 1.610 . S
N2201 C2202 1.351 . S
C2202 C2196 1.428 . S
C2202 N2201 1.351 . S
C2202 C2203 1.434 . S
C2203 C2194 1.429 . S
C2203 N2200 1.350 . S
C2203 C2202 1.434 . S
C2204 C2205 1.369 . S
C2204 C2206 1.419 . S
C2204 H2208 0.930 . S
C2205 C2204 1.369 . S
C2205 C2214 1.429 . S
C2206 C2204 1.419 . S
C2206 C2207 1.363 . S
C2206 H2209 0.929 . S
C2207 C2206 1.363 . S
C2207 C2213 1.428 . S
H2208 C2204 0.930 . S
H2209 C2206 0.929 . S
S2210 N2211 1.613 . S
S2210 N2212 1.610 . S
N2211 S2210 1.613 . S
N2211 C2214 1.350 . S
N2212 S2210 1.610 . S
N2212 C2213 1.351 . S
C2213 C2207 1.428 . S
C2213 N2212 1.351 . S
C2213 C2214 1.434 . S
C2214 C2205 1.429 . S
C2214 N2211 1.350 . S
C2214 C2213 1.434 . S
C2215 C2216 1.369 . S
C2215 C2217 1.419 . S
C2215 H2219 0.930 . S
C2216 C2215 1.369 . S
C2216 C2225 1.429 . S
C2217 C2215 1.419 . S
C2217 C2218 1.363 . S
C2217 H2220 0.929 . S
C2218 C2217 1.363 . S
C2218 C2224 1.428 . S
H2219 C2215 0.930 . S
H2220 C2217 0.929 . S
S2221 N2222 1.613 . S
S2221 N2223 1.610 . S
N2222 S2221 1.613 . S
N2222 C2225 1.350 . S
N2223 S2221 1.610 . S
N2223 C2224 1.351 . S
C2224 C2218 1.428 . S
C2224 N2223 1.351 . S
C2224 C2225 1.434 . S
C2225 C2216 1.429 . S
C2225 N2222 1.350 . S
C2225 C2224 1.434 . S
C2226 C2227 1.369 . S
C2226 C2228 1.419 . S
C2226 H2230 0.930 . S
C2227 C2226 1.369 . S
C2227 C2236 1.429 . S
C2228 C2226 1.419 . S
C2228 C2229 1.363 . S
C2228 H2231 0.929 . S
C2229 C2228 1.363 . S
C2229 C2235 1.428 . S
H2230 C2226 0.930 . S
H2231 C2228 0.929 . S
S2232 N2233 1.613 1_554 S
S2232 N2234 1.610 . S
N2233 S2232 1.613 1_556 S
N2233 C2236 1.350 . S
N2234 S2232 1.610 . S
N2234 C2235 1.351 1_554 S
C2235 C2229 1.428 . S
C2235 N2234 1.351 1_556 S
C2235 C2236 1.434 . S
C2236 C2227 1.429 . S
C2236 N2233 1.350 . S
C2236 C2235 1.434 . S
C2237 C2238 1.369 . S
C2237 C2239 1.419 . S
C2237 H2241 0.930 . S
C2238 C2237 1.369 . S
C2238 C2247 1.429 . S
C2239 C2237 1.419 . S
C2239 C2240 1.363 . S
C2239 H2242 0.929 . S
C2240 C2239 1.363 . S
C2240 C2246 1.428 . S
H2241 C2237 0.930 . S
H2242 C2239 0.929 . S
S2243 N2244 1.613 . S
S2243 N2245 1.610 . S
N2244 S2243 1.613 . S
N2244 C2247 1.350 . S
N2245 S2243 1.610 . S
N2245 C2246 1.351 . S
C2246 C2240 1.428 . S
C2246 N2245 1.351 . S
C2246 C2247 1.434 . S
C2247 C2238 1.429 . S
C2247 N2244 1.350 . S
C2247 C2246 1.434 . S
C2248 C2249 1.369 . S
C2248 C2250 1.419 . S
C2248 H2252 0.930 . S
C2249 C2248 1.369 . S
C2249 C2258 1.429 1_565 S
C2250 C2248 1.419 . S
C2250 C2251 1.363 1_565 S
C2250 H2253 0.929 . S
C2251 C2250 1.363 1_545 S
C2251 C2257 1.428 . S
H2252 C2248 0.930 . S
H2253 C2250 0.929 . S
S2254 N2255 1.613 . S
S2254 N2256 1.610 . S
N2255 S2254 1.613 . S
N2255 C2258 1.350 . S
N2256 S2254 1.610 . S
N2256 C2257 1.351 . S
C2257 C2251 1.428 . S
C2257 N2256 1.351 . S
C2257 C2258 1.434 . S
C2258 C2249 1.429 1_545 S
C2258 N2255 1.350 . S
C2258 C2257 1.434 . S
C2259 C2260 1.369 . S
C2259 C2261 1.419 . S
C2259 H2263 0.930 . S
C2260 C2259 1.369 . S
C2260 C2269 1.429 . S
C2261 C2259 1.419 . S
C2261 C2262 1.363 . S
C2261 H2264 0.929 . S
C2262 C2261 1.363 . S
C2262 C2268 1.428 . S
H2263 C2259 0.930 . S
H2264 C2261 0.929 . S
S2265 N2266 1.613 . S
S2265 N2267 1.610 . S
N2266 S2265 1.613 . S
N2266 C2269 1.350 . S
N2267 S2265 1.610 . S
N2267 C2268 1.351 . S
C2268 C2262 1.428 . S
C2268 N2267 1.351 . S
C2268 C2269 1.434 . S
C2269 C2260 1.429 . S
C2269 N2266 1.350 . S
C2269 C2268 1.434 . S
C2270 C2271 1.369 . S
C2270 C2272 1.419 1_545 S
C2270 H2274 0.930 . S
C2271 C2270 1.369 . S
C2271 C2280 1.429 . S
C2272 C2270 1.419 1_565 S
C2272 C2273 1.363 . S
C2272 H2275 0.929 . S
C2273 C2272 1.363 . S
C2273 C2279 1.428 . S
H2274 C2270 0.930 . S
H2275 C2272 0.929 . S
S2276 N2277 1.613 1_565 S
S2276 N2278 1.610 . S
N2277 S2276 1.613 1_545 S
N2277 C2280 1.350 . S
N2278 S2276 1.610 . S
N2278 C2279 1.351 . S
C2279 C2273 1.428 . S
C2279 N2278 1.351 . S
C2279 C2280 1.434 1_565 S
C2280 C2271 1.429 . S
C2280 N2277 1.350 . S
C2280 C2279 1.434 1_545 S
C2281 C2282 1.369 . S
C2281 C2283 1.419 . S
C2281 H2285 0.930 . S
C2282 C2281 1.369 . S
C2282 C2291 1.429 . S
C2283 C2281 1.419 . S
C2283 C2284 1.363 . S
C2283 H2286 0.929 . S
C2284 C2283 1.363 . S
C2284 C2290 1.428 . S
H2285 C2281 0.930 . S
H2286 C2283 0.929 . S
S2287 N2288 1.613 . S
S2287 N2289 1.610 . S
N2288 S2287 1.613 . S
N2288 C2291 1.350 . S
N2289 S2287 1.610 . S
N2289 C2290 1.351 . S
C2290 C2284 1.428 . S
C2290 N2289 1.351 . S
C2290 C2291 1.434 . S
C2291 C2282 1.429 . S
C2291 N2288 1.350 . S
C2291 C2290 1.434 . S
C2292 C2293 1.369 . S
C2292 C2294 1.419 . S
C2292 H2296 0.930 . S
C2293 C2292 1.369 . S
C2293 C2302 1.429 1_565 S
C2294 C2292 1.419 . S
C2294 C2295 1.363 1_565 S
C2294 H2297 0.929 . S
C2295 C2294 1.363 1_545 S
C2295 C2301 1.428 . S
H2296 C2292 0.930 . S
H2297 C2294 0.929 . S
S2298 N2299 1.613 . S
S2298 N2300 1.610 1_554 S
N2299 S2298 1.613 . S
N2299 C2302 1.350 1_554 S
N2300 S2298 1.610 1_556 S
N2300 C2301 1.351 . S
C2301 C2295 1.428 . S
C2301 N2300 1.351 . S
C2301 C2302 1.434 . S
C2302 C2293 1.429 1_545 S
C2302 N2299 1.350 1_556 S
C2302 C2301 1.434 . S
C2303 C2304 1.369 . S
C2303 C2305 1.419 . S
C2303 H2307 0.930 . S
C2304 C2303 1.369 . S
C2304 C2313 1.429 . S
C2305 C2303 1.419 . S
C2305 C2306 1.363 . S
C2305 H2308 0.929 . S
C2306 C2305 1.363 . S
C2306 C2312 1.428 . S
H2307 C2303 0.930 . S
H2308 C2305 0.929 . S
S2309 N2310 1.613 . S
S2309 N2311 1.610 . S
N2310 S2309 1.613 . S
N2310 C2313 1.350 . S
N2311 S2309 1.610 . S
N2311 C2312 1.351 . S
C2312 C2306 1.428 . S
C2312 N2311 1.351 . S
C2312 C2313 1.434 . S
C2313 C2304 1.429 . S
C2313 N2310 1.350 . S
C2313 C2312 1.434 . S
C2314 C2315 1.369 . S
C2314 C2316 1.419 . S
C2314 H2318 0.930 . S
C2315 C2314 1.369 . S
C2315 C2324 1.429 1_565 S
C2316 C2314 1.419 . S
C2316 C2317 1.363 1_565 S
C2316 H2319 0.929 . S
C2317 C2316 1.363 1_545 S
C2317 C2323 1.428 . S
H2318 C2314 0.930 . S
H2319 C2316 0.929 . S
S2320 N2321 1.613 . S
S2320 N2322 1.610 . S
N2321 S2320 1.613 . S
N2321 C2324 1.350 . S
N2322 S2320 1.610 . S
N2322 C2323 1.351 . S
C2323 C2317 1.428 . S
C2323 N2322 1.351 . S
C2323 C2324 1.434 . S
C2324 C2315 1.429 1_545 S
C2324 N2321 1.350 . S
C2324 C2323 1.434 . S
C2325 C2326 1.369 . S
C2325 C2327 1.419 . S
C2325 H2329 0.930 . S
C2326 C2325 1.369 . S
C2326 C2335 1.429 . S
C2327 C2325 1.419 . S
C2327 C2328 1.363 . S
C2327 H2330 0.929 . S
C2328 C2327 1.363 . S
C2328 C2334 1.428 . S
H2329 C2325 0.930 . S
H2330 C2327 0.929 . S
S2331 N2332 1.613 . S
S2331 N2333 1.610 . S
N2332 S2331 1.613 . S
N2332 C2335 1.350 . S
N2333 S2331 1.610 . S
N2333 C2334 1.351 . S
C2334 C2328 1.428 . S
C2334 N2333 1.351 . S
C2334 C2335 1.434 . S
C2335 C2326 1.429 . S
C2335 N2332 1.350 . S
C2335 C2334 1.434 . S
C1281 C15 1.049 . S
C1283 C175 1.030 . S
C1292 C215 1.032 . S
C1294 C55 1.032 . S
C1303 C95 1.025 . S
C1305 C255 1.045 . S
C1314 C295 1.047 . S
C1316 C135 1.026 . S
C1325 C326 1.029 . S
C1327 C486 1.045 . S
C1336 C366 1.031 . S
C1338 C526 1.040 . S
C1347 C566 1.040 . S
C1349 C406 1.031 . S
C1358 C446 1.039 . S
C1360 C606 1.028 . S
C1369 C815 1.025 . S
C1371 C655 1.045 . S
C1380 C695 1.041 . S
C1382 C855 1.026 . S
C1391 C735 1.026 . S
C1393 C895 1.043 . S
C1402 C775 1.027 . S
C1404 C935 1.036 . S
C1413 C966 1.045 . S
C1415 C1126 1.034 . S
C1424 C1166 1.042 . S
C1426 C1006 1.032 . S
C1435 C1046 1.049 . S
C1437 C1206 1.029 . S
C1446 C1246 1.030 . S
C1448 C1086 1.034 . S
C1457 C849 3.162 . S
C1459 C9 3.157 . S
C1468 C889 3.162 . S
C1470 C49 3.156 . S
C1479 C929 3.162 . S
C1481 C89 3.160 . S
C1490 C129 3.162 1_554 S
C1492 C809 3.158 . S
C1501 C169 3.159 . S
C1503 C769 3.156 . S
C1512 C649 3.158 . S
C1514 C209 3.161 . S
C1523 C249 3.155 . S
C1525 C689 3.160 1_554 S
C1534 C289 3.160 . S
C1536 C729 3.161 . S
C1545 C338 3.160 . S
C1547 C1178 3.156 1_554 S
C1556 C1218 3.161 . S
C1558 C378 3.156 . S
C1567 C1258 3.162 . S
C1569 C418 3.157 . S
C1578 C458 3.155 . S
C1580 C1138 3.159 . S
C1589 C498 3.159 . S
C1591 C1098 3.156 . S
C1600 C538 3.161 . S
C1602 C978 3.159 . S
C1611 C578 3.157 . S
C1613 C1018 3.161 . S
C1622 C618 3.157 1_554 S
C1624 C1058 3.157 . S
C1633 C329 1.457 . S
C1635 C18 1.468 . S
C1644 C58 1.472 . S
C1646 C1009 1.457 . S
C1655 C409 1.455 . S
C1657 C98 1.470 . S
C1666 C138 1.464 . S
C1668 C1089 1.464 . S
C1677 C489 1.471 . S
C1679 C178 1.457 . S
C1688 C1169 1.462 . S
C1690 C218 1.464 . S
C1699 C258 1.467 . S
C1701 C569 1.460 . S
C1710 C298 1.471 . S
C1712 C1249 1.458 . S
C1721 C698 1.457 . S
C1723 C369 1.469 . S
C1732 C778 1.461 . S
C1734 C449 1.466 . S
C1743 C529 1.456 . S
C1745 C858 1.469 . S
C1754 C938 1.458 . S
C1756 C609 1.468 . S
C1765 C969 1.464 . S
C1767 C658 1.462 . S
C1776 C1049 1.468 . S
C1778 C738 1.459 . S
C1787 C1129 1.466 . S
C1789 C818 1.460 . S
C1798 C898 1.459 . S
C1800 C1209 1.466 . S
C1809 C6 1.606 . S
C1811 C490 1.743 . S
C1820 C1170 1.738 1_554 S
C1822 C46 1.607 . S
C1831 C570 1.737 . S
C1833 C86 1.615 . S
C1842 C126 1.616 . S
C1844 C1250 1.737 . S
C1853 C330 1.742 . S
C1855 C166 1.637 . S
C1864 C1010 1.738 . S
C1866 C206 1.614 . S
C1875 C410 1.742 . S
C1877 C246 1.614 . S
C1886 C1090 1.742 . S
C1888 C286 1.610 . S
C1897 C179 1.742 . S
C1899 C335 1.607 . S
C1908 C859 1.736 . S
C1910 C375 1.615 . S
C1919 C259 1.744 . S
C1921 C415 1.632 . S
C1930 C455 1.615 . S
C1932 C939 1.736 . S
C1941 C19 1.744 . S
C1943 C495 1.609 . S
C1952 C699 1.740 1_554 S
C1954 C535 1.612 . S
C1963 C575 1.606 . S
C1965 C99 1.743 . S
C1974 C615 1.616 . S
C1976 C779 1.738 . S
C1985 C1130 1.741 . S
C1987 C646 1.608 . S
C1996 C530 1.736 . S
C1998 C686 1.612 . S
C2007 C726 1.618 . S
C2009 C1210 1.738 . S
C2018 C610 1.738 1_554 S
C2020 C766 1.607 . S
C2029 C806 1.611 . S
C2031 C970 1.743 . S
C2040 C846 1.608 . S
C2042 C370 1.738 . S
C2051 C1050 1.739 . S
C2053 C886 1.639 . S
C2062 C450 1.742 . S
C2064 C926 1.610 . S
C2073 C975 1.629 . S
C2075 C819 1.743 . S
C2084 C1015 1.616 . S
C2086 C219 1.738 . S
C2095 C1055 1.606 . S
C2097 C899 1.742 . S
C2106 C1095 1.612 . S
C2108 C299 1.740 . S
C2117 C659 1.741 . S
C2119 C1135 1.608 . S
C2128 C59 1.738 . S
C2130 C1175 1.614 . S
C2139 C1215 1.610 . S
C2141 C739 1.743 . S
C2150 C139 1.735 1_554 S
C2152 C1255 1.613 . S
C2161 C170 3.481 . S
C2163 C10 3.483 1_556 S
C2172 C210 3.483 . S
C2174 C50 3.483 . S
C2183 C90 3.483 . S
C2185 C250 3.483 . S
C2194 C290 3.485 . S
C2196 C130 3.483 . S
C2205 C499 3.484 . S
C2207 C339 3.482 . S
C2216 C379 3.482 . S
C2218 C539 3.483 . S
C2227 C419 3.484 . S
C2229 C579 3.482 1_556 S
C2238 C619 3.484 . S
C2240 C459 3.483 . S
C2249 C650 3.481 . S
C2251 C810 3.483 . S
C2260 C850 3.483 . S
C2262 C690 3.485 . S
C2271 C730 3.483 1_556 S
C2273 C890 3.484 . S
C2282 C770 3.482 . S
C2284 C930 3.484 . S
C2293 C1139 3.481 1_556 S
C2295 C979 3.484 . S
C2304 C1179 3.484 . S
C2306 C1019 3.482 . S
C2315 C1059 3.481 . S
C2317 C1219 3.484 . S
C2326 C1259 3.484 . S
C2328 C1099 3.483 . S
