# Generated by pormake.
# Topology ukt, (4)-cn, num edge types: 1
# Building blocks:
#     Node 0, Type 0, BuildingBlock: KUFVIS_clean_sbu_0, # of connection points: 4
#     Node 1, Type 0, BuildingBlock: KUFVIS_clean_sbu_0, # of connection points: 4
#     Node 2, Type 0, BuildingBlock: KUFVIS_clean_sbu_0, # of connection points: 4
#     Node 3, Type 0, BuildingBlock: KUFVIS_clean_sbu_0, # of connection points: 4
#     Node 4, Type 0, BuildingBlock: KUFVIS_clean_sbu_0, # of connection points: 4
#     Node 5, Type 0, BuildingBlock: KUFVIS_clean_sbu_0, # of connection points: 4
#     Node 6, Type 0, BuildingBlock: KUFVIS_clean_sbu_0, # of connection points: 4
#     Node 7, Type 0, BuildingBlock: KUFVIS_clean_sbu_0, # of connection points: 4
#     Node 8, Type 0, BuildingBlock: KUFVIS_clean_sbu_0, # of connection points: 4
#     Node 9, Type 0, BuildingBlock: KUFVIS_clean_sbu_0, # of connection points: 4
#     Node 10, Type 0, BuildingBlock: KUFVIS_clean_sbu_0, # of connection points: 4
#     Node 11, Type 0, BuildingBlock: KUFVIS_clean_sbu_0, # of connection points: 4
#     Node 12, Type 0, BuildingBlock: KUFVIS_clean_sbu_0, # of connection points: 4
#     Node 13, Type 0, BuildingBlock: KUFVIS_clean_sbu_0, # of connection points: 4
#     Node 14, Type 0, BuildingBlock: KUFVIS_clean_sbu_0, # of connection points: 4
#     Node 15, Type 0, BuildingBlock: KUFVIS_clean_sbu_0, # of connection points: 4
#     Edge 16, Type (0, 0), BuildingBlock: AJUNOK_clean_linker_0, # of connection points: 2
#     Edge 17, Type (0, 0), BuildingBlock: AJUNOK_clean_linker_0, # of connection points: 2
#     Edge 18, Type (0, 0), BuildingBlock: AJUNOK_clean_linker_0, # of connection points: 2
#     Edge 19, Type (0, 0), BuildingBlock: AJUNOK_clean_linker_0, # of connection points: 2
#     Edge 20, Type (0, 0), BuildingBlock: AJUNOK_clean_linker_0, # of connection points: 2
#     Edge 21, Type (0, 0), BuildingBlock: AJUNOK_clean_linker_0, # of connection points: 2
#     Edge 22, Type (0, 0), BuildingBlock: AJUNOK_clean_linker_0, # of connection points: 2
#     Edge 23, Type (0, 0), BuildingBlock: AJUNOK_clean_linker_0, # of connection points: 2
#     Edge 24, Type (0, 0), BuildingBlock: AJUNOK_clean_linker_0, # of connection points: 2
#     Edge 25, Type (0, 0), BuildingBlock: AJUNOK_clean_linker_0, # of connection points: 2
#     Edge 26, Type (0, 0), BuildingBlock: AJUNOK_clean_linker_0, # of connection points: 2
#     Edge 27, Type (0, 0), BuildingBlock: AJUNOK_clean_linker_0, # of connection points: 2
#     Edge 28, Type (0, 0), BuildingBlock: AJUNOK_clean_linker_0, # of connection points: 2
#     Edge 29, Type (0, 0), BuildingBlock: AJUNOK_clean_linker_0, # of connection points: 2
#     Edge 30, Type (0, 0), BuildingBlock: AJUNOK_clean_linker_0, # of connection points: 2
#     Edge 31, Type (0, 0), BuildingBlock: AJUNOK_clean_linker_0, # of connection points: 2
#     Edge 32, Type (0, 0), BuildingBlock: AJUNOK_clean_linker_0, # of connection points: 2
#     Edge 33, Type (0, 0), BuildingBlock: AJUNOK_clean_linker_0, # of connection points: 2
#     Edge 34, Type (0, 0), BuildingBlock: AJUNOK_clean_linker_0, # of connection points: 2
#     Edge 35, Type (0, 0), BuildingBlock: AJUNOK_clean_linker_0, # of connection points: 2
#     Edge 36, Type (0, 0), BuildingBlock: AJUNOK_clean_linker_0, # of connection points: 2
#     Edge 37, Type (0, 0), BuildingBlock: AJUNOK_clean_linker_0, # of connection points: 2
#     Edge 38, Type (0, 0), BuildingBlock: AJUNOK_clean_linker_0, # of connection points: 2
#     Edge 39, Type (0, 0), BuildingBlock: AJUNOK_clean_linker_0, # of connection points: 2
#     Edge 40, Type (0, 0), BuildingBlock: AJUNOK_clean_linker_0, # of connection points: 2
#     Edge 41, Type (0, 0), BuildingBlock: AJUNOK_clean_linker_0, # of connection points: 2
#     Edge 42, Type (0, 0), BuildingBlock: AJUNOK_clean_linker_0, # of connection points: 2
#     Edge 43, Type (0, 0), BuildingBlock: AJUNOK_clean_linker_0, # of connection points: 2
#     Edge 44, Type (0, 0), BuildingBlock: AJUNOK_clean_linker_0, # of connection points: 2
#     Edge 45, Type (0, 0), BuildingBlock: AJUNOK_clean_linker_0, # of connection points: 2
#     Edge 46, Type (0, 0), BuildingBlock: AJUNOK_clean_linker_0, # of connection points: 2
#     Edge 47, Type (0, 0), BuildingBlock: AJUNOK_clean_linker_0, # of connection points: 2
# Relax obj value: 0.282
# Max RMSD: 0.185
# Mean RMSD: 0.185
data_MOF--net-ukt--node1-KUFVIS_clean_sbu_0--edge1-AJUNOK_clean_linker_0
_symmetry_space_group_name_H-M    P1
_symmetry_Int_Tables_number       1
_symmetry_cell_setting            triclinic
loop_
_symmetry_equiv_pos_as_xyz
'x, y, z'
_cell_length_a     30.965641
_cell_length_b     31.017065
_cell_length_c     25.813709
_cell_angle_alpha  90.088317
_cell_angle_beta   90.002434
_cell_angle_gamma 90.00843
loop_
_atom_site_label
_atom_site_type_symbol
_atom_site_fract_x
_atom_site_fract_y
_atom_site_fract_z
_atom_type_partial_charge
Mn0 Mn 0.53894 0.11588 0.08687 0.0
Mn1 Mn 0.62718 0.14623 0.15347 0.0
C2 C 0.60662 0.09388 0.05629 0.0
C3 C 0.49032 0.06188 0.06357 0.0
C4 C 0.58362 0.20447 0.07644 0.0
O5 O 0.51082 0.13985 0.15333 0.0
O6 O 0.5729 0.16302 0.1882 0.0
C7 C 0.6126 0.08593 0.24071 0.0
N8 N 0.63869 0.1015 0.2026 0.0
C9 C 0.69812 0.05777 0.23169 0.0
C10 C 0.67192 0.04131 0.27134 0.0
C11 C 0.6289 0.05533 0.27571 0.0
C12 C 0.67994 0.08794 0.19786 0.0
H13 H 0.57973 0.09703 0.24459 0.0
C14 C 0.53184 0.16082 0.18778 0.0
O15 O 0.48313 0.10179 0.05057 0.0
O16 O 0.51958 0.05597 0.09854 0.0
N17 N 0.68307 0.13397 0.12723 0.0
C18 C 0.70403 0.15439 0.08838 0.0
C19 C 0.74722 0.14427 0.07802 0.0
C20 C 0.76869 0.11352 0.10872 0.0
C21 C 0.74678 0.09397 0.15007 0.0
C22 C 0.70363 0.10552 0.15818 0.0
H23 H 0.68697 0.17716 0.06518 0.0
O24 O 0.57256 0.09426 0.02815 0.0
O25 O 0.60027 0.10499 0.10506 0.0
O26 O 0.55186 0.17922 0.066 0.0
O27 O 0.61625 0.19338 0.10407 0.0
C28 C 0.76593 0.06374 0.18366 0.0
C29 C 0.7416 0.04565 0.22449 0.0
H30 H 0.68447 0.01798 0.29864 0.0
H31 H 0.6085 0.0429 0.30628 0.0
H32 H 0.7632 0.15946 0.04572 0.0
H33 H 0.80186 0.10505 0.10013 0.0
H34 H 0.79933 0.05429 0.17853 0.0
H35 H 0.75665 0.0225 0.25015 0.0
Mn36 Mn 0.35238 0.54676 0.09928 0.0
Mn37 Mn 0.2996 0.63391 0.14225 0.0
C38 C 0.37774 0.61343 0.07768 0.0
C39 C 0.40931 0.49873 0.08732 0.0
C40 C 0.27397 0.59051 0.04753 0.0
O41 O 0.3187 0.52031 0.15952 0.0
O42 O 0.27314 0.57673 0.16222 0.0
C43 C 0.3043 0.62176 0.25542 0.0
N44 N 0.31445 0.64615 0.21319 0.0
C45 C 0.31752 0.7101 0.26677 0.0
C46 C 0.3069 0.6854 0.31004 0.0
C47 C 0.29982 0.64126 0.30413 0.0
C48 C 0.32088 0.6892 0.21857 0.0
H49 H 0.29678 0.58813 0.25195 0.0
C50 C 0.28295 0.5375 0.1733 0.0
O51 O 0.37115 0.4909 0.06853 0.0
O52 O 0.41088 0.52801 0.12334 0.0
N53 N 0.3189 0.69149 0.12863 0.0
C54 C 0.31823 0.71324 0.08297 0.0
C55 C 0.32594 0.75773 0.08234 0.0
C56 C 0.33079 0.78036 0.12881 0.0
C57 C 0.32838 0.75803 0.17556 0.0
C58 C 0.3242 0.71296 0.17381 0.0
H59 H 0.31468 0.69614 0.04711 0.0
O60 O 0.38288 0.57989 0.04889 0.0
O61 O 0.35625 0.60849 0.12167 0.0
O62 O 0.29419 0.55568 0.05865 0.0
O63 O 0.28099 0.62576 0.07101 0.0
C64 C 0.32723 0.77918 0.22365 0.0
C65 C 0.32038 0.75531 0.26903 0.0
H66 H 0.30171 0.70035 0.34744 0.0
H67 H 0.28811 0.62295 0.3365 0.0
H68 H 0.32886 0.77439 0.0462 0.0
H69 H 0.33587 0.81488 0.1283 0.0
H70 H 0.32914 0.81402 0.22585 0.0
H71 H 0.31599 0.77221 0.30535 0.0
Mn72 Mn 0.95528 0.38151 0.06341 0.0
Mn73 Mn 0.87923 0.3513 0.15018 0.0
C74 C 0.88456 0.40475 0.05289 0.0
C75 C 0.00065 0.43544 0.0313 0.0
C76 C 0.90726 0.2937 0.06123 0.0
O77 O 0.99299 0.35521 0.12186 0.0
O78 O 0.93788 0.33635 0.17394 0.0
C79 C 0.9069 0.41764 0.22589 0.0
N80 N 0.87566 0.40026 0.19515 0.0
C81 C 0.82959 0.4618 0.20814 0.0
C82 C 0.86112 0.48022 0.24029 0.0
C83 C 0.89977 0.4578 0.24963 0.0
C84 C 0.83805 0.4212 0.18685 0.0
H85 H 0.93726 0.40134 0.2315 0.0
C86 C 0.978 0.33737 0.16293 0.0
O87 O 0.00447 0.39579 0.0152 0.0
O88 O 0.97763 0.44089 0.07259 0.0
N89 N 0.82032 0.36304 0.13438 0.0
C90 C 0.7908 0.33664 0.11158 0.0
C91 C 0.7488 0.35202 0.10295 0.0
C92 C 0.73729 0.39365 0.11984 0.0
C93 C 0.76739 0.41854 0.14733 0.0
C94 C 0.80829 0.40091 0.1557 0.0
H95 H 0.79996 0.30494 0.09801 0.0
O96 O 0.91188 0.40648 0.01549 0.0
O97 O 0.89985 0.39049 0.09673 0.0
O98 O 0.93636 0.31946 0.04347 0.0
O99 O 0.8829 0.30261 0.10037 0.0
C100 C 0.7588 0.46027 0.16624 0.0
C101 C 0.79028 0.48224 0.19585 0.0
H102 H 0.85601 0.5115 0.25795 0.0
H103 H 0.92436 0.47183 0.27423 0.0
H104 H 0.72602 0.33234 0.08177 0.0
H105 H 0.70533 0.40609 0.11187 0.0
H106 H 0.72803 0.47561 0.15868 0.0
H107 H 0.78326 0.51421 0.21055 0.0
Mn108 Mn 0.13108 0.94769 0.09677 0.0
Mn109 Mn 0.15622 0.85169 0.14799 0.0
C110 C 0.09427 0.88691 0.06698 0.0
C111 C 0.08345 0.00463 0.08989 0.0
C112 C 0.20458 0.88844 0.05776 0.0
O113 O 0.17147 0.9664 0.15725 0.0
O114 O 0.18916 0.8994 0.1809 0.0
C115 C 0.10705 0.88002 0.2399 0.0
N116 N 0.1148 0.84968 0.20282 0.0
C117 C 0.04745 0.81414 0.2211 0.0
C118 C 0.03878 0.84499 0.2595 0.0
C119 C 0.06897 0.87779 0.26933 0.0
C120 C 0.08611 0.81784 0.1935 0.0
H121 H 0.12912 0.90645 0.24602 0.0
C122 C 0.19434 0.94007 0.18388 0.0
O123 O 0.12181 0.00707 0.0693 0.0
O124 O 0.07876 0.9756 0.12545 0.0
N125 N 0.12969 0.8 0.12345 0.0
C126 C 0.14608 0.77062 0.08947 0.0
C127 C 0.12519 0.73061 0.0834 0.0
C128 C 0.08722 0.72177 0.11112 0.0
C129 C 0.07145 0.75235 0.14631 0.0
C130 C 0.09582 0.78977 0.15404 0.0
H131 H 0.17553 0.77728 0.06854 0.0
O132 O 0.09322 0.92303 0.04295 0.0
O133 O 0.11488 0.88802 0.11136 0.0
O134 O 0.18484 0.92499 0.05781 0.0
O135 O 0.19582 0.85669 0.08831 0.0
C136 C 0.03234 0.74768 0.17348 0.0
C137 C 0.01966 0.77932 0.20977 0.0
H138 H 0.00933 0.84346 0.28207 0.0
H139 H 0.06252 0.90176 0.29884 0.0
H140 H 0.13796 0.70653 0.05754 0.0
H141 H 0.07037 0.6916 0.10487 0.0
H142 H 0.01183 0.71993 0.16681 0.0
H143 H 0.98948 0.77552 0.23049 0.0
Mn144 Mn 0.54325 0.35006 0.4195 0.0
Mn145 Mn 0.63127 0.32039 0.35279 0.0
C146 C 0.61004 0.37594 0.44777 0.0
C147 C 0.49337 0.40308 0.44006 0.0
C148 C 0.59376 0.26564 0.437 0.0
O149 O 0.51484 0.32163 0.35617 0.0
O150 O 0.57689 0.29872 0.32149 0.0
C151 C 0.60766 0.37929 0.26732 0.0
N152 N 0.63743 0.36466 0.30196 0.0
C153 C 0.68726 0.42069 0.27858 0.0
C154 C 0.65725 0.43637 0.24255 0.0
C155 C 0.61742 0.41529 0.23654 0.0
C156 C 0.67612 0.38413 0.3072 0.0
H157 H 0.5765 0.364 0.26371 0.0
C158 C 0.53576 0.29947 0.32295 0.0
O159 O 0.48767 0.36357 0.45574 0.0
O160 O 0.52115 0.40823 0.40324 0.0
N161 N 0.68763 0.3364 0.37513 0.0
C162 C 0.71349 0.31581 0.4097 0.0
C163 C 0.75601 0.3303 0.41705 0.0
C164 C 0.77123 0.36583 0.38893 0.0
C165 C 0.74467 0.38521 0.35182 0.0
C166 C 0.70342 0.36789 0.34437 0.0
H167 H 0.70171 0.28824 0.43059 0.0
O168 O 0.57593 0.37615 0.47563 0.0
O169 O 0.60393 0.36237 0.39984 0.0
O170 O 0.56026 0.28913 0.44564 0.0
O171 O 0.62456 0.2759 0.40605 0.0
C172 C 0.75653 0.42228 0.32386 0.0
C173 C 0.72713 0.44079 0.28863 0.0
H174 H 0.66432 0.46468 0.21955 0.0
H175 H 0.59402 0.4272 0.2089 0.0
H176 H 0.77701 0.31452 0.44436 0.0
H177 H 0.80296 0.37848 0.3968 0.0
H178 H 0.78752 0.43759 0.33038 0.0
H179 H 0.73492 0.47106 0.27048 0.0
Mn180 Mn 0.12626 0.54626 0.43358 0.0
Mn181 Mn 0.17696 0.62422 0.3674 0.0
C182 C 0.11762 0.6176 0.46137 0.0
C183 C 0.0614 0.51079 0.4521 0.0
C184 C 0.2213 0.5726 0.45082 0.0
O185 O 0.1457 0.51234 0.36804 0.0
O186 O 0.18109 0.56807 0.33363 0.0
C187 C 0.1065 0.61818 0.29139 0.0
N188 N 0.13403 0.64308 0.31972 0.0
C189 C 0.09192 0.70638 0.30286 0.0
C190 C 0.06311 0.68143 0.27356 0.0
C191 C 0.07083 0.63722 0.26708 0.0
C192 C 0.12722 0.68565 0.32553 0.0
H193 H 0.11047 0.58374 0.28957 0.0
C194 C 0.17029 0.5287 0.33343 0.0
O195 O 0.09808 0.49574 0.46891 0.0
O196 O 0.06387 0.5405 0.41731 0.0
N197 N 0.17865 0.68215 0.39108 0.0
C198 C 0.20792 0.70054 0.42354 0.0
C199 C 0.20838 0.74557 0.42941 0.0
C200 C 0.17863 0.77085 0.40167 0.0
C201 C 0.14936 0.75113 0.36818 0.0
C202 C 0.15282 0.70671 0.36099 0.0
H203 H 0.23162 0.68094 0.44307 0.0
O204 O 0.10987 0.58509 0.49053 0.0
O205 O 0.12975 0.60764 0.41416 0.0
O206 O 0.18971 0.54676 0.46007 0.0
O207 O 0.21971 0.60409 0.41852 0.0
C208 C 0.11523 0.7733 0.3441 0.0
C209 C 0.0851 0.75019 0.31414 0.0
H210 H 0.03413 0.69541 0.25752 0.0
H211 H 0.04838 0.61757 0.24524 0.0
H212 H 0.23166 0.76062 0.45488 0.0
H213 H 0.17832 0.80539 0.40533 0.0
H214 H 0.11013 0.80733 0.35137 0.0
H215 H 0.05584 0.76577 0.30219 0.0
Mn216 Mn 0.96701 0.15594 0.39785 0.0
Mn217 Mn 0.88302 0.20696 0.34542 0.0
C218 C 0.89785 0.13671 0.42276 0.0
C219 C 0.012 0.097 0.41341 0.0
C220 C 0.92773 0.2418 0.436 0.0
O221 O 0.99681 0.18344 0.33472 0.0
O222 O 0.9404 0.22679 0.31981 0.0
C223 C 0.89728 0.17434 0.23939 0.0
N224 N 0.87031 0.18085 0.28032 0.0
C225 C 0.80792 0.17795 0.22529 0.0
C226 C 0.83518 0.17309 0.18232 0.0
C227 C 0.87994 0.16987 0.18951 0.0
C228 C 0.82704 0.18053 0.27429 0.0
H229 H 0.93176 0.17409 0.24448 0.0
C230 C 0.97994 0.21647 0.3132 0.0
O231 O 0.02162 0.13524 0.43063 0.0
O232 O 0.98193 0.0954 0.37853 0.0
N233 N 0.8244 0.19509 0.36271 0.0
C234 C 0.80315 0.20585 0.40701 0.0
C235 C 0.75797 0.2091 0.40655 0.0
C236 C 0.73557 0.20465 0.35976 0.0
C237 C 0.75785 0.19336 0.31465 0.0
C238 C 0.80264 0.1881 0.31801 0.0
H239 H 0.82087 0.21299 0.44186 0.0
O240 O 0.93131 0.13159 0.45167 0.0
O241 O 0.90482 0.15312 0.37645 0.0
O242 O 0.96088 0.21724 0.43179 0.0
O243 O 0.89305 0.23579 0.41083 0.0
C244 C 0.73778 0.19046 0.26583 0.0
C245 C 0.76292 0.1834 0.22115 0.0
H246 H 0.82234 0.17309 0.1435 0.0
H247 H 0.90111 0.166 0.15646 0.0
H248 H 0.74044 0.21726 0.44133 0.0
H249 H 0.7016 0.21204 0.35839 0.0
H250 H 0.70326 0.19517 0.26198 0.0
H251 H 0.74747 0.18377 0.18365 0.0
Mn252 Mn 0.39777 0.92714 0.4101 0.0
Mn253 Mn 0.3564 0.8363 0.36002 0.0
C254 C 0.41821 0.86114 0.44572 0.0
C255 C 0.45597 0.97393 0.41944 0.0
C256 C 0.31047 0.8876 0.44175 0.0
O257 O 0.36743 0.95114 0.34422 0.0
O258 O 0.33765 0.88821 0.32131 0.0
C259 C 0.41471 0.84569 0.27017 0.0
N260 N 0.39788 0.82078 0.30858 0.0
C261 C 0.44453 0.76172 0.28631 0.0
C262 C 0.46284 0.78692 0.24701 0.0
C263 C 0.44767 0.82901 0.23866 0.0
C264 C 0.4129 0.78068 0.31756 0.0
H265 H 0.40361 0.87828 0.26428 0.0
C266 C 0.34148 0.92886 0.31617 0.0
O267 O 0.41783 0.98448 0.43661 0.0
O268 O 0.45721 0.94183 0.38745 0.0
N269 N 0.36827 0.7814 0.39015 0.0
C270 C 0.34569 0.76107 0.42829 0.0
C271 C 0.3537 0.71728 0.43829 0.0
C272 C 0.38461 0.69493 0.40895 0.0
C273 C 0.4061 0.71594 0.36856 0.0
C274 C 0.39579 0.75914 0.35934 0.0
H275 H 0.32112 0.77795 0.44999 0.0
O276 O 0.42394 0.89703 0.46955 0.0
O277 O 0.40263 0.86465 0.39865 0.0
O278 O 0.33732 0.91918 0.44247 0.0
O279 O 0.31569 0.8531 0.41473 0.0
C280 C 0.4369 0.69558 0.33665 0.0
C281 C 0.45669 0.71872 0.29606 0.0
H282 H 0.48868 0.77433 0.22312 0.0
H283 H 0.46155 0.84862 0.20828 0.0
H284 H 0.33581 0.70047 0.46784 0.0
H285 H 0.3915 0.66165 0.41751 0.0
H286 H 0.44573 0.66223 0.34316 0.0
H287 H 0.48079 0.703 0.2722 0.0
Mn288 Mn 0.43152 0.85274 0.9151 0.0
Mn289 Mn 0.35031 0.78823 0.87924 0.0
C290 C 0.36225 0.86795 0.94108 0.0
C291 C 0.47274 0.91475 0.92277 0.0
C292 C 0.4026 0.77025 0.96994 0.0
O293 O 0.45965 0.82146 0.85357 0.0
O294 O 0.40888 0.76961 0.85507 0.0
C295 C 0.35569 0.79539 0.76536 0.0
N296 N 0.33275 0.80201 0.80982 0.0
C297 C 0.26622 0.80476 0.76133 0.0
C298 C 0.28932 0.79712 0.71577 0.0
C299 C 0.33419 0.79272 0.7177 0.0
C300 C 0.28927 0.80668 0.80812 0.0
H301 H 0.38988 0.78964 0.76608 0.0
C302 C 0.44633 0.78353 0.84199 0.0
O303 O 0.48606 0.87809 0.94102 0.0
O304 O 0.44117 0.91285 0.88961 0.0
N305 N 0.29172 0.80002 0.89781 0.0
C306 C 0.27234 0.79252 0.94424 0.0
C307 C 0.22762 0.79673 0.94912 0.0
C308 C 0.20258 0.80305 0.90488 0.0
C309 C 0.22244 0.80711 0.85657 0.0
C310 C 0.26771 0.80657 0.85478 0.0
H311 H 0.29085 0.78317 0.97732 0.0
O312 O 0.39556 0.87897 0.96806 0.0
O313 O 0.36925 0.84727 0.89723 0.0
O314 O 0.43341 0.79496 0.95605 0.0
O315 O 0.36524 0.77209 0.94973 0.0
C316 C 0.19892 0.80808 0.81 0.0
C317 C 0.22082 0.8062 0.76241 0.0
H318 H 0.27268 0.7922 0.67945 0.0
H319 H 0.35183 0.78496 0.68284 0.0
H320 H 0.2123 0.79224 0.98636 0.0
H321 H 0.16815 0.80139 0.90811 0.0
H322 H 0.16394 0.80772 0.81034 0.0
H323 H 0.20235 0.80377 0.72692 0.0
Mn324 Mn 0.62352 0.43774 0.93965 0.0
Mn325 Mn 0.66249 0.34557 0.89099 0.0
C326 C 0.60778 0.37133 0.98034 0.0
C327 C 0.5617 0.48025 0.9531 0.0
C328 C 0.71482 0.40429 0.96081 0.0
O329 O 0.64615 0.45991 0.86679 0.0
O330 O 0.6701 0.39469 0.846 0.0
C331 C 0.59205 0.34266 0.81391 0.0
N332 N 0.61691 0.32223 0.84981 0.0
C333 C 0.57134 0.25954 0.8474 0.0
C334 C 0.54555 0.27965 0.80995 0.0
C335 C 0.55609 0.32134 0.79292 0.0
C336 C 0.60689 0.2823 0.86662 0.0
H337 H 0.59892 0.37542 0.80251 0.0
C338 C 0.6659 0.43427 0.83538 0.0
O339 O 0.59974 0.49427 0.96658 0.0
O340 O 0.56164 0.44712 0.92294 0.0
N341 N 0.65923 0.2939 0.92951 0.0
C342 C 0.68586 0.28098 0.9682 0.0
C343 C 0.68242 0.2391 0.98717 0.0
C344 C 0.65028 0.21137 0.96773 0.0
C345 C 0.62333 0.22546 0.92739 0.0
C346 C 0.6308 0.26655 0.90734 0.0
H347 H 0.70977 0.3024 0.9842 0.0
O348 O 0.60432 0.40727 0.00462 0.0
O349 O 0.61944 0.37485 0.93224 0.0
O350 O 0.68681 0.43461 0.96531 0.0
O351 O 0.70822 0.36953 0.93497 0.0
C352 C 0.58776 0.20185 0.9084 0.0
C353 C 0.56168 0.21893 0.8687 0.0
H354 H 0.5173 0.26359 0.79443 0.0
H355 H 0.53607 0.33728 0.76441 0.0
H356 H 0.7047 0.2291 0.01678 0.0
H357 H 0.64611 0.17988 0.98466 0.0
H358 H 0.57839 0.1718 0.92602 0.0
H359 H 0.53369 0.20098 0.85567 0.0
Mn360 Mn 0.05469 0.65056 0.89628 0.0
Mn361 Mn 0.14115 0.71193 0.87344 0.0
C362 C 0.12037 0.63314 0.93339 0.0
C363 C 0.01508 0.58672 0.89625 0.0
C364 C 0.07577 0.73632 0.94999 0.0
O365 O 0.03432 0.68104 0.82972 0.0
O366 O 0.08864 0.72935 0.83362 0.0
C367 C 0.15767 0.70024 0.76182 0.0
N368 N 0.17109 0.69486 0.81172 0.0
C369 C 0.24538 0.68973 0.78408 0.0
C370 C 0.23216 0.69617 0.73293 0.0
C371 C 0.1882 0.70101 0.72164 0.0
C372 C 0.21365 0.69018 0.82273 0.0
H373 H 0.12425 0.70654 0.75284 0.0
C374 C 0.05185 0.71683 0.81626 0.0
O375 O 0.99841 0.62262 0.9131 0.0
O376 O 0.04981 0.59055 0.86864 0.0
N377 N 0.19348 0.69913 0.90849 0.0
C378 C 0.2018 0.70254 0.95992 0.0
C379 C 0.24351 0.69529 0.97812 0.0
C380 C 0.27723 0.68783 0.94281 0.0
C381 C 0.26837 0.68714 0.88958 0.0
C382 C 0.22525 0.69129 0.87412 0.0
H383 H 0.17663 0.71057 0.98676 0.0
O384 O 0.08409 0.62521 0.95592 0.0
O385 O 0.11858 0.65395 0.88905 0.0
O386 O 0.04723 0.70927 0.93523 0.0
O387 O 0.11497 0.73374 0.9365 0.0
C388 C 0.30058 0.68398 0.8513 0.0
C389 C 0.28915 0.68637 0.79854 0.0
H390 H 0.25568 0.69973 0.70236 0.0
H391 H 0.17829 0.70752 0.68232 0.0
H392 H 0.24897 0.69677 0.01921 0.0
H393 H 0.30976 0.6838 0.95672 0.0
H394 H 0.3343 0.68143 0.86197 0.0
H395 H 0.31432 0.68652 0.76946 0.0
Mn396 Mn 0.86632 0.05539 0.938 0.0
Mn397 Mn 0.8185 0.13558 0.87294 0.0
C398 C 0.87488 0.12633 0.96572 0.0
C399 C 0.93015 0.01867 0.95821 0.0
C400 C 0.77154 0.08207 0.9528 0.0
O401 O 0.8474 0.02353 0.87024 0.0
O402 O 0.81202 0.0802 0.83676 0.0
C403 C 0.88454 0.13092 0.79044 0.0
N404 N 0.862 0.15463 0.82575 0.0
C405 C 0.90761 0.21621 0.81165 0.0
C406 C 0.93163 0.19225 0.77573 0.0
C407 C 0.91971 0.14959 0.76458 0.0
C408 C 0.87303 0.19574 0.83639 0.0
H409 H 0.87651 0.09766 0.78301 0.0
C410 C 0.82258 0.0406 0.83596 0.0
O411 O 0.89278 0.0039 0.97316 0.0
O412 O 0.92911 0.04913 0.92425 0.0
N413 N 0.82102 0.19215 0.90133 0.0
C414 C 0.79506 0.21019 0.93794 0.0
C415 C 0.80104 0.25361 0.95129 0.0
C416 C 0.83272 0.27807 0.92562 0.0
C417 C 0.85833 0.25902 0.88757 0.0
C418 C 0.85039 0.21597 0.87524 0.0
H419 H 0.77046 0.19136 0.95708 0.0
O420 O 0.88139 0.09457 0.99671 0.0
O421 O 0.86422 0.11584 0.91848 0.0
O422 O 0.8024 0.05543 0.96167 0.0
O423 O 0.77501 0.11534 0.92329 0.0
C424 C 0.89216 0.28085 0.86235 0.0
C425 C 0.9176 0.25899 0.82552 0.0
H426 H 0.95967 0.20598 0.75702 0.0
H427 H 0.93814 0.13087 0.73693 0.0
H428 H 0.78168 0.26785 0.98161 0.0
H429 H 0.83746 0.31156 0.93455 0.0
H430 H 0.89985 0.31391 0.8723 0.0
H431 H 0.94532 0.27514 0.80917 0.0
Mn432 Mn 0.4509 0.6136 0.5908 0.0
Mn433 Mn 0.36576 0.66549 0.64192 0.0
C434 C 0.38264 0.59999 0.5562 0.0
C435 C 0.49059 0.55083 0.58004 0.0
C436 C 0.42438 0.70597 0.56225 0.0
O437 O 0.47794 0.63822 0.6578 0.0
O438 O 0.41839 0.67345 0.68323 0.0
C439 C 0.36077 0.60711 0.7323 0.0
N440 N 0.34129 0.62695 0.69149 0.0
C441 C 0.27421 0.59074 0.70862 0.0
C442 C 0.29356 0.56968 0.7506 0.0
C443 C 0.33697 0.57813 0.76276 0.0
C444 C 0.29963 0.61912 0.67964 0.0
H445 H 0.39431 0.61298 0.74115 0.0
C446 C 0.45814 0.66413 0.68818 0.0
O447 O 0.50556 0.58775 0.56409 0.0
O448 O 0.45832 0.55252 0.61176 0.0
N449 N 0.3114 0.66327 0.60826 0.0
C450 C 0.29715 0.68921 0.56951 0.0
C451 C 0.25384 0.68712 0.55442 0.0
C452 C 0.22574 0.65845 0.57934 0.0
C453 C 0.24031 0.63445 0.62183 0.0
C454 C 0.28348 0.63934 0.63636 0.0
H455 H 0.31834 0.71249 0.55184 0.0
O456 O 0.41774 0.59268 0.53129 0.0
O457 O 0.38799 0.61529 0.6033 0.0
O458 O 0.45133 0.67475 0.55894 0.0
O459 O 0.39032 0.70528 0.59039 0.0
C460 C 0.21407 0.60584 0.65025 0.0
C461 C 0.23102 0.58395 0.69357 0.0
H462 H 0.27556 0.5465 0.77324 0.0
H463 H 0.35214 0.56199 0.79514 0.0
H464 H 0.24199 0.70826 0.5246 0.0
H465 H 0.19305 0.65592 0.56602 0.0
H466 H 0.18106 0.59987 0.63885 0.0
H467 H 0.2106 0.56193 0.71499 0.0
Mn468 Mn 0.85265 0.45888 0.58343 0.0
Mn469 Mn 0.82388 0.36588 0.63596 0.0
C470 C 0.88422 0.39548 0.54848 0.0
C471 C 0.90595 0.51051 0.58069 0.0
C472 C 0.76844 0.41802 0.55853 0.0
O473 O 0.81263 0.47668 0.64642 0.0
O474 O 0.82472 0.41486 0.68503 0.0
C475 C 0.89912 0.35821 0.70574 0.0
N476 N 0.87092 0.33969 0.67186 0.0
C477 C 0.91109 0.27337 0.67186 0.0
C478 C 0.94087 0.29197 0.70609 0.0
C479 C 0.9347 0.33445 0.72342 0.0
C480 C 0.87665 0.29894 0.65483 0.0
H481 H 0.89526 0.39132 0.71789 0.0
C482 C 0.80335 0.44965 0.68231 0.0
O483 O 0.86802 0.51836 0.56089 0.0
O484 O 0.9075 0.47947 0.61407 0.0
N485 N 0.82364 0.31535 0.59407 0.0
C486 C 0.79697 0.30521 0.55405 0.0
C487 C 0.79897 0.26393 0.53236 0.0
C488 C 0.82804 0.23349 0.55187 0.0
C489 C 0.85511 0.24446 0.59313 0.0
C490 C 0.85081 0.28571 0.61443 0.0
H491 H 0.77387 0.32809 0.53926 0.0
O492 O 0.88769 0.43234 0.5264 0.0
O493 O 0.86431 0.39703 0.59282 0.0
O494 O 0.79711 0.445 0.54386 0.0
O495 O 0.77443 0.3911 0.59579 0.0
C496 C 0.8872 0.21675 0.6127 0.0
C497 C 0.91591 0.2316 0.65113 0.0
H498 H 0.96919 0.27433 0.71844 0.0
H499 H 0.95772 0.34905 0.74966 0.0
H500 H 0.77801 0.25554 0.5008 0.0
H501 H 0.82942 0.20203 0.53451 0.0
H502 H 0.8914 0.18471 0.5969 0.0
H503 H 0.9422 0.21102 0.66342 0.0
Mn504 Mn 0.07403 0.88183 0.56412 0.0
Mn505 Mn 0.15268 0.83592 0.63706 0.0
C506 C 0.1458 0.89485 0.54513 0.0
C507 C 0.03351 0.94286 0.54248 0.0
C508 C 0.1051 0.78814 0.55205 0.0
O509 O 0.0391 0.85845 0.62638 0.0
O510 O 0.09565 0.83081 0.67038 0.0
C511 C 0.14967 0.89832 0.72385 0.0
N512 N 0.17191 0.87918 0.68455 0.0
C513 C 0.23617 0.91929 0.7052 0.0
C514 C 0.21389 0.93964 0.74572 0.0
C515 C 0.17048 0.92902 0.75515 0.0
C516 C 0.21366 0.88917 0.67514 0.0
H517 H 0.11638 0.89005 0.73137 0.0
C518 C 0.05527 0.83752 0.6646 0.0
O519 O 0.02283 0.90489 0.52506 0.0
O520 O 0.0619 0.94342 0.57923 0.0
N521 N 0.21017 0.8369 0.61062 0.0
C522 C 0.2292 0.80774 0.57833 0.0
C523 C 0.27306 0.81235 0.56589 0.0
C524 C 0.29716 0.84576 0.5885 0.0
C525 C 0.27794 0.87257 0.62574 0.0
C526 C 0.23398 0.86662 0.63613 0.0
H527 H 0.2107 0.78185 0.56122 0.0
O528 O 0.11584 0.90206 0.51166 0.0
O529 O 0.13304 0.88121 0.59033 0.0
O530 O 0.07992 0.81884 0.53786 0.0
O531 O 0.13402 0.79173 0.58733 0.0
C532 C 0.30091 0.90376 0.65433 0.0
C533 C 0.28006 0.92704 0.69414 0.0
H534 H 0.22991 0.96312 0.77016 0.0
H535 H 0.15318 0.94431 0.78664 0.0
H536 H 0.28811 0.79054 0.5386 0.0
H537 H 0.3305 0.84995 0.57759 0.0
H538 H 0.33482 0.90946 0.64683 0.0
H539 H 0.29827 0.95031 0.71658 0.0
Mn540 Mn 0.66186 0.04056 0.56805 0.0
Mn541 Mn 0.69714 0.13107 0.6272 0.0
C542 C 0.63551 0.10654 0.54103 0.0
C543 C 0.608 0.99019 0.55295 0.0
C544 C 0.74486 0.0892 0.53847 0.0
O545 O 0.6936 0.01516 0.63214 0.0
O546 O 0.71656 0.07849 0.66424 0.0
C547 C 0.63992 0.11895 0.71784 0.0
N548 N 0.65548 0.14456 0.67932 0.0
C549 C 0.60638 0.20161 0.70194 0.0
C550 C 0.58976 0.17585 0.74179 0.0
C551 C 0.6067 0.1344 0.74992 0.0
C552 C 0.63941 0.18446 0.67125 0.0
H553 H 0.65221 0.08673 0.7234 0.0
C554 C 0.71519 0.03738 0.66516 0.0
O555 O 0.64701 0.98396 0.53566 0.0
O556 O 0.60407 0.01895 0.5891 0.0
N557 N 0.68308 0.18562 0.59799 0.0
C558 C 0.7017 0.2056 0.5567 0.0
C559 C 0.68951 0.24789 0.54453 0.0
C560 C 0.65882 0.26924 0.57498 0.0
C561 C 0.64092 0.2485 0.61805 0.0
C562 C 0.65519 0.20676 0.62925 0.0
H563 H 0.72553 0.18935 0.53319 0.0
O564 O 0.63216 0.07233 0.51327 0.0
O565 O 0.65224 0.10118 0.58726 0.0
O566 O 0.72053 0.05593 0.53338 0.0
O567 O 0.73899 0.11867 0.57248 0.0
C568 C 0.60821 0.26676 0.6489 0.0
C569 C 0.59044 0.243 0.6902 0.0
H570 H 0.56342 0.18722 0.76566 0.0
H571 H 0.59368 0.11416 0.78024 0.0
H572 H 0.70341 0.264 0.51165 0.0
H573 H 0.64859 0.30106 0.56405 0.0
H574 H 0.5955 0.29844 0.64025 0.0
H575 H 0.56393 0.25656 0.71187 0.0
C576 C 0.56094 0.26061 0.01084 0.0
C577 C 0.58346 0.24934 0.05622 0.0
C578 C 0.56807 0.30071 0.98665 0.0
C579 C 0.59759 0.33056 0.00743 0.0
H580 H 0.53976 0.23751 0.99227 0.0
H581 H 0.55154 0.30779 0.95069 0.0
S582 S 0.64557 0.32514 0.13883 0.0
N583 N 0.62371 0.27723 0.12988 0.0
N584 N 0.63651 0.35227 0.08488 0.0
C585 C 0.61403 0.32254 0.05715 0.0
C586 C 0.60721 0.28187 0.0814 0.0
C587 C 0.15991 0.61651 0.0139 0.0
C588 C 0.1598 0.61683 0.95939 0.0
C589 C 0.19622 0.60375 0.04177 0.0
C590 C 0.234 0.59011 0.01658 0.0
H591 H 0.13225 0.62817 0.03548 0.0
H592 H 0.19559 0.60701 0.0836 0.0
S593 S 0.24756 0.57577 0.87524 0.0
N594 N 0.19801 0.59498 0.88135 0.0
N595 N 0.26768 0.57233 0.93442 0.0
C596 C 0.23343 0.58658 0.96234 0.0
C597 C 0.19591 0.59953 0.93356 0.0
C598 C 0.85906 0.18402 0.02912 0.0
C599 C 0.88212 0.17045 0.98538 0.0
C600 C 0.86692 0.22399 0.05244 0.0
C601 C 0.90005 0.25142 0.0347 0.0
H602 H 0.83486 0.16323 0.04564 0.0
H603 H 0.84701 0.23303 0.08517 0.0
S604 S 0.97762 0.22491 0.92933 0.0
N605 N 0.94396 0.18359 0.93012 0.0
N606 N 0.96035 0.25856 0.97447 0.0
C607 C 0.92555 0.23671 0.9928 0.0
C608 C 0.91656 0.19613 0.96836 0.0
C609 C 0.31823 0.86177 0.01949 0.0
C610 C 0.32033 0.87309 0.96687 0.0
C611 C 0.28016 0.86603 0.04759 0.0
C612 C 0.24324 0.88406 0.02516 0.0
H613 H 0.34628 0.84869 0.03901 0.0
H614 H 0.27987 0.85602 0.08775 0.0
S615 S 0.2331 0.92411 0.89039 0.0
N616 N 0.28328 0.90608 0.894 0.0
N617 N 0.21135 0.91616 0.94812 0.0
C618 C 0.24527 0.89806 0.97333 0.0
C619 C 0.28406 0.89235 0.9439 0.0
C620 C 0.5851 0.21641 0.51402 0.0
C621 C 0.59782 0.2233 0.46237 0.0
C622 C 0.59679 0.17819 0.53999 0.0
C623 C 0.62333 0.14738 0.51578 0.0
H624 H 0.5675 0.2411 0.53489 0.0
H625 H 0.58557 0.17302 0.57919 0.0
S626 S 0.64666 0.142 0.37471 0.0
N627 N 0.62376 0.18951 0.38337 0.0
N628 N 0.65024 0.12071 0.43296 0.0
C629 C 0.63137 0.15195 0.46234 0.0
C630 C 0.61769 0.18936 0.43557 0.0
C631 C 0.30527 0.57168 0.55788 0.0
C632 C 0.34158 0.5865 0.53046 0.0
C633 C 0.26561 0.56403 0.53233 0.0
C634 C 0.26285 0.56708 0.47813 0.0
H635 H 0.30751 0.56603 0.59896 0.0
H636 H 0.237 0.55719 0.55496 0.0
S637 S 0.35547 0.5725 0.38807 0.0
N638 N 0.37604 0.58415 0.4453 0.0
N639 N 0.30353 0.5644 0.39834 0.0
C640 C 0.30127 0.57104 0.45028 0.0
C641 C 0.34047 0.58146 0.47601 0.0
C642 C 0.92279 0.32325 0.54529 0.0
C643 C 0.90046 0.35691 0.52045 0.0
C644 C 0.93546 0.28587 0.51785 0.0
C645 C 0.92908 0.28315 0.46409 0.0
H646 H 0.93055 0.32594 0.58583 0.0
H647 H 0.94867 0.25871 0.53884 0.0
S648 S 0.89174 0.3708 0.37768 0.0
N649 N 0.88452 0.38981 0.43682 0.0
N650 N 0.91171 0.32199 0.38538 0.0
C651 C 0.91401 0.31977 0.43796 0.0
C652 C 0.89922 0.35633 0.46589 0.0
C653 C 0.19824 0.86132 0.48839 0.0
C654 C 0.18981 0.8928 0.52553 0.0
C655 C 0.2374 0.8602 0.46212 0.0
C656 C 0.26977 0.89097 0.47158 0.0
H657 H 0.17413 0.83696 0.48062 0.0
H658 H 0.24227 0.83498 0.43388 0.0
S659 S 0.26106 0.98332 0.5629 0.0
N660 N 0.21446 0.95779 0.56869 0.0
N661 N 0.2895 0.95577 0.51991 0.0
C662 C 0.2612 0.92378 0.50815 0.0
C663 C 0.22075 0.9248 0.53489 0.0
C664 C 0.39828 0.69262 0.97184 0.0
C665 C 0.41128 0.73005 0.99762 0.0
C666 C 0.38818 0.65568 0.99904 0.0
C667 C 0.39186 0.65392 0.05336 0.0
H668 H 0.39142 0.69317 0.93066 0.0
H669 H 0.37482 0.62902 0.97704 0.0
S670 S 0.43879 0.73888 0.13653 0.0
N671 N 0.43625 0.76135 0.07856 0.0
N672 N 0.42047 0.68907 0.13027 0.0
C673 C 0.41154 0.68882 0.07887 0.0
C674 C 0.42062 0.72768 0.05078 0.0
C675 C 0.78368 0.37048 0.98746 0.0
C676 C 0.75722 0.40732 0.98756 0.0
C677 C 0.82359 0.36998 0.01191 0.0
C678 C 0.83911 0.40598 0.03806 0.0
H679 H 0.77352 0.3413 0.96841 0.0
H680 H 0.84255 0.34077 0.01128 0.0
S681 S 0.78607 0.5127 0.04659 0.0
N682 N 0.75114 0.48248 0.01441 0.0
N683 N 0.8279 0.48137 0.05947 0.0
C684 C 0.8144 0.44392 0.03753 0.0
C685 C 0.77289 0.44451 0.01285 0.0
C686 C 0.04549 0.78006 0.02432 0.0
C687 C 0.06478 0.77702 0.97617 0.0
C688 C 0.05224 0.81779 0.05288 0.0
C689 C 0.08207 0.84902 0.03552 0.0
H690 H 0.02747 0.75338 0.04046 0.0
H691 H 0.03662 0.82162 0.09006 0.0
S692 S 0.11054 0.87089 0.88381 0.0
N693 N 0.09001 0.8242 0.90529 0.0
N694 N 0.09229 0.83711 0.93215 0.0
C695 C 0.09656 0.85324 0.9835 0.0
C696 C 0.08409 0.81802 0.95409 0.0
C697 C 0.68239 0.06057 0.05182 0.0
C698 C 0.64794 0.08324 0.02893 0.0
C699 C 0.72253 0.05654 0.02587 0.0
C700 C 0.72849 0.07461 0.97627 0.0
H701 H 0.67867 0.04698 0.09008 0.0
H702 H 0.74946 0.04181 0.04588 0.0
S703 S 0.64105 0.10827 0.88779 0.0
N704 N 0.61757 0.10311 0.9448 0.0
N705 N 0.6923 0.09717 0.89786 0.0
C706 C 0.69179 0.08806 0.94941 0.0
C707 C 0.65148 0.09159 0.97517 0.0
C708 C 0.44909 0.74704 0.48338 0.0
C709 C 0.4318 0.74597 0.53283 0.0
C710 C 0.44732 0.78569 0.45606 0.0
C711 C 0.42518 0.82155 0.47657 0.0
H712 H 0.46224 0.71832 0.46545 0.0
H713 H 0.46101 0.7872 0.41755 0.0
S714 S 0.40946 0.84399 0.63119 0.0
N715 N 0.41789 0.79465 0.60667 0.0
N716 N 0.41704 0.80872 0.58022 0.0
C717 C 0.4141 0.827 0.52983 0.0
C718 C 0.42033 0.78897 0.5573 0.0
C719 C 0.72228 0.42401 0.47733 0.0
C720 C 0.72642 0.41549 0.53074 0.0
C721 C 0.68397 0.41316 0.45029 0.0
C722 C 0.65046 0.39033 0.47469 0.0
H723 H 0.7488 0.4385 0.45627 0.0
H724 H 0.6801 0.42362 0.4108 0.0
S725 S 0.63702 0.38467 0.61826 0.0
N726 N 0.68699 0.40129 0.60961 0.0
N727 N 0.61774 0.37707 0.55956 0.0
C728 C 0.65203 0.38861 0.52959 0.0
C729 C 0.68963 0.40153 0.55711 0.0
C730 C 0.09463 0.69626 0.45454 0.0
C731 C 0.10961 0.6612 0.48387 0.0
C732 C 0.09149 0.73795 0.47633 0.0
C733 C 0.10049 0.74471 0.52909 0.0
H734 H 0.08448 0.69124 0.41511 0.0
H735 H 0.08283 0.76487 0.45181 0.0
S736 S 0.11172 0.65927 0.62811 0.0
N737 N 0.11387 0.63348 0.57228 0.0
N738 N 0.10731 0.71068 0.61312 0.0
C739 C 0.10657 0.70845 0.5605 0.0
C740 C 0.11044 0.66674 0.53819 0.0
C741 C 0.82012 0.112 0.52993 0.0
C742 C 0.78347 0.09513 0.50565 0.0
C743 C 0.85523 0.12624 0.50147 0.0
C744 C 0.85618 0.12431 0.44697 0.0
H745 H 0.8213 0.11553 0.57172 0.0
H746 H 0.88207 0.13957 0.52309 0.0
S747 S 0.7702 0.0773 0.36434 0.0
N748 N 0.75037 0.07442 0.42376 0.0
N749 N 0.81897 0.09866 0.36979 0.0
C750 C 0.82078 0.10497 0.42176 0.0
C751 C 0.78387 0.09101 0.45121 0.0
C752 C 0.49765 0.95017 0.00446 0.0
C753 C 0.47948 0.95455 0.95471 0.0
C754 C 0.49746 0.98409 0.04034 0.0
C755 C 0.48006 0.02486 0.02831 0.0
H756 H 0.51131 0.91973 0.0168 0.0
H757 H 0.51238 0.97834 0.07765 0.0
S758 S 0.42858 0.05412 0.90321 0.0
N759 N 0.44263 0.00312 0.89549 0.0
N760 N 0.44412 0.06769 0.96226 0.0
C761 C 0.46174 0.03001 0.97865 0.0
C762 C 0.46121 0.99489 0.9421 0.0
C763 C 0.48903 0.50858 0.06833 0.0
C764 C 0.44879 0.49017 0.0548 0.0
C765 C 0.52467 0.50801 0.0341 0.0
C766 C 0.52177 0.48936 0.98435 0.0
H767 H 0.493 0.52421 0.10558 0.0
H768 H 0.55506 0.52133 0.04737 0.0
S769 S 0.42375 0.43781 0.92856 0.0
N770 N 0.40866 0.45298 0.9871 0.0
N771 N 0.47465 0.45281 0.92304 0.0
C772 C 0.48161 0.47135 0.97008 0.0
C773 C 0.44559 0.47137 0.0051 0.0
C774 C 0.98691 0.54774 0.97412 0.0
C775 C 0.00752 0.54569 0.92556 0.0
C776 C 0.98735 0.51279 0.00858 0.0
C777 C 0.00769 0.47334 0.99621 0.0
H778 H 0.9715 0.57726 0.98681 0.0
H779 H 0.97072 0.51681 0.04518 0.0
S780 S 0.06514 0.44996 0.87313 0.0
N781 N 0.04876 0.50035 0.86658 0.0
N782 N 0.04801 0.43406 0.93063 0.0
C783 C 0.02772 0.47032 0.94733 0.0
C784 C 0.02791 0.50643 0.9123 0.0
C785 C 0.00328 0.00064 0.07495 0.0
C786 C 0.04424 0.0151 0.05805 0.0
C787 C 0.96733 -0.00069 0.0416 0.0
C788 C 0.97029 0.01272 0.98967 0.0
H789 H 0.99909 0.98882 0.11409 0.0
H790 H 0.93671 0.98849 0.05716 0.0
S791 S 0.06912 0.05492 0.92564 0.0
N792 N 0.08483 0.04413 0.98534 0.0
N793 N 0.01743 0.0421 0.92316 0.0
C794 C 0.01069 0.02809 0.97237 0.0
C795 C 0.04741 0.02938 0.00634 0.0
C796 C 0.50467 0.51623 0.49421 0.0
C797 C 0.49513 0.5115 0.5472 0.0
C798 C 0.50009 0.48181 0.45929 0.0
C799 C 0.48633 0.4406 0.47553 0.0
H800 H 0.5145 0.54724 0.47897 0.0
H801 H 0.50866 0.48742 0.41917 0.0
S802 S 0.45722 0.41098 0.61052 0.0
N803 N 0.47049 0.46247 0.61429 0.0
N804 N 0.46316 0.39736 0.54906 0.0
C805 C 0.4764 0.43543 0.52848 0.0
C806 C 0.48069 0.47078 0.56409 0.0
C807 C 0.02259 0.49842 0.53635 0.0
C808 C 0.0207 0.50734 0.48294 0.0
C809 C 0.98616 0.50332 0.56849 0.0
C810 C 0.94593 0.51735 0.54891 0.0
H811 H 0.05277 0.48855 0.55391 0.0
H812 H 0.98931 0.49483 0.60901 0.0
S813 S 0.92367 0.54455 0.41117 0.0
N814 N 0.97517 0.53087 0.41175 0.0
N815 N 0.90695 0.53992 0.47162 0.0
C816 C 0.9438 0.52682 0.49549 0.0
C817 C 0.98091 0.52166 0.46276 0.0
C818 C 0.00681 0.98076 0.46209 0.0
C819 C 0.02507 0.98312 0.51203 0.0
C820 C 0.00517 0.01704 0.42927 0.0
C821 C 0.022 0.05743 0.44456 0.0
H822 H 0.99428 0.95042 0.44768 0.0
H823 H 0.98984 0.01345 0.3918 0.0
S824 S 0.07316 0.08126 0.57171 0.0
N825 N 0.06005 0.0298 0.57525 0.0
N826 N 0.05752 0.09725 0.51374 0.0
C827 C 0.04061 0.06015 0.49431 0.0
C828 C 0.04185 0.02337 0.52793 0.0
C829 C 0.5279 0.99308 0.53687 0.0
C830 C 0.56948 0.98153 0.51921 0.0
C831 C 0.49195 0.99389 0.50345 0.0
C832 C 0.49569 0.98323 0.45054 0.0
H833 H 0.52306 0.00226 0.57696 0.0
H834 H 0.46067 0.00159 0.5198 0.0
S835 S 0.59728 0.9529 0.38325 0.0
N836 N 0.61212 0.96066 0.44398 0.0
N837 N 0.54477 0.96197 0.3817 0.0
C838 C 0.53707 0.97212 0.4321 0.0
C839 C 0.57373 0.97115 0.46617 0.0
C840 C 0.51085 0.27158 0.23701 0.0
C841 C 0.51413 0.26595 0.29091 0.0
C842 C 0.5085 0.23588 0.20319 0.0
C843 C 0.51063 0.19314 0.22181 0.0
H844 H 0.51441 0.30351 0.22057 0.0
H845 H 0.51059 0.24184 0.1619 0.0
S846 S 0.5157 0.16112 0.35981 0.0
N847 N 0.51505 0.21437 0.36149 0.0
N848 N 0.51278 0.14766 0.29795 0.0
C849 C 0.51036 0.18725 0.27572 0.0
C850 C 0.51166 0.22355 0.31019 0.0
C851 C 0.23564 0.4947 0.29793 0.0
C852 C 0.19125 0.50378 0.29127 0.0
C853 C 0.26554 0.4999 0.25705 0.0
C854 C 0.25206 0.51446 0.20803 0.0
H855 H 0.24825 0.4898 0.33665 0.0
H856 H 0.2997 0.49773 0.26575 0.0
S857 S 0.13866 0.53165 0.16684 0.0
N858 N 0.13489 0.51889 0.22879 0.0
N859 N 0.19063 0.52956 0.15263 0.0
C860 C 0.20734 0.51751 0.19909 0.0
C861 C 0.17703 0.51154 0.24041 0.0
C862 C 0.00631 0.2652 0.18483 0.0
C863 C 0.00475 0.30955 0.19707 0.0
C864 C 0.00591 0.23337 0.22392 0.0
C865 C 0.00404 0.24476 0.2767 0.0
H866 H 0.00165 0.25494 0.14506 0.0
H867 H 0.00155 0.20003 0.21253 0.0
S868 S 0.00984 0.35588 0.32926 0.0
N869 N 0.00958 0.36261 0.26578 0.0
N870 N 0.00858 0.30324 0.33887 0.0
C871 C 0.00871 0.28868 0.2892 0.0
C872 C 0.00922 0.32095 0.24951 0.0
C873 C 0.26679 0.95751 0.30132 0.0
C874 C 0.30847 0.94912 0.28126 0.0
C875 C 0.22984 0.95976 0.26896 0.0
C876 C 0.2329 0.95429 0.21487 0.0
H877 H 0.26205 0.95826 0.34291 0.0
H878 H 0.1983 0.96224 0.28687 0.0
S879 S 0.33433 0.93331 0.14234 0.0
N880 N 0.35018 0.93662 0.20333 0.0
N881 N 0.28167 0.94198 0.14279 0.0
C882 C 0.27471 0.9486 0.19415 0.0
C883 C 0.31213 0.94574 0.22711 0.0
C884 C 0.48151 0.76576 0.75718 0.0
C885 C 0.47149 0.75371 0.80825 0.0
C886 C 0.48593 0.73436 0.71791 0.0
C887 C 0.48045 0.68997 0.72834 0.0
H888 H 0.48036 0.79943 0.74615 0.0
H889 H 0.48766 0.74529 0.67809 0.0
S890 S 0.46363 0.64174 0.85775 0.0
N891 N 0.46447 0.69422 0.8687 0.0
N892 N 0.47183 0.63579 0.79491 0.0
C893 C 0.47647 0.67759 0.78029 0.0
C894 C 0.47217 0.70936 0.82022 0.0
C895 C 0.75034 0.48762 0.74559 0.0
C896 C 0.76258 0.45193 0.71453 0.0
C897 C 0.71562 0.48465 0.7821 0.0
C898 C 0.69037 0.44672 0.78662 0.0
H899 H 0.76965 0.51671 0.74465 0.0
H900 H 0.71056 0.51094 0.80905 0.0
S901 S 0.7075 0.34515 0.71197 0.0
N902 N 0.74684 0.37724 0.69332 0.0
N903 N 0.67776 0.37498 0.75079 0.0
C904 C 0.6998 0.41304 0.7511 0.0
C905 C 0.73696 0.41456 0.71848 0.0
C906 C 0.03213 0.82392 0.75417 0.0
C907 C 0.02825 0.81297 0.70159 0.0
C908 C 0.03281 0.79196 0.79261 0.0
C909 C 0.03055 0.74774 0.78014 0.0
H910 H 0.04035 0.85666 0.76511 0.0
H911 H 0.03977 0.80168 0.83189 0.0
S912 S 0.0058 0.70342 0.6503 0.0
N913 N 0.01102 0.75584 0.64052 0.0
N914 N 0.01362 0.69565 0.71296 0.0
C915 C 0.01977 0.7369 0.72897 0.0
C916 C 0.01827 0.76967 0.68969 0.0
C917 C 0.78856 0.02086 0.69976 0.0
C918 C 0.74337 0.01695 0.70529 0.0
C919 C 0.81655 0.02026 0.74301 0.0
C920 C 0.80064 0.01586 0.79387 0.0
H921 H 0.802 0.02908 0.6623 0.0
H922 H 0.85016 0.02858 0.73702 0.0
S923 S 0.68559 -0.00044 0.82913 0.0
N924 N 0.68469 0.00425 0.76538 0.0
N925 N 0.7369 0.00301 0.84626 0.0
C926 C 0.75605 0.00743 0.79921 0.0
C927 C 0.72753 0.00821 0.75519 0.0
loop_
_geom_bond_atom_site_label_1
_geom_bond_atom_site_label_2
_geom_bond_distance
_geom_bond_site_symmetry_2
_ccdc_geom_bond_type
Mn0 O5 2.095 . S
Mn0 O15 2.162 . S
Mn0 O16 2.297 . S
Mn0 O24 2.385 1_554 S
Mn0 O25 2.209 . S
Mn0 O26 2.101 . S
Mn1 O6 2.121 . S
Mn1 N8 2.257 . S
Mn1 N17 2.282 . S
Mn1 O25 2.215 . S
Mn1 O27 2.117 . S
C2 O24 1.234 1_554 S
C2 O25 1.283 . S
C3 O15 1.281 . S
C3 O16 1.236 . S
C4 O26 1.243 . S
C4 O27 1.264 . S
O5 Mn0 2.095 . S
O5 C14 1.250 . S
O6 Mn1 2.121 . S
O6 C14 1.258 . S
C7 N8 1.326 . S
C7 C11 1.460 . S
C7 H13 0.929 . S
N8 Mn1 2.257 . S
N8 C7 1.326 . S
N8 C12 1.362 . S
C9 C10 1.258 . S
C9 C12 1.431 . S
C9 C29 1.449 . S
C10 C9 1.258 . S
C10 C11 1.477 . S
C10 H30 0.931 . S
C11 C7 1.460 . S
C11 C10 1.477 . S
C11 H31 0.930 . S
C12 N8 1.362 . S
C12 C9 1.431 . S
C12 C22 1.476 . S
H13 C7 0.929 . S
C14 O5 1.250 . S
C14 O6 1.258 . S
O15 Mn0 2.162 . S
O15 C3 1.281 . S
O16 Mn0 2.297 . S
O16 C3 1.236 . S
N17 Mn1 2.282 . S
N17 C18 1.328 1_554 S
N17 C22 1.318 . S
C18 N17 1.328 1_556 S
C18 C19 1.457 . S
C18 H23 0.929 . S
C19 C18 1.457 . S
C19 C20 1.291 . S
C19 H32 0.931 . S
C20 C19 1.291 . S
C20 C21 1.373 1_556 S
C20 H33 0.929 . S
C21 C20 1.373 1_554 S
C21 C22 1.396 . S
C21 C28 1.403 . S
C22 C12 1.476 . S
C22 N17 1.318 . S
C22 C21 1.396 . S
H23 C18 0.929 . S
O24 Mn0 2.385 1_556 S
O24 C2 1.234 1_556 S
O25 Mn0 2.209 . S
O25 Mn1 2.215 . S
O25 C2 1.283 . S
O26 Mn0 2.101 . S
O26 C4 1.243 . S
O27 Mn1 2.117 . S
O27 C4 1.264 . S
C28 C21 1.403 . S
C28 C29 1.399 . S
C28 H34 0.929 . S
C29 C9 1.449 . S
C29 C28 1.399 . S
C29 H35 0.930 . S
H30 C10 0.931 . S
H31 C11 0.930 . S
H32 C19 0.931 . S
H33 C20 0.929 . S
H34 C28 0.929 . S
H35 C29 0.930 . S
Mn36 O41 2.095 . S
Mn36 O51 2.162 . S
Mn36 O52 2.297 . S
Mn36 O60 2.385 1_554 S
Mn36 O61 2.209 . S
Mn36 O62 2.101 . S
Mn37 O42 2.121 . S
Mn37 N44 2.257 . S
Mn37 N53 2.282 . S
Mn37 O61 2.215 . S
Mn37 O63 2.117 . S
C38 O60 1.234 1_554 S
C38 O61 1.283 . S
C39 O51 1.281 . S
C39 O52 1.236 . S
C40 O62 1.243 . S
C40 O63 1.264 . S
O41 Mn36 2.095 . S
O41 C50 1.250 . S
O42 Mn37 2.121 . S
O42 C50 1.258 . S
C43 N44 1.326 . S
C43 C47 1.460 . S
C43 H49 0.929 . S
N44 Mn37 2.257 . S
N44 C43 1.326 . S
N44 C48 1.362 . S
C45 C46 1.258 . S
C45 C48 1.431 . S
C45 C65 1.449 . S
C46 C45 1.258 . S
C46 C47 1.477 . S
C46 H66 0.931 . S
C47 C43 1.460 . S
C47 C46 1.477 . S
C47 H67 0.930 . S
C48 N44 1.362 . S
C48 C45 1.431 . S
C48 C58 1.476 . S
H49 C43 0.929 . S
C50 O41 1.250 . S
C50 O42 1.258 . S
O51 Mn36 2.162 . S
O51 C39 1.281 . S
O52 Mn36 2.297 . S
O52 C39 1.236 . S
N53 Mn37 2.282 . S
N53 C54 1.328 1_554 S
N53 C58 1.318 . S
C54 N53 1.328 1_556 S
C54 C55 1.457 . S
C54 H59 0.929 . S
C55 C54 1.457 . S
C55 C56 1.291 . S
C55 H68 0.931 . S
C56 C55 1.291 . S
C56 C57 1.373 1_556 S
C56 H69 0.929 . S
C57 C56 1.373 1_554 S
C57 C58 1.396 . S
C57 C64 1.403 . S
C58 C48 1.476 . S
C58 N53 1.318 . S
C58 C57 1.396 . S
H59 C54 0.929 . S
O60 Mn36 2.385 1_556 S
O60 C38 1.234 1_556 S
O61 Mn36 2.209 . S
O61 Mn37 2.215 . S
O61 C38 1.283 . S
O62 Mn36 2.101 . S
O62 C40 1.243 . S
O63 Mn37 2.117 . S
O63 C40 1.264 . S
C64 C57 1.403 . S
C64 C65 1.399 . S
C64 H70 0.929 . S
C65 C45 1.449 . S
C65 C64 1.399 . S
C65 H71 0.930 . S
H66 C46 0.931 . S
H67 C47 0.930 . S
H68 C55 0.931 . S
H69 C56 0.929 . S
H70 C64 0.929 . S
H71 C65 0.930 . S
Mn72 O77 2.095 . S
Mn72 O87 2.162 1_655 S
Mn72 O88 2.297 . S
Mn72 O96 2.385 1_554 S
Mn72 O97 2.209 . S
Mn72 O98 2.101 . S
Mn73 O78 2.121 . S
Mn73 N80 2.257 . S
Mn73 N89 2.282 . S
Mn73 O97 2.215 . S
Mn73 O99 2.117 . S
C74 O96 1.234 1_554 S
C74 O97 1.283 . S
C75 O87 1.281 . S
C75 O88 1.236 1_455 S
C76 O98 1.243 . S
C76 O99 1.264 . S
O77 Mn72 2.095 . S
O77 C86 1.250 . S
O78 Mn73 2.121 . S
O78 C86 1.258 . S
C79 N80 1.326 . S
C79 C83 1.460 . S
C79 H85 0.929 . S
N80 Mn73 2.257 . S
N80 C79 1.326 . S
N80 C84 1.362 . S
C81 C82 1.258 . S
C81 C84 1.431 . S
C81 C101 1.449 . S
C82 C81 1.258 . S
C82 C83 1.477 . S
C82 H102 0.931 . S
C83 C79 1.460 . S
C83 C82 1.477 . S
C83 H103 0.930 . S
C84 N80 1.362 . S
C84 C81 1.431 . S
C84 C94 1.476 . S
H85 C79 0.929 . S
C86 O77 1.250 . S
C86 O78 1.258 . S
O87 Mn72 2.162 1_455 S
O87 C75 1.281 . S
O88 Mn72 2.297 . S
O88 C75 1.236 1_655 S
N89 Mn73 2.282 . S
N89 C90 1.328 1_554 S
N89 C94 1.318 . S
C90 N89 1.328 1_556 S
C90 C91 1.457 . S
C90 H95 0.929 . S
C91 C90 1.457 . S
C91 C92 1.291 . S
C91 H104 0.931 . S
C92 C91 1.291 . S
C92 C93 1.373 1_556 S
C92 H105 0.929 . S
C93 C92 1.373 1_554 S
C93 C94 1.396 . S
C93 C100 1.403 . S
C94 C84 1.476 . S
C94 N89 1.318 . S
C94 C93 1.396 . S
H95 C90 0.929 . S
O96 Mn72 2.385 1_556 S
O96 C74 1.234 1_556 S
O97 Mn72 2.209 . S
O97 Mn73 2.215 . S
O97 C74 1.283 . S
O98 Mn72 2.101 . S
O98 C76 1.243 . S
O99 Mn73 2.117 . S
O99 C76 1.264 . S
C100 C93 1.403 . S
C100 C101 1.399 . S
C100 H106 0.929 . S
C101 C81 1.449 . S
C101 C100 1.399 . S
C101 H107 0.930 . S
H102 C82 0.931 . S
H103 C83 0.930 . S
H104 C91 0.931 . S
H105 C92 0.929 . S
H106 C100 0.929 . S
H107 C101 0.930 . S
Mn108 O113 2.095 . S
Mn108 O123 2.162 1_565 S
Mn108 O124 2.297 . S
Mn108 O132 2.385 1_554 S
Mn108 O133 2.209 . S
Mn108 O134 2.101 . S
Mn109 O114 2.121 . S
Mn109 N116 2.257 . S
Mn109 N125 2.282 . S
Mn109 O133 2.215 . S
Mn109 O135 2.117 . S
C110 O132 1.234 1_554 S
C110 O133 1.283 . S
C111 O123 1.281 . S
C111 O124 1.236 1_545 S
C112 O134 1.243 . S
C112 O135 1.264 . S
O113 Mn108 2.095 . S
O113 C122 1.250 . S
O114 Mn109 2.121 . S
O114 C122 1.258 . S
C115 N116 1.326 . S
C115 C119 1.460 . S
C115 H121 0.929 . S
N116 Mn109 2.257 . S
N116 C115 1.326 . S
N116 C120 1.362 . S
C117 C118 1.258 . S
C117 C120 1.431 . S
C117 C137 1.449 . S
C118 C117 1.258 . S
C118 C119 1.477 . S
C118 H138 0.931 . S
C119 C115 1.460 . S
C119 C118 1.477 . S
C119 H139 0.930 . S
C120 N116 1.362 . S
C120 C117 1.431 . S
C120 C130 1.476 . S
H121 C115 0.929 . S
C122 O113 1.250 . S
C122 O114 1.258 . S
O123 Mn108 2.162 1_545 S
O123 C111 1.281 . S
O124 Mn108 2.297 . S
O124 C111 1.236 1_565 S
N125 Mn109 2.282 . S
N125 C126 1.328 1_554 S
N125 C130 1.318 . S
C126 N125 1.328 1_556 S
C126 C127 1.457 . S
C126 H131 0.929 . S
C127 C126 1.457 . S
C127 C128 1.291 . S
C127 H140 0.931 . S
C128 C127 1.291 . S
C128 C129 1.373 1_556 S
C128 H141 0.929 . S
C129 C128 1.373 1_554 S
C129 C130 1.396 . S
C129 C136 1.403 . S
C130 C120 1.476 . S
C130 N125 1.318 . S
C130 C129 1.396 . S
H131 C126 0.929 . S
O132 Mn108 2.385 1_556 S
O132 C110 1.234 1_556 S
O133 Mn108 2.209 . S
O133 Mn109 2.215 . S
O133 C110 1.283 . S
O134 Mn108 2.101 . S
O134 C112 1.243 . S
O135 Mn109 2.117 . S
O135 C112 1.264 . S
C136 C129 1.403 . S
C136 C137 1.399 . S
C136 H142 0.929 . S
C137 C117 1.449 . S
C137 C136 1.399 . S
C137 H143 0.930 . S
H138 C118 0.931 . S
H139 C119 0.930 . S
H140 C127 0.931 . S
H141 C128 0.929 . S
H142 C136 0.929 . S
H143 C137 0.930 . S
Mn144 O149 2.095 . S
Mn144 O159 2.162 . S
Mn144 O160 2.297 . S
Mn144 O168 2.385 . S
Mn144 O169 2.209 . S
Mn144 O170 2.094 . S
Mn145 O150 2.121 . S
Mn145 N152 2.257 . S
Mn145 N161 2.282 . S
Mn145 O169 2.215 . S
Mn145 O171 2.117 . S
C146 O168 1.234 . S
C146 O169 1.283 . S
C147 O159 1.281 . S
C147 O160 1.236 . S
C148 O170 1.240 . S
C148 O171 1.264 . S
O149 Mn144 2.095 . S
O149 C158 1.250 . S
O150 Mn145 2.121 . S
O150 C158 1.258 . S
C151 N152 1.326 . S
C151 C155 1.460 . S
C151 H157 0.929 . S
N152 Mn145 2.257 . S
N152 C151 1.326 . S
N152 C156 1.362 . S
C153 C154 1.258 . S
C153 C156 1.431 . S
C153 C173 1.449 . S
C154 C153 1.258 . S
C154 C155 1.477 . S
C154 H174 0.931 . S
C155 C151 1.460 . S
C155 C154 1.477 . S
C155 H175 0.930 . S
C156 N152 1.362 . S
C156 C153 1.431 . S
C156 C166 1.476 . S
H157 C151 0.929 . S
C158 O149 1.250 . S
C158 O150 1.258 . S
O159 Mn144 2.162 . S
O159 C147 1.281 . S
O160 Mn144 2.297 . S
O160 C147 1.236 . S
N161 Mn145 2.282 . S
N161 C162 1.328 . S
N161 C166 1.318 . S
C162 N161 1.328 . S
C162 C163 1.457 . S
C162 H167 0.929 . S
C163 C162 1.457 . S
C163 C164 1.291 . S
C163 H176 0.931 . S
C164 C163 1.291 . S
C164 C165 1.373 . S
C164 H177 0.929 . S
C165 C164 1.373 . S
C165 C166 1.396 . S
C165 C172 1.403 . S
C166 C156 1.476 . S
C166 N161 1.318 . S
C166 C165 1.396 . S
H167 C162 0.929 . S
O168 Mn144 2.385 . S
O168 C146 1.234 . S
O169 Mn144 2.209 . S
O169 Mn145 2.215 . S
O169 C146 1.283 . S
O170 Mn144 2.094 . S
O170 C148 1.240 . S
O171 Mn145 2.117 . S
O171 C148 1.264 . S
C172 C165 1.403 . S
C172 C173 1.399 . S
C172 H178 0.929 . S
C173 C153 1.449 . S
C173 C172 1.399 . S
C173 H179 0.930 . S
H174 C154 0.931 . S
H175 C155 0.930 . S
H176 C163 0.931 . S
H177 C164 0.929 . S
H178 C172 0.929 . S
H179 C173 0.930 . S
Mn180 O185 2.095 . S
Mn180 O195 2.162 . S
Mn180 O196 2.297 . S
Mn180 O204 2.385 . S
Mn180 O205 2.209 . S
Mn180 O206 2.094 . S
Mn181 O186 2.121 . S
Mn181 N188 2.257 . S
Mn181 N197 2.282 . S
Mn181 O205 2.215 . S
Mn181 O207 2.117 . S
C182 O204 1.234 . S
C182 O205 1.283 . S
C183 O195 1.281 . S
C183 O196 1.236 . S
C184 O206 1.240 . S
C184 O207 1.264 . S
O185 Mn180 2.095 . S
O185 C194 1.250 . S
O186 Mn181 2.121 . S
O186 C194 1.258 . S
C187 N188 1.326 . S
C187 C191 1.460 . S
C187 H193 0.929 . S
N188 Mn181 2.257 . S
N188 C187 1.326 . S
N188 C192 1.362 . S
C189 C190 1.258 . S
C189 C192 1.431 . S
C189 C209 1.449 . S
C190 C189 1.258 . S
C190 C191 1.477 . S
C190 H210 0.931 . S
C191 C187 1.460 . S
C191 C190 1.477 . S
C191 H211 0.930 . S
C192 N188 1.362 . S
C192 C189 1.431 . S
C192 C202 1.476 . S
H193 C187 0.929 . S
C194 O185 1.250 . S
C194 O186 1.258 . S
O195 Mn180 2.162 . S
O195 C183 1.281 . S
O196 Mn180 2.297 . S
O196 C183 1.236 . S
N197 Mn181 2.282 . S
N197 C198 1.328 . S
N197 C202 1.318 . S
C198 N197 1.328 . S
C198 C199 1.457 . S
C198 H203 0.929 . S
C199 C198 1.457 . S
C199 C200 1.291 . S
C199 H212 0.931 . S
C200 C199 1.291 . S
C200 C201 1.373 . S
C200 H213 0.929 . S
C201 C200 1.373 . S
C201 C202 1.396 . S
C201 C208 1.403 . S
C202 C192 1.476 . S
C202 N197 1.318 . S
C202 C201 1.396 . S
H203 C198 0.929 . S
O204 Mn180 2.385 . S
O204 C182 1.234 . S
O205 Mn180 2.209 . S
O205 Mn181 2.215 . S
O205 C182 1.283 . S
O206 Mn180 2.094 . S
O206 C184 1.240 . S
O207 Mn181 2.117 . S
O207 C184 1.264 . S
C208 C201 1.403 . S
C208 C209 1.399 . S
C208 H214 0.929 . S
C209 C189 1.449 . S
C209 C208 1.399 . S
C209 H215 0.930 . S
H210 C190 0.931 . S
H211 C191 0.930 . S
H212 C199 0.931 . S
H213 C200 0.929 . S
H214 C208 0.929 . S
H215 C209 0.930 . S
Mn216 O221 2.095 . S
Mn216 O231 2.162 1_655 S
Mn216 O232 2.297 . S
Mn216 O240 2.385 . S
Mn216 O241 2.209 . S
Mn216 O242 2.094 . S
Mn217 O222 2.121 . S
Mn217 N224 2.257 . S
Mn217 N233 2.282 . S
Mn217 O241 2.215 . S
Mn217 O243 2.117 . S
C218 O240 1.234 . S
C218 O241 1.283 . S
C219 O231 1.281 . S
C219 O232 1.236 1_455 S
C220 O242 1.240 . S
C220 O243 1.264 . S
O221 Mn216 2.095 . S
O221 C230 1.250 . S
O222 Mn217 2.121 . S
O222 C230 1.258 . S
C223 N224 1.326 . S
C223 C227 1.460 . S
C223 H229 0.929 . S
N224 Mn217 2.257 . S
N224 C223 1.326 . S
N224 C228 1.362 . S
C225 C226 1.258 . S
C225 C228 1.431 . S
C225 C245 1.449 . S
C226 C225 1.258 . S
C226 C227 1.477 . S
C226 H246 0.931 . S
C227 C223 1.460 . S
C227 C226 1.477 . S
C227 H247 0.930 . S
C228 N224 1.362 . S
C228 C225 1.431 . S
C228 C238 1.476 . S
H229 C223 0.929 . S
C230 O221 1.250 . S
C230 O222 1.258 . S
O231 Mn216 2.162 1_455 S
O231 C219 1.281 . S
O232 Mn216 2.297 . S
O232 C219 1.236 1_655 S
N233 Mn217 2.282 . S
N233 C234 1.328 . S
N233 C238 1.318 . S
C234 N233 1.328 . S
C234 C235 1.457 . S
C234 H239 0.929 . S
C235 C234 1.457 . S
C235 C236 1.291 . S
C235 H248 0.931 . S
C236 C235 1.291 . S
C236 C237 1.373 . S
C236 H249 0.929 . S
C237 C236 1.373 . S
C237 C238 1.396 . S
C237 C244 1.403 . S
C238 C228 1.476 . S
C238 N233 1.318 . S
C238 C237 1.396 . S
H239 C234 0.929 . S
O240 Mn216 2.385 . S
O240 C218 1.234 . S
O241 Mn216 2.209 . S
O241 Mn217 2.215 . S
O241 C218 1.283 . S
O242 Mn216 2.094 . S
O242 C220 1.240 . S
O243 Mn217 2.117 . S
O243 C220 1.264 . S
C244 C237 1.403 . S
C244 C245 1.399 . S
C244 H250 0.929 . S
C245 C225 1.449 . S
C245 C244 1.399 . S
C245 H251 0.930 . S
H246 C226 0.931 . S
H247 C227 0.930 . S
H248 C235 0.931 . S
H249 C236 0.929 . S
H250 C244 0.929 . S
H251 C245 0.930 . S
Mn252 O257 2.095 . S
Mn252 O267 2.162 1_565 S
Mn252 O268 2.297 . S
Mn252 O276 2.385 . S
Mn252 O277 2.209 . S
Mn252 O278 2.094 . S
Mn253 O258 2.121 . S
Mn253 N260 2.257 . S
Mn253 N269 2.282 . S
Mn253 O277 2.215 . S
Mn253 O279 2.117 . S
C254 O276 1.234 . S
C254 O277 1.283 . S
C255 O267 1.281 . S
C255 O268 1.236 1_545 S
C256 O278 1.240 . S
C256 O279 1.264 . S
O257 Mn252 2.095 . S
O257 C266 1.250 . S
O258 Mn253 2.121 . S
O258 C266 1.258 . S
C259 N260 1.326 . S
C259 C263 1.460 . S
C259 H265 0.929 . S
N260 Mn253 2.257 . S
N260 C259 1.326 . S
N260 C264 1.362 . S
C261 C262 1.258 . S
C261 C264 1.431 . S
C261 C281 1.449 . S
C262 C261 1.258 . S
C262 C263 1.477 . S
C262 H282 0.931 . S
C263 C259 1.460 . S
C263 C262 1.477 . S
C263 H283 0.930 . S
C264 N260 1.362 . S
C264 C261 1.431 . S
C264 C274 1.476 . S
H265 C259 0.929 . S
C266 O257 1.250 . S
C266 O258 1.258 . S
O267 Mn252 2.162 1_545 S
O267 C255 1.281 . S
O268 Mn252 2.297 . S
O268 C255 1.236 1_565 S
N269 Mn253 2.282 . S
N269 C270 1.328 . S
N269 C274 1.318 . S
C270 N269 1.328 . S
C270 C271 1.457 . S
C270 H275 0.929 . S
C271 C270 1.457 . S
C271 C272 1.291 . S
C271 H284 0.931 . S
C272 C271 1.291 . S
C272 C273 1.373 . S
C272 H285 0.929 . S
C273 C272 1.373 . S
C273 C274 1.396 . S
C273 C280 1.403 . S
C274 C264 1.476 . S
C274 N269 1.318 . S
C274 C273 1.396 . S
H275 C270 0.929 . S
O276 Mn252 2.385 . S
O276 C254 1.234 . S
O277 Mn252 2.209 . S
O277 Mn253 2.215 . S
O277 C254 1.283 . S
O278 Mn252 2.094 . S
O278 C256 1.240 . S
O279 Mn253 2.117 . S
O279 C256 1.264 . S
C280 C273 1.403 . S
C280 C281 1.399 . S
C280 H286 0.929 . S
C281 C261 1.449 . S
C281 C280 1.399 . S
C281 H287 0.930 . S
H282 C262 0.931 . S
H283 C263 0.930 . S
H284 C271 0.931 . S
H285 C272 0.929 . S
H286 C280 0.929 . S
H287 C281 0.930 . S
Mn288 O293 2.095 . S
Mn288 O303 2.162 . S
Mn288 O304 2.297 . S
Mn288 O312 2.385 1_556 S
Mn288 O313 2.209 . S
Mn288 O314 2.101 . S
Mn289 O294 2.121 . S
Mn289 N296 2.257 . S
Mn289 N305 2.282 . S
Mn289 O313 2.215 . S
Mn289 O315 2.117 . S
C290 O312 1.234 1_556 S
C290 O313 1.283 . S
C291 O303 1.281 . S
C291 O304 1.236 . S
C292 O314 1.243 . S
C292 O315 1.264 . S
O293 Mn288 2.095 . S
O293 C302 1.250 . S
O294 Mn289 2.121 . S
O294 C302 1.258 . S
C295 N296 1.326 . S
C295 C299 1.460 . S
C295 H301 0.929 . S
N296 Mn289 2.257 . S
N296 C295 1.326 . S
N296 C300 1.362 . S
C297 C298 1.258 . S
C297 C300 1.431 . S
C297 C317 1.449 . S
C298 C297 1.258 . S
C298 C299 1.477 . S
C298 H318 0.931 . S
C299 C295 1.460 . S
C299 C298 1.477 . S
C299 H319 0.930 . S
C300 N296 1.362 . S
C300 C297 1.431 . S
C300 C310 1.476 . S
H301 C295 0.929 . S
C302 O293 1.250 . S
C302 O294 1.258 . S
O303 Mn288 2.162 . S
O303 C291 1.281 . S
O304 Mn288 2.297 . S
O304 C291 1.236 . S
N305 Mn289 2.282 . S
N305 C306 1.328 1_556 S
N305 C310 1.318 . S
C306 N305 1.328 1_554 S
C306 C307 1.457 . S
C306 H311 0.929 . S
C307 C306 1.457 . S
C307 C308 1.291 . S
C307 H320 0.931 . S
C308 C307 1.291 . S
C308 C309 1.373 1_554 S
C308 H321 0.929 . S
C309 C308 1.373 1_556 S
C309 C310 1.396 . S
C309 C316 1.403 . S
C310 C300 1.476 . S
C310 N305 1.318 . S
C310 C309 1.396 . S
H311 C306 0.929 . S
O312 Mn288 2.385 1_554 S
O312 C290 1.234 1_554 S
O313 Mn288 2.209 . S
O313 Mn289 2.215 . S
O313 C290 1.283 . S
O314 Mn288 2.101 . S
O314 C292 1.243 . S
O315 Mn289 2.117 . S
O315 C292 1.264 . S
C316 C309 1.403 . S
C316 C317 1.399 . S
C316 H322 0.929 . S
C317 C297 1.449 . S
C317 C316 1.399 . S
C317 H323 0.930 . S
H318 C298 0.931 . S
H319 C299 0.930 . S
H320 C307 0.931 . S
H321 C308 0.929 . S
H322 C316 0.929 . S
H323 C317 0.930 . S
Mn324 O329 2.095 . S
Mn324 O339 2.162 . S
Mn324 O340 2.297 . S
Mn324 O348 2.385 1_556 S
Mn324 O349 2.209 . S
Mn324 O350 2.101 . S
Mn325 O330 2.121 . S
Mn325 N332 2.257 . S
Mn325 N341 2.282 . S
Mn325 O349 2.215 . S
Mn325 O351 2.117 . S
C326 O348 1.234 1_556 S
C326 O349 1.283 . S
C327 O339 1.281 . S
C327 O340 1.236 . S
C328 O350 1.243 . S
C328 O351 1.264 . S
O329 Mn324 2.095 . S
O329 C338 1.250 . S
O330 Mn325 2.121 . S
O330 C338 1.258 . S
C331 N332 1.326 . S
C331 C335 1.460 . S
C331 H337 0.929 . S
N332 Mn325 2.257 . S
N332 C331 1.326 . S
N332 C336 1.362 . S
C333 C334 1.258 . S
C333 C336 1.431 . S
C333 C353 1.449 . S
C334 C333 1.258 . S
C334 C335 1.477 . S
C334 H354 0.931 . S
C335 C331 1.460 . S
C335 C334 1.477 . S
C335 H355 0.930 . S
C336 N332 1.362 . S
C336 C333 1.431 . S
C336 C346 1.476 . S
H337 C331 0.929 . S
C338 O329 1.250 . S
C338 O330 1.258 . S
O339 Mn324 2.162 . S
O339 C327 1.281 . S
O340 Mn324 2.297 . S
O340 C327 1.236 . S
N341 Mn325 2.282 . S
N341 C342 1.328 1_556 S
N341 C346 1.318 . S
C342 N341 1.328 1_554 S
C342 C343 1.457 . S
C342 H347 0.929 . S
C343 C342 1.457 . S
C343 C344 1.291 . S
C343 H356 0.931 . S
C344 C343 1.291 . S
C344 C345 1.373 1_554 S
C344 H357 0.929 . S
C345 C344 1.373 1_556 S
C345 C346 1.396 . S
C345 C352 1.403 . S
C346 C336 1.476 . S
C346 N341 1.318 . S
C346 C345 1.396 . S
H347 C342 0.929 . S
O348 Mn324 2.385 1_554 S
O348 C326 1.234 1_554 S
O349 Mn324 2.209 . S
O349 Mn325 2.215 . S
O349 C326 1.283 . S
O350 Mn324 2.101 . S
O350 C328 1.243 . S
O351 Mn325 2.117 . S
O351 C328 1.264 . S
C352 C345 1.403 . S
C352 C353 1.399 . S
C352 H358 0.929 . S
C353 C333 1.449 . S
C353 C352 1.399 . S
C353 H359 0.930 . S
H354 C334 0.931 . S
H355 C335 0.930 . S
H356 C343 0.931 . S
H357 C344 0.929 . S
H358 C352 0.929 . S
H359 C353 0.930 . S
Mn360 O365 2.095 . S
Mn360 O375 2.162 1_455 S
Mn360 O376 2.297 . S
Mn360 O384 2.385 1_556 S
Mn360 O385 2.209 . S
Mn360 O386 2.101 . S
Mn361 O366 2.121 . S
Mn361 N368 2.257 . S
Mn361 N377 2.282 . S
Mn361 O385 2.215 . S
Mn361 O387 2.117 . S
C362 O384 1.234 1_556 S
C362 O385 1.283 . S
C363 O375 1.281 . S
C363 O376 1.236 1_655 S
C364 O386 1.243 . S
C364 O387 1.264 . S
O365 Mn360 2.095 . S
O365 C374 1.250 . S
O366 Mn361 2.121 . S
O366 C374 1.258 . S
C367 N368 1.326 . S
C367 C371 1.460 . S
C367 H373 0.929 . S
N368 Mn361 2.257 . S
N368 C367 1.326 . S
N368 C372 1.362 . S
C369 C370 1.258 . S
C369 C372 1.431 . S
C369 C389 1.449 . S
C370 C369 1.258 . S
C370 C371 1.477 . S
C370 H390 0.931 . S
C371 C367 1.460 . S
C371 C370 1.477 . S
C371 H391 0.930 . S
C372 N368 1.362 . S
C372 C369 1.431 . S
C372 C382 1.476 . S
H373 C367 0.929 . S
C374 O365 1.250 . S
C374 O366 1.258 . S
O375 Mn360 2.162 1_655 S
O375 C363 1.281 . S
O376 Mn360 2.297 . S
O376 C363 1.236 1_455 S
N377 Mn361 2.282 . S
N377 C378 1.328 1_556 S
N377 C382 1.318 . S
C378 N377 1.328 1_554 S
C378 C379 1.457 . S
C378 H383 0.929 . S
C379 C378 1.457 . S
C379 C380 1.291 . S
C379 H392 0.931 . S
C380 C379 1.291 . S
C380 C381 1.373 1_554 S
C380 H393 0.929 . S
C381 C380 1.373 1_556 S
C381 C382 1.396 . S
C381 C388 1.403 . S
C382 C372 1.476 . S
C382 N377 1.318 . S
C382 C381 1.396 . S
H383 C378 0.929 . S
O384 Mn360 2.385 1_554 S
O384 C362 1.234 1_554 S
O385 Mn360 2.209 . S
O385 Mn361 2.215 . S
O385 C362 1.283 . S
O386 Mn360 2.101 . S
O386 C364 1.243 . S
O387 Mn361 2.117 . S
O387 C364 1.264 . S
C388 C381 1.403 . S
C388 C389 1.399 . S
C388 H394 0.929 . S
C389 C369 1.449 . S
C389 C388 1.399 . S
C389 H395 0.930 . S
H390 C370 0.931 . S
H391 C371 0.930 . S
H392 C379 0.931 . S
H393 C380 0.929 . S
H394 C388 0.929 . S
H395 C389 0.930 . S
Mn396 O401 2.095 . S
Mn396 O411 2.162 1_545 S
Mn396 O412 2.297 . S
Mn396 O420 2.385 1_556 S
Mn396 O421 2.209 . S
Mn396 O422 2.101 . S
Mn397 O402 2.121 . S
Mn397 N404 2.257 . S
Mn397 N413 2.282 . S
Mn397 O421 2.215 . S
Mn397 O423 2.117 . S
C398 O420 1.234 1_556 S
C398 O421 1.283 . S
C399 O411 1.281 . S
C399 O412 1.236 1_565 S
C400 O422 1.243 . S
C400 O423 1.264 . S
O401 Mn396 2.095 . S
O401 C410 1.250 . S
O402 Mn397 2.121 . S
O402 C410 1.258 . S
C403 N404 1.326 . S
C403 C407 1.460 . S
C403 H409 0.929 . S
N404 Mn397 2.257 . S
N404 C403 1.326 . S
N404 C408 1.362 . S
C405 C406 1.258 . S
C405 C408 1.431 . S
C405 C425 1.449 . S
C406 C405 1.258 . S
C406 C407 1.477 . S
C406 H426 0.931 . S
C407 C403 1.460 . S
C407 C406 1.477 . S
C407 H427 0.930 . S
C408 N404 1.362 . S
C408 C405 1.431 . S
C408 C418 1.476 . S
H409 C403 0.929 . S
C410 O401 1.250 . S
C410 O402 1.258 . S
O411 Mn396 2.162 1_565 S
O411 C399 1.281 . S
O412 Mn396 2.297 . S
O412 C399 1.236 1_545 S
N413 Mn397 2.282 . S
N413 C414 1.328 1_556 S
N413 C418 1.318 . S
C414 N413 1.328 1_554 S
C414 C415 1.457 . S
C414 H419 0.929 . S
C415 C414 1.457 . S
C415 C416 1.291 . S
C415 H428 0.931 . S
C416 C415 1.291 . S
C416 C417 1.373 1_554 S
C416 H429 0.929 . S
C417 C416 1.373 1_556 S
C417 C418 1.396 . S
C417 C424 1.403 . S
C418 C408 1.476 . S
C418 N413 1.318 . S
C418 C417 1.396 . S
H419 C414 0.929 . S
O420 Mn396 2.385 1_554 S
O420 C398 1.234 1_554 S
O421 Mn396 2.209 . S
O421 Mn397 2.215 . S
O421 C398 1.283 . S
O422 Mn396 2.101 . S
O422 C400 1.243 . S
O423 Mn397 2.117 . S
O423 C400 1.264 . S
C424 C417 1.403 . S
C424 C425 1.399 . S
C424 H430 0.929 . S
C425 C405 1.449 . S
C425 C424 1.399 . S
C425 H431 0.930 . S
H426 C406 0.931 . S
H427 C407 0.930 . S
H428 C415 0.931 . S
H429 C416 0.929 . S
H430 C424 0.929 . S
H431 C425 0.930 . S
Mn432 O437 2.095 . S
Mn432 O447 2.162 . S
Mn432 O448 2.297 . S
Mn432 O456 2.385 . S
Mn432 O457 2.209 . S
Mn432 O458 2.094 . S
Mn433 O438 2.121 . S
Mn433 N440 2.257 . S
Mn433 N449 2.282 . S
Mn433 O457 2.215 . S
Mn433 O459 2.117 . S
C434 O456 1.234 . S
C434 O457 1.283 . S
C435 O447 1.281 . S
C435 O448 1.236 . S
C436 O458 1.240 . S
C436 O459 1.264 . S
O437 Mn432 2.095 . S
O437 C446 1.250 . S
O438 Mn433 2.121 . S
O438 C446 1.258 . S
C439 N440 1.326 . S
C439 C443 1.460 . S
C439 H445 0.929 . S
N440 Mn433 2.257 . S
N440 C439 1.326 . S
N440 C444 1.362 . S
C441 C442 1.258 . S
C441 C444 1.431 . S
C441 C461 1.449 . S
C442 C441 1.258 . S
C442 C443 1.477 . S
C442 H462 0.931 . S
C443 C439 1.460 . S
C443 C442 1.477 . S
C443 H463 0.930 . S
C444 N440 1.362 . S
C444 C441 1.431 . S
C444 C454 1.476 . S
H445 C439 0.929 . S
C446 O437 1.250 . S
C446 O438 1.258 . S
O447 Mn432 2.162 . S
O447 C435 1.281 . S
O448 Mn432 2.297 . S
O448 C435 1.236 . S
N449 Mn433 2.282 . S
N449 C450 1.328 . S
N449 C454 1.318 . S
C450 N449 1.328 . S
C450 C451 1.457 . S
C450 H455 0.929 . S
C451 C450 1.457 . S
C451 C452 1.291 . S
C451 H464 0.931 . S
C452 C451 1.291 . S
C452 C453 1.373 . S
C452 H465 0.929 . S
C453 C452 1.373 . S
C453 C454 1.396 . S
C453 C460 1.403 . S
C454 C444 1.476 . S
C454 N449 1.318 . S
C454 C453 1.396 . S
H455 C450 0.929 . S
O456 Mn432 2.385 . S
O456 C434 1.234 . S
O457 Mn432 2.209 . S
O457 Mn433 2.215 . S
O457 C434 1.283 . S
O458 Mn432 2.094 . S
O458 C436 1.240 . S
O459 Mn433 2.117 . S
O459 C436 1.264 . S
C460 C453 1.403 . S
C460 C461 1.399 . S
C460 H466 0.929 . S
C461 C441 1.449 . S
C461 C460 1.399 . S
C461 H467 0.930 . S
H462 C442 0.931 . S
H463 C443 0.930 . S
H464 C451 0.931 . S
H465 C452 0.929 . S
H466 C460 0.929 . S
H467 C461 0.930 . S
Mn468 O473 2.095 . S
Mn468 O483 2.162 . S
Mn468 O484 2.297 . S
Mn468 O492 2.385 . S
Mn468 O493 2.209 . S
Mn468 O494 2.094 . S
Mn469 O474 2.121 . S
Mn469 N476 2.257 . S
Mn469 N485 2.282 . S
Mn469 O493 2.215 . S
Mn469 O495 2.117 . S
C470 O492 1.234 . S
C470 O493 1.283 . S
C471 O483 1.281 . S
C471 O484 1.236 . S
C472 O494 1.240 . S
C472 O495 1.264 . S
O473 Mn468 2.095 . S
O473 C482 1.250 . S
O474 Mn469 2.121 . S
O474 C482 1.258 . S
C475 N476 1.326 . S
C475 C479 1.460 . S
C475 H481 0.929 . S
N476 Mn469 2.257 . S
N476 C475 1.326 . S
N476 C480 1.362 . S
C477 C478 1.258 . S
C477 C480 1.431 . S
C477 C497 1.449 . S
C478 C477 1.258 . S
C478 C479 1.477 . S
C478 H498 0.931 . S
C479 C475 1.460 . S
C479 C478 1.477 . S
C479 H499 0.930 . S
C480 N476 1.362 . S
C480 C477 1.431 . S
C480 C490 1.476 . S
H481 C475 0.929 . S
C482 O473 1.250 . S
C482 O474 1.258 . S
O483 Mn468 2.162 . S
O483 C471 1.281 . S
O484 Mn468 2.297 . S
O484 C471 1.236 . S
N485 Mn469 2.282 . S
N485 C486 1.328 . S
N485 C490 1.318 . S
C486 N485 1.328 . S
C486 C487 1.457 . S
C486 H491 0.929 . S
C487 C486 1.457 . S
C487 C488 1.291 . S
C487 H500 0.931 . S
C488 C487 1.291 . S
C488 C489 1.373 . S
C488 H501 0.929 . S
C489 C488 1.373 . S
C489 C490 1.396 . S
C489 C496 1.403 . S
C490 C480 1.476 . S
C490 N485 1.318 . S
C490 C489 1.396 . S
H491 C486 0.929 . S
O492 Mn468 2.385 . S
O492 C470 1.234 . S
O493 Mn468 2.209 . S
O493 Mn469 2.215 . S
O493 C470 1.283 . S
O494 Mn468 2.094 . S
O494 C472 1.240 . S
O495 Mn469 2.117 . S
O495 C472 1.264 . S
C496 C489 1.403 . S
C496 C497 1.399 . S
C496 H502 0.929 . S
C497 C477 1.449 . S
C497 C496 1.399 . S
C497 H503 0.930 . S
H498 C478 0.931 . S
H499 C479 0.930 . S
H500 C487 0.931 . S
H501 C488 0.929 . S
H502 C496 0.929 . S
H503 C497 0.930 . S
Mn504 O509 2.095 . S
Mn504 O519 2.162 1_455 S
Mn504 O520 2.297 . S
Mn504 O528 2.385 . S
Mn504 O529 2.209 . S
Mn504 O530 2.094 . S
Mn505 O510 2.121 . S
Mn505 N512 2.257 . S
Mn505 N521 2.282 . S
Mn505 O529 2.215 . S
Mn505 O531 2.117 . S
C506 O528 1.234 . S
C506 O529 1.283 . S
C507 O519 1.281 . S
C507 O520 1.236 1_655 S
C508 O530 1.240 . S
C508 O531 1.264 . S
O509 Mn504 2.095 . S
O509 C518 1.250 . S
O510 Mn505 2.121 . S
O510 C518 1.258 . S
C511 N512 1.326 . S
C511 C515 1.460 . S
C511 H517 0.929 . S
N512 Mn505 2.257 . S
N512 C511 1.326 . S
N512 C516 1.362 . S
C513 C514 1.258 . S
C513 C516 1.431 . S
C513 C533 1.449 . S
C514 C513 1.258 . S
C514 C515 1.477 . S
C514 H534 0.931 . S
C515 C511 1.460 . S
C515 C514 1.477 . S
C515 H535 0.930 . S
C516 N512 1.362 . S
C516 C513 1.431 . S
C516 C526 1.476 . S
H517 C511 0.929 . S
C518 O509 1.250 . S
C518 O510 1.258 . S
O519 Mn504 2.162 1_655 S
O519 C507 1.281 . S
O520 Mn504 2.297 . S
O520 C507 1.236 1_455 S
N521 Mn505 2.282 . S
N521 C522 1.328 . S
N521 C526 1.318 . S
C522 N521 1.328 . S
C522 C523 1.457 . S
C522 H527 0.929 . S
C523 C522 1.457 . S
C523 C524 1.291 . S
C523 H536 0.931 . S
C524 C523 1.291 . S
C524 C525 1.373 . S
C524 H537 0.929 . S
C525 C524 1.373 . S
C525 C526 1.396 . S
C525 C532 1.403 . S
C526 C516 1.476 . S
C526 N521 1.318 . S
C526 C525 1.396 . S
H527 C522 0.929 . S
O528 Mn504 2.385 . S
O528 C506 1.234 . S
O529 Mn504 2.209 . S
O529 Mn505 2.215 . S
O529 C506 1.283 . S
O530 Mn504 2.094 . S
O530 C508 1.240 . S
O531 Mn505 2.117 . S
O531 C508 1.264 . S
C532 C525 1.403 . S
C532 C533 1.399 . S
C532 H538 0.929 . S
C533 C513 1.449 . S
C533 C532 1.399 . S
C533 H539 0.930 . S
H534 C514 0.931 . S
H535 C515 0.930 . S
H536 C523 0.931 . S
H537 C524 0.929 . S
H538 C532 0.929 . S
H539 C533 0.930 . S
Mn540 O545 2.095 . S
Mn540 O555 2.162 1_545 S
Mn540 O556 2.297 . S
Mn540 O564 2.385 . S
Mn540 O565 2.209 . S
Mn540 O566 2.094 . S
Mn541 O546 2.121 . S
Mn541 N548 2.257 . S
Mn541 N557 2.282 . S
Mn541 O565 2.215 . S
Mn541 O567 2.117 . S
C542 O564 1.234 . S
C542 O565 1.283 . S
C543 O555 1.281 . S
C543 O556 1.236 1_565 S
C544 O566 1.240 . S
C544 O567 1.264 . S
O545 Mn540 2.095 . S
O545 C554 1.250 . S
O546 Mn541 2.121 . S
O546 C554 1.258 . S
C547 N548 1.326 . S
C547 C551 1.460 . S
C547 H553 0.929 . S
N548 Mn541 2.257 . S
N548 C547 1.326 . S
N548 C552 1.362 . S
C549 C550 1.258 . S
C549 C552 1.431 . S
C549 C569 1.449 . S
C550 C549 1.258 . S
C550 C551 1.477 . S
C550 H570 0.931 . S
C551 C547 1.460 . S
C551 C550 1.477 . S
C551 H571 0.930 . S
C552 N548 1.362 . S
C552 C549 1.431 . S
C552 C562 1.476 . S
H553 C547 0.929 . S
C554 O545 1.250 . S
C554 O546 1.258 . S
O555 Mn540 2.162 1_565 S
O555 C543 1.281 . S
O556 Mn540 2.297 . S
O556 C543 1.236 1_545 S
N557 Mn541 2.282 . S
N557 C558 1.328 . S
N557 C562 1.318 . S
C558 N557 1.328 . S
C558 C559 1.457 . S
C558 H563 0.929 . S
C559 C558 1.457 . S
C559 C560 1.291 . S
C559 H572 0.931 . S
C560 C559 1.291 . S
C560 C561 1.373 . S
C560 H573 0.929 . S
C561 C560 1.373 . S
C561 C562 1.396 . S
C561 C568 1.403 . S
C562 C552 1.476 . S
C562 N557 1.318 . S
C562 C561 1.396 . S
H563 C558 0.929 . S
O564 Mn540 2.385 . S
O564 C542 1.234 . S
O565 Mn540 2.209 . S
O565 Mn541 2.215 . S
O565 C542 1.283 . S
O566 Mn540 2.094 . S
O566 C544 1.240 . S
O567 Mn541 2.117 . S
O567 C544 1.264 . S
C568 C561 1.403 . S
C568 C569 1.399 . S
C568 H574 0.929 . S
C569 C549 1.449 . S
C569 C568 1.399 . S
C569 H575 0.930 . S
H570 C550 0.931 . S
H571 C551 0.930 . S
H572 C559 0.931 . S
H573 C560 0.929 . S
H574 C568 0.929 . S
H575 C569 0.930 . S
C576 C577 1.369 . S
C576 C578 1.419 . S
C576 H580 0.930 . S
C577 C576 1.369 . S
C577 C586 1.429 1_556 S
C578 C576 1.419 . S
C578 C579 1.363 . S
C578 H581 0.929 . S
C579 C578 1.363 . S
C579 C585 1.428 1_556 S
H580 C576 0.930 . S
H581 C578 0.929 . S
S582 N583 1.613 . S
S582 N584 1.610 . S
N583 S582 1.613 . S
N583 C586 1.350 . S
N584 S582 1.610 . S
N584 C585 1.351 . S
C585 C579 1.428 1_554 S
C585 N584 1.351 . S
C585 C586 1.434 . S
C586 C577 1.429 1_554 S
C586 N583 1.350 . S
C586 C585 1.434 . S
C587 C588 1.369 1_554 S
C587 C589 1.419 . S
C587 H591 0.930 . S
C588 C587 1.369 1_556 S
C588 C597 1.429 . S
C589 C587 1.419 . S
C589 C590 1.363 1_554 S
C589 H592 0.929 . S
C590 C589 1.363 1_556 S
C590 C596 1.428 . S
H591 C587 0.930 . S
H592 C589 0.929 . S
S593 N594 1.613 . S
S593 N595 1.610 . S
N594 S593 1.613 . S
N594 C597 1.350 . S
N595 S593 1.610 . S
N595 C596 1.351 . S
C596 C590 1.428 . S
C596 N595 1.351 . S
C596 C597 1.434 . S
C597 C588 1.429 . S
C597 N594 1.350 . S
C597 C596 1.434 . S
C598 C599 1.369 1_554 S
C598 C600 1.419 . S
C598 H602 0.930 . S
C599 C598 1.369 1_556 S
C599 C608 1.429 . S
C600 C598 1.419 . S
C600 C601 1.363 1_554 S
C600 H603 0.929 . S
C601 C600 1.363 1_556 S
C601 C607 1.428 . S
H602 C598 0.930 . S
H603 C600 0.929 . S
S604 N605 1.613 . S
S604 N606 1.610 . S
N605 S604 1.613 . S
N605 C608 1.350 . S
N606 S604 1.610 . S
N606 C607 1.351 . S
C607 C601 1.428 . S
C607 N606 1.351 . S
C607 C608 1.434 . S
C608 C599 1.429 . S
C608 N605 1.350 . S
C608 C607 1.434 . S
C609 C610 1.369 . S
C609 C611 1.419 1_556 S
C609 H613 0.930 1_556 S
C610 C609 1.369 . S
C610 C619 1.429 . S
C611 C609 1.419 1_554 S
C611 C612 1.363 1_554 S
C611 H614 0.929 . S
C612 C611 1.363 1_556 S
C612 C618 1.428 . S
H613 C609 0.930 1_554 S
H614 C611 0.929 . S
S615 N616 1.613 . S
S615 N617 1.610 . S
N616 S615 1.613 . S
N616 C619 1.350 . S
N617 S615 1.610 . S
N617 C618 1.351 . S
C618 C612 1.428 . S
C618 N617 1.351 . S
C618 C619 1.434 . S
C619 C610 1.429 . S
C619 N616 1.350 . S
C619 C618 1.434 . S
C620 C621 1.369 . S
C620 C622 1.419 . S
C620 H624 0.930 . S
C621 C620 1.369 . S
C621 C630 1.429 . S
C622 C620 1.419 . S
C622 C623 1.363 . S
C622 H625 0.929 . S
C623 C622 1.363 . S
C623 C629 1.428 . S
H624 C620 0.930 . S
H625 C622 0.929 . S
S626 N627 1.613 . S
S626 N628 1.610 . S
N627 S626 1.613 . S
N627 C630 1.350 . S
N628 S626 1.610 . S
N628 C629 1.351 . S
C629 C623 1.428 . S
C629 N628 1.351 . S
C629 C630 1.434 . S
C630 C621 1.429 . S
C630 N627 1.350 . S
C630 C629 1.434 . S
C631 C632 1.369 . S
C631 C633 1.419 . S
C631 H635 0.930 . S
C632 C631 1.369 . S
C632 C641 1.429 . S
C633 C631 1.419 . S
C633 C634 1.363 . S
C633 H636 0.929 . S
C634 C633 1.363 . S
C634 C640 1.428 . S
H635 C631 0.930 . S
H636 C633 0.929 . S
S637 N638 1.613 . S
S637 N639 1.610 . S
N638 S637 1.613 . S
N638 C641 1.350 . S
N639 S637 1.610 . S
N639 C640 1.351 . S
C640 C634 1.428 . S
C640 N639 1.351 . S
C640 C641 1.434 . S
C641 C632 1.429 . S
C641 N638 1.350 . S
C641 C640 1.434 . S
C642 C643 1.369 . S
C642 C644 1.419 . S
C642 H646 0.930 . S
C643 C642 1.369 . S
C643 C652 1.429 . S
C644 C642 1.419 . S
C644 C645 1.363 . S
C644 H647 0.929 . S
C645 C644 1.363 . S
C645 C651 1.428 . S
H646 C642 0.930 . S
H647 C644 0.929 . S
S648 N649 1.613 . S
S648 N650 1.610 . S
N649 S648 1.613 . S
N649 C652 1.350 . S
N650 S648 1.610 . S
N650 C651 1.351 . S
C651 C645 1.428 . S
C651 N650 1.351 . S
C651 C652 1.434 . S
C652 C643 1.429 . S
C652 N649 1.350 . S
C652 C651 1.434 . S
C653 C654 1.369 . S
C653 C655 1.419 . S
C653 H657 0.930 . S
C654 C653 1.369 . S
C654 C663 1.429 . S
C655 C653 1.419 . S
C655 C656 1.363 . S
C655 H658 0.929 . S
C656 C655 1.363 . S
C656 C662 1.428 . S
H657 C653 0.930 . S
H658 C655 0.929 . S
S659 N660 1.613 . S
S659 N661 1.610 . S
N660 S659 1.613 . S
N660 C663 1.350 . S
N661 S659 1.610 . S
N661 C662 1.351 . S
C662 C656 1.428 . S
C662 N661 1.351 . S
C662 C663 1.434 . S
C663 C654 1.429 . S
C663 N660 1.350 . S
C663 C662 1.434 . S
C664 C665 1.369 1_556 S
C664 C666 1.419 . S
C664 H668 0.930 . S
C665 C664 1.369 1_554 S
C665 C674 1.429 . S
C666 C664 1.419 . S
C666 C667 1.363 1_556 S
C666 H669 0.929 . S
C667 C666 1.363 1_554 S
C667 C673 1.428 . S
H668 C664 0.930 . S
H669 C666 0.929 . S
S670 N671 1.613 . S
S670 N672 1.610 . S
N671 S670 1.613 . S
N671 C674 1.350 . S
N672 S670 1.610 . S
N672 C673 1.351 . S
C673 C667 1.428 . S
C673 N672 1.351 . S
C673 C674 1.434 . S
C674 C665 1.429 . S
C674 N671 1.350 . S
C674 C673 1.434 . S
C675 C676 1.369 . S
C675 C677 1.419 . S
C675 H679 0.930 1_554 S
C676 C675 1.369 . S
C676 C685 1.429 . S
C677 C675 1.419 . S
C677 C678 1.363 . S
C677 H680 0.929 . S
C678 C677 1.363 . S
C678 C684 1.428 . S
H679 C675 0.930 1_556 S
H680 C677 0.929 . S
S681 N682 1.613 . S
S681 N683 1.610 . S
N682 S681 1.613 . S
N682 C685 1.350 . S
N683 S681 1.610 . S
N683 C684 1.351 . S
C684 C678 1.428 . S
C684 N683 1.351 . S
C684 C685 1.434 . S
C685 C676 1.429 . S
C685 N682 1.350 . S
C685 C684 1.434 . S
C686 C687 1.369 . S
C686 C688 1.419 . S
C686 H690 0.930 . S
C687 C686 1.369 . S
C687 C696 1.429 1_554 S
C688 C686 1.419 . S
C688 C689 1.363 . S
C688 H691 0.929 . S
C689 C688 1.363 . S
C689 C695 1.428 . S
H690 C686 0.930 . S
H691 C688 0.929 . S
S692 N693 1.613 . S
S692 N694 1.610 . S
N693 S692 1.613 . S
N693 C696 1.350 . S
N694 S692 1.610 . S
N694 C695 1.351 1_556 S
C695 C689 1.428 . S
C695 N694 1.351 1_554 S
C695 C696 1.434 1_554 S
C696 C687 1.429 1_556 S
C696 N693 1.350 . S
C696 C695 1.434 1_556 S
C697 C698 1.369 . S
C697 C699 1.419 . S
C697 H701 0.930 . S
C698 C697 1.369 . S
C698 C707 1.429 1_554 S
C699 C697 1.419 . S
C699 C700 1.363 . S
C699 H702 0.929 . S
C700 C699 1.363 . S
C700 C706 1.428 1_554 S
H701 C697 0.930 . S
H702 C699 0.929 . S
S703 N704 1.613 . S
S703 N705 1.610 . S
N704 S703 1.613 . S
N704 C707 1.350 . S
N705 S703 1.610 . S
N705 C706 1.351 . S
C706 C700 1.428 1_556 S
C706 N705 1.351 . S
C706 C707 1.434 . S
C707 C698 1.429 1_556 S
C707 N704 1.350 . S
C707 C706 1.434 . S
C708 C709 1.369 . S
C708 C710 1.419 . S
C708 H712 0.930 . S
C709 C708 1.369 . S
C709 C718 1.429 . S
C710 C708 1.419 . S
C710 C711 1.363 . S
C710 H713 0.929 . S
C711 C710 1.363 . S
C711 C717 1.428 . S
H712 C708 0.930 . S
H713 C710 0.929 . S
S714 N715 1.613 . S
S714 N716 1.610 . S
N715 S714 1.613 . S
N715 C718 1.350 . S
N716 S714 1.610 . S
N716 C717 1.351 . S
C717 C711 1.428 . S
C717 N716 1.351 . S
C717 C718 1.434 . S
C718 C709 1.429 . S
C718 N715 1.350 . S
C718 C717 1.434 . S
C719 C720 1.369 . S
C719 C721 1.419 . S
C719 H723 0.930 . S
C720 C719 1.369 . S
C720 C729 1.429 . S
C721 C719 1.419 . S
C721 C722 1.363 . S
C721 H724 0.929 . S
C722 C721 1.363 . S
C722 C728 1.428 . S
H723 C719 0.930 . S
H724 C721 0.929 . S
S725 N726 1.613 . S
S725 N727 1.610 . S
N726 S725 1.613 . S
N726 C729 1.350 . S
N727 S725 1.610 . S
N727 C728 1.351 . S
C728 C722 1.428 . S
C728 N727 1.351 . S
C728 C729 1.434 . S
C729 C720 1.429 . S
C729 N726 1.350 . S
C729 C728 1.434 . S
C730 C731 1.369 . S
C730 C732 1.419 . S
C730 H734 0.930 . S
C731 C730 1.369 . S
C731 C740 1.429 . S
C732 C730 1.419 . S
C732 C733 1.363 . S
C732 H735 0.929 . S
C733 C732 1.363 . S
C733 C739 1.428 . S
H734 C730 0.930 . S
H735 C732 0.929 . S
S736 N737 1.613 . S
S736 N738 1.610 . S
N737 S736 1.613 . S
N737 C740 1.350 . S
N738 S736 1.610 . S
N738 C739 1.351 . S
C739 C733 1.428 . S
C739 N738 1.351 . S
C739 C740 1.434 . S
C740 C731 1.429 . S
C740 N737 1.350 . S
C740 C739 1.434 . S
C741 C742 1.369 . S
C741 C743 1.419 . S
C741 H745 0.930 . S
C742 C741 1.369 . S
C742 C751 1.429 . S
C743 C741 1.419 . S
C743 C744 1.363 . S
C743 H746 0.929 . S
C744 C743 1.363 . S
C744 C750 1.428 . S
H745 C741 0.930 . S
H746 C743 0.929 . S
S747 N748 1.613 . S
S747 N749 1.610 . S
N748 S747 1.613 . S
N748 C751 1.350 . S
N749 S747 1.610 . S
N749 C750 1.351 . S
C750 C744 1.428 . S
C750 N749 1.351 . S
C750 C751 1.434 . S
C751 C742 1.429 . S
C751 N748 1.350 . S
C751 C750 1.434 . S
C752 C753 1.369 1_554 S
C752 C754 1.419 1_565 S
C752 H756 0.930 . S
C753 C752 1.369 1_556 S
C753 C762 1.429 . S
C754 C752 1.419 1_545 S
C754 C755 1.363 . S
C754 H757 0.929 . S
C755 C754 1.363 . S
C755 C761 1.428 1_554 S
H756 C752 0.930 . S
H757 C754 0.929 . S
S758 N759 1.613 1_545 S
S758 N760 1.610 . S
N759 S758 1.613 1_565 S
N759 C762 1.350 . S
N760 S758 1.610 . S
N760 C761 1.351 . S
C761 C755 1.428 1_556 S
C761 N760 1.351 . S
C761 C762 1.434 1_545 S
C762 C753 1.429 . S
C762 N759 1.350 . S
C762 C761 1.434 1_565 S
C763 C764 1.369 . S
C763 C765 1.419 . S
C763 H767 0.930 . S
C764 C763 1.369 . S
C764 C773 1.429 1_554 S
C765 C763 1.419 . S
C765 C766 1.363 1_554 S
C765 H768 0.929 . S
C766 C765 1.363 1_556 S
C766 C772 1.428 . S
H767 C763 0.930 . S
H768 C765 0.929 . S
S769 N770 1.613 . S
S769 N771 1.610 . S
N770 S769 1.613 . S
N770 C773 1.350 . S
N771 S769 1.610 . S
N771 C772 1.351 . S
C772 C766 1.428 . S
C772 N771 1.351 . S
C772 C773 1.434 . S
C773 C764 1.429 1_556 S
C773 N770 1.350 . S
C773 C772 1.434 . S
C774 C775 1.369 1_554 S
C774 C776 1.419 . S
C774 H778 0.930 . S
C775 C774 1.369 1_556 S
C775 C784 1.429 1_655 S
C776 C774 1.419 . S
C776 C777 1.363 1_655 S
C776 H779 0.929 . S
C777 C776 1.363 1_455 S
C777 C783 1.428 1_554 S
H778 C774 0.930 . S
H779 C776 0.929 . S
S780 N781 1.613 . S
S780 N782 1.610 . S
N781 S780 1.613 . S
N781 C784 1.350 . S
N782 S780 1.610 . S
N782 C783 1.351 . S
C783 C777 1.428 1_556 S
C783 N782 1.351 . S
C783 C784 1.434 . S
C784 C775 1.429 1_455 S
C784 N781 1.350 . S
C784 C783 1.434 . S
C785 C786 1.369 . S
C785 C787 1.419 1_455 S
C785 H789 0.930 . S
C786 C785 1.369 . S
C786 C795 1.429 1_544 S
C787 C785 1.419 1_655 S
C787 C788 1.363 1_544 S
C787 H790 0.929 . S
C788 C787 1.363 1_566 S
C788 C794 1.428 . S
H789 C785 0.930 . S
H790 C787 0.929 . S
S791 N792 1.613 . S
S791 N793 1.610 1_455 S
N792 S791 1.613 . S
N792 C795 1.350 . S
N793 S791 1.610 1_655 S
N793 C794 1.351 . S
C794 C788 1.428 . S
C794 N793 1.351 . S
C794 C795 1.434 1_655 S
C795 C786 1.429 1_566 S
C795 N792 1.350 . S
C795 C794 1.434 1_455 S
C796 C797 1.369 . S
C796 C798 1.419 . S
C796 H800 0.930 . S
C797 C796 1.369 . S
C797 C806 1.429 . S
C798 C796 1.419 . S
C798 C799 1.363 . S
C798 H801 0.929 . S
C799 C798 1.363 . S
C799 C805 1.428 . S
H800 C796 0.930 . S
H801 C798 0.929 . S
S802 N803 1.613 . S
S802 N804 1.610 . S
N803 S802 1.613 . S
N803 C806 1.350 . S
N804 S802 1.610 . S
N804 C805 1.351 . S
C805 C799 1.428 . S
C805 N804 1.351 . S
C805 C806 1.434 . S
C806 C797 1.429 . S
C806 N803 1.350 . S
C806 C805 1.434 . S
C807 C808 1.369 . S
C807 C809 1.419 1_455 S
C807 H811 0.930 . S
C808 C807 1.369 . S
C808 C817 1.429 . S
C809 C807 1.419 1_655 S
C809 C810 1.363 . S
C809 H812 0.929 . S
C810 C809 1.363 . S
C810 C816 1.428 . S
H811 C807 0.930 . S
H812 C809 0.929 . S
S813 N814 1.613 1_655 S
S813 N815 1.610 . S
N814 S813 1.613 1_455 S
N814 C817 1.350 . S
N815 S813 1.610 . S
N815 C816 1.351 . S
C816 C810 1.428 . S
C816 N815 1.351 . S
C816 C817 1.434 1_655 S
C817 C808 1.429 . S
C817 N814 1.350 . S
C817 C816 1.434 1_455 S
C818 C819 1.369 . S
C818 C820 1.419 1_565 S
C818 H822 0.930 . S
C819 C818 1.369 . S
C819 C828 1.429 1_655 S
C820 C818 1.419 1_545 S
C820 C821 1.363 1_655 S
C820 H823 0.929 . S
C821 C820 1.363 1_455 S
C821 C827 1.428 . S
H822 C818 0.930 . S
H823 C820 0.929 . S
S824 N825 1.613 . S
S824 N826 1.610 1_565 S
N825 S824 1.613 . S
N825 C828 1.350 . S
N826 S824 1.610 1_545 S
N826 C827 1.351 . S
C827 C821 1.428 . S
C827 N826 1.351 . S
C827 C828 1.434 1_545 S
C828 C819 1.429 1_455 S
C828 N825 1.350 . S
C828 C827 1.434 1_565 S
C829 C830 1.369 . S
C829 C831 1.419 . S
C829 H833 0.930 . S
C830 C829 1.369 . S
C830 C839 1.429 1_565 S
C831 C829 1.419 . S
C831 C832 1.363 1_565 S
C831 H834 0.929 . S
C832 C831 1.363 1_545 S
C832 C838 1.428 . S
H833 C829 0.930 . S
H834 C831 0.929 . S
S835 N836 1.613 . S
S835 N837 1.610 . S
N836 S835 1.613 . S
N836 C839 1.350 . S
N837 S835 1.610 . S
N837 C838 1.351 . S
C838 C832 1.428 . S
C838 N837 1.351 . S
C838 C839 1.434 . S
C839 C830 1.429 1_545 S
C839 N836 1.350 . S
C839 C838 1.434 . S
C840 C841 1.369 . S
C840 C842 1.419 . S
C840 H844 0.930 . S
C841 C840 1.369 . S
C841 C850 1.429 . S
C842 C840 1.419 . S
C842 C843 1.363 . S
C842 H845 0.929 . S
C843 C842 1.363 . S
C843 C849 1.428 . S
H844 C840 0.930 . S
H845 C842 0.929 . S
S846 N847 1.613 . S
S846 N848 1.610 . S
N847 S846 1.613 . S
N847 C850 1.350 . S
N848 S846 1.610 . S
N848 C849 1.351 . S
C849 C843 1.428 . S
C849 N848 1.351 . S
C849 C850 1.434 . S
C850 C841 1.429 . S
C850 N847 1.350 . S
C850 C849 1.434 . S
C851 C852 1.369 . S
C851 C853 1.419 . S
C851 H855 0.930 . S
C852 C851 1.369 . S
C852 C861 1.429 . S
C853 C851 1.419 . S
C853 C854 1.363 . S
C853 H856 0.929 . S
C854 C853 1.363 . S
C854 C860 1.428 . S
H855 C851 0.930 . S
H856 C853 0.929 . S
S857 N858 1.613 . S
S857 N859 1.610 . S
N858 S857 1.613 . S
N858 C861 1.350 . S
N859 S857 1.610 . S
N859 C860 1.351 . S
C860 C854 1.428 . S
C860 N859 1.351 . S
C860 C861 1.434 . S
C861 C852 1.429 . S
C861 N858 1.350 . S
C861 C860 1.434 . S
C862 C863 1.369 . S
C862 C864 1.419 . S
C862 H866 0.930 . S
C863 C862 1.369 . S
C863 C872 1.429 . S
C864 C862 1.419 . S
C864 C865 1.363 . S
C864 H867 0.929 . S
C865 C864 1.363 . S
C865 C871 1.428 . S
H866 C862 0.930 . S
H867 C864 0.929 . S
S868 N869 1.613 1_455 S
S868 N870 1.610 1_455 S
N869 S868 1.613 1_655 S
N869 C872 1.350 . S
N870 S868 1.610 1_655 S
N870 C871 1.351 . S
C871 C865 1.428 . S
C871 N870 1.351 . S
C871 C872 1.434 . S
C872 C863 1.429 . S
C872 N869 1.350 . S
C872 C871 1.434 . S
C873 C874 1.369 . S
C873 C875 1.419 . S
C873 H877 0.930 . S
C874 C873 1.369 . S
C874 C883 1.429 . S
C875 C873 1.419 . S
C875 C876 1.363 . S
C875 H878 0.929 . S
C876 C875 1.363 . S
C876 C882 1.428 . S
H877 C873 0.930 . S
H878 C875 0.929 . S
S879 N880 1.613 . S
S879 N881 1.610 . S
N880 S879 1.613 . S
N880 C883 1.350 1_545 S
N881 S879 1.610 . S
N881 C882 1.351 1_545 S
C882 C876 1.428 . S
C882 N881 1.351 1_565 S
C882 C883 1.434 . S
C883 C874 1.429 . S
C883 N880 1.350 1_565 S
C883 C882 1.434 . S
C884 C885 1.369 . S
C884 C886 1.419 . S
C884 H888 0.930 . S
C885 C884 1.369 . S
C885 C894 1.429 . S
C886 C884 1.419 . S
C886 C887 1.363 . S
C886 H889 0.929 . S
C887 C886 1.363 . S
C887 C893 1.428 . S
H888 C884 0.930 . S
H889 C886 0.929 . S
S890 N891 1.613 . S
S890 N892 1.610 . S
N891 S890 1.613 . S
N891 C894 1.350 . S
N892 S890 1.610 . S
N892 C893 1.351 . S
C893 C887 1.428 . S
C893 N892 1.351 . S
C893 C894 1.434 . S
C894 C885 1.429 . S
C894 N891 1.350 . S
C894 C893 1.434 . S
C895 C896 1.369 . S
C895 C897 1.419 . S
C895 H899 0.930 . S
C896 C895 1.369 . S
C896 C905 1.429 . S
C897 C895 1.419 . S
C897 C898 1.363 . S
C897 H900 0.929 . S
C898 C897 1.363 . S
C898 C904 1.428 . S
H899 C895 0.930 . S
H900 C897 0.929 . S
S901 N902 1.613 . S
S901 N903 1.610 . S
N902 S901 1.613 . S
N902 C905 1.350 . S
N903 S901 1.610 . S
N903 C904 1.351 . S
C904 C898 1.428 . S
C904 N903 1.351 . S
C904 C905 1.434 . S
C905 C896 1.429 . S
C905 N902 1.350 . S
C905 C904 1.434 . S
C906 C907 1.369 . S
C906 C908 1.419 . S
C906 H910 0.930 1_455 S
C907 C906 1.369 . S
C907 C916 1.429 . S
C908 C906 1.419 . S
C908 C909 1.363 . S
C908 H911 0.929 1_455 S
C909 C908 1.363 . S
C909 C915 1.428 . S
H910 C906 0.930 1_655 S
H911 C908 0.929 1_655 S
S912 N913 1.613 . S
S912 N914 1.610 . S
N913 S912 1.613 . S
N913 C916 1.350 . S
N914 S912 1.610 . S
N914 C915 1.351 . S
C915 C909 1.428 . S
C915 N914 1.351 . S
C915 C916 1.434 . S
C916 C907 1.429 . S
C916 N913 1.350 . S
C916 C915 1.434 . S
C917 C918 1.369 . S
C917 C919 1.419 . S
C917 H921 0.930 . S
C918 C917 1.369 . S
C918 C927 1.429 1_545 S
C919 C917 1.419 . S
C919 C920 1.363 . S
C919 H922 0.929 . S
C920 C919 1.363 . S
C920 C926 1.428 1_545 S
H921 C917 0.930 . S
H922 C919 0.929 . S
S923 N924 1.613 . S
S923 N925 1.610 . S
N924 S923 1.613 . S
N924 C927 1.350 . S
N925 S923 1.610 . S
N925 C926 1.351 . S
C926 C920 1.428 1_565 S
C926 N925 1.351 . S
C926 C927 1.434 . S
C927 C918 1.429 1_565 S
C927 N924 1.350 . S
C927 C926 1.434 . S
C577 C4 0.980 1_556 S
C579 C326 1.067 . S
C588 C362 1.068 . S
C590 C40 0.991 1_556 S
C599 C398 1.065 . S
C601 C76 0.996 1_556 S
C610 C290 1.069 . S
C612 C112 0.986 1_556 S
C621 C148 0.996 . S
C623 C542 1.063 . S
C632 C434 1.069 . S
C634 C184 0.981 . S
C643 C470 1.063 . S
C645 C220 0.989 . S
C654 C506 1.062 . S
C656 C256 0.995 . S
C665 C292 0.990 1_554 S
C667 C38 1.068 . S
C676 C328 0.995 1_554 S
C678 C74 1.063 . S
C687 C364 0.980 1_554 S
C689 C110 1.069 . S
C698 C2 1.066 . S
C700 C400 0.983 1_554 S
C709 C436 0.980 . S
C711 C254 1.069 . S
C720 C472 0.979 . S
C722 C146 1.069 . S
C731 C182 1.063 . S
C733 C508 0.996 . S
C742 C544 0.982 . S
C744 C218 1.069 . S
C753 C291 1.887 . S
C755 C3 1.879 . S
C764 C39 1.887 . S
C766 C327 1.878 . S
C775 C363 1.878 . S
C777 C75 1.886 . S
C786 C111 1.880 . S
C788 C399 1.884 . S
C797 C435 1.885 . S
C799 C147 1.880 . S
C808 C183 1.883 . S
C810 C471 1.881 . S
C819 C507 1.879 . S
C821 C219 1.885 . S
C830 C543 1.877 . S
C832 C255 1.886 . S
C841 C158 1.528 . S
C843 C14 1.537 . S
C852 C194 1.538 . S
C854 C50 1.529 . S
C863 C86 1.539 . S
C865 C230 1.530 . S
C874 C266 1.539 . S
C876 C122 1.531 . S
C885 C302 1.526 . S
C887 C446 1.535 . S
C896 C482 1.525 . S
C898 C338 1.531 . S
C907 C518 1.526 . S
C909 C374 1.535 . S
C918 C554 1.539 . S
C920 C410 1.531 . S
