# Generated by pormake.
# Topology vcj, (7)-cn, num edge types: 1
# Building blocks:
#     Node 0, Type 0, BuildingBlock: HICVOG_clean_sbu_0, # of connection points: 7
#     Node 1, Type 0, BuildingBlock: HICVOG_clean_sbu_0, # of connection points: 7
#     Node 2, Type 0, BuildingBlock: HICVOG_clean_sbu_0, # of connection points: 7
#     Node 3, Type 0, BuildingBlock: HICVOG_clean_sbu_0, # of connection points: 7
#     Node 4, Type 0, BuildingBlock: HICVOG_clean_sbu_0, # of connection points: 7
#     Node 5, Type 0, BuildingBlock: HICVOG_clean_sbu_0, # of connection points: 7
#     Node 6, Type 0, BuildingBlock: HICVOG_clean_sbu_0, # of connection points: 7
#     Node 7, Type 0, BuildingBlock: HICVOG_clean_sbu_0, # of connection points: 7
#     Edge 8, Type (0, 0), BuildingBlock: OJICUG_clean_linker_0, # of connection points: 2
#     Edge 9, Type (0, 0), BuildingBlock: OJICUG_clean_linker_0, # of connection points: 2
#     Edge 10, Type (0, 0), BuildingBlock: OJICUG_clean_linker_0, # of connection points: 2
#     Edge 11, Type (0, 0), BuildingBlock: OJICUG_clean_linker_0, # of connection points: 2
#     Edge 12, Type (0, 0), BuildingBlock: OJICUG_clean_linker_0, # of connection points: 2
#     Edge 13, Type (0, 0), BuildingBlock: OJICUG_clean_linker_0, # of connection points: 2
#     Edge 14, Type (0, 0), BuildingBlock: OJICUG_clean_linker_0, # of connection points: 2
#     Edge 15, Type (0, 0), BuildingBlock: OJICUG_clean_linker_0, # of connection points: 2
#     Edge 16, Type (0, 0), BuildingBlock: OJICUG_clean_linker_0, # of connection points: 2
#     Edge 17, Type (0, 0), BuildingBlock: OJICUG_clean_linker_0, # of connection points: 2
#     Edge 18, Type (0, 0), BuildingBlock: OJICUG_clean_linker_0, # of connection points: 2
#     Edge 19, Type (0, 0), BuildingBlock: OJICUG_clean_linker_0, # of connection points: 2
#     Edge 20, Type (0, 0), BuildingBlock: OJICUG_clean_linker_0, # of connection points: 2
#     Edge 21, Type (0, 0), BuildingBlock: OJICUG_clean_linker_0, # of connection points: 2
#     Edge 22, Type (0, 0), BuildingBlock: OJICUG_clean_linker_0, # of connection points: 2
#     Edge 23, Type (0, 0), BuildingBlock: OJICUG_clean_linker_0, # of connection points: 2
#     Edge 24, Type (0, 0), BuildingBlock: OJICUG_clean_linker_0, # of connection points: 2
#     Edge 25, Type (0, 0), BuildingBlock: OJICUG_clean_linker_0, # of connection points: 2
#     Edge 26, Type (0, 0), BuildingBlock: OJICUG_clean_linker_0, # of connection points: 2
#     Edge 27, Type (0, 0), BuildingBlock: OJICUG_clean_linker_0, # of connection points: 2
#     Edge 28, Type (0, 0), BuildingBlock: OJICUG_clean_linker_0, # of connection points: 2
#     Edge 29, Type (0, 0), BuildingBlock: OJICUG_clean_linker_0, # of connection points: 2
#     Edge 30, Type (0, 0), BuildingBlock: OJICUG_clean_linker_0, # of connection points: 2
#     Edge 31, Type (0, 0), BuildingBlock: OJICUG_clean_linker_0, # of connection points: 2
#     Edge 32, Type (0, 0), BuildingBlock: OJICUG_clean_linker_0, # of connection points: 2
#     Edge 33, Type (0, 0), BuildingBlock: OJICUG_clean_linker_0, # of connection points: 2
#     Edge 34, Type (0, 0), BuildingBlock: OJICUG_clean_linker_0, # of connection points: 2
#     Edge 35, Type (0, 0), BuildingBlock: OJICUG_clean_linker_0, # of connection points: 2
# Relax obj value: 0.127
# Max RMSD: 0.196
# Mean RMSD: 0.196
data_MOF--net-vcj--node1-HICVOG_clean_sbu_0--edge1-OJICUG_clean_linker_0
_symmetry_space_group_name_H-M    P1
_symmetry_Int_Tables_number       1
_symmetry_cell_setting            triclinic
loop_
_symmetry_equiv_pos_as_xyz
'x, y, z'
_cell_length_a     27.732507
_cell_length_b     33.932857
_cell_length_c     15.942867
_cell_angle_alpha  90.00157
_cell_angle_beta   89.995696
_cell_angle_gamma 90.003876
loop_
_atom_site_label
_atom_site_type_symbol
_atom_site_fract_x
_atom_site_fract_y
_atom_site_fract_z
_atom_type_partial_charge
Zn0 Zn 0.33043 0.43969 0.29243 0.0
C1 C 0.40926 0.49976 0.12811 0.0
N2 N 0.3704 0.52328 0.127 0.0
C3 C 0.33718 0.50187 0.16803 0.0
N4 N 0.35496 0.46677 0.19326 0.0
N5 N 0.39999 0.46473 0.16574 0.0
C6 C 0.52611 0.4209 0.2208 0.0
O7 O 0.49989 0.42216 0.28939 0.0
O8 O 0.25706 0.43666 0.29067 0.0
Zn9 Zn 0.43227 0.41433 0.14285 0.0
N10 N 0.34922 0.47181 0.38836 0.0
C11 C 0.40792 0.51035 0.46059 0.0
C12 C 0.3951 0.48568 0.3939 0.0
C13 C 0.31593 0.48127 0.44759 0.0
N14 N 0.37437 0.5201 0.51931 0.0
C15 C 0.32867 0.5057 0.51505 0.0
O16 O 0.41511 0.3705 0.22334 0.0
C17 C 0.38792 0.36099 0.28439 0.0
O18 O 0.35624 0.38455 0.31314 0.0
H19 H 0.4213 0.47808 0.3463 0.0
H20 H 0.2793 0.47106 0.44113 0.0
C21 C 0.41439 0.35804 1.00657 0.0
C22 C 0.40379 0.34761 0.92278 0.0
C23 C 0.39407 0.41529 0.88949 0.0
C24 C 0.40449 0.42542 0.97202 0.0
N25 N 0.41507 0.39692 1.02909 0.0
N26 N 0.39421 0.37684 0.86679 0.0
H27 H 0.423 0.33573 0.0527 0.0
C28 C 0.23453 0.41672 0.34581 0.0
O29 O 0.25937 0.39696 0.40202 0.0
O30 O 0.50503 0.41898 0.14996 0.0
H31 H 0.40422 0.4559 0.98988 0.0
H32 H 0.44417 0.52192 0.46523 0.0
H33 H 0.38602 0.43785 0.84362 0.0
Zn34 Zn 0.16118 0.61141 0.79245 0.0
C35 C 0.08235 0.55136 0.62813 0.0
N36 N 0.1212 0.52783 0.62702 0.0
C37 C 0.15443 0.54923 0.66805 0.0
N38 N 0.13665 0.58434 0.69328 0.0
N39 N 0.09163 0.58639 0.66575 0.0
C40 C 0.96553 0.63023 0.7208 0.0
O41 O 0.99174 0.62897 0.78939 0.0
O42 O 0.23456 0.61444 0.79068 0.0
Zn43 Zn 0.05937 0.6368 0.64287 0.0
N44 N 0.1424 0.57929 0.88838 0.0
C45 C 0.08369 0.54073 0.9606 0.0
C46 C 0.09651 0.56541 0.89391 0.0
C47 C 0.17568 0.56982 0.9476 0.0
N48 N 0.11724 0.53099 1.01931 0.0
C49 C 0.16294 0.5454 1.01505 0.0
O50 O 0.07653 0.68064 0.72335 0.0
C51 C 0.10372 0.69012 0.78442 0.0
O52 O 0.13538 0.66655 0.81317 0.0
H53 H 0.07032 0.57301 0.84631 0.0
H54 H 0.21231 0.58005 0.94114 0.0
C55 C 0.07728 0.69307 0.50657 0.0
C56 C 0.08789 0.70349 0.42277 0.0
C57 C 0.09759 0.63581 0.3895 0.0
C58 C 0.08716 0.62569 0.47203 0.0
N59 N 0.07659 0.6542 0.5291 0.0
N60 N 0.09746 0.67426 0.36679 0.0
H61 H 0.06868 0.7154 0.55268 0.0
C62 C 0.25708 0.63438 0.84582 0.0
O63 O 0.23225 0.65414 0.90204 0.0
O64 O 0.98661 0.63216 0.64997 0.0
H65 H 0.08742 0.59521 0.4899 0.0
H66 H 0.04744 0.52916 0.96522 0.0
H67 H 0.10564 0.61325 0.34364 0.0
Zn68 Zn 0.93234 0.13678 0.94721 0.0
C69 C 0.83717 0.04924 0.9219 0.0
N70 N 0.87043 0.02776 0.96267 0.0
C71 C 0.90926 0.05131 0.96176 0.0
N72 N 0.89991 0.08642 0.92455 0.0
N73 N 0.85488 0.08443 0.89705 0.0
C74 C 0.7346 0.13441 0.74418 0.0
O75 O 0.75945 0.15415 0.68795 0.0
O76 O 0.00508 0.13206 0.94 0.0
Zn77 Zn 0.83048 0.11142 0.79769 0.0
N78 N 0.91525 0.15422 0.06101 0.0
C79 C 0.89454 0.13581 0.20072 0.0
C80 C 0.90487 0.1257 0.11815 0.0
C81 C 0.91447 0.1931 0.0835 0.0
N82 N 0.89458 0.17426 0.22339 0.0
C83 C 0.90396 0.20351 0.16734 0.0
O84 O 0.85632 0.16655 0.77691 0.0
C85 C 0.888 0.19011 0.80565 0.0
O86 O 0.91518 0.18061 0.86672 0.0
H87 H 0.9047 0.09522 0.10029 0.0
H88 H 0.92293 0.21543 1.03732 0.0
C89 C 0.81604 0.06977 0.64262 0.0
C90 C 0.82877 0.04528 0.57526 0.0
C91 C 0.90796 0.04053 0.62993 0.0
C92 C 0.89515 0.06527 0.69653 0.0
N93 N 0.84929 0.07922 0.70191 0.0
N94 N 0.87444 0.0308 0.57116 0.0
H95 H 0.77943 0.08005 0.64896 0.0
C96 C 0.02616 0.13016 0.86916 0.0
O97 O -4e-05 0.12897 0.80055 0.0
O98 O 0.7571 0.11447 0.79934 0.0
H99 H 0.92132 0.07285 0.74417 0.0
H100 H 0.88665 0.11324 0.24664 0.0
H101 H 0.94419 0.0289 0.62542 0.0
Zn102 Zn 0.66125 0.93965 0.2977 0.0
C103 C 0.58246 0.99976 0.46198 0.0
N104 N 0.62134 1.02326 0.46311 0.0
C105 C 0.65455 1.00183 0.42211 0.0
N106 N 0.63674 0.96673 0.39688 0.0
N107 N 0.59171 0.96472 0.42437 0.0
C108 C 0.46555 0.92093 0.36922 0.0
O109 O 0.49177 0.92217 0.30063 0.0
O110 O 0.73462 0.93662 0.29941 0.0
Zn111 Zn 0.55937 0.91433 0.44723 0.0
N112 N 0.64245 0.97176 0.20177 0.0
C113 C 0.58373 1.01029 0.12957 0.0
C114 C 0.59656 0.98563 0.19626 0.0
C115 C 0.67572 0.98122 0.14252 0.0
N116 N 0.61727 1.02004 0.07083 0.0
C117 C 0.66297 1.00564 0.07506 0.0
O118 O 0.57652 0.87048 0.36676 0.0
C119 C 0.60372 0.86097 0.30573 0.0
O120 O 0.63542 0.88451 0.27701 0.0
H121 H 0.57037 0.97803 0.24388 0.0
H122 H 0.71236 0.97101 0.14897 0.0
C123 C 0.57724 0.85804 0.58352 0.0
C124 C 0.5878 0.84761 0.66733 0.0
C125 C 0.59742 0.9153 0.70066 0.0
C126 C 0.58704 0.92542 0.61812 0.0
N127 N 0.57653 0.89692 0.56101 0.0
N128 N 0.59731 0.87685 0.72334 0.0
H129 H 0.56868 0.83572 0.53737 0.0
C130 C 0.75713 0.91666 0.24426 0.0
O131 O 0.73228 0.8969 0.18808 0.0
O132 O 0.48662 0.91901 0.44006 0.0
H133 H 0.58729 0.9559 0.60026 0.0
H134 H 0.54748 1.02185 0.12496 0.0
H135 H 0.60543 0.93786 0.74655 0.0
Zn136 Zn 0.55933 0.63679 0.94719 0.0
C137 C 0.65455 0.54929 0.92192 0.0
N138 N 0.62129 0.52779 0.96265 0.0
C139 C 0.58244 0.55133 0.96171 0.0
N140 N 0.59179 0.58645 0.92453 0.0
N141 N 0.63683 0.58448 0.89707 0.0
C142 C 0.7571 0.63447 0.74415 0.0
O143 O 0.73225 0.65422 0.68795 0.0
O144 O 0.48659 0.63204 0.93993 0.0
Zn145 Zn 0.66123 0.61147 0.79771 0.0
N146 N 0.57638 0.65423 0.061 0.0
C147 C 0.59704 0.63581 0.20073 0.0
C148 C 0.58673 0.6257 0.11814 0.0
C149 C 0.57717 0.6931 0.08351 0.0
N150 N 0.59701 0.67426 0.22341 0.0
C151 C 0.58765 0.70351 0.16736 0.0
O152 O 0.63538 0.6666 0.77695 0.0
C153 C 0.6037 0.69015 0.80567 0.0
O154 O 0.5765 0.68065 0.86673 0.0
H155 H 0.5869 0.59522 0.10028 0.0
H156 H 0.56874 0.71544 1.03733 0.0
C157 C 0.67564 0.56983 0.64261 0.0
C158 C 0.66289 0.54536 0.57525 0.0
C159 C 0.5837 0.54061 0.62995 0.0
C160 C 0.59653 0.56533 0.69656 0.0
N161 N 0.64239 0.57928 0.70192 0.0
N162 N 0.61722 0.53088 0.57116 0.0
H163 H 0.71225 0.58011 0.64894 0.0
C164 C 0.46551 0.63014 0.86909 0.0
O165 O 0.49173 0.62896 0.80049 0.0
O166 O 0.7346 0.61453 0.79932 0.0
H167 H 0.57036 0.57292 0.74422 0.0
H168 H 0.60491 0.61323 0.24664 0.0
H169 H 0.54747 0.52899 0.62546 0.0
Zn170 Zn 0.93228 0.41433 0.44719 0.0
C171 C 0.83707 0.50183 0.42194 0.0
N172 N 0.87033 0.52332 0.46268 0.0
C173 C 0.90917 0.49979 0.46176 0.0
N174 N 0.89983 0.46468 0.42455 0.0
N175 N 0.8548 0.46664 0.39707 0.0
C176 C 0.73453 0.41665 0.24416 0.0
O177 O 0.75939 0.3969 0.18795 0.0
O178 O 0.00502 0.41908 0.43993 0.0
Zn179 Zn 0.8304 0.43965 0.29771 0.0
N180 N 0.91523 0.39688 0.56099 0.0
C181 C 0.89454 0.41528 0.70072 0.0
C182 C 0.90485 0.42539 0.61815 0.0
C183 C 0.91446 0.358 0.58348 0.0
N184 N 0.89459 0.37682 0.72339 0.0
C185 C 0.90397 0.34758 0.66733 0.0
O186 O 0.85625 0.38452 0.27694 0.0
C187 C 0.88793 0.36098 0.30566 0.0
O188 O 0.91513 0.37049 0.36671 0.0
H189 H 0.90467 0.45588 0.6003 0.0
H190 H 0.92292 0.33567 0.53729 0.0
C191 C 0.81598 0.48129 0.14263 0.0
C192 C 0.82872 0.50578 0.07527 0.0
C193 C 0.90791 0.51052 0.12995 0.0
C194 C 0.89509 0.4858 0.19655 0.0
N195 N 0.84922 0.47185 0.20192 0.0
N196 N 0.87439 0.52026 0.07117 0.0
H197 H 0.77936 0.47101 0.14897 0.0
C198 C 0.02611 0.42098 0.36909 0.0
O199 O -0.00011 0.42217 0.30049 0.0
O200 O 0.75703 0.43659 0.29933 0.0
H201 H 0.92125 0.47821 0.2442 0.0
H202 H 0.88664 0.43785 0.74665 0.0
H203 H 0.94414 0.52215 0.12545 0.0
Zn204 Zn 0.16124 0.93966 0.29241 0.0
C205 C 0.08244 0.99974 0.12813 0.0
N206 N 0.12131 1.02325 0.12699 0.0
C207 C 0.15453 1.00183 0.168 0.0
N208 N 0.13673 0.96673 0.19324 0.0
N209 N 0.0917 0.9647 0.16574 0.0
C210 C 0.96556 0.92089 0.22087 0.0
O211 O 0.99178 0.92215 0.28946 0.0
O212 O 0.23462 0.93663 0.29067 0.0
Zn213 Zn 0.05939 0.9143 0.14288 0.0
N214 N 0.14245 0.97177 0.38834 0.0
C215 C 0.08373 1.01031 0.46057 0.0
C216 C 0.09656 0.98564 0.39387 0.0
C217 C 0.17572 0.98124 0.44757 0.0
N218 N 0.11727 1.02006 0.51929 0.0
C219 C 0.16298 1.00566 0.51504 0.0
O220 O 0.07654 0.87045 0.22335 0.0
C221 C 0.10375 0.86096 0.28439 0.0
O222 O 0.13542 0.88452 0.31311 0.0
H223 H 0.07037 0.97804 0.34626 0.0
H224 H 0.21236 0.97103 0.44111 0.0
C225 C 0.07728 0.85802 1.00659 0.0
C226 C 0.08787 0.84759 0.92278 0.0
C227 C 0.09753 0.91528 0.88948 0.0
C228 C 0.08712 0.9254 0.97202 0.0
N229 N 0.07658 0.89689 1.0291 0.0
N230 N 0.09741 0.87683 0.86678 0.0
H231 H 0.0687 0.83569 0.05272 0.0
C232 C 0.25712 0.91668 0.34582 0.0
O233 O 0.23227 0.89691 0.40201 0.0
O234 O 0.98664 0.91896 0.15003 0.0
H235 H 0.08737 0.95588 0.98988 0.0
H236 H 0.04748 1.02187 0.4652 0.0
H237 H 0.10556 0.93784 0.84361 0.0
Zn238 Zn 0.43234 0.13681 0.64287 0.0
C239 C 0.33718 0.04927 0.66817 0.0
N240 N 0.37045 0.02779 0.6274 0.0
C241 C 0.40928 0.05134 0.62832 0.0
N242 N 0.39992 0.08645 0.66553 0.0
N243 N 0.35489 0.08446 0.69303 0.0
C244 C 0.23459 0.13443 0.84591 0.0
O245 O 0.25943 0.15417 0.90214 0.0
O246 O 0.50509 0.13209 0.65009 0.0
Zn247 Zn 0.33048 0.11144 0.79239 0.0
N248 N 0.41526 0.15425 0.52907 0.0
C249 C 0.39456 0.13583 0.38937 0.0
C250 C 0.40489 0.12573 0.47193 0.0
C251 C 0.41447 0.19312 0.50658 0.0
N252 N 0.39458 0.17428 0.36669 0.0
C253 C 0.40396 0.20353 0.42274 0.0
O254 O 0.35632 0.16657 0.81317 0.0
C255 C 0.38798 0.19014 0.78443 0.0
O256 O 0.41517 0.18065 0.72336 0.0
H257 H 0.40473 0.09524 0.48979 0.0
H258 H 0.42292 0.21546 0.55275 0.0
C259 C 0.31602 0.06979 0.94745 0.0
C260 C 0.32875 0.0453 1.01481 0.0
C261 C 0.40794 0.04055 0.96015 0.0
C262 C 0.39514 0.06529 0.89355 0.0
N263 N 0.34928 0.07924 0.88817 0.0
N264 N 0.37442 0.03082 1.01891 0.0
H265 H 0.27941 0.08008 0.94111 0.0
C266 C 0.52617 0.13019 0.72092 0.0
O267 O 0.49995 0.12899 0.78953 0.0
O268 O 0.25711 0.11449 0.79074 0.0
H269 H 0.42132 0.07287 0.84591 0.0
H270 H 0.38667 0.11326 0.34345 0.0
H271 H 0.44417 0.02892 0.96466 0.0
C272 C 0.25344 0.48252 0.12922 0.0
C273 C 0.28561 0.51139 0.15865 0.0
H274 H 0.18802 0.47097 0.06143 0.0
C275 C 0.27213 0.55123 0.15412 0.0
H276 H 0.26367 0.45171 0.12902 0.0
C277 C 0.22977 0.56225 0.11315 0.0
C278 C 0.19986 0.53357 0.07687 0.0
H279 H 0.29658 0.57407 0.17529 0.0
H280 H 0.22211 0.59331 0.10465 0.0
C281 C 0.21047 0.49356 0.08941 0.0
C282 C 0.23818 0.56858 0.62924 0.0
C283 C 0.20599 0.5397 0.65865 0.0
H284 H 0.3036 0.58012 0.56146 0.0
C285 C 0.21946 0.49987 0.65412 0.0
H286 H 0.22795 0.59938 0.62905 0.0
C287 C 0.26182 0.48885 0.61314 0.0
C288 C 0.29175 0.51752 0.57687 0.0
H289 H 0.195 0.47702 0.67527 0.0
H290 H 0.26948 0.45778 0.60463 0.0
C291 C 0.28115 0.55753 0.58943 0.0
C292 C 0.77217 0.99985 0.93596 0.0
C293 C 0.78561 0.03969 0.93139 0.0
H294 H 0.72219 0.95774 0.9855 0.0
C295 C 0.75341 0.06855 0.96079 0.0
H296 H 0.79663 0.97701 0.9148 0.0
C297 C 0.71045 0.05748 1.00063 0.0
C298 C 0.69989 1.01747 1.01322 0.0
H299 H 0.7636 0.09936 0.96095 0.0
H300 H 0.68798 0.08006 1.02858 0.0
C301 C 0.72982 0.9888 0.97697 0.0
C302 C 0.73827 0.98244 0.46097 0.0
C303 C 0.70613 1.01133 0.43152 0.0
H304 H 0.80365 0.97087 0.52883 0.0
C305 C 0.71964 0.05115 0.43605 0.0
H306 H 0.72802 0.95164 0.46115 0.0
C307 C 0.76199 0.06216 0.47707 0.0
C308 C 0.79187 0.03347 0.51339 0.0
H309 H 0.69521 0.07401 0.41487 0.0
H310 H 0.76967 0.09321 0.48557 0.0
C311 C 0.78123 0.99346 0.50084 0.0
C312 C 0.73829 0.56864 0.96088 0.0
C313 C 0.70612 0.53976 0.93145 0.0
H314 H 0.80367 0.58019 1.02875 0.0
C315 C 0.71959 0.49993 0.93603 0.0
H316 H 0.72808 0.59945 0.96101 0.0
C317 C 0.76192 0.48891 0.97709 0.0
C318 C 0.79182 0.51759 1.01339 0.0
H319 H 0.69515 0.47708 0.91484 0.0
H320 H 0.76958 0.45785 0.98562 0.0
C321 C 0.78123 0.5576 1.00078 0.0
C322 C 0.75333 0.48249 0.46087 0.0
C323 C 0.7855 0.51136 0.43145 0.0
H324 H 0.68794 0.47094 0.52874 0.0
C325 C 0.77203 0.55119 0.43601 0.0
H326 H 0.76354 0.45168 0.46102 0.0
C327 C 0.72969 0.56222 0.47706 0.0
C328 C 0.69979 0.53354 0.51336 0.0
H329 H 0.79647 0.57404 0.41482 0.0
H330 H 0.72204 0.59328 0.48558 0.0
C331 C 0.71038 0.49353 0.50076 0.0
C332 C 0.26195 0.06218 0.11299 0.0
C333 C 0.29183 0.03349 0.07668 0.0
H334 H 0.19516 0.07403 0.17518 0.0
C335 C 0.28121 0.99348 0.08925 0.0
H336 H 0.26962 0.09323 0.10447 0.0
C337 C 0.23825 0.98245 0.12913 0.0
C338 C 0.2061 1.01134 0.15857 0.0
H339 H 0.30365 0.97089 0.06127 0.0
H340 H 0.22802 0.95165 0.12895 0.0
C341 C 0.21959 0.05117 0.15402 0.0
C342 C 0.27218 0.99987 0.6541 0.0
C343 C 0.28562 0.03971 0.65868 0.0
H344 H 0.2222 0.95776 0.60457 0.0
C345 C 0.25341 0.06857 0.62929 0.0
H346 H 0.29664 0.97704 0.67526 0.0
C347 C 0.21046 0.05751 0.58945 0.0
C348 C 0.19989 1.01749 0.57686 0.0
H349 H 0.2636 0.09939 0.62913 0.0
H350 H 0.18799 0.08008 0.56151 0.0
C351 C 0.22983 0.98883 0.61311 0.0
C352 C 0.49862 0.50836 0.12463 0.0
C353 C 0.45398 0.51097 0.08424 0.0
H354 H 0.57463 0.51925 0.11695 0.0
C355 C 0.45138 0.5289 1.00476 0.0
H356 H 0.50099 0.49693 0.1878 0.0
C357 C 0.49308 0.54267 0.96511 0.0
C358 C 0.53772 0.54007 1.00551 0.0
H359 H 0.41708 0.53177 0.97278 0.0
H360 H 0.49072 0.5541 0.90195 0.0
C361 C 0.54032 0.52212 0.08497 0.0
C362 C -0.00147 0.50845 0.46514 0.0
C363 C 0.95389 0.51105 0.50555 0.0
H364 H 0.07453 0.51935 0.4728 0.0
C365 C 0.95128 0.529 0.58501 0.0
H366 H 0.00089 0.49702 0.40198 0.0
C367 C 0.99298 0.54276 0.62466 0.0
C368 C 0.03763 0.54015 0.58427 0.0
H369 H 0.91698 0.53186 0.617 0.0
H370 H 0.99062 0.55419 0.68783 0.0
C371 C 0.04023 0.52222 0.50478 0.0
C372 C 0.99307 1.00835 0.12467 0.0
C373 C 0.03772 1.01096 0.08429 0.0
H374 H 0.91707 1.01924 0.11701 0.0
C375 C 0.04033 0.0289 1.00481 0.0
H376 H 0.9907 0.99692 0.18784 0.0
C377 C -0.00137 0.04267 0.96517 0.0
C378 C 0.95399 0.04006 1.00557 0.0
H379 H 0.07463 0.03177 0.97283 0.0
H380 H 0.001 0.05411 0.90201 0.0
C381 C 0.95137 1.02211 0.08503 0.0
C382 C 0.49864 0.04271 0.62491 0.0
C383 C 0.454 0.0401 0.58451 0.0
H384 H 0.57464 0.03181 0.61726 0.0
C385 C 0.4514 1.02215 0.50505 0.0
H386 H 0.501 0.05414 0.68808 0.0
C387 C 0.4931 1.00838 0.46541 0.0
C388 C 0.53774 1.01099 0.50581 0.0
H389 H 0.4171 1.01928 0.47307 0.0
H390 H 0.49074 0.99695 0.40224 0.0
C391 C 0.54034 0.02894 0.58528 0.0
C392 C 0.41652 0.26008 0.77758 0.0
C393 C 0.39359 0.22983 0.82265 0.0
H394 H 0.43761 0.3207 0.77428 0.0
C395 C 0.37626 0.23805 0.90388 0.0
H396 H 0.43027 0.25486 0.71495 0.0
C397 C 0.38136 0.27584 0.93871 0.0
C398 C 0.40309 0.30627 0.8923 0.0
H399 H 0.35865 0.21531 0.94044 0.0
H400 H 0.3668 0.28157 1.00056 0.0
C401 C 0.42075 0.29785 0.81162 0.0
C402 C 0.11546 0.81305 0.40383 0.0
C403 C 0.09814 0.82127 0.32261 0.0
H404 H 0.12491 0.76953 0.50052 0.0
C405 C 0.0752 0.79102 0.27755 0.0
H406 H 0.13308 0.83578 0.44039 0.0
C407 C 0.07095 0.75326 0.3116 0.0
C408 C 0.0886 0.74484 0.39228 0.0
H409 H 0.06145 0.79623 0.21492 0.0
H410 H 0.05409 0.73041 0.27426 0.0
C411 C 0.11034 0.77526 0.43868 0.0
C412 C 0.88134 0.27525 0.15145 0.0
C413 C 0.90318 0.24486 0.19781 0.0
H414 H 0.8585 0.33574 0.14975 0.0
C415 C 0.92089 0.25331 0.27843 0.0
H416 H 0.86674 0.26949 0.08965 0.0
C417 C 0.9166 0.29108 0.31247 0.0
C418 C 0.89357 0.32129 0.26745 0.0
H419 H 0.93783 0.2305 0.31574 0.0
H420 H 0.9304 0.29632 0.37506 0.0
C421 C 0.87619 0.31304 0.18628 0.0
C422 C 0.61543 0.73807 0.68625 0.0
C423 C 0.59808 0.72983 0.76746 0.0
H424 H 0.62489 0.7816 0.58959 0.0
C425 C 0.5751 0.76007 0.8125 0.0
H426 H 0.63308 0.71535 0.64971 0.0
C427 C 0.57084 0.79783 0.77845 0.0
C428 C 0.58852 0.80627 0.6978 0.0
H429 H 0.56132 0.75484 0.87511 0.0
H430 H 0.55394 0.82067 0.81578 0.0
C431 C 0.6103 0.77586 0.65141 0.0
C432 C 0.57073 0.75331 0.27846 0.0
C433 C 0.58845 0.74486 0.19784 0.0
H434 H 0.56122 0.79631 0.3751 0.0
C435 C 0.61032 0.77524 0.1515 0.0
H436 H 0.55377 0.73049 0.31576 0.0
C437 C 0.61548 0.81303 0.18634 0.0
C438 C 0.59809 0.82128 0.26752 0.0
H439 H 0.62493 0.76949 0.0897 0.0
H440 H 0.63319 0.83573 0.14983 0.0
C441 C 0.57503 0.79107 0.31252 0.0
C442 C 0.88138 0.27584 0.65143 0.0
C443 C 0.90321 0.30623 0.69779 0.0
H444 H 0.85855 0.21534 0.64974 0.0
C445 C 0.92092 0.29778 0.77841 0.0
H446 H 0.86676 0.28159 0.58964 0.0
C447 C 0.91665 0.26002 0.81245 0.0
C448 C 0.89362 0.2298 0.76743 0.0
H449 H 0.93787 0.3206 0.81572 0.0
H450 H 0.93046 0.25478 0.87504 0.0
C451 C 0.87623 0.23804 0.68626 0.0
C452 C 0.07518 0.76006 0.77758 0.0
C453 C 0.09812 0.72981 0.82264 0.0
H454 H 0.05406 0.82066 0.77428 0.0
C455 C 0.11545 0.73804 0.90386 0.0
H456 H 0.06142 0.75484 0.71495 0.0
C457 C 0.11033 0.77583 0.9387 0.0
C458 C 0.08858 0.80625 0.8923 0.0
H459 H 0.13306 0.71531 0.94042 0.0
H460 H 0.12489 0.78156 1.00054 0.0
C461 C 0.07093 0.79782 0.81162 0.0
C462 C 0.37617 0.31306 0.40379 0.0
C463 C 0.39355 0.32131 0.3226 0.0
H464 H 0.36673 0.26951 0.50043 0.0
C465 C 0.41657 0.29109 0.27758 0.0
H466 H 0.35848 0.33576 0.44032 0.0
C467 C 0.42087 0.25333 0.31162 0.0
C468 C 0.40317 0.24488 0.39226 0.0
H469 H 0.43037 0.29633 0.21498 0.0
H470 H 0.43781 0.23051 0.27431 0.0
C471 C 0.38133 0.27527 0.43862 0.0
C472 C 0.6579 0.40847 0.16297 0.0
C473 C 0.68124 0.41831 0.23842 0.0
H474 H 0.59081 0.40226 0.09774 0.0
C475 C 0.65321 0.43016 0.30738 0.0
H476 H 0.6785 0.39968 0.10836 0.0
C477 C 0.60283 0.43124 0.30153 0.0
C478 C 0.57949 0.42114 0.22618 0.0
H479 H 0.67014 0.438 0.36624 0.0
H480 H 0.5822 0.44 0.35613 0.0
C481 C 0.60763 0.41018 0.1567 0.0
C482 C 0.884 0.64095 0.6567 0.0
C483 C 0.91215 0.62999 0.72618 0.0
H484 H 0.81314 0.65146 0.60836 0.0
C485 C 0.88879 0.61988 0.80152 0.0
H486 H 0.90083 0.64888 0.59775 0.0
C487 C 0.83842 0.62096 0.80736 0.0
C488 C 0.81039 0.63281 0.73841 0.0
H489 H 0.90942 0.61112 0.85611 0.0
H490 H 0.82148 0.61311 0.86623 0.0
C491 C 0.83374 0.64266 0.66297 0.0
C492 C 0.15328 0.12094 0.78262 0.0
C493 C 0.1813 0.13275 0.85161 0.0
H494 H 0.08228 0.11113 0.73381 0.0
C495 C 0.15794 0.14255 0.92708 0.0
H496 H 0.17023 0.11313 0.72374 0.0
C497 C 0.10768 0.14083 0.93332 0.0
C498 C 0.07954 0.12991 0.8638 0.0
H499 H 0.17853 0.15131 0.98173 0.0
H500 H 0.09084 0.14872 0.99229 0.0
C501 C 0.10291 0.11985 0.78843 0.0
C502 C 0.38883 0.93128 0.28847 0.0
C503 C 0.41217 0.92118 0.36383 0.0
H504 H 0.32152 0.93804 0.22375 0.0
C505 C 0.38401 0.91022 0.4333 0.0
H506 H 0.40947 0.94004 0.23388 0.0
C507 C 0.33375 0.90851 0.42702 0.0
C508 C 0.31042 0.91835 0.35156 0.0
H509 H 0.40083 0.9023 0.49226 0.0
H510 H 0.31314 0.89972 0.48163 0.0
C511 C 0.33845 0.9302 0.28262 0.0
C512 C 0.38878 0.61981 0.78836 0.0
C513 C 0.41213 0.62988 0.86373 0.0
H514 H 0.32146 0.61308 0.72366 0.0
C515 C 0.38399 0.6408 0.93324 0.0
H516 H 0.40941 0.61109 0.73374 0.0
C517 C 0.33372 0.64251 0.927 0.0
C518 C 0.31038 0.63271 0.85153 0.0
H519 H 0.40082 0.64869 0.99221 0.0
H520 H 0.31313 0.65127 0.98164 0.0
C521 C 0.3384 0.62089 0.78254 0.0
C522 C 0.15323 0.43021 0.28254 0.0
C523 C 0.18124 0.4184 0.35152 0.0
H524 H 0.08222 0.44002 0.23374 0.0
C525 C 0.15789 0.4086 0.42699 0.0
H526 H 0.17017 0.43802 0.22365 0.0
C527 C 0.10762 0.41032 0.43324 0.0
C528 C 0.07949 0.42123 0.36373 0.0
H529 H 0.17848 0.39984 0.48163 0.0
H530 H 0.09079 0.40243 0.49221 0.0
C531 C 0.10285 0.4313 0.28836 0.0
C532 C 0.83376 0.90847 0.16307 0.0
C533 C 0.81042 0.91832 0.23852 0.0
H534 H 0.90085 0.90225 0.09784 0.0
C535 C 0.83845 0.93018 0.30746 0.0
H536 H 0.81316 0.89968 0.10846 0.0
C537 C 0.88883 0.93125 0.30161 0.0
C538 C 0.91218 0.92114 0.22626 0.0
H539 H 0.82152 0.93803 0.36633 0.0
H540 H 0.90947 0.94001 0.3562 0.0
C541 C 0.88403 0.91018 0.15679 0.0
C542 C 0.6029 0.11986 0.80164 0.0
C543 C 0.57955 0.12993 0.72628 0.0
H544 H 0.67022 0.11312 0.86633 0.0
C545 C 0.60769 0.14085 0.65677 0.0
H546 H 0.58227 0.11113 0.85626 0.0
C547 C 0.65796 0.14255 0.66301 0.0
C548 C 0.6813 0.13275 0.73847 0.0
H549 H 0.59086 0.14874 0.5978 0.0
H550 H 0.67856 0.15131 0.60836 0.0
C551 C 0.65328 0.12093 0.80746 0.0
loop_
_geom_bond_atom_site_label_1
_geom_bond_atom_site_label_2
_geom_bond_distance
_geom_bond_site_symmetry_2
_ccdc_geom_bond_type
Zn0 N4 2.020 . S
Zn0 O8 2.019 . S
Zn0 N10 2.119 . S
Zn0 O18 1.975 . S
C1 N2 1.334 . S
C1 N5 1.336 . S
N2 C1 1.334 . S
N2 C3 1.334 . S
C3 N2 1.334 . S
C3 N4 1.336 . S
N4 Zn0 2.020 . S
N4 C3 1.336 . S
N4 N5 1.354 . S
N5 C1 1.336 . S
N5 N4 1.354 . S
N5 Zn9 2.020 . S
C6 O7 1.244 . S
C6 O30 1.257 . S
O7 C6 1.244 . S
O8 Zn0 2.019 . S
O8 C28 1.257 . S
Zn9 N5 2.020 . S
Zn9 O16 1.975 . S
Zn9 N25 2.119 . S
Zn9 O30 2.019 . S
N10 Zn0 2.119 . S
N10 C12 1.334 . S
N10 C13 1.328 . S
C11 C12 1.391 . S
C11 N14 1.329 . S
C11 H32 0.930 . S
C12 N10 1.334 . S
C12 C11 1.391 . S
C12 H19 0.930 . S
C13 N10 1.328 . S
C13 C15 1.392 . S
C13 H20 0.930 . S
N14 C11 1.329 . S
N14 C15 1.331 . S
C15 C13 1.392 . S
C15 N14 1.331 . S
O16 Zn9 1.975 . S
O16 C17 1.252 . S
C17 O16 1.252 . S
C17 O18 1.252 . S
O18 Zn0 1.975 . S
O18 C17 1.252 . S
H19 C12 0.930 . S
H20 C13 0.930 . S
C21 C22 1.392 . S
C21 N25 1.328 . S
C21 H27 0.930 . S
C22 C21 1.392 . S
C22 N26 1.331 . S
C23 C24 1.391 . S
C23 N26 1.329 . S
C23 H33 0.930 . S
C24 C23 1.391 . S
C24 N25 1.334 . S
C24 H31 0.930 . S
N25 Zn9 2.119 . S
N25 C21 1.328 . S
N25 C24 1.334 . S
N26 C22 1.331 . S
N26 C23 1.329 . S
H27 C21 0.930 . S
C28 O8 1.257 . S
C28 O29 1.244 . S
O29 C28 1.244 . S
O30 C6 1.257 . S
O30 Zn9 2.019 . S
H31 C24 0.930 . S
H32 C11 0.930 . S
H33 C23 0.930 . S
Zn34 N38 2.020 . S
Zn34 O42 2.019 . S
Zn34 N44 2.119 . S
Zn34 O52 1.975 . S
C35 N36 1.334 . S
C35 N39 1.336 . S
N36 C35 1.334 . S
N36 C37 1.334 . S
C37 N36 1.334 . S
C37 N38 1.336 . S
N38 Zn34 2.020 . S
N38 C37 1.336 . S
N38 N39 1.354 . S
N39 C35 1.336 . S
N39 N38 1.354 . S
N39 Zn43 2.020 . S
C40 O41 1.244 . S
C40 O64 1.257 . S
O41 C40 1.244 . S
O42 Zn34 2.019 . S
O42 C62 1.257 . S
Zn43 N39 2.020 . S
Zn43 O50 1.975 . S
Zn43 N59 2.119 . S
Zn43 O64 2.019 1_455 S
N44 Zn34 2.119 . S
N44 C46 1.334 . S
N44 C47 1.328 . S
C45 C46 1.391 . S
C45 N48 1.329 . S
C45 H66 0.930 . S
C46 N44 1.334 . S
C46 C45 1.391 . S
C46 H53 0.930 . S
C47 N44 1.328 . S
C47 C49 1.392 . S
C47 H54 0.930 . S
N48 C45 1.329 . S
N48 C49 1.331 . S
C49 C47 1.392 . S
C49 N48 1.331 . S
O50 Zn43 1.975 . S
O50 C51 1.252 . S
C51 O50 1.252 . S
C51 O52 1.252 . S
O52 Zn34 1.975 . S
O52 C51 1.252 . S
H53 C46 0.930 . S
H54 C47 0.930 . S
C55 C56 1.392 . S
C55 N59 1.328 . S
C55 H61 0.924 1_455 S
C56 C55 1.392 . S
C56 N60 1.331 . S
C57 C58 1.391 . S
C57 N60 1.329 . S
C57 H67 0.930 . S
C58 C57 1.391 . S
C58 N59 1.334 . S
C58 H65 0.930 . S
N59 Zn43 2.119 . S
N59 C55 1.328 . S
N59 C58 1.334 . S
N60 C56 1.331 . S
N60 C57 1.329 . S
H61 C55 0.924 1_655 S
C62 O42 1.257 . S
C62 O63 1.244 . S
O63 C62 1.244 . S
O64 C40 1.257 . S
O64 Zn43 2.019 1_655 S
H65 C58 0.930 . S
H66 C45 0.930 . S
H67 C57 0.930 . S
Zn68 N72 2.020 . S
Zn68 O76 2.019 1_655 S
Zn68 N78 2.119 . S
Zn68 O86 1.975 . S
C69 N70 1.334 . S
C69 N73 1.336 . S
N70 C69 1.334 . S
N70 C71 1.334 . S
C71 N70 1.334 . S
C71 N72 1.336 . S
N72 Zn68 2.020 . S
N72 C71 1.336 . S
N72 N73 1.354 . S
N73 C69 1.336 . S
N73 N72 1.354 . S
N73 Zn77 2.020 . S
C74 O75 1.244 . S
C74 O98 1.257 . S
O75 C74 1.244 . S
O76 Zn68 2.019 1_455 S
O76 C96 1.257 . S
Zn77 N73 2.020 . S
Zn77 O84 1.975 . S
Zn77 N93 2.119 . S
Zn77 O98 2.019 . S
N78 Zn68 2.119 . S
N78 C80 1.334 . S
N78 C81 1.328 . S
C79 C80 1.391 . S
C79 N82 1.329 . S
C79 H100 0.930 . S
C80 N78 1.334 . S
C80 C79 1.391 . S
C80 H87 0.930 . S
C81 N78 1.328 . S
C81 C83 1.392 . S
C81 H88 0.924 1_655 S
N82 C79 1.329 . S
N82 C83 1.331 . S
C83 C81 1.392 . S
C83 N82 1.331 . S
O84 Zn77 1.975 . S
O84 C85 1.252 . S
C85 O84 1.252 . S
C85 O86 1.252 . S
O86 Zn68 1.975 . S
O86 C85 1.252 . S
H87 C80 0.930 . S
H88 C81 0.924 1_455 S
C89 C90 1.392 . S
C89 N93 1.328 . S
C89 H95 0.930 . S
C90 C89 1.392 . S
C90 N94 1.331 . S
C91 C92 1.391 . S
C91 N94 1.329 . S
C91 H101 0.930 . S
C92 C91 1.391 . S
C92 N93 1.334 . S
C92 H99 0.930 . S
N93 Zn77 2.119 . S
N93 C89 1.328 . S
N93 C92 1.334 . S
N94 C90 1.331 . S
N94 C91 1.329 . S
H95 C89 0.930 . S
C96 O76 1.257 . S
C96 O97 1.244 . S
O97 C96 1.244 . S
O98 C74 1.257 . S
O98 Zn77 2.019 . S
H99 C92 0.930 . S
H100 C79 0.930 . S
H101 C91 0.930 . S
Zn102 N106 2.020 . S
Zn102 O110 2.019 . S
Zn102 N112 2.119 . S
Zn102 O120 1.975 . S
C103 N104 1.334 . S
C103 N107 1.336 . S
N104 C103 1.334 . S
N104 C105 1.334 . S
C105 N104 1.334 . S
C105 N106 1.336 . S
N106 Zn102 2.020 . S
N106 C105 1.336 . S
N106 N107 1.354 . S
N107 C103 1.336 . S
N107 N106 1.354 . S
N107 Zn111 2.020 . S
C108 O109 1.244 . S
C108 O132 1.257 . S
O109 C108 1.244 . S
O110 Zn102 2.019 . S
O110 C130 1.257 . S
Zn111 N107 2.020 . S
Zn111 O118 1.975 . S
Zn111 N127 2.119 . S
Zn111 O132 2.019 . S
N112 Zn102 2.119 . S
N112 C114 1.334 . S
N112 C115 1.328 . S
C113 C114 1.391 . S
C113 N116 1.329 . S
C113 H134 0.930 . S
C114 N112 1.334 . S
C114 C113 1.391 . S
C114 H121 0.930 . S
C115 N112 1.328 . S
C115 C117 1.392 . S
C115 H122 0.930 . S
N116 C113 1.329 . S
N116 C117 1.331 . S
C117 C115 1.392 . S
C117 N116 1.331 . S
O118 Zn111 1.975 . S
O118 C119 1.252 . S
C119 O118 1.252 . S
C119 O120 1.252 . S
O120 Zn102 1.975 . S
O120 C119 1.252 . S
H121 C114 0.930 . S
H122 C115 0.930 . S
C123 C124 1.392 . S
C123 N127 1.328 . S
C123 H129 0.930 . S
C124 C123 1.392 . S
C124 N128 1.331 . S
C125 C126 1.391 . S
C125 N128 1.329 . S
C125 H135 0.930 . S
C126 C125 1.391 . S
C126 N127 1.334 . S
C126 H133 0.930 . S
N127 Zn111 2.119 . S
N127 C123 1.328 . S
N127 C126 1.334 . S
N128 C124 1.331 . S
N128 C125 1.329 . S
H129 C123 0.930 . S
C130 O110 1.257 . S
C130 O131 1.244 . S
O131 C130 1.244 . S
O132 C108 1.257 . S
O132 Zn111 2.019 . S
H133 C126 0.930 . S
H134 C113 0.930 . S
H135 C125 0.930 . S
Zn136 N140 2.020 . S
Zn136 O144 2.019 . S
Zn136 N146 2.119 . S
Zn136 O154 1.975 . S
C137 N138 1.334 . S
C137 N141 1.336 . S
N138 C137 1.334 . S
N138 C139 1.334 . S
C139 N138 1.334 . S
C139 N140 1.336 . S
N140 Zn136 2.020 . S
N140 C139 1.336 . S
N140 N141 1.354 . S
N141 C137 1.336 . S
N141 N140 1.354 . S
N141 Zn145 2.020 . S
C142 O143 1.244 . S
C142 O166 1.257 . S
O143 C142 1.244 . S
O144 Zn136 2.019 . S
O144 C164 1.257 . S
Zn145 N141 2.020 . S
Zn145 O152 1.975 . S
Zn145 N161 2.119 . S
Zn145 O166 2.019 . S
N146 Zn136 2.119 . S
N146 C148 1.334 . S
N146 C149 1.328 . S
C147 C148 1.391 . S
C147 N150 1.329 . S
C147 H168 0.930 . S
C148 N146 1.334 . S
C148 C147 1.391 . S
C148 H155 0.930 . S
C149 N146 1.328 . S
C149 C151 1.392 . S
C149 H156 0.930 . S
N150 C147 1.329 . S
N150 C151 1.331 . S
C151 C149 1.392 . S
C151 N150 1.331 . S
O152 Zn145 1.975 . S
O152 C153 1.252 . S
C153 O152 1.252 . S
C153 O154 1.252 . S
O154 Zn136 1.975 . S
O154 C153 1.252 . S
H155 C148 0.930 . S
H156 C149 0.930 . S
C157 C158 1.392 . S
C157 N161 1.328 . S
C157 H163 0.930 . S
C158 C157 1.392 . S
C158 N162 1.331 . S
C159 C160 1.391 . S
C159 N162 1.329 . S
C159 H169 0.930 . S
C160 C159 1.391 . S
C160 N161 1.334 . S
C160 H167 0.930 . S
N161 Zn145 2.119 . S
N161 C157 1.328 . S
N161 C160 1.334 . S
N162 C158 1.331 . S
N162 C159 1.329 . S
H163 C157 0.930 . S
C164 O144 1.257 . S
C164 O165 1.244 . S
O165 C164 1.244 . S
O166 C142 1.257 . S
O166 Zn145 2.019 . S
H167 C160 0.930 . S
H168 C147 0.930 . S
H169 C159 0.930 . S
Zn170 N174 2.020 . S
Zn170 O178 2.019 1_655 S
Zn170 N180 2.119 . S
Zn170 O188 1.975 . S
C171 N172 1.334 . S
C171 N175 1.336 . S
N172 C171 1.334 . S
N172 C173 1.334 . S
C173 N172 1.334 . S
C173 N174 1.336 . S
N174 Zn170 2.020 . S
N174 C173 1.336 . S
N174 N175 1.354 . S
N175 C171 1.336 . S
N175 N174 1.354 . S
N175 Zn179 2.020 . S
C176 O177 1.244 . S
C176 O200 1.257 . S
O177 C176 1.244 . S
O178 Zn170 2.019 1_455 S
O178 C198 1.257 . S
Zn179 N175 2.020 . S
Zn179 O186 1.975 . S
Zn179 N195 2.119 . S
Zn179 O200 2.019 . S
N180 Zn170 2.119 . S
N180 C182 1.334 . S
N180 C183 1.328 . S
C181 C182 1.391 . S
C181 N184 1.329 . S
C181 H202 0.930 . S
C182 N180 1.334 . S
C182 C181 1.391 . S
C182 H189 0.930 . S
C183 N180 1.328 . S
C183 C185 1.392 . S
C183 H190 0.924 1_655 S
N184 C181 1.329 . S
N184 C185 1.331 . S
C185 C183 1.392 . S
C185 N184 1.331 . S
O186 Zn179 1.975 . S
O186 C187 1.252 . S
C187 O186 1.252 . S
C187 O188 1.252 . S
O188 Zn170 1.975 . S
O188 C187 1.252 . S
H189 C182 0.930 . S
H190 C183 0.924 1_455 S
C191 C192 1.392 . S
C191 N195 1.328 . S
C191 H197 0.930 . S
C192 C191 1.392 . S
C192 N196 1.331 . S
C193 C194 1.391 . S
C193 N196 1.329 . S
C193 H203 0.930 . S
C194 C193 1.391 . S
C194 N195 1.334 . S
C194 H201 0.930 . S
N195 Zn179 2.119 . S
N195 C191 1.328 . S
N195 C194 1.334 . S
N196 C192 1.331 . S
N196 C193 1.329 . S
H197 C191 0.930 . S
C198 O178 1.257 . S
C198 O199 1.244 . S
O199 C198 1.244 . S
O200 C176 1.257 . S
O200 Zn179 2.019 . S
H201 C194 0.930 . S
H202 C181 0.930 . S
H203 C193 0.930 . S
Zn204 N208 2.020 . S
Zn204 O212 2.019 . S
Zn204 N214 2.119 . S
Zn204 O222 1.975 . S
C205 N206 1.334 . S
C205 N209 1.336 . S
N206 C205 1.334 . S
N206 C207 1.334 . S
C207 N206 1.334 . S
C207 N208 1.336 . S
N208 Zn204 2.020 . S
N208 C207 1.336 . S
N208 N209 1.354 . S
N209 C205 1.336 . S
N209 N208 1.354 . S
N209 Zn213 2.020 . S
C210 O211 1.244 . S
C210 O234 1.257 . S
O211 C210 1.244 . S
O212 Zn204 2.019 . S
O212 C232 1.257 . S
Zn213 N209 2.020 . S
Zn213 O220 1.975 . S
Zn213 N229 2.119 . S
Zn213 O234 2.019 1_455 S
N214 Zn204 2.119 . S
N214 C216 1.334 . S
N214 C217 1.328 . S
C215 C216 1.391 . S
C215 N218 1.329 . S
C215 H236 0.930 . S
C216 N214 1.334 . S
C216 C215 1.391 . S
C216 H223 0.930 . S
C217 N214 1.328 . S
C217 C219 1.392 . S
C217 H224 0.930 . S
N218 C215 1.329 . S
N218 C219 1.331 . S
C219 C217 1.392 . S
C219 N218 1.331 . S
O220 Zn213 1.975 . S
O220 C221 1.252 . S
C221 O220 1.252 . S
C221 O222 1.252 . S
O222 Zn204 1.975 . S
O222 C221 1.252 . S
H223 C216 0.930 . S
H224 C217 0.930 . S
C225 C226 1.392 . S
C225 N229 1.328 . S
C225 H231 0.924 1_455 S
C226 C225 1.392 . S
C226 N230 1.331 . S
C227 C228 1.391 . S
C227 N230 1.329 . S
C227 H237 0.930 . S
C228 C227 1.391 . S
C228 N229 1.334 . S
C228 H235 0.930 . S
N229 Zn213 2.119 . S
N229 C225 1.328 . S
N229 C228 1.334 . S
N230 C226 1.331 . S
N230 C227 1.329 . S
H231 C225 0.924 1_655 S
C232 O212 1.257 . S
C232 O233 1.244 . S
O233 C232 1.244 . S
O234 C210 1.257 . S
O234 Zn213 2.019 1_655 S
H235 C228 0.930 . S
H236 C215 0.930 . S
H237 C227 0.930 . S
Zn238 N242 2.020 . S
Zn238 O246 2.019 . S
Zn238 N248 2.119 . S
Zn238 O256 1.975 . S
C239 N240 1.334 . S
C239 N243 1.336 . S
N240 C239 1.334 . S
N240 C241 1.334 . S
C241 N240 1.334 . S
C241 N242 1.336 . S
N242 Zn238 2.020 . S
N242 C241 1.336 . S
N242 N243 1.354 . S
N243 C239 1.336 . S
N243 N242 1.354 . S
N243 Zn247 2.020 . S
C244 O245 1.244 . S
C244 O268 1.257 . S
O245 C244 1.244 . S
O246 Zn238 2.019 . S
O246 C266 1.257 . S
Zn247 N243 2.020 . S
Zn247 O254 1.975 . S
Zn247 N263 2.119 . S
Zn247 O268 2.019 . S
N248 Zn238 2.119 . S
N248 C250 1.334 . S
N248 C251 1.328 . S
C249 C250 1.391 . S
C249 N252 1.329 . S
C249 H270 0.930 . S
C250 N248 1.334 . S
C250 C249 1.391 . S
C250 H257 0.930 . S
C251 N248 1.328 . S
C251 C253 1.392 . S
C251 H258 0.930 . S
N252 C249 1.329 . S
N252 C253 1.331 . S
C253 C251 1.392 . S
C253 N252 1.331 . S
O254 Zn247 1.975 . S
O254 C255 1.252 . S
C255 O254 1.252 . S
C255 O256 1.252 . S
O256 Zn238 1.975 . S
O256 C255 1.252 . S
H257 C250 0.930 . S
H258 C251 0.930 . S
C259 C260 1.392 . S
C259 N263 1.328 . S
C259 H265 0.930 . S
C260 C259 1.392 . S
C260 N264 1.331 . S
C261 C262 1.391 . S
C261 N264 1.329 . S
C261 H271 0.930 . S
C262 C261 1.391 . S
C262 N263 1.334 . S
C262 H269 0.930 . S
N263 Zn247 2.119 . S
N263 C259 1.328 . S
N263 C262 1.334 . S
N264 C260 1.331 . S
N264 C261 1.329 . S
H265 C259 0.930 . S
C266 O246 1.257 . S
C266 O267 1.244 . S
O267 C266 1.244 . S
O268 C244 1.257 . S
O268 Zn247 2.019 . S
H269 C262 0.930 . S
H270 C249 0.930 . S
H271 C261 0.930 . S
C272 C273 1.387 . S
C272 H276 0.950 . S
C272 C281 1.390 . S
C273 C272 1.387 . S
C273 C275 1.387 . S
H274 C281 0.950 . S
C275 C273 1.387 . S
C275 C277 1.390 . S
C275 H279 0.950 . S
H276 C272 0.950 . S
C277 C275 1.390 . S
C277 C278 1.387 . S
C277 H280 0.950 1_554 S
C278 C277 1.387 . S
C278 C281 1.387 . S
H279 C275 0.950 . S
H280 C277 0.950 1_556 S
C281 C272 1.390 . S
C281 H274 0.950 . S
C281 C278 1.387 . S
C282 C283 1.387 . S
C282 H286 0.950 . S
C282 C291 1.390 . S
C283 C282 1.387 . S
C283 C285 1.387 . S
H284 C291 0.950 . S
C285 C283 1.387 . S
C285 C287 1.390 . S
C285 H289 0.950 . S
H286 C282 0.950 . S
C287 C285 1.390 . S
C287 C288 1.387 . S
C287 H290 0.950 . S
C288 C287 1.387 . S
C288 C291 1.387 . S
H289 C285 0.950 . S
H290 C287 0.950 . S
C291 C282 1.390 . S
C291 H284 0.950 . S
C291 C288 1.387 . S
C292 C293 1.387 1_565 S
C292 H296 0.950 . S
C292 C301 1.390 . S
C293 C292 1.387 1_545 S
C293 C295 1.387 . S
H294 C301 0.950 . S
C295 C293 1.387 . S
C295 C297 1.390 . S
C295 H299 0.950 . S
H296 C292 0.950 . S
C297 C295 1.390 . S
C297 C298 1.420 . S
C297 H300 0.950 1_556 S
C298 C297 1.420 . S
C298 C301 1.373 1_545 S
H299 C295 0.950 . S
H300 C297 0.950 1_554 S
C301 C292 1.390 . S
C301 H294 0.950 . S
C301 C298 1.373 1_565 S
C302 C303 1.387 . S
C302 H306 0.950 . S
C302 C311 1.390 . S
C303 C302 1.387 . S
C303 C305 1.387 1_565 S
H304 C311 0.950 . S
C305 C303 1.387 1_545 S
C305 C307 1.390 . S
C305 H309 0.950 . S
H306 C302 0.950 . S
C307 C305 1.390 . S
C307 C308 1.369 1_545 S
C307 H310 0.950 . S
C308 C307 1.369 1_565 S
C308 C311 1.417 . S
H309 C305 0.950 . S
H310 C307 0.950 . S
C311 C302 1.390 . S
C311 H304 0.950 . S
C311 C308 1.417 . S
C312 C313 1.387 . S
C312 H316 0.950 . S
C312 C321 1.390 1_556 S
C313 C312 1.387 . S
C313 C315 1.387 . S
H314 C321 0.950 . S
C315 C313 1.387 . S
C315 C317 1.390 . S
C315 H319 0.950 . S
H316 C312 0.950 . S
C317 C315 1.390 . S
C317 C318 1.396 . S
C317 H320 0.950 . S
C318 C317 1.396 . S
C318 C321 1.387 1_556 S
H319 C315 0.950 . S
H320 C317 0.950 . S
C321 C312 1.390 1_554 S
C321 H314 0.950 . S
C321 C318 1.387 1_554 S
C322 C323 1.387 . S
C322 H326 0.950 . S
C322 C331 1.390 . S
C323 C322 1.387 . S
C323 C325 1.387 . S
H324 C331 0.950 . S
C325 C323 1.387 . S
C325 C327 1.390 . S
C325 H329 0.950 . S
H326 C322 0.950 . S
C327 C325 1.390 . S
C327 C328 1.387 . S
C327 H330 0.950 . S
C328 C327 1.387 . S
C328 C331 1.387 . S
H329 C325 0.950 . S
H330 C327 0.950 . S
C331 C322 1.390 . S
C331 H324 0.950 . S
C331 C328 1.387 . S
C332 C333 1.368 1_545 S
C332 H336 0.950 . S
C332 C341 1.390 . S
C333 C332 1.368 1_565 S
C333 C335 1.417 1_554 S
H334 C341 0.950 . S
C335 C333 1.417 1_556 S
C335 C337 1.390 1_556 S
C335 H339 0.950 . S
H336 C332 0.950 . S
C337 C335 1.390 1_554 S
C337 C338 1.387 . S
C337 H340 0.950 . S
C338 C337 1.387 . S
C338 C341 1.387 1_565 S
H339 C335 0.950 . S
H340 C337 0.950 . S
C341 C332 1.390 . S
C341 H334 0.950 . S
C341 C338 1.387 1_545 S
C342 C343 1.387 1_565 S
C342 H346 0.950 . S
C342 C351 1.390 . S
C343 C342 1.387 1_545 S
C343 C345 1.387 . S
H344 C351 0.950 . S
C345 C343 1.387 . S
C345 C347 1.390 . S
C345 H349 0.950 . S
H346 C342 0.950 . S
C347 C345 1.390 . S
C347 C348 1.387 . S
C347 H350 0.950 . S
C348 C347 1.387 . S
C348 C351 1.387 1_545 S
H349 C345 0.950 . S
H350 C347 0.950 . S
C351 C342 1.390 . S
C351 H344 0.950 . S
C351 C348 1.387 1_565 S
C352 C353 1.387 . S
C352 H356 0.950 . S
C352 C361 1.390 . S
C353 C352 1.387 . S
C353 C355 1.387 1_554 S
H354 C361 0.950 . S
C355 C353 1.387 1_556 S
C355 C357 1.390 . S
C355 H359 0.950 . S
H356 C352 0.950 . S
C357 C355 1.390 . S
C357 C358 1.387 . S
C357 H360 0.950 . S
C358 C357 1.387 . S
C358 C361 1.387 1_556 S
H359 C355 0.950 . S
H360 C357 0.950 . S
C361 C352 1.390 . S
C361 H354 0.950 . S
C361 C358 1.387 1_554 S
C362 C363 1.387 . S
C362 H366 0.950 . S
C362 C371 1.390 1_655 S
C363 C362 1.387 . S
C363 C365 1.387 . S
H364 C371 0.950 . S
C365 C363 1.387 . S
C365 C367 1.390 1_655 S
C365 H369 0.950 . S
H366 C362 0.950 . S
C367 C365 1.390 1_455 S
C367 C368 1.387 . S
C367 H370 0.950 . S
C368 C367 1.387 . S
C368 C371 1.387 . S
H369 C365 0.950 . S
H370 C367 0.950 . S
C371 C362 1.390 1_455 S
C371 H364 0.950 . S
C371 C368 1.387 . S
C372 C373 1.386 . S
C372 H376 0.950 . S
C372 C381 1.392 1_465 S
C373 C372 1.386 . S
C373 C375 1.387 1_554 S
H374 C381 0.950 . S
C375 C373 1.387 1_556 S
C375 C377 1.392 1_465 S
C375 H379 0.950 . S
H376 C372 0.950 . S
C377 C375 1.392 1_645 S
C377 C378 1.386 . S
C377 H380 0.950 . S
C378 C377 1.386 . S
C378 C381 1.387 1_556 S
H379 C375 0.950 . S
H380 C377 0.950 . S
C381 C372 1.392 1_645 S
C381 H374 0.950 . S
C381 C378 1.387 1_554 S
C382 C383 1.387 . S
C382 H386 0.950 . S
C382 C391 1.390 1_545 S
C383 C382 1.387 . S
C383 C385 1.387 . S
H384 C391 0.950 . S
C385 C383 1.387 . S
C385 C387 1.390 1_545 S
C385 H389 0.950 . S
H386 C382 0.950 . S
C387 C385 1.390 1_565 S
C387 C388 1.387 . S
C387 H390 0.950 . S
C388 C387 1.387 . S
C388 C391 1.387 . S
H389 C385 0.950 . S
H390 C387 0.950 . S
C391 C382 1.390 1_565 S
C391 H384 0.950 . S
C391 C388 1.387 . S
C392 C393 1.387 . S
C392 H396 0.950 . S
C392 C401 1.390 . S
C393 C392 1.387 . S
C393 C395 1.387 . S
H394 C401 0.950 . S
C395 C393 1.387 . S
C395 C397 1.390 1_556 S
C395 H399 0.950 . S
H396 C392 0.950 . S
C397 C395 1.390 1_554 S
C397 C398 1.387 1_554 S
C397 H400 0.950 . S
C398 C397 1.387 1_556 S
C398 C401 1.387 . S
H399 C395 0.950 . S
H400 C397 0.950 . S
C401 C392 1.390 . S
C401 H394 0.950 . S
C401 C398 1.387 . S
C402 C403 1.387 . S
C402 H406 0.950 . S
C402 C411 1.390 . S
C403 C402 1.387 . S
C403 C405 1.387 . S
H404 C411 0.950 . S
C405 C403 1.387 . S
C405 C407 1.390 . S
C405 H409 0.950 . S
H406 C402 0.950 . S
C407 C405 1.390 . S
C407 C408 1.387 . S
C407 H410 0.950 1_455 S
C408 C407 1.387 . S
C408 C411 1.387 . S
H409 C405 0.950 . S
H410 C407 0.950 1_655 S
C411 C402 1.390 . S
C411 H404 0.950 . S
C411 C408 1.387 . S
C412 C413 1.387 1_556 S
C412 H416 0.950 . S
C412 C421 1.390 1_556 S
C413 C412 1.387 1_554 S
C413 C415 1.387 . S
H414 C421 0.950 . S
C415 C413 1.387 . S
C415 C417 1.390 . S
C415 H419 0.950 . S
H416 C412 0.950 . S
C417 C415 1.390 . S
C417 C418 1.387 . S
C417 H420 0.950 . S
C418 C417 1.387 . S
C418 C421 1.387 . S
H419 C415 0.950 . S
H420 C417 0.950 . S
C421 C412 1.390 1_554 S
C421 H414 0.950 . S
C421 C418 1.387 . S
C422 C423 1.387 . S
C422 H426 0.950 . S
C422 C431 1.390 . S
C423 C422 1.387 . S
C423 C425 1.387 . S
H424 C431 0.950 . S
C425 C423 1.387 . S
C425 C427 1.390 . S
C425 H429 0.950 . S
H426 C422 0.950 . S
C427 C425 1.390 . S
C427 C428 1.387 . S
C427 H430 0.950 . S
C428 C427 1.387 . S
C428 C431 1.387 . S
H429 C425 0.950 . S
H430 C427 0.950 . S
C431 C422 1.390 . S
C431 H424 0.950 . S
C431 C428 1.387 . S
C432 C433 1.387 . S
C432 H436 0.950 . S
C432 C441 1.390 . S
C433 C432 1.387 . S
C433 C435 1.387 . S
H434 C441 0.950 . S
C435 C433 1.387 . S
C435 C437 1.390 . S
C435 H439 0.950 1_554 S
H436 C432 0.950 . S
C437 C435 1.390 . S
C437 C438 1.387 . S
C437 H440 0.950 . S
C438 C437 1.387 . S
C438 C441 1.387 . S
H439 C435 0.950 1_556 S
H440 C437 0.950 . S
C441 C432 1.390 . S
C441 H434 0.950 . S
C441 C438 1.387 . S
C442 C443 1.387 . S
C442 H446 0.950 . S
C442 C451 1.390 . S
C443 C442 1.387 . S
C443 C445 1.387 . S
H444 C451 0.950 . S
C445 C443 1.387 . S
C445 C447 1.390 . S
C445 H449 0.950 . S
H446 C442 0.950 . S
C447 C445 1.390 . S
C447 C448 1.387 . S
C447 H450 0.950 . S
C448 C447 1.387 . S
C448 C451 1.387 . S
H449 C445 0.950 . S
H450 C447 0.950 . S
C451 C442 1.390 . S
C451 H444 0.950 . S
C451 C448 1.387 . S
C452 C453 1.387 . S
C452 H456 0.950 . S
C452 C461 1.390 . S
C453 C452 1.387 . S
C453 C455 1.387 . S
H454 C461 0.950 . S
C455 C453 1.387 . S
C455 C457 1.390 . S
C455 H459 0.950 . S
H456 C452 0.950 . S
C457 C455 1.390 . S
C457 C458 1.387 . S
C457 H460 0.950 1_556 S
C458 C457 1.387 . S
C458 C461 1.387 . S
H459 C455 0.950 . S
H460 C457 0.950 1_554 S
C461 C452 1.390 . S
C461 H454 0.950 . S
C461 C458 1.387 . S
C462 C463 1.387 . S
C462 H466 0.950 . S
C462 C471 1.390 . S
C463 C462 1.387 . S
C463 C465 1.387 . S
H464 C471 0.950 . S
C465 C463 1.387 . S
C465 C467 1.390 . S
C465 H469 0.950 . S
H466 C462 0.950 . S
C467 C465 1.390 . S
C467 C468 1.387 . S
C467 H470 0.950 . S
C468 C467 1.387 . S
C468 C471 1.387 . S
H469 C465 0.950 . S
H470 C467 0.950 . S
C471 C462 1.390 . S
C471 H464 0.950 . S
C471 C468 1.387 . S
C472 C473 1.387 . S
C472 H476 0.950 . S
C472 C481 1.390 . S
C473 C472 1.387 . S
C473 C475 1.387 . S
H474 C481 0.950 . S
C475 C473 1.387 . S
C475 C477 1.390 . S
C475 H479 0.950 . S
H476 C472 0.950 . S
C477 C475 1.390 . S
C477 C478 1.387 . S
C477 H480 0.950 . S
C478 C477 1.387 . S
C478 C481 1.387 . S
H479 C475 0.950 . S
H480 C477 0.950 . S
C481 C472 1.390 . S
C481 H474 0.950 . S
C481 C478 1.387 . S
C482 C483 1.387 . S
C482 H486 0.950 . S
C482 C491 1.390 . S
C483 C482 1.387 . S
C483 C485 1.387 . S
H484 C491 0.950 . S
C485 C483 1.387 . S
C485 C487 1.390 . S
C485 H489 0.950 . S
H486 C482 0.950 . S
C487 C485 1.390 . S
C487 C488 1.387 . S
C487 H490 0.950 . S
C488 C487 1.387 . S
C488 C491 1.387 . S
H489 C485 0.950 . S
H490 C487 0.950 . S
C491 C482 1.390 . S
C491 H484 0.950 . S
C491 C488 1.387 . S
C492 C493 1.387 . S
C492 H496 0.950 . S
C492 C501 1.390 . S
C493 C492 1.387 . S
C493 C495 1.387 . S
H494 C501 0.950 . S
C495 C493 1.387 . S
C495 C497 1.390 . S
C495 H499 0.950 . S
H496 C492 0.950 . S
C497 C495 1.390 . S
C497 C498 1.387 . S
C497 H500 0.950 . S
C498 C497 1.387 . S
C498 C501 1.387 . S
H499 C495 0.950 . S
H500 C497 0.950 . S
C501 C492 1.390 . S
C501 H494 0.950 . S
C501 C498 1.387 . S
C502 C503 1.387 . S
C502 H506 0.950 . S
C502 C511 1.390 . S
C503 C502 1.387 . S
C503 C505 1.387 . S
H504 C511 0.950 . S
C505 C503 1.387 . S
C505 C507 1.390 . S
C505 H509 0.950 . S
H506 C502 0.950 . S
C507 C505 1.390 . S
C507 C508 1.387 . S
C507 H510 0.950 . S
C508 C507 1.387 . S
C508 C511 1.387 . S
H509 C505 0.950 . S
H510 C507 0.950 . S
C511 C502 1.390 . S
C511 H504 0.950 . S
C511 C508 1.387 . S
C512 C513 1.387 . S
C512 H516 0.950 . S
C512 C521 1.390 . S
C513 C512 1.387 . S
C513 C515 1.387 . S
H514 C521 0.950 . S
C515 C513 1.387 . S
C515 C517 1.390 . S
C515 H519 0.950 . S
H516 C512 0.950 . S
C517 C515 1.390 . S
C517 C518 1.387 . S
C517 H520 0.950 . S
C518 C517 1.387 . S
C518 C521 1.387 . S
H519 C515 0.950 . S
H520 C517 0.950 . S
C521 C512 1.390 . S
C521 H514 0.950 . S
C521 C518 1.387 . S
C522 C523 1.387 . S
C522 H526 0.950 . S
C522 C531 1.390 . S
C523 C522 1.387 . S
C523 C525 1.387 . S
H524 C531 0.950 . S
C525 C523 1.387 . S
C525 C527 1.390 . S
C525 H529 0.950 . S
H526 C522 0.950 . S
C527 C525 1.390 . S
C527 C528 1.387 . S
C527 H530 0.950 . S
C528 C527 1.387 . S
C528 C531 1.387 . S
H529 C525 0.950 . S
H530 C527 0.950 . S
C531 C522 1.390 . S
C531 H524 0.950 . S
C531 C528 1.387 . S
C532 C533 1.387 . S
C532 H536 0.950 . S
C532 C541 1.390 . S
C533 C532 1.387 . S
C533 C535 1.387 . S
H534 C541 0.950 . S
C535 C533 1.387 . S
C535 C537 1.390 . S
C535 H539 0.950 . S
H536 C532 0.950 . S
C537 C535 1.390 . S
C537 C538 1.387 . S
C537 H540 0.950 . S
C538 C537 1.387 . S
C538 C541 1.387 . S
H539 C535 0.950 . S
H540 C537 0.950 . S
C541 C532 1.390 . S
C541 H534 0.950 . S
C541 C538 1.387 . S
C542 C543 1.387 . S
C542 H546 0.950 . S
C542 C551 1.390 . S
C543 C542 1.387 . S
C543 C545 1.387 . S
H544 C551 0.950 . S
C545 C543 1.387 . S
C545 C547 1.390 . S
C545 H549 0.950 . S
H546 C542 0.950 . S
C547 C545 1.390 . S
C547 C548 1.387 . S
C547 H550 0.950 . S
C548 C547 1.387 . S
C548 C551 1.387 . S
H549 C545 0.950 . S
H550 C547 0.950 . S
C551 C542 1.390 . S
C551 H544 0.950 . S
C551 C548 1.387 . S
C273 C3 1.568 . S
C278 C49 1.659 1_554 S
C283 C37 1.568 . S
C288 C15 1.659 . S
C293 C69 1.571 . S
C298 C117 1.641 1_546 S
C303 C105 1.568 . S
C308 C90 1.648 1_565 S
C313 C137 1.571 . S
C318 C192 1.652 1_556 S
C323 C171 1.570 . S
C328 C158 1.659 . S
C333 C260 1.648 1_564 S
C338 C207 1.568 . S
C343 C239 1.568 . S
C348 C219 1.659 1_545 S
C353 C1 2.013 . S
C358 C139 2.013 . S
C363 C173 2.016 . S
C368 C35 2.016 . S
C373 C205 2.017 . S
C378 C71 2.017 . S
C383 C241 2.017 . S
C388 C103 2.017 . S
C393 C255 2.027 . S
C398 C22 1.683 1_556 S
C403 C221 2.027 . S
C408 C56 1.685 . S
C413 C83 1.687 1_554 S
C418 C187 2.028 . S
C423 C153 2.028 . S
C428 C124 1.687 . S
C433 C151 1.687 1_554 S
C438 C119 2.029 . S
C443 C185 1.683 . S
C448 C85 2.027 . S
C453 C51 2.029 . S
C458 C226 1.688 1_556 S
C463 C17 2.027 . S
C468 C253 1.683 . S
C473 C176 1.268 . S
C478 C6 1.272 . S
C483 C40 1.272 . S
C488 C142 1.268 . S
C493 C244 1.269 . S
C498 C96 1.272 . S
C503 C108 1.272 . S
C508 C232 1.269 . S
C513 C164 1.272 . S
C518 C62 1.268 . S
C523 C28 1.268 . S
C528 C198 1.272 . S
C533 C130 1.269 . S
C538 C210 1.272 . S
C543 C266 1.272 . S
C548 C74 1.268 . S
