# Generated by pormake.
# Topology zfv, (5)-cn, num edge types: 1
# Building blocks:
#     Node 0, Type 0, BuildingBlock: XOMCOT_clean_sbu_1, # of connection points: 5
#     Node 1, Type 0, BuildingBlock: XOMCOT_clean_sbu_1, # of connection points: 5
#     Node 2, Type 0, BuildingBlock: XOMCOT_clean_sbu_1, # of connection points: 5
#     Node 3, Type 0, BuildingBlock: XOMCOT_clean_sbu_1, # of connection points: 5
#     Node 4, Type 0, BuildingBlock: XOMCOT_clean_sbu_1, # of connection points: 5
#     Node 5, Type 0, BuildingBlock: XOMCOT_clean_sbu_1, # of connection points: 5
#     Node 6, Type 0, BuildingBlock: XOMCOT_clean_sbu_1, # of connection points: 5
#     Node 7, Type 0, BuildingBlock: XOMCOT_clean_sbu_1, # of connection points: 5
#     Node 8, Type 0, BuildingBlock: XOMCOT_clean_sbu_1, # of connection points: 5
#     Node 9, Type 0, BuildingBlock: XOMCOT_clean_sbu_1, # of connection points: 5
#     Node 10, Type 0, BuildingBlock: XOMCOT_clean_sbu_1, # of connection points: 5
#     Node 11, Type 0, BuildingBlock: XOMCOT_clean_sbu_1, # of connection points: 5
#     Node 12, Type 0, BuildingBlock: XOMCOT_clean_sbu_1, # of connection points: 5
#     Node 13, Type 0, BuildingBlock: XOMCOT_clean_sbu_1, # of connection points: 5
#     Node 14, Type 0, BuildingBlock: XOMCOT_clean_sbu_1, # of connection points: 5
#     Node 15, Type 0, BuildingBlock: XOMCOT_clean_sbu_1, # of connection points: 5
#     Edge 16, Type (0, 0), BuildingBlock: CIFDUS_clean_linker_0, # of connection points: 2
#     Edge 17, Type (0, 0), BuildingBlock: CIFDUS_clean_linker_0, # of connection points: 2
#     Edge 18, Type (0, 0), BuildingBlock: CIFDUS_clean_linker_0, # of connection points: 2
#     Edge 19, Type (0, 0), BuildingBlock: CIFDUS_clean_linker_0, # of connection points: 2
#     Edge 20, Type (0, 0), BuildingBlock: CIFDUS_clean_linker_0, # of connection points: 2
#     Edge 21, Type (0, 0), BuildingBlock: CIFDUS_clean_linker_0, # of connection points: 2
#     Edge 22, Type (0, 0), BuildingBlock: CIFDUS_clean_linker_0, # of connection points: 2
#     Edge 23, Type (0, 0), BuildingBlock: CIFDUS_clean_linker_0, # of connection points: 2
#     Edge 24, Type (0, 0), BuildingBlock: CIFDUS_clean_linker_0, # of connection points: 2
#     Edge 25, Type (0, 0), BuildingBlock: CIFDUS_clean_linker_0, # of connection points: 2
#     Edge 26, Type (0, 0), BuildingBlock: CIFDUS_clean_linker_0, # of connection points: 2
#     Edge 27, Type (0, 0), BuildingBlock: CIFDUS_clean_linker_0, # of connection points: 2
#     Edge 28, Type (0, 0), BuildingBlock: CIFDUS_clean_linker_0, # of connection points: 2
#     Edge 29, Type (0, 0), BuildingBlock: CIFDUS_clean_linker_0, # of connection points: 2
#     Edge 30, Type (0, 0), BuildingBlock: CIFDUS_clean_linker_0, # of connection points: 2
#     Edge 31, Type (0, 0), BuildingBlock: CIFDUS_clean_linker_0, # of connection points: 2
#     Edge 32, Type (0, 0), BuildingBlock: CIFDUS_clean_linker_0, # of connection points: 2
#     Edge 33, Type (0, 0), BuildingBlock: CIFDUS_clean_linker_0, # of connection points: 2
#     Edge 34, Type (0, 0), BuildingBlock: CIFDUS_clean_linker_0, # of connection points: 2
#     Edge 35, Type (0, 0), BuildingBlock: CIFDUS_clean_linker_0, # of connection points: 2
#     Edge 36, Type (0, 0), BuildingBlock: CIFDUS_clean_linker_0, # of connection points: 2
#     Edge 37, Type (0, 0), BuildingBlock: CIFDUS_clean_linker_0, # of connection points: 2
#     Edge 38, Type (0, 0), BuildingBlock: CIFDUS_clean_linker_0, # of connection points: 2
#     Edge 39, Type (0, 0), BuildingBlock: CIFDUS_clean_linker_0, # of connection points: 2
#     Edge 40, Type (0, 0), BuildingBlock: CIFDUS_clean_linker_0, # of connection points: 2
#     Edge 41, Type (0, 0), BuildingBlock: CIFDUS_clean_linker_0, # of connection points: 2
#     Edge 42, Type (0, 0), BuildingBlock: CIFDUS_clean_linker_0, # of connection points: 2
#     Edge 43, Type (0, 0), BuildingBlock: CIFDUS_clean_linker_0, # of connection points: 2
#     Edge 44, Type (0, 0), BuildingBlock: CIFDUS_clean_linker_0, # of connection points: 2
#     Edge 45, Type (0, 0), BuildingBlock: CIFDUS_clean_linker_0, # of connection points: 2
#     Edge 46, Type (0, 0), BuildingBlock: CIFDUS_clean_linker_0, # of connection points: 2
#     Edge 47, Type (0, 0), BuildingBlock: CIFDUS_clean_linker_0, # of connection points: 2
#     Edge 48, Type (0, 0), BuildingBlock: CIFDUS_clean_linker_0, # of connection points: 2
#     Edge 49, Type (0, 0), BuildingBlock: CIFDUS_clean_linker_0, # of connection points: 2
#     Edge 50, Type (0, 0), BuildingBlock: CIFDUS_clean_linker_0, # of connection points: 2
#     Edge 51, Type (0, 0), BuildingBlock: CIFDUS_clean_linker_0, # of connection points: 2
#     Edge 52, Type (0, 0), BuildingBlock: CIFDUS_clean_linker_0, # of connection points: 2
#     Edge 53, Type (0, 0), BuildingBlock: CIFDUS_clean_linker_0, # of connection points: 2
#     Edge 54, Type (0, 0), BuildingBlock: CIFDUS_clean_linker_0, # of connection points: 2
#     Edge 55, Type (0, 0), BuildingBlock: CIFDUS_clean_linker_0, # of connection points: 2
# Relax obj value: 0.102
# Max RMSD: 0.110
# Mean RMSD: 0.110
data_MOF--net-zfv--node1-XOMCOT_clean_sbu_1--edge1-CIFDUS_clean_linker_0
_symmetry_space_group_name_H-M    P1
_symmetry_Int_Tables_number       1
_symmetry_cell_setting            triclinic
loop_
_symmetry_equiv_pos_as_xyz
'x, y, z'
_cell_length_a     67.957231
_cell_length_b     67.98227
_cell_length_c     15.829269
_cell_angle_alpha  89.944537
_cell_angle_beta   90.080231
_cell_angle_gamma 90.037662
loop_
_atom_site_label
_atom_site_type_symbol
_atom_site_fract_x
_atom_site_fract_y
_atom_site_fract_z
_atom_type_partial_charge
C0 C 0.06416 0.58496 0.19257 0.0
C1 C 0.06426 0.5835 0.27924 0.0
N2 N 0.08292 0.58575 0.30663 0.0
N3 N 0.08266 0.58809 0.16516 0.0
C4 C 0.09378 0.58831 0.23596 0.0
H5 H 0.0513 0.5847 0.15223 0.0
Co6 Co 0.08929 0.59381 0.05362 0.0
C7 C 0.13172 0.60272 0.063 0.0
O8 O 0.13522 0.59164 0.9968 0.0
N9 N 0.09542 0.59969 0.94147 0.0
C10 C 0.10425 0.6156 0.82498 0.0
C11 C 0.10366 0.61637 0.91166 0.0
C12 C 0.09085 0.58915 0.87185 0.0
N13 N 0.09615 0.59847 0.79985 0.0
O14 O 0.10073 0.56802 0.04185 0.0
H15 H 0.10844 0.62856 0.95045 0.0
H16 H 0.08346 0.57507 0.87401 0.0
O17 O 0.11424 0.60469 0.09071 0.0
C18 C 0.08748 0.5549 0.03365 0.0
O19 O 0.06897 0.56045 0.0315 0.0
N20 N 0.07683 0.61822 0.06448 0.0
C21 C 0.053 0.65135 0.08349 0.0
C22 C 0.07069 0.64957 0.12893 0.0
C23 C 0.08238 0.63277 0.11896 0.0
C24 C 0.05991 0.61982 0.0189 0.0
C25 C 0.04785 0.6363 0.02693 0.0
H26 H 0.09545 0.63121 0.15731 0.0
H27 H 0.05554 0.60797 0.97732 0.0
H28 H 0.10946 0.59085 0.23599 0.0
H29 H 0.05141 0.58203 0.31908 0.0
H30 H 0.10947 0.62717 0.78368 0.0
H31 H 0.07507 0.66067 0.17428 0.0
H32 H 0.03446 0.63711 0.98992 0.0
C33 C 0.74634 0.75367 0.44568 0.0
C34 C 0.74868 0.75137 0.53142 0.0
N35 N 0.73548 0.76278 0.57209 0.0
N36 N 0.73184 0.76664 0.43028 0.0
C37 C 0.72548 0.77201 0.50873 0.0
H38 H 0.7547 0.74621 0.39734 0.0
Co39 Co 0.72397 0.77332 0.31824 0.0
C40 C 0.71215 0.81447 0.33578 0.0
O41 O 0.72313 0.81893 0.27025 0.0
N42 N 0.71587 0.77966 0.20414 0.0
C43 C 0.69631 0.78947 0.09862 0.0
C44 C 0.69807 0.78727 0.18468 0.0
C45 C 0.72444 0.77683 0.12703 0.0
N46 N 0.71288 0.78289 0.06173 0.0
O47 O 0.74809 0.78768 0.30525 0.0
H48 H 0.68681 0.79082 0.2304 0.0
H49 H 0.73883 0.77045 0.11823 0.0
O50 O 0.71108 0.79671 0.36145 0.0
C51 C 0.76233 0.77869 0.27018 0.0
O52 O 0.75946 0.76088 0.2407 0.0
N53 N 0.70136 0.75808 0.33131 0.0
C54 C 0.67189 0.72989 0.3519 0.0
C55 C 0.67076 0.74809 0.39368 0.0
C56 C 0.68575 0.76203 0.38277 0.0
C57 C 0.70243 0.74077 0.28854 0.0
C58 C 0.68782 0.72653 0.29743 0.0
H59 H 0.68504 0.77563 0.41784 0.0
H60 H 0.71501 0.73786 0.24866 0.0
H61 H 0.71348 0.78215 0.51913 0.0
H62 H 0.75952 0.74197 0.56105 0.0
H63 H 0.68353 0.79505 0.06551 0.0
H64 H 0.65886 0.75122 0.43701 0.0
H65 H 0.68917 0.71286 0.26288 0.0
C66 C 0.57427 0.41312 0.73825 0.0
C67 C 0.57468 0.41289 0.8249 0.0
N68 N 0.5564 0.40872 0.853 0.0
N69 N 0.55585 0.40916 0.71195 0.0
C70 C 0.54529 0.40656 0.78292 0.0
H71 H 0.58655 0.41617 0.69686 0.0
Co72 Co 0.54813 0.40854 0.6009 0.0
C73 C 0.51351 0.38268 0.59092 0.0
O74 O 0.52141 0.37515 0.52245 0.0
N75 N 0.54042 0.4088 0.48732 0.0
C76 C 0.52275 0.41661 0.37389 0.0
C77 C 0.52341 0.41697 0.46032 0.0
C78 C 0.54984 0.4036 0.41571 0.0
N79 N 0.53943 0.4082 0.34574 0.0
O80 O 0.53728 0.43447 0.61315 0.0
H81 H 0.51229 0.4232 0.50109 0.0
H82 H 0.5641 0.3968 0.4141 0.0
O83 O 0.5227 0.39624 0.63109 0.0
C84 C 0.55098 0.44681 0.5988 0.0
O85 O 0.56847 0.44014 0.57826 0.0
N86 N 0.56099 0.38404 0.59148 0.0
C87 C 0.58865 0.35379 0.61175 0.0
C88 C 0.5698 0.35228 0.64746 0.0
C89 C 0.55631 0.36769 0.63782 0.0
C90 C 0.57926 0.38571 0.55678 0.0
C91 C 0.59304 0.37061 0.5639 0.0
H92 H 0.54291 0.36706 0.67414 0.0
H93 H 0.5837 0.39947 0.52832 0.0
H94 H 0.52978 0.40311 0.78306 0.0
H95 H 0.58739 0.41604 0.86377 0.0
H96 H 0.51118 0.4228 0.33515 0.0
H97 H 0.56595 0.34 0.68777 0.0
H98 H 0.60739 0.37259 0.53544 0.0
C99 C 0.89262 0.24683 0.91634 0.0
C100 C 0.89273 0.24752 1.00318 0.0
N101 N 0.90215 0.2314 0.03214 0.0
N102 N 0.9019 0.2304 0.89102 0.0
C103 C 0.90758 0.22132 0.96264 0.0
H104 H 0.88593 0.25743 0.87415 0.0
Co105 Co 0.90456 0.22286 0.78045 0.0
C106 C 0.9319 0.18927 0.7778 0.0
O107 O 0.93999 0.19745 0.71103 0.0
N108 N 0.90634 0.21524 0.66657 0.0
C109 C 0.90109 0.19708 0.55198 0.0
C110 C 0.90051 0.1974 0.63839 0.0
C111 C 0.91011 0.2256 0.59548 0.0
N112 N 0.9071 0.21486 0.52491 0.0
O113 O 0.87891 0.21066 0.78638 0.0
H114 H 0.89542 0.18553 0.67834 0.0
H115 H 0.91431 0.24086 0.59461 0.0
O116 O 0.91739 0.19785 0.8141 0.0
C117 C 0.86536 0.21909 0.74393 0.0
O118 O 0.86976 0.23463 0.69832 0.0
N119 N 0.92894 0.23656 0.77746 0.0
C120 C 0.9612 0.26226 0.78899 0.0
C121 C 0.96132 0.24404 0.83065 0.0
C122 C 0.94494 0.23166 0.82576 0.0
C123 C 0.92823 0.25459 0.73976 0.0
C124 C 0.94431 0.26743 0.74286 0.0
H125 H 0.94487 0.21872 0.86512 0.0
H126 H 0.91474 0.25947 0.71023 0.0
H127 H 0.91561 0.20762 0.9639 0.0
H128 H 0.8859 0.25872 0.04173 0.0
H129 H 0.89641 0.18499 0.51233 0.0
H130 H 0.97354 0.23981 0.87072 0.0
H131 H 0.94327 0.28151 0.71113 0.0
C132 C 0.0548 0.41599 0.81134 0.0
C133 C 0.05496 0.41708 0.72466 0.0
N134 N 0.07285 0.41142 0.6971 0.0
N135 N 0.07251 0.40976 0.8387 0.0
C136 C 0.08325 0.40726 0.76775 0.0
H137 H 0.04218 0.41838 0.85155 0.0
Co138 Co 0.07769 0.40247 0.94981 0.0
C139 C 0.1197 0.39239 0.94998 0.0
O140 O 0.12213 0.40346 1.01719 0.0
N141 N 0.08235 0.39495 0.06223 0.0
C142 C 0.08938 0.3774 0.17698 0.0
C143 C 0.08908 0.37742 0.09007 0.0
C144 C 0.07843 0.4052 0.13331 0.0
N145 N 0.08263 0.39493 0.20413 0.0
O146 O 0.08981 0.42779 0.96989 0.0
H147 H 0.09318 0.36528 0.04965 0.0
H148 H 0.07244 0.41988 0.13348 0.0
O149 O 0.1027 0.3908 0.91624 0.0
C150 C 0.07612 0.43976 0.98962 0.0
O151 O 0.05796 0.43307 0.99133 0.0
N152 N 0.0641 0.37899 0.93108 0.0
C153 C 0.03651 0.34984 0.8934 0.0
C154 C 0.05499 0.35004 0.85336 0.0
C155 C 0.06863 0.36489 0.87288 0.0
C156 C 0.0466 0.37855 0.97271 0.0
C157 C 0.03272 0.36403 0.95556 0.0
H158 H 0.0823 0.36563 0.83819 0.0
H159 H 0.04309 0.39008 1.01721 0.0
H160 H 0.09811 0.4017 0.76756 0.0
H161 H 0.04242 0.42049 0.68507 0.0
H162 H 0.09363 0.36518 0.21686 0.0
H163 H 0.05847 0.33948 0.80448 0.0
H164 H 0.01885 0.36428 0.98918 0.0
C165 C 0.89522 0.75097 0.07333 0.0
C166 C 0.89242 0.74908 0.98764 0.0
N167 N 0.90227 0.76357 0.94723 0.0
N168 N 0.90682 0.76658 0.08894 0.0
C169 C 0.91096 0.77398 1.01079 0.0
H170 H 0.88946 0.74128 0.12155 0.0
Co171 Co 0.91486 0.77298 0.2008 0.0
C172 C 0.92789 0.81378 0.18658 0.0
O173 O 0.91713 0.81804 0.25299 0.0
N174 N 0.9232 0.77894 0.31497 0.0
C175 C 0.94398 0.78654 0.41921 0.0
C176 C 0.94175 0.7846 0.33344 0.0
C177 C 0.91447 0.77734 0.39248 0.0
N178 N 0.92683 0.78205 0.45742 0.0
O179 O 0.89112 0.78776 0.2143 0.0
H180 H 0.95324 0.78681 0.28716 0.0
H181 H 0.89944 0.77268 0.40155 0.0
O182 O 0.92837 0.7962 0.15853 0.0
C183 C 0.87683 0.77855 0.24801 0.0
O184 O 0.87968 0.76058 0.27592 0.0
N185 N 0.93707 0.7572 0.18676 0.0
C186 C 0.96573 0.72834 0.16406 0.0
C187 C 0.96684 0.74628 0.12018 0.0
C188 C 0.95222 0.76055 0.13196 0.0
C189 C 0.93601 0.74011 0.23126 0.0
C190 C 0.95022 0.72553 0.22128 0.0
H191 H 0.95274 0.7739 0.09494 0.0
H192 H 0.92373 0.73762 0.27332 0.0
H193 H 0.92029 0.78664 1.00073 0.0
H194 H 0.88412 0.73742 0.95784 0.0
H195 H 0.95756 0.7904 0.45084 0.0
H196 H 0.97842 0.74893 0.07462 0.0
H197 H 0.94888 0.71202 0.25713 0.0
C198 C 0.56846 0.586 0.34721 0.0
C199 C 0.56851 0.58504 0.2604 0.0
N200 N 0.55076 0.59097 0.23189 0.0
N201 N 0.55078 0.59244 0.37354 0.0
C202 C 0.54026 0.59517 0.30201 0.0
H203 H 0.58087 0.58323 0.38834 0.0
Co204 Co 0.54505 0.59935 0.48432 0.0
C205 C 0.50286 0.60876 0.4799 0.0
O206 O 0.49988 0.59818 0.54817 0.0
N207 N 0.53982 0.60646 0.59638 0.0
C208 C 0.5323 0.62372 0.71104 0.0
C209 C 0.53253 0.62375 0.62418 0.0
C210 C 0.54412 0.59631 0.6674 0.0
N211 N 0.53964 0.60642 0.73824 0.0
O212 O 0.53311 0.574 0.5017 0.0
H213 H 0.52809 0.6358 0.58381 0.0
H214 H 0.55067 0.58186 0.6674 0.0
O215 O 0.52008 0.61041 0.44901 0.0
C216 C 0.54588 0.5612 0.52286 0.0
O217 O 0.56435 0.56677 0.52962 0.0
N218 N 0.55801 0.62327 0.46763 0.0
C219 C 0.58269 0.6555 0.44098 0.0
C220 C 0.5645 0.6541 0.39903 0.0
C221 C 0.55236 0.63775 0.41292 0.0
C222 C 0.57543 0.62452 0.5098 0.0
C223 C 0.5879 0.64056 0.49802 0.0
H224 H 0.53881 0.63647 0.37755 0.0
H225 H 0.57981 0.61273 0.55176 0.0
H226 H 0.52543 0.60083 0.30107 0.0
H227 H 0.58106 0.5814 0.22146 0.0
H228 H 0.52773 0.63581 0.75082 0.0
H229 H 0.56001 0.66513 0.35355 0.0
H230 H 0.60165 0.64111 0.53266 0.0
C231 C 0.73708 0.24101 0.64136 0.0
C232 C 0.73952 0.24329 0.55576 0.0
N233 N 0.72608 0.23217 0.51493 0.0
N234 N 0.7223 0.22831 0.65656 0.0
C235 C 0.71587 0.2231 0.57794 0.0
H236 H 0.7455 0.24843 0.68971 0.0
Co237 Co 0.71413 0.22245 0.76912 0.0
C238 C 0.70515 0.18262 0.69597 0.0
O239 O 0.72335 0.17889 0.67326 0.0
N240 N 0.70586 0.21676 0.88312 0.0
C241 C 0.68666 0.20593 0.98775 0.0
C242 C 0.68846 0.2082 0.90183 0.0
C243 C 0.71419 0.21994 0.96052 0.0
N244 N 0.70285 0.21327 0.02528 0.0
O245 O 0.73838 0.20838 0.78684 0.0
H246 H 0.67747 0.20405 0.85588 0.0
H247 H 0.72834 0.22682 0.96993 0.0
O248 O 0.70097 0.19882 0.732 0.0
C249 C 0.75203 0.21823 0.82235 0.0
O250 O 0.74841 0.23634 0.84661 0.0
N251 N 0.69122 0.2373 0.75177 0.0
C252 C 0.66023 0.26351 0.72318 0.0
C253 C 0.66079 0.2452 0.68236 0.0
C254 C 0.67642 0.23232 0.69731 0.0
C255 C 0.69083 0.25485 0.79306 0.0
C256 C 0.67543 0.26815 0.78005 0.0
H257 H 0.67677 0.21867 0.66275 0.0
H258 H 0.70276 0.25868 0.83531 0.0
H259 H 0.70363 0.21326 0.567 0.0
H260 H 0.75049 0.25254 0.52625 0.0
H261 H 0.67413 0.19966 0.02027 0.0
H262 H 0.64961 0.24109 0.63684 0.0
H263 H 0.67553 0.28199 0.81383 0.0
C264 C 0.40434 0.24557 0.59896 0.0
C265 C 0.40281 0.24567 0.51226 0.0
N266 N 0.40466 0.26437 0.485 0.0
N267 N 0.40717 0.2641 0.62643 0.0
C268 C 0.40705 0.27525 0.55574 0.0
H269 H 0.40427 0.23271 0.63929 0.0
Co270 Co 0.41257 0.27103 0.73798 0.0
C271 C 0.42408 0.31343 0.72225 0.0
O272 O 0.41335 0.3191 0.78673 0.0
N273 N 0.41807 0.27756 0.85015 0.0
C274 C 0.43381 0.28652 0.96698 0.0
C275 C 0.43469 0.28587 0.88034 0.0
C276 C 0.40747 0.27299 0.9196 0.0
N277 N 0.41669 0.27836 0.9918 0.0
O278 O 0.38688 0.28297 0.74607 0.0
H279 H 0.447 0.29052 0.84193 0.0
H280 H 0.39347 0.26546 0.91728 0.0
O281 O 0.42426 0.29542 0.7 0.0
C282 C 0.37388 0.26964 0.75591 0.0
O283 O 0.37976 0.25133 0.76418 0.0
N284 N 0.43693 0.25813 0.72971 0.0
C285 C 0.47026 0.23437 0.71243 0.0
C286 C 0.46812 0.2516 0.66425 0.0
C287 C 0.45129 0.26322 0.67341 0.0
C288 C 0.43881 0.24159 0.77768 0.0
C289 C 0.45539 0.22957 0.77046 0.0
H290 H 0.44957 0.27591 0.63298 0.0
H291 H 0.42707 0.23743 0.82022 0.0
H292 H 0.4091 0.29101 0.55591 0.0
H293 H 0.40152 0.23282 0.47232 0.0
H294 H 0.44535 0.29173 1.00852 0.0
H295 H 0.47921 0.25595 0.61887 0.0
H296 H 0.45617 0.21623 0.80777 0.0
C297 C 0.24509 0.74226 0.05565 0.0
C298 C 0.24518 0.74287 0.9687 0.0
N299 N 0.23039 0.73146 0.94034 0.0
N300 N 0.23046 0.73032 0.08204 0.0
C301 C 0.22174 0.72406 1.01011 0.0
H302 H 0.25481 0.75046 0.09655 0.0
Co303 Co 0.22293 0.72508 0.19328 0.0
C304 C 0.21154 0.68341 0.18537 0.0
O305 O 0.22221 0.67965 0.25275 0.0
N306 N 0.21506 0.72012 0.30524 0.0
C307 C 0.19735 0.71176 0.41784 0.0
C308 C 0.19768 0.7126 0.33102 0.0
C309 C 0.2248 0.72414 0.3777 0.0
N310 N 0.21449 0.71904 0.44728 0.0
O311 O 0.2475 0.71161 0.2119 0.0
H312 H 0.18593 0.70801 0.28931 0.0
H313 H 0.23898 0.7312 0.37997 0.0
O314 O 0.21056 0.70086 0.15617 0.0
C315 C 0.2606 0.72337 0.2397 0.0
O316 O 0.25584 0.7419 0.25149 0.0
N317 N 0.2001 0.73967 0.17633 0.0
C318 C 0.17084 0.76769 0.14907 0.0
C319 C 0.16844 0.74829 0.12003 0.0
C320 C 0.18334 0.7344 0.13432 0.0
C321 C 0.20233 0.75817 0.20742 0.0
C322 C 0.18787 0.77235 0.19506 0.0
H323 H 0.18158 0.71971 0.10951 0.0
H324 H 0.21573 0.762 0.24058 0.0
H325 H 0.2091 0.7144 1.00861 0.0
H326 H 0.25492 0.75156 0.92954 0.0
H327 H 0.18542 0.70608 0.4559 0.0
H328 H 0.15555 0.74409 0.08397 0.0
H329 H 0.19019 0.78698 0.22026 0.0
C330 C 0.23524 0.25479 0.99639 0.0
C331 C 0.23635 0.25493 0.08312 0.0
N332 N 0.22983 0.2725 0.11096 0.0
N333 N 0.22812 0.27218 0.96947 0.0
C334 C 0.22513 0.28273 0.04053 0.0
H335 H 0.23841 0.24243 0.95571 0.0
Co336 Co 0.22109 0.27741 0.85844 0.0
C337 C 0.20864 0.31902 0.85911 0.0
O338 O 0.21902 0.32251 0.79078 0.0
N339 N 0.21388 0.28213 0.74585 0.0
C340 C 0.19621 0.28846 0.6307 0.0
C341 C 0.19609 0.28807 0.71751 0.0
C342 C 0.22444 0.2788 0.67509 0.0
N343 N 0.21408 0.28258 0.60402 0.0
O344 O 0.2461 0.29038 0.84167 0.0
H345 H 0.18366 0.29149 0.7575 0.0
H346 H 0.23938 0.27346 0.67535 0.0
O347 O 0.2086 0.30191 0.89218 0.0
C348 C 0.25921 0.27783 0.82161 0.0
O349 O 0.25392 0.25931 0.81377 0.0
N350 N 0.1977 0.26338 0.87501 0.0
C351 C 0.16607 0.23788 0.90107 0.0
C352 C 0.16733 0.25577 0.94511 0.0
C353 C 0.18331 0.26835 0.93123 0.0
C354 C 0.19674 0.2461 0.83178 0.0
C355 C 0.18097 0.23321 0.84323 0.0
H356 H 0.18435 0.28177 0.96747 0.0
H357 H 0.20853 0.24213 0.78925 0.0
H358 H 0.21896 0.29736 0.04094 0.0
H359 H 0.24049 0.2426 0.12255 0.0
H360 H 0.18383 0.2921 0.59057 0.0
H361 H 0.15615 0.25993 0.99039 0.0
H362 H 0.18082 0.21941 0.80916 0.0
C363 C 0.40299 0.75667 0.48541 0.0
C364 C 0.40146 0.75651 0.5721 0.0
N365 N 0.40405 0.7379 0.59941 0.0
N366 N 0.40654 0.73825 0.45803 0.0
C367 C 0.40686 0.72712 0.52873 0.0
H368 H 0.40235 0.76949 0.44503 0.0
Co369 Co 0.41203 0.73143 0.34652 0.0
C370 C 0.42323 0.68977 0.36022 0.0
O371 O 0.41138 0.68531 0.29744 0.0
N372 N 0.41763 0.72504 0.23432 0.0
C373 C 0.43361 0.7166 0.11764 0.0
C374 C 0.4345 0.7173 0.20426 0.0
C375 C 0.40684 0.72921 0.16483 0.0
N376 N 0.41621 0.72415 0.09271 0.0
O377 O 0.38707 0.71829 0.33933 0.0
H378 H 0.44697 0.71308 0.24277 0.0
H379 H 0.3926 0.73626 0.16711 0.0
O380 O 0.42482 0.70754 0.385 0.0
C381 C 0.3734 0.73087 0.3293 0.0
O382 O 0.37817 0.74952 0.32194 0.0
N383 N 0.43549 0.74564 0.35315 0.0
C384 C 0.46581 0.77301 0.36972 0.0
C385 C 0.4662 0.75532 0.41568 0.0
C386 C 0.45075 0.74181 0.40694 0.0
C387 C 0.43521 0.7624 0.30612 0.0
C388 C 0.45027 0.77621 0.31292 0.0
H389 H 0.45062 0.7288 0.44625 0.0
H390 H 0.42279 0.76538 0.26523 0.0
H391 H 0.40949 0.71146 0.52861 0.0
H392 H 0.39963 0.7693 0.61199 0.0
H393 H 0.44531 0.71179 0.07619 0.0
H394 H 0.47779 0.75242 0.46102 0.0
H395 H 0.44947 0.78955 0.27562 0.0
C396 C 0.55866 0.09015 0.66744 0.0
C397 C 0.55864 0.08892 0.75415 0.0
N398 N 0.57737 0.09038 0.78168 0.0
N399 N 0.5773 0.09235 0.64025 0.0
C400 C 0.58839 0.09225 0.71109 0.0
H401 H 0.54583 0.09038 0.62692 0.0
Co402 Co 0.58432 0.09742 0.52894 0.0
C403 C 0.62742 0.10128 0.54526 0.0
O404 O 0.62996 0.08632 0.49394 0.0
N405 N 0.59115 0.10267 0.41675 0.0
C406 C 0.60219 0.11762 0.30134 0.0
C407 C 0.60165 0.11815 0.38807 0.0
C408 C 0.58532 0.09308 0.34637 0.0
N409 N 0.59186 0.10183 0.27503 0.0
O410 O 0.59333 0.07065 0.51781 0.0
H411 H 0.60795 0.12949 0.42761 0.0
H412 H 0.57614 0.08011 0.34731 0.0
O413 O 0.61004 0.10672 0.56467 0.0
C414 C 0.57836 0.06013 0.49989 0.0
O415 O 0.56126 0.06901 0.49279 0.0
N416 N 0.57366 0.12271 0.53904 0.0
C417 C 0.55109 0.15663 0.56083 0.0
C418 C 0.56783 0.15324 0.61098 0.0
C419 C 0.57896 0.13613 0.59908 0.0
C420 C 0.55761 0.12586 0.48929 0.0
C421 C 0.54625 0.1428 0.49847 0.0
H422 H 0.5912 0.13322 0.64079 0.0
H423 H 0.55314 0.11476 0.44424 0.0
H424 H 0.60418 0.09411 0.71114 0.0
H425 H 0.54571 0.08815 0.79382 0.0
H426 H 0.60895 0.12854 0.26092 0.0
H427 H 0.57203 0.16351 0.66007 0.0
H428 H 0.53323 0.14455 0.45963 0.0
C429 C 0.07495 0.90853 0.19148 0.0
C430 C 0.07494 0.91001 0.2782 0.0
N431 N 0.05613 0.90969 0.30514 0.0
N432 N 0.05624 0.90728 0.16375 0.0
C433 C 0.04511 0.90824 0.23426 0.0
H434 H 0.08778 0.90762 0.15131 0.0
Co435 Co 0.04869 0.90288 0.05209 0.0
C436 C 0.0059 0.89635 0.06617 0.0
O437 O 0.0024 0.90836 1.0029 0.0
N438 N 0.04144 0.89831 0.93972 0.0
C439 C 0.031 0.88349 0.82298 0.0
C440 C 0.03169 0.8825 0.90956 0.0
C441 C 0.04679 0.90855 0.87024 0.0
N442 N 0.04057 0.89987 0.79811 0.0
O443 O 0.03902 0.92946 0.04572 0.0
H444 H 0.0261 0.87057 0.94795 0.0
H445 H 0.05555 0.92182 0.87247 0.0
O446 O 0.02347 0.89308 0.09037 0.0
C447 C 0.05376 0.9408 0.03536 0.0
O448 O 0.07119 0.93279 0.02517 0.0
N449 N 0.05968 0.87771 0.05806 0.0
C450 C 0.08248 0.84373 0.07308 0.0
C451 C 0.06581 0.84651 0.12421 0.0
C452 C 0.05457 0.86367 0.1158 0.0
C453 C 0.07546 0.87504 1.0065 0.0
C454 C 0.08685 0.85807 1.01199 0.0
H455 H 0.04243 0.8661 0.15854 0.0
H456 H 0.07959 0.88649 0.96245 0.0
H457 H 0.02923 0.90747 0.23388 0.0
H458 H 0.08784 0.91025 0.31836 0.0
H459 H 0.02482 0.87245 0.7815 0.0
H460 H 0.06202 0.83602 0.17308 0.0
H461 H 0.09933 0.85648 0.97008 0.0
C462 C 0.56627 0.91291 0.33397 0.0
C463 C 0.56632 0.91432 0.24725 0.0
N464 N 0.58502 0.9124 0.22005 0.0
N465 N 0.58483 0.91014 0.36149 0.0
C466 C 0.59593 0.91009 0.29079 0.0
H467 H 0.55344 0.91305 0.37428 0.0
Co468 Co 0.59181 0.90493 0.47308 0.0
C469 C 0.63428 0.89652 0.46218 0.0
O470 O 0.63794 0.90791 0.52731 0.0
N471 N 0.59836 0.89952 0.58542 0.0
C472 C 0.60761 0.88383 0.70198 0.0
C473 C 0.60699 0.88304 0.61534 0.0
C474 C 0.59361 0.90995 0.65501 0.0
N475 N 0.59914 0.90076 0.72704 0.0
O476 O 0.60286 0.93094 0.48217 0.0
H477 H 0.61192 0.8709 0.57668 0.0
H478 H 0.58584 0.92381 0.65291 0.0
O479 O 0.61672 0.8942 0.43572 0.0
C480 C 0.589 0.9433 0.49265 0.0
O481 O 0.57095 0.93656 0.5004 0.0
N482 N 0.5796 0.88038 0.46458 0.0
C483 C 0.55545 0.84743 0.4474 0.0
C484 C 0.57305 0.84897 0.40136 0.0
C485 C 0.58491 0.86569 0.41044 0.0
C486 C 0.56284 0.87893 0.51117 0.0
C487 C 0.55065 0.86253 0.50413 0.0
H488 H 0.59786 0.86716 0.37141 0.0
H489 H 0.55865 0.89089 0.55241 0.0
H490 H 0.61168 0.90792 0.29093 0.0
H491 H 0.55345 0.91557 0.2073 0.0
H492 H 0.61305 0.87236 0.74332 0.0
H493 H 0.57715 0.83779 0.35598 0.0
H494 H 0.53734 0.86189 0.54163 0.0
C495 C 0.07359 0.0855 0.81345 0.0
C496 C 0.07361 0.08418 0.72666 0.0
N497 N 0.05501 0.08664 0.69871 0.0
N498 N 0.05509 0.08881 0.84031 0.0
C499 C 0.04407 0.0891 0.76919 0.0
H500 H 0.08638 0.08515 0.85417 0.0
Co501 Co 0.04835 0.09504 0.95125 0.0
C502 C 0.00592 0.10609 0.93426 0.0
O503 O 0.00032 0.09546 0.9993 0.0
N504 N 0.04204 0.10131 0.0632 0.0
C505 C 0.03317 0.11748 0.17904 0.0
C506 C 0.03355 0.11793 0.09216 0.0
C507 C 0.04694 0.09116 0.13357 0.0
N508 N 0.04167 0.10062 0.20512 0.0
O509 O 0.03624 0.06961 0.96347 0.0
H510 H 0.02857 0.12994 0.05273 0.0
H511 H 0.05462 0.07726 0.1325 0.0
O512 O 0.02396 0.10652 0.91247 0.0
C513 C 0.04918 0.05677 0.98214 0.0
O514 O 0.06756 0.06257 0.9899 0.0
N515 N 0.06136 0.11924 0.93939 0.0
C516 C 0.08525 0.15226 0.91668 0.0
C517 C 0.06828 0.14955 0.86737 0.0
C518 C 0.05654 0.13291 0.87954 0.0
C519 C 0.07767 0.12169 0.98846 0.0
C520 C 0.08973 0.1382 0.97873 0.0
H521 H 0.04402 0.13071 0.83854 0.0
H522 H 0.08163 0.11048 0.03391 0.0
H523 H 0.02839 0.09166 0.76882 0.0
H524 H 0.08652 0.08274 0.68719 0.0
H525 H 0.02784 0.12909 0.21973 0.0
H526 H 0.06428 0.16005 0.81878 0.0
H527 H 0.10287 0.13951 1.01712 0.0
H528 H 0.11678 0.60893 0.66164 0.0
H529 H 0.06711 0.57431 0.74369 0.0
H530 H 0.05947 0.56606 0.59728 0.0
H531 H 0.0657 0.57033 0.44535 0.0
H532 H 0.11451 0.60629 0.36393 0.0
H533 H 0.12371 0.61222 0.51035 0.0
C534 C 0.10424 0.59964 0.64759 0.0
C535 C 0.09246 0.59242 0.71385 0.0
C536 C 0.09975 0.59518 0.56314 0.0
C537 C 0.07654 0.57999 0.69434 0.0
C538 C 0.07206 0.57536 0.61042 0.0
C539 C 0.07833 0.57948 0.45957 0.0
C540 C 0.08929 0.58789 0.39324 0.0
C541 C 0.08338 0.58314 0.54425 0.0
C542 C 0.10588 0.59941 0.41313 0.0
C543 C 0.11108 0.60297 0.49712 0.0
H544 H 0.73276 0.75515 0.97183 0.0
H545 H 0.70108 0.80967 0.94582 0.0
H546 H 0.70498 0.80844 0.79248 0.0
H547 H 0.7171 0.79166 0.6636 0.0
H548 H 0.74755 0.73628 0.6907 0.0
H549 H 0.74456 0.73823 0.84302 0.0
C550 C 0.72691 0.76686 0.93267 0.0
C551 C 0.71663 0.78248 0.97111 0.0
C552 C 0.72895 0.76592 0.84351 0.0
C553 C 0.70892 0.79737 0.91853 0.0
C554 C 0.71117 0.79669 0.83043 0.0
C555 C 0.723 0.77994 0.70246 0.0
C556 C 0.7328 0.76397 0.66368 0.0
C557 C 0.72102 0.78095 0.79174 0.0
C558 C 0.74033 0.74904 0.71687 0.0
C559 C 0.73852 0.75004 0.80498 0.0
H560 H 0.51608 0.40842 0.20794 0.0
H561 H 0.57677 0.40336 0.28699 0.0
H562 H 0.58711 0.40159 0.14056 0.0
H563 H 0.57922 0.40309 0.99048 0.0
H564 H 0.51889 0.41153 0.91169 0.0
H565 H 0.50822 0.41035 0.05788 0.0
C566 C 0.53159 0.40712 0.19355 0.0
C567 C 0.54553 0.40614 0.2591 0.0
C568 C 0.53757 0.40674 0.10904 0.0
C569 C 0.56556 0.40393 0.23854 0.0
C570 C 0.57157 0.40308 0.1545 0.0
C571 C 0.56376 0.40488 1.00488 0.0
C572 C 0.54998 0.40749 0.9395 0.0
C573 C 0.55772 0.40475 0.08934 0.0
C574 C 0.52991 0.40928 0.96002 0.0
C575 C 0.52375 0.40875 0.04393 0.0
H576 H 0.91229 0.19231 0.38748 0.0
H577 H 0.9036 0.2524 0.46703 0.0
H578 H 0.90256 0.26303 0.32012 0.0
H579 H 0.9023 0.25499 0.16915 0.0
H580 H 0.90832 0.19441 0.09121 0.0
H581 H 0.91216 0.18431 0.23743 0.0
C582 C 0.91003 0.20772 0.37289 0.0
C583 C 0.90788 0.22145 0.4385 0.0
C584 C 0.9089 0.21367 0.2884 0.0
C585 C 0.9055 0.24147 0.41817 0.0
C586 C 0.90472 0.24757 0.33399 0.0
C587 C 0.90431 0.23957 0.18401 0.0
C588 C 0.90497 0.22555 0.1188 0.0
C589 C 0.90609 0.23374 0.26864 0.0
C590 C 0.908 0.20564 0.13951 0.0
C591 C 0.91007 0.19978 0.22339 0.0
H592 H 0.10138 0.38137 0.34305 0.0
H593 H 0.05688 0.42246 0.26062 0.0
H594 H 0.05108 0.43227 0.40619 0.0
H595 H 0.05756 0.42828 0.55744 0.0
H596 H 0.10065 0.38583 0.64075 0.0
H597 H 0.10816 0.37768 0.49462 0.0
C598 C 0.09032 0.39237 0.35681 0.0
C599 C 0.07958 0.40106 0.29044 0.0
C600 C 0.08682 0.39779 0.44108 0.0
C601 C 0.06557 0.41562 0.30979 0.0
C602 C 0.06213 0.42119 0.39333 0.0
C603 C 0.06854 0.41719 0.54383 0.0
C604 C 0.07841 0.40768 0.61056 0.0
C605 C 0.07252 0.41223 0.4595 0.0
C606 C 0.09293 0.39362 0.59123 0.0
C607 C 0.09713 0.38879 0.50741 0.0
H608 H 0.89848 0.76215 0.54641 0.0
H609 H 0.94744 0.80196 0.57766 0.0
H610 H 0.94428 0.79992 0.73014 0.0
H611 H 0.9285 0.78601 0.85734 0.0
H612 H 0.87829 0.74772 0.82636 0.0
H613 H 0.88114 0.75014 0.67405 0.0
C614 C 0.90835 0.77056 0.58623 0.0
C615 C 0.92346 0.78188 0.54871 0.0
C616 C 0.90636 0.76953 0.67553 0.0
C617 C 0.93599 0.79263 0.60304 0.0
C618 C 0.93413 0.79161 0.69116 0.0
C619 C 0.91803 0.7783 0.81778 0.0
C620 C 0.90342 0.76636 0.85558 0.0
C621 C 0.91953 0.77992 0.72853 0.0
C622 C 0.89008 0.75662 0.8012 0.0
C623 C 0.89158 0.75809 0.71301 0.0
H624 H 0.52101 0.61981 0.87728 0.0
H625 H 0.56611 0.57947 0.79498 0.0
H626 H 0.57256 0.57014 0.94085 0.0
H627 H 0.56637 0.57434 0.09233 0.0
H628 H 0.52265 0.6162 0.17467 0.0
H629 H 0.51468 0.62385 0.02859 0.0
C630 C 0.53235 0.60909 0.89106 0.0
C631 C 0.54306 0.60046 0.82466 0.0
C632 C 0.53624 0.60399 0.97542 0.0
C633 C 0.55743 0.58625 0.84416 0.0
C634 C 0.56125 0.58097 0.92788 0.0
C635 C 0.55517 0.58521 0.07855 0.0
C636 C 0.54523 0.59465 0.14512 0.0
C637 C 0.55088 0.58989 0.99406 0.0
C638 C 0.53045 0.60843 0.12544 0.0
C639 C 0.52595 0.61298 0.04157 0.0
H640 H 0.70785 0.20339 0.42257 0.0
H641 H 0.73761 0.25923 0.39802 0.0
H642 H 0.73427 0.25777 0.24559 0.0
H643 H 0.72237 0.24111 0.11627 0.0
H644 H 0.69159 0.18597 0.13996 0.0
H645 H 0.69572 0.18682 0.29317 0.0
C646 C 0.71351 0.21531 0.38418 0.0
C647 C 0.72322 0.23127 0.4235 0.0
C648 C 0.71135 0.21456 0.295 0.0
C649 C 0.73046 0.24647 0.37115 0.0
C650 C 0.72845 0.24575 0.28309 0.0
C651 C 0.71676 0.22919 0.15488 0.0
C652 C 0.70663 0.21352 0.11586 0.0
C653 C 0.71898 0.22987 0.24395 0.0
C654 C 0.69925 0.19834 0.16771 0.0
C655 C 0.70165 0.19879 0.25574 0.0
H656 H 0.3894 0.247 0.3461 0.0
H657 H 0.42456 0.29635 0.42791 0.0
H658 H 0.43016 0.30583 0.28165 0.0
H659 H 0.42684 0.29903 0.13028 0.0
H660 H 0.39296 0.24892 0.04753 0.0
H661 H 0.38501 0.24094 0.19393 0.0
C662 C 0.39829 0.25982 0.33199 0.0
C663 C 0.40658 0.27085 0.39842 0.0
C664 C 0.40174 0.26505 0.24732 0.0
C665 C 0.41777 0.28766 0.37866 0.0
C666 C 0.42114 0.29303 0.29474 0.0
C667 C 0.41776 0.28633 0.14418 0.0
C668 C 0.41068 0.27452 0.07773 0.0
C669 C 0.41347 0.28165 0.22861 0.0
C670 C 0.39853 0.25837 0.09704 0.0
C671 C 0.39408 0.2537 0.18096 0.0
H672 H 0.19104 0.71981 0.58549 0.0
H673 H 0.25183 0.72304 0.50711 0.0
H674 H 0.26203 0.72761 0.65303 0.0
H675 H 0.25384 0.73051 0.80375 0.0
H676 H 0.19332 0.72601 0.88265 0.0
H677 H 0.18296 0.72161 0.73605 0.0
C678 C 0.20654 0.72129 0.59998 0.0
C679 C 0.22054 0.72123 0.53441 0.0
C680 C 0.21241 0.72358 0.68453 0.0
C681 C 0.24058 0.72341 0.55533 0.0
C682 C 0.2465 0.72589 0.63916 0.0
C683 C 0.23839 0.72867 0.78864 0.0
C684 C 0.22439 0.72861 0.85391 0.0
C685 C 0.23255 0.72607 0.70423 0.0
C686 C 0.20442 0.7259 0.83367 0.0
C687 C 0.19847 0.7235 0.7498 0.0
H688 H 0.19963 0.30056 0.46516 0.0
H689 H 0.24276 0.25806 0.54768 0.0
H690 H 0.25245 0.2523 0.40181 0.0
H691 H 0.24768 0.25814 0.2503 0.0
H692 H 0.20316 0.29919 0.16767 0.0
H693 H 0.19518 0.30674 0.31381 0.0
C694 C 0.21106 0.28994 0.45139 0.0
C695 C 0.22034 0.27973 0.51778 0.0
C696 C 0.21637 0.28643 0.36708 0.0
C697 C 0.23545 0.26633 0.49842 0.0
C698 C 0.24094 0.2629 0.41474 0.0
C699 C 0.23618 0.26868 0.2641 0.0
C700 C 0.22605 0.27798 0.19753 0.0
C701 C 0.23134 0.2727 0.34853 0.0
C702 C 0.21144 0.29193 0.21703 0.0
C703 C 0.20671 0.29616 0.30088 0.0
H704 H 0.38808 0.75467 0.73804 0.0
H705 H 0.42501 0.70666 0.65681 0.0
H706 H 0.43076 0.69729 0.80311 0.0
H707 H 0.42707 0.70387 0.95437 0.0
H708 H 0.39148 0.75273 0.03671 0.0
H709 H 0.38336 0.76049 0.89016 0.0
C710 C 0.39739 0.74217 0.75229 0.0
C711 C 0.40613 0.73148 0.686 0.0
C712 C 0.40094 0.73701 0.83701 0.0
C713 C 0.41787 0.71507 0.70593 0.0
C714 C 0.42133 0.70977 0.78988 0.0
C715 C 0.41758 0.71625 0.94036 0.0
C716 C 0.41008 0.72778 1.00672 0.0
C717 C 0.41321 0.72082 0.85589 0.0
C718 C 0.39739 0.7435 0.98726 0.0
C719 C 0.39284 0.74805 0.90327 0.0
H720 H 0.55901 0.07652 0.92062 0.0
H721 H 0.61032 0.10877 0.83878 0.0
H722 H 0.61999 0.114 0.9851 0.0
H723 H 0.61304 0.11099 0.13635 0.0
H724 H 0.56068 0.08051 0.21834 0.0
H725 H 0.55238 0.07298 0.0722 0.0
C726 C 0.57227 0.08475 0.93465 0.0
C727 C 0.58382 0.09226 0.86826 0.0
C728 C 0.57758 0.08808 0.01921 0.0
C729 C 0.60121 0.10256 0.88801 0.0
C730 C 0.60669 0.10573 0.97195 0.0
C731 C 0.59975 0.1028 0.12245 0.0
C732 C 0.58749 0.09647 0.18876 0.0
C733 C 0.59484 0.09881 0.03802 0.0
C734 C 0.57054 0.08545 0.16916 0.0
C735 C 0.56568 0.08124 0.08532 0.0
H736 H 0.01919 0.89142 0.65945 0.0
H737 H 0.07199 0.92092 0.74251 0.0
H738 H 0.08082 0.92785 0.59607 0.0
H739 H 0.07462 0.92364 0.44392 0.0
H740 H 0.0225 0.8927 0.36189 0.0
H741 H 0.01235 0.88833 0.50806 0.0
C742 C 0.03266 0.89932 0.64561 0.0
C743 C 0.04497 0.90545 0.71215 0.0
C744 C 0.03781 0.90298 0.5612 0.0
C745 C 0.06214 0.91612 0.69291 0.0
C746 C 0.06729 0.91996 0.60899 0.0
C747 C 0.06105 0.91592 0.45798 0.0
C748 C 0.04944 0.90846 0.39155 0.0
C749 C 0.05541 0.91316 0.54258 0.0
C750 C 0.03168 0.89882 0.41117 0.0
C751 C 0.02591 0.89616 0.49502 0.0
H752 H 0.56751 0.92751 0.08115 0.0
H753 H 0.61711 0.89271 0.16319 0.0
H754 H 0.62665 0.8873 1.01697 0.0
H755 H 0.61988 0.8907 0.86561 0.0
H756 H 0.56944 0.92409 0.78274 0.0
H757 H 0.56138 0.93187 0.92911 0.0
C758 C 0.58038 0.91872 0.06711 0.0
C759 C 0.59147 0.91049 0.13355 0.0
C760 C 0.58564 0.91535 0.98251 0.0
C761 C 0.60837 0.89945 0.11391 0.0
C762 C 0.61378 0.89619 0.03002 0.0
C763 C 0.60708 0.89963 0.87947 0.0
C764 C 0.59521 0.90663 0.813 0.0
C765 C 0.60235 0.9038 0.96386 0.0
C766 C 0.57894 0.91859 0.83227 0.0
C767 C 0.57423 0.92294 0.91615 0.0
H768 H 0.02137 0.11115 0.34427 0.0
H769 H 0.07112 0.07691 0.26091 0.0
H770 H 0.07887 0.06842 0.40688 0.0
H771 H 0.0725 0.07201 0.55898 0.0
H772 H 0.02354 0.10746 0.64191 0.0
H773 H 0.01449 0.11401 0.49587 0.0
C774 C 0.03396 0.1019 0.35793 0.0
C775 C 0.04567 0.0948 0.29129 0.0
C776 C 0.0385 0.09725 0.44227 0.0
C777 C 0.0617 0.08247 0.31043 0.0
C778 C 0.06624 0.0777 0.39416 0.0
C779 C 0.05987 0.08119 0.54522 0.0
C780 C 0.04881 0.08923 0.61199 0.0
C781 C 0.05488 0.0852 0.46067 0.0
C782 C 0.03225 0.10082 0.59249 0.0
C783 C 0.02713 0.10475 0.50865 0.0
H784 H 0.06789 0.52656 0.11355 0.0
H785 H 0.11669 0.53579 0.94513 0.0
H786 H 0.11927 0.50004 0.92206 0.0
H787 H 0.10458 0.46634 0.93806 0.0
H788 H 0.05546 0.45882 0.1078 0.0
H789 H 0.05624 0.49353 0.143 0.0
C790 C 0.0793 0.5207 0.07278 0.0
C791 C 0.09194 0.53366 0.0304 0.0
C792 C 0.08052 0.50039 0.0597 0.0
C793 C 0.10683 0.52599 0.97857 0.0
C794 C 0.10818 0.50559 0.96499 0.0
C795 C 0.09437 0.47231 0.98393 0.0
C796 C 0.07975 0.46009 0.01914 0.0
C797 C 0.0947 0.49263 1.00344 0.0
C798 C 0.06661 0.46798 0.07859 0.0
C799 C 0.06703 0.48785 0.09894 0.0
H800 H 0.85057 0.78496 0.37293 0.0
H801 H 0.85759 0.78657 0.10269 0.0
H802 H 0.82188 0.78919 0.08441 0.0
H803 H 0.78862 0.78561 0.14582 0.0
H804 H 0.7816 0.78602 0.41614 0.0
H805 H 0.81732 0.7884 0.43462 0.0
C806 C 0.84423 0.78657 0.31035 0.0
C807 C 0.8565 0.7856 0.23919 0.0
C808 C 0.82373 0.78824 0.30056 0.0
C809 C 0.84832 0.78754 0.1582 0.0
C810 C 0.82792 0.78883 0.14779 0.0
C811 C 0.79496 0.78692 0.20852 0.0
C812 C 0.78268 0.78566 0.27958 0.0
C813 C 0.81546 0.78844 0.21844 0.0
C814 C 0.79087 0.7872 0.36072 0.0
C815 C 0.81127 0.78836 0.37122 0.0
H816 H 0.56534 0.53699 0.62699 0.0
H817 H 0.51486 0.53915 0.46226 0.0
H818 H 0.50997 0.50354 0.48055 0.0
H819 H 0.52293 0.4711 0.53041 0.0
H820 H 0.57436 0.47017 0.69015 0.0
H821 H 0.57585 0.50597 0.68813 0.0
C822 C 0.55313 0.52972 0.59564 0.0
C823 C 0.54069 0.54055 0.54223 0.0
C824 C 0.55062 0.50942 0.60575 0.0
C825 C 0.52469 0.53105 0.50345 0.0
C826 C 0.52197 0.51069 0.51365 0.0
C827 C 0.53406 0.47887 0.56648 0.0
C828 C 0.54854 0.46814 0.61046 0.0
C829 C 0.53519 0.4996 0.56288 0.0
C830 C 0.56312 0.47822 0.65593 0.0
C831 C 0.56404 0.49865 0.65445 0.0
H832 H 0.84276 0.21234 0.88219 0.0
H833 H 0.84174 0.21206 0.61018 0.0
H834 H 0.80601 0.2076 0.61093 0.0
H835 H 0.77469 0.20905 0.68857 0.0
H836 H 0.77543 0.21402 0.95957 0.0
H837 H 0.81136 0.21101 0.96055 0.0
C838 C 0.8347 0.21069 0.82341 0.0
C839 C 0.84475 0.21234 0.74625 0.0
C840 C 0.81402 0.20914 0.82443 0.0
C841 C 0.83421 0.21073 0.67023 0.0
C842 C 0.8138 0.20826 0.67067 0.0
C843 C 0.78275 0.20874 0.7478 0.0
C844 C 0.77256 0.21136 0.82401 0.0
C845 C 0.80346 0.20816 0.74728 0.0
C846 C 0.78307 0.21169 0.90038 0.0
C847 C 0.8036 0.21015 0.90081 0.0
H848 H 0.28316 0.26079 0.70976 0.0
H849 H 0.28193 0.30638 0.89832 0.0
H850 H 0.3179 0.30997 0.88762 0.0
H851 H 0.35022 0.29672 0.83654 0.0
H852 H 0.34996 0.25016 0.65163 0.0
H853 H 0.31415 0.25052 0.64795 0.0
C854 C 0.29072 0.27174 0.7477 0.0
C855 C 0.28001 0.28313 0.80545 0.0
C856 C 0.31122 0.27343 0.74199 0.0
C857 C 0.28991 0.29745 0.85329 0.0
C858 C 0.31049 0.29938 0.84756 0.0
C859 C 0.34223 0.28706 0.79414 0.0
C860 C 0.35264 0.27335 0.74464 0.0
C861 C 0.3214 0.287 0.79388 0.0
C862 C 0.34221 0.26073 0.69056 0.0
C863 C 0.32174 0.26089 0.68857 0.0
H864 H 0.28264 0.7359 0.36843 0.0
H865 H 0.28406 0.69745 0.15253 0.0
H866 H 0.31988 0.69368 0.16877 0.0
H867 H 0.35133 0.70581 0.23234 0.0
H868 H 0.34872 0.74557 0.44397 0.0
H869 H 0.31287 0.74414 0.44274 0.0
C870 C 0.29076 0.72637 0.32595 0.0
C871 C 0.28091 0.71716 0.25887 0.0
C872 C 0.31118 0.72465 0.33485 0.0
C873 C 0.29143 0.70465 0.20477 0.0
C874 C 0.3119 0.70266 0.2137 0.0
C875 C 0.34281 0.71362 0.2795 0.0
C876 C 0.35248 0.72579 0.33822 0.0
C877 C 0.32205 0.71318 0.27673 0.0
C878 C 0.34146 0.73614 0.39836 0.0
C879 C 0.321 0.7354 0.39742 0.0
H880 H 0.60888 0.03412 0.53353 0.0
H881 H 0.54976 0.03753 0.43339 0.0
H882 H 0.54859 0.00217 0.41895 0.0
H883 H 0.563 0.97016 0.4416 0.0
H884 H 0.62195 0.96474 0.53912 0.0
H885 H 0.62465 0.00086 0.54686 0.0
C886 C 0.59586 0.02707 0.50794 0.0
C887 C 0.57933 0.03856 0.48584 0.0
C888 C 0.59518 0.00635 0.49962 0.0
C889 C 0.56261 0.02918 0.45223 0.0
C890 C 0.56188 0.00887 0.44367 0.0
C891 C 0.5765 0.97683 0.46447 0.0
C892 C 0.59213 0.96485 0.49089 0.0
C893 C 0.57787 0.99733 0.46853 0.0
C894 C 0.60968 0.97372 0.51858 0.0
C895 C 0.61116 0.99435 0.5233 0.0
H896 H 0.02553 0.96649 0.97503 0.0
H897 H 0.07977 0.96342 0.11658 0.0
H898 H 0.08196 0.99908 0.119 0.0
H899 H 0.07055 0.03081 0.0703 0.0
H900 H 0.01715 0.03552 0.92461 0.0
H901 H 0.01237 0.9997 0.93499 0.0
C902 C 0.03758 0.97374 1.00751 0.0
C903 C 0.05258 0.96238 0.04492 0.0
C904 C 0.03902 0.99451 1.00712 0.0
C905 C 0.06819 0.97186 0.08647 0.0
C906 C 0.06947 0.99226 0.08793 0.0
C907 C 0.05776 0.02407 0.04111 0.0
C908 C 0.04439 0.03574 0.99572 0.0
C909 C 0.05531 0.00367 0.04653 0.0
C910 C 0.02771 0.02681 0.95973 0.0
C911 C 0.02503 0.00633 0.96539 0.0
H912 H 0.19053 0.65594 0.26982 0.0
H913 H 0.20377 0.67694 0.01929 0.0
H914 H 0.18148 0.65241 0.95838 0.0
H915 H 0.157 0.62595 0.97716 0.0
H916 H 0.14086 0.60783 0.22856 0.0
H917 H 0.16548 0.6301 0.28876 0.0
C918 C 0.18867 0.65493 0.20187 0.0
C919 C 0.19887 0.66799 0.14885 0.0
C920 C 0.17526 0.64134 0.16772 0.0
C921 C 0.19605 0.66695 0.0611 0.0
C922 C 0.18334 0.65294 0.02636 0.0
C923 C 0.15913 0.62674 0.04502 0.0
C924 C 0.14743 0.61514 0.09856 0.0
C925 C 0.17272 0.64018 0.07909 0.0
C926 C 0.14983 0.61659 0.18638 0.0
C927 C 0.16387 0.62932 0.22071 0.0
H928 H 0.65688 0.87055 0.54694 0.0
H929 H 0.64568 0.89396 0.29856 0.0
H930 H 0.67003 0.87148 0.23797 0.0
H931 H 0.69346 0.84416 0.25522 0.0
H932 H 0.70178 0.81811 0.50105 0.0
H933 H 0.67967 0.84253 0.56357 0.0
C934 C 0.66005 0.87084 0.47979 0.0
C935 C 0.64988 0.884 0.42714 0.0
C936 C 0.67344 0.85731 0.44518 0.0
C937 C 0.65355 0.884 0.33999 0.0
C938 C 0.66741 0.87114 0.30548 0.0
C939 C 0.69056 0.844 0.3226 0.0
C940 C 0.69934 0.82956 0.37379 0.0
C941 C 0.67731 0.85761 0.35736 0.0
C942 C 0.69517 0.82915 0.46062 0.0
C943 C 0.68257 0.8431 0.49629 0.0
H944 H 0.49109 0.35493 0.51588 0.0
H945 H 0.49463 0.39036 0.74143 0.0
H946 H 0.46584 0.3733 0.79931 0.0
H947 H 0.44114 0.34643 0.7895 0.0
H948 H 0.43951 0.31043 0.56514 0.0
H949 H 0.46593 0.32972 0.50298 0.0
C950 C 0.48556 0.35907 0.57759 0.0
C951 C 0.49515 0.37381 0.62448 0.0
C952 C 0.46928 0.34905 0.61074 0.0
C953 C 0.48759 0.37903 0.70402 0.0
C954 C 0.47114 0.36924 0.7372 0.0
C955 C 0.44636 0.34307 0.72645 0.0
C956 C 0.43832 0.327 0.68198 0.0
C957 C 0.46205 0.35398 0.69165 0.0
C958 C 0.44541 0.32267 0.60077 0.0
C959 C 0.46059 0.33367 0.56519 0.0
H960 H 0.97104 0.12106 0.99308 0.0
H961 H 0.0098 0.12141 0.7772 0.0
H962 H 0.98924 0.14571 0.70773 0.0
H963 H 0.96193 0.16857 0.71156 0.0
H964 H 0.92365 0.17058 0.92863 0.0
H965 H 0.94219 0.14358 0.99396 0.0
C966 C 0.97477 0.12627 0.93035 0.0
C967 C 0.99195 0.11935 0.89039 0.0
C968 C 0.96307 0.1408 0.89123 0.0
C969 C 0.99672 0.12641 0.80949 0.0
C970 C 0.98497 0.14039 0.76965 0.0
C971 C 0.95748 0.16309 0.77301 0.0
C972 C 0.9415 0.17173 0.81535 0.0
C973 C 0.96838 0.14795 0.81056 0.0
C974 C 0.93592 0.16424 0.89464 0.0
C975 C 0.94657 0.14884 0.93212 0.0
H976 H 0.18344 0.34041 0.76421 0.0
H977 H 0.20119 0.32966 0.02151 0.0
H978 H 0.17601 0.35257 0.07219 0.0
H979 H 0.1481 0.37474 0.04323 0.0
H980 H 0.12785 0.38231 0.78707 0.0
H981 H 0.15474 0.36163 0.73567 0.0
C982 C 0.18191 0.34335 0.83124 0.0
C983 C 0.19431 0.33372 0.88916 0.0
C984 C 0.16687 0.35586 0.85992 0.0
C985 C 0.19189 0.33709 0.97596 0.0
C986 C 0.17749 0.35014 1.00484 0.0
C987 C 0.14972 0.37198 0.97611 0.0
C988 C 0.13618 0.38022 0.91883 0.0
C989 C 0.16478 0.35949 0.94743 0.0
C990 C 0.13813 0.37618 0.83226 0.0
C991 C 0.15351 0.36438 0.80289 0.0
H992 H 0.98372 0.87041 0.97968 0.0
H993 H 0.99377 0.89379 0.22879 0.0
H994 H 0.9693 0.87108 0.28759 0.0
H995 H 0.94618 0.84354 0.26858 0.0
H996 H 0.93904 0.81758 0.02205 0.0
H997 H 0.9612 0.84221 0.96133 0.0
C998 C 0.98025 0.87066 0.04656 0.0
C999 C 0.99009 0.8839 0.09994 0.0
C1000 C 0.96684 0.85699 0.08017 0.0
C1001 C 0.98608 0.88382 0.18679 0.0
C1002 C 0.97219 0.87081 0.22027 0.0
C1003 C 0.94935 0.84342 0.20144 0.0
C1004 C 0.94088 0.82893 0.14959 0.0
C1005 C 0.96262 0.8572 0.16768 0.0
C1006 C 0.9454 0.82863 0.06307 0.0
C1007 C 0.95804 0.84272 0.02838 0.0
H1008 H 0.48026 0.63431 0.56614 0.0
H1009 H 0.49067 0.61127 0.31683 0.0
H1010 H 0.46557 0.6333 0.25829 0.0
H1011 H 0.4417 0.66023 0.27762 0.0
H1012 H 0.43447 0.686 0.52427 0.0
H1013 H 0.45714 0.66187 0.58474 0.0
C1014 C 0.47678 0.634 0.49923 0.0
C1015 C 0.48696 0.6211 0.44576 0.0
C1016 C 0.46297 0.64727 0.46577 0.0
C1017 C 0.48285 0.62108 0.3589 0.0
C1018 C 0.46854 0.63366 0.32556 0.0
C1019 C 0.44495 0.66036 0.34473 0.0
C1020 C 0.43626 0.67465 0.39679 0.0
C1021 C 0.45864 0.64696 0.37828 0.0
C1022 C 0.44092 0.67505 0.48321 0.0
C1023 C 0.45389 0.66127 0.51774 0.0
H1024 H 0.70714 0.14711 0.61349 0.0
H1025 H 0.66638 0.18658 0.7359 0.0
H1026 H 0.63934 0.16449 0.70468 0.0
H1027 H 0.62679 0.13465 0.63924 0.0
H1028 H 0.6666 0.09517 0.51201 0.0
H1029 H 0.69435 0.11645 0.54904 0.0
C1030 C 0.69237 0.15083 0.63361 0.0
C1031 C 0.68896 0.16855 0.67737 0.0
C1032 C 0.67662 0.13805 0.61457 0.0
C1033 C 0.66963 0.17309 0.70262 0.0
C1034 C 0.65404 0.16045 0.68464 0.0
C1035 C 0.64151 0.13057 0.61984 0.0
C1036 C 0.64452 0.11333 0.57265 0.0
C1037 C 0.65732 0.14297 0.64026 0.0
C1038 C 0.66379 0.10836 0.54835 0.0
C1039 C 0.6797 0.12056 0.56933 0.0
H1040 H 0.03963 0.31043 0.85767 0.0
H1041 H 0.99766 0.35797 0.87018 0.0
H1042 H 0.971 0.33535 0.83695 0.0
H1043 H 0.95922 0.30198 0.81074 0.0
H1044 H 0.00081 0.25421 0.79367 0.0
H1045 H 0.02787 0.27697 0.82229 0.0
C1046 C 0.02468 0.31585 0.85222 0.0
C1047 C 0.02068 0.33585 0.86787 0.0
C1048 C 0.00928 0.30271 0.83265 0.0
C1049 C 0.00116 0.34259 0.86063 0.0
C1050 C 0.98587 0.32968 0.84104 0.0
C1051 C 0.97421 0.29653 0.81154 0.0
C1052 C 0.97788 0.27634 0.80001 0.0
C1053 C 0.98971 0.30969 0.82787 0.0
C1054 C 0.99746 0.26962 0.80328 0.0
C1055 C 0.01299 0.28265 0.81934 0.0
H1056 H 0.53811 0.17059 0.7123 0.0
H1057 H 0.53399 0.18074 0.44377 0.0
H1058 H 0.50933 0.20626 0.46728 0.0
H1059 H 0.48735 0.22409 0.5631 0.0
H1060 H 0.4914 0.21414 0.83186 0.0
H1061 H 0.51763 0.19015 0.80919 0.0
C1062 C 0.5321 0.17866 0.65906 0.0
C1063 C 0.53785 0.17369 0.57635 0.0
C1064 C 0.51774 0.19321 0.67298 0.0
C1065 C 0.52967 0.1841 0.50799 0.0
C1066 C 0.51558 0.19872 0.52138 0.0
C1067 C 0.49419 0.21697 0.61695 0.0
C1068 C 0.4873 0.22091 0.69909 0.0
C1069 C 0.50925 0.20316 0.60347 0.0
C1070 C 0.49618 0.21122 0.76786 0.0
C1071 C 0.51126 0.19755 0.75498 0.0
H1072 H 0.63182 0.73303 0.36744 0.0
H1073 H 0.6793 0.69089 0.3746 0.0
H1074 H 0.65596 0.66441 0.4005 0.0
H1075 H 0.62226 0.65306 0.42128 0.0
H1076 H 0.57445 0.69476 0.4189 0.0
H1077 H 0.59768 0.7215 0.39042 0.0
C1078 C 0.63704 0.71807 0.37522 0.0
C1079 C 0.65731 0.71399 0.36833 0.0
C1080 C 0.62349 0.70281 0.39075 0.0
C1081 C 0.66379 0.69446 0.37789 0.0
C1082 C 0.65046 0.67929 0.39331 0.0
C1083 C 0.6169 0.66802 0.41561 0.0
C1084 C 0.59664 0.67188 0.42295 0.0
C1085 C 0.63031 0.68328 0.39987 0.0
C1086 C 0.58995 0.69133 0.41308 0.0
C1087 C 0.60324 0.70665 0.39723 0.0
H1088 H 0.12236 0.84432 0.06718 0.0
H1089 H 0.0734 0.80527 0.1125 0.0
H1090 H 0.09628 0.77813 0.13912 0.0
H1091 H 0.13046 0.76566 0.15128 0.0
H1092 H 0.17878 0.80513 0.09926 0.0
H1093 H 0.15581 0.8318 0.07221 0.0
C1094 C 0.11658 0.82981 0.08123 0.0
C1095 C 0.09613 0.82688 0.08711 0.0
C1096 C 0.12974 0.81431 0.09554 0.0
C1097 C 0.08906 0.80803 0.1081 0.0
C1098 C 0.10214 0.79247 0.12291 0.0
C1099 C 0.13592 0.78005 0.1332 0.0
C1100 C 0.15636 0.78341 0.12854 0.0
C1101 C 0.12255 0.79545 0.11703 0.0
C1102 C 0.16318 0.8022 0.10531 0.0
C1103 C 0.15004 0.81747 0.08929 0.0
H1104 H 0.00582 0.73047 0.14746 0.0
H1105 H 0.9572 0.6896 0.14179 0.0
H1106 H 0.97982 0.66244 0.11696 0.0
H1107 H 0.01326 0.6501 0.09853 0.0
H1108 H 0.06225 0.69046 0.10214 0.0
H1109 H 0.03969 0.71795 0.12664 0.0
C1110 C 1.0002 0.71563 0.1402 0.0
C1111 C 0.97984 0.71208 0.14718 0.0
C1112 C 0.01335 0.69997 0.12588 0.0
C1113 C 0.97281 0.69273 0.13822 0.0
C1114 C 0.98573 0.67718 0.12354 0.0
C1115 C 0.01902 0.66494 0.10357 0.0
C1116 C 0.03942 0.6682 0.09788 0.0
C1117 C 0.006 0.68061 0.1175 0.0
C1118 C 0.04663 0.6875 0.10675 0.0
C1119 C 0.03372 0.70323 0.12037 0.0
H1120 H 0.14491 0.21686 0.78622 0.0
H1121 H 0.15102 0.22684 0.05404 0.0
H1122 H 0.12606 0.20181 0.08263 0.0
H1123 H 0.1035 0.176 0.03169 0.0
H1124 H 0.09777 0.16588 0.76373 0.0
H1125 H 0.12148 0.19202 0.73515 0.0
C1126 C 0.14077 0.21355 0.85084 0.0
C1127 C 0.14988 0.22366 0.91786 0.0
C1128 C 0.12648 0.19907 0.86684 0.0
C1129 C 0.14412 0.21942 1.00121 0.0
C1130 C 0.12994 0.205 0.01766 0.0
C1131 C 0.10745 0.17953 0.96708 0.0
C1132 C 0.09887 0.16897 0.90001 0.0
C1133 C 0.12118 0.19457 0.95102 0.0
C1134 C 0.10396 0.1739 0.81654 0.0
C1135 C 0.11763 0.18878 0.80011 0.0
H1136 H 0.66374 0.30317 0.70396 0.0
H1137 H 0.62092 0.25628 0.69727 0.0
H1138 H 0.5952 0.2798 0.65949 0.0
H1139 H 0.58486 0.31377 0.62782 0.0
H1140 H 0.62768 0.36064 0.64288 0.0
H1141 H 0.65328 0.33702 0.67736 0.0
C1142 C 0.64874 0.29808 0.69552 0.0
C1143 C 0.64434 0.27794 0.70365 0.0
C1144 C 0.63399 0.31169 0.67442 0.0
C1145 C 0.62484 0.27165 0.69054 0.0
C1146 C 0.61007 0.28511 0.66925 0.0
C1147 C 0.59976 0.31885 0.63914 0.0
C1148 C 0.60425 0.33902 0.63145 0.0
C1149 C 0.61448 0.30518 0.66081 0.0
C1150 C 0.62375 0.34522 0.64588 0.0
C1151 C 0.63844 0.33172 0.66662 0.0
H1152 H 0.51586 0.8498 0.43156 0.0
H1153 H 0.56361 0.80806 0.42892 0.0
H1154 H 0.54019 0.78118 0.40506 0.0
H1155 H 0.50587 0.76961 0.38526 0.0
H1156 H 0.4586 0.81199 0.39009 0.0
H1157 H 0.48209 0.83847 0.41355 0.0
C1158 C 0.52117 0.83479 0.42686 0.0
C1159 C 0.54145 0.83094 0.43285 0.0
C1160 C 0.50768 0.81951 0.41334 0.0
C1161 C 0.54808 0.81145 0.42425 0.0
C1162 C 0.53468 0.79607 0.41098 0.0
C1163 C 0.50076 0.78464 0.39192 0.0
C1164 C 0.48051 0.78881 0.38513 0.0
C1165 C 0.51441 0.79992 0.40551 0.0
C1166 C 0.47411 0.80839 0.39344 0.0
C1167 C 0.48752 0.82355 0.40736 0.0
loop_
_geom_bond_atom_site_label_1
_geom_bond_atom_site_label_2
_geom_bond_distance
_geom_bond_site_symmetry_2
_ccdc_geom_bond_type
C0 C1 1.351 . S
C0 N3 1.368 . S
C0 H5 0.931 . S
C1 C0 1.351 . S
C1 N2 1.373 . S
C1 H29 0.930 . S
N2 C1 1.373 . S
N2 C4 1.340 . S
N3 C0 1.368 . S
N3 C4 1.321 . S
N3 Co6 2.135 . S
C4 N2 1.340 . S
C4 N3 1.321 . S
C4 H28 0.930 . S
H5 C0 0.931 . S
Co6 N3 2.135 . S
Co6 N9 2.121 1_554 S
Co6 O14 2.055 . S
Co6 O17 2.039 . S
Co6 N20 2.140 . S
C7 O8 1.227 . S
C7 O17 1.265 . S
O8 C7 1.227 . S
N9 Co6 2.121 1_556 S
N9 C11 1.375 . S
N9 C12 1.313 . S
C10 C11 1.338 . S
C10 N13 1.377 . S
C10 H30 0.930 . S
C11 N9 1.375 . S
C11 C10 1.338 . S
C11 H15 0.931 . S
C12 N9 1.313 . S
C12 N13 1.344 . S
C12 H16 0.930 . S
N13 C10 1.377 . S
N13 C12 1.344 . S
O14 Co6 2.055 . S
O14 C18 1.253 . S
H15 C11 0.931 . S
H16 C12 0.930 . S
O17 Co6 2.039 . S
O17 C7 1.265 . S
C18 O14 1.253 . S
C18 O19 1.227 . S
O19 C18 1.227 . S
N20 Co6 2.140 . S
N20 C23 1.346 . S
N20 C24 1.345 . S
C21 C22 1.387 . S
C21 C25 1.391 . S
C22 C21 1.387 . S
C22 C23 1.369 . S
C22 H31 0.929 . S
C23 N20 1.346 . S
C23 C22 1.369 . S
C23 H26 0.928 . S
C24 N20 1.345 . S
C24 C25 1.371 . S
C24 H27 0.931 1_554 S
C25 C21 1.391 . S
C25 C24 1.371 . S
C25 H32 0.930 . S
H26 C23 0.928 . S
H27 C24 0.931 1_556 S
H28 C4 0.930 . S
H29 C1 0.930 . S
H30 C10 0.930 . S
H31 C22 0.929 . S
H32 C25 0.930 . S
C33 C34 1.351 . S
C33 N36 1.368 . S
C33 H38 0.931 . S
C34 C33 1.351 . S
C34 N35 1.373 . S
C34 H62 0.930 . S
N35 C34 1.373 . S
N35 C37 1.340 . S
N36 C33 1.368 . S
N36 C37 1.321 . S
N36 Co39 2.135 . S
C37 N35 1.340 . S
C37 N36 1.321 . S
C37 H61 0.930 . S
H38 C33 0.931 . S
Co39 N36 2.135 . S
Co39 N42 2.121 . S
Co39 O47 2.055 . S
Co39 O50 2.039 . S
Co39 N53 2.140 . S
C40 O41 1.227 . S
C40 O50 1.265 . S
O41 C40 1.227 . S
N42 Co39 2.121 . S
N42 C44 1.375 . S
N42 C45 1.313 . S
C43 C44 1.338 . S
C43 N46 1.377 . S
C43 H63 0.930 . S
C44 N42 1.375 . S
C44 C43 1.338 . S
C44 H48 0.931 . S
C45 N42 1.313 . S
C45 N46 1.344 . S
C45 H49 0.930 . S
N46 C43 1.377 . S
N46 C45 1.344 . S
O47 Co39 2.055 . S
O47 C51 1.253 . S
H48 C44 0.931 . S
H49 C45 0.930 . S
O50 Co39 2.039 . S
O50 C40 1.265 . S
C51 O47 1.253 . S
C51 O52 1.227 . S
O52 C51 1.227 . S
N53 Co39 2.140 . S
N53 C56 1.346 . S
N53 C57 1.345 . S
C54 C55 1.387 . S
C54 C58 1.391 . S
C55 C54 1.387 . S
C55 C56 1.369 . S
C55 H64 0.929 . S
C56 N53 1.346 . S
C56 C55 1.369 . S
C56 H59 0.928 . S
C57 N53 1.345 . S
C57 C58 1.371 . S
C57 H60 0.931 . S
C58 C54 1.391 . S
C58 C57 1.371 . S
C58 H65 0.930 . S
H59 C56 0.928 . S
H60 C57 0.931 . S
H61 C37 0.930 . S
H62 C34 0.930 . S
H63 C43 0.930 . S
H64 C55 0.929 . S
H65 C58 0.930 . S
C66 C67 1.351 . S
C66 N69 1.368 . S
C66 H71 0.931 . S
C67 C66 1.351 . S
C67 N68 1.373 . S
C67 H95 0.930 . S
N68 C67 1.373 . S
N68 C70 1.340 . S
N69 C66 1.368 . S
N69 C70 1.321 . S
N69 Co72 2.135 . S
C70 N68 1.340 . S
C70 N69 1.321 . S
C70 H94 0.930 . S
H71 C66 0.931 . S
Co72 N69 2.135 . S
Co72 N75 2.121 . S
Co72 O80 2.055 . S
Co72 O83 2.039 . S
Co72 N86 2.140 . S
C73 O74 1.227 . S
C73 O83 1.265 . S
O74 C73 1.227 . S
N75 Co72 2.121 . S
N75 C77 1.375 . S
N75 C78 1.313 . S
C76 C77 1.338 . S
C76 N79 1.377 . S
C76 H96 0.930 . S
C77 N75 1.375 . S
C77 C76 1.338 . S
C77 H81 0.931 . S
C78 N75 1.313 . S
C78 N79 1.344 . S
C78 H82 0.930 . S
N79 C76 1.377 . S
N79 C78 1.344 . S
O80 Co72 2.055 . S
O80 C84 1.253 . S
H81 C77 0.931 . S
H82 C78 0.930 . S
O83 Co72 2.039 . S
O83 C73 1.265 . S
C84 O80 1.253 . S
C84 O85 1.227 . S
O85 C84 1.227 . S
N86 Co72 2.140 . S
N86 C89 1.346 . S
N86 C90 1.345 . S
C87 C88 1.387 . S
C87 C91 1.391 . S
C88 C87 1.387 . S
C88 C89 1.369 . S
C88 H97 0.929 . S
C89 N86 1.346 . S
C89 C88 1.369 . S
C89 H92 0.928 . S
C90 N86 1.345 . S
C90 C91 1.371 . S
C90 H93 0.931 . S
C91 C87 1.391 . S
C91 C90 1.371 . S
C91 H98 0.930 . S
H92 C89 0.928 . S
H93 C90 0.931 . S
H94 C70 0.930 . S
H95 C67 0.930 . S
H96 C76 0.930 . S
H97 C88 0.929 . S
H98 C91 0.930 . S
C99 C100 1.350 1_556 S
C99 N102 1.368 . S
C99 H104 0.931 . S
C100 C99 1.350 1_554 S
C100 N101 1.373 . S
C100 H128 0.930 . S
N101 C100 1.373 . S
N101 C103 1.340 . S
N102 C99 1.368 . S
N102 C103 1.321 1_556 S
N102 Co105 2.135 . S
C103 N101 1.340 . S
C103 N102 1.321 1_554 S
C103 H127 0.930 . S
H104 C99 0.931 . S
Co105 N102 2.135 . S
Co105 N108 2.121 . S
Co105 O113 2.055 . S
Co105 O116 2.039 . S
Co105 N119 2.140 . S
C106 O107 1.227 . S
C106 O116 1.265 . S
O107 C106 1.227 . S
N108 Co105 2.121 . S
N108 C110 1.375 . S
N108 C111 1.313 . S
C109 C110 1.338 . S
C109 N112 1.377 . S
C109 H129 0.930 . S
C110 N108 1.375 . S
C110 C109 1.338 . S
C110 H114 0.931 . S
C111 N108 1.313 . S
C111 N112 1.344 . S
C111 H115 0.930 . S
N112 C109 1.377 . S
N112 C111 1.344 . S
O113 Co105 2.055 . S
O113 C117 1.253 . S
H114 C110 0.931 . S
H115 C111 0.930 . S
O116 Co105 2.039 . S
O116 C106 1.265 . S
C117 O113 1.253 . S
C117 O118 1.227 . S
O118 C117 1.227 . S
N119 Co105 2.140 . S
N119 C122 1.346 . S
N119 C123 1.345 . S
C120 C121 1.387 . S
C120 C124 1.391 . S
C121 C120 1.387 . S
C121 C122 1.369 . S
C121 H130 0.929 . S
C122 N119 1.346 . S
C122 C121 1.369 . S
C122 H125 0.928 . S
C123 N119 1.345 . S
C123 C124 1.371 . S
C123 H126 0.931 . S
C124 C120 1.391 . S
C124 C123 1.371 . S
C124 H131 0.930 . S
H125 C122 0.928 . S
H126 C123 0.931 . S
H127 C103 0.930 . S
H128 C100 0.930 . S
H129 C109 0.930 . S
H130 C121 0.929 . S
H131 C124 0.930 . S
C132 C133 1.351 . S
C132 N135 1.368 . S
C132 H137 0.931 . S
C133 C132 1.351 . S
C133 N134 1.373 . S
C133 H161 0.930 . S
N134 C133 1.373 . S
N134 C136 1.340 . S
N135 C132 1.368 . S
N135 C136 1.321 . S
N135 Co138 2.135 . S
C136 N134 1.340 . S
C136 N135 1.321 . S
C136 H160 0.930 . S
H137 C132 0.931 . S
Co138 N135 2.135 . S
Co138 N141 2.121 1_556 S
Co138 O146 2.055 . S
Co138 O149 2.039 . S
Co138 N152 2.140 . S
C139 O140 1.227 . S
C139 O149 1.265 . S
O140 C139 1.227 . S
N141 Co138 2.121 1_554 S
N141 C143 1.375 . S
N141 C144 1.313 . S
C142 C143 1.338 . S
C142 N145 1.377 . S
C142 H162 0.930 . S
C143 N141 1.375 . S
C143 C142 1.338 . S
C143 H147 0.931 . S
C144 N141 1.313 . S
C144 N145 1.344 . S
C144 H148 0.930 . S
N145 C142 1.377 . S
N145 C144 1.344 . S
O146 Co138 2.055 . S
O146 C150 1.253 . S
H147 C143 0.931 . S
H148 C144 0.930 . S
O149 Co138 2.039 . S
O149 C139 1.265 . S
C150 O146 1.253 . S
C150 O151 1.227 . S
O151 C150 1.227 . S
N152 Co138 2.140 . S
N152 C155 1.346 . S
N152 C156 1.345 . S
C153 C154 1.387 . S
C153 C157 1.391 . S
C154 C153 1.387 . S
C154 C155 1.369 . S
C154 H163 0.929 . S
C155 N152 1.346 . S
C155 C154 1.369 . S
C155 H158 0.928 . S
C156 N152 1.345 . S
C156 C157 1.371 . S
C156 H159 0.931 1_556 S
C157 C153 1.391 . S
C157 C156 1.371 . S
C157 H164 0.930 . S
H158 C155 0.928 . S
H159 C156 0.931 1_554 S
H160 C136 0.930 . S
H161 C133 0.930 . S
H162 C142 0.930 . S
H163 C154 0.929 . S
H164 C157 0.930 . S
C165 C166 1.350 1_554 S
C165 N168 1.368 . S
C165 H170 0.931 . S
C166 C165 1.350 1_556 S
C166 N167 1.373 . S
C166 H194 0.930 . S
N167 C166 1.373 . S
N167 C169 1.340 . S
N168 C165 1.368 . S
N168 C169 1.321 1_554 S
N168 Co171 2.135 . S
C169 N167 1.340 . S
C169 N168 1.321 1_556 S
C169 H193 0.930 . S
H170 C165 0.931 . S
Co171 N168 2.135 . S
Co171 N174 2.121 . S
Co171 O179 2.055 . S
Co171 O182 2.039 . S
Co171 N185 2.140 . S
C172 O173 1.227 . S
C172 O182 1.265 . S
O173 C172 1.227 . S
N174 Co171 2.121 . S
N174 C176 1.375 . S
N174 C177 1.313 . S
C175 C176 1.338 . S
C175 N178 1.377 . S
C175 H195 0.930 . S
C176 N174 1.375 . S
C176 C175 1.338 . S
C176 H180 0.931 . S
C177 N174 1.313 . S
C177 N178 1.344 . S
C177 H181 0.930 . S
N178 C175 1.377 . S
N178 C177 1.344 . S
O179 Co171 2.055 . S
O179 C183 1.253 . S
H180 C176 0.931 . S
H181 C177 0.930 . S
O182 Co171 2.039 . S
O182 C172 1.265 . S
C183 O179 1.253 . S
C183 O184 1.227 . S
O184 C183 1.227 . S
N185 Co171 2.140 . S
N185 C188 1.346 . S
N185 C189 1.345 . S
C186 C187 1.387 . S
C186 C190 1.391 . S
C187 C186 1.387 . S
C187 C188 1.369 . S
C187 H196 0.929 . S
C188 N185 1.346 . S
C188 C187 1.369 . S
C188 H191 0.928 . S
C189 N185 1.345 . S
C189 C190 1.371 . S
C189 H192 0.931 . S
C190 C186 1.391 . S
C190 C189 1.371 . S
C190 H197 0.930 . S
H191 C188 0.928 . S
H192 C189 0.931 . S
H193 C169 0.930 . S
H194 C166 0.930 . S
H195 C175 0.930 . S
H196 C187 0.929 . S
H197 C190 0.930 . S
C198 C199 1.351 . S
C198 N201 1.368 . S
C198 H203 0.931 . S
C199 C198 1.351 . S
C199 N200 1.373 . S
C199 H227 0.930 . S
N200 C199 1.373 . S
N200 C202 1.340 . S
N201 C198 1.368 . S
N201 C202 1.321 . S
N201 Co204 2.135 . S
C202 N200 1.340 . S
C202 N201 1.321 . S
C202 H226 0.930 . S
H203 C198 0.931 . S
Co204 N201 2.135 . S
Co204 N207 2.121 . S
Co204 O212 2.055 . S
Co204 O215 2.039 . S
Co204 N218 2.140 . S
C205 O206 1.227 . S
C205 O215 1.265 . S
O206 C205 1.227 . S
N207 Co204 2.121 . S
N207 C209 1.375 . S
N207 C210 1.313 . S
C208 C209 1.338 . S
C208 N211 1.377 . S
C208 H228 0.930 . S
C209 N207 1.375 . S
C209 C208 1.338 . S
C209 H213 0.931 . S
C210 N207 1.313 . S
C210 N211 1.344 . S
C210 H214 0.930 . S
N211 C208 1.377 . S
N211 C210 1.344 . S
O212 Co204 2.055 . S
O212 C216 1.253 . S
H213 C209 0.931 . S
H214 C210 0.930 . S
O215 Co204 2.039 . S
O215 C205 1.265 . S
C216 O212 1.253 . S
C216 O217 1.227 . S
O217 C216 1.227 . S
N218 Co204 2.140 . S
N218 C221 1.346 . S
N218 C222 1.345 . S
C219 C220 1.387 . S
C219 C223 1.391 . S
C220 C219 1.387 . S
C220 C221 1.369 . S
C220 H229 0.929 . S
C221 N218 1.346 . S
C221 C220 1.369 . S
C221 H224 0.928 . S
C222 N218 1.345 . S
C222 C223 1.371 . S
C222 H225 0.931 . S
C223 C219 1.391 . S
C223 C222 1.371 . S
C223 H230 0.930 . S
H224 C221 0.928 . S
H225 C222 0.931 . S
H226 C202 0.930 . S
H227 C199 0.930 . S
H228 C208 0.930 . S
H229 C220 0.929 . S
H230 C223 0.930 . S
C231 C232 1.351 . S
C231 N234 1.368 . S
C231 H236 0.931 . S
C232 C231 1.351 . S
C232 N233 1.373 . S
C232 H260 0.930 . S
N233 C232 1.373 . S
N233 C235 1.340 . S
N234 C231 1.368 . S
N234 C235 1.321 . S
N234 Co237 2.135 . S
C235 N233 1.340 . S
C235 N234 1.321 . S
C235 H259 0.930 . S
H236 C231 0.931 . S
Co237 N234 2.135 . S
Co237 N240 2.121 . S
Co237 O245 2.055 . S
Co237 O248 2.039 . S
Co237 N251 2.140 . S
C238 O239 1.227 . S
C238 O248 1.265 . S
O239 C238 1.227 . S
N240 Co237 2.121 . S
N240 C242 1.375 . S
N240 C243 1.313 . S
C241 C242 1.338 . S
C241 N244 1.377 . S
C241 H261 0.930 . S
C242 N240 1.375 . S
C242 C241 1.338 . S
C242 H246 0.931 . S
C243 N240 1.313 . S
C243 N244 1.344 . S
C243 H247 0.930 . S
N244 C241 1.377 . S
N244 C243 1.344 . S
O245 Co237 2.055 . S
O245 C249 1.253 . S
H246 C242 0.931 . S
H247 C243 0.930 . S
O248 Co237 2.039 . S
O248 C238 1.265 . S
C249 O245 1.253 . S
C249 O250 1.227 . S
O250 C249 1.227 . S
N251 Co237 2.140 . S
N251 C254 1.346 . S
N251 C255 1.345 . S
C252 C253 1.387 . S
C252 C256 1.391 . S
C253 C252 1.387 . S
C253 C254 1.369 . S
C253 H262 0.929 . S
C254 N251 1.346 . S
C254 C253 1.369 . S
C254 H257 0.928 . S
C255 N251 1.345 . S
C255 C256 1.371 . S
C255 H258 0.931 . S
C256 C252 1.391 . S
C256 C255 1.371 . S
C256 H263 0.930 . S
H257 C254 0.928 . S
H258 C255 0.931 . S
H259 C235 0.930 . S
H260 C232 0.930 . S
H261 C241 0.930 . S
H262 C253 0.929 . S
H263 C256 0.930 . S
C264 C265 1.351 . S
C264 N267 1.368 . S
C264 H269 0.931 . S
C265 C264 1.351 . S
C265 N266 1.373 . S
C265 H293 0.930 . S
N266 C265 1.373 . S
N266 C268 1.340 . S
N267 C264 1.368 . S
N267 C268 1.321 . S
N267 Co270 2.135 . S
C268 N266 1.340 . S
C268 N267 1.321 . S
C268 H292 0.930 . S
H269 C264 0.931 . S
Co270 N267 2.135 . S
Co270 N273 2.121 . S
Co270 O278 2.055 . S
Co270 O281 2.039 . S
Co270 N284 2.140 . S
C271 O272 1.227 . S
C271 O281 1.265 . S
O272 C271 1.227 . S
N273 Co270 2.121 . S
N273 C275 1.375 . S
N273 C276 1.313 . S
C274 C275 1.338 . S
C274 N277 1.377 . S
C274 H294 0.930 . S
C275 N273 1.375 . S
C275 C274 1.338 . S
C275 H279 0.931 . S
C276 N273 1.313 . S
C276 N277 1.344 . S
C276 H280 0.930 . S
N277 C274 1.377 . S
N277 C276 1.344 . S
O278 Co270 2.055 . S
O278 C282 1.253 . S
H279 C275 0.931 . S
H280 C276 0.930 . S
O281 Co270 2.039 . S
O281 C271 1.265 . S
C282 O278 1.253 . S
C282 O283 1.227 . S
O283 C282 1.227 . S
N284 Co270 2.140 . S
N284 C287 1.346 . S
N284 C288 1.345 . S
C285 C286 1.387 . S
C285 C289 1.391 . S
C286 C285 1.387 . S
C286 C287 1.369 . S
C286 H295 0.929 . S
C287 N284 1.346 . S
C287 C286 1.369 . S
C287 H290 0.928 . S
C288 N284 1.345 . S
C288 C289 1.371 . S
C288 H291 0.931 . S
C289 C285 1.391 . S
C289 C288 1.371 . S
C289 H296 0.930 . S
H290 C287 0.928 . S
H291 C288 0.931 . S
H292 C268 0.930 . S
H293 C265 0.930 . S
H294 C274 0.930 . S
H295 C286 0.929 . S
H296 C289 0.930 . S
C297 C298 1.350 1_554 S
C297 N300 1.368 . S
C297 H302 0.931 . S
C298 C297 1.350 1_556 S
C298 N299 1.373 . S
C298 H326 0.930 . S
N299 C298 1.373 . S
N299 C301 1.340 . S
N300 C297 1.368 . S
N300 C301 1.321 1_554 S
N300 Co303 2.135 . S
C301 N299 1.340 . S
C301 N300 1.321 1_556 S
C301 H325 0.930 . S
H302 C297 0.931 . S
Co303 N300 2.135 . S
Co303 N306 2.121 . S
Co303 O311 2.055 . S
Co303 O314 2.039 . S
Co303 N317 2.140 . S
C304 O305 1.227 . S
C304 O314 1.265 . S
O305 C304 1.227 . S
N306 Co303 2.121 . S
N306 C308 1.375 . S
N306 C309 1.313 . S
C307 C308 1.338 . S
C307 N310 1.377 . S
C307 H327 0.930 . S
C308 N306 1.375 . S
C308 C307 1.338 . S
C308 H312 0.931 . S
C309 N306 1.313 . S
C309 N310 1.344 . S
C309 H313 0.930 . S
N310 C307 1.377 . S
N310 C309 1.344 . S
O311 Co303 2.055 . S
O311 C315 1.253 . S
H312 C308 0.931 . S
H313 C309 0.930 . S
O314 Co303 2.039 . S
O314 C304 1.265 . S
C315 O311 1.253 . S
C315 O316 1.227 . S
O316 C315 1.227 . S
N317 Co303 2.140 . S
N317 C320 1.346 . S
N317 C321 1.345 . S
C318 C319 1.387 . S
C318 C322 1.391 . S
C319 C318 1.387 . S
C319 C320 1.369 . S
C319 H328 0.929 . S
C320 N317 1.346 . S
C320 C319 1.369 . S
C320 H323 0.928 . S
C321 N317 1.345 . S
C321 C322 1.371 . S
C321 H324 0.931 . S
C322 C318 1.391 . S
C322 C321 1.371 . S
C322 H329 0.930 . S
H323 C320 0.928 . S
H324 C321 0.931 . S
H325 C301 0.930 . S
H326 C298 0.930 . S
H327 C307 0.930 . S
H328 C319 0.929 . S
H329 C322 0.930 . S
C330 C331 1.350 1_556 S
C330 N333 1.368 . S
C330 H335 0.931 . S
C331 C330 1.350 1_554 S
C331 N332 1.373 . S
C331 H359 0.930 . S
N332 C331 1.373 . S
N332 C334 1.340 . S
N333 C330 1.368 . S
N333 C334 1.321 1_556 S
N333 Co336 2.135 . S
C334 N332 1.340 . S
C334 N333 1.321 1_554 S
C334 H358 0.930 . S
H335 C330 0.931 . S
Co336 N333 2.135 . S
Co336 N339 2.121 . S
Co336 O344 2.055 . S
Co336 O347 2.039 . S
Co336 N350 2.140 . S
C337 O338 1.227 . S
C337 O347 1.265 . S
O338 C337 1.227 . S
N339 Co336 2.121 . S
N339 C341 1.375 . S
N339 C342 1.313 . S
C340 C341 1.338 . S
C340 N343 1.377 . S
C340 H360 0.930 . S
C341 N339 1.375 . S
C341 C340 1.338 . S
C341 H345 0.931 . S
C342 N339 1.313 . S
C342 N343 1.344 . S
C342 H346 0.930 . S
N343 C340 1.377 . S
N343 C342 1.344 . S
O344 Co336 2.055 . S
O344 C348 1.253 . S
H345 C341 0.931 . S
H346 C342 0.930 . S
O347 Co336 2.039 . S
O347 C337 1.265 . S
C348 O344 1.253 . S
C348 O349 1.227 . S
O349 C348 1.227 . S
N350 Co336 2.140 . S
N350 C353 1.346 . S
N350 C354 1.345 . S
C351 C352 1.387 . S
C351 C355 1.391 . S
C352 C351 1.387 . S
C352 C353 1.369 . S
C352 H361 0.929 . S
C353 N350 1.346 . S
C353 C352 1.369 . S
C353 H356 0.928 . S
C354 N350 1.345 . S
C354 C355 1.371 . S
C354 H357 0.931 . S
C355 C351 1.391 . S
C355 C354 1.371 . S
C355 H362 0.930 . S
H356 C353 0.928 . S
H357 C354 0.931 . S
H358 C334 0.930 . S
H359 C331 0.930 . S
H360 C340 0.930 . S
H361 C352 0.929 . S
H362 C355 0.930 . S
C363 C364 1.351 . S
C363 N366 1.368 . S
C363 H368 0.931 . S
C364 C363 1.351 . S
C364 N365 1.373 . S
C364 H392 0.930 . S
N365 C364 1.373 . S
N365 C367 1.340 . S
N366 C363 1.368 . S
N366 C367 1.321 . S
N366 Co369 2.135 . S
C367 N365 1.340 . S
C367 N366 1.321 . S
C367 H391 0.930 . S
H368 C363 0.931 . S
Co369 N366 2.135 . S
Co369 N372 2.121 . S
Co369 O377 2.055 . S
Co369 O380 2.039 . S
Co369 N383 2.140 . S
C370 O371 1.227 . S
C370 O380 1.265 . S
O371 C370 1.227 . S
N372 Co369 2.121 . S
N372 C374 1.375 . S
N372 C375 1.313 . S
C373 C374 1.338 . S
C373 N376 1.377 . S
C373 H393 0.930 . S
C374 N372 1.375 . S
C374 C373 1.338 . S
C374 H378 0.931 . S
C375 N372 1.313 . S
C375 N376 1.344 . S
C375 H379 0.930 . S
N376 C373 1.377 . S
N376 C375 1.344 . S
O377 Co369 2.055 . S
O377 C381 1.253 . S
H378 C374 0.931 . S
H379 C375 0.930 . S
O380 Co369 2.039 . S
O380 C370 1.265 . S
C381 O377 1.253 . S
C381 O382 1.227 . S
O382 C381 1.227 . S
N383 Co369 2.140 . S
N383 C386 1.346 . S
N383 C387 1.345 . S
C384 C385 1.387 . S
C384 C388 1.391 . S
C385 C384 1.387 . S
C385 C386 1.369 . S
C385 H394 0.929 . S
C386 N383 1.346 . S
C386 C385 1.369 . S
C386 H389 0.928 . S
C387 N383 1.345 . S
C387 C388 1.371 . S
C387 H390 0.931 . S
C388 C384 1.391 . S
C388 C387 1.371 . S
C388 H395 0.930 . S
H389 C386 0.928 . S
H390 C387 0.931 . S
H391 C367 0.930 . S
H392 C364 0.930 . S
H393 C373 0.930 . S
H394 C385 0.929 . S
H395 C388 0.930 . S
C396 C397 1.351 . S
C396 N399 1.368 . S
C396 H401 0.931 . S
C397 C396 1.351 . S
C397 N398 1.373 . S
C397 H425 0.930 . S
N398 C397 1.373 . S
N398 C400 1.340 . S
N399 C396 1.368 . S
N399 C400 1.321 . S
N399 Co402 2.135 . S
C400 N398 1.340 . S
C400 N399 1.321 . S
C400 H424 0.930 . S
H401 C396 0.931 . S
Co402 N399 2.135 . S
Co402 N405 2.121 . S
Co402 O410 2.055 . S
Co402 O413 2.039 . S
Co402 N416 2.140 . S
C403 O404 1.227 . S
C403 O413 1.265 . S
O404 C403 1.227 . S
N405 Co402 2.121 . S
N405 C407 1.375 . S
N405 C408 1.313 . S
C406 C407 1.338 . S
C406 N409 1.377 . S
C406 H426 0.930 . S
C407 N405 1.375 . S
C407 C406 1.338 . S
C407 H411 0.931 . S
C408 N405 1.313 . S
C408 N409 1.344 . S
C408 H412 0.930 . S
N409 C406 1.377 . S
N409 C408 1.344 . S
O410 Co402 2.055 . S
O410 C414 1.253 . S
H411 C407 0.931 . S
H412 C408 0.930 . S
O413 Co402 2.039 . S
O413 C403 1.265 . S
C414 O410 1.253 . S
C414 O415 1.227 . S
O415 C414 1.227 . S
N416 Co402 2.140 . S
N416 C419 1.346 . S
N416 C420 1.345 . S
C417 C418 1.387 . S
C417 C421 1.391 . S
C418 C417 1.387 . S
C418 C419 1.369 . S
C418 H427 0.929 . S
C419 N416 1.346 . S
C419 C418 1.369 . S
C419 H422 0.928 . S
C420 N416 1.345 . S
C420 C421 1.371 . S
C420 H423 0.931 . S
C421 C417 1.391 . S
C421 C420 1.371 . S
C421 H428 0.930 . S
H422 C419 0.928 . S
H423 C420 0.931 . S
H424 C400 0.930 . S
H425 C397 0.930 . S
H426 C406 0.930 . S
H427 C418 0.929 . S
H428 C421 0.930 . S
C429 C430 1.351 . S
C429 N432 1.368 . S
C429 H434 0.931 . S
C430 C429 1.351 . S
C430 N431 1.373 . S
C430 H458 0.930 . S
N431 C430 1.373 . S
N431 C433 1.340 . S
N432 C429 1.368 . S
N432 C433 1.321 . S
N432 Co435 2.135 . S
C433 N431 1.340 . S
C433 N432 1.321 . S
C433 H457 0.930 . S
H434 C429 0.931 . S
Co435 N432 2.135 . S
Co435 N438 2.121 1_554 S
Co435 O443 2.055 . S
Co435 O446 2.039 . S
Co435 N449 2.140 . S
C436 O437 1.227 . S
C436 O446 1.265 . S
O437 C436 1.227 . S
N438 Co435 2.121 1_556 S
N438 C440 1.375 . S
N438 C441 1.313 . S
C439 C440 1.338 . S
C439 N442 1.377 . S
C439 H459 0.930 . S
C440 N438 1.375 . S
C440 C439 1.338 . S
C440 H444 0.931 . S
C441 N438 1.313 . S
C441 N442 1.344 . S
C441 H445 0.930 . S
N442 C439 1.377 . S
N442 C441 1.344 . S
O443 Co435 2.055 . S
O443 C447 1.253 . S
H444 C440 0.931 . S
H445 C441 0.930 . S
O446 Co435 2.039 . S
O446 C436 1.265 . S
C447 O443 1.253 . S
C447 O448 1.227 . S
O448 C447 1.227 . S
N449 Co435 2.140 . S
N449 C452 1.346 . S
N449 C453 1.345 . S
C450 C451 1.387 . S
C450 C454 1.391 . S
C451 C450 1.387 . S
C451 C452 1.369 . S
C451 H460 0.929 . S
C452 N449 1.346 . S
C452 C451 1.369 . S
C452 H455 0.928 . S
C453 N449 1.345 . S
C453 C454 1.371 . S
C453 H456 0.931 1_554 S
C454 C450 1.391 . S
C454 C453 1.371 . S
C454 H461 0.930 . S
H455 C452 0.928 . S
H456 C453 0.931 1_556 S
H457 C433 0.930 . S
H458 C430 0.930 . S
H459 C439 0.930 . S
H460 C451 0.929 . S
H461 C454 0.930 . S
C462 C463 1.351 . S
C462 N465 1.368 . S
C462 H467 0.931 . S
C463 C462 1.351 . S
C463 N464 1.373 . S
C463 H491 0.930 . S
N464 C463 1.373 . S
N464 C466 1.340 . S
N465 C462 1.368 . S
N465 C466 1.321 . S
N465 Co468 2.135 . S
C466 N464 1.340 . S
C466 N465 1.321 . S
C466 H490 0.930 . S
H467 C462 0.931 . S
Co468 N465 2.135 . S
Co468 N471 2.121 . S
Co468 O476 2.055 . S
Co468 O479 2.039 . S
Co468 N482 2.140 . S
C469 O470 1.227 . S
C469 O479 1.265 . S
O470 C469 1.227 . S
N471 Co468 2.121 . S
N471 C473 1.375 . S
N471 C474 1.313 . S
C472 C473 1.338 . S
C472 N475 1.377 . S
C472 H492 0.930 . S
C473 N471 1.375 . S
C473 C472 1.338 . S
C473 H477 0.931 . S
C474 N471 1.313 . S
C474 N475 1.344 . S
C474 H478 0.930 . S
N475 C472 1.377 . S
N475 C474 1.344 . S
O476 Co468 2.055 . S
O476 C480 1.253 . S
H477 C473 0.931 . S
H478 C474 0.930 . S
O479 Co468 2.039 . S
O479 C469 1.265 . S
C480 O476 1.253 . S
C480 O481 1.227 . S
O481 C480 1.227 . S
N482 Co468 2.140 . S
N482 C485 1.346 . S
N482 C486 1.345 . S
C483 C484 1.387 . S
C483 C487 1.391 . S
C484 C483 1.387 . S
C484 C485 1.369 . S
C484 H493 0.929 . S
C485 N482 1.346 . S
C485 C484 1.369 . S
C485 H488 0.928 . S
C486 N482 1.345 . S
C486 C487 1.371 . S
C486 H489 0.931 . S
C487 C483 1.391 . S
C487 C486 1.371 . S
C487 H494 0.930 . S
H488 C485 0.928 . S
H489 C486 0.931 . S
H490 C466 0.930 . S
H491 C463 0.930 . S
H492 C472 0.930 . S
H493 C484 0.929 . S
H494 C487 0.930 . S
C495 C496 1.351 . S
C495 N498 1.368 . S
C495 H500 0.931 . S
C496 C495 1.351 . S
C496 N497 1.373 . S
C496 H524 0.930 . S
N497 C496 1.373 . S
N497 C499 1.340 . S
N498 C495 1.368 . S
N498 C499 1.321 . S
N498 Co501 2.135 . S
C499 N497 1.340 . S
C499 N498 1.321 . S
C499 H523 0.930 . S
H500 C495 0.931 . S
Co501 N498 2.135 . S
Co501 N504 2.121 1_556 S
Co501 O509 2.055 . S
Co501 O512 2.039 . S
Co501 N515 2.140 . S
C502 O503 1.227 . S
C502 O512 1.265 . S
O503 C502 1.227 . S
N504 Co501 2.121 1_554 S
N504 C506 1.375 . S
N504 C507 1.313 . S
C505 C506 1.338 . S
C505 N508 1.377 . S
C505 H525 0.930 . S
C506 N504 1.375 . S
C506 C505 1.338 . S
C506 H510 0.931 . S
C507 N504 1.313 . S
C507 N508 1.344 . S
C507 H511 0.930 . S
N508 C505 1.377 . S
N508 C507 1.344 . S
O509 Co501 2.055 . S
O509 C513 1.253 . S
H510 C506 0.931 . S
H511 C507 0.930 . S
O512 Co501 2.039 . S
O512 C502 1.265 . S
C513 O509 1.253 . S
C513 O514 1.227 . S
O514 C513 1.227 . S
N515 Co501 2.140 . S
N515 C518 1.346 . S
N515 C519 1.345 . S
C516 C517 1.387 . S
C516 C520 1.391 . S
C517 C516 1.387 . S
C517 C518 1.369 . S
C517 H526 0.929 . S
C518 N515 1.346 . S
C518 C517 1.369 . S
C518 H521 0.928 . S
C519 N515 1.345 . S
C519 C520 1.371 . S
C519 H522 0.931 1_556 S
C520 C516 1.391 . S
C520 C519 1.371 . S
C520 H527 0.930 . S
H521 C518 0.928 . S
H522 C519 0.931 1_554 S
H523 C499 0.930 . S
H524 C496 0.930 . S
H525 C505 0.930 . S
H526 C517 0.929 . S
H527 C520 0.930 . S
H528 C534 0.930 . S
H529 C537 0.930 . S
H530 C538 0.930 . S
H531 C539 0.930 . S
H532 C542 0.930 . S
H533 C543 0.930 . S
C534 H528 0.930 . S
C534 C535 1.355 . S
C534 C536 1.415 . S
C535 C534 1.355 . S
C535 C537 1.419 . S
C536 C534 1.415 . S
C536 C541 1.425 . S
C536 C543 1.409 . S
C537 H529 0.930 . S
C537 C535 1.419 . S
C537 C538 1.362 . S
C538 H530 0.930 . S
C538 C537 1.362 . S
C538 C541 1.409 . S
C539 H531 0.930 . S
C539 C540 1.355 . S
C539 C541 1.415 . S
C540 C539 1.355 . S
C540 C542 1.419 . S
C541 C536 1.425 . S
C541 C538 1.409 . S
C541 C539 1.415 . S
C542 H532 0.930 . S
C542 C540 1.419 . S
C542 C543 1.362 . S
C543 H533 0.930 . S
C543 C536 1.409 . S
C543 C542 1.362 . S
H544 C550 0.930 . S
H545 C553 0.930 1_554 S
H546 C554 0.930 . S
H547 C555 0.930 . S
H548 C558 0.930 . S
H549 C559 0.930 . S
C550 H544 0.930 . S
C550 C551 1.355 . S
C550 C552 1.415 . S
C551 C550 1.355 . S
C551 C553 1.419 . S
C552 C550 1.415 . S
C552 C557 1.425 . S
C552 C559 1.409 . S
C553 H545 0.930 1_556 S
C553 C551 1.419 . S
C553 C554 1.362 . S
C554 H546 0.930 . S
C554 C553 1.362 . S
C554 C557 1.409 . S
C555 H547 0.930 . S
C555 C556 1.355 . S
C555 C557 1.415 . S
C556 C555 1.355 . S
C556 C558 1.419 . S
C557 C552 1.425 . S
C557 C554 1.409 . S
C557 C555 1.415 . S
C558 H548 0.930 . S
C558 C556 1.419 . S
C558 C559 1.362 . S
C559 H549 0.930 . S
C559 C552 1.409 . S
C559 C558 1.362 . S
H560 C566 0.930 . S
H561 C569 0.930 . S
H562 C570 0.930 . S
H563 C571 0.930 . S
H564 C574 0.930 . S
H565 C575 0.930 . S
C566 H560 0.930 . S
C566 C567 1.355 . S
C566 C568 1.415 . S
C567 C566 1.355 . S
C567 C569 1.419 . S
C568 C566 1.415 . S
C568 C573 1.425 . S
C568 C575 1.409 . S
C569 H561 0.930 . S
C569 C567 1.419 . S
C569 C570 1.362 . S
C570 H562 0.930 . S
C570 C569 1.362 . S
C570 C573 1.409 . S
C571 H563 0.930 . S
C571 C572 1.355 . S
C571 C573 1.415 1_556 S
C572 C571 1.355 . S
C572 C574 1.419 . S
C573 C568 1.425 . S
C573 C570 1.409 . S
C573 C571 1.415 1_554 S
C574 H564 0.930 . S
C574 C572 1.419 . S
C574 C575 1.362 1_556 S
C575 H565 0.930 . S
C575 C568 1.409 . S
C575 C574 1.362 1_554 S
H576 C582 0.930 . S
H577 C585 0.930 . S
H578 C586 0.930 . S
H579 C587 0.930 . S
H580 C590 0.930 . S
H581 C591 0.930 . S
C582 H576 0.930 . S
C582 C583 1.355 . S
C582 C584 1.415 . S
C583 C582 1.355 . S
C583 C585 1.419 . S
C584 C582 1.415 . S
C584 C589 1.425 . S
C584 C591 1.409 . S
C585 H577 0.930 . S
C585 C583 1.419 . S
C585 C586 1.362 . S
C586 H578 0.930 . S
C586 C585 1.362 . S
C586 C589 1.409 . S
C587 H579 0.930 . S
C587 C588 1.355 . S
C587 C589 1.415 . S
C588 C587 1.355 . S
C588 C590 1.419 . S
C589 C584 1.425 . S
C589 C586 1.409 . S
C589 C587 1.415 . S
C590 H580 0.930 . S
C590 C588 1.419 . S
C590 C591 1.362 . S
C591 H581 0.930 . S
C591 C584 1.409 . S
C591 C590 1.362 . S
H592 C598 0.930 . S
H593 C601 0.930 . S
H594 C602 0.930 . S
H595 C603 0.930 . S
H596 C606 0.930 . S
H597 C607 0.930 . S
C598 H592 0.930 . S
C598 C599 1.355 . S
C598 C600 1.415 . S
C599 C598 1.355 . S
C599 C601 1.419 . S
C600 C598 1.415 . S
C600 C605 1.425 . S
C600 C607 1.409 . S
C601 H593 0.930 . S
C601 C599 1.419 . S
C601 C602 1.362 . S
C602 H594 0.930 . S
C602 C601 1.362 . S
C602 C605 1.409 . S
C603 H595 0.930 . S
C603 C604 1.355 . S
C603 C605 1.415 . S
C604 C603 1.355 . S
C604 C606 1.419 . S
C605 C600 1.425 . S
C605 C602 1.409 . S
C605 C603 1.415 . S
C606 H596 0.930 . S
C606 C604 1.419 . S
C606 C607 1.362 . S
C607 H597 0.930 . S
C607 C600 1.409 . S
C607 C606 1.362 . S
H608 C614 0.930 . S
H609 C617 0.930 . S
H610 C618 0.930 . S
H611 C619 0.930 . S
H612 C622 0.930 . S
H613 C623 0.930 . S
C614 H608 0.930 . S
C614 C615 1.355 . S
C614 C616 1.415 . S
C615 C614 1.355 . S
C615 C617 1.419 . S
C616 C614 1.415 . S
C616 C621 1.425 . S
C616 C623 1.409 . S
C617 H609 0.930 . S
C617 C615 1.419 . S
C617 C618 1.362 . S
C618 H610 0.930 . S
C618 C617 1.362 . S
C618 C621 1.409 . S
C619 H611 0.930 . S
C619 C620 1.355 . S
C619 C621 1.415 . S
C620 C619 1.355 . S
C620 C622 1.419 . S
C621 C616 1.425 . S
C621 C618 1.409 . S
C621 C619 1.415 . S
C622 H612 0.930 . S
C622 C620 1.419 . S
C622 C623 1.362 . S
C623 H613 0.930 . S
C623 C616 1.409 . S
C623 C622 1.362 . S
H624 C630 0.930 . S
H625 C633 0.930 . S
H626 C634 0.930 . S
H627 C635 0.930 . S
H628 C638 0.930 . S
H629 C639 0.930 . S
C630 H624 0.930 . S
C630 C631 1.355 . S
C630 C632 1.415 . S
C631 C630 1.355 . S
C631 C633 1.419 . S
C632 C630 1.415 . S
C632 C637 1.425 . S
C632 C639 1.409 . S
C633 H625 0.930 . S
C633 C631 1.419 . S
C633 C634 1.362 . S
C634 H626 0.930 . S
C634 C633 1.362 . S
C634 C637 1.409 . S
C635 H627 0.930 . S
C635 C636 1.355 . S
C635 C637 1.415 1_554 S
C636 C635 1.355 . S
C636 C638 1.419 . S
C637 C632 1.425 . S
C637 C634 1.409 . S
C637 C635 1.415 1_556 S
C638 H628 0.930 . S
C638 C636 1.419 . S
C638 C639 1.362 1_554 S
C639 H629 0.930 . S
C639 C632 1.409 . S
C639 C638 1.362 1_556 S
H640 C646 0.930 . S
H641 C649 0.930 . S
H642 C650 0.930 . S
H643 C651 0.930 . S
H644 C654 0.930 1_556 S
H645 C655 0.930 . S
C646 H640 0.930 . S
C646 C647 1.355 . S
C646 C648 1.415 . S
C647 C646 1.355 . S
C647 C649 1.419 . S
C648 C646 1.415 . S
C648 C653 1.425 . S
C648 C655 1.409 . S
C649 H641 0.930 . S
C649 C647 1.419 . S
C649 C650 1.362 . S
C650 H642 0.930 . S
C650 C649 1.362 . S
C650 C653 1.409 . S
C651 H643 0.930 . S
C651 C652 1.355 . S
C651 C653 1.415 . S
C652 C651 1.355 . S
C652 C654 1.419 . S
C653 C648 1.425 . S
C653 C650 1.409 . S
C653 C651 1.415 . S
C654 H644 0.930 1_554 S
C654 C652 1.419 . S
C654 C655 1.362 . S
C655 H645 0.930 . S
C655 C648 1.409 . S
C655 C654 1.362 . S
H656 C662 0.930 . S
H657 C665 0.930 . S
H658 C666 0.930 . S
H659 C667 0.930 . S
H660 C670 0.930 1_556 S
H661 C671 0.930 . S
C662 H656 0.930 . S
C662 C663 1.355 . S
C662 C664 1.415 . S
C663 C662 1.355 . S
C663 C665 1.419 . S
C664 C662 1.415 . S
C664 C669 1.425 . S
C664 C671 1.409 . S
C665 H657 0.930 . S
C665 C663 1.419 . S
C665 C666 1.362 . S
C666 H658 0.930 . S
C666 C665 1.362 . S
C666 C669 1.409 . S
C667 H659 0.930 . S
C667 C668 1.355 . S
C667 C669 1.415 . S
C668 C667 1.355 . S
C668 C670 1.419 . S
C669 C664 1.425 . S
C669 C666 1.409 . S
C669 C667 1.415 . S
C670 H660 0.930 1_554 S
C670 C668 1.419 . S
C670 C671 1.362 . S
C671 H661 0.930 . S
C671 C664 1.409 . S
C671 C670 1.362 . S
H672 C678 0.930 . S
H673 C681 0.930 . S
H674 C682 0.930 . S
H675 C683 0.930 . S
H676 C686 0.930 . S
H677 C687 0.930 . S
C678 H672 0.930 . S
C678 C679 1.355 . S
C678 C680 1.415 . S
C679 C678 1.355 . S
C679 C681 1.419 . S
C680 C678 1.415 . S
C680 C685 1.425 . S
C680 C687 1.409 . S
C681 H673 0.930 . S
C681 C679 1.419 . S
C681 C682 1.362 . S
C682 H674 0.930 . S
C682 C681 1.362 . S
C682 C685 1.409 . S
C683 H675 0.930 . S
C683 C684 1.355 . S
C683 C685 1.415 . S
C684 C683 1.355 . S
C684 C686 1.419 . S
C685 C680 1.425 . S
C685 C682 1.409 . S
C685 C683 1.415 . S
C686 H676 0.930 . S
C686 C684 1.419 . S
C686 C687 1.362 . S
C687 H677 0.930 . S
C687 C680 1.409 . S
C687 C686 1.362 . S
H688 C694 0.930 . S
H689 C697 0.930 . S
H690 C698 0.930 . S
H691 C699 0.930 . S
H692 C702 0.930 . S
H693 C703 0.930 . S
C694 H688 0.930 . S
C694 C695 1.355 . S
C694 C696 1.415 . S
C695 C694 1.355 . S
C695 C697 1.419 . S
C696 C694 1.415 . S
C696 C701 1.425 . S
C696 C703 1.409 . S
C697 H689 0.930 . S
C697 C695 1.419 . S
C697 C698 1.362 . S
C698 H690 0.930 . S
C698 C697 1.362 . S
C698 C701 1.409 . S
C699 H691 0.930 . S
C699 C700 1.355 . S
C699 C701 1.415 . S
C700 C699 1.355 . S
C700 C702 1.419 . S
C701 C696 1.425 . S
C701 C698 1.409 . S
C701 C699 1.415 . S
C702 H692 0.930 . S
C702 C700 1.419 . S
C702 C703 1.362 . S
C703 H693 0.930 . S
C703 C696 1.409 . S
C703 C702 1.362 . S
H704 C710 0.930 . S
H705 C713 0.930 . S
H706 C714 0.930 . S
H707 C715 0.930 . S
H708 C718 0.930 1_554 S
H709 C719 0.930 . S
C710 H704 0.930 . S
C710 C711 1.355 . S
C710 C712 1.415 . S
C711 C710 1.355 . S
C711 C713 1.419 . S
C712 C710 1.415 . S
C712 C717 1.425 . S
C712 C719 1.409 . S
C713 H705 0.930 . S
C713 C711 1.419 . S
C713 C714 1.362 . S
C714 H706 0.930 . S
C714 C713 1.362 . S
C714 C717 1.409 . S
C715 H707 0.930 . S
C715 C716 1.355 . S
C715 C717 1.415 . S
C716 C715 1.355 . S
C716 C718 1.419 . S
C717 C712 1.425 . S
C717 C714 1.409 . S
C717 C715 1.415 . S
C718 H708 0.930 1_556 S
C718 C716 1.419 . S
C718 C719 1.362 . S
C719 H709 0.930 . S
C719 C712 1.409 . S
C719 C718 1.362 . S
H720 C726 0.930 . S
H721 C729 0.930 . S
H722 C730 0.930 . S
H723 C731 0.930 . S
H724 C734 0.930 . S
H725 C735 0.930 . S
C726 H720 0.930 . S
C726 C727 1.355 . S
C726 C728 1.415 1_556 S
C727 C726 1.355 . S
C727 C729 1.419 . S
C728 C726 1.415 1_554 S
C728 C733 1.425 . S
C728 C735 1.409 . S
C729 H721 0.930 . S
C729 C727 1.419 . S
C729 C730 1.362 1_556 S
C730 H722 0.930 . S
C730 C729 1.362 1_554 S
C730 C733 1.409 . S
C731 H723 0.930 . S
C731 C732 1.355 . S
C731 C733 1.415 . S
C732 C731 1.355 . S
C732 C734 1.419 . S
C733 C728 1.425 . S
C733 C730 1.409 . S
C733 C731 1.415 . S
C734 H724 0.930 . S
C734 C732 1.419 . S
C734 C735 1.362 . S
C735 H725 0.930 . S
C735 C728 1.409 . S
C735 C734 1.362 . S
H736 C742 0.930 . S
H737 C745 0.930 . S
H738 C746 0.930 . S
H739 C747 0.930 . S
H740 C750 0.930 . S
H741 C751 0.930 . S
C742 H736 0.930 . S
C742 C743 1.355 . S
C742 C744 1.415 . S
C743 C742 1.355 . S
C743 C745 1.419 . S
C744 C742 1.415 . S
C744 C749 1.425 . S
C744 C751 1.409 . S
C745 H737 0.930 . S
C745 C743 1.419 . S
C745 C746 1.362 . S
C746 H738 0.930 . S
C746 C745 1.362 . S
C746 C749 1.409 . S
C747 H739 0.930 . S
C747 C748 1.355 . S
C747 C749 1.415 . S
C748 C747 1.355 . S
C748 C750 1.419 . S
C749 C744 1.425 . S
C749 C746 1.409 . S
C749 C747 1.415 . S
C750 H740 0.930 . S
C750 C748 1.419 . S
C750 C751 1.362 . S
C751 H741 0.930 . S
C751 C744 1.409 . S
C751 C750 1.362 . S
H752 C758 0.930 . S
H753 C761 0.930 . S
H754 C762 0.930 . S
H755 C763 0.930 . S
H756 C766 0.930 . S
H757 C767 0.930 . S
C758 H752 0.930 . S
C758 C759 1.355 . S
C758 C760 1.415 1_554 S
C759 C758 1.355 . S
C759 C761 1.419 . S
C760 C758 1.415 1_556 S
C760 C765 1.425 . S
C760 C767 1.409 . S
C761 H753 0.930 . S
C761 C759 1.419 . S
C761 C762 1.362 1_554 S
C762 H754 0.930 . S
C762 C761 1.362 1_556 S
C762 C765 1.409 . S
C763 H755 0.930 . S
C763 C764 1.355 . S
C763 C765 1.415 . S
C764 C763 1.355 . S
C764 C766 1.419 . S
C765 C760 1.425 . S
C765 C762 1.409 . S
C765 C763 1.415 . S
C766 H756 0.930 . S
C766 C764 1.419 . S
C766 C767 1.362 . S
C767 H757 0.930 . S
C767 C760 1.409 . S
C767 C766 1.362 . S
H768 C774 0.930 . S
H769 C777 0.930 . S
H770 C778 0.930 . S
H771 C779 0.930 . S
H772 C782 0.930 . S
H773 C783 0.930 . S
C774 H768 0.930 . S
C774 C775 1.355 . S
C774 C776 1.415 . S
C775 C774 1.355 . S
C775 C777 1.419 . S
C776 C774 1.415 . S
C776 C781 1.425 . S
C776 C783 1.409 . S
C777 H769 0.930 . S
C777 C775 1.419 . S
C777 C778 1.362 . S
C778 H770 0.930 . S
C778 C777 1.362 . S
C778 C781 1.409 . S
C779 H771 0.930 . S
C779 C780 1.355 . S
C779 C781 1.415 . S
C780 C779 1.355 . S
C780 C782 1.419 . S
C781 C776 1.425 . S
C781 C778 1.409 . S
C781 C779 1.415 . S
C782 H772 0.930 . S
C782 C780 1.419 . S
C782 C783 1.362 . S
C783 H773 0.930 . S
C783 C776 1.409 . S
C783 C782 1.362 . S
H784 C790 0.930 . S
H785 C793 0.930 . S
H786 C794 0.930 . S
H787 C795 0.930 . S
H788 C798 0.930 . S
H789 C799 0.930 . S
C790 H784 0.930 . S
C790 C791 1.355 . S
C790 C792 1.415 . S
C791 C790 1.355 . S
C791 C793 1.419 . S
C792 C790 1.415 . S
C792 C797 1.425 1_554 S
C792 C799 1.409 . S
C793 H785 0.930 . S
C793 C791 1.419 . S
C793 C794 1.362 1_554 S
C794 H786 0.930 . S
C794 C793 1.362 1_556 S
C794 C797 1.409 . S
C795 H787 0.930 . S
C795 C796 1.355 . S
C795 C797 1.415 . S
C796 C795 1.355 . S
C796 C798 1.419 . S
C797 C792 1.425 1_556 S
C797 C794 1.409 . S
C797 C795 1.415 . S
C798 H788 0.930 . S
C798 C796 1.419 . S
C798 C799 1.362 1_556 S
C799 H789 0.930 . S
C799 C792 1.409 . S
C799 C798 1.362 1_554 S
H800 C806 0.930 . S
H801 C809 0.930 . S
H802 C810 0.930 . S
H803 C811 0.930 . S
H804 C814 0.930 . S
H805 C815 0.930 . S
C806 H800 0.930 . S
C806 C807 1.355 . S
C806 C808 1.415 . S
C807 C806 1.355 . S
C807 C809 1.419 . S
C808 C806 1.415 . S
C808 C813 1.425 . S
C808 C815 1.409 . S
C809 H801 0.930 . S
C809 C807 1.419 . S
C809 C810 1.362 . S
C810 H802 0.930 . S
C810 C809 1.362 . S
C810 C813 1.409 . S
C811 H803 0.930 . S
C811 C812 1.355 . S
C811 C813 1.415 . S
C812 C811 1.355 . S
C812 C814 1.419 . S
C813 C808 1.425 . S
C813 C810 1.409 . S
C813 C811 1.415 . S
C814 H804 0.930 . S
C814 C812 1.419 . S
C814 C815 1.362 . S
C815 H805 0.930 . S
C815 C808 1.409 . S
C815 C814 1.362 . S
H816 C822 0.930 . S
H817 C825 0.930 . S
H818 C826 0.930 . S
H819 C827 0.930 . S
H820 C830 0.930 . S
H821 C831 0.930 . S
C822 H816 0.930 . S
C822 C823 1.355 . S
C822 C824 1.415 . S
C823 C822 1.355 . S
C823 C825 1.419 . S
C824 C822 1.415 . S
C824 C829 1.425 . S
C824 C831 1.409 . S
C825 H817 0.930 . S
C825 C823 1.419 . S
C825 C826 1.362 . S
C826 H818 0.930 . S
C826 C825 1.362 . S
C826 C829 1.409 . S
C827 H819 0.930 . S
C827 C828 1.355 . S
C827 C829 1.415 . S
C828 C827 1.355 . S
C828 C830 1.419 . S
C829 C824 1.425 . S
C829 C826 1.409 . S
C829 C827 1.415 . S
C830 H820 0.930 . S
C830 C828 1.419 . S
C830 C831 1.362 . S
C831 H821 0.930 . S
C831 C824 1.409 . S
C831 C830 1.362 . S
H832 C838 0.930 . S
H833 C841 0.930 . S
H834 C842 0.930 . S
H835 C843 0.930 . S
H836 C846 0.930 . S
H837 C847 0.930 . S
C838 H832 0.930 . S
C838 C839 1.355 . S
C838 C840 1.415 . S
C839 C838 1.355 . S
C839 C841 1.419 . S
C840 C838 1.415 . S
C840 C845 1.425 . S
C840 C847 1.409 . S
C841 H833 0.930 . S
C841 C839 1.419 . S
C841 C842 1.362 . S
C842 H834 0.930 . S
C842 C841 1.362 . S
C842 C845 1.409 . S
C843 H835 0.930 . S
C843 C844 1.355 . S
C843 C845 1.415 . S
C844 C843 1.355 . S
C844 C846 1.419 . S
C845 C840 1.425 . S
C845 C842 1.409 . S
C845 C843 1.415 . S
C846 H836 0.930 . S
C846 C844 1.419 . S
C846 C847 1.362 . S
C847 H837 0.930 . S
C847 C840 1.409 . S
C847 C846 1.362 . S
H848 C854 0.930 . S
H849 C857 0.930 . S
H850 C858 0.930 . S
H851 C859 0.930 . S
H852 C862 0.930 . S
H853 C863 0.930 . S
C854 H848 0.930 . S
C854 C855 1.355 . S
C854 C856 1.415 . S
C855 C854 1.355 . S
C855 C857 1.419 . S
C856 C854 1.415 . S
C856 C861 1.425 . S
C856 C863 1.409 . S
C857 H849 0.930 . S
C857 C855 1.419 . S
C857 C858 1.362 . S
C858 H850 0.930 . S
C858 C857 1.362 . S
C858 C861 1.409 . S
C859 H851 0.930 . S
C859 C860 1.355 . S
C859 C861 1.415 . S
C860 C859 1.355 . S
C860 C862 1.419 . S
C861 C856 1.425 . S
C861 C858 1.409 . S
C861 C859 1.415 . S
C862 H852 0.930 . S
C862 C860 1.419 . S
C862 C863 1.362 . S
C863 H853 0.930 . S
C863 C856 1.409 . S
C863 C862 1.362 . S
H864 C870 0.930 . S
H865 C873 0.930 . S
H866 C874 0.930 . S
H867 C875 0.930 . S
H868 C878 0.930 . S
H869 C879 0.930 . S
C870 H864 0.930 . S
C870 C871 1.355 . S
C870 C872 1.415 . S
C871 C870 1.355 . S
C871 C873 1.419 . S
C872 C870 1.415 . S
C872 C877 1.425 . S
C872 C879 1.409 . S
C873 H865 0.930 . S
C873 C871 1.419 . S
C873 C874 1.362 . S
C874 H866 0.930 . S
C874 C873 1.362 . S
C874 C877 1.409 . S
C875 H867 0.930 . S
C875 C876 1.355 . S
C875 C877 1.415 . S
C876 C875 1.355 . S
C876 C878 1.419 . S
C877 C872 1.425 . S
C877 C874 1.409 . S
C877 C875 1.415 . S
C878 H868 0.930 . S
C878 C876 1.419 . S
C878 C879 1.362 . S
C879 H869 0.930 . S
C879 C872 1.409 . S
C879 C878 1.362 . S
H880 C886 0.930 . S
H881 C889 0.930 . S
H882 C890 0.930 . S
H883 C891 0.930 . S
H884 C894 0.930 . S
H885 C895 0.930 . S
C886 H880 0.930 . S
C886 C887 1.355 . S
C886 C888 1.415 . S
C887 C886 1.355 . S
C887 C889 1.419 . S
C888 C886 1.415 . S
C888 C893 1.425 1_545 S
C888 C895 1.409 1_545 S
C889 H881 0.930 . S
C889 C887 1.419 . S
C889 C890 1.362 . S
C890 H882 0.930 . S
C890 C889 1.362 . S
C890 C893 1.409 1_545 S
C891 H883 0.930 . S
C891 C892 1.355 . S
C891 C893 1.415 . S
C892 C891 1.355 . S
C892 C894 1.419 . S
C893 C888 1.425 1_565 S
C893 C890 1.409 1_565 S
C893 C891 1.415 . S
C894 H884 0.930 . S
C894 C892 1.419 . S
C894 C895 1.362 . S
C895 H885 0.930 . S
C895 C888 1.409 1_565 S
C895 C894 1.362 . S
H896 C902 0.930 . S
H897 C905 0.930 . S
H898 C906 0.930 1_545 S
H899 C907 0.930 . S
H900 C910 0.930 . S
H901 C911 0.930 1_565 S
C902 H896 0.930 . S
C902 C903 1.355 1_556 S
C902 C904 1.415 . S
C903 C902 1.355 1_554 S
C903 C905 1.419 . S
C904 C902 1.415 . S
C904 C909 1.425 1_566 S
C904 C911 1.409 1_565 S
C905 H897 0.930 . S
C905 C903 1.419 . S
C905 C906 1.362 . S
C906 H898 0.930 1_565 S
C906 C905 1.362 . S
C906 C909 1.409 1_565 S
C907 H899 0.930 . S
C907 C908 1.355 1_554 S
C907 C909 1.415 . S
C908 C907 1.355 1_556 S
C908 C910 1.419 . S
C909 C904 1.425 1_544 S
C909 C906 1.409 1_545 S
C909 C907 1.415 . S
C910 H900 0.930 . S
C910 C908 1.419 . S
C910 C911 1.362 . S
C911 H901 0.930 1_545 S
C911 C904 1.409 1_545 S
C911 C910 1.362 . S
H912 C918 0.930 . S
H913 C921 0.930 . S
H914 C922 0.930 . S
H915 C923 0.930 . S
H916 C926 0.930 . S
H917 C927 0.930 . S
C918 H912 0.930 . S
C918 C919 1.355 . S
C918 C920 1.415 . S
C919 C918 1.355 . S
C919 C921 1.419 . S
C920 C918 1.415 . S
C920 C925 1.425 . S
C920 C927 1.409 . S
C921 H913 0.930 . S
C921 C919 1.419 . S
C921 C922 1.362 . S
C922 H914 0.930 . S
C922 C921 1.362 . S
C922 C925 1.409 . S
C923 H915 0.930 . S
C923 C924 1.355 . S
C923 C925 1.415 . S
C924 C923 1.355 . S
C924 C926 1.419 . S
C925 C920 1.425 . S
C925 C922 1.409 . S
C925 C923 1.415 . S
C926 H916 0.930 . S
C926 C924 1.419 . S
C926 C927 1.362 . S
C927 H917 0.930 . S
C927 C920 1.409 . S
C927 C926 1.362 . S
H928 C934 0.930 . S
H929 C937 0.930 . S
H930 C938 0.930 . S
H931 C939 0.930 . S
H932 C942 0.930 . S
H933 C943 0.930 . S
C934 H928 0.930 . S
C934 C935 1.355 . S
C934 C936 1.415 . S
C935 C934 1.355 . S
C935 C937 1.419 . S
C936 C934 1.415 . S
C936 C941 1.425 . S
C936 C943 1.409 . S
C937 H929 0.930 . S
C937 C935 1.419 . S
C937 C938 1.362 . S
C938 H930 0.930 . S
C938 C937 1.362 . S
C938 C941 1.409 . S
C939 H931 0.930 . S
C939 C940 1.355 . S
C939 C941 1.415 . S
C940 C939 1.355 . S
C940 C942 1.419 . S
C941 C936 1.425 . S
C941 C938 1.409 . S
C941 C939 1.415 . S
C942 H932 0.930 . S
C942 C940 1.419 . S
C942 C943 1.362 . S
C943 H933 0.930 . S
C943 C936 1.409 . S
C943 C942 1.362 . S
H944 C950 0.930 . S
H945 C953 0.930 . S
H946 C954 0.930 . S
H947 C955 0.930 . S
H948 C958 0.930 . S
H949 C959 0.930 . S
C950 H944 0.930 . S
C950 C951 1.355 . S
C950 C952 1.415 . S
C951 C950 1.355 . S
C951 C953 1.419 . S
C952 C950 1.415 . S
C952 C957 1.425 . S
C952 C959 1.409 . S
C953 H945 0.930 . S
C953 C951 1.419 . S
C953 C954 1.362 . S
C954 H946 0.930 . S
C954 C953 1.362 . S
C954 C957 1.409 . S
C955 H947 0.930 . S
C955 C956 1.355 . S
C955 C957 1.415 . S
C956 C955 1.355 . S
C956 C958 1.419 . S
C957 C952 1.425 . S
C957 C954 1.409 . S
C957 C955 1.415 . S
C958 H948 0.930 . S
C958 C956 1.419 . S
C958 C959 1.362 . S
C959 H949 0.930 . S
C959 C952 1.409 . S
C959 C958 1.362 . S
H960 C966 0.930 . S
H961 C969 0.897 1_455 S
H962 C970 0.930 . S
H963 C971 0.930 . S
H964 C974 0.930 . S
H965 C975 0.930 1_554 S
C966 H960 0.930 . S
C966 C967 1.377 . S
C966 C968 1.415 . S
C967 C966 1.377 . S
C967 C969 1.419 . S
C968 C966 1.415 . S
C968 C973 1.425 . S
C968 C975 1.409 . S
C969 H961 0.897 1_655 S
C969 C967 1.419 . S
C969 C970 1.397 . S
C970 H962 0.930 . S
C970 C969 1.397 . S
C970 C973 1.409 . S
C971 H963 0.930 . S
C971 C972 1.355 . S
C971 C973 1.415 . S
C972 C971 1.355 . S
C972 C974 1.419 . S
C973 C968 1.425 . S
C973 C970 1.409 . S
C973 C971 1.415 . S
C974 H964 0.930 . S
C974 C972 1.419 . S
C974 C975 1.362 . S
C975 H965 0.930 1_556 S
C975 C968 1.409 . S
C975 C974 1.362 . S
H976 C982 0.930 . S
H977 C985 0.930 . S
H978 C986 0.930 . S
H979 C987 0.930 . S
H980 C990 0.930 . S
H981 C991 0.930 . S
C982 H976 0.930 . S
C982 C983 1.355 . S
C982 C984 1.415 . S
C983 C982 1.355 . S
C983 C985 1.419 . S
C984 C982 1.415 . S
C984 C989 1.425 . S
C984 C991 1.409 . S
C985 H977 0.930 . S
C985 C983 1.419 . S
C985 C986 1.362 . S
C986 H978 0.930 . S
C986 C985 1.362 . S
C986 C989 1.409 . S
C987 H979 0.930 . S
C987 C988 1.355 . S
C987 C989 1.415 . S
C988 C987 1.355 . S
C988 C990 1.419 . S
C989 C984 1.425 . S
C989 C986 1.409 . S
C989 C987 1.415 . S
C990 H980 0.930 . S
C990 C988 1.419 . S
C990 C991 1.362 . S
C991 H981 0.930 . S
C991 C984 1.409 . S
C991 C990 1.362 . S
H992 C998 0.930 . S
H993 C1001 0.930 . S
H994 C1002 0.930 . S
H995 C1003 0.930 . S
H996 C1006 0.930 . S
H997 C1007 0.930 1_556 S
C998 H992 0.930 . S
C998 C999 1.368 . S
C998 C1000 1.415 . S
C999 C998 1.368 . S
C999 C1001 1.418 1_655 S
C1000 C998 1.415 . S
C1000 C1005 1.425 . S
C1000 C1007 1.409 . S
C1001 H993 0.930 . S
C1001 C999 1.418 1_455 S
C1001 C1002 1.362 1_455 S
C1002 H994 0.930 . S
C1002 C1001 1.362 1_655 S
C1002 C1005 1.409 . S
C1003 H995 0.930 . S
C1003 C1004 1.355 . S
C1003 C1005 1.415 . S
C1004 C1003 1.355 . S
C1004 C1006 1.419 . S
C1005 C1000 1.425 . S
C1005 C1002 1.409 . S
C1005 C1003 1.415 . S
C1006 H996 0.930 . S
C1006 C1004 1.419 . S
C1006 C1007 1.362 . S
C1007 H997 0.930 1_554 S
C1007 C1000 1.409 . S
C1007 C1006 1.362 . S
H1008 C1014 0.930 . S
H1009 C1017 0.930 . S
H1010 C1018 0.930 . S
H1011 C1019 0.930 . S
H1012 C1022 0.930 . S
H1013 C1023 0.930 . S
C1014 H1008 0.930 . S
C1014 C1015 1.355 . S
C1014 C1016 1.415 . S
C1015 C1014 1.355 . S
C1015 C1017 1.419 . S
C1016 C1014 1.415 . S
C1016 C1021 1.425 . S
C1016 C1023 1.409 . S
C1017 H1009 0.930 . S
C1017 C1015 1.419 . S
C1017 C1018 1.362 . S
C1018 H1010 0.930 . S
C1018 C1017 1.362 . S
C1018 C1021 1.409 . S
C1019 H1011 0.930 . S
C1019 C1020 1.355 . S
C1019 C1021 1.415 . S
C1020 C1019 1.355 . S
C1020 C1022 1.419 . S
C1021 C1016 1.425 . S
C1021 C1018 1.409 . S
C1021 C1019 1.415 . S
C1022 H1012 0.930 . S
C1022 C1020 1.419 . S
C1022 C1023 1.362 . S
C1023 H1013 0.930 . S
C1023 C1016 1.409 . S
C1023 C1022 1.362 . S
H1024 C1030 0.930 . S
H1025 C1033 0.930 . S
H1026 C1034 0.930 . S
H1027 C1035 0.930 . S
H1028 C1038 0.930 . S
H1029 C1039 0.930 . S
C1030 H1024 0.930 . S
C1030 C1031 1.355 . S
C1030 C1032 1.415 . S
C1031 C1030 1.355 . S
C1031 C1033 1.419 . S
C1032 C1030 1.415 . S
C1032 C1037 1.425 . S
C1032 C1039 1.409 . S
C1033 H1025 0.930 . S
C1033 C1031 1.419 . S
C1033 C1034 1.362 . S
C1034 H1026 0.930 . S
C1034 C1033 1.362 . S
C1034 C1037 1.409 . S
C1035 H1027 0.930 . S
C1035 C1036 1.355 . S
C1035 C1037 1.415 . S
C1036 C1035 1.355 . S
C1036 C1038 1.419 . S
C1037 C1032 1.425 . S
C1037 C1034 1.409 . S
C1037 C1035 1.415 . S
C1038 H1028 0.930 . S
C1038 C1036 1.419 . S
C1038 C1039 1.362 . S
C1039 H1029 0.930 . S
C1039 C1032 1.409 . S
C1039 C1038 1.362 . S
H1040 C1046 0.930 . S
H1041 C1049 0.930 . S
H1042 C1050 0.930 . S
H1043 C1051 0.930 . S
H1044 C1054 0.930 . S
H1045 C1055 0.930 1_455 S
C1046 H1040 0.930 . S
C1046 C1047 1.355 . S
C1046 C1048 1.415 1_455 S
C1047 C1046 1.355 . S
C1047 C1049 1.419 1_455 S
C1048 C1046 1.415 1_655 S
C1048 C1053 1.425 . S
C1048 C1055 1.409 . S
C1049 H1041 0.930 . S
C1049 C1047 1.419 1_655 S
C1049 C1050 1.362 . S
C1050 H1042 0.930 . S
C1050 C1049 1.362 . S
C1050 C1053 1.409 . S
C1051 H1043 0.930 . S
C1051 C1052 1.355 . S
C1051 C1053 1.415 . S
C1052 C1051 1.355 . S
C1052 C1054 1.419 . S
C1053 C1048 1.425 . S
C1053 C1050 1.409 . S
C1053 C1051 1.415 . S
C1054 H1044 0.930 . S
C1054 C1052 1.419 . S
C1054 C1055 1.362 . S
C1055 H1045 0.930 1_655 S
C1055 C1048 1.409 . S
C1055 C1054 1.362 . S
H1056 C1062 0.930 . S
H1057 C1065 0.930 . S
H1058 C1066 0.930 . S
H1059 C1067 0.930 . S
H1060 C1070 0.930 . S
H1061 C1071 0.930 . S
C1062 H1056 0.930 . S
C1062 C1063 1.355 . S
C1062 C1064 1.415 . S
C1063 C1062 1.355 . S
C1063 C1065 1.419 . S
C1064 C1062 1.415 . S
C1064 C1069 1.425 . S
C1064 C1071 1.409 . S
C1065 H1057 0.930 . S
C1065 C1063 1.419 . S
C1065 C1066 1.362 . S
C1066 H1058 0.930 . S
C1066 C1065 1.362 . S
C1066 C1069 1.409 . S
C1067 H1059 0.930 . S
C1067 C1068 1.355 . S
C1067 C1069 1.415 . S
C1068 C1067 1.355 . S
C1068 C1070 1.419 . S
C1069 C1064 1.425 . S
C1069 C1066 1.409 . S
C1069 C1067 1.415 . S
C1070 H1060 0.930 . S
C1070 C1068 1.419 . S
C1070 C1071 1.362 . S
C1071 H1061 0.930 . S
C1071 C1064 1.409 . S
C1071 C1070 1.362 . S
H1072 C1078 0.930 . S
H1073 C1081 0.930 . S
H1074 C1082 0.930 . S
H1075 C1083 0.930 . S
H1076 C1086 0.930 . S
H1077 C1087 0.930 . S
C1078 H1072 0.930 . S
C1078 C1079 1.355 . S
C1078 C1080 1.415 . S
C1079 C1078 1.355 . S
C1079 C1081 1.419 . S
C1080 C1078 1.415 . S
C1080 C1085 1.425 . S
C1080 C1087 1.409 . S
C1081 H1073 0.930 . S
C1081 C1079 1.419 . S
C1081 C1082 1.362 . S
C1082 H1074 0.930 . S
C1082 C1081 1.362 . S
C1082 C1085 1.409 . S
C1083 H1075 0.930 . S
C1083 C1084 1.355 . S
C1083 C1085 1.415 . S
C1084 C1083 1.355 . S
C1084 C1086 1.419 . S
C1085 C1080 1.425 . S
C1085 C1082 1.409 . S
C1085 C1083 1.415 . S
C1086 H1076 0.930 . S
C1086 C1084 1.419 . S
C1086 C1087 1.362 . S
C1087 H1077 0.930 . S
C1087 C1080 1.409 . S
C1087 C1086 1.362 . S
H1088 C1094 0.930 . S
H1089 C1097 0.930 . S
H1090 C1098 0.930 . S
H1091 C1099 0.930 . S
H1092 C1102 0.930 . S
H1093 C1103 0.930 . S
C1094 H1088 0.930 . S
C1094 C1095 1.355 . S
C1094 C1096 1.415 . S
C1095 C1094 1.355 . S
C1095 C1097 1.419 . S
C1096 C1094 1.415 . S
C1096 C1101 1.425 . S
C1096 C1103 1.409 . S
C1097 H1089 0.930 . S
C1097 C1095 1.419 . S
C1097 C1098 1.362 . S
C1098 H1090 0.930 . S
C1098 C1097 1.362 . S
C1098 C1101 1.409 . S
C1099 H1091 0.930 . S
C1099 C1100 1.355 . S
C1099 C1101 1.415 . S
C1100 C1099 1.355 . S
C1100 C1102 1.419 . S
C1101 C1096 1.425 . S
C1101 C1098 1.409 . S
C1101 C1099 1.415 . S
C1102 H1092 0.930 . S
C1102 C1100 1.419 . S
C1102 C1103 1.362 . S
C1103 H1093 0.930 . S
C1103 C1096 1.409 . S
C1103 C1102 1.362 . S
H1104 C1110 0.930 . S
H1105 C1113 0.930 . S
H1106 C1114 0.930 . S
H1107 C1115 0.930 . S
H1108 C1118 0.930 . S
H1109 C1119 0.930 . S
C1110 H1104 0.930 . S
C1110 C1111 1.355 . S
C1110 C1112 1.415 . S
C1111 C1110 1.355 . S
C1111 C1113 1.419 . S
C1112 C1110 1.415 . S
C1112 C1117 1.425 . S
C1112 C1119 1.409 1_655 S
C1113 H1105 0.930 . S
C1113 C1111 1.419 . S
C1113 C1114 1.362 . S
C1114 H1106 0.930 . S
C1114 C1113 1.362 . S
C1114 C1117 1.409 . S
C1115 H1107 0.930 . S
C1115 C1116 1.355 1_655 S
C1115 C1117 1.415 . S
C1116 C1115 1.355 1_455 S
C1116 C1118 1.419 . S
C1117 C1112 1.425 . S
C1117 C1114 1.409 . S
C1117 C1115 1.415 . S
C1118 H1108 0.930 . S
C1118 C1116 1.419 . S
C1118 C1119 1.362 . S
C1119 H1109 0.930 . S
C1119 C1112 1.409 1_455 S
C1119 C1118 1.362 . S
H1120 C1126 0.930 . S
H1121 C1129 0.930 . S
H1122 C1130 0.930 1_554 S
H1123 C1131 0.930 . S
H1124 C1134 0.930 . S
H1125 C1135 0.930 . S
C1126 H1120 0.930 . S
C1126 C1127 1.355 . S
C1126 C1128 1.415 . S
C1127 C1126 1.355 . S
C1127 C1129 1.419 . S
C1128 C1126 1.415 . S
C1128 C1133 1.425 . S
C1128 C1135 1.409 . S
C1129 H1121 0.930 . S
C1129 C1127 1.419 . S
C1129 C1130 1.362 . S
C1130 H1122 0.930 1_556 S
C1130 C1129 1.362 . S
C1130 C1133 1.409 . S
C1131 H1123 0.930 . S
C1131 C1132 1.355 . S
C1131 C1133 1.415 . S
C1132 C1131 1.355 . S
C1132 C1134 1.419 . S
C1133 C1128 1.425 . S
C1133 C1130 1.409 . S
C1133 C1131 1.415 . S
C1134 H1124 0.930 . S
C1134 C1132 1.419 . S
C1134 C1135 1.362 . S
C1135 H1125 0.930 . S
C1135 C1128 1.409 . S
C1135 C1134 1.362 . S
H1136 C1142 0.930 . S
H1137 C1145 0.930 . S
H1138 C1146 0.930 . S
H1139 C1147 0.930 . S
H1140 C1150 0.930 . S
H1141 C1151 0.930 . S
C1142 H1136 0.930 . S
C1142 C1143 1.355 . S
C1142 C1144 1.415 . S
C1143 C1142 1.355 . S
C1143 C1145 1.419 . S
C1144 C1142 1.415 . S
C1144 C1149 1.425 . S
C1144 C1151 1.409 . S
C1145 H1137 0.930 . S
C1145 C1143 1.419 . S
C1145 C1146 1.362 . S
C1146 H1138 0.930 . S
C1146 C1145 1.362 . S
C1146 C1149 1.409 . S
C1147 H1139 0.930 . S
C1147 C1148 1.355 . S
C1147 C1149 1.415 . S
C1148 C1147 1.355 . S
C1148 C1150 1.419 . S
C1149 C1144 1.425 . S
C1149 C1146 1.409 . S
C1149 C1147 1.415 . S
C1150 H1140 0.930 . S
C1150 C1148 1.419 . S
C1150 C1151 1.362 . S
C1151 H1141 0.930 . S
C1151 C1144 1.409 . S
C1151 C1150 1.362 . S
H1152 C1158 0.930 . S
H1153 C1161 0.930 . S
H1154 C1162 0.930 . S
H1155 C1163 0.930 . S
H1156 C1166 0.930 . S
H1157 C1167 0.930 . S
C1158 H1152 0.930 . S
C1158 C1159 1.355 . S
C1158 C1160 1.415 . S
C1159 C1158 1.355 . S
C1159 C1161 1.419 . S
C1160 C1158 1.415 . S
C1160 C1165 1.425 . S
C1160 C1167 1.409 . S
C1161 H1153 0.930 . S
C1161 C1159 1.419 . S
C1161 C1162 1.362 . S
C1162 H1154 0.930 . S
C1162 C1161 1.362 . S
C1162 C1165 1.409 . S
C1163 H1155 0.930 . S
C1163 C1164 1.355 . S
C1163 C1165 1.415 . S
C1164 C1163 1.355 . S
C1164 C1166 1.419 . S
C1165 C1160 1.425 . S
C1165 C1162 1.409 . S
C1165 C1163 1.415 . S
C1166 H1156 0.930 . S
C1166 C1164 1.419 . S
C1166 C1167 1.362 . S
C1167 H1157 0.930 . S
C1167 C1160 1.409 . S
C1167 C1166 1.362 . S
C535 N13 1.419 . S
C540 N2 1.415 . S
C551 N46 1.417 1_556 S
C556 N35 1.414 . S
C567 N79 1.459 . S
C572 N68 1.457 . S
C583 N112 1.464 . S
C588 N101 1.462 . S
C599 N145 1.453 . S
C604 N134 1.451 . S
C615 N178 1.412 . S
C620 N167 1.409 . S
C631 N211 1.423 . S
C636 N200 1.420 . S
C647 N233 1.410 . S
C652 N244 1.413 1_554 S
C663 N266 1.409 . S
C668 N277 1.412 1_554 S
C679 N310 1.454 . S
C684 N299 1.453 . S
C695 N343 1.464 . S
C700 N332 1.463 . S
C711 N365 1.419 . S
C716 N376 1.421 1_556 S
C727 N398 1.463 . S
C732 N409 1.464 . S
C743 N442 1.470 . S
C748 N431 1.469 . S
C759 N464 1.463 . S
C764 N475 1.464 . S
C775 N508 1.466 . S
C780 N497 1.464 . S
C791 C18 1.119 . S
C796 C150 1.121 . S
C807 C183 1.127 . S
C812 C51 1.125 . S
C823 C216 1.126 . S
C828 C84 1.127 . S
C839 C117 1.103 . S
C844 C249 1.104 . S
C855 C348 1.130 . S
C860 C282 1.129 . S
C871 C315 1.131 . S
C876 C381 1.132 . S
C887 C414 1.106 . S
C892 C480 1.105 . S
C903 C447 1.127 . S
C908 C513 1.125 . S
C919 C304 1.465 . S
C924 C7 1.446 . S
C935 C469 1.456 . S
C940 C40 1.436 . S
C951 C73 1.463 . S
C956 C271 1.431 . S
C967 C502 1.418 1_655 S
C972 C106 1.445 . S
C983 C337 1.471 . S
C988 C139 1.436 . S
C999 C436 1.428 1_655 S
C1004 C172 1.448 . S
C1015 C205 1.469 . S
C1020 C370 1.428 . S
C1031 C238 1.438 . S
C1036 C403 1.470 . S
C1047 C153 1.485 . S
C1052 C120 1.456 . S
C1063 C417 1.483 . S
C1068 C285 1.465 . S
C1079 C54 1.485 . S
C1084 C219 1.456 . S
C1095 C450 1.457 . S
C1100 C318 1.483 . S
C1111 C186 1.486 . S
C1116 C21 1.460 . S
C1127 C351 1.458 . S
C1132 C516 1.480 . S
C1143 C252 1.460 . S
C1148 C87 1.486 . S
C1159 C483 1.457 . S
C1164 C384 1.486 . S
