# Generated by pormake.
# Topology qtz-e, (6)-cn, num edge types: 1
# Building blocks:
#     Node 0, Type 0, BuildingBlock: KUMJIN_clean_sbu_0, # of connection points: 6
#     Node 1, Type 0, BuildingBlock: KUMJIN_clean_sbu_0, # of connection points: 6
#     Node 2, Type 0, BuildingBlock: KUMJIN_clean_sbu_0, # of connection points: 6
#     Node 3, Type 0, BuildingBlock: KUMJIN_clean_sbu_0, # of connection points: 6
#     Node 4, Type 0, BuildingBlock: KUMJIN_clean_sbu_0, # of connection points: 6
#     Node 5, Type 0, BuildingBlock: KUMJIN_clean_sbu_0, # of connection points: 6
#     Edge 6, Type (0, 0), BuildingBlock: MIFKUJ_clean_linker_0, # of connection points: 2
#     Edge 7, Type (0, 0), BuildingBlock: MIFKUJ_clean_linker_0, # of connection points: 2
#     Edge 8, Type (0, 0), BuildingBlock: MIFKUJ_clean_linker_0, # of connection points: 2
#     Edge 9, Type (0, 0), BuildingBlock: MIFKUJ_clean_linker_0, # of connection points: 2
#     Edge 10, Type (0, 0), BuildingBlock: MIFKUJ_clean_linker_0, # of connection points: 2
#     Edge 11, Type (0, 0), BuildingBlock: MIFKUJ_clean_linker_0, # of connection points: 2
#     Edge 12, Type (0, 0), BuildingBlock: MIFKUJ_clean_linker_0, # of connection points: 2
#     Edge 13, Type (0, 0), BuildingBlock: MIFKUJ_clean_linker_0, # of connection points: 2
#     Edge 14, Type (0, 0), BuildingBlock: MIFKUJ_clean_linker_0, # of connection points: 2
#     Edge 15, Type (0, 0), BuildingBlock: MIFKUJ_clean_linker_0, # of connection points: 2
#     Edge 16, Type (0, 0), BuildingBlock: MIFKUJ_clean_linker_0, # of connection points: 2
#     Edge 17, Type (0, 0), BuildingBlock: MIFKUJ_clean_linker_0, # of connection points: 2
#     Edge 18, Type (0, 0), BuildingBlock: MIFKUJ_clean_linker_0, # of connection points: 2
#     Edge 19, Type (0, 0), BuildingBlock: MIFKUJ_clean_linker_0, # of connection points: 2
#     Edge 20, Type (0, 0), BuildingBlock: MIFKUJ_clean_linker_0, # of connection points: 2
#     Edge 21, Type (0, 0), BuildingBlock: MIFKUJ_clean_linker_0, # of connection points: 2
#     Edge 22, Type (0, 0), BuildingBlock: MIFKUJ_clean_linker_0, # of connection points: 2
#     Edge 23, Type (0, 0), BuildingBlock: MIFKUJ_clean_linker_0, # of connection points: 2
# Relax obj value: 0.056
# Max RMSD: 0.138
# Mean RMSD: 0.138
data_MOF--net-qtz-e--node1-KUMJIN_clean_sbu_0--edge1-MIFKUJ_clean_linker_0
_symmetry_space_group_name_H-M    P1
_symmetry_Int_Tables_number       1
_symmetry_cell_setting            triclinic
loop_
_symmetry_equiv_pos_as_xyz
'x, y, z'
_cell_length_a     37.864567
_cell_length_b     37.873195
_cell_length_c     56.870754
_cell_angle_alpha  89.767843
_cell_angle_beta   89.992063
_cell_angle_gamma 119.75543
loop_
_atom_site_label
_atom_site_type_symbol
_atom_site_fract_x
_atom_site_fract_y
_atom_site_fract_z
_atom_type_partial_charge
Eu0 Eu 0.24881 0.46684 0.04147 0.0
C1 C 0.11538 0.29931 0.01622 0.0
C2 C 0.13343 0.26207 0.04383 0.0
C3 C 0.06241 0.23709 0.03429 0.0
C4 C 0.1447 0.29543 0.02852 0.0
C5 C 0.07396 0.26949 0.01841 0.0
C6 C 0.0921 0.23344 0.04703 0.0
C7 C 0.05891 0.30374 0.98741 0.0
N8 N 0.12753 0.33109 1.00116 0.0
C9 C 0.10031 0.33246 0.9859 0.0
C10 C 0.04555 0.2725 1.00405 0.0
Eu11 Eu 0.19789 0.38029 1.00068 0.0
N12 N 0.18434 0.32372 0.02508 0.0
C13 C 0.21437 0.31882 0.03517 0.0
C14 C 0.16408 0.25813 0.05516 0.0
C15 C 0.20475 0.28635 0.05055 0.0
H16 H 0.11053 0.35636 0.97281 0.0
H17 H 0.22874 0.28315 0.05884 0.0
H18 H 0.08286 0.20788 0.05891 0.0
H19 H 0.03739 0.30566 0.97571 0.0
H20 H 0.24586 0.34006 0.03176 0.0
H21 H 0.22145 0.57778 0.99382 0.0
H22 H 0.15671 0.23302 0.06708 0.0
H23 H 0.3401 0.48716 0.06419 0.0
H24 H 0.20379 0.51889 0.01867 0.0
H25 H 0.41299 0.53059 0.05545 0.0
H26 H 0.0307 0.21419 0.03644 0.0
H27 H 0.29201 0.62084 0.97979 0.0
H28 H 0.3645 0.63663 0.98027 0.0
H29 H 0.01347 0.25019 1.00516 0.0
H30 H 0.41672 0.62291 0.99647 0.0
N31 N 0.26352 0.52604 0.01867 0.0
C32 C 0.23467 0.53625 0.01267 0.0
C33 C 0.28448 0.59464 0.99083 0.0
C34 C 0.31441 0.5857 0.99811 0.0
C35 C 0.24461 0.57028 0.99859 0.0
C36 C 0.303 0.55126 0.0126 0.0
H37 H 0.43521 0.58359 0.02461 0.0
N38 N 0.32044 0.51179 0.03667 0.0
C39 C 0.39063 0.53412 0.04542 0.0
C40 C 0.33227 0.54344 0.02155 0.0
C41 C 0.34914 0.50909 0.05003 0.0
C42 C 0.40303 0.56399 0.02805 0.0
C43 C 0.37384 0.56997 0.01647 0.0
O44 O 0.21879 0.49052 0.06422 0.0
O45 O 0.19945 0.40212 0.03752 0.0
O46 O 0.15302 0.40369 1.00546 0.0
O47 O 0.18514 0.45526 0.03341 0.0
O48 O 0.23632 0.41515 0.06654 0.0
O49 O 0.27514 0.49476 0.07524 0.0
O50 O 0.18531 0.36668 0.96321 0.0
O51 O 0.24467 0.44595 1.00421 0.0
O52 O 0.286 0.43542 0.0408 0.0
O53 O 0.26572 0.40009 1.00557 0.0
O54 O 0.20267 0.42994 0.97688 0.0
O55 O 0.22423 0.34902 0.98114 0.0
C56 C 0.20366 0.38738 0.05658 0.0
C57 C 0.22981 0.48974 0.10504 0.0
C58 C 0.22172 0.51002 0.14428 0.0
C59 C 0.23583 0.52025 0.12104 0.0
C60 C 0.20241 0.46913 0.15152 0.0
C61 C 0.20988 0.44906 0.11248 0.0
C62 C 0.19699 0.4389 0.1357 0.0
C63 C 0.15434 0.43254 0.01926 0.0
C64 C 0.24551 0.50105 0.08095 0.0
C65 C 0.38505 0.60268 1.00087 0.0
C66 C 0.35536 0.61058 0.99173 0.0
C67 C 0.23475 0.45928 0.98643 0.0
C68 C 0.1884 0.31013 0.94783 0.0
C69 C 0.20849 0.30623 0.92786 0.0
C70 C 0.19064 0.27 0.91449 0.0
C71 C 0.15236 0.23799 0.92161 0.0
C72 C 0.15066 0.27743 0.95456 0.0
C73 C 0.13279 0.24167 0.94148 0.0
C74 C 0.29233 0.41742 0.02287 0.0
C75 C 0.20668 0.34847 0.96134 0.0
H76 H 0.25106 0.55178 0.11536 0.0
H77 H 0.19194 0.46065 0.16948 0.0
H78 H 0.20434 0.42519 0.10049 0.0
H79 H 0.18243 0.40745 0.14139 0.0
H80 H 0.23805 0.33115 0.92294 0.0
H81 H 0.13712 0.21007 0.91163 0.0
H82 H 0.13488 0.27957 0.96985 0.0
H83 H 0.10343 0.21671 0.9467 0.0
Eu84 Eu 0.75758 0.2332 0.37219 0.0
C85 C 0.81998 0.11815 0.34839 0.0
C86 C 0.87355 0.13985 0.37739 0.0
C87 C 0.83787 0.0695 0.36451 0.0
C88 C 0.84923 0.14848 0.36227 0.0
C89 C 0.81461 0.07852 0.34898 0.0
C90 C 0.86734 0.10012 0.37863 0.0
C91 C 0.76677 0.06066 0.31705 0.0
N92 N 0.79839 0.1279 0.33332 0.0
C93 C 0.77348 0.10042 0.31696 0.0
C94 C 0.78701 0.04947 0.33336 0.0
Eu95 Eu 0.81104 0.19574 0.33431 0.0
N96 N 0.85474 0.18666 0.36052 0.0
C97 C 0.88485 0.21785 0.37299 0.0
C98 C 0.90393 0.17158 0.39047 0.0
C99 C 0.90963 0.21074 0.38822 0.0
H100 H 0.75813 0.1091 0.30407 0.0
H101 H 0.93316 0.23551 0.39821 0.0
H102 H 0.88572 0.09287 0.39005 0.0
H103 H 0.74623 0.03877 0.30444 0.0
H104 H 0.8896 0.24827 0.37174 0.0
H105 H 0.65752 0.26097 0.31557 0.0
H106 H 0.92358 0.16642 0.40205 0.0
H107 H 0.82259 0.29303 0.41422 0.0
H108 H 0.68681 0.22158 0.33266 0.0
H109 H 0.84724 0.36105 0.43094 0.0
H110 H 0.83401 0.03919 0.36531 0.0
H111 H 0.68233 0.33192 0.32836 0.0
H112 H 0.72733 0.38957 0.35487 0.0
H113 H 0.78205 0.01872 0.33328 0.0
H114 H 0.77823 0.41641 0.3865 0.0
N115 N 0.72896 0.26969 0.35423 0.0
C116 C 0.69815 0.25243 0.33826 0.0
C117 C 0.69542 0.31466 0.33582 0.0
C118 C 0.72547 0.33151 0.35313 0.0
C119 C 0.68138 0.27474 0.32855 0.0
C120 C 0.74157 0.30779 0.36231 0.0
H121 H 0.82262 0.40586 0.41508 0.0
N122 N 0.78446 0.29896 0.38883 0.0
C123 C 0.82561 0.35075 0.41663 0.0
C124 C 0.76981 0.32273 0.3803 0.0
C125 C 0.81143 0.31206 0.40711 0.0
C126 C 0.81164 0.37593 0.40764 0.0
C127 C 0.78331 0.36202 0.38933 0.0
O128 O 0.73575 0.22261 0.40858 0.0
O129 O 0.78285 0.19068 0.36984 0.0
O130 O 0.74474 0.14413 0.33828 0.0
O131 O 0.71215 0.17935 0.35111 0.0
O132 O 0.79523 0.22432 0.4 0.0
O133 O 0.69271 0.1987 0.3798 0.0
O134 O 0.81877 0.1866 0.29706 0.0
O135 O 0.78176 0.2338 0.33629 0.0
O136 O 0.81479 0.28869 0.36108 0.0
O137 O 0.85399 0.26405 0.34336 0.0
O138 O 0.77071 0.19951 0.30613 0.0
O139 O 0.87088 0.2287 0.31727 0.0
C140 C 0.79909 0.19616 0.3899 0.0
C141 C 0.67426 0.22381 0.41291 0.0
C142 C 0.6523 0.24521 0.44777 0.0
C143 C 0.67301 0.22691 0.43749 0.0
C144 C 0.63265 0.26016 0.43315 0.0
C145 C 0.65401 0.23864 0.3987 0.0
C146 C 0.63353 0.25682 0.40881 0.0
C147 C 0.7115 0.14666 0.34249 0.0
C148 C 0.69769 0.20628 0.4023 0.0
C149 C 0.76809 0.3861 0.37986 0.0
C150 C 0.7392 0.37086 0.36181 0.0
C151 C 0.7645 0.22623 0.31646 0.0
C152 C 0.88317 0.19804 0.28413 0.0
C153 C 0.90213 0.2163 0.26249 0.0
C154 C 0.92468 0.20193 0.24985 0.0
C155 C 0.92832 0.16959 0.25947 0.0
C156 C 0.88767 0.16608 0.29323 0.0
C157 C 0.91013 0.15202 0.28097 0.0
C158 C 0.8491 0.29423 0.35178 0.0
C159 C 0.85788 0.21163 0.29681 0.0
H160 H 0.68862 0.21563 0.44855 0.0
H161 H 0.6159 0.27379 0.44056 0.0
H162 H 0.65391 0.23632 0.37978 0.0
H163 H 0.61811 0.26819 0.39772 0.0
H164 H 0.89868 0.24098 0.25533 0.0
H165 H 0.94578 0.15814 0.25046 0.0
H166 H 0.87372 0.15188 0.30978 0.0
H167 H 0.91342 0.1273 0.28815 0.0
Eu168 Eu 0.53457 0.76923 0.70069 0.0
C169 C 0.71367 0.81994 0.68992 0.0
C170 C 0.7407 0.87217 0.71979 0.0
C171 C 0.77392 0.83261 0.71193 0.0
C172 C 0.71153 0.85009 0.70235 0.0
C173 C 0.74541 0.81143 0.69421 0.0
C174 C 0.77151 0.86286 0.72473 0.0
C175 C 0.71991 0.76344 0.66221 0.0
N176 N 0.68544 0.7997 0.67313 0.0
C177 C 0.68904 0.77294 0.65864 0.0
C178 C 0.74794 0.78239 0.68028 0.0
Eu179 Eu 0.6329 0.81589 0.66869 0.0
N180 N 0.68105 0.85799 0.69736 0.0
C181 C 0.67905 0.88882 0.70856 0.0
C182 C 0.73816 0.90309 0.73167 0.0
C183 C 0.70739 0.91164 0.72588 0.0
H184 H 0.66751 0.75833 0.64454 0.0
H185 H 0.70523 0.9356 0.73491 0.0
H186 H 0.79394 0.87924 0.73821 0.0
H187 H 0.72208 0.74156 0.651 0.0
H188 H 0.65517 0.89552 0.70475 0.0
H189 H 0.42506 0.68714 0.63096 0.0
H190 H 0.75991 0.92066 0.74521 0.0
H191 H 0.52505 0.82122 0.74532 0.0
H192 H 0.48308 0.70382 0.65715 0.0
H193 H 0.48212 0.85062 0.7568 0.0
H194 H 0.79826 0.82621 0.71565 0.0
H195 H 0.38531 0.72244 0.63559 0.0
H196 H 0.37075 0.76954 0.65932 0.0
H197 H 0.77187 0.77502 0.68302 0.0
H198 H 0.3859 0.81365 0.69389 0.0
N199 N 0.47813 0.75004 0.67542 0.0
C200 C 0.4663 0.71974 0.65923 0.0
C201 C 0.41111 0.73025 0.64695 0.0
C202 C 0.42117 0.75869 0.66497 0.0
C203 C 0.43334 0.71014 0.64435 0.0
C204 C 0.45529 0.76805 0.67912 0.0
H205 H 0.42696 0.84357 0.73049 0.0
N206 N 0.49515 0.79882 0.71261 0.0
C207 C 0.47681 0.83469 0.74028 0.0
C208 C 0.46372 0.79281 0.69853 0.0
C209 C 0.50107 0.81804 0.73373 0.0
C210 C 0.44578 0.83075 0.72535 0.0
C211 C 0.43842 0.80897 0.70438 0.0
O212 O 0.51929 0.74568 0.73667 0.0
O213 O 0.60059 0.78813 0.70242 0.0
O214 O 0.61204 0.7479 0.67392 0.0
O215 O 0.54285 0.72053 0.68272 0.0
O216 O 0.57673 0.80191 0.73118 0.0
O217 O 0.49151 0.70509 0.70732 0.0
O218 O 0.65613 0.8213 0.63281 0.0
O219 O 0.56693 0.79332 0.66646 0.0
O220 O 0.54885 0.83336 0.69376 0.0
O221 O 0.61035 0.86253 0.6728 0.0
O222 O 0.59236 0.77621 0.63964 0.0
O223 O 0.66359 0.87489 0.65062 0.0
C224 C 0.60887 0.80307 0.7228 0.0
C225 C 0.45104 0.69462 0.74108 0.0
C226 C 0.40655 0.667 0.77538 0.0
C227 C 0.44404 0.67897 0.76409 0.0
C228 C 0.37673 0.67191 0.76333 0.0
C229 C 0.4201 0.69751 0.72918 0.0
C230 C 0.38339 0.68666 0.74034 0.0
C231 C 0.57458 0.71657 0.67694 0.0
C232 C 0.49119 0.70972 0.73002 0.0
C233 C 0.40561 0.80138 0.68971 0.0
C234 C 0.39703 0.77632 0.67002 0.0
C235 C 0.55977 0.7759 0.64673 0.0
C236 C 0.70829 0.88528 0.61856 0.0
C237 C 0.70881 0.90571 0.59758 0.0
C238 C 0.74522 0.92851 0.58464 0.0
C239 C 0.78112 0.93095 0.59348 0.0
C240 C 0.74448 0.88829 0.62686 0.0
C241 C 0.78069 0.91113 0.61438 0.0
C242 C 0.57894 0.86404 0.68243 0.0
C243 C 0.66956 0.86028 0.63122 0.0
H244 H 0.46763 0.67578 0.77297 0.0
H245 H 0.34811 0.66444 0.77164 0.0
H246 H 0.42426 0.70831 0.71129 0.0
H247 H 0.36004 0.68977 0.73115 0.0
H248 H 0.68075 0.90312 0.59117 0.0
H249 H 0.80982 0.94865 0.58436 0.0
H250 H 0.74467 0.8729 0.64293 0.0
H251 H 0.80861 0.91345 0.62091 0.0
Eu252 Eu 0.77469 0.52723 0.03064 0.0
C253 C 0.90207 0.71065 0.01682 0.0
C254 C 0.8854 0.74071 0.04937 0.0
C255 C 0.95502 0.77224 0.03504 0.0
C256 C 0.87375 0.70997 0.03231 0.0
C257 C 0.94287 0.7423 0.0176 0.0
C258 C 0.92633 0.77138 0.05095 0.0
C259 C 0.95587 0.71385 0.9829 0.0
N260 N 0.88931 0.68125 1.0003 0.0
C261 C 0.91508 0.68311 0.98291 0.0
C262 C 0.96998 0.74333 1.00051 0.0
Eu263 Eu 0.82067 0.62849 1.00194 0.0
N264 N 0.83454 0.67987 0.03025 0.0
C265 C 0.8049 0.68026 0.04378 0.0
C266 C 0.85544 0.74006 0.06404 0.0
C267 C 0.81493 0.70999 0.06101 0.0
H268 H 0.90424 0.66012 0.96938 0.0
H269 H 0.79141 0.70955 0.07203 0.0
H270 H 0.93594 0.79502 0.06409 0.0
H271 H 0.97639 0.71474 0.96936 0.0
H272 H 0.77349 0.65714 0.04191 0.0
H273 H 0.77114 0.41637 0.96855 0.0
H274 H 0.86313 0.76302 0.07742 0.0
H275 H 0.7003 0.52297 0.0651 0.0
H276 H 0.80186 0.48092 0.99042 0.0
H277 H 0.62811 0.47523 0.07404 0.0
H278 H 0.98632 0.79657 0.0361 0.0
H279 H 0.69875 0.36519 0.97484 0.0
H280 H 0.63359 0.34372 0.99675 0.0
H281 H 1.00158 0.76715 1.00047 0.0
H282 H 0.59479 0.35966 0.02535 0.0
N283 N 0.74672 0.46807 1.00735 0.0
C284 C 0.76991 0.45951 0.99266 0.0
C285 C 0.71187 0.39389 0.98408 0.0
C286 C 0.68874 0.40203 1.00006 0.0
C287 C 0.75271 0.42271 0.98046 0.0
C288 C 0.7072 0.44 0.01151 0.0
H289 H 0.59218 0.4089 0.05379 0.0
N290 N 0.70477 0.48483 0.0393 0.0
C291 C 0.64395 0.46732 0.06109 0.0
C292 C 0.6856 0.44858 0.02799 0.0
C293 C 0.68487 0.49429 0.05599 0.0
C294 C 0.62375 0.42994 0.04959 0.0
C295 C 0.64466 0.41995 0.03301 0.0
O296 O 0.77486 0.50774 0.06686 0.0
O297 O 0.81488 0.59404 0.03476 0.0
O298 O 0.87198 0.61394 1.00911 0.0
O299 O 0.83555 0.54301 0.01443 0.0
O300 O 0.77477 0.56519 0.06164 0.0
O301 O 0.80739 0.49528 0.03958 0.0
O302 O 0.82594 0.64862 0.96529 0.0
O303 O 0.78508 0.56204 0.99736 0.0
O304 O 0.72416 0.533 0.0139 0.0
O305 O 0.75368 0.60357 0.01435 0.0
O306 O 0.82681 0.59355 0.97143 0.0
O307 O 0.78396 0.65418 0.98845 0.0
C308 C 0.80472 0.5995 0.05486 0.0
C309 C 0.77822 0.44734 0.07064 0.0
C310 C 0.76523 0.402 0.10412 0.0
C311 C 0.77964 0.44133 0.09493 0.0
C312 C 0.74897 0.36866 0.08873 0.0
C313 C 0.7618 0.4136 0.05557 0.0
C314 C 0.74718 0.37451 0.06462 0.0
C315 C 0.86969 0.57774 0.01079 0.0
C316 C 0.79479 0.48897 0.0614 0.0
C317 C 0.62613 0.38215 0.02162 0.0
C318 C 0.64821 0.37309 1.00531 0.0
C319 C 0.79852 0.55793 0.97789 0.0
C320 C 0.80996 0.70009 0.95617 0.0
C321 C 0.79026 0.70138 0.9353 0.0
C322 C 0.79998 0.73902 0.92469 0.0
C323 C 0.83016 0.77503 0.93523 0.0
C324 C 0.83974 0.73648 0.96622 0.0
C325 C 0.84978 0.77368 0.95575 0.0
C326 C 0.72135 0.5663 0.01335 0.0
C327 C 0.7994 0.66076 0.96732 0.0
H328 H 0.79266 0.46733 0.10658 0.0
H329 H 0.73727 0.338 0.09538 0.0
H330 H 0.76059 0.41734 0.0368 0.0
H331 H 0.73457 0.34867 0.0529 0.0
H332 H 0.76705 0.67322 0.92761 0.0
H333 H 0.83905 0.80443 0.92745 0.0
H334 H 0.85524 0.73608 0.98215 0.0
H335 H 0.87295 0.80167 0.96356 0.0
Eu336 Eu 0.22344 0.76556 0.37258 0.0
C337 C 0.19324 0.90234 0.34454 0.0
C338 C 0.13699 0.88617 0.37092 0.0
C339 C 0.18478 0.95671 0.36131 0.0
C340 C 0.15918 0.87378 0.35649 0.0
C341 C 0.20587 0.94411 0.34634 0.0
C342 C 0.15044 0.92778 0.37362 0.0
C343 C 0.25728 0.95764 0.31705 0.0
N344 N 0.21303 0.8892 0.33034 0.0
C345 C 0.24359 0.91595 0.31588 0.0
C346 C 0.23873 0.97188 0.33262 0.0
Eu347 Eu 0.19045 0.81845 0.33058 0.0
N348 N 0.14712 0.83383 0.35356 0.0
C349 C 0.11163 0.80461 0.36355 0.0
C350 C 0.10164 0.85636 0.38194 0.0
C351 C 0.08867 0.81541 0.37801 0.0
H352 H 0.25803 0.90509 0.30374 0.0
H353 H 0.06106 0.79207 0.38622 0.0
H354 H 0.13403 0.93786 0.38481 0.0
H355 H 0.28213 0.97874 0.30595 0.0
H356 H 0.1011 0.77278 0.36106 0.0
H357 H 0.33089 0.72519 0.33508 0.0
H358 H 0.08382 0.86462 0.3932 0.0
H359 H 0.13227 0.70557 0.3991 0.0
H360 H 0.30289 0.77011 0.34434 0.0
H361 H 0.08991 0.63402 0.41109 0.0
H362 H 0.19431 0.98868 0.36313 0.0
H363 H 0.29368 0.65304 0.34744 0.0
H364 H 0.23313 0.59608 0.3679 0.0
H365 H 0.24934 0.00419 0.33348 0.0
H366 H 0.16687 0.57083 0.38728 0.0
N367 N 0.24931 0.7234 0.36024 0.0
C368 C 0.28586 0.73842 0.3491 0.0
C369 C 0.28076 0.67236 0.35099 0.0
C370 C 0.24342 0.65719 0.36266 0.0
C371 C 0.30191 0.7131 0.34402 0.0
C372 C 0.22815 0.68376 0.36699 0.0
H373 H 0.11287 0.5845 0.40298 0.0
N374 N 0.17854 0.69679 0.38355 0.0
C375 C 0.11851 0.64377 0.40211 0.0
C376 C 0.19153 0.6699 0.37879 0.0
C377 C 0.14276 0.68443 0.39534 0.0
C378 C 0.13151 0.61588 0.39744 0.0
C379 C 0.16861 0.62886 0.38589 0.0
O380 O 0.23011 0.77169 0.41055 0.0
O381 O 0.20806 0.81503 0.36768 0.0
O382 O 0.25901 0.8611 0.33733 0.0
O383 O 0.27941 0.81955 0.35716 0.0
O384 O 0.18141 0.7768 0.39578 0.0
O385 O 0.28259 0.78505 0.38887 0.0
O386 O 0.18609 0.83697 0.29463 0.0
O387 O 0.21551 0.77781 0.33541 0.0
O388 O 0.17382 0.71855 0.35077 0.0
O389 O 0.13924 0.75188 0.33874 0.0
O390 O 0.23228 0.81067 0.30468 0.0
O391 O 0.1365 0.78195 0.30917 0.0
C392 C 0.18724 0.80993 0.38594 0.0
C393 C 0.27794 0.75582 0.42621 0.0
C394 C 0.32343 0.75218 0.45493 0.0
C395 C 0.31388 0.77495 0.4393 0.0
C396 C 0.29732 0.70996 0.45686 0.0
C397 C 0.25142 0.71388 0.42901 0.0
C398 C 0.26143 0.69097 0.44395 0.0
C399 C 0.28738 0.85388 0.34637 0.0
C400 C 0.26793 0.77997 0.41018 0.0
C401 C 0.18375 0.60234 0.38166 0.0
C402 C 0.22137 0.61666 0.37045 0.0
C403 C 0.23585 0.78371 0.31681 0.0
C404 C 0.11954 0.81667 0.28089 0.0
C405 C 0.09719 0.79579 0.26078 0.0
C406 C 0.0669 0.80333 0.25157 0.0
C407 C 0.05991 0.83249 0.26262 0.0
C408 C 0.11194 0.84557 0.29153 0.0
C409 C 0.08239 0.85349 0.28236 0.0
C410 C 0.1411 0.71805 0.34261 0.0
C411 C 0.14934 0.80683 0.29128 0.0
H412 H 0.33408 0.80749 0.4376 0.0
H413 H 0.30391 0.69192 0.46905 0.0
H414 H 0.22265 0.69891 0.42009 0.0
H415 H 0.24086 0.65862 0.44593 0.0
H416 H 0.10266 0.77307 0.2527 0.0
H417 H 0.03719 0.8393 0.25587 0.0
H418 H 0.12866 0.86178 0.30701 0.0
H419 H 0.07669 0.87586 0.29066 0.0
Eu420 Eu 0.45745 0.22003 0.71109 0.0
C421 C 0.29787 0.1808 0.68012 0.0
C422 C 0.26107 0.11599 0.70033 0.0
C423 C 0.23191 0.16032 0.69788 0.0
C424 C 0.29546 0.14485 0.68759 0.0
C425 C 0.26559 0.18842 0.68468 0.0
C426 C 0.22968 0.1242 0.70572 0.0
C427 C 0.30043 0.2493 0.66104 0.0
N428 N 0.33092 0.20758 0.66755 0.0
C429 C 0.33154 0.24036 0.65695 0.0
C430 C 0.26763 0.2236 0.67534 0.0
Eu431 Eu 0.38408 0.19208 0.66286 0.0
N432 N 0.32667 0.13807 0.68246 0.0
C433 C 0.32426 0.10202 0.68872 0.0
C434 C 0.25917 0.07967 0.7073 0.0
C435 C 0.29075 0.07255 0.70129 0.0
H436 H 0.35605 0.25976 0.64519 0.0
H437 H 0.28937 0.04431 0.70637 0.0
H438 H 0.20328 0.10255 0.71567 0.0
H439 H 0.30163 0.27583 0.65301 0.0
H440 H 0.34787 0.09534 0.68434 0.0
H441 H 0.60683 0.32411 0.6738 0.0
H442 H 0.23333 0.05681 0.71713 0.0
H443 H 0.43011 0.14109 0.74857 0.0
H444 H 0.53472 0.29904 0.68319 0.0
H445 H 0.46108 0.10455 0.76762 0.0
H446 H 0.20709 0.1659 0.70177 0.0
H447 H 0.64052 0.28638 0.68794 0.0
H448 H 0.63701 0.22963 0.71243 0.0
H449 H 0.24346 0.23049 0.67842 0.0
H450 H 0.5975 0.17002 0.73779 0.0
N451 N 0.52646 0.24581 0.70071 0.0
C452 C 0.5487 0.28172 0.68895 0.0
C453 C 0.60858 0.27481 0.69172 0.0
C454 C 0.58643 0.2396 0.70528 0.0
C455 C 0.58971 0.29621 0.68374 0.0
C456 C 0.5448 0.22557 0.70953 0.0
H457 H 0.53226 0.1236 0.75865 0.0
N458 N 0.48297 0.18021 0.72855 0.0
C459 C 0.47863 0.12893 0.75529 0.0
C460 C 0.52262 0.19214 0.72406 0.0
C461 C 0.46116 0.14972 0.74441 0.0
C462 C 0.5188 0.13975 0.75016 0.0
C463 C 0.54145 0.17192 0.73459 0.0
O464 O 0.44278 0.22972 0.74664 0.0
O465 O 0.39534 0.20818 0.70101 0.0
O466 O 0.40938 0.26058 0.66907 0.0
O467 O 0.46401 0.27798 0.69481 0.0
O468 O 0.39881 0.1763 0.72947 0.0
O469 O 0.49957 0.27439 0.73094 0.0
O470 O 0.36506 0.19853 0.62742 0.0
O471 O 0.44786 0.21228 0.6723 0.0
O472 O 0.44948 0.16054 0.69806 0.0
O473 O 0.40655 0.14511 0.66552 0.0
O474 O 0.43902 0.2372 0.64189 0.0
O475 O 0.36642 0.14398 0.63676 0.0
C476 C 0.37513 0.18553 0.71801 0.0
C477 C 0.49976 0.26018 0.77146 0.0
C478 C 0.55436 0.29494 0.79975 0.0
C479 C 0.53354 0.29585 0.77953 0.0
C480 C 0.54165 0.25784 0.81153 0.0
C481 C 0.4865 0.22367 0.78408 0.0
C482 C 0.50779 0.22245 0.80372 0.0
C483 C 0.44169 0.28768 0.68112 0.0
C484 C 0.4782 0.26145 0.75021 0.0
C485 C 0.58255 0.18519 0.72988 0.0
C486 C 0.60501 0.21905 0.71536 0.0
C487 C 0.46604 0.23593 0.65525 0.0
C488 C 0.31758 0.13685 0.60863 0.0
C489 C 0.31548 0.11342 0.58882 0.0
C490 C 0.27761 0.08697 0.57822 0.0
C491 C 0.24227 0.08505 0.58753 0.0
C492 C 0.28175 0.13415 0.61748 0.0
C493 C 0.24441 0.10855 0.6069 0.0
C494 C 0.42972 0.13737 0.67998 0.0
C495 C 0.35678 0.16231 0.6207 0.0
H496 H 0.54327 0.32432 0.77027 0.0
H497 H 0.55686 0.25649 0.82736 0.0
H498 H 0.45934 0.19611 0.77906 0.0
H499 H 0.49748 0.19417 0.81323 0.0
H500 H 0.34301 0.115 0.58207 0.0
H501 H 0.21283 0.06547 0.57968 0.0
H502 H 0.28253 0.15162 0.63265 0.0
H503 H 0.21693 0.10671 0.61385 0.0
H504 H 0.17829 0.70988 0.30364 0.0
H505 H 0.18507 0.66286 0.27797 0.0
H506 H 0.31456 0.7448 0.27379 0.0
H507 H 0.30713 0.79253 0.29986 0.0
H508 H 0.28067 0.72468 0.23157 0.0
H509 H 0.28006 0.62624 0.2936 0.0
H510 H 0.2544 0.58292 0.32907 0.0
H511 H 0.13152 0.5453 0.30888 0.0
H512 H 0.1566 0.58675 0.27262 0.0
H513 H 0.29186 0.58002 0.1544 0.0
H514 H 0.30205 0.62917 0.18529 0.0
H515 H 0.17421 0.56051 0.20264 0.0
H516 H 0.16427 0.511 0.17226 0.0
H517 H 0.21793 0.57518 0.24048 0.0
H518 H 0.2178 0.65423 0.17415 0.0
H519 H 0.24038 0.68851 0.13567 0.0
H520 H 0.3608 0.76381 0.16283 0.0
H521 H 0.33904 0.72958 0.20141 0.0
C522 C 0.20846 0.71639 0.29875 0.0
C523 C 0.24248 0.75318 0.30511 0.0
C524 C 0.21241 0.68964 0.2838 0.0
C525 C 0.25059 0.6993 0.27471 0.0
C526 C 0.28494 0.73623 0.2811 0.0
C527 C 0.28078 0.76333 0.29597 0.0
C528 C 0.25284 0.67394 0.2557 0.0
C529 C 0.26793 0.69209 0.23364 0.0
C530 C 0.235 0.63136 0.25808 0.0
C531 C 0.22012 0.61006 0.28079 0.0
C532 C 0.24761 0.60908 0.29692 0.0
C533 C 0.23316 0.58449 0.31698 0.0
C534 C 0.19134 0.56167 0.32134 0.0
C535 C 0.16386 0.5631 0.30553 0.0
C536 C 0.17814 0.58676 0.28513 0.0
C537 C 0.26595 0.5759 0.16464 0.0
C538 C 0.22737 0.54175 0.16119 0.0
C539 C 0.27175 0.60395 0.1822 0.0
C540 C 0.23887 0.59849 0.19622 0.0
C541 C 0.20005 0.56512 0.19213 0.0
C542 C 0.19437 0.5369 0.17483 0.0
C543 C 0.24499 0.62572 0.21623 0.0
C544 C 0.23149 0.60788 0.23843 0.0
C545 C 0.26378 0.66846 0.21377 0.0
C546 C 0.27692 0.68899 0.19058 0.0
C547 C 0.24919 0.67783 0.17185 0.0
C548 C 0.26182 0.69731 0.15004 0.0
C549 C 0.30204 0.72822 0.14678 0.0
C550 C 0.32968 0.7398 0.16536 0.0
C551 C 0.31721 0.72039 0.18721 0.0
H552 H 0.31175 0.74328 0.12988 0.0
H553 H 0.18022 0.54275 0.33693 0.0
H554 H 0.52059 0.30437 0.63332 0.0
H555 H 0.5711 0.30973 0.60465 0.0
H556 H 0.54469 0.18823 0.62249 0.0
H557 H 0.49684 0.1843 0.65259 0.0
H558 H 0.62625 0.23914 0.60414 0.0
H559 H 0.48741 0.19114 0.58425 0.0
H560 H 0.42288 0.19227 0.58453 0.0
H561 H 0.48095 0.30799 0.54921 0.0
H562 H 0.54604 0.30774 0.54897 0.0
H563 H 0.6365 0.18623 0.48083 0.0
H564 H 0.62129 0.18775 0.52264 0.0
H565 H 0.64652 0.31141 0.51468 0.0
H566 H 0.66232 0.31038 0.47315 0.0
H567 H 0.56647 0.25408 0.52963 0.0
H568 H 0.70669 0.29299 0.54712 0.0
H569 H 0.76634 0.28315 0.54718 0.0
H570 H 0.69894 0.17194 0.58623 0.0
H571 H 0.63864 0.18076 0.58609 0.0
C572 C 0.52735 0.27979 0.63201 0.0
C573 C 0.50473 0.2438 0.6449 0.0
C574 C 0.55611 0.28281 0.61567 0.0
C575 C 0.56114 0.24912 0.61125 0.0
C576 C 0.54175 0.21476 0.62588 0.0
C577 C 0.51398 0.21234 0.6429 0.0
C578 C 0.57863 0.24668 0.58849 0.0
C579 C 0.61314 0.24206 0.5878 0.0
C580 C 0.5609 0.24967 0.56722 0.0
C581 C 0.52165 0.2496 0.56679 0.0
C582 C 0.48647 0.21694 0.57666 0.0
C583 C 0.44979 0.21741 0.57682 0.0
C584 C 0.44784 0.25025 0.56698 0.0
C585 C 0.48253 0.2826 0.55686 0.0
C586 C 0.51931 0.28229 0.55668 0.0
C587 C 0.63996 0.21411 0.48818 0.0
C588 C 0.64991 0.24798 0.47367 0.0
C589 C 0.63131 0.21492 0.51205 0.0
C590 C 0.63267 0.24964 0.52164 0.0
C591 C 0.64522 0.28431 0.50753 0.0
C592 C 0.65393 0.28356 0.4838 0.0
C593 C 0.61526 0.24821 0.54512 0.0
C594 C 0.57996 0.2514 0.54591 0.0
C595 C 0.63162 0.24246 0.56623 0.0
C596 C 0.66795 0.23729 0.56632 0.0
C597 C 0.70441 0.2662 0.55549 0.0
C598 C 0.73839 0.26086 0.5556 0.0
C599 C 0.73639 0.22687 0.56663 0.0
C600 C 0.70043 0.19821 0.57765 0.0
C601 C 0.66635 0.20338 0.57757 0.0
H602 H 0.76274 0.2228 0.56669 0.0
H603 H 0.41942 0.25059 0.56714 0.0
H604 H 0.21837 0.50356 0.95578 0.0
H605 H 0.26306 0.54817 0.92462 0.0
H606 H 0.36092 0.53164 0.95053 0.0
H607 H 0.31597 0.48617 0.98151 0.0
H608 H 0.36857 0.62208 0.92736 0.0
H609 H 0.33867 0.47827 0.9155 0.0
H610 H 0.28804 0.40531 0.91902 0.0
H611 H 0.20435 0.42318 0.87655 0.0
H612 H 0.25432 0.4964 0.87317 0.0
H613 H 0.45935 0.68554 0.81283 0.0
H614 H 0.44367 0.65527 0.85219 0.0
H615 H 0.31809 0.5794 0.8321 0.0
H616 H 0.3341 0.60652 0.79251 0.0
H617 H 0.33757 0.53647 0.85609 0.0
H618 H 0.35763 0.67223 0.86579 0.0
H619 H 0.39612 0.7472 0.8641 0.0
H620 H 0.4865 0.74857 0.91029 0.0
H621 H 0.44873 0.67353 0.91202 0.0
C622 C 0.24976 0.51042 0.95518 0.0
C623 C 0.26404 0.4921 0.97114 0.0
C624 C 0.27526 0.53604 0.93756 0.0
C625 C 0.31521 0.54331 0.93552 0.0
C626 C 0.3303 0.52676 0.95214 0.0
C627 C 0.30465 0.50081 0.96973 0.0
C628 C 0.33764 0.56135 0.91354 0.0
C629 C 0.36288 0.60355 0.9118 0.0
C630 C 0.32895 0.53701 0.89331 0.0
C631 C 0.30008 0.49269 0.89418 0.0
C632 C 0.30944 0.46658 0.90695 0.0
C633 C 0.28084 0.42521 0.90894 0.0
C634 C 0.24293 0.40963 0.89805 0.0
C635 C 0.2337 0.4353 0.88498 0.0
C636 C 0.26215 0.4767 0.88301 0.0
C637 C 0.42855 0.66189 0.81667 0.0
C638 C 0.39791 0.64887 0.79943 0.0
C639 C 0.41951 0.64501 0.83933 0.0
C640 C 0.37954 0.61546 0.84531 0.0
C641 C 0.34919 0.60217 0.82803 0.0
C642 C 0.35831 0.61828 0.80538 0.0
C643 C 0.36846 0.5979 0.86939 0.0
C644 C 0.34488 0.55543 0.8716 0.0
C645 C 0.37798 0.62229 0.88985 0.0
C646 C 0.40068 0.66732 0.88877 0.0
C647 C 0.38588 0.68853 0.87543 0.0
C648 C 0.40753 0.73102 0.87449 0.0
C649 C 0.44382 0.75263 0.887 0.0
C650 C 0.45846 0.73179 0.90055 0.0
C651 C 0.43695 0.68929 0.90152 0.0
H652 H 0.46053 0.78553 0.88626 0.0
H653 H 0.22065 0.3777 0.89971 0.0
H654 H 0.80015 0.30931 0.31956 0.0
H655 H 0.79647 0.35488 0.2903 0.0
H656 H 0.70839 0.25085 0.25117 0.0
H657 H 0.71169 0.20551 0.28059 0.0
H658 H 0.8214 0.35756 0.24676 0.0
H659 H 0.6527 0.27014 0.21731 0.0
H660 H 0.58404 0.23548 0.23489 0.0
H661 H 0.63001 0.30883 0.29678 0.0
H662 H 0.69919 0.34355 0.27974 0.0
H663 H 0.7921 0.35522 0.12541 0.0
H664 H 0.79181 0.34102 0.16737 0.0
H665 H 0.74303 0.41998 0.18264 0.0
H666 H 0.74274 0.43391 0.14044 0.0
H667 H 0.70101 0.34586 0.20506 0.0
H668 H 0.83818 0.45085 0.19738 0.0
H669 H 0.90635 0.48773 0.17934 0.0
H670 H 0.9241 0.38597 0.1928 0.0
H671 H 0.85574 0.34815 0.21054 0.0
C672 C 0.77901 0.29629 0.3052 0.0
C673 C 0.7561 0.25393 0.30235 0.0
C674 C 0.77698 0.32234 0.28841 0.0
C675 C 0.752 0.30637 0.26855 0.0
C676 C 0.72729 0.26403 0.26652 0.0
C677 C 0.72941 0.23809 0.28324 0.0
C678 C 0.75641 0.33279 0.2481 0.0
C679 C 0.79514 0.35558 0.23786 0.0
C680 C 0.72233 0.33078 0.23661 0.0
C681 C 0.68111 0.30938 0.24725 0.0
C682 C 0.64818 0.27887 0.23468 0.0
C683 C 0.60923 0.2591 0.2446 0.0
C684 C 0.60274 0.26987 0.26698 0.0
C685 C 0.63521 0.30037 0.27952 0.0
C686 C 0.67434 0.31991 0.26981 0.0
C687 C 0.78138 0.36961 0.13771 0.0
C688 C 0.76727 0.39551 0.12969 0.0
C689 C 0.78156 0.36177 0.16168 0.0
C690 C 0.76769 0.37971 0.17812 0.0
C691 C 0.75398 0.40597 0.17022 0.0
C692 C 0.75403 0.41404 0.14618 0.0
C693 C 0.76561 0.36889 0.20335 0.0
C694 C 0.72739 0.34888 0.21435 0.0
C695 C 0.80022 0.37374 0.21562 0.0
C696 C 0.84169 0.39659 0.20525 0.0
C697 C 0.8565 0.43622 0.19639 0.0
C698 C 0.89521 0.45731 0.18621 0.0
C699 C 0.91954 0.4392 0.18492 0.0
C700 C 0.90523 0.39998 0.19383 0.0
C701 C 0.86652 0.37872 0.20399 0.0
H702 H 0.94948 0.45557 0.17702 0.0
H703 H 0.57253 0.25466 0.2746 0.0
H704 H 0.53808 0.73724 0.60505 0.0
H705 H 0.50385 0.75047 0.57251 0.0
H706 H 0.49043 0.83683 0.61526 0.0
H707 H 0.52424 0.82373 0.64769 0.0
H708 H 0.41805 0.77867 0.5885 0.0
H709 H 0.55552 0.88491 0.57476 0.0
H710 H 0.62999 0.91517 0.57242 0.0
H711 H 0.61614 0.82506 0.52199 0.0
H712 H 0.54147 0.79506 0.52353 0.0
H713 H 0.34233 0.81652 0.48348 0.0
H714 H 0.39095 0.83972 0.51609 0.0
H715 H 0.43082 0.75571 0.49513 0.0
H716 H 0.38233 0.73246 0.4626 0.0
H717 H 0.49423 0.83105 0.5135 0.0
H718 H 0.35405 0.72207 0.53199 0.0
H719 H 0.28007 0.69621 0.53381 0.0
H720 H 0.30025 0.79706 0.57722 0.0
H721 H 0.3744 0.82384 0.57525 0.0
C722 C 0.5272 0.75858 0.60756 0.0
C723 C 0.53358 0.77929 0.62889 0.0
C724 C 0.508 0.7663 0.589 0.0
C725 C 0.49505 0.79492 0.59151 0.0
C726 C 0.50009 0.81463 0.61303 0.0
C727 C 0.51946 0.80705 0.63157 0.0
C728 C 0.4764 0.80392 0.57137 0.0
C729 C 0.43483 0.79112 0.57225 0.0
C730 C 0.49844 0.8202 0.55032 0.0
C731 C 0.54309 0.83769 0.54935 0.0
C732 C 0.56842 0.87153 0.56322 0.0
C733 C 0.61065 0.88871 0.56197 0.0
C734 C 0.62783 0.87187 0.54718 0.0
C735 C 0.60278 0.83799 0.53348 0.0
C736 C 0.56054 0.82114 0.53435 0.0
C737 C 0.36249 0.80407 0.48541 0.0
C738 C 0.35848 0.77243 0.47084 0.0
C739 C 0.39008 0.81725 0.50401 0.0
C740 C 0.41397 0.79902 0.50805 0.0
C741 C 0.41256 0.77008 0.49221 0.0
C742 C 0.38478 0.75666 0.47379 0.0
C743 C 0.43564 0.80492 0.53044 0.0
C744 C 0.4777 0.82 0.52993 0.0
C745 C 0.41412 0.79144 0.55196 0.0
C746 C 0.36963 0.77499 0.55341 0.0
C747 C 0.34265 0.73875 0.54185 0.0
C748 C 0.30073 0.72397 0.54288 0.0
C749 C 0.28547 0.745 0.55561 0.0
C750 C 0.31211 0.78081 0.56737 0.0
C751 C 0.35407 0.79579 0.56631 0.0
H752 H 0.253 0.73352 0.55638 0.0
H753 H 0.66053 0.88515 0.54622 0.0
H754 H 0.73067 0.55464 0.96206 0.0
H755 H 0.69133 0.51905 0.92745 0.0
H756 H 0.76974 0.46772 0.91685 0.0
H757 H 0.81134 0.50706 0.9502 0.0
H758 H 0.75825 0.48937 0.878 0.0
H759 H 0.66261 0.41611 0.94183 0.0
H760 H 0.61813 0.40751 0.97563 0.0
H761 H 0.5546 0.4536 0.93491 0.0
H762 H 0.59904 0.46342 0.90088 0.0
H763 H 0.62816 0.30974 0.81595 0.0
H764 H 0.67448 0.36632 0.84085 0.0
H765 H 0.59965 0.42191 0.832 0.0
H766 H 0.55284 0.36499 0.80738 0.0
H767 H 0.60778 0.4068 0.87734 0.0
H768 H 0.69613 0.47159 0.81282 0.0
H769 H 0.73691 0.47731 0.77774 0.0
H770 H 0.81161 0.44499 0.81906 0.0
H771 H 0.77092 0.43847 0.85435 0.0
C772 C 0.7382 0.53431 0.95283 0.0
C773 C 0.7719 0.53087 0.95965 0.0
C774 C 0.71599 0.51423 0.93294 0.0
C775 C 0.72647 0.48932 0.91993 0.0
C776 C 0.7606 0.48627 0.92674 0.0
C777 C 0.78391 0.508 0.94602 0.0
C778 C 0.70336 0.4681 0.89855 0.0
C779 C 0.72535 0.47084 0.87802 0.0
C780 C 0.66025 0.44569 0.89806 0.0
C781 C 0.63442 0.4408 0.91883 0.0
C782 C 0.63944 0.42479 0.94011 0.0
C783 C 0.61422 0.41964 0.9593 0.0
C784 C 0.58358 0.42979 0.9574 0.0
C785 C 0.5783 0.44562 0.93634 0.0
C786 C 0.60352 0.45108 0.91711 0.0
C787 C 0.62222 0.33457 0.81887 0.0
C788 C 0.58681 0.33291 0.81003 0.0
C789 C 0.64883 0.36701 0.83289 0.0
C790 C 0.64039 0.39821 0.83822 0.0
C791 C 0.60664 0.3981 0.82798 0.0
C792 C 0.58008 0.36572 0.81387 0.0
C793 C 0.66281 0.42675 0.85737 0.0
C794 C 0.64068 0.42561 0.87738 0.0
C795 C 0.70563 0.4504 0.85742 0.0
C796 C 0.73027 0.4543 0.83623 0.0
C797 C 0.72105 0.46537 0.81441 0.0
C798 C 0.7442 0.46882 0.79449 0.0
C799 C 0.77679 0.46145 0.79616 0.0
C800 C 0.78635 0.45069 0.81779 0.0
C801 C 0.76329 0.44718 0.83777 0.0
H802 H 0.79468 0.46415 0.78072 0.0
H803 H 0.56395 0.42536 0.97227 0.0
H804 H 0.33534 0.42381 0.98272 0.0
H805 H 0.40873 0.44822 0.97994 0.0
H806 H 0.41683 0.4503 0.05553 0.0
H807 H 0.34352 0.42425 0.05846 0.0
H808 H 0.471 0.53015 0.02465 0.0
H809 H 0.43039 0.38755 0.03862 0.0
H810 H 0.39246 0.31444 0.02923 0.0
H811 H 0.448 0.3393 0.96084 0.0
H812 H 0.48569 0.41268 0.96967 0.0
H813 H 0.68097 0.58898 0.04436 0.0
H814 H 0.60732 0.5637 0.04523 0.0
H815 H 0.59455 0.50357 0.97891 0.0
H816 H 0.6667 0.52541 0.97926 0.0
H817 H 0.54094 0.45284 1.00498 0.0
H818 H 0.58224 0.59137 0.98778 0.0
H819 H 0.61901 0.66583 0.99269 0.0
H820 H 0.56223 0.65254 0.06 0.0
H821 H 0.52555 0.57793 0.05566 0.0
C822 C 0.3525 0.42811 0.99872 0.0
C823 C 0.3337 0.42251 0.02083 0.0
C824 C 0.39448 0.44249 0.99711 0.0
C825 C 0.41823 0.45162 0.01755 0.0
C826 C 0.39911 0.4438 0.03956 0.0
C827 C 0.35719 0.4288 0.04118 0.0
C828 C 0.46327 0.47146 0.01612 0.0
C829 C 0.48652 0.51334 0.02053 0.0
C830 C 0.48322 0.44971 0.01 0.0
C831 C 0.46034 0.40565 1.00468 0.0
C832 C 0.43407 0.3775 0.02146 0.0
C833 C 0.41272 0.33599 0.01627 0.0
C834 C 0.41767 0.32224 0.99441 0.0
C835 C 0.44408 0.34998 0.97773 0.0
C836 C 0.46543 0.39153 0.98282 0.0
C837 C 0.66241 0.57125 0.02972 0.0
C838 C 0.67971 0.56001 0.01145 0.0
C839 C 0.62026 0.55668 0.03021 0.0
C840 C 0.59493 0.53155 0.01207 0.0
C841 C 0.61296 0.52229 0.99328 0.0
C842 C 0.65455 0.53557 0.99323 0.0
C843 C 0.54953 0.5122 0.01324 0.0
C844 C 0.52592 0.47017 1.00889 0.0
C845 C 0.52929 0.53417 0.01876 0.0
C846 C 0.55156 0.57901 0.02153 0.0
C847 C 0.5779 0.60429 1.00374 0.0
C848 C 0.59867 0.64654 1.0064 0.0
C849 C 0.59307 0.6639 0.02669 0.0
C850 C 0.56661 0.63905 0.04433 0.0
C851 C 0.54582 0.59677 0.04178 0.0
H852 H 0.60915 0.69661 0.0287 0.0
H853 H 0.40116 0.29009 0.99044 0.0
H854 H 0.14843 0.65345 0.32989 0.0
H855 H 0.09624 0.58331 0.32678 0.0
H856 H 0.00434 0.61618 0.34075 0.0
H857 H 0.05771 0.68844 0.34376 0.0
H858 H 0.99949 0.55481 0.36985 0.0
H859 H 0.0109 0.582 0.28782 0.0
H860 H 0.045 0.60727 0.24959 0.0
H861 H 0.09014 0.52339 0.25246 0.0
H862 H 0.05733 0.49837 0.29104 0.0
H863 H 0.8378 0.35948 0.35227 0.0
H864 H 0.88693 0.43042 0.34785 0.0
H865 H 0.98182 0.40066 0.33696 0.0
H866 H 0.93164 0.3276 0.34183 0.0
H867 H 0.98366 0.46052 0.30512 0.0
H868 H 0.97738 0.43756 0.38808 0.0
H869 H 0.94447 0.41266 0.42669 0.0
H870 H 0.89017 0.48854 0.4216 0.0
H871 H 0.92211 0.51334 0.38275 0.0
C872 C 0.11713 0.64643 0.33163 0.0
C873 C 0.10727 0.67692 0.33684 0.0
C874 C 0.0872 0.60594 0.32981 0.0
C875 C 0.04634 0.5944 0.33323 0.0
C876 C 0.03583 0.62461 0.33782 0.0
C877 C 0.06616 0.66581 0.33938 0.0
C878 C 0.01592 0.55033 0.33421 0.0
C879 C 0.99533 0.53432 0.35549 0.0
C880 C 0.01193 0.52341 0.31579 0.0
C881 C 0.03192 0.53856 0.29254 0.0
C882 C 0.02851 0.56925 0.28048 0.0
C883 C 0.04759 0.58352 0.25871 0.0
C884 C 0.06983 0.56704 0.24863 0.0
C885 C 0.07291 0.53615 0.26029 0.0
C886 C 0.05414 0.52197 0.28214 0.0
C887 C 0.86908 0.36744 0.34942 0.0
C888 C 0.88078 0.33748 0.34814 0.0
C889 C 0.89722 0.40839 0.34667 0.0
C890 C 0.93815 0.42099 0.34255 0.0
C891 C 0.95027 0.39147 0.34037 0.0
C892 C 0.9217 0.34985 0.34319 0.0
C893 C 0.96747 0.46525 0.34073 0.0
C894 C 0.98782 0.48118 0.31938 0.0
C895 C 0.97145 0.49219 0.35907 0.0
C896 C 0.95196 0.47713 0.38241 0.0
C897 C 0.95814 0.44868 0.39509 0.0
C898 C 0.93973 0.43465 0.41705 0.0
C899 C 0.91536 0.44911 0.42661 0.0
C900 C 0.90919 0.47749 0.4142 0.0
C901 C 0.92742 0.49153 0.39221 0.0
H902 H 0.90116 0.43824 0.44363 0.0
H903 H 0.08459 0.57813 0.23178 0.0
H904 H 0.45862 0.10077 0.70924 0.0
H905 H 0.49054 0.06113 0.69893 0.0
H906 H 0.45727 0.06059 0.62642 0.0
H907 H 0.42675 0.10294 0.63663 0.0
H908 H 0.44057 0.98169 0.64704 0.0
H909 H 0.55103 0.11306 0.63225 0.0
H910 H 0.60218 0.18553 0.63715 0.0
H911 H 0.64241 0.15791 0.70157 0.0
H912 H 0.59183 0.08524 0.69707 0.0
H913 H 0.60589 0.91642 0.64422 0.0
H914 H 0.583 0.96476 0.6327 0.0
H915 H 0.51105 0.93539 0.69596 0.0
H916 H 0.53532 0.88951 0.70804 0.0
H917 H 0.58639 0.03408 0.66525 0.0
H918 H 0.41732 0.9107 0.67149 0.0
H919 H 0.36853 0.84238 0.65661 0.0
H920 H 0.44748 0.86012 0.59818 0.0
H921 H 0.49721 0.92784 0.61308 0.0
C922 C 0.45813 0.09264 0.69108 0.0
C923 C 0.44057 0.10575 0.67381 0.0
C924 C 0.47657 0.06992 0.68518 0.0
C925 C 0.47723 0.05876 0.66184 0.0
C926 C 0.4576 0.06946 0.64454 0.0
C927 C 0.43966 0.09312 0.65044 0.0
C928 C 0.49714 0.03441 0.65639 0.0
C929 C 0.47258 0.99332 0.65068 0.0
C930 C 0.53914 0.04973 0.66054 0.0
C931 C 0.56746 0.09369 0.66437 0.0
C932 C 0.57036 0.12249 0.64765 0.0
C933 C 0.59934 0.16357 0.6503 0.0
C934 C 0.62534 0.17628 0.66966 0.0
C935 C 0.6223 0.14798 0.68654 0.0
C936 C 0.59355 0.10684 0.68393 0.0
C937 C 0.58608 0.92115 0.65594 0.0
C938 C 0.57229 0.89884 0.67708 0.0
C939 C 0.57251 0.94824 0.64915 0.0
C940 C 0.54449 0.95282 0.66321 0.0
C941 C 0.53192 0.93165 0.68458 0.0
C942 C 0.54595 0.90542 0.69151 0.0
C943 C 0.52941 0.98111 0.65684 0.0
C944 C 0.55467 0.02278 0.66094 0.0
C945 C 0.4883 0.9666 0.65066 0.0
C946 C 0.46117 0.92398 0.64357 0.0
C947 C 0.42458 0.89959 0.65572 0.0
C948 C 0.3968 0.86097 0.6473 0.0
C949 C 0.40522 0.84655 0.62669 0.0
C950 C 0.44141 0.8708 0.61445 0.0
C951 C 0.46959 0.90916 0.62298 0.0
H952 H 0.38357 0.81674 0.6201 0.0
H953 H 0.64791 0.20807 0.67155 0.0
H954 H 0.62597 0.68453 0.68168 0.0
H955 H 0.60655 0.6121 0.68028 0.0
H956 H 0.48372 0.58086 0.6624 0.0
H957 H 0.50251 0.65201 0.66416 0.0
H958 H 0.48126 0.53341 0.69622 0.0
H959 H 0.55099 0.57704 0.62204 0.0
H960 H 0.60881 0.61909 0.59578 0.0
H961 H 0.68204 0.57877 0.63198 0.0
H962 H 0.62477 0.53688 0.6587 0.0
H963 H 0.40009 0.32528 0.66427 0.0
H964 H 0.42532 0.3986 0.66079 0.0
H965 H 0.54202 0.42354 0.6874 0.0
H966 H 0.51726 0.35098 0.69107 0.0
H967 H 0.54934 0.47387 0.64954 0.0
H968 H 0.47769 0.42877 0.72305 0.0
H969 H 0.41841 0.38506 0.74792 0.0
H970 H 0.34751 0.42836 0.71196 0.0
H971 H 0.40608 0.47153 0.68636 0.0
C972 C 0.59505 0.66218 0.67709 0.0
C973 C 0.5658 0.67413 0.67318 0.0
C974 C 0.5839 0.62076 0.67633 0.0
C975 C 0.54348 0.59075 0.67133 0.0
C976 C 0.5149 0.6031 0.66657 0.0
C977 C 0.52584 0.64405 0.66751 0.0
C978 C 0.52989 0.54633 0.67183 0.0
C979 C 0.49595 0.52047 0.68575 0.0
C980 C 0.54934 0.52919 0.65861 0.0
C981 C 0.58374 0.55419 0.64253 0.0
C982 C 0.57952 0.5774 0.62453 0.0
C983 C 0.61218 0.60116 0.60954 0.0
C984 C 0.64912 0.6017 0.61226 0.0
C985 C 0.65343 0.57838 0.62993 0.0
C986 C 0.62088 0.5546 0.64499 0.0
C987 C 0.4312 0.3463 0.66915 0.0
C988 C 0.45648 0.33194 0.67797 0.0
C989 C 0.44559 0.38826 0.66722 0.0
C990 C 0.48562 0.41665 0.67388 0.0
C991 C 0.51115 0.40234 0.68205 0.0
C992 C 0.49671 0.36062 0.68426 0.0
C993 C 0.50046 0.46122 0.67358 0.0
C994 C 0.53469 0.48699 0.65989 0.0
C995 C 0.48116 0.47834 0.68689 0.0
C996 C 0.44616 0.45307 0.7026 0.0
C997 C 0.44937 0.42875 0.7203 0.0
C998 C 0.4159 0.40408 0.73455 0.0
C999 C 0.37921 0.40392 0.73153 0.0
C1000 C 0.37594 0.42848 0.71426 0.0
C1001 C 0.40925 0.45302 0.69985 0.0
H1002 H 0.35335 0.3848 0.7426 0.0
H1003 H 0.67437 0.62011 0.60063 0.0
H1004 H 0.09645 0.41422 0.98487 0.0
H1005 H 0.04762 0.43884 0.98211 0.0
H1006 H 0.08861 0.49854 0.04905 0.0
H1007 H 0.13618 0.47317 0.05226 0.0
H1008 H 0.009 0.46657 0.04593 0.0
H1009 H 0.12405 0.54933 0.99531 0.0
H1010 H 0.17164 0.56109 0.96264 0.0
H1011 H 0.07219 0.5105 0.91392 0.0
H1012 H 0.02388 0.49788 0.94629 0.0
H1013 H 0.93655 0.60654 0.03896 0.0
H1014 H 0.98669 0.5831 0.03912 0.0
H1015 H 0.93268 0.51379 0.97626 0.0
H1016 H 0.88235 0.53655 0.97639 0.0
H1017 H 0.01812 0.55035 0.9764 0.0
H1018 H 0.90359 0.46495 0.02501 0.0
H1019 H 0.8531 0.4497 0.05634 0.0
H1020 H 0.9486 0.50243 0.10757 0.0
H1021 H 0.99984 0.51813 0.07641 0.0
C1022 C 0.09447 0.43189 0.9992 0.0
C1023 C 0.12063 0.44204 0.01864 0.0
C1024 C 0.06682 0.44634 0.9975 0.0
C1025 C 0.06497 0.47139 0.01514 0.0
C1026 C 0.08954 0.4796 0.03511 0.0
C1027 C 0.11696 0.46514 0.03685 0.0
C1028 C 0.03881 0.49047 0.01265 0.0
C1029 C 0.01145 0.48528 0.03084 0.0
C1030 C 0.04114 0.51426 0.99275 0.0
C1031 C 0.07029 0.5223 0.97327 0.0
C1032 C 0.11229 0.54047 0.97766 0.0
C1033 C 0.1394 0.5473 0.9592 0.0
C1034 C 0.12494 0.53644 0.93627 0.0
C1035 C 0.08334 0.51883 0.93171 0.0
C1036 C 0.05608 0.51186 0.95009 0.0
C1037 C 0.93649 0.58755 0.02475 0.0
C1038 C 0.90618 0.57384 1.00744 0.0
C1039 C 0.96476 0.57379 0.02497 0.0
C1040 C 0.96323 0.54639 1.00779 0.0
C1041 C 0.93459 0.53497 0.98963 0.0
C1042 C 0.90601 0.54815 0.98963 0.0
C1043 C 0.98892 0.52682 0.00979 0.0
C1044 C 0.01597 0.53181 0.99152 0.0
C1045 C 0.98615 0.50262 0.02951 0.0
C1046 C 0.95557 0.49318 0.04834 0.0
C1047 C 0.91387 0.47362 0.04292 0.0
C1048 C 0.88509 0.46483 0.06066 0.0
C1049 C 0.89759 0.47534 0.08394 0.0
C1050 C 0.93895 0.49443 0.08952 0.0
C1051 C 0.96789 0.5032 0.07183 0.0
H1052 H 0.87523 0.46853 0.09764 0.0
H1053 H 0.14599 0.54175 0.92202 0.0
H1054 H 0.35009 0.83833 0.34765 0.0
H1055 H 0.42193 0.88497 0.34246 0.0
H1056 H 0.39771 0.98369 0.33139 0.0
H1057 H 0.32429 0.93611 0.33591 0.0
H1058 H 0.45636 0.9884 0.30148 0.0
H1059 H 0.43123 0.96921 0.38464 0.0
H1060 H 0.40381 0.92829 0.42079 0.0
H1061 H 0.47957 0.87498 0.4101 0.0
H1062 H 0.50698 0.9151 0.37366 0.0
H1063 H 0.64607 0.15269 0.32956 0.0
H1064 H 0.57626 0.09923 0.32602 0.0
H1065 H 0.6125 0.00919 0.33817 0.0
H1066 H 0.68384 0.06389 0.34252 0.0
H1067 H 0.54875 0.9961 0.36566 0.0
H1068 H 0.57759 0.01966 0.28362 0.0
H1069 H 0.60459 0.06112 0.24763 0.0
H1070 H 0.5223 0.10729 0.25649 0.0
H1071 H 0.49514 0.06652 0.29271 0.0
C1072 C 0.35959 0.86984 0.34405 0.0
C1073 C 0.33113 0.88342 0.34241 0.0
C1074 C 0.401 0.89661 0.34114 0.0
C1075 C 0.41543 0.93801 0.33706 0.0
C1076 C 0.38724 0.95181 0.33468 0.0
C1077 C 0.34532 0.92466 0.33729 0.0
C1078 C 0.46004 0.96655 0.33586 0.0
C1079 C 0.47653 0.99048 0.31562 0.0
C1080 C 0.48654 0.96826 0.35402 0.0
C1081 C 0.47091 0.94493 0.3763 0.0
C1082 C 0.44191 0.94862 0.38993 0.0
C1083 C 0.42636 0.92556 0.41048 0.0
C1084 C 0.43986 0.89897 0.41771 0.0
C1085 C 0.4691 0.89555 0.40447 0.0
C1086 C 0.48469 0.91847 0.38387 0.0
C1087 C 0.63962 0.12162 0.33127 0.0
C1088 C 0.67062 0.11265 0.33655 0.0
C1089 C 0.59944 0.09089 0.32899 0.0
C1090 C 0.58896 0.05005 0.33155 0.0
C1091 C 0.61994 0.04056 0.33601 0.0
C1092 C 0.66065 0.07171 0.33832 0.0
C1093 C 0.54518 0.01828 0.33132 0.0
C1094 C 0.52872 0.99374 0.35138 0.0
C1095 C 0.51873 0.01613 0.31302 0.0
C1096 C 0.53445 0.04012 0.29097 0.0
C1097 C 0.56536 0.03878 0.27796 0.0
C1098 C 0.58069 0.06216 0.25751 0.0
C1099 C 0.56521 0.08686 0.2498 0.0
C1100 C 0.53425 0.08812 0.26248 0.0
C1101 C 0.51882 0.06481 0.28295 0.0
H1102 H 0.57716 0.10498 0.23398 0.0
H1103 H 0.42771 0.88106 0.43358 0.0
H1104 H 0.3657 0.25296 0.71839 0.0
H1105 H 0.33102 0.27059 0.74875 0.0
H1106 H 0.28609 0.15244 0.78068 0.0
H1107 H 0.3213 0.13508 0.75064 0.0
H1108 H 0.22857 0.17797 0.78169 0.0
H1109 H 0.36803 0.2286 0.80444 0.0
H1110 H 0.44254 0.267 0.80016 0.0
H1111 H 0.43877 0.37729 0.78925 0.0
H1112 H 0.36397 0.33946 0.7937 0.0
H1113 H 0.19284 0.20189 0.90036 0.0
H1114 H 0.22016 0.19113 0.864 0.0
H1115 H 0.26297 0.31557 0.84348 0.0
H1116 H 0.235 0.32653 0.8799 0.0
H1117 H 0.31944 0.29222 0.8337 0.0
H1118 H 0.17814 0.2397 0.8184 0.0
H1119 H 0.10445 0.19883 0.82607 0.0
H1120 H 0.11173 0.08931 0.82383 0.0
H1121 H 0.18561 0.12956 0.8165 0.0
C1122 C 0.34747 0.23034 0.73149 0.0
C1123 C 0.3461 0.19252 0.73211 0.0
C1124 C 0.32797 0.24059 0.74899 0.0
C1125 C 0.30638 0.21309 0.76728 0.0
C1126 C 0.30261 0.17426 0.76686 0.0
C1127 C 0.3226 0.16427 0.74962 0.0
C1128 C 0.29011 0.22542 0.78772 0.0
C1129 C 0.24846 0.20286 0.79309 0.0
C1130 C 0.31578 0.25837 0.80246 0.0
C1131 C 0.36045 0.28114 0.79907 0.0
C1132 C 0.38305 0.26097 0.80085 0.0
C1133 C 0.42534 0.28264 0.79841 0.0
C1134 C 0.44539 0.32448 0.79406 0.0
C1135 C 0.42316 0.34481 0.7924 0.0
C1136 C 0.38082 0.32331 0.79497 0.0
C1137 C 0.20774 0.22704 0.8881 0.0
C1138 C 0.21097 0.26497 0.89307 0.0
C1139 C 0.22347 0.22079 0.86724 0.0
C1140 C 0.24294 0.25223 0.85062 0.0
C1141 C 0.24783 0.29068 0.85588 0.0
C1142 C 0.23195 0.29697 0.87683 0.0
C1143 C 0.25786 0.24448 0.82787 0.0
C1144 C 0.29932 0.26783 0.82208 0.0
C1145 C 0.23198 0.21207 0.81282 0.0
C1146 C 0.18749 0.1877 0.81707 0.0
C1147 C 0.16409 0.20692 0.81971 0.0
C1148 C 0.12227 0.18386 0.82397 0.0
C1149 C 0.10344 0.14151 0.82548 0.0
C1150 C 0.12637 0.12212 0.82268 0.0
C1151 C 0.16821 0.14505 0.81844 0.0
H1152 H 0.07106 0.12371 0.82878 0.0
H1153 H 0.47815 0.34117 0.79214 0.0
H1154 H 0.92174 0.16179 0.20942 0.0
H1155 H 0.96158 0.18955 0.17346 0.0
H1156 H 0.01454 0.31052 0.20203 0.0
H1157 H 0.97372 0.28273 0.238 0.0
H1158 H 0.00425 0.31359 0.15569 0.0
H1159 H 0.06409 0.25397 0.20483 0.0
H1160 H 0.0649 0.19951 0.22834 0.0
H1161 H 0.03272 0.12362 0.1672 0.0
H1162 H 0.03116 0.17747 0.1434 0.0
H1163 H 0.20756 0.3514 0.0971 0.0
H1164 H 0.15441 0.31752 0.12667 0.0
H1165 H 0.06724 0.32174 0.07949 0.0
H1166 H 0.12154 0.35928 0.05082 0.0
H1167 H 0.09096 0.25451 0.13408 0.0
H1168 H 0.98986 0.32174 0.10815 0.0
H1169 H 0.99506 0.38128 0.08702 0.0
H1170 H 0.12087 0.45194 0.10648 0.0
H1171 H 0.11581 0.39282 0.12801 0.0
C1172 C 0.94154 0.19439 0.20797 0.0
C1173 C 0.94486 0.21996 0.22676 0.0
C1174 C 0.96445 0.21027 0.18737 0.0
C1175 C 0.99202 0.25216 0.18507 0.0
C1176 C 0.99374 0.27809 0.20328 0.0
C1177 C 0.97035 0.26219 0.22388 0.0
C1178 C 0.02069 0.26827 0.16447 0.0
C1179 C 0.02313 0.30059 0.15094 0.0
C1180 C 0.04587 0.25186 0.15819 0.0
C1181 C 0.04711 0.21957 0.1724 0.0
C1182 C 0.05693 0.22557 0.19644 0.0
C1183 C 0.05755 0.19482 0.20981 0.0
C1184 C 0.04876 0.15809 0.19928 0.0
C1185 C 0.03946 0.15207 0.17534 0.0
C1186 C 0.03872 0.18269 0.1619 0.0
C1187 C 0.17693 0.34465 0.09293 0.0
C1188 C 0.16896 0.35817 0.07159 0.0
C1189 C 0.14633 0.32518 0.1099 0.0
C1190 C 0.10652 0.31778 0.10588 0.0
C1191 C 0.09778 0.32829 0.08368 0.0
C1192 C 0.12878 0.34906 0.06697 0.0
C1193 C 0.07521 0.30039 0.12529 0.0
C1194 C 0.07203 0.26755 0.13862 0.0
C1195 C 0.05014 0.31705 0.13167 0.0
C1196 C 0.05276 0.35289 0.1194 0.0
C1197 C 0.01853 0.35006 0.10799 0.0
C1198 C 0.02141 0.38368 0.09594 0.0
C1199 C 0.0583 0.42033 0.09532 0.0
C1200 C 0.09232 0.42353 0.10688 0.0
C1201 C 0.08948 0.39003 0.119 0.0
H1202 H 0.06046 0.44627 0.08596 0.0
H1203 H 0.04926 0.13432 0.20966 0.0
H1204 H 0.70756 0.97308 0.57377 0.0
H1205 H 0.71511 0.01241 0.53788 0.0
H1206 H 0.79331 0.97139 0.5083 0.0
H1207 H 0.78597 0.93234 0.544 0.0
H1208 H 0.82761 0.04906 0.50241 0.0
H1209 H 0.69316 0.93842 0.48508 0.0
H1210 H 0.62084 0.89038 0.49343 0.0
H1211 H 0.59955 0.99018 0.50524 0.0
H1212 H 0.67165 0.03886 0.49639 0.0
H1213 H 0.75719 0.11236 0.3847 0.0
H1214 H 0.74937 0.06157 0.41443 0.0
H1215 H 0.83181 0.15802 0.46016 0.0
H1216 H 0.84084 0.20807 0.43029 0.0
H1217 H 0.71643 0.04788 0.45578 0.0
H1218 H 0.87175 0.13549 0.49885 0.0
H1219 H 0.94505 0.17585 0.48962 0.0
H1220 H 0.92562 0.11037 0.42514 0.0
H1221 H 0.85179 0.07081 0.43348 0.0
C1222 C 0.72583 0.97191 0.55947 0.0
C1223 C 0.74645 0.94973 0.562 0.0
C1224 C 0.73011 0.99444 0.53885 0.0
C1225 C 0.75483 0.99508 0.52013 0.0
C1226 C 0.77435 0.9719 0.52241 0.0
C1227 C 0.7702 0.94957 0.54296 0.0
C1228 C 0.76267 0.0217 0.49883 0.0
C1229 C 0.80314 0.04856 0.49222 0.0
C1230 C 0.73113 0.02124 0.48517 0.0
C1231 C 0.68778 0.99221 0.49027 0.0
C1232 C 0.67305 0.95009 0.48952 0.0
C1233 C 0.6321 0.92276 0.49431 0.0
C1234 C 0.60569 0.93718 0.50013 0.0
C1235 C 0.62006 0.97903 0.50081 0.0
C1236 C 0.6609 0.00651 0.49575 0.0
C1237 C 0.77478 0.1225 0.40075 0.0
C1238 C 0.80017 0.16431 0.40496 0.0
C1239 C 0.76994 0.09345 0.41793 0.0
C1240 C 0.79021 0.10551 0.43974 0.0
C1241 C 0.81654 0.14729 0.44346 0.0
C1242 C 0.82157 0.17611 0.42633 0.0
C1243 C 0.78153 0.07532 0.45933 0.0
C1244 C 0.74088 0.04808 0.4658 0.0
C1245 C 0.8129 0.07492 0.47276 0.0
C1246 C 0.85639 0.10061 0.46666 0.0
C1247 C 0.8831 0.13014 0.48254 0.0
C1248 C 0.92463 0.15298 0.47741 0.0
C1249 C 0.93986 0.14593 0.45666 0.0
C1250 C 0.91355 0.1162 0.44096 0.0
C1251 C 0.87183 0.0939 0.44575 0.0
H1252 H 0.97208 0.16331 0.45281 0.0
H1253 H 0.57406 0.91593 0.50401 0.0
H1254 H 0.64322 0.75385 0.72044 0.0
H1255 H 0.68141 0.74237 0.75161 0.0
H1256 H 0.6769 0.83427 0.79394 0.0
H1257 H 0.63905 0.84584 0.76286 0.0
H1258 H 0.75029 0.83749 0.79825 0.0
H1259 H 0.60782 0.73488 0.8018 0.0
H1260 H 0.54434 0.67983 0.78496 0.0
H1261 H 0.60265 0.60898 0.77284 0.0
H1262 H 0.66668 0.66393 0.78932 0.0
H1263 H 0.77259 0.79219 0.91496 0.0
H1264 H 0.74479 0.80129 0.87823 0.0
H1265 H 0.75217 0.7012 0.84762 0.0
H1266 H 0.78013 0.6918 0.88464 0.0
H1267 H 0.68265 0.69955 0.83409 0.0
H1268 H 0.8235 0.79973 0.8344 0.0
H1269 H 0.88713 0.85546 0.85063 0.0
H1270 H 0.83278 0.93138 0.85473 0.0
H1271 H 0.7686 0.87589 0.83885 0.0
C1272 C 0.65135 0.77231 0.73614 0.0
C1273 C 0.63845 0.80104 0.73914 0.0
C1274 C 0.67286 0.76548 0.75406 0.0
C1275 C 0.68161 0.78703 0.77537 0.0
C1276 C 0.67056 0.81718 0.77777 0.0
C1277 C 0.6489 0.82379 0.75998 0.0
C1278 C 0.69964 0.77662 0.79586 0.0
C1279 C 0.73537 0.80738 0.80614 0.0
C1280 C 0.68083 0.73708 0.80594 0.0
C1281 C 0.64213 0.70365 0.79658 0.0
C1282 C 0.60715 0.70764 0.79543 0.0
C1283 C 0.57108 0.67646 0.78596 0.0
C1284 C 0.5695 0.64097 0.77778 0.0
C1285 C 0.60395 0.63652 0.77915 0.0
C1286 C 0.64013 0.66765 0.78857 0.0
C1287 C 0.76845 0.77207 0.90044 0.0
C1288 C 0.77928 0.74161 0.90276 0.0
C1289 C 0.75249 0.77735 0.87936 0.0
C1290 C 0.74716 0.75261 0.85981 0.0
C1291 C 0.7562 0.72094 0.86233 0.0
C1292 C 0.7721 0.71551 0.88356 0.0
C1293 C 0.73298 0.7607 0.83681 0.0
C1294 C 0.69794 0.72954 0.82606 0.0
C1295 C 0.75246 0.79991 0.82624 0.0
C1296 C 0.79113 0.83352 0.83559 0.0
C1297 C 0.82503 0.82822 0.8389 0.0
C1298 C 0.86121 0.85978 0.84803 0.0
C1299 C 0.86397 0.89691 0.85375 0.0
C1300 C 0.83059 0.90259 0.8503 0.0
C1301 C 0.79431 0.87111 0.84122 0.0
H1302 H 0.892 0.9213 0.86082 0.0
H1303 H 0.54157 0.61689 0.77041 0.0
H1304 H 0.09288 0.78945 0.20923 0.0
H1305 H 0.05154 0.75633 0.17426 0.0
H1306 H 0.94338 0.73338 0.21201 0.0
H1307 H 0.9844 0.76647 0.24681 0.0
H1308 H 0.93362 0.66593 0.18612 0.0
H1309 H 0.98582 0.8106 0.17451 0.0
H1310 H 0.0403 0.88206 0.17067 0.0
H1311 H 0.09038 0.85063 0.11194 0.0
H1312 H 0.0365 0.77884 0.11565 0.0
H1313 H 0.78736 0.61742 0.09799 0.0
H1314 H 0.83503 0.6538 0.1299 0.0
H1315 H 0.93586 0.67973 0.08405 0.0
H1316 H 0.88827 0.64301 0.05222 0.0
H1317 H 0.95353 0.74458 0.1125 0.0
H1318 H 0.90547 0.60368 0.12159 0.0
H1319 H 0.85565 0.53048 0.12436 0.0
H1320 H 0.80349 0.55159 0.18606 0.0
H1321 H 0.85275 0.6251 0.18349 0.0
C1322 C 0.06024 0.77698 0.2101 0.0
C1323 C 0.04195 0.7808 0.23076 0.0
C1324 C 0.03668 0.75829 0.19007 0.0
C1325 C 0.99433 0.74264 0.19041 0.0
C1326 C 0.97595 0.7453 0.21126 0.0
C1327 C 0.99948 0.7644 0.23112 0.0
C1328 C 0.96896 0.72402 0.16906 0.0
C1329 C 0.9377 0.68327 0.17012 0.0
C1330 C 0.97519 0.74611 0.14783 0.0
C1331 C 0.00742 0.78928 0.14554 0.0
C1332 C 0.00866 0.81886 0.16091 0.0
C1333 C 0.03939 0.85944 0.15873 0.0
C1334 C 0.06886 0.87086 0.14112 0.0
C1335 C 0.06758 0.84174 0.1256 0.0
C1336 C 0.03695 0.80111 0.12773 0.0
C1337 C 0.81972 0.63151 0.09462 0.0
C1338 C 0.83398 0.6276 0.07252 0.0
C1339 C 0.84695 0.65211 0.11289 0.0
C1340 C 0.88909 0.66901 0.10953 0.0
C1341 C 0.90355 0.66692 0.08712 0.0
C1342 C 0.87625 0.64604 0.06887 0.0
C1343 C 0.91761 0.68676 0.12977 0.0
C1344 C 0.94948 0.7272 0.12848 0.0
C1345 C 0.91255 0.66414 0.15065 0.0
C1346 C 0.88256 0.62 0.15221 0.0
C1347 C 0.88313 0.59279 0.13563 0.0
C1348 C 0.85503 0.55122 0.13718 0.0
C1349 C 0.82634 0.53641 0.15534 0.0
C1350 C 0.82571 0.56314 0.17198 0.0
C1351 C 0.85374 0.60476 0.1705 0.0
H1352 H 0.80468 0.50422 0.15655 0.0
H1353 H 0.09263 0.90229 0.13946 0.0
H1354 H 0.3222 0.10851 0.53713 0.0
H1355 H 0.31081 0.06598 0.50221 0.0
H1356 H 0.21309 0.96375 0.53822 0.0
H1357 H 0.2243 0.00591 0.57293 0.0
H1358 H 0.26215 0.9418 0.51362 0.0
H1359 H 0.19294 0.01863 0.49943 0.0
H1360 H 0.18934 0.08158 0.49508 0.0
H1361 H 0.27615 0.12067 0.43861 0.0
H1362 H 0.28069 0.05816 0.44285 0.0
H1363 H 0.14592 0.80473 0.42594 0.0
H1364 H 0.16499 0.85669 0.45628 0.0
H1365 H 0.26138 0.94387 0.41184 0.0
H1366 H 0.24303 0.89157 0.38159 0.0
H1367 H 0.22042 0.9777 0.43857 0.0
H1368 H 0.28884 0.90286 0.45014 0.0
H1369 H 0.29585 0.84179 0.4533 0.0
H1370 H 0.21672 0.80167 0.51347 0.0
H1371 H 0.20869 0.86237 0.51044 0.0
C1372 C 0.29867 0.07683 0.53766 0.0
C1373 C 0.27398 0.06069 0.55776 0.0
C1374 C 0.29198 0.05261 0.51765 0.0
C1375 C 0.26074 0.01166 0.51743 0.0
C1376 C 0.23725 0.99519 0.53785 0.0
C1377 C 0.24359 0.01942 0.55767 0.0
C1378 C 0.25143 0.98596 0.4959 0.0
C1379 C 0.25274 0.94957 0.4973 0.0
C1380 C 0.24038 0.99653 0.47426 0.0
C1381 C 0.23751 0.03397 0.47165 0.0
C1382 C 0.21152 0.04081 0.48622 0.0
C1383 C 0.20926 0.07638 0.48375 0.0
C1384 C 0.2326 0.10517 0.46663 0.0
C1385 C 0.25815 0.09839 0.45189 0.0
C1386 C 0.26057 0.06289 0.45432 0.0
C1387 C 0.17057 0.83522 0.4224 0.0
C1388 C 0.19283 0.84399 0.40133 0.0
C1389 C 0.18157 0.86487 0.4398 0.0
C1390 C 0.21501 0.90406 0.43652 0.0
C1391 C 0.23553 0.91385 0.41481 0.0
C1392 C 0.22483 0.88395 0.39745 0.0
C1393 C 0.23029 0.93325 0.45655 0.0
C1394 C 0.23014 0.97016 0.45486 0.0
C1395 C 0.24303 0.92351 0.47785 0.0
C1396 C 0.2478 0.88698 0.4799 0.0
C1397 C 0.27259 0.88084 0.46392 0.0
C1398 C 0.27681 0.8463 0.4657 0.0
C1399 C 0.25662 0.81774 0.48352 0.0
C1400 C 0.23227 0.82378 0.49964 0.0
C1401 C 0.2279 0.85828 0.49791 0.0
H1402 H 0.25995 0.79101 0.48486 0.0
H1403 H 0.2308 0.13268 0.46474 0.0
loop_
_geom_bond_atom_site_label_1
_geom_bond_atom_site_label_2
_geom_bond_distance
_geom_bond_site_symmetry_2
_ccdc_geom_bond_type
Eu0 N31 2.657 . S
Eu0 N38 2.609 . S
Eu0 O44 2.558 . S
Eu0 O45 2.612 . S
Eu0 O47 2.339 . S
Eu0 O48 2.563 . S
Eu0 O49 2.419 . S
Eu0 O51 2.380 1_554 S
Eu0 O52 2.432 . S
Eu0 C64 2.848 . S
C1 C4 1.429 . S
C1 C5 1.411 . S
C1 N8 1.377 1_554 S
C2 C4 1.420 . S
C2 C6 1.423 . S
C2 C14 1.392 . S
C3 C5 1.420 . S
C3 C6 1.351 . S
C3 H26 0.931 . S
C4 C1 1.429 . S
C4 C2 1.420 . S
C4 N12 1.362 . S
C5 C1 1.411 . S
C5 C3 1.420 . S
C5 C10 1.395 1_554 S
C6 C2 1.423 . S
C6 C3 1.351 . S
C6 H18 0.930 . S
C7 C9 1.400 . S
C7 C10 1.386 . S
C7 H19 0.930 . S
N8 C1 1.377 1_556 S
N8 C9 1.321 . S
N8 Eu11 2.609 . S
C9 C7 1.400 . S
C9 N8 1.321 . S
C9 H16 0.930 . S
C10 C5 1.395 1_556 S
C10 C7 1.386 . S
C10 H29 0.930 . S
Eu11 N8 2.609 . S
Eu11 N12 2.657 1_556 S
Eu11 O45 2.380 1_556 S
Eu11 O46 2.432 . S
Eu11 O50 2.558 . S
Eu11 O51 2.612 . S
Eu11 O53 2.339 1_556 S
Eu11 O54 2.563 . S
Eu11 O55 2.419 . S
Eu11 C75 2.848 . S
N12 C4 1.362 . S
N12 Eu11 2.657 1_554 S
N12 C13 1.334 . S
C13 N12 1.334 . S
C13 C15 1.413 . S
C13 H20 0.929 . S
C14 C2 1.392 . S
C14 C15 1.367 . S
C14 H22 0.930 . S
C15 C13 1.413 . S
C15 C14 1.367 . S
C15 H17 0.930 . S
H16 C9 0.930 . S
H17 C15 0.930 . S
H18 C6 0.930 . S
H19 C7 0.930 . S
H20 C13 0.929 . S
H21 C35 0.930 . S
H22 C14 0.930 . S
H23 C41 0.930 . S
H24 C32 0.929 . S
H25 C39 0.930 . S
H26 C3 0.931 . S
H27 C33 0.930 . S
H28 C66 0.930 . S
H29 C10 0.930 . S
H30 C65 0.931 . S
N31 Eu0 2.657 . S
N31 C32 1.334 1_554 S
N31 C36 1.363 . S
C32 H24 0.929 . S
C32 N31 1.334 1_556 S
C32 C35 1.413 . S
C33 H27 0.930 . S
C33 C34 1.392 . S
C33 C35 1.367 . S
C34 C33 1.392 . S
C34 C36 1.402 1_556 S
C34 C66 1.423 . S
C35 H21 0.930 . S
C35 C32 1.413 . S
C35 C33 1.367 . S
C36 N31 1.363 . S
C36 C34 1.402 1_554 S
C36 C40 1.446 . S
H37 C42 0.930 . S
N38 Eu0 2.609 . S
N38 C40 1.377 . S
N38 C41 1.321 . S
C39 H25 0.930 . S
C39 C41 1.400 . S
C39 C42 1.386 . S
C40 C36 1.446 . S
C40 N38 1.377 . S
C40 C43 1.411 . S
C41 H23 0.930 . S
C41 N38 1.321 . S
C41 C39 1.400 . S
C42 H37 0.930 . S
C42 C39 1.386 . S
C42 C43 1.395 . S
C43 C40 1.411 . S
C43 C42 1.395 . S
C43 C65 1.424 . S
O44 Eu0 2.558 . S
O44 C64 1.257 . S
O45 Eu0 2.612 . S
O45 Eu11 2.380 1_554 S
O45 C56 1.276 . S
O46 Eu11 2.432 . S
O46 C63 1.264 1_556 S
O47 Eu0 2.339 . S
O47 C63 1.254 . S
O48 Eu0 2.563 . S
O48 C56 1.235 . S
O49 Eu0 2.419 . S
O49 C64 1.249 . S
O50 Eu11 2.558 . S
O50 C75 1.257 . S
O51 Eu0 2.380 1_556 S
O51 Eu11 2.612 . S
O51 C67 1.276 . S
O52 Eu0 2.432 . S
O52 C74 1.264 . S
O53 Eu11 2.339 1_554 S
O53 C74 1.254 . S
O54 Eu11 2.563 . S
O54 C67 1.235 . S
O55 Eu11 2.419 . S
O55 C75 1.249 . S
C56 O45 1.276 . S
C56 O48 1.235 . S
C57 C59 1.393 . S
C57 C61 1.395 . S
C57 C64 1.492 . S
C58 C59 1.392 . S
C58 C60 1.386 . S
C59 C57 1.393 . S
C59 C58 1.392 . S
C59 H76 0.930 . S
C60 C58 1.386 . S
C60 C62 1.395 . S
C60 H77 0.930 . S
C61 C57 1.395 . S
C61 C62 1.379 . S
C61 H78 0.930 . S
C62 C60 1.395 . S
C62 C61 1.379 . S
C62 H79 0.930 . S
C63 O46 1.264 1_554 S
C63 O47 1.254 . S
C64 Eu0 2.848 . S
C64 O44 1.257 . S
C64 O49 1.249 . S
C64 C57 1.492 . S
C65 H30 0.931 . S
C65 C43 1.424 . S
C65 C66 1.347 1_554 S
C66 H28 0.930 . S
C66 C34 1.423 . S
C66 C65 1.347 1_556 S
C67 O51 1.276 . S
C67 O54 1.235 . S
C68 C69 1.393 . S
C68 C72 1.395 . S
C68 C75 1.492 . S
C69 C68 1.393 . S
C69 C70 1.392 . S
C69 H80 0.930 . S
C70 C69 1.392 . S
C70 C71 1.386 . S
C71 C70 1.386 . S
C71 C73 1.395 . S
C71 H81 0.930 . S
C72 C68 1.395 . S
C72 C73 1.379 . S
C72 H82 0.930 . S
C73 C71 1.395 . S
C73 C72 1.379 . S
C73 H83 0.930 . S
C74 O52 1.264 . S
C74 O53 1.254 . S
C75 Eu11 2.848 . S
C75 O50 1.257 . S
C75 O55 1.249 . S
C75 C68 1.492 . S
H76 C59 0.930 . S
H77 C60 0.930 . S
H78 C61 0.930 . S
H79 C62 0.930 . S
H80 C69 0.930 . S
H81 C71 0.930 . S
H82 C72 0.930 . S
H83 C73 0.930 . S
Eu84 N115 2.657 . S
Eu84 N122 2.609 . S
Eu84 O128 2.558 . S
Eu84 O129 2.612 . S
Eu84 O131 2.339 . S
Eu84 O132 2.563 . S
Eu84 O133 2.419 . S
Eu84 O135 2.380 . S
Eu84 O136 2.432 . S
Eu84 C148 2.848 . S
C85 C88 1.429 . S
C85 C89 1.411 . S
C85 N92 1.377 . S
C86 C88 1.420 . S
C86 C90 1.423 . S
C86 C98 1.392 . S
C87 C89 1.420 . S
C87 C90 1.351 . S
C87 H110 0.931 . S
C88 C85 1.429 . S
C88 C86 1.420 . S
C88 N96 1.362 . S
C89 C85 1.411 . S
C89 C87 1.420 . S
C89 C94 1.395 . S
C90 C86 1.423 . S
C90 C87 1.351 . S
C90 H102 0.930 . S
C91 C93 1.400 . S
C91 C94 1.386 . S
C91 H103 0.930 . S
N92 C85 1.377 . S
N92 C93 1.321 . S
N92 Eu95 2.609 . S
C93 C91 1.400 . S
C93 N92 1.321 . S
C93 H100 0.930 . S
C94 C89 1.395 . S
C94 C91 1.386 . S
C94 H113 0.930 . S
Eu95 N92 2.609 . S
Eu95 N96 2.657 . S
Eu95 O129 2.380 . S
Eu95 O130 2.432 . S
Eu95 O134 2.558 . S
Eu95 O135 2.612 . S
Eu95 O137 2.339 . S
Eu95 O138 2.563 . S
Eu95 O139 2.419 . S
Eu95 C159 2.848 . S
N96 C88 1.362 . S
N96 Eu95 2.657 . S
N96 C97 1.334 . S
C97 N96 1.334 . S
C97 C99 1.413 . S
C97 H104 0.929 . S
C98 C86 1.392 . S
C98 C99 1.367 . S
C98 H106 0.930 . S
C99 C97 1.413 . S
C99 C98 1.367 . S
C99 H101 0.930 . S
H100 C93 0.930 . S
H101 C99 0.930 . S
H102 C90 0.930 . S
H103 C91 0.930 . S
H104 C97 0.929 . S
H105 C119 0.930 . S
H106 C98 0.930 . S
H107 C125 0.930 . S
H108 C116 0.929 . S
H109 C123 0.930 . S
H110 C87 0.931 . S
H111 C117 0.930 . S
H112 C150 0.930 . S
H113 C94 0.930 . S
H114 C149 0.931 . S
N115 Eu84 2.657 . S
N115 C116 1.334 . S
N115 C120 1.362 . S
C116 H108 0.929 . S
C116 N115 1.334 . S
C116 C119 1.413 . S
C117 H111 0.930 . S
C117 C118 1.392 . S
C117 C119 1.367 . S
C118 C117 1.392 . S
C118 C120 1.420 . S
C118 C150 1.423 . S
C119 H105 0.930 . S
C119 C116 1.413 . S
C119 C117 1.367 . S
C120 N115 1.362 . S
C120 C118 1.420 . S
C120 C124 1.429 . S
H121 C126 0.930 . S
N122 Eu84 2.609 . S
N122 C124 1.377 . S
N122 C125 1.321 . S
C123 H109 0.930 . S
C123 C125 1.400 . S
C123 C126 1.386 . S
C124 C120 1.429 . S
C124 N122 1.377 . S
C124 C127 1.411 . S
C125 H107 0.930 . S
C125 N122 1.321 . S
C125 C123 1.400 . S
C126 H121 0.930 . S
C126 C123 1.386 . S
C126 C127 1.395 . S
C127 C124 1.411 . S
C127 C126 1.395 . S
C127 C149 1.420 . S
O128 Eu84 2.558 . S
O128 C148 1.257 . S
O129 Eu84 2.612 . S
O129 Eu95 2.380 . S
O129 C140 1.276 . S
O130 Eu95 2.432 . S
O130 C147 1.264 . S
O131 Eu84 2.339 . S
O131 C147 1.254 . S
O132 Eu84 2.563 . S
O132 C140 1.235 . S
O133 Eu84 2.419 . S
O133 C148 1.249 . S
O134 Eu95 2.558 . S
O134 C159 1.257 . S
O135 Eu84 2.380 . S
O135 Eu95 2.612 . S
O135 C151 1.276 . S
O136 Eu84 2.432 . S
O136 C158 1.264 . S
O137 Eu95 2.339 . S
O137 C158 1.254 . S
O138 Eu95 2.563 . S
O138 C151 1.235 . S
O139 Eu95 2.419 . S
O139 C159 1.249 . S
C140 O129 1.276 . S
C140 O132 1.235 . S
C141 C143 1.393 . S
C141 C145 1.395 . S
C141 C148 1.492 . S
C142 C143 1.392 . S
C142 C144 1.386 . S
C143 C141 1.393 . S
C143 C142 1.392 . S
C143 H160 0.930 . S
C144 C142 1.386 . S
C144 C146 1.395 . S
C144 H161 0.930 . S
C145 C141 1.395 . S
C145 C146 1.379 . S
C145 H162 0.930 . S
C146 C144 1.395 . S
C146 C145 1.379 . S
C146 H163 0.930 . S
C147 O130 1.264 . S
C147 O131 1.254 . S
C148 Eu84 2.848 . S
C148 O128 1.257 . S
C148 O133 1.249 . S
C148 C141 1.492 . S
C149 H114 0.931 . S
C149 C127 1.420 . S
C149 C150 1.351 . S
C150 H112 0.930 . S
C150 C118 1.423 . S
C150 C149 1.351 . S
C151 O135 1.276 . S
C151 O138 1.235 . S
C152 C153 1.393 . S
C152 C156 1.395 . S
C152 C159 1.492 . S
C153 C152 1.393 . S
C153 C154 1.392 . S
C153 H164 0.930 . S
C154 C153 1.392 . S
C154 C155 1.386 . S
C155 C154 1.386 . S
C155 C157 1.395 . S
C155 H165 0.930 . S
C156 C152 1.395 . S
C156 C157 1.379 . S
C156 H166 0.930 . S
C157 C155 1.395 . S
C157 C156 1.379 . S
C157 H167 0.930 . S
C158 O136 1.264 . S
C158 O137 1.254 . S
C159 Eu95 2.848 . S
C159 O134 1.257 . S
C159 O139 1.249 . S
C159 C152 1.492 . S
H160 C143 0.930 . S
H161 C144 0.930 . S
H162 C145 0.930 . S
H163 C146 0.930 . S
H164 C153 0.930 . S
H165 C155 0.930 . S
H166 C156 0.930 . S
H167 C157 0.930 . S
Eu168 N199 2.657 . S
Eu168 N206 2.609 . S
Eu168 O212 2.558 . S
Eu168 O213 2.612 . S
Eu168 O215 2.339 . S
Eu168 O216 2.563 . S
Eu168 O217 2.419 . S
Eu168 O219 2.380 . S
Eu168 O220 2.432 . S
Eu168 C232 2.848 . S
C169 C172 1.429 . S
C169 C173 1.411 . S
C169 N176 1.377 . S
C170 C172 1.420 . S
C170 C174 1.423 . S
C170 C182 1.392 . S
C171 C173 1.420 . S
C171 C174 1.351 . S
C171 H194 0.931 . S
C172 C169 1.429 . S
C172 C170 1.420 . S
C172 N180 1.362 . S
C173 C169 1.411 . S
C173 C171 1.420 . S
C173 C178 1.395 . S
C174 C170 1.423 . S
C174 C171 1.351 . S
C174 H186 0.930 . S
C175 C177 1.400 . S
C175 C178 1.386 . S
C175 H187 0.930 . S
N176 C169 1.377 . S
N176 C177 1.321 . S
N176 Eu179 2.609 . S
C177 C175 1.400 . S
C177 N176 1.321 . S
C177 H184 0.930 . S
C178 C173 1.395 . S
C178 C175 1.386 . S
C178 H197 0.930 . S
Eu179 N176 2.609 . S
Eu179 N180 2.657 . S
Eu179 O213 2.380 . S
Eu179 O214 2.432 . S
Eu179 O218 2.558 . S
Eu179 O219 2.612 . S
Eu179 O221 2.339 . S
Eu179 O222 2.563 . S
Eu179 O223 2.419 . S
Eu179 C243 2.848 . S
N180 C172 1.362 . S
N180 Eu179 2.657 . S
N180 C181 1.334 . S
C181 N180 1.334 . S
C181 C183 1.413 . S
C181 H188 0.929 . S
C182 C170 1.392 . S
C182 C183 1.367 . S
C182 H190 0.930 . S
C183 C181 1.413 . S
C183 C182 1.367 . S
C183 H185 0.930 . S
H184 C177 0.930 . S
H185 C183 0.930 . S
H186 C174 0.930 . S
H187 C175 0.930 . S
H188 C181 0.929 . S
H189 C203 0.930 . S
H190 C182 0.930 . S
H191 C209 0.930 . S
H192 C200 0.929 . S
H193 C207 0.930 . S
H194 C171 0.931 . S
H195 C201 0.930 . S
H196 C234 0.930 . S
H197 C178 0.930 . S
H198 C233 0.931 . S
N199 Eu168 2.657 . S
N199 C200 1.334 . S
N199 C204 1.362 . S
C200 H192 0.929 . S
C200 N199 1.334 . S
C200 C203 1.413 . S
C201 H195 0.930 . S
C201 C202 1.392 . S
C201 C203 1.367 . S
C202 C201 1.392 . S
C202 C204 1.420 . S
C202 C234 1.423 . S
C203 H189 0.930 . S
C203 C200 1.413 . S
C203 C201 1.367 . S
C204 N199 1.362 . S
C204 C202 1.420 . S
C204 C208 1.429 . S
H205 C210 0.930 . S
N206 Eu168 2.609 . S
N206 C208 1.377 . S
N206 C209 1.321 . S
C207 H193 0.930 . S
C207 C209 1.400 . S
C207 C210 1.386 . S
C208 C204 1.429 . S
C208 N206 1.377 . S
C208 C211 1.411 . S
C209 H191 0.930 . S
C209 N206 1.321 . S
C209 C207 1.400 . S
C210 H205 0.930 . S
C210 C207 1.386 . S
C210 C211 1.395 . S
C211 C208 1.411 . S
C211 C210 1.395 . S
C211 C233 1.420 . S
O212 Eu168 2.558 . S
O212 C232 1.257 . S
O213 Eu168 2.612 . S
O213 Eu179 2.380 . S
O213 C224 1.276 . S
O214 Eu179 2.432 . S
O214 C231 1.264 . S
O215 Eu168 2.339 . S
O215 C231 1.254 . S
O216 Eu168 2.563 . S
O216 C224 1.235 . S
O217 Eu168 2.419 . S
O217 C232 1.249 . S
O218 Eu179 2.558 . S
O218 C243 1.257 . S
O219 Eu168 2.380 . S
O219 Eu179 2.612 . S
O219 C235 1.276 . S
O220 Eu168 2.432 . S
O220 C242 1.264 . S
O221 Eu179 2.339 . S
O221 C242 1.254 . S
O222 Eu179 2.563 . S
O222 C235 1.235 . S
O223 Eu179 2.419 . S
O223 C243 1.249 . S
C224 O213 1.276 . S
C224 O216 1.235 . S
C225 C227 1.393 . S
C225 C229 1.395 . S
C225 C232 1.492 . S
C226 C227 1.392 . S
C226 C228 1.386 . S
C227 C225 1.393 . S
C227 C226 1.392 . S
C227 H244 0.930 . S
C228 C226 1.386 . S
C228 C230 1.395 . S
C228 H245 0.930 . S
C229 C225 1.395 . S
C229 C230 1.379 . S
C229 H246 0.930 . S
C230 C228 1.395 . S
C230 C229 1.379 . S
C230 H247 0.930 . S
C231 O214 1.264 . S
C231 O215 1.254 . S
C232 Eu168 2.848 . S
C232 O212 1.257 . S
C232 O217 1.249 . S
C232 C225 1.492 . S
C233 H198 0.931 . S
C233 C211 1.420 . S
C233 C234 1.351 . S
C234 H196 0.930 . S
C234 C202 1.423 . S
C234 C233 1.351 . S
C235 O219 1.276 . S
C235 O222 1.235 . S
C236 C237 1.393 . S
C236 C240 1.395 . S
C236 C243 1.492 . S
C237 C236 1.393 . S
C237 C238 1.392 . S
C237 H248 0.930 . S
C238 C237 1.392 . S
C238 C239 1.386 . S
C239 C238 1.386 . S
C239 C241 1.395 . S
C239 H249 0.930 . S
C240 C236 1.395 . S
C240 C241 1.379 . S
C240 H250 0.930 . S
C241 C239 1.395 . S
C241 C240 1.379 . S
C241 H251 0.930 . S
C242 O220 1.264 . S
C242 O221 1.254 . S
C243 Eu179 2.848 . S
C243 O218 1.257 . S
C243 O223 1.249 . S
C243 C236 1.492 . S
H244 C227 0.930 . S
H245 C228 0.930 . S
H246 C229 0.930 . S
H247 C230 0.930 . S
H248 C237 0.930 . S
H249 C239 0.930 . S
H250 C240 0.930 . S
H251 C241 0.930 . S
Eu252 N283 2.657 . S
Eu252 N290 2.609 . S
Eu252 O296 2.558 . S
Eu252 O297 2.612 . S
Eu252 O299 2.339 . S
Eu252 O300 2.563 . S
Eu252 O301 2.419 . S
Eu252 O303 2.380 1_554 S
Eu252 O304 2.432 . S
Eu252 C316 2.848 . S
C253 C256 1.429 . S
C253 C257 1.411 . S
C253 N260 1.377 1_554 S
C254 C256 1.420 . S
C254 C258 1.423 . S
C254 C266 1.392 . S
C255 C257 1.420 . S
C255 C258 1.351 . S
C255 H278 0.931 . S
C256 C253 1.429 . S
C256 C254 1.420 . S
C256 N264 1.362 . S
C257 C253 1.411 . S
C257 C255 1.420 . S
C257 C262 1.395 1_554 S
C258 C254 1.423 . S
C258 C255 1.351 . S
C258 H270 0.930 . S
C259 C261 1.400 . S
C259 C262 1.386 . S
C259 H271 0.930 . S
N260 C253 1.377 1_556 S
N260 C261 1.321 . S
N260 Eu263 2.609 . S
C261 C259 1.400 . S
C261 N260 1.321 . S
C261 H268 0.930 . S
C262 C257 1.395 1_556 S
C262 C259 1.386 . S
C262 H281 0.930 . S
Eu263 N260 2.609 . S
Eu263 N264 2.657 1_556 S
Eu263 O297 2.380 1_556 S
Eu263 O298 2.432 . S
Eu263 O302 2.558 . S
Eu263 O303 2.612 . S
Eu263 O305 2.339 1_556 S
Eu263 O306 2.563 . S
Eu263 O307 2.419 . S
Eu263 C327 2.848 . S
N264 C256 1.362 . S
N264 Eu263 2.657 1_554 S
N264 C265 1.334 . S
C265 N264 1.334 . S
C265 C267 1.413 . S
C265 H272 0.929 . S
C266 C254 1.392 . S
C266 C267 1.367 . S
C266 H274 0.930 . S
C267 C265 1.413 . S
C267 C266 1.367 . S
C267 H269 0.930 . S
H268 C261 0.930 . S
H269 C267 0.930 . S
H270 C258 0.930 . S
H271 C259 0.930 . S
H272 C265 0.929 . S
H273 C287 0.930 . S
H274 C266 0.930 . S
H275 C293 0.930 . S
H276 C284 0.929 . S
H277 C291 0.930 . S
H278 C255 0.931 . S
H279 C285 0.930 . S
H280 C318 0.930 . S
H281 C262 0.930 . S
H282 C317 0.931 . S
N283 Eu252 2.657 . S
N283 C284 1.334 1_554 S
N283 C288 1.363 . S
C284 H276 0.929 . S
C284 N283 1.334 1_556 S
C284 C287 1.413 . S
C285 H279 0.930 . S
C285 C286 1.392 . S
C285 C287 1.367 . S
C286 C285 1.392 . S
C286 C288 1.402 1_556 S
C286 C318 1.423 . S
C287 H273 0.930 . S
C287 C284 1.413 . S
C287 C285 1.367 . S
C288 N283 1.363 . S
C288 C286 1.402 1_554 S
C288 C292 1.446 . S
H289 C294 0.930 . S
N290 Eu252 2.609 . S
N290 C292 1.377 . S
N290 C293 1.321 . S
C291 H277 0.930 . S
C291 C293 1.400 . S
C291 C294 1.386 . S
C292 C288 1.446 . S
C292 N290 1.377 . S
C292 C295 1.411 . S
C293 H275 0.930 . S
C293 N290 1.321 . S
C293 C291 1.400 . S
C294 H289 0.930 . S
C294 C291 1.386 . S
C294 C295 1.395 . S
C295 C292 1.411 . S
C295 C294 1.395 . S
C295 C317 1.424 . S
O296 Eu252 2.558 . S
O296 C316 1.257 . S
O297 Eu252 2.612 . S
O297 Eu263 2.380 1_554 S
O297 C308 1.276 . S
O298 Eu263 2.432 . S
O298 C315 1.264 1_556 S
O299 Eu252 2.339 . S
O299 C315 1.254 . S
O300 Eu252 2.563 . S
O300 C308 1.235 . S
O301 Eu252 2.419 . S
O301 C316 1.249 . S
O302 Eu263 2.558 . S
O302 C327 1.257 . S
O303 Eu252 2.380 1_556 S
O303 Eu263 2.612 . S
O303 C319 1.276 . S
O304 Eu252 2.432 . S
O304 C326 1.264 . S
O305 Eu263 2.339 1_554 S
O305 C326 1.254 . S
O306 Eu263 2.563 . S
O306 C319 1.235 . S
O307 Eu263 2.419 . S
O307 C327 1.249 . S
C308 O297 1.276 . S
C308 O300 1.235 . S
C309 C311 1.393 . S
C309 C313 1.395 . S
C309 C316 1.492 . S
C310 C311 1.392 . S
C310 C312 1.386 . S
C311 C309 1.393 . S
C311 C310 1.392 . S
C311 H328 0.930 . S
C312 C310 1.386 . S
C312 C314 1.395 . S
C312 H329 0.930 . S
C313 C309 1.395 . S
C313 C314 1.379 . S
C313 H330 0.930 . S
C314 C312 1.395 . S
C314 C313 1.379 . S
C314 H331 0.930 . S
C315 O298 1.264 1_554 S
C315 O299 1.254 . S
C316 Eu252 2.848 . S
C316 O296 1.257 . S
C316 O301 1.249 . S
C316 C309 1.492 . S
C317 H282 0.931 . S
C317 C295 1.424 . S
C317 C318 1.347 1_554 S
C318 H280 0.930 . S
C318 C286 1.423 . S
C318 C317 1.347 1_556 S
C319 O303 1.276 . S
C319 O306 1.235 . S
C320 C321 1.393 . S
C320 C324 1.395 . S
C320 C327 1.492 . S
C321 C320 1.393 . S
C321 C322 1.392 . S
C321 H332 0.930 . S
C322 C321 1.392 . S
C322 C323 1.386 . S
C323 C322 1.386 . S
C323 C325 1.395 . S
C323 H333 0.930 . S
C324 C320 1.395 . S
C324 C325 1.379 . S
C324 H334 0.930 . S
C325 C323 1.395 . S
C325 C324 1.379 . S
C325 H335 0.930 . S
C326 O304 1.264 . S
C326 O305 1.254 . S
C327 Eu263 2.848 . S
C327 O302 1.257 . S
C327 O307 1.249 . S
C327 C320 1.492 . S
H328 C311 0.930 . S
H329 C312 0.930 . S
H330 C313 0.930 . S
H331 C314 0.930 . S
H332 C321 0.930 . S
H333 C323 0.930 . S
H334 C324 0.930 . S
H335 C325 0.930 . S
Eu336 N367 2.657 . S
Eu336 N374 2.609 . S
Eu336 O380 2.558 . S
Eu336 O381 2.612 . S
Eu336 O383 2.339 . S
Eu336 O384 2.563 . S
Eu336 O385 2.419 . S
Eu336 O387 2.380 . S
Eu336 O388 2.432 . S
Eu336 C400 2.848 . S
C337 C340 1.429 . S
C337 C341 1.411 . S
C337 N344 1.377 . S
C338 C340 1.420 . S
C338 C342 1.423 . S
C338 C350 1.392 . S
C339 C341 1.420 . S
C339 C342 1.351 . S
C339 H362 0.931 . S
C340 C337 1.429 . S
C340 C338 1.420 . S
C340 N348 1.362 . S
C341 C337 1.411 . S
C341 C339 1.420 . S
C341 C346 1.395 . S
C342 C338 1.423 . S
C342 C339 1.351 . S
C342 H354 0.930 . S
C343 C345 1.400 . S
C343 C346 1.386 . S
C343 H355 0.930 . S
N344 C337 1.377 . S
N344 C345 1.321 . S
N344 Eu347 2.609 . S
C345 C343 1.400 . S
C345 N344 1.321 . S
C345 H352 0.930 . S
C346 C341 1.395 . S
C346 C343 1.386 . S
C346 H365 0.930 . S
Eu347 N344 2.609 . S
Eu347 N348 2.657 . S
Eu347 O381 2.380 . S
Eu347 O382 2.432 . S
Eu347 O386 2.558 . S
Eu347 O387 2.612 . S
Eu347 O389 2.339 . S
Eu347 O390 2.563 . S
Eu347 O391 2.419 . S
Eu347 C411 2.848 . S
N348 C340 1.362 . S
N348 Eu347 2.657 . S
N348 C349 1.334 . S
C349 N348 1.334 . S
C349 C351 1.413 . S
C349 H356 0.929 . S
C350 C338 1.392 . S
C350 C351 1.367 . S
C350 H358 0.930 . S
C351 C349 1.413 . S
C351 C350 1.367 . S
C351 H353 0.930 . S
H352 C345 0.930 . S
H353 C351 0.930 . S
H354 C342 0.930 . S
H355 C343 0.930 . S
H356 C349 0.929 . S
H357 C371 0.930 . S
H358 C350 0.930 . S
H359 C377 0.930 . S
H360 C368 0.929 . S
H361 C375 0.930 . S
H362 C339 0.931 . S
H363 C369 0.930 . S
H364 C402 0.930 . S
H365 C346 0.930 . S
H366 C401 0.931 . S
N367 Eu336 2.657 . S
N367 C368 1.334 . S
N367 C372 1.362 . S
C368 H360 0.929 . S
C368 N367 1.334 . S
C368 C371 1.413 . S
C369 H363 0.930 . S
C369 C370 1.392 . S
C369 C371 1.367 . S
C370 C369 1.392 . S
C370 C372 1.420 . S
C370 C402 1.423 . S
C371 H357 0.930 . S
C371 C368 1.413 . S
C371 C369 1.367 . S
C372 N367 1.362 . S
C372 C370 1.420 . S
C372 C376 1.429 . S
H373 C378 0.930 . S
N374 Eu336 2.609 . S
N374 C376 1.377 . S
N374 C377 1.321 . S
C375 H361 0.930 . S
C375 C377 1.400 . S
C375 C378 1.386 . S
C376 C372 1.429 . S
C376 N374 1.377 . S
C376 C379 1.411 . S
C377 H359 0.930 . S
C377 N374 1.321 . S
C377 C375 1.400 . S
C378 H373 0.930 . S
C378 C375 1.386 . S
C378 C379 1.395 . S
C379 C376 1.411 . S
C379 C378 1.395 . S
C379 C401 1.420 . S
O380 Eu336 2.558 . S
O380 C400 1.257 . S
O381 Eu336 2.612 . S
O381 Eu347 2.380 . S
O381 C392 1.276 . S
O382 Eu347 2.432 . S
O382 C399 1.264 . S
O383 Eu336 2.339 . S
O383 C399 1.254 . S
O384 Eu336 2.563 . S
O384 C392 1.235 . S
O385 Eu336 2.419 . S
O385 C400 1.249 . S
O386 Eu347 2.558 . S
O386 C411 1.257 . S
O387 Eu336 2.380 . S
O387 Eu347 2.612 . S
O387 C403 1.276 . S
O388 Eu336 2.432 . S
O388 C410 1.264 . S
O389 Eu347 2.339 . S
O389 C410 1.254 . S
O390 Eu347 2.563 . S
O390 C403 1.235 . S
O391 Eu347 2.419 . S
O391 C411 1.249 . S
C392 O381 1.276 . S
C392 O384 1.235 . S
C393 C395 1.393 . S
C393 C397 1.395 . S
C393 C400 1.492 . S
C394 C395 1.392 . S
C394 C396 1.386 . S
C395 C393 1.393 . S
C395 C394 1.392 . S
C395 H412 0.930 . S
C396 C394 1.386 . S
C396 C398 1.395 . S
C396 H413 0.930 . S
C397 C393 1.395 . S
C397 C398 1.379 . S
C397 H414 0.930 . S
C398 C396 1.395 . S
C398 C397 1.379 . S
C398 H415 0.930 . S
C399 O382 1.264 . S
C399 O383 1.254 . S
C400 Eu336 2.848 . S
C400 O380 1.257 . S
C400 O385 1.249 . S
C400 C393 1.492 . S
C401 H366 0.931 . S
C401 C379 1.420 . S
C401 C402 1.351 . S
C402 H364 0.930 . S
C402 C370 1.423 . S
C402 C401 1.351 . S
C403 O387 1.276 . S
C403 O390 1.235 . S
C404 C405 1.393 . S
C404 C408 1.395 . S
C404 C411 1.492 . S
C405 C404 1.393 . S
C405 C406 1.392 . S
C405 H416 0.930 . S
C406 C405 1.392 . S
C406 C407 1.386 . S
C407 C406 1.386 . S
C407 C409 1.395 . S
C407 H417 0.930 . S
C408 C404 1.395 . S
C408 C409 1.379 . S
C408 H418 0.930 . S
C409 C407 1.395 . S
C409 C408 1.379 . S
C409 H419 0.930 . S
C410 O388 1.264 . S
C410 O389 1.254 . S
C411 Eu347 2.848 . S
C411 O386 1.257 . S
C411 O391 1.249 . S
C411 C404 1.492 . S
H412 C395 0.930 . S
H413 C396 0.930 . S
H414 C397 0.930 . S
H415 C398 0.930 . S
H416 C405 0.930 . S
H417 C407 0.930 . S
H418 C408 0.930 . S
H419 C409 0.930 . S
Eu420 N451 2.657 . S
Eu420 N458 2.609 . S
Eu420 O464 2.558 . S
Eu420 O465 2.612 . S
Eu420 O467 2.339 . S
Eu420 O468 2.563 . S
Eu420 O469 2.419 . S
Eu420 O471 2.380 . S
Eu420 O472 2.432 . S
Eu420 C484 2.848 . S
C421 C424 1.429 . S
C421 C425 1.411 . S
C421 N428 1.377 . S
C422 C424 1.420 . S
C422 C426 1.423 . S
C422 C434 1.392 . S
C423 C425 1.420 . S
C423 C426 1.351 . S
C423 H446 0.931 . S
C424 C421 1.429 . S
C424 C422 1.420 . S
C424 N432 1.362 . S
C425 C421 1.411 . S
C425 C423 1.420 . S
C425 C430 1.395 . S
C426 C422 1.423 . S
C426 C423 1.351 . S
C426 H438 0.930 . S
C427 C429 1.400 . S
C427 C430 1.386 . S
C427 H439 0.930 . S
N428 C421 1.377 . S
N428 C429 1.321 . S
N428 Eu431 2.609 . S
C429 C427 1.400 . S
C429 N428 1.321 . S
C429 H436 0.930 . S
C430 C425 1.395 . S
C430 C427 1.386 . S
C430 H449 0.930 . S
Eu431 N428 2.609 . S
Eu431 N432 2.657 . S
Eu431 O465 2.380 . S
Eu431 O466 2.432 . S
Eu431 O470 2.558 . S
Eu431 O471 2.612 . S
Eu431 O473 2.339 . S
Eu431 O474 2.563 . S
Eu431 O475 2.419 . S
Eu431 C495 2.848 . S
N432 C424 1.362 . S
N432 Eu431 2.657 . S
N432 C433 1.334 . S
C433 N432 1.334 . S
C433 C435 1.413 . S
C433 H440 0.929 . S
C434 C422 1.392 . S
C434 C435 1.367 . S
C434 H442 0.930 . S
C435 C433 1.413 . S
C435 C434 1.367 . S
C435 H437 0.930 . S
H436 C429 0.930 . S
H437 C435 0.930 . S
H438 C426 0.930 . S
H439 C427 0.930 . S
H440 C433 0.929 . S
H441 C455 0.930 . S
H442 C434 0.930 . S
H443 C461 0.930 . S
H444 C452 0.929 . S
H445 C459 0.930 . S
H446 C423 0.931 . S
H447 C453 0.930 . S
H448 C486 0.930 . S
H449 C430 0.930 . S
H450 C485 0.931 . S
N451 Eu420 2.657 . S
N451 C452 1.334 . S
N451 C456 1.362 . S
C452 H444 0.929 . S
C452 N451 1.334 . S
C452 C455 1.413 . S
C453 H447 0.930 . S
C453 C454 1.392 . S
C453 C455 1.367 . S
C454 C453 1.392 . S
C454 C456 1.420 . S
C454 C486 1.423 . S
C455 H441 0.930 . S
C455 C452 1.413 . S
C455 C453 1.367 . S
C456 N451 1.362 . S
C456 C454 1.420 . S
C456 C460 1.429 . S
H457 C462 0.930 . S
N458 Eu420 2.609 . S
N458 C460 1.377 . S
N458 C461 1.321 . S
C459 H445 0.930 . S
C459 C461 1.400 . S
C459 C462 1.386 . S
C460 C456 1.429 . S
C460 N458 1.377 . S
C460 C463 1.411 . S
C461 H443 0.930 . S
C461 N458 1.321 . S
C461 C459 1.400 . S
C462 H457 0.930 . S
C462 C459 1.386 . S
C462 C463 1.395 . S
C463 C460 1.411 . S
C463 C462 1.395 . S
C463 C485 1.420 . S
O464 Eu420 2.558 . S
O464 C484 1.257 . S
O465 Eu420 2.612 . S
O465 Eu431 2.380 . S
O465 C476 1.276 . S
O466 Eu431 2.432 . S
O466 C483 1.264 . S
O467 Eu420 2.339 . S
O467 C483 1.254 . S
O468 Eu420 2.563 . S
O468 C476 1.235 . S
O469 Eu420 2.419 . S
O469 C484 1.249 . S
O470 Eu431 2.558 . S
O470 C495 1.257 . S
O471 Eu420 2.380 . S
O471 Eu431 2.612 . S
O471 C487 1.276 . S
O472 Eu420 2.432 . S
O472 C494 1.264 . S
O473 Eu431 2.339 . S
O473 C494 1.254 . S
O474 Eu431 2.563 . S
O474 C487 1.235 . S
O475 Eu431 2.419 . S
O475 C495 1.249 . S
C476 O465 1.276 . S
C476 O468 1.235 . S
C477 C479 1.393 . S
C477 C481 1.395 . S
C477 C484 1.492 . S
C478 C479 1.392 . S
C478 C480 1.386 . S
C479 C477 1.393 . S
C479 C478 1.392 . S
C479 H496 0.930 . S
C480 C478 1.386 . S
C480 C482 1.395 . S
C480 H497 0.930 . S
C481 C477 1.395 . S
C481 C482 1.379 . S
C481 H498 0.930 . S
C482 C480 1.395 . S
C482 C481 1.379 . S
C482 H499 0.930 . S
C483 O466 1.264 . S
C483 O467 1.254 . S
C484 Eu420 2.848 . S
C484 O464 1.257 . S
C484 O469 1.249 . S
C484 C477 1.492 . S
C485 H450 0.931 . S
C485 C463 1.420 . S
C485 C486 1.351 . S
C486 H448 0.930 . S
C486 C454 1.423 . S
C486 C485 1.351 . S
C487 O471 1.276 . S
C487 O474 1.235 . S
C488 C489 1.393 . S
C488 C492 1.395 . S
C488 C495 1.492 . S
C489 C488 1.393 . S
C489 C490 1.392 . S
C489 H500 0.930 . S
C490 C489 1.392 . S
C490 C491 1.386 . S
C491 C490 1.386 . S
C491 C493 1.395 . S
C491 H501 0.930 . S
C492 C488 1.395 . S
C492 C493 1.379 . S
C492 H502 0.930 . S
C493 C491 1.395 . S
C493 C492 1.379 . S
C493 H503 0.930 . S
C494 O472 1.264 . S
C494 O473 1.254 . S
C495 Eu431 2.848 . S
C495 O470 1.257 . S
C495 O475 1.249 . S
C495 C488 1.492 . S
H496 C479 0.930 . S
H497 C480 0.930 . S
H498 C481 0.930 . S
H499 C482 0.930 . S
H500 C489 0.930 . S
H501 C491 0.930 . S
H502 C492 0.930 . S
H503 C493 0.930 . S
H504 C522 0.951 . S
H505 C524 0.951 . S
H506 C526 0.950 . S
H507 C527 0.950 . S
H508 C529 0.950 . S
H509 C532 0.950 . S
H510 C533 0.950 . S
H511 C535 0.950 . S
H512 C536 0.950 . S
H513 C537 0.951 . S
H514 C539 0.951 . S
H515 C541 0.950 . S
H516 C542 0.950 . S
H517 C544 0.950 . S
H518 C547 0.950 . S
H519 C548 0.950 . S
H520 C550 0.950 . S
H521 C551 0.950 . S
C522 H504 0.951 . S
C522 C523 1.366 . S
C522 C524 1.388 . S
C523 C522 1.366 . S
C523 C527 1.385 . S
C524 H505 0.951 . S
C524 C522 1.388 . S
C524 C525 1.366 . S
C525 C524 1.366 . S
C525 C526 1.414 . S
C525 C528 1.499 . S
C526 H506 0.950 . S
C526 C525 1.414 . S
C526 C527 1.374 . S
C527 H507 0.950 . S
C527 C523 1.385 . S
C527 C526 1.374 . S
C528 C525 1.499 . S
C528 C529 1.373 . S
C528 C530 1.389 . S
C529 H508 0.950 . S
C529 C528 1.373 . S
C529 C545 1.377 . S
C530 C528 1.389 . S
C530 C531 1.524 . S
C530 C544 1.377 . S
C531 C530 1.524 . S
C531 C532 1.397 . S
C531 C536 1.363 . S
C532 H509 0.950 . S
C532 C531 1.397 . S
C532 C533 1.334 . S
C533 H510 0.950 . S
C533 C532 1.334 . S
C533 C534 1.287 . S
C534 C533 1.287 . S
C534 C535 1.524 . S
C534 H553 0.913 . S
C535 H511 0.950 . S
C535 C534 1.524 . S
C535 C536 1.415 . S
C536 H512 0.950 . S
C536 C531 1.363 . S
C536 C535 1.415 . S
C537 H513 0.951 . S
C537 C538 1.366 . S
C537 C539 1.388 . S
C538 C537 1.366 . S
C538 C542 1.385 . S
C539 H514 0.951 . S
C539 C537 1.388 . S
C539 C540 1.366 . S
C540 C539 1.366 . S
C540 C541 1.414 . S
C540 C543 1.499 . S
C541 H515 0.950 . S
C541 C540 1.414 . S
C541 C542 1.374 . S
C542 H516 0.950 . S
C542 C538 1.385 . S
C542 C541 1.374 . S
C543 C540 1.499 . S
C543 C544 1.373 . S
C543 C545 1.389 . S
C544 H517 0.950 . S
C544 C530 1.377 . S
C544 C543 1.373 . S
C545 C529 1.377 . S
C545 C543 1.389 . S
C545 C546 1.524 . S
C546 C545 1.524 . S
C546 C547 1.397 . S
C546 C551 1.363 . S
C547 H518 0.950 . S
C547 C546 1.397 . S
C547 C548 1.334 . S
C548 H519 0.950 . S
C548 C547 1.334 . S
C548 C549 1.287 . S
C549 C548 1.287 . S
C549 C550 1.524 . S
C549 H552 0.999 . S
C550 H520 0.950 . S
C550 C549 1.524 . S
C550 C551 1.415 . S
C551 H521 0.950 . S
C551 C546 1.363 . S
C551 C550 1.415 . S
H552 C549 0.999 . S
H553 C534 0.913 . S
H554 C572 0.951 . S
H555 C574 0.951 . S
H556 C576 0.950 . S
H557 C577 0.950 . S
H558 C579 0.950 . S
H559 C582 0.950 . S
H560 C583 0.950 . S
H561 C585 0.950 . S
H562 C586 0.950 . S
H563 C587 0.951 . S
H564 C589 0.951 . S
H565 C591 0.950 . S
H566 C592 0.950 . S
H567 C594 0.950 . S
H568 C597 0.950 . S
H569 C598 0.950 . S
H570 C600 0.950 . S
H571 C601 0.950 . S
C572 H554 0.951 . S
C572 C573 1.366 . S
C572 C574 1.388 . S
C573 C572 1.366 . S
C573 C577 1.385 . S
C574 H555 0.951 . S
C574 C572 1.388 . S
C574 C575 1.366 . S
C575 C574 1.366 . S
C575 C576 1.414 . S
C575 C578 1.499 . S
C576 H556 0.950 . S
C576 C575 1.414 . S
C576 C577 1.374 . S
C577 H557 0.950 . S
C577 C573 1.385 . S
C577 C576 1.374 . S
C578 C575 1.499 . S
C578 C579 1.373 . S
C578 C580 1.389 . S
C579 H558 0.950 . S
C579 C578 1.373 . S
C579 C595 1.377 . S
C580 C578 1.389 . S
C580 C581 1.524 . S
C580 C594 1.377 . S
C581 C580 1.524 . S
C581 C582 1.397 . S
C581 C586 1.363 . S
C582 H559 0.950 . S
C582 C581 1.397 . S
C582 C583 1.334 . S
C583 H560 0.950 . S
C583 C582 1.334 . S
C583 C584 1.287 . S
C584 C583 1.287 . S
C584 C585 1.524 . S
C584 H603 0.913 . S
C585 H561 0.950 . S
C585 C584 1.524 . S
C585 C586 1.415 . S
C586 H562 0.950 . S
C586 C581 1.363 . S
C586 C585 1.415 . S
C587 H563 0.951 . S
C587 C588 1.366 . S
C587 C589 1.388 . S
C588 C587 1.366 . S
C588 C592 1.385 . S
C589 H564 0.951 . S
C589 C587 1.388 . S
C589 C590 1.366 . S
C590 C589 1.366 . S
C590 C591 1.414 . S
C590 C593 1.499 . S
C591 H565 0.950 . S
C591 C590 1.414 . S
C591 C592 1.374 . S
C592 H566 0.950 . S
C592 C588 1.385 . S
C592 C591 1.374 . S
C593 C590 1.499 . S
C593 C594 1.373 . S
C593 C595 1.389 . S
C594 H567 0.950 . S
C594 C580 1.377 . S
C594 C593 1.373 . S
C595 C579 1.377 . S
C595 C593 1.389 . S
C595 C596 1.524 . S
C596 C595 1.524 . S
C596 C597 1.397 . S
C596 C601 1.363 . S
C597 H568 0.950 . S
C597 C596 1.397 . S
C597 C598 1.334 . S
C598 H569 0.950 . S
C598 C597 1.334 . S
C598 C599 1.287 . S
C599 C598 1.287 . S
C599 C600 1.524 . S
C599 H602 0.999 . S
C600 H570 0.950 . S
C600 C599 1.524 . S
C600 C601 1.415 . S
C601 H571 0.950 . S
C601 C596 1.363 . S
C601 C600 1.415 . S
H602 C599 0.999 . S
H603 C584 0.913 . S
H604 C622 0.951 . S
H605 C624 0.951 . S
H606 C626 0.950 . S
H607 C627 0.950 . S
H608 C629 0.950 . S
H609 C632 0.950 . S
H610 C633 0.950 . S
H611 C635 0.950 . S
H612 C636 0.950 . S
H613 C637 0.951 . S
H614 C639 0.951 . S
H615 C641 0.950 . S
H616 C642 0.950 . S
H617 C644 0.950 . S
H618 C647 0.950 . S
H619 C648 0.950 . S
H620 C650 0.950 . S
H621 C651 0.950 . S
C622 H604 0.951 . S
C622 C623 1.366 . S
C622 C624 1.388 . S
C623 C622 1.366 . S
C623 C627 1.385 . S
C624 H605 0.951 . S
C624 C622 1.388 . S
C624 C625 1.366 . S
C625 C624 1.366 . S
C625 C626 1.414 . S
C625 C628 1.499 . S
C626 H606 0.950 . S
C626 C625 1.414 . S
C626 C627 1.374 . S
C627 H607 0.950 . S
C627 C623 1.385 . S
C627 C626 1.374 . S
C628 C625 1.499 . S
C628 C629 1.373 . S
C628 C630 1.389 . S
C629 H608 0.950 . S
C629 C628 1.373 . S
C629 C645 1.377 . S
C630 C628 1.389 . S
C630 C631 1.524 . S
C630 C644 1.377 . S
C631 C630 1.524 . S
C631 C632 1.397 . S
C631 C636 1.363 . S
C632 H609 0.950 . S
C632 C631 1.397 . S
C632 C633 1.334 . S
C633 H610 0.950 . S
C633 C632 1.334 . S
C633 C634 1.287 . S
C634 C633 1.287 . S
C634 C635 1.524 . S
C634 H653 0.913 . S
C635 H611 0.950 . S
C635 C634 1.524 . S
C635 C636 1.415 . S
C636 H612 0.950 . S
C636 C631 1.363 . S
C636 C635 1.415 . S
C637 H613 0.951 . S
C637 C638 1.366 . S
C637 C639 1.388 . S
C638 C637 1.366 . S
C638 C642 1.385 . S
C639 H614 0.951 . S
C639 C637 1.388 . S
C639 C640 1.366 . S
C640 C639 1.366 . S
C640 C641 1.414 . S
C640 C643 1.499 . S
C641 H615 0.950 . S
C641 C640 1.414 . S
C641 C642 1.374 . S
C642 H616 0.950 . S
C642 C638 1.385 . S
C642 C641 1.374 . S
C643 C640 1.499 . S
C643 C644 1.373 . S
C643 C645 1.389 . S
C644 H617 0.950 . S
C644 C630 1.377 . S
C644 C643 1.373 . S
C645 C629 1.377 . S
C645 C643 1.389 . S
C645 C646 1.524 . S
C646 C645 1.524 . S
C646 C647 1.397 . S
C646 C651 1.363 . S
C647 H618 0.950 . S
C647 C646 1.397 . S
C647 C648 1.334 . S
C648 H619 0.950 . S
C648 C647 1.334 . S
C648 C649 1.287 . S
C649 C648 1.287 . S
C649 C650 1.524 . S
C649 H652 0.999 . S
C650 H620 0.950 . S
C650 C649 1.524 . S
C650 C651 1.415 . S
C651 H621 0.950 . S
C651 C646 1.363 . S
C651 C650 1.415 . S
H652 C649 0.999 . S
H653 C634 0.913 . S
H654 C672 0.951 . S
H655 C674 0.951 . S
H656 C676 0.950 . S
H657 C677 0.950 . S
H658 C679 0.950 . S
H659 C682 0.950 . S
H660 C683 0.950 . S
H661 C685 0.950 . S
H662 C686 0.950 . S
H663 C687 0.951 . S
H664 C689 0.951 . S
H665 C691 0.950 . S
H666 C692 0.950 . S
H667 C694 0.950 . S
H668 C697 0.950 . S
H669 C698 0.950 . S
H670 C700 0.950 . S
H671 C701 0.950 . S
C672 H654 0.951 . S
C672 C673 1.366 . S
C672 C674 1.388 . S
C673 C672 1.366 . S
C673 C677 1.385 . S
C674 H655 0.951 . S
C674 C672 1.388 . S
C674 C675 1.366 . S
C675 C674 1.366 . S
C675 C676 1.414 . S
C675 C678 1.499 . S
C676 H656 0.950 . S
C676 C675 1.414 . S
C676 C677 1.374 . S
C677 H657 0.950 . S
C677 C673 1.385 . S
C677 C676 1.374 . S
C678 C675 1.499 . S
C678 C679 1.373 . S
C678 C680 1.389 . S
C679 H658 0.950 . S
C679 C678 1.373 . S
C679 C695 1.377 . S
C680 C678 1.389 . S
C680 C681 1.524 . S
C680 C694 1.377 . S
C681 C680 1.524 . S
C681 C682 1.397 . S
C681 C686 1.363 . S
C682 H659 0.950 . S
C682 C681 1.397 . S
C682 C683 1.334 . S
C683 H660 0.950 . S
C683 C682 1.334 . S
C683 C684 1.287 . S
C684 C683 1.287 . S
C684 C685 1.524 . S
C684 H703 0.913 . S
C685 H661 0.950 . S
C685 C684 1.524 . S
C685 C686 1.415 . S
C686 H662 0.950 . S
C686 C681 1.363 . S
C686 C685 1.415 . S
C687 H663 0.951 . S
C687 C688 1.366 . S
C687 C689 1.388 . S
C688 C687 1.366 . S
C688 C692 1.385 . S
C689 H664 0.951 . S
C689 C687 1.388 . S
C689 C690 1.366 . S
C690 C689 1.366 . S
C690 C691 1.414 . S
C690 C693 1.499 . S
C691 H665 0.950 . S
C691 C690 1.414 . S
C691 C692 1.374 . S
C692 H666 0.950 . S
C692 C688 1.385 . S
C692 C691 1.374 . S
C693 C690 1.499 . S
C693 C694 1.373 . S
C693 C695 1.389 . S
C694 H667 0.950 . S
C694 C680 1.377 . S
C694 C693 1.373 . S
C695 C679 1.377 . S
C695 C693 1.389 . S
C695 C696 1.524 . S
C696 C695 1.524 . S
C696 C697 1.397 . S
C696 C701 1.363 . S
C697 H668 0.950 . S
C697 C696 1.397 . S
C697 C698 1.334 . S
C698 H669 0.950 . S
C698 C697 1.334 . S
C698 C699 1.287 . S
C699 C698 1.287 . S
C699 C700 1.524 . S
C699 H702 0.999 . S
C700 H670 0.950 . S
C700 C699 1.524 . S
C700 C701 1.415 . S
C701 H671 0.950 . S
C701 C696 1.363 . S
C701 C700 1.415 . S
H702 C699 0.999 . S
H703 C684 0.913 . S
H704 C722 0.951 . S
H705 C724 0.951 . S
H706 C726 0.950 . S
H707 C727 0.950 . S
H708 C729 0.950 . S
H709 C732 0.950 . S
H710 C733 0.950 . S
H711 C735 0.950 . S
H712 C736 0.950 . S
H713 C737 0.951 . S
H714 C739 0.951 . S
H715 C741 0.950 . S
H716 C742 0.950 . S
H717 C744 0.950 . S
H718 C747 0.950 . S
H719 C748 0.950 . S
H720 C750 0.950 . S
H721 C751 0.950 . S
C722 H704 0.951 . S
C722 C723 1.366 . S
C722 C724 1.388 . S
C723 C722 1.366 . S
C723 C727 1.385 . S
C724 H705 0.951 . S
C724 C722 1.388 . S
C724 C725 1.366 . S
C725 C724 1.366 . S
C725 C726 1.414 . S
C725 C728 1.499 . S
C726 H706 0.950 . S
C726 C725 1.414 . S
C726 C727 1.374 . S
C727 H707 0.950 . S
C727 C723 1.385 . S
C727 C726 1.374 . S
C728 C725 1.499 . S
C728 C729 1.373 . S
C728 C730 1.389 . S
C729 H708 0.950 . S
C729 C728 1.373 . S
C729 C745 1.377 . S
C730 C728 1.389 . S
C730 C731 1.524 . S
C730 C744 1.377 . S
C731 C730 1.524 . S
C731 C732 1.397 . S
C731 C736 1.363 . S
C732 H709 0.950 . S
C732 C731 1.397 . S
C732 C733 1.334 . S
C733 H710 0.950 . S
C733 C732 1.334 . S
C733 C734 1.287 . S
C734 C733 1.287 . S
C734 C735 1.524 . S
C734 H753 0.913 . S
C735 H711 0.950 . S
C735 C734 1.524 . S
C735 C736 1.415 . S
C736 H712 0.950 . S
C736 C731 1.363 . S
C736 C735 1.415 . S
C737 H713 0.951 . S
C737 C738 1.366 . S
C737 C739 1.388 . S
C738 C737 1.366 . S
C738 C742 1.385 . S
C739 H714 0.951 . S
C739 C737 1.388 . S
C739 C740 1.366 . S
C740 C739 1.366 . S
C740 C741 1.414 . S
C740 C743 1.499 . S
C741 H715 0.950 . S
C741 C740 1.414 . S
C741 C742 1.374 . S
C742 H716 0.950 . S
C742 C738 1.385 . S
C742 C741 1.374 . S
C743 C740 1.499 . S
C743 C744 1.373 . S
C743 C745 1.389 . S
C744 H717 0.950 . S
C744 C730 1.377 . S
C744 C743 1.373 . S
C745 C729 1.377 . S
C745 C743 1.389 . S
C745 C746 1.524 . S
C746 C745 1.524 . S
C746 C747 1.397 . S
C746 C751 1.363 . S
C747 H718 0.950 . S
C747 C746 1.397 . S
C747 C748 1.334 . S
C748 H719 0.950 . S
C748 C747 1.334 . S
C748 C749 1.287 . S
C749 C748 1.287 . S
C749 C750 1.524 . S
C749 H752 0.999 . S
C750 H720 0.950 . S
C750 C749 1.524 . S
C750 C751 1.415 . S
C751 H721 0.950 . S
C751 C746 1.363 . S
C751 C750 1.415 . S
H752 C749 0.999 . S
H753 C734 0.913 . S
H754 C772 0.951 . S
H755 C774 0.951 . S
H756 C776 0.950 . S
H757 C777 0.950 . S
H758 C779 0.950 . S
H759 C782 0.950 . S
H760 C783 0.950 . S
H761 C785 0.950 . S
H762 C786 0.950 . S
H763 C787 0.951 . S
H764 C789 0.951 . S
H765 C791 0.950 . S
H766 C792 0.950 . S
H767 C794 0.950 . S
H768 C797 0.950 . S
H769 C798 0.950 . S
H770 C800 0.950 . S
H771 C801 0.950 . S
C772 H754 0.951 . S
C772 C773 1.366 . S
C772 C774 1.388 . S
C773 C772 1.366 . S
C773 C777 1.385 . S
C774 H755 0.951 . S
C774 C772 1.388 . S
C774 C775 1.366 . S
C775 C774 1.366 . S
C775 C776 1.414 . S
C775 C778 1.499 . S
C776 H756 0.950 . S
C776 C775 1.414 . S
C776 C777 1.374 . S
C777 H757 0.950 . S
C777 C773 1.385 . S
C777 C776 1.374 . S
C778 C775 1.499 . S
C778 C779 1.373 . S
C778 C780 1.389 . S
C779 H758 0.950 . S
C779 C778 1.373 . S
C779 C795 1.377 . S
C780 C778 1.389 . S
C780 C781 1.524 . S
C780 C794 1.377 . S
C781 C780 1.524 . S
C781 C782 1.397 . S
C781 C786 1.363 . S
C782 H759 0.950 . S
C782 C781 1.397 . S
C782 C783 1.334 . S
C783 H760 0.950 . S
C783 C782 1.334 . S
C783 C784 1.287 . S
C784 C783 1.287 . S
C784 C785 1.524 . S
C784 H803 0.913 . S
C785 H761 0.950 . S
C785 C784 1.524 . S
C785 C786 1.415 . S
C786 H762 0.950 . S
C786 C781 1.363 . S
C786 C785 1.415 . S
C787 H763 0.951 . S
C787 C788 1.366 . S
C787 C789 1.388 . S
C788 C787 1.366 . S
C788 C792 1.385 . S
C789 H764 0.951 . S
C789 C787 1.388 . S
C789 C790 1.366 . S
C790 C789 1.366 . S
C790 C791 1.414 . S
C790 C793 1.499 . S
C791 H765 0.950 . S
C791 C790 1.414 . S
C791 C792 1.374 . S
C792 H766 0.950 . S
C792 C788 1.385 . S
C792 C791 1.374 . S
C793 C790 1.499 . S
C793 C794 1.373 . S
C793 C795 1.389 . S
C794 H767 0.950 . S
C794 C780 1.377 . S
C794 C793 1.373 . S
C795 C779 1.377 . S
C795 C793 1.389 . S
C795 C796 1.524 . S
C796 C795 1.524 . S
C796 C797 1.397 . S
C796 C801 1.363 . S
C797 H768 0.950 . S
C797 C796 1.397 . S
C797 C798 1.334 . S
C798 H769 0.950 . S
C798 C797 1.334 . S
C798 C799 1.287 . S
C799 C798 1.287 . S
C799 C800 1.524 . S
C799 H802 0.999 . S
C800 H770 0.950 . S
C800 C799 1.524 . S
C800 C801 1.415 . S
C801 H771 0.950 . S
C801 C796 1.363 . S
C801 C800 1.415 . S
H802 C799 0.999 . S
H803 C784 0.913 . S
H804 C822 0.951 . S
H805 C824 0.951 . S
H806 C826 0.950 . S
H807 C827 0.950 . S
H808 C829 0.950 . S
H809 C832 0.950 . S
H810 C833 0.950 . S
H811 C835 0.950 . S
H812 C836 0.950 . S
H813 C837 0.951 . S
H814 C839 0.951 . S
H815 C841 0.950 . S
H816 C842 0.950 . S
H817 C844 0.950 . S
H818 C847 0.950 . S
H819 C848 0.950 . S
H820 C850 0.950 . S
H821 C851 0.950 . S
C822 H804 0.951 . S
C822 C823 1.366 1_556 S
C822 C824 1.388 . S
C823 C822 1.366 1_554 S
C823 C827 1.385 . S
C824 H805 0.951 . S
C824 C822 1.388 . S
C824 C825 1.366 1_556 S
C825 C824 1.366 1_554 S
C825 C826 1.414 . S
C825 C828 1.499 . S
C826 H806 0.950 . S
C826 C825 1.414 . S
C826 C827 1.374 . S
C827 H807 0.950 . S
C827 C823 1.385 . S
C827 C826 1.374 . S
C828 C825 1.499 . S
C828 C829 1.373 . S
C828 C830 1.389 . S
C829 H808 0.950 . S
C829 C828 1.373 . S
C829 C845 1.377 . S
C830 C828 1.389 . S
C830 C831 1.524 . S
C830 C844 1.377 . S
C831 C830 1.524 . S
C831 C832 1.397 . S
C831 C836 1.363 1_554 S
C832 H809 0.950 . S
C832 C831 1.397 . S
C832 C833 1.334 . S
C833 H810 0.950 . S
C833 C832 1.334 . S
C833 C834 1.287 . S
C834 C833 1.287 . S
C834 C835 1.524 1_554 S
C834 H853 0.913 . S
C835 H811 0.950 . S
C835 C834 1.524 1_556 S
C835 C836 1.415 . S
C836 H812 0.950 . S
C836 C831 1.363 1_556 S
C836 C835 1.415 . S
C837 H813 0.951 . S
C837 C838 1.366 . S
C837 C839 1.388 . S
C838 C837 1.366 . S
C838 C842 1.385 1_554 S
C839 H814 0.951 . S
C839 C837 1.388 . S
C839 C840 1.366 . S
C840 C839 1.366 . S
C840 C841 1.414 1_554 S
C840 C843 1.499 . S
C841 H815 0.950 . S
C841 C840 1.414 1_556 S
C841 C842 1.374 . S
C842 H816 0.950 . S
C842 C838 1.385 1_556 S
C842 C841 1.374 . S
C843 C840 1.499 . S
C843 C844 1.373 . S
C843 C845 1.389 . S
C844 H817 0.950 . S
C844 C830 1.377 . S
C844 C843 1.373 . S
C845 C829 1.377 . S
C845 C843 1.389 . S
C845 C846 1.524 . S
C846 C845 1.524 . S
C846 C847 1.397 1_554 S
C846 C851 1.363 . S
C847 H818 0.950 . S
C847 C846 1.397 1_556 S
C847 C848 1.334 . S
C848 H819 0.950 . S
C848 C847 1.334 . S
C848 C849 1.287 1_556 S
C849 C848 1.287 1_554 S
C849 C850 1.524 . S
C849 H852 0.999 . S
C850 H820 0.950 . S
C850 C849 1.524 . S
C850 C851 1.415 . S
C851 H821 0.950 . S
C851 C846 1.363 . S
C851 C850 1.415 . S
H852 C849 0.999 . S
H853 C834 0.913 . S
H854 C872 0.951 . S
H855 C874 0.951 . S
H856 C876 0.950 . S
H857 C877 0.950 . S
H858 C879 0.948 . S
H859 C882 0.950 . S
H860 C883 0.950 . S
H861 C885 0.950 . S
H862 C886 0.950 . S
H863 C887 0.951 . S
H864 C889 0.951 . S
H865 C891 0.950 . S
H866 C892 0.950 . S
H867 C894 0.948 . S
H868 C897 0.950 . S
H869 C898 0.950 . S
H870 C900 0.950 . S
H871 C901 0.950 . S
C872 H854 0.951 . S
C872 C873 1.366 . S
C872 C874 1.388 . S
C873 C872 1.366 . S
C873 C877 1.385 . S
C874 H855 0.951 . S
C874 C872 1.388 . S
C874 C875 1.366 . S
C875 C874 1.366 . S
C875 C876 1.414 . S
C875 C878 1.499 . S
C876 H856 0.950 . S
C876 C875 1.414 . S
C876 C877 1.374 . S
C877 H857 0.950 . S
C877 C873 1.385 . S
C877 C876 1.374 . S
C878 C875 1.499 . S
C878 C879 1.376 . S
C878 C880 1.389 . S
C879 H858 0.948 . S
C879 C878 1.376 . S
C879 C895 1.376 1_455 S
C880 C878 1.389 . S
C880 C881 1.524 . S
C880 C894 1.376 1_455 S
C881 C880 1.524 . S
C881 C882 1.397 . S
C881 C886 1.363 . S
C882 H859 0.950 . S
C882 C881 1.397 . S
C882 C883 1.334 . S
C883 H860 0.950 . S
C883 C882 1.334 . S
C883 C884 1.287 . S
C884 C883 1.287 . S
C884 C885 1.524 . S
C884 H903 0.913 . S
C885 H861 0.950 . S
C885 C884 1.524 . S
C885 C886 1.415 . S
C886 H862 0.950 . S
C886 C881 1.363 . S
C886 C885 1.415 . S
C887 H863 0.951 . S
C887 C888 1.366 . S
C887 C889 1.388 . S
C888 C887 1.366 . S
C888 C892 1.385 . S
C889 H864 0.951 . S
C889 C887 1.388 . S
C889 C890 1.366 . S
C890 C889 1.366 . S
C890 C891 1.414 . S
C890 C893 1.499 . S
C891 H865 0.950 . S
C891 C890 1.414 . S
C891 C892 1.374 . S
C892 H866 0.950 . S
C892 C888 1.385 . S
C892 C891 1.374 . S
C893 C890 1.499 . S
C893 C894 1.376 . S
C893 C895 1.389 . S
C894 H867 0.948 . S
C894 C880 1.376 1_655 S
C894 C893 1.376 . S
C895 C879 1.376 1_655 S
C895 C893 1.389 . S
C895 C896 1.524 . S
C896 C895 1.524 . S
C896 C897 1.397 . S
C896 C901 1.363 . S
C897 H868 0.950 . S
C897 C896 1.397 . S
C897 C898 1.334 . S
C898 H869 0.950 . S
C898 C897 1.334 . S
C898 C899 1.287 . S
C899 C898 1.287 . S
C899 C900 1.524 . S
C899 H902 0.999 . S
C900 H870 0.950 . S
C900 C899 1.524 . S
C900 C901 1.415 . S
C901 H871 0.950 . S
C901 C896 1.363 . S
C901 C900 1.415 . S
H902 C899 0.999 . S
H903 C884 0.913 . S
H904 C922 0.951 . S
H905 C924 0.951 . S
H906 C926 0.950 . S
H907 C927 0.950 . S
H908 C929 0.950 . S
H909 C932 0.950 . S
H910 C933 0.950 . S
H911 C935 0.950 . S
H912 C936 0.950 . S
H913 C937 0.951 . S
H914 C939 0.951 . S
H915 C941 0.950 . S
H916 C942 0.950 . S
H917 C944 0.950 . S
H918 C947 0.950 . S
H919 C948 0.950 . S
H920 C950 0.950 . S
H921 C951 0.950 . S
C922 H904 0.951 . S
C922 C923 1.366 . S
C922 C924 1.388 . S
C923 C922 1.366 . S
C923 C927 1.385 . S
C924 H905 0.951 . S
C924 C922 1.388 . S
C924 C925 1.366 . S
C925 C924 1.366 . S
C925 C926 1.414 . S
C925 C928 1.499 . S
C926 H906 0.950 . S
C926 C925 1.414 . S
C926 C927 1.374 . S
C927 H907 0.950 . S
C927 C923 1.385 . S
C927 C926 1.374 . S
C928 C925 1.499 . S
C928 C929 1.373 1_545 S
C928 C930 1.389 . S
C929 H908 0.950 . S
C929 C928 1.373 1_565 S
C929 C945 1.377 . S
C930 C928 1.389 . S
C930 C931 1.524 . S
C930 C944 1.377 . S
C931 C930 1.524 . S
C931 C932 1.397 . S
C931 C936 1.363 . S
C932 H909 0.950 . S
C932 C931 1.397 . S
C932 C933 1.334 . S
C933 H910 0.950 . S
C933 C932 1.334 . S
C933 C934 1.287 . S
C934 C933 1.287 . S
C934 C935 1.524 . S
C934 H953 0.913 . S
C935 H911 0.950 . S
C935 C934 1.524 . S
C935 C936 1.415 . S
C936 H912 0.950 . S
C936 C931 1.363 . S
C936 C935 1.415 . S
C937 H913 0.951 . S
C937 C938 1.366 . S
C937 C939 1.388 . S
C938 C937 1.366 . S
C938 C942 1.385 . S
C939 H914 0.951 . S
C939 C937 1.388 . S
C939 C940 1.366 . S
C940 C939 1.366 . S
C940 C941 1.414 . S
C940 C943 1.499 . S
C941 H915 0.950 . S
C941 C940 1.414 . S
C941 C942 1.374 . S
C942 H916 0.950 . S
C942 C938 1.385 . S
C942 C941 1.374 . S
C943 C940 1.499 . S
C943 C944 1.373 1_565 S
C943 C945 1.389 . S
C944 H917 0.950 . S
C944 C930 1.377 . S
C944 C943 1.373 1_545 S
C945 C929 1.377 . S
C945 C943 1.389 . S
C945 C946 1.524 . S
C946 C945 1.524 . S
C946 C947 1.397 . S
C946 C951 1.363 . S
C947 H918 0.950 . S
C947 C946 1.397 . S
C947 C948 1.334 . S
C948 H919 0.950 . S
C948 C947 1.334 . S
C948 C949 1.287 . S
C949 C948 1.287 . S
C949 C950 1.524 . S
C949 H952 0.999 . S
C950 H920 0.950 . S
C950 C949 1.524 . S
C950 C951 1.415 . S
C951 H921 0.950 . S
C951 C946 1.363 . S
C951 C950 1.415 . S
H952 C949 0.999 . S
H953 C934 0.913 . S
H954 C972 0.951 . S
H955 C974 0.951 . S
H956 C976 0.950 . S
H957 C977 0.950 . S
H958 C979 0.950 . S
H959 C982 0.950 . S
H960 C983 0.950 . S
H961 C985 0.950 . S
H962 C986 0.950 . S
H963 C987 0.951 . S
H964 C989 0.951 . S
H965 C991 0.950 . S
H966 C992 0.950 . S
H967 C994 0.950 . S
H968 C997 0.950 . S
H969 C998 0.950 . S
H970 C1000 0.950 . S
H971 C1001 0.950 . S
C972 H954 0.951 . S
C972 C973 1.366 . S
C972 C974 1.388 . S
C973 C972 1.366 . S
C973 C977 1.385 . S
C974 H955 0.951 . S
C974 C972 1.388 . S
C974 C975 1.366 . S
C975 C974 1.366 . S
C975 C976 1.414 . S
C975 C978 1.499 . S
C976 H956 0.950 . S
C976 C975 1.414 . S
C976 C977 1.374 . S
C977 H957 0.950 . S
C977 C973 1.385 . S
C977 C976 1.374 . S
C978 C975 1.499 . S
C978 C979 1.373 . S
C978 C980 1.389 . S
C979 H958 0.950 . S
C979 C978 1.373 . S
C979 C995 1.377 . S
C980 C978 1.389 . S
C980 C981 1.524 . S
C980 C994 1.377 . S
C981 C980 1.524 . S
C981 C982 1.397 . S
C981 C986 1.363 . S
C982 H959 0.950 . S
C982 C981 1.397 . S
C982 C983 1.334 . S
C983 H960 0.950 . S
C983 C982 1.334 . S
C983 C984 1.287 . S
C984 C983 1.287 . S
C984 C985 1.524 . S
C984 H1003 0.913 . S
C985 H961 0.950 . S
C985 C984 1.524 . S
C985 C986 1.415 . S
C986 H962 0.950 . S
C986 C981 1.363 . S
C986 C985 1.415 . S
C987 H963 0.951 . S
C987 C988 1.366 . S
C987 C989 1.388 . S
C988 C987 1.366 . S
C988 C992 1.385 . S
C989 H964 0.951 . S
C989 C987 1.388 . S
C989 C990 1.366 . S
C990 C989 1.366 . S
C990 C991 1.414 . S
C990 C993 1.499 . S
C991 H965 0.950 . S
C991 C990 1.414 . S
C991 C992 1.374 . S
C992 H966 0.950 . S
C992 C988 1.385 . S
C992 C991 1.374 . S
C993 C990 1.499 . S
C993 C994 1.373 . S
C993 C995 1.389 . S
C994 H967 0.950 . S
C994 C980 1.377 . S
C994 C993 1.373 . S
C995 C979 1.377 . S
C995 C993 1.389 . S
C995 C996 1.524 . S
C996 C995 1.524 . S
C996 C997 1.397 . S
C996 C1001 1.363 . S
C997 H968 0.950 . S
C997 C996 1.397 . S
C997 C998 1.334 . S
C998 H969 0.950 . S
C998 C997 1.334 . S
C998 C999 1.287 . S
C999 C998 1.287 . S
C999 C1000 1.524 . S
C999 H1002 0.999 . S
C1000 H970 0.950 . S
C1000 C999 1.524 . S
C1000 C1001 1.415 . S
C1001 H971 0.950 . S
C1001 C996 1.363 . S
C1001 C1000 1.415 . S
H1002 C999 0.999 . S
H1003 C984 0.913 . S
H1004 C1022 0.951 . S
H1005 C1024 0.951 . S
H1006 C1026 0.950 . S
H1007 C1027 0.950 . S
H1008 C1029 0.950 . S
H1009 C1032 0.950 . S
H1010 C1033 0.950 . S
H1011 C1035 0.950 . S
H1012 C1036 0.950 . S
H1013 C1037 0.951 . S
H1014 C1039 0.951 . S
H1015 C1041 0.950 . S
H1016 C1042 0.950 . S
H1017 C1044 0.950 . S
H1018 C1047 0.950 . S
H1019 C1048 0.950 . S
H1020 C1050 0.950 . S
H1021 C1051 0.950 . S
C1022 H1004 0.951 . S
C1022 C1023 1.366 1_556 S
C1022 C1024 1.388 . S
C1023 C1022 1.366 1_554 S
C1023 C1027 1.385 . S
C1024 H1005 0.951 . S
C1024 C1022 1.388 . S
C1024 C1025 1.366 1_556 S
C1025 C1024 1.366 1_554 S
C1025 C1026 1.414 . S
C1025 C1028 1.499 . S
C1026 H1006 0.950 . S
C1026 C1025 1.414 . S
C1026 C1027 1.374 . S
C1027 H1007 0.950 . S
C1027 C1023 1.385 . S
C1027 C1026 1.374 . S
C1028 C1025 1.499 . S
C1028 C1029 1.373 . S
C1028 C1030 1.389 1_554 S
C1029 H1008 0.950 . S
C1029 C1028 1.373 . S
C1029 C1045 1.377 1_455 S
C1030 C1028 1.389 1_556 S
C1030 C1031 1.524 . S
C1030 C1044 1.377 1_455 S
C1031 C1030 1.524 . S
C1031 C1032 1.397 . S
C1031 C1036 1.363 . S
C1032 H1009 0.950 . S
C1032 C1031 1.397 . S
C1032 C1033 1.334 . S
C1033 H1010 0.950 . S
C1033 C1032 1.334 . S
C1033 C1034 1.287 . S
C1034 C1033 1.287 . S
C1034 C1035 1.524 . S
C1034 H1053 0.913 . S
C1035 H1011 0.950 . S
C1035 C1034 1.524 . S
C1035 C1036 1.415 . S
C1036 H1012 0.950 . S
C1036 C1031 1.363 . S
C1036 C1035 1.415 . S
C1037 H1013 0.951 . S
C1037 C1038 1.366 . S
C1037 C1039 1.388 . S
C1038 C1037 1.366 . S
C1038 C1042 1.385 1_554 S
C1039 H1014 0.951 . S
C1039 C1037 1.388 . S
C1039 C1040 1.366 . S
C1040 C1039 1.366 . S
C1040 C1041 1.414 1_554 S
C1040 C1043 1.499 . S
C1041 H1015 0.950 . S
C1041 C1040 1.414 1_556 S
C1041 C1042 1.374 . S
C1042 H1016 0.950 . S
C1042 C1038 1.385 1_556 S
C1042 C1041 1.374 . S
C1043 C1040 1.499 . S
C1043 C1044 1.373 1_554 S
C1043 C1045 1.389 . S
C1044 H1017 0.950 . S
C1044 C1030 1.377 1_655 S
C1044 C1043 1.373 1_556 S
C1045 C1029 1.377 1_655 S
C1045 C1043 1.389 . S
C1045 C1046 1.524 . S
C1046 C1045 1.524 . S
C1046 C1047 1.397 . S
C1046 C1051 1.363 . S
C1047 H1018 0.950 . S
C1047 C1046 1.397 . S
C1047 C1048 1.334 . S
C1048 H1019 0.950 . S
C1048 C1047 1.334 . S
C1048 C1049 1.287 . S
C1049 C1048 1.287 . S
C1049 C1050 1.524 . S
C1049 H1052 0.999 . S
C1050 H1020 0.950 . S
C1050 C1049 1.524 . S
C1050 C1051 1.415 . S
C1051 H1021 0.950 . S
C1051 C1046 1.363 . S
C1051 C1050 1.415 . S
H1052 C1049 0.999 . S
H1053 C1034 0.913 . S
H1054 C1072 0.951 . S
H1055 C1074 0.951 . S
H1056 C1076 0.950 . S
H1057 C1077 0.950 . S
H1058 C1079 0.950 . S
H1059 C1082 0.950 . S
H1060 C1083 0.950 . S
H1061 C1085 0.950 . S
H1062 C1086 0.950 . S
H1063 C1087 0.951 . S
H1064 C1089 0.951 . S
H1065 C1091 0.950 . S
H1066 C1092 0.950 . S
H1067 C1094 0.950 . S
H1068 C1097 0.950 . S
H1069 C1098 0.950 . S
H1070 C1100 0.950 . S
H1071 C1101 0.950 . S
C1072 H1054 0.951 . S
C1072 C1073 1.366 . S
C1072 C1074 1.388 . S
C1073 C1072 1.366 . S
C1073 C1077 1.385 . S
C1074 H1055 0.951 . S
C1074 C1072 1.388 . S
C1074 C1075 1.366 . S
C1075 C1074 1.366 . S
C1075 C1076 1.414 . S
C1075 C1078 1.499 . S
C1076 H1056 0.950 . S
C1076 C1075 1.414 . S
C1076 C1077 1.374 . S
C1077 H1057 0.950 . S
C1077 C1073 1.385 . S
C1077 C1076 1.374 . S
C1078 C1075 1.499 . S
C1078 C1079 1.373 1_565 S
C1078 C1080 1.389 . S
C1079 H1058 0.950 . S
C1079 C1078 1.373 1_545 S
C1079 C1095 1.377 . S
C1080 C1078 1.389 . S
C1080 C1081 1.524 . S
C1080 C1094 1.377 . S
C1081 C1080 1.524 . S
C1081 C1082 1.397 . S
C1081 C1086 1.363 . S
C1082 H1059 0.950 . S
C1082 C1081 1.397 . S
C1082 C1083 1.334 . S
C1083 H1060 0.950 . S
C1083 C1082 1.334 . S
C1083 C1084 1.287 . S
C1084 C1083 1.287 . S
C1084 C1085 1.524 . S
C1084 H1103 0.913 . S
C1085 H1061 0.950 . S
C1085 C1084 1.524 . S
C1085 C1086 1.415 . S
C1086 H1062 0.950 . S
C1086 C1081 1.363 . S
C1086 C1085 1.415 . S
C1087 H1063 0.951 . S
C1087 C1088 1.366 . S
C1087 C1089 1.388 . S
C1088 C1087 1.366 . S
C1088 C1092 1.385 . S
C1089 H1064 0.951 . S
C1089 C1087 1.388 . S
C1089 C1090 1.366 . S
C1090 C1089 1.366 . S
C1090 C1091 1.414 . S
C1090 C1093 1.499 . S
C1091 H1065 0.950 . S
C1091 C1090 1.414 . S
C1091 C1092 1.374 . S
C1092 H1066 0.950 . S
C1092 C1088 1.385 . S
C1092 C1091 1.374 . S
C1093 C1090 1.499 . S
C1093 C1094 1.373 1_545 S
C1093 C1095 1.389 . S
C1094 H1067 0.950 . S
C1094 C1080 1.377 . S
C1094 C1093 1.373 1_565 S
C1095 C1079 1.377 . S
C1095 C1093 1.389 . S
C1095 C1096 1.524 . S
C1096 C1095 1.524 . S
C1096 C1097 1.397 . S
C1096 C1101 1.363 . S
C1097 H1068 0.950 . S
C1097 C1096 1.397 . S
C1097 C1098 1.334 . S
C1098 H1069 0.950 . S
C1098 C1097 1.334 . S
C1098 C1099 1.287 . S
C1099 C1098 1.287 . S
C1099 C1100 1.524 . S
C1099 H1102 0.999 . S
C1100 H1070 0.950 . S
C1100 C1099 1.524 . S
C1100 C1101 1.415 . S
C1101 H1071 0.950 . S
C1101 C1096 1.363 . S
C1101 C1100 1.415 . S
H1102 C1099 0.999 . S
H1103 C1084 0.913 . S
H1104 C1122 0.951 . S
H1105 C1124 0.951 . S
H1106 C1126 0.950 . S
H1107 C1127 0.950 . S
H1108 C1129 0.950 . S
H1109 C1132 0.950 . S
H1110 C1133 0.950 . S
H1111 C1135 0.950 . S
H1112 C1136 0.950 . S
H1113 C1137 0.951 . S
H1114 C1139 0.951 . S
H1115 C1141 0.950 . S
H1116 C1142 0.950 . S
H1117 C1144 0.950 . S
H1118 C1147 0.950 . S
H1119 C1148 0.950 . S
H1120 C1150 0.950 . S
H1121 C1151 0.950 . S
C1122 H1104 0.951 . S
C1122 C1123 1.366 . S
C1122 C1124 1.388 . S
C1123 C1122 1.366 . S
C1123 C1127 1.385 . S
C1124 H1105 0.951 . S
C1124 C1122 1.388 . S
C1124 C1125 1.366 . S
C1125 C1124 1.366 . S
C1125 C1126 1.414 . S
C1125 C1128 1.499 . S
C1126 H1106 0.950 . S
C1126 C1125 1.414 . S
C1126 C1127 1.374 . S
C1127 H1107 0.950 . S
C1127 C1123 1.385 . S
C1127 C1126 1.374 . S
C1128 C1125 1.499 . S
C1128 C1129 1.373 . S
C1128 C1130 1.389 . S
C1129 H1108 0.950 . S
C1129 C1128 1.373 . S
C1129 C1145 1.377 . S
C1130 C1128 1.389 . S
C1130 C1131 1.524 . S
C1130 C1144 1.377 . S
C1131 C1130 1.524 . S
C1131 C1132 1.397 . S
C1131 C1136 1.363 . S
C1132 H1109 0.950 . S
C1132 C1131 1.397 . S
C1132 C1133 1.334 . S
C1133 H1110 0.950 . S
C1133 C1132 1.334 . S
C1133 C1134 1.287 . S
C1134 C1133 1.287 . S
C1134 C1135 1.524 . S
C1134 H1153 0.913 . S
C1135 H1111 0.950 . S
C1135 C1134 1.524 . S
C1135 C1136 1.415 . S
C1136 H1112 0.950 . S
C1136 C1131 1.363 . S
C1136 C1135 1.415 . S
C1137 H1113 0.951 . S
C1137 C1138 1.366 . S
C1137 C1139 1.388 . S
C1138 C1137 1.366 . S
C1138 C1142 1.385 . S
C1139 H1114 0.951 . S
C1139 C1137 1.388 . S
C1139 C1140 1.366 . S
C1140 C1139 1.366 . S
C1140 C1141 1.414 . S
C1140 C1143 1.499 . S
C1141 H1115 0.950 . S
C1141 C1140 1.414 . S
C1141 C1142 1.374 . S
C1142 H1116 0.950 . S
C1142 C1138 1.385 . S
C1142 C1141 1.374 . S
C1143 C1140 1.499 . S
C1143 C1144 1.373 . S
C1143 C1145 1.389 . S
C1144 H1117 0.950 . S
C1144 C1130 1.377 . S
C1144 C1143 1.373 . S
C1145 C1129 1.377 . S
C1145 C1143 1.389 . S
C1145 C1146 1.524 . S
C1146 C1145 1.524 . S
C1146 C1147 1.397 . S
C1146 C1151 1.363 . S
C1147 H1118 0.950 . S
C1147 C1146 1.397 . S
C1147 C1148 1.334 . S
C1148 H1119 0.950 . S
C1148 C1147 1.334 . S
C1148 C1149 1.287 . S
C1149 C1148 1.287 . S
C1149 C1150 1.524 . S
C1149 H1152 0.999 . S
C1150 H1120 0.950 . S
C1150 C1149 1.524 . S
C1150 C1151 1.415 . S
C1151 H1121 0.950 . S
C1151 C1146 1.363 . S
C1151 C1150 1.415 . S
H1152 C1149 0.999 . S
H1153 C1134 0.913 . S
H1154 C1172 0.951 . S
H1155 C1174 0.951 . S
H1156 C1176 0.950 . S
H1157 C1177 0.950 1_455 S
H1158 C1179 0.950 . S
H1159 C1182 0.950 . S
H1160 C1183 0.950 . S
H1161 C1185 0.950 . S
H1162 C1186 0.950 1_655 S
H1163 C1187 0.951 . S
H1164 C1189 0.951 . S
H1165 C1191 0.950 . S
H1166 C1192 0.950 . S
H1167 C1194 0.950 . S
H1168 C1197 0.950 . S
H1169 C1198 0.950 . S
H1170 C1200 0.950 . S
H1171 C1201 0.950 . S
C1172 H1154 0.951 . S
C1172 C1173 1.366 . S
C1172 C1174 1.388 . S
C1173 C1172 1.366 . S
C1173 C1177 1.385 . S
C1174 H1155 0.951 . S
C1174 C1172 1.388 . S
C1174 C1175 1.366 1_655 S
C1175 C1174 1.366 1_455 S
C1175 C1176 1.414 . S
C1175 C1178 1.499 . S
C1176 H1156 0.950 . S
C1176 C1175 1.414 . S
C1176 C1177 1.374 1_455 S
C1177 H1157 0.950 1_655 S
C1177 C1173 1.385 . S
C1177 C1176 1.374 1_655 S
C1178 C1175 1.499 . S
C1178 C1179 1.373 . S
C1178 C1180 1.389 . S
C1179 H1158 0.950 . S
C1179 C1178 1.373 . S
C1179 C1195 1.377 . S
C1180 C1178 1.389 . S
C1180 C1181 1.524 . S
C1180 C1194 1.377 . S
C1181 C1180 1.524 . S
C1181 C1182 1.397 . S
C1181 C1186 1.363 . S
C1182 H1159 0.950 . S
C1182 C1181 1.397 . S
C1182 C1183 1.334 . S
C1183 H1160 0.950 . S
C1183 C1182 1.334 . S
C1183 C1184 1.287 . S
C1184 C1183 1.287 . S
C1184 C1185 1.524 1_455 S
C1184 H1203 0.913 1_455 S
C1185 H1161 0.950 . S
C1185 C1184 1.524 1_655 S
C1185 C1186 1.415 1_655 S
C1186 H1162 0.950 1_455 S
C1186 C1181 1.363 . S
C1186 C1185 1.415 1_455 S
C1187 H1163 0.951 . S
C1187 C1188 1.366 . S
C1187 C1189 1.388 . S
C1188 C1187 1.366 . S
C1188 C1192 1.385 . S
C1189 H1164 0.951 . S
C1189 C1187 1.388 . S
C1189 C1190 1.366 . S
C1190 C1189 1.366 . S
C1190 C1191 1.414 . S
C1190 C1193 1.499 . S
C1191 H1165 0.950 . S
C1191 C1190 1.414 . S
C1191 C1192 1.374 . S
C1192 H1166 0.950 . S
C1192 C1188 1.385 . S
C1192 C1191 1.374 . S
C1193 C1190 1.499 . S
C1193 C1194 1.373 . S
C1193 C1195 1.389 . S
C1194 H1167 0.950 . S
C1194 C1180 1.377 . S
C1194 C1193 1.373 . S
C1195 C1179 1.377 . S
C1195 C1193 1.389 . S
C1195 C1196 1.524 . S
C1196 C1195 1.524 . S
C1196 C1197 1.397 . S
C1196 C1201 1.363 . S
C1197 H1168 0.950 . S
C1197 C1196 1.397 . S
C1197 C1198 1.334 . S
C1198 H1169 0.950 . S
C1198 C1197 1.334 . S
C1198 C1199 1.287 . S
C1199 C1198 1.287 . S
C1199 C1200 1.524 . S
C1199 H1202 0.999 . S
C1200 H1170 0.950 . S
C1200 C1199 1.524 . S
C1200 C1201 1.415 . S
C1201 H1171 0.950 . S
C1201 C1196 1.363 . S
C1201 C1200 1.415 . S
H1202 C1199 0.999 . S
H1203 C1184 0.913 1_655 S
H1204 C1222 0.951 1_545 S
H1205 C1224 0.951 . S
H1206 C1226 0.950 . S
H1207 C1227 0.950 . S
H1208 C1229 0.950 . S
H1209 C1232 0.950 1_565 S
H1210 C1233 0.950 . S
H1211 C1235 0.950 . S
H1212 C1236 0.950 . S
H1213 C1237 0.951 . S
H1214 C1239 0.951 . S
H1215 C1241 0.950 . S
H1216 C1242 0.950 . S
H1217 C1244 0.950 . S
H1218 C1247 0.950 . S
H1219 C1248 0.950 . S
H1220 C1250 0.950 . S
H1221 C1251 0.950 . S
C1222 H1204 0.951 1_565 S
C1222 C1223 1.366 . S
C1222 C1224 1.388 1_565 S
C1223 C1222 1.366 . S
C1223 C1227 1.385 . S
C1224 H1205 0.951 . S
C1224 C1222 1.388 1_545 S
C1224 C1225 1.366 . S
C1225 C1224 1.366 . S
C1225 C1226 1.414 1_545 S
C1225 C1228 1.499 . S
C1226 H1206 0.950 . S
C1226 C1225 1.414 1_565 S
C1226 C1227 1.374 . S
C1227 H1207 0.950 . S
C1227 C1223 1.385 . S
C1227 C1226 1.374 . S
C1228 C1225 1.499 . S
C1228 C1229 1.373 . S
C1228 C1230 1.389 . S
C1229 H1208 0.950 . S
C1229 C1228 1.373 . S
C1229 C1245 1.377 . S
C1230 C1228 1.389 . S
C1230 C1231 1.524 . S
C1230 C1244 1.377 . S
C1231 C1230 1.524 . S
C1231 C1232 1.397 . S
C1231 C1236 1.363 . S
C1232 H1209 0.950 1_545 S
C1232 C1231 1.397 . S
C1232 C1233 1.334 1_545 S
C1233 H1210 0.950 . S
C1233 C1232 1.334 1_565 S
C1233 C1234 1.287 1_565 S
C1234 C1233 1.287 1_545 S
C1234 C1235 1.524 . S
C1234 H1253 0.913 . S
C1235 H1211 0.950 . S
C1235 C1234 1.524 . S
C1235 C1236 1.415 . S
C1236 H1212 0.950 . S
C1236 C1231 1.363 . S
C1236 C1235 1.415 . S
C1237 H1213 0.951 . S
C1237 C1238 1.366 . S
C1237 C1239 1.388 . S
C1238 C1237 1.366 . S
C1238 C1242 1.385 . S
C1239 H1214 0.951 . S
C1239 C1237 1.388 . S
C1239 C1240 1.366 . S
C1240 C1239 1.366 . S
C1240 C1241 1.414 . S
C1240 C1243 1.499 . S
C1241 H1215 0.950 . S
C1241 C1240 1.414 . S
C1241 C1242 1.374 . S
C1242 H1216 0.950 . S
C1242 C1238 1.385 . S
C1242 C1241 1.374 . S
C1243 C1240 1.499 . S
C1243 C1244 1.373 . S
C1243 C1245 1.389 . S
C1244 H1217 0.950 . S
C1244 C1230 1.377 . S
C1244 C1243 1.373 . S
C1245 C1229 1.377 . S
C1245 C1243 1.389 . S
C1245 C1246 1.524 . S
C1246 C1245 1.524 . S
C1246 C1247 1.397 . S
C1246 C1251 1.363 . S
C1247 H1218 0.950 . S
C1247 C1246 1.397 . S
C1247 C1248 1.334 . S
C1248 H1219 0.950 . S
C1248 C1247 1.334 . S
C1248 C1249 1.287 . S
C1249 C1248 1.287 . S
C1249 C1250 1.524 . S
C1249 H1252 0.999 . S
C1250 H1220 0.950 . S
C1250 C1249 1.524 . S
C1250 C1251 1.415 . S
C1251 H1221 0.950 . S
C1251 C1246 1.363 . S
C1251 C1250 1.415 . S
H1252 C1249 0.999 . S
H1253 C1234 0.913 . S
H1254 C1272 0.951 . S
H1255 C1274 0.951 . S
H1256 C1276 0.950 . S
H1257 C1277 0.950 . S
H1258 C1279 0.950 . S
H1259 C1282 0.950 . S
H1260 C1283 0.950 . S
H1261 C1285 0.950 . S
H1262 C1286 0.950 . S
H1263 C1287 0.951 . S
H1264 C1289 0.951 . S
H1265 C1291 0.950 . S
H1266 C1292 0.950 . S
H1267 C1294 0.950 . S
H1268 C1297 0.950 . S
H1269 C1298 0.950 . S
H1270 C1300 0.950 . S
H1271 C1301 0.950 . S
C1272 H1254 0.951 . S
C1272 C1273 1.366 . S
C1272 C1274 1.388 . S
C1273 C1272 1.366 . S
C1273 C1277 1.385 . S
C1274 H1255 0.951 . S
C1274 C1272 1.388 . S
C1274 C1275 1.366 . S
C1275 C1274 1.366 . S
C1275 C1276 1.414 . S
C1275 C1278 1.499 . S
C1276 H1256 0.950 . S
C1276 C1275 1.414 . S
C1276 C1277 1.374 . S
C1277 H1257 0.950 . S
C1277 C1273 1.385 . S
C1277 C1276 1.374 . S
C1278 C1275 1.499 . S
C1278 C1279 1.373 . S
C1278 C1280 1.389 . S
C1279 H1258 0.950 . S
C1279 C1278 1.373 . S
C1279 C1295 1.377 . S
C1280 C1278 1.389 . S
C1280 C1281 1.524 . S
C1280 C1294 1.377 . S
C1281 C1280 1.524 . S
C1281 C1282 1.397 . S
C1281 C1286 1.363 . S
C1282 H1259 0.950 . S
C1282 C1281 1.397 . S
C1282 C1283 1.334 . S
C1283 H1260 0.950 . S
C1283 C1282 1.334 . S
C1283 C1284 1.287 . S
C1284 C1283 1.287 . S
C1284 C1285 1.524 . S
C1284 H1303 0.913 . S
C1285 H1261 0.950 . S
C1285 C1284 1.524 . S
C1285 C1286 1.415 . S
C1286 H1262 0.950 . S
C1286 C1281 1.363 . S
C1286 C1285 1.415 . S
C1287 H1263 0.951 . S
C1287 C1288 1.366 . S
C1287 C1289 1.388 . S
C1288 C1287 1.366 . S
C1288 C1292 1.385 . S
C1289 H1264 0.951 . S
C1289 C1287 1.388 . S
C1289 C1290 1.366 . S
C1290 C1289 1.366 . S
C1290 C1291 1.414 . S
C1290 C1293 1.499 . S
C1291 H1265 0.950 . S
C1291 C1290 1.414 . S
C1291 C1292 1.374 . S
C1292 H1266 0.950 . S
C1292 C1288 1.385 . S
C1292 C1291 1.374 . S
C1293 C1290 1.499 . S
C1293 C1294 1.373 . S
C1293 C1295 1.389 . S
C1294 H1267 0.950 . S
C1294 C1280 1.377 . S
C1294 C1293 1.373 . S
C1295 C1279 1.377 . S
C1295 C1293 1.389 . S
C1295 C1296 1.524 . S
C1296 C1295 1.524 . S
C1296 C1297 1.397 . S
C1296 C1301 1.363 . S
C1297 H1268 0.950 . S
C1297 C1296 1.397 . S
C1297 C1298 1.334 . S
C1298 H1269 0.950 . S
C1298 C1297 1.334 . S
C1298 C1299 1.287 . S
C1299 C1298 1.287 . S
C1299 C1300 1.524 . S
C1299 H1302 0.999 . S
C1300 H1270 0.950 . S
C1300 C1299 1.524 . S
C1300 C1301 1.415 . S
C1301 H1271 0.950 . S
C1301 C1296 1.363 . S
C1301 C1300 1.415 . S
H1302 C1299 0.999 . S
H1303 C1284 0.913 . S
H1304 C1322 0.951 . S
H1305 C1324 0.951 . S
H1306 C1326 0.950 . S
H1307 C1327 0.953 . S
H1308 C1329 0.950 . S
H1309 C1332 0.950 1_655 S
H1310 C1333 0.950 . S
H1311 C1335 0.950 . S
H1312 C1336 0.950 . S
H1313 C1337 0.951 . S
H1314 C1339 0.951 . S
H1315 C1341 0.950 . S
H1316 C1342 0.950 . S
H1317 C1344 0.950 . S
H1318 C1347 0.950 . S
H1319 C1348 0.950 . S
H1320 C1350 0.950 . S
H1321 C1351 0.950 . S
C1322 H1304 0.951 . S
C1322 C1323 1.366 . S
C1322 C1324 1.388 . S
C1323 C1322 1.366 . S
C1323 C1327 1.378 1_455 S
C1324 H1305 0.951 . S
C1324 C1322 1.388 . S
C1324 C1325 1.366 1_455 S
C1325 C1324 1.366 1_655 S
C1325 C1326 1.414 . S
C1325 C1328 1.499 . S
C1326 H1306 0.950 . S
C1326 C1325 1.414 . S
C1326 C1327 1.377 . S
C1327 H1307 0.953 . S
C1327 C1323 1.378 1_655 S
C1327 C1326 1.377 . S
C1328 C1325 1.499 . S
C1328 C1329 1.373 . S
C1328 C1330 1.389 . S
C1329 H1308 0.950 . S
C1329 C1328 1.373 . S
C1329 C1345 1.377 . S
C1330 C1328 1.389 . S
C1330 C1331 1.524 1_655 S
C1330 C1344 1.377 . S
C1331 C1330 1.524 1_455 S
C1331 C1332 1.397 . S
C1331 C1336 1.363 . S
C1332 H1309 0.950 1_455 S
C1332 C1331 1.397 . S
C1332 C1333 1.334 . S
C1333 H1310 0.950 . S
C1333 C1332 1.334 . S
C1333 C1334 1.287 . S
C1334 C1333 1.287 . S
C1334 C1335 1.524 . S
C1334 H1353 0.913 . S
C1335 H1311 0.950 . S
C1335 C1334 1.524 . S
C1335 C1336 1.415 . S
C1336 H1312 0.950 . S
C1336 C1331 1.363 . S
C1336 C1335 1.415 . S
C1337 H1313 0.951 . S
C1337 C1338 1.366 . S
C1337 C1339 1.388 . S
C1338 C1337 1.366 . S
C1338 C1342 1.385 . S
C1339 H1314 0.951 . S
C1339 C1337 1.388 . S
C1339 C1340 1.366 . S
C1340 C1339 1.366 . S
C1340 C1341 1.414 . S
C1340 C1343 1.499 . S
C1341 H1315 0.950 . S
C1341 C1340 1.414 . S
C1341 C1342 1.374 . S
C1342 H1316 0.950 . S
C1342 C1338 1.385 . S
C1342 C1341 1.374 . S
C1343 C1340 1.499 . S
C1343 C1344 1.373 . S
C1343 C1345 1.389 . S
C1344 H1317 0.950 . S
C1344 C1330 1.377 . S
C1344 C1343 1.373 . S
C1345 C1329 1.377 . S
C1345 C1343 1.389 . S
C1345 C1346 1.524 . S
C1346 C1345 1.524 . S
C1346 C1347 1.397 . S
C1346 C1351 1.363 . S
C1347 H1318 0.950 . S
C1347 C1346 1.397 . S
C1347 C1348 1.334 . S
C1348 H1319 0.950 . S
C1348 C1347 1.334 . S
C1348 C1349 1.287 . S
C1349 C1348 1.287 . S
C1349 C1350 1.524 . S
C1349 H1352 0.999 . S
C1350 H1320 0.950 . S
C1350 C1349 1.524 . S
C1350 C1351 1.415 . S
C1351 H1321 0.950 . S
C1351 C1346 1.363 . S
C1351 C1350 1.415 . S
H1352 C1349 0.999 . S
H1353 C1334 0.913 . S
H1354 C1372 0.951 . S
H1355 C1374 0.951 . S
H1356 C1376 0.950 . S
H1357 C1377 0.950 1_565 S
H1358 C1379 0.950 . S
H1359 C1382 0.950 . S
H1360 C1383 0.950 . S
H1361 C1385 0.950 . S
H1362 C1386 0.950 . S
H1363 C1387 0.951 . S
H1364 C1389 0.951 . S
H1365 C1391 0.950 . S
H1366 C1392 0.950 . S
H1367 C1394 0.950 . S
H1368 C1397 0.950 . S
H1369 C1398 0.950 . S
H1370 C1400 0.950 . S
H1371 C1401 0.950 . S
C1372 H1354 0.951 . S
C1372 C1373 1.366 . S
C1372 C1374 1.388 . S
C1373 C1372 1.366 . S
C1373 C1377 1.385 . S
C1374 H1355 0.951 . S
C1374 C1372 1.388 . S
C1374 C1375 1.366 1_545 S
C1375 C1374 1.366 1_565 S
C1375 C1376 1.414 . S
C1375 C1378 1.499 . S
C1376 H1356 0.950 . S
C1376 C1375 1.414 . S
C1376 C1377 1.374 1_565 S
C1377 H1357 0.950 1_545 S
C1377 C1373 1.385 . S
C1377 C1376 1.374 1_545 S
C1378 C1375 1.499 . S
C1378 C1379 1.373 . S
C1378 C1380 1.389 . S
C1379 H1358 0.950 . S
C1379 C1378 1.373 . S
C1379 C1395 1.377 . S
C1380 C1378 1.389 . S
C1380 C1381 1.524 1_565 S
C1380 C1394 1.377 . S
C1381 C1380 1.524 1_545 S
C1381 C1382 1.397 . S
C1381 C1386 1.363 . S
C1382 H1359 0.950 . S
C1382 C1381 1.397 . S
C1382 C1383 1.334 . S
C1383 H1360 0.950 . S
C1383 C1382 1.334 . S
C1383 C1384 1.287 . S
C1384 C1383 1.287 . S
C1384 C1385 1.524 . S
C1384 H1403 0.913 . S
C1385 H1361 0.950 . S
C1385 C1384 1.524 . S
C1385 C1386 1.415 . S
C1386 H1362 0.950 . S
C1386 C1381 1.363 . S
C1386 C1385 1.415 . S
C1387 H1363 0.951 . S
C1387 C1388 1.366 . S
C1387 C1389 1.388 . S
C1388 C1387 1.366 . S
C1388 C1392 1.385 . S
C1389 H1364 0.951 . S
C1389 C1387 1.388 . S
C1389 C1390 1.366 . S
C1390 C1389 1.366 . S
C1390 C1391 1.414 . S
C1390 C1393 1.499 . S
C1391 H1365 0.950 . S
C1391 C1390 1.414 . S
C1391 C1392 1.374 . S
C1392 H1366 0.950 . S
C1392 C1388 1.385 . S
C1392 C1391 1.374 . S
C1393 C1390 1.499 . S
C1393 C1394 1.373 . S
C1393 C1395 1.389 . S
C1394 H1367 0.950 . S
C1394 C1380 1.377 . S
C1394 C1393 1.373 . S
C1395 C1379 1.377 . S
C1395 C1393 1.389 . S
C1395 C1396 1.524 . S
C1396 C1395 1.524 . S
C1396 C1397 1.397 . S
C1396 C1401 1.363 . S
C1397 H1368 0.950 . S
C1397 C1396 1.397 . S
C1397 C1398 1.334 . S
C1398 H1369 0.950 . S
C1398 C1397 1.334 . S
C1398 C1399 1.287 . S
C1399 C1398 1.287 . S
C1399 C1400 1.524 . S
C1399 H1402 0.999 . S
C1400 H1370 0.950 . S
C1400 C1399 1.524 . S
C1400 C1401 1.415 . S
C1401 H1371 0.950 . S
C1401 C1396 1.363 . S
C1401 C1400 1.415 . S
H1402 C1399 0.999 . S
H1403 C1384 0.913 . S
C523 C403 1.109 . S
C538 C58 0.990 . S
C573 C487 1.111 . S
C588 C142 0.989 . S
C623 C67 1.111 . S
C638 C226 0.991 . S
C673 C151 1.109 . S
C688 C310 0.989 . S
C723 C235 1.111 . S
C738 C394 0.990 . S
C773 C319 1.109 . S
C788 C478 0.990 . S
C823 C74 1.622 . S
C838 C326 1.622 . S
C873 C410 1.622 . S
C888 C158 1.622 . S
C923 C494 1.622 . S
C938 C242 1.623 . S
C973 C231 1.676 . S
C988 C483 1.675 . S
C1023 C63 1.676 . S
C1038 C315 1.676 . S
C1073 C399 1.676 . S
C1088 C147 1.676 . S
C1123 C476 1.197 . S
C1138 C70 1.182 . S
C1173 C154 1.182 . S
C1188 C56 1.197 . S
C1223 C238 1.181 . S
C1238 C140 1.195 . S
C1273 C224 1.196 . S
C1288 C322 1.182 . S
C1323 C406 1.183 . S
C1338 C308 1.197 . S
C1373 C490 1.183 . S
C1388 C392 1.197 . S
