# Generated by pormake.
# Topology ure, (4)-cn, num edge types: 1
# Building blocks:
#     Node 0, Type 0, BuildingBlock: ICAMEG_clean_sbu_1, # of connection points: 4
#     Node 1, Type 0, BuildingBlock: ICAMEG_clean_sbu_1, # of connection points: 4
#     Node 2, Type 0, BuildingBlock: ICAMEG_clean_sbu_1, # of connection points: 4
#     Node 3, Type 0, BuildingBlock: ICAMEG_clean_sbu_1, # of connection points: 4
#     Node 4, Type 0, BuildingBlock: ICAMEG_clean_sbu_1, # of connection points: 4
#     Node 5, Type 0, BuildingBlock: ICAMEG_clean_sbu_1, # of connection points: 4
#     Node 6, Type 0, BuildingBlock: ICAMEG_clean_sbu_1, # of connection points: 4
#     Node 7, Type 0, BuildingBlock: ICAMEG_clean_sbu_1, # of connection points: 4
#     Node 8, Type 0, BuildingBlock: ICAMEG_clean_sbu_1, # of connection points: 4
#     Node 9, Type 0, BuildingBlock: ICAMEG_clean_sbu_1, # of connection points: 4
#     Node 10, Type 0, BuildingBlock: ICAMEG_clean_sbu_1, # of connection points: 4
#     Node 11, Type 0, BuildingBlock: ICAMEG_clean_sbu_1, # of connection points: 4
#     Node 12, Type 0, BuildingBlock: ICAMEG_clean_sbu_1, # of connection points: 4
#     Node 13, Type 0, BuildingBlock: ICAMEG_clean_sbu_1, # of connection points: 4
#     Node 14, Type 0, BuildingBlock: ICAMEG_clean_sbu_1, # of connection points: 4
#     Node 15, Type 0, BuildingBlock: ICAMEG_clean_sbu_1, # of connection points: 4
#     Edge 16, Type (0, 0), BuildingBlock: CIFDUS_clean_linker_0, # of connection points: 2
#     Edge 17, Type (0, 0), BuildingBlock: CIFDUS_clean_linker_0, # of connection points: 2
#     Edge 18, Type (0, 0), BuildingBlock: CIFDUS_clean_linker_0, # of connection points: 2
#     Edge 19, Type (0, 0), BuildingBlock: CIFDUS_clean_linker_0, # of connection points: 2
#     Edge 20, Type (0, 0), BuildingBlock: CIFDUS_clean_linker_0, # of connection points: 2
#     Edge 21, Type (0, 0), BuildingBlock: CIFDUS_clean_linker_0, # of connection points: 2
#     Edge 22, Type (0, 0), BuildingBlock: CIFDUS_clean_linker_0, # of connection points: 2
#     Edge 23, Type (0, 0), BuildingBlock: CIFDUS_clean_linker_0, # of connection points: 2
#     Edge 24, Type (0, 0), BuildingBlock: CIFDUS_clean_linker_0, # of connection points: 2
#     Edge 25, Type (0, 0), BuildingBlock: CIFDUS_clean_linker_0, # of connection points: 2
#     Edge 26, Type (0, 0), BuildingBlock: CIFDUS_clean_linker_0, # of connection points: 2
#     Edge 27, Type (0, 0), BuildingBlock: CIFDUS_clean_linker_0, # of connection points: 2
#     Edge 28, Type (0, 0), BuildingBlock: CIFDUS_clean_linker_0, # of connection points: 2
#     Edge 29, Type (0, 0), BuildingBlock: CIFDUS_clean_linker_0, # of connection points: 2
#     Edge 30, Type (0, 0), BuildingBlock: CIFDUS_clean_linker_0, # of connection points: 2
#     Edge 31, Type (0, 0), BuildingBlock: CIFDUS_clean_linker_0, # of connection points: 2
#     Edge 32, Type (0, 0), BuildingBlock: CIFDUS_clean_linker_0, # of connection points: 2
#     Edge 33, Type (0, 0), BuildingBlock: CIFDUS_clean_linker_0, # of connection points: 2
#     Edge 34, Type (0, 0), BuildingBlock: CIFDUS_clean_linker_0, # of connection points: 2
#     Edge 35, Type (0, 0), BuildingBlock: CIFDUS_clean_linker_0, # of connection points: 2
#     Edge 36, Type (0, 0), BuildingBlock: CIFDUS_clean_linker_0, # of connection points: 2
#     Edge 37, Type (0, 0), BuildingBlock: CIFDUS_clean_linker_0, # of connection points: 2
#     Edge 38, Type (0, 0), BuildingBlock: CIFDUS_clean_linker_0, # of connection points: 2
#     Edge 39, Type (0, 0), BuildingBlock: CIFDUS_clean_linker_0, # of connection points: 2
#     Edge 40, Type (0, 0), BuildingBlock: CIFDUS_clean_linker_0, # of connection points: 2
#     Edge 41, Type (0, 0), BuildingBlock: CIFDUS_clean_linker_0, # of connection points: 2
#     Edge 42, Type (0, 0), BuildingBlock: CIFDUS_clean_linker_0, # of connection points: 2
#     Edge 43, Type (0, 0), BuildingBlock: CIFDUS_clean_linker_0, # of connection points: 2
#     Edge 44, Type (0, 0), BuildingBlock: CIFDUS_clean_linker_0, # of connection points: 2
#     Edge 45, Type (0, 0), BuildingBlock: CIFDUS_clean_linker_0, # of connection points: 2
#     Edge 46, Type (0, 0), BuildingBlock: CIFDUS_clean_linker_0, # of connection points: 2
#     Edge 47, Type (0, 0), BuildingBlock: CIFDUS_clean_linker_0, # of connection points: 2
# Relax obj value: 0.296
# Max RMSD: 0.317
# Mean RMSD: 0.230
data_MOF--net-ure--node1-ICAMEG_clean_sbu_1--edge1-CIFDUS_clean_linker_0
_symmetry_space_group_name_H-M    P1
_symmetry_Int_Tables_number       1
_symmetry_cell_setting            triclinic
loop_
_symmetry_equiv_pos_as_xyz
'x, y, z'
_cell_length_a     28.494866
_cell_length_b     29.511775
_cell_length_c     28.709982
_cell_angle_alpha  94.684875
_cell_angle_beta   95.125673
_cell_angle_gamma 99.485432
loop_
_atom_site_label
_atom_site_type_symbol
_atom_site_fract_x
_atom_site_fract_y
_atom_site_fract_z
_atom_type_partial_charge
Co0 Co 0.37855 0.36121 0.34073 0.0
Co1 Co 0.32075 0.24176 0.2885 0.0
O2 O 0.3284 0.31098 0.29481 0.0
C3 C 0.27437 0.37302 0.3751 0.0
O4 O 0.24966 0.34728 0.3391 0.0
C5 C 0.27569 0.25489 0.18868 0.0
O6 O 0.27905 0.29994 0.19483 0.0
O7 O 0.38508 0.24811 0.26844 0.0
O8 O 0.42219 0.31149 0.31566 0.0
H9 H 0.37961 0.09365 0.31612 0.0
H10 H 0.42531 0.50291 0.36781 0.0
O11 O 0.31852 0.36581 0.38699 0.0
H12 H 0.4012 0.50702 0.19781 0.0
H13 H 0.56676 0.39979 0.41397 0.0
H14 H 0.39797 0.3205 0.44553 0.0
H15 H 0.41121 0.43687 0.22689 0.0
H16 H 0.50595 0.3659 0.34751 0.0
O17 O 0.29251 0.23304 0.22087 0.0
H18 H 0.3839 0.17843 0.32142 0.0
H19 H 0.24652 0.16136 0.24547 0.0
H20 H 0.47511 0.32407 0.50109 0.0
H21 H 0.41258 0.57267 0.33677 0.0
H22 H 0.55021 0.37761 0.49641 0.0
H23 H 0.39735 0.57587 0.25138 0.0
O24 O 0.34297 0.31579 0.3812 0.0
H25 H 0.15358 0.27699 0.28812 0.0
H26 H 0.26721 0.18463 0.35487 0.0
H27 H 0.18678 0.17751 0.38128 0.0
H28 H 0.1291 0.22386 0.34778 0.0
H29 H 0.2351 0.28452 0.26451 0.0
H30 H 0.24105 0.077 0.23856 0.0
H31 H 0.30785 0.04254 0.27436 0.0
O32 O 0.34856 0.24476 0.35416 0.0
C33 C 0.42258 0.27553 0.28678 0.0
C34 C 0.35041 0.10837 0.30035 0.0
C35 C 0.27267 0.09893 0.25674 0.0
N36 N 0.31596 0.17493 0.28346 0.0
C37 C 0.3527 0.1562 0.30326 0.0
C38 C 0.27621 0.14686 0.26043 0.0
C39 C 0.3101 0.07964 0.27687 0.0
C40 C 0.41646 0.50014 0.33025 0.0
N41 N 0.4086 0.45784 0.30192 0.0
C42 C 0.40981 0.54173 0.31297 0.0
C43 C 0.40108 0.54361 0.26524 0.0
C44 C 0.40341 0.50517 0.23542 0.0
C45 C 0.40955 0.46412 0.25381 0.0
C46 C 0.53087 0.38509 0.42066 0.0
C47 C 0.4319 0.33527 0.43549 0.0
C48 C 0.49145 0.36948 0.38029 0.0
N49 N 0.44042 0.34666 0.38786 0.0
C50 C 0.47356 0.34697 0.47511 0.0
C51 C 0.52122 0.37279 0.46843 0.0
C52 C 0.33742 0.27236 0.38532 0.0
C53 C 0.17835 0.25661 0.30305 0.0
C54 C 0.24278 0.20558 0.34068 0.0
C55 C 0.19703 0.20103 0.35548 0.0
C56 C 0.16467 0.22691 0.33659 0.0
N57 N 0.25651 0.2357 0.30861 0.0
C58 C 0.22457 0.26041 0.28936 0.0
Co59 Co 0.98614 0.09297 0.51895 0.0
Co60 Co 0.96439 0.97324 0.5049 0.0
O61 O 0.99704 0.03327 0.48899 0.0
C62 C 0.9656 0.14284 0.43669 0.0
O63 O 0.91965 0.12664 0.43468 0.0
C64 C 0.06296 0.95219 0.48282 0.0
O65 O 0.07475 0.99152 0.46499 0.0
O66 O 0.98354 0.9926 0.57371 0.0
O67 O 0.97727 0.0675 0.57978 0.0
H68 H 0.84224 0.87283 0.58524 0.0
H69 H 0.0723 0.09075 0.46891 0.0
O70 O 0.99559 0.12231 0.45865 0.0
H71 H 0.13352 0.14186 0.63421 0.0
H72 H 0.02652 0.26488 0.56499 0.0
H73 H 0.91252 0.12219 0.57598 0.0
H74 H 0.04696 0.12792 0.60944 0.0
H75 H 0.03892 0.19066 0.52662 0.0
O76 O 0.02429 0.94389 0.50248 0.0
H77 H 0.88622 0.94609 0.56461 0.0
H78 H 0.9708 0.87284 0.48138 0.0
H79 H 0.89714 0.19622 0.6122 0.0
H80 H 0.1593 0.105 0.49215 0.0
H81 H 0.95426 0.26829 0.60662 0.0
H82 H 0.19019 0.12926 0.57558 0.0
O83 O 0.91547 0.07564 0.50121 0.0
H84 H 0.98982 0.95942 0.33269 0.0
H85 H 0.87909 0.91258 0.44893 0.0
H86 H 0.86637 0.87153 0.36998 0.0
H87 H 0.92109 0.89549 0.31051 0.0
H88 H 1.00514 0.9952 0.41365 0.0
H89 H 0.92903 0.79924 0.50288 0.0
H90 H 0.86381 0.79866 0.55477 0.0
O91 O 0.9032 0.99931 0.50696 0.0
C92 C 0.98342 0.03088 0.59784 0.0
C93 C 0.87072 0.87264 0.56272 0.0
C94 C 0.91961 0.83137 0.51678 0.0
N95 N 0.93169 0.91438 0.52219 0.0
C96 C 0.89568 0.91412 0.55062 0.0
C97 C 0.94374 0.87348 0.50533 0.0
C98 C 0.88289 0.83105 0.54571 0.0
C99 C 0.08559 0.10245 0.50506 0.0
N100 N 0.0545 0.10841 0.53768 0.0
C101 C 0.13486 0.11022 0.51806 0.0
C102 C 0.15221 0.12405 0.56486 0.0
C103 C 0.12039 0.13078 0.59783 0.0
C104 C 0.07137 0.12267 0.58357 0.0
C105 C 1.00112 0.23374 0.56728 0.0
C106 C 0.93718 0.15343 0.57271 0.0
C107 C 1.00809 0.19149 0.54582 0.0
N108 N 0.97621 0.15195 0.54854 0.0
C109 C 0.92845 0.19523 0.59364 0.0
C110 C 0.96056 0.23564 0.59059 0.0
C111 C 0.88766 0.03736 0.50272 0.0
C112 C 0.96615 0.94799 0.35847 0.0
C113 C 0.9048 0.92192 0.42443 0.0
C114 C 0.89663 0.89911 0.37919 0.0
C115 C 0.92752 0.91233 0.34596 0.0
N116 N 0.94573 0.95329 0.43807 0.0
C117 C 0.97479 0.96807 0.40488 0.0
Co118 Co 0.26533 0.64104 0.81817 0.0
Co119 Co 0.3062 0.75541 0.81033 0.0
O120 O 0.31333 0.6908 0.80172 0.0
C121 C 0.30647 0.59851 0.89627 0.0
O122 O 0.2809 0.61884 0.92459 0.0
C123 C 0.28203 0.78078 0.71508 0.0
O124 O 0.24335 0.79245 0.73073 0.0
O125 O 0.23463 0.73956 0.79833 0.0
O126 O 0.21513 0.66356 0.7792 0.0
H127 H 0.23355 0.88788 0.87544 0.0
H128 H 0.35483 0.62124 0.78513 0.0
O129 O 0.31466 0.61517 0.85759 0.0
H130 H 0.22961 0.53391 0.66824 0.0
H131 H 0.18639 0.47418 0.82062 0.0
H132 H 0.17505 0.63668 0.86388 0.0
H133 H 0.208 0.58433 0.73282 0.0
H134 H 0.24955 0.53605 0.80454 0.0
O135 O 0.31024 0.7621 0.74164 0.0
H136 H 0.24326 0.80642 0.86306 0.0
H137 H 0.35709 0.84322 0.77989 0.0
H138 H 0.11779 0.57526 0.88998 0.0
H139 H 0.37745 0.5739 0.71918 0.0
H140 H 0.12014 0.49325 0.86486 0.0
H141 H 0.31444 0.52968 0.65993 0.0
O142 O 0.253 0.68092 0.87584 0.0
H143 H 0.47476 0.75081 0.77458 0.0
H144 H 0.37383 0.81001 0.88789 0.0
H145 H 0.46157 0.82865 0.90433 0.0
H146 H 0.51272 0.79924 0.84729 0.0
H147 H 0.38676 0.73255 0.7598 0.0
H148 H 0.34879 0.92511 0.79161 0.0
H149 H 0.28635 0.94783 0.83933 0.0
O150 O 0.30198 0.74911 0.87731 0.0
C151 C 0.20461 0.70367 0.78153 0.0
C152 C 0.26075 0.87838 0.85441 0.0
C153 C 0.32543 0.89929 0.80736 0.0
N154 N 0.30058 0.82006 0.82066 0.0
C155 C 0.26648 0.83233 0.84735 0.0
C156 C 0.33005 0.85289 0.80097 0.0
C157 C 0.29036 0.91199 0.8341 0.0
C158 C 0.32701 0.60245 0.75934 0.0
N159 N 0.27997 0.60488 0.76346 0.0
C160 C 0.34018 0.57574 0.722 0.0
C161 C 0.30483 0.55106 0.68877 0.0
C162 C 0.25712 0.55398 0.693 0.0
C163 C 0.24519 0.58235 0.72986 0.0
C164 C 0.18382 0.50983 0.83041 0.0
C165 C 0.17884 0.60129 0.85526 0.0
C166 C 0.21914 0.54542 0.82043 0.0
N167 N 0.21628 0.59076 0.83234 0.0
C168 C 0.145 0.56649 0.86888 0.0
C169 C 0.14685 0.52051 0.85543 0.0
C170 C 0.27435 0.71999 0.89679 0.0
C171 C 0.45288 0.76406 0.79958 0.0
C172 C 0.39582 0.79688 0.863 0.0
C173 C 0.44551 0.80759 0.87249 0.0
C174 C 0.47416 0.79111 0.84045 0.0
N175 N 0.37523 0.77078 0.82258 0.0
C176 C 0.40305 0.75406 0.79125 0.0
Co177 Co 0.5637 0.99656 0.0953 0.0
Co178 Co 0.54458 0.00742 0.97739 0.0
O179 O 0.52928 0.01951 0.04262 0.0
C180 C 0.49377 0.95447 0.15546 0.0
O181 O 0.50368 0.91442 0.13986 0.0
C182 C 0.52082 0.10373 0.98594 0.0
O183 O 0.52665 0.10542 0.03194 0.0
O184 O 0.61437 0.03254 0.99613 0.0
O185 O 0.6229 0.9982 0.0621 0.0
H186 H 0.63932 0.9474 0.85395 0.0
H187 H 0.51237 0.06918 0.13459 0.0
O188 O 0.50622 0.98995 0.13325 0.0
H189 H 0.67826 0.14869 0.136 0.0
H190 H 0.61639 0.99093 0.26629 0.0
H191 H 0.61051 0.91439 0.10638 0.0
H192 H 0.65674 0.06682 0.10872 0.0
H193 H 0.58884 0.02792 0.19831 0.0
O194 O 0.5316 0.06996 0.96091 0.0
H195 H 0.61873 0.96327 0.93444 0.0
H196 H 0.50337 0.02625 0.88261 0.0
H197 H 0.63059 0.87312 0.17421 0.0
H198 H 0.5339 0.15002 0.16596 0.0
H199 H 0.63536 0.91194 0.2551 0.0
H200 H 0.61736 0.19091 0.16668 0.0
O201 O 0.54088 0.93307 0.06394 0.0
H202 H 0.36739 1.0025 0.97946 0.0
H203 H 0.49182 0.92425 0.91673 0.0
H204 H 0.40674 0.89226 0.89319 0.0
H205 H 0.34395 0.93062 0.92559 0.0
H206 H 0.45243 0.03426 1.00101 0.0
H207 H 0.5229 0.01109 0.80149 0.0
H208 H 0.59079 0.97068 0.78678 0.0
O209 O 0.55559 0.94367 0.98957 0.0
C210 C 0.64025 0.01658 0.02734 0.0
C211 C 0.60943 0.96473 0.85993 0.0
C212 C 0.54416 1.00059 0.83051 0.0
N213 N 0.55979 0.99556 0.91336 0.0
C214 C 0.59756 0.97382 0.90548 0.0
C215 C 0.53342 0.00925 0.87658 0.0
C216 C 0.58234 0.97803 0.82226 0.0
C217 C 0.54942 0.08512 0.13678 0.0
N218 N 0.58352 0.06111 0.12183 0.0
C219 C 0.56114 0.13171 0.15382 0.0
C220 C 0.60781 0.15472 0.15392 0.0
C221 C 0.64192 0.13103 0.1367 0.0
C222 C 0.62916 0.08414 0.12088 0.0
C223 C 0.61551 0.97403 0.23131 0.0
C224 C 0.61132 0.93137 0.14126 0.0
C225 C 0.60067 0.99527 0.19224 0.0
N226 N 0.59779 0.97356 0.14778 0.0
C227 C 0.62313 0.90784 0.17967 0.0
C228 C 0.62572 0.92957 0.22499 0.0
C229 C 0.54418 0.9177 0.02165 0.0
C230 C 0.39447 0.98535 0.96516 0.0
C231 C 0.46473 0.94186 0.9302 0.0
C232 C 0.41661 0.92324 0.91706 0.0
C233 C 0.38134 0.94503 0.93492 0.0
N234 N 0.47741 0.98193 0.9593 0.0
C235 C 0.44289 1.00337 0.97703 0.0
Co236 Co 0.27228 0.67842 0.23067 0.0
Co237 Co 0.30099 0.73873 0.3397 0.0
O238 O 0.26936 0.73054 0.27566 0.0
C239 C 0.29742 0.75515 0.17072 0.0
O240 O 0.33114 0.77539 0.20351 0.0
C241 C 0.22017 0.76255 0.39753 0.0
O242 O 0.22963 0.7357 0.43017 0.0
O243 O 0.27321 0.67213 0.35109 0.0
O244 O 0.27154 0.63441 0.28018 0.0
H245 H 0.39687 0.69172 0.47699 0.0
H246 H 0.19884 0.73687 0.21597 0.0
O247 O 0.27054 0.71784 0.17728 0.0
H248 H 0.10798 0.58201 0.22794 0.0
H249 H 0.20155 0.55692 0.10306 0.0
H250 H 0.33429 0.60851 0.2262 0.0
H251 H 0.19586 0.59426 0.22836 0.0
H252 H 0.21561 0.63624 0.14021 0.0
O253 O 0.2423 0.76276 0.36059 0.0
H254 H 0.35783 0.68382 0.39573 0.0
H255 H 0.31138 0.81237 0.42085 0.0
H256 H 0.32744 0.53184 0.18187 0.0
H257 H 0.11088 0.7253 0.21057 0.0
H258 H 0.2591 0.50463 0.12133 0.0
H259 H 0.06478 0.64738 0.2172 0.0
O260 O 0.34444 0.69438 0.23882 0.0
H261 H 0.2936 0.89305 0.27926 0.0
H262 H 0.39573 0.80114 0.36503 0.0
H263 H 0.42727 0.88186 0.35488 0.0
H264 H 0.37652 0.92858 0.31133 0.0
H265 H 0.26266 0.81249 0.29147 0.0
H266 H 0.34973 0.82152 0.5019 0.0
H267 H 0.39322 0.76102 0.5306 0.0
O268 O 0.36147 0.72036 0.31579 0.0
C269 C 0.26673 0.63442 0.32372 0.0
C270 C 0.37827 0.71838 0.46487 0.0
C271 C 0.3518 0.79121 0.47901 0.0
N272 N 0.33191 0.74728 0.40368 0.0
C273 C 0.35596 0.71402 0.41901 0.0
C274 C 0.32984 0.78566 0.43302 0.0
C275 C 0.37613 0.75729 0.495 0.0
C276 C 0.17908 0.70264 0.21791 0.0
N277 N 0.20264 0.66636 0.22362 0.0
C278 C 0.12923 0.69638 0.21506 0.0
C279 C 0.1034 0.65269 0.21875 0.0
C280 C 0.12761 0.61588 0.22448 0.0
C281 C 0.17742 0.62325 0.22607 0.0
C282 C 0.23276 0.56887 0.12746 0.0
C283 C 0.30715 0.59827 0.19693 0.0
C284 C 0.24046 0.61361 0.14944 0.0
N285 N 0.27507 0.62641 0.18623 0.0
C286 C 0.30288 0.5546 0.1727 0.0
C287 C 0.26455 0.53936 0.13858 0.0
C288 C 0.37443 0.7107 0.27467 0.0
C289 C 0.31617 0.8732 0.29838 0.0
C290 C 0.37286 0.82127 0.34682 0.0
C291 C 0.39117 0.86703 0.34084 0.0
C292 C 0.36265 0.89312 0.31638 0.0
N293 N 0.32701 0.80203 0.32958 0.0
C294 C 0.29885 0.82744 0.30542 0.0
Co295 Co 0.5038 0.06791 0.49785 0.0
Co296 Co 0.54069 0.96974 0.5347 0.0
O297 O 0.50832 0.02349 0.54485 0.0
C298 C 0.5272 0.16246 0.55041 0.0
O299 O 0.5652 0.16906 0.52747 0.0
C300 C 0.44382 0.92065 0.5487 0.0
O301 O 0.42388 0.94512 0.51895 0.0
O302 O 0.51012 0.95153 0.46816 0.0
O303 O 0.50299 0.02015 0.44581 0.0
H304 H 0.64217 0.87217 0.45091 0.0
H305 H 0.43771 0.06481 0.57148 0.0
O306 O 0.50196 0.12181 0.54744 0.0
H307 H 0.33417 0.0071 0.42484 0.0
H308 H 0.4113 0.16176 0.39939 0.0
H309 H 0.55089 0.08467 0.41392 0.0
H310 H 0.42047 0.03218 0.42349 0.0
H311 H 0.435 0.13148 0.4735 0.0
O312 O 0.48881 0.92767 0.55888 0.0
H313 H 0.596 0.93545 0.46037 0.0
H314 H 0.55777 0.89283 0.59167 0.0
H315 H 0.53203 0.11914 0.34074 0.0
H316 H 0.35114 0.04131 0.57425 0.0
H317 H 0.45985 0.15538 0.33257 0.0
H318 H 0.29865 0.01197 0.50061 0.0
O319 O 0.57794 0.08158 0.49997 0.0
H320 H 0.54513 1.00192 0.70993 0.0
H321 H 0.64164 0.98338 0.57781 0.0
H322 H 0.68128 0.99664 0.65862 0.0
H323 H 0.63282 1.00401 0.72538 0.0
H324 H 0.50694 0.98953 0.62816 0.0
H325 H 0.60274 0.82873 0.58331 0.0
H326 H 0.64639 0.81877 0.51332 0.0
O327 O 0.59291 0.01039 0.51121 0.0
C328 C 0.50295 0.97783 0.43623 0.0
C329 C 0.62345 0.87627 0.48177 0.0
C330 C 0.60133 0.85189 0.55606 0.0
N331 N 0.57431 0.91798 0.52654 0.0
C332 C 0.59718 0.91198 0.48725 0.0
C333 C 0.57563 0.8881 0.56043 0.0
C334 C 0.6257 0.84625 0.51664 0.0
C335 C 0.41513 0.05313 0.53904 0.0
N336 N 0.43451 0.05084 0.49718 0.0
C337 C 0.3661 0.0394 0.54094 0.0
C338 C 0.33671 0.02279 0.49966 0.0
C339 C 0.35662 0.01999 0.45717 0.0
C340 C 0.4058 0.03397 0.45665 0.0
C341 C 0.44288 0.14609 0.40274 0.0
C342 C 0.52297 0.10507 0.41216 0.0
C343 C 0.45681 0.1292 0.44481 0.0
N344 N 0.49605 0.10819 0.44885 0.0
C345 C 0.51108 0.12281 0.37005 0.0
C346 C 0.4704 0.14295 0.36532 0.0
C347 C 0.60671 0.05173 0.50238 0.0
C348 C 0.56656 0.99808 0.68105 0.0
C349 C 0.62041 0.98828 0.6065 0.0
C350 C 0.64302 0.99523 0.65227 0.0
C351 C 0.61572 0.9994 0.68974 0.0
N352 N 0.57195 0.98545 0.59821 0.0
C353 C 0.54516 0.99116 0.63472 0.0
Co354 Co 0.25695 0.30112 0.71461 0.0
Co355 Co 0.24342 0.23662 0.80952 0.0
O356 O 0.26436 0.24608 0.74654 0.0
C357 C 0.23675 0.22787 0.62726 0.0
O358 O 0.24665 0.19174 0.64747 0.0
C359 C 0.34541 0.22375 0.82218 0.0
O360 O 0.3563 0.25718 0.79551 0.0
O361 O 0.27772 0.29902 0.83711 0.0
O362 O 0.27482 0.33999 0.77477 0.0
H363 H 0.17192 0.27817 0.95762 0.0
H364 H 0.32276 0.2379 0.6844 0.0
O365 O 0.23881 0.26651 0.65108 0.0
H366 H 0.42284 0.39219 0.71308 0.0
H367 H 0.28773 0.40774 0.59031 0.0
H368 H 0.21622 0.3857 0.73837 0.0
H369 H 0.33753 0.38139 0.72547 0.0
H370 H 0.28731 0.33585 0.62606 0.0
O371 O 0.30209 0.21019 0.82939 0.0
H372 H 0.20097 0.29155 0.88061 0.0
H373 H 0.23972 0.15844 0.86923 0.0
H374 H 0.21312 0.45809 0.70158 0.0
H375 H 0.4074 0.24731 0.67018 0.0
H376 H 0.24709 0.46849 0.62524 0.0
H377 H 0.45838 0.32485 0.68516 0.0
O378 O 0.18693 0.29239 0.724 0.0
H379 H 0.2279 0.08999 0.70491 0.0
H380 H 0.14335 0.1854 0.8061 0.0
H381 H 0.09755 0.11883 0.75575 0.0
H382 H 0.13986 0.07066 0.70388 0.0
H383 H 0.27195 0.15932 0.75333 0.0
H384 H 0.21107 0.14366 0.94613 0.0
H385 H 0.17648 0.20364 0.99047 0.0
O386 O 0.18405 0.26253 0.79335 0.0
C387 C 0.28487 0.33675 0.81815 0.0
C388 C 0.1867 0.25171 0.93842 0.0
C389 C 0.20876 0.17622 0.93201 0.0
N390 N 0.22178 0.22571 0.87039 0.0
C391 C 0.20321 0.25907 0.89484 0.0
C392 C 0.22498 0.18481 0.88855 0.0
C393 C 0.18939 0.20991 0.95694 0.0
C394 C 0.34407 0.27188 0.68982 0.0
N395 N 0.32458 0.30905 0.70496 0.0
C396 C 0.39229 0.27696 0.6822 0.0
C397 C 0.42088 0.32045 0.69062 0.0
C398 C 0.40101 0.3582 0.70641 0.0
C399 C 0.35265 0.35178 0.71359 0.0
C400 C 0.26991 0.4028 0.62149 0.0
C401 C 0.23075 0.39015 0.7052 0.0
C402 C 0.26986 0.36197 0.6423 0.0
N403 N 0.25081 0.35613 0.68388 0.0
C404 C 0.22909 0.43123 0.6846 0.0
C405 C 0.24829 0.43721 0.64206 0.0
C406 C 0.16435 0.27879 0.75833 0.0
C407 C 0.20914 0.11054 0.72731 0.0
C408 C 0.16213 0.16446 0.78423 0.0
C409 C 0.13598 0.12643 0.75595 0.0
C410 C 0.15968 0.09957 0.72698 0.0
N411 N 0.21026 0.17646 0.78237 0.0
C412 C 0.23399 0.14948 0.75527 0.0
Co413 Co 0.96589 0.93043 0.91869 0.0
Co414 Co 0.99064 0.05338 0.96824 0.0
O415 O 0.98992 0.98686 0.97303 0.0
C416 C 0.9089 0.90966 0.01268 0.0
O417 O 0.88279 0.93158 0.03893 0.0
C418 C 0.08456 0.05925 0.03314 0.0
O419 O 0.07426 0.01661 0.04356 0.0
O420 O 0.02128 0.04903 0.90892 0.0
O421 O 0.97745 0.98257 0.87368 0.0
H422 H 0.9483 0.18309 0.881 0.0
H423 H 1.00685 0.81668 0.97707 0.0
O424 O 0.90881 0.91841 0.9677 0.0
H425 H 0.14704 0.84291 0.88975 0.0
H426 H 0.92253 0.81623 0.74532 0.0
H427 H 0.86551 0.93386 0.85905 0.0
H428 H 0.08438 0.88327 0.87081 0.0
H429 H 0.97741 0.86776 0.79879 0.0
O430 O 0.05632 0.07515 0.00421 0.0
H431 H 0.95575 0.10324 0.8908 0.0
H432 H 0.02178 0.14253 0.03007 0.0
H433 H 0.80423 0.85878 0.80672 0.0
H434 H 0.07281 0.78089 0.9964 0.0
H435 H 0.83458 0.81549 0.74404 0.0
H436 H 0.14498 0.79338 0.95482 0.0
O437 O 0.90613 0.95969 0.93283 0.0
H438 H 0.95076 1.00525 0.12719 0.0
H439 H 0.91881 0.10797 0.00598 0.0
H440 H 0.8769 0.10972 0.07657 0.0
H441 H 0.89251 0.05815 0.13812 0.0
H442 H 0.99152 1.00392 0.05607 0.0
H443 H 0.01892 0.22413 0.02026 0.0
H444 H 0.98116 0.24518 0.94587 0.0
O445 O 0.92717 0.03597 0.93168 0.0
C446 C 1.00408 0.02179 0.8725 0.0
C447 C 0.96573 0.1751 0.91346 0.0
C448 C 1.00516 0.1978 0.99162 0.0
N449 N 0.98943 0.11799 0.96085 0.0
C450 C 0.96951 0.12947 0.9194 0.0
C451 C 1.00747 0.15156 0.99665 0.0
C452 C 0.98392 0.20955 0.94976 0.0
C453 C 0.03643 0.82593 0.95664 0.0
N454 N 0.03756 0.8596 0.92421 0.0
C455 C 0.07502 0.80417 0.9692 0.0
C456 C 0.11537 0.81089 0.94592 0.0
C457 C 0.11631 0.83852 0.90961 0.0
C458 C 0.07828 0.86161 0.89907 0.0
C459 C 0.90908 0.83628 0.77283 0.0
C460 C 0.87634 0.90647 0.83853 0.0
C461 C 0.9424 0.8692 0.80802 0.0
N462 N 0.9254 0.90475 0.84299 0.0
C463 C 0.84194 0.86837 0.80529 0.0
C464 C 0.85918 0.83757 0.77049 0.0
C465 C 0.89625 1.00116 0.9367 0.0
C466 C 0.94413 0.02843 0.10097 0.0
C467 C 0.92707 0.08591 0.03252 0.0
C468 C 0.9027 0.08692 0.07259 0.0
C469 C 0.91138 0.05797 0.10704 0.0
N470 N 0.95961 0.05708 0.02659 0.0
C471 C 0.96778 0.02831 0.06039 0.0
Co472 Co 0.7887 0.20282 0.74309 0.0
Co473 Co 0.80432 0.25116 0.85576 0.0
O474 O 0.77749 0.24938 0.79062 0.0
C475 C 0.81337 0.27489 0.67633 0.0
O476 O 0.8546 0.29053 0.70126 0.0
C477 C 0.72008 0.27112 0.90927 0.0
O478 O 0.72831 0.2433 0.94136 0.0
O479 O 0.77383 0.18401 0.85744 0.0
O480 O 0.79511 0.15585 0.78963 0.0
H481 H 0.88538 0.18736 0.99201 0.0
H482 H 0.70522 0.24834 0.72571 0.0
O483 O 0.78204 0.2455 0.69207 0.0
H484 H 0.63709 0.08544 0.73539 0.0
H485 H 0.75176 0.10221 0.59015 0.0
H486 H 0.86749 0.15105 0.7299 0.0
H487 H 0.72442 0.11025 0.74048 0.0
H488 H 0.73631 0.15956 0.65068 0.0
O489 O 0.74439 0.27357 0.87396 0.0
H490 H 0.85297 0.18814 0.90957 0.0
H491 H 0.81146 0.31786 0.94255 0.0
H492 H 0.88984 0.10548 0.66419 0.0
H493 H 0.61774 0.22387 0.71634 0.0
H494 H 0.83022 0.0748 0.59569 0.0
H495 H 0.5831 0.14174 0.72154 0.0
O496 O 0.85861 0.22737 0.75637 0.0
H497 H 0.80687 0.41425 0.81502 0.0
H498 H 0.89896 0.30846 0.89157 0.0
H499 H 0.93431 0.38992 0.89362 0.0
H500 H 0.88862 0.44399 0.85446 0.0
H501 H 0.77189 0.33217 0.81572 0.0
H502 H 0.84348 0.31851 0.02508 0.0
H503 H 0.88102 0.25307 0.05045 0.0
O504 O 0.86617 0.23328 0.83538 0.0
C505 C 0.77948 0.14971 0.82934 0.0
C506 C 0.86916 0.21612 0.98146 0.0
C507 C 0.84574 0.28974 1.00006 0.0
N508 N 0.8298 0.25269 0.92123 0.0
C509 C 0.85058 0.21667 0.93485 0.0
C510 C 0.82748 0.28908 0.9532 0.0
C511 C 0.86671 0.25298 0.01422 0.0
C512 C 0.69052 0.21229 0.72661 0.0
N513 N 0.72009 0.18079 0.73328 0.0
C514 C 0.6409 0.19873 0.72171 0.0
C515 C 0.6215 0.1527 0.72464 0.0
C516 C 0.65183 0.12091 0.73205 0.0
C517 C 0.70129 0.13544 0.73573 0.0
C518 C 0.77801 0.11376 0.61992 0.0
C519 C 0.84237 0.14159 0.69886 0.0
C520 C 0.76881 0.14534 0.65523 0.0
N521 N 0.80032 0.15789 0.69475 0.0
C522 C 0.85458 0.11369 0.66227 0.0
C523 C 0.82162 0.09822 0.62325 0.0
C524 C 0.88443 0.23503 0.7959 0.0
C525 C 0.82736 0.3912 0.83187 0.0
C526 C 0.87881 0.33127 0.87424 0.0
C527 C 0.8991 0.37768 0.87543 0.0
C528 C 0.87327 0.40784 0.85389 0.0
N529 N 0.83331 0.31533 0.85371 0.0
C530 C 0.80777 0.34461 0.8323 0.0
Co531 Co 0.02743 0.60863 0.99937 0.0
Co532 Co 0.04001 0.49883 0.01974 0.0
O533 O 0.01449 0.55579 0.03774 0.0
C534 C 0.04021 0.69819 0.06064 0.0
O535 O 0.08391 0.70637 0.04837 0.0
C536 C 0.93829 0.45606 0.03628 0.0
O537 O 0.91873 0.48779 0.01627 0.0
O538 O 1.00903 0.49506 0.95312 0.0
O539 O 0.03675 0.56766 0.94343 0.0
H540 H 0.12264 0.40162 0.91323 0.0
H541 H 0.94346 0.59701 0.05146 0.0
O542 O 0.01629 0.65681 0.05192 0.0
H543 H 0.87633 0.57442 0.88573 0.0
H544 H 0.98487 0.73751 0.90869 0.0
H545 H 0.10594 0.64004 0.94244 0.0
H546 H 0.96384 0.59694 0.90682 0.0
H547 H 0.97566 0.68436 0.97008 0.0
O548 O 0.98319 0.45716 0.03825 0.0
H549 H 0.09148 0.47117 0.94009 0.0
H550 H 0.04531 0.40864 0.05989 0.0
H551 H 0.11773 0.69486 0.8828 0.0
H552 H 0.85667 0.57425 0.0316 0.0
H553 H 0.05735 0.7438 0.86639 0.0
H554 H 0.82257 0.56317 0.94801 0.0
O555 O 0.09866 0.61332 0.02029 0.0
H556 H 0.03844 0.5115 0.19488 0.0
H557 H 0.13562 0.48592 0.06476 0.0
H558 H 0.16893 0.48134 0.14609 0.0
H559 H 0.12032 0.49416 0.21182 0.0
H560 H 1.00634 0.51537 0.11294 0.0
H561 H 0.07487 0.33785 0.03378 0.0
H562 H 0.1139 0.33404 0.95992 0.0
O563 O 0.09976 0.53759 1.00344 0.0
C564 C 0.01904 0.52683 0.92633 0.0
C565 C 0.10544 0.40273 0.94534 0.0
C566 C 0.07855 0.36694 0.01294 0.0
N567 N 0.06592 0.44386 1.00123 0.0
C568 C 0.08774 0.44208 0.96077 0.0
C569 C 0.06141 0.40696 0.02733 0.0
C570 C 0.10057 0.36486 0.97157 0.0
C571 C 0.92907 0.59305 0.01495 0.0
N572 N 0.95893 0.59877 0.98036 0.0
C573 C 0.87983 0.57963 0.00394 0.0
C574 C 0.86077 0.57321 0.9571 0.0
C575 C 0.89115 0.57977 0.922 0.0
C576 C 0.94047 0.59241 0.93423 0.0
C577 C 1.01157 0.71618 0.91606 0.0
C578 C 0.07977 0.66198 0.9361 0.0
C579 C 1.00677 0.68624 0.95101 0.0
N580 N 0.03986 0.65845 0.95961 0.0
C581 C 0.08637 0.6924 0.90174 0.0
C582 C 0.05181 0.71924 0.89164 0.0
C583 C 0.1215 0.57916 0.01414 0.0
C584 C 0.06013 0.5061 0.16651 0.0
C585 C 0.11451 0.4924 0.09312 0.0
C586 C 0.13345 0.48942 0.13914 0.0
C587 C 0.10602 0.49631 0.176 0.0
N588 N 0.06917 0.50119 0.08395 0.0
C589 C 0.04228 0.50855 0.12005 0.0
Co590 Co 0.75374 0.80558 0.21186 0.0
Co591 Co 0.73709 0.74505 0.3108 0.0
O592 O 0.76322 0.7537 0.24951 0.0
C593 C 0.74368 0.72652 0.13134 0.0
O594 O 0.75525 0.69465 0.15735 0.0
C595 C 0.84134 0.729 0.33158 0.0
O596 O 0.85276 0.73852 0.28975 0.0
O597 O 0.75759 0.81218 0.33457 0.0
O598 O 0.76631 0.84824 0.26954 0.0
H599 H 0.63159 0.77813 0.43562 0.0
H600 H 0.82663 0.74584 0.19167 0.0
O601 O 0.74063 0.76635 0.15006 0.0
H602 H 0.91561 0.90498 0.21064 0.0
H603 H 0.78879 0.9041 0.08099 0.0
H604 H 0.71472 0.89271 0.22907 0.0
H605 H 0.83018 0.88957 0.22172 0.0
H606 H 0.78269 0.83309 0.11948 0.0
O607 O 0.79928 0.73131 0.34283 0.0
H608 H 0.67182 0.79197 0.3645 0.0
H609 H 0.74311 0.67812 0.38332 0.0
H610 H 0.72154 0.96564 0.19182 0.0
H611 H 0.91143 0.75975 0.17846 0.0
H612 H 0.75812 0.97142 0.11682 0.0
H613 H 0.95677 0.83989 0.18777 0.0
O614 O 0.68174 0.79373 0.21723 0.0
H615 H 0.75447 0.59119 0.23073 0.0
H616 H 0.64632 0.67845 0.3105 0.0
H617 H 0.61751 0.59741 0.27971 0.0
H618 H 0.67166 0.55309 0.23947 0.0
H619 H 0.78172 0.67242 0.26167 0.0
H620 H 0.7057 0.6648 0.4563 0.0
H621 H 0.64883 0.71462 0.48258 0.0
O622 O 0.67438 0.75714 0.28266 0.0
C623 C 0.76725 0.84859 0.31365 0.0
C624 C 0.65667 0.75654 0.42496 0.0
C625 C 0.69809 0.6928 0.43638 0.0
N626 N 0.70969 0.73584 0.36959 0.0
C627 C 0.67929 0.76397 0.38442 0.0
C628 C 0.71951 0.7008 0.39521 0.0
C629 C 0.66623 0.72076 0.45113 0.0
C630 C 0.84533 0.78079 0.19479 0.0
N631 N 0.82243 0.81673 0.20606 0.0
C632 C 0.89379 0.78848 0.18784 0.0
C633 C 0.91925 0.83341 0.19323 0.0
C634 C 0.8962 0.86989 0.20606 0.0
C635 C 0.84771 0.86084 0.21266 0.0
C636 C 0.771 0.90161 0.1126 0.0
C637 C 0.7301 0.89473 0.19612 0.0
C638 C 0.76671 0.8609 0.13444 0.0
N639 N 0.74698 0.85787 0.17611 0.0
C640 C 0.73396 0.93619 0.17523 0.0
C641 C 0.75443 0.93947 0.13313 0.0
C642 C 0.65639 0.77448 0.2475 0.0
C643 C 0.73063 0.61 0.24855 0.0
C644 C 0.6704 0.65941 0.29345 0.0
C645 C 0.65375 0.61348 0.27596 0.0
C646 C 0.68416 0.58866 0.25338 0.0
N647 N 0.71614 0.68014 0.28881 0.0
C648 C 0.74605 0.65603 0.26651 0.0
Co649 Co 0.06851 0.48486 0.58723 0.0
Co650 Co 0.04869 0.5022 0.47123 0.0
O651 O 0.03971 0.51693 0.53786 0.0
C652 C 0.99319 0.45447 0.64786 0.0
O653 O 0.9924 0.41214 0.62935 0.0
C654 C 0.0278 0.60079 0.47537 0.0
O655 O 0.02314 0.60281 0.52054 0.0
O656 O 0.12075 0.51691 0.48703 0.0
O657 O 0.12435 0.47816 0.55088 0.0
H658 H 0.11699 0.42036 0.33968 0.0
H659 H 0.03573 0.57044 0.62022 0.0
O660 O 0.014 0.48857 0.62777 0.0
H661 H 0.21139 0.61024 0.63645 0.0
H662 H 0.11284 0.45746 0.7545 0.0
H663 H 0.10464 0.39597 0.58852 0.0
H664 H 0.17105 0.52997 0.61247 0.0
H665 H 0.0948 0.50516 0.6912 0.0
O666 O 0.04558 0.56794 0.45567 0.0
H667 H 0.10831 0.44386 0.42227 0.0
H668 H 1.00947 0.52934 0.37888 0.0
H669 H 0.12244 0.34686 0.65092 0.0
H670 H 0.07452 0.64992 0.64775 0.0
H671 H 0.12458 0.37693 0.73467 0.0
H672 H 0.16314 0.67043 0.65573 0.0
O673 O 0.03346 0.42534 0.55471 0.0
H674 H 0.87699 0.51467 0.49284 0.0
H675 H 0.98258 0.42986 0.40657 0.0
H676 H 0.8956 0.40979 0.38764 0.0
H677 H 0.84193 0.45095 0.4319 0.0
H678 H 0.96346 0.5352 0.50954 0.0
H679 H 0.01981 0.50913 0.29599 0.0
H680 H 0.07305 0.45341 0.27583 0.0
O681 O 0.04959 0.43557 0.48101 0.0
C682 C 0.1441 0.49755 0.51775 0.0
C683 C 0.09382 0.44478 0.34804 0.0
C684 C 0.03931 0.49462 0.32352 0.0
N685 N 0.05828 0.48788 0.40569 0.0
C686 C 0.08853 0.45807 0.3948 0.0
C687 C 0.03417 0.50647 0.37066 0.0
C688 C 0.06911 0.4633 0.31222 0.0
C689 C 0.07431 0.57831 0.62573 0.0
N690 N 0.10114 0.54497 0.61609 0.0
C691 C 0.09608 0.62371 0.6406 0.0
C692 C 0.14575 0.63523 0.64486 0.0
C693 C 0.17285 0.6013 0.63445 0.0
C694 C 0.14984 0.55596 0.62072 0.0
C695 C 0.11142 0.44377 0.71818 0.0
C696 C 0.1066 0.4097 0.62483 0.0
C697 C 0.10176 0.47086 0.68204 0.0
N698 N 0.09727 0.45299 0.63606 0.0
C699 C 0.11635 0.38157 0.66003 0.0
C700 C 0.1177 0.3985 0.707 0.0
C701 C 0.0341 0.41014 0.51204 0.0
C702 C 0.89996 0.49656 0.47297 0.0
C703 C 0.95988 0.44968 0.42467 0.0
C704 C 0.91042 0.43734 0.41435 0.0
C705 C 0.88032 0.46079 0.43883 0.0
N706 N 0.97922 0.48602 0.45707 0.0
C707 C 0.94957 0.50856 0.4818 0.0
Co708 Co 0.50071 0.606 0.05145 0.0
Co709 Co 0.47551 0.48754 0.02406 0.0
O710 O 0.511 0.54904 0.01587 0.0
C711 C 0.51708 0.6512 0.95568 0.0
O712 O 0.53565 0.62213 0.92885 0.0
C713 C 0.56626 0.46322 0.99142 0.0
O714 O 0.5654 0.49448 0.96143 0.0
O715 O 0.49088 0.49837 0.09401 0.0
O716 O 0.49406 0.57435 0.10869 0.0
H717 H 0.33309 0.35889 0.99814 0.0
H718 H 0.58552 0.60374 0.99917 0.0
O719 O 0.50672 0.64251 0.99654 0.0
H720 H 0.64973 0.64143 0.16529 0.0
H721 H 0.53773 0.77635 0.10427 0.0
H722 H 0.4298 0.62961 0.11528 0.0
H723 H 0.56343 0.63601 0.14148 0.0
H724 H 0.55156 0.70393 0.06304 0.0
O725 O 0.53533 0.45894 0.0211 0.0
H726 H 0.38029 0.43366 0.98455 0.0
H727 H 0.49402 0.41239 0.08185 0.0
H728 H 0.41286 0.70178 0.1544 0.0
H729 H 0.67186 0.61025 0.02115 0.0
H730 H 0.46726 0.77579 0.14937 0.0
H731 H 0.70392 0.62617 0.10495 0.0
O732 O 0.42958 0.59098 0.03407 0.0
H733 H 0.47732 0.39697 0.86893 0.0
H734 H 0.45157 0.54462 0.94712 0.0
H735 H 0.45956 0.53801 0.8623 0.0
H736 H 0.47416 0.46421 0.8229 0.0
H737 H 0.47282 0.40601 0.95418 0.0
H738 H 0.44831 0.33726 0.0962 0.0
H739 H 0.36714 0.31012 0.05434 0.0
O740 O 0.41459 0.5135 0.02803 0.0
C741 C 0.495 0.53469 0.12224 0.0
C742 C 0.36837 0.37037 0.01669 0.0
C743 C 0.43308 0.35818 0.07164 0.0
N744 N 0.43976 0.42744 0.03252 0.0
C745 C 0.39514 0.41277 0.00931 0.0
C746 C 0.45883 0.40072 0.06329 0.0
C747 C 0.38752 0.34301 0.04818 0.0
C748 C 0.59945 0.61347 0.03535 0.0
N749 N 0.56935 0.61999 0.06879 0.0
C750 C 0.64838 0.61645 0.04772 0.0
C751 C 0.66643 0.62579 0.09479 0.0
C752 C 0.6359 0.63392 0.12864 0.0
C753 C 0.58714 0.63091 0.11491 0.0
C754 C 0.51379 0.74431 0.10676 0.0
C755 C 0.45344 0.6617 0.11253 0.0
C756 C 0.52162 0.70308 0.08377 0.0
N757 N 0.49161 0.66241 0.0868 0.0
C758 C 0.44374 0.70246 0.1349 0.0
C759 C 0.47422 0.74398 0.13201 0.0
C760 C 0.4005 0.55264 0.03018 0.0
C761 C 0.47166 0.42949 0.88583 0.0
C762 C 0.45697 0.51209 0.93022 0.0
C763 C 0.46198 0.50872 0.8822 0.0
C764 C 0.47022 0.46732 0.86011 0.0
N765 N 0.46248 0.47605 0.956 0.0
C766 C 0.46787 0.43454 0.93402 0.0
Co767 Co 0.89263 0.84258 0.84556 0.0
Co768 Co 0.85094 0.71616 0.81331 0.0
O769 O 0.83951 0.78176 0.82011 0.0
C770 C 0.79427 0.88857 0.89157 0.0
O771 O 0.76851 0.87866 0.92625 0.0
C772 C 0.7889 0.70868 0.71496 0.0
O773 O 0.77146 0.74704 0.7199 0.0
O774 O 0.91163 0.73484 0.78529 0.0
O775 O 0.94361 0.79578 0.83589 0.0
H776 H 0.96061 0.60184 0.8205 0.0
H777 H 0.82631 0.90939 0.73745 0.0
O778 O 0.83078 0.86481 0.88824 0.0
H779 H 0.99119 0.946 0.70042 0.0
H780 H 0.06841 0.96331 0.89834 0.0
H781 H 0.95194 0.86056 0.90664 0.0
H782 H 0.97623 0.94304 0.78094 0.0
H783 H 0.01516 0.91531 0.84203 0.0
O784 O 0.81745 0.69813 0.74755 0.0
H785 H 0.93677 0.67606 0.8386 0.0
H786 H 0.79428 0.62133 0.7812 0.0
H787 H 1.00487 0.90357 0.01207 0.0
H788 H 0.8412 0.92995 0.66136 0.0
H789 H 0.06785 0.95325 0.98383 0.0
H790 H 0.92431 0.94105 0.63916 0.0
O791 O 0.87734 0.80223 0.89963 0.0
H792 H 0.68008 0.72339 0.83978 0.0
H793 H 0.81737 0.64702 0.88037 0.0
H794 H 0.74241 0.62463 0.91537 0.0
H795 H 0.67307 0.6632 0.89556 0.0
H796 H 0.75547 0.74437 0.80507 0.0
H797 H 0.81616 0.54452 0.76556 0.0
H798 H 0.90061 0.5344 0.78376 0.0
O799 O 0.88573 0.73007 0.8767 0.0
C800 C 0.94787 0.76207 0.8063 0.0
C801 C 0.924 0.60515 0.81201 0.0
C802 C 0.84296 0.57333 0.78126 0.0
N803 N 0.86456 0.65367 0.80971 0.0
C804 C 0.91021 0.64759 0.82219 0.0
C805 C 0.83075 0.6169 0.7905 0.0
C806 C 0.89026 0.56769 0.79134 0.0
C807 C 0.86345 0.91905 0.73286 0.0
N808 N 0.90085 0.91295 0.766 0.0
C809 C 0.87113 0.92957 0.68728 0.0
C810 C 0.9172 0.93587 0.67462 0.0
C811 C 0.95475 0.93947 0.70911 0.0
C812 C 0.94516 0.93589 0.7554 0.0
C813 C 0.03995 0.93929 0.91013 0.0
C814 C 0.96112 0.86807 0.94314 0.0
C815 C 1.00647 0.90596 0.87588 0.0
N816 N 0.96401 0.86919 0.89266 0.0
C817 C 0.99896 0.90337 0.97567 0.0
C818 C 0.03924 0.93415 0.95924 0.0
C819 C 0.87467 0.75924 0.90674 0.0
C820 C 0.70998 0.70624 0.84862 0.0
C821 C 0.78727 0.66349 0.87068 0.0
C822 C 0.74487 0.65075 0.89091 0.0
C823 C 0.70605 0.67245 0.87988 0.0
N824 N 0.79111 0.69691 0.84019 0.0
C825 C 0.75291 0.71795 0.82895 0.0
Co826 Co 0.75279 0.17301 0.31203 0.0
Co827 Co 0.80143 0.28816 0.30802 0.0
O828 O 0.80054 0.22198 0.29304 0.0
C829 C 0.80503 0.11837 0.37291 0.0
O830 O 0.78029 0.13098 0.40658 0.0
C831 C 0.78175 0.32188 0.21481 0.0
O832 O 0.74451 0.33548 0.23165 0.0
O833 O 0.73043 0.27969 0.29636 0.0
O834 O 0.6996 0.20409 0.28738 0.0
H835 H 0.74073 0.42606 0.37791 0.0
H836 H 0.82796 0.15861 0.25135 0.0
O837 O 0.80501 0.13944 0.33581 0.0
H838 H 0.68515 0.05049 0.18158 0.0
H839 H 0.67539 0.0103 0.33806 0.0
H840 H 0.66995 0.17631 0.3638 0.0
H841 H 0.67763 0.11278 0.24186 0.0
H842 H 0.7322 0.06701 0.30357 0.0
O843 O 0.80732 0.29895 0.2396 0.0
H844 H 0.74515 0.34332 0.36477 0.0
H845 H 0.86056 0.374 0.28202 0.0
H846 H 0.61913 0.12264 0.40441 0.0
H847 H 0.83384 0.10515 0.18295 0.0
H848 H 0.61824 0.03755 0.38979 0.0
H849 H 0.76202 0.04933 0.14829 0.0
O850 O 0.75511 0.20742 0.37562 0.0
H851 H 0.96587 0.27097 0.26767 0.0
H852 H 0.8729 0.33145 0.38781 0.0
H853 H 0.96069 0.34457 0.40176 0.0
H854 H 1.00799 0.31382 0.34188 0.0
H855 H 0.87782 0.25996 0.25443 0.0
H856 H 0.85741 0.45708 0.29429 0.0
H857 H 0.79673 0.48353 0.34203 0.0
O858 O 0.79571 0.2793 0.37591 0.0
C859 C 0.69526 0.24644 0.28695 0.0
C860 C 0.7672 0.41495 0.35689 0.0
C861 C 0.83265 0.43236 0.30992 0.0
N862 N 0.80297 0.35383 0.32258 0.0
C863 C 0.77007 0.36818 0.34958 0.0
C864 C 0.83445 0.3853 0.30333 0.0
C865 C 0.79858 0.44716 0.33667 0.0
C866 C 0.79559 0.13743 0.23403 0.0
N867 N 0.7524 0.13899 0.25102 0.0
C868 C 0.79947 0.10635 0.19586 0.0
C869 C 0.75926 0.07506 0.17647 0.0
C870 C 0.71564 0.0766 0.19421 0.0
C871 C 0.71203 0.11124 0.22923 0.0
C872 C 0.67396 0.04673 0.34376 0.0
C873 C 0.67165 0.14001 0.35801 0.0
C874 C 0.70581 0.07908 0.32394 0.0
N875 N 0.70475 0.12532 0.33166 0.0
C876 C 0.64137 0.10913 0.38034 0.0
C877 C 0.64194 0.06201 0.37276 0.0
C878 C 0.77392 0.24681 0.39671 0.0
C879 C 0.94577 0.28467 0.29409 0.0
C880 C 0.89314 0.31839 0.36127 0.0
C881 C 0.9429 0.32567 0.36951 0.0
C882 C 0.96936 0.3086 0.33573 0.0
N883 N 0.87037 0.29609 0.31985 0.0
C884 C 0.89593 0.2787 0.28671 0.0
Co885 Co 0.46487 0.39848 0.43338 0.0
Co886 Co 0.5149 0.52408 0.48362 0.0
O887 O 0.51625 0.45586 0.46726 0.0
C888 C 0.41928 0.38992 0.54046 0.0
O889 O 0.40235 0.4169 0.57093 0.0
C890 C 0.62329 0.52998 0.52108 0.0
O891 O 0.62372 0.48698 0.52947 0.0
O892 O 0.52799 0.53265 0.41891 0.0
O893 O 0.49996 0.45893 0.40747 0.0
H894 H 0.46978 0.67259 0.43832 0.0
H895 H 0.44827 0.25938 0.44855 0.0
O896 O 0.42799 0.40561 0.49913 0.0
H897 H 0.59858 0.26282 0.37841 0.0
H898 H 0.40676 0.36265 0.24419 0.0
H899 H 0.37682 0.44893 0.3972 0.0
H900 H 0.55767 0.32482 0.36918 0.0
H901 H 0.47197 0.401 0.30507 0.0
O902 O 0.58561 0.54202 0.50239 0.0
H903 H 0.46866 0.58875 0.43066 0.0
H904 H 0.55882 0.60065 0.55878 0.0
H905 H 0.31356 0.43491 0.32225 0.0
H906 H 0.50054 0.20925 0.47131 0.0
H907 H 0.32364 0.38477 0.25167 0.0
H908 H 0.57493 0.20598 0.43421 0.0
O909 O 0.42006 0.43842 0.46837 0.0
H910 H 0.53526 0.44953 0.63444 0.0
H911 H 0.45772 0.56395 0.55567 0.0
H912 H 0.44631 0.55342 0.63801 0.0
H913 H 0.486 0.49647 0.6785 0.0
H914 H 0.54431 0.46002 0.55153 0.0
H915 H 0.56123 0.68478 0.56758 0.0
H916 H 0.51632 0.72133 0.50716 0.0
O917 O 0.44483 0.51394 0.46573 0.0
C918 C 0.52137 0.49585 0.39174 0.0
C919 C 0.48911 0.65707 0.46515 0.0
C920 C 0.5405 0.6639 0.53762 0.0
N921 N 0.51312 0.5896 0.49451 0.0
C922 C 0.48842 0.60954 0.46114 0.0
C923 C 0.53904 0.61622 0.5324 0.0
C924 C 0.51535 0.68438 0.50369 0.0
C925 C 0.48225 0.26468 0.43398 0.0
N926 N 0.50014 0.30516 0.41405 0.0
C927 C 0.51116 0.2329 0.44624 0.0
C928 C 0.55324 0.23181 0.42644 0.0
C929 C 0.56645 0.26373 0.39571 0.0
C930 C 0.54056 0.29952 0.39013 0.0
C931 C 0.39829 0.37762 0.27748 0.0
C932 C 0.38055 0.426 0.36858 0.0
C933 C 0.43749 0.39464 0.31768 0.0
N934 N 0.42729 0.41519 0.36533 0.0
C935 C 0.34189 0.4153 0.32593 0.0
C936 C 0.35023 0.39 0.28187 0.0
C937 C 0.41483 0.48155 0.47749 0.0
C938 C 0.51836 0.47496 0.61741 0.0
C939 C 0.47501 0.53889 0.57249 0.0
C940 C 0.46841 0.53313 0.61942 0.0
C941 C 0.49063 0.5012 0.6421 0.0
N942 N 0.50344 0.51406 0.54864 0.0
C943 C 0.52388 0.48151 0.57039 0.0
H944 H 0.26801 0.16288 0.16305 0.0
H945 H 0.20935 0.28235 0.12577 0.0
H946 H 0.14728 0.23259 0.07124 0.0
H947 H 0.10582 0.1543 0.03918 0.0
H948 H 0.16069 0.03521 0.08391 0.0
H949 H 0.22785 0.08566 0.13062 0.0
C950 C 0.24176 0.17829 0.14307 0.0
C951 C 0.24325 0.22653 0.14925 0.0
C952 C 0.20511 0.14931 0.11328 0.0
C953 C 0.2094 0.24555 0.1219 0.0
C954 C 0.17355 0.21696 0.09097 0.0
C955 C 0.13236 0.13923 0.05904 0.0
C956 C 0.12754 0.09066 0.05823 0.0
C957 C 0.17038 0.16864 0.08717 0.0
C958 C 0.16298 0.07221 0.08397 0.0
C959 C 0.20154 0.10113 0.11073 0.0
H960 H 0.11829 0.93873 0.41181 0.0
H961 H 0.06989 0.87911 0.53489 0.0
H962 H 0.11324 0.81511 0.51976 0.0
H963 H 0.16535 0.77558 0.471 0.0
H964 H 0.20788 0.83366 0.34486 0.0
H965 H 0.16653 0.8978 0.36157 0.0
C966 C 0.11761 0.91203 0.43567 0.0
C967 C 0.09147 0.91441 0.475 0.0
C968 C 0.1414 0.87446 0.4259 0.0
C969 C 0.09007 0.87861 0.50467 0.0
C970 C 0.11477 0.84181 0.4959 0.0
C971 C 0.16529 0.80202 0.44694 0.0
C972 C 0.19025 0.79924 0.40662 0.0
C973 C 0.14051 0.83917 0.45646 0.0
C974 C 0.18936 0.83424 0.37609 0.0
C975 C 0.16569 0.87136 0.38571 0.0
H976 H 0.34967 0.9128 0.56454 0.0
H977 H 0.4742 0.84817 0.58618 0.0
H978 H 0.43238 0.7945 0.63451 0.0
H979 H 0.36416 0.77129 0.6775 0.0
H980 H 0.23937 0.83585 0.65831 0.0
H981 H 0.2768 0.88264 0.60091 0.0
C982 C 0.36723 0.88648 0.57927 0.0
C983 C 0.41517 0.88504 0.57248 0.0
C984 C 0.34293 0.85546 0.60737 0.0
C985 C 0.43757 0.85067 0.59165 0.0
C986 C 0.41365 0.81973 0.61917 0.0
C987 C 0.34469 0.79494 0.66017 0.0
C988 C 0.29945 0.80062 0.67287 0.0
C989 C 0.36682 0.82259 0.62827 0.0
C990 C 0.27453 0.83105 0.64956 0.0
C991 C 0.29603 0.85812 0.61693 0.0
H992 H 0.51505 0.12458 0.89446 0.0
H993 H 0.4557 0.14825 0.02564 0.0
H994 H 0.39576 0.18636 0.98647 0.0
H995 H 0.35691 0.20929 0.914 0.0
H996 H 0.41995 0.1928 0.78417 0.0
H997 H 0.48141 0.15548 0.82338 0.0
C998 C 0.48947 0.13875 0.91459 0.0
C999 C 0.49001 0.13344 0.96303 0.0
C1000 C 0.45527 0.16138 0.89187 0.0
C1001 C 0.45657 0.15211 0.98851 0.0
C1002 C 0.42189 0.17361 0.96602 0.0
C1003 C 0.38425 0.19757 0.89443 0.0
C1004 C 0.38367 0.20305 0.84618 0.0
C1005 C 0.42035 0.17774 0.91761 0.0
C1006 C 0.41969 0.18865 0.8213 0.0
C1007 C 0.45476 0.16735 0.84374 0.0
H1008 H 0.68002 0.29506 0.98977 0.0
H1009 H 0.69024 0.32784 0.84676 0.0
H1010 H 0.64667 0.39115 0.86037 0.0
H1011 H 0.60603 0.43822 0.91255 0.0
H1012 H 0.5924 0.40482 0.0547 0.0
H1013 H 0.63701 0.34146 0.04187 0.0
C1014 C 0.67222 0.31565 0.9614 0.0
C1015 C 0.68861 0.30629 0.91721 0.0
C1016 C 0.64694 0.35252 0.96946 0.0
C1017 C 0.67836 0.33393 0.88115 0.0
C1018 C 0.65346 0.37043 0.88891 0.0
C1019 C 0.61327 0.41747 0.94097 0.0
C1020 C 0.59642 0.42687 0.98479 0.0
C1021 C 0.63794 0.38036 0.93298 0.0
C1022 C 0.60527 0.39874 0.02076 0.0
C1023 C 0.63062 0.36229 0.01335 0.0
H1024 H 0.84549 0.45053 0.05832 0.0
H1025 H 0.96784 0.38198 0.07306 0.0
H1026 H 0.92909 0.33193 0.12626 0.0
H1027 H 0.86389 0.31224 0.17523 0.0
H1028 H 0.74011 0.37871 0.15973 0.0
H1029 H 0.77535 0.42357 0.10002 0.0
C1030 C 0.86336 0.4242 0.07259 0.0
C1031 C 0.9102 0.42115 0.06235 0.0
C1032 C 0.84063 0.39495 0.1035 0.0
C1033 C 0.93241 0.38628 0.08097 0.0
C1034 C 0.91018 0.35733 0.11154 0.0
C1035 C 0.8442 0.33594 0.15829 0.0
C1036 C 0.79967 0.34238 0.17267 0.0
C1037 C 0.86484 0.36214 0.12411 0.0
C1038 C 0.77468 0.37316 0.14986 0.0
C1039 C 0.79489 0.39911 0.1157 0.0
H1040 H 0.95649 0.64859 0.4963 0.0
H1041 H 0.04133 0.61797 0.38447 0.0
H1042 H 0.9933 0.65692 0.33098 0.0
H1043 H 0.92351 0.69549 0.31418 0.0
H1044 H 0.83692 0.72279 0.42565 0.0
H1045 H 0.8892 0.6899 0.48054 0.0
C1046 C 0.96518 0.65116 0.4605 0.0
C1047 C 1.00295 0.63039 0.44481 0.0
C1048 C 0.93657 0.67278 0.42943 0.0
C1049 C 1.01274 0.63356 0.39783 0.0
C1050 C 0.98507 0.65576 0.36704 0.0
C1051 C 0.91631 0.6947 0.35058 0.0
C1052 C 0.87595 0.71169 0.36541 0.0
C1053 C 0.9463 0.67484 0.38215 0.0
C1054 C 0.86732 0.70989 0.41285 0.0
C1055 C 0.89733 0.69102 0.44445 0.0
H1056 H 0.70122 0.52603 0.58441 0.0
H1057 H 0.63251 0.62178 0.50861 0.0
H1058 H 0.67696 0.68617 0.56142 0.0
H1059 H 0.72848 0.71475 0.63561 0.0
H1060 H 0.80991 0.62154 0.70025 0.0
H1061 H 0.76798 0.5576 0.64579 0.0
C1062 C 0.69673 0.56099 0.57863 0.0
C1063 C 0.66135 0.56842 0.54402 0.0
C1064 C 0.72411 0.59863 0.60805 0.0
C1065 C 0.65757 0.61442 0.5364 0.0
C1066 C 0.68322 0.6516 0.56654 0.0
C1067 C 0.73751 0.68062 0.63755 0.0
C1068 C 0.77012 0.67274 0.67463 0.0
C1069 C 0.71525 0.64401 0.60379 0.0
C1070 C 0.78266 0.62844 0.67468 0.0
C1071 C 0.75914 0.59165 0.64279 0.0
H1072 H 0.27501 0.30788 0.43892 0.0
H1073 H 0.34629 0.19083 0.42105 0.0
H1074 H 0.31152 0.15913 0.48871 0.0
H1075 H 0.27446 0.17371 0.56245 0.0
H1076 H 0.19848 0.28837 0.57584 0.0
H1077 H 0.22208 0.31216 0.50106 0.0
C1078 C 0.28353 0.2758 0.44997 0.0
C1079 C 0.31546 0.25314 0.42628 0.0
C1080 C 0.2631 0.25764 0.48875 0.0
C1081 C 0.32352 0.21003 0.43979 0.0
C1082 C 0.30297 0.19149 0.4781 0.0
C1083 C 0.26148 0.20278 0.54819 0.0
C1084 C 0.23617 0.2301 0.57567 0.0
C1085 C 0.27487 0.21635 0.50454 0.0
C1086 C 0.21918 0.26738 0.55612 0.0
C1087 C 0.23292 0.28133 0.5134 0.0
H1088 H 0.94294 0.04932 0.80929 0.0
H1089 H 0.08495 0.01803 0.83045 0.0
H1090 H 0.09268 0.01902 0.74633 0.0
H1091 H 0.05711 0.02611 0.665 0.0
H1092 H 0.90907 0.03903 0.64459 0.0
H1093 H 0.9066 0.05287 0.72973 0.0
C1094 C 0.97649 0.04536 0.7956 0.0
C1095 C 0.01396 0.03522 0.82579 0.0
C1096 C 0.98017 0.04515 0.74716 0.0
C1097 C 0.05638 0.02746 0.80778 0.0
C1098 C 0.0607 0.02794 0.75962 0.0
C1099 C 0.02459 0.03209 0.67955 0.0
C1100 C 0.98331 0.03303 0.64917 0.0
C1101 C 0.0227 0.03641 0.72873 0.0
C1102 C 0.94141 0.04066 0.66796 0.0
C1103 C 0.94 0.04796 0.71639 0.0
H1104 H 0.34224 0.76396 0.9641 0.0
H1105 H 0.19148 0.70902 0.93894 0.0
H1106 H 0.18218 0.73042 0.02161 0.0
H1107 H 0.22151 0.74271 0.10364 0.0
H1108 H 0.37288 0.79627 0.12837 0.0
H1109 H 0.3772 0.7962 0.04383 0.0
C1110 C 0.30739 0.75615 0.97689 0.0
C1111 C 0.26788 0.733 0.94618 0.0
C1112 C 0.3029 0.76593 0.02477 0.0
C1113 C 0.22266 0.72485 0.96254 0.0
C1114 C 0.21746 0.7371 0.00969 0.0
C1115 C 0.25527 0.75542 0.0905 0.0
C1116 C 0.29709 0.76825 0.12211 0.0
C1117 C 0.25796 0.75408 0.04175 0.0
C1118 C 0.34034 0.78555 0.1048 0.0
C1119 C 0.34309 0.78468 0.05642 0.0
H1120 H 0.46175 0.01696 0.36405 0.0
H1121 H 0.5388 0.90636 0.39232 0.0
H1122 H 0.54351 0.89069 0.30828 0.0
H1123 H 0.52075 0.90485 0.22586 0.0
H1124 H 0.45068 0.02045 0.19924 0.0
H1125 H 0.44364 0.03457 0.28353 0.0
C1126 C 0.47772 0.98794 0.3521 0.0
C1127 C 0.49846 0.96184 0.38509 0.0
C1128 C 0.47917 0.97841 0.30353 0.0
C1129 C 0.52111 0.92601 0.36818 0.0
C1130 C 0.52325 0.91668 0.31978 0.0
C1131 C 0.50321 0.93273 0.23833 0.0
C1132 C 0.48528 0.96103 0.20592 0.0
C1133 C 0.5015 0.94198 0.28705 0.0
C1134 C 0.46408 0.99781 0.22309 0.0
C1135 C 0.4603 1.00595 0.27131 0.0
H1136 H 0.50641 0.33262 0.27699 0.0
H1137 H 0.44212 0.18935 0.26487 0.0
H1138 H 0.52042 0.16677 0.26097 0.0
H1139 H 0.60849 0.18811 0.27041 0.0
H1140 H 0.6723 0.33265 0.28501 0.0
H1141 H 0.5936 0.35417 0.27973 0.0
C1142 C 0.50982 0.29661 0.27533 0.0
C1143 C 0.46914 0.26285 0.27623 0.0
C1144 C 0.55512 0.28399 0.27319 0.0
C1145 C 0.47336 0.21615 0.26779 0.0
C1146 C 0.51815 0.20315 0.26514 0.0
C1147 C 0.60528 0.22431 0.2719 0.0
C1148 C 0.64672 0.25852 0.27834 0.0
C1149 C 0.55958 0.23683 0.26963 0.0
C1150 C 0.64144 0.30528 0.27995 0.0
C1151 C 0.59625 0.31783 0.27701 0.0
H1152 H 0.07465 0.3477 0.46151 0.0
H1153 H 0.94842 0.36476 0.52833 0.0
H1154 H 0.91164 0.28491 0.50072 0.0
H1155 H 0.91748 0.20978 0.46321 0.0
H1156 H 0.0488 0.18752 0.4086 0.0
H1157 H 0.08101 0.27038 0.42397 0.0
C1158 C 0.0391 0.33369 0.46991 0.0
C1159 C 0.01405 0.36151 0.49701 0.0
C1160 C 0.01891 0.28735 0.45533 0.0
C1161 C 0.96819 0.34343 0.50795 0.0
C1162 C 0.94703 0.29823 0.49172 0.0
C1163 C 0.95256 0.22324 0.45322 0.0
C1164 C 0.98051 0.19282 0.43412 0.0
C1165 C 0.97217 0.26981 0.46578 0.0
C1166 C 0.02651 0.21051 0.42282 0.0
C1167 C 0.04511 0.25768 0.43224 0.0
H1168 H 0.98053 0.6877 0.76328 0.0
H1169 H 0.02656 0.82913 0.81995 0.0
H1170 H 0.10648 0.82715 0.80256 0.0
H1171 H 0.16718 0.78165 0.78973 0.0
H1172 H 0.1278 0.63544 0.74814 0.0
H1173 H 0.043 0.64277 0.74124 0.0
C1174 C 1.00796 0.71811 0.77151 0.0
C1175 C 0.99635 0.75927 0.79215 0.0
C1176 C 0.05617 0.71519 0.76607 0.0
C1177 C 0.03278 0.79806 0.80207 0.0
C1178 C 0.07948 0.7965 0.79328 0.0
C1179 C 0.14032 0.75119 0.7787 0.0
C1180 C 0.154 0.70812 0.77012 0.0
C1181 C 0.09203 0.75469 0.77795 0.0
C1182 C 0.11836 0.66917 0.75561 0.0
C1183 C 0.06983 0.67303 0.75238 0.0
H1184 H 0.45986 0.70681 0.9871 0.0
H1185 H 0.58074 0.7058 0.90714 0.0
H1186 H 0.59826 0.7907 0.91777 0.0
H1187 H 0.5853 0.86433 0.96024 0.0
H1188 H 0.47249 0.8596 0.05156 0.0
H1189 H 0.44768 0.77716 0.02827 0.0
C1190 C 0.48959 0.72516 0.97114 0.0
C1191 C 0.51915 0.70011 0.94675 0.0
C1192 C 0.50195 0.77291 0.98112 0.0
C1193 C 0.55717 0.72428 0.9258 0.0
C1194 C 0.56776 0.77275 0.93278 0.0
C1195 C 0.55518 0.84509 0.97482 0.0
C1196 C 0.53105 0.86771 0.00802 0.0
C1197 C 0.54157 0.79726 0.9622 0.0
C1198 C 0.49205 0.84275 0.02665 0.0
C1199 C 0.47723 0.79596 0.01275 0.0
H1200 H 0.58225 0.82564 0.2578 0.0
H1201 H 0.61058 0.68983 0.21784 0.0
H1202 H 0.52824 0.65747 0.22278 0.0
H1203 H 0.44702 0.66384 0.24758 0.0
H1204 H 0.41462 0.79995 0.27366 0.0
H1205 H 0.49599 0.83395 0.26354 0.0
C1206 C 0.56992 0.78893 0.24902 0.0
C1207 C 0.60325 0.76024 0.23754 0.0
C1208 C 0.52104 0.76941 0.25192 0.0
C1209 C 0.58614 0.71289 0.22665 0.0
C1210 C 0.5386 0.69381 0.23039 0.0
C1211 C 0.45822 0.70097 0.25232 0.0
C1212 C 0.42527 0.72913 0.26608 0.0
C1213 C 0.50579 0.72104 0.24489 0.0
C1214 C 0.44001 0.77723 0.26834 0.0
C1215 C 0.48695 0.79699 0.26192 0.0
H1216 H 0.43515 0.18042 0.54357 0.0
H1217 H 0.57913 0.24087 0.59935 0.0
H1218 H 0.55462 0.31613 0.61398 0.0
H1219 H 0.49584 0.36811 0.59586 0.0
H1220 H 0.3574 0.30824 0.52487 0.0
H1221 H 0.37508 0.23061 0.53517 0.0
C1222 C 0.46094 0.20967 0.56018 0.0
C1223 C 0.50911 0.20447 0.57033 0.0
C1224 C 0.44735 0.25389 0.56547 0.0
C1225 C 0.54186 0.24345 0.59118 0.0
C1226 C 0.52784 0.28678 0.59938 0.0
C1227 C 0.46905 0.33803 0.58349 0.0
C1228 C 0.42613 0.34404 0.55721 0.0
C1229 C 0.48112 0.29304 0.58465 0.0
C1230 C 0.39143 0.30465 0.54271 0.0
C1231 C 0.40164 0.26026 0.54792 0.0
H1232 H 0.11111 0.28567 0.83202 0.0
H1233 H 0.09836 0.26549 0.68068 0.0
H1234 H 1.01108 0.24966 0.67875 0.0
H1235 H 0.938 0.2371 0.72016 0.0
H1236 H 0.9518 0.26263 0.87119 0.0
H1237 H 0.0384 0.28037 0.87295 0.0
C1238 C 0.08925 0.27847 0.79847 0.0
C1239 C 0.11152 0.27691 0.75652 0.0
C1240 C 0.03897 0.26954 0.79753 0.0
C1241 C 0.08241 0.2676 0.71348 0.0
C1242 C 0.03236 0.25808 0.71235 0.0
C1243 C 0.95983 0.24649 0.75355 0.0
C1244 C 0.9378 0.24676 0.79587 0.0
C1245 C 1.01015 0.25814 0.75418 0.0
C1246 C 0.96723 0.26051 0.8383 0.0
C1247 C 0.01704 0.27107 0.83931 0.0
H1248 H 0.98424 0.89944 0.08194 0.0
H1249 H 0.85491 0.82522 0.00891 0.0
H1250 H 0.87717 0.75392 0.03854 0.0
H1251 H 0.94436 0.70812 0.04522 0.0
H1252 H 0.08286 0.78365 0.10242 0.0
H1253 H 0.05105 0.85597 0.105 0.0
C1254 C 0.96266 0.86684 0.06713 0.0
C1255 C 0.92243 0.86668 0.03343 0.0
C1256 C 0.97998 0.82483 0.07382 0.0
C1257 C 0.89034 0.82511 0.0254 0.0
C1258 C 0.90319 0.78425 0.04061 0.0
C1259 C 0.96762 0.74005 0.05931 0.0
C1260 C 0.01657 0.73961 0.073 0.0
C1261 C 0.95004 0.78256 0.0584 0.0
C1262 C 0.04529 0.78223 0.09118 0.0
C1263 C 0.02711 0.82399 0.0925 0.0
H1264 H 0.20203 0.41753 0.32996 0.0
H1265 H 0.31937 0.43872 0.43368 0.0
H1266 H 0.33627 0.5219 0.42267 0.0
H1267 H 0.31516 0.58916 0.3881 0.0
H1268 H 0.18399 0.57135 0.29732 0.0
H1269 H 0.17116 0.48839 0.30267 0.0
C1270 C 0.22875 0.44059 0.35381 0.0
C1271 C 0.26191 0.4217 0.3837 0.0
C1272 C 0.23357 0.48976 0.35165 0.0
C1273 C 0.29479 0.45339 0.4127 0.0
C1274 C 0.3037 0.50057 0.40664 0.0
C1275 C 0.28271 0.56765 0.37084 0.0
C1276 C 0.25186 0.58727 0.34056 0.0
C1277 C 0.27303 0.51969 0.377 0.0
C1278 C 0.21023 0.55769 0.31863 0.0
C1279 C 0.20194 0.50976 0.32281 0.0
H1280 H 0.80667 0.07255 0.78738 0.0
H1281 H 0.72285 0.11319 0.89613 0.0
H1282 H 0.70704 0.03262 0.91546 0.0
H1283 H 0.73635 0.95499 0.91597 0.0
H1284 H 0.7751 0.91167 0.78835 0.0
H1285 H 0.80054 0.98795 0.7668 0.0
C1286 C 0.78685 0.0649 0.81715 0.0
C1287 C 0.76931 0.10062 0.84252 0.0
C1288 C 0.77936 0.01918 0.83008 0.0
C1289 C 0.73974 0.08775 0.87779 0.0
C1290 C 0.73129 0.04166 0.8896 0.0
C1291 C 0.75494 0.96342 0.88597 0.0
C1292 C 0.77939 0.93006 0.86418 0.0
C1293 C 0.7549 0.00799 0.86908 0.0
C1294 C 0.7844 0.93837 0.81661 0.0
C1295 C 0.79111 0.98291 0.80199 0.0
H1296 H 0.35094 0.62686 0.03757 0.0
H1297 H 0.3294 0.47769 0.0222 0.0
H1298 H 0.24377 0.47412 0.01495 0.0
H1299 H 0.17525 0.51173 1.00221 0.0
H1300 H 0.18986 0.6576 0.0389 0.0
H1301 H 0.27826 0.66458 0.043 0.0
C1302 C 0.32755 0.59356 0.03206 0.0
C1303 C 0.34754 0.55253 0.02824 0.0
C1304 C 0.27711 0.59138 0.02857 0.0
C1305 C 0.31607 0.50992 0.02357 0.0
C1306 C 0.26664 0.50771 0.01961 0.0
C1307 C 0.19704 0.54545 0.01171 0.0
C1308 C 0.1753 0.58505 0.01774 0.0
C1309 C 0.24685 0.54809 0.01999 0.0
C1310 C 0.20552 0.62762 0.03049 0.0
C1311 C 0.25587 0.63113 0.03412 0.0
H1312 H 0.75609 0.04456 0.40794 0.0
H1313 H 0.87057 0.08329 0.32309 0.0
H1314 H 0.87203 1.00159 0.30095 0.0
H1315 H 0.83347 0.92057 0.29826 0.0
H1316 H 0.7199 0.88156 0.38416 0.0
H1317 H 0.72363 0.96276 0.41213 0.0
C1318 C 0.78326 0.03532 0.38692 0.0
C1319 C 0.81418 0.07018 0.36847 0.0
C1320 C 0.78301 0.98844 0.37368 0.0
C1321 C 0.84691 0.05726 0.33836 0.0
C1322 C 0.84743 0.0106 0.32543 0.0
C1323 C 0.81078 0.92968 0.32451 0.0
C1324 C 0.77703 0.895 0.33976 0.0
C1325 C 0.81463 0.97607 0.3418 0.0
C1326 C 0.74724 0.90734 0.37313 0.0
C1327 C 0.74953 0.95382 0.38922 0.0
H1328 H 0.82663 0.94424 0.97635 0.0
H1329 H 0.86251 0.08287 0.93847 0.0
H1330 H 0.79488 0.10434 0.97545 0.0
H1331 H 0.71594 0.07996 0.00489 0.0
H1332 H 0.67571 0.93817 0.03239 0.0
H1333 H 0.75231 0.92146 0.01143 0.0
C1334 C 0.82063 0.97932 0.97718 0.0
C1335 C 0.85097 0.01159 0.95516 0.0
C1336 C 0.77956 0.99089 0.99622 0.0
C1337 C 0.84043 0.05673 0.9551 0.0
C1338 C 0.80164 0.06936 0.97668 0.0
C1339 C 0.72465 0.04579 0.00748 0.0
C1340 C 0.68978 0.01021 0.01943 0.0
C1341 C 0.76935 0.03611 0.99516 0.0
C1342 C 0.70168 0.96614 0.02287 0.0
C1343 C 0.74589 0.95659 0.01147 0.0
H1344 H 0.36553 0.54525 0.85816 0.0
H1345 H 0.23833 0.53849 0.92853 0.0
H1346 H 0.2273 0.45485 0.92283 0.0
H1347 H 0.24655 0.38307 0.88617 0.0
H1348 H 0.36777 0.3898 0.80631 0.0
H1349 H 0.38362 0.47342 0.82087 0.0
C1350 C 0.33654 0.52536 0.87376 0.0
C1351 C 0.30511 0.54829 0.89763 0.0
C1352 C 0.32837 0.47685 0.86697 0.0
C1353 C 0.26599 0.52193 0.91495 0.0
C1354 C 0.25874 0.47384 0.91014 0.0
C1355 C 0.27879 0.40255 0.87532 0.0
C1356 C 0.30626 0.38043 0.84567 0.0
C1357 C 0.28943 0.45078 0.88574 0.0
C1358 C 0.34643 0.40625 0.82958 0.0
C1359 C 0.35629 0.45406 0.8387 0.0
H1360 H 0.22776 0.56165 0.51839 0.0
H1361 H 0.17289 0.41573 0.50897 0.0
H1362 H 0.25375 0.39887 0.51027 0.0
H1363 H 0.33898 0.42418 0.51002 0.0
H1364 H 0.39344 0.56819 0.50187 0.0
H1365 H 0.31639 0.5874 0.51875 0.0
C1366 C 0.23371 0.52624 0.5166 0.0
C1367 C 0.19402 0.48992 0.51281 0.0
C1368 C 0.2811 0.51654 0.51806 0.0
C1369 C 0.20256 0.44429 0.51131 0.0
C1370 C 0.24901 0.43464 0.51314 0.0
C1371 C 0.33539 0.46016 0.51418 0.0
C1372 C 0.37254 0.49399 0.50216 0.0
C1373 C 0.28878 0.4704 0.51729 0.0
C1374 C 0.36575 0.54045 0.5086 0.0
C1375 C 0.32088 0.55158 0.5173 0.0
H1376 H 0.79548 0.78702 0.93818 0.0
H1377 H 0.884 0.68279 0.95205 0.0
H1378 H 0.83819 0.65246 0.01462 0.0
H1379 H 0.7899 0.66915 0.07858 0.0
H1380 H 0.70481 0.77662 0.06732 0.0
H1381 H 0.73338 0.79248 0.99188 0.0
C1382 C 0.80511 0.7579 0.9552 0.0
C1383 C 0.84557 0.73967 0.94318 0.0
C1384 C 0.77994 0.74151 0.99227 0.0
C1385 C 0.85479 0.69923 0.96257 0.0
C1386 C 0.82806 0.68115 0.99765 0.0
C1387 C 0.77601 0.69467 0.05876 0.0
C1388 C 0.74669 0.72279 0.0796 0.0
C1389 C 0.79311 0.70419 0.01528 0.0
C1390 C 0.7286 0.75533 0.05288 0.0
C1391 C 0.74502 0.7646 0.00964 0.0
H1392 H 0.51467 0.56718 0.34175 0.0
H1393 H 0.5562 0.43352 0.33171 0.0
H1394 H 0.55489 0.43385 0.2459 0.0
H1395 H 0.53004 0.46872 0.17259 0.0
H1396 H 0.47686 0.5972 0.18789 0.0
H1397 H 0.49677 0.60332 0.27231 0.0
C1398 C 0.52399 0.53821 0.32091 0.0
C1399 C 0.53156 0.49865 0.34223 0.0
C1400 C 0.52146 0.53813 0.2721 0.0
C1401 C 0.54643 0.46279 0.31532 0.0
C1402 C 0.54596 0.46316 0.26634 0.0
C1403 C 0.52243 0.49775 0.19452 0.0
C1404 C 0.50305 0.53316 0.17369 0.0
C1405 C 0.5307 0.49962 0.244 0.0
C1406 C 0.49388 0.57065 0.20268 0.0
C1407 C 0.505 0.57415 0.25103 0.0
H1408 H 0.83438 0.30592 0.46343 0.0
H1409 H 0.70412 0.20545 0.44576 0.0
H1410 H 0.70095 0.21104 0.53062 0.0
H1411 H 0.74042 0.23554 0.60978 0.0
H1412 H 0.87224 0.33404 0.62892 0.0
H1413 H 0.86857 0.33862 0.54414 0.0
C1414 C 0.8052 0.28537 0.47813 0.0
C1415 C 0.77025 0.25437 0.4481 0.0
C1416 C 0.80419 0.2876 0.52739 0.0
C1417 C 0.73221 0.2287 0.46786 0.0
C1418 C 0.73033 0.23176 0.51646 0.0
C1419 C 0.76826 0.25841 0.59562 0.0
C1420 C 0.8069 0.28388 0.62599 0.0
C1421 C 0.76706 0.25963 0.54662 0.0
C1422 C 0.84225 0.3136 0.60661 0.0
C1423 C 0.84053 0.31587 0.55793 0.0
H1424 H 0.01524 0.53389 0.70661 0.0
H1425 H 0.95762 0.38908 0.70475 0.0
H1426 H 0.9611 0.39695 0.79057 0.0
H1427 H 0.9864 0.44519 0.86773 0.0
H1428 H 0.04149 0.58999 0.86493 0.0
H1429 H 0.03774 0.58026 0.78103 0.0
C1430 C 1.00258 0.50407 0.72467 0.0
C1431 C 0.98607 0.4611 0.69877 0.0
C1432 C 1.00608 0.50832 0.77404 0.0
C1433 C 0.9703 0.42288 0.72345 0.0
C1434 C 0.97272 0.4272 0.77278 0.0
C1435 C 0.99612 0.47474 0.84865 0.0
C1436 C 0.01401 0.51817 0.87375 0.0
C1437 C 0.99131 0.46979 0.79873 0.0
C1438 C 0.02813 0.55572 0.84778 0.0
C1439 C 0.02541 0.55061 0.79908 0.0
H1440 H 0.83455 0.10962 0.49783 0.0
H1441 H 0.82003 0.96199 0.50521 0.0
H1442 H 0.73492 0.95602 0.50529 0.0
H1443 H 0.66535 0.98903 0.49859 0.0
H1444 H 0.67021 0.13542 0.49546 0.0
H1445 H 0.7587 0.14491 0.49575 0.0
C1446 C 0.81265 0.07614 0.49909 0.0
C1447 C 0.83464 0.03616 0.50117 0.0
C1448 C 0.76205 0.07245 0.49876 0.0
C1449 C 0.80525 0.9934 0.50354 0.0
C1450 C 0.75611 0.98982 0.50361 0.0
C1451 C 0.68461 0.0237 0.49847 0.0
C1452 C 0.65991 0.06163 0.49775 0.0
C1453 C 0.73427 0.02873 0.50034 0.0
C1454 C 0.68754 0.10552 0.49628 0.0
C1455 C 0.73811 0.11082 0.49647 0.0
loop_
_geom_bond_atom_site_label_1
_geom_bond_atom_site_label_2
_geom_bond_distance
_geom_bond_site_symmetry_2
_ccdc_geom_bond_type
Co0 O2 2.143 . S
Co0 O8 2.074 . S
Co0 O11 2.093 . S
Co0 O24 2.097 . S
Co0 N41 2.151 . S
Co0 N49 2.214 . S
Co1 O2 2.160 . S
Co1 O7 2.058 . S
Co1 O17 2.057 . S
Co1 O32 2.037 . S
Co1 N36 2.145 . S
Co1 N57 2.257 . S
O2 Co0 2.143 . S
O2 Co1 2.160 . S
C3 O4 1.278 . S
C3 O11 1.224 . S
O4 C3 1.278 . S
C5 O6 1.245 . S
C5 O17 1.232 . S
O6 C5 1.245 . S
O7 Co1 2.058 . S
O7 C33 1.269 . S
O8 Co0 2.074 . S
O8 C33 1.257 . S
H9 C34 0.930 . S
H10 C40 0.930 . S
O11 Co0 2.093 . S
O11 C3 1.224 . S
H12 C44 0.929 . S
H13 C46 0.930 . S
H14 C47 0.930 . S
H15 C45 0.929 . S
H16 C48 0.928 . S
O17 Co1 2.057 . S
O17 C5 1.232 . S
H18 C37 0.929 . S
H19 C38 0.929 . S
H20 C50 0.931 . S
H21 C42 0.929 . S
H22 C51 0.930 . S
H23 C43 0.931 . S
O24 Co0 2.097 . S
O24 C52 1.214 . S
H25 C53 0.929 . S
H26 C54 0.929 . S
H27 C55 0.930 . S
H28 C56 0.929 . S
H29 C58 0.930 . S
H30 C35 0.930 . S
H31 C39 0.930 . S
O32 Co1 2.037 . S
O32 C52 1.234 . S
C33 O7 1.269 . S
C33 O8 1.257 . S
C34 H9 0.930 . S
C34 C37 1.388 . S
C34 C39 1.418 . S
C35 H30 0.930 . S
C35 C38 1.404 . S
C35 C39 1.353 . S
N36 Co1 2.145 . S
N36 C37 1.397 . S
N36 C38 1.334 . S
C37 H18 0.929 . S
C37 C34 1.388 . S
C37 N36 1.397 . S
C38 H19 0.929 . S
C38 C35 1.404 . S
C38 N36 1.334 . S
C39 H31 0.930 . S
C39 C34 1.418 . S
C39 C35 1.353 . S
C40 H10 0.930 . S
C40 N41 1.330 . S
C40 C42 1.446 . S
N41 Co0 2.151 . S
N41 C40 1.330 . S
N41 C45 1.418 . S
C42 H21 0.929 . S
C42 C40 1.446 . S
C42 C43 1.332 . S
C43 H23 0.931 . S
C43 C42 1.332 . S
C43 C44 1.267 . S
C44 H12 0.929 . S
C44 C43 1.267 . S
C44 C45 1.251 . S
C45 H15 0.929 . S
C45 N41 1.418 . S
C45 C44 1.251 . S
C46 H13 0.930 . S
C46 C48 1.406 . S
C46 C51 1.261 . S
C47 H14 0.930 . S
C47 N49 1.325 . S
C47 C50 1.357 . S
C48 H16 0.928 . S
C48 C46 1.406 . S
C48 N49 1.261 . S
N49 Co0 2.214 . S
N49 C47 1.325 . S
N49 C48 1.261 . S
C50 H20 0.931 . S
C50 C47 1.357 . S
C50 C51 1.312 . S
C51 H22 0.930 . S
C51 C46 1.261 . S
C51 C50 1.312 . S
C52 O24 1.214 . S
C52 O32 1.234 . S
C53 H25 0.929 . S
C53 C56 1.391 . S
C53 C58 1.391 . S
C54 H26 0.929 . S
C54 C55 1.390 . S
C54 N57 1.391 . S
C55 H27 0.930 . S
C55 C54 1.390 . S
C55 C56 1.392 . S
C56 H28 0.929 . S
C56 C53 1.391 . S
C56 C55 1.392 . S
N57 Co1 2.257 . S
N57 C54 1.391 . S
N57 C58 1.388 . S
C58 H29 0.930 . S
C58 C53 1.391 . S
C58 N57 1.388 . S
Co59 O61 2.143 . S
Co59 O67 2.074 . S
Co59 O70 2.093 . S
Co59 O83 2.097 . S
Co59 N100 2.151 1_655 S
Co59 N108 2.214 . S
Co60 O61 2.160 1_565 S
Co60 O66 2.058 . S
Co60 O76 2.057 1_655 S
Co60 O91 2.037 . S
Co60 N95 2.145 . S
Co60 N116 2.257 . S
O61 Co59 2.143 . S
O61 Co60 2.160 1_545 S
C62 O63 1.278 . S
C62 O70 1.224 . S
O63 C62 1.278 . S
C64 O65 1.245 1_565 S
C64 O76 1.232 . S
O65 C64 1.245 1_545 S
O66 Co60 2.058 . S
O66 C92 1.269 . S
O67 Co59 2.074 . S
O67 C92 1.257 1_545 S
H68 C93 0.930 . S
H69 C99 0.930 . S
O70 Co59 2.093 . S
O70 C62 1.224 . S
H71 C103 0.929 . S
H72 C105 0.930 . S
H73 C106 0.930 . S
H74 C104 0.929 . S
H75 C107 0.928 . S
O76 Co60 2.057 1_455 S
O76 C64 1.232 . S
H77 C96 0.929 . S
H78 C97 0.929 . S
H79 C109 0.931 . S
H80 C101 0.929 . S
H81 C110 0.930 . S
H82 C102 0.931 . S
O83 Co59 2.097 . S
O83 C111 1.214 . S
H84 C112 0.929 . S
H85 C113 0.929 . S
H86 C114 0.930 . S
H87 C115 0.929 1_545 S
H88 C117 0.930 1_545 S
H89 C94 0.930 . S
H90 C98 0.930 . S
O91 Co60 2.037 . S
O91 C111 1.234 1_565 S
C92 O66 1.269 . S
C92 O67 1.257 1_565 S
C93 H68 0.930 . S
C93 C96 1.388 . S
C93 C98 1.418 . S
C94 H89 0.930 . S
C94 C97 1.404 . S
C94 C98 1.353 . S
N95 Co60 2.145 . S
N95 C96 1.397 . S
N95 C97 1.334 . S
C96 H77 0.929 . S
C96 C93 1.388 . S
C96 N95 1.397 . S
C97 H78 0.929 . S
C97 C94 1.404 . S
C97 N95 1.334 . S
C98 H90 0.930 . S
C98 C93 1.418 . S
C98 C94 1.353 . S
C99 H69 0.930 . S
C99 N100 1.330 . S
C99 C101 1.446 . S
N100 Co59 2.151 1_455 S
N100 C99 1.330 . S
N100 C104 1.418 . S
C101 H80 0.929 . S
C101 C99 1.446 . S
C101 C102 1.332 . S
C102 H82 0.931 . S
C102 C101 1.332 . S
C102 C103 1.267 . S
C103 H71 0.929 . S
C103 C102 1.267 . S
C103 C104 1.251 . S
C104 H74 0.929 . S
C104 N100 1.418 . S
C104 C103 1.251 . S
C105 H72 0.930 . S
C105 C107 1.406 . S
C105 C110 1.261 . S
C106 H73 0.930 . S
C106 N108 1.325 . S
C106 C109 1.357 . S
C107 H75 0.928 . S
C107 C105 1.406 . S
C107 N108 1.261 . S
N108 Co59 2.214 . S
N108 C106 1.325 . S
N108 C107 1.261 . S
C109 H79 0.931 . S
C109 C106 1.357 . S
C109 C110 1.312 . S
C110 H81 0.930 . S
C110 C105 1.261 . S
C110 C109 1.312 . S
C111 O83 1.214 . S
C111 O91 1.234 1_545 S
C112 H84 0.929 . S
C112 C115 1.391 1_545 S
C112 C117 1.391 1_545 S
C113 H85 0.929 . S
C113 C114 1.390 . S
C113 N116 1.391 . S
C114 H86 0.930 . S
C114 C113 1.390 . S
C114 C115 1.392 . S
C115 H87 0.929 1_565 S
C115 C112 1.391 1_565 S
C115 C114 1.392 . S
N116 Co60 2.257 . S
N116 C113 1.391 . S
N116 C117 1.388 . S
C117 H88 0.930 1_565 S
C117 C112 1.391 1_565 S
C117 N116 1.388 . S
Co118 O120 2.143 . S
Co118 O126 2.074 . S
Co118 O129 2.093 . S
Co118 O142 2.097 . S
Co118 N159 2.151 . S
Co118 N167 2.214 . S
Co119 O120 2.160 . S
Co119 O125 2.058 . S
Co119 O135 2.057 . S
Co119 O150 2.037 . S
Co119 N154 2.145 . S
Co119 N175 2.257 . S
O120 Co118 2.143 . S
O120 Co119 2.160 . S
C121 O122 1.278 . S
C121 O129 1.224 . S
O122 C121 1.278 . S
C123 O124 1.245 . S
C123 O135 1.232 . S
O124 C123 1.245 . S
O125 Co119 2.058 . S
O125 C151 1.269 . S
O126 Co118 2.074 . S
O126 C151 1.257 . S
H127 C152 0.930 . S
H128 C158 0.930 . S
O129 Co118 2.093 . S
O129 C121 1.224 . S
H130 C162 0.929 . S
H131 C164 0.930 . S
H132 C165 0.930 . S
H133 C163 0.929 . S
H134 C166 0.928 . S
O135 Co119 2.057 . S
O135 C123 1.232 . S
H136 C155 0.929 . S
H137 C156 0.929 . S
H138 C168 0.931 . S
H139 C160 0.929 . S
H140 C169 0.930 . S
H141 C161 0.931 . S
O142 Co118 2.097 . S
O142 C170 1.214 . S
H143 C171 0.929 . S
H144 C172 0.929 . S
H145 C173 0.930 . S
H146 C174 0.929 . S
H147 C176 0.930 . S
H148 C153 0.930 . S
H149 C157 0.930 . S
O150 Co119 2.037 . S
O150 C170 1.234 . S
C151 O125 1.269 . S
C151 O126 1.257 . S
C152 H127 0.930 . S
C152 C155 1.388 . S
C152 C157 1.418 . S
C153 H148 0.930 . S
C153 C156 1.404 . S
C153 C157 1.353 . S
N154 Co119 2.145 . S
N154 C155 1.397 . S
N154 C156 1.334 . S
C155 H136 0.929 . S
C155 C152 1.388 . S
C155 N154 1.397 . S
C156 H137 0.929 . S
C156 C153 1.404 . S
C156 N154 1.334 . S
C157 H149 0.930 . S
C157 C152 1.418 . S
C157 C153 1.353 . S
C158 H128 0.930 . S
C158 N159 1.330 . S
C158 C160 1.446 . S
N159 Co118 2.151 . S
N159 C158 1.330 . S
N159 C163 1.418 . S
C160 H139 0.929 . S
C160 C158 1.446 . S
C160 C161 1.332 . S
C161 H141 0.931 . S
C161 C160 1.332 . S
C161 C162 1.267 . S
C162 H130 0.929 . S
C162 C161 1.267 . S
C162 C163 1.251 . S
C163 H133 0.929 . S
C163 N159 1.418 . S
C163 C162 1.251 . S
C164 H131 0.930 . S
C164 C166 1.406 . S
C164 C169 1.261 . S
C165 H132 0.930 . S
C165 N167 1.325 . S
C165 C168 1.357 . S
C166 H134 0.928 . S
C166 C164 1.406 . S
C166 N167 1.261 . S
N167 Co118 2.214 . S
N167 C165 1.325 . S
N167 C166 1.261 . S
C168 H138 0.931 . S
C168 C165 1.357 . S
C168 C169 1.312 . S
C169 H140 0.930 . S
C169 C164 1.261 . S
C169 C168 1.312 . S
C170 O142 1.214 . S
C170 O150 1.234 . S
C171 H143 0.929 . S
C171 C174 1.391 . S
C171 C176 1.391 . S
C172 H144 0.929 . S
C172 C173 1.390 . S
C172 N175 1.391 . S
C173 H145 0.930 . S
C173 C172 1.390 . S
C173 C174 1.392 . S
C174 H146 0.929 . S
C174 C171 1.391 . S
C174 C173 1.392 . S
N175 Co119 2.257 . S
N175 C172 1.391 . S
N175 C176 1.388 . S
C176 H147 0.930 . S
C176 C171 1.391 . S
C176 N175 1.388 . S
Co177 O179 2.143 . S
Co177 O185 2.074 1_554 S
Co177 O188 2.093 . S
Co177 O201 2.097 . S
Co177 N218 2.164 . S
Co177 N226 2.214 . S
Co178 O179 2.160 1_556 S
Co178 O184 2.058 . S
Co178 O194 2.057 . S
Co178 O209 2.037 . S
Co178 N213 2.145 . S
Co178 N234 2.257 . S
O179 Co177 2.143 . S
O179 Co178 2.160 1_554 S
C180 O181 1.278 . S
C180 O188 1.224 . S
O181 C180 1.278 . S
C182 O183 1.245 . S
C182 O194 1.232 1_545 S
O183 C182 1.245 . S
O184 Co178 2.058 . S
O184 C210 1.269 . S
O185 Co177 2.074 1_556 S
O185 C210 1.257 . S
H186 C211 0.930 . S
H187 C217 0.930 . S
O188 Co177 2.093 . S
O188 C180 1.224 . S
H189 C221 0.929 . S
H190 C223 0.930 . S
H191 C224 0.930 . S
H192 C222 0.929 1_565 S
H193 C225 0.928 . S
O194 Co178 2.057 . S
O194 C182 1.232 1_565 S
H195 C214 0.929 . S
H196 C215 0.929 . S
H197 C227 0.931 . S
H198 C219 0.929 . S
H199 C228 0.930 . S
H200 C220 0.931 . S
O201 Co177 2.097 . S
O201 C229 1.214 1_554 S
H202 C230 0.929 . S
H203 C231 0.929 . S
H204 C232 0.930 . S
H205 C233 0.929 . S
H206 C235 0.930 . S
H207 C212 0.930 . S
H208 C216 0.930 . S
O209 Co178 2.037 . S
O209 C229 1.234 . S
C210 O184 1.269 . S
C210 O185 1.257 . S
C211 H186 0.930 . S
C211 C214 1.388 . S
C211 C216 1.418 . S
C212 H207 0.930 . S
C212 C215 1.404 . S
C212 C216 1.353 . S
N213 Co178 2.145 . S
N213 C214 1.397 . S
N213 C215 1.334 . S
C214 H195 0.929 . S
C214 C211 1.388 . S
C214 N213 1.397 . S
C215 H196 0.929 . S
C215 C212 1.404 . S
C215 N213 1.334 . S
C216 H208 0.930 . S
C216 C211 1.418 . S
C216 C212 1.353 . S
C217 H187 0.930 . S
C217 N218 1.316 1_545 S
C217 C219 1.446 . S
N218 Co177 2.164 . S
N218 C217 1.316 1_565 S
N218 C222 1.417 1_565 S
C219 H198 0.929 . S
C219 C217 1.446 . S
C219 C220 1.332 . S
C220 H200 0.931 . S
C220 C219 1.332 . S
C220 C221 1.267 . S
C221 H189 0.929 . S
C221 C220 1.267 . S
C221 C222 1.251 . S
C222 H192 0.929 1_545 S
C222 N218 1.417 1_545 S
C222 C221 1.251 . S
C223 H190 0.930 . S
C223 C225 1.406 . S
C223 C228 1.261 . S
C224 H191 0.930 . S
C224 N226 1.325 . S
C224 C227 1.357 . S
C225 H193 0.928 . S
C225 C223 1.406 . S
C225 N226 1.261 . S
N226 Co177 2.214 . S
N226 C224 1.325 . S
N226 C225 1.261 . S
C227 H197 0.931 . S
C227 C224 1.357 . S
C227 C228 1.312 . S
C228 H199 0.930 . S
C228 C223 1.261 . S
C228 C227 1.312 . S
C229 O201 1.214 1_556 S
C229 O209 1.234 . S
C230 H202 0.929 . S
C230 C233 1.391 . S
C230 C235 1.391 . S
C231 H203 0.929 . S
C231 C232 1.390 . S
C231 N234 1.391 . S
C232 H204 0.930 . S
C232 C231 1.390 . S
C232 C233 1.392 . S
C233 H205 0.929 . S
C233 C230 1.391 . S
C233 C232 1.392 . S
N234 Co178 2.257 . S
N234 C231 1.391 . S
N234 C235 1.388 . S
C235 H206 0.930 . S
C235 C230 1.391 . S
C235 N234 1.388 . S
Co236 O238 2.143 . S
Co236 O244 2.074 . S
Co236 O247 2.093 . S
Co236 O260 2.097 . S
Co236 N277 2.151 . S
Co236 N285 2.214 . S
Co237 O238 2.160 . S
Co237 O243 2.058 . S
Co237 O253 2.057 . S
Co237 O268 2.037 . S
Co237 N272 2.145 . S
Co237 N293 2.257 . S
O238 Co236 2.143 . S
O238 Co237 2.160 . S
C239 O240 1.278 . S
C239 O247 1.224 . S
O240 C239 1.278 . S
C241 O242 1.245 . S
C241 O253 1.232 . S
O242 C241 1.245 . S
O243 Co237 2.058 . S
O243 C269 1.269 . S
O244 Co236 2.074 . S
O244 C269 1.257 . S
H245 C270 0.930 . S
H246 C276 0.930 . S
O247 Co236 2.093 . S
O247 C239 1.224 . S
H248 C280 0.929 . S
H249 C282 0.930 . S
H250 C283 0.930 . S
H251 C281 0.929 . S
H252 C284 0.928 . S
O253 Co237 2.057 . S
O253 C241 1.232 . S
H254 C273 0.929 . S
H255 C274 0.929 . S
H256 C286 0.931 . S
H257 C278 0.929 . S
H258 C287 0.930 . S
H259 C279 0.931 . S
O260 Co236 2.097 . S
O260 C288 1.214 . S
H261 C289 0.929 . S
H262 C290 0.929 . S
H263 C291 0.930 . S
H264 C292 0.929 . S
H265 C294 0.930 . S
H266 C271 0.930 . S
H267 C275 0.930 . S
O268 Co237 2.037 . S
O268 C288 1.234 . S
C269 O243 1.269 . S
C269 O244 1.257 . S
C270 H245 0.930 . S
C270 C273 1.388 . S
C270 C275 1.418 . S
C271 H266 0.930 . S
C271 C274 1.404 . S
C271 C275 1.353 . S
N272 Co237 2.145 . S
N272 C273 1.397 . S
N272 C274 1.334 . S
C273 H254 0.929 . S
C273 C270 1.388 . S
C273 N272 1.397 . S
C274 H255 0.929 . S
C274 C271 1.404 . S
C274 N272 1.334 . S
C275 H267 0.930 . S
C275 C270 1.418 . S
C275 C271 1.353 . S
C276 H246 0.930 . S
C276 N277 1.330 . S
C276 C278 1.446 . S
N277 Co236 2.151 . S
N277 C276 1.330 . S
N277 C281 1.418 . S
C278 H257 0.929 . S
C278 C276 1.446 . S
C278 C279 1.332 . S
C279 H259 0.931 . S
C279 C278 1.332 . S
C279 C280 1.267 . S
C280 H248 0.929 . S
C280 C279 1.267 . S
C280 C281 1.251 . S
C281 H251 0.929 . S
C281 N277 1.418 . S
C281 C280 1.251 . S
C282 H249 0.930 . S
C282 C284 1.406 . S
C282 C287 1.261 . S
C283 H250 0.930 . S
C283 N285 1.325 . S
C283 C286 1.357 . S
C284 H252 0.928 . S
C284 C282 1.406 . S
C284 N285 1.261 . S
N285 Co236 2.214 . S
N285 C283 1.325 . S
N285 C284 1.261 . S
C286 H256 0.931 . S
C286 C283 1.357 . S
C286 C287 1.312 . S
C287 H258 0.930 . S
C287 C282 1.261 . S
C287 C286 1.312 . S
C288 O260 1.214 . S
C288 O268 1.234 . S
C289 H261 0.929 . S
C289 C292 1.391 . S
C289 C294 1.391 . S
C290 H262 0.929 . S
C290 C291 1.390 . S
C290 N293 1.391 . S
C291 H263 0.930 . S
C291 C290 1.390 . S
C291 C292 1.392 . S
C292 H264 0.929 . S
C292 C289 1.391 . S
C292 C291 1.392 . S
N293 Co237 2.257 . S
N293 C290 1.391 . S
N293 C294 1.388 . S
C294 H265 0.930 . S
C294 C289 1.391 . S
C294 N293 1.388 . S
Co295 O297 2.143 . S
Co295 O303 2.074 1_545 S
Co295 O306 2.093 . S
Co295 O319 2.097 . S
Co295 N336 2.151 . S
Co295 N344 2.214 . S
Co296 O297 2.160 1_565 S
Co296 O302 2.058 . S
Co296 O312 2.057 . S
Co296 O327 2.037 . S
Co296 N331 2.145 . S
Co296 N352 2.257 . S
O297 Co295 2.143 . S
O297 Co296 2.160 1_545 S
C298 O299 1.278 . S
C298 O306 1.224 . S
O299 C298 1.278 . S
C300 O301 1.245 . S
C300 O312 1.232 . S
O301 C300 1.245 . S
O302 Co296 2.058 . S
O302 C328 1.269 . S
O303 Co295 2.074 1_565 S
O303 C328 1.257 . S
H304 C329 0.930 . S
H305 C335 0.930 . S
O306 Co295 2.093 . S
O306 C298 1.224 . S
H307 C339 0.929 . S
H308 C341 0.930 . S
H309 C342 0.930 . S
H310 C340 0.929 . S
H311 C343 0.928 . S
O312 Co296 2.057 . S
O312 C300 1.232 . S
H313 C332 0.929 . S
H314 C333 0.929 . S
H315 C345 0.931 . S
H316 C337 0.929 . S
H317 C346 0.930 . S
H318 C338 0.931 . S
O319 Co295 2.097 . S
O319 C347 1.214 . S
H320 C348 0.929 . S
H321 C349 0.929 . S
H322 C350 0.930 . S
H323 C351 0.929 . S
H324 C353 0.930 . S
H325 C330 0.930 . S
H326 C334 0.930 . S
O327 Co296 2.037 . S
O327 C347 1.234 1_565 S
C328 O302 1.269 . S
C328 O303 1.257 . S
C329 H304 0.930 . S
C329 C332 1.388 . S
C329 C334 1.418 . S
C330 H325 0.930 . S
C330 C333 1.404 . S
C330 C334 1.353 . S
N331 Co296 2.145 . S
N331 C332 1.397 . S
N331 C333 1.334 . S
C332 H313 0.929 . S
C332 C329 1.388 . S
C332 N331 1.397 . S
C333 H314 0.929 . S
C333 C330 1.404 . S
C333 N331 1.334 . S
C334 H326 0.930 . S
C334 C329 1.418 . S
C334 C330 1.353 . S
C335 H305 0.930 . S
C335 N336 1.330 . S
C335 C337 1.446 . S
N336 Co295 2.151 . S
N336 C335 1.330 . S
N336 C340 1.418 . S
C337 H316 0.929 . S
C337 C335 1.446 . S
C337 C338 1.332 . S
C338 H318 0.931 . S
C338 C337 1.332 . S
C338 C339 1.267 . S
C339 H307 0.929 . S
C339 C338 1.267 . S
C339 C340 1.251 . S
C340 H310 0.929 . S
C340 N336 1.418 . S
C340 C339 1.251 . S
C341 H308 0.930 . S
C341 C343 1.406 . S
C341 C346 1.261 . S
C342 H309 0.930 . S
C342 N344 1.325 . S
C342 C345 1.357 . S
C343 H311 0.928 . S
C343 C341 1.406 . S
C343 N344 1.261 . S
N344 Co295 2.214 . S
N344 C342 1.325 . S
N344 C343 1.261 . S
C345 H315 0.931 . S
C345 C342 1.357 . S
C345 C346 1.312 . S
C346 H317 0.930 . S
C346 C341 1.261 . S
C346 C345 1.312 . S
C347 O319 1.214 . S
C347 O327 1.234 1_545 S
C348 H320 0.929 . S
C348 C351 1.391 . S
C348 C353 1.391 . S
C349 H321 0.929 . S
C349 C350 1.390 1_565 S
C349 N352 1.391 . S
C350 H322 0.930 . S
C350 C349 1.390 1_545 S
C350 C351 1.392 . S
C351 H323 0.929 . S
C351 C348 1.391 . S
C351 C350 1.392 . S
N352 Co296 2.257 . S
N352 C349 1.391 . S
N352 C353 1.388 1_565 S
C353 H324 0.930 . S
C353 C348 1.391 . S
C353 N352 1.388 1_545 S
Co354 O356 2.143 . S
Co354 O362 2.074 . S
Co354 O365 2.093 . S
Co354 O378 2.097 . S
Co354 N395 2.151 . S
Co354 N403 2.214 . S
Co355 O356 2.160 . S
Co355 O361 2.058 . S
Co355 O371 2.057 . S
Co355 O386 2.037 . S
Co355 N390 2.145 . S
Co355 N411 2.257 . S
O356 Co354 2.143 . S
O356 Co355 2.160 . S
C357 O358 1.278 . S
C357 O365 1.224 . S
O358 C357 1.278 . S
C359 O360 1.245 . S
C359 O371 1.232 . S
O360 C359 1.245 . S
O361 Co355 2.058 . S
O361 C387 1.269 . S
O362 Co354 2.074 . S
O362 C387 1.257 . S
H363 C388 0.930 . S
H364 C394 0.930 . S
O365 Co354 2.093 . S
O365 C357 1.224 . S
H366 C398 0.929 . S
H367 C400 0.930 . S
H368 C401 0.930 . S
H369 C399 0.929 . S
H370 C402 0.928 . S
O371 Co355 2.057 . S
O371 C359 1.232 . S
H372 C391 0.929 . S
H373 C392 0.929 . S
H374 C404 0.931 . S
H375 C396 0.929 . S
H376 C405 0.930 . S
H377 C397 0.931 . S
O378 Co354 2.097 . S
O378 C406 1.214 . S
H379 C407 0.929 . S
H380 C408 0.929 . S
H381 C409 0.930 . S
H382 C410 0.929 . S
H383 C412 0.930 . S
H384 C389 0.930 . S
H385 C393 0.930 . S
O386 Co355 2.037 . S
O386 C406 1.234 . S
C387 O361 1.269 . S
C387 O362 1.257 . S
C388 H363 0.930 . S
C388 C391 1.388 . S
C388 C393 1.418 . S
C389 H384 0.930 . S
C389 C392 1.404 . S
C389 C393 1.353 . S
N390 Co355 2.145 . S
N390 C391 1.397 . S
N390 C392 1.334 . S
C391 H372 0.929 . S
C391 C388 1.388 . S
C391 N390 1.397 . S
C392 H373 0.929 . S
C392 C389 1.404 . S
C392 N390 1.334 . S
C393 H385 0.930 . S
C393 C388 1.418 . S
C393 C389 1.353 . S
C394 H364 0.930 . S
C394 N395 1.330 . S
C394 C396 1.446 . S
N395 Co354 2.151 . S
N395 C394 1.330 . S
N395 C399 1.418 . S
C396 H375 0.929 . S
C396 C394 1.446 . S
C396 C397 1.332 . S
C397 H377 0.931 . S
C397 C396 1.332 . S
C397 C398 1.267 . S
C398 H366 0.929 . S
C398 C397 1.267 . S
C398 C399 1.251 . S
C399 H369 0.929 . S
C399 N395 1.418 . S
C399 C398 1.251 . S
C400 H367 0.930 . S
C400 C402 1.406 . S
C400 C405 1.261 . S
C401 H368 0.930 . S
C401 N403 1.325 . S
C401 C404 1.357 . S
C402 H370 0.928 . S
C402 C400 1.406 . S
C402 N403 1.261 . S
N403 Co354 2.214 . S
N403 C401 1.325 . S
N403 C402 1.261 . S
C404 H374 0.931 . S
C404 C401 1.357 . S
C404 C405 1.312 . S
C405 H376 0.930 . S
C405 C400 1.261 . S
C405 C404 1.312 . S
C406 O378 1.214 . S
C406 O386 1.234 . S
C407 H379 0.929 . S
C407 C410 1.391 . S
C407 C412 1.391 . S
C408 H380 0.929 . S
C408 C409 1.390 . S
C408 N411 1.391 . S
C409 H381 0.930 . S
C409 C408 1.390 . S
C409 C410 1.392 . S
C410 H382 0.929 . S
C410 C407 1.391 . S
C410 C409 1.392 . S
N411 Co355 2.257 . S
N411 C408 1.391 . S
N411 C412 1.388 . S
C412 H383 0.930 . S
C412 C407 1.391 . S
C412 N411 1.388 . S
Co413 O415 2.143 . S
Co413 O421 2.074 . S
Co413 O424 2.093 . S
Co413 O437 2.097 . S
Co413 N454 2.151 1_655 S
Co413 N462 2.214 . S
Co414 O415 2.160 1_545 S
Co414 O420 2.058 . S
Co414 O430 2.057 1_656 S
Co414 O445 2.037 1_545 S
Co414 N449 2.145 1_556 S
Co414 N470 2.257 1_546 S
O415 Co413 2.143 . S
O415 Co414 2.160 1_565 S
C416 O417 1.278 . S
C416 O424 1.224 1_554 S
O417 C416 1.278 . S
C418 O419 1.245 1_545 S
C418 O430 1.232 . S
O419 C418 1.245 1_565 S
O420 Co414 2.058 . S
O420 C446 1.270 1_545 S
O421 Co413 2.074 . S
O421 C446 1.257 . S
H422 C447 0.930 . S
H423 C453 0.930 . S
O424 Co413 2.093 . S
O424 C416 1.224 1_556 S
H425 C457 0.929 . S
H426 C459 0.930 . S
H427 C460 0.930 . S
H428 C458 0.929 . S
H429 C461 0.928 . S
O430 Co414 2.057 1_454 S
O430 C418 1.232 . S
H431 C450 0.929 . S
H432 C451 0.911 1_455 S
H433 C463 0.931 . S
H434 C455 0.929 . S
H435 C464 0.930 . S
H436 C456 0.931 . S
O437 Co413 2.097 . S
O437 C465 1.214 . S
H438 C466 0.929 . S
H439 C467 0.929 1_545 S
H440 C468 0.930 . S
H441 C469 0.929 . S
H442 C471 0.930 1_455 S
H443 C448 0.930 . S
H444 C452 0.930 . S
O445 Co414 2.037 1_565 S
O445 C465 1.234 . S
C446 O420 1.270 1_565 S
C446 O421 1.257 . S
C447 H422 0.930 . S
C447 C450 1.388 . S
C447 C452 1.418 1_556 S
C448 H443 0.930 . S
C448 C451 1.404 . S
C448 C452 1.353 . S
N449 Co414 2.145 1_554 S
N449 C450 1.397 1_554 S
N449 C451 1.334 . S
C450 H431 0.929 . S
C450 C447 1.388 . S
C450 N449 1.397 1_556 S
C451 H432 0.911 1_655 S
C451 C448 1.404 . S
C451 N449 1.334 . S
C452 H444 0.930 . S
C452 C447 1.418 1_554 S
C452 C448 1.353 . S
C453 H423 0.930 . S
C453 N454 1.330 . S
C453 C455 1.446 . S
N454 Co413 2.151 1_455 S
N454 C453 1.330 . S
N454 C458 1.418 . S
C455 H434 0.929 . S
C455 C453 1.446 . S
C455 C456 1.332 . S
C456 H436 0.931 . S
C456 C455 1.332 . S
C456 C457 1.267 . S
C457 H425 0.929 . S
C457 C456 1.267 . S
C457 C458 1.251 . S
C458 H428 0.929 . S
C458 N454 1.418 . S
C458 C457 1.251 . S
C459 H426 0.930 . S
C459 C461 1.406 . S
C459 C464 1.261 . S
C460 H427 0.930 . S
C460 N462 1.325 . S
C460 C463 1.357 . S
C461 H429 0.928 . S
C461 C459 1.406 . S
C461 N462 1.261 . S
N462 Co413 2.214 . S
N462 C460 1.325 . S
N462 C461 1.261 . S
C463 H433 0.931 . S
C463 C460 1.357 . S
C463 C464 1.312 . S
C464 H435 0.930 . S
C464 C459 1.261 . S
C464 C463 1.312 . S
C465 O437 1.214 . S
C465 O445 1.234 . S
C466 H438 0.929 . S
C466 C469 1.391 . S
C466 C471 1.391 . S
C467 H439 0.929 1_565 S
C467 C468 1.390 . S
C467 N470 1.391 . S
C468 H440 0.930 . S
C468 C467 1.390 . S
C468 C469 1.392 . S
C469 H441 0.929 . S
C469 C466 1.391 . S
C469 C468 1.392 . S
N470 Co414 2.257 1_564 S
N470 C467 1.391 . S
N470 C471 1.388 . S
C471 H442 0.930 1_655 S
C471 C466 1.391 . S
C471 N470 1.388 . S
Co472 O474 2.143 . S
Co472 O480 2.074 . S
Co472 O483 2.093 . S
Co472 O496 2.097 . S
Co472 N513 2.151 . S
Co472 N521 2.214 . S
Co473 O474 2.160 . S
Co473 O479 2.058 . S
Co473 O489 2.057 . S
Co473 O504 2.037 . S
Co473 N508 2.145 . S
Co473 N529 2.257 . S
O474 Co472 2.143 . S
O474 Co473 2.160 . S
C475 O476 1.278 . S
C475 O483 1.224 . S
O476 C475 1.278 . S
C477 O478 1.245 . S
C477 O489 1.232 . S
O478 C477 1.245 . S
O479 Co473 2.058 . S
O479 C505 1.269 . S
O480 Co472 2.074 . S
O480 C505 1.257 . S
H481 C506 0.930 . S
H482 C512 0.930 . S
O483 Co472 2.093 . S
O483 C475 1.224 . S
H484 C516 0.929 . S
H485 C518 0.930 . S
H486 C519 0.930 . S
H487 C517 0.929 . S
H488 C520 0.928 . S
O489 Co473 2.057 . S
O489 C477 1.232 . S
H490 C509 0.929 . S
H491 C510 0.929 . S
H492 C522 0.931 . S
H493 C514 0.929 . S
H494 C523 0.930 . S
H495 C515 0.931 . S
O496 Co472 2.097 . S
O496 C524 1.214 . S
H497 C525 0.929 . S
H498 C526 0.929 . S
H499 C527 0.930 . S
H500 C528 0.929 . S
H501 C530 0.930 . S
H502 C507 0.930 1_554 S
H503 C511 0.930 1_554 S
O504 Co473 2.037 . S
O504 C524 1.234 . S
C505 O479 1.269 . S
C505 O480 1.257 . S
C506 H481 0.930 . S
C506 C509 1.388 . S
C506 C511 1.418 . S
C507 H502 0.930 1_556 S
C507 C510 1.404 . S
C507 C511 1.353 . S
N508 Co473 2.145 . S
N508 C509 1.397 . S
N508 C510 1.334 . S
C509 H490 0.929 . S
C509 C506 1.388 . S
C509 N508 1.397 . S
C510 H491 0.929 . S
C510 C507 1.404 . S
C510 N508 1.334 . S
C511 H503 0.930 1_556 S
C511 C506 1.418 . S
C511 C507 1.353 . S
C512 H482 0.930 . S
C512 N513 1.330 . S
C512 C514 1.446 . S
N513 Co472 2.151 . S
N513 C512 1.330 . S
N513 C517 1.418 . S
C514 H493 0.929 . S
C514 C512 1.446 . S
C514 C515 1.332 . S
C515 H495 0.931 . S
C515 C514 1.332 . S
C515 C516 1.267 . S
C516 H484 0.929 . S
C516 C515 1.267 . S
C516 C517 1.251 . S
C517 H487 0.929 . S
C517 N513 1.418 . S
C517 C516 1.251 . S
C518 H485 0.930 . S
C518 C520 1.406 . S
C518 C523 1.261 . S
C519 H486 0.930 . S
C519 N521 1.325 . S
C519 C522 1.357 . S
C520 H488 0.928 . S
C520 C518 1.406 . S
C520 N521 1.261 . S
N521 Co472 2.214 . S
N521 C519 1.325 . S
N521 C520 1.261 . S
C522 H492 0.931 . S
C522 C519 1.357 . S
C522 C523 1.312 . S
C523 H494 0.930 . S
C523 C518 1.261 . S
C523 C522 1.312 . S
C524 O496 1.214 . S
C524 O504 1.234 . S
C525 H497 0.929 . S
C525 C528 1.391 . S
C525 C530 1.391 . S
C526 H498 0.929 . S
C526 C527 1.390 . S
C526 N529 1.391 . S
C527 H499 0.930 . S
C527 C526 1.390 . S
C527 C528 1.392 . S
C528 H500 0.929 . S
C528 C525 1.391 . S
C528 C527 1.392 . S
N529 Co473 2.257 . S
N529 C526 1.391 . S
N529 C530 1.388 . S
C530 H501 0.930 . S
C530 C525 1.391 . S
C530 N529 1.388 . S
Co531 O533 2.143 1_456 S
Co531 O539 2.074 . S
Co531 O542 2.093 . S
Co531 O555 2.097 . S
Co531 N572 2.151 1_455 S
Co531 N580 2.214 . S
Co532 O533 2.160 1_455 S
Co532 O538 2.058 1_454 S
Co532 O548 2.057 1_455 S
Co532 O563 2.037 . S
Co532 N567 2.145 . S
Co532 N588 2.257 . S
O533 Co531 2.143 1_654 S
O533 Co532 2.160 1_655 S
C534 O535 1.276 . S
C534 O542 1.217 1_654 S
O535 C534 1.276 . S
C536 O537 1.245 . S
C536 O548 1.232 . S
O537 C536 1.245 . S
O538 Co532 2.058 1_656 S
O538 C564 1.269 . S
O539 Co531 2.074 . S
O539 C564 1.257 1_455 S
H540 C565 0.932 . S
H541 C571 0.930 . S
O542 Co531 2.093 . S
O542 C534 1.217 1_456 S
H543 C575 0.929 . S
H544 C577 0.930 . S
H545 C578 0.930 . S
H546 C576 0.929 . S
H547 C579 0.928 . S
O548 Co532 2.057 1_655 S
O548 C536 1.232 . S
H549 C568 0.929 1_556 S
H550 C569 0.929 1_655 S
H551 C581 0.931 . S
H552 C573 0.929 . S
H553 C582 0.930 . S
H554 C574 0.931 . S
O555 Co531 2.097 . S
O555 C583 1.214 . S
H556 C584 0.929 . S
H557 C585 0.929 . S
H558 C586 0.930 . S
H559 C587 0.929 . S
H560 C589 0.930 1_655 S
H561 C566 0.930 . S
H562 C570 0.930 . S
O563 Co532 2.037 . S
O563 C583 1.233 1_554 S
C564 O538 1.269 . S
C564 O539 1.257 1_655 S
C565 H540 0.932 . S
C565 C568 1.388 . S
C565 C570 1.418 . S
C566 H561 0.930 . S
C566 C569 1.404 . S
C566 C570 1.353 . S
N567 Co532 2.145 . S
N567 C568 1.397 . S
N567 C569 1.334 . S
C568 H549 0.929 1_554 S
C568 C565 1.388 . S
C568 N567 1.397 . S
C569 H550 0.929 1_455 S
C569 C566 1.404 . S
C569 N567 1.334 . S
C570 H562 0.930 . S
C570 C565 1.418 . S
C570 C566 1.353 . S
C571 H541 0.930 . S
C571 N572 1.330 . S
C571 C573 1.446 . S
N572 Co531 2.151 1_655 S
N572 C571 1.330 . S
N572 C576 1.418 . S
C573 H552 0.929 . S
C573 C571 1.446 . S
C573 C574 1.332 . S
C574 H554 0.931 . S
C574 C573 1.332 . S
C574 C575 1.267 . S
C575 H543 0.929 . S
C575 C574 1.267 . S
C575 C576 1.251 . S
C576 H546 0.929 . S
C576 N572 1.418 . S
C576 C575 1.251 . S
C577 H544 0.930 . S
C577 C579 1.406 . S
C577 C582 1.261 . S
C578 H545 0.930 . S
C578 N580 1.325 . S
C578 C581 1.357 . S
C579 H547 0.928 . S
C579 C577 1.406 . S
C579 N580 1.261 . S
N580 Co531 2.214 . S
N580 C578 1.325 . S
N580 C579 1.261 . S
C581 H551 0.931 . S
C581 C578 1.357 . S
C581 C582 1.312 . S
C582 H553 0.930 . S
C582 C577 1.261 . S
C582 C581 1.312 . S
C583 O555 1.214 . S
C583 O563 1.233 1_556 S
C584 H556 0.929 . S
C584 C587 1.391 . S
C584 C589 1.391 . S
C585 H557 0.929 . S
C585 C586 1.390 . S
C585 N588 1.391 . S
C586 H558 0.930 . S
C586 C585 1.390 . S
C586 C587 1.392 . S
C587 H559 0.929 . S
C587 C584 1.391 . S
C587 C586 1.392 . S
N588 Co532 2.257 . S
N588 C585 1.391 . S
N588 C589 1.388 . S
C589 H560 0.930 1_455 S
C589 C584 1.391 . S
C589 N588 1.388 . S
Co590 O592 2.143 . S
Co590 O598 2.074 . S
Co590 O601 2.093 . S
Co590 O614 2.097 . S
Co590 N631 2.151 . S
Co590 N639 2.214 . S
Co591 O592 2.160 . S
Co591 O597 2.058 . S
Co591 O607 2.057 . S
Co591 O622 2.037 . S
Co591 N626 2.145 . S
Co591 N647 2.257 . S
O592 Co590 2.143 . S
O592 Co591 2.160 . S
C593 O594 1.278 . S
C593 O601 1.224 . S
O594 C593 1.278 . S
C595 O596 1.245 . S
C595 O607 1.232 . S
O596 C595 1.245 . S
O597 Co591 2.058 . S
O597 C623 1.269 . S
O598 Co590 2.074 . S
O598 C623 1.257 . S
H599 C624 0.930 . S
H600 C630 0.930 . S
O601 Co590 2.093 . S
O601 C593 1.224 . S
H602 C634 0.929 . S
H603 C636 0.930 . S
H604 C637 0.930 . S
H605 C635 0.929 . S
H606 C638 0.928 . S
O607 Co591 2.057 . S
O607 C595 1.232 . S
H608 C627 0.929 . S
H609 C628 0.929 . S
H610 C640 0.931 . S
H611 C632 0.929 . S
H612 C641 0.930 . S
H613 C633 0.931 . S
O614 Co590 2.097 . S
O614 C642 1.214 . S
H615 C643 0.929 . S
H616 C644 0.929 . S
H617 C645 0.930 . S
H618 C646 0.929 . S
H619 C648 0.930 . S
H620 C625 0.930 . S
H621 C629 0.930 . S
O622 Co591 2.037 . S
O622 C642 1.234 . S
C623 O597 1.269 . S
C623 O598 1.257 . S
C624 H599 0.930 . S
C624 C627 1.388 . S
C624 C629 1.418 . S
C625 H620 0.930 . S
C625 C628 1.404 . S
C625 C629 1.353 . S
N626 Co591 2.145 . S
N626 C627 1.397 . S
N626 C628 1.334 . S
C627 H608 0.929 . S
C627 C624 1.388 . S
C627 N626 1.397 . S
C628 H609 0.929 . S
C628 C625 1.404 . S
C628 N626 1.334 . S
C629 H621 0.930 . S
C629 C624 1.418 . S
C629 C625 1.353 . S
C630 H600 0.930 . S
C630 N631 1.330 . S
C630 C632 1.446 . S
N631 Co590 2.151 . S
N631 C630 1.330 . S
N631 C635 1.418 . S
C632 H611 0.929 . S
C632 C630 1.446 . S
C632 C633 1.332 . S
C633 H613 0.931 . S
C633 C632 1.332 . S
C633 C634 1.267 . S
C634 H602 0.929 . S
C634 C633 1.267 . S
C634 C635 1.251 . S
C635 H605 0.929 . S
C635 N631 1.418 . S
C635 C634 1.251 . S
C636 H603 0.930 . S
C636 C638 1.406 . S
C636 C641 1.261 . S
C637 H604 0.930 . S
C637 N639 1.325 . S
C637 C640 1.357 . S
C638 H606 0.928 . S
C638 C636 1.406 . S
C638 N639 1.261 . S
N639 Co590 2.214 . S
N639 C637 1.325 . S
N639 C638 1.261 . S
C640 H610 0.931 . S
C640 C637 1.357 . S
C640 C641 1.312 . S
C641 H612 0.930 . S
C641 C636 1.261 . S
C641 C640 1.312 . S
C642 O614 1.214 . S
C642 O622 1.234 . S
C643 H615 0.929 . S
C643 C646 1.391 . S
C643 C648 1.391 . S
C644 H616 0.929 . S
C644 C645 1.390 . S
C644 N647 1.391 . S
C645 H617 0.930 . S
C645 C644 1.390 . S
C645 C646 1.392 . S
C646 H618 0.929 . S
C646 C643 1.391 . S
C646 C645 1.392 . S
N647 Co591 2.257 . S
N647 C644 1.391 . S
N647 C648 1.388 . S
C648 H619 0.930 . S
C648 C643 1.391 . S
C648 N647 1.388 . S
Co649 O651 2.143 . S
Co649 O657 2.074 . S
Co649 O660 2.093 . S
Co649 O673 2.097 . S
Co649 N690 2.151 . S
Co649 N698 2.214 . S
Co650 O651 2.160 . S
Co650 O656 2.058 . S
Co650 O666 2.057 1_455 S
Co650 O681 2.037 . S
Co650 N685 2.145 1_455 S
Co650 N706 2.257 1_455 S
O651 Co649 2.143 . S
O651 Co650 2.160 . S
C652 O653 1.278 . S
C652 O660 1.224 1_655 S
O653 C652 1.278 . S
C654 O655 1.245 1_655 S
C654 O666 1.232 . S
O655 C654 1.245 1_455 S
O656 Co650 2.058 . S
O656 C682 1.269 . S
O657 Co649 2.074 . S
O657 C682 1.257 . S
H658 C683 0.938 . S
H659 C689 0.930 . S
O660 Co649 2.093 . S
O660 C652 1.224 1_455 S
H661 C693 0.929 . S
H662 C695 0.930 . S
H663 C696 0.930 . S
H664 C694 0.929 . S
H665 C697 0.928 . S
O666 Co650 2.057 1_655 S
O666 C654 1.232 . S
H667 C686 0.929 1_455 S
H668 C687 0.929 . S
H669 C699 0.931 . S
H670 C691 0.929 . S
H671 C700 0.930 . S
H672 C692 0.931 . S
O673 Co649 2.097 . S
O673 C701 1.214 . S
H674 C702 0.929 . S
H675 C703 0.929 . S
H676 C704 0.930 . S
H677 C705 0.929 . S
H678 C707 0.930 . S
H679 C684 0.930 . S
H680 C688 0.930 . S
O681 Co650 2.037 . S
O681 C701 1.234 . S
C682 O656 1.269 . S
C682 O657 1.257 . S
C683 H658 0.938 . S
C683 C686 1.388 . S
C683 C688 1.418 . S
C684 H679 0.930 . S
C684 C687 1.404 . S
C684 C688 1.353 . S
N685 Co650 2.145 1_655 S
N685 C686 1.397 . S
N685 C687 1.334 . S
C686 H667 0.929 1_655 S
C686 C683 1.388 . S
C686 N685 1.397 . S
C687 H668 0.929 . S
C687 C684 1.404 . S
C687 N685 1.334 . S
C688 H680 0.930 . S
C688 C683 1.418 . S
C688 C684 1.353 . S
C689 H659 0.930 . S
C689 N690 1.330 . S
C689 C691 1.446 . S
N690 Co649 2.151 . S
N690 C689 1.330 . S
N690 C694 1.418 . S
C691 H670 0.929 . S
C691 C689 1.446 . S
C691 C692 1.332 . S
C692 H672 0.931 . S
C692 C691 1.332 . S
C692 C693 1.267 . S
C693 H661 0.929 . S
C693 C692 1.267 . S
C693 C694 1.251 . S
C694 H664 0.929 . S
C694 N690 1.418 . S
C694 C693 1.251 . S
C695 H662 0.930 . S
C695 C697 1.406 . S
C695 C700 1.261 . S
C696 H663 0.930 . S
C696 N698 1.325 . S
C696 C699 1.357 . S
C697 H665 0.928 . S
C697 C695 1.406 . S
C697 N698 1.261 . S
N698 Co649 2.214 . S
N698 C696 1.325 . S
N698 C697 1.261 . S
C699 H669 0.931 . S
C699 C696 1.357 . S
C699 C700 1.312 . S
C700 H671 0.930 . S
C700 C695 1.261 . S
C700 C699 1.312 . S
C701 O673 1.214 . S
C701 O681 1.234 . S
C702 H674 0.929 . S
C702 C705 1.391 . S
C702 C707 1.391 . S
C703 H675 0.929 . S
C703 C704 1.390 . S
C703 N706 1.391 . S
C704 H676 0.930 . S
C704 C703 1.390 . S
C704 C705 1.392 . S
C705 H677 0.929 . S
C705 C702 1.391 . S
C705 C704 1.392 . S
N706 Co650 2.257 1_655 S
N706 C703 1.391 . S
N706 C707 1.388 . S
C707 H678 0.930 . S
C707 C702 1.391 . S
C707 N706 1.388 . S
Co708 O710 2.143 . S
Co708 O716 2.074 . S
Co708 O719 2.093 . S
Co708 O732 2.097 . S
Co708 N749 2.151 . S
Co708 N757 2.214 . S
Co709 O710 2.160 1_556 S
Co709 O715 2.058 1_556 S
Co709 O725 2.057 . S
Co709 O740 2.037 1_556 S
Co709 N744 2.145 . S
Co709 N765 2.257 . S
O710 Co708 2.143 . S
O710 Co709 2.160 1_554 S
C711 O712 1.278 . S
C711 O719 1.224 1_556 S
O712 C711 1.278 . S
C713 O714 1.245 . S
C713 O725 1.232 . S
O714 C713 1.245 . S
O715 Co709 2.058 1_554 S
O715 C741 1.269 . S
O716 Co708 2.074 . S
O716 C741 1.257 . S
H717 C742 0.930 1_554 S
H718 C748 0.930 . S
O719 Co708 2.093 . S
O719 C711 1.224 1_554 S
H720 C752 0.929 . S
H721 C754 0.930 . S
H722 C755 0.930 . S
H723 C753 0.929 . S
H724 C756 0.928 . S
O725 Co709 2.057 . S
O725 C713 1.232 . S
H726 C745 0.922 1_554 S
H727 C746 0.929 . S
H728 C758 0.931 . S
H729 C750 0.929 . S
H730 C759 0.930 . S
H731 C751 0.931 . S
O732 Co708 2.097 . S
O732 C760 1.214 . S
H733 C761 0.929 . S
H734 C762 0.929 . S
H735 C763 0.930 . S
H736 C764 0.929 . S
H737 C766 0.930 . S
H738 C743 0.930 . S
H739 C747 0.930 . S
O740 Co709 2.037 1_554 S
O740 C760 1.234 . S
C741 O715 1.269 . S
C741 O716 1.257 . S
C742 H717 0.930 1_556 S
C742 C745 1.388 . S
C742 C747 1.418 . S
C743 H738 0.930 . S
C743 C746 1.404 . S
C743 C747 1.353 . S
N744 Co709 2.145 . S
N744 C745 1.404 . S
N744 C746 1.334 . S
C745 H726 0.922 1_556 S
C745 C742 1.388 . S
C745 N744 1.404 . S
C746 H727 0.929 . S
C746 C743 1.404 . S
C746 N744 1.334 . S
C747 H739 0.930 . S
C747 C742 1.418 . S
C747 C743 1.353 . S
C748 H718 0.930 . S
C748 N749 1.330 . S
C748 C750 1.446 . S
N749 Co708 2.151 . S
N749 C748 1.330 . S
N749 C753 1.418 . S
C750 H729 0.929 . S
C750 C748 1.446 . S
C750 C751 1.332 . S
C751 H731 0.931 . S
C751 C750 1.332 . S
C751 C752 1.267 . S
C752 H720 0.929 . S
C752 C751 1.267 . S
C752 C753 1.251 . S
C753 H723 0.929 . S
C753 N749 1.418 . S
C753 C752 1.251 . S
C754 H721 0.930 . S
C754 C756 1.406 . S
C754 C759 1.261 . S
C755 H722 0.930 . S
C755 N757 1.325 . S
C755 C758 1.357 . S
C756 H724 0.928 . S
C756 C754 1.406 . S
C756 N757 1.261 . S
N757 Co708 2.214 . S
N757 C755 1.325 . S
N757 C756 1.261 . S
C758 H728 0.931 . S
C758 C755 1.357 . S
C758 C759 1.312 . S
C759 H730 0.930 . S
C759 C754 1.261 . S
C759 C758 1.312 . S
C760 O732 1.214 . S
C760 O740 1.234 . S
C761 H733 0.929 . S
C761 C764 1.391 . S
C761 C766 1.391 . S
C762 H734 0.929 . S
C762 C763 1.390 . S
C762 N765 1.391 . S
C763 H735 0.930 . S
C763 C762 1.390 . S
C763 C764 1.392 . S
C764 H736 0.929 . S
C764 C761 1.391 . S
C764 C763 1.392 . S
N765 Co709 2.257 . S
N765 C762 1.391 . S
N765 C766 1.388 . S
C766 H737 0.930 . S
C766 C761 1.391 . S
C766 N765 1.388 . S
Co767 O769 2.143 . S
Co767 O775 2.074 . S
Co767 O778 2.093 . S
Co767 O791 2.097 . S
Co767 N808 2.151 . S
Co767 N816 2.214 . S
Co768 O769 2.160 . S
Co768 O774 2.058 . S
Co768 O784 2.057 . S
Co768 O799 2.037 . S
Co768 N803 2.145 . S
Co768 N824 2.257 . S
O769 Co767 2.143 . S
O769 Co768 2.160 . S
C770 O771 1.278 . S
C770 O778 1.224 . S
O771 C770 1.278 . S
C772 O773 1.245 . S
C772 O784 1.232 . S
O773 C772 1.245 . S
O774 Co768 2.058 . S
O774 C800 1.269 . S
O775 Co767 2.074 . S
O775 C800 1.257 . S
H776 C801 0.930 . S
H777 C807 0.930 . S
O778 Co767 2.093 . S
O778 C770 1.224 . S
H779 C811 0.929 . S
H780 C813 0.930 . S
H781 C814 0.930 . S
H782 C812 0.929 . S
H783 C815 0.928 . S
O784 Co768 2.057 . S
O784 C772 1.232 . S
H785 C804 0.929 . S
H786 C805 0.929 . S
H787 C817 0.930 . S
H788 C809 0.929 . S
H789 C818 0.930 . S
H790 C810 0.931 . S
O791 Co767 2.097 . S
O791 C819 1.214 . S
H792 C820 0.929 . S
H793 C821 0.929 . S
H794 C822 0.930 . S
H795 C823 0.929 . S
H796 C825 0.930 . S
H797 C802 0.930 . S
H798 C806 0.930 . S
O799 Co768 2.037 . S
O799 C819 1.234 . S
C800 O774 1.269 . S
C800 O775 1.257 . S
C801 H776 0.930 . S
C801 C804 1.388 . S
C801 C806 1.418 . S
C802 H797 0.930 . S
C802 C805 1.404 . S
C802 C806 1.353 . S
N803 Co768 2.145 . S
N803 C804 1.397 . S
N803 C805 1.334 . S
C804 H785 0.929 . S
C804 C801 1.388 . S
C804 N803 1.397 . S
C805 H786 0.929 . S
C805 C802 1.404 . S
C805 N803 1.334 . S
C806 H798 0.930 . S
C806 C801 1.418 . S
C806 C802 1.353 . S
C807 H777 0.930 . S
C807 N808 1.330 . S
C807 C809 1.446 . S
N808 Co767 2.151 . S
N808 C807 1.330 . S
N808 C812 1.418 . S
C809 H788 0.929 . S
C809 C807 1.446 . S
C809 C810 1.332 . S
C810 H790 0.931 . S
C810 C809 1.332 . S
C810 C811 1.267 . S
C811 H779 0.929 . S
C811 C810 1.267 . S
C811 C812 1.251 . S
C812 H782 0.929 . S
C812 N808 1.418 . S
C812 C811 1.251 . S
C813 H780 0.930 . S
C813 C815 1.406 . S
C813 C818 1.261 1_655 S
C814 H781 0.930 . S
C814 N816 1.325 . S
C814 C817 1.357 . S
C815 H783 0.928 . S
C815 C813 1.406 . S
C815 N816 1.261 . S
N816 Co767 2.214 . S
N816 C814 1.325 . S
N816 C815 1.261 . S
C817 H787 0.930 . S
C817 C814 1.357 . S
C817 C818 1.312 1_655 S
C818 H789 0.930 . S
C818 C813 1.261 1_455 S
C818 C817 1.312 1_455 S
C819 O791 1.214 . S
C819 O799 1.234 . S
C820 H792 0.929 . S
C820 C823 1.391 . S
C820 C825 1.391 . S
C821 H793 0.929 . S
C821 C822 1.390 . S
C821 N824 1.391 . S
C822 H794 0.930 . S
C822 C821 1.390 . S
C822 C823 1.392 . S
C823 H795 0.929 . S
C823 C820 1.391 . S
C823 C822 1.392 . S
N824 Co768 2.257 . S
N824 C821 1.391 . S
N824 C825 1.388 . S
C825 H796 0.930 . S
C825 C820 1.391 . S
C825 N824 1.388 . S
Co826 O828 2.143 . S
Co826 O834 2.074 . S
Co826 O837 2.093 . S
Co826 O850 2.097 . S
Co826 N867 2.151 . S
Co826 N875 2.214 . S
Co827 O828 2.160 . S
Co827 O833 2.058 . S
Co827 O843 2.057 . S
Co827 O858 2.037 . S
Co827 N862 2.145 . S
Co827 N883 2.257 . S
O828 Co826 2.143 . S
O828 Co827 2.160 . S
C829 O830 1.278 . S
C829 O837 1.224 . S
O830 C829 1.278 . S
C831 O832 1.245 . S
C831 O843 1.232 . S
O832 C831 1.245 . S
O833 Co827 2.058 . S
O833 C859 1.269 . S
O834 Co826 2.074 . S
O834 C859 1.257 . S
H835 C860 0.930 . S
H836 C866 0.930 . S
O837 Co826 2.093 . S
O837 C829 1.224 . S
H838 C870 0.929 . S
H839 C872 0.930 . S
H840 C873 0.930 . S
H841 C871 0.929 . S
H842 C874 0.928 . S
O843 Co827 2.057 . S
O843 C831 1.232 . S
H844 C863 0.929 . S
H845 C864 0.929 . S
H846 C876 0.931 . S
H847 C868 0.929 . S
H848 C877 0.930 . S
H849 C869 0.931 . S
O850 Co826 2.097 . S
O850 C878 1.214 . S
H851 C879 0.929 . S
H852 C880 0.929 . S
H853 C881 0.930 . S
H854 C882 0.929 . S
H855 C884 0.930 . S
H856 C861 0.930 . S
H857 C865 0.930 . S
O858 Co827 2.037 . S
O858 C878 1.234 . S
C859 O833 1.269 . S
C859 O834 1.257 . S
C860 H835 0.930 . S
C860 C863 1.388 . S
C860 C865 1.418 . S
C861 H856 0.930 . S
C861 C864 1.404 . S
C861 C865 1.353 . S
N862 Co827 2.145 . S
N862 C863 1.397 . S
N862 C864 1.334 . S
C863 H844 0.929 . S
C863 C860 1.388 . S
C863 N862 1.397 . S
C864 H845 0.929 . S
C864 C861 1.404 . S
C864 N862 1.334 . S
C865 H857 0.930 . S
C865 C860 1.418 . S
C865 C861 1.353 . S
C866 H836 0.930 . S
C866 N867 1.330 . S
C866 C868 1.446 . S
N867 Co826 2.151 . S
N867 C866 1.330 . S
N867 C871 1.418 . S
C868 H847 0.929 . S
C868 C866 1.446 . S
C868 C869 1.332 . S
C869 H849 0.931 . S
C869 C868 1.332 . S
C869 C870 1.267 . S
C870 H838 0.929 . S
C870 C869 1.267 . S
C870 C871 1.251 . S
C871 H841 0.929 . S
C871 N867 1.418 . S
C871 C870 1.251 . S
C872 H839 0.930 . S
C872 C874 1.406 . S
C872 C877 1.261 . S
C873 H840 0.930 . S
C873 N875 1.325 . S
C873 C876 1.357 . S
C874 H842 0.928 . S
C874 C872 1.406 . S
C874 N875 1.261 . S
N875 Co826 2.214 . S
N875 C873 1.325 . S
N875 C874 1.261 . S
C876 H846 0.931 . S
C876 C873 1.357 . S
C876 C877 1.312 . S
C877 H848 0.930 . S
C877 C872 1.261 . S
C877 C876 1.312 . S
C878 O850 1.214 . S
C878 O858 1.234 . S
C879 H851 0.929 . S
C879 C882 1.391 . S
C879 C884 1.391 . S
C880 H852 0.929 . S
C880 C881 1.390 . S
C880 N883 1.391 . S
C881 H853 0.930 . S
C881 C880 1.390 . S
C881 C882 1.392 . S
C882 H854 0.929 . S
C882 C879 1.391 . S
C882 C881 1.392 . S
N883 Co827 2.257 . S
N883 C880 1.391 . S
N883 C884 1.388 . S
C884 H855 0.930 . S
C884 C879 1.391 . S
C884 N883 1.388 . S
Co885 O887 2.143 . S
Co885 O893 2.074 . S
Co885 O896 2.093 . S
Co885 O909 2.097 . S
Co885 N926 2.151 . S
Co885 N934 2.214 . S
Co886 O887 2.160 . S
Co886 O892 2.058 . S
Co886 O902 2.057 . S
Co886 O917 2.037 . S
Co886 N921 2.145 . S
Co886 N942 2.257 . S
O887 Co885 2.143 . S
O887 Co886 2.160 . S
C888 O889 1.278 . S
C888 O896 1.224 . S
O889 C888 1.278 . S
C890 O891 1.245 . S
C890 O902 1.232 . S
O891 C890 1.245 . S
O892 Co886 2.058 . S
O892 C918 1.269 . S
O893 Co885 2.074 . S
O893 C918 1.257 . S
H894 C919 0.930 . S
H895 C925 0.930 . S
O896 Co885 2.093 . S
O896 C888 1.224 . S
H897 C929 0.929 . S
H898 C931 0.930 . S
H899 C932 0.930 . S
H900 C930 0.929 . S
H901 C933 0.928 . S
O902 Co886 2.057 . S
O902 C890 1.232 . S
H903 C922 0.929 . S
H904 C923 0.929 . S
H905 C935 0.931 . S
H906 C927 0.929 . S
H907 C936 0.930 . S
H908 C928 0.931 . S
O909 Co885 2.097 . S
O909 C937 1.214 . S
H910 C938 0.929 . S
H911 C939 0.929 . S
H912 C940 0.930 . S
H913 C941 0.929 . S
H914 C943 0.930 . S
H915 C920 0.930 . S
H916 C924 0.930 . S
O917 Co886 2.037 . S
O917 C937 1.234 . S
C918 O892 1.269 . S
C918 O893 1.257 . S
C919 H894 0.930 . S
C919 C922 1.388 . S
C919 C924 1.418 . S
C920 H915 0.930 . S
C920 C923 1.404 . S
C920 C924 1.353 . S
N921 Co886 2.145 . S
N921 C922 1.397 . S
N921 C923 1.334 . S
C922 H903 0.929 . S
C922 C919 1.388 . S
C922 N921 1.397 . S
C923 H904 0.929 . S
C923 C920 1.404 . S
C923 N921 1.334 . S
C924 H916 0.930 . S
C924 C919 1.418 . S
C924 C920 1.353 . S
C925 H895 0.930 . S
C925 N926 1.330 . S
C925 C927 1.446 . S
N926 Co885 2.151 . S
N926 C925 1.330 . S
N926 C930 1.418 . S
C927 H906 0.929 . S
C927 C925 1.446 . S
C927 C928 1.332 . S
C928 H908 0.931 . S
C928 C927 1.332 . S
C928 C929 1.267 . S
C929 H897 0.929 . S
C929 C928 1.267 . S
C929 C930 1.251 . S
C930 H900 0.929 . S
C930 N926 1.418 . S
C930 C929 1.251 . S
C931 H898 0.930 . S
C931 C933 1.406 . S
C931 C936 1.261 . S
C932 H899 0.930 . S
C932 N934 1.325 . S
C932 C935 1.357 . S
C933 H901 0.928 . S
C933 C931 1.406 . S
C933 N934 1.261 . S
N934 Co885 2.214 . S
N934 C932 1.325 . S
N934 C933 1.261 . S
C935 H905 0.931 . S
C935 C932 1.357 . S
C935 C936 1.312 . S
C936 H907 0.930 . S
C936 C931 1.261 . S
C936 C935 1.312 . S
C937 O909 1.214 . S
C937 O917 1.234 . S
C938 H910 0.929 . S
C938 C941 1.391 . S
C938 C943 1.391 . S
C939 H911 0.929 . S
C939 C940 1.390 . S
C939 N942 1.391 . S
C940 H912 0.930 . S
C940 C939 1.390 . S
C940 C941 1.392 . S
C941 H913 0.929 . S
C941 C938 1.391 . S
C941 C940 1.392 . S
N942 Co886 2.257 . S
N942 C939 1.391 . S
N942 C943 1.388 . S
C943 H914 0.930 . S
C943 C938 1.391 . S
C943 N942 1.388 . S
H944 C950 0.930 . S
H945 C953 0.930 . S
H946 C954 0.930 . S
H947 C955 0.930 . S
H948 C958 0.930 . S
H949 C959 0.930 . S
C950 H944 0.930 . S
C950 C951 1.355 . S
C950 C952 1.415 . S
C951 C950 1.355 . S
C951 C953 1.419 . S
C952 C950 1.415 . S
C952 C957 1.425 . S
C952 C959 1.409 . S
C953 H945 0.930 . S
C953 C951 1.419 . S
C953 C954 1.362 . S
C954 H946 0.930 . S
C954 C953 1.362 . S
C954 C957 1.409 . S
C955 H947 0.930 . S
C955 C956 1.355 . S
C955 C957 1.415 . S
C956 C955 1.355 . S
C956 C958 1.419 . S
C957 C952 1.425 . S
C957 C954 1.409 . S
C957 C955 1.415 . S
C958 H948 0.930 . S
C958 C956 1.419 . S
C958 C959 1.362 . S
C959 H949 0.930 . S
C959 C952 1.409 . S
C959 C958 1.362 . S
H960 C966 0.930 . S
H961 C969 0.930 . S
H962 C970 0.930 . S
H963 C971 0.930 . S
H964 C974 0.930 . S
H965 C975 0.930 . S
C966 H960 0.930 . S
C966 C967 1.355 . S
C966 C968 1.415 . S
C967 C966 1.355 . S
C967 C969 1.419 . S
C968 C966 1.415 . S
C968 C973 1.425 . S
C968 C975 1.409 . S
C969 H961 0.930 . S
C969 C967 1.419 . S
C969 C970 1.362 . S
C970 H962 0.930 . S
C970 C969 1.362 . S
C970 C973 1.409 . S
C971 H963 0.930 . S
C971 C972 1.355 . S
C971 C973 1.415 . S
C972 C971 1.355 . S
C972 C974 1.419 . S
C973 C968 1.425 . S
C973 C970 1.409 . S
C973 C971 1.415 . S
C974 H964 0.930 . S
C974 C972 1.419 . S
C974 C975 1.362 . S
C975 H965 0.930 . S
C975 C968 1.409 . S
C975 C974 1.362 . S
H976 C982 0.930 . S
H977 C985 0.930 . S
H978 C986 0.930 . S
H979 C987 0.930 . S
H980 C990 0.930 . S
H981 C991 0.930 . S
C982 H976 0.930 . S
C982 C983 1.355 . S
C982 C984 1.415 . S
C983 C982 1.355 . S
C983 C985 1.419 . S
C984 C982 1.415 . S
C984 C989 1.425 . S
C984 C991 1.409 . S
C985 H977 0.930 . S
C985 C983 1.419 . S
C985 C986 1.362 . S
C986 H978 0.930 . S
C986 C985 1.362 . S
C986 C989 1.409 . S
C987 H979 0.930 . S
C987 C988 1.355 . S
C987 C989 1.415 . S
C988 C987 1.355 . S
C988 C990 1.419 . S
C989 C984 1.425 . S
C989 C986 1.409 . S
C989 C987 1.415 . S
C990 H980 0.930 . S
C990 C988 1.419 . S
C990 C991 1.362 . S
C991 H981 0.930 . S
C991 C984 1.409 . S
C991 C990 1.362 . S
H992 C998 0.930 . S
H993 C1001 0.930 . S
H994 C1002 0.930 . S
H995 C1003 0.930 . S
H996 C1006 0.930 . S
H997 C1007 0.930 . S
C998 H992 0.930 . S
C998 C999 1.355 . S
C998 C1000 1.415 . S
C999 C998 1.355 . S
C999 C1001 1.419 . S
C1000 C998 1.415 . S
C1000 C1005 1.425 . S
C1000 C1007 1.409 . S
C1001 H993 0.930 . S
C1001 C999 1.419 . S
C1001 C1002 1.362 . S
C1002 H994 0.930 . S
C1002 C1001 1.362 . S
C1002 C1005 1.409 . S
C1003 H995 0.930 . S
C1003 C1004 1.355 . S
C1003 C1005 1.415 . S
C1004 C1003 1.355 . S
C1004 C1006 1.419 . S
C1005 C1000 1.425 . S
C1005 C1002 1.409 . S
C1005 C1003 1.415 . S
C1006 H996 0.930 . S
C1006 C1004 1.419 . S
C1006 C1007 1.362 . S
C1007 H997 0.930 . S
C1007 C1000 1.409 . S
C1007 C1006 1.362 . S
H1008 C1014 0.930 . S
H1009 C1017 0.930 . S
H1010 C1018 0.930 . S
H1011 C1019 0.930 . S
H1012 C1022 0.930 . S
H1013 C1023 0.930 . S
C1014 H1008 0.930 . S
C1014 C1015 1.355 . S
C1014 C1016 1.415 . S
C1015 C1014 1.355 . S
C1015 C1017 1.419 . S
C1016 C1014 1.415 . S
C1016 C1021 1.425 . S
C1016 C1023 1.409 . S
C1017 H1009 0.930 . S
C1017 C1015 1.419 . S
C1017 C1018 1.362 . S
C1018 H1010 0.930 . S
C1018 C1017 1.362 . S
C1018 C1021 1.409 . S
C1019 H1011 0.930 . S
C1019 C1020 1.355 . S
C1019 C1021 1.415 . S
C1020 C1019 1.355 . S
C1020 C1022 1.419 . S
C1021 C1016 1.425 . S
C1021 C1018 1.409 . S
C1021 C1019 1.415 . S
C1022 H1012 0.930 . S
C1022 C1020 1.419 . S
C1022 C1023 1.362 . S
C1023 H1013 0.930 . S
C1023 C1016 1.409 . S
C1023 C1022 1.362 . S
H1024 C1030 0.930 . S
H1025 C1033 0.930 . S
H1026 C1034 0.930 . S
H1027 C1035 0.930 . S
H1028 C1038 0.930 . S
H1029 C1039 0.930 . S
C1030 H1024 0.930 . S
C1030 C1031 1.355 . S
C1030 C1032 1.415 . S
C1031 C1030 1.355 . S
C1031 C1033 1.419 . S
C1032 C1030 1.415 . S
C1032 C1037 1.425 . S
C1032 C1039 1.409 . S
C1033 H1025 0.930 . S
C1033 C1031 1.419 . S
C1033 C1034 1.362 . S
C1034 H1026 0.930 . S
C1034 C1033 1.362 . S
C1034 C1037 1.409 . S
C1035 H1027 0.930 . S
C1035 C1036 1.355 . S
C1035 C1037 1.415 . S
C1036 C1035 1.355 . S
C1036 C1038 1.419 . S
C1037 C1032 1.425 . S
C1037 C1034 1.409 . S
C1037 C1035 1.415 . S
C1038 H1028 0.930 . S
C1038 C1036 1.419 . S
C1038 C1039 1.362 . S
C1039 H1029 0.930 . S
C1039 C1032 1.409 . S
C1039 C1038 1.362 . S
H1040 C1046 0.930 . S
H1041 C1049 0.930 . S
H1042 C1050 0.930 . S
H1043 C1051 0.930 . S
H1044 C1054 0.930 . S
H1045 C1055 0.930 . S
C1046 H1040 0.930 . S
C1046 C1047 1.355 . S
C1046 C1048 1.415 . S
C1047 C1046 1.355 . S
C1047 C1049 1.419 . S
C1048 C1046 1.415 . S
C1048 C1053 1.425 . S
C1048 C1055 1.409 . S
C1049 H1041 0.930 . S
C1049 C1047 1.419 . S
C1049 C1050 1.362 . S
C1050 H1042 0.930 . S
C1050 C1049 1.362 . S
C1050 C1053 1.409 . S
C1051 H1043 0.930 . S
C1051 C1052 1.355 . S
C1051 C1053 1.415 . S
C1052 C1051 1.355 . S
C1052 C1054 1.419 . S
C1053 C1048 1.425 . S
C1053 C1050 1.409 . S
C1053 C1051 1.415 . S
C1054 H1044 0.930 . S
C1054 C1052 1.419 . S
C1054 C1055 1.362 . S
C1055 H1045 0.930 . S
C1055 C1048 1.409 . S
C1055 C1054 1.362 . S
H1056 C1062 0.930 . S
H1057 C1065 0.930 . S
H1058 C1066 0.930 . S
H1059 C1067 0.930 . S
H1060 C1070 0.930 . S
H1061 C1071 0.930 . S
C1062 H1056 0.930 . S
C1062 C1063 1.355 . S
C1062 C1064 1.415 . S
C1063 C1062 1.355 . S
C1063 C1065 1.419 . S
C1064 C1062 1.415 . S
C1064 C1069 1.425 . S
C1064 C1071 1.409 . S
C1065 H1057 0.930 . S
C1065 C1063 1.419 . S
C1065 C1066 1.362 . S
C1066 H1058 0.930 . S
C1066 C1065 1.362 . S
C1066 C1069 1.409 . S
C1067 H1059 0.930 . S
C1067 C1068 1.355 . S
C1067 C1069 1.415 . S
C1068 C1067 1.355 . S
C1068 C1070 1.419 . S
C1069 C1064 1.425 . S
C1069 C1066 1.409 . S
C1069 C1067 1.415 . S
C1070 H1060 0.930 . S
C1070 C1068 1.419 . S
C1070 C1071 1.362 . S
C1071 H1061 0.930 . S
C1071 C1064 1.409 . S
C1071 C1070 1.362 . S
H1072 C1078 0.930 . S
H1073 C1081 0.930 . S
H1074 C1082 0.930 . S
H1075 C1083 0.930 . S
H1076 C1086 0.930 . S
H1077 C1087 0.930 . S
C1078 H1072 0.930 . S
C1078 C1079 1.355 . S
C1078 C1080 1.415 . S
C1079 C1078 1.355 . S
C1079 C1081 1.419 . S
C1080 C1078 1.415 . S
C1080 C1085 1.425 . S
C1080 C1087 1.409 . S
C1081 H1073 0.930 . S
C1081 C1079 1.419 . S
C1081 C1082 1.362 . S
C1082 H1074 0.930 . S
C1082 C1081 1.362 . S
C1082 C1085 1.409 . S
C1083 H1075 0.930 . S
C1083 C1084 1.355 . S
C1083 C1085 1.415 . S
C1084 C1083 1.355 . S
C1084 C1086 1.419 . S
C1085 C1080 1.425 . S
C1085 C1082 1.409 . S
C1085 C1083 1.415 . S
C1086 H1076 0.930 . S
C1086 C1084 1.419 . S
C1086 C1087 1.362 . S
C1087 H1077 0.930 . S
C1087 C1080 1.409 . S
C1087 C1086 1.362 . S
H1088 C1094 0.930 . S
H1089 C1097 0.930 . S
H1090 C1098 0.930 . S
H1091 C1099 0.930 . S
H1092 C1102 0.930 . S
H1093 C1103 0.930 1_455 S
C1094 H1088 0.930 . S
C1094 C1095 1.355 . S
C1094 C1096 1.415 . S
C1095 C1094 1.355 . S
C1095 C1097 1.419 1_545 S
C1096 C1094 1.415 . S
C1096 C1101 1.425 1_545 S
C1096 C1103 1.409 . S
C1097 H1089 0.930 . S
C1097 C1095 1.419 1_565 S
C1097 C1098 1.362 . S
C1098 H1090 0.930 . S
C1098 C1097 1.362 . S
C1098 C1101 1.409 . S
C1099 H1091 0.930 . S
C1099 C1100 1.355 . S
C1099 C1101 1.415 . S
C1100 C1099 1.355 . S
C1100 C1102 1.419 1_565 S
C1101 C1096 1.425 1_565 S
C1101 C1098 1.409 . S
C1101 C1099 1.415 . S
C1102 H1092 0.930 . S
C1102 C1100 1.419 1_545 S
C1102 C1103 1.362 . S
C1103 H1093 0.930 1_655 S
C1103 C1096 1.409 . S
C1103 C1102 1.362 . S
H1104 C1110 0.930 . S
H1105 C1113 0.930 . S
H1106 C1114 0.930 . S
H1107 C1115 0.930 . S
H1108 C1118 0.930 . S
H1109 C1119 0.930 . S
C1110 H1104 0.930 . S
C1110 C1111 1.355 . S
C1110 C1112 1.415 1_556 S
C1111 C1110 1.355 . S
C1111 C1113 1.419 . S
C1112 C1110 1.415 1_554 S
C1112 C1117 1.425 . S
C1112 C1119 1.409 . S
C1113 H1105 0.930 . S
C1113 C1111 1.419 . S
C1113 C1114 1.362 1_556 S
C1114 H1106 0.930 . S
C1114 C1113 1.362 1_554 S
C1114 C1117 1.409 . S
C1115 H1107 0.930 . S
C1115 C1116 1.355 . S
C1115 C1117 1.415 . S
C1116 C1115 1.355 . S
C1116 C1118 1.419 . S
C1117 C1112 1.425 . S
C1117 C1114 1.409 . S
C1117 C1115 1.415 . S
C1118 H1108 0.930 . S
C1118 C1116 1.419 . S
C1118 C1119 1.362 . S
C1119 H1109 0.930 . S
C1119 C1112 1.409 . S
C1119 C1118 1.362 . S
H1120 C1126 0.930 . S
H1121 C1129 0.930 . S
H1122 C1130 0.930 1_545 S
H1123 C1131 0.930 . S
H1124 C1134 0.930 . S
H1125 C1135 0.930 . S
C1126 H1120 0.930 . S
C1126 C1127 1.355 . S
C1126 C1128 1.415 . S
C1127 C1126 1.355 . S
C1127 C1129 1.419 . S
C1128 C1126 1.415 . S
C1128 C1133 1.425 . S
C1128 C1135 1.409 . S
C1129 H1121 0.930 . S
C1129 C1127 1.419 . S
C1129 C1130 1.362 . S
C1130 H1122 0.930 1_565 S
C1130 C1129 1.362 . S
C1130 C1133 1.409 . S
C1131 H1123 0.930 . S
C1131 C1132 1.355 . S
C1131 C1133 1.415 . S
C1132 C1131 1.355 . S
C1132 C1134 1.419 . S
C1133 C1128 1.425 . S
C1133 C1130 1.409 . S
C1133 C1131 1.415 . S
C1134 H1124 0.930 . S
C1134 C1132 1.419 . S
C1134 C1135 1.362 . S
C1135 H1125 0.930 . S
C1135 C1128 1.409 . S
C1135 C1134 1.362 . S
H1136 C1142 0.930 . S
H1137 C1145 0.930 . S
H1138 C1146 0.930 . S
H1139 C1147 0.930 . S
H1140 C1150 0.930 . S
H1141 C1151 0.930 . S
C1142 H1136 0.930 . S
C1142 C1143 1.355 . S
C1142 C1144 1.415 . S
C1143 C1142 1.355 . S
C1143 C1145 1.419 . S
C1144 C1142 1.415 . S
C1144 C1149 1.425 . S
C1144 C1151 1.409 . S
C1145 H1137 0.930 . S
C1145 C1143 1.419 . S
C1145 C1146 1.362 . S
C1146 H1138 0.930 . S
C1146 C1145 1.362 . S
C1146 C1149 1.409 . S
C1147 H1139 0.930 . S
C1147 C1148 1.355 . S
C1147 C1149 1.415 . S
C1148 C1147 1.355 . S
C1148 C1150 1.419 . S
C1149 C1144 1.425 . S
C1149 C1146 1.409 . S
C1149 C1147 1.415 . S
C1150 H1140 0.930 . S
C1150 C1148 1.419 . S
C1150 C1151 1.362 . S
C1151 H1141 0.930 . S
C1151 C1144 1.409 . S
C1151 C1150 1.362 . S
H1152 C1158 0.930 . S
H1153 C1161 0.930 . S
H1154 C1162 0.930 . S
H1155 C1163 0.930 . S
H1156 C1166 0.930 . S
H1157 C1167 0.930 . S
C1158 H1152 0.930 . S
C1158 C1159 1.355 . S
C1158 C1160 1.415 . S
C1159 C1158 1.355 . S
C1159 C1161 1.419 1_455 S
C1160 C1158 1.415 . S
C1160 C1165 1.425 1_455 S
C1160 C1167 1.409 . S
C1161 H1153 0.930 . S
C1161 C1159 1.419 1_655 S
C1161 C1162 1.362 . S
C1162 H1154 0.930 . S
C1162 C1161 1.362 . S
C1162 C1165 1.409 . S
C1163 H1155 0.930 . S
C1163 C1164 1.355 1_655 S
C1163 C1165 1.415 . S
C1164 C1163 1.355 1_455 S
C1164 C1166 1.419 . S
C1165 C1160 1.425 1_655 S
C1165 C1162 1.409 . S
C1165 C1163 1.415 . S
C1166 H1156 0.930 . S
C1166 C1164 1.419 . S
C1166 C1167 1.362 . S
C1167 H1157 0.930 . S
C1167 C1160 1.409 . S
C1167 C1166 1.362 . S
H1168 C1174 0.930 . S
H1169 C1177 0.930 . S
H1170 C1178 0.930 . S
H1171 C1179 0.930 . S
H1172 C1182 0.930 . S
H1173 C1183 0.930 . S
C1174 H1168 0.930 . S
C1174 C1175 1.355 . S
C1174 C1176 1.415 1_655 S
C1175 C1174 1.355 . S
C1175 C1177 1.419 . S
C1176 C1174 1.415 1_455 S
C1176 C1181 1.425 . S
C1176 C1183 1.409 . S
C1177 H1169 0.930 . S
C1177 C1175 1.419 . S
C1177 C1178 1.362 1_655 S
C1178 H1170 0.930 . S
C1178 C1177 1.362 1_455 S
C1178 C1181 1.409 . S
C1179 H1171 0.930 . S
C1179 C1180 1.355 . S
C1179 C1181 1.415 . S
C1180 C1179 1.355 . S
C1180 C1182 1.419 . S
C1181 C1176 1.425 . S
C1181 C1178 1.409 . S
C1181 C1179 1.415 . S
C1182 H1172 0.930 . S
C1182 C1180 1.419 . S
C1182 C1183 1.362 . S
C1183 H1173 0.930 . S
C1183 C1176 1.409 . S
C1183 C1182 1.362 . S
H1184 C1190 0.930 . S
H1185 C1193 0.930 . S
H1186 C1194 0.930 . S
H1187 C1195 0.930 . S
H1188 C1198 0.930 . S
H1189 C1199 0.930 . S
C1190 H1184 0.930 . S
C1190 C1191 1.355 . S
C1190 C1192 1.415 . S
C1191 C1190 1.355 . S
C1191 C1193 1.419 1_556 S
C1192 C1190 1.415 . S
C1192 C1197 1.425 . S
C1192 C1199 1.409 . S
C1193 H1185 0.930 . S
C1193 C1191 1.419 1_554 S
C1193 C1194 1.362 . S
C1194 H1186 0.930 . S
C1194 C1193 1.362 . S
C1194 C1197 1.409 1_554 S
C1195 H1187 0.930 . S
C1195 C1196 1.355 1_554 S
C1195 C1197 1.415 1_554 S
C1196 C1195 1.355 1_556 S
C1196 C1198 1.419 . S
C1197 C1192 1.425 . S
C1197 C1194 1.409 1_556 S
C1197 C1195 1.415 1_556 S
C1198 H1188 0.930 . S
C1198 C1196 1.419 . S
C1198 C1199 1.362 . S
C1199 H1189 0.930 . S
C1199 C1192 1.409 . S
C1199 C1198 1.362 . S
H1200 C1206 0.930 . S
H1201 C1209 0.930 . S
H1202 C1210 0.930 . S
H1203 C1211 0.930 . S
H1204 C1214 0.930 . S
H1205 C1215 0.930 . S
C1206 H1200 0.930 . S
C1206 C1207 1.355 . S
C1206 C1208 1.415 . S
C1207 C1206 1.355 . S
C1207 C1209 1.419 . S
C1208 C1206 1.415 . S
C1208 C1213 1.425 . S
C1208 C1215 1.409 . S
C1209 H1201 0.930 . S
C1209 C1207 1.419 . S
C1209 C1210 1.362 . S
C1210 H1202 0.930 . S
C1210 C1209 1.362 . S
C1210 C1213 1.409 . S
C1211 H1203 0.930 . S
C1211 C1212 1.355 . S
C1211 C1213 1.415 . S
C1212 C1211 1.355 . S
C1212 C1214 1.419 . S
C1213 C1208 1.425 . S
C1213 C1210 1.409 . S
C1213 C1211 1.415 . S
C1214 H1204 0.930 . S
C1214 C1212 1.419 . S
C1214 C1215 1.362 . S
C1215 H1205 0.930 . S
C1215 C1208 1.409 . S
C1215 C1214 1.362 . S
H1216 C1222 0.930 . S
H1217 C1225 0.930 . S
H1218 C1226 0.930 . S
H1219 C1227 0.930 . S
H1220 C1230 0.930 . S
H1221 C1231 0.930 . S
C1222 H1216 0.930 . S
C1222 C1223 1.355 . S
C1222 C1224 1.415 . S
C1223 C1222 1.355 . S
C1223 C1225 1.419 . S
C1224 C1222 1.415 . S
C1224 C1229 1.425 . S
C1224 C1231 1.409 . S
C1225 H1217 0.930 . S
C1225 C1223 1.419 . S
C1225 C1226 1.362 . S
C1226 H1218 0.930 . S
C1226 C1225 1.362 . S
C1226 C1229 1.409 . S
C1227 H1219 0.930 . S
C1227 C1228 1.355 . S
C1227 C1229 1.415 . S
C1228 C1227 1.355 . S
C1228 C1230 1.419 . S
C1229 C1224 1.425 . S
C1229 C1226 1.409 . S
C1229 C1227 1.415 . S
C1230 H1220 0.930 . S
C1230 C1228 1.419 . S
C1230 C1231 1.362 . S
C1231 H1221 0.930 . S
C1231 C1224 1.409 . S
C1231 C1230 1.362 . S
H1232 C1238 0.930 . S
H1233 C1241 0.930 . S
H1234 C1242 0.930 . S
H1235 C1243 0.930 . S
H1236 C1246 0.930 . S
H1237 C1247 0.930 . S
C1238 H1232 0.930 . S
C1238 C1239 1.355 . S
C1238 C1240 1.415 . S
C1239 C1238 1.355 . S
C1239 C1241 1.419 . S
C1240 C1238 1.415 . S
C1240 C1245 1.425 . S
C1240 C1247 1.409 . S
C1241 H1233 0.930 . S
C1241 C1239 1.419 . S
C1241 C1242 1.362 . S
C1242 H1234 0.930 . S
C1242 C1241 1.362 . S
C1242 C1245 1.409 . S
C1243 H1235 0.930 . S
C1243 C1244 1.355 . S
C1243 C1245 1.415 1_655 S
C1244 C1243 1.355 . S
C1244 C1246 1.419 . S
C1245 C1240 1.425 . S
C1245 C1242 1.409 . S
C1245 C1243 1.415 1_455 S
C1246 H1236 0.930 . S
C1246 C1244 1.419 . S
C1246 C1247 1.362 1_655 S
C1247 H1237 0.930 . S
C1247 C1240 1.409 . S
C1247 C1246 1.362 1_455 S
H1248 C1254 0.930 . S
H1249 C1257 0.930 . S
H1250 C1258 0.930 . S
H1251 C1259 0.930 1_556 S
H1252 C1262 0.930 . S
H1253 C1263 0.930 . S
C1254 H1248 0.930 . S
C1254 C1255 1.355 1_455 S
C1254 C1256 1.415 . S
C1255 C1254 1.355 1_655 S
C1255 C1257 1.419 1_554 S
C1256 C1254 1.415 . S
C1256 C1261 1.425 1_455 S
C1256 C1263 1.409 . S
C1257 H1249 0.930 . S
C1257 C1255 1.419 1_556 S
C1257 C1258 1.362 . S
C1258 H1250 0.930 . S
C1258 C1257 1.362 . S
C1258 C1261 1.409 1_556 S
C1259 H1251 0.930 1_554 S
C1259 C1260 1.355 . S
C1259 C1261 1.415 . S
C1260 C1259 1.355 . S
C1260 C1262 1.419 1_655 S
C1261 C1256 1.425 1_655 S
C1261 C1258 1.409 1_554 S
C1261 C1259 1.415 . S
C1262 H1252 0.930 . S
C1262 C1260 1.419 1_455 S
C1262 C1263 1.362 . S
C1263 H1253 0.930 . S
C1263 C1256 1.409 . S
C1263 C1262 1.362 . S
H1264 C1270 0.930 . S
H1265 C1273 0.930 . S
H1266 C1274 0.930 . S
H1267 C1275 0.930 . S
H1268 C1278 0.930 . S
H1269 C1279 0.930 . S
C1270 H1264 0.930 . S
C1270 C1271 1.355 . S
C1270 C1272 1.415 . S
C1271 C1270 1.355 . S
C1271 C1273 1.419 . S
C1272 C1270 1.415 . S
C1272 C1277 1.425 . S
C1272 C1279 1.409 . S
C1273 H1265 0.930 . S
C1273 C1271 1.419 . S
C1273 C1274 1.362 . S
C1274 H1266 0.930 . S
C1274 C1273 1.362 . S
C1274 C1277 1.409 . S
C1275 H1267 0.930 . S
C1275 C1276 1.355 . S
C1275 C1277 1.415 . S
C1276 C1275 1.355 . S
C1276 C1278 1.419 . S
C1277 C1272 1.425 . S
C1277 C1274 1.409 . S
C1277 C1275 1.415 . S
C1278 H1268 0.930 . S
C1278 C1276 1.419 . S
C1278 C1279 1.362 . S
C1279 H1269 0.930 . S
C1279 C1272 1.409 . S
C1279 C1278 1.362 . S
H1280 C1286 0.930 . S
H1281 C1289 0.930 . S
H1282 C1290 0.930 . S
H1283 C1291 0.930 . S
H1284 C1294 0.930 . S
H1285 C1295 0.930 . S
C1286 H1280 0.930 . S
C1286 C1287 1.355 . S
C1286 C1288 1.415 . S
C1287 C1286 1.355 . S
C1287 C1289 1.419 . S
C1288 C1286 1.415 . S
C1288 C1293 1.425 . S
C1288 C1295 1.409 . S
C1289 H1281 0.930 . S
C1289 C1287 1.419 . S
C1289 C1290 1.362 . S
C1290 H1282 0.930 . S
C1290 C1289 1.362 . S
C1290 C1293 1.409 . S
C1291 H1283 0.930 . S
C1291 C1292 1.355 . S
C1291 C1293 1.415 1_565 S
C1292 C1291 1.355 . S
C1292 C1294 1.419 . S
C1293 C1288 1.425 . S
C1293 C1290 1.409 . S
C1293 C1291 1.415 1_545 S
C1294 H1284 0.930 . S
C1294 C1292 1.419 . S
C1294 C1295 1.362 1_565 S
C1295 H1285 0.930 . S
C1295 C1288 1.409 . S
C1295 C1294 1.362 1_545 S
H1296 C1302 0.930 . S
H1297 C1305 0.930 . S
H1298 C1306 0.930 . S
H1299 C1307 0.930 . S
H1300 C1310 0.930 . S
H1301 C1311 0.930 . S
C1302 H1296 0.930 . S
C1302 C1303 1.355 . S
C1302 C1304 1.415 . S
C1303 C1302 1.355 . S
C1303 C1305 1.419 . S
C1304 C1302 1.415 . S
C1304 C1309 1.425 . S
C1304 C1311 1.409 1_554 S
C1305 H1297 0.930 . S
C1305 C1303 1.419 . S
C1305 C1306 1.362 . S
C1306 H1298 0.930 . S
C1306 C1305 1.362 . S
C1306 C1309 1.409 . S
C1307 H1299 0.930 . S
C1307 C1308 1.355 . S
C1307 C1309 1.415 1_556 S
C1308 C1307 1.355 . S
C1308 C1310 1.419 . S
C1309 C1304 1.425 . S
C1309 C1306 1.409 . S
C1309 C1307 1.415 1_554 S
C1310 H1300 0.930 . S
C1310 C1308 1.419 . S
C1310 C1311 1.362 . S
C1311 H1301 0.930 . S
C1311 C1304 1.409 1_556 S
C1311 C1310 1.362 . S
H1312 C1318 0.930 . S
H1313 C1321 0.930 . S
H1314 C1322 0.930 . S
H1315 C1323 0.930 . S
H1316 C1326 0.930 . S
H1317 C1327 0.930 . S
C1318 H1312 0.930 . S
C1318 C1319 1.355 . S
C1318 C1320 1.415 . S
C1319 C1318 1.355 . S
C1319 C1321 1.419 . S
C1320 C1318 1.415 . S
C1320 C1325 1.425 . S
C1320 C1327 1.409 1_545 S
C1321 H1313 0.930 . S
C1321 C1319 1.419 . S
C1321 C1322 1.362 . S
C1322 H1314 0.930 . S
C1322 C1321 1.362 . S
C1322 C1325 1.409 . S
C1323 H1315 0.930 . S
C1323 C1324 1.355 . S
C1323 C1325 1.415 1_565 S
C1324 C1323 1.355 . S
C1324 C1326 1.419 . S
C1325 C1320 1.425 . S
C1325 C1322 1.409 . S
C1325 C1323 1.415 1_545 S
C1326 H1316 0.930 . S
C1326 C1324 1.419 . S
C1326 C1327 1.362 . S
C1327 H1317 0.930 . S
C1327 C1320 1.409 1_565 S
C1327 C1326 1.362 . S
H1328 C1334 0.930 . S
H1329 C1337 0.919 1_554 S
H1330 C1338 0.930 . S
H1331 C1339 0.930 1_554 S
H1332 C1342 0.930 . S
H1333 C1343 0.930 . S
C1334 H1328 0.930 . S
C1334 C1335 1.355 . S
C1334 C1336 1.415 . S
C1335 C1334 1.355 . S
C1335 C1337 1.433 . S
C1336 C1334 1.415 . S
C1336 C1341 1.425 . S
C1336 C1343 1.409 . S
C1337 H1329 0.919 1_556 S
C1337 C1335 1.433 . S
C1337 C1338 1.359 1_556 S
C1338 H1330 0.930 . S
C1338 C1337 1.359 1_554 S
C1338 C1341 1.409 1_554 S
C1339 H1331 0.930 1_556 S
C1339 C1340 1.355 . S
C1339 C1341 1.415 . S
C1340 C1339 1.355 . S
C1340 C1342 1.419 . S
C1341 C1336 1.425 . S
C1341 C1338 1.409 1_556 S
C1341 C1339 1.415 . S
C1342 H1332 0.930 . S
C1342 C1340 1.419 . S
C1342 C1343 1.362 . S
C1343 H1333 0.930 . S
C1343 C1336 1.409 . S
C1343 C1342 1.362 . S
H1344 C1350 0.930 . S
H1345 C1353 0.930 . S
H1346 C1354 0.930 . S
H1347 C1355 0.930 . S
H1348 C1358 0.930 . S
H1349 C1359 0.930 . S
C1350 H1344 0.930 . S
C1350 C1351 1.355 . S
C1350 C1352 1.415 . S
C1351 C1350 1.355 . S
C1351 C1353 1.419 . S
C1352 C1350 1.415 . S
C1352 C1357 1.425 . S
C1352 C1359 1.409 . S
C1353 H1345 0.930 . S
C1353 C1351 1.419 . S
C1353 C1354 1.362 . S
C1354 H1346 0.930 . S
C1354 C1353 1.362 . S
C1354 C1357 1.409 . S
C1355 H1347 0.930 . S
C1355 C1356 1.355 . S
C1355 C1357 1.415 . S
C1356 C1355 1.355 . S
C1356 C1358 1.419 . S
C1357 C1352 1.425 . S
C1357 C1354 1.409 . S
C1357 C1355 1.415 . S
C1358 H1348 0.930 . S
C1358 C1356 1.419 . S
C1358 C1359 1.362 . S
C1359 H1349 0.930 . S
C1359 C1352 1.409 . S
C1359 C1358 1.362 . S
H1360 C1366 0.930 . S
H1361 C1369 0.930 . S
H1362 C1370 0.930 . S
H1363 C1371 0.930 . S
H1364 C1374 0.930 . S
H1365 C1375 0.930 . S
C1366 H1360 0.930 . S
C1366 C1367 1.355 . S
C1366 C1368 1.415 . S
C1367 C1366 1.355 . S
C1367 C1369 1.419 . S
C1368 C1366 1.415 . S
C1368 C1373 1.425 . S
C1368 C1375 1.409 . S
C1369 H1361 0.930 . S
C1369 C1367 1.419 . S
C1369 C1370 1.362 . S
C1370 H1362 0.930 . S
C1370 C1369 1.362 . S
C1370 C1373 1.409 . S
C1371 H1363 0.930 . S
C1371 C1372 1.355 . S
C1371 C1373 1.415 . S
C1372 C1371 1.355 . S
C1372 C1374 1.419 . S
C1373 C1368 1.425 . S
C1373 C1370 1.409 . S
C1373 C1371 1.415 . S
C1374 H1364 0.930 . S
C1374 C1372 1.419 . S
C1374 C1375 1.362 . S
C1375 H1365 0.930 . S
C1375 C1368 1.409 . S
C1375 C1374 1.362 . S
H1376 C1382 0.930 . S
H1377 C1385 0.930 . S
H1378 C1386 0.930 . S
H1379 C1387 0.930 . S
H1380 C1390 0.930 . S
H1381 C1391 0.930 . S
C1382 H1376 0.930 . S
C1382 C1383 1.355 . S
C1382 C1384 1.415 1_556 S
C1383 C1382 1.355 . S
C1383 C1385 1.419 . S
C1384 C1382 1.415 1_554 S
C1384 C1389 1.425 . S
C1384 C1391 1.409 . S
C1385 H1377 0.930 . S
C1385 C1383 1.419 . S
C1385 C1386 1.362 1_556 S
C1386 H1378 0.930 . S
C1386 C1385 1.362 1_554 S
C1386 C1389 1.409 . S
C1387 H1379 0.930 . S
C1387 C1388 1.355 . S
C1387 C1389 1.415 . S
C1388 C1387 1.355 . S
C1388 C1390 1.419 . S
C1389 C1384 1.425 . S
C1389 C1386 1.409 . S
C1389 C1387 1.415 . S
C1390 H1380 0.930 . S
C1390 C1388 1.419 . S
C1390 C1391 1.362 . S
C1391 H1381 0.930 . S
C1391 C1384 1.409 . S
C1391 C1390 1.362 . S
H1392 C1398 0.930 . S
H1393 C1401 0.930 . S
H1394 C1402 0.930 . S
H1395 C1403 0.930 . S
H1396 C1406 0.930 . S
H1397 C1407 0.930 . S
C1398 H1392 0.930 . S
C1398 C1399 1.355 . S
C1398 C1400 1.415 . S
C1399 C1398 1.355 . S
C1399 C1401 1.419 . S
C1400 C1398 1.415 . S
C1400 C1405 1.425 . S
C1400 C1407 1.409 . S
C1401 H1393 0.930 . S
C1401 C1399 1.419 . S
C1401 C1402 1.362 . S
C1402 H1394 0.930 . S
C1402 C1401 1.362 . S
C1402 C1405 1.409 . S
C1403 H1395 0.930 . S
C1403 C1404 1.355 . S
C1403 C1405 1.415 . S
C1404 C1403 1.355 . S
C1404 C1406 1.419 . S
C1405 C1400 1.425 . S
C1405 C1402 1.409 . S
C1405 C1403 1.415 . S
C1406 H1396 0.930 . S
C1406 C1404 1.419 . S
C1406 C1407 1.362 . S
C1407 H1397 0.930 . S
C1407 C1400 1.409 . S
C1407 C1406 1.362 . S
H1408 C1414 0.930 . S
H1409 C1417 0.930 . S
H1410 C1418 0.930 . S
H1411 C1419 0.930 . S
H1412 C1422 0.930 . S
H1413 C1423 0.930 . S
C1414 H1408 0.930 . S
C1414 C1415 1.355 . S
C1414 C1416 1.415 . S
C1415 C1414 1.355 . S
C1415 C1417 1.419 . S
C1416 C1414 1.415 . S
C1416 C1421 1.425 . S
C1416 C1423 1.409 . S
C1417 H1409 0.930 . S
C1417 C1415 1.419 . S
C1417 C1418 1.362 . S
C1418 H1410 0.930 . S
C1418 C1417 1.362 . S
C1418 C1421 1.409 . S
C1419 H1411 0.930 . S
C1419 C1420 1.355 . S
C1419 C1421 1.415 . S
C1420 C1419 1.355 . S
C1420 C1422 1.419 . S
C1421 C1416 1.425 . S
C1421 C1418 1.409 . S
C1421 C1419 1.415 . S
C1422 H1412 0.930 . S
C1422 C1420 1.419 . S
C1422 C1423 1.362 . S
C1423 H1413 0.930 . S
C1423 C1416 1.409 . S
C1423 C1422 1.362 . S
H1424 C1430 0.930 . S
H1425 C1433 0.930 . S
H1426 C1434 0.930 . S
H1427 C1435 0.930 . S
H1428 C1438 0.930 . S
H1429 C1439 0.930 . S
C1430 H1424 0.930 . S
C1430 C1431 1.355 . S
C1430 C1432 1.415 . S
C1431 C1430 1.355 . S
C1431 C1433 1.419 . S
C1432 C1430 1.415 . S
C1432 C1437 1.425 . S
C1432 C1439 1.409 . S
C1433 H1425 0.930 . S
C1433 C1431 1.419 . S
C1433 C1434 1.362 . S
C1434 H1426 0.930 . S
C1434 C1433 1.362 . S
C1434 C1437 1.409 . S
C1435 H1427 0.930 . S
C1435 C1436 1.355 . S
C1435 C1437 1.415 . S
C1436 C1435 1.355 . S
C1436 C1438 1.419 . S
C1437 C1432 1.425 . S
C1437 C1434 1.409 . S
C1437 C1435 1.415 . S
C1438 H1428 0.930 . S
C1438 C1436 1.419 . S
C1438 C1439 1.362 . S
C1439 H1429 0.930 . S
C1439 C1432 1.409 . S
C1439 C1438 1.362 . S
H1440 C1446 0.930 . S
H1441 C1449 0.930 . S
H1442 C1450 0.930 . S
H1443 C1451 0.930 . S
H1444 C1454 0.930 . S
H1445 C1455 0.930 . S
C1446 H1440 0.930 . S
C1446 C1447 1.355 . S
C1446 C1448 1.415 . S
C1447 C1446 1.355 . S
C1447 C1449 1.419 1_545 S
C1448 C1446 1.415 . S
C1448 C1453 1.439 . S
C1448 C1455 1.409 . S
C1449 H1441 0.930 . S
C1449 C1447 1.419 1_565 S
C1449 C1450 1.362 . S
C1450 H1442 0.930 . S
C1450 C1449 1.362 . S
C1450 C1453 1.394 1_565 S
C1451 H1443 0.930 . S
C1451 C1452 1.355 1_565 S
C1451 C1453 1.416 1_565 S
C1452 C1451 1.355 1_545 S
C1452 C1454 1.419 . S
C1453 C1448 1.439 . S
C1453 C1450 1.394 1_545 S
C1453 C1451 1.416 1_545 S
C1454 H1444 0.930 . S
C1454 C1452 1.419 . S
C1454 C1455 1.362 . S
C1455 H1445 0.930 . S
C1455 C1448 1.409 . S
C1455 C1454 1.362 . S
C951 C5 1.763 . S
C956 C418 1.741 . S
C967 C64 1.835 . S
C972 C241 1.835 . S
C983 C300 1.679 . S
C988 C123 1.716 . S
C999 C182 1.897 . S
C1004 C359 1.850 . S
C1015 C477 1.831 . S
C1020 C713 1.830 . S
C1031 C536 1.687 . S
C1036 C831 1.723 . S
C1047 C654 1.917 . S
C1052 C595 1.885 . S
C1063 C890 1.735 . S
C1068 C772 1.748 . S
C1079 C52 1.152 . S
C1084 C357 1.064 . S
C1095 C446 1.657 1_545 S
C1100 C92 1.671 . S
C1111 C170 1.113 . S
C1116 C239 1.076 . S
C1127 C328 1.815 . S
C1132 C180 1.843 . S
C1143 C33 1.360 . S
C1148 C859 1.365 . S
C1159 C701 0.754 . S
C1164 C62 0.811 1_455 S
C1175 C800 1.339 . S
C1180 C151 1.348 . S
C1191 C711 0.783 . S
C1196 C229 0.753 . S
C1207 C642 1.914 . S
C1212 C288 1.917 . S
C1223 C298 1.074 . S
C1228 C888 1.080 . S
C1239 C406 1.930 . S
C1244 C524 1.934 . S
C1255 C416 1.083 . S
C1260 C534 1.129 . S
C1271 C3 1.603 . S
C1276 C269 1.609 . S
C1287 C505 1.646 . S
C1292 C770 1.618 . S
C1303 C760 1.612 . S
C1308 C583 1.610 . S
C1319 C829 1.331 . S
C1324 C623 1.246 . S
C1335 C465 1.471 . S
C1340 C210 1.469 . S
C1351 C121 1.291 . S
C1356 C387 1.267 . S
C1367 C682 1.447 . S
C1372 C937 1.475 . S
C1383 C819 1.171 . S
C1388 C593 1.082 . S
C1399 C918 1.688 . S
C1404 C741 1.696 . S
C1415 C878 1.113 . S
C1420 C475 1.059 . S
C1431 C652 1.799 . S
C1436 C564 1.794 . S
C1447 C111 1.613 . S
C1452 C347 1.613 . S
