# Generated by pormake.
# Topology uno, (4)-cn, num edge types: 1
# Building blocks:
#     Node 0, Type 0, BuildingBlock: NAWXER_clean_sbu_0, # of connection points: 4
#     Node 1, Type 0, BuildingBlock: NAWXER_clean_sbu_0, # of connection points: 4
#     Node 2, Type 0, BuildingBlock: NAWXER_clean_sbu_0, # of connection points: 4
#     Node 3, Type 0, BuildingBlock: NAWXER_clean_sbu_0, # of connection points: 4
#     Node 4, Type 0, BuildingBlock: NAWXER_clean_sbu_0, # of connection points: 4
#     Node 5, Type 0, BuildingBlock: NAWXER_clean_sbu_0, # of connection points: 4
#     Node 6, Type 0, BuildingBlock: NAWXER_clean_sbu_0, # of connection points: 4
#     Node 7, Type 0, BuildingBlock: NAWXER_clean_sbu_0, # of connection points: 4
#     Node 8, Type 0, BuildingBlock: NAWXER_clean_sbu_0, # of connection points: 4
#     Node 9, Type 0, BuildingBlock: NAWXER_clean_sbu_0, # of connection points: 4
#     Node 10, Type 0, BuildingBlock: NAWXER_clean_sbu_0, # of connection points: 4
#     Node 11, Type 0, BuildingBlock: NAWXER_clean_sbu_0, # of connection points: 4
#     Node 12, Type 0, BuildingBlock: NAWXER_clean_sbu_0, # of connection points: 4
#     Node 13, Type 0, BuildingBlock: NAWXER_clean_sbu_0, # of connection points: 4
#     Node 14, Type 0, BuildingBlock: NAWXER_clean_sbu_0, # of connection points: 4
#     Node 15, Type 0, BuildingBlock: NAWXER_clean_sbu_0, # of connection points: 4
#     Node 16, Type 0, BuildingBlock: NAWXER_clean_sbu_0, # of connection points: 4
#     Node 17, Type 0, BuildingBlock: NAWXER_clean_sbu_0, # of connection points: 4
#     Node 18, Type 0, BuildingBlock: NAWXER_clean_sbu_0, # of connection points: 4
#     Node 19, Type 0, BuildingBlock: NAWXER_clean_sbu_0, # of connection points: 4
#     Node 20, Type 0, BuildingBlock: NAWXER_clean_sbu_0, # of connection points: 4
#     Node 21, Type 0, BuildingBlock: NAWXER_clean_sbu_0, # of connection points: 4
#     Node 22, Type 0, BuildingBlock: NAWXER_clean_sbu_0, # of connection points: 4
#     Node 23, Type 0, BuildingBlock: NAWXER_clean_sbu_0, # of connection points: 4
#     Edge 24, Type (0, 0), None
#     Edge 25, Type (0, 0), None
#     Edge 26, Type (0, 0), None
#     Edge 27, Type (0, 0), None
#     Edge 28, Type (0, 0), None
#     Edge 29, Type (0, 0), None
#     Edge 30, Type (0, 0), None
#     Edge 31, Type (0, 0), None
#     Edge 32, Type (0, 0), None
#     Edge 33, Type (0, 0), None
#     Edge 34, Type (0, 0), None
#     Edge 35, Type (0, 0), None
#     Edge 36, Type (0, 0), None
#     Edge 37, Type (0, 0), None
#     Edge 38, Type (0, 0), None
#     Edge 39, Type (0, 0), None
#     Edge 40, Type (0, 0), None
#     Edge 41, Type (0, 0), None
#     Edge 42, Type (0, 0), None
#     Edge 43, Type (0, 0), None
#     Edge 44, Type (0, 0), None
#     Edge 45, Type (0, 0), None
#     Edge 46, Type (0, 0), None
#     Edge 47, Type (0, 0), None
#     Edge 48, Type (0, 0), None
#     Edge 49, Type (0, 0), None
#     Edge 50, Type (0, 0), None
#     Edge 51, Type (0, 0), None
#     Edge 52, Type (0, 0), None
#     Edge 53, Type (0, 0), None
#     Edge 54, Type (0, 0), None
#     Edge 55, Type (0, 0), None
#     Edge 56, Type (0, 0), None
#     Edge 57, Type (0, 0), None
#     Edge 58, Type (0, 0), None
#     Edge 59, Type (0, 0), None
#     Edge 60, Type (0, 0), None
#     Edge 61, Type (0, 0), None
#     Edge 62, Type (0, 0), None
#     Edge 63, Type (0, 0), None
#     Edge 64, Type (0, 0), None
#     Edge 65, Type (0, 0), None
#     Edge 66, Type (0, 0), None
#     Edge 67, Type (0, 0), None
#     Edge 68, Type (0, 0), None
#     Edge 69, Type (0, 0), None
#     Edge 70, Type (0, 0), None
#     Edge 71, Type (0, 0), None
# Relax obj value: 0.465
# Max RMSD: 0.255
# Mean RMSD: 0.237
data_MOF--net-uno--node1-NAWXER_clean_sbu_0--edge1-none
_symmetry_space_group_name_H-M    P1
_symmetry_Int_Tables_number       1
_symmetry_cell_setting            triclinic
loop_
_symmetry_equiv_pos_as_xyz
'x, y, z'
_cell_length_a     22.189547
_cell_length_b     22.189751
_cell_length_c     22.189582
_cell_angle_alpha  89.794227
_cell_angle_beta   89.795031
_cell_angle_gamma 89.794733
loop_
_atom_site_label
_atom_site_type_symbol
_atom_site_fract_x
_atom_site_fract_y
_atom_site_fract_z
_atom_type_partial_charge
C0 C 0.98106 0.21984 0.27958 0.0
C1 C 0.15341 0.31627 0.18277 0.0
O2 O 0.98571 0.23303 0.224 0.0
Zn3 Zn 0.05831 0.2805 0.22913 0.0
O4 O 0.01511 0.24738 0.31742 0.0
Zn5 Zn 0.09456 0.30674 0.31396 0.0
O6 O 0.07268 0.38983 0.34163 0.0
O7 O 0.0358 0.36927 0.25209 0.0
O8 O 0.1544 0.32688 0.23935 0.0
O9 O 0.10823 0.28961 0.1604 0.0
O10 O 0.11461 0.21698 0.27015 0.0
O11 O 0.15225 0.25113 0.35541 0.0
C12 C 0.04377 0.40654 0.29501 0.0
C13 C 0.14757 0.20927 0.31623 0.0
C14 C 0.04315 0.73077 0.53079 0.0
C15 C 0.94693 0.90294 0.43271 0.0
O16 O 0.03053 0.73511 0.47513 0.0
Zn17 Zn 0.9827 0.80794 0.47959 0.0
O18 O 0.01504 0.76511 0.56831 0.0
Zn19 Zn 0.95558 0.84476 0.56422 0.0
O20 O 0.87229 0.82349 0.59181 0.0
O21 O 0.89377 0.78591 0.50254 0.0
O22 O 0.93589 0.90419 0.48928 0.0
O23 O 0.97395 0.85758 0.41052 0.0
O24 O 0.0457 0.86419 0.52039 0.0
O25 O 0.01071 0.90243 0.60538 0.0
C26 C 0.85607 0.79436 0.54533 0.0
C27 C 0.05294 0.89735 0.56631 0.0
C28 C 0.53158 0.7929 0.77964 0.0
C29 C 0.35927 0.69685 0.68412 0.0
O30 O 0.52695 0.77999 0.72411 0.0
Zn31 Zn 0.45426 0.7326 0.72982 0.0
O32 O 0.49738 0.76532 0.81775 0.0
Zn33 Zn 0.41785 0.70612 0.81497 0.0
O34 O 0.43964 0.62296 0.84294 0.0
O35 O 0.47672 0.64377 0.75311 0.0
O36 O 0.35819 0.68611 0.74075 0.0
O37 O 0.40445 0.72365 0.6614 0.0
O38 O 0.39796 0.79608 0.77083 0.0
O39 O 0.3601 0.7617 0.8564 0.0
C40 C 0.46866 0.60637 0.79624 0.0
C41 C 0.36489 0.80368 0.81703 0.0
C42 C 0.65645 0.21705 0.04467 0.0
C43 C 0.45898 0.11468 0.06547 0.0
O44 O 0.63962 0.18794 0.09125 0.0
Zn45 Zn 0.55659 0.16689 0.06338 0.0
O46 O 0.61929 0.22559 1.00163 0.0
Zn47 Zn 0.53051 0.20387 0.97845 0.0
O48 O 0.48305 0.27691 0.97328 0.0
O49 O 0.49744 0.24681 0.06671 0.0
O50 O 0.4668 0.14788 0.01939 0.0
O51 O 0.50078 0.10942 0.10471 0.0
O52 O 0.57681 0.10736 0.98891 0.0
O53 O 0.53963 0.15418 0.90982 0.0
C54 C 0.46991 0.28131 0.02887 0.0
C55 C 0.56623 0.10868 0.93233 0.0
C56 C 0.94681 0.95874 0.39739 0.0
C57 C 0.96767 0.15647 0.29445 0.0
O58 O 0.90754 1.00078 0.40239 0.0
Zn59 Zn 0.94887 0.05653 0.34477 0.0
O60 O 0.99295 0.96636 0.36424 0.0
Zn61 Zn 0.03394 0.03002 0.30813 0.0
O62 O 0.10246 0.03859 0.35797 0.0
O63 O 0.02319 0.07626 0.4043 0.0
O64 O 0.01075 0.11905 0.28615 0.0
O65 O 0.92098 0.13981 0.32343 0.0
O66 O 0.94581 0.99773 0.26502 0.0
O67 O 0.03934 0.98291 0.23521 0.0
C68 C 0.0798 0.06539 0.40319 0.0
C69 C 0.98376 0.97017 0.23065 0.0
C70 C 0.29322 0.73386 0.48261 0.0
C71 C 0.19607 0.82987 0.655 0.0
O72 O 0.27989 0.7894 0.48709 0.0
Zn73 Zn 0.23217 0.7839 0.55989 0.0
O74 O 0.2657 0.69585 0.51695 0.0
Zn75 Zn 0.20612 0.69888 0.59665 0.0
O76 O 0.12321 0.67093 0.57515 0.0
O77 O 0.14361 0.76061 0.5377 0.0
O78 O 0.18563 0.77325 0.6563 0.0
O79 O 0.22268 0.85244 0.60954 0.0
O80 O 0.29569 0.74295 0.61609 0.0
O81 O 0.26175 0.65746 0.65425 0.0
C82 C 0.10647 0.71752 0.54598 0.0
C83 C 0.30348 0.69681 0.64922 0.0
C84 C 0.54527 0.85612 0.7943 0.0
C85 C 0.56628 0.05295 0.89733 0.0
O86 O 0.59175 0.87232 0.82343 0.0
Zn87 Zn 0.56418 0.95561 0.84471 0.0
O88 O 0.50248 0.89383 0.78586 0.0
Zn89 Zn 0.47954 0.98275 0.8079 0.0
O90 O 0.47509 0.03059 0.73508 0.0
O91 O 0.56827 0.01509 0.76507 0.0
O92 O 0.52036 0.04573 0.86416 0.0
O93 O 0.60535 0.01072 0.9024 0.0
O94 O 0.48923 0.93592 0.90414 0.0
O95 O 0.41048 0.97401 0.85755 0.0
C96 C 0.53075 0.04321 0.73074 0.0
C97 C 0.43267 0.94697 0.90291 0.0
C98 C 0.40655 0.29497 0.04381 0.0
C99 C 0.20928 0.31622 0.1476 0.0
O100 O 0.38986 0.34159 0.07273 0.0
Zn101 Zn 0.30675 0.31395 0.09458 0.0
O102 O 0.36925 0.25206 0.03582 0.0
Zn103 Zn 0.28048 0.22913 0.05832 0.0
O104 O 0.23301 0.22404 0.98571 0.0
O105 O 0.24739 0.31745 0.01514 0.0
O106 O 0.21698 0.27016 0.11462 0.0
O107 O 0.25115 0.35539 0.15229 0.0
O108 O 0.32686 0.23931 0.15441 0.0
O109 O 0.28956 0.16039 0.10822 0.0
C110 C 0.21984 0.27963 0.98108 0.0
C111 C 0.31623 0.18274 0.15341 0.0
C112 C 0.31617 0.14757 0.20928 0.0
C113 C 0.29496 0.04371 0.40653 0.0
O114 O 0.35536 0.15222 0.25113 0.0
Zn115 Zn 0.31391 0.09452 0.30673 0.0
O116 O 0.27009 0.1146 0.21699 0.0
Zn117 Zn 0.22906 0.0583 0.2805 0.0
O118 O 0.16035 0.10823 0.2896 0.0
O119 O 0.23931 0.15438 0.32689 0.0
O120 O 0.25202 0.03576 0.36926 0.0
O121 O 0.34158 0.07262 0.38982 0.0
O122 O 0.31735 0.0151 0.24734 0.0
O123 O 0.22392 0.98569 0.23302 0.0
C124 C 0.18273 0.15339 0.31629 0.0
C125 C 0.27951 0.98105 0.21981 0.0
C126 C 0.10869 0.93233 0.56627 0.0
C127 C 0.28134 0.02875 0.4699 0.0
O128 O 0.15416 0.90978 0.53965 0.0
Zn129 Zn 0.20388 0.97839 0.53049 0.0
O130 O 0.10738 0.98892 0.57682 0.0
Zn131 Zn 0.16695 0.06335 0.55657 0.0
O132 O 0.10948 0.1047 0.50077 0.0
O133 O 0.14788 0.01934 0.4668 0.0
O134 O 0.24684 0.06663 0.49738 0.0
O135 O 0.27691 0.97314 0.48301 0.0
O136 O 0.22565 1.00159 0.61925 0.0
O137 O 0.18804 0.09122 0.63957 0.0
C138 C 0.1147 0.06543 0.45899 0.0
C139 C 0.21717 0.04464 0.65641 0.0
C140 C 0.19609 0.86486 0.71073 0.0
C141 C 0.21696 0.96887 0.90706 0.0
O142 O 0.15689 0.86007 0.75288 0.0
Zn143 Zn 0.19818 0.91787 0.80779 0.0
O144 O 0.24208 0.89794 0.71792 0.0
Zn145 Zn 0.28294 0.95442 0.78071 0.0
O146 O 0.35188 0.90477 0.78989 0.0
O147 O 0.27298 0.85829 0.82782 0.0
O148 O 0.25984 0.977 0.86939 0.0
O149 O 0.1705 0.93968 0.89094 0.0
O150 O 0.19443 0.99726 0.74785 0.0
O151 O 0.28778 0.02698 0.73255 0.0
C152 C 0.32958 0.85948 0.81694 0.0
C153 C 0.23216 0.03141 0.71978 0.0
C154 C 0.40318 0.07979 0.06541 0.0
C155 C 0.23062 0.98381 0.97021 0.0
O156 O 0.35796 0.10248 0.03862 0.0
Zn157 Zn 0.30811 0.03397 0.03001 0.0
O158 O 0.40429 0.02318 0.07626 0.0
Zn159 Zn 0.34475 0.94888 0.05651 0.0
O160 O 0.40236 0.90756 1.00074 0.0
O161 O 0.36421 0.99298 0.96634 0.0
O162 O 0.265 0.94583 0.99774 0.0
O163 O 0.23519 0.0394 0.98289 0.0
O164 O 0.28611 0.01075 0.11903 0.0
O165 O 0.32341 0.92099 0.13979 0.0
C166 C 0.39736 0.94684 0.95871 0.0
C167 C 0.29442 0.96768 0.15645 0.0
C168 C 0.71983 0.23203 0.03143 0.0
C169 C 0.81688 0.3296 0.85953 0.0
O170 O 0.73256 0.28766 0.02703 0.0
Zn171 Zn 0.7807 0.28287 0.95445 0.0
O172 O 0.74792 0.19433 0.99727 0.0
Zn173 Zn 0.80782 0.19815 0.91786 0.0
O174 O 0.89099 0.1705 0.93961 0.0
O175 O 0.86941 0.25981 0.97698 0.0
O176 O 0.8278 0.27301 0.85832 0.0
O177 O 0.78983 0.35184 0.90484 0.0
O178 O 0.71791 0.24202 0.89797 0.0
O179 O 0.75291 0.15688 0.86003 0.0
C180 C 0.9071 0.21697 0.9688 0.0
C181 C 0.71074 0.19604 0.86487 0.0
C182 C 0.06542 0.45895 0.11475 0.0
C183 C 0.04465 0.65639 0.21718 0.0
O184 O 0.10467 0.50074 0.10951 0.0
Zn185 Zn 0.06335 0.55654 0.16698 0.0
O186 O 0.01934 0.46676 0.14795 0.0
Zn187 Zn 0.9784 0.53046 0.20395 0.0
O188 O 0.90978 0.5396 0.15424 0.0
O189 O 0.9889 0.57678 0.10744 0.0
O190 O 1.0016 0.61923 0.22569 0.0
O191 O 0.09122 0.63956 0.18804 0.0
O192 O 0.06667 0.49739 0.24689 0.0
O193 O 0.97319 0.48301 0.27699 0.0
C194 C 0.93231 0.56622 0.10875 0.0
C195 C 0.0288 0.46991 0.2814 0.0
C196 C 0.79285 0.77968 0.53167 0.0
C197 C 0.69692 0.68408 0.35938 0.0
O198 O 0.78001 0.72414 0.52706 0.0
Zn199 Zn 0.73263 0.72982 0.45436 0.0
O200 O 0.7653 0.8178 0.49745 0.0
Zn201 Zn 0.70614 0.81496 0.4179 0.0
O202 O 0.62296 0.84291 0.43964 0.0
O203 O 0.64378 0.75309 0.47676 0.0
O204 O 0.68615 0.74071 0.35828 0.0
O205 O 0.72374 0.66138 0.40456 0.0
O206 O 0.79611 0.77083 0.39805 0.0
O207 O 0.76172 0.85636 0.36013 0.0
C208 C 0.60637 0.79621 0.46866 0.0
C209 C 0.80371 0.81701 0.36495 0.0
C210 C 0.8595 0.8169 0.32963 0.0
C211 C 0.03141 0.71976 0.23217 0.0
O212 O 0.90479 0.78985 0.35191 0.0
Zn213 Zn 0.95442 0.78067 0.28296 0.0
O214 O 0.85829 0.82778 0.27303 0.0
Zn215 Zn 0.91785 0.80776 0.19821 0.0
O216 O 0.86005 0.75283 0.15694 0.0
O217 O 0.89794 0.71787 0.24212 0.0
O218 O 0.99725 0.74783 0.19445 0.0
O219 O 0.02699 0.73253 0.28779 0.0
O220 O 0.97698 0.86935 0.25985 0.0
O221 O 0.93963 0.8909 0.17052 0.0
C222 C 0.86485 0.71068 0.19613 0.0
C223 C 0.96884 0.90701 0.21698 0.0
C224 C 0.65501 0.19604 0.82987 0.0
C225 C 0.48261 0.29326 0.73395 0.0
O226 O 0.60956 0.22264 0.85248 0.0
Zn227 Zn 0.5599 0.23218 0.78394 0.0
O228 O 0.65631 0.18563 0.77325 0.0
Zn229 Zn 0.59663 0.20617 0.6989 0.0
O230 O 0.65422 0.26181 0.65749 0.0
O231 O 0.6161 0.29571 0.74301 0.0
O232 O 0.51695 0.26577 0.69592 0.0
O233 O 0.4871 0.27989 0.78948 0.0
O234 O 0.53769 0.14364 0.76061 0.0
O235 O 0.57512 0.12328 0.67092 0.0
C236 C 0.64922 0.30352 0.69686 0.0
C237 C 0.54594 0.10652 0.71749 0.0
C238 C 0.4476 0.55439 0.61632 0.0
C239 C 0.46894 0.35667 0.71923 0.0
O240 O 0.40853 0.51246 0.61141 0.0
Zn241 Zn 0.44987 0.45667 0.66897 0.0
O242 O 0.49361 0.54666 0.64937 0.0
Zn243 Zn 0.53463 0.48296 0.70545 0.0
O244 O 0.60344 0.47426 0.65549 0.0
O245 O 0.52459 0.43683 0.60926 0.0
O246 O 0.51179 0.39399 0.72747 0.0
O247 O 0.42231 0.37345 0.69036 0.0
O248 O 0.44612 0.51557 0.74866 0.0
O249 O 0.53946 0.53012 0.77832 0.0
C250 C 0.58114 0.44758 0.61027 0.0
C251 C 0.48381 0.54306 0.7829 0.0
C252 C 0.97025 0.23063 0.98372 0.0
C253 C 0.06535 0.40316 0.07983 0.0
O254 O 0.9829 0.23518 0.03932 0.0
Zn255 Zn 0.02999 0.30812 0.03394 0.0
O256 O 0.9978 0.26503 0.94577 0.0
Zn257 Zn 0.05653 0.34481 0.94889 0.0
O258 O 0.13982 0.32351 0.92101 0.0
O259 O 0.11904 0.28617 0.01075 0.0
O260 O 0.07623 0.40431 0.02323 0.0
O261 O 0.03855 0.35793 0.10249 0.0
O262 O 0.96633 0.36422 0.99295 0.0
O263 O 1.00076 0.40243 0.90757 0.0
C264 C 0.15647 0.29452 0.9677 0.0
C265 C 0.9587 0.39738 0.94682 0.0
C266 C 0.35664 0.71916 0.46895 0.0
C267 C 0.55436 0.61629 0.44758 0.0
O268 O 0.37342 0.6903 0.42231 0.0
Zn269 Zn 0.45664 0.66892 0.44987 0.0
O270 O 0.39396 0.72742 0.51179 0.0
Zn271 Zn 0.48295 0.70541 0.53462 0.0
O272 O 0.53012 0.77828 0.53943 0.0
O273 O 0.51555 0.74861 0.44609 0.0
O274 O 0.54663 0.64933 0.49359 0.0
O275 O 0.51242 0.61136 0.40852 0.0
O276 O 0.43682 0.60922 0.52461 0.0
O277 O 0.47426 0.65548 0.60345 0.0
C278 C 0.54305 0.78285 0.48377 0.0
C279 C 0.44758 0.61026 0.58115 0.0
C280 C 0.61024 0.58112 0.44755 0.0
C281 C 0.78286 0.48386 0.54315 0.0
O282 O 0.65545 0.60345 0.47422 0.0
Zn283 Zn 0.70541 0.53465 0.48295 0.0
O284 O 0.60922 0.52458 0.43682 0.0
Zn285 Zn 0.66896 0.44988 0.45669 0.0
O286 O 0.61142 0.40852 0.51248 0.0
O287 O 0.64933 0.49364 0.54665 0.0
O288 O 0.74863 0.44617 0.51564 0.0
O289 O 0.77827 0.53949 0.53012 0.0
O290 O 0.72744 0.51179 0.39398 0.0
O291 O 0.69038 0.42228 0.3735 0.0
C292 C 0.6163 0.44761 0.55439 0.0
C293 C 0.71923 0.46891 0.35669 0.0
C294 C 0.81697 0.36493 0.80375 0.0
C295 C 0.79622 0.46874 0.60646 0.0
O296 O 0.85636 0.36017 0.76178 0.0
Zn297 Zn 0.81494 0.41792 0.7062 0.0
O298 O 0.77077 0.398 0.79614 0.0
Zn299 Zn 0.72976 0.45431 0.73266 0.0
O300 O 0.66135 0.40448 0.72369 0.0
O301 O 0.74074 0.35825 0.68616 0.0
O302 O 0.75307 0.47678 0.64384 0.0
O303 O 0.84292 0.43973 0.62305 0.0
O304 O 0.81768 0.49743 0.76543 0.0
O305 O 0.72403 0.52699 0.78005 0.0
C306 C 0.68411 0.35933 0.69688 0.0
C307 C 0.77955 0.53163 0.79299 0.0
C308 C 0.9029 0.43269 0.94696 0.0
C309 C 0.73073 0.53067 0.04328 0.0
O310 O 0.85756 0.41047 0.97399 0.0
Zn311 Zn 0.8079 0.47951 0.98279 0.0
O312 O 0.90414 0.48926 0.93595 0.0
Zn313 Zn 0.84469 0.56418 0.95568 0.0
O314 O 0.90236 0.60534 0.0108 0.0
O315 O 0.86417 0.52032 0.04578 0.0
O316 O 0.76506 0.56821 0.01518 0.0
O317 O 0.73509 0.47502 0.03064 0.0
O318 O 0.78583 0.5025 0.89389 0.0
O319 O 0.82337 0.59178 0.87241 0.0
C320 C 0.89732 0.56625 0.05301 0.0
C321 C 0.79423 0.54531 0.8562 0.0
C322 C 0.69687 0.64917 0.30359 0.0
C323 C 0.71749 0.54588 0.10659 0.0
O324 O 0.6575 0.65418 0.26188 0.0
Zn325 Zn 0.6989 0.59658 0.20624 0.0
O326 O 0.74301 0.61603 0.29579 0.0
Zn327 Zn 0.78395 0.55984 0.23226 0.0
O328 O 0.85247 0.60951 0.22272 0.0
O329 O 0.77324 0.65624 0.1857 0.0
O330 O 0.76061 0.53763 0.14371 0.0
O331 O 0.67092 0.57507 0.12334 0.0
O332 O 0.6959 0.51689 0.26581 0.0
O333 O 0.7895 0.48702 0.27996 0.0
C334 C 0.82986 0.65495 0.19611 0.0
C335 C 0.73395 0.48254 0.29326 0.0
loop_
_geom_bond_atom_site_label_1
_geom_bond_atom_site_label_2
_geom_bond_distance
_geom_bond_site_symmetry_2
_ccdc_geom_bond_type
C0 O2 1.247 . S
C0 O4 1.258 . S
C1 O8 1.247 . S
C1 O9 1.258 . S
O2 C0 1.247 . S
O2 Zn3 2.028 . S
Zn3 O2 2.028 . S
Zn3 O7 2.035 . S
Zn3 O9 2.035 . S
Zn3 O10 2.028 . S
O4 C0 1.258 . S
O4 Zn5 2.035 . S
Zn5 O4 2.035 . S
Zn5 O6 2.028 . S
Zn5 O8 2.028 . S
Zn5 O11 2.035 . S
O6 Zn5 2.028 . S
O6 C12 1.247 . S
O7 Zn3 2.035 . S
O7 C12 1.258 . S
O8 C1 1.247 . S
O8 Zn5 2.028 . S
O9 C1 1.258 . S
O9 Zn3 2.035 . S
O10 Zn3 2.028 . S
O10 C13 1.247 . S
O11 Zn5 2.035 . S
O11 C13 1.258 . S
C12 O6 1.247 . S
C12 O7 1.258 . S
C13 O10 1.247 . S
C13 O11 1.258 . S
C14 O16 1.247 . S
C14 O18 1.258 . S
C15 O22 1.247 . S
C15 O23 1.258 . S
O16 C14 1.247 . S
O16 Zn17 2.028 . S
Zn17 O16 2.028 . S
Zn17 O21 2.035 1_455 S
Zn17 O23 2.035 1_455 S
Zn17 O24 2.028 . S
O18 C14 1.258 . S
O18 Zn19 2.035 1_455 S
Zn19 O18 2.035 1_655 S
Zn19 O20 2.028 . S
Zn19 O22 2.028 . S
Zn19 O25 2.035 1_655 S
O20 Zn19 2.028 . S
O20 C26 1.247 . S
O21 Zn17 2.035 1_655 S
O21 C26 1.258 . S
O22 C15 1.247 . S
O22 Zn19 2.028 . S
O23 C15 1.258 . S
O23 Zn17 2.035 1_655 S
O24 Zn17 2.028 . S
O24 C27 1.247 . S
O25 Zn19 2.035 1_455 S
O25 C27 1.258 . S
C26 O20 1.247 . S
C26 O21 1.258 . S
C27 O24 1.247 . S
C27 O25 1.258 . S
C28 O30 1.247 . S
C28 O32 1.258 . S
C29 O36 1.247 . S
C29 O37 1.258 . S
O30 C28 1.247 . S
O30 Zn31 2.028 . S
Zn31 O30 2.028 . S
Zn31 O35 2.035 . S
Zn31 O37 2.035 . S
Zn31 O38 2.028 . S
O32 C28 1.258 . S
O32 Zn33 2.035 . S
Zn33 O32 2.035 . S
Zn33 O34 2.028 . S
Zn33 O36 2.028 . S
Zn33 O39 2.035 . S
O34 Zn33 2.028 . S
O34 C40 1.247 . S
O35 Zn31 2.035 . S
O35 C40 1.258 . S
O36 C29 1.247 . S
O36 Zn33 2.028 . S
O37 C29 1.258 . S
O37 Zn31 2.035 . S
O38 Zn31 2.028 . S
O38 C41 1.247 . S
O39 Zn33 2.035 . S
O39 C41 1.258 . S
C40 O34 1.247 . S
C40 O35 1.258 . S
C41 O38 1.247 . S
C41 O39 1.258 . S
C42 O44 1.247 1_556 S
C42 O46 1.258 . S
C43 O50 1.247 1_554 S
C43 O51 1.258 . S
O44 C42 1.247 1_554 S
O44 Zn45 2.028 . S
Zn45 O44 2.028 . S
Zn45 O49 2.035 . S
Zn45 O51 2.035 . S
Zn45 O52 2.028 1_554 S
O46 C42 1.258 . S
O46 Zn47 2.035 . S
Zn47 O46 2.035 . S
Zn47 O48 2.028 1_556 S
Zn47 O50 2.028 . S
Zn47 O53 2.035 . S
O48 Zn47 2.028 1_554 S
O48 C54 1.247 . S
O49 Zn45 2.035 . S
O49 C54 1.258 . S
O50 C43 1.247 1_556 S
O50 Zn47 2.028 . S
O51 C43 1.258 . S
O51 Zn45 2.035 . S
O52 Zn45 2.028 1_556 S
O52 C55 1.247 . S
O53 Zn47 2.035 . S
O53 C55 1.258 . S
C54 O48 1.247 . S
C54 O49 1.258 . S
C55 O52 1.247 . S
C55 O53 1.258 . S
C56 O58 1.247 . S
C56 O60 1.258 1_655 S
C57 O64 1.247 . S
C57 O65 1.258 1_455 S
O58 C56 1.247 . S
O58 Zn59 2.028 1_565 S
Zn59 O58 2.028 1_545 S
Zn59 O63 2.035 1_655 S
Zn59 O65 2.035 . S
Zn59 O66 2.028 1_545 S
O60 C56 1.258 1_455 S
O60 Zn61 2.035 . S
Zn61 O60 2.035 . S
Zn61 O62 2.028 1_565 S
Zn61 O64 2.028 1_565 S
Zn61 O67 2.035 1_455 S
O62 Zn61 2.028 1_545 S
O62 C68 1.247 . S
O63 Zn59 2.035 1_455 S
O63 C68 1.258 . S
O64 C57 1.247 . S
O64 Zn61 2.028 1_545 S
O65 C57 1.258 1_655 S
O65 Zn59 2.035 . S
O66 Zn59 2.028 1_565 S
O66 C69 1.247 . S
O67 Zn61 2.035 1_655 S
O67 C69 1.258 . S
C68 O62 1.247 . S
C68 O63 1.258 . S
C69 O66 1.247 . S
C69 O67 1.258 . S
C70 O72 1.247 . S
C70 O74 1.258 . S
C71 O78 1.247 . S
C71 O79 1.258 . S
O72 C70 1.247 . S
O72 Zn73 2.028 . S
Zn73 O72 2.028 . S
Zn73 O77 2.035 . S
Zn73 O79 2.035 . S
Zn73 O80 2.028 . S
O74 C70 1.258 . S
O74 Zn75 2.035 . S
Zn75 O74 2.035 . S
Zn75 O76 2.028 . S
Zn75 O78 2.028 . S
Zn75 O81 2.035 . S
O76 Zn75 2.028 . S
O76 C82 1.247 . S
O77 Zn73 2.035 . S
O77 C82 1.258 . S
O78 C71 1.247 . S
O78 Zn75 2.028 . S
O79 C71 1.258 . S
O79 Zn73 2.035 . S
O80 Zn73 2.028 . S
O80 C83 1.247 . S
O81 Zn75 2.035 . S
O81 C83 1.258 . S
C82 O76 1.247 . S
C82 O77 1.258 . S
C83 O80 1.247 . S
C83 O81 1.258 . S
C84 O86 1.247 . S
C84 O88 1.258 . S
C85 O92 1.247 . S
C85 O93 1.258 . S
O86 C84 1.247 . S
O86 Zn87 2.028 . S
Zn87 O86 2.028 . S
Zn87 O91 2.035 1_565 S
Zn87 O93 2.035 1_565 S
Zn87 O94 2.028 . S
O88 C84 1.258 . S
O88 Zn89 2.035 1_565 S
Zn89 O88 2.035 1_545 S
Zn89 O90 2.028 . S
Zn89 O92 2.028 . S
Zn89 O95 2.035 1_545 S
O90 Zn89 2.028 . S
O90 C96 1.247 . S
O91 Zn87 2.035 1_545 S
O91 C96 1.258 . S
O92 C85 1.247 . S
O92 Zn89 2.028 . S
O93 C85 1.258 . S
O93 Zn87 2.035 1_545 S
O94 Zn87 2.028 . S
O94 C97 1.247 . S
O95 Zn89 2.035 1_565 S
O95 C97 1.258 . S
C96 O90 1.247 . S
C96 O91 1.258 . S
C97 O94 1.247 . S
C97 O95 1.258 . S
C98 O100 1.247 . S
C98 O102 1.258 . S
C99 O106 1.247 . S
C99 O107 1.258 . S
O100 C98 1.247 . S
O100 Zn101 2.028 . S
Zn101 O100 2.028 . S
Zn101 O105 2.035 . S
Zn101 O107 2.035 . S
Zn101 O108 2.028 . S
O102 C98 1.258 . S
O102 Zn103 2.035 . S
Zn103 O102 2.035 . S
Zn103 O104 2.028 . S
Zn103 O106 2.028 . S
Zn103 O109 2.035 . S
O104 Zn103 2.028 . S
O104 C110 1.247 . S
O105 Zn101 2.035 . S
O105 C110 1.258 . S
O106 C99 1.247 . S
O106 Zn103 2.028 . S
O107 C99 1.258 . S
O107 Zn101 2.035 . S
O108 Zn101 2.028 . S
O108 C111 1.247 . S
O109 Zn103 2.035 . S
O109 C111 1.258 . S
C110 O104 1.247 . S
C110 O105 1.258 . S
C111 O108 1.247 . S
C111 O109 1.258 . S
C112 O114 1.247 . S
C112 O116 1.258 . S
C113 O120 1.247 . S
C113 O121 1.258 . S
O114 C112 1.247 . S
O114 Zn115 2.028 . S
Zn115 O114 2.028 . S
Zn115 O119 2.035 . S
Zn115 O121 2.035 . S
Zn115 O122 2.028 . S
O116 C112 1.258 . S
O116 Zn117 2.035 . S
Zn117 O116 2.035 . S
Zn117 O118 2.028 . S
Zn117 O120 2.028 . S
Zn117 O123 2.035 . S
O118 Zn117 2.028 . S
O118 C124 1.247 . S
O119 Zn115 2.035 . S
O119 C124 1.258 . S
O120 C113 1.247 . S
O120 Zn117 2.028 . S
O121 C113 1.258 . S
O121 Zn115 2.035 . S
O122 Zn115 2.028 . S
O122 C125 1.247 . S
O123 Zn117 2.035 . S
O123 C125 1.258 . S
C124 O118 1.247 . S
C124 O119 1.258 . S
C125 O122 1.247 . S
C125 O123 1.258 . S
C126 O128 1.247 . S
C126 O130 1.258 . S
C127 O134 1.247 . S
C127 O135 1.258 . S
O128 C126 1.247 . S
O128 Zn129 2.028 . S
Zn129 O128 2.028 . S
Zn129 O133 2.035 . S
Zn129 O135 2.035 1_565 S
Zn129 O136 2.028 . S
O130 C126 1.258 . S
O130 Zn131 2.035 1_565 S
Zn131 O130 2.035 1_545 S
Zn131 O132 2.028 . S
Zn131 O134 2.028 . S
Zn131 O137 2.035 . S
O132 Zn131 2.028 . S
O132 C138 1.247 . S
O133 Zn129 2.035 . S
O133 C138 1.258 1_565 S
O134 C127 1.247 . S
O134 Zn131 2.028 . S
O135 C127 1.258 . S
O135 Zn129 2.035 1_545 S
O136 Zn129 2.028 . S
O136 C139 1.247 . S
O137 Zn131 2.035 . S
O137 C139 1.258 1_545 S
C138 O132 1.247 . S
C138 O133 1.258 1_545 S
C139 O136 1.247 . S
C139 O137 1.258 1_565 S
C140 O142 1.247 . S
C140 O144 1.258 . S
C141 O148 1.247 . S
C141 O149 1.258 . S
O142 C140 1.247 . S
O142 Zn143 2.028 . S
Zn143 O142 2.028 . S
Zn143 O147 2.035 . S
Zn143 O149 2.035 . S
Zn143 O150 2.028 . S
O144 C140 1.258 . S
O144 Zn145 2.035 . S
Zn145 O144 2.035 . S
Zn145 O146 2.028 . S
Zn145 O148 2.028 . S
Zn145 O151 2.035 . S
O146 Zn145 2.028 . S
O146 C152 1.247 . S
O147 Zn143 2.035 . S
O147 C152 1.258 . S
O148 C141 1.247 . S
O148 Zn145 2.028 . S
O149 C141 1.258 . S
O149 Zn143 2.035 . S
O150 Zn143 2.028 . S
O150 C153 1.247 . S
O151 Zn145 2.035 . S
O151 C153 1.258 . S
C152 O146 1.247 . S
C152 O147 1.258 . S
C153 O150 1.247 . S
C153 O151 1.258 . S
C154 O156 1.247 . S
C154 O158 1.258 . S
C155 O162 1.247 . S
C155 O163 1.258 . S
O156 C154 1.247 . S
O156 Zn157 2.028 1_554 S
Zn157 O156 2.028 1_556 S
Zn157 O161 2.035 . S
Zn157 O163 2.035 1_545 S
Zn157 O164 2.028 1_556 S
O158 C154 1.258 . S
O158 Zn159 2.035 1_545 S
Zn159 O158 2.035 1_565 S
Zn159 O160 2.028 1_554 S
Zn159 O162 2.028 1_554 S
Zn159 O165 2.035 . S
O160 Zn159 2.028 1_556 S
O160 C166 1.247 . S
O161 Zn157 2.035 . S
O161 C166 1.258 1_545 S
O162 C155 1.247 . S
O162 Zn159 2.028 1_556 S
O163 C155 1.258 . S
O163 Zn157 2.035 1_565 S
O164 Zn157 2.028 1_554 S
O164 C167 1.247 . S
O165 Zn159 2.035 . S
O165 C167 1.258 1_565 S
C166 O160 1.247 . S
C166 O161 1.258 1_565 S
C167 O164 1.247 . S
C167 O165 1.258 1_545 S
C168 O170 1.247 . S
C168 O172 1.258 . S
C169 O176 1.247 . S
C169 O177 1.258 . S
O170 C168 1.247 . S
O170 Zn171 2.028 . S
Zn171 O170 2.028 . S
Zn171 O175 2.035 . S
Zn171 O177 2.035 . S
Zn171 O178 2.028 . S
O172 C168 1.258 . S
O172 Zn173 2.035 . S
Zn173 O172 2.035 . S
Zn173 O174 2.028 . S
Zn173 O176 2.028 . S
Zn173 O179 2.035 . S
O174 Zn173 2.028 . S
O174 C180 1.247 . S
O175 Zn171 2.035 . S
O175 C180 1.258 . S
O176 C169 1.247 . S
O176 Zn173 2.028 . S
O177 C169 1.258 . S
O177 Zn171 2.035 . S
O178 Zn171 2.028 . S
O178 C181 1.247 . S
O179 Zn173 2.035 . S
O179 C181 1.258 . S
C180 O174 1.247 . S
C180 O175 1.258 . S
C181 O178 1.247 . S
C181 O179 1.258 . S
C182 O184 1.247 . S
C182 O186 1.258 1_455 S
C183 O190 1.247 . S
C183 O191 1.258 1_655 S
O184 C182 1.247 . S
O184 Zn185 2.028 . S
Zn185 O184 2.028 . S
Zn185 O189 2.035 1_455 S
Zn185 O191 2.035 . S
Zn185 O192 2.028 . S
O186 C182 1.258 1_655 S
O186 Zn187 2.035 . S
Zn187 O186 2.035 . S
Zn187 O188 2.028 . S
Zn187 O190 2.028 . S
Zn187 O193 2.035 1_655 S
O188 Zn187 2.028 . S
O188 C194 1.247 . S
O189 Zn185 2.035 1_655 S
O189 C194 1.258 . S
O190 C183 1.247 . S
O190 Zn187 2.028 . S
O191 C183 1.258 1_455 S
O191 Zn185 2.035 . S
O192 Zn185 2.028 . S
O192 C195 1.247 . S
O193 Zn187 2.035 1_455 S
O193 C195 1.258 . S
C194 O188 1.247 . S
C194 O189 1.258 . S
C195 O192 1.247 . S
C195 O193 1.258 . S
C196 O198 1.247 . S
C196 O200 1.258 . S
C197 O204 1.247 . S
C197 O205 1.258 . S
O198 C196 1.247 . S
O198 Zn199 2.028 . S
Zn199 O198 2.028 . S
Zn199 O203 2.035 . S
Zn199 O205 2.035 . S
Zn199 O206 2.028 . S
O200 C196 1.258 . S
O200 Zn201 2.035 . S
Zn201 O200 2.035 . S
Zn201 O202 2.028 . S
Zn201 O204 2.028 . S
Zn201 O207 2.035 . S
O202 Zn201 2.028 . S
O202 C208 1.247 . S
O203 Zn199 2.035 . S
O203 C208 1.258 . S
O204 C197 1.247 . S
O204 Zn201 2.028 . S
O205 C197 1.258 . S
O205 Zn199 2.035 . S
O206 Zn199 2.028 . S
O206 C209 1.247 . S
O207 Zn201 2.035 . S
O207 C209 1.258 . S
C208 O202 1.247 . S
C208 O203 1.258 . S
C209 O206 1.247 . S
C209 O207 1.258 . S
C210 O212 1.247 . S
C210 O214 1.258 . S
C211 O218 1.247 . S
C211 O219 1.258 . S
O212 C210 1.247 . S
O212 Zn213 2.028 . S
Zn213 O212 2.028 . S
Zn213 O217 2.035 . S
Zn213 O219 2.035 . S
Zn213 O220 2.028 . S
O214 C210 1.258 . S
O214 Zn215 2.035 . S
Zn215 O214 2.035 . S
Zn215 O216 2.028 . S
Zn215 O218 2.028 . S
Zn215 O221 2.035 . S
O216 Zn215 2.028 . S
O216 C222 1.247 . S
O217 Zn213 2.035 . S
O217 C222 1.258 . S
O218 C211 1.247 . S
O218 Zn215 2.028 . S
O219 C211 1.258 . S
O219 Zn213 2.035 . S
O220 Zn213 2.028 . S
O220 C223 1.247 . S
O221 Zn215 2.035 . S
O221 C223 1.258 . S
C222 O216 1.247 . S
C222 O217 1.258 . S
C223 O220 1.247 . S
C223 O221 1.258 . S
C224 O226 1.247 . S
C224 O228 1.258 . S
C225 O232 1.247 . S
C225 O233 1.258 . S
O226 C224 1.247 . S
O226 Zn227 2.028 . S
Zn227 O226 2.028 . S
Zn227 O231 2.035 . S
Zn227 O233 2.035 . S
Zn227 O234 2.028 . S
O228 C224 1.258 . S
O228 Zn229 2.035 . S
Zn229 O228 2.035 . S
Zn229 O230 2.028 . S
Zn229 O232 2.028 . S
Zn229 O235 2.035 . S
O230 Zn229 2.028 . S
O230 C236 1.247 . S
O231 Zn227 2.035 . S
O231 C236 1.258 . S
O232 C225 1.247 . S
O232 Zn229 2.028 . S
O233 C225 1.258 . S
O233 Zn227 2.035 . S
O234 Zn227 2.028 . S
O234 C237 1.247 . S
O235 Zn229 2.035 . S
O235 C237 1.258 . S
C236 O230 1.247 . S
C236 O231 1.258 . S
C237 O234 1.247 . S
C237 O235 1.258 . S
C238 O240 1.247 . S
C238 O242 1.258 . S
C239 O246 1.247 . S
C239 O247 1.258 . S
O240 C238 1.247 . S
O240 Zn241 2.028 . S
Zn241 O240 2.028 . S
Zn241 O245 2.035 . S
Zn241 O247 2.035 . S
Zn241 O248 2.028 . S
O242 C238 1.258 . S
O242 Zn243 2.035 . S
Zn243 O242 2.035 . S
Zn243 O244 2.028 . S
Zn243 O246 2.028 . S
Zn243 O249 2.035 . S
O244 Zn243 2.028 . S
O244 C250 1.247 . S
O245 Zn241 2.035 . S
O245 C250 1.258 . S
O246 C239 1.247 . S
O246 Zn243 2.028 . S
O247 C239 1.258 . S
O247 Zn241 2.035 . S
O248 Zn241 2.028 . S
O248 C251 1.247 . S
O249 Zn243 2.035 . S
O249 C251 1.258 . S
C250 O244 1.247 . S
C250 O245 1.258 . S
C251 O248 1.247 . S
C251 O249 1.258 . S
C252 O254 1.247 . S
C252 O256 1.258 . S
C253 O260 1.247 . S
C253 O261 1.258 . S
O254 C252 1.247 . S
O254 Zn255 2.028 1_556 S
Zn255 O254 2.028 1_554 S
Zn255 O259 2.035 1_655 S
Zn255 O261 2.035 1_655 S
Zn255 O262 2.028 . S
O256 C252 1.258 . S
O256 Zn257 2.035 1_655 S
Zn257 O256 2.035 1_455 S
Zn257 O258 2.028 . S
Zn257 O260 2.028 1_556 S
Zn257 O263 2.035 1_455 S
O258 Zn257 2.028 . S
O258 C264 1.247 1_556 S
O259 Zn255 2.035 1_455 S
O259 C264 1.258 . S
O260 C253 1.247 . S
O260 Zn257 2.028 1_554 S
O261 C253 1.258 . S
O261 Zn255 2.035 1_455 S
O262 Zn255 2.028 . S
O262 C265 1.247 1_554 S
O263 Zn257 2.035 1_655 S
O263 C265 1.258 . S
C264 O258 1.247 1_554 S
C264 O259 1.258 . S
C265 O262 1.247 1_556 S
C265 O263 1.258 . S
C266 O268 1.247 . S
C266 O270 1.258 . S
C267 O274 1.247 . S
C267 O275 1.258 . S
O268 C266 1.247 . S
O268 Zn269 2.028 . S
Zn269 O268 2.028 . S
Zn269 O273 2.035 . S
Zn269 O275 2.035 . S
Zn269 O276 2.028 . S
O270 C266 1.258 . S
O270 Zn271 2.035 . S
Zn271 O270 2.035 . S
Zn271 O272 2.028 . S
Zn271 O274 2.028 . S
Zn271 O277 2.035 . S
O272 Zn271 2.028 . S
O272 C278 1.247 . S
O273 Zn269 2.035 . S
O273 C278 1.258 . S
O274 C267 1.247 . S
O274 Zn271 2.028 . S
O275 C267 1.258 . S
O275 Zn269 2.035 . S
O276 Zn269 2.028 . S
O276 C279 1.247 . S
O277 Zn271 2.035 . S
O277 C279 1.258 . S
C278 O272 1.247 . S
C278 O273 1.258 . S
C279 O276 1.247 . S
C279 O277 1.258 . S
C280 O282 1.247 . S
C280 O284 1.258 . S
C281 O288 1.247 . S
C281 O289 1.258 . S
O282 C280 1.247 . S
O282 Zn283 2.028 . S
Zn283 O282 2.028 . S
Zn283 O287 2.035 . S
Zn283 O289 2.035 . S
Zn283 O290 2.028 . S
O284 C280 1.258 . S
O284 Zn285 2.035 . S
Zn285 O284 2.035 . S
Zn285 O286 2.028 . S
Zn285 O288 2.028 . S
Zn285 O291 2.035 . S
O286 Zn285 2.028 . S
O286 C292 1.247 . S
O287 Zn283 2.035 . S
O287 C292 1.258 . S
O288 C281 1.247 . S
O288 Zn285 2.028 . S
O289 C281 1.258 . S
O289 Zn283 2.035 . S
O290 Zn283 2.028 . S
O290 C293 1.247 . S
O291 Zn285 2.035 . S
O291 C293 1.258 . S
C292 O286 1.247 . S
C292 O287 1.258 . S
C293 O290 1.247 . S
C293 O291 1.258 . S
C294 O296 1.247 . S
C294 O298 1.258 . S
C295 O302 1.247 . S
C295 O303 1.258 . S
O296 C294 1.247 . S
O296 Zn297 2.028 . S
Zn297 O296 2.028 . S
Zn297 O301 2.035 . S
Zn297 O303 2.035 . S
Zn297 O304 2.028 . S
O298 C294 1.258 . S
O298 Zn299 2.035 . S
Zn299 O298 2.035 . S
Zn299 O300 2.028 . S
Zn299 O302 2.028 . S
Zn299 O305 2.035 . S
O300 Zn299 2.028 . S
O300 C306 1.247 . S
O301 Zn297 2.035 . S
O301 C306 1.258 . S
O302 C295 1.247 . S
O302 Zn299 2.028 . S
O303 C295 1.258 . S
O303 Zn297 2.035 . S
O304 Zn297 2.028 . S
O304 C307 1.247 . S
O305 Zn299 2.035 . S
O305 C307 1.258 . S
C306 O300 1.247 . S
C306 O301 1.258 . S
C307 O304 1.247 . S
C307 O305 1.258 . S
C308 O310 1.247 . S
C308 O312 1.258 . S
C309 O316 1.247 . S
C309 O317 1.258 . S
O310 C308 1.247 . S
O310 Zn311 2.028 1_556 S
Zn311 O310 2.028 1_554 S
Zn311 O315 2.035 . S
Zn311 O317 2.035 . S
Zn311 O318 2.028 1_554 S
O312 C308 1.258 . S
O312 Zn313 2.035 . S
Zn313 O312 2.035 . S
Zn313 O314 2.028 1_556 S
Zn313 O316 2.028 1_556 S
Zn313 O319 2.035 . S
O314 Zn313 2.028 1_554 S
O314 C320 1.247 . S
O315 Zn311 2.035 . S
O315 C320 1.258 . S
O316 C309 1.247 . S
O316 Zn313 2.028 1_554 S
O317 C309 1.258 . S
O317 Zn311 2.035 . S
O318 Zn311 2.028 1_556 S
O318 C321 1.247 . S
O319 Zn313 2.035 . S
O319 C321 1.258 . S
C320 O314 1.247 . S
C320 O315 1.258 . S
C321 O318 1.247 . S
C321 O319 1.258 . S
C322 O324 1.247 . S
C322 O326 1.258 . S
C323 O330 1.247 . S
C323 O331 1.258 . S
O324 C322 1.247 . S
O324 Zn325 2.028 . S
Zn325 O324 2.028 . S
Zn325 O329 2.035 . S
Zn325 O331 2.035 . S
Zn325 O332 2.028 . S
O326 C322 1.258 . S
O326 Zn327 2.035 . S
Zn327 O326 2.035 . S
Zn327 O328 2.028 . S
Zn327 O330 2.028 . S
Zn327 O333 2.035 . S
O328 Zn327 2.028 . S
O328 C334 1.247 . S
O329 Zn325 2.035 . S
O329 C334 1.258 . S
O330 C323 1.247 . S
O330 Zn327 2.028 . S
O331 C323 1.258 . S
O331 Zn325 2.035 . S
O332 Zn325 2.028 . S
O332 C335 1.247 . S
O333 Zn327 2.035 . S
O333 C335 1.258 . S
C334 O328 1.247 . S
C334 O329 1.258 . S
C335 O332 1.247 . S
C335 O333 1.258 . S
C99 C1 1.782 . S
C15 C56 1.325 . S
C83 C29 1.632 . S
C55 C85 1.602 . S
C124 C13 1.775 . S
C27 C126 1.594 . S
C152 C41 1.964 . S
C154 C43 1.278 . S
C68 C138 1.272 . S
C71 C140 1.779 . S
C166 C97 1.325 . S
C112 C111 1.780 . S
C294 C169 1.970 . S
C194 C320 1.588 . S
C197 C322 1.631 . S
C334 C222 1.770 . S
C236 C306 1.624 . S
C279 C238 1.598 . S
C181 C224 1.773 . S
C182 C253 1.281 . S
C209 C210 1.964 . S
C250 C292 1.589 . S
C265 C308 1.323 . S
C280 C267 1.592 . S
C57 C0 3.365 . S
C82 C14 2.104 . S
C84 C28 3.558 . S
C98 C54 2.873 . S
C125 C167 3.373 . S
C127 C113 2.882 . S
C153 C139 3.397 . S
C141 C155 2.080 . S
C264 C110 3.359 . S
C168 C42 3.383 . S
C12 C195 2.880 . S
C26 C196 3.558 . S
C70 C266 3.209 . S
C69 C223 2.080 . S
C96 C237 2.104 . S
C225 C239 3.220 . S
C180 C252 2.070 . S
C211 C183 3.397 . S
C278 C208 3.434 . S
C293 C335 3.220 . S
C281 C295 3.443 . S
C321 C307 3.572 . S
C323 C309 2.112 . S
C40 C251 3.443 . S
