# Generated by pormake.
# Topology smm, (6)-cn, num edge types: 1
# Building blocks:
#     Node 0, Type 0, BuildingBlock: CUWYAW_clean_sbu_0, # of connection points: 6
#     Node 1, Type 0, BuildingBlock: CUWYAW_clean_sbu_0, # of connection points: 6
#     Node 2, Type 0, BuildingBlock: CUWYAW_clean_sbu_0, # of connection points: 6
#     Node 3, Type 0, BuildingBlock: CUWYAW_clean_sbu_0, # of connection points: 6
#     Node 4, Type 0, BuildingBlock: CUWYAW_clean_sbu_0, # of connection points: 6
#     Node 5, Type 0, BuildingBlock: CUWYAW_clean_sbu_0, # of connection points: 6
#     Node 6, Type 0, BuildingBlock: CUWYAW_clean_sbu_0, # of connection points: 6
#     Node 7, Type 0, BuildingBlock: CUWYAW_clean_sbu_0, # of connection points: 6
#     Node 8, Type 0, BuildingBlock: CUWYAW_clean_sbu_0, # of connection points: 6
#     Edge 9, Type (0, 0), BuildingBlock: UVAHIK_clean_linker_0, # of connection points: 2
#     Edge 10, Type (0, 0), BuildingBlock: UVAHIK_clean_linker_0, # of connection points: 2
#     Edge 11, Type (0, 0), BuildingBlock: UVAHIK_clean_linker_0, # of connection points: 2
#     Edge 12, Type (0, 0), BuildingBlock: UVAHIK_clean_linker_0, # of connection points: 2
#     Edge 13, Type (0, 0), BuildingBlock: UVAHIK_clean_linker_0, # of connection points: 2
#     Edge 14, Type (0, 0), BuildingBlock: UVAHIK_clean_linker_0, # of connection points: 2
#     Edge 15, Type (0, 0), BuildingBlock: UVAHIK_clean_linker_0, # of connection points: 2
#     Edge 16, Type (0, 0), BuildingBlock: UVAHIK_clean_linker_0, # of connection points: 2
#     Edge 17, Type (0, 0), BuildingBlock: UVAHIK_clean_linker_0, # of connection points: 2
#     Edge 18, Type (0, 0), BuildingBlock: UVAHIK_clean_linker_0, # of connection points: 2
#     Edge 19, Type (0, 0), BuildingBlock: UVAHIK_clean_linker_0, # of connection points: 2
#     Edge 20, Type (0, 0), BuildingBlock: UVAHIK_clean_linker_0, # of connection points: 2
#     Edge 21, Type (0, 0), BuildingBlock: UVAHIK_clean_linker_0, # of connection points: 2
#     Edge 22, Type (0, 0), BuildingBlock: UVAHIK_clean_linker_0, # of connection points: 2
#     Edge 23, Type (0, 0), BuildingBlock: UVAHIK_clean_linker_0, # of connection points: 2
#     Edge 24, Type (0, 0), BuildingBlock: UVAHIK_clean_linker_0, # of connection points: 2
#     Edge 25, Type (0, 0), BuildingBlock: UVAHIK_clean_linker_0, # of connection points: 2
#     Edge 26, Type (0, 0), BuildingBlock: UVAHIK_clean_linker_0, # of connection points: 2
#     Edge 27, Type (0, 0), BuildingBlock: UVAHIK_clean_linker_0, # of connection points: 2
#     Edge 28, Type (0, 0), BuildingBlock: UVAHIK_clean_linker_0, # of connection points: 2
#     Edge 29, Type (0, 0), BuildingBlock: UVAHIK_clean_linker_0, # of connection points: 2
#     Edge 30, Type (0, 0), BuildingBlock: UVAHIK_clean_linker_0, # of connection points: 2
#     Edge 31, Type (0, 0), BuildingBlock: UVAHIK_clean_linker_0, # of connection points: 2
#     Edge 32, Type (0, 0), BuildingBlock: UVAHIK_clean_linker_0, # of connection points: 2
#     Edge 33, Type (0, 0), BuildingBlock: UVAHIK_clean_linker_0, # of connection points: 2
#     Edge 34, Type (0, 0), BuildingBlock: UVAHIK_clean_linker_0, # of connection points: 2
#     Edge 35, Type (0, 0), BuildingBlock: UVAHIK_clean_linker_0, # of connection points: 2
# Relax obj value: 0.033
# Max RMSD: 0.108
# Mean RMSD: 0.108
data_MOF--net-smm--node1-CUWYAW_clean_sbu_0--edge1-UVAHIK_clean_linker_0
_symmetry_space_group_name_H-M    P1
_symmetry_Int_Tables_number       1
_symmetry_cell_setting            triclinic
loop_
_symmetry_equiv_pos_as_xyz
'x, y, z'
_cell_length_a     85.794414
_cell_length_b     85.857453
_cell_length_c     18.655622
_cell_angle_alpha  89.955698
_cell_angle_beta   89.993647
_cell_angle_gamma 120.05298
loop_
_atom_site_label
_atom_site_type_symbol
_atom_site_fract_x
_atom_site_fract_y
_atom_site_fract_z
_atom_type_partial_charge
C0 C 0.07698 0.18844 0.89415 0.0
Eu1 Eu 0.05368 0.19552 0.95332 0.0
C2 C 0.08396 0.176 0.9052 0.0
C3 C 0.08817 0.17251 0.97404 0.0
C4 C 0.09567 0.16143 0.98292 0.0
C5 C 0.09897 0.15348 0.92326 0.0
C6 C 0.09437 0.1567 0.85461 0.0
C7 C 0.087 0.16789 0.84573 0.0
C8 C 0.04967 0.19743 0.09648 0.0
C9 C 1.015 0.15842 0.97859 0.0
C10 C 0.99776 0.20413 0.06939 0.0
Eu11 Eu 1.02034 0.19777 -0.00041 0.0
C12 C 0.99289 0.21803 0.08607 0.0
C13 C 0.98746 0.22585 0.03256 0.0
C14 C 0.98097 0.2374 0.05108 0.0
C15 C 0.97972 0.24132 0.12345 0.0
C16 C 0.98576 0.23393 0.17653 0.0
C17 C 0.99221 0.2224 0.15804 0.0
C18 C 1.02341 0.19427 0.85719 0.0
C19 C 0.05797 0.23474 0.9592 0.0
O20 O 0.0603 0.18137 0.87208 0.0
O21 O 0.08117 0.20091 0.94274 0.0
O22 O 0.06521 0.20448 0.06521 0.0
O23 O 0.03734 0.18868 0.05224 0.0
O24 O 0.03098 0.16636 0.94697 0.0
O25 O 1.00885 0.16782 0.0124 0.0
O26 O 1.01261 0.20608 0.09762 0.0
O27 O 0.99487 0.19756 0.00427 0.0
O28 O 1.00799 0.18763 0.88978 0.0
O29 O 0.03608 0.20366 0.89948 0.0
O30 O 0.04269 0.22739 -0.00379 0.0
O31 O 0.06356 0.22464 0.92746 0.0
H32 H 0.08582 0.17848 0.02097 0.0
H33 H 0.09882 0.15903 0.03656 0.0
H34 H 0.09688 0.15092 0.8075 0.0
H35 H 0.08388 0.1704 0.79217 0.0
H36 H 0.98776 0.2227 0.97656 0.0
H37 H 0.97631 0.24272 0.00881 0.0
H38 H 0.9853 0.23688 0.23267 0.0
H39 H 0.99626 0.21651 0.20035 0.0
C40 C 0.87341 0.90731 0.89572 0.0
Eu41 Eu 0.86663 0.87708 0.95574 0.0
C42 C 0.88582 0.92678 0.90527 0.0
C43 C 0.89247 0.93416 0.97322 0.0
C44 C 0.90337 0.9528 0.9817 0.0
C45 C 0.9079 0.96445 0.92235 0.0
C46 C 0.90153 0.95689 0.85417 0.0
C47 C 0.89059 0.93826 0.84583 0.0
C48 C 0.86468 0.87116 0.09892 0.0
C49 C 0.90386 0.87585 0.98111 0.0
C50 C 0.8582 0.81262 0.07232 0.0
Eu51 Eu 0.86464 0.84161 0.00252 0.0
C52 C 0.8445 0.79346 0.08434 0.0
C53 C 0.83947 0.78054 0.02968 0.0
C54 C 0.82803 0.76224 0.0445 0.0
C55 C 0.82135 0.75642 0.11424 0.0
C56 C 0.82599 0.76943 0.16828 0.0
C57 C 0.83748 0.78771 0.15352 0.0
C58 C 0.86782 0.84796 0.85984 0.0
C59 C 0.82748 0.84187 0.96168 0.0
O60 O 0.88045 0.89771 0.87349 0.0
O61 O 0.8613 0.89922 0.94585 0.0
O62 O 0.85757 0.87956 0.06751 0.0
O63 O 0.87354 0.86769 0.05483 0.0
O64 O 0.89581 0.88368 0.94879 0.0
O65 O 0.89455 0.86043 0.01599 0.0
O66 O 0.85491 0.82483 0.0986 0.0
O67 O 0.86628 0.81717 0.00991 0.0
O68 O 0.87441 0.83913 0.89214 0.0
O69 O 0.85856 0.8513 0.90254 0.0
O70 O 0.83493 0.83404 -0.00137 0.0
O71 O 0.83751 0.85763 0.9301 0.0
H72 H 0.88899 0.92553 0.0199 0.0
H73 H 0.90786 0.9581 0.03508 0.0
H74 H 0.90501 0.96536 0.80704 0.0
H75 H 0.88568 0.93283 0.79289 0.0
H76 H 0.84465 0.78449 0.97576 0.0
H77 H 0.82454 0.75261 0.00138 0.0
H78 H 0.82129 0.76545 0.22273 0.0
H79 H 0.84129 0.79734 0.19685 0.0
C80 C 0.15504 0.98503 0.89701 0.0
Eu81 Eu 0.18531 1.00872 0.95605 0.0
C82 C 0.13553 0.97785 0.90778 0.0
C83 C 0.12771 0.97325 0.97637 0.0
C84 C 0.10908 0.96563 0.98492 0.0
C85 C 0.09789 0.9626 0.9252 0.0
C86 C 0.10584 0.96757 0.85683 0.0
C87 C 0.12445 0.97506 0.84826 0.0
C88 C 0.19112 1.01279 0.09925 0.0
C89 C 0.18597 0.0468 0.98092 0.0
C90 C 0.24899 0.06594 0.07306 0.0
Eu91 Eu 0.22056 0.0425 0.00263 0.0
C92 C 0.26833 0.07295 0.08527 0.0
C93 C 0.27723 0.06404 0.06031 0.0
C94 C 0.29573 0.07131 0.07324 0.0
C95 C 0.30557 0.08764 0.11098 0.0
C96 C 0.29643 0.09634 0.13604 0.0
C97 C 0.27805 0.08908 0.12324 0.0
C98 C 0.21431 0.03921 0.85987 0.0
C99 C 0.22082 1.00534 0.96287 0.0
O100 O 0.16452 1.00166 0.87432 0.0
O101 O 0.16343 0.98108 0.94604 0.0
O102 O 0.18284 0.99726 0.06801 0.0
O103 O 0.1945 0.02508 0.05502 0.0
O104 O 0.17841 0.03103 0.94798 0.0
O105 O 0.20126 0.05295 0.01661 0.0
O106 O 0.23772 0.04979 0.09729 0.0
O107 O 0.24428 0.06924 0.01068 0.0
O108 O 0.22305 0.05465 0.89202 0.0
O109 O 0.21106 0.02666 0.90272 0.0
O110 O 0.22858 0.02071 -0.00085 0.0
O111 O 0.20501 0.99935 0.93129 0.0
H112 H 0.13596 0.97539 0.02338 0.0
H113 H 0.10343 0.96219 0.03839 0.0
H114 H 0.09761 0.96528 0.80965 0.0
H115 H 0.13018 0.97848 0.79489 0.0
H116 H 0.26992 0.05156 0.03078 0.0
H117 H 0.30236 0.06432 0.05281 0.0
H118 H 0.30345 0.10872 0.16642 0.0
H119 H 0.27138 0.09609 0.14327 0.0
C120 C 0.74202 0.52054 0.22233 0.0
Eu121 Eu 0.71873 0.52743 0.28295 0.0
C122 C 0.74907 0.50816 0.23236 0.0
C123 C 0.74954 0.50141 0.30042 0.0
C124 C 0.75729 0.49055 0.30954 0.0
C125 C 0.76466 0.48616 0.25071 0.0
C126 C 0.76372 0.49263 0.18237 0.0
C127 C 0.75603 0.50353 0.1734 0.0
C128 C 0.71485 0.52915 0.42633 0.0
C129 C 0.67999 0.49041 0.30782 0.0
C130 C 0.66321 0.53637 0.40079 0.0
Eu131 Eu 0.68553 0.52976 0.33029 0.0
C132 C 0.65813 0.55028 0.41381 0.0
C133 C 0.65041 0.55569 0.35975 0.0
C134 C 0.6439 0.56736 0.37549 0.0
C135 C 0.64497 0.5739 0.44556 0.0
C136 C 0.65318 0.56889 0.499 0.0
C137 C 0.65961 0.55717 0.48332 0.0
C138 C 0.68863 0.52679 0.1874 0.0
C139 C 0.72321 0.56674 0.29032 0.0
O140 O 0.72531 0.51344 0.20084 0.0
O141 O 0.74619 0.53276 0.27195 0.0
O142 O 0.73035 0.53617 0.39482 0.0
O143 O 0.70246 0.52048 0.38219 0.0
O144 O 0.69588 0.49834 0.27539 0.0
O145 O 0.67408 0.49981 0.34308 0.0
O146 O 0.67859 0.53925 0.42713 0.0
O147 O 0.65964 0.52858 0.33783 0.0
O148 O 0.6732 0.52023 0.21984 0.0
O149 O 0.70128 0.53589 0.23014 0.0
O150 O 0.70793 0.55936 0.3273 0.0
O151 O 0.72876 0.55665 0.25811 0.0
H152 H 0.7442 0.50479 0.34671 0.0
H153 H 0.75791 0.48598 0.36301 0.0
H154 H 0.76892 0.48926 0.13562 0.0
H155 H 0.75571 0.50854 0.12039 0.0
H156 H 0.64903 0.55062 0.30559 0.0
H157 H 0.63788 0.57113 0.33284 0.0
H158 H 0.65405 0.57349 0.55366 0.0
H159 H 0.66532 0.55308 0.5262 0.0
C160 C 0.53636 0.23908 0.23028 0.0
Eu161 Eu 0.53491 0.2103 0.28284 0.0
C162 C 0.54771 0.25881 0.23952 0.0
C163 C 0.55112 0.26688 0.30766 0.0
C164 C 0.56186 0.28558 0.31493 0.0
C165 C 0.56955 0.29661 0.25438 0.0
C166 C 0.56618 0.28847 0.18637 0.0
C167 C 0.55534 0.2698 0.17907 0.0
C168 C 0.53965 0.20595 0.42301 0.0
C169 C 0.57125 0.20889 0.30849 0.0
C170 C 0.5256 0.14276 0.37208 0.0
Eu171 Eu 0.53227 0.17388 0.32097 0.0
C172 C 0.51115 0.12465 0.3953 0.0
C173 C 0.50181 0.11095 0.34457 0.0
C174 C 0.49024 0.09322 0.36647 0.0
C175 C 0.48772 0.08868 0.43964 0.0
C176 C 0.49645 0.10249 0.49053 0.0
C177 C 0.50813 0.12026 0.46857 0.0
C178 C 0.54064 0.18469 0.18311 0.0
C179 C 0.49529 0.17417 0.28322 0.0
O180 O 0.54407 0.23092 0.19958 0.0
O181 O 0.52588 0.22989 0.28397 0.0
O182 O 0.54724 0.22139 0.39108 0.0
O183 O 0.52854 0.1938 0.38207 0.0
O184 O 0.56351 0.2161 0.26991 0.0
O185 O 0.56161 0.19371 0.34471 0.0
O186 O 0.52948 0.15668 0.41273 0.0
O187 O 0.52667 0.14655 0.30372 0.0
O188 O 0.5474 0.17638 0.218 0.0
O189 O 0.52938 0.18622 0.22121 0.0
O190 O 0.5027 0.16471 0.30551 0.0
O191 O 0.50495 0.19162 0.2694 0.0
H192 H 0.54555 0.25876 0.35542 0.0
H193 H 0.56435 0.29138 0.36814 0.0
H194 H 0.57172 0.29657 0.13856 0.0
H195 H 0.5529 0.26392 0.126 0.0
H196 H 0.50386 0.11375 0.28767 0.0
H197 H 0.48353 0.08296 0.32591 0.0
H198 H 0.49489 0.09942 0.5473 0.0
H199 H 0.5153 0.13044 0.509 0.0
C200 C 0.82228 0.3189 0.22709 0.0
Eu201 Eu 0.85252 0.34278 0.28558 0.0
C202 C 0.8028 0.31158 0.23831 0.0
C203 C 0.79531 0.30829 0.30751 0.0
C204 C 0.77669 0.30053 0.3168 0.0
C205 C 0.76519 0.29605 0.25714 0.0
C206 C 0.7728 0.29971 0.18803 0.0
C207 C 0.79141 0.30735 0.17878 0.0
C208 C 0.85868 0.34685 0.42856 0.0
C209 C 0.85283 0.38064 0.3124 0.0
C210 C 0.91657 0.40024 0.39872 0.0
Eu211 Eu 0.8877 0.37669 0.33107 0.0
C212 C 0.93601 0.40698 0.40766 0.0
C213 C 0.94766 0.42557 0.41437 0.0
C214 C 0.96603 0.43252 0.42662 0.0
C215 C 0.97322 0.42101 0.43253 0.0
C216 C 0.96153 0.40234 0.425 0.0
C217 C 0.94308 0.39538 0.41252 0.0
C218 C 0.88103 0.37338 0.18867 0.0
C219 C 0.88818 0.33968 0.2908 0.0
O220 O 0.8316 0.33553 0.20435 0.0
O221 O 0.83078 0.31508 0.27607 0.0
O222 O 0.85043 0.33132 0.39731 0.0
O223 O 0.86184 0.35912 0.38453 0.0
O224 O 0.84528 0.36489 0.27924 0.0
O225 O 0.86827 0.38689 0.34716 0.0
O226 O 0.90526 0.38427 0.42442 0.0
O227 O 0.91137 0.40354 0.33743 0.0
O228 O 0.88964 0.38882 0.22091 0.0
O229 O 0.87807 0.36085 0.23117 0.0
O230 O 0.89589 0.35504 0.32712 0.0
O231 O 0.87231 0.33361 0.25965 0.0
H232 H 0.80384 0.31158 0.35441 0.0
H233 H 0.77129 0.29811 0.37073 0.0
H234 H 0.76433 0.29628 0.14094 0.0
H235 H 0.79689 0.30975 0.12496 0.0
H236 H 0.94247 0.43475 0.41125 0.0
H237 H 0.97453 0.44692 0.43321 0.0
H238 H 0.96664 0.39311 0.42849 0.0
H239 H 0.93436 0.38096 0.40731 0.0
C240 C 0.40897 0.85367 0.56296 0.0
Eu241 Eu 0.38567 0.86074 0.62226 0.0
C242 C 0.41606 0.8413 0.57406 0.0
C243 C 0.42042 0.83795 0.64286 0.0
C244 C 0.428 0.82694 0.65174 0.0
C245 C 0.43124 0.81892 0.59214 0.0
C246 C 0.4265 0.82201 0.52355 0.0
C247 C 0.41903 0.83312 0.51466 0.0
C248 C 0.38167 0.86241 0.76562 0.0
C249 C 0.34686 0.82374 0.64625 0.0
C250 C 0.3299 0.86944 0.73922 0.0
Eu251 Eu 0.35247 0.86309 0.66918 0.0
C252 C 0.3251 0.88336 0.75628 0.0
C253 C 0.31975 0.89132 0.70298 0.0
C254 C 0.3133 0.90288 0.7218 0.0
C255 C 0.31201 0.90669 0.79427 0.0
C256 C 0.31797 0.89918 0.84715 0.0
C257 C 0.32437 0.88763 0.82836 0.0
C258 C 0.35552 0.85984 0.5265 0.0
C259 C 0.39011 0.90001 0.62949 0.0
O260 O 0.39227 0.84652 0.54122 0.0
O261 O 0.41318 0.8662 0.61128 0.0
O262 O 0.3972 0.8695 0.73428 0.0
O263 O 0.36933 0.85376 0.72129 0.0
O264 O 0.36281 0.83168 0.61433 0.0
O265 O 0.34087 0.83312 0.68119 0.0
O266 O 0.34471 0.87127 0.76748 0.0
O267 O 0.32705 0.86299 0.67392 0.0
O268 O 0.34011 0.85318 0.55916 0.0
O269 O 0.3682 0.86911 0.56891 0.0
O270 O 0.37496 0.89265 0.66731 0.0
O271 O 0.39554 0.8899 0.59663 0.0
H272 H 0.41812 0.84397 0.68974 0.0
H273 H 0.43127 0.82464 0.70536 0.0
H274 H 0.42896 0.81618 0.47646 0.0
H275 H 0.4158 0.83553 0.46113 0.0
H276 H 0.32008 0.88825 0.64689 0.0
H277 H 0.3087 0.90829 0.67967 0.0
H278 H 0.31748 0.90204 0.90337 0.0
H279 H 0.32836 0.88164 0.87051 0.0
C280 C 0.20316 0.57241 0.56712 0.0
Eu281 Eu 0.20163 0.54391 0.6238 0.0
C282 C 0.21481 0.59208 0.57509 0.0
C283 C 0.2229 0.59972 0.64108 0.0
C284 C 0.2337 0.6184 0.6481 0.0
C285 C 0.23679 0.62986 0.58915 0.0
C286 C 0.22882 0.62206 0.52291 0.0
C287 C 0.21793 0.60338 0.51606 0.0
C288 C 0.2018 0.53914 0.76699 0.0
C289 C 0.23751 0.54317 0.6594 0.0
C290 C 0.1961 0.48032 0.73953 0.0
Eu291 Eu 0.19707 0.50745 0.67205 0.0
C292 C 0.18373 0.46111 0.75472 0.0
C293 C 0.19095 0.45021 0.77352 0.0
C294 C 0.17964 0.43197 0.78882 0.0
C295 C 0.1608 0.42419 0.78565 0.0
C296 C 0.15358 0.4352 0.76684 0.0
C297 C 0.16495 0.4535 0.75129 0.0
C298 C 0.19707 0.512 0.52882 0.0
C299 C 0.16179 0.50762 0.62225 0.0
O300 O 0.21053 0.56383 0.53763 0.0
O301 O 0.19297 0.56378 0.62208 0.0
O302 O 0.21182 0.55444 0.73543 0.0
O303 O 0.19164 0.52743 0.72256 0.0
O304 O 0.23069 0.55161 0.6235 0.0
O305 O 0.22712 0.52719 0.68935 0.0
O306 O 0.1925 0.49189 0.76997 0.0
O307 O 0.20156 0.48457 0.67322 0.0
O308 O 0.18741 0.49655 0.56028 0.0
O309 O 0.207 0.52385 0.57338 0.0
O310 O 0.16785 0.4995 0.66476 0.0
O311 O 0.17274 0.52354 0.593 0.0
H312 H 0.22077 0.59126 0.6874 0.0
H313 H 0.2394 0.62387 0.70014 0.0
H314 H 0.23112 0.63038 0.47599 0.0
H315 H 0.21194 0.59774 0.46454 0.0
H316 H 0.20541 0.45585 0.77668 0.0
H317 H 0.18568 0.424 0.80413 0.0
H318 H 0.13915 0.42962 0.76318 0.0
H319 H 0.15911 0.46169 0.73657 0.0
C320 C 0.48786 0.65059 0.56751 0.0
Eu321 Eu 0.51809 0.67453 0.62597 0.0
C322 C 0.46842 0.64301 0.58053 0.0
C323 C 0.46167 0.64174 0.65017 0.0
C324 C 0.4431 0.63371 0.66192 0.0
C325 C 0.43091 0.62689 0.6042 0.0
C326 C 0.43783 0.62856 0.53437 0.0
C327 C 0.45639 0.63651 0.52276 0.0
C328 C 0.52403 0.67859 0.76909 0.0
C329 C 0.51864 0.71256 0.65093 0.0
C330 C 0.582 0.73171 0.74123 0.0
Eu331 Eu 0.55329 0.70834 0.67211 0.0
C332 C 0.6014 0.73841 0.75168 0.0
C333 C 0.6129 0.7569 0.7621 0.0
C334 C 0.63121 0.76379 0.77561 0.0
C335 C 0.63849 0.75232 0.77905 0.0
C336 C 0.62693 0.73374 0.76803 0.0
C337 C 0.60854 0.72684 0.75431 0.0
C338 C 0.54688 0.70507 0.52946 0.0
C339 C 0.5537 0.67134 0.63128 0.0
O340 O 0.49689 0.66736 0.5461 0.0
O341 O 0.49662 0.64674 0.61512 0.0
O342 O 0.51578 0.66307 0.73782 0.0
O343 O 0.52732 0.69087 0.72498 0.0
O344 O 0.51112 0.69679 0.61792 0.0
O345 O 0.53396 0.71874 0.68655 0.0
O346 O 0.57056 0.7157 0.7663 0.0
O347 O 0.57707 0.73511 0.67952 0.0
O348 O 0.55559 0.72052 0.56165 0.0
O349 O 0.54374 0.69254 0.57215 0.0
O350 O 0.56139 0.68661 0.6682 0.0
O351 O 0.53791 0.66541 0.59973 0.0
H352 H 0.47073 0.64673 0.69562 0.0
H353 H 0.4383 0.63252 0.71644 0.0
H354 H 0.42892 0.6238 0.48847 0.0
H355 H 0.46135 0.63745 0.46858 0.0
H356 H 0.60764 0.76604 0.76079 0.0
H357 H 0.63959 0.7781 0.78495 0.0
H358 H 0.63212 0.72455 0.76958 0.0
H359 H 0.59991 0.7125 0.74629 0.0
C360 C 0.06185 0.26576 0.9723 0.0
C361 C 0.06811 0.25449 0.94625 0.0
C362 C 0.07104 0.2842 0.95599 0.0
C363 C 0.10308 0.31662 0.82332 0.0
H364 H 0.11083 0.35273 0.96536 0.0
C365 C 0.15338 0.39195 0.77742 0.0
C366 C 0.14887 0.40468 0.80192 0.0
C367 C 0.14262 0.37372 0.79444 0.0
C368 C 0.10857 0.34281 0.92475 0.0
H369 H 0.08925 0.25399 0.88411 0.0
H370 H 0.10522 0.28592 0.85653 0.0
H371 H 0.09388 0.32086 -0.00242 0.0
H372 H 0.12935 0.40808 0.86352 0.0
H373 H 0.11039 0.37616 0.89242 0.0
H374 H 0.11779 0.33846 0.75057 0.0
C375 C 0.09306 0.28052 0.88847 0.0
C376 C 0.09886 0.32453 0.94328 0.0
C377 C 0.08393 0.26217 0.9048 0.0
C378 C 0.13316 0.39864 0.84328 0.0
C379 C 0.12239 0.38036 0.86053 0.0
C380 C 0.11275 0.33484 0.80482 0.0
C381 C 0.08665 0.29176 0.91308 0.0
C382 C 0.09619 0.31121 0.89301 0.0
C383 C 0.12702 0.36766 0.83647 0.0
C384 C 0.11583 0.34821 0.85547 0.0
H385 H 0.0497 0.26031 0.00429 0.0
H386 H 0.06568 0.29244 0.97554 0.0
H387 H 0.10095 0.30673 0.78274 0.0
H388 H 0.16526 0.39606 0.74475 0.0
H389 H 0.14674 0.36439 0.77559 0.0
C390 C 0.7965 0.81473 0.97686 0.0
C391 C 0.80776 0.83196 0.94796 0.0
C392 C 0.7781 0.80512 0.95976 0.0
C393 C 0.74612 0.8024 0.82056 0.0
H394 H 0.70943 0.77642 0.96422 0.0
C395 C 0.67096 0.77641 0.76544 0.0
C396 C 0.65801 0.75986 0.79515 0.0
C397 C 0.68916 0.78408 0.78339 0.0
C398 C 0.71951 0.78338 0.92317 0.0
H399 H 0.8083 0.85272 0.87962 0.0
H400 H 0.77644 0.83607 0.85037 0.0
H401 H 0.74119 0.79196 -0.00154 0.0
H402 H 0.65421 0.73831 0.86666 0.0
H403 H 0.68608 0.75152 0.89689 0.0
H404 H 0.72458 0.7939 0.74524 0.0
C405 C 0.78182 0.82985 0.88544 0.0
C406 C 0.73772 0.79232 0.94289 0.0
C407 C 0.80011 0.83946 0.90273 0.0
C408 C 0.66382 0.751 0.8423 0.0
C409 C 0.68208 0.75869 0.86034 0.0
C410 C 0.72796 0.79343 0.80082 0.0
C411 C 0.7706 0.81249 0.91302 0.0
C412 C 0.75124 0.80215 0.89198 0.0
C413 C 0.69498 0.7754 0.83145 0.0
C414 C 0.71438 0.78399 0.85198 0.0
H415 H 0.80192 0.80853 0.01185 0.0
H416 H 0.76985 0.79174 0.98171 0.0
H417 H 0.7562 0.80953 0.77964 0.0
H418 H 0.66703 0.78352 0.72827 0.0
H419 H 0.69863 0.79704 0.76063 0.0
C420 C 0.22248 0.97917 0.91238 0.0
C421 C 0.23066 0.99541 0.95108 0.0
C422 C 0.23177 0.97 0.89841 0.0
C423 C 0.27758 0.97623 0.8862 0.0
H424 H 0.25183 0.9241 0.89529 0.0
C425 C 0.30699 0.933 0.77533 0.0
C426 C 0.30368 0.9177 0.81502 0.0
C427 C 0.29871 0.94295 0.7942 0.0
C428 C 0.2593 0.93866 0.89305 0.0
H429 H 0.25511 1.01464 0.00587 0.0
H430 H 0.27131 0.99849 0.98194 0.0
H431 H 0.23639 0.94042 0.92661 0.0
H432 H 0.28891 0.90085 0.90553 0.0
H433 H 0.27484 0.91833 0.93909 0.0
H434 H 0.30057 0.97441 0.8534 0.0
C435 C 0.25772 0.99298 0.96177 0.0
C436 C 0.25037 0.94803 0.91026 0.0
C437 C 0.24838 1.00218 0.97594 0.0
C438 C 0.29198 0.91268 0.87424 0.0
C439 C 0.28371 0.92259 0.89299 0.0
C440 C 0.28653 0.96684 0.8688 0.0
C441 C 0.24952 0.97677 0.92272 0.0
C442 C 0.25934 0.96693 0.90677 0.0
C443 C 0.28686 0.93779 0.85302 0.0
C444 C 0.27748 0.94792 0.8719 0.0
H445 H 0.20889 0.97354 0.89209 0.0
H446 H 0.22511 0.95772 0.86728 0.0
H447 H 0.28487 0.99077 0.88226 0.0
H448 H 0.31602 0.93734 0.72977 0.0
H449 H 0.30132 0.95448 0.7618 0.0
C450 C 0.4672 0.17445 0.24724 0.0
C451 C 0.47555 0.16475 0.26964 0.0
C452 C 0.44878 0.16558 0.23158 0.0
C453 C 0.41048 0.12106 0.18142 0.0
H454 H 0.38195 0.14256 0.23748 0.0
C455 C 0.33262 0.08499 0.14569 0.0
C456 C 0.32526 0.09571 0.12479 0.0
C457 C 0.35094 0.09287 0.16307 0.0
C458 C 0.38974 0.13645 0.22065 0.0
H459 H 0.47088 0.138 0.29365 0.0
H460 H 0.43872 0.12257 0.26681 0.0
H461 H 0.41365 0.15723 0.27014 0.0
H462 H 0.33169 0.12309 0.1023 0.0
H463 H 0.36346 0.13676 0.13226 0.0
H464 H 0.38652 0.10029 0.13166 0.0
C465 C 0.4465 0.13705 0.26065 0.0
C466 C 0.40795 0.14487 0.23949 0.0
C467 C 0.46494 0.14594 0.27656 0.0
C468 C 0.33679 0.11444 0.11972 0.0
C469 C 0.35504 0.1223 0.13702 0.0
C470 C 0.39223 0.11262 0.16251 0.0
C471 C 0.43819 0.14676 0.23775 0.0
C472 C 0.41861 0.13737 0.2197 0.0
C473 C 0.36233 0.11167 0.1599 0.0
C474 C 0.38166 0.12029 0.18139 0.0
H475 H 0.4749 0.18893 0.24105 0.0
H476 H 0.44291 0.17348 0.21323 0.0
H477 H 0.41833 0.11501 0.16454 0.0
H478 H 0.32412 0.07054 0.15076 0.0
H479 H 0.35605 0.08428 0.18095 0.0
C480 C 0.91582 0.33665 0.30356 0.0
C481 C 0.89808 0.32982 0.27878 0.0
C482 C 0.92519 0.32749 0.28939 0.0
C483 C 0.91793 0.28255 0.23839 0.0
H484 H 0.96811 0.30897 0.18119 0.0
C485 C 0.95969 0.24734 0.20324 0.0
C486 C 0.97136 0.25231 0.14392 0.0
C487 C 0.95139 0.25723 0.22176 0.0
C488 C 0.95407 0.30139 0.19669 0.0
H489 H 0.87633 0.30792 0.2199 0.0
H490 H 0.89262 0.29216 0.1951 0.0
H491 H 0.95235 0.3253 0.20977 0.0
H492 H 0.98359 0.27184 0.05822 0.0
H493 H 0.96884 0.28895 0.08986 0.0
H494 H 0.91945 0.25865 0.22383 0.0
C495 C 0.89926 0.30445 0.22615 0.0
C496 C 0.94509 0.31076 0.21391 0.0
C497 C 0.88993 0.31358 0.24011 0.0
C498 C 0.97459 0.26754 0.10388 0.0
C499 C 0.96628 0.27747 0.12252 0.0
C500 C 0.92689 0.2732 0.22135 0.0
C501 C 0.91702 0.31127 0.25043 0.0
C502 C 0.92687 0.30145 0.2346 0.0
C503 C 0.95447 0.27236 0.18144 0.0
C504 C 0.94506 0.28248 0.2001 0.0
H505 H 0.92252 0.34912 0.33345 0.0
H506 H 0.93879 0.33304 0.30951 0.0
H507 H 0.90396 0.27493 0.25484 0.0
H508 H 0.95667 0.23557 0.23481 0.0
H509 H 0.94255 0.25302 0.26795 0.0
C510 C 0.79542 0.73041 0.17807 0.0
C511 C 0.81026 0.73685 0.13135 0.0
C512 C 0.78544 0.71211 0.19588 0.0
C513 C 0.77628 0.66695 0.13589 0.0
H514 H 0.75968 0.65282 0.33122 0.0
C515 C 0.74883 0.59422 0.23427 0.0
C516 C 0.73332 0.5865 0.27763 0.0
C517 C 0.75783 0.61258 0.21813 0.0
C518 C 0.76405 0.65653 0.27626 0.0
H519 H 0.82634 0.72901 0.06762 0.0
H520 H 0.80908 0.69723 0.09878 0.0
H521 H 0.77587 0.68467 0.29886 0.0
H522 H 0.71538 0.5923 0.3393 0.0
H523 H 0.73115 0.62444 0.31101 0.0
H524 H 0.76463 0.63886 0.11342 0.0
C525 C 0.80488 0.70623 0.12063 0.0
C526 C 0.77332 0.67481 0.25761 0.0
C527 C 0.8148 0.7245 0.10268 0.0
C528 C 0.72728 0.59776 0.30579 0.0
C529 C 0.73636 0.61621 0.28976 0.0
C530 C 0.76708 0.64872 0.15457 0.0
C531 C 0.79008 0.69977 0.16759 0.0
C532 C 0.77968 0.68028 0.18724 0.0
C533 C 0.75162 0.6238 0.24496 0.0
C534 C 0.76096 0.64326 0.2251 0.0
H535 H 0.79141 0.73951 0.20048 0.0
H536 H 0.77398 0.70761 0.2313 0.0
H537 H 0.78062 0.67058 0.08087 0.0
H538 H 0.75396 0.58603 0.21185 0.0
H539 H 0.76972 0.61801 0.18456 0.0
C540 C 0.13018 0.48156 0.63471 0.0
C541 C 0.14232 0.4983 0.60391 0.0
C542 C 0.11193 0.4726 0.61582 0.0
C543 C 0.08095 0.47025 0.47248 0.0
H544 H 0.04408 0.44674 0.61783 0.0
C545 C 1.00574 0.44473 0.41574 0.0
C546 C 0.99276 0.42858 0.44813 0.0
C547 C 1.02398 0.45245 0.43338 0.0
C548 C 0.05419 0.453 0.57635 0.0
H549 H 0.14463 0.51876 0.52924 0.0
H550 H 0.11288 0.50322 0.49683 0.0
H551 H 0.07576 0.4618 0.65204 0.0
H552 H 0.98893 0.40781 0.52403 0.0
H553 H 1.02079 0.4211 0.55376 0.0
H554 H 0.05943 0.4615 0.39679 0.0
C555 C 0.1175 0.49691 0.53502 0.0
C556 C 0.07238 0.46167 0.59603 0.0
C557 C 0.13572 0.50589 0.55406 0.0
C558 C 0.99855 0.42017 0.49759 0.0
C559 C 1.01682 0.42792 0.51532 0.0
C560 C 0.06278 0.46155 0.45279 0.0
C561 C 0.10537 0.48012 0.56543 0.0
C562 C 0.086 0.47051 0.54441 0.0
C563 C 0.02976 0.44424 0.48386 0.0
C564 C 0.04914 0.45291 0.5045 0.0
H565 H 0.13477 0.47527 0.67315 0.0
H566 H 0.10301 0.45962 0.63979 0.0
H567 H 0.09108 0.47663 0.43111 0.0
H568 H 1.00181 0.45148 0.37679 0.0
H569 H 0.03349 0.4651 0.40852 0.0
C570 C 0.55599 0.64614 0.57446 0.0
C571 C 0.5637 0.66163 0.61772 0.0
C572 C 0.56559 0.63746 0.55735 0.0
C573 C 0.60373 0.63175 0.61258 0.0
H574 H 0.60094 0.6157 0.41632 0.0
C575 C 0.64549 0.59991 0.5106 0.0
C576 C 0.6368 0.58518 0.46364 0.0
C577 C 0.63744 0.61007 0.52932 0.0
C578 C 0.60173 0.6199 0.47156 0.0
H579 H 0.58752 0.67988 0.67833 0.0
H580 H 0.60432 0.66462 0.64843 0.0
H581 H 0.58529 0.63162 0.4506 0.0
H582 H 0.61266 0.56946 0.40054 0.0
H583 H 0.59861 0.58702 0.4333 0.0
H584 H 0.61999 0.61979 0.63371 0.0
C585 C 0.59078 0.65921 0.62793 0.0
C586 C 0.59276 0.62907 0.49121 0.0
C587 C 0.58116 0.66798 0.64489 0.0
C588 C 0.6199 0.58092 0.43572 0.0
C589 C 0.61183 0.59101 0.45458 0.0
C590 C 0.61267 0.62249 0.59296 0.0
C591 C 0.58318 0.64398 0.58312 0.0
C592 C 0.59348 0.63495 0.56211 0.0
C593 C 0.62046 0.60572 0.50172 0.0
C594 C 0.61164 0.61628 0.52229 0.0
H595 H 0.54255 0.64075 0.55281 0.0
H596 H 0.55919 0.62557 0.52386 0.0
H597 H 0.60443 0.63596 0.66777 0.0
H598 H 0.65861 0.60369 0.53249 0.0
H599 H 0.64461 0.62144 0.56491 0.0
C600 C 0.47898 0.05623 0.4264 0.0
C601 C 0.4769 0.06947 0.46218 0.0
C602 C 0.46908 0.03819 0.44716 0.0
C603 C 0.44215 1.00819 0.59754 0.0
H604 H 0.42629 0.9716 0.44994 0.0
C605 C 0.39521 0.93125 0.65094 0.0
C606 C 0.40014 0.91976 0.61659 0.0
C607 C 0.40419 0.94972 0.63517 0.0
C608 C 0.43073 0.98165 0.49189 0.0
H609 H 0.4627 0.07407 0.54814 0.0
H610 H 0.44507 0.04244 0.58376 0.0
H611 H 0.44213 1.00322 0.41618 0.0
H612 H 0.41866 0.91887 0.5396 0.0
H613 H 0.43414 0.95086 0.51224 0.0
H614 H 0.43044 0.98638 0.67309 0.0
C615 C 0.45463 0.04607 0.54024 0.0
C616 C 0.43988 0.99982 0.47258 0.0
C617 C 0.46469 0.06421 0.51972 0.0
C618 C 0.41443 0.92724 0.56706 0.0
C619 C 0.42326 0.9456 0.55093 0.0
C620 C 0.43282 0.98994 0.61684 0.0
C621 C 0.45665 0.03279 0.50405 0.0
C622 C 0.44598 1.01339 0.5251 0.0
C623 C 0.41815 0.95705 0.58418 0.0
C624 C 0.42724 0.97646 0.56424 0.0
H625 H 0.48856 0.05986 0.38289 0.0
H626 H 0.47139 0.0285 0.41907 0.0
H627 H 0.44677 0.0182 0.6396 0.0
H628 H 0.38427 0.92596 0.68938 0.0
H629 H 0.39989 0.95818 0.66151 0.0
C630 C 0.16104 0.05168 0.93765 0.0
C631 C 0.17682 0.0576 0.97838 0.0
C632 C 0.1526 0.06198 0.93348 0.0
C633 C 0.14866 0.09803 0.02492 0.0
H634 H 0.13121 0.10338 0.84005 0.0
C635 C 0.1222 0.14752 0.97891 0.0
C636 C 0.10749 0.14216 0.93233 0.0
C637 C 0.13056 0.13717 0.98588 0.0
C638 C 0.13576 0.10184 0.89233 0.0
H639 H 0.19595 0.07901 0.04731 0.0
H640 H 0.18119 0.09699 0.03991 0.0
H641 H 0.14591 0.08548 0.85 0.0
H642 H 0.08975 0.12144 0.85803 0.0
H643 H 0.10413 0.10325 0.87082 0.0
H644 H 0.13839 0.11429 0.0674 0.0
C645 C 0.17531 0.08429 0.01155 0.0
C646 C 0.14423 0.09159 0.89798 0.0
C647 C 0.18382 0.07401 0.01549 0.0
C648 C 0.10122 0.12608 0.89356 0.0
C649 C 0.10951 0.11568 0.9008 0.0
C650 C 0.14009 0.10823 0.01934 0.0
C651 C 0.15965 0.07845 0.9701 0.0
C652 C 0.15077 0.08952 0.96434 0.0
C653 C 0.12438 0.12114 0.9467 0.0
C654 C 0.1335 0.11026 0.95295 0.0
H655 H 0.15521 0.0391 0.90847 0.0
H656 H 0.14042 0.05696 0.90191 0.0
H657 H 0.15333 0.09654 0.077 0.0
H658 H 0.12753 0.15996 0.00881 0.0
H659 H 0.14213 0.14197 0.02087 0.0
C660 C 0.91494 0.99592 0.89185 0.0
C661 C 0.91891 0.98439 0.93154 0.0
C662 C 0.92519 1.0146 0.90026 0.0
C663 C 0.96949 0.05081 0.96563 0.0
H664 H 0.94623 0.07956 0.95794 0.0
C665 C 1.01004 0.12828 0.93959 0.0
C666 C 1.00398 0.13845 0.97713 0.0
C667 C 0.99966 0.1095 0.93718 0.0
C668 C 0.95295 0.07175 0.96096 0.0
H669 H 0.93695 0.98367 0.01123 0.0
H670 H 0.95453 1.01619 0.02715 0.0
H671 H 0.92811 0.04691 0.94972 0.0
H672 H 0.98219 0.13669 0.04217 0.0
H673 H 0.96418 0.10392 0.0387 0.0
H674 H 0.9943 0.07562 0.97824 0.0
C675 C 0.94361 1.01078 -0.01129 0.0
C676 C 0.94256 0.053 0.95528 0.0
C677 C 0.93338 0.99208 0.98019 0.0
C678 C 0.98727 0.12932 0.01253 0.0
C679 C 0.97688 0.11051 0.0102 0.0
C680 C 0.97988 0.06955 0.97141 0.0
C681 C 0.93968 0.02231 0.94879 0.0
C682 C 0.9507 0.04227 0.95705 0.0
C683 C 0.98292 0.10034 0.97236 0.0
C684 C 0.97177 0.0803 0.96866 0.0
H685 H 0.90376 0.99052 0.85462 0.0
H686 H 0.92187 0.02301 0.86792 0.0
H687 H 0.97628 0.04304 0.96658 0.0
H688 H 1.0228 0.13482 0.9114 0.0
H689 H 1.00464 0.10219 0.90657 0.0
C690 C 0.93314 0.87763 0.015 0.0
C691 C 0.92384 0.88486 0.97865 0.0
C692 C 0.95196 0.88605 0.01116 0.0
C693 C 0.99058 0.91748 0.89887 0.0
H694 H 1.01898 0.92247 0.06792 0.0
C695 C 0.06822 0.96041 0.89573 0.0
C696 C 0.078 0.954 0.93393 0.0
C697 C 0.04949 0.95209 0.90274 0.0
C698 C 1.01126 0.92101 0.01994 0.0
H699 H 0.92717 0.9068 0.9102 0.0
H700 H 0.95984 0.92141 0.90382 0.0
H701 H 0.98624 0.90756 0.07722 0.0
H702 H 0.07567 0.93368 0.00912 0.0
H703 H 0.04302 0.91902 0.02075 0.0
H704 H 1.01548 0.93073 0.84131 0.0
C705 C 0.9526 0.90913 0.9347 0.0
C706 C 0.99247 0.91246 0.02535 0.0
C707 C 0.93383 0.90078 0.93878 0.0
C708 C 0.06858 0.93912 0.97967 0.0
C709 C 0.04984 0.93072 -0.0136 0.0
C710 C 1.00934 0.92594 0.89338 0.0
C711 C 0.96191 0.90185 0.97057 0.0
C712 C 0.9819 0.91067 0.96493 0.0
C713 C 0.04001 0.93704 0.94781 0.0
C714 C 1.01997 0.9279 0.95387 0.0
H715 H 0.9259 0.86539 0.04616 0.0
H716 H 0.95869 0.87999 0.03894 0.0
H717 H 0.98284 0.91606 0.85098 0.0
H718 H 0.07508 0.97201 0.86087 0.0
H719 H 0.04247 0.95758 0.87323 0.0
C720 C 0.78934 0.47936 0.22213 0.0
C721 C 0.77362 0.47522 0.26064 0.0
C722 C 0.79781 0.4692 0.23135 0.0
C723 C 0.78967 0.42492 0.29654 0.0
H724 H 0.8418 0.44855 0.29323 0.0
C725 C 0.82741 0.38516 0.27276 0.0
C726 C 0.84351 0.39129 0.31141 0.0
C727 C 0.8188 0.39533 0.27019 0.0
C728 C 0.82723 0.44173 0.29505 0.0
H729 H 0.75451 0.45697 0.33905 0.0
H730 H 0.76954 0.43952 0.35641 0.0
H731 H 0.8271 0.46647 0.28369 0.0
H732 H 0.86304 0.4129 0.37849 0.0
H733 H 0.8479 0.43051 0.37476 0.0
H734 H 0.78981 0.40021 0.30924 0.0
C735 C 0.77518 0.45051 0.31827 0.0
C736 C 0.81878 0.452 0.2886 0.0
C737 C 0.76667 0.46067 0.30892 0.0
C738 C 0.8507 0.40778 0.34798 0.0
C739 C 0.84206 0.41795 0.34549 0.0
C740 C 0.79812 0.41465 0.3031 0.0
C741 C 0.79087 0.45463 0.27955 0.0
C742 C 0.79988 0.44373 0.28874 0.0
C743 C 0.82603 0.41189 0.3063 0.0
C744 C 0.81702 0.4229 0.30194 0.0
H745 H 0.79525 0.49061 0.18523 0.0
H746 H 0.80973 0.47265 0.19992 0.0
H747 H 0.7751 0.41804 0.29624 0.0
H748 H 0.82149 0.37256 0.2437 0.0
H749 H 0.80663 0.39034 0.2386 0.0
C750 C 0.65231 0.46134 0.34253 0.0
C751 C 0.66874 0.47046 0.30515 0.0
C752 C 0.64163 0.44256 0.33869 0.0
C753 C 0.63321 0.40378 0.22529 0.0
H754 H 0.6101 0.37556 0.39521 0.0
C755 C 0.597 0.32608 0.22219 0.0
C756 C 0.58102 0.31651 0.26198 0.0
C757 C 0.6077 0.34478 0.22868 0.0
C758 C 0.61625 0.38322 0.34699 0.0
H759 H 0.68682 0.46683 0.23474 0.0
H760 H 0.66825 0.4342 0.22827 0.0
H761 H 0.62857 0.40822 0.40431 0.0
H762 H 0.56369 0.31922 0.33943 0.0
H763 H 0.58217 0.35184 0.35011 0.0
H764 H 0.6208 0.37891 0.16769 0.0
C765 C 0.66353 0.44157 0.26005 0.0
C766 C 0.62688 0.40198 0.35228 0.0
C767 C 0.67425 0.46031 0.26416 0.0
C768 C 0.57603 0.32613 0.30867 0.0
C769 C 0.58668 0.34486 0.31487 0.0
C770 C 0.62252 0.38506 0.21991 0.0
C771 C 0.64706 0.43245 0.29703 0.0
C772 C 0.63555 0.41249 0.29153 0.0
C773 C 0.60265 0.35447 0.27483 0.0
C774 C 0.61393 0.37449 0.28071 0.0
H775 H 0.64762 0.46869 0.37458 0.0
H776 H 0.62894 0.43599 0.36733 0.0
H777 H 0.63944 0.41147 0.17717 0.0
H778 H 0.60139 0.31906 0.1866 0.0
H779 H 0.62006 0.35161 0.19803 0.0
C780 C 0.6014 0.23305 0.26499 0.0
C781 C 0.59122 0.21781 0.30819 0.0
C782 C 0.62015 0.24125 0.26217 0.0
C783 C 0.65983 0.24615 0.35915 0.0
H784 H 0.68274 0.26093 0.17291 0.0
C785 C 0.73627 0.27336 0.31667 0.0
C786 C 0.74532 0.28735 0.26669 0.0
C787 C 0.71751 0.26475 0.32376 0.0
C788 C 0.67662 0.25712 0.22551 0.0
H789 H 0.59293 0.19944 0.38342 0.0
H790 H 0.62578 0.21383 0.37844 0.0
H791 H 0.6501 0.24612 0.182 0.0
H792 H 0.74179 0.30363 0.18667 0.0
H793 H 0.70918 0.28883 0.19957 0.0
H794 H 0.68641 0.25733 0.40274 0.0
C795 C 0.61916 0.21943 0.34691 0.0
C796 C 0.65787 0.24858 0.23068 0.0
C797 C 0.60033 0.21114 0.34949 0.0
C798 C 0.73521 0.29271 0.22483 0.0
C799 C 0.71648 0.28417 0.23216 0.0
C800 C 0.67865 0.25479 0.35403 0.0
C801 C 0.62927 0.23449 0.30264 0.0
C802 C 0.64924 0.24308 0.29756 0.0
C803 C 0.70735 0.26996 0.28125 0.0
C804 C 0.6873 0.2605 0.28713 0.0
H805 H 0.59491 0.23865 0.23262 0.0
H806 H 0.62752 0.253 0.22843 0.0
H807 H 0.65362 0.24224 0.41155 0.0
H808 H 0.74364 0.26876 0.34915 0.0
H809 H 0.71096 0.25372 0.36144 0.0
C810 C 0.49366 0.71736 0.60767 0.0
C811 C 0.50945 0.72333 0.64833 0.0
C812 C 0.48519 0.72764 0.60335 0.0
C813 C 0.48125 0.76378 0.69423 0.0
H814 H 0.46361 0.76884 0.50937 0.0
C815 C 0.45459 0.8131 0.64763 0.0
C816 C 0.43984 0.80766 0.60122 0.0
C817 C 0.46301 0.80279 0.65467 0.0
C818 C 0.46822 0.76739 0.56165 0.0
H819 H 0.52859 0.7448 0.717 0.0
H820 H 0.51379 0.76275 0.70935 0.0
H821 H 0.47836 0.75099 0.51957 0.0
H822 H 0.42209 0.78684 0.52725 0.0
H823 H 0.43656 0.76875 0.54014 0.0
H824 H 0.47099 0.78006 0.73646 0.0
C825 C 0.50791 0.75003 0.68115 0.0
C826 C 0.47672 0.75716 0.56745 0.0
C827 C 0.51645 0.73977 0.68524 0.0
C828 C 0.43358 0.79156 0.56265 0.0
C829 C 0.44193 0.7812 0.56995 0.0
C830 C 0.47266 0.77395 0.68851 0.0
C831 C 0.49224 0.74414 0.63975 0.0
C832 C 0.48332 0.75519 0.63381 0.0
C833 C 0.45683 0.78673 0.61572 0.0
C834 C 0.466 0.77588 0.62212 0.0
H835 H 0.48783 0.70476 0.57864 0.0
H836 H 0.47301 0.72258 0.57182 0.0
H837 H 0.48598 0.76236 0.74632 0.0
H838 H 0.45992 0.82556 0.67738 0.0
H839 H 0.4746 0.80765 0.68956 0.0
C840 C 0.24362 0.66141 0.56076 0.0
C841 C 0.24816 0.64982 0.59681 0.0
C842 C 0.25423 0.6801 0.56799 0.0
C843 C 0.29992 0.71608 0.6229 0.0
H844 H 0.27719 0.74533 0.62886 0.0
C845 C 0.34112 0.79367 0.60229 0.0
C846 C 0.33563 0.80379 0.6435 0.0
C847 C 0.33048 0.77492 0.59853 0.0
C848 C 0.28378 0.73738 0.62802 0.0
H849 H 0.26769 0.64906 0.66844 0.0
H850 H 0.28584 0.68154 0.68271 0.0
H851 H 0.25862 0.71274 0.62042 0.0
H852 H 0.31463 0.80198 0.71374 0.0
H853 H 0.29624 0.76928 0.70816 0.0
H854 H 0.32504 0.74067 0.63232 0.0
C855 C 0.27419 0.67618 0.64791 0.0
C856 C 0.27311 0.71866 0.62216 0.0
C857 C 0.26361 0.65749 0.64045 0.0
C858 C 0.31926 0.79465 0.68122 0.0
C859 C 0.30864 0.77587 0.67766 0.0
C860 C 0.31057 0.73479 0.629 0.0
C861 C 0.26967 0.68777 0.61172 0.0
C862 C 0.28103 0.70773 0.61919 0.0
C863 C 0.31408 0.76574 0.6361 0.0
C864 C 0.30267 0.74573 0.6313 0.0
H865 H 0.23171 0.65605 0.5274 0.0
H866 H 0.25042 0.68855 0.53853 0.0
H867 H 0.30654 0.70818 0.62002 0.0
H868 H 0.35359 0.80022 0.57218 0.0
H869 H 0.335 0.76766 0.56505 0.0
C870 C 0.40392 0.62437 0.66909 0.0
C871 C 0.41107 0.6179 0.61673 0.0
C872 C 0.38531 0.61596 0.68047 0.0
C873 C 0.34225 0.57345 0.64525 0.0
H874 H 0.32105 0.60342 0.67938 0.0
C875 C 0.26569 0.54313 0.69794 0.0
C876 C 0.25744 0.55172 0.66355 0.0
C877 C 0.2845 0.55107 0.6986 0.0
C878 C 0.32671 0.59483 0.66957 0.0
H879 H 0.40407 0.59717 0.53635 0.0
H880 H 0.3717 0.58293 0.5545 0.0
H881 H 0.35352 0.61731 0.66639 0.0
H882 H 0.26264 0.57555 0.60354 0.0
H883 H 0.29514 0.58911 0.6039 0.0
H884 H 0.31533 0.55103 0.64572 0.0
C885 C 0.38048 0.59436 0.58761 0.0
C886 C 0.34541 0.6028 0.66301 0.0
C887 C 0.39908 0.60272 0.57642 0.0
C888 C 0.26846 0.56851 0.63076 0.0
C889 C 0.28718 0.5764 0.63138 0.0
C890 C 0.32352 0.56548 0.65162 0.0
C891 C 0.37332 0.60088 0.63966 0.0
C892 C 0.35344 0.59225 0.65003 0.0
C893 C 0.29549 0.56778 0.66498 0.0
C894 C 0.31549 0.57608 0.66303 0.0
H895 H 0.41268 0.63611 0.70075 0.0
H896 H 0.38034 0.62125 0.72159 0.0
H897 H 0.34795 0.56486 0.63634 0.0
H898 H 0.25764 0.53022 0.72385 0.0
H899 H 0.29044 0.54413 0.72569 0.0
C900 C 1.0108 0.1838 0.73473 0.0
C901 C 1.02577 0.19322 0.77963 0.0
C902 C 1.01312 0.18345 0.66073 0.0
C903 C 0.04713 0.19104 0.52254 0.0
H904 H 1.01534 0.19836 0.39692 0.0
C905 C 0.06155 0.20622 0.22088 0.0
C906 C 0.04686 0.19705 0.17437 0.0
C907 C 0.05883 0.20543 0.29494 0.0
C908 C 1.02421 0.19612 0.43129 0.0
H909 H 0.0549 0.20935 0.78326 0.0
H910 H 0.05897 0.20893 0.65419 0.0
H911 H 1.01067 0.19696 0.52622 0.0
H912 H 1.01787 0.17988 0.16817 0.0
H913 H 1.0131 0.17854 0.29741 0.0
H914 H 0.06075 0.19035 0.42753 0.0
C915 C 0.04544 0.20166 0.67586 0.0
C916 C 1.02151 0.19527 0.50531 0.0
C917 C 0.04311 0.202 0.74972 0.0
C918 C 0.02942 0.18719 0.20291 0.0
C919 C 0.02669 0.18646 0.27684 0.0
C920 C 0.04985 0.19192 0.44853 0.0
C921 C 0.03047 0.1925 0.63048 0.0
C922 C 0.03298 0.19278 0.55175 0.0
C923 C 0.04136 0.19551 0.32364 0.0
C924 C 0.03845 0.19452 0.40218 0.0
H925 H 0.99729 0.17683 0.75666 0.0
H926 H 1.00134 0.17606 0.62722 0.0
H927 H 0.05603 0.18884 0.55688 0.0
H928 H 0.07513 0.21394 0.20008 0.0
H929 H 0.07037 0.21272 0.3297 0.0
C930 C 0.8776 0.84534 0.73658 0.0
C931 C 0.8685 0.85112 0.78215 0.0
C932 C 0.87757 0.84777 0.66251 0.0
C933 C 0.85158 0.85428 0.52079 0.0
H934 H 0.89484 0.87033 0.40724 0.0
C935 C 0.85554 0.87398 0.22297 0.0
C936 C 0.86477 0.86849 0.17674 0.0
C937 C 0.85602 0.8718 0.29699 0.0
C938 C 0.8826 0.86564 0.43812 0.0
H939 H 0.85263 0.86436 0.78688 0.0
H940 H 0.85266 0.8687 0.65775 0.0
H941 H 0.89596 0.86686 0.53664 0.0
H942 H 0.88162 0.85634 0.17091 0.0
H943 H 0.8822 0.85223 0.30002 0.0
H944 H 0.83818 0.85298 0.42242 0.0
C945 C 0.85958 0.86205 0.6789 0.0
C946 C 0.88325 0.86367 0.51218 0.0
C947 C 0.85965 0.85965 0.7528 0.0
C948 C 0.87438 0.86068 0.2055 0.0
C949 C 0.87483 0.85846 0.27941 0.0
C950 C 0.85091 0.85621 0.44677 0.0
C951 C 0.8684 0.85599 0.63291 0.0
C952 C 0.86776 0.85801 0.55427 0.0
C953 C 0.86572 0.86407 0.32601 0.0
C954 C 0.86641 0.86194 0.40463 0.0
H955 H 0.88454 0.83874 0.75804 0.0
H956 H 0.88437 0.84285 0.62831 0.0
H957 H 0.83934 0.84961 0.55171 0.0
H958 H 0.84808 0.88008 0.20202 0.0
H959 H 0.84904 0.87645 0.33155 0.0
C960 C 0.21683 0.05157 0.7366 0.0
C961 C 0.21113 0.0367 0.78224 0.0
C962 C 0.21437 0.0491 0.66257 0.0
C963 C 0.20794 1.01664 0.52097 0.0
H964 H 0.19175 0.04371 0.40752 0.0
C965 C 0.18827 1.00086 0.22337 0.0
C966 C 0.19375 1.01557 0.17705 0.0
C967 C 0.19042 1.00352 0.29737 0.0
C968 C 0.19648 0.0362 0.43838 0.0
H969 H 0.19799 1.0076 0.78718 0.0
H970 H 0.19358 1.00325 0.6581 0.0
H971 H 0.19521 0.04828 0.53691 0.0
H972 H 0.20587 0.04458 0.17101 0.0
H973 H 0.20992 0.04928 0.30014 0.0
H974 H 0.2093 1.00461 0.42259 0.0
C975 C 0.2002 1.01683 0.67916 0.0
C976 C 0.19844 0.03881 0.51243 0.0
C977 C 0.20264 0.01931 0.75303 0.0
C978 C 0.20152 0.033 0.20569 0.0
C979 C 0.20371 0.03567 0.2796 0.0
C980 C 0.20601 1.01405 0.44696 0.0
C981 C 0.20619 0.0317 0.63309 0.0
C982 C 0.20415 0.02903 0.55448 0.0
C983 C 0.19811 0.02096 0.32628 0.0
C984 C 0.20024 0.02378 0.40487 0.0
H985 H 0.22339 0.06512 0.75797 0.0
H986 H 0.21924 0.06081 0.62831 0.0
H987 H 0.21265 1.00912 0.55185 0.0
H988 H 0.18219 0.98729 0.20251 0.0
H989 H 0.18578 0.9919 0.33199 0.0
C990 C 0.72687 0.53823 0.55036 0.0
C991 C 0.71211 0.52905 0.5042 0.0
C992 C 0.72423 0.53782 0.62438 0.0
C993 C 0.69136 0.51159 0.76601 0.0
H994 H 0.71892 0.55491 0.87854 0.0
C995 C 0.67616 0.51705 0.06415 0.0
C996 C 0.69108 0.52609 0.10968 0.0
C997 C 0.67861 0.51702 -0.00991 0.0
C998 C 0.71126 0.54265 0.84792 0.0
H999 H 0.68306 0.51233 0.49855 0.0
H1000 H 0.67841 0.51188 0.62764 0.0
H1001 H 0.72345 0.55586 0.74929 0.0
H1002 H 0.72023 0.5418 0.1143 0.0
H1003 H 0.72452 0.54165 0.98521 0.0
H1004 H 0.67912 0.49842 0.86479 0.0
C1005 C 0.69203 0.51916 0.60699 0.0
C1006 C 0.71386 0.5432 0.77392 0.0
C1007 C 0.69468 0.51954 0.53306 0.0
C1008 C 0.70848 0.53484 0.08027 0.0
C1009 C 0.71093 0.53483 0.00638 0.0
C1010 C 0.68873 0.51106 0.84005 0.0
C1011 C 0.70678 0.52824 0.65351 0.0
C1012 C 0.70396 0.52767 0.73214 0.0
C1013 C 0.69603 0.52605 0.96043 0.0
C1014 C 0.69869 0.52657 0.88178 0.0
H1015 H 0.74045 0.54562 0.52934 0.0
H1016 H 0.73588 0.54478 0.65886 0.0
H1017 H 0.68372 0.49933 0.73544 0.0
H1018 H 0.66261 0.51019 0.08565 0.0
H1019 H 0.66687 0.51025 0.95594 0.0
C1020 C 0.53781 0.21508 0.54719 0.0
C1021 C 0.54062 0.20395 0.50052 0.0
C1022 C 0.53909 0.21357 0.62115 0.0
C1023 C 0.53948 0.18278 0.76043 0.0
H1024 H 0.55717 0.22526 0.88003 0.0
C1025 C 0.55267 0.18269 0.06402 0.0
C1026 C 0.54327 0.18882 0.10611 0.0
C1027 C 0.55395 0.1854 -0.01006 0.0
C1028 C 0.55222 0.21333 0.84708 0.0
H1029 H 0.54803 0.1834 0.49287 0.0
H1030 H 0.5507 0.18089 0.622 0.0
H1031 H 0.5565 0.22818 0.75013 0.0
H1032 H 0.52826 0.20297 0.10475 0.0
H1033 H 0.53101 0.2082 0.97531 0.0
H1034 H 0.53561 0.16807 0.85793 0.0
C1035 C 0.54673 0.19025 0.60224 0.0
C1036 C 0.55169 0.21493 0.77277 0.0
C1037 C 0.54513 0.19158 0.52829 0.0
C1038 C 0.53568 0.19822 0.07346 0.0
C1039 C 0.53726 0.20122 -0.00039 0.0
C1040 C 0.54031 0.18125 0.83463 0.0
C1041 C 0.54365 0.20119 0.64969 0.0
C1042 C 0.54507 0.19963 0.72853 0.0
C1043 C 0.54615 0.19457 0.95718 0.0
C1044 C 0.54648 0.19647 0.87852 0.0
H1045 H 0.53439 0.22478 0.52645 0.0
H1046 H 0.5363 0.22198 0.65584 0.0
H1047 H 0.53402 0.17067 0.72839 0.0
H1048 H 0.55863 0.1754 0.08802 0.0
H1049 H 0.56094 0.18024 0.95814 0.0
C1050 C 0.85565 0.33496 0.55288 0.0
C1051 C 0.86121 0.34965 0.50634 0.0
C1052 C 0.85756 0.33767 0.62691 0.0
C1053 C 0.88274 0.37224 0.76333 0.0
H1054 H 0.84337 0.34046 0.88822 0.0
C1055 C 0.88314 0.38582 0.06595 0.0
C1056 C 0.87768 0.37092 0.11116 0.0
C1057 C 0.88057 0.38343 -0.00803 0.0
C1058 C 0.85453 0.34935 0.85406 0.0
H1059 H 0.87321 0.37864 0.49993 0.0
H1060 H 0.87654 0.38337 0.62916 0.0
H1061 H 0.84037 0.33571 0.75888 0.0
H1062 H 0.86492 0.34184 0.11544 0.0
H1063 H 0.86059 0.33764 -0.01367 0.0
H1064 H 0.89695 0.38581 0.85845 0.0
C1065 C 0.87085 0.3698 0.60865 0.0
C1066 C 0.85283 0.34661 0.78008 0.0
C1067 C 0.86888 0.36709 0.53475 0.0
C1068 C 0.86929 0.35356 0.08162 0.0
C1069 C 0.86671 0.35116 0.00777 0.0
C1070 C 0.88446 0.37496 0.8373 0.0
C1071 C 0.86513 0.35511 0.65551 0.0
C1072 C 0.86694 0.358 0.734 0.0
C1073 C 0.87246 0.36607 0.9621 0.0
C1074 C 0.87039 0.36351 0.88345 0.0
H1075 H 0.84973 0.32139 0.53215 0.0
H1076 H 0.85325 0.32612 0.66174 0.0
H1077 H 0.89393 0.3811 0.72917 0.0
H1078 H 0.88955 0.39934 0.08763 0.0
H1079 H 0.88491 0.39515 0.95817 0.0
C1080 C 0.3429 0.84943 0.40398 0.0
C1081 C 0.35787 0.85883 0.44888 0.0
C1082 C 0.34522 0.84905 0.32998 0.0
C1083 C 0.37921 0.85647 0.19194 0.0
H1084 H 0.3474 0.86362 0.06579 0.0
C1085 C 0.39357 0.87123 0.88998 0.0
C1086 C 0.37888 0.86205 0.84353 0.0
C1087 C 0.39086 0.87052 0.96403 0.0
C1088 C 0.35627 0.86142 0.10031 0.0
H1089 H 0.387 0.87493 0.45248 0.0
H1090 H 0.39106 0.87447 0.3234 0.0
H1091 H 0.34276 0.86241 0.19509 0.0
H1092 H 0.34988 0.84491 0.83743 0.0
H1093 H 0.34513 0.84369 0.96669 0.0
H1094 H 0.39281 0.85563 0.09709 0.0
C1095 C 0.37754 0.86722 0.34509 0.0
C1096 C 0.35359 0.86069 0.17433 0.0
C1097 C 0.37522 0.86759 0.41894 0.0
C1098 C 0.36143 0.85223 0.87213 0.0
C1099 C 0.35871 0.85157 0.94606 0.0
C1100 C 0.38191 0.85724 0.11793 0.0
C1101 C 0.36257 0.85806 0.2997 0.0
C1102 C 0.36507 0.85826 0.22098 0.0
C1103 C 0.3734 0.86066 -0.00718 0.0
C1104 C 0.3705 0.85978 0.07137 0.0
H1105 H 0.32939 0.84248 0.42593 0.0
H1106 H 0.33343 0.84167 0.2965 0.0
H1107 H 0.38812 0.85432 0.22642 0.0
H1108 H 0.40715 0.87892 0.86914 0.0
H1109 H 0.40241 0.87783 -0.00126 0.0
C1110 C 0.18816 0.52001 0.87546 0.0
C1111 C 0.20135 0.53626 0.84492 0.0
C1112 C 0.18767 0.51738 0.94951 0.0
C1113 C 0.21571 0.53429 0.11251 0.0
H1114 H 0.16966 0.51074 0.2107 0.0
C1115 C 0.21 0.53152 0.42089 0.0
C1116 C 0.19729 0.51498 0.45106 0.0
C1117 C 0.21038 0.53422 0.34692 0.0
C1118 C 0.18261 0.51718 0.18392 0.0
H1119 H 0.22428 0.56255 0.86727 0.0
H1120 H 0.2233 0.5581 -0.00321 0.0
H1121 H 0.17063 0.51518 0.08128 0.0
H1122 H 0.17493 0.48837 0.42831 0.0
H1123 H 0.17563 0.49303 0.29888 0.0
H1124 H 0.22769 0.53634 0.21525 0.0
C1125 C 0.21351 0.54726 0.9636 0.0
C1126 C 0.18317 0.5197 0.10979 0.0
C1127 C 0.21401 0.54987 0.88955 0.0
C1128 C 0.18487 0.50124 0.40626 0.0
C1129 C 0.18521 0.50395 0.33231 0.0
C1130 C 0.21515 0.5318 0.18665 0.0
C1131 C 0.20032 0.53099 -0.00555 0.0
C1132 C 0.19973 0.52828 0.07323 0.0
C1133 C 0.19802 0.52045 0.30181 0.0
C1134 C 0.1986 0.52321 0.22314 0.0
H1135 H 0.17814 0.50936 0.84222 0.0
H1136 H 0.17746 0.50462 0.97148 0.0
H1137 H 0.22867 0.54069 0.08581 0.0
H1138 H 0.21975 0.54232 0.45434 0.0
H1139 H 0.22027 0.54714 0.3251 0.0
C1140 C 0.53521 0.68517 0.42268 0.0
C1141 C 0.5437 0.70257 0.45185 0.0
C1142 C 0.53281 0.68269 0.34882 0.0
C1143 C 0.53111 0.70461 0.18195 0.0
H1144 H 0.54215 0.67048 0.09261 0.0
C1145 C 0.53442 0.69879 0.87545 0.0
C1146 C 0.52666 0.68137 0.84686 0.0
C1147 C 0.53657 0.70147 0.94935 0.0
C1148 C 0.53882 0.6799 0.11685 0.0
H1149 H 0.55597 0.73099 0.42754 0.0
H1150 H 0.55186 0.72667 0.29786 0.0
H1151 H 0.54542 0.67502 0.22188 0.0
H1152 H 0.51511 0.65308 0.87233 0.0
H1153 H 0.51865 0.6577 0.00183 0.0
H1154 H 0.52445 0.70945 0.07691 0.0
C1155 C 0.54698 0.71495 0.33216 0.0
C1156 C 0.5407 0.68251 0.19084 0.0
C1157 C 0.54941 0.71744 0.40619 0.0
C1158 C 0.52118 0.66666 0.89318 0.0
C1159 C 0.52329 0.66932 0.96717 0.0
C1160 C 0.5292 0.70198 0.10791 0.0
C1161 C 0.53882 0.69755 0.30273 0.0
C1162 C 0.53684 0.69487 0.22415 0.0
C1163 C 0.53096 0.68676 -0.00396 0.0
C1164 C 0.53303 0.68959 0.0746 0.0
H1165 H 0.53055 0.67346 0.45687 0.0
H1166 H 0.52621 0.66911 0.32778 0.0
H1167 H 0.52783 0.71406 0.2063 0.0
H1168 H 0.53877 0.71037 0.84076 0.0
H1169 H 0.54276 0.71508 0.96987 0.0
loop_
_geom_bond_atom_site_label_1
_geom_bond_atom_site_label_2
_geom_bond_distance
_geom_bond_site_symmetry_2
_ccdc_geom_bond_type
C0 Eu1 2.835 1_556 S
C0 C2 1.500 . S
C0 O20 1.257 . S
C0 O21 1.260 1_556 S
Eu1 C0 2.835 1_554 S
Eu1 O20 2.473 1_554 S
Eu1 O21 2.480 . S
Eu1 O22 2.430 . S
Eu1 O23 2.670 . S
Eu1 O24 2.394 . S
Eu1 O29 2.355 1_554 S
Eu1 O31 2.374 1_554 S
C2 C0 1.500 . S
C2 C3 1.377 1_556 S
C2 C7 1.377 . S
C3 C2 1.377 1_554 S
C3 C4 1.395 . S
C3 H32 0.931 . S
C4 C3 1.395 . S
C4 C5 1.383 1_554 S
C4 H33 0.931 . S
C5 C4 1.383 1_556 S
C5 C6 1.394 . S
C6 C5 1.394 . S
C6 C7 1.378 . S
C6 H34 0.931 . S
C7 C2 1.377 . S
C7 C6 1.378 . S
C7 H35 0.931 . S
C8 O22 1.259 . S
C8 O23 1.270 . S
C9 O24 1.251 1_655 S
C9 O25 1.251 . S
C10 Eu11 2.835 . S
C10 C12 1.500 . S
C10 O26 1.257 . S
C10 O27 1.260 1_554 S
Eu11 C10 2.835 . S
Eu11 O23 2.357 1_655 S
Eu11 O25 2.374 . S
Eu11 O26 2.474 . S
Eu11 O27 2.479 1_554 S
Eu11 O28 2.427 1_554 S
Eu11 O29 2.669 1_654 S
Eu11 O30 2.394 1_654 S
C12 C10 1.500 . S
C12 C13 1.377 1_554 S
C12 C17 1.377 . S
C13 C12 1.377 1_556 S
C13 C14 1.395 . S
C13 H36 0.931 . S
C14 C13 1.395 . S
C14 C15 1.383 1_556 S
C14 H37 0.931 . S
C15 C14 1.383 1_554 S
C15 C16 1.394 . S
C16 C15 1.394 . S
C16 C17 1.378 . S
C16 H38 0.931 . S
C17 C12 1.377 . S
C17 C16 1.378 . S
C17 H39 0.931 . S
C18 O28 1.259 1_455 S
C18 O29 1.270 . S
C19 O30 1.251 . S
C19 O31 1.251 . S
O20 C0 1.257 . S
O20 Eu1 2.473 1_556 S
O21 C0 1.260 1_554 S
O21 Eu1 2.480 . S
O22 Eu1 2.430 . S
O22 C8 1.259 . S
O23 Eu1 2.670 . S
O23 C8 1.270 . S
O23 Eu11 2.357 1_455 S
O24 Eu1 2.394 . S
O24 C9 1.251 1_455 S
O25 C9 1.251 . S
O25 Eu11 2.374 . S
O26 C10 1.257 . S
O26 Eu11 2.474 . S
O27 C10 1.260 1_556 S
O27 Eu11 2.479 1_556 S
O28 Eu11 2.427 1_556 S
O28 C18 1.259 1_655 S
O29 Eu1 2.355 1_556 S
O29 Eu11 2.669 1_456 S
O29 C18 1.270 . S
O30 Eu11 2.394 1_456 S
O30 C19 1.251 . S
O31 Eu1 2.374 1_556 S
O31 C19 1.251 . S
H32 C3 0.931 . S
H33 C4 0.931 . S
H34 C6 0.931 . S
H35 C7 0.931 . S
H36 C13 0.931 . S
H37 C14 0.931 . S
H38 C16 0.931 . S
H39 C17 0.931 . S
C40 Eu41 2.835 1_556 S
C40 C42 1.500 . S
C40 O60 1.257 . S
C40 O61 1.260 1_556 S
Eu41 C40 2.835 1_554 S
Eu41 O60 2.473 1_554 S
Eu41 O61 2.480 . S
Eu41 O62 2.430 . S
Eu41 O63 2.670 . S
Eu41 O64 2.394 . S
Eu41 O69 2.355 1_554 S
Eu41 O71 2.374 1_554 S
C42 C40 1.500 . S
C42 C43 1.377 1_556 S
C42 C47 1.377 . S
C43 C42 1.377 1_554 S
C43 C44 1.395 . S
C43 H72 0.931 . S
C44 C43 1.395 . S
C44 C45 1.383 1_554 S
C44 H73 0.931 . S
C45 C44 1.383 1_556 S
C45 C46 1.394 . S
C46 C45 1.394 . S
C46 C47 1.378 . S
C46 H74 0.931 . S
C47 C42 1.377 . S
C47 C46 1.378 . S
C47 H75 0.931 . S
C48 O62 1.259 . S
C48 O63 1.270 . S
C49 O64 1.251 . S
C49 O65 1.251 . S
C50 Eu51 2.835 1_554 S
C50 C52 1.500 . S
C50 O66 1.257 . S
C50 O67 1.260 1_554 S
Eu51 C50 2.835 1_556 S
Eu51 O63 2.356 1_556 S
Eu51 O65 2.374 1_556 S
Eu51 O66 2.473 1_556 S
Eu51 O67 2.479 . S
Eu51 O68 2.429 . S
Eu51 O69 2.670 . S
Eu51 O70 2.394 . S
C52 C50 1.500 . S
C52 C53 1.377 1_554 S
C52 C57 1.377 . S
C53 C52 1.377 1_556 S
C53 C54 1.395 . S
C53 H76 0.931 . S
C54 C53 1.395 . S
C54 C55 1.383 1_556 S
C54 H77 0.931 . S
C55 C54 1.383 1_554 S
C55 C56 1.394 . S
C56 C55 1.394 . S
C56 C57 1.378 . S
C56 H78 0.931 . S
C57 C52 1.377 . S
C57 C56 1.378 . S
C57 H79 0.931 . S
C58 O68 1.259 . S
C58 O69 1.270 . S
C59 O70 1.251 . S
C59 O71 1.251 . S
O60 C40 1.257 . S
O60 Eu41 2.473 1_556 S
O61 C40 1.260 1_554 S
O61 Eu41 2.480 . S
O62 Eu41 2.430 . S
O62 C48 1.259 . S
O63 Eu41 2.670 . S
O63 C48 1.270 . S
O63 Eu51 2.356 1_554 S
O64 Eu41 2.394 . S
O64 C49 1.251 . S
O65 C49 1.251 . S
O65 Eu51 2.374 1_554 S
O66 C50 1.257 . S
O66 Eu51 2.473 1_554 S
O67 C50 1.260 1_556 S
O67 Eu51 2.479 . S
O68 Eu51 2.429 . S
O68 C58 1.259 . S
O69 Eu41 2.355 1_556 S
O69 Eu51 2.670 . S
O69 C58 1.270 . S
O70 Eu51 2.394 . S
O70 C59 1.251 . S
O71 Eu41 2.374 1_556 S
O71 C59 1.251 . S
H72 C43 0.931 . S
H73 C44 0.931 . S
H74 C46 0.931 . S
H75 C47 0.931 . S
H76 C53 0.931 . S
H77 C54 0.931 . S
H78 C56 0.931 . S
H79 C57 0.931 . S
C80 Eu81 2.835 1_556 S
C80 C82 1.500 . S
C80 O100 1.257 . S
C80 O101 1.260 1_556 S
Eu81 C80 2.835 1_554 S
Eu81 O100 2.473 1_554 S
Eu81 O101 2.480 . S
Eu81 O102 2.430 . S
Eu81 O103 2.670 1_565 S
Eu81 O104 2.394 1_565 S
Eu81 O109 2.355 1_564 S
Eu81 O111 2.374 1_554 S
C82 C80 1.500 . S
C82 C83 1.377 1_556 S
C82 C87 1.377 . S
C83 C82 1.377 1_554 S
C83 C84 1.395 . S
C83 H112 0.931 . S
C84 C83 1.395 . S
C84 C85 1.383 1_554 S
C84 H113 0.931 . S
C85 C84 1.383 1_556 S
C85 C86 1.394 . S
C86 C85 1.394 . S
C86 C87 1.378 . S
C86 H114 0.931 . S
C87 C82 1.377 . S
C87 C86 1.378 . S
C87 H115 0.931 . S
C88 O102 1.259 1_545 S
C88 O103 1.270 . S
C89 O104 1.251 . S
C89 O105 1.251 . S
C90 Eu91 2.835 1_554 S
C90 C92 1.500 . S
C90 O106 1.257 . S
C90 O107 1.260 1_554 S
Eu91 C90 2.835 1_556 S
Eu91 O103 2.356 1_556 S
Eu91 O105 2.374 1_556 S
Eu91 O106 2.473 1_556 S
Eu91 O107 2.480 . S
Eu91 O108 2.430 . S
Eu91 O109 2.670 . S
Eu91 O110 2.394 . S
C92 C90 1.500 . S
C92 C93 1.377 1_554 S
C92 C97 1.377 . S
C93 C92 1.377 1_556 S
C93 C94 1.395 . S
C93 H116 0.931 . S
C94 C93 1.395 . S
C94 C95 1.383 1_556 S
C94 H117 0.931 . S
C95 C94 1.383 1_554 S
C95 C96 1.394 . S
C96 C95 1.394 . S
C96 C97 1.378 . S
C96 H118 0.931 . S
C97 C92 1.377 . S
C97 C96 1.378 . S
C97 H119 0.931 . S
C98 O108 1.259 . S
C98 O109 1.270 . S
C99 O110 1.251 1_565 S
C99 O111 1.251 . S
O100 C80 1.257 . S
O100 Eu81 2.473 1_556 S
O101 C80 1.260 1_554 S
O101 Eu81 2.480 . S
O102 Eu81 2.430 . S
O102 C88 1.259 1_565 S
O103 Eu81 2.670 1_545 S
O103 C88 1.270 . S
O103 Eu91 2.356 1_554 S
O104 Eu81 2.394 1_545 S
O104 C89 1.251 . S
O105 C89 1.251 . S
O105 Eu91 2.374 1_554 S
O106 C90 1.257 . S
O106 Eu91 2.473 1_554 S
O107 C90 1.260 1_556 S
O107 Eu91 2.480 . S
O108 Eu91 2.430 . S
O108 C98 1.259 . S
O109 Eu81 2.355 1_546 S
O109 Eu91 2.670 . S
O109 C98 1.270 . S
O110 Eu91 2.394 . S
O110 C99 1.251 1_545 S
O111 Eu81 2.374 1_556 S
O111 C99 1.251 . S
H112 C83 0.931 . S
H113 C84 0.931 . S
H114 C86 0.931 . S
H115 C87 0.931 . S
H116 C93 0.931 . S
H117 C94 0.931 . S
H118 C96 0.931 . S
H119 C97 0.931 . S
C120 Eu121 2.835 . S
C120 C122 1.500 . S
C120 O140 1.257 . S
C120 O141 1.260 . S
Eu121 C120 2.835 . S
Eu121 O140 2.473 . S
Eu121 O141 2.480 . S
Eu121 O142 2.430 . S
Eu121 O143 2.670 . S
Eu121 O144 2.394 . S
Eu121 O149 2.355 . S
Eu121 O151 2.374 . S
C122 C120 1.500 . S
C122 C123 1.377 . S
C122 C127 1.377 . S
C123 C122 1.377 . S
C123 C124 1.395 . S
C123 H152 0.931 . S
C124 C123 1.395 . S
C124 C125 1.383 . S
C124 H153 0.931 . S
C125 C124 1.383 . S
C125 C126 1.394 . S
C126 C125 1.394 . S
C126 C127 1.378 . S
C126 H154 0.931 . S
C127 C122 1.377 . S
C127 C126 1.378 . S
C127 H155 0.931 . S
C128 O142 1.259 . S
C128 O143 1.270 . S
C129 O144 1.251 . S
C129 O145 1.251 . S
C130 Eu131 2.835 . S
C130 C132 1.500 . S
C130 O146 1.257 . S
C130 O147 1.260 . S
Eu131 C130 2.835 . S
Eu131 O143 2.355 . S
Eu131 O145 2.374 . S
Eu131 O146 2.473 . S
Eu131 O147 2.480 . S
Eu131 O148 2.430 . S
Eu131 O149 2.670 . S
Eu131 O150 2.394 . S
C132 C130 1.500 . S
C132 C133 1.377 . S
C132 C137 1.377 . S
C133 C132 1.377 . S
C133 C134 1.395 . S
C133 H156 0.931 . S
C134 C133 1.395 . S
C134 C135 1.383 . S
C134 H157 0.931 . S
C135 C134 1.383 . S
C135 C136 1.394 . S
C136 C135 1.394 . S
C136 C137 1.378 . S
C136 H158 0.931 . S
C137 C132 1.377 . S
C137 C136 1.378 . S
C137 H159 0.931 . S
C138 O148 1.259 . S
C138 O149 1.270 . S
C139 O150 1.251 . S
C139 O151 1.251 . S
O140 C120 1.257 . S
O140 Eu121 2.473 . S
O141 C120 1.260 . S
O141 Eu121 2.480 . S
O142 Eu121 2.430 . S
O142 C128 1.259 . S
O143 Eu121 2.670 . S
O143 C128 1.270 . S
O143 Eu131 2.355 . S
O144 Eu121 2.394 . S
O144 C129 1.251 . S
O145 C129 1.251 . S
O145 Eu131 2.374 . S
O146 C130 1.257 . S
O146 Eu131 2.473 . S
O147 C130 1.260 . S
O147 Eu131 2.480 . S
O148 Eu131 2.430 . S
O148 C138 1.259 . S
O149 Eu121 2.355 . S
O149 Eu131 2.670 . S
O149 C138 1.270 . S
O150 Eu131 2.394 . S
O150 C139 1.251 . S
O151 Eu121 2.374 . S
O151 C139 1.251 . S
H152 C123 0.931 . S
H153 C124 0.931 . S
H154 C126 0.931 . S
H155 C127 0.931 . S
H156 C133 0.931 . S
H157 C134 0.931 . S
H158 C136 0.931 . S
H159 C137 0.931 . S
C160 Eu161 2.835 . S
C160 C162 1.500 . S
C160 O180 1.257 . S
C160 O181 1.260 . S
Eu161 C160 2.835 . S
Eu161 O180 2.473 . S
Eu161 O181 2.480 . S
Eu161 O182 2.430 . S
Eu161 O183 2.670 . S
Eu161 O184 2.394 . S
Eu161 O189 2.355 . S
Eu161 O191 2.374 . S
C162 C160 1.500 . S
C162 C163 1.377 . S
C162 C167 1.377 . S
C163 C162 1.377 . S
C163 C164 1.395 . S
C163 H192 0.931 . S
C164 C163 1.395 . S
C164 C165 1.383 . S
C164 H193 0.931 . S
C165 C164 1.383 . S
C165 C166 1.394 . S
C166 C165 1.394 . S
C166 C167 1.378 . S
C166 H194 0.931 . S
C167 C162 1.377 . S
C167 C166 1.378 . S
C167 H195 0.931 . S
C168 O182 1.259 . S
C168 O183 1.270 . S
C169 O184 1.251 . S
C169 O185 1.251 . S
C170 Eu171 2.835 . S
C170 C172 1.500 . S
C170 O186 1.257 . S
C170 O187 1.260 . S
Eu171 C170 2.835 . S
Eu171 O183 2.355 . S
Eu171 O185 2.374 . S
Eu171 O186 2.473 . S
Eu171 O187 2.480 . S
Eu171 O188 2.430 . S
Eu171 O189 2.670 . S
Eu171 O190 2.394 . S
C172 C170 1.500 . S
C172 C173 1.377 . S
C172 C177 1.377 . S
C173 C172 1.377 . S
C173 C174 1.395 . S
C173 H196 0.931 . S
C174 C173 1.395 . S
C174 C175 1.383 . S
C174 H197 0.931 . S
C175 C174 1.383 . S
C175 C176 1.394 . S
C176 C175 1.394 . S
C176 C177 1.378 . S
C176 H198 0.931 . S
C177 C172 1.377 . S
C177 C176 1.378 . S
C177 H199 0.931 . S
C178 O188 1.259 . S
C178 O189 1.270 . S
C179 O190 1.251 . S
C179 O191 1.251 . S
O180 C160 1.257 . S
O180 Eu161 2.473 . S
O181 C160 1.260 . S
O181 Eu161 2.480 . S
O182 Eu161 2.430 . S
O182 C168 1.259 . S
O183 Eu161 2.670 . S
O183 C168 1.270 . S
O183 Eu171 2.355 . S
O184 Eu161 2.394 . S
O184 C169 1.251 . S
O185 C169 1.251 . S
O185 Eu171 2.374 . S
O186 C170 1.257 . S
O186 Eu171 2.473 . S
O187 C170 1.260 . S
O187 Eu171 2.480 . S
O188 Eu171 2.430 . S
O188 C178 1.259 . S
O189 Eu161 2.355 . S
O189 Eu171 2.670 . S
O189 C178 1.270 . S
O190 Eu171 2.394 . S
O190 C179 1.251 . S
O191 Eu161 2.374 . S
O191 C179 1.251 . S
H192 C163 0.931 . S
H193 C164 0.931 . S
H194 C166 0.931 . S
H195 C167 0.931 . S
H196 C173 0.931 . S
H197 C174 0.931 . S
H198 C176 0.931 . S
H199 C177 0.931 . S
C200 Eu201 2.835 . S
C200 C202 1.500 . S
C200 O220 1.257 . S
C200 O221 1.260 . S
Eu201 C200 2.835 . S
Eu201 O220 2.473 . S
Eu201 O221 2.480 . S
Eu201 O222 2.430 . S
Eu201 O223 2.670 . S
Eu201 O224 2.394 . S
Eu201 O229 2.355 . S
Eu201 O231 2.374 . S
C202 C200 1.500 . S
C202 C203 1.377 . S
C202 C207 1.377 . S
C203 C202 1.377 . S
C203 C204 1.395 . S
C203 H232 0.931 . S
C204 C203 1.395 . S
C204 C205 1.383 . S
C204 H233 0.931 . S
C205 C204 1.383 . S
C205 C206 1.394 . S
C206 C205 1.394 . S
C206 C207 1.378 . S
C206 H234 0.931 . S
C207 C202 1.377 . S
C207 C206 1.378 . S
C207 H235 0.931 . S
C208 O222 1.259 . S
C208 O223 1.270 . S
C209 O224 1.251 . S
C209 O225 1.251 . S
C210 Eu211 2.835 . S
C210 C212 1.500 . S
C210 O226 1.257 . S
C210 O227 1.260 . S
Eu211 C210 2.835 . S
Eu211 O223 2.355 . S
Eu211 O225 2.374 . S
Eu211 O226 2.473 . S
Eu211 O227 2.480 . S
Eu211 O228 2.430 . S
Eu211 O229 2.670 . S
Eu211 O230 2.394 . S
C212 C210 1.500 . S
C212 C213 1.377 . S
C212 C217 1.377 . S
C213 C212 1.377 . S
C213 C214 1.395 . S
C213 H236 0.931 . S
C214 C213 1.395 . S
C214 C215 1.383 . S
C214 H237 0.931 . S
C215 C214 1.383 . S
C215 C216 1.394 . S
C216 C215 1.394 . S
C216 C217 1.378 . S
C216 H238 0.931 . S
C217 C212 1.377 . S
C217 C216 1.378 . S
C217 H239 0.931 . S
C218 O228 1.259 . S
C218 O229 1.270 . S
C219 O230 1.251 . S
C219 O231 1.251 . S
O220 C200 1.257 . S
O220 Eu201 2.473 . S
O221 C200 1.260 . S
O221 Eu201 2.480 . S
O222 Eu201 2.430 . S
O222 C208 1.259 . S
O223 Eu201 2.670 . S
O223 C208 1.270 . S
O223 Eu211 2.355 . S
O224 Eu201 2.394 . S
O224 C209 1.251 . S
O225 C209 1.251 . S
O225 Eu211 2.374 . S
O226 C210 1.257 . S
O226 Eu211 2.473 . S
O227 C210 1.260 . S
O227 Eu211 2.480 . S
O228 Eu211 2.430 . S
O228 C218 1.259 . S
O229 Eu201 2.355 . S
O229 Eu211 2.670 . S
O229 C218 1.270 . S
O230 Eu211 2.394 . S
O230 C219 1.251 . S
O231 Eu201 2.374 . S
O231 C219 1.251 . S
H232 C203 0.931 . S
H233 C204 0.931 . S
H234 C206 0.931 . S
H235 C207 0.931 . S
H236 C213 0.931 . S
H237 C214 0.931 . S
H238 C216 0.931 . S
H239 C217 0.931 . S
C240 Eu241 2.835 . S
C240 C242 1.500 . S
C240 O260 1.257 . S
C240 O261 1.260 . S
Eu241 C240 2.835 . S
Eu241 O260 2.473 . S
Eu241 O261 2.480 . S
Eu241 O262 2.430 . S
Eu241 O263 2.670 . S
Eu241 O264 2.394 . S
Eu241 O269 2.355 . S
Eu241 O271 2.374 . S
C242 C240 1.500 . S
C242 C243 1.377 . S
C242 C247 1.377 . S
C243 C242 1.377 . S
C243 C244 1.395 . S
C243 H272 0.931 . S
C244 C243 1.395 . S
C244 C245 1.383 . S
C244 H273 0.931 . S
C245 C244 1.383 . S
C245 C246 1.394 . S
C246 C245 1.394 . S
C246 C247 1.378 . S
C246 H274 0.931 . S
C247 C242 1.377 . S
C247 C246 1.378 . S
C247 H275 0.931 . S
C248 O262 1.259 . S
C248 O263 1.270 . S
C249 O264 1.251 . S
C249 O265 1.251 . S
C250 Eu251 2.835 . S
C250 C252 1.500 . S
C250 O266 1.257 . S
C250 O267 1.260 . S
Eu251 C250 2.835 . S
Eu251 O263 2.355 . S
Eu251 O265 2.374 . S
Eu251 O266 2.473 . S
Eu251 O267 2.480 . S
Eu251 O268 2.430 . S
Eu251 O269 2.670 . S
Eu251 O270 2.394 . S
C252 C250 1.500 . S
C252 C253 1.377 . S
C252 C257 1.377 . S
C253 C252 1.377 . S
C253 C254 1.395 . S
C253 H276 0.931 . S
C254 C253 1.395 . S
C254 C255 1.383 . S
C254 H277 0.931 . S
C255 C254 1.383 . S
C255 C256 1.394 . S
C256 C255 1.394 . S
C256 C257 1.378 . S
C256 H278 0.931 . S
C257 C252 1.377 . S
C257 C256 1.378 . S
C257 H279 0.931 . S
C258 O268 1.259 . S
C258 O269 1.270 . S
C259 O270 1.251 . S
C259 O271 1.251 . S
O260 C240 1.257 . S
O260 Eu241 2.473 . S
O261 C240 1.260 . S
O261 Eu241 2.480 . S
O262 Eu241 2.430 . S
O262 C248 1.259 . S
O263 Eu241 2.670 . S
O263 C248 1.270 . S
O263 Eu251 2.355 . S
O264 Eu241 2.394 . S
O264 C249 1.251 . S
O265 C249 1.251 . S
O265 Eu251 2.374 . S
O266 C250 1.257 . S
O266 Eu251 2.473 . S
O267 C250 1.260 . S
O267 Eu251 2.480 . S
O268 Eu251 2.430 . S
O268 C258 1.259 . S
O269 Eu241 2.355 . S
O269 Eu251 2.670 . S
O269 C258 1.270 . S
O270 Eu251 2.394 . S
O270 C259 1.251 . S
O271 Eu241 2.374 . S
O271 C259 1.251 . S
H272 C243 0.931 . S
H273 C244 0.931 . S
H274 C246 0.931 . S
H275 C247 0.931 . S
H276 C253 0.931 . S
H277 C254 0.931 . S
H278 C256 0.931 . S
H279 C257 0.931 . S
C280 Eu281 2.835 . S
C280 C282 1.500 . S
C280 O300 1.257 . S
C280 O301 1.260 . S
Eu281 C280 2.835 . S
Eu281 O300 2.473 . S
Eu281 O301 2.480 . S
Eu281 O302 2.430 . S
Eu281 O303 2.670 . S
Eu281 O304 2.394 . S
Eu281 O309 2.355 . S
Eu281 O311 2.374 . S
C282 C280 1.500 . S
C282 C283 1.377 . S
C282 C287 1.377 . S
C283 C282 1.377 . S
C283 C284 1.395 . S
C283 H312 0.931 . S
C284 C283 1.395 . S
C284 C285 1.383 . S
C284 H313 0.931 . S
C285 C284 1.383 . S
C285 C286 1.394 . S
C286 C285 1.394 . S
C286 C287 1.378 . S
C286 H314 0.931 . S
C287 C282 1.377 . S
C287 C286 1.378 . S
C287 H315 0.931 . S
C288 O302 1.259 . S
C288 O303 1.270 . S
C289 O304 1.251 . S
C289 O305 1.251 . S
C290 Eu291 2.835 . S
C290 C292 1.500 . S
C290 O306 1.257 . S
C290 O307 1.260 . S
Eu291 C290 2.835 . S
Eu291 O303 2.355 . S
Eu291 O305 2.374 . S
Eu291 O306 2.473 . S
Eu291 O307 2.480 . S
Eu291 O308 2.430 . S
Eu291 O309 2.670 . S
Eu291 O310 2.394 . S
C292 C290 1.500 . S
C292 C293 1.377 . S
C292 C297 1.377 . S
C293 C292 1.377 . S
C293 C294 1.395 . S
C293 H316 0.931 . S
C294 C293 1.395 . S
C294 C295 1.383 . S
C294 H317 0.931 . S
C295 C294 1.383 . S
C295 C296 1.394 . S
C296 C295 1.394 . S
C296 C297 1.378 . S
C296 H318 0.931 . S
C297 C292 1.377 . S
C297 C296 1.378 . S
C297 H319 0.931 . S
C298 O308 1.259 . S
C298 O309 1.270 . S
C299 O310 1.251 . S
C299 O311 1.251 . S
O300 C280 1.257 . S
O300 Eu281 2.473 . S
O301 C280 1.260 . S
O301 Eu281 2.480 . S
O302 Eu281 2.430 . S
O302 C288 1.259 . S
O303 Eu281 2.670 . S
O303 C288 1.270 . S
O303 Eu291 2.355 . S
O304 Eu281 2.394 . S
O304 C289 1.251 . S
O305 C289 1.251 . S
O305 Eu291 2.374 . S
O306 C290 1.257 . S
O306 Eu291 2.473 . S
O307 C290 1.260 . S
O307 Eu291 2.480 . S
O308 Eu291 2.430 . S
O308 C298 1.259 . S
O309 Eu281 2.355 . S
O309 Eu291 2.670 . S
O309 C298 1.270 . S
O310 Eu291 2.394 . S
O310 C299 1.251 . S
O311 Eu281 2.374 . S
O311 C299 1.251 . S
H312 C283 0.931 . S
H313 C284 0.931 . S
H314 C286 0.931 . S
H315 C287 0.931 . S
H316 C293 0.931 . S
H317 C294 0.931 . S
H318 C296 0.931 . S
H319 C297 0.931 . S
C320 Eu321 2.835 . S
C320 C322 1.500 . S
C320 O340 1.257 . S
C320 O341 1.260 . S
Eu321 C320 2.835 . S
Eu321 O340 2.473 . S
Eu321 O341 2.480 . S
Eu321 O342 2.430 . S
Eu321 O343 2.670 . S
Eu321 O344 2.394 . S
Eu321 O349 2.355 . S
Eu321 O351 2.374 . S
C322 C320 1.500 . S
C322 C323 1.377 . S
C322 C327 1.377 . S
C323 C322 1.377 . S
C323 C324 1.395 . S
C323 H352 0.931 . S
C324 C323 1.395 . S
C324 C325 1.383 . S
C324 H353 0.931 . S
C325 C324 1.383 . S
C325 C326 1.394 . S
C326 C325 1.394 . S
C326 C327 1.378 . S
C326 H354 0.931 . S
C327 C322 1.377 . S
C327 C326 1.378 . S
C327 H355 0.931 . S
C328 O342 1.259 . S
C328 O343 1.270 . S
C329 O344 1.251 . S
C329 O345 1.251 . S
C330 Eu331 2.835 . S
C330 C332 1.500 . S
C330 O346 1.257 . S
C330 O347 1.260 . S
Eu331 C330 2.835 . S
Eu331 O343 2.355 . S
Eu331 O345 2.374 . S
Eu331 O346 2.473 . S
Eu331 O347 2.480 . S
Eu331 O348 2.430 . S
Eu331 O349 2.670 . S
Eu331 O350 2.394 . S
C332 C330 1.500 . S
C332 C333 1.377 . S
C332 C337 1.377 . S
C333 C332 1.377 . S
C333 C334 1.395 . S
C333 H356 0.931 . S
C334 C333 1.395 . S
C334 C335 1.383 . S
C334 H357 0.931 . S
C335 C334 1.383 . S
C335 C336 1.394 . S
C336 C335 1.394 . S
C336 C337 1.378 . S
C336 H358 0.931 . S
C337 C332 1.377 . S
C337 C336 1.378 . S
C337 H359 0.931 . S
C338 O348 1.259 . S
C338 O349 1.270 . S
C339 O350 1.251 . S
C339 O351 1.251 . S
O340 C320 1.257 . S
O340 Eu321 2.473 . S
O341 C320 1.260 . S
O341 Eu321 2.480 . S
O342 Eu321 2.430 . S
O342 C328 1.259 . S
O343 Eu321 2.670 . S
O343 C328 1.270 . S
O343 Eu331 2.355 . S
O344 Eu321 2.394 . S
O344 C329 1.251 . S
O345 C329 1.251 . S
O345 Eu331 2.374 . S
O346 C330 1.257 . S
O346 Eu331 2.473 . S
O347 C330 1.260 . S
O347 Eu331 2.480 . S
O348 Eu331 2.430 . S
O348 C338 1.259 . S
O349 Eu321 2.355 . S
O349 Eu331 2.670 . S
O349 C338 1.270 . S
O350 Eu331 2.394 . S
O350 C339 1.251 . S
O351 Eu321 2.374 . S
O351 C339 1.251 . S
H352 C323 0.931 . S
H353 C324 0.931 . S
H354 C326 0.931 . S
H355 C327 0.931 . S
H356 C333 0.931 . S
H357 C334 0.931 . S
H358 C336 0.931 . S
H359 C337 0.931 . S
C360 C361 1.349 1_554 S
C360 C362 1.327 1_554 S
C360 H385 0.950 . S
C361 C360 1.349 1_556 S
C361 C377 1.349 . S
C362 C360 1.327 1_556 S
C362 C381 1.429 . S
C362 H386 0.950 1_556 S
C363 C380 1.574 . S
C363 C382 1.368 . S
C363 H387 0.949 . S
H364 C368 0.949 . S
C365 C366 1.349 . S
C365 C367 1.327 . S
C365 H388 0.950 . S
C366 C365 1.349 . S
C366 C378 1.349 . S
C367 C365 1.327 . S
C367 C383 1.429 . S
C367 H389 0.950 . S
C368 H364 0.949 . S
C368 C376 1.574 . S
C368 C384 1.368 . S
H369 C377 0.950 . S
H370 C375 0.950 . S
H371 C376 0.949 . S
H372 C378 0.950 . S
H373 C379 0.950 . S
H374 C380 0.949 . S
C375 H370 0.950 . S
C375 C377 1.327 . S
C375 C381 1.429 . S
C376 C368 1.574 . S
C376 H371 0.949 . S
C376 C382 1.368 . S
C377 C361 1.349 . S
C377 H369 0.950 . S
C377 C375 1.327 . S
C378 C366 1.349 . S
C378 H372 0.950 . S
C378 C379 1.327 . S
C379 H373 0.950 . S
C379 C378 1.327 . S
C379 C383 1.429 . S
C380 C363 1.574 . S
C380 H374 0.949 . S
C380 C384 1.368 . S
C381 C362 1.429 . S
C381 C375 1.429 . S
C381 C382 1.523 . S
C382 C363 1.368 . S
C382 C376 1.368 . S
C382 C381 1.523 . S
C383 C367 1.429 . S
C383 C379 1.429 . S
C383 C384 1.523 . S
C384 C368 1.368 . S
C384 C380 1.368 . S
C384 C383 1.523 . S
H385 C360 0.950 . S
H386 C362 0.950 1_554 S
H387 C363 0.949 . S
H388 C365 0.950 . S
H389 C367 0.950 . S
C390 C391 1.349 1_554 S
C390 C392 1.327 1_554 S
C390 H415 0.950 . S
C391 C390 1.349 1_556 S
C391 C407 1.349 . S
C392 C390 1.327 1_556 S
C392 C411 1.429 . S
C392 H416 0.950 1_556 S
C393 C410 1.574 . S
C393 C412 1.368 . S
C393 H417 0.949 . S
H394 C398 0.949 . S
C395 C396 1.349 . S
C395 C397 1.327 . S
C395 H418 0.950 . S
C396 C395 1.349 . S
C396 C408 1.349 . S
C397 C395 1.327 . S
C397 C413 1.429 . S
C397 H419 0.950 . S
C398 H394 0.949 . S
C398 C406 1.574 . S
C398 C414 1.368 . S
H399 C407 0.950 . S
H400 C405 0.950 . S
H401 C406 0.949 . S
H402 C408 0.950 . S
H403 C409 0.950 . S
H404 C410 0.949 . S
C405 H400 0.950 . S
C405 C407 1.327 . S
C405 C411 1.429 . S
C406 C398 1.574 . S
C406 H401 0.949 . S
C406 C412 1.368 . S
C407 C391 1.349 . S
C407 H399 0.950 . S
C407 C405 1.327 . S
C408 C396 1.349 . S
C408 H402 0.950 . S
C408 C409 1.327 . S
C409 H403 0.950 . S
C409 C408 1.327 . S
C409 C413 1.429 . S
C410 C393 1.574 . S
C410 H404 0.949 . S
C410 C414 1.368 . S
C411 C392 1.429 . S
C411 C405 1.429 . S
C411 C412 1.523 . S
C412 C393 1.368 . S
C412 C406 1.368 . S
C412 C411 1.523 . S
C413 C397 1.429 . S
C413 C409 1.429 . S
C413 C414 1.523 . S
C414 C398 1.368 . S
C414 C410 1.368 . S
C414 C413 1.523 . S
H415 C390 0.950 . S
H416 C392 0.950 1_554 S
H417 C393 0.949 . S
H418 C395 0.950 . S
H419 C397 0.950 . S
C420 C421 1.349 . S
C420 C422 1.327 . S
C420 H445 0.950 1_556 S
C421 C420 1.349 . S
C421 C437 1.349 . S
C422 C420 1.327 . S
C422 C441 1.429 . S
C422 H446 0.950 . S
C423 C440 1.574 . S
C423 C442 1.368 . S
C423 H447 0.949 . S
H424 C428 0.949 . S
C425 C426 1.349 . S
C425 C427 1.327 . S
C425 H448 0.950 . S
C426 C425 1.349 . S
C426 C438 1.349 . S
C427 C425 1.327 . S
C427 C443 1.429 . S
C427 H449 0.950 . S
C428 H424 0.949 . S
C428 C436 1.574 . S
C428 C444 1.368 . S
H429 C437 0.895 1_545 S
H430 C435 0.950 . S
H431 C436 0.949 . S
H432 C438 0.950 . S
H433 C439 0.950 . S
H434 C440 0.949 . S
C435 H430 0.950 . S
C435 C437 1.327 . S
C435 C441 1.429 . S
C436 C428 1.574 . S
C436 H431 0.949 . S
C436 C442 1.368 . S
C437 C421 1.349 . S
C437 H429 0.895 1_565 S
C437 C435 1.327 . S
C438 C426 1.349 . S
C438 H432 0.950 . S
C438 C439 1.327 . S
C439 H433 0.950 . S
C439 C438 1.327 . S
C439 C443 1.429 . S
C440 C423 1.574 . S
C440 H434 0.949 . S
C440 C444 1.368 . S
C441 C422 1.429 . S
C441 C435 1.429 . S
C441 C442 1.523 . S
C442 C423 1.368 . S
C442 C436 1.368 . S
C442 C441 1.523 . S
C443 C427 1.429 . S
C443 C439 1.429 . S
C443 C444 1.523 . S
C444 C428 1.368 . S
C444 C440 1.368 . S
C444 C443 1.523 . S
H445 C420 0.950 1_554 S
H446 C422 0.950 . S
H447 C423 0.949 . S
H448 C425 0.950 . S
H449 C427 0.950 . S
C450 C451 1.349 . S
C450 C452 1.327 . S
C450 H475 0.950 . S
C451 C450 1.349 . S
C451 C467 1.349 . S
C452 C450 1.327 . S
C452 C471 1.429 . S
C452 H476 0.950 . S
C453 C470 1.574 . S
C453 C472 1.368 . S
C453 H477 0.949 . S
H454 C458 0.949 . S
C455 C456 1.349 . S
C455 C457 1.327 . S
C455 H478 0.950 1_554 S
C456 C455 1.349 . S
C456 C468 1.349 . S
C457 C455 1.327 . S
C457 C473 1.429 . S
C457 H479 0.950 . S
C458 H454 0.949 . S
C458 C466 1.574 . S
C458 C474 1.368 . S
H459 C467 0.950 . S
H460 C465 0.950 . S
H461 C466 0.949 . S
H462 C468 0.950 . S
H463 C469 0.950 . S
H464 C470 0.949 . S
C465 H460 0.950 . S
C465 C467 1.327 . S
C465 C471 1.429 . S
C466 C458 1.574 . S
C466 H461 0.949 . S
C466 C472 1.368 . S
C467 C451 1.349 . S
C467 H459 0.950 . S
C467 C465 1.327 . S
C468 C456 1.349 . S
C468 H462 0.950 . S
C468 C469 1.327 . S
C469 H463 0.950 . S
C469 C468 1.327 . S
C469 C473 1.429 . S
C470 C453 1.574 . S
C470 H464 0.949 . S
C470 C474 1.368 . S
C471 C452 1.429 . S
C471 C465 1.429 . S
C471 C472 1.523 . S
C472 C453 1.368 . S
C472 C466 1.368 . S
C472 C471 1.523 . S
C473 C457 1.429 . S
C473 C469 1.429 . S
C473 C474 1.523 . S
C474 C458 1.368 . S
C474 C470 1.368 . S
C474 C473 1.523 . S
H475 C450 0.950 . S
H476 C452 0.950 . S
H477 C453 0.949 . S
H478 C455 0.950 1_556 S
H479 C457 0.950 . S
C480 C481 1.349 . S
C480 C482 1.327 . S
C480 H505 0.950 . S
C481 C480 1.349 . S
C481 C497 1.349 . S
C482 C480 1.327 . S
C482 C501 1.429 . S
C482 H506 0.950 . S
C483 C500 1.574 . S
C483 C502 1.368 . S
C483 H507 0.949 . S
H484 C488 0.949 . S
C485 C486 1.349 . S
C485 C487 1.327 . S
C485 H508 0.950 . S
C486 C485 1.349 . S
C486 C498 1.349 . S
C487 C485 1.327 . S
C487 C503 1.429 . S
C487 H509 0.950 . S
C488 H484 0.949 . S
C488 C496 1.574 . S
C488 C504 1.368 . S
H489 C497 0.950 . S
H490 C495 0.950 . S
H491 C496 0.949 . S
H492 C498 0.950 1_556 S
H493 C499 0.950 . S
H494 C500 0.949 . S
C495 H490 0.950 . S
C495 C497 1.327 . S
C495 C501 1.429 . S
C496 C488 1.574 . S
C496 H491 0.949 . S
C496 C502 1.368 . S
C497 C481 1.349 . S
C497 H489 0.950 . S
C497 C495 1.327 . S
C498 C486 1.349 . S
C498 H492 0.950 1_554 S
C498 C499 1.327 . S
C499 H493 0.950 . S
C499 C498 1.327 . S
C499 C503 1.429 . S
C500 C483 1.574 . S
C500 H494 0.949 . S
C500 C504 1.368 . S
C501 C482 1.429 . S
C501 C495 1.429 . S
C501 C502 1.523 . S
C502 C483 1.368 . S
C502 C496 1.368 . S
C502 C501 1.523 . S
C503 C487 1.429 . S
C503 C499 1.429 . S
C503 C504 1.523 . S
C504 C488 1.368 . S
C504 C500 1.368 . S
C504 C503 1.523 . S
H505 C480 0.950 . S
H506 C482 0.950 . S
H507 C483 0.949 . S
H508 C485 0.950 . S
H509 C487 0.950 . S
C510 C511 1.349 . S
C510 C512 1.327 . S
C510 H535 0.950 . S
C511 C510 1.349 . S
C511 C527 1.349 . S
C512 C510 1.327 . S
C512 C531 1.429 . S
C512 H536 0.950 . S
C513 C530 1.574 . S
C513 C532 1.368 . S
C513 H537 0.949 . S
H514 C518 0.949 . S
C515 C516 1.349 . S
C515 C517 1.327 . S
C515 H538 0.950 . S
C516 C515 1.349 . S
C516 C528 1.349 . S
C517 C515 1.327 . S
C517 C533 1.429 . S
C517 H539 0.950 . S
C518 H514 0.949 . S
C518 C526 1.574 . S
C518 C534 1.368 . S
H519 C527 0.950 . S
H520 C525 0.950 . S
H521 C526 0.949 . S
H522 C528 0.950 . S
H523 C529 0.950 . S
H524 C530 0.949 . S
C525 H520 0.950 . S
C525 C527 1.327 . S
C525 C531 1.429 . S
C526 C518 1.574 . S
C526 H521 0.949 . S
C526 C532 1.368 . S
C527 C511 1.349 . S
C527 H519 0.950 . S
C527 C525 1.327 . S
C528 C516 1.349 . S
C528 H522 0.950 . S
C528 C529 1.327 . S
C529 H523 0.950 . S
C529 C528 1.327 . S
C529 C533 1.429 . S
C530 C513 1.574 . S
C530 H524 0.949 . S
C530 C534 1.368 . S
C531 C512 1.429 . S
C531 C525 1.429 . S
C531 C532 1.523 . S
C532 C513 1.368 . S
C532 C526 1.368 . S
C532 C531 1.523 . S
C533 C517 1.429 . S
C533 C529 1.429 . S
C533 C534 1.523 . S
C534 C518 1.368 . S
C534 C530 1.368 . S
C534 C533 1.523 . S
H535 C510 0.950 . S
H536 C512 0.950 . S
H537 C513 0.949 . S
H538 C515 0.950 . S
H539 C517 0.950 . S
C540 C541 1.349 . S
C540 C542 1.327 . S
C540 H565 0.950 . S
C541 C540 1.349 . S
C541 C557 1.349 . S
C542 C540 1.327 . S
C542 C561 1.429 . S
C542 H566 0.950 . S
C543 C560 1.574 . S
C543 C562 1.368 . S
C543 H567 0.949 . S
H544 C548 0.949 . S
C545 C546 1.349 . S
C545 C547 1.327 1_655 S
C545 H568 0.950 . S
C546 C545 1.349 . S
C546 C558 1.349 . S
C547 C545 1.327 1_455 S
C547 C563 1.429 . S
C547 H569 0.950 . S
C548 H544 0.949 . S
C548 C556 1.574 . S
C548 C564 1.368 . S
H549 C557 0.950 . S
H550 C555 0.950 . S
H551 C556 0.949 . S
H552 C558 0.950 . S
H553 C559 0.950 . S
H554 C560 0.949 . S
C555 H550 0.950 . S
C555 C557 1.327 . S
C555 C561 1.429 . S
C556 C548 1.574 . S
C556 H551 0.949 . S
C556 C562 1.368 . S
C557 C541 1.349 . S
C557 H549 0.950 . S
C557 C555 1.327 . S
C558 C546 1.349 . S
C558 H552 0.950 . S
C558 C559 1.327 . S
C559 H553 0.950 . S
C559 C558 1.327 . S
C559 C563 1.429 1_655 S
C560 C543 1.574 . S
C560 H554 0.949 . S
C560 C564 1.368 . S
C561 C542 1.429 . S
C561 C555 1.429 . S
C561 C562 1.523 . S
C562 C543 1.368 . S
C562 C556 1.368 . S
C562 C561 1.523 . S
C563 C547 1.429 . S
C563 C559 1.429 1_455 S
C563 C564 1.523 . S
C564 C548 1.368 . S
C564 C560 1.368 . S
C564 C563 1.523 . S
H565 C540 0.950 . S
H566 C542 0.950 . S
H567 C543 0.949 . S
H568 C545 0.950 . S
H569 C547 0.950 . S
C570 C571 1.349 . S
C570 C572 1.327 . S
C570 H595 0.950 . S
C571 C570 1.349 . S
C571 C587 1.349 . S
C572 C570 1.327 . S
C572 C591 1.429 . S
C572 H596 0.950 . S
C573 C590 1.574 . S
C573 C592 1.368 . S
C573 H597 0.949 . S
H574 C578 0.949 . S
C575 C576 1.349 . S
C575 C577 1.327 . S
C575 H598 0.950 . S
C576 C575 1.349 . S
C576 C588 1.349 . S
C577 C575 1.327 . S
C577 C593 1.429 . S
C577 H599 0.950 . S
C578 H574 0.949 . S
C578 C586 1.574 . S
C578 C594 1.368 . S
H579 C587 0.950 . S
H580 C585 0.950 . S
H581 C586 0.949 . S
H582 C588 0.950 . S
H583 C589 0.950 . S
H584 C590 0.949 . S
C585 H580 0.950 . S
C585 C587 1.327 . S
C585 C591 1.429 . S
C586 C578 1.574 . S
C586 H581 0.949 . S
C586 C592 1.368 . S
C587 C571 1.349 . S
C587 H579 0.950 . S
C587 C585 1.327 . S
C588 C576 1.349 . S
C588 H582 0.950 . S
C588 C589 1.327 . S
C589 H583 0.950 . S
C589 C588 1.327 . S
C589 C593 1.429 . S
C590 C573 1.574 . S
C590 H584 0.949 . S
C590 C594 1.368 . S
C591 C572 1.429 . S
C591 C585 1.429 . S
C591 C592 1.523 . S
C592 C573 1.368 . S
C592 C586 1.368 . S
C592 C591 1.523 . S
C593 C577 1.429 . S
C593 C589 1.429 . S
C593 C594 1.523 . S
C594 C578 1.368 . S
C594 C590 1.368 . S
C594 C593 1.523 . S
H595 C570 0.950 . S
H596 C572 0.950 . S
H597 C573 0.949 . S
H598 C575 0.950 . S
H599 C577 0.950 . S
C600 C601 1.349 . S
C600 C602 1.327 . S
C600 H625 0.950 . S
C601 C600 1.349 . S
C601 C617 1.349 . S
C602 C600 1.327 . S
C602 C621 1.429 . S
C602 H626 0.950 . S
C603 C620 1.574 . S
C603 C622 1.368 . S
C603 H627 0.949 . S
H604 C608 0.949 . S
C605 C606 1.349 . S
C605 C607 1.327 . S
C605 H628 0.950 . S
C606 C605 1.349 . S
C606 C618 1.349 . S
C607 C605 1.327 . S
C607 C623 1.429 . S
C607 H629 0.950 . S
C608 H604 0.949 . S
C608 C616 1.574 . S
C608 C624 1.368 . S
H609 C617 0.950 . S
H610 C615 0.950 . S
H611 C616 0.949 . S
H612 C618 0.950 . S
H613 C619 0.950 . S
H614 C620 0.949 . S
C615 H610 0.950 . S
C615 C617 1.327 . S
C615 C621 1.429 . S
C616 C608 1.574 . S
C616 H611 0.949 . S
C616 C622 1.368 . S
C617 C601 1.349 . S
C617 H609 0.950 . S
C617 C615 1.327 . S
C618 C606 1.349 . S
C618 H612 0.950 . S
C618 C619 1.327 . S
C619 H613 0.950 . S
C619 C618 1.327 . S
C619 C623 1.429 . S
C620 C603 1.574 . S
C620 H614 0.949 . S
C620 C624 1.368 . S
C621 C602 1.429 . S
C621 C615 1.429 . S
C621 C622 1.523 1_545 S
C622 C603 1.368 . S
C622 C616 1.368 . S
C622 C621 1.523 1_565 S
C623 C607 1.429 . S
C623 C619 1.429 . S
C623 C624 1.523 . S
C624 C608 1.368 . S
C624 C620 1.368 . S
C624 C623 1.523 . S
H625 C600 0.950 . S
H626 C602 0.950 . S
H627 C603 0.949 . S
H628 C605 0.950 . S
H629 C607 0.950 . S
C630 C631 1.349 1_556 S
C630 C632 1.327 . S
C630 H655 0.950 . S
C631 C630 1.349 1_554 S
C631 C647 1.349 . S
C632 C630 1.327 . S
C632 C651 1.429 . S
C632 H656 0.950 . S
C633 C650 1.574 . S
C633 C652 1.368 1_554 S
C633 H657 0.949 . S
H634 C638 0.949 . S
C635 C636 1.349 1_554 S
C635 C637 1.327 . S
C635 H658 0.950 . S
C636 C635 1.349 1_556 S
C636 C648 1.349 . S
C637 C635 1.327 . S
C637 C653 1.429 1_554 S
C637 H659 0.950 . S
C638 H634 0.949 . S
C638 C646 1.574 . S
C638 C654 1.368 . S
H639 C647 0.950 . S
H640 C645 0.950 . S
H641 C646 0.949 . S
H642 C648 0.950 . S
H643 C649 0.950 . S
H644 C650 0.949 . S
C645 H640 0.950 . S
C645 C647 1.327 . S
C645 C651 1.429 1_554 S
C646 C638 1.574 . S
C646 H641 0.949 . S
C646 C652 1.368 . S
C647 C631 1.349 . S
C647 H639 0.950 . S
C647 C645 1.327 . S
C648 C636 1.349 . S
C648 H642 0.950 . S
C648 C649 1.327 . S
C649 H643 0.950 . S
C649 C648 1.327 . S
C649 C653 1.429 . S
C650 C633 1.574 . S
C650 H644 0.949 . S
C650 C654 1.368 1_554 S
C651 C632 1.429 . S
C651 C645 1.429 1_556 S
C651 C652 1.523 . S
C652 C633 1.368 1_556 S
C652 C646 1.368 . S
C652 C651 1.523 . S
C653 C637 1.429 1_556 S
C653 C649 1.429 . S
C653 C654 1.523 . S
C654 C638 1.368 . S
C654 C650 1.368 1_556 S
C654 C653 1.523 . S
H655 C630 0.950 . S
H656 C632 0.950 . S
H657 C633 0.949 . S
H658 C635 0.950 . S
H659 C637 0.950 . S
C660 C661 1.349 . S
C660 C662 1.327 1_565 S
C660 H685 0.950 . S
C661 C660 1.349 . S
C661 C677 1.349 1_556 S
C662 C660 1.327 1_545 S
C662 C681 1.429 . S
C662 H686 0.950 . S
C663 C680 1.574 . S
C663 C682 1.368 1_554 S
C663 H687 0.949 . S
H664 C668 0.949 . S
C665 C666 1.349 . S
C665 C667 1.327 . S
C665 H688 0.950 . S
C666 C665 1.349 . S
C666 C678 1.349 1_554 S
C667 C665 1.327 . S
C667 C683 1.418 1_554 S
C667 H689 0.950 . S
C668 H664 0.949 . S
C668 C676 1.574 . S
C668 C684 1.368 . S
H669 C677 0.950 . S
H670 C675 0.950 1_545 S
H671 C676 0.949 . S
H672 C678 0.950 . S
H673 C679 0.950 . S
H674 C680 0.949 . S
C675 H670 0.950 1_565 S
C675 C677 1.325 . S
C675 C681 1.430 1_564 S
C676 C668 1.574 . S
C676 H671 0.949 . S
C676 C682 1.368 . S
C677 C661 1.349 1_554 S
C677 H669 0.950 . S
C677 C675 1.325 . S
C678 C666 1.349 1_556 S
C678 H672 0.950 . S
C678 C679 1.327 . S
C679 H673 0.950 . S
C679 C678 1.327 . S
C679 C683 1.438 . S
C680 C663 1.574 . S
C680 H674 0.949 . S
C680 C684 1.368 1_554 S
C681 C662 1.429 . S
C681 C675 1.430 1_546 S
C681 C682 1.523 . S
C682 C663 1.368 1_556 S
C682 C676 1.368 . S
C682 C681 1.523 . S
C683 C667 1.418 1_556 S
C683 C679 1.438 . S
C683 C684 1.524 . S
C684 C668 1.368 . S
C684 C680 1.368 1_556 S
C684 C683 1.524 . S
H685 C660 0.950 . S
H686 C662 0.950 . S
H687 C663 0.949 . S
H688 C665 0.950 . S
H689 C667 0.950 . S
C690 C691 1.349 . S
C690 C692 1.327 . S
C690 H715 0.950 . S
C691 C690 1.349 . S
C691 C707 1.349 1_554 S
C692 C690 1.327 . S
C692 C711 1.429 1_554 S
C692 H716 0.950 . S
C693 C710 1.574 . S
C693 C712 1.368 . S
C693 H717 0.949 . S
H694 C698 0.949 . S
C695 C696 1.349 . S
C695 C697 1.327 . S
C695 H718 0.950 . S
C696 C695 1.349 . S
C696 C708 1.349 . S
C697 C695 1.327 . S
C697 C713 1.429 . S
C697 H719 0.950 . S
C698 H694 0.949 . S
C698 C706 1.574 . S
C698 C714 1.368 1_554 S
H699 C707 0.950 . S
H700 C705 0.950 . S
H701 C706 0.949 . S
H702 C708 0.950 1_554 S
H703 C709 0.950 . S
H704 C710 0.949 . S
C705 H700 0.950 . S
C705 C707 1.327 . S
C705 C711 1.429 . S
C706 C698 1.574 . S
C706 H701 0.949 . S
C706 C712 1.368 1_554 S
C707 C691 1.349 1_556 S
C707 H699 0.950 . S
C707 C705 1.327 . S
C708 C696 1.349 . S
C708 H702 0.950 1_556 S
C708 C709 1.327 1_556 S
C709 H703 0.950 . S
C709 C708 1.327 1_554 S
C709 C713 1.429 1_554 S
C710 C693 1.574 . S
C710 H704 0.949 . S
C710 C714 1.368 . S
C711 C692 1.429 1_556 S
C711 C705 1.429 . S
C711 C712 1.523 . S
C712 C693 1.368 . S
C712 C706 1.368 1_556 S
C712 C711 1.523 . S
C713 C697 1.429 . S
C713 C709 1.429 1_556 S
C713 C714 1.523 1_455 S
C714 C698 1.368 1_556 S
C714 C710 1.368 . S
C714 C713 1.523 1_655 S
H715 C690 0.950 . S
H716 C692 0.950 . S
H717 C693 0.949 . S
H718 C695 0.950 . S
H719 C697 0.950 . S
C720 C721 1.349 . S
C720 C722 1.327 . S
C720 H745 0.950 . S
C721 C720 1.349 . S
C721 C737 1.349 . S
C722 C720 1.327 . S
C722 C741 1.429 . S
C722 H746 0.950 . S
C723 C740 1.574 . S
C723 C742 1.368 . S
C723 H747 0.949 . S
H724 C728 0.949 . S
C725 C726 1.349 . S
C725 C727 1.327 . S
C725 H748 0.950 . S
C726 C725 1.349 . S
C726 C738 1.349 . S
C727 C725 1.327 . S
C727 C743 1.429 . S
C727 H749 0.950 . S
C728 H724 0.949 . S
C728 C736 1.574 . S
C728 C744 1.368 . S
H729 C737 0.950 . S
H730 C735 0.950 . S
H731 C736 0.949 . S
H732 C738 0.950 . S
H733 C739 0.950 . S
H734 C740 0.949 . S
C735 H730 0.950 . S
C735 C737 1.327 . S
C735 C741 1.429 . S
C736 C728 1.574 . S
C736 H731 0.949 . S
C736 C742 1.368 . S
C737 C721 1.349 . S
C737 H729 0.950 . S
C737 C735 1.327 . S
C738 C726 1.349 . S
C738 H732 0.950 . S
C738 C739 1.327 . S
C739 H733 0.950 . S
C739 C738 1.327 . S
C739 C743 1.429 . S
C740 C723 1.574 . S
C740 H734 0.949 . S
C740 C744 1.368 . S
C741 C722 1.429 . S
C741 C735 1.429 . S
C741 C742 1.523 . S
C742 C723 1.368 . S
C742 C736 1.368 . S
C742 C741 1.523 . S
C743 C727 1.429 . S
C743 C739 1.429 . S
C743 C744 1.523 . S
C744 C728 1.368 . S
C744 C740 1.368 . S
C744 C743 1.523 . S
H745 C720 0.950 . S
H746 C722 0.950 . S
H747 C723 0.949 . S
H748 C725 0.950 . S
H749 C727 0.950 . S
C750 C751 1.349 . S
C750 C752 1.327 . S
C750 H775 0.950 . S
C751 C750 1.349 . S
C751 C767 1.349 . S
C752 C750 1.327 . S
C752 C771 1.429 . S
C752 H776 0.950 . S
C753 C770 1.574 . S
C753 C772 1.368 . S
C753 H777 0.949 . S
H754 C758 0.949 . S
C755 C756 1.349 . S
C755 C757 1.327 . S
C755 H778 0.950 . S
C756 C755 1.349 . S
C756 C768 1.349 . S
C757 C755 1.327 . S
C757 C773 1.429 . S
C757 H779 0.950 . S
C758 H754 0.949 . S
C758 C766 1.574 . S
C758 C774 1.368 . S
H759 C767 0.950 . S
H760 C765 0.950 . S
H761 C766 0.949 . S
H762 C768 0.950 . S
H763 C769 0.950 . S
H764 C770 0.949 . S
C765 H760 0.950 . S
C765 C767 1.327 . S
C765 C771 1.429 . S
C766 C758 1.574 . S
C766 H761 0.949 . S
C766 C772 1.368 . S
C767 C751 1.349 . S
C767 H759 0.950 . S
C767 C765 1.327 . S
C768 C756 1.349 . S
C768 H762 0.950 . S
C768 C769 1.327 . S
C769 H763 0.950 . S
C769 C768 1.327 . S
C769 C773 1.429 . S
C770 C753 1.574 . S
C770 H764 0.949 . S
C770 C774 1.368 . S
C771 C752 1.429 . S
C771 C765 1.429 . S
C771 C772 1.523 . S
C772 C753 1.368 . S
C772 C766 1.368 . S
C772 C771 1.523 . S
C773 C757 1.429 . S
C773 C769 1.429 . S
C773 C774 1.523 . S
C774 C758 1.368 . S
C774 C770 1.368 . S
C774 C773 1.523 . S
H775 C750 0.950 . S
H776 C752 0.950 . S
H777 C753 0.949 . S
H778 C755 0.950 . S
H779 C757 0.950 . S
C780 C781 1.349 . S
C780 C782 1.327 . S
C780 H805 0.950 . S
C781 C780 1.349 . S
C781 C797 1.349 . S
C782 C780 1.327 . S
C782 C801 1.429 . S
C782 H806 0.950 . S
C783 C800 1.574 . S
C783 C802 1.368 . S
C783 H807 0.949 . S
H784 C788 0.949 . S
C785 C786 1.349 . S
C785 C787 1.327 . S
C785 H808 0.950 . S
C786 C785 1.349 . S
C786 C798 1.349 . S
C787 C785 1.327 . S
C787 C803 1.429 . S
C787 H809 0.950 . S
C788 H784 0.949 . S
C788 C796 1.574 . S
C788 C804 1.368 . S
H789 C797 0.950 . S
H790 C795 0.950 . S
H791 C796 0.949 . S
H792 C798 0.950 . S
H793 C799 0.950 . S
H794 C800 0.949 . S
C795 H790 0.950 . S
C795 C797 1.327 . S
C795 C801 1.429 . S
C796 C788 1.574 . S
C796 H791 0.949 . S
C796 C802 1.368 . S
C797 C781 1.349 . S
C797 H789 0.950 . S
C797 C795 1.327 . S
C798 C786 1.349 . S
C798 H792 0.950 . S
C798 C799 1.327 . S
C799 H793 0.950 . S
C799 C798 1.327 . S
C799 C803 1.429 . S
C800 C783 1.574 . S
C800 H794 0.949 . S
C800 C804 1.368 . S
C801 C782 1.429 . S
C801 C795 1.429 . S
C801 C802 1.523 . S
C802 C783 1.368 . S
C802 C796 1.368 . S
C802 C801 1.523 . S
C803 C787 1.429 . S
C803 C799 1.429 . S
C803 C804 1.523 . S
C804 C788 1.368 . S
C804 C800 1.368 . S
C804 C803 1.523 . S
H805 C780 0.950 . S
H806 C782 0.950 . S
H807 C783 0.949 . S
H808 C785 0.950 . S
H809 C787 0.950 . S
C810 C811 1.349 . S
C810 C812 1.327 . S
C810 H835 0.950 . S
C811 C810 1.349 . S
C811 C827 1.349 . S
C812 C810 1.327 . S
C812 C831 1.429 . S
C812 H836 0.950 . S
C813 C830 1.574 . S
C813 C832 1.368 . S
C813 H837 0.949 . S
H814 C818 0.949 . S
C815 C816 1.349 . S
C815 C817 1.327 . S
C815 H838 0.950 . S
C816 C815 1.349 . S
C816 C828 1.349 . S
C817 C815 1.327 . S
C817 C833 1.429 . S
C817 H839 0.950 . S
C818 H814 0.949 . S
C818 C826 1.574 . S
C818 C834 1.368 . S
H819 C827 0.950 . S
H820 C825 0.950 . S
H821 C826 0.949 . S
H822 C828 0.950 . S
H823 C829 0.950 . S
H824 C830 0.949 . S
C825 H820 0.950 . S
C825 C827 1.327 . S
C825 C831 1.429 . S
C826 C818 1.574 . S
C826 H821 0.949 . S
C826 C832 1.368 . S
C827 C811 1.349 . S
C827 H819 0.950 . S
C827 C825 1.327 . S
C828 C816 1.349 . S
C828 H822 0.950 . S
C828 C829 1.327 . S
C829 H823 0.950 . S
C829 C828 1.327 . S
C829 C833 1.429 . S
C830 C813 1.574 . S
C830 H824 0.949 . S
C830 C834 1.368 . S
C831 C812 1.429 . S
C831 C825 1.429 . S
C831 C832 1.523 . S
C832 C813 1.368 . S
C832 C826 1.368 . S
C832 C831 1.523 . S
C833 C817 1.429 . S
C833 C829 1.429 . S
C833 C834 1.523 . S
C834 C818 1.368 . S
C834 C830 1.368 . S
C834 C833 1.523 . S
H835 C810 0.950 . S
H836 C812 0.950 . S
H837 C813 0.949 . S
H838 C815 0.950 . S
H839 C817 0.950 . S
C840 C841 1.349 . S
C840 C842 1.327 . S
C840 H865 0.950 . S
C841 C840 1.349 . S
C841 C857 1.349 . S
C842 C840 1.327 . S
C842 C861 1.429 . S
C842 H866 0.950 . S
C843 C860 1.574 . S
C843 C862 1.368 . S
C843 H867 0.949 . S
H844 C848 0.949 . S
C845 C846 1.349 . S
C845 C847 1.327 . S
C845 H868 0.950 . S
C846 C845 1.349 . S
C846 C858 1.349 . S
C847 C845 1.327 . S
C847 C863 1.429 . S
C847 H869 0.950 . S
C848 H844 0.949 . S
C848 C856 1.574 . S
C848 C864 1.368 . S
H849 C857 0.950 . S
H850 C855 0.950 . S
H851 C856 0.949 . S
H852 C858 0.950 . S
H853 C859 0.950 . S
H854 C860 0.949 . S
C855 H850 0.950 . S
C855 C857 1.327 . S
C855 C861 1.429 . S
C856 C848 1.574 . S
C856 H851 0.949 . S
C856 C862 1.368 . S
C857 C841 1.349 . S
C857 H849 0.950 . S
C857 C855 1.327 . S
C858 C846 1.349 . S
C858 H852 0.950 . S
C858 C859 1.327 . S
C859 H853 0.950 . S
C859 C858 1.327 . S
C859 C863 1.429 . S
C860 C843 1.574 . S
C860 H854 0.949 . S
C860 C864 1.368 . S
C861 C842 1.429 . S
C861 C855 1.429 . S
C861 C862 1.523 . S
C862 C843 1.368 . S
C862 C856 1.368 . S
C862 C861 1.523 . S
C863 C847 1.429 . S
C863 C859 1.429 . S
C863 C864 1.523 . S
C864 C848 1.368 . S
C864 C860 1.368 . S
C864 C863 1.523 . S
H865 C840 0.950 . S
H866 C842 0.950 . S
H867 C843 0.949 . S
H868 C845 0.950 . S
H869 C847 0.950 . S
C870 C871 1.349 . S
C870 C872 1.327 . S
C870 H895 0.950 . S
C871 C870 1.349 . S
C871 C887 1.349 . S
C872 C870 1.327 . S
C872 C891 1.429 . S
C872 H896 0.950 . S
C873 C890 1.574 . S
C873 C892 1.368 . S
C873 H897 0.949 . S
H874 C878 0.949 . S
C875 C876 1.349 . S
C875 C877 1.327 . S
C875 H898 0.950 . S
C876 C875 1.349 . S
C876 C888 1.349 . S
C877 C875 1.327 . S
C877 C893 1.429 . S
C877 H899 0.950 . S
C878 H874 0.949 . S
C878 C886 1.574 . S
C878 C894 1.368 . S
H879 C887 0.950 . S
H880 C885 0.950 . S
H881 C886 0.949 . S
H882 C888 0.950 . S
H883 C889 0.950 . S
H884 C890 0.949 . S
C885 H880 0.950 . S
C885 C887 1.327 . S
C885 C891 1.429 . S
C886 C878 1.574 . S
C886 H881 0.949 . S
C886 C892 1.368 . S
C887 C871 1.349 . S
C887 H879 0.950 . S
C887 C885 1.327 . S
C888 C876 1.349 . S
C888 H882 0.950 . S
C888 C889 1.327 . S
C889 H883 0.950 . S
C889 C888 1.327 . S
C889 C893 1.429 . S
C890 C873 1.574 . S
C890 H884 0.949 . S
C890 C894 1.368 . S
C891 C872 1.429 . S
C891 C885 1.429 . S
C891 C892 1.523 . S
C892 C873 1.368 . S
C892 C886 1.368 . S
C892 C891 1.523 . S
C893 C877 1.429 . S
C893 C889 1.429 . S
C893 C894 1.523 . S
C894 C878 1.368 . S
C894 C890 1.368 . S
C894 C893 1.523 . S
H895 C870 0.950 . S
H896 C872 0.950 . S
H897 C873 0.949 . S
H898 C875 0.950 . S
H899 C877 0.950 . S
C900 C901 1.349 1_655 S
C900 C902 1.327 . S
C900 H925 0.950 . S
C901 C900 1.349 1_455 S
C901 C917 1.349 . S
C902 C900 1.327 . S
C902 C921 1.429 1_655 S
C902 H926 0.950 . S
C903 C920 1.574 . S
C903 C922 1.368 . S
C903 H927 0.949 . S
H904 C908 0.949 . S
C905 C906 1.349 . S
C905 C907 1.327 . S
C905 H928 0.950 . S
C906 C905 1.349 . S
C906 C918 1.349 1_455 S
C907 C905 1.327 . S
C907 C923 1.429 . S
C907 H929 0.950 . S
C908 H904 0.949 . S
C908 C916 1.574 . S
C908 C924 1.368 1_655 S
H909 C917 0.950 . S
H910 C915 0.950 . S
H911 C916 0.949 . S
H912 C918 0.950 . S
H913 C919 0.950 . S
H914 C920 0.949 . S
C915 H910 0.950 . S
C915 C917 1.327 . S
C915 C921 1.429 . S
C916 C908 1.574 . S
C916 H911 0.949 . S
C916 C922 1.368 1_655 S
C917 C901 1.349 . S
C917 H909 0.950 . S
C917 C915 1.327 . S
C918 C906 1.349 1_655 S
C918 H912 0.950 . S
C918 C919 1.327 . S
C919 H913 0.950 . S
C919 C918 1.327 . S
C919 C923 1.429 1_655 S
C920 C903 1.574 . S
C920 H914 0.949 . S
C920 C924 1.368 . S
C921 C902 1.429 1_455 S
C921 C915 1.429 . S
C921 C922 1.523 . S
C922 C903 1.368 . S
C922 C916 1.368 1_455 S
C922 C921 1.523 . S
C923 C907 1.429 . S
C923 C919 1.429 1_455 S
C923 C924 1.523 . S
C924 C908 1.368 1_455 S
C924 C920 1.368 . S
C924 C923 1.523 . S
H925 C900 0.950 . S
H926 C902 0.950 . S
H927 C903 0.949 . S
H928 C905 0.950 . S
H929 C907 0.950 . S
C930 C931 1.349 . S
C930 C932 1.327 . S
C930 H955 0.950 . S
C931 C930 1.349 . S
C931 C947 1.349 . S
C932 C930 1.327 . S
C932 C951 1.429 . S
C932 H956 0.950 . S
C933 C950 1.574 . S
C933 C952 1.368 . S
C933 H957 0.949 . S
H934 C938 0.949 . S
C935 C936 1.349 . S
C935 C937 1.327 . S
C935 H958 0.950 . S
C936 C935 1.349 . S
C936 C948 1.349 . S
C937 C935 1.327 . S
C937 C953 1.429 . S
C937 H959 0.950 . S
C938 H934 0.949 . S
C938 C946 1.574 . S
C938 C954 1.368 . S
H939 C947 0.950 . S
H940 C945 0.950 . S
H941 C946 0.949 . S
H942 C948 0.950 . S
H943 C949 0.950 . S
H944 C950 0.949 . S
C945 H940 0.950 . S
C945 C947 1.327 . S
C945 C951 1.429 . S
C946 C938 1.574 . S
C946 H941 0.949 . S
C946 C952 1.368 . S
C947 C931 1.349 . S
C947 H939 0.950 . S
C947 C945 1.327 . S
C948 C936 1.349 . S
C948 H942 0.950 . S
C948 C949 1.327 . S
C949 H943 0.950 . S
C949 C948 1.327 . S
C949 C953 1.429 . S
C950 C933 1.574 . S
C950 H944 0.949 . S
C950 C954 1.368 . S
C951 C932 1.429 . S
C951 C945 1.429 . S
C951 C952 1.523 . S
C952 C933 1.368 . S
C952 C946 1.368 . S
C952 C951 1.523 . S
C953 C937 1.429 . S
C953 C949 1.429 . S
C953 C954 1.523 . S
C954 C938 1.368 . S
C954 C950 1.368 . S
C954 C953 1.523 . S
H955 C930 0.950 . S
H956 C932 0.950 . S
H957 C933 0.949 . S
H958 C935 0.950 . S
H959 C937 0.950 . S
C960 C961 1.349 . S
C960 C962 1.327 . S
C960 H985 0.950 . S
C961 C960 1.349 . S
C961 C977 1.349 1_545 S
C962 C960 1.327 . S
C962 C981 1.429 . S
C962 H986 0.950 . S
C963 C980 1.574 . S
C963 C982 1.368 1_565 S
C963 H987 0.949 . S
H964 C968 0.949 . S
C965 C966 1.349 1_565 S
C965 C967 1.327 . S
C965 H988 0.950 . S
C966 C965 1.349 1_545 S
C966 C978 1.349 . S
C967 C965 1.327 . S
C967 C983 1.429 1_565 S
C967 H989 0.950 . S
C968 H964 0.949 . S
C968 C976 1.574 . S
C968 C984 1.368 . S
H969 C977 0.950 . S
H970 C975 0.950 . S
H971 C976 0.949 . S
H972 C978 0.950 . S
H973 C979 0.950 . S
H974 C980 0.949 . S
C975 H970 0.950 . S
C975 C977 1.327 . S
C975 C981 1.429 1_565 S
C976 C968 1.574 . S
C976 H971 0.949 . S
C976 C982 1.368 . S
C977 C961 1.349 1_565 S
C977 H969 0.950 . S
C977 C975 1.327 . S
C978 C966 1.349 . S
C978 H972 0.950 . S
C978 C979 1.327 . S
C979 H973 0.950 . S
C979 C978 1.327 . S
C979 C983 1.429 . S
C980 C963 1.574 . S
C980 H974 0.949 . S
C980 C984 1.368 1_565 S
C981 C962 1.429 . S
C981 C975 1.429 1_545 S
C981 C982 1.523 . S
C982 C963 1.368 1_545 S
C982 C976 1.368 . S
C982 C981 1.523 . S
C983 C967 1.429 1_545 S
C983 C979 1.429 . S
C983 C984 1.523 . S
C984 C968 1.368 . S
C984 C980 1.368 1_545 S
C984 C983 1.523 . S
H985 C960 0.950 . S
H986 C962 0.950 . S
H987 C963 0.949 . S
H988 C965 0.950 . S
H989 C967 0.950 . S
C990 C991 1.349 . S
C990 C992 1.327 . S
C990 H1015 0.950 . S
C991 C990 1.349 . S
C991 C1007 1.349 . S
C992 C990 1.327 . S
C992 C1011 1.429 . S
C992 H1016 0.950 . S
C993 C1010 1.574 . S
C993 C1012 1.368 . S
C993 H1017 0.949 . S
H994 C998 0.949 . S
C995 C996 1.349 . S
C995 C997 1.327 . S
C995 H1018 0.950 . S
C996 C995 1.349 . S
C996 C1008 1.349 . S
C997 C995 1.327 . S
C997 C1013 1.429 1_554 S
C997 H1019 0.950 . S
C998 H994 0.949 . S
C998 C1006 1.574 . S
C998 C1014 1.368 . S
H999 C1007 0.950 . S
H1000 C1005 0.950 . S
H1001 C1006 0.949 . S
H1002 C1008 0.950 . S
H1003 C1009 0.950 . S
H1004 C1010 0.949 . S
C1005 H1000 0.950 . S
C1005 C1007 1.327 . S
C1005 C1011 1.429 . S
C1006 C998 1.574 . S
C1006 H1001 0.949 . S
C1006 C1012 1.368 . S
C1007 C991 1.349 . S
C1007 H999 0.950 . S
C1007 C1005 1.327 . S
C1008 C996 1.349 . S
C1008 H1002 0.950 . S
C1008 C1009 1.327 . S
C1009 H1003 0.950 . S
C1009 C1008 1.327 . S
C1009 C1013 1.429 1_554 S
C1010 C993 1.574 . S
C1010 H1004 0.949 . S
C1010 C1014 1.368 . S
C1011 C992 1.429 . S
C1011 C1005 1.429 . S
C1011 C1012 1.523 . S
C1012 C993 1.368 . S
C1012 C1006 1.368 . S
C1012 C1011 1.523 . S
C1013 C997 1.429 1_556 S
C1013 C1009 1.429 1_556 S
C1013 C1014 1.523 . S
C1014 C998 1.368 . S
C1014 C1010 1.368 . S
C1014 C1013 1.523 . S
H1015 C990 0.950 . S
H1016 C992 0.950 . S
H1017 C993 0.949 . S
H1018 C995 0.950 . S
H1019 C997 0.950 . S
C1020 C1021 1.349 . S
C1020 C1022 1.327 . S
C1020 H1045 0.950 . S
C1021 C1020 1.349 . S
C1021 C1037 1.349 . S
C1022 C1020 1.327 . S
C1022 C1041 1.429 . S
C1022 H1046 0.950 . S
C1023 C1040 1.574 . S
C1023 C1042 1.368 . S
C1023 H1047 0.949 . S
H1024 C1028 0.949 . S
C1025 C1026 1.349 . S
C1025 C1027 1.327 . S
C1025 H1048 0.950 . S
C1026 C1025 1.349 . S
C1026 C1038 1.349 . S
C1027 C1025 1.327 . S
C1027 C1043 1.429 1_554 S
C1027 H1049 0.950 . S
C1028 H1024 0.949 . S
C1028 C1036 1.574 . S
C1028 C1044 1.368 . S
H1029 C1037 0.950 . S
H1030 C1035 0.950 . S
H1031 C1036 0.949 . S
H1032 C1038 0.950 . S
H1033 C1039 0.950 . S
H1034 C1040 0.949 . S
C1035 H1030 0.950 . S
C1035 C1037 1.327 . S
C1035 C1041 1.429 . S
C1036 C1028 1.574 . S
C1036 H1031 0.949 . S
C1036 C1042 1.368 . S
C1037 C1021 1.349 . S
C1037 H1029 0.950 . S
C1037 C1035 1.327 . S
C1038 C1026 1.349 . S
C1038 H1032 0.950 . S
C1038 C1039 1.327 . S
C1039 H1033 0.950 . S
C1039 C1038 1.327 . S
C1039 C1043 1.429 1_554 S
C1040 C1023 1.574 . S
C1040 H1034 0.949 . S
C1040 C1044 1.368 . S
C1041 C1022 1.429 . S
C1041 C1035 1.429 . S
C1041 C1042 1.523 . S
C1042 C1023 1.368 . S
C1042 C1036 1.368 . S
C1042 C1041 1.523 . S
C1043 C1027 1.429 1_556 S
C1043 C1039 1.429 1_556 S
C1043 C1044 1.523 . S
C1044 C1028 1.368 . S
C1044 C1040 1.368 . S
C1044 C1043 1.523 . S
H1045 C1020 0.950 . S
H1046 C1022 0.950 . S
H1047 C1023 0.949 . S
H1048 C1025 0.950 . S
H1049 C1027 0.950 . S
C1050 C1051 1.349 . S
C1050 C1052 1.327 . S
C1050 H1075 0.950 . S
C1051 C1050 1.349 . S
C1051 C1067 1.349 . S
C1052 C1050 1.327 . S
C1052 C1071 1.429 . S
C1052 H1076 0.950 . S
C1053 C1070 1.574 . S
C1053 C1072 1.368 . S
C1053 H1077 0.949 . S
H1054 C1058 0.949 . S
C1055 C1056 1.349 . S
C1055 C1057 1.327 . S
C1055 H1078 0.950 . S
C1056 C1055 1.349 . S
C1056 C1068 1.349 . S
C1057 C1055 1.327 . S
C1057 C1073 1.429 1_554 S
C1057 H1079 0.950 . S
C1058 H1054 0.949 . S
C1058 C1066 1.574 . S
C1058 C1074 1.368 . S
H1059 C1067 0.950 . S
H1060 C1065 0.950 . S
H1061 C1066 0.949 . S
H1062 C1068 0.950 . S
H1063 C1069 0.950 . S
H1064 C1070 0.949 . S
C1065 H1060 0.950 . S
C1065 C1067 1.327 . S
C1065 C1071 1.429 . S
C1066 C1058 1.574 . S
C1066 H1061 0.949 . S
C1066 C1072 1.368 . S
C1067 C1051 1.349 . S
C1067 H1059 0.950 . S
C1067 C1065 1.327 . S
C1068 C1056 1.349 . S
C1068 H1062 0.950 . S
C1068 C1069 1.327 . S
C1069 H1063 0.950 . S
C1069 C1068 1.327 . S
C1069 C1073 1.429 1_554 S
C1070 C1053 1.574 . S
C1070 H1064 0.949 . S
C1070 C1074 1.368 . S
C1071 C1052 1.429 . S
C1071 C1065 1.429 . S
C1071 C1072 1.523 . S
C1072 C1053 1.368 . S
C1072 C1066 1.368 . S
C1072 C1071 1.523 . S
C1073 C1057 1.429 1_556 S
C1073 C1069 1.429 1_556 S
C1073 C1074 1.523 . S
C1074 C1058 1.368 . S
C1074 C1070 1.368 . S
C1074 C1073 1.523 . S
H1075 C1050 0.950 . S
H1076 C1052 0.950 . S
H1077 C1053 0.949 . S
H1078 C1055 0.950 . S
H1079 C1057 0.950 . S
C1080 C1081 1.349 . S
C1080 C1082 1.327 . S
C1080 H1105 0.950 . S
C1081 C1080 1.349 . S
C1081 C1097 1.349 . S
C1082 C1080 1.327 . S
C1082 C1101 1.429 . S
C1082 H1106 0.950 . S
C1083 C1100 1.574 . S
C1083 C1102 1.368 . S
C1083 H1107 0.949 . S
H1084 C1088 0.949 . S
C1085 C1086 1.349 . S
C1085 C1087 1.327 . S
C1085 H1108 0.950 . S
C1086 C1085 1.349 . S
C1086 C1098 1.349 . S
C1087 C1085 1.327 . S
C1087 C1103 1.429 1_556 S
C1087 H1109 0.949 1_556 S
C1088 H1084 0.949 . S
C1088 C1096 1.574 . S
C1088 C1104 1.368 . S
H1089 C1097 0.950 . S
H1090 C1095 0.950 . S
H1091 C1096 0.949 . S
H1092 C1098 0.950 . S
H1093 C1099 0.950 . S
H1094 C1100 0.949 . S
C1095 H1090 0.950 . S
C1095 C1097 1.327 . S
C1095 C1101 1.429 . S
C1096 C1088 1.574 . S
C1096 H1091 0.949 . S
C1096 C1102 1.368 . S
C1097 C1081 1.349 . S
C1097 H1089 0.950 . S
C1097 C1095 1.327 . S
C1098 C1086 1.349 . S
C1098 H1092 0.950 . S
C1098 C1099 1.327 . S
C1099 H1093 0.950 . S
C1099 C1098 1.327 . S
C1099 C1103 1.429 1_556 S
C1100 C1083 1.574 . S
C1100 H1094 0.949 . S
C1100 C1104 1.368 . S
C1101 C1082 1.429 . S
C1101 C1095 1.429 . S
C1101 C1102 1.523 . S
C1102 C1083 1.368 . S
C1102 C1096 1.368 . S
C1102 C1101 1.523 . S
C1103 C1087 1.429 1_554 S
C1103 C1099 1.429 1_554 S
C1103 C1104 1.523 . S
C1104 C1088 1.368 . S
C1104 C1100 1.368 . S
C1104 C1103 1.523 . S
H1105 C1080 0.950 . S
H1106 C1082 0.950 . S
H1107 C1083 0.949 . S
H1108 C1085 0.950 . S
H1109 C1087 0.949 1_554 S
C1110 C1111 1.349 . S
C1110 C1112 1.327 . S
C1110 H1135 0.950 . S
C1111 C1110 1.349 . S
C1111 C1127 1.349 . S
C1112 C1110 1.327 . S
C1112 C1131 1.429 1_556 S
C1112 H1136 0.950 . S
C1113 C1130 1.574 . S
C1113 C1132 1.368 . S
C1113 H1137 0.949 . S
H1114 C1118 0.949 . S
C1115 C1116 1.349 . S
C1115 C1117 1.327 . S
C1115 H1138 0.950 . S
C1116 C1115 1.349 . S
C1116 C1128 1.349 . S
C1117 C1115 1.327 . S
C1117 C1133 1.429 . S
C1117 H1139 0.950 . S
C1118 H1114 0.949 . S
C1118 C1126 1.574 . S
C1118 C1134 1.368 . S
H1119 C1127 0.950 . S
H1120 C1125 0.950 . S
H1121 C1126 0.949 . S
H1122 C1128 0.950 . S
H1123 C1129 0.950 . S
H1124 C1130 0.949 . S
C1125 H1120 0.950 . S
C1125 C1127 1.327 . S
C1125 C1131 1.429 1_556 S
C1126 C1118 1.574 . S
C1126 H1121 0.949 . S
C1126 C1132 1.368 . S
C1127 C1111 1.349 . S
C1127 H1119 0.950 . S
C1127 C1125 1.327 . S
C1128 C1116 1.349 . S
C1128 H1122 0.950 . S
C1128 C1129 1.327 . S
C1129 H1123 0.950 . S
C1129 C1128 1.327 . S
C1129 C1133 1.429 . S
C1130 C1113 1.574 . S
C1130 H1124 0.949 . S
C1130 C1134 1.368 . S
C1131 C1112 1.429 1_554 S
C1131 C1125 1.429 1_554 S
C1131 C1132 1.523 . S
C1132 C1113 1.368 . S
C1132 C1126 1.368 . S
C1132 C1131 1.523 . S
C1133 C1117 1.429 . S
C1133 C1129 1.429 . S
C1133 C1134 1.523 . S
C1134 C1118 1.368 . S
C1134 C1130 1.368 . S
C1134 C1133 1.523 . S
H1135 C1110 0.950 . S
H1136 C1112 0.950 . S
H1137 C1113 0.949 . S
H1138 C1115 0.950 . S
H1139 C1117 0.950 . S
C1140 C1141 1.349 . S
C1140 C1142 1.327 . S
C1140 H1165 0.950 . S
C1141 C1140 1.349 . S
C1141 C1157 1.349 . S
C1142 C1140 1.327 . S
C1142 C1161 1.429 . S
C1142 H1166 0.950 . S
C1143 C1160 1.574 . S
C1143 C1162 1.368 . S
C1143 H1167 0.949 . S
H1144 C1148 0.949 . S
C1145 C1146 1.349 . S
C1145 C1147 1.327 . S
C1145 H1168 0.950 . S
C1146 C1145 1.349 . S
C1146 C1158 1.349 . S
C1147 C1145 1.327 . S
C1147 C1163 1.429 1_556 S
C1147 H1169 0.950 . S
C1148 H1144 0.949 . S
C1148 C1156 1.574 . S
C1148 C1164 1.368 . S
H1149 C1157 0.950 . S
H1150 C1155 0.950 . S
H1151 C1156 0.949 . S
H1152 C1158 0.950 . S
H1153 C1159 0.950 . S
H1154 C1160 0.949 . S
C1155 H1150 0.950 . S
C1155 C1157 1.327 . S
C1155 C1161 1.429 . S
C1156 C1148 1.574 . S
C1156 H1151 0.949 . S
C1156 C1162 1.368 . S
C1157 C1141 1.349 . S
C1157 H1149 0.950 . S
C1157 C1155 1.327 . S
C1158 C1146 1.349 . S
C1158 H1152 0.950 . S
C1158 C1159 1.327 . S
C1159 H1153 0.950 . S
C1159 C1158 1.327 . S
C1159 C1163 1.429 1_556 S
C1160 C1143 1.574 . S
C1160 H1154 0.949 . S
C1160 C1164 1.368 . S
C1161 C1142 1.429 . S
C1161 C1155 1.429 . S
C1161 C1162 1.523 . S
C1162 C1143 1.368 . S
C1162 C1156 1.368 . S
C1162 C1161 1.523 . S
C1163 C1147 1.429 1_554 S
C1163 C1159 1.429 1_554 S
C1163 C1164 1.523 . S
C1164 C1148 1.368 . S
C1164 C1160 1.368 . S
C1164 C1163 1.523 . S
H1165 C1140 0.950 . S
H1166 C1142 0.950 . S
H1167 C1143 0.949 . S
H1168 C1145 0.950 . S
H1169 C1147 0.950 . S
C361 C19 1.818 . S
C366 C295 1.874 . S
C391 C59 1.816 . S
C396 C335 1.872 . S
C421 C99 1.817 . S
C426 C255 1.873 . S
C451 C179 1.817 . S
C456 C95 1.873 . S
C481 C219 1.817 . S
C486 C15 1.873 . S
C511 C55 1.872 . S
C516 C139 1.816 . S
C541 C299 1.817 . S
C546 C215 1.873 . S
C571 C339 1.815 . S
C576 C135 1.872 . S
C601 C175 1.873 . S
C606 C259 1.817 . S
C631 C89 1.706 . S
C636 C5 1.694 . S
C661 C45 1.695 . S
C666 C9 1.707 . S
C691 C49 1.707 . S
C696 C85 1.695 . S
C721 C125 1.695 . S
C726 C209 1.707 . S
C751 C129 1.708 . S
C756 C165 1.696 . S
C781 C169 1.707 . S
C786 C205 1.695 . S
C811 C329 1.707 . S
C816 C245 1.695 . S
C841 C285 1.695 . S
C846 C249 1.707 . S
C871 C325 1.697 . S
C876 C289 1.709 . S
C901 C18 0.990 . S
C906 C8 0.990 . S
C931 C58 0.990 . S
C936 C48 0.990 . S
C961 C98 0.990 . S
C966 C88 0.990 . S
C991 C128 0.990 . S
C996 C138 0.990 . S
C1021 C168 0.990 . S
C1026 C178 0.990 . S
C1051 C208 0.990 . S
C1056 C218 0.990 . S
C1081 C258 0.990 . S
C1086 C248 0.990 . S
C1111 C288 0.990 . S
C1116 C298 0.990 . S
C1141 C338 0.990 . S
C1146 C328 0.990 . S
