# Generated by pormake.
# Topology vbe, (5)-cn, num edge types: 1
# Building blocks:
#     Node 0, Type 0, BuildingBlock: XOMCOT_clean_sbu_0, # of connection points: 5
#     Node 1, Type 0, BuildingBlock: XOMCOT_clean_sbu_0, # of connection points: 5
#     Node 2, Type 0, BuildingBlock: XOMCOT_clean_sbu_0, # of connection points: 5
#     Node 3, Type 0, BuildingBlock: XOMCOT_clean_sbu_0, # of connection points: 5
#     Node 4, Type 0, BuildingBlock: XOMCOT_clean_sbu_0, # of connection points: 5
#     Node 5, Type 0, BuildingBlock: XOMCOT_clean_sbu_0, # of connection points: 5
#     Node 6, Type 0, BuildingBlock: XOMCOT_clean_sbu_0, # of connection points: 5
#     Node 7, Type 0, BuildingBlock: XOMCOT_clean_sbu_0, # of connection points: 5
#     Node 8, Type 0, BuildingBlock: XOMCOT_clean_sbu_0, # of connection points: 5
#     Node 9, Type 0, BuildingBlock: XOMCOT_clean_sbu_0, # of connection points: 5
#     Node 10, Type 0, BuildingBlock: XOMCOT_clean_sbu_0, # of connection points: 5
#     Node 11, Type 0, BuildingBlock: XOMCOT_clean_sbu_0, # of connection points: 5
#     Node 12, Type 0, BuildingBlock: XOMCOT_clean_sbu_0, # of connection points: 5
#     Node 13, Type 0, BuildingBlock: XOMCOT_clean_sbu_0, # of connection points: 5
#     Node 14, Type 0, BuildingBlock: XOMCOT_clean_sbu_0, # of connection points: 5
#     Node 15, Type 0, BuildingBlock: XOMCOT_clean_sbu_0, # of connection points: 5
#     Edge 16, Type (0, 0), BuildingBlock: ZUJKAS_clean_linker_0, # of connection points: 2
#     Edge 17, Type (0, 0), BuildingBlock: ZUJKAS_clean_linker_0, # of connection points: 2
#     Edge 18, Type (0, 0), BuildingBlock: ZUJKAS_clean_linker_0, # of connection points: 2
#     Edge 19, Type (0, 0), BuildingBlock: ZUJKAS_clean_linker_0, # of connection points: 2
#     Edge 20, Type (0, 0), BuildingBlock: ZUJKAS_clean_linker_0, # of connection points: 2
#     Edge 21, Type (0, 0), BuildingBlock: ZUJKAS_clean_linker_0, # of connection points: 2
#     Edge 22, Type (0, 0), BuildingBlock: ZUJKAS_clean_linker_0, # of connection points: 2
#     Edge 23, Type (0, 0), BuildingBlock: ZUJKAS_clean_linker_0, # of connection points: 2
#     Edge 24, Type (0, 0), BuildingBlock: ZUJKAS_clean_linker_0, # of connection points: 2
#     Edge 25, Type (0, 0), BuildingBlock: ZUJKAS_clean_linker_0, # of connection points: 2
#     Edge 26, Type (0, 0), BuildingBlock: ZUJKAS_clean_linker_0, # of connection points: 2
#     Edge 27, Type (0, 0), BuildingBlock: ZUJKAS_clean_linker_0, # of connection points: 2
#     Edge 28, Type (0, 0), BuildingBlock: ZUJKAS_clean_linker_0, # of connection points: 2
#     Edge 29, Type (0, 0), BuildingBlock: ZUJKAS_clean_linker_0, # of connection points: 2
#     Edge 30, Type (0, 0), BuildingBlock: ZUJKAS_clean_linker_0, # of connection points: 2
#     Edge 31, Type (0, 0), BuildingBlock: ZUJKAS_clean_linker_0, # of connection points: 2
#     Edge 32, Type (0, 0), BuildingBlock: ZUJKAS_clean_linker_0, # of connection points: 2
#     Edge 33, Type (0, 0), BuildingBlock: ZUJKAS_clean_linker_0, # of connection points: 2
#     Edge 34, Type (0, 0), BuildingBlock: ZUJKAS_clean_linker_0, # of connection points: 2
#     Edge 35, Type (0, 0), BuildingBlock: ZUJKAS_clean_linker_0, # of connection points: 2
#     Edge 36, Type (0, 0), BuildingBlock: ZUJKAS_clean_linker_0, # of connection points: 2
#     Edge 37, Type (0, 0), BuildingBlock: ZUJKAS_clean_linker_0, # of connection points: 2
#     Edge 38, Type (0, 0), BuildingBlock: ZUJKAS_clean_linker_0, # of connection points: 2
#     Edge 39, Type (0, 0), BuildingBlock: ZUJKAS_clean_linker_0, # of connection points: 2
#     Edge 40, Type (0, 0), BuildingBlock: ZUJKAS_clean_linker_0, # of connection points: 2
#     Edge 41, Type (0, 0), BuildingBlock: ZUJKAS_clean_linker_0, # of connection points: 2
#     Edge 42, Type (0, 0), BuildingBlock: ZUJKAS_clean_linker_0, # of connection points: 2
#     Edge 43, Type (0, 0), BuildingBlock: ZUJKAS_clean_linker_0, # of connection points: 2
#     Edge 44, Type (0, 0), BuildingBlock: ZUJKAS_clean_linker_0, # of connection points: 2
#     Edge 45, Type (0, 0), BuildingBlock: ZUJKAS_clean_linker_0, # of connection points: 2
#     Edge 46, Type (0, 0), BuildingBlock: ZUJKAS_clean_linker_0, # of connection points: 2
#     Edge 47, Type (0, 0), BuildingBlock: ZUJKAS_clean_linker_0, # of connection points: 2
#     Edge 48, Type (0, 0), BuildingBlock: ZUJKAS_clean_linker_0, # of connection points: 2
#     Edge 49, Type (0, 0), BuildingBlock: ZUJKAS_clean_linker_0, # of connection points: 2
#     Edge 50, Type (0, 0), BuildingBlock: ZUJKAS_clean_linker_0, # of connection points: 2
#     Edge 51, Type (0, 0), BuildingBlock: ZUJKAS_clean_linker_0, # of connection points: 2
#     Edge 52, Type (0, 0), BuildingBlock: ZUJKAS_clean_linker_0, # of connection points: 2
#     Edge 53, Type (0, 0), BuildingBlock: ZUJKAS_clean_linker_0, # of connection points: 2
#     Edge 54, Type (0, 0), BuildingBlock: ZUJKAS_clean_linker_0, # of connection points: 2
#     Edge 55, Type (0, 0), BuildingBlock: ZUJKAS_clean_linker_0, # of connection points: 2
# Relax obj value: 0.354
# Max RMSD: 0.239
# Mean RMSD: 0.239
data_MOF--net-vbe--node1-XOMCOT_clean_sbu_0--edge1-ZUJKAS_clean_linker_0
_symmetry_space_group_name_H-M    P1
_symmetry_Int_Tables_number       1
_symmetry_cell_setting            triclinic
loop_
_symmetry_equiv_pos_as_xyz
'x, y, z'
_cell_length_a     61.005798
_cell_length_b     44.995785
_cell_length_c     67.819851
_cell_angle_alpha  89.985199
_cell_angle_beta   90.033817
_cell_angle_gamma 89.948314
loop_
_atom_site_label
_atom_site_type_symbol
_atom_site_fract_x
_atom_site_fract_y
_atom_site_fract_z
_atom_type_partial_charge
Co0 Co 0.06933 0.08495 0.36142 0.0
C1 C 0.05523 0.04361 0.39317 0.0
C2 C 0.03467 0.04097 0.36766 0.0
C3 C 0.02584 0.02327 0.38214 0.0
N4 N 0.0534 0.05326 0.37442 0.0
N5 N 0.03876 0.02514 0.3982 0.0
H6 H 0.06751 0.05109 0.40338 0.0
H7 H 0.02729 0.04581 0.35351 0.0
C8 C 0.06635 0.03654 0.33144 0.0
O9 O 0.0724 0.01741 0.34505 0.0
N10 N 0.08439 0.11693 0.34839 0.0
C11 C 0.10202 0.13192 0.35499 0.0
C12 C 0.10701 0.15387 0.34158 0.0
C13 C 0.07869 0.13001 0.33128 0.0
N14 N 0.09229 0.15266 0.32674 0.0
C15 C 0.10593 0.06575 0.38485 0.0
C16 C 0.13196 0.04803 0.35369 0.0
C17 C 0.14033 0.04627 0.37288 0.0
C18 C 0.12704 0.05523 0.38859 0.0
C19 C 0.11073 0.05851 0.35063 0.0
N20 N 0.0976 0.06616 0.36616 0.0
H21 H 0.09687 0.07523 0.39692 0.0
H22 H 0.10537 0.0618 0.33564 0.0
H23 H 0.11044 0.12747 0.36872 0.0
H24 H 0.06485 0.12308 0.32243 0.0
O25 O 0.06711 0.10901 0.38501 0.0
O26 O 0.04269 0.10767 0.36076 0.0
O27 O 0.0654 0.06429 0.33536 0.0
C28 C 0.04863 0.11849 0.37772 0.0
H29 H 0.01036 0.01159 0.38134 0.0
H30 H 0.12008 0.16998 0.34294 0.0
H31 H 0.1419 0.04198 0.34108 0.0
H32 H 0.13327 0.05554 0.40355 0.0
Co33 Co 0.43532 0.91558 0.37221 0.0
C34 C 0.44979 0.95433 0.40518 0.0
C35 C 0.46971 0.95974 0.37949 0.0
C36 C 0.47883 0.97599 0.39455 0.0
N37 N 0.45114 0.94669 0.38598 0.0
N38 N 0.46626 0.97247 0.4107 0.0
H39 H 0.43853 0.94452 0.41551 0.0
H40 H 0.47694 0.95622 0.36513 0.0
C41 C 0.43977 0.96391 0.3423 0.0
O42 O 0.43334 0.98316 0.35567 0.0
N43 N 0.42047 0.88412 0.35842 0.0
C44 C 0.40225 0.86958 0.3641 0.0
C45 C 0.39761 0.84809 0.35025 0.0
C46 C 0.42686 0.87121 0.34147 0.0
N47 N 0.41314 0.84912 0.3361 0.0
C48 C 0.39845 0.93739 0.39423 0.0
C49 C 0.3736 0.95397 0.362 0.0
C50 C 0.36476 0.95737 0.38092 0.0
C51 C 0.37748 0.94889 0.39717 0.0
C52 C 0.39467 0.94247 0.35974 0.0
N53 N 0.40721 0.93534 0.37577 0.0
H54 H 0.40706 0.92866 0.40679 0.0
H55 H 0.40042 0.93801 0.34499 0.0
H56 H 0.39313 0.87413 0.37743 0.0
H57 H 0.44122 0.87795 0.33325 0.0
O58 O 0.4357 0.89142 0.39577 0.0
O59 O 0.46156 0.89194 0.37276 0.0
O60 O 0.44075 0.93622 0.34636 0.0
C61 C 0.45439 0.88131 0.38939 0.0
H62 H 0.49408 0.98821 0.39392 0.0
H63 H 0.38412 0.83249 0.35079 0.0
H64 H 0.36399 0.95891 0.34897 0.0
H65 H 0.37114 0.95049 0.41205 0.0
Co66 Co 0.56529 0.92377 0.13691 0.0
C67 C 0.55035 0.964 0.1049 0.0
C68 C 0.53132 0.96924 0.13112 0.0
C69 C 0.52182 0.98589 0.11643 0.0
N70 N 0.54961 0.95606 0.12409 0.0
N71 N 0.5338 0.98244 0.09991 0.0
H72 H 0.56112 0.95402 0.09418 0.0
H73 H 0.52433 0.96534 0.14553 0.0
C74 C 0.5606 0.9691 0.16871 0.0
O75 O 0.56775 0.98933 0.15631 0.0
N76 N 0.58007 0.89105 0.14957 0.0
C77 C 0.59793 0.87665 0.1429 0.0
C78 C 0.60302 0.85425 0.15594 0.0
C79 C 0.57432 0.87716 0.16639 0.0
N80 N 0.58815 0.85458 0.17068 0.0
C81 C 0.60247 0.94802 0.1166 0.0
C82 C 0.62781 0.95626 0.14993 0.0
C83 C 0.63735 0.96024 0.13136 0.0
C84 C 0.62429 0.95669 0.11456 0.0
C85 C 0.60594 0.94769 0.15131 0.0
N86 N 0.59341 0.94383 0.13478 0.0
H87 H 0.59356 0.94235 0.10347 0.0
H88 H 0.59962 0.9421 0.1657 0.0
H89 H 0.60654 0.88196 0.12941 0.0
H90 H 0.56036 0.88354 0.17527 0.0
O91 O 0.5657 0.9019 0.11241 0.0
O92 O 0.53922 0.90004 0.13483 0.0
O93 O 0.5592 0.94191 0.16345 0.0
C94 C 0.54694 0.89101 0.11797 0.0
H95 H 0.50662 -0.00183 0.11755 0.0
H96 H 0.61634 0.83852 0.15442 0.0
H97 H 0.63742 0.95848 0.16328 0.0
H98 H 0.63124 0.95856 0.09991 0.0
Co99 Co 0.92952 0.07546 0.13237 0.0
C100 C 0.95114 0.04879 0.09762 0.0
C101 C 0.97007 0.04254 0.12383 0.0
C102 C 0.98237 0.03326 0.10799 0.0
N103 N 0.95016 0.05155 0.11741 0.0
N104 N 0.97046 0.03751 0.09153 0.0
H105 H 0.93886 0.05713 0.08765 0.0
H106 H 0.97604 0.04487 0.13875 0.0
C107 C 0.94107 0.0264 0.16022 0.0
O108 O 0.93754 0.00715 0.146 0.0
N109 N 0.90977 0.1002 0.14723 0.0
C110 C 0.88964 0.10934 0.14179 0.0
C111 C 0.88222 0.12958 0.15547 0.0
C112 C 0.91447 0.11504 0.16392 0.0
N113 N 0.8979 0.13326 0.16932 0.0
C114 C 0.89762 0.04508 0.10855 0.0
C115 C 0.87451 0.02099 0.1397 0.0
C116 C 0.86638 0.01744 0.12053 0.0
C117 C 0.87837 0.02934 0.1048 0.0
C118 C 0.89382 0.03682 0.14278 0.0
N119 N 0.90539 0.04827 0.1273 0.0
H120 H 0.90528 0.05639 0.09644 0.0
H121 H 0.89861 0.04148 0.15778 0.0
H122 H 0.8813 0.10262 0.12844 0.0
H123 H 0.92995 0.11306 0.17161 0.0
O124 O 0.92618 0.1019 0.11004 0.0
O125 O 0.95129 0.10608 0.13361 0.0
O126 O 0.93796 0.05413 0.1573 0.0
C127 C 0.94286 0.11624 0.11732 0.0
H128 H -0.00065 0.02628 0.10842 0.0
H129 H 0.86691 0.14171 0.15473 0.0
H130 H 0.86533 0.01331 0.15238 0.0
H131 H 0.87246 0.02764 0.08978 0.0
Co132 Co 0.92837 0.90925 0.63036 0.0
C133 C 0.95152 0.93732 0.59687 0.0
C134 C 0.96817 0.94493 0.62414 0.0
C135 C 0.9811 0.95549 0.60908 0.0
N136 N 0.94925 0.93431 0.61656 0.0
N137 N 0.97062 0.95039 0.59196 0.0
H138 H 0.94041 0.92812 0.58617 0.0
H139 H 0.97311 0.94311 0.6394 0.0
C140 C 0.93591 0.95941 0.65839 0.0
O141 O 0.93239 0.97811 0.64383 0.0
N142 N 0.90842 0.88348 0.64414 0.0
C143 C 0.88905 0.87315 0.63757 0.0
C144 C 0.88111 0.853 0.65106 0.0
C145 C 0.91216 0.86946 0.66135 0.0
N146 N 0.89572 0.8506 0.66596 0.0
C147 C 0.89731 0.93697 0.60432 0.0
C148 C 0.87061 0.95937 0.63364 0.0
C149 C 0.86385 0.96187 0.61395 0.0
C150 C 0.8777 0.95094 0.59917 0.0
C151 C 0.8904 0.94544 0.63812 0.0
N152 N 0.90371 0.93473 0.62354 0.0
H153 H 0.90639 0.92611 0.59285 0.0
H154 H 0.89423 0.94149 0.65344 0.0
H155 H 0.8815 0.87928 0.62372 0.0
H156 H 0.92711 0.87202 0.66976 0.0
O157 O 0.92766 0.88241 0.6081 0.0
O158 O 0.9511 0.87999 0.63311 0.0
O159 O 0.93414 0.93143 0.65558 0.0
C160 C 0.94424 0.86915 0.61642 0.0
H161 H 0.99759 0.96412 0.6105 0.0
H162 H 0.86591 0.84078 0.64979 0.0
H163 H 0.86008 0.96636 0.64563 0.0
H164 H 0.87303 0.95197 0.58378 0.0
Co165 Co 0.57051 0.07246 0.64585 0.0
C166 C 0.54907 0.03904 0.61349 0.0
C167 C 0.53281 0.03257 0.64107 0.0
C168 C 0.52051 0.01931 0.62654 0.0
N169 N 0.55107 0.04435 0.63298 0.0
N170 N 0.53079 0.0235 0.6092 0.0
H171 H 0.55927 0.04896 0.60235 0.0
H172 H 0.52793 0.03516 0.6563 0.0
C173 C 0.56742 0.02181 0.67392 0.0
O174 O 0.57181 0.0039 0.65912 0.0
N175 N 0.58904 0.10121 0.65869 0.0
C176 C 0.6076 0.11311 0.65141 0.0
C177 C 0.61425 0.13564 0.66372 0.0
C178 C 0.5845 0.11674 0.67517 0.0
N179 N 0.59964 0.13806 0.67858 0.0
C180 C 0.60279 0.04963 0.619 0.0
C181 C 0.63184 0.03068 0.64763 0.0
C182 C 0.63826 0.02983 0.62783 0.0
C183 C 0.62331 0.03888 0.61338 0.0
C184 C 0.61114 0.0414 0.65259 0.0
N185 N 0.59669 0.05042 0.63836 0.0
H186 H 0.59271 0.0596 0.60782 0.0
H187 H 0.60742 0.04437 0.66802 0.0
H188 H 0.61533 0.10662 0.63773 0.0
H189 H 0.56976 0.11355 0.68379 0.0
O190 O 0.56823 0.0988 0.62341 0.0
O191 O 0.54581 0.09852 0.64918 0.0
O192 O 0.56741 0.04995 0.67135 0.0
C193 C 0.55117 0.10998 0.63225 0.0
H194 H 0.50472 0.00876 0.62847 0.0
H195 H 0.6285 0.14957 0.66158 0.0
H196 H 0.64307 0.02431 0.65927 0.0
H197 H 0.62797 0.03964 0.59798 0.0
Co198 Co 0.42765 0.07338 0.86151 0.0
C199 C 0.44902 0.04401 0.89575 0.0
C200 C 0.46617 0.03586 0.8688 0.0
C201 C 0.47835 0.02435 0.88406 0.0
N202 N 0.44742 0.04752 0.87603 0.0
N203 N 0.46754 0.0296 0.901 0.0
H204 H 0.43823 0.05433 0.90628 0.0
H205 H 0.47141 0.03729 0.85361 0.0
C206 C 0.43331 0.02076 0.8353 0.0
O207 O 0.42917 0.0036 0.85053 0.0
N208 N 0.40884 0.09996 0.84696 0.0
C209 C 0.38967 0.11161 0.85306 0.0
C210 C 0.383 0.13261 0.83957 0.0
C211 C 0.41376 0.11417 0.83005 0.0
N212 N 0.39823 0.13434 0.82518 0.0
C213 C 0.39524 0.0502 0.88823 0.0
C214 C 0.36837 0.0265 0.85947 0.0
C215 C 0.3615 0.02551 0.87917 0.0
C216 C 0.37533 0.03735 0.89367 0.0
C217 C 0.38842 0.0394 0.8547 0.0
N218 N 0.40191 0.05048 0.86902 0.0
H219 H 0.4045 0.06162 0.89937 0.0
H220 H 0.39241 0.04206 0.8393 0.0
H221 H 0.38158 0.10616 0.86678 0.0
H222 H 0.42874 0.11046 0.82188 0.0
O223 O 0.42828 0.10175 0.88294 0.0
O224 O 0.45161 0.10036 0.85784 0.0
O225 O 0.43237 0.04902 0.837 0.0
C226 C 0.44528 0.11308 0.87409 0.0
H227 H 0.49436 0.01414 0.88282 0.0
H228 H 0.36867 0.14666 0.84085 0.0
H229 H 0.35784 0.01889 0.84765 0.0
H230 H 0.37052 0.03762 0.90903 0.0
Co231 Co 0.06572 0.91028 0.85908 0.0
C232 C 0.04985 0.95084 0.89059 0.0
C233 C 0.02971 0.95257 0.86478 0.0
C234 C 0.02015 0.96985 0.87913 0.0
N235 N 0.04862 0.94112 0.87182 0.0
N236 N 0.03281 0.96854 0.89538 0.0
H237 H 0.06215 0.94398 0.90098 0.0
H238 H 0.02274 0.94745 0.85052 0.0
C239 C 0.06199 0.95859 0.82907 0.0
O240 O 0.06722 0.978 0.84276 0.0
N241 N 0.08198 0.87905 0.84634 0.0
C242 C 0.09974 0.86491 0.85349 0.0
C243 C 0.10511 0.8422 0.8408 0.0
C244 C 0.07665 0.8648 0.82956 0.0
N245 N 0.09054 0.84208 0.82581 0.0
C246 C 0.10121 0.93052 0.88334 0.0
C247 C 0.1279 0.94909 0.85287 0.0
C248 C 0.13586 0.95021 0.87222 0.0
C249 C 0.12219 0.94102 0.88758 0.0
C250 C 0.10675 0.93867 0.84929 0.0
N251 N 0.09336 0.93032 0.86448 0.0
H252 H 0.09199 0.92062 0.89515 0.0
H253 H 0.10176 0.93571 0.83417 0.0
H254 H 0.1079 0.87028 0.86719 0.0
H255 H 0.06239 0.87024 0.82077 0.0
O256 O 0.06361 0.8859 0.88252 0.0
O257 O 0.03971 0.88629 0.85785 0.0
O258 O 0.06187 0.93081 0.83297 0.0
C259 C 0.04563 0.87551 0.87483 0.0
H260 H 0.00441 0.98088 0.8781 0.0
H261 H 0.11862 0.82683 0.84261 0.0
H262 H 0.13816 0.95535 0.84052 0.0
H263 H 0.12809 0.94027 0.90264 0.0
Co264 Co 0.56305 0.58317 0.36628 0.0
C265 C 0.54699 0.54263 0.39775 0.0
C266 C 0.52616 0.54253 0.37237 0.0
C267 C 0.51638 0.52576 0.38682 0.0
N268 N 0.54568 0.55255 0.379 0.0
N269 N 0.52949 0.52596 0.40281 0.0
H270 H 0.55918 0.54977 0.4082 0.0
H271 H 0.51882 0.54852 0.35841 0.0
C272 C 0.55434 0.539 0.33416 0.0
O273 O 0.55954 0.51718 0.34617 0.0
N274 N 0.57945 0.61421 0.35353 0.0
C275 C 0.59835 0.62663 0.3596 0.0
C276 C 0.60384 0.64895 0.3466 0.0
C277 C 0.57359 0.62909 0.33713 0.0
N278 N 0.58823 0.65049 0.33249 0.0
C279 C 0.59914 0.5567 0.38685 0.0
C280 C 0.62285 0.5411 0.35375 0.0
C281 C 0.63236 0.53716 0.37239 0.0
C282 C 0.62005 0.5447 0.38907 0.0
C283 C 0.6018 0.55305 0.35218 0.0
N284 N 0.58999 0.56026 0.36863 0.0
H285 H 0.59105 0.56501 0.39979 0.0
H286 H 0.59573 0.55831 0.33766 0.0
H287 H 0.60739 0.62006 0.37262 0.0
H288 H 0.55857 0.62479 0.32913 0.0
O289 O 0.56436 0.60512 0.39079 0.0
O290 O 0.53827 0.60932 0.36814 0.0
O291 O 0.55592 0.566 0.33972 0.0
C292 C 0.54621 0.61769 0.38505 0.0
H293 H 0.50039 0.51547 0.38592 0.0
H294 H 0.61827 0.66285 0.34748 0.0
H295 H 0.63205 0.53666 0.34041 0.0
H296 H 0.62683 0.54241 0.40376 0.0
Co297 Co 0.92798 0.41528 0.35675 0.0
C298 C 0.94705 0.44951 0.38997 0.0
C299 C 0.96733 0.45081 0.36428 0.0
C300 C 0.97851 0.46398 0.37952 0.0
N301 N 0.94732 0.44235 0.37065 0.0
N302 N 0.96576 0.46296 0.39572 0.0
H303 H 0.93463 0.44226 0.40016 0.0
H304 H 0.97406 0.44583 0.3499 0.0
C305 C 0.93899 0.46208 0.32717 0.0
O306 O 0.93443 0.48248 0.34042 0.0
N307 N 0.90947 0.38757 0.34298 0.0
C308 C 0.88991 0.37717 0.34903 0.0
C309 C 0.88296 0.35591 0.33586 0.0
C310 C 0.91432 0.37244 0.32643 0.0
N311 N 0.89835 0.35288 0.3217 0.0
C312 C 0.89357 0.44354 0.37878 0.0
C313 C 0.87053 0.46359 0.3463 0.0
C314 C 0.861 0.46612 0.365 0.0
C315 C 0.87299 0.45654 0.38143 0.0
C316 C 0.89108 0.45045 0.34431 0.0
N317 N 0.90253 0.44079 0.36043 0.0
H318 H 0.90133 0.4335 0.39137 0.0
H319 H 0.89693 0.44612 0.32959 0.0
H320 H 0.88159 0.38396 0.36236 0.0
H321 H 0.92939 0.37541 0.31826 0.0
O322 O 0.92582 0.3908 0.38023 0.0
O323 O 0.95112 0.38652 0.35689 0.0
O324 O 0.93591 0.4346 0.331 0.0
C325 C 0.94313 0.37716 0.37354 0.0
H326 H 0.99517 0.47214 0.37894 0.0
H327 H 0.86813 0.34285 0.3371 0.0
H328 H 0.86173 0.47042 0.33318 0.0
H329 H 0.86592 0.45713 0.39607 0.0
Co330 Co 0.06786 0.41338 0.12439 0.0
C331 C 0.05262 0.45163 0.09231 0.0
C332 C 0.03458 0.4597 0.11896 0.0
C333 C 0.02562 0.47669 0.10412 0.0
N334 N 0.05145 0.44408 0.11146 0.0
N335 N 0.03696 0.47146 0.08739 0.0
H336 H 0.0638 0.44136 0.08197 0.0
H337 H 0.02855 0.45782 0.13388 0.0
C338 C 0.07696 0.43772 0.16499 0.0
O339 O 0.09677 0.42621 0.16491 0.0
N340 N 0.08394 0.38197 0.13768 0.0
C341 C 0.1023 0.36753 0.13207 0.0
C342 C 0.10675 0.34544 0.1455 0.0
C343 C 0.07725 0.36789 0.15419 0.0
N344 N 0.09098 0.34568 0.15942 0.0
C345 C 0.10713 0.42276 0.10231 0.0
C346 C 0.12085 0.47326 0.12182 0.0
C347 C 0.13503 0.45965 0.10828 0.0
C348 C 0.1275 0.43489 0.0978 0.0
C349 C 0.10049 0.46043 0.12575 0.0
N350 N 0.09472 0.43403 0.11728 0.0
H351 H 0.10175 0.40351 0.09417 0.0
H352 H 0.08961 0.47175 0.13575 0.0
H353 H 0.11176 0.37178 0.119 0.0
H354 H 0.06234 0.37355 0.16197 0.0
O355 O 0.06463 0.38813 0.10146 0.0
O356 O 0.0416 0.39008 0.1267 0.0
O357 O 0.06456 0.43547 0.14992 0.0
C358 C 0.04671 0.37865 0.10971 0.0
H359 H 0.0114 0.49097 0.10541 0.0
H360 H 0.12057 0.33038 0.14498 0.0
H361 H 0.12568 0.49301 0.12983 0.0
H362 H 0.13745 0.42453 0.08651 0.0
Co363 Co 0.42812 0.59883 0.12662 0.0
C364 C 0.43717 0.55754 0.09428 0.0
C365 C 0.45805 0.54905 0.11916 0.0
C366 C 0.46356 0.52964 0.10427 0.0
N367 N 0.44152 0.56638 0.1128 0.0
N368 N 0.45045 0.53511 0.08864 0.0
H369 H 0.42478 0.56773 0.08508 0.0
H370 H 0.46601 0.551 0.13334 0.0
C371 C 0.42151 0.57532 0.16775 0.0
O372 O 0.40191 0.58741 0.16852 0.0
N373 N 0.4151 0.63191 0.1408 0.0
C374 C 0.39779 0.64905 0.13584 0.0
C375 C 0.39539 0.67106 0.14972 0.0
C376 C 0.42333 0.64441 0.15732 0.0
N377 N 0.41144 0.66811 0.16326 0.0
C378 C 0.38626 0.59307 0.10821 0.0
C379 C 0.37317 0.54196 0.12737 0.0
C380 C 0.35837 0.55645 0.11479 0.0
C381 C 0.36543 0.58176 0.10466 0.0
C382 C 0.39398 0.55407 0.13044 0.0
N383 N 0.39968 0.58056 0.12201 0.0
H384 H 0.3915 0.61212 0.09982 0.0
H385 H 0.40542 0.54189 0.13946 0.0
H386 H 0.38771 0.64668 0.12293 0.0
H387 H 0.43796 0.63645 0.16465 0.0
O388 O 0.43001 0.6231 0.10318 0.0
O389 O 0.45557 0.61988 0.12633 0.0
O390 O 0.43299 0.57702 0.15207 0.0
C391 C 0.44909 0.63136 0.10971 0.0
H392 H 0.47688 0.51374 0.10464 0.0
H393 H 0.38266 0.68782 0.14981 0.0
H394 H 0.36865 0.52176 0.13503 0.0
H395 H 0.35496 0.59277 0.09401 0.0
Co396 Co 0.42849 0.4196 0.63985 0.0
C397 C 0.44995 0.45011 0.60605 0.0
C398 C 0.46738 0.45636 0.6331 0.0
C399 C 0.47958 0.46845 0.61808 0.0
N400 N 0.44849 0.44544 0.62566 0.0
N401 N 0.46856 0.46442 0.60108 0.0
H402 H 0.43888 0.44089 0.59532 0.0
H403 H 0.47258 0.45417 0.64828 0.0
C404 C 0.43348 0.47269 0.66567 0.0
O405 O 0.42983 0.48945 0.65013 0.0
N406 N 0.40945 0.39309 0.65414 0.0
C407 C 0.39038 0.38144 0.64779 0.0
C408 C 0.38348 0.36056 0.66124 0.0
C409 C 0.41406 0.379 0.67117 0.0
N410 N 0.39845 0.35891 0.67587 0.0
C411 C 0.39641 0.44106 0.61226 0.0
C412 C 0.36892 0.46633 0.63993 0.0
C413 C 0.36234 0.46587 0.62013 0.0
C414 C 0.37651 0.45332 0.60618 0.0
C415 C 0.389 0.45396 0.64535 0.0
N416 N 0.4028 0.44212 0.63154 0.0
H417 H 0.40583 0.4289 0.60159 0.0
H418 H 0.39271 0.45227 0.66086 0.0
H419 H 0.38253 0.38678 0.63393 0.0
H420 H 0.4289 0.38273 0.67956 0.0
O421 O 0.42985 0.39104 0.61859 0.0
O422 O 0.45255 0.39278 0.64415 0.0
O423 O 0.43246 0.44439 0.66429 0.0
C424 C 0.44672 0.37996 0.62778 0.0
H425 H 0.49567 0.47834 0.61947 0.0
H426 H 0.36917 0.34652 0.65979 0.0
H427 H 0.35811 0.47456 0.65135 0.0
H428 H 0.37193 0.45191 0.59078 0.0
Co429 Co 0.0638 0.56833 0.63183 0.0
C430 C 0.04672 0.52967 0.59994 0.0
C431 C 0.02845 0.52493 0.62665 0.0
C432 C 0.01789 0.50931 0.61205 0.0
N433 N 0.04686 0.53721 0.61919 0.0
N434 N 0.02941 0.51243 0.59526 0.0
H435 H 0.05746 0.53914 0.58902 0.0
H436 H 0.02218 0.52883 0.64133 0.0
C437 C 0.06038 0.52079 0.66237 0.0
O438 O 0.06637 0.50125 0.64902 0.0
N439 N 0.07986 0.59988 0.6444 0.0
C440 C 0.09745 0.61417 0.6371 0.0
C441 C 0.10301 0.6367 0.64986 0.0
C442 C 0.07482 0.61385 0.66135 0.0
N443 N 0.08873 0.63654 0.66507 0.0
C444 C 0.09933 0.54595 0.60831 0.0
C445 C 0.12638 0.53176 0.63961 0.0
C446 C 0.13455 0.52933 0.62039 0.0
C447 C 0.12064 0.53612 0.6046 0.0
C448 C 0.10498 0.54159 0.64266 0.0
N449 N 0.09151 0.54807 0.62711 0.0
H450 H 0.08985 0.55398 0.59606 0.0
H451 H 0.09982 0.54575 0.65761 0.0
H452 H 0.10544 0.60887 0.62331 0.0
H453 H 0.06081 0.60813 0.67037 0.0
O454 O 0.06208 0.59211 0.60809 0.0
O455 O 0.03779 0.59232 0.63245 0.0
O456 O 0.05965 0.54843 0.65811 0.0
C457 C 0.04391 0.60261 0.6154 0.0
H458 H 0.00231 0.49801 0.61344 0.0
H459 H 0.11652 0.65201 0.64802 0.0
H460 H 0.13668 0.52713 0.65226 0.0
H461 H 0.12658 0.53564 0.58955 0.0
Co462 Co 0.92319 0.57377 0.85648 0.0
C463 C 0.94474 0.53876 0.88804 0.0
C464 C 0.95976 0.53162 0.85998 0.0
C465 C 0.97224 0.51766 0.87408 0.0
N466 N 0.94211 0.54424 0.86862 0.0
N467 N 0.96278 0.52232 0.89174 0.0
H468 H 0.9353 0.54931 0.89949 0.0
H469 H 0.96432 0.53429 0.84468 0.0
C470 C 0.9254 0.52522 0.82663 0.0
O471 O 0.92023 0.50627 0.84063 0.0
N472 N 0.90528 0.60383 0.84428 0.0
C473 C 0.88736 0.61699 0.85191 0.0
C474 C 0.88071 0.63915 0.83925 0.0
C475 C 0.90949 0.61822 0.82731 0.0
N476 N 0.89471 0.63997 0.82386 0.0
C477 C 0.89068 0.54911 0.88234 0.0
C478 C 0.86094 0.53522 0.85304 0.0
C479 C 0.85456 0.53255 0.87279 0.0
C480 C 0.86988 0.53894 0.88754 0.0
C481 C 0.88192 0.54531 0.84848 0.0
N482 N 0.89663 0.55199 0.86303 0.0
H483 H 0.90122 0.5569 0.89392 0.0
H484 H 0.88572 0.5497 0.83322 0.0
H485 H 0.88003 0.6114 0.86595 0.0
H486 H 0.92334 0.61315 0.81792 0.0
O487 O 0.92544 0.59845 0.87971 0.0
O488 O 0.94823 0.59944 0.85421 0.0
O489 O 0.92624 0.55304 0.83034 0.0
C490 C 0.94272 0.60988 0.87141 0.0
H491 H 0.98771 0.50649 0.87163 0.0
H492 H 0.86716 0.65428 0.84162 0.0
H493 H 0.84949 0.5308 0.84118 0.0
H494 H 0.86535 0.53812 0.90298 0.0
Co495 Co 0.56339 0.42805 0.85876 0.0
C496 C 0.5381 0.45392 0.89172 0.0
C497 C 0.52428 0.4657 0.86383 0.0
C498 C 0.51022 0.47512 0.8784 0.0
N499 N 0.54218 0.45317 0.87217 0.0
N500 N 0.51891 0.46735 0.89588 0.0
H501 H 0.54788 0.44272 0.90268 0.0
H502 H 0.52062 0.46577 0.84824 0.0
C503 C 0.55919 0.48028 0.83189 0.0
O504 O 0.56237 0.49775 0.84716 0.0
N505 N 0.58358 0.40211 0.84532 0.0
C506 C 0.60249 0.39095 0.85243 0.0
C507 C 0.61003 0.36964 0.83955 0.0
C508 C 0.5797 0.38734 0.82842 0.0
N509 N 0.59557 0.36724 0.82455 0.0
C510 C 0.59296 0.45352 0.88715 0.0
C511 C 0.62251 0.47519 0.85987 0.0
C512 C 0.62777 0.47677 0.87996 0.0
C513 C 0.61251 0.46621 0.89369 0.0
C514 C 0.60277 0.46244 0.85397 0.0
N515 N 0.5881 0.452 0.86753 0.0
H516 H 0.58257 0.44312 0.89788 0.0
H517 H 0.60001 0.45918 0.8384 0.0
H518 H 0.60971 0.39681 0.86647 0.0
H519 H 0.56507 0.39046 0.81963 0.0
O520 O 0.56214 0.39988 0.88025 0.0
O521 O 0.54025 0.40002 0.85407 0.0
O522 O 0.55983 0.45206 0.83393 0.0
C523 C 0.54589 0.38783 0.87072 0.0
H524 H 0.4941 0.48468 0.87627 0.0
H525 H 0.62431 0.35572 0.84169 0.0
H526 H 0.63412 0.48198 0.84867 0.0
H527 H 0.61602 0.46661 0.90935 0.0
H528 H 0.94414 0.05783 0.19435 0.0
H529 H 0.96621 0.04573 0.22327 0.0
H530 H 0.98416 0.96181 0.19715 0.0
H531 H 0.96204 0.97376 0.16796 0.0
H532 H 0.96644 0.99361 0.24976 0.0
H533 H 0.04294 0.00956 0.20601 0.0
H534 H 0.01675 0.02324 0.19754 0.0
H535 H 0.02252 0.98418 0.19686 0.0
C536 C 0.9525 0.03658 0.19484 0.0
C537 C 0.95154 0.01687 0.1788 0.0
C538 C 0.96504 0.02968 0.2114 0.0
C539 C 0.97696 0.00306 0.21218 0.0
C540 C 0.97518 0.98257 0.19668 0.0
H541 H 0.05415 0.97996 0.32136 0.0
H542 H 0.03444 0.96472 0.29149 0.0
C543 C 0.96247 0.98939 0.1801 0.0
C544 C 0.99245 -0.00165 0.22861 0.0
H545 H 0.04659 0.0057 0.24032 0.0
C546 C 0.98402 0.99548 0.24774 0.0
C547 C 0.01532 0.00111 0.22579 0.0
C548 C 0.02507 0.00483 0.20549 0.0
C549 C 0.99782 0.9968 0.26426 0.0
C550 C 0.02058 0.00094 0.26147 0.0
C551 C 0.02913 0.0023 0.24231 0.0
C552 C 0.0351 0.00839 0.27817 0.0
C553 C 0.98783 0.99579 0.28461 0.0
C554 C 0.04265 0.03765 0.28011 0.0
C555 C 0.05383 0.04642 0.29706 0.0
C556 C 0.05776 0.02599 0.31234 0.0
C557 C 0.05135 0.9962 0.30984 0.0
C558 C 0.04002 0.98747 0.29286 0.0
H559 H 0.96963 0.9955 0.28417 0.0
H560 H 0.99353 0.9755 0.29238 0.0
H561 H 0.99322 0.01532 0.29337 0.0
H562 H 0.03902 0.05407 0.26887 0.0
H563 H 0.05869 0.06947 0.29848 0.0
H564 H 0.54498 0.02367 0.17951 0.0
H565 H 0.52487 0.03593 0.20979 0.0
H566 H 0.53515 0.94677 0.23121 0.0
H567 H 0.55494 0.93422 0.20102 0.0
H568 H 0.48542 -0.00074 0.22156 0.0
H569 H 0.55076 0.00535 0.27846 0.0
H570 H 0.55589 0.01213 0.25257 0.0
H571 H 0.55308 0.97475 0.26151 0.0
C572 C 0.54335 0.0069 0.19087 0.0
C573 C 0.55145 0.97797 0.18793 0.0
C574 C 0.53183 0.01392 0.20808 0.0
C575 C 0.52872 0.99229 0.22269 0.0
C576 C 0.53763 0.96382 0.22015 0.0
H577 H 0.44375 0.93199 0.30849 0.0
H578 H 0.46321 0.94645 0.27851 0.0
C579 C 0.54884 0.95667 0.20289 0.0
C580 C 0.51437 -0.00194 0.23975 0.0
H581 H 0.51418 0.99685 0.28999 0.0
C582 C 0.49167 -0.00052 0.23654 0.0
C583 C 0.52265 -0.00155 0.25918 0.0
C584 C 0.54695 0.99784 0.26323 0.0
C585 C 0.47694 -0.00084 0.2524 0.0
C586 C 0.48521 0.99739 0.27181 0.0
C587 C 0.50793 -0.00186 0.27504 0.0
C588 C 0.47083 0.99082 0.28872 0.0
C589 C 0.45264 -0.00062 0.24832 0.0
C590 C 0.46849 0.01118 0.30422 0.0
C591 C 0.45717 0.00306 0.32132 0.0
C592 C 0.44852 0.97426 0.32325 0.0
C593 C 0.45029 0.95431 0.3074 0.0
C594 C 0.46129 0.96258 0.29025 0.0
H595 H 0.44894 0.00834 0.23341 0.0
H596 H 0.44631 0.97629 0.24908 0.0
H597 H 0.4438 0.01284 0.25951 0.0
H598 H 0.47594 0.03298 0.3033 0.0
H599 H 0.45619 0.01878 0.33338 0.0
H600 H 0.95441 0.01365 0.66615 0.0
H601 H 0.97585 0.02734 0.69538 0.0
H602 H 0.96097 0.94254 0.72179 0.0
H603 H 0.93955 0.92872 0.69282 0.0
H604 H 0.95973 0.99421 0.74828 0.0
H605 H 0.03625 0.98389 0.70382 0.0
H606 H 0.01495 0.00817 0.69494 0.0
H607 H 0.01047 0.96879 0.69546 0.0
C608 C 0.95532 -0.00181 0.67837 0.0
C609 C 0.9455 0.96997 0.67711 0.0
C610 C 0.96765 0.006 0.69498 0.0
C611 C 0.97018 0.98576 0.71055 0.0
C612 C 0.95923 0.95841 0.70986 0.0
H613 H 0.05583 0.92548 0.79596 0.0
H614 H 0.03525 0.9395 0.76653 0.0
C615 C 0.94705 0.95052 0.69328 0.0
C616 C 0.98564 0.99151 0.72687 0.0
H617 H 0.04016 0.98833 0.73806 0.0
C618 C 0.97734 0.99368 0.74609 0.0
C619 C 0.00857 0.99051 0.72383 0.0
C620 C 0.01825 0.98757 0.70345 0.0
C621 C 0.99137 0.9934 0.76248 0.0
C622 C 0.01425 0.99103 0.75947 0.0
C623 C 0.02261 0.99037 0.74023 0.0
C624 C 0.02929 0.98468 0.77602 0.0
C625 C 0.98161 0.99361 0.78292 0.0
C626 C 0.03338 0.00584 0.79075 0.0
C627 C 0.04525 0.99792 0.80762 0.0
C628 C 0.05302 0.96868 0.80998 0.0
C629 C 0.04992 0.94812 0.79464 0.0
C630 C 0.03822 0.9561 0.7778 0.0
H631 H 0.96342 0.99241 0.78265 0.0
H632 H 0.98799 0.97458 0.79165 0.0
H633 H 0.98644 0.01435 0.79062 0.0
H634 H 0.02675 0.02811 0.7895 0.0
H635 H 0.04736 0.01425 0.8192 0.0
H636 H 0.56238 0.0507 0.7089 0.0
H637 H 0.54109 0.03412 0.73727 0.0
H638 H 0.52996 0.94956 0.70909 0.0
H639 H 0.55132 0.96599 0.68053 0.0
H640 H 0.49156 0.98 0.71999 0.0
H641 H 0.54967 0.97435 0.78249 0.0
H642 H 0.55267 0.00795 0.76848 0.0
H643 H 0.55847 0.97271 0.75705 0.0
C644 C 0.5559 0.02828 0.70894 0.0
C645 C 0.55843 0.0097 0.69245 0.0
C646 C 0.54385 0.01877 0.72522 0.0
C647 C 0.53412 0.99053 0.72532 0.0
C648 C 0.53751 0.97134 0.70932 0.0
H649 H 0.45291 0.96649 0.83086 0.0
H650 H 0.47537 0.95014 0.80294 0.0
C651 C 0.54976 0.98075 0.69306 0.0
C652 C 0.5181 0.98309 0.74089 0.0
H653 H 0.5117 0.98431 0.79079 0.0
C654 C 0.49599 0.98012 0.73548 0.0
C655 C 0.52393 0.98288 0.76105 0.0
C656 C 0.54752 0.98434 0.76762 0.0
C657 C 0.47939 0.97953 0.74977 0.0
C658 C 0.48513 0.98219 0.76987 0.0
C659 C 0.50733 0.98253 0.77533 0.0
C660 C 0.46861 0.98899 0.78515 0.0
C661 C 0.45583 0.97741 0.74321 0.0
C662 C 0.45708 0.01594 0.78417 0.0
C663 C 0.44442 0.02541 0.80008 0.0
C664 C 0.44305 0.00807 0.81726 0.0
C665 C 0.45354 0.98023 0.81776 0.0
C666 C 0.46642 0.97089 0.80187 0.0
H667 H 0.45444 0.96596 0.72875 0.0
H668 H 0.44572 0.96536 0.75423 0.0
H669 H 0.44903 0.00016 0.74148 0.0
H670 H 0.45887 0.03049 0.77155 0.0
H671 H 0.43651 0.04696 0.79927 0.0
H672 H 0.55247 0.57416 0.30174 0.0
H673 H 0.52668 0.57012 0.27434 0.0
H674 H 0.50236 0.48748 0.29799 0.0
H675 H 0.52866 0.49101 0.32531 0.0
H676 H 0.50413 0.48767 0.25695 0.0
H677 H 0.4622 0.58814 0.28487 0.0
H678 H 0.49075 0.59491 0.28049 0.0
H679 H 0.48264 0.56848 0.29905 0.0
C680 C 0.54197 0.55479 0.30087 0.0
C681 C 0.54239 0.53303 0.31571 0.0
C682 C 0.52712 0.55263 0.28532 0.0
C683 C 0.51216 0.52901 0.28454 0.0
C684 C 0.51363 0.50606 0.2985 0.0
H685 H 0.40311 0.56748 0.20437 0.0
H686 H 0.42142 0.54898 0.23415 0.0
C687 C 0.52872 0.50802 0.314 0.0
C688 C 0.49436 0.52945 0.26971 0.0
H689 H 0.45447 0.57466 0.25128 0.0
C690 C 0.49301 0.50642 0.25584 0.0
C691 C 0.47934 0.55338 0.26872 0.0
C692 C 0.47861 0.57744 0.28423 0.0
C693 C 0.47811 0.5079 0.24008 0.0
C694 C 0.46468 0.53341 0.23796 0.0
C695 C 0.46493 0.55527 0.2527 0.0
C696 C 0.45229 0.53978 0.21962 0.0
C697 C 0.47719 0.48233 0.22573 0.0
C698 C 0.46345 0.54049 0.20156 0.0
C699 C 0.45304 0.55079 0.18461 0.0
C700 C 0.4313 0.56116 0.18536 0.0
C701 C 0.41986 0.55965 0.20331 0.0
C702 C 0.43029 0.54906 0.22031 0.0
H703 H 0.481 0.46098 0.23323 0.0
H704 H 0.46083 0.4805 0.21864 0.0
H705 H 0.48972 0.4857 0.21409 0.0
H706 H 0.48061 0.53444 0.2007 0.0
H707 H 0.46243 0.55173 0.17108 0.0
H708 H 0.94267 0.43061 0.29317 0.0
H709 H 0.97047 0.43688 0.26762 0.0
H710 H 0.99439 0.51553 0.2969 0.0
H711 H 0.96614 0.50984 0.32232 0.0
H712 H 0.99562 0.52086 0.25648 0.0
H713 H 0.03373 0.4152 0.27988 0.0
H714 H 0.00544 0.41 0.27364 0.0
H715 H 0.0127 0.43345 0.29416 0.0
C716 C 0.95355 0.4496 0.29394 0.0
C717 C 0.95239 0.46959 0.3098 0.0
C718 C 0.96955 0.453 0.27946 0.0
C719 C 0.98493 0.47608 0.28078 0.0
C720 C 0.98283 0.49735 0.29579 0.0
H721 H 0.09548 0.44093 0.20192 0.0
H722 H 0.0776 0.45787 0.2323 0.0
C723 C 0.9666 0.49417 0.3102 0.0
C724 C 0.00363 0.47695 0.26691 0.0
H725 H 0.04337 0.43259 0.24741 0.0
C726 C 0.00633 0.5018 0.25468 0.0
C727 C 0.01818 0.45259 0.2651 0.0
C728 C 0.01754 0.42647 0.27907 0.0
C729 C 0.02203 0.50183 0.23954 0.0
C730 C 0.03486 0.47602 0.23632 0.0
C731 C 0.03336 0.45225 0.24964 0.0
C732 C 0.04747 0.4713 0.2179 0.0
C733 C 0.02435 0.52926 0.22694 0.0
C734 C 0.03667 0.47369 0.19972 0.0
C735 C 0.04685 0.46429 0.18246 0.0
C736 C 0.06795 0.45173 0.18297 0.0
C737 C 0.07921 0.4505 0.20104 0.0
C738 C 0.06902 0.46017 0.21839 0.0
H739 H 0.02112 0.54963 0.23574 0.0
H740 H 0.04095 0.53094 0.22034 0.0
H741 H 0.01203 0.52857 0.2149 0.0
H742 H 0.01984 0.48127 0.19895 0.0
H743 H 0.03767 0.46566 0.16883 0.0
H744 H 0.55803 0.4531 0.79611 0.0
H745 H 0.53769 0.4691 0.76704 0.0
H746 H 0.52013 0.55075 0.79638 0.0
H747 H 0.54053 0.53482 0.8257 0.0
H748 H 0.48435 0.51787 0.78301 0.0
H749 H 0.54518 0.53105 0.72336 0.0
H750 H 0.54931 0.49711 0.73675 0.0
H751 H 0.5526 0.53221 0.74916 0.0
C752 C 0.55033 0.47481 0.79621 0.0
C753 C 0.55076 0.49263 0.81321 0.0
C754 C 0.53884 0.48404 0.77952 0.0
C755 C 0.52758 0.51124 0.7795 0.0
C756 C 0.52889 0.5298 0.79608 0.0
H757 H 0.45079 0.52828 0.67058 0.0
H758 H 0.47119 0.54654 0.69925 0.0
C759 C 0.54059 0.52069 0.81277 0.0
C760 C 0.51208 0.51778 0.76331 0.0
H761 H 0.50842 0.51668 0.71318 0.0
C762 C 0.4896 0.51847 0.76774 0.0
C763 C 0.51894 0.51897 0.74344 0.0
C764 C 0.54286 0.52012 0.7379 0.0
C765 C 0.4738 0.51758 0.75273 0.0
C766 C 0.48073 0.51569 0.7329 0.0
C767 C 0.50314 0.51778 0.72843 0.0
C768 C 0.46548 0.50727 0.7169 0.0
C769 C 0.44986 0.51728 0.75826 0.0
C770 C 0.45525 0.47937 0.7175 0.0
C771 C 0.44375 0.46881 0.70118 0.0
C772 C 0.44227 0.48598 0.68393 0.0
C773 C 0.45154 0.5146 0.68371 0.0
C774 C 0.46324 0.52506 0.70003 0.0
H775 H 0.44708 0.5287 0.77257 0.0
H776 H 0.43967 0.52815 0.74675 0.0
H777 H 0.44433 0.49392 0.75987 0.0
H778 H 0.45714 0.46505 0.73024 0.0
H779 H 0.43679 0.44669 0.7018 0.0
H780 H 0.94043 0.46932 0.81812 0.0
H781 H 0.96276 0.45484 0.78965 0.0
H782 H 0.95448 0.54232 0.76477 0.0
H783 H 0.93221 0.557 0.79305 0.0
H784 H 0.95254 0.49135 0.7369 0.0
H785 H 0.02578 0.49375 0.78617 0.0
H786 H 0.00267 0.47134 0.79334 0.0
H787 H 0.0002 0.51105 0.79308 0.0
C788 C 0.94289 0.48523 0.80634 0.0
C789 C 0.93478 0.51442 0.8079 0.0
C790 C 0.95574 0.47694 0.79017 0.0
C791 C 0.96045 0.49767 0.77533 0.0
C792 C 0.95104 0.52607 0.77615 0.0
H793 H 0.05342 0.55389 0.69533 0.0
H794 H 0.0307 0.54071 0.72362 0.0
C795 C 0.93836 0.53443 0.79232 0.0
C796 C 0.97683 0.49125 0.75989 0.0
H797 H 0.03212 0.49033 0.75216 0.0
C798 C 0.96993 0.49035 0.74019 0.0
C799 C -0.00053 0.49028 0.76436 0.0
C800 C 0.00765 0.49178 0.78535 0.0
C801 C 0.98518 0.48993 0.72472 0.0
C802 C 0.00783 0.49031 0.72918 0.0
C803 C 0.01472 0.48977 0.74889 0.0
C804 C 0.0243 0.49587 0.71368 0.0
C805 C 0.97704 0.49105 0.70371 0.0
C806 C 0.02888 0.47455 0.69918 0.0
C807 C 0.042 0.48196 0.683 0.0
C808 C 0.05051 0.51087 0.6811 0.0
C809 C 0.04698 0.53151 0.69632 0.0
C810 C 0.03404 0.52401 0.7125 0.0
H811 H 0.95893 0.49335 0.70285 0.0
H812 H 0.98466 0.50999 0.69578 0.0
H813 H 0.98184 0.47034 0.69595 0.0
H814 H 0.02159 0.45264 0.69998 0.0
H815 H 0.04441 0.46562 0.67148 0.0
H816 H 0.12588 0.18085 0.30866 0.0
H817 H 0.1236 0.21457 0.28047 0.0
H818 H 0.0535 0.20257 0.27852 0.0
H819 H 0.05569 0.16866 0.30666 0.0
H820 H 0.07209 0.19878 0.24211 0.0
H821 H 0.10168 0.2997 0.28058 0.0
H822 H 0.12031 0.26897 0.28259 0.0
H823 H 0.09355 0.26652 0.29361 0.0
C824 C 0.10997 0.18561 0.30235 0.0
C825 C 0.09096 0.1722 0.30996 0.0
C826 C 0.10868 0.20493 0.28627 0.0
C827 C 0.08833 0.21153 0.27765 0.0
C828 C 0.06935 0.19789 0.28503 0.0
H829 H 0.06974 0.35659 0.19386 0.0
H830 H 0.06712 0.32357 0.22239 0.0
C831 C 0.07065 0.17841 0.30104 0.0
C832 C 0.08693 0.23206 0.26061 0.0
H833 H 0.10003 0.30217 0.24545 0.0
C834 C 0.07804 0.22146 0.24287 0.0
C835 C 0.09437 0.26179 0.26173 0.0
C836 C 0.10281 0.27505 0.28071 0.0
C837 C 0.07698 0.23953 0.22603 0.0
C838 C 0.08545 0.26876 0.22688 0.0
C839 C 0.09375 0.27964 0.24478 0.0
C840 C 0.08629 0.28825 0.20928 0.0
C841 C 0.06661 0.22719 0.20756 0.0
C842 C 0.09806 0.27944 0.19251 0.0
C843 C 0.09938 0.2981 0.17611 0.0
C844 C 0.08917 0.32615 0.17621 0.0
C845 C 0.07749 0.33498 0.19312 0.0
C846 C 0.07611 0.31622 0.2095 0.0
H847 H 0.0552 0.20866 0.21096 0.0
H848 H 0.05747 0.24466 0.1994 0.0
H849 H 0.07965 0.21836 0.19776 0.0
H850 H 0.10645 0.25822 0.19217 0.0
H851 H 0.10834 0.29042 0.16333 0.0
H852 H 0.43261 0.65257 0.19704 0.0
H853 H 0.43656 0.68264 0.22685 0.0
H854 H 0.40094 0.75411 0.19904 0.0
H855 H 0.39784 0.72488 0.16894 0.0
H856 H 0.43632 0.7742 0.21942 0.0
H857 H 0.38722 0.69721 0.26574 0.0
H858 H 0.41072 0.6805 0.25431 0.0
H859 H 0.38855 0.69394 0.23927 0.0
C860 C 0.42589 0.67483 0.19714 0.0
C861 C 0.41471 0.68616 0.18059 0.0
C862 C 0.42793 0.69185 0.2143 0.0
C863 C 0.41864 0.72037 0.2153 0.0
C864 C 0.40808 0.73205 0.19865 0.0
H865 H 0.3798 0.82374 0.31594 0.0
H866 H 0.3826 0.79216 0.28672 0.0
C867 C 0.40614 0.71517 0.18148 0.0
C868 C 0.41953 0.73808 0.23371 0.0
H869 H 0.40271 0.73882 0.28172 0.0
C870 C 0.42906 0.76645 0.23308 0.0
C871 C 0.40978 0.72802 0.25143 0.0
C872 C 0.3983 0.69838 0.25277 0.0
C873 C 0.42892 0.7852 0.24961 0.0
C874 C 0.41942 0.77499 0.2674 0.0
C875 C 0.4101 0.7465 0.2681 0.0
C876 C 0.41801 0.79401 0.28521 0.0
C877 C 0.43824 0.81613 0.24765 0.0
C878 C 0.437 0.80528 0.29418 0.0
C879 C 0.43541 0.82349 0.31083 0.0
C880 C 0.41482 0.83038 0.31896 0.0
C881 C 0.39588 0.81863 0.31013 0.0
C882 C 0.39746 0.80065 0.2934 0.0
H883 H 0.43963 0.82304 0.23197 0.0
H884 H 0.42792 0.83261 0.25556 0.0
H885 H 0.4549 0.81662 0.2542 0.0
H886 H 0.45305 0.79984 0.28841 0.0
H887 H 0.45031 0.83175 0.31752 0.0
H888 H 0.60755 0.70474 0.32989 0.0
H889 H 0.60583 0.73928 0.3022 0.0
H890 H 0.56414 0.67837 0.27056 0.0
H891 H 0.56645 0.64312 0.29788 0.0
H892 H 0.59712 0.70043 0.24758 0.0
H893 H 0.5547 0.79227 0.28646 0.0
H894 H 0.57927 0.78029 0.29868 0.0
H895 H 0.55648 0.75517 0.29647 0.0
C896 C 0.59812 0.69852 0.31702 0.0
C897 C 0.58708 0.6711 0.3162 0.0
C898 C 0.59692 0.71851 0.30129 0.0
C899 C 0.58451 0.71165 0.28448 0.0
C900 C 0.57364 0.68424 0.28349 0.0
H901 H 0.55192 0.83785 0.19108 0.0
H902 H 0.55028 0.80255 0.21852 0.0
C903 C 0.57486 0.66418 0.2992 0.0
C904 C 0.58352 0.73263 0.26764 0.0
H905 H 0.57018 0.80389 0.25507 0.0
C906 C 0.5911 0.723 0.24918 0.0
C907 C 0.57535 0.76191 0.26968 0.0
C908 C 0.56578 0.77298 0.28884 0.0
C909 C 0.59128 0.7421 0.23282 0.0
C910 C 0.58409 0.77181 0.23511 0.0
C911 C 0.57593 0.78121 0.25342 0.0
C912 C 0.58513 0.79355 0.2187 0.0
C913 C 0.59897 0.73018 0.21321 0.0
C914 C 0.60531 0.80064 0.20999 0.0
C915 C 0.60629 0.82078 0.19435 0.0
C916 C 0.58713 0.83448 0.18721 0.0
C917 C 0.56699 0.82787 0.1963 0.0
C918 C 0.56601 0.8076 0.21192 0.0
H919 H 0.59783 0.70556 0.21259 0.0
H920 H 0.58922 0.73965 0.20088 0.0
H921 H 0.61639 0.73638 0.21098 0.0
H922 H 0.62034 0.79067 0.21534 0.0
H923 H 0.6221 0.82584 0.18796 0.0
H924 H 0.86292 0.32819 0.30404 0.0
H925 H 0.86292 0.29009 0.27835 0.0
H926 H 0.93357 0.29174 0.27711 0.0
H927 H 0.93377 0.32913 0.30322 0.0
H928 H 0.88065 0.29219 0.24022 0.0
H929 H 0.91948 0.20342 0.28521 0.0
H930 H 0.90813 0.23674 0.29597 0.0
H931 H 0.93461 0.23762 0.28438 0.0
C932 C 0.87847 0.32027 0.29844 0.0
C933 C 0.89834 0.33158 0.30583 0.0
C934 C 0.87843 0.29864 0.28368 0.0
C935 C 0.89825 0.28777 0.27609 0.0
C936 C 0.91811 0.29946 0.28305 0.0
H937 H 0.93316 0.15922 0.18667 0.0
H938 H 0.93274 0.19658 0.21277 0.0
C939 C 0.91817 0.32111 0.29781 0.0
C940 C 0.8981 0.26437 0.26075 0.0
H941 H 0.91476 0.19338 0.25114 0.0
C942 C 0.88801 0.27053 0.24261 0.0
C943 C 0.90771 0.23616 0.26397 0.0
C944 C 0.91793 0.22789 0.28349 0.0
C945 C 0.88765 0.24939 0.22741 0.0
C946 C 0.89733 0.22122 0.23061 0.0
C947 C 0.90738 0.21503 0.24876 0.0
C948 C 0.89741 0.19794 0.21519 0.0
C949 C 0.87736 0.25759 0.20791 0.0
C950 C 0.87768 0.1859 0.20822 0.0
C951 C 0.87785 0.16439 0.19336 0.0
C952 C 0.89778 0.15441 0.18529 0.0
C953 C 0.91753 0.16609 0.19267 0.0
C954 C 0.91734 0.1876 0.20751 0.0
H955 H 0.87547 0.28203 0.20628 0.0
H956 H 0.88732 0.2491 0.19542 0.0
H957 H 0.86083 0.24742 0.20694 0.0
H958 H 0.86214 0.19313 0.21427 0.0
H959 H 0.86238 0.1555 0.18826 0.0
H960 H 0.92992 0.65966 0.80328 0.0
H961 H 0.93 0.6965 0.7768 0.0
H962 H 0.8598 0.70517 0.78171 0.0
H963 H 0.8596 0.6683 0.80822 0.0
H964 H 0.90907 0.69538 0.74081 0.0
H965 H 0.88068 0.79118 0.78557 0.0
H966 H 0.89029 0.75698 0.7965 0.0
H967 H 0.86291 0.75943 0.78679 0.0
C968 C 0.91448 0.66921 0.79864 0.0
C969 C 0.89475 0.66111 0.80791 0.0
C970 C 0.91457 0.69038 0.78358 0.0
C971 C 0.89496 0.70392 0.77754 0.0
C972 C 0.87519 0.69553 0.7865 0.0
H973 H 0.87333 0.79854 0.6681 0.0
H974 H 0.87301 0.76348 0.69551 0.0
C975 C 0.87509 0.67443 0.80161 0.0
C976 C 0.89519 0.72633 0.76156 0.0
H977 H 0.88197 0.79829 0.75082 0.0
C978 C 0.90322 0.71791 0.743 0.0
C979 C 0.88782 0.75581 0.76457 0.0
C980 C 0.88013 0.76655 0.78448 0.0
C981 C 0.90373 0.73806 0.72723 0.0
C982 C 0.89561 0.76721 0.73003 0.0
C983 C 0.88796 0.77581 0.74869 0.0
C984 C 0.89505 0.78915 0.71378 0.0
C985 C 0.91327 0.72808 0.7078 0.0
C986 C 0.90693 0.81573 0.71527 0.0
C987 C 0.90691 0.8361 0.69971 0.0
C988 C 0.89493 0.83029 0.6824 0.0
C989 C 0.88262 0.80391 0.68121 0.0
C990 C 0.88263 0.78362 0.69678 0.0
H991 H 0.92395 0.70825 0.70958 0.0
H992 H 0.89973 0.72206 0.69762 0.0
H993 H 0.92298 0.74612 0.70084 0.0
H994 H 0.91646 0.82053 0.72837 0.0
H995 H 0.91625 0.85639 0.70127 0.0
H996 H 0.56025 0.34288 0.80639 0.0
H997 H 0.56045 0.30332 0.78173 0.0
H998 H 0.6311 0.30135 0.78338 0.0
H999 H 0.63105 0.34101 0.80807 0.0
H1000 H 0.57915 0.30123 0.74468 0.0
H1001 H 0.61461 0.21461 0.79347 0.0
H1002 H 0.60395 0.24931 0.80279 0.0
H1003 H 0.63082 0.24782 0.79195 0.0
C1004 C 0.57585 0.33432 0.80136 0.0
C1005 C 0.59566 0.34505 0.80924 0.0
C1006 C 0.57592 0.31156 0.78736 0.0
C1007 C 0.59577 0.29905 0.78101 0.0
C1008 C 0.61559 0.31021 0.78845 0.0
H1009 H 0.61808 0.19291 0.67704 0.0
H1010 H 0.61666 0.23138 0.70225 0.0
C1011 C 0.61553 0.3329 0.8025 0.0
C1012 C 0.59569 0.27454 0.76645 0.0
H1013 H 0.61186 0.20266 0.75938 0.0
C1014 C 0.58622 0.27963 0.7479 0.0
C1015 C 0.6046 0.24625 0.77084 0.0
C1016 C 0.61388 0.23898 0.7909 0.0
C1017 C 0.58588 0.25738 0.73342 0.0
C1018 C 0.59561 0.22951 0.73753 0.0
C1019 C 0.60461 0.22417 0.75623 0.0
C1020 C 0.59685 0.20573 0.72249 0.0
C1021 C 0.57489 0.26382 0.71393 0.0
C1022 C 0.58678 0.17816 0.72578 0.0
C1023 C 0.58782 0.15584 0.71146 0.0
C1024 C 0.59908 0.16067 0.69365 0.0
C1025 C 0.60946 0.18822 0.69061 0.0
C1026 C 0.60842 0.21045 0.70492 0.0
H1027 H 0.56315 0.28264 0.71511 0.0
H1028 H 0.58755 0.26996 0.70292 0.0
H1029 H 0.56599 0.244 0.70838 0.0
H1030 H 0.57793 0.17401 0.73935 0.0
H1031 H 0.57991 0.13478 0.71439 0.0
H1032 H 0.43424 0.33575 0.69413 0.0
H1033 H 0.43465 0.29719 0.71955 0.0
H1034 H 0.36399 0.29499 0.71905 0.0
H1035 H 0.36344 0.33357 0.69365 0.0
H1036 H 0.41611 0.29585 0.7572 0.0
H1037 H 0.38057 0.20812 0.7094 0.0
H1038 H 0.39111 0.24261 0.69968 0.0
H1039 H 0.36434 0.24136 0.71072 0.0
C1040 C 0.41878 0.32735 0.69958 0.0
C1041 C 0.39879 0.33761 0.69176 0.0
C1042 C 0.41905 0.30518 0.71403 0.0
C1043 C 0.39937 0.29282 0.72088 0.0
C1044 C 0.37938 0.30368 0.71359 0.0
H1045 H 0.3635 0.15995 0.80703 0.0
H1046 H 0.36447 0.19857 0.78163 0.0
C1047 C 0.37909 0.32576 0.69911 0.0
C1048 C 0.39973 0.26859 0.73568 0.0
H1049 H 0.38393 0.19673 0.74348 0.0
C1050 C 0.4092 0.27412 0.75418 0.0
C1051 C 0.39074 0.24024 0.73166 0.0
C1052 C 0.38129 0.23254 0.71173 0.0
C1053 C 0.40945 0.25226 0.76896 0.0
C1054 C 0.40026 0.22403 0.76499 0.0
C1055 C 0.39092 0.21843 0.74646 0.0
C1056 C 0.39985 0.20014 0.78001 0.0
C1057 C 0.41903 0.25977 0.78886 0.0
C1058 C 0.41943 0.18785 0.7872 0.0
C1059 C 0.41893 0.16583 0.80174 0.0
C1060 C 0.39881 0.15567 0.80932 0.0
C1061 C 0.37924 0.16758 0.8017 0.0
C1062 C 0.37976 0.18953 0.78713 0.0
H1063 H 0.42082 0.28414 0.79094 0.0
H1064 H 0.40863 0.25081 0.80091 0.0
H1065 H 0.43552 0.24952 0.79017 0.0
H1066 H 0.4351 0.19542 0.78165 0.0
H1067 H 0.4343 0.15735 0.80738 0.0
H1068 H 0.10406 0.69308 0.66577 0.0
H1069 H 0.10362 0.72741 0.69361 0.0
H1070 H 0.07112 0.66148 0.72924 0.0
H1071 H 0.07168 0.62674 0.70147 0.0
H1072 H 0.05256 0.71947 0.73167 0.0
H1073 H 0.14271 0.72042 0.74304 0.0
H1074 H 0.13421 0.72862 0.71826 0.0
H1075 H 0.12905 0.69242 0.72846 0.0
C1076 C 0.09704 0.68568 0.67956 0.0
C1077 C 0.08809 0.657 0.68142 0.0
C1078 C 0.09676 0.70539 0.69545 0.0
C1079 C 0.08763 0.6968 0.71354 0.0
C1080 C 0.0783 0.66846 0.71539 0.0
H1081 H 0.10562 0.78537 0.82567 0.0
H1082 H 0.10402 0.74994 0.79848 0.0
C1083 C 0.07857 0.64869 0.69949 0.0
C1084 C 0.0878 0.71751 0.73048 0.0
H1085 H 0.12205 0.75601 0.76097 0.0
C1086 C 0.06773 0.72742 0.73815 0.0
C1087 C 0.10763 0.72752 0.73899 0.0
C1088 C 0.12964 0.71653 0.73192 0.0
C1089 C 0.06697 0.74757 0.75395 0.0
C1090 C 0.08681 0.75828 0.76205 0.0
C1091 C 0.10686 0.74795 0.75459 0.0
C1092 C 0.08722 0.7798 0.77855 0.0
C1093 C 0.04496 0.75689 0.76201 0.0
C1094 C 0.07845 0.80844 0.77629 0.0
C1095 C 0.07945 0.82886 0.7918 0.0
C1096 C 0.08937 0.82105 0.80981 0.0
C1097 C 0.09816 0.79231 0.81195 0.0
C1098 C 0.09714 0.77194 0.79646 0.0
H1099 H 0.03174 0.74136 0.75748 0.0
H1100 H 0.04535 0.75808 0.77836 0.0
H1101 H 0.0408 0.7793 0.75628 0.0
H1102 H 0.07113 0.81514 0.76243 0.0
H1103 H 0.07281 0.85092 0.78956 0.0
H1104 H 0.05082 0.04872 0.43338 0.0
H1105 H 0.04152 0.03018 0.46601 0.0
H1106 H 0.00645 0.95694 0.43985 0.0
H1107 H 0.01597 0.97522 0.40691 0.0
H1108 H 0.9825 0.98921 0.46789 0.0
H1109 H 0.06436 0.95816 0.49694 0.0
H1110 H 0.06329 0.99498 0.48677 0.0
H1111 H 0.05908 0.96341 0.47096 0.0
C1112 C 0.0416 0.02827 0.43447 0.0
C1113 C 0.03424 0.01332 0.4175 0.0
C1114 C 0.03629 0.01771 0.45318 0.0
C1115 C 0.02363 0.99195 0.4553 0.0
C1116 C 0.01639 0.97677 0.43845 0.0
H1117 H 0.96286 0.91605 0.55991 0.0
H1118 H 0.97613 0.92442 0.52642 0.0
C1119 C 0.02172 0.98732 0.41969 0.0
C1120 C 0.01651 0.98243 0.4751 0.0
H1121 H 0.03554 0.96302 0.52063 0.0
C1122 C 0.99403 0.98308 0.47938 0.0
C1123 C 0.03168 0.97465 0.48999 0.0
C1124 C 0.05594 0.97246 0.48593 0.0
C1125 C 0.98633 0.97715 0.49842 0.0
C1126 C 0.00153 0.96992 0.51342 0.0
C1127 C 0.02398 0.96871 0.50906 0.0
C1128 C 0.99439 0.96407 0.53382 0.0
C1129 C 0.96207 0.97969 0.50251 0.0
C1130 C 0.00084 0.98314 0.54911 0.0
C1131 C 0.99324 0.97845 0.56828 0.0
C1132 C 0.9791 0.95463 0.5724 0.0
C1133 C 0.97322 0.93509 0.5571 0.0
C1134 C 0.98086 0.93973 0.53799 0.0
H1135 H 0.95334 0.99194 0.49064 0.0
H1136 H 0.9549 0.95709 0.50351 0.0
H1137 H 0.95909 0.9912 0.51675 0.0
H1138 H 0.01136 0.00199 0.54612 0.0
H1139 H -0.00202 0.99382 0.57979 0.0
H1140 H 0.50642 0.98202 0.42661 0.0
H1141 H 0.51461 0.99314 0.46108 0.0
H1142 H 0.44549 0.99455 0.47434 0.0
H1143 H 0.43713 0.98353 0.43979 0.0
H1144 H 0.50115 0.04092 0.48554 0.0
H1145 H 0.47061 0.93164 0.5124 0.0
H1146 H 0.47595 0.93891 0.48667 0.0
H1147 H 0.45152 0.95309 0.49807 0.0
C1148 C 0.49294 0.98517 0.43676 0.0
C1149 C 0.47112 0.98166 0.43053 0.0
C1150 C 0.49766 0.99135 0.45646 0.0
C1151 C 0.48066 0.9941 0.47024 0.0
C1152 C 0.45883 0.99184 0.46396 0.0
H1153 H 0.48822 0.01928 0.59773 0.0
H1154 H 0.47474 0.01252 0.56402 0.0
C1155 C 0.4541 0.98558 0.44426 0.0
C1156 C 0.48593 -0.00136 0.49126 0.0
H1157 H 0.48364 0.96522 0.5364 0.0
C1158 C 0.49727 0.02445 0.49669 0.0
C1159 C 0.48075 0.97707 0.5057 0.0
C1160 C 0.46919 0.94848 0.50048 0.0
C1161 C 0.50374 0.02921 0.51626 0.0
C1162 C 0.49902 0.00734 0.5306 0.0
C1163 C 0.48722 0.98186 0.52528 0.0
C1164 C 0.50705 0.00999 0.55103 0.0
C1165 C 0.51557 0.0576 0.52145 0.0
C1166 C 0.52963 0.00985 0.55482 0.0
C1167 C 0.53736 0.01346 0.574 0.0
C1168 C 0.52264 0.01719 0.58975 0.0
C1169 C 0.49997 0.01624 0.58597 0.0
C1170 C 0.49224 0.01259 0.56673 0.0
H1171 H 0.51291 0.07513 0.51015 0.0
H1172 H 0.5101 0.06618 0.53599 0.0
H1173 H 0.53343 0.05311 0.52233 0.0
H1174 H 0.54127 0.00716 0.54289 0.0
H1175 H 0.55488 0.01351 0.57652 0.0
H1176 H 0.50983 0.02671 0.91337 0.0
H1177 H 0.52268 0.02039 0.94725 0.0
H1178 H 0.45579 0.01565 0.96751 0.0
H1179 H 0.44278 0.02168 0.93362 0.0
H1180 H 0.483 0.05573 0.98893 0.0
H1181 H 0.52098 0.94398 0.9809 0.0
H1182 H 0.52967 0.97129 0.96322 0.0
H1183 H 0.50173 0.95874 0.96318 0.0
C1184 C 0.49785 0.02382 0.92496 0.0
C1185 C 0.47526 0.02462 0.9208 0.0
C1186 C 0.50523 0.02029 0.94432 0.0
C1187 C 0.49017 0.0173 0.95979 0.0
C1188 C 0.46765 0.01794 0.95571 0.0
H1189 H 0.49304 0.99285 0.08542 0.0
H1190 H 0.4834 0.00431 0.05135 0.0
C1191 C 0.46025 0.02148 0.93638 0.0
C1192 C 0.49784 0.01426 0.98035 0.0
H1193 H 0.52583 0.96829 0.01145 0.0
C1194 C 0.49236 0.03664 0.99389 0.0
C1195 C 0.51014 0.98939 0.98666 0.0
C1196 C 0.51587 0.96432 0.97281 0.0
C1197 C 0.49893 0.03482 0.01367 0.0
C1198 C 0.51093 0.00971 0.02006 0.0
C1199 C 0.51667 0.98755 0.00645 0.0
C1200 C 0.51693 0.00528 0.04097 0.0
C1201 C 0.49316 0.0599 0.0275 0.0
C1202 C 0.53898 0.00183 0.04638 0.0
C1203 C 0.54454 0.99524 0.06587 0.0
C1204 C 0.52814 0.99178 0.08025 0.0
C1205 C 0.50609 0.99587 0.07482 0.0
C1206 C 0.50055 0.00242 0.05533 0.0
H1207 H 0.48968 0.0808 0.01935 0.0
H1208 H 0.47822 0.05386 0.03591 0.0
H1209 H 0.5066 0.06407 0.03819 0.0
H1210 H 0.55185 0.00388 0.03547 0.0
H1211 H 0.56166 0.99252 0.06966 0.0
H1212 H -0.00032 0.99767 0.07752 0.0
H1213 H 0.01177 0.9921 0.04329 0.0
H1214 H 0.97027 0.06529 0.02605 0.0
H1215 H 0.95827 0.07113 0.06015 0.0
H1216 H 0.96523 0.01483 0.00278 0.0
H1217 H 0.05291 0.04486 0.01073 0.0
H1218 H 0.04405 0.01682 0.02778 0.0
H1219 H 0.03266 0.05362 0.02926 0.0
C1220 C 0.99336 0.01277 0.06646 0.0
C1221 C 0.97791 0.03464 0.0715 0.0
C1222 C 0.00031 0.00965 0.04696 0.0
C1223 C 0.9921 0.02855 0.03224 0.0
C1224 C 0.97681 0.05054 0.03724 0.0
H1225 H 0.0092 0.01794 0.90379 0.0
H1226 H -0.00074 0.03629 0.93665 0.0
C1227 C 0.96983 0.05365 0.0567 0.0
C1228 C -0.00153 0.02419 0.01145 0.0
H1229 H 0.04265 0.02052 0.98076 0.0
C1230 C 0.9821 0.01645 -0.00215 0.0
C1231 C 0.02048 0.02647 0.00516 0.0
C1232 C 0.03853 0.03618 0.01894 0.0
C1233 C 0.98731 0.00954 0.97826 0.0
C1234 C 0.00943 0.01089 0.97214 0.0
C1235 C 0.02571 0.01951 0.98558 0.0
C1236 C 0.01619 0.00117 0.95227 0.0
C1237 C 0.96929 -0.00041 0.96452 0.0
C1238 C 0.02936 0.97585 0.95031 0.0
C1239 C 0.03502 0.96537 0.93167 0.0
C1240 C 0.02769 0.98014 0.91461 0.0
C1241 C 0.01484 0.00591 0.91665 0.0
C1242 C 0.00918 0.01641 0.93536 0.0
H1243 H 0.95386 0.99453 0.97253 0.0
H1244 H 0.96582 0.01753 0.95372 0.0
H1245 H 0.97439 0.97953 0.95616 0.0
H1246 H 0.03485 0.96376 0.96323 0.0
H1247 H 0.04461 0.9452 0.93069 0.0
H1248 H 0.55836 0.50986 0.43119 0.0
H1249 H 0.5498 0.49569 0.46517 0.0
H1250 H 0.48075 0.50346 0.45252 0.0
H1251 H 0.48912 0.5179 0.41871 0.0
H1252 H 0.52641 0.5313 0.49194 0.0
H1253 H 0.48535 0.42274 0.48045 0.0
H1254 H 0.50231 0.43996 0.46186 0.0
H1255 H 0.47453 0.45218 0.46544 0.0
C1256 C 0.54136 0.50841 0.43563 0.0
C1257 C 0.52444 0.51506 0.42224 0.0
C1258 C 0.53651 0.50018 0.45499 0.0
C1259 C 0.51466 0.49821 0.46124 0.0
C1260 C 0.49772 0.50423 0.44784 0.0
H1261 H 0.44345 0.47622 0.56922 0.0
H1262 H 0.45598 0.48436 0.53541 0.0
C1263 C 0.50254 0.51247 0.4285 0.0
C1264 C 0.50952 0.492 0.48211 0.0
H1265 H 0.48098 0.44512 0.5121 0.0
C1266 C 0.5167 0.51229 0.49643 0.0
C1267 C 0.49681 0.46722 0.48781 0.0
C1268 C 0.48945 0.4441 0.47312 0.0
C1269 C 0.51082 0.50902 0.51629 0.0
C1270 C 0.49774 0.48454 0.52193 0.0
C1271 C 0.49093 0.46393 0.50767 0.0
C1272 C 0.49043 0.48027 0.54249 0.0
C1273 C 0.51799 0.53231 0.53095 0.0
C1274 C 0.50569 0.47525 0.55761 0.0
C1275 C 0.49857 0.4706 0.57693 0.0
C1276 C 0.47606 0.47062 0.5814 0.0
C1277 C 0.46086 0.47577 0.56619 0.0
C1278 C 0.46799 0.48049 0.54691 0.0
H1279 H 0.52355 0.55301 0.52354 0.0
H1280 H 0.50445 0.53793 0.54123 0.0
H1281 H 0.53187 0.52352 0.53978 0.0
H1282 H 0.52307 0.47444 0.5544 0.0
H1283 H 0.51066 0.46618 0.58824 0.0
H1284 H 0.05591 0.49966 0.56457 0.0
H1285 H 0.04479 0.49059 0.53042 0.0
H1286 H 0.97687 0.49792 0.54734 0.0
H1287 H 0.98786 0.50696 0.58149 0.0
H1288 H 0.98557 0.45054 0.5216 0.0
H1289 H 0.0212 0.55638 0.49431 0.0
H1290 H 0.04023 0.53307 0.50733 0.0
H1291 H 0.01724 0.54883 0.5202 0.0
C1292 C 0.03862 0.49928 0.56099 0.0
C1293 C 0.02277 0.50424 0.57566 0.0
C1294 C 0.03231 0.49418 0.54151 0.0
C1295 C 0.01005 0.49423 0.53636 0.0
C1296 C 0.99414 0.49798 0.55106 0.0
H1297 H 0.93882 0.4775 0.42591 0.0
H1298 H 0.94922 0.48538 0.46037 0.0
C1299 C 0.00045 0.50296 0.57057 0.0
C1300 C 0.00334 0.49083 0.51556 0.0
H1301 H 0.00791 0.52283 0.47011 0.0
C1302 C 0.99034 0.46638 0.51034 0.0
C1303 C 0.00958 0.51167 0.50098 0.0
C1304 C 0.02266 0.53913 0.50596 0.0
C1305 C 0.98377 0.46183 0.49075 0.0
C1306 C 0.99018 0.48253 0.47618 0.0
C1307 C 0.00309 0.50704 0.4814 0.0
C1308 C 0.9839 0.47885 0.45532 0.0
C1309 C 0.97045 0.43463 0.48571 0.0
C1310 C 5e-05 0.47346 0.44109 0.0
C1311 C 0.99418 0.46888 0.42144 0.0
C1312 C 0.97203 0.46979 0.41568 0.0
C1313 C 0.95596 0.47613 0.42994 0.0
C1314 C 0.96185 0.48064 0.4496 0.0
H1315 H 0.97084 0.41785 0.49773 0.0
H1316 H 0.95314 0.44125 0.48327 0.0
H1317 H 0.97656 0.42416 0.47194 0.0
H1318 H 0.01716 0.47212 0.44528 0.0
H1319 H 0.00696 0.46375 0.41093 0.0
H1320 H 0.99661 0.48511 0.07344 0.0
H1321 H 0.98687 0.49614 0.03931 0.0
H1322 H 0.05493 0.49013 0.0226 0.0
H1323 H 0.06483 0.47906 0.05683 0.0
H1324 H 0.00063 0.54122 0.01343 0.0
H1325 H 0.02463 0.42873 0.98698 0.0
H1326 H 0.02155 0.43739 0.01282 0.0
H1327 H 0.04565 0.44904 -0.00027 0.0
C1328 C 0.00956 0.48664 0.0626 0.0
C1329 C 0.03148 0.48099 0.06777 0.0
C1330 C 0.00395 0.49279 0.04309 0.0
C1331 C 0.02015 0.49337 0.02845 0.0
C1332 C 0.04216 0.48908 0.03366 0.0
H1333 H 0.00576 0.51594 0.90141 0.0
H1334 H 0.02085 0.50905 0.93452 0.0
C1335 C 0.04778 0.48282 0.05318 0.0
C1336 C 0.01375 0.49764 0.00766 0.0
H1337 H 0.0116 0.46254 0.9631 0.0
C1338 C 0.0031 0.5241 0.00239 0.0
C1339 C 0.01702 0.47517 0.99337 0.0
C1340 C 0.02767 0.44586 -0.00154 0.0
C1341 C 0.99546 0.52865 0.98314 0.0
C1342 C -0.00165 0.50596 0.96898 0.0
C1343 C 0.00945 0.4798 0.97409 0.0
C1344 C 0.98924 0.50863 0.94894 0.0
C1345 C 0.98438 0.55767 0.97809 0.0
C1346 C 0.9665 0.50974 0.94616 0.0
C1347 C 0.95783 0.51339 0.9273 0.0
C1348 C 0.97176 0.51595 0.91089 0.0
C1349 C 0.99457 0.51379 0.91369 0.0
C1350 C 0.00323 0.51007 0.93259 0.0
H1351 H 0.9882 0.57527 0.98904 0.0
H1352 H 0.98941 0.5655 0.96323 0.0
H1353 H 0.96636 0.55435 0.97795 0.0
H1354 H 0.95547 0.50801 0.95862 0.0
H1355 H 0.9402 0.51441 0.92556 0.0
H1356 H 0.49275 0.51147 0.90898 0.0
H1357 H 0.47696 0.51621 0.9421 0.0
H1358 H 0.50546 0.43196 0.95844 0.0
H1359 H 0.5213 0.42721 0.9255 0.0
H1360 H 0.44868 0.47865 0.96436 0.0
H1361 H 0.53106 0.49043 -0.00126 0.0
H1362 H 0.52679 0.49335 0.97249 0.0
H1363 H 0.52728 0.4575 0.98418 0.0
C1364 C 0.49545 0.49392 0.91963 0.0
C1365 C 0.50859 0.46932 0.91486 0.0
C1366 C 0.48646 0.49661 0.93847 0.0
C1367 C 0.49041 0.47467 0.95274 0.0
C1368 C 0.50267 0.44942 0.94773 0.0
H1369 H 0.46611 0.48053 0.07928 0.0
H1370 H 0.47303 0.46128 0.04612 0.0
C1371 C 0.51178 0.44683 0.92897 0.0
C1372 C 0.48262 0.47892 0.97313 0.0
H1373 H 0.5007 0.49037 0.02008 0.0
C1374 C 0.46 0.48107 0.9766 0.0
C1375 C 0.4975 0.48197 0.98899 0.0
C1376 C 0.52202 0.48095 0.98598 0.0
C1377 C 0.45185 0.4865 0.99559 0.0
C1378 C 0.46677 0.49022 0.01135 0.0
C1379 C 0.48933 0.48729 0.00795 0.0
C1380 C 0.45966 0.49971 0.03117 0.0
C1381 C 0.4274 0.48829 -0.00135 0.0
C1382 C 0.44972 0.52755 0.03366 0.0
C1383 C 0.44593 0.53869 0.05253 0.0
C1384 C 0.45218 0.52226 0.06927 0.0
C1385 C 0.46141 0.49389 0.0667 0.0
C1386 C 0.46521 0.48276 0.04779 0.0
H1387 H 0.41836 0.47621 0.98689 0.0
H1388 H 0.42264 0.47899 0.0132 0.0
H1389 H 0.42222 0.51192 -0.00184 0.0
H1390 H 0.44584 0.5413 0.02101 0.0
H1391 H 0.43912 0.56078 0.05392 0.0
H1392 H 0.15596 0.00836 0.4011 0.0
H1393 H 0.19425 0.99379 0.40678 0.0
H1394 H 0.21458 0.04906 0.35817 0.0
H1395 H 0.17655 0.06398 0.35257 0.0
H1396 H 0.2229 0.9662 0.37776 0.0
H1397 H 0.25461 0.0742 0.40511 0.0
H1398 H 0.22579 0.06497 0.40512 0.0
H1399 H 0.23894 0.07655 0.38271 0.0
C1400 C 0.16865 0.01754 0.39175 0.0
C1401 C 0.16332 0.0372 0.37635 0.0
C1402 C 0.19043 0.00918 0.39498 0.0
C1403 C 0.20715 0.0207 0.38305 0.0
C1404 C 0.20188 0.04031 0.3677 0.0
H1405 H 0.34389 0.00203 0.36104 0.0
H1406 H 0.30539 0.01664 0.36355 0.0
C1407 C 0.18015 0.04852 0.36438 0.0
C1408 C 0.23009 0.01135 0.38595 0.0
H1409 H 0.28126 0.03816 0.39556 0.0
C1410 C 0.23568 0.98175 0.38192 0.0
C1411 C 0.24657 0.03182 0.39134 0.0
C1412 C 0.24122 0.06362 0.3965 0.0
C1413 C 0.25759 0.97233 0.38225 0.0
C1414 C 0.27417 0.99302 0.38716 0.0
C1415 C 0.26847 0.02241 0.39178 0.0
C1416 C 0.29764 0.98497 0.38653 0.0
C1417 C 0.26287 0.94073 0.37648 0.0
C1418 C 0.30606 0.96276 0.3989 0.0
C1419 C 0.32798 0.95413 0.39735 0.0
C1420 C 0.34188 0.96781 0.38351 0.0
C1421 C 0.33352 0.99077 0.37161 0.0
C1422 C 0.31159 -0.00072 0.37313 0.0
H1423 H 0.24889 0.9298 0.36888 0.0
H1424 H 0.27739 0.93993 0.36663 0.0
H1425 H 0.26669 0.92768 0.38994 0.0
H1426 H 0.29561 0.95182 0.40957 0.0
H1427 H 0.33384 0.9362 0.40661 0.0
H1428 H 0.84805 0.96902 0.13855 0.0
H1429 H 0.80947 0.95411 0.13768 0.0
H1430 H 0.79602 0.02288 0.09505 0.0
H1431 H 0.83432 0.0382 0.09602 0.0
H1432 H 0.77661 0.99544 0.1486 0.0
H1433 H 0.76199 0.95051 0.07349 0.0
H1434 H 0.78902 0.95293 0.08427 0.0
H1435 H 0.77617 0.98548 0.07414 0.0
C1436 C 0.83693 0.98062 0.12875 0.0
C1437 C 0.84421 0.00486 0.11742 0.0
C1438 C 0.81497 0.972 0.1282 0.0
C1439 C 0.80001 0.98726 0.11618 0.0
C1440 C 0.80742 0.01043 0.1041 0.0
H1441 H 0.6588 -0.00134 0.10672 0.0
H1442 H 0.69855 0.00475 0.10303 0.0
C1443 C 0.82935 0.01913 0.10467 0.0
C1444 C 0.77629 0.98169 0.11819 0.0
H1445 H 0.73036 0.96208 0.09264 0.0
C1446 C 0.7665 0.98783 0.13644 0.0
C1447 C 0.76323 0.97218 0.1022 0.0
C1448 C 0.77312 0.96464 0.08244 0.0
C1449 C 0.74382 0.98529 0.13907 0.0
C1450 C 0.73071 0.97574 0.12309 0.0
C1451 C 0.74051 0.96944 0.10483 0.0
C1452 C 0.7068 0.97192 0.12516 0.0
C1453 C 0.73405 0.99365 0.15875 0.0
C1454 C 0.69842 0.95128 0.13866 0.0
C1455 C 0.67585 0.9479 0.14086 0.0
C1456 C 0.66126 0.96493 0.12946 0.0
C1457 C 0.66969 0.9853 0.11571 0.0
C1458 C 0.69232 0.98877 0.11358 0.0
H1459 H 0.7453 0.00791 0.16748 0.0
H1460 H 0.71825 0.00557 0.15682 0.0
H1461 H 0.73089 0.97315 0.16739 0.0
H1462 H 0.70935 0.93759 0.14739 0.0
H1463 H 0.66983 0.93148 0.1512 0.0
H1464 H 0.67529 0.0505 0.64535 0.0
H1465 H 0.71326 0.04005 0.63631 0.0
H1466 H 0.69114 0.98367 0.5889 0.0
H1467 H 0.65286 0.99388 0.59801 0.0
H1468 H 0.72422 0.95898 0.61559 0.0
H1469 H 0.74685 0.06996 0.58641 0.0
H1470 H 0.733 0.07081 0.60979 0.0
H1471 H 0.71876 0.05751 0.58833 0.0
C1472 C 0.67849 0.0357 0.63309 0.0
C1473 C 0.66117 0.02278 0.62247 0.0
C1474 C 0.70015 0.03009 0.62779 0.0
C1475 C 0.70489 0.01152 0.61177 0.0
C1476 C 0.6877 -0.00165 0.60118 0.0
H1477 H 0.83535 0.93954 0.58649 0.0
H1478 H 0.79691 0.95279 0.58184 0.0
C1479 C 0.66594 0.00415 0.60639 0.0
C1480 C 0.72792 0.0047 0.607 0.0
H1481 H 0.77649 0.03755 0.59503 0.0
C1482 C 0.73564 0.97592 0.61072 0.0
C1483 C 0.74264 0.02701 0.60074 0.0
C1484 C 0.73491 0.05802 0.5959 0.0
C1485 C 0.75804 0.96922 0.60947 0.0
C1486 C 0.77292 0.99183 0.60386 0.0
C1487 C 0.76502 0.02031 0.59932 0.0
C1488 C 0.79686 0.98691 0.6043 0.0
C1489 C 0.76567 0.9385 0.61528 0.0
C1490 C 0.80984 0.00294 0.61765 0.0
C1491 C 0.83195 0.99587 0.62008 0.0
C1492 C 0.84144 0.97257 0.60922 0.0
C1493 C 0.82866 0.95775 0.59501 0.0
C1494 C 0.80659 0.96501 0.59249 0.0
H1495 H 0.75276 0.92589 0.62322 0.0
H1496 H 0.77005 0.92583 0.60181 0.0
H1497 H 0.78043 0.93972 0.62483 0.0
H1498 H 0.80264 0.02012 0.62679 0.0
H1499 H 0.84145 0.00806 0.63087 0.0
H1500 H 0.33962 0.97793 0.86358 0.0
H1501 H 0.30101 0.96529 0.86798 0.0
H1502 H 0.2943 0.03555 0.9108 0.0
H1503 H 0.33259 0.04936 0.90577 0.0
H1504 H 0.27561 0.94896 0.89987 0.0
H1505 H 0.24896 0.0581 0.8695 0.0
H1506 H 0.27696 0.04542 0.8681 0.0
H1507 H 0.26636 0.06015 0.89081 0.0
C1508 C 0.32994 0.9907 0.87394 0.0
C1509 C 0.33912 0.01493 0.88409 0.0
C1510 C 0.30793 0.9833 0.87655 0.0
C1511 C 0.29473 -0.0001 0.8894 0.0
C1512 C 0.30413 0.02287 0.90051 0.0
H1513 H 0.15158 0.98717 0.90093 0.0
H1514 H 0.19009 -0.00077 0.90789 0.0
C1515 C 0.32612 0.03047 0.89779 0.0
C1516 C 0.27089 0.99411 0.89018 0.0
H1517 H 0.22122 0.0246 0.87866 0.0
C1518 C 0.2637 0.96556 0.8954 0.0
C1519 C 0.25541 0.01585 0.88429 0.0
C1520 C 0.26224 0.04653 0.87769 0.0
C1521 C 0.24143 0.95798 0.89451 0.0
C1522 C 0.2261 0.97946 0.88812 0.0
C1523 C 0.23313 0.00829 0.8836 0.0
C1524 C 0.20298 0.97176 0.88443 0.0
C1525 C 0.23445 0.92695 0.90008 0.0
C1526 C 0.19766 0.95276 0.86877 0.0
C1527 C 0.17582 0.94608 0.86468 0.0
C1528 C 0.15894 0.95829 0.87621 0.0
C1529 C 0.16432 0.97739 0.89189 0.0
C1530 C 0.18622 0.98428 0.89587 0.0
H1531 H 0.24714 0.91545 0.90905 0.0
H1532 H 0.21884 0.92739 0.90849 0.0
H1533 H 0.23173 0.91378 0.88646 0.0
H1534 H 0.21043 0.94325 0.85964 0.0
H1535 H 0.17217 0.93099 0.85268 0.0
H1536 H 0.82648 0.44931 0.34214 0.0
H1537 H 0.78793 0.46251 0.34614 0.0
H1538 H 0.8041 0.51563 0.39701 0.0
H1539 H 0.843 0.50297 0.39288 0.0
H1540 H 0.76198 0.45159 0.38123 0.0
H1541 H 0.76681 0.57125 0.36061 0.0
H1542 H 0.78789 0.54486 0.35402 0.0
H1543 H 0.78591 0.55817 0.37889 0.0
C1544 C 0.82194 0.46427 0.35396 0.0
C1545 C 0.8378 0.47541 0.36707 0.0
C1546 C 0.79989 0.47154 0.35632 0.0
C1547 C 0.79328 0.49017 0.37176 0.0
C1548 C 0.809 0.50146 0.38487 0.0
H1549 H 0.66327 0.55961 0.39747 0.0
H1550 H 0.70206 0.54659 0.39939 0.0
C1551 C 0.83113 0.4941 0.38256 0.0
C1552 C 0.76978 0.49705 0.37424 0.0
H1553 H 0.73218 0.55273 0.36971 0.0
C1554 C 0.75542 0.47372 0.37882 0.0
C1555 C 0.76142 0.52595 0.37114 0.0
C1556 C 0.77621 0.55156 0.36576 0.0
C1557 C 0.73277 0.4785 0.38026 0.0
C1558 C 0.72431 0.50724 0.3766 0.0
C1559 C 0.73875 0.53071 0.37246 0.0
C1560 C 0.70049 0.51335 0.3764 0.0
C1561 C 0.71814 0.4528 0.38581 0.0
C1562 C 0.68675 0.49889 0.36285 0.0
C1563 C 0.66449 0.50603 0.36186 0.0
C1564 C 0.65562 0.52794 0.3743 0.0
C1565 C 0.66945 0.5422 0.38795 0.0
C1566 C 0.69167 0.53499 0.38896 0.0
H1567 H 0.7274 0.43514 0.39368 0.0
H1568 H 0.70438 0.46025 0.39532 0.0
H1569 H 0.71115 0.44289 0.37222 0.0
H1570 H 0.69334 0.48255 0.35274 0.0
H1571 H 0.65427 0.4946 0.35124 0.0
H1572 H 0.34402 0.49891 0.11121 0.0
H1573 H 0.30606 0.48187 0.1077 0.0
H1574 H 0.2835 0.57269 0.10947 0.0
H1575 H 0.32119 0.58987 0.11319 0.0
H1576 H 0.27122 0.49304 0.13437 0.0
H1577 H 0.25355 0.53864 0.05993 0.0
H1578 H 0.28109 0.53416 0.06926 0.0
H1579 H 0.26462 0.56515 0.07704 0.0
C1580 C 0.33096 0.51521 0.11089 0.0
C1581 C 0.33559 0.54573 0.11235 0.0
C1582 C 0.30935 0.50548 0.10876 0.0
C1583 C 0.29211 0.5261 0.10796 0.0
C1584 C 0.29666 0.55651 0.10955 0.0
H1585 H 0.15046 0.517 0.10711 0.0
H1586 H 0.18888 0.53295 0.10649 0.0
C1587 C 0.3182 0.56625 0.11168 0.0
C1588 C 0.26921 0.51587 0.10653 0.0
H1589 H 0.22304 0.52063 0.07825 0.0
C1590 C 0.26071 0.49882 0.12203 0.0
C1591 C 0.2556 0.52372 0.09046 0.0
C1592 C 0.26418 0.54121 0.07312 0.0
C1593 C 0.23874 0.48985 0.12211 0.0
C1594 C 0.22511 0.49774 0.10606 0.0
C1595 C 0.23361 0.51471 0.09051 0.0
C1596 C 0.20199 0.4883 0.10519 0.0
C1597 C 0.23014 0.47263 0.13957 0.0
C1598 C 0.1968 0.45803 0.10419 0.0
C1599 C 0.17501 0.44888 0.10469 0.0
C1600 C 0.15797 0.46988 0.10604 0.0
C1601 C 0.16322 0.50031 0.10634 0.0
C1602 C 0.1851 0.50944 0.10586 0.0
H1603 H 0.24106 0.47474 0.15262 0.0
H1604 H 0.21347 0.48033 0.14372 0.0
H1605 H 0.22911 0.44874 0.13565 0.0
H1606 H 0.20966 0.44145 0.10338 0.0
H1607 H 0.17156 0.42527 0.10467 0.0
H1608 H 0.33419 0.43893 0.5943 0.0
H1609 H 0.29592 0.45156 0.58794 0.0
H1610 H 0.30089 0.5257 0.628 0.0
H1611 H 0.33947 0.51406 0.63376 0.0
H1612 H 0.2646 0.45034 0.61582 0.0
H1613 H 0.26752 0.56265 0.58276 0.0
H1614 H 0.29139 0.539 0.58437 0.0
H1615 H 0.28279 0.56065 0.60532 0.0
C1616 C 0.32738 0.45852 0.60127 0.0
C1617 C 0.33991 0.47554 0.61453 0.0
C1618 C 0.30544 0.46556 0.59772 0.0
C1619 C 0.29563 0.48975 0.60731 0.0
C1620 C 0.30825 0.50731 0.6201 0.0
H1621 H 0.16979 0.55167 0.64007 0.0
H1622 H 0.20852 0.54085 0.63442 0.0
C1623 C 0.33022 0.50039 0.62358 0.0
C1624 C 0.27172 0.49468 0.60569 0.0
H1625 H 0.23307 0.54807 0.59726 0.0
C1626 C 0.25767 0.47152 0.6114 0.0
C1627 C 0.26274 0.52234 0.59991 0.0
C1628 C 0.27691 0.54746 0.59255 0.0
C1629 C 0.23494 0.47575 0.61244 0.0
C1630 C 0.22609 0.50378 0.60749 0.0
C1631 C 0.24001 0.52663 0.60111 0.0
C1632 C 0.20262 0.51044 0.61031 0.0
C1633 C 0.22062 0.4507 0.61972 0.0
C1634 C 0.18657 0.49695 0.59852 0.0
C1635 C 0.16437 0.50295 0.60179 0.0
C1636 C 0.15797 0.52243 0.61695 0.0
C1637 C 0.17419 0.53609 0.62856 0.0
C1638 C 0.19631 0.53019 0.62523 0.0
H1639 H 0.23038 0.43184 0.62563 0.0
H1640 H 0.20938 0.45874 0.63143 0.0
H1641 H 0.21043 0.44234 0.60735 0.0
H1642 H 0.19122 0.48181 0.58683 0.0
H1643 H 0.15222 0.49215 0.59262 0.0
H1644 H 0.6524 0.52254 0.86532 0.0
H1645 H 0.69123 0.53206 0.87149 0.0
H1646 H 0.69226 0.46238 0.91515 0.0
H1647 H 0.65372 0.45175 0.90846 0.0
H1648 H 0.71636 0.54605 0.90488 0.0
H1649 H 0.73737 0.4345 0.87464 0.0
H1650 H 0.71035 0.4504 0.87226 0.0
H1651 H 0.71905 0.43478 0.89536 0.0
C1652 C 0.66086 0.50934 0.87631 0.0
C1653 C 0.65005 0.48611 0.88617 0.0
C1654 C 0.68298 0.51496 0.87993 0.0
C1655 C 0.69466 0.4975 0.89348 0.0
C1656 C 0.68359 0.47571 0.90437 0.0
H1657 H 0.83881 0.49472 0.90111 0.0
H1658 H 0.80025 0.48611 0.90994 0.0
C1659 C 0.66148 0.46993 0.90068 0.0
C1660 C 0.71871 0.50073 0.8949 0.0
H1661 H 0.76662 0.46569 0.88317 0.0
C1662 C 0.72738 0.52838 0.90039 0.0
C1663 C 0.73302 0.47756 0.88904 0.0
C1664 C 0.72457 0.44768 0.88234 0.0
C1665 C 0.74999 0.5338 0.89955 0.0
C1666 C 0.76414 0.51107 0.89285 0.0
C1667 C 0.75563 0.48299 0.88832 0.0
C1668 C 0.78739 0.51692 0.88834 0.0
C1669 C 0.75853 0.564 0.90538 0.0
C1670 C 0.79272 0.53664 0.87309 0.0
C1671 C 0.81454 0.54138 0.86795 0.0
C1672 C 0.83145 0.5264 0.87794 0.0
C1673 C 0.82608 0.50659 0.89323 0.0
C1674 C 0.80415 0.50169 0.89828 0.0
H1675 H 0.74695 0.57569 0.91537 0.0
H1676 H 0.77471 0.56216 0.9128 0.0
H1677 H 0.7606 0.5778 0.89195 0.0
H1678 H 0.77996 0.54817 0.86502 0.0
H1679 H 0.81819 0.55711 0.85631 0.0
H1680 H 0.01349 0.14752 0.36269 0.0
H1681 H 0.99405 0.18947 0.3769 0.0
H1682 H 0.03367 0.18332 0.42949 0.0
H1683 H 0.05396 0.14161 0.41488 0.0
H1684 H 0.96994 0.19934 0.40988 0.0
H1685 H 0.04664 0.26684 0.41164 0.0
H1686 H 0.04579 0.2311 0.39971 0.0
H1687 H 0.0457 0.23346 0.42615 0.0
C1688 C 0.01799 0.15485 0.37736 0.0
C1689 C 0.03547 0.14161 0.38755 0.0
C1690 C 0.00676 0.17877 0.38553 0.0
C1691 C 0.0126 0.18984 0.40415 0.0
C1692 C 0.02921 0.17555 0.41494 0.0
H1693 H 0.93229 0.35355 0.40968 0.0
H1694 H 0.94889 0.30981 0.42559 0.0
C1695 C 0.04072 0.1517 0.4066 0.0
C1696 C 0.00239 0.21797 0.41085 0.0
H1697 H 0.01348 0.29219 0.4123 0.0
C1698 C 0.9794 0.21967 0.41102 0.0
C1699 C 0.01484 0.24437 0.41259 0.0
C1700 C 0.0396 0.2441 0.41246 0.0
C1701 C 0.96857 0.24717 0.41026 0.0
C1702 C 0.98116 0.27353 0.40989 0.0
C1703 C 0.00396 0.27183 0.41241 0.0
C1704 C 0.97201 0.30159 0.40201 0.0
C1705 C 0.94399 0.24769 0.40775 0.0
C1706 C 0.97991 0.31184 0.38382 0.0
C1707 C 0.9707 0.33668 0.37489 0.0
C1708 C 0.95326 0.35182 0.38389 0.0
C1709 C 0.94561 0.3421 0.40236 0.0
C1710 C 0.95502 0.31714 0.41143 0.0
H1711 H 0.93689 0.225 0.40686 0.0
H1712 H 0.9364 0.25933 0.42045 0.0
H1713 H 0.93951 0.26001 0.39414 0.0
H1714 H 0.99292 0.30009 0.37622 0.0
H1715 H 0.97701 0.3436 0.36069 0.0
H1716 H 0.44479 0.85658 0.42527 0.0
H1717 H 0.46264 0.81349 0.44057 0.0
H1718 H 0.50799 0.80909 0.39181 0.0
H1719 H 0.49085 0.85232 0.37696 0.0
H1720 H 0.46282 0.76044 0.4265 0.0
H1721 H 0.54912 0.79055 0.43523 0.0
H1722 H 0.5282 0.81845 0.4315 0.0
H1723 H 0.54145 0.80088 0.41071 0.0
C1724 C 0.45892 0.84677 0.41811 0.0
C1725 C 0.46639 0.85768 0.39989 0.0
C1726 C 0.46913 0.82225 0.42689 0.0
C1727 C 0.48696 0.80835 0.41758 0.0
C1728 C 0.4948 0.81997 0.3997 0.0
H1729 H 0.50931 0.64798 0.37544 0.0
H1730 H 0.49412 0.69123 0.39181 0.0
C1731 C 0.48477 0.84452 0.39105 0.0
C1732 C 0.49531 0.7792 0.42447 0.0
H1733 H 0.54241 0.73863 0.42323 0.0
C1734 C 0.48027 0.7558 0.42652 0.0
C1735 C 0.51802 0.77295 0.42536 0.0
C1736 C 0.53503 0.79723 0.42583 0.0
C1737 C 0.48733 0.72616 0.42653 0.0
C1738 C 0.50984 0.71993 0.42378 0.0
C1739 C 0.52504 0.7433 0.42467 0.0
C1740 C 0.51736 0.6909 0.41601 0.0
C1741 C 0.47043 0.70186 0.42822 0.0
C1742 C 0.53578 0.67642 0.42392 0.0
C1743 C 0.54482 0.65178 0.41428 0.0
C1744 C 0.53561 0.64146 0.39655 0.0
C1745 C 0.51674 0.65533 0.3891 0.0
C1746 C 0.50784 0.6799 0.39863 0.0
H1747 H 0.45726 0.70845 0.43866 0.0
H1748 H 0.46263 0.69826 0.41362 0.0
H1749 H 0.47779 0.68062 0.43331 0.0
H1750 H 0.54356 0.68475 0.43717 0.0
H1751 H 0.55938 0.64146 0.42036 0.0
H1752 H 0.55893 0.8679 0.08222 0.0
H1753 H 0.54209 0.8257 0.0651 0.0
H1754 H 0.49322 0.81976 0.11093 0.0
H1755 H 0.50946 0.86204 0.12766 0.0
H1756 H 0.54039 0.77163 0.07866 0.0
H1757 H 0.45553 0.80488 0.06414 0.0
H1758 H 0.47656 0.83189 0.06966 0.0
H1759 H 0.4614 0.81409 0.08925 0.0
C1760 C 0.54427 0.85797 0.08835 0.0
C1761 C 0.53554 0.86814 0.10631 0.0
C1762 C 0.53465 0.83395 0.07853 0.0
C1763 C 0.51613 0.81989 0.0865 0.0
C1764 C 0.50703 0.83079 0.10409 0.0
H1765 H 0.48648 0.65753 0.12269 0.0
H1766 H 0.50478 0.70051 0.10869 0.0
C1767 C 0.51652 0.8548 0.11381 0.0
C1768 C 0.50809 0.7913 0.07849 0.0
H1769 H 0.46049 0.75232 0.07509 0.0
C1770 C 0.52295 0.76753 0.07718 0.0
C1771 C 0.48548 0.78586 0.07571 0.0
C1772 C 0.46894 0.81072 0.07453 0.0
C1773 C 0.5155 0.73814 0.07594 0.0
C1774 C 0.49271 0.73253 0.07669 0.0
C1775 C 0.478 0.75645 0.07515 0.0
C1776 C 0.48391 0.70329 0.08285 0.0
C1777 C 0.53215 0.71339 0.07503 0.0
C1778 C 0.46588 0.69054 0.07315 0.0
C1779 C 0.45504 0.66619 0.08144 0.0
C1780 C 0.46207 0.65429 0.09954 0.0
C1781 C 0.48074 0.66613 0.10869 0.0
C1782 C 0.49141 0.69054 0.10053 0.0
H1783 H 0.54638 0.72009 0.06583 0.0
H1784 H 0.53843 0.7088 0.09008 0.0
H1785 H 0.52503 0.69267 0.06887 0.0
H1786 H 0.45968 0.70017 0.05961 0.0
H1787 H 0.4407 0.6574 0.07403 0.0
H1788 H 0.97446 0.15238 0.13174 0.0
H1789 H 0.98965 0.19677 0.11662 0.0
H1790 H 0.94802 0.18447 0.06582 0.0
H1791 H 0.93226 0.1398 0.08118 0.0
H1792 H 0.01137 0.20329 0.08015 0.0
H1793 H 0.93438 0.27001 0.08418 0.0
H1794 H 0.93729 0.23572 0.09773 0.0
H1795 H 0.93419 0.23492 0.07143 0.0
C1796 C 0.9685 0.15899 0.11733 0.0
C1797 C 0.95208 0.14275 0.10769 0.0
C1798 C 0.97728 0.18431 0.10867 0.0
C1799 C 0.96991 0.19392 0.09015 0.0
C1800 C 0.95374 0.17755 0.08022 0.0
H1801 H 0.05079 0.35379 0.07298 0.0
H1802 H 0.03024 0.31127 0.05986 0.0
C1803 C 0.9448 0.1521 0.08899 0.0
C1804 C 0.97898 0.22186 0.08216 0.0
H1805 H 0.96735 0.29592 0.08089 0.0
C1806 C 0.00176 0.22358 0.07966 0.0
C1807 C 0.96624 0.24807 0.08136 0.0
C1808 C 0.94166 0.24738 0.08384 0.0
C1809 C 0.01248 0.25108 0.07888 0.0
C1810 C -0.00011 0.27745 0.08008 0.0
C1811 C 0.97691 0.27561 0.08011 0.0
C1812 C 0.01006 0.30598 0.08587 0.0
C1813 C 0.03724 0.25156 0.0789 0.0
C1814 C 0.0048 0.31791 0.10439 0.0
C1815 C 0.01622 0.34224 0.11176 0.0
C1816 C 0.03328 0.35503 0.1008 0.0
C1817 C 0.03788 0.34407 0.08183 0.0
C1818 C 0.02621 0.31979 0.07434 0.0
H1819 H 0.04442 0.22894 0.08019 0.0
H1820 H 0.04319 0.26155 0.06495 0.0
H1821 H 0.04343 0.26527 0.09132 0.0
H1822 H 0.99243 0.30756 0.11357 0.0
H1823 H 0.01221 0.35027 0.12638 0.0
H1824 H 0.97781 0.8369 0.63164 0.0
H1825 H 0.99441 0.79224 0.6181 0.0
H1826 H 0.95168 0.79731 0.56749 0.0
H1827 H 0.93454 0.84214 0.58126 0.0
H1828 H 0.95196 0.74255 0.58314 0.0
H1829 H 0.03743 0.77847 0.57417 0.0
H1830 H 0.02837 0.78829 0.59842 0.0
H1831 H 0.01524 0.80471 0.5772 0.0
C1832 C 0.97207 0.82878 0.61752 0.0
C1833 C 0.95486 0.84298 0.60752 0.0
C1834 C 0.98176 0.8034 0.60967 0.0
C1835 C 0.97467 0.79187 0.59154 0.0
C1836 C 0.95759 0.80611 0.58137 0.0
H1837 H 0.05328 0.63059 0.58049 0.0
H1838 H 0.03443 0.67396 0.56653 0.0
C1839 C 0.94779 0.83161 0.58928 0.0
C1840 C 0.9838 0.76324 0.58462 0.0
H1841 H 0.03234 0.72591 0.58358 0.0
C1842 C 0.96954 0.73898 0.58259 0.0
C1843 C 0.00667 0.7586 0.58316 0.0
C1844 C 0.02274 0.78405 0.58312 0.0
C1845 C 0.97766 0.70985 0.58165 0.0
C1846 C 0.0005 0.70502 0.58333 0.0
C1847 C 0.01477 0.72947 0.5828 0.0
C1848 C 0.00961 0.67585 0.5893 0.0
C1849 C 0.9616 0.68452 0.57993 0.0
C1850 C 0.00181 0.66238 0.60659 0.0
C1851 C 0.01246 0.63775 0.61452 0.0
C1852 C 0.03135 0.62629 0.60549 0.0
C1853 C 0.03876 0.63901 0.58777 0.0
C1854 C 0.02799 0.66371 0.57976 0.0
H1855 H 0.94748 0.69096 0.57049 0.0
H1856 H 0.96938 0.66432 0.57365 0.0
H1857 H 0.95502 0.67914 0.59476 0.0
H1858 H 0.98815 0.67185 0.61461 0.0
H1859 H 0.00637 0.62849 0.62821 0.0
H1860 H 0.4814 0.35215 0.64481 0.0
H1861 H 0.49927 0.30656 0.63418 0.0
H1862 H 0.4567 0.30229 0.58343 0.0
H1863 H 0.43832 0.34799 0.59426 0.0
H1864 H 0.45778 0.25045 0.60301 0.0
H1865 H 0.54268 0.28771 0.59129 0.0
H1866 H 0.5333 0.30026 0.61488 0.0
H1867 H 0.52002 0.31349 0.59278 0.0
C1868 C 0.47601 0.3418 0.63124 0.0
C1869 C 0.45845 0.3536 0.62038 0.0
C1870 C 0.48641 0.31587 0.62505 0.0
C1871 C 0.47965 0.30139 0.60777 0.0
C1872 C 0.46233 0.31335 0.59668 0.0
H1873 H 0.55842 0.13882 0.59729 0.0
H1874 H 0.53928 0.18304 0.58492 0.0
C1875 C 0.45184 0.33937 0.6029 0.0
C1876 C 0.48928 0.27216 0.60279 0.0
H1877 H 0.5384 0.2361 0.60242 0.0
C1878 C 0.4754 0.24733 0.60231 0.0
C1879 C 0.5122 0.26805 0.60129 0.0
C1880 C 0.52785 0.2939 0.59985 0.0
C1881 C 0.48396 0.21841 0.60248 0.0
C1882 C 0.50692 0.21441 0.60364 0.0
C1883 C 0.52077 0.23916 0.60197 0.0
C1884 C 0.51674 0.18565 0.60949 0.0
C1885 C 0.46829 0.1925 0.60229 0.0
C1886 C 0.51041 0.17253 0.62737 0.0
C1887 C 0.52124 0.14743 0.63443 0.0
C1888 C 0.53881 0.13513 0.62386 0.0
C1889 C 0.54491 0.14787 0.60575 0.0
C1890 C 0.53399 0.17304 0.59864 0.0
H1891 H 0.45328 0.19797 0.59374 0.0
H1892 H 0.47596 0.17232 0.59587 0.0
H1893 H 0.46314 0.18747 0.61763 0.0
H1894 H 0.49762 0.18239 0.63631 0.0
H1895 H 0.51621 0.1382 0.64847 0.0
H1896 H 0.43685 0.14422 0.90803 0.0
H1897 H 0.45406 0.19094 0.91855 0.0
H1898 H 0.49552 0.18902 0.86705 0.0
H1899 H 0.47894 0.14241 0.85676 0.0
H1900 H 0.51762 0.20633 0.90081 0.0
H1901 H 0.43958 0.26928 0.89096 0.0
H1902 H 0.43952 0.2388 0.9081 0.0
H1903 H 0.44275 0.23167 0.88222 0.0
C1904 C 0.44979 0.15369 0.89909 0.0
C1905 C 0.45643 0.13987 0.88148 0.0
C1906 C 0.45953 0.18036 0.90509 0.0
C1907 C 0.47584 0.19358 0.89343 0.0
C1908 C 0.48298 0.17916 0.87627 0.0
H1909 H 0.51571 0.35455 0.85137 0.0
H1910 H 0.4983 0.30891 0.8626 0.0
C1911 C 0.4734 0.15256 0.87036 0.0
C1912 C 0.48479 0.22332 0.89798 0.0
H1913 H 0.4717 0.29685 0.89467 0.0
C1914 C 0.50759 0.22621 0.89995 0.0
C1915 C 0.47156 0.24909 0.89682 0.0
C1916 C 0.44701 0.24729 0.8943 0.0
C1917 C 0.51773 0.25414 0.89914 0.0
C1918 C 0.50458 0.27979 0.89677 0.0
C1919 C 0.48167 0.27705 0.89648 0.0
C1920 C 0.51421 0.30871 0.89115 0.0
C1921 C 0.54245 0.25572 0.89919 0.0
C1922 C 0.52873 0.32395 0.90361 0.0
C1923 C 0.53895 0.34999 0.8971 0.0
C1924 C 0.53456 0.36121 0.87815 0.0
C1925 C 0.51945 0.34642 0.86603 0.0
C1926 C 0.50942 0.32039 0.87246 0.0
H1927 H 0.55015 0.23338 0.89828 0.0
H1928 H 0.54837 0.26932 0.88662 0.0
H1929 H 0.54808 0.26645 0.91302 0.0
H1930 H 0.53235 0.31553 0.91821 0.0
H1931 H 0.55037 0.36117 0.90681 0.0
H1932 H 0.97763 0.63936 0.85614 0.0
H1933 H 0.99583 0.68295 0.86956 0.0
H1934 H 0.95411 0.67971 0.92089 0.0
H1935 H 0.93536 0.63612 0.90722 0.0
H1936 H 0.95439 0.73369 0.90532 0.0
H1937 H 0.04004 0.69723 0.91217 0.0
H1938 H 0.03033 0.68786 0.88803 0.0
H1939 H 0.01777 0.67111 0.9094 0.0
C1940 C 0.97254 0.64757 0.87044 0.0
C1941 C 0.95503 0.6344 0.8806 0.0
C1942 C 0.98314 0.67233 0.87822 0.0
C1943 C 0.97667 0.68423 0.89645 0.0
C1944 C 0.95952 0.67067 0.9069 0.0
H1945 H 0.05521 0.84577 0.90905 0.0
H1946 H 0.03678 0.80137 0.9219 0.0
C1947 C 0.94881 0.64585 0.89907 0.0
C1948 C 0.98615 0.71283 0.90304 0.0
H1949 H 0.03475 0.74999 0.90334 0.0
C1950 C 0.97199 0.73715 0.9055 0.0
C1951 C 0.00906 0.71736 0.90395 0.0
C1952 C 0.02511 0.69185 0.90348 0.0
C1953 C 0.98016 0.76622 0.90652 0.0
C1954 C 0.00296 0.77098 0.90449 0.0
C1955 C 0.0172 0.74646 0.90441 0.0
C1956 C 0.01198 0.8004 0.89907 0.0
C1957 C 0.96418 0.79158 0.90877 0.0
C1958 C 0.00405 0.8147 0.8821 0.0
C1959 C 0.01446 0.83992 0.87479 0.0
C1960 C 0.03322 0.85118 0.88415 0.0
C1961 C 0.04076 0.83756 0.90154 0.0
C1962 C 0.03025 0.81225 0.90891 0.0
H1963 H 0.95008 0.78489 0.91814 0.0
H1964 H 0.97207 0.81145 0.9154 0.0
H1965 H 0.95756 0.79767 0.89407 0.0
H1966 H 0.99043 0.8055 0.87387 0.0
H1967 H 0.00829 0.84986 0.86134 0.0
loop_
_geom_bond_atom_site_label_1
_geom_bond_atom_site_label_2
_geom_bond_distance
_geom_bond_site_symmetry_2
_ccdc_geom_bond_type
Co0 N4 2.148 . S
Co0 N10 2.128 . S
Co0 N20 2.194 . S
Co0 O25 2.351 . S
Co0 O26 2.155 . S
Co0 O27 2.096 . S
C1 N4 1.301 . S
C1 N5 1.328 . S
C1 H6 0.930 . S
C2 C3 1.333 . S
C2 N4 1.317 . S
C2 H7 0.930 . S
C3 C2 1.333 . S
C3 N5 1.350 . S
C3 H29 0.931 . S
N4 Co0 2.148 . S
N4 C1 1.301 . S
N4 C2 1.317 . S
N5 C1 1.328 . S
N5 C3 1.350 . S
H6 C1 0.930 . S
H7 C2 0.930 . S
C8 O9 1.224 . S
C8 O27 1.247 . S
O9 C8 1.224 . S
N10 Co0 2.128 . S
N10 C11 1.355 . S
N10 C13 1.311 . S
C11 N10 1.355 . S
C11 C12 1.363 . S
C11 H23 0.929 . S
C12 C11 1.363 . S
C12 N14 1.375 . S
C12 H30 0.931 . S
C13 N10 1.311 . S
C13 N14 1.347 . S
C13 H24 0.929 . S
N14 C12 1.375 . S
N14 C13 1.347 . S
C15 C18 1.365 . S
C15 N20 1.328 . S
C15 H21 0.929 . S
C16 C17 1.362 . S
C16 C19 1.378 . S
C16 H31 0.929 . S
C17 C16 1.362 . S
C17 C18 1.366 . S
C18 C15 1.365 . S
C18 C17 1.366 . S
C18 H32 0.930 . S
C19 C16 1.378 . S
C19 N20 1.315 . S
C19 H22 0.930 . S
N20 Co0 2.194 . S
N20 C15 1.328 . S
N20 C19 1.315 . S
H21 C15 0.929 . S
H22 C19 0.930 . S
H23 C11 0.929 . S
H24 C13 0.929 . S
O25 Co0 2.351 . S
O25 C28 1.244 . S
O26 Co0 2.155 . S
O26 C28 1.240 . S
O27 Co0 2.096 . S
O27 C8 1.247 . S
C28 O25 1.244 . S
C28 O26 1.240 . S
H29 C3 0.931 . S
H30 C12 0.931 . S
H31 C16 0.929 . S
H32 C18 0.930 . S
Co33 N37 2.148 . S
Co33 N43 2.128 . S
Co33 N53 2.194 . S
Co33 O58 2.351 . S
Co33 O59 2.155 . S
Co33 O60 2.096 . S
C34 N37 1.301 . S
C34 N38 1.328 . S
C34 H39 0.930 . S
C35 C36 1.333 . S
C35 N37 1.317 . S
C35 H40 0.930 . S
C36 C35 1.333 . S
C36 N38 1.350 . S
C36 H62 0.931 . S
N37 Co33 2.148 . S
N37 C34 1.301 . S
N37 C35 1.317 . S
N38 C34 1.328 . S
N38 C36 1.350 . S
H39 C34 0.930 . S
H40 C35 0.930 . S
C41 O42 1.224 . S
C41 O60 1.247 . S
O42 C41 1.224 . S
N43 Co33 2.128 . S
N43 C44 1.355 . S
N43 C46 1.311 . S
C44 N43 1.355 . S
C44 C45 1.363 . S
C44 H56 0.929 . S
C45 C44 1.363 . S
C45 N47 1.375 . S
C45 H63 0.931 . S
C46 N43 1.311 . S
C46 N47 1.347 . S
C46 H57 0.929 . S
N47 C45 1.375 . S
N47 C46 1.347 . S
C48 C51 1.365 . S
C48 N53 1.328 . S
C48 H54 0.929 . S
C49 C50 1.362 . S
C49 C52 1.378 . S
C49 H64 0.929 . S
C50 C49 1.362 . S
C50 C51 1.366 . S
C51 C48 1.365 . S
C51 C50 1.366 . S
C51 H65 0.930 . S
C52 C49 1.378 . S
C52 N53 1.315 . S
C52 H55 0.930 . S
N53 Co33 2.194 . S
N53 C48 1.328 . S
N53 C52 1.315 . S
H54 C48 0.929 . S
H55 C52 0.930 . S
H56 C44 0.929 . S
H57 C46 0.929 . S
O58 Co33 2.351 . S
O58 C61 1.244 . S
O59 Co33 2.155 . S
O59 C61 1.240 . S
O60 Co33 2.096 . S
O60 C41 1.247 . S
C61 O58 1.244 . S
C61 O59 1.240 . S
H62 C36 0.931 . S
H63 C45 0.931 . S
H64 C49 0.929 . S
H65 C51 0.930 . S
Co66 N70 2.148 . S
Co66 N76 2.128 . S
Co66 N86 2.194 . S
Co66 O91 2.351 . S
Co66 O92 2.155 . S
Co66 O93 2.096 . S
C67 N70 1.301 . S
C67 N71 1.328 . S
C67 H72 0.930 . S
C68 C69 1.333 . S
C68 N70 1.317 . S
C68 H73 0.930 . S
C69 C68 1.333 . S
C69 N71 1.350 . S
C69 H95 0.931 . S
N70 Co66 2.148 . S
N70 C67 1.301 . S
N70 C68 1.317 . S
N71 C67 1.328 . S
N71 C69 1.350 . S
H72 C67 0.930 . S
H73 C68 0.930 . S
C74 O75 1.224 . S
C74 O93 1.247 . S
O75 C74 1.224 . S
N76 Co66 2.128 . S
N76 C77 1.355 . S
N76 C79 1.311 . S
C77 N76 1.355 . S
C77 C78 1.363 . S
C77 H89 0.929 . S
C78 C77 1.363 . S
C78 N80 1.375 . S
C78 H96 0.931 . S
C79 N76 1.311 . S
C79 N80 1.347 . S
C79 H90 0.929 . S
N80 C78 1.375 . S
N80 C79 1.347 . S
C81 C84 1.365 . S
C81 N86 1.328 . S
C81 H87 0.929 . S
C82 C83 1.362 . S
C82 C85 1.378 . S
C82 H97 0.929 . S
C83 C82 1.362 . S
C83 C84 1.366 . S
C84 C81 1.365 . S
C84 C83 1.366 . S
C84 H98 0.930 . S
C85 C82 1.378 . S
C85 N86 1.315 . S
C85 H88 0.930 . S
N86 Co66 2.194 . S
N86 C81 1.328 . S
N86 C85 1.315 . S
H87 C81 0.929 . S
H88 C85 0.930 . S
H89 C77 0.929 . S
H90 C79 0.929 . S
O91 Co66 2.351 . S
O91 C94 1.244 . S
O92 Co66 2.155 . S
O92 C94 1.240 . S
O93 Co66 2.096 . S
O93 C74 1.247 . S
C94 O91 1.244 . S
C94 O92 1.240 . S
H95 C69 0.931 . S
H96 C78 0.931 . S
H97 C82 0.929 . S
H98 C84 0.930 . S
Co99 N103 2.148 . S
Co99 N109 2.128 . S
Co99 N119 2.194 . S
Co99 O124 2.351 . S
Co99 O125 2.155 . S
Co99 O126 2.096 . S
C100 N103 1.301 . S
C100 N104 1.328 . S
C100 H105 0.930 . S
C101 C102 1.333 . S
C101 N103 1.317 . S
C101 H106 0.930 . S
C102 C101 1.333 . S
C102 N104 1.350 . S
C102 H128 0.931 . S
N103 Co99 2.148 . S
N103 C100 1.301 . S
N103 C101 1.317 . S
N104 C100 1.328 . S
N104 C102 1.350 . S
H105 C100 0.930 . S
H106 C101 0.930 . S
C107 O108 1.224 . S
C107 O126 1.247 . S
O108 C107 1.224 . S
N109 Co99 2.128 . S
N109 C110 1.355 . S
N109 C112 1.311 . S
C110 N109 1.355 . S
C110 C111 1.363 . S
C110 H122 0.929 . S
C111 C110 1.363 . S
C111 N113 1.375 . S
C111 H129 0.931 . S
C112 N109 1.311 . S
C112 N113 1.347 . S
C112 H123 0.929 . S
N113 C111 1.375 . S
N113 C112 1.347 . S
C114 C117 1.365 . S
C114 N119 1.328 . S
C114 H120 0.929 . S
C115 C116 1.362 . S
C115 C118 1.378 . S
C115 H130 0.929 . S
C116 C115 1.362 . S
C116 C117 1.366 . S
C117 C114 1.365 . S
C117 C116 1.366 . S
C117 H131 0.930 . S
C118 C115 1.378 . S
C118 N119 1.315 . S
C118 H121 0.930 . S
N119 Co99 2.194 . S
N119 C114 1.328 . S
N119 C118 1.315 . S
H120 C114 0.929 . S
H121 C118 0.930 . S
H122 C110 0.929 . S
H123 C112 0.929 . S
O124 Co99 2.351 . S
O124 C127 1.244 . S
O125 Co99 2.155 . S
O125 C127 1.240 . S
O126 Co99 2.096 . S
O126 C107 1.247 . S
C127 O124 1.244 . S
C127 O125 1.240 . S
H128 C102 0.931 . S
H129 C111 0.931 . S
H130 C115 0.929 . S
H131 C117 0.930 . S
Co132 N136 2.148 . S
Co132 N142 2.128 . S
Co132 N152 2.194 . S
Co132 O157 2.351 . S
Co132 O158 2.155 . S
Co132 O159 2.096 . S
C133 N136 1.301 . S
C133 N137 1.328 . S
C133 H138 0.930 . S
C134 C135 1.333 . S
C134 N136 1.317 . S
C134 H139 0.930 . S
C135 C134 1.333 . S
C135 N137 1.350 . S
C135 H161 0.931 . S
N136 Co132 2.148 . S
N136 C133 1.301 . S
N136 C134 1.317 . S
N137 C133 1.328 . S
N137 C135 1.350 . S
H138 C133 0.930 . S
H139 C134 0.930 . S
C140 O141 1.224 . S
C140 O159 1.247 . S
O141 C140 1.224 . S
N142 Co132 2.128 . S
N142 C143 1.355 . S
N142 C145 1.311 . S
C143 N142 1.355 . S
C143 C144 1.363 . S
C143 H155 0.929 . S
C144 C143 1.363 . S
C144 N146 1.375 . S
C144 H162 0.931 . S
C145 N142 1.311 . S
C145 N146 1.347 . S
C145 H156 0.929 . S
N146 C144 1.375 . S
N146 C145 1.347 . S
C147 C150 1.365 . S
C147 N152 1.328 . S
C147 H153 0.929 . S
C148 C149 1.362 . S
C148 C151 1.378 . S
C148 H163 0.929 . S
C149 C148 1.362 . S
C149 C150 1.366 . S
C150 C147 1.365 . S
C150 C149 1.366 . S
C150 H164 0.930 . S
C151 C148 1.378 . S
C151 N152 1.315 . S
C151 H154 0.930 . S
N152 Co132 2.194 . S
N152 C147 1.328 . S
N152 C151 1.315 . S
H153 C147 0.929 . S
H154 C151 0.930 . S
H155 C143 0.929 . S
H156 C145 0.929 . S
O157 Co132 2.351 . S
O157 C160 1.244 . S
O158 Co132 2.155 . S
O158 C160 1.240 . S
O159 Co132 2.096 . S
O159 C140 1.247 . S
C160 O157 1.244 . S
C160 O158 1.240 . S
H161 C135 0.931 . S
H162 C144 0.931 . S
H163 C148 0.929 . S
H164 C150 0.930 . S
Co165 N169 2.148 . S
Co165 N175 2.128 . S
Co165 N185 2.194 . S
Co165 O190 2.351 . S
Co165 O191 2.155 . S
Co165 O192 2.096 . S
C166 N169 1.301 . S
C166 N170 1.328 . S
C166 H171 0.930 . S
C167 C168 1.333 . S
C167 N169 1.317 . S
C167 H172 0.930 . S
C168 C167 1.333 . S
C168 N170 1.350 . S
C168 H194 0.931 . S
N169 Co165 2.148 . S
N169 C166 1.301 . S
N169 C167 1.317 . S
N170 C166 1.328 . S
N170 C168 1.350 . S
H171 C166 0.930 . S
H172 C167 0.930 . S
C173 O174 1.224 . S
C173 O192 1.247 . S
O174 C173 1.224 . S
N175 Co165 2.128 . S
N175 C176 1.355 . S
N175 C178 1.311 . S
C176 N175 1.355 . S
C176 C177 1.363 . S
C176 H188 0.929 . S
C177 C176 1.363 . S
C177 N179 1.375 . S
C177 H195 0.931 . S
C178 N175 1.311 . S
C178 N179 1.347 . S
C178 H189 0.929 . S
N179 C177 1.375 . S
N179 C178 1.347 . S
C180 C183 1.365 . S
C180 N185 1.328 . S
C180 H186 0.929 . S
C181 C182 1.362 . S
C181 C184 1.378 . S
C181 H196 0.929 . S
C182 C181 1.362 . S
C182 C183 1.366 . S
C183 C180 1.365 . S
C183 C182 1.366 . S
C183 H197 0.930 . S
C184 C181 1.378 . S
C184 N185 1.315 . S
C184 H187 0.930 . S
N185 Co165 2.194 . S
N185 C180 1.328 . S
N185 C184 1.315 . S
H186 C180 0.929 . S
H187 C184 0.930 . S
H188 C176 0.929 . S
H189 C178 0.929 . S
O190 Co165 2.351 . S
O190 C193 1.244 . S
O191 Co165 2.155 . S
O191 C193 1.240 . S
O192 Co165 2.096 . S
O192 C173 1.247 . S
C193 O190 1.244 . S
C193 O191 1.240 . S
H194 C168 0.931 . S
H195 C177 0.931 . S
H196 C181 0.929 . S
H197 C183 0.930 . S
Co198 N202 2.148 . S
Co198 N208 2.128 . S
Co198 N218 2.194 . S
Co198 O223 2.351 . S
Co198 O224 2.155 . S
Co198 O225 2.096 . S
C199 N202 1.301 . S
C199 N203 1.328 . S
C199 H204 0.930 . S
C200 C201 1.333 . S
C200 N202 1.317 . S
C200 H205 0.930 . S
C201 C200 1.333 . S
C201 N203 1.350 . S
C201 H227 0.931 . S
N202 Co198 2.148 . S
N202 C199 1.301 . S
N202 C200 1.317 . S
N203 C199 1.328 . S
N203 C201 1.350 . S
H204 C199 0.930 . S
H205 C200 0.930 . S
C206 O207 1.224 . S
C206 O225 1.247 . S
O207 C206 1.224 . S
N208 Co198 2.128 . S
N208 C209 1.355 . S
N208 C211 1.311 . S
C209 N208 1.355 . S
C209 C210 1.363 . S
C209 H221 0.929 . S
C210 C209 1.363 . S
C210 N212 1.375 . S
C210 H228 0.931 . S
C211 N208 1.311 . S
C211 N212 1.347 . S
C211 H222 0.929 . S
N212 C210 1.375 . S
N212 C211 1.347 . S
C213 C216 1.365 . S
C213 N218 1.328 . S
C213 H219 0.929 . S
C214 C215 1.362 . S
C214 C217 1.378 . S
C214 H229 0.929 . S
C215 C214 1.362 . S
C215 C216 1.366 . S
C216 C213 1.365 . S
C216 C215 1.366 . S
C216 H230 0.930 . S
C217 C214 1.378 . S
C217 N218 1.315 . S
C217 H220 0.930 . S
N218 Co198 2.194 . S
N218 C213 1.328 . S
N218 C217 1.315 . S
H219 C213 0.929 . S
H220 C217 0.930 . S
H221 C209 0.929 . S
H222 C211 0.929 . S
O223 Co198 2.351 . S
O223 C226 1.244 . S
O224 Co198 2.155 . S
O224 C226 1.240 . S
O225 Co198 2.096 . S
O225 C206 1.247 . S
C226 O223 1.244 . S
C226 O224 1.240 . S
H227 C201 0.931 . S
H228 C210 0.931 . S
H229 C214 0.929 . S
H230 C216 0.930 . S
Co231 N235 2.148 . S
Co231 N241 2.128 . S
Co231 N251 2.194 . S
Co231 O256 2.351 . S
Co231 O257 2.155 . S
Co231 O258 2.096 . S
C232 N235 1.301 . S
C232 N236 1.328 . S
C232 H237 0.930 . S
C233 C234 1.333 . S
C233 N235 1.317 . S
C233 H238 0.930 . S
C234 C233 1.333 . S
C234 N236 1.350 . S
C234 H260 0.931 . S
N235 Co231 2.148 . S
N235 C232 1.301 . S
N235 C233 1.317 . S
N236 C232 1.328 . S
N236 C234 1.350 . S
H237 C232 0.930 . S
H238 C233 0.930 . S
C239 O240 1.224 . S
C239 O258 1.247 . S
O240 C239 1.224 . S
N241 Co231 2.128 . S
N241 C242 1.355 . S
N241 C244 1.311 . S
C242 N241 1.355 . S
C242 C243 1.363 . S
C242 H254 0.929 . S
C243 C242 1.363 . S
C243 N245 1.375 . S
C243 H261 0.931 . S
C244 N241 1.311 . S
C244 N245 1.347 . S
C244 H255 0.929 . S
N245 C243 1.375 . S
N245 C244 1.347 . S
C246 C249 1.365 . S
C246 N251 1.328 . S
C246 H252 0.929 . S
C247 C248 1.362 . S
C247 C250 1.378 . S
C247 H262 0.929 . S
C248 C247 1.362 . S
C248 C249 1.366 . S
C249 C246 1.365 . S
C249 C248 1.366 . S
C249 H263 0.930 . S
C250 C247 1.378 . S
C250 N251 1.315 . S
C250 H253 0.930 . S
N251 Co231 2.194 . S
N251 C246 1.328 . S
N251 C250 1.315 . S
H252 C246 0.929 . S
H253 C250 0.930 . S
H254 C242 0.929 . S
H255 C244 0.929 . S
O256 Co231 2.351 . S
O256 C259 1.244 . S
O257 Co231 2.155 . S
O257 C259 1.240 . S
O258 Co231 2.096 . S
O258 C239 1.247 . S
C259 O256 1.244 . S
C259 O257 1.240 . S
H260 C234 0.931 . S
H261 C243 0.931 . S
H262 C247 0.929 . S
H263 C249 0.930 . S
Co264 N268 2.148 . S
Co264 N274 2.128 . S
Co264 N284 2.194 . S
Co264 O289 2.351 . S
Co264 O290 2.155 . S
Co264 O291 2.096 . S
C265 N268 1.301 . S
C265 N269 1.328 . S
C265 H270 0.930 . S
C266 C267 1.333 . S
C266 N268 1.317 . S
C266 H271 0.930 . S
C267 C266 1.333 . S
C267 N269 1.350 . S
C267 H293 0.931 . S
N268 Co264 2.148 . S
N268 C265 1.301 . S
N268 C266 1.317 . S
N269 C265 1.328 . S
N269 C267 1.350 . S
H270 C265 0.930 . S
H271 C266 0.930 . S
C272 O273 1.224 . S
C272 O291 1.247 . S
O273 C272 1.224 . S
N274 Co264 2.128 . S
N274 C275 1.355 . S
N274 C277 1.311 . S
C275 N274 1.355 . S
C275 C276 1.363 . S
C275 H287 0.929 . S
C276 C275 1.363 . S
C276 N278 1.375 . S
C276 H294 0.931 . S
C277 N274 1.311 . S
C277 N278 1.347 . S
C277 H288 0.929 . S
N278 C276 1.375 . S
N278 C277 1.347 . S
C279 C282 1.365 . S
C279 N284 1.328 . S
C279 H285 0.929 . S
C280 C281 1.362 . S
C280 C283 1.378 . S
C280 H295 0.929 . S
C281 C280 1.362 . S
C281 C282 1.366 . S
C282 C279 1.365 . S
C282 C281 1.366 . S
C282 H296 0.930 . S
C283 C280 1.378 . S
C283 N284 1.315 . S
C283 H286 0.930 . S
N284 Co264 2.194 . S
N284 C279 1.328 . S
N284 C283 1.315 . S
H285 C279 0.929 . S
H286 C283 0.930 . S
H287 C275 0.929 . S
H288 C277 0.929 . S
O289 Co264 2.351 . S
O289 C292 1.244 . S
O290 Co264 2.155 . S
O290 C292 1.240 . S
O291 Co264 2.096 . S
O291 C272 1.247 . S
C292 O289 1.244 . S
C292 O290 1.240 . S
H293 C267 0.931 . S
H294 C276 0.931 . S
H295 C280 0.929 . S
H296 C282 0.930 . S
Co297 N301 2.148 . S
Co297 N307 2.128 . S
Co297 N317 2.194 . S
Co297 O322 2.351 . S
Co297 O323 2.155 . S
Co297 O324 2.096 . S
C298 N301 1.301 . S
C298 N302 1.328 . S
C298 H303 0.930 . S
C299 C300 1.333 . S
C299 N301 1.317 . S
C299 H304 0.930 . S
C300 C299 1.333 . S
C300 N302 1.350 . S
C300 H326 0.931 . S
N301 Co297 2.148 . S
N301 C298 1.301 . S
N301 C299 1.317 . S
N302 C298 1.328 . S
N302 C300 1.350 . S
H303 C298 0.930 . S
H304 C299 0.930 . S
C305 O306 1.224 . S
C305 O324 1.247 . S
O306 C305 1.224 . S
N307 Co297 2.128 . S
N307 C308 1.355 . S
N307 C310 1.311 . S
C308 N307 1.355 . S
C308 C309 1.363 . S
C308 H320 0.929 . S
C309 C308 1.363 . S
C309 N311 1.375 . S
C309 H327 0.931 . S
C310 N307 1.311 . S
C310 N311 1.347 . S
C310 H321 0.929 . S
N311 C309 1.375 . S
N311 C310 1.347 . S
C312 C315 1.365 . S
C312 N317 1.328 . S
C312 H318 0.929 . S
C313 C314 1.362 . S
C313 C316 1.378 . S
C313 H328 0.929 . S
C314 C313 1.362 . S
C314 C315 1.366 . S
C315 C312 1.365 . S
C315 C314 1.366 . S
C315 H329 0.930 . S
C316 C313 1.378 . S
C316 N317 1.315 . S
C316 H319 0.930 . S
N317 Co297 2.194 . S
N317 C312 1.328 . S
N317 C316 1.315 . S
H318 C312 0.929 . S
H319 C316 0.930 . S
H320 C308 0.929 . S
H321 C310 0.929 . S
O322 Co297 2.351 . S
O322 C325 1.244 . S
O323 Co297 2.155 . S
O323 C325 1.240 . S
O324 Co297 2.096 . S
O324 C305 1.247 . S
C325 O322 1.244 . S
C325 O323 1.240 . S
H326 C300 0.931 . S
H327 C309 0.931 . S
H328 C313 0.929 . S
H329 C315 0.930 . S
Co330 N334 2.148 . S
Co330 N340 2.128 . S
Co330 N350 2.194 . S
Co330 O355 2.351 . S
Co330 O356 2.155 . S
Co330 O357 2.096 . S
C331 N334 1.301 . S
C331 N335 1.328 . S
C331 H336 0.930 . S
C332 C333 1.333 . S
C332 N334 1.317 . S
C332 H337 0.930 . S
C333 C332 1.333 . S
C333 N335 1.350 . S
C333 H359 0.931 . S
N334 Co330 2.148 . S
N334 C331 1.301 . S
N334 C332 1.317 . S
N335 C331 1.328 . S
N335 C333 1.350 . S
H336 C331 0.930 . S
H337 C332 0.930 . S
C338 O339 1.224 . S
C338 O357 1.247 . S
O339 C338 1.224 . S
N340 Co330 2.128 . S
N340 C341 1.355 . S
N340 C343 1.311 . S
C341 N340 1.355 . S
C341 C342 1.363 . S
C341 H353 0.929 . S
C342 C341 1.363 . S
C342 N344 1.375 . S
C342 H360 0.931 . S
C343 N340 1.311 . S
C343 N344 1.347 . S
C343 H354 0.929 . S
N344 C342 1.375 . S
N344 C343 1.347 . S
C345 C348 1.365 . S
C345 N350 1.328 . S
C345 H351 0.929 . S
C346 C347 1.362 . S
C346 C349 1.378 . S
C346 H361 0.929 . S
C347 C346 1.362 . S
C347 C348 1.366 . S
C348 C345 1.365 . S
C348 C347 1.366 . S
C348 H362 0.930 . S
C349 C346 1.378 . S
C349 N350 1.315 . S
C349 H352 0.930 . S
N350 Co330 2.194 . S
N350 C345 1.328 . S
N350 C349 1.315 . S
H351 C345 0.929 . S
H352 C349 0.930 . S
H353 C341 0.929 . S
H354 C343 0.929 . S
O355 Co330 2.351 . S
O355 C358 1.244 . S
O356 Co330 2.155 . S
O356 C358 1.240 . S
O357 Co330 2.096 . S
O357 C338 1.247 . S
C358 O355 1.244 . S
C358 O356 1.240 . S
H359 C333 0.931 . S
H360 C342 0.931 . S
H361 C346 0.929 . S
H362 C348 0.930 . S
Co363 N367 2.148 . S
Co363 N373 2.128 . S
Co363 N383 2.194 . S
Co363 O388 2.351 . S
Co363 O389 2.155 . S
Co363 O390 2.096 . S
C364 N367 1.301 . S
C364 N368 1.328 . S
C364 H369 0.930 . S
C365 C366 1.333 . S
C365 N367 1.317 . S
C365 H370 0.930 . S
C366 C365 1.333 . S
C366 N368 1.350 . S
C366 H392 0.931 . S
N367 Co363 2.148 . S
N367 C364 1.301 . S
N367 C365 1.317 . S
N368 C364 1.328 . S
N368 C366 1.350 . S
H369 C364 0.930 . S
H370 C365 0.930 . S
C371 O372 1.224 . S
C371 O390 1.247 . S
O372 C371 1.224 . S
N373 Co363 2.128 . S
N373 C374 1.355 . S
N373 C376 1.311 . S
C374 N373 1.355 . S
C374 C375 1.363 . S
C374 H386 0.929 . S
C375 C374 1.363 . S
C375 N377 1.375 . S
C375 H393 0.931 . S
C376 N373 1.311 . S
C376 N377 1.347 . S
C376 H387 0.929 . S
N377 C375 1.375 . S
N377 C376 1.347 . S
C378 C381 1.365 . S
C378 N383 1.328 . S
C378 H384 0.929 . S
C379 C380 1.362 . S
C379 C382 1.378 . S
C379 H394 0.929 . S
C380 C379 1.362 . S
C380 C381 1.366 . S
C381 C378 1.365 . S
C381 C380 1.366 . S
C381 H395 0.930 . S
C382 C379 1.378 . S
C382 N383 1.315 . S
C382 H385 0.930 . S
N383 Co363 2.194 . S
N383 C378 1.328 . S
N383 C382 1.315 . S
H384 C378 0.929 . S
H385 C382 0.930 . S
H386 C374 0.929 . S
H387 C376 0.929 . S
O388 Co363 2.351 . S
O388 C391 1.244 . S
O389 Co363 2.155 . S
O389 C391 1.240 . S
O390 Co363 2.096 . S
O390 C371 1.247 . S
C391 O388 1.244 . S
C391 O389 1.240 . S
H392 C366 0.931 . S
H393 C375 0.931 . S
H394 C379 0.929 . S
H395 C381 0.930 . S
Co396 N400 2.148 . S
Co396 N406 2.128 . S
Co396 N416 2.194 . S
Co396 O421 2.351 . S
Co396 O422 2.155 . S
Co396 O423 2.096 . S
C397 N400 1.301 . S
C397 N401 1.328 . S
C397 H402 0.930 . S
C398 C399 1.333 . S
C398 N400 1.317 . S
C398 H403 0.930 . S
C399 C398 1.333 . S
C399 N401 1.350 . S
C399 H425 0.931 . S
N400 Co396 2.148 . S
N400 C397 1.301 . S
N400 C398 1.317 . S
N401 C397 1.328 . S
N401 C399 1.350 . S
H402 C397 0.930 . S
H403 C398 0.930 . S
C404 O405 1.224 . S
C404 O423 1.247 . S
O405 C404 1.224 . S
N406 Co396 2.128 . S
N406 C407 1.355 . S
N406 C409 1.311 . S
C407 N406 1.355 . S
C407 C408 1.363 . S
C407 H419 0.929 . S
C408 C407 1.363 . S
C408 N410 1.375 . S
C408 H426 0.931 . S
C409 N406 1.311 . S
C409 N410 1.347 . S
C409 H420 0.929 . S
N410 C408 1.375 . S
N410 C409 1.347 . S
C411 C414 1.365 . S
C411 N416 1.328 . S
C411 H417 0.929 . S
C412 C413 1.362 . S
C412 C415 1.378 . S
C412 H427 0.929 . S
C413 C412 1.362 . S
C413 C414 1.366 . S
C414 C411 1.365 . S
C414 C413 1.366 . S
C414 H428 0.930 . S
C415 C412 1.378 . S
C415 N416 1.315 . S
C415 H418 0.930 . S
N416 Co396 2.194 . S
N416 C411 1.328 . S
N416 C415 1.315 . S
H417 C411 0.929 . S
H418 C415 0.930 . S
H419 C407 0.929 . S
H420 C409 0.929 . S
O421 Co396 2.351 . S
O421 C424 1.244 . S
O422 Co396 2.155 . S
O422 C424 1.240 . S
O423 Co396 2.096 . S
O423 C404 1.247 . S
C424 O421 1.244 . S
C424 O422 1.240 . S
H425 C399 0.931 . S
H426 C408 0.931 . S
H427 C412 0.929 . S
H428 C414 0.930 . S
Co429 N433 2.148 . S
Co429 N439 2.128 . S
Co429 N449 2.194 . S
Co429 O454 2.351 . S
Co429 O455 2.155 . S
Co429 O456 2.096 . S
C430 N433 1.301 . S
C430 N434 1.328 . S
C430 H435 0.930 . S
C431 C432 1.333 . S
C431 N433 1.317 . S
C431 H436 0.930 . S
C432 C431 1.333 . S
C432 N434 1.350 . S
C432 H458 0.931 . S
N433 Co429 2.148 . S
N433 C430 1.301 . S
N433 C431 1.317 . S
N434 C430 1.328 . S
N434 C432 1.350 . S
H435 C430 0.930 . S
H436 C431 0.930 . S
C437 O438 1.224 . S
C437 O456 1.247 . S
O438 C437 1.224 . S
N439 Co429 2.128 . S
N439 C440 1.355 . S
N439 C442 1.311 . S
C440 N439 1.355 . S
C440 C441 1.363 . S
C440 H452 0.929 . S
C441 C440 1.363 . S
C441 N443 1.375 . S
C441 H459 0.931 . S
C442 N439 1.311 . S
C442 N443 1.347 . S
C442 H453 0.929 . S
N443 C441 1.375 . S
N443 C442 1.347 . S
C444 C447 1.365 . S
C444 N449 1.328 . S
C444 H450 0.929 . S
C445 C446 1.362 . S
C445 C448 1.378 . S
C445 H460 0.929 . S
C446 C445 1.362 . S
C446 C447 1.366 . S
C447 C444 1.365 . S
C447 C446 1.366 . S
C447 H461 0.930 . S
C448 C445 1.378 . S
C448 N449 1.315 . S
C448 H451 0.930 . S
N449 Co429 2.194 . S
N449 C444 1.328 . S
N449 C448 1.315 . S
H450 C444 0.929 . S
H451 C448 0.930 . S
H452 C440 0.929 . S
H453 C442 0.929 . S
O454 Co429 2.351 . S
O454 C457 1.244 . S
O455 Co429 2.155 . S
O455 C457 1.240 . S
O456 Co429 2.096 . S
O456 C437 1.247 . S
C457 O454 1.244 . S
C457 O455 1.240 . S
H458 C432 0.931 . S
H459 C441 0.931 . S
H460 C445 0.929 . S
H461 C447 0.930 . S
Co462 N466 2.148 . S
Co462 N472 2.128 . S
Co462 N482 2.194 . S
Co462 O487 2.351 . S
Co462 O488 2.155 . S
Co462 O489 2.096 . S
C463 N466 1.301 . S
C463 N467 1.328 . S
C463 H468 0.930 . S
C464 C465 1.333 . S
C464 N466 1.317 . S
C464 H469 0.930 . S
C465 C464 1.333 . S
C465 N467 1.350 . S
C465 H491 0.931 . S
N466 Co462 2.148 . S
N466 C463 1.301 . S
N466 C464 1.317 . S
N467 C463 1.328 . S
N467 C465 1.350 . S
H468 C463 0.930 . S
H469 C464 0.930 . S
C470 O471 1.224 . S
C470 O489 1.247 . S
O471 C470 1.224 . S
N472 Co462 2.128 . S
N472 C473 1.355 . S
N472 C475 1.311 . S
C473 N472 1.355 . S
C473 C474 1.363 . S
C473 H485 0.929 . S
C474 C473 1.363 . S
C474 N476 1.375 . S
C474 H492 0.931 . S
C475 N472 1.311 . S
C475 N476 1.347 . S
C475 H486 0.929 . S
N476 C474 1.375 . S
N476 C475 1.347 . S
C477 C480 1.365 . S
C477 N482 1.328 . S
C477 H483 0.929 . S
C478 C479 1.362 . S
C478 C481 1.378 . S
C478 H493 0.929 . S
C479 C478 1.362 . S
C479 C480 1.366 . S
C480 C477 1.365 . S
C480 C479 1.366 . S
C480 H494 0.930 . S
C481 C478 1.378 . S
C481 N482 1.315 . S
C481 H484 0.930 . S
N482 Co462 2.194 . S
N482 C477 1.328 . S
N482 C481 1.315 . S
H483 C477 0.929 . S
H484 C481 0.930 . S
H485 C473 0.929 . S
H486 C475 0.929 . S
O487 Co462 2.351 . S
O487 C490 1.244 . S
O488 Co462 2.155 . S
O488 C490 1.240 . S
O489 Co462 2.096 . S
O489 C470 1.247 . S
C490 O487 1.244 . S
C490 O488 1.240 . S
H491 C465 0.931 . S
H492 C474 0.931 . S
H493 C478 0.929 . S
H494 C480 0.930 . S
Co495 N499 2.148 . S
Co495 N505 2.128 . S
Co495 N515 2.194 . S
Co495 O520 2.351 . S
Co495 O521 2.155 . S
Co495 O522 2.096 . S
C496 N499 1.301 . S
C496 N500 1.328 . S
C496 H501 0.930 . S
C497 C498 1.333 . S
C497 N499 1.317 . S
C497 H502 0.930 . S
C498 C497 1.333 . S
C498 N500 1.350 . S
C498 H524 0.931 . S
N499 Co495 2.148 . S
N499 C496 1.301 . S
N499 C497 1.317 . S
N500 C496 1.328 . S
N500 C498 1.350 . S
H501 C496 0.930 . S
H502 C497 0.930 . S
C503 O504 1.224 . S
C503 O522 1.247 . S
O504 C503 1.224 . S
N505 Co495 2.128 . S
N505 C506 1.355 . S
N505 C508 1.311 . S
C506 N505 1.355 . S
C506 C507 1.363 . S
C506 H518 0.929 . S
C507 C506 1.363 . S
C507 N509 1.375 . S
C507 H525 0.931 . S
C508 N505 1.311 . S
C508 N509 1.347 . S
C508 H519 0.929 . S
N509 C507 1.375 . S
N509 C508 1.347 . S
C510 C513 1.365 . S
C510 N515 1.328 . S
C510 H516 0.929 . S
C511 C512 1.362 . S
C511 C514 1.378 . S
C511 H526 0.929 . S
C512 C511 1.362 . S
C512 C513 1.366 . S
C513 C510 1.365 . S
C513 C512 1.366 . S
C513 H527 0.930 . S
C514 C511 1.378 . S
C514 N515 1.315 . S
C514 H517 0.930 . S
N515 Co495 2.194 . S
N515 C510 1.328 . S
N515 C514 1.315 . S
H516 C510 0.929 . S
H517 C514 0.930 . S
H518 C506 0.929 . S
H519 C508 0.929 . S
O520 Co495 2.351 . S
O520 C523 1.244 . S
O521 Co495 2.155 . S
O521 C523 1.240 . S
O522 Co495 2.096 . S
O522 C503 1.247 . S
C523 O520 1.244 . S
C523 O521 1.240 . S
H524 C498 0.931 . S
H525 C507 0.931 . S
H526 C511 0.929 . S
H527 C513 0.930 . S
H528 C536 0.929 . S
H529 C538 0.930 . S
H530 C540 0.930 . S
H531 C543 0.929 . S
H532 C546 0.930 . S
H533 C548 0.960 . S
H534 C548 0.960 . S
H535 C548 0.960 . S
C536 H528 0.929 . S
C536 C537 1.377 . S
C536 C538 1.384 . S
C537 C536 1.377 . S
C537 C543 1.390 . S
C538 H529 0.930 . S
C538 C536 1.384 . S
C538 C539 1.372 . S
C539 C538 1.372 . S
C539 C540 1.400 . S
C539 C544 1.490 . S
C540 H530 0.930 . S
C540 C539 1.400 . S
C540 C543 1.386 . S
H541 C557 0.930 . S
H542 C558 0.931 . S
C543 H531 0.929 . S
C543 C537 1.390 . S
C543 C540 1.386 . S
C544 C539 1.490 . S
C544 C546 1.395 . S
C544 C547 1.403 1_655 S
H545 C551 0.930 . S
C546 H532 0.930 . S
C546 C544 1.395 . S
C546 C549 1.403 . S
C547 C544 1.403 1_455 S
C547 C548 1.524 . S
C547 C551 1.400 . S
C548 H533 0.960 . S
C548 H534 0.960 . S
C548 H535 0.960 . S
C548 C547 1.524 . S
C549 C546 1.403 . S
C549 C550 1.392 1_655 S
C549 C553 1.495 . S
C550 C549 1.392 1_455 S
C550 C551 1.385 . S
C550 C552 1.478 . S
C551 H545 0.930 . S
C551 C547 1.400 . S
C551 C550 1.385 . S
C552 C550 1.478 . S
C552 C554 1.381 . S
C552 C558 1.383 . S
C553 C549 1.495 . S
C553 H559 0.959 . S
C553 H560 0.961 . S
C553 H561 0.960 . S
C554 C552 1.381 . S
C554 C555 1.394 . S
C554 H562 0.930 . S
C555 C554 1.394 . S
C555 C556 1.383 . S
C555 H563 0.929 . S
C556 C555 1.383 . S
C556 C557 1.377 . S
C557 H541 0.930 . S
C557 C556 1.377 . S
C557 C558 1.379 . S
C558 H542 0.931 . S
C558 C552 1.383 . S
C558 C557 1.379 . S
H559 C553 0.959 . S
H560 C553 0.961 . S
H561 C553 0.960 . S
H562 C554 0.930 . S
H563 C555 0.929 . S
H564 C572 0.929 . S
H565 C574 0.930 . S
H566 C576 0.930 . S
H567 C579 0.929 . S
H568 C582 0.930 . S
H569 C584 0.960 . S
H570 C584 0.960 . S
H571 C584 0.960 . S
C572 H564 0.929 . S
C572 C573 1.377 . S
C572 C574 1.384 . S
C573 C572 1.377 . S
C573 C579 1.390 . S
C574 H565 0.930 . S
C574 C572 1.384 . S
C574 C575 1.372 . S
C575 C574 1.372 . S
C575 C576 1.400 . S
C575 C580 1.490 . S
C576 H566 0.930 . S
C576 C575 1.400 . S
C576 C579 1.386 . S
H577 C593 0.930 . S
H578 C594 0.931 . S
C579 H567 0.929 . S
C579 C573 1.390 . S
C579 C576 1.386 . S
C580 C575 1.490 . S
C580 C582 1.395 . S
C580 C583 1.403 . S
H581 C587 0.930 . S
C582 H568 0.930 . S
C582 C580 1.395 . S
C582 C585 1.403 . S
C583 C580 1.403 . S
C583 C584 1.524 . S
C583 C587 1.400 . S
C584 H569 0.960 . S
C584 H570 0.960 . S
C584 H571 0.960 . S
C584 C583 1.524 . S
C585 C582 1.403 . S
C585 C586 1.392 . S
C585 C589 1.495 . S
C586 C585 1.392 . S
C586 C587 1.385 . S
C586 C588 1.478 . S
C587 H581 0.930 . S
C587 C583 1.400 . S
C587 C586 1.385 . S
C588 C586 1.478 . S
C588 C590 1.381 . S
C588 C594 1.383 . S
C589 C585 1.495 . S
C589 H595 0.959 . S
C589 H596 0.961 . S
C589 H597 0.960 . S
C590 C588 1.381 . S
C590 C591 1.394 . S
C590 H598 0.930 . S
C591 C590 1.394 . S
C591 C592 1.383 . S
C591 H599 0.929 . S
C592 C591 1.383 . S
C592 C593 1.377 . S
C593 H577 0.930 . S
C593 C592 1.377 . S
C593 C594 1.379 . S
C594 H578 0.931 . S
C594 C588 1.383 . S
C594 C593 1.379 . S
H595 C589 0.959 . S
H596 C589 0.961 . S
H597 C589 0.960 . S
H598 C590 0.930 . S
H599 C591 0.929 . S
H600 C608 0.929 . S
H601 C610 0.930 . S
H602 C612 0.930 . S
H603 C615 0.929 . S
H604 C618 0.930 . S
H605 C620 0.960 . S
H606 C620 0.960 . S
H607 C620 0.960 . S
C608 H600 0.929 . S
C608 C609 1.377 . S
C608 C610 1.384 . S
C609 C608 1.377 . S
C609 C615 1.390 . S
C610 H601 0.930 . S
C610 C608 1.384 . S
C610 C611 1.372 . S
C611 C610 1.372 . S
C611 C612 1.400 . S
C611 C616 1.490 . S
C612 H602 0.930 . S
C612 C611 1.400 . S
C612 C615 1.386 . S
H613 C629 0.930 . S
H614 C630 0.931 . S
C615 H603 0.929 . S
C615 C609 1.390 . S
C615 C612 1.386 . S
C616 C611 1.490 . S
C616 C618 1.395 . S
C616 C619 1.403 1_655 S
H617 C623 0.930 . S
C618 H604 0.930 . S
C618 C616 1.395 . S
C618 C621 1.403 . S
C619 C616 1.403 1_455 S
C619 C620 1.524 . S
C619 C623 1.400 . S
C620 H605 0.960 . S
C620 H606 0.960 . S
C620 H607 0.960 . S
C620 C619 1.524 . S
C621 C618 1.403 . S
C621 C622 1.392 1_655 S
C621 C625 1.495 . S
C622 C621 1.392 1_455 S
C622 C623 1.385 . S
C622 C624 1.478 . S
C623 H617 0.930 . S
C623 C619 1.400 . S
C623 C622 1.385 . S
C624 C622 1.478 . S
C624 C626 1.381 . S
C624 C630 1.383 . S
C625 C621 1.495 . S
C625 H631 0.959 . S
C625 H632 0.961 . S
C625 H633 0.960 . S
C626 C624 1.381 . S
C626 C627 1.394 . S
C626 H634 0.970 . S
C627 C626 1.394 . S
C627 C628 1.383 . S
C627 H635 0.929 . S
C628 C627 1.383 . S
C628 C629 1.377 . S
C629 H613 0.930 . S
C629 C628 1.377 . S
C629 C630 1.379 . S
C630 H614 0.931 . S
C630 C624 1.383 . S
C630 C629 1.379 . S
H631 C625 0.959 . S
H632 C625 0.961 . S
H633 C625 0.960 . S
H634 C626 0.970 . S
H635 C627 0.929 . S
H636 C644 0.929 . S
H637 C646 0.930 . S
H638 C648 0.930 . S
H639 C651 0.929 . S
H640 C654 0.930 . S
H641 C656 0.960 . S
H642 C656 0.960 . S
H643 C656 0.960 . S
C644 H636 0.929 . S
C644 C645 1.377 . S
C644 C646 1.384 . S
C645 C644 1.377 . S
C645 C651 1.390 . S
C646 H637 0.930 . S
C646 C644 1.384 . S
C646 C647 1.372 . S
C647 C646 1.372 . S
C647 C648 1.400 . S
C647 C652 1.490 . S
C648 H638 0.930 . S
C648 C647 1.400 . S
C648 C651 1.386 . S
H649 C665 0.930 . S
H650 C666 0.931 . S
C651 H639 0.929 . S
C651 C645 1.390 . S
C651 C648 1.386 . S
C652 C647 1.490 . S
C652 C654 1.395 . S
C652 C655 1.403 . S
H653 C659 0.930 . S
C654 H640 0.930 . S
C654 C652 1.395 . S
C654 C657 1.403 . S
C655 C652 1.403 . S
C655 C656 1.524 . S
C655 C659 1.400 . S
C656 H641 0.960 . S
C656 H642 0.960 . S
C656 H643 0.960 . S
C656 C655 1.524 . S
C657 C654 1.403 . S
C657 C658 1.392 . S
C657 C661 1.495 . S
C658 C657 1.392 . S
C658 C659 1.385 . S
C658 C660 1.478 . S
C659 H653 0.930 . S
C659 C655 1.400 . S
C659 C658 1.385 . S
C660 C658 1.478 . S
C660 C662 1.381 . S
C660 C666 1.383 . S
C661 C657 1.495 . S
C661 H667 0.959 . S
C661 H668 0.961 . S
C661 H669 0.960 . S
C662 C660 1.381 . S
C662 C663 1.394 . S
C662 H670 0.930 . S
C663 C662 1.394 . S
C663 C664 1.383 . S
C663 H671 0.929 . S
C664 C663 1.383 . S
C664 C665 1.377 . S
C665 H649 0.930 . S
C665 C664 1.377 . S
C665 C666 1.379 . S
C666 H650 0.931 . S
C666 C660 1.383 . S
C666 C665 1.379 . S
H667 C661 0.959 . S
H668 C661 0.961 . S
H669 C661 0.960 . S
H670 C662 0.930 . S
H671 C663 0.929 . S
H672 C680 0.929 . S
H673 C682 0.930 . S
H674 C684 0.930 . S
H675 C687 0.929 . S
H676 C690 0.930 . S
H677 C692 0.960 . S
H678 C692 0.960 . S
H679 C692 0.960 . S
C680 H672 0.929 . S
C680 C681 1.377 . S
C680 C682 1.384 . S
C681 C680 1.377 . S
C681 C687 1.390 . S
C682 H673 0.930 . S
C682 C680 1.384 . S
C682 C683 1.372 . S
C683 C682 1.372 . S
C683 C684 1.400 . S
C683 C688 1.490 . S
C684 H674 0.930 . S
C684 C683 1.400 . S
C684 C687 1.386 . S
H685 C701 0.930 . S
H686 C702 0.931 . S
C687 H675 0.929 . S
C687 C681 1.390 . S
C687 C684 1.386 . S
C688 C683 1.490 . S
C688 C690 1.395 . S
C688 C691 1.403 . S
H689 C695 0.930 . S
C690 H676 0.930 . S
C690 C688 1.395 . S
C690 C693 1.403 . S
C691 C688 1.403 . S
C691 C692 1.524 . S
C691 C695 1.400 . S
C692 H677 0.960 . S
C692 H678 0.960 . S
C692 H679 0.960 . S
C692 C691 1.524 . S
C693 C690 1.403 . S
C693 C694 1.392 . S
C693 C697 1.495 . S
C694 C693 1.392 . S
C694 C695 1.385 . S
C694 C696 1.478 . S
C695 H689 0.930 . S
C695 C691 1.400 . S
C695 C694 1.385 . S
C696 C694 1.478 . S
C696 C698 1.381 . S
C696 C702 1.383 . S
C697 C693 1.495 . S
C697 H703 0.959 . S
C697 H704 0.961 . S
C697 H705 0.960 . S
C698 C696 1.381 . S
C698 C699 1.394 . S
C698 H706 0.930 . S
C699 C698 1.394 . S
C699 C700 1.383 . S
C699 H707 0.929 . S
C700 C699 1.383 . S
C700 C701 1.377 . S
C701 H685 0.930 . S
C701 C700 1.377 . S
C701 C702 1.379 . S
C702 H686 0.931 . S
C702 C696 1.383 . S
C702 C701 1.379 . S
H703 C697 0.959 . S
H704 C697 0.961 . S
H705 C697 0.960 . S
H706 C698 0.930 . S
H707 C699 0.929 . S
H708 C716 0.929 . S
H709 C718 0.930 . S
H710 C720 0.930 . S
H711 C723 0.929 . S
H712 C726 0.930 . S
H713 C728 0.960 . S
H714 C728 0.960 . S
H715 C728 0.960 . S
C716 H708 0.929 . S
C716 C717 1.377 . S
C716 C718 1.384 . S
C717 C716 1.377 . S
C717 C723 1.390 . S
C718 H709 0.930 . S
C718 C716 1.384 . S
C718 C719 1.372 . S
C719 C718 1.372 . S
C719 C720 1.400 . S
C719 C724 1.490 . S
C720 H710 0.930 . S
C720 C719 1.400 . S
C720 C723 1.386 . S
H721 C737 0.930 . S
H722 C738 0.931 . S
C723 H711 0.929 . S
C723 C717 1.390 . S
C723 C720 1.386 . S
C724 C719 1.490 . S
C724 C726 1.395 . S
C724 C727 1.403 1_655 S
H725 C731 0.930 . S
C726 H712 0.930 . S
C726 C724 1.395 . S
C726 C729 1.403 . S
C727 C724 1.403 1_455 S
C727 C728 1.524 . S
C727 C731 1.400 . S
C728 H713 0.960 . S
C728 H714 0.960 . S
C728 H715 0.960 . S
C728 C727 1.524 . S
C729 C726 1.403 . S
C729 C730 1.392 1_655 S
C729 C733 1.495 . S
C730 C729 1.392 1_455 S
C730 C731 1.385 . S
C730 C732 1.478 . S
C731 H725 0.930 . S
C731 C727 1.400 . S
C731 C730 1.385 . S
C732 C730 1.478 . S
C732 C734 1.381 . S
C732 C738 1.383 . S
C733 C729 1.495 . S
C733 H739 0.959 . S
C733 H740 0.961 . S
C733 H741 0.960 . S
C734 C732 1.381 . S
C734 C735 1.394 . S
C734 H742 0.930 . S
C735 C734 1.394 . S
C735 C736 1.383 . S
C735 H743 0.929 . S
C736 C735 1.383 . S
C736 C737 1.377 . S
C737 H721 0.930 . S
C737 C736 1.377 . S
C737 C738 1.379 . S
C738 H722 0.931 . S
C738 C732 1.383 . S
C738 C737 1.379 . S
H739 C733 0.959 . S
H740 C733 0.961 . S
H741 C733 0.960 . S
H742 C734 0.930 . S
H743 C735 0.929 . S
H744 C752 0.929 . S
H745 C754 0.930 . S
H746 C756 0.930 . S
H747 C759 0.929 . S
H748 C762 0.930 . S
H749 C764 0.960 . S
H750 C764 0.960 . S
H751 C764 0.960 . S
C752 H744 0.929 . S
C752 C753 1.377 . S
C752 C754 1.384 . S
C753 C752 1.377 . S
C753 C759 1.390 . S
C754 H745 0.930 . S
C754 C752 1.384 . S
C754 C755 1.372 . S
C755 C754 1.372 . S
C755 C756 1.400 . S
C755 C760 1.490 . S
C756 H746 0.930 . S
C756 C755 1.400 . S
C756 C759 1.386 . S
H757 C773 0.930 . S
H758 C774 0.931 . S
C759 H747 0.929 . S
C759 C753 1.390 . S
C759 C756 1.386 . S
C760 C755 1.490 . S
C760 C762 1.395 . S
C760 C763 1.403 . S
H761 C767 0.930 . S
C762 H748 0.930 . S
C762 C760 1.395 . S
C762 C765 1.403 . S
C763 C760 1.403 . S
C763 C764 1.524 . S
C763 C767 1.400 . S
C764 H749 0.960 . S
C764 H750 0.960 . S
C764 H751 0.960 . S
C764 C763 1.524 . S
C765 C762 1.403 . S
C765 C766 1.392 . S
C765 C769 1.495 . S
C766 C765 1.392 . S
C766 C767 1.385 . S
C766 C768 1.478 . S
C767 H761 0.930 . S
C767 C763 1.400 . S
C767 C766 1.385 . S
C768 C766 1.478 . S
C768 C770 1.381 . S
C768 C774 1.383 . S
C769 C765 1.495 . S
C769 H775 0.959 . S
C769 H776 0.961 . S
C769 H777 0.960 . S
C770 C768 1.381 . S
C770 C771 1.394 . S
C770 H778 0.930 . S
C771 C770 1.394 . S
C771 C772 1.383 . S
C771 H779 0.929 . S
C772 C771 1.383 . S
C772 C773 1.377 . S
C773 H757 0.930 . S
C773 C772 1.377 . S
C773 C774 1.379 . S
C774 H758 0.931 . S
C774 C768 1.383 . S
C774 C773 1.379 . S
H775 C769 0.959 . S
H776 C769 0.961 . S
H777 C769 0.960 . S
H778 C770 0.930 . S
H779 C771 0.929 . S
H780 C788 0.929 . S
H781 C790 0.930 . S
H782 C792 0.930 . S
H783 C795 0.929 . S
H784 C798 0.930 . S
H785 C800 0.960 . S
H786 C800 0.960 . S
H787 C800 0.960 . S
C788 H780 0.929 . S
C788 C789 1.377 . S
C788 C790 1.384 . S
C789 C788 1.377 . S
C789 C795 1.390 . S
C790 H781 0.930 . S
C790 C788 1.384 . S
C790 C791 1.372 . S
C791 C790 1.372 . S
C791 C792 1.400 . S
C791 C796 1.490 . S
C792 H782 0.930 . S
C792 C791 1.400 . S
C792 C795 1.386 . S
H793 C809 0.930 . S
H794 C810 0.931 . S
C795 H783 0.929 . S
C795 C789 1.390 . S
C795 C792 1.386 . S
C796 C791 1.490 . S
C796 C798 1.395 . S
C796 C799 1.403 1_655 S
H797 C803 0.930 . S
C798 H784 0.930 . S
C798 C796 1.395 . S
C798 C801 1.403 . S
C799 C796 1.403 1_455 S
C799 C800 1.524 . S
C799 C803 1.400 . S
C800 H785 0.960 . S
C800 H786 0.960 . S
C800 H787 0.960 . S
C800 C799 1.524 . S
C801 C798 1.403 . S
C801 C802 1.392 1_655 S
C801 C805 1.495 . S
C802 C801 1.392 1_455 S
C802 C803 1.385 . S
C802 C804 1.478 . S
C803 H797 0.930 . S
C803 C799 1.400 . S
C803 C802 1.385 . S
C804 C802 1.478 . S
C804 C806 1.381 . S
C804 C810 1.383 . S
C805 C801 1.495 . S
C805 H811 0.959 . S
C805 H812 0.961 . S
C805 H813 0.960 . S
C806 C804 1.381 . S
C806 C807 1.394 . S
C806 H814 0.930 . S
C807 C806 1.394 . S
C807 C808 1.383 . S
C807 H815 0.929 . S
C808 C807 1.383 . S
C808 C809 1.377 . S
C809 H793 0.930 . S
C809 C808 1.377 . S
C809 C810 1.379 . S
C810 H794 0.931 . S
C810 C804 1.383 . S
C810 C809 1.379 . S
H811 C805 0.959 . S
H812 C805 0.961 . S
H813 C805 0.960 . S
H814 C806 0.930 . S
H815 C807 0.929 . S
H816 C824 0.929 . S
H817 C826 0.930 . S
H818 C828 0.930 . S
H819 C831 0.929 . S
H820 C834 0.930 . S
H821 C836 0.960 . S
H822 C836 0.960 . S
H823 C836 0.960 . S
C824 H816 0.929 . S
C824 C825 1.377 . S
C824 C826 1.384 . S
C825 C824 1.377 . S
C825 C831 1.390 . S
C826 H817 0.930 . S
C826 C824 1.384 . S
C826 C827 1.372 . S
C827 C826 1.372 . S
C827 C828 1.400 . S
C827 C832 1.490 . S
C828 H818 0.930 . S
C828 C827 1.400 . S
C828 C831 1.386 . S
H829 C845 0.930 . S
H830 C846 0.931 . S
C831 H819 0.929 . S
C831 C825 1.390 . S
C831 C828 1.386 . S
C832 C827 1.490 . S
C832 C834 1.395 . S
C832 C835 1.403 . S
H833 C839 0.930 . S
C834 H820 0.930 . S
C834 C832 1.395 . S
C834 C837 1.403 . S
C835 C832 1.403 . S
C835 C836 1.524 . S
C835 C839 1.400 . S
C836 H821 0.960 . S
C836 H822 0.960 . S
C836 H823 0.960 . S
C836 C835 1.524 . S
C837 C834 1.403 . S
C837 C838 1.392 . S
C837 C841 1.495 . S
C838 C837 1.392 . S
C838 C839 1.385 . S
C838 C840 1.478 . S
C839 H833 0.930 . S
C839 C835 1.400 . S
C839 C838 1.385 . S
C840 C838 1.478 . S
C840 C842 1.381 . S
C840 C846 1.383 . S
C841 C837 1.495 . S
C841 H847 0.959 . S
C841 H848 0.961 . S
C841 H849 0.960 . S
C842 C840 1.381 . S
C842 C843 1.394 . S
C842 H850 0.930 . S
C843 C842 1.394 . S
C843 C844 1.383 . S
C843 H851 0.929 . S
C844 C843 1.383 . S
C844 C845 1.377 . S
C845 H829 0.930 . S
C845 C844 1.377 . S
C845 C846 1.379 . S
C846 H830 0.931 . S
C846 C840 1.383 . S
C846 C845 1.379 . S
H847 C841 0.959 . S
H848 C841 0.961 . S
H849 C841 0.960 . S
H850 C842 0.930 . S
H851 C843 0.929 . S
H852 C860 0.929 . S
H853 C862 0.930 . S
H854 C864 0.930 . S
H855 C867 0.929 . S
H856 C870 0.930 . S
H857 C872 0.960 . S
H858 C872 0.960 . S
H859 C872 0.960 . S
C860 H852 0.929 . S
C860 C861 1.377 . S
C860 C862 1.384 . S
C861 C860 1.377 . S
C861 C867 1.390 . S
C862 H853 0.930 . S
C862 C860 1.384 . S
C862 C863 1.372 . S
C863 C862 1.372 . S
C863 C864 1.400 . S
C863 C868 1.490 . S
C864 H854 0.930 . S
C864 C863 1.400 . S
C864 C867 1.386 . S
H865 C881 0.930 . S
H866 C882 0.931 . S
C867 H855 0.929 . S
C867 C861 1.390 . S
C867 C864 1.386 . S
C868 C863 1.490 . S
C868 C870 1.395 . S
C868 C871 1.403 . S
H869 C875 0.930 . S
C870 H856 0.930 . S
C870 C868 1.395 . S
C870 C873 1.403 . S
C871 C868 1.403 . S
C871 C872 1.524 . S
C871 C875 1.400 . S
C872 H857 0.960 . S
C872 H858 0.960 . S
C872 H859 0.960 . S
C872 C871 1.524 . S
C873 C870 1.403 . S
C873 C874 1.392 . S
C873 C877 1.495 . S
C874 C873 1.392 . S
C874 C875 1.385 . S
C874 C876 1.478 . S
C875 H869 0.930 . S
C875 C871 1.400 . S
C875 C874 1.385 . S
C876 C874 1.478 . S
C876 C878 1.381 . S
C876 C882 1.383 . S
C877 C873 1.495 . S
C877 H883 0.959 . S
C877 H884 0.961 . S
C877 H885 0.960 . S
C878 C876 1.381 . S
C878 C879 1.394 . S
C878 H886 0.930 . S
C879 C878 1.394 . S
C879 C880 1.383 . S
C879 H887 0.929 . S
C880 C879 1.383 . S
C880 C881 1.377 . S
C881 H865 0.930 . S
C881 C880 1.377 . S
C881 C882 1.379 . S
C882 H866 0.931 . S
C882 C876 1.383 . S
C882 C881 1.379 . S
H883 C877 0.959 . S
H884 C877 0.961 . S
H885 C877 0.960 . S
H886 C878 0.930 . S
H887 C879 0.929 . S
H888 C896 0.929 . S
H889 C898 0.930 . S
H890 C900 0.930 . S
H891 C903 0.929 . S
H892 C906 0.930 . S
H893 C908 0.960 . S
H894 C908 0.960 . S
H895 C908 0.960 . S
C896 H888 0.929 . S
C896 C897 1.377 . S
C896 C898 1.384 . S
C897 C896 1.377 . S
C897 C903 1.390 . S
C898 H889 0.930 . S
C898 C896 1.384 . S
C898 C899 1.372 . S
C899 C898 1.372 . S
C899 C900 1.400 . S
C899 C904 1.490 . S
C900 H890 0.930 . S
C900 C899 1.400 . S
C900 C903 1.386 . S
H901 C917 0.930 . S
H902 C918 0.931 . S
C903 H891 0.929 . S
C903 C897 1.390 . S
C903 C900 1.386 . S
C904 C899 1.490 . S
C904 C906 1.395 . S
C904 C907 1.403 . S
H905 C911 0.930 . S
C906 H892 0.930 . S
C906 C904 1.395 . S
C906 C909 1.403 . S
C907 C904 1.403 . S
C907 C908 1.524 . S
C907 C911 1.400 . S
C908 H893 0.960 . S
C908 H894 0.960 . S
C908 H895 0.960 . S
C908 C907 1.524 . S
C909 C906 1.403 . S
C909 C910 1.392 . S
C909 C913 1.495 . S
C910 C909 1.392 . S
C910 C911 1.385 . S
C910 C912 1.478 . S
C911 H905 0.930 . S
C911 C907 1.400 . S
C911 C910 1.385 . S
C912 C910 1.478 . S
C912 C914 1.381 . S
C912 C918 1.383 . S
C913 C909 1.495 . S
C913 H919 0.959 . S
C913 H920 0.961 . S
C913 H921 0.960 . S
C914 C912 1.381 . S
C914 C915 1.394 . S
C914 H922 0.930 . S
C915 C914 1.394 . S
C915 C916 1.383 . S
C915 H923 0.929 . S
C916 C915 1.383 . S
C916 C917 1.377 . S
C917 H901 0.930 . S
C917 C916 1.377 . S
C917 C918 1.379 . S
C918 H902 0.931 . S
C918 C912 1.383 . S
C918 C917 1.379 . S
H919 C913 0.959 . S
H920 C913 0.961 . S
H921 C913 0.960 . S
H922 C914 0.930 . S
H923 C915 0.929 . S
H924 C932 0.929 . S
H925 C934 0.930 . S
H926 C936 0.930 . S
H927 C939 0.929 . S
H928 C942 0.930 . S
H929 C944 0.960 . S
H930 C944 0.960 . S
H931 C944 0.960 . S
C932 H924 0.929 . S
C932 C933 1.377 . S
C932 C934 1.384 . S
C933 C932 1.377 . S
C933 C939 1.390 . S
C934 H925 0.930 . S
C934 C932 1.384 . S
C934 C935 1.372 . S
C935 C934 1.372 . S
C935 C936 1.400 . S
C935 C940 1.490 . S
C936 H926 0.930 . S
C936 C935 1.400 . S
C936 C939 1.386 . S
H937 C953 0.930 . S
H938 C954 0.931 . S
C939 H927 0.929 . S
C939 C933 1.390 . S
C939 C936 1.386 . S
C940 C935 1.490 . S
C940 C942 1.395 . S
C940 C943 1.403 . S
H941 C947 0.930 . S
C942 H928 0.930 . S
C942 C940 1.395 . S
C942 C945 1.403 . S
C943 C940 1.403 . S
C943 C944 1.524 . S
C943 C947 1.400 . S
C944 H929 0.960 . S
C944 H930 0.960 . S
C944 H931 0.960 . S
C944 C943 1.524 . S
C945 C942 1.403 . S
C945 C946 1.392 . S
C945 C949 1.495 . S
C946 C945 1.392 . S
C946 C947 1.385 . S
C946 C948 1.478 . S
C947 H941 0.930 . S
C947 C943 1.400 . S
C947 C946 1.385 . S
C948 C946 1.478 . S
C948 C950 1.381 . S
C948 C954 1.383 . S
C949 C945 1.495 . S
C949 H955 0.959 . S
C949 H956 0.961 . S
C949 H957 0.960 . S
C950 C948 1.381 . S
C950 C951 1.394 . S
C950 H958 0.930 . S
C951 C950 1.394 . S
C951 C952 1.383 . S
C951 H959 0.929 . S
C952 C951 1.383 . S
C952 C953 1.377 . S
C953 H937 0.930 . S
C953 C952 1.377 . S
C953 C954 1.379 . S
C954 H938 0.931 . S
C954 C948 1.383 . S
C954 C953 1.379 . S
H955 C949 0.959 . S
H956 C949 0.961 . S
H957 C949 0.960 . S
H958 C950 0.930 . S
H959 C951 0.929 . S
H960 C968 0.929 . S
H961 C970 0.930 . S
H962 C972 0.930 . S
H963 C975 0.929 . S
H964 C978 0.930 . S
H965 C980 0.960 . S
H966 C980 0.960 . S
H967 C980 0.960 . S
C968 H960 0.929 . S
C968 C969 1.377 . S
C968 C970 1.384 . S
C969 C968 1.377 . S
C969 C975 1.390 . S
C970 H961 0.930 . S
C970 C968 1.384 . S
C970 C971 1.372 . S
C971 C970 1.372 . S
C971 C972 1.400 . S
C971 C976 1.490 . S
C972 H962 0.930 . S
C972 C971 1.400 . S
C972 C975 1.386 . S
H973 C989 0.930 . S
H974 C990 0.931 . S
C975 H963 0.929 . S
C975 C969 1.390 . S
C975 C972 1.386 . S
C976 C971 1.490 . S
C976 C978 1.395 . S
C976 C979 1.403 . S
H977 C983 0.930 . S
C978 H964 0.930 . S
C978 C976 1.395 . S
C978 C981 1.403 . S
C979 C976 1.403 . S
C979 C980 1.524 . S
C979 C983 1.400 . S
C980 H965 0.960 . S
C980 H966 0.960 . S
C980 H967 0.960 . S
C980 C979 1.524 . S
C981 C978 1.403 . S
C981 C982 1.392 . S
C981 C985 1.495 . S
C982 C981 1.392 . S
C982 C983 1.385 . S
C982 C984 1.478 . S
C983 H977 0.930 . S
C983 C979 1.400 . S
C983 C982 1.385 . S
C984 C982 1.478 . S
C984 C986 1.381 . S
C984 C990 1.383 . S
C985 C981 1.495 . S
C985 H991 0.959 . S
C985 H992 0.961 . S
C985 H993 0.960 . S
C986 C984 1.381 . S
C986 C987 1.394 . S
C986 H994 0.930 . S
C987 C986 1.394 . S
C987 C988 1.383 . S
C987 H995 0.929 . S
C988 C987 1.383 . S
C988 C989 1.377 . S
C989 H973 0.930 . S
C989 C988 1.377 . S
C989 C990 1.379 . S
C990 H974 0.931 . S
C990 C984 1.383 . S
C990 C989 1.379 . S
H991 C985 0.959 . S
H992 C985 0.961 . S
H993 C985 0.960 . S
H994 C986 0.930 . S
H995 C987 0.929 . S
H996 C1004 0.929 . S
H997 C1006 0.930 . S
H998 C1008 0.930 . S
H999 C1011 0.929 . S
H1000 C1014 0.930 . S
H1001 C1016 0.960 . S
H1002 C1016 0.960 . S
H1003 C1016 0.960 . S
C1004 H996 0.929 . S
C1004 C1005 1.377 . S
C1004 C1006 1.384 . S
C1005 C1004 1.377 . S
C1005 C1011 1.390 . S
C1006 H997 0.930 . S
C1006 C1004 1.384 . S
C1006 C1007 1.372 . S
C1007 C1006 1.372 . S
C1007 C1008 1.400 . S
C1007 C1012 1.490 . S
C1008 H998 0.930 . S
C1008 C1007 1.400 . S
C1008 C1011 1.386 . S
H1009 C1025 0.930 . S
H1010 C1026 0.931 . S
C1011 H999 0.929 . S
C1011 C1005 1.390 . S
C1011 C1008 1.386 . S
C1012 C1007 1.490 . S
C1012 C1014 1.395 . S
C1012 C1015 1.403 . S
H1013 C1019 0.930 . S
C1014 H1000 0.930 . S
C1014 C1012 1.395 . S
C1014 C1017 1.403 . S
C1015 C1012 1.403 . S
C1015 C1016 1.524 . S
C1015 C1019 1.400 . S
C1016 H1001 0.960 . S
C1016 H1002 0.960 . S
C1016 H1003 0.960 . S
C1016 C1015 1.524 . S
C1017 C1014 1.403 . S
C1017 C1018 1.392 . S
C1017 C1021 1.495 . S
C1018 C1017 1.392 . S
C1018 C1019 1.385 . S
C1018 C1020 1.478 . S
C1019 H1013 0.930 . S
C1019 C1015 1.400 . S
C1019 C1018 1.385 . S
C1020 C1018 1.478 . S
C1020 C1022 1.381 . S
C1020 C1026 1.383 . S
C1021 C1017 1.495 . S
C1021 H1027 0.959 . S
C1021 H1028 0.961 . S
C1021 H1029 0.960 . S
C1022 C1020 1.381 . S
C1022 C1023 1.394 . S
C1022 H1030 0.930 . S
C1023 C1022 1.394 . S
C1023 C1024 1.383 . S
C1023 H1031 0.929 . S
C1024 C1023 1.383 . S
C1024 C1025 1.377 . S
C1025 H1009 0.930 . S
C1025 C1024 1.377 . S
C1025 C1026 1.379 . S
C1026 H1010 0.931 . S
C1026 C1020 1.383 . S
C1026 C1025 1.379 . S
H1027 C1021 0.959 . S
H1028 C1021 0.961 . S
H1029 C1021 0.960 . S
H1030 C1022 0.930 . S
H1031 C1023 0.929 . S
H1032 C1040 0.929 . S
H1033 C1042 0.930 . S
H1034 C1044 0.930 . S
H1035 C1047 0.929 . S
H1036 C1050 0.930 . S
H1037 C1052 0.960 . S
H1038 C1052 0.960 . S
H1039 C1052 0.960 . S
C1040 H1032 0.929 . S
C1040 C1041 1.377 . S
C1040 C1042 1.384 . S
C1041 C1040 1.377 . S
C1041 C1047 1.390 . S
C1042 H1033 0.930 . S
C1042 C1040 1.384 . S
C1042 C1043 1.372 . S
C1043 C1042 1.372 . S
C1043 C1044 1.400 . S
C1043 C1048 1.490 . S
C1044 H1034 0.930 . S
C1044 C1043 1.400 . S
C1044 C1047 1.386 . S
H1045 C1061 0.930 . S
H1046 C1062 0.931 . S
C1047 H1035 0.929 . S
C1047 C1041 1.390 . S
C1047 C1044 1.386 . S
C1048 C1043 1.490 . S
C1048 C1050 1.395 . S
C1048 C1051 1.403 . S
H1049 C1055 0.930 . S
C1050 H1036 0.930 . S
C1050 C1048 1.395 . S
C1050 C1053 1.403 . S
C1051 C1048 1.403 . S
C1051 C1052 1.524 . S
C1051 C1055 1.400 . S
C1052 H1037 0.960 . S
C1052 H1038 0.960 . S
C1052 H1039 0.960 . S
C1052 C1051 1.524 . S
C1053 C1050 1.403 . S
C1053 C1054 1.392 . S
C1053 C1057 1.495 . S
C1054 C1053 1.392 . S
C1054 C1055 1.385 . S
C1054 C1056 1.478 . S
C1055 H1049 0.930 . S
C1055 C1051 1.400 . S
C1055 C1054 1.385 . S
C1056 C1054 1.478 . S
C1056 C1058 1.381 . S
C1056 C1062 1.383 . S
C1057 C1053 1.495 . S
C1057 H1063 0.959 . S
C1057 H1064 0.961 . S
C1057 H1065 0.960 . S
C1058 C1056 1.381 . S
C1058 C1059 1.394 . S
C1058 H1066 0.930 . S
C1059 C1058 1.394 . S
C1059 C1060 1.383 . S
C1059 H1067 0.929 . S
C1060 C1059 1.383 . S
C1060 C1061 1.377 . S
C1061 H1045 0.930 . S
C1061 C1060 1.377 . S
C1061 C1062 1.379 . S
C1062 H1046 0.931 . S
C1062 C1056 1.383 . S
C1062 C1061 1.379 . S
H1063 C1057 0.959 . S
H1064 C1057 0.961 . S
H1065 C1057 0.960 . S
H1066 C1058 0.930 . S
H1067 C1059 0.929 . S
H1068 C1076 0.929 . S
H1069 C1078 0.930 . S
H1070 C1080 0.930 . S
H1071 C1083 0.929 . S
H1072 C1086 0.930 . S
H1073 C1088 0.960 . S
H1074 C1088 0.960 . S
H1075 C1088 0.960 . S
C1076 H1068 0.929 . S
C1076 C1077 1.377 . S
C1076 C1078 1.384 . S
C1077 C1076 1.377 . S
C1077 C1083 1.390 . S
C1078 H1069 0.930 . S
C1078 C1076 1.384 . S
C1078 C1079 1.372 . S
C1079 C1078 1.372 . S
C1079 C1080 1.400 . S
C1079 C1084 1.490 . S
C1080 H1070 0.930 . S
C1080 C1079 1.400 . S
C1080 C1083 1.386 . S
H1081 C1097 0.930 . S
H1082 C1098 0.931 . S
C1083 H1071 0.929 . S
C1083 C1077 1.390 . S
C1083 C1080 1.386 . S
C1084 C1079 1.490 . S
C1084 C1086 1.395 . S
C1084 C1087 1.403 . S
H1085 C1091 0.930 . S
C1086 H1072 0.930 . S
C1086 C1084 1.395 . S
C1086 C1089 1.403 . S
C1087 C1084 1.403 . S
C1087 C1088 1.524 . S
C1087 C1091 1.400 . S
C1088 H1073 0.960 . S
C1088 H1074 0.960 . S
C1088 H1075 0.960 . S
C1088 C1087 1.524 . S
C1089 C1086 1.403 . S
C1089 C1090 1.392 . S
C1089 C1093 1.495 . S
C1090 C1089 1.392 . S
C1090 C1091 1.385 . S
C1090 C1092 1.478 . S
C1091 H1085 0.930 . S
C1091 C1087 1.400 . S
C1091 C1090 1.385 . S
C1092 C1090 1.478 . S
C1092 C1094 1.381 . S
C1092 C1098 1.383 . S
C1093 C1089 1.495 . S
C1093 H1099 0.959 . S
C1093 H1100 0.961 . S
C1093 H1101 0.960 . S
C1094 C1092 1.381 . S
C1094 C1095 1.394 . S
C1094 H1102 0.930 . S
C1095 C1094 1.394 . S
C1095 C1096 1.383 . S
C1095 H1103 0.929 . S
C1096 C1095 1.383 . S
C1096 C1097 1.377 . S
C1097 H1081 0.930 . S
C1097 C1096 1.377 . S
C1097 C1098 1.379 . S
C1098 H1082 0.931 . S
C1098 C1092 1.383 . S
C1098 C1097 1.379 . S
H1099 C1093 0.959 . S
H1100 C1093 0.961 . S
H1101 C1093 0.960 . S
H1102 C1094 0.930 . S
H1103 C1095 0.929 . S
H1104 C1112 0.929 . S
H1105 C1114 0.930 . S
H1106 C1116 0.930 1_565 S
H1107 C1119 0.929 . S
H1108 C1122 0.930 . S
H1109 C1124 0.960 1_565 S
H1110 C1124 0.960 . S
H1111 C1124 0.960 1_565 S
C1112 H1104 0.929 . S
C1112 C1113 1.377 . S
C1112 C1114 1.384 . S
C1113 C1112 1.377 . S
C1113 C1119 1.390 . S
C1114 H1105 0.930 . S
C1114 C1112 1.384 . S
C1114 C1115 1.372 . S
C1115 C1114 1.372 . S
C1115 C1116 1.400 . S
C1115 C1120 1.490 . S
C1116 H1106 0.930 1_545 S
C1116 C1115 1.400 . S
C1116 C1119 1.386 . S
H1117 C1133 0.930 . S
H1118 C1134 0.931 . S
C1119 H1107 0.929 . S
C1119 C1113 1.390 . S
C1119 C1116 1.386 . S
C1120 C1115 1.490 . S
C1120 C1122 1.395 1_455 S
C1120 C1123 1.403 . S
H1121 C1127 0.930 . S
C1122 H1108 0.930 . S
C1122 C1120 1.395 1_655 S
C1122 C1125 1.417 . S
C1123 C1120 1.403 . S
C1123 C1124 1.524 . S
C1123 C1127 1.400 1_545 S
C1124 H1109 0.960 1_545 S
C1124 H1110 0.960 . S
C1124 H1111 0.960 1_545 S
C1124 C1123 1.524 . S
C1125 C1122 1.417 . S
C1125 C1126 1.380 1_545 S
C1125 C1129 1.495 . S
C1126 C1125 1.380 1_565 S
C1126 C1127 1.385 1_655 S
C1126 C1128 1.478 . S
C1127 H1121 0.930 . S
C1127 C1123 1.400 1_565 S
C1127 C1126 1.385 1_455 S
C1128 C1126 1.478 . S
C1128 C1130 1.381 . S
C1128 C1134 1.383 . S
C1129 C1125 1.495 . S
C1129 H1135 0.959 . S
C1129 H1136 0.961 1_545 S
C1129 H1137 0.960 . S
C1130 C1128 1.381 . S
C1130 C1131 1.394 . S
C1130 H1138 0.930 1_565 S
C1131 C1130 1.394 . S
C1131 C1132 1.383 . S
C1131 H1139 0.929 . S
C1132 C1131 1.383 . S
C1132 C1133 1.377 . S
C1133 H1117 0.930 . S
C1133 C1132 1.377 . S
C1133 C1134 1.379 . S
C1134 H1118 0.931 . S
C1134 C1128 1.383 . S
C1134 C1133 1.379 . S
H1135 C1129 0.959 . S
H1136 C1129 0.961 1_565 S
H1137 C1129 0.960 . S
H1138 C1130 0.930 1_545 S
H1139 C1131 0.929 . S
H1140 C1148 0.929 . S
H1141 C1150 0.930 . S
H1142 C1152 0.930 . S
H1143 C1155 0.929 . S
H1144 C1158 0.930 . S
H1145 C1160 0.960 . S
H1146 C1160 0.960 . S
H1147 C1160 0.960 . S
C1148 H1140 0.929 . S
C1148 C1149 1.377 . S
C1148 C1150 1.384 . S
C1149 C1148 1.377 . S
C1149 C1155 1.390 . S
C1150 H1141 0.930 . S
C1150 C1148 1.384 . S
C1150 C1151 1.372 . S
C1151 C1150 1.372 . S
C1151 C1152 1.400 . S
C1151 C1156 1.490 . S
C1152 H1142 0.930 . S
C1152 C1151 1.400 . S
C1152 C1155 1.386 . S
H1153 C1169 0.930 . S
H1154 C1170 0.931 . S
C1155 H1143 0.929 . S
C1155 C1149 1.390 . S
C1155 C1152 1.386 . S
C1156 C1151 1.490 . S
C1156 C1158 1.395 1_565 S
C1156 C1159 1.403 . S
H1157 C1163 0.930 . S
C1158 H1144 0.930 . S
C1158 C1156 1.395 1_545 S
C1158 C1161 1.403 . S
C1159 C1156 1.403 . S
C1159 C1160 1.524 . S
C1159 C1163 1.400 . S
C1160 H1145 0.960 . S
C1160 H1146 0.960 . S
C1160 H1147 0.960 . S
C1160 C1159 1.524 . S
C1161 C1158 1.403 . S
C1161 C1162 1.392 . S
C1161 C1165 1.495 . S
C1162 C1161 1.392 . S
C1162 C1163 1.385 1_545 S
C1162 C1164 1.478 . S
C1163 H1157 0.930 . S
C1163 C1159 1.400 . S
C1163 C1162 1.385 1_565 S
C1164 C1162 1.478 . S
C1164 C1166 1.381 . S
C1164 C1170 1.383 . S
C1165 C1161 1.495 . S
C1165 H1171 0.959 . S
C1165 H1172 0.961 . S
C1165 H1173 0.960 . S
C1166 C1164 1.381 . S
C1166 C1167 1.394 . S
C1166 H1174 0.930 . S
C1167 C1166 1.394 . S
C1167 C1168 1.383 . S
C1167 H1175 0.929 . S
C1168 C1167 1.383 . S
C1168 C1169 1.377 . S
C1169 H1153 0.930 . S
C1169 C1168 1.377 . S
C1169 C1170 1.379 . S
C1170 H1154 0.931 . S
C1170 C1164 1.383 . S
C1170 C1169 1.379 . S
H1171 C1165 0.959 . S
H1172 C1165 0.961 . S
H1173 C1165 0.960 . S
H1174 C1166 0.930 . S
H1175 C1167 0.929 . S
H1176 C1184 0.929 . S
H1177 C1186 0.930 . S
H1178 C1188 0.930 1_565 S
H1179 C1191 0.929 . S
H1180 C1194 0.930 . S
H1181 C1196 0.960 . S
H1182 C1196 0.960 . S
H1183 C1196 0.960 . S
C1184 H1176 0.929 . S
C1184 C1185 1.377 . S
C1184 C1186 1.384 . S
C1185 C1184 1.377 . S
C1185 C1191 1.390 . S
C1186 H1177 0.930 . S
C1186 C1184 1.384 . S
C1186 C1187 1.372 . S
C1187 C1186 1.372 . S
C1187 C1188 1.400 . S
C1187 C1192 1.490 . S
C1188 H1178 0.930 1_545 S
C1188 C1187 1.400 . S
C1188 C1191 1.386 . S
H1189 C1205 0.930 . S
H1190 C1206 0.931 . S
C1191 H1179 0.929 . S
C1191 C1185 1.390 . S
C1191 C1188 1.386 . S
C1192 C1187 1.490 . S
C1192 C1194 1.395 1_556 S
C1192 C1195 1.403 1_545 S
H1193 C1199 0.929 1_556 S
C1194 H1180 0.930 . S
C1194 C1192 1.395 1_554 S
C1194 C1197 1.403 . S
C1195 C1192 1.403 1_565 S
C1195 C1196 1.524 . S
C1195 C1199 1.380 1_556 S
C1196 H1181 0.960 . S
C1196 H1182 0.960 . S
C1196 H1183 0.960 . S
C1196 C1195 1.524 . S
C1197 C1194 1.403 . S
C1197 C1198 1.392 1_545 S
C1197 C1201 1.495 . S
C1198 C1197 1.392 1_565 S
C1198 C1199 1.406 . S
C1198 C1200 1.478 . S
C1199 H1193 0.929 1_554 S
C1199 C1195 1.380 1_554 S
C1199 C1198 1.406 . S
C1200 C1198 1.478 . S
C1200 C1202 1.381 . S
C1200 C1206 1.383 . S
C1201 C1197 1.495 . S
C1201 H1207 0.959 . S
C1201 H1208 0.961 . S
C1201 H1209 0.960 . S
C1202 C1200 1.381 . S
C1202 C1203 1.394 . S
C1202 H1210 0.930 1_565 S
C1203 C1202 1.394 . S
C1203 C1204 1.383 . S
C1203 H1211 0.929 . S
C1204 C1203 1.383 . S
C1204 C1205 1.377 . S
C1205 H1189 0.930 . S
C1205 C1204 1.377 . S
C1205 C1206 1.379 . S
C1206 H1190 0.931 . S
C1206 C1200 1.383 . S
C1206 C1205 1.379 . S
H1207 C1201 0.959 . S
H1208 C1201 0.961 . S
H1209 C1201 0.960 . S
H1210 C1202 0.930 1_545 S
H1211 C1203 0.929 . S
H1212 C1220 0.929 . S
H1213 C1222 0.930 1_565 S
H1214 C1224 0.930 . S
H1215 C1227 0.929 . S
H1216 C1230 0.930 . S
H1217 C1232 0.960 . S
H1218 C1232 0.960 . S
H1219 C1232 0.960 . S
C1220 H1212 0.929 . S
C1220 C1221 1.377 . S
C1220 C1222 1.384 . S
C1221 C1220 1.377 . S
C1221 C1227 1.390 . S
C1222 H1213 0.930 1_545 S
C1222 C1220 1.384 . S
C1222 C1223 1.372 . S
C1223 C1222 1.372 . S
C1223 C1224 1.400 . S
C1223 C1228 1.490 . S
C1224 H1214 0.930 . S
C1224 C1223 1.400 . S
C1224 C1227 1.386 . S
H1225 C1241 0.930 . S
H1226 C1242 0.931 1_545 S
C1227 H1215 0.929 . S
C1227 C1221 1.390 . S
C1227 C1224 1.386 . S
C1228 C1223 1.490 . S
C1228 C1230 1.395 1_545 S
C1228 C1231 1.403 1_655 S
H1229 C1235 0.930 . S
C1230 H1216 0.930 . S
C1230 C1228 1.395 1_565 S
C1230 C1233 1.403 1_554 S
C1231 C1228 1.403 1_455 S
C1231 C1232 1.524 . S
C1231 C1235 1.400 1_554 S
C1232 H1217 0.960 . S
C1232 H1218 0.960 . S
C1232 H1219 0.960 . S
C1232 C1231 1.524 . S
C1233 C1230 1.403 1_556 S
C1233 C1234 1.392 1_655 S
C1233 C1237 1.495 . S
C1234 C1233 1.392 1_455 S
C1234 C1235 1.385 1_565 S
C1234 C1236 1.478 . S
C1235 H1229 0.930 . S
C1235 C1231 1.400 1_556 S
C1235 C1234 1.385 1_545 S
C1236 C1234 1.478 . S
C1236 C1238 1.381 . S
C1236 C1242 1.383 . S
C1237 C1233 1.495 . S
C1237 H1243 0.959 . S
C1237 H1244 0.961 . S
C1237 H1245 0.960 . S
C1238 C1236 1.381 . S
C1238 C1239 1.394 . S
C1238 H1246 0.930 . S
C1239 C1238 1.394 . S
C1239 C1240 1.383 . S
C1239 H1247 0.929 . S
C1240 C1239 1.383 . S
C1240 C1241 1.377 . S
C1241 H1225 0.930 . S
C1241 C1240 1.377 . S
C1241 C1242 1.379 . S
C1242 H1226 0.931 1_565 S
C1242 C1236 1.383 . S
C1242 C1241 1.379 . S
H1243 C1237 0.959 . S
H1244 C1237 0.961 . S
H1245 C1237 0.960 . S
H1246 C1238 0.930 . S
H1247 C1239 0.929 . S
H1248 C1256 0.929 . S
H1249 C1258 0.930 . S
H1250 C1260 0.930 . S
H1251 C1263 0.929 . S
H1252 C1266 0.930 . S
H1253 C1268 0.960 . S
H1254 C1268 0.960 . S
H1255 C1268 0.960 . S
C1256 H1248 0.929 . S
C1256 C1257 1.377 . S
C1256 C1258 1.384 . S
C1257 C1256 1.377 . S
C1257 C1263 1.390 . S
C1258 H1249 0.930 . S
C1258 C1256 1.384 . S
C1258 C1259 1.372 . S
C1259 C1258 1.372 . S
C1259 C1260 1.400 . S
C1259 C1264 1.490 . S
C1260 H1250 0.930 . S
C1260 C1259 1.400 . S
C1260 C1263 1.386 . S
H1261 C1277 0.930 . S
H1262 C1278 0.931 . S
C1263 H1251 0.929 . S
C1263 C1257 1.390 . S
C1263 C1260 1.386 . S
C1264 C1259 1.490 . S
C1264 C1266 1.395 . S
C1264 C1267 1.403 . S
H1265 C1271 0.930 . S
C1266 H1252 0.930 . S
C1266 C1264 1.395 . S
C1266 C1269 1.403 . S
C1267 C1264 1.403 . S
C1267 C1268 1.524 . S
C1267 C1271 1.400 . S
C1268 H1253 0.960 . S
C1268 H1254 0.960 . S
C1268 H1255 0.960 . S
C1268 C1267 1.524 . S
C1269 C1266 1.403 . S
C1269 C1270 1.392 . S
C1269 C1273 1.495 . S
C1270 C1269 1.392 . S
C1270 C1271 1.385 . S
C1270 C1272 1.478 . S
C1271 H1265 0.930 . S
C1271 C1267 1.400 . S
C1271 C1270 1.385 . S
C1272 C1270 1.478 . S
C1272 C1274 1.381 . S
C1272 C1278 1.383 . S
C1273 C1269 1.495 . S
C1273 H1279 0.959 . S
C1273 H1280 0.961 . S
C1273 H1281 0.960 . S
C1274 C1272 1.381 . S
C1274 C1275 1.394 . S
C1274 H1282 0.930 . S
C1275 C1274 1.394 . S
C1275 C1276 1.383 . S
C1275 H1283 0.929 . S
C1276 C1275 1.383 . S
C1276 C1277 1.377 . S
C1277 H1261 0.930 . S
C1277 C1276 1.377 . S
C1277 C1278 1.379 . S
C1278 H1262 0.931 . S
C1278 C1272 1.383 . S
C1278 C1277 1.379 . S
H1279 C1273 0.959 . S
H1280 C1273 0.961 . S
H1281 C1273 0.960 . S
H1282 C1274 0.930 . S
H1283 C1275 0.929 . S
H1284 C1292 0.929 . S
H1285 C1294 0.930 . S
H1286 C1296 0.930 . S
H1287 C1299 0.929 . S
H1288 C1302 0.930 . S
H1289 C1304 0.960 . S
H1290 C1304 0.960 . S
H1291 C1304 0.960 . S
C1292 H1284 0.929 . S
C1292 C1293 1.377 . S
C1292 C1294 1.384 . S
C1293 C1292 1.377 . S
C1293 C1299 1.390 . S
C1294 H1285 0.930 . S
C1294 C1292 1.384 . S
C1294 C1295 1.372 . S
C1295 C1294 1.372 . S
C1295 C1296 1.400 . S
C1295 C1300 1.490 . S
C1296 H1286 0.930 . S
C1296 C1295 1.400 . S
C1296 C1299 1.386 . S
H1297 C1313 0.930 . S
H1298 C1314 0.931 . S
C1299 H1287 0.929 . S
C1299 C1293 1.390 . S
C1299 C1296 1.386 . S
C1300 C1295 1.490 . S
C1300 C1302 1.395 1_455 S
C1300 C1303 1.403 . S
H1301 C1307 0.934 . S
C1302 H1288 0.930 . S
C1302 C1300 1.395 1_655 S
C1302 C1305 1.403 . S
C1303 C1300 1.403 . S
C1303 C1304 1.524 . S
C1303 C1307 1.425 . S
C1304 H1289 0.960 . S
C1304 H1290 0.960 . S
C1304 H1291 0.960 . S
C1304 C1303 1.524 . S
C1305 C1302 1.403 . S
C1305 C1306 1.392 . S
C1305 C1309 1.495 . S
C1306 C1305 1.392 . S
C1306 C1307 1.358 1_655 S
C1306 C1308 1.478 . S
C1307 H1301 0.934 . S
C1307 C1303 1.425 . S
C1307 C1306 1.358 1_455 S
C1308 C1306 1.478 . S
C1308 C1310 1.381 . S
C1308 C1314 1.383 . S
C1309 C1305 1.495 . S
C1309 H1315 0.959 . S
C1309 H1316 0.961 . S
C1309 H1317 0.960 . S
C1310 C1308 1.381 . S
C1310 C1311 1.394 . S
C1310 H1318 0.930 . S
C1311 C1310 1.394 . S
C1311 C1312 1.383 . S
C1311 H1319 0.929 . S
C1312 C1311 1.383 . S
C1312 C1313 1.377 . S
C1313 H1297 0.930 . S
C1313 C1312 1.377 . S
C1313 C1314 1.379 . S
C1314 H1298 0.931 . S
C1314 C1308 1.383 . S
C1314 C1313 1.379 . S
H1315 C1309 0.959 . S
H1316 C1309 0.961 . S
H1317 C1309 0.960 . S
H1318 C1310 0.930 . S
H1319 C1311 0.929 . S
H1320 C1328 0.929 . S
H1321 C1330 0.930 1_655 S
H1322 C1332 0.930 . S
H1323 C1335 0.929 . S
H1324 C1338 0.930 . S
H1325 C1340 0.960 . S
H1326 C1340 0.958 . S
H1327 C1340 0.960 . S
C1328 H1320 0.929 . S
C1328 C1329 1.377 . S
C1328 C1330 1.384 . S
C1329 C1328 1.377 . S
C1329 C1335 1.390 . S
C1330 H1321 0.930 1_455 S
C1330 C1328 1.384 . S
C1330 C1331 1.372 . S
C1331 C1330 1.372 . S
C1331 C1332 1.400 . S
C1331 C1336 1.490 . S
C1332 H1322 0.930 . S
C1332 C1331 1.400 . S
C1332 C1335 1.386 . S
H1333 C1349 0.930 . S
H1334 C1350 0.931 1_455 S
C1335 H1323 0.929 . S
C1335 C1329 1.390 . S
C1335 C1332 1.386 . S
C1336 C1331 1.490 . S
C1336 C1338 1.395 1_455 S
C1336 C1339 1.403 1_554 S
H1337 C1343 0.929 . S
C1338 H1324 0.930 . S
C1338 C1336 1.395 1_655 S
C1338 C1341 1.403 . S
C1339 C1336 1.403 1_556 S
C1339 C1340 1.524 . S
C1339 C1343 1.377 1_455 S
C1340 H1325 0.960 . S
C1340 H1326 0.958 . S
C1340 H1327 0.960 . S
C1340 C1339 1.524 . S
C1341 C1338 1.403 . S
C1341 C1342 1.392 1_554 S
C1341 C1345 1.495 . S
C1342 C1341 1.392 1_556 S
C1342 C1343 1.411 . S
C1342 C1344 1.478 . S
C1343 H1337 0.929 . S
C1343 C1339 1.377 1_655 S
C1343 C1342 1.411 . S
C1344 C1342 1.478 . S
C1344 C1346 1.381 . S
C1344 C1350 1.383 . S
C1345 C1341 1.495 . S
C1345 H1351 0.959 . S
C1345 H1352 0.961 . S
C1345 H1353 0.960 . S
C1346 C1344 1.381 . S
C1346 C1347 1.394 . S
C1346 H1354 0.930 . S
C1347 C1346 1.394 . S
C1347 C1348 1.383 . S
C1347 H1355 0.929 . S
C1348 C1347 1.383 . S
C1348 C1349 1.377 . S
C1349 H1333 0.930 . S
C1349 C1348 1.377 . S
C1349 C1350 1.379 . S
C1350 H1334 0.931 1_655 S
C1350 C1344 1.383 . S
C1350 C1349 1.379 . S
H1351 C1345 0.959 . S
H1352 C1345 0.961 . S
H1353 C1345 0.960 . S
H1354 C1346 0.930 . S
H1355 C1347 0.929 . S
H1356 C1364 0.929 . S
H1357 C1366 0.930 . S
H1358 C1368 0.930 . S
H1359 C1371 0.929 . S
H1360 C1374 0.930 . S
H1361 C1376 0.960 . S
H1362 C1376 0.960 . S
H1363 C1376 0.960 . S
C1364 H1356 0.929 . S
C1364 C1365 1.377 . S
C1364 C1366 1.384 . S
C1365 C1364 1.377 . S
C1365 C1371 1.390 . S
C1366 H1357 0.930 . S
C1366 C1364 1.384 . S
C1366 C1367 1.372 . S
C1367 C1366 1.372 . S
C1367 C1368 1.400 . S
C1367 C1372 1.490 . S
C1368 H1358 0.930 . S
C1368 C1367 1.400 . S
C1368 C1371 1.386 . S
H1369 C1385 0.930 . S
H1370 C1386 0.931 . S
C1371 H1359 0.929 . S
C1371 C1365 1.390 . S
C1371 C1368 1.386 . S
C1372 C1367 1.490 . S
C1372 C1374 1.395 . S
C1372 C1375 1.403 1_556 S
H1373 C1379 0.930 . S
C1374 H1360 0.930 . S
C1374 C1372 1.395 . S
C1374 C1377 1.403 . S
C1375 C1372 1.403 1_554 S
C1375 C1376 1.524 . S
C1375 C1379 1.400 . S
C1376 H1361 0.960 . S
C1376 H1362 0.960 . S
C1376 H1363 0.960 . S
C1376 C1375 1.524 . S
C1377 C1374 1.403 . S
C1377 C1378 1.392 1_556 S
C1377 C1381 1.495 . S
C1378 C1377 1.392 1_554 S
C1378 C1379 1.385 . S
C1378 C1380 1.478 . S
C1379 H1373 0.930 . S
C1379 C1375 1.400 . S
C1379 C1378 1.385 . S
C1380 C1378 1.478 . S
C1380 C1382 1.381 . S
C1380 C1386 1.383 . S
C1381 C1377 1.495 . S
C1381 H1387 0.959 . S
C1381 H1388 0.961 . S
C1381 H1389 0.960 . S
C1382 C1380 1.381 . S
C1382 C1383 1.394 . S
C1382 H1390 0.930 . S
C1383 C1382 1.394 . S
C1383 C1384 1.383 . S
C1383 H1391 0.929 . S
C1384 C1383 1.383 . S
C1384 C1385 1.377 . S
C1385 H1369 0.930 . S
C1385 C1384 1.377 . S
C1385 C1386 1.379 . S
C1386 H1370 0.931 . S
C1386 C1380 1.383 . S
C1386 C1385 1.379 . S
H1387 C1381 0.959 . S
H1388 C1381 0.961 . S
H1389 C1381 0.960 . S
H1390 C1382 0.930 . S
H1391 C1383 0.929 . S
H1392 C1400 0.929 . S
H1393 C1402 0.930 . S
H1394 C1404 0.930 . S
H1395 C1407 0.929 . S
H1396 C1410 0.930 . S
H1397 C1412 0.960 . S
H1398 C1412 0.960 . S
H1399 C1412 0.960 . S
C1400 H1392 0.929 . S
C1400 C1401 1.377 . S
C1400 C1402 1.384 . S
C1401 C1400 1.377 . S
C1401 C1407 1.390 . S
C1402 H1393 0.930 . S
C1402 C1400 1.384 . S
C1402 C1403 1.372 . S
C1403 C1402 1.372 . S
C1403 C1404 1.400 . S
C1403 C1408 1.490 . S
C1404 H1394 0.930 . S
C1404 C1403 1.400 . S
C1404 C1407 1.386 . S
H1405 C1421 0.930 . S
H1406 C1422 0.931 . S
C1407 H1395 0.929 . S
C1407 C1401 1.390 . S
C1407 C1404 1.386 . S
C1408 C1403 1.490 . S
C1408 C1410 1.395 1_545 S
C1408 C1411 1.403 . S
H1409 C1415 0.930 . S
C1410 H1396 0.930 . S
C1410 C1408 1.395 1_565 S
C1410 C1413 1.403 . S
C1411 C1408 1.403 . S
C1411 C1412 1.524 . S
C1411 C1415 1.400 . S
C1412 H1397 0.960 . S
C1412 H1398 0.960 . S
C1412 H1399 0.960 . S
C1412 C1411 1.524 . S
C1413 C1410 1.403 . S
C1413 C1414 1.392 . S
C1413 C1417 1.495 . S
C1414 C1413 1.392 . S
C1414 C1415 1.385 1_565 S
C1414 C1416 1.478 . S
C1415 H1409 0.930 . S
C1415 C1411 1.400 . S
C1415 C1414 1.385 1_545 S
C1416 C1414 1.478 . S
C1416 C1418 1.381 . S
C1416 C1422 1.383 . S
C1417 C1413 1.495 . S
C1417 H1423 0.959 . S
C1417 H1424 0.961 . S
C1417 H1425 0.960 . S
C1418 C1416 1.381 . S
C1418 C1419 1.394 . S
C1418 H1426 0.930 . S
C1419 C1418 1.394 . S
C1419 C1420 1.383 . S
C1419 H1427 0.929 . S
C1420 C1419 1.383 . S
C1420 C1421 1.377 . S
C1421 H1405 0.930 . S
C1421 C1420 1.377 . S
C1421 C1422 1.379 . S
C1422 H1406 0.931 . S
C1422 C1416 1.383 . S
C1422 C1421 1.379 . S
H1423 C1417 0.959 . S
H1424 C1417 0.961 . S
H1425 C1417 0.960 . S
H1426 C1418 0.930 . S
H1427 C1419 0.929 . S
H1428 C1436 0.929 . S
H1429 C1438 0.930 . S
H1430 C1440 0.930 . S
H1431 C1443 0.929 . S
H1432 C1446 0.930 . S
H1433 C1448 0.966 . S
H1434 C1448 0.946 1_565 S
H1435 C1448 0.960 . S
C1436 H1428 0.929 . S
C1436 C1437 1.377 . S
C1436 C1438 1.384 . S
C1437 C1436 1.377 . S
C1437 C1443 1.390 . S
C1438 H1429 0.930 . S
C1438 C1436 1.384 . S
C1438 C1439 1.372 . S
C1439 C1438 1.372 . S
C1439 C1440 1.400 . S
C1439 C1444 1.490 . S
C1440 H1430 0.930 . S
C1440 C1439 1.400 . S
C1440 C1443 1.386 . S
H1441 C1457 0.930 . S
H1442 C1458 0.931 . S
C1443 H1431 0.929 . S
C1443 C1437 1.390 . S
C1443 C1440 1.386 . S
C1444 C1439 1.490 . S
C1444 C1446 1.395 . S
C1444 C1447 1.403 . S
H1445 C1451 0.930 . S
C1446 H1432 0.930 . S
C1446 C1444 1.395 . S
C1446 C1449 1.403 1_545 S
C1447 C1444 1.403 . S
C1447 C1448 1.524 . S
C1447 C1451 1.400 1_545 S
C1448 H1433 0.966 . S
C1448 H1434 0.946 1_545 S
C1448 H1435 0.960 . S
C1448 C1447 1.524 . S
C1449 C1446 1.403 1_565 S
C1449 C1450 1.392 . S
C1449 C1453 1.495 . S
C1450 C1449 1.392 . S
C1450 C1451 1.385 . S
C1450 C1452 1.478 . S
C1451 H1445 0.930 . S
C1451 C1447 1.400 1_565 S
C1451 C1450 1.385 . S
C1452 C1450 1.478 . S
C1452 C1454 1.381 . S
C1452 C1458 1.383 . S
C1453 C1449 1.495 . S
C1453 H1459 0.959 . S
C1453 H1460 0.961 . S
C1453 H1461 0.960 . S
C1454 C1452 1.381 . S
C1454 C1455 1.394 . S
C1454 H1462 0.930 . S
C1455 C1454 1.394 . S
C1455 C1456 1.383 . S
C1455 H1463 0.929 . S
C1456 C1455 1.383 . S
C1456 C1457 1.377 . S
C1457 H1441 0.930 . S
C1457 C1456 1.377 . S
C1457 C1458 1.379 . S
C1458 H1442 0.931 . S
C1458 C1452 1.383 . S
C1458 C1457 1.379 . S
H1459 C1453 0.959 . S
H1460 C1453 0.961 . S
H1461 C1453 0.960 . S
H1462 C1454 0.930 . S
H1463 C1455 0.929 . S
H1464 C1472 0.929 . S
H1465 C1474 0.930 . S
H1466 C1476 0.930 . S
H1467 C1479 0.929 . S
H1468 C1482 0.930 . S
H1469 C1484 0.960 . S
H1470 C1484 0.960 . S
H1471 C1484 0.960 . S
C1472 H1464 0.929 . S
C1472 C1473 1.377 . S
C1472 C1474 1.384 . S
C1473 C1472 1.377 . S
C1473 C1479 1.390 . S
C1474 H1465 0.930 . S
C1474 C1472 1.384 . S
C1474 C1475 1.372 . S
C1475 C1474 1.372 . S
C1475 C1476 1.400 . S
C1475 C1480 1.490 . S
C1476 H1466 0.930 . S
C1476 C1475 1.400 . S
C1476 C1479 1.386 . S
H1477 C1493 0.930 . S
H1478 C1494 0.931 . S
C1479 H1467 0.929 . S
C1479 C1473 1.390 . S
C1479 C1476 1.386 . S
C1480 C1475 1.490 . S
C1480 C1482 1.395 1_545 S
C1480 C1483 1.403 . S
H1481 C1487 0.930 . S
C1482 H1468 0.930 . S
C1482 C1480 1.395 1_565 S
C1482 C1485 1.403 . S
C1483 C1480 1.403 . S
C1483 C1484 1.524 . S
C1483 C1487 1.400 . S
C1484 H1469 0.960 . S
C1484 H1470 0.960 . S
C1484 H1471 0.960 . S
C1484 C1483 1.524 . S
C1485 C1482 1.403 . S
C1485 C1486 1.392 . S
C1485 C1489 1.495 . S
C1486 C1485 1.392 . S
C1486 C1487 1.385 1_565 S
C1486 C1488 1.478 . S
C1487 H1481 0.930 . S
C1487 C1483 1.400 . S
C1487 C1486 1.385 1_545 S
C1488 C1486 1.478 . S
C1488 C1490 1.381 . S
C1488 C1494 1.383 . S
C1489 C1485 1.495 . S
C1489 H1495 0.959 . S
C1489 H1496 0.961 . S
C1489 H1497 0.960 . S
C1490 C1488 1.381 . S
C1490 C1491 1.394 . S
C1490 H1498 0.930 . S
C1491 C1490 1.394 . S
C1491 C1492 1.383 . S
C1491 H1499 0.929 . S
C1492 C1491 1.383 . S
C1492 C1493 1.377 . S
C1493 H1477 0.930 . S
C1493 C1492 1.377 . S
C1493 C1494 1.379 . S
C1494 H1478 0.931 . S
C1494 C1488 1.383 . S
C1494 C1493 1.379 . S
H1495 C1489 0.959 . S
H1496 C1489 0.961 . S
H1497 C1489 0.960 . S
H1498 C1490 0.930 . S
H1499 C1491 0.929 . S
H1500 C1508 0.929 . S
H1501 C1510 0.930 . S
H1502 C1512 0.930 . S
H1503 C1515 0.929 . S
H1504 C1518 0.930 . S
H1505 C1520 0.960 . S
H1506 C1520 0.960 . S
H1507 C1520 0.960 . S
C1508 H1500 0.929 . S
C1508 C1509 1.377 . S
C1508 C1510 1.384 . S
C1509 C1508 1.377 . S
C1509 C1515 1.390 . S
C1510 H1501 0.930 . S
C1510 C1508 1.384 . S
C1510 C1511 1.372 . S
C1511 C1510 1.372 . S
C1511 C1512 1.400 . S
C1511 C1516 1.490 . S
C1512 H1502 0.930 . S
C1512 C1511 1.400 . S
C1512 C1515 1.386 . S
H1513 C1529 0.930 . S
H1514 C1530 0.931 . S
C1515 H1503 0.929 . S
C1515 C1509 1.390 . S
C1515 C1512 1.386 . S
C1516 C1511 1.490 . S
C1516 C1518 1.395 1_545 S
C1516 C1519 1.403 . S
H1517 C1523 0.930 . S
C1518 H1504 0.930 . S
C1518 C1516 1.395 1_565 S
C1518 C1521 1.403 . S
C1519 C1516 1.403 . S
C1519 C1520 1.524 . S
C1519 C1523 1.400 . S
C1520 H1505 0.960 . S
C1520 H1506 0.960 . S
C1520 H1507 0.960 . S
C1520 C1519 1.524 . S
C1521 C1518 1.403 . S
C1521 C1522 1.392 . S
C1521 C1525 1.495 . S
C1522 C1521 1.392 . S
C1522 C1523 1.385 1_565 S
C1522 C1524 1.478 . S
C1523 H1517 0.930 . S
C1523 C1519 1.400 . S
C1523 C1522 1.385 1_545 S
C1524 C1522 1.478 . S
C1524 C1526 1.381 . S
C1524 C1530 1.383 . S
C1525 C1521 1.495 . S
C1525 H1531 0.959 . S
C1525 H1532 0.961 . S
C1525 H1533 0.960 . S
C1526 C1524 1.381 . S
C1526 C1527 1.394 . S
C1526 H1534 0.930 . S
C1527 C1526 1.394 . S
C1527 C1528 1.383 . S
C1527 H1535 0.929 . S
C1528 C1527 1.383 . S
C1528 C1529 1.377 . S
C1529 H1513 0.930 . S
C1529 C1528 1.377 . S
C1529 C1530 1.379 . S
C1530 H1514 0.931 . S
C1530 C1524 1.383 . S
C1530 C1529 1.379 . S
H1531 C1525 0.959 . S
H1532 C1525 0.961 . S
H1533 C1525 0.960 . S
H1534 C1526 0.930 . S
H1535 C1527 0.929 . S
H1536 C1544 0.929 . S
H1537 C1546 0.930 . S
H1538 C1548 0.930 . S
H1539 C1551 0.929 . S
H1540 C1554 0.930 . S
H1541 C1556 0.960 . S
H1542 C1556 0.960 . S
H1543 C1556 0.960 . S
C1544 H1536 0.929 . S
C1544 C1545 1.377 . S
C1544 C1546 1.384 . S
C1545 C1544 1.377 . S
C1545 C1551 1.390 . S
C1546 H1537 0.930 . S
C1546 C1544 1.384 . S
C1546 C1547 1.372 . S
C1547 C1546 1.372 . S
C1547 C1548 1.400 . S
C1547 C1552 1.490 . S
C1548 H1538 0.930 . S
C1548 C1547 1.400 . S
C1548 C1551 1.386 . S
H1549 C1565 0.930 . S
H1550 C1566 0.931 . S
C1551 H1539 0.929 . S
C1551 C1545 1.390 . S
C1551 C1548 1.386 . S
C1552 C1547 1.490 . S
C1552 C1554 1.395 . S
C1552 C1555 1.403 . S
H1553 C1559 0.930 . S
C1554 H1540 0.930 . S
C1554 C1552 1.395 . S
C1554 C1557 1.403 . S
C1555 C1552 1.403 . S
C1555 C1556 1.524 . S
C1555 C1559 1.400 . S
C1556 H1541 0.960 . S
C1556 H1542 0.960 . S
C1556 H1543 0.960 . S
C1556 C1555 1.524 . S
C1557 C1554 1.403 . S
C1557 C1558 1.392 . S
C1557 C1561 1.495 . S
C1558 C1557 1.392 . S
C1558 C1559 1.385 . S
C1558 C1560 1.478 . S
C1559 H1553 0.930 . S
C1559 C1555 1.400 . S
C1559 C1558 1.385 . S
C1560 C1558 1.478 . S
C1560 C1562 1.381 . S
C1560 C1566 1.383 . S
C1561 C1557 1.495 . S
C1561 H1567 0.959 . S
C1561 H1568 0.961 . S
C1561 H1569 0.960 . S
C1562 C1560 1.381 . S
C1562 C1563 1.394 . S
C1562 H1570 0.930 . S
C1563 C1562 1.394 . S
C1563 C1564 1.383 . S
C1563 H1571 0.929 . S
C1564 C1563 1.383 . S
C1564 C1565 1.377 . S
C1565 H1549 0.930 . S
C1565 C1564 1.377 . S
C1565 C1566 1.379 . S
C1566 H1550 0.931 . S
C1566 C1560 1.383 . S
C1566 C1565 1.379 . S
H1567 C1561 0.959 . S
H1568 C1561 0.961 . S
H1569 C1561 0.960 . S
H1570 C1562 0.930 . S
H1571 C1563 0.929 . S
H1572 C1580 0.929 . S
H1573 C1582 0.930 . S
H1574 C1584 0.930 . S
H1575 C1587 0.929 . S
H1576 C1590 0.930 . S
H1577 C1592 0.960 . S
H1578 C1592 0.960 . S
H1579 C1592 0.960 . S
C1580 H1572 0.929 . S
C1580 C1581 1.377 . S
C1580 C1582 1.384 . S
C1581 C1580 1.377 . S
C1581 C1587 1.390 . S
C1582 H1573 0.930 . S
C1582 C1580 1.384 . S
C1582 C1583 1.372 . S
C1583 C1582 1.372 . S
C1583 C1584 1.400 . S
C1583 C1588 1.490 . S
C1584 H1574 0.930 . S
C1584 C1583 1.400 . S
C1584 C1587 1.386 . S
H1585 C1601 0.930 . S
H1586 C1602 0.931 . S
C1587 H1575 0.929 . S
C1587 C1581 1.390 . S
C1587 C1584 1.386 . S
C1588 C1583 1.490 . S
C1588 C1590 1.395 . S
C1588 C1591 1.403 . S
H1589 C1595 0.930 . S
C1590 H1576 0.930 . S
C1590 C1588 1.395 . S
C1590 C1593 1.403 . S
C1591 C1588 1.403 . S
C1591 C1592 1.524 . S
C1591 C1595 1.400 . S
C1592 H1577 0.960 . S
C1592 H1578 0.960 . S
C1592 H1579 0.960 . S
C1592 C1591 1.524 . S
C1593 C1590 1.403 . S
C1593 C1594 1.392 . S
C1593 C1597 1.495 . S
C1594 C1593 1.392 . S
C1594 C1595 1.385 . S
C1594 C1596 1.478 . S
C1595 H1589 0.930 . S
C1595 C1591 1.400 . S
C1595 C1594 1.385 . S
C1596 C1594 1.478 . S
C1596 C1598 1.381 . S
C1596 C1602 1.383 . S
C1597 C1593 1.495 . S
C1597 H1603 0.959 . S
C1597 H1604 0.961 . S
C1597 H1605 0.960 . S
C1598 C1596 1.381 . S
C1598 C1599 1.394 . S
C1598 H1606 0.930 . S
C1599 C1598 1.394 . S
C1599 C1600 1.383 . S
C1599 H1607 0.929 . S
C1600 C1599 1.383 . S
C1600 C1601 1.377 . S
C1601 H1585 0.930 . S
C1601 C1600 1.377 . S
C1601 C1602 1.379 . S
C1602 H1586 0.931 . S
C1602 C1596 1.383 . S
C1602 C1601 1.379 . S
H1603 C1597 0.959 . S
H1604 C1597 0.961 . S
H1605 C1597 0.960 . S
H1606 C1598 0.930 . S
H1607 C1599 0.929 . S
H1608 C1616 0.929 . S
H1609 C1618 0.930 . S
H1610 C1620 0.930 . S
H1611 C1623 0.929 . S
H1612 C1626 0.930 . S
H1613 C1628 0.960 . S
H1614 C1628 0.960 . S
H1615 C1628 0.960 . S
C1616 H1608 0.929 . S
C1616 C1617 1.377 . S
C1616 C1618 1.384 . S
C1617 C1616 1.377 . S
C1617 C1623 1.390 . S
C1618 H1609 0.930 . S
C1618 C1616 1.384 . S
C1618 C1619 1.372 . S
C1619 C1618 1.372 . S
C1619 C1620 1.400 . S
C1619 C1624 1.490 . S
C1620 H1610 0.930 . S
C1620 C1619 1.400 . S
C1620 C1623 1.386 . S
H1621 C1637 0.930 . S
H1622 C1638 0.931 . S
C1623 H1611 0.929 . S
C1623 C1617 1.390 . S
C1623 C1620 1.386 . S
C1624 C1619 1.490 . S
C1624 C1626 1.395 . S
C1624 C1627 1.403 . S
H1625 C1631 0.930 . S
C1626 H1612 0.930 . S
C1626 C1624 1.395 . S
C1626 C1629 1.403 . S
C1627 C1624 1.403 . S
C1627 C1628 1.524 . S
C1627 C1631 1.400 . S
C1628 H1613 0.960 . S
C1628 H1614 0.960 . S
C1628 H1615 0.960 . S
C1628 C1627 1.524 . S
C1629 C1626 1.403 . S
C1629 C1630 1.392 . S
C1629 C1633 1.495 . S
C1630 C1629 1.392 . S
C1630 C1631 1.385 . S
C1630 C1632 1.478 . S
C1631 H1625 0.930 . S
C1631 C1627 1.400 . S
C1631 C1630 1.385 . S
C1632 C1630 1.478 . S
C1632 C1634 1.381 . S
C1632 C1638 1.383 . S
C1633 C1629 1.495 . S
C1633 H1639 0.959 . S
C1633 H1640 0.961 . S
C1633 H1641 0.960 . S
C1634 C1632 1.381 . S
C1634 C1635 1.394 . S
C1634 H1642 0.930 . S
C1635 C1634 1.394 . S
C1635 C1636 1.383 . S
C1635 H1643 0.929 . S
C1636 C1635 1.383 . S
C1636 C1637 1.377 . S
C1637 H1621 0.930 . S
C1637 C1636 1.377 . S
C1637 C1638 1.379 . S
C1638 H1622 0.931 . S
C1638 C1632 1.383 . S
C1638 C1637 1.379 . S
H1639 C1633 0.959 . S
H1640 C1633 0.961 . S
H1641 C1633 0.960 . S
H1642 C1634 0.930 . S
H1643 C1635 0.929 . S
H1644 C1652 0.929 . S
H1645 C1654 0.930 . S
H1646 C1656 0.930 . S
H1647 C1659 0.929 . S
H1648 C1662 0.930 . S
H1649 C1664 0.960 . S
H1650 C1664 0.960 . S
H1651 C1664 0.960 . S
C1652 H1644 0.929 . S
C1652 C1653 1.377 . S
C1652 C1654 1.384 . S
C1653 C1652 1.377 . S
C1653 C1659 1.390 . S
C1654 H1645 0.930 . S
C1654 C1652 1.384 . S
C1654 C1655 1.372 . S
C1655 C1654 1.372 . S
C1655 C1656 1.400 . S
C1655 C1660 1.490 . S
C1656 H1646 0.930 . S
C1656 C1655 1.400 . S
C1656 C1659 1.386 . S
H1657 C1673 0.930 . S
H1658 C1674 0.931 . S
C1659 H1647 0.929 . S
C1659 C1653 1.390 . S
C1659 C1656 1.386 . S
C1660 C1655 1.490 . S
C1660 C1662 1.395 . S
C1660 C1663 1.403 . S
H1661 C1667 0.930 . S
C1662 H1648 0.930 . S
C1662 C1660 1.395 . S
C1662 C1665 1.403 . S
C1663 C1660 1.403 . S
C1663 C1664 1.524 . S
C1663 C1667 1.400 . S
C1664 H1649 0.960 . S
C1664 H1650 0.960 . S
C1664 H1651 0.960 . S
C1664 C1663 1.524 . S
C1665 C1662 1.403 . S
C1665 C1666 1.392 . S
C1665 C1669 1.495 . S
C1666 C1665 1.392 . S
C1666 C1667 1.385 . S
C1666 C1668 1.478 . S
C1667 H1661 0.930 . S
C1667 C1663 1.400 . S
C1667 C1666 1.385 . S
C1668 C1666 1.478 . S
C1668 C1670 1.381 . S
C1668 C1674 1.383 . S
C1669 C1665 1.495 . S
C1669 H1675 0.959 . S
C1669 H1676 0.961 . S
C1669 H1677 0.960 . S
C1670 C1668 1.381 . S
C1670 C1671 1.394 . S
C1670 H1678 0.930 . S
C1671 C1670 1.394 . S
C1671 C1672 1.383 . S
C1671 H1679 0.929 . S
C1672 C1671 1.383 . S
C1672 C1673 1.377 . S
C1673 H1657 0.930 . S
C1673 C1672 1.377 . S
C1673 C1674 1.379 . S
C1674 H1658 0.931 . S
C1674 C1668 1.383 . S
C1674 C1673 1.379 . S
H1675 C1669 0.959 . S
H1676 C1669 0.961 . S
H1677 C1669 0.960 . S
H1678 C1670 0.930 . S
H1679 C1671 0.929 . S
H1680 C1688 0.929 . S
H1681 C1690 0.930 . S
H1682 C1692 0.930 . S
H1683 C1695 0.929 . S
H1684 C1698 0.930 . S
H1685 C1700 0.960 . S
H1686 C1700 0.960 . S
H1687 C1700 0.960 . S
C1688 H1680 0.929 . S
C1688 C1689 1.377 . S
C1688 C1690 1.384 . S
C1689 C1688 1.377 . S
C1689 C1695 1.390 . S
C1690 H1681 0.930 . S
C1690 C1688 1.384 . S
C1690 C1691 1.372 . S
C1691 C1690 1.372 . S
C1691 C1692 1.400 . S
C1691 C1696 1.490 . S
C1692 H1682 0.930 . S
C1692 C1691 1.400 . S
C1692 C1695 1.386 . S
H1693 C1709 0.930 . S
H1694 C1710 0.931 . S
C1695 H1683 0.929 . S
C1695 C1689 1.390 . S
C1695 C1692 1.386 . S
C1696 C1691 1.490 . S
C1696 C1698 1.395 1_455 S
C1696 C1699 1.403 . S
H1697 C1703 0.930 . S
C1698 H1684 0.930 . S
C1698 C1696 1.395 1_655 S
C1698 C1701 1.403 . S
C1699 C1696 1.403 . S
C1699 C1700 1.524 . S
C1699 C1703 1.400 1_455 S
C1700 H1685 0.960 . S
C1700 H1686 0.960 . S
C1700 H1687 0.960 . S
C1700 C1699 1.524 . S
C1701 C1698 1.403 . S
C1701 C1702 1.392 . S
C1701 C1705 1.495 . S
C1702 C1701 1.392 . S
C1702 C1703 1.385 . S
C1702 C1704 1.478 . S
C1703 H1697 0.930 . S
C1703 C1699 1.400 1_655 S
C1703 C1702 1.385 . S
C1704 C1702 1.478 . S
C1704 C1706 1.381 . S
C1704 C1710 1.383 . S
C1705 C1701 1.495 . S
C1705 H1711 0.959 . S
C1705 H1712 0.961 . S
C1705 H1713 0.960 . S
C1706 C1704 1.381 . S
C1706 C1707 1.394 . S
C1706 H1714 0.930 . S
C1707 C1706 1.394 . S
C1707 C1708 1.383 . S
C1707 H1715 0.929 . S
C1708 C1707 1.383 . S
C1708 C1709 1.377 . S
C1709 H1693 0.930 . S
C1709 C1708 1.377 . S
C1709 C1710 1.379 . S
C1710 H1694 0.931 . S
C1710 C1704 1.383 . S
C1710 C1709 1.379 . S
H1711 C1705 0.959 . S
H1712 C1705 0.961 . S
H1713 C1705 0.960 . S
H1714 C1706 0.930 . S
H1715 C1707 0.929 . S
H1716 C1724 0.929 . S
H1717 C1726 0.930 . S
H1718 C1728 0.930 . S
H1719 C1731 0.929 . S
H1720 C1734 0.930 . S
H1721 C1736 0.960 . S
H1722 C1736 0.960 . S
H1723 C1736 0.960 . S
C1724 H1716 0.929 . S
C1724 C1725 1.377 . S
C1724 C1726 1.384 . S
C1725 C1724 1.377 . S
C1725 C1731 1.390 . S
C1726 H1717 0.930 . S
C1726 C1724 1.384 . S
C1726 C1727 1.372 . S
C1727 C1726 1.372 . S
C1727 C1728 1.400 . S
C1727 C1732 1.490 . S
C1728 H1718 0.930 . S
C1728 C1727 1.400 . S
C1728 C1731 1.386 . S
H1729 C1745 0.930 . S
H1730 C1746 0.931 . S
C1731 H1719 0.929 . S
C1731 C1725 1.390 . S
C1731 C1728 1.386 . S
C1732 C1727 1.490 . S
C1732 C1734 1.395 . S
C1732 C1735 1.403 . S
H1733 C1739 0.930 . S
C1734 H1720 0.930 . S
C1734 C1732 1.395 . S
C1734 C1737 1.403 . S
C1735 C1732 1.403 . S
C1735 C1736 1.524 . S
C1735 C1739 1.400 . S
C1736 H1721 0.960 . S
C1736 H1722 0.960 . S
C1736 H1723 0.960 . S
C1736 C1735 1.524 . S
C1737 C1734 1.403 . S
C1737 C1738 1.392 . S
C1737 C1741 1.495 . S
C1738 C1737 1.392 . S
C1738 C1739 1.385 . S
C1738 C1740 1.478 . S
C1739 H1733 0.930 . S
C1739 C1735 1.400 . S
C1739 C1738 1.385 . S
C1740 C1738 1.478 . S
C1740 C1742 1.381 . S
C1740 C1746 1.383 . S
C1741 C1737 1.495 . S
C1741 H1747 0.959 . S
C1741 H1748 0.961 . S
C1741 H1749 0.960 . S
C1742 C1740 1.381 . S
C1742 C1743 1.394 . S
C1742 H1750 0.930 . S
C1743 C1742 1.394 . S
C1743 C1744 1.383 . S
C1743 H1751 0.929 . S
C1744 C1743 1.383 . S
C1744 C1745 1.377 . S
C1745 H1729 0.930 . S
C1745 C1744 1.377 . S
C1745 C1746 1.379 . S
C1746 H1730 0.931 . S
C1746 C1740 1.383 . S
C1746 C1745 1.379 . S
H1747 C1741 0.959 . S
H1748 C1741 0.961 . S
H1749 C1741 0.960 . S
H1750 C1742 0.930 . S
H1751 C1743 0.929 . S
H1752 C1760 0.929 . S
H1753 C1762 0.930 . S
H1754 C1764 0.930 . S
H1755 C1767 0.929 . S
H1756 C1770 0.930 . S
H1757 C1772 0.960 . S
H1758 C1772 0.960 . S
H1759 C1772 0.960 . S
C1760 H1752 0.929 . S
C1760 C1761 1.377 . S
C1760 C1762 1.384 . S
C1761 C1760 1.377 . S
C1761 C1767 1.390 . S
C1762 H1753 0.930 . S
C1762 C1760 1.384 . S
C1762 C1763 1.372 . S
C1763 C1762 1.372 . S
C1763 C1764 1.400 . S
C1763 C1768 1.490 . S
C1764 H1754 0.930 . S
C1764 C1763 1.400 . S
C1764 C1767 1.386 . S
H1765 C1781 0.930 . S
H1766 C1782 0.931 . S
C1767 H1755 0.929 . S
C1767 C1761 1.390 . S
C1767 C1764 1.386 . S
C1768 C1763 1.490 . S
C1768 C1770 1.395 . S
C1768 C1771 1.403 . S
H1769 C1775 0.930 . S
C1770 H1756 0.930 . S
C1770 C1768 1.395 . S
C1770 C1773 1.403 . S
C1771 C1768 1.403 . S
C1771 C1772 1.524 . S
C1771 C1775 1.400 . S
C1772 H1757 0.960 . S
C1772 H1758 0.960 . S
C1772 H1759 0.960 . S
C1772 C1771 1.524 . S
C1773 C1770 1.403 . S
C1773 C1774 1.392 . S
C1773 C1777 1.495 . S
C1774 C1773 1.392 . S
C1774 C1775 1.385 . S
C1774 C1776 1.478 . S
C1775 H1769 0.930 . S
C1775 C1771 1.400 . S
C1775 C1774 1.385 . S
C1776 C1774 1.478 . S
C1776 C1778 1.381 . S
C1776 C1782 1.383 . S
C1777 C1773 1.495 . S
C1777 H1783 0.959 . S
C1777 H1784 0.961 . S
C1777 H1785 0.960 . S
C1778 C1776 1.381 . S
C1778 C1779 1.394 . S
C1778 H1786 0.930 . S
C1779 C1778 1.394 . S
C1779 C1780 1.383 . S
C1779 H1787 0.929 . S
C1780 C1779 1.383 . S
C1780 C1781 1.377 . S
C1781 H1765 0.930 . S
C1781 C1780 1.377 . S
C1781 C1782 1.379 . S
C1782 H1766 0.931 . S
C1782 C1776 1.383 . S
C1782 C1781 1.379 . S
H1783 C1777 0.959 . S
H1784 C1777 0.961 . S
H1785 C1777 0.960 . S
H1786 C1778 0.930 . S
H1787 C1779 0.929 . S
H1788 C1796 0.929 . S
H1789 C1798 0.930 . S
H1790 C1800 0.930 . S
H1791 C1803 0.929 . S
H1792 C1806 0.930 . S
H1793 C1808 0.960 . S
H1794 C1808 0.960 . S
H1795 C1808 0.960 . S
C1796 H1788 0.929 . S
C1796 C1797 1.377 . S
C1796 C1798 1.384 . S
C1797 C1796 1.377 . S
C1797 C1803 1.390 . S
C1798 H1789 0.930 . S
C1798 C1796 1.384 . S
C1798 C1799 1.372 . S
C1799 C1798 1.372 . S
C1799 C1800 1.400 . S
C1799 C1804 1.490 . S
C1800 H1790 0.930 . S
C1800 C1799 1.400 . S
C1800 C1803 1.386 . S
H1801 C1817 0.930 . S
H1802 C1818 0.931 . S
C1803 H1791 0.929 . S
C1803 C1797 1.390 . S
C1803 C1800 1.386 . S
C1804 C1799 1.490 . S
C1804 C1806 1.395 1_655 S
C1804 C1807 1.403 . S
H1805 C1811 0.936 . S
C1806 H1792 0.930 . S
C1806 C1804 1.395 1_455 S
C1806 C1809 1.403 . S
C1807 C1804 1.403 . S
C1807 C1808 1.524 . S
C1807 C1811 1.433 . S
C1808 H1793 0.960 . S
C1808 H1794 0.960 . S
C1808 H1795 0.960 . S
C1808 C1807 1.524 . S
C1809 C1806 1.403 . S
C1809 C1810 1.392 . S
C1809 C1813 1.495 . S
C1810 C1809 1.392 . S
C1810 C1811 1.347 1_455 S
C1810 C1812 1.478 . S
C1811 H1805 0.936 . S
C1811 C1807 1.433 . S
C1811 C1810 1.347 1_655 S
C1812 C1810 1.478 . S
C1812 C1814 1.381 . S
C1812 C1818 1.383 . S
C1813 C1809 1.495 . S
C1813 H1819 0.959 . S
C1813 H1820 0.961 . S
C1813 H1821 0.960 . S
C1814 C1812 1.381 . S
C1814 C1815 1.394 . S
C1814 H1822 0.930 . S
C1815 C1814 1.394 . S
C1815 C1816 1.383 . S
C1815 H1823 0.929 . S
C1816 C1815 1.383 . S
C1816 C1817 1.377 . S
C1817 H1801 0.930 . S
C1817 C1816 1.377 . S
C1817 C1818 1.379 . S
C1818 H1802 0.931 . S
C1818 C1812 1.383 . S
C1818 C1817 1.379 . S
H1819 C1813 0.959 . S
H1820 C1813 0.961 . S
H1821 C1813 0.960 . S
H1822 C1814 0.930 . S
H1823 C1815 0.929 . S
H1824 C1832 0.929 . S
H1825 C1834 0.930 . S
H1826 C1836 0.930 . S
H1827 C1839 0.929 . S
H1828 C1842 0.930 . S
H1829 C1844 0.960 . S
H1830 C1844 0.960 . S
H1831 C1844 0.960 . S
C1832 H1824 0.929 . S
C1832 C1833 1.377 . S
C1832 C1834 1.384 . S
C1833 C1832 1.377 . S
C1833 C1839 1.390 . S
C1834 H1825 0.930 . S
C1834 C1832 1.384 . S
C1834 C1835 1.372 . S
C1835 C1834 1.372 . S
C1835 C1836 1.400 . S
C1835 C1840 1.490 . S
C1836 H1826 0.930 . S
C1836 C1835 1.400 . S
C1836 C1839 1.386 . S
H1837 C1853 0.930 . S
H1838 C1854 0.931 . S
C1839 H1827 0.929 . S
C1839 C1833 1.390 . S
C1839 C1836 1.386 . S
C1840 C1835 1.490 . S
C1840 C1842 1.395 . S
C1840 C1843 1.403 1_655 S
H1841 C1847 0.930 . S
C1842 H1828 0.930 . S
C1842 C1840 1.395 . S
C1842 C1845 1.403 . S
C1843 C1840 1.403 1_455 S
C1843 C1844 1.524 . S
C1843 C1847 1.400 . S
C1844 H1829 0.960 . S
C1844 H1830 0.960 . S
C1844 H1831 0.960 . S
C1844 C1843 1.524 . S
C1845 C1842 1.403 . S
C1845 C1846 1.392 1_655 S
C1845 C1849 1.495 . S
C1846 C1845 1.392 1_455 S
C1846 C1847 1.385 . S
C1846 C1848 1.478 . S
C1847 H1841 0.930 . S
C1847 C1843 1.400 . S
C1847 C1846 1.385 . S
C1848 C1846 1.478 . S
C1848 C1850 1.381 . S
C1848 C1854 1.383 . S
C1849 C1845 1.495 . S
C1849 H1855 0.959 . S
C1849 H1856 0.961 . S
C1849 H1857 0.960 . S
C1850 C1848 1.381 . S
C1850 C1851 1.394 . S
C1850 H1858 0.930 . S
C1851 C1850 1.394 . S
C1851 C1852 1.383 . S
C1851 H1859 0.929 . S
C1852 C1851 1.383 . S
C1852 C1853 1.377 . S
C1853 H1837 0.930 . S
C1853 C1852 1.377 . S
C1853 C1854 1.379 . S
C1854 H1838 0.931 . S
C1854 C1848 1.383 . S
C1854 C1853 1.379 . S
H1855 C1849 0.959 . S
H1856 C1849 0.961 . S
H1857 C1849 0.960 . S
H1858 C1850 0.930 . S
H1859 C1851 0.929 . S
H1860 C1868 0.929 . S
H1861 C1870 0.930 . S
H1862 C1872 0.930 . S
H1863 C1875 0.929 . S
H1864 C1878 0.930 . S
H1865 C1880 0.960 . S
H1866 C1880 0.960 . S
H1867 C1880 0.960 . S
C1868 H1860 0.929 . S
C1868 C1869 1.377 . S
C1868 C1870 1.384 . S
C1869 C1868 1.377 . S
C1869 C1875 1.390 . S
C1870 H1861 0.930 . S
C1870 C1868 1.384 . S
C1870 C1871 1.372 . S
C1871 C1870 1.372 . S
C1871 C1872 1.400 . S
C1871 C1876 1.490 . S
C1872 H1862 0.930 . S
C1872 C1871 1.400 . S
C1872 C1875 1.386 . S
H1873 C1889 0.930 . S
H1874 C1890 0.931 . S
C1875 H1863 0.929 . S
C1875 C1869 1.390 . S
C1875 C1872 1.386 . S
C1876 C1871 1.490 . S
C1876 C1878 1.395 . S
C1876 C1879 1.403 . S
H1877 C1883 0.930 . S
C1878 H1864 0.930 . S
C1878 C1876 1.395 . S
C1878 C1881 1.403 . S
C1879 C1876 1.403 . S
C1879 C1880 1.524 . S
C1879 C1883 1.400 . S
C1880 H1865 0.960 . S
C1880 H1866 0.960 . S
C1880 H1867 0.960 . S
C1880 C1879 1.524 . S
C1881 C1878 1.403 . S
C1881 C1882 1.392 . S
C1881 C1885 1.495 . S
C1882 C1881 1.392 . S
C1882 C1883 1.385 . S
C1882 C1884 1.478 . S
C1883 H1877 0.930 . S
C1883 C1879 1.400 . S
C1883 C1882 1.385 . S
C1884 C1882 1.478 . S
C1884 C1886 1.381 . S
C1884 C1890 1.383 . S
C1885 C1881 1.495 . S
C1885 H1891 0.959 . S
C1885 H1892 0.961 . S
C1885 H1893 0.960 . S
C1886 C1884 1.381 . S
C1886 C1887 1.394 . S
C1886 H1894 0.930 . S
C1887 C1886 1.394 . S
C1887 C1888 1.383 . S
C1887 H1895 0.929 . S
C1888 C1887 1.383 . S
C1888 C1889 1.377 . S
C1889 H1873 0.930 . S
C1889 C1888 1.377 . S
C1889 C1890 1.379 . S
C1890 H1874 0.931 . S
C1890 C1884 1.383 . S
C1890 C1889 1.379 . S
H1891 C1885 0.959 . S
H1892 C1885 0.961 . S
H1893 C1885 0.960 . S
H1894 C1886 0.930 . S
H1895 C1887 0.929 . S
H1896 C1904 0.929 . S
H1897 C1906 0.930 . S
H1898 C1908 0.930 . S
H1899 C1911 0.929 . S
H1900 C1914 0.930 . S
H1901 C1916 0.960 . S
H1902 C1916 0.960 . S
H1903 C1916 0.960 . S
C1904 H1896 0.929 . S
C1904 C1905 1.377 . S
C1904 C1906 1.384 . S
C1905 C1904 1.377 . S
C1905 C1911 1.390 . S
C1906 H1897 0.930 . S
C1906 C1904 1.384 . S
C1906 C1907 1.372 . S
C1907 C1906 1.372 . S
C1907 C1908 1.400 . S
C1907 C1912 1.490 . S
C1908 H1898 0.930 . S
C1908 C1907 1.400 . S
C1908 C1911 1.386 . S
H1909 C1925 0.930 . S
H1910 C1926 0.931 . S
C1911 H1899 0.929 . S
C1911 C1905 1.390 . S
C1911 C1908 1.386 . S
C1912 C1907 1.490 . S
C1912 C1914 1.395 . S
C1912 C1915 1.403 . S
H1913 C1919 0.930 . S
C1914 H1900 0.930 . S
C1914 C1912 1.395 . S
C1914 C1917 1.403 . S
C1915 C1912 1.403 . S
C1915 C1916 1.524 . S
C1915 C1919 1.400 . S
C1916 H1901 0.960 . S
C1916 H1902 0.960 . S
C1916 H1903 0.960 . S
C1916 C1915 1.524 . S
C1917 C1914 1.403 . S
C1917 C1918 1.392 . S
C1917 C1921 1.495 . S
C1918 C1917 1.392 . S
C1918 C1919 1.385 . S
C1918 C1920 1.478 . S
C1919 H1913 0.930 . S
C1919 C1915 1.400 . S
C1919 C1918 1.385 . S
C1920 C1918 1.478 . S
C1920 C1922 1.381 . S
C1920 C1926 1.383 . S
C1921 C1917 1.495 . S
C1921 H1927 0.959 . S
C1921 H1928 0.961 . S
C1921 H1929 0.960 . S
C1922 C1920 1.381 . S
C1922 C1923 1.394 . S
C1922 H1930 0.930 . S
C1923 C1922 1.394 . S
C1923 C1924 1.383 . S
C1923 H1931 0.929 . S
C1924 C1923 1.383 . S
C1924 C1925 1.377 . S
C1925 H1909 0.930 . S
C1925 C1924 1.377 . S
C1925 C1926 1.379 . S
C1926 H1910 0.931 . S
C1926 C1920 1.383 . S
C1926 C1925 1.379 . S
H1927 C1921 0.959 . S
H1928 C1921 0.961 . S
H1929 C1921 0.960 . S
H1930 C1922 0.930 . S
H1931 C1923 0.929 . S
H1932 C1940 0.929 . S
H1933 C1942 0.930 . S
H1934 C1944 0.930 . S
H1935 C1947 0.929 . S
H1936 C1950 0.930 . S
H1937 C1952 0.960 . S
H1938 C1952 0.960 . S
H1939 C1952 0.960 . S
C1940 H1932 0.929 . S
C1940 C1941 1.377 . S
C1940 C1942 1.384 . S
C1941 C1940 1.377 . S
C1941 C1947 1.390 . S
C1942 H1933 0.930 . S
C1942 C1940 1.384 . S
C1942 C1943 1.372 . S
C1943 C1942 1.372 . S
C1943 C1944 1.400 . S
C1943 C1948 1.490 . S
C1944 H1934 0.930 . S
C1944 C1943 1.400 . S
C1944 C1947 1.386 . S
H1945 C1961 0.930 . S
H1946 C1962 0.931 . S
C1947 H1935 0.929 . S
C1947 C1941 1.390 . S
C1947 C1944 1.386 . S
C1948 C1943 1.490 . S
C1948 C1950 1.395 . S
C1948 C1951 1.403 1_655 S
H1949 C1955 0.930 . S
C1950 H1936 0.930 . S
C1950 C1948 1.395 . S
C1950 C1953 1.403 . S
C1951 C1948 1.403 1_455 S
C1951 C1952 1.524 . S
C1951 C1955 1.400 . S
C1952 H1937 0.960 . S
C1952 H1938 0.960 . S
C1952 H1939 0.960 . S
C1952 C1951 1.524 . S
C1953 C1950 1.403 . S
C1953 C1954 1.392 1_655 S
C1953 C1957 1.495 . S
C1954 C1953 1.392 1_455 S
C1954 C1955 1.385 . S
C1954 C1956 1.478 . S
C1955 H1949 0.930 . S
C1955 C1951 1.400 . S
C1955 C1954 1.385 . S
C1956 C1954 1.478 . S
C1956 C1958 1.381 . S
C1956 C1962 1.383 . S
C1957 C1953 1.495 . S
C1957 H1963 0.959 . S
C1957 H1964 0.961 . S
C1957 H1965 0.960 . S
C1958 C1956 1.381 . S
C1958 C1959 1.394 . S
C1958 H1966 0.930 . S
C1959 C1958 1.394 . S
C1959 C1960 1.383 . S
C1959 H1967 0.929 . S
C1960 C1959 1.383 . S
C1960 C1961 1.377 . S
C1961 H1945 0.930 . S
C1961 C1960 1.377 . S
C1961 C1962 1.379 . S
C1962 H1946 0.931 . S
C1962 C1956 1.383 . S
C1962 C1961 1.379 . S
H1963 C1957 0.959 . S
H1964 C1957 0.961 . S
H1965 C1957 0.960 . S
H1966 C1958 0.930 . S
H1967 C1959 0.929 . S
C537 C107 1.291 . S
C556 C8 1.291 . S
C573 C74 1.296 . S
C592 C41 1.293 . S
C609 C140 1.297 . S
C628 C239 1.281 . S
C645 C173 1.290 . S
C664 C206 1.301 . S
C681 C272 1.289 . S
C700 C371 1.303 . S
C717 C305 1.290 . S
C736 C338 1.301 . S
C753 C503 1.289 . S
C772 C404 1.291 . S
C789 C470 1.298 . S
C808 C437 1.284 . S
C825 N14 0.462 . S
C844 N344 0.410 . S
C861 N377 0.470 . S
C880 N47 0.464 . S
C897 N278 0.447 . S
C916 N80 0.439 . S
C933 N311 0.449 . S
C952 N113 0.429 . S
C969 N476 0.448 . S
C988 N146 0.437 . S
C1005 N509 0.448 . S
C1024 N179 0.434 . S
C1041 N410 0.448 . S
C1060 N212 0.408 . S
C1077 N443 0.457 . S
C1096 N245 0.490 . S
C1113 N5 1.487 . S
C1132 N137 1.499 . S
C1149 N38 1.484 . S
C1168 N170 1.498 . S
C1185 N203 1.480 . S
C1204 N71 1.464 . S
C1221 N104 1.480 . S
C1240 N236 1.466 . S
C1257 N269 1.483 . S
C1276 N401 1.462 . S
C1293 N434 1.487 . S
C1312 N302 1.498 . S
C1329 N335 1.482 . S
C1348 N467 1.495 . S
C1365 N500 1.486 . S
C1384 N368 1.500 . S
C1401 C17 1.285 . S
C1420 C50 1.290 . S
C1437 C116 1.281 . S
C1456 C83 1.273 . S
C1473 C182 1.285 . S
C1492 C149 1.290 . S
C1509 C215 1.283 . S
C1528 C248 1.295 . S
C1545 C314 1.281 . S
C1564 C281 1.270 . S
C1581 C380 1.284 . S
C1600 C347 1.284 . S
C1617 C413 1.284 . S
C1636 C446 1.267 . S
C1653 C512 1.283 . S
C1672 C479 1.294 . S
C1689 C28 0.514 . S
C1708 C325 0.629 . S
C1725 C61 0.555 . S
C1744 C292 0.443 . S
C1761 C94 0.543 . S
C1780 C391 0.524 . S
C1797 C127 0.524 . S
C1816 C358 0.579 . S
C1833 C160 0.514 . S
C1852 C457 0.487 . S
C1869 C424 0.517 . S
C1888 C193 0.559 . S
C1905 C226 0.534 . S
C1924 C523 0.628 . S
C1941 C490 0.514 . S
C1960 C259 0.504 . S
