# Generated by pormake.
# Topology wlj, (5)-cn, num edge types: 1
# Building blocks:
#     Node 0, Type 0, BuildingBlock: XOMCOT_clean_sbu_1, # of connection points: 5
#     Node 1, Type 0, BuildingBlock: XOMCOT_clean_sbu_1, # of connection points: 5
#     Node 2, Type 0, BuildingBlock: XOMCOT_clean_sbu_1, # of connection points: 5
#     Node 3, Type 0, BuildingBlock: XOMCOT_clean_sbu_1, # of connection points: 5
#     Node 4, Type 0, BuildingBlock: XOMCOT_clean_sbu_1, # of connection points: 5
#     Node 5, Type 0, BuildingBlock: XOMCOT_clean_sbu_1, # of connection points: 5
#     Edge 6, Type (0, 0), BuildingBlock: UVAHIK_clean_linker_0, # of connection points: 2
#     Edge 7, Type (0, 0), BuildingBlock: UVAHIK_clean_linker_0, # of connection points: 2
#     Edge 8, Type (0, 0), BuildingBlock: UVAHIK_clean_linker_0, # of connection points: 2
#     Edge 9, Type (0, 0), BuildingBlock: UVAHIK_clean_linker_0, # of connection points: 2
#     Edge 10, Type (0, 0), BuildingBlock: UVAHIK_clean_linker_0, # of connection points: 2
#     Edge 11, Type (0, 0), BuildingBlock: UVAHIK_clean_linker_0, # of connection points: 2
#     Edge 12, Type (0, 0), BuildingBlock: UVAHIK_clean_linker_0, # of connection points: 2
#     Edge 13, Type (0, 0), BuildingBlock: UVAHIK_clean_linker_0, # of connection points: 2
#     Edge 14, Type (0, 0), BuildingBlock: UVAHIK_clean_linker_0, # of connection points: 2
#     Edge 15, Type (0, 0), BuildingBlock: UVAHIK_clean_linker_0, # of connection points: 2
#     Edge 16, Type (0, 0), BuildingBlock: UVAHIK_clean_linker_0, # of connection points: 2
#     Edge 17, Type (0, 0), BuildingBlock: UVAHIK_clean_linker_0, # of connection points: 2
#     Edge 18, Type (0, 0), BuildingBlock: UVAHIK_clean_linker_0, # of connection points: 2
#     Edge 19, Type (0, 0), BuildingBlock: UVAHIK_clean_linker_0, # of connection points: 2
#     Edge 20, Type (0, 0), BuildingBlock: UVAHIK_clean_linker_0, # of connection points: 2
# Relax obj value: 0.123
# Max RMSD: 0.180
# Mean RMSD: 0.180
data_MOF--net-wlj--node1-XOMCOT_clean_sbu_1--edge1-UVAHIK_clean_linker_0
_symmetry_space_group_name_H-M    P1
_symmetry_Int_Tables_number       1
_symmetry_cell_setting            triclinic
loop_
_symmetry_equiv_pos_as_xyz
'x, y, z'
_cell_length_a     32.369505
_cell_length_b     32.292567
_cell_length_c     67.246856
_cell_angle_alpha  90.139692
_cell_angle_beta   90.051123
_cell_angle_gamma 120.02695
loop_
_atom_site_label
_atom_site_type_symbol
_atom_site_fract_x
_atom_site_fract_y
_atom_site_fract_z
_atom_type_partial_charge
C0 C 0.64472 0.28822 0.30382 0.0
C1 C 0.65093 0.25626 0.31512 0.0
N2 N 0.60943 0.21432 0.31546 0.0
N3 N 0.59955 0.26665 0.29692 0.0
C4 C 0.57889 0.22168 0.30426 0.0
H5 H 0.6713 0.3251 0.30104 0.0
Co6 Co 0.57188 0.29545 0.28197 0.0
C7 C 0.5247 0.22816 0.24871 0.0
O8 O 0.54276 0.26556 0.23691 0.0
N9 N 0.54213 0.32394 0.2675 0.0
C10 C 0.48027 0.33002 0.25662 0.0
C11 C 0.49436 0.30004 0.26452 0.0
C12 C 0.55602 0.36922 0.26151 0.0
N13 N 0.51899 0.37363 0.25479 0.0
O14 O 0.52418 0.27988 0.30213 0.0
H15 H 0.47059 0.26325 0.2687 0.0
H16 H 0.59159 0.39933 0.26315 0.0
O17 O 0.53252 0.23413 0.26749 0.0
C18 C 0.54238 0.30978 0.31645 0.0
O19 O 0.58877 0.33885 0.31664 0.0
N20 N 0.62253 0.31634 0.26359 0.0
C21 C 0.70755 0.3594 0.24176 0.0
C22 C 0.67725 0.30951 0.24142 0.0
C23 C 0.63538 0.28853 0.25284 0.0
C24 C 0.65295 0.36432 0.26491 0.0
C25 C 0.69466 0.38671 0.25375 0.0
H26 H 0.61444 0.25 0.25355 0.0
H27 H 0.64589 0.38524 0.27547 0.0
H28 H 0.54171 0.19535 0.30192 0.0
H29 H 0.68362 0.26349 0.32249 0.0
H30 H 0.44403 0.3207 0.25299 0.0
H31 H 0.68671 0.28675 0.23308 0.0
H32 H 0.717 0.42518 0.25486 0.0
C33 C 0.71383 0.34848 0.97433 0.0
C34 C 0.74615 0.38218 0.98723 0.0
N35 N 0.78831 0.38362 0.98521 0.0
N36 N 0.73512 0.32843 0.96409 0.0
C37 C 0.78055 0.35051 0.97103 0.0
H38 H 0.67719 0.33968 0.97226 0.0
Co39 Co 0.70439 0.2826 0.94403 0.0
C40 C 0.78258 0.27719 0.92422 0.0
O41 O 0.75763 0.23029 0.92516 0.0
N42 N 0.67305 0.23703 0.92379 0.0
C43 C 0.6487 0.20413 0.89386 0.0
C44 C 0.67878 0.2454 0.90402 0.0
C45 C 0.63944 0.19023 0.92525 0.0
N46 N 0.62408 0.16947 0.90723 0.0
O47 O 0.70746 0.2347 0.96008 0.0
H48 H 0.7034 0.27943 0.89737 0.0
H49 H 0.62585 0.17179 0.9392 0.0
O50 O 0.76572 0.30213 0.93157 0.0
C51 C 0.67564 0.22066 0.97362 0.0
O52 O 0.64951 0.24122 0.9749 0.0
N53 N 0.69666 0.32742 0.92949 0.0
C54 C 0.67086 0.38814 0.91075 0.0
C55 C 0.71872 0.39901 0.91098 0.0
C56 C 0.73107 0.3682 0.92065 0.0
C57 C 0.65023 0.3164 0.92935 0.0
C58 C 0.63651 0.34597 0.91999 0.0
H59 H 0.76807 0.37743 0.92124 0.0
H60 H 0.62365 0.28425 0.93668 0.0
H61 H 0.80735 0.34251 0.96574 0.0
H62 H 0.73926 0.40482 0.99692 0.0
H63 H 0.64572 0.1997 0.87787 0.0
H64 H 0.74638 0.43145 0.90417 0.0
H65 H 0.59911 0.33567 0.91994 0.0
C66 C 0.63996 0.35917 0.63271 0.0
C67 C 0.60008 0.35262 0.64274 0.0
N68 N 0.6028 0.39543 0.64477 0.0
N69 N 0.66754 0.40585 0.62815 0.0
C70 C 0.6442 0.42715 0.6359 0.0
H71 H 0.6483 0.3316 0.62894 0.0
Co72 Co 0.72544 0.43362 0.61421 0.0
C73 C 0.71271 0.4885 0.58229 0.0
O74 O 0.73281 0.47152 0.57032 0.0
N75 N 0.78517 0.46352 0.60076 0.0
C76 C 0.85626 0.52521 0.59257 0.0
C77 C 0.8125 0.51181 0.60061 0.0
C78 C 0.81382 0.44849 0.59258 0.0
N79 N 0.85705 0.48539 0.58753 0.0
O80 O 0.75695 0.47782 0.63576 0.0
H81 H 0.80174 0.53609 0.60658 0.0
H82 H 0.80487 0.41167 0.59113 0.0
O83 O 0.70781 0.47732 0.60078 0.0
C84 C 0.76796 0.45763 0.64942 0.0
O85 O 0.74944 0.41099 0.64857 0.0
N86 N 0.69562 0.38616 0.59425 0.0
C87 C 0.65208 0.30614 0.56927 0.0
C88 C 0.63401 0.33748 0.57069 0.0
C89 C 0.65603 0.37714 0.58348 0.0
C90 C 0.71089 0.35376 0.59413 0.0
C91 C 0.69081 0.3145 0.58129 0.0
H92 H 0.64014 0.39942 0.58523 0.0
H93 H 0.73763 0.35733 0.60469 0.0
H94 H 0.65708 0.46513 0.63484 0.0
H95 H 0.57163 0.31903 0.64838 0.0
H96 H 0.88556 0.56143 0.59079 0.0
H97 H 0.60289 0.33105 0.5622 0.0
H98 H 0.70413 0.28968 0.5814 0.0
C99 C 0.28404 0.63462 0.75871 0.0
C100 C 0.25072 0.63969 0.74793 0.0
N101 N 0.20845 0.59863 0.7491 0.0
N102 N 0.26311 0.59065 0.76682 0.0
C103 C 0.21713 0.56946 0.76066 0.0
H104 H 0.32119 0.66142 0.76065 0.0
Co105 Co 0.29358 0.5667 0.78297 0.0
C106 C 0.22734 0.52277 0.81659 0.0
O107 O 0.26483 0.54426 0.82831 0.0
N108 N 0.32385 0.54071 0.79881 0.0
C109 C 0.33082 0.48337 0.81426 0.0
C110 C 0.30098 0.49375 0.80369 0.0
C111 C 0.36888 0.5574 0.80581 0.0
N112 N 0.37348 0.52339 0.81555 0.0
O113 O 0.27951 0.5164 0.76409 0.0
H114 H 0.26467 0.4681 0.79954 0.0
H115 H 0.39825 0.59319 0.80372 0.0
O116 O 0.23279 0.52739 0.79767 0.0
C117 C 0.30793 0.53214 0.74929 0.0
O118 O 0.33559 0.57859 0.74738 0.0
N119 N 0.31239 0.61964 0.8003 0.0
C120 C 0.34992 0.70316 0.82312 0.0
C121 C 0.30041 0.67319 0.82132 0.0
C122 C 0.28227 0.63181 0.80955 0.0
C123 C 0.3602 0.6512 0.80028 0.0
C124 C 0.3799 0.69221 0.81212 0.0
H125 H 0.2441 0.61007 0.80766 0.0
H126 H 0.38315 0.64534 0.79047 0.0
H127 H 0.19074 0.53311 0.76442 0.0
H128 H 0.25723 0.67163 0.74011 0.0
H129 H 0.32234 0.44876 0.82008 0.0
H130 H 0.27606 0.68163 0.82894 0.0
H131 H 0.4182 0.716 0.81219 0.0
C132 C 0.37229 0.65568 0.42252 0.0
C133 C 0.37115 0.62044 0.41067 0.0
N134 N 0.40985 0.61654 0.41474 0.0
N135 N 0.41153 0.67435 0.43412 0.0
C136 C 0.43382 0.64979 0.42905 0.0
H137 H 0.3455 0.66632 0.42299 0.0
Co138 Co 0.4248 0.72104 0.45363 0.0
C139 C 0.50884 0.72979 0.47479 0.0
O140 O 0.52968 0.77665 0.47399 0.0
N141 N 0.43708 0.76756 0.4733 0.0
C142 C 0.44415 0.80242 0.50269 0.0
C143 C 0.43328 0.76047 0.49317 0.0
C144 C 0.45071 0.8144 0.47116 0.0
N145 N 0.45524 0.83632 0.48883 0.0
O146 O 0.4755 0.76888 0.43746 0.0
H147 H 0.42381 0.72704 0.5004 0.0
H148 H 0.45685 0.83219 0.45697 0.0
O149 O 0.4678 0.70413 0.46689 0.0
C150 C 0.45788 0.7827 0.42374 0.0
O151 O 0.41123 0.76218 0.42238 0.0
N152 N 0.3725 0.67586 0.46823 0.0
C153 C 0.28761 0.61621 0.48797 0.0
C154 C 0.32757 0.61065 0.4906 0.0
C155 C 0.3698 0.64051 0.48025 0.0
C156 C 0.33386 0.68138 0.4655 0.0
C157 C 0.29091 0.65168 0.47509 0.0
H158 H 0.40015 0.63552 0.48217 0.0
H159 H 0.33668 0.70937 0.4558 0.0
H160 H 0.4668 0.65599 0.43578 0.0
H161 H 0.34298 0.59837 0.40031 0.0
H162 H 0.44499 0.8079 0.51861 0.0
H163 H 0.326 0.58339 0.50044 0.0
H164 H 0.26079 0.65706 0.47281 0.0
C165 C 0.35296 0.71059 0.09048 0.0
C166 C 0.38676 0.7424 0.07753 0.0
N167 N 0.38787 0.7846 0.07902 0.0
N168 N 0.33259 0.73237 0.10014 0.0
C169 C 0.35447 0.7774 0.09282 0.0
H170 H 0.34439 0.67408 0.09303 0.0
Co171 Co 0.28668 0.70427 0.12017 0.0
C172 C 0.28297 0.78591 0.13782 0.0
O173 O 0.23628 0.76219 0.136 0.0
N174 N 0.24096 0.67616 0.14051 0.0
C175 C 0.20853 0.66094 0.17061 0.0
C176 C 0.25007 0.68574 0.16009 0.0
C177 C 0.19342 0.64496 0.13954 0.0
N178 N 0.1727 0.63548 0.15771 0.0
O179 O 0.23958 0.70655 0.10328 0.0
H180 H 0.28474 0.71009 0.16636 0.0
H181 H 0.1741 0.63064 0.12577 0.0
O182 O 0.30729 0.7673 0.13158 0.0
C183 C 0.22491 0.6731 0.09032 0.0
O184 O 0.24468 0.64614 0.0899 0.0
N185 N 0.3307 0.69719 0.13565 0.0
C186 C 0.38643 0.67304 0.15905 0.0
C187 C 0.40131 0.72123 0.1552 0.0
C188 C 0.37263 0.73269 0.1434 0.0
C189 C 0.31726 0.65037 0.13841 0.0
C190 C 0.3442 0.63749 0.15027 0.0
H191 H 0.3839 0.76981 0.1406 0.0
H192 H 0.28463 0.6228 0.13165 0.0
H193 H 0.34613 0.80441 0.09757 0.0
H194 H 0.40973 0.73529 0.06819 0.0
H195 H 0.20507 0.66184 0.18659 0.0
H196 H 0.43404 0.74959 0.1616 0.0
H197 H 0.33207 0.59993 0.15258 0.0
C198 C 0.5136 0.17325 0.22055 0.0
C199 C 0.49995 0.17982 0.23962 0.0
C200 C 0.49 0.12858 0.21122 0.0
C201 C 0.37666 0.02282 0.20544 0.0
H202 H 0.44657 0.96202 0.18656 0.0
C203 C 0.28114 0.84099 0.16369 0.0
C204 C 0.30674 0.83116 0.1494 0.0
C205 C 0.30407 0.882 0.17565 0.0
C206 C 0.42643 0.97871 0.19135 0.0
H207 H 0.45086 0.14468 0.2639 0.0
H208 H 0.40789 0.06626 0.24707 0.0
H209 H 0.48758 0.03554 0.20601 0.0
H210 H 0.37625 0.85734 0.13606 0.0
H211 H 0.41578 0.93015 0.15599 0.0
H212 H 0.3162 0.96817 0.18992 0.0
C213 C 0.43756 0.0959 0.23961 0.0
C214 C 0.44998 0.02061 0.20274 0.0
C215 C 0.46216 0.14054 0.24923 0.0
C216 C 0.3556 0.86381 0.14703 0.0
C217 C 0.37836 0.90541 0.15868 0.0
C218 C 0.35327 0.98148 0.19365 0.0
C219 C 0.4514 0.08961 0.22051 0.0
C220 C 0.42538 0.04313 0.20984 0.0
C221 C 0.35313 0.91496 0.17339 0.0
C222 C 0.37782 0.95879 0.18631 0.0
H223 H 0.54281 0.20276 0.21282 0.0
H224 H 0.50123 0.12473 0.19649 0.0
H225 H 0.35708 0.03993 0.21051 0.0
H226 H 0.24355 0.8162 0.16608 0.0
H227 H 0.28329 0.88711 0.18698 0.0
C228 C 0.17269 0.51306 0.8444 0.0
C229 C 0.17943 0.49745 0.82582 0.0
C230 C 0.12889 0.48867 0.85414 0.0
C231 C 1.00041 0.39505 0.84734 0.0
H232 H 0.00422 0.39544 0.90501 0.0
C233 C 0.83761 0.27586 0.8983 0.0
C234 C 0.82813 0.30094 0.91305 0.0
C235 C 0.87961 0.2988 0.88708 0.0
C236 C 1.00261 0.39521 0.88892 0.0
H237 H 0.14522 0.44439 0.80263 0.0
H238 H 0.06878 0.39996 0.82006 0.0
H239 H 0.07836 0.43559 0.88639 0.0
H240 H 0.85557 0.36958 0.92776 0.0
H241 H 0.92982 0.40915 0.90863 0.0
H242 H 0.92418 0.35261 0.85021 0.0
C243 C 0.09708 0.43195 0.82695 0.0
C244 C 0.04515 0.41858 0.87815 0.0
C245 C 0.14093 0.45722 0.81695 0.0
C246 C 0.86187 0.34929 0.91652 0.0
C247 C 0.90435 0.37191 0.9056 0.0
C248 C 0.95781 0.37076 0.85817 0.0
C249 C 0.09061 0.44702 0.84585 0.0
C250 C 0.04482 0.41966 0.85717 0.0
C251 C 0.91348 0.34699 0.89068 0.0
C252 C 0.95851 0.37118 0.87907 0.0
H253 H 0.20143 0.54453 0.85146 0.0
H254 H 0.12525 0.50276 0.86823 0.0
H255 H 0.9983 0.39532 0.83128 0.0
H256 H 0.81216 0.23868 0.89516 0.0
H257 H 0.88591 0.27872 0.87574 0.0
C258 C 0.5639 0.73198 0.50161 0.0
C259 C 0.53071 0.7067 0.48647 0.0
C260 C 0.58247 0.70942 0.51343 0.0
C261 C 0.56147 0.58728 0.52672 0.0
H262 H 0.68991 0.65942 0.54803 0.0
C263 C 0.67412 0.50494 0.55369 0.0
C264 C 0.69027 0.51455 0.5735 0.0
C265 C 0.65299 0.52888 0.54486 0.0
C266 C 0.65379 0.63905 0.54235 0.0
H267 H 0.49192 0.63822 0.47149 0.0
H268 H 0.52606 0.59961 0.49119 0.0
H269 H 0.65778 0.70017 0.52822 0.0
H270 H 0.69705 0.557 0.59958 0.0
H271 H 0.66147 0.60069 0.58368 0.0
H272 H 0.55911 0.52571 0.53995 0.0
C273 C 0.53654 0.63632 0.49465 0.0
C274 C 0.63513 0.66233 0.53102 0.0
C275 C 0.51722 0.65862 0.48313 0.0
C276 C 0.68489 0.54889 0.5843 0.0
C277 C 0.66474 0.57388 0.57523 0.0
C278 C 0.58056 0.56395 0.53766 0.0
C279 C 0.56907 0.66114 0.51018 0.0
C280 C 0.58874 0.63675 0.52286 0.0
C281 C 0.64841 0.56381 0.55544 0.0
C282 C 0.62694 0.58954 0.54549 0.0
H283 H 0.57461 0.76895 0.50472 0.0
H284 H 0.60661 0.72977 0.52538 0.0
H285 H 0.52524 0.56628 0.52129 0.0
H286 H 0.67734 0.4784 0.545 0.0
H287 H 0.64081 0.52059 0.52958 0.0
C288 C 0.46171 0.67348 0.16881 0.0
C289 C 0.41356 0.65877 0.17241 0.0
C290 C 0.48484 0.65436 0.17998 0.0
C291 C 0.47501 0.58734 0.22623 0.0
H292 H 0.53459 0.52953 0.19562 0.0
C293 C 0.47975 0.42209 0.25289 0.0
C294 C 0.51905 0.41636 0.24859 0.0
C295 C 0.4774 0.46128 0.24565 0.0
C296 C 0.51906 0.5463 0.20448 0.0
H297 H 0.35259 0.61479 0.19102 0.0
H298 H 0.39276 0.58194 0.21058 0.0
H299 H 0.51187 0.58266 0.17924 0.0
H300 H 0.5875 0.44803 0.23382 0.0
H301 H 0.58343 0.51711 0.22095 0.0
H302 H 0.48055 0.54974 0.25131 0.0
C303 C 0.41286 0.60805 0.19921 0.0
C304 C 0.50603 0.57677 0.19509 0.0
C305 C 0.38971 0.62658 0.18793 0.0
C306 C 0.55686 0.45167 0.23738 0.0
C307 C 0.55433 0.49092 0.22993 0.0
C308 C 0.4881 0.55705 0.23561 0.0
C309 C 0.46038 0.62089 0.19512 0.0
C310 C 0.48232 0.59625 0.20572 0.0
C311 C 0.51427 0.49586 0.23383 0.0
C312 C 0.5087 0.53477 0.22471 0.0
H313 H 0.48075 0.6981 0.15684 0.0
H314 H 0.52153 0.66507 0.17655 0.0
H315 H 0.45759 0.60251 0.23491 0.0
H316 H 0.45039 0.39585 0.26173 0.0
H317 H 0.44575 0.4635 0.24877 0.0
C318 C 0.35823 0.78216 0.83258 0.0
C319 C 0.37082 0.74692 0.83561 0.0
C320 C 0.3816 0.82549 0.84306 0.0
C321 C 0.49358 0.90095 0.87198 0.0
H322 H 0.43258 0.97568 0.88296 0.0
C323 C 0.58888 0.08293 0.91372 0.0
C324 C 0.58969 0.12036 0.9028 0.0
C325 C 0.55868 0.03524 0.908 0.0
C326 C 0.44996 0.95505 0.88004 0.0
H327 H 0.41579 0.72804 0.85256 0.0
H328 H 0.45486 0.8023 0.87161 0.0
H329 H 0.38576 0.8955 0.86887 0.0
H330 H 0.55807 0.13741 0.87807 0.0
H331 H 0.50442 0.05415 0.86837 0.0
H332 H 0.55759 0.96056 0.8835 0.0
C333 C 0.42846 0.79776 0.86062 0.0
C334 C 0.42328 0.9092 0.87179 0.0
C335 C 0.40579 0.75493 0.84984 0.0
C336 C 0.55832 0.10919 0.88663 0.0
C337 C 0.52747 0.06162 0.88118 0.0
C338 C 0.51995 0.94638 0.88057 0.0
C339 C 0.41752 0.83422 0.85709 0.0
C340 C 0.44488 0.88173 0.8673 0.0
C341 C 0.52798 0.0242 0.89156 0.0
C342 C 0.49862 0.97419 0.88438 0.0
H343 H 0.33166 0.77695 0.82153 0.0
H344 H 0.37252 0.85269 0.8396 0.0
H345 H 0.51203 0.8817 0.86843 0.0
H346 H 0.61293 0.09067 0.92618 0.0
H347 H 0.55964 0.007 0.91628 0.0
C348 C 0.94328 0.51446 0.5868 0.0
C349 C 0.89723 0.48372 0.57937 0.0
C350 C 0.98318 0.5169 0.57769 0.0
C351 C 0.02534 0.50783 0.52935 0.0
H352 H 0.13061 0.5101 0.55787 0.0
C353 C 0.20016 0.55779 0.48856 0.0
C354 C 0.24274 0.58668 0.49895 0.0
C355 C 0.15653 0.53514 0.4986 0.0
C356 C 0.10184 0.5101 0.54966 0.0
H357 H 0.85644 0.43057 0.55698 0.0
H358 H 0.92677 0.43579 0.54049 0.0
H359 H 0.05662 0.48899 0.57538 0.0
H360 H 0.27372 0.61409 0.52787 0.0
H361 H 0.19763 0.57647 0.5454 0.0
H362 H 0.07085 0.53193 0.50399 0.0
C363 C 0.93174 0.4575 0.55356 0.0
C364 C 0.0593 0.49757 0.5597 0.0
C365 C 0.89163 0.45431 0.56299 0.0
C366 C 0.24127 0.59143 0.51962 0.0
C367 C 0.19753 0.56961 0.52963 0.0
C368 C 0.0681 0.52121 0.51939 0.0
C369 C 0.97793 0.48929 0.5607 0.0
C370 C 0.02088 0.49691 0.54969 0.0
C371 C 0.15433 0.54191 0.5192 0.0
C372 C 0.10731 0.52324 0.52945 0.0
H373 H 0.94836 0.53727 0.59949 0.0
H374 H 0.01833 0.54197 0.58341 0.0
H375 H 0.99652 0.50829 0.52134 0.0
H376 H 0.2006 0.55363 0.47259 0.0
H377 H 0.12443 0.51316 0.49006 0.0
C378 C 0.62169 0.42817 0.91051 0.0
C379 C 0.65586 0.42006 0.90119 0.0
C380 C 0.60272 0.45303 0.90079 0.0
C381 C 0.58136 0.48222 0.85021 0.0
H382 H 0.5316 0.55092 0.87983 0.0
C383 C 0.459 0.54747 0.81523 0.0
C384 C 0.41502 0.52743 0.82515 0.0
C385 C 0.49764 0.5458 0.82384 0.0
C386 C 0.54569 0.53222 0.87133 0.0
H387 H 0.69885 0.4341 0.8747 0.0
H388 H 0.66642 0.47876 0.85776 0.0
H389 H 0.58531 0.52911 0.89615 0.0
H390 H 0.37717 0.49203 0.85195 0.0
H391 H 0.44486 0.49049 0.86733 0.0
H392 H 0.54095 0.48504 0.82545 0.0
C393 C 0.65359 0.46491 0.8725 0.0
C394 C 0.5762 0.51939 0.88068 0.0
C395 C 0.67257 0.43976 0.88227 0.0
C396 C 0.41082 0.50767 0.8441 0.0
C397 C 0.44955 0.50702 0.85288 0.0
C398 C 0.55133 0.49572 0.84076 0.0
C399 C 0.61767 0.47101 0.88149 0.0
C400 C 0.59292 0.49252 0.87049 0.0
C401 C 0.49307 0.52523 0.84271 0.0
C402 C 0.53189 0.51933 0.85145 0.0
H403 H 0.6086 0.41417 0.92522 0.0
H404 H 0.57476 0.45627 0.90816 0.0
H405 H 0.59312 0.46126 0.84189 0.0
H406 H 0.46273 0.56245 0.80051 0.0
H407 H 0.53083 0.56 0.81571 0.0
C408 C 0.65651 0.25361 0.54294 0.0
C409 C 0.62912 0.26289 0.55646 0.0
C410 C 0.63616 0.21059 0.53226 0.0
C411 C 0.51888 0.10052 0.5203 0.0
H412 H 0.59982 0.04547 0.5114 0.0
C413 C 0.45024 0.89875 0.50807 0.0
C414 C 0.47074 0.88594 0.49255 0.0
C415 C 0.46771 0.94682 0.51292 0.0
C416 C 0.57693 0.06066 0.51354 0.0
H417 H 0.55898 0.23494 0.56934 0.0
H418 H 0.52371 0.15898 0.55147 0.0
H419 H 0.63386 0.12522 0.52567 0.0
H420 H 0.52506 0.91325 0.46974 0.0
H421 H 0.55671 0.99775 0.4786 0.0
H422 H 0.46142 0.03416 0.50919 0.0
C423 C 0.56051 0.18531 0.54845 0.0
C424 C 0.59644 0.10663 0.52166 0.0
C425 C 0.5807 0.22882 0.55881 0.0
C426 C 0.50848 0.92225 0.48167 0.0
C427 C 0.52669 0.97042 0.48681 0.0
C428 C 0.49923 0.05415 0.51253 0.0
C429 C 0.58812 0.17519 0.53521 0.0
C430 C 0.56767 0.1272 0.52535 0.0
C431 C 0.50669 0.98311 0.5026 0.0
C432 C 0.52801 0.03364 0.50922 0.0
H433 H 0.69391 0.27953 0.54078 0.0
H434 H 0.65843 0.20501 0.52187 0.0
H435 H 0.4956 0.11521 0.52244 0.0
H436 H 0.42095 0.87143 0.51659 0.0
H437 H 0.45183 0.95554 0.52523 0.0
C438 C 0.09119 0.56763 0.15072 0.0
C439 C 0.12271 0.60679 0.1626 0.0
C440 C 0.04312 0.53904 0.15619 0.0
C441 C 0.95062 0.54029 0.1886 0.0
H442 H 0.89124 0.40202 0.18778 0.0
C443 C 0.79396 0.42242 0.23909 0.0
C444 C 0.75351 0.38318 0.2306 0.0
C445 C 0.8362 0.44738 0.22833 0.0
C446 C 0.90717 0.44057 0.18784 0.0
H447 H 0.1277 0.6475 0.18911 0.0
H448 H 0.04522 0.59769 0.19877 0.0
H449 H 0.97023 0.45115 0.17284 0.0
H450 H 0.72684 0.33827 0.20431 0.0
H451 H 0.80168 0.38159 0.18561 0.0
H452 H 0.88863 0.52993 0.20422 0.0
C453 C 0.05713 0.58895 0.18517 0.0
C454 C 0.95231 0.46872 0.17925 0.0
C455 C 0.10483 0.61723 0.17976 0.0
C456 C 0.75727 0.36824 0.21132 0.0
C457 C 0.8 0.39308 0.20058 0.0
C458 C 0.90593 0.5123 0.19727 0.0
C459 C 0.02559 0.54941 0.17352 0.0
C460 C 0.97512 0.51899 0.18004 0.0
C461 C 0.83953 0.43351 0.20888 0.0
C462 C 0.88425 0.46222 0.19746 0.0
H463 H 0.10386 0.55853 0.13745 0.0
H464 H 0.0197 0.50899 0.14683 0.0
H465 H 0.96652 0.57883 0.18901 0.0
H466 H 0.79309 0.43411 0.25411 0.0
H467 H 0.86645 0.4777 0.23529 0.0
C468 C 0.46892 0.82723 0.39233 0.0
C469 C 0.48713 0.82466 0.41097 0.0
C470 C 0.49023 0.86958 0.38141 0.0
C471 C 0.56094 0.9997 0.38862 0.0
H472 H 0.56182 1.00059 0.33094 0.0
C473 C 0.62676 0.17397 0.34291 0.0
C474 C 0.59979 0.17137 0.32602 0.0
C475 C 0.61788 0.13252 0.35307 0.0
C476 C 0.56147 1.00095 0.34704 0.0
H477 H 0.54312 0.86412 0.43253 0.0
H478 H 0.58097 0.93878 0.4133 0.0
H479 H 0.54143 0.92702 0.34865 0.0
H480 H 0.54236 0.12262 0.3066 0.0
H481 H 0.52641 0.05039 0.32444 0.0
H482 H 0.58026 0.07351 0.38698 0.0
C483 C 0.54991 0.90778 0.40718 0.0
C484 C 0.54993 0.95876 0.35722 0.0
C485 C 0.52868 0.86492 0.41808 0.0
C486 C 0.5636 0.1261 0.3196 0.0
C487 C 0.55484 0.08458 0.32972 0.0
C488 C 0.57259 0.04199 0.37842 0.0
C489 C 0.53027 0.91086 0.38888 0.0
C490 C 0.54861 0.95727 0.37815 0.0
C491 C 0.58188 0.08722 0.3466 0.0
C492 C 0.57219 0.04296 0.35749 0.0
H493 H 0.43681 0.79682 0.38649 0.0
H494 H 0.47366 0.87054 0.36756 0.0
H495 H 0.55966 0.99983 0.40471 0.0
H496 H 0.65453 0.20814 0.34846 0.0
H497 H 0.63964 0.13597 0.3659 0.0
C498 C 0.83125 0.43678 1.01376 0.0
C499 C 0.83228 0.41552 0.99559 0.0
C500 C 0.87347 0.46939 1.02345 0.0
C501 C 0.00362 0.54956 1.01492 0.0
H502 H 0.01034 0.54877 0.07249 0.0
C503 C 0.18039 0.63788 0.05896 0.0
C504 C 0.18281 0.65927 0.07746 0.0
C505 C 0.13774 0.61506 0.0482 0.0
C506 C 0.00884 0.5501 0.05643 0.0
H507 H 0.87941 0.41199 0.97361 0.0
H508 H 0.95305 0.46772 0.9908 0.0
H509 H 0.93644 0.49283 0.05561 0.0
H510 H 0.14283 0.6751 0.09894 0.0
H511 H 0.06758 0.6348 0.08009 0.0
H512 H 0.07659 0.606 1.0158 0.0
C513 C 0.91935 0.45985 0.99736 0.0
C514 C 0.9664 0.51786 0.0467 0.0
C515 C 0.87699 0.42726 0.98759 0.0
C516 C 0.14212 0.65944 0.08459 0.0
C517 C 0.09898 0.63586 0.07391 0.0
C518 C 0.04613 0.58161 1.02465 0.0
C519 C 0.9182 0.48161 1.01539 0.0
C520 C 0.96326 0.51678 1.02578 0.0
C521 C 0.09607 0.61241 0.0558 0.0
C522 C 0.04946 0.58198 0.04553 0.0
H523 H 0.79772 0.42829 1.02061 0.0
H524 H 0.87091 0.48559 0.03717 0.0
H525 H 1.0024 0.55061 0.99885 0.0
H526 H 0.21116 0.63699 0.05315 0.0
H527 H 0.13685 0.59712 0.03444 0.0
C528 C 0.32817 0.46703 0.74624 0.0
C529 C 0.31933 0.50095 0.73713 0.0
C530 C 0.3525 0.44787 0.73591 0.0
C531 C 0.3914 0.43148 0.68616 0.0
H532 H 0.5052 0.45014 0.71342 0.0
C533 C 0.51951 0.37076 0.65384 0.0
C534 C 0.56851 0.40474 0.65456 0.0
C535 C 0.48618 0.37896 0.66372 0.0
C536 C 0.47355 0.44469 0.70562 0.0
H537 H 0.3263 0.53922 0.70982 0.0
H538 H 0.36668 0.50428 0.69153 0.0
H539 H 0.4483 0.46609 0.73092 0.0
H540 H 0.62087 0.47387 0.66632 0.0
H541 H 0.56265 0.48796 0.6839 0.0
H542 H 0.41684 0.41034 0.66082 0.0
C543 C 0.35536 0.49275 0.70666 0.0
C544 C 0.4407 0.4533 0.71571 0.0
C545 C 0.33207 0.51263 0.7171 0.0
C546 C 0.58338 0.44721 0.66538 0.0
C547 C 0.5501 0.45504 0.67558 0.0
C548 C 0.42385 0.42206 0.67618 0.0
C549 C 0.36751 0.46158 0.71616 0.0
C550 C 0.39954 0.44739 0.70603 0.0
C551 C 0.50109 0.42099 0.67486 0.0
C552 C 0.46566 0.42923 0.6857 0.0
H553 H 0.31966 0.45816 0.76179 0.0
H554 H 0.36115 0.42372 0.74358 0.0
H555 H 0.36006 0.42665 0.6783 0.0
H556 H 0.50691 0.33789 0.64549 0.0
H557 H 0.44874 0.35198 0.66293 0.0
C558 C 0.16335 0.61586 0.72368 0.0
C559 C 0.16376 0.58872 0.73997 0.0
C560 C 0.12036 0.60713 0.71503 0.0
C561 C 0.98949 0.54822 0.72441 0.0
H562 H 0.98213 0.5554 0.66707 0.0
C563 C 0.81194 0.46294 0.6806 0.0
C564 C 0.80871 0.48502 0.66314 0.0
C565 C 0.8546 0.48228 0.69137 0.0
C566 C 0.98371 0.55408 0.68313 0.0
H567 H 0.11831 0.53088 0.75985 0.0
H568 H 0.04353 0.5148 0.74444 0.0
H569 H 0.05736 0.57363 0.68261 0.0
H570 H 0.84717 0.54621 0.64385 0.0
H571 H 0.92198 0.58033 0.66276 0.0
H572 H 0.91535 0.52743 0.7248 0.0
C573 C 0.07662 0.5435 0.73855 0.0
C574 C 0.02696 0.56446 0.69208 0.0
C575 C 0.11971 0.55233 0.74726 0.0
C576 C 0.84836 0.52861 0.65735 0.0
C577 C 0.8914 0.54777 0.66804 0.0
C578 C 0.94617 0.53766 0.71544 0.0
C579 C 0.07631 0.57083 0.72231 0.0
C580 C 0.03042 0.56123 0.71284 0.0
C581 C 0.89542 0.52404 0.68487 0.0
C582 C 0.94255 0.53997 0.69465 0.0
H583 H 0.1963 0.6438 0.71741 0.0
H584 H 0.12175 0.62932 0.70271 0.0
H585 H 0.99086 0.54625 0.74044 0.0
H586 H 0.78207 0.42919 0.68539 0.0
H587 H 0.8563 0.46278 0.70413 0.0
C588 C 0.53031 0.33711 0.3493 0.0
C589 C 0.5134 0.32115 0.32996 0.0
C590 C 0.51309 0.36183 0.36044 0.0
C591 C 0.42168 0.40048 0.36205 0.0
H592 H 0.5234 0.511 0.38897 0.0
C593 C 0.40202 0.56108 0.38751 0.0
C594 C 0.42111 0.5822 0.40611 0.0
C595 C 0.41077 0.52624 0.37944 0.0
C596 C 0.49437 0.48002 0.38179 0.0
H597 H 0.4634 0.31638 0.30744 0.0
H598 H 0.4335 0.36017 0.32675 0.0
H599 H 0.54008 0.45306 0.37332 0.0
H600 H 0.46485 0.58286 0.43069 0.0
H601 H 0.4806 0.52243 0.4165 0.0
H602 H 0.37633 0.42848 0.37018 0.0
C603 C 0.45952 0.35287 0.33354 0.0
C604 C 0.50387 0.44652 0.37282 0.0
C605 C 0.47639 0.32743 0.32247 0.0
C606 C 0.44996 0.56794 0.41626 0.0
C607 C 0.45888 0.53311 0.40813 0.0
C608 C 0.41223 0.43419 0.37097 0.0
C609 C 0.47913 0.37214 0.35237 0.0
C610 C 0.46774 0.40629 0.36275 0.0
C611 C 0.43911 0.51157 0.38966 0.0
C612 C 0.44855 0.47457 0.38086 0.0
H613 H 0.559 0.33289 0.35539 0.0
H614 H 0.52806 0.37475 0.37508 0.0
H615 H 0.39282 0.3698 0.35465 0.0
H616 H 0.38048 0.57169 0.379 0.0
H617 H 0.39581 0.51127 0.36501 0.0
C618 C 0.65705 0.13577 0.9783 0.0
C619 C 0.66239 0.17846 0.98626 0.0
C620 C 0.63237 0.09282 0.98903 0.0
C621 C 0.53926 0.04037 1.02791 0.0
H622 H 0.56647 0.93641 1.02832 0.0
C623 C 0.43173 0.87325 0.07681 0.0
C624 C 0.41973 0.82844 0.06866 0.0
C625 C 0.4635 0.9156 0.06698 0.0
C626 C 0.55813 0.96497 1.0282 0.0
H627 H 0.64974 0.21063 1.01209 0.0
H628 H 0.60881 0.13679 1.03101 0.0
H629 H 0.62057 0.01091 1.01112 0.0
H630 H 0.43144 0.79346 0.04348 0.0
H631 H 0.48653 0.86711 1.02637 0.0
H632 H 0.47682 0.99473 0.04475 0.0
C633 C 0.62196 0.13568 1.01633 0.0
C634 C 0.58921 0.0077 1.01834 0.0
C635 C 0.64597 0.17817 1.00559 0.0
C636 C 0.4403 0.82721 0.05038 0.0
C637 C 0.47205 0.86956 0.04055 0.0
C638 C 0.50833 0.99785 0.03772 0.0
C639 C 0.61293 0.09205 1.00789 0.0
C640 C 0.58034 0.04612 1.0182 0.0
C641 C 0.48411 0.91436 0.04871 0.0
C642 C 0.51736 0.95959 0.0381 0.0
H643 H 0.66875 0.13492 0.9633 0.0
H644 H 0.62607 0.05989 0.98205 0.0
H645 H 0.53045 0.0686 1.02769 0.0
H646 H 0.41735 0.87576 0.09099 0.0
H647 H 0.47246 0.94942 0.07388 0.0
loop_
_geom_bond_atom_site_label_1
_geom_bond_atom_site_label_2
_geom_bond_distance
_geom_bond_site_symmetry_2
_ccdc_geom_bond_type
C0 C1 1.351 . S
C0 N3 1.368 . S
C0 H5 0.931 . S
C1 C0 1.351 . S
C1 N2 1.373 . S
C1 H29 0.930 . S
N2 C1 1.373 . S
N2 C4 1.340 . S
N3 C0 1.368 . S
N3 C4 1.321 . S
N3 Co6 2.135 . S
C4 N2 1.340 . S
C4 N3 1.321 . S
C4 H28 0.930 . S
H5 C0 0.931 . S
Co6 N3 2.135 . S
Co6 N9 2.121 . S
Co6 O14 2.055 . S
Co6 O17 2.039 . S
Co6 N20 2.140 . S
C7 O8 1.227 . S
C7 O17 1.265 . S
O8 C7 1.227 . S
N9 Co6 2.121 . S
N9 C11 1.375 . S
N9 C12 1.313 . S
C10 C11 1.338 . S
C10 N13 1.377 . S
C10 H30 0.930 . S
C11 N9 1.375 . S
C11 C10 1.338 . S
C11 H15 0.931 . S
C12 N9 1.313 . S
C12 N13 1.344 . S
C12 H16 0.930 . S
N13 C10 1.377 . S
N13 C12 1.344 . S
O14 Co6 2.055 . S
O14 C18 1.253 . S
H15 C11 0.931 . S
H16 C12 0.930 . S
O17 Co6 2.039 . S
O17 C7 1.265 . S
C18 O14 1.253 . S
C18 O19 1.227 . S
O19 C18 1.227 . S
N20 Co6 2.140 . S
N20 C23 1.346 . S
N20 C24 1.345 . S
C21 C22 1.387 . S
C21 C25 1.391 . S
C22 C21 1.387 . S
C22 C23 1.369 . S
C22 H31 0.929 . S
C23 N20 1.346 . S
C23 C22 1.369 . S
C23 H26 0.928 . S
C24 N20 1.345 . S
C24 C25 1.371 . S
C24 H27 0.931 . S
C25 C21 1.391 . S
C25 C24 1.371 . S
C25 H32 0.930 . S
H26 C23 0.928 . S
H27 C24 0.931 . S
H28 C4 0.930 . S
H29 C1 0.930 . S
H30 C10 0.930 . S
H31 C22 0.929 . S
H32 C25 0.930 . S
C33 C34 1.351 . S
C33 N36 1.368 . S
C33 H38 0.931 . S
C34 C33 1.351 . S
C34 N35 1.373 . S
C34 H62 0.930 . S
N35 C34 1.373 . S
N35 C37 1.340 . S
N36 C33 1.368 . S
N36 C37 1.321 . S
N36 Co39 2.135 . S
C37 N35 1.340 . S
C37 N36 1.321 . S
C37 H61 0.930 . S
H38 C33 0.931 . S
Co39 N36 2.135 . S
Co39 N42 2.121 . S
Co39 O47 2.055 . S
Co39 O50 2.039 . S
Co39 N53 2.140 . S
C40 O41 1.227 . S
C40 O50 1.265 . S
O41 C40 1.227 . S
N42 Co39 2.121 . S
N42 C44 1.375 . S
N42 C45 1.313 . S
C43 C44 1.338 . S
C43 N46 1.377 . S
C43 H63 0.930 . S
C44 N42 1.375 . S
C44 C43 1.338 . S
C44 H48 0.931 . S
C45 N42 1.313 . S
C45 N46 1.344 . S
C45 H49 0.930 . S
N46 C43 1.377 . S
N46 C45 1.344 . S
O47 Co39 2.055 . S
O47 C51 1.253 . S
H48 C44 0.931 . S
H49 C45 0.930 . S
O50 Co39 2.039 . S
O50 C40 1.265 . S
C51 O47 1.253 . S
C51 O52 1.227 . S
O52 C51 1.227 . S
N53 Co39 2.140 . S
N53 C56 1.346 . S
N53 C57 1.345 . S
C54 C55 1.387 . S
C54 C58 1.391 . S
C55 C54 1.387 . S
C55 C56 1.369 . S
C55 H64 0.929 . S
C56 N53 1.346 . S
C56 C55 1.369 . S
C56 H59 0.928 . S
C57 N53 1.345 . S
C57 C58 1.371 . S
C57 H60 0.931 . S
C58 C54 1.391 . S
C58 C57 1.371 . S
C58 H65 0.930 . S
H59 C56 0.928 . S
H60 C57 0.931 . S
H61 C37 0.930 . S
H62 C34 0.930 . S
H63 C43 0.930 . S
H64 C55 0.929 . S
H65 C58 0.930 . S
C66 C67 1.351 . S
C66 N69 1.368 . S
C66 H71 0.931 . S
C67 C66 1.351 . S
C67 N68 1.373 . S
C67 H95 0.930 . S
N68 C67 1.373 . S
N68 C70 1.340 . S
N69 C66 1.368 . S
N69 C70 1.321 . S
N69 Co72 2.135 . S
C70 N68 1.340 . S
C70 N69 1.321 . S
C70 H94 0.930 . S
H71 C66 0.931 . S
Co72 N69 2.135 . S
Co72 N75 2.121 . S
Co72 O80 2.055 . S
Co72 O83 2.039 . S
Co72 N86 2.140 . S
C73 O74 1.227 . S
C73 O83 1.265 . S
O74 C73 1.227 . S
N75 Co72 2.121 . S
N75 C77 1.375 . S
N75 C78 1.313 . S
C76 C77 1.338 . S
C76 N79 1.377 . S
C76 H96 0.930 . S
C77 N75 1.375 . S
C77 C76 1.338 . S
C77 H81 0.931 . S
C78 N75 1.313 . S
C78 N79 1.344 . S
C78 H82 0.930 . S
N79 C76 1.377 . S
N79 C78 1.344 . S
O80 Co72 2.055 . S
O80 C84 1.253 . S
H81 C77 0.931 . S
H82 C78 0.930 . S
O83 Co72 2.039 . S
O83 C73 1.265 . S
C84 O80 1.253 . S
C84 O85 1.227 . S
O85 C84 1.227 . S
N86 Co72 2.140 . S
N86 C89 1.346 . S
N86 C90 1.345 . S
C87 C88 1.387 . S
C87 C91 1.391 . S
C88 C87 1.387 . S
C88 C89 1.369 . S
C88 H97 0.929 . S
C89 N86 1.346 . S
C89 C88 1.369 . S
C89 H92 0.928 . S
C90 N86 1.345 . S
C90 C91 1.371 . S
C90 H93 0.931 . S
C91 C87 1.391 . S
C91 C90 1.371 . S
C91 H98 0.930 . S
H92 C89 0.928 . S
H93 C90 0.931 . S
H94 C70 0.930 . S
H95 C67 0.930 . S
H96 C76 0.930 . S
H97 C88 0.929 . S
H98 C91 0.930 . S
C99 C100 1.351 . S
C99 N102 1.368 . S
C99 H104 0.931 . S
C100 C99 1.351 . S
C100 N101 1.373 . S
C100 H128 0.930 . S
N101 C100 1.373 . S
N101 C103 1.340 . S
N102 C99 1.368 . S
N102 C103 1.321 . S
N102 Co105 2.135 . S
C103 N101 1.340 . S
C103 N102 1.321 . S
C103 H127 0.930 . S
H104 C99 0.931 . S
Co105 N102 2.135 . S
Co105 N108 2.121 . S
Co105 O113 2.055 . S
Co105 O116 2.039 . S
Co105 N119 2.140 . S
C106 O107 1.227 . S
C106 O116 1.265 . S
O107 C106 1.227 . S
N108 Co105 2.121 . S
N108 C110 1.375 . S
N108 C111 1.313 . S
C109 C110 1.338 . S
C109 N112 1.377 . S
C109 H129 0.930 . S
C110 N108 1.375 . S
C110 C109 1.338 . S
C110 H114 0.931 . S
C111 N108 1.313 . S
C111 N112 1.344 . S
C111 H115 0.930 . S
N112 C109 1.377 . S
N112 C111 1.344 . S
O113 Co105 2.055 . S
O113 C117 1.253 . S
H114 C110 0.931 . S
H115 C111 0.930 . S
O116 Co105 2.039 . S
O116 C106 1.265 . S
C117 O113 1.253 . S
C117 O118 1.227 . S
O118 C117 1.227 . S
N119 Co105 2.140 . S
N119 C122 1.346 . S
N119 C123 1.345 . S
C120 C121 1.387 . S
C120 C124 1.391 . S
C121 C120 1.387 . S
C121 C122 1.369 . S
C121 H130 0.929 . S
C122 N119 1.346 . S
C122 C121 1.369 . S
C122 H125 0.928 . S
C123 N119 1.345 . S
C123 C124 1.371 . S
C123 H126 0.931 . S
C124 C120 1.391 . S
C124 C123 1.371 . S
C124 H131 0.930 . S
H125 C122 0.928 . S
H126 C123 0.931 . S
H127 C103 0.930 . S
H128 C100 0.930 . S
H129 C109 0.930 . S
H130 C121 0.929 . S
H131 C124 0.930 . S
C132 C133 1.351 . S
C132 N135 1.368 . S
C132 H137 0.931 . S
C133 C132 1.351 . S
C133 N134 1.373 . S
C133 H161 0.930 . S
N134 C133 1.373 . S
N134 C136 1.340 . S
N135 C132 1.368 . S
N135 C136 1.321 . S
N135 Co138 2.135 . S
C136 N134 1.340 . S
C136 N135 1.321 . S
C136 H160 0.930 . S
H137 C132 0.931 . S
Co138 N135 2.135 . S
Co138 N141 2.121 . S
Co138 O146 2.055 . S
Co138 O149 2.039 . S
Co138 N152 2.140 . S
C139 O140 1.227 . S
C139 O149 1.265 . S
O140 C139 1.227 . S
N141 Co138 2.121 . S
N141 C143 1.375 . S
N141 C144 1.313 . S
C142 C143 1.338 . S
C142 N145 1.377 . S
C142 H162 0.930 . S
C143 N141 1.375 . S
C143 C142 1.338 . S
C143 H147 0.931 . S
C144 N141 1.313 . S
C144 N145 1.344 . S
C144 H148 0.930 . S
N145 C142 1.377 . S
N145 C144 1.344 . S
O146 Co138 2.055 . S
O146 C150 1.253 . S
H147 C143 0.931 . S
H148 C144 0.930 . S
O149 Co138 2.039 . S
O149 C139 1.265 . S
C150 O146 1.253 . S
C150 O151 1.227 . S
O151 C150 1.227 . S
N152 Co138 2.140 . S
N152 C155 1.346 . S
N152 C156 1.345 . S
C153 C154 1.387 . S
C153 C157 1.391 . S
C154 C153 1.387 . S
C154 C155 1.369 . S
C154 H163 0.929 . S
C155 N152 1.346 . S
C155 C154 1.369 . S
C155 H158 0.928 . S
C156 N152 1.345 . S
C156 C157 1.371 . S
C156 H159 0.931 . S
C157 C153 1.391 . S
C157 C156 1.371 . S
C157 H164 0.930 . S
H158 C155 0.928 . S
H159 C156 0.931 . S
H160 C136 0.930 . S
H161 C133 0.930 . S
H162 C142 0.930 . S
H163 C154 0.929 . S
H164 C157 0.930 . S
C165 C166 1.351 . S
C165 N168 1.368 . S
C165 H170 0.931 . S
C166 C165 1.351 . S
C166 N167 1.373 . S
C166 H194 0.930 . S
N167 C166 1.373 . S
N167 C169 1.340 . S
N168 C165 1.368 . S
N168 C169 1.321 . S
N168 Co171 2.135 . S
C169 N167 1.340 . S
C169 N168 1.321 . S
C169 H193 0.930 . S
H170 C165 0.931 . S
Co171 N168 2.135 . S
Co171 N174 2.121 . S
Co171 O179 2.055 . S
Co171 O182 2.039 . S
Co171 N185 2.140 . S
C172 O173 1.227 . S
C172 O182 1.265 . S
O173 C172 1.227 . S
N174 Co171 2.121 . S
N174 C176 1.375 . S
N174 C177 1.313 . S
C175 C176 1.338 . S
C175 N178 1.377 . S
C175 H195 0.930 . S
C176 N174 1.375 . S
C176 C175 1.338 . S
C176 H180 0.931 . S
C177 N174 1.313 . S
C177 N178 1.344 . S
C177 H181 0.930 . S
N178 C175 1.377 . S
N178 C177 1.344 . S
O179 Co171 2.055 . S
O179 C183 1.253 . S
H180 C176 0.931 . S
H181 C177 0.930 . S
O182 Co171 2.039 . S
O182 C172 1.265 . S
C183 O179 1.253 . S
C183 O184 1.227 . S
O184 C183 1.227 . S
N185 Co171 2.140 . S
N185 C188 1.346 . S
N185 C189 1.345 . S
C186 C187 1.387 . S
C186 C190 1.391 . S
C187 C186 1.387 . S
C187 C188 1.369 . S
C187 H196 0.929 . S
C188 N185 1.346 . S
C188 C187 1.369 . S
C188 H191 0.928 . S
C189 N185 1.345 . S
C189 C190 1.371 . S
C189 H192 0.931 . S
C190 C186 1.391 . S
C190 C189 1.371 . S
C190 H197 0.930 . S
H191 C188 0.928 . S
H192 C189 0.931 . S
H193 C169 0.930 . S
H194 C166 0.930 . S
H195 C175 0.930 . S
H196 C187 0.929 . S
H197 C190 0.930 . S
C198 C199 1.349 . S
C198 C200 1.327 . S
C198 H223 0.950 . S
C199 C198 1.349 . S
C199 C215 1.349 . S
C200 C198 1.327 . S
C200 C219 1.429 . S
C200 H224 0.950 . S
C201 C218 1.574 1_545 S
C201 C220 1.368 . S
C201 H225 0.949 . S
H202 C206 0.949 . S
C203 C204 1.349 . S
C203 C205 1.327 . S
C203 H226 0.950 . S
C204 C203 1.349 . S
C204 C216 1.349 . S
C205 C203 1.327 . S
C205 C221 1.429 . S
C205 H227 0.950 . S
C206 H202 0.949 . S
C206 C214 1.574 1_565 S
C206 C222 1.368 . S
H207 C215 0.950 . S
H208 C213 0.950 . S
H209 C214 0.949 . S
H210 C216 0.950 . S
H211 C217 0.950 . S
H212 C218 0.949 . S
C213 H208 0.950 . S
C213 C215 1.327 . S
C213 C219 1.429 . S
C214 C206 1.574 1_545 S
C214 H209 0.949 . S
C214 C220 1.368 . S
C215 C199 1.349 . S
C215 H207 0.950 . S
C215 C213 1.327 . S
C216 C204 1.349 . S
C216 H210 0.950 . S
C216 C217 1.327 . S
C217 H211 0.950 . S
C217 C216 1.327 . S
C217 C221 1.429 . S
C218 C201 1.574 1_565 S
C218 H212 0.949 . S
C218 C222 1.368 . S
C219 C200 1.429 . S
C219 C213 1.429 . S
C219 C220 1.523 . S
C220 C201 1.368 . S
C220 C214 1.368 . S
C220 C219 1.523 . S
C221 C205 1.429 . S
C221 C217 1.429 . S
C221 C222 1.523 . S
C222 C206 1.368 . S
C222 C218 1.368 . S
C222 C221 1.523 . S
H223 C198 0.950 . S
H224 C200 0.950 . S
H225 C201 0.949 . S
H226 C203 0.950 . S
H227 C205 0.950 . S
C228 C229 1.349 . S
C228 C230 1.327 . S
C228 H253 0.950 . S
C229 C228 1.349 . S
C229 C245 1.349 . S
C230 C228 1.327 . S
C230 C249 1.429 . S
C230 H254 0.950 . S
C231 C248 1.574 1_455 S
C231 C250 1.368 . S
C231 H255 0.949 . S
H232 C236 0.949 . S
C233 C234 1.349 . S
C233 C235 1.327 . S
C233 H256 0.950 . S
C234 C233 1.349 . S
C234 C246 1.349 . S
C235 C233 1.327 . S
C235 C251 1.429 . S
C235 H257 0.950 . S
C236 H232 0.949 . S
C236 C244 1.574 1_655 S
C236 C252 1.368 . S
H237 C245 0.950 . S
H238 C243 0.950 . S
H239 C244 0.949 . S
H240 C246 0.950 . S
H241 C247 0.950 . S
H242 C248 0.949 . S
C243 H238 0.950 . S
C243 C245 1.327 . S
C243 C249 1.429 . S
C244 C236 1.574 1_455 S
C244 H239 0.949 . S
C244 C250 1.368 . S
C245 C229 1.349 . S
C245 H237 0.950 . S
C245 C243 1.327 . S
C246 C234 1.349 . S
C246 H240 0.950 . S
C246 C247 1.327 . S
C247 H241 0.950 . S
C247 C246 1.327 . S
C247 C251 1.429 . S
C248 C231 1.574 1_655 S
C248 H242 0.949 . S
C248 C252 1.368 . S
C249 C230 1.429 . S
C249 C243 1.429 . S
C249 C250 1.523 . S
C250 C231 1.368 . S
C250 C244 1.368 . S
C250 C249 1.523 . S
C251 C235 1.429 . S
C251 C247 1.429 . S
C251 C252 1.523 . S
C252 C236 1.368 . S
C252 C248 1.368 . S
C252 C251 1.523 . S
H253 C228 0.950 . S
H254 C230 0.950 . S
H255 C231 0.949 . S
H256 C233 0.950 . S
H257 C235 0.950 . S
C258 C259 1.349 . S
C258 C260 1.327 . S
C258 H283 0.950 . S
C259 C258 1.349 . S
C259 C275 1.349 . S
C260 C258 1.327 . S
C260 C279 1.429 . S
C260 H284 0.950 . S
C261 C278 1.574 . S
C261 C280 1.368 . S
C261 H285 0.949 . S
H262 C266 0.949 . S
C263 C264 1.349 . S
C263 C265 1.327 . S
C263 H286 0.950 . S
C264 C263 1.349 . S
C264 C276 1.349 . S
C265 C263 1.327 . S
C265 C281 1.429 . S
C265 H287 0.950 . S
C266 H262 0.949 . S
C266 C274 1.574 . S
C266 C282 1.368 . S
H267 C275 0.950 . S
H268 C273 0.950 . S
H269 C274 0.949 . S
H270 C276 0.950 . S
H271 C277 0.950 . S
H272 C278 0.949 . S
C273 H268 0.950 . S
C273 C275 1.327 . S
C273 C279 1.429 . S
C274 C266 1.574 . S
C274 H269 0.949 . S
C274 C280 1.368 . S
C275 C259 1.349 . S
C275 H267 0.950 . S
C275 C273 1.327 . S
C276 C264 1.349 . S
C276 H270 0.950 . S
C276 C277 1.327 . S
C277 H271 0.950 . S
C277 C276 1.327 . S
C277 C281 1.429 . S
C278 C261 1.574 . S
C278 H272 0.949 . S
C278 C282 1.368 . S
C279 C260 1.429 . S
C279 C273 1.429 . S
C279 C280 1.523 . S
C280 C261 1.368 . S
C280 C274 1.368 . S
C280 C279 1.523 . S
C281 C265 1.429 . S
C281 C277 1.429 . S
C281 C282 1.523 . S
C282 C266 1.368 . S
C282 C278 1.368 . S
C282 C281 1.523 . S
H283 C258 0.950 . S
H284 C260 0.950 . S
H285 C261 0.949 . S
H286 C263 0.950 . S
H287 C265 0.950 . S
C288 C289 1.349 . S
C288 C290 1.327 . S
C288 H313 0.950 . S
C289 C288 1.349 . S
C289 C305 1.349 . S
C290 C288 1.327 . S
C290 C309 1.429 . S
C290 H314 0.950 . S
C291 C308 1.574 . S
C291 C310 1.368 . S
C291 H315 0.949 . S
H292 C296 0.949 . S
C293 C294 1.349 . S
C293 C295 1.327 . S
C293 H316 0.950 . S
C294 C293 1.349 . S
C294 C306 1.349 . S
C295 C293 1.327 . S
C295 C311 1.429 . S
C295 H317 0.950 . S
C296 H292 0.949 . S
C296 C304 1.574 . S
C296 C312 1.368 . S
H297 C305 0.950 . S
H298 C303 0.950 . S
H299 C304 0.949 . S
H300 C306 0.950 . S
H301 C307 0.950 . S
H302 C308 0.949 . S
C303 H298 0.950 . S
C303 C305 1.327 . S
C303 C309 1.429 . S
C304 C296 1.574 . S
C304 H299 0.949 . S
C304 C310 1.368 . S
C305 C289 1.349 . S
C305 H297 0.950 . S
C305 C303 1.327 . S
C306 C294 1.349 . S
C306 H300 0.950 . S
C306 C307 1.327 . S
C307 H301 0.950 . S
C307 C306 1.327 . S
C307 C311 1.429 . S
C308 C291 1.574 . S
C308 H302 0.949 . S
C308 C312 1.368 . S
C309 C290 1.429 . S
C309 C303 1.429 . S
C309 C310 1.523 . S
C310 C291 1.368 . S
C310 C304 1.368 . S
C310 C309 1.523 . S
C311 C295 1.429 . S
C311 C307 1.429 . S
C311 C312 1.523 . S
C312 C296 1.368 . S
C312 C308 1.368 . S
C312 C311 1.523 . S
H313 C288 0.950 . S
H314 C290 0.950 . S
H315 C291 0.949 . S
H316 C293 0.950 . S
H317 C295 0.950 . S
C318 C319 1.349 . S
C318 C320 1.327 . S
C318 H343 0.950 . S
C319 C318 1.349 . S
C319 C335 1.349 . S
C320 C318 1.327 . S
C320 C339 1.429 . S
C320 H344 0.950 . S
C321 C338 1.574 . S
C321 C340 1.368 . S
C321 H345 0.949 . S
H322 C326 0.949 . S
C323 C324 1.349 . S
C323 C325 1.327 1_545 S
C323 H346 0.950 . S
C324 C323 1.349 . S
C324 C336 1.349 . S
C325 C323 1.327 1_565 S
C325 C341 1.429 . S
C325 H347 0.950 . S
C326 H322 0.949 . S
C326 C334 1.574 . S
C326 C342 1.368 . S
H327 C335 0.950 . S
H328 C333 0.950 . S
H329 C334 0.949 . S
H330 C336 0.950 . S
H331 C337 0.949 1_565 S
H332 C338 0.949 . S
C333 H328 0.950 . S
C333 C335 1.327 . S
C333 C339 1.429 . S
C334 C326 1.574 . S
C334 H329 0.949 . S
C334 C340 1.368 . S
C335 C319 1.349 . S
C335 H327 0.950 . S
C335 C333 1.327 . S
C336 C324 1.349 . S
C336 H330 0.950 . S
C336 C337 1.325 . S
C337 H331 0.949 1_545 S
C337 C336 1.325 . S
C337 C341 1.432 1_545 S
C338 C321 1.574 . S
C338 H332 0.949 . S
C338 C342 1.368 . S
C339 C320 1.429 . S
C339 C333 1.429 . S
C339 C340 1.523 . S
C340 C321 1.368 . S
C340 C334 1.368 . S
C340 C339 1.523 . S
C341 C325 1.429 . S
C341 C337 1.432 1_565 S
C341 C342 1.523 . S
C342 C326 1.368 . S
C342 C338 1.368 . S
C342 C341 1.523 . S
H343 C318 0.950 . S
H344 C320 0.950 . S
H345 C321 0.949 . S
H346 C323 0.950 . S
H347 C325 0.950 . S
C348 C349 1.349 . S
C348 C350 1.327 1_655 S
C348 H373 0.950 . S
C349 C348 1.349 . S
C349 C365 1.349 . S
C350 C348 1.327 1_455 S
C350 C369 1.429 . S
C350 H374 0.950 . S
C351 C368 1.574 . S
C351 C370 1.368 . S
C351 H375 0.949 . S
H352 C356 0.949 . S
C353 C354 1.349 . S
C353 C355 1.327 . S
C353 H376 0.950 . S
C354 C353 1.349 . S
C354 C366 1.349 . S
C355 C353 1.327 . S
C355 C371 1.429 . S
C355 H377 0.950 . S
C356 H352 0.949 . S
C356 C364 1.574 . S
C356 C372 1.368 . S
H357 C365 0.950 . S
H358 C363 0.950 1_455 S
H359 C364 0.949 . S
H360 C366 0.950 . S
H361 C367 0.950 . S
H362 C368 0.949 . S
C363 H358 0.950 1_655 S
C363 C365 1.335 . S
C363 C369 1.420 1_655 S
C364 C356 1.574 . S
C364 H359 0.949 . S
C364 C370 1.368 . S
C365 C349 1.349 . S
C365 H357 0.950 . S
C365 C363 1.335 . S
C366 C354 1.349 . S
C366 H360 0.950 . S
C366 C367 1.327 . S
C367 H361 0.950 . S
C367 C366 1.327 . S
C367 C371 1.429 . S
C368 C351 1.574 . S
C368 H362 0.949 . S
C368 C372 1.368 . S
C369 C350 1.429 . S
C369 C363 1.420 1_455 S
C369 C370 1.523 . S
C370 C351 1.368 . S
C370 C364 1.368 . S
C370 C369 1.523 . S
C371 C355 1.429 . S
C371 C367 1.429 . S
C371 C372 1.523 . S
C372 C356 1.368 . S
C372 C368 1.368 . S
C372 C371 1.523 . S
H373 C348 0.950 . S
H374 C350 0.950 . S
H375 C351 0.949 . S
H376 C353 0.950 . S
H377 C355 0.950 . S
C378 C379 1.349 . S
C378 C380 1.327 . S
C378 H403 0.950 . S
C379 C378 1.349 . S
C379 C395 1.349 . S
C380 C378 1.327 . S
C380 C399 1.429 . S
C380 H404 0.950 . S
C381 C398 1.574 . S
C381 C400 1.368 . S
C381 H405 0.949 . S
H382 C386 0.949 . S
C383 C384 1.349 . S
C383 C385 1.327 . S
C383 H406 0.950 . S
C384 C383 1.349 . S
C384 C396 1.349 . S
C385 C383 1.327 . S
C385 C401 1.429 . S
C385 H407 0.950 . S
C386 H382 0.949 . S
C386 C394 1.574 . S
C386 C402 1.368 . S
H387 C395 0.950 . S
H388 C393 0.950 . S
H389 C394 0.949 . S
H390 C396 0.950 . S
H391 C397 0.950 . S
H392 C398 0.949 . S
C393 H388 0.950 . S
C393 C395 1.327 . S
C393 C399 1.429 . S
C394 C386 1.574 . S
C394 H389 0.949 . S
C394 C400 1.368 . S
C395 C379 1.349 . S
C395 H387 0.950 . S
C395 C393 1.327 . S
C396 C384 1.349 . S
C396 H390 0.950 . S
C396 C397 1.327 . S
C397 H391 0.950 . S
C397 C396 1.327 . S
C397 C401 1.429 . S
C398 C381 1.574 . S
C398 H392 0.949 . S
C398 C402 1.368 . S
C399 C380 1.429 . S
C399 C393 1.429 . S
C399 C400 1.523 . S
C400 C381 1.368 . S
C400 C394 1.368 . S
C400 C399 1.523 . S
C401 C385 1.429 . S
C401 C397 1.429 . S
C401 C402 1.523 . S
C402 C386 1.368 . S
C402 C398 1.368 . S
C402 C401 1.523 . S
H403 C378 0.950 . S
H404 C380 0.950 . S
H405 C381 0.949 . S
H406 C383 0.950 . S
H407 C385 0.950 . S
C408 C409 1.349 . S
C408 C410 1.327 . S
C408 H433 0.950 . S
C409 C408 1.349 . S
C409 C425 1.349 . S
C410 C408 1.327 . S
C410 C429 1.429 . S
C410 H434 0.950 . S
C411 C428 1.574 . S
C411 C430 1.368 . S
C411 H435 0.949 . S
H412 C416 0.949 . S
C413 C414 1.349 . S
C413 C415 1.351 . S
C413 H436 0.950 . S
C414 C413 1.349 . S
C414 C426 1.349 . S
C415 C413 1.351 . S
C415 C431 1.413 1_565 S
C415 H437 0.939 1_565 S
C416 H412 0.949 . S
C416 C424 1.574 . S
C416 C432 1.368 . S
H417 C425 0.950 . S
H418 C423 0.950 . S
H419 C424 0.949 . S
H420 C426 0.950 . S
H421 C427 0.950 . S
H422 C428 0.949 . S
C423 H418 0.950 . S
C423 C425 1.327 . S
C423 C429 1.429 . S
C424 C416 1.574 . S
C424 H419 0.949 . S
C424 C430 1.368 . S
C425 C409 1.349 . S
C425 H417 0.950 . S
C425 C423 1.327 . S
C426 C414 1.349 . S
C426 H420 0.950 . S
C426 C427 1.327 1_565 S
C427 H421 0.950 . S
C427 C426 1.327 1_545 S
C427 C431 1.429 . S
C428 C411 1.574 . S
C428 H422 0.949 . S
C428 C432 1.368 . S
C429 C410 1.429 . S
C429 C423 1.429 . S
C429 C430 1.523 . S
C430 C411 1.368 . S
C430 C424 1.368 . S
C430 C429 1.523 . S
C431 C415 1.413 1_545 S
C431 C427 1.429 . S
C431 C432 1.523 . S
C432 C416 1.368 . S
C432 C428 1.368 . S
C432 C431 1.523 . S
H433 C408 0.950 . S
H434 C410 0.950 . S
H435 C411 0.949 . S
H436 C413 0.950 . S
H437 C415 0.939 1_545 S
C438 C439 1.349 . S
C438 C440 1.327 1_455 S
C438 H463 0.950 . S
C439 C438 1.349 . S
C439 C455 1.349 . S
C440 C438 1.327 1_655 S
C440 C459 1.429 . S
C440 H464 0.950 . S
C441 C458 1.574 . S
C441 C460 1.368 . S
C441 H465 0.949 . S
H442 C446 0.949 . S
C443 C444 1.349 . S
C443 C445 1.327 . S
C443 H466 0.950 . S
C444 C443 1.349 . S
C444 C456 1.349 . S
C445 C443 1.327 . S
C445 C461 1.429 . S
C445 H467 0.950 . S
C446 H442 0.949 . S
C446 C454 1.574 . S
C446 C462 1.368 . S
H447 C455 0.950 . S
H448 C453 0.950 . S
H449 C454 0.949 . S
H450 C456 0.950 . S
H451 C457 0.950 . S
H452 C458 0.949 . S
C453 H448 0.950 . S
C453 C455 1.327 1_655 S
C453 C459 1.429 . S
C454 C446 1.574 . S
C454 H449 0.949 . S
C454 C460 1.368 . S
C455 C439 1.349 . S
C455 H447 0.950 . S
C455 C453 1.327 1_455 S
C456 C444 1.349 . S
C456 H450 0.950 . S
C456 C457 1.327 . S
C457 H451 0.950 . S
C457 C456 1.327 . S
C457 C461 1.429 . S
C458 C441 1.574 . S
C458 H452 0.949 . S
C458 C462 1.368 . S
C459 C440 1.429 . S
C459 C453 1.429 . S
C459 C460 1.523 . S
C460 C441 1.368 . S
C460 C454 1.368 . S
C460 C459 1.523 . S
C461 C445 1.429 . S
C461 C457 1.429 . S
C461 C462 1.523 . S
C462 C446 1.368 . S
C462 C458 1.368 . S
C462 C461 1.523 . S
H463 C438 0.950 . S
H464 C440 0.950 . S
H465 C441 0.949 . S
H466 C443 0.950 . S
H467 C445 0.950 . S
C468 C469 1.349 . S
C468 C470 1.327 . S
C468 H493 0.950 . S
C469 C468 1.349 . S
C469 C485 1.349 . S
C470 C468 1.327 . S
C470 C489 1.429 . S
C470 H494 0.950 . S
C471 C488 1.574 . S
C471 C490 1.368 . S
C471 H495 0.949 . S
H472 C476 0.949 . S
C473 C474 1.349 . S
C473 C475 1.327 . S
C473 H496 0.950 . S
C474 C473 1.349 . S
C474 C486 1.349 . S
C475 C473 1.327 . S
C475 C491 1.429 . S
C475 H497 0.950 . S
C476 H472 0.949 . S
C476 C484 1.574 1_545 S
C476 C492 1.368 . S
H477 C485 0.950 . S
H478 C483 0.950 1_545 S
H479 C484 0.949 . S
H480 C486 0.950 . S
H481 C487 0.950 . S
H482 C488 0.949 . S
C483 H478 0.950 1_565 S
C483 C485 1.327 . S
C483 C489 1.429 . S
C484 C476 1.574 1_565 S
C484 H479 0.949 . S
C484 C490 1.368 1_565 S
C485 C469 1.349 . S
C485 H477 0.950 . S
C485 C483 1.327 . S
C486 C474 1.349 . S
C486 H480 0.950 . S
C486 C487 1.327 . S
C487 H481 0.950 . S
C487 C486 1.327 . S
C487 C491 1.429 . S
C488 C471 1.574 . S
C488 H482 0.949 . S
C488 C492 1.368 . S
C489 C470 1.429 . S
C489 C483 1.429 . S
C489 C490 1.523 1_565 S
C490 C471 1.368 . S
C490 C484 1.368 1_545 S
C490 C489 1.523 1_545 S
C491 C475 1.429 . S
C491 C487 1.429 . S
C491 C492 1.523 . S
C492 C476 1.368 . S
C492 C488 1.368 . S
C492 C491 1.523 . S
H493 C468 0.950 . S
H494 C470 0.950 . S
H495 C471 0.949 . S
H496 C473 0.950 . S
H497 C475 0.950 . S
C498 C499 1.349 . S
C498 C500 1.327 . S
C498 H523 0.950 . S
C499 C498 1.349 . S
C499 C515 1.349 . S
C500 C498 1.327 . S
C500 C519 1.429 . S
C500 H524 0.950 . S
C501 C518 1.550 1_656 S
C501 C520 1.368 . S
C501 H525 0.949 . S
H502 C506 0.949 . S
C503 C504 1.349 . S
C503 C505 1.327 . S
C503 H526 0.950 . S
C504 C503 1.349 . S
C504 C516 1.349 . S
C505 C503 1.327 . S
C505 C521 1.429 . S
C505 H527 0.950 . S
C506 H502 0.949 . S
C506 C514 1.574 . S
C506 C522 1.368 . S
H507 C515 0.950 . S
H508 C513 0.950 . S
H509 C514 0.949 . S
H510 C516 0.950 . S
H511 C517 0.950 1_655 S
H512 C518 0.944 1_556 S
C513 H508 0.950 . S
C513 C515 1.327 . S
C513 C519 1.429 . S
C514 C506 1.574 . S
C514 H509 0.949 . S
C514 C520 1.368 1_554 S
C515 C499 1.349 . S
C515 H507 0.950 . S
C515 C513 1.327 . S
C516 C504 1.349 . S
C516 H510 0.950 . S
C516 C517 1.327 . S
C517 H511 0.950 1_455 S
C517 C516 1.327 . S
C517 C521 1.429 . S
C518 C501 1.550 1_454 S
C518 H512 0.944 1_554 S
C518 C522 1.396 1_455 S
C519 C500 1.429 . S
C519 C513 1.429 . S
C519 C520 1.523 . S
C520 C501 1.368 . S
C520 C514 1.368 1_556 S
C520 C519 1.523 . S
C521 C505 1.429 . S
C521 C517 1.429 . S
C521 C522 1.523 1_455 S
C522 C506 1.368 . S
C522 C518 1.396 1_655 S
C522 C521 1.523 1_655 S
H523 C498 0.950 . S
H524 C500 0.950 . S
H525 C501 0.949 . S
H526 C503 0.950 . S
H527 C505 0.950 . S
C528 C529 1.349 . S
C528 C530 1.327 . S
C528 H553 0.950 . S
C529 C528 1.349 . S
C529 C545 1.349 . S
C530 C528 1.327 . S
C530 C549 1.429 . S
C530 H554 0.950 . S
C531 C548 1.574 . S
C531 C550 1.368 . S
C531 H555 0.949 . S
H532 C536 0.949 . S
C533 C534 1.349 . S
C533 C535 1.327 . S
C533 H556 0.950 . S
C534 C533 1.349 . S
C534 C546 1.349 . S
C535 C533 1.327 . S
C535 C551 1.429 . S
C535 H557 0.950 . S
C536 H532 0.949 . S
C536 C544 1.574 . S
C536 C552 1.368 . S
H537 C545 0.950 . S
H538 C543 0.950 . S
H539 C544 0.949 . S
H540 C546 0.950 . S
H541 C547 0.950 . S
H542 C548 0.949 . S
C543 H538 0.950 . S
C543 C545 1.327 . S
C543 C549 1.429 . S
C544 C536 1.574 . S
C544 H539 0.949 . S
C544 C550 1.368 . S
C545 C529 1.349 . S
C545 H537 0.950 . S
C545 C543 1.327 . S
C546 C534 1.349 . S
C546 H540 0.950 . S
C546 C547 1.327 . S
C547 H541 0.950 . S
C547 C546 1.327 . S
C547 C551 1.429 . S
C548 C531 1.574 . S
C548 H542 0.949 . S
C548 C552 1.368 . S
C549 C530 1.429 . S
C549 C543 1.429 . S
C549 C550 1.523 . S
C550 C531 1.368 . S
C550 C544 1.368 . S
C550 C549 1.523 . S
C551 C535 1.429 . S
C551 C547 1.429 . S
C551 C552 1.523 . S
C552 C536 1.368 . S
C552 C548 1.368 . S
C552 C551 1.523 . S
H553 C528 0.950 . S
H554 C530 0.950 . S
H555 C531 0.949 . S
H556 C533 0.950 . S
H557 C535 0.950 . S
C558 C559 1.349 . S
C558 C560 1.327 . S
C558 H583 0.950 . S
C559 C558 1.349 . S
C559 C575 1.349 . S
C560 C558 1.327 . S
C560 C579 1.429 . S
C560 H584 0.950 . S
C561 C578 1.574 1_455 S
C561 C580 1.368 . S
C561 H585 0.949 . S
H562 C566 0.949 . S
C563 C564 1.349 . S
C563 C565 1.327 . S
C563 H586 0.950 . S
C564 C563 1.349 . S
C564 C576 1.349 . S
C565 C563 1.327 . S
C565 C581 1.429 . S
C565 H587 0.950 . S
C566 H562 0.949 . S
C566 C574 1.574 . S
C566 C582 1.368 . S
H567 C575 0.950 . S
H568 C573 0.950 . S
H569 C574 0.949 . S
H570 C576 0.950 . S
H571 C577 0.950 1_455 S
H572 C578 0.949 . S
C573 H568 0.950 . S
C573 C575 1.327 . S
C573 C579 1.429 . S
C574 C566 1.574 . S
C574 H569 0.949 . S
C574 C580 1.368 . S
C575 C559 1.349 . S
C575 H567 0.950 . S
C575 C573 1.327 . S
C576 C564 1.349 . S
C576 H570 0.950 . S
C576 C577 1.327 . S
C577 H571 0.950 1_655 S
C577 C576 1.327 . S
C577 C581 1.429 . S
C578 C561 1.574 1_655 S
C578 H572 0.949 . S
C578 C582 1.368 1_655 S
C579 C560 1.429 . S
C579 C573 1.429 . S
C579 C580 1.523 . S
C580 C561 1.368 . S
C580 C574 1.368 . S
C580 C579 1.523 . S
C581 C565 1.429 . S
C581 C577 1.429 . S
C581 C582 1.523 1_655 S
C582 C566 1.368 . S
C582 C578 1.368 1_455 S
C582 C581 1.523 1_455 S
H583 C558 0.950 . S
H584 C560 0.950 . S
H585 C561 0.949 . S
H586 C563 0.950 . S
H587 C565 0.950 . S
C588 C589 1.349 . S
C588 C590 1.327 . S
C588 H613 0.950 . S
C589 C588 1.349 . S
C589 C605 1.349 . S
C590 C588 1.327 . S
C590 C609 1.429 . S
C590 H614 0.950 . S
C591 C608 1.574 . S
C591 C610 1.368 . S
C591 H615 0.949 . S
H592 C596 0.949 . S
C593 C594 1.349 . S
C593 C595 1.327 . S
C593 H616 0.950 . S
C594 C593 1.349 . S
C594 C606 1.349 . S
C595 C593 1.327 . S
C595 C611 1.429 . S
C595 H617 0.950 . S
C596 H592 0.949 . S
C596 C604 1.574 . S
C596 C612 1.368 . S
H597 C605 0.950 . S
H598 C603 0.950 . S
H599 C604 0.949 . S
H600 C606 0.950 . S
H601 C607 0.950 . S
H602 C608 0.949 . S
C603 H598 0.950 . S
C603 C605 1.327 . S
C603 C609 1.429 . S
C604 C596 1.574 . S
C604 H599 0.949 . S
C604 C610 1.368 . S
C605 C589 1.349 . S
C605 H597 0.950 . S
C605 C603 1.327 . S
C606 C594 1.349 . S
C606 H600 0.950 . S
C606 C607 1.327 . S
C607 H601 0.950 . S
C607 C606 1.327 . S
C607 C611 1.429 . S
C608 C591 1.574 . S
C608 H602 0.949 . S
C608 C612 1.368 . S
C609 C590 1.429 . S
C609 C603 1.429 . S
C609 C610 1.523 . S
C610 C591 1.368 . S
C610 C604 1.368 . S
C610 C609 1.523 . S
C611 C595 1.429 . S
C611 C607 1.429 . S
C611 C612 1.523 . S
C612 C596 1.368 . S
C612 C608 1.368 . S
C612 C611 1.523 . S
H613 C588 0.950 . S
H614 C590 0.950 . S
H615 C591 0.949 . S
H616 C593 0.950 . S
H617 C595 0.950 . S
C618 C619 1.349 . S
C618 C620 1.327 . S
C618 H643 0.950 . S
C619 C618 1.349 . S
C619 C635 1.349 . S
C620 C618 1.327 . S
C620 C639 1.429 . S
C620 H644 0.950 1_545 S
C621 C638 1.574 1_556 S
C621 C640 1.368 . S
C621 H645 0.949 1_565 S
H622 C626 0.949 . S
C623 C624 1.349 . S
C623 C625 1.327 . S
C623 H646 0.950 . S
C624 C623 1.349 . S
C624 C636 1.349 . S
C625 C623 1.327 . S
C625 C641 1.429 . S
C625 H647 0.950 . S
C626 H622 0.949 . S
C626 C634 1.574 1_554 S
C626 C642 1.368 . S
H627 C635 0.950 . S
H628 C633 0.950 . S
H629 C634 0.949 . S
H630 C636 0.950 . S
H631 C637 0.950 . S
H632 C638 0.949 . S
C633 H628 0.950 . S
C633 C635 1.327 . S
C633 C639 1.429 . S
C634 C626 1.574 1_556 S
C634 H629 0.949 . S
C634 C640 1.368 . S
C635 C619 1.349 . S
C635 H627 0.950 . S
C635 C633 1.327 . S
C636 C624 1.349 . S
C636 H630 0.950 . S
C636 C637 1.327 . S
C637 H631 0.950 . S
C637 C636 1.327 . S
C637 C641 1.429 . S
C638 C621 1.574 1_554 S
C638 H632 0.949 . S
C638 C642 1.368 . S
C639 C620 1.429 . S
C639 C633 1.429 . S
C639 C640 1.523 1_545 S
C640 C621 1.368 . S
C640 C634 1.368 . S
C640 C639 1.523 1_565 S
C641 C625 1.429 . S
C641 C637 1.429 . S
C641 C642 1.523 . S
C642 C626 1.368 . S
C642 C638 1.368 . S
C642 C641 1.523 . S
H643 C618 0.950 . S
H644 C620 0.950 1_565 S
H645 C621 0.949 1_545 S
H646 C623 0.950 . S
H647 C625 0.950 . S
C199 C7 1.409 . S
C204 C172 1.409 . S
C229 C106 1.409 . S
C234 C40 1.409 . S
C259 C139 1.409 . S
C264 C73 1.409 . S
C289 C186 1.077 . S
C294 N13 1.066 . S
C319 C120 1.077 . S
C324 N46 1.066 . S
C349 N79 1.066 . S
C354 C153 1.077 . S
C379 C54 1.077 . S
C384 N112 1.066 . S
C409 C87 1.077 . S
C414 N145 1.066 . S
C439 N178 1.066 . S
C444 C21 1.077 . S
C469 C150 1.643 . S
C474 N2 1.596 . S
C499 N35 1.596 . S
C504 C183 1.643 . S
C529 C117 1.642 . S
C534 N68 1.595 . S
C559 N101 1.596 . S
C564 C84 1.643 . S
C589 C18 1.642 . S
C594 N134 1.595 . S
C619 C51 1.643 . S
C624 N167 1.596 . S
