# Generated by pormake.
# Topology umw, (4)-cn, num edge types: 1
# Building blocks:
#     Node 0, Type 0, BuildingBlock: QUQFOY_clean_sbu_1, # of connection points: 4
#     Node 1, Type 0, BuildingBlock: QUQFOY_clean_sbu_1, # of connection points: 4
#     Node 2, Type 0, BuildingBlock: QUQFOY_clean_sbu_1, # of connection points: 4
#     Node 3, Type 0, BuildingBlock: QUQFOY_clean_sbu_1, # of connection points: 4
#     Node 4, Type 0, BuildingBlock: QUQFOY_clean_sbu_1, # of connection points: 4
#     Node 5, Type 0, BuildingBlock: QUQFOY_clean_sbu_1, # of connection points: 4
#     Node 6, Type 0, BuildingBlock: QUQFOY_clean_sbu_1, # of connection points: 4
#     Node 7, Type 0, BuildingBlock: QUQFOY_clean_sbu_1, # of connection points: 4
#     Edge 8, Type (0, 0), BuildingBlock: KIFKEQ_clean_linker_1, # of connection points: 2
#     Edge 9, Type (0, 0), BuildingBlock: KIFKEQ_clean_linker_1, # of connection points: 2
#     Edge 10, Type (0, 0), BuildingBlock: KIFKEQ_clean_linker_1, # of connection points: 2
#     Edge 11, Type (0, 0), BuildingBlock: KIFKEQ_clean_linker_1, # of connection points: 2
#     Edge 12, Type (0, 0), BuildingBlock: KIFKEQ_clean_linker_1, # of connection points: 2
#     Edge 13, Type (0, 0), BuildingBlock: KIFKEQ_clean_linker_1, # of connection points: 2
#     Edge 14, Type (0, 0), BuildingBlock: KIFKEQ_clean_linker_1, # of connection points: 2
#     Edge 15, Type (0, 0), BuildingBlock: KIFKEQ_clean_linker_1, # of connection points: 2
#     Edge 16, Type (0, 0), BuildingBlock: KIFKEQ_clean_linker_1, # of connection points: 2
#     Edge 17, Type (0, 0), BuildingBlock: KIFKEQ_clean_linker_1, # of connection points: 2
#     Edge 18, Type (0, 0), BuildingBlock: KIFKEQ_clean_linker_1, # of connection points: 2
#     Edge 19, Type (0, 0), BuildingBlock: KIFKEQ_clean_linker_1, # of connection points: 2
#     Edge 20, Type (0, 0), BuildingBlock: KIFKEQ_clean_linker_1, # of connection points: 2
#     Edge 21, Type (0, 0), BuildingBlock: KIFKEQ_clean_linker_1, # of connection points: 2
#     Edge 22, Type (0, 0), BuildingBlock: KIFKEQ_clean_linker_1, # of connection points: 2
#     Edge 23, Type (0, 0), BuildingBlock: KIFKEQ_clean_linker_1, # of connection points: 2
# Relax obj value: 0.048
# Max RMSD: 0.094
# Mean RMSD: 0.094
data_MOF--net-umw--node1-QUQFOY_clean_sbu_1--edge1-KIFKEQ_clean_linker_1
_symmetry_space_group_name_H-M    P1
_symmetry_Int_Tables_number       1
_symmetry_cell_setting            triclinic
loop_
_symmetry_equiv_pos_as_xyz
'x, y, z'
_cell_length_a     43.869146
_cell_length_b     43.880775
_cell_length_c     28.365064
_cell_angle_alpha  89.958714
_cell_angle_beta   90.076191
_cell_angle_gamma 90.118868
loop_
_atom_site_label
_atom_site_type_symbol
_atom_site_fract_x
_atom_site_fract_y
_atom_site_fract_z
_atom_type_partial_charge
O0 O 0.42039 0.18539 0.40647 0.0
Cd1 Cd 0.38881 0.16966 0.35886 0.0
Cd2 Cd 0.44724 0.16892 0.30593 0.0
O3 O 0.4637 0.18858 0.3671 0.0
O4 O 0.3529 0.16983 0.4017 0.0
O5 O 0.35589 0.19924 0.33884 0.0
C6 C 0.34138 0.19123 0.37645 0.0
C7 C 0.46414 0.18618 0.23213 0.0
C8 C 0.44845 0.19233 0.40471 0.0
C9 C 0.41215 0.10966 0.3211 0.0
O10 O 0.43643 0.12319 0.30828 0.0
O11 O 0.3901 0.12446 0.33891 0.0
O12 O 0.48164 0.17094 0.25997 0.0
O13 O 0.43707 0.19269 0.24691 0.0
O14 O 0.80186 0.42596 0.63721 0.0
Cd15 Cd 0.81828 0.3925 0.59365 0.0
Cd16 Cd 0.82174 0.44891 0.53533 0.0
O17 O 0.80304 0.46822 0.59482 0.0
O18 O 0.81704 0.35837 0.63997 0.0
O19 O 0.78919 0.35859 0.57529 0.0
C20 C 0.79643 0.34558 0.61456 0.0
C21 C 0.80455 0.46489 0.46105 0.0
C22 C 0.79706 0.45433 0.63301 0.0
C23 C 0.87971 0.41332 0.55622 0.0
O24 O 0.86705 0.43686 0.53895 0.0
O25 O 0.86404 0.39285 0.57677 0.0
O26 O 0.82103 0.48221 0.48747 0.0
O27 O 0.7971 0.43838 0.47728 0.0
O28 O 0.57487 0.81607 0.91305 0.0
Cd29 Cd 0.60192 0.82254 0.85508 0.0
Cd30 Cd 0.54574 0.82174 0.81248 0.0
O31 O 0.53201 0.80416 0.87666 0.0
O32 O 0.64325 0.81533 0.88146 0.0
O33 O 0.62069 0.78383 0.83124 0.0
C34 C 0.64314 0.78975 0.85932 0.0
C35 C 0.52852 0.80104 0.74133 0.0
C36 C 0.54766 0.80626 0.91427 0.0
C37 C 0.58112 0.88085 0.81379 0.0
O38 O 0.5554 0.86774 0.80939 0.0
O39 O 0.60433 0.86578 0.82694 0.0
O40 O 0.51073 0.81648 0.76838 0.0
O41 O 0.55602 0.79607 0.7558 0.0
O42 O 0.17976 0.57321 0.15896 0.0
Cd43 Cd 0.16885 0.60356 0.10677 0.0
Cd44 Cd 0.17004 0.54554 0.05771 0.0
O45 O 0.18926 0.5306 0.12052 0.0
O46 O 0.16988 0.6414 0.14537 0.0
O47 O 0.20157 0.63332 0.08647 0.0
C48 C 0.19312 0.65016 0.12136 0.0
C49 C 0.18804 0.52785 0.98474 0.0
C50 C 0.18875 0.54576 0.15872 0.0
C51 C 0.1102 0.58048 0.06671 0.0
O52 O 0.12394 0.55563 0.05782 0.0
O53 O 0.12473 0.60339 0.08247 0.0
O54 O 0.17297 0.51046 0.013 0.0
O55 O 0.19418 0.55519 0.99882 0.0
O56 O 0.42467 0.80492 0.22839 0.0
Cd57 Cd 0.39171 0.81979 0.27416 0.0
Cd58 Cd 0.44839 0.82127 0.3312 0.0
O59 O 0.46712 0.8038 0.27037 0.0
O60 O 0.35667 0.81878 0.22949 0.0
O61 O 0.3589 0.78959 0.29267 0.0
C62 C 0.34495 0.79728 0.25437 0.0
C63 C 0.46496 0.80276 0.40439 0.0
C64 C 0.45296 0.79945 0.23187 0.0
C65 C 0.41277 0.87995 0.31518 0.0
O66 O 0.43654 0.86666 0.3305 0.0
O67 O 0.39186 0.86501 0.29433 0.0
O68 O 0.48217 0.81951 0.37823 0.0
O69 O 0.43829 0.79565 0.38838 0.0
O70 O 0.17985 0.41638 0.47274 0.0
Cd71 Cd 0.16814 0.38597 0.52451 0.0
Cd72 Cd 0.16964 0.4441 0.57347 0.0
O73 O 0.18952 0.45898 0.51123 0.0
O74 O 0.16834 0.34846 0.48508 0.0
O75 O 0.20007 0.35532 0.54446 0.0
C76 C 0.19129 0.33899 0.5091 0.0
C77 C 0.18746 0.46134 0.64692 0.0
C78 C 0.18912 0.44378 0.47307 0.0
C79 C 0.10946 0.40979 0.56297 0.0
O80 O 0.1234 0.4346 0.57184 0.0
O81 O 0.12389 0.38663 0.54814 0.0
O82 O 0.17282 0.47899 0.61854 0.0
O83 O 0.19321 0.43396 0.63278 0.0
O84 O 0.57194 0.18644 0.71911 0.0
Cd85 Cd 0.60361 0.17102 0.76669 0.0
Cd86 Cd 0.5456 0.16919 0.81988 0.0
O87 O 0.5287 0.18864 0.75881 0.0
O88 O 0.63985 0.17235 0.72458 0.0
O89 O 0.63576 0.20125 0.78777 0.0
C90 C 0.65074 0.19384 0.75036 0.0
C91 C 0.52867 0.18615 0.89376 0.0
C92 C 0.54378 0.19284 0.72111 0.0
C93 C 0.58116 0.11045 0.8038 0.0
O94 O 0.55692 0.12362 0.81742 0.0
O95 O 0.60289 0.12561 0.78559 0.0
O96 O 0.5113 0.17062 0.86606 0.0
O97 O 0.55562 0.1931 0.87883 0.0
O98 O 0.81468 0.57476 0.95191 0.0
Cd99 Cd 0.82196 0.60118 0.01034 0.0
Cd100 Cd 0.82113 0.54475 0.05156 0.0
O101 O 0.80248 0.53179 0.98767 0.0
O102 O 0.81492 0.6428 0.98502 0.0
O103 O 0.78364 0.62011 0.03539 0.0
C104 C 0.78952 0.64273 1.00765 0.0
C105 C 0.80107 0.52773 0.1232 0.0
C106 C 0.80442 0.54773 0.95034 0.0
C107 C 0.88055 0.57945 0.04949 0.0
O108 O 0.8673 0.55379 0.05349 0.0
O109 O 0.8655 0.60292 0.03746 0.0
O110 O 0.81582 0.50972 0.09556 0.0
O111 O 0.79637 0.55534 0.10902 0.0
H112 H 0.42177 0.21823 0.48135 0.0
H113 H 0.50886 0.18841 0.42784 0.0
H114 H 0.4444 0.22677 0.55861 0.0
H115 H 0.53133 0.19576 0.50555 0.0
H116 H 0.56977 0.21996 0.64479 0.0
H117 H 0.5469 0.22825 0.56764 0.0
H118 H 0.46078 0.19449 0.62046 0.0
H119 H 0.48346 0.1874 0.69808 0.0
C120 C 0.44588 0.21381 0.48602 0.0
C121 C 0.46351 0.20234 0.44869 0.0
C122 C 0.45879 0.21851 0.53041 0.0
C123 C 0.48957 0.21149 0.53868 0.0
C124 C 0.50762 0.20172 0.5005 0.0
C125 C 0.49475 0.19739 0.45588 0.0
C126 C 0.54577 0.21488 0.6401 0.0
C127 C 0.52845 0.20271 0.67731 0.0
C128 C 0.53272 0.21944 0.59577 0.0
C129 C 0.50213 0.21157 0.58745 0.0
C130 C 0.48434 0.20111 0.62555 0.0
C131 C 0.49733 0.19692 0.67012 0.0
H132 H 0.76417 0.43326 0.70739 0.0
H133 H 0.81017 0.51342 0.65481 0.0
H134 H 0.75826 0.45748 0.78403 0.0
H135 H 0.80574 0.53716 0.73194 0.0
H136 H 0.78776 0.57896 0.8716 0.0
H137 H 0.77729 0.55853 0.7935 0.0
H138 H 0.79194 0.46728 0.84662 0.0
H139 H 0.80092 0.48777 0.92513 0.0
C140 C 0.77262 0.45628 0.71212 0.0
C141 C 0.78789 0.47139 0.67539 0.0
C142 C 0.7695 0.47006 0.75615 0.0
C143 C 0.78211 0.49902 0.76464 0.0
C144 C 0.79551 0.51494 0.72677 0.0
C145 C 0.79814 0.50133 0.68245 0.0
C146 C 0.78838 0.55449 0.8666 0.0
C147 C 0.79548 0.53493 0.90428 0.0
C148 C 0.78249 0.54279 0.82178 0.0
C149 C 0.78406 0.51127 0.81344 0.0
C150 C 0.79005 0.49165 0.8517 0.0
C151 C 0.79545 0.50336 0.89674 0.0
H152 H 0.43078 0.76903 0.15574 0.0
H153 H 0.51229 0.81164 0.21028 0.0
H154 H 0.45492 0.76349 0.07899 0.0
H155 H 0.53599 0.80766 0.13305 0.0
H156 H 0.57791 0.78887 0.99352 0.0
H157 H 0.55672 0.77913 0.07134 0.0
H158 H 0.46627 0.79681 0.01694 0.0
H159 H 0.48748 0.80495 0.93869 0.0
C160 C 0.45404 0.77688 0.15136 0.0
C161 C 0.46962 0.791 0.18875 0.0
C162 C 0.46778 0.77398 0.10727 0.0
C163 C 0.49719 0.78569 0.09937 0.0
C164 C 0.51343 0.79811 0.13774 0.0
C165 C 0.49985 0.80049 0.18211 0.0
C166 C 0.55345 0.79032 0.9982 0.0
C167 C 0.53433 0.79797 0.96022 0.0
C168 C 0.5413 0.78487 0.04286 0.0
C169 C 0.5098 0.78747 0.05076 0.0
C170 C 0.4906 0.79411 0.01222 0.0
C171 C 0.50273 0.79903 0.96733 0.0
H172 H 0.18389 0.41886 0.38561 0.0
H173 H 0.21267 0.50107 0.45694 0.0
H174 H 0.19048 0.44356 0.31022 0.0
H175 H 0.22078 0.52561 0.38064 0.0
H176 H 0.18227 0.5702 0.24623 0.0
H177 H 0.18918 0.54557 0.3216 0.0
H178 H 0.22152 0.46445 0.25126 0.0
H179 H 0.21312 0.48891 0.17494 0.0
C180 C 0.19227 0.4421 0.38524 0.0
C181 C 0.19728 0.45815 0.42749 0.0
C182 C 0.19638 0.45622 0.3417 0.0
C183 C 0.20598 0.48673 0.33905 0.0
C184 C 0.21273 0.50228 0.3813 0.0
C185 C 0.20825 0.48819 0.42508 0.0
C186 C 0.19115 0.54719 0.24661 0.0
C187 C 0.19671 0.53137 0.20437 0.0
C188 C 0.19544 0.53311 0.29015 0.0
C189 C 0.20577 0.50288 0.29281 0.0
C190 C 0.21294 0.48756 0.25058 0.0
C191 C 0.20827 0.50159 0.20679 0.0
H192 H 0.31199 0.1839 0.4602 0.0
H193 H 0.31013 0.23702 0.33182 0.0
H194 H 0.27244 0.21619 0.49369 0.0
H195 H 0.27027 0.26922 0.3655 0.0
H196 H 0.1825 0.30638 0.42856 0.0
H197 H 0.21545 0.26721 0.39556 0.0
H198 H 0.27291 0.272 0.51901 0.0
H199 H 0.24004 0.3115 0.55216 0.0
C200 C 0.30279 0.20215 0.43876 0.0
C201 C 0.31431 0.20801 0.39335 0.0
C202 C 0.28028 0.22072 0.45816 0.0
C203 C 0.26849 0.24529 0.43236 0.0
C204 C 0.27887 0.25028 0.38607 0.0
C205 C 0.3017 0.2319 0.36681 0.0
C206 C 0.20188 0.29879 0.44911 0.0
C207 C 0.20875 0.31216 0.49296 0.0
C208 C 0.22083 0.27649 0.42998 0.0
C209 C 0.24681 0.26677 0.45454 0.0
C210 C 0.25289 0.27899 0.49943 0.0
C211 C 0.23412 0.30161 0.51838 0.0
H212 H 0.75126 0.31279 0.57084 0.0
H213 H 0.8037 0.31781 0.69974 0.0
H214 H 0.71976 0.27264 0.60555 0.0
H215 H 0.77224 0.27781 0.7342 0.0
H216 H 0.6785 0.24241 0.79362 0.0
H217 H 0.71745 0.27589 0.76005 0.0
H218 H 0.72189 0.2189 0.63623 0.0
H219 H 0.68311 0.18548 0.66954 0.0
C220 C 0.75639 0.305 0.60621 0.0
C221 C 0.77988 0.31858 0.63255 0.0
C222 C 0.73841 0.28197 0.62607 0.0
C223 C 0.74345 0.27227 0.67272 0.0
C224 C 0.76762 0.28509 0.6984 0.0
C225 C 0.78573 0.30788 0.67846 0.0
C226 C 0.68822 0.23671 0.75967 0.0
C227 C 0.67758 0.21141 0.73417 0.0
C228 C 0.71054 0.25585 0.74046 0.0
C229 C 0.72245 0.25013 0.6953 0.0
C230 C 0.71279 0.22408 0.67079 0.0
C231 C 0.69071 0.20485 0.6901 0.0
H232 H 0.7329 0.62962 0.9776 0.0
H233 H 0.79413 0.70456 1.00393 0.0
H234 H 0.69828 0.66336 0.93652 0.0
H235 H 0.75808 0.73958 0.96757 0.0
H236 H 0.70504 0.79369 0.86267 0.0
H237 H 0.73978 0.75762 0.89961 0.0
H238 H 0.66293 0.69919 0.93305 0.0
H239 H 0.62943 0.73378 0.8914 0.0
C240 C 0.73818 0.65375 0.97634 0.0
C241 C 0.76585 0.66468 0.99431 0.0
C242 C 0.71829 0.67331 0.95266 0.0
C243 C 0.72512 0.70459 0.94781 0.0
C244 C 0.75221 0.71565 0.96871 0.0
C245 C 0.77267 0.69577 0.99067 0.0
C246 C 0.69603 0.77252 0.87663 0.0
C247 C 0.66485 0.76605 0.87343 0.0
C248 C 0.71576 0.75205 0.89891 0.0
C249 C 0.70446 0.72533 0.92057 0.0
C250 C 0.67305 0.71889 0.91631 0.0
C251 C 0.65363 0.73876 0.89231 0.0
H252 H 0.18453 0.68412 0.20053 0.0
H253 H 0.24305 0.67582 0.07873 0.0
H254 H 0.21831 0.72289 0.23313 0.0
H255 H 0.27678 0.71493 0.11148 0.0
H256 H 0.31734 0.80331 0.16885 0.0
H257 H 0.27772 0.77106 0.13491 0.0
H258 H 0.27267 0.72002 0.26484 0.0
H259 H 0.3126 0.75219 0.29896 0.0
C260 C 0.20433 0.69092 0.18028 0.0
C261 C 0.2112 0.67678 0.13707 0.0
C262 C 0.22374 0.71299 0.19919 0.0
C263 C 0.25024 0.7217 0.17505 0.0
C264 C 0.25638 0.70871 0.13074 0.0
C265 C 0.23711 0.68632 0.11201 0.0
C266 C 0.30752 0.78549 0.19052 0.0
C267 C 0.31819 0.78022 0.23662 0.0
C268 C 0.28497 0.76694 0.17088 0.0
C269 C 0.2723 0.74297 0.19711 0.0
C270 C 0.28195 0.73849 0.24392 0.0
C271 C 0.30483 0.75685 0.26343 0.0
H272 H 0.45499 0.91929 0.35149 0.0
H273 H 0.3656 0.91677 0.28712 0.0
H274 H 0.45331 0.97468 0.35215 0.0
H275 H 0.36416 0.97243 0.28754 0.0
H276 H 0.36381 0.07253 0.3432 0.0
H277 H 0.36256 0.01687 0.343 0.0
H278 H 0.45503 0.01509 0.29114 0.0
H279 H 0.45651 0.0705 0.29161 0.0
C280 C 0.43488 0.9305 0.33772 0.0
C281 C 0.41049 0.91353 0.31902 0.0
C282 C 0.43405 0.96228 0.3378 0.0
C283 C 0.40876 0.97788 0.31941 0.0
C284 C 0.38391 0.961 0.30209 0.0
C285 C 0.38479 0.92913 0.30175 0.0
C286 C 0.38381 0.06028 0.33146 0.0
C287 C 0.41033 0.07602 0.31767 0.0
C288 C 0.38303 0.0284 0.33123 0.0
C289 C 0.4088 0.01166 0.31752 0.0
C290 C 0.43501 0.02739 0.30268 0.0
C291 C 0.43575 0.05918 0.30264 0.0
H292 H 0.92056 0.4543 0.52036 0.0
H293 H 0.9152 0.36691 0.59046 0.0
H294 H 0.97593 0.4522 0.52411 0.0
H295 H 0.97074 0.36509 0.59463 0.0
H296 H 0.07077 0.45588 0.58754 0.0
H297 H 0.01528 0.45538 0.58596 0.0
H298 H 0.01621 0.3609 0.5434 0.0
H299 H 0.0718 0.36118 0.54549 0.0
C300 C 0.93115 0.43456 0.53638 0.0
C301 C 0.91338 0.41081 0.55524 0.0
C302 C 0.96291 0.4335 0.53887 0.0
C303 C 0.97767 0.40865 0.56014 0.0
C304 C 0.96 0.38449 0.57786 0.0
C305 C 0.92818 0.38558 0.57553 0.0
C306 C 0.0592 0.43489 0.57827 0.0
C307 C 0.07578 0.40861 0.5664 0.0
C308 C 0.02739 0.43469 0.57701 0.0
C309 C 0.0114 0.4082 0.56401 0.0
C310 C 0.0279 0.38162 0.55373 0.0
C311 C 0.05976 0.38183 0.55483 0.0
H312 H 0.53634 0.91953 0.78429 0.0
H313 H 0.63056 0.91795 0.82916 0.0
H314 H 0.53794 0.97489 0.78137 0.0
H315 H 0.63193 0.97358 0.82689 0.0
H316 H 0.53906 0.07094 0.83996 0.0
H317 H 0.54068 0.01557 0.84008 0.0
H318 H 0.62915 0.01804 0.77352 0.0
H319 H 0.62783 0.07367 0.77397 0.0
C320 C 0.55747 0.93096 0.79328 0.0
C321 C 0.58326 0.91428 0.8073 0.0
C322 C 0.5583 0.96273 0.79193 0.0
C323 C 0.58492 0.97862 0.80457 0.0
C324 C 0.61111 0.96197 0.81681 0.0
C325 C 0.61029 0.9301 0.81819 0.0
C326 C 0.55897 0.05977 0.82557 0.0
C327 C 0.58325 0.0768 0.80676 0.0
C328 C 0.55978 0.02799 0.82531 0.0
C329 C 0.58487 0.01243 0.80627 0.0
C330 C 0.60955 0.02939 0.78859 0.0
C331 C 0.60874 0.06126 0.78877 0.0
H332 H 0.91906 0.53468 0.07966 0.0
H333 H 0.91791 0.62836 0.03237 0.0
H334 H 0.97442 0.5362 0.08331 0.0
H335 H 0.97348 0.62962 0.03508 0.0
H336 H 0.07241 0.62756 0.09087 0.0
H337 H 0.01688 0.62829 0.0886 0.0
H338 H 0.0165 0.53793 0.0282 0.0
H339 H 0.07192 0.53686 0.03139 0.0
C340 C 0.9306 0.55565 0.07017 0.0
C341 C 0.91403 0.58136 0.05553 0.0
C342 C 0.96238 0.55643 0.07189 0.0
C343 C 0.97839 0.5829 0.05889 0.0
C344 C 0.96182 0.60892 0.04556 0.0
C345 C 0.92997 0.60817 0.04393 0.0
C346 C 0.06051 0.60792 0.07679 0.0
C347 C 0.07664 0.58207 0.06154 0.0
C348 C 0.02866 0.60839 0.07538 0.0
C349 C 0.01225 0.58306 0.05866 0.0
C350 C 0.02844 0.55758 0.04221 0.0
C351 C 0.06024 0.55706 0.04369 0.0
H352 H 0.56189 0.21204 0.96545 0.0
H353 H 0.4724 0.17689 0.932 0.0
H354 H 0.54638 0.21863 0.04758 0.0
H355 H 0.45714 0.18294 0.01382 0.0
H356 H 0.52057 0.17776 0.19412 0.0
H357 H 0.5358 0.18377 0.11225 0.0
H358 H 0.44618 0.21794 0.078 0.0
H359 H 0.4307 0.21139 0.16018 0.0
C360 C 0.53882 0.20609 0.97545 0.0
C361 C 0.51848 0.19373 0.94221 0.0
C362 C 0.52997 0.20969 0.02258 0.0
C363 C 0.50056 0.20113 0.03744 0.0
C364 C 0.47984 0.1901 1.00364 0.0
C365 C 0.48869 0.18642 0.95667 0.0
C366 C 0.50418 0.18695 0.16933 0.0
C367 C 0.47431 0.19383 0.18366 0.0
C368 C 0.51302 0.19061 0.12233 0.0
C369 C 0.49219 0.20118 0.08838 0.0
C370 C 0.46268 0.20935 0.10313 0.0
C371 C 0.45385 0.20577 0.15028 0.0
H372 H 0.80673 0.47078 0.16076 0.0
H373 H 0.77669 0.56184 0.19479 0.0
H374 H 0.80098 0.45588 0.24282 0.0
H375 H 0.77032 0.54669 0.27711 0.0
H376 H 0.77606 0.43167 0.39174 0.0
H377 H 0.76761 0.44673 0.30971 0.0
H378 H 0.80654 0.53521 0.33925 0.0
H379 H 0.81442 0.52044 0.42089 0.0
C380 C 0.79827 0.48748 0.18559 0.0
C381 C 0.79251 0.51762 0.17129 0.0
C382 C 0.79477 0.47885 0.23271 0.0
C383 C 0.78545 0.50015 0.26673 0.0
C384 C 0.778 0.52985 0.25192 0.0
C385 C 0.78146 0.53848 0.20468 0.0
C386 C 0.78235 0.45448 0.38082 0.0
C387 C 0.79616 0.47475 0.41275 0.0
C388 C 0.77765 0.46307 0.33378 0.0
C389 C 0.78653 0.49215 0.31777 0.0
C390 C 0.79906 0.5128 0.35036 0.0
C391 C 0.80382 0.50421 0.3972 0.0
H392 H 0.4716 0.80675 0.70365 0.0
H393 H 0.56234 0.77534 0.6705 0.0
H394 H 0.45656 0.80007 0.62182 0.0
H395 H 0.54705 0.76805 0.58838 0.0
H396 H 0.52096 0.81152 0.44376 0.0
H397 H 0.53592 0.80372 0.52534 0.0
H398 H 0.44701 0.76609 0.55581 0.0
H399 H 0.43177 0.77447 0.47384 0.0
C400 C 0.48819 0.79779 0.67908 0.0
C401 C 0.51829 0.79193 0.69353 0.0
C402 C 0.47948 0.79375 0.6321 0.0
C403 C 0.50066 0.78377 0.59834 0.0
C404 C 0.5303 0.77622 0.61336 0.0
C405 C 0.53902 0.78021 0.66048 0.0
C406 C 0.50468 0.80118 0.46762 0.0
C407 C 0.47504 0.79393 0.45238 0.0
C408 C 0.51338 0.79646 0.51444 0.0
C409 C 0.49264 0.78441 0.5473 0.0
C410 C 0.46342 0.77578 0.53153 0.0
C411 C 0.45473 0.78043 0.48452 0.0
H412 H 0.17925 0.47118 0.9475 0.0
H413 H 0.21364 0.56065 0.91237 0.0
H414 H 0.18503 0.45542 0.86587 0.0
H415 H 0.22003 0.54463 0.83045 0.0
H416 H 0.17943 0.51803 0.68433 0.0
H417 H 0.18554 0.53366 0.766 0.0
H418 H 0.21917 0.44403 0.80134 0.0
H419 H 0.21246 0.42814 0.71937 0.0
C420 C 0.18859 0.48736 0.92251 0.0
C421 C 0.19573 0.51729 0.93647 0.0
C422 C 0.1921 0.47823 0.87562 0.0
C423 C 0.20283 0.49878 0.84136 0.0
C424 C 0.21129 0.52833 0.85576 0.0
C425 C 0.20782 0.53747 0.90279 0.0
C426 C 0.18853 0.50172 0.70932 0.0
C427 C 0.19521 0.47173 0.69531 0.0
C428 C 0.19224 0.51078 0.75623 0.0
C429 C 0.2027 0.49009 0.79047 0.0
C430 C 0.21065 0.46044 0.77605 0.0
C431 C 0.20699 0.45138 0.72899 0.0
loop_
_geom_bond_atom_site_label_1
_geom_bond_atom_site_label_2
_geom_bond_distance
_geom_bond_site_symmetry_2
_ccdc_geom_bond_type
O0 Cd1 2.223 . S
O0 C8 1.315 . S
Cd1 O0 2.223 . S
Cd1 O4 2.297 . S
Cd1 O5 2.439 . S
Cd1 O11 2.240 . S
Cd2 O3 2.240 . S
Cd2 O10 2.223 . S
Cd2 O12 2.297 . S
Cd2 O13 2.439 . S
O3 Cd2 2.240 . S
O3 C8 1.279 . S
O4 Cd1 2.297 . S
O4 C6 1.247 . S
O5 Cd1 2.439 . S
O5 C6 1.208 . S
C6 O4 1.247 . S
C6 O5 1.208 . S
C7 O12 1.247 . S
C7 O13 1.208 . S
C8 O0 1.315 . S
C8 O3 1.279 . S
C9 O10 1.315 . S
C9 O11 1.279 . S
O10 Cd2 2.223 . S
O10 C9 1.315 . S
O11 Cd1 2.240 . S
O11 C9 1.279 . S
O12 Cd2 2.297 . S
O12 C7 1.247 . S
O13 Cd2 2.439 . S
O13 C7 1.208 . S
O14 Cd15 2.223 . S
O14 C22 1.315 . S
Cd15 O14 2.223 . S
Cd15 O18 2.297 . S
Cd15 O19 2.439 . S
Cd15 O25 2.240 . S
Cd16 O17 2.240 . S
Cd16 O24 2.223 . S
Cd16 O26 2.297 . S
Cd16 O27 2.439 . S
O17 Cd16 2.240 . S
O17 C22 1.279 . S
O18 Cd15 2.297 . S
O18 C20 1.247 . S
O19 Cd15 2.439 . S
O19 C20 1.208 . S
C20 O18 1.247 . S
C20 O19 1.208 . S
C21 O26 1.247 . S
C21 O27 1.208 . S
C22 O14 1.315 . S
C22 O17 1.279 . S
C23 O24 1.315 . S
C23 O25 1.279 . S
O24 Cd16 2.223 . S
O24 C23 1.315 . S
O25 Cd15 2.240 . S
O25 C23 1.279 . S
O26 Cd16 2.297 . S
O26 C21 1.247 . S
O27 Cd16 2.439 . S
O27 C21 1.208 . S
O28 Cd29 2.223 . S
O28 C36 1.315 . S
Cd29 O28 2.223 . S
Cd29 O32 2.297 . S
Cd29 O33 2.439 . S
Cd29 O39 2.240 . S
Cd30 O31 2.240 . S
Cd30 O38 2.223 . S
Cd30 O40 2.297 . S
Cd30 O41 2.439 . S
O31 Cd30 2.240 . S
O31 C36 1.279 . S
O32 Cd29 2.297 . S
O32 C34 1.247 . S
O33 Cd29 2.439 . S
O33 C34 1.208 . S
C34 O32 1.247 . S
C34 O33 1.208 . S
C35 O40 1.247 . S
C35 O41 1.208 . S
C36 O28 1.315 . S
C36 O31 1.279 . S
C37 O38 1.315 . S
C37 O39 1.279 . S
O38 Cd30 2.223 . S
O38 C37 1.315 . S
O39 Cd29 2.240 . S
O39 C37 1.279 . S
O40 Cd30 2.297 . S
O40 C35 1.247 . S
O41 Cd30 2.439 . S
O41 C35 1.208 . S
O42 Cd43 2.223 . S
O42 C50 1.315 . S
Cd43 O42 2.223 . S
Cd43 O46 2.297 . S
Cd43 O47 2.439 . S
Cd43 O53 2.240 . S
Cd44 O45 2.240 . S
Cd44 O52 2.223 . S
Cd44 O54 2.297 1_554 S
Cd44 O55 2.439 1_554 S
O45 Cd44 2.240 . S
O45 C50 1.279 . S
O46 Cd43 2.297 . S
O46 C48 1.247 . S
O47 Cd43 2.439 . S
O47 C48 1.208 . S
C48 O46 1.247 . S
C48 O47 1.208 . S
C49 O54 1.247 . S
C49 O55 1.208 . S
C50 O42 1.315 . S
C50 O45 1.279 . S
C51 O52 1.315 . S
C51 O53 1.279 . S
O52 Cd44 2.223 . S
O52 C51 1.315 . S
O53 Cd43 2.240 . S
O53 C51 1.279 . S
O54 Cd44 2.297 1_556 S
O54 C49 1.247 . S
O55 Cd44 2.439 1_556 S
O55 C49 1.208 . S
O56 Cd57 2.223 . S
O56 C64 1.315 . S
Cd57 O56 2.223 . S
Cd57 O60 2.297 . S
Cd57 O61 2.439 . S
Cd57 O67 2.240 . S
Cd58 O59 2.240 . S
Cd58 O66 2.223 . S
Cd58 O68 2.297 . S
Cd58 O69 2.439 . S
O59 Cd58 2.240 . S
O59 C64 1.279 . S
O60 Cd57 2.297 . S
O60 C62 1.247 . S
O61 Cd57 2.439 . S
O61 C62 1.208 . S
C62 O60 1.247 . S
C62 O61 1.208 . S
C63 O68 1.247 . S
C63 O69 1.208 . S
C64 O56 1.315 . S
C64 O59 1.279 . S
C65 O66 1.315 . S
C65 O67 1.279 . S
O66 Cd58 2.223 . S
O66 C65 1.315 . S
O67 Cd57 2.240 . S
O67 C65 1.279 . S
O68 Cd58 2.297 . S
O68 C63 1.247 . S
O69 Cd58 2.439 . S
O69 C63 1.208 . S
O70 Cd71 2.223 . S
O70 C78 1.315 . S
Cd71 O70 2.223 . S
Cd71 O74 2.297 . S
Cd71 O75 2.439 . S
Cd71 O81 2.240 . S
Cd72 O73 2.240 . S
Cd72 O80 2.223 . S
Cd72 O82 2.297 . S
Cd72 O83 2.439 . S
O73 Cd72 2.240 . S
O73 C78 1.279 . S
O74 Cd71 2.297 . S
O74 C76 1.247 . S
O75 Cd71 2.439 . S
O75 C76 1.208 . S
C76 O74 1.247 . S
C76 O75 1.208 . S
C77 O82 1.247 . S
C77 O83 1.208 . S
C78 O70 1.315 . S
C78 O73 1.279 . S
C79 O80 1.315 . S
C79 O81 1.279 . S
O80 Cd72 2.223 . S
O80 C79 1.315 . S
O81 Cd71 2.240 . S
O81 C79 1.279 . S
O82 Cd72 2.297 . S
O82 C77 1.247 . S
O83 Cd72 2.439 . S
O83 C77 1.208 . S
O84 Cd85 2.223 . S
O84 C92 1.315 . S
Cd85 O84 2.223 . S
Cd85 O88 2.297 . S
Cd85 O89 2.439 . S
Cd85 O95 2.240 . S
Cd86 O87 2.240 . S
Cd86 O94 2.223 . S
Cd86 O96 2.297 . S
Cd86 O97 2.439 . S
O87 Cd86 2.240 . S
O87 C92 1.279 . S
O88 Cd85 2.297 . S
O88 C90 1.247 . S
O89 Cd85 2.439 . S
O89 C90 1.208 . S
C90 O88 1.247 . S
C90 O89 1.208 . S
C91 O96 1.247 . S
C91 O97 1.208 . S
C92 O84 1.315 . S
C92 O87 1.279 . S
C93 O94 1.315 . S
C93 O95 1.279 . S
O94 Cd86 2.223 . S
O94 C93 1.315 . S
O95 Cd85 2.240 . S
O95 C93 1.279 . S
O96 Cd86 2.297 . S
O96 C91 1.247 . S
O97 Cd86 2.439 . S
O97 C91 1.208 . S
O98 Cd99 2.223 . S
O98 C106 1.315 . S
Cd99 O98 2.223 . S
Cd99 O102 2.297 . S
Cd99 O103 2.439 1_556 S
Cd99 O109 2.240 1_556 S
Cd100 O101 2.240 1_554 S
Cd100 O108 2.223 . S
Cd100 O110 2.297 . S
Cd100 O111 2.439 . S
O101 Cd100 2.240 1_556 S
O101 C106 1.279 . S
O102 Cd99 2.297 . S
O102 C104 1.247 . S
O103 Cd99 2.439 1_554 S
O103 C104 1.208 1_554 S
C104 O102 1.247 . S
C104 O103 1.208 1_556 S
C105 O110 1.247 . S
C105 O111 1.208 . S
C106 O98 1.315 . S
C106 O101 1.279 . S
C107 O108 1.315 . S
C107 O109 1.279 . S
O108 Cd100 2.223 . S
O108 C107 1.315 . S
O109 Cd99 2.240 1_554 S
O109 C107 1.279 . S
O110 Cd100 2.297 . S
O110 C105 1.247 . S
O111 Cd100 2.439 . S
O111 C105 1.208 . S
H112 C120 0.950 . S
H113 C125 0.950 . S
H114 C122 0.950 . S
H115 C124 0.950 . S
H116 C126 0.950 . S
H117 C128 0.950 . S
H118 C130 0.950 . S
H119 C131 0.950 . S
C120 H112 0.950 . S
C120 C121 1.386 . S
C120 C122 1.391 . S
C121 C120 1.386 . S
C121 C125 1.393 . S
C122 H114 0.950 . S
C122 C120 1.391 . S
C122 C123 1.400 . S
C123 C122 1.400 . S
C123 C124 1.398 . S
C123 C129 1.491 . S
C124 H115 0.950 . S
C124 C123 1.398 . S
C124 C125 1.391 . S
C125 H113 0.950 . S
C125 C121 1.393 . S
C125 C124 1.391 . S
C126 H116 0.950 . S
C126 C127 1.386 . S
C126 C128 1.391 . S
C127 C126 1.386 . S
C127 C131 1.393 . S
C128 H117 0.950 . S
C128 C126 1.391 . S
C128 C129 1.400 . S
C129 C123 1.491 . S
C129 C128 1.400 . S
C129 C130 1.398 . S
C130 H118 0.950 . S
C130 C129 1.398 . S
C130 C131 1.391 . S
C131 H119 0.950 . S
C131 C127 1.393 . S
C131 C130 1.391 . S
H132 C140 0.950 . S
H133 C145 0.950 . S
H134 C142 0.950 . S
H135 C144 0.950 . S
H136 C146 0.950 . S
H137 C148 0.950 . S
H138 C150 0.950 . S
H139 C151 0.950 . S
C140 H132 0.950 . S
C140 C141 1.386 . S
C140 C142 1.391 . S
C141 C140 1.386 . S
C141 C145 1.393 . S
C142 H134 0.950 . S
C142 C140 1.391 . S
C142 C143 1.400 . S
C143 C142 1.400 . S
C143 C144 1.398 . S
C143 C149 1.491 . S
C144 H135 0.950 . S
C144 C143 1.398 . S
C144 C145 1.391 . S
C145 H133 0.950 . S
C145 C141 1.393 . S
C145 C144 1.391 . S
C146 H136 0.950 . S
C146 C147 1.386 . S
C146 C148 1.391 . S
C147 C146 1.386 . S
C147 C151 1.393 . S
C148 H137 0.950 . S
C148 C146 1.391 . S
C148 C149 1.400 . S
C149 C143 1.491 . S
C149 C148 1.400 . S
C149 C150 1.398 . S
C150 H138 0.950 . S
C150 C149 1.398 . S
C150 C151 1.391 . S
C151 H139 0.950 . S
C151 C147 1.393 . S
C151 C150 1.391 . S
H152 C160 0.950 . S
H153 C165 0.950 . S
H154 C162 0.950 . S
H155 C164 0.950 . S
H156 C166 0.950 . S
H157 C168 0.950 . S
H158 C170 0.950 1_554 S
H159 C171 0.950 . S
C160 H152 0.950 . S
C160 C161 1.386 . S
C160 C162 1.391 . S
C161 C160 1.386 . S
C161 C165 1.393 . S
C162 H154 0.950 . S
C162 C160 1.391 . S
C162 C163 1.400 . S
C163 C162 1.400 . S
C163 C164 1.398 . S
C163 C169 1.491 . S
C164 H155 0.950 . S
C164 C163 1.398 . S
C164 C165 1.391 . S
C165 H153 0.950 . S
C165 C161 1.393 . S
C165 C164 1.391 . S
C166 H156 0.950 . S
C166 C167 1.386 . S
C166 C168 1.391 1_556 S
C167 C166 1.386 . S
C167 C171 1.393 . S
C168 H157 0.950 . S
C168 C166 1.391 1_554 S
C168 C169 1.400 . S
C169 C163 1.491 . S
C169 C168 1.400 . S
C169 C170 1.398 1_554 S
C170 H158 0.950 1_556 S
C170 C169 1.398 1_556 S
C170 C171 1.391 . S
C171 H159 0.950 . S
C171 C167 1.393 . S
C171 C170 1.391 . S
H172 C180 0.950 . S
H173 C185 0.950 . S
H174 C182 0.950 . S
H175 C184 0.950 . S
H176 C186 0.950 . S
H177 C188 0.950 . S
H178 C190 0.950 . S
H179 C191 0.950 . S
C180 H172 0.950 . S
C180 C181 1.386 . S
C180 C182 1.391 . S
C181 C180 1.386 . S
C181 C185 1.393 . S
C182 H174 0.950 . S
C182 C180 1.391 . S
C182 C183 1.400 . S
C183 C182 1.400 . S
C183 C184 1.398 . S
C183 C189 1.491 . S
C184 H175 0.950 . S
C184 C183 1.398 . S
C184 C185 1.391 . S
C185 H173 0.950 . S
C185 C181 1.393 . S
C185 C184 1.391 . S
C186 H176 0.950 . S
C186 C187 1.386 . S
C186 C188 1.391 . S
C187 C186 1.386 . S
C187 C191 1.393 . S
C188 H177 0.950 . S
C188 C186 1.391 . S
C188 C189 1.400 . S
C189 C183 1.491 . S
C189 C188 1.400 . S
C189 C190 1.398 . S
C190 H178 0.950 . S
C190 C189 1.398 . S
C190 C191 1.391 . S
C191 H179 0.950 . S
C191 C187 1.393 . S
C191 C190 1.391 . S
H192 C200 0.950 . S
H193 C205 0.950 . S
H194 C202 0.950 . S
H195 C204 0.950 . S
H196 C206 0.950 . S
H197 C208 0.950 . S
H198 C210 0.950 . S
H199 C211 0.950 . S
C200 H192 0.950 . S
C200 C201 1.386 . S
C200 C202 1.391 . S
C201 C200 1.386 . S
C201 C205 1.393 . S
C202 H194 0.950 . S
C202 C200 1.391 . S
C202 C203 1.400 . S
C203 C202 1.400 . S
C203 C204 1.398 . S
C203 C209 1.491 . S
C204 H195 0.950 . S
C204 C203 1.398 . S
C204 C205 1.391 . S
C205 H193 0.950 . S
C205 C201 1.393 . S
C205 C204 1.391 . S
C206 H196 0.950 . S
C206 C207 1.386 . S
C206 C208 1.391 . S
C207 C206 1.386 . S
C207 C211 1.393 . S
C208 H197 0.950 . S
C208 C206 1.391 . S
C208 C209 1.400 . S
C209 C203 1.491 . S
C209 C208 1.400 . S
C209 C210 1.398 . S
C210 H198 0.950 . S
C210 C209 1.398 . S
C210 C211 1.391 . S
C211 H199 0.950 . S
C211 C207 1.393 . S
C211 C210 1.391 . S
H212 C220 0.950 . S
H213 C225 0.950 . S
H214 C222 0.950 . S
H215 C224 0.950 . S
H216 C226 0.950 . S
H217 C228 0.950 . S
H218 C230 0.950 . S
H219 C231 0.950 . S
C220 H212 0.950 . S
C220 C221 1.386 . S
C220 C222 1.391 . S
C221 C220 1.386 . S
C221 C225 1.393 . S
C222 H214 0.950 . S
C222 C220 1.391 . S
C222 C223 1.400 . S
C223 C222 1.400 . S
C223 C224 1.398 . S
C223 C229 1.491 . S
C224 H215 0.950 . S
C224 C223 1.398 . S
C224 C225 1.391 . S
C225 H213 0.950 . S
C225 C221 1.393 . S
C225 C224 1.391 . S
C226 H216 0.950 . S
C226 C227 1.386 . S
C226 C228 1.391 . S
C227 C226 1.386 . S
C227 C231 1.393 . S
C228 H217 0.950 . S
C228 C226 1.391 . S
C228 C229 1.400 . S
C229 C223 1.491 . S
C229 C228 1.400 . S
C229 C230 1.398 . S
C230 H218 0.950 . S
C230 C229 1.398 . S
C230 C231 1.391 . S
C231 H219 0.950 . S
C231 C227 1.393 . S
C231 C230 1.391 . S
H232 C240 0.950 . S
H233 C245 0.950 . S
H234 C242 0.950 . S
H235 C244 0.950 . S
H236 C246 0.950 . S
H237 C248 0.950 . S
H238 C250 0.950 . S
H239 C251 0.950 . S
C240 H232 0.950 . S
C240 C241 1.386 . S
C240 C242 1.391 . S
C241 C240 1.386 . S
C241 C245 1.393 . S
C242 H234 0.950 . S
C242 C240 1.391 . S
C242 C243 1.400 . S
C243 C242 1.400 . S
C243 C244 1.398 . S
C243 C249 1.491 . S
C244 H235 0.950 . S
C244 C243 1.398 . S
C244 C245 1.391 . S
C245 H233 0.950 . S
C245 C241 1.393 . S
C245 C244 1.391 . S
C246 H236 0.950 . S
C246 C247 1.386 . S
C246 C248 1.391 . S
C247 C246 1.386 . S
C247 C251 1.393 . S
C248 H237 0.950 . S
C248 C246 1.391 . S
C248 C249 1.400 . S
C249 C243 1.491 . S
C249 C248 1.400 . S
C249 C250 1.398 . S
C250 H238 0.950 . S
C250 C249 1.398 . S
C250 C251 1.391 . S
C251 H239 0.950 . S
C251 C247 1.393 . S
C251 C250 1.391 . S
H252 C260 0.950 . S
H253 C265 0.950 . S
H254 C262 0.950 . S
H255 C264 0.950 . S
H256 C266 0.950 . S
H257 C268 0.950 . S
H258 C270 0.950 . S
H259 C271 0.950 . S
C260 H252 0.950 . S
C260 C261 1.386 . S
C260 C262 1.391 . S
C261 C260 1.386 . S
C261 C265 1.393 . S
C262 H254 0.950 . S
C262 C260 1.391 . S
C262 C263 1.400 . S
C263 C262 1.400 . S
C263 C264 1.398 . S
C263 C269 1.491 . S
C264 H255 0.950 . S
C264 C263 1.398 . S
C264 C265 1.391 . S
C265 H253 0.950 . S
C265 C261 1.393 . S
C265 C264 1.391 . S
C266 H256 0.950 . S
C266 C267 1.386 . S
C266 C268 1.391 . S
C267 C266 1.386 . S
C267 C271 1.393 . S
C268 H257 0.950 . S
C268 C266 1.391 . S
C268 C269 1.400 . S
C269 C263 1.491 . S
C269 C268 1.400 . S
C269 C270 1.398 . S
C270 H258 0.950 . S
C270 C269 1.398 . S
C270 C271 1.391 . S
C271 H259 0.950 . S
C271 C267 1.393 . S
C271 C270 1.391 . S
H272 C280 0.950 . S
H273 C285 0.950 . S
H274 C282 0.950 . S
H275 C284 0.950 . S
H276 C286 0.950 . S
H277 C288 0.950 . S
H278 C290 0.950 . S
H279 C291 0.950 . S
C280 H272 0.950 . S
C280 C281 1.386 . S
C280 C282 1.391 . S
C281 C280 1.386 . S
C281 C285 1.393 . S
C282 H274 0.950 . S
C282 C280 1.391 . S
C282 C283 1.400 . S
C283 C282 1.400 . S
C283 C284 1.398 . S
C283 C289 1.491 1_565 S
C284 H275 0.950 . S
C284 C283 1.398 . S
C284 C285 1.391 . S
C285 H273 0.950 . S
C285 C281 1.393 . S
C285 C284 1.391 . S
C286 H276 0.950 . S
C286 C287 1.386 . S
C286 C288 1.391 . S
C287 C286 1.386 . S
C287 C291 1.393 . S
C288 H277 0.950 . S
C288 C286 1.391 . S
C288 C289 1.400 . S
C289 C283 1.491 1_545 S
C289 C288 1.400 . S
C289 C290 1.398 . S
C290 H278 0.950 . S
C290 C289 1.398 . S
C290 C291 1.391 . S
C291 H279 0.950 . S
C291 C287 1.393 . S
C291 C290 1.391 . S
H292 C300 0.950 . S
H293 C305 0.950 . S
H294 C302 0.950 . S
H295 C304 0.950 . S
H296 C306 0.950 . S
H297 C308 0.950 . S
H298 C310 0.950 . S
H299 C311 0.950 . S
C300 H292 0.950 . S
C300 C301 1.386 . S
C300 C302 1.391 . S
C301 C300 1.386 . S
C301 C305 1.393 . S
C302 H294 0.950 . S
C302 C300 1.391 . S
C302 C303 1.400 . S
C303 C302 1.400 . S
C303 C304 1.398 . S
C303 C309 1.491 1_655 S
C304 H295 0.950 . S
C304 C303 1.398 . S
C304 C305 1.391 . S
C305 H293 0.950 . S
C305 C301 1.393 . S
C305 C304 1.391 . S
C306 H296 0.950 . S
C306 C307 1.386 . S
C306 C308 1.391 . S
C307 C306 1.386 . S
C307 C311 1.393 . S
C308 H297 0.950 . S
C308 C306 1.391 . S
C308 C309 1.400 . S
C309 C303 1.491 1_455 S
C309 C308 1.400 . S
C309 C310 1.398 . S
C310 H298 0.950 . S
C310 C309 1.398 . S
C310 C311 1.391 . S
C311 H299 0.950 . S
C311 C307 1.393 . S
C311 C310 1.391 . S
H312 C320 0.950 . S
H313 C325 0.950 . S
H314 C322 0.950 . S
H315 C324 0.950 . S
H316 C326 0.950 . S
H317 C328 0.950 . S
H318 C330 0.950 . S
H319 C331 0.950 . S
C320 H312 0.950 . S
C320 C321 1.386 . S
C320 C322 1.391 . S
C321 C320 1.386 . S
C321 C325 1.393 . S
C322 H314 0.950 . S
C322 C320 1.391 . S
C322 C323 1.400 . S
C323 C322 1.400 . S
C323 C324 1.398 . S
C323 C329 1.491 1_565 S
C324 H315 0.950 . S
C324 C323 1.398 . S
C324 C325 1.391 . S
C325 H313 0.950 . S
C325 C321 1.393 . S
C325 C324 1.391 . S
C326 H316 0.950 . S
C326 C327 1.386 . S
C326 C328 1.391 . S
C327 C326 1.386 . S
C327 C331 1.393 . S
C328 H317 0.950 . S
C328 C326 1.391 . S
C328 C329 1.400 . S
C329 C323 1.491 1_545 S
C329 C328 1.400 . S
C329 C330 1.398 . S
C330 H318 0.950 . S
C330 C329 1.398 . S
C330 C331 1.391 . S
C331 H319 0.950 . S
C331 C327 1.393 . S
C331 C330 1.391 . S
H332 C340 0.945 1_556 S
H333 C345 0.950 . S
H334 C342 0.950 1_556 S
H335 C344 0.950 . S
H336 C346 0.950 . S
H337 C348 0.950 . S
H338 C350 0.950 1_556 S
H339 C351 0.950 . S
C340 H332 0.945 1_554 S
C340 C341 1.390 . S
C340 C342 1.392 . S
C341 C340 1.390 . S
C341 C345 1.393 . S
C342 H334 0.950 1_554 S
C342 C340 1.392 . S
C342 C343 1.400 . S
C343 C342 1.400 . S
C343 C344 1.398 . S
C343 C349 1.491 1_655 S
C344 H335 0.950 . S
C344 C343 1.398 . S
C344 C345 1.391 . S
C345 H333 0.950 . S
C345 C341 1.393 . S
C345 C344 1.391 . S
C346 H336 0.950 . S
C346 C347 1.386 . S
C346 C348 1.391 . S
C347 C346 1.386 . S
C347 C351 1.393 . S
C348 H337 0.950 . S
C348 C346 1.391 . S
C348 C349 1.400 . S
C349 C343 1.491 1_455 S
C349 C348 1.400 . S
C349 C350 1.398 . S
C350 H338 0.950 1_554 S
C350 C349 1.398 . S
C350 C351 1.391 . S
C351 H339 0.950 . S
C351 C347 1.393 . S
C351 C350 1.391 . S
H352 C360 0.950 . S
H353 C365 0.950 . S
H354 C362 0.950 . S
H355 C364 0.950 . S
H356 C366 0.950 . S
H357 C368 0.950 . S
H358 C370 0.950 . S
H359 C371 0.950 . S
C360 H352 0.950 . S
C360 C361 1.386 . S
C360 C362 1.391 1_556 S
C361 C360 1.386 . S
C361 C365 1.393 . S
C362 H354 0.950 . S
C362 C360 1.391 1_554 S
C362 C363 1.400 . S
C363 C362 1.400 . S
C363 C364 1.398 . S
C363 C369 1.491 . S
C364 H355 0.950 . S
C364 C363 1.398 . S
C364 C365 1.391 1_554 S
C365 H353 0.950 . S
C365 C361 1.393 . S
C365 C364 1.391 1_556 S
C366 H356 0.950 . S
C366 C367 1.386 . S
C366 C368 1.391 . S
C367 C366 1.386 . S
C367 C371 1.393 . S
C368 H357 0.950 . S
C368 C366 1.391 . S
C368 C369 1.400 . S
C369 C363 1.491 . S
C369 C368 1.400 . S
C369 C370 1.398 . S
C370 H358 0.950 . S
C370 C369 1.398 . S
C370 C371 1.391 . S
C371 H359 0.950 . S
C371 C367 1.393 . S
C371 C370 1.391 . S
H372 C380 0.950 . S
H373 C385 0.950 . S
H374 C382 0.950 . S
H375 C384 0.950 . S
H376 C386 0.950 . S
H377 C388 0.950 . S
H378 C390 0.950 . S
H379 C391 0.950 . S
C380 H372 0.950 . S
C380 C381 1.386 . S
C380 C382 1.391 . S
C381 C380 1.386 . S
C381 C385 1.393 . S
C382 H374 0.950 . S
C382 C380 1.391 . S
C382 C383 1.400 . S
C383 C382 1.400 . S
C383 C384 1.398 . S
C383 C389 1.491 . S
C384 H375 0.950 . S
C384 C383 1.398 . S
C384 C385 1.391 . S
C385 H373 0.950 . S
C385 C381 1.393 . S
C385 C384 1.391 . S
C386 H376 0.950 . S
C386 C387 1.386 . S
C386 C388 1.391 . S
C387 C386 1.386 . S
C387 C391 1.393 . S
C388 H377 0.950 . S
C388 C386 1.391 . S
C388 C389 1.400 . S
C389 C383 1.491 . S
C389 C388 1.400 . S
C389 C390 1.398 . S
C390 H378 0.950 . S
C390 C389 1.398 . S
C390 C391 1.391 . S
C391 H379 0.950 . S
C391 C387 1.393 . S
C391 C390 1.391 . S
H392 C400 0.950 . S
H393 C405 0.950 . S
H394 C402 0.950 . S
H395 C404 0.950 . S
H396 C406 0.950 . S
H397 C408 0.950 . S
H398 C410 0.950 . S
H399 C411 0.950 . S
C400 H392 0.950 . S
C400 C401 1.386 . S
C400 C402 1.391 . S
C401 C400 1.386 . S
C401 C405 1.393 . S
C402 H394 0.950 . S
C402 C400 1.391 . S
C402 C403 1.400 . S
C403 C402 1.400 . S
C403 C404 1.398 . S
C403 C409 1.491 . S
C404 H395 0.950 . S
C404 C403 1.398 . S
C404 C405 1.391 . S
C405 H393 0.950 . S
C405 C401 1.393 . S
C405 C404 1.391 . S
C406 H396 0.950 . S
C406 C407 1.386 . S
C406 C408 1.391 . S
C407 C406 1.386 . S
C407 C411 1.393 . S
C408 H397 0.950 . S
C408 C406 1.391 . S
C408 C409 1.400 . S
C409 C403 1.491 . S
C409 C408 1.400 . S
C409 C410 1.398 . S
C410 H398 0.950 . S
C410 C409 1.398 . S
C410 C411 1.391 . S
C411 H399 0.950 . S
C411 C407 1.393 . S
C411 C410 1.391 . S
H412 C420 0.950 . S
H413 C425 0.950 . S
H414 C422 0.950 . S
H415 C424 0.950 . S
H416 C426 0.950 . S
H417 C428 0.950 . S
H418 C430 0.950 . S
H419 C431 0.950 . S
C420 H412 0.950 . S
C420 C421 1.386 . S
C420 C422 1.391 . S
C421 C420 1.386 . S
C421 C425 1.393 . S
C422 H414 0.950 . S
C422 C420 1.391 . S
C422 C423 1.400 . S
C423 C422 1.400 . S
C423 C424 1.398 . S
C423 C429 1.491 . S
C424 H415 0.950 . S
C424 C423 1.398 . S
C424 C425 1.391 . S
C425 H413 0.950 . S
C425 C421 1.393 . S
C425 C424 1.391 . S
C426 H416 0.950 . S
C426 C427 1.386 . S
C426 C428 1.391 . S
C427 C426 1.386 . S
C427 C431 1.393 . S
C428 H417 0.950 . S
C428 C426 1.391 . S
C428 C429 1.400 . S
C429 C423 1.491 . S
C429 C428 1.400 . S
C429 C430 1.398 . S
C430 H418 0.950 . S
C430 C429 1.398 . S
C430 C431 1.391 . S
C431 H419 0.950 . S
C431 C427 1.393 . S
C431 C430 1.391 . S
C121 C8 1.198 . S
C127 C92 1.197 . S
C141 C22 1.178 . S
C147 C106 1.175 . S
C161 C64 1.198 . S
C167 C36 1.196 . S
C181 C78 1.184 . S
C187 C50 1.181 . S
C201 C6 1.505 . S
C207 C76 1.490 . S
C221 C20 1.489 . S
C227 C90 1.496 . S
C241 C104 1.508 . S
C247 C34 1.512 . S
C261 C48 1.507 . S
C267 C62 1.491 . S
C281 C65 1.543 . S
C287 C9 1.548 . S
C301 C23 1.535 . S
C307 C79 1.548 . S
C321 C37 1.536 . S
C327 C93 1.549 . S
C341 C107 1.548 . S
C347 C51 1.534 . S
C361 C91 1.313 . S
C367 C7 1.316 . S
C381 C105 1.337 . S
C387 C21 1.338 . S
C401 C35 1.315 . S
C407 C63 1.325 . S
C421 C49 1.334 . S
C427 C77 1.339 . S
