# Generated by pormake.
# Topology wjy, (5)-cn, num edge types: 1
# Building blocks:
#     Node 0, Type 0, BuildingBlock: XOMCOT_clean_sbu_0, # of connection points: 5
#     Node 1, Type 0, BuildingBlock: XOMCOT_clean_sbu_0, # of connection points: 5
#     Node 2, Type 0, BuildingBlock: XOMCOT_clean_sbu_0, # of connection points: 5
#     Node 3, Type 0, BuildingBlock: XOMCOT_clean_sbu_0, # of connection points: 5
#     Node 4, Type 0, BuildingBlock: XOMCOT_clean_sbu_0, # of connection points: 5
#     Node 5, Type 0, BuildingBlock: XOMCOT_clean_sbu_0, # of connection points: 5
#     Node 6, Type 0, BuildingBlock: XOMCOT_clean_sbu_0, # of connection points: 5
#     Node 7, Type 0, BuildingBlock: XOMCOT_clean_sbu_0, # of connection points: 5
#     Node 8, Type 0, BuildingBlock: XOMCOT_clean_sbu_0, # of connection points: 5
#     Node 9, Type 0, BuildingBlock: XOMCOT_clean_sbu_0, # of connection points: 5
#     Node 10, Type 0, BuildingBlock: XOMCOT_clean_sbu_0, # of connection points: 5
#     Node 11, Type 0, BuildingBlock: XOMCOT_clean_sbu_0, # of connection points: 5
#     Edge 12, Type (0, 0), BuildingBlock: MIFKUJ_clean_linker_0, # of connection points: 2
#     Edge 13, Type (0, 0), BuildingBlock: MIFKUJ_clean_linker_0, # of connection points: 2
#     Edge 14, Type (0, 0), BuildingBlock: MIFKUJ_clean_linker_0, # of connection points: 2
#     Edge 15, Type (0, 0), BuildingBlock: MIFKUJ_clean_linker_0, # of connection points: 2
#     Edge 16, Type (0, 0), BuildingBlock: MIFKUJ_clean_linker_0, # of connection points: 2
#     Edge 17, Type (0, 0), BuildingBlock: MIFKUJ_clean_linker_0, # of connection points: 2
#     Edge 18, Type (0, 0), BuildingBlock: MIFKUJ_clean_linker_0, # of connection points: 2
#     Edge 19, Type (0, 0), BuildingBlock: MIFKUJ_clean_linker_0, # of connection points: 2
#     Edge 20, Type (0, 0), BuildingBlock: MIFKUJ_clean_linker_0, # of connection points: 2
#     Edge 21, Type (0, 0), BuildingBlock: MIFKUJ_clean_linker_0, # of connection points: 2
#     Edge 22, Type (0, 0), BuildingBlock: MIFKUJ_clean_linker_0, # of connection points: 2
#     Edge 23, Type (0, 0), BuildingBlock: MIFKUJ_clean_linker_0, # of connection points: 2
#     Edge 24, Type (0, 0), BuildingBlock: MIFKUJ_clean_linker_0, # of connection points: 2
#     Edge 25, Type (0, 0), BuildingBlock: MIFKUJ_clean_linker_0, # of connection points: 2
#     Edge 26, Type (0, 0), BuildingBlock: MIFKUJ_clean_linker_0, # of connection points: 2
#     Edge 27, Type (0, 0), BuildingBlock: MIFKUJ_clean_linker_0, # of connection points: 2
#     Edge 28, Type (0, 0), BuildingBlock: MIFKUJ_clean_linker_0, # of connection points: 2
#     Edge 29, Type (0, 0), BuildingBlock: MIFKUJ_clean_linker_0, # of connection points: 2
#     Edge 30, Type (0, 0), BuildingBlock: MIFKUJ_clean_linker_0, # of connection points: 2
#     Edge 31, Type (0, 0), BuildingBlock: MIFKUJ_clean_linker_0, # of connection points: 2
#     Edge 32, Type (0, 0), BuildingBlock: MIFKUJ_clean_linker_0, # of connection points: 2
#     Edge 33, Type (0, 0), BuildingBlock: MIFKUJ_clean_linker_0, # of connection points: 2
#     Edge 34, Type (0, 0), BuildingBlock: MIFKUJ_clean_linker_0, # of connection points: 2
#     Edge 35, Type (0, 0), BuildingBlock: MIFKUJ_clean_linker_0, # of connection points: 2
#     Edge 36, Type (0, 0), BuildingBlock: MIFKUJ_clean_linker_0, # of connection points: 2
#     Edge 37, Type (0, 0), BuildingBlock: MIFKUJ_clean_linker_0, # of connection points: 2
#     Edge 38, Type (0, 0), BuildingBlock: MIFKUJ_clean_linker_0, # of connection points: 2
#     Edge 39, Type (0, 0), BuildingBlock: MIFKUJ_clean_linker_0, # of connection points: 2
#     Edge 40, Type (0, 0), BuildingBlock: MIFKUJ_clean_linker_0, # of connection points: 2
#     Edge 41, Type (0, 0), BuildingBlock: MIFKUJ_clean_linker_0, # of connection points: 2
# Relax obj value: 0.081
# Max RMSD: 0.164
# Mean RMSD: 0.164
data_MOF--net-wjy--node1-XOMCOT_clean_sbu_0--edge1-MIFKUJ_clean_linker_0
_symmetry_space_group_name_H-M    P1
_symmetry_Int_Tables_number       1
_symmetry_cell_setting            triclinic
loop_
_symmetry_equiv_pos_as_xyz
'x, y, z'
_cell_length_a     95.930872
_cell_length_b     95.946296
_cell_length_c     22.152252
_cell_angle_alpha  90.06775
_cell_angle_beta   89.949892
_cell_angle_gamma 120.01352
loop_
_atom_site_label
_atom_site_type_symbol
_atom_site_fract_x
_atom_site_fract_y
_atom_site_fract_z
_atom_type_partial_charge
Co0 Co 0.46153 0.1072 0.12297 0.0
C1 C 0.46465 0.1084 0.98945 0.0
C2 C 0.48239 0.10444 0.03278 0.0
C3 C 0.48434 0.10432 0.97129 0.0
N4 N 0.47012 0.10708 0.04411 0.0
N5 N 0.47319 0.10679 0.94392 0.0
H6 H 0.45458 0.11037 0.98332 0.0
H7 H 0.4892 0.10233 0.06682 0.0
C8 C 0.49151 0.12745 0.19794 0.0
O9 O 0.48458 0.1341 0.22826 0.0
N10 N 0.45281 0.10687 0.20295 0.0
C11 C 0.44006 0.10856 0.21715 0.0
C12 C 0.4376 0.10688 0.27847 0.0
C13 C 0.45744 0.10345 0.25606 0.0
N14 N 0.44859 0.10376 0.30316 0.0
C15 C 0.45032 0.12907 0.09335 0.0
C16 C 0.48007 0.15674 0.0889 0.0
C17 C 0.4662 0.15803 0.08372 0.0
C18 C 0.45119 0.14387 0.08411 0.0
C19 C 0.47862 0.14164 0.09764 0.0
N20 N 0.46384 0.12817 0.10441 0.0
H21 H 0.43867 0.11832 0.09176 0.0
H22 H 0.48947 0.1409 0.09827 0.0
H23 H 0.43266 0.11052 0.18578 0.0
H24 H 0.46709 0.10076 0.26006 0.0
O25 O 0.44003 0.09335 0.09236 0.0
O26 O 0.45562 0.08494 0.13364 0.0
O27 O 0.48402 0.11713 0.1564 0.0
C28 C 0.44206 0.08144 0.10812 0.0
H29 H 0.49299 0.10204 0.94858 0.0
H30 H 0.42851 0.1081 0.30295 0.0
H31 H 0.49194 0.16729 0.08572 0.0
H32 H 0.44014 0.1442 0.0787 0.0
Co33 Co 0.35511 0.46523 0.26533 0.0
C34 C 0.35662 0.46825 0.13189 0.0
C35 C 0.37829 0.48631 0.17456 0.0
C36 C 0.37999 0.48857 0.11312 0.0
N37 N 0.36361 0.47368 0.18628 0.0
N38 N 0.36639 0.47722 0.08632 0.0
H39 H 0.34464 0.45804 0.1259 0.0
H40 H 0.38725 0.49328 0.20827 0.0
C41 C 0.3641 0.49586 0.33525 0.0
O42 O 0.34962 0.48956 0.35889 0.0
N43 N 0.34691 0.45668 0.34562 0.0
C44 C 0.33385 0.4424 0.3593 0.0
C45 C 0.33288 0.44036 0.42083 0.0
C46 C 0.35409 0.46274 0.39947 0.0
N47 N 0.34558 0.45319 0.44619 0.0
C48 C 0.32156 0.45344 0.24197 0.0
C49 C 0.32381 0.48306 0.22671 0.0
C50 C 0.30853 0.46923 0.22785 0.0
C51 C 0.30756 0.45422 0.2335 0.0
C52 C 0.33754 0.48167 0.23459 0.0
N53 N 0.33621 0.4671 0.24691 0.0
H54 H 0.32057 0.44178 0.24412 0.0
H55 H 0.34921 0.49238 0.23111 0.0
H56 H 0.32582 0.43357 0.32729 0.0
H57 H 0.36559 0.47364 0.40446 0.0
O58 O 0.34777 0.44359 0.23596 0.0
O59 O 0.37172 0.4598 0.27615 0.0
O60 O 0.36753 0.48778 0.29836 0.0
C61 C 0.36187 0.44595 0.25189 0.0
H62 H 0.3906 0.49763 0.08986 0.0
H63 H 0.32352 0.43015 0.44493 0.0
H64 H 0.32515 0.49484 0.21955 0.0
H65 H 0.29605 0.44317 0.23277 0.0
Co66 Co 0.89243 0.35337 0.46301 0.0
C67 C 0.89047 0.35457 0.32959 0.0
C68 C 0.89111 0.37499 0.37228 0.0
C69 C 0.89065 0.37664 0.31075 0.0
N70 N 0.89088 0.36111 0.38407 0.0
N71 N 0.89029 0.36383 0.2839 0.0
H72 H 0.8904 0.34334 0.32362 0.0
H73 H 0.89195 0.38356 0.40593 0.0
C74 C 0.87026 0.36135 0.53474 0.0
O75 O 0.86192 0.34662 0.55587 0.0
N76 N 0.89451 0.34602 0.54307 0.0
C77 C 0.89823 0.33451 0.55584 0.0
C78 C 0.8998 0.33378 0.61722 0.0
C79 C 0.89471 0.35265 0.59735 0.0
N80 N 0.89754 0.34517 0.64348 0.0
C81 C 0.87085 0.31929 0.45073 0.0
C82 C 0.84335 0.3209 0.42853 0.0
C83 C 0.84196 0.30573 0.43619 0.0
C84 C 0.85609 0.30508 0.44535 0.0
C85 C 0.85842 0.33483 0.43395 0.0
N86 N 0.87175 0.33393 0.44924 0.0
H87 H 0.88155 0.31846 0.45537 0.0
H88 H 0.85929 0.34639 0.42714 0.0
H89 H 0.90043 0.32749 0.52312 0.0
H90 H 0.89357 0.36321 0.60312 0.0
O91 O 0.90673 0.34653 0.42969 0.0
O92 O 0.91437 0.3706 0.46873 0.0
O93 O 0.88211 0.3653 0.49897 0.0
C94 C 0.91838 0.36095 0.44268 0.0
H95 H 0.89109 0.38677 0.28751 0.0
H96 H 0.90251 0.3255 0.64049 0.0
H97 H 0.83287 0.32206 0.41994 0.0
H98 H 0.85579 0.29366 0.44805 0.0
Co99 Co 0.53941 0.89307 0.63581 0.0
C100 C 0.53651 0.8926 0.50036 0.0
C101 C 0.52272 0.90145 0.54543 0.0
C102 C 0.52126 0.90268 0.48427 0.0
N103 N 0.53205 0.89487 0.55583 0.0
N104 N 0.52994 0.89712 0.45585 0.0
H105 H 0.5446 0.8881 0.49216 0.0
H106 H 0.51766 0.90552 0.58025 0.0
C107 C 0.50368 0.87355 0.63989 0.0
O108 O 0.50438 0.86694 0.58882 0.0
N109 N 0.5469 0.89187 0.71538 0.0
C110 C 0.5588 0.88876 0.72777 0.0
C111 C 0.5607 0.88899 0.78931 0.0
C112 C 0.54175 0.89407 0.76936 0.0
N113 N 0.55002 0.89238 0.81562 0.0
C114 C 0.54754 0.87071 0.58169 0.0
C115 C 0.52564 0.84407 0.64652 0.0
C116 C 0.53613 0.84252 0.60688 0.0
C117 C 0.54728 0.85609 0.57447 0.0
C118 C 0.52649 0.85893 0.65313 0.0
N119 N 0.53683 0.87191 0.61898 0.0
H120 H 0.5569 0.88124 0.55945 0.0
H121 H 0.5193 0.86008 0.68808 0.0
H122 H 0.56558 0.8864 0.69431 0.0
H123 H 0.53232 0.89704 0.77441 0.0
O124 O 0.56147 0.90671 0.60962 0.0
O125 O 0.54592 0.91532 0.64949 0.0
O126 O 0.51666 0.88358 0.66695 0.0
C127 C 0.55971 0.91878 0.62603 0.0
H128 H 0.5148 0.90785 0.46252 0.0
H129 H 0.56916 0.88658 0.8127 0.0
H130 H 0.51736 0.83407 0.67451 0.0
H131 H 0.55593 0.8555 0.54469 0.0
Co132 Co 0.64441 0.53445 0.80944 0.0
C133 C 0.642 0.53155 0.67614 0.0
C134 C 0.62113 0.51259 0.7198 0.0
C135 C 0.61907 0.51057 0.65833 0.0
N136 N 0.63552 0.52569 0.73088 0.0
N137 N 0.63216 0.52253 0.63066 0.0
H138 H 0.65355 0.54234 0.67007 0.0
H139 H 0.61263 0.50506 0.75393 0.0
C140 C 0.63571 0.50318 0.87521 0.0
O141 O 0.65055 0.50829 0.89306 0.0
N142 N 0.65302 0.54335 0.88924 0.0
C143 C 0.66493 0.55845 0.90172 0.0
C144 C 0.66675 0.56043 0.96319 0.0
C145 C 0.64724 0.53669 0.94407 0.0
N146 N 0.65567 0.54672 0.98992 0.0
C147 C 0.67811 0.54577 0.79071 0.0
C148 C 0.67474 0.51623 0.76133 0.0
C149 C 0.69026 0.52956 0.76735 0.0
C150 C 0.69183 0.54457 0.78042 0.0
C151 C 0.66134 0.51803 0.77136 0.0
N152 N 0.66315 0.53243 0.78999 0.0
H153 H 0.67958 0.55747 0.79878 0.0
H154 H 0.64947 0.50772 0.7651 0.0
H155 H 0.67145 0.56781 0.86892 0.0
H156 H 0.63686 0.52491 0.95068 0.0
O157 O 0.65155 0.55595 0.7788 0.0
O158 O 0.62784 0.53982 0.82103 0.0
O159 O 0.63215 0.51209 0.84366 0.0
C160 C 0.63745 0.55351 0.7953 0.0
H161 H 0.6087 0.50091 0.63606 0.0
H162 H 0.67518 0.57138 0.98639 0.0
H163 H 0.67298 0.50454 0.74887 0.0
H164 H 0.70358 0.55528 0.78398 0.0
Co165 Co 0.10476 0.6444 0.96884 0.0
C166 C 0.10654 0.64301 0.83562 0.0
C167 C 0.10474 0.62203 0.87786 0.0
C168 C 0.10489 0.62027 0.81622 0.0
N169 N 0.10586 0.63631 0.88995 0.0
N170 N 0.10597 0.63343 0.7896 0.0
H171 H 0.1073 0.65457 0.83007 0.0
H172 H 0.10345 0.61327 0.91136 0.0
C173 C 0.12602 0.63517 0.04076 0.0
O174 O 0.13486 0.64974 0.06293 0.0
N175 N 0.1032 0.65221 0.04874 0.0
C176 C 0.10065 0.66453 0.06109 0.0
C177 C 0.09921 0.66556 0.12241 0.0
C178 C 0.10249 0.64547 0.10324 0.0
N179 N 0.1004 0.65359 0.14918 0.0
C180 C 0.12702 0.67817 0.9523 0.0
C181 C 0.15413 0.67555 0.93458 0.0
C182 C 0.15592 0.69098 0.93875 0.0
C183 C 0.14197 0.6921 0.94551 0.0
C184 C 0.13887 0.66192 0.94081 0.0
N185 N 0.12574 0.66337 0.95416 0.0
H186 H 0.11647 0.67935 0.95509 0.0
H187 H 0.1377 0.65019 0.93576 0.0
H188 H 0.09918 0.67196 0.02816 0.0
H189 H 0.10282 0.63447 0.10919 0.0
O190 O 0.09087 0.65175 0.93547 0.0
O191 O 0.08266 0.62766 0.97526 0.0
O192 O 0.11441 0.63188 1.00462 0.0
C193 C 0.07899 0.63745 0.94848 0.0
H194 H 0.10371 0.60981 0.79289 0.0
H195 H 0.09735 0.67447 0.14524 0.0
H196 H 0.16441 0.67394 0.9279 0.0
H197 H 0.14253 0.70366 0.94523 0.0
Co198 Co 0.89265 0.53828 0.71156 0.0
C199 C 0.89289 0.536 0.84481 0.0
C200 C 0.89848 0.51935 0.80143 0.0
C201 C 0.89959 0.51812 0.86295 0.0
N202 N 0.89425 0.53052 0.7902 0.0
N203 N 0.89611 0.52861 0.89025 0.0
H204 H 0.89011 0.54554 0.85094 0.0
H205 H 0.90089 0.51278 0.76722 0.0
C206 C 0.871 0.50687 0.64558 0.0
O207 O 0.86169 0.51218 0.6247 0.0
N208 N 0.89144 0.54624 0.63181 0.0
C209 C 0.89094 0.55974 0.61901 0.0
C210 C 0.89092 0.5615 0.5575 0.0
C211 C 0.89255 0.54045 0.57729 0.0
N212 N 0.89189 0.54935 0.53125 0.0
C213 C 0.87034 0.54895 0.74137 0.0
C214 C 0.84358 0.51886 0.75633 0.0
C215 C 0.84153 0.53236 0.75483 0.0
C216 C 0.85532 0.54761 0.75023 0.0
C217 C 0.85893 0.52082 0.74784 0.0
N218 N 0.87179 0.5356 0.73467 0.0
H219 H 0.8808 0.56079 0.73988 0.0
H220 H 0.86032 0.51036 0.75062 0.0
H221 H 0.89135 0.5683 0.6514 0.0
H222 H 0.89391 0.53 0.57127 0.0
O223 O 0.90669 0.56014 0.73919 0.0
O224 O 0.91474 0.54452 0.69597 0.0
O225 O 0.88297 0.51564 0.67967 0.0
C226 C 0.91855 0.55822 0.72113 0.0
H227 H 0.90273 0.5101 0.88574 0.0
H228 H 0.89079 0.5713 0.53387 0.0
H229 H 0.83342 0.50684 0.76206 0.0
H230 H 0.85454 0.55847 0.75306 0.0
Co231 Co 0.3504 0.89383 0.8972 0.0
C232 C 0.35257 0.89337 0.0309 0.0
C233 C 0.3741 0.89679 0.98758 0.0
C234 C 0.37634 0.89742 0.04907 0.0
N235 N 0.35917 0.8941 0.97618 0.0
N236 N 0.36283 0.89531 0.07634 0.0
H237 H 0.34062 0.89164 0.03721 0.0
H238 H 0.38298 0.89876 0.95361 0.0
C239 C 0.36082 0.8741 0.82253 0.0
O240 O 0.34655 0.86608 0.79723 0.0
N241 N 0.34198 0.89411 0.81719 0.0
C242 C 0.32799 0.89354 0.80368 0.0
C243 C 0.32721 0.89533 0.7424 0.0
C244 C 0.3498 0.89696 0.76365 0.0
N245 N 0.3409 0.8974 0.7171 0.0
C246 C 0.31733 0.87083 0.92248 0.0
C247 C 0.32088 0.84405 0.92998 0.0
C248 C 0.30528 0.8419 0.93099 0.0
C249 C 0.30372 0.85566 0.92967 0.0
C250 C 0.33419 0.85951 0.92342 0.0
N251 N 0.3322 0.87251 0.9147 0.0
H252 H 0.31584 0.88123 0.9235 0.0
H253 H 0.34607 0.86092 0.92482 0.0
H254 H 0.31908 0.89253 0.83567 0.0
H255 H 0.36192 0.89906 0.75892 0.0
O256 O 0.342 0.90701 0.92863 0.0
O257 O 0.36615 0.91623 0.88746 0.0
O258 O 0.3637 0.88485 0.86241 0.0
C259 C 0.35581 0.91929 0.91343 0.0
H260 H 0.3873 0.89986 0.07192 0.0
H261 H 0.31728 0.89509 0.71838 0.0
H262 H 0.32283 0.83389 0.93277 0.0
H263 H 0.29206 0.85478 0.93418 0.0
Co264 Co 0.45777 0.35287 0.04694 0.0
C265 C 0.46127 0.35416 0.18018 0.0
C266 C 0.48059 0.37489 0.1372 0.0
C267 C 0.48268 0.3767 0.19872 0.0
N268 N 0.46724 0.36073 0.12562 0.0
N269 N 0.47051 0.36369 0.22583 0.0
H270 H 0.45031 0.34274 0.18616 0.0
H271 H 0.48804 0.38356 0.1034 0.0
C272 C 0.48763 0.36073 0.97413 0.0
O273 O 0.48109 0.34592 0.95358 0.0
N274 N 0.44816 0.34541 0.96711 0.0
C275 C 0.43299 0.33367 0.95469 0.0
C276 C 0.43053 0.33289 0.89339 0.0
C277 C 0.45435 0.35215 0.91276 0.0
N278 N 0.44399 0.3445 0.86673 0.0
C279 C 0.44562 0.31883 0.05953 0.0
C280 C 0.47494 0.32094 0.08214 0.0
C281 C 0.46127 0.30567 0.07505 0.0
C282 C 0.44638 0.30475 0.06558 0.0
C283 C 0.47358 0.33472 0.07603 0.0
N284 N 0.45924 0.33356 0.06057 0.0
H285 H 0.434 0.31781 0.05497 0.0
H286 H 0.48418 0.34637 0.08256 0.0
H287 H 0.42391 0.32653 0.98758 0.0
H288 H 0.46593 0.36287 0.90707 0.0
O289 O 0.43666 0.34589 0.08096 0.0
O290 O 0.45296 0.37 0.04194 0.0
O291 O 0.47993 0.36486 0.01019 0.0
C292 C 0.43942 0.36033 0.06864 0.0
H293 H 0.4921 0.38712 0.22168 0.0
H294 H 0.41955 0.32441 0.87062 0.0
H295 H 0.48666 0.3223 0.09089 0.0
H296 H 0.43535 0.29324 0.06327 0.0
Co297 Co 0.10472 0.45908 0.19817 0.0
C298 C 0.10481 0.46164 0.3316 0.0
C299 C 0.10348 0.48094 0.28827 0.0
C300 C 0.10263 0.48247 0.34973 0.0
N301 N 0.10491 0.46793 0.27696 0.0
N302 N 0.10336 0.47028 0.37712 0.0
H303 H 0.10525 0.45068 0.33758 0.0
H304 H 0.10273 0.48861 0.25425 0.0
C305 C 0.12696 0.48986 0.13013 0.0
O306 O 0.13616 0.48418 0.11147 0.0
N307 N 0.104 0.45003 0.11822 0.0
C308 C 0.10102 0.435 0.10574 0.0
C309 C 0.10033 0.43283 0.04427 0.0
C310 C 0.10419 0.45644 0.06348 0.0
N311 N 0.10239 0.44634 0.01759 0.0
C312 C 0.1271 0.44777 0.2149 0.0
C313 C 0.15374 0.47733 0.24001 0.0
C314 C 0.1558 0.46396 0.23214 0.0
C315 C 0.14208 0.44892 0.2219 0.0
C316 C 0.13843 0.47558 0.23305 0.0
N317 N 0.1256 0.46117 0.21589 0.0
H318 H 0.11671 0.43605 0.20908 0.0
H319 H 0.13702 0.48597 0.23967 0.0
H320 H 0.0986 0.42577 0.13858 0.0
H321 H 0.10523 0.46807 0.05704 0.0
O322 O 0.09073 0.43771 0.22997 0.0
O323 O 0.0826 0.45347 0.18848 0.0
O324 O 0.11465 0.4814 0.16319 0.0
C325 C 0.07887 0.43994 0.21486 0.0
H326 H 0.1015 0.49186 0.37229 0.0
H327 H 0.09781 0.42188 0.02112 0.0
H328 H 0.16387 0.48914 0.24962 0.0
H329 H 0.14288 0.43807 0.2192 0.0
Co330 Co 0.64497 0.10502 0.39442 0.0
C331 C 0.64281 0.10531 0.52829 0.0
C332 C 0.62159 0.10263 0.48488 0.0
C333 C 0.61936 0.10215 0.54633 0.0
N334 N 0.63631 0.10475 0.47358 0.0
N335 N 0.63268 0.10381 0.5737 0.0
H336 H 0.65462 0.1067 0.53461 0.0
H337 H 0.61286 0.10108 0.45081 0.0
C338 C 0.63592 0.12599 0.32133 0.0
O339 O 0.64985 0.13284 0.29323 0.0
N340 N 0.65326 0.10476 0.31417 0.0
C341 C 0.66729 0.10547 0.30003 0.0
C342 C 0.66796 0.1037 0.23871 0.0
C343 C 0.64532 0.10185 0.26096 0.0
N344 N 0.65417 0.1015 0.21399 0.0
C345 C 0.67832 0.12681 0.42227 0.0
C346 C 0.67606 0.15433 0.4308 0.0
C347 C 0.69133 0.15577 0.43291 0.0
C348 C 0.69229 0.14167 0.43078 0.0
C349 C 0.6624 0.1392 0.42274 0.0
N350 N 0.66377 0.12583 0.4136 0.0
H351 H 0.67926 0.11609 0.42266 0.0
H352 H 0.65076 0.13834 0.42405 0.0
H353 H 0.67633 0.1066 0.33155 0.0
H354 H 0.63319 0.09977 0.2568 0.0
O355 O 0.65234 0.09077 0.42339 0.0
O356 O 0.6284 0.08297 0.38302 0.0
O357 O 0.63264 0.11528 0.36166 0.0
C358 C 0.63824 0.07902 0.40763 0.0
H359 H 0.60854 0.1002 0.56906 0.0
H360 H 0.67791 0.10409 0.21424 0.0
H361 H 0.67466 0.16481 0.4356 0.0
H362 H 0.70376 0.14211 0.43419 0.0
Co363 Co 0.53742 0.64375 0.60095 0.0
C364 C 0.53409 0.64408 0.7342 0.0
C365 C 0.51431 0.62329 0.69325 0.0
C366 C 0.51194 0.62237 0.75463 0.0
N367 N 0.52809 0.63696 0.68041 0.0
N368 N 0.52438 0.6354 0.78034 0.0
H369 H 0.54532 0.65529 0.73941 0.0
H370 H 0.50665 0.61439 0.66051 0.0
C371 C 0.50692 0.63585 0.53202 0.0
O372 O 0.5134 0.65049 0.50988 0.0
N373 N 0.54684 0.65005 0.52019 0.0
C374 C 0.56249 0.66016 0.50687 0.0
C375 C 0.56456 0.6608 0.44541 0.0
C376 C 0.53985 0.64404 0.466 0.0
N377 N 0.55029 0.65069 0.41954 0.0
C378 C 0.55035 0.67805 0.60177 0.0
C379 C 0.52227 0.67737 0.63525 0.0
C380 C 0.53588 0.69227 0.62163 0.0
C381 C 0.55012 0.69245 0.60569 0.0
C382 C 0.523 0.66321 0.63013 0.0
N383 N 0.53671 0.6636 0.61059 0.0
H384 H 0.5616 0.67865 0.59213 0.0
H385 H 0.51243 0.65188 0.64118 0.0
H386 H 0.57203 0.66645 0.53936 0.0
H387 H 0.52759 0.63447 0.46031 0.0
O388 O 0.55853 0.65063 0.63455 0.0
O389 O 0.54165 0.62617 0.59939 0.0
O390 O 0.51505 0.63186 0.56618 0.0
C391 C 0.55542 0.63596 0.62441 0.0
H392 H 0.5021 0.61257 0.7787 0.0
H393 H 0.57578 0.6682 0.4218 0.0
H394 H 0.51115 0.67661 0.65003 0.0
H395 H 0.56104 0.70359 0.59539 0.0
H396 H 0.48003 0.29874 0.14913 0.0
H397 H 0.482 0.27426 0.15 0.0
H398 H 0.4471 0.25441 1.00629 0.0
H399 H 0.44524 0.27885 1.0044 0.0
H400 H 0.44049 0.23272 0.09593 0.0
H401 H 0.48663 0.26925 0.97779 0.0
H402 H 0.51192 0.29454 0.95789 0.0
H403 H 0.53409 0.28567 0.11002 0.0
H404 H 0.50884 0.26042 0.13136 0.0
H405 H 0.44907 0.1668 0.00938 0.0
H406 H 0.44933 0.1924 1.00795 0.0
H407 H 0.48587 0.21094 0.14629 0.0
H408 H 0.48573 0.18536 0.14769 0.0
H409 H 0.49206 0.23353 0.06311 0.0
H410 H 0.44647 0.19714 0.18141 0.0
H411 H 0.42126 0.17196 0.20345 0.0
H412 H 0.39809 0.18074 0.05446 0.0
H413 H 0.42325 0.20588 0.03097 0.0
C414 C 0.47289 0.28923 0.1173 0.0
C415 C 0.46246 0.29078 0.07674 0.0
C416 C 0.47401 0.27524 0.11796 0.0
C417 C 0.46477 0.26255 0.07793 0.0
C418 C 0.45429 0.26402 0.03773 0.0
C419 C 0.45319 0.27798 0.03694 0.0
C420 C 0.46584 0.24764 0.07812 0.0
C421 C 0.45173 0.23288 0.08802 0.0
C422 C 0.48059 0.24789 0.06949 0.0
C423 C 0.4958 0.26303 0.05654 0.0
C424 C 0.49686 0.27275 1.0073 0.0
C425 C 0.51119 0.28707 0.9957 0.0
C426 C 0.52459 0.29173 0.03277 0.0
C427 C 0.52369 0.28206 0.08141 0.0
C428 C 0.50938 0.26773 0.09324 0.0
C429 C 0.45717 0.17632 0.03949 0.0
C430 C 0.46728 0.174 0.07903 0.0
C431 C 0.45731 0.19096 0.03863 0.0
C432 C 0.46742 0.2035 0.07781 0.0
C433 C 0.47795 0.20143 0.11576 0.0
C434 C 0.47788 0.18681 0.1164 0.0
C435 C 0.46666 0.21859 0.08027 0.0
C436 C 0.48082 0.23337 0.07107 0.0
C437 C 0.45196 0.21838 0.0899 0.0
C438 C 0.43679 0.20332 0.1041 0.0
C439 C 0.43603 0.19364 0.15307 0.0
C440 C 0.42175 0.17938 0.16587 0.0
C441 C 0.4081 0.17473 0.13029 0.0
C442 C 0.40869 0.18435 0.08193 0.0
C443 C 0.42295 0.19861 0.06888 0.0
H444 H 0.39705 0.16369 0.14027 0.0
H445 H 0.53568 0.30282 0.02372 0.0
H446 H 0.167 0.44864 0.15973 0.0
H447 H 0.19337 0.4507 0.1614 0.0
H448 H 0.2082 0.48529 0.30625 0.0
H449 H 0.18161 0.48309 0.30574 0.0
H450 H 0.23148 0.49418 0.21634 0.0
H451 H 0.19867 0.44783 0.33827 0.0
H452 H 0.17486 0.42158 0.36188 0.0
H453 H 0.18529 0.40014 0.21104 0.0
H454 H 0.20905 0.42632 0.18598 0.0
H455 H 0.30183 0.48992 0.2889 0.0
H456 H 0.27653 0.49031 0.29006 0.0
H457 H 0.25635 0.45148 0.16057 0.0
H458 H 0.28154 0.45087 0.16016 0.0
H459 H 0.23584 0.44531 0.24794 0.0
H460 H 0.26791 0.49136 0.12307 0.0
H461 H 0.29149 0.51753 0.09676 0.0
H462 H 0.2824 0.53947 0.24939 0.0
H463 H 0.25888 0.51337 0.2771 0.0
C464 C 0.17576 0.45655 0.19259 0.0
C465 C 0.17207 0.46555 0.23313 0.0
C466 C 0.19087 0.45777 0.19322 0.0
C467 C 0.20268 0.468 0.23441 0.0
C468 C 0.19924 0.4773 0.27412 0.0
C469 C 0.18405 0.47605 0.27366 0.0
C470 C 0.21854 0.46881 0.2359 0.0
C471 C 0.2325 0.48357 0.22417 0.0
C472 C 0.21979 0.45487 0.24473 0.0
C473 C 0.20557 0.43908 0.25995 0.0
C474 C 0.19582 0.43754 0.30986 0.0
C475 C 0.18235 0.42267 0.32355 0.0
C476 C 0.17855 0.40921 0.2879 0.0
C477 C 0.18824 0.41058 0.23858 0.0
C478 C 0.20173 0.42543 0.22465 0.0
C479 C 0.29208 0.48164 0.25999 0.0
C480 C 0.29367 0.47036 0.22444 0.0
C481 C 0.27761 0.48187 0.26067 0.0
C482 C 0.26454 0.47101 0.22504 0.0
C483 C 0.26623 0.45994 0.18864 0.0
C484 C 0.28063 0.4596 0.1884 0.0
C485 C 0.24886 0.47067 0.22749 0.0
C486 C 0.2349 0.45598 0.24018 0.0
C487 C 0.24763 0.48466 0.21917 0.0
C488 C 0.26173 0.50037 0.2025 0.0
C489 C 0.27101 0.50174 0.15129 0.0
C490 C 0.28435 0.51657 0.13608 0.0
C491 C 0.28847 0.53015 0.17147 0.0
C492 C 0.27922 0.52894 0.22207 0.0
C493 C 0.26587 0.51413 0.23752 0.0
H494 H 0.2988 0.54162 0.15962 0.0
H495 H 0.16811 0.3977 0.29857 0.0
H496 H 0.71817 0.16495 0.50267 0.0
H497 H 0.74303 0.19109 0.50363 0.0
H498 H 0.72286 0.20907 0.37183 0.0
H499 H 0.69806 0.18288 0.36992 0.0
H500 H 0.75355 0.21631 0.34255 0.0
H501 H 0.726 0.22084 0.51559 0.0
H502 H 0.71156 0.21235 0.61269 0.0
H503 H 0.75279 0.21388 0.69524 0.0
H504 H 0.76741 0.22217 0.59835 0.0
H505 H 0.81581 0.29819 0.36366 0.0
H506 H 0.78958 0.2735 0.36437 0.0
H507 H 0.80583 0.25433 0.50642 0.0
H508 H 0.83178 0.27919 0.50786 0.0
H509 H 0.77635 0.24819 0.52965 0.0
H510 H 0.80351 0.24231 0.35768 0.0
H511 H 0.81816 0.2502 0.26087 0.0
H512 H 0.77803 0.25056 0.17671 0.0
H513 H 0.76322 0.24288 0.2733 0.0
C514 C 0.71903 0.17447 0.47387 0.0
C515 C 0.70613 0.17185 0.43627 0.0
C516 C 0.7332 0.18943 0.47477 0.0
C517 C 0.73475 0.20206 0.43807 0.0
C518 C 0.7219 0.1995 0.40059 0.0
C519 C 0.70769 0.18458 0.39995 0.0
C520 C 0.74994 0.21782 0.43776 0.0
C521 C 0.75842 0.22342 0.38326 0.0
C522 C 0.75648 0.22689 0.49115 0.0
C523 C 0.74774 0.22198 0.54955 0.0
C524 C 0.73195 0.21924 0.55432 0.0
C525 C 0.72374 0.21449 0.60934 0.0
C526 C 0.73124 0.21254 0.66006 0.0
C527 C 0.74699 0.21538 0.65589 0.0
C528 C 0.75524 0.22012 0.60095 0.0
C529 C 0.81376 0.28879 0.39546 0.0
C530 C 0.82598 0.29068 0.43545 0.0
C531 C 0.7988 0.2746 0.3954 0.0
C532 C 0.79578 0.26194 0.43494 0.0
C533 C 0.80788 0.26388 0.47534 0.0
C534 C 0.82279 0.27806 0.47562 0.0
C535 C 0.78005 0.24667 0.43446 0.0
C536 C 0.77146 0.24114 0.48883 0.0
C537 C 0.77346 0.23761 0.38101 0.0
C538 C 0.78233 0.24219 0.32287 0.0
C539 C 0.79786 0.2442 0.31865 0.0
C540 C 0.80618 0.24861 0.2638 0.0
C541 C 0.79905 0.25093 0.21272 0.0
C542 C 0.78355 0.24879 0.21635 0.0
C543 C 0.77518 0.2444 0.27112 0.0
H544 H 0.80551 0.25434 0.17029 0.0
H545 H 0.72487 0.20886 0.70263 0.0
H546 H 0.55964 0.72238 0.65706 0.0
H547 H 0.55927 0.74753 0.65268 0.0
H548 H 0.51016 0.72197 0.58943 0.0
H549 H 0.5108 0.69686 0.5895 0.0
H550 H 0.52584 0.74799 0.52721 0.0
H551 H 0.52081 0.73669 0.73834 0.0
H552 H 0.5278 0.72987 0.83682 0.0
H553 H 0.57383 0.77323 0.83204 0.0
H554 H 0.5672 0.7802 0.73309 0.0
H555 H 0.5103 0.81236 0.59203 0.0
H556 H 0.51009 0.78669 0.593 0.0
H557 H 0.56163 0.81216 0.61632 0.0
H558 H 0.56192 0.83787 0.61494 0.0
H559 H 0.54414 0.78621 0.69937 0.0
H560 H 0.54803 0.79688 0.48553 0.0
H561 H 0.53965 0.80325 0.38911 0.0
H562 H 0.49355 0.76021 0.40321 0.0
H563 H 0.50158 0.7537 0.50022 0.0
C564 C 0.54878 0.72206 0.64158 0.0
C565 C 0.53526 0.7075 0.62341 0.0
C566 C 0.54852 0.73648 0.63996 0.0
C567 C 0.53461 0.73667 0.62156 0.0
C568 C 0.52103 0.72216 0.60399 0.0
C569 C 0.52136 0.70774 0.60478 0.0
C570 C 0.5344 0.75208 0.61911 0.0
C571 C 0.52961 0.75621 0.56527 0.0
C572 C 0.53957 0.76299 0.66832 0.0
C573 C 0.54356 0.75889 0.72802 0.0
C574 C 0.53247 0.74471 0.75808 0.0
C575 C 0.53636 0.74083 0.81402 0.0
C576 C 0.55127 0.75109 0.8406 0.0
C577 C 0.56229 0.76529 0.81137 0.0
C578 C 0.55847 0.76922 0.75538 0.0
C579 C 0.52158 0.81246 0.59693 0.0
C580 C 0.53613 0.82708 0.60317 0.0
C581 C 0.52145 0.79783 0.59734 0.0
C582 C 0.53585 0.79756 0.60464 0.0
C583 C 0.5504 0.81214 0.61059 0.0
C584 C 0.55057 0.82679 0.60932 0.0
C585 C 0.53565 0.78204 0.60762 0.0
C586 C 0.54035 0.77792 0.66154 0.0
C587 C 0.53017 0.77104 0.55891 0.0
C588 C 0.52535 0.77489 0.50045 0.0
C589 C 0.53606 0.78885 0.46835 0.0
C590 C 0.53138 0.79247 0.41353 0.0
C591 C 0.51606 0.78216 0.39013 0.0
C592 C 0.5054 0.76819 0.42143 0.0
C593 C 0.51002 0.76453 0.47631 0.0
H594 H 0.51246 0.78498 0.34768 0.0
H595 H 0.55426 0.74806 0.8839 0.0
H596 H 0.7181 0.54908 0.70585 0.0
H597 H 0.7426 0.54717 0.70209 0.0
H598 H 0.71971 0.50434 0.81181 0.0
H599 H 0.6952 0.50627 0.81625 0.0
H600 H 0.75019 0.52673 0.85264 0.0
H601 H 0.72521 0.50075 0.6667 0.0
H602 H 0.71202 0.49827 0.56862 0.0
H603 H 0.75435 0.54034 0.50401 0.0
H604 H 0.76771 0.54323 0.60208 0.0
H605 H 0.81488 0.51086 0.82022 0.0
H606 H 0.78808 0.50803 0.81977 0.0
H607 H 0.80457 0.54744 0.69388 0.0
H608 H 0.83107 0.54983 0.69176 0.0
H609 H 0.77594 0.52436 0.66153 0.0
H610 H 0.80009 0.55204 0.84702 0.0
H611 H 0.81346 0.55598 0.94569 0.0
H612 H 0.77312 0.51227 0.01125 0.0
H613 H 0.75961 0.50796 0.91263 0.0
C614 C 0.71828 0.53923 0.72903 0.0
C615 C 0.70473 0.52782 0.76134 0.0
C616 C 0.73224 0.5381 0.72655 0.0
C617 C 0.73293 0.52556 0.75642 0.0
C618 C 0.7194 0.51409 0.78835 0.0
C619 C 0.70538 0.51513 0.79044 0.0
C620 C 0.74799 0.52479 0.75586 0.0
C621 C 0.7557 0.52592 0.81096 0.0
C622 C 0.75532 0.52412 0.70135 0.0
C623 C 0.74741 0.52228 0.64196 0.0
C624 C 0.73167 0.50954 0.63174 0.0
C625 C 0.72417 0.50805 0.57612 0.0
C626 C 0.73233 0.51916 0.53016 0.0
C627 C 0.74803 0.53175 0.53967 0.0
C628 C 0.75558 0.53331 0.59525 0.0
C629 C 0.81278 0.51883 0.792 0.0
C630 C 0.82522 0.53067 0.7564 0.0
C631 C 0.79747 0.5173 0.79222 0.0
C632 C 0.79434 0.52766 0.75733 0.0
C633 C 0.80668 0.53933 0.7213 0.0
C634 C 0.82191 0.54081 0.72077 0.0
C635 C 0.77829 0.5265 0.75837 0.0
C636 C 0.77039 0.52502 0.70332 0.0
C637 C 0.77084 0.527 0.81292 0.0
C638 C 0.77893 0.52958 0.87224 0.0
C639 C 0.79413 0.5432 0.88232 0.0
C640 C 0.80172 0.54551 0.93826 0.0
C641 C 0.79417 0.53435 0.98465 0.0
C642 C 0.77898 0.52088 0.97524 0.0
C643 C 0.77134 0.5185 0.91935 0.0
H644 H 0.80006 0.53617 0.02793 0.0
H645 H 0.72649 0.518 0.48716 0.0
H646 H 0.30099 0.81486 0.99111 0.0
H647 H 0.27725 0.78792 0.98992 0.0
H648 H 0.25261 0.80508 0.87579 0.0
H649 H 0.27649 0.83169 0.87378 0.0
H650 H 0.24809 0.77642 0.02892 0.0
H651 H 0.22672 0.77643 0.78274 0.0
H652 H 0.23865 0.78739 0.68309 0.0
H653 H 0.28266 0.78956 0.73721 0.0
H654 H 0.27092 0.7784 0.83684 0.0
H655 H 0.16623 0.71912 1.00129 0.0
H656 H 0.19256 0.74336 0.99832 0.0
H657 H 0.20922 0.72053 0.87239 0.0
H658 H 0.1825 0.69652 0.87193 0.0
H659 H 0.22004 0.74982 0.83878 0.0
H660 H 0.22003 0.72555 0.02552 0.0
H661 H 0.20976 0.71293 0.12478 0.0
H662 H 0.21173 0.75615 0.18872 0.0
H663 H 0.22181 0.76896 0.08954 0.0
C664 C 0.29061 0.81286 0.96499 0.0
C665 C 0.29073 0.82551 0.93242 0.0
C666 C 0.27698 0.79746 0.96482 0.0
C667 C 0.26318 0.79437 0.9321 0.0
C668 C 0.26318 0.80704 0.90044 0.0
C669 C 0.27682 0.82236 0.90011 0.0
C670 C 0.24864 0.77804 0.93189 0.0
C671 C 0.242 0.77058 0.98732 0.0
C672 C 0.24087 0.77016 0.8776 0.0
C673 C 0.24797 0.7767 0.81747 0.0
C674 C 0.23891 0.77917 0.77328 0.0
C675 C 0.24565 0.78543 0.71681 0.0
C676 C 0.26141 0.78921 0.70389 0.0
C677 C 0.27046 0.78668 0.74735 0.0
C678 C 0.26378 0.78041 0.80385 0.0
C679 C 0.17537 0.71927 0.97214 0.0
C680 C 0.17214 0.70577 0.93678 0.0
C681 C 0.19055 0.73311 0.97126 0.0
C682 C 0.20302 0.73371 0.93606 0.0
C683 C 0.19984 0.72034 0.90027 0.0
C684 C 0.18457 0.70653 0.90055 0.0
C685 C 0.21924 0.74842 0.93588 0.0
C686 C 0.22619 0.75559 0.88037 0.0
C687 C 0.22754 0.75579 0.99004 0.0
C688 C 0.22157 0.74817 0.04992 0.0
C689 C 0.21818 0.73233 0.06062 0.0
C690 C 0.2124 0.72514 0.11689 0.0
C691 C 0.21007 0.73372 0.16299 0.0
C692 C 0.21354 0.74952 0.15295 0.0
C693 C 0.2193 0.75675 0.09674 0.0
H694 H 0.20559 0.72814 0.20652 0.0
H695 H 0.26661 0.79407 0.66017 0.0
H696 H 0.44535 0.09955 0.88571 0.0
H697 H 0.44111 0.09872 0.77652 0.0
H698 H 0.49091 0.11295 0.7466 0.0
H699 H 0.49536 0.11436 0.85532 0.0
H700 H 0.48214 0.12863 0.67175 0.0
H701 H 0.46017 0.07357 0.73332 0.0
H702 H 0.44263 0.04913 0.79203 0.0
H703 H 0.40078 0.04832 0.719 0.0
H704 H 0.41807 0.07299 0.6611 0.0
H705 H 0.47625 0.10981 0.35978 0.0
H706 H 0.48044 0.10935 0.46852 0.0
H707 H 0.43058 0.09455 0.50042 0.0
H708 H 0.42616 0.09433 0.39199 0.0
H709 H 0.43953 0.07893 0.57419 0.0
H710 H 0.46114 0.13434 0.51667 0.0
H711 H 0.47839 0.15888 0.45787 0.0
H712 H 0.52056 0.15889 0.52269 0.0
H713 H 0.50354 0.13422 0.5813 0.0
C714 C 0.45545 0.1027 0.85598 0.0
C715 C 0.47068 0.10691 0.87957 0.0
C716 C 0.45297 0.10206 0.79343 0.0
C717 C 0.46564 0.10552 0.75312 0.0
C718 C 0.48092 0.11013 0.77661 0.0
C719 C 0.48341 0.11079 0.83897 0.0
C720 C 0.46304 0.10428 0.6865 0.0
C721 C 0.47295 0.11768 0.65042 0.0
C722 C 0.45084 0.09012 0.6585 0.0
C723 C 0.44043 0.07525 0.69337 0.0
C724 C 0.44723 0.06828 0.73027 0.0
C725 C 0.43733 0.05438 0.76344 0.0
C726 C 0.4206 0.04721 0.75953 0.0
C727 C 0.41374 0.05392 0.72232 0.0
C728 C 0.42358 0.06787 0.68933 0.0
C729 C 0.4661 0.10618 0.38978 0.0
C730 C 0.45089 0.10226 0.36688 0.0
C731 C 0.46856 0.10609 0.45212 0.0
C732 C 0.4559 0.10222 0.49296 0.0
C733 C 0.44057 0.0977 0.47005 0.0
C734 C 0.4381 0.09772 0.40786 0.0
C735 C 0.45862 0.10328 0.55953 0.0
C736 C 0.44874 0.08986 0.59558 0.0
C737 C 0.4708 0.11743 0.58758 0.0
C738 C 0.48106 0.13235 0.55288 0.0
C739 C 0.47409 0.13952 0.51808 0.0
C740 C 0.48382 0.15346 0.48482 0.0
C741 C 0.50056 0.16041 0.48641 0.0
C742 C 0.5076 0.15347 0.52143 0.0
C743 C 0.49791 0.13952 0.55472 0.0
H744 H 0.50807 0.1712 0.46062 0.0
H745 H 0.41296 0.03643 0.78513 0.0
H746 H 0.36192 0.48214 0.50295 0.0
H747 H 0.3658 0.48685 0.61192 0.0
H748 H 0.34063 0.43563 0.64309 0.0
H749 H 0.33672 0.43084 0.53465 0.0
H750 H 0.32973 0.45023 0.71662 0.0
H751 H 0.38167 0.45901 0.65431 0.0
H752 H 0.40695 0.47177 0.59602 0.0
H753 H 0.41929 0.51782 0.67094 0.0
H754 H 0.39391 0.5054 0.72872 0.0
H755 H 0.34872 0.44908 0.02621 0.0
H756 H 0.34522 0.44544 0.91672 0.0
H757 H 0.37374 0.49686 0.89197 0.0
H758 H 0.37751 0.50046 1.0011 0.0
H759 H 0.38294 0.48292 0.81451 0.0
H760 H 0.33171 0.47533 0.87453 0.0
H761 H 0.3064 0.46357 0.93261 0.0
H762 H 0.29273 0.41674 0.86211 0.0
H763 H 0.31808 0.42819 0.80423 0.0
C764 C 0.35742 0.47188 0.53294 0.0
C765 C 0.34894 0.4561 0.50996 0.0
C766 C 0.35962 0.4746 0.59527 0.0
C767 C 0.35355 0.4616 0.63578 0.0
C768 C 0.34533 0.44586 0.61283 0.0
C769 C 0.34308 0.44314 0.55071 0.0
C770 C 0.35534 0.46427 0.7022 0.0
C771 C 0.34139 0.45722 0.73811 0.0
C772 C 0.3705 0.47382 0.73014 0.0
C773 C 0.38577 0.48129 0.69531 0.0
C774 C 0.38969 0.47188 0.6579 0.0
C775 C 0.40405 0.47905 0.625 0.0
C776 C 0.4147 0.4956 0.62965 0.0
C777 C 0.41103 0.505 0.66739 0.0
C778 C 0.39665 0.4979 0.70015 0.0
C779 C 0.35406 0.45959 0.99739 0.0
C780 C 0.3634 0.47505 0.02225 0.0
C781 C 0.35206 0.45752 0.93477 0.0
C782 C 0.3591 0.47089 0.89584 0.0
C783 C 0.36825 0.48634 0.92083 0.0
C784 C 0.3704 0.48839 0.98326 0.0
C785 C 0.35734 0.46881 0.82907 0.0
C786 C 0.37127 0.47597 0.79308 0.0
C787 C 0.34216 0.45952 0.80093 0.0
C788 C 0.32687 0.4526 0.83549 0.0
C789 C 0.32336 0.46251 0.87175 0.0
C790 C 0.309 0.4559 0.90459 0.0
C791 C 0.29799 0.43941 0.90117 0.0
C792 C 0.30129 0.42951 0.86477 0.0
C793 C 0.31564 0.43605 0.8319 0.0
H794 H 0.28688 0.43432 0.92663 0.0
H795 H 0.42581 0.50113 0.60411 0.0
H796 H 0.913 0.33834 0.73124 0.0
H797 H 0.91182 0.34179 0.83978 0.0
H798 H 0.88193 0.36296 0.81084 0.0
H799 H 0.88286 0.35935 0.70178 0.0
H800 H 0.90504 0.37922 0.89681 0.0
H801 H 0.86526 0.32416 0.85547 0.0
H802 H 0.85536 0.29694 0.81404 0.0
H803 H 0.88888 0.29128 0.92499 0.0
H804 H 0.89914 0.31857 0.96648 0.0
H805 H 0.87728 0.37334 0.19626 0.0
H806 H 0.87883 0.37042 0.08736 0.0
H807 H 0.90539 0.34567 0.11644 0.0
H808 H 0.9038 0.34853 0.22584 0.0
H809 H 0.88418 0.33134 0.02989 0.0
H810 H 0.92396 0.38586 0.07244 0.0
H811 H 0.9346 0.41323 0.11346 0.0
H812 H 0.90232 0.42026 1.00023 0.0
H813 H 0.89131 0.39283 0.95916 0.0
C814 C 0.90608 0.34364 0.7477 0.0
C815 C 0.89785 0.34837 0.70746 0.0
C816 C 0.90546 0.34564 0.80995 0.0
C817 C 0.89655 0.35236 0.83361 0.0
C818 C 0.88882 0.35767 0.79364 0.0
C819 C 0.88941 0.35565 0.7312 0.0
C820 C 0.89512 0.35356 0.90008 0.0
C821 C 0.90027 0.36873 0.92587 0.0
C822 C 0.88931 0.33993 0.93821 0.0
C823 C 0.88307 0.32347 0.91367 0.0
C824 C 0.8706 0.31716 0.87071 0.0
C825 C 0.86491 0.30171 0.84727 0.0
C826 C 0.87151 0.2924 0.86677 0.0
C827 C 0.88379 0.29851 0.90988 0.0
C828 C 0.88953 0.31396 0.93342 0.0
C829 C 0.88352 0.36735 0.17949 0.0
C830 C 0.89051 0.36128 0.21975 0.0
C831 C 0.88442 0.3657 0.11715 0.0
C832 C 0.89255 0.35815 0.09344 0.0
C833 C 0.89916 0.35166 0.13356 0.0
C834 C 0.89818 0.35322 0.19611 0.0
C835 C 0.8941 0.35702 0.02688 0.0
C836 C 0.88897 0.34186 1.00099 0.0
C837 C 0.90004 0.37069 0.98872 0.0
C838 C 0.90669 0.38722 0.01319 0.0
C839 C 0.91904 0.39319 0.05663 0.0
C840 C 0.92515 0.40873 0.07984 0.0
C841 C 0.91911 0.41846 0.05959 0.0
C842 C 0.90697 0.4127 0.01595 0.0
C843 C 0.90079 0.39716 0.99267 0.0
H844 H 0.92386 0.43049 0.07761 0.0
H845 H 0.8671 0.28044 0.84855 0.0
H846 H 0.57195 0.89865 0.90432 0.0
H847 H 0.56811 0.89945 0.0126 0.0
H848 H 0.51993 0.89047 0.98239 0.0
H849 H 0.5235 0.88926 0.87341 0.0
H850 H 0.53713 0.91481 0.06761 0.0
H851 H 0.52469 0.86049 0.02887 0.0
H852 H 0.52967 0.83943 0.98832 0.0
H853 H 0.57205 0.85704 0.09816 0.0
H854 H 0.56744 0.87836 0.13873 0.0
H855 H 0.50927 0.89489 0.36814 0.0
H856 H 0.51297 0.89475 0.25933 0.0
H857 H 0.5591 0.89826 0.28751 0.0
H858 H 0.55546 0.8984 0.39681 0.0
H859 H 0.54278 0.87667 0.20258 0.0
H860 H 0.55692 0.93159 0.23641 0.0
H861 H 0.55315 0.95341 0.27752 0.0
H862 H 0.50922 0.93567 0.17705 0.0
H863 H 0.51265 0.91362 0.13607 0.0
C864 C 0.56045 0.89667 0.92033 0.0
C865 C 0.54797 0.89369 0.8797 0.0
C866 C 0.55832 0.89721 0.98247 0.0
C867 C 0.54367 0.89481 1.00562 0.0
C868 C 0.53133 0.89232 0.96541 0.0
C869 C 0.53342 0.89168 0.90305 0.0
C870 C 0.54129 0.89476 0.07189 0.0
C871 C 0.53812 0.90632 0.09707 0.0
C872 C 0.54306 0.88399 0.11047 0.0
C873 C 0.5458 0.87112 0.08641 0.0
C874 C 0.53514 0.85995 0.04402 0.0
C875 C 0.53789 0.84795 0.02109 0.0
C876 C 0.55119 0.84692 0.04053 0.0
C877 C 0.56176 0.85787 0.08308 0.0
C878 C 0.55908 0.8699 0.1061 0.0
C879 C 0.52028 0.89579 0.35134 0.0
C880 C 0.5321 0.89674 0.39143 0.0
C881 C 0.52239 0.89572 0.28896 0.0
C882 C 0.53643 0.89675 0.26504 0.0
C883 C 0.54817 0.89746 0.30485 0.0
C884 C 0.54603 0.89747 0.36741 0.0
C885 C 0.53866 0.89675 0.19852 0.0
C886 C 0.54178 0.88517 0.17322 0.0
C887 C 0.53701 0.90759 0.15986 0.0
C888 C 0.53494 0.92087 0.18391 0.0
C889 C 0.54638 0.93227 0.22367 0.0
C890 C 0.54433 0.94469 0.24681 0.0
C891 C 0.53092 0.94588 0.23012 0.0
C892 C 0.51958 0.9347 0.19005 0.0
C893 C 0.52159 0.92226 0.1668 0.0
H894 H 0.52934 0.9555 0.24808 0.0
H895 H 0.5533 0.83763 0.02273 0.0
H896 H 0.62783 0.52627 0.04842 0.0
H897 H 0.62403 0.52186 0.15748 0.0
H898 H 0.67426 0.55615 0.18639 0.0
H899 H 0.67822 0.56032 0.0776 0.0
H900 H 0.66453 0.52982 0.25646 0.0
H901 H 0.64594 0.5667 0.21027 0.0
H902 H 0.62968 0.57611 0.15653 0.0
H903 H 0.5863 0.5351 0.22061 0.0
H904 H 0.60231 0.52532 0.27405 0.0
H905 H 0.66067 0.54104 0.57206 0.0
H906 H 0.66484 0.54535 0.46348 0.0
H907 H 0.61404 0.51386 0.43326 0.0
H908 H 0.60961 0.51015 0.54148 0.0
H909 H 0.6243 0.5389 0.36341 0.0
H910 H 0.64287 0.5019 0.40965 0.0
H911 H 0.65916 0.49251 0.46328 0.0
H912 H 0.70251 0.53354 0.39915 0.0
H913 H 0.68647 0.54329 0.34575 0.0
C914 C 0.6381 0.53276 0.07788 0.0
C915 C 0.65332 0.54375 0.05411 0.0
C916 C 0.63588 0.53032 0.14032 0.0
C917 C 0.64883 0.53882 0.18027 0.0
C918 C 0.66408 0.5495 0.15657 0.0
C919 C 0.66629 0.55198 0.0943 0.0
C920 C 0.64649 0.53676 0.2468 0.0
C921 C 0.65585 0.53197 0.27997 0.0
C922 C 0.63498 0.53929 0.27742 0.0
C923 C 0.62533 0.54519 0.24565 0.0
C924 C 0.63293 0.55962 0.21252 0.0
C925 C 0.62376 0.56503 0.18217 0.0
C926 C 0.60696 0.55618 0.18501 0.0
C927 C 0.59931 0.54193 0.21837 0.0
C928 C 0.60843 0.53645 0.24873 0.0
C929 C 0.65033 0.53513 0.5426 0.0
C930 C 0.63479 0.52514 0.56622 0.0
C931 C 0.65277 0.53748 0.4802 0.0
C932 C 0.63979 0.52972 0.43985 0.0
C933 C 0.62428 0.51992 0.46327 0.0
C934 C 0.6218 0.51768 0.52553 0.0
C935 C 0.64227 0.53184 0.37327 0.0
C936 C 0.63295 0.53669 0.34001 0.0
C937 C 0.6538 0.52933 0.34259 0.0
C938 C 0.66347 0.5234 0.37419 0.0
C939 C 0.65588 0.50897 0.40731 0.0
C940 C 0.66507 0.50358 0.43762 0.0
C941 C 0.68187 0.51244 0.43476 0.0
C942 C 0.6895 0.5267 0.4014 0.0
C943 C 0.68037 0.53216 0.37105 0.0
H944 H 0.68896 0.50825 0.4583 0.0
H945 H 0.59988 0.56039 0.16148 0.0
H946 H 0.08721 0.66326 0.23701 0.0
H947 H 0.08794 0.65975 0.34559 0.0
H948 H 0.11244 0.63293 0.31753 0.0
H949 H 0.11213 0.63671 0.20836 0.0
H950 H 0.08764 0.61898 0.40405 0.0
H951 H 0.13364 0.67101 0.36059 0.0
H952 H 0.14737 0.69844 0.31819 0.0
H953 H 0.11853 0.71093 0.4292 0.0
H954 H 0.10446 0.68348 0.47165 0.0
H955 H 0.11583 0.62121 0.69964 0.0
H956 H 0.11417 0.62452 0.59122 0.0
H957 H 0.094 0.65514 0.62451 0.0
H958 H 0.09546 0.65172 0.73344 0.0
H959 H 0.11588 0.66718 0.5354 0.0
H960 H 0.07001 0.61646 0.58011 0.0
H961 H 0.05518 0.58919 0.62354 0.0
H962 H 0.08185 0.57422 0.51132 0.0
H963 H 0.09703 0.6015 0.46785 0.0
C964 C 0.09288 0.65671 0.25354 0.0
C965 C 0.09978 0.65044 0.21339 0.0
C966 C 0.09322 0.65466 0.31589 0.0
C967 C 0.10042 0.64625 0.33981 0.0
C968 C 0.10683 0.63948 0.30006 0.0
C969 C 0.10658 0.64161 0.23753 0.0
C970 C 0.10153 0.64486 0.40635 0.0
C971 C 0.09401 0.6295 0.43269 0.0
C972 C 0.10937 0.6586 0.44401 0.0
C973 C 0.1179 0.67515 0.41886 0.0
C974 C 0.13014 0.67956 0.37562 0.0
C975 C 0.138 0.69512 0.35163 0.0
C976 C 0.13379 0.70641 0.37088 0.0
C977 C 0.12176 0.70217 0.41428 0.0
C978 C 0.11385 0.68662 0.43835 0.0
C979 C 0.11093 0.62856 0.68406 0.0
C980 C 0.10568 0.63609 0.72548 0.0
C981 C 0.11 0.63047 0.62192 0.0
C982 C 0.1037 0.63986 0.59952 0.0
C983 C 0.09885 0.64778 0.64065 0.0
C984 C 0.09976 0.64587 0.703 0.0
C985 C 0.10211 0.64128 0.53319 0.0
C986 C 0.10951 0.65664 0.50686 0.0
C987 C 0.09397 0.62754 0.49562 0.0
C988 C 0.08476 0.61107 0.52111 0.0
C989 C 0.0728 0.60739 0.56499 0.0
C990 C 0.06432 0.59192 0.58958 0.0
C991 C 0.0676 0.57999 0.57029 0.0
C992 C 0.07933 0.58348 0.52625 0.0
C993 C 0.08787 0.59894 0.50158 0.0
H994 H 0.06102 0.56802 0.58939 0.0
H995 H 0.13989 0.71845 0.35225 0.0
H996 H 0.87857 0.53927 0.95061 0.0
H997 H 0.8781 0.54312 0.05967 0.0
H998 H 0.91337 0.52828 0.08461 0.0
H999 H 0.91379 0.52431 0.97595 0.0
H1000 H 0.88982 0.51386 0.16483 0.0
H1001 H 0.92309 0.56881 0.09527 0.0
H1002 H 0.92885 0.59231 0.03219 0.0
H1003 H 0.88793 0.59294 0.10745 0.0
H1004 H 0.88172 0.56923 0.16981 0.0
H1005 H 0.90844 0.53732 0.47266 0.0
H1006 H 0.90975 0.53421 0.36323 0.0
H1007 H 0.877 0.55218 0.3359 0.0
H1008 H 0.87612 0.55574 0.44472 0.0
H1009 H 0.89937 0.56509 0.25645 0.0
H1010 H 0.86571 0.51136 0.32626 0.0
H1011 H 0.85864 0.48778 0.39014 0.0
H1012 H 0.89779 0.48386 0.31458 0.0
H1013 H 0.90541 0.5078 0.25145 0.0
C1014 C 0.88635 0.53699 0.97924 0.0
C1015 C 0.89618 0.53144 0.95439 0.0
C1016 C 0.88607 0.5392 0.04168 0.0
C1017 C 0.89581 0.53612 0.08055 0.0
C1018 C 0.90569 0.53067 0.05575 0.0
C1019 C 0.90589 0.52836 0.99348 0.0
C1020 C 0.89548 0.53822 0.14715 0.0
C1021 C 0.89214 0.52515 0.18491 0.0
C1022 C 0.89798 0.55275 0.17348 0.0
C1023 C 0.90185 0.56714 0.1366 0.0
C1024 C 0.91525 0.57387 0.09785 0.0
C1025 C 0.91861 0.58724 0.06234 0.0
C1026 C 0.90876 0.59409 0.06576 0.0
C1027 C 0.89554 0.58761 0.10478 0.0
C1028 C 0.89209 0.5742 0.14018 0.0
C1029 C 0.90146 0.54048 0.4432 0.0
C1030 C 0.8922 0.54678 0.46721 0.0
C1031 C 0.90219 0.5387 0.38064 0.0
C1032 C 0.89334 0.54281 0.34098 0.0
C1033 C 0.88402 0.549 0.36521 0.0
C1034 C 0.8835 0.55101 0.42748 0.0
C1035 C 0.89378 0.54075 0.27432 0.0
C1036 C 0.8971 0.55381 0.23651 0.0
C1037 C 0.89102 0.52613 0.2479 0.0
C1038 C 0.88623 0.51148 0.2846 0.0
C1039 C 0.87288 0.50554 0.32352 0.0
C1040 C 0.86877 0.4921 0.35963 0.0
C1041 C 0.87776 0.4843 0.35647 0.0
C1042 C 0.89086 0.48993 0.31706 0.0
C1043 C 0.89509 0.50345 0.28116 0.0
H1044 H 0.87458 0.4739 0.3845 0.0
H1045 H 0.91139 0.60444 0.03827 0.0
H1046 H 0.33052 0.91026 0.63147 0.0
H1047 H 0.33497 0.911 0.52274 0.0
H1048 H 0.3643 0.88907 0.54846 0.0
H1049 H 0.35993 0.88837 0.65774 0.0
H1050 H 0.37729 0.91238 0.46436 0.0
H1051 H 0.3248 0.86684 0.50187 0.0
H1052 H 0.29712 0.85294 0.54212 0.0
H1053 H 0.28556 0.88294 0.43421 0.0
H1054 H 0.31326 0.89717 0.39391 0.0
H1055 H 0.37548 0.88578 0.16522 0.0
H1056 H 0.37242 0.88746 0.27394 0.0
H1057 H 0.34202 0.90798 0.24258 0.0
H1058 H 0.34491 0.9061 0.13323 0.0
H1059 H 0.3297 0.88614 0.32939 0.0
H1060 H 0.382 0.93159 0.29101 0.0
H1061 H 0.40977 0.9458 0.25148 0.0
H1062 H 0.42164 0.91619 0.36023 0.0
H1063 H 0.39392 0.90175 0.40024 0.0
C1064 C 0.3379 0.90557 0.6141 0.0
C1065 C 0.34471 0.89909 0.65341 0.0
C1066 C 0.34044 0.906 0.55179 0.0
C1067 C 0.3497 0.89979 0.52708 0.0
C1068 C 0.35705 0.89388 0.56634 0.0
C1069 C 0.35458 0.89352 0.62887 0.0
C1070 C 0.3514 0.89916 0.46031 0.0
C1071 C 0.36688 0.90647 0.43494 0.0
C1072 C 0.33784 0.89181 0.42152 0.0
C1073 C 0.32114 0.88317 0.44531 0.0
C1074 C 0.31639 0.87055 0.48703 0.0
C1075 C 0.30069 0.8626 0.50981 0.0
C1076 C 0.2896 0.86708 0.49085 0.0
C1077 C 0.29417 0.87949 0.44891 0.0
C1078 C 0.30986 0.88749 0.42605 0.0
C1079 C 0.36821 0.89073 0.18144 0.0
C1080 C 0.36048 0.89585 0.14054 0.0
C1081 C 0.3665 0.89174 0.24371 0.0
C1082 C 0.35722 0.89813 0.26677 0.0
C1083 C 0.34928 0.90304 0.22602 0.0
C1084 C 0.35088 0.9019 0.16352 0.0
C1085 C 0.3556 0.89935 0.33333 0.0
C1086 C 0.34012 0.89212 0.35871 0.0
C1087 C 0.36917 0.90681 0.37208 0.0
C1088 C 0.38585 0.9155 0.34822 0.0
C1089 C 0.3905 0.92804 0.30619 0.0
C1090 C 0.40624 0.93615 0.28376 0.0
C1091 C 0.41743 0.93185 0.30313 0.0
C1092 C 0.41294 0.91949 0.34521 0.0
C1093 C 0.39724 0.91136 0.36789 0.0
H1094 H 0.4296 0.93813 0.28565 0.0
H1095 H 0.27746 0.86092 0.50855 0.0
H1096 H 0.44175 0.346 0.28308 0.0
H1097 H 0.43707 0.34296 0.39215 0.0
H1098 H 0.48801 0.37319 0.42366 0.0
H1099 H 0.49281 0.37585 0.31501 0.0
H1100 H 0.47571 0.34777 0.49686 0.0
H1101 H 0.46162 0.38754 0.43866 0.0
H1102 H 0.44701 0.39811 0.38036 0.0
H1103 H 0.402 0.36015 0.44804 0.0
H1104 H 0.41632 0.34922 0.50613 0.0
H1105 H 0.47278 0.36176 0.80855 0.0
H1106 H 0.47721 0.36594 0.7001 0.0
H1107 H 0.42601 0.33817 0.6694 0.0
H1108 H 0.42138 0.33472 0.77763 0.0
H1109 H 0.43832 0.3624 0.59531 0.0
H1110 H 0.45181 0.32216 0.65109 0.0
H1111 H 0.46595 0.311 0.70889 0.0
H1112 H 0.51144 0.34902 0.64479 0.0
H1113 H 0.49757 0.36052 0.58719 0.0
C1114 C 0.45198 0.35184 0.31316 0.0
C1115 C 0.46766 0.36125 0.29008 0.0
C1116 C 0.44926 0.35024 0.3756 0.0
C1117 C 0.46216 0.35805 0.41626 0.0
C1118 C 0.47784 0.36712 0.39331 0.0
C1119 C 0.48056 0.36873 0.33104 0.0
C1120 C 0.45942 0.35678 0.48274 0.0
C1121 C 0.46768 0.35116 0.51844 0.0
C1122 C 0.44866 0.36084 0.51091 0.0
C1123 C 0.44004 0.36747 0.47628 0.0
C1124 C 0.4486 0.38138 0.44076 0.0
C1125 C 0.44037 0.38744 0.40782 0.0
C1126 C 0.42359 0.37978 0.41035 0.0
C1127 C 0.415 0.36606 0.44604 0.0
C1128 C 0.42316 0.35993 0.47902 0.0
C1129 C 0.4624 0.35674 0.77907 0.0
C1130 C 0.4467 0.34774 0.80257 0.0
C1131 C 0.46499 0.35899 0.71672 0.0
C1132 C 0.45197 0.35208 0.67618 0.0
C1133 C 0.43628 0.34354 0.69951 0.0
C1134 C 0.43367 0.34143 0.76178 0.0
C1135 C 0.45464 0.35341 0.60953 0.0
C1136 C 0.44636 0.35902 0.57377 0.0
C1137 C 0.46531 0.34925 0.58116 0.0
C1138 C 0.47366 0.34228 0.6153 0.0
C1139 C 0.46483 0.32819 0.64962 0.0
C1140 C 0.4728 0.3218 0.68231 0.0
C1141 C 0.48959 0.32932 0.68064 0.0
C1142 C 0.49844 0.34322 0.64611 0.0
C1143 C 0.49053 0.34967 0.61339 0.0
H1144 H 0.49573 0.32436 0.706 0.0
H1145 H 0.41723 0.38447 0.38474 0.0
H1146 H 0.09037 0.48056 0.46347 0.0
H1147 H 0.08985 0.47632 0.57203 0.0
H1148 H 0.11283 0.44795 0.54655 0.0
H1149 H 0.11376 0.45244 0.43753 0.0
H1150 H 0.08738 0.43423 0.62848 0.0
H1151 H 0.13469 0.48568 0.59407 0.0
H1152 H 0.14985 0.51345 0.55527 0.0
H1153 H 0.12099 0.52661 0.66303 0.0
H1154 H 0.10548 0.49883 0.70182 0.0
H1155 H 0.11146 0.43319 0.92866 0.0
H1156 H 0.11086 0.43706 0.82014 0.0
H1157 H 0.09275 0.46952 0.85129 0.0
H1158 H 0.09346 0.46578 0.96045 0.0
H1159 H 0.11505 0.48115 0.76606 0.0
H1160 H 0.06793 0.43026 0.80197 0.0
H1161 H 0.05222 0.40252 0.84063 0.0
H1162 H 0.07975 0.38823 0.73028 0.0
H1163 H 0.09579 0.41596 0.69156 0.0
C1164 C 0.0955 0.47356 0.48064 0.0
C1165 C 0.10234 0.46706 0.44131 0.0
C1166 C 0.0951 0.47108 0.54293 0.0
C1167 C 0.1015 0.46201 0.56756 0.0
C1168 C 0.10785 0.45504 0.52853 0.0
C1169 C 0.10834 0.45759 0.46609 0.0
C1170 C 0.10175 0.46002 0.63409 0.0
C1171 C 0.0936 0.44446 0.65855 0.0
C1172 C 0.10948 0.47341 0.67347 0.0
C1173 C 0.11882 0.49013 0.65036 0.0
C1174 C 0.13148 0.49446 0.6091 0.0
C1175 C 0.14016 0.5102 0.58718 0.0
C1176 C 0.13636 0.52177 0.60654 0.0
C1177 C 0.1239 0.51763 0.648 0.0
C1178 C 0.11517 0.50189 0.66999 0.0
C1179 C 0.10721 0.44105 0.91253 0.0
C1180 C 0.10235 0.44904 0.95341 0.0
C1181 C 0.10687 0.44325 0.85031 0.0
C1182 C 0.10146 0.45334 0.82723 0.0
C1183 C 0.09692 0.46162 0.8679 0.0
C1184 C 0.09736 0.4595 0.93036 0.0
C1185 C 0.10073 0.45531 0.76073 0.0
C1186 C 0.10878 0.47089 0.73616 0.0
C1187 C 0.09282 0.44193 0.72128 0.0
C1188 C 0.08316 0.42523 0.74429 0.0
C1189 C 0.07072 0.42123 0.78628 0.0
C1190 C 0.06174 0.40551 0.80815 0.0
C1191 C 0.06501 0.39363 0.78803 0.0
C1192 C 0.07725 0.39745 0.74587 0.0
C1193 C 0.08627 0.41316 0.7239 0.0
H1194 H 0.05805 0.38146 0.80502 0.0
H1195 H 0.14309 0.53396 0.58954 0.0
H1196 H 0.65063 0.09323 0.63175 0.0
H1197 H 0.65352 0.09177 0.74134 0.0
H1198 H 0.62269 0.11186 0.77072 0.0
H1199 H 0.61999 0.11359 0.66185 0.0
H1200 H 0.64865 0.12597 0.84236 0.0
H1201 H 0.6088 0.07236 0.78912 0.0
H1202 H 0.59648 0.04595 0.73853 0.0
H1203 H 0.63311 0.03756 0.81112 0.0
H1204 H 0.64588 0.06409 0.86112 0.0
H1205 H 0.63469 0.11019 0.15626 0.0
H1206 H 0.63001 0.10948 0.04731 0.0
H1207 H 0.66058 0.08905 0.01827 0.0
H1208 H 0.66492 0.0893 0.12694 0.0
H1209 H 0.63447 0.07483 0.94662 0.0
H1210 H 0.6747 0.12922 0.997 0.0
H1211 H 0.6856 0.15485 0.05267 0.0
H1212 H 0.64696 0.16109 0.98727 0.0
H1213 H 0.6357 0.13539 0.93181 0.0
C1214 C 0.6446 0.09746 0.6616 0.0
C1215 C 0.63502 0.10346 0.63799 0.0
C1216 C 0.64611 0.09646 0.72421 0.0
C1217 C 0.63816 0.10152 0.76435 0.0
C1218 C 0.62888 0.10781 0.74077 0.0
C1219 C 0.62727 0.1087 0.67843 0.0
C1220 C 0.63965 0.10057 0.83094 0.0
C1221 C 0.64537 0.11473 0.86514 0.0
C1222 C 0.63564 0.08597 0.86076 0.0
C1223 C 0.62841 0.07033 0.82838 0.0
C1224 C 0.61438 0.065 0.79363 0.0
C1225 C 0.60725 0.04996 0.76532 0.0
C1226 C 0.61396 0.04005 0.77189 0.0
C1227 C 0.62788 0.04521 0.80637 0.0
C1228 C 0.63509 0.06028 0.83454 0.0
C1229 C 0.6402 0.1053 0.12678 0.0
C1230 C 0.65029 0.09992 0.15041 0.0
C1231 C 0.63764 0.10504 0.06441 0.0
C1232 C 0.64516 0.09945 0.02439 0.0
C1233 C 0.65472 0.09351 0.04809 0.0
C1234 C 0.6573 0.09378 0.1103 0.0
C1235 C 0.64349 0.10021 0.95778 0.0
C1236 C 0.63777 0.08605 0.92364 0.0
C1237 C 0.64745 0.11478 0.92793 0.0
C1238 C 0.65428 0.13031 0.96074 0.0
C1239 C 0.66847 0.13601 0.99482 0.0
C1240 C 0.67472 0.15055 0.02629 0.0
C1241 C 0.66695 0.15957 0.02364 0.0
C1242 C 0.65295 0.15409 0.98935 0.0
C1243 C 0.64664 0.13954 0.95785 0.0
H1244 H 0.67181 0.17083 0.04805 0.0
H1245 H 0.60843 0.02841 0.74988 0.0
H1246 H 0.52139 0.63957 0.36322 0.0
H1247 H 0.51632 0.63674 0.25444 0.0
H1248 H 0.56649 0.65316 0.22153 0.0
H1249 H 0.57163 0.65574 0.32976 0.0
H1250 H 0.5555 0.66894 0.15148 0.0
H1251 H 0.53833 0.61436 0.20843 0.0
H1252 H 0.52243 0.58883 0.26331 0.0
H1253 H 0.47885 0.58364 0.18815 0.0
H1254 H 0.49443 0.60939 0.13416 0.0
H1255 H 0.5529 0.64964 0.83966 0.0
H1256 H 0.55689 0.65263 0.94913 0.0
H1257 H 0.50562 0.63123 0.9748 0.0
H1258 H 0.50162 0.62795 0.86564 0.0
H1259 H 0.51652 0.61819 0.04936 0.0
H1260 H 0.53253 0.67242 0.99564 0.0
H1261 H 0.54764 0.69795 0.93987 0.0
H1262 H 0.59215 0.70377 1.00783 0.0
H1263 H 0.57732 0.67815 0.06339 0.0
C1264 C 0.53131 0.64233 0.33301 0.0
C1265 C 0.54697 0.64798 0.35561 0.0
C1266 C 0.52839 0.64077 0.27073 0.0
C1267 C 0.54104 0.64476 0.22983 0.0
C1268 C 0.55658 0.65013 0.25223 0.0
C1269 C 0.5595 0.65165 0.3143 0.0
C1270 C 0.53828 0.64378 0.16359 0.0
C1271 C 0.54709 0.6578 0.12903 0.0
C1272 C 0.52696 0.62935 0.13456 0.0
C1273 C 0.51756 0.61396 0.16788 0.0
C1274 C 0.52534 0.60791 0.20425 0.0
C1275 C 0.51638 0.59337 0.23513 0.0
C1276 C 0.49964 0.58464 0.22936 0.0
C1277 C 0.49182 0.59041 0.19257 0.0
C1278 C 0.50071 0.60501 0.162 0.0
C1279 C 0.54254 0.64582 0.86869 0.0
C1280 C 0.52695 0.63854 0.84416 0.0
C1281 C 0.54481 0.64752 0.93127 0.0
C1282 C 0.53155 0.64225 0.97042 0.0
C1283 C 0.51603 0.63531 0.94571 0.0
C1284 C 0.51375 0.63345 0.88333 0.0
C1285 C 0.53375 0.64335 0.03712 0.0
C1286 C 0.52485 0.62936 0.07179 0.0
C1287 C 0.54485 0.65783 0.06639 0.0
C1288 C 0.55381 0.67329 0.03324 0.0
C1289 C 0.54554 0.67908 0.99834 0.0
C1290 C 0.55406 0.69358 0.96682 0.0
C1291 C 0.57085 0.70246 0.97018 0.0
C1292 C 0.57915 0.69687 1.00521 0.0
C1293 C 0.57069 0.68237 0.03678 0.0
H1294 H 0.57742 0.71368 0.94574 0.0
H1295 H 0.49272 0.57338 0.25329 0.0
H1296 H 0.51411 0.13218 0.11484 0.0
H1297 H 0.54121 0.13682 0.13286 0.0
H1298 H 0.53374 0.13682 0.32511 0.0
H1299 H 0.50683 0.13313 0.30676 0.0
H1300 H 0.5638 0.15718 0.3013 0.0
H1301 H 0.52759 0.10238 0.24552 0.0
H1302 H 0.50738 0.08049 0.18189 0.0
H1303 H 0.54096 0.09596 0.03459 0.0
H1304 H 0.56131 0.11811 0.09712 0.0
H1305 H 0.6133 0.12528 0.39691 0.0
H1306 H 0.59141 0.13034 0.37206 0.0
H1307 H 0.6087 0.14163 0.18882 0.0
H1308 H 0.63089 0.13677 0.21376 0.0
H1309 H 0.57523 0.11744 0.20308 0.0
H1310 H 0.61255 0.17103 0.26967 0.0
H1311 H 0.63196 0.19143 0.33998 0.0
H1312 H 0.59527 0.17595 0.47602 0.0
H1313 H 0.57569 0.15527 0.40682 0.0
C1314 C 0.51838 0.13343 0.16091 0.0
C1315 C 0.50841 0.13214 0.20952 0.0
C1316 C 0.53382 0.136 0.1712 0.0
C1317 C 0.53936 0.13667 0.23039 0.0
C1318 C 0.5297 0.13623 0.27904 0.0
C1319 C 0.51435 0.13411 0.26863 0.0
C1320 C 0.55472 0.13679 0.24129 0.0
C1321 C 0.56623 0.14841 0.28018 0.0
C1322 C 0.55803 0.12546 0.21319 0.0
C1323 C 0.54591 0.112 0.1758 0.0
C1324 C 0.53064 0.10117 0.19945 0.0
C1325 C 0.51916 0.08871 0.16359 0.0
C1326 C 0.52287 0.08686 0.10418 0.0
C1327 C 0.5381 0.09743 0.08059 0.0
C1328 C 0.54961 0.10993 0.11622 0.0
C1329 C 0.61255 0.12901 0.35147 0.0
C1330 C 0.62373 0.13058 0.30713 0.0
C1331 C 0.6001 0.13199 0.33747 0.0
C1332 C 0.5985 0.13642 0.27873 0.0
C1333 C 0.60981 0.13829 0.23451 0.0
C1334 C 0.62248 0.13558 0.24881 0.0
C1335 C 0.58424 0.1378 0.26292 0.0
C1336 C 0.57287 0.12634 0.22345 0.0
C1337 C 0.58094 0.14902 0.29153 0.0
C1338 C 0.59268 0.16151 0.33316 0.0
C1339 C 0.60865 0.17188 0.31474 0.0
C1340 C 0.61968 0.18351 0.35437 0.0
C1341 C 0.61486 0.18496 0.41247 0.0
C1342 C 0.59899 0.1748 0.43101 0.0
C1343 C 0.58791 0.16314 0.39157 0.0
H1344 H 0.62342 0.19398 0.44308 0.0
H1345 H 0.51396 0.07722 0.07647 0.0
H1346 H 0.39559 0.51087 0.30131 0.0
H1347 H 0.41734 0.53687 0.33392 0.0
H1348 H 0.38387 0.54434 0.43993 0.0
H1349 H 0.36188 0.51791 0.40831 0.0
H1350 H 0.42478 0.56688 0.32417 0.0
H1351 H 0.4038 0.56464 0.57092 0.0
H1352 H 0.38633 0.54447 0.64621 0.0
H1353 H 0.39387 0.50872 0.55956 0.0
H1354 H 0.41177 0.52878 0.48503 0.0
H1355 H 0.48473 0.63917 0.46413 0.0
H1356 H 0.45793 0.61776 0.43293 0.0
H1357 H 0.46538 0.58288 0.52861 0.0
H1358 H 0.49176 0.60401 0.56071 0.0
H1359 H 0.43559 0.57607 0.54382 0.0
H1360 H 0.47256 0.58981 0.37855 0.0
H1361 H 0.49246 0.60858 0.30545 0.0
H1362 H 0.45655 0.61719 0.22688 0.0
H1363 H 0.43657 0.59893 0.3012 0.0
C1364 C 0.39274 0.51804 0.33119 0.0
C1365 C 0.37697 0.51222 0.35256 0.0
C1366 C 0.40523 0.533 0.34954 0.0
C1367 C 0.4023 0.54255 0.38965 0.0
C1368 C 0.38646 0.53709 0.40943 0.0
C1369 C 0.3739 0.52199 0.39133 0.0
C1370 C 0.41611 0.55763 0.41339 0.0
C1371 C 0.42704 0.56899 0.37222 0.0
C1372 C 0.41926 0.56023 0.47607 0.0
C1373 C 0.40891 0.54817 0.52182 0.0
C1374 C 0.4018 0.5525 0.56818 0.0
C1375 C 0.39185 0.5411 0.6108 0.0
C1376 C 0.38896 0.52532 0.60758 0.0
C1377 C 0.3961 0.52094 0.56201 0.0
C1378 C 0.40617 0.53233 0.51963 0.0
C1379 C 0.48057 0.62696 0.47887 0.0
C1380 C 0.49044 0.62332 0.51461 0.0
C1381 C 0.46526 0.61474 0.46107 0.0
C1382 C 0.45968 0.59868 0.47815 0.0
C1383 C 0.46936 0.59516 0.51518 0.0
C1384 C 0.48453 0.60731 0.53321 0.0
C1385 C 0.44431 0.58525 0.45461 0.0
C1386 C 0.43312 0.57418 0.49581 0.0
C1387 C 0.44126 0.58257 0.39191 0.0
C1388 C 0.45312 0.59318 0.34603 0.0
C1389 C 0.46893 0.59581 0.34605 0.0
C1390 C 0.48024 0.60639 0.30447 0.0
C1391 C 0.47577 0.61409 0.26157 0.0
C1392 C 0.46 0.61124 0.26024 0.0
C1393 C 0.44869 0.60083 0.30225 0.0
H1394 H 0.48453 0.62223 0.22929 0.0
H1395 H 0.3812 0.51651 0.64051 0.0
H1396 H 0.89057 0.3936 0.53181 0.0
H1397 H 0.88515 0.41485 0.56172 0.0
H1398 H 0.83659 0.37939 0.61047 0.0
H1399 H 0.84203 0.35775 0.58131 0.0
H1400 H 0.84138 0.40737 0.5322 0.0
H1401 H 0.85667 0.39548 0.72034 0.0
H1402 H 0.87296 0.38911 0.78877 0.0
H1403 H 0.91458 0.43497 0.75092 0.0
H1404 H 0.89862 0.44151 0.68128 0.0
H1405 H 0.8415 0.47963 0.63121 0.0
H1406 H 0.83611 0.45183 0.62218 0.0
H1407 H 0.88727 0.46935 0.62078 0.0
H1408 H 0.89255 0.49679 0.63298 0.0
H1409 H 0.8742 0.44572 0.69337 0.0
H1410 H 0.86009 0.45404 0.48748 0.0
H1411 H 0.84416 0.45934 0.413 0.0
H1412 H 0.80053 0.42005 0.48374 0.0
H1413 H 0.81617 0.41443 0.55843 0.0
C1414 C 0.87871 0.39024 0.54893 0.0
C1415 C 0.86671 0.37399 0.55421 0.0
C1416 C 0.87566 0.40242 0.56613 0.0
C1417 C 0.86051 0.39866 0.58841 0.0
C1418 C 0.84837 0.38248 0.59338 0.0
C1419 C 0.85151 0.37018 0.57703 0.0
C1420 C 0.85775 0.41198 0.6058 0.0
C1421 C 0.84822 0.41561 0.56836 0.0
C1422 C 0.86679 0.42269 0.65267 0.0
C1423 C 0.87643 0.41895 0.69528 0.0
C1424 C 0.86932 0.40417 0.72624 0.0
C1425 C 0.8785 0.40053 0.7653 0.0
C1426 C 0.89479 0.41162 0.77417 0.0
C1427 C 0.90194 0.42639 0.74403 0.0
C1428 C 0.89283 0.43008 0.7048 0.0
C1429 C 0.85154 0.47747 0.62823 0.0
C1430 C 0.86744 0.49031 0.63287 0.0
C1431 C 0.84847 0.4616 0.62298 0.0
C1432 C 0.86128 0.45841 0.62063 0.0
C1433 C 0.87714 0.47139 0.62319 0.0
C1434 C 0.88018 0.48711 0.62981 0.0
C1435 C 0.85856 0.44171 0.6174 0.0
C1436 C 0.86704 0.43739 0.65794 0.0
C1437 C 0.84859 0.43039 0.57325 0.0
C1438 C 0.83926 0.43395 0.52892 0.0
C1439 C 0.84709 0.44661 0.48739 0.0
C1440 C 0.83813 0.44966 0.44511 0.0
C1441 C 0.82136 0.44013 0.44393 0.0
C1442 C 0.81351 0.42746 0.48482 0.0
C1443 C 0.82241 0.42431 0.52702 0.0
H1444 H 0.81446 0.44253 0.41115 0.0
H1445 H 0.90187 0.40878 0.80443 0.0
H1446 H 0.39059 0.88687 0.8731 0.0
H1447 H 0.4131 0.88391 0.83993 0.0
H1448 H 0.38398 0.85206 0.69721 0.0
H1449 H 0.36107 0.85486 0.73064 0.0
H1450 H 0.40379 0.842 0.75535 0.0
H1451 H 0.4091 0.88903 0.66076 0.0
H1452 H 0.40952 0.91491 0.65611 0.0
H1453 H 0.44988 0.93603 0.77717 0.0
H1454 H 0.44953 0.91018 0.78335 0.0
H1455 H 0.47381 0.85332 0.59308 0.0
H1456 H 0.44818 0.85074 0.62426 0.0
H1457 H 0.47216 0.88444 0.76921 0.0
H1458 H 0.49787 0.88718 0.73819 0.0
H1459 H 0.4537 0.89251 0.70124 0.0
H1460 H 0.44753 0.84477 0.79783 0.0
H1461 H 0.44675 0.81872 0.80187 0.0
H1462 H 0.40792 0.79883 0.67397 0.0
H1463 H 0.40862 0.82486 0.66853 0.0
C1464 C 0.38883 0.87913 0.83487 0.0
C1465 C 0.37402 0.87122 0.80421 0.0
C1466 C 0.40177 0.87747 0.81595 0.0
C1467 C 0.40028 0.86795 0.76563 0.0
C1468 C 0.38536 0.8595 0.73609 0.0
C1469 C 0.37232 0.86115 0.75515 0.0
C1470 C 0.41464 0.8676 0.74299 0.0
C1471 C 0.41463 0.85298 0.74248 0.0
C1472 C 0.42882 0.88198 0.72701 0.0
C1473 C 0.42921 0.89762 0.72287 0.0
C1474 C 0.418 0.89916 0.68673 0.0
C1475 C 0.41823 0.91383 0.68378 0.0
C1476 C 0.4297 0.9271 0.71641 0.0
C1477 C 0.44099 0.92573 0.75195 0.0
C1478 C 0.44079 0.91108 0.75514 0.0
C1479 C 0.47362 0.86002 0.63212 0.0
C1480 C 0.48791 0.87052 0.66298 0.0
C1481 C 0.45893 0.85849 0.64996 0.0
C1482 C 0.45826 0.86738 0.69908 0.0
C1483 C 0.47242 0.87749 0.73107 0.0
C1484 C 0.4871 0.87901 0.71339 0.0
C1485 C 0.44303 0.86696 0.7149 0.0
C1486 C 0.44285 0.88149 0.71379 0.0
C1487 C 0.4287 0.85248 0.72893 0.0
C1488 C 0.42824 0.83682 0.73229 0.0
C1489 C 0.43892 0.83489 0.77016 0.0
C1490 C 0.43847 0.82011 0.77279 0.0
C1491 C 0.42733 0.80714 0.73807 0.0
C1492 C 0.41657 0.8089 0.70077 0.0
C1493 C 0.41697 0.82366 0.69794 0.0
H1494 H 0.427 0.79571 0.74017 0.0
H1495 H 0.42986 0.93844 0.71408 0.0
H1496 H 0.51283 0.35663 0.93921 0.0
H1497 H 0.54044 0.37796 0.91481 0.0
H1498 H 0.52644 0.41382 0.94088 0.0
H1499 H 0.49918 0.39281 0.96642 0.0
H1500 H 0.54534 0.41748 0.83253 0.0
H1501 H 0.54383 0.40798 0.05059 0.0
H1502 H 0.53981 0.39073 0.1389 0.0
H1503 H 0.57636 0.3812 0.07327 0.0
H1504 H 0.58042 0.39822 0.98403 0.0
H1505 H 0.60452 0.49422 0.89285 0.0
H1506 H 0.58182 0.4671 0.90458 0.0
H1507 H 0.61408 0.44799 0.90179 0.0
H1508 H 0.63718 0.47552 0.89167 0.0
H1509 H 0.58889 0.43178 0.98254 0.0
H1510 H 0.59461 0.4463 0.7759 0.0
H1511 H 0.59918 0.46434 0.68972 0.0
H1512 H 0.55518 0.46392 0.72971 0.0
H1513 H 0.5505 0.44617 0.81694 0.0
C1514 C 0.51567 0.36906 0.93914 0.0
C1515 C 0.50392 0.3731 0.95495 0.0
C1516 C 0.5314 0.38119 0.92538 0.0
C1517 C 0.53541 0.39742 0.92612 0.0
C1518 C 0.52354 0.40136 0.93992 0.0
C1519 C 0.50801 0.38935 0.95478 0.0
C1520 C 0.55206 0.4106 0.9151 0.0
C1521 C 0.55492 0.42058 0.865 0.0
C1522 C 0.56465 0.4143 0.95657 0.0
C1523 C 0.56226 0.40417 0.0103 0.0
C1524 C 0.55089 0.40207 0.05471 0.0
C1525 C 0.54863 0.39237 0.10498 0.0
C1526 C 0.55779 0.38482 0.11158 0.0
C1527 C 0.56925 0.38701 0.06801 0.0
C1528 C 0.57154 0.39669 0.01759 0.0
C1529 C 0.60684 0.48428 0.89544 0.0
C1530 C 0.62257 0.48692 0.89058 0.0
C1531 C 0.59385 0.46878 0.90194 0.0
C1532 C 0.59622 0.45549 0.90228 0.0
C1533 C 0.612 0.45809 0.90099 0.0
C1534 C 0.62514 0.47377 0.89533 0.0
C1535 C 0.58198 0.43905 0.90117 0.0
C1536 C 0.57954 0.42845 0.94886 0.0
C1537 C 0.56979 0.43468 0.85702 0.0
C1538 C 0.57223 0.44491 0.80318 0.0
C1539 C 0.58592 0.45009 0.76647 0.0
C1540 C 0.58855 0.46028 0.71745 0.0
C1541 C 0.57749 0.46528 0.70427 0.0
C1542 C 0.56374 0.46004 0.73996 0.0
C1543 C 0.56108 0.44988 0.78917 0.0
H1544 H 0.57956 0.4732 0.66638 0.0
H1545 H 0.55603 0.37732 0.15054 0.0
H1546 H 0.15635 0.51671 0.10932 0.0
H1547 H 0.16159 0.54418 0.08877 0.0
H1548 H 0.11053 0.52672 0.09014 0.0
H1549 H 0.10527 0.49959 0.11207 0.0
H1550 H 0.12901 0.54842 0.99015 0.0
H1551 H 0.12855 0.54244 0.21014 0.0
H1552 H 0.13882 0.5374 0.30475 0.0
H1553 H 0.18596 0.57709 0.26644 0.0
H1554 H 0.17599 0.5822 0.17103 0.0
H1555 H 0.10473 0.60326 0.04142 0.0
H1556 H 0.11024 0.58129 0.0533 0.0
H1557 H 0.16052 0.61538 0.08296 0.0
H1558 H 0.15492 0.63769 0.07267 0.0
H1559 H 0.14981 0.58875 0.15569 0.0
H1560 H 0.14883 0.59845 0.9466 0.0
H1561 H 0.13837 0.60398 0.85355 0.0
H1562 H 0.0952 0.558 0.86757 0.0
H1563 H 0.10525 0.55231 0.96139 0.0
C1564 C 0.14629 0.51878 0.10453 0.0
C1565 C 0.13042 0.50609 0.11244 0.0
C1566 C 0.14929 0.53441 0.09302 0.0
C1567 C 0.13643 0.53741 0.08801 0.0
C1568 C 0.1206 0.52462 0.09371 0.0
C1569 C 0.11762 0.50916 0.10647 0.0
C1570 C 0.13913 0.55387 0.07948 0.0
C1571 C 0.13364 0.55731 0.02606 0.0
C1572 C 0.14565 0.56559 0.12573 0.0
C1573 C 0.15159 0.56255 0.18312 0.0
C1574 C 0.14114 0.54998 0.22159 0.0
C1575 C 0.1469 0.54714 0.27542 0.0
C1576 C 0.16305 0.55688 0.29149 0.0
C1577 C 0.17346 0.56952 0.25385 0.0
C1578 C 0.16777 0.5724 0.19991 0.0
C1579 C 0.11696 0.60613 0.05101 0.0
C1580 C 0.12945 0.62218 0.05535 0.0
C1581 C 0.1201 0.59355 0.05757 0.0
C1582 C 0.13587 0.5967 0.06724 0.0
C1583 C 0.1483 0.6127 0.07485 0.0
C1584 C 0.14509 0.6254 0.06908 0.0
C1585 C 0.13907 0.58308 0.06714 0.0
C1586 C 0.14566 0.58015 0.11883 0.0
C1587 C 0.13371 0.57186 0.0189 0.0
C1588 C 0.1278 0.57497 0.96125 0.0
C1589 C 0.13709 0.58953 0.92998 0.0
C1590 C 0.13122 0.5927 0.87711 0.0
C1591 C 0.11612 0.58136 0.85469 0.0
C1592 C 0.1069 0.56678 0.88498 0.0
C1593 C 0.11268 0.56356 0.93798 0.0
H1594 H 0.11159 0.58386 0.81384 0.0
H1595 H 0.16749 0.55466 0.3332 0.0
H1596 H 0.43595 0.06888 0.99633 0.0
H1597 H 0.41765 0.04096 0.96717 0.0
H1598 H 0.40305 0.02896 0.15334 0.0
H1599 H 0.42239 0.05683 0.18272 0.0
H1600 H 0.40512 0.006 0.11081 0.0
H1601 H 0.37855 0.03271 0.03844 0.0
H1602 H 0.37479 0.05329 0.98642 0.0
H1603 H 0.38564 0.03935 0.81649 0.0
H1604 H 0.38986 0.01893 0.86754 0.0
H1605 H 0.34331 0.92902 1.00387 0.0
H1606 H 0.35361 0.95667 0.03995 0.0
H1607 H 0.3885 0.97448 0.89578 0.0
H1608 H 0.37853 0.94691 0.86034 0.0
H1609 H 0.37137 0.99323 0.92677 0.0
H1610 H 0.40158 0.96875 0.01463 0.0
H1611 H 0.4004 0.94577 0.06916 0.0
H1612 H 0.37689 0.95408 0.21839 0.0
H1613 H 0.37768 0.97696 0.16417 0.0
C1614 C 0.42873 0.06023 0.03076 0.0
C1615 C 0.43033 0.06484 0.09146 0.0
C1616 C 0.41817 0.04431 0.01416 0.0
C1617 C 0.40855 0.03282 0.05775 0.0
C1618 C 0.41022 0.03754 0.11874 0.0
C1619 C 0.42117 0.05342 0.13553 0.0
C1620 C 0.39727 0.01585 0.03947 0.0
C1621 C 0.39754 0.00329 0.07125 0.0
C1622 C 0.38713 0.01206 0.98814 0.0
C1623 C 0.38464 0.02435 0.95698 0.0
C1624 C 0.38028 0.03412 0.99003 0.0
C1625 C 0.37807 0.04577 0.9607 0.0
C1626 C 0.38005 0.04767 0.8982 0.0
C1627 C 0.3842 0.03791 0.8649 0.0
C1628 C 0.38648 0.02628 0.89401 0.0
C1629 C 0.35294 0.93888 0.97915 0.0
C1630 C 0.3602 0.93588 0.92953 0.0
C1631 C 0.35879 0.95462 0.9998 0.0
C1632 C 0.37179 0.96753 0.97044 0.0
C1633 C 0.3784 0.96464 0.91874 0.0
C1634 C 0.37276 0.94891 0.89879 0.0
C1635 C 0.37976 0.98384 0.99701 0.0
C1636 C 0.37882 0.99614 0.96682 0.0
C1637 C 0.38884 0.98733 0.05072 0.0
C1638 C 0.38959 0.97448 0.08522 0.0
C1639 C 0.39618 0.96568 0.0591 0.0
C1640 C 0.39554 0.95266 0.08987 0.0
C1641 C 0.38851 0.94842 0.14707 0.0
C1642 C 0.3823 0.95736 0.17401 0.0
C1643 C 0.38285 0.97036 0.14331 0.0
H1644 H 0.38784 0.93821 0.17044 0.0
H1645 H 0.37831 0.05668 0.87555 0.0
H1646 H 0.40773 0.34232 0.10245 0.0
H1647 H 0.39017 0.35242 0.13917 0.0
H1648 H 0.42908 0.40119 0.11812 0.0
H1649 H 0.44646 0.39132 0.08004 0.0
H1650 H 0.40887 0.38756 0.2434 0.0
H1651 H 0.40784 0.39591 0.02219 0.0
H1652 H 0.40203 0.38525 0.91823 0.0
H1653 H 0.35336 0.35137 0.96895 0.0
H1654 H 0.35899 0.36171 0.07349 0.0
H1655 H 0.39164 0.44966 0.26747 0.0
H1656 H 0.40045 0.43046 0.2446 0.0
H1657 H 0.35213 0.3954 0.19056 0.0
H1658 H 0.34332 0.41491 0.21167 0.0
H1659 H 0.37172 0.39562 0.11147 0.0
H1660 H 0.36987 0.39122 0.32314 0.0
H1661 H 0.37406 0.39924 0.43027 0.0
H1662 H 0.42523 0.4217 0.40644 0.0
H1663 H 0.42139 0.4141 0.29889 0.0
C1664 C 0.41245 0.35518 0.10522 0.0
C1665 C 0.42842 0.36604 0.08815 0.0
C1666 C 0.40244 0.3609 0.12617 0.0
C1667 C 0.40841 0.37751 0.13122 0.0
C1668 C 0.42432 0.38832 0.11436 0.0
C1669 C 0.43418 0.38265 0.09237 0.0
C1670 C 0.39834 0.38389 0.15513 0.0
C1671 C 0.40074 0.38939 0.21488 0.0
C1672 C 0.38725 0.38553 0.1184 0.0
C1673 C 0.3839 0.37941 0.05569 0.0
C1674 C 0.39596 0.38607 0.01129 0.0
C1675 C 0.39269 0.38012 0.95225 0.0
C1676 C 0.37735 0.3676 0.93704 0.0
C1677 C 0.36524 0.36104 0.98082 0.0
C1678 C 0.36847 0.36694 0.03994 0.0
C1679 C 0.38282 0.43781 0.25127 0.0
C1680 C 0.36678 0.4338 0.24135 0.0
C1681 C 0.38786 0.42677 0.23865 0.0
C1682 C 0.37691 0.41133 0.21685 0.0
C1683 C 0.3608 0.4072 0.20761 0.0
C1684 C 0.35577 0.41835 0.21972 0.0
C1685 C 0.38273 0.4001 0.1997 0.0
C1686 C 0.37954 0.3936 0.14106 0.0
C1687 C 0.39288 0.39727 0.2381 0.0
C1688 C 0.39532 0.40217 0.30265 0.0
C1689 C 0.38203 0.39802 0.34053 0.0
C1690 C 0.38434 0.40247 0.4014 0.0
C1691 C 0.3999 0.41101 0.42511 0.0
C1692 C 0.41318 0.41512 0.38799 0.0
C1693 C 0.41094 0.41073 0.32705 0.0
H1694 H 0.40167 0.41441 0.47228 0.0
H1695 H 0.37483 0.36301 0.89131 0.0
H1696 H 0.05191 0.44048 0.18039 0.0
H1697 H 0.02457 0.42371 0.21853 0.0
H1698 H 0.04035 0.39667 0.32568 0.0
H1699 H 0.06785 0.41351 0.28788 0.0
H1700 H 0.00226 0.39178 0.21892 0.0
H1701 H 0.02151 0.39054 0.46472 0.0
H1702 H 0.04507 0.4062 0.53056 0.0
H1703 H 0.0581 0.44882 0.4272 0.0
H1704 H 0.03445 0.4335 0.36157 0.0
H1705 H 0.93044 0.34403 0.38455 0.0
H1706 H 0.95802 0.35435 0.34819 0.0
H1707 H 0.97179 0.40093 0.42393 0.0
H1708 H 0.94445 0.39065 0.46129 0.0
H1709 H 0.99529 0.39426 0.44 0.0
H1710 H 0.9616 0.39261 0.27533 0.0
H1711 H 0.93836 0.37964 0.20616 0.0
H1712 H 0.95439 0.34763 0.1434 0.0
H1713 H 0.97759 0.36025 0.21285 0.0
C1714 C 0.04953 0.43082 0.21139 0.0
C1715 C 0.06204 0.42839 0.23156 0.0
C1716 C 0.03388 0.42119 0.23293 0.0
C1717 C 0.03047 0.40906 0.27539 0.0
C1718 C 0.04277 0.40607 0.29333 0.0
C1719 C 0.05845 0.41567 0.27157 0.0
C1720 C 0.01436 0.40051 0.30411 0.0
C1721 C 0.00073 0.39216 0.26731 0.0
C1722 C 0.01238 0.40132 0.36713 0.0
C1723 C 0.02631 0.4108 0.40778 0.0
C1724 C 0.02935 0.40327 0.45629 0.0
C1725 C 0.04272 0.41209 0.49356 0.0
C1726 C 0.05311 0.42848 0.48291 0.0
C1727 C 0.05007 0.43611 0.43528 0.0
C1728 C 0.03668 0.42737 0.39805 0.0
C1729 C 0.93941 0.3564 0.3941 0.0
C1730 C 0.93525 0.36656 0.42537 0.0
C1731 C 0.95515 0.3623 0.37317 0.0
C1732 C 0.96693 0.37848 0.38269 0.0
C1733 C 0.96292 0.38842 0.41609 0.0
C1734 C 0.94725 0.38253 0.43718 0.0
C1735 C 0.98314 0.38543 0.35482 0.0
C1736 C 0.99681 0.39357 0.39175 0.0
C1737 C 0.98514 0.3848 0.29169 0.0
C1738 C 0.97123 0.37726 0.24972 0.0
C1739 C 0.9601 0.38272 0.24709 0.0
C1740 C 0.94694 0.37545 0.20781 0.0
C1741 C 0.94489 0.36281 0.17052 0.0
C1742 C 0.95599 0.35742 0.17238 0.0
C1743 C 0.96914 0.36462 0.21167 0.0
H1744 H 0.93474 0.35722 0.14002 0.0
H1745 H 0.0635 0.43526 0.51164 0.0
H1746 H 0.56027 0.94593 0.66559 0.0
H1747 H 0.57779 0.97344 0.63036 0.0
H1748 H 0.60424 0.95732 0.52105 0.0
H1749 H 0.58668 0.92968 0.55598 0.0
H1750 H 0.61037 0.99594 0.62676 0.0
H1751 H 0.60832 0.97461 0.38206 0.0
H1752 H 0.5916 0.9504 0.32042 0.0
H1753 H 0.55034 0.9394 0.42946 0.0
H1754 H 0.56671 0.96371 0.49089 0.0
H1755 H 0.65612 0.0669 0.45701 0.0
H1756 H 0.64642 0.03922 0.49054 0.0
H1757 H 0.59891 0.02537 0.42466 0.0
H1758 H 0.6086 0.05281 0.3897 0.0
H1759 H 0.60521 0.00162 0.40631 0.0
H1760 H 0.6094 0.03657 0.57067 0.0
H1761 H 0.62462 0.06118 0.63168 0.0
H1762 H 0.65714 0.04518 0.68778 0.0
H1763 H 0.64232 0.02063 0.62586 0.0
C1764 C 0.57002 0.94828 0.63498 0.0
C1765 C 0.572 0.93563 0.61296 0.0
C1766 C 0.58008 0.96403 0.61519 0.0
C1767 C 0.59219 0.96738 0.57264 0.0
C1768 C 0.59488 0.95495 0.55362 0.0
C1769 C 0.58485 0.93918 0.57366 0.0
C1770 C 0.60056 0.98337 0.54305 0.0
C1771 C 0.60942 0.99719 0.5785 0.0
C1772 C 0.59895 0.985 0.4803 0.0
C1773 C 0.5888 0.97086 0.4415 0.0
C1774 C 0.59565 0.96709 0.39256 0.0
C1775 C 0.58624 0.95335 0.35773 0.0
C1776 C 0.56996 0.94333 0.37135 0.0
C1777 C 0.56297 0.94714 0.41921 0.0
C1778 C 0.57231 0.9609 0.45398 0.0
C1779 C 0.64368 0.05788 0.44877 0.0
C1780 C 0.63307 0.06206 0.42136 0.0
C1781 C 0.63815 0.04208 0.46801 0.0
C1782 C 0.62188 0.03029 0.46097 0.0
C1783 C 0.61151 0.03426 0.4306 0.0
C1784 C 0.61706 0.04999 0.41092 0.0
C1785 C 0.61521 0.01424 0.48984 0.0
C1786 C 0.60651 0.00039 0.45434 0.0
C1787 C 0.61658 0.01263 0.55284 0.0
C1788 C 0.62488 0.02687 0.59304 0.0
C1789 C 0.61984 0.03834 0.59582 0.0
C1790 C 0.62845 0.05232 0.63026 0.0
C1791 C 0.64195 0.05483 0.663 0.0
C1792 C 0.64675 0.04327 0.66196 0.0
C1793 C 0.63826 0.02932 0.62719 0.0
H1794 H 0.64859 0.06563 0.68975 0.0
H1795 H 0.56274 0.93264 0.34474 0.0
H1796 H 0.58776 0.65413 0.64747 0.0
H1797 H 0.6059 0.64437 0.68011 0.0
H1798 H 0.56618 0.5956 0.67745 0.0
H1799 H 0.54817 0.60514 0.64338 0.0
H1800 H 0.58784 0.60889 0.79172 0.0
H1801 H 0.58722 0.60219 0.57103 0.0
H1802 H 0.59197 0.61292 0.46731 0.0
H1803 H 0.64144 0.64594 0.51064 0.0
H1804 H 0.6369 0.63554 0.61497 0.0
H1805 H 0.60727 0.54873 0.80824 0.0
H1806 H 0.59763 0.56715 0.78439 0.0
H1807 H 0.64562 0.60339 0.73173 0.0
H1808 H 0.65531 0.58458 0.75375 0.0
H1809 H 0.62511 0.60275 0.65318 0.0
H1810 H 0.62818 0.60683 0.86525 0.0
H1811 H 0.62487 0.59783 0.97112 0.0
H1812 H 0.57348 0.57308 0.95096 0.0
H1813 H 0.57646 0.58171 0.84467 0.0
C1814 C 0.58296 0.64134 0.65362 0.0
C1815 C 0.56658 0.63037 0.6428 0.0
C1816 C 0.59331 0.63581 0.67216 0.0
C1817 C 0.58731 0.6193 0.68116 0.0
C1818 C 0.57098 0.60839 0.67071 0.0
C1819 C 0.56074 0.61385 0.65103 0.0
C1820 C 0.59784 0.61316 0.70228 0.0
C1821 C 0.596 0.60751 0.76166 0.0
C1822 C 0.60897 0.61208 0.66361 0.0
C1823 C 0.61166 0.61826 0.60095 0.0
C1824 C 0.59906 0.61186 0.55863 0.0
C1825 C 0.60173 0.61785 0.49969 0.0
C1826 C 0.61698 0.63015 0.48245 0.0
C1827 C 0.62962 0.63645 0.52409 0.0
C1828 C 0.62701 0.63051 0.58311 0.0
C1829 C 0.61585 0.56066 0.79208 0.0
C1830 C 0.63208 0.56524 0.78321 0.0
C1831 C 0.61032 0.57125 0.77878 0.0
C1832 C 0.62095 0.58683 0.75752 0.0
C1833 C 0.63721 0.59148 0.74851 0.0
C1834 C 0.64274 0.58075 0.76122 0.0
C1835 C 0.61465 0.59776 0.74238 0.0
C1836 C 0.61728 0.6044 0.68412 0.0
C1837 C 0.60447 0.60006 0.78264 0.0
C1838 C 0.60256 0.59487 0.84678 0.0
C1839 C 0.61617 0.59939 0.88324 0.0
C1840 C 0.61435 0.59435 0.94337 0.0
C1841 C 0.59897 0.58487 0.96773 0.0
C1842 C 0.58538 0.58043 0.93203 0.0
C1843 C 0.58713 0.58541 0.87185 0.0
H1844 H 0.59759 0.58098 0.01429 0.0
H1845 H 0.61903 0.63477 0.43679 0.0
H1846 H 0.05256 0.60818 0.96866 0.0
H1847 H 0.02562 0.59775 0.92735 0.0
H1848 H 0.04048 0.64362 0.84308 0.0
H1849 H 0.06772 0.65407 0.88342 0.0
H1850 H 0.0027 0.60442 0.93833 0.0
H1851 H 0.02111 0.63673 0.706 0.0
H1852 H 0.04414 0.64767 0.6356 0.0
H1853 H 0.05892 0.61556 0.70759 0.0
H1854 H 0.03585 0.60426 0.7778 0.0
H1855 H 0.93016 0.58514 0.79201 0.0
H1856 H 0.95797 0.60219 0.82628 0.0
H1857 H 0.97293 0.57499 0.71558 0.0
H1858 H 0.94528 0.55805 0.68086 0.0
H1859 H 0.99582 0.60618 0.71697 0.0
H1860 H 0.96335 0.56517 0.85695 0.0
H1861 H 0.94017 0.54938 0.92393 0.0
H1862 H 0.95418 0.59109 0.03462 0.0
H1863 H 0.97709 0.60732 0.96683 0.0
C1864 C 0.05009 0.61613 0.94182 0.0
C1865 C 0.06229 0.63193 0.92903 0.0
C1866 C 0.03464 0.61015 0.91834 0.0
C1867 C 0.03105 0.61982 0.88153 0.0
C1868 C 0.04304 0.63585 0.87063 0.0
C1869 C 0.05857 0.64184 0.894 0.0
C1870 C 0.0149 0.61283 0.85308 0.0
C1871 C 0.00121 0.60498 0.89001 0.0
C1872 C 0.01294 0.61311 0.78978 0.0
C1873 C 0.02685 0.6198 0.74769 0.0
C1874 C 0.02926 0.63199 0.70675 0.0
C1875 C 0.04231 0.63825 0.66687 0.0
C1876 C 0.053 0.63235 0.66728 0.0
C1877 C 0.05066 0.62016 0.70751 0.0
C1878 C 0.0376 0.61384 0.7474 0.0
C1879 C 0.93944 0.58304 0.77397 0.0
C1880 C 0.93552 0.57016 0.73425 0.0
C1881 C 0.95531 0.59275 0.79369 0.0
C1882 C 0.96748 0.58972 0.77406 0.0
C1883 C 0.96375 0.57755 0.73131 0.0
C1884 C 0.94791 0.56782 0.71175 0.0
C1885 C 0.98367 0.59802 0.80239 0.0
C1886 C 0.99734 0.60599 0.76543 0.0
C1887 C 0.98565 0.59723 0.86542 0.0
C1888 C 0.9718 0.58755 0.90616 0.0
C1889 C 0.96135 0.57106 0.89501 0.0
C1890 C 0.94825 0.56202 0.93311 0.0
C1891 C 0.94563 0.56925 0.98323 0.0
C1892 C 0.95613 0.58554 0.99541 0.0
C1893 C 0.96915 0.59468 0.95705 0.0
H1894 H 0.93553 0.56221 0.01278 0.0
H1895 H 0.06306 0.63718 0.63626 0.0
loop_
_geom_bond_atom_site_label_1
_geom_bond_atom_site_label_2
_geom_bond_distance
_geom_bond_site_symmetry_2
_ccdc_geom_bond_type
Co0 N4 2.148 . S
Co0 N10 2.128 . S
Co0 N20 2.194 . S
Co0 O25 2.351 . S
Co0 O26 2.155 . S
Co0 O27 2.096 . S
C1 N4 1.301 1_556 S
C1 N5 1.328 . S
C1 H6 0.930 . S
C2 C3 1.333 1_554 S
C2 N4 1.317 . S
C2 H7 0.930 . S
C3 C2 1.333 1_556 S
C3 N5 1.350 . S
C3 H29 0.931 . S
N4 Co0 2.148 . S
N4 C1 1.301 1_554 S
N4 C2 1.317 . S
N5 C1 1.328 . S
N5 C3 1.350 . S
H6 C1 0.930 . S
H7 C2 0.930 . S
C8 O9 1.224 . S
C8 O27 1.247 . S
O9 C8 1.224 . S
N10 Co0 2.128 . S
N10 C11 1.355 . S
N10 C13 1.311 . S
C11 N10 1.355 . S
C11 C12 1.363 . S
C11 H23 0.929 . S
C12 C11 1.363 . S
C12 N14 1.375 . S
C12 H30 0.931 . S
C13 N10 1.311 . S
C13 N14 1.347 . S
C13 H24 0.929 . S
N14 C12 1.375 . S
N14 C13 1.347 . S
C15 C18 1.365 . S
C15 N20 1.328 . S
C15 H21 0.929 . S
C16 C17 1.362 . S
C16 C19 1.378 . S
C16 H31 0.929 . S
C17 C16 1.362 . S
C17 C18 1.366 . S
C18 C15 1.365 . S
C18 C17 1.366 . S
C18 H32 0.930 . S
C19 C16 1.378 . S
C19 N20 1.315 . S
C19 H22 0.930 . S
N20 Co0 2.194 . S
N20 C15 1.328 . S
N20 C19 1.315 . S
H21 C15 0.929 . S
H22 C19 0.930 . S
H23 C11 0.929 . S
H24 C13 0.929 . S
O25 Co0 2.351 . S
O25 C28 1.244 . S
O26 Co0 2.155 . S
O26 C28 1.240 . S
O27 Co0 2.096 . S
O27 C8 1.247 . S
C28 O25 1.244 . S
C28 O26 1.240 . S
H29 C3 0.931 . S
H30 C12 0.931 . S
H31 C16 0.929 . S
H32 C18 0.930 . S
Co33 N37 2.148 . S
Co33 N43 2.128 . S
Co33 N53 2.194 . S
Co33 O58 2.351 . S
Co33 O59 2.155 . S
Co33 O60 2.096 . S
C34 N37 1.301 . S
C34 N38 1.328 . S
C34 H39 0.930 . S
C35 C36 1.333 . S
C35 N37 1.317 . S
C35 H40 0.930 . S
C36 C35 1.333 . S
C36 N38 1.350 . S
C36 H62 0.931 . S
N37 Co33 2.148 . S
N37 C34 1.301 . S
N37 C35 1.317 . S
N38 C34 1.328 . S
N38 C36 1.350 . S
H39 C34 0.930 . S
H40 C35 0.930 . S
C41 O42 1.224 . S
C41 O60 1.247 . S
O42 C41 1.224 . S
N43 Co33 2.128 . S
N43 C44 1.355 . S
N43 C46 1.311 . S
C44 N43 1.355 . S
C44 C45 1.363 . S
C44 H56 0.929 . S
C45 C44 1.363 . S
C45 N47 1.375 . S
C45 H63 0.931 . S
C46 N43 1.311 . S
C46 N47 1.347 . S
C46 H57 0.929 . S
N47 C45 1.375 . S
N47 C46 1.347 . S
C48 C51 1.365 . S
C48 N53 1.328 . S
C48 H54 0.929 . S
C49 C50 1.362 . S
C49 C52 1.378 . S
C49 H64 0.929 . S
C50 C49 1.362 . S
C50 C51 1.366 . S
C51 C48 1.365 . S
C51 C50 1.366 . S
C51 H65 0.930 . S
C52 C49 1.378 . S
C52 N53 1.315 . S
C52 H55 0.930 . S
N53 Co33 2.194 . S
N53 C48 1.328 . S
N53 C52 1.315 . S
H54 C48 0.929 . S
H55 C52 0.930 . S
H56 C44 0.929 . S
H57 C46 0.929 . S
O58 Co33 2.351 . S
O58 C61 1.244 . S
O59 Co33 2.155 . S
O59 C61 1.240 . S
O60 Co33 2.096 . S
O60 C41 1.247 . S
C61 O58 1.244 . S
C61 O59 1.240 . S
H62 C36 0.931 . S
H63 C45 0.931 . S
H64 C49 0.929 . S
H65 C51 0.930 . S
Co66 N70 2.148 . S
Co66 N76 2.128 . S
Co66 N86 2.194 . S
Co66 O91 2.351 . S
Co66 O92 2.155 . S
Co66 O93 2.096 . S
C67 N70 1.301 . S
C67 N71 1.328 . S
C67 H72 0.930 . S
C68 C69 1.333 . S
C68 N70 1.317 . S
C68 H73 0.930 . S
C69 C68 1.333 . S
C69 N71 1.350 . S
C69 H95 0.931 . S
N70 Co66 2.148 . S
N70 C67 1.301 . S
N70 C68 1.317 . S
N71 C67 1.328 . S
N71 C69 1.350 . S
H72 C67 0.930 . S
H73 C68 0.930 . S
C74 O75 1.224 . S
C74 O93 1.247 . S
O75 C74 1.224 . S
N76 Co66 2.128 . S
N76 C77 1.355 . S
N76 C79 1.311 . S
C77 N76 1.355 . S
C77 C78 1.363 . S
C77 H89 0.929 . S
C78 C77 1.363 . S
C78 N80 1.375 . S
C78 H96 0.931 . S
C79 N76 1.311 . S
C79 N80 1.347 . S
C79 H90 0.929 . S
N80 C78 1.375 . S
N80 C79 1.347 . S
C81 C84 1.365 . S
C81 N86 1.328 . S
C81 H87 0.929 . S
C82 C83 1.362 . S
C82 C85 1.378 . S
C82 H97 0.929 . S
C83 C82 1.362 . S
C83 C84 1.366 . S
C84 C81 1.365 . S
C84 C83 1.366 . S
C84 H98 0.930 . S
C85 C82 1.378 . S
C85 N86 1.315 . S
C85 H88 0.930 . S
N86 Co66 2.194 . S
N86 C81 1.328 . S
N86 C85 1.315 . S
H87 C81 0.929 . S
H88 C85 0.930 . S
H89 C77 0.929 . S
H90 C79 0.929 . S
O91 Co66 2.351 . S
O91 C94 1.244 . S
O92 Co66 2.155 . S
O92 C94 1.240 . S
O93 Co66 2.096 . S
O93 C74 1.247 . S
C94 O91 1.244 . S
C94 O92 1.240 . S
H95 C69 0.931 . S
H96 C78 0.931 . S
H97 C82 0.929 . S
H98 C84 0.930 . S
Co99 N103 2.148 . S
Co99 N109 2.128 . S
Co99 N119 2.194 . S
Co99 O124 2.351 . S
Co99 O125 2.155 . S
Co99 O126 2.096 . S
C100 N103 1.301 . S
C100 N104 1.328 . S
C100 H105 0.930 . S
C101 C102 1.333 . S
C101 N103 1.317 . S
C101 H106 0.930 . S
C102 C101 1.333 . S
C102 N104 1.350 . S
C102 H128 0.931 . S
N103 Co99 2.148 . S
N103 C100 1.301 . S
N103 C101 1.317 . S
N104 C100 1.328 . S
N104 C102 1.350 . S
H105 C100 0.930 . S
H106 C101 0.930 . S
C107 O108 1.224 . S
C107 O126 1.247 . S
O108 C107 1.224 . S
N109 Co99 2.128 . S
N109 C110 1.355 . S
N109 C112 1.311 . S
C110 N109 1.355 . S
C110 C111 1.363 . S
C110 H122 0.929 . S
C111 C110 1.363 . S
C111 N113 1.375 . S
C111 H129 0.931 . S
C112 N109 1.311 . S
C112 N113 1.347 . S
C112 H123 0.929 . S
N113 C111 1.375 . S
N113 C112 1.347 . S
C114 C117 1.365 . S
C114 N119 1.328 . S
C114 H120 0.929 . S
C115 C116 1.362 . S
C115 C118 1.378 . S
C115 H130 0.929 . S
C116 C115 1.362 . S
C116 C117 1.366 . S
C117 C114 1.365 . S
C117 C116 1.366 . S
C117 H131 0.930 . S
C118 C115 1.378 . S
C118 N119 1.315 . S
C118 H121 0.930 . S
N119 Co99 2.194 . S
N119 C114 1.328 . S
N119 C118 1.315 . S
H120 C114 0.929 . S
H121 C118 0.930 . S
H122 C110 0.929 . S
H123 C112 0.929 . S
O124 Co99 2.351 . S
O124 C127 1.244 . S
O125 Co99 2.155 . S
O125 C127 1.240 . S
O126 Co99 2.096 . S
O126 C107 1.247 . S
C127 O124 1.244 . S
C127 O125 1.240 . S
H128 C102 0.931 . S
H129 C111 0.931 . S
H130 C115 0.929 . S
H131 C117 0.930 . S
Co132 N136 2.148 . S
Co132 N142 2.128 . S
Co132 N152 2.194 . S
Co132 O157 2.351 . S
Co132 O158 2.155 . S
Co132 O159 2.096 . S
C133 N136 1.301 . S
C133 N137 1.328 . S
C133 H138 0.930 . S
C134 C135 1.333 . S
C134 N136 1.317 . S
C134 H139 0.930 . S
C135 C134 1.333 . S
C135 N137 1.350 . S
C135 H161 0.931 . S
N136 Co132 2.148 . S
N136 C133 1.301 . S
N136 C134 1.317 . S
N137 C133 1.328 . S
N137 C135 1.350 . S
H138 C133 0.930 . S
H139 C134 0.930 . S
C140 O141 1.224 . S
C140 O159 1.247 . S
O141 C140 1.224 . S
N142 Co132 2.128 . S
N142 C143 1.355 . S
N142 C145 1.311 . S
C143 N142 1.355 . S
C143 C144 1.363 . S
C143 H155 0.929 . S
C144 C143 1.363 . S
C144 N146 1.375 . S
C144 H162 0.931 . S
C145 N142 1.311 . S
C145 N146 1.347 . S
C145 H156 0.929 . S
N146 C144 1.375 . S
N146 C145 1.347 . S
C147 C150 1.365 . S
C147 N152 1.328 . S
C147 H153 0.929 . S
C148 C149 1.362 . S
C148 C151 1.378 . S
C148 H163 0.929 . S
C149 C148 1.362 . S
C149 C150 1.366 . S
C150 C147 1.365 . S
C150 C149 1.366 . S
C150 H164 0.930 . S
C151 C148 1.378 . S
C151 N152 1.315 . S
C151 H154 0.930 . S
N152 Co132 2.194 . S
N152 C147 1.328 . S
N152 C151 1.315 . S
H153 C147 0.929 . S
H154 C151 0.930 . S
H155 C143 0.929 . S
H156 C145 0.929 . S
O157 Co132 2.351 . S
O157 C160 1.244 . S
O158 Co132 2.155 . S
O158 C160 1.240 . S
O159 Co132 2.096 . S
O159 C140 1.247 . S
C160 O157 1.244 . S
C160 O158 1.240 . S
H161 C135 0.931 . S
H162 C144 0.931 . S
H163 C148 0.929 . S
H164 C150 0.930 . S
Co165 N169 2.148 . S
Co165 N175 2.128 1_556 S
Co165 N185 2.194 . S
Co165 O190 2.351 . S
Co165 O191 2.155 . S
Co165 O192 2.096 . S
C166 N169 1.301 . S
C166 N170 1.328 . S
C166 H171 0.930 . S
C167 C168 1.333 . S
C167 N169 1.317 . S
C167 H172 0.930 . S
C168 C167 1.333 . S
C168 N170 1.350 . S
C168 H194 0.931 . S
N169 Co165 2.148 . S
N169 C166 1.301 . S
N169 C167 1.317 . S
N170 C166 1.328 . S
N170 C168 1.350 . S
H171 C166 0.930 . S
H172 C167 0.930 . S
C173 O174 1.224 . S
C173 O192 1.247 . S
O174 C173 1.224 . S
N175 Co165 2.128 1_554 S
N175 C176 1.355 . S
N175 C178 1.311 . S
C176 N175 1.355 . S
C176 C177 1.363 . S
C176 H188 0.929 . S
C177 C176 1.363 . S
C177 N179 1.375 . S
C177 H195 0.931 . S
C178 N175 1.311 . S
C178 N179 1.347 . S
C178 H189 0.929 . S
N179 C177 1.375 . S
N179 C178 1.347 . S
C180 C183 1.365 . S
C180 N185 1.328 . S
C180 H186 0.929 . S
C181 C182 1.362 . S
C181 C184 1.378 . S
C181 H196 0.929 . S
C182 C181 1.362 . S
C182 C183 1.366 . S
C183 C180 1.365 . S
C183 C182 1.366 . S
C183 H197 0.930 . S
C184 C181 1.378 . S
C184 N185 1.315 . S
C184 H187 0.930 . S
N185 Co165 2.194 . S
N185 C180 1.328 . S
N185 C184 1.315 . S
H186 C180 0.929 . S
H187 C184 0.930 . S
H188 C176 0.929 . S
H189 C178 0.929 . S
O190 Co165 2.351 . S
O190 C193 1.244 . S
O191 Co165 2.155 . S
O191 C193 1.240 . S
O192 Co165 2.096 . S
O192 C173 1.247 . S
C193 O190 1.244 . S
C193 O191 1.240 . S
H194 C168 0.931 . S
H195 C177 0.931 . S
H196 C181 0.929 . S
H197 C183 0.930 . S
Co198 N202 2.148 . S
Co198 N208 2.128 . S
Co198 N218 2.194 . S
Co198 O223 2.351 . S
Co198 O224 2.155 . S
Co198 O225 2.096 . S
C199 N202 1.301 . S
C199 N203 1.328 . S
C199 H204 0.930 . S
C200 C201 1.333 . S
C200 N202 1.317 . S
C200 H205 0.930 . S
C201 C200 1.333 . S
C201 N203 1.350 . S
C201 H227 0.931 . S
N202 Co198 2.148 . S
N202 C199 1.301 . S
N202 C200 1.317 . S
N203 C199 1.328 . S
N203 C201 1.350 . S
H204 C199 0.930 . S
H205 C200 0.930 . S
C206 O207 1.224 . S
C206 O225 1.247 . S
O207 C206 1.224 . S
N208 Co198 2.128 . S
N208 C209 1.355 . S
N208 C211 1.311 . S
C209 N208 1.355 . S
C209 C210 1.363 . S
C209 H221 0.929 . S
C210 C209 1.363 . S
C210 N212 1.375 . S
C210 H228 0.931 . S
C211 N208 1.311 . S
C211 N212 1.347 . S
C211 H222 0.929 . S
N212 C210 1.375 . S
N212 C211 1.347 . S
C213 C216 1.365 . S
C213 N218 1.328 . S
C213 H219 0.929 . S
C214 C215 1.362 . S
C214 C217 1.378 . S
C214 H229 0.929 . S
C215 C214 1.362 . S
C215 C216 1.366 . S
C216 C213 1.365 . S
C216 C215 1.366 . S
C216 H230 0.930 . S
C217 C214 1.378 . S
C217 N218 1.315 . S
C217 H220 0.930 . S
N218 Co198 2.194 . S
N218 C213 1.328 . S
N218 C217 1.315 . S
H219 C213 0.929 . S
H220 C217 0.930 . S
H221 C209 0.929 . S
H222 C211 0.929 . S
O223 Co198 2.351 . S
O223 C226 1.244 . S
O224 Co198 2.155 . S
O224 C226 1.240 . S
O225 Co198 2.096 . S
O225 C206 1.247 . S
C226 O223 1.244 . S
C226 O224 1.240 . S
H227 C201 0.931 . S
H228 C210 0.931 . S
H229 C214 0.929 . S
H230 C216 0.930 . S
Co231 N235 2.148 . S
Co231 N241 2.128 . S
Co231 N251 2.194 . S
Co231 O256 2.351 . S
Co231 O257 2.155 . S
Co231 O258 2.096 . S
C232 N235 1.301 1_554 S
C232 N236 1.328 . S
C232 H237 0.930 . S
C233 C234 1.333 1_556 S
C233 N235 1.317 . S
C233 H238 0.930 . S
C234 C233 1.333 1_554 S
C234 N236 1.350 . S
C234 H260 0.931 . S
N235 Co231 2.148 . S
N235 C232 1.301 1_556 S
N235 C233 1.317 . S
N236 C232 1.328 . S
N236 C234 1.350 . S
H237 C232 0.930 . S
H238 C233 0.930 . S
C239 O240 1.224 . S
C239 O258 1.247 . S
O240 C239 1.224 . S
N241 Co231 2.128 . S
N241 C242 1.355 . S
N241 C244 1.311 . S
C242 N241 1.355 . S
C242 C243 1.363 . S
C242 H254 0.929 . S
C243 C242 1.363 . S
C243 N245 1.375 . S
C243 H261 0.931 . S
C244 N241 1.311 . S
C244 N245 1.347 . S
C244 H255 0.929 . S
N245 C243 1.375 . S
N245 C244 1.347 . S
C246 C249 1.365 . S
C246 N251 1.328 . S
C246 H252 0.929 . S
C247 C248 1.362 . S
C247 C250 1.378 . S
C247 H262 0.929 . S
C248 C247 1.362 . S
C248 C249 1.366 . S
C249 C246 1.365 . S
C249 C248 1.366 . S
C249 H263 0.930 . S
C250 C247 1.378 . S
C250 N251 1.315 . S
C250 H253 0.930 . S
N251 Co231 2.194 . S
N251 C246 1.328 . S
N251 C250 1.315 . S
H252 C246 0.929 . S
H253 C250 0.930 . S
H254 C242 0.929 . S
H255 C244 0.929 . S
O256 Co231 2.351 . S
O256 C259 1.244 . S
O257 Co231 2.155 . S
O257 C259 1.240 . S
O258 Co231 2.096 . S
O258 C239 1.247 . S
C259 O256 1.244 . S
C259 O257 1.240 . S
H260 C234 0.931 . S
H261 C243 0.931 . S
H262 C247 0.929 . S
H263 C249 0.930 . S
Co264 N268 2.148 . S
Co264 N274 2.128 1_554 S
Co264 N284 2.194 . S
Co264 O289 2.351 . S
Co264 O290 2.155 . S
Co264 O291 2.096 . S
C265 N268 1.301 . S
C265 N269 1.328 . S
C265 H270 0.930 . S
C266 C267 1.333 . S
C266 N268 1.317 . S
C266 H271 0.930 . S
C267 C266 1.333 . S
C267 N269 1.350 . S
C267 H293 0.931 . S
N268 Co264 2.148 . S
N268 C265 1.301 . S
N268 C266 1.317 . S
N269 C265 1.328 . S
N269 C267 1.350 . S
H270 C265 0.930 . S
H271 C266 0.930 . S
C272 O273 1.224 . S
C272 O291 1.247 . S
O273 C272 1.224 . S
N274 Co264 2.128 1_556 S
N274 C275 1.355 . S
N274 C277 1.311 . S
C275 N274 1.355 . S
C275 C276 1.363 . S
C275 H287 0.929 . S
C276 C275 1.363 . S
C276 N278 1.375 . S
C276 H294 0.931 . S
C277 N274 1.311 . S
C277 N278 1.347 . S
C277 H288 0.929 . S
N278 C276 1.375 . S
N278 C277 1.347 . S
C279 C282 1.365 . S
C279 N284 1.328 . S
C279 H285 0.929 . S
C280 C281 1.362 . S
C280 C283 1.378 . S
C280 H295 0.929 . S
C281 C280 1.362 . S
C281 C282 1.366 . S
C282 C279 1.365 . S
C282 C281 1.366 . S
C282 H296 0.930 . S
C283 C280 1.378 . S
C283 N284 1.315 . S
C283 H286 0.930 . S
N284 Co264 2.194 . S
N284 C279 1.328 . S
N284 C283 1.315 . S
H285 C279 0.929 . S
H286 C283 0.930 . S
H287 C275 0.929 . S
H288 C277 0.929 . S
O289 Co264 2.351 . S
O289 C292 1.244 . S
O290 Co264 2.155 . S
O290 C292 1.240 . S
O291 Co264 2.096 . S
O291 C272 1.247 . S
C292 O289 1.244 . S
C292 O290 1.240 . S
H293 C267 0.931 . S
H294 C276 0.931 . S
H295 C280 0.929 . S
H296 C282 0.930 . S
Co297 N301 2.148 . S
Co297 N307 2.128 . S
Co297 N317 2.194 . S
Co297 O322 2.351 . S
Co297 O323 2.155 . S
Co297 O324 2.096 . S
C298 N301 1.301 . S
C298 N302 1.328 . S
C298 H303 0.930 . S
C299 C300 1.333 . S
C299 N301 1.317 . S
C299 H304 0.930 . S
C300 C299 1.333 . S
C300 N302 1.350 . S
C300 H326 0.931 . S
N301 Co297 2.148 . S
N301 C298 1.301 . S
N301 C299 1.317 . S
N302 C298 1.328 . S
N302 C300 1.350 . S
H303 C298 0.930 . S
H304 C299 0.930 . S
C305 O306 1.224 . S
C305 O324 1.247 . S
O306 C305 1.224 . S
N307 Co297 2.128 . S
N307 C308 1.355 . S
N307 C310 1.311 . S
C308 N307 1.355 . S
C308 C309 1.363 . S
C308 H320 0.929 . S
C309 C308 1.363 . S
C309 N311 1.375 . S
C309 H327 0.931 . S
C310 N307 1.311 . S
C310 N311 1.347 . S
C310 H321 0.929 . S
N311 C309 1.375 . S
N311 C310 1.347 . S
C312 C315 1.365 . S
C312 N317 1.328 . S
C312 H318 0.929 . S
C313 C314 1.362 . S
C313 C316 1.378 . S
C313 H328 0.929 . S
C314 C313 1.362 . S
C314 C315 1.366 . S
C315 C312 1.365 . S
C315 C314 1.366 . S
C315 H329 0.930 . S
C316 C313 1.378 . S
C316 N317 1.315 . S
C316 H319 0.930 . S
N317 Co297 2.194 . S
N317 C312 1.328 . S
N317 C316 1.315 . S
H318 C312 0.929 . S
H319 C316 0.930 . S
H320 C308 0.929 . S
H321 C310 0.929 . S
O322 Co297 2.351 . S
O322 C325 1.244 . S
O323 Co297 2.155 . S
O323 C325 1.240 . S
O324 Co297 2.096 . S
O324 C305 1.247 . S
C325 O322 1.244 . S
C325 O323 1.240 . S
H326 C300 0.931 . S
H327 C309 0.931 . S
H328 C313 0.929 . S
H329 C315 0.930 . S
Co330 N334 2.148 . S
Co330 N340 2.128 . S
Co330 N350 2.194 . S
Co330 O355 2.351 . S
Co330 O356 2.155 . S
Co330 O357 2.096 . S
C331 N334 1.301 . S
C331 N335 1.328 . S
C331 H336 0.930 . S
C332 C333 1.333 . S
C332 N334 1.317 . S
C332 H337 0.930 . S
C333 C332 1.333 . S
C333 N335 1.350 . S
C333 H359 0.931 . S
N334 Co330 2.148 . S
N334 C331 1.301 . S
N334 C332 1.317 . S
N335 C331 1.328 . S
N335 C333 1.350 . S
H336 C331 0.930 . S
H337 C332 0.930 . S
C338 O339 1.224 . S
C338 O357 1.247 . S
O339 C338 1.224 . S
N340 Co330 2.128 . S
N340 C341 1.355 . S
N340 C343 1.311 . S
C341 N340 1.355 . S
C341 C342 1.363 . S
C341 H353 0.929 . S
C342 C341 1.363 . S
C342 N344 1.375 . S
C342 H360 0.931 . S
C343 N340 1.311 . S
C343 N344 1.347 . S
C343 H354 0.929 . S
N344 C342 1.375 . S
N344 C343 1.347 . S
C345 C348 1.365 . S
C345 N350 1.328 . S
C345 H351 0.929 . S
C346 C347 1.362 . S
C346 C349 1.378 . S
C346 H361 0.929 . S
C347 C346 1.362 . S
C347 C348 1.366 . S
C348 C345 1.365 . S
C348 C347 1.366 . S
C348 H362 0.930 . S
C349 C346 1.378 . S
C349 N350 1.315 . S
C349 H352 0.930 . S
N350 Co330 2.194 . S
N350 C345 1.328 . S
N350 C349 1.315 . S
H351 C345 0.929 . S
H352 C349 0.930 . S
H353 C341 0.929 . S
H354 C343 0.929 . S
O355 Co330 2.351 . S
O355 C358 1.244 . S
O356 Co330 2.155 . S
O356 C358 1.240 . S
O357 Co330 2.096 . S
O357 C338 1.247 . S
C358 O355 1.244 . S
C358 O356 1.240 . S
H359 C333 0.931 . S
H360 C342 0.931 . S
H361 C346 0.929 . S
H362 C348 0.930 . S
Co363 N367 2.148 . S
Co363 N373 2.128 . S
Co363 N383 2.194 . S
Co363 O388 2.351 . S
Co363 O389 2.155 . S
Co363 O390 2.096 . S
C364 N367 1.301 . S
C364 N368 1.328 . S
C364 H369 0.930 . S
C365 C366 1.333 . S
C365 N367 1.317 . S
C365 H370 0.930 . S
C366 C365 1.333 . S
C366 N368 1.350 . S
C366 H392 0.931 . S
N367 Co363 2.148 . S
N367 C364 1.301 . S
N367 C365 1.317 . S
N368 C364 1.328 . S
N368 C366 1.350 . S
H369 C364 0.930 . S
H370 C365 0.930 . S
C371 O372 1.224 . S
C371 O390 1.247 . S
O372 C371 1.224 . S
N373 Co363 2.128 . S
N373 C374 1.355 . S
N373 C376 1.311 . S
C374 N373 1.355 . S
C374 C375 1.363 . S
C374 H386 0.929 . S
C375 C374 1.363 . S
C375 N377 1.375 . S
C375 H393 0.931 . S
C376 N373 1.311 . S
C376 N377 1.347 . S
C376 H387 0.929 . S
N377 C375 1.375 . S
N377 C376 1.347 . S
C378 C381 1.365 . S
C378 N383 1.328 . S
C378 H384 0.929 . S
C379 C380 1.362 . S
C379 C382 1.378 . S
C379 H394 0.929 . S
C380 C379 1.362 . S
C380 C381 1.366 . S
C381 C378 1.365 . S
C381 C380 1.366 . S
C381 H395 0.930 . S
C382 C379 1.378 . S
C382 N383 1.315 . S
C382 H385 0.930 . S
N383 Co363 2.194 . S
N383 C378 1.328 . S
N383 C382 1.315 . S
H384 C378 0.929 . S
H385 C382 0.930 . S
H386 C374 0.929 . S
H387 C376 0.929 . S
O388 Co363 2.351 . S
O388 C391 1.244 . S
O389 Co363 2.155 . S
O389 C391 1.240 . S
O390 Co363 2.096 . S
O390 C371 1.247 . S
C391 O388 1.244 . S
C391 O389 1.240 . S
H392 C366 0.931 . S
H393 C375 0.931 . S
H394 C379 0.929 . S
H395 C381 0.930 . S
H396 C414 0.951 . S
H397 C416 0.951 . S
H398 C418 0.950 1_556 S
H399 C419 0.950 1_556 S
H400 C421 0.950 . S
H401 C424 0.950 1_556 S
H402 C425 0.950 1_556 S
H403 C427 0.950 . S
H404 C428 0.950 . S
H405 C429 0.951 . S
H406 C431 0.951 . S
H407 C433 0.950 . S
H408 C434 0.950 . S
H409 C436 0.950 . S
H410 C439 0.950 . S
H411 C440 0.950 . S
H412 C442 0.950 . S
H413 C443 0.950 . S
C414 H396 0.951 . S
C414 C415 1.366 . S
C414 C416 1.388 . S
C415 C414 1.366 . S
C415 C419 1.385 . S
C416 H397 0.951 . S
C416 C414 1.388 . S
C416 C417 1.366 . S
C417 C416 1.366 . S
C417 C418 1.414 . S
C417 C420 1.499 . S
C418 H398 0.950 1_554 S
C418 C417 1.414 . S
C418 C419 1.374 . S
C419 H399 0.950 1_554 S
C419 C415 1.385 . S
C419 C418 1.374 . S
C420 C417 1.499 . S
C420 C421 1.373 . S
C420 C422 1.389 . S
C421 H400 0.950 . S
C421 C420 1.373 . S
C421 C437 1.377 . S
C422 C420 1.389 . S
C422 C423 1.524 . S
C422 C436 1.377 . S
C423 C422 1.524 . S
C423 C424 1.397 . S
C423 C428 1.363 . S
C424 H401 0.950 1_554 S
C424 C423 1.397 . S
C424 C425 1.334 . S
C425 H402 0.950 1_554 S
C425 C424 1.334 . S
C425 C426 1.287 . S
C426 C425 1.287 . S
C426 C427 1.524 . S
C426 H445 0.913 . S
C427 H403 0.950 . S
C427 C426 1.524 . S
C427 C428 1.415 . S
C428 H404 0.950 . S
C428 C423 1.363 . S
C428 C427 1.415 . S
C429 H405 0.951 . S
C429 C430 1.366 . S
C429 C431 1.388 . S
C430 C429 1.366 . S
C430 C434 1.385 . S
C431 H406 0.951 . S
C431 C429 1.388 . S
C431 C432 1.366 . S
C432 C431 1.366 . S
C432 C433 1.414 . S
C432 C435 1.499 . S
C433 H407 0.950 . S
C433 C432 1.414 . S
C433 C434 1.374 . S
C434 H408 0.950 . S
C434 C430 1.385 . S
C434 C433 1.374 . S
C435 C432 1.499 . S
C435 C436 1.373 . S
C435 C437 1.389 . S
C436 H409 0.950 . S
C436 C422 1.377 . S
C436 C435 1.373 . S
C437 C421 1.377 . S
C437 C435 1.389 . S
C437 C438 1.524 . S
C438 C437 1.524 . S
C438 C439 1.397 . S
C438 C443 1.363 . S
C439 H410 0.950 . S
C439 C438 1.397 . S
C439 C440 1.334 . S
C440 H411 0.950 . S
C440 C439 1.334 . S
C440 C441 1.287 . S
C441 C440 1.287 . S
C441 C442 1.524 . S
C441 H444 0.999 . S
C442 H412 0.950 . S
C442 C441 1.524 . S
C442 C443 1.415 . S
C443 H413 0.950 . S
C443 C438 1.363 . S
C443 C442 1.415 . S
H444 C441 0.999 . S
H445 C426 0.913 . S
H446 C464 0.951 . S
H447 C466 0.951 . S
H448 C468 0.950 . S
H449 C469 0.950 . S
H450 C471 0.950 . S
H451 C474 0.950 . S
H452 C475 0.950 . S
H453 C477 0.950 . S
H454 C478 0.950 . S
H455 C479 0.951 . S
H456 C481 0.951 . S
H457 C483 0.950 . S
H458 C484 0.950 . S
H459 C486 0.950 . S
H460 C489 0.950 . S
H461 C490 0.950 . S
H462 C492 0.950 . S
H463 C493 0.950 . S
C464 H446 0.951 . S
C464 C465 1.366 . S
C464 C466 1.388 . S
C465 C464 1.366 . S
C465 C469 1.385 . S
C466 H447 0.951 . S
C466 C464 1.388 . S
C466 C467 1.366 . S
C467 C466 1.366 . S
C467 C468 1.414 . S
C467 C470 1.499 . S
C468 H448 0.950 . S
C468 C467 1.414 . S
C468 C469 1.374 . S
C469 H449 0.950 . S
C469 C465 1.385 . S
C469 C468 1.374 . S
C470 C467 1.499 . S
C470 C471 1.373 . S
C470 C472 1.389 . S
C471 H450 0.950 . S
C471 C470 1.373 . S
C471 C487 1.377 . S
C472 C470 1.389 . S
C472 C473 1.524 . S
C472 C486 1.377 . S
C473 C472 1.524 . S
C473 C474 1.397 . S
C473 C478 1.363 . S
C474 H451 0.950 . S
C474 C473 1.397 . S
C474 C475 1.334 . S
C475 H452 0.950 . S
C475 C474 1.334 . S
C475 C476 1.287 . S
C476 C475 1.287 . S
C476 C477 1.524 . S
C476 H495 0.913 . S
C477 H453 0.950 . S
C477 C476 1.524 . S
C477 C478 1.415 . S
C478 H454 0.950 . S
C478 C473 1.363 . S
C478 C477 1.415 . S
C479 H455 0.951 . S
C479 C480 1.366 . S
C479 C481 1.388 . S
C480 C479 1.366 . S
C480 C484 1.385 . S
C481 H456 0.951 . S
C481 C479 1.388 . S
C481 C482 1.366 . S
C482 C481 1.366 . S
C482 C483 1.414 . S
C482 C485 1.499 . S
C483 H457 0.950 . S
C483 C482 1.414 . S
C483 C484 1.374 . S
C484 H458 0.950 . S
C484 C480 1.385 . S
C484 C483 1.374 . S
C485 C482 1.499 . S
C485 C486 1.373 . S
C485 C487 1.389 . S
C486 H459 0.950 . S
C486 C472 1.377 . S
C486 C485 1.373 . S
C487 C471 1.377 . S
C487 C485 1.389 . S
C487 C488 1.524 . S
C488 C487 1.524 . S
C488 C489 1.397 . S
C488 C493 1.363 . S
C489 H460 0.950 . S
C489 C488 1.397 . S
C489 C490 1.334 . S
C490 H461 0.950 . S
C490 C489 1.334 . S
C490 C491 1.287 . S
C491 C490 1.287 . S
C491 C492 1.524 . S
C491 H494 0.999 . S
C492 H462 0.950 . S
C492 C491 1.524 . S
C492 C493 1.415 . S
C493 H463 0.950 . S
C493 C488 1.363 . S
C493 C492 1.415 . S
H494 C491 0.999 . S
H495 C476 0.913 . S
H496 C514 0.951 . S
H497 C516 0.951 . S
H498 C518 0.950 . S
H499 C519 0.950 . S
H500 C521 0.950 . S
H501 C524 0.950 . S
H502 C525 0.950 . S
H503 C527 0.950 . S
H504 C528 0.950 . S
H505 C529 0.951 . S
H506 C531 0.951 . S
H507 C533 0.950 . S
H508 C534 0.950 . S
H509 C536 0.950 . S
H510 C539 0.950 . S
H511 C540 0.950 . S
H512 C542 0.950 . S
H513 C543 0.950 . S
C514 H496 0.951 . S
C514 C515 1.366 . S
C514 C516 1.388 . S
C515 C514 1.366 . S
C515 C519 1.385 . S
C516 H497 0.951 . S
C516 C514 1.388 . S
C516 C517 1.366 . S
C517 C516 1.366 . S
C517 C518 1.414 . S
C517 C520 1.499 . S
C518 H498 0.950 . S
C518 C517 1.414 . S
C518 C519 1.374 . S
C519 H499 0.950 . S
C519 C515 1.385 . S
C519 C518 1.374 . S
C520 C517 1.499 . S
C520 C521 1.373 . S
C520 C522 1.389 . S
C521 H500 0.950 . S
C521 C520 1.373 . S
C521 C537 1.377 . S
C522 C520 1.389 . S
C522 C523 1.524 . S
C522 C536 1.377 . S
C523 C522 1.524 . S
C523 C524 1.397 . S
C523 C528 1.363 . S
C524 H501 0.950 . S
C524 C523 1.397 . S
C524 C525 1.334 . S
C525 H502 0.950 . S
C525 C524 1.334 . S
C525 C526 1.287 . S
C526 C525 1.287 . S
C526 C527 1.524 . S
C526 H545 0.913 . S
C527 H503 0.950 . S
C527 C526 1.524 . S
C527 C528 1.415 . S
C528 H504 0.950 . S
C528 C523 1.363 . S
C528 C527 1.415 . S
C529 H505 0.951 . S
C529 C530 1.366 . S
C529 C531 1.388 . S
C530 C529 1.366 . S
C530 C534 1.385 . S
C531 H506 0.951 . S
C531 C529 1.388 . S
C531 C532 1.366 . S
C532 C531 1.366 . S
C532 C533 1.414 . S
C532 C535 1.499 . S
C533 H507 0.950 . S
C533 C532 1.414 . S
C533 C534 1.374 . S
C534 H508 0.950 . S
C534 C530 1.385 . S
C534 C533 1.374 . S
C535 C532 1.499 . S
C535 C536 1.373 . S
C535 C537 1.389 . S
C536 H509 0.950 . S
C536 C522 1.377 . S
C536 C535 1.373 . S
C537 C521 1.377 . S
C537 C535 1.389 . S
C537 C538 1.524 . S
C538 C537 1.524 . S
C538 C539 1.397 . S
C538 C543 1.363 . S
C539 H510 0.950 . S
C539 C538 1.397 . S
C539 C540 1.334 . S
C540 H511 0.950 . S
C540 C539 1.334 . S
C540 C541 1.287 . S
C541 C540 1.287 . S
C541 C542 1.524 . S
C541 H544 0.999 . S
C542 H512 0.950 . S
C542 C541 1.524 . S
C542 C543 1.415 . S
C543 H513 0.950 . S
C543 C538 1.363 . S
C543 C542 1.415 . S
H544 C541 0.999 . S
H545 C526 0.913 . S
H546 C564 0.951 . S
H547 C566 0.951 . S
H548 C568 0.950 . S
H549 C569 0.950 . S
H550 C571 0.950 . S
H551 C574 0.950 . S
H552 C575 0.950 . S
H553 C577 0.950 . S
H554 C578 0.950 . S
H555 C579 0.951 . S
H556 C581 0.951 . S
H557 C583 0.950 . S
H558 C584 0.950 . S
H559 C586 0.950 . S
H560 C589 0.950 . S
H561 C590 0.950 . S
H562 C592 0.950 . S
H563 C593 0.950 . S
C564 H546 0.951 . S
C564 C565 1.366 . S
C564 C566 1.388 . S
C565 C564 1.366 . S
C565 C569 1.385 . S
C566 H547 0.951 . S
C566 C564 1.388 . S
C566 C567 1.366 . S
C567 C566 1.366 . S
C567 C568 1.414 . S
C567 C570 1.499 . S
C568 H548 0.950 . S
C568 C567 1.414 . S
C568 C569 1.374 . S
C569 H549 0.950 . S
C569 C565 1.385 . S
C569 C568 1.374 . S
C570 C567 1.499 . S
C570 C571 1.373 . S
C570 C572 1.389 . S
C571 H550 0.950 . S
C571 C570 1.373 . S
C571 C587 1.377 . S
C572 C570 1.389 . S
C572 C573 1.524 . S
C572 C586 1.377 . S
C573 C572 1.524 . S
C573 C574 1.397 . S
C573 C578 1.363 . S
C574 H551 0.950 . S
C574 C573 1.397 . S
C574 C575 1.334 . S
C575 H552 0.950 . S
C575 C574 1.334 . S
C575 C576 1.287 . S
C576 C575 1.287 . S
C576 C577 1.524 . S
C576 H595 0.913 . S
C577 H553 0.950 . S
C577 C576 1.524 . S
C577 C578 1.415 . S
C578 H554 0.950 . S
C578 C573 1.363 . S
C578 C577 1.415 . S
C579 H555 0.951 . S
C579 C580 1.366 . S
C579 C581 1.388 . S
C580 C579 1.366 . S
C580 C584 1.385 . S
C581 H556 0.951 . S
C581 C579 1.388 . S
C581 C582 1.366 . S
C582 C581 1.366 . S
C582 C583 1.414 . S
C582 C585 1.499 . S
C583 H557 0.950 . S
C583 C582 1.414 . S
C583 C584 1.374 . S
C584 H558 0.950 . S
C584 C580 1.385 . S
C584 C583 1.374 . S
C585 C582 1.499 . S
C585 C586 1.373 . S
C585 C587 1.389 . S
C586 H559 0.950 . S
C586 C572 1.377 . S
C586 C585 1.373 . S
C587 C571 1.377 . S
C587 C585 1.389 . S
C587 C588 1.524 . S
C588 C587 1.524 . S
C588 C589 1.397 . S
C588 C593 1.363 . S
C589 H560 0.950 . S
C589 C588 1.397 . S
C589 C590 1.334 . S
C590 H561 0.950 . S
C590 C589 1.334 . S
C590 C591 1.287 . S
C591 C590 1.287 . S
C591 C592 1.524 . S
C591 H594 0.999 . S
C592 H562 0.950 . S
C592 C591 1.524 . S
C592 C593 1.415 . S
C593 H563 0.950 . S
C593 C588 1.363 . S
C593 C592 1.415 . S
H594 C591 0.999 . S
H595 C576 0.913 . S
H596 C614 0.951 . S
H597 C616 0.951 . S
H598 C618 0.950 . S
H599 C619 0.950 . S
H600 C621 0.950 . S
H601 C624 0.950 . S
H602 C625 0.950 . S
H603 C627 0.950 . S
H604 C628 0.950 . S
H605 C629 0.951 . S
H606 C631 0.951 . S
H607 C633 0.950 . S
H608 C634 0.950 . S
H609 C636 0.950 . S
H610 C639 0.950 . S
H611 C640 0.950 . S
H612 C642 0.950 . S
H613 C643 0.950 . S
C614 H596 0.951 . S
C614 C615 1.366 . S
C614 C616 1.388 . S
C615 C614 1.366 . S
C615 C619 1.385 . S
C616 H597 0.951 . S
C616 C614 1.388 . S
C616 C617 1.366 . S
C617 C616 1.366 . S
C617 C618 1.414 . S
C617 C620 1.499 . S
C618 H598 0.950 . S
C618 C617 1.414 . S
C618 C619 1.374 . S
C619 H599 0.950 . S
C619 C615 1.385 . S
C619 C618 1.374 . S
C620 C617 1.499 . S
C620 C621 1.373 . S
C620 C622 1.389 . S
C621 H600 0.950 . S
C621 C620 1.373 . S
C621 C637 1.377 . S
C622 C620 1.389 . S
C622 C623 1.524 . S
C622 C636 1.377 . S
C623 C622 1.524 . S
C623 C624 1.397 . S
C623 C628 1.363 . S
C624 H601 0.950 . S
C624 C623 1.397 . S
C624 C625 1.334 . S
C625 H602 0.950 . S
C625 C624 1.334 . S
C625 C626 1.287 . S
C626 C625 1.287 . S
C626 C627 1.524 . S
C626 H645 0.913 . S
C627 H603 0.950 . S
C627 C626 1.524 . S
C627 C628 1.415 . S
C628 H604 0.950 . S
C628 C623 1.363 . S
C628 C627 1.415 . S
C629 H605 0.951 . S
C629 C630 1.366 . S
C629 C631 1.388 . S
C630 C629 1.366 . S
C630 C634 1.385 . S
C631 H606 0.951 . S
C631 C629 1.388 . S
C631 C632 1.366 . S
C632 C631 1.366 . S
C632 C633 1.414 . S
C632 C635 1.499 . S
C633 H607 0.950 . S
C633 C632 1.414 . S
C633 C634 1.374 . S
C634 H608 0.950 . S
C634 C630 1.385 . S
C634 C633 1.374 . S
C635 C632 1.499 . S
C635 C636 1.373 . S
C635 C637 1.389 . S
C636 H609 0.950 . S
C636 C622 1.377 . S
C636 C635 1.373 . S
C637 C621 1.377 . S
C637 C635 1.389 . S
C637 C638 1.524 . S
C638 C637 1.524 . S
C638 C639 1.397 . S
C638 C643 1.363 . S
C639 H610 0.950 . S
C639 C638 1.397 . S
C639 C640 1.334 . S
C640 H611 0.950 . S
C640 C639 1.334 . S
C640 C641 1.287 . S
C641 C640 1.287 . S
C641 C642 1.524 . S
C641 H644 0.999 . S
C642 H612 0.950 . S
C642 C641 1.524 . S
C642 C643 1.415 . S
C643 H613 0.950 . S
C643 C638 1.363 . S
C643 C642 1.415 . S
H644 C641 0.999 . S
H645 C626 0.913 . S
H646 C664 0.951 . S
H647 C666 0.951 . S
H648 C668 0.950 . S
H649 C669 0.950 . S
H650 C671 0.950 . S
H651 C674 0.950 . S
H652 C675 0.950 . S
H653 C677 0.950 . S
H654 C678 0.950 . S
H655 C679 0.951 . S
H656 C681 0.951 . S
H657 C683 0.950 . S
H658 C684 0.950 . S
H659 C686 0.950 . S
H660 C689 0.950 . S
H661 C690 0.950 . S
H662 C692 0.950 . S
H663 C693 0.950 1_556 S
C664 H646 0.951 . S
C664 C665 1.366 . S
C664 C666 1.388 . S
C665 C664 1.366 . S
C665 C669 1.385 . S
C666 H647 0.951 . S
C666 C664 1.388 . S
C666 C667 1.366 . S
C667 C666 1.366 . S
C667 C668 1.414 . S
C667 C670 1.499 . S
C668 H648 0.950 . S
C668 C667 1.414 . S
C668 C669 1.374 . S
C669 H649 0.950 . S
C669 C665 1.385 . S
C669 C668 1.374 . S
C670 C667 1.499 . S
C670 C671 1.373 . S
C670 C672 1.389 . S
C671 H650 0.950 . S
C671 C670 1.373 . S
C671 C687 1.377 . S
C672 C670 1.389 . S
C672 C673 1.524 . S
C672 C686 1.377 . S
C673 C672 1.524 . S
C673 C674 1.397 . S
C673 C678 1.363 . S
C674 H651 0.950 . S
C674 C673 1.397 . S
C674 C675 1.334 . S
C675 H652 0.950 . S
C675 C674 1.334 . S
C675 C676 1.287 . S
C676 C675 1.287 . S
C676 C677 1.524 . S
C676 H695 0.913 . S
C677 H653 0.950 . S
C677 C676 1.524 . S
C677 C678 1.415 . S
C678 H654 0.950 . S
C678 C673 1.363 . S
C678 C677 1.415 . S
C679 H655 0.951 . S
C679 C680 1.366 . S
C679 C681 1.388 . S
C680 C679 1.366 . S
C680 C684 1.385 . S
C681 H656 0.951 . S
C681 C679 1.388 . S
C681 C682 1.366 . S
C682 C681 1.366 . S
C682 C683 1.414 . S
C682 C685 1.499 . S
C683 H657 0.950 . S
C683 C682 1.414 . S
C683 C684 1.374 . S
C684 H658 0.950 . S
C684 C680 1.385 . S
C684 C683 1.374 . S
C685 C682 1.499 . S
C685 C686 1.373 . S
C685 C687 1.389 . S
C686 H659 0.950 . S
C686 C672 1.377 . S
C686 C685 1.373 . S
C687 C671 1.377 . S
C687 C685 1.389 . S
C687 C688 1.524 1_556 S
C688 C687 1.524 1_554 S
C688 C689 1.397 . S
C688 C693 1.363 . S
C689 H660 0.950 . S
C689 C688 1.397 . S
C689 C690 1.334 . S
C690 H661 0.950 . S
C690 C689 1.334 . S
C690 C691 1.287 . S
C691 C690 1.287 . S
C691 C692 1.524 . S
C691 H694 0.999 . S
C692 H662 0.950 . S
C692 C691 1.524 . S
C692 C693 1.415 . S
C693 H663 0.950 1_554 S
C693 C688 1.363 . S
C693 C692 1.415 . S
H694 C691 0.999 . S
H695 C676 0.913 . S
H696 C714 0.951 . S
H697 C716 0.951 . S
H698 C718 0.950 . S
H699 C719 0.950 . S
H700 C721 0.950 . S
H701 C724 0.950 . S
H702 C725 0.950 . S
H703 C727 0.950 . S
H704 C728 0.950 . S
H705 C729 0.951 . S
H706 C731 0.951 . S
H707 C733 0.950 . S
H708 C734 0.950 . S
H709 C736 0.950 . S
H710 C739 0.950 . S
H711 C740 0.950 . S
H712 C742 0.950 . S
H713 C743 0.950 . S
C714 H696 0.951 . S
C714 C715 1.366 . S
C714 C716 1.388 . S
C715 C714 1.366 . S
C715 C719 1.385 . S
C716 H697 0.951 . S
C716 C714 1.388 . S
C716 C717 1.366 . S
C717 C716 1.366 . S
C717 C718 1.414 . S
C717 C720 1.499 . S
C718 H698 0.950 . S
C718 C717 1.414 . S
C718 C719 1.374 . S
C719 H699 0.950 . S
C719 C715 1.385 . S
C719 C718 1.374 . S
C720 C717 1.499 . S
C720 C721 1.373 . S
C720 C722 1.389 . S
C721 H700 0.950 . S
C721 C720 1.373 . S
C721 C737 1.377 . S
C722 C720 1.389 . S
C722 C723 1.524 . S
C722 C736 1.377 . S
C723 C722 1.524 . S
C723 C724 1.397 . S
C723 C728 1.363 . S
C724 H701 0.950 . S
C724 C723 1.397 . S
C724 C725 1.334 . S
C725 H702 0.950 . S
C725 C724 1.334 . S
C725 C726 1.287 . S
C726 C725 1.287 . S
C726 C727 1.524 . S
C726 H745 0.913 . S
C727 H703 0.950 . S
C727 C726 1.524 . S
C727 C728 1.415 . S
C728 H704 0.950 . S
C728 C723 1.363 . S
C728 C727 1.415 . S
C729 H705 0.951 . S
C729 C730 1.366 . S
C729 C731 1.388 . S
C730 C729 1.366 . S
C730 C734 1.385 . S
C731 H706 0.951 . S
C731 C729 1.388 . S
C731 C732 1.366 . S
C732 C731 1.366 . S
C732 C733 1.414 . S
C732 C735 1.499 . S
C733 H707 0.950 . S
C733 C732 1.414 . S
C733 C734 1.374 . S
C734 H708 0.950 . S
C734 C730 1.385 . S
C734 C733 1.374 . S
C735 C732 1.499 . S
C735 C736 1.373 . S
C735 C737 1.389 . S
C736 H709 0.950 . S
C736 C722 1.377 . S
C736 C735 1.373 . S
C737 C721 1.377 . S
C737 C735 1.389 . S
C737 C738 1.524 . S
C738 C737 1.524 . S
C738 C739 1.397 . S
C738 C743 1.363 . S
C739 H710 0.950 . S
C739 C738 1.397 . S
C739 C740 1.334 . S
C740 H711 0.950 . S
C740 C739 1.334 . S
C740 C741 1.287 . S
C741 C740 1.287 . S
C741 C742 1.524 . S
C741 H744 0.999 . S
C742 H712 0.950 . S
C742 C741 1.524 . S
C742 C743 1.415 . S
C743 H713 0.950 . S
C743 C738 1.363 . S
C743 C742 1.415 . S
H744 C741 0.999 . S
H745 C726 0.913 . S
H746 C764 0.951 . S
H747 C766 0.951 . S
H748 C768 0.950 . S
H749 C769 0.950 . S
H750 C771 0.950 . S
H751 C774 0.950 . S
H752 C775 0.950 . S
H753 C777 0.950 . S
H754 C778 0.950 . S
H755 C779 0.951 . S
H756 C781 0.951 . S
H757 C783 0.950 . S
H758 C784 0.950 . S
H759 C786 0.950 . S
H760 C789 0.950 . S
H761 C790 0.950 . S
H762 C792 0.950 . S
H763 C793 0.950 . S
C764 H746 0.951 . S
C764 C765 1.366 . S
C764 C766 1.388 . S
C765 C764 1.366 . S
C765 C769 1.385 . S
C766 H747 0.951 . S
C766 C764 1.388 . S
C766 C767 1.366 . S
C767 C766 1.366 . S
C767 C768 1.414 . S
C767 C770 1.499 . S
C768 H748 0.950 . S
C768 C767 1.414 . S
C768 C769 1.374 . S
C769 H749 0.950 . S
C769 C765 1.385 . S
C769 C768 1.374 . S
C770 C767 1.499 . S
C770 C771 1.373 . S
C770 C772 1.389 . S
C771 H750 0.950 . S
C771 C770 1.373 . S
C771 C787 1.377 . S
C772 C770 1.389 . S
C772 C773 1.524 . S
C772 C786 1.377 . S
C773 C772 1.524 . S
C773 C774 1.397 . S
C773 C778 1.363 . S
C774 H751 0.950 . S
C774 C773 1.397 . S
C774 C775 1.334 . S
C775 H752 0.950 . S
C775 C774 1.334 . S
C775 C776 1.287 . S
C776 C775 1.287 . S
C776 C777 1.524 . S
C776 H795 0.913 . S
C777 H753 0.950 . S
C777 C776 1.524 . S
C777 C778 1.415 . S
C778 H754 0.950 . S
C778 C773 1.363 . S
C778 C777 1.415 . S
C779 H755 0.951 . S
C779 C780 1.366 . S
C779 C781 1.388 1_554 S
C780 C779 1.366 . S
C780 C784 1.385 . S
C781 H756 0.951 . S
C781 C779 1.388 1_556 S
C781 C782 1.366 . S
C782 C781 1.366 . S
C782 C783 1.414 . S
C782 C785 1.499 . S
C783 H757 0.950 . S
C783 C782 1.414 . S
C783 C784 1.374 1_556 S
C784 H758 0.950 . S
C784 C780 1.385 . S
C784 C783 1.374 1_554 S
C785 C782 1.499 . S
C785 C786 1.373 . S
C785 C787 1.389 . S
C786 H759 0.950 . S
C786 C772 1.377 . S
C786 C785 1.373 . S
C787 C771 1.377 . S
C787 C785 1.389 . S
C787 C788 1.524 . S
C788 C787 1.524 . S
C788 C789 1.397 . S
C788 C793 1.363 . S
C789 H760 0.950 . S
C789 C788 1.397 . S
C789 C790 1.334 . S
C790 H761 0.950 . S
C790 C789 1.334 . S
C790 C791 1.287 . S
C791 C790 1.287 . S
C791 C792 1.524 . S
C791 H794 0.999 . S
C792 H762 0.950 . S
C792 C791 1.524 . S
C792 C793 1.415 . S
C793 H763 0.950 . S
C793 C788 1.363 . S
C793 C792 1.415 . S
H794 C791 0.999 . S
H795 C776 0.913 . S
H796 C814 0.951 . S
H797 C816 0.951 . S
H798 C818 0.950 . S
H799 C819 0.950 . S
H800 C821 0.950 . S
H801 C824 0.950 . S
H802 C825 0.950 . S
H803 C827 0.950 . S
H804 C828 0.950 . S
H805 C829 0.951 . S
H806 C831 0.951 . S
H807 C833 0.950 . S
H808 C834 0.950 . S
H809 C836 0.950 1_554 S
H810 C839 0.950 . S
H811 C840 0.950 . S
H812 C842 0.950 1_556 S
H813 C843 0.950 . S
C814 H796 0.951 . S
C814 C815 1.366 . S
C814 C816 1.388 . S
C815 C814 1.366 . S
C815 C819 1.385 . S
C816 H797 0.951 . S
C816 C814 1.388 . S
C816 C817 1.366 . S
C817 C816 1.366 . S
C817 C818 1.414 . S
C817 C820 1.499 . S
C818 H798 0.950 . S
C818 C817 1.414 . S
C818 C819 1.374 . S
C819 H799 0.950 . S
C819 C815 1.385 . S
C819 C818 1.374 . S
C820 C817 1.499 . S
C820 C821 1.373 . S
C820 C822 1.389 . S
C821 H800 0.950 . S
C821 C820 1.373 . S
C821 C837 1.377 . S
C822 C820 1.389 . S
C822 C823 1.524 . S
C822 C836 1.377 . S
C823 C822 1.524 . S
C823 C824 1.397 . S
C823 C828 1.363 . S
C824 H801 0.950 . S
C824 C823 1.397 . S
C824 C825 1.334 . S
C825 H802 0.950 . S
C825 C824 1.334 . S
C825 C826 1.287 . S
C826 C825 1.287 . S
C826 C827 1.524 . S
C826 H845 0.913 . S
C827 H803 0.950 . S
C827 C826 1.524 . S
C827 C828 1.415 . S
C828 H804 0.950 . S
C828 C823 1.363 . S
C828 C827 1.415 . S
C829 H805 0.951 . S
C829 C830 1.366 . S
C829 C831 1.388 . S
C830 C829 1.366 . S
C830 C834 1.385 . S
C831 H806 0.951 . S
C831 C829 1.388 . S
C831 C832 1.366 . S
C832 C831 1.366 . S
C832 C833 1.414 . S
C832 C835 1.499 . S
C833 H807 0.950 . S
C833 C832 1.414 . S
C833 C834 1.374 . S
C834 H808 0.950 . S
C834 C830 1.385 . S
C834 C833 1.374 . S
C835 C832 1.499 . S
C835 C836 1.373 1_554 S
C835 C837 1.389 1_554 S
C836 H809 0.950 1_556 S
C836 C822 1.377 . S
C836 C835 1.373 1_556 S
C837 C821 1.377 . S
C837 C835 1.389 1_556 S
C837 C838 1.524 1_556 S
C838 C837 1.524 1_554 S
C838 C839 1.397 . S
C838 C843 1.363 1_554 S
C839 H810 0.950 . S
C839 C838 1.397 . S
C839 C840 1.334 . S
C840 H811 0.950 . S
C840 C839 1.334 . S
C840 C841 1.287 . S
C841 C840 1.287 . S
C841 C842 1.524 . S
C841 H844 0.999 . S
C842 H812 0.950 1_554 S
C842 C841 1.524 . S
C842 C843 1.415 1_554 S
C843 H813 0.950 . S
C843 C838 1.363 1_556 S
C843 C842 1.415 1_556 S
H844 C841 0.999 . S
H845 C826 0.913 . S
H846 C864 0.951 . S
H847 C866 0.951 . S
H848 C868 0.950 . S
H849 C869 0.950 . S
H850 C871 0.950 . S
H851 C874 0.950 . S
H852 C875 0.950 1_556 S
H853 C877 0.950 . S
H854 C878 0.950 . S
H855 C879 0.951 . S
H856 C881 0.951 . S
H857 C883 0.950 . S
H858 C884 0.950 . S
H859 C886 0.950 . S
H860 C889 0.950 . S
H861 C890 0.950 . S
H862 C892 0.950 . S
H863 C893 0.950 . S
C864 H846 0.951 . S
C864 C865 1.366 . S
C864 C866 1.388 . S
C865 C864 1.366 . S
C865 C869 1.385 . S
C866 H847 0.951 . S
C866 C864 1.388 . S
C866 C867 1.366 . S
C867 C866 1.366 . S
C867 C868 1.414 . S
C867 C870 1.499 1_556 S
C868 H848 0.950 . S
C868 C867 1.414 . S
C868 C869 1.374 . S
C869 H849 0.950 . S
C869 C865 1.385 . S
C869 C868 1.374 . S
C870 C867 1.499 1_554 S
C870 C871 1.373 . S
C870 C872 1.389 . S
C871 H850 0.950 . S
C871 C870 1.373 . S
C871 C887 1.377 . S
C872 C870 1.389 . S
C872 C873 1.524 . S
C872 C886 1.377 . S
C873 C872 1.524 . S
C873 C874 1.397 . S
C873 C878 1.363 . S
C874 H851 0.950 . S
C874 C873 1.397 . S
C874 C875 1.334 . S
C875 H852 0.950 1_554 S
C875 C874 1.334 . S
C875 C876 1.287 . S
C876 C875 1.287 . S
C876 C877 1.524 . S
C876 H895 0.913 . S
C877 H853 0.950 . S
C877 C876 1.524 . S
C877 C878 1.415 . S
C878 H854 0.950 . S
C878 C873 1.363 . S
C878 C877 1.415 . S
C879 H855 0.951 . S
C879 C880 1.366 . S
C879 C881 1.388 . S
C880 C879 1.366 . S
C880 C884 1.385 . S
C881 H856 0.951 . S
C881 C879 1.388 . S
C881 C882 1.366 . S
C882 C881 1.366 . S
C882 C883 1.414 . S
C882 C885 1.499 . S
C883 H857 0.950 . S
C883 C882 1.414 . S
C883 C884 1.374 . S
C884 H858 0.950 . S
C884 C880 1.385 . S
C884 C883 1.374 . S
C885 C882 1.499 . S
C885 C886 1.373 . S
C885 C887 1.389 . S
C886 H859 0.950 . S
C886 C872 1.377 . S
C886 C885 1.373 . S
C887 C871 1.377 . S
C887 C885 1.389 . S
C887 C888 1.524 . S
C888 C887 1.524 . S
C888 C889 1.397 . S
C888 C893 1.363 . S
C889 H860 0.950 . S
C889 C888 1.397 . S
C889 C890 1.334 . S
C890 H861 0.950 . S
C890 C889 1.334 . S
C890 C891 1.287 . S
C891 C890 1.287 . S
C891 C892 1.524 . S
C891 H894 0.999 . S
C892 H862 0.950 . S
C892 C891 1.524 . S
C892 C893 1.415 . S
C893 H863 0.950 . S
C893 C888 1.363 . S
C893 C892 1.415 . S
H894 C891 0.999 . S
H895 C876 0.913 . S
H896 C914 0.951 . S
H897 C916 0.951 . S
H898 C918 0.950 . S
H899 C919 0.950 . S
H900 C921 0.950 . S
H901 C924 0.950 . S
H902 C925 0.950 . S
H903 C927 0.950 . S
H904 C928 0.950 . S
H905 C929 0.951 . S
H906 C931 0.951 . S
H907 C933 0.950 . S
H908 C934 0.950 . S
H909 C936 0.950 . S
H910 C939 0.950 . S
H911 C940 0.950 . S
H912 C942 0.950 . S
H913 C943 0.950 . S
C914 H896 0.951 . S
C914 C915 1.366 . S
C914 C916 1.388 . S
C915 C914 1.366 . S
C915 C919 1.385 . S
C916 H897 0.951 . S
C916 C914 1.388 . S
C916 C917 1.366 . S
C917 C916 1.366 . S
C917 C918 1.414 . S
C917 C920 1.499 . S
C918 H898 0.950 . S
C918 C917 1.414 . S
C918 C919 1.374 . S
C919 H899 0.950 . S
C919 C915 1.385 . S
C919 C918 1.374 . S
C920 C917 1.499 . S
C920 C921 1.373 . S
C920 C922 1.389 . S
C921 H900 0.950 . S
C921 C920 1.373 . S
C921 C937 1.377 . S
C922 C920 1.389 . S
C922 C923 1.524 . S
C922 C936 1.377 . S
C923 C922 1.524 . S
C923 C924 1.397 . S
C923 C928 1.363 . S
C924 H901 0.950 . S
C924 C923 1.397 . S
C924 C925 1.334 . S
C925 H902 0.950 . S
C925 C924 1.334 . S
C925 C926 1.287 . S
C926 C925 1.287 . S
C926 C927 1.524 . S
C926 H945 0.913 . S
C927 H903 0.950 . S
C927 C926 1.524 . S
C927 C928 1.415 . S
C928 H904 0.950 . S
C928 C923 1.363 . S
C928 C927 1.415 . S
C929 H905 0.951 . S
C929 C930 1.366 . S
C929 C931 1.388 . S
C930 C929 1.366 . S
C930 C934 1.385 . S
C931 H906 0.951 . S
C931 C929 1.388 . S
C931 C932 1.366 . S
C932 C931 1.366 . S
C932 C933 1.414 . S
C932 C935 1.499 . S
C933 H907 0.950 . S
C933 C932 1.414 . S
C933 C934 1.374 . S
C934 H908 0.950 . S
C934 C930 1.385 . S
C934 C933 1.374 . S
C935 C932 1.499 . S
C935 C936 1.373 . S
C935 C937 1.389 . S
C936 H909 0.950 . S
C936 C922 1.377 . S
C936 C935 1.373 . S
C937 C921 1.377 . S
C937 C935 1.389 . S
C937 C938 1.524 . S
C938 C937 1.524 . S
C938 C939 1.397 . S
C938 C943 1.363 . S
C939 H910 0.950 . S
C939 C938 1.397 . S
C939 C940 1.334 . S
C940 H911 0.950 . S
C940 C939 1.334 . S
C940 C941 1.287 . S
C941 C940 1.287 . S
C941 C942 1.524 . S
C941 H944 0.999 . S
C942 H912 0.950 . S
C942 C941 1.524 . S
C942 C943 1.415 . S
C943 H913 0.950 . S
C943 C938 1.363 . S
C943 C942 1.415 . S
H944 C941 0.999 . S
H945 C926 0.913 . S
H946 C964 0.951 . S
H947 C966 0.951 . S
H948 C968 0.950 . S
H949 C969 0.950 . S
H950 C971 0.950 . S
H951 C974 0.950 . S
H952 C975 0.950 . S
H953 C977 0.950 . S
H954 C978 0.950 . S
H955 C979 0.951 . S
H956 C981 0.951 . S
H957 C983 0.950 . S
H958 C984 0.950 . S
H959 C986 0.950 . S
H960 C989 0.950 . S
H961 C990 0.950 . S
H962 C992 0.950 . S
H963 C993 0.950 . S
C964 H946 0.951 . S
C964 C965 1.366 . S
C964 C966 1.388 . S
C965 C964 1.366 . S
C965 C969 1.385 . S
C966 H947 0.951 . S
C966 C964 1.388 . S
C966 C967 1.366 . S
C967 C966 1.366 . S
C967 C968 1.414 . S
C967 C970 1.499 . S
C968 H948 0.950 . S
C968 C967 1.414 . S
C968 C969 1.374 . S
C969 H949 0.950 . S
C969 C965 1.385 . S
C969 C968 1.374 . S
C970 C967 1.499 . S
C970 C971 1.373 . S
C970 C972 1.389 . S
C971 H950 0.950 . S
C971 C970 1.373 . S
C971 C987 1.377 . S
C972 C970 1.389 . S
C972 C973 1.524 . S
C972 C986 1.377 . S
C973 C972 1.524 . S
C973 C974 1.397 . S
C973 C978 1.363 . S
C974 H951 0.950 . S
C974 C973 1.397 . S
C974 C975 1.334 . S
C975 H952 0.950 . S
C975 C974 1.334 . S
C975 C976 1.287 . S
C976 C975 1.287 . S
C976 C977 1.524 . S
C976 H995 0.913 . S
C977 H953 0.950 . S
C977 C976 1.524 . S
C977 C978 1.415 . S
C978 H954 0.950 . S
C978 C973 1.363 . S
C978 C977 1.415 . S
C979 H955 0.951 . S
C979 C980 1.366 . S
C979 C981 1.388 . S
C980 C979 1.366 . S
C980 C984 1.385 . S
C981 H956 0.951 . S
C981 C979 1.388 . S
C981 C982 1.366 . S
C982 C981 1.366 . S
C982 C983 1.414 . S
C982 C985 1.499 . S
C983 H957 0.950 . S
C983 C982 1.414 . S
C983 C984 1.374 . S
C984 H958 0.950 . S
C984 C980 1.385 . S
C984 C983 1.374 . S
C985 C982 1.499 . S
C985 C986 1.373 . S
C985 C987 1.389 . S
C986 H959 0.950 . S
C986 C972 1.377 . S
C986 C985 1.373 . S
C987 C971 1.377 . S
C987 C985 1.389 . S
C987 C988 1.524 . S
C988 C987 1.524 . S
C988 C989 1.397 . S
C988 C993 1.363 . S
C989 H960 0.950 . S
C989 C988 1.397 . S
C989 C990 1.334 . S
C990 H961 0.950 . S
C990 C989 1.334 . S
C990 C991 1.287 . S
C991 C990 1.287 . S
C991 C992 1.524 . S
C991 H994 0.999 . S
C992 H962 0.950 . S
C992 C991 1.524 . S
C992 C993 1.415 . S
C993 H963 0.950 . S
C993 C988 1.363 . S
C993 C992 1.415 . S
H994 C991 0.999 . S
H995 C976 0.913 . S
H996 C1014 0.951 . S
H997 C1016 0.951 . S
H998 C1018 0.950 . S
H999 C1019 0.950 . S
H1000 C1021 0.950 . S
H1001 C1024 0.950 . S
H1002 C1025 0.950 . S
H1003 C1027 0.950 . S
H1004 C1028 0.950 . S
H1005 C1029 0.951 . S
H1006 C1031 0.951 . S
H1007 C1033 0.950 . S
H1008 C1034 0.950 . S
H1009 C1036 0.950 . S
H1010 C1039 0.950 . S
H1011 C1040 0.950 . S
H1012 C1042 0.950 . S
H1013 C1043 0.950 . S
C1014 H996 0.951 . S
C1014 C1015 1.366 . S
C1014 C1016 1.388 1_556 S
C1015 C1014 1.366 . S
C1015 C1019 1.385 . S
C1016 H997 0.951 . S
C1016 C1014 1.388 1_554 S
C1016 C1017 1.366 . S
C1017 C1016 1.366 . S
C1017 C1018 1.414 . S
C1017 C1020 1.499 . S
C1018 H998 0.950 . S
C1018 C1017 1.414 . S
C1018 C1019 1.374 1_554 S
C1019 H999 0.950 . S
C1019 C1015 1.385 . S
C1019 C1018 1.374 1_556 S
C1020 C1017 1.499 . S
C1020 C1021 1.373 . S
C1020 C1022 1.389 . S
C1021 H1000 0.950 . S
C1021 C1020 1.373 . S
C1021 C1037 1.377 . S
C1022 C1020 1.389 . S
C1022 C1023 1.524 . S
C1022 C1036 1.377 . S
C1023 C1022 1.524 . S
C1023 C1024 1.397 . S
C1023 C1028 1.363 . S
C1024 H1001 0.950 . S
C1024 C1023 1.397 . S
C1024 C1025 1.334 . S
C1025 H1002 0.950 . S
C1025 C1024 1.334 . S
C1025 C1026 1.287 . S
C1026 C1025 1.287 . S
C1026 C1027 1.524 . S
C1026 H1045 0.913 . S
C1027 H1003 0.950 . S
C1027 C1026 1.524 . S
C1027 C1028 1.415 . S
C1028 H1004 0.950 . S
C1028 C1023 1.363 . S
C1028 C1027 1.415 . S
C1029 H1005 0.951 . S
C1029 C1030 1.366 . S
C1029 C1031 1.388 . S
C1030 C1029 1.366 . S
C1030 C1034 1.385 . S
C1031 H1006 0.951 . S
C1031 C1029 1.388 . S
C1031 C1032 1.366 . S
C1032 C1031 1.366 . S
C1032 C1033 1.414 . S
C1032 C1035 1.499 . S
C1033 H1007 0.950 . S
C1033 C1032 1.414 . S
C1033 C1034 1.374 . S
C1034 H1008 0.950 . S
C1034 C1030 1.385 . S
C1034 C1033 1.374 . S
C1035 C1032 1.499 . S
C1035 C1036 1.373 . S
C1035 C1037 1.389 . S
C1036 H1009 0.950 . S
C1036 C1022 1.377 . S
C1036 C1035 1.373 . S
C1037 C1021 1.377 . S
C1037 C1035 1.389 . S
C1037 C1038 1.524 . S
C1038 C1037 1.524 . S
C1038 C1039 1.397 . S
C1038 C1043 1.363 . S
C1039 H1010 0.950 . S
C1039 C1038 1.397 . S
C1039 C1040 1.334 . S
C1040 H1011 0.950 . S
C1040 C1039 1.334 . S
C1040 C1041 1.287 . S
C1041 C1040 1.287 . S
C1041 C1042 1.524 . S
C1041 H1044 0.999 . S
C1042 H1012 0.950 . S
C1042 C1041 1.524 . S
C1042 C1043 1.415 . S
C1043 H1013 0.950 . S
C1043 C1038 1.363 . S
C1043 C1042 1.415 . S
H1044 C1041 0.999 . S
H1045 C1026 0.913 . S
H1046 C1064 0.951 . S
H1047 C1066 0.951 . S
H1048 C1068 0.950 . S
H1049 C1069 0.950 . S
H1050 C1071 0.950 . S
H1051 C1074 0.950 . S
H1052 C1075 0.950 . S
H1053 C1077 0.950 . S
H1054 C1078 0.950 . S
H1055 C1079 0.951 . S
H1056 C1081 0.951 . S
H1057 C1083 0.950 . S
H1058 C1084 0.950 . S
H1059 C1086 0.950 . S
H1060 C1089 0.950 . S
H1061 C1090 0.950 . S
H1062 C1092 0.950 . S
H1063 C1093 0.950 . S
C1064 H1046 0.951 . S
C1064 C1065 1.366 . S
C1064 C1066 1.388 . S
C1065 C1064 1.366 . S
C1065 C1069 1.385 . S
C1066 H1047 0.951 . S
C1066 C1064 1.388 . S
C1066 C1067 1.366 . S
C1067 C1066 1.366 . S
C1067 C1068 1.414 . S
C1067 C1070 1.499 . S
C1068 H1048 0.950 . S
C1068 C1067 1.414 . S
C1068 C1069 1.374 . S
C1069 H1049 0.950 . S
C1069 C1065 1.385 . S
C1069 C1068 1.374 . S
C1070 C1067 1.499 . S
C1070 C1071 1.373 . S
C1070 C1072 1.389 . S
C1071 H1050 0.950 . S
C1071 C1070 1.373 . S
C1071 C1087 1.377 . S
C1072 C1070 1.389 . S
C1072 C1073 1.524 . S
C1072 C1086 1.377 . S
C1073 C1072 1.524 . S
C1073 C1074 1.397 . S
C1073 C1078 1.363 . S
C1074 H1051 0.950 . S
C1074 C1073 1.397 . S
C1074 C1075 1.334 . S
C1075 H1052 0.950 . S
C1075 C1074 1.334 . S
C1075 C1076 1.287 . S
C1076 C1075 1.287 . S
C1076 C1077 1.524 . S
C1076 H1095 0.913 . S
C1077 H1053 0.950 . S
C1077 C1076 1.524 . S
C1077 C1078 1.415 . S
C1078 H1054 0.950 . S
C1078 C1073 1.363 . S
C1078 C1077 1.415 . S
C1079 H1055 0.951 . S
C1079 C1080 1.366 . S
C1079 C1081 1.388 . S
C1080 C1079 1.366 . S
C1080 C1084 1.385 . S
C1081 H1056 0.951 . S
C1081 C1079 1.388 . S
C1081 C1082 1.366 . S
C1082 C1081 1.366 . S
C1082 C1083 1.414 . S
C1082 C1085 1.499 . S
C1083 H1057 0.950 . S
C1083 C1082 1.414 . S
C1083 C1084 1.374 . S
C1084 H1058 0.950 . S
C1084 C1080 1.385 . S
C1084 C1083 1.374 . S
C1085 C1082 1.499 . S
C1085 C1086 1.373 . S
C1085 C1087 1.389 . S
C1086 H1059 0.950 . S
C1086 C1072 1.377 . S
C1086 C1085 1.373 . S
C1087 C1071 1.377 . S
C1087 C1085 1.389 . S
C1087 C1088 1.524 . S
C1088 C1087 1.524 . S
C1088 C1089 1.397 . S
C1088 C1093 1.363 . S
C1089 H1060 0.950 . S
C1089 C1088 1.397 . S
C1089 C1090 1.334 . S
C1090 H1061 0.950 . S
C1090 C1089 1.334 . S
C1090 C1091 1.287 . S
C1091 C1090 1.287 . S
C1091 C1092 1.524 . S
C1091 H1094 0.999 . S
C1092 H1062 0.950 . S
C1092 C1091 1.524 . S
C1092 C1093 1.415 . S
C1093 H1063 0.950 . S
C1093 C1088 1.363 . S
C1093 C1092 1.415 . S
H1094 C1091 0.999 . S
H1095 C1076 0.913 . S
H1096 C1114 0.951 . S
H1097 C1116 0.951 . S
H1098 C1118 0.950 . S
H1099 C1119 0.950 . S
H1100 C1121 0.950 . S
H1101 C1124 0.950 . S
H1102 C1125 0.950 . S
H1103 C1127 0.950 . S
H1104 C1128 0.950 . S
H1105 C1129 0.951 . S
H1106 C1131 0.951 . S
H1107 C1133 0.950 . S
H1108 C1134 0.950 . S
H1109 C1136 0.950 . S
H1110 C1139 0.950 . S
H1111 C1140 0.950 . S
H1112 C1142 0.950 . S
H1113 C1143 0.950 . S
C1114 H1096 0.951 . S
C1114 C1115 1.366 . S
C1114 C1116 1.388 . S
C1115 C1114 1.366 . S
C1115 C1119 1.385 . S
C1116 H1097 0.951 . S
C1116 C1114 1.388 . S
C1116 C1117 1.366 . S
C1117 C1116 1.366 . S
C1117 C1118 1.414 . S
C1117 C1120 1.499 . S
C1118 H1098 0.950 . S
C1118 C1117 1.414 . S
C1118 C1119 1.374 . S
C1119 H1099 0.950 . S
C1119 C1115 1.385 . S
C1119 C1118 1.374 . S
C1120 C1117 1.499 . S
C1120 C1121 1.373 . S
C1120 C1122 1.389 . S
C1121 H1100 0.950 . S
C1121 C1120 1.373 . S
C1121 C1137 1.377 . S
C1122 C1120 1.389 . S
C1122 C1123 1.524 . S
C1122 C1136 1.377 . S
C1123 C1122 1.524 . S
C1123 C1124 1.397 . S
C1123 C1128 1.363 . S
C1124 H1101 0.950 . S
C1124 C1123 1.397 . S
C1124 C1125 1.334 . S
C1125 H1102 0.950 . S
C1125 C1124 1.334 . S
C1125 C1126 1.287 . S
C1126 C1125 1.287 . S
C1126 C1127 1.524 . S
C1126 H1145 0.913 . S
C1127 H1103 0.950 . S
C1127 C1126 1.524 . S
C1127 C1128 1.415 . S
C1128 H1104 0.950 . S
C1128 C1123 1.363 . S
C1128 C1127 1.415 . S
C1129 H1105 0.951 . S
C1129 C1130 1.366 . S
C1129 C1131 1.388 . S
C1130 C1129 1.366 . S
C1130 C1134 1.385 . S
C1131 H1106 0.951 . S
C1131 C1129 1.388 . S
C1131 C1132 1.366 . S
C1132 C1131 1.366 . S
C1132 C1133 1.414 . S
C1132 C1135 1.499 . S
C1133 H1107 0.950 . S
C1133 C1132 1.414 . S
C1133 C1134 1.374 . S
C1134 H1108 0.950 . S
C1134 C1130 1.385 . S
C1134 C1133 1.374 . S
C1135 C1132 1.499 . S
C1135 C1136 1.373 . S
C1135 C1137 1.389 . S
C1136 H1109 0.950 . S
C1136 C1122 1.377 . S
C1136 C1135 1.373 . S
C1137 C1121 1.377 . S
C1137 C1135 1.389 . S
C1137 C1138 1.524 . S
C1138 C1137 1.524 . S
C1138 C1139 1.397 . S
C1138 C1143 1.363 . S
C1139 H1110 0.950 . S
C1139 C1138 1.397 . S
C1139 C1140 1.334 . S
C1140 H1111 0.950 . S
C1140 C1139 1.334 . S
C1140 C1141 1.287 . S
C1141 C1140 1.287 . S
C1141 C1142 1.524 . S
C1141 H1144 0.999 . S
C1142 H1112 0.950 . S
C1142 C1141 1.524 . S
C1142 C1143 1.415 . S
C1143 H1113 0.950 . S
C1143 C1138 1.363 . S
C1143 C1142 1.415 . S
H1144 C1141 0.999 . S
H1145 C1126 0.913 . S
H1146 C1164 0.951 . S
H1147 C1166 0.951 . S
H1148 C1168 0.950 . S
H1149 C1169 0.950 . S
H1150 C1171 0.950 . S
H1151 C1174 0.950 . S
H1152 C1175 0.950 . S
H1153 C1177 0.950 . S
H1154 C1178 0.950 . S
H1155 C1179 0.951 . S
H1156 C1181 0.951 . S
H1157 C1183 0.950 . S
H1158 C1184 0.950 . S
H1159 C1186 0.950 . S
H1160 C1189 0.950 . S
H1161 C1190 0.950 . S
H1162 C1192 0.950 . S
H1163 C1193 0.950 . S
C1164 H1146 0.951 . S
C1164 C1165 1.366 . S
C1164 C1166 1.388 . S
C1165 C1164 1.366 . S
C1165 C1169 1.385 . S
C1166 H1147 0.951 . S
C1166 C1164 1.388 . S
C1166 C1167 1.366 . S
C1167 C1166 1.366 . S
C1167 C1168 1.414 . S
C1167 C1170 1.499 . S
C1168 H1148 0.950 . S
C1168 C1167 1.414 . S
C1168 C1169 1.374 . S
C1169 H1149 0.950 . S
C1169 C1165 1.385 . S
C1169 C1168 1.374 . S
C1170 C1167 1.499 . S
C1170 C1171 1.373 . S
C1170 C1172 1.389 . S
C1171 H1150 0.950 . S
C1171 C1170 1.373 . S
C1171 C1187 1.377 . S
C1172 C1170 1.389 . S
C1172 C1173 1.524 . S
C1172 C1186 1.377 . S
C1173 C1172 1.524 . S
C1173 C1174 1.397 . S
C1173 C1178 1.363 . S
C1174 H1151 0.950 . S
C1174 C1173 1.397 . S
C1174 C1175 1.334 . S
C1175 H1152 0.950 . S
C1175 C1174 1.334 . S
C1175 C1176 1.287 . S
C1176 C1175 1.287 . S
C1176 C1177 1.524 . S
C1176 H1195 0.913 . S
C1177 H1153 0.950 . S
C1177 C1176 1.524 . S
C1177 C1178 1.415 . S
C1178 H1154 0.950 . S
C1178 C1173 1.363 . S
C1178 C1177 1.415 . S
C1179 H1155 0.951 . S
C1179 C1180 1.366 . S
C1179 C1181 1.388 . S
C1180 C1179 1.366 . S
C1180 C1184 1.385 . S
C1181 H1156 0.951 . S
C1181 C1179 1.388 . S
C1181 C1182 1.366 . S
C1182 C1181 1.366 . S
C1182 C1183 1.414 . S
C1182 C1185 1.499 . S
C1183 H1157 0.950 . S
C1183 C1182 1.414 . S
C1183 C1184 1.374 . S
C1184 H1158 0.950 . S
C1184 C1180 1.385 . S
C1184 C1183 1.374 . S
C1185 C1182 1.499 . S
C1185 C1186 1.373 . S
C1185 C1187 1.389 . S
C1186 H1159 0.950 . S
C1186 C1172 1.377 . S
C1186 C1185 1.373 . S
C1187 C1171 1.377 . S
C1187 C1185 1.389 . S
C1187 C1188 1.524 . S
C1188 C1187 1.524 . S
C1188 C1189 1.397 . S
C1188 C1193 1.363 . S
C1189 H1160 0.950 . S
C1189 C1188 1.397 . S
C1189 C1190 1.334 . S
C1190 H1161 0.950 . S
C1190 C1189 1.334 . S
C1190 C1191 1.287 . S
C1191 C1190 1.287 . S
C1191 C1192 1.524 . S
C1191 H1194 0.999 . S
C1192 H1162 0.950 . S
C1192 C1191 1.524 . S
C1192 C1193 1.415 . S
C1193 H1163 0.950 . S
C1193 C1188 1.363 . S
C1193 C1192 1.415 . S
H1194 C1191 0.999 . S
H1195 C1176 0.913 . S
H1196 C1214 0.951 . S
H1197 C1216 0.951 . S
H1198 C1218 0.950 . S
H1199 C1219 0.950 . S
H1200 C1221 0.950 . S
H1201 C1224 0.950 . S
H1202 C1225 0.950 . S
H1203 C1227 0.950 . S
H1204 C1228 0.950 . S
H1205 C1229 0.951 . S
H1206 C1231 0.951 . S
H1207 C1233 0.950 . S
H1208 C1234 0.950 . S
H1209 C1236 0.950 . S
H1210 C1239 0.950 . S
H1211 C1240 0.950 . S
H1212 C1242 0.950 . S
H1213 C1243 0.950 . S
C1214 H1196 0.951 . S
C1214 C1215 1.366 . S
C1214 C1216 1.388 . S
C1215 C1214 1.366 . S
C1215 C1219 1.385 . S
C1216 H1197 0.951 . S
C1216 C1214 1.388 . S
C1216 C1217 1.366 . S
C1217 C1216 1.366 . S
C1217 C1218 1.414 . S
C1217 C1220 1.499 . S
C1218 H1198 0.950 . S
C1218 C1217 1.414 . S
C1218 C1219 1.374 . S
C1219 H1199 0.950 . S
C1219 C1215 1.385 . S
C1219 C1218 1.374 . S
C1220 C1217 1.499 . S
C1220 C1221 1.373 . S
C1220 C1222 1.389 . S
C1221 H1200 0.950 . S
C1221 C1220 1.373 . S
C1221 C1237 1.377 . S
C1222 C1220 1.389 . S
C1222 C1223 1.524 . S
C1222 C1236 1.377 . S
C1223 C1222 1.524 . S
C1223 C1224 1.397 . S
C1223 C1228 1.363 . S
C1224 H1201 0.950 . S
C1224 C1223 1.397 . S
C1224 C1225 1.334 . S
C1225 H1202 0.950 . S
C1225 C1224 1.334 . S
C1225 C1226 1.287 . S
C1226 C1225 1.287 . S
C1226 C1227 1.524 . S
C1226 H1245 0.913 . S
C1227 H1203 0.950 . S
C1227 C1226 1.524 . S
C1227 C1228 1.415 . S
C1228 H1204 0.950 . S
C1228 C1223 1.363 . S
C1228 C1227 1.415 . S
C1229 H1205 0.951 . S
C1229 C1230 1.366 . S
C1229 C1231 1.388 . S
C1230 C1229 1.366 . S
C1230 C1234 1.385 . S
C1231 H1206 0.951 . S
C1231 C1229 1.388 . S
C1231 C1232 1.366 . S
C1232 C1231 1.366 . S
C1232 C1233 1.414 . S
C1232 C1235 1.499 1_554 S
C1233 H1207 0.950 . S
C1233 C1232 1.414 . S
C1233 C1234 1.374 . S
C1234 H1208 0.950 . S
C1234 C1230 1.385 . S
C1234 C1233 1.374 . S
C1235 C1232 1.499 1_556 S
C1235 C1236 1.373 . S
C1235 C1237 1.389 . S
C1236 H1209 0.950 . S
C1236 C1222 1.377 . S
C1236 C1235 1.373 . S
C1237 C1221 1.377 . S
C1237 C1235 1.389 . S
C1237 C1238 1.524 . S
C1238 C1237 1.524 . S
C1238 C1239 1.397 . S
C1238 C1243 1.363 . S
C1239 H1210 0.950 . S
C1239 C1238 1.397 . S
C1239 C1240 1.334 1_556 S
C1240 H1211 0.950 . S
C1240 C1239 1.334 1_554 S
C1240 C1241 1.287 1_554 S
C1241 C1240 1.287 1_556 S
C1241 C1242 1.524 . S
C1241 H1244 0.999 1_556 S
C1242 H1212 0.950 . S
C1242 C1241 1.524 . S
C1242 C1243 1.415 . S
C1243 H1213 0.950 . S
C1243 C1238 1.363 . S
C1243 C1242 1.415 . S
H1244 C1241 0.999 1_554 S
H1245 C1226 0.913 . S
H1246 C1264 0.951 . S
H1247 C1266 0.951 . S
H1248 C1268 0.950 . S
H1249 C1269 0.950 . S
H1250 C1271 0.950 . S
H1251 C1274 0.950 . S
H1252 C1275 0.950 . S
H1253 C1277 0.950 . S
H1254 C1278 0.950 . S
H1255 C1279 0.951 . S
H1256 C1281 0.951 . S
H1257 C1283 0.950 . S
H1258 C1284 0.950 . S
H1259 C1286 0.950 1_556 S
H1260 C1289 0.950 . S
H1261 C1290 0.950 . S
H1262 C1292 0.950 . S
H1263 C1293 0.948 1_554 S
C1264 H1246 0.951 . S
C1264 C1265 1.366 . S
C1264 C1266 1.388 . S
C1265 C1264 1.366 . S
C1265 C1269 1.385 . S
C1266 H1247 0.951 . S
C1266 C1264 1.388 . S
C1266 C1267 1.366 . S
C1267 C1266 1.366 . S
C1267 C1268 1.414 . S
C1267 C1270 1.499 . S
C1268 H1248 0.950 . S
C1268 C1267 1.414 . S
C1268 C1269 1.374 . S
C1269 H1249 0.950 . S
C1269 C1265 1.385 . S
C1269 C1268 1.374 . S
C1270 C1267 1.499 . S
C1270 C1271 1.373 . S
C1270 C1272 1.389 . S
C1271 H1250 0.950 . S
C1271 C1270 1.373 . S
C1271 C1287 1.377 . S
C1272 C1270 1.389 . S
C1272 C1273 1.524 . S
C1272 C1286 1.377 . S
C1273 C1272 1.524 . S
C1273 C1274 1.397 . S
C1273 C1278 1.363 . S
C1274 H1251 0.950 . S
C1274 C1273 1.397 . S
C1274 C1275 1.334 . S
C1275 H1252 0.950 . S
C1275 C1274 1.334 . S
C1275 C1276 1.287 . S
C1276 C1275 1.287 . S
C1276 C1277 1.524 . S
C1276 H1295 0.913 . S
C1277 H1253 0.950 . S
C1277 C1276 1.524 . S
C1277 C1278 1.415 . S
C1278 H1254 0.950 . S
C1278 C1273 1.363 . S
C1278 C1277 1.415 . S
C1279 H1255 0.951 . S
C1279 C1280 1.366 . S
C1279 C1281 1.388 . S
C1280 C1279 1.366 . S
C1280 C1284 1.385 . S
C1281 H1256 0.951 . S
C1281 C1279 1.388 . S
C1281 C1282 1.366 . S
C1282 C1281 1.366 . S
C1282 C1283 1.414 . S
C1282 C1285 1.499 . S
C1283 H1257 0.950 . S
C1283 C1282 1.414 . S
C1283 C1284 1.374 . S
C1284 H1258 0.950 . S
C1284 C1280 1.385 . S
C1284 C1283 1.374 . S
C1285 C1282 1.499 . S
C1285 C1286 1.373 1_556 S
C1285 C1287 1.389 1_556 S
C1286 H1259 0.950 1_554 S
C1286 C1272 1.377 . S
C1286 C1285 1.373 1_554 S
C1287 C1271 1.377 . S
C1287 C1285 1.389 1_554 S
C1287 C1288 1.524 1_554 S
C1288 C1287 1.524 1_556 S
C1288 C1289 1.397 . S
C1288 C1293 1.363 . S
C1289 H1260 0.950 . S
C1289 C1288 1.397 . S
C1289 C1290 1.334 . S
C1290 H1261 0.950 . S
C1290 C1289 1.334 . S
C1290 C1291 1.287 . S
C1291 C1290 1.287 . S
C1291 C1292 1.524 . S
C1291 H1294 0.999 . S
C1292 H1262 0.950 . S
C1292 C1291 1.524 . S
C1292 C1293 1.417 . S
C1293 H1263 0.948 1_556 S
C1293 C1288 1.363 . S
C1293 C1292 1.417 . S
H1294 C1291 0.999 . S
H1295 C1276 0.913 . S
H1296 C1314 0.951 . S
H1297 C1316 0.951 . S
H1298 C1318 0.950 . S
H1299 C1319 0.950 . S
H1300 C1321 0.950 . S
H1301 C1324 0.950 . S
H1302 C1325 0.950 . S
H1303 C1327 0.950 . S
H1304 C1328 0.950 . S
H1305 C1329 0.951 . S
H1306 C1331 0.951 . S
H1307 C1333 0.950 . S
H1308 C1334 0.950 . S
H1309 C1336 0.950 . S
H1310 C1339 0.950 . S
H1311 C1340 0.950 . S
H1312 C1342 0.950 . S
H1313 C1343 0.950 . S
C1314 H1296 0.951 . S
C1314 C1315 1.366 . S
C1314 C1316 1.388 . S
C1315 C1314 1.366 . S
C1315 C1319 1.385 . S
C1316 H1297 0.951 . S
C1316 C1314 1.388 . S
C1316 C1317 1.366 . S
C1317 C1316 1.366 . S
C1317 C1318 1.414 . S
C1317 C1320 1.499 . S
C1318 H1298 0.950 . S
C1318 C1317 1.414 . S
C1318 C1319 1.374 . S
C1319 H1299 0.950 . S
C1319 C1315 1.385 . S
C1319 C1318 1.374 . S
C1320 C1317 1.499 . S
C1320 C1321 1.373 . S
C1320 C1322 1.389 . S
C1321 H1300 0.950 . S
C1321 C1320 1.373 . S
C1321 C1337 1.377 . S
C1322 C1320 1.389 . S
C1322 C1323 1.524 . S
C1322 C1336 1.377 . S
C1323 C1322 1.524 . S
C1323 C1324 1.397 . S
C1323 C1328 1.363 . S
C1324 H1301 0.950 . S
C1324 C1323 1.397 . S
C1324 C1325 1.334 . S
C1325 H1302 0.950 . S
C1325 C1324 1.334 . S
C1325 C1326 1.287 . S
C1326 C1325 1.287 . S
C1326 C1327 1.524 . S
C1326 H1345 0.913 . S
C1327 H1303 0.950 . S
C1327 C1326 1.524 . S
C1327 C1328 1.415 . S
C1328 H1304 0.950 . S
C1328 C1323 1.363 . S
C1328 C1327 1.415 . S
C1329 H1305 0.951 . S
C1329 C1330 1.366 . S
C1329 C1331 1.388 . S
C1330 C1329 1.366 . S
C1330 C1334 1.385 . S
C1331 H1306 0.951 . S
C1331 C1329 1.388 . S
C1331 C1332 1.366 . S
C1332 C1331 1.366 . S
C1332 C1333 1.414 . S
C1332 C1335 1.499 . S
C1333 H1307 0.950 . S
C1333 C1332 1.414 . S
C1333 C1334 1.374 . S
C1334 H1308 0.950 . S
C1334 C1330 1.385 . S
C1334 C1333 1.374 . S
C1335 C1332 1.499 . S
C1335 C1336 1.373 . S
C1335 C1337 1.389 . S
C1336 H1309 0.950 . S
C1336 C1322 1.377 . S
C1336 C1335 1.373 . S
C1337 C1321 1.377 . S
C1337 C1335 1.389 . S
C1337 C1338 1.524 . S
C1338 C1337 1.524 . S
C1338 C1339 1.397 . S
C1338 C1343 1.363 . S
C1339 H1310 0.950 . S
C1339 C1338 1.397 . S
C1339 C1340 1.334 . S
C1340 H1311 0.950 . S
C1340 C1339 1.334 . S
C1340 C1341 1.287 . S
C1341 C1340 1.287 . S
C1341 C1342 1.524 . S
C1341 H1344 0.999 . S
C1342 H1312 0.950 . S
C1342 C1341 1.524 . S
C1342 C1343 1.415 . S
C1343 H1313 0.950 . S
C1343 C1338 1.363 . S
C1343 C1342 1.415 . S
H1344 C1341 0.999 . S
H1345 C1326 0.913 . S
H1346 C1364 0.951 . S
H1347 C1366 0.951 . S
H1348 C1368 0.950 . S
H1349 C1369 0.950 . S
H1350 C1371 0.950 . S
H1351 C1374 0.950 . S
H1352 C1375 0.950 . S
H1353 C1377 0.950 . S
H1354 C1378 0.950 . S
H1355 C1379 0.951 . S
H1356 C1381 0.951 . S
H1357 C1383 0.950 . S
H1358 C1384 0.950 . S
H1359 C1386 0.950 . S
H1360 C1389 0.950 . S
H1361 C1390 0.950 . S
H1362 C1392 0.950 . S
H1363 C1393 0.950 . S
C1364 H1346 0.951 . S
C1364 C1365 1.366 . S
C1364 C1366 1.388 . S
C1365 C1364 1.366 . S
C1365 C1369 1.385 . S
C1366 H1347 0.951 . S
C1366 C1364 1.388 . S
C1366 C1367 1.366 . S
C1367 C1366 1.366 . S
C1367 C1368 1.414 . S
C1367 C1370 1.499 . S
C1368 H1348 0.950 . S
C1368 C1367 1.414 . S
C1368 C1369 1.374 . S
C1369 H1349 0.950 . S
C1369 C1365 1.385 . S
C1369 C1368 1.374 . S
C1370 C1367 1.499 . S
C1370 C1371 1.373 . S
C1370 C1372 1.389 . S
C1371 H1350 0.950 . S
C1371 C1370 1.373 . S
C1371 C1387 1.377 . S
C1372 C1370 1.389 . S
C1372 C1373 1.524 . S
C1372 C1386 1.377 . S
C1373 C1372 1.524 . S
C1373 C1374 1.397 . S
C1373 C1378 1.363 . S
C1374 H1351 0.950 . S
C1374 C1373 1.397 . S
C1374 C1375 1.334 . S
C1375 H1352 0.950 . S
C1375 C1374 1.334 . S
C1375 C1376 1.287 . S
C1376 C1375 1.287 . S
C1376 C1377 1.524 . S
C1376 H1395 0.913 . S
C1377 H1353 0.950 . S
C1377 C1376 1.524 . S
C1377 C1378 1.415 . S
C1378 H1354 0.950 . S
C1378 C1373 1.363 . S
C1378 C1377 1.415 . S
C1379 H1355 0.951 . S
C1379 C1380 1.366 . S
C1379 C1381 1.388 . S
C1380 C1379 1.366 . S
C1380 C1384 1.385 . S
C1381 H1356 0.951 . S
C1381 C1379 1.388 . S
C1381 C1382 1.366 . S
C1382 C1381 1.366 . S
C1382 C1383 1.414 . S
C1382 C1385 1.499 . S
C1383 H1357 0.950 . S
C1383 C1382 1.414 . S
C1383 C1384 1.374 . S
C1384 H1358 0.950 . S
C1384 C1380 1.385 . S
C1384 C1383 1.374 . S
C1385 C1382 1.499 . S
C1385 C1386 1.373 . S
C1385 C1387 1.389 . S
C1386 H1359 0.950 . S
C1386 C1372 1.377 . S
C1386 C1385 1.373 . S
C1387 C1371 1.377 . S
C1387 C1385 1.389 . S
C1387 C1388 1.524 . S
C1388 C1387 1.524 . S
C1388 C1389 1.397 . S
C1388 C1393 1.363 . S
C1389 H1360 0.950 . S
C1389 C1388 1.397 . S
C1389 C1390 1.334 . S
C1390 H1361 0.950 . S
C1390 C1389 1.334 . S
C1390 C1391 1.287 . S
C1391 C1390 1.287 . S
C1391 C1392 1.524 . S
C1391 H1394 0.999 . S
C1392 H1362 0.950 . S
C1392 C1391 1.524 . S
C1392 C1393 1.415 . S
C1393 H1363 0.950 . S
C1393 C1388 1.363 . S
C1393 C1392 1.415 . S
H1394 C1391 0.999 . S
H1395 C1376 0.913 . S
H1396 C1414 0.951 . S
H1397 C1416 0.951 . S
H1398 C1418 0.950 . S
H1399 C1419 0.950 . S
H1400 C1421 0.950 . S
H1401 C1424 0.950 . S
H1402 C1425 0.950 . S
H1403 C1427 0.950 . S
H1404 C1428 0.950 . S
H1405 C1429 0.951 . S
H1406 C1431 0.951 . S
H1407 C1433 0.950 . S
H1408 C1434 0.950 . S
H1409 C1436 0.950 . S
H1410 C1439 0.950 . S
H1411 C1440 0.950 . S
H1412 C1442 0.950 . S
H1413 C1443 0.950 . S
C1414 H1396 0.951 . S
C1414 C1415 1.366 . S
C1414 C1416 1.388 . S
C1415 C1414 1.366 . S
C1415 C1419 1.385 . S
C1416 H1397 0.951 . S
C1416 C1414 1.388 . S
C1416 C1417 1.366 . S
C1417 C1416 1.366 . S
C1417 C1418 1.414 . S
C1417 C1420 1.499 . S
C1418 H1398 0.950 . S
C1418 C1417 1.414 . S
C1418 C1419 1.374 . S
C1419 H1399 0.950 . S
C1419 C1415 1.385 . S
C1419 C1418 1.374 . S
C1420 C1417 1.499 . S
C1420 C1421 1.373 . S
C1420 C1422 1.389 . S
C1421 H1400 0.950 . S
C1421 C1420 1.373 . S
C1421 C1437 1.377 . S
C1422 C1420 1.389 . S
C1422 C1423 1.524 . S
C1422 C1436 1.377 . S
C1423 C1422 1.524 . S
C1423 C1424 1.397 . S
C1423 C1428 1.363 . S
C1424 H1401 0.950 . S
C1424 C1423 1.397 . S
C1424 C1425 1.334 . S
C1425 H1402 0.950 . S
C1425 C1424 1.334 . S
C1425 C1426 1.287 . S
C1426 C1425 1.287 . S
C1426 C1427 1.524 . S
C1426 H1445 0.913 . S
C1427 H1403 0.950 . S
C1427 C1426 1.524 . S
C1427 C1428 1.415 . S
C1428 H1404 0.950 . S
C1428 C1423 1.363 . S
C1428 C1427 1.415 . S
C1429 H1405 0.951 . S
C1429 C1430 1.366 . S
C1429 C1431 1.388 . S
C1430 C1429 1.366 . S
C1430 C1434 1.385 . S
C1431 H1406 0.951 . S
C1431 C1429 1.388 . S
C1431 C1432 1.366 . S
C1432 C1431 1.366 . S
C1432 C1433 1.414 . S
C1432 C1435 1.499 . S
C1433 H1407 0.950 . S
C1433 C1432 1.414 . S
C1433 C1434 1.374 . S
C1434 H1408 0.950 . S
C1434 C1430 1.385 . S
C1434 C1433 1.374 . S
C1435 C1432 1.499 . S
C1435 C1436 1.373 . S
C1435 C1437 1.389 . S
C1436 H1409 0.950 . S
C1436 C1422 1.377 . S
C1436 C1435 1.373 . S
C1437 C1421 1.377 . S
C1437 C1435 1.389 . S
C1437 C1438 1.524 . S
C1438 C1437 1.524 . S
C1438 C1439 1.397 . S
C1438 C1443 1.363 . S
C1439 H1410 0.950 . S
C1439 C1438 1.397 . S
C1439 C1440 1.334 . S
C1440 H1411 0.950 . S
C1440 C1439 1.334 . S
C1440 C1441 1.287 . S
C1441 C1440 1.287 . S
C1441 C1442 1.524 . S
C1441 H1444 0.999 . S
C1442 H1412 0.950 . S
C1442 C1441 1.524 . S
C1442 C1443 1.415 . S
C1443 H1413 0.950 . S
C1443 C1438 1.363 . S
C1443 C1442 1.415 . S
H1444 C1441 0.999 . S
H1445 C1426 0.913 . S
H1446 C1464 0.951 . S
H1447 C1466 0.951 . S
H1448 C1468 0.950 . S
H1449 C1469 0.950 . S
H1450 C1471 0.950 . S
H1451 C1474 0.950 . S
H1452 C1475 0.950 . S
H1453 C1477 0.950 . S
H1454 C1478 0.950 . S
H1455 C1479 0.951 . S
H1456 C1481 0.951 . S
H1457 C1483 0.950 . S
H1458 C1484 0.950 . S
H1459 C1486 0.950 . S
H1460 C1489 0.950 . S
H1461 C1490 0.950 . S
H1462 C1492 0.950 . S
H1463 C1493 0.950 . S
C1464 H1446 0.951 . S
C1464 C1465 1.366 . S
C1464 C1466 1.388 . S
C1465 C1464 1.366 . S
C1465 C1469 1.385 . S
C1466 H1447 0.951 . S
C1466 C1464 1.388 . S
C1466 C1467 1.366 . S
C1467 C1466 1.366 . S
C1467 C1468 1.414 . S
C1467 C1470 1.499 . S
C1468 H1448 0.950 . S
C1468 C1467 1.414 . S
C1468 C1469 1.374 . S
C1469 H1449 0.950 . S
C1469 C1465 1.385 . S
C1469 C1468 1.374 . S
C1470 C1467 1.499 . S
C1470 C1471 1.373 . S
C1470 C1472 1.389 . S
C1471 H1450 0.950 . S
C1471 C1470 1.373 . S
C1471 C1487 1.377 . S
C1472 C1470 1.389 . S
C1472 C1473 1.524 . S
C1472 C1486 1.377 . S
C1473 C1472 1.524 . S
C1473 C1474 1.397 . S
C1473 C1478 1.363 . S
C1474 H1451 0.950 . S
C1474 C1473 1.397 . S
C1474 C1475 1.334 . S
C1475 H1452 0.950 . S
C1475 C1474 1.334 . S
C1475 C1476 1.287 . S
C1476 C1475 1.287 . S
C1476 C1477 1.524 . S
C1476 H1495 0.913 . S
C1477 H1453 0.950 . S
C1477 C1476 1.524 . S
C1477 C1478 1.415 . S
C1478 H1454 0.950 . S
C1478 C1473 1.363 . S
C1478 C1477 1.415 . S
C1479 H1455 0.951 . S
C1479 C1480 1.366 . S
C1479 C1481 1.388 . S
C1480 C1479 1.366 . S
C1480 C1484 1.385 . S
C1481 H1456 0.951 . S
C1481 C1479 1.388 . S
C1481 C1482 1.366 . S
C1482 C1481 1.366 . S
C1482 C1483 1.414 . S
C1482 C1485 1.499 . S
C1483 H1457 0.950 . S
C1483 C1482 1.414 . S
C1483 C1484 1.374 . S
C1484 H1458 0.950 . S
C1484 C1480 1.385 . S
C1484 C1483 1.374 . S
C1485 C1482 1.499 . S
C1485 C1486 1.373 . S
C1485 C1487 1.389 . S
C1486 H1459 0.950 . S
C1486 C1472 1.377 . S
C1486 C1485 1.373 . S
C1487 C1471 1.377 . S
C1487 C1485 1.389 . S
C1487 C1488 1.524 . S
C1488 C1487 1.524 . S
C1488 C1489 1.397 . S
C1488 C1493 1.363 . S
C1489 H1460 0.950 . S
C1489 C1488 1.397 . S
C1489 C1490 1.334 . S
C1490 H1461 0.950 . S
C1490 C1489 1.334 . S
C1490 C1491 1.287 . S
C1491 C1490 1.287 . S
C1491 C1492 1.524 . S
C1491 H1494 0.999 . S
C1492 H1462 0.950 . S
C1492 C1491 1.524 . S
C1492 C1493 1.415 . S
C1493 H1463 0.950 . S
C1493 C1488 1.363 . S
C1493 C1492 1.415 . S
H1494 C1491 0.999 . S
H1495 C1476 0.913 . S
H1496 C1514 0.951 . S
H1497 C1516 0.951 . S
H1498 C1518 0.950 . S
H1499 C1519 0.950 1_554 S
H1500 C1521 0.950 . S
H1501 C1524 0.950 . S
H1502 C1525 0.950 . S
H1503 C1527 0.950 . S
H1504 C1528 0.950 . S
H1505 C1529 0.951 . S
H1506 C1531 0.951 . S
H1507 C1533 0.950 . S
H1508 C1534 0.950 . S
H1509 C1536 0.950 . S
H1510 C1539 0.950 . S
H1511 C1540 0.950 . S
H1512 C1542 0.950 . S
H1513 C1543 0.950 . S
C1514 H1496 0.951 . S
C1514 C1515 1.366 . S
C1514 C1516 1.388 . S
C1515 C1514 1.366 . S
C1515 C1519 1.385 . S
C1516 H1497 0.951 . S
C1516 C1514 1.388 . S
C1516 C1517 1.366 . S
C1517 C1516 1.366 . S
C1517 C1518 1.414 . S
C1517 C1520 1.499 . S
C1518 H1498 0.950 . S
C1518 C1517 1.414 . S
C1518 C1519 1.374 . S
C1519 H1499 0.950 1_556 S
C1519 C1515 1.385 . S
C1519 C1518 1.374 . S
C1520 C1517 1.499 . S
C1520 C1521 1.373 . S
C1520 C1522 1.389 . S
C1521 H1500 0.950 . S
C1521 C1520 1.373 . S
C1521 C1537 1.377 . S
C1522 C1520 1.389 . S
C1522 C1523 1.519 1_556 S
C1522 C1536 1.377 . S
C1523 C1522 1.519 1_554 S
C1523 C1524 1.404 . S
C1523 C1528 1.361 1_554 S
C1524 H1501 0.950 . S
C1524 C1523 1.404 . S
C1524 C1525 1.334 . S
C1525 H1502 0.950 . S
C1525 C1524 1.334 . S
C1525 C1526 1.287 . S
C1526 C1525 1.287 . S
C1526 C1527 1.524 . S
C1526 H1545 0.913 . S
C1527 H1503 0.950 . S
C1527 C1526 1.524 . S
C1527 C1528 1.415 1_554 S
C1528 H1504 0.950 . S
C1528 C1523 1.361 1_556 S
C1528 C1527 1.415 1_556 S
C1529 H1505 0.951 . S
C1529 C1530 1.366 . S
C1529 C1531 1.388 . S
C1530 C1529 1.366 . S
C1530 C1534 1.385 . S
C1531 H1506 0.951 . S
C1531 C1529 1.388 . S
C1531 C1532 1.366 . S
C1532 C1531 1.366 . S
C1532 C1533 1.414 . S
C1532 C1535 1.499 . S
C1533 H1507 0.950 . S
C1533 C1532 1.414 . S
C1533 C1534 1.374 . S
C1534 H1508 0.950 . S
C1534 C1530 1.385 . S
C1534 C1533 1.374 . S
C1535 C1532 1.499 . S
C1535 C1536 1.373 . S
C1535 C1537 1.389 . S
C1536 H1509 0.950 . S
C1536 C1522 1.377 . S
C1536 C1535 1.373 . S
C1537 C1521 1.377 . S
C1537 C1535 1.389 . S
C1537 C1538 1.524 . S
C1538 C1537 1.524 . S
C1538 C1539 1.397 . S
C1538 C1543 1.363 . S
C1539 H1510 0.950 . S
C1539 C1538 1.397 . S
C1539 C1540 1.334 . S
C1540 H1511 0.950 . S
C1540 C1539 1.334 . S
C1540 C1541 1.287 . S
C1541 C1540 1.287 . S
C1541 C1542 1.524 . S
C1541 H1544 0.999 . S
C1542 H1512 0.950 . S
C1542 C1541 1.524 . S
C1542 C1543 1.415 . S
C1543 H1513 0.950 . S
C1543 C1538 1.363 . S
C1543 C1542 1.415 . S
H1544 C1541 0.999 . S
H1545 C1526 0.913 . S
H1546 C1564 0.951 . S
H1547 C1566 0.951 . S
H1548 C1568 0.950 . S
H1549 C1569 0.950 . S
H1550 C1571 0.950 . S
H1551 C1574 0.950 . S
H1552 C1575 0.950 . S
H1553 C1577 0.950 . S
H1554 C1578 0.950 . S
H1555 C1579 0.951 . S
H1556 C1581 0.951 . S
H1557 C1583 0.950 . S
H1558 C1584 0.950 . S
H1559 C1586 0.950 . S
H1560 C1589 0.950 . S
H1561 C1590 0.950 . S
H1562 C1592 0.950 . S
H1563 C1593 0.950 1_554 S
C1564 H1546 0.951 . S
C1564 C1565 1.366 . S
C1564 C1566 1.388 . S
C1565 C1564 1.366 . S
C1565 C1569 1.385 . S
C1566 H1547 0.951 . S
C1566 C1564 1.388 . S
C1566 C1567 1.366 . S
C1567 C1566 1.366 . S
C1567 C1568 1.414 . S
C1567 C1570 1.499 . S
C1568 H1548 0.950 . S
C1568 C1567 1.414 . S
C1568 C1569 1.374 . S
C1569 H1549 0.950 . S
C1569 C1565 1.385 . S
C1569 C1568 1.374 . S
C1570 C1567 1.499 . S
C1570 C1571 1.373 . S
C1570 C1572 1.389 . S
C1571 H1550 0.950 . S
C1571 C1570 1.373 . S
C1571 C1587 1.377 . S
C1572 C1570 1.389 . S
C1572 C1573 1.524 . S
C1572 C1586 1.377 . S
C1573 C1572 1.524 . S
C1573 C1574 1.397 . S
C1573 C1578 1.363 . S
C1574 H1551 0.950 . S
C1574 C1573 1.397 . S
C1574 C1575 1.334 . S
C1575 H1552 0.950 . S
C1575 C1574 1.334 . S
C1575 C1576 1.287 . S
C1576 C1575 1.287 . S
C1576 C1577 1.524 . S
C1576 H1595 0.913 . S
C1577 H1553 0.950 . S
C1577 C1576 1.524 . S
C1577 C1578 1.415 . S
C1578 H1554 0.950 . S
C1578 C1573 1.363 . S
C1578 C1577 1.415 . S
C1579 H1555 0.951 . S
C1579 C1580 1.366 . S
C1579 C1581 1.388 . S
C1580 C1579 1.366 . S
C1580 C1584 1.385 . S
C1581 H1556 0.951 . S
C1581 C1579 1.388 . S
C1581 C1582 1.366 . S
C1582 C1581 1.366 . S
C1582 C1583 1.414 . S
C1582 C1585 1.499 . S
C1583 H1557 0.950 . S
C1583 C1582 1.414 . S
C1583 C1584 1.374 . S
C1584 H1558 0.950 . S
C1584 C1580 1.385 . S
C1584 C1583 1.374 . S
C1585 C1582 1.499 . S
C1585 C1586 1.373 . S
C1585 C1587 1.389 . S
C1586 H1559 0.950 . S
C1586 C1572 1.377 . S
C1586 C1585 1.373 . S
C1587 C1571 1.377 . S
C1587 C1585 1.389 . S
C1587 C1588 1.524 1_554 S
C1588 C1587 1.524 1_556 S
C1588 C1589 1.397 . S
C1588 C1593 1.363 . S
C1589 H1560 0.950 . S
C1589 C1588 1.397 . S
C1589 C1590 1.334 . S
C1590 H1561 0.950 . S
C1590 C1589 1.334 . S
C1590 C1591 1.287 . S
C1591 C1590 1.287 . S
C1591 C1592 1.524 . S
C1591 H1594 0.999 . S
C1592 H1562 0.950 . S
C1592 C1591 1.524 . S
C1592 C1593 1.415 . S
C1593 H1563 0.950 1_556 S
C1593 C1588 1.363 . S
C1593 C1592 1.415 . S
H1594 C1591 0.999 . S
H1595 C1576 0.913 . S
H1596 C1614 0.948 1_556 S
H1597 C1616 0.951 1_556 S
H1598 C1618 0.950 . S
H1599 C1619 0.950 . S
H1600 C1621 0.950 . S
H1601 C1624 0.950 . S
H1602 C1625 0.950 . S
H1603 C1627 0.950 . S
H1604 C1628 0.950 . S
H1605 C1629 0.947 1_554 S
H1606 C1631 0.951 1_554 S
H1607 C1633 0.950 . S
H1608 C1634 0.950 . S
H1609 C1636 0.950 . S
H1610 C1639 0.950 . S
H1611 C1640 0.950 . S
H1612 C1642 0.950 . S
H1613 C1643 0.950 . S
C1614 H1596 0.948 1_554 S
C1614 C1615 1.366 . S
C1614 C1616 1.388 . S
C1615 C1614 1.366 . S
C1615 C1619 1.385 . S
C1616 H1597 0.951 1_554 S
C1616 C1614 1.388 . S
C1616 C1617 1.366 . S
C1617 C1616 1.366 . S
C1617 C1618 1.414 . S
C1617 C1620 1.499 . S
C1618 H1598 0.950 . S
C1618 C1617 1.414 . S
C1618 C1619 1.374 . S
C1619 H1599 0.950 . S
C1619 C1615 1.385 . S
C1619 C1618 1.374 . S
C1620 C1617 1.499 . S
C1620 C1621 1.373 . S
C1620 C1622 1.389 1_554 S
C1621 H1600 0.950 . S
C1621 C1620 1.373 . S
C1621 C1637 1.377 1_545 S
C1622 C1620 1.389 1_556 S
C1622 C1623 1.524 . S
C1622 C1636 1.377 1_545 S
C1623 C1622 1.524 . S
C1623 C1624 1.397 . S
C1623 C1628 1.363 . S
C1624 H1601 0.950 . S
C1624 C1623 1.397 . S
C1624 C1625 1.334 . S
C1625 H1602 0.950 . S
C1625 C1624 1.334 . S
C1625 C1626 1.287 . S
C1626 C1625 1.287 . S
C1626 C1627 1.524 . S
C1626 H1645 0.913 . S
C1627 H1603 0.950 . S
C1627 C1626 1.524 . S
C1627 C1628 1.415 . S
C1628 H1604 0.950 . S
C1628 C1623 1.363 . S
C1628 C1627 1.415 . S
C1629 H1605 0.947 1_556 S
C1629 C1630 1.366 . S
C1629 C1631 1.388 . S
C1630 C1629 1.366 . S
C1630 C1634 1.385 . S
C1631 H1606 0.951 1_556 S
C1631 C1629 1.388 . S
C1631 C1632 1.366 . S
C1632 C1631 1.366 . S
C1632 C1633 1.414 . S
C1632 C1635 1.499 . S
C1633 H1607 0.950 . S
C1633 C1632 1.414 . S
C1633 C1634 1.374 . S
C1634 H1608 0.950 . S
C1634 C1630 1.385 . S
C1634 C1633 1.374 . S
C1635 C1632 1.499 . S
C1635 C1636 1.373 . S
C1635 C1637 1.389 1_556 S
C1636 H1609 0.950 . S
C1636 C1622 1.377 1_565 S
C1636 C1635 1.373 . S
C1637 C1621 1.377 1_565 S
C1637 C1635 1.389 1_554 S
C1637 C1638 1.524 . S
C1638 C1637 1.524 . S
C1638 C1639 1.397 . S
C1638 C1643 1.363 . S
C1639 H1610 0.950 . S
C1639 C1638 1.397 . S
C1639 C1640 1.334 . S
C1640 H1611 0.950 . S
C1640 C1639 1.334 . S
C1640 C1641 1.287 . S
C1641 C1640 1.287 . S
C1641 C1642 1.524 . S
C1641 H1644 0.999 . S
C1642 H1612 0.950 . S
C1642 C1641 1.524 . S
C1642 C1643 1.415 . S
C1643 H1613 0.950 . S
C1643 C1638 1.363 . S
C1643 C1642 1.415 . S
H1644 C1641 0.999 . S
H1645 C1626 0.913 . S
H1646 C1664 0.951 . S
H1647 C1666 0.951 . S
H1648 C1668 0.950 . S
H1649 C1669 0.950 . S
H1650 C1671 0.950 . S
H1651 C1674 0.950 . S
H1652 C1675 0.950 . S
H1653 C1677 0.950 . S
H1654 C1678 0.950 . S
H1655 C1679 0.951 . S
H1656 C1681 0.951 . S
H1657 C1683 0.950 . S
H1658 C1684 0.950 . S
H1659 C1686 0.950 . S
H1660 C1689 0.950 . S
H1661 C1690 0.950 . S
H1662 C1692 0.950 . S
H1663 C1693 0.950 . S
C1664 H1646 0.951 . S
C1664 C1665 1.366 . S
C1664 C1666 1.388 . S
C1665 C1664 1.366 . S
C1665 C1669 1.385 . S
C1666 H1647 0.951 . S
C1666 C1664 1.388 . S
C1666 C1667 1.366 . S
C1667 C1666 1.366 . S
C1667 C1668 1.414 . S
C1667 C1670 1.499 . S
C1668 H1648 0.950 . S
C1668 C1667 1.414 . S
C1668 C1669 1.374 . S
C1669 H1649 0.950 . S
C1669 C1665 1.385 . S
C1669 C1668 1.374 . S
C1670 C1667 1.499 . S
C1670 C1671 1.373 . S
C1670 C1672 1.389 . S
C1671 H1650 0.950 . S
C1671 C1670 1.373 . S
C1671 C1687 1.377 . S
C1672 C1670 1.389 . S
C1672 C1673 1.524 . S
C1672 C1686 1.377 . S
C1673 C1672 1.524 . S
C1673 C1674 1.397 . S
C1673 C1678 1.363 . S
C1674 H1651 0.950 . S
C1674 C1673 1.397 . S
C1674 C1675 1.334 1_554 S
C1675 H1652 0.950 . S
C1675 C1674 1.334 1_556 S
C1675 C1676 1.287 1_556 S
C1676 C1675 1.287 1_554 S
C1676 C1677 1.522 . S
C1676 H1695 0.915 1_554 S
C1677 H1653 0.950 . S
C1677 C1676 1.522 . S
C1677 C1678 1.415 . S
C1678 H1654 0.950 . S
C1678 C1673 1.363 . S
C1678 C1677 1.415 . S
C1679 H1655 0.951 . S
C1679 C1680 1.366 . S
C1679 C1681 1.388 . S
C1680 C1679 1.366 . S
C1680 C1684 1.385 . S
C1681 H1656 0.951 . S
C1681 C1679 1.388 . S
C1681 C1682 1.366 . S
C1682 C1681 1.366 . S
C1682 C1683 1.414 . S
C1682 C1685 1.499 . S
C1683 H1657 0.950 . S
C1683 C1682 1.414 . S
C1683 C1684 1.374 . S
C1684 H1658 0.950 . S
C1684 C1680 1.385 . S
C1684 C1683 1.374 . S
C1685 C1682 1.499 . S
C1685 C1686 1.373 . S
C1685 C1687 1.389 . S
C1686 H1659 0.950 . S
C1686 C1672 1.377 . S
C1686 C1685 1.373 . S
C1687 C1671 1.377 . S
C1687 C1685 1.389 . S
C1687 C1688 1.524 . S
C1688 C1687 1.524 . S
C1688 C1689 1.397 . S
C1688 C1693 1.363 . S
C1689 H1660 0.950 . S
C1689 C1688 1.397 . S
C1689 C1690 1.334 . S
C1690 H1661 0.950 . S
C1690 C1689 1.334 . S
C1690 C1691 1.287 . S
C1691 C1690 1.287 . S
C1691 C1692 1.524 . S
C1691 H1694 0.999 . S
C1692 H1662 0.950 . S
C1692 C1691 1.524 . S
C1692 C1693 1.415 . S
C1693 H1663 0.950 . S
C1693 C1688 1.363 . S
C1693 C1692 1.415 . S
H1694 C1691 0.999 . S
H1695 C1676 0.915 1_556 S
H1696 C1714 0.951 . S
H1697 C1716 0.951 . S
H1698 C1718 0.950 . S
H1699 C1719 0.950 . S
H1700 C1721 0.950 . S
H1701 C1724 0.950 . S
H1702 C1725 0.950 . S
H1703 C1727 0.950 . S
H1704 C1728 0.950 . S
H1705 C1729 0.951 . S
H1706 C1731 0.951 . S
H1707 C1733 0.950 . S
H1708 C1734 0.950 . S
H1709 C1736 0.950 . S
H1710 C1739 0.950 . S
H1711 C1740 0.950 . S
H1712 C1742 0.950 . S
H1713 C1743 0.950 . S
C1714 H1696 0.951 . S
C1714 C1715 1.366 . S
C1714 C1716 1.388 . S
C1715 C1714 1.366 . S
C1715 C1719 1.385 . S
C1716 H1697 0.951 . S
C1716 C1714 1.388 . S
C1716 C1717 1.366 . S
C1717 C1716 1.366 . S
C1717 C1718 1.414 . S
C1717 C1720 1.499 . S
C1718 H1698 0.950 . S
C1718 C1717 1.414 . S
C1718 C1719 1.374 . S
C1719 H1699 0.950 . S
C1719 C1715 1.385 . S
C1719 C1718 1.374 . S
C1720 C1717 1.499 . S
C1720 C1721 1.373 . S
C1720 C1722 1.389 . S
C1721 H1700 0.950 . S
C1721 C1720 1.373 . S
C1721 C1737 1.377 1_455 S
C1722 C1720 1.389 . S
C1722 C1723 1.524 . S
C1722 C1736 1.377 1_455 S
C1723 C1722 1.524 . S
C1723 C1724 1.397 . S
C1723 C1728 1.363 . S
C1724 H1701 0.950 . S
C1724 C1723 1.397 . S
C1724 C1725 1.334 . S
C1725 H1702 0.950 . S
C1725 C1724 1.334 . S
C1725 C1726 1.287 . S
C1726 C1725 1.287 . S
C1726 C1727 1.524 . S
C1726 H1745 0.913 . S
C1727 H1703 0.950 . S
C1727 C1726 1.524 . S
C1727 C1728 1.415 . S
C1728 H1704 0.950 . S
C1728 C1723 1.363 . S
C1728 C1727 1.415 . S
C1729 H1705 0.951 . S
C1729 C1730 1.366 . S
C1729 C1731 1.388 . S
C1730 C1729 1.366 . S
C1730 C1734 1.385 . S
C1731 H1706 0.951 . S
C1731 C1729 1.388 . S
C1731 C1732 1.366 . S
C1732 C1731 1.366 . S
C1732 C1733 1.414 . S
C1732 C1735 1.499 . S
C1733 H1707 0.950 . S
C1733 C1732 1.414 . S
C1733 C1734 1.374 . S
C1734 H1708 0.950 . S
C1734 C1730 1.385 . S
C1734 C1733 1.374 . S
C1735 C1732 1.499 . S
C1735 C1736 1.373 . S
C1735 C1737 1.389 . S
C1736 H1709 0.950 . S
C1736 C1722 1.377 1_655 S
C1736 C1735 1.373 . S
C1737 C1721 1.377 1_655 S
C1737 C1735 1.389 . S
C1737 C1738 1.524 . S
C1738 C1737 1.524 . S
C1738 C1739 1.397 . S
C1738 C1743 1.363 . S
C1739 H1710 0.950 . S
C1739 C1738 1.397 . S
C1739 C1740 1.334 . S
C1740 H1711 0.950 . S
C1740 C1739 1.334 . S
C1740 C1741 1.287 . S
C1741 C1740 1.287 . S
C1741 C1742 1.524 . S
C1741 H1744 0.999 . S
C1742 H1712 0.950 . S
C1742 C1741 1.524 . S
C1742 C1743 1.415 . S
C1743 H1713 0.950 . S
C1743 C1738 1.363 . S
C1743 C1742 1.415 . S
H1744 C1741 0.999 . S
H1745 C1726 0.913 . S
H1746 C1764 0.951 . S
H1747 C1766 0.951 . S
H1748 C1768 0.950 . S
H1749 C1769 0.950 . S
H1750 C1771 0.950 . S
H1751 C1774 0.950 . S
H1752 C1775 0.950 . S
H1753 C1777 0.950 . S
H1754 C1778 0.950 . S
H1755 C1779 0.951 . S
H1756 C1781 0.951 . S
H1757 C1783 0.950 . S
H1758 C1784 0.950 . S
H1759 C1786 0.950 . S
H1760 C1789 0.950 . S
H1761 C1790 0.950 . S
H1762 C1792 0.950 . S
H1763 C1793 0.950 . S
C1764 H1746 0.951 . S
C1764 C1765 1.366 . S
C1764 C1766 1.388 . S
C1765 C1764 1.366 . S
C1765 C1769 1.385 . S
C1766 H1747 0.951 . S
C1766 C1764 1.388 . S
C1766 C1767 1.366 . S
C1767 C1766 1.366 . S
C1767 C1768 1.414 . S
C1767 C1770 1.499 . S
C1768 H1748 0.950 . S
C1768 C1767 1.414 . S
C1768 C1769 1.374 . S
C1769 H1749 0.950 . S
C1769 C1765 1.385 . S
C1769 C1768 1.374 . S
C1770 C1767 1.499 . S
C1770 C1771 1.373 . S
C1770 C1772 1.389 . S
C1771 H1750 0.950 . S
C1771 C1770 1.373 . S
C1771 C1787 1.377 1_565 S
C1772 C1770 1.389 . S
C1772 C1773 1.524 . S
C1772 C1786 1.377 1_565 S
C1773 C1772 1.524 . S
C1773 C1774 1.397 . S
C1773 C1778 1.363 . S
C1774 H1751 0.950 . S
C1774 C1773 1.397 . S
C1774 C1775 1.334 . S
C1775 H1752 0.950 . S
C1775 C1774 1.334 . S
C1775 C1776 1.287 . S
C1776 C1775 1.287 . S
C1776 C1777 1.524 . S
C1776 H1795 0.913 . S
C1777 H1753 0.950 . S
C1777 C1776 1.524 . S
C1777 C1778 1.415 . S
C1778 H1754 0.950 . S
C1778 C1773 1.363 . S
C1778 C1777 1.415 . S
C1779 H1755 0.951 . S
C1779 C1780 1.366 . S
C1779 C1781 1.388 . S
C1780 C1779 1.366 . S
C1780 C1784 1.385 . S
C1781 H1756 0.951 . S
C1781 C1779 1.388 . S
C1781 C1782 1.366 . S
C1782 C1781 1.366 . S
C1782 C1783 1.414 . S
C1782 C1785 1.499 . S
C1783 H1757 0.950 . S
C1783 C1782 1.414 . S
C1783 C1784 1.374 . S
C1784 H1758 0.950 . S
C1784 C1780 1.385 . S
C1784 C1783 1.374 . S
C1785 C1782 1.499 . S
C1785 C1786 1.373 . S
C1785 C1787 1.389 . S
C1786 H1759 0.950 . S
C1786 C1772 1.377 1_545 S
C1786 C1785 1.373 . S
C1787 C1771 1.377 1_545 S
C1787 C1785 1.389 . S
C1787 C1788 1.524 . S
C1788 C1787 1.524 . S
C1788 C1789 1.397 . S
C1788 C1793 1.363 . S
C1789 H1760 0.950 . S
C1789 C1788 1.397 . S
C1789 C1790 1.334 . S
C1790 H1761 0.950 . S
C1790 C1789 1.334 . S
C1790 C1791 1.287 . S
C1791 C1790 1.287 . S
C1791 C1792 1.524 . S
C1791 H1794 0.999 . S
C1792 H1762 0.950 . S
C1792 C1791 1.524 . S
C1792 C1793 1.415 . S
C1793 H1763 0.950 . S
C1793 C1788 1.363 . S
C1793 C1792 1.415 . S
H1794 C1791 0.999 . S
H1795 C1776 0.913 . S
H1796 C1814 0.951 . S
H1797 C1816 0.951 . S
H1798 C1818 0.950 . S
H1799 C1819 0.950 . S
H1800 C1821 0.950 . S
H1801 C1824 0.950 . S
H1802 C1825 0.950 . S
H1803 C1827 0.950 . S
H1804 C1828 0.950 . S
H1805 C1829 0.951 . S
H1806 C1831 0.951 . S
H1807 C1833 0.950 . S
H1808 C1834 0.950 . S
H1809 C1836 0.950 . S
H1810 C1839 0.950 . S
H1811 C1840 0.950 . S
H1812 C1842 0.950 . S
H1813 C1843 0.950 . S
C1814 H1796 0.951 . S
C1814 C1815 1.366 . S
C1814 C1816 1.388 . S
C1815 C1814 1.366 . S
C1815 C1819 1.385 . S
C1816 H1797 0.951 . S
C1816 C1814 1.388 . S
C1816 C1817 1.366 . S
C1817 C1816 1.366 . S
C1817 C1818 1.414 . S
C1817 C1820 1.499 . S
C1818 H1798 0.950 . S
C1818 C1817 1.414 . S
C1818 C1819 1.374 . S
C1819 H1799 0.950 . S
C1819 C1815 1.385 . S
C1819 C1818 1.374 . S
C1820 C1817 1.499 . S
C1820 C1821 1.373 . S
C1820 C1822 1.389 . S
C1821 H1800 0.950 . S
C1821 C1820 1.373 . S
C1821 C1837 1.377 . S
C1822 C1820 1.389 . S
C1822 C1823 1.524 . S
C1822 C1836 1.377 . S
C1823 C1822 1.524 . S
C1823 C1824 1.397 . S
C1823 C1828 1.363 . S
C1824 H1801 0.950 . S
C1824 C1823 1.397 . S
C1824 C1825 1.334 . S
C1825 H1802 0.950 . S
C1825 C1824 1.334 . S
C1825 C1826 1.287 . S
C1826 C1825 1.287 . S
C1826 C1827 1.524 . S
C1826 H1845 0.913 . S
C1827 H1803 0.950 . S
C1827 C1826 1.524 . S
C1827 C1828 1.415 . S
C1828 H1804 0.950 . S
C1828 C1823 1.363 . S
C1828 C1827 1.415 . S
C1829 H1805 0.951 . S
C1829 C1830 1.366 . S
C1829 C1831 1.388 . S
C1830 C1829 1.366 . S
C1830 C1834 1.385 . S
C1831 H1806 0.951 . S
C1831 C1829 1.388 . S
C1831 C1832 1.366 . S
C1832 C1831 1.366 . S
C1832 C1833 1.414 . S
C1832 C1835 1.499 . S
C1833 H1807 0.950 . S
C1833 C1832 1.414 . S
C1833 C1834 1.374 . S
C1834 H1808 0.950 . S
C1834 C1830 1.385 . S
C1834 C1833 1.374 . S
C1835 C1832 1.499 . S
C1835 C1836 1.373 . S
C1835 C1837 1.389 . S
C1836 H1809 0.950 . S
C1836 C1822 1.377 . S
C1836 C1835 1.373 . S
C1837 C1821 1.377 . S
C1837 C1835 1.389 . S
C1837 C1838 1.524 . S
C1838 C1837 1.524 . S
C1838 C1839 1.397 . S
C1838 C1843 1.363 . S
C1839 H1810 0.950 . S
C1839 C1838 1.397 . S
C1839 C1840 1.334 . S
C1840 H1811 0.950 . S
C1840 C1839 1.334 . S
C1840 C1841 1.287 . S
C1841 C1840 1.287 . S
C1841 C1842 1.524 . S
C1841 H1844 0.999 . S
C1842 H1812 0.950 . S
C1842 C1841 1.524 . S
C1842 C1843 1.415 . S
C1843 H1813 0.950 . S
C1843 C1838 1.363 . S
C1843 C1842 1.415 . S
H1844 C1841 0.999 . S
H1845 C1826 0.913 . S
H1846 C1864 0.951 . S
H1847 C1866 0.951 . S
H1848 C1868 0.950 . S
H1849 C1869 0.950 . S
H1850 C1871 0.950 . S
H1851 C1874 0.950 . S
H1852 C1875 0.950 . S
H1853 C1877 0.950 . S
H1854 C1878 0.950 . S
H1855 C1879 0.951 . S
H1856 C1881 0.951 . S
H1857 C1883 0.950 . S
H1858 C1884 0.950 . S
H1859 C1886 0.950 . S
H1860 C1889 0.950 . S
H1861 C1890 0.950 . S
H1862 C1892 0.950 . S
H1863 C1893 0.950 . S
C1864 H1846 0.951 . S
C1864 C1865 1.366 . S
C1864 C1866 1.388 . S
C1865 C1864 1.366 . S
C1865 C1869 1.385 . S
C1866 H1847 0.951 . S
C1866 C1864 1.388 . S
C1866 C1867 1.366 . S
C1867 C1866 1.366 . S
C1867 C1868 1.414 . S
C1867 C1870 1.499 . S
C1868 H1848 0.950 . S
C1868 C1867 1.414 . S
C1868 C1869 1.374 . S
C1869 H1849 0.950 . S
C1869 C1865 1.385 . S
C1869 C1868 1.374 . S
C1870 C1867 1.499 . S
C1870 C1871 1.373 . S
C1870 C1872 1.389 . S
C1871 H1850 0.950 . S
C1871 C1870 1.373 . S
C1871 C1887 1.377 1_455 S
C1872 C1870 1.389 . S
C1872 C1873 1.524 . S
C1872 C1886 1.377 1_455 S
C1873 C1872 1.524 . S
C1873 C1874 1.397 . S
C1873 C1878 1.363 . S
C1874 H1851 0.950 . S
C1874 C1873 1.397 . S
C1874 C1875 1.334 . S
C1875 H1852 0.950 . S
C1875 C1874 1.334 . S
C1875 C1876 1.287 . S
C1876 C1875 1.287 . S
C1876 C1877 1.524 . S
C1876 H1895 0.913 . S
C1877 H1853 0.950 . S
C1877 C1876 1.524 . S
C1877 C1878 1.415 . S
C1878 H1854 0.950 . S
C1878 C1873 1.363 . S
C1878 C1877 1.415 . S
C1879 H1855 0.951 . S
C1879 C1880 1.366 . S
C1879 C1881 1.388 . S
C1880 C1879 1.366 . S
C1880 C1884 1.385 . S
C1881 H1856 0.951 . S
C1881 C1879 1.388 . S
C1881 C1882 1.366 . S
C1882 C1881 1.366 . S
C1882 C1883 1.414 . S
C1882 C1885 1.499 . S
C1883 H1857 0.950 . S
C1883 C1882 1.414 . S
C1883 C1884 1.374 . S
C1884 H1858 0.950 . S
C1884 C1880 1.385 . S
C1884 C1883 1.374 . S
C1885 C1882 1.499 . S
C1885 C1886 1.373 . S
C1885 C1887 1.389 . S
C1886 H1859 0.950 . S
C1886 C1872 1.377 1_655 S
C1886 C1885 1.373 . S
C1887 C1871 1.377 1_655 S
C1887 C1885 1.389 . S
C1887 C1888 1.524 . S
C1888 C1887 1.524 . S
C1888 C1889 1.397 . S
C1888 C1893 1.363 . S
C1889 H1860 0.950 . S
C1889 C1888 1.397 . S
C1889 C1890 1.334 . S
C1890 H1861 0.950 . S
C1890 C1889 1.334 . S
C1890 C1891 1.287 . S
C1891 C1890 1.287 . S
C1891 C1892 1.524 1_556 S
C1891 H1894 0.999 1_556 S
C1892 H1862 0.950 . S
C1892 C1891 1.524 1_554 S
C1892 C1893 1.415 1_554 S
C1893 H1863 0.950 . S
C1893 C1888 1.363 . S
C1893 C1892 1.415 1_556 S
H1894 C1891 0.999 1_554 S
H1895 C1876 0.913 . S
C415 C281 1.212 . S
C430 C17 1.212 . S
C465 C314 1.212 . S
C480 C50 1.212 . S
C515 C347 1.212 . S
C530 C83 1.212 . S
C565 C380 1.212 . S
C580 C116 1.212 . S
C615 C149 1.212 . S
C630 C215 1.212 . S
C665 C248 1.212 . S
C680 C182 1.212 . S
C715 N5 1.392 . S
C730 N14 1.387 . S
C765 N47 1.387 . S
C780 N38 1.392 . S
C815 N80 1.388 . S
C830 N71 1.392 . S
C865 N113 1.388 . S
C880 N104 1.392 . S
C915 N146 1.387 1_554 S
C930 N137 1.392 . S
C965 N179 1.388 . S
C980 N170 1.392 . S
C1015 N203 1.391 . S
C1030 N212 1.387 . S
C1065 N245 1.388 . S
C1080 N236 1.392 . S
C1115 N269 1.391 . S
C1130 N278 1.387 . S
C1165 N302 1.392 . S
C1180 N311 1.388 1_556 S
C1215 N335 1.392 . S
C1230 N344 1.387 . S
C1265 N377 1.387 . S
C1280 N368 1.391 . S
C1315 C8 1.567 . S
C1330 C338 1.567 . S
C1365 C41 1.567 . S
C1380 C371 1.567 . S
C1415 C74 1.567 . S
C1430 C206 1.567 . S
C1465 C239 1.567 . S
C1480 C107 1.567 . S
C1515 C272 1.567 1_556 S
C1530 C140 1.567 . S
C1565 C305 1.567 . S
C1580 C173 1.567 1_554 S
C1615 C28 1.044 . S
C1630 C259 1.045 . S
C1665 C292 1.044 . S
C1680 C61 1.045 . S
C1715 C325 1.045 . S
C1730 C94 1.044 . S
C1765 C127 1.044 . S
C1780 C358 1.044 . S
C1815 C391 1.044 . S
C1830 C160 1.044 . S
C1865 C193 1.044 . S
C1880 C226 1.045 . S
