# Generated by pormake.
# Topology unp, (4)-cn, num edge types: 1
# Building blocks:
#     Node 0, Type 0, BuildingBlock: NAHDIM_clean_sbu_0, # of connection points: 4
#     Node 1, Type 0, BuildingBlock: NAHDIM_clean_sbu_0, # of connection points: 4
#     Node 2, Type 0, BuildingBlock: NAHDIM_clean_sbu_0, # of connection points: 4
#     Node 3, Type 0, BuildingBlock: NAHDIM_clean_sbu_0, # of connection points: 4
#     Node 4, Type 0, BuildingBlock: NAHDIM_clean_sbu_0, # of connection points: 4
#     Node 5, Type 0, BuildingBlock: NAHDIM_clean_sbu_0, # of connection points: 4
#     Node 6, Type 0, BuildingBlock: NAHDIM_clean_sbu_0, # of connection points: 4
#     Node 7, Type 0, BuildingBlock: NAHDIM_clean_sbu_0, # of connection points: 4
#     Node 8, Type 0, BuildingBlock: NAHDIM_clean_sbu_0, # of connection points: 4
#     Node 9, Type 0, BuildingBlock: NAHDIM_clean_sbu_0, # of connection points: 4
#     Node 10, Type 0, BuildingBlock: NAHDIM_clean_sbu_0, # of connection points: 4
#     Node 11, Type 0, BuildingBlock: NAHDIM_clean_sbu_0, # of connection points: 4
#     Node 12, Type 0, BuildingBlock: NAHDIM_clean_sbu_0, # of connection points: 4
#     Node 13, Type 0, BuildingBlock: NAHDIM_clean_sbu_0, # of connection points: 4
#     Node 14, Type 0, BuildingBlock: NAHDIM_clean_sbu_0, # of connection points: 4
#     Node 15, Type 0, BuildingBlock: NAHDIM_clean_sbu_0, # of connection points: 4
#     Node 16, Type 0, BuildingBlock: NAHDIM_clean_sbu_0, # of connection points: 4
#     Node 17, Type 0, BuildingBlock: NAHDIM_clean_sbu_0, # of connection points: 4
#     Edge 18, Type (0, 0), BuildingBlock: MIFKUJ_clean_linker_0, # of connection points: 2
#     Edge 19, Type (0, 0), BuildingBlock: MIFKUJ_clean_linker_0, # of connection points: 2
#     Edge 20, Type (0, 0), BuildingBlock: MIFKUJ_clean_linker_0, # of connection points: 2
#     Edge 21, Type (0, 0), BuildingBlock: MIFKUJ_clean_linker_0, # of connection points: 2
#     Edge 22, Type (0, 0), BuildingBlock: MIFKUJ_clean_linker_0, # of connection points: 2
#     Edge 23, Type (0, 0), BuildingBlock: MIFKUJ_clean_linker_0, # of connection points: 2
#     Edge 24, Type (0, 0), BuildingBlock: MIFKUJ_clean_linker_0, # of connection points: 2
#     Edge 25, Type (0, 0), BuildingBlock: MIFKUJ_clean_linker_0, # of connection points: 2
#     Edge 26, Type (0, 0), BuildingBlock: MIFKUJ_clean_linker_0, # of connection points: 2
#     Edge 27, Type (0, 0), BuildingBlock: MIFKUJ_clean_linker_0, # of connection points: 2
#     Edge 28, Type (0, 0), BuildingBlock: MIFKUJ_clean_linker_0, # of connection points: 2
#     Edge 29, Type (0, 0), BuildingBlock: MIFKUJ_clean_linker_0, # of connection points: 2
#     Edge 30, Type (0, 0), BuildingBlock: MIFKUJ_clean_linker_0, # of connection points: 2
#     Edge 31, Type (0, 0), BuildingBlock: MIFKUJ_clean_linker_0, # of connection points: 2
#     Edge 32, Type (0, 0), BuildingBlock: MIFKUJ_clean_linker_0, # of connection points: 2
#     Edge 33, Type (0, 0), BuildingBlock: MIFKUJ_clean_linker_0, # of connection points: 2
#     Edge 34, Type (0, 0), BuildingBlock: MIFKUJ_clean_linker_0, # of connection points: 2
#     Edge 35, Type (0, 0), BuildingBlock: MIFKUJ_clean_linker_0, # of connection points: 2
#     Edge 36, Type (0, 0), BuildingBlock: MIFKUJ_clean_linker_0, # of connection points: 2
#     Edge 37, Type (0, 0), BuildingBlock: MIFKUJ_clean_linker_0, # of connection points: 2
#     Edge 38, Type (0, 0), BuildingBlock: MIFKUJ_clean_linker_0, # of connection points: 2
#     Edge 39, Type (0, 0), BuildingBlock: MIFKUJ_clean_linker_0, # of connection points: 2
#     Edge 40, Type (0, 0), BuildingBlock: MIFKUJ_clean_linker_0, # of connection points: 2
#     Edge 41, Type (0, 0), BuildingBlock: MIFKUJ_clean_linker_0, # of connection points: 2
#     Edge 42, Type (0, 0), BuildingBlock: MIFKUJ_clean_linker_0, # of connection points: 2
#     Edge 43, Type (0, 0), BuildingBlock: MIFKUJ_clean_linker_0, # of connection points: 2
#     Edge 44, Type (0, 0), BuildingBlock: MIFKUJ_clean_linker_0, # of connection points: 2
#     Edge 45, Type (0, 0), BuildingBlock: MIFKUJ_clean_linker_0, # of connection points: 2
#     Edge 46, Type (0, 0), BuildingBlock: MIFKUJ_clean_linker_0, # of connection points: 2
#     Edge 47, Type (0, 0), BuildingBlock: MIFKUJ_clean_linker_0, # of connection points: 2
#     Edge 48, Type (0, 0), BuildingBlock: MIFKUJ_clean_linker_0, # of connection points: 2
#     Edge 49, Type (0, 0), BuildingBlock: MIFKUJ_clean_linker_0, # of connection points: 2
#     Edge 50, Type (0, 0), BuildingBlock: MIFKUJ_clean_linker_0, # of connection points: 2
#     Edge 51, Type (0, 0), BuildingBlock: MIFKUJ_clean_linker_0, # of connection points: 2
#     Edge 52, Type (0, 0), BuildingBlock: MIFKUJ_clean_linker_0, # of connection points: 2
#     Edge 53, Type (0, 0), BuildingBlock: MIFKUJ_clean_linker_0, # of connection points: 2
# Relax obj value: 0.396
# Max RMSD: 0.204
# Mean RMSD: 0.202
data_MOF--net-unp--node1-NAHDIM_clean_sbu_0--edge1-MIFKUJ_clean_linker_0
_symmetry_space_group_name_H-M    P1
_symmetry_Int_Tables_number       1
_symmetry_cell_setting            triclinic
loop_
_symmetry_equiv_pos_as_xyz
'x, y, z'
_cell_length_a     59.799943
_cell_length_b     59.812947
_cell_length_c     80.866995
_cell_angle_alpha  90.19277
_cell_angle_beta   89.814175
_cell_angle_gamma 120.26882
loop_
_atom_site_label
_atom_site_type_symbol
_atom_site_fract_x
_atom_site_fract_y
_atom_site_fract_z
_atom_type_partial_charge
C0 C 0.20168 0.23131 0.14704 0.0
O1 O 0.18175 0.21252 0.1548 0.0
O2 O 0.16974 0.16889 0.12483 0.0
Zn3 Zn 0.17411 0.20312 0.11779 0.0
O4 O 0.1859 0.20821 0.09411 0.0
C5 C 0.1243 0.19578 0.10812 0.0
O6 O 0.13256 0.19469 0.09324 0.0
O7 O 0.20192 0.23157 0.13134 0.0
C8 C 0.1905 0.22722 0.08491 0.0
O9 O 0.18745 0.24601 0.09079 0.0
C10 C 0.1586 0.15041 0.11452 0.0
O11 O 0.1508 0.15476 0.10034 0.0
O12 O 0.13922 0.20043 0.12043 0.0
C13 C 0.77335 0.00048 0.12037 0.0
O14 O 0.78252 0.0103 0.10572 0.0
O15 O 0.84484 0.02499 0.1199 0.0
Zn16 Zn 0.81348 0.98973 0.11639 0.0
O17 O 0.80689 0.98459 0.0919 0.0
C18 C 0.84086 0.96989 0.13467 0.0
O19 O 0.85185 0.99317 0.14122 0.0
O20 O 0.78319 0.98895 0.128 0.0
C21 C 0.82283 0.98225 0.08267 0.0
O22 O 0.84265 0.98202 0.08945 0.0
C23 C 0.85331 0.04328 0.10944 0.0
O24 O 0.84067 0.03995 0.09554 0.0
O25 O 0.82231 0.96317 0.12453 0.0
C26 C 0.02305 0.80563 0.1469 0.0
O27 O 0.01836 0.82208 0.15478 0.0
O28 O 0.00739 0.84986 0.12895 0.0
Zn29 Zn 0.03347 0.84101 0.12015 0.0
O30 O 0.02631 0.83331 0.09593 0.0
C31 C 0.0744 0.8855 0.13631 0.0
O32 O 0.06007 0.8745 0.14944 0.0
O33 O 0.03059 0.81012 0.13195 0.0
C34 C 0.02538 0.85033 0.08706 0.0
O35 O 0.02967 0.87202 0.09403 0.0
C36 C 0.98374 0.83782 0.12468 0.0
O37 O 0.97529 0.81764 0.11485 0.0
O38 O 0.06801 0.87335 0.12263 0.0
C39 C 0.22035 0.19435 0.85136 0.0
O40 O 0.19889 0.17829 0.84356 0.0
O41 O 0.15915 0.16679 0.87251 0.0
Zn42 Zn 0.19099 0.16666 0.88027 0.0
O43 O 0.19684 0.17907 0.90381 0.0
C44 C 0.1704 0.11504 0.86754 0.0
O45 O 0.16271 0.12445 0.85562 0.0
O46 O 0.22165 0.19203 0.86688 0.0
C47 C 0.20559 0.17086 0.91508 0.0
O48 O 0.21155 0.15304 0.91151 0.0
C49 C 0.15483 0.1847 0.87691 0.0
O50 O 0.17201 0.20384 0.88605 0.0
O51 O 0.18404 0.12996 0.8792 0.0
C52 C 0.81049 0.01556 0.84879 0.0
O53 O 0.8278 0.01561 0.83872 0.0
O54 O 0.84879 0.98825 0.86411 0.0
Zn55 Zn 0.84611 0.01798 0.8734 0.0
O56 O 0.8438 0.01441 0.89819 0.0
C57 C 0.88769 0.07202 0.87434 0.0
O58 O 0.87406 0.07458 0.8862 0.0
O59 O 0.81459 0.01714 0.86426 0.0
C60 C 0.82713 0.01649 0.9068 0.0
O61 O 0.8108 0.02178 0.89942 0.0
C62 C 0.83489 0.96527 0.86941 0.0
O63 O 0.81749 0.96053 0.88091 0.0
O64 O 0.87886 0.0503 0.86712 0.0
C65 C 0.98812 0.75787 0.88135 0.0
O66 O 0.99574 0.76753 0.89625 0.0
O67 O 0.00074 0.82902 0.87698 0.0
Zn68 Zn 0.97015 0.79374 0.88201 0.0
O69 O 0.96625 0.79073 0.9067 0.0
C70 C 0.94071 0.80337 0.85852 0.0
O71 O 0.96188 0.811 0.84976 0.0
O72 O 0.976 0.76592 0.87259 0.0
C73 C 0.96364 0.80789 0.91432 0.0
O74 O 0.96216 0.82569 0.90572 0.0
C75 C 0.01991 0.84067 0.88672 0.0
O76 O 0.02082 0.82882 0.90012 0.0
O77 O 0.93889 0.79314 0.87256 0.0
C78 C 0.87892 0.56912 0.45233 0.0
O79 O 0.87434 0.56686 0.43636 0.0
O80 O 0.83404 0.48747 0.46377 0.0
Zn81 Zn 0.83461 0.51762 0.45243 0.0
O82 O 0.84103 0.51485 0.42825 0.0
C83 C 0.78633 0.50596 0.46791 0.0
O84 O 0.79701 0.50218 0.48098 0.0
O85 O 0.86359 0.55089 0.46187 0.0
C86 C 0.82924 0.49292 0.42112 0.0
O87 O 0.81274 0.47253 0.42967 0.0
C88 C 0.85224 0.48273 0.46122 0.0
O89 O 0.87193 0.49863 0.45192 0.0
O90 O 0.79941 0.51397 0.45463 0.0
C91 C 0.42985 0.32545 0.4581 0.0
O92 O 0.44206 0.33765 0.44456 0.0
O93 O 0.49932 0.34102 0.45861 0.0
Zn94 Zn 0.46531 0.30846 0.45389 0.0
O95 O 0.45939 0.30533 0.42921 0.0
C96 C 0.48666 0.27677 0.45384 0.0
O97 O 0.49855 0.29257 0.44145 0.0
O98 O 0.43635 0.31056 0.46508 0.0
C99 C 0.45133 0.28489 0.4206 0.0
O100 O 0.44471 0.2628 0.42787 0.0
C101 C 0.5137 0.3563 0.4473 0.0
O102 O 0.50562 0.35185 0.43191 0.0
O103 O 0.46974 0.27911 0.46199 0.0
C104 C 0.67335 0.12061 0.46481 0.0
O105 O 0.66118 0.12366 0.45231 0.0
O106 O 0.66052 0.1744 0.47106 0.0
Zn107 Zn 0.6933 0.17422 0.46513 0.0
O108 O 0.69685 0.17731 0.44033 0.0
C109 C 0.74612 0.21601 0.47025 0.0
O110 O 0.75173 0.20394 0.45882 0.0
O111 O 0.68969 0.1405 0.47283 0.0
C112 C 0.70619 0.16705 0.43087 0.0
O113 O 0.71626 0.15397 0.43731 0.0
C114 C 0.64266 0.16807 0.46043 0.0
O115 O 0.6454 0.16066 0.44563 0.0
O116 O 0.72294 0.20589 0.47541 0.0
C117 C 0.8988 0.55112 0.21367 0.0
O118 O 0.88743 0.54852 0.22804 0.0
O119 O 0.82933 0.4979 0.21125 0.0
Zn120 Zn 0.86293 0.49821 0.21448 0.0
O121 O 0.86819 0.49716 0.23902 0.0
C122 C 0.84301 0.45708 0.19126 0.0
O123 O 0.8359 0.47217 0.18407 0.0
O124 O 0.89189 0.53108 0.20482 0.0
C125 C 0.86224 0.47656 0.24694 0.0
O126 O 0.85323 0.45461 0.23885 0.0
C127 C 0.80886 0.4782 0.21654 0.0
O128 O 0.81086 0.46019 0.2245 0.0
O129 O 0.85798 0.46562 0.2037 0.0
C130 C 0.44978 0.34974 0.21987 0.0
O131 O 0.45241 0.34403 0.23513 0.0
O132 O 0.49853 0.32332 0.20853 0.0
Zn133 Zn 0.50015 0.35557 0.21738 0.0
O134 O 0.50052 0.35349 0.24217 0.0
C135 C 0.54428 0.3874 0.1965 0.0
O136 O 0.53105 0.36938 0.18543 0.0
O137 O 0.46846 0.35654 0.20976 0.0
C138 C 0.51254 0.34382 0.24938 0.0
O139 O 0.52582 0.33609 0.2405 0.0
C140 C 0.48156 0.3012 0.21389 0.0
O141 O 0.46417 0.29962 0.22453 0.0
O142 O 0.53401 0.38626 0.21048 0.0
C143 C 0.64452 0.11724 0.19918 0.0
O144 O 0.65079 0.13968 0.19255 0.0
O145 O 0.6594 0.17437 0.21994 0.0
Zn146 Zn 0.63029 0.13872 0.22628 0.0
O147 O 0.63402 0.13427 0.25058 0.0
C148 C 0.59308 0.14506 0.2078 0.0
O149 O 0.61105 0.15188 0.1964 0.0
O150 O 0.6345 0.11194 0.21355 0.0
C151 C 0.62768 0.14559 0.26136 0.0
O152 O 0.61728 0.15925 0.25649 0.0
C153 C 0.65679 0.19416 0.22098 0.0
O154 O 0.63492 0.1915 0.22653 0.0
O155 O 0.59617 0.13692 0.22163 0.0
C156 C 0.55558 0.89458 0.78546 0.0
O157 O 0.55336 0.88493 0.77054 0.0
O158 O 0.49722 0.82308 0.79125 0.0
Zn159 Zn 0.5016 0.85786 0.7855 0.0
O160 O 0.5011 0.85991 0.76077 0.0
C161 C 0.46015 0.84782 0.80776 0.0
O162 O 0.47046 0.83669 0.81636 0.0
O163 O 0.53549 0.88623 0.79448 0.0
C164 C 0.48121 0.84352 0.75282 0.0
O165 O 0.46079 0.82632 0.76108 0.0
C166 C 0.50694 0.81255 0.78234 0.0
O167 O 0.52096 0.82502 0.76939 0.0
O168 O 0.47114 0.85951 0.79447 0.0
C169 C 0.12366 0.64101 0.81557 0.0
O170 O 0.14272 0.64369 0.825 0.0
O171 O 0.18822 0.6733 0.79913 0.0
Zn172 Zn 0.15723 0.64166 0.78998 0.0
O173 O 0.15754 0.64625 0.76531 0.0
C174 C 0.15468 0.59227 0.78538 0.0
O175 O 0.14223 0.59124 0.77178 0.0
O176 O 0.12514 0.63868 0.80005 0.0
C177 C 0.13865 0.64468 0.75717 0.0
O178 O 0.11717 0.63919 0.76496 0.0
C179 C 0.19417 0.69588 0.79441 0.0
O180 O 0.1792 0.69859 0.78373 0.0
O181 O 0.16166 0.61127 0.79521 0.0
C182 C 0.36213 0.446 0.78558 0.0
O183 O 0.3608 0.45037 0.76982 0.0
O184 O 0.33439 0.4955 0.79724 0.0
Zn185 Zn 0.36598 0.49568 0.7885 0.0
O186 O 0.36289 0.49612 0.76382 0.0
C187 C 0.39732 0.54287 0.80659 0.0
O188 O 0.37685 0.5333 0.81625 0.0
O189 O 0.36568 0.46337 0.79608 0.0
C190 C 0.3594 0.51345 0.75736 0.0
O191 O 0.35912 0.53112 0.76692 0.0
C192 C 0.31256 0.47969 0.79094 0.0
O193 O 0.3112 0.46267 0.78006 0.0
O194 O 0.39783 0.52911 0.79475 0.0
C195 C 0.55186 0.86068 0.52172 0.0
O196 O 0.53097 0.84497 0.51331 0.0
O197 O 0.49096 0.81693 0.53901 0.0
Zn198 Zn 0.52536 0.82241 0.54668 0.0
O199 O 0.52614 0.82625 0.57137 0.0
C200 C 0.51565 0.77886 0.52721 0.0
O201 O 0.50891 0.79097 0.51659 0.0
O202 O 0.55433 0.85462 0.53636 0.0
C203 C 0.50674 0.80928 0.57944 0.0
O204 O 0.48791 0.78976 0.57141 0.0
C205 C 0.48059 0.82932 0.54481 0.0
O206 O 0.49328 0.84771 0.55576 0.0
O207 O 0.52565 0.78983 0.54089 0.0
C208 C 0.1283 0.69425 0.52109 0.0
O209 O 0.14661 0.69377 0.51234 0.0
O210 O 0.15077 0.65384 0.54143 0.0
Zn211 Zn 0.15623 0.68867 0.54813 0.0
O212 O 0.15194 0.68867 0.57281 0.0
C213 C 0.20551 0.71024 0.5316 0.0
O214 O 0.19308 0.68851 0.52321 0.0
O215 O 0.12927 0.6937 0.53676 0.0
C216 C 0.16978 0.68975 0.58188 0.0
O217 O 0.19048 0.69163 0.57482 0.0
C218 C 0.13924 0.6335 0.55018 0.0
O219 O 0.12908 0.63428 0.56445 0.0
O220 O 0.19318 0.71554 0.54229 0.0
C221 C 0.29641 0.44157 0.52655 0.0
O222 O 0.30129 0.46203 0.51782 0.0
O223 O 0.32014 0.50388 0.54269 0.0
Zn224 Zn 0.29005 0.47133 0.55179 0.0
O225 O 0.29501 0.47191 0.57638 0.0
C226 C 0.2552 0.48205 0.53382 0.0
O227 O 0.27323 0.48913 0.52244 0.0
O228 O 0.29002 0.44053 0.54165 0.0
C229 C 0.29732 0.49131 0.58436 0.0
O230 O 0.29554 0.50942 0.57633 0.0
C231 C 0.34298 0.51218 0.54799 0.0
O232 O 0.34698 0.49884 0.55928 0.0
O233 O 0.25752 0.47242 0.54724 0.0
H234 H 0.43643 0.3578 0.18894 0.0
H235 H 0.3928 0.34411 0.17887 0.0
H236 H 0.36181 0.31667 0.22761 0.0
H237 H 0.40518 0.33029 0.2378 0.0
H238 H 0.33835 0.27958 0.2035 0.0
H239 H 0.36069 0.36753 0.21266 0.0
H240 H 0.38746 0.41498 0.21032 0.0
H241 H 0.37852 0.40939 0.15755 0.0
H242 H 0.352 0.36184 0.15955 0.0
H243 H 0.20947 0.23443 0.18053 0.0
H244 H 0.25032 0.2609 0.19515 0.0
H245 H 0.28796 0.29599 0.14904 0.0
H246 H 0.24719 0.27006 0.13439 0.0
H247 H 0.30691 0.33092 0.17383 0.0
H248 H 0.29006 0.24444 0.16381 0.0
H249 H 0.26474 0.19676 0.16492 0.0
H250 H 0.26531 0.19955 0.218 0.0
H251 H 0.29034 0.24731 0.21719 0.0
C252 C 0.42039 0.34928 0.19758 0.0
C253 C 0.42425 0.34492 0.21413 0.0
C254 C 0.3955 0.34157 0.19182 0.0
C255 C 0.37411 0.32939 0.20252 0.0
C256 C 0.37807 0.32602 0.21918 0.0
C257 C 0.40291 0.33385 0.22496 0.0
C258 C 0.34744 0.31779 0.196 0.0
C259 C 0.33127 0.29089 0.19732 0.0
C260 C 0.33858 0.33248 0.18751 0.0
C261 C 0.35454 0.36108 0.18625 0.0
C262 C 0.36462 0.37639 0.20054 0.0
C263 C 0.37971 0.40331 0.19928 0.0
C264 C 0.38474 0.41519 0.18379 0.0
C265 C 0.37463 0.40016 0.16953 0.0
C266 C 0.35954 0.37322 0.17073 0.0
C267 C 0.22632 0.24811 0.17354 0.0
C268 C 0.22517 0.24984 0.15626 0.0
C269 C 0.24966 0.26318 0.18191 0.0
C270 C 0.27227 0.28005 0.17312 0.0
C271 C 0.27078 0.28304 0.15605 0.0
C272 C 0.24745 0.26808 0.14768 0.0
C273 C 0.29786 0.29275 0.18138 0.0
C274 C 0.31387 0.31973 0.18027 0.0
C275 C 0.3068 0.27814 0.18992 0.0
C276 C 0.29178 0.24943 0.19044 0.0
C277 C 0.28459 0.23489 0.17572 0.0
C278 C 0.27033 0.20785 0.17629 0.0
C279 C 0.26335 0.19513 0.19152 0.0
C280 C 0.27068 0.20943 0.20621 0.0
C281 C 0.28491 0.23648 0.2057 0.0
H282 H 0.25232 0.1742 0.19194 0.0
H283 H 0.39641 0.43604 0.18284 0.0
H284 H 0.75096 0.02637 0.10741 0.0
H285 H 0.72405 0.04024 0.12165 0.0
H286 H 0.72513 0.00051 0.16575 0.0
H287 H 0.7524 0.9865 0.15156 0.0
H288 H 0.67494 0.99741 0.15771 0.0
H289 H 0.7653 0.05889 0.16609 0.0
H290 H 0.81054 0.08691 0.15713 0.0
H291 H 0.78738 0.12959 0.12591 0.0
H292 H 0.7419 0.10152 0.13449 0.0
H293 H 0.64333 0.07401 0.21159 0.0
H294 H 0.66024 0.04859 0.19849 0.0
H295 H 0.67858 0.09543 0.15455 0.0
H296 H 0.66222 0.12116 0.16764 0.0
H297 H 0.71911 0.09282 0.16449 0.0
H298 H 0.62889 0.0317 0.15564 0.0
H299 H 0.58328 0.00322 0.16371 0.0
H300 H 0.60529 0.95986 0.19518 0.0
H301 H 0.65111 0.98833 0.18747 0.0
C302 C 0.74522 0.0202 0.12006 0.0
C303 C 0.75413 0.00561 0.12843 0.0
C304 C 0.72978 0.02812 0.12816 0.0
C305 C 0.72287 0.02159 0.14477 0.0
C306 C 0.73031 0.0057 0.15291 0.0
C307 C 0.74595 0.99783 0.14481 0.0
C308 C 0.71016 0.03366 0.15387 0.0
C309 C 0.68462 0.01822 0.15946 0.0
C310 C 0.72278 0.06082 0.15586 0.0
C311 C 0.75016 0.07795 0.15082 0.0
C312 C 0.76982 0.07411 0.15721 0.0
C313 C 0.79551 0.09003 0.15222 0.0
C314 C 0.80182 0.10998 0.14092 0.0
C315 C 0.78246 0.11411 0.13464 0.0
C316 C 0.75672 0.09821 0.13958 0.0
C317 C 0.65061 0.07864 0.19905 0.0
C318 C 0.65164 0.09974 0.1907 0.0
C319 C 0.66019 0.06403 0.19155 0.0
C320 C 0.67067 0.0701 0.17553 0.0
C321 C 0.67071 0.09048 0.16696 0.0
C322 C 0.66131 0.10516 0.17445 0.0
C323 C 0.68349 0.05671 0.16809 0.0
C324 C 0.70927 0.07198 0.16286 0.0
C325 C 0.67099 0.02943 0.16644 0.0
C326 C 0.64347 0.01233 0.17112 0.0
C327 C 0.62404 0.01625 0.1644 0.0
C328 C 0.59814 7e-05 0.16889 0.0
C329 C 0.5914 0.97979 0.17999 0.0
C330 C 0.61054 0.9756 0.1866 0.0
C331 C 0.63648 0.99174 0.18217 0.0
H332 H 0.57134 0.96728 0.18344 0.0
H333 H 0.82173 0.12228 0.13707 0.0
H334 H 0.9175 0.59687 0.2301 0.0
H335 H 0.94408 0.64038 0.21901 0.0
H336 H 0.94881 0.60846 0.17212 0.0
H337 H 0.92217 0.56456 0.18316 0.0
H338 H 0.99588 0.65348 0.18177 0.0
H339 H 0.9056 0.62525 0.17551 0.0
H340 H 0.86043 0.60688 0.18489 0.0
H341 H 0.88421 0.66881 0.21998 0.0
H342 H 0.92961 0.68734 0.21096 0.0
H343 H 0.02339 0.7642 0.13265 0.0
H344 H 0.00787 0.72148 0.14478 0.0
H345 H 0.99328 0.74829 0.19094 0.0
H346 H 0.0083 0.79088 0.17884 0.0
H347 H 0.95192 0.70509 0.1811 0.0
H348 H 0.04238 0.73431 0.18675 0.0
H349 H 0.08751 0.7525 0.17735 0.0
H350 H 0.06383 0.68929 0.1433 0.0
H351 H 0.01846 0.67089 0.15234 0.0
C352 C 0.92441 0.59901 0.21748 0.0
C353 C 0.91742 0.57725 0.20743 0.0
C354 C 0.93963 0.62391 0.21118 0.0
C355 C 0.94806 0.62756 0.1947 0.0
C356 C 0.94241 0.60597 0.18487 0.0
C357 C 0.92712 0.58095 0.19118 0.0
C358 C 0.96088 0.65384 0.18748 0.0
C359 C 0.98625 0.66473 0.18142 0.0
C360 C 0.94835 0.66854 0.1873 0.0
C361 C 0.92104 0.65754 0.19267 0.0
C362 C 0.90123 0.63484 0.18532 0.0
C363 C 0.87558 0.62441 0.19055 0.0
C364 C 0.86946 0.63664 0.20306 0.0
C365 C 0.88898 0.65935 0.21031 0.0
C366 C 0.91467 0.66983 0.20514 0.0
C367 C 0.01725 0.76113 0.14547 0.0
C368 C 0.01686 0.78086 0.15475 0.0
C369 C 0.0085 0.73672 0.1524 0.0
C370 C 0.99948 0.73172 0.16878 0.0
C371 C 9e-05 0.75172 0.17826 0.0
C372 C 0.00871 0.77606 0.17133 0.0
C373 C 0.98723 0.70514 0.17559 0.0
C374 C 0.96175 0.69402 0.18149 0.0
C375 C -0.00029 0.69034 0.17557 0.0
C376 C 0.02697 0.70136 0.17011 0.0
C377 C 0.04675 0.7244 0.17715 0.0
C378 C 0.07239 0.73473 0.17191 0.0
C379 C 0.07852 0.7221 0.15971 0.0
C380 C 0.05904 0.69907 0.15274 0.0
C381 C 0.03337 0.68867 0.15793 0.0
H382 H 0.09838 0.73012 0.15567 0.0
H383 H 0.84959 0.62854 0.20709 0.0
H384 H 0.34437 0.40247 0.7667 0.0
H385 H 0.32666 0.35807 0.77633 0.0
H386 H 0.34682 0.38546 0.82649 0.0
H387 H 0.36442 0.43013 0.817 0.0
H388 H 0.35432 0.34164 0.81688 0.0
H389 H 0.29051 0.36891 0.81691 0.0
H390 H 0.26637 0.38776 0.80414 0.0
H391 H 0.23768 0.32875 0.76667 0.0
H392 H 0.26205 0.30981 0.77908 0.0
H393 H 0.26313 0.23546 0.86501 0.0
H394 H 0.29332 0.27619 0.85165 0.0
H395 H 0.25504 0.24608 0.80491 0.0
H396 H 0.22423 0.20541 0.81832 0.0
H397 H 0.25877 0.29052 0.81081 0.0
H398 H 0.31831 0.25985 0.81234 0.0
H399 H 0.34287 0.24106 0.82456 0.0
H400 H 0.37982 0.30518 0.85824 0.0
H401 H 0.35521 0.32419 0.84639 0.0
C402 C 0.34554 0.39919 0.77975 0.0
C403 C 0.3555 0.41982 0.79112 0.0
C404 C 0.33543 0.37378 0.78521 0.0
C405 C 0.33529 0.36857 0.80211 0.0
C406 C 0.34683 0.38919 0.81338 0.0
C407 C 0.35674 0.41465 0.80795 0.0
C408 C 0.32039 0.34163 0.80813 0.0
C409 C 0.33342 0.33041 0.8157 0.0
C410 C 0.29323 0.32695 0.80617 0.0
C411 C 0.27835 0.33814 0.7988 0.0
C412 C 0.27925 0.3601 0.80586 0.0
C413 C 0.2655 0.37078 0.79871 0.0
C414 C 0.25057 0.35951 0.78457 0.0
C415 C 0.2493 0.33749 0.7776 0.0
C416 C 0.26308 0.32678 0.78468 0.0
C417 C 0.2614 0.23728 0.85182 0.0
C418 C 0.24111 0.21726 0.84275 0.0
C419 C 0.27882 0.26058 0.84416 0.0
C420 C 0.27656 0.26421 0.82724 0.0
C421 C 0.25712 0.24375 0.81799 0.0
C422 C 0.23955 0.22049 0.82567 0.0
C423 C 0.29258 0.29015 0.81967 0.0
C424 C 0.27971 0.30139 0.81184 0.0
C425 C 0.31988 0.3047 0.82136 0.0
C426 C 0.33474 0.29334 0.82855 0.0
C427 C 0.33151 0.26985 0.82244 0.0
C428 C 0.34548 0.25917 0.82929 0.0
C429 C 0.36286 0.27189 0.84219 0.0
C430 C 0.36634 0.29534 0.84825 0.0
C431 C 0.35241 0.30609 0.84146 0.0
H432 H 0.37365 0.2636 0.84747 0.0
H433 H 0.23992 0.3678 0.77906 0.0
H434 H 0.7934 0.00654 0.81681 0.0
H435 H 0.74999 0.99361 0.80694 0.0
H436 H 0.7272 0.00099 0.85641 0.0
H437 H 0.77048 0.01357 0.86645 0.0
H438 H 0.69405 0.95527 0.84349 0.0
H439 H 0.73256 0.04295 0.82584 0.0
H440 H 0.76483 0.08326 0.81215 0.0
H441 H 0.74639 0.04422 0.76523 0.0
H442 H 0.71426 0.00356 0.77867 0.0
H443 H 0.56756 0.91736 0.81609 0.0
H444 H 0.61076 0.94535 0.82759 0.0
H445 H 0.64512 0.94189 0.78136 0.0
H446 H 0.60213 0.91435 0.76969 0.0
H447 H 0.67132 0.98993 0.79475 0.0
H448 H 0.63807 0.90166 0.81291 0.0
H449 H 0.60638 0.86075 0.82631 0.0
H450 H 0.61584 0.90102 0.87215 0.0
H451 H 0.64736 0.94225 0.85894 0.0
C452 C 0.77929 0.00581 0.82556 0.0
C453 C 0.78533 0.01088 0.84244 0.0
C454 C 0.75451 0.99855 0.81987 0.0
C455 C 0.73539 0.99647 0.83093 0.0
C456 C 0.74167 0.00248 0.84768 0.0
C457 C 0.76642 0.00968 0.85338 0.0
C458 C 0.70831 0.98567 0.82528 0.0
C459 C 0.689 0.96323 0.83307 0.0
C460 C 0.70182 0.9957 0.81146 0.0
C461 C 0.72111 0.02014 0.8033 0.0
C462 C 0.73551 0.0429 0.81262 0.0
C463 C 0.75376 0.06583 0.8049 0.0
C464 C 0.75769 0.06629 0.78783 0.0
C465 C 0.74334 0.04383 0.77845 0.0
C466 C 0.72507 0.02084 0.78611 0.0
C467 C 0.5843 0.92281 0.80831 0.0
C468 C 0.58143 0.91339 0.79204 0.0
C469 C 0.60897 0.93877 0.81491 0.0
C470 C 0.63113 0.94539 0.80539 0.0
C471 C 0.62827 0.937 0.78892 0.0
C472 C 0.60366 0.92113 0.7823 0.0
C473 C 0.65729 0.95946 0.81285 0.0
C474 C 0.67638 0.98236 0.80537 0.0
C475 C 0.66367 0.94984 0.82693 0.0
C476 C 0.64482 0.92506 0.83489 0.0
C477 C 0.63324 0.90181 0.82581 0.0
C478 C 0.61533 0.87857 0.83338 0.0
C479 C 0.60903 0.8783 0.85006 0.0
C480 C 0.62069 0.90127 0.85922 0.0
C481 C 0.63858 0.92457 0.85171 0.0
H482 H 0.59517 0.86028 0.8559 0.0
H483 H 0.77183 0.08406 0.78188 0.0
H484 H 0.08278 0.63903 0.79915 0.0
H485 H 0.05194 0.65092 0.80989 0.0
H486 H 0.08636 0.66303 0.85828 0.0
H487 H 0.1171 0.65087 0.84772 0.0
H488 H 0.03323 0.64128 0.85988 0.0
H489 H 0.1062 0.71302 0.83261 0.0
H490 H 0.13579 0.73447 0.80914 0.0
H491 H 0.07176 0.72321 0.77917 0.0
H492 H 0.04172 0.70134 0.80241 0.0
H493 H 0.0145 0.73775 0.89682 0.0
H494 H 0.02952 0.71013 0.88493 0.0
H495 H 0.99282 0.70807 0.83866 0.0
H496 H 0.97799 0.73613 0.85042 0.0
H497 H 0.04165 0.72028 0.83397 0.0
H498 H 0.96933 0.6539 0.86292 0.0
H499 H 0.94019 0.63287 0.88662 0.0
H500 H 0.00249 0.63418 0.91369 0.0
H501 H 0.03212 0.65556 0.89024 0.0
C502 C 0.08353 0.64378 0.81215 0.0
C503 C 0.10265 0.64437 0.82254 0.0
C504 C 0.06589 0.65059 0.81826 0.0
C505 C 0.06717 0.65826 0.83481 0.0
C506 C 0.08511 0.65723 0.84546 0.0
C507 C 0.10273 0.65038 0.83937 0.0
C508 C 0.0516 0.66967 0.84066 0.0
C509 C 0.03508 0.6586 0.85429 0.0
C510 C 0.05363 0.69193 0.83309 0.0
C511 C 0.07169 0.70529 0.81917 0.0
C512 C 0.09841 0.71495 0.82097 0.0
C513 C 0.11526 0.7272 0.80772 0.0
C514 C 0.10565 0.73013 0.79266 0.0
C515 C 0.07917 0.72088 0.79084 0.0
C516 C 0.06223 0.70856 0.80404 0.0
C517 C 0.00934 0.7312 0.88417 0.0
C518 C 0.99516 0.73926 0.87454 0.0
C519 C 0.0178 0.71523 0.87742 0.0
C520 C 0.01208 0.70681 0.86095 0.0
C521 C 0.99738 0.71429 0.85141 0.0
C522 C 0.98891 0.7303 0.85816 0.0
C523 C 0.02337 0.6921 0.85337 0.0
C524 C 0.03928 0.70265 0.83942 0.0
C525 C 0.02076 0.66943 0.86069 0.0
C526 C 0.003 0.65651 0.87484 0.0
C527 C 0.97688 0.64989 0.87397 0.0
C528 C 0.96026 0.63787 0.88736 0.0
C529 C 0.9695 0.63224 0.90166 0.0
C530 C 0.99536 0.63857 0.9026 0.0
C531 C 0.01207 0.6506 0.88925 0.0
H532 H 0.9566 0.62293 0.91202 0.0
H533 H 0.11872 0.73962 0.78241 0.0
H534 H 0.92123 0.60337 0.43451 0.0
H535 H 0.96454 0.63324 0.44507 0.0
H536 H 0.93643 0.61292 0.49508 0.0
H537 H 0.89299 0.58261 0.48464 0.0
H538 H 0.97559 0.66858 0.48902 0.0
H539 H 0.95971 0.58124 0.4811 0.0
H540 H 0.94594 0.54151 0.46477 0.0
H541 H 0.00447 0.5851 0.4285 0.0
H542 H 0.01829 0.6252 0.44449 0.0
H543 H 0.08397 0.68738 0.5357 0.0
H544 H 0.0429 0.67499 0.52227 0.0
H545 H 0.07808 0.68161 0.4745 0.0
H546 H 0.11919 0.69346 0.4879 0.0
H547 H 0.03615 0.63659 0.47724 0.0
H548 H 0.05643 0.72321 0.48689 0.0
H549 H 0.0701 0.76333 0.50272 0.0
H550 H 0.00454 0.72298 0.53498 0.0
H551 H 0.99065 0.68249 0.51948 0.0
C552 C 0.92407 0.60562 0.44777 0.0
C553 C 0.90375 0.59037 0.45875 0.0
C554 C 0.94883 0.62274 0.45376 0.0
C555 C 0.95362 0.6251 0.47082 0.0
C556 C 0.93303 0.61137 0.48186 0.0
C557 C 0.90829 0.59397 0.47587 0.0
C558 C 0.98053 0.63921 0.47701 0.0
C559 C 0.98889 0.66162 0.48657 0.0
C560 C 0.99791 0.63035 0.47341 0.0
C561 C 0.98981 0.60624 0.46388 0.0
C562 C 0.96948 0.58238 0.46956 0.0
C563 C 0.96169 0.5598 0.46039 0.0
C564 C 0.97427 0.56079 0.44558 0.0
C565 C 0.99471 0.58437 0.43995 0.0
C566 C 0.00253 0.60703 0.44906 0.0
C567 C 0.08315 0.68671 0.52232 0.0
C568 C 0.10481 0.69115 0.51288 0.0
C569 C 0.05963 0.67976 0.51464 0.0
C570 C 0.05738 0.67744 0.49735 0.0
C571 C 0.07935 0.68322 0.48786 0.0
C572 C 0.10285 0.69004 0.49554 0.0
C573 C 0.03156 0.66619 0.48941 0.0
C574 C 0.02321 0.64403 0.47954 0.0
C575 C 0.01434 0.67544 0.4927 0.0
C576 C 0.02261 0.69974 0.50209 0.0
C577 C 0.04503 0.72282 0.49744 0.0
C578 C 0.0528 0.74565 0.50634 0.0
C579 C 0.03823 0.74569 0.51987 0.0
C580 C 0.01582 0.72291 0.5245 0.0
C581 C 0.00797 0.70002 0.51565 0.0
H582 H 0.04428 0.76339 0.52674 0.0
H583 H 0.96822 0.54328 0.43849 0.0
H584 H 0.29248 0.39888 0.54186 0.0
H585 H 0.30656 0.3697 0.53101 0.0
H586 H 0.3266 0.4107 0.48459 0.0
H587 H 0.31222 0.43958 0.49519 0.0
H588 H 0.30587 0.35927 0.47973 0.0
H589 H 0.37183 0.42598 0.51471 0.0
H590 H 0.38846 0.4502 0.54082 0.0
H591 H 0.37113 0.38006 0.56588 0.0
H592 H 0.35409 0.35538 0.53994 0.0
H593 H 0.4113 0.35502 0.44541 0.0
H594 H 0.38038 0.36513 0.45794 0.0
H595 H 0.37171 0.3165 0.49961 0.0
H596 H 0.40311 0.30649 0.48718 0.0
H597 H 0.38018 0.36297 0.50939 0.0
H598 H 0.32207 0.29806 0.4722 0.0
H599 H 0.30693 0.27517 0.44556 0.0
H600 H 0.31031 0.34235 0.42407 0.0
H601 H 0.32584 0.3658 0.45051 0.0
C602 C 0.29949 0.40141 0.52925 0.0
C603 C 0.30155 0.42177 0.51945 0.0
C604 C 0.30757 0.38476 0.52309 0.0
C605 C 0.318 0.3883 0.50709 0.0
C606 C 0.31865 0.40764 0.49698 0.0
C607 C 0.31053 0.42423 0.5031 0.0
C608 C 0.33028 0.3735 0.50123 0.0
C609 C 0.32212 0.36005 0.48618 0.0
C610 C 0.35104 0.37397 0.5099 0.0
C611 C 0.3614 0.38881 0.52546 0.0
C612 C 0.3714 0.41571 0.52582 0.0
C613 C 0.38092 0.42952 0.54058 0.0
C614 C 0.38077 0.41666 0.55501 0.0
C615 C 0.37118 0.38998 0.5547 0.0
C616 C 0.36159 0.37607 0.53998 0.0
C617 C 0.40268 0.34624 0.45717 0.0
C618 C 0.40974 0.33001 0.46533 0.0
C619 C 0.38482 0.35189 0.46426 0.0
C620 C 0.37346 0.34129 0.47961 0.0
C621 C 0.38015 0.32476 0.4877 0.0
C622 C 0.39807 0.31906 0.48059 0.0
C623 C 0.35623 0.34926 0.48763 0.0
C624 C 0.3635 0.36154 0.50309 0.0
C625 C 0.33476 0.34781 0.47928 0.0
C626 C 0.32526 0.33373 0.46335 0.0
C627 C 0.31975 0.30802 0.46177 0.0
C628 C 0.31107 0.29493 0.44671 0.0
C629 C 0.30769 0.30731 0.43313 0.0
C630 C 0.31293 0.33279 0.4346 0.0
C631 C 0.32163 0.34597 0.44964 0.0
H632 H 0.30097 0.29715 0.42148 0.0
H633 H 0.38815 0.42738 0.56643 0.0
H634 H 0.68905 0.10593 0.49257 0.0
H635 H 0.6737 0.0616 0.50205 0.0
H636 H 0.62716 0.03166 0.45805 0.0
H637 H 0.64209 0.07558 0.44861 0.0
H638 H 0.59921 0.0109 0.48565 0.0
H639 H 0.68101 0.02721 0.46348 0.0
H640 H 0.72855 0.05097 0.46063 0.0
H641 H 0.73631 0.03843 0.51203 0.0
H642 H 0.68879 0.01488 0.51524 0.0
H643 H 0.55256 0.87889 0.49076 0.0
H644 H 0.57894 0.92328 0.48097 0.0
H645 H 0.61918 0.94553 0.52764 0.0
H646 H 0.59302 0.90095 0.53753 0.0
H647 H 0.6517 0.97092 0.50056 0.0
H648 H 0.57063 0.95499 0.52291 0.0
H649 H 0.52316 0.93117 0.52617 0.0
H650 H 0.5143 0.94391 0.47498 0.0
H651 H 0.56175 0.96746 0.47135 0.0
C652 C 0.67581 0.08988 0.48484 0.0
C653 C 0.66658 0.09424 0.46993 0.0
C654 C 0.66714 0.06459 0.49024 0.0
C655 C 0.64928 0.04337 0.48074 0.0
C656 C 0.64085 0.04777 0.46559 0.0
C657 C 0.64942 0.07292 0.46022 0.0
C658 C 0.63772 0.01656 0.48703 0.0
C659 C 0.6107 0.00208 0.4887 0.0
C660 C 0.65279 0.0054 0.49155 0.0
C661 C 0.68135 0.01953 0.48964 0.0
C662 C 0.69286 0.02972 0.47421 0.0
C663 C 0.7198 0.04311 0.47252 0.0
C664 C 0.73544 0.04628 0.48615 0.0
C665 C 0.72417 0.036 0.50149 0.0
C666 C 0.69723 0.02261 0.50325 0.0
C667 C 0.56729 0.89308 0.49887 0.0
C668 C 0.57042 0.8865 0.51502 0.0
C669 C 0.58235 0.91845 0.49325 0.0
C670 C 0.60065 0.93772 0.5037 0.0
C671 C 0.60507 0.93091 0.51942 0.0
C672 C 0.59004 0.90546 0.52506 0.0
C673 C 0.61324 0.96522 0.49873 0.0
C674 C 0.64032 0.97983 0.49747 0.0
C675 C 0.59829 0.97668 0.49464 0.0
C676 C 0.56974 0.96278 0.49682 0.0
C677 C 0.55856 0.95255 0.51232 0.0
C678 C 0.53165 0.93912 0.51424 0.0
C679 C 0.51571 0.93598 0.50078 0.0
C680 C 0.52666 0.94633 0.48539 0.0
C681 C 0.55356 0.95974 0.4834 0.0
H682 H 0.49489 0.92556 0.50229 0.0
H683 H 0.7563 0.05664 0.48482 0.0
H684 H 0.08896 0.18971 0.08467 0.0
H685 H 0.04234 0.17106 0.08833 0.0
H686 H 0.05057 0.16487 0.14081 0.0
H687 H 0.09733 0.18361 0.13728 0.0
H688 H 0.01428 0.11884 0.12643 0.0
H689 H 0.03376 0.20675 0.12741 0.0
H690 H 0.05342 0.25172 0.1175 0.0
H691 H 0.0103 0.22495 0.0723 0.0
H692 H 0.99064 0.17978 0.08183 0.0
H693 H 0.88058 0.06026 0.13822 0.0
H694 H 0.92591 0.09404 0.14136 0.0
H695 H 0.9299 0.11157 0.08935 0.0
H696 H 0.88436 0.07842 0.08623 0.0
H697 H 0.96019 0.15471 0.10682 0.0
H698 H 0.94384 0.06746 0.10417 0.0
H699 H 0.92318 0.02212 0.11335 0.0
H700 H 0.96192 0.04671 0.16014 0.0
H701 H 0.9818 0.09238 0.15156 0.0
C702 C 0.08094 0.18481 0.09704 0.0
C703 C 0.09682 0.18801 0.11068 0.0
C704 C 0.0543 0.17426 0.09911 0.0
C705 C 0.04304 0.16666 0.11485 0.0
C706 C 0.05893 0.17067 0.12858 0.0
C707 C 0.08564 0.18145 0.12653 0.0
C708 C 0.01449 0.15239 0.11665 0.0
C709 C 0.00244 0.12687 0.12251 0.0
C710 C 0.99913 0.16268 0.11107 0.0
C711 C 0.01086 0.18984 0.1053 0.0
C712 C 0.02862 0.21043 0.1153 0.0
C713 C 0.03973 0.23596 0.10976 0.0
C714 C 0.03315 0.24118 0.09427 0.0
C715 C 0.01539 0.22088 0.08429 0.0
C716 C 0.00423 0.1953 0.08977 0.0
C717 C 0.89097 0.07169 0.12753 0.0
C718 C 0.87908 0.06641 0.11191 0.0
C719 C 0.91686 0.09098 0.12935 0.0
C720 C 0.93143 0.10488 0.11551 0.0
C721 C 0.91905 0.10099 0.10018 0.0
C722 C 0.89304 0.08196 0.0984 0.0
C723 C 0.96001 0.12114 0.11653 0.0
C724 C 0.97205 0.14688 0.11106 0.0
C725 C 0.97543 0.11095 0.12229 0.0
C726 C 0.96404 0.08342 0.1273 0.0
C727 C 0.94776 0.06326 0.11649 0.0
C728 C 0.93612 0.03748 0.12161 0.0
C729 C 0.94125 0.03152 0.13731 0.0
C730 C 0.95792 0.05136 0.14798 0.0
C731 C 0.96926 0.07722 0.14304 0.0
H732 H 0.93243 0.01153 0.14118 0.0
H733 H 0.04178 0.26097 0.09 0.0
H734 H 0.8847 0.98179 0.15189 0.0
H735 H 0.9073 0.95736 0.15277 0.0
H736 H 0.84688 0.89678 0.12346 0.0
H737 H 0.8241 0.92115 0.12246 0.0
H738 H 0.86318 0.87734 0.14854 0.0
H739 H 0.90133 0.93993 0.10506 0.0
H740 H 0.92322 0.98267 0.09155 0.0
H741 H 0.98747 0.00858 0.12481 0.0
H742 H 0.96583 0.96606 0.13865 0.0
H743 H 0.93309 0.81906 0.11606 0.0
H744 H 0.90696 0.83932 0.12107 0.0
H745 H 0.97004 0.90074 0.14834 0.0
H746 H 0.99636 0.88078 0.14326 0.0
H747 H 0.95221 0.91954 0.12547 0.0
H748 H 0.91472 0.85538 0.16791 0.0
H749 H 0.89385 0.81137 0.1796 0.0
H750 H 0.8287 0.78761 0.14741 0.0
H751 H 0.84934 0.83141 0.13535 0.0
C752 C 0.87601 0.96313 0.14579 0.0
C753 C 0.85266 0.95351 0.137 0.0
C754 C 0.88903 0.94924 0.14625 0.0
C755 C 0.87895 0.92544 0.13798 0.0
C756 C 0.85503 0.91516 0.12988 0.0
C757 C 0.84205 0.92913 0.12931 0.0
C758 C 0.89387 0.9118 0.13724 0.0
C759 C 0.88257 0.88645 0.14336 0.0
C760 C 0.91934 0.9239 0.13078 0.0
C761 C 0.93182 0.94989 0.123 0.0
C762 C 0.91997 0.95484 0.10963 0.0
C763 C 0.93241 0.97897 0.10185 0.0
C764 C 0.95678 0.99827 0.10726 0.0
C765 C 0.96865 0.99357 0.12058 0.0
C766 C 0.9563 0.96946 0.1284 0.0
C767 C 0.94127 0.83667 0.12333 0.0
C768 C 0.96684 0.84835 0.12921 0.0
C769 C 0.92626 0.84817 0.12625 0.0
C770 C 0.93649 0.87146 0.13517 0.0
C771 C 0.96175 0.88275 0.14144 0.0
C772 C 0.97675 0.87128 0.13854 0.0
C773 C 0.92165 0.88511 0.13687 0.0
C774 C 0.93294 0.91048 0.13083 0.0
C775 C 0.8962 0.87298 0.14336 0.0
C776 C 0.88369 0.84663 0.15062 0.0
C777 C 0.89603 0.84072 0.16322 0.0
C778 C 0.88423 0.81582 0.16994 0.0
C779 C 0.85999 0.79669 0.16422 0.0
C780 C 0.84748 0.80245 0.15181 0.0
C781 C 0.85921 0.82731 0.14505 0.0
H782 H 0.85089 0.77742 0.16944 0.0
H783 H 0.9664 0.01692 0.10119 0.0
H784 H 0.16662 0.13262 0.14387 0.0
H785 H 0.15749 0.08871 0.15002 0.0
H786 H 0.13189 0.06566 0.09979 0.0
H787 H 0.14037 0.1091 0.09368 0.0
H788 H 0.09841 0.03138 0.12059 0.0
H789 H 0.19136 0.07652 0.11399 0.0
H790 H 0.23624 0.11057 0.12006 0.0
H791 H 0.22701 0.08508 0.17049 0.0
H792 H 0.18194 0.05106 0.16476 0.0
H793 H 0.09833 0.91656 0.10972 0.0
H794 H 0.11918 0.96361 0.10901 0.0
H795 H 0.11333 0.96565 0.16206 0.0
H796 H 0.09194 0.91832 0.16295 0.0
H797 H 0.16286 0.01033 0.14295 0.0
H798 H 0.06917 0.96659 0.14961 0.0
H799 H 0.02476 0.93187 0.14311 0.0
H800 H 0.03628 0.9549 0.09212 0.0
H801 H 0.08092 0.9896 0.09831 0.0
C802 C 0.15915 0.1182 0.13414 0.0
C803 C 0.15413 0.12431 0.1183 0.0
C804 C 0.15405 0.09315 0.13765 0.0
C805 C 0.14416 0.07394 0.12533 0.0
C806 C 0.13943 0.08015 0.1095 0.0
C807 C 0.14433 0.10503 0.10602 0.0
C808 C 0.13778 0.04705 0.12891 0.0
C809 C 0.11262 0.02689 0.12539 0.0
C810 C 0.15608 0.04111 0.13556 0.0
C811 C 0.1832 0.06144 0.13899 0.0
C812 C 0.19884 0.07831 0.1264 0.0
C813 C 0.22432 0.09758 0.12978 0.0
C814 C 0.23444 0.10004 0.14567 0.0
C815 C 0.21913 0.08318 0.1582 0.0
C816 C 0.19363 0.06389 0.15489 0.0
C817 C 0.10214 0.92696 0.12132 0.0
C818 C 0.09304 0.91366 0.13638 0.0
C819 C 0.11411 0.95387 0.12087 0.0
C820 C 0.1175 0.96792 0.13547 0.0
C821 C 0.11086 0.95502 0.15069 0.0
C822 C 0.09857 0.928 0.15115 0.0
C823 C 0.12381 0.99509 0.13437 0.0
C824 C 0.14876 0.0151 0.13833 0.0
C825 C 0.10538 0.00104 0.12814 0.0
C826 C 0.07844 0.98049 0.12439 0.0
C827 C 0.06229 0.9641 0.13699 0.0
C828 C 0.03707 0.94445 0.13337 0.0
C829 C 0.02772 0.94111 0.1172 0.0
C830 C 0.04356 0.95749 0.10464 0.0
C831 C 0.06881 0.97717 0.1082 0.0
H832 H 0.00819 0.92587 0.11443 0.0
H833 H 0.25417 0.11498 0.14826 0.0
H834 H 0.05934 0.87334 0.90721 0.0
H835 H 0.08932 0.91967 0.90344 0.0
H836 H 0.05458 0.91671 0.85622 0.0
H837 H 0.02458 0.87036 0.85983 0.0
H838 H 0.10805 0.94696 0.85542 0.0
H839 H 0.03709 0.9362 0.889 0.0
H840 H 0.00717 0.92033 0.91276 0.0
H841 H 0.07094 0.96239 0.94599 0.0
H842 H 0.10134 0.9778 0.92246 0.0
H843 H 0.14114 0.07809 0.84466 0.0
H844 H 0.1206 0.0312 0.84754 0.0
H845 H 0.15635 0.04107 0.89531 0.0
H846 H 0.17684 0.08809 0.8926 0.0
H847 H 0.10503 0.00716 0.89652 0.0
H848 H 0.17593 0.01946 0.86257 0.0
H849 H 0.20544 0.03536 0.83858 0.0
H850 H 0.14145 0.99144 0.80584 0.0
H851 H 0.11149 0.97555 0.82962 0.0
C852 C 0.05827 0.88245 0.89592 0.0
C853 C 0.03952 0.86817 0.88384 0.0
C854 C 0.07537 0.90895 0.89382 0.0
C855 C 0.07403 0.92163 0.8796 0.0
C856 C 0.05597 0.90726 0.86726 0.0
C857 C 0.03878 0.88079 0.86938 0.0
C858 C 0.09055 0.95009 0.87795 0.0
C859 C 0.10728 0.96017 0.86432 0.0
C860 C 0.08985 0.96724 0.88977 0.0
C861 C 0.07155 0.95787 0.90396 0.0
C862 C 0.04478 0.94179 0.90139 0.0
C863 C 0.02772 0.93286 0.91482 0.0
C864 C 0.03715 0.94022 0.9309 0.0
C865 C 0.06365 0.95657 0.93355 0.0
C866 C 0.08082 0.96535 0.92017 0.0
C867 C 0.14496 0.07034 0.85569 0.0
C868 C 0.16056 0.08685 0.86843 0.0
C869 C 0.13327 0.0435 0.85729 0.0
C870 C 0.13703 0.03262 0.87161 0.0
C871 C 0.15319 0.04906 0.88415 0.0
C872 C 0.16496 0.07593 0.88255 0.0
C873 C 0.12261 0.00413 0.87397 0.0
C874 C 0.1061 0.99401 0.88771 0.0
C875 C 0.12346 0.98698 0.86222 0.0
C876 C 0.14143 0.99649 0.84788 0.0
C877 C 0.16811 0.01336 0.85025 0.0
C878 C 0.18493 0.02234 0.83669 0.0
C879 C 0.17532 0.01446 0.8207 0.0
C880 C 0.14887 0.99754 0.81824 0.0
C881 C 0.13196 0.98852 0.83175 0.0
H882 H 0.18837 0.02143 0.81021 0.0
H883 H 0.02392 0.93332 0.94129 0.0
H884 H 0.11717 0.1504 0.85612 0.0
H885 H 0.07337 0.14296 0.85291 0.0
H886 H 0.09106 0.20585 0.88655 0.0
H887 H 0.13504 0.21345 0.88985 0.0
H888 H 0.04783 0.16097 0.89552 0.0
H889 H 0.07925 0.21189 0.84686 0.0
H890 H 0.10253 0.22632 0.82031 0.0
H891 H 0.05151 0.1518 0.79894 0.0
H892 H 0.02815 0.13677 0.82544 0.0
H893 H 0.91492 0.11985 0.88903 0.0
H894 H 0.96143 0.15057 0.88662 0.0
H895 H 0.96803 0.10104 0.85042 0.0
H896 H 0.92173 0.07081 0.85236 0.0
H897 H 0.00064 0.14998 0.84302 0.0
H898 H 0.97747 0.09656 0.89244 0.0
H899 H 0.95484 0.07964 0.91901 0.0
H900 H 0.99123 0.15684 0.93874 0.0
H901 H 0.01384 0.17422 0.91219 0.0
C902 C 0.11191 0.16295 0.86262 0.0
C903 C 0.12951 0.18239 0.87333 0.0
C904 C 0.08691 0.15879 0.86069 0.0
C905 C 0.07903 0.17397 0.86941 0.0
C906 C 0.09682 0.194 0.87966 0.0
C907 C 0.12194 0.19831 0.88151 0.0
C908 C 0.05146 0.1669 0.86917 0.0
C909 C 0.03762 0.15926 0.88409 0.0
C910 C 0.0381 0.1642 0.85421 0.0
C911 C 0.05201 0.17317 0.83819 0.0
C912 C 0.07309 0.19851 0.83654 0.0
C913 C 0.08629 0.20681 0.82149 0.0
C914 C 0.07853 0.18998 0.80795 0.0
C915 C 0.0575 0.16482 0.80944 0.0
C916 C 0.04424 0.15642 0.82447 0.0
C917 C 0.9262 0.11579 0.88031 0.0
C918 C 0.9147 0.09266 0.87111 0.0
C919 C 0.95279 0.13333 0.87898 0.0
C920 C 0.96831 0.12783 0.86859 0.0
C921 C 0.9565 0.10568 0.85855 0.0
C922 C 0.92998 0.0883 0.85976 0.0
C923 C 0.99699 0.14335 0.86931 0.0
C924 C 0.011 0.15247 0.85449 0.0
C925 C 0.01055 0.14713 0.88434 0.0
C926 C 0.99705 0.1367 0.90029 0.0
C927 C 0.98049 0.10992 0.90242 0.0
C928 C 0.96769 0.10026 0.91747 0.0
C929 C 0.97152 0.11717 0.93054 0.0
C930 C 0.98823 0.14378 0.92859 0.0
C931 C 0.00104 0.15354 0.91355 0.0
H932 H 0.9616 0.10965 0.94218 0.0
H933 H 0.08878 0.19644 0.79631 0.0
H934 H 0.94425 0.83436 0.83271 0.0
H935 H 0.92003 0.85692 0.82945 0.0
H936 H 0.87179 0.81524 0.87103 0.0
H937 H 0.89589 0.79253 0.87443 0.0
H938 H 0.84533 0.82628 0.8453 0.0
H939 H 0.92231 0.86882 0.87945 0.0
H940 H 0.96874 0.88598 0.88488 0.0
H941 H 0.98865 0.93799 0.84381 0.0
H942 H 0.94229 0.92084 0.83798 0.0
H943 H 0.8136 0.9158 0.88116 0.0
H944 H 0.8263 0.88394 0.87424 0.0
H945 H 0.88081 0.93643 0.83829 0.0
H946 H 0.86856 0.96855 0.84533 0.0
H947 H 0.90345 0.91928 0.85841 0.0
H948 H 0.82588 0.88038 0.82643 0.0
H949 H 0.77941 0.86254 0.82089 0.0
H950 H 0.76018 0.80379 0.85755 0.0
H951 H 0.80654 0.8215 0.86349 0.0
C952 C 0.92802 0.82941 0.84088 0.0
C953 C 0.92232 0.81203 0.85404 0.0
C954 C 0.91421 0.84233 0.83898 0.0
C955 C 0.89445 0.83801 0.85017 0.0
C956 C 0.88704 0.81885 0.8623 0.0
C957 C 0.90092 0.80599 0.86427 0.0
C958 C 0.88436 0.85604 0.85083 0.0
C959 C 0.85791 0.8466 0.84823 0.0
C960 C 0.90097 0.88258 0.85443 0.0
C961 C 0.92885 0.89335 0.85816 0.0
C962 C 0.93659 0.8838 0.87151 0.0
C963 C 0.96289 0.89353 0.87467 0.0
C964 C 0.98163 0.91299 0.86466 0.0
C965 C 0.97411 0.92287 0.85153 0.0
C966 C 0.94783 0.91317 0.8483 0.0
C967 C 0.82801 0.92042 0.8716 0.0
C968 C 0.84022 0.94479 0.86389 0.0
C969 C 0.83516 0.90212 0.8676 0.0
C970 C 0.85443 0.90775 0.85569 0.0
C971 C 0.86592 0.93169 0.84754 0.0
C972 C 0.85887 0.95002 0.85157 0.0
C973 C 0.86424 0.88969 0.85282 0.0
C974 C 0.89076 0.89909 0.8552 0.0
C975 C 0.84763 0.86316 0.84904 0.0
C976 C 0.81971 0.85242 0.8455 0.0
C977 C 0.81174 0.86379 0.83341 0.0
C978 C 0.78541 0.85367 0.83018 0.0
C979 C 0.76685 0.83208 0.83889 0.0
C980 C 0.77458 0.82053 0.85082 0.0
C981 C 0.80089 0.83058 0.85411 0.0
H982 H 0.74647 0.82427 0.83637 0.0
H983 H 0.00197 0.92044 0.86708 0.0
H984 H 0.75236 0.48747 0.49392 0.0
H985 H 0.70525 0.46753 0.49283 0.0
H986 H 0.70977 0.4839 0.44062 0.0
H987 H 0.75683 0.50437 0.44167 0.0
H988 H 0.67282 0.49007 0.45472 0.0
H989 H 0.69782 0.42506 0.45491 0.0
H990 H 0.71916 0.40202 0.46573 0.0
H991 H 0.67413 0.38398 0.5103 0.0
H992 H 0.65281 0.40729 0.49984 0.0
H993 H 0.55072 0.38988 0.42579 0.0
H994 H 0.59614 0.42061 0.43176 0.0
H995 H 0.58277 0.40031 0.48344 0.0
H996 H 0.53735 0.36923 0.47755 0.0
H997 H 0.62344 0.39805 0.47203 0.0
H998 H 0.59501 0.4598 0.46985 0.0
H999 H 0.57311 0.4815 0.45779 0.0
H1000 H 0.62381 0.50426 0.4157 0.0
H1001 H 0.64579 0.48238 0.4274 0.0
C1002 C 0.74337 0.4872 0.48226 0.0
C1003 C 0.75834 0.49723 0.46784 0.0
C1004 C 0.71642 0.47572 0.48165 0.0
C1005 C 0.70394 0.47376 0.46658 0.0
C1006 C 0.71896 0.4851 0.45238 0.0
C1007 C 0.74589 0.49674 0.453 0.0
C1008 C 0.67529 0.45837 0.46528 0.0
C1009 C 0.66201 0.46991 0.45842 0.0
C1010 C 0.66112 0.43217 0.47037 0.0
C1011 C 0.67398 0.41821 0.47669 0.0
C1012 C 0.69265 0.41639 0.46708 0.0
C1013 C 0.70471 0.40325 0.47314 0.0
C1014 C 0.69808 0.39162 0.48872 0.0
C1015 C 0.67931 0.39306 0.49825 0.0
C1016 C 0.66723 0.40624 0.49227 0.0
C1017 C 0.55732 0.3922 0.43847 0.0
C1018 C 0.54042 0.37701 0.45118 0.0
C1019 C 0.5833 0.40989 0.44187 0.0
C1020 C 0.59283 0.4129 0.45807 0.0
C1021 C 0.57582 0.39832 0.47086 0.0
C1022 C 0.54985 0.3806 0.46747 0.0
C1023 C 0.62091 0.42968 0.46142 0.0
C1024 C 0.63414 0.41833 0.46858 0.0
C1025 C 0.63498 0.45593 0.45647 0.0
C1026 C 0.62193 0.46928 0.44946 0.0
C1027 C 0.60138 0.46928 0.45797 0.0
C1028 C 0.58897 0.48164 0.45121 0.0
C1029 C 0.59703 0.49421 0.43598 0.0
C1030 C 0.61757 0.4945 0.42749 0.0
C1031 C 0.63004 0.48216 0.4342 0.0
H1032 H 0.58739 0.50375 0.43076 0.0
H1033 H 0.70742 0.38144 0.49338 0.0
H1034 H 0.48849 0.25891 0.48461 0.0
H1035 H 0.50699 0.23158 0.49171 0.0
H1036 H 0.51889 0.2235 0.4399 0.0
H1037 H 0.50124 0.25126 0.43282 0.0
H1038 H 0.50009 0.17623 0.46037 0.0
H1039 H 0.56624 0.26871 0.45767 0.0
H1040 H 0.58484 0.31417 0.46652 0.0
H1041 H 0.58744 0.29249 0.51674 0.0
H1042 H 0.56848 0.2468 0.50819 0.0
H1043 H 0.60509 0.16251 0.43905 0.0
H1044 H 0.57081 0.17225 0.44404 0.0
H1045 H 0.59434 0.19 0.49506 0.0
H1046 H 0.62948 0.18105 0.48998 0.0
H1047 H 0.58928 0.22682 0.48272 0.0
H1048 H 0.53447 0.1362 0.48394 0.0
H1049 H 0.51622 0.09074 0.47529 0.0
H1050 H 0.49112 0.1069 0.42949 0.0
H1051 H 0.50954 0.15256 0.43773 0.0
C1052 C 0.49457 0.25081 0.47478 0.0
C1053 C 0.4937 0.25726 0.4582 0.0
C1054 C 0.5051 0.23526 0.47883 0.0
C1055 C 0.51425 0.2256 0.4663 0.0
C1056 C 0.51178 0.23069 0.44971 0.0
C1057 C 0.50187 0.24665 0.4457 0.0
C1058 C 0.52924 0.21286 0.47024 0.0
C1059 C 0.51954 0.18709 0.46535 0.0
C1060 C 0.55424 0.22693 0.47723 0.0
C1061 C 0.56562 0.25434 0.48234 0.0
C1062 C 0.57054 0.27361 0.47063 0.0
C1063 C 0.58119 0.29942 0.47558 0.0
C1064 C 0.58723 0.3062 0.4922 0.0
C1065 C 0.58268 0.28719 0.50389 0.0
C1066 C 0.57198 0.26135 0.49899 0.0
C1067 C 0.60281 0.16812 0.45141 0.0
C1068 C 0.62013 0.17117 0.4641 0.0
C1069 C 0.58297 0.17347 0.4543 0.0
C1070 C 0.57969 0.18151 0.47 0.0
C1071 C 0.59643 0.18373 0.48286 0.0
C1072 C 0.61649 0.17861 0.47994 0.0
C1073 C 0.56058 0.19019 0.47232 0.0
C1074 C 0.56953 0.21536 0.47831 0.0
C1075 C 0.53479 0.1754 0.4665 0.0
C1076 C 0.52349 0.14788 0.46146 0.0
C1077 C 0.5252 0.13012 0.47198 0.0
C1078 C 0.5148 0.10429 0.46715 0.0
C1079 C 0.50253 0.09594 0.45185 0.0
C1080 C 0.5006 0.11339 0.44135 0.0
C1081 C 0.51098 0.13924 0.44611 0.0
H1082 H 0.49451 0.07594 0.44813 0.0
H1083 H 0.59551 0.3262 0.496 0.0
H1084 H 0.81512 0.44663 0.48158 0.0
H1085 H 0.80701 0.40314 0.48742 0.0
H1086 H 0.87442 0.41873 0.45889 0.0
H1087 H 0.88269 0.46233 0.45295 0.0
H1088 H 0.831 0.37519 0.44875 0.0
H1089 H 0.87413 0.40969 0.49991 0.0
H1090 H 0.88391 0.43418 0.52604 0.0
H1091 H 0.80647 0.38312 0.54322 0.0
H1092 H 0.79608 0.35853 0.51709 0.0
H1093 H 0.79643 0.24544 0.45983 0.0
H1094 H 0.82427 0.29232 0.46276 0.0
H1095 H 0.76603 0.29508 0.49288 0.0
H1096 H 0.73847 0.2483 0.49041 0.0
H1097 H 0.81318 0.33092 0.50303 0.0
H1098 H 0.76764 0.30309 0.45087 0.0
H1099 H 0.75524 0.27898 0.42451 0.0
H1100 H 0.83485 0.31832 0.40911 0.0
H1101 H 0.84775 0.34241 0.43551 0.0
C1102 C 0.82852 0.441 0.4768 0.0
C1103 C 0.84944 0.45787 0.4667 0.0
C1104 C 0.82394 0.41617 0.48023 0.0
C1105 C 0.84019 0.40775 0.47365 0.0
C1106 C 0.8617 0.42489 0.46412 0.0
C1107 C 0.86639 0.44981 0.46076 0.0
C1108 C 0.83296 0.38021 0.4752 0.0
C1109 C 0.82779 0.36564 0.46063 0.0
C1110 C 0.82811 0.36767 0.49069 0.0
C1111 C 0.83428 0.38234 0.50648 0.0
C1112 C 0.85912 0.40379 0.5092 0.0
C1113 C 0.86478 0.41767 0.52403 0.0
C1114 C 0.84581 0.41024 0.53627 0.0
C1115 C 0.82115 0.38886 0.53373 0.0
C1116 C 0.81537 0.37491 0.51892 0.0
C1117 C 0.78981 0.25593 0.46741 0.0
C1118 C 0.76502 0.24319 0.47463 0.0
C1119 C 0.80572 0.28275 0.46903 0.0
C1120 C 0.79696 0.29727 0.47771 0.0
C1121 C 0.77315 0.2843 0.48605 0.0
C1122 C 0.75734 0.25752 0.48455 0.0
C1123 C 0.81089 0.32593 0.47658 0.0
C1124 C 0.81712 0.34065 0.49118 0.0
C1125 C 0.81642 0.33867 0.46111 0.0
C1126 C 0.80869 0.32428 0.44523 0.0
C1127 C 0.78251 0.30644 0.44191 0.0
C1128 C 0.77539 0.29281 0.42696 0.0
C1129 C 0.79426 0.29705 0.41516 0.0
C1130 C 0.82027 0.315 0.41828 0.0
C1131 C 0.8275 0.32865 0.43322 0.0
H1132 H 0.78871 0.28648 0.40359 0.0
H1133 H 0.85024 0.42102 0.54774 0.0
H1134 H 0.65341 0.23697 0.21431 0.0
H1135 H 0.68818 0.27962 0.20564 0.0
H1136 H 0.74256 0.25236 0.20713 0.0
H1137 H 0.70773 0.20938 0.21561 0.0
H1138 H 0.75757 0.30138 0.22443 0.0
H1139 H 0.72645 0.2601 0.17104 0.0
H1140 H 0.69209 0.23544 0.15058 0.0
H1141 H 0.67127 0.29446 0.15099 0.0
H1142 H 0.70524 0.31925 0.17164 0.0
H1143 H 0.85766 0.42121 0.1968 0.0
H1144 H 0.82925 0.37411 0.1976 0.0
H1145 H 0.76492 0.38268 0.18224 0.0
H1146 H 0.79343 0.4293 0.18038 0.0
H1147 H 0.75728 0.34045 0.17044 0.0
H1148 H 0.77927 0.37835 0.22443 0.0
H1149 H 0.8082 0.40413 0.2472 0.0
H1150 H 0.83997 0.35381 0.24875 0.0
H1151 H 0.81129 0.32782 0.22586 0.0
C1152 C 0.67275 0.24 0.21278 0.0
C1153 C 0.67786 0.21985 0.21566 0.0
C1154 C 0.69254 0.26433 0.20775 0.0
C1155 C 0.71782 0.26899 0.20567 0.0
C1156 C 0.7231 0.24902 0.20864 0.0
C1157 C 0.70321 0.22453 0.21344 0.0
C1158 C 0.7388 0.29504 0.20083 0.0
C1159 C 0.75794 0.3098 0.21249 0.0
C1160 C 0.7385 0.30621 0.18552 0.0
C1161 C 0.71835 0.2915 0.17291 0.0
C1162 C 0.71446 0.26775 0.16682 0.0
C1163 C 0.69506 0.25375 0.15519 0.0
C1164 C 0.6795 0.26337 0.14949 0.0
C1165 C 0.68335 0.28704 0.15539 0.0
C1166 C 0.70271 0.3011 0.16703 0.0
C1167 C 0.83761 0.41288 0.19312 0.0
C1168 C 0.82774 0.42887 0.18857 0.0
C1169 C 0.82132 0.38602 0.19374 0.0
C1170 C 0.79471 0.37483 0.19044 0.0
C1171 C 0.78529 0.39074 0.18486 0.0
C1172 C 0.80168 0.41747 0.18379 0.0
C1173 C 0.77625 0.34709 0.19408 0.0
C1174 C 0.7574 0.332 0.18226 0.0
C1175 C 0.77621 0.33587 0.20952 0.0
C1176 C 0.79338 0.35134 0.22332 0.0
C1177 C 0.79255 0.37288 0.22957 0.0
C1178 C 0.80888 0.38752 0.2425 0.0
C1179 C 0.82601 0.38069 0.24938 0.0
C1180 C 0.82674 0.35912 0.24338 0.0
C1181 C 0.81043 0.34441 0.23044 0.0
H1182 H 0.83867 0.39204 0.25939 0.0
H1183 H 0.66447 0.25249 0.1405 0.0
H1184 H 0.76199 0.43811 0.22598 0.0
H1185 H 0.71925 0.42956 0.21772 0.0
H1186 H 0.7541 0.49995 0.1891 0.0
H1187 H 0.7972 0.50892 0.19756 0.0
H1188 H 0.71244 0.49401 0.20548 0.0
H1189 H 0.73117 0.44313 0.16974 0.0
H1190 H 0.74528 0.41249 0.16134 0.0
H1191 H 0.68237 0.35185 0.18865 0.0
H1192 H 0.66817 0.38224 0.19753 0.0
H1193 H 0.57335 0.39444 0.16866 0.0
H1194 H 0.6206 0.41843 0.16656 0.0
H1195 H 0.6258 0.44399 0.2171 0.0
H1196 H 0.57885 0.42092 0.21909 0.0
H1197 H 0.65076 0.40761 0.18223 0.0
H1198 H 0.68129 0.49699 0.22571 0.0
H1199 H 0.66813 0.52931 0.23122 0.0
H1200 H 0.63422 0.51636 0.1829 0.0
H1201 H 0.64748 0.48425 0.17698 0.0
C1202 C 0.76064 0.4519 0.21801 0.0
C1203 C 0.78301 0.47414 0.21236 0.0
C1204 C 0.73617 0.4469 0.21322 0.0
C1205 C 0.73352 0.46387 0.20255 0.0
C1206 C 0.75575 0.48653 0.19727 0.0
C1207 C 0.78033 0.49161 0.20211 0.0
C1208 C 0.70739 0.45762 0.19696 0.0
C1209 C 0.69894 0.47521 0.20029 0.0
C1210 C 0.69014 0.43347 0.18958 0.0
C1211 C 0.69866 0.41505 0.18436 0.0
C1212 C 0.72045 0.42332 0.17408 0.0
C1213 C 0.72845 0.40599 0.16922 0.0
C1214 C 0.71469 0.38024 0.17443 0.0
C1215 C 0.69298 0.3718 0.18459 0.0
C1216 C 0.68494 0.38908 0.18954 0.0
C1217 C 0.58457 0.40575 0.17917 0.0
C1218 C 0.57232 0.40556 0.19409 0.0
C1219 C 0.61159 0.4194 0.17797 0.0
C1220 C 0.62685 0.43308 0.19165 0.0
C1221 C 0.61457 0.43405 0.20625 0.0
C1222 C 0.58761 0.42064 0.20741 0.0
C1223 C 0.65528 0.44348 0.19154 0.0
C1224 C 0.66425 0.42663 0.18714 0.0
C1225 C 0.67312 0.46856 0.19752 0.0
C1226 C 0.66528 0.48807 0.20094 0.0
C1227 C 0.67117 0.50114 0.21621 0.0
C1228 C 0.66365 0.5194 0.21942 0.0
C1229 C 0.6503 0.52485 0.20743 0.0
C1230 C 0.64449 0.51207 0.19219 0.0
C1231 C 0.65196 0.4938 0.18892 0.0
H1232 H 0.6445 0.53899 0.20994 0.0
H1233 H 0.72082 0.36683 0.17057 0.0
H1234 H 0.45416 0.25288 0.22754 0.0
H1235 H 0.4626 0.21712 0.22429 0.0
H1236 H 0.52281 0.26187 0.18887 0.0
H1237 H 0.51443 0.29763 0.19193 0.0
H1238 H 0.49389 0.20899 0.18072 0.0
H1239 H 0.53901 0.26383 0.22851 0.0
H1240 H 0.53915 0.28476 0.25486 0.0
H1241 H 0.4868 0.21049 0.27598 0.0
H1242 H 0.48629 0.18916 0.24968 0.0
H1243 H 0.59064 0.17639 0.18444 0.0
H1244 H 0.56168 0.19374 0.18381 0.0
H1245 H 0.52012 0.14684 0.22595 0.0
H1246 H 0.55009 0.13025 0.22713 0.0
H1247 H 0.53007 0.19275 0.23141 0.0
H1248 H 0.49244 0.1369 0.18542 0.0
H1249 H 0.4909 0.11563 0.15894 0.0
H1250 H 0.52589 0.18904 0.13419 0.0
H1251 H 0.52799 0.21084 0.16055 0.0
C1252 C 0.46885 0.25494 0.2188 0.0
C1253 C 0.48386 0.27822 0.21014 0.0
C1254 C 0.47365 0.23448 0.21698 0.0
C1255 C 0.49352 0.237 0.20648 0.0
C1256 C 0.50738 0.25955 0.19703 0.0
C1257 C 0.50265 0.28003 0.19887 0.0
C1258 C 0.50191 0.21755 0.2066 0.0
C1259 C 0.50182 0.20534 0.19176 0.0
C1260 C 0.51142 0.21222 0.22115 0.0
C1261 C 0.51243 0.22495 0.23712 0.0
C1262 C 0.52748 0.25199 0.23878 0.0
C1263 C 0.5276 0.26393 0.25369 0.0
C1264 C 0.51284 0.249 0.26708 0.0
C1265 C 0.49814 0.22206 0.2656 0.0
C1266 C 0.49798 0.21003 0.2507 0.0
C1267 C 0.57503 0.1693 0.19339 0.0
C1268 C 0.5727 0.15195 0.20586 0.0
C1269 C 0.55829 0.17915 0.19294 0.0
C1270 C 0.53837 0.17138 0.20469 0.0
C1271 C 0.53529 0.15314 0.21673 0.0
C1272 C 0.55237 0.14359 0.21736 0.0
C1273 C 0.52275 0.1844 0.20534 0.0
C1274 C 0.52155 0.19562 0.22037 0.0
C1275 C 0.51182 0.18855 0.19096 0.0
C1276 C 0.51047 0.17552 0.17501 0.0
C1277 C 0.49995 0.14854 0.17435 0.0
C1278 C 0.49896 0.13638 0.15935 0.0
C1279 C 0.50832 0.15098 0.1449 0.0
C1280 C 0.51864 0.17776 0.1454 0.0
C1281 C 0.51969 0.19002 0.16037 0.0
H1282 H 0.50754 0.14153 0.1333 0.0
H1283 H 0.51285 0.25828 0.2786 0.0
H1284 H 0.22732 0.69753 0.81816 0.0
H1285 H 0.27101 0.73291 0.82393 0.0
H1286 H 0.26159 0.78049 0.78786 0.0
H1287 H 0.21774 0.74507 0.78195 0.0
H1288 H 0.30446 0.77692 0.78227 0.0
H1289 H 0.26762 0.79715 0.82809 0.0
H1290 H 0.24091 0.78846 0.85315 0.0
H1291 H 0.28689 0.76275 0.87846 0.0
H1292 H 0.31366 0.77091 0.85348 0.0
H1293 H 0.43421 0.86971 0.79373 0.0
H1294 H 0.38775 0.85371 0.79542 0.0
H1295 H 0.3794 0.79672 0.83126 0.0
H1296 H 0.42588 0.81303 0.82999 0.0
H1297 H 0.34449 0.81224 0.83692 0.0
H1298 H 0.37419 0.78272 0.79046 0.0
H1299 H 0.40106 0.78924 0.76573 0.0
H1300 H 0.36773 0.82965 0.7419 0.0
H1301 H 0.34093 0.82369 0.76661 0.0
C1302 C 0.23434 0.71566 0.81164 0.0
C1303 C 0.21915 0.71841 0.79948 0.0
C1304 C 0.25928 0.73595 0.81505 0.0
C1305 C 0.26949 0.75938 0.80638 0.0
C1306 C 0.25401 0.76258 0.79472 0.0
C1307 C 0.22897 0.74232 0.79137 0.0
C1308 C 0.29724 0.77917 0.80817 0.0
C1309 C 0.31311 0.78521 0.79415 0.0
C1310 C 0.30857 0.78939 0.82375 0.0
C1311 C 0.29257 0.78451 0.83885 0.0
C1312 C 0.27193 0.78946 0.83896 0.0
C1313 C 0.2568 0.78466 0.85316 0.0
C1314 C 0.26218 0.77503 0.86738 0.0
C1315 C 0.28274 0.77022 0.86744 0.0
C1316 C 0.29793 0.77497 0.85326 0.0
C1317 C 0.4226 0.85423 0.80231 0.0
C1318 C 0.43361 0.84226 0.81147 0.0
C1319 C 0.39605 0.84511 0.80325 0.0
C1320 C 0.38006 0.82362 0.81316 0.0
C1321 C 0.39137 0.81324 0.82347 0.0
C1322 C 0.41797 0.82253 0.82267 0.0
C1323 C 0.35157 0.80964 0.81106 0.0
C1324 C 0.33566 0.80451 0.82499 0.0
C1325 C 0.3401 0.7999 0.79543 0.0
C1326 C 0.3558 0.80304 0.78044 0.0
C1327 C 0.3727 0.79312 0.77997 0.0
C1328 C 0.38792 0.79671 0.76597 0.0
C1329 C 0.38617 0.80993 0.75227 0.0
C1330 C 0.36911 0.81947 0.75253 0.0
C1331 C 0.3539 0.81599 0.76653 0.0
H1332 H 0.39799 0.81272 0.74145 0.0
H1333 H 0.25044 0.77133 0.87836 0.0
H1334 H 0.26658 0.45654 0.77432 0.0
H1335 H 0.23284 0.46814 0.77548 0.0
H1336 H 0.27408 0.5229 0.81447 0.0
H1337 H 0.30806 0.51155 0.81336 0.0
H1338 H 0.21864 0.49511 0.81829 0.0
H1339 H 0.285 0.54524 0.77781 0.0
H1340 H 0.31263 0.55003 0.75383 0.0
H1341 H 0.2451 0.50692 0.72364 0.0
H1342 H 0.21703 0.50154 0.74756 0.0
H1343 H 0.18432 0.59169 0.81083 0.0
H1344 H 0.20404 0.56481 0.81341 0.0
H1345 H 0.16544 0.52375 0.76886 0.0
H1346 H 0.146 0.55103 0.76598 0.0
H1347 H 0.21516 0.53924 0.76731 0.0
H1348 H 0.14864 0.49411 0.80725 0.0
H1349 H 0.12132 0.48896 0.83147 0.0
H1350 H 0.18834 0.52205 0.8628 0.0
H1351 H 0.21614 0.52774 0.83872 0.0
C1352 C 0.26825 0.47066 0.78339 0.0
C1353 C 0.29016 0.48337 0.79361 0.0
C1354 C 0.24894 0.47726 0.78402 0.0
C1355 C 0.25116 0.49654 0.79494 0.0
C1356 C 0.27206 0.50795 0.80597 0.0
C1357 C 0.2915 0.50153 0.80526 0.0
C1358 C 0.23336 0.50685 0.79361 0.0
C1359 C 0.21787 0.50487 0.80721 0.0
C1360 C 0.23208 0.51905 0.77899 0.0
C1361 C 0.24892 0.52273 0.76451 0.0
C1362 C 0.27604 0.53662 0.76609 0.0
C1363 C 0.29178 0.53946 0.75251 0.0
C1364 C 0.28063 0.5287 0.73723 0.0
C1365 C 0.25371 0.51519 0.73549 0.0
C1366 C 0.23787 0.51225 0.74905 0.0
C1367 C 0.17966 0.57668 0.80171 0.0
C1368 C 0.16368 0.57361 0.78814 0.0
C1369 C 0.19086 0.56119 0.80325 0.0
C1370 C 0.18609 0.5421 0.79139 0.0
C1371 C 0.16939 0.53835 0.77816 0.0
C1372 C 0.15823 0.55392 0.77656 0.0
C1373 C 0.20033 0.52773 0.79208 0.0
C1374 C 0.21539 0.52908 0.77835 0.0
C1375 C 0.20116 0.51497 0.8066 0.0
C1376 C 0.18451 0.51152 0.82114 0.0
C1377 C 0.15759 0.50047 0.81928 0.0
C1378 C 0.14201 0.49742 0.83299 0.0
C1379 C 0.15309 0.50522 0.84866 0.0
C1380 C 0.17978 0.51603 0.85065 0.0
C1381 C 0.19546 0.51914 0.83698 0.0
H1382 H 0.14099 0.50284 0.85926 0.0
H1383 H 0.29284 0.5309 0.72673 0.0
H1384 H 0.47854 0.78144 0.80801 0.0
H1385 H 0.46697 0.73666 0.81304 0.0
H1386 H 0.51053 0.73841 0.76995 0.0
H1387 H 0.52196 0.78321 0.76468 0.0
H1388 H 0.46354 0.69565 0.77031 0.0
H1389 H 0.53318 0.73869 0.8085 0.0
H1390 H 0.55825 0.76892 0.83095 0.0
H1391 H 0.49454 0.72751 0.86441 0.0
H1392 H 0.46892 0.69723 0.84209 0.0
H1393 H 0.43952 0.56995 0.7865 0.0
H1394 H 0.46564 0.61696 0.78373 0.0
H1395 H 0.42436 0.62629 0.82451 0.0
H1396 H 0.39841 0.57936 0.82755 0.0
H1397 H 0.4754 0.66402 0.82439 0.0
H1398 H 0.4045 0.62427 0.78535 0.0
H1399 H 0.37927 0.5938 0.763 0.0
H1400 H 0.44567 0.62942 0.73102 0.0
H1401 H 0.47145 0.65982 0.7533 0.0
C1402 C 0.48586 0.77241 0.79967 0.0
C1403 C 0.5012 0.78592 0.78595 0.0
C1404 C 0.47932 0.74682 0.80261 0.0
C1405 C 0.48812 0.73427 0.79197 0.0
C1406 C 0.5036 0.74776 0.77834 0.0
C1407 C 0.51017 0.77338 0.77538 0.0
C1408 C 0.48006 0.70668 0.79469 0.0
C1409 C 0.46662 0.68881 0.78201 0.0
C1410 C 0.48367 0.6977 0.81007 0.0
C1411 C 0.49906 0.71579 0.82357 0.0
C1412 C 0.52444 0.73613 0.82061 0.0
C1413 C 0.53876 0.75326 0.83332 0.0
C1414 C 0.52798 0.75017 0.84909 0.0
C1415 C 0.50286 0.72989 0.85219 0.0
C1416 C 0.48844 0.71272 0.83951 0.0
C1417 C 0.43638 0.58198 0.79514 0.0
C1418 C 0.41658 0.57089 0.80709 0.0
C1419 C 0.45128 0.60885 0.79349 0.0
C1420 C 0.44652 0.62506 0.80368 0.0
C1421 C 0.42823 0.61411 0.81645 0.0
C1422 C 0.41337 0.58725 0.81815 0.0
C1423 C 0.45868 0.65308 0.80009 0.0
C1424 C 0.47275 0.67098 0.8126 0.0
C1425 C 0.45563 0.66211 0.78456 0.0
C1426 C 0.44 0.64413 0.77106 0.0
C1427 C 0.41378 0.62549 0.77359 0.0
C1428 C 0.39937 0.60824 0.76093 0.0
C1429 C 0.41088 0.60962 0.74562 0.0
C1430 C 0.4368 0.62833 0.74291 0.0
C1431 C 0.45132 0.64558 0.75554 0.0
H1432 H 0.39971 0.59624 0.73584 0.0
H1433 H 0.53909 0.76345 0.85892 0.0
H1434 H 0.48651 0.74784 0.50179 0.0
H1435 H 0.46196 0.70062 0.50156 0.0
H1436 H 0.49774 0.69911 0.54741 0.0
H1437 H 0.52237 0.74647 0.54786 0.0
H1438 H 0.48749 0.65741 0.52423 0.0
H1439 H 0.44565 0.69951 0.55075 0.0
H1440 H 0.42972 0.73032 0.55188 0.0
H1441 H 0.37957 0.69207 0.51066 0.0
H1442 H 0.39568 0.66137 0.50904 0.0
H1443 H 0.39139 0.54035 0.56129 0.0
H1444 H 0.42497 0.58419 0.55391 0.0
H1445 H 0.37663 0.58523 0.51475 0.0
H1446 H 0.34266 0.54165 0.52238 0.0
H1447 H 0.39417 0.62705 0.53237 0.0
H1448 H 0.43274 0.5825 0.50695 0.0
H1449 H 0.44892 0.55195 0.50517 0.0
H1450 H 0.50454 0.59388 0.54324 0.0
H1451 H 0.48844 0.6245 0.54543 0.0
C1452 C 0.48974 0.73753 0.51162 0.0
C1453 C 0.50602 0.75091 0.52502 0.0
C1454 C 0.47568 0.71054 0.51144 0.0
C1455 C 0.47778 0.69652 0.5246 0.0
C1456 C 0.49585 0.70968 0.53717 0.0
C1457 C 0.50983 0.73674 0.53743 0.0
C1458 C 0.45866 0.66869 0.52643 0.0
C1459 C 0.46709 0.65066 0.52611 0.0
C1460 C 0.43204 0.66005 0.52855 0.0
C1461 C 0.42213 0.67835 0.52963 0.0
C1462 C 0.43143 0.69783 0.54181 0.0
C1463 C 0.42235 0.71526 0.54256 0.0
C1464 C 0.40371 0.71321 0.53131 0.0
C1465 C 0.39407 0.69368 0.51933 0.0
C1466 C 0.40318 0.67627 0.51849 0.0
C1467 C 0.38804 0.54978 0.55097 0.0
C1468 C 0.36432 0.5376 0.54248 0.0
C1469 C 0.40733 0.57481 0.5467 0.0
C1470 C 0.40344 0.58796 0.53368 0.0
C1471 C 0.38006 0.57548 0.52485 0.0
C1472 C 0.36067 0.55057 0.52922 0.0
C1473 C 0.42282 0.6154 0.53012 0.0
C1474 C 0.41447 0.63353 0.53025 0.0
C1475 C 0.44945 0.62403 0.52775 0.0
C1476 C 0.45922 0.60568 0.52645 0.0
C1477 C 0.44829 0.5851 0.51504 0.0
C1478 C 0.45747 0.56779 0.51394 0.0
C1479 C 0.47771 0.57094 0.52411 0.0
C1480 C 0.48885 0.59145 0.53538 0.0
C1481 C 0.47972 0.60881 0.53654 0.0
H1482 H 0.48479 0.55751 0.52324 0.0
H1483 H 0.39668 0.72671 0.53192 0.0
H1484 H 0.23757 0.70188 0.51175 0.0
H1485 H 0.28482 0.72472 0.51218 0.0
H1486 H 0.28557 0.77738 0.54903 0.0
H1487 H 0.23817 0.75448 0.54879 0.0
H1488 H 0.3233 0.80236 0.52514 0.0
H1489 H 0.29347 0.72903 0.56096 0.0
H1490 H 0.27053 0.68347 0.56997 0.0
H1491 H 0.30933 0.66474 0.53237 0.0
H1492 H 0.33233 0.71016 0.52301 0.0
H1493 H 0.45041 0.84782 0.55733 0.0
H1494 H 0.40423 0.83067 0.55251 0.0
H1495 H 0.40315 0.77482 0.51811 0.0
H1496 H 0.44912 0.79152 0.52305 0.0
H1497 H 0.36562 0.75212 0.5401 0.0
H1498 H 0.3972 0.82639 0.50509 0.0
H1499 H 0.42289 0.87275 0.4981 0.0
H1500 H 0.38212 0.8902 0.535 0.0
H1501 H 0.35644 0.84397 0.5424 0.0
C1502 C 0.24774 0.71846 0.51985 0.0
C1503 C 0.23407 0.7262 0.53036 0.0
C1504 C 0.27476 0.73144 0.52011 0.0
C1505 C 0.28867 0.75249 0.53081 0.0
C1506 C 0.27518 0.7611 0.54073 0.0
C1507 C 0.24809 0.74799 0.54057 0.0
C1508 C 0.31722 0.76494 0.53203 0.0
C1509 C 0.33259 0.79146 0.52856 0.0
C1510 C 0.32932 0.75057 0.53618 0.0
C1511 C 0.3144 0.72296 0.54116 0.0
C1512 C 0.29685 0.71514 0.55446 0.0
C1513 C 0.28397 0.68937 0.5597 0.0
C1514 C 0.28857 0.67126 0.5518 0.0
C1515 C 0.30587 0.67881 0.53853 0.0
C1516 C 0.31882 0.70456 0.53324 0.0
C1517 C 0.44043 0.83213 0.54856 0.0
C1518 C 0.45343 0.821 0.54061 0.0
C1519 C 0.41405 0.82242 0.54576 0.0
C1520 C 0.40026 0.80157 0.53486 0.0
C1521 C 0.4134 0.79093 0.52656 0.0
C1522 C 0.43971 0.80056 0.52938 0.0
C1523 C 0.3718 0.7895 0.53305 0.0
C1524 C 0.3564 0.76301 0.5365 0.0
C1525 C 0.35977 0.80392 0.5289 0.0
C1526 C 0.37505 0.83172 0.5244 0.0
C1527 C 0.39385 0.84013 0.51181 0.0
C1528 C 0.40838 0.86638 0.50776 0.0
C1529 C 0.40418 0.88441 0.51613 0.0
C1530 C 0.38537 0.87621 0.52854 0.0
C1531 C 0.3708 0.84998 0.53265 0.0
H1532 H 0.41546 0.90473 0.51298 0.0
H1533 H 0.27862 0.65133 0.5559 0.0
H1534 H 0.21956 0.47728 0.55697 0.0
H1535 H 0.1915 0.49592 0.55586 0.0
H1536 H 0.21701 0.52186 0.50599 0.0
H1537 H 0.24547 0.50363 0.50709 0.0
H1538 H 0.2231 0.56058 0.52503 0.0
H1539 H 0.1541 0.47469 0.51434 0.0
H1540 H 0.12683 0.42769 0.51885 0.0
H1541 H 0.10459 0.44154 0.56663 0.0
H1542 H 0.13201 0.48864 0.56251 0.0
H1543 H 0.15098 0.62222 0.51981 0.0
H1544 H 0.16146 0.58867 0.51317 0.0
H1545 H 0.1427 0.55994 0.56313 0.0
H1546 H 0.13146 0.593 0.56975 0.0
H1547 H 0.13064 0.52072 0.54108 0.0
H1548 H 0.20227 0.60602 0.55268 0.0
H1549 H 0.22877 0.65308 0.54828 0.0
H1550 H 0.24761 0.64019 0.49922 0.0
H1551 H 0.22019 0.59299 0.50304 0.0
C1552 C 0.21881 0.48646 0.54563 0.0
C1553 C 0.23496 0.48921 0.53217 0.0
C1554 C 0.20264 0.49701 0.54499 0.0
C1555 C 0.20211 0.51025 0.53082 0.0
C1556 C 0.21716 0.51177 0.51705 0.0
C1557 C 0.23339 0.50131 0.5177 0.0
C1558 C 0.18824 0.52498 0.53108 0.0
C1559 C 0.20272 0.55172 0.52815 0.0
C1560 C 0.16185 0.51355 0.53564 0.0
C1561 C 0.14528 0.48522 0.53816 0.0
C1562 C 0.14356 0.46773 0.52587 0.0
C1563 C 0.12804 0.44106 0.52834 0.0
C1564 C 0.11403 0.43163 0.54303 0.0
C1565 C 0.11546 0.44887 0.55526 0.0
C1566 C 0.13097 0.47556 0.55285 0.0
C1567 C 0.14852 0.60839 0.52928 0.0
C1568 C 0.14087 0.61052 0.54539 0.0
C1569 C 0.15447 0.58921 0.52545 0.0
C1570 C 0.15342 0.57222 0.53777 0.0
C1571 C 0.14374 0.57294 0.55347 0.0
C1572 C 0.13744 0.59192 0.55725 0.0
C1573 C 0.16554 0.55618 0.53499 0.0
C1574 C 0.15087 0.52937 0.53762 0.0
C1575 C 0.19186 0.56752 0.53023 0.0
C1576 C 0.20885 0.59593 0.52807 0.0
C1577 C 0.2118 0.61319 0.54088 0.0
C1578 C 0.22692 0.63991 0.53847 0.0
C1579 C 0.23984 0.64962 0.52347 0.0
C1580 C 0.23753 0.63263 0.51081 0.0
C1581 C 0.22208 0.60589 0.51306 0.0
H1582 H 0.25182 0.67029 0.52171 0.0
H1583 H 0.10202 0.41098 0.54492 0.0
H1584 H 0.19087 0.25785 0.05963 0.0
H1585 H 0.19818 0.2539 0.03017 0.0
H1586 H 0.21232 0.19159 0.04117 0.0
H1587 H 0.20511 0.19536 0.07049 0.0
H1588 H 0.24642 0.22555 0.01776 0.0
H1589 H 0.1543 0.17759 0.02876 0.0
H1590 H 0.11304 0.17261 0.03878 0.0
H1591 H 0.11988 0.23011 0.00423 0.0
H1592 H 0.16142 0.23572 0.99418 0.0
H1593 H 0.21927 0.15464 0.9429 0.0
H1594 H 0.22125 0.1698 0.97126 0.0
H1595 H 0.19998 0.22484 0.95422 0.0
H1596 H 0.19746 0.20948 0.92591 0.0
H1597 H 0.17187 0.19952 0.98012 0.0
H1598 H 0.26201 0.24447 0.96705 0.0
H1599 H 0.30334 0.24955 0.9571 0.0
H1600 H 0.30079 0.1985 0.99521 0.0
H1601 H 0.25925 0.19282 0.00526 0.0
C1602 C 0.19586 0.24354 0.05578 0.0
C1603 C 0.19719 0.22677 0.06735 0.0
C1604 C 0.19996 0.24128 0.03897 0.0
C1605 C 0.20557 0.22231 0.03352 0.0
C1606 C 0.20803 0.20635 0.04514 0.0
C1607 C 0.20375 0.20846 0.06188 0.0
C1608 C 0.20727 0.21781 0.01568 0.0
C1609 C 0.23013 0.21975 0.0095 0.0
C1610 C 0.18615 0.21078 0.00491 0.0
C1611 C 0.16111 0.2073 0.01086 0.0
C1612 C 0.14711 0.18933 0.0234 0.0
C1613 C 0.12366 0.18637 0.02907 0.0
C1614 C 0.11388 0.20109 0.02218 0.0
C1615 C 0.1275 0.21876 0.00958 0.0
C1616 C 0.151 0.22183 0.00389 0.0
C1617 C 0.2152 0.1701 0.94517 0.0
C1618 C 0.20815 0.18081 0.93215 0.0
C1619 C 0.21647 0.17885 0.96138 0.0
C1620 C 0.21102 0.19865 0.96484 0.0
C1621 C 0.20429 0.20956 0.95183 0.0
C1622 C 0.20289 0.20076 0.93565 0.0
C1623 C 0.21102 0.20703 0.98212 0.0
C1624 C 0.18839 0.20571 0.98824 0.0
C1625 C 0.23238 0.21467 0.99281 0.0
C1626 C 0.25739 0.21805 0.98682 0.0
C1627 C 0.27015 0.23416 0.97323 0.0
C1628 C 0.29364 0.23718 0.96759 0.0
C1629 C 0.30465 0.22431 0.9755 0.0
C1630 C 0.29223 0.20844 0.98909 0.0
C1631 C 0.26872 0.20534 0.99478 0.0
H1632 H 0.32284 0.22667 0.97111 0.0
H1633 H 0.09572 0.19877 0.02659 0.0
H1634 H 0.79355 0.0188 0.92886 0.0
H1635 H 0.79101 0.01123 0.95867 0.0
H1636 H 0.85503 0.99733 0.9555 0.0
H1637 H 0.85751 0.00454 0.92566 0.0
H1638 H 0.81671 0.96161 0.97458 0.0
H1639 H 0.86389 0.05429 0.97028 0.0
H1640 H 0.87172 0.09698 0.96123 0.0
H1641 H 0.80291 0.08391 0.98652 0.0
H1642 H 0.79447 0.04096 0.99554 0.0
H1643 H 0.85289 0.97655 0.05944 0.0
H1644 H 0.85106 0.98003 0.02943 0.0
H1645 H 0.78595 0.99187 0.03468 0.0
H1646 H 0.78773 0.98859 0.06472 0.0
H1647 H 0.82307 0.02767 0.01455 0.0
H1648 H 0.77705 0.93536 0.01981 0.0
H1649 H 0.76996 0.89299 0.02899 0.0
H1650 H 0.83738 0.90567 0.00208 0.0
H1651 H 0.84509 0.9483 0.99292 0.0
C1652 C 0.80713 0.01418 0.93449 0.0
C1653 C 0.82578 0.01236 0.92489 0.0
C1654 C 0.80569 0.00993 0.95155 0.0
C1655 C 0.82298 0.00393 0.95932 0.0
C1656 C 0.84149 0.00192 0.94974 0.0
C1657 C 0.84294 0.00615 0.9327 0.0
C1658 C 0.82177 -0.00029 0.97743 0.0
C1659 C 0.8184 0.97616 0.98334 0.0
C1660 C 0.82336 0.01847 0.98882 0.0
C1661 C 0.8284 0.04429 0.98343 0.0
C1662 C 0.85031 0.06042 0.97379 0.0
C1663 C 0.85488 0.08469 0.96869 0.0
C1664 C 0.83778 0.09312 0.97326 0.0
C1665 C 0.81611 0.07733 0.98297 0.0
C1666 C 0.81143 0.05304 0.98809 0.0
C1667 C 0.83802 0.97965 0.05421 0.0
C1668 C 0.82047 0.98231 0.06447 0.0
C1669 C 0.83694 0.98154 0.03705 0.0
C1670 C 0.81827 0.98607 0.02983 0.0
C1671 C 0.8005 0.98836 0.04002 0.0
C1672 C 0.8015 0.98639 0.05717 0.0
C1673 C 0.81809 0.9896 0.01171 0.0
C1674 C 0.82124 0.01305 0.0058 0.0
C1675 C 0.81638 0.97078 0.00033 0.0
C1676 C 0.81178 0.94514 0.00581 0.0
C1677 C 0.79049 0.92922 0.01596 0.0
C1678 C 0.78634 0.90513 0.02114 0.0
C1679 C 0.80324 0.89668 0.01616 0.0
C1680 C 0.82431 0.91226 0.00595 0.0
C1681 C 0.82857 0.93638 0.00075 0.0
H1682 H 0.79999 0.87802 0.02017 0.0
H1683 H 0.84136 0.11192 0.96931 0.0
H1684 H 0.96551 0.84596 0.93401 0.0
H1685 H 0.97375 0.85162 0.96373 0.0
H1686 H 0.97503 0.78021 0.96557 0.0
H1687 H 0.96668 0.77429 0.93582 0.0
H1688 H 0.94932 0.78658 0.99246 0.0
H1689 H 0.02984 0.83478 0.96314 0.0
H1690 H 0.05906 0.86627 0.94248 0.0
H1691 H 0.05415 0.92707 0.96753 0.0
H1692 H 0.02435 0.89583 0.98808 0.0
H1693 H 0.01539 0.80766 0.06879 0.0
H1694 H 0.00333 0.79949 0.0396 0.0
H1695 H 0.00772 0.87356 0.03609 0.0
H1696 H 0.02018 0.88208 0.06518 0.0
H1697 H 0.03026 0.86539 0.00993 0.0
H1698 H 0.94953 0.81778 0.03891 0.0
H1699 H 0.9191 0.78646 0.05921 0.0
H1700 H 0.92392 0.72507 0.03493 0.0
H1701 H 0.9547 0.75611 0.01462 0.0
C1702 C 0.96719 0.83126 0.94076 0.0
C1703 C 0.96567 0.80978 0.93254 0.0
C1704 C 0.97197 0.83457 0.95773 0.0
C1705 C 0.97534 0.8165 0.96677 0.0
C1706 C 0.97255 0.79439 0.95878 0.0
C1707 C 0.96786 0.7911 0.94178 0.0
C1708 C 0.98325 0.82145 0.98433 0.0
C1709 C 0.96715 0.80364 0.9963 0.0
C1710 C 0.00631 0.84396 0.98928 0.0
C1711 C 0.02463 0.86289 0.97707 0.0
C1712 C 0.0348 0.85483 0.96417 0.0
C1713 C 0.05147 0.87264 0.95246 0.0
C1714 C 0.0584 0.89865 0.95364 0.0
C1715 C 0.04872 0.90691 0.96657 0.0
C1716 C 0.03192 0.88915 0.97825 0.0
C1717 C 0.01385 0.82225 0.0618 0.0
C1718 C 0.01866 0.84549 0.06932 0.0
C1719 C 0.00684 0.81749 0.04514 0.0
C1720 C 0.00432 0.83578 0.03573 0.0
C1721 C 0.00952 0.85916 0.04313 0.0
C1722 C 0.01658 0.86397 0.05978 0.0
C1723 C 0.99626 0.83058 0.01816 0.0
C1724 C 0.0124 0.84833 0.00615 0.0
C1725 C 0.97321 0.80804 0.01318 0.0
C1726 C 0.95463 0.78932 0.02534 0.0
C1727 C 0.94427 0.79764 0.03798 0.0
C1728 C 0.92693 0.77993 0.04947 0.0
C1729 C 0.91963 0.7538 0.04839 0.0
C1730 C 0.92962 0.74532 0.03577 0.0
C1731 C 0.947 0.76296 0.02426 0.0
H1732 H 0.9062 0.74013 0.0573 0.0
H1733 H 0.07133 0.9124 0.94457 0.0
H1734 H 0.88366 0.51892 0.26721 0.0
H1735 H 0.88072 0.51964 0.29732 0.0
H1736 H 0.83884 0.43616 0.29819 0.0
H1737 H 0.84171 0.43524 0.26803 0.0
H1738 H 0.81443 0.45755 0.31568 0.0
H1739 H 0.89901 0.46775 0.31238 0.0
H1740 H 0.94418 0.48721 0.30278 0.0
H1741 H 0.96166 0.56043 0.32352 0.0
H1742 H 0.91648 0.54151 0.33305 0.0
H1743 H 0.81054 0.44841 0.40303 0.0
H1744 H 0.81848 0.44414 0.37387 0.0
H1745 H 0.86668 0.52712 0.37008 0.0
H1746 H 0.85929 0.53153 0.39936 0.0
H1747 H 0.88838 0.50377 0.35422 0.0
H1748 H 0.80428 0.49547 0.35568 0.0
H1749 H 0.75901 0.47745 0.36477 0.0
H1750 H 0.74054 0.40238 0.3469 0.0
H1751 H 0.78581 0.41989 0.33789 0.0
C1752 C 0.8741 0.50069 0.27381 0.0
C1753 C 0.86281 0.477 0.26522 0.0
C1754 C 0.87253 0.50115 0.29102 0.0
C1755 C 0.85964 0.47795 0.29997 0.0
C1756 C 0.84888 0.45427 0.29149 0.0
C1757 C 0.85062 0.45379 0.27426 0.0
C1758 C 0.85595 0.47851 0.31805 0.0
C1759 C 0.83058 0.46722 0.32417 0.0
C1760 C 0.87707 0.49181 0.32899 0.0
C1761 C 0.90428 0.50325 0.3233 0.0
C1762 C 0.91242 0.48806 0.31477 0.0
C1763 C 0.93805 0.49898 0.30937 0.0
C1764 C 0.95577 0.52505 0.3125 0.0
C1765 C 0.94791 0.54024 0.32109 0.0
C1766 C 0.9223 0.52942 0.32651 0.0
C1767 C 0.82284 0.46577 0.39601 0.0
C1768 C 0.83415 0.49033 0.40349 0.0
C1769 C 0.82731 0.46329 0.37932 0.0
C1770 C 0.8429 0.48534 0.36974 0.0
C1771 C 0.85456 0.50985 0.37724 0.0
C1772 C 0.85023 0.51234 0.39396 0.0
C1773 C 0.84683 0.48289 0.35185 0.0
C1774 C 0.87222 0.49389 0.34576 0.0
C1775 C 0.82573 0.46951 0.34088 0.0
C1776 C 0.7985 0.45893 0.34628 0.0
C1777 C 0.79061 0.47507 0.35381 0.0
C1778 C 0.76495 0.46496 0.35893 0.0
C1779 C 0.74693 0.43877 0.35646 0.0
C1780 C 0.75453 0.42265 0.34883 0.0
C1781 C 0.78018 0.43266 0.34371 0.0
H1782 H 0.72707 0.43098 0.36043 0.0
H1783 H 0.9756 0.53347 0.30831 0.0
H1784 H 0.52605 0.31412 0.26767 0.0
H1785 H 0.51733 0.30329 0.29704 0.0
H1786 H 0.48349 0.35195 0.30109 0.0
H1787 H 0.49197 0.36276 0.27175 0.0
H1788 H 0.51704 0.35695 0.32779 0.0
H1789 H 0.44538 0.28967 0.29563 0.0
H1790 H 0.42841 0.25611 0.27389 0.0
H1791 H 0.45967 0.215 0.29925 0.0
H1792 H 0.47732 0.24863 0.32094 0.0
H1793 H 0.44771 0.31994 0.40125 0.0
H1794 H 0.45807 0.32802 0.37186 0.0
H1795 H 0.47288 0.26447 0.36995 0.0
H1796 H 0.46116 0.2555 0.39922 0.0
H1797 H 0.45257 0.2661 0.34225 0.0
H1798 H 0.52243 0.32842 0.37451 0.0
H1799 H 0.54395 0.3616 0.39617 0.0
H1800 H 0.52257 0.41132 0.37124 0.0
H1801 H 0.50048 0.37824 0.34957 0.0
C1802 C 0.51702 0.32274 0.27485 0.0
C1803 C 0.50954 0.33915 0.26739 0.0
C1804 C 0.51202 0.31649 0.2916 0.0
C1805 C 0.4996 0.32669 0.30114 0.0
C1806 C 0.49309 0.34391 0.29389 0.0
C1807 C 0.49786 0.34996 0.27713 0.0
C1808 C 0.49208 0.31847 0.31846 0.0
C1809 C 0.50279 0.33717 0.33099 0.0
C1810 C 0.47428 0.29242 0.32259 0.0
C1811 C 0.46287 0.27178 0.30983 0.0
C1812 C 0.44876 0.27355 0.29652 0.0
C1813 C 0.43904 0.25453 0.28419 0.0
C1814 C 0.44306 0.23349 0.28515 0.0
C1815 C 0.45666 0.23135 0.29849 0.0
C1816 C 0.46652 0.25038 0.3108 0.0
C1817 C 0.45271 0.30742 0.39447 0.0
C1818 C 0.45382 0.28723 0.40248 0.0
C1819 C 0.45883 0.31216 0.37772 0.0
C1820 C 0.46705 0.29737 0.36881 0.0
C1821 C 0.46679 0.27627 0.37659 0.0
C1822 C 0.46005 0.27113 0.39329 0.0
C1823 C 0.47703 0.30476 0.35168 0.0
C1824 C 0.46691 0.2859 0.33916 0.0
C1825 C 0.49597 0.33056 0.3476 0.0
C1826 C 0.5096 0.35074 0.36047 0.0
C1827 C 0.52218 0.34637 0.37369 0.0
C1828 C 0.53448 0.36516 0.38597 0.0
C1829 C 0.53458 0.38853 0.3851 0.0
C1830 C 0.52244 0.39319 0.37191 0.0
C1831 C 0.51004 0.37443 0.35961 0.0
H1832 H 0.54411 0.40306 0.39462 0.0
H1833 H 0.43559 0.21882 0.27557 0.0
H1834 H 0.6882 0.19404 0.41386 0.0
H1835 H 0.67604 0.18952 0.38478 0.0
H1836 H 0.70198 0.13465 0.3779 0.0
H1837 H 0.71457 0.13928 0.40708 0.0
H1838 H 0.71478 0.16827 0.35156 0.0
H1839 H 0.63918 0.11294 0.38374 0.0
H1840 H 0.60834 0.10329 0.40666 0.0
H1841 H 0.58853 0.15778 0.38724 0.0
H1842 H 0.61958 0.16809 0.36434 0.0
H1843 H 0.64912 0.11929 0.27557 0.0
H1844 H 0.6626 0.12151 0.30431 0.0
H1845 H 0.63475 0.17377 0.3157 0.0
H1846 H 0.62078 0.1713 0.28707 0.0
H1847 H 0.62261 0.13917 0.33991 0.0
H1848 H 0.69905 0.19622 0.30878 0.0
H1849 H 0.73115 0.20796 0.2864 0.0
H1850 H 0.74998 0.15179 0.30401 0.0
H1851 H 0.71771 0.13947 0.32638 0.0
C1852 C 0.69164 0.18123 0.40615 0.0
C1853 C 0.7021 0.16679 0.41283 0.0
C1854 C 0.68459 0.17861 0.38953 0.0
C1855 C 0.68762 0.16135 0.37929 0.0
C1856 C 0.69934 0.14795 0.38566 0.0
C1857 C 0.70651 0.15062 0.40232 0.0
C1858 C 0.67742 0.15649 0.36219 0.0
C1859 C 0.69456 0.16152 0.34899 0.0
C1860 C 0.65111 0.14814 0.35889 0.0
C1861 C 0.63187 0.14143 0.37239 0.0
C1862 C 0.62834 0.12296 0.3844 0.0
C1863 C 0.61082 0.11737 0.39739 0.0
C1864 C 0.59653 0.12996 0.39843 0.0
C1865 C 0.59964 0.14807 0.38643 0.0
C1866 C 0.61717 0.15377 0.37343 0.0
C1867 C 0.64567 0.1311 0.28421 0.0
C1868 C 0.63404 0.14527 0.279 0.0
C1869 C 0.65349 0.13243 0.30063 0.0
C1870 C 0.65007 0.14815 0.31209 0.0
C1871 C 0.63766 0.16159 0.30705 0.0
C1872 C 0.62973 0.16019 0.29066 0.0
C1873 C 0.66003 0.15117 0.32921 0.0
C1874 C 0.64281 0.14576 0.34245 0.0
C1875 C 0.68629 0.15928 0.33253 0.0
C1876 C 0.70577 0.16673 0.31914 0.0
C1877 C 0.70989 0.18623 0.3078 0.0
C1878 C 0.72814 0.19301 0.29513 0.0
C1879 C 0.74254 0.18057 0.29375 0.0
C1880 C 0.73877 0.16138 0.30508 0.0
C1881 C 0.72052 0.1545 0.31776 0.0
H1882 H 0.75666 0.18585 0.28394 0.0
H1883 H 0.58303 0.12566 0.40852 0.0
H1884 H 0.46554 0.77931 0.5995 0.0
H1885 H 0.46083 0.78577 0.62887 0.0
H1886 H 0.53771 0.85267 0.62941 0.0
H1887 H 0.54268 0.84631 0.60001 0.0
H1888 H 0.52806 0.82096 0.6564 0.0
H1889 H 0.48686 0.86093 0.62789 0.0
H1890 H 0.45649 0.86244 0.60799 0.0
H1891 H 0.39229 0.80113 0.63406 0.0
H1892 H 0.42233 0.79897 0.65397 0.0
H1893 H 0.52139 0.87458 0.73237 0.0
H1894 H 0.52469 0.86939 0.70267 0.0
H1895 H 0.44699 0.80379 0.70234 0.0
H1896 H 0.44334 0.80904 0.73207 0.0
H1897 H 0.45668 0.83457 0.67521 0.0
H1898 H 0.49714 0.79406 0.70352 0.0
H1899 H 0.52702 0.79181 0.72349 0.0
H1900 H 0.59196 0.85293 0.69782 0.0
H1901 H 0.56242 0.85584 0.67785 0.0
C1902 C 0.48153 0.79533 0.60587 0.0
C1903 C 0.50446 0.81237 0.5974 0.0
C1904 C 0.47874 0.79904 0.62263 0.0
C1905 C 0.4988 0.81988 0.63123 0.0
C1906 C 0.52198 0.83652 0.62295 0.0
C1907 C 0.52476 0.83288 0.60616 0.0
C1908 C 0.49547 0.82448 0.64883 0.0
C1909 C 0.51268 0.82428 0.6605 0.0
C1910 C 0.47499 0.82816 0.65418 0.0
C1911 C 0.45687 0.82962 0.64233 0.0
C1912 C 0.46628 0.84763 0.62931 0.0
C1913 C 0.44913 0.84862 0.61803 0.0
C1914 C 0.42249 0.83184 0.61973 0.0
C1915 C 0.41294 0.81409 0.63274 0.0
C1916 C 0.43002 0.81299 0.64403 0.0
C1917 C 0.50487 0.85921 0.72597 0.0
C1918 C 0.48219 0.84204 0.73461 0.0
C1919 C 0.50684 0.85622 0.70901 0.0
C1920 C 0.48626 0.83593 0.70038 0.0
C1921 C 0.46314 0.8195 0.7088 0.0
C1922 C 0.46112 0.82249 0.72579 0.0
C1923 C 0.48935 0.83118 0.68276 0.0
C1924 C 0.47208 0.83128 0.67111 0.0
C1925 C 0.5097 0.82728 0.67742 0.0
C1926 C 0.52755 0.82534 0.68928 0.0
C1927 C 0.51778 0.80715 0.7022 0.0
C1928 C 0.53465 0.80574 0.71352 0.0
C1929 C 0.56136 0.82226 0.71195 0.0
C1930 C 0.57126 0.84017 0.69903 0.0
C1931 C 0.55446 0.8417 0.68771 0.0
H1932 H 0.5744 0.82114 0.72072 0.0
H1933 H 0.40924 0.83263 0.61099 0.0
H1934 H 0.12685 0.67887 0.60016 0.0
H1935 H 0.12105 0.67212 0.63003 0.0
H1936 H 0.19972 0.68831 0.63455 0.0
H1937 H 0.20549 0.69455 0.60468 0.0
H1938 H 0.16784 0.64613 0.65125 0.0
H1939 H 0.18146 0.73226 0.64698 0.0
H1940 H 0.17338 0.76626 0.6366 0.0
H1941 H 0.09553 0.72446 0.65522 0.0
H1942 H 0.10305 0.69002 0.66553 0.0
H1943 H 0.18144 0.65956 0.7379 0.0
H1944 H 0.18577 0.66781 0.70822 0.0
H1945 H 0.10603 0.64883 0.70582 0.0
H1946 H 0.10163 0.64096 0.73566 0.0
H1947 H 0.13697 0.69161 0.68802 0.0
H1948 H 0.12375 0.60582 0.69265 0.0
H1949 H 0.13216 0.57214 0.70326 0.0
H1950 H 0.2096 0.61364 0.68394 0.0
H1951 H 0.20177 0.64776 0.67342 0.0
C1952 C 0.14298 0.6812 0.60753 0.0
C1953 C 0.16664 0.68723 0.60005 0.0
C1954 C 0.13966 0.67742 0.62461 0.0
C1955 C 0.16002 0.67991 0.63455 0.0
C1956 C 0.18373 0.68625 0.62712 0.0
C1957 C 0.18702 0.68988 0.61004 0.0
C1958 C 0.15637 0.67495 0.6526 0.0
C1959 C 0.16143 0.65635 0.65932 0.0
C1960 C 0.14729 0.68773 0.66305 0.0
C1961 C 0.14274 0.70843 0.65688 0.0
C1962 C 0.16256 0.73021 0.64875 0.0
C1963 C 0.15809 0.74959 0.6429 0.0
C1964 C 0.13393 0.74749 0.64521 0.0
C1965 C 0.11422 0.72604 0.65342 0.0
C1966 C 0.11858 0.7066 0.65928 0.0
C1967 C 0.16478 0.65708 0.73108 0.0
C1968 C 0.14113 0.64946 0.73914 0.0
C1969 C 0.16727 0.66173 0.71409 0.0
C1970 C 0.14612 0.6586 0.70477 0.0
C1971 C 0.12258 0.6513 0.71278 0.0
C1972 C 0.12008 0.64673 0.72982 0.0
C1973 C 0.14868 0.66299 0.68665 0.0
C1974 C 0.14335 0.6814 0.67992 0.0
C1975 C 0.15754 0.65006 0.67617 0.0
C1976 C 0.16223 0.62945 0.68237 0.0
C1977 C 0.14263 0.60785 0.69077 0.0
C1978 C 0.14728 0.58867 0.69675 0.0
C1979 C 0.17142 0.59078 0.69431 0.0
C1980 C 0.19092 0.61204 0.68584 0.0
C1981 C 0.18638 0.63129 0.67985 0.0
H1982 H 0.17499 0.57591 0.69895 0.0
H1983 H 0.13051 0.76251 0.64067 0.0
H1984 H 0.30606 0.45952 0.60416 0.0
H1985 H 0.3163 0.46469 0.63363 0.0
H1986 H 0.31143 0.53424 0.63466 0.0
H1987 H 0.30164 0.52949 0.60509 0.0
H1988 H 0.35275 0.54115 0.65149 0.0
H1989 H 0.26269 0.47774 0.65043 0.0
H1990 H 0.22348 0.43755 0.64182 0.0
H1991 H 0.25506 0.3925 0.6611 0.0
H1992 H 0.29465 0.43246 0.66963 0.0
H1993 H 0.3501 0.54688 0.73973 0.0
H1994 H 0.33894 0.54413 0.71045 0.0
H1995 H 0.34539 0.47578 0.70531 0.0
H1996 H 0.35607 0.47807 0.73462 0.0
H1997 H 0.30191 0.46958 0.69088 0.0
H1998 H 0.39287 0.53444 0.69138 0.0
H1999 H 0.43057 0.57507 0.7011 0.0
H2000 H 0.39566 0.61807 0.68358 0.0
H2001 H 0.35754 0.57761 0.67398 0.0
C2002 C 0.30707 0.47587 0.61066 0.0
C2003 C 0.30291 0.49403 0.6023 0.0
C2004 C 0.31286 0.47877 0.62752 0.0
C2005 C 0.31433 0.49969 0.63639 0.0
C2006 C 0.31037 0.51794 0.62806 0.0
C2007 C 0.30467 0.51512 0.61117 0.0
C2008 C 0.32014 0.50254 0.65435 0.0
C2009 C 0.34142 0.52563 0.66014 0.0
C2010 C 0.30554 0.4822 0.66562 0.0
C2011 C 0.28174 0.45811 0.66053 0.0
C2012 C 0.26137 0.45927 0.65272 0.0
C2013 C 0.23906 0.43653 0.64787 0.0
C2014 C 0.23681 0.41249 0.65087 0.0
C2015 C 0.25685 0.41114 0.65876 0.0
C2016 C 0.27921 0.43383 0.66362 0.0
C2017 C 0.34921 0.5313 0.73236 0.0
C2018 C 0.35396 0.51268 0.73949 0.0
C2019 C 0.34291 0.52981 0.71562 0.0
C2020 C 0.3415 0.50984 0.70569 0.0
C2021 C 0.34634 0.49131 0.71277 0.0
C2022 C 0.35257 0.49274 0.7295 0.0
C2023 C 0.33472 0.50797 0.68794 0.0
C2024 C 0.31321 0.48509 0.68222 0.0
C2025 C 0.34899 0.52856 0.67679 0.0
C2026 C 0.37225 0.55297 0.68209 0.0
C2027 C 0.39318 0.55254 0.68967 0.0
C2028 C 0.41462 0.57554 0.69516 0.0
C2029 C 0.41548 0.59913 0.693 0.0
C2030 C 0.39495 0.59978 0.68526 0.0
C2031 C 0.37343 0.57682 0.67978 0.0
H2032 H 0.43206 0.6169 0.6973 0.0
H2033 H 0.21952 0.3949 0.64711 0.0
loop_
_geom_bond_atom_site_label_1
_geom_bond_atom_site_label_2
_geom_bond_distance
_geom_bond_site_symmetry_2
_ccdc_geom_bond_type
C0 O1 1.160 . S
C0 O7 1.185 . S
O1 C0 1.160 . S
O2 Zn3 1.899 . S
O2 C10 1.284 . S
Zn3 O2 1.899 . S
Zn3 O4 2.032 . S
Zn3 O7 2.086 . S
Zn3 O12 1.977 . S
O4 Zn3 2.032 . S
O4 C8 1.278 . S
C5 O6 1.203 . S
C5 O12 1.267 . S
O6 C5 1.203 . S
O7 C0 1.185 . S
O7 Zn3 2.086 . S
C8 O4 1.278 . S
C8 O9 1.211 . S
O9 C8 1.211 . S
C10 O2 1.284 . S
C10 O11 1.273 . S
O11 C10 1.273 . S
O12 Zn3 1.977 . S
O12 C5 1.267 . S
C13 O14 1.160 . S
C13 O20 1.185 1_545 S
O14 C13 1.160 . S
O15 Zn16 1.888 1_545 S
O15 C23 1.284 . S
Zn16 O15 1.888 1_565 S
Zn16 O17 2.019 1_565 S
Zn16 O20 2.069 . S
Zn16 O25 2.019 . S
O17 Zn16 2.019 1_545 S
O17 C21 1.278 1_545 S
C18 O19 1.203 . S
C18 O25 1.267 . S
O19 C18 1.203 . S
O20 C13 1.185 1_565 S
O20 Zn16 2.069 . S
C21 O17 1.278 1_565 S
C21 O22 1.211 . S
O22 C21 1.211 . S
C23 O15 1.284 . S
C23 O24 1.273 . S
O24 C23 1.273 . S
O25 Zn16 2.019 . S
O25 C18 1.267 . S
C26 O27 1.160 . S
C26 O33 1.185 1_655 S
O27 C26 1.160 . S
O28 Zn29 1.861 1_655 S
O28 C36 1.284 . S
Zn29 O28 1.861 1_455 S
Zn29 O30 2.038 1_455 S
Zn29 O33 2.106 . S
Zn29 O38 2.006 . S
O30 Zn29 2.038 1_655 S
O30 C34 1.278 1_655 S
C31 O32 1.203 . S
C31 O38 1.267 . S
O32 C31 1.203 . S
O33 C26 1.185 1_455 S
O33 Zn29 2.106 . S
C34 O30 1.278 1_455 S
C34 O35 1.211 . S
O35 C34 1.211 . S
C36 O28 1.284 . S
C36 O37 1.273 . S
O37 C36 1.273 . S
O38 Zn29 2.006 . S
O38 C31 1.267 . S
C39 O40 1.160 . S
C39 O46 1.185 . S
O40 C39 1.160 . S
O41 Zn42 1.899 . S
O41 C49 1.284 . S
Zn42 O41 1.899 . S
Zn42 O43 2.032 . S
Zn42 O46 2.086 . S
Zn42 O51 1.977 . S
O43 Zn42 2.032 . S
O43 C47 1.278 . S
C44 O45 1.203 . S
C44 O51 1.267 . S
O45 C44 1.203 . S
O46 C39 1.185 . S
O46 Zn42 2.086 . S
C47 O43 1.278 . S
C47 O48 1.211 . S
O48 C47 1.211 . S
C49 O41 1.284 . S
C49 O50 1.273 . S
O50 C49 1.273 . S
O51 Zn42 1.977 . S
O51 C44 1.267 . S
C52 O53 1.160 . S
C52 O59 1.185 1_565 S
O53 C52 1.160 . S
O54 Zn55 1.861 1_565 S
O54 C62 1.284 . S
Zn55 O54 1.861 1_545 S
Zn55 O56 2.038 1_545 S
Zn55 O59 2.106 . S
Zn55 O64 2.006 . S
O56 Zn55 2.038 1_565 S
O56 C60 1.278 1_565 S
C57 O58 1.203 . S
C57 O64 1.267 . S
O58 C57 1.203 . S
O59 C52 1.185 1_545 S
O59 Zn55 2.106 . S
C60 O56 1.278 1_545 S
C60 O61 1.211 . S
O61 C60 1.211 . S
C62 O54 1.284 . S
C62 O63 1.273 . S
O63 C62 1.273 . S
O64 Zn55 2.006 . S
O64 C57 1.267 . S
C65 O66 1.160 . S
C65 O72 1.185 1_455 S
O66 C65 1.160 . S
O67 Zn68 1.888 1_455 S
O67 C75 1.284 . S
Zn68 O67 1.888 1_655 S
Zn68 O69 2.019 1_655 S
Zn68 O72 2.069 . S
Zn68 O77 2.019 . S
O69 Zn68 2.019 1_455 S
O69 C73 1.278 1_455 S
C70 O71 1.203 . S
C70 O77 1.267 . S
O71 C70 1.203 . S
O72 C65 1.185 1_655 S
O72 Zn68 2.069 . S
C73 O69 1.278 1_655 S
C73 O74 1.211 . S
O74 C73 1.211 . S
C75 O67 1.284 . S
C75 O76 1.273 . S
O76 C75 1.273 . S
O77 Zn68 2.019 . S
O77 C70 1.267 . S
C78 O79 1.160 . S
C78 O85 1.185 . S
O79 C78 1.160 . S
O80 Zn81 1.899 . S
O80 C88 1.284 . S
Zn81 O80 1.899 . S
Zn81 O82 2.032 . S
Zn81 O85 2.086 . S
Zn81 O90 1.977 . S
O82 Zn81 2.032 . S
O82 C86 1.278 . S
C83 O84 1.203 . S
C83 O90 1.267 . S
O84 C83 1.203 . S
O85 C78 1.185 . S
O85 Zn81 2.086 . S
C86 O82 1.278 . S
C86 O87 1.211 . S
O87 C86 1.211 . S
C88 O80 1.284 . S
C88 O89 1.273 . S
O89 C88 1.273 . S
O90 Zn81 1.977 . S
O90 C83 1.267 . S
C91 O92 1.160 . S
C91 O98 1.185 . S
O92 C91 1.160 . S
O93 Zn94 1.899 . S
O93 C101 1.284 . S
Zn94 O93 1.899 . S
Zn94 O95 2.032 . S
Zn94 O98 2.086 . S
Zn94 O103 1.977 . S
O95 Zn94 2.032 . S
O95 C99 1.278 . S
C96 O97 1.203 . S
C96 O103 1.267 . S
O97 C96 1.203 . S
O98 C91 1.185 . S
O98 Zn94 2.086 . S
C99 O95 1.278 . S
C99 O100 1.211 . S
O100 C99 1.211 . S
C101 O93 1.284 . S
C101 O102 1.273 . S
O102 C101 1.273 . S
O103 Zn94 1.977 . S
O103 C96 1.267 . S
C104 O105 1.160 . S
C104 O111 1.185 . S
O105 C104 1.160 . S
O106 Zn107 1.899 . S
O106 C114 1.284 . S
Zn107 O106 1.899 . S
Zn107 O108 2.032 . S
Zn107 O111 2.086 . S
Zn107 O116 1.977 . S
O108 Zn107 2.032 . S
O108 C112 1.278 . S
C109 O110 1.203 . S
C109 O116 1.267 . S
O110 C109 1.203 . S
O111 C104 1.185 . S
O111 Zn107 2.086 . S
C112 O108 1.278 . S
C112 O113 1.211 . S
O113 C112 1.211 . S
C114 O106 1.284 . S
C114 O115 1.273 . S
O115 C114 1.273 . S
O116 Zn107 1.977 . S
O116 C109 1.267 . S
C117 O118 1.160 . S
C117 O124 1.185 . S
O118 C117 1.160 . S
O119 Zn120 1.899 . S
O119 C127 1.284 . S
Zn120 O119 1.899 . S
Zn120 O121 2.032 . S
Zn120 O124 2.086 . S
Zn120 O129 1.977 . S
O121 Zn120 2.032 . S
O121 C125 1.278 . S
C122 O123 1.203 . S
C122 O129 1.267 . S
O123 C122 1.203 . S
O124 C117 1.185 . S
O124 Zn120 2.086 . S
C125 O121 1.278 . S
C125 O126 1.211 . S
O126 C125 1.211 . S
C127 O119 1.284 . S
C127 O128 1.273 . S
O128 C127 1.273 . S
O129 Zn120 1.977 . S
O129 C122 1.267 . S
C130 O131 1.160 . S
C130 O137 1.185 . S
O131 C130 1.160 . S
O132 Zn133 1.899 . S
O132 C140 1.284 . S
Zn133 O132 1.899 . S
Zn133 O134 2.032 . S
Zn133 O137 2.086 . S
Zn133 O142 1.977 . S
O134 Zn133 2.032 . S
O134 C138 1.278 . S
C135 O136 1.203 . S
C135 O142 1.267 . S
O136 C135 1.203 . S
O137 C130 1.185 . S
O137 Zn133 2.086 . S
C138 O134 1.278 . S
C138 O139 1.211 . S
O139 C138 1.211 . S
C140 O132 1.284 . S
C140 O141 1.273 . S
O141 C140 1.273 . S
O142 Zn133 1.977 . S
O142 C135 1.267 . S
C143 O144 1.160 . S
C143 O150 1.185 . S
O144 C143 1.160 . S
O145 Zn146 1.899 . S
O145 C153 1.284 . S
Zn146 O145 1.899 . S
Zn146 O147 2.032 . S
Zn146 O150 2.086 . S
Zn146 O155 1.977 . S
O147 Zn146 2.032 . S
O147 C151 1.278 . S
C148 O149 1.203 . S
C148 O155 1.267 . S
O149 C148 1.203 . S
O150 C143 1.185 . S
O150 Zn146 2.086 . S
C151 O147 1.278 . S
C151 O152 1.211 . S
O152 C151 1.211 . S
C153 O145 1.284 . S
C153 O154 1.273 . S
O154 C153 1.273 . S
O155 Zn146 1.977 . S
O155 C148 1.267 . S
C156 O157 1.160 . S
C156 O163 1.185 . S
O157 C156 1.160 . S
O158 Zn159 1.899 . S
O158 C166 1.284 . S
Zn159 O158 1.899 . S
Zn159 O160 2.032 . S
Zn159 O163 2.086 . S
Zn159 O168 1.977 . S
O160 Zn159 2.032 . S
O160 C164 1.278 . S
C161 O162 1.203 . S
C161 O168 1.267 . S
O162 C161 1.203 . S
O163 C156 1.185 . S
O163 Zn159 2.086 . S
C164 O160 1.278 . S
C164 O165 1.211 . S
O165 C164 1.211 . S
C166 O158 1.284 . S
C166 O167 1.273 . S
O167 C166 1.273 . S
O168 Zn159 1.977 . S
O168 C161 1.267 . S
C169 O170 1.160 . S
C169 O176 1.185 . S
O170 C169 1.160 . S
O171 Zn172 1.899 . S
O171 C179 1.284 . S
Zn172 O171 1.899 . S
Zn172 O173 2.032 . S
Zn172 O176 2.086 . S
Zn172 O181 1.977 . S
O173 Zn172 2.032 . S
O173 C177 1.278 . S
C174 O175 1.203 . S
C174 O181 1.267 . S
O175 C174 1.203 . S
O176 C169 1.185 . S
O176 Zn172 2.086 . S
C177 O173 1.278 . S
C177 O178 1.211 . S
O178 C177 1.211 . S
C179 O171 1.284 . S
C179 O180 1.273 . S
O180 C179 1.273 . S
O181 Zn172 1.977 . S
O181 C174 1.267 . S
C182 O183 1.160 . S
C182 O189 1.185 . S
O183 C182 1.160 . S
O184 Zn185 1.899 . S
O184 C192 1.284 . S
Zn185 O184 1.899 . S
Zn185 O186 2.032 . S
Zn185 O189 2.086 . S
Zn185 O194 1.977 . S
O186 Zn185 2.032 . S
O186 C190 1.278 . S
C187 O188 1.203 . S
C187 O194 1.267 . S
O188 C187 1.203 . S
O189 C182 1.185 . S
O189 Zn185 2.086 . S
C190 O186 1.278 . S
C190 O191 1.211 . S
O191 C190 1.211 . S
C192 O184 1.284 . S
C192 O193 1.273 . S
O193 C192 1.273 . S
O194 Zn185 1.977 . S
O194 C187 1.267 . S
C195 O196 1.160 . S
C195 O202 1.185 . S
O196 C195 1.160 . S
O197 Zn198 1.899 . S
O197 C205 1.284 . S
Zn198 O197 1.899 . S
Zn198 O199 2.032 . S
Zn198 O202 2.086 . S
Zn198 O207 1.977 . S
O199 Zn198 2.032 . S
O199 C203 1.278 . S
C200 O201 1.203 . S
C200 O207 1.267 . S
O201 C200 1.203 . S
O202 C195 1.185 . S
O202 Zn198 2.086 . S
C203 O199 1.278 . S
C203 O204 1.211 . S
O204 C203 1.211 . S
C205 O197 1.284 . S
C205 O206 1.273 . S
O206 C205 1.273 . S
O207 Zn198 1.977 . S
O207 C200 1.267 . S
C208 O209 1.160 . S
C208 O215 1.185 . S
O209 C208 1.160 . S
O210 Zn211 1.899 . S
O210 C218 1.284 . S
Zn211 O210 1.899 . S
Zn211 O212 2.032 . S
Zn211 O215 2.086 . S
Zn211 O220 1.977 . S
O212 Zn211 2.032 . S
O212 C216 1.278 . S
C213 O214 1.203 . S
C213 O220 1.267 . S
O214 C213 1.203 . S
O215 C208 1.185 . S
O215 Zn211 2.086 . S
C216 O212 1.278 . S
C216 O217 1.211 . S
O217 C216 1.211 . S
C218 O210 1.284 . S
C218 O219 1.273 . S
O219 C218 1.273 . S
O220 Zn211 1.977 . S
O220 C213 1.267 . S
C221 O222 1.160 . S
C221 O228 1.185 . S
O222 C221 1.160 . S
O223 Zn224 1.899 . S
O223 C231 1.284 . S
Zn224 O223 1.899 . S
Zn224 O225 2.032 . S
Zn224 O228 2.086 . S
Zn224 O233 1.977 . S
O225 Zn224 2.032 . S
O225 C229 1.278 . S
C226 O227 1.203 . S
C226 O233 1.267 . S
O227 C226 1.203 . S
O228 C221 1.185 . S
O228 Zn224 2.086 . S
C229 O225 1.278 . S
C229 O230 1.211 . S
O230 C229 1.211 . S
C231 O223 1.284 . S
C231 O232 1.273 . S
O232 C231 1.273 . S
O233 Zn224 1.977 . S
O233 C226 1.267 . S
H234 C252 0.951 . S
H235 C254 0.951 . S
H236 C256 0.950 . S
H237 C257 0.950 . S
H238 C259 0.950 . S
H239 C262 0.950 . S
H240 C263 0.950 . S
H241 C265 0.950 . S
H242 C266 0.950 . S
H243 C267 0.951 . S
H244 C269 0.951 . S
H245 C271 0.950 . S
H246 C272 0.950 . S
H247 C274 0.950 . S
H248 C277 0.950 . S
H249 C278 0.950 . S
H250 C280 0.950 . S
H251 C281 0.950 . S
C252 H234 0.951 . S
C252 C253 1.366 . S
C252 C254 1.388 . S
C253 C252 1.366 . S
C253 C257 1.385 . S
C254 H235 0.951 . S
C254 C252 1.388 . S
C254 C255 1.366 . S
C255 C254 1.366 . S
C255 C256 1.414 . S
C255 C258 1.499 . S
C256 H236 0.950 . S
C256 C255 1.414 . S
C256 C257 1.374 . S
C257 H237 0.950 . S
C257 C253 1.385 . S
C257 C256 1.374 . S
C258 C255 1.499 . S
C258 C259 1.373 . S
C258 C260 1.389 . S
C259 H238 0.950 . S
C259 C258 1.373 . S
C259 C275 1.377 . S
C260 C258 1.389 . S
C260 C261 1.524 . S
C260 C274 1.377 . S
C261 C260 1.524 . S
C261 C262 1.397 . S
C261 C266 1.363 . S
C262 H239 0.950 . S
C262 C261 1.397 . S
C262 C263 1.334 . S
C263 H240 0.950 . S
C263 C262 1.334 . S
C263 C264 1.287 . S
C264 C263 1.287 . S
C264 C265 1.524 . S
C264 H283 0.913 . S
C265 H241 0.950 . S
C265 C264 1.524 . S
C265 C266 1.415 . S
C266 H242 0.950 . S
C266 C261 1.363 . S
C266 C265 1.415 . S
C267 H243 0.951 . S
C267 C268 1.366 . S
C267 C269 1.388 . S
C268 C267 1.366 . S
C268 C272 1.385 . S
C269 H244 0.951 . S
C269 C267 1.388 . S
C269 C270 1.366 . S
C270 C269 1.366 . S
C270 C271 1.414 . S
C270 C273 1.499 . S
C271 H245 0.950 . S
C271 C270 1.414 . S
C271 C272 1.374 . S
C272 H246 0.950 . S
C272 C268 1.385 . S
C272 C271 1.374 . S
C273 C270 1.499 . S
C273 C274 1.373 . S
C273 C275 1.389 . S
C274 H247 0.950 . S
C274 C260 1.377 . S
C274 C273 1.373 . S
C275 C259 1.377 . S
C275 C273 1.389 . S
C275 C276 1.524 . S
C276 C275 1.524 . S
C276 C277 1.397 . S
C276 C281 1.363 . S
C277 H248 0.950 . S
C277 C276 1.397 . S
C277 C278 1.334 . S
C278 H249 0.950 . S
C278 C277 1.334 . S
C278 C279 1.287 . S
C279 C278 1.287 . S
C279 C280 1.524 . S
C279 H282 0.999 . S
C280 H250 0.950 . S
C280 C279 1.524 . S
C280 C281 1.415 . S
C281 H251 0.950 . S
C281 C276 1.363 . S
C281 C280 1.415 . S
H282 C279 0.999 . S
H283 C264 0.913 . S
H284 C302 0.951 . S
H285 C304 0.951 . S
H286 C306 0.950 . S
H287 C307 0.950 1_565 S
H288 C309 0.950 . S
H289 C312 0.950 . S
H290 C313 0.950 . S
H291 C315 0.950 . S
H292 C316 0.950 . S
H293 C317 0.951 . S
H294 C319 0.951 . S
H295 C321 0.950 . S
H296 C322 0.950 . S
H297 C324 0.950 . S
H298 C327 0.950 . S
H299 C328 0.950 . S
H300 C330 0.950 1_565 S
H301 C331 0.950 . S
C302 H284 0.951 . S
C302 C303 1.366 . S
C302 C304 1.388 . S
C303 C302 1.366 . S
C303 C307 1.385 . S
C304 H285 0.951 . S
C304 C302 1.388 . S
C304 C305 1.366 . S
C305 C304 1.366 . S
C305 C306 1.414 . S
C305 C308 1.499 . S
C306 H286 0.950 . S
C306 C305 1.414 . S
C306 C307 1.374 . S
C307 H287 0.950 1_545 S
C307 C303 1.385 . S
C307 C306 1.374 . S
C308 C305 1.499 . S
C308 C309 1.373 . S
C308 C310 1.389 . S
C309 H288 0.950 . S
C309 C308 1.373 . S
C309 C325 1.377 . S
C310 C308 1.389 . S
C310 C311 1.524 . S
C310 C324 1.377 . S
C311 C310 1.524 . S
C311 C312 1.397 . S
C311 C316 1.363 . S
C312 H289 0.950 . S
C312 C311 1.397 . S
C312 C313 1.334 . S
C313 H290 0.950 . S
C313 C312 1.334 . S
C313 C314 1.287 . S
C314 C313 1.287 . S
C314 C315 1.524 . S
C314 H333 0.913 . S
C315 H291 0.950 . S
C315 C314 1.524 . S
C315 C316 1.415 . S
C316 H292 0.950 . S
C316 C311 1.363 . S
C316 C315 1.415 . S
C317 H293 0.951 . S
C317 C318 1.366 . S
C317 C319 1.388 . S
C318 C317 1.366 . S
C318 C322 1.385 . S
C319 H294 0.951 . S
C319 C317 1.388 . S
C319 C320 1.366 . S
C320 C319 1.366 . S
C320 C321 1.414 . S
C320 C323 1.499 . S
C321 H295 0.950 . S
C321 C320 1.414 . S
C321 C322 1.374 . S
C322 H296 0.950 . S
C322 C318 1.385 . S
C322 C321 1.374 . S
C323 C320 1.499 . S
C323 C324 1.373 . S
C323 C325 1.389 . S
C324 H297 0.950 . S
C324 C310 1.377 . S
C324 C323 1.373 . S
C325 C309 1.377 . S
C325 C323 1.389 . S
C325 C326 1.524 . S
C326 C325 1.524 . S
C326 C327 1.397 . S
C326 C331 1.363 . S
C327 H298 0.950 . S
C327 C326 1.397 . S
C327 C328 1.334 . S
C328 H299 0.950 . S
C328 C327 1.334 . S
C328 C329 1.287 . S
C329 C328 1.287 . S
C329 C330 1.524 . S
C329 H332 0.999 . S
C330 H300 0.950 1_545 S
C330 C329 1.524 . S
C330 C331 1.415 . S
C331 H301 0.950 . S
C331 C326 1.363 . S
C331 C330 1.415 . S
H332 C329 0.999 . S
H333 C314 0.913 . S
H334 C352 0.951 . S
H335 C354 0.951 . S
H336 C356 0.950 . S
H337 C357 0.950 . S
H338 C359 0.950 . S
H339 C362 0.950 . S
H340 C363 0.950 . S
H341 C365 0.950 . S
H342 C366 0.950 . S
H343 C367 0.951 . S
H344 C369 0.951 . S
H345 C371 0.950 . S
H346 C372 0.950 . S
H347 C374 0.950 . S
H348 C377 0.950 1_655 S
H349 C378 0.950 . S
H350 C380 0.950 . S
H351 C381 0.950 . S
C352 H334 0.951 . S
C352 C353 1.366 . S
C352 C354 1.388 . S
C353 C352 1.366 . S
C353 C357 1.385 . S
C354 H335 0.951 . S
C354 C352 1.388 . S
C354 C355 1.366 . S
C355 C354 1.366 . S
C355 C356 1.414 . S
C355 C358 1.499 . S
C356 H336 0.950 . S
C356 C355 1.414 . S
C356 C357 1.374 . S
C357 H337 0.950 . S
C357 C353 1.385 . S
C357 C356 1.374 . S
C358 C355 1.499 . S
C358 C359 1.373 . S
C358 C360 1.389 . S
C359 H338 0.950 . S
C359 C358 1.373 . S
C359 C375 1.377 . S
C360 C358 1.389 . S
C360 C361 1.524 . S
C360 C374 1.377 . S
C361 C360 1.524 . S
C361 C362 1.397 . S
C361 C366 1.363 . S
C362 H339 0.950 . S
C362 C361 1.397 . S
C362 C363 1.334 . S
C363 H340 0.950 . S
C363 C362 1.334 . S
C363 C364 1.287 . S
C364 C363 1.287 . S
C364 C365 1.524 . S
C364 H383 0.913 . S
C365 H341 0.950 . S
C365 C364 1.524 . S
C365 C366 1.415 . S
C366 H342 0.950 . S
C366 C361 1.363 . S
C366 C365 1.415 . S
C367 H343 0.951 . S
C367 C368 1.366 . S
C367 C369 1.388 . S
C368 C367 1.366 . S
C368 C372 1.385 . S
C369 H344 0.951 . S
C369 C367 1.388 . S
C369 C370 1.366 . S
C370 C369 1.366 . S
C370 C371 1.414 . S
C370 C373 1.499 . S
C371 H345 0.950 . S
C371 C370 1.414 . S
C371 C372 1.374 . S
C372 H346 0.950 . S
C372 C368 1.385 . S
C372 C371 1.374 . S
C373 C370 1.499 . S
C373 C374 1.373 . S
C373 C375 1.389 . S
C374 H347 0.950 . S
C374 C360 1.377 . S
C374 C373 1.373 . S
C375 C359 1.377 . S
C375 C373 1.389 . S
C375 C376 1.524 . S
C376 C375 1.524 . S
C376 C377 1.397 1_655 S
C376 C381 1.363 . S
C377 H348 0.950 1_455 S
C377 C376 1.397 1_455 S
C377 C378 1.334 . S
C378 H349 0.950 . S
C378 C377 1.334 . S
C378 C379 1.287 . S
C379 C378 1.287 . S
C379 C380 1.524 . S
C379 H382 0.999 . S
C380 H350 0.950 . S
C380 C379 1.524 . S
C380 C381 1.415 1_455 S
C381 H351 0.950 . S
C381 C376 1.363 . S
C381 C380 1.415 1_655 S
H382 C379 0.999 . S
H383 C364 0.913 . S
H384 C402 0.951 . S
H385 C404 0.951 . S
H386 C406 0.950 . S
H387 C407 0.950 . S
H388 C409 0.950 . S
H389 C412 0.950 . S
H390 C413 0.950 . S
H391 C415 0.950 . S
H392 C416 0.950 . S
H393 C417 0.951 . S
H394 C419 0.951 . S
H395 C421 0.950 . S
H396 C422 0.950 . S
H397 C424 0.950 . S
H398 C427 0.950 . S
H399 C428 0.950 . S
H400 C430 0.950 . S
H401 C431 0.950 . S
C402 H384 0.951 . S
C402 C403 1.366 . S
C402 C404 1.388 . S
C403 C402 1.366 . S
C403 C407 1.385 . S
C404 H385 0.951 . S
C404 C402 1.388 . S
C404 C405 1.366 . S
C405 C404 1.366 . S
C405 C406 1.414 . S
C405 C408 1.499 . S
C406 H386 0.950 . S
C406 C405 1.414 . S
C406 C407 1.374 . S
C407 H387 0.950 . S
C407 C403 1.385 . S
C407 C406 1.374 . S
C408 C405 1.499 . S
C408 C409 1.373 . S
C408 C410 1.389 . S
C409 H388 0.950 . S
C409 C408 1.373 . S
C409 C425 1.377 . S
C410 C408 1.389 . S
C410 C411 1.524 . S
C410 C424 1.377 . S
C411 C410 1.524 . S
C411 C412 1.397 . S
C411 C416 1.363 . S
C412 H389 0.950 . S
C412 C411 1.397 . S
C412 C413 1.334 . S
C413 H390 0.950 . S
C413 C412 1.334 . S
C413 C414 1.287 . S
C414 C413 1.287 . S
C414 C415 1.524 . S
C414 H433 0.913 . S
C415 H391 0.950 . S
C415 C414 1.524 . S
C415 C416 1.415 . S
C416 H392 0.950 . S
C416 C411 1.363 . S
C416 C415 1.415 . S
C417 H393 0.951 . S
C417 C418 1.366 . S
C417 C419 1.388 . S
C418 C417 1.366 . S
C418 C422 1.385 . S
C419 H394 0.951 . S
C419 C417 1.388 . S
C419 C420 1.366 . S
C420 C419 1.366 . S
C420 C421 1.414 . S
C420 C423 1.499 . S
C421 H395 0.950 . S
C421 C420 1.414 . S
C421 C422 1.374 . S
C422 H396 0.950 . S
C422 C418 1.385 . S
C422 C421 1.374 . S
C423 C420 1.499 . S
C423 C424 1.373 . S
C423 C425 1.389 . S
C424 H397 0.950 . S
C424 C410 1.377 . S
C424 C423 1.373 . S
C425 C409 1.377 . S
C425 C423 1.389 . S
C425 C426 1.524 . S
C426 C425 1.524 . S
C426 C427 1.397 . S
C426 C431 1.363 . S
C427 H398 0.950 . S
C427 C426 1.397 . S
C427 C428 1.334 . S
C428 H399 0.950 . S
C428 C427 1.334 . S
C428 C429 1.287 . S
C429 C428 1.287 . S
C429 C430 1.524 . S
C429 H432 0.999 . S
C430 H400 0.950 . S
C430 C429 1.524 . S
C430 C431 1.415 . S
C431 H401 0.950 . S
C431 C426 1.363 . S
C431 C430 1.415 . S
H432 C429 0.999 . S
H433 C414 0.913 . S
H434 C452 0.951 . S
H435 C454 0.951 . S
H436 C456 0.950 . S
H437 C457 0.950 . S
H438 C459 0.950 . S
H439 C462 0.950 . S
H440 C463 0.950 . S
H441 C465 0.950 . S
H442 C466 0.950 . S
H443 C467 0.951 . S
H444 C469 0.951 . S
H445 C471 0.950 . S
H446 C472 0.950 . S
H447 C474 0.950 . S
H448 C477 0.950 . S
H449 C478 0.950 . S
H450 C480 0.950 . S
H451 C481 0.950 . S
C452 H434 0.951 . S
C452 C453 1.366 . S
C452 C454 1.388 . S
C453 C452 1.366 . S
C453 C457 1.385 . S
C454 H435 0.951 . S
C454 C452 1.388 . S
C454 C455 1.366 . S
C455 C454 1.366 . S
C455 C456 1.414 . S
C455 C458 1.499 . S
C456 H436 0.950 . S
C456 C455 1.414 . S
C456 C457 1.374 . S
C457 H437 0.950 . S
C457 C453 1.385 . S
C457 C456 1.374 . S
C458 C455 1.499 . S
C458 C459 1.373 . S
C458 C460 1.389 . S
C459 H438 0.950 . S
C459 C458 1.373 . S
C459 C475 1.377 . S
C460 C458 1.389 . S
C460 C461 1.524 . S
C460 C474 1.377 . S
C461 C460 1.524 . S
C461 C462 1.397 . S
C461 C466 1.363 . S
C462 H439 0.950 . S
C462 C461 1.397 . S
C462 C463 1.334 1_565 S
C463 H440 0.950 . S
C463 C462 1.334 1_545 S
C463 C464 1.287 . S
C464 C463 1.287 . S
C464 C465 1.524 1_545 S
C464 H483 0.913 . S
C465 H441 0.950 . S
C465 C464 1.524 1_565 S
C465 C466 1.415 . S
C466 H442 0.950 . S
C466 C461 1.363 . S
C466 C465 1.415 . S
C467 H443 0.951 . S
C467 C468 1.366 . S
C467 C469 1.388 . S
C468 C467 1.366 . S
C468 C472 1.385 . S
C469 H444 0.951 . S
C469 C467 1.388 . S
C469 C470 1.366 . S
C470 C469 1.366 . S
C470 C471 1.414 . S
C470 C473 1.499 . S
C471 H445 0.950 . S
C471 C470 1.414 . S
C471 C472 1.374 . S
C472 H446 0.950 . S
C472 C468 1.385 . S
C472 C471 1.374 . S
C473 C470 1.499 . S
C473 C474 1.373 . S
C473 C475 1.389 . S
C474 H447 0.950 . S
C474 C460 1.377 . S
C474 C473 1.373 . S
C475 C459 1.377 . S
C475 C473 1.389 . S
C475 C476 1.524 . S
C476 C475 1.524 . S
C476 C477 1.397 . S
C476 C481 1.363 . S
C477 H448 0.950 . S
C477 C476 1.397 . S
C477 C478 1.334 . S
C478 H449 0.950 . S
C478 C477 1.334 . S
C478 C479 1.287 . S
C479 C478 1.287 . S
C479 C480 1.524 . S
C479 H482 0.999 . S
C480 H450 0.950 . S
C480 C479 1.524 . S
C480 C481 1.415 . S
C481 H451 0.950 . S
C481 C476 1.363 . S
C481 C480 1.415 . S
H482 C479 0.999 . S
H483 C464 0.913 . S
H484 C502 0.951 . S
H485 C504 0.951 . S
H486 C506 0.950 . S
H487 C507 0.950 . S
H488 C509 0.950 . S
H489 C512 0.950 . S
H490 C513 0.950 . S
H491 C515 0.950 . S
H492 C516 0.950 . S
H493 C517 0.951 . S
H494 C519 0.951 . S
H495 C521 0.950 . S
H496 C522 0.950 . S
H497 C524 0.950 . S
H498 C527 0.950 . S
H499 C528 0.950 . S
H500 C530 0.950 . S
H501 C531 0.950 . S
C502 H484 0.951 . S
C502 C503 1.366 . S
C502 C504 1.388 . S
C503 C502 1.366 . S
C503 C507 1.385 . S
C504 H485 0.951 . S
C504 C502 1.388 . S
C504 C505 1.366 . S
C505 C504 1.366 . S
C505 C506 1.414 . S
C505 C508 1.499 . S
C506 H486 0.950 . S
C506 C505 1.414 . S
C506 C507 1.374 . S
C507 H487 0.950 . S
C507 C503 1.385 . S
C507 C506 1.374 . S
C508 C505 1.499 . S
C508 C509 1.373 . S
C508 C510 1.389 . S
C509 H488 0.950 . S
C509 C508 1.373 . S
C509 C525 1.377 . S
C510 C508 1.389 . S
C510 C511 1.524 . S
C510 C524 1.377 . S
C511 C510 1.524 . S
C511 C512 1.397 . S
C511 C516 1.363 . S
C512 H489 0.950 . S
C512 C511 1.397 . S
C512 C513 1.334 . S
C513 H490 0.950 . S
C513 C512 1.334 . S
C513 C514 1.287 . S
C514 C513 1.287 . S
C514 C515 1.524 . S
C514 H533 0.913 . S
C515 H491 0.950 . S
C515 C514 1.524 . S
C515 C516 1.415 . S
C516 H492 0.950 . S
C516 C511 1.363 . S
C516 C515 1.415 . S
C517 H493 0.951 . S
C517 C518 1.366 . S
C517 C519 1.388 . S
C518 C517 1.366 . S
C518 C522 1.385 . S
C519 H494 0.951 . S
C519 C517 1.388 . S
C519 C520 1.366 . S
C520 C519 1.366 . S
C520 C521 1.414 . S
C520 C523 1.499 . S
C521 H495 0.950 . S
C521 C520 1.414 . S
C521 C522 1.374 . S
C522 H496 0.950 . S
C522 C518 1.385 . S
C522 C521 1.374 . S
C523 C520 1.499 . S
C523 C524 1.373 . S
C523 C525 1.389 . S
C524 H497 0.950 . S
C524 C510 1.377 . S
C524 C523 1.373 . S
C525 C509 1.377 . S
C525 C523 1.389 . S
C525 C526 1.524 . S
C526 C525 1.524 . S
C526 C527 1.397 . S
C526 C531 1.363 . S
C527 H498 0.950 . S
C527 C526 1.397 . S
C527 C528 1.334 1_455 S
C528 H499 0.950 . S
C528 C527 1.334 1_655 S
C528 C529 1.310 . S
C529 C528 1.310 . S
C529 C530 1.482 1_655 S
C529 H532 1.019 . S
C530 H500 0.950 . S
C530 C529 1.482 1_455 S
C530 C531 1.415 . S
C531 H501 0.950 . S
C531 C526 1.363 . S
C531 C530 1.415 . S
H532 C529 1.019 . S
H533 C514 0.913 . S
H534 C552 0.951 . S
H535 C554 0.951 . S
H536 C556 0.950 . S
H537 C557 0.950 . S
H538 C559 0.950 . S
H539 C562 0.950 . S
H540 C563 0.950 . S
H541 C565 0.950 . S
H542 C566 0.950 . S
H543 C567 0.951 . S
H544 C569 0.951 . S
H545 C571 0.950 . S
H546 C572 0.950 . S
H547 C574 0.950 . S
H548 C577 0.950 . S
H549 C578 0.950 . S
H550 C580 0.950 . S
H551 C581 0.950 . S
C552 H534 0.951 . S
C552 C553 1.366 . S
C552 C554 1.388 . S
C553 C552 1.366 . S
C553 C557 1.385 . S
C554 H535 0.951 . S
C554 C552 1.388 . S
C554 C555 1.366 . S
C555 C554 1.366 . S
C555 C556 1.414 . S
C555 C558 1.499 . S
C556 H536 0.950 . S
C556 C555 1.414 . S
C556 C557 1.374 . S
C557 H537 0.950 . S
C557 C553 1.385 . S
C557 C556 1.374 . S
C558 C555 1.499 . S
C558 C559 1.373 . S
C558 C560 1.389 . S
C559 H538 0.950 . S
C559 C558 1.373 . S
C559 C575 1.377 1_655 S
C560 C558 1.389 . S
C560 C561 1.524 . S
C560 C574 1.377 1_655 S
C561 C560 1.524 . S
C561 C562 1.397 . S
C561 C566 1.363 . S
C562 H539 0.950 . S
C562 C561 1.397 . S
C562 C563 1.334 . S
C563 H540 0.950 . S
C563 C562 1.334 . S
C563 C564 1.287 . S
C564 C563 1.287 . S
C564 C565 1.524 . S
C564 H583 0.913 . S
C565 H541 0.950 . S
C565 C564 1.524 . S
C565 C566 1.415 . S
C566 H542 0.950 . S
C566 C561 1.363 . S
C566 C565 1.415 . S
C567 H543 0.951 . S
C567 C568 1.366 . S
C567 C569 1.388 . S
C568 C567 1.366 . S
C568 C572 1.385 . S
C569 H544 0.951 . S
C569 C567 1.388 . S
C569 C570 1.366 . S
C570 C569 1.366 . S
C570 C571 1.414 . S
C570 C573 1.499 . S
C571 H545 0.950 . S
C571 C570 1.414 . S
C571 C572 1.374 . S
C572 H546 0.950 . S
C572 C568 1.385 . S
C572 C571 1.374 . S
C573 C570 1.499 . S
C573 C574 1.373 . S
C573 C575 1.389 . S
C574 H547 0.950 . S
C574 C560 1.377 1_455 S
C574 C573 1.373 . S
C575 C559 1.377 1_455 S
C575 C573 1.389 . S
C575 C576 1.524 . S
C576 C575 1.524 . S
C576 C577 1.397 . S
C576 C581 1.363 . S
C577 H548 0.950 . S
C577 C576 1.397 . S
C577 C578 1.334 . S
C578 H549 0.950 . S
C578 C577 1.334 . S
C578 C579 1.287 . S
C579 C578 1.287 . S
C579 C580 1.524 . S
C579 H582 0.999 . S
C580 H550 0.950 . S
C580 C579 1.524 . S
C580 C581 1.415 . S
C581 H551 0.950 . S
C581 C576 1.363 . S
C581 C580 1.415 . S
H582 C579 0.999 . S
H583 C564 0.913 . S
H584 C602 0.951 . S
H585 C604 0.951 . S
H586 C606 0.950 . S
H587 C607 0.950 . S
H588 C609 0.950 . S
H589 C612 0.950 . S
H590 C613 0.950 . S
H591 C615 0.950 . S
H592 C616 0.950 . S
H593 C617 0.951 . S
H594 C619 0.951 . S
H595 C621 0.950 . S
H596 C622 0.950 . S
H597 C624 0.950 . S
H598 C627 0.950 . S
H599 C628 0.950 . S
H600 C630 0.950 . S
H601 C631 0.950 . S
C602 H584 0.951 . S
C602 C603 1.366 . S
C602 C604 1.388 . S
C603 C602 1.366 . S
C603 C607 1.385 . S
C604 H585 0.951 . S
C604 C602 1.388 . S
C604 C605 1.366 . S
C605 C604 1.366 . S
C605 C606 1.414 . S
C605 C608 1.499 . S
C606 H586 0.950 . S
C606 C605 1.414 . S
C606 C607 1.374 . S
C607 H587 0.950 . S
C607 C603 1.385 . S
C607 C606 1.374 . S
C608 C605 1.499 . S
C608 C609 1.373 . S
C608 C610 1.389 . S
C609 H588 0.950 . S
C609 C608 1.373 . S
C609 C625 1.377 . S
C610 C608 1.389 . S
C610 C611 1.524 . S
C610 C624 1.377 . S
C611 C610 1.524 . S
C611 C612 1.397 . S
C611 C616 1.363 . S
C612 H589 0.950 . S
C612 C611 1.397 . S
C612 C613 1.334 . S
C613 H590 0.950 . S
C613 C612 1.334 . S
C613 C614 1.287 . S
C614 C613 1.287 . S
C614 C615 1.524 . S
C614 H633 0.913 . S
C615 H591 0.950 . S
C615 C614 1.524 . S
C615 C616 1.415 . S
C616 H592 0.950 . S
C616 C611 1.363 . S
C616 C615 1.415 . S
C617 H593 0.951 . S
C617 C618 1.366 . S
C617 C619 1.388 . S
C618 C617 1.366 . S
C618 C622 1.385 . S
C619 H594 0.951 . S
C619 C617 1.388 . S
C619 C620 1.366 . S
C620 C619 1.366 . S
C620 C621 1.414 . S
C620 C623 1.499 . S
C621 H595 0.950 . S
C621 C620 1.414 . S
C621 C622 1.374 . S
C622 H596 0.950 . S
C622 C618 1.385 . S
C622 C621 1.374 . S
C623 C620 1.499 . S
C623 C624 1.373 . S
C623 C625 1.389 . S
C624 H597 0.950 . S
C624 C610 1.377 . S
C624 C623 1.373 . S
C625 C609 1.377 . S
C625 C623 1.389 . S
C625 C626 1.524 . S
C626 C625 1.524 . S
C626 C627 1.397 . S
C626 C631 1.363 . S
C627 H598 0.950 . S
C627 C626 1.397 . S
C627 C628 1.334 . S
C628 H599 0.950 . S
C628 C627 1.334 . S
C628 C629 1.287 . S
C629 C628 1.287 . S
C629 C630 1.524 . S
C629 H632 0.999 . S
C630 H600 0.950 . S
C630 C629 1.524 . S
C630 C631 1.415 . S
C631 H601 0.950 . S
C631 C626 1.363 . S
C631 C630 1.415 . S
H632 C629 0.999 . S
H633 C614 0.913 . S
H634 C652 0.951 . S
H635 C654 0.951 . S
H636 C656 0.950 . S
H637 C657 0.950 . S
H638 C659 0.950 . S
H639 C662 0.950 . S
H640 C663 0.950 . S
H641 C665 0.950 . S
H642 C666 0.950 . S
H643 C667 0.951 . S
H644 C669 0.951 . S
H645 C671 0.950 . S
H646 C672 0.950 . S
H647 C674 0.950 . S
H648 C677 0.950 . S
H649 C678 0.950 . S
H650 C680 0.950 . S
H651 C681 0.950 . S
C652 H634 0.951 . S
C652 C653 1.366 . S
C652 C654 1.388 . S
C653 C652 1.366 . S
C653 C657 1.385 . S
C654 H635 0.951 . S
C654 C652 1.388 . S
C654 C655 1.366 . S
C655 C654 1.366 . S
C655 C656 1.414 . S
C655 C658 1.499 . S
C656 H636 0.950 . S
C656 C655 1.414 . S
C656 C657 1.374 . S
C657 H637 0.950 . S
C657 C653 1.385 . S
C657 C656 1.374 . S
C658 C655 1.499 . S
C658 C659 1.373 . S
C658 C660 1.389 . S
C659 H638 0.950 . S
C659 C658 1.373 . S
C659 C675 1.377 1_545 S
C660 C658 1.389 . S
C660 C661 1.524 . S
C660 C674 1.377 1_545 S
C661 C660 1.524 . S
C661 C662 1.397 . S
C661 C666 1.363 . S
C662 H639 0.950 . S
C662 C661 1.397 . S
C662 C663 1.334 . S
C663 H640 0.950 . S
C663 C662 1.334 . S
C663 C664 1.287 . S
C664 C663 1.287 . S
C664 C665 1.524 . S
C664 H683 0.913 . S
C665 H641 0.950 . S
C665 C664 1.524 . S
C665 C666 1.415 . S
C666 H642 0.950 . S
C666 C661 1.363 . S
C666 C665 1.415 . S
C667 H643 0.951 . S
C667 C668 1.366 . S
C667 C669 1.388 . S
C668 C667 1.366 . S
C668 C672 1.385 . S
C669 H644 0.951 . S
C669 C667 1.388 . S
C669 C670 1.366 . S
C670 C669 1.366 . S
C670 C671 1.414 . S
C670 C673 1.499 . S
C671 H645 0.950 . S
C671 C670 1.414 . S
C671 C672 1.374 . S
C672 H646 0.950 . S
C672 C668 1.385 . S
C672 C671 1.374 . S
C673 C670 1.499 . S
C673 C674 1.373 . S
C673 C675 1.389 . S
C674 H647 0.950 . S
C674 C660 1.377 1_565 S
C674 C673 1.373 . S
C675 C659 1.377 1_565 S
C675 C673 1.389 . S
C675 C676 1.524 . S
C676 C675 1.524 . S
C676 C677 1.397 . S
C676 C681 1.363 . S
C677 H648 0.950 . S
C677 C676 1.397 . S
C677 C678 1.334 . S
C678 H649 0.950 . S
C678 C677 1.334 . S
C678 C679 1.287 . S
C679 C678 1.287 . S
C679 C680 1.524 . S
C679 H682 0.999 . S
C680 H650 0.950 . S
C680 C679 1.524 . S
C680 C681 1.415 . S
C681 H651 0.950 . S
C681 C676 1.363 . S
C681 C680 1.415 . S
H682 C679 0.999 . S
H683 C664 0.913 . S
H684 C702 0.951 . S
H685 C704 0.951 . S
H686 C706 0.950 . S
H687 C707 0.950 . S
H688 C709 0.950 . S
H689 C712 0.950 . S
H690 C713 0.950 . S
H691 C715 0.950 . S
H692 C716 0.963 . S
H693 C717 0.951 . S
H694 C719 0.951 . S
H695 C721 0.950 . S
H696 C722 0.950 . S
H697 C724 0.950 . S
H698 C727 0.950 . S
H699 C728 0.950 . S
H700 C730 0.950 . S
H701 C731 0.950 . S
C702 H684 0.951 . S
C702 C703 1.366 . S
C702 C704 1.388 . S
C703 C702 1.366 . S
C703 C707 1.385 . S
C704 H685 0.951 . S
C704 C702 1.388 . S
C704 C705 1.366 . S
C705 C704 1.366 . S
C705 C706 1.414 . S
C705 C708 1.499 . S
C706 H686 0.950 . S
C706 C705 1.414 . S
C706 C707 1.374 . S
C707 H687 0.950 . S
C707 C703 1.385 . S
C707 C706 1.374 . S
C708 C705 1.499 . S
C708 C709 1.373 . S
C708 C710 1.389 . S
C709 H688 0.950 . S
C709 C708 1.373 . S
C709 C725 1.377 1_455 S
C710 C708 1.389 . S
C710 C711 1.524 . S
C710 C724 1.377 1_455 S
C711 C710 1.524 . S
C711 C712 1.397 . S
C711 C716 1.363 . S
C712 H689 0.950 . S
C712 C711 1.397 . S
C712 C713 1.334 . S
C713 H690 0.950 . S
C713 C712 1.334 . S
C713 C714 1.287 . S
C714 C713 1.287 . S
C714 C715 1.524 . S
C714 H733 0.913 . S
C715 H691 0.950 . S
C715 C714 1.524 . S
C715 C716 1.415 . S
C716 H692 0.963 . S
C716 C711 1.363 . S
C716 C715 1.415 . S
C717 H693 0.951 . S
C717 C718 1.366 . S
C717 C719 1.388 . S
C718 C717 1.366 . S
C718 C722 1.385 . S
C719 H694 0.951 . S
C719 C717 1.388 . S
C719 C720 1.366 . S
C720 C719 1.366 . S
C720 C721 1.414 . S
C720 C723 1.499 . S
C721 H695 0.950 . S
C721 C720 1.414 . S
C721 C722 1.374 . S
C722 H696 0.950 . S
C722 C718 1.385 . S
C722 C721 1.374 . S
C723 C720 1.499 . S
C723 C724 1.373 . S
C723 C725 1.389 . S
C724 H697 0.950 . S
C724 C710 1.377 1_655 S
C724 C723 1.373 . S
C725 C709 1.377 1_655 S
C725 C723 1.389 . S
C725 C726 1.524 . S
C726 C725 1.524 . S
C726 C727 1.397 . S
C726 C731 1.363 . S
C727 H698 0.950 . S
C727 C726 1.397 . S
C727 C728 1.334 . S
C728 H699 0.950 . S
C728 C727 1.334 . S
C728 C729 1.287 . S
C729 C728 1.287 . S
C729 C730 1.524 . S
C729 H732 0.999 1_545 S
C730 H700 0.950 . S
C730 C729 1.524 . S
C730 C731 1.415 . S
C731 H701 0.950 . S
C731 C726 1.363 . S
C731 C730 1.415 . S
H732 C729 0.999 1_565 S
H733 C714 0.913 . S
H734 C752 0.951 . S
H735 C754 0.951 . S
H736 C756 0.950 . S
H737 C757 0.950 . S
H738 C759 0.950 . S
H739 C762 0.950 . S
H740 C763 0.950 . S
H741 C765 0.950 . S
H742 C766 0.950 . S
H743 C767 0.951 . S
H744 C769 0.951 . S
H745 C771 0.950 . S
H746 C772 0.950 . S
H747 C774 0.950 . S
H748 C777 0.950 . S
H749 C778 0.950 . S
H750 C780 0.950 . S
H751 C781 0.950 . S
C752 H734 0.951 . S
C752 C753 1.366 . S
C752 C754 1.388 . S
C753 C752 1.366 . S
C753 C757 1.385 . S
C754 H735 0.951 . S
C754 C752 1.388 . S
C754 C755 1.366 . S
C755 C754 1.366 . S
C755 C756 1.414 . S
C755 C758 1.499 . S
C756 H736 0.950 . S
C756 C755 1.414 . S
C756 C757 1.374 . S
C757 H737 0.950 . S
C757 C753 1.385 . S
C757 C756 1.374 . S
C758 C755 1.499 . S
C758 C759 1.373 . S
C758 C760 1.389 . S
C759 H738 0.950 . S
C759 C758 1.373 . S
C759 C775 1.377 . S
C760 C758 1.389 . S
C760 C761 1.524 . S
C760 C774 1.377 . S
C761 C760 1.524 . S
C761 C762 1.397 . S
C761 C766 1.363 . S
C762 H739 0.950 . S
C762 C761 1.397 . S
C762 C763 1.334 . S
C763 H740 0.950 . S
C763 C762 1.334 . S
C763 C764 1.287 . S
C764 C763 1.287 . S
C764 C765 1.524 . S
C764 H783 0.913 . S
C765 H741 0.950 . S
C765 C764 1.524 . S
C765 C766 1.415 . S
C766 H742 0.950 . S
C766 C761 1.363 . S
C766 C765 1.415 . S
C767 H743 0.951 . S
C767 C768 1.366 . S
C767 C769 1.388 . S
C768 C767 1.366 . S
C768 C772 1.385 . S
C769 H744 0.951 . S
C769 C767 1.388 . S
C769 C770 1.366 . S
C770 C769 1.366 . S
C770 C771 1.414 . S
C770 C773 1.499 . S
C771 H745 0.950 . S
C771 C770 1.414 . S
C771 C772 1.374 . S
C772 H746 0.950 . S
C772 C768 1.385 . S
C772 C771 1.374 . S
C773 C770 1.499 . S
C773 C774 1.373 . S
C773 C775 1.389 . S
C774 H747 0.950 . S
C774 C760 1.377 . S
C774 C773 1.373 . S
C775 C759 1.377 . S
C775 C773 1.389 . S
C775 C776 1.524 . S
C776 C775 1.524 . S
C776 C777 1.397 . S
C776 C781 1.363 . S
C777 H748 0.950 . S
C777 C776 1.397 . S
C777 C778 1.334 . S
C778 H749 0.950 . S
C778 C777 1.334 . S
C778 C779 1.287 . S
C779 C778 1.287 . S
C779 C780 1.524 . S
C779 H782 0.999 . S
C780 H750 0.950 . S
C780 C779 1.524 . S
C780 C781 1.415 . S
C781 H751 0.950 . S
C781 C776 1.363 . S
C781 C780 1.415 . S
H782 C779 0.999 . S
H783 C764 0.913 . S
H784 C802 0.951 . S
H785 C804 0.951 . S
H786 C806 0.950 . S
H787 C807 0.950 . S
H788 C809 0.950 . S
H789 C812 0.950 . S
H790 C813 0.950 . S
H791 C815 0.950 . S
H792 C816 0.950 . S
H793 C817 0.951 . S
H794 C819 0.951 . S
H795 C821 0.950 . S
H796 C822 0.950 . S
H797 C824 0.950 . S
H798 C827 0.950 . S
H799 C828 0.950 1_655 S
H800 C830 0.950 . S
H801 C831 0.950 . S
C802 H784 0.951 . S
C802 C803 1.366 . S
C802 C804 1.388 . S
C803 C802 1.366 . S
C803 C807 1.385 . S
C804 H785 0.951 . S
C804 C802 1.388 . S
C804 C805 1.366 . S
C805 C804 1.366 . S
C805 C806 1.414 . S
C805 C808 1.499 . S
C806 H786 0.950 . S
C806 C805 1.414 . S
C806 C807 1.374 . S
C807 H787 0.950 . S
C807 C803 1.385 . S
C807 C806 1.374 . S
C808 C805 1.499 . S
C808 C809 1.373 . S
C808 C810 1.389 . S
C809 H788 0.950 . S
C809 C808 1.373 . S
C809 C825 1.377 1_545 S
C810 C808 1.389 . S
C810 C811 1.524 . S
C810 C824 1.377 1_545 S
C811 C810 1.524 . S
C811 C812 1.397 . S
C811 C816 1.363 . S
C812 H789 0.950 . S
C812 C811 1.397 . S
C812 C813 1.334 . S
C813 H790 0.950 . S
C813 C812 1.334 . S
C813 C814 1.287 . S
C814 C813 1.287 . S
C814 C815 1.524 . S
C814 H833 0.913 . S
C815 H791 0.950 . S
C815 C814 1.524 . S
C815 C816 1.415 . S
C816 H792 0.950 . S
C816 C811 1.363 . S
C816 C815 1.415 . S
C817 H793 0.951 . S
C817 C818 1.366 . S
C817 C819 1.388 . S
C818 C817 1.366 . S
C818 C822 1.385 . S
C819 H794 0.951 . S
C819 C817 1.388 . S
C819 C820 1.366 . S
C820 C819 1.366 . S
C820 C821 1.414 . S
C820 C823 1.499 . S
C821 H795 0.950 . S
C821 C820 1.414 . S
C821 C822 1.374 . S
C822 H796 0.950 . S
C822 C818 1.385 . S
C822 C821 1.374 . S
C823 C820 1.499 . S
C823 C824 1.373 . S
C823 C825 1.389 . S
C824 H797 0.950 . S
C824 C810 1.377 1_565 S
C824 C823 1.373 . S
C825 C809 1.377 1_565 S
C825 C823 1.389 . S
C825 C826 1.524 . S
C826 C825 1.524 . S
C826 C827 1.397 . S
C826 C831 1.363 . S
C827 H798 0.950 . S
C827 C826 1.397 . S
C827 C828 1.334 . S
C828 H799 0.950 1_455 S
C828 C827 1.334 . S
C828 C829 1.281 1_455 S
C829 C828 1.281 1_655 S
C829 C830 1.520 1_655 S
C829 H832 1.009 . S
C830 H800 0.950 . S
C830 C829 1.520 1_455 S
C830 C831 1.415 . S
C831 H801 0.950 . S
C831 C826 1.363 . S
C831 C830 1.415 . S
H832 C829 1.009 . S
H833 C814 0.913 . S
H834 C852 0.951 . S
H835 C854 0.951 . S
H836 C856 0.950 . S
H837 C857 0.950 . S
H838 C859 0.950 . S
H839 C862 0.950 . S
H840 C863 0.950 . S
H841 C865 0.950 . S
H842 C866 0.950 . S
H843 C867 0.951 . S
H844 C869 0.951 . S
H845 C871 0.950 . S
H846 C872 0.950 . S
H847 C874 0.950 . S
H848 C877 0.950 . S
H849 C878 0.950 . S
H850 C880 0.950 . S
H851 C881 0.958 . S
C852 H834 0.951 . S
C852 C853 1.366 . S
C852 C854 1.388 . S
C853 C852 1.366 . S
C853 C857 1.385 . S
C854 H835 0.951 . S
C854 C852 1.388 . S
C854 C855 1.366 . S
C855 C854 1.366 . S
C855 C856 1.414 . S
C855 C858 1.499 . S
C856 H836 0.950 . S
C856 C855 1.414 . S
C856 C857 1.374 . S
C857 H837 0.950 . S
C857 C853 1.385 . S
C857 C856 1.374 . S
C858 C855 1.499 . S
C858 C859 1.373 . S
C858 C860 1.389 . S
C859 H838 0.950 . S
C859 C858 1.373 . S
C859 C875 1.377 1_565 S
C860 C858 1.389 . S
C860 C861 1.524 . S
C860 C874 1.377 1_565 S
C861 C860 1.524 . S
C861 C862 1.397 . S
C861 C866 1.363 . S
C862 H839 0.950 . S
C862 C861 1.397 . S
C862 C863 1.334 . S
C863 H840 0.950 . S
C863 C862 1.334 . S
C863 C864 1.287 . S
C864 C863 1.287 . S
C864 C865 1.524 . S
C864 H883 0.913 . S
C865 H841 0.950 . S
C865 C864 1.524 . S
C865 C866 1.415 . S
C866 H842 0.950 . S
C866 C861 1.363 . S
C866 C865 1.415 . S
C867 H843 0.951 . S
C867 C868 1.366 . S
C867 C869 1.388 . S
C868 C867 1.366 . S
C868 C872 1.385 . S
C869 H844 0.951 . S
C869 C867 1.388 . S
C869 C870 1.366 . S
C870 C869 1.366 . S
C870 C871 1.414 . S
C870 C873 1.499 . S
C871 H845 0.950 . S
C871 C870 1.414 . S
C871 C872 1.374 . S
C872 H846 0.950 . S
C872 C868 1.385 . S
C872 C871 1.374 . S
C873 C870 1.499 . S
C873 C874 1.373 . S
C873 C875 1.389 . S
C874 H847 0.950 . S
C874 C860 1.377 1_545 S
C874 C873 1.373 . S
C875 C859 1.377 1_545 S
C875 C873 1.389 . S
C875 C876 1.524 . S
C876 C875 1.524 . S
C876 C877 1.397 . S
C876 C881 1.363 . S
C877 H848 0.950 . S
C877 C876 1.397 . S
C877 C878 1.334 . S
C878 H849 0.950 . S
C878 C877 1.334 . S
C878 C879 1.287 . S
C879 C878 1.287 . S
C879 C880 1.524 . S
C879 H882 0.999 . S
C880 H850 0.950 . S
C880 C879 1.524 . S
C880 C881 1.415 . S
C881 H851 0.958 . S
C881 C876 1.363 . S
C881 C880 1.415 . S
H882 C879 0.999 . S
H883 C864 0.913 . S
H884 C902 0.951 . S
H885 C904 0.951 . S
H886 C906 0.950 . S
H887 C907 0.950 . S
H888 C909 0.950 . S
H889 C912 0.950 . S
H890 C913 0.950 . S
H891 C915 0.950 . S
H892 C916 0.950 . S
H893 C917 0.951 . S
H894 C919 0.951 . S
H895 C921 0.950 . S
H896 C922 0.950 . S
H897 C924 0.950 . S
H898 C927 0.950 . S
H899 C928 0.950 . S
H900 C930 0.950 . S
H901 C931 0.960 . S
C902 H884 0.951 . S
C902 C903 1.366 . S
C902 C904 1.388 . S
C903 C902 1.366 . S
C903 C907 1.385 . S
C904 H885 0.951 . S
C904 C902 1.388 . S
C904 C905 1.366 . S
C905 C904 1.366 . S
C905 C906 1.414 . S
C905 C908 1.499 . S
C906 H886 0.950 . S
C906 C905 1.414 . S
C906 C907 1.374 . S
C907 H887 0.950 . S
C907 C903 1.385 . S
C907 C906 1.374 . S
C908 C905 1.499 . S
C908 C909 1.373 . S
C908 C910 1.389 . S
C909 H888 0.950 . S
C909 C908 1.373 . S
C909 C925 1.377 1_455 S
C910 C908 1.389 . S
C910 C911 1.524 . S
C910 C924 1.377 1_455 S
C911 C910 1.524 . S
C911 C912 1.397 . S
C911 C916 1.363 . S
C912 H889 0.950 . S
C912 C911 1.397 . S
C912 C913 1.334 . S
C913 H890 0.950 . S
C913 C912 1.334 . S
C913 C914 1.287 . S
C914 C913 1.287 . S
C914 C915 1.524 . S
C914 H933 0.913 . S
C915 H891 0.950 . S
C915 C914 1.524 . S
C915 C916 1.415 . S
C916 H892 0.950 . S
C916 C911 1.363 . S
C916 C915 1.415 . S
C917 H893 0.951 . S
C917 C918 1.366 . S
C917 C919 1.388 . S
C918 C917 1.366 . S
C918 C922 1.385 . S
C919 H894 0.951 . S
C919 C917 1.388 . S
C919 C920 1.366 . S
C920 C919 1.366 . S
C920 C921 1.414 . S
C920 C923 1.499 . S
C921 H895 0.950 . S
C921 C920 1.414 . S
C921 C922 1.374 . S
C922 H896 0.950 . S
C922 C918 1.385 . S
C922 C921 1.374 . S
C923 C920 1.499 . S
C923 C924 1.373 . S
C923 C925 1.389 . S
C924 H897 0.950 . S
C924 C910 1.377 1_655 S
C924 C923 1.373 . S
C925 C909 1.377 1_655 S
C925 C923 1.389 . S
C925 C926 1.524 . S
C926 C925 1.524 . S
C926 C927 1.397 . S
C926 C931 1.363 . S
C927 H898 0.950 . S
C927 C926 1.397 . S
C927 C928 1.334 . S
C928 H899 0.950 . S
C928 C927 1.334 . S
C928 C929 1.287 . S
C929 C928 1.287 . S
C929 C930 1.524 . S
C929 H932 0.999 . S
C930 H900 0.950 . S
C930 C929 1.524 . S
C930 C931 1.415 . S
C931 H901 0.960 . S
C931 C926 1.363 . S
C931 C930 1.415 . S
H932 C929 0.999 . S
H933 C914 0.913 . S
H934 C952 0.951 . S
H935 C954 0.951 . S
H936 C956 0.950 . S
H937 C957 0.950 . S
H938 C959 0.950 . S
H939 C962 0.950 . S
H940 C963 0.950 . S
H941 C965 0.950 . S
H942 C966 0.950 . S
H943 C967 0.951 . S
H944 C969 0.951 . S
H945 C971 0.950 . S
H946 C972 0.950 . S
H947 C974 0.950 . S
H948 C977 0.950 . S
H949 C978 0.950 . S
H950 C980 0.950 . S
H951 C981 0.950 . S
C952 H934 0.951 . S
C952 C953 1.366 . S
C952 C954 1.388 . S
C953 C952 1.366 . S
C953 C957 1.385 . S
C954 H935 0.951 . S
C954 C952 1.388 . S
C954 C955 1.366 . S
C955 C954 1.366 . S
C955 C956 1.414 . S
C955 C958 1.499 . S
C956 H936 0.950 . S
C956 C955 1.414 . S
C956 C957 1.374 . S
C957 H937 0.950 . S
C957 C953 1.385 . S
C957 C956 1.374 . S
C958 C955 1.499 . S
C958 C959 1.373 . S
C958 C960 1.389 . S
C959 H938 0.950 . S
C959 C958 1.373 . S
C959 C975 1.377 . S
C960 C958 1.389 . S
C960 C961 1.524 . S
C960 C974 1.377 . S
C961 C960 1.524 . S
C961 C962 1.397 . S
C961 C966 1.363 . S
C962 H939 0.950 . S
C962 C961 1.397 . S
C962 C963 1.334 . S
C963 H940 0.950 . S
C963 C962 1.334 . S
C963 C964 1.287 . S
C964 C963 1.287 . S
C964 C965 1.524 . S
C964 H983 0.913 . S
C965 H941 0.950 . S
C965 C964 1.524 . S
C965 C966 1.415 . S
C966 H942 0.950 . S
C966 C961 1.363 . S
C966 C965 1.415 . S
C967 H943 0.951 . S
C967 C968 1.366 . S
C967 C969 1.388 . S
C968 C967 1.366 . S
C968 C972 1.385 . S
C969 H944 0.951 . S
C969 C967 1.388 . S
C969 C970 1.366 . S
C970 C969 1.366 . S
C970 C971 1.414 . S
C970 C973 1.499 . S
C971 H945 0.950 . S
C971 C970 1.414 . S
C971 C972 1.374 . S
C972 H946 0.950 . S
C972 C968 1.385 . S
C972 C971 1.374 . S
C973 C970 1.499 . S
C973 C974 1.373 . S
C973 C975 1.389 . S
C974 H947 0.950 . S
C974 C960 1.377 . S
C974 C973 1.373 . S
C975 C959 1.377 . S
C975 C973 1.389 . S
C975 C976 1.524 . S
C976 C975 1.524 . S
C976 C977 1.397 . S
C976 C981 1.363 . S
C977 H948 0.950 . S
C977 C976 1.397 . S
C977 C978 1.334 . S
C978 H949 0.950 . S
C978 C977 1.334 . S
C978 C979 1.287 . S
C979 C978 1.287 . S
C979 C980 1.524 . S
C979 H982 0.999 . S
C980 H950 0.950 . S
C980 C979 1.524 . S
C980 C981 1.415 . S
C981 H951 0.950 . S
C981 C976 1.363 . S
C981 C980 1.415 . S
H982 C979 0.999 . S
H983 C964 0.913 . S
H984 C1002 0.951 . S
H985 C1004 0.951 . S
H986 C1006 0.950 . S
H987 C1007 0.950 . S
H988 C1009 0.950 . S
H989 C1012 0.950 . S
H990 C1013 0.950 . S
H991 C1015 0.950 . S
H992 C1016 0.950 . S
H993 C1017 0.951 . S
H994 C1019 0.951 . S
H995 C1021 0.950 . S
H996 C1022 0.950 . S
H997 C1024 0.950 . S
H998 C1027 0.950 . S
H999 C1028 0.950 . S
H1000 C1030 0.950 . S
H1001 C1031 0.950 . S
C1002 H984 0.951 . S
C1002 C1003 1.366 . S
C1002 C1004 1.388 . S
C1003 C1002 1.366 . S
C1003 C1007 1.385 . S
C1004 H985 0.951 . S
C1004 C1002 1.388 . S
C1004 C1005 1.366 . S
C1005 C1004 1.366 . S
C1005 C1006 1.414 . S
C1005 C1008 1.499 . S
C1006 H986 0.950 . S
C1006 C1005 1.414 . S
C1006 C1007 1.374 . S
C1007 H987 0.950 . S
C1007 C1003 1.385 . S
C1007 C1006 1.374 . S
C1008 C1005 1.499 . S
C1008 C1009 1.373 . S
C1008 C1010 1.389 . S
C1009 H988 0.950 . S
C1009 C1008 1.373 . S
C1009 C1025 1.377 . S
C1010 C1008 1.389 . S
C1010 C1011 1.524 . S
C1010 C1024 1.377 . S
C1011 C1010 1.524 . S
C1011 C1012 1.397 . S
C1011 C1016 1.363 . S
C1012 H989 0.950 . S
C1012 C1011 1.397 . S
C1012 C1013 1.334 . S
C1013 H990 0.950 . S
C1013 C1012 1.334 . S
C1013 C1014 1.287 . S
C1014 C1013 1.287 . S
C1014 C1015 1.524 . S
C1014 H1033 0.913 . S
C1015 H991 0.950 . S
C1015 C1014 1.524 . S
C1015 C1016 1.415 . S
C1016 H992 0.950 . S
C1016 C1011 1.363 . S
C1016 C1015 1.415 . S
C1017 H993 0.951 . S
C1017 C1018 1.366 . S
C1017 C1019 1.388 . S
C1018 C1017 1.366 . S
C1018 C1022 1.385 . S
C1019 H994 0.951 . S
C1019 C1017 1.388 . S
C1019 C1020 1.366 . S
C1020 C1019 1.366 . S
C1020 C1021 1.414 . S
C1020 C1023 1.499 . S
C1021 H995 0.950 . S
C1021 C1020 1.414 . S
C1021 C1022 1.374 . S
C1022 H996 0.950 . S
C1022 C1018 1.385 . S
C1022 C1021 1.374 . S
C1023 C1020 1.499 . S
C1023 C1024 1.373 . S
C1023 C1025 1.389 . S
C1024 H997 0.950 . S
C1024 C1010 1.377 . S
C1024 C1023 1.373 . S
C1025 C1009 1.377 . S
C1025 C1023 1.389 . S
C1025 C1026 1.524 . S
C1026 C1025 1.524 . S
C1026 C1027 1.397 . S
C1026 C1031 1.363 . S
C1027 H998 0.950 . S
C1027 C1026 1.397 . S
C1027 C1028 1.334 . S
C1028 H999 0.950 . S
C1028 C1027 1.334 . S
C1028 C1029 1.287 . S
C1029 C1028 1.287 . S
C1029 C1030 1.524 . S
C1029 H1032 0.999 . S
C1030 H1000 0.950 . S
C1030 C1029 1.524 . S
C1030 C1031 1.415 . S
C1031 H1001 0.950 . S
C1031 C1026 1.363 . S
C1031 C1030 1.415 . S
H1032 C1029 0.999 . S
H1033 C1014 0.913 . S
H1034 C1052 0.951 . S
H1035 C1054 0.951 . S
H1036 C1056 0.950 . S
H1037 C1057 0.950 . S
H1038 C1059 0.950 . S
H1039 C1062 0.950 . S
H1040 C1063 0.950 . S
H1041 C1065 0.950 . S
H1042 C1066 0.950 . S
H1043 C1067 0.951 . S
H1044 C1069 0.951 . S
H1045 C1071 0.950 . S
H1046 C1072 0.950 . S
H1047 C1074 0.950 . S
H1048 C1077 0.950 . S
H1049 C1078 0.950 . S
H1050 C1080 0.950 . S
H1051 C1081 0.950 . S
C1052 H1034 0.951 . S
C1052 C1053 1.366 . S
C1052 C1054 1.388 . S
C1053 C1052 1.366 . S
C1053 C1057 1.385 . S
C1054 H1035 0.951 . S
C1054 C1052 1.388 . S
C1054 C1055 1.366 . S
C1055 C1054 1.366 . S
C1055 C1056 1.414 . S
C1055 C1058 1.499 . S
C1056 H1036 0.950 . S
C1056 C1055 1.414 . S
C1056 C1057 1.374 . S
C1057 H1037 0.950 . S
C1057 C1053 1.385 . S
C1057 C1056 1.374 . S
C1058 C1055 1.499 . S
C1058 C1059 1.373 . S
C1058 C1060 1.389 . S
C1059 H1038 0.950 . S
C1059 C1058 1.373 . S
C1059 C1075 1.377 . S
C1060 C1058 1.389 . S
C1060 C1061 1.524 . S
C1060 C1074 1.377 . S
C1061 C1060 1.524 . S
C1061 C1062 1.397 . S
C1061 C1066 1.363 . S
C1062 H1039 0.950 . S
C1062 C1061 1.397 . S
C1062 C1063 1.334 . S
C1063 H1040 0.950 . S
C1063 C1062 1.334 . S
C1063 C1064 1.287 . S
C1064 C1063 1.287 . S
C1064 C1065 1.524 . S
C1064 H1083 0.913 . S
C1065 H1041 0.950 . S
C1065 C1064 1.524 . S
C1065 C1066 1.415 . S
C1066 H1042 0.950 . S
C1066 C1061 1.363 . S
C1066 C1065 1.415 . S
C1067 H1043 0.951 . S
C1067 C1068 1.366 . S
C1067 C1069 1.388 . S
C1068 C1067 1.366 . S
C1068 C1072 1.385 . S
C1069 H1044 0.951 . S
C1069 C1067 1.388 . S
C1069 C1070 1.366 . S
C1070 C1069 1.366 . S
C1070 C1071 1.414 . S
C1070 C1073 1.499 . S
C1071 H1045 0.950 . S
C1071 C1070 1.414 . S
C1071 C1072 1.374 . S
C1072 H1046 0.950 . S
C1072 C1068 1.385 . S
C1072 C1071 1.374 . S
C1073 C1070 1.499 . S
C1073 C1074 1.373 . S
C1073 C1075 1.389 . S
C1074 H1047 0.950 . S
C1074 C1060 1.377 . S
C1074 C1073 1.373 . S
C1075 C1059 1.377 . S
C1075 C1073 1.389 . S
C1075 C1076 1.524 . S
C1076 C1075 1.524 . S
C1076 C1077 1.397 . S
C1076 C1081 1.363 . S
C1077 H1048 0.950 . S
C1077 C1076 1.397 . S
C1077 C1078 1.334 . S
C1078 H1049 0.950 . S
C1078 C1077 1.334 . S
C1078 C1079 1.287 . S
C1079 C1078 1.287 . S
C1079 C1080 1.524 . S
C1079 H1082 0.999 . S
C1080 H1050 0.950 . S
C1080 C1079 1.524 . S
C1080 C1081 1.415 . S
C1081 H1051 0.950 . S
C1081 C1076 1.363 . S
C1081 C1080 1.415 . S
H1082 C1079 0.999 . S
H1083 C1064 0.913 . S
H1084 C1102 0.951 . S
H1085 C1104 0.951 . S
H1086 C1106 0.950 . S
H1087 C1107 0.950 . S
H1088 C1109 0.950 . S
H1089 C1112 0.950 . S
H1090 C1113 0.950 . S
H1091 C1115 0.950 . S
H1092 C1116 0.950 . S
H1093 C1117 0.951 . S
H1094 C1119 0.951 . S
H1095 C1121 0.950 . S
H1096 C1122 0.950 . S
H1097 C1124 0.950 . S
H1098 C1127 0.950 . S
H1099 C1128 0.950 . S
H1100 C1130 0.950 . S
H1101 C1131 0.950 . S
C1102 H1084 0.951 . S
C1102 C1103 1.366 . S
C1102 C1104 1.388 . S
C1103 C1102 1.366 . S
C1103 C1107 1.385 . S
C1104 H1085 0.951 . S
C1104 C1102 1.388 . S
C1104 C1105 1.366 . S
C1105 C1104 1.366 . S
C1105 C1106 1.414 . S
C1105 C1108 1.499 . S
C1106 H1086 0.950 . S
C1106 C1105 1.414 . S
C1106 C1107 1.374 . S
C1107 H1087 0.950 . S
C1107 C1103 1.385 . S
C1107 C1106 1.374 . S
C1108 C1105 1.499 . S
C1108 C1109 1.373 . S
C1108 C1110 1.389 . S
C1109 H1088 0.950 . S
C1109 C1108 1.373 . S
C1109 C1125 1.377 . S
C1110 C1108 1.389 . S
C1110 C1111 1.524 . S
C1110 C1124 1.377 . S
C1111 C1110 1.524 . S
C1111 C1112 1.397 . S
C1111 C1116 1.363 . S
C1112 H1089 0.950 . S
C1112 C1111 1.397 . S
C1112 C1113 1.334 . S
C1113 H1090 0.950 . S
C1113 C1112 1.334 . S
C1113 C1114 1.287 . S
C1114 C1113 1.287 . S
C1114 C1115 1.524 . S
C1114 H1133 0.913 . S
C1115 H1091 0.950 . S
C1115 C1114 1.524 . S
C1115 C1116 1.415 . S
C1116 H1092 0.950 . S
C1116 C1111 1.363 . S
C1116 C1115 1.415 . S
C1117 H1093 0.951 . S
C1117 C1118 1.366 . S
C1117 C1119 1.388 . S
C1118 C1117 1.366 . S
C1118 C1122 1.385 . S
C1119 H1094 0.951 . S
C1119 C1117 1.388 . S
C1119 C1120 1.366 . S
C1120 C1119 1.366 . S
C1120 C1121 1.414 . S
C1120 C1123 1.499 . S
C1121 H1095 0.950 . S
C1121 C1120 1.414 . S
C1121 C1122 1.374 . S
C1122 H1096 0.950 . S
C1122 C1118 1.385 . S
C1122 C1121 1.374 . S
C1123 C1120 1.499 . S
C1123 C1124 1.373 . S
C1123 C1125 1.389 . S
C1124 H1097 0.950 . S
C1124 C1110 1.377 . S
C1124 C1123 1.373 . S
C1125 C1109 1.377 . S
C1125 C1123 1.389 . S
C1125 C1126 1.524 . S
C1126 C1125 1.524 . S
C1126 C1127 1.397 . S
C1126 C1131 1.363 . S
C1127 H1098 0.950 . S
C1127 C1126 1.397 . S
C1127 C1128 1.334 . S
C1128 H1099 0.950 . S
C1128 C1127 1.334 . S
C1128 C1129 1.287 . S
C1129 C1128 1.287 . S
C1129 C1130 1.524 . S
C1129 H1132 0.999 . S
C1130 H1100 0.950 . S
C1130 C1129 1.524 . S
C1130 C1131 1.415 . S
C1131 H1101 0.950 . S
C1131 C1126 1.363 . S
C1131 C1130 1.415 . S
H1132 C1129 0.999 . S
H1133 C1114 0.913 . S
H1134 C1152 0.951 . S
H1135 C1154 0.951 . S
H1136 C1156 0.950 . S
H1137 C1157 0.950 . S
H1138 C1159 0.950 . S
H1139 C1162 0.950 . S
H1140 C1163 0.950 . S
H1141 C1165 0.950 . S
H1142 C1166 0.950 . S
H1143 C1167 0.951 . S
H1144 C1169 0.951 . S
H1145 C1171 0.950 . S
H1146 C1172 0.950 . S
H1147 C1174 0.950 . S
H1148 C1177 0.950 . S
H1149 C1178 0.950 . S
H1150 C1180 0.950 . S
H1151 C1181 0.950 . S
C1152 H1134 0.951 . S
C1152 C1153 1.366 . S
C1152 C1154 1.388 . S
C1153 C1152 1.366 . S
C1153 C1157 1.385 . S
C1154 H1135 0.951 . S
C1154 C1152 1.388 . S
C1154 C1155 1.366 . S
C1155 C1154 1.366 . S
C1155 C1156 1.414 . S
C1155 C1158 1.499 . S
C1156 H1136 0.950 . S
C1156 C1155 1.414 . S
C1156 C1157 1.374 . S
C1157 H1137 0.950 . S
C1157 C1153 1.385 . S
C1157 C1156 1.374 . S
C1158 C1155 1.499 . S
C1158 C1159 1.373 . S
C1158 C1160 1.389 . S
C1159 H1138 0.950 . S
C1159 C1158 1.373 . S
C1159 C1175 1.377 . S
C1160 C1158 1.389 . S
C1160 C1161 1.524 . S
C1160 C1174 1.377 . S
C1161 C1160 1.524 . S
C1161 C1162 1.397 . S
C1161 C1166 1.363 . S
C1162 H1139 0.950 . S
C1162 C1161 1.397 . S
C1162 C1163 1.334 . S
C1163 H1140 0.950 . S
C1163 C1162 1.334 . S
C1163 C1164 1.287 . S
C1164 C1163 1.287 . S
C1164 C1165 1.524 . S
C1164 H1183 0.913 . S
C1165 H1141 0.950 . S
C1165 C1164 1.524 . S
C1165 C1166 1.415 . S
C1166 H1142 0.950 . S
C1166 C1161 1.363 . S
C1166 C1165 1.415 . S
C1167 H1143 0.951 . S
C1167 C1168 1.366 . S
C1167 C1169 1.388 . S
C1168 C1167 1.366 . S
C1168 C1172 1.385 . S
C1169 H1144 0.951 . S
C1169 C1167 1.388 . S
C1169 C1170 1.366 . S
C1170 C1169 1.366 . S
C1170 C1171 1.414 . S
C1170 C1173 1.499 . S
C1171 H1145 0.950 . S
C1171 C1170 1.414 . S
C1171 C1172 1.374 . S
C1172 H1146 0.950 . S
C1172 C1168 1.385 . S
C1172 C1171 1.374 . S
C1173 C1170 1.499 . S
C1173 C1174 1.373 . S
C1173 C1175 1.389 . S
C1174 H1147 0.950 . S
C1174 C1160 1.377 . S
C1174 C1173 1.373 . S
C1175 C1159 1.377 . S
C1175 C1173 1.389 . S
C1175 C1176 1.524 . S
C1176 C1175 1.524 . S
C1176 C1177 1.397 . S
C1176 C1181 1.363 . S
C1177 H1148 0.950 . S
C1177 C1176 1.397 . S
C1177 C1178 1.334 . S
C1178 H1149 0.950 . S
C1178 C1177 1.334 . S
C1178 C1179 1.287 . S
C1179 C1178 1.287 . S
C1179 C1180 1.524 . S
C1179 H1182 0.999 . S
C1180 H1150 0.950 . S
C1180 C1179 1.524 . S
C1180 C1181 1.415 . S
C1181 H1151 0.950 . S
C1181 C1176 1.363 . S
C1181 C1180 1.415 . S
H1182 C1179 0.999 . S
H1183 C1164 0.913 . S
H1184 C1202 0.951 . S
H1185 C1204 0.951 . S
H1186 C1206 0.950 . S
H1187 C1207 0.950 . S
H1188 C1209 0.950 . S
H1189 C1212 0.950 . S
H1190 C1213 0.950 . S
H1191 C1215 0.950 . S
H1192 C1216 0.950 . S
H1193 C1217 0.951 . S
H1194 C1219 0.951 . S
H1195 C1221 0.950 . S
H1196 C1222 0.950 . S
H1197 C1224 0.950 . S
H1198 C1227 0.950 . S
H1199 C1228 0.950 . S
H1200 C1230 0.950 . S
H1201 C1231 0.950 . S
C1202 H1184 0.951 . S
C1202 C1203 1.366 . S
C1202 C1204 1.388 . S
C1203 C1202 1.366 . S
C1203 C1207 1.385 . S
C1204 H1185 0.951 . S
C1204 C1202 1.388 . S
C1204 C1205 1.366 . S
C1205 C1204 1.366 . S
C1205 C1206 1.414 . S
C1205 C1208 1.499 . S
C1206 H1186 0.950 . S
C1206 C1205 1.414 . S
C1206 C1207 1.374 . S
C1207 H1187 0.950 . S
C1207 C1203 1.385 . S
C1207 C1206 1.374 . S
C1208 C1205 1.499 . S
C1208 C1209 1.373 . S
C1208 C1210 1.389 . S
C1209 H1188 0.950 . S
C1209 C1208 1.373 . S
C1209 C1225 1.377 . S
C1210 C1208 1.389 . S
C1210 C1211 1.524 . S
C1210 C1224 1.377 . S
C1211 C1210 1.524 . S
C1211 C1212 1.397 . S
C1211 C1216 1.363 . S
C1212 H1189 0.950 . S
C1212 C1211 1.397 . S
C1212 C1213 1.334 . S
C1213 H1190 0.950 . S
C1213 C1212 1.334 . S
C1213 C1214 1.287 . S
C1214 C1213 1.287 . S
C1214 C1215 1.524 . S
C1214 H1233 0.913 . S
C1215 H1191 0.950 . S
C1215 C1214 1.524 . S
C1215 C1216 1.415 . S
C1216 H1192 0.950 . S
C1216 C1211 1.363 . S
C1216 C1215 1.415 . S
C1217 H1193 0.951 . S
C1217 C1218 1.366 . S
C1217 C1219 1.388 . S
C1218 C1217 1.366 . S
C1218 C1222 1.385 . S
C1219 H1194 0.951 . S
C1219 C1217 1.388 . S
C1219 C1220 1.366 . S
C1220 C1219 1.366 . S
C1220 C1221 1.414 . S
C1220 C1223 1.499 . S
C1221 H1195 0.950 . S
C1221 C1220 1.414 . S
C1221 C1222 1.374 . S
C1222 H1196 0.950 . S
C1222 C1218 1.385 . S
C1222 C1221 1.374 . S
C1223 C1220 1.499 . S
C1223 C1224 1.373 . S
C1223 C1225 1.389 . S
C1224 H1197 0.950 . S
C1224 C1210 1.377 . S
C1224 C1223 1.373 . S
C1225 C1209 1.377 . S
C1225 C1223 1.389 . S
C1225 C1226 1.524 . S
C1226 C1225 1.524 . S
C1226 C1227 1.397 . S
C1226 C1231 1.363 . S
C1227 H1198 0.950 . S
C1227 C1226 1.397 . S
C1227 C1228 1.334 . S
C1228 H1199 0.950 . S
C1228 C1227 1.334 . S
C1228 C1229 1.287 . S
C1229 C1228 1.287 . S
C1229 C1230 1.524 . S
C1229 H1232 0.999 . S
C1230 H1200 0.950 . S
C1230 C1229 1.524 . S
C1230 C1231 1.415 . S
C1231 H1201 0.950 . S
C1231 C1226 1.363 . S
C1231 C1230 1.415 . S
H1232 C1229 0.999 . S
H1233 C1214 0.913 . S
H1234 C1252 0.951 . S
H1235 C1254 0.951 . S
H1236 C1256 0.950 . S
H1237 C1257 0.950 . S
H1238 C1259 0.950 . S
H1239 C1262 0.950 . S
H1240 C1263 0.950 . S
H1241 C1265 0.950 . S
H1242 C1266 0.950 . S
H1243 C1267 0.951 . S
H1244 C1269 0.951 . S
H1245 C1271 0.950 . S
H1246 C1272 0.950 . S
H1247 C1274 0.950 . S
H1248 C1277 0.950 . S
H1249 C1278 0.950 . S
H1250 C1280 0.950 . S
H1251 C1281 0.950 . S
C1252 H1234 0.951 . S
C1252 C1253 1.366 . S
C1252 C1254 1.388 . S
C1253 C1252 1.366 . S
C1253 C1257 1.385 . S
C1254 H1235 0.951 . S
C1254 C1252 1.388 . S
C1254 C1255 1.366 . S
C1255 C1254 1.366 . S
C1255 C1256 1.414 . S
C1255 C1258 1.499 . S
C1256 H1236 0.950 . S
C1256 C1255 1.414 . S
C1256 C1257 1.374 . S
C1257 H1237 0.950 . S
C1257 C1253 1.385 . S
C1257 C1256 1.374 . S
C1258 C1255 1.499 . S
C1258 C1259 1.373 . S
C1258 C1260 1.389 . S
C1259 H1238 0.950 . S
C1259 C1258 1.373 . S
C1259 C1275 1.377 . S
C1260 C1258 1.389 . S
C1260 C1261 1.524 . S
C1260 C1274 1.377 . S
C1261 C1260 1.524 . S
C1261 C1262 1.397 . S
C1261 C1266 1.363 . S
C1262 H1239 0.950 . S
C1262 C1261 1.397 . S
C1262 C1263 1.334 . S
C1263 H1240 0.950 . S
C1263 C1262 1.334 . S
C1263 C1264 1.287 . S
C1264 C1263 1.287 . S
C1264 C1265 1.524 . S
C1264 H1283 0.913 . S
C1265 H1241 0.950 . S
C1265 C1264 1.524 . S
C1265 C1266 1.415 . S
C1266 H1242 0.950 . S
C1266 C1261 1.363 . S
C1266 C1265 1.415 . S
C1267 H1243 0.951 . S
C1267 C1268 1.366 . S
C1267 C1269 1.388 . S
C1268 C1267 1.366 . S
C1268 C1272 1.385 . S
C1269 H1244 0.951 . S
C1269 C1267 1.388 . S
C1269 C1270 1.366 . S
C1270 C1269 1.366 . S
C1270 C1271 1.414 . S
C1270 C1273 1.499 . S
C1271 H1245 0.950 . S
C1271 C1270 1.414 . S
C1271 C1272 1.374 . S
C1272 H1246 0.950 . S
C1272 C1268 1.385 . S
C1272 C1271 1.374 . S
C1273 C1270 1.499 . S
C1273 C1274 1.373 . S
C1273 C1275 1.389 . S
C1274 H1247 0.950 . S
C1274 C1260 1.377 . S
C1274 C1273 1.373 . S
C1275 C1259 1.377 . S
C1275 C1273 1.389 . S
C1275 C1276 1.524 . S
C1276 C1275 1.524 . S
C1276 C1277 1.397 . S
C1276 C1281 1.363 . S
C1277 H1248 0.950 . S
C1277 C1276 1.397 . S
C1277 C1278 1.334 . S
C1278 H1249 0.950 . S
C1278 C1277 1.334 . S
C1278 C1279 1.287 . S
C1279 C1278 1.287 . S
C1279 C1280 1.524 . S
C1279 H1282 0.999 . S
C1280 H1250 0.950 . S
C1280 C1279 1.524 . S
C1280 C1281 1.415 . S
C1281 H1251 0.950 . S
C1281 C1276 1.363 . S
C1281 C1280 1.415 . S
H1282 C1279 0.999 . S
H1283 C1264 0.913 . S
H1284 C1302 0.951 . S
H1285 C1304 0.951 . S
H1286 C1306 0.950 . S
H1287 C1307 0.950 . S
H1288 C1309 0.950 . S
H1289 C1312 0.950 . S
H1290 C1313 0.950 . S
H1291 C1315 0.950 . S
H1292 C1316 0.950 . S
H1293 C1317 0.951 . S
H1294 C1319 0.951 . S
H1295 C1321 0.950 . S
H1296 C1322 0.950 . S
H1297 C1324 0.950 . S
H1298 C1327 0.950 . S
H1299 C1328 0.950 . S
H1300 C1330 0.950 . S
H1301 C1331 0.950 . S
C1302 H1284 0.951 . S
C1302 C1303 1.366 . S
C1302 C1304 1.388 . S
C1303 C1302 1.366 . S
C1303 C1307 1.385 . S
C1304 H1285 0.951 . S
C1304 C1302 1.388 . S
C1304 C1305 1.366 . S
C1305 C1304 1.366 . S
C1305 C1306 1.414 . S
C1305 C1308 1.499 . S
C1306 H1286 0.950 . S
C1306 C1305 1.414 . S
C1306 C1307 1.374 . S
C1307 H1287 0.950 . S
C1307 C1303 1.385 . S
C1307 C1306 1.374 . S
C1308 C1305 1.499 . S
C1308 C1309 1.373 . S
C1308 C1310 1.389 . S
C1309 H1288 0.950 . S
C1309 C1308 1.373 . S
C1309 C1325 1.377 . S
C1310 C1308 1.389 . S
C1310 C1311 1.524 . S
C1310 C1324 1.377 . S
C1311 C1310 1.524 . S
C1311 C1312 1.397 . S
C1311 C1316 1.363 . S
C1312 H1289 0.950 . S
C1312 C1311 1.397 . S
C1312 C1313 1.334 . S
C1313 H1290 0.950 . S
C1313 C1312 1.334 . S
C1313 C1314 1.287 . S
C1314 C1313 1.287 . S
C1314 C1315 1.524 . S
C1314 H1333 0.913 . S
C1315 H1291 0.950 . S
C1315 C1314 1.524 . S
C1315 C1316 1.415 . S
C1316 H1292 0.950 . S
C1316 C1311 1.363 . S
C1316 C1315 1.415 . S
C1317 H1293 0.951 . S
C1317 C1318 1.366 . S
C1317 C1319 1.388 . S
C1318 C1317 1.366 . S
C1318 C1322 1.385 . S
C1319 H1294 0.951 . S
C1319 C1317 1.388 . S
C1319 C1320 1.366 . S
C1320 C1319 1.366 . S
C1320 C1321 1.414 . S
C1320 C1323 1.499 . S
C1321 H1295 0.950 . S
C1321 C1320 1.414 . S
C1321 C1322 1.374 . S
C1322 H1296 0.950 . S
C1322 C1318 1.385 . S
C1322 C1321 1.374 . S
C1323 C1320 1.499 . S
C1323 C1324 1.373 . S
C1323 C1325 1.389 . S
C1324 H1297 0.950 . S
C1324 C1310 1.377 . S
C1324 C1323 1.373 . S
C1325 C1309 1.377 . S
C1325 C1323 1.389 . S
C1325 C1326 1.524 . S
C1326 C1325 1.524 . S
C1326 C1327 1.397 . S
C1326 C1331 1.363 . S
C1327 H1298 0.950 . S
C1327 C1326 1.397 . S
C1327 C1328 1.334 . S
C1328 H1299 0.950 . S
C1328 C1327 1.334 . S
C1328 C1329 1.287 . S
C1329 C1328 1.287 . S
C1329 C1330 1.524 . S
C1329 H1332 0.999 . S
C1330 H1300 0.950 . S
C1330 C1329 1.524 . S
C1330 C1331 1.415 . S
C1331 H1301 0.950 . S
C1331 C1326 1.363 . S
C1331 C1330 1.415 . S
H1332 C1329 0.999 . S
H1333 C1314 0.913 . S
H1334 C1352 0.951 . S
H1335 C1354 0.951 . S
H1336 C1356 0.950 . S
H1337 C1357 0.950 . S
H1338 C1359 0.950 . S
H1339 C1362 0.950 . S
H1340 C1363 0.950 . S
H1341 C1365 0.950 . S
H1342 C1366 0.950 . S
H1343 C1367 0.951 . S
H1344 C1369 0.951 . S
H1345 C1371 0.950 . S
H1346 C1372 0.950 . S
H1347 C1374 0.950 . S
H1348 C1377 0.950 . S
H1349 C1378 0.950 . S
H1350 C1380 0.950 . S
H1351 C1381 0.950 . S
C1352 H1334 0.951 . S
C1352 C1353 1.366 . S
C1352 C1354 1.388 . S
C1353 C1352 1.366 . S
C1353 C1357 1.385 . S
C1354 H1335 0.951 . S
C1354 C1352 1.388 . S
C1354 C1355 1.366 . S
C1355 C1354 1.366 . S
C1355 C1356 1.414 . S
C1355 C1358 1.499 . S
C1356 H1336 0.950 . S
C1356 C1355 1.414 . S
C1356 C1357 1.374 . S
C1357 H1337 0.950 . S
C1357 C1353 1.385 . S
C1357 C1356 1.374 . S
C1358 C1355 1.499 . S
C1358 C1359 1.373 . S
C1358 C1360 1.389 . S
C1359 H1338 0.950 . S
C1359 C1358 1.373 . S
C1359 C1375 1.377 . S
C1360 C1358 1.389 . S
C1360 C1361 1.524 . S
C1360 C1374 1.377 . S
C1361 C1360 1.524 . S
C1361 C1362 1.397 . S
C1361 C1366 1.363 . S
C1362 H1339 0.950 . S
C1362 C1361 1.397 . S
C1362 C1363 1.334 . S
C1363 H1340 0.950 . S
C1363 C1362 1.334 . S
C1363 C1364 1.287 . S
C1364 C1363 1.287 . S
C1364 C1365 1.524 . S
C1364 H1383 0.913 . S
C1365 H1341 0.950 . S
C1365 C1364 1.524 . S
C1365 C1366 1.415 . S
C1366 H1342 0.950 . S
C1366 C1361 1.363 . S
C1366 C1365 1.415 . S
C1367 H1343 0.951 . S
C1367 C1368 1.366 . S
C1367 C1369 1.388 . S
C1368 C1367 1.366 . S
C1368 C1372 1.385 . S
C1369 H1344 0.951 . S
C1369 C1367 1.388 . S
C1369 C1370 1.366 . S
C1370 C1369 1.366 . S
C1370 C1371 1.414 . S
C1370 C1373 1.499 . S
C1371 H1345 0.950 . S
C1371 C1370 1.414 . S
C1371 C1372 1.374 . S
C1372 H1346 0.950 . S
C1372 C1368 1.385 . S
C1372 C1371 1.374 . S
C1373 C1370 1.499 . S
C1373 C1374 1.373 . S
C1373 C1375 1.389 . S
C1374 H1347 0.950 . S
C1374 C1360 1.377 . S
C1374 C1373 1.373 . S
C1375 C1359 1.377 . S
C1375 C1373 1.389 . S
C1375 C1376 1.524 . S
C1376 C1375 1.524 . S
C1376 C1377 1.397 . S
C1376 C1381 1.363 . S
C1377 H1348 0.950 . S
C1377 C1376 1.397 . S
C1377 C1378 1.334 . S
C1378 H1349 0.950 . S
C1378 C1377 1.334 . S
C1378 C1379 1.287 . S
C1379 C1378 1.287 . S
C1379 C1380 1.524 . S
C1379 H1382 0.999 . S
C1380 H1350 0.950 . S
C1380 C1379 1.524 . S
C1380 C1381 1.415 . S
C1381 H1351 0.950 . S
C1381 C1376 1.363 . S
C1381 C1380 1.415 . S
H1382 C1379 0.999 . S
H1383 C1364 0.913 . S
H1384 C1402 0.951 . S
H1385 C1404 0.951 . S
H1386 C1406 0.950 . S
H1387 C1407 0.950 . S
H1388 C1409 0.950 . S
H1389 C1412 0.950 . S
H1390 C1413 0.950 . S
H1391 C1415 0.950 . S
H1392 C1416 0.950 . S
H1393 C1417 0.951 . S
H1394 C1419 0.951 . S
H1395 C1421 0.950 . S
H1396 C1422 0.950 . S
H1397 C1424 0.950 . S
H1398 C1427 0.950 . S
H1399 C1428 0.950 . S
H1400 C1430 0.950 . S
H1401 C1431 0.950 . S
C1402 H1384 0.951 . S
C1402 C1403 1.366 . S
C1402 C1404 1.388 . S
C1403 C1402 1.366 . S
C1403 C1407 1.385 . S
C1404 H1385 0.951 . S
C1404 C1402 1.388 . S
C1404 C1405 1.366 . S
C1405 C1404 1.366 . S
C1405 C1406 1.414 . S
C1405 C1408 1.499 . S
C1406 H1386 0.950 . S
C1406 C1405 1.414 . S
C1406 C1407 1.374 . S
C1407 H1387 0.950 . S
C1407 C1403 1.385 . S
C1407 C1406 1.374 . S
C1408 C1405 1.499 . S
C1408 C1409 1.373 . S
C1408 C1410 1.389 . S
C1409 H1388 0.950 . S
C1409 C1408 1.373 . S
C1409 C1425 1.377 . S
C1410 C1408 1.389 . S
C1410 C1411 1.524 . S
C1410 C1424 1.377 . S
C1411 C1410 1.524 . S
C1411 C1412 1.397 . S
C1411 C1416 1.363 . S
C1412 H1389 0.950 . S
C1412 C1411 1.397 . S
C1412 C1413 1.334 . S
C1413 H1390 0.950 . S
C1413 C1412 1.334 . S
C1413 C1414 1.287 . S
C1414 C1413 1.287 . S
C1414 C1415 1.524 . S
C1414 H1433 0.913 . S
C1415 H1391 0.950 . S
C1415 C1414 1.524 . S
C1415 C1416 1.415 . S
C1416 H1392 0.950 . S
C1416 C1411 1.363 . S
C1416 C1415 1.415 . S
C1417 H1393 0.951 . S
C1417 C1418 1.366 . S
C1417 C1419 1.388 . S
C1418 C1417 1.366 . S
C1418 C1422 1.385 . S
C1419 H1394 0.951 . S
C1419 C1417 1.388 . S
C1419 C1420 1.366 . S
C1420 C1419 1.366 . S
C1420 C1421 1.414 . S
C1420 C1423 1.499 . S
C1421 H1395 0.950 . S
C1421 C1420 1.414 . S
C1421 C1422 1.374 . S
C1422 H1396 0.950 . S
C1422 C1418 1.385 . S
C1422 C1421 1.374 . S
C1423 C1420 1.499 . S
C1423 C1424 1.373 . S
C1423 C1425 1.389 . S
C1424 H1397 0.950 . S
C1424 C1410 1.377 . S
C1424 C1423 1.373 . S
C1425 C1409 1.377 . S
C1425 C1423 1.389 . S
C1425 C1426 1.524 . S
C1426 C1425 1.524 . S
C1426 C1427 1.397 . S
C1426 C1431 1.363 . S
C1427 H1398 0.950 . S
C1427 C1426 1.397 . S
C1427 C1428 1.334 . S
C1428 H1399 0.950 . S
C1428 C1427 1.334 . S
C1428 C1429 1.287 . S
C1429 C1428 1.287 . S
C1429 C1430 1.524 . S
C1429 H1432 0.999 . S
C1430 H1400 0.950 . S
C1430 C1429 1.524 . S
C1430 C1431 1.415 . S
C1431 H1401 0.950 . S
C1431 C1426 1.363 . S
C1431 C1430 1.415 . S
H1432 C1429 0.999 . S
H1433 C1414 0.913 . S
H1434 C1452 0.951 . S
H1435 C1454 0.951 . S
H1436 C1456 0.950 . S
H1437 C1457 0.950 . S
H1438 C1459 0.950 . S
H1439 C1462 0.950 . S
H1440 C1463 0.950 . S
H1441 C1465 0.950 . S
H1442 C1466 0.950 . S
H1443 C1467 0.951 . S
H1444 C1469 0.951 . S
H1445 C1471 0.950 . S
H1446 C1472 0.950 . S
H1447 C1474 0.950 . S
H1448 C1477 0.950 . S
H1449 C1478 0.950 . S
H1450 C1480 0.950 . S
H1451 C1481 0.950 . S
C1452 H1434 0.951 . S
C1452 C1453 1.366 . S
C1452 C1454 1.388 . S
C1453 C1452 1.366 . S
C1453 C1457 1.385 . S
C1454 H1435 0.951 . S
C1454 C1452 1.388 . S
C1454 C1455 1.366 . S
C1455 C1454 1.366 . S
C1455 C1456 1.414 . S
C1455 C1458 1.499 . S
C1456 H1436 0.950 . S
C1456 C1455 1.414 . S
C1456 C1457 1.374 . S
C1457 H1437 0.950 . S
C1457 C1453 1.385 . S
C1457 C1456 1.374 . S
C1458 C1455 1.499 . S
C1458 C1459 1.373 . S
C1458 C1460 1.389 . S
C1459 H1438 0.950 . S
C1459 C1458 1.373 . S
C1459 C1475 1.377 . S
C1460 C1458 1.389 . S
C1460 C1461 1.524 . S
C1460 C1474 1.377 . S
C1461 C1460 1.524 . S
C1461 C1462 1.397 . S
C1461 C1466 1.363 . S
C1462 H1439 0.950 . S
C1462 C1461 1.397 . S
C1462 C1463 1.334 . S
C1463 H1440 0.950 . S
C1463 C1462 1.334 . S
C1463 C1464 1.287 . S
C1464 C1463 1.287 . S
C1464 C1465 1.524 . S
C1464 H1483 0.913 . S
C1465 H1441 0.950 . S
C1465 C1464 1.524 . S
C1465 C1466 1.415 . S
C1466 H1442 0.950 . S
C1466 C1461 1.363 . S
C1466 C1465 1.415 . S
C1467 H1443 0.951 . S
C1467 C1468 1.366 . S
C1467 C1469 1.388 . S
C1468 C1467 1.366 . S
C1468 C1472 1.385 . S
C1469 H1444 0.951 . S
C1469 C1467 1.388 . S
C1469 C1470 1.366 . S
C1470 C1469 1.366 . S
C1470 C1471 1.414 . S
C1470 C1473 1.499 . S
C1471 H1445 0.950 . S
C1471 C1470 1.414 . S
C1471 C1472 1.374 . S
C1472 H1446 0.950 . S
C1472 C1468 1.385 . S
C1472 C1471 1.374 . S
C1473 C1470 1.499 . S
C1473 C1474 1.373 . S
C1473 C1475 1.389 . S
C1474 H1447 0.950 . S
C1474 C1460 1.377 . S
C1474 C1473 1.373 . S
C1475 C1459 1.377 . S
C1475 C1473 1.389 . S
C1475 C1476 1.524 . S
C1476 C1475 1.524 . S
C1476 C1477 1.397 . S
C1476 C1481 1.363 . S
C1477 H1448 0.950 . S
C1477 C1476 1.397 . S
C1477 C1478 1.334 . S
C1478 H1449 0.950 . S
C1478 C1477 1.334 . S
C1478 C1479 1.287 . S
C1479 C1478 1.287 . S
C1479 C1480 1.524 . S
C1479 H1482 0.999 . S
C1480 H1450 0.950 . S
C1480 C1479 1.524 . S
C1480 C1481 1.415 . S
C1481 H1451 0.950 . S
C1481 C1476 1.363 . S
C1481 C1480 1.415 . S
H1482 C1479 0.999 . S
H1483 C1464 0.913 . S
H1484 C1502 0.951 . S
H1485 C1504 0.951 . S
H1486 C1506 0.950 . S
H1487 C1507 0.950 . S
H1488 C1509 0.950 . S
H1489 C1512 0.950 . S
H1490 C1513 0.950 . S
H1491 C1515 0.950 . S
H1492 C1516 0.950 . S
H1493 C1517 0.951 . S
H1494 C1519 0.951 . S
H1495 C1521 0.950 . S
H1496 C1522 0.950 . S
H1497 C1524 0.950 . S
H1498 C1527 0.950 . S
H1499 C1528 0.950 . S
H1500 C1530 0.950 . S
H1501 C1531 0.950 . S
C1502 H1484 0.951 . S
C1502 C1503 1.366 . S
C1502 C1504 1.388 . S
C1503 C1502 1.366 . S
C1503 C1507 1.385 . S
C1504 H1485 0.951 . S
C1504 C1502 1.388 . S
C1504 C1505 1.366 . S
C1505 C1504 1.366 . S
C1505 C1506 1.414 . S
C1505 C1508 1.499 . S
C1506 H1486 0.950 . S
C1506 C1505 1.414 . S
C1506 C1507 1.374 . S
C1507 H1487 0.950 . S
C1507 C1503 1.385 . S
C1507 C1506 1.374 . S
C1508 C1505 1.499 . S
C1508 C1509 1.373 . S
C1508 C1510 1.389 . S
C1509 H1488 0.950 . S
C1509 C1508 1.373 . S
C1509 C1525 1.377 . S
C1510 C1508 1.389 . S
C1510 C1511 1.524 . S
C1510 C1524 1.377 . S
C1511 C1510 1.524 . S
C1511 C1512 1.397 . S
C1511 C1516 1.363 . S
C1512 H1489 0.950 . S
C1512 C1511 1.397 . S
C1512 C1513 1.334 . S
C1513 H1490 0.950 . S
C1513 C1512 1.334 . S
C1513 C1514 1.287 . S
C1514 C1513 1.287 . S
C1514 C1515 1.524 . S
C1514 H1533 0.913 . S
C1515 H1491 0.950 . S
C1515 C1514 1.524 . S
C1515 C1516 1.415 . S
C1516 H1492 0.950 . S
C1516 C1511 1.363 . S
C1516 C1515 1.415 . S
C1517 H1493 0.951 . S
C1517 C1518 1.366 . S
C1517 C1519 1.388 . S
C1518 C1517 1.366 . S
C1518 C1522 1.385 . S
C1519 H1494 0.951 . S
C1519 C1517 1.388 . S
C1519 C1520 1.366 . S
C1520 C1519 1.366 . S
C1520 C1521 1.414 . S
C1520 C1523 1.499 . S
C1521 H1495 0.950 . S
C1521 C1520 1.414 . S
C1521 C1522 1.374 . S
C1522 H1496 0.950 . S
C1522 C1518 1.385 . S
C1522 C1521 1.374 . S
C1523 C1520 1.499 . S
C1523 C1524 1.373 . S
C1523 C1525 1.389 . S
C1524 H1497 0.950 . S
C1524 C1510 1.377 . S
C1524 C1523 1.373 . S
C1525 C1509 1.377 . S
C1525 C1523 1.389 . S
C1525 C1526 1.524 . S
C1526 C1525 1.524 . S
C1526 C1527 1.397 . S
C1526 C1531 1.363 . S
C1527 H1498 0.950 . S
C1527 C1526 1.397 . S
C1527 C1528 1.334 . S
C1528 H1499 0.950 . S
C1528 C1527 1.334 . S
C1528 C1529 1.287 . S
C1529 C1528 1.287 . S
C1529 C1530 1.524 . S
C1529 H1532 0.999 . S
C1530 H1500 0.950 . S
C1530 C1529 1.524 . S
C1530 C1531 1.415 . S
C1531 H1501 0.950 . S
C1531 C1526 1.363 . S
C1531 C1530 1.415 . S
H1532 C1529 0.999 . S
H1533 C1514 0.913 . S
H1534 C1552 0.951 . S
H1535 C1554 0.951 . S
H1536 C1556 0.950 . S
H1537 C1557 0.950 . S
H1538 C1559 0.950 . S
H1539 C1562 0.950 . S
H1540 C1563 0.950 . S
H1541 C1565 0.950 . S
H1542 C1566 0.950 . S
H1543 C1567 0.951 . S
H1544 C1569 0.951 . S
H1545 C1571 0.950 . S
H1546 C1572 0.950 . S
H1547 C1574 0.950 . S
H1548 C1577 0.950 . S
H1549 C1578 0.950 . S
H1550 C1580 0.950 . S
H1551 C1581 0.950 . S
C1552 H1534 0.951 . S
C1552 C1553 1.366 . S
C1552 C1554 1.388 . S
C1553 C1552 1.366 . S
C1553 C1557 1.385 . S
C1554 H1535 0.951 . S
C1554 C1552 1.388 . S
C1554 C1555 1.366 . S
C1555 C1554 1.366 . S
C1555 C1556 1.414 . S
C1555 C1558 1.499 . S
C1556 H1536 0.950 . S
C1556 C1555 1.414 . S
C1556 C1557 1.374 . S
C1557 H1537 0.950 . S
C1557 C1553 1.385 . S
C1557 C1556 1.374 . S
C1558 C1555 1.499 . S
C1558 C1559 1.373 . S
C1558 C1560 1.389 . S
C1559 H1538 0.950 . S
C1559 C1558 1.373 . S
C1559 C1575 1.377 . S
C1560 C1558 1.389 . S
C1560 C1561 1.524 . S
C1560 C1574 1.377 . S
C1561 C1560 1.524 . S
C1561 C1562 1.397 . S
C1561 C1566 1.363 . S
C1562 H1539 0.950 . S
C1562 C1561 1.397 . S
C1562 C1563 1.334 . S
C1563 H1540 0.950 . S
C1563 C1562 1.334 . S
C1563 C1564 1.287 . S
C1564 C1563 1.287 . S
C1564 C1565 1.524 . S
C1564 H1583 0.913 . S
C1565 H1541 0.950 . S
C1565 C1564 1.524 . S
C1565 C1566 1.415 . S
C1566 H1542 0.950 . S
C1566 C1561 1.363 . S
C1566 C1565 1.415 . S
C1567 H1543 0.951 . S
C1567 C1568 1.366 . S
C1567 C1569 1.388 . S
C1568 C1567 1.366 . S
C1568 C1572 1.385 . S
C1569 H1544 0.951 . S
C1569 C1567 1.388 . S
C1569 C1570 1.366 . S
C1570 C1569 1.366 . S
C1570 C1571 1.414 . S
C1570 C1573 1.499 . S
C1571 H1545 0.950 . S
C1571 C1570 1.414 . S
C1571 C1572 1.374 . S
C1572 H1546 0.950 . S
C1572 C1568 1.385 . S
C1572 C1571 1.374 . S
C1573 C1570 1.499 . S
C1573 C1574 1.373 . S
C1573 C1575 1.389 . S
C1574 H1547 0.950 . S
C1574 C1560 1.377 . S
C1574 C1573 1.373 . S
C1575 C1559 1.377 . S
C1575 C1573 1.389 . S
C1575 C1576 1.524 . S
C1576 C1575 1.524 . S
C1576 C1577 1.397 . S
C1576 C1581 1.363 . S
C1577 H1548 0.950 . S
C1577 C1576 1.397 . S
C1577 C1578 1.334 . S
C1578 H1549 0.950 . S
C1578 C1577 1.334 . S
C1578 C1579 1.287 . S
C1579 C1578 1.287 . S
C1579 C1580 1.524 . S
C1579 H1582 0.999 . S
C1580 H1550 0.950 . S
C1580 C1579 1.524 . S
C1580 C1581 1.415 . S
C1581 H1551 0.950 . S
C1581 C1576 1.363 . S
C1581 C1580 1.415 . S
H1582 C1579 0.999 . S
H1583 C1564 0.913 . S
H1584 C1602 0.951 . S
H1585 C1604 0.951 . S
H1586 C1606 0.950 . S
H1587 C1607 0.950 . S
H1588 C1609 0.950 . S
H1589 C1612 0.950 . S
H1590 C1613 0.950 . S
H1591 C1615 0.950 . S
H1592 C1616 0.950 . S
H1593 C1617 0.951 . S
H1594 C1619 0.951 . S
H1595 C1621 0.950 . S
H1596 C1622 0.950 . S
H1597 C1624 0.950 . S
H1598 C1627 0.950 . S
H1599 C1628 0.950 . S
H1600 C1630 0.950 . S
H1601 C1631 0.950 . S
C1602 H1584 0.951 . S
C1602 C1603 1.366 . S
C1602 C1604 1.388 . S
C1603 C1602 1.366 . S
C1603 C1607 1.385 . S
C1604 H1585 0.951 . S
C1604 C1602 1.388 . S
C1604 C1605 1.366 . S
C1605 C1604 1.366 . S
C1605 C1606 1.414 . S
C1605 C1608 1.499 . S
C1606 H1586 0.950 . S
C1606 C1605 1.414 . S
C1606 C1607 1.374 . S
C1607 H1587 0.950 . S
C1607 C1603 1.385 . S
C1607 C1606 1.374 . S
C1608 C1605 1.499 . S
C1608 C1609 1.373 . S
C1608 C1610 1.389 . S
C1609 H1588 0.950 . S
C1609 C1608 1.373 . S
C1609 C1625 1.377 1_554 S
C1610 C1608 1.389 . S
C1610 C1611 1.524 . S
C1610 C1624 1.377 1_554 S
C1611 C1610 1.524 . S
C1611 C1612 1.397 . S
C1611 C1616 1.363 . S
C1612 H1589 0.950 . S
C1612 C1611 1.397 . S
C1612 C1613 1.334 . S
C1613 H1590 0.950 . S
C1613 C1612 1.334 . S
C1613 C1614 1.287 . S
C1614 C1613 1.287 . S
C1614 C1615 1.524 . S
C1614 H1633 0.913 . S
C1615 H1591 0.950 . S
C1615 C1614 1.524 . S
C1615 C1616 1.415 . S
C1616 H1592 0.950 . S
C1616 C1611 1.363 . S
C1616 C1615 1.415 . S
C1617 H1593 0.951 . S
C1617 C1618 1.366 . S
C1617 C1619 1.388 . S
C1618 C1617 1.366 . S
C1618 C1622 1.385 . S
C1619 H1594 0.951 . S
C1619 C1617 1.388 . S
C1619 C1620 1.366 . S
C1620 C1619 1.366 . S
C1620 C1621 1.414 . S
C1620 C1623 1.499 . S
C1621 H1595 0.950 . S
C1621 C1620 1.414 . S
C1621 C1622 1.374 . S
C1622 H1596 0.950 . S
C1622 C1618 1.385 . S
C1622 C1621 1.374 . S
C1623 C1620 1.499 . S
C1623 C1624 1.373 . S
C1623 C1625 1.389 . S
C1624 H1597 0.950 . S
C1624 C1610 1.377 1_556 S
C1624 C1623 1.373 . S
C1625 C1609 1.377 1_556 S
C1625 C1623 1.389 . S
C1625 C1626 1.524 . S
C1626 C1625 1.524 . S
C1626 C1627 1.397 . S
C1626 C1631 1.363 . S
C1627 H1598 0.950 . S
C1627 C1626 1.397 . S
C1627 C1628 1.334 . S
C1628 H1599 0.950 . S
C1628 C1627 1.334 . S
C1628 C1629 1.287 . S
C1629 C1628 1.287 . S
C1629 C1630 1.524 . S
C1629 H1632 0.999 . S
C1630 H1600 0.950 . S
C1630 C1629 1.524 . S
C1630 C1631 1.415 . S
C1631 H1601 0.950 . S
C1631 C1626 1.363 . S
C1631 C1630 1.415 . S
H1632 C1629 0.999 . S
H1633 C1614 0.913 . S
H1634 C1652 0.951 . S
H1635 C1654 0.951 . S
H1636 C1656 0.950 . S
H1637 C1657 0.950 . S
H1638 C1659 0.950 . S
H1639 C1662 0.950 . S
H1640 C1663 0.950 . S
H1641 C1665 0.950 . S
H1642 C1666 0.950 . S
H1643 C1667 0.951 . S
H1644 C1669 0.951 . S
H1645 C1671 0.950 . S
H1646 C1672 0.950 . S
H1647 C1674 0.950 . S
H1648 C1677 0.950 . S
H1649 C1678 0.950 . S
H1650 C1680 0.950 . S
H1651 C1681 0.950 . S
C1652 H1634 0.951 . S
C1652 C1653 1.366 . S
C1652 C1654 1.388 . S
C1653 C1652 1.366 . S
C1653 C1657 1.385 1_545 S
C1654 H1635 0.951 . S
C1654 C1652 1.388 . S
C1654 C1655 1.366 . S
C1655 C1654 1.366 . S
C1655 C1656 1.414 1_545 S
C1655 C1658 1.499 . S
C1656 H1636 0.950 . S
C1656 C1655 1.414 1_565 S
C1656 C1657 1.374 . S
C1657 H1637 0.950 . S
C1657 C1653 1.385 1_565 S
C1657 C1656 1.374 . S
C1658 C1655 1.499 . S
C1658 C1659 1.373 1_545 S
C1658 C1660 1.389 . S
C1659 H1638 0.950 . S
C1659 C1658 1.373 1_565 S
C1659 C1675 1.377 1_556 S
C1660 C1658 1.389 . S
C1660 C1661 1.524 . S
C1660 C1674 1.377 1_556 S
C1661 C1660 1.524 . S
C1661 C1662 1.397 . S
C1661 C1666 1.363 . S
C1662 H1639 0.950 . S
C1662 C1661 1.397 . S
C1662 C1663 1.334 . S
C1663 H1640 0.950 . S
C1663 C1662 1.334 . S
C1663 C1664 1.287 . S
C1664 C1663 1.287 . S
C1664 C1665 1.524 . S
C1664 H1683 0.913 . S
C1665 H1641 0.950 . S
C1665 C1664 1.524 . S
C1665 C1666 1.415 . S
C1666 H1642 0.950 . S
C1666 C1661 1.363 . S
C1666 C1665 1.415 . S
C1667 H1643 0.951 . S
C1667 C1668 1.366 . S
C1667 C1669 1.388 . S
C1668 C1667 1.366 . S
C1668 C1672 1.385 1_565 S
C1669 H1644 0.951 . S
C1669 C1667 1.388 . S
C1669 C1670 1.366 . S
C1670 C1669 1.366 . S
C1670 C1671 1.414 1_565 S
C1670 C1673 1.499 . S
C1671 H1645 0.950 . S
C1671 C1670 1.414 1_545 S
C1671 C1672 1.374 . S
C1672 H1646 0.950 . S
C1672 C1668 1.385 1_545 S
C1672 C1671 1.374 . S
C1673 C1670 1.499 . S
C1673 C1674 1.373 1_565 S
C1673 C1675 1.389 . S
C1674 H1647 0.950 . S
C1674 C1660 1.377 1_554 S
C1674 C1673 1.373 1_545 S
C1675 C1659 1.377 1_554 S
C1675 C1673 1.389 . S
C1675 C1676 1.524 . S
C1676 C1675 1.524 . S
C1676 C1677 1.397 . S
C1676 C1681 1.363 . S
C1677 H1648 0.950 . S
C1677 C1676 1.397 . S
C1677 C1678 1.334 . S
C1678 H1649 0.950 . S
C1678 C1677 1.334 . S
C1678 C1679 1.287 . S
C1679 C1678 1.287 . S
C1679 C1680 1.524 . S
C1679 H1682 0.999 . S
C1680 H1650 0.950 . S
C1680 C1679 1.524 . S
C1680 C1681 1.415 . S
C1681 H1651 0.950 . S
C1681 C1676 1.363 . S
C1681 C1680 1.415 . S
H1682 C1679 0.999 . S
H1683 C1664 0.913 . S
H1684 C1702 0.976 1_455 S
H1685 C1704 0.951 . S
H1686 C1706 0.950 . S
H1687 C1707 0.950 . S
H1688 C1709 0.950 . S
H1689 C1712 0.950 . S
H1690 C1713 0.950 . S
H1691 C1715 0.950 . S
H1692 C1716 0.950 . S
H1693 C1717 0.976 1_655 S
H1694 C1719 0.935 . S
H1695 C1721 0.950 . S
H1696 C1722 0.950 . S
H1697 C1724 0.950 . S
H1698 C1727 0.950 . S
H1699 C1728 0.950 . S
H1700 C1730 0.950 . S
H1701 C1731 0.950 . S
C1702 H1684 0.976 1_655 S
C1702 C1703 1.361 . S
C1702 C1704 1.387 1_655 S
C1703 C1702 1.361 . S
C1703 C1707 1.385 . S
C1704 H1685 0.951 . S
C1704 C1702 1.387 1_455 S
C1704 C1705 1.373 1_455 S
C1705 C1704 1.373 1_655 S
C1705 C1706 1.408 . S
C1705 C1708 1.498 1_655 S
C1706 H1686 0.950 . S
C1706 C1705 1.408 . S
C1706 C1707 1.374 . S
C1707 H1687 0.950 . S
C1707 C1703 1.385 . S
C1707 C1706 1.374 . S
C1708 C1705 1.498 1_455 S
C1708 C1709 1.362 1_455 S
C1708 C1710 1.400 . S
C1709 H1688 0.950 . S
C1709 C1708 1.362 1_655 S
C1709 C1725 1.377 1_556 S
C1710 C1708 1.400 . S
C1710 C1711 1.524 . S
C1710 C1724 1.377 1_556 S
C1711 C1710 1.524 . S
C1711 C1712 1.397 . S
C1711 C1716 1.363 . S
C1712 H1689 0.950 . S
C1712 C1711 1.397 . S
C1712 C1713 1.334 . S
C1713 H1690 0.950 . S
C1713 C1712 1.334 . S
C1713 C1714 1.287 . S
C1714 C1713 1.287 . S
C1714 C1715 1.524 . S
C1714 H1733 0.913 . S
C1715 H1691 0.950 . S
C1715 C1714 1.524 . S
C1715 C1716 1.415 . S
C1716 H1692 0.950 . S
C1716 C1711 1.363 . S
C1716 C1715 1.415 . S
C1717 H1693 0.976 1_455 S
C1717 C1718 1.357 . S
C1717 C1719 1.387 1_455 S
C1718 C1717 1.357 . S
C1718 C1722 1.385 . S
C1719 H1694 0.935 . S
C1719 C1717 1.387 1_655 S
C1719 C1720 1.398 1_655 S
C1720 C1719 1.398 1_455 S
C1720 C1721 1.405 . S
C1720 C1723 1.498 1_455 S
C1721 H1695 0.950 . S
C1721 C1720 1.405 . S
C1721 C1722 1.374 . S
C1722 H1696 0.950 . S
C1722 C1718 1.385 . S
C1722 C1721 1.374 . S
C1723 C1720 1.498 1_655 S
C1723 C1724 1.367 1_655 S
C1723 C1725 1.396 . S
C1724 H1697 0.950 . S
C1724 C1710 1.377 1_554 S
C1724 C1723 1.367 1_455 S
C1725 C1709 1.377 1_554 S
C1725 C1723 1.396 . S
C1725 C1726 1.524 . S
C1726 C1725 1.524 . S
C1726 C1727 1.397 . S
C1726 C1731 1.363 . S
C1727 H1698 0.950 . S
C1727 C1726 1.397 . S
C1727 C1728 1.334 . S
C1728 H1699 0.950 . S
C1728 C1727 1.334 . S
C1728 C1729 1.287 . S
C1729 C1728 1.287 . S
C1729 C1730 1.524 . S
C1729 H1732 0.999 . S
C1730 H1700 0.950 . S
C1730 C1729 1.524 . S
C1730 C1731 1.415 . S
C1731 H1701 0.950 . S
C1731 C1726 1.363 . S
C1731 C1730 1.415 . S
H1732 C1729 0.999 . S
H1733 C1714 0.913 . S
H1734 C1752 0.951 . S
H1735 C1754 0.951 . S
H1736 C1756 0.950 . S
H1737 C1757 0.950 . S
H1738 C1759 0.950 . S
H1739 C1762 0.950 . S
H1740 C1763 0.950 . S
H1741 C1765 0.950 . S
H1742 C1766 0.950 . S
H1743 C1767 0.951 . S
H1744 C1769 0.951 . S
H1745 C1771 0.950 . S
H1746 C1772 0.950 . S
H1747 C1774 0.950 . S
H1748 C1777 0.950 . S
H1749 C1778 0.950 . S
H1750 C1780 0.950 . S
H1751 C1781 0.950 . S
C1752 H1734 0.951 . S
C1752 C1753 1.366 . S
C1752 C1754 1.388 . S
C1753 C1752 1.366 . S
C1753 C1757 1.385 . S
C1754 H1735 0.951 . S
C1754 C1752 1.388 . S
C1754 C1755 1.366 . S
C1755 C1754 1.366 . S
C1755 C1756 1.414 . S
C1755 C1758 1.499 . S
C1756 H1736 0.950 . S
C1756 C1755 1.414 . S
C1756 C1757 1.374 . S
C1757 H1737 0.950 . S
C1757 C1753 1.385 . S
C1757 C1756 1.374 . S
C1758 C1755 1.499 . S
C1758 C1759 1.373 . S
C1758 C1760 1.389 . S
C1759 H1738 0.950 . S
C1759 C1758 1.373 . S
C1759 C1775 1.377 . S
C1760 C1758 1.389 . S
C1760 C1761 1.524 . S
C1760 C1774 1.377 . S
C1761 C1760 1.524 . S
C1761 C1762 1.397 . S
C1761 C1766 1.363 . S
C1762 H1739 0.950 . S
C1762 C1761 1.397 . S
C1762 C1763 1.334 . S
C1763 H1740 0.950 . S
C1763 C1762 1.334 . S
C1763 C1764 1.287 . S
C1764 C1763 1.287 . S
C1764 C1765 1.524 . S
C1764 H1783 0.913 . S
C1765 H1741 0.950 . S
C1765 C1764 1.524 . S
C1765 C1766 1.415 . S
C1766 H1742 0.950 . S
C1766 C1761 1.363 . S
C1766 C1765 1.415 . S
C1767 H1743 0.951 . S
C1767 C1768 1.366 . S
C1767 C1769 1.388 . S
C1768 C1767 1.366 . S
C1768 C1772 1.385 . S
C1769 H1744 0.951 . S
C1769 C1767 1.388 . S
C1769 C1770 1.366 . S
C1770 C1769 1.366 . S
C1770 C1771 1.414 . S
C1770 C1773 1.499 . S
C1771 H1745 0.950 . S
C1771 C1770 1.414 . S
C1771 C1772 1.374 . S
C1772 H1746 0.950 . S
C1772 C1768 1.385 . S
C1772 C1771 1.374 . S
C1773 C1770 1.499 . S
C1773 C1774 1.373 . S
C1773 C1775 1.389 . S
C1774 H1747 0.950 . S
C1774 C1760 1.377 . S
C1774 C1773 1.373 . S
C1775 C1759 1.377 . S
C1775 C1773 1.389 . S
C1775 C1776 1.524 . S
C1776 C1775 1.524 . S
C1776 C1777 1.397 . S
C1776 C1781 1.363 . S
C1777 H1748 0.950 . S
C1777 C1776 1.397 . S
C1777 C1778 1.334 . S
C1778 H1749 0.950 . S
C1778 C1777 1.334 . S
C1778 C1779 1.287 . S
C1779 C1778 1.287 . S
C1779 C1780 1.524 . S
C1779 H1782 0.999 . S
C1780 H1750 0.950 . S
C1780 C1779 1.524 . S
C1780 C1781 1.415 . S
C1781 H1751 0.950 . S
C1781 C1776 1.363 . S
C1781 C1780 1.415 . S
H1782 C1779 0.999 . S
H1783 C1764 0.913 . S
H1784 C1802 0.951 . S
H1785 C1804 0.951 . S
H1786 C1806 0.950 . S
H1787 C1807 0.950 . S
H1788 C1809 0.950 . S
H1789 C1812 0.950 . S
H1790 C1813 0.950 . S
H1791 C1815 0.950 . S
H1792 C1816 0.950 . S
H1793 C1817 0.951 . S
H1794 C1819 0.951 . S
H1795 C1821 0.950 . S
H1796 C1822 0.950 . S
H1797 C1824 0.950 . S
H1798 C1827 0.950 . S
H1799 C1828 0.950 . S
H1800 C1830 0.950 . S
H1801 C1831 0.950 . S
C1802 H1784 0.951 . S
C1802 C1803 1.366 . S
C1802 C1804 1.388 . S
C1803 C1802 1.366 . S
C1803 C1807 1.385 . S
C1804 H1785 0.951 . S
C1804 C1802 1.388 . S
C1804 C1805 1.366 . S
C1805 C1804 1.366 . S
C1805 C1806 1.414 . S
C1805 C1808 1.499 . S
C1806 H1786 0.950 . S
C1806 C1805 1.414 . S
C1806 C1807 1.374 . S
C1807 H1787 0.950 . S
C1807 C1803 1.385 . S
C1807 C1806 1.374 . S
C1808 C1805 1.499 . S
C1808 C1809 1.373 . S
C1808 C1810 1.389 . S
C1809 H1788 0.950 . S
C1809 C1808 1.373 . S
C1809 C1825 1.377 . S
C1810 C1808 1.389 . S
C1810 C1811 1.524 . S
C1810 C1824 1.377 . S
C1811 C1810 1.524 . S
C1811 C1812 1.397 . S
C1811 C1816 1.363 . S
C1812 H1789 0.950 . S
C1812 C1811 1.397 . S
C1812 C1813 1.334 . S
C1813 H1790 0.950 . S
C1813 C1812 1.334 . S
C1813 C1814 1.287 . S
C1814 C1813 1.287 . S
C1814 C1815 1.524 . S
C1814 H1833 0.913 . S
C1815 H1791 0.950 . S
C1815 C1814 1.524 . S
C1815 C1816 1.415 . S
C1816 H1792 0.950 . S
C1816 C1811 1.363 . S
C1816 C1815 1.415 . S
C1817 H1793 0.951 . S
C1817 C1818 1.366 . S
C1817 C1819 1.388 . S
C1818 C1817 1.366 . S
C1818 C1822 1.385 . S
C1819 H1794 0.951 . S
C1819 C1817 1.388 . S
C1819 C1820 1.366 . S
C1820 C1819 1.366 . S
C1820 C1821 1.414 . S
C1820 C1823 1.499 . S
C1821 H1795 0.950 . S
C1821 C1820 1.414 . S
C1821 C1822 1.374 . S
C1822 H1796 0.950 . S
C1822 C1818 1.385 . S
C1822 C1821 1.374 . S
C1823 C1820 1.499 . S
C1823 C1824 1.373 . S
C1823 C1825 1.389 . S
C1824 H1797 0.950 . S
C1824 C1810 1.377 . S
C1824 C1823 1.373 . S
C1825 C1809 1.377 . S
C1825 C1823 1.389 . S
C1825 C1826 1.524 . S
C1826 C1825 1.524 . S
C1826 C1827 1.397 . S
C1826 C1831 1.363 . S
C1827 H1798 0.950 . S
C1827 C1826 1.397 . S
C1827 C1828 1.334 . S
C1828 H1799 0.950 . S
C1828 C1827 1.334 . S
C1828 C1829 1.287 . S
C1829 C1828 1.287 . S
C1829 C1830 1.524 . S
C1829 H1832 0.999 . S
C1830 H1800 0.950 . S
C1830 C1829 1.524 . S
C1830 C1831 1.415 . S
C1831 H1801 0.950 . S
C1831 C1826 1.363 . S
C1831 C1830 1.415 . S
H1832 C1829 0.999 . S
H1833 C1814 0.913 . S
H1834 C1852 0.951 . S
H1835 C1854 0.951 . S
H1836 C1856 0.950 . S
H1837 C1857 0.950 . S
H1838 C1859 0.950 . S
H1839 C1862 0.950 . S
H1840 C1863 0.950 . S
H1841 C1865 0.950 . S
H1842 C1866 0.950 . S
H1843 C1867 0.951 . S
H1844 C1869 0.951 . S
H1845 C1871 0.950 . S
H1846 C1872 0.950 . S
H1847 C1874 0.950 . S
H1848 C1877 0.950 . S
H1849 C1878 0.950 . S
H1850 C1880 0.950 . S
H1851 C1881 0.950 . S
C1852 H1834 0.951 . S
C1852 C1853 1.366 . S
C1852 C1854 1.388 . S
C1853 C1852 1.366 . S
C1853 C1857 1.385 . S
C1854 H1835 0.951 . S
C1854 C1852 1.388 . S
C1854 C1855 1.366 . S
C1855 C1854 1.366 . S
C1855 C1856 1.414 . S
C1855 C1858 1.499 . S
C1856 H1836 0.950 . S
C1856 C1855 1.414 . S
C1856 C1857 1.374 . S
C1857 H1837 0.950 . S
C1857 C1853 1.385 . S
C1857 C1856 1.374 . S
C1858 C1855 1.499 . S
C1858 C1859 1.373 . S
C1858 C1860 1.389 . S
C1859 H1838 0.950 . S
C1859 C1858 1.373 . S
C1859 C1875 1.377 . S
C1860 C1858 1.389 . S
C1860 C1861 1.524 . S
C1860 C1874 1.377 . S
C1861 C1860 1.524 . S
C1861 C1862 1.397 . S
C1861 C1866 1.363 . S
C1862 H1839 0.950 . S
C1862 C1861 1.397 . S
C1862 C1863 1.334 . S
C1863 H1840 0.950 . S
C1863 C1862 1.334 . S
C1863 C1864 1.287 . S
C1864 C1863 1.287 . S
C1864 C1865 1.524 . S
C1864 H1883 0.913 . S
C1865 H1841 0.950 . S
C1865 C1864 1.524 . S
C1865 C1866 1.415 . S
C1866 H1842 0.950 . S
C1866 C1861 1.363 . S
C1866 C1865 1.415 . S
C1867 H1843 0.951 . S
C1867 C1868 1.366 . S
C1867 C1869 1.388 . S
C1868 C1867 1.366 . S
C1868 C1872 1.385 . S
C1869 H1844 0.951 . S
C1869 C1867 1.388 . S
C1869 C1870 1.366 . S
C1870 C1869 1.366 . S
C1870 C1871 1.414 . S
C1870 C1873 1.499 . S
C1871 H1845 0.950 . S
C1871 C1870 1.414 . S
C1871 C1872 1.374 . S
C1872 H1846 0.950 . S
C1872 C1868 1.385 . S
C1872 C1871 1.374 . S
C1873 C1870 1.499 . S
C1873 C1874 1.373 . S
C1873 C1875 1.389 . S
C1874 H1847 0.950 . S
C1874 C1860 1.377 . S
C1874 C1873 1.373 . S
C1875 C1859 1.377 . S
C1875 C1873 1.389 . S
C1875 C1876 1.524 . S
C1876 C1875 1.524 . S
C1876 C1877 1.397 . S
C1876 C1881 1.363 . S
C1877 H1848 0.950 . S
C1877 C1876 1.397 . S
C1877 C1878 1.334 . S
C1878 H1849 0.950 . S
C1878 C1877 1.334 . S
C1878 C1879 1.287 . S
C1879 C1878 1.287 . S
C1879 C1880 1.524 . S
C1879 H1882 0.999 . S
C1880 H1850 0.950 . S
C1880 C1879 1.524 . S
C1880 C1881 1.415 . S
C1881 H1851 0.950 . S
C1881 C1876 1.363 . S
C1881 C1880 1.415 . S
H1882 C1879 0.999 . S
H1883 C1864 0.913 . S
H1884 C1902 0.951 . S
H1885 C1904 0.951 . S
H1886 C1906 0.950 . S
H1887 C1907 0.950 . S
H1888 C1909 0.950 . S
H1889 C1912 0.950 . S
H1890 C1913 0.950 . S
H1891 C1915 0.950 . S
H1892 C1916 0.950 . S
H1893 C1917 0.951 . S
H1894 C1919 0.951 . S
H1895 C1921 0.950 . S
H1896 C1922 0.950 . S
H1897 C1924 0.950 . S
H1898 C1927 0.950 . S
H1899 C1928 0.950 . S
H1900 C1930 0.950 . S
H1901 C1931 0.950 . S
C1902 H1884 0.951 . S
C1902 C1903 1.366 . S
C1902 C1904 1.388 . S
C1903 C1902 1.366 . S
C1903 C1907 1.385 . S
C1904 H1885 0.951 . S
C1904 C1902 1.388 . S
C1904 C1905 1.366 . S
C1905 C1904 1.366 . S
C1905 C1906 1.414 . S
C1905 C1908 1.499 . S
C1906 H1886 0.950 . S
C1906 C1905 1.414 . S
C1906 C1907 1.374 . S
C1907 H1887 0.950 . S
C1907 C1903 1.385 . S
C1907 C1906 1.374 . S
C1908 C1905 1.499 . S
C1908 C1909 1.373 . S
C1908 C1910 1.389 . S
C1909 H1888 0.950 . S
C1909 C1908 1.373 . S
C1909 C1925 1.377 . S
C1910 C1908 1.389 . S
C1910 C1911 1.524 . S
C1910 C1924 1.377 . S
C1911 C1910 1.524 . S
C1911 C1912 1.397 . S
C1911 C1916 1.363 . S
C1912 H1889 0.950 . S
C1912 C1911 1.397 . S
C1912 C1913 1.334 . S
C1913 H1890 0.950 . S
C1913 C1912 1.334 . S
C1913 C1914 1.287 . S
C1914 C1913 1.287 . S
C1914 C1915 1.524 . S
C1914 H1933 0.913 . S
C1915 H1891 0.950 . S
C1915 C1914 1.524 . S
C1915 C1916 1.415 . S
C1916 H1892 0.950 . S
C1916 C1911 1.363 . S
C1916 C1915 1.415 . S
C1917 H1893 0.951 . S
C1917 C1918 1.366 . S
C1917 C1919 1.388 . S
C1918 C1917 1.366 . S
C1918 C1922 1.385 . S
C1919 H1894 0.951 . S
C1919 C1917 1.388 . S
C1919 C1920 1.366 . S
C1920 C1919 1.366 . S
C1920 C1921 1.414 . S
C1920 C1923 1.499 . S
C1921 H1895 0.950 . S
C1921 C1920 1.414 . S
C1921 C1922 1.374 . S
C1922 H1896 0.950 . S
C1922 C1918 1.385 . S
C1922 C1921 1.374 . S
C1923 C1920 1.499 . S
C1923 C1924 1.373 . S
C1923 C1925 1.389 . S
C1924 H1897 0.950 . S
C1924 C1910 1.377 . S
C1924 C1923 1.373 . S
C1925 C1909 1.377 . S
C1925 C1923 1.389 . S
C1925 C1926 1.524 . S
C1926 C1925 1.524 . S
C1926 C1927 1.397 . S
C1926 C1931 1.363 . S
C1927 H1898 0.950 . S
C1927 C1926 1.397 . S
C1927 C1928 1.334 . S
C1928 H1899 0.950 . S
C1928 C1927 1.334 . S
C1928 C1929 1.287 . S
C1929 C1928 1.287 . S
C1929 C1930 1.524 . S
C1929 H1932 0.999 . S
C1930 H1900 0.950 . S
C1930 C1929 1.524 . S
C1930 C1931 1.415 . S
C1931 H1901 0.950 . S
C1931 C1926 1.363 . S
C1931 C1930 1.415 . S
H1932 C1929 0.999 . S
H1933 C1914 0.913 . S
H1934 C1952 0.951 . S
H1935 C1954 0.951 . S
H1936 C1956 0.950 . S
H1937 C1957 0.950 . S
H1938 C1959 0.950 . S
H1939 C1962 0.950 . S
H1940 C1963 0.950 . S
H1941 C1965 0.950 . S
H1942 C1966 0.950 . S
H1943 C1967 0.951 . S
H1944 C1969 0.951 . S
H1945 C1971 0.950 . S
H1946 C1972 0.950 . S
H1947 C1974 0.950 . S
H1948 C1977 0.950 . S
H1949 C1978 0.950 . S
H1950 C1980 0.950 . S
H1951 C1981 0.950 . S
C1952 H1934 0.951 . S
C1952 C1953 1.366 . S
C1952 C1954 1.388 . S
C1953 C1952 1.366 . S
C1953 C1957 1.385 . S
C1954 H1935 0.951 . S
C1954 C1952 1.388 . S
C1954 C1955 1.366 . S
C1955 C1954 1.366 . S
C1955 C1956 1.414 . S
C1955 C1958 1.499 . S
C1956 H1936 0.950 . S
C1956 C1955 1.414 . S
C1956 C1957 1.374 . S
C1957 H1937 0.950 . S
C1957 C1953 1.385 . S
C1957 C1956 1.374 . S
C1958 C1955 1.499 . S
C1958 C1959 1.373 . S
C1958 C1960 1.389 . S
C1959 H1938 0.950 . S
C1959 C1958 1.373 . S
C1959 C1975 1.377 . S
C1960 C1958 1.389 . S
C1960 C1961 1.524 . S
C1960 C1974 1.377 . S
C1961 C1960 1.524 . S
C1961 C1962 1.397 . S
C1961 C1966 1.363 . S
C1962 H1939 0.950 . S
C1962 C1961 1.397 . S
C1962 C1963 1.334 . S
C1963 H1940 0.950 . S
C1963 C1962 1.334 . S
C1963 C1964 1.287 . S
C1964 C1963 1.287 . S
C1964 C1965 1.524 . S
C1964 H1983 0.913 . S
C1965 H1941 0.950 . S
C1965 C1964 1.524 . S
C1965 C1966 1.415 . S
C1966 H1942 0.950 . S
C1966 C1961 1.363 . S
C1966 C1965 1.415 . S
C1967 H1943 0.951 . S
C1967 C1968 1.366 . S
C1967 C1969 1.388 . S
C1968 C1967 1.366 . S
C1968 C1972 1.385 . S
C1969 H1944 0.951 . S
C1969 C1967 1.388 . S
C1969 C1970 1.366 . S
C1970 C1969 1.366 . S
C1970 C1971 1.414 . S
C1970 C1973 1.499 . S
C1971 H1945 0.950 . S
C1971 C1970 1.414 . S
C1971 C1972 1.374 . S
C1972 H1946 0.950 . S
C1972 C1968 1.385 . S
C1972 C1971 1.374 . S
C1973 C1970 1.499 . S
C1973 C1974 1.373 . S
C1973 C1975 1.389 . S
C1974 H1947 0.950 . S
C1974 C1960 1.377 . S
C1974 C1973 1.373 . S
C1975 C1959 1.377 . S
C1975 C1973 1.389 . S
C1975 C1976 1.524 . S
C1976 C1975 1.524 . S
C1976 C1977 1.397 . S
C1976 C1981 1.363 . S
C1977 H1948 0.950 . S
C1977 C1976 1.397 . S
C1977 C1978 1.334 . S
C1978 H1949 0.950 . S
C1978 C1977 1.334 . S
C1978 C1979 1.287 . S
C1979 C1978 1.287 . S
C1979 C1980 1.524 . S
C1979 H1982 0.999 . S
C1980 H1950 0.950 . S
C1980 C1979 1.524 . S
C1980 C1981 1.415 . S
C1981 H1951 0.950 . S
C1981 C1976 1.363 . S
C1981 C1980 1.415 . S
H1982 C1979 0.999 . S
H1983 C1964 0.913 . S
H1984 C2002 0.951 . S
H1985 C2004 0.951 . S
H1986 C2006 0.950 . S
H1987 C2007 0.950 . S
H1988 C2009 0.950 . S
H1989 C2012 0.950 . S
H1990 C2013 0.950 . S
H1991 C2015 0.950 . S
H1992 C2016 0.950 . S
H1993 C2017 0.951 . S
H1994 C2019 0.951 . S
H1995 C2021 0.950 . S
H1996 C2022 0.950 . S
H1997 C2024 0.950 . S
H1998 C2027 0.950 . S
H1999 C2028 0.950 . S
H2000 C2030 0.950 . S
H2001 C2031 0.950 . S
C2002 H1984 0.951 . S
C2002 C2003 1.366 . S
C2002 C2004 1.388 . S
C2003 C2002 1.366 . S
C2003 C2007 1.385 . S
C2004 H1985 0.951 . S
C2004 C2002 1.388 . S
C2004 C2005 1.366 . S
C2005 C2004 1.366 . S
C2005 C2006 1.414 . S
C2005 C2008 1.499 . S
C2006 H1986 0.950 . S
C2006 C2005 1.414 . S
C2006 C2007 1.374 . S
C2007 H1987 0.950 . S
C2007 C2003 1.385 . S
C2007 C2006 1.374 . S
C2008 C2005 1.499 . S
C2008 C2009 1.373 . S
C2008 C2010 1.389 . S
C2009 H1988 0.950 . S
C2009 C2008 1.373 . S
C2009 C2025 1.377 . S
C2010 C2008 1.389 . S
C2010 C2011 1.524 . S
C2010 C2024 1.377 . S
C2011 C2010 1.524 . S
C2011 C2012 1.397 . S
C2011 C2016 1.363 . S
C2012 H1989 0.950 . S
C2012 C2011 1.397 . S
C2012 C2013 1.334 . S
C2013 H1990 0.950 . S
C2013 C2012 1.334 . S
C2013 C2014 1.287 . S
C2014 C2013 1.287 . S
C2014 C2015 1.524 . S
C2014 H2033 0.913 . S
C2015 H1991 0.950 . S
C2015 C2014 1.524 . S
C2015 C2016 1.415 . S
C2016 H1992 0.950 . S
C2016 C2011 1.363 . S
C2016 C2015 1.415 . S
C2017 H1993 0.951 . S
C2017 C2018 1.366 . S
C2017 C2019 1.388 . S
C2018 C2017 1.366 . S
C2018 C2022 1.385 . S
C2019 H1994 0.951 . S
C2019 C2017 1.388 . S
C2019 C2020 1.366 . S
C2020 C2019 1.366 . S
C2020 C2021 1.414 . S
C2020 C2023 1.499 . S
C2021 H1995 0.950 . S
C2021 C2020 1.414 . S
C2021 C2022 1.374 . S
C2022 H1996 0.950 . S
C2022 C2018 1.385 . S
C2022 C2021 1.374 . S
C2023 C2020 1.499 . S
C2023 C2024 1.373 . S
C2023 C2025 1.389 . S
C2024 H1997 0.950 . S
C2024 C2010 1.377 . S
C2024 C2023 1.373 . S
C2025 C2009 1.377 . S
C2025 C2023 1.389 . S
C2025 C2026 1.524 . S
C2026 C2025 1.524 . S
C2026 C2027 1.397 . S
C2026 C2031 1.363 . S
C2027 H1998 0.950 . S
C2027 C2026 1.397 . S
C2027 C2028 1.334 . S
C2028 H1999 0.950 . S
C2028 C2027 1.334 . S
C2028 C2029 1.287 . S
C2029 C2028 1.287 . S
C2029 C2030 1.524 . S
C2029 H2032 0.999 . S
C2030 H2000 0.950 . S
C2030 C2029 1.524 . S
C2030 C2031 1.415 . S
C2031 H2001 0.950 . S
C2031 C2026 1.363 . S
C2031 C2030 1.415 . S
H2032 C2029 0.999 . S
H2033 C2014 0.913 . S
C253 C130 0.916 . S
C268 C0 0.917 . S
C303 C13 0.909 . S
C318 C143 0.900 . S
C353 C117 0.907 . S
C368 C26 0.911 . S
C403 C182 0.918 . S
C418 C39 0.915 . S
C453 C52 0.909 . S
C468 C156 0.904 . S
C503 C169 0.908 . S
C518 C65 0.905 . S
C553 C78 0.933 . S
C568 C208 0.933 . S
C603 C221 0.923 . S
C618 C91 0.923 . S
C653 C104 0.933 . S
C668 C195 0.933 . S
C703 C5 0.728 . S
C718 C23 0.711 . S
C753 C18 0.729 . S
C768 C36 0.706 . S
C803 C10 0.737 . S
C818 C31 0.750 . S
C853 C75 0.712 . S
C868 C44 0.733 . S
C903 C49 0.737 . S
C918 C57 0.748 . S
C953 C70 0.729 . S
C968 C62 0.706 . S
C1003 C83 0.744 . S
C1018 C101 0.740 . S
C1053 C96 0.738 . S
C1068 C114 0.723 . S
C1103 C88 0.729 . S
C1118 C109 0.740 . S
C1153 C153 0.744 . S
C1168 C122 0.746 . S
C1203 C127 0.718 . S
C1218 C135 0.733 . S
C1253 C140 0.721 . S
C1268 C148 0.735 . S
C1303 C179 0.743 . S
C1318 C161 0.747 . S
C1353 C192 0.721 . S
C1368 C174 0.734 . S
C1403 C166 0.718 . S
C1418 C187 0.735 . S
C1453 C200 0.746 . S
C1468 C231 0.738 . S
C1503 C213 0.741 . S
C1518 C205 0.729 . S
C1553 C226 0.735 . S
C1568 C218 0.724 . S
C1603 C8 1.467 . S
C1618 C47 1.466 . S
C1653 C60 1.453 . S
C1668 C21 1.448 . S
C1703 C73 1.450 . S
C1718 C34 1.453 . S
C1753 C125 1.468 . S
C1768 C86 1.469 . S
C1803 C138 1.458 . S
C1818 C99 1.459 . S
C1853 C112 1.469 . S
C1868 C151 1.470 . S
C1903 C203 1.468 . S
C1918 C164 1.468 . S
C1953 C216 1.469 . S
C1968 C177 1.471 . S
C2003 C229 1.459 . S
C2018 C190 1.458 . S
