# Generated by pormake.
# Topology bcu-i, (5)-cn, num edge types: 1
# Building blocks:
#     Node 0, Type 0, BuildingBlock: BEQFEK_clean_sbu_0, # of connection points: 5
#     Node 1, Type 0, BuildingBlock: BEQFEK_clean_sbu_0, # of connection points: 5
#     Node 2, Type 0, BuildingBlock: BEQFEK_clean_sbu_0, # of connection points: 5
#     Node 3, Type 0, BuildingBlock: BEQFEK_clean_sbu_0, # of connection points: 5
#     Node 4, Type 0, BuildingBlock: BEQFEK_clean_sbu_0, # of connection points: 5
#     Node 5, Type 0, BuildingBlock: BEQFEK_clean_sbu_0, # of connection points: 5
#     Node 6, Type 0, BuildingBlock: BEQFEK_clean_sbu_0, # of connection points: 5
#     Node 7, Type 0, BuildingBlock: BEQFEK_clean_sbu_0, # of connection points: 5
#     Node 8, Type 0, BuildingBlock: BEQFEK_clean_sbu_0, # of connection points: 5
#     Node 9, Type 0, BuildingBlock: BEQFEK_clean_sbu_0, # of connection points: 5
#     Node 10, Type 0, BuildingBlock: BEQFEK_clean_sbu_0, # of connection points: 5
#     Node 11, Type 0, BuildingBlock: BEQFEK_clean_sbu_0, # of connection points: 5
#     Node 12, Type 0, BuildingBlock: BEQFEK_clean_sbu_0, # of connection points: 5
#     Node 13, Type 0, BuildingBlock: BEQFEK_clean_sbu_0, # of connection points: 5
#     Node 14, Type 0, BuildingBlock: BEQFEK_clean_sbu_0, # of connection points: 5
#     Node 15, Type 0, BuildingBlock: BEQFEK_clean_sbu_0, # of connection points: 5
#     Edge 16, Type (0, 0), BuildingBlock: ZUJKAS_clean_linker_0, # of connection points: 2
#     Edge 17, Type (0, 0), BuildingBlock: ZUJKAS_clean_linker_0, # of connection points: 2
#     Edge 18, Type (0, 0), BuildingBlock: ZUJKAS_clean_linker_0, # of connection points: 2
#     Edge 19, Type (0, 0), BuildingBlock: ZUJKAS_clean_linker_0, # of connection points: 2
#     Edge 20, Type (0, 0), BuildingBlock: ZUJKAS_clean_linker_0, # of connection points: 2
#     Edge 21, Type (0, 0), BuildingBlock: ZUJKAS_clean_linker_0, # of connection points: 2
#     Edge 22, Type (0, 0), BuildingBlock: ZUJKAS_clean_linker_0, # of connection points: 2
#     Edge 23, Type (0, 0), BuildingBlock: ZUJKAS_clean_linker_0, # of connection points: 2
#     Edge 24, Type (0, 0), BuildingBlock: ZUJKAS_clean_linker_0, # of connection points: 2
#     Edge 25, Type (0, 0), BuildingBlock: ZUJKAS_clean_linker_0, # of connection points: 2
#     Edge 26, Type (0, 0), BuildingBlock: ZUJKAS_clean_linker_0, # of connection points: 2
#     Edge 27, Type (0, 0), BuildingBlock: ZUJKAS_clean_linker_0, # of connection points: 2
#     Edge 28, Type (0, 0), BuildingBlock: ZUJKAS_clean_linker_0, # of connection points: 2
#     Edge 29, Type (0, 0), BuildingBlock: ZUJKAS_clean_linker_0, # of connection points: 2
#     Edge 30, Type (0, 0), BuildingBlock: ZUJKAS_clean_linker_0, # of connection points: 2
#     Edge 31, Type (0, 0), BuildingBlock: ZUJKAS_clean_linker_0, # of connection points: 2
#     Edge 32, Type (0, 0), BuildingBlock: ZUJKAS_clean_linker_0, # of connection points: 2
#     Edge 33, Type (0, 0), BuildingBlock: ZUJKAS_clean_linker_0, # of connection points: 2
#     Edge 34, Type (0, 0), BuildingBlock: ZUJKAS_clean_linker_0, # of connection points: 2
#     Edge 35, Type (0, 0), BuildingBlock: ZUJKAS_clean_linker_0, # of connection points: 2
#     Edge 36, Type (0, 0), BuildingBlock: ZUJKAS_clean_linker_0, # of connection points: 2
#     Edge 37, Type (0, 0), BuildingBlock: ZUJKAS_clean_linker_0, # of connection points: 2
#     Edge 38, Type (0, 0), BuildingBlock: ZUJKAS_clean_linker_0, # of connection points: 2
#     Edge 39, Type (0, 0), BuildingBlock: ZUJKAS_clean_linker_0, # of connection points: 2
#     Edge 40, Type (0, 0), BuildingBlock: ZUJKAS_clean_linker_0, # of connection points: 2
#     Edge 41, Type (0, 0), BuildingBlock: ZUJKAS_clean_linker_0, # of connection points: 2
#     Edge 42, Type (0, 0), BuildingBlock: ZUJKAS_clean_linker_0, # of connection points: 2
#     Edge 43, Type (0, 0), BuildingBlock: ZUJKAS_clean_linker_0, # of connection points: 2
#     Edge 44, Type (0, 0), BuildingBlock: ZUJKAS_clean_linker_0, # of connection points: 2
#     Edge 45, Type (0, 0), BuildingBlock: ZUJKAS_clean_linker_0, # of connection points: 2
#     Edge 46, Type (0, 0), BuildingBlock: ZUJKAS_clean_linker_0, # of connection points: 2
#     Edge 47, Type (0, 0), BuildingBlock: ZUJKAS_clean_linker_0, # of connection points: 2
#     Edge 48, Type (0, 0), BuildingBlock: ZUJKAS_clean_linker_0, # of connection points: 2
#     Edge 49, Type (0, 0), BuildingBlock: ZUJKAS_clean_linker_0, # of connection points: 2
#     Edge 50, Type (0, 0), BuildingBlock: ZUJKAS_clean_linker_0, # of connection points: 2
#     Edge 51, Type (0, 0), BuildingBlock: ZUJKAS_clean_linker_0, # of connection points: 2
#     Edge 52, Type (0, 0), BuildingBlock: ZUJKAS_clean_linker_0, # of connection points: 2
#     Edge 53, Type (0, 0), BuildingBlock: ZUJKAS_clean_linker_0, # of connection points: 2
#     Edge 54, Type (0, 0), BuildingBlock: ZUJKAS_clean_linker_0, # of connection points: 2
#     Edge 55, Type (0, 0), BuildingBlock: ZUJKAS_clean_linker_0, # of connection points: 2
# Relax obj value: 0.883
# Max RMSD: 0.189
# Mean RMSD: 0.189
data_MOF--net-bcu-i--node1-BEQFEK_clean_sbu_0--edge1-ZUJKAS_clean_linker_0
_symmetry_space_group_name_H-M    P1
_symmetry_Int_Tables_number       1
_symmetry_cell_setting            triclinic
loop_
_symmetry_equiv_pos_as_xyz
'x, y, z'
_cell_length_a     61.032666
_cell_length_b     61.019762
_cell_length_c     44.58976
_cell_angle_alpha  89.969433
_cell_angle_beta   90.004775
_cell_angle_gamma 89.995473
loop_
_atom_site_label
_atom_site_type_symbol
_atom_site_fract_x
_atom_site_fract_y
_atom_site_fract_z
_atom_type_partial_charge
Co0 Co 0.20456 0.10212 0.309 0.0
Co1 Co 0.20724 0.06176 0.26553 0.0
C2 C 0.17549 0.09898 0.2558 0.0
O3 O 0.18225 0.10896 0.279 0.0
O4 O 0.18364 0.08064 0.24799 0.0
C5 C 0.18371 0.13083 0.35008 0.0
O6 O 0.16612 0.12338 0.3365 0.0
C7 C 0.18939 0.02121 0.24108 0.0
C8 C 0.21782 0.00677 0.21761 0.0
C9 C 0.196 0.0031 0.22458 0.0
N10 N 0.20659 0.03476 0.24411 0.0
N11 N 0.2235 0.02615 0.22984 0.0
C12 C 0.16686 0.02614 0.25261 0.0
H13 H 0.16452 0.04402 0.25535 0.0
H14 H 0.16458 0.01843 0.27489 0.0
H15 H 0.15424 0.01949 0.23717 0.0
C16 C 0.19965 0.06695 0.35365 0.0
N17 N 0.20068 0.07371 0.32497 0.0
N18 N 0.2027 0.05654 0.30728 0.0
C19 C 0.2035 0.03828 0.32441 0.0
C20 C 0.20136 0.04436 0.35422 0.0
C21 C 0.19849 0.08193 0.3802 0.0
H22 H 0.21248 0.09353 0.37966 0.0
H23 H 0.18306 0.09145 0.37912 0.0
H24 H 0.1987 0.07282 0.40173 0.0
O25 O 0.23386 0.10403 0.29108 0.0
O26 O 0.23657 0.07548 0.26027 0.0
H27 H 0.22164 0.01731 0.29473 0.0
H28 H 0.21654 0.00574 0.33144 0.0
C29 C 0.20956 0.01596 0.31319 0.0
H30 H 0.19472 0.00761 0.30461 0.0
H31 H 0.23897 0.03338 0.2287 0.0
O32 O 0.20242 0.12422 0.34146 0.0
C33 C 0.24473 0.09253 0.27245 0.0
Co34 Co 0.88667 0.21763 0.31342 0.0
Co35 Co 0.92685 0.2217 0.26999 0.0
C36 C 0.88889 0.19218 0.2563 0.0
O37 O 0.87919 0.19773 0.28035 0.0
O38 O 0.90742 0.20029 0.24932 0.0
C39 C 0.85897 0.1938 0.35256 0.0
O40 O 0.86705 0.17728 0.33725 0.0
C41 C 0.96483 0.20524 0.23754 0.0
C42 C 0.9833 0.23547 0.2274 0.0
C43 C 0.98396 0.21286 0.22422 0.0
N44 N 0.95355 0.22251 0.24802 0.0
N45 N 0.9645 0.24057 0.24154 0.0
C46 C 0.95819 0.18196 0.24305 0.0
H47 H 0.9504 0.1753 0.2225 0.0
H48 H 0.94616 0.181 0.26166 0.0
H49 H 0.97269 0.17174 0.24855 0.0
C50 C 0.9219 0.20679 0.35638 0.0
N51 N 0.91498 0.21136 0.32841 0.0
N52 N 0.93206 0.21304 0.31049 0.0
C53 C 0.95045 0.20959 0.32666 0.0
C54 C 0.94452 0.20522 0.35613 0.0
C55 C 0.90742 0.20666 0.38352 0.0
H56 H 0.89515 0.21999 0.38191 0.0
H57 H 0.89876 0.19072 0.38483 0.0
H58 H 0.91693 0.20896 0.40449 0.0
O59 O 0.88563 0.24836 0.30036 0.0
O60 O 0.91416 0.2517 0.2697 0.0
H61 H 0.97521 0.22677 0.30203 0.0
H62 H 0.98578 0.20998 0.33227 0.0
C63 C 0.97322 0.21111 0.31437 0.0
H64 H 0.97596 0.19747 0.29845 0.0
H65 H 0.95941 0.25631 0.24747 0.0
O66 O 0.86466 0.21317 0.34554 0.0
C67 C 0.89771 0.25991 0.28323 0.0
Co68 Co 0.79165 0.89647 0.31864 0.0
Co69 Co 0.78975 0.93412 0.27082 0.0
C70 C 0.81785 0.89422 0.26231 0.0
O71 O 0.81124 0.8859 0.28682 0.0
O72 O 0.81108 0.91289 0.25354 0.0
C73 C 0.81256 0.86855 0.36117 0.0
O74 O 0.83016 0.87401 0.34591 0.0
C75 C 0.80799 0.97199 0.23927 0.0
C76 C 0.7785 0.98709 0.21926 0.0
C77 C 0.80094 0.9897 0.22229 0.0
N78 N 0.79047 0.9597 0.24635 0.0
N79 N 0.77293 0.96867 0.23405 0.0
C80 C 0.83108 0.96628 0.24766 0.0
H81 H 0.83297 0.94832 0.25 0.0
H82 H 0.83522 0.97378 0.26955 0.0
H83 H 0.84275 0.97253 0.23059 0.0
C84 C 0.80303 0.93335 0.35808 0.0
N85 N 0.79924 0.92514 0.33059 0.0
N86 N 0.79704 0.94137 0.31133 0.0
C87 C 0.79873 0.96054 0.32635 0.0
C88 C 0.80309 0.95598 0.35627 0.0
C89 C 0.80319 0.91993 0.38625 0.0
H90 H 0.78873 0.90895 0.38662 0.0
H91 H 0.81823 0.90974 0.38672 0.0
H92 H 0.80287 0.93023 0.40672 0.0
O93 O 0.76092 0.89667 0.30547 0.0
O94 O 0.75961 0.92195 0.26948 0.0
H95 H 0.78013 0.98135 0.297 0.0
H96 H 0.7897 0.9947 0.33081 0.0
C97 C 0.79387 0.98258 0.31317 0.0
H98 H 0.80851 0.98868 0.30113 0.0
H99 H 0.75709 0.96243 0.23617 0.0
O100 O 0.79408 0.87603 0.35299 0.0
C101 C 0.75041 0.90745 0.2857 0.0
Co102 Co 0.10436 0.77441 0.32171 0.0
Co103 Co 0.06479 0.77002 0.27733 0.0
C104 C 0.10213 0.80068 0.26517 0.0
O105 O 0.11171 0.79485 0.28921 0.0
O106 O 0.08378 0.79242 0.25759 0.0
C107 C 0.13187 0.79803 0.3616 0.0
O108 O 0.12442 0.81477 0.3461 0.0
C109 C 0.0264 0.78499 0.24419 0.0
C110 C 0.00911 0.75399 0.23449 0.0
C111 C 0.00762 0.77652 0.23095 0.0
N112 N 0.03832 0.76826 0.25498 0.0
N113 N 0.02807 0.74974 0.24876 0.0
C114 C 0.03207 0.80857 0.24935 0.0
H115 H 0.04397 0.81016 0.26804 0.0
H116 H 0.01714 0.81823 0.25452 0.0
H117 H 0.03967 0.81536 0.22874 0.0
C118 C 0.06854 0.78449 0.36395 0.0
N119 N 0.07578 0.77988 0.33617 0.0
N120 N 0.0589 0.77795 0.31794 0.0
C121 C 0.04031 0.78121 0.33378 0.0
C122 C 0.04593 0.78579 0.36328 0.0
C123 C 0.0828 0.78534 0.39129 0.0
H124 H 0.09512 0.77202 0.39048 0.0
H125 H 0.09142 0.80133 0.39195 0.0
H126 H 0.07313 0.78353 0.41221 0.0
O127 O 0.10642 0.74396 0.30797 0.0
O128 O 0.07854 0.74049 0.27632 0.0
H129 H 0.01603 0.76407 0.30824 0.0
H130 H 0.00501 0.78006 0.33894 0.0
C131 C 0.01767 0.77952 0.32112 0.0
H132 H 0.0148 0.79341 0.30563 0.0
H133 H 0.03373 0.73425 0.25501 0.0
O134 O 0.12587 0.77881 0.3544 0.0
C135 C 0.09499 0.73245 0.29005 0.0
Co136 Co 0.21411 0.89138 0.69265 0.0
Co137 Co 0.2185 0.93289 0.73357 0.0
C138 C 0.18724 0.89629 0.74793 0.0
O139 O 0.19324 0.88547 0.72503 0.0
O140 O 0.19551 0.91493 0.75393 0.0
C141 C 0.19107 0.8622 0.65441 0.0
O142 O 0.17415 0.87021 0.66894 0.0
C143 C 0.20198 0.97335 0.7593 0.0
C144 C 0.23176 0.98914 0.77739 0.0
C145 C 0.20936 0.99187 0.77411 0.0
N146 N 0.21921 0.96029 0.75385 0.0
N147 N 0.23697 0.9697 0.76493 0.0
C148 C 0.17879 0.96743 0.75186 0.0
H149 H 0.17007 0.96302 0.77285 0.0
H150 H 0.17827 0.95327 0.73628 0.0
H151 H 0.17002 0.98147 0.74168 0.0
C152 C 0.20591 0.92528 0.64682 0.0
N153 N 0.20935 0.91931 0.6755 0.0
N154 N 0.21163 0.93699 0.69215 0.0
C155 C 0.2099 0.95484 0.67434 0.0
C156 C 0.20588 0.94792 0.64519 0.0
C157 C 0.20535 0.90968 0.62089 0.0
H158 H 0.21857 0.89735 0.6233 0.0
H159 H 0.18933 0.90112 0.62063 0.0
H160 H 0.20754 0.9182 0.59912 0.0
O161 O 0.24419 0.88985 0.70772 0.0
O162 O 0.24804 0.91915 0.73687 0.0
H163 H 0.22698 0.97907 0.70018 0.0
H164 H 0.21518 0.98941 0.66571 0.0
C165 C 0.21278 0.97798 0.68474 0.0
H166 H 0.19788 0.98316 0.69701 0.0
H167 H 0.25266 0.96297 0.76369 0.0
O168 O 0.2102 0.86849 0.66165 0.0
C169 C 0.25579 0.90187 0.72481 0.0
Co170 Co 0.10669 0.21861 0.68496 0.0
Co171 Co 0.06644 0.21921 0.72874 0.0
C172 C 0.10654 0.19172 0.74058 0.0
O173 O 0.1158 0.19856 0.71685 0.0
O174 O 0.08751 0.19837 0.74793 0.0
C175 C 0.13801 0.19873 0.64646 0.0
O176 O 0.13419 0.18184 0.66397 0.0
C177 C 0.02774 0.1989 0.75511 0.0
C178 C 0.01095 0.22693 0.77642 0.0
C179 C 0.00917 0.20462 0.77122 0.0
N180 N 0.03977 0.21704 0.75062 0.0
N181 N 0.02976 0.23372 0.76363 0.0
C182 C 0.03456 0.17642 0.7453 0.0
H183 H 0.0288 0.16391 0.76157 0.0
H184 H 0.0526 0.17544 0.74296 0.0
H185 H 0.02727 0.17268 0.72314 0.0
C186 C 0.07215 0.20746 0.6416 0.0
N187 N 0.0788 0.21084 0.66998 0.0
N188 N 0.06154 0.21215 0.68763 0.0
C189 C 0.04327 0.21024 0.67069 0.0
C190 C 0.0495 0.20701 0.6411 0.0
C191 C 0.08721 0.20578 0.61517 0.0
H192 H 0.09877 0.19206 0.61886 0.0
H193 H 0.07821 0.20261 0.59402 0.0
H194 H 0.09674 0.22117 0.61291 0.0
O195 O 0.10547 0.249 0.69971 0.0
O196 O 0.07711 0.24986 0.73101 0.0
H197 H 0.0099 0.22058 0.6628 0.0
H198 H 0.01325 0.19976 0.69081 0.0
C199 C 0.02052 0.21493 0.68148 0.0
H200 H 0.02083 0.22762 0.69923 0.0
H201 H 0.03562 0.24979 0.76345 0.0
O202 O 0.12849 0.21681 0.65201 0.0
C203 C 0.09289 0.25937 0.71757 0.0
Co204 Co 0.7767 0.10464 0.68965 0.0
Co205 Co 0.77665 0.06534 0.7351 0.0
C206 C 0.80789 0.10258 0.74171 0.0
O207 O 0.79972 0.11205 0.7189 0.0
O208 O 0.80068 0.08415 0.75069 0.0
C209 C 0.79812 0.13158 0.64736 0.0
O210 O 0.81528 0.12425 0.66206 0.0
C211 C 0.79417 0.02713 0.76616 0.0
C212 C 0.76421 0.01058 0.78233 0.0
C213 C 0.78687 0.00883 0.78181 0.0
N214 N 0.77667 0.03905 0.75799 0.0
N215 N 0.75881 0.02923 0.76798 0.0
C216 C 0.81709 0.03242 0.75665 0.0
H217 H 0.81698 0.04367 0.73709 0.0
H218 H 0.82617 0.01724 0.75084 0.0
H219 H 0.82572 0.04067 0.77541 0.0
C220 C 0.78184 0.06845 0.64656 0.0
N221 N 0.78052 0.07591 0.67487 0.0
N222 N 0.78062 0.05916 0.69354 0.0
C223 C 0.78216 0.04045 0.67747 0.0
C224 C 0.783 0.04585 0.6473 0.0
C225 C 0.78157 0.08271 0.61919 0.0
H226 H 0.76789 0.09461 0.62069 0.0
H227 H 0.79721 0.09189 0.61794 0.0
H228 H 0.77985 0.07306 0.59827 0.0
O229 O 0.74754 0.10688 0.708 0.0
O230 O 0.74773 0.07959 0.74108 0.0
H231 H 0.76755 0.01666 0.70659 0.0
H232 H 0.7792 0.0053 0.67264 0.0
C233 C 0.78129 0.01785 0.69042 0.0
H234 H 0.79675 0.0145 0.70262 0.0
H235 H 0.74293 0.03503 0.76447 0.0
O236 O 0.77912 0.12578 0.65592 0.0
C237 C 0.73815 0.09567 0.72839 0.0
Co238 Co 0.89108 0.78658 0.69829 0.0
Co239 Co 0.93188 0.78253 0.74071 0.0
C240 C 0.89519 0.81404 0.75324 0.0
O241 O 0.88478 0.8078 0.73008 0.0
O242 O 0.91369 0.80578 0.76009 0.0
C243 C 0.8618 0.80912 0.6593 0.0
O244 O 0.8683 0.82611 0.67506 0.0
C245 C 0.97144 0.79876 0.76945 0.0
C246 C 0.98839 0.76831 0.7829 0.0
C247 C 0.99035 0.79096 0.78308 0.0
N248 N 0.95895 0.78156 0.76172 0.0
N249 N 0.96902 0.7634 0.77012 0.0
C250 C 0.96611 0.82192 0.76108 0.0
H251 H 0.95379 0.82232 0.74278 0.0
H252 H 0.9811 0.83077 0.75392 0.0
H253 H 0.95915 0.83044 0.78089 0.0
C254 C 0.92586 0.79335 0.65347 0.0
N255 N 0.91934 0.79102 0.68211 0.0
N256 N 0.9367 0.78902 0.69945 0.0
C257 C 0.95487 0.78991 0.68218 0.0
C258 C 0.94849 0.79275 0.65258 0.0
C259 C 0.91065 0.79493 0.62719 0.0
H260 H 0.9009 0.81018 0.62914 0.0
H261 H 0.91957 0.79543 0.60555 0.0
H262 H 0.89927 0.78076 0.62724 0.0
O263 O 0.88912 0.75658 0.7138 0.0
O264 O 0.91802 0.7531 0.7438 0.0
H265 H 0.98922 0.78315 0.67433 0.0
H266 H 0.98324 0.79984 0.70664 0.0
C267 C 0.97762 0.78564 0.6932 0.0
H268 H 0.9777 0.77094 0.70782 0.0
H269 H 0.96292 0.74765 0.76645 0.0
O270 O 0.86897 0.79021 0.6661 0.0
C271 C 0.90096 0.74517 0.7314 0.0
Co272 Co 0.71505 0.59857 0.80847 0.0
Co273 Co 0.71949 0.56015 0.7621 0.0
C274 C 0.68821 0.59794 0.75301 0.0
O275 O 0.69403 0.60679 0.77751 0.0
O276 O 0.69675 0.58 0.74422 0.0
C277 C 0.69338 0.62733 0.84923 0.0
O278 O 0.67625 0.62235 0.83274 0.0
C279 C 0.70239 0.52078 0.73365 0.0
C280 C 0.73192 0.50586 0.71355 0.0
C281 C 0.70969 0.50257 0.71795 0.0
N282 N 0.71957 0.534 0.7388 0.0
N283 N 0.73714 0.52516 0.72639 0.0
C284 C 0.67937 0.52594 0.74296 0.0
H285 H 0.67639 0.54382 0.74185 0.0
H286 H 0.67675 0.52073 0.7665 0.0
H287 H 0.66736 0.51733 0.72844 0.0
C288 C 0.70689 0.56183 0.84948 0.0
N289 N 0.71004 0.56968 0.82165 0.0
N290 N 0.71293 0.55322 0.80296 0.0
C291 C 0.71227 0.53429 0.81873 0.0
C292 C 0.70812 0.53925 0.84852 0.0
C293 C 0.7042 0.57577 0.87688 0.0
H294 H 0.68946 0.58619 0.87421 0.0
H295 H 0.70221 0.56578 0.8975 0.0
H296 H 0.71868 0.58659 0.87943 0.0
O297 O 0.74508 0.60085 0.79311 0.0
O298 O 0.7491 0.57371 0.7603 0.0
H299 H 0.72463 0.50143 0.82486 0.0
H300 H 0.70403 0.50437 0.79648 0.0
C301 C 0.71856 0.51228 0.80667 0.0
H302 H 0.73143 0.51402 0.78931 0.0
H303 H 0.75279 0.53202 0.72734 0.0
O304 O 0.71192 0.61924 0.84249 0.0
C305 C 0.75676 0.59012 0.77455 0.0
Co306 Co 0.38969 0.70972 0.8045 0.0
Co307 Co 0.43053 0.7127 0.76193 0.0
C308 C 0.39255 0.6822 0.74994 0.0
O309 O 0.38233 0.68852 0.77319 0.0
O310 O 0.4112 0.6901 0.7431 0.0
C311 C 0.35926 0.68923 0.84425 0.0
O312 O 0.36489 0.67163 0.82915 0.0
C313 C 0.47068 0.69421 0.73746 0.0
C314 C 0.48517 0.72209 0.71281 0.0
C315 C 0.48853 0.70027 0.7201 0.0
N316 N 0.45751 0.71169 0.74057 0.0
N317 N 0.46617 0.72829 0.72565 0.0
C318 C 0.46545 0.67185 0.74937 0.0
H319 H 0.47028 0.65912 0.73286 0.0
H320 H 0.44777 0.6704 0.75464 0.0
H321 H 0.47475 0.66887 0.77031 0.0
C322 C 0.4243 0.70226 0.84928 0.0
N323 N 0.41787 0.70439 0.82058 0.0
N324 N 0.43526 0.70676 0.80338 0.0
C325 C 0.45333 0.70679 0.8209 0.0
C326 C 0.44689 0.70375 0.85043 0.0
C327 C 0.40901 0.70018 0.87539 0.0
H328 H 0.39864 0.68546 0.87225 0.0
H329 H 0.41791 0.69839 0.89694 0.0
H330 H 0.39825 0.7148 0.8765 0.0
O331 O 0.38894 0.73968 0.78832 0.0
O332 O 0.41786 0.74257 0.7582 0.0
H333 H 0.48556 0.72016 0.8291 0.0
H334 H 0.48445 0.69833 0.80224 0.0
C335 C 0.47578 0.71309 0.81047 0.0
H336 H 0.47471 0.72517 0.79195 0.0
H337 H 0.45914 0.74385 0.72428 0.0
O338 O 0.36748 0.7076 0.83687 0.0
C339 C 0.40098 0.75084 0.77065 0.0
Co340 Co 0.27532 0.39056 0.80863 0.0
Co341 Co 0.27254 0.43097 0.76533 0.0
C342 C 0.30038 0.3919 0.75118 0.0
O343 O 0.29417 0.3821 0.77487 0.0
O344 O 0.29366 0.41109 0.74479 0.0
C345 C 0.29775 0.36052 0.84675 0.0
O346 O 0.31444 0.36588 0.82962 0.0
C347 C 0.28954 0.46934 0.73416 0.0
C348 C 0.25937 0.48754 0.72277 0.0
C349 C 0.28203 0.48847 0.72076 0.0
N350 N 0.27215 0.45775 0.74357 0.0
N351 N 0.25414 0.46854 0.73636 0.0
C352 C 0.31275 0.463 0.74072 0.0
H353 H 0.31338 0.45064 0.75897 0.0
H354 H 0.32252 0.4776 0.74714 0.0
H355 H 0.32013 0.45571 0.72029 0.0
C356 C 0.28717 0.42534 0.85152 0.0
N357 N 0.28288 0.41863 0.8234 0.0
N358 N 0.2813 0.43586 0.80572 0.0
C359 C 0.28443 0.45414 0.82226 0.0
C360 C 0.28837 0.44796 0.85169 0.0
C361 C 0.28864 0.41047 0.87818 0.0
H362 H 0.27377 0.40006 0.87943 0.0
H363 H 0.30314 0.39971 0.87563 0.0
H364 H 0.29046 0.41969 0.89946 0.0
O365 O 0.24446 0.39084 0.79644 0.0
O366 O 0.2422 0.4191 0.76514 0.0
H367 H 0.26593 0.47787 0.79745 0.0
H368 H 0.28013 0.48893 0.82974 0.0
C369 C 0.28114 0.47701 0.811 0.0
H370 H 0.29513 0.4816 0.79646 0.0
H371 H 0.23832 0.46323 0.74144 0.0
O372 O 0.27903 0.36865 0.84109 0.0
C373 C 0.23336 0.40319 0.77915 0.0
Co374 Co 0.59443 0.28345 0.81689 0.0
Co375 Co 0.55945 0.28065 0.76551 0.0
C376 C 0.60133 0.30651 0.75898 0.0
O377 O 0.60787 0.30108 0.78503 0.0
O378 O 0.58302 0.2998 0.74873 0.0
C379 C 0.63264 0.28865 0.85554 0.0
O380 O 0.64425 0.28971 0.83077 0.0
C381 C 0.52425 0.29969 0.72989 0.0
C382 C 0.50507 0.27054 0.71686 0.0
C383 C 0.50483 0.29327 0.71612 0.0
N384 N 0.53493 0.28167 0.73913 0.0
N385 N 0.52366 0.26426 0.73065 0.0
C386 C 0.53273 0.32248 0.73453 0.0
H387 H 0.55072 0.32282 0.73138 0.0
H388 H 0.5293 0.32777 0.75786 0.0
H389 H 0.52508 0.33416 0.71857 0.0
C390 C 0.55686 0.29999 0.85049 0.0
N391 N 0.56594 0.2935 0.82456 0.0
N392 N 0.55054 0.29071 0.80427 0.0
C393 C 0.5309 0.29454 0.81727 0.0
C394 C 0.53437 0.30093 0.84679 0.0
C395 C 0.56925 0.30194 0.87937 0.0
H396 H 0.57527 0.28549 0.88605 0.0
H397 H 0.58361 0.31281 0.8761 0.0
H398 H 0.55899 0.30857 0.89776 0.0
O399 O 0.59318 0.25219 0.80639 0.0
O400 O 0.56971 0.24987 0.76832 0.0
H401 H 0.5101 0.27477 0.78949 0.0
H402 H 0.49599 0.28858 0.81982 0.0
C403 C 0.50921 0.29005 0.80287 0.0
H404 H 0.50499 0.30378 0.78767 0.0
H405 H 0.52807 0.24815 0.73568 0.0
O406 O 0.61203 0.28604 0.85393 0.0
C407 C 0.58289 0.24101 0.78685 0.0
Co408 Co 0.71154 0.38756 0.18523 0.0
Co409 Co 0.71208 0.42884 0.22707 0.0
C410 C 0.68457 0.38892 0.24055 0.0
O411 O 0.6914 0.37892 0.21737 0.0
O412 O 0.69118 0.40817 0.24685 0.0
C413 C 0.69392 0.35334 0.14803 0.0
O414 O 0.67692 0.35481 0.16597 0.0
C415 C 0.69197 0.46787 0.25341 0.0
C416 C 0.7205 0.48505 0.27286 0.0
C417 C 0.69802 0.48656 0.26903 0.0
N418 N 0.71007 0.45599 0.24795 0.0
N419 N 0.72705 0.46626 0.25981 0.0
C420 C 0.66923 0.46076 0.2453 0.0
H421 H 0.66873 0.44299 0.24036 0.0
H422 H 0.66363 0.46962 0.22502 0.0
H423 H 0.65771 0.46469 0.26381 0.0
C424 C 0.69943 0.42086 0.1405 0.0
N425 N 0.70357 0.41502 0.16903 0.0
N426 N 0.70494 0.43272 0.18579 0.0
C427 C 0.70237 0.45052 0.16809 0.0
C428 C 0.69838 0.44349 0.13897 0.0
C429 C 0.69943 0.4052 0.11461 0.0
H430 H 0.71505 0.39592 0.11441 0.0
H431 H 0.68578 0.3934 0.11738 0.0
H432 H 0.6976 0.41365 0.09274 0.0
O433 O 0.74179 0.38914 0.20016 0.0
O434 O 0.74275 0.41818 0.23018 0.0
H435 H 0.71918 0.47465 0.19451 0.0
H436 H 0.70864 0.48487 0.15921 0.0
C437 C 0.70544 0.47369 0.17831 0.0
H438 H 0.69033 0.47935 0.18962 0.0
H439 H 0.74314 0.46052 0.25883 0.0
O440 O 0.71062 0.36524 0.15301 0.0
C441 C 0.7522 0.40201 0.21754 0.0
Co442 Co 0.60556 0.71666 0.18144 0.0
Co443 Co 0.56594 0.72011 0.2259 0.0
C444 C 0.60198 0.68804 0.23611 0.0
O445 O 0.61189 0.69486 0.21282 0.0
O446 O 0.5837 0.69623 0.24409 0.0
C447 C 0.63133 0.69241 0.14082 0.0
O448 O 0.62196 0.67612 0.15522 0.0
C449 C 0.52699 0.70601 0.2586 0.0
C450 C 0.51094 0.7375 0.26933 0.0
C451 C 0.50864 0.71499 0.27234 0.0
N452 N 0.53946 0.72243 0.2481 0.0
N453 N 0.52994 0.74123 0.2549 0.0
C454 C 0.53178 0.68231 0.25286 0.0
H455 H 0.54337 0.68051 0.23384 0.0
H456 H 0.51646 0.67322 0.24787 0.0
H457 H 0.53942 0.67505 0.27315 0.0
C458 C 0.56967 0.70973 0.1382 0.0
N459 N 0.5769 0.71286 0.16636 0.0
N460 N 0.56001 0.71421 0.18466 0.0
C461 C 0.54141 0.71193 0.16851 0.0
C462 C 0.54703 0.70871 0.13866 0.0
C463 C 0.58397 0.70995 0.11088 0.0
H464 H 0.59706 0.72239 0.1134 0.0
H465 H 0.59159 0.69358 0.10809 0.0
H466 H 0.57446 0.71377 0.09033 0.0
O467 O 0.6087 0.74655 0.1971 0.0
O468 O 0.58122 0.7487 0.22966 0.0
H469 H 0.51696 0.72814 0.19482 0.0
H470 H 0.50607 0.71263 0.16357 0.0
C471 C 0.51878 0.71299 0.18133 0.0
H472 H 0.51619 0.69876 0.19634 0.0
H473 H 0.53616 0.75658 0.24905 0.0
O474 O 0.62713 0.71194 0.14887 0.0
C475 C 0.59769 0.75718 0.2165 0.0
Co476 Co 0.28761 0.60803 0.18331 0.0
Co477 Co 0.28639 0.56728 0.22625 0.0
C478 C 0.31488 0.60671 0.23833 0.0
O479 O 0.30827 0.61652 0.21487 0.0
O480 O 0.30776 0.58776 0.24523 0.0
C481 C 0.30696 0.63929 0.14365 0.0
O482 O 0.3246 0.63485 0.15942 0.0
C483 C 0.30623 0.52818 0.25228 0.0
C484 C 0.27837 0.51264 0.27574 0.0
C485 C 0.30051 0.51023 0.26968 0.0
N486 N 0.28827 0.54051 0.24799 0.0
N487 N 0.27168 0.53121 0.26218 0.0
C488 C 0.32863 0.53434 0.24142 0.0
H489 H 0.32952 0.5521 0.23643 0.0
H490 H 0.33239 0.52533 0.22048 0.0
H491 H 0.34117 0.52988 0.2584 0.0
C492 C 0.29735 0.5736 0.13909 0.0
N493 N 0.29454 0.58007 0.16766 0.0
N494 N 0.29296 0.56266 0.18501 0.0
C495 C 0.29411 0.54451 0.16773 0.0
C496 C 0.2971 0.55094 0.13816 0.0
C497 C 0.29895 0.58885 0.11285 0.0
H498 H 0.28375 0.59876 0.11121 0.0
H499 H 0.313 0.60005 0.11627 0.0
H500 H 0.30156 0.57996 0.09147 0.0
O501 O 0.25742 0.60745 0.19896 0.0
O502 O 0.25606 0.57861 0.22942 0.0
H503 H 0.27638 0.52236 0.1963 0.0
H504 H 0.28291 0.51143 0.15966 0.0
C505 C 0.28893 0.52182 0.17835 0.0
H506 H 0.30397 0.51416 0.18747 0.0
H507 H 0.25579 0.53753 0.2626 0.0
O508 O 0.28898 0.63011 0.15066 0.0
C509 C 0.24689 0.59491 0.21671 0.0
Co510 Co 0.38979 0.28238 0.18273 0.0
Co511 Co 0.42965 0.27629 0.2264 0.0
C512 C 0.3941 0.30926 0.23825 0.0
O513 O 0.38398 0.30375 0.2145 0.0
O514 O 0.41199 0.3 0.24577 0.0
C515 C 0.3624 0.30616 0.14238 0.0
O516 O 0.37021 0.32306 0.15717 0.0
C517 C 0.46926 0.29038 0.25725 0.0
C518 C 0.48524 0.25899 0.26874 0.0
C519 C 0.48784 0.28153 0.27054 0.0
N520 N 0.45636 0.27387 0.24813 0.0
N521 N 0.46583 0.25513 0.25539 0.0
C522 C 0.46472 0.31397 0.25041 0.0
H523 H 0.4527 0.31542 0.23184 0.0
H524 H 0.48006 0.32265 0.24428 0.0
H525 H 0.45771 0.32193 0.27062 0.0
C526 C 0.42556 0.28925 0.13938 0.0
N527 N 0.41843 0.28589 0.16754 0.0
N528 N 0.43541 0.28314 0.18542 0.0
C529 C 0.45393 0.28455 0.16892 0.0
C530 C 0.44817 0.2887 0.13941 0.0
C531 C 0.41103 0.2916 0.1125 0.0
H532 H 0.39855 0.2784 0.11246 0.0
H533 H 0.40255 0.30764 0.11356 0.0
H534 H 0.42044 0.29089 0.09123 0.0
O535 O 0.38629 0.25244 0.19789 0.0
O536 O 0.41452 0.24746 0.22863 0.0
H537 H 0.47666 0.26552 0.19466 0.0
H538 H 0.4885 0.27864 0.16201 0.0
C539 C 0.47655 0.2805 0.18059 0.0
H540 H 0.48164 0.29455 0.19472 0.0
H541 H 0.45934 0.23972 0.25047 0.0
O542 O 0.36818 0.28697 0.15015 0.0
C543 C 0.3973 0.2404 0.21568 0.0
H544 H 0.19668 0.97909 0.17302 0.0
H545 H 0.17753 0.94442 0.16311 0.0
H546 H 0.14963 0.94647 0.25197 0.0
H547 H 0.16847 0.98081 0.26177 0.0
H548 H 0.18247 0.90634 0.19069 0.0
H549 H 0.09633 0.93108 0.20389 0.0
H550 H 0.11806 0.95086 0.19909 0.0
H551 H 0.11168 0.94014 0.23578 0.0
C552 C 0.18611 0.97226 0.19016 0.0
C553 C 0.18351 0.98297 0.21782 0.0
C554 C 0.17518 0.95252 0.18447 0.0
C555 C 0.16159 0.94318 0.20645 0.0
C556 C 0.15923 0.95381 0.23417 0.0
H557 H 0.14149 0.82059 0.27423 0.0
H558 H 0.1554 0.85337 0.25014 0.0
C559 C 0.17001 0.97352 0.23977 0.0
C560 C 0.15155 0.92129 0.20205 0.0
H561 H 0.1047 0.89302 0.21734 0.0
C562 C 0.16532 0.90346 0.19572 0.0
C563 C 0.12905 0.91748 0.20765 0.0
C564 C 0.11292 0.93599 0.21161 0.0
C565 C 0.15766 0.88184 0.19788 0.0
C566 C 0.13588 0.87803 0.2074 0.0
C567 C 0.12155 0.89587 0.21065 0.0
C568 C 0.12861 0.8563 0.21852 0.0
C569 C 0.17326 0.86334 0.19103 0.0
C570 C 0.10871 0.84702 0.20906 0.0
C571 C 0.10044 0.82827 0.22323 0.0
C572 C 0.1119 0.81863 0.24725 0.0
C573 C 0.13221 0.82752 0.2558 0.0
C574 C 0.14037 0.8462 0.24176 0.0
H575 H 0.1849 0.86811 0.17301 0.0
H576 H 0.18307 0.85958 0.21134 0.0
H577 H 0.16442 0.84829 0.18398 0.0
H578 H 0.09925 0.85468 0.19137 0.0
H579 H 0.08472 0.82186 0.21615 0.0
H580 H 0.16049 0.14083 0.25901 0.0
H581 H 0.12749 0.15589 0.23638 0.0
H582 H 0.11543 0.09446 0.19154 0.0
H583 H 0.14867 0.07901 0.21443 0.0
H584 H 0.11251 0.15944 0.17448 0.0
H585 H 0.0609 0.10507 0.24625 0.0
H586 H 0.08963 0.10919 0.25394 0.0
H587 H 0.08136 0.09278 0.22256 0.0
C588 C 0.15102 0.13052 0.24408 0.0
C589 C 0.15705 0.10863 0.23881 0.0
C590 C 0.13221 0.13922 0.23102 0.0
C591 C 0.11896 0.12622 0.21255 0.0
C592 C 0.12541 0.10467 0.20596 0.0
H593 H 0.98406 0.1739 0.19295 0.0
H594 H 0.01595 0.15113 0.18102 0.0
C595 C 0.1444 0.09592 0.21896 0.0
C596 C 0.09757 0.13507 0.20281 0.0
H597 H 0.0437 0.13475 0.22308 0.0
C598 C 0.09733 0.15375 0.18445 0.0
C599 C 0.0778 0.1275 0.21572 0.0
C600 C 0.07724 0.10759 0.23583 0.0
C601 C 0.07806 0.16592 0.18028 0.0
C602 C 0.05874 0.15944 0.19537 0.0
C603 C 0.05858 0.13975 0.21166 0.0
C604 C 0.03964 0.17424 0.19839 0.0
C605 C 0.07881 0.18606 0.1607 0.0
C606 C 0.04239 0.19483 0.21189 0.0
C607 C 0.02425 0.20768 0.21908 0.0
C608 C 0.00295 0.20006 0.21335 0.0
C609 C 0.00022 0.17989 0.19858 0.0
C610 C 0.01843 0.16699 0.19139 0.0
H611 H 0.0912 0.18422 0.14262 0.0
H612 H 0.06261 0.18948 0.15035 0.0
H613 H 0.08362 0.20039 0.17452 0.0
H614 H 0.05855 0.20055 0.21821 0.0
H615 H 0.02689 0.22315 0.23045 0.0
H616 H 0.79713 0.01242 0.1699 0.0
H617 H 0.81536 0.04696 0.15651 0.0
H618 H 0.84953 0.04612 0.24124 0.0
H619 H 0.83177 0.01183 0.25431 0.0
H620 H 0.81112 0.08462 0.18303 0.0
H621 H 0.8986 0.06397 0.18782 0.0
H622 H 0.87768 0.04308 0.18604 0.0
H623 H 0.88594 0.05452 0.22163 0.0
C624 C 0.80898 0.01943 0.18525 0.0
C625 C 0.81352 0.00916 0.21276 0.0
C626 C 0.81937 0.0391 0.17759 0.0
C627 C 0.83432 0.04886 0.19747 0.0
C628 C 0.83885 0.03849 0.22491 0.0
H629 H 0.85034 0.17082 0.26575 0.0
H630 H 0.83719 0.13809 0.24085 0.0
C631 C 0.82865 0.01881 0.23241 0.0
C632 C 0.84317 0.07111 0.19178 0.0
H633 H 0.88913 0.10156 0.20371 0.0
C634 C 0.82831 0.08828 0.18666 0.0
C635 C 0.86567 0.07601 0.19544 0.0
C636 C 0.88286 0.05832 0.19766 0.0
C637 C 0.83497 0.11023 0.18849 0.0
C638 C 0.85687 0.11506 0.19656 0.0
C639 C 0.87219 0.09794 0.19825 0.0
C640 C 0.86336 0.13692 0.20805 0.0
C641 C 0.81824 0.12797 0.18298 0.0
C642 C 0.88266 0.14721 0.1982 0.0
C643 C 0.89052 0.1659 0.2129 0.0
C644 C 0.87925 0.17451 0.23778 0.0
C645 C 0.85944 0.16471 0.24664 0.0
C646 C 0.85171 0.14605 0.23213 0.0
H647 H 0.80645 0.12286 0.16533 0.0
H648 H 0.80871 0.1308 0.20382 0.0
H649 H 0.82604 0.14361 0.17605 0.0
H650 H 0.89203 0.14034 0.17985 0.0
H651 H 0.90585 0.17304 0.20552 0.0
H652 H 0.83124 0.85197 0.26943 0.0
H653 H 0.86303 0.83437 0.24679 0.0
H654 H 0.87538 0.89223 0.19389 0.0
H655 H 0.84348 0.91019 0.21663 0.0
H656 H 0.87692 0.82672 0.18432 0.0
H657 H 0.93045 0.88397 0.2488 0.0
H658 H 0.90179 0.88068 0.25763 0.0
H659 H 0.90981 0.8954 0.22458 0.0
C660 C 0.84048 0.86089 0.25265 0.0
C661 C 0.83501 0.88259 0.24513 0.0
C662 C 0.85857 0.85075 0.23963 0.0
C663 C 0.87162 0.8621 0.21896 0.0
C664 C 0.86556 0.8833 0.21001 0.0
H665 H 0.00617 0.81456 0.19787 0.0
H666 H 0.97358 0.83626 0.18567 0.0
C667 C 0.84732 0.89348 0.22297 0.0
C668 C 0.89267 0.85231 0.2096 0.0
H669 H 0.94705 0.85348 0.22697 0.0
C670 C 0.89237 0.83278 0.19303 0.0
C671 C 0.91277 0.86039 0.22085 0.0
C672 C 0.91391 0.8812 0.23908 0.0
C673 C 0.91153 0.82045 0.18881 0.0
C674 C 0.93129 0.82762 0.20217 0.0
C675 C 0.93186 0.84796 0.21683 0.0
C676 C 0.95068 0.81315 0.20499 0.0
C677 C 0.91025 0.79955 0.17085 0.0
C678 C 0.94861 0.79287 0.2196 0.0
C679 C 0.96716 0.78058 0.22676 0.0
C680 C 0.98817 0.78853 0.21998 0.0
C681 C 0.99022 0.80835 0.20417 0.0
C682 C 0.97161 0.82063 0.19688 0.0
H683 H 0.89743 0.80074 0.15323 0.0
H684 H 0.92616 0.79562 0.16004 0.0
H685 H 0.90569 0.78583 0.18595 0.0
H686 H 0.93272 0.78701 0.22684 0.0
H687 H 0.96508 0.76537 0.23898 0.0
H688 H 0.14677 0.17395 0.73046 0.0
H689 H 0.16207 0.14104 0.75269 0.0
H690 H 0.10696 0.13667 0.81299 0.0
H691 H 0.09093 0.16947 0.78991 0.0
H692 H 0.17459 0.12726 0.80778 0.0
H693 H 0.10242 0.07954 0.76765 0.0
H694 H 0.10676 0.10768 0.75694 0.0
H695 H 0.09706 0.10117 0.79394 0.0
C696 C 0.13793 0.16622 0.74868 0.0
C697 C 0.11738 0.17413 0.75799 0.0
C698 C 0.1468 0.14742 0.76151 0.0
C699 C 0.13545 0.13612 0.78407 0.0
C700 C 0.11574 0.14485 0.7951 0.0
H701 H 0.20621 0.01298 0.82784 0.0
H702 H 0.18644 0.04732 0.83828 0.0
C703 C 0.10668 0.16367 0.78202 0.0
C704 C 0.14356 0.11425 0.79334 0.0
H705 H 0.13275 0.05979 0.78423 0.0
C706 C 0.16533 0.11244 0.80328 0.0
C707 C 0.13141 0.09498 0.78731 0.0
C708 C 0.10817 0.09578 0.77569 0.0
C709 C 0.17583 0.09201 0.80509 0.0
C710 C 0.16399 0.07287 0.79753 0.0
C711 C 0.14173 0.07454 0.78996 0.0
C712 C 0.17503 0.05155 0.79265 0.0
C713 C 0.1999 0.09127 0.81279 0.0
C714 C 0.17475 0.04235 0.7638 0.0
C715 C 0.18567 0.02277 0.75801 0.0
C716 C 0.197 0.01194 0.78098 0.0
C717 C 0.19739 0.02106 0.80988 0.0
C718 C 0.18623 0.04065 0.81579 0.0
H719 H 0.2074 0.10786 0.81321 0.0
H720 H 0.20201 0.08382 0.83531 0.0
H721 H 0.20897 0.08104 0.79636 0.0
H722 H 0.16643 0.05061 0.74553 0.0
H723 H 0.1858 0.01644 0.73532 0.0
H724 H 0.83172 0.08688 0.7895 0.0
H725 H 0.86529 0.10262 0.81071 0.0
H726 H 0.86121 0.15629 0.74792 0.0
H727 H 0.82768 0.14118 0.72731 0.0
H728 H 0.90312 0.10833 0.78251 0.0
H729 H 0.87583 0.18898 0.82294 0.0
H730 H 0.85671 0.16736 0.81402 0.0
H731 H 0.86683 0.18535 0.78504 0.0
C732 C 0.83775 0.10228 0.78066 0.0
C733 C 0.82698 0.11278 0.75672 0.0
C734 C 0.85692 0.11124 0.7928 0.0
C735 C 0.86553 0.13087 0.78132 0.0
C736 C 0.85455 0.14151 0.75783 0.0
H737 H 0.98914 0.17434 0.73573 0.0
H738 H 0.95577 0.15399 0.74619 0.0
C739 C 0.83543 0.13268 0.74583 0.0
C740 C 0.88716 0.13922 0.79119 0.0
H741 H 0.91392 0.18712 0.80547 0.0
C742 C 0.90546 0.12543 0.78833 0.0
C743 C 0.89028 0.16136 0.7996 0.0
C744 C 0.87129 0.17649 0.80591 0.0
C745 C 0.92681 0.13371 0.79084 0.0
C746 C 0.92989 0.15644 0.79549 0.0
C747 C 0.91162 0.16977 0.80123 0.0
C748 C 0.95145 0.16713 0.79094 0.0
C749 C 0.94583 0.1181 0.78754 0.0
C750 C 0.95993 0.1818 0.81226 0.0
C751 C 0.97904 0.19365 0.80613 0.0
C752 C 0.99004 0.19088 0.77872 0.0
C753 C 0.9816 0.17612 0.75754 0.0
C754 C 0.96246 0.16446 0.76353 0.0
H755 H 0.94147 0.10155 0.79608 0.0
H756 H 0.94996 0.11637 0.76342 0.0
H757 H 0.96055 0.12402 0.79972 0.0
H758 H 0.95153 0.18438 0.83337 0.0
H759 H 0.98511 0.20515 0.82267 0.0
H760 H 0.85319 0.82882 0.75301 0.0
H761 H 0.83927 0.86252 0.77514 0.0
H762 H 0.90235 0.8749 0.8153 0.0
H763 H 0.91661 0.84098 0.79296 0.0
H764 H 0.83832 0.88036 0.83627 0.0
H765 H 0.89097 0.927 0.75621 0.0
H766 H 0.88583 0.8981 0.75144 0.0
H767 H 0.90372 0.90734 0.78074 0.0
C768 C 0.86407 0.83848 0.76694 0.0
C769 C 0.88609 0.8324 0.77089 0.0
C770 C 0.85603 0.85768 0.77971 0.0
C771 C 0.86986 0.87126 0.79653 0.0
C772 C 0.8915 0.86465 0.80215 0.0
H773 H 0.82771 0.00837 0.808 0.0
H774 H 0.84982 0.9761 0.82035 0.0
C775 C 0.89958 0.84527 0.78947 0.0
C776 C 0.86189 0.89328 0.80498 0.0
H777 H 0.86291 0.94612 0.78017 0.0
C778 C 0.84401 0.8949 0.82461 0.0
C779 C 0.86945 0.91219 0.78984 0.0
C780 C 0.88849 0.91125 0.76825 0.0
C781 C 0.83262 0.91471 0.8281 0.0
C782 C 0.83903 0.93314 0.81096 0.0
C783 C 0.85796 0.93194 0.79317 0.0
C784 C 0.82483 0.9527 0.80772 0.0
C785 C 0.81341 0.91548 0.84933 0.0
C786 C 0.80343 0.95026 0.79669 0.0
C787 C 0.79089 0.96861 0.78937 0.0
C788 C 0.79966 0.98976 0.79239 0.0
C789 C 0.82077 0.99226 0.80452 0.0
C790 C 0.83332 0.97385 0.81194 0.0
H791 H 0.81576 0.9039 0.8683 0.0
H792 H 0.81088 0.93221 0.85847 0.0
H793 H 0.79835 0.91044 0.83719 0.0
H794 H 0.79672 0.93412 0.79244 0.0
H795 H 0.77468 0.96618 0.78005 0.0
H796 H 0.99253 0.83077 0.8117 0.0
H797 H 0.02549 0.85256 0.82154 0.0
H798 H 0.0655 0.80071 0.78516 0.0
H799 H 0.03271 0.7789 0.77543 0.0
H800 H 0.08355 0.82007 0.83638 0.0
H801 H 0.05755 0.8827 0.7525 0.0
H802 H 0.03908 0.87759 0.78309 0.0
H803 H 0.04403 0.85653 0.75579 0.0
C804 C 0.00835 0.8241 0.80568 0.0
C805 C 0.01005 0.80343 0.792 0.0
C806 C 0.02715 0.8365 0.81147 0.0
C807 C 0.04788 0.82842 0.8035 0.0
C808 C 0.04964 0.80728 0.79138 0.0
H809 H 0.17416 0.85386 0.75207 0.0
H810 H 0.1408 0.83993 0.77511 0.0
C811 C 0.03091 0.79485 0.78579 0.0
C812 C 0.06773 0.84227 0.80566 0.0
H813 H 0.09292 0.8857 0.77196 0.0
C814 C 0.0855 0.83467 0.82275 0.0
C815 C 0.07016 0.86141 0.78801 0.0
C816 C 0.0518 0.87005 0.76862 0.0
C817 C 0.10601 0.84499 0.82131 0.0
C818 C 0.10881 0.86318 0.80207 0.0
C819 C 0.09066 0.87175 0.78674 0.0
C820 C 0.13079 0.87121 0.79345 0.0
C821 C 0.12473 0.83583 0.83949 0.0
C822 C 0.13636 0.89344 0.79629 0.0
C823 C 0.15555 0.90151 0.78308 0.0
C824 C 0.16915 0.88749 0.76635 0.0
C825 C 0.16398 0.86508 0.76474 0.0
C826 C 0.14501 0.85704 0.77816 0.0
H827 H 0.11867 0.82752 0.86006 0.0
H828 H 0.13362 0.82348 0.82587 0.0
H829 H 0.13646 0.84889 0.84603 0.0
H830 H 0.12543 0.90467 0.8077 0.0
H831 H 0.15907 0.91887 0.78454 0.0
H832 H 0.68118 0.48108 0.75439 0.0
H833 H 0.66268 0.44646 0.74499 0.0
H834 H 0.69309 0.44254 0.65779 0.0
H835 H 0.71195 0.4775 0.66733 0.0
H836 H 0.63375 0.43404 0.70056 0.0
H837 H 0.71045 0.38456 0.69669 0.0
H838 H 0.7102 0.41255 0.70965 0.0
H839 H 0.70796 0.40671 0.67032 0.0
C840 C 0.68355 0.47318 0.73292 0.0
C841 C 0.69761 0.4822 0.71129 0.0
C842 C 0.67309 0.45328 0.72764 0.0
C843 C 0.67655 0.44189 0.70073 0.0
C844 C 0.6904 0.45095 0.67885 0.0
H845 H 0.59238 0.32414 0.70348 0.0
H846 H 0.61131 0.35487 0.67932 0.0
C847 C 0.70105 0.4709 0.68425 0.0
C848 C 0.66604 0.42021 0.69679 0.0
H849 H 0.67728 0.36544 0.69846 0.0
C850 C 0.64317 0.41898 0.69946 0.0
C851 C 0.67847 0.40067 0.6953 0.0
C852 C 0.70314 0.40102 0.693 0.0
C853 C 0.6325 0.39881 0.70318 0.0
C854 C 0.64505 0.3793 0.70336 0.0
C855 C 0.66773 0.38044 0.69824 0.0
C856 C 0.63572 0.35833 0.71423 0.0
C857 C 0.60817 0.39879 0.7094 0.0
C858 C 0.64397 0.34926 0.74084 0.0
C859 C 0.63346 0.33159 0.75441 0.0
C860 C 0.61434 0.32266 0.74175 0.0
C861 C 0.60692 0.33081 0.714 0.0
C862 C 0.61763 0.34844 0.70024 0.0
H863 H 0.60166 0.41556 0.7132 0.0
H864 H 0.59938 0.39166 0.68993 0.0
H865 H 0.60439 0.38866 0.72944 0.0
H866 H 0.65795 0.35656 0.75199 0.0
H867 H 0.63979 0.32564 0.7756 0.0
H868 H 0.51191 0.67406 0.75758 0.0
H869 H 0.54551 0.65414 0.74656 0.0
H870 H 0.54362 0.67749 0.65522 0.0
H871 H 0.50987 0.69791 0.66646 0.0
H872 H 0.55548 0.62188 0.70662 0.0
H873 H 0.60359 0.69743 0.68225 0.0
H874 H 0.5765 0.69851 0.69828 0.0
H875 H 0.57999 0.69251 0.65913 0.0
C876 C 0.51832 0.67456 0.73497 0.0
C877 C 0.50812 0.68721 0.71272 0.0
C878 C 0.53763 0.66327 0.72872 0.0
C879 C 0.54717 0.66441 0.70011 0.0
C880 C 0.53674 0.67666 0.67757 0.0
H881 H 0.66683 0.58217 0.70297 0.0
H882 H 0.63371 0.59743 0.67966 0.0
C883 C 0.51747 0.68821 0.68396 0.0
C884 C 0.56855 0.65351 0.69505 0.0
H885 H 0.62299 0.66462 0.6866 0.0
C886 C 0.57026 0.63108 0.70165 0.0
C887 C 0.58773 0.66561 0.68841 0.0
C888 C 0.58703 0.68986 0.68179 0.0
C889 C 0.59073 0.62081 0.70438 0.0
C890 C 0.60999 0.63323 0.69949 0.0
C891 C 0.60818 0.65517 0.69028 0.0
C892 C 0.63171 0.62528 0.7096 0.0
C893 C 0.59156 0.59731 0.71494 0.0
C894 C 0.64216 0.63646 0.73304 0.0
C895 C 0.66108 0.62802 0.74604 0.0
C896 C 0.67001 0.60809 0.73601 0.0
C897 C 0.66026 0.59747 0.71137 0.0
C898 C 0.64127 0.60608 0.69816 0.0
H899 H 0.57519 0.59109 0.72174 0.0
H900 H 0.59774 0.58676 0.69654 0.0
H901 H 0.60289 0.59563 0.7343 0.0
H902 H 0.63512 0.65132 0.74224 0.0
H903 H 0.66822 0.6368 0.76476 0.0
H904 H 0.32093 0.48905 0.68959 0.0
H905 H 0.34348 0.5212 0.67792 0.0
H906 H 0.2943 0.56319 0.71698 0.0
H907 H 0.27175 0.53125 0.72853 0.0
H908 H 0.3125 0.5803 0.66442 0.0
H909 H 0.37694 0.55256 0.74461 0.0
H910 H 0.37017 0.53424 0.71446 0.0
H911 H 0.35029 0.53987 0.74313 0.0
C912 C 0.31501 0.50513 0.6958 0.0
C913 C 0.29489 0.50764 0.71075 0.0
C914 C 0.32784 0.52347 0.68897 0.0
C915 C 0.32074 0.54451 0.69714 0.0
C916 C 0.30011 0.54708 0.71055 0.0
H917 H 0.34989 0.66959 0.74798 0.0
H918 H 0.33493 0.63657 0.72523 0.0
C919 C 0.28726 0.52882 0.71719 0.0
C920 C 0.33514 0.56389 0.69393 0.0
H921 H 0.37998 0.58801 0.72548 0.0
C922 C 0.32751 0.58186 0.67727 0.0
C923 C 0.35481 0.56582 0.71054 0.0
C924 C 0.36357 0.5472 0.72938 0.0
C925 C 0.33829 0.60215 0.6783 0.0
C926 C 0.357 0.6045 0.69668 0.0
C927 C 0.36562 0.5861 0.71139 0.0
C928 C 0.36556 0.62628 0.70523 0.0
C929 C 0.32904 0.62114 0.66074 0.0
C930 C 0.38778 0.63155 0.70139 0.0
C931 C 0.39643 0.65054 0.71442 0.0
C932 C 0.38304 0.66423 0.73198 0.0
C933 C 0.36064 0.65934 0.73466 0.0
C934 C 0.352 0.64057 0.7214 0.0
H935 H 0.32012 0.61535 0.64051 0.0
H936 H 0.3172 0.63018 0.67501 0.0
H937 H 0.34214 0.63267 0.65369 0.0
H938 H 0.39855 0.62056 0.68928 0.0
H939 H 0.41379 0.65385 0.71212 0.0
H940 H 0.30761 0.34835 0.74319 0.0
H941 H 0.34117 0.33141 0.72429 0.0
H942 H 0.36661 0.39517 0.7013 0.0
H943 H 0.33269 0.41221 0.71922 0.0
H944 H 0.38111 0.36053 0.66213 0.0
H945 H 0.39204 0.34135 0.78309 0.0
H946 H 0.36759 0.33009 0.76689 0.0
H947 H 0.37074 0.35933 0.7697 0.0
C948 C 0.32008 0.35869 0.73323 0.0
C949 C 0.31777 0.3816 0.73311 0.0
C950 C 0.33922 0.34901 0.72247 0.0
C951 C 0.35652 0.36211 0.71215 0.0
C952 C 0.35344 0.38481 0.70932 0.0
H953 H 0.49053 0.33081 0.74386 0.0
H954 H 0.45588 0.34934 0.7369 0.0
C955 C 0.33408 0.39451 0.71959 0.0
C956 C 0.37872 0.35265 0.70908 0.0
H957 H 0.41902 0.32823 0.75009 0.0
C958 C 0.38947 0.35343 0.68127 0.0
C959 C 0.38966 0.34379 0.7343 0.0
C960 C 0.37955 0.34374 0.76525 0.0
C961 C 0.41095 0.34535 0.678 0.0
C962 C 0.42165 0.33611 0.70315 0.0
C963 C 0.41078 0.33533 0.73084 0.0
C964 C 0.44434 0.32754 0.70207 0.0
C965 C 0.42216 0.34725 0.64799 0.0
C966 C 0.44974 0.30946 0.68409 0.0
C967 C 0.47009 0.29913 0.68737 0.0
C968 C 0.48526 0.30662 0.70881 0.0
C969 C 0.47995 0.32514 0.72608 0.0
C970 C 0.45984 0.33561 0.72248 0.0
H971 H 0.41401 0.35951 0.63332 0.0
H972 H 0.43963 0.3519 0.65074 0.0
H973 H 0.42156 0.33114 0.63648 0.0
H974 H 0.43784 0.30261 0.66872 0.0
H975 H 0.47357 0.2847 0.67407 0.0
H976 H 0.58467 0.66619 0.28466 0.0
H977 H 0.59896 0.63279 0.30824 0.0
H978 H 0.65406 0.63367 0.24764 0.0
H979 H 0.64041 0.667 0.22473 0.0
H980 H 0.60387 0.59422 0.28223 0.0
H981 H 0.68472 0.61921 0.3241 0.0
H982 H 0.66405 0.639 0.31378 0.0
H983 H 0.68228 0.62778 0.28585 0.0
C984 C 0.60009 0.65951 0.27685 0.0
C985 C 0.61139 0.66929 0.25279 0.0
C986 C 0.60822 0.64043 0.29034 0.0
C987 C 0.62782 0.63095 0.28013 0.0
C988 C 0.6393 0.64102 0.25662 0.0
H989 H 0.66724 0.50701 0.2349 0.0
H990 H 0.64737 0.54045 0.24649 0.0
C991 C 0.6313 0.66003 0.24327 0.0
C992 C 0.6352 0.60923 0.2911 0.0
H993 H 0.6821 0.58105 0.30632 0.0
C994 C 0.62083 0.59138 0.28836 0.0
C995 C 0.65712 0.60545 0.30001 0.0
C996 C 0.67279 0.62398 0.30644 0.0
C997 C 0.6284 0.56977 0.29119 0.0
C998 C 0.65101 0.56599 0.29598 0.0
C999 C 0.66485 0.58386 0.3019 0.0
C1000 C 0.66113 0.54418 0.29101 0.0
C1001 C 0.6122 0.55126 0.28794 0.0
C1002 C 0.67596 0.5353 0.31182 0.0
C1003 C 0.68757 0.51616 0.30501 0.0
C1004 C 0.68435 0.50552 0.27744 0.0
C1005 C 0.66933 0.51427 0.25684 0.0
C1006 C 0.65794 0.53345 0.26349 0.0
H1007 H 0.5959 0.55608 0.29685 0.0
H1008 H 0.61008 0.54738 0.2638 0.0
H1009 H 0.61778 0.53627 0.29983 0.0
H1010 H 0.67894 0.54346 0.333 0.0
H1011 H 0.69928 0.50984 0.3211 0.0
H1012 H 0.46645 0.72787 0.26584 0.0
H1013 H 0.43349 0.70729 0.27832 0.0
H1014 H 0.47306 0.65594 0.31703 0.0
H1015 H 0.50625 0.67661 0.30455 0.0
H1016 H 0.44548 0.64053 0.27549 0.0
H1017 H 0.39859 0.69336 0.35235 0.0
H1018 H 0.40712 0.70869 0.32012 0.0
H1019 H 0.42743 0.69753 0.34522 0.0
C1020 C 0.46814 0.71242 0.27761 0.0
C1021 C 0.48892 0.70359 0.28356 0.0
C1022 C 0.44925 0.70074 0.28498 0.0
C1023 C 0.45078 0.68018 0.29895 0.0
C1024 C 0.47152 0.67181 0.30631 0.0
H1025 H 0.33999 0.58784 0.28246 0.0
H1026 H 0.37253 0.60361 0.30646 0.0
C1027 C 0.49046 0.68349 0.29884 0.0
C1028 C 0.43094 0.66635 0.30169 0.0
H1029 H 0.3768 0.66897 0.32043 0.0
C1030 C 0.4306 0.64637 0.28613 0.0
C1031 C 0.41159 0.67395 0.3157 0.0
C1032 C 0.41128 0.69446 0.33455 0.0
C1033 C 0.411 0.63483 0.28179 0.0
C1034 C 0.39132 0.64343 0.29368 0.0
C1035 C 0.39193 0.6625 0.31123 0.0
C1036 C 0.36982 0.6349 0.28393 0.0
C1037 C 0.4112 0.61452 0.26246 0.0
C1038 C 0.35711 0.64762 0.26438 0.0
C1039 C 0.33863 0.63874 0.25069 0.0
C1040 C 0.33244 0.61694 0.25638 0.0
C1041 C 0.34439 0.60465 0.27751 0.0
C1042 C 0.363 0.61359 0.29118 0.0
H1043 H 0.42751 0.61144 0.25225 0.0
H1044 H 0.40675 0.60007 0.27631 0.0
H1045 H 0.3989 0.61598 0.24421 0.0
H1046 H 0.36214 0.66412 0.25852 0.0
H1047 H 0.32968 0.64873 0.23476 0.0
H1048 H 0.30084 0.48875 0.32327 0.0
H1049 H 0.32144 0.45549 0.33622 0.0
H1050 H 0.34993 0.45507 0.24764 0.0
H1051 H 0.3298 0.48815 0.23497 0.0
H1052 H 0.31745 0.41689 0.31272 0.0
H1053 H 0.40313 0.4413 0.29564 0.0
H1054 H 0.38138 0.46125 0.29872 0.0
H1055 H 0.38783 0.44889 0.26301 0.0
C1056 C 0.3119 0.48174 0.30688 0.0
C1057 C 0.31419 0.49132 0.2784 0.0
C1058 C 0.32368 0.46281 0.3143 0.0
C1059 C 0.33777 0.4531 0.29323 0.0
C1060 C 0.33997 0.46274 0.26477 0.0
H1061 H 0.35505 0.32997 0.23071 0.0
H1062 H 0.34252 0.36334 0.25458 0.0
C1063 C 0.32841 0.48171 0.25749 0.0
C1064 C 0.34807 0.4315 0.29913 0.0
H1065 H 0.39457 0.40273 0.28358 0.0
C1066 C 0.33449 0.41389 0.30721 0.0
C1067 C 0.37047 0.4275 0.293 0.0
C1068 C 0.38654 0.44585 0.28749 0.0
C1069 C 0.34211 0.39223 0.306 0.0
C1070 C 0.36361 0.38811 0.29558 0.0
C1071 C 0.3779 0.40581 0.29086 0.0
C1072 C 0.3703 0.36618 0.28458 0.0
C1073 C 0.32669 0.37397 0.31459 0.0
C1074 C 0.39032 0.35668 0.29313 0.0
C1075 C 0.39778 0.33755 0.27907 0.0
C1076 C 0.38539 0.32779 0.25604 0.0
C1077 C 0.36503 0.33699 0.24835 0.0
C1078 C 0.35767 0.35601 0.26229 0.0
H1079 H 0.31569 0.3792 0.33311 0.0
H1080 H 0.31619 0.36982 0.29509 0.0
H1081 H 0.3357 0.35903 0.32172 0.0
H1082 H 0.40045 0.36441 0.31004 0.0
H1083 H 0.41357 0.33091 0.28543 0.0
H1084 H 0.49112 0.3199 0.30234 0.0
H1085 H 0.52463 0.34056 0.31326 0.0
H1086 H 0.56319 0.28956 0.27202 0.0
H1087 H 0.52985 0.26882 0.26136 0.0
H1088 H 0.58263 0.30653 0.32342 0.0
H1089 H 0.55581 0.37296 0.24581 0.0
H1090 H 0.53784 0.36708 0.27668 0.0
H1091 H 0.54187 0.34695 0.2478 0.0
C1092 C 0.50675 0.31316 0.29558 0.0
C1093 C 0.50789 0.29307 0.28026 0.0
C1094 C 0.52586 0.32491 0.30194 0.0
C1095 C 0.54633 0.31681 0.29284 0.0
C1096 C 0.54754 0.29615 0.27912 0.0
H1097 H 0.67278 0.3459 0.24122 0.0
H1098 H 0.63996 0.33003 0.26338 0.0
C1099 C 0.52849 0.28434 0.273 0.0
C1100 C 0.56642 0.33028 0.29535 0.0
H1101 H 0.59127 0.37524 0.26513 0.0
C1102 C 0.58444 0.32176 0.3111 0.0
C1103 C 0.5687 0.35021 0.27937 0.0
C1104 C 0.55013 0.35984 0.26126 0.0
C1105 C 0.60498 0.33208 0.31008 0.0
C1106 C 0.60753 0.35126 0.29264 0.0
C1107 C 0.5892 0.36056 0.27856 0.0
C1108 C 0.62937 0.36006 0.28475 0.0
C1109 C 0.62392 0.32201 0.32686 0.0
C1110 C 0.63447 0.38221 0.28967 0.0
C1111 C 0.65331 0.39139 0.27692 0.0
C1112 C 0.66707 0.37862 0.25863 0.0
C1113 C 0.66248 0.3562 0.2551 0.0
C1114 C 0.64381 0.34703 0.26802 0.0
H1115 H 0.61812 0.31254 0.34663 0.0
H1116 H 0.63271 0.31051 0.3118 0.0
H1117 H 0.63568 0.33471 0.33452 0.0
H1118 H 0.62339 0.39258 0.30226 0.0
H1119 H 0.65636 0.40874 0.27996 0.0
H1120 H 0.21553 0.15416 0.37931 0.0
H1121 H 0.21268 0.17193 0.42841 0.0
H1122 H 0.14477 0.15265 0.43401 0.0
H1123 H 0.14724 0.13583 0.38458 0.0
H1124 H 0.1499 0.19255 0.45524 0.0
H1125 H 0.21328 0.13841 0.50544 0.0
H1126 H 0.22291 0.15484 0.47479 0.0
H1127 H 0.20257 0.13403 0.46827 0.0
C1128 C 0.19994 0.15396 0.39091 0.0
C1129 C 0.18165 0.14348 0.37819 0.0
C1130 C 0.19838 0.16395 0.41907 0.0
C1131 C 0.17866 0.16314 0.43526 0.0
C1132 C 0.16019 0.15342 0.42202 0.0
H1133 H 0.14922 0.16001 0.62024 0.0
H1134 H 0.16194 0.15431 0.56908 0.0
C1135 C 0.16163 0.14379 0.39372 0.0
C1136 C 0.17714 0.17167 0.46637 0.0
H1137 H 0.197 0.16441 0.53729 0.0
C1138 C 0.1603 0.18653 0.47318 0.0
C1139 C 0.19063 0.16365 0.48978 0.0
C1140 C 0.20823 0.14671 0.48436 0.0
C1141 C 0.15595 0.1929 0.50282 0.0
C1142 C 0.16941 0.18484 0.52625 0.0
C1143 C 0.18683 0.17069 0.51929 0.0
C1144 C 0.1642 0.18884 0.5583 0.0
C1145 C 0.13617 0.20712 0.50882 0.0
C1146 C 0.162 0.21018 0.56971 0.0
C1147 C 0.15434 0.2135 0.59893 0.0
C1148 C 0.14924 0.19553 0.61741 0.0
C1149 C 0.15296 0.17422 0.6066 0.0
C1150 C 0.16025 0.17093 0.57731 0.0
H1151 H 0.12475 0.20745 0.48942 0.0
H1152 H 0.12703 0.20125 0.5288 0.0
H1153 H 0.14161 0.22418 0.51311 0.0
H1154 H 0.16559 0.22425 0.55577 0.0
H1155 H 0.15185 0.23012 0.60675 0.0
H1156 H 0.8373 0.2237 0.38749 0.0
H1157 H 0.82096 0.21745 0.43691 0.0
H1158 H 0.83767 0.14889 0.43111 0.0
H1159 H 0.85325 0.15482 0.38143 0.0
H1160 H 0.79811 0.15442 0.45619 0.0
H1161 H 0.85848 0.20989 0.51045 0.0
H1162 H 0.84164 0.22275 0.48254 0.0
H1163 H 0.86072 0.20173 0.47174 0.0
C1164 C 0.83722 0.20724 0.3966 0.0
C1165 C 0.84675 0.18979 0.38067 0.0
C1166 C 0.82802 0.20374 0.42494 0.0
C1167 C 0.82858 0.18281 0.43803 0.0
C1168 C 0.83715 0.1652 0.42153 0.0
H1169 H 0.83645 0.13914 0.61782 0.0
H1170 H 0.84122 0.15392 0.56751 0.0
C1171 C 0.84608 0.16863 0.39309 0.0
C1172 C 0.82128 0.17919 0.46938 0.0
H1173 H 0.83288 0.19268 0.54198 0.0
C1174 C 0.80556 0.1629 0.47498 0.0
C1175 C 0.83121 0.19015 0.49385 0.0
C1176 C 0.84908 0.20696 0.48949 0.0
C1177 C 0.80001 0.15673 0.50435 0.0
C1178 C 0.80998 0.16766 0.52881 0.0
C1179 C 0.82513 0.18447 0.5232 0.0
C1180 C 0.80674 0.16037 0.56026 0.0
C1181 C 0.78443 0.13778 0.50882 0.0
C1182 C 0.78581 0.15962 0.57331 0.0
C1183 C 0.78299 0.15089 0.60209 0.0
C1184 C 0.8011 0.14311 0.61844 0.0
C1185 C 0.82213 0.14495 0.60587 0.0
C1186 C 0.8249 0.15342 0.57706 0.0
H1187 H 0.78225 0.12806 0.48796 0.0
H1188 H 0.79035 0.12667 0.5268 0.0
H1189 H 0.76814 0.14419 0.51552 0.0
H1190 H 0.77163 0.16542 0.56107 0.0
H1191 H 0.76659 0.14985 0.61126 0.0
H1192 H 0.85342 0.84778 0.63079 0.0
H1193 H 0.83905 0.85283 0.58033 0.0
H1194 H 0.82888 0.7831 0.57237 0.0
H1195 H 0.84405 0.77782 0.62265 0.0
H1196 H 0.84994 0.79775 0.52551 0.0
H1197 H 0.77941 0.85249 0.5442 0.0
H1198 H 0.80351 0.86392 0.56093 0.0
H1199 H 0.79279 0.83825 0.57461 0.0
C1200 C 0.84771 0.83354 0.6186 0.0
C1201 C 0.8499 0.81239 0.63074 0.0
C1202 C 0.83934 0.83647 0.58975 0.0
C1203 C 0.83253 0.81839 0.57266 0.0
C1204 C 0.83393 0.79731 0.58518 0.0
H1205 H 0.77971 0.85086 0.39516 0.0
H1206 H 0.78284 0.83462 0.44517 0.0
C1207 C 0.84255 0.79433 0.61394 0.0
C1208 C 0.82616 0.82139 0.54079 0.0
H1209 H 0.79564 0.85381 0.49453 0.0
C1210 C 0.83775 0.80972 0.51875 0.0
C1211 C 0.80997 0.83665 0.53185 0.0
C1212 C 0.79556 0.84833 0.55421 0.0
C1213 C 0.8345 0.81381 0.48811 0.0
C1214 C 0.81977 0.83052 0.47929 0.0
C1215 C 0.80723 0.84126 0.50125 0.0
C1216 C 0.81808 0.83814 0.44775 0.0
C1217 C 0.84704 0.80027 0.4656 0.0
C1218 C 0.83685 0.84537 0.43244 0.0
C1219 C 0.83515 0.85436 0.40374 0.0
C1220 C 0.81457 0.85675 0.39001 0.0
C1221 C 0.79581 0.84922 0.40515 0.0
C1222 C 0.79756 0.83997 0.43374 0.0
H1223 H 0.85078 0.78372 0.47468 0.0
H1224 H 0.83778 0.79836 0.44433 0.0
H1225 H 0.86288 0.80842 0.46063 0.0
H1226 H 0.85279 0.84477 0.44309 0.0
H1227 H 0.84989 0.86023 0.39284 0.0
H1228 H 0.13963 0.83698 0.38968 0.0
H1229 H 0.15523 0.8426 0.43938 0.0
H1230 H 0.16706 0.77315 0.44758 0.0
H1231 H 0.1508 0.76729 0.39806 0.0
H1232 H 0.1469 0.7883 0.49575 0.0
H1233 H 0.21659 0.84297 0.47096 0.0
H1234 H 0.19177 0.85383 0.45549 0.0
H1235 H 0.20233 0.82808 0.44194 0.0
C1236 C 0.14591 0.82292 0.40177 0.0
C1237 C 0.14397 0.80168 0.3899 0.0
C1238 C 0.15497 0.82619 0.43016 0.0
C1239 C 0.16266 0.80834 0.44705 0.0
C1240 C 0.16134 0.78717 0.43488 0.0
H1241 H 0.22228 0.84233 0.61971 0.0
H1242 H 0.21707 0.82497 0.57078 0.0
C1243 C 0.15209 0.78386 0.40656 0.0
C1244 C 0.17014 0.81169 0.47836 0.0
H1245 H 0.20257 0.84436 0.52171 0.0
C1246 C 0.15936 0.80028 0.50141 0.0
C1247 C 0.1867 0.82697 0.48581 0.0
C1248 C 0.20016 0.83846 0.46218 0.0
C1249 C 0.16379 0.80466 0.53169 0.0
C1250 C 0.17897 0.82132 0.5391 0.0
C1251 C 0.19068 0.8318 0.51608 0.0
C1252 C 0.18187 0.82927 0.57028 0.0
C1253 C 0.15199 0.79152 0.55537 0.0
C1254 C 0.1638 0.83722 0.58644 0.0
C1255 C 0.16669 0.84692 0.61451 0.0
C1256 C 0.18778 0.84924 0.62675 0.0
C1257 C 0.20582 0.84078 0.6109 0.0
C1258 C 0.20288 0.83089 0.58291 0.0
H1259 H 0.14763 0.77495 0.54692 0.0
H1260 H 0.16207 0.78967 0.57594 0.0
H1261 H 0.13651 0.79998 0.5614 0.0
H1262 H 0.14751 0.83673 0.57684 0.0
H1263 H 0.15247 0.85344 0.62598 0.0
H1264 H 0.65504 0.63925 0.87611 0.0
H1265 H 0.65026 0.65546 0.92559 0.0
H1266 H 0.72042 0.6593 0.93632 0.0
H1267 H 0.72535 0.64235 0.88705 0.0
H1268 H 0.70239 0.64148 0.98398 0.0
H1269 H 0.656 0.7165 0.95693 0.0
H1270 H 0.6427 0.69297 0.94126 0.0
H1271 H 0.66969 0.70052 0.92848 0.0
C1272 C 0.66948 0.64387 0.88874 0.0
C1273 C 0.69058 0.63951 0.87764 0.0
C1274 C 0.66671 0.65331 0.91699 0.0
C1275 C 0.68497 0.65899 0.9345 0.0
C1276 C 0.70609 0.65518 0.92313 0.0
H1277 H 0.65397 0.72191 0.10636 0.0
H1278 H 0.6713 0.71526 0.05768 0.0
C1279 C 0.70888 0.64552 0.89497 0.0
C1280 C 0.68189 0.66696 0.96564 0.0
H1281 H 0.65193 0.70277 0.00767 0.0
C1282 C 0.69168 0.65515 0.98913 0.0
C1283 C 0.6683 0.68507 0.97247 0.0
C1284 C 0.6588 0.69962 0.94838 0.0
C1285 C 0.68719 0.66013 0.01922 0.0
C1286 C 0.67201 0.67695 0.02596 0.0
C1287 C 0.66329 0.68963 0.00253 0.0
C1288 C 0.66368 0.68062 0.05681 0.0
C1289 C 0.69862 0.64714 0.0434 0.0
C1290 C 0.65376 0.66335 0.07259 0.0
C1291 C 0.64409 0.66704 0.10048 0.0
C1292 C 0.64376 0.68818 0.11295 0.0
C1293 C 0.654 0.70542 0.09737 0.0
C1294 C 0.66387 0.70166 0.06954 0.0
H1295 H 0.71486 0.64121 0.03561 0.0
H1296 H 0.70098 0.65701 0.06406 0.0
H1297 H 0.6886 0.63253 0.04905 0.0
H1298 H 0.6528 0.64712 0.06287 0.0
H1299 H 0.63616 0.65345 0.11172 0.0
H1300 H 0.35073 0.65187 0.87568 0.0
H1301 H 0.3356 0.64893 0.92602 0.0
H1302 H 0.32496 0.71883 0.928 0.0
H1303 H 0.34103 0.722 0.8779 0.0
H1304 H 0.34445 0.70684 0.97675 0.0
H1305 H 0.27559 0.64987 0.95991 0.0
H1306 H 0.30017 0.63794 0.94533 0.0
H1307 H 0.28949 0.66275 0.92885 0.0
C1308 C 0.34477 0.66658 0.88653 0.0
C1309 C 0.34707 0.68717 0.87278 0.0
C1310 C 0.33594 0.66485 0.91532 0.0
C1311 C 0.32873 0.6836 0.9307 0.0
C1312 C 0.3303 0.70411 0.91656 0.0
H1313 H 0.27379 0.65493 0.10828 0.0
H1314 H 0.27694 0.6703 0.05774 0.0
C1315 C 0.33944 0.7059 0.8879 0.0
C1316 C 0.32167 0.68191 0.96251 0.0
H1317 H 0.29107 0.65068 0.01017 0.0
C1318 C 0.33244 0.69486 0.98399 0.0
C1319 C 0.30564 0.66668 0.97209 0.0
C1320 C 0.29191 0.65374 0.95023 0.0
C1321 C 0.32863 0.69202 0.01478 0.0
C1322 C 0.31424 0.67525 0.02442 0.0
C1323 C 0.30243 0.66328 0.00291 0.0
C1324 C 0.31237 0.66869 0.05642 0.0
C1325 C 0.34025 0.70695 0.03657 0.0
C1326 C 0.33121 0.66295 0.07272 0.0
C1327 C 0.32947 0.65454 0.10174 0.0
C1328 C 0.30881 0.65118 0.11484 0.0
C1329 C 0.28995 0.65736 0.0988 0.0
C1330 C 0.29173 0.66609 0.06989 0.0
H1331 H 0.34328 0.7233 0.0264 0.0
H1332 H 0.33068 0.70919 0.05752 0.0
H1333 H 0.35642 0.69979 0.04234 0.0
H1334 H 0.34729 0.6641 0.06257 0.0
H1335 H 0.34431 0.64969 0.11331 0.0
H1336 H 0.33691 0.3504 0.87283 0.0
H1337 H 0.34302 0.33614 0.92317 0.0
H1338 H 0.27324 0.32983 0.93604 0.0
H1339 H 0.26696 0.34487 0.88589 0.0
H1340 H 0.29088 0.35034 0.98164 0.0
H1341 H 0.34055 0.27654 0.95967 0.0
H1342 H 0.35264 0.30003 0.94215 0.0
H1343 H 0.32599 0.2907 0.93024 0.0
C1344 C 0.32285 0.34557 0.88609 0.0
C1345 C 0.30144 0.34878 0.87534 0.0
C1346 C 0.32638 0.33726 0.91488 0.0
C1347 C 0.30861 0.33156 0.93329 0.0
C1348 C 0.28721 0.33402 0.9222 0.0
H1349 H 0.34127 0.27526 0.10862 0.0
H1350 H 0.32443 0.28023 0.05929 0.0
C1351 C 0.28365 0.34257 0.89351 0.0
C1352 C 0.31238 0.32509 0.96498 0.0
H1353 H 0.34392 0.29219 0.00932 0.0
C1354 C 0.30219 0.33736 0.98769 0.0
C1355 C 0.32681 0.3079 0.973 0.0
C1356 C 0.33691 0.2929 0.94993 0.0
C1357 C 0.3069 0.33367 0.01807 0.0
C1358 C 0.32272 0.31772 0.02593 0.0
C1359 C 0.33203 0.30467 0.00333 0.0
C1360 C 0.33081 0.31509 0.05713 0.0
C1361 C 0.29491 0.347 0.04137 0.0
C1362 C 0.33983 0.33305 0.07247 0.0
C1363 C 0.34919 0.33031 0.1008 0.0
C1364 C 0.35012 0.30946 0.11412 0.0
C1365 C 0.34077 0.29154 0.09897 0.0
C1366 C 0.33119 0.29435 0.07075 0.0
H1367 H 0.27853 0.35218 0.03309 0.0
H1368 H 0.29271 0.33767 0.06254 0.0
H1369 H 0.30443 0.36206 0.0463 0.0
H1370 H 0.34033 0.3491 0.0621 0.0
H1371 H 0.35646 0.34441 0.11169 0.0
H1372 H 0.61313 0.28582 0.91043 0.0
H1373 H 0.62955 0.29249 0.95937 0.0
H1374 H 0.69221 0.30388 0.91751 0.0
H1375 H 0.67579 0.29753 0.86805 0.0
H1376 H 0.66526 0.27183 0.98885 0.0
H1377 H 0.68069 0.36027 0.96604 0.0
H1378 H 0.66296 0.34386 0.94272 0.0
H1379 H 0.69217 0.3411 0.93977 0.0
C1380 C 0.63042 0.2897 0.9115 0.0
C1381 C 0.6431 0.29138 0.88525 0.0
C1382 C 0.63979 0.29341 0.93956 0.0
C1383 C 0.66201 0.29892 0.942 0.0
C1384 C 0.67494 0.29996 0.91601 0.0
H1385 H 0.72482 0.34974 0.10385 0.0
H1386 H 0.72025 0.33338 0.05422 0.0
C1387 C 0.66555 0.29625 0.88781 0.0
C1388 C 0.67115 0.30434 0.97183 0.0
H1389 H 0.68944 0.34722 0.01402 0.0
C1390 C 0.67079 0.28825 0.99433 0.0
C1391 C 0.67837 0.32576 0.97883 0.0
C1392 C 0.67848 0.34384 0.95571 0.0
C1393 C 0.67702 0.29313 0.02388 0.0
C1394 C 0.68339 0.31477 0.03113 0.0
C1395 C 0.68456 0.33063 0.00837 0.0
C1396 C 0.68727 0.32187 0.06245 0.0
C1397 C 0.67654 0.27515 0.04709 0.0
C1398 C 0.67033 0.32058 0.08367 0.0
C1399 C 0.67288 0.32988 0.11208 0.0
C1400 C 0.69236 0.34084 0.11968 0.0
C1401 C 0.7096 0.34141 0.09874 0.0
C1402 C 0.70703 0.33208 0.07034 0.0
H1403 H 0.67832 0.25874 0.03658 0.0
H1404 H 0.68976 0.27732 0.06395 0.0
H1405 H 0.66055 0.27552 0.05892 0.0
H1406 H 0.65476 0.31322 0.07784 0.0
H1407 H 0.65926 0.32922 0.12761 0.0
H1408 H 0.26353 0.13174 0.28461 0.0
H1409 H 0.30074 0.14335 0.2743 0.0
H1410 H 0.3152 0.08024 0.23538 0.0
H1411 H 0.2773 0.0685 0.24507 0.0
H1412 H 0.34054 0.12584 0.29371 0.0
H1413 H 0.33273 0.12311 0.16906 0.0
H1414 H 0.30885 0.12095 0.19269 0.0
H1415 H 0.32797 0.09866 0.19067 0.0
C1416 C 0.27453 0.12024 0.27386 0.0
C1417 C 0.26741 0.09923 0.26552 0.0
C1418 C 0.29588 0.12686 0.26814 0.0
C1419 C 0.31075 0.11265 0.25414 0.0
C1420 C 0.30391 0.09152 0.24598 0.0
H1421 H 0.42034 0.20588 0.23991 0.0
H1422 H 0.4072 0.16818 0.2473 0.0
C1423 C 0.28229 0.08487 0.25149 0.0
C1424 C 0.33282 0.12119 0.24708 0.0
H1425 H 0.35892 0.14669 0.18931 0.0
C1426 C 0.34516 0.12986 0.27086 0.0
C1427 C 0.33894 0.12597 0.21723 0.0
C1428 C 0.32651 0.11678 0.19082 0.0
C1429 C 0.36121 0.14586 0.26577 0.0
C1430 C 0.36533 0.15274 0.23603 0.0
C1431 C 0.35541 0.14153 0.2121 0.0
C1432 C 0.37476 0.17459 0.22973 0.0
C1433 C 0.37167 0.15704 0.29235 0.0
C1434 C 0.36103 0.19049 0.21693 0.0
C1435 C 0.36847 0.21175 0.21244 0.0
C1436 C 0.3898 0.21772 0.22088 0.0
C1437 C 0.40371 0.20178 0.23351 0.0
C1438 C 0.39627 0.18027 0.23771 0.0
H1439 H 0.36544 0.15063 0.31406 0.0
H1440 H 0.38966 0.1545 0.2917 0.0
H1441 H 0.36852 0.17496 0.2915 0.0
H1442 H 0.34429 0.18654 0.21091 0.0
H1443 H 0.35731 0.22359 0.20271 0.0
H1444 H 0.7816 0.42696 0.24971 0.0
H1445 H 0.82022 0.4184 0.25976 0.0
H1446 H 0.81392 0.35888 0.2082 0.0
H1447 H 0.77611 0.36749 0.19747 0.0
H1448 H 0.83555 0.38612 0.29048 0.0
H1449 H 0.87252 0.37711 0.17995 0.0
H1450 H 0.84705 0.39178 0.18499 0.0
H1451 H 0.84713 0.36258 0.178 0.0
C1452 C 0.78863 0.41224 0.24013 0.0
C1453 C 0.77575 0.39786 0.22286 0.0
C1454 C 0.81072 0.40747 0.24573 0.0
C1455 C 0.82022 0.38833 0.23401 0.0
C1456 C 0.80736 0.37423 0.21646 0.0
H1457 H 0.86087 0.28091 0.3017 0.0
H1458 H 0.85078 0.31876 0.29354 0.0
C1459 C 0.7855 0.379 0.21074 0.0
C1460 C 0.84224 0.3808 0.24349 0.0
H1461 H 0.88124 0.34625 0.21649 0.0
C1462 C 0.84615 0.37815 0.27429 0.0
C1463 C 0.85696 0.37131 0.22271 0.0
C1464 C 0.85577 0.37616 0.1896 0.0
C1465 C 0.8618 0.36309 0.28449 0.0
C1466 C 0.873 0.34995 0.26332 0.0
C1467 C 0.87196 0.35558 0.23284 0.0
C1468 C 0.88107 0.32779 0.2713 0.0
C1469 C 0.86482 0.36015 0.3178 0.0
C1470 C 0.90119 0.31983 0.26057 0.0
C1471 C 0.90683 0.29777 0.26458 0.0
C1472 C 0.89238 0.28337 0.27933 0.0
C1473 C 0.87247 0.29153 0.29043 0.0
C1474 C 0.86681 0.31338 0.2862 0.0
H1475 H 0.86454 0.37632 0.32924 0.0
H1476 H 0.851 0.3504 0.32695 0.0
H1477 H 0.88048 0.35175 0.32318 0.0
H1478 H 0.91229 0.33055 0.24856 0.0
H1479 H 0.92234 0.29197 0.25587 0.0
H1480 H 0.72855 0.90316 0.2329 0.0
H1481 H 0.69213 0.88734 0.22604 0.0
H1482 H 0.68318 0.88555 0.32212 0.0
H1483 H 0.72021 0.89997 0.3289 0.0
H1484 H 0.67795 0.84764 0.30152 0.0
H1485 H 0.6291 0.90137 0.22853 0.0
H1486 H 0.65507 0.89662 0.21109 0.0
H1487 H 0.65384 0.91084 0.24656 0.0
C1488 C 0.71852 0.89991 0.25245 0.0
C1489 C 0.72713 0.90241 0.28138 0.0
C1490 C 0.69758 0.89112 0.24856 0.0
C1491 C 0.68472 0.88543 0.27357 0.0
C1492 C 0.69275 0.88978 0.30248 0.0
H1493 H 0.58395 0.78226 0.26391 0.0
H1494 H 0.59929 0.81742 0.28023 0.0
C1495 C 0.7139 0.89793 0.30636 0.0
C1496 C 0.66529 0.87114 0.26975 0.0
H1497 H 0.62151 0.8617 0.22387 0.0
C1498 C 0.66517 0.8511 0.28529 0.0
C1499 C 0.64855 0.87555 0.24861 0.0
C1500 C 0.64655 0.89741 0.23306 0.0
C1501 C 0.64998 0.83471 0.27851 0.0
C1502 C 0.6345 0.83844 0.25555 0.0
C1503 C 0.63354 0.85894 0.24138 0.0
C1504 C 0.6219 0.82003 0.24306 0.0
C1505 C 0.65163 0.81286 0.29431 0.0
C1506 C 0.62919 0.81036 0.2164 0.0
C1507 C 0.62072 0.79027 0.20721 0.0
C1508 C 0.60471 0.77957 0.22451 0.0
C1509 C 0.59639 0.79003 0.25023 0.0
C1510 C 0.60502 0.81013 0.25952 0.0
H1511 H 0.66555 0.81223 0.31035 0.0
H1512 H 0.63627 0.80966 0.30689 0.0
H1513 H 0.65369 0.79949 0.27766 0.0
H1514 H 0.64232 0.81778 0.20356 0.0
H1515 H 0.62726 0.78281 0.18707 0.0
H1516 H 0.07256 0.70069 0.25882 0.0
H1517 H 0.08463 0.66306 0.24868 0.0
H1518 H 0.14392 0.67515 0.29882 0.0
H1519 H 0.1318 0.712 0.30976 0.0
H1520 H 0.1175 0.65114 0.21708 0.0
H1521 H 0.13213 0.61503 0.32715 0.0
H1522 H 0.11528 0.63918 0.3228 0.0
H1523 H 0.14453 0.64156 0.32841 0.0
C1524 C 0.08799 0.69512 0.2681 0.0
C1525 C 0.10127 0.70936 0.28501 0.0
C1526 C 0.09478 0.67359 0.26245 0.0
C1527 C 0.11491 0.66601 0.27367 0.0
C1528 C 0.12791 0.68018 0.29094 0.0
H1529 H 0.22408 0.6312 0.20023 0.0
H1530 H 0.18621 0.63992 0.21092 0.0
C1531 C 0.12109 0.70148 0.2968 0.0
C1532 C 0.1244 0.64486 0.26381 0.0
H1533 H 0.16236 0.60846 0.28913 0.0
C1534 C 0.12664 0.64119 0.23289 0.0
C1535 C 0.13554 0.63096 0.28413 0.0
C1536 C 0.13144 0.63179 0.31746 0.0
C1537 C 0.14249 0.62664 0.22198 0.0
C1538 C 0.15683 0.61631 0.24251 0.0
C1539 C 0.15201 0.61709 0.27326 0.0
C1540 C 0.17905 0.60921 0.23336 0.0
C1541 C 0.1448 0.62382 0.18853 0.0
C1542 C 0.18806 0.58933 0.24336 0.0
C1543 C 0.21012 0.58448 0.23785 0.0
C1544 C 0.22347 0.59948 0.22232 0.0
C1545 C 0.21427 0.61919 0.21205 0.0
C1546 C 0.19242 0.62406 0.21776 0.0
H1547 H 0.12839 0.62336 0.17775 0.0
H1548 H 0.15369 0.6381 0.17906 0.0
H1549 H 0.15381 0.60859 0.18274 0.0
H1550 H 0.17815 0.57778 0.25588 0.0
H1551 H 0.21674 0.5691 0.24596 0.0
H1552 H 0.3623 0.7706 0.78315 0.0
H1553 H 0.35244 0.80872 0.77607 0.0
H1554 H 0.41676 0.82239 0.74048 0.0
H1555 H 0.42674 0.78361 0.74689 0.0
H1556 H 0.37147 0.8469 0.79975 0.0
H1557 H 0.37574 0.84504 0.67476 0.0
H1558 H 0.37649 0.81987 0.69595 0.0
H1559 H 0.39951 0.83816 0.69675 0.0
C1560 C 0.37443 0.78161 0.7738 0.0
C1561 C 0.39526 0.77404 0.76543 0.0
C1562 C 0.36881 0.80349 0.76996 0.0
C1563 C 0.38389 0.81841 0.75787 0.0
C1564 C 0.40484 0.81108 0.74966 0.0
H1565 H 0.2892 0.92643 0.74943 0.0
H1566 H 0.32757 0.9151 0.75638 0.0
C1567 C 0.41047 0.78896 0.75326 0.0
C1568 C 0.37636 0.84112 0.75263 0.0
H1569 H 0.35145 0.86982 0.69677 0.0
C1570 C 0.36772 0.85257 0.77726 0.0
C1571 C 0.372 0.84869 0.72329 0.0
C1572 C 0.38136 0.8374 0.69605 0.0
C1573 C 0.35185 0.86892 0.77325 0.0
C1574 C 0.34504 0.87415 0.74383 0.0
C1575 C 0.35653 0.86543 0.71929 0.0
C1576 C 0.32272 0.88259 0.73815 0.0
C1577 C 0.34052 0.87833 0.80042 0.0
C1578 C 0.30745 0.86816 0.72541 0.0
C1579 C 0.28583 0.87453 0.7213 0.0
C1580 C 0.27883 0.89549 0.73002 0.0
C1581 C 0.2941 0.91008 0.74275 0.0
C1582 C 0.31599 0.90369 0.74667 0.0
H1583 H 0.34765 0.87219 0.82175 0.0
H1584 H 0.34189 0.89646 0.80016 0.0
H1585 H 0.32283 0.87406 0.79996 0.0
H1586 H 0.31221 0.85169 0.71906 0.0
H1587 H 0.27455 0.86284 0.71152 0.0
H1588 H 0.20237 0.42852 0.75064 0.0
H1589 H 0.16344 0.41985 0.74361 0.0
H1590 H 0.17262 0.35915 0.79179 0.0
H1591 H 0.21078 0.3679 0.79965 0.0
H1592 H 0.14703 0.38873 0.71274 0.0
H1593 H 0.11501 0.3752 0.82512 0.0
H1594 H 0.14002 0.39047 0.81916 0.0
H1595 H 0.14066 0.36108 0.82449 0.0
C1596 C 0.19591 0.4135 0.76013 0.0
C1597 C 0.20969 0.39884 0.77561 0.0
C1598 C 0.17365 0.40867 0.7563 0.0
C1599 C 0.16486 0.38917 0.76794 0.0
C1600 C 0.17864 0.37477 0.78371 0.0
H1601 H 0.12754 0.28332 0.6979 0.0
H1602 H 0.1353 0.32153 0.70726 0.0
C1603 C 0.20068 0.37963 0.78775 0.0
C1604 C 0.14259 0.38158 0.7598 0.0
H1605 H 0.10599 0.34481 0.78756 0.0
C1606 C 0.13741 0.37988 0.72922 0.0
C1607 C 0.12902 0.37098 0.78105 0.0
C1608 C 0.1314 0.37485 0.81428 0.0
C1609 C 0.1219 0.3646 0.71932 0.0
C1610 C 0.1122 0.35028 0.74046 0.0
C1611 C 0.1142 0.35503 0.77113 0.0
C1612 C 0.10529 0.32789 0.73182 0.0
C1613 C 0.11762 0.36257 0.68615 0.0
C1614 C 0.08615 0.31831 0.74341 0.0
C1615 C 0.08189 0.29602 0.73865 0.0
C1616 C 0.09676 0.28302 0.72233 0.0
C1617 C 0.11565 0.29281 0.71041 0.0
C1618 C 0.11994 0.31488 0.71533 0.0
H1619 H 0.11659 0.37909 0.67575 0.0
H1620 H 0.1315 0.35387 0.67534 0.0
H1621 H 0.1022 0.35352 0.68147 0.0
H1622 H 0.0748 0.32793 0.75665 0.0
H1623 H 0.06712 0.28895 0.74803 0.0
H1624 H 0.58811 0.2164 0.73659 0.0
H1625 H 0.60429 0.17989 0.73408 0.0
H1626 H 0.60334 0.17575 0.83079 0.0
H1627 H 0.5885 0.21291 0.83325 0.0
H1628 H 0.64192 0.17058 0.81307 0.0
H1629 H 0.59254 0.1167 0.74147 0.0
H1630 H 0.5965 0.14196 0.72184 0.0
H1631 H 0.58152 0.14178 0.75678 0.0
C1632 C 0.59074 0.20737 0.75721 0.0
C1633 C 0.58744 0.21743 0.78509 0.0
C1634 C 0.59975 0.18636 0.75581 0.0
C1635 C 0.6049 0.17488 0.78227 0.0
C1636 C 0.59954 0.18425 0.81008 0.0
H1637 H 0.71512 0.0811 0.77736 0.0
H1638 H 0.67912 0.09395 0.79445 0.0
C1639 C 0.59115 0.20547 0.81149 0.0
C1640 C 0.61994 0.15582 0.78097 0.0
H1641 H 0.63297 0.11167 0.73756 0.0
C1642 C 0.63955 0.15721 0.7974 0.0
C1643 C 0.61695 0.13825 0.76068 0.0
C1644 C 0.59558 0.13451 0.74451 0.0
C1645 C 0.65701 0.14294 0.79186 0.0
C1646 C 0.65478 0.1269 0.76928 0.0
C1647 C 0.63461 0.12418 0.75469 0.0
C1648 C 0.67432 0.11596 0.75701 0.0
C1649 C 0.6784 0.14636 0.80824 0.0
C1650 C 0.68312 0.12382 0.73007 0.0
C1651 C 0.70364 0.11679 0.72045 0.0
C1652 C 0.71569 0.10166 0.73757 0.0
C1653 C 0.70629 0.0929 0.7638 0.0
C1654 C 0.68573 0.1001 0.77353 0.0
H1655 H 0.67763 0.16024 0.82432 0.0
H1656 H 0.68272 0.13128 0.82085 0.0
H1657 H 0.69176 0.14958 0.79192 0.0
H1658 H 0.67454 0.1362 0.71718 0.0
H1659 H 0.71027 0.12364 0.69995 0.0
H1660 H 0.77511 0.62834 0.7925 0.0
H1661 H 0.81231 0.64085 0.78483 0.0
H1662 H 0.82824 0.58038 0.73964 0.0
H1663 H 0.79029 0.56777 0.74658 0.0
H1664 H 0.85246 0.6239 0.80246 0.0
H1665 H 0.84494 0.62643 0.67774 0.0
H1666 H 0.82108 0.62218 0.70084 0.0
H1667 H 0.84123 0.60091 0.69729 0.0
C1668 C 0.78644 0.61757 0.78099 0.0
C1669 C 0.77967 0.59713 0.76991 0.0
C1670 C 0.80781 0.6247 0.77681 0.0
C1671 C 0.82307 0.61156 0.76167 0.0
C1672 C 0.81665 0.59086 0.75112 0.0
H1673 H 0.92662 0.7117 0.7533 0.0
H1674 H 0.9162 0.67297 0.75884 0.0
C1675 C 0.79499 0.58372 0.75505 0.0
C1676 C 0.8449 0.62105 0.75549 0.0
H1677 H 0.86939 0.65074 0.7002 0.0
C1678 C 0.85682 0.62921 0.78002 0.0
C1679 C 0.85078 0.62752 0.72613 0.0
C1680 C 0.83892 0.6189 0.69888 0.0
C1681 C 0.87187 0.64638 0.77639 0.0
C1682 C 0.8754 0.65497 0.74737 0.0
C1683 C 0.86626 0.64427 0.72246 0.0
C1684 C 0.88299 0.67776 0.74311 0.0
C1685 C 0.88173 0.6569 0.80388 0.0
C1686 C 0.86784 0.69314 0.73228 0.0
C1687 C 0.87372 0.71499 0.7289 0.0
C1688 C 0.89488 0.72206 0.73649 0.0
C1689 C 0.91011 0.70672 0.74756 0.0
C1690 C 0.90423 0.68463 0.75067 0.0
H1691 H 0.87648 0.64871 0.82494 0.0
H1692 H 0.89986 0.65613 0.80253 0.0
H1693 H 0.87692 0.67444 0.80503 0.0
H1694 H 0.85127 0.68824 0.72668 0.0
H1695 H 0.86157 0.72636 0.72043 0.0
H1696 H 0.17306 0.01413 0.37641 0.0
H1697 H 0.17463 0.99692 0.42629 0.0
H1698 H 0.23742 0.02732 0.44211 0.0
H1699 H 0.23562 0.04475 0.39259 0.0
H1700 H 0.20559 0.96954 0.45574 0.0
H1701 H 0.19859 0.05121 0.50996 0.0
H1702 H 0.19339 0.04701 0.47053 0.0
H1703 H 0.22105 0.04869 0.48418 0.0
C1704 C 0.18733 0.01668 0.39042 0.0
C1705 C 0.20415 0.03075 0.38114 0.0
C1706 C 0.18821 0.00698 0.41882 0.0
C1707 C 0.2059 0.01132 0.43806 0.0
C1708 C 0.22341 0.02419 0.42782 0.0
H1709 H 0.23669 0.97514 0.62145 0.0
H1710 H 0.23631 0.99156 0.5711 0.0
C1711 C 0.22248 0.03395 0.39957 0.0
C1712 C 0.20555 0.00337 0.46936 0.0
H1713 H 0.20481 0.02088 0.5421 0.0
C1714 C 0.20535 0.98072 0.47464 0.0
C1715 C 0.20518 0.01809 0.4939 0.0
C1716 C 0.20436 0.04261 0.48947 0.0
C1717 C 0.20516 0.97236 0.50395 0.0
C1718 C 0.20483 0.98708 0.52844 0.0
C1719 C 0.20508 0.00971 0.52318 0.0
C1720 C 0.20414 0.97919 0.55972 0.0
C1721 C 0.20568 0.94786 0.50853 0.0
C1722 C 0.18584 0.96759 0.57019 0.0
C1723 C 0.18596 0.95848 0.59887 0.0
C1724 C 0.20431 0.96096 0.6175 0.0
C1725 C 0.22222 0.97341 0.60758 0.0
C1726 C 0.22208 0.98259 0.57885 0.0
H1727 H 0.21087 0.93906 0.4879 0.0
H1728 H 0.21697 0.94341 0.52709 0.0
H1729 H 0.18902 0.94207 0.51463 0.0
H1730 H 0.17173 0.96511 0.55585 0.0
H1731 H 0.17206 0.94878 0.60614 0.0
H1732 H 0.97557 0.23318 0.37733 0.0
H1733 H 0.99429 0.23107 0.42592 0.0
H1734 H 0.96256 0.16925 0.44391 0.0
H1735 H 0.94388 0.17135 0.39527 0.0
H1736 H 0.9569 0.20117 0.48894 0.0
H1737 H 0.04442 0.19209 0.4574 0.0
H1738 H 0.03047 0.21409 0.43861 0.0
H1739 H 0.02229 0.18625 0.43171 0.0
C1740 C 0.97322 0.21883 0.39128 0.0
C1741 C 0.95861 0.20227 0.38262 0.0
C1742 C 0.98382 0.21766 0.419 0.0
C1743 C 0.97993 0.1999 0.43831 0.0
C1744 C 0.96585 0.18301 0.42921 0.0
H1745 H 0.01898 0.17691 0.62449 0.0
H1746 H 0.00027 0.17467 0.57571 0.0
C1747 C 0.9553 0.18417 0.4015 0.0
C1748 C 0.98903 0.19992 0.469 0.0
H1749 H 0.03693 0.2013 0.50823 0.0
C1750 C 0.9744 0.20099 0.49326 0.0
C1751 C 0.01182 0.19973 0.4744 0.0
C1752 C 0.0282 0.19778 0.44919 0.0
C1753 C 0.98201 0.20256 0.52286 0.0
C1754 C 0.00482 0.20272 0.52822 0.0
C1755 C 0.01943 0.20127 0.50398 0.0
C1756 C 0.01405 0.20494 0.5587 0.0
C1757 C 0.96563 0.20477 0.54803 0.0
C1758 C 0.02774 0.22275 0.56527 0.0
C1759 C 0.03841 0.22394 0.59284 0.0
C1760 C 0.03562 0.20728 0.61416 0.0
C1761 C 0.02119 0.18995 0.60826 0.0
C1762 C 0.01054 0.1887 0.58053 0.0
H1763 H 0.94915 0.20949 0.53965 0.0
H1764 H 0.96409 0.18882 0.55979 0.0
H1765 H 0.97114 0.21718 0.56462 0.0
H1766 H 0.03061 0.23545 0.54873 0.0
H1767 H 0.04946 0.23748 0.59715 0.0
H1768 H 0.76862 0.9792 0.37773 0.0
H1769 H 0.76585 0.99578 0.42766 0.0
H1770 H 0.83396 0.981 0.44394 0.0
H1771 H 0.83662 0.96423 0.39409 0.0
H1772 H 0.80551 0.96385 0.48673 0.0
H1773 H 0.78842 0.05205 0.46704 0.0
H1774 H 0.77105 0.03375 0.44633 0.0
H1775 H 0.79993 0.03447 0.43853 0.0
C1776 C 0.78317 0.98037 0.39156 0.0
C1777 C 0.80292 0.97088 0.38216 0.0
C1778 C 0.78158 0.98974 0.42006 0.0
C1779 C 0.79975 0.98974 0.43937 0.0
C1780 C 0.81981 0.98125 0.42928 0.0
H1781 H 0.81811 0.02338 0.62653 0.0
H1782 H 0.82186 0.00709 0.57643 0.0
C1783 C 0.82138 0.97188 0.40083 0.0
C1784 C 0.7972 0.99624 0.47111 0.0
H1785 H 0.78274 0.03874 0.51656 0.0
C1786 C 0.80069 0.98027 0.49332 0.0
C1787 C 0.79075 0.01759 0.47951 0.0
C1788 C 0.78749 0.03553 0.45665 0.0
C1789 C 0.79755 0.98502 0.52379 0.0
C1790 C 0.79104 0.00635 0.53218 0.0
C1791 C 0.78761 0.02233 0.50998 0.0
C1792 C 0.78804 0.01274 0.56388 0.0
C1793 C 0.80075 0.96708 0.54667 0.0
C1794 C 0.76772 0.02085 0.57352 0.0
C1795 C 0.76562 0.03008 0.60199 0.0
C1796 C 0.78383 0.03135 0.62107 0.0
C1797 C 0.80383 0.02215 0.61219 0.0
C1798 C 0.80596 0.01293 0.58366 0.0
H1799 H 0.80022 0.95056 0.53623 0.0
H1800 H 0.81701 0.9691 0.55746 0.0
H1801 H 0.78804 0.96794 0.56445 0.0
H1802 H 0.75375 0.0209 0.55853 0.0
H1803 H 0.75015 0.0374 0.60845 0.0
H1804 H 0.94909 0.75948 0.61281 0.0
H1805 H 0.96636 0.75931 0.56318 0.0
H1806 H 0.99423 0.82299 0.58099 0.0
H1807 H 0.97712 0.82297 0.63095 0.0
H1808 H 0.95681 0.79076 0.51944 0.0
H1809 H 0.04587 0.7885 0.54539 0.0
H1810 H 0.02519 0.78112 0.57255 0.0
H1811 H 0.03065 0.80946 0.56455 0.0
C1812 C 0.95939 0.77314 0.60628 0.0
C1813 C 0.96197 0.7912 0.62537 0.0
C1814 C 0.96911 0.7731 0.57801 0.0
C1815 C 0.9816 0.7911 0.5685 0.0
C1816 C 0.98492 0.80881 0.58812 0.0
H1817 H 0.0454 0.82109 0.39976 0.0
H1818 H 0.02744 0.82404 0.44877 0.0
C1819 C 0.97521 0.80881 0.61653 0.0
C1820 C 0.98961 0.79197 0.53725 0.0
H1821 H 0.03594 0.79429 0.49468 0.0
C1822 C 0.97412 0.79149 0.51397 0.0
C1823 C 0.01216 0.79304 0.53032 0.0
C1824 C 0.02949 0.79288 0.55446 0.0
C1825 C 0.98059 0.79214 0.48382 0.0
C1826 C 0.00314 0.79301 0.47687 0.0
C1827 C 0.01863 0.7937 0.50015 0.0
C1828 C 0.01122 0.79259 0.44563 0.0
C1829 C 0.96326 0.79218 0.45968 0.0
C1830 C 0.00758 0.77416 0.42743 0.0
C1831 C 0.01771 0.77255 0.39941 0.0
C1832 C 0.03163 0.7893 0.38941 0.0
C1833 C 0.0345 0.80812 0.40704 0.0
C1834 C 0.02438 0.80974 0.43498 0.0
H1835 H 0.94706 0.79737 0.46857 0.0
H1836 H 0.9679 0.80325 0.44094 0.0
H1837 H 0.9615 0.77536 0.45056 0.0
H1838 H -0.00217 0.76056 0.43552 0.0
H1839 H 0.01571 0.7577 0.38637 0.0
H1840 H 0.6762 0.51154 0.86736 0.0
H1841 H 0.67389 0.49399 0.91698 0.0
H1842 H 0.73868 0.51765 0.93818 0.0
H1843 H 0.74082 0.53538 0.88889 0.0
H1844 H 0.70138 0.46351 0.94945 0.0
H1845 H 0.69824 0.54603 0.00184 0.0
H1846 H 0.69432 0.54176 0.96214 0.0
H1847 H 0.72145 0.54161 0.97782 0.0
C1848 C 0.6901 0.51239 0.88243 0.0
C1849 C 0.70867 0.52465 0.87469 0.0
C1850 C 0.68876 0.50253 0.91068 0.0
C1851 C 0.70594 0.50497 0.93134 0.0
C1852 C 0.72512 0.51595 0.92269 0.0
H1853 H 0.73025 0.46926 0.11521 0.0
H1854 H 0.73079 0.48527 0.06467 0.0
C1855 C 0.72643 0.52584 0.89456 0.0
C1856 C 0.70333 0.49737 0.96259 0.0
H1857 H 0.70132 0.51567 0.03489 0.0
C1858 C 0.70123 0.47487 0.96815 0.0
C1859 C 0.70303 0.51234 0.98683 0.0
C1860 C 0.70417 0.5368 0.98195 0.0
C1861 C 0.69947 0.46684 0.99755 0.0
C1862 C 0.69948 0.4818 0.02179 0.0
C1863 C 0.70135 0.50431 0.01619 0.0
C1864 C 0.69814 0.47427 0.05321 0.0
C1865 C 0.6982 0.4424 0.00253 0.0
C1866 C 0.67928 0.4636 0.0637 0.0
C1867 C 0.67889 0.4547 0.09254 0.0
C1868 C 0.69729 0.4565 0.11122 0.0
C1869 C 0.71576 0.46807 0.10126 0.0
C1870 C 0.71613 0.47702 0.07243 0.0
H1871 H 0.70302 0.43305 0.9822 0.0
H1872 H 0.70892 0.43736 0.02144 0.0
H1873 H 0.68111 0.43786 0.00832 0.0
H1874 H 0.66513 0.46162 0.04928 0.0
H1875 H 0.66459 0.44564 0.09984 0.0
H1876 H 0.44412 0.73591 0.89187 0.0
H1877 H 0.46188 0.73694 0.94113 0.0
H1878 H 0.49638 0.67713 0.92009 0.0
H1879 H 0.4788 0.67637 0.87047 0.0
H1880 H 0.45648 0.7048 0.98391 0.0
H1881 H 0.5445 0.71541 0.95595 0.0
H1882 H 0.52289 0.72072 0.92925 0.0
H1883 H 0.53147 0.69307 0.93676 0.0
C1884 C 0.45588 0.72329 0.89765 0.0
C1885 C 0.46019 0.70603 0.87775 0.0
C1886 C 0.46592 0.72383 0.92571 0.0
C1887 C 0.48048 0.70716 0.93419 0.0
C1888 C 0.48546 0.69034 0.91377 0.0
H1889 H 0.5474 0.67517 0.09924 0.0
H1890 H 0.52917 0.67377 0.0503 0.0
C1891 C 0.47546 0.68987 0.88556 0.0
C1892 C 0.48901 0.70654 0.96522 0.0
H1893 H 0.53602 0.70666 0.00654 0.0
C1894 C 0.47387 0.70531 0.98891 0.0
C1895 C 0.51167 0.70715 0.97157 0.0
C1896 C 0.5286 0.70936 0.94708 0.0
C1897 C 0.48084 0.70439 0.01885 0.0
C1898 C 0.50349 0.70494 0.02517 0.0
C1899 C 0.51863 0.70615 0.00151 0.0
C1900 C 0.51199 0.70449 0.05618 0.0
C1901 C 0.46397 0.70246 0.04344 0.0
C1902 C 0.50794 0.722 0.07585 0.0
C1903 C 0.51826 0.72275 0.10382 0.0
C1904 C 0.53278 0.70604 0.11229 0.0
C1905 C 0.5361 0.68812 0.09313 0.0
C1906 C 0.52581 0.68737 0.06523 0.0
H1907 H 0.4478 0.69711 0.03464 0.0
H1908 H 0.46941 0.69066 0.06089 0.0
H1909 H 0.4618 0.71868 0.05428 0.0
H1910 H 0.49762 0.73555 0.069 0.0
H1911 H 0.51588 0.73693 0.11806 0.0
H1912 H 0.26524 0.55281 0.0963 0.0
H1913 H 0.26467 0.53445 0.04749 0.0
H1914 H 0.32483 0.501 0.06972 0.0
H1915 H 0.32526 0.51933 0.11891 0.0
H1916 H 0.29832 0.53923 0.00449 0.0
H1917 H 0.28469 0.4521 0.03637 0.0
H1918 H 0.279 0.47454 0.06158 0.0
H1919 H 0.30674 0.46589 0.05532 0.0
C1920 C 0.2781 0.54123 0.09086 0.0
C1921 C 0.29536 0.53744 0.11097 0.0
C1922 C 0.27782 0.53086 0.06306 0.0
C1923 C 0.29471 0.51643 0.05506 0.0
C1924 C 0.31154 0.51193 0.07566 0.0
H1925 H 0.32163 0.47397 0.87109 0.0
H1926 H 0.32425 0.49215 0.92024 0.0
C1927 C 0.31179 0.52233 0.10362 0.0
C1928 C 0.29516 0.50723 0.02445 0.0
H1929 H 0.29064 0.45959 0.98505 0.0
C1930 C 0.29673 0.52181 0.00016 0.0
C1931 C 0.29297 0.48453 0.01906 0.0
C1932 C 0.29058 0.4683 0.04438 0.0
C1933 C 0.29588 0.51429 0.97048 0.0
C1934 C 0.29368 0.4916 0.96509 0.0
C1935 C 0.29239 0.47699 0.98937 0.0
C1936 C 0.29167 0.48265 0.93446 0.0
C1937 C 0.29668 0.53069 0.94516 0.0
C1938 C 0.27245 0.47158 0.92622 0.0
C1939 C 0.271 0.4613 0.89841 0.0
C1940 C 0.28878 0.46188 0.87853 0.0
C1941 C 0.30771 0.47362 0.88615 0.0
C1942 C 0.30919 0.48392 0.91409 0.0
H1943 H 0.29386 0.5477 0.95316 0.0
H1944 H 0.31307 0.53006 0.93441 0.0
H1945 H 0.28424 0.52672 0.92782 0.0
H1946 H 0.25878 0.47046 0.94165 0.0
H1947 H 0.25633 0.45217 0.89284 0.0
H1948 H 0.51118 0.26737 0.87042 0.0
H1949 H 0.49404 0.26679 0.92007 0.0
H1950 H 0.50652 0.33605 0.92961 0.0
H1951 H 0.52392 0.3365 0.88 0.0
H1952 H 0.52506 0.31068 0.97436 0.0
H1953 H 0.43759 0.28871 0.95897 0.0
H1954 H 0.45618 0.27099 0.93936 0.0
H1955 H 0.45428 0.29938 0.92887 0.0
C1956 C 0.50932 0.28261 0.88263 0.0
C1957 C 0.51852 0.30204 0.87154 0.0
C1958 C 0.49961 0.28228 0.91097 0.0
C1959 C 0.49892 0.30141 0.92842 0.0
C1960 C 0.50681 0.32115 0.91639 0.0
H1961 H 0.46655 0.32479 0.11495 0.0
H1962 H 0.48131 0.32793 0.0639 0.0
C1963 C 0.51653 0.32147 0.88807 0.0
C1964 C 0.49291 0.30014 0.96049 0.0
H1965 H 0.45211 0.28495 0.00842 0.0
C1966 C 0.50903 0.30529 0.98185 0.0
C1967 C 0.47209 0.29287 0.97009 0.0
C1968 C 0.45396 0.28785 0.94814 0.0
C1969 C 0.505 0.30297 0.01264 0.0
C1970 C 0.48425 0.29553 0.02221 0.0
C1971 C 0.46808 0.29051 0.00089 0.0
C1972 C 0.4787 0.29325 0.05429 0.0
C1973 C 0.52308 0.30797 0.03467 0.0
C1974 C 0.47282 0.27268 0.06584 0.0
C1975 C 0.4646 0.27091 0.09494 0.0
C1976 C 0.46212 0.28969 0.11269 0.0
C1977 C 0.4689 0.3101 0.10171 0.0
C1978 C 0.47721 0.31187 0.07263 0.0
H1979 H 0.53938 0.30858 0.0236 0.0
H1980 H 0.51996 0.32417 0.04513 0.0
H1981 H 0.52357 0.29551 0.05281 0.0
H1982 H 0.47376 0.25817 0.05191 0.0
H1983 H 0.45893 0.25512 0.10294 0.0
loop_
_geom_bond_atom_site_label_1
_geom_bond_atom_site_label_2
_geom_bond_distance
_geom_bond_site_symmetry_2
_ccdc_geom_bond_type
Co0 O3 1.970 . S
Co0 N17 1.989 . S
Co0 O25 1.967 . S
Co0 O32 1.920 . S
Co1 O4 1.966 . S
Co1 N10 2.022 . S
Co1 N18 1.993 . S
Co1 O26 1.941 . S
C2 O3 1.258 . S
C2 O4 1.263 . S
O3 Co0 1.970 . S
O3 C2 1.258 . S
O4 Co1 1.966 . S
O4 C2 1.263 . S
C5 O6 1.235 . S
C5 O32 1.289 . S
O6 C5 1.235 . S
C7 C9 1.400 . S
C7 N10 1.351 . S
C7 C12 1.501 . S
C8 C9 1.387 . S
C8 N11 1.341 . S
C9 C7 1.400 . S
C9 C8 1.387 . S
N10 Co1 2.022 . S
N10 C7 1.351 . S
N10 N11 1.365 . S
N11 C8 1.341 . S
N11 N10 1.365 . S
N11 H31 0.862 . S
C12 C7 1.501 . S
C12 H13 0.961 . S
C12 H14 0.961 . S
C12 H15 0.960 . S
H13 C12 0.961 . S
H14 C12 0.961 . S
H15 C12 0.960 . S
C16 N17 1.342 . S
C16 C20 1.401 . S
C16 C21 1.499 . S
N17 Co0 1.989 . S
N17 C16 1.342 . S
N17 N18 1.388 . S
N18 Co1 1.993 . S
N18 N17 1.388 . S
N18 C19 1.346 . S
C19 N18 1.346 . S
C19 C20 1.396 . S
C19 C29 1.510 . S
C20 C16 1.401 . S
C20 C19 1.396 . S
C21 C16 1.499 . S
C21 H22 0.959 . S
C21 H23 0.960 . S
C21 H24 0.961 . S
H22 C21 0.959 . S
H23 C21 0.960 . S
H24 C21 0.961 . S
O25 Co0 1.967 . S
O25 C33 1.258 . S
O26 Co1 1.941 . S
O26 C33 1.266 . S
H27 C29 0.959 . S
H28 C29 0.961 . S
C29 C19 1.510 . S
C29 H27 0.959 . S
C29 H28 0.961 . S
C29 H30 0.960 . S
H30 C29 0.960 . S
H31 N11 0.862 . S
O32 Co0 1.920 . S
O32 C5 1.289 . S
C33 O25 1.258 . S
C33 O26 1.266 . S
Co34 O37 1.970 . S
Co34 N51 1.989 . S
Co34 O59 1.967 . S
Co34 O66 1.920 . S
Co35 O38 1.966 . S
Co35 N44 2.022 . S
Co35 N52 1.993 . S
Co35 O60 1.941 . S
C36 O37 1.258 . S
C36 O38 1.263 . S
O37 Co34 1.970 . S
O37 C36 1.258 . S
O38 Co35 1.966 . S
O38 C36 1.263 . S
C39 O40 1.235 . S
C39 O66 1.289 . S
O40 C39 1.235 . S
C41 C43 1.400 . S
C41 N44 1.351 . S
C41 C46 1.501 . S
C42 C43 1.387 . S
C42 N45 1.341 . S
C43 C41 1.400 . S
C43 C42 1.387 . S
N44 Co35 2.022 . S
N44 C41 1.351 . S
N44 N45 1.365 . S
N45 C42 1.341 . S
N45 N44 1.365 . S
N45 H65 0.862 . S
C46 C41 1.501 . S
C46 H47 0.961 . S
C46 H48 0.961 . S
C46 H49 0.960 . S
H47 C46 0.961 . S
H48 C46 0.961 . S
H49 C46 0.960 . S
C50 N51 1.342 . S
C50 C54 1.401 . S
C50 C55 1.499 . S
N51 Co34 1.989 . S
N51 C50 1.342 . S
N51 N52 1.388 . S
N52 Co35 1.993 . S
N52 N51 1.388 . S
N52 C53 1.346 . S
C53 N52 1.346 . S
C53 C54 1.396 . S
C53 C63 1.510 . S
C54 C50 1.401 . S
C54 C53 1.396 . S
C55 C50 1.499 . S
C55 H56 0.959 . S
C55 H57 0.960 . S
C55 H58 0.961 . S
H56 C55 0.959 . S
H57 C55 0.960 . S
H58 C55 0.961 . S
O59 Co34 1.967 . S
O59 C67 1.258 . S
O60 Co35 1.941 . S
O60 C67 1.266 . S
H61 C63 0.959 . S
H62 C63 0.961 . S
C63 C53 1.510 . S
C63 H61 0.959 . S
C63 H62 0.961 . S
C63 H64 0.960 . S
H64 C63 0.960 . S
H65 N45 0.862 . S
O66 Co34 1.920 . S
O66 C39 1.289 . S
C67 O59 1.258 . S
C67 O60 1.266 . S
Co68 O71 1.970 . S
Co68 N85 1.989 . S
Co68 O93 1.967 . S
Co68 O100 1.920 . S
Co69 O72 1.966 . S
Co69 N78 2.022 . S
Co69 N86 1.993 . S
Co69 O94 1.941 . S
C70 O71 1.258 . S
C70 O72 1.263 . S
O71 Co68 1.970 . S
O71 C70 1.258 . S
O72 Co69 1.966 . S
O72 C70 1.263 . S
C73 O74 1.235 . S
C73 O100 1.289 . S
O74 C73 1.235 . S
C75 C77 1.400 . S
C75 N78 1.351 . S
C75 C80 1.501 . S
C76 C77 1.387 . S
C76 N79 1.341 . S
C77 C75 1.400 . S
C77 C76 1.387 . S
N78 Co69 2.022 . S
N78 C75 1.351 . S
N78 N79 1.365 . S
N79 C76 1.341 . S
N79 N78 1.365 . S
N79 H99 0.862 . S
C80 C75 1.501 . S
C80 H81 0.961 . S
C80 H82 0.961 . S
C80 H83 0.960 . S
H81 C80 0.961 . S
H82 C80 0.961 . S
H83 C80 0.960 . S
C84 N85 1.342 . S
C84 C88 1.401 . S
C84 C89 1.499 . S
N85 Co68 1.989 . S
N85 C84 1.342 . S
N85 N86 1.388 . S
N86 Co69 1.993 . S
N86 N85 1.388 . S
N86 C87 1.346 . S
C87 N86 1.346 . S
C87 C88 1.396 . S
C87 C97 1.510 . S
C88 C84 1.401 . S
C88 C87 1.396 . S
C89 C84 1.499 . S
C89 H90 0.959 . S
C89 H91 0.960 . S
C89 H92 0.961 . S
H90 C89 0.959 . S
H91 C89 0.960 . S
H92 C89 0.961 . S
O93 Co68 1.967 . S
O93 C101 1.258 . S
O94 Co69 1.941 . S
O94 C101 1.266 . S
H95 C97 0.959 . S
H96 C97 0.961 . S
C97 C87 1.510 . S
C97 H95 0.959 . S
C97 H96 0.961 . S
C97 H98 0.960 . S
H98 C97 0.960 . S
H99 N79 0.862 . S
O100 Co68 1.920 . S
O100 C73 1.289 . S
C101 O93 1.258 . S
C101 O94 1.266 . S
Co102 O105 1.970 . S
Co102 N119 1.989 . S
Co102 O127 1.967 . S
Co102 O134 1.920 . S
Co103 O106 1.966 . S
Co103 N112 2.022 . S
Co103 N120 1.993 . S
Co103 O128 1.941 . S
C104 O105 1.258 . S
C104 O106 1.263 . S
O105 Co102 1.970 . S
O105 C104 1.258 . S
O106 Co103 1.966 . S
O106 C104 1.263 . S
C107 O108 1.235 . S
C107 O134 1.289 . S
O108 C107 1.235 . S
C109 C111 1.400 . S
C109 N112 1.351 . S
C109 C114 1.501 . S
C110 C111 1.387 . S
C110 N113 1.341 . S
C111 C109 1.400 . S
C111 C110 1.387 . S
N112 Co103 2.022 . S
N112 C109 1.351 . S
N112 N113 1.365 . S
N113 C110 1.341 . S
N113 N112 1.365 . S
N113 H133 0.862 . S
C114 C109 1.501 . S
C114 H115 0.961 . S
C114 H116 0.961 . S
C114 H117 0.960 . S
H115 C114 0.961 . S
H116 C114 0.961 . S
H117 C114 0.960 . S
C118 N119 1.342 . S
C118 C122 1.401 . S
C118 C123 1.499 . S
N119 Co102 1.989 . S
N119 C118 1.342 . S
N119 N120 1.388 . S
N120 Co103 1.993 . S
N120 N119 1.388 . S
N120 C121 1.346 . S
C121 N120 1.346 . S
C121 C122 1.396 . S
C121 C131 1.510 . S
C122 C118 1.401 . S
C122 C121 1.396 . S
C123 C118 1.499 . S
C123 H124 0.959 . S
C123 H125 0.960 . S
C123 H126 0.961 . S
H124 C123 0.959 . S
H125 C123 0.960 . S
H126 C123 0.961 . S
O127 Co102 1.967 . S
O127 C135 1.258 . S
O128 Co103 1.941 . S
O128 C135 1.266 . S
H129 C131 0.959 . S
H130 C131 0.961 . S
C131 C121 1.510 . S
C131 H129 0.959 . S
C131 H130 0.961 . S
C131 H132 0.960 . S
H132 C131 0.960 . S
H133 N113 0.862 . S
O134 Co102 1.920 . S
O134 C107 1.289 . S
C135 O127 1.258 . S
C135 O128 1.266 . S
Co136 O139 1.970 . S
Co136 N153 1.989 . S
Co136 O161 1.967 . S
Co136 O168 1.920 . S
Co137 O140 1.966 . S
Co137 N146 2.022 . S
Co137 N154 1.993 . S
Co137 O162 1.941 . S
C138 O139 1.258 . S
C138 O140 1.263 . S
O139 Co136 1.970 . S
O139 C138 1.258 . S
O140 Co137 1.966 . S
O140 C138 1.263 . S
C141 O142 1.235 . S
C141 O168 1.289 . S
O142 C141 1.235 . S
C143 C145 1.400 . S
C143 N146 1.351 . S
C143 C148 1.501 . S
C144 C145 1.387 . S
C144 N147 1.341 . S
C145 C143 1.400 . S
C145 C144 1.387 . S
N146 Co137 2.022 . S
N146 C143 1.351 . S
N146 N147 1.365 . S
N147 C144 1.341 . S
N147 N146 1.365 . S
N147 H167 0.862 . S
C148 C143 1.501 . S
C148 H149 0.961 . S
C148 H150 0.961 . S
C148 H151 0.960 . S
H149 C148 0.961 . S
H150 C148 0.961 . S
H151 C148 0.960 . S
C152 N153 1.342 . S
C152 C156 1.401 . S
C152 C157 1.499 . S
N153 Co136 1.989 . S
N153 C152 1.342 . S
N153 N154 1.388 . S
N154 Co137 1.993 . S
N154 N153 1.388 . S
N154 C155 1.346 . S
C155 N154 1.346 . S
C155 C156 1.396 . S
C155 C165 1.510 . S
C156 C152 1.401 . S
C156 C155 1.396 . S
C157 C152 1.499 . S
C157 H158 0.959 . S
C157 H159 0.960 . S
C157 H160 0.961 . S
H158 C157 0.959 . S
H159 C157 0.960 . S
H160 C157 0.961 . S
O161 Co136 1.967 . S
O161 C169 1.258 . S
O162 Co137 1.941 . S
O162 C169 1.266 . S
H163 C165 0.959 . S
H164 C165 0.961 . S
C165 C155 1.510 . S
C165 H163 0.959 . S
C165 H164 0.961 . S
C165 H166 0.960 . S
H166 C165 0.960 . S
H167 N147 0.862 . S
O168 Co136 1.920 . S
O168 C141 1.289 . S
C169 O161 1.258 . S
C169 O162 1.266 . S
Co170 O173 1.970 . S
Co170 N187 1.989 . S
Co170 O195 1.967 . S
Co170 O202 1.920 . S
Co171 O174 1.966 . S
Co171 N180 2.022 . S
Co171 N188 1.993 . S
Co171 O196 1.941 . S
C172 O173 1.258 . S
C172 O174 1.263 . S
O173 Co170 1.970 . S
O173 C172 1.258 . S
O174 Co171 1.966 . S
O174 C172 1.263 . S
C175 O176 1.235 . S
C175 O202 1.289 . S
O176 C175 1.235 . S
C177 C179 1.400 . S
C177 N180 1.351 . S
C177 C182 1.501 . S
C178 C179 1.387 . S
C178 N181 1.341 . S
C179 C177 1.400 . S
C179 C178 1.387 . S
N180 Co171 2.022 . S
N180 C177 1.351 . S
N180 N181 1.365 . S
N181 C178 1.341 . S
N181 N180 1.365 . S
N181 H201 0.862 . S
C182 C177 1.501 . S
C182 H183 0.961 . S
C182 H184 0.961 . S
C182 H185 0.960 . S
H183 C182 0.961 . S
H184 C182 0.961 . S
H185 C182 0.960 . S
C186 N187 1.342 . S
C186 C190 1.401 . S
C186 C191 1.499 . S
N187 Co170 1.989 . S
N187 C186 1.342 . S
N187 N188 1.388 . S
N188 Co171 1.993 . S
N188 N187 1.388 . S
N188 C189 1.346 . S
C189 N188 1.346 . S
C189 C190 1.396 . S
C189 C199 1.510 . S
C190 C186 1.401 . S
C190 C189 1.396 . S
C191 C186 1.499 . S
C191 H192 0.959 . S
C191 H193 0.960 . S
C191 H194 0.961 . S
H192 C191 0.959 . S
H193 C191 0.960 . S
H194 C191 0.961 . S
O195 Co170 1.967 . S
O195 C203 1.258 . S
O196 Co171 1.941 . S
O196 C203 1.266 . S
H197 C199 0.959 . S
H198 C199 0.961 . S
C199 C189 1.510 . S
C199 H197 0.959 . S
C199 H198 0.961 . S
C199 H200 0.960 . S
H200 C199 0.960 . S
H201 N181 0.862 . S
O202 Co170 1.920 . S
O202 C175 1.289 . S
C203 O195 1.258 . S
C203 O196 1.266 . S
Co204 O207 1.970 . S
Co204 N221 1.989 . S
Co204 O229 1.967 . S
Co204 O236 1.920 . S
Co205 O208 1.966 . S
Co205 N214 2.022 . S
Co205 N222 1.993 . S
Co205 O230 1.941 . S
C206 O207 1.258 . S
C206 O208 1.263 . S
O207 Co204 1.970 . S
O207 C206 1.258 . S
O208 Co205 1.966 . S
O208 C206 1.263 . S
C209 O210 1.235 . S
C209 O236 1.289 . S
O210 C209 1.235 . S
C211 C213 1.400 . S
C211 N214 1.351 . S
C211 C216 1.501 . S
C212 C213 1.387 . S
C212 N215 1.341 . S
C213 C211 1.400 . S
C213 C212 1.387 . S
N214 Co205 2.022 . S
N214 C211 1.351 . S
N214 N215 1.365 . S
N215 C212 1.341 . S
N215 N214 1.365 . S
N215 H235 0.862 . S
C216 C211 1.501 . S
C216 H217 0.961 . S
C216 H218 0.961 . S
C216 H219 0.960 . S
H217 C216 0.961 . S
H218 C216 0.961 . S
H219 C216 0.960 . S
C220 N221 1.342 . S
C220 C224 1.401 . S
C220 C225 1.499 . S
N221 Co204 1.989 . S
N221 C220 1.342 . S
N221 N222 1.388 . S
N222 Co205 1.993 . S
N222 N221 1.388 . S
N222 C223 1.346 . S
C223 N222 1.346 . S
C223 C224 1.396 . S
C223 C233 1.510 . S
C224 C220 1.401 . S
C224 C223 1.396 . S
C225 C220 1.499 . S
C225 H226 0.959 . S
C225 H227 0.960 . S
C225 H228 0.961 . S
H226 C225 0.959 . S
H227 C225 0.960 . S
H228 C225 0.961 . S
O229 Co204 1.967 . S
O229 C237 1.258 . S
O230 Co205 1.941 . S
O230 C237 1.266 . S
H231 C233 0.959 . S
H232 C233 0.961 . S
C233 C223 1.510 . S
C233 H231 0.959 . S
C233 H232 0.961 . S
C233 H234 0.960 . S
H234 C233 0.960 . S
H235 N215 0.862 . S
O236 Co204 1.920 . S
O236 C209 1.289 . S
C237 O229 1.258 . S
C237 O230 1.266 . S
Co238 O241 1.970 . S
Co238 N255 1.989 . S
Co238 O263 1.967 . S
Co238 O270 1.920 . S
Co239 O242 1.966 . S
Co239 N248 2.022 . S
Co239 N256 1.993 . S
Co239 O264 1.941 . S
C240 O241 1.258 . S
C240 O242 1.263 . S
O241 Co238 1.970 . S
O241 C240 1.258 . S
O242 Co239 1.966 . S
O242 C240 1.263 . S
C243 O244 1.235 . S
C243 O270 1.289 . S
O244 C243 1.235 . S
C245 C247 1.400 . S
C245 N248 1.351 . S
C245 C250 1.501 . S
C246 C247 1.387 . S
C246 N249 1.341 . S
C247 C245 1.400 . S
C247 C246 1.387 . S
N248 Co239 2.022 . S
N248 C245 1.351 . S
N248 N249 1.365 . S
N249 C246 1.341 . S
N249 N248 1.365 . S
N249 H269 0.862 . S
C250 C245 1.501 . S
C250 H251 0.961 . S
C250 H252 0.961 . S
C250 H253 0.960 . S
H251 C250 0.961 . S
H252 C250 0.961 . S
H253 C250 0.960 . S
C254 N255 1.342 . S
C254 C258 1.401 . S
C254 C259 1.499 . S
N255 Co238 1.989 . S
N255 C254 1.342 . S
N255 N256 1.388 . S
N256 Co239 1.993 . S
N256 N255 1.388 . S
N256 C257 1.346 . S
C257 N256 1.346 . S
C257 C258 1.396 . S
C257 C267 1.510 . S
C258 C254 1.401 . S
C258 C257 1.396 . S
C259 C254 1.499 . S
C259 H260 0.959 . S
C259 H261 0.960 . S
C259 H262 0.961 . S
H260 C259 0.959 . S
H261 C259 0.960 . S
H262 C259 0.961 . S
O263 Co238 1.967 . S
O263 C271 1.258 . S
O264 Co239 1.941 . S
O264 C271 1.266 . S
H265 C267 0.959 . S
H266 C267 0.961 . S
C267 C257 1.510 . S
C267 H265 0.959 . S
C267 H266 0.961 . S
C267 H268 0.960 . S
H268 C267 0.960 . S
H269 N249 0.862 . S
O270 Co238 1.920 . S
O270 C243 1.289 . S
C271 O263 1.258 . S
C271 O264 1.266 . S
Co272 O275 1.970 . S
Co272 N289 1.989 . S
Co272 O297 1.967 . S
Co272 O304 1.920 . S
Co273 O276 1.966 . S
Co273 N282 2.022 . S
Co273 N290 1.993 . S
Co273 O298 1.941 . S
C274 O275 1.258 . S
C274 O276 1.263 . S
O275 Co272 1.970 . S
O275 C274 1.258 . S
O276 Co273 1.966 . S
O276 C274 1.263 . S
C277 O278 1.235 . S
C277 O304 1.289 . S
O278 C277 1.235 . S
C279 C281 1.400 . S
C279 N282 1.351 . S
C279 C284 1.501 . S
C280 C281 1.387 . S
C280 N283 1.341 . S
C281 C279 1.400 . S
C281 C280 1.387 . S
N282 Co273 2.022 . S
N282 C279 1.351 . S
N282 N283 1.365 . S
N283 C280 1.341 . S
N283 N282 1.365 . S
N283 H303 0.862 . S
C284 C279 1.501 . S
C284 H285 0.961 . S
C284 H286 0.961 . S
C284 H287 0.960 . S
H285 C284 0.961 . S
H286 C284 0.961 . S
H287 C284 0.960 . S
C288 N289 1.342 . S
C288 C292 1.401 . S
C288 C293 1.499 . S
N289 Co272 1.989 . S
N289 C288 1.342 . S
N289 N290 1.388 . S
N290 Co273 1.993 . S
N290 N289 1.388 . S
N290 C291 1.346 . S
C291 N290 1.346 . S
C291 C292 1.396 . S
C291 C301 1.510 . S
C292 C288 1.401 . S
C292 C291 1.396 . S
C293 C288 1.499 . S
C293 H294 0.959 . S
C293 H295 0.960 . S
C293 H296 0.961 . S
H294 C293 0.959 . S
H295 C293 0.960 . S
H296 C293 0.961 . S
O297 Co272 1.967 . S
O297 C305 1.258 . S
O298 Co273 1.941 . S
O298 C305 1.266 . S
H299 C301 0.959 . S
H300 C301 0.961 . S
C301 C291 1.510 . S
C301 H299 0.959 . S
C301 H300 0.961 . S
C301 H302 0.960 . S
H302 C301 0.960 . S
H303 N283 0.862 . S
O304 Co272 1.920 . S
O304 C277 1.289 . S
C305 O297 1.258 . S
C305 O298 1.266 . S
Co306 O309 1.970 . S
Co306 N323 1.989 . S
Co306 O331 1.967 . S
Co306 O338 1.920 . S
Co307 O310 1.966 . S
Co307 N316 2.022 . S
Co307 N324 1.993 . S
Co307 O332 1.941 . S
C308 O309 1.258 . S
C308 O310 1.263 . S
O309 Co306 1.970 . S
O309 C308 1.258 . S
O310 Co307 1.966 . S
O310 C308 1.263 . S
C311 O312 1.235 . S
C311 O338 1.289 . S
O312 C311 1.235 . S
C313 C315 1.400 . S
C313 N316 1.351 . S
C313 C318 1.501 . S
C314 C315 1.387 . S
C314 N317 1.341 . S
C315 C313 1.400 . S
C315 C314 1.387 . S
N316 Co307 2.022 . S
N316 C313 1.351 . S
N316 N317 1.365 . S
N317 C314 1.341 . S
N317 N316 1.365 . S
N317 H337 0.862 . S
C318 C313 1.501 . S
C318 H319 0.961 . S
C318 H320 0.961 . S
C318 H321 0.960 . S
H319 C318 0.961 . S
H320 C318 0.961 . S
H321 C318 0.960 . S
C322 N323 1.342 . S
C322 C326 1.401 . S
C322 C327 1.499 . S
N323 Co306 1.989 . S
N323 C322 1.342 . S
N323 N324 1.388 . S
N324 Co307 1.993 . S
N324 N323 1.388 . S
N324 C325 1.346 . S
C325 N324 1.346 . S
C325 C326 1.396 . S
C325 C335 1.510 . S
C326 C322 1.401 . S
C326 C325 1.396 . S
C327 C322 1.499 . S
C327 H328 0.959 . S
C327 H329 0.960 . S
C327 H330 0.961 . S
H328 C327 0.959 . S
H329 C327 0.960 . S
H330 C327 0.961 . S
O331 Co306 1.967 . S
O331 C339 1.258 . S
O332 Co307 1.941 . S
O332 C339 1.266 . S
H333 C335 0.959 . S
H334 C335 0.961 . S
C335 C325 1.510 . S
C335 H333 0.959 . S
C335 H334 0.961 . S
C335 H336 0.960 . S
H336 C335 0.960 . S
H337 N317 0.862 . S
O338 Co306 1.920 . S
O338 C311 1.289 . S
C339 O331 1.258 . S
C339 O332 1.266 . S
Co340 O343 1.970 . S
Co340 N357 1.989 . S
Co340 O365 1.967 . S
Co340 O372 1.920 . S
Co341 O344 1.966 . S
Co341 N350 2.022 . S
Co341 N358 1.993 . S
Co341 O366 1.941 . S
C342 O343 1.258 . S
C342 O344 1.263 . S
O343 Co340 1.970 . S
O343 C342 1.258 . S
O344 Co341 1.966 . S
O344 C342 1.263 . S
C345 O346 1.235 . S
C345 O372 1.289 . S
O346 C345 1.235 . S
C347 C349 1.400 . S
C347 N350 1.351 . S
C347 C352 1.501 . S
C348 C349 1.387 . S
C348 N351 1.341 . S
C349 C347 1.400 . S
C349 C348 1.387 . S
N350 Co341 2.022 . S
N350 C347 1.351 . S
N350 N351 1.365 . S
N351 C348 1.341 . S
N351 N350 1.365 . S
N351 H371 0.862 . S
C352 C347 1.501 . S
C352 H353 0.961 . S
C352 H354 0.961 . S
C352 H355 0.960 . S
H353 C352 0.961 . S
H354 C352 0.961 . S
H355 C352 0.960 . S
C356 N357 1.342 . S
C356 C360 1.401 . S
C356 C361 1.499 . S
N357 Co340 1.989 . S
N357 C356 1.342 . S
N357 N358 1.388 . S
N358 Co341 1.993 . S
N358 N357 1.388 . S
N358 C359 1.346 . S
C359 N358 1.346 . S
C359 C360 1.396 . S
C359 C369 1.510 . S
C360 C356 1.401 . S
C360 C359 1.396 . S
C361 C356 1.499 . S
C361 H362 0.959 . S
C361 H363 0.960 . S
C361 H364 0.961 . S
H362 C361 0.959 . S
H363 C361 0.960 . S
H364 C361 0.961 . S
O365 Co340 1.967 . S
O365 C373 1.258 . S
O366 Co341 1.941 . S
O366 C373 1.266 . S
H367 C369 0.959 . S
H368 C369 0.961 . S
C369 C359 1.510 . S
C369 H367 0.959 . S
C369 H368 0.961 . S
C369 H370 0.960 . S
H370 C369 0.960 . S
H371 N351 0.862 . S
O372 Co340 1.920 . S
O372 C345 1.289 . S
C373 O365 1.258 . S
C373 O366 1.266 . S
Co374 O377 1.970 . S
Co374 N391 1.989 . S
Co374 O399 1.967 . S
Co374 O406 1.920 . S
Co375 O378 1.966 . S
Co375 N384 2.022 . S
Co375 N392 1.993 . S
Co375 O400 1.941 . S
C376 O377 1.258 . S
C376 O378 1.263 . S
O377 Co374 1.970 . S
O377 C376 1.258 . S
O378 Co375 1.966 . S
O378 C376 1.263 . S
C379 O380 1.235 . S
C379 O406 1.289 . S
O380 C379 1.235 . S
C381 C383 1.400 . S
C381 N384 1.351 . S
C381 C386 1.501 . S
C382 C383 1.387 . S
C382 N385 1.341 . S
C383 C381 1.400 . S
C383 C382 1.387 . S
N384 Co375 2.022 . S
N384 C381 1.351 . S
N384 N385 1.365 . S
N385 C382 1.341 . S
N385 N384 1.365 . S
N385 H405 0.862 . S
C386 C381 1.501 . S
C386 H387 0.961 . S
C386 H388 0.961 . S
C386 H389 0.960 . S
H387 C386 0.961 . S
H388 C386 0.961 . S
H389 C386 0.960 . S
C390 N391 1.342 . S
C390 C394 1.401 . S
C390 C395 1.499 . S
N391 Co374 1.989 . S
N391 C390 1.342 . S
N391 N392 1.388 . S
N392 Co375 1.993 . S
N392 N391 1.388 . S
N392 C393 1.346 . S
C393 N392 1.346 . S
C393 C394 1.396 . S
C393 C403 1.510 . S
C394 C390 1.401 . S
C394 C393 1.396 . S
C395 C390 1.499 . S
C395 H396 0.959 . S
C395 H397 0.960 . S
C395 H398 0.961 . S
H396 C395 0.959 . S
H397 C395 0.960 . S
H398 C395 0.961 . S
O399 Co374 1.967 . S
O399 C407 1.258 . S
O400 Co375 1.941 . S
O400 C407 1.266 . S
H401 C403 0.959 . S
H402 C403 0.961 . S
C403 C393 1.510 . S
C403 H401 0.959 . S
C403 H402 0.961 . S
C403 H404 0.960 . S
H404 C403 0.960 . S
H405 N385 0.862 . S
O406 Co374 1.920 . S
O406 C379 1.289 . S
C407 O399 1.258 . S
C407 O400 1.266 . S
Co408 O411 1.970 . S
Co408 N425 1.989 . S
Co408 O433 1.967 . S
Co408 O440 1.920 . S
Co409 O412 1.966 . S
Co409 N418 2.022 . S
Co409 N426 1.993 . S
Co409 O434 1.941 . S
C410 O411 1.258 . S
C410 O412 1.263 . S
O411 Co408 1.970 . S
O411 C410 1.258 . S
O412 Co409 1.966 . S
O412 C410 1.263 . S
C413 O414 1.235 . S
C413 O440 1.289 . S
O414 C413 1.235 . S
C415 C417 1.400 . S
C415 N418 1.351 . S
C415 C420 1.501 . S
C416 C417 1.387 . S
C416 N419 1.341 . S
C417 C415 1.400 . S
C417 C416 1.387 . S
N418 Co409 2.022 . S
N418 C415 1.351 . S
N418 N419 1.365 . S
N419 C416 1.341 . S
N419 N418 1.365 . S
N419 H439 0.862 . S
C420 C415 1.501 . S
C420 H421 0.961 . S
C420 H422 0.961 . S
C420 H423 0.960 . S
H421 C420 0.961 . S
H422 C420 0.961 . S
H423 C420 0.960 . S
C424 N425 1.342 . S
C424 C428 1.401 . S
C424 C429 1.499 . S
N425 Co408 1.989 . S
N425 C424 1.342 . S
N425 N426 1.388 . S
N426 Co409 1.993 . S
N426 N425 1.388 . S
N426 C427 1.346 . S
C427 N426 1.346 . S
C427 C428 1.396 . S
C427 C437 1.510 . S
C428 C424 1.401 . S
C428 C427 1.396 . S
C429 C424 1.499 . S
C429 H430 0.959 . S
C429 H431 0.960 . S
C429 H432 0.961 . S
H430 C429 0.959 . S
H431 C429 0.960 . S
H432 C429 0.961 . S
O433 Co408 1.967 . S
O433 C441 1.258 . S
O434 Co409 1.941 . S
O434 C441 1.266 . S
H435 C437 0.959 . S
H436 C437 0.961 . S
C437 C427 1.510 . S
C437 H435 0.959 . S
C437 H436 0.961 . S
C437 H438 0.960 . S
H438 C437 0.960 . S
H439 N419 0.862 . S
O440 Co408 1.920 . S
O440 C413 1.289 . S
C441 O433 1.258 . S
C441 O434 1.266 . S
Co442 O445 1.970 . S
Co442 N459 1.989 . S
Co442 O467 1.967 . S
Co442 O474 1.920 . S
Co443 O446 1.966 . S
Co443 N452 2.022 . S
Co443 N460 1.993 . S
Co443 O468 1.941 . S
C444 O445 1.258 . S
C444 O446 1.263 . S
O445 Co442 1.970 . S
O445 C444 1.258 . S
O446 Co443 1.966 . S
O446 C444 1.263 . S
C447 O448 1.235 . S
C447 O474 1.289 . S
O448 C447 1.235 . S
C449 C451 1.400 . S
C449 N452 1.351 . S
C449 C454 1.501 . S
C450 C451 1.387 . S
C450 N453 1.341 . S
C451 C449 1.400 . S
C451 C450 1.387 . S
N452 Co443 2.022 . S
N452 C449 1.351 . S
N452 N453 1.365 . S
N453 C450 1.341 . S
N453 N452 1.365 . S
N453 H473 0.862 . S
C454 C449 1.501 . S
C454 H455 0.961 . S
C454 H456 0.961 . S
C454 H457 0.960 . S
H455 C454 0.961 . S
H456 C454 0.961 . S
H457 C454 0.960 . S
C458 N459 1.342 . S
C458 C462 1.401 . S
C458 C463 1.499 . S
N459 Co442 1.989 . S
N459 C458 1.342 . S
N459 N460 1.388 . S
N460 Co443 1.993 . S
N460 N459 1.388 . S
N460 C461 1.346 . S
C461 N460 1.346 . S
C461 C462 1.396 . S
C461 C471 1.510 . S
C462 C458 1.401 . S
C462 C461 1.396 . S
C463 C458 1.499 . S
C463 H464 0.959 . S
C463 H465 0.960 . S
C463 H466 0.961 . S
H464 C463 0.959 . S
H465 C463 0.960 . S
H466 C463 0.961 . S
O467 Co442 1.967 . S
O467 C475 1.258 . S
O468 Co443 1.941 . S
O468 C475 1.266 . S
H469 C471 0.959 . S
H470 C471 0.961 . S
C471 C461 1.510 . S
C471 H469 0.959 . S
C471 H470 0.961 . S
C471 H472 0.960 . S
H472 C471 0.960 . S
H473 N453 0.862 . S
O474 Co442 1.920 . S
O474 C447 1.289 . S
C475 O467 1.258 . S
C475 O468 1.266 . S
Co476 O479 1.970 . S
Co476 N493 1.989 . S
Co476 O501 1.967 . S
Co476 O508 1.920 . S
Co477 O480 1.966 . S
Co477 N486 2.022 . S
Co477 N494 1.993 . S
Co477 O502 1.941 . S
C478 O479 1.258 . S
C478 O480 1.263 . S
O479 Co476 1.970 . S
O479 C478 1.258 . S
O480 Co477 1.966 . S
O480 C478 1.263 . S
C481 O482 1.235 . S
C481 O508 1.289 . S
O482 C481 1.235 . S
C483 C485 1.400 . S
C483 N486 1.351 . S
C483 C488 1.501 . S
C484 C485 1.387 . S
C484 N487 1.341 . S
C485 C483 1.400 . S
C485 C484 1.387 . S
N486 Co477 2.022 . S
N486 C483 1.351 . S
N486 N487 1.365 . S
N487 C484 1.341 . S
N487 N486 1.365 . S
N487 H507 0.862 . S
C488 C483 1.501 . S
C488 H489 0.961 . S
C488 H490 0.961 . S
C488 H491 0.960 . S
H489 C488 0.961 . S
H490 C488 0.961 . S
H491 C488 0.960 . S
C492 N493 1.342 . S
C492 C496 1.401 . S
C492 C497 1.499 . S
N493 Co476 1.989 . S
N493 C492 1.342 . S
N493 N494 1.388 . S
N494 Co477 1.993 . S
N494 N493 1.388 . S
N494 C495 1.346 . S
C495 N494 1.346 . S
C495 C496 1.396 . S
C495 C505 1.510 . S
C496 C492 1.401 . S
C496 C495 1.396 . S
C497 C492 1.499 . S
C497 H498 0.959 . S
C497 H499 0.960 . S
C497 H500 0.961 . S
H498 C497 0.959 . S
H499 C497 0.960 . S
H500 C497 0.961 . S
O501 Co476 1.967 . S
O501 C509 1.258 . S
O502 Co477 1.941 . S
O502 C509 1.266 . S
H503 C505 0.959 . S
H504 C505 0.961 . S
C505 C495 1.510 . S
C505 H503 0.959 . S
C505 H504 0.961 . S
C505 H506 0.960 . S
H506 C505 0.960 . S
H507 N487 0.862 . S
O508 Co476 1.920 . S
O508 C481 1.289 . S
C509 O501 1.258 . S
C509 O502 1.266 . S
Co510 O513 1.970 . S
Co510 N527 1.989 . S
Co510 O535 1.967 . S
Co510 O542 1.920 . S
Co511 O514 1.966 . S
Co511 N520 2.022 . S
Co511 N528 1.993 . S
Co511 O536 1.941 . S
C512 O513 1.258 . S
C512 O514 1.263 . S
O513 Co510 1.970 . S
O513 C512 1.258 . S
O514 Co511 1.966 . S
O514 C512 1.263 . S
C515 O516 1.235 . S
C515 O542 1.289 . S
O516 C515 1.235 . S
C517 C519 1.400 . S
C517 N520 1.351 . S
C517 C522 1.501 . S
C518 C519 1.387 . S
C518 N521 1.341 . S
C519 C517 1.400 . S
C519 C518 1.387 . S
N520 Co511 2.022 . S
N520 C517 1.351 . S
N520 N521 1.365 . S
N521 C518 1.341 . S
N521 N520 1.365 . S
N521 H541 0.862 . S
C522 C517 1.501 . S
C522 H523 0.961 . S
C522 H524 0.961 . S
C522 H525 0.960 . S
H523 C522 0.961 . S
H524 C522 0.961 . S
H525 C522 0.960 . S
C526 N527 1.342 . S
C526 C530 1.401 . S
C526 C531 1.499 . S
N527 Co510 1.989 . S
N527 C526 1.342 . S
N527 N528 1.388 . S
N528 Co511 1.993 . S
N528 N527 1.388 . S
N528 C529 1.346 . S
C529 N528 1.346 . S
C529 C530 1.396 . S
C529 C539 1.510 . S
C530 C526 1.401 . S
C530 C529 1.396 . S
C531 C526 1.499 . S
C531 H532 0.959 . S
C531 H533 0.960 . S
C531 H534 0.961 . S
H532 C531 0.959 . S
H533 C531 0.960 . S
H534 C531 0.961 . S
O535 Co510 1.967 . S
O535 C543 1.258 . S
O536 Co511 1.941 . S
O536 C543 1.266 . S
H537 C539 0.959 . S
H538 C539 0.961 . S
C539 C529 1.510 . S
C539 H537 0.959 . S
C539 H538 0.961 . S
C539 H540 0.960 . S
H540 C539 0.960 . S
H541 N521 0.862 . S
O542 Co510 1.920 . S
O542 C515 1.289 . S
C543 O535 1.258 . S
C543 O536 1.266 . S
H544 C552 0.929 . S
H545 C554 0.930 . S
H546 C556 0.930 . S
H547 C559 0.929 . S
H548 C562 0.930 . S
H549 C564 0.960 . S
H550 C564 0.960 . S
H551 C564 0.960 . S
C552 H544 0.929 . S
C552 C553 1.377 . S
C552 C554 1.384 . S
C553 C552 1.377 . S
C553 C559 1.390 . S
C554 H545 0.930 . S
C554 C552 1.384 . S
C554 C555 1.372 . S
C555 C554 1.372 . S
C555 C556 1.400 . S
C555 C560 1.490 . S
C556 H546 0.930 . S
C556 C555 1.400 . S
C556 C559 1.386 . S
H557 C573 0.930 . S
H558 C574 0.931 . S
C559 H547 0.929 . S
C559 C553 1.390 . S
C559 C556 1.386 . S
C560 C555 1.490 . S
C560 C562 1.395 . S
C560 C563 1.403 . S
H561 C567 0.930 . S
C562 H548 0.930 . S
C562 C560 1.395 . S
C562 C565 1.403 . S
C563 C560 1.403 . S
C563 C564 1.524 . S
C563 C567 1.400 . S
C564 H549 0.960 . S
C564 H550 0.960 . S
C564 H551 0.960 . S
C564 C563 1.524 . S
C565 C562 1.403 . S
C565 C566 1.392 . S
C565 C569 1.495 . S
C566 C565 1.392 . S
C566 C567 1.385 . S
C566 C568 1.478 . S
C567 H561 0.930 . S
C567 C563 1.400 . S
C567 C566 1.385 . S
C568 C566 1.478 . S
C568 C570 1.381 . S
C568 C574 1.383 . S
C569 C565 1.495 . S
C569 H575 0.959 . S
C569 H576 0.961 . S
C569 H577 0.960 . S
C570 C568 1.381 . S
C570 C571 1.394 . S
C570 H578 0.930 . S
C571 C570 1.394 . S
C571 C572 1.383 . S
C571 H579 0.929 . S
C572 C571 1.383 . S
C572 C573 1.377 . S
C573 H557 0.930 . S
C573 C572 1.377 . S
C573 C574 1.379 . S
C574 H558 0.931 . S
C574 C568 1.383 . S
C574 C573 1.379 . S
H575 C569 0.959 . S
H576 C569 0.961 . S
H577 C569 0.960 . S
H578 C570 0.930 . S
H579 C571 0.929 . S
H580 C588 0.929 . S
H581 C590 0.930 . S
H582 C592 0.930 . S
H583 C595 0.929 . S
H584 C598 0.930 . S
H585 C600 0.960 . S
H586 C600 0.960 . S
H587 C600 0.960 . S
C588 H580 0.929 . S
C588 C589 1.377 . S
C588 C590 1.384 . S
C589 C588 1.377 . S
C589 C595 1.390 . S
C590 H581 0.930 . S
C590 C588 1.384 . S
C590 C591 1.372 . S
C591 C590 1.372 . S
C591 C592 1.400 . S
C591 C596 1.490 . S
C592 H582 0.930 . S
C592 C591 1.400 . S
C592 C595 1.386 . S
H593 C609 0.930 . S
H594 C610 0.931 . S
C595 H583 0.929 . S
C595 C589 1.390 . S
C595 C592 1.386 . S
C596 C591 1.490 . S
C596 C598 1.395 . S
C596 C599 1.403 . S
H597 C603 0.930 . S
C598 H584 0.930 . S
C598 C596 1.395 . S
C598 C601 1.403 . S
C599 C596 1.403 . S
C599 C600 1.524 . S
C599 C603 1.400 . S
C600 H585 0.960 . S
C600 H586 0.960 . S
C600 H587 0.960 . S
C600 C599 1.524 . S
C601 C598 1.403 . S
C601 C602 1.392 . S
C601 C605 1.495 . S
C602 C601 1.392 . S
C602 C603 1.385 . S
C602 C604 1.478 . S
C603 H597 0.930 . S
C603 C599 1.400 . S
C603 C602 1.385 . S
C604 C602 1.478 . S
C604 C606 1.381 . S
C604 C610 1.383 . S
C605 C601 1.495 . S
C605 H611 0.959 . S
C605 H612 0.961 . S
C605 H613 0.960 . S
C606 C604 1.381 . S
C606 C607 1.394 . S
C606 H614 0.930 . S
C607 C606 1.394 . S
C607 C608 1.383 . S
C607 H615 0.929 . S
C608 C607 1.383 . S
C608 C609 1.377 . S
C609 H593 0.930 . S
C609 C608 1.377 . S
C609 C610 1.379 . S
C610 H594 0.931 . S
C610 C604 1.383 . S
C610 C609 1.379 . S
H611 C605 0.959 . S
H612 C605 0.961 . S
H613 C605 0.960 . S
H614 C606 0.930 . S
H615 C607 0.929 . S
H616 C624 0.929 . S
H617 C626 0.930 . S
H618 C628 0.930 . S
H619 C631 0.929 . S
H620 C634 0.930 . S
H621 C636 0.960 . S
H622 C636 0.960 . S
H623 C636 0.960 . S
C624 H616 0.929 . S
C624 C625 1.377 . S
C624 C626 1.384 . S
C625 C624 1.377 . S
C625 C631 1.390 . S
C626 H617 0.930 . S
C626 C624 1.384 . S
C626 C627 1.372 . S
C627 C626 1.372 . S
C627 C628 1.400 . S
C627 C632 1.490 . S
C628 H618 0.930 . S
C628 C627 1.400 . S
C628 C631 1.386 . S
H629 C645 0.930 . S
H630 C646 0.931 . S
C631 H619 0.929 . S
C631 C625 1.390 . S
C631 C628 1.386 . S
C632 C627 1.490 . S
C632 C634 1.395 . S
C632 C635 1.403 . S
H633 C639 0.930 . S
C634 H620 0.930 . S
C634 C632 1.395 . S
C634 C637 1.403 . S
C635 C632 1.403 . S
C635 C636 1.524 . S
C635 C639 1.400 . S
C636 H621 0.960 . S
C636 H622 0.960 . S
C636 H623 0.960 . S
C636 C635 1.524 . S
C637 C634 1.403 . S
C637 C638 1.392 . S
C637 C641 1.495 . S
C638 C637 1.392 . S
C638 C639 1.385 . S
C638 C640 1.478 . S
C639 H633 0.930 . S
C639 C635 1.400 . S
C639 C638 1.385 . S
C640 C638 1.478 . S
C640 C642 1.381 . S
C640 C646 1.383 . S
C641 C637 1.495 . S
C641 H647 0.959 . S
C641 H648 0.961 . S
C641 H649 0.960 . S
C642 C640 1.381 . S
C642 C643 1.394 . S
C642 H650 0.930 . S
C643 C642 1.394 . S
C643 C644 1.383 . S
C643 H651 0.929 . S
C644 C643 1.383 . S
C644 C645 1.377 . S
C645 H629 0.930 . S
C645 C644 1.377 . S
C645 C646 1.379 . S
C646 H630 0.931 . S
C646 C640 1.383 . S
C646 C645 1.379 . S
H647 C641 0.959 . S
H648 C641 0.961 . S
H649 C641 0.960 . S
H650 C642 0.930 . S
H651 C643 0.929 . S
H652 C660 0.929 . S
H653 C662 0.930 . S
H654 C664 0.930 . S
H655 C667 0.929 . S
H656 C670 0.930 . S
H657 C672 0.960 . S
H658 C672 0.960 . S
H659 C672 0.960 . S
C660 H652 0.929 . S
C660 C661 1.377 . S
C660 C662 1.384 . S
C661 C660 1.377 . S
C661 C667 1.390 . S
C662 H653 0.930 . S
C662 C660 1.384 . S
C662 C663 1.372 . S
C663 C662 1.372 . S
C663 C664 1.400 . S
C663 C668 1.490 . S
C664 H654 0.930 . S
C664 C663 1.400 . S
C664 C667 1.386 . S
H665 C681 0.930 . S
H666 C682 0.931 . S
C667 H655 0.929 . S
C667 C661 1.390 . S
C667 C664 1.386 . S
C668 C663 1.490 . S
C668 C670 1.395 . S
C668 C671 1.403 . S
H669 C675 0.930 . S
C670 H656 0.930 . S
C670 C668 1.395 . S
C670 C673 1.403 . S
C671 C668 1.403 . S
C671 C672 1.524 . S
C671 C675 1.400 . S
C672 H657 0.960 . S
C672 H658 0.960 . S
C672 H659 0.960 . S
C672 C671 1.524 . S
C673 C670 1.403 . S
C673 C674 1.392 . S
C673 C677 1.495 . S
C674 C673 1.392 . S
C674 C675 1.385 . S
C674 C676 1.478 . S
C675 H669 0.930 . S
C675 C671 1.400 . S
C675 C674 1.385 . S
C676 C674 1.478 . S
C676 C678 1.381 . S
C676 C682 1.383 . S
C677 C673 1.495 . S
C677 H683 0.959 . S
C677 H684 0.961 . S
C677 H685 0.960 . S
C678 C676 1.381 . S
C678 C679 1.394 . S
C678 H686 0.930 . S
C679 C678 1.394 . S
C679 C680 1.383 . S
C679 H687 0.929 . S
C680 C679 1.383 . S
C680 C681 1.377 . S
C681 H665 0.930 . S
C681 C680 1.377 . S
C681 C682 1.379 . S
C682 H666 0.931 . S
C682 C676 1.383 . S
C682 C681 1.379 . S
H683 C677 0.959 . S
H684 C677 0.961 . S
H685 C677 0.960 . S
H686 C678 0.930 . S
H687 C679 0.929 . S
H688 C696 0.929 . S
H689 C698 0.930 . S
H690 C700 0.930 . S
H691 C703 0.929 . S
H692 C706 0.930 . S
H693 C708 0.960 . S
H694 C708 0.960 . S
H695 C708 0.960 . S
C696 H688 0.929 . S
C696 C697 1.377 . S
C696 C698 1.384 . S
C697 C696 1.377 . S
C697 C703 1.390 . S
C698 H689 0.930 . S
C698 C696 1.384 . S
C698 C699 1.372 . S
C699 C698 1.372 . S
C699 C700 1.400 . S
C699 C704 1.490 . S
C700 H690 0.930 . S
C700 C699 1.400 . S
C700 C703 1.386 . S
H701 C717 0.930 . S
H702 C718 0.931 . S
C703 H691 0.929 . S
C703 C697 1.390 . S
C703 C700 1.386 . S
C704 C699 1.490 . S
C704 C706 1.395 . S
C704 C707 1.403 . S
H705 C711 0.930 . S
C706 H692 0.930 . S
C706 C704 1.395 . S
C706 C709 1.403 . S
C707 C704 1.403 . S
C707 C708 1.524 . S
C707 C711 1.400 . S
C708 H693 0.960 . S
C708 H694 0.960 . S
C708 H695 0.960 . S
C708 C707 1.524 . S
C709 C706 1.403 . S
C709 C710 1.392 . S
C709 C713 1.495 . S
C710 C709 1.392 . S
C710 C711 1.385 . S
C710 C712 1.478 . S
C711 H705 0.930 . S
C711 C707 1.400 . S
C711 C710 1.385 . S
C712 C710 1.478 . S
C712 C714 1.381 . S
C712 C718 1.383 . S
C713 C709 1.495 . S
C713 H719 0.959 . S
C713 H720 0.961 . S
C713 H721 0.960 . S
C714 C712 1.381 . S
C714 C715 1.394 . S
C714 H722 0.930 . S
C715 C714 1.394 . S
C715 C716 1.383 . S
C715 H723 0.922 1_545 S
C716 C715 1.383 . S
C716 C717 1.377 . S
C717 H701 0.930 . S
C717 C716 1.377 . S
C717 C718 1.379 . S
C718 H702 0.931 . S
C718 C712 1.383 . S
C718 C717 1.379 . S
H719 C713 0.959 . S
H720 C713 0.961 . S
H721 C713 0.960 . S
H722 C714 0.930 . S
H723 C715 0.922 1_565 S
H724 C732 0.929 . S
H725 C734 0.930 . S
H726 C736 0.930 . S
H727 C739 0.929 . S
H728 C742 0.930 . S
H729 C744 0.960 . S
H730 C744 0.960 . S
H731 C744 0.960 . S
C732 H724 0.929 . S
C732 C733 1.377 . S
C732 C734 1.384 . S
C733 C732 1.377 . S
C733 C739 1.390 . S
C734 H725 0.930 . S
C734 C732 1.384 . S
C734 C735 1.372 . S
C735 C734 1.372 . S
C735 C736 1.400 . S
C735 C740 1.490 . S
C736 H726 0.930 . S
C736 C735 1.400 . S
C736 C739 1.386 . S
H737 C753 0.930 . S
H738 C754 0.931 . S
C739 H727 0.929 . S
C739 C733 1.390 . S
C739 C736 1.386 . S
C740 C735 1.490 . S
C740 C742 1.395 . S
C740 C743 1.403 . S
H741 C747 0.930 . S
C742 H728 0.930 . S
C742 C740 1.395 . S
C742 C745 1.403 . S
C743 C740 1.403 . S
C743 C744 1.524 . S
C743 C747 1.400 . S
C744 H729 0.960 . S
C744 H730 0.960 . S
C744 H731 0.960 . S
C744 C743 1.524 . S
C745 C742 1.403 . S
C745 C746 1.392 . S
C745 C749 1.495 . S
C746 C745 1.392 . S
C746 C747 1.385 . S
C746 C748 1.478 . S
C747 H741 0.930 . S
C747 C743 1.400 . S
C747 C746 1.385 . S
C748 C746 1.478 . S
C748 C750 1.381 . S
C748 C754 1.383 . S
C749 C745 1.495 . S
C749 H755 0.959 . S
C749 H756 0.961 . S
C749 H757 0.960 . S
C750 C748 1.381 . S
C750 C751 1.394 . S
C750 H758 0.930 . S
C751 C750 1.394 . S
C751 C752 1.383 . S
C751 H759 0.929 . S
C752 C751 1.383 . S
C752 C753 1.377 . S
C753 H737 0.930 . S
C753 C752 1.377 . S
C753 C754 1.379 . S
C754 H738 0.931 . S
C754 C748 1.383 . S
C754 C753 1.379 . S
H755 C749 0.959 . S
H756 C749 0.961 . S
H757 C749 0.960 . S
H758 C750 0.930 . S
H759 C751 0.929 . S
H760 C768 0.929 . S
H761 C770 0.930 . S
H762 C772 0.930 . S
H763 C775 0.929 . S
H764 C778 0.930 . S
H765 C780 0.960 . S
H766 C780 0.960 . S
H767 C780 0.960 . S
C768 H760 0.929 . S
C768 C769 1.377 . S
C768 C770 1.384 . S
C769 C768 1.377 . S
C769 C775 1.390 . S
C770 H761 0.930 . S
C770 C768 1.384 . S
C770 C771 1.372 . S
C771 C770 1.372 . S
C771 C772 1.400 . S
C771 C776 1.490 . S
C772 H762 0.930 . S
C772 C771 1.400 . S
C772 C775 1.386 . S
H773 C789 0.930 . S
H774 C790 0.931 . S
C775 H763 0.929 . S
C775 C769 1.390 . S
C775 C772 1.386 . S
C776 C771 1.490 . S
C776 C778 1.395 . S
C776 C779 1.403 . S
H777 C783 0.930 . S
C778 H764 0.930 . S
C778 C776 1.395 . S
C778 C781 1.403 . S
C779 C776 1.403 . S
C779 C780 1.524 . S
C779 C783 1.400 . S
C780 H765 0.960 . S
C780 H766 0.960 . S
C780 H767 0.960 . S
C780 C779 1.524 . S
C781 C778 1.403 . S
C781 C782 1.392 . S
C781 C785 1.495 . S
C782 C781 1.392 . S
C782 C783 1.385 . S
C782 C784 1.478 . S
C783 H777 0.930 . S
C783 C779 1.400 . S
C783 C782 1.385 . S
C784 C782 1.478 . S
C784 C786 1.381 . S
C784 C790 1.383 . S
C785 C781 1.495 . S
C785 H791 0.959 . S
C785 H792 0.961 . S
C785 H793 0.960 . S
C786 C784 1.381 . S
C786 C787 1.394 . S
C786 H794 0.930 . S
C787 C786 1.394 . S
C787 C788 1.383 . S
C787 H795 0.929 . S
C788 C787 1.383 . S
C788 C789 1.377 . S
C789 H773 0.930 . S
C789 C788 1.377 . S
C789 C790 1.379 . S
C790 H774 0.931 . S
C790 C784 1.383 . S
C790 C789 1.379 . S
H791 C785 0.959 . S
H792 C785 0.961 . S
H793 C785 0.960 . S
H794 C786 0.930 . S
H795 C787 0.929 . S
H796 C804 0.929 . S
H797 C806 0.930 . S
H798 C808 0.930 . S
H799 C811 0.929 . S
H800 C814 0.930 . S
H801 C816 0.960 . S
H802 C816 0.960 . S
H803 C816 0.960 . S
C804 H796 0.929 . S
C804 C805 1.377 . S
C804 C806 1.384 . S
C805 C804 1.377 . S
C805 C811 1.390 . S
C806 H797 0.930 . S
C806 C804 1.384 . S
C806 C807 1.372 . S
C807 C806 1.372 . S
C807 C808 1.400 . S
C807 C812 1.490 . S
C808 H798 0.930 . S
C808 C807 1.400 . S
C808 C811 1.386 . S
H809 C825 0.930 . S
H810 C826 0.931 . S
C811 H799 0.929 . S
C811 C805 1.390 . S
C811 C808 1.386 . S
C812 C807 1.490 . S
C812 C814 1.395 . S
C812 C815 1.403 . S
H813 C819 0.930 . S
C814 H800 0.930 . S
C814 C812 1.395 . S
C814 C817 1.403 . S
C815 C812 1.403 . S
C815 C816 1.524 . S
C815 C819 1.400 . S
C816 H801 0.960 . S
C816 H802 0.960 . S
C816 H803 0.960 . S
C816 C815 1.524 . S
C817 C814 1.403 . S
C817 C818 1.392 . S
C817 C821 1.495 . S
C818 C817 1.392 . S
C818 C819 1.385 . S
C818 C820 1.478 . S
C819 H813 0.930 . S
C819 C815 1.400 . S
C819 C818 1.385 . S
C820 C818 1.478 . S
C820 C822 1.381 . S
C820 C826 1.383 . S
C821 C817 1.495 . S
C821 H827 0.959 . S
C821 H828 0.961 . S
C821 H829 0.960 . S
C822 C820 1.381 . S
C822 C823 1.394 . S
C822 H830 0.930 . S
C823 C822 1.394 . S
C823 C824 1.383 . S
C823 H831 0.929 . S
C824 C823 1.383 . S
C824 C825 1.377 . S
C825 H809 0.930 . S
C825 C824 1.377 . S
C825 C826 1.379 . S
C826 H810 0.931 . S
C826 C820 1.383 . S
C826 C825 1.379 . S
H827 C821 0.959 . S
H828 C821 0.961 . S
H829 C821 0.960 . S
H830 C822 0.930 . S
H831 C823 0.929 . S
H832 C840 0.929 . S
H833 C842 0.930 . S
H834 C844 0.930 . S
H835 C847 0.929 . S
H836 C850 0.930 . S
H837 C852 0.960 . S
H838 C852 0.960 . S
H839 C852 0.960 . S
C840 H832 0.929 . S
C840 C841 1.377 . S
C840 C842 1.384 . S
C841 C840 1.377 . S
C841 C847 1.390 . S
C842 H833 0.930 . S
C842 C840 1.384 . S
C842 C843 1.372 . S
C843 C842 1.372 . S
C843 C844 1.400 . S
C843 C848 1.490 . S
C844 H834 0.930 . S
C844 C843 1.400 . S
C844 C847 1.386 . S
H845 C861 0.930 . S
H846 C862 0.931 . S
C847 H835 0.929 . S
C847 C841 1.390 . S
C847 C844 1.386 . S
C848 C843 1.490 . S
C848 C850 1.395 . S
C848 C851 1.403 . S
H849 C855 0.930 . S
C850 H836 0.930 . S
C850 C848 1.395 . S
C850 C853 1.403 . S
C851 C848 1.403 . S
C851 C852 1.524 . S
C851 C855 1.400 . S
C852 H837 0.960 . S
C852 H838 0.960 . S
C852 H839 0.960 . S
C852 C851 1.524 . S
C853 C850 1.403 . S
C853 C854 1.392 . S
C853 C857 1.495 . S
C854 C853 1.392 . S
C854 C855 1.385 . S
C854 C856 1.478 . S
C855 H849 0.930 . S
C855 C851 1.400 . S
C855 C854 1.385 . S
C856 C854 1.478 . S
C856 C858 1.381 . S
C856 C862 1.383 . S
C857 C853 1.495 . S
C857 H863 0.959 . S
C857 H864 0.961 . S
C857 H865 0.960 . S
C858 C856 1.381 . S
C858 C859 1.394 . S
C858 H866 0.930 . S
C859 C858 1.394 . S
C859 C860 1.383 . S
C859 H867 0.929 . S
C860 C859 1.383 . S
C860 C861 1.377 . S
C861 H845 0.930 . S
C861 C860 1.377 . S
C861 C862 1.379 . S
C862 H846 0.931 . S
C862 C856 1.383 . S
C862 C861 1.379 . S
H863 C857 0.959 . S
H864 C857 0.961 . S
H865 C857 0.960 . S
H866 C858 0.930 . S
H867 C859 0.929 . S
H868 C876 0.929 . S
H869 C878 0.930 . S
H870 C880 0.930 . S
H871 C883 0.929 . S
H872 C886 0.930 . S
H873 C888 0.960 . S
H874 C888 0.960 . S
H875 C888 0.960 . S
C876 H868 0.929 . S
C876 C877 1.377 . S
C876 C878 1.384 . S
C877 C876 1.377 . S
C877 C883 1.390 . S
C878 H869 0.930 . S
C878 C876 1.384 . S
C878 C879 1.372 . S
C879 C878 1.372 . S
C879 C880 1.400 . S
C879 C884 1.490 . S
C880 H870 0.930 . S
C880 C879 1.400 . S
C880 C883 1.386 . S
H881 C897 0.930 . S
H882 C898 0.931 . S
C883 H871 0.929 . S
C883 C877 1.390 . S
C883 C880 1.386 . S
C884 C879 1.490 . S
C884 C886 1.395 . S
C884 C887 1.403 . S
H885 C891 0.930 . S
C886 H872 0.930 . S
C886 C884 1.395 . S
C886 C889 1.403 . S
C887 C884 1.403 . S
C887 C888 1.524 . S
C887 C891 1.400 . S
C888 H873 0.960 . S
C888 H874 0.960 . S
C888 H875 0.960 . S
C888 C887 1.524 . S
C889 C886 1.403 . S
C889 C890 1.392 . S
C889 C893 1.495 . S
C890 C889 1.392 . S
C890 C891 1.385 . S
C890 C892 1.478 . S
C891 H885 0.930 . S
C891 C887 1.400 . S
C891 C890 1.385 . S
C892 C890 1.478 . S
C892 C894 1.381 . S
C892 C898 1.383 . S
C893 C889 1.495 . S
C893 H899 0.959 . S
C893 H900 0.961 . S
C893 H901 0.960 . S
C894 C892 1.381 . S
C894 C895 1.394 . S
C894 H902 0.930 . S
C895 C894 1.394 . S
C895 C896 1.383 . S
C895 H903 0.929 . S
C896 C895 1.383 . S
C896 C897 1.377 . S
C897 H881 0.930 . S
C897 C896 1.377 . S
C897 C898 1.379 . S
C898 H882 0.931 . S
C898 C892 1.383 . S
C898 C897 1.379 . S
H899 C893 0.959 . S
H900 C893 0.961 . S
H901 C893 0.960 . S
H902 C894 0.930 . S
H903 C895 0.929 . S
H904 C912 0.929 . S
H905 C914 0.930 . S
H906 C916 0.930 . S
H907 C919 0.929 . S
H908 C922 0.930 . S
H909 C924 0.960 . S
H910 C924 0.960 . S
H911 C924 0.960 . S
C912 H904 0.929 . S
C912 C913 1.377 . S
C912 C914 1.384 . S
C913 C912 1.377 . S
C913 C919 1.390 . S
C914 H905 0.930 . S
C914 C912 1.384 . S
C914 C915 1.372 . S
C915 C914 1.372 . S
C915 C916 1.400 . S
C915 C920 1.490 . S
C916 H906 0.930 . S
C916 C915 1.400 . S
C916 C919 1.386 . S
H917 C933 0.930 . S
H918 C934 0.931 . S
C919 H907 0.929 . S
C919 C913 1.390 . S
C919 C916 1.386 . S
C920 C915 1.490 . S
C920 C922 1.395 . S
C920 C923 1.403 . S
H921 C927 0.930 . S
C922 H908 0.930 . S
C922 C920 1.395 . S
C922 C925 1.403 . S
C923 C920 1.403 . S
C923 C924 1.524 . S
C923 C927 1.400 . S
C924 H909 0.960 . S
C924 H910 0.960 . S
C924 H911 0.960 . S
C924 C923 1.524 . S
C925 C922 1.403 . S
C925 C926 1.392 . S
C925 C929 1.495 . S
C926 C925 1.392 . S
C926 C927 1.385 . S
C926 C928 1.478 . S
C927 H921 0.930 . S
C927 C923 1.400 . S
C927 C926 1.385 . S
C928 C926 1.478 . S
C928 C930 1.381 . S
C928 C934 1.383 . S
C929 C925 1.495 . S
C929 H935 0.959 . S
C929 H936 0.961 . S
C929 H937 0.960 . S
C930 C928 1.381 . S
C930 C931 1.394 . S
C930 H938 0.930 . S
C931 C930 1.394 . S
C931 C932 1.383 . S
C931 H939 0.929 . S
C932 C931 1.383 . S
C932 C933 1.377 . S
C933 H917 0.930 . S
C933 C932 1.377 . S
C933 C934 1.379 . S
C934 H918 0.931 . S
C934 C928 1.383 . S
C934 C933 1.379 . S
H935 C929 0.959 . S
H936 C929 0.961 . S
H937 C929 0.960 . S
H938 C930 0.930 . S
H939 C931 0.929 . S
H940 C948 0.929 . S
H941 C950 0.930 . S
H942 C952 0.930 . S
H943 C955 0.929 . S
H944 C958 0.930 . S
H945 C960 0.960 . S
H946 C960 0.960 . S
H947 C960 0.960 . S
C948 H940 0.929 . S
C948 C949 1.377 . S
C948 C950 1.384 . S
C949 C948 1.377 . S
C949 C955 1.390 . S
C950 H941 0.930 . S
C950 C948 1.384 . S
C950 C951 1.372 . S
C951 C950 1.372 . S
C951 C952 1.400 . S
C951 C956 1.490 . S
C952 H942 0.930 . S
C952 C951 1.400 . S
C952 C955 1.386 . S
H953 C969 0.930 . S
H954 C970 0.931 . S
C955 H943 0.929 . S
C955 C949 1.390 . S
C955 C952 1.386 . S
C956 C951 1.490 . S
C956 C958 1.395 . S
C956 C959 1.403 . S
H957 C963 0.930 . S
C958 H944 0.930 . S
C958 C956 1.395 . S
C958 C961 1.403 . S
C959 C956 1.403 . S
C959 C960 1.524 . S
C959 C963 1.400 . S
C960 H945 0.960 . S
C960 H946 0.960 . S
C960 H947 0.960 . S
C960 C959 1.524 . S
C961 C958 1.403 . S
C961 C962 1.392 . S
C961 C965 1.495 . S
C962 C961 1.392 . S
C962 C963 1.385 . S
C962 C964 1.478 . S
C963 H957 0.930 . S
C963 C959 1.400 . S
C963 C962 1.385 . S
C964 C962 1.478 . S
C964 C966 1.381 . S
C964 C970 1.383 . S
C965 C961 1.495 . S
C965 H971 0.959 . S
C965 H972 0.961 . S
C965 H973 0.960 . S
C966 C964 1.381 . S
C966 C967 1.394 . S
C966 H974 0.930 . S
C967 C966 1.394 . S
C967 C968 1.383 . S
C967 H975 0.929 . S
C968 C967 1.383 . S
C968 C969 1.377 . S
C969 H953 0.930 . S
C969 C968 1.377 . S
C969 C970 1.379 . S
C970 H954 0.931 . S
C970 C964 1.383 . S
C970 C969 1.379 . S
H971 C965 0.959 . S
H972 C965 0.961 . S
H973 C965 0.960 . S
H974 C966 0.930 . S
H975 C967 0.929 . S
H976 C984 0.929 . S
H977 C986 0.930 . S
H978 C988 0.930 . S
H979 C991 0.929 . S
H980 C994 0.930 . S
H981 C996 0.960 . S
H982 C996 0.960 . S
H983 C996 0.960 . S
C984 H976 0.929 . S
C984 C985 1.377 . S
C984 C986 1.384 . S
C985 C984 1.377 . S
C985 C991 1.390 . S
C986 H977 0.930 . S
C986 C984 1.384 . S
C986 C987 1.372 . S
C987 C986 1.372 . S
C987 C988 1.400 . S
C987 C992 1.490 . S
C988 H978 0.930 . S
C988 C987 1.400 . S
C988 C991 1.386 . S
H989 C1005 0.930 . S
H990 C1006 0.931 . S
C991 H979 0.929 . S
C991 C985 1.390 . S
C991 C988 1.386 . S
C992 C987 1.490 . S
C992 C994 1.395 . S
C992 C995 1.403 . S
H993 C999 0.930 . S
C994 H980 0.930 . S
C994 C992 1.395 . S
C994 C997 1.403 . S
C995 C992 1.403 . S
C995 C996 1.524 . S
C995 C999 1.400 . S
C996 H981 0.960 . S
C996 H982 0.960 . S
C996 H983 0.960 . S
C996 C995 1.524 . S
C997 C994 1.403 . S
C997 C998 1.392 . S
C997 C1001 1.495 . S
C998 C997 1.392 . S
C998 C999 1.385 . S
C998 C1000 1.478 . S
C999 H993 0.930 . S
C999 C995 1.400 . S
C999 C998 1.385 . S
C1000 C998 1.478 . S
C1000 C1002 1.381 . S
C1000 C1006 1.383 . S
C1001 C997 1.495 . S
C1001 H1007 0.959 . S
C1001 H1008 0.961 . S
C1001 H1009 0.960 . S
C1002 C1000 1.381 . S
C1002 C1003 1.394 . S
C1002 H1010 0.930 . S
C1003 C1002 1.394 . S
C1003 C1004 1.383 . S
C1003 H1011 0.929 . S
C1004 C1003 1.383 . S
C1004 C1005 1.377 . S
C1005 H989 0.930 . S
C1005 C1004 1.377 . S
C1005 C1006 1.379 . S
C1006 H990 0.931 . S
C1006 C1000 1.383 . S
C1006 C1005 1.379 . S
H1007 C1001 0.959 . S
H1008 C1001 0.961 . S
H1009 C1001 0.960 . S
H1010 C1002 0.930 . S
H1011 C1003 0.929 . S
H1012 C1020 0.929 . S
H1013 C1022 0.930 . S
H1014 C1024 0.930 . S
H1015 C1027 0.929 . S
H1016 C1030 0.930 . S
H1017 C1032 0.960 . S
H1018 C1032 0.960 . S
H1019 C1032 0.960 . S
C1020 H1012 0.929 . S
C1020 C1021 1.377 . S
C1020 C1022 1.384 . S
C1021 C1020 1.377 . S
C1021 C1027 1.390 . S
C1022 H1013 0.930 . S
C1022 C1020 1.384 . S
C1022 C1023 1.372 . S
C1023 C1022 1.372 . S
C1023 C1024 1.400 . S
C1023 C1028 1.490 . S
C1024 H1014 0.930 . S
C1024 C1023 1.400 . S
C1024 C1027 1.386 . S
H1025 C1041 0.930 . S
H1026 C1042 0.931 . S
C1027 H1015 0.929 . S
C1027 C1021 1.390 . S
C1027 C1024 1.386 . S
C1028 C1023 1.490 . S
C1028 C1030 1.395 . S
C1028 C1031 1.403 . S
H1029 C1035 0.930 . S
C1030 H1016 0.930 . S
C1030 C1028 1.395 . S
C1030 C1033 1.403 . S
C1031 C1028 1.403 . S
C1031 C1032 1.524 . S
C1031 C1035 1.400 . S
C1032 H1017 0.960 . S
C1032 H1018 0.960 . S
C1032 H1019 0.960 . S
C1032 C1031 1.524 . S
C1033 C1030 1.403 . S
C1033 C1034 1.392 . S
C1033 C1037 1.495 . S
C1034 C1033 1.392 . S
C1034 C1035 1.385 . S
C1034 C1036 1.478 . S
C1035 H1029 0.930 . S
C1035 C1031 1.400 . S
C1035 C1034 1.385 . S
C1036 C1034 1.478 . S
C1036 C1038 1.381 . S
C1036 C1042 1.383 . S
C1037 C1033 1.495 . S
C1037 H1043 0.959 . S
C1037 H1044 0.961 . S
C1037 H1045 0.960 . S
C1038 C1036 1.381 . S
C1038 C1039 1.394 . S
C1038 H1046 0.930 . S
C1039 C1038 1.394 . S
C1039 C1040 1.383 . S
C1039 H1047 0.929 . S
C1040 C1039 1.383 . S
C1040 C1041 1.377 . S
C1041 H1025 0.930 . S
C1041 C1040 1.377 . S
C1041 C1042 1.379 . S
C1042 H1026 0.931 . S
C1042 C1036 1.383 . S
C1042 C1041 1.379 . S
H1043 C1037 0.959 . S
H1044 C1037 0.961 . S
H1045 C1037 0.960 . S
H1046 C1038 0.930 . S
H1047 C1039 0.929 . S
H1048 C1056 0.929 . S
H1049 C1058 0.930 . S
H1050 C1060 0.930 . S
H1051 C1063 0.929 . S
H1052 C1066 0.930 . S
H1053 C1068 0.960 . S
H1054 C1068 0.960 . S
H1055 C1068 0.960 . S
C1056 H1048 0.929 . S
C1056 C1057 1.377 . S
C1056 C1058 1.384 . S
C1057 C1056 1.377 . S
C1057 C1063 1.390 . S
C1058 H1049 0.930 . S
C1058 C1056 1.384 . S
C1058 C1059 1.372 . S
C1059 C1058 1.372 . S
C1059 C1060 1.400 . S
C1059 C1064 1.490 . S
C1060 H1050 0.930 . S
C1060 C1059 1.400 . S
C1060 C1063 1.386 . S
H1061 C1077 0.930 . S
H1062 C1078 0.931 . S
C1063 H1051 0.929 . S
C1063 C1057 1.390 . S
C1063 C1060 1.386 . S
C1064 C1059 1.490 . S
C1064 C1066 1.395 . S
C1064 C1067 1.403 . S
H1065 C1071 0.930 . S
C1066 H1052 0.930 . S
C1066 C1064 1.395 . S
C1066 C1069 1.403 . S
C1067 C1064 1.403 . S
C1067 C1068 1.524 . S
C1067 C1071 1.400 . S
C1068 H1053 0.960 . S
C1068 H1054 0.960 . S
C1068 H1055 0.960 . S
C1068 C1067 1.524 . S
C1069 C1066 1.403 . S
C1069 C1070 1.392 . S
C1069 C1073 1.495 . S
C1070 C1069 1.392 . S
C1070 C1071 1.385 . S
C1070 C1072 1.478 . S
C1071 H1065 0.930 . S
C1071 C1067 1.400 . S
C1071 C1070 1.385 . S
C1072 C1070 1.478 . S
C1072 C1074 1.381 . S
C1072 C1078 1.383 . S
C1073 C1069 1.495 . S
C1073 H1079 0.959 . S
C1073 H1080 0.961 . S
C1073 H1081 0.960 . S
C1074 C1072 1.381 . S
C1074 C1075 1.394 . S
C1074 H1082 0.930 . S
C1075 C1074 1.394 . S
C1075 C1076 1.383 . S
C1075 H1083 0.929 . S
C1076 C1075 1.383 . S
C1076 C1077 1.377 . S
C1077 H1061 0.930 . S
C1077 C1076 1.377 . S
C1077 C1078 1.379 . S
C1078 H1062 0.931 . S
C1078 C1072 1.383 . S
C1078 C1077 1.379 . S
H1079 C1073 0.959 . S
H1080 C1073 0.961 . S
H1081 C1073 0.960 . S
H1082 C1074 0.930 . S
H1083 C1075 0.929 . S
H1084 C1092 0.929 . S
H1085 C1094 0.930 . S
H1086 C1096 0.930 . S
H1087 C1099 0.929 . S
H1088 C1102 0.930 . S
H1089 C1104 0.960 . S
H1090 C1104 0.960 . S
H1091 C1104 0.960 . S
C1092 H1084 0.929 . S
C1092 C1093 1.377 . S
C1092 C1094 1.384 . S
C1093 C1092 1.377 . S
C1093 C1099 1.390 . S
C1094 H1085 0.930 . S
C1094 C1092 1.384 . S
C1094 C1095 1.372 . S
C1095 C1094 1.372 . S
C1095 C1096 1.400 . S
C1095 C1100 1.490 . S
C1096 H1086 0.930 . S
C1096 C1095 1.400 . S
C1096 C1099 1.386 . S
H1097 C1113 0.930 . S
H1098 C1114 0.931 . S
C1099 H1087 0.929 . S
C1099 C1093 1.390 . S
C1099 C1096 1.386 . S
C1100 C1095 1.490 . S
C1100 C1102 1.395 . S
C1100 C1103 1.403 . S
H1101 C1107 0.930 . S
C1102 H1088 0.930 . S
C1102 C1100 1.395 . S
C1102 C1105 1.403 . S
C1103 C1100 1.403 . S
C1103 C1104 1.524 . S
C1103 C1107 1.400 . S
C1104 H1089 0.960 . S
C1104 H1090 0.960 . S
C1104 H1091 0.960 . S
C1104 C1103 1.524 . S
C1105 C1102 1.403 . S
C1105 C1106 1.392 . S
C1105 C1109 1.495 . S
C1106 C1105 1.392 . S
C1106 C1107 1.385 . S
C1106 C1108 1.478 . S
C1107 H1101 0.930 . S
C1107 C1103 1.400 . S
C1107 C1106 1.385 . S
C1108 C1106 1.478 . S
C1108 C1110 1.381 . S
C1108 C1114 1.383 . S
C1109 C1105 1.495 . S
C1109 H1115 0.959 . S
C1109 H1116 0.961 . S
C1109 H1117 0.960 . S
C1110 C1108 1.381 . S
C1110 C1111 1.394 . S
C1110 H1118 0.930 . S
C1111 C1110 1.394 . S
C1111 C1112 1.383 . S
C1111 H1119 0.929 . S
C1112 C1111 1.383 . S
C1112 C1113 1.377 . S
C1113 H1097 0.930 . S
C1113 C1112 1.377 . S
C1113 C1114 1.379 . S
C1114 H1098 0.931 . S
C1114 C1108 1.383 . S
C1114 C1113 1.379 . S
H1115 C1109 0.959 . S
H1116 C1109 0.961 . S
H1117 C1109 0.960 . S
H1118 C1110 0.930 . S
H1119 C1111 0.929 . S
H1120 C1128 0.929 . S
H1121 C1130 0.930 . S
H1122 C1132 0.930 . S
H1123 C1135 0.929 . S
H1124 C1138 0.930 . S
H1125 C1140 0.960 . S
H1126 C1140 0.960 . S
H1127 C1140 0.960 . S
C1128 H1120 0.929 . S
C1128 C1129 1.377 . S
C1128 C1130 1.384 . S
C1129 C1128 1.377 . S
C1129 C1135 1.390 . S
C1130 H1121 0.930 . S
C1130 C1128 1.384 . S
C1130 C1131 1.372 . S
C1131 C1130 1.372 . S
C1131 C1132 1.400 . S
C1131 C1136 1.490 . S
C1132 H1122 0.930 . S
C1132 C1131 1.400 . S
C1132 C1135 1.386 . S
H1133 C1149 0.930 . S
H1134 C1150 0.931 . S
C1135 H1123 0.929 . S
C1135 C1129 1.390 . S
C1135 C1132 1.386 . S
C1136 C1131 1.490 . S
C1136 C1138 1.395 . S
C1136 C1139 1.403 . S
H1137 C1143 0.930 . S
C1138 H1124 0.930 . S
C1138 C1136 1.395 . S
C1138 C1141 1.403 . S
C1139 C1136 1.403 . S
C1139 C1140 1.524 . S
C1139 C1143 1.400 . S
C1140 H1125 0.960 . S
C1140 H1126 0.960 . S
C1140 H1127 0.960 . S
C1140 C1139 1.524 . S
C1141 C1138 1.403 . S
C1141 C1142 1.392 . S
C1141 C1145 1.495 . S
C1142 C1141 1.392 . S
C1142 C1143 1.385 . S
C1142 C1144 1.478 . S
C1143 H1137 0.930 . S
C1143 C1139 1.400 . S
C1143 C1142 1.385 . S
C1144 C1142 1.478 . S
C1144 C1146 1.381 . S
C1144 C1150 1.383 . S
C1145 C1141 1.495 . S
C1145 H1151 0.959 . S
C1145 H1152 0.961 . S
C1145 H1153 0.960 . S
C1146 C1144 1.381 . S
C1146 C1147 1.394 . S
C1146 H1154 0.930 . S
C1147 C1146 1.394 . S
C1147 C1148 1.383 . S
C1147 H1155 0.929 . S
C1148 C1147 1.383 . S
C1148 C1149 1.377 . S
C1149 H1133 0.930 . S
C1149 C1148 1.377 . S
C1149 C1150 1.379 . S
C1150 H1134 0.931 . S
C1150 C1144 1.383 . S
C1150 C1149 1.379 . S
H1151 C1145 0.959 . S
H1152 C1145 0.961 . S
H1153 C1145 0.960 . S
H1154 C1146 0.930 . S
H1155 C1147 0.929 . S
H1156 C1164 0.929 . S
H1157 C1166 0.930 . S
H1158 C1168 0.930 . S
H1159 C1171 0.929 . S
H1160 C1174 0.930 . S
H1161 C1176 0.960 . S
H1162 C1176 0.960 . S
H1163 C1176 0.960 . S
C1164 H1156 0.929 . S
C1164 C1165 1.377 . S
C1164 C1166 1.384 . S
C1165 C1164 1.377 . S
C1165 C1171 1.390 . S
C1166 H1157 0.930 . S
C1166 C1164 1.384 . S
C1166 C1167 1.372 . S
C1167 C1166 1.372 . S
C1167 C1168 1.400 . S
C1167 C1172 1.490 . S
C1168 H1158 0.930 . S
C1168 C1167 1.400 . S
C1168 C1171 1.386 . S
H1169 C1185 0.930 . S
H1170 C1186 0.931 . S
C1171 H1159 0.929 . S
C1171 C1165 1.390 . S
C1171 C1168 1.386 . S
C1172 C1167 1.490 . S
C1172 C1174 1.395 . S
C1172 C1175 1.403 . S
H1173 C1179 0.930 . S
C1174 H1160 0.930 . S
C1174 C1172 1.395 . S
C1174 C1177 1.403 . S
C1175 C1172 1.403 . S
C1175 C1176 1.524 . S
C1175 C1179 1.400 . S
C1176 H1161 0.960 . S
C1176 H1162 0.960 . S
C1176 H1163 0.960 . S
C1176 C1175 1.524 . S
C1177 C1174 1.403 . S
C1177 C1178 1.392 . S
C1177 C1181 1.495 . S
C1178 C1177 1.392 . S
C1178 C1179 1.385 . S
C1178 C1180 1.478 . S
C1179 H1173 0.930 . S
C1179 C1175 1.400 . S
C1179 C1178 1.385 . S
C1180 C1178 1.478 . S
C1180 C1182 1.381 . S
C1180 C1186 1.383 . S
C1181 C1177 1.495 . S
C1181 H1187 0.959 . S
C1181 H1188 0.961 . S
C1181 H1189 0.960 . S
C1182 C1180 1.381 . S
C1182 C1183 1.394 . S
C1182 H1190 0.930 . S
C1183 C1182 1.394 . S
C1183 C1184 1.383 . S
C1183 H1191 0.929 . S
C1184 C1183 1.383 . S
C1184 C1185 1.377 . S
C1185 H1169 0.930 . S
C1185 C1184 1.377 . S
C1185 C1186 1.379 . S
C1186 H1170 0.931 . S
C1186 C1180 1.383 . S
C1186 C1185 1.379 . S
H1187 C1181 0.959 . S
H1188 C1181 0.961 . S
H1189 C1181 0.960 . S
H1190 C1182 0.930 . S
H1191 C1183 0.929 . S
H1192 C1200 0.929 . S
H1193 C1202 0.930 . S
H1194 C1204 0.930 . S
H1195 C1207 0.929 . S
H1196 C1210 0.930 . S
H1197 C1212 0.960 . S
H1198 C1212 0.960 . S
H1199 C1212 0.960 . S
C1200 H1192 0.929 . S
C1200 C1201 1.377 . S
C1200 C1202 1.384 . S
C1201 C1200 1.377 . S
C1201 C1207 1.390 . S
C1202 H1193 0.930 . S
C1202 C1200 1.384 . S
C1202 C1203 1.372 . S
C1203 C1202 1.372 . S
C1203 C1204 1.400 . S
C1203 C1208 1.490 . S
C1204 H1194 0.930 . S
C1204 C1203 1.400 . S
C1204 C1207 1.386 . S
H1205 C1221 0.930 . S
H1206 C1222 0.931 . S
C1207 H1195 0.929 . S
C1207 C1201 1.390 . S
C1207 C1204 1.386 . S
C1208 C1203 1.490 . S
C1208 C1210 1.395 . S
C1208 C1211 1.403 . S
H1209 C1215 0.930 . S
C1210 H1196 0.930 . S
C1210 C1208 1.395 . S
C1210 C1213 1.403 . S
C1211 C1208 1.403 . S
C1211 C1212 1.524 . S
C1211 C1215 1.400 . S
C1212 H1197 0.960 . S
C1212 H1198 0.960 . S
C1212 H1199 0.960 . S
C1212 C1211 1.524 . S
C1213 C1210 1.403 . S
C1213 C1214 1.392 . S
C1213 C1217 1.495 . S
C1214 C1213 1.392 . S
C1214 C1215 1.385 . S
C1214 C1216 1.478 . S
C1215 H1209 0.930 . S
C1215 C1211 1.400 . S
C1215 C1214 1.385 . S
C1216 C1214 1.478 . S
C1216 C1218 1.381 . S
C1216 C1222 1.383 . S
C1217 C1213 1.495 . S
C1217 H1223 0.959 . S
C1217 H1224 0.961 . S
C1217 H1225 0.960 . S
C1218 C1216 1.381 . S
C1218 C1219 1.394 . S
C1218 H1226 0.930 . S
C1219 C1218 1.394 . S
C1219 C1220 1.383 . S
C1219 H1227 0.929 . S
C1220 C1219 1.383 . S
C1220 C1221 1.377 . S
C1221 H1205 0.930 . S
C1221 C1220 1.377 . S
C1221 C1222 1.379 . S
C1222 H1206 0.931 . S
C1222 C1216 1.383 . S
C1222 C1221 1.379 . S
H1223 C1217 0.959 . S
H1224 C1217 0.961 . S
H1225 C1217 0.960 . S
H1226 C1218 0.930 . S
H1227 C1219 0.929 . S
H1228 C1236 0.929 . S
H1229 C1238 0.930 . S
H1230 C1240 0.930 . S
H1231 C1243 0.929 . S
H1232 C1246 0.930 . S
H1233 C1248 0.960 . S
H1234 C1248 0.960 . S
H1235 C1248 0.960 . S
C1236 H1228 0.929 . S
C1236 C1237 1.377 . S
C1236 C1238 1.384 . S
C1237 C1236 1.377 . S
C1237 C1243 1.390 . S
C1238 H1229 0.930 . S
C1238 C1236 1.384 . S
C1238 C1239 1.372 . S
C1239 C1238 1.372 . S
C1239 C1240 1.400 . S
C1239 C1244 1.490 . S
C1240 H1230 0.930 . S
C1240 C1239 1.400 . S
C1240 C1243 1.386 . S
H1241 C1257 0.930 . S
H1242 C1258 0.931 . S
C1243 H1231 0.929 . S
C1243 C1237 1.390 . S
C1243 C1240 1.386 . S
C1244 C1239 1.490 . S
C1244 C1246 1.395 . S
C1244 C1247 1.403 . S
H1245 C1251 0.930 . S
C1246 H1232 0.930 . S
C1246 C1244 1.395 . S
C1246 C1249 1.403 . S
C1247 C1244 1.403 . S
C1247 C1248 1.524 . S
C1247 C1251 1.400 . S
C1248 H1233 0.960 . S
C1248 H1234 0.960 . S
C1248 H1235 0.960 . S
C1248 C1247 1.524 . S
C1249 C1246 1.403 . S
C1249 C1250 1.392 . S
C1249 C1253 1.495 . S
C1250 C1249 1.392 . S
C1250 C1251 1.385 . S
C1250 C1252 1.478 . S
C1251 H1245 0.930 . S
C1251 C1247 1.400 . S
C1251 C1250 1.385 . S
C1252 C1250 1.478 . S
C1252 C1254 1.381 . S
C1252 C1258 1.383 . S
C1253 C1249 1.495 . S
C1253 H1259 0.959 . S
C1253 H1260 0.961 . S
C1253 H1261 0.960 . S
C1254 C1252 1.381 . S
C1254 C1255 1.394 . S
C1254 H1262 0.930 . S
C1255 C1254 1.394 . S
C1255 C1256 1.383 . S
C1255 H1263 0.929 . S
C1256 C1255 1.383 . S
C1256 C1257 1.377 . S
C1257 H1241 0.930 . S
C1257 C1256 1.377 . S
C1257 C1258 1.379 . S
C1258 H1242 0.931 . S
C1258 C1252 1.383 . S
C1258 C1257 1.379 . S
H1259 C1253 0.959 . S
H1260 C1253 0.961 . S
H1261 C1253 0.960 . S
H1262 C1254 0.930 . S
H1263 C1255 0.929 . S
H1264 C1272 0.929 . S
H1265 C1274 0.930 . S
H1266 C1276 0.930 . S
H1267 C1279 0.929 . S
H1268 C1282 0.930 . S
H1269 C1284 0.960 . S
H1270 C1284 0.960 . S
H1271 C1284 0.960 . S
C1272 H1264 0.929 . S
C1272 C1273 1.377 . S
C1272 C1274 1.384 . S
C1273 C1272 1.377 . S
C1273 C1279 1.390 . S
C1274 H1265 0.930 . S
C1274 C1272 1.384 . S
C1274 C1275 1.372 . S
C1275 C1274 1.372 . S
C1275 C1276 1.400 . S
C1275 C1280 1.490 . S
C1276 H1266 0.930 . S
C1276 C1275 1.400 . S
C1276 C1279 1.386 . S
H1277 C1293 0.930 . S
H1278 C1294 0.931 . S
C1279 H1267 0.929 . S
C1279 C1273 1.390 . S
C1279 C1276 1.386 . S
C1280 C1275 1.490 . S
C1280 C1282 1.395 . S
C1280 C1283 1.403 . S
H1281 C1287 0.930 . S
C1282 H1268 0.930 . S
C1282 C1280 1.395 . S
C1282 C1285 1.403 1_556 S
C1283 C1280 1.403 . S
C1283 C1284 1.524 . S
C1283 C1287 1.400 1_556 S
C1284 H1269 0.960 . S
C1284 H1270 0.960 . S
C1284 H1271 0.960 . S
C1284 C1283 1.524 . S
C1285 C1282 1.403 1_554 S
C1285 C1286 1.392 . S
C1285 C1289 1.495 . S
C1286 C1285 1.392 . S
C1286 C1287 1.385 . S
C1286 C1288 1.478 . S
C1287 H1281 0.930 . S
C1287 C1283 1.400 1_554 S
C1287 C1286 1.385 . S
C1288 C1286 1.478 . S
C1288 C1290 1.381 . S
C1288 C1294 1.383 . S
C1289 C1285 1.495 . S
C1289 H1295 0.959 . S
C1289 H1296 0.961 . S
C1289 H1297 0.960 . S
C1290 C1288 1.381 . S
C1290 C1291 1.394 . S
C1290 H1298 0.930 . S
C1291 C1290 1.394 . S
C1291 C1292 1.383 . S
C1291 H1299 0.929 . S
C1292 C1291 1.383 . S
C1292 C1293 1.377 . S
C1293 H1277 0.930 . S
C1293 C1292 1.377 . S
C1293 C1294 1.379 . S
C1294 H1278 0.931 . S
C1294 C1288 1.383 . S
C1294 C1293 1.379 . S
H1295 C1289 0.959 . S
H1296 C1289 0.961 . S
H1297 C1289 0.960 . S
H1298 C1290 0.930 . S
H1299 C1291 0.929 . S
H1300 C1308 0.929 . S
H1301 C1310 0.930 . S
H1302 C1312 0.930 . S
H1303 C1315 0.929 . S
H1304 C1318 0.930 . S
H1305 C1320 0.960 . S
H1306 C1320 0.960 . S
H1307 C1320 0.960 . S
C1308 H1300 0.929 . S
C1308 C1309 1.377 . S
C1308 C1310 1.384 . S
C1309 C1308 1.377 . S
C1309 C1315 1.390 . S
C1310 H1301 0.930 . S
C1310 C1308 1.384 . S
C1310 C1311 1.372 . S
C1311 C1310 1.372 . S
C1311 C1312 1.400 . S
C1311 C1316 1.490 . S
C1312 H1302 0.930 . S
C1312 C1311 1.400 . S
C1312 C1315 1.386 . S
H1313 C1329 0.930 . S
H1314 C1330 0.931 . S
C1315 H1303 0.929 . S
C1315 C1309 1.390 . S
C1315 C1312 1.386 . S
C1316 C1311 1.490 . S
C1316 C1318 1.395 1_556 S
C1316 C1319 1.403 . S
H1317 C1323 0.930 . S
C1318 H1304 0.930 . S
C1318 C1316 1.395 1_554 S
C1318 C1321 1.403 . S
C1319 C1316 1.403 . S
C1319 C1320 1.524 . S
C1319 C1323 1.400 1_556 S
C1320 H1305 0.960 . S
C1320 H1306 0.960 . S
C1320 H1307 0.960 . S
C1320 C1319 1.524 . S
C1321 C1318 1.403 . S
C1321 C1322 1.392 . S
C1321 C1325 1.495 . S
C1322 C1321 1.392 . S
C1322 C1323 1.385 . S
C1322 C1324 1.478 . S
C1323 H1317 0.930 . S
C1323 C1319 1.400 1_554 S
C1323 C1322 1.385 . S
C1324 C1322 1.478 . S
C1324 C1326 1.381 . S
C1324 C1330 1.383 . S
C1325 C1321 1.495 . S
C1325 H1331 0.959 . S
C1325 H1332 0.961 . S
C1325 H1333 0.960 . S
C1326 C1324 1.381 . S
C1326 C1327 1.394 . S
C1326 H1334 0.930 . S
C1327 C1326 1.394 . S
C1327 C1328 1.383 . S
C1327 H1335 0.929 . S
C1328 C1327 1.383 . S
C1328 C1329 1.377 . S
C1329 H1313 0.930 . S
C1329 C1328 1.377 . S
C1329 C1330 1.379 . S
C1330 H1314 0.931 . S
C1330 C1324 1.383 . S
C1330 C1329 1.379 . S
H1331 C1325 0.959 . S
H1332 C1325 0.961 . S
H1333 C1325 0.960 . S
H1334 C1326 0.930 . S
H1335 C1327 0.929 . S
H1336 C1344 0.929 . S
H1337 C1346 0.930 . S
H1338 C1348 0.930 . S
H1339 C1351 0.929 . S
H1340 C1354 0.930 . S
H1341 C1356 0.960 . S
H1342 C1356 0.960 . S
H1343 C1356 0.960 . S
C1344 H1336 0.929 . S
C1344 C1345 1.377 . S
C1344 C1346 1.384 . S
C1345 C1344 1.377 . S
C1345 C1351 1.390 . S
C1346 H1337 0.930 . S
C1346 C1344 1.384 . S
C1346 C1347 1.372 . S
C1347 C1346 1.372 . S
C1347 C1348 1.400 . S
C1347 C1352 1.490 . S
C1348 H1338 0.930 . S
C1348 C1347 1.400 . S
C1348 C1351 1.386 . S
H1349 C1365 0.930 . S
H1350 C1366 0.931 . S
C1351 H1339 0.929 . S
C1351 C1345 1.390 . S
C1351 C1348 1.386 . S
C1352 C1347 1.490 . S
C1352 C1354 1.395 . S
C1352 C1355 1.403 . S
H1353 C1359 0.930 . S
C1354 H1340 0.930 . S
C1354 C1352 1.395 . S
C1354 C1357 1.403 1_556 S
C1355 C1352 1.403 . S
C1355 C1356 1.524 . S
C1355 C1359 1.400 1_556 S
C1356 H1341 0.960 . S
C1356 H1342 0.960 . S
C1356 H1343 0.960 . S
C1356 C1355 1.524 . S
C1357 C1354 1.403 1_554 S
C1357 C1358 1.392 . S
C1357 C1361 1.495 . S
C1358 C1357 1.392 . S
C1358 C1359 1.385 . S
C1358 C1360 1.478 . S
C1359 H1353 0.930 . S
C1359 C1355 1.400 1_554 S
C1359 C1358 1.385 . S
C1360 C1358 1.478 . S
C1360 C1362 1.381 . S
C1360 C1366 1.383 . S
C1361 C1357 1.495 . S
C1361 H1367 0.959 . S
C1361 H1368 0.961 . S
C1361 H1369 0.960 . S
C1362 C1360 1.381 . S
C1362 C1363 1.394 . S
C1362 H1370 0.930 . S
C1363 C1362 1.394 . S
C1363 C1364 1.383 . S
C1363 H1371 0.929 . S
C1364 C1363 1.383 . S
C1364 C1365 1.377 . S
C1365 H1349 0.930 . S
C1365 C1364 1.377 . S
C1365 C1366 1.379 . S
C1366 H1350 0.931 . S
C1366 C1360 1.383 . S
C1366 C1365 1.379 . S
H1367 C1361 0.959 . S
H1368 C1361 0.961 . S
H1369 C1361 0.960 . S
H1370 C1362 0.930 . S
H1371 C1363 0.929 . S
H1372 C1380 0.929 . S
H1373 C1382 0.930 . S
H1374 C1384 0.930 . S
H1375 C1387 0.929 . S
H1376 C1390 0.930 . S
H1377 C1392 0.960 . S
H1378 C1392 0.960 . S
H1379 C1392 0.960 . S
C1380 H1372 0.929 . S
C1380 C1381 1.377 . S
C1380 C1382 1.384 . S
C1381 C1380 1.377 . S
C1381 C1387 1.390 . S
C1382 H1373 0.930 . S
C1382 C1380 1.384 . S
C1382 C1383 1.372 . S
C1383 C1382 1.372 . S
C1383 C1384 1.400 . S
C1383 C1388 1.490 . S
C1384 H1374 0.930 . S
C1384 C1383 1.400 . S
C1384 C1387 1.386 . S
H1385 C1401 0.930 . S
H1386 C1402 0.931 . S
C1387 H1375 0.929 . S
C1387 C1381 1.390 . S
C1387 C1384 1.386 . S
C1388 C1383 1.490 . S
C1388 C1390 1.395 . S
C1388 C1391 1.403 . S
H1389 C1395 0.930 . S
C1390 H1376 0.930 . S
C1390 C1388 1.395 . S
C1390 C1393 1.403 1_556 S
C1391 C1388 1.403 . S
C1391 C1392 1.524 . S
C1391 C1395 1.400 1_556 S
C1392 H1377 0.960 . S
C1392 H1378 0.960 . S
C1392 H1379 0.960 . S
C1392 C1391 1.524 . S
C1393 C1390 1.403 1_554 S
C1393 C1394 1.392 . S
C1393 C1397 1.495 . S
C1394 C1393 1.392 . S
C1394 C1395 1.385 . S
C1394 C1396 1.478 . S
C1395 H1389 0.930 . S
C1395 C1391 1.400 1_554 S
C1395 C1394 1.385 . S
C1396 C1394 1.478 . S
C1396 C1398 1.381 . S
C1396 C1402 1.383 . S
C1397 C1393 1.495 . S
C1397 H1403 0.959 . S
C1397 H1404 0.961 . S
C1397 H1405 0.960 . S
C1398 C1396 1.381 . S
C1398 C1399 1.394 . S
C1398 H1406 0.930 . S
C1399 C1398 1.394 . S
C1399 C1400 1.383 . S
C1399 H1407 0.929 . S
C1400 C1399 1.383 . S
C1400 C1401 1.377 . S
C1401 H1385 0.930 . S
C1401 C1400 1.377 . S
C1401 C1402 1.379 . S
C1402 H1386 0.931 . S
C1402 C1396 1.383 . S
C1402 C1401 1.379 . S
H1403 C1397 0.959 . S
H1404 C1397 0.961 . S
H1405 C1397 0.960 . S
H1406 C1398 0.930 . S
H1407 C1399 0.929 . S
H1408 C1416 0.929 . S
H1409 C1418 0.930 . S
H1410 C1420 0.930 . S
H1411 C1423 0.929 . S
H1412 C1426 0.930 . S
H1413 C1428 0.960 . S
H1414 C1428 0.960 . S
H1415 C1428 0.960 . S
C1416 H1408 0.929 . S
C1416 C1417 1.377 . S
C1416 C1418 1.384 . S
C1417 C1416 1.377 . S
C1417 C1423 1.390 . S
C1418 H1409 0.930 . S
C1418 C1416 1.384 . S
C1418 C1419 1.372 . S
C1419 C1418 1.372 . S
C1419 C1420 1.400 . S
C1419 C1424 1.490 . S
C1420 H1410 0.930 . S
C1420 C1419 1.400 . S
C1420 C1423 1.386 . S
H1421 C1437 0.930 . S
H1422 C1438 0.931 . S
C1423 H1411 0.929 . S
C1423 C1417 1.390 . S
C1423 C1420 1.386 . S
C1424 C1419 1.490 . S
C1424 C1426 1.395 . S
C1424 C1427 1.403 . S
H1425 C1431 0.930 . S
C1426 H1412 0.930 . S
C1426 C1424 1.395 . S
C1426 C1429 1.403 . S
C1427 C1424 1.403 . S
C1427 C1428 1.524 . S
C1427 C1431 1.400 . S
C1428 H1413 0.960 . S
C1428 H1414 0.960 . S
C1428 H1415 0.960 . S
C1428 C1427 1.524 . S
C1429 C1426 1.403 . S
C1429 C1430 1.392 . S
C1429 C1433 1.495 . S
C1430 C1429 1.392 . S
C1430 C1431 1.385 . S
C1430 C1432 1.478 . S
C1431 H1425 0.930 . S
C1431 C1427 1.400 . S
C1431 C1430 1.385 . S
C1432 C1430 1.478 . S
C1432 C1434 1.381 . S
C1432 C1438 1.383 . S
C1433 C1429 1.495 . S
C1433 H1439 0.959 . S
C1433 H1440 0.961 . S
C1433 H1441 0.960 . S
C1434 C1432 1.381 . S
C1434 C1435 1.394 . S
C1434 H1442 0.930 . S
C1435 C1434 1.394 . S
C1435 C1436 1.383 . S
C1435 H1443 0.929 . S
C1436 C1435 1.383 . S
C1436 C1437 1.377 . S
C1437 H1421 0.930 . S
C1437 C1436 1.377 . S
C1437 C1438 1.379 . S
C1438 H1422 0.931 . S
C1438 C1432 1.383 . S
C1438 C1437 1.379 . S
H1439 C1433 0.959 . S
H1440 C1433 0.961 . S
H1441 C1433 0.960 . S
H1442 C1434 0.930 . S
H1443 C1435 0.929 . S
H1444 C1452 0.929 . S
H1445 C1454 0.930 . S
H1446 C1456 0.930 . S
H1447 C1459 0.929 . S
H1448 C1462 0.930 . S
H1449 C1464 0.960 . S
H1450 C1464 0.960 . S
H1451 C1464 0.960 . S
C1452 H1444 0.929 . S
C1452 C1453 1.377 . S
C1452 C1454 1.384 . S
C1453 C1452 1.377 . S
C1453 C1459 1.390 . S
C1454 H1445 0.930 . S
C1454 C1452 1.384 . S
C1454 C1455 1.372 . S
C1455 C1454 1.372 . S
C1455 C1456 1.400 . S
C1455 C1460 1.490 . S
C1456 H1446 0.930 . S
C1456 C1455 1.400 . S
C1456 C1459 1.386 . S
H1457 C1473 0.930 . S
H1458 C1474 0.931 . S
C1459 H1447 0.929 . S
C1459 C1453 1.390 . S
C1459 C1456 1.386 . S
C1460 C1455 1.490 . S
C1460 C1462 1.395 . S
C1460 C1463 1.403 . S
H1461 C1467 0.930 . S
C1462 H1448 0.930 . S
C1462 C1460 1.395 . S
C1462 C1465 1.403 . S
C1463 C1460 1.403 . S
C1463 C1464 1.524 . S
C1463 C1467 1.400 . S
C1464 H1449 0.960 . S
C1464 H1450 0.960 . S
C1464 H1451 0.960 . S
C1464 C1463 1.524 . S
C1465 C1462 1.403 . S
C1465 C1466 1.392 . S
C1465 C1469 1.495 . S
C1466 C1465 1.392 . S
C1466 C1467 1.385 . S
C1466 C1468 1.478 . S
C1467 H1461 0.930 . S
C1467 C1463 1.400 . S
C1467 C1466 1.385 . S
C1468 C1466 1.478 . S
C1468 C1470 1.381 . S
C1468 C1474 1.383 . S
C1469 C1465 1.495 . S
C1469 H1475 0.959 . S
C1469 H1476 0.961 . S
C1469 H1477 0.960 . S
C1470 C1468 1.381 . S
C1470 C1471 1.394 . S
C1470 H1478 0.930 . S
C1471 C1470 1.394 . S
C1471 C1472 1.383 . S
C1471 H1479 0.929 . S
C1472 C1471 1.383 . S
C1472 C1473 1.377 . S
C1473 H1457 0.930 . S
C1473 C1472 1.377 . S
C1473 C1474 1.379 . S
C1474 H1458 0.931 . S
C1474 C1468 1.383 . S
C1474 C1473 1.379 . S
H1475 C1469 0.959 . S
H1476 C1469 0.961 . S
H1477 C1469 0.960 . S
H1478 C1470 0.930 . S
H1479 C1471 0.929 . S
H1480 C1488 0.929 . S
H1481 C1490 0.930 . S
H1482 C1492 0.930 . S
H1483 C1495 0.929 . S
H1484 C1498 0.930 . S
H1485 C1500 0.960 . S
H1486 C1500 0.960 . S
H1487 C1500 0.960 . S
C1488 H1480 0.929 . S
C1488 C1489 1.377 . S
C1488 C1490 1.384 . S
C1489 C1488 1.377 . S
C1489 C1495 1.390 . S
C1490 H1481 0.930 . S
C1490 C1488 1.384 . S
C1490 C1491 1.372 . S
C1491 C1490 1.372 . S
C1491 C1492 1.400 . S
C1491 C1496 1.490 . S
C1492 H1482 0.930 . S
C1492 C1491 1.400 . S
C1492 C1495 1.386 . S
H1493 C1509 0.930 . S
H1494 C1510 0.931 . S
C1495 H1483 0.929 . S
C1495 C1489 1.390 . S
C1495 C1492 1.386 . S
C1496 C1491 1.490 . S
C1496 C1498 1.395 . S
C1496 C1499 1.403 . S
H1497 C1503 0.930 . S
C1498 H1484 0.930 . S
C1498 C1496 1.395 . S
C1498 C1501 1.403 . S
C1499 C1496 1.403 . S
C1499 C1500 1.524 . S
C1499 C1503 1.400 . S
C1500 H1485 0.960 . S
C1500 H1486 0.960 . S
C1500 H1487 0.960 . S
C1500 C1499 1.524 . S
C1501 C1498 1.403 . S
C1501 C1502 1.392 . S
C1501 C1505 1.495 . S
C1502 C1501 1.392 . S
C1502 C1503 1.385 . S
C1502 C1504 1.478 . S
C1503 H1497 0.930 . S
C1503 C1499 1.400 . S
C1503 C1502 1.385 . S
C1504 C1502 1.478 . S
C1504 C1506 1.381 . S
C1504 C1510 1.383 . S
C1505 C1501 1.495 . S
C1505 H1511 0.959 . S
C1505 H1512 0.961 . S
C1505 H1513 0.960 . S
C1506 C1504 1.381 . S
C1506 C1507 1.394 . S
C1506 H1514 0.930 . S
C1507 C1506 1.394 . S
C1507 C1508 1.383 . S
C1507 H1515 0.929 . S
C1508 C1507 1.383 . S
C1508 C1509 1.377 . S
C1509 H1493 0.930 . S
C1509 C1508 1.377 . S
C1509 C1510 1.379 . S
C1510 H1494 0.931 . S
C1510 C1504 1.383 . S
C1510 C1509 1.379 . S
H1511 C1505 0.959 . S
H1512 C1505 0.961 . S
H1513 C1505 0.960 . S
H1514 C1506 0.930 . S
H1515 C1507 0.929 . S
H1516 C1524 0.929 . S
H1517 C1526 0.930 . S
H1518 C1528 0.930 . S
H1519 C1531 0.929 . S
H1520 C1534 0.930 . S
H1521 C1536 0.960 . S
H1522 C1536 0.960 . S
H1523 C1536 0.960 . S
C1524 H1516 0.929 . S
C1524 C1525 1.377 . S
C1524 C1526 1.384 . S
C1525 C1524 1.377 . S
C1525 C1531 1.390 . S
C1526 H1517 0.930 . S
C1526 C1524 1.384 . S
C1526 C1527 1.372 . S
C1527 C1526 1.372 . S
C1527 C1528 1.400 . S
C1527 C1532 1.490 . S
C1528 H1518 0.930 . S
C1528 C1527 1.400 . S
C1528 C1531 1.386 . S
H1529 C1545 0.930 . S
H1530 C1546 0.931 . S
C1531 H1519 0.929 . S
C1531 C1525 1.390 . S
C1531 C1528 1.386 . S
C1532 C1527 1.490 . S
C1532 C1534 1.395 . S
C1532 C1535 1.403 . S
H1533 C1539 0.930 . S
C1534 H1520 0.930 . S
C1534 C1532 1.395 . S
C1534 C1537 1.403 . S
C1535 C1532 1.403 . S
C1535 C1536 1.524 . S
C1535 C1539 1.400 . S
C1536 H1521 0.960 . S
C1536 H1522 0.960 . S
C1536 H1523 0.960 . S
C1536 C1535 1.524 . S
C1537 C1534 1.403 . S
C1537 C1538 1.392 . S
C1537 C1541 1.495 . S
C1538 C1537 1.392 . S
C1538 C1539 1.385 . S
C1538 C1540 1.478 . S
C1539 H1533 0.930 . S
C1539 C1535 1.400 . S
C1539 C1538 1.385 . S
C1540 C1538 1.478 . S
C1540 C1542 1.381 . S
C1540 C1546 1.383 . S
C1541 C1537 1.495 . S
C1541 H1547 0.959 . S
C1541 H1548 0.961 . S
C1541 H1549 0.960 . S
C1542 C1540 1.381 . S
C1542 C1543 1.394 . S
C1542 H1550 0.930 . S
C1543 C1542 1.394 . S
C1543 C1544 1.383 . S
C1543 H1551 0.929 . S
C1544 C1543 1.383 . S
C1544 C1545 1.377 . S
C1545 H1529 0.930 . S
C1545 C1544 1.377 . S
C1545 C1546 1.379 . S
C1546 H1530 0.931 . S
C1546 C1540 1.383 . S
C1546 C1545 1.379 . S
H1547 C1541 0.959 . S
H1548 C1541 0.961 . S
H1549 C1541 0.960 . S
H1550 C1542 0.930 . S
H1551 C1543 0.929 . S
H1552 C1560 0.929 . S
H1553 C1562 0.930 . S
H1554 C1564 0.930 . S
H1555 C1567 0.929 . S
H1556 C1570 0.930 . S
H1557 C1572 0.960 . S
H1558 C1572 0.960 . S
H1559 C1572 0.960 . S
C1560 H1552 0.929 . S
C1560 C1561 1.377 . S
C1560 C1562 1.384 . S
C1561 C1560 1.377 . S
C1561 C1567 1.390 . S
C1562 H1553 0.930 . S
C1562 C1560 1.384 . S
C1562 C1563 1.372 . S
C1563 C1562 1.372 . S
C1563 C1564 1.400 . S
C1563 C1568 1.490 . S
C1564 H1554 0.930 . S
C1564 C1563 1.400 . S
C1564 C1567 1.386 . S
H1565 C1581 0.930 . S
H1566 C1582 0.931 . S
C1567 H1555 0.929 . S
C1567 C1561 1.390 . S
C1567 C1564 1.386 . S
C1568 C1563 1.490 . S
C1568 C1570 1.395 . S
C1568 C1571 1.403 . S
H1569 C1575 0.930 . S
C1570 H1556 0.930 . S
C1570 C1568 1.395 . S
C1570 C1573 1.403 . S
C1571 C1568 1.403 . S
C1571 C1572 1.524 . S
C1571 C1575 1.400 . S
C1572 H1557 0.960 . S
C1572 H1558 0.960 . S
C1572 H1559 0.960 . S
C1572 C1571 1.524 . S
C1573 C1570 1.403 . S
C1573 C1574 1.392 . S
C1573 C1577 1.495 . S
C1574 C1573 1.392 . S
C1574 C1575 1.385 . S
C1574 C1576 1.478 . S
C1575 H1569 0.930 . S
C1575 C1571 1.400 . S
C1575 C1574 1.385 . S
C1576 C1574 1.478 . S
C1576 C1578 1.381 . S
C1576 C1582 1.383 . S
C1577 C1573 1.495 . S
C1577 H1583 0.959 . S
C1577 H1584 0.961 . S
C1577 H1585 0.960 . S
C1578 C1576 1.381 . S
C1578 C1579 1.394 . S
C1578 H1586 0.930 . S
C1579 C1578 1.394 . S
C1579 C1580 1.383 . S
C1579 H1587 0.929 . S
C1580 C1579 1.383 . S
C1580 C1581 1.377 . S
C1581 H1565 0.930 . S
C1581 C1580 1.377 . S
C1581 C1582 1.379 . S
C1582 H1566 0.931 . S
C1582 C1576 1.383 . S
C1582 C1581 1.379 . S
H1583 C1577 0.959 . S
H1584 C1577 0.961 . S
H1585 C1577 0.960 . S
H1586 C1578 0.930 . S
H1587 C1579 0.929 . S
H1588 C1596 0.929 . S
H1589 C1598 0.930 . S
H1590 C1600 0.930 . S
H1591 C1603 0.929 . S
H1592 C1606 0.930 . S
H1593 C1608 0.960 . S
H1594 C1608 0.960 . S
H1595 C1608 0.960 . S
C1596 H1588 0.929 . S
C1596 C1597 1.377 . S
C1596 C1598 1.384 . S
C1597 C1596 1.377 . S
C1597 C1603 1.390 . S
C1598 H1589 0.930 . S
C1598 C1596 1.384 . S
C1598 C1599 1.372 . S
C1599 C1598 1.372 . S
C1599 C1600 1.400 . S
C1599 C1604 1.490 . S
C1600 H1590 0.930 . S
C1600 C1599 1.400 . S
C1600 C1603 1.386 . S
H1601 C1617 0.930 . S
H1602 C1618 0.931 . S
C1603 H1591 0.929 . S
C1603 C1597 1.390 . S
C1603 C1600 1.386 . S
C1604 C1599 1.490 . S
C1604 C1606 1.395 . S
C1604 C1607 1.403 . S
H1605 C1611 0.930 . S
C1606 H1592 0.930 . S
C1606 C1604 1.395 . S
C1606 C1609 1.403 . S
C1607 C1604 1.403 . S
C1607 C1608 1.524 . S
C1607 C1611 1.400 . S
C1608 H1593 0.960 . S
C1608 H1594 0.960 . S
C1608 H1595 0.960 . S
C1608 C1607 1.524 . S
C1609 C1606 1.403 . S
C1609 C1610 1.392 . S
C1609 C1613 1.495 . S
C1610 C1609 1.392 . S
C1610 C1611 1.385 . S
C1610 C1612 1.478 . S
C1611 H1605 0.930 . S
C1611 C1607 1.400 . S
C1611 C1610 1.385 . S
C1612 C1610 1.478 . S
C1612 C1614 1.381 . S
C1612 C1618 1.383 . S
C1613 C1609 1.495 . S
C1613 H1619 0.959 . S
C1613 H1620 0.961 . S
C1613 H1621 0.960 . S
C1614 C1612 1.381 . S
C1614 C1615 1.394 . S
C1614 H1622 0.930 . S
C1615 C1614 1.394 . S
C1615 C1616 1.383 . S
C1615 H1623 0.929 . S
C1616 C1615 1.383 . S
C1616 C1617 1.377 . S
C1617 H1601 0.930 . S
C1617 C1616 1.377 . S
C1617 C1618 1.379 . S
C1618 H1602 0.931 . S
C1618 C1612 1.383 . S
C1618 C1617 1.379 . S
H1619 C1613 0.959 . S
H1620 C1613 0.961 . S
H1621 C1613 0.960 . S
H1622 C1614 0.930 . S
H1623 C1615 0.929 . S
H1624 C1632 0.929 . S
H1625 C1634 0.930 . S
H1626 C1636 0.930 . S
H1627 C1639 0.929 . S
H1628 C1642 0.930 . S
H1629 C1644 0.960 . S
H1630 C1644 0.960 . S
H1631 C1644 0.960 . S
C1632 H1624 0.929 . S
C1632 C1633 1.377 . S
C1632 C1634 1.384 . S
C1633 C1632 1.377 . S
C1633 C1639 1.390 . S
C1634 H1625 0.930 . S
C1634 C1632 1.384 . S
C1634 C1635 1.372 . S
C1635 C1634 1.372 . S
C1635 C1636 1.400 . S
C1635 C1640 1.490 . S
C1636 H1626 0.930 . S
C1636 C1635 1.400 . S
C1636 C1639 1.386 . S
H1637 C1653 0.930 . S
H1638 C1654 0.931 . S
C1639 H1627 0.929 . S
C1639 C1633 1.390 . S
C1639 C1636 1.386 . S
C1640 C1635 1.490 . S
C1640 C1642 1.395 . S
C1640 C1643 1.403 . S
H1641 C1647 0.930 . S
C1642 H1628 0.930 . S
C1642 C1640 1.395 . S
C1642 C1645 1.403 . S
C1643 C1640 1.403 . S
C1643 C1644 1.524 . S
C1643 C1647 1.400 . S
C1644 H1629 0.960 . S
C1644 H1630 0.960 . S
C1644 H1631 0.960 . S
C1644 C1643 1.524 . S
C1645 C1642 1.403 . S
C1645 C1646 1.392 . S
C1645 C1649 1.495 . S
C1646 C1645 1.392 . S
C1646 C1647 1.385 . S
C1646 C1648 1.478 . S
C1647 H1641 0.930 . S
C1647 C1643 1.400 . S
C1647 C1646 1.385 . S
C1648 C1646 1.478 . S
C1648 C1650 1.381 . S
C1648 C1654 1.383 . S
C1649 C1645 1.495 . S
C1649 H1655 0.959 . S
C1649 H1656 0.961 . S
C1649 H1657 0.960 . S
C1650 C1648 1.381 . S
C1650 C1651 1.394 . S
C1650 H1658 0.930 . S
C1651 C1650 1.394 . S
C1651 C1652 1.383 . S
C1651 H1659 0.929 . S
C1652 C1651 1.383 . S
C1652 C1653 1.377 . S
C1653 H1637 0.930 . S
C1653 C1652 1.377 . S
C1653 C1654 1.379 . S
C1654 H1638 0.931 . S
C1654 C1648 1.383 . S
C1654 C1653 1.379 . S
H1655 C1649 0.959 . S
H1656 C1649 0.961 . S
H1657 C1649 0.960 . S
H1658 C1650 0.930 . S
H1659 C1651 0.929 . S
H1660 C1668 0.929 . S
H1661 C1670 0.930 . S
H1662 C1672 0.930 . S
H1663 C1675 0.929 . S
H1664 C1678 0.930 . S
H1665 C1680 0.960 . S
H1666 C1680 0.960 . S
H1667 C1680 0.960 . S
C1668 H1660 0.929 . S
C1668 C1669 1.377 . S
C1668 C1670 1.384 . S
C1669 C1668 1.377 . S
C1669 C1675 1.390 . S
C1670 H1661 0.930 . S
C1670 C1668 1.384 . S
C1670 C1671 1.372 . S
C1671 C1670 1.372 . S
C1671 C1672 1.400 . S
C1671 C1676 1.490 . S
C1672 H1662 0.930 . S
C1672 C1671 1.400 . S
C1672 C1675 1.386 . S
H1673 C1689 0.930 . S
H1674 C1690 0.931 . S
C1675 H1663 0.929 . S
C1675 C1669 1.390 . S
C1675 C1672 1.386 . S
C1676 C1671 1.490 . S
C1676 C1678 1.395 . S
C1676 C1679 1.403 . S
H1677 C1683 0.930 . S
C1678 H1664 0.930 . S
C1678 C1676 1.395 . S
C1678 C1681 1.403 . S
C1679 C1676 1.403 . S
C1679 C1680 1.524 . S
C1679 C1683 1.400 . S
C1680 H1665 0.960 . S
C1680 H1666 0.960 . S
C1680 H1667 0.960 . S
C1680 C1679 1.524 . S
C1681 C1678 1.403 . S
C1681 C1682 1.392 . S
C1681 C1685 1.495 . S
C1682 C1681 1.392 . S
C1682 C1683 1.385 . S
C1682 C1684 1.478 . S
C1683 H1677 0.930 . S
C1683 C1679 1.400 . S
C1683 C1682 1.385 . S
C1684 C1682 1.478 . S
C1684 C1686 1.381 . S
C1684 C1690 1.383 . S
C1685 C1681 1.495 . S
C1685 H1691 0.959 . S
C1685 H1692 0.961 . S
C1685 H1693 0.960 . S
C1686 C1684 1.381 . S
C1686 C1687 1.394 . S
C1686 H1694 0.930 . S
C1687 C1686 1.394 . S
C1687 C1688 1.383 . S
C1687 H1695 0.929 . S
C1688 C1687 1.383 . S
C1688 C1689 1.377 . S
C1689 H1673 0.930 . S
C1689 C1688 1.377 . S
C1689 C1690 1.379 . S
C1690 H1674 0.931 . S
C1690 C1684 1.383 . S
C1690 C1689 1.379 . S
H1691 C1685 0.959 . S
H1692 C1685 0.961 . S
H1693 C1685 0.960 . S
H1694 C1686 0.930 . S
H1695 C1687 0.929 . S
H1696 C1704 0.929 . S
H1697 C1706 0.930 . S
H1698 C1708 0.930 . S
H1699 C1711 0.929 . S
H1700 C1714 0.930 . S
H1701 C1716 0.960 . S
H1702 C1716 0.960 . S
H1703 C1716 0.960 . S
C1704 H1696 0.929 . S
C1704 C1705 1.377 . S
C1704 C1706 1.384 . S
C1705 C1704 1.377 . S
C1705 C1711 1.390 . S
C1706 H1697 0.930 . S
C1706 C1704 1.384 . S
C1706 C1707 1.372 . S
C1707 C1706 1.372 . S
C1707 C1708 1.400 . S
C1707 C1712 1.490 . S
C1708 H1698 0.930 . S
C1708 C1707 1.400 . S
C1708 C1711 1.386 . S
H1709 C1725 0.930 . S
H1710 C1726 0.931 . S
C1711 H1699 0.929 . S
C1711 C1705 1.390 . S
C1711 C1708 1.386 . S
C1712 C1707 1.490 . S
C1712 C1714 1.395 1_545 S
C1712 C1715 1.403 . S
H1713 C1719 0.930 . S
C1714 H1700 0.930 . S
C1714 C1712 1.395 1_565 S
C1714 C1717 1.403 . S
C1715 C1712 1.403 . S
C1715 C1716 1.524 . S
C1715 C1719 1.400 . S
C1716 H1701 0.960 . S
C1716 H1702 0.960 . S
C1716 H1703 0.960 . S
C1716 C1715 1.524 . S
C1717 C1714 1.403 . S
C1717 C1718 1.392 . S
C1717 C1721 1.495 . S
C1718 C1717 1.392 . S
C1718 C1719 1.385 1_565 S
C1718 C1720 1.478 . S
C1719 H1713 0.930 . S
C1719 C1715 1.400 . S
C1719 C1718 1.385 1_545 S
C1720 C1718 1.478 . S
C1720 C1722 1.381 . S
C1720 C1726 1.383 . S
C1721 C1717 1.495 . S
C1721 H1727 0.959 . S
C1721 H1728 0.961 . S
C1721 H1729 0.960 . S
C1722 C1720 1.381 . S
C1722 C1723 1.394 . S
C1722 H1730 0.930 . S
C1723 C1722 1.394 . S
C1723 C1724 1.383 . S
C1723 H1731 0.929 . S
C1724 C1723 1.383 . S
C1724 C1725 1.377 . S
C1725 H1709 0.930 . S
C1725 C1724 1.377 . S
C1725 C1726 1.379 . S
C1726 H1710 0.931 . S
C1726 C1720 1.383 . S
C1726 C1725 1.379 . S
H1727 C1721 0.959 . S
H1728 C1721 0.961 . S
H1729 C1721 0.960 . S
H1730 C1722 0.930 . S
H1731 C1723 0.929 . S
H1732 C1740 0.929 . S
H1733 C1742 0.930 . S
H1734 C1744 0.930 . S
H1735 C1747 0.929 . S
H1736 C1750 0.930 . S
H1737 C1752 0.960 . S
H1738 C1752 0.960 . S
H1739 C1752 0.960 1_655 S
C1740 H1732 0.929 . S
C1740 C1741 1.377 . S
C1740 C1742 1.384 . S
C1741 C1740 1.377 . S
C1741 C1747 1.390 . S
C1742 H1733 0.930 . S
C1742 C1740 1.384 . S
C1742 C1743 1.372 . S
C1743 C1742 1.372 . S
C1743 C1744 1.400 . S
C1743 C1748 1.490 . S
C1744 H1734 0.930 . S
C1744 C1743 1.400 . S
C1744 C1747 1.386 . S
H1745 C1761 0.930 . S
H1746 C1762 0.931 . S
C1747 H1735 0.929 . S
C1747 C1741 1.390 . S
C1747 C1744 1.386 . S
C1748 C1743 1.490 . S
C1748 C1750 1.395 . S
C1748 C1751 1.403 1_655 S
H1749 C1755 0.930 . S
C1750 H1736 0.930 . S
C1750 C1748 1.395 . S
C1750 C1753 1.414 . S
C1751 C1748 1.403 1_455 S
C1751 C1752 1.524 . S
C1751 C1755 1.400 . S
C1752 H1737 0.960 . S
C1752 H1738 0.960 . S
C1752 H1739 0.960 1_455 S
C1752 C1751 1.524 . S
C1753 C1750 1.414 . S
C1753 C1754 1.381 1_655 S
C1753 C1757 1.497 . S
C1754 C1753 1.381 1_455 S
C1754 C1755 1.385 . S
C1754 C1756 1.478 . S
C1755 H1749 0.930 . S
C1755 C1751 1.400 . S
C1755 C1754 1.385 . S
C1756 C1754 1.478 . S
C1756 C1758 1.381 . S
C1756 C1762 1.383 . S
C1757 C1753 1.497 . S
C1757 H1763 0.959 . S
C1757 H1764 0.961 . S
C1757 H1765 0.960 1_655 S
C1758 C1756 1.381 . S
C1758 C1759 1.394 . S
C1758 H1766 0.930 . S
C1759 C1758 1.394 . S
C1759 C1760 1.383 . S
C1759 H1767 0.929 . S
C1760 C1759 1.383 . S
C1760 C1761 1.377 . S
C1761 H1745 0.930 . S
C1761 C1760 1.377 . S
C1761 C1762 1.379 . S
C1762 H1746 0.931 . S
C1762 C1756 1.383 . S
C1762 C1761 1.379 . S
H1763 C1757 0.959 . S
H1764 C1757 0.961 . S
H1765 C1757 0.960 1_455 S
H1766 C1758 0.930 . S
H1767 C1759 0.929 . S
H1768 C1776 0.929 . S
H1769 C1778 0.930 . S
H1770 C1780 0.930 . S
H1771 C1783 0.929 . S
H1772 C1786 0.930 . S
H1773 C1788 0.960 . S
H1774 C1788 0.960 . S
H1775 C1788 0.960 . S
C1776 H1768 0.929 . S
C1776 C1777 1.377 . S
C1776 C1778 1.384 . S
C1777 C1776 1.377 . S
C1777 C1783 1.390 . S
C1778 H1769 0.930 . S
C1778 C1776 1.384 . S
C1778 C1779 1.372 . S
C1779 C1778 1.372 . S
C1779 C1780 1.400 . S
C1779 C1784 1.490 . S
C1780 H1770 0.930 . S
C1780 C1779 1.400 . S
C1780 C1783 1.386 . S
H1781 C1797 0.930 . S
H1782 C1798 0.931 . S
C1783 H1771 0.929 . S
C1783 C1777 1.390 . S
C1783 C1780 1.386 . S
C1784 C1779 1.490 . S
C1784 C1786 1.395 . S
C1784 C1787 1.403 1_565 S
H1785 C1791 0.930 . S
C1786 H1772 0.930 . S
C1786 C1784 1.395 . S
C1786 C1789 1.403 . S
C1787 C1784 1.403 1_545 S
C1787 C1788 1.524 . S
C1787 C1791 1.400 . S
C1788 H1773 0.960 . S
C1788 H1774 0.960 . S
C1788 H1775 0.960 . S
C1788 C1787 1.524 . S
C1789 C1786 1.403 . S
C1789 C1790 1.392 1_565 S
C1789 C1793 1.495 . S
C1790 C1789 1.392 1_545 S
C1790 C1791 1.385 . S
C1790 C1792 1.478 . S
C1791 H1785 0.930 . S
C1791 C1787 1.400 . S
C1791 C1790 1.385 . S
C1792 C1790 1.478 . S
C1792 C1794 1.381 . S
C1792 C1798 1.383 . S
C1793 C1789 1.495 . S
C1793 H1799 0.959 . S
C1793 H1800 0.961 . S
C1793 H1801 0.960 . S
C1794 C1792 1.381 . S
C1794 C1795 1.394 . S
C1794 H1802 0.930 . S
C1795 C1794 1.394 . S
C1795 C1796 1.383 . S
C1795 H1803 0.929 . S
C1796 C1795 1.383 . S
C1796 C1797 1.377 . S
C1797 H1781 0.930 . S
C1797 C1796 1.377 . S
C1797 C1798 1.379 . S
C1798 H1782 0.931 . S
C1798 C1792 1.383 . S
C1798 C1797 1.379 . S
H1799 C1793 0.959 . S
H1800 C1793 0.961 . S
H1801 C1793 0.960 . S
H1802 C1794 0.930 . S
H1803 C1795 0.929 . S
H1804 C1812 0.929 . S
H1805 C1814 0.930 . S
H1806 C1816 0.930 . S
H1807 C1819 0.929 . S
H1808 C1822 0.930 . S
H1809 C1824 0.960 . S
H1810 C1824 0.960 . S
H1811 C1824 0.960 . S
C1812 H1804 0.929 . S
C1812 C1813 1.377 . S
C1812 C1814 1.384 . S
C1813 C1812 1.377 . S
C1813 C1819 1.390 . S
C1814 H1805 0.930 . S
C1814 C1812 1.384 . S
C1814 C1815 1.372 . S
C1815 C1814 1.372 . S
C1815 C1816 1.400 . S
C1815 C1820 1.490 . S
C1816 H1806 0.930 . S
C1816 C1815 1.400 . S
C1816 C1819 1.386 . S
H1817 C1833 0.930 . S
H1818 C1834 0.931 . S
C1819 H1807 0.929 . S
C1819 C1813 1.390 . S
C1819 C1816 1.386 . S
C1820 C1815 1.490 . S
C1820 C1822 1.395 . S
C1820 C1823 1.403 1_655 S
H1821 C1827 0.930 . S
C1822 H1808 0.930 . S
C1822 C1820 1.395 . S
C1822 C1825 1.403 . S
C1823 C1820 1.403 1_455 S
C1823 C1824 1.524 . S
C1823 C1827 1.400 . S
C1824 H1809 0.960 . S
C1824 H1810 0.960 . S
C1824 H1811 0.960 . S
C1824 C1823 1.524 . S
C1825 C1822 1.403 . S
C1825 C1826 1.392 1_655 S
C1825 C1829 1.495 . S
C1826 C1825 1.392 1_455 S
C1826 C1827 1.385 . S
C1826 C1828 1.478 . S
C1827 H1821 0.930 . S
C1827 C1823 1.400 . S
C1827 C1826 1.385 . S
C1828 C1826 1.478 . S
C1828 C1830 1.381 . S
C1828 C1834 1.383 . S
C1829 C1825 1.495 . S
C1829 H1835 0.959 . S
C1829 H1836 0.961 . S
C1829 H1837 0.960 . S
C1830 C1828 1.381 . S
C1830 C1831 1.394 . S
C1830 H1838 0.956 . S
C1831 C1830 1.394 . S
C1831 C1832 1.383 . S
C1831 H1839 0.929 . S
C1832 C1831 1.383 . S
C1832 C1833 1.377 . S
C1833 H1817 0.930 . S
C1833 C1832 1.377 . S
C1833 C1834 1.379 . S
C1834 H1818 0.931 . S
C1834 C1828 1.383 . S
C1834 C1833 1.379 . S
H1835 C1829 0.959 . S
H1836 C1829 0.961 . S
H1837 C1829 0.960 . S
H1838 C1830 0.956 . S
H1839 C1831 0.929 . S
H1840 C1848 0.929 . S
H1841 C1850 0.930 . S
H1842 C1852 0.930 . S
H1843 C1855 0.929 . S
H1844 C1858 0.930 . S
H1845 C1860 0.963 1_554 S
H1846 C1860 0.958 . S
H1847 C1860 0.959 . S
C1848 H1840 0.929 . S
C1848 C1849 1.377 . S
C1848 C1850 1.384 . S
C1849 C1848 1.377 . S
C1849 C1855 1.390 . S
C1850 H1841 0.930 . S
C1850 C1848 1.384 . S
C1850 C1851 1.372 . S
C1851 C1850 1.372 . S
C1851 C1852 1.400 . S
C1851 C1856 1.490 . S
C1852 H1842 0.930 . S
C1852 C1851 1.400 . S
C1852 C1855 1.386 . S
H1853 C1869 0.930 . S
H1854 C1870 0.931 . S
C1855 H1843 0.929 . S
C1855 C1849 1.390 . S
C1855 C1852 1.386 . S
C1856 C1851 1.490 . S
C1856 C1858 1.395 . S
C1856 C1859 1.403 . S
H1857 C1863 0.930 . S
C1858 H1844 0.930 . S
C1858 C1856 1.395 . S
C1858 C1861 1.403 . S
C1859 C1856 1.403 . S
C1859 C1860 1.524 . S
C1859 C1863 1.400 1_556 S
C1860 H1845 0.963 1_556 S
C1860 H1846 0.958 . S
C1860 H1847 0.959 . S
C1860 C1859 1.524 . S
C1861 C1858 1.403 . S
C1861 C1862 1.392 1_556 S
C1861 C1865 1.495 . S
C1862 C1861 1.392 1_554 S
C1862 C1863 1.385 . S
C1862 C1864 1.478 . S
C1863 H1857 0.930 . S
C1863 C1859 1.400 1_554 S
C1863 C1862 1.385 . S
C1864 C1862 1.478 . S
C1864 C1866 1.381 . S
C1864 C1870 1.383 . S
C1865 C1861 1.495 . S
C1865 H1871 0.959 . S
C1865 H1872 0.961 1_556 S
C1865 H1873 0.960 1_556 S
C1866 C1864 1.381 . S
C1866 C1867 1.394 . S
C1866 H1874 0.930 . S
C1867 C1866 1.394 . S
C1867 C1868 1.383 . S
C1867 H1875 0.929 . S
C1868 C1867 1.383 . S
C1868 C1869 1.377 . S
C1869 H1853 0.930 . S
C1869 C1868 1.377 . S
C1869 C1870 1.379 . S
C1870 H1854 0.931 . S
C1870 C1864 1.383 . S
C1870 C1869 1.379 . S
H1871 C1865 0.959 . S
H1872 C1865 0.961 1_554 S
H1873 C1865 0.960 1_554 S
H1874 C1866 0.930 . S
H1875 C1867 0.929 . S
H1876 C1884 0.929 . S
H1877 C1886 0.930 . S
H1878 C1888 0.930 . S
H1879 C1891 0.929 . S
H1880 C1894 0.930 . S
H1881 C1896 0.960 . S
H1882 C1896 0.960 . S
H1883 C1896 0.960 . S
C1884 H1876 0.929 . S
C1884 C1885 1.377 . S
C1884 C1886 1.384 . S
C1885 C1884 1.377 . S
C1885 C1891 1.390 . S
C1886 H1877 0.930 . S
C1886 C1884 1.384 . S
C1886 C1887 1.372 . S
C1887 C1886 1.372 . S
C1887 C1888 1.400 . S
C1887 C1892 1.490 . S
C1888 H1878 0.930 . S
C1888 C1887 1.400 . S
C1888 C1891 1.386 . S
H1889 C1905 0.930 . S
H1890 C1906 0.931 . S
C1891 H1879 0.929 . S
C1891 C1885 1.390 . S
C1891 C1888 1.386 . S
C1892 C1887 1.490 . S
C1892 C1894 1.395 . S
C1892 C1895 1.403 . S
H1893 C1899 0.930 . S
C1894 H1880 0.930 . S
C1894 C1892 1.395 . S
C1894 C1897 1.403 1_556 S
C1895 C1892 1.403 . S
C1895 C1896 1.524 . S
C1895 C1899 1.400 1_556 S
C1896 H1881 0.960 . S
C1896 H1882 0.960 . S
C1896 H1883 0.960 . S
C1896 C1895 1.524 . S
C1897 C1894 1.403 1_554 S
C1897 C1898 1.392 . S
C1897 C1901 1.495 . S
C1898 C1897 1.392 . S
C1898 C1899 1.385 . S
C1898 C1900 1.478 . S
C1899 H1893 0.930 . S
C1899 C1895 1.400 1_554 S
C1899 C1898 1.385 . S
C1900 C1898 1.478 . S
C1900 C1902 1.381 . S
C1900 C1906 1.383 . S
C1901 C1897 1.495 . S
C1901 H1907 0.959 . S
C1901 H1908 0.961 . S
C1901 H1909 0.960 . S
C1902 C1900 1.381 . S
C1902 C1903 1.394 . S
C1902 H1910 0.930 . S
C1903 C1902 1.394 . S
C1903 C1904 1.383 . S
C1903 H1911 0.929 . S
C1904 C1903 1.383 . S
C1904 C1905 1.377 . S
C1905 H1889 0.930 . S
C1905 C1904 1.377 . S
C1905 C1906 1.379 . S
C1906 H1890 0.931 . S
C1906 C1900 1.383 . S
C1906 C1905 1.379 . S
H1907 C1901 0.959 . S
H1908 C1901 0.961 . S
H1909 C1901 0.960 . S
H1910 C1902 0.930 . S
H1911 C1903 0.929 . S
H1912 C1920 0.929 . S
H1913 C1922 0.930 . S
H1914 C1924 0.930 . S
H1915 C1927 0.929 . S
H1916 C1930 0.930 . S
H1917 C1932 0.960 . S
H1918 C1932 0.960 . S
H1919 C1932 0.960 . S
C1920 H1912 0.929 . S
C1920 C1921 1.377 . S
C1920 C1922 1.384 . S
C1921 C1920 1.377 . S
C1921 C1927 1.390 . S
C1922 H1913 0.930 . S
C1922 C1920 1.384 . S
C1922 C1923 1.372 . S
C1923 C1922 1.372 . S
C1923 C1924 1.400 . S
C1923 C1928 1.490 . S
C1924 H1914 0.930 . S
C1924 C1923 1.400 . S
C1924 C1927 1.386 . S
H1925 C1941 0.930 . S
H1926 C1942 0.931 . S
C1927 H1915 0.929 . S
C1927 C1921 1.390 . S
C1927 C1924 1.386 . S
C1928 C1923 1.490 . S
C1928 C1930 1.395 . S
C1928 C1931 1.403 . S
H1929 C1935 0.930 . S
C1930 H1916 0.930 . S
C1930 C1928 1.395 . S
C1930 C1933 1.403 1_554 S
C1931 C1928 1.403 . S
C1931 C1932 1.524 . S
C1931 C1935 1.400 1_554 S
C1932 H1917 0.960 . S
C1932 H1918 0.960 . S
C1932 H1919 0.960 . S
C1932 C1931 1.524 . S
C1933 C1930 1.403 1_556 S
C1933 C1934 1.392 . S
C1933 C1937 1.495 . S
C1934 C1933 1.392 . S
C1934 C1935 1.385 . S
C1934 C1936 1.478 . S
C1935 H1929 0.930 . S
C1935 C1931 1.400 1_556 S
C1935 C1934 1.385 . S
C1936 C1934 1.478 . S
C1936 C1938 1.381 . S
C1936 C1942 1.383 . S
C1937 C1933 1.495 . S
C1937 H1943 0.959 . S
C1937 H1944 0.961 . S
C1937 H1945 0.960 . S
C1938 C1936 1.381 . S
C1938 C1939 1.394 . S
C1938 H1946 0.930 . S
C1939 C1938 1.394 . S
C1939 C1940 1.383 . S
C1939 H1947 0.929 . S
C1940 C1939 1.383 . S
C1940 C1941 1.377 . S
C1941 H1925 0.930 . S
C1941 C1940 1.377 . S
C1941 C1942 1.379 . S
C1942 H1926 0.931 . S
C1942 C1936 1.383 . S
C1942 C1941 1.379 . S
H1943 C1937 0.959 . S
H1944 C1937 0.961 . S
H1945 C1937 0.960 . S
H1946 C1938 0.930 . S
H1947 C1939 0.929 . S
H1948 C1956 0.929 . S
H1949 C1958 0.930 . S
H1950 C1960 0.930 . S
H1951 C1963 0.929 . S
H1952 C1966 0.932 . S
H1953 C1968 0.960 . S
H1954 C1968 0.960 . S
H1955 C1968 0.960 . S
C1956 H1948 0.929 . S
C1956 C1957 1.377 . S
C1956 C1958 1.384 . S
C1957 C1956 1.377 . S
C1957 C1963 1.390 . S
C1958 H1949 0.930 . S
C1958 C1956 1.384 . S
C1958 C1959 1.372 . S
C1959 C1958 1.372 . S
C1959 C1960 1.400 . S
C1959 C1964 1.490 . S
C1960 H1950 0.930 . S
C1960 C1959 1.400 . S
C1960 C1963 1.386 . S
H1961 C1977 0.930 . S
H1962 C1978 0.931 . S
C1963 H1951 0.929 . S
C1963 C1957 1.390 . S
C1963 C1960 1.386 . S
C1964 C1959 1.490 . S
C1964 C1966 1.409 . S
C1964 C1967 1.403 . S
H1965 C1971 0.930 . S
C1966 H1952 0.932 . S
C1966 C1964 1.409 . S
C1966 C1969 1.388 1_556 S
C1967 C1964 1.403 . S
C1967 C1968 1.524 . S
C1967 C1971 1.400 1_556 S
C1968 H1953 0.960 . S
C1968 H1954 0.960 . S
C1968 H1955 0.960 . S
C1968 C1967 1.524 . S
C1969 C1966 1.388 1_554 S
C1969 C1970 1.392 . S
C1969 C1973 1.495 . S
C1970 C1969 1.392 . S
C1970 C1971 1.385 . S
C1970 C1972 1.478 . S
C1971 H1965 0.930 . S
C1971 C1967 1.400 1_554 S
C1971 C1970 1.385 . S
C1972 C1970 1.478 . S
C1972 C1974 1.381 . S
C1972 C1978 1.383 . S
C1973 C1969 1.495 . S
C1973 H1979 0.959 . S
C1973 H1980 0.961 . S
C1973 H1981 0.960 . S
C1974 C1972 1.381 . S
C1974 C1975 1.394 . S
C1974 H1982 0.930 . S
C1975 C1974 1.394 . S
C1975 C1976 1.383 . S
C1975 H1983 0.929 . S
C1976 C1975 1.383 . S
C1976 C1977 1.377 . S
C1977 H1961 0.930 . S
C1977 C1976 1.377 . S
C1977 C1978 1.379 . S
C1978 H1962 0.931 . S
C1978 C1972 1.383 . S
C1978 C1977 1.379 . S
H1979 C1973 0.959 . S
H1980 C1973 0.961 . S
H1981 C1973 0.960 . S
H1982 C1974 0.930 . S
H1983 C1975 0.929 . S
C553 C9 1.990 1_565 S
C572 C104 1.991 . S
C589 C2 2.002 . S
C608 C43 1.974 1_455 S
C625 C77 1.991 1_545 S
C644 C36 1.994 . S
C661 C70 2.002 . S
C680 C111 1.976 1_655 S
C697 C172 2.005 . S
C716 C145 1.967 1_545 S
C733 C206 2.004 . S
C752 C179 1.999 1_655 S
C769 C240 2.001 . S
C788 C213 1.980 1_565 S
C805 C247 1.988 1_455 S
C824 C138 2.011 . S
C841 C281 1.984 . S
C860 C376 1.999 . S
C877 C315 1.984 . S
C896 C274 2.008 . S
C913 C349 1.989 . S
C932 C308 2.009 . S
C949 C342 2.002 . S
C968 C383 2.000 . S
C985 C444 2.004 . S
C1004 C417 1.998 . S
C1021 C451 1.984 . S
C1040 C478 1.997 . S
C1057 C485 1.991 . S
C1076 C512 1.994 . S
C1093 C519 1.988 . S
C1112 C410 2.010 . S
C1129 C5 0.910 . S
C1148 C175 0.872 . S
C1165 C39 0.894 . S
C1184 C209 0.953 . S
C1201 C243 0.886 . S
C1220 C73 0.912 . S
C1237 C107 0.886 . S
C1256 C141 0.939 . S
C1273 C277 0.902 . S
C1292 C447 0.839 . S
C1309 C311 0.887 . S
C1328 C481 0.908 . S
C1345 C345 0.896 . S
C1364 C515 0.853 . S
C1381 C379 0.889 . S
C1400 C413 0.954 . S
C1417 C33 0.518 . S
C1436 C543 0.579 . S
C1453 C441 0.513 . S
C1472 C67 0.527 . S
C1489 C101 0.531 . S
C1508 C475 0.514 . S
C1525 C135 0.530 . S
C1544 C509 0.506 . S
C1561 C339 0.529 . S
C1580 C169 0.550 . S
C1597 C373 0.513 . S
C1616 C203 0.530 . S
C1633 C407 0.531 . S
C1652 C237 0.516 . S
C1669 C305 0.530 . S
C1688 C271 0.548 . S
C1705 C20 0.960 . S
C1724 C156 0.961 . S
C1741 C54 0.969 . S
C1760 C190 0.999 . S
C1777 C88 0.972 . S
C1796 C224 0.996 . S
C1813 C258 0.973 . S
C1832 C122 0.963 . S
C1849 C292 0.960 . S
C1868 C428 0.968 . S
C1885 C326 0.973 . S
C1904 C462 0.963 . S
C1921 C496 0.973 . S
C1940 C360 0.989 . S
C1957 C394 0.974 . S
C1976 C530 0.985 . S
