# Generated by pormake.
# Topology sou, (8)-cn, num edge types: 1
# Building blocks:
#     Node 0, Type 0, BuildingBlock: EBIMEJ_clean_sbu_0, # of connection points: 8
#     Node 1, Type 0, BuildingBlock: EBIMEJ_clean_sbu_0, # of connection points: 8
#     Node 2, Type 0, BuildingBlock: EBIMEJ_clean_sbu_0, # of connection points: 8
#     Node 3, Type 0, BuildingBlock: EBIMEJ_clean_sbu_0, # of connection points: 8
#     Node 4, Type 0, BuildingBlock: EBIMEJ_clean_sbu_0, # of connection points: 8
#     Node 5, Type 0, BuildingBlock: EBIMEJ_clean_sbu_0, # of connection points: 8
#     Node 6, Type 0, BuildingBlock: EBIMEJ_clean_sbu_0, # of connection points: 8
#     Node 7, Type 0, BuildingBlock: EBIMEJ_clean_sbu_0, # of connection points: 8
#     Node 8, Type 0, BuildingBlock: EBIMEJ_clean_sbu_0, # of connection points: 8
#     Node 9, Type 0, BuildingBlock: EBIMEJ_clean_sbu_0, # of connection points: 8
#     Node 10, Type 0, BuildingBlock: EBIMEJ_clean_sbu_0, # of connection points: 8
#     Node 11, Type 0, BuildingBlock: EBIMEJ_clean_sbu_0, # of connection points: 8
#     Node 12, Type 0, BuildingBlock: EBIMEJ_clean_sbu_0, # of connection points: 8
#     Node 13, Type 0, BuildingBlock: EBIMEJ_clean_sbu_0, # of connection points: 8
#     Node 14, Type 0, BuildingBlock: EBIMEJ_clean_sbu_0, # of connection points: 8
#     Node 15, Type 0, BuildingBlock: EBIMEJ_clean_sbu_0, # of connection points: 8
#     Node 16, Type 0, BuildingBlock: EBIMEJ_clean_sbu_0, # of connection points: 8
#     Node 17, Type 0, BuildingBlock: EBIMEJ_clean_sbu_0, # of connection points: 8
#     Node 18, Type 0, BuildingBlock: EBIMEJ_clean_sbu_0, # of connection points: 8
#     Node 19, Type 0, BuildingBlock: EBIMEJ_clean_sbu_0, # of connection points: 8
#     Node 20, Type 0, BuildingBlock: EBIMEJ_clean_sbu_0, # of connection points: 8
#     Node 21, Type 0, BuildingBlock: EBIMEJ_clean_sbu_0, # of connection points: 8
#     Node 22, Type 0, BuildingBlock: EBIMEJ_clean_sbu_0, # of connection points: 8
#     Node 23, Type 0, BuildingBlock: EBIMEJ_clean_sbu_0, # of connection points: 8
#     Node 24, Type 0, BuildingBlock: EBIMEJ_clean_sbu_0, # of connection points: 8
#     Node 25, Type 0, BuildingBlock: EBIMEJ_clean_sbu_0, # of connection points: 8
#     Node 26, Type 0, BuildingBlock: EBIMEJ_clean_sbu_0, # of connection points: 8
#     Node 27, Type 0, BuildingBlock: EBIMEJ_clean_sbu_0, # of connection points: 8
#     Node 28, Type 0, BuildingBlock: EBIMEJ_clean_sbu_0, # of connection points: 8
#     Node 29, Type 0, BuildingBlock: EBIMEJ_clean_sbu_0, # of connection points: 8
#     Node 30, Type 0, BuildingBlock: EBIMEJ_clean_sbu_0, # of connection points: 8
#     Node 31, Type 0, BuildingBlock: EBIMEJ_clean_sbu_0, # of connection points: 8
#     Edge 32, Type (0, 0), BuildingBlock: KIFKEQ_clean_linker_1, # of connection points: 2
#     Edge 33, Type (0, 0), BuildingBlock: KIFKEQ_clean_linker_1, # of connection points: 2
#     Edge 34, Type (0, 0), BuildingBlock: KIFKEQ_clean_linker_1, # of connection points: 2
#     Edge 35, Type (0, 0), BuildingBlock: KIFKEQ_clean_linker_1, # of connection points: 2
#     Edge 36, Type (0, 0), BuildingBlock: KIFKEQ_clean_linker_1, # of connection points: 2
#     Edge 37, Type (0, 0), BuildingBlock: KIFKEQ_clean_linker_1, # of connection points: 2
#     Edge 38, Type (0, 0), BuildingBlock: KIFKEQ_clean_linker_1, # of connection points: 2
#     Edge 39, Type (0, 0), BuildingBlock: KIFKEQ_clean_linker_1, # of connection points: 2
#     Edge 40, Type (0, 0), BuildingBlock: KIFKEQ_clean_linker_1, # of connection points: 2
#     Edge 41, Type (0, 0), BuildingBlock: KIFKEQ_clean_linker_1, # of connection points: 2
#     Edge 42, Type (0, 0), BuildingBlock: KIFKEQ_clean_linker_1, # of connection points: 2
#     Edge 43, Type (0, 0), BuildingBlock: KIFKEQ_clean_linker_1, # of connection points: 2
#     Edge 44, Type (0, 0), BuildingBlock: KIFKEQ_clean_linker_1, # of connection points: 2
#     Edge 45, Type (0, 0), BuildingBlock: KIFKEQ_clean_linker_1, # of connection points: 2
#     Edge 46, Type (0, 0), BuildingBlock: KIFKEQ_clean_linker_1, # of connection points: 2
#     Edge 47, Type (0, 0), BuildingBlock: KIFKEQ_clean_linker_1, # of connection points: 2
#     Edge 48, Type (0, 0), BuildingBlock: KIFKEQ_clean_linker_1, # of connection points: 2
#     Edge 49, Type (0, 0), BuildingBlock: KIFKEQ_clean_linker_1, # of connection points: 2
#     Edge 50, Type (0, 0), BuildingBlock: KIFKEQ_clean_linker_1, # of connection points: 2
#     Edge 51, Type (0, 0), BuildingBlock: KIFKEQ_clean_linker_1, # of connection points: 2
#     Edge 52, Type (0, 0), BuildingBlock: KIFKEQ_clean_linker_1, # of connection points: 2
#     Edge 53, Type (0, 0), BuildingBlock: KIFKEQ_clean_linker_1, # of connection points: 2
#     Edge 54, Type (0, 0), BuildingBlock: KIFKEQ_clean_linker_1, # of connection points: 2
#     Edge 55, Type (0, 0), BuildingBlock: KIFKEQ_clean_linker_1, # of connection points: 2
#     Edge 56, Type (0, 0), BuildingBlock: KIFKEQ_clean_linker_1, # of connection points: 2
#     Edge 57, Type (0, 0), BuildingBlock: KIFKEQ_clean_linker_1, # of connection points: 2
#     Edge 58, Type (0, 0), BuildingBlock: KIFKEQ_clean_linker_1, # of connection points: 2
#     Edge 59, Type (0, 0), BuildingBlock: KIFKEQ_clean_linker_1, # of connection points: 2
#     Edge 60, Type (0, 0), BuildingBlock: KIFKEQ_clean_linker_1, # of connection points: 2
#     Edge 61, Type (0, 0), BuildingBlock: KIFKEQ_clean_linker_1, # of connection points: 2
#     Edge 62, Type (0, 0), BuildingBlock: KIFKEQ_clean_linker_1, # of connection points: 2
#     Edge 63, Type (0, 0), BuildingBlock: KIFKEQ_clean_linker_1, # of connection points: 2
#     Edge 64, Type (0, 0), BuildingBlock: KIFKEQ_clean_linker_1, # of connection points: 2
#     Edge 65, Type (0, 0), BuildingBlock: KIFKEQ_clean_linker_1, # of connection points: 2
#     Edge 66, Type (0, 0), BuildingBlock: KIFKEQ_clean_linker_1, # of connection points: 2
#     Edge 67, Type (0, 0), BuildingBlock: KIFKEQ_clean_linker_1, # of connection points: 2
#     Edge 68, Type (0, 0), BuildingBlock: KIFKEQ_clean_linker_1, # of connection points: 2
#     Edge 69, Type (0, 0), BuildingBlock: KIFKEQ_clean_linker_1, # of connection points: 2
#     Edge 70, Type (0, 0), BuildingBlock: KIFKEQ_clean_linker_1, # of connection points: 2
#     Edge 71, Type (0, 0), BuildingBlock: KIFKEQ_clean_linker_1, # of connection points: 2
#     Edge 72, Type (0, 0), BuildingBlock: KIFKEQ_clean_linker_1, # of connection points: 2
#     Edge 73, Type (0, 0), BuildingBlock: KIFKEQ_clean_linker_1, # of connection points: 2
#     Edge 74, Type (0, 0), BuildingBlock: KIFKEQ_clean_linker_1, # of connection points: 2
#     Edge 75, Type (0, 0), BuildingBlock: KIFKEQ_clean_linker_1, # of connection points: 2
#     Edge 76, Type (0, 0), BuildingBlock: KIFKEQ_clean_linker_1, # of connection points: 2
#     Edge 77, Type (0, 0), BuildingBlock: KIFKEQ_clean_linker_1, # of connection points: 2
#     Edge 78, Type (0, 0), BuildingBlock: KIFKEQ_clean_linker_1, # of connection points: 2
#     Edge 79, Type (0, 0), BuildingBlock: KIFKEQ_clean_linker_1, # of connection points: 2
#     Edge 80, Type (0, 0), BuildingBlock: KIFKEQ_clean_linker_1, # of connection points: 2
#     Edge 81, Type (0, 0), BuildingBlock: KIFKEQ_clean_linker_1, # of connection points: 2
#     Edge 82, Type (0, 0), BuildingBlock: KIFKEQ_clean_linker_1, # of connection points: 2
#     Edge 83, Type (0, 0), BuildingBlock: KIFKEQ_clean_linker_1, # of connection points: 2
#     Edge 84, Type (0, 0), BuildingBlock: KIFKEQ_clean_linker_1, # of connection points: 2
#     Edge 85, Type (0, 0), BuildingBlock: KIFKEQ_clean_linker_1, # of connection points: 2
#     Edge 86, Type (0, 0), BuildingBlock: KIFKEQ_clean_linker_1, # of connection points: 2
#     Edge 87, Type (0, 0), BuildingBlock: KIFKEQ_clean_linker_1, # of connection points: 2
#     Edge 88, Type (0, 0), BuildingBlock: KIFKEQ_clean_linker_1, # of connection points: 2
#     Edge 89, Type (0, 0), BuildingBlock: KIFKEQ_clean_linker_1, # of connection points: 2
#     Edge 90, Type (0, 0), BuildingBlock: KIFKEQ_clean_linker_1, # of connection points: 2
#     Edge 91, Type (0, 0), BuildingBlock: KIFKEQ_clean_linker_1, # of connection points: 2
#     Edge 92, Type (0, 0), BuildingBlock: KIFKEQ_clean_linker_1, # of connection points: 2
#     Edge 93, Type (0, 0), BuildingBlock: KIFKEQ_clean_linker_1, # of connection points: 2
#     Edge 94, Type (0, 0), BuildingBlock: KIFKEQ_clean_linker_1, # of connection points: 2
#     Edge 95, Type (0, 0), BuildingBlock: KIFKEQ_clean_linker_1, # of connection points: 2
#     Edge 96, Type (0, 0), BuildingBlock: KIFKEQ_clean_linker_1, # of connection points: 2
#     Edge 97, Type (0, 0), BuildingBlock: KIFKEQ_clean_linker_1, # of connection points: 2
#     Edge 98, Type (0, 0), BuildingBlock: KIFKEQ_clean_linker_1, # of connection points: 2
#     Edge 99, Type (0, 0), BuildingBlock: KIFKEQ_clean_linker_1, # of connection points: 2
#     Edge 100, Type (0, 0), BuildingBlock: KIFKEQ_clean_linker_1, # of connection points: 2
#     Edge 101, Type (0, 0), BuildingBlock: KIFKEQ_clean_linker_1, # of connection points: 2
#     Edge 102, Type (0, 0), BuildingBlock: KIFKEQ_clean_linker_1, # of connection points: 2
#     Edge 103, Type (0, 0), BuildingBlock: KIFKEQ_clean_linker_1, # of connection points: 2
#     Edge 104, Type (0, 0), BuildingBlock: KIFKEQ_clean_linker_1, # of connection points: 2
#     Edge 105, Type (0, 0), BuildingBlock: KIFKEQ_clean_linker_1, # of connection points: 2
#     Edge 106, Type (0, 0), BuildingBlock: KIFKEQ_clean_linker_1, # of connection points: 2
#     Edge 107, Type (0, 0), BuildingBlock: KIFKEQ_clean_linker_1, # of connection points: 2
#     Edge 108, Type (0, 0), BuildingBlock: KIFKEQ_clean_linker_1, # of connection points: 2
#     Edge 109, Type (0, 0), BuildingBlock: KIFKEQ_clean_linker_1, # of connection points: 2
#     Edge 110, Type (0, 0), BuildingBlock: KIFKEQ_clean_linker_1, # of connection points: 2
#     Edge 111, Type (0, 0), BuildingBlock: KIFKEQ_clean_linker_1, # of connection points: 2
#     Edge 112, Type (0, 0), BuildingBlock: KIFKEQ_clean_linker_1, # of connection points: 2
#     Edge 113, Type (0, 0), BuildingBlock: KIFKEQ_clean_linker_1, # of connection points: 2
#     Edge 114, Type (0, 0), BuildingBlock: KIFKEQ_clean_linker_1, # of connection points: 2
#     Edge 115, Type (0, 0), BuildingBlock: KIFKEQ_clean_linker_1, # of connection points: 2
#     Edge 116, Type (0, 0), BuildingBlock: KIFKEQ_clean_linker_1, # of connection points: 2
#     Edge 117, Type (0, 0), BuildingBlock: KIFKEQ_clean_linker_1, # of connection points: 2
#     Edge 118, Type (0, 0), BuildingBlock: KIFKEQ_clean_linker_1, # of connection points: 2
#     Edge 119, Type (0, 0), BuildingBlock: KIFKEQ_clean_linker_1, # of connection points: 2
#     Edge 120, Type (0, 0), BuildingBlock: KIFKEQ_clean_linker_1, # of connection points: 2
#     Edge 121, Type (0, 0), BuildingBlock: KIFKEQ_clean_linker_1, # of connection points: 2
#     Edge 122, Type (0, 0), BuildingBlock: KIFKEQ_clean_linker_1, # of connection points: 2
#     Edge 123, Type (0, 0), BuildingBlock: KIFKEQ_clean_linker_1, # of connection points: 2
#     Edge 124, Type (0, 0), BuildingBlock: KIFKEQ_clean_linker_1, # of connection points: 2
#     Edge 125, Type (0, 0), BuildingBlock: KIFKEQ_clean_linker_1, # of connection points: 2
#     Edge 126, Type (0, 0), BuildingBlock: KIFKEQ_clean_linker_1, # of connection points: 2
#     Edge 127, Type (0, 0), BuildingBlock: KIFKEQ_clean_linker_1, # of connection points: 2
#     Edge 128, Type (0, 0), BuildingBlock: KIFKEQ_clean_linker_1, # of connection points: 2
#     Edge 129, Type (0, 0), BuildingBlock: KIFKEQ_clean_linker_1, # of connection points: 2
#     Edge 130, Type (0, 0), BuildingBlock: KIFKEQ_clean_linker_1, # of connection points: 2
#     Edge 131, Type (0, 0), BuildingBlock: KIFKEQ_clean_linker_1, # of connection points: 2
#     Edge 132, Type (0, 0), BuildingBlock: KIFKEQ_clean_linker_1, # of connection points: 2
#     Edge 133, Type (0, 0), BuildingBlock: KIFKEQ_clean_linker_1, # of connection points: 2
#     Edge 134, Type (0, 0), BuildingBlock: KIFKEQ_clean_linker_1, # of connection points: 2
#     Edge 135, Type (0, 0), BuildingBlock: KIFKEQ_clean_linker_1, # of connection points: 2
#     Edge 136, Type (0, 0), BuildingBlock: KIFKEQ_clean_linker_1, # of connection points: 2
#     Edge 137, Type (0, 0), BuildingBlock: KIFKEQ_clean_linker_1, # of connection points: 2
#     Edge 138, Type (0, 0), BuildingBlock: KIFKEQ_clean_linker_1, # of connection points: 2
#     Edge 139, Type (0, 0), BuildingBlock: KIFKEQ_clean_linker_1, # of connection points: 2
#     Edge 140, Type (0, 0), BuildingBlock: KIFKEQ_clean_linker_1, # of connection points: 2
#     Edge 141, Type (0, 0), BuildingBlock: KIFKEQ_clean_linker_1, # of connection points: 2
#     Edge 142, Type (0, 0), BuildingBlock: KIFKEQ_clean_linker_1, # of connection points: 2
#     Edge 143, Type (0, 0), BuildingBlock: KIFKEQ_clean_linker_1, # of connection points: 2
#     Edge 144, Type (0, 0), BuildingBlock: KIFKEQ_clean_linker_1, # of connection points: 2
#     Edge 145, Type (0, 0), BuildingBlock: KIFKEQ_clean_linker_1, # of connection points: 2
#     Edge 146, Type (0, 0), BuildingBlock: KIFKEQ_clean_linker_1, # of connection points: 2
#     Edge 147, Type (0, 0), BuildingBlock: KIFKEQ_clean_linker_1, # of connection points: 2
#     Edge 148, Type (0, 0), BuildingBlock: KIFKEQ_clean_linker_1, # of connection points: 2
#     Edge 149, Type (0, 0), BuildingBlock: KIFKEQ_clean_linker_1, # of connection points: 2
#     Edge 150, Type (0, 0), BuildingBlock: KIFKEQ_clean_linker_1, # of connection points: 2
#     Edge 151, Type (0, 0), BuildingBlock: KIFKEQ_clean_linker_1, # of connection points: 2
#     Edge 152, Type (0, 0), BuildingBlock: KIFKEQ_clean_linker_1, # of connection points: 2
#     Edge 153, Type (0, 0), BuildingBlock: KIFKEQ_clean_linker_1, # of connection points: 2
#     Edge 154, Type (0, 0), BuildingBlock: KIFKEQ_clean_linker_1, # of connection points: 2
#     Edge 155, Type (0, 0), BuildingBlock: KIFKEQ_clean_linker_1, # of connection points: 2
#     Edge 156, Type (0, 0), BuildingBlock: KIFKEQ_clean_linker_1, # of connection points: 2
#     Edge 157, Type (0, 0), BuildingBlock: KIFKEQ_clean_linker_1, # of connection points: 2
#     Edge 158, Type (0, 0), BuildingBlock: KIFKEQ_clean_linker_1, # of connection points: 2
#     Edge 159, Type (0, 0), BuildingBlock: KIFKEQ_clean_linker_1, # of connection points: 2
# Relax obj value: 0.101
# Max RMSD: 0.247
# Mean RMSD: 0.187
data_MOF--net-sou--node1-EBIMEJ_clean_sbu_0--edge1-KIFKEQ_clean_linker_1
_symmetry_space_group_name_H-M    P1
_symmetry_Int_Tables_number       1
_symmetry_cell_setting            triclinic
loop_
_symmetry_equiv_pos_as_xyz
'x, y, z'
_cell_length_a     66.784337
_cell_length_b     43.857532
_cell_length_c     44.943505
_cell_angle_alpha  88.705465
_cell_angle_beta   96.647707
_cell_angle_gamma 94.343411
loop_
_atom_site_label
_atom_site_type_symbol
_atom_site_fract_x
_atom_site_fract_y
_atom_site_fract_z
_atom_type_partial_charge
Co0 Co 0.9844 0.26808 0.00937 0.0
Co1 Co 1.00861 0.33572 0.00121 0.0
Co2 Co 0.03056 0.28524 0.03336 0.0
H3 H 1.00702 0.2851 0.02354 0.0
O4 O 1.00258 0.30177 0.02879 0.0
H5 H 0.03266 0.33432 0.00727 0.0
O6 O 0.03619 0.31676 0.00258 0.0
Co7 Co 0.05679 0.3503 0.01676 0.0
O8 O 0.04486 0.38863 0.00019 0.0
O9 O 0.01521 0.3721 0.9755 0.0
O10 O 0.07662 0.32076 0.03585 0.0
O11 O 0.05917 0.2755 0.04182 0.0
O12 O 0.9707 0.22681 -0.00719 0.0
O13 O 0.95361 0.25839 0.0096 0.0
O14 O 0.04611 0.36115 0.05504 0.0
O15 O 1.01343 0.36134 0.03769 0.0
C16 C 1.00869 0.23206 0.05861 0.0
C17 C 0.964 0.32969 0.00113 0.0
C18 C 0.08865 0.37945 0.003 0.0
C19 C 0.01601 0.25314 0.97649 0.0
C20 C 0.02916 0.39323 0.98231 0.0
C21 C 0.0756 0.29256 0.04362 0.0
C22 C 0.9533 0.23258 -0.00201 0.0
C23 C 0.02811 0.36726 0.05791 0.0
O24 O 0.99399 0.2338 0.03781 0.0
O25 O 0.02327 0.25275 0.06264 0.0
O26 O 0.98002 0.34689 -0.00202 0.0
O27 O 0.96407 0.30079 0.00593 0.0
O28 O 0.07947 0.38507 0.02487 0.0
O29 O 0.07978 0.35695 0.98878 0.0
O30 O 0.99971 0.26643 0.97384 0.0
O31 O 0.02768 0.25411 0.00098 0.0
Co32 Co 0.29266 0.92845 0.00671 0.0
Co33 Co 0.24748 0.91841 0.02917 0.0
Co34 Co 0.27147 0.97875 0.03928 0.0
H35 H 0.27928 0.94818 0.02856 0.0
O36 O 0.27595 0.93288 0.03968 0.0
H37 H 0.23968 0.94778 0.04254 0.0
O38 O 0.24262 0.96376 0.03207 0.0
Co39 Co 0.22648 0.96517 0.06661 0.0
O40 O 0.20379 0.93298 0.05052 0.0
O41 O 0.21846 0.90433 0.0199 0.0
O42 O 0.23612 0.01093 0.06917 0.0
O43 O 0.26411 0.02068 0.04565 0.0
O44 O 0.31964 0.93063 0.9885 0.0
O45 O 0.31439 0.8993 0.02262 0.0
O46 O 0.24702 0.94762 0.09727 0.0
O47 O 0.24761 0.90502 0.07176 0.0
C48 C 0.31313 0.99064 0.02219 0.0
C49 C 0.26883 0.86587 0.00994 0.0
C50 C 0.19734 0.97755 0.09337 0.0
C51 C 0.2669 0.97076 0.97232 0.0
C52 C 0.20296 0.91116 0.0318 0.0
C53 C 0.24999 0.02938 0.05973 0.0
C54 C 0.32676 0.90987 0.00528 0.0
C55 C 0.25179 0.92031 0.09569 0.0
O56 O 0.3096 0.96866 0.00372 0.0
O57 O 0.3012 0.99443 0.04216 0.0
O58 O 0.25419 0.87645 0.02126 0.0
O59 O 0.28402 0.88271 0.00251 0.0
O60 O 0.21496 0.97492 0.1059 0.0
O61 O 0.19631 0.97319 0.06569 0.0
O62 O 0.27357 0.94433 0.97302 0.0
O63 O 0.26827 0.98742 -0.00454 0.0
Co64 Co 0.98452 0.99239 0.21753 0.0
Co65 Co 1.00323 0.92526 0.22149 0.0
Co66 Co 0.0288 0.97996 0.20162 0.0
H67 H 1.00539 0.9784 0.20584 0.0
O68 O 0.99918 0.9626 0.19712 0.0
H69 H 0.02696 0.92766 0.22034 0.0
O70 O 0.03279 0.94405 0.22854 0.0
Co71 Co 0.04869 0.91336 0.2121 0.0
O72 O 0.03549 0.8731 0.22473 0.0
O73 O 1.00781 0.88594 0.2439 0.0
O74 O 0.06961 0.94345 0.19699 0.0
O75 O 0.05866 0.99043 0.20053 0.0
O76 O 0.97343 0.02844 0.23851 0.0
O77 O 0.95453 1.0019 0.2081 0.0
O78 O 0.03422 0.91806 0.1707 0.0
O79 O 1.00376 0.90362 0.18308 0.0
C80 C 1.0095 0.03515 0.17815 0.0
C81 C 0.95892 0.9308 0.21899 0.0
C82 C 0.07907 0.88348 0.22659 0.0
C83 C 0.01874 0.99874 0.2597 0.0
C84 C 0.02035 0.86646 0.23899 0.0
C85 C 0.07221 0.9725 0.19551 0.0
C86 C 0.95574 0.02397 0.22566 0.0
C87 C 0.01627 0.90679 0.16373 0.0
O88 O 0.99518 0.02997 0.19469 0.0
O89 O 0.02297 0.01633 0.17583 0.0
O90 O 0.97358 0.91379 0.21792 0.0
O91 O 0.96124 0.95998 0.21982 0.0
O92 O 0.06243 0.87239 0.21401 0.0
O93 O 0.0784 0.91147 0.23133 0.0
O94 O 1.00268 0.98166 0.25431 0.0
O95 O 0.0295 0.00551 0.23851 0.0
Co96 Co 0.29213 0.26991 0.20418 0.0
Co97 Co 0.27252 0.33438 0.21686 0.0
Co98 Co 0.24667 0.28441 0.18296 0.0
H99 H 0.27034 0.28583 0.19174 0.0
O100 O 0.2757 0.30344 0.18707 0.0
H101 H 0.24824 0.33128 0.21173 0.0
O102 O 0.24363 0.31293 0.21558 0.0
Co103 Co 0.22493 0.34585 0.20444 0.0
O104 O 0.23919 0.38354 0.22414 0.0
O105 O 0.26894 0.36812 0.24476 0.0
O106 O 0.20321 0.31599 0.18383 0.0
O107 O 0.21738 0.27258 0.17519 0.0
O108 O 0.30732 0.23683 0.22956 0.0
O109 O 0.31989 0.25806 0.19379 0.0
O110 O 0.23601 0.36766 0.16963 0.0
O111 O 0.26902 0.36405 0.18277 0.0
C112 C 0.26526 0.23638 0.15309 0.0
C113 C 0.31667 0.3322 0.21419 0.0
C114 C 0.19439 0.37075 0.2175 0.0
C115 C 0.26001 0.24874 0.23767 0.0
C116 C 0.25593 0.38824 0.24052 0.0
C117 C 0.20217 0.28857 0.17451 0.0
C118 C 0.32216 0.23862 0.21461 0.0
C119 C 0.25439 0.37481 0.16615 0.0
O120 O 0.28078 0.23839 0.17273 0.0
O121 O 0.25128 0.25495 0.15186 0.0
O122 O 0.30198 0.3475 0.21984 0.0
O123 O 0.3145 0.30398 0.20718 0.0
O124 O 0.21123 0.3845 0.21461 0.0
O125 O 0.19487 0.34254 0.21341 0.0
O126 O 0.27734 0.2629 0.24033 0.0
O127 O 0.24814 0.25048 0.21354 0.0
Co128 Co 0.97197 0.65166 0.96912 0.0
Co129 Co 0.99728 0.71753 0.95212 0.0
Co130 Co 0.01994 0.66794 0.98442 0.0
H131 H 0.99585 0.66854 0.97837 0.0
O132 O 0.99212 0.68599 0.98303 0.0
H133 H 0.02094 0.71808 0.96138 0.0
O134 O 0.0254 0.70141 0.95611 0.0
Co135 Co 0.04366 0.73528 0.97503 0.0
O136 O 0.03483 0.76705 0.94345 0.0
O137 O 1.00391 0.75004 0.92254 0.0
O138 O 0.06401 0.70291 0.97641 0.0
O139 O 0.04866 0.65734 0.9877 0.0
O140 O 0.94286 0.63242 0.95752 0.0
O141 O 0.95459 0.63357 0.00206 0.0
O142 O 0.02872 0.73713 0.0109 0.0
O143 O 1.00038 0.74886 0.98432 0.0
C144 C 1.00081 0.6101 0.00323 0.0
C145 C 0.95247 0.70879 0.94146 0.0
C146 C 0.07426 0.77136 0.9886 0.0
C147 C 1.00091 0.6334 0.92895 0.0
C148 C 0.01939 0.76925 0.92402 0.0
C149 C 0.06437 0.67427 0.9824 0.0
C150 C 0.93954 0.62528 0.98381 0.0
C151 C 1.01233 0.75019 0.00854 0.0
O152 O 0.98487 0.61356 0.98537 0.0
O153 O 1.01372 0.63235 0.01086 0.0
O154 O 0.96854 0.72666 0.94436 0.0
O155 O 0.95197 0.68037 0.94852 0.0
O156 O 0.07413 0.74274 0.9899 0.0
O157 O 0.05691 0.77963 0.97991 0.0
O158 O 0.98276 0.63911 0.93128 0.0
O159 O 0.01547 0.64104 0.94883 0.0
Co160 Co 0.79995 0.04133 0.91707 0.0
Co161 Co 0.75574 0.02683 0.94573 0.0
Co162 Co 0.78043 0.08599 0.95822 0.0
H163 H 0.78759 0.05736 0.94292 0.0
O164 O 0.7847 0.04089 0.95268 0.0
H165 H 0.74831 0.05715 0.95748 0.0
O166 O 0.75184 0.07283 0.94696 0.0
Co167 Co 0.73526 0.07622 0.98025 0.0
O168 O 0.71842 0.03591 0.98318 0.0
O169 O 0.72595 0.01177 0.94316 0.0
O170 O 0.74454 0.12137 0.98708 0.0
O171 O 0.77428 0.12763 0.96813 0.0
O172 O 0.81444 0.04025 0.8788 0.0
O173 O 0.82765 0.0231 0.91912 0.0
O174 O 0.75506 0.05997 0.01269 0.0
O175 O 0.75933 0.01696 0.98935 0.0
C176 C 0.8243 0.09365 0.95352 0.0
C177 C 0.77641 0.9769 0.92279 0.0
C178 C 0.70118 0.09504 0.98078 0.0
C179 C 0.77518 0.08849 0.89215 0.0
C180 C 0.71455 0.01462 0.96402 0.0
C181 C 0.75983 0.13817 0.97993 0.0
C182 C 0.82945 0.02781 0.89186 0.0
C183 C 0.76139 0.03336 0.01273 0.0
O184 O 0.82248 0.07432 0.93219 0.0
O185 O 0.8096 0.0984 0.9682 0.0
O186 O 0.76263 0.98507 0.93785 0.0
O187 O 0.79003 0.99571 0.91317 0.0
O188 O 0.70911 0.07728 0.00025 0.0
O189 O 0.71271 0.1024 0.9612 0.0
O190 O 0.77893 0.06097 0.88849 0.0
O191 O 0.78106 0.10199 0.91667 0.0
Co192 Co 0.97823 0.08816 0.77689 0.0
Co193 Co 0.99874 0.02311 0.78433 0.0
Co194 Co 0.02304 0.0784 0.76296 0.0
H195 H 0.99957 0.07516 0.76598 0.0
O196 O 0.9937 0.05882 0.75777 0.0
H197 H 0.02207 0.02538 0.77944 0.0
O198 O 0.02815 0.04152 0.78772 0.0
Co199 Co 0.04312 0.01202 0.76761 0.0
O200 O 0.03341 0.97455 0.791 0.0
O201 O 1.00525 0.9866 0.80973 0.0
O202 O 0.06611 0.04521 0.76907 0.0
O203 O 0.05255 0.09083 0.76462 0.0
O204 O 0.95527 0.11213 0.79008 0.0
O205 O 0.956 0.1038 0.74516 0.0
O206 O 0.02438 0.02147 0.731 0.0
O207 O 0.99772 0.99766 0.74746 0.0
C208 C 1.00354 0.13531 0.74417 0.0
C209 C 0.9582 0.03 0.7996 0.0
C210 C 0.07214 0.98118 0.75864 0.0
C211 C 1.01205 0.09598 0.82215 0.0
C212 C 0.01917 0.9685 0.80748 0.0
C213 C 0.06776 0.0744 0.76728 0.0
C214 C 0.94666 0.11582 0.76406 0.0
C215 C 1.00839 0.00408 0.72612 0.0
O216 O 0.98896 0.12793 0.75941 0.0
O217 O 0.01703 0.11701 0.74005 0.0
O218 O 0.96907 0.01262 0.78663 0.0
O219 O 0.96246 0.05871 0.80216 0.0
O220 O 0.05432 0.97605 0.74648 0.0
O221 O 0.07334 0.00352 0.77585 0.0
O222 O 0.99443 0.08296 0.81688 0.0
O223 O 0.02331 0.10073 0.80127 0.0
Co224 Co 0.80325 0.65938 0.78156 0.0
Co225 Co 0.78137 0.72123 0.80085 0.0
Co226 Co 0.75582 0.67017 0.7682 0.0
H227 H 0.78 0.67368 0.77332 0.0
O228 O 0.78456 0.69192 0.76895 0.0
H229 H 0.75767 0.71955 0.79183 0.0
O230 O 0.75237 0.70204 0.79691 0.0
Co231 Co 0.7357 0.73493 0.77901 0.0
O232 O 0.7469 0.76707 0.80993 0.0
O233 O 0.77654 0.75129 0.83123 0.0
O234 O 0.71387 0.6999 0.77854 0.0
O235 O 0.72651 0.6565 0.76568 0.0
O236 O 0.83088 0.64213 0.79532 0.0
O237 O 0.82036 0.64309 0.75022 0.0
O238 O 0.75056 0.74248 0.74299 0.0
O239 O 0.77992 0.75463 0.76965 0.0
C240 C 0.77258 0.61528 0.74739 0.0
C241 C 0.82597 0.71701 0.81022 0.0
C242 C 0.70547 0.76569 0.76713 0.0
C243 C 0.77426 0.63429 0.82197 0.0
C244 C 0.76242 0.76964 0.82957 0.0
C245 C 0.71186 0.67148 0.77206 0.0
C246 C 0.83439 0.63552 0.76948 0.0
C247 C 0.76792 0.75661 0.74566 0.0
O248 O 0.78903 0.62039 0.76436 0.0
O249 O 0.75976 0.63551 0.7416 0.0
O250 O 0.81076 0.73313 0.80886 0.0
O251 O 0.82494 0.68936 0.80165 0.0
O252 O 0.72347 0.77638 0.76709 0.0
O253 O 0.70473 0.73772 0.77367 0.0
O254 O 0.79253 0.64269 0.81888 0.0
O255 O 0.75956 0.64202 0.80346 0.0
Co256 Co 0.98506 0.76762 0.50844 0.0
Co257 Co 1.00856 0.83606 0.50235 0.0
Co258 Co 0.03136 0.7855 0.53295 0.0
H259 H 1.00769 0.78464 0.52299 0.0
O260 O 1.00304 0.80093 0.52881 0.0
H261 H 0.03252 0.83523 0.50827 0.0
O262 O 0.03645 0.81814 0.50299 0.0
Co263 Co 0.05619 0.85184 0.5189 0.0
O264 O 0.04444 0.89009 0.50211 0.0
O265 O 0.01462 0.87367 0.47785 0.0
O266 O 0.0734 0.82604 0.54774 0.0
O267 O 0.06053 0.77755 0.54169 0.0
O268 O 0.96549 0.74139 0.47803 0.0
O269 O 0.95989 0.74318 0.52221 0.0
O270 O 0.04541 0.85947 0.55777 0.0
O271 O 1.01294 0.86052 0.53973 0.0
C272 C 1.00958 0.73173 0.55782 0.0
C273 C 0.96393 0.82846 0.5014 0.0
C274 C 0.08792 0.88026 0.50388 0.0
C275 C 0.0172 0.75436 0.4755 0.0
C276 C 0.02857 0.89481 0.48469 0.0
C277 C 0.07447 0.79734 0.55213 0.0
C278 C 0.95381 0.73223 0.49691 0.0
C279 C 0.0274 0.8654 0.56056 0.0
O280 O 0.99471 0.73383 0.53735 0.0
O281 O 0.02448 0.75199 0.56151 0.0
O282 O 0.97987 0.84622 0.49953 0.0
O283 O 0.96417 0.79944 0.50492 0.0
O284 O 0.08013 0.88442 0.52741 0.0
O285 O 0.07771 0.8596 0.48857 0.0
O286 O 1.00079 0.76738 0.4732 0.0
O287 O 0.02898 0.75515 0.4999 0.0
Co288 Co 0.29259 0.42751 0.5045 0.0
Co289 Co 0.24693 0.41837 0.5254 0.0
Co290 Co 0.27183 0.47727 0.53847 0.0
H291 H 0.2793 0.44684 0.52685 0.0
O292 O 0.27556 0.43118 0.53721 0.0
H293 H 0.23988 0.44691 0.5409 0.0
O294 O 0.24283 0.46344 0.53129 0.0
Co295 Co 0.22768 0.46266 0.56704 0.0
O296 O 0.20504 0.42988 0.55164 0.0
O297 O 0.21773 0.40634 0.51509 0.0
O298 O 0.23745 0.50837 0.57071 0.0
O299 O 0.26498 0.51905 0.54632 0.0
O300 O 0.31205 0.40479 0.48201 0.0
O301 O 0.32161 0.42243 0.52422 0.0
O302 O 0.24891 0.44285 0.59513 0.0
O303 O 0.24591 0.402 0.56673 0.0
C304 C 0.31333 0.48918 0.52092 0.0
C305 C 0.26767 0.36578 0.50468 0.0
C306 C 0.19878 0.47527 0.59405 0.0
C307 C 0.2667 0.47059 0.47153 0.0
C308 C 0.2031 0.41084 0.53004 0.0
C309 C 0.25112 0.5272 0.56124 0.0
C310 C 0.3265 0.40838 0.50247 0.0
C311 C 0.25233 0.41526 0.59117 0.0
O312 O 0.30964 0.46768 0.50195 0.0
O313 O 0.30164 0.49231 0.54135 0.0
O314 O 0.25288 0.37673 0.51527 0.0
O315 O 0.28338 0.3822 0.49855 0.0
O316 O 0.2122 0.45805 0.60438 0.0
O317 O 0.20182 0.48533 0.56845 0.0
O318 O 0.27312 0.44402 0.47174 0.0
O319 O 0.26848 0.48704 0.49485 0.0
Co320 Co 0.98521 0.49165 0.71919 0.0
Co321 Co 1.00453 0.42421 0.718 0.0
Co322 Co 0.02905 0.48086 0.70047 0.0
H323 H 1.00588 0.47857 0.70603 0.0
O324 O 0.99956 0.46318 0.69676 0.0
H325 H 0.02816 0.428 0.71609 0.0
O326 O 0.03388 0.4439 0.72537 0.0
Co327 Co 0.04978 0.41595 0.70516 0.0
O328 O 0.03624 0.37424 0.71125 0.0
O329 O 1.01019 0.38278 0.73622 0.0
O330 O 0.06781 0.44655 0.68473 0.0
O331 O 0.05871 0.49202 0.69845 0.0
O332 O 0.97325 0.5244 0.74353 0.0
O333 O 0.95562 0.50285 0.70819 0.0
O334 O 0.0346 0.4234 0.66468 0.0
O335 O 1.00455 0.40681 0.67738 0.0
C336 C 1.00877 0.53583 0.679 0.0
C337 C 0.96037 0.42873 0.71762 0.0
C338 C 0.0807 0.38743 0.72101 0.0
C339 C 0.02032 0.49924 0.75997 0.0
C340 C 0.02189 0.36456 0.72611 0.0
C341 C 0.07088 0.47542 0.6872 0.0
C342 C 0.95613 0.52219 0.72849 0.0
C343 C 0.01663 0.41218 0.65763 0.0
O344 O 0.99479 0.52994 0.69606 0.0
O345 O 0.02248 0.51765 0.67607 0.0
O346 O 0.975 0.41206 0.71488 0.0
O347 O 0.96263 0.45781 0.72034 0.0
O348 O 0.06387 0.37538 0.71032 0.0
O349 O 0.08002 0.41584 0.72313 0.0
O350 O 1.00394 0.48265 0.75602 0.0
O351 O 0.03037 0.50558 0.73793 0.0
Co352 Co 0.29232 0.76837 0.70645 0.0
Co353 Co 0.27262 0.83319 0.71739 0.0
Co354 Co 0.24673 0.78221 0.68489 0.0
H355 H 0.27043 0.78387 0.69361 0.0
O356 O 0.27575 0.80135 0.68845 0.0
H357 H 0.24839 0.82959 0.71296 0.0
O358 O 0.24391 0.81127 0.7172 0.0
Co359 Co 0.22498 0.84378 0.70597 0.0
O360 O 0.2392 0.88259 0.72333 0.0
O361 O 0.26906 0.8679 0.74428 0.0
O362 O 0.20291 0.81168 0.69075 0.0
O363 O 0.21734 0.77007 0.67755 0.0
O364 O 0.31794 0.75811 0.73442 0.0
O365 O 0.30976 0.73421 0.69519 0.0
O366 O 0.23522 0.86219 0.66892 0.0
O367 O 0.26842 0.86152 0.68234 0.0
C368 C 0.26541 0.73399 0.65569 0.0
C369 C 0.31673 0.83113 0.71446 0.0
C370 C 0.19462 0.86944 0.71861 0.0
C371 C 0.26027 0.74647 0.73978 0.0
C372 C 0.25597 0.88787 0.73947 0.0
C373 C 0.20189 0.78468 0.68038 0.0
C374 C 0.32245 0.73746 0.71799 0.0
C375 C 0.25342 0.87018 0.66495 0.0
O376 O 0.28097 0.7365 0.67527 0.0
O377 O 0.2513 0.75235 0.65418 0.0
O378 O 0.30199 0.84671 0.71941 0.0
O379 O 0.31461 0.80261 0.70862 0.0
O380 O 0.2108 0.88315 0.71235 0.0
O381 O 0.19567 0.84094 0.71805 0.0
O382 O 0.27762 0.7606 0.74259 0.0
O383 O 0.24835 0.74858 0.71576 0.0
Co384 Co 0.97073 0.15434 0.46764 0.0
Co385 Co 0.99618 0.21998 0.44934 0.0
Co386 Co 0.0188 0.17052 0.48177 0.0
H387 H 0.99469 0.17131 0.4762 0.0
O388 O 0.99107 0.18888 0.4807 0.0
H389 H 0.01988 0.22055 0.45862 0.0
O390 O 0.02427 0.20384 0.45339 0.0
Co391 Co 0.04272 0.23757 0.47205 0.0
O392 O 0.03381 0.26893 0.44002 0.0
O393 O 1.00282 0.25201 0.41929 0.0
O394 O 0.06333 0.20551 0.47575 0.0
O395 O 0.04745 0.15969 0.48477 0.0
O396 O 0.94752 0.1205 0.4591 0.0
O397 O 0.9485 0.14679 0.4968 0.0
O398 O 0.02781 0.24108 0.50773 0.0
O399 O 0.99939 0.25203 0.48086 0.0
C400 C 0.99967 0.11272 0.50108 0.0
C401 C 0.95123 0.21161 0.44006 0.0
C402 C 0.07367 0.27321 0.48414 0.0
C403 C 0.99917 0.13683 0.42621 0.0
C404 C 0.01837 0.27108 0.42057 0.0
C405 C 0.06344 0.17676 0.48111 0.0
C406 C 0.93904 0.1252 0.4819 0.0
C407 C 1.01151 0.25439 0.50487 0.0
O408 O 0.98361 0.11613 0.48351 0.0
O409 O 1.01267 0.13495 0.5083 0.0
O410 O 0.96746 0.22909 0.44153 0.0
O411 O 0.95057 0.18348 0.44823 0.0
O412 O 0.06542 0.2674 0.45815 0.0
O413 O 0.06432 0.25877 0.5034 0.0
O414 O 0.98108 0.14208 0.42952 0.0
O415 O 0.014 0.14413 0.4458 0.0
Co416 Co 0.80021 0.54092 0.41571 0.0
Co417 Co 0.75581 0.52616 0.44409 0.0
Co418 Co 0.7802 0.58578 0.45615 0.0
H419 H 0.78763 0.55704 0.44128 0.0
O420 O 0.78476 0.54067 0.45121 0.0
H421 H 0.74809 0.55656 0.45546 0.0
O422 O 0.75164 0.57211 0.44479 0.0
Co423 Co 0.73472 0.57602 0.47764 0.0
O424 O 0.71693 0.5364 0.47903 0.0
O425 O 0.72608 0.51051 0.44114 0.0
O426 O 0.7441 0.62111 0.4846 0.0
O427 O 0.77377 0.62744 0.46546 0.0
O428 O 0.8119 0.53129 0.3765 0.0
O429 O 0.83035 0.53267 0.41689 0.0
O430 O 0.75413 0.55971 0.51063 0.0
O431 O 0.75906 0.5167 0.48775 0.0
C432 C 0.82426 0.59377 0.45205 0.0
C433 C 0.77681 0.47635 0.42159 0.0
C434 C 0.70099 0.59598 0.47919 0.0
C435 C 0.77504 0.58738 0.39017 0.0
C436 C 0.71371 0.51452 0.46043 0.0
C437 C 0.75933 0.63794 0.47732 0.0
C438 C 0.82945 0.52844 0.38921 0.0
C439 C 0.76068 0.53322 0.51101 0.0
O440 O 0.82276 0.57376 0.43134 0.0
O441 O 0.80932 0.59884 0.46614 0.0
O442 O 0.76302 0.48448 0.43667 0.0
O443 O 0.7904 0.49521 0.41194 0.0
O444 O 0.71548 0.59985 0.49953 0.0
O445 O 0.70573 0.58113 0.45785 0.0
O446 O 0.77902 0.55992 0.38681 0.0
O447 O 0.78091 0.60127 0.41447 0.0
Co448 Co 0.97831 0.59088 0.27337 0.0
Co449 Co 0.99841 0.52514 0.28102 0.0
Co450 Co 0.02329 0.58061 0.26061 0.0
H451 H 0.99976 0.57758 0.26313 0.0
O452 O 0.99383 0.56132 0.25479 0.0
H453 H 0.02176 0.52733 0.27631 0.0
O454 O 0.02795 0.54324 0.2849 0.0
Co455 Co 0.04265 0.51391 0.26401 0.0
O456 O 0.03298 0.47651 0.28763 0.0
O457 O 1.00466 0.48832 0.30604 0.0
O458 O 0.06546 0.54659 0.26069 0.0
O459 O 0.05289 0.59258 0.26286 0.0
O460 O 0.95334 0.60963 0.28685 0.0
O461 O 0.95868 0.61312 0.24243 0.0
O462 O 0.02402 0.52471 0.22776 0.0
O463 O 0.99754 0.50017 0.24383 0.0
C464 C 1.00464 0.63838 0.24294 0.0
C465 C 0.95538 0.5317 0.28964 0.0
C466 C 0.07161 0.48251 0.25605 0.0
C467 C 1.01181 0.59834 0.31957 0.0
C468 C 0.01864 0.4703 0.30389 0.0
C469 C 0.0676 0.57575 0.26136 0.0
C470 C 0.94718 0.61954 0.26126 0.0
C471 C 1.00814 0.50719 0.22252 0.0
O472 O 0.99019 0.63093 0.25837 0.0
O473 O 0.01779 0.61981 0.23805 0.0
O474 O 0.9686 0.51412 0.28259 0.0
O475 O 0.95822 0.56071 0.29003 0.0
O476 O 0.05425 0.47909 0.24184 0.0
O477 O 0.07238 0.50346 0.27481 0.0
O478 O 0.99402 0.58602 0.31384 0.0
O479 O 0.02347 0.60244 0.29913 0.0
Co480 Co 0.80241 0.15853 0.27925 0.0
Co481 Co 0.78056 0.22038 0.29906 0.0
Co482 Co 0.75469 0.16878 0.26788 0.0
H483 H 0.77893 0.17244 0.27217 0.0
O484 O 0.78329 0.19066 0.26742 0.0
H485 H 0.75677 0.21823 0.29117 0.0
O486 O 0.75167 0.20076 0.29671 0.0
Co487 Co 0.73466 0.23327 0.27859 0.0
O488 O 0.74594 0.26556 0.30936 0.0
O489 O 0.7762 0.25092 0.32926 0.0
O490 O 0.71205 0.19967 0.27321 0.0
O491 O 0.72543 0.15511 0.26615 0.0
O492 O 0.83163 0.1466 0.2918 0.0
O493 O 0.81872 0.1404 0.24804 0.0
O494 O 0.74907 0.237 0.24197 0.0
O495 O 0.77801 0.25299 0.26717 0.0
C496 C 0.77152 0.11466 0.24492 0.0
C497 C 0.8249 0.2164 0.30805 0.0
C498 C 0.70506 0.26539 0.26761 0.0
C499 C 0.7737 0.12898 0.31852 0.0
C500 C 0.76185 0.26881 0.3282 0.0
C501 C 0.71035 0.17093 0.26852 0.0
C502 C 0.83407 0.13695 0.26646 0.0
C503 C 0.76561 0.25328 0.24346 0.0
O504 O 0.78851 0.12014 0.26048 0.0
O505 O 0.75817 0.13428 0.24089 0.0
O506 O 0.80987 0.23292 0.30543 0.0
O507 O 0.82368 0.18836 0.30066 0.0
O508 O 0.71391 0.25367 0.24799 0.0
O509 O 0.71307 0.25897 0.29344 0.0
O510 O 0.79191 0.13537 0.3137 0.0
O511 O 0.75885 0.14028 0.30287 0.0
Co512 Co 0.48413 0.2683 0.50896 0.0
Co513 Co 0.509 0.3357 0.50127 0.0
Co514 Co 0.53049 0.28475 0.53367 0.0
H515 H 0.50692 0.28488 0.52344 0.0
O516 O 0.50256 0.30165 0.52864 0.0
H517 H 0.53297 0.33415 0.50822 0.0
O518 O 0.53658 0.31666 0.50347 0.0
Co519 Co 0.55693 0.35006 0.51879 0.0
O520 O 0.54515 0.38868 0.50257 0.0
O521 O 0.51613 0.37223 0.47601 0.0
O522 O 0.57657 0.3203 0.53802 0.0
O523 O 0.5591 0.27478 0.54259 0.0
O524 O 0.47054 0.22649 0.49344 0.0
O525 O 0.45313 0.25911 0.5076 0.0
O526 O 0.54553 0.36027 0.55688 0.0
O527 O 0.5133 0.36149 0.53754 0.0
C528 C 0.50749 0.23254 0.55963 0.0
C529 C 0.46417 0.32998 0.49876 0.0
C530 C 0.58899 0.37858 0.50489 0.0
C531 C 0.51603 0.25317 0.47649 0.0
C532 C 0.52981 0.39345 0.48395 0.0
C533 C 0.57552 0.29192 0.54514 0.0
C534 C 0.45297 0.23276 0.4972 0.0
C535 C 0.52751 0.36713 0.55852 0.0
O536 O 0.49245 0.23525 0.53958 0.0
O537 O 0.52292 0.25186 0.56239 0.0
O538 O 0.48045 0.34707 0.4971 0.0
O539 O 0.46389 0.30102 0.5032 0.0
O540 O 0.58153 0.3814 0.52899 0.0
O541 O 0.57832 0.35921 0.48856 0.0
O542 O 0.49978 0.26663 0.47377 0.0
O543 O 0.52766 0.25399 0.50101 0.0
Co544 Co 0.79305 0.92835 0.50743 0.0
Co545 Co 0.74669 0.91953 0.52631 0.0
Co546 Co 0.77145 0.97856 0.53959 0.0
H547 H 0.77921 0.94801 0.52874 0.0
O548 O 0.77523 0.93244 0.53905 0.0
H549 H 0.73944 0.94822 0.5414 0.0
O550 O 0.74248 0.96467 0.53171 0.0
Co551 Co 0.72697 0.96415 0.56713 0.0
O552 O 0.70419 0.93228 0.55028 0.0
O553 O 0.71757 0.90747 0.51521 0.0
O554 O 0.73647 0.0101 0.57009 0.0
O555 O 0.76439 0.02037 0.54647 0.0
O556 O 0.81208 0.90402 0.48569 0.0
O557 O 0.82209 0.92345 0.52699 0.0
O558 O 0.74812 0.94457 0.59565 0.0
O559 O 0.74511 0.90342 0.56766 0.0
C560 C 0.81393 0.98975 0.52473 0.0
C561 C 0.76804 0.86667 0.50747 0.0
C562 C 0.69825 0.97406 0.5958 0.0
C563 C 0.76747 0.9709 0.47287 0.0
C564 C 0.70259 0.91272 0.52915 0.0
C565 C 0.75028 0.02878 0.56072 0.0
C566 C 0.82667 0.90816 0.50583 0.0
C567 C 0.75149 0.91689 0.59202 0.0
O568 O 0.81101 0.9678 0.5062 0.0
O569 O 0.80124 0.99383 0.5435 0.0
O570 O 0.75273 0.87777 0.51642 0.0
O571 O 0.78415 0.88288 0.50285 0.0
O572 O 0.70852 0.95116 0.59971 0.0
O573 O 0.70435 0.99148 0.57563 0.0
O574 O 0.77402 0.94439 0.47378 0.0
O575 O 0.76886 0.98774 0.49588 0.0
Co576 Co 0.48406 0.99043 0.7185 0.0
Co577 Co 0.50413 0.92402 0.72364 0.0
Co578 Co 0.52808 0.97935 0.70095 0.0
H579 H 0.5049 0.97687 0.70637 0.0
O580 O 0.49879 0.96057 0.69844 0.0
H581 H 0.52766 0.92762 0.72102 0.0
O582 O 0.53337 0.94437 0.72864 0.0
Co583 Co 0.54928 0.91438 0.71122 0.0
O584 O 0.53754 0.87413 0.72596 0.0
O585 O 0.51022 0.88534 0.74691 0.0
O586 O 0.56948 0.94469 0.69489 0.0
O587 O 0.55766 0.99108 0.69835 0.0
O588 O 0.47251 0.02468 0.74151 0.0
O589 O 0.45422 1.00051 0.70855 0.0
O590 O 0.53346 0.91904 0.67078 0.0
O591 O 0.50421 0.9016 0.68547 0.0
C592 C 0.50701 0.03276 0.67621 0.0
C593 C 0.45951 0.92776 0.71936 0.0
C594 C 0.5802 0.88518 0.72369 0.0
C595 C 0.51924 1.00098 0.7592 0.0
C596 C 0.52328 0.86671 0.74176 0.0
C597 C 0.57148 0.97374 0.69311 0.0
C598 C 0.45506 0.0212 0.72758 0.0
C599 C 0.51584 0.90611 0.66503 0.0
O600 O 0.49299 0.02706 0.69314 0.0
O601 O 0.52111 0.01485 0.67444 0.0
O602 O 0.47467 0.91125 0.72178 0.0
O603 O 0.46125 0.95696 0.71772 0.0
O604 O 0.5644 0.87526 0.70791 0.0
O605 O 0.57841 0.91165 0.73268 0.0
O606 O 0.50273 0.98461 0.75618 0.0
O607 O 0.52915 0.00624 0.73682 0.0
Co608 Co 0.79318 0.26997 0.70452 0.0
Co609 Co 0.77339 0.33464 0.71606 0.0
Co610 Co 0.74763 0.28407 0.68285 0.0
H611 H 0.77135 0.28567 0.69167 0.0
O612 O 0.77666 0.30323 0.68672 0.0
H613 H 0.74912 0.33109 0.71122 0.0
O614 O 0.74467 0.31273 0.71535 0.0
Co615 Co 0.72562 0.345 0.70385 0.0
O616 O 0.73912 0.38221 0.72508 0.0
O617 O 0.76978 0.36863 0.74381 0.0
O618 O 0.70402 0.31548 0.6828 0.0
O619 O 0.71826 0.27195 0.67513 0.0
O620 O 0.80888 0.23891 0.73192 0.0
O621 O 0.82001 0.25529 0.69307 0.0
O622 O 0.73638 0.36724 0.66912 0.0
O623 O 0.76948 0.36393 0.68165 0.0
C624 C 0.76634 0.23623 0.65322 0.0
C625 C 0.8177 0.33236 0.71505 0.0
C626 C 0.69405 0.36754 0.71601 0.0
C627 C 0.761 0.24844 0.73766 0.0
C628 C 0.75597 0.38759 0.741 0.0
C629 C 0.703 0.28794 0.67397 0.0
C630 C 0.8229 0.23807 0.71563 0.0
C631 C 0.75467 0.3745 0.66525 0.0
O632 O 0.78191 0.23851 0.6728 0.0
O633 O 0.75227 0.25463 0.65191 0.0
O634 O 0.80274 0.34815 0.7184 0.0
O635 O 0.8158 0.30374 0.70961 0.0
O636 O 0.69724 0.35995 0.69029 0.0
O637 O 0.70859 0.36155 0.73508 0.0
O638 O 0.77824 0.26288 0.74052 0.0
O639 O 0.7492 0.25016 0.71346 0.0
Co640 Co 0.47094 0.65377 0.46763 0.0
Co641 Co 0.49616 0.72 0.45037 0.0
Co642 Co 0.51896 0.66994 0.48135 0.0
H643 H 0.49487 0.67073 0.47617 0.0
O644 O 0.49124 0.68815 0.4811 0.0
H645 H 0.51992 0.72056 0.45929 0.0
O646 O 0.52427 0.70398 0.45364 0.0
Co647 Co 0.54286 0.73741 0.47266 0.0
O648 O 0.53385 0.76912 0.441 0.0
O649 O 0.50258 0.75275 0.42093 0.0
O650 O 0.56368 0.70543 0.47759 0.0
O651 O 0.54754 0.65912 0.48372 0.0
O652 O 0.45425 0.61255 0.47234 0.0
O653 O 0.44362 0.6521 0.48648 0.0
O654 O 0.52809 0.73923 0.50875 0.0
O655 O 0.49949 0.75102 0.48287 0.0
C656 C 0.5001 0.61143 0.49932 0.0
C657 C 0.4512 0.71127 0.44106 0.0
C658 C 0.57382 0.77324 0.48416 0.0
C659 C 0.49901 0.63798 0.4251 0.0
C660 C 0.51821 0.77165 0.42199 0.0
C661 C 0.56365 0.67644 0.4817 0.0
C662 C 0.44023 0.62361 0.48389 0.0
C663 C 0.51167 0.75219 0.50687 0.0
O664 O 0.48399 0.61516 0.48195 0.0
O665 O 0.51302 0.63361 0.50708 0.0
O666 O 0.46736 0.72899 0.44311 0.0
O667 O 0.45068 0.68293 0.4485 0.0
O668 O 0.55621 0.77948 0.48775 0.0
O669 O 0.57379 0.74678 0.4741 0.0
O670 O 0.48098 0.64323 0.42874 0.0
O671 O 0.51391 0.6445 0.44479 0.0
Co672 Co 0.29979 0.04088 0.41539 0.0
Co673 Co 0.25529 0.02599 0.44298 0.0
Co674 Co 0.28032 0.08449 0.45764 0.0
H675 H 0.2874 0.05627 0.44157 0.0
O676 O 0.28431 0.03954 0.45079 0.0
H677 H 0.24779 0.05602 0.45519 0.0
O678 O 0.25168 0.07198 0.44536 0.0
Co679 Co 0.23408 0.07453 0.47755 0.0
O680 O 0.21761 0.03379 0.48018 0.0
O681 O 0.22541 0.01116 0.43946 0.0
O682 O 0.24275 0.12023 0.48172 0.0
O683 O 0.27441 0.1258 0.46892 0.0
O684 O 0.31393 0.04029 0.37675 0.0
O685 O 0.32771 0.02343 0.41683 0.0
O686 O 0.25275 0.05681 0.51067 0.0
O687 O 0.25842 0.01503 0.48637 0.0
C688 C 0.32418 0.09249 0.45297 0.0
C689 C 0.27605 0.97635 0.41965 0.0
C690 C 0.20011 0.09361 0.47875 0.0
C691 C 0.27521 0.08876 0.39178 0.0
C692 C 0.21402 0.01297 0.46049 0.0
C693 C 0.25893 0.13662 0.47763 0.0
C694 C 0.3292 0.02826 0.3895 0.0
C695 C 0.25948 0.03049 0.51026 0.0
O696 O 0.32227 0.07384 0.43103 0.0
O697 O 0.30957 0.09641 0.46815 0.0
O698 O 0.26205 0.98442 0.43433 0.0
O699 O 0.28994 0.9952 0.41075 0.0
O700 O 0.21275 0.10434 0.46192 0.0
O701 O 0.20686 0.07229 0.49516 0.0
O702 O 0.27873 0.06126 0.38753 0.0
O703 O 0.28128 0.1017 0.41655 0.0
Co704 Co 0.47863 0.09135 0.27449 0.0
Co705 Co 0.49808 0.02516 0.28067 0.0
Co706 Co 0.52366 0.08042 0.26251 0.0
H707 H 0.50003 0.0779 0.26427 0.0
O708 O 0.49407 0.06203 0.25528 0.0
H709 H 0.52148 0.02671 0.27607 0.0
O710 O 0.52777 0.04214 0.28535 0.0
Co711 Co 0.54234 0.01334 0.26365 0.0
O712 O 0.5324 0.97612 0.28739 0.0
O713 O 0.50372 0.98768 0.30501 0.0
O714 O 0.56546 0.04587 0.26132 0.0
O715 O 0.55326 0.09177 0.26589 0.0
O716 O 0.45435 0.11229 0.28736 0.0
O717 O 0.45795 0.11019 0.24239 0.0
O718 O 0.52377 0.02485 0.22755 0.0
O719 O 0.49695 1.00078 0.2431 0.0
C720 C 0.50597 0.13931 0.24653 0.0
C721 C 0.45755 0.03316 0.29541 0.0
C722 C 0.57122 0.98204 0.25504 0.0
C723 C 0.51159 0.0966 0.32171 0.0
C724 C 0.51783 0.96977 0.30321 0.0
C725 C 0.56782 0.07494 0.26352 0.0
C726 C 0.44723 0.11914 0.26122 0.0
C727 C 0.50777 0.00765 0.22202 0.0
O728 O 0.4907 0.13189 0.26036 0.0
O729 O 0.51894 0.12048 0.24172 0.0
O730 O 0.46821 0.01573 0.28212 0.0
O731 O 0.46221 0.0617 0.29866 0.0
O732 O 0.5535 0.97752 0.24227 0.0
O733 O 0.57239 0.00403 0.27268 0.0
O734 O 0.49366 0.08513 0.3152 0.0
O735 O 0.52362 0.10072 0.30177 0.0
Co736 Co 0.30269 0.65913 0.28041 0.0
Co737 Co 0.28025 0.71991 0.29894 0.0
Co738 Co 0.25507 0.66847 0.26592 0.0
H739 H 0.27925 0.67254 0.27153 0.0
O740 O 0.28366 0.69084 0.26707 0.0
H741 H 0.25649 0.71742 0.29054 0.0
O742 O 0.25142 0.69967 0.29539 0.0
Co743 Co 0.23427 0.73244 0.27826 0.0
O744 O 0.2454 0.76494 0.30887 0.0
O745 O 0.27533 0.74975 0.32948 0.0
O746 O 0.21203 0.69852 0.27042 0.0
O747 O 0.22576 0.65436 0.2628 0.0
O748 O 0.33026 0.64189 0.29474 0.0
O749 O 0.32047 0.64412 0.24941 0.0
O750 O 0.24892 0.73775 0.24198 0.0
O751 O 0.27787 0.75315 0.26759 0.0
C752 C 0.27335 0.61584 0.24225 0.0
C753 C 0.32473 0.7167 0.30953 0.0
C754 C 0.20405 0.76361 0.26975 0.0
C755 C 0.2734 0.63101 0.31875 0.0
C756 C 0.26111 0.76789 0.32809 0.0
C757 C 0.21052 0.66995 0.26489 0.0
C758 C 0.33423 0.63613 0.2689 0.0
C759 C 0.26534 0.75434 0.24407 0.0
O760 O 0.28973 0.62167 0.2592 0.0
O761 O 0.25938 0.63455 0.23837 0.0
O762 O 0.30954 0.73294 0.3064 0.0
O763 O 0.32381 0.68868 0.30226 0.0
O764 O 0.22123 0.77213 0.26252 0.0
O765 O 0.2041 0.73759 0.28197 0.0
O766 O 0.29168 0.64006 0.31652 0.0
O767 O 0.25882 0.63923 0.30029 0.0
Co768 Co 0.48444 0.76808 0.01019 0.0
Co769 Co 0.50871 0.83552 0.00184 0.0
Co770 Co 0.53089 0.78483 0.03334 0.0
H771 H 0.50727 0.7848 0.02399 0.0
O772 O 0.50292 0.80147 0.02945 0.0
H773 H 0.53274 0.83405 0.00764 0.0
O774 O 0.53627 0.81657 0.00271 0.0
Co775 Co 0.55681 0.85005 0.01716 0.0
O776 O 0.54478 0.88851 0.00109 0.0
O777 O 0.51517 0.87208 0.97624 0.0
O778 O 0.57682 0.82052 0.03579 0.0
O779 O 0.55953 0.77501 0.04109 0.0
O780 O 0.47105 0.72665 -0.00649 0.0
O781 O 0.45365 0.75805 0.00989 0.0
O782 O 0.54635 0.86045 0.05575 0.0
O783 O 0.51369 0.86099 0.03839 0.0
C784 C 0.50842 0.73307 0.0608 0.0
C785 C 0.46407 0.82956 0.00172 0.0
C786 C 0.58802 0.88021 0.00268 0.0
C787 C 0.51572 0.75294 0.9766 0.0
C788 C 0.5291 0.89321 0.98321 0.0
C789 C 0.57592 0.79218 0.04307 0.0
C790 C 0.45355 0.73223 -0.00161 0.0
C791 C 0.52838 0.86668 0.05866 0.0
O792 O 0.49305 0.73568 0.04132 0.0
O793 O 0.52397 0.75215 0.0626 0.0
O794 O 0.48015 0.84675 -0.00102 0.0
O795 O 0.46406 0.80063 0.00624 0.0
O796 O 0.57577 0.8897 0.01886 0.0
O797 O 0.58262 0.85326 -0.00543 0.0
O798 O 0.49939 0.76615 0.97432 0.0
O799 O 0.5276 0.75386 0.00087 0.0
Co800 Co 0.79269 0.42913 0.00731 0.0
Co801 Co 0.7469 0.4198 0.02825 0.0
Co802 Co 0.77166 0.47917 0.0404 0.0
H803 H 0.77921 0.44865 0.02922 0.0
O804 O 0.7755 0.43313 0.03979 0.0
H805 H 0.73948 0.44895 0.04245 0.0
O806 O 0.74266 0.4652 0.03253 0.0
Co807 Co 0.72654 0.46581 0.06715 0.0
O808 O 0.70366 0.43408 0.05063 0.0
O809 O 0.71771 0.40687 0.01811 0.0
O810 O 0.73623 0.51165 0.06982 0.0
O811 O 0.76478 0.52112 0.0475 0.0
O812 O 0.81964 0.43126 0.98896 0.0
O813 O 0.81436 0.39973 0.02288 0.0
O814 O 0.747 0.4471 0.09706 0.0
O815 O 0.7464 0.40507 0.07035 0.0
C816 C 0.81344 0.49072 0.02372 0.0
C817 C 0.76815 0.36704 0.00924 0.0
C818 C 0.69782 0.47545 0.09587 0.0
C819 C 0.76727 0.47224 0.9735 0.0
C820 C 0.70244 0.41318 0.03087 0.0
C821 C 0.75046 0.52995 0.06108 0.0
C822 C 0.82672 0.41032 0.00555 0.0
C823 C 0.75111 0.41958 0.09464 0.0
O824 O 0.80978 0.46919 0.0048 0.0
O825 O 0.80155 0.49415 0.04384 0.0
O826 O 0.75311 0.37791 0.01922 0.0
O827 O 0.78389 0.38352 0.00332 0.0
O828 O 0.70767 0.45208 0.09889 0.0
O829 O 0.70429 0.49352 0.07646 0.0
O830 O 0.77374 0.44571 0.97383 0.0
O831 O 0.76879 0.48865 -0.00319 0.0
Co832 Co 0.48412 0.49083 0.21849 0.0
Co833 Co 0.50401 0.42454 0.22425 0.0
Co834 Co 0.52838 0.47966 0.20206 0.0
H835 H 0.50508 0.47722 0.20673 0.0
O836 O 0.499 0.46096 0.19871 0.0
H837 H 0.5275 0.42759 0.22115 0.0
O838 O 0.5334 0.44411 0.229 0.0
Co839 Co 0.5489 0.41408 0.2109 0.0
O840 O 0.5371 0.37443 0.22693 0.0
O841 O 0.50991 0.38618 0.24795 0.0
O842 O 0.56908 0.44465 0.19473 0.0
O843 O 0.55801 0.4912 0.20033 0.0
O844 O 0.47236 0.52331 0.24336 0.0
O845 O 0.45503 0.50371 0.20668 0.0
O846 O 0.53278 0.41671 0.17047 0.0
O847 O 0.50351 0.40132 0.18646 0.0
C848 C 0.50783 0.53399 0.17814 0.0
C849 C 0.45932 0.42888 0.22016 0.0
C850 C 0.57984 0.38484 0.22284 0.0
C851 C 0.51853 0.49834 0.26023 0.0
C852 C 0.52293 0.36742 0.24302 0.0
C853 C 0.57151 0.47373 0.19417 0.0
C854 C 0.4555 0.52229 0.22762 0.0
C855 C 0.51491 0.40442 0.16563 0.0
O856 O 0.49355 0.52809 0.19454 0.0
O857 O 0.52182 0.51591 0.17629 0.0
O858 O 0.47447 0.41233 0.22283 0.0
O859 O 0.46108 0.45801 0.21799 0.0
O860 O 0.56615 0.37884 0.20174 0.0
O861 O 0.57592 0.40741 0.23732 0.0
O862 O 0.50259 0.4809 0.2552 0.0
O863 O 0.52908 0.5052 0.23883 0.0
Co864 Co 0.79266 0.77143 0.206 0.0
Co865 Co 0.77208 0.83526 0.21821 0.0
Co866 Co 0.74723 0.78495 0.18323 0.0
H867 H 0.77085 0.78695 0.19281 0.0
O868 O 0.77612 0.80472 0.18843 0.0
H869 H 0.74788 0.8314 0.2121 0.0
O870 O 0.74338 0.81296 0.21583 0.0
Co871 Co 0.72447 0.84517 0.20335 0.0
O872 O 0.73753 0.88207 0.22551 0.0
O873 O 0.76763 0.8684 0.24647 0.0
O874 O 0.70309 0.81515 0.18256 0.0
O875 O 0.71803 0.77235 0.17433 0.0
O876 O 0.8066 0.7351 0.22781 0.0
O877 O 0.82184 0.76325 0.19894 0.0
O878 O 0.73581 0.86406 0.16738 0.0
O879 O 0.76858 0.86524 0.18439 0.0
C880 C 0.76661 0.73741 0.15425 0.0
C881 C 0.81656 0.83402 0.2187 0.0
C882 C 0.69367 0.87047 0.21473 0.0
C883 C 0.76011 0.74878 0.23792 0.0
C884 C 0.7538 0.8873 0.24285 0.0
C885 C 0.70252 0.78779 0.17331 0.0
C886 C 0.8228 0.74041 0.21628 0.0
C887 C 0.75411 0.87345 0.16571 0.0
O888 O 0.78181 0.73952 0.17449 0.0
O889 O 0.75267 0.75606 0.15224 0.0
O890 O 0.80139 0.84936 0.22195 0.0
O891 O 0.81497 0.80557 0.21255 0.0
O892 O 0.70992 0.88432 0.20891 0.0
O893 O 0.69486 0.84199 0.21434 0.0
O894 O 0.77726 0.76346 0.24143 0.0
O895 O 0.74858 0.75069 0.21348 0.0
Co896 Co 0.47237 0.1506 0.96794 0.0
Co897 Co 0.49605 0.21794 0.95178 0.0
Co898 Co 0.51965 0.16923 0.98434 0.0
H899 H 0.49565 0.16882 0.97793 0.0
O900 O 0.49135 0.18591 0.9825 0.0
H901 H 0.51982 0.21958 0.9615 0.0
O902 O 0.52458 0.20314 0.95623 0.0
Co903 Co 0.54245 0.2373 0.97531 0.0
O904 O 0.533 0.26889 0.94402 0.0
O905 O 0.50234 0.2512 0.92257 0.0
O906 O 0.56345 0.20567 0.97663 0.0
O907 O 0.54853 0.15983 0.98797 0.0
O908 O 0.45533 0.10981 0.97336 0.0
O909 O 0.44512 0.14992 0.98688 0.0
O910 O 0.52705 0.23954 0.01079 0.0
O911 O 0.49812 0.24889 0.98417 0.0
C912 C 0.50147 0.11046 0.00309 0.0
C913 C 0.45224 0.20496 0.93591 0.0
C914 C 0.5734 0.27319 0.98783 0.0
C915 C 0.50182 0.13551 0.92792 0.0
C916 C 0.51763 0.27083 0.92441 0.0
C917 C 0.56409 0.17706 0.98266 0.0
C918 C 0.44144 0.12145 0.98471 0.0
C919 C 0.51003 0.2509 0.0084 0.0
O920 O 0.48563 0.11318 0.98488 0.0
O921 O 0.51405 0.13316 0.0106 0.0
O922 O 0.46678 0.22506 0.94322 0.0
O923 O 0.45341 0.17646 0.9417 0.0
O924 O 0.5556 0.28001 0.9893 0.0
O925 O 0.57354 0.24612 0.97951 0.0
O926 O 0.4836 0.14119 0.92961 0.0
O927 O 0.51597 0.14238 0.94867 0.0
Co928 Co 0.30086 0.53978 0.91722 0.0
Co929 Co 0.25668 0.52514 0.94549 0.0
Co930 Co 0.28119 0.58449 0.95802 0.0
H931 H 0.28851 0.55573 0.94312 0.0
O932 O 0.28563 0.53932 0.95298 0.0
H933 H 0.24904 0.55554 0.95691 0.0
O934 O 0.25265 0.57113 0.94634 0.0
Co935 Co 0.23576 0.57492 0.97922 0.0
O936 O 0.21737 0.53574 0.97949 0.0
O937 O 0.22693 0.50987 0.94186 0.0
O938 O 0.24528 0.61996 0.98667 0.0
O939 O 0.27487 0.62629 0.96732 0.0
O940 O 0.31969 0.55391 0.88546 0.0
O941 O 0.32309 0.51226 0.90743 0.0
O942 O 0.25582 0.55924 0.01163 0.0
O943 O 0.25953 0.51552 0.98915 0.0
C944 C 0.32524 0.59167 0.95449 0.0
C945 C 0.27766 0.47513 0.92327 0.0
C946 C 0.20188 0.59417 0.98065 0.0
C947 C 0.27555 0.586 0.89239 0.0
C948 C 0.21425 0.51411 0.9606 0.0
C949 C 0.2605 0.63681 0.97935 0.0
C950 C 0.32956 0.53054 0.8882 0.0
C951 C 0.26186 0.53243 0.01219 0.0
O952 O 0.32365 0.5718 0.93367 0.0
O953 O 0.31029 0.59711 0.96839 0.0
O954 O 0.26376 0.48338 0.93807 0.0
O955 O 0.29135 0.49392 0.91378 0.0
O956 O 0.20981 0.57602 -0.00027 0.0
O957 O 0.21328 0.60163 0.96093 0.0
O958 O 0.27913 0.55837 0.889 0.0
O959 O 0.28221 0.59994 0.91638 0.0
Co960 Co 0.47956 0.59101 0.77279 0.0
Co961 Co 0.49978 0.5247 0.78372 0.0
Co962 Co 0.52487 0.57942 0.76261 0.0
H963 H 0.5012 0.57676 0.76419 0.0
O964 O 0.49538 0.5602 0.75631 0.0
H965 H 0.52307 0.52637 0.77876 0.0
O966 O 0.52933 0.54229 0.78719 0.0
Co967 Co 0.54386 0.51248 0.7667 0.0
O968 O 0.53382 0.47561 0.79086 0.0
O969 O 0.50593 0.48859 0.80979 0.0
O970 O 0.56722 0.54509 0.76732 0.0
O971 O 0.55445 0.59122 0.76558 0.0
O972 O 0.46536 0.63146 0.77277 0.0
O973 O 0.45014 0.59321 0.75248 0.0
O974 O 0.52535 0.52021 0.7293 0.0
O975 O 0.49873 0.49816 0.74764 0.0
C976 C 0.50753 0.63824 0.74576 0.0
C977 C 0.45626 0.53187 0.78989 0.0
C978 C 0.57256 0.48105 0.75763 0.0
C979 C 0.51227 0.59743 0.82066 0.0
C980 C 0.51962 0.47008 0.80755 0.0
C981 C 0.56935 0.5743 0.76686 0.0
C982 C 0.44905 0.62073 0.75886 0.0
C983 C 0.50897 0.50358 0.72565 0.0
O984 O 0.49262 0.63151 0.76047 0.0
O985 O 0.51989 0.61871 0.74023 0.0
O986 O 0.47001 0.51403 0.78557 0.0
O987 O 0.4586 0.56089 0.78772 0.0
O988 O 0.55536 0.47885 0.74284 0.0
O989 O 0.57334 0.50084 0.77754 0.0
O990 O 0.49437 0.58585 0.81391 0.0
O991 O 0.52456 0.60108 0.80105 0.0
Co992 Co 0.30203 0.15845 0.77945 0.0
Co993 Co 0.28021 0.21974 0.79985 0.0
Co994 Co 0.25441 0.16901 0.76642 0.0
H995 H 0.27864 0.17253 0.7716 0.0
O996 O 0.28321 0.19084 0.7675 0.0
H997 H 0.25651 0.21806 0.79105 0.0
O998 O 0.25116 0.20046 0.79587 0.0
Co999 Co 0.23471 0.23395 0.77836 0.0
O1000 O 0.24609 0.26593 0.8094 0.0
O1001 O 0.27553 0.24947 0.83061 0.0
O1002 O 0.21235 0.19973 0.77477 0.0
O1003 O 0.22496 0.15568 0.76372 0.0
O1004 O 0.31621 0.11905 0.77319 0.0
O1005 O 0.3317 0.16122 0.76887 0.0
O1006 O 0.24948 0.24064 0.74215 0.0
O1007 O 0.27862 0.25332 0.76896 0.0
C1008 C 0.27185 0.11576 0.74209 0.0
C1009 C 0.32505 0.21695 0.80616 0.0
C1010 C 0.20493 0.26597 0.76808 0.0
C1011 C 0.27296 0.13071 0.81856 0.0
C1012 C 0.26161 0.26814 0.82905 0.0
C1013 C 0.21019 0.17129 0.76851 0.0
C1014 C 0.33263 0.13273 0.76785 0.0
C1015 C 0.26679 0.25487 0.74478 0.0
O1016 O 0.28843 0.12114 0.75869 0.0
O1017 O 0.2581 0.13485 0.73866 0.0
O1018 O 0.30962 0.23209 0.80749 0.0
O1019 O 0.324 0.18967 0.79655 0.0
O1020 O 0.22139 0.27134 0.75726 0.0
O1021 O 0.20546 0.24259 0.7847 0.0
O1022 O 0.29123 0.13934 0.81572 0.0
O1023 O 0.2582 0.13958 0.80078 0.0
H1024 H 0.8567 0.43536 0.97418 0.0
H1025 H 0.84311 0.36242 0.03649 0.0
H1026 H 0.89045 0.41758 0.97284 0.0
H1027 H 0.87684 0.34491 0.03552 0.0
H1028 H 0.92659 0.29953 -0.00264 0.0
H1029 H 0.89426 0.32037 -0.00119 0.0
H1030 H 0.92346 0.41168 0.00389 0.0
H1031 H 0.95631 0.39065 0.0023 0.0
C1032 C 0.86096 0.41556 0.98762 0.0
C1033 C 0.84724 0.40004 0.0052 0.0
C1034 C 0.88033 0.40556 0.98704 0.0
C1035 C 0.88627 0.37972 0.00389 0.0
C1036 C 0.87261 0.36461 0.0219 0.0
C1037 C 0.85332 0.37468 0.02257 0.0
C1038 C 0.92631 0.32406 -0.00111 0.0
C1039 C 0.94421 0.34333 7e-05 0.0
C1040 C 0.90767 0.33601 -0.00017 0.0
C1041 C 0.90629 0.36763 0.00193 0.0
C1042 C 0.92404 0.38717 0.00223 0.0
C1043 C 0.94285 0.37513 0.00135 0.0
H1044 H 0.35679 0.93507 0.97413 0.0
H1045 H 0.34316 0.86211 0.03642 0.0
H1046 H 0.39059 0.91744 0.97302 0.0
H1047 H 0.37694 0.84474 0.03564 0.0
H1048 H 0.42665 0.79944 -0.00267 0.0
H1049 H 0.39431 0.8203 -0.00138 0.0
H1050 H 0.42358 0.91155 0.00454 0.0
H1051 H 0.45645 0.89051 0.00314 0.0
C1052 C 0.36105 0.91531 0.98762 0.0
C1053 C 0.34731 0.89972 0.00511 0.0
C1054 C 0.38045 0.90539 0.98717 0.0
C1055 C 0.38638 0.87958 0.00406 0.0
C1056 C 0.37271 0.86442 0.02201 0.0
C1057 C 0.35339 0.87441 0.02256 0.0
C1058 C 0.42638 0.82397 -0.00099 0.0
C1059 C 0.4443 0.84323 0.0005 0.0
C1060 C 0.40774 0.83592 -0.00014 0.0
C1061 C 0.40639 0.86752 0.00216 0.0
C1062 C 0.42416 0.88706 0.00274 0.0
C1063 C 0.44297 0.87501 0.00196 0.0
H1064 H 0.82785 0.89459 0.20878 0.0
H1065 H 0.85195 0.80783 0.23395 0.0
H1066 H 0.8622 0.91797 0.20827 0.0
H1067 H 0.88607 0.83122 0.23483 0.0
H1068 H 0.94427 0.87246 0.2033 0.0
H1069 H 0.90975 0.85004 0.20338 0.0
H1070 H 0.89225 0.93435 0.23746 0.0
H1071 H 0.92638 0.95704 0.23606 0.0
C1072 C 0.84048 0.88068 0.21474 0.0
C1073 C 0.83718 0.84939 0.22128 0.0
C1074 C 0.86021 0.89404 0.21451 0.0
C1075 C 0.87704 0.87647 0.22127 0.0
C1076 C 0.87359 0.84537 0.22873 0.0
C1077 C 0.85396 0.83199 0.22851 0.0
C1078 C 0.93303 0.88616 0.21078 0.0
C1079 C 0.93811 0.91654 0.21957 0.0
C1080 C 0.91322 0.87328 0.21102 0.0
C1081 C 0.89809 0.89032 0.2205 0.0
C1082 C 0.9033 0.92065 0.22948 0.0
C1083 C 0.92299 0.93362 0.22885 0.0
H1084 H 0.35002 0.30827 0.19717 0.0
H1085 H 0.33059 0.38964 0.23454 0.0
H1086 H 0.38414 0.33139 0.19955 0.0
H1087 H 0.36528 0.41258 0.23782 0.0
H1088 H 0.42384 0.45593 0.20683 0.0
H1089 H 0.3897 0.43301 0.20648 0.0
H1090 H 0.41312 0.34613 0.23343 0.0
H1091 H 0.44756 0.36897 0.23287 0.0
C1092 C 0.35301 0.33108 0.20613 0.0
C1093 C 0.33744 0.3471 0.21568 0.0
C1094 C 0.37273 0.34424 0.20773 0.0
C1095 C 0.37755 0.37375 0.21908 0.0
C1096 C 0.36204 0.38989 0.22866 0.0
C1097 C 0.34216 0.37673 0.22689 0.0
C1098 C 0.42182 0.4319 0.21269 0.0
C1099 C 0.43854 0.41426 0.21979 0.0
C1100 C 0.40214 0.41882 0.21274 0.0
C1101 C 0.3986 0.38777 0.22004 0.0
C1102 C 0.41529 0.37008 0.2273 0.0
C1103 C 0.43506 0.38315 0.22706 0.0
H1104 H 0.17426 0.57666 0.01916 0.0
H1105 H 0.18296 0.63384 0.94155 0.0
H1106 H 0.14033 0.5941 0.01935 0.0
H1107 H 0.14902 0.6508 0.94133 0.0
H1108 H 0.10052 0.704 0.9732 0.0
H1109 H 0.13286 0.68308 0.97283 0.0
H1110 H 0.10605 0.59285 0.99102 0.0
H1111 H 0.07323 0.61405 -0.00788 0.0
C1112 C 0.16888 0.5929 0.00212 0.0
C1113 C 0.1813 0.60423 0.98056 0.0
C1114 C 0.1494 0.60265 0.00206 0.0
C1115 C 0.14204 0.62398 0.9805 0.0
C1116 C 0.15437 0.63473 0.95857 0.0
C1117 C 0.17379 0.62498 0.95861 0.0
C1118 C 0.10133 0.67968 0.97724 0.0
C1119 C 0.08411 0.66074 0.9827 0.0
C1120 C 0.11996 0.66764 0.97675 0.0
C1121 C 0.12201 0.63627 0.98155 0.0
C1122 C 0.10495 0.61719 0.98737 0.0
C1123 C 0.08614 0.62931 0.98789 0.0
H1124 H 0.68219 0.13381 0.94069 0.0
H1125 H 0.6738 0.07932 0.02013 0.0
H1126 H 0.64846 0.15156 0.94051 0.0
H1127 H 0.64014 0.09765 0.02042 0.0
H1128 H 0.57327 0.11741 -0.00536 0.0
H1129 H 0.60593 0.09597 -0.0066 0.0
H1130 H 0.63226 0.18511 0.97025 0.0
H1131 H 0.59993 0.20621 0.9706 0.0
C1132 C 0.67313 0.12571 0.95817 0.0
C1133 C 0.68066 0.10544 0.98058 0.0
C1134 C 0.65384 0.13595 0.95816 0.0
C1135 C 0.64166 0.12623 0.98062 0.0
C1136 C 0.64906 0.10541 0.0027 0.0
C1137 C 0.66839 0.09513 0.00269 0.0
C1138 C 0.58603 0.13241 0.98927 0.0
C1139 C 0.58386 0.16361 0.98278 0.0
C1140 C 0.60476 0.12014 0.98869 0.0
C1141 C 0.62168 0.1388 0.98153 0.0
C1142 C 0.61949 0.16995 0.9753 0.0
C1143 C 0.60088 0.18214 0.97583 0.0
H1144 H 0.19688 0.11147 0.75508 0.0
H1145 H 0.17603 0.19762 0.77913 0.0
H1146 H 0.16229 0.08827 0.7534 0.0
H1147 H 0.1421 0.17445 0.77837 0.0
H1148 H 0.07926 0.13231 0.74811 0.0
H1149 H 0.11363 0.15492 0.7462 0.0
H1150 H 0.13741 0.07261 0.78609 0.0
H1151 H 0.10327 0.04985 0.78722 0.0
C1152 C 0.18502 0.12545 0.76005 0.0
C1153 C 0.18936 0.15645 0.76721 0.0
C1154 C 0.1652 0.11213 0.75925 0.0
C1155 C 0.14935 0.12953 0.76567 0.0
C1156 C 0.15377 0.16046 0.77273 0.0
C1157 C 0.17342 0.17372 0.77341 0.0
C1158 C 0.09183 0.11914 0.75658 0.0
C1159 C 0.08847 0.08925 0.76771 0.0
C1160 C 0.11156 0.13207 0.75551 0.0
C1161 C 0.12835 0.11552 0.76586 0.0
C1162 C 0.12491 0.08578 0.77731 0.0
C1163 C 0.10526 0.07281 0.77816 0.0
H1164 H 0.69725 0.61608 0.74758 0.0
H1165 H 0.67985 0.69201 0.79611 0.0
H1166 H 0.66265 0.59287 0.74516 0.0
H1167 H 0.64574 0.66869 0.79427 0.0
H1168 H 0.5815 0.63513 0.76013 0.0
H1169 H 0.61598 0.65793 0.76026 0.0
H1170 H 0.63891 0.56874 0.77599 0.0
H1171 H 0.60467 0.54592 0.77495 0.0
C1172 C 0.68613 0.62768 0.75791 0.0
C1173 C 0.69133 0.65602 0.77178 0.0
C1174 C 0.66631 0.61439 0.75659 0.0
C1175 C 0.65134 0.62907 0.7693 0.0
C1176 C 0.6567 0.65709 0.78362 0.0
C1177 C 0.67639 0.67038 0.78481 0.0
C1178 C 0.5939 0.6204 0.76362 0.0
C1179 C 0.59023 0.58869 0.76758 0.0
C1180 C 0.61368 0.63347 0.7638 0.0
C1181 C 0.63025 0.61515 0.76815 0.0
C1182 C 0.62655 0.58348 0.7721 0.0
C1183 C 0.60682 0.57043 0.77175 0.0
H1184 H 0.92666 0.798 0.49311 0.0
H1185 H 0.95611 0.88863 0.50721 0.0
H1186 H 0.89394 0.81847 0.49352 0.0
H1187 H 0.92302 0.90919 0.50733 0.0
H1188 H 0.86121 0.92336 0.54262 0.0
H1189 H 0.89483 0.90567 0.54007 0.0
H1190 H 0.87146 0.8519 0.46264 0.0
H1191 H 0.83787 0.86941 0.46535 0.0
C1192 C 0.92618 0.82236 0.49614 0.0
C1193 C 0.94406 0.84167 0.50015 0.0
C1194 C 0.90736 0.8341 0.49617 0.0
C1195 C 0.9059 0.86543 0.50037 0.0
C1196 C 0.92372 0.88489 0.50423 0.0
C1197 C 0.94263 0.87315 0.50395 0.0
C1198 C 0.86329 0.90773 0.52509 0.0
C1199 C 0.84695 0.89756 0.50428 0.0
C1200 C 0.88256 0.89784 0.52347 0.0
C1201 C 0.88577 0.87739 0.50117 0.0
C1202 C 0.8694 0.86744 0.48025 0.0
C1203 C 0.8502 0.87751 0.48173 0.0
H1204 H 0.3606 0.42146 0.54103 0.0
H1205 H 0.33861 0.37347 0.45951 0.0
H1206 H 0.39445 0.40479 0.53803 0.0
H1207 H 0.37241 0.35711 0.4563 0.0
H1208 H 0.42689 0.30122 0.48442 0.0
H1209 H 0.39423 0.32175 0.48456 0.0
H1210 H 0.4236 0.41063 0.50747 0.0
H1211 H 0.4567 0.38977 0.50787 0.0
C1212 C 0.36303 0.40741 0.52245 0.0
C1213 C 0.34697 0.39853 0.50061 0.0
C1214 C 0.38244 0.39813 0.52058 0.0
C1215 C 0.3861 0.37962 0.49694 0.0
C1216 C 0.37003 0.3711 0.47494 0.0
C1217 C 0.35069 0.38051 0.47673 0.0
C1218 C 0.4265 0.32519 0.48942 0.0
C1219 C 0.44446 0.34381 0.4963 0.0
C1220 C 0.4077 0.33702 0.48924 0.0
C1221 C 0.4063 0.36782 0.49598 0.0
C1222 C 0.42422 0.38672 0.5024 0.0
C1223 C 0.44315 0.37486 0.50238 0.0
H1224 H 0.853 0.30522 0.72789 0.0
H1225 H 0.82933 0.39302 0.7063 0.0
H1226 H 0.88721 0.32832 0.72897 0.0
H1227 H 0.86375 0.41613 0.70604 0.0
H1228 H 0.92786 0.45376 0.73619 0.0
H1229 H 0.89369 0.43095 0.73643 0.0
H1230 H 0.91106 0.34864 0.69822 0.0
H1231 H 0.94567 0.37113 0.69924 0.0
C1232 C 0.85511 0.32952 0.72321 0.0
C1233 C 0.83842 0.34733 0.71702 0.0
C1234 C 0.8748 0.34275 0.72357 0.0
C1235 C 0.87837 0.37409 0.71733 0.0
C1236 C 0.86164 0.39199 0.71137 0.0
C1237 C 0.84188 0.37879 0.71143 0.0
C1238 C 0.92446 0.43074 0.72786 0.0
C1239 C 0.93957 0.41424 0.71773 0.0
C1240 C 0.90473 0.41772 0.72779 0.0
C1241 C 0.89947 0.38795 0.71726 0.0
C1242 C 0.91458 0.37145 0.70699 0.0
C1243 C 0.93444 0.38437 0.70742 0.0
H1244 H 0.3501 0.80639 0.6985 0.0
H1245 H 0.33065 0.88926 0.73285 0.0
H1246 H 0.38425 0.82941 0.70024 0.0
H1247 H 0.36534 0.91211 0.73555 0.0
H1248 H 0.424 0.95433 0.7044 0.0
H1249 H 0.38986 0.93144 0.70409 0.0
H1250 H 0.41328 0.84518 0.73339 0.0
H1251 H 0.44773 0.86802 0.73286 0.0
C1252 C 0.35309 0.82954 0.70664 0.0
C1253 C 0.33751 0.846 0.7155 0.0
C1254 C 0.37283 0.84265 0.70788 0.0
C1255 C 0.37766 0.87255 0.7182 0.0
C1256 C 0.36212 0.88911 0.72713 0.0
C1257 C 0.34223 0.87601 0.7257 0.0
C1258 C 0.42198 0.93046 0.71082 0.0
C1259 C 0.43871 0.91303 0.71866 0.0
C1260 C 0.40229 0.91738 0.71085 0.0
C1261 C 0.39873 0.88651 0.71888 0.0
C1262 C 0.41544 0.86898 0.72672 0.0
C1263 C 0.43522 0.88206 0.7265 0.0
H1264 H 0.07108 0.11577 0.48199 0.0
H1265 H 0.10072 0.20698 0.48302 0.0
H1266 H 0.10384 0.09444 0.48108 0.0
H1267 H 0.13311 0.18575 0.48258 0.0
H1268 H 0.18425 0.14146 0.44709 0.0
H1269 H 0.15076 0.15988 0.44768 0.0
H1270 H 0.13651 0.08882 0.5117 0.0
H1271 H 0.16999 0.07002 0.51062 0.0
C1272 C 0.08453 0.13124 0.48229 0.0
C1273 C 0.08319 0.16309 0.48236 0.0
C1274 C 0.1033 0.11902 0.48182 0.0
C1275 C 0.12106 0.13842 0.48141 0.0
C1276 C 0.1197 0.17017 0.48219 0.0
C1277 C 0.10106 0.18233 0.48262 0.0
C1278 C 0.17394 0.12974 0.46123 0.0
C1279 C 0.17975 0.10448 0.47898 0.0
C1280 C 0.15479 0.14037 0.4617 0.0
C1281 C 0.14101 0.12597 0.47994 0.0
C1282 C 0.14671 0.1003 0.49728 0.0
C1283 C 0.16592 0.08969 0.49684 0.0
H1284 H 0.57112 0.61643 0.47382 0.0
H1285 H 0.60108 0.70565 0.49386 0.0
H1286 H 0.60412 0.59535 0.47451 0.0
H1287 H 0.63369 0.68487 0.49392 0.0
H1288 H 0.6893 0.63321 0.52064 0.0
H1289 H 0.65565 0.65048 0.52325 0.0
H1290 H 0.63302 0.59935 0.44378 0.0
H1291 H 0.6667 0.58179 0.44143 0.0
C1292 C 0.58468 0.63149 0.47854 0.0
C1293 C 0.58342 0.66277 0.48364 0.0
C1294 C 0.60357 0.61947 0.47869 0.0
C1295 C 0.62152 0.63845 0.48427 0.0
C1296 C 0.62019 0.66954 0.48989 0.0
C1297 C 0.60142 0.68153 0.48957 0.0
C1298 C 0.67712 0.62562 0.5038 0.0
C1299 C 0.68062 0.60637 0.48073 0.0
C1300 C 0.65786 0.63556 0.50522 0.0
C1301 C 0.64167 0.62634 0.48367 0.0
C1302 C 0.64513 0.60662 0.46087 0.0
C1303 C 0.66444 0.59682 0.45935 0.0
H1304 H 0.17567 0.6964 0.24667 0.0
H1305 H 0.19858 0.60983 0.27583 0.0
H1306 H 0.1413 0.67381 0.24485 0.0
H1307 H 0.16392 0.58724 0.27509 0.0
H1308 H 0.10001 0.54914 0.24456 0.0
H1309 H 0.13431 0.57123 0.24384 0.0
H1310 H 0.11702 0.65626 0.27659 0.0
H1311 H 0.08229 0.63437 0.27618 0.0
C1312 C 0.17334 0.67246 0.25278 0.0
C1313 C 0.18985 0.65487 0.2615 0.0
C1314 C 0.15357 0.65956 0.25197 0.0
C1315 C 0.14974 0.62878 0.26017 0.0
C1316 C 0.16629 0.61096 0.26831 0.0
C1317 C 0.18616 0.62384 0.26877 0.0
C1318 C 0.10346 0.57261 0.25157 0.0
C1319 C 0.08835 0.59002 0.26045 0.0
C1320 C 0.12324 0.58521 0.25135 0.0
C1321 C 0.12855 0.61549 0.26027 0.0
C1322 C 0.11343 0.63298 0.26911 0.0
C1323 C 0.09352 0.62044 0.26902 0.0
H1324 H 0.60032 0.04952 0.24541 0.0
H1325 H 0.58244 0.13253 0.28155 0.0
H1326 H 0.63461 0.07215 0.24562 0.0
H1327 H 0.61708 0.15484 0.28291 0.0
H1328 H 0.67518 0.19771 0.25349 0.0
H1329 H 0.64096 0.17451 0.25153 0.0
H1330 H 0.66427 0.08722 0.27732 0.0
H1331 H 0.69877 0.11041 0.27807 0.0
C1332 C 0.60374 0.07257 0.25364 0.0
C1333 C 0.5886 0.08926 0.26346 0.0
C1334 C 0.62349 0.08548 0.25395 0.0
C1335 C 0.6287 0.1153 0.26436 0.0
C1336 C 0.61356 0.13198 0.27425 0.0
C1337 C 0.5937 0.11918 0.27362 0.0
C1338 C 0.67304 0.1735 0.25865 0.0
C1339 C 0.68969 0.15587 0.26604 0.0
C1340 C 0.65336 0.16025 0.25776 0.0
C1341 C 0.64978 0.12905 0.26459 0.0
C1342 C 0.66646 0.11126 0.27159 0.0
C1343 C 0.68623 0.1245 0.27211 0.0
H1344 H 0.17885 0.52931 0.97849 0.0
H1345 H 0.20626 0.45269 0.94571 0.0
H1346 H 0.14898 0.49675 0.98643 0.0
H1347 H 0.1762 0.41925 0.95464 0.0
H1348 H 0.11095 0.37203 0.95573 0.0
H1349 H 0.14074 0.40359 0.94265 0.0
H1350 H 0.13828 0.45946 0.0199 0.0
H1351 H 0.1085 0.42867 0.03219 0.0
C1352 C 0.17853 0.50537 0.97295 0.0
C1353 C 0.19519 0.49375 0.96165 0.0
C1354 C 0.16132 0.48646 0.97779 0.0
C1355 C 0.16007 0.45491 0.97196 0.0
C1356 C 0.17642 0.44335 0.95945 0.0
C1357 C 0.19372 0.46254 0.95428 0.0
C1358 C 0.11681 0.39111 0.96984 0.0
C1359 C 0.10719 0.39781 -0.00503 0.0
C1360 C 0.13401 0.40918 0.96244 0.0
C1361 C 0.14206 0.43456 0.97991 0.0
C1362 C 0.13248 0.44075 0.00529 0.0
C1363 C 0.11537 0.42282 0.01259 0.0
H1364 H 0.16514 0.91968 0.04808 0.0
H1365 H 0.19668 0.85852 -0.00087 0.0
H1366 H 0.13406 0.88654 0.03783 0.0
H1367 H 0.16571 0.82579 0.98873 0.0
H1368 H 0.1131 0.75625 0.00396 0.0
H1369 H 0.14362 0.7904 0.01409 0.0
H1370 H 0.10799 0.86852 -0.00205 0.0
H1371 H 0.07737 0.83417 0.9881 0.0
C1372 C 0.16547 0.89934 0.03497 0.0
C1373 C 0.18356 0.89196 0.02446 0.0
C1374 C 0.14758 0.88034 0.02898 0.0
C1375 C 0.14728 0.85328 0.01253 0.0
C1376 C 0.16533 0.84612 0.00182 0.0
C1377 C 0.18314 0.86515 0.00761 0.0
C1378 C 0.11175 0.78071 0.00266 0.0
C1379 C 0.09275 0.79244 -0.00471 0.0
C1380 C 0.12931 0.80037 0.00827 0.0
C1381 C 0.1284 0.83238 0.00681 0.0
C1382 C 0.10932 0.84408 -0.00036 0.0
C1383 C 0.09175 0.82437 -0.00615 0.0
H1384 H 0.11746 0.90536 0.24771 0.0
H1385 H 0.08191 0.82192 0.22189 0.0
H1386 H 0.14753 0.87672 0.2586 0.0
H1387 H 0.11197 0.79326 0.2323 0.0
H1388 H 0.16556 0.74656 0.28179 0.0
H1389 H 0.13556 0.77543 0.27227 0.0
H1390 H 0.17119 0.84964 0.23442 0.0
H1391 H 0.20128 0.82085 0.2445 0.0
C1392 C 0.11607 0.88088 0.24438 0.0
C1393 C 0.09728 0.86595 0.23393 0.0
C1394 C 0.13336 0.86444 0.25041 0.0
C1395 C 0.13232 0.83257 0.2463 0.0
C1396 C 0.11341 0.81766 0.23609 0.0
C1397 C 0.09615 0.83413 0.22993 0.0
C1398 C 0.167 0.7691 0.27153 0.0
C1399 C 0.18585 0.78144 0.26401 0.0
C1400 C 0.14974 0.78561 0.26586 0.0
C1401 C 0.15082 0.81499 0.25253 0.0
C1402 C 0.16975 0.82731 0.24508 0.0
C1403 C 0.18701 0.81074 0.2507 0.0
H1404 H 0.15546 0.34593 0.21939 0.0
H1405 H 0.19221 0.43108 0.22949 0.0
H1406 H 0.12577 0.37218 0.22885 0.0
H1407 H 0.16264 0.45744 0.23836 0.0
H1408 H 0.11044 0.49082 0.28277 0.0
H1409 H 0.13962 0.46341 0.27412 0.0
H1410 H 0.10223 0.4082 0.20785 0.0
H1411 H 0.07289 0.43541 0.21705 0.0
C1412 C 0.1572 0.37025 0.22366 0.0
C1413 C 0.17625 0.38634 0.22379 0.0
C1414 C 0.14013 0.38541 0.22886 0.0
C1415 C 0.14164 0.41708 0.23446 0.0
C1416 C 0.16079 0.43304 0.23462 0.0
C1417 C 0.1778 0.41792 0.22934 0.0
C1418 C 0.1084 0.47273 0.26645 0.0
C1419 C 0.08926 0.46526 0.25071 0.0
C1420 C 0.12523 0.4571 0.26128 0.0
C1421 C 0.12347 0.43346 0.24019 0.0
C1422 C 0.10423 0.42592 0.22453 0.0
C1423 C 0.08738 0.44165 0.22968 0.0
H1424 H 0.83069 0.53942 0.05979 0.0
H1425 H 0.83848 0.49056 0.97999 0.0
H1426 H 0.86079 0.57356 0.05196 0.0
H1427 H 0.86796 0.52373 0.97266 0.0
H1428 H 0.90658 0.60542 0.94581 0.0
H1429 H 0.87617 0.57546 0.95727 0.0
H1430 H 0.89874 0.57564 0.05123 0.0
H1431 H 0.92935 0.60621 0.0396 0.0
C1432 C 0.83871 0.53584 0.04071 0.0
C1433 C 0.83187 0.51207 0.02057 0.0
C1434 C 0.85605 0.55534 0.03626 0.0
C1435 C 0.8668 0.55179 0.01139 0.0
C1436 C 0.85999 0.52781 0.99168 0.0
C1437 C 0.84297 0.50844 -0.00385 0.0
C1438 C 0.90508 0.59927 0.96897 0.0
C1439 C 0.92055 0.60816 0.9917 0.0
C1440 C 0.8876 0.58188 0.97559 0.0
C1441 C 0.88491 0.57269 0.00523 0.0
C1442 C 0.90013 0.58234 0.02819 0.0
C1443 C 0.91776 0.59975 0.02149 0.0
H1444 H 0.91435 0.24383 0.00447 0.0
H1445 H 0.95017 0.17401 0.97687 0.0
H1446 H 0.88381 0.21013 -0.00645 0.0
H1447 H 0.91968 0.13961 0.96696 0.0
H1448 H 0.85856 0.09589 0.92437 0.0
H1449 H 0.88952 0.12904 0.93473 0.0
H1450 H 0.86556 0.16664 0.01013 0.0
H1451 H 0.83449 0.13443 -0.00084 0.0
C1452 C 0.91572 0.22116 -0.0038 0.0
C1453 C 0.93473 0.21168 0.99148 0.0
C1454 C 0.89816 0.20162 0.99014 0.0
C1455 C 0.89907 0.17184 0.97942 0.0
C1456 C 0.91818 0.16241 0.97475 0.0
C1457 C 0.93575 0.18209 0.98062 0.0
C1458 C 0.85992 0.11116 0.94323 0.0
C1459 C 0.84388 0.11239 0.96082 0.0
C1460 C 0.87779 0.13015 0.94931 0.0
C1461 C 0.88021 0.15086 0.97325 0.0
C1462 C 0.86426 0.1516 0.99113 0.0
C1463 C 0.8464 0.13279 0.98496 0.0
H1464 H 0.83148 0.1994 0.76338 0.0
H1465 H 0.8551 0.23559 0.6834 0.0
H1466 H 0.86096 0.16964 0.77462 0.0
H1467 H 0.88486 0.20649 0.69489 0.0
H1468 H 0.92659 0.12761 0.70869 0.0
H1469 H 0.89671 0.15651 0.69682 0.0
H1470 H 0.89613 0.17367 0.791 0.0
H1471 H 0.92561 0.14412 0.80273 0.0
C1472 C 0.84301 0.20106 0.74822 0.0
C1473 C 0.84087 0.21983 0.72246 0.0
C1474 C 0.86005 0.18413 0.75476 0.0
C1475 C 0.87548 0.18551 0.73574 0.0
C1476 C 0.87326 0.20435 0.70991 0.0
C1477 C 0.8562 0.22124 0.70337 0.0
C1478 C 0.92 0.13746 0.72683 0.0
C1479 C 0.92843 0.13338 0.75667 0.0
C1480 C 0.90292 0.15429 0.72004 0.0
C1481 C 0.8938 0.16755 0.7429 0.0
C1482 C 0.90238 0.16347 0.77275 0.0
C1483 C 0.91942 0.14663 0.77951 0.0
H1484 H 0.86515 0.6167 0.80947 0.0
H1485 H 0.84442 0.61828 0.71498 0.0
H1486 H 0.89417 0.5895 0.79967 0.0
H1487 H 0.87381 0.59182 0.70487 0.0
H1488 H 0.91773 0.51718 0.69936 0.0
H1489 H 0.88864 0.54436 0.70904 0.0
H1490 H 0.92559 0.59376 0.78015 0.0
H1491 H 0.95451 0.56583 0.77086 0.0
C1492 C 0.86689 0.61146 0.78651 0.0
C1493 C 0.85244 0.61978 0.76302 0.0
C1494 C 0.88367 0.59597 0.78082 0.0
C1495 C 0.88659 0.58834 0.7514 0.0
C1496 C 0.87209 0.59681 0.72787 0.0
C1497 C 0.85526 0.61226 0.73361 0.0
C1498 C 0.91965 0.5339 0.71704 0.0
C1499 C 0.93851 0.53935 0.73427 0.0
C1500 C 0.90294 0.5497 0.72251 0.0
C1501 C 0.90456 0.57153 0.74539 0.0
C1502 C 0.92352 0.57693 0.7626 0.0
C1503 C 0.94022 0.56105 0.75715 0.0
H1504 H 0.2027 0.9899 0.5127 0.0
H1505 H 0.18604 0.98394 0.41734 0.0
H1506 H 0.17333 0.95665 0.52158 0.0
H1507 H 0.15555 0.95138 0.42616 0.0
H1508 H 0.10841 0.87486 0.45417 0.0
H1509 H 0.13916 0.90457 0.44203 0.0
H1510 H 0.13916 0.95754 0.52195 0.0
H1511 H 0.1093 0.92729 0.53435 0.0
C1512 C 0.19264 0.9815 0.49349 0.0
C1513 C 0.19675 0.98986 0.46429 0.0
C1514 C 0.17552 0.96255 0.49861 0.0
C1515 C 0.16144 0.95163 0.47473 0.0
C1516 C 0.1659 0.95911 0.44528 0.0
C1517 C 0.18341 0.97784 0.44012 0.0
C1518 C 0.11513 0.89276 0.46918 0.0
C1519 C 0.10644 0.89836 0.49546 0.0
C1520 C 0.13274 0.91002 0.46211 0.0
C1521 C 0.14215 0.93345 0.48112 0.0
C1522 C 0.13301 0.93928 0.50701 0.0
C1523 C 0.11561 0.92199 0.5141 0.0
H1524 H 0.09403 0.28784 0.53915 0.0
H1525 H 0.09553 0.30551 0.4446 0.0
H1526 H 0.12487 0.32141 0.55011 0.0
H1527 H 0.1261 0.33942 0.45543 0.0
H1528 H 0.1924 0.37136 0.48338 0.0
H1529 H 0.16143 0.33864 0.47282 0.0
H1530 H 0.13815 0.37446 0.54959 0.0
H1531 H 0.16939 0.40704 0.56048 0.0
C1532 C 0.10089 0.29903 0.52071 0.0
C1533 C 0.09229 0.29397 0.491 0.0
C1534 C 0.11853 0.31846 0.52698 0.0
C1535 C 0.1281 0.33332 0.50371 0.0
C1536 C 0.1194 0.32818 0.47398 0.0
C1537 C 0.10176 0.30883 0.46774 0.0
C1538 C 0.18068 0.37247 0.49801 0.0
C1539 C 0.18352 0.39208 0.5228 0.0
C1540 C 0.16279 0.3537 0.49183 0.0
C1541 C 0.14713 0.35377 0.51027 0.0
C1542 C 0.1499 0.37346 0.53501 0.0
C1543 C 0.1678 0.39241 0.54114 0.0
H1544 H 0.11992 0.41016 0.73647 0.0
H1545 H 0.08292 0.32549 0.72345 0.0
H1546 H 0.14996 0.38138 0.74827 0.0
H1547 H 0.11282 0.29674 0.73497 0.0
H1548 H 0.16742 0.25397 0.78629 0.0
H1549 H 0.13778 0.28349 0.77585 0.0
H1550 H 0.17193 0.34912 0.72491 0.0
H1551 H 0.20167 0.31955 0.73561 0.0
C1552 C 0.11819 0.3854 0.73622 0.0
C1553 C 0.099 0.37016 0.72906 0.0
C1554 C 0.13544 0.36886 0.74277 0.0
C1555 C 0.13394 0.33661 0.7426 0.0
C1556 C 0.11464 0.32147 0.73569 0.0
C1557 C 0.09746 0.33799 0.72891 0.0
C1558 C 0.16863 0.27471 0.77288 0.0
C1559 C 0.18696 0.28435 0.76178 0.0
C1560 C 0.15156 0.29161 0.76674 0.0
C1561 C 0.15232 0.3188 0.74946 0.0
C1562 C 0.17076 0.32854 0.73856 0.0
C1563 C 0.18781 0.31149 0.74454 0.0
H1564 H 0.11178 0.99341 0.78028 0.0
H1565 H 0.07255 0.93014 0.72419 0.0
H1566 H 0.1409 0.96614 0.77115 0.0
H1567 H 0.10181 0.90287 0.71463 0.0
H1568 H 0.15686 0.84384 0.72751 0.0
H1569 H 0.12724 0.8701 0.73728 0.0
H1570 H 0.16185 0.95705 0.73302 0.0
H1571 H 0.1914 0.93075 0.7238 0.0
C1572 C 0.10936 0.97364 0.76594 0.0
C1573 C 0.08977 0.96399 0.753 0.0
C1574 C 0.12614 0.95805 0.76052 0.0
C1575 C 0.12389 0.9322 0.74203 0.0
C1576 C 0.10421 0.92242 0.72924 0.0
C1577 C 0.0874 0.93816 0.73457 0.0
C1578 C 0.15813 0.86856 0.72878 0.0
C1579 C 0.17654 0.88515 0.72496 0.0
C1580 C 0.14108 0.88369 0.73416 0.0
C1581 C 0.142 0.91584 0.73602 0.0
C1582 C 0.16051 0.93232 0.73221 0.0
C1583 C 0.17749 0.91722 0.72673 0.0
H1584 H 0.82226 0.05071 0.54143 0.0
H1585 H 0.84882 0.97539 0.50457 0.0
H1586 H 0.85221 0.08446 0.53248 0.0
H1587 H 0.87851 0.00827 0.49654 0.0
H1588 H 0.91794 0.078 0.4511 0.0
H1589 H 0.88823 0.04711 0.46351 0.0
H1590 H 0.88822 0.09906 0.54402 0.0
H1591 H 0.91798 0.13072 0.53093 0.0
C1592 C 0.83457 0.04119 0.53193 0.0
C1593 C 0.83289 0.01028 0.52348 0.0
C1594 C 0.8518 0.06056 0.52675 0.0
C1595 C 0.86783 0.04948 0.51311 0.0
C1596 C 0.86639 0.01819 0.50613 0.0
C1597 C 0.84928 0.9991 0.51103 0.0
C1598 C 0.91163 0.08297 0.47145 0.0
C1599 C 0.92051 0.10687 0.49001 0.0
C1600 C 0.89456 0.06499 0.47879 0.0
C1601 C 0.88572 0.07004 0.50512 0.0
C1602 C 0.89441 0.09437 0.52352 0.0
C1603 C 0.91159 0.11249 0.5161 0.0
H1604 H 0.83229 0.64114 0.4916 0.0
H1605 H 0.86049 0.59051 0.42856 0.0
H1606 H 0.86314 0.67406 0.5018 0.0
H1607 H 0.89169 0.6231 0.43942 0.0
H1608 H 0.93804 0.70669 0.4432 0.0
H1609 H 0.90718 0.67317 0.4325 0.0
H1610 H 0.89666 0.67676 0.52538 0.0
H1611 H 0.92715 0.71082 0.53569 0.0
C1612 C 0.84514 0.63673 0.48009 0.0
C1613 C 0.84375 0.6129 0.45926 0.0
C1614 C 0.86299 0.65566 0.4861 0.0
C1615 C 0.88015 0.65144 0.47157 0.0
C1616 C 0.87881 0.62747 0.45083 0.0
C1617 C 0.86089 0.60853 0.44475 0.0
C1618 C 0.92911 0.7003 0.4613 0.0
C1619 C 0.93511 0.71148 0.4903 0.0
C1620 C 0.91143 0.68085 0.45523 0.0
C1621 C 0.89923 0.67199 0.47801 0.0
C1622 C 0.90536 0.68325 0.50705 0.0
C1623 C 0.92299 0.7027 0.51308 0.0
H1624 H 0.92004 0.63286 0.29924 0.0
H1625 H 0.93314 0.64611 0.20788 0.0
H1626 H 0.89034 0.66215 0.28849 0.0
H1627 H 0.90314 0.67485 0.19677 0.0
H1628 H 0.85944 0.75099 0.1949 0.0
H1629 H 0.88939 0.72219 0.2057 0.0
H1630 H 0.85702 0.66021 0.26256 0.0
H1631 H 0.82725 0.68953 0.2522 0.0
C1632 C 0.9165 0.64192 0.27678 0.0
C1633 C 0.92894 0.63708 0.25441 0.0
C1634 C 0.89936 0.65858 0.27052 0.0
C1635 C 0.89415 0.67092 0.24168 0.0
C1636 C 0.9067 0.66608 0.21932 0.0
C1637 C 0.92385 0.64938 0.22561 0.0
C1638 C 0.85873 0.73118 0.20968 0.0
C1639 C 0.84093 0.72254 0.22266 0.0
C1640 C 0.8759 0.71451 0.21577 0.0
C1641 C 0.87576 0.6887 0.23503 0.0
C1642 C 0.85788 0.68012 0.24797 0.0
C1643 C 0.84072 0.69683 0.24188 0.0
H1644 H 0.86806 0.12724 0.30453 0.0
H1645 H 0.8412 0.11186 0.21366 0.0
H1646 H 0.89721 0.10025 0.29483 0.0
H1647 H 0.87062 0.08565 0.20348 0.0
H1648 H 0.91613 0.01283 0.2032 0.0
H1649 H 0.88716 0.04016 0.21294 0.0
H1650 H 0.9267 0.10221 0.27032 0.0
H1651 H 0.95558 0.07409 0.26118 0.0
C1652 C 0.86848 0.11835 0.28234 0.0
C1653 C 0.85229 0.12181 0.25986 0.0
C1654 C 0.88531 0.10297 0.27667 0.0
C1655 C 0.88649 0.09061 0.24829 0.0
C1656 C 0.87028 0.09436 0.22574 0.0
C1657 C 0.85342 0.10969 0.23146 0.0
C1658 C 0.91865 0.03238 0.21783 0.0
C1659 C 0.93823 0.04134 0.23129 0.0
C1660 C 0.902 0.04825 0.22331 0.0
C1661 C 0.9044 0.07369 0.24236 0.0
C1662 C 0.92407 0.08259 0.25582 0.0
C1663 C 0.94072 0.0666 0.25042 0.0
H1664 H 0.61246 0.42191 0.53818 0.0
H1665 H 0.60773 0.37678 0.45316 0.0
H1666 H 0.64211 0.45289 0.52546 0.0
H1667 H 0.63746 0.40845 0.43992 0.0
H1668 H 0.70402 0.45473 0.44036 0.0
H1669 H 0.6742 0.4208 0.44972 0.0
H1670 H 0.65074 0.49444 0.49405 0.0
H1671 H 0.68017 0.52754 0.48535 0.0
C1672 C 0.61774 0.41859 0.51667 0.0
C1673 C 0.60756 0.39682 0.49672 0.0
C1674 C 0.63476 0.43662 0.50919 0.0
C1675 C 0.64228 0.4337 0.48138 0.0
C1676 C 0.63232 0.41142 0.46158 0.0
C1677 C 0.61516 0.39331 0.46911 0.0
C1678 C 0.69237 0.46368 0.45184 0.0
C1679 C 0.6948 0.49392 0.46236 0.0
C1680 C 0.67522 0.4442 0.45725 0.0
C1681 C 0.66005 0.45447 0.4733 0.0
C1682 C 0.66221 0.48512 0.4825 0.0
C1683 C 0.6792 0.50434 0.47725 0.0
H1684 H 0.57661 0.83282 0.50259 0.0
H1685 H 0.61303 0.76124 0.48058 0.0
H1686 H 0.60706 0.86734 0.51256 0.0
H1687 H 0.64349 0.79515 0.49148 0.0
H1688 H 0.69314 0.87034 0.48473 0.0
H1689 H 0.66215 0.83791 0.47369 0.0
H1690 H 0.63672 0.87881 0.54599 0.0
H1691 H 0.66762 0.91204 0.55649 0.0
C1692 C 0.59115 0.82439 0.50006 0.0
C1693 C 0.59235 0.79426 0.49074 0.0
C1694 C 0.60868 0.84415 0.50597 0.0
C1695 C 0.62793 0.83428 0.50284 0.0
C1696 C 0.62903 0.80397 0.49367 0.0
C1697 C 0.61152 0.78433 0.48762 0.0
C1698 C 0.68091 0.8727 0.49819 0.0
C1699 C 0.68301 0.89405 0.52151 0.0
C1700 C 0.6631 0.85376 0.492 0.0
C1701 C 0.64676 0.85536 0.509 0.0
C1702 C 0.64876 0.87702 0.53209 0.0
C1703 C 0.66659 0.89609 0.53822 0.0
H1704 H 0.66589 0.74476 0.76655 0.0
H1705 H 0.70383 0.82693 0.75361 0.0
H1706 H 0.63592 0.77351 0.75694 0.0
H1707 H 0.67378 0.85578 0.74323 0.0
H1708 H 0.61661 0.90446 0.75461 0.0
H1709 H 0.64675 0.87594 0.76549 0.0
H1710 H 0.61548 0.79829 0.71834 0.0
H1711 H 0.5853 0.8266 0.70823 0.0
C1712 C 0.66783 0.769 0.76149 0.0
C1713 C 0.68729 0.78352 0.76081 0.0
C1714 C 0.65058 0.78553 0.75577 0.0
C1715 C 0.65226 0.81712 0.74917 0.0
C1716 C 0.6718 0.83163 0.74858 0.0
C1717 C 0.68907 0.81505 0.75432 0.0
C1718 C 0.61619 0.88126 0.74668 0.0
C1719 C 0.59855 0.86783 0.73055 0.0
C1720 C 0.63354 0.86492 0.75271 0.0
C1721 C 0.63372 0.83468 0.7428 0.0
C1722 C 0.61596 0.82131 0.72674 0.0
C1723 C 0.59864 0.83764 0.72072 0.0
H1724 H 0.61142 0.4876 0.78476 0.0
H1725 H 0.5734 0.43522 0.71719 0.0
H1726 H 0.64035 0.46034 0.77478 0.0
H1727 H 0.60216 0.40698 0.7078 0.0
H1728 H 0.66182 0.38265 0.67666 0.0
H1729 H 0.63278 0.40976 0.68657 0.0
H1730 H 0.65587 0.41396 0.7804 0.0
H1731 H 0.68526 0.38773 0.77007 0.0
C1732 C 0.60919 0.47002 0.76791 0.0
C1733 C 0.59004 0.46361 0.75181 0.0
C1734 C 0.62582 0.45414 0.76229 0.0
C1735 C 0.62382 0.43114 0.74048 0.0
C1736 C 0.60454 0.42472 0.72446 0.0
C1737 C 0.58793 0.44077 0.72999 0.0
C1738 C 0.66067 0.38931 0.69942 0.0
C1739 C 0.67588 0.38292 0.72257 0.0
C1740 C 0.64388 0.40474 0.7052 0.0
C1741 C 0.64172 0.41421 0.73437 0.0
C1742 C 0.65697 0.40756 0.75756 0.0
C1743 C 0.6738 0.39221 0.75172 0.0
H1744 H 0.40653 0.64297 0.50646 0.0
H1745 H 0.43253 0.56184 0.4808 0.0
H1746 H 0.37607 0.61175 0.51764 0.0
H1747 H 0.40268 0.53078 0.49246 0.0
H1748 H 0.33932 0.48773 0.47862 0.0
H1749 H 0.36899 0.52067 0.47178 0.0
H1750 H 0.36029 0.57234 0.5493 0.0
H1751 H 0.32959 0.53918 0.55586 0.0
C1752 C 0.40582 0.61847 0.50342 0.0
C1753 C 0.42196 0.60501 0.49243 0.0
C1754 C 0.38838 0.60049 0.51 0.0
C1755 C 0.38659 0.56858 0.50567 0.0
C1756 C 0.40309 0.55524 0.4955 0.0
C1757 C 0.42039 0.57312 0.48893 0.0
C1758 C 0.34354 0.50599 0.49447 0.0
C1759 C 0.33184 0.5104 0.51801 0.0
C1760 C 0.36087 0.52494 0.49059 0.0
C1761 C 0.36749 0.54913 0.51018 0.0
C1762 C 0.35573 0.55403 0.53363 0.0
C1763 C 0.33815 0.53488 0.53754 0.0
H1764 H 0.33381 0.13475 0.49754 0.0
H1765 H 0.35888 0.09411 0.42479 0.0
H1766 H 0.36472 0.16744 0.50831 0.0
H1767 H 0.3897 0.12759 0.43503 0.0
H1768 H 0.45002 0.17345 0.47795 0.0
H1769 H 0.41957 0.13893 0.46804 0.0
H1770 H 0.38327 0.21057 0.49086 0.0
H1771 H 0.41377 0.24453 0.5016 0.0
C1772 C 0.34591 0.13269 0.48378 0.0
C1773 C 0.34369 0.11154 0.46026 0.0
C1774 C 0.36369 0.15179 0.48982 0.0
C1775 C 0.37989 0.15056 0.4725 0.0
C1776 C 0.37777 0.12913 0.44918 0.0
C1777 C 0.35997 0.10992 0.44317 0.0
C1778 C 0.43552 0.18177 0.48086 0.0
C1779 C 0.43438 0.21177 0.49063 0.0
C1780 C 0.41797 0.16201 0.47498 0.0
C1781 C 0.39874 0.17169 0.47861 0.0
C1782 C 0.3977 0.20187 0.48825 0.0
C1783 C 0.41524 0.22154 0.49423 0.0
H1784 H 0.42984 0.1373 0.2059 0.0
H1785 H 0.42321 0.14044 0.30009 0.0
H1786 H 0.39963 0.16556 0.1943 0.0
H1787 H 0.39343 0.16934 0.28877 0.0
H1788 H 0.3292 0.19436 0.25775 0.0
H1789 H 0.35903 0.16526 0.26833 0.0
H1790 H 0.38645 0.21427 0.19709 0.0
H1791 H 0.35634 0.2427 0.18612 0.0
C1792 C 0.42195 0.14408 0.22414 0.0
C1793 C 0.42889 0.13644 0.2539 0.0
C1794 C 0.40467 0.16052 0.21754 0.0
C1795 C 0.39388 0.1698 0.24055 0.0
C1796 C 0.401 0.16221 0.27033 0.0
C1797 C 0.41821 0.14576 0.27689 0.0
C1798 C 0.34158 0.19883 0.24431 0.0
C1799 C 0.34034 0.2208 0.22105 0.0
C1800 C 0.35881 0.18228 0.25049 0.0
C1801 C 0.37534 0.18729 0.23364 0.0
C1802 C 0.37401 0.20932 0.21031 0.0
C1803 C 0.35675 0.22581 0.20411 0.0
H1804 H 0.34464 0.61994 0.21442 0.0
H1805 H 0.36465 0.6165 0.30909 0.0
H1806 H 0.37398 0.59348 0.20428 0.0
H1807 H 0.39363 0.5892 0.29925 0.0
H1808 H 0.45398 0.56504 0.27087 0.0
H1809 H 0.42521 0.59323 0.28034 0.0
H1810 H 0.3884 0.54593 0.20771 0.0
H1811 H 0.41735 0.51862 0.19779 0.0
C1812 C 0.35533 0.61353 0.23308 0.0
C1813 C 0.35233 0.62053 0.26254 0.0
C1814 C 0.37212 0.59806 0.22733 0.0
C1815 C 0.3864 0.58901 0.2509 0.0
C1816 C 0.3833 0.59613 0.28038 0.0
C1817 C 0.36655 0.61167 0.28609 0.0
C1818 C 0.43976 0.56081 0.25685 0.0
C1819 C 0.43804 0.53969 0.23347 0.0
C1820 C 0.42314 0.57683 0.26241 0.0
C1821 C 0.40427 0.57208 0.24482 0.0
C1822 C 0.40265 0.55079 0.22146 0.0
C1823 C 0.41927 0.53491 0.21585 0.0
H1824 H 0.69416 0.97134 0.92431 0.0
H1825 H 0.69379 0.00796 0.01262 0.0
H1826 H 0.66351 0.93836 0.93156 0.0
H1827 H 0.66417 0.97505 0.02004 0.0
H1828 H 0.59958 0.93939 0.01704 0.0
H1829 H 0.62941 0.97044 0.00537 0.0
H1830 H 0.64837 0.89484 0.95824 0.0
H1831 H 0.61786 0.86381 0.96944 0.0
C1832 C 0.6877 0.97229 0.94527 0.0
C1833 C 0.69647 0.99279 0.96763 0.0
C1834 C 0.67013 0.95327 0.94951 0.0
C1835 C 0.66094 0.95422 0.97626 0.0
C1836 C 0.6702 0.9741 -0.00124 0.0
C1837 C 0.68747 0.99302 -0.0055 0.0
C1838 C 0.61005 0.92929 0.00414 0.0
C1839 C 0.60633 0.89892 -0.00552 0.0
C1840 C 0.62735 0.94712 -0.00246 0.0
C1841 C 0.64172 0.93523 0.98118 0.0
C1842 C 0.63774 0.90499 0.9708 0.0
C1843 C 0.62029 0.88707 0.97739 0.0
H1844 H 0.57615 0.33378 0.00342 0.0
H1845 H 0.61275 0.26042 0.98687 0.0
H1846 H 0.60665 0.36834 0.01287 0.0
H1847 H 0.64321 0.29444 -0.00293 0.0
H1848 H 0.69345 0.36847 0.98851 0.0
H1849 H 0.66242 0.33596 0.97795 0.0
H1850 H 0.63599 0.38121 0.04666 0.0
H1851 H 0.66695 0.41445 0.05665 0.0
C1852 C 0.59073 0.32497 0.00198 0.0
C1853 C 0.59195 0.2943 -0.00566 0.0
C1854 C 0.60829 0.34477 0.00757 0.0
C1855 C 0.62762 0.33446 0.00573 0.0
C1856 C 0.62873 0.30362 -0.00176 0.0
C1857 C 0.61119 0.28392 -0.00741 0.0
C1858 C 0.681 0.37176 0.00128 0.0
C1859 C 0.68285 0.39435 0.02343 0.0
C1860 C 0.66315 0.35279 -0.00463 0.0
C1861 C 0.64651 0.35557 0.01151 0.0
C1862 C 0.64826 0.37846 0.03342 0.0
C1863 C 0.66613 0.39755 0.03927 0.0
H1864 H 0.68357 0.29092 0.30773 0.0
H1865 H 0.68542 0.2803 0.21292 0.0
H1866 H 0.65334 0.31921 0.2973 0.0
H1867 H 0.65548 0.30919 0.20233 0.0
H1868 H 0.58993 0.33505 0.19383 0.0
H1869 H 0.61987 0.3063 0.20484 0.0
H1870 H 0.64133 0.36664 0.27825 0.0
H1871 H 0.6111 0.39494 0.26749 0.0
C1872 C 0.67759 0.2948 0.28462 0.0
C1873 C 0.68693 0.28334 0.26117 0.0
C1874 C 0.66028 0.31122 0.27859 0.0
C1875 C 0.65181 0.31665 0.24891 0.0
C1876 C 0.66128 0.30519 0.22548 0.0
C1877 C 0.67858 0.28877 0.23153 0.0
C1878 C 0.60104 0.34216 0.21234 0.0
C1879 C 0.59812 0.36735 0.22974 0.0
C1880 C 0.61833 0.32577 0.21857 0.0
C1881 C 0.63322 0.33407 0.24242 0.0
C1882 C 0.63017 0.35924 0.25992 0.0
C1883 C 0.61287 0.37564 0.25366 0.0
H1884 H 0.69061 0.93164 0.22108 0.0
H1885 H 0.65564 0.84488 0.22219 0.0
H1886 H 0.66109 0.9579 0.23043 0.0
H1887 H 0.626 0.87112 0.232 0.0
H1888 H 0.5717 0.932 0.21929 0.0
H1889 H 0.60095 0.90477 0.20959 0.0
H1890 H 0.63984 0.96608 0.26849 0.0
H1891 H 0.61073 0.99336 0.27773 0.0
C1892 C 0.6766 0.91813 0.22344 0.0
C1893 C 0.67553 0.88611 0.22092 0.0
C1894 C 0.65964 0.93321 0.229 0.0
C1895 C 0.64101 0.91677 0.2321 0.0
C1896 C 0.63996 0.88467 0.22946 0.0
C1897 C 0.657 0.86955 0.22404 0.0
C1898 C 0.5865 0.93957 0.23019 0.0
C1899 C 0.58883 0.96483 0.24935 0.0
C1900 C 0.6033 0.92385 0.22477 0.0
C1901 C 0.62291 0.9331 0.23819 0.0
C1902 C 0.62512 0.9584 0.25738 0.0
C1903 C 0.60835 0.97398 0.26289 0.0
H1904 H 0.4327 0.05987 0.98137 0.0
H1905 H 0.40826 0.14203 0.00781 0.0
H1906 H 0.40242 0.02987 -0.00695 0.0
H1907 H 0.37741 0.11187 0.01909 0.0
H1908 H 0.33022 0.03996 0.05755 0.0
H1909 H 0.36124 0.07237 0.05091 0.0
H1910 H 0.36843 0.02174 0.97207 0.0
H1911 H 0.33836 0.98973 0.97878 0.0
C1912 C 0.42082 0.0716 0.9897 0.0
C1913 C 0.42295 0.10348 -0.00663 0.0
C1914 C 0.40329 0.05435 -0.00371 0.0
C1915 C 0.38711 0.0683 0.00669 0.0
C1916 C 0.38946 0.10017 0.01125 0.0
C1917 C 0.40713 0.11753 0.00461 0.0
C1918 C 0.33848 0.03578 0.03888 0.0
C1919 C 0.33167 0.01176 0.01901 0.0
C1920 C 0.35626 0.05447 0.03496 0.0
C1921 C 0.36772 0.04955 0.01115 0.0
C1922 C 0.36055 0.02595 0.99115 0.0
C1923 C 0.34301 0.0075 -0.00499 0.0
H1924 H 0.33535 0.63245 0.00015 0.0
H1925 H 0.3595 0.59409 0.92535 0.0
H1926 H 0.36626 0.66509 0.01088 0.0
H1927 H 0.3903 0.62763 0.93549 0.0
H1928 H 0.45078 0.67364 0.9773 0.0
H1929 H 0.4205 0.63878 0.96755 0.0
H1930 H 0.38416 0.70879 -0.00604 0.0
H1931 H 0.4145 0.74295 0.00468 0.0
C1932 C 0.34725 0.63091 0.98593 0.0
C1933 C 0.3448 0.61042 0.96187 0.0
C1934 C 0.36502 0.64997 0.99195 0.0
C1935 C 0.38094 0.64942 0.97399 0.0
C1936 C 0.3786 0.6286 0.95014 0.0
C1937 C 0.36083 0.60935 0.94421 0.0
C1938 C 0.4363 0.6815 0.98104 0.0
C1939 C 0.4351 0.71108 0.99182 0.0
C1940 C 0.41886 0.66157 0.97526 0.0
C1941 C 0.39968 0.6707 0.97996 0.0
C1942 C 0.39857 0.70049 0.99055 0.0
C1943 C 0.41601 0.72029 -0.00351 0.0
H1944 H 0.44514 0.68132 0.76824 0.0
H1945 H 0.41142 0.59928 0.73398 0.0
H1946 H 0.41488 0.70954 0.75795 0.0
H1947 H 0.38099 0.62717 0.72432 0.0
H1948 H 0.33443 0.69254 0.68418 0.0
H1949 H 0.36506 0.66503 0.69314 0.0
H1950 H 0.38279 0.71559 0.77454 0.0
H1951 H 0.35238 0.74357 0.76504 0.0
C1952 C 0.43122 0.66929 0.75856 0.0
C1953 C 0.4307 0.63804 0.75191 0.0
C1954 C 0.41379 0.68543 0.75283 0.0
C1955 C 0.3953 0.67076 0.74035 0.0
C1956 C 0.39491 0.63948 0.73354 0.0
C1957 C 0.41236 0.62337 0.73921 0.0
C1958 C 0.34487 0.69774 0.70401 0.0
C1959 C 0.3409 0.7202 0.72394 0.0
C1960 C 0.36243 0.68182 0.70927 0.0
C1961 C 0.37655 0.6879 0.73464 0.0
C1962 C 0.37251 0.71045 0.75456 0.0
C1963 C 0.35495 0.72637 0.74926 0.0
H1964 H 0.33514 0.0718 0.75882 0.0
H1965 H 0.3711 0.15787 0.76297 0.0
H1966 H 0.36465 0.04548 0.74934 0.0
H1967 H 0.40072 0.13159 0.75325 0.0
H1968 H 0.45412 0.06888 0.76603 0.0
H1969 H 0.42484 0.09607 0.77567 0.0
H1970 H 0.3868 0.03935 0.71141 0.0
H1971 H 0.41596 0.01218 0.70207 0.0
C1972 C 0.34936 0.08515 0.75762 0.0
C1973 C 0.35072 0.11699 0.76161 0.0
C1974 C 0.36631 0.07005 0.75201 0.0
C1975 C 0.38521 0.0863 0.75044 0.0
C1976 C 0.38655 0.1182 0.75458 0.0
C1977 C 0.36951 0.13335 0.75996 0.0
C1978 C 0.4395 0.0623 0.75394 0.0
C1979 C 0.43743 0.03833 0.73328 0.0
C1980 C 0.42269 0.07799 0.75934 0.0
C1981 C 0.40331 0.06999 0.74439 0.0
C1982 C 0.40134 0.046 0.72369 0.0
C1983 C 0.41814 0.03048 0.71817 0.0
H1984 H 0.04587 0.13374 0.83879 0.0
H1985 H 0.99021 0.09542 0.86985 0.0
H1986 H 0.04979 0.17089 0.87913 0.0
H1987 H 0.99426 0.13261 0.90985 0.0
H1988 H 0.9892 0.23422 0.92913 0.0
H1989 H 0.99164 0.19172 0.89641 0.0
H1990 H 0.05155 0.17811 0.93947 0.0
H1991 H 0.04918 0.22081 0.97292 0.0
C1992 C 0.0348 0.13263 0.85467 0.0
C1993 C 0.01742 0.11222 0.85065 0.0
C1994 C 0.03711 0.15384 0.87774 0.0
C1995 C 0.02207 0.15484 0.89691 0.0
C1996 C 1.00584 0.13246 0.89485 0.0
C1997 C 1.00358 0.11118 0.87199 0.0
C1998 C 1.00303 0.22253 0.93152 0.0
C1999 C 0.01895 0.23074 0.95377 0.0
C2000 C 1.00431 0.198 0.91299 0.0
C2001 C 0.02159 0.18142 0.91606 0.0
C2002 C 0.03801 0.1905 0.93706 0.0
C2003 C 0.03665 0.21492 0.956 0.0
H2004 H 0.28091 0.9622 0.91881 0.0
H2005 H 0.2393 0.01287 0.96132 0.0
H2006 H 0.27868 0.99817 0.87642 0.0
H2007 H 0.2371 0.04872 0.91907 0.0
H2008 H 0.23617 0.10539 0.83183 0.0
H2009 H 0.22983 0.05986 0.86276 0.0
H2010 H 0.29414 0.05322 0.88333 0.0
H2011 H 0.3006 0.0984 0.85278 0.0
C2012 C 0.27065 0.98024 0.91849 0.0
C2013 C 0.26058 0.98528 0.94343 0.0
C2014 C 0.2695 1.0009 0.89441 0.0
C2015 C 0.25809 0.02648 0.89497 0.0
C2016 C 0.24605 0.02923 0.91819 0.0
C2017 C 0.24738 0.00881 0.94238 0.0
C2018 C 0.24896 0.09437 0.84318 0.0
C2019 C 0.26891 0.1057 0.84002 0.0
C2020 C 0.24529 0.0682 0.86058 0.0
C2021 C 0.2615 0.05277 0.87476 0.0
C2022 C 0.28138 0.06427 0.87192 0.0
C2023 C 0.28506 0.0905 0.85485 0.0
H2024 H 0.97195 0.10286 0.38783 0.0
H2025 H 0.03569 0.13029 0.4063 0.0
H2026 H 0.97933 0.06926 0.34859 0.0
H2027 H 0.04296 0.09657 0.36708 0.0
H2028 H 0.03968 0.05456 0.26985 0.0
H2029 H 0.03596 0.08973 0.3101 0.0
H2030 H 0.99776 0.02056 0.35041 0.0
H2031 H 1.00146 0.98553 0.31055 0.0
C2032 C 0.98747 0.10203 0.38329 0.0
C2033 C 1.00322 0.11912 0.40027 0.0
C2034 C 0.99172 0.0826 0.36103 0.0
C2035 C 1.01175 0.08009 0.35515 0.0
C2036 C 0.02741 0.0981 0.37121 0.0
C2037 C 0.0232 0.11731 0.39368 0.0
C2038 C 0.03096 0.04662 0.28776 0.0
C2039 C 0.0207 0.01742 0.28691 0.0
C2040 C 0.02874 0.06679 0.31065 0.0
C2041 C 0.01618 0.05801 0.33287 0.0
C2042 C 1.00711 0.02812 0.3331 0.0
C2043 C 1.00939 0.00801 0.31043 0.0
H2044 H 0.27488 0.08229 0.33105 0.0
H2045 H 0.2541 0.13785 0.39784 0.0
H2046 H 0.26486 0.12036 0.2924 0.0
H2047 H 0.24406 0.17544 0.35942 0.0
H2048 H 0.27285 0.25032 0.297 0.0
H2049 H 0.27037 0.20846 0.33321 0.0
H2050 H 0.23556 0.15191 0.26545 0.0
H2051 H 0.23778 0.19423 0.22908 0.0
C2052 C 0.26767 0.10213 0.33727 0.0
C2053 C 0.26574 0.10762 0.36742 0.0
C2054 C 0.26186 0.12379 0.31522 0.0
C2055 C 0.254 0.15093 0.32319 0.0
C2056 C 0.25037 0.15489 0.35288 0.0
C2057 C 0.2562 0.13345 0.3748 0.0
C2058 C 0.26428 0.22921 0.29004 0.0
C2059 C 0.25552 0.22543 0.26038 0.0
C2060 C 0.26277 0.20532 0.31073 0.0
C2061 C 0.25276 0.17705 0.30201 0.0
C2062 C 0.24334 0.17354 0.27261 0.0
C2063 C 0.24451 0.19776 0.25197 0.0
H2064 H 0.98189 0.87131 0.14457 0.0
H2065 H 0.03981 0.90561 0.11812 0.0
H2066 H 0.9782 0.83428 0.1042 0.0
H2067 H 0.03595 0.86858 0.07798 0.0
H2068 H 0.03863 0.76722 0.05714 0.0
H2069 H 0.03654 0.80959 0.09016 0.0
H2070 H 0.9778 0.8268 0.04488 0.0
H2071 H 0.97981 0.78419 0.01123 0.0
C2072 C 0.99354 0.8716 0.12966 0.0
C2073 C 1.01141 0.89082 0.13501 0.0
C2074 C 0.99137 0.85043 0.10658 0.0
C2075 C 1.00703 0.8483 0.08868 0.0
C2076 C 0.02388 0.86956 0.09202 0.0
C2077 C 0.02603 0.89077 0.11493 0.0
C2078 C 0.02513 0.77969 0.05431 0.0
C2079 C 1.00946 0.77252 0.03137 0.0
C2080 C 0.02406 0.80414 0.07302 0.0
C2081 C 1.00724 0.82172 0.06942 0.0
C2082 C 0.991 0.81365 0.04772 0.0
C2083 C 0.99215 0.78927 0.02865 0.0
H2084 H 0.74902 0.04297 0.06714 0.0
H2085 H 0.78783 0.98938 0.02219 0.0
H2086 H 0.7512 0.00692 0.10943 0.0
H2087 H 0.79002 0.95348 0.06443 0.0
H2088 H 0.79112 0.89716 0.15207 0.0
H2089 H 0.79813 0.94253 0.12122 0.0
H2090 H 0.73406 0.95232 0.10197 0.0
H2091 H 0.72694 0.90727 0.13243 0.0
C2092 C 0.75869 0.02424 0.06687 0.0
C2093 C 0.76791 0.01842 0.0413 0.0
C2094 C 0.75983 0.00358 0.09092 0.0
C2095 C 0.77041 0.97723 0.08969 0.0
C2096 C 0.78172 0.9736 0.06579 0.0
C2097 C 0.78039 0.99403 0.04162 0.0
C2098 C 0.77853 0.90888 0.14105 0.0
C2099 C 0.75845 0.89847 0.14446 0.0
C2100 C 0.78258 0.93492 0.1237 0.0
C2101 C 0.76664 0.95113 0.10991 0.0
C2102 C 0.74663 0.9406 0.11307 0.0
C2103 C 0.74256 0.91446 0.13006 0.0
H2104 H 0.05475 0.8954 0.60171 0.0
H2105 H 0.99068 0.87255 0.57963 0.0
H2106 H 0.04752 0.92842 0.64146 0.0
H2107 H 0.98357 0.90567 0.61954 0.0
H2108 H 0.98678 0.94865 0.71697 0.0
H2109 H 0.99032 0.91216 0.67773 0.0
H2110 H 0.02987 0.97888 0.63679 0.0
H2111 H 0.0263 0.01526 0.67549 0.0
C2112 C 0.03917 0.897 0.60564 0.0
C2113 C 0.02328 0.88164 0.58734 0.0
C2114 C 0.03504 0.91607 0.62821 0.0
C2115 C 0.01498 0.91987 0.6331 0.0
C2116 C 0.99914 0.90314 0.61607 0.0
C2117 C 1.00324 0.8843 0.59323 0.0
C2118 C 0.99576 0.95577 0.69912 0.0
C2119 C 1.00643 0.98469 0.69944 0.0
C2120 C 0.99789 0.93485 0.67685 0.0
C2121 C 1.01075 0.94259 0.6548 0.0
C2122 C 0.02026 0.97216 0.65402 0.0
C2123 C 0.01805 0.99304 0.67602 0.0
H2124 H 0.7555 0.75517 0.68618 0.0
H2125 H 0.78936 0.81166 0.75486 0.0
H2126 H 0.75762 0.79742 0.6503 0.0
H2127 H 0.79118 0.85438 0.71884 0.0
H2128 H 0.75131 0.92321 0.65273 0.0
H2129 H 0.76156 0.88528 0.69145 0.0
H2130 H 0.7838 0.83143 0.62477 0.0
H2131 H 0.77352 0.86886 0.58633 0.0
C2132 C 0.76375 0.77646 0.69337 0.0
C2133 C 0.77228 0.78021 0.72315 0.0
C2134 C 0.76502 0.80059 0.67288 0.0
C2135 C 0.77457 0.82908 0.68191 0.0
C2136 C 0.78376 0.83259 0.71144 0.0
C2137 C 0.78283 0.80815 0.73188 0.0
C2138 C 0.7589 0.9037 0.64663 0.0
C2139 C 0.76119 0.89847 0.61656 0.0
C2140 C 0.76483 0.88211 0.66871 0.0
C2141 C 0.77315 0.8553 0.66084 0.0
C2142 C 0.77713 0.85169 0.63124 0.0
C2143 C 0.77118 0.87304 0.60931 0.0
H2144 H 0.04968 0.72028 0.4725 0.0
H2145 H 0.99117 0.73849 0.42623 0.0
H2146 H 0.0516 0.67804 0.43833 0.0
H2147 H 0.99314 0.69639 0.39284 0.0
H2148 H 0.98926 0.59948 0.36635 0.0
H2149 H 0.99372 0.63667 0.40636 0.0
H2150 H 0.05064 0.67141 0.3776 0.0
H2151 H 0.04631 0.63425 0.33724 0.0
C2152 C 0.0374 0.71558 0.45489 0.0
C2153 C 0.02018 0.73252 0.45226 0.0
C2154 C 0.0385 0.69141 0.43553 0.0
C2155 C 0.0223 0.68374 0.41366 0.0
C2156 C 1.00561 0.70158 0.41008 0.0
C2157 C 1.0046 0.72584 0.42904 0.0
C2158 C 1.00299 0.61444 0.36893 0.0
C2159 C 0.01716 0.61448 0.34813 0.0
C2160 C 1.0055 0.63573 0.39178 0.0
C2161 C 0.02228 0.65713 0.3944 0.0
C2162 C 0.03754 0.65513 0.37576 0.0
C2163 C 0.035 0.6339 0.3527 0.0
H2164 H 0.30078 0.60058 0.35551 0.0
H2165 H 0.23647 0.60462 0.32998 0.0
H2166 H 0.29412 0.5554 0.38606 0.0
H2167 H 0.22997 0.55921 0.36099 0.0
H2168 H 0.28082 0.46271 0.41812 0.0
H2169 H 0.27877 0.49922 0.3762 0.0
H2170 H 0.23693 0.54904 0.41902 0.0
H2171 H 0.23908 0.51274 0.46102 0.0
C2172 C 0.28522 0.59204 0.35658 0.0
C2173 C 0.26916 0.6063 0.34038 0.0
C2174 C 0.28146 0.56587 0.37367 0.0
C2175 C 0.26158 0.55359 0.37513 0.0
C2176 C 0.24543 0.5682 0.35979 0.0
C2177 C 0.24919 0.59428 0.34236 0.0
C2178 C 0.27054 0.4807 0.41793 0.0
C2179 C 0.26039 0.48544 0.44287 0.0
C2180 C 0.26948 0.50162 0.39411 0.0
C2181 C 0.25803 0.5271 0.39492 0.0
C2182 C 0.2459 0.52959 0.41805 0.0
C2183 C 0.24718 0.50894 0.44205 0.0
H2184 H 0.02741 0.56091 0.76025 0.0
H2185 H 0.01737 0.48242 0.81778 0.0
H2186 H 0.02358 0.5949 0.80149 0.0
H2187 H 0.01426 0.51647 0.8593 0.0
H2188 H 0.03162 0.59626 0.92909 0.0
H2189 H 0.03905 0.56423 0.88866 0.0
H2190 H 0.9883 0.59656 0.8317 0.0
H2191 H 0.98036 0.62826 0.87258 0.0
C2192 C 0.02516 0.55102 0.78204 0.0
C2193 C 0.02298 0.51914 0.78615 0.0
C2194 C 0.0227 0.57039 0.80539 0.0
C2195 C 0.01853 0.55812 0.83328 0.0
C2196 C 0.01751 0.52632 0.8379 0.0
C2197 C 0.01942 0.50694 0.81434 0.0
C2198 C 0.02207 0.59672 0.90792 0.0
C2199 C 1.00542 0.61485 0.9039 0.0
C2200 C 0.02634 0.57834 0.8849 0.0
C2201 C 0.01433 0.57827 0.85723 0.0
C2202 C 0.99785 0.59661 0.8529 0.0
C2203 C 0.99327 0.61454 0.87623 0.0
H2204 H 0.25295 0.63332 0.89801 0.0
H2205 H 0.2757 0.57944 0.83173 0.0
H2206 H 0.2428 0.67088 0.8596 0.0
H2207 H 0.2655 0.61745 0.79306 0.0
H2208 H 0.23803 0.69216 0.73019 0.0
H2209 H 0.23558 0.64919 0.7658 0.0
H2210 H 0.27028 0.70438 0.83472 0.0
H2211 H 0.27308 0.74689 0.79921 0.0
C2212 C 0.25537 0.62921 0.87504 0.0
C2213 C 0.26553 0.60396 0.86782 0.0
C2214 C 0.24949 0.65063 0.85313 0.0
C2215 C 0.2537 0.6472 0.82364 0.0
C2216 C 0.26207 0.62045 0.81574 0.0
C2217 C 0.26795 0.59882 0.83779 0.0
C2218 C 0.24471 0.69524 0.75316 0.0
C2219 C 0.25577 0.72274 0.7621 0.0
C2220 C 0.2434 0.67067 0.77336 0.0
C2221 C 0.25269 0.67363 0.80286 0.0
C2222 C 0.26279 0.70169 0.81212 0.0
C2223 C 0.26446 0.72594 0.79186 0.0
H2224 H 0.97925 0.28926 0.50614 0.0
H2225 H 0.03836 0.27391 0.552 0.0
H2226 H 0.97763 0.33364 0.53772 0.0
H2227 H 0.03665 0.318 0.58296 0.0
H2228 H 0.04014 0.41252 0.61175 0.0
H2229 H 0.03612 0.37633 0.57087 0.0
H2230 H 0.9778 0.34296 0.59569 0.0
H2231 H 0.98162 0.37919 0.63666 0.0
C2232 C 0.99176 0.29512 0.52309 0.0
C2233 C 1.00898 0.27818 0.52647 0.0
C2234 C 0.99084 0.32055 0.54094 0.0
C2235 C 1.00724 0.32952 0.56206 0.0
C2236 C 0.02406 0.31194 0.56619 0.0
C2237 C 0.02489 0.28646 0.54871 0.0
C2238 C 0.02617 0.39818 0.60801 0.0
C2239 C 1.01149 0.39802 0.62802 0.0
C2240 C 0.02393 0.37743 0.58467 0.0
C2241 C 1.00692 0.35646 0.58086 0.0
C2242 C 0.99111 0.35882 0.59843 0.0
C2243 C 0.99336 0.37953 0.6219 0.0
H2244 H 0.72735 0.40841 0.63236 0.0
H2245 H 0.79161 0.39836 0.65111 0.0
H2246 H 0.73423 0.45338 0.6018 0.0
H2247 H 0.79836 0.4437 0.6201 0.0
H2248 H 0.78747 0.48976 0.52095 0.0
H2249 H 0.79011 0.4545 0.56364 0.0
H2250 H 0.75103 0.50788 0.60823 0.0
H2251 H 0.74836 0.54326 0.56542 0.0
C2252 C 0.74294 0.41564 0.62985 0.0
C2253 C 0.75892 0.39961 0.64401 0.0
C2254 C 0.74688 0.44174 0.61277 0.0
C2255 C 0.76683 0.45228 0.60926 0.0
C2256 C 0.78286 0.43609 0.62284 0.0
C2257 C 0.77894 0.41003 0.64026 0.0
C2258 C 0.78004 0.49453 0.54035 0.0
C2259 C 0.76733 0.51867 0.53975 0.0
C2260 C 0.78164 0.47448 0.5648 0.0
C2261 C 0.77039 0.47823 0.58875 0.0
C2262 C 0.7596 0.50442 0.58969 0.0
C2263 C 0.75817 0.52469 0.56533 0.0
H2264 H 0.98697 0.45152 0.21282 0.0
H2265 H 0.02627 0.51907 0.17215 0.0
H2266 H 0.99097 0.41546 0.17351 0.0
H2267 H 0.03025 0.48312 0.13322 0.0
H2268 H 0.05548 0.40003 0.09705 0.0
H2269 H 0.04819 0.43385 0.13617 0.0
H2270 H 0.9844 0.40806 0.11666 0.0
H2271 H 0.9916 0.37411 0.07758 0.0
C2272 C 0.99601 0.45894 0.19512 0.0
C2273 C 1.00647 0.488 0.19571 0.0
C2274 C 0.9984 0.43825 0.17277 0.0
C2275 C 1.0113 0.44637 0.15085 0.0
C2276 C 0.02063 0.47608 0.15034 0.0
C2277 C 0.01818 0.49672 0.17246 0.0
C2278 C 0.03994 0.40119 0.10139 0.0
C2279 C 0.02412 0.38457 0.08411 0.0
C2280 C 0.03575 0.42075 0.12357 0.0
C2281 C 0.0157 0.42382 0.12903 0.0
C2282 C 0.99997 0.4061 0.11282 0.0
C2283 C 1.00412 0.38677 0.09043 0.0
H2284 H 0.78138 0.38199 0.09781 0.0
H2285 H 0.73792 0.41714 0.14968 0.0
H2286 H 0.78925 0.34358 0.13703 0.0
H2287 H 0.74541 0.37802 0.18852 0.0
H2288 H 0.73876 0.26615 0.19535 0.0
H2289 H 0.73948 0.31173 0.16355 0.0
H2290 H 0.79778 0.34252 0.2086 0.0
H2291 H 0.79712 0.29694 0.24135 0.0
C2292 C 0.77403 0.38202 0.11808 0.0
C2293 C 0.75908 0.40226 0.12098 0.0
C2294 C 0.77857 0.36024 0.1404 0.0
C2295 C 0.76791 0.35819 0.16548 0.0
C2296 C 0.75392 0.37968 0.16935 0.0
C2297 C 0.74968 0.40194 0.1473 0.0
C2298 C 0.75187 0.28234 0.19843 0.0
C2299 C 0.76782 0.27803 0.22107 0.0
C2300 C 0.75216 0.30848 0.18038 0.0
C2301 C 0.76848 0.33053 0.1843 0.0
C2302 C 0.78497 0.32574 0.20567 0.0
C2303 C 0.78461 0.29965 0.22412 0.0
H2304 H 0.54862 0.21932 0.47392 0.0
H2305 H 0.48972 0.23584 0.42799 0.0
H2306 H 0.55063 0.17645 0.44058 0.0
H2307 H 0.49181 0.19318 0.39531 0.0
H2308 H 0.48857 0.09711 0.368 0.0
H2309 H 0.49262 0.1341 0.40819 0.0
H2310 H 0.55003 0.16879 0.38104 0.0
H2311 H 0.54614 0.13183 0.34059 0.0
C2312 C 0.53626 0.21408 0.45655 0.0
C2313 C 0.51893 0.23079 0.45373 0.0
C2314 C 0.53741 0.18955 0.43767 0.0
C2315 C 0.52115 0.18127 0.41609 0.0
C2316 C 0.50431 0.1988 0.41237 0.0
C2317 C 0.50324 0.22342 0.43087 0.0
C2318 C 0.50233 0.11199 0.37102 0.0
C2319 C 0.51676 0.11214 0.35061 0.0
C2320 C 0.5046 0.13318 0.39396 0.0
C2321 C 0.52138 0.15457 0.39701 0.0
C2322 C 0.53691 0.15254 0.37886 0.0
C2323 C 0.53462 0.13141 0.35574 0.0
H2324 H 0.78055 0.96062 0.41904 0.0
H2325 H 0.7402 0.0135 0.46174 0.0
H2326 H 0.77793 0.99547 0.37579 0.0
H2327 H 0.7376 0.04822 0.41864 0.0
H2328 H 0.80102 0.09553 0.35201 0.0
H2329 H 0.79415 0.05027 0.38218 0.0
H2330 H 0.72997 0.0586 0.36211 0.0
H2331 H 0.73672 0.1042 0.33151 0.0
C2332 C 0.77049 0.97892 0.41863 0.0
C2333 C 0.76096 0.98498 0.44385 0.0
C2334 C 0.76908 0.99889 0.39402 0.0
C2335 C 0.75794 0.02479 0.39438 0.0
C2336 C 0.74634 0.02846 0.41793 0.0
C2337 C 0.74793 0.00874 0.44263 0.0
C2338 C 0.78542 0.08793 0.35404 0.0
C2339 C 0.76944 0.10372 0.33958 0.0
C2340 C 0.7815 0.06166 0.37089 0.0
C2341 C 0.76154 0.05069 0.37384 0.0
C2342 C 0.74549 0.06657 0.35985 0.0
C2343 C 0.74939 0.09281 0.34269 0.0
H2344 H 0.53285 0.09893 0.92805 0.0
H2345 H 0.48188 0.13135 0.87116 0.0
H2346 H 0.5405 0.06719 0.8875 0.0
H2347 H 0.49001 0.09993 0.83025 0.0
H2348 H 0.52762 0.0624 0.75873 0.0
H2349 H 0.52504 0.09716 0.7999 0.0
H2350 H 0.51522 0.01972 0.85874 0.0
H2351 H 0.51705 0.98495 0.81733 0.0
C2352 C 0.52346 0.09963 0.90675 0.0
C2353 C 0.50677 0.11768 0.90268 0.0
C2354 C 0.52785 0.08143 0.88367 0.0
C2355 C 0.51593 0.08148 0.85593 0.0
C2356 C 0.49951 0.09993 0.8515 0.0
C2357 C 0.49481 0.11768 0.87485 0.0
C2358 C 0.52554 0.05288 0.78071 0.0
C2359 C 0.52275 0.02112 0.78515 0.0
C2360 C 0.52383 0.07269 0.80403 0.0
C2361 C 0.51985 0.06092 0.83219 0.0
C2362 C 0.51835 0.02917 0.83713 0.0
C2363 C 0.51951 0.00938 0.81362 0.0
H2364 H 0.73915 0.19369 0.72846 0.0
H2365 H 0.77368 0.24955 0.79707 0.0
H2366 H 0.73684 0.1511 0.76454 0.0
H2367 H 0.77106 0.20742 0.83301 0.0
H2368 H 0.77593 0.0817 0.83162 0.0
H2369 H 0.76637 0.1196 0.79251 0.0
H2370 H 0.7438 0.17436 0.85814 0.0
H2371 H 0.75332 0.13693 0.89698 0.0
C2372 C 0.74575 0.19709 0.75143 0.0
C2373 C 0.7566 0.22482 0.76014 0.0
C2374 C 0.74454 0.17272 0.77189 0.0
C2375 C 0.75372 0.17612 0.80142 0.0
C2376 C 0.76365 0.20437 0.81041 0.0
C2377 C 0.76521 0.22842 0.78989 0.0
C2378 C 0.76839 0.1014 0.8374 0.0
C2379 C 0.76581 0.10687 0.86732 0.0
C2380 C 0.76287 0.12296 0.81509 0.0
C2381 C 0.75466 0.14999 0.8226 0.0
C2382 C 0.75037 0.15389 0.85198 0.0
C2383 C 0.7559 0.13253 0.87414 0.0
H2384 H 0.48203 0.86864 0.64744 0.0
H2385 H 0.53824 0.90674 0.61796 0.0
H2386 H 0.47819 0.83221 0.60647 0.0
H2387 H 0.53426 0.87029 0.57732 0.0
H2388 H 0.53859 0.76961 0.55464 0.0
H2389 H 0.53637 0.81104 0.5887 0.0
H2390 H 0.47657 0.82637 0.54626 0.0
H2391 H 0.47871 0.78473 0.51151 0.0
C2392 C 0.49326 0.86984 0.6318 0.0
C2393 C 0.51073 0.89002 0.63639 0.0
C2394 C 0.491 0.84903 0.60837 0.0
C2395 C 0.50617 0.84819 0.5894 0.0
C2396 C 0.52257 0.87029 0.59215 0.0
C2397 C 0.52479 0.89116 0.61537 0.0
C2398 C 0.52484 0.78146 0.55264 0.0
C2399 C 0.50888 0.77404 0.5302 0.0
C2400 C 0.52368 0.80538 0.57197 0.0
C2401 C 0.50649 0.82215 0.56949 0.0
C2402 C 0.49003 0.81383 0.54825 0.0
C2403 C 0.49127 0.79001 0.52854 0.0
H2404 H 0.24566 0.03802 0.56407 0.0
H2405 H 0.28607 0.98666 0.51982 0.0
H2406 H 0.24763 1.0013 0.60581 0.0
H2407 H 0.28803 0.95007 0.56151 0.0
H2408 H 0.29 0.89483 0.65035 0.0
H2409 H 0.29607 0.93962 0.61839 0.0
H2410 H 0.2317 0.94602 0.59858 0.0
H2411 H 0.22547 0.90149 0.63018 0.0
C2412 C 0.25557 0.01959 0.56382 0.0
C2413 C 0.26542 0.01469 0.53861 0.0
C2414 C 0.25657 0.99852 0.58754 0.0
C2415 C 0.26764 0.97267 0.58638 0.0
C2416 C 0.27936 0.9698 0.56281 0.0
C2417 C 0.27817 0.99063 0.53896 0.0
C2418 C 0.27713 0.90558 0.63891 0.0
C2419 C 0.25723 0.89445 0.64266 0.0
C2420 C 0.28065 0.93133 0.62091 0.0
C2421 C 0.26435 0.94649 0.60671 0.0
C2422 C 0.24452 0.93511 0.61 0.0
C2423 C 0.24098 0.90929 0.62768 0.0
H2424 H 0.49193 0.87313 0.07857 0.0
H2425 H 0.55572 0.90001 0.09739 0.0
H2426 H 0.48462 0.90745 0.11723 0.0
H2427 H 0.54832 0.93418 0.13619 0.0
H2428 H 0.5261 0.01933 0.17179 0.0
H2429 H 0.53033 0.98313 0.13319 0.0
H2430 H 0.49096 0.91563 0.17354 0.0
H2431 H 0.48667 0.95195 0.21244 0.0
C2432 C 0.50442 0.88606 0.09123 0.0
C2433 C 0.52441 0.88404 0.08483 0.0
C2434 C 0.5002 0.90562 0.11337 0.0
C2435 C 0.51587 0.92372 0.12929 0.0
C2436 C 0.53593 0.9208 0.12379 0.0
C2437 C 0.54019 0.90102 0.10184 0.0
C2438 C 0.51803 0.99697 0.17215 0.0
C2439 C 0.50621 0.98837 0.1953 0.0
C2440 C 0.52063 0.97618 0.15024 0.0
C2441 C 0.51136 0.94643 0.15088 0.0
C2442 C 0.49834 0.93844 0.17269 0.0
C2443 C 0.49579 0.95928 0.1948 0.0
H2444 H 0.29889 0.79287 0.23707 0.0
H2445 H 0.2356 0.77547 0.2043 0.0
H2446 H 0.30023 0.83957 0.20573 0.0
H2447 H 0.23698 0.82212 0.17431 0.0
H2448 H 0.24047 0.9224 0.15187 0.0
H2449 H 0.24783 0.88487 0.19223 0.0
H2450 H 0.2888 0.84399 0.14009 0.0
H2451 H 0.28106 0.8808 0.09945 0.0
C2452 C 0.28536 0.79889 0.22318 0.0
C2453 C 0.26717 0.78044 0.22307 0.0
C2454 C 0.28612 0.82562 0.20559 0.0
C2455 C 0.26857 0.83448 0.18842 0.0
C2456 C 0.25056 0.8159 0.18798 0.0
C2457 C 0.24989 0.78901 0.20487 0.0
C2458 C 0.25159 0.90611 0.14958 0.0
C2459 C 0.26005 0.90405 0.12263 0.0
C2460 C 0.25579 0.88477 0.17255 0.0
C2461 C 0.26883 0.86178 0.16897 0.0
C2462 C 0.27885 0.86175 0.14329 0.0
C2463 C 0.27432 0.8826 0.12009 0.0
H2464 H 0.54633 0.63379 0.83933 0.0
H2465 H 0.4892 0.59729 0.86694 0.0
H2466 H 0.54988 0.67052 0.87993 0.0
H2467 H 0.49292 0.63403 0.90733 0.0
H2468 H 0.48896 0.73497 0.92882 0.0
H2469 H 0.49123 0.69279 0.89564 0.0
H2470 H 0.55085 0.67782 0.93907 0.0
H2471 H 0.54867 0.72024 0.97285 0.0
C2472 C 0.53484 0.63295 0.85454 0.0
C2473 C 0.51719 0.61321 0.84946 0.0
C2474 C 0.53693 0.65395 0.87775 0.0
C2475 C 0.52142 0.65539 0.89605 0.0
C2476 C 0.50486 0.6336 0.89297 0.0
C2477 C 0.50279 0.61256 0.86992 0.0
C2478 C 0.50268 0.72304 0.93118 0.0
C2479 C 0.51857 0.73077 0.95363 0.0
C2480 C 0.50387 0.69868 0.91241 0.0
C2481 C 0.52101 0.68178 0.91546 0.0
C2482 C 0.53741 0.69043 0.93666 0.0
C2483 C 0.53615 0.7147 0.9558 0.0
H2484 H 0.73911 0.51342 0.96279 0.0
H2485 H 0.78235 0.46588 0.92052 0.0
H2486 H 0.73741 0.55086 0.92186 0.0
H2487 H 0.78062 0.5034 0.87943 0.0
H2488 H 0.80187 0.60388 0.85833 0.0
H2489 H 0.79536 0.55861 0.88879 0.0
H2490 H 0.73109 0.56359 0.86579 0.0
H2491 H 0.73745 0.6092 0.83508 0.0
C2492 C 0.74762 0.51038 0.94409 0.0
C2493 C 0.76113 0.48727 0.94488 0.0
C2494 C 0.74662 0.53172 0.9207 0.0
C2495 C 0.75926 0.53027 0.89805 0.0
C2496 C 0.77098 0.5051 0.89704 0.0
C2497 C 0.77183 0.48354 0.92033 0.0
C2498 C 0.78632 0.59563 0.85993 0.0
C2499 C 0.77019 0.61017 0.84425 0.0
C2500 C 0.78262 0.56938 0.87694 0.0
C2501 C 0.76275 0.55727 0.87883 0.0
C2502 C 0.74654 0.57237 0.86424 0.0
C2503 C 0.75023 0.59858 0.84697 0.0
H2504 H 0.50118 0.486 0.31119 0.0
H2505 H 0.53943 0.55425 0.26946 0.0
H2506 H 0.49733 0.52186 0.35027 0.0
H2507 H 0.53554 0.59022 0.3089 0.0
H2508 H 0.53535 0.63198 0.40458 0.0
H2509 H 0.54253 0.598 0.36556 0.0
H2510 H 0.47888 0.5706 0.34752 0.0
H2511 H 0.47159 0.60444 0.38664 0.0
C2512 C 0.50908 0.50849 0.31068 0.0
C2513 C 0.52043 0.51745 0.28709 0.0
C2514 C 0.5067 0.52907 0.33289 0.0
C2515 C 0.51573 0.55895 0.33209 0.0
C2516 C 0.52834 0.56729 0.30985 0.0
C2517 C 0.53066 0.54667 0.28743 0.0
C2518 C 0.52284 0.61898 0.39206 0.0
C2519 C 0.50289 0.62073 0.39881 0.0
C2520 C 0.52699 0.59962 0.36971 0.0
C2521 C 0.5113 0.58144 0.35393 0.0
C2522 C 0.49128 0.58407 0.3598 0.0
C2523 C 0.48709 0.60363 0.38196 0.0
H2524 H 0.77191 0.74908 0.29761 0.0
H2525 H 0.73896 0.6937 0.22725 0.0
H2526 H 0.76931 0.70619 0.3327 0.0
H2527 H 0.73669 0.65035 0.26248 0.0
H2528 H 0.75178 0.63412 0.39492 0.0
H2529 H 0.74192 0.67166 0.35636 0.0
H2530 H 0.76658 0.61941 0.29082 0.0
H2531 H 0.77648 0.58139 0.32967 0.0
C2532 C 0.76378 0.72788 0.28986 0.0
C2533 C 0.75562 0.72464 0.25986 0.0
C2534 C 0.76223 0.7034 0.30989 0.0
C2535 C 0.75278 0.67508 0.30017 0.0
C2536 C 0.74402 0.67202 0.27039 0.0
C2537 C 0.74521 0.69682 0.25041 0.0
C2538 C 0.7547 0.63026 0.37213 0.0
C2539 C 0.76531 0.60533 0.36529 0.0
C2540 C 0.749 0.65167 0.35013 0.0
C2541 C 0.75381 0.64858 0.32089 0.0
C2542 C 0.76267 0.62215 0.31329 0.0
C2543 C 0.76838 0.60051 0.33545 0.0
H2544 H 0.53594 0.40322 0.1172 0.0
H2545 H 0.48065 0.36695 0.15083 0.0
H2546 H 0.53056 0.36569 0.07738 0.0
H2547 H 0.47539 0.32957 0.11057 0.0
H2548 H 0.53182 0.26029 0.06283 0.0
H2549 H 0.52882 0.301 0.0976 0.0
H2550 H 0.47611 0.32944 0.04244 0.0
H2551 H 0.47906 0.28874 0.00701 0.0
C2552 C 0.52238 0.38788 0.11566 0.0
C2553 C 0.50897 0.3876 0.13757 0.0
C2554 C 0.51933 0.36649 0.09289 0.0
C2555 C 0.50274 0.34481 0.09147 0.0
C2556 C 0.48827 0.34625 0.11145 0.0
C2557 C 0.49135 0.36759 0.13443 0.0
C2558 C 0.5194 0.27485 0.05821 0.0
C2559 C 0.50586 0.27159 0.03195 0.0
C2560 C 0.51775 0.29812 0.07805 0.0
C2561 C 0.50246 0.31831 0.07216 0.0
C2562 C 0.48805 0.31401 0.04713 0.0
C2563 C 0.48975 0.29074 0.02703 0.0
H2564 H 0.25083 0.54442 0.06699 0.0
H2565 H 0.28777 0.48777 0.02193 0.0
H2566 H 0.2535 0.50979 0.11039 0.0
H2567 H 0.2904 0.45327 0.06519 0.0
H2568 H 0.29155 0.39716 0.15178 0.0
H2569 H 0.29908 0.44262 0.12138 0.0
H2570 H 0.23535 0.45618 0.10502 0.0
H2571 H 0.22771 0.4111 0.13505 0.0
C2572 C 0.26018 0.5253 0.06687 0.0
C2573 C 0.26867 0.51816 0.04099 0.0
C2574 C 0.26163 0.50547 0.09158 0.0
C2575 C 0.27175 0.47863 0.09067 0.0
C2576 C 0.28245 0.47377 0.06635 0.0
C2577 C 0.28083 0.49337 0.04156 0.0
C2578 C 0.27913 0.40973 0.14151 0.0
C2579 C 0.25899 0.40025 0.14548 0.0
C2580 C 0.2835 0.43587 0.12446 0.0
C2581 C 0.26782 0.45309 0.11147 0.0
C2582 C 0.24775 0.44369 0.11548 0.0
C2583 C 0.24336 0.4175 0.13219 0.0
H2584 H 0.49504 0.40047 0.56066 0.0
H2585 H 0.54944 0.37431 0.6139 0.0
H2586 H 0.48788 0.43238 0.60122 0.0
H2587 H 0.54176 0.40609 0.65489 0.0
H2588 H 0.50063 0.4421 0.72683 0.0
H2589 H 0.50419 0.40659 0.68664 0.0
H2590 H 0.51598 0.48298 0.62743 0.0
H2591 H 0.51314 0.51852 0.66783 0.0
C2592 C 0.50534 0.40114 0.58116 0.0
C2593 C 0.52285 0.38481 0.58411 0.0
C2594 C 0.50118 0.41945 0.60425 0.0
C2595 C 0.51422 0.42133 0.63092 0.0
C2596 C 0.53145 0.40457 0.63441 0.0
C2597 C 0.53586 0.38659 0.61102 0.0
C2598 C 0.5034 0.45124 0.70495 0.0
C2599 C 0.50634 0.48294 0.70009 0.0
C2600 C 0.50569 0.431 0.68224 0.0
C2601 C 0.51045 0.44231 0.65431 0.0
C2602 C 0.51229 0.47396 0.64893 0.0
C2603 C 0.51052 0.49417 0.67183 0.0
H2604 H 0.28958 0.30889 0.75332 0.0
H2605 H 0.25339 0.25392 0.68555 0.0
H2606 H 0.292 0.35133 0.71715 0.0
H2607 H 0.25611 0.29593 0.64952 0.0
H2608 H 0.25282 0.42195 0.65194 0.0
H2609 H 0.26261 0.38365 0.69052 0.0
H2610 H 0.28311 0.32837 0.62341 0.0
H2611 H 0.27337 0.36621 0.58509 0.0
C2612 C 0.28262 0.30563 0.7305 0.0
C2613 C 0.27126 0.27823 0.7221 0.0
C2614 C 0.28392 0.32992 0.70999 0.0
C2615 C 0.27427 0.32676 0.6807 0.0
C2616 C 0.26387 0.29877 0.67194 0.0
C2617 C 0.26224 0.2748 0.69252 0.0
C2618 C 0.25996 0.40204 0.6457 0.0
C2619 C 0.2619 0.39656 0.61556 0.0
C2620 C 0.26562 0.38025 0.6677 0.0
C2621 C 0.27329 0.35298 0.65966 0.0
C2622 C 0.27696 0.34903 0.62999 0.0
C2623 C 0.27131 0.37062 0.60813 0.0
H2624 H 0.19688 0.25502 0.12384 0.0
H2625 H 0.16421 0.29731 0.1874 0.0
H2626 H 0.16557 0.24702 0.08989 0.0
H2627 H 0.13286 0.2884 0.15386 0.0
H2628 H 0.07811 0.25287 0.09093 0.0
H2629 H 0.10868 0.24251 0.12405 0.0
H2630 H 0.14502 0.29531 0.06513 0.0
H2631 H 0.11446 0.30655 0.0325 0.0
C2632 C 0.18287 0.26143 0.13107 0.0
C2633 C 0.18287 0.27676 0.1582 0.0
C2634 C 0.16505 0.257 0.1116 0.0
C2635 C 0.14694 0.26705 0.11941 0.0
C2636 C 0.14665 0.28018 0.14755 0.0
C2637 C 0.16454 0.28533 0.16667 0.0
C2638 C 0.09268 0.26142 0.08457 0.0
C2639 C 0.094 0.28049 0.0592 0.0
C2640 C 0.11009 0.25561 0.10357 0.0
C2641 C 0.12906 0.26805 0.09697 0.0
C2642 C 0.13052 0.2852 0.07044 0.0
C2643 C 0.11309 0.29168 0.05186 0.0
H2644 H 0.07892 0.01165 0.14874 0.0
H2645 H 0.10921 0.95719 0.21858 0.0
H2646 H 0.11005 0.01783 0.12429 0.0
H2647 H 0.13996 0.96267 0.19432 0.0
H2648 H 0.19697 0.98804 0.15301 0.0
H2649 H 0.16777 0.99439 0.1797 0.0
H2650 H 0.12846 0.98456 0.09656 0.0
H2651 H 0.15779 0.97897 0.06985 0.0
C2652 C 0.09246 1.00208 0.15948 0.0
C2653 C 0.09177 0.9844 0.18583 0.0
C2654 C 0.11019 0.00507 0.14522 0.0
C2655 C 0.12758 0.99059 0.15717 0.0
C2656 C 0.12709 0.97454 0.18456 0.0
C2657 C 0.10943 0.97143 0.19859 0.0
C2658 C 0.18211 0.98758 0.14041 0.0
C2659 C 0.1797 0.983 0.10934 0.0
C2660 C 0.16533 0.9911 0.15572 0.0
C2661 C 0.14566 0.99002 0.14038 0.0
C2662 C 0.14334 0.98608 0.10912 0.0
C2663 C 0.16016 0.98263 0.0938 0.0
H2664 H 0.91353 0.69165 0.95042 0.0
H2665 H 0.94971 0.75098 0.8962 0.0
H2666 H 0.883 0.70386 0.91816 0.0
H2667 H 0.91918 0.76228 0.8634 0.0
H2668 H 0.86386 0.7095 0.79666 0.0
H2669 H 0.89517 0.71679 0.83063 0.0
H2670 H 0.86239 0.75468 0.89657 0.0
H2671 H 0.83113 0.74851 0.86213 0.0
C2672 C 0.91487 0.70784 0.93205 0.0
C2673 C 0.93391 0.72046 0.92582 0.0
C2674 C 0.89745 0.71489 0.91371 0.0
C2675 C 0.89887 0.73406 0.88848 0.0
C2676 C 0.91778 0.74765 0.88292 0.0
C2677 C 0.93517 0.74126 0.90172 0.0
C2678 C 0.86354 0.72058 0.8179 0.0
C2679 C 0.8452 0.72873 0.82673 0.0
C2680 C 0.88139 0.7247 0.8373 0.0
C2681 C 0.88105 0.73627 0.86609 0.0
C2682 C 0.86295 0.74593 0.87436 0.0
C2683 C 0.84517 0.7426 0.8546 0.0
H2684 H 0.95336 0.03442 0.85767 0.0
H2685 H 0.92277 1.00143 0.77358 0.0
H2686 H 0.9217 0.02942 0.87973 0.0
H2687 H 0.8907 0.99582 0.79577 0.0
H2688 H 0.83662 0.03818 0.83356 0.0
H2689 H 0.86779 0.03155 0.81152 0.0
H2690 H 0.89474 0.99695 0.89643 0.0
H2691 H 0.86379 0.00422 0.91847 0.0
C2692 C 0.9399 0.02483 0.8443 0.0
C2693 C 0.94054 0.01771 0.81414 0.0
C2694 C 0.92169 0.02205 0.85689 0.0
C2695 C 0.90353 0.01232 0.83955 0.0
C2696 C 0.90436 0.00364 0.8097 0.0
C2697 C 0.92274 0.00628 0.79711 0.0
C2698 C 0.84915 0.02888 0.84739 0.0
C2699 C 0.84775 0.02177 0.87776 0.0
C2700 C 0.86698 0.02483 0.8347 0.0
C2701 C 0.88384 0.01362 0.85213 0.0
C2702 C 0.88218 0.00587 0.88236 0.0
C2703 C 0.86438 0.00991 0.89499 0.0
H2704 H 0.1926 0.7522 0.62895 0.0
H2705 H 0.16594 0.79039 0.70146 0.0
H2706 H 0.15937 0.74726 0.59938 0.0
H2707 H 0.13279 0.78464 0.67239 0.0
H2708 H 0.09703 0.83229 0.59384 0.0
H2709 H 0.12579 0.81917 0.62781 0.0
H2710 H 0.12078 0.72796 0.59211 0.0
H2711 H 0.09124 0.74125 0.55731 0.0
C2712 C 0.1795 0.75811 0.63911 0.0
C2713 C 0.1818 0.77209 0.66728 0.0
C2714 C 0.16049 0.75526 0.62218 0.0
C2715 C 0.14362 0.7661 0.63342 0.0
C2716 C 0.14563 0.77657 0.66303 0.0
C2717 C 0.16457 0.77979 0.6797 0.0
C2718 C 0.1019 0.80934 0.59304 0.0
C2719 C 0.09188 0.78784 0.57268 0.0
C2720 C 0.11829 0.80171 0.61289 0.0
C2721 C 0.12531 0.77237 0.61299 0.0
C2722 C 0.1155 0.75067 0.59261 0.0
C2723 C 0.09867 0.75824 0.57279 0.0
H2724 H 0.18903 0.45319 0.64829 0.0
H2725 H 0.16776 0.51014 0.57345 0.0
H2726 H 0.15852 0.46031 0.67157 0.0
H2727 H 0.13745 0.51804 0.59701 0.0
H2728 H 0.07525 0.48645 0.6292 0.0
H2729 H 0.10703 0.49027 0.6072 0.0
H2730 H 0.13989 0.49479 0.69589 0.0
H2731 H 0.10781 0.48998 0.71767 0.0
C2732 C 0.17795 0.4676 0.63702 0.0
C2733 C 0.18082 0.48112 0.60906 0.0
C2734 C 0.16049 0.47193 0.65049 0.0
C2735 C 0.14546 0.48996 0.63635 0.0
C2736 C 0.14856 0.50384 0.60852 0.0
C2737 C 0.166 0.49945 0.59505 0.0
C2738 C 0.08929 0.4897 0.64387 0.0
C2739 C 0.08913 0.48889 0.67506 0.0
C2740 C 0.10757 0.49166 0.6313 0.0
C2741 C 0.12616 0.49263 0.64971 0.0
C2742 C 0.12591 0.49368 0.681 0.0
C2743 C 0.10757 0.49163 0.69354 0.0
H2744 H 0.86281 0.20752 0.29558 0.0
H2745 H 0.82992 0.24988 0.35877 0.0
H2746 H 0.894 0.21579 0.32961 0.0
H2747 H 0.86107 0.25707 0.39335 0.0
H2748 H 0.91227 0.19562 0.45002 0.0
H2749 H 0.8817 0.20695 0.41736 0.0
H2750 H 0.91788 0.26269 0.36044 0.0
H2751 H 0.94841 0.2523 0.39355 0.0
C2752 C 0.86243 0.2195 0.31631 0.0
C2753 C 0.84409 0.22835 0.3245 0.0
C2754 C 0.88021 0.22419 0.33575 0.0
C2755 C 0.8798 0.23705 0.36397 0.0
C2756 C 0.86168 0.24731 0.37157 0.0
C2757 C 0.84397 0.2434 0.35174 0.0
C2758 C 0.9136 0.21109 0.43109 0.0
C2759 C 0.93265 0.22315 0.42434 0.0
C2760 C 0.89616 0.21763 0.41251 0.0
C2761 C 0.89758 0.23572 0.38656 0.0
C2762 C 0.91649 0.2489 0.38051 0.0
C2763 C 0.93388 0.24302 0.3995 0.0
H2764 H 0.91874 0.54708 0.26568 0.0
H2765 H 0.94814 0.49233 0.33609 0.0
H2766 H 0.8877 0.54197 0.28924 0.0
H2767 H 0.91672 0.48657 0.35988 0.0
H2768 H 0.86885 0.52647 0.41328 0.0
H2769 H 0.89832 0.52023 0.38711 0.0
H2770 H 0.85952 0.51087 0.30346 0.0
H2771 H 0.83017 0.51789 0.32963 0.0
C2772 C 0.91822 0.53271 0.28556 0.0
C2773 C 0.93571 0.51951 0.29867 0.0
C2774 C 0.90041 0.52988 0.29923 0.0
C2775 C 0.8996 0.51393 0.32662 0.0
C2776 C 0.91682 0.49923 0.33893 0.0
C2777 C 0.93471 0.50195 0.32503 0.0
C2778 C 0.86661 0.52279 0.38933 0.0
C2779 C 0.84717 0.52273 0.37351 0.0
C2780 C 0.88351 0.51895 0.37432 0.0
C2781 C 0.8814 0.51492 0.34308 0.0
C2782 C 0.86182 0.5142 0.32744 0.0
C2783 C 0.84494 0.51811 0.34245 0.0
H2784 H 0.61424 0.30515 0.53318 0.0
H2785 H 0.57823 0.25257 0.59278 0.0
H2786 H 0.64499 0.29374 0.56527 0.0
H2787 H 0.60902 0.24207 0.62543 0.0
H2788 H 0.66527 0.29699 0.68732 0.0
H2789 H 0.63367 0.28789 0.65442 0.0
H2790 H 0.66567 0.24563 0.59015 0.0
H2791 H 0.69727 0.25377 0.62356 0.0
C2792 C 0.61298 0.29046 0.5527 0.0
C2793 C 0.59394 0.27963 0.5605 0.0
C2794 C 0.63053 0.28388 0.57097 0.0
C2795 C 0.62926 0.26701 0.5977 0.0
C2796 C 0.6103 0.25493 0.60479 0.0
C2797 C 0.59276 0.26083 0.58607 0.0
C2798 C 0.66539 0.2847 0.6667 0.0
C2799 C 0.68362 0.27592 0.65801 0.0
C2800 C 0.64735 0.27948 0.64793 0.0
C2801 C 0.64734 0.26606 0.61986 0.0
C2802 C 0.66536 0.25583 0.61181 0.0
C2803 C 0.68335 0.26032 0.63097 0.0
H2804 H 0.57761 0.00446 0.6411 0.0
H2805 H 0.60865 0.96745 0.72169 0.0
H2806 H 0.60915 0.00765 0.6178 0.0
H2807 H 0.64023 0.97152 0.69919 0.0
H2808 H 0.68216 0.93628 0.63714 0.0
H2809 H 0.65227 0.94233 0.66203 0.0
H2810 H 0.64371 0.0282 0.61492 0.0
H2811 H 0.67357 0.02162 0.58939 0.0
C2812 C 0.59142 0.99856 0.65434 0.0
C2813 C 0.59082 0.98632 0.68339 0.0
C2814 C 0.60948 1.00006 0.64093 0.0
C2815 C 0.62725 0.98932 0.65638 0.0
C2816 C 0.62682 0.97935 0.68631 0.0
C2817 C 0.60882 0.97761 0.6995 0.0
C2818 C 0.674 0.95657 0.63224 0.0
C2819 C 0.68034 0.97859 0.61149 0.0
C2820 C 0.65689 0.9602 0.64668 0.0
C2821 C 0.64565 0.98605 0.64092 0.0
C2822 C 0.65194 0.00801 0.61994 0.0
C2823 C 0.66911 0.00434 0.60542 0.0
H2824 H 0.44813 0.75284 0.39531 0.0
H2825 H 0.4123 0.69464 0.45095 0.0
H2826 H 0.41748 0.76357 0.36259 0.0
H2827 H 0.38162 0.70627 0.4187 0.0
H2828 H 0.32931 0.74858 0.36124 0.0
H2829 H 0.36044 0.7556 0.39595 0.0
H2830 H 0.39391 0.71805 0.33065 0.0
H2831 H 0.36276 0.70994 0.2965 0.0
C2832 C 0.43364 0.74329 0.40118 0.0
C2833 C 0.43254 0.72291 0.42565 0.0
C2834 C 0.41618 0.74935 0.3824 0.0
C2835 C 0.39731 0.73585 0.38831 0.0
C2836 C 0.39602 0.71722 0.41395 0.0
C2837 C 0.41354 0.7105 0.43229 0.0
C2838 C 0.34347 0.74294 0.35394 0.0
C2839 C 0.34377 0.72897 0.32618 0.0
C2840 C 0.36117 0.74672 0.37384 0.0
C2841 C 0.37945 0.73743 0.36582 0.0
C2842 C 0.38001 0.72571 0.33714 0.0
C2843 C 0.36225 0.72113 0.31762 0.0
H2844 H 0.42208 0.0043 0.26957 0.0
H2845 H 0.45271 0.03797 0.3534 0.0
H2846 H 0.39012 0.99817 0.29207 0.0
H2847 H 0.42118 0.03249 0.37571 0.0
H2848 H 0.36399 0.00556 0.41543 0.0
H2849 H 0.39482 0.99916 0.39276 0.0
H2850 H 0.3668 0.03317 0.30827 0.0
H2851 H 0.33574 0.03892 0.33095 0.0
C2852 C 0.42209 0.00924 0.29308 0.0
C2853 C 0.43987 0.02099 0.30996 0.0
C2854 C 0.40377 0.00629 0.30585 0.0
C2855 C 0.40299 0.01494 0.33573 0.0
C2856 C 0.42113 0.0251 0.35287 0.0
C2857 C 0.43927 0.02818 0.34011 0.0
C2858 C 0.36432 0.0113 0.39191 0.0
C2859 C 0.34743 0.02274 0.37499 0.0
C2860 C 0.38205 0.00776 0.37892 0.0
C2861 C 0.38338 0.01563 0.34863 0.0
C2862 C 0.36626 0.0264 0.3315 0.0
C2863 C 0.34849 0.02993 0.34455 0.0
H2864 H 0.69779 0.75556 0.1218 0.0
H2865 H 0.66443 0.79429 0.18666 0.0
H2866 H 0.66654 0.74753 0.08764 0.0
H2867 H 0.63317 0.7853 0.15296 0.0
H2868 H 0.61472 0.80722 0.03215 0.0
H2869 H 0.6454 0.79555 0.06427 0.0
H2870 H 0.60945 0.74023 0.12184 0.0
H2871 H 0.57876 0.75105 0.08923 0.0
C2872 C 0.68365 0.7611 0.12925 0.0
C2873 C 0.68342 0.77547 0.15683 0.0
C2874 C 0.66587 0.75668 0.10966 0.0
C2875 C 0.64757 0.76575 0.11781 0.0
C2876 C 0.64709 0.77781 0.14637 0.0
C2877 C 0.66493 0.78298 0.1656 0.0
C2878 C 0.61347 0.79172 0.05108 0.0
C2879 C 0.59444 0.77997 0.05821 0.0
C2880 C 0.63097 0.78499 0.06936 0.0
C2881 C 0.62967 0.76699 0.09541 0.0
C2882 C 0.61076 0.75398 0.10174 0.0
C2883 C 0.59328 0.76008 0.08302 0.0
H2884 H 0.68099 0.43612 0.13514 0.0
H2885 H 0.67402 0.52413 0.09186 0.0
H2886 H 0.65128 0.44182 0.16045 0.0
H2887 H 0.6443 0.53033 0.1179 0.0
H2888 H 0.57789 0.5068 0.14353 0.0
H2889 H 0.60936 0.51048 0.12003 0.0
H2890 H 0.64007 0.46972 0.19933 0.0
H2891 H 0.60856 0.46517 0.22197 0.0
C2892 C 0.67322 0.45691 0.13132 0.0
C2893 C 0.67997 0.47979 0.11172 0.0
C2894 C 0.65622 0.46033 0.14602 0.0
C2895 C 0.64549 0.48683 0.1417 0.0
C2896 C 0.65215 0.50965 0.12181 0.0
C2897 C 0.66924 0.50618 0.10701 0.0
C2898 C 0.59162 0.49994 0.15632 0.0
C2899 C 0.59094 0.48626 0.18477 0.0
C2900 C 0.60964 0.50175 0.14279 0.0
C2901 C 0.62724 0.48987 0.15753 0.0
C2902 C 0.62676 0.47846 0.18698 0.0
C2903 C 0.60881 0.47641 0.20027 0.0
H2904 H 0.44023 0.26305 0.92109 0.0
H2905 H 0.42207 0.16687 0.90867 0.0
H2906 H 0.41033 0.27593 0.88693 0.0
H2907 H 0.39309 0.17986 0.87479 0.0
H2908 H 0.36154 0.20733 0.7887 0.0
H2909 H 0.39385 0.21227 0.82012 0.0
H2910 H 0.36622 0.25774 0.88723 0.0
H2911 H 0.33362 0.25283 0.85567 0.0
C2912 C 0.42991 0.24476 0.91133 0.0
C2913 C 0.43364 0.21394 0.9176 0.0
C2914 C 0.4129 0.25216 0.89185 0.0
C2915 C 0.39974 0.22881 0.87805 0.0
C2916 C 0.40321 0.19823 0.88491 0.0
C2917 C 0.41983 0.19087 0.90451 0.0
C2918 C 0.36249 0.21945 0.80961 0.0
C2919 C 0.34505 0.22932 0.81995 0.0
C2920 C 0.38097 0.22233 0.82752 0.0
C2921 C 0.38235 0.23516 0.85606 0.0
C2922 C 0.36548 0.24805 0.86513 0.0
C2923 C 0.34687 0.24525 0.84707 0.0
H2924 H 0.34654 0.57026 0.84931 0.0
H2925 H 0.35335 0.48187 0.89183 0.0
H2926 H 0.37634 0.56479 0.82409 0.0
H2927 H 0.38314 0.4759 0.8659 0.0
H2928 H 0.44952 0.49858 0.84036 0.0
H2929 H 0.41805 0.49526 0.86388 0.0
H2930 H 0.38774 0.5375 0.7851 0.0
H2931 H 0.41923 0.54165 0.76244 0.0
C2932 C 0.35429 0.54944 0.85298 0.0
C2933 C 0.34746 0.52639 0.87235 0.0
C2934 C 0.37135 0.54616 0.83833 0.0
C2935 C 0.38207 0.51962 0.84248 0.0
C2936 C 0.37532 0.49662 0.86213 0.0
C2937 C 0.35818 0.49996 0.87687 0.0
C2938 C 0.43588 0.5059 0.82769 0.0
C2939 C 0.4367 0.51991 0.7994 0.0
C2940 C 0.41786 0.5043 0.84124 0.0
C2941 C 0.40036 0.51666 0.82666 0.0
C2942 C 0.40096 0.52843 0.79736 0.0
C2943 C 0.41892 0.53028 0.78406 0.0
H2944 H 0.05728 0.44118 0.98446 0.0
H2945 H 0.993 0.41852 0.96596 0.0
H2946 H 0.05134 0.49376 0.99181 0.0
H2947 H 0.98698 0.47224 0.97072 0.0
H2948 H 0.97921 0.55841 0.01909 0.0
H2949 H 0.98642 0.50612 0.00912 0.0
H2950 H 0.04255 0.5406 0.97668 0.0
H2951 H 0.03605 0.59194 0.98945 0.0
C2952 C 0.04184 0.44772 0.98081 0.0
C2953 C 0.02558 0.42554 0.97533 0.0
C2954 C 0.0384 0.47812 0.98496 0.0
C2955 C 0.01859 0.48738 0.98281 0.0
C2956 C 1.00241 0.46577 0.97382 0.0
C2957 C 1.00586 0.43504 0.97032 0.0
C2958 C 0.99347 0.55437 0.01109 0.0
C2959 C 1.00733 0.57893 0.00579 0.0
C2960 C 0.99739 0.52457 0.00452 0.0
C2961 C 0.01492 0.51892 0.99144 0.0
C2962 C 0.02906 0.54365 0.98716 0.0
C2963 C 0.02545 0.57321 -0.00526 0.0
H2964 H 0.28573 0.68081 0.95634 0.0
H2965 H 0.23777 0.66886 0.01334 0.0
H2966 H 0.2877 0.73559 0.96362 0.0
H2967 H 0.24031 0.72385 0.02168 0.0
H2968 H 0.23537 0.82588 0.0057 0.0
H2969 H 0.23335 0.771 -0.00154 0.0
H2970 H 0.29821 0.77466 -0.00192 0.0
H2971 H 0.30006 0.83001 0.00402 0.0
C2972 C 0.27572 0.68982 0.97075 0.0
C2973 C 0.26162 0.6703 0.98436 0.0
C2974 C 0.27696 0.72137 0.97508 0.0
C2975 C 0.26428 0.73436 -0.0066 0.0
C2976 C 0.25017 0.71481 0.00708 0.0
C2977 C 0.24877 0.6832 0.00246 0.0
C2978 C 0.24922 0.815 0.00404 0.0
C2979 C 0.26789 0.83238 0.00535 0.0
C2980 C 0.24807 0.78338 0.00011 0.0
C2981 C 0.2656 0.76815 -0.00222 0.0
C2982 C 0.28432 0.78557 -0.00075 0.0
C2983 C 0.28543 0.81733 0.00278 0.0
H2984 H 0.03927 0.67471 0.23545 0.0
H2985 H 0.97442 0.67596 0.23134 0.0
H2986 H 0.04224 0.73066 0.23401 0.0
H2987 H 0.9773 0.73098 0.23227 0.0
H2988 H 0.98662 0.83292 0.21719 0.0
H2989 H 0.98323 0.77773 0.21154 0.0
H2990 H 0.04068 0.77092 0.26593 0.0
H2991 H 0.04457 0.82653 0.2692 0.0
C2992 C 0.02565 0.68691 0.23357 0.0
C2993 C 1.00666 0.67096 0.23384 0.0
C2994 C 0.02733 0.719 0.23346 0.0
C2995 C 1.01005 0.73564 0.23393 0.0
C2996 C 0.991 0.7194 0.23184 0.0
C2997 C 0.98934 0.6876 0.23145 0.0
C2998 C 0.99815 0.81941 0.22872 0.0
C2999 C 0.0156 0.83374 0.24425 0.0
C3000 C 0.99635 0.78769 0.2253 0.0
C3001 C 1.01179 0.76951 0.23799 0.0
C3002 C 0.02874 0.784 0.25504 0.0
C3003 C 0.03076 0.8158 0.25769 0.0
H3004 H 0.23752 0.58014 0.2342 0.0
H3005 H 0.30161 0.5787 0.22947 0.0
H3006 H 0.23426 0.52427 0.23393 0.0
H3007 H 0.29884 0.52358 0.23153 0.0
H3008 H 0.28701 0.42139 0.21983 0.0
H3009 H 0.28984 0.47653 0.21305 0.0
H3010 H 0.24049 0.48377 0.26646 0.0
H3011 H 0.23674 0.42812 0.27072 0.0
C3012 C 0.25079 0.56792 0.2322 0.0
C3013 C 0.26981 0.58384 0.23197 0.0
C3014 C 0.24908 0.53581 0.23289 0.0
C3015 C 0.26639 0.51901 0.23373 0.0
C3016 C 0.28508 0.53522 0.23089 0.0
C3017 C 0.2867 0.56709 0.22969 0.0
C3018 C 0.27732 0.43494 0.23107 0.0
C3019 C 0.26206 0.42061 0.24658 0.0
C3020 C 0.27875 0.4667 0.22693 0.0
C3021 C 0.26526 0.48506 0.23888 0.0
C3022 C 0.2508 0.47061 0.25608 0.0
C3023 C 0.249 0.43874 0.2594 0.0
H3024 H 0.73444 0.32762 0.00237 0.0
H3025 H 0.7995 0.33076 0.00608 0.0
H3026 H 0.73239 0.27265 -0.0045 0.0
H3027 H 0.79756 0.2754 0.00045 0.0
H3028 H 0.78587 0.18181 0.95823 0.0
H3029 H 0.78777 0.2366 0.96514 0.0
H3030 H 0.73866 0.22559 0.02017 0.0
H3031 H 0.73622 0.17051 0.01224 0.0
C3032 C 0.74835 0.31651 0.00195 0.0
C3033 C 0.76714 0.3336 0.00467 0.0
C3034 C 0.74718 0.28488 -0.00177 0.0
C3035 C 0.76479 0.26941 -0.00248 0.0
C3036 C 0.78363 0.28654 0.00038 0.0
C3037 C 0.78478 0.3183 0.00371 0.0
C3038 C 0.77547 0.19096 0.9719 0.0
C3039 C 0.76093 0.17163 0.98481 0.0
C3040 C 0.77667 0.22251 0.97602 0.0
C3041 C 0.76348 0.23567 -0.00663 0.0
C3042 C 0.74892 0.21635 0.00634 0.0
C3043 C 0.74759 0.18471 0.00197 0.0
H3044 H 0.99459 0.32962 0.75755 0.0
H3045 H 0.04142 0.32242 0.69959 0.0
H3046 H 0.98978 0.27348 0.75938 0.0
H3047 H 0.0363 0.26777 0.70092 0.0
H3048 H 0.0385 0.17013 0.73777 0.0
H3049 H 0.04245 0.22579 0.73438 0.0
H3050 H 0.97759 0.22962 0.72745 0.0
H3051 H 0.97371 0.17402 0.7315 0.0
C3052 C 1.00385 0.31628 0.74537 0.0
C3053 C 0.01857 0.33077 0.72888 0.0
C3054 C 1.00102 0.28418 0.74619 0.0
C3055 C 1.01281 0.26615 0.73045 0.0
C3056 C 0.02729 0.28079 0.71385 0.0
C3057 C 0.03016 0.31244 0.71313 0.0
C3058 C 0.02509 0.18282 0.73471 0.0
C3059 C 1.00583 0.16774 0.73487 0.0
C3060 C 0.02732 0.21474 0.73301 0.0
C3061 C 1.01031 0.23219 0.73113 0.0
C3062 C 0.991 0.21694 0.72967 0.0
C3063 C 0.98879 0.18508 0.73153 0.0
H3064 H 0.74797 0.58049 0.77926 0.0
H3065 H 0.78525 0.57694 0.70755 0.0
H3066 H 0.74583 0.52501 0.78354 0.0
H3067 H 0.78199 0.52093 0.71001 0.0
H3068 H 0.79091 0.42393 0.73935 0.0
H3069 H 0.79388 0.47982 0.7403 0.0
H3070 H 0.73253 0.47905 0.76254 0.0
H3071 H 0.73002 0.42358 0.76265 0.0
C3072 C 0.75486 0.5676 0.76337 0.0
C3073 C 0.76625 0.58282 0.74246 0.0
C3074 C 0.7538 0.53573 0.76595 0.0
C3075 C 0.76387 0.51822 0.7473 0.0
C3076 C 0.77445 0.53358 0.72529 0.0
C3077 C 0.77592 0.5656 0.72326 0.0
C3078 C 0.77845 0.43578 0.74578 0.0
C3079 C 0.76031 0.41942 0.75123 0.0
C3080 C 0.77992 0.46786 0.74557 0.0
C3081 C 0.76328 0.48418 0.7508 0.0
C3082 C 0.74571 0.46754 0.75846 0.0
C3083 C 0.74428 0.43562 0.7587 0.0
H3084 H 0.03534 0.09373 0.48992 0.0
H3085 H 0.97729 0.06148 0.51628 0.0
H3086 H 0.04213 0.042 0.47915 0.0
H3087 H 0.98468 0.00885 0.50823 0.0
H3088 H 0.99252 0.92013 0.4671 0.0
H3089 H 0.9863 0.97388 0.47122 0.0
H3090 H 0.05037 0.99547 0.49563 0.0
H3091 H 0.05657 0.94299 0.48874 0.0
C3092 C 0.02447 0.07525 0.4949 0.0
C3093 C 1.00597 0.08142 0.50444 0.0
C3094 C 0.02827 0.04543 0.48849 0.0
C3095 C 0.01387 0.02091 0.49239 0.0
C3096 C 0.99588 0.02708 0.50395 0.0
C3097 C 0.99182 0.05711 0.50939 0.0
C3098 C 1.00529 0.93667 0.47209 0.0
C3099 C 0.02499 0.92721 0.478 0.0
C3100 C 1.00172 0.96742 0.47523 0.0
C3101 C 0.01773 0.98912 0.48479 0.0
C3102 C 0.03755 0.97982 0.48819 0.0
C3103 C 0.04114 0.94944 0.48433 0.0
H3104 H 0.29234 0.33248 0.47511 0.0
H3105 H 0.2402 0.32298 0.52425 0.0
H3106 H 0.28975 0.27728 0.46788 0.0
H3107 H 0.2381 0.26808 0.51802 0.0
H3108 H 0.22746 0.17336 0.47766 0.0
H3109 H 0.22949 0.22882 0.48268 0.0
H3110 H 0.29475 0.23057 0.49414 0.0
H3111 H 0.29269 0.17551 0.48795 0.0
C3112 C 0.28039 0.31866 0.48446 0.0
C3113 C 0.26643 0.33227 0.50009 0.0
C3114 C 0.27896 0.28696 0.48049 0.0
C3115 C 0.26367 0.26812 0.49232 0.0
C3116 C 0.24981 0.28181 0.50806 0.0
C3117 C 0.25112 0.31341 0.51179 0.0
C3118 C 0.24222 0.18562 0.48141 0.0
C3119 C 0.2599 0.17002 0.48242 0.0
C3120 C 0.24341 0.21743 0.48435 0.0
C3121 C 0.26231 0.2343 0.48876 0.0
C3122 C 0.27995 0.21852 0.49015 0.0
C3123 C 0.27876 0.18685 0.48685 0.0
H3124 H 0.23736 0.92717 0.77119 0.0
H3125 H 0.28577 0.92192 0.71643 0.0
H3126 H 0.2405 0.98287 0.7672 0.0
H3127 H 0.28792 0.9771 0.70992 0.0
H3128 H 0.2994 0.07925 0.72582 0.0
H3129 H 0.29706 0.02415 0.72771 0.0
H3130 H 0.23312 0.02381 0.73616 0.0
H3131 H 0.23612 0.07969 0.73683 0.0
C3132 C 0.24908 0.93814 0.75901 0.0
C3133 C 0.26184 0.92041 0.74509 0.0
C3134 C 0.25052 0.97005 0.75588 0.0
C3135 C 0.26425 0.98496 0.73774 0.0
C3136 C 0.2774 0.96697 0.72455 0.0
C3137 C 0.27636 0.93517 0.7285 0.0
C3138 C 0.28471 0.06741 0.7274 0.0
C3139 C 0.268 0.08389 0.73149 0.0
C3140 C 0.28332 0.03553 0.72846 0.0
C3141 C 0.26499 0.01899 0.73289 0.0
C3142 C 0.24772 0.03555 0.73386 0.0
C3143 C 0.24924 0.06769 0.73338 0.0
H3144 H 0.78547 0.68158 0.45586 0.0
H3145 H 0.7356 0.67025 0.50948 0.0
H3146 H 0.78742 0.73635 0.46294 0.0
H3147 H 0.73808 0.72531 0.51755 0.0
H3148 H 0.73417 0.8275 0.49985 0.0
H3149 H 0.73201 0.77255 0.49279 0.0
H3150 H 0.79719 0.77482 0.49873 0.0
H3151 H 0.79929 0.83014 0.50461 0.0
C3152 C 0.77502 0.69072 0.46947 0.0
C3153 C 0.76041 0.67139 0.48221 0.0
C3154 C 0.77625 0.72225 0.47369 0.0
C3155 C 0.76302 0.73538 0.49099 0.0
C3156 C 0.74838 0.71607 0.50377 0.0
C3157 C 0.74702 0.68445 0.49931 0.0
C3158 C 0.74807 0.8163 0.4996 0.0
C3159 C 0.76692 0.83325 0.50269 0.0
C3160 C 0.74682 0.78468 0.49577 0.0
C3161 C 0.7644 0.7691 0.49528 0.0
C3162 C 0.78329 0.78607 0.49849 0.0
C3163 C 0.78452 0.81781 0.50196 0.0
H3164 H 0.78976 0.92249 0.2512 0.0
H3165 H 0.72582 0.92433 0.25693 0.0
H3166 H 0.79324 0.97832 0.25202 0.0
H3167 H 0.72877 0.97946 0.25525 0.0
H3168 H 0.74085 0.08153 0.26669 0.0
H3169 H 0.73803 0.02642 0.27373 0.0
H3170 H 0.78697 0.01883 0.21958 0.0
H3171 H 0.79074 0.07447 0.21507 0.0
C3172 C 0.77657 0.93478 0.25355 0.0
C3173 C 0.75751 0.91901 0.25381 0.0
C3174 C 0.77841 0.96688 0.25316 0.0
C3175 C 0.76118 0.98379 0.25264 0.0
C3176 C 0.74247 0.96771 0.25562 0.0
C3177 C 0.74073 0.93584 0.25658 0.0
C3178 C 0.75049 0.0679 0.25542 0.0
C3179 C 0.76562 0.08211 0.2396 0.0
C3180 C 0.74905 0.03617 0.25969 0.0
C3181 C 0.76241 0.01773 0.24754 0.0
C3182 C 0.77678 0.03206 0.23011 0.0
C3183 C 0.7786 0.06392 0.22669 0.0
H3184 H 0.53596 0.59253 0.48863 0.0
H3185 H 0.47749 0.55997 0.51322 0.0
H3186 H 0.54302 0.54078 0.47809 0.0
H3187 H 0.48509 0.50741 0.50534 0.0
H3188 H 0.49391 0.41859 0.465 0.0
H3189 H 0.48744 0.47232 0.46857 0.0
H3190 H 0.55117 0.49432 0.49553 0.0
H3191 H 0.55766 0.44176 0.48937 0.0
C3192 C 0.52503 0.57399 0.49321 0.0
C3193 C 0.50636 0.58007 0.50228 0.0
C3194 C 0.52897 0.54418 0.48695 0.0
C3195 C 0.51456 0.51959 0.49049 0.0
C3196 C 0.49634 0.52568 0.50139 0.0
C3197 C 0.49214 0.55568 0.50671 0.0
C3198 C 0.50658 0.43521 0.47047 0.0
C3199 C 0.52625 0.42585 0.47725 0.0
C3200 C 0.50285 0.46595 0.47326 0.0
C3201 C 0.51867 0.48777 0.48331 0.0
C3202 C 0.53851 0.47856 0.48767 0.0
C3203 C 0.54226 0.44815 0.48424 0.0
H3204 H 0.54137 0.67194 0.76708 0.0
H3205 H 0.48308 0.67822 0.71606 0.0
H3206 H 0.54483 0.72717 0.77256 0.0
H3207 H 0.487 0.73385 0.71917 0.0
H3208 H 0.4887 0.8303 0.74952 0.0
H3209 H 0.48572 0.77434 0.75086 0.0
H3210 H 0.55059 0.77398 0.75183 0.0
H3211 H 0.55349 0.82902 0.75286 0.0
C3212 C 0.52976 0.68543 0.75574 0.0
C3213 C 0.51221 0.67104 0.74052 0.0
C3214 C 0.5316 0.71718 0.75906 0.0
C3215 C 0.51609 0.73537 0.7466 0.0
C3216 C 0.49902 0.7208 0.72989 0.0
C3217 C 0.49696 0.68897 0.72734 0.0
C3218 C 0.50231 0.8181 0.75121 0.0
C3219 C 0.52129 0.83406 0.7508 0.0
C3220 C 0.50062 0.78598 0.75126 0.0
C3221 C 0.51786 0.7693 0.75057 0.0
C3222 C 0.53691 0.78556 0.75244 0.0
C3223 C 0.53859 0.81738 0.75289 0.0
H3224 H 0.53997 0.17265 0.26745 0.0
H3225 H 0.48108 0.17983 0.21844 0.0
H3226 H 0.54372 0.22773 0.27354 0.0
H3227 H 0.48532 0.23543 0.22203 0.0
H3228 H 0.48832 0.33186 0.25229 0.0
H3229 H 0.48489 0.27594 0.25396 0.0
H3230 H 0.54953 0.27431 0.25274 0.0
H3231 H 0.55291 0.32931 0.25351 0.0
C3232 C 0.52825 0.18632 0.2567 0.0
C3233 C 0.51045 0.17222 0.2419 0.0
C3234 C 0.53028 0.21799 0.26036 0.0
C3235 C 0.51475 0.23641 0.24854 0.0
C3236 C 0.49737 0.22216 0.23226 0.0
C3237 C 0.49511 0.19037 0.22945 0.0
C3238 C 0.50179 0.31939 0.25361 0.0
C3239 C 0.52083 0.33495 0.25246 0.0
C3240 C 0.49984 0.2873 0.25384 0.0
C3241 C 0.51686 0.27028 0.25258 0.0
C3242 C 0.53601 0.28617 0.25382 0.0
C3243 C 0.53797 0.31796 0.25412 0.0
H3244 H 0.53664 0.09216 0.98929 0.0
H3245 H 0.48029 0.05923 0.02082 0.0
H3246 H 0.54301 0.04054 0.97715 0.0
H3247 H 0.48735 0.00676 0.0114 0.0
H3248 H 0.49294 0.91884 0.96797 0.0
H3249 H 0.48724 0.97266 0.97297 0.0
H3250 H 0.55178 0.99361 -0.00772 0.0
H3251 H 0.55737 0.94093 0.98465 0.0
C3252 C 0.52617 0.07352 -0.00481 0.0
C3253 C 0.50821 0.07946 0.00658 0.0
C3254 C 0.52968 0.0438 0.98794 0.0
C3255 C 0.51557 0.01918 -0.00717 0.0
C3256 C 0.49827 0.02509 0.00634 0.0
C3257 C 0.49445 0.05501 0.01262 0.0
C3258 C 0.50589 0.93526 0.97198 0.0
C3259 C 0.52557 0.92557 0.97639 0.0
C3260 C 0.50264 0.96604 0.97564 0.0
C3261 C 0.51899 0.98753 0.9842 0.0
C3262 C 0.53872 0.97807 0.98578 0.0
C3263 C 0.54196 0.94761 0.98147 0.0
H3264 H 0.99635 0.08932 0.19353 0.0
H3265 H 0.02504 0.04732 0.12511 0.0
H3266 H 0.99746 0.13785 0.16553 0.0
H3267 H 0.02557 0.09576 0.09677 0.0
H3268 H 0.99188 0.17548 0.04308 0.0
H3269 H 0.99353 0.12817 0.07265 0.0
H3270 H 0.02827 0.17713 0.14583 0.0
H3271 H 0.02718 0.22469 0.11587 0.0
C3272 C 1.00286 0.09046 0.1725 0.0
C3273 C 1.01056 0.06453 0.16142 0.0
C3274 C 1.0036 0.11824 0.15666 0.0
C3275 C 1.01161 0.12039 0.12912 0.0
C3276 C 0.01933 0.09455 0.11801 0.0
C3277 C 0.01905 0.06694 0.13421 0.0
C3278 C 0.99985 0.17625 0.0655 0.0
C3279 C 1.00935 0.20383 0.07723 0.0
C3280 C 1.00089 0.14914 0.08227 0.0
C3281 C 1.01106 0.14914 0.11136 0.0
C3282 C 0.02034 0.17669 0.12338 0.0
C3283 C 0.01973 0.20378 0.10628 0.0
H3284 H 0.294 0.19853 0.14173 0.0
H3285 H 0.23073 0.21331 0.11938 0.0
H3286 H 0.28911 0.15074 0.11461 0.0
H3287 H 0.22591 0.16534 0.09186 0.0
H3288 H 0.22311 0.05801 0.08936 0.0
H3289 H 0.22622 0.11052 0.10686 0.0
H3290 H 0.28099 0.12799 0.06483 0.0
H3291 H 0.27811 0.07546 0.04757 0.0
C3292 C 0.2791 0.19186 0.1306 0.0
C3293 C 0.26274 0.20974 0.13288 0.0
C3294 C 0.27632 0.16448 0.11488 0.0
C3295 C 0.2571 0.15416 0.10116 0.0
C3296 C 0.24086 0.17255 0.10245 0.0
C3297 C 0.24367 0.20015 0.11801 0.0
C3298 C 0.23569 0.0731 0.08347 0.0
C3299 C 0.25046 0.06228 0.06727 0.0
C3300 C 0.23739 0.10331 0.09338 0.0
C3301 C 0.25393 0.12338 0.0874 0.0
C3302 C 0.26822 0.11297 0.07014 0.0
C3303 C 0.26649 0.08283 0.06013 0.0
H3304 H 0.05115 0.80971 0.91454 0.0
H3305 H 0.98706 0.79097 0.88861 0.0
H3306 H 0.05045 0.85725 0.88584 0.0
H3307 H 0.9865 0.83871 0.85941 0.0
H3308 H 0.99107 0.94437 0.84342 0.0
H3309 H 0.99067 0.89488 0.8696 0.0
H3310 H 0.04562 0.87561 0.83391 0.0
H3311 H 0.04629 0.92486 0.80823 0.0
C3312 C 0.03693 0.81553 0.90244 0.0
C3313 C 0.01915 0.79648 0.90392 0.0
C3314 C 0.03656 0.84279 0.88588 0.0
C3315 C 0.0184 0.85177 0.87044 0.0
C3316 C 1.00066 0.83252 0.87137 0.0
C3317 C 1.00104 0.80505 0.88785 0.0
C3318 C 1.00308 0.9296 0.84121 0.0
C3319 C 0.01875 0.93875 0.82383 0.0
C3320 C 1.00275 0.90115 0.856 0.0
C3321 C 0.01812 0.88138 0.85381 0.0
C3322 C 0.03369 0.89048 0.83633 0.0
C3323 C 0.03401 0.91876 0.82154 0.0
H3324 H 0.74824 0.9306 0.93405 0.0
H3325 H 0.8034 0.94891 0.89282 0.0
H3326 H 0.74564 0.8782 0.9165 0.0
H3327 H 0.80058 0.89648 0.87505 0.0
H3328 H 0.79667 0.79331 0.86354 0.0
H3329 H 0.8011 0.84156 0.8906 0.0
H3330 H 0.73796 0.85565 0.86637 0.0
H3331 H 0.73344 0.80761 0.83967 0.0
C3332 C 0.75994 0.92345 0.92151 0.0
C3333 C 0.77594 0.94419 0.91464 0.0
C3334 C 0.75838 0.89339 0.91135 0.0
C3335 C 0.77282 0.88325 0.89422 0.0
C3336 C 0.78929 0.90352 0.88842 0.0
C3337 C 0.79082 0.93367 0.89846 0.0
C3338 C 0.78365 0.80643 0.86446 0.0
C3339 C 0.76471 0.79661 0.84933 0.0
C3340 C 0.78624 0.83418 0.87976 0.0
C3341 C 0.7699 0.85247 0.88053 0.0
C3342 C 0.75081 0.84197 0.86648 0.0
C3343 C 0.74825 0.81445 0.85102 0.0
H3344 H 0.99513 0.58992 0.69428 0.0
H3345 H 0.02347 0.54781 0.62556 0.0
H3346 H 0.99618 0.63849 0.66609 0.0
H3347 H 0.02396 0.59609 0.59717 0.0
H3348 H 0.9914 0.67577 0.54317 0.0
H3349 H 0.99183 0.6289 0.57343 0.0
H3350 H 0.028 0.67715 0.64577 0.0
H3351 H 0.02813 0.72431 0.6151 0.0
C3352 C 1.0015 0.59102 0.67314 0.0
C3353 C 1.0092 0.5651 0.66206 0.0
C3354 C 1.00222 0.6188 0.6572 0.0
C3355 C 1.01019 0.62086 0.62961 0.0
C3356 C 0.01777 0.59496 0.61845 0.0
C3357 C 0.0175 0.56743 0.63469 0.0
C3358 C 0.99944 0.6765 0.56554 0.0
C3359 C 1.00975 0.70374 0.57679 0.0
C3360 C 0.99973 0.64964 0.58275 0.0
C3361 C 1.00994 0.64957 0.6118 0.0
C3362 C 0.01999 0.6768 0.62339 0.0
C3363 C 0.02012 0.70363 0.60585 0.0
H3364 H 0.29421 0.69556 0.64592 0.0
H3365 H 0.2312 0.71076 0.62127 0.0
H3366 H 0.28959 0.64763 0.61913 0.0
H3367 H 0.22667 0.66264 0.59399 0.0
H3368 H 0.27964 0.57331 0.55099 0.0
H3369 H 0.2823 0.62555 0.56895 0.0
H3370 H 0.2267 0.60755 0.60878 0.0
H3371 H 0.22381 0.55528 0.59055 0.0
C3372 C 0.27942 0.68895 0.63438 0.0
C3373 C 0.26306 0.70704 0.63588 0.0
C3374 C 0.27681 0.66149 0.61885 0.0
C3375 C 0.25775 0.65128 0.60447 0.0
C3376 C 0.2415 0.66978 0.60508 0.0
C3377 C 0.24415 0.69747 0.6205 0.0
C3378 C 0.2678 0.5805 0.56323 0.0
C3379 C 0.25159 0.55988 0.56952 0.0
C3380 C 0.2694 0.61046 0.57364 0.0
C3381 C 0.2548 0.62064 0.59047 0.0
C3382 C 0.23812 0.6005 0.59567 0.0
C3383 C 0.23655 0.57044 0.58537 0.0
H3384 H 0.98615 0.29268 0.38477 0.0
H3385 H 0.05021 0.31136 0.41095 0.0
H3386 H 0.9857 0.3403 0.35535 0.0
H3387 H 0.04962 0.35879 0.38212 0.0
H3388 H 0.04587 0.42678 0.30498 0.0
H3389 H 0.04509 0.37742 0.33047 0.0
H3390 H 0.98973 0.39631 0.36521 0.0
H3391 H 0.99024 0.44586 0.33918 0.0
C3392 C 1.00015 0.30671 0.38402 0.0
C3393 C 0.01821 0.29817 0.40025 0.0
C3394 C 0.99984 0.33412 0.36742 0.0
C3395 C 0.0176 0.35335 0.36653 0.0
C3396 C 0.03571 0.34436 0.38211 0.0
C3397 C 0.03602 0.31716 0.39876 0.0
C3398 C 0.03348 0.42056 0.31803 0.0
C3399 C 0.01815 0.44047 0.32011 0.0
C3400 C 0.03309 0.39222 0.33272 0.0
C3401 C 0.01737 0.38298 0.3499 0.0
C3402 C 1.00192 0.40267 0.35185 0.0
C3403 C 1.00232 0.43117 0.33715 0.0
H3404 H 0.79617 0.29234 0.36218 0.0
H3405 H 0.73315 0.30763 0.33758 0.0
H3406 H 0.80083 0.34075 0.38895 0.0
H3407 H 0.73792 0.35584 0.36394 0.0
H3408 H 0.80387 0.44815 0.39187 0.0
H3409 H 0.8008 0.39583 0.37368 0.0
H3410 H 0.74543 0.37811 0.41416 0.0
H3411 H 0.74829 0.43035 0.43213 0.0
C3412 C 0.78325 0.30573 0.36283 0.0
C3413 C 0.76429 0.29606 0.34765 0.0
C3414 C 0.78598 0.33358 0.37797 0.0
C3415 C 0.76977 0.35216 0.37849 0.0
C3416 C 0.75067 0.34192 0.36428 0.0
C3417 C 0.74797 0.31428 0.34901 0.0
C3418 C 0.79115 0.43304 0.39722 0.0
C3419 C 0.77624 0.44366 0.41328 0.0
C3420 C 0.78947 0.40297 0.38693 0.0
C3421 C 0.7728 0.38289 0.39233 0.0
C3422 C 0.75832 0.39315 0.40932 0.0
C3423 C 0.76004 0.42311 0.41974 0.0
H3424 H 0.47827 0.07429 0.67119 0.0
H3425 H 0.53607 0.05785 0.6424 0.0
H3426 H 0.47881 0.12324 0.6448 0.0
H3427 H 0.53638 0.10696 0.61556 0.0
H3428 H 0.53885 0.21115 0.59744 0.0
H3429 H 0.53896 0.16294 0.62586 0.0
H3430 H 0.47616 0.14222 0.59298 0.0
H3431 H 0.47589 0.19026 0.565 0.0
C3432 C 0.49107 0.08099 0.65911 0.0
C3433 C 0.50712 0.06199 0.65891 0.0
C3434 C 0.49132 0.10908 0.64389 0.0
C3435 C 0.50764 0.119 0.62811 0.0
C3436 C 0.52371 0.10009 0.62783 0.0
C3437 C 0.52343 0.07183 0.64299 0.0
C3438 C 0.52501 0.19647 0.59655 0.0
C3439 C 0.50736 0.20467 0.57896 0.0
C3440 C 0.52514 0.16872 0.6126 0.0
C3441 C 0.50759 0.14873 0.61158 0.0
C3442 C 0.48987 0.15724 0.59448 0.0
C3443 C 0.48976 0.18479 0.57835 0.0
H3444 H 0.7781 0.07493 0.54795 0.0
H3445 H 0.72372 0.05723 0.59124 0.0
H3446 H 0.78115 0.12739 0.56527 0.0
H3447 H 0.72699 0.1098 0.60876 0.0
H3448 H 0.73168 0.21307 0.62 0.0
H3449 H 0.72658 0.16481 0.59303 0.0
H3450 H 0.78975 0.14985 0.61542 0.0
H3451 H 0.79493 0.19795 0.64212 0.0
C3452 C 0.76665 0.08223 0.56089 0.0
C3453 C 0.75076 0.06162 0.56843 0.0
C3454 C 0.76848 0.11233 0.57091 0.0
C3455 C 0.75442 0.12267 0.58858 0.0
C3456 C 0.73799 0.10258 0.59498 0.0
C3457 C 0.73619 0.07237 0.58506 0.0
C3458 C 0.74457 0.19977 0.61868 0.0
C3459 C 0.76372 0.20936 0.63331 0.0
C3460 C 0.74159 0.17201 0.60344 0.0
C3461 C 0.75774 0.15347 0.60221 0.0
C3462 C 0.77704 0.16374 0.6157 0.0
C3463 C 0.77998 0.19128 0.63114 0.0
H3464 H 0.48932 0.94542 0.33838 0.0
H3465 H 0.54525 0.92642 0.30501 0.0
H3466 H 0.48902 0.89629 0.36518 0.0
H3467 H 0.54469 0.87749 0.33132 0.0
H3468 H 0.54986 0.81252 0.41275 0.0
H3469 H 0.54912 0.85967 0.3834 0.0
H3470 H 0.48537 0.84012 0.35607 0.0
H3471 H 0.48596 0.79281 0.38592 0.0
C3472 C 0.5015 0.93081 0.33666 0.0
C3473 C 0.51735 0.94004 0.31964 0.0
C3474 C 0.50123 0.90257 0.35183 0.0
C3475 C 0.51684 0.88304 0.35038 0.0
C3476 C 0.53257 0.89217 0.33319 0.0
C3477 C 0.53283 0.92026 0.31802 0.0
C3478 C 0.53567 0.81805 0.40034 0.0
C3479 C 0.51796 0.79882 0.40176 0.0
C3480 C 0.53528 0.84508 0.38339 0.0
C3481 C 0.51717 0.85367 0.36747 0.0
C3482 C 0.4995 0.83425 0.36839 0.0
C3483 C 0.4999 0.80703 0.38526 0.0
H3484 H 0.24819 0.92994 0.43159 0.0
H3485 H 0.30257 0.94852 0.38848 0.0
H3486 H 0.24543 0.87756 0.41409 0.0
H3487 H 0.29958 0.896 0.37076 0.0
H3488 H 0.29572 0.7923 0.36064 0.0
H3489 H 0.30046 0.84109 0.38674 0.0
H3490 H 0.23708 0.85458 0.3643 0.0
H3491 H 0.23226 0.80598 0.33852 0.0
C3492 C 0.25967 0.92287 0.4186 0.0
C3493 C 0.27552 0.94368 0.41125 0.0
C3494 C 0.25802 0.89281 0.40848 0.0
C3495 C 0.27219 0.88268 0.39087 0.0
C3496 C 0.2885 0.90304 0.3845 0.0
C3497 C 0.29013 0.93322 0.39452 0.0
C3498 C 0.28272 0.8054 0.36176 0.0
C3499 C 0.26361 0.7952 0.34742 0.0
C3500 C 0.2855 0.83348 0.37648 0.0
C3501 C 0.26917 0.85174 0.37749 0.0
C3502 C 0.24993 0.84093 0.36421 0.0
C3503 C 0.24719 0.81308 0.3493 0.0
H3504 H 0.47662 0.69208 0.06889 0.0
H3505 H 0.54039 0.71134 0.09706 0.0
H3506 H 0.47706 0.64448 0.09753 0.0
H3507 H 0.54068 0.66356 0.1262 0.0
H3508 H 0.53647 0.55821 0.14313 0.0
H3509 H 0.53699 0.60744 0.11648 0.0
H3510 H 0.48101 0.62614 0.14945 0.0
H3511 H 0.48023 0.57711 0.17558 0.0
C3512 C 0.49072 0.68635 0.08144 0.0
C3513 C 0.50848 0.7056 0.08064 0.0
C3514 C 0.49093 0.65906 0.09798 0.0
C3515 C 0.50891 0.65021 0.11408 0.0
C3516 C 0.52664 0.66963 0.11373 0.0
C3517 C 0.52641 0.69712 0.09728 0.0
C3518 C 0.52425 0.57278 0.14462 0.0
C3519 C 0.50826 0.56354 0.1614 0.0
C3520 C 0.52464 0.60109 0.12956 0.0
C3521 C 0.50903 0.62065 0.13086 0.0
C3522 C 0.49313 0.61144 0.1477 0.0
C3523 C 0.49275 0.58329 0.16277 0.0
H3524 H 0.72323 0.55936 0.08946 0.0
H3525 H 0.77951 0.57522 0.05069 0.0
H3526 H 0.72672 0.61182 0.10731 0.0
H3527 H 0.7828 0.62759 0.06834 0.0
H3528 H 0.73257 0.71515 0.11894 0.0
H3529 H 0.72764 0.66693 0.09192 0.0
H3530 H 0.79005 0.64989 0.11868 0.0
H3531 H 0.79506 0.69796 0.14542 0.0
C3532 C 0.73619 0.57408 0.08433 0.0
C3533 C 0.75118 0.56283 0.06885 0.0
C3534 C 0.73812 0.60424 0.09444 0.0
C3535 C 0.75512 0.62379 0.08943 0.0
C3536 C 0.76967 0.61296 0.07291 0.0
C3537 C 0.7677 0.58291 0.06268 0.0
C3538 C 0.74534 0.7014 0.1186 0.0
C3539 C 0.76422 0.71045 0.13443 0.0
C3540 C 0.74246 0.67365 0.10332 0.0
C3541 C 0.75843 0.65453 0.10325 0.0
C3542 C 0.77749 0.66421 0.11802 0.0
C3543 C 0.78033 0.69176 0.13348 0.0
H3544 H 0.49097 0.44655 0.84288 0.0
H3545 H 0.54638 0.42584 0.80897 0.0
H3546 H 0.48984 0.39702 0.86898 0.0
H3547 H 0.54499 0.37654 0.83453 0.0
H3548 H 0.54953 0.31094 0.91514 0.0
H3549 H 0.54925 0.35836 0.88636 0.0
H3550 H 0.48531 0.34069 0.85931 0.0
H3551 H 0.48545 0.29296 0.88872 0.0
C3552 C 0.50288 0.43151 0.84095 0.0
C3553 C 0.51883 0.44036 0.82397 0.0
C3554 C 0.50212 0.40302 0.85567 0.0
C3555 C 0.51733 0.38289 0.85382 0.0
C3556 C 0.53316 0.39167 0.8367 0.0
C3557 C 0.53391 0.42 0.82198 0.0
C3558 C 0.53538 0.31692 0.90293 0.0
C3559 C 0.51749 0.2981 0.9043 0.0
C3560 C 0.53527 0.34411 0.88629 0.0
C3561 C 0.51726 0.35331 0.87059 0.0
C3562 C 0.49938 0.33432 0.87145 0.0
C3563 C 0.49951 0.30687 0.88804 0.0
H3564 H 0.23307 0.30668 0.83968 0.0
H3565 H 0.29622 0.29129 0.86248 0.0
H3566 H 0.23816 0.35469 0.86649 0.0
H3567 H 0.30123 0.33949 0.8896 0.0
H3568 H 0.24947 0.429 0.93483 0.0
H3569 H 0.24639 0.37677 0.9168 0.0
H3570 H 0.30102 0.39463 0.87451 0.0
H3571 H 0.30432 0.44694 0.89274 0.0
C3572 C 0.24798 0.31328 0.85082 0.0
C3573 C 0.26424 0.29511 0.84884 0.0
C3574 C 0.25088 0.34078 0.86633 0.0
C3575 C 0.27012 0.35095 0.88012 0.0
C3576 C 0.28627 0.33237 0.87899 0.0
C3577 C 0.28334 0.30464 0.86366 0.0
C3578 C 0.26101 0.42179 0.92202 0.0
C3579 C 0.27707 0.4424 0.91506 0.0
C3580 C 0.25917 0.39183 0.91157 0.0
C3581 C 0.27336 0.38162 0.89404 0.0
C3582 C 0.28991 0.40173 0.88817 0.0
C3583 C 0.29173 0.4318 0.8985 0.0
loop_
_geom_bond_atom_site_label_1
_geom_bond_atom_site_label_2
_geom_bond_distance
_geom_bond_site_symmetry_2
_ccdc_geom_bond_type
Co0 H3 2.400 . S
Co0 O4 2.009 . S
Co0 O12 2.115 . S
Co0 O13 2.315 . S
Co0 O24 2.053 . S
Co0 O27 2.089 1_554 S
Co0 O30 2.122 1_554 S
Co1 O4 2.126 . S
Co1 H5 2.388 1_655 S
Co1 O6 2.053 1_655 S
Co1 O9 2.047 1_554 S
Co1 O15 2.113 . S
Co1 O26 2.063 . S
Co2 H3 2.388 1_455 S
Co2 O4 2.053 1_455 S
Co2 O6 2.126 . S
Co2 O11 2.063 . S
Co2 O25 2.047 . S
Co2 O31 2.113 1_554 S
H3 Co0 2.400 . S
H3 Co2 2.388 1_655 S
H3 O4 0.760 . S
O4 Co0 2.009 . S
O4 Co1 2.126 . S
O4 Co2 2.053 1_655 S
O4 H3 0.760 . S
H5 Co1 2.388 1_455 S
H5 O6 0.760 . S
H5 Co7 2.400 . S
O6 Co1 2.053 1_455 S
O6 Co2 2.126 . S
O6 H5 0.760 . S
O6 Co7 2.009 . S
Co7 H5 2.400 . S
Co7 O6 2.009 . S
Co7 O8 2.053 . S
Co7 O10 2.094 . S
Co7 O14 2.122 . S
Co7 O28 2.115 . S
Co7 O29 2.315 . S
O8 Co7 2.053 . S
O8 C20 1.259 . S
O9 Co1 2.047 1_556 S
O9 C20 1.257 1_656 S
O10 Co7 2.094 . S
O10 C21 1.253 . S
O11 Co2 2.063 . S
O11 C21 1.268 . S
O12 Co0 2.115 . S
O12 C22 1.281 . S
O13 Co0 2.315 . S
O13 C22 1.252 . S
O14 Co7 2.122 . S
O14 C23 1.272 . S
O15 Co1 2.113 . S
O15 C23 1.245 1_655 S
C16 O24 1.234 1_455 S
C16 O25 1.277 . S
C17 O26 1.268 . S
C17 O27 1.250 1_554 S
C18 O28 1.281 . S
C18 O29 1.252 . S
C19 O30 1.315 . S
C19 O31 1.219 1_655 S
C20 O8 1.259 . S
C20 O9 1.257 1_454 S
C21 O10 1.253 . S
C21 O11 1.268 . S
C22 O12 1.281 . S
C22 O13 1.252 . S
C23 O14 1.272 . S
C23 O15 1.245 1_455 S
O24 Co0 2.053 . S
O24 C16 1.234 1_655 S
O25 Co2 2.047 . S
O25 C16 1.277 . S
O26 Co1 2.063 . S
O26 C17 1.268 . S
O27 Co0 2.089 1_556 S
O27 C17 1.250 1_556 S
O28 Co7 2.115 . S
O28 C18 1.281 . S
O29 Co7 2.315 . S
O29 C18 1.252 . S
O30 Co0 2.122 1_556 S
O30 C19 1.315 . S
O31 Co2 2.113 1_556 S
O31 C19 1.219 1_455 S
Co32 H35 2.400 . S
Co32 O36 2.009 . S
Co32 O44 2.115 1_554 S
Co32 O45 2.315 . S
Co32 O56 2.053 . S
Co32 O59 2.094 1_554 S
Co32 O62 2.122 1_554 S
Co33 O36 2.126 . S
Co33 H37 2.388 . S
Co33 O38 2.053 . S
Co33 O41 2.047 . S
Co33 O47 2.113 . S
Co33 O58 2.063 . S
Co34 H35 2.388 . S
Co34 O36 2.053 . S
Co34 O38 2.126 . S
Co34 O43 2.063 1_565 S
Co34 O57 2.047 . S
Co34 O63 2.113 . S
H35 Co32 2.400 . S
H35 Co34 2.388 . S
H35 O36 0.760 . S
O36 Co32 2.009 . S
O36 Co33 2.126 . S
O36 Co34 2.053 . S
O36 H35 0.760 . S
H37 Co33 2.388 . S
H37 O38 0.760 . S
H37 Co39 2.400 . S
O38 Co33 2.053 . S
O38 Co34 2.126 . S
O38 H37 0.760 . S
O38 Co39 2.009 . S
Co39 H37 2.400 . S
Co39 O38 2.009 . S
Co39 O40 2.053 . S
Co39 O42 2.094 . S
Co39 O46 2.122 . S
Co39 O60 2.115 . S
Co39 O61 2.315 . S
O40 Co39 2.053 . S
O40 C52 1.259 . S
O41 Co33 2.047 . S
O41 C52 1.257 . S
O42 Co39 2.094 . S
O42 C53 1.253 1_565 S
O43 Co34 2.063 1_545 S
O43 C53 1.268 . S
O44 Co32 2.115 1_556 S
O44 C54 1.281 1_556 S
O45 Co32 2.315 . S
O45 C54 1.252 . S
O46 Co39 2.122 . S
O46 C55 1.272 . S
O47 Co33 2.113 . S
O47 C55 1.245 . S
C48 O56 1.259 . S
C48 O57 1.257 . S
C49 O58 1.268 . S
C49 O59 1.253 1_554 S
C50 O60 1.281 . S
C50 O61 1.252 . S
C51 O62 1.272 . S
C51 O63 1.245 1_556 S
C52 O40 1.259 . S
C52 O41 1.257 . S
C53 O42 1.253 1_545 S
C53 O43 1.268 . S
C54 O44 1.281 1_554 S
C54 O45 1.252 . S
C55 O46 1.272 . S
C55 O47 1.245 . S
O56 Co32 2.053 . S
O56 C48 1.259 . S
O57 Co34 2.047 . S
O57 C48 1.257 . S
O58 Co33 2.063 . S
O58 C49 1.268 . S
O59 Co32 2.094 1_556 S
O59 C49 1.253 1_556 S
O60 Co39 2.115 . S
O60 C50 1.281 . S
O61 Co39 2.315 . S
O61 C50 1.252 . S
O62 Co32 2.122 1_556 S
O62 C51 1.272 . S
O63 Co34 2.113 . S
O63 C51 1.245 1_554 S
Co64 H67 2.400 . S
Co64 O68 2.009 . S
Co64 O76 2.115 1_565 S
Co64 O77 2.315 . S
Co64 O88 2.053 1_565 S
Co64 O91 2.094 . S
Co64 O94 2.122 . S
Co65 O68 2.126 . S
Co65 H69 2.388 1_655 S
Co65 O70 2.053 1_655 S
Co65 O73 2.047 . S
Co65 O79 2.113 . S
Co65 O90 2.063 . S
Co66 H67 2.388 1_455 S
Co66 O68 2.053 1_455 S
Co66 O70 2.126 . S
Co66 O75 2.063 . S
Co66 O89 2.047 1_565 S
Co66 O95 2.113 . S
H67 Co64 2.400 . S
H67 Co66 2.388 1_655 S
H67 O68 0.760 . S
O68 Co64 2.009 . S
O68 Co65 2.126 . S
O68 Co66 2.053 1_655 S
O68 H67 0.760 . S
H69 Co65 2.388 1_455 S
H69 O70 0.760 . S
H69 Co71 2.400 . S
O70 Co65 2.053 1_455 S
O70 Co66 2.126 . S
O70 H69 0.760 . S
O70 Co71 2.009 . S
Co71 H69 2.400 . S
Co71 O70 2.009 . S
Co71 O72 2.053 . S
Co71 O74 2.094 . S
Co71 O78 2.122 . S
Co71 O92 2.115 . S
Co71 O93 2.315 . S
O72 Co71 2.053 . S
O72 C84 1.259 . S
O73 Co65 2.047 . S
O73 C84 1.257 1_655 S
O74 Co71 2.094 . S
O74 C85 1.253 . S
O75 Co66 2.063 . S
O75 C85 1.268 . S
O76 Co64 2.115 1_545 S
O76 C86 1.281 . S
O77 Co64 2.315 . S
O77 C86 1.252 1_565 S
O78 Co71 2.122 . S
O78 C87 1.266 . S
O79 Co65 2.113 . S
O79 C87 1.249 1_655 S
C80 O88 1.259 1_455 S
C80 O89 1.257 . S
C81 O90 1.268 . S
C81 O91 1.253 . S
C82 O92 1.281 . S
C82 O93 1.252 . S
C83 O94 1.272 1_455 S
C83 O95 1.245 . S
C84 O72 1.259 . S
C84 O73 1.257 1_455 S
C85 O74 1.253 . S
C85 O75 1.268 . S
C86 O76 1.281 . S
C86 O77 1.252 1_545 S
C87 O78 1.266 . S
C87 O79 1.249 1_455 S
O88 Co64 2.053 1_545 S
O88 C80 1.259 1_655 S
O89 Co66 2.047 1_545 S
O89 C80 1.257 . S
O90 Co65 2.063 . S
O90 C81 1.268 . S
O91 Co64 2.094 . S
O91 C81 1.253 . S
O92 Co71 2.115 . S
O92 C82 1.281 . S
O93 Co71 2.315 . S
O93 C82 1.252 . S
O94 Co64 2.122 . S
O94 C83 1.272 1_655 S
O95 Co66 2.113 . S
O95 C83 1.245 . S
Co96 H99 2.400 . S
Co96 O100 2.009 . S
Co96 O108 2.115 . S
Co96 O109 2.315 . S
Co96 O120 2.053 . S
Co96 O123 2.094 . S
Co96 O126 2.122 . S
Co97 O100 2.126 . S
Co97 H101 2.388 . S
Co97 O102 2.053 . S
Co97 O105 2.047 . S
Co97 O111 2.113 . S
Co97 O122 2.063 . S
Co98 H99 2.388 . S
Co98 O100 2.053 . S
Co98 O102 2.126 . S
Co98 O107 2.063 . S
Co98 O121 2.047 . S
Co98 O127 2.113 . S
H99 Co96 2.400 . S
H99 Co98 2.388 . S
H99 O100 0.760 . S
O100 Co96 2.009 . S
O100 Co97 2.126 . S
O100 Co98 2.053 . S
O100 H99 0.760 . S
H101 Co97 2.388 . S
H101 O102 0.760 . S
H101 Co103 2.400 . S
O102 Co97 2.053 . S
O102 Co98 2.126 . S
O102 H101 0.760 . S
O102 Co103 2.009 . S
Co103 H101 2.400 . S
Co103 O102 2.009 . S
Co103 O104 2.053 . S
Co103 O106 2.094 . S
Co103 O110 2.122 . S
Co103 O124 2.115 . S
Co103 O125 2.315 . S
O104 Co103 2.053 . S
O104 C116 1.259 . S
O105 Co97 2.047 . S
O105 C116 1.257 . S
O106 Co103 2.094 . S
O106 C117 1.253 . S
O107 Co98 2.063 . S
O107 C117 1.268 . S
O108 Co96 2.115 . S
O108 C118 1.281 . S
O109 Co96 2.315 . S
O109 C118 1.252 . S
O110 Co103 2.122 . S
O110 C119 1.272 . S
O111 Co97 2.113 . S
O111 C119 1.245 . S
C112 O120 1.259 . S
C112 O121 1.257 . S
C113 O122 1.268 . S
C113 O123 1.253 . S
C114 O124 1.281 . S
C114 O125 1.252 . S
C115 O126 1.272 . S
C115 O127 1.245 . S
C116 O104 1.259 . S
C116 O105 1.257 . S
C117 O106 1.253 . S
C117 O107 1.268 . S
C118 O108 1.281 . S
C118 O109 1.252 . S
C119 O110 1.272 . S
C119 O111 1.245 . S
O120 Co96 2.053 . S
O120 C112 1.259 . S
O121 Co98 2.047 . S
O121 C112 1.257 . S
O122 Co97 2.063 . S
O122 C113 1.268 . S
O123 Co96 2.094 . S
O123 C113 1.253 . S
O124 Co103 2.115 . S
O124 C114 1.281 . S
O125 Co103 2.315 . S
O125 C114 1.252 . S
O126 Co96 2.122 . S
O126 C115 1.272 . S
O127 Co98 2.113 . S
O127 C115 1.245 . S
Co128 H131 2.400 . S
Co128 O132 2.009 . S
Co128 O140 2.115 . S
Co128 O141 2.315 . S
Co128 O152 2.053 . S
Co128 O155 2.094 . S
Co128 O158 2.122 . S
Co129 O132 2.126 . S
Co129 H133 2.388 1_655 S
Co129 O134 2.053 1_655 S
Co129 O137 2.047 . S
Co129 O143 2.113 1_556 S
Co129 O154 2.063 . S
Co130 H131 2.388 1_455 S
Co130 O132 2.053 1_455 S
Co130 O134 2.126 . S
Co130 O139 2.063 . S
Co130 O153 2.047 1_556 S
Co130 O159 2.113 . S
H131 Co128 2.400 . S
H131 Co130 2.388 1_655 S
H131 O132 0.760 . S
O132 Co128 2.009 . S
O132 Co129 2.126 . S
O132 Co130 2.053 1_655 S
O132 H131 0.760 . S
H133 Co129 2.388 1_455 S
H133 O134 0.760 . S
H133 Co135 2.400 . S
O134 Co129 2.053 1_455 S
O134 Co130 2.126 . S
O134 H133 0.760 . S
O134 Co135 2.009 . S
Co135 H133 2.400 . S
Co135 O134 2.009 . S
Co135 O136 2.053 . S
Co135 O138 2.089 1_556 S
Co135 O142 2.122 1_556 S
Co135 O156 2.115 . S
Co135 O157 2.315 . S
O136 Co135 2.053 . S
O136 C148 1.234 1_455 S
O137 Co129 2.047 . S
O137 C148 1.277 . S
O138 Co135 2.089 1_554 S
O138 C149 1.250 1_554 S
O139 Co130 2.063 . S
O139 C149 1.268 . S
O140 Co128 2.115 . S
O140 C150 1.281 . S
O141 Co128 2.315 . S
O141 C150 1.252 . S
O142 Co135 2.122 1_554 S
O142 C151 1.315 . S
O143 Co129 2.113 1_554 S
O143 C151 1.219 1_655 S
C144 O152 1.259 . S
C144 O153 1.257 1_656 S
C145 O154 1.268 . S
C145 O155 1.253 . S
C146 O156 1.281 . S
C146 O157 1.252 . S
C147 O158 1.272 . S
C147 O159 1.245 1_655 S
C148 O136 1.234 1_655 S
C148 O137 1.277 . S
C149 O138 1.250 1_556 S
C149 O139 1.268 . S
C150 O140 1.281 . S
C150 O141 1.252 . S
C151 O142 1.315 . S
C151 O143 1.219 1_455 S
O152 Co128 2.053 . S
O152 C144 1.259 . S
O153 Co130 2.047 1_554 S
O153 C144 1.257 1_454 S
O154 Co129 2.063 . S
O154 C145 1.268 . S
O155 Co128 2.094 . S
O155 C145 1.253 . S
O156 Co135 2.115 . S
O156 C146 1.281 . S
O157 Co135 2.315 . S
O157 C146 1.252 . S
O158 Co128 2.122 . S
O158 C147 1.272 . S
O159 Co130 2.113 . S
O159 C147 1.245 1_455 S
Co160 H163 2.400 . S
Co160 O164 2.009 . S
Co160 O172 2.115 . S
Co160 O173 2.315 . S
Co160 O184 2.053 . S
Co160 O187 2.094 . S
Co160 O190 2.122 . S
Co161 O164 2.126 . S
Co161 H165 2.388 . S
Co161 O166 2.053 . S
Co161 O169 2.047 . S
Co161 O175 2.113 . S
Co161 O186 2.063 1_545 S
Co162 H163 2.388 . S
Co162 O164 2.053 . S
Co162 O166 2.126 . S
Co162 O171 2.063 . S
Co162 O185 2.047 . S
Co162 O191 2.113 . S
H163 Co160 2.400 . S
H163 Co162 2.388 . S
H163 O164 0.760 . S
O164 Co160 2.009 . S
O164 Co161 2.126 . S
O164 Co162 2.053 . S
O164 H163 0.760 . S
H165 Co161 2.388 . S
H165 O166 0.760 . S
H165 Co167 2.400 . S
O166 Co161 2.053 . S
O166 Co162 2.126 . S
O166 H165 0.760 . S
O166 Co167 2.009 . S
Co167 H165 2.400 . S
Co167 O166 2.009 . S
Co167 O168 2.053 . S
Co167 O170 2.094 1_556 S
Co167 O174 2.122 1_556 S
Co167 O188 2.115 1_556 S
Co167 O189 2.315 . S
O168 Co167 2.053 . S
O168 C180 1.259 . S
O169 Co161 2.047 . S
O169 C180 1.257 . S
O170 Co167 2.094 1_554 S
O170 C181 1.253 1_554 S
O171 Co162 2.063 . S
O171 C181 1.268 . S
O172 Co160 2.115 . S
O172 C182 1.281 . S
O173 Co160 2.315 . S
O173 C182 1.252 . S
O174 Co167 2.122 1_554 S
O174 C183 1.272 . S
O175 Co161 2.113 . S
O175 C183 1.245 1_556 S
C176 O184 1.259 . S
C176 O185 1.257 . S
C177 O186 1.268 . S
C177 O187 1.253 1_565 S
C178 O188 1.281 1_556 S
C178 O189 1.252 . S
C179 O190 1.272 . S
C179 O191 1.245 . S
C180 O168 1.259 . S
C180 O169 1.257 . S
C181 O170 1.253 1_556 S
C181 O171 1.268 . S
C182 O172 1.281 . S
C182 O173 1.252 . S
C183 O174 1.272 . S
C183 O175 1.245 1_554 S
O184 Co160 2.053 . S
O184 C176 1.259 . S
O185 Co162 2.047 . S
O185 C176 1.257 . S
O186 Co161 2.063 1_565 S
O186 C177 1.268 . S
O187 Co160 2.094 . S
O187 C177 1.253 1_545 S
O188 Co167 2.115 1_554 S
O188 C178 1.281 1_554 S
O189 Co167 2.315 . S
O189 C178 1.252 . S
O190 Co160 2.122 . S
O190 C179 1.272 . S
O191 Co162 2.113 . S
O191 C179 1.245 . S
Co192 H195 2.400 . S
Co192 O196 2.009 . S
Co192 O204 2.115 . S
Co192 O205 2.315 . S
Co192 O216 2.053 . S
Co192 O219 2.094 . S
Co192 O222 2.122 . S
Co193 O196 2.126 . S
Co193 H197 2.388 1_655 S
Co193 O198 2.053 1_655 S
Co193 O201 2.047 1_545 S
Co193 O207 2.113 . S
Co193 O218 2.063 . S
Co194 H195 2.388 1_455 S
Co194 O196 2.053 1_455 S
Co194 O198 2.126 . S
Co194 O203 2.063 . S
Co194 O217 2.047 . S
Co194 O223 2.113 . S
H195 Co192 2.400 . S
H195 Co194 2.388 1_655 S
H195 O196 0.760 . S
O196 Co192 2.009 . S
O196 Co193 2.126 . S
O196 Co194 2.053 1_655 S
O196 H195 0.760 . S
H197 Co193 2.388 1_455 S
H197 O198 0.760 . S
H197 Co199 2.400 . S
O198 Co193 2.053 1_455 S
O198 Co194 2.126 . S
O198 H197 0.760 . S
O198 Co199 2.009 . S
Co199 H197 2.400 . S
Co199 O198 2.009 . S
Co199 O200 2.053 1_545 S
Co199 O202 2.094 . S
Co199 O206 2.122 . S
Co199 O220 2.115 1_545 S
Co199 O221 2.315 . S
O200 Co199 2.053 1_565 S
O200 C212 1.259 1_455 S
O201 Co193 2.047 1_565 S
O201 C212 1.257 . S
O202 Co199 2.094 . S
O202 C213 1.253 . S
O203 Co194 2.063 . S
O203 C213 1.268 . S
O204 Co192 2.115 . S
O204 C214 1.281 . S
O205 Co192 2.315 . S
O205 C214 1.252 . S
O206 Co199 2.122 . S
O206 C215 1.272 1_455 S
O207 Co193 2.113 . S
O207 C215 1.245 . S
C208 O216 1.259 . S
C208 O217 1.257 1_655 S
C209 O218 1.268 . S
C209 O219 1.253 . S
C210 O220 1.281 . S
C210 O221 1.252 1_565 S
C211 O222 1.266 . S
C211 O223 1.249 1_655 S
C212 O200 1.259 1_655 S
C212 O201 1.257 . S
C213 O202 1.253 . S
C213 O203 1.268 . S
C214 O204 1.281 . S
C214 O205 1.252 . S
C215 O206 1.272 1_655 S
C215 O207 1.245 . S
O216 Co192 2.053 . S
O216 C208 1.259 . S
O217 Co194 2.047 . S
O217 C208 1.257 1_455 S
O218 Co193 2.063 . S
O218 C209 1.268 . S
O219 Co192 2.094 . S
O219 C209 1.253 . S
O220 Co199 2.115 1_565 S
O220 C210 1.281 . S
O221 Co199 2.315 . S
O221 C210 1.252 1_545 S
O222 Co192 2.122 . S
O222 C211 1.266 . S
O223 Co194 2.113 . S
O223 C211 1.249 1_455 S
Co224 H227 2.400 . S
Co224 O228 2.009 . S
Co224 O236 2.115 . S
Co224 O237 2.315 . S
Co224 O248 2.053 . S
Co224 O251 2.094 . S
Co224 O254 2.122 . S
Co225 O228 2.126 . S
Co225 H229 2.388 . S
Co225 O230 2.053 . S
Co225 O233 2.047 . S
Co225 O239 2.113 . S
Co225 O250 2.063 . S
Co226 H227 2.388 . S
Co226 O228 2.053 . S
Co226 O230 2.126 . S
Co226 O235 2.063 . S
Co226 O249 2.047 . S
Co226 O255 2.113 . S
H227 Co224 2.400 . S
H227 Co226 2.388 . S
H227 O228 0.760 . S
O228 Co224 2.009 . S
O228 Co225 2.126 . S
O228 Co226 2.053 . S
O228 H227 0.760 . S
H229 Co225 2.388 . S
H229 O230 0.760 . S
H229 Co231 2.400 . S
O230 Co225 2.053 . S
O230 Co226 2.126 . S
O230 H229 0.760 . S
O230 Co231 2.009 . S
Co231 H229 2.400 . S
Co231 O230 2.009 . S
Co231 O232 2.053 . S
Co231 O234 2.094 . S
Co231 O238 2.122 . S
Co231 O252 2.115 . S
Co231 O253 2.315 . S
O232 Co231 2.053 . S
O232 C244 1.259 . S
O233 Co225 2.047 . S
O233 C244 1.257 . S
O234 Co231 2.094 . S
O234 C245 1.253 . S
O235 Co226 2.063 . S
O235 C245 1.268 . S
O236 Co224 2.115 . S
O236 C246 1.281 . S
O237 Co224 2.315 . S
O237 C246 1.252 . S
O238 Co231 2.122 . S
O238 C247 1.272 . S
O239 Co225 2.113 . S
O239 C247 1.245 . S
C240 O248 1.259 . S
C240 O249 1.257 . S
C241 O250 1.268 . S
C241 O251 1.253 . S
C242 O252 1.281 . S
C242 O253 1.252 . S
C243 O254 1.272 . S
C243 O255 1.245 . S
C244 O232 1.259 . S
C244 O233 1.257 . S
C245 O234 1.253 . S
C245 O235 1.268 . S
C246 O236 1.281 . S
C246 O237 1.252 . S
C247 O238 1.272 . S
C247 O239 1.245 . S
O248 Co224 2.053 . S
O248 C240 1.259 . S
O249 Co226 2.047 . S
O249 C240 1.257 . S
O250 Co225 2.063 . S
O250 C241 1.268 . S
O251 Co224 2.094 . S
O251 C241 1.253 . S
O252 Co231 2.115 . S
O252 C242 1.281 . S
O253 Co231 2.315 . S
O253 C242 1.252 . S
O254 Co224 2.122 . S
O254 C243 1.272 . S
O255 Co226 2.113 . S
O255 C243 1.245 . S
Co256 H259 2.400 . S
Co256 O260 2.009 . S
Co256 O268 2.115 . S
Co256 O269 2.315 . S
Co256 O280 2.053 . S
Co256 O283 2.094 . S
Co256 O286 2.122 . S
Co257 O260 2.126 . S
Co257 H261 2.388 1_655 S
Co257 O262 2.053 1_655 S
Co257 O265 2.047 . S
Co257 O271 2.113 . S
Co257 O282 2.063 . S
Co258 H259 2.388 1_455 S
Co258 O260 2.053 1_455 S
Co258 O262 2.126 . S
Co258 O267 2.063 . S
Co258 O281 2.047 . S
Co258 O287 2.113 . S
H259 Co256 2.400 . S
H259 Co258 2.388 1_655 S
H259 O260 0.760 . S
O260 Co256 2.009 . S
O260 Co257 2.126 . S
O260 Co258 2.053 1_655 S
O260 H259 0.760 . S
H261 Co257 2.388 1_455 S
H261 O262 0.760 . S
H261 Co263 2.400 . S
O262 Co257 2.053 1_455 S
O262 Co258 2.126 . S
O262 H261 0.760 . S
O262 Co263 2.009 . S
Co263 H261 2.400 . S
Co263 O262 2.009 . S
Co263 O264 2.053 . S
Co263 O266 2.094 . S
Co263 O270 2.122 . S
Co263 O284 2.115 . S
Co263 O285 2.315 . S
O264 Co263 2.053 . S
O264 C276 1.259 . S
O265 Co257 2.047 . S
O265 C276 1.257 1_655 S
O266 Co263 2.094 . S
O266 C277 1.253 . S
O267 Co258 2.063 . S
O267 C277 1.268 . S
O268 Co256 2.115 . S
O268 C278 1.281 . S
O269 Co256 2.315 . S
O269 C278 1.252 . S
O270 Co263 2.122 . S
O270 C279 1.272 . S
O271 Co257 2.113 . S
O271 C279 1.245 1_655 S
C272 O280 1.234 1_455 S
C272 O281 1.277 . S
C273 O282 1.268 . S
C273 O283 1.253 . S
C274 O284 1.281 . S
C274 O285 1.252 . S
C275 O286 1.315 . S
C275 O287 1.219 1_655 S
C276 O264 1.259 . S
C276 O265 1.257 1_455 S
C277 O266 1.253 . S
C277 O267 1.268 . S
C278 O268 1.281 . S
C278 O269 1.252 . S
C279 O270 1.272 . S
C279 O271 1.245 1_455 S
O280 Co256 2.053 . S
O280 C272 1.234 1_655 S
O281 Co258 2.047 . S
O281 C272 1.277 . S
O282 Co257 2.063 . S
O282 C273 1.268 . S
O283 Co256 2.094 . S
O283 C273 1.253 . S
O284 Co263 2.115 . S
O284 C274 1.281 . S
O285 Co263 2.315 . S
O285 C274 1.252 . S
O286 Co256 2.122 . S
O286 C275 1.315 . S
O287 Co258 2.113 . S
O287 C275 1.219 1_455 S
Co288 H291 2.400 . S
Co288 O292 2.009 . S
Co288 O300 2.115 . S
Co288 O301 2.315 . S
Co288 O312 2.053 . S
Co288 O315 2.094 . S
Co288 O318 2.122 . S
Co289 O292 2.126 . S
Co289 H293 2.388 . S
Co289 O294 2.053 . S
Co289 O297 2.047 . S
Co289 O303 2.113 . S
Co289 O314 2.063 . S
Co290 H291 2.388 . S
Co290 O292 2.053 . S
Co290 O294 2.126 . S
Co290 O299 2.063 . S
Co290 O313 2.047 . S
Co290 O319 2.113 . S
H291 Co288 2.400 . S
H291 Co290 2.388 . S
H291 O292 0.760 . S
O292 Co288 2.009 . S
O292 Co289 2.126 . S
O292 Co290 2.053 . S
O292 H291 0.760 . S
H293 Co289 2.388 . S
H293 O294 0.760 . S
H293 Co295 2.400 . S
O294 Co289 2.053 . S
O294 Co290 2.126 . S
O294 H293 0.760 . S
O294 Co295 2.009 . S
Co295 H293 2.400 . S
Co295 O294 2.009 . S
Co295 O296 2.053 . S
Co295 O298 2.094 . S
Co295 O302 2.122 . S
Co295 O316 2.115 . S
Co295 O317 2.315 . S
O296 Co295 2.053 . S
O296 C308 1.259 . S
O297 Co289 2.047 . S
O297 C308 1.257 . S
O298 Co295 2.094 . S
O298 C309 1.253 . S
O299 Co290 2.063 . S
O299 C309 1.268 . S
O300 Co288 2.115 . S
O300 C310 1.281 . S
O301 Co288 2.315 . S
O301 C310 1.252 . S
O302 Co295 2.122 . S
O302 C311 1.272 . S
O303 Co289 2.113 . S
O303 C311 1.245 . S
C304 O312 1.259 . S
C304 O313 1.257 . S
C305 O314 1.268 . S
C305 O315 1.253 . S
C306 O316 1.281 . S
C306 O317 1.252 . S
C307 O318 1.272 . S
C307 O319 1.245 . S
C308 O296 1.259 . S
C308 O297 1.257 . S
C309 O298 1.253 . S
C309 O299 1.268 . S
C310 O300 1.281 . S
C310 O301 1.252 . S
C311 O302 1.272 . S
C311 O303 1.245 . S
O312 Co288 2.053 . S
O312 C304 1.259 . S
O313 Co290 2.047 . S
O313 C304 1.257 . S
O314 Co289 2.063 . S
O314 C305 1.268 . S
O315 Co288 2.094 . S
O315 C305 1.253 . S
O316 Co295 2.115 . S
O316 C306 1.281 . S
O317 Co295 2.315 . S
O317 C306 1.252 . S
O318 Co288 2.122 . S
O318 C307 1.272 . S
O319 Co290 2.113 . S
O319 C307 1.245 . S
Co320 H323 2.400 . S
Co320 O324 2.009 . S
Co320 O332 2.115 . S
Co320 O333 2.315 . S
Co320 O344 2.053 . S
Co320 O347 2.094 . S
Co320 O350 2.122 . S
Co321 O324 2.126 . S
Co321 H325 2.388 1_655 S
Co321 O326 2.053 1_655 S
Co321 O329 2.047 . S
Co321 O335 2.113 . S
Co321 O346 2.063 . S
Co322 H323 2.388 1_455 S
Co322 O324 2.053 1_455 S
Co322 O326 2.126 . S
Co322 O331 2.063 . S
Co322 O345 2.047 . S
Co322 O351 2.113 . S
H323 Co320 2.400 . S
H323 Co322 2.388 1_655 S
H323 O324 0.760 . S
O324 Co320 2.009 . S
O324 Co321 2.126 . S
O324 Co322 2.053 1_655 S
O324 H323 0.760 . S
H325 Co321 2.388 1_455 S
H325 O326 0.760 . S
H325 Co327 2.400 . S
O326 Co321 2.053 1_455 S
O326 Co322 2.126 . S
O326 H325 0.760 . S
O326 Co327 2.009 . S
Co327 H325 2.400 . S
Co327 O326 2.009 . S
Co327 O328 2.053 . S
Co327 O330 2.094 . S
Co327 O334 2.122 . S
Co327 O348 2.115 . S
Co327 O349 2.315 . S
O328 Co327 2.053 . S
O328 C340 1.259 . S
O329 Co321 2.047 . S
O329 C340 1.257 1_655 S
O330 Co327 2.094 . S
O330 C341 1.253 . S
O331 Co322 2.063 . S
O331 C341 1.268 . S
O332 Co320 2.115 . S
O332 C342 1.281 . S
O333 Co320 2.315 . S
O333 C342 1.252 . S
O334 Co327 2.122 . S
O334 C343 1.266 . S
O335 Co321 2.113 . S
O335 C343 1.249 1_655 S
C336 O344 1.259 1_455 S
C336 O345 1.257 . S
C337 O346 1.268 . S
C337 O347 1.253 . S
C338 O348 1.281 . S
C338 O349 1.252 . S
C339 O350 1.272 1_455 S
C339 O351 1.245 . S
C340 O328 1.259 . S
C340 O329 1.257 1_455 S
C341 O330 1.253 . S
C341 O331 1.268 . S
C342 O332 1.281 . S
C342 O333 1.252 . S
C343 O334 1.266 . S
C343 O335 1.249 1_455 S
O344 Co320 2.053 . S
O344 C336 1.259 1_655 S
O345 Co322 2.047 . S
O345 C336 1.257 . S
O346 Co321 2.063 . S
O346 C337 1.268 . S
O347 Co320 2.094 . S
O347 C337 1.253 . S
O348 Co327 2.115 . S
O348 C338 1.281 . S
O349 Co327 2.315 . S
O349 C338 1.252 . S
O350 Co320 2.122 . S
O350 C339 1.272 1_655 S
O351 Co322 2.113 . S
O351 C339 1.245 . S
Co352 H355 2.400 . S
Co352 O356 2.009 . S
Co352 O364 2.115 . S
Co352 O365 2.315 . S
Co352 O376 2.053 . S
Co352 O379 2.094 . S
Co352 O382 2.122 . S
Co353 O356 2.126 . S
Co353 H357 2.388 . S
Co353 O358 2.053 . S
Co353 O361 2.047 . S
Co353 O367 2.113 . S
Co353 O378 2.063 . S
Co354 H355 2.388 . S
Co354 O356 2.053 . S
Co354 O358 2.126 . S
Co354 O363 2.063 . S
Co354 O377 2.047 . S
Co354 O383 2.113 . S
H355 Co352 2.400 . S
H355 Co354 2.388 . S
H355 O356 0.760 . S
O356 Co352 2.009 . S
O356 Co353 2.126 . S
O356 Co354 2.053 . S
O356 H355 0.760 . S
H357 Co353 2.388 . S
H357 O358 0.760 . S
H357 Co359 2.400 . S
O358 Co353 2.053 . S
O358 Co354 2.126 . S
O358 H357 0.760 . S
O358 Co359 2.009 . S
Co359 H357 2.400 . S
Co359 O358 2.009 . S
Co359 O360 2.053 . S
Co359 O362 2.094 . S
Co359 O366 2.122 . S
Co359 O380 2.115 . S
Co359 O381 2.315 . S
O360 Co359 2.053 . S
O360 C372 1.259 . S
O361 Co353 2.047 . S
O361 C372 1.257 . S
O362 Co359 2.094 . S
O362 C373 1.253 . S
O363 Co354 2.063 . S
O363 C373 1.268 . S
O364 Co352 2.115 . S
O364 C374 1.281 . S
O365 Co352 2.315 . S
O365 C374 1.252 . S
O366 Co359 2.122 . S
O366 C375 1.272 . S
O367 Co353 2.113 . S
O367 C375 1.245 . S
C368 O376 1.259 . S
C368 O377 1.257 . S
C369 O378 1.268 . S
C369 O379 1.253 . S
C370 O380 1.281 . S
C370 O381 1.252 . S
C371 O382 1.272 . S
C371 O383 1.245 . S
C372 O360 1.259 . S
C372 O361 1.257 . S
C373 O362 1.253 . S
C373 O363 1.268 . S
C374 O364 1.281 . S
C374 O365 1.252 . S
C375 O366 1.272 . S
C375 O367 1.245 . S
O376 Co352 2.053 . S
O376 C368 1.259 . S
O377 Co354 2.047 . S
O377 C368 1.257 . S
O378 Co353 2.063 . S
O378 C369 1.268 . S
O379 Co352 2.094 . S
O379 C369 1.253 . S
O380 Co359 2.115 . S
O380 C370 1.281 . S
O381 Co359 2.315 . S
O381 C370 1.252 . S
O382 Co352 2.122 . S
O382 C371 1.272 . S
O383 Co354 2.113 . S
O383 C371 1.245 . S
Co384 H387 2.400 . S
Co384 O388 2.009 . S
Co384 O396 2.115 . S
Co384 O397 2.315 . S
Co384 O408 2.053 . S
Co384 O411 2.094 . S
Co384 O414 2.122 . S
Co385 O388 2.126 . S
Co385 H389 2.388 1_655 S
Co385 O390 2.053 1_655 S
Co385 O393 2.047 . S
Co385 O399 2.113 . S
Co385 O410 2.063 . S
Co386 H387 2.388 1_455 S
Co386 O388 2.053 1_455 S
Co386 O390 2.126 . S
Co386 O395 2.063 . S
Co386 O409 2.047 . S
Co386 O415 2.113 . S
H387 Co384 2.400 . S
H387 Co386 2.388 1_655 S
H387 O388 0.760 . S
O388 Co384 2.009 . S
O388 Co385 2.126 . S
O388 Co386 2.053 1_655 S
O388 H387 0.760 . S
H389 Co385 2.388 1_455 S
H389 O390 0.760 . S
H389 Co391 2.400 . S
O390 Co385 2.053 1_455 S
O390 Co386 2.126 . S
O390 H389 0.760 . S
O390 Co391 2.009 . S
Co391 H389 2.400 . S
Co391 O390 2.009 . S
Co391 O392 2.053 . S
Co391 O394 2.094 . S
Co391 O398 2.122 . S
Co391 O412 2.115 . S
Co391 O413 2.315 . S
O392 Co391 2.053 . S
O392 C404 1.234 1_455 S
O393 Co385 2.047 . S
O393 C404 1.277 . S
O394 Co391 2.094 . S
O394 C405 1.253 . S
O395 Co386 2.063 . S
O395 C405 1.268 . S
O396 Co384 2.115 . S
O396 C406 1.281 . S
O397 Co384 2.315 . S
O397 C406 1.252 . S
O398 Co391 2.122 . S
O398 C407 1.315 . S
O399 Co385 2.113 . S
O399 C407 1.219 1_655 S
C400 O408 1.259 . S
C400 O409 1.257 1_655 S
C401 O410 1.268 . S
C401 O411 1.253 . S
C402 O412 1.281 . S
C402 O413 1.252 . S
C403 O414 1.272 . S
C403 O415 1.245 1_655 S
C404 O392 1.234 1_655 S
C404 O393 1.277 . S
C405 O394 1.253 . S
C405 O395 1.268 . S
C406 O396 1.281 . S
C406 O397 1.252 . S
C407 O398 1.315 . S
C407 O399 1.219 1_455 S
O408 Co384 2.053 . S
O408 C400 1.259 . S
O409 Co386 2.047 . S
O409 C400 1.257 1_455 S
O410 Co385 2.063 . S
O410 C401 1.268 . S
O411 Co384 2.094 . S
O411 C401 1.253 . S
O412 Co391 2.115 . S
O412 C402 1.281 . S
O413 Co391 2.315 . S
O413 C402 1.252 . S
O414 Co384 2.122 . S
O414 C403 1.272 . S
O415 Co386 2.113 . S
O415 C403 1.245 1_455 S
Co416 H419 2.400 . S
Co416 O420 2.009 . S
Co416 O428 2.115 . S
Co416 O429 2.315 . S
Co416 O440 2.053 . S
Co416 O443 2.094 . S
Co416 O446 2.122 . S
Co417 O420 2.126 . S
Co417 H421 2.388 . S
Co417 O422 2.053 . S
Co417 O425 2.047 . S
Co417 O431 2.113 . S
Co417 O442 2.063 . S
Co418 H419 2.388 . S
Co418 O420 2.053 . S
Co418 O422 2.126 . S
Co418 O427 2.063 . S
Co418 O441 2.047 . S
Co418 O447 2.113 . S
H419 Co416 2.400 . S
H419 Co418 2.388 . S
H419 O420 0.760 . S
O420 Co416 2.009 . S
O420 Co417 2.126 . S
O420 Co418 2.053 . S
O420 H419 0.760 . S
H421 Co417 2.388 . S
H421 O422 0.760 . S
H421 Co423 2.400 . S
O422 Co417 2.053 . S
O422 Co418 2.126 . S
O422 H421 0.760 . S
O422 Co423 2.009 . S
Co423 H421 2.400 . S
Co423 O422 2.009 . S
Co423 O424 2.053 . S
Co423 O426 2.094 . S
Co423 O430 2.122 . S
Co423 O444 2.115 . S
Co423 O445 2.315 . S
O424 Co423 2.053 . S
O424 C436 1.259 . S
O425 Co417 2.047 . S
O425 C436 1.257 . S
O426 Co423 2.094 . S
O426 C437 1.253 . S
O427 Co418 2.063 . S
O427 C437 1.268 . S
O428 Co416 2.115 . S
O428 C438 1.281 . S
O429 Co416 2.315 . S
O429 C438 1.252 . S
O430 Co423 2.122 . S
O430 C439 1.272 . S
O431 Co417 2.113 . S
O431 C439 1.245 . S
C432 O440 1.259 . S
C432 O441 1.257 . S
C433 O442 1.268 . S
C433 O443 1.253 . S
C434 O444 1.281 . S
C434 O445 1.252 . S
C435 O446 1.272 . S
C435 O447 1.245 . S
C436 O424 1.259 . S
C436 O425 1.257 . S
C437 O426 1.253 . S
C437 O427 1.268 . S
C438 O428 1.281 . S
C438 O429 1.252 . S
C439 O430 1.272 . S
C439 O431 1.245 . S
O440 Co416 2.053 . S
O440 C432 1.259 . S
O441 Co418 2.047 . S
O441 C432 1.257 . S
O442 Co417 2.063 . S
O442 C433 1.268 . S
O443 Co416 2.094 . S
O443 C433 1.253 . S
O444 Co423 2.115 . S
O444 C434 1.281 . S
O445 Co423 2.315 . S
O445 C434 1.252 . S
O446 Co416 2.122 . S
O446 C435 1.272 . S
O447 Co418 2.113 . S
O447 C435 1.245 . S
Co448 H451 2.400 . S
Co448 O452 2.009 . S
Co448 O460 2.115 . S
Co448 O461 2.315 . S
Co448 O472 2.053 . S
Co448 O475 2.094 . S
Co448 O478 2.122 . S
Co449 O452 2.126 . S
Co449 H453 2.388 1_655 S
Co449 O454 2.053 1_655 S
Co449 O457 2.047 . S
Co449 O463 2.113 . S
Co449 O474 2.063 . S
Co450 H451 2.388 1_455 S
Co450 O452 2.053 1_455 S
Co450 O454 2.126 . S
Co450 O459 2.063 . S
Co450 O473 2.047 . S
Co450 O479 2.113 . S
H451 Co448 2.400 . S
H451 Co450 2.388 1_655 S
H451 O452 0.760 . S
O452 Co448 2.009 . S
O452 Co449 2.126 . S
O452 Co450 2.053 1_655 S
O452 H451 0.760 . S
H453 Co449 2.388 1_455 S
H453 O454 0.760 . S
H453 Co455 2.400 . S
O454 Co449 2.053 1_455 S
O454 Co450 2.126 . S
O454 H453 0.760 . S
O454 Co455 2.009 . S
Co455 H453 2.400 . S
Co455 O454 2.009 . S
Co455 O456 2.053 . S
Co455 O458 2.094 . S
Co455 O462 2.122 . S
Co455 O476 2.115 . S
Co455 O477 2.315 . S
O456 Co455 2.053 . S
O456 C468 1.259 1_455 S
O457 Co449 2.047 . S
O457 C468 1.257 . S
O458 Co455 2.094 . S
O458 C469 1.253 . S
O459 Co450 2.063 . S
O459 C469 1.268 . S
O460 Co448 2.115 . S
O460 C470 1.281 . S
O461 Co448 2.315 . S
O461 C470 1.252 . S
O462 Co455 2.122 . S
O462 C471 1.272 1_455 S
O463 Co449 2.113 . S
O463 C471 1.245 . S
C464 O472 1.259 . S
C464 O473 1.257 1_655 S
C465 O474 1.268 . S
C465 O475 1.253 . S
C466 O476 1.281 . S
C466 O477 1.252 . S
C467 O478 1.266 . S
C467 O479 1.249 1_655 S
C468 O456 1.259 1_655 S
C468 O457 1.257 . S
C469 O458 1.253 . S
C469 O459 1.268 . S
C470 O460 1.281 . S
C470 O461 1.252 . S
C471 O462 1.272 1_655 S
C471 O463 1.245 . S
O472 Co448 2.053 . S
O472 C464 1.259 . S
O473 Co450 2.047 . S
O473 C464 1.257 1_455 S
O474 Co449 2.063 . S
O474 C465 1.268 . S
O475 Co448 2.094 . S
O475 C465 1.253 . S
O476 Co455 2.115 . S
O476 C466 1.281 . S
O477 Co455 2.315 . S
O477 C466 1.252 . S
O478 Co448 2.122 . S
O478 C467 1.266 . S
O479 Co450 2.113 . S
O479 C467 1.249 1_455 S
Co480 H483 2.400 . S
Co480 O484 2.009 . S
Co480 O492 2.115 . S
Co480 O493 2.315 . S
Co480 O504 2.053 . S
Co480 O507 2.094 . S
Co480 O510 2.122 . S
Co481 O484 2.126 . S
Co481 H485 2.388 . S
Co481 O486 2.053 . S
Co481 O489 2.047 . S
Co481 O495 2.113 . S
Co481 O506 2.063 . S
Co482 H483 2.388 . S
Co482 O484 2.053 . S
Co482 O486 2.126 . S
Co482 O491 2.063 . S
Co482 O505 2.047 . S
Co482 O511 2.113 . S
H483 Co480 2.400 . S
H483 Co482 2.388 . S
H483 O484 0.760 . S
O484 Co480 2.009 . S
O484 Co481 2.126 . S
O484 Co482 2.053 . S
O484 H483 0.760 . S
H485 Co481 2.388 . S
H485 O486 0.760 . S
H485 Co487 2.400 . S
O486 Co481 2.053 . S
O486 Co482 2.126 . S
O486 H485 0.760 . S
O486 Co487 2.009 . S
Co487 H485 2.400 . S
Co487 O486 2.009 . S
Co487 O488 2.053 . S
Co487 O490 2.094 . S
Co487 O494 2.122 . S
Co487 O508 2.115 . S
Co487 O509 2.315 . S
O488 Co487 2.053 . S
O488 C500 1.259 . S
O489 Co481 2.047 . S
O489 C500 1.257 . S
O490 Co487 2.094 . S
O490 C501 1.253 . S
O491 Co482 2.063 . S
O491 C501 1.268 . S
O492 Co480 2.115 . S
O492 C502 1.281 . S
O493 Co480 2.315 . S
O493 C502 1.252 . S
O494 Co487 2.122 . S
O494 C503 1.272 . S
O495 Co481 2.113 . S
O495 C503 1.245 . S
C496 O504 1.259 . S
C496 O505 1.257 . S
C497 O506 1.268 . S
C497 O507 1.253 . S
C498 O508 1.281 . S
C498 O509 1.252 . S
C499 O510 1.272 . S
C499 O511 1.245 . S
C500 O488 1.259 . S
C500 O489 1.257 . S
C501 O490 1.253 . S
C501 O491 1.268 . S
C502 O492 1.281 . S
C502 O493 1.252 . S
C503 O494 1.272 . S
C503 O495 1.245 . S
O504 Co480 2.053 . S
O504 C496 1.259 . S
O505 Co482 2.047 . S
O505 C496 1.257 . S
O506 Co481 2.063 . S
O506 C497 1.268 . S
O507 Co480 2.094 . S
O507 C497 1.253 . S
O508 Co487 2.115 . S
O508 C498 1.281 . S
O509 Co487 2.315 . S
O509 C498 1.252 . S
O510 Co480 2.122 . S
O510 C499 1.272 . S
O511 Co482 2.113 . S
O511 C499 1.245 . S
Co512 H515 2.400 . S
Co512 O516 2.009 . S
Co512 O524 2.115 . S
Co512 O525 2.315 . S
Co512 O536 2.053 . S
Co512 O539 2.094 . S
Co512 O542 2.122 . S
Co513 O516 2.126 . S
Co513 H517 2.388 . S
Co513 O518 2.053 . S
Co513 O521 2.047 . S
Co513 O527 2.113 . S
Co513 O538 2.063 . S
Co514 H515 2.388 . S
Co514 O516 2.053 . S
Co514 O518 2.126 . S
Co514 O523 2.063 . S
Co514 O537 2.047 . S
Co514 O543 2.113 . S
H515 Co512 2.400 . S
H515 Co514 2.388 . S
H515 O516 0.760 . S
O516 Co512 2.009 . S
O516 Co513 2.126 . S
O516 Co514 2.053 . S
O516 H515 0.760 . S
H517 Co513 2.388 . S
H517 O518 0.760 . S
H517 Co519 2.400 . S
O518 Co513 2.053 . S
O518 Co514 2.126 . S
O518 H517 0.760 . S
O518 Co519 2.009 . S
Co519 H517 2.400 . S
Co519 O518 2.009 . S
Co519 O520 2.053 . S
Co519 O522 2.094 . S
Co519 O526 2.122 . S
Co519 O540 2.115 . S
Co519 O541 2.315 . S
O520 Co519 2.053 . S
O520 C532 1.259 . S
O521 Co513 2.047 . S
O521 C532 1.257 . S
O522 Co519 2.094 . S
O522 C533 1.253 . S
O523 Co514 2.063 . S
O523 C533 1.268 . S
O524 Co512 2.115 . S
O524 C534 1.281 . S
O525 Co512 2.315 . S
O525 C534 1.252 . S
O526 Co519 2.122 . S
O526 C535 1.272 . S
O527 Co513 2.113 . S
O527 C535 1.245 . S
C528 O536 1.259 . S
C528 O537 1.257 . S
C529 O538 1.268 . S
C529 O539 1.253 . S
C530 O540 1.281 . S
C530 O541 1.252 . S
C531 O542 1.272 . S
C531 O543 1.245 . S
C532 O520 1.259 . S
C532 O521 1.257 . S
C533 O522 1.253 . S
C533 O523 1.268 . S
C534 O524 1.281 . S
C534 O525 1.252 . S
C535 O526 1.272 . S
C535 O527 1.245 . S
O536 Co512 2.053 . S
O536 C528 1.259 . S
O537 Co514 2.047 . S
O537 C528 1.257 . S
O538 Co513 2.063 . S
O538 C529 1.268 . S
O539 Co512 2.094 . S
O539 C529 1.253 . S
O540 Co519 2.115 . S
O540 C530 1.281 . S
O541 Co519 2.315 . S
O541 C530 1.252 . S
O542 Co512 2.122 . S
O542 C531 1.272 . S
O543 Co514 2.113 . S
O543 C531 1.245 . S
Co544 H547 2.400 . S
Co544 O548 2.009 . S
Co544 O556 2.115 . S
Co544 O557 2.315 . S
Co544 O568 2.053 . S
Co544 O571 2.094 . S
Co544 O574 2.122 . S
Co545 O548 2.126 . S
Co545 H549 2.388 . S
Co545 O550 2.053 . S
Co545 O553 2.047 . S
Co545 O559 2.113 . S
Co545 O570 2.063 . S
Co546 H547 2.388 . S
Co546 O548 2.053 . S
Co546 O550 2.126 . S
Co546 O555 2.063 1_565 S
Co546 O569 2.047 . S
Co546 O575 2.113 . S
H547 Co544 2.400 . S
H547 Co546 2.388 . S
H547 O548 0.760 . S
O548 Co544 2.009 . S
O548 Co545 2.126 . S
O548 Co546 2.053 . S
O548 H547 0.760 . S
H549 Co545 2.388 . S
H549 O550 0.760 . S
H549 Co551 2.400 . S
O550 Co545 2.053 . S
O550 Co546 2.126 . S
O550 H549 0.760 . S
O550 Co551 2.009 . S
Co551 H549 2.400 . S
Co551 O550 2.009 . S
Co551 O552 2.053 . S
Co551 O554 2.094 . S
Co551 O558 2.122 . S
Co551 O572 2.115 . S
Co551 O573 2.315 . S
O552 Co551 2.053 . S
O552 C564 1.259 . S
O553 Co545 2.047 . S
O553 C564 1.257 . S
O554 Co551 2.094 . S
O554 C565 1.253 1_565 S
O555 Co546 2.063 1_545 S
O555 C565 1.268 . S
O556 Co544 2.115 . S
O556 C566 1.281 . S
O557 Co544 2.315 . S
O557 C566 1.252 . S
O558 Co551 2.122 . S
O558 C567 1.272 . S
O559 Co545 2.113 . S
O559 C567 1.245 . S
C560 O568 1.259 . S
C560 O569 1.257 . S
C561 O570 1.268 . S
C561 O571 1.253 . S
C562 O572 1.281 . S
C562 O573 1.252 . S
C563 O574 1.272 . S
C563 O575 1.245 . S
C564 O552 1.259 . S
C564 O553 1.257 . S
C565 O554 1.253 1_545 S
C565 O555 1.268 . S
C566 O556 1.281 . S
C566 O557 1.252 . S
C567 O558 1.272 . S
C567 O559 1.245 . S
O568 Co544 2.053 . S
O568 C560 1.259 . S
O569 Co546 2.047 . S
O569 C560 1.257 . S
O570 Co545 2.063 . S
O570 C561 1.268 . S
O571 Co544 2.094 . S
O571 C561 1.253 . S
O572 Co551 2.115 . S
O572 C562 1.281 . S
O573 Co551 2.315 . S
O573 C562 1.252 . S
O574 Co544 2.122 . S
O574 C563 1.272 . S
O575 Co546 2.113 . S
O575 C563 1.245 . S
Co576 H579 2.400 . S
Co576 O580 2.009 . S
Co576 O588 2.115 1_565 S
Co576 O589 2.315 . S
Co576 O600 2.053 1_565 S
Co576 O603 2.094 . S
Co576 O606 2.122 . S
Co577 O580 2.126 . S
Co577 H581 2.388 . S
Co577 O582 2.053 . S
Co577 O585 2.047 . S
Co577 O591 2.113 . S
Co577 O602 2.063 . S
Co578 H579 2.388 . S
Co578 O580 2.053 . S
Co578 O582 2.126 . S
Co578 O587 2.063 . S
Co578 O601 2.047 1_565 S
Co578 O607 2.113 . S
H579 Co576 2.400 . S
H579 Co578 2.388 . S
H579 O580 0.760 . S
O580 Co576 2.009 . S
O580 Co577 2.126 . S
O580 Co578 2.053 . S
O580 H579 0.760 . S
H581 Co577 2.388 . S
H581 O582 0.760 . S
H581 Co583 2.400 . S
O582 Co577 2.053 . S
O582 Co578 2.126 . S
O582 H581 0.760 . S
O582 Co583 2.009 . S
Co583 H581 2.400 . S
Co583 O582 2.009 . S
Co583 O584 2.053 . S
Co583 O586 2.094 . S
Co583 O590 2.122 . S
Co583 O604 2.115 . S
Co583 O605 2.315 . S
O584 Co583 2.053 . S
O584 C596 1.259 . S
O585 Co577 2.047 . S
O585 C596 1.257 . S
O586 Co583 2.094 . S
O586 C597 1.253 . S
O587 Co578 2.063 . S
O587 C597 1.268 . S
O588 Co576 2.115 1_545 S
O588 C598 1.281 . S
O589 Co576 2.315 . S
O589 C598 1.252 1_565 S
O590 Co583 2.122 . S
O590 C599 1.272 . S
O591 Co577 2.113 . S
O591 C599 1.245 . S
C592 O600 1.259 . S
C592 O601 1.257 . S
C593 O602 1.268 . S
C593 O603 1.253 . S
C594 O604 1.281 . S
C594 O605 1.252 . S
C595 O606 1.272 . S
C595 O607 1.245 . S
C596 O584 1.259 . S
C596 O585 1.257 . S
C597 O586 1.253 . S
C597 O587 1.268 . S
C598 O588 1.281 . S
C598 O589 1.252 1_545 S
C599 O590 1.272 . S
C599 O591 1.245 . S
O600 Co576 2.053 1_545 S
O600 C592 1.259 . S
O601 Co578 2.047 1_545 S
O601 C592 1.257 . S
O602 Co577 2.063 . S
O602 C593 1.268 . S
O603 Co576 2.094 . S
O603 C593 1.253 . S
O604 Co583 2.115 . S
O604 C594 1.281 . S
O605 Co583 2.315 . S
O605 C594 1.252 . S
O606 Co576 2.122 . S
O606 C595 1.272 . S
O607 Co578 2.113 . S
O607 C595 1.245 . S
Co608 H611 2.400 . S
Co608 O612 2.009 . S
Co608 O620 2.115 . S
Co608 O621 2.315 . S
Co608 O632 2.053 . S
Co608 O635 2.094 . S
Co608 O638 2.122 . S
Co609 O612 2.126 . S
Co609 H613 2.388 . S
Co609 O614 2.053 . S
Co609 O617 2.047 . S
Co609 O623 2.113 . S
Co609 O634 2.063 . S
Co610 H611 2.388 . S
Co610 O612 2.053 . S
Co610 O614 2.126 . S
Co610 O619 2.063 . S
Co610 O633 2.047 . S
Co610 O639 2.113 . S
H611 Co608 2.400 . S
H611 Co610 2.388 . S
H611 O612 0.760 . S
O612 Co608 2.009 . S
O612 Co609 2.126 . S
O612 Co610 2.053 . S
O612 H611 0.760 . S
H613 Co609 2.388 . S
H613 O614 0.760 . S
H613 Co615 2.400 . S
O614 Co609 2.053 . S
O614 Co610 2.126 . S
O614 H613 0.760 . S
O614 Co615 2.009 . S
Co615 H613 2.400 . S
Co615 O614 2.009 . S
Co615 O616 2.053 . S
Co615 O618 2.094 . S
Co615 O622 2.122 . S
Co615 O636 2.115 . S
Co615 O637 2.315 . S
O616 Co615 2.053 . S
O616 C628 1.259 . S
O617 Co609 2.047 . S
O617 C628 1.257 . S
O618 Co615 2.094 . S
O618 C629 1.253 . S
O619 Co610 2.063 . S
O619 C629 1.268 . S
O620 Co608 2.115 . S
O620 C630 1.281 . S
O621 Co608 2.315 . S
O621 C630 1.252 . S
O622 Co615 2.122 . S
O622 C631 1.272 . S
O623 Co609 2.113 . S
O623 C631 1.245 . S
C624 O632 1.259 . S
C624 O633 1.257 . S
C625 O634 1.268 . S
C625 O635 1.253 . S
C626 O636 1.281 . S
C626 O637 1.252 . S
C627 O638 1.272 . S
C627 O639 1.245 . S
C628 O616 1.259 . S
C628 O617 1.257 . S
C629 O618 1.253 . S
C629 O619 1.268 . S
C630 O620 1.281 . S
C630 O621 1.252 . S
C631 O622 1.272 . S
C631 O623 1.245 . S
O632 Co608 2.053 . S
O632 C624 1.259 . S
O633 Co610 2.047 . S
O633 C624 1.257 . S
O634 Co609 2.063 . S
O634 C625 1.268 . S
O635 Co608 2.094 . S
O635 C625 1.253 . S
O636 Co615 2.115 . S
O636 C626 1.281 . S
O637 Co615 2.315 . S
O637 C626 1.252 . S
O638 Co608 2.122 . S
O638 C627 1.272 . S
O639 Co610 2.113 . S
O639 C627 1.245 . S
Co640 H643 2.400 . S
Co640 O644 2.009 . S
Co640 O652 2.115 . S
Co640 O653 2.315 . S
Co640 O664 2.053 . S
Co640 O667 2.094 . S
Co640 O670 2.122 . S
Co641 O644 2.126 . S
Co641 H645 2.388 . S
Co641 O646 2.053 . S
Co641 O649 2.047 . S
Co641 O655 2.113 . S
Co641 O666 2.063 . S
Co642 H643 2.388 . S
Co642 O644 2.053 . S
Co642 O646 2.126 . S
Co642 O651 2.063 . S
Co642 O665 2.047 . S
Co642 O671 2.113 . S
H643 Co640 2.400 . S
H643 Co642 2.388 . S
H643 O644 0.760 . S
O644 Co640 2.009 . S
O644 Co641 2.126 . S
O644 Co642 2.053 . S
O644 H643 0.760 . S
H645 Co641 2.388 . S
H645 O646 0.760 . S
H645 Co647 2.400 . S
O646 Co641 2.053 . S
O646 Co642 2.126 . S
O646 H645 0.760 . S
O646 Co647 2.009 . S
Co647 H645 2.400 . S
Co647 O646 2.009 . S
Co647 O648 2.053 . S
Co647 O650 2.094 . S
Co647 O654 2.122 . S
Co647 O668 2.115 . S
Co647 O669 2.315 . S
O648 Co647 2.053 . S
O648 C660 1.259 . S
O649 Co641 2.047 . S
O649 C660 1.257 . S
O650 Co647 2.094 . S
O650 C661 1.253 . S
O651 Co642 2.063 . S
O651 C661 1.268 . S
O652 Co640 2.115 . S
O652 C662 1.281 . S
O653 Co640 2.315 . S
O653 C662 1.252 . S
O654 Co647 2.122 . S
O654 C663 1.272 . S
O655 Co641 2.113 . S
O655 C663 1.245 . S
C656 O664 1.259 . S
C656 O665 1.257 . S
C657 O666 1.268 . S
C657 O667 1.253 . S
C658 O668 1.281 . S
C658 O669 1.252 . S
C659 O670 1.272 . S
C659 O671 1.245 . S
C660 O648 1.259 . S
C660 O649 1.257 . S
C661 O650 1.253 . S
C661 O651 1.268 . S
C662 O652 1.281 . S
C662 O653 1.252 . S
C663 O654 1.272 . S
C663 O655 1.245 . S
O664 Co640 2.053 . S
O664 C656 1.259 . S
O665 Co642 2.047 . S
O665 C656 1.257 . S
O666 Co641 2.063 . S
O666 C657 1.268 . S
O667 Co640 2.094 . S
O667 C657 1.253 . S
O668 Co647 2.115 . S
O668 C658 1.281 . S
O669 Co647 2.315 . S
O669 C658 1.252 . S
O670 Co640 2.122 . S
O670 C659 1.272 . S
O671 Co642 2.113 . S
O671 C659 1.245 . S
Co672 H675 2.400 . S
Co672 O676 2.009 . S
Co672 O684 2.115 . S
Co672 O685 2.315 . S
Co672 O696 2.053 . S
Co672 O699 2.094 . S
Co672 O702 2.122 . S
Co673 O676 2.126 . S
Co673 H677 2.388 . S
Co673 O678 2.053 . S
Co673 O681 2.047 . S
Co673 O687 2.113 . S
Co673 O698 2.063 1_545 S
Co674 H675 2.388 . S
Co674 O676 2.053 . S
Co674 O678 2.126 . S
Co674 O683 2.063 . S
Co674 O697 2.047 . S
Co674 O703 2.113 . S
H675 Co672 2.400 . S
H675 Co674 2.388 . S
H675 O676 0.760 . S
O676 Co672 2.009 . S
O676 Co673 2.126 . S
O676 Co674 2.053 . S
O676 H675 0.760 . S
H677 Co673 2.388 . S
H677 O678 0.760 . S
H677 Co679 2.400 . S
O678 Co673 2.053 . S
O678 Co674 2.126 . S
O678 H677 0.760 . S
O678 Co679 2.009 . S
Co679 H677 2.400 . S
Co679 O678 2.009 . S
Co679 O680 2.053 . S
Co679 O682 2.094 . S
Co679 O686 2.122 . S
Co679 O700 2.115 . S
Co679 O701 2.315 . S
O680 Co679 2.053 . S
O680 C692 1.259 . S
O681 Co673 2.047 . S
O681 C692 1.257 . S
O682 Co679 2.094 . S
O682 C693 1.253 . S
O683 Co674 2.063 . S
O683 C693 1.268 . S
O684 Co672 2.115 . S
O684 C694 1.281 . S
O685 Co672 2.315 . S
O685 C694 1.252 . S
O686 Co679 2.122 . S
O686 C695 1.272 . S
O687 Co673 2.113 . S
O687 C695 1.245 . S
C688 O696 1.259 . S
C688 O697 1.257 . S
C689 O698 1.268 . S
C689 O699 1.253 1_565 S
C690 O700 1.281 . S
C690 O701 1.252 . S
C691 O702 1.272 . S
C691 O703 1.245 . S
C692 O680 1.259 . S
C692 O681 1.257 . S
C693 O682 1.253 . S
C693 O683 1.268 . S
C694 O684 1.281 . S
C694 O685 1.252 . S
C695 O686 1.272 . S
C695 O687 1.245 . S
O696 Co672 2.053 . S
O696 C688 1.259 . S
O697 Co674 2.047 . S
O697 C688 1.257 . S
O698 Co673 2.063 1_565 S
O698 C689 1.268 . S
O699 Co672 2.094 . S
O699 C689 1.253 1_545 S
O700 Co679 2.115 . S
O700 C690 1.281 . S
O701 Co679 2.315 . S
O701 C690 1.252 . S
O702 Co672 2.122 . S
O702 C691 1.272 . S
O703 Co674 2.113 . S
O703 C691 1.245 . S
Co704 H707 2.400 . S
Co704 O708 2.009 . S
Co704 O716 2.115 . S
Co704 O717 2.315 . S
Co704 O728 2.053 . S
Co704 O731 2.094 . S
Co704 O734 2.122 . S
Co705 O708 2.126 . S
Co705 H709 2.388 . S
Co705 O710 2.053 . S
Co705 O713 2.047 1_545 S
Co705 O719 2.113 . S
Co705 O730 2.063 . S
Co706 H707 2.388 . S
Co706 O708 2.053 . S
Co706 O710 2.126 . S
Co706 O715 2.063 . S
Co706 O729 2.047 . S
Co706 O735 2.113 . S
H707 Co704 2.400 . S
H707 Co706 2.388 . S
H707 O708 0.760 . S
O708 Co704 2.009 . S
O708 Co705 2.126 . S
O708 Co706 2.053 . S
O708 H707 0.760 . S
H709 Co705 2.388 . S
H709 O710 0.760 . S
H709 Co711 2.400 . S
O710 Co705 2.053 . S
O710 Co706 2.126 . S
O710 H709 0.760 . S
O710 Co711 2.009 . S
Co711 H709 2.400 . S
Co711 O710 2.009 . S
Co711 O712 2.053 1_545 S
Co711 O714 2.094 . S
Co711 O718 2.122 . S
Co711 O732 2.115 1_545 S
Co711 O733 2.315 . S
O712 Co711 2.053 1_565 S
O712 C724 1.259 . S
O713 Co705 2.047 1_565 S
O713 C724 1.257 . S
O714 Co711 2.094 . S
O714 C725 1.253 . S
O715 Co706 2.063 . S
O715 C725 1.268 . S
O716 Co704 2.115 . S
O716 C726 1.281 . S
O717 Co704 2.315 . S
O717 C726 1.252 . S
O718 Co711 2.122 . S
O718 C727 1.272 . S
O719 Co705 2.113 . S
O719 C727 1.245 . S
C720 O728 1.259 . S
C720 O729 1.257 . S
C721 O730 1.268 . S
C721 O731 1.253 . S
C722 O732 1.281 . S
C722 O733 1.252 1_565 S
C723 O734 1.272 . S
C723 O735 1.245 . S
C724 O712 1.259 . S
C724 O713 1.257 . S
C725 O714 1.253 . S
C725 O715 1.268 . S
C726 O716 1.281 . S
C726 O717 1.252 . S
C727 O718 1.272 . S
C727 O719 1.245 . S
O728 Co704 2.053 . S
O728 C720 1.259 . S
O729 Co706 2.047 . S
O729 C720 1.257 . S
O730 Co705 2.063 . S
O730 C721 1.268 . S
O731 Co704 2.094 . S
O731 C721 1.253 . S
O732 Co711 2.115 1_565 S
O732 C722 1.281 . S
O733 Co711 2.315 . S
O733 C722 1.252 1_545 S
O734 Co704 2.122 . S
O734 C723 1.272 . S
O735 Co706 2.113 . S
O735 C723 1.245 . S
Co736 H739 2.400 . S
Co736 O740 2.009 . S
Co736 O748 2.115 . S
Co736 O749 2.315 . S
Co736 O760 2.053 . S
Co736 O763 2.094 . S
Co736 O766 2.122 . S
Co737 O740 2.126 . S
Co737 H741 2.388 . S
Co737 O742 2.053 . S
Co737 O745 2.047 . S
Co737 O751 2.113 . S
Co737 O762 2.063 . S
Co738 H739 2.388 . S
Co738 O740 2.053 . S
Co738 O742 2.126 . S
Co738 O747 2.063 . S
Co738 O761 2.047 . S
Co738 O767 2.113 . S
H739 Co736 2.400 . S
H739 Co738 2.388 . S
H739 O740 0.760 . S
O740 Co736 2.009 . S
O740 Co737 2.126 . S
O740 Co738 2.053 . S
O740 H739 0.760 . S
H741 Co737 2.388 . S
H741 O742 0.760 . S
H741 Co743 2.400 . S
O742 Co737 2.053 . S
O742 Co738 2.126 . S
O742 H741 0.760 . S
O742 Co743 2.009 . S
Co743 H741 2.400 . S
Co743 O742 2.009 . S
Co743 O744 2.053 . S
Co743 O746 2.094 . S
Co743 O750 2.122 . S
Co743 O764 2.115 . S
Co743 O765 2.315 . S
O744 Co743 2.053 . S
O744 C756 1.259 . S
O745 Co737 2.047 . S
O745 C756 1.257 . S
O746 Co743 2.094 . S
O746 C757 1.253 . S
O747 Co738 2.063 . S
O747 C757 1.268 . S
O748 Co736 2.115 . S
O748 C758 1.281 . S
O749 Co736 2.315 . S
O749 C758 1.252 . S
O750 Co743 2.122 . S
O750 C759 1.272 . S
O751 Co737 2.113 . S
O751 C759 1.245 . S
C752 O760 1.259 . S
C752 O761 1.257 . S
C753 O762 1.268 . S
C753 O763 1.253 . S
C754 O764 1.281 . S
C754 O765 1.252 . S
C755 O766 1.272 . S
C755 O767 1.245 . S
C756 O744 1.259 . S
C756 O745 1.257 . S
C757 O746 1.253 . S
C757 O747 1.268 . S
C758 O748 1.281 . S
C758 O749 1.252 . S
C759 O750 1.272 . S
C759 O751 1.245 . S
O760 Co736 2.053 . S
O760 C752 1.259 . S
O761 Co738 2.047 . S
O761 C752 1.257 . S
O762 Co737 2.063 . S
O762 C753 1.268 . S
O763 Co736 2.094 . S
O763 C753 1.253 . S
O764 Co743 2.115 . S
O764 C754 1.281 . S
O765 Co743 2.315 . S
O765 C754 1.252 . S
O766 Co736 2.122 . S
O766 C755 1.272 . S
O767 Co738 2.113 . S
O767 C755 1.245 . S
Co768 H771 2.400 . S
Co768 O772 2.009 . S
Co768 O780 2.115 . S
Co768 O781 2.315 . S
Co768 O792 2.053 . S
Co768 O795 2.089 1_554 S
Co768 O798 2.122 1_554 S
Co769 O772 2.126 . S
Co769 H773 2.388 . S
Co769 O774 2.053 . S
Co769 O777 2.047 1_554 S
Co769 O783 2.113 . S
Co769 O794 2.063 . S
Co770 H771 2.388 . S
Co770 O772 2.053 . S
Co770 O774 2.126 . S
Co770 O779 2.063 . S
Co770 O793 2.047 . S
Co770 O799 2.113 1_554 S
H771 Co768 2.400 . S
H771 Co770 2.388 . S
H771 O772 0.760 . S
O772 Co768 2.009 . S
O772 Co769 2.126 . S
O772 Co770 2.053 . S
O772 H771 0.760 . S
H773 Co769 2.388 . S
H773 O774 0.760 . S
H773 Co775 2.400 . S
O774 Co769 2.053 . S
O774 Co770 2.126 . S
O774 H773 0.760 . S
O774 Co775 2.009 . S
Co775 H773 2.400 . S
Co775 O774 2.009 . S
Co775 O776 2.053 . S
Co775 O778 2.094 . S
Co775 O782 2.122 . S
Co775 O796 2.115 . S
Co775 O797 2.315 . S
O776 Co775 2.053 . S
O776 C788 1.259 . S
O777 Co769 2.047 1_556 S
O777 C788 1.257 1_556 S
O778 Co775 2.094 . S
O778 C789 1.253 . S
O779 Co770 2.063 . S
O779 C789 1.268 . S
O780 Co768 2.115 . S
O780 C790 1.281 . S
O781 Co768 2.315 . S
O781 C790 1.252 . S
O782 Co775 2.122 . S
O782 C791 1.272 . S
O783 Co769 2.113 . S
O783 C791 1.245 . S
C784 O792 1.259 . S
C784 O793 1.257 . S
C785 O794 1.268 . S
C785 O795 1.250 1_554 S
C786 O796 1.281 . S
C786 O797 1.252 . S
C787 O798 1.272 . S
C787 O799 1.245 . S
C788 O776 1.259 . S
C788 O777 1.257 1_554 S
C789 O778 1.253 . S
C789 O779 1.268 . S
C790 O780 1.281 . S
C790 O781 1.252 . S
C791 O782 1.272 . S
C791 O783 1.245 . S
O792 Co768 2.053 . S
O792 C784 1.259 . S
O793 Co770 2.047 . S
O793 C784 1.257 . S
O794 Co769 2.063 . S
O794 C785 1.268 . S
O795 Co768 2.089 1_556 S
O795 C785 1.250 1_556 S
O796 Co775 2.115 . S
O796 C786 1.281 . S
O797 Co775 2.315 . S
O797 C786 1.252 . S
O798 Co768 2.122 1_556 S
O798 C787 1.272 . S
O799 Co770 2.113 1_556 S
O799 C787 1.245 . S
Co800 H803 2.400 . S
Co800 O804 2.009 . S
Co800 O812 2.115 1_554 S
Co800 O813 2.315 . S
Co800 O824 2.053 . S
Co800 O827 2.094 1_554 S
Co800 O830 2.122 1_554 S
Co801 O804 2.126 . S
Co801 H805 2.388 . S
Co801 O806 2.053 . S
Co801 O809 2.047 . S
Co801 O815 2.113 . S
Co801 O826 2.063 . S
Co802 H803 2.388 . S
Co802 O804 2.053 . S
Co802 O806 2.126 . S
Co802 O811 2.063 . S
Co802 O825 2.047 . S
Co802 O831 2.113 . S
H803 Co800 2.400 . S
H803 Co802 2.388 . S
H803 O804 0.760 . S
O804 Co800 2.009 . S
O804 Co801 2.126 . S
O804 Co802 2.053 . S
O804 H803 0.760 . S
H805 Co801 2.388 . S
H805 O806 0.760 . S
H805 Co807 2.400 . S
O806 Co801 2.053 . S
O806 Co802 2.126 . S
O806 H805 0.760 . S
O806 Co807 2.009 . S
Co807 H805 2.400 . S
Co807 O806 2.009 . S
Co807 O808 2.053 . S
Co807 O810 2.094 . S
Co807 O814 2.122 . S
Co807 O828 2.115 . S
Co807 O829 2.315 . S
O808 Co807 2.053 . S
O808 C820 1.259 . S
O809 Co801 2.047 . S
O809 C820 1.257 . S
O810 Co807 2.094 . S
O810 C821 1.253 . S
O811 Co802 2.063 . S
O811 C821 1.268 . S
O812 Co800 2.115 1_556 S
O812 C822 1.281 1_556 S
O813 Co800 2.315 . S
O813 C822 1.252 . S
O814 Co807 2.122 . S
O814 C823 1.272 . S
O815 Co801 2.113 . S
O815 C823 1.245 . S
C816 O824 1.259 . S
C816 O825 1.257 . S
C817 O826 1.268 . S
C817 O827 1.253 1_554 S
C818 O828 1.281 . S
C818 O829 1.252 . S
C819 O830 1.272 . S
C819 O831 1.245 1_556 S
C820 O808 1.259 . S
C820 O809 1.257 . S
C821 O810 1.253 . S
C821 O811 1.268 . S
C822 O812 1.281 1_554 S
C822 O813 1.252 . S
C823 O814 1.272 . S
C823 O815 1.245 . S
O824 Co800 2.053 . S
O824 C816 1.259 . S
O825 Co802 2.047 . S
O825 C816 1.257 . S
O826 Co801 2.063 . S
O826 C817 1.268 . S
O827 Co800 2.094 1_556 S
O827 C817 1.253 1_556 S
O828 Co807 2.115 . S
O828 C818 1.281 . S
O829 Co807 2.315 . S
O829 C818 1.252 . S
O830 Co800 2.122 1_556 S
O830 C819 1.272 . S
O831 Co802 2.113 . S
O831 C819 1.245 1_554 S
Co832 H835 2.400 . S
Co832 O836 2.009 . S
Co832 O844 2.115 . S
Co832 O845 2.315 . S
Co832 O856 2.053 . S
Co832 O859 2.094 . S
Co832 O862 2.122 . S
Co833 O836 2.126 . S
Co833 H837 2.388 . S
Co833 O838 2.053 . S
Co833 O841 2.047 . S
Co833 O847 2.113 . S
Co833 O858 2.063 . S
Co834 H835 2.388 . S
Co834 O836 2.053 . S
Co834 O838 2.126 . S
Co834 O843 2.063 . S
Co834 O857 2.047 . S
Co834 O863 2.113 . S
H835 Co832 2.400 . S
H835 Co834 2.388 . S
H835 O836 0.760 . S
O836 Co832 2.009 . S
O836 Co833 2.126 . S
O836 Co834 2.053 . S
O836 H835 0.760 . S
H837 Co833 2.388 . S
H837 O838 0.760 . S
H837 Co839 2.400 . S
O838 Co833 2.053 . S
O838 Co834 2.126 . S
O838 H837 0.760 . S
O838 Co839 2.009 . S
Co839 H837 2.400 . S
Co839 O838 2.009 . S
Co839 O840 2.053 . S
Co839 O842 2.094 . S
Co839 O846 2.122 . S
Co839 O860 2.115 . S
Co839 O861 2.315 . S
O840 Co839 2.053 . S
O840 C852 1.259 . S
O841 Co833 2.047 . S
O841 C852 1.257 . S
O842 Co839 2.094 . S
O842 C853 1.253 . S
O843 Co834 2.063 . S
O843 C853 1.268 . S
O844 Co832 2.115 . S
O844 C854 1.281 . S
O845 Co832 2.315 . S
O845 C854 1.252 . S
O846 Co839 2.122 . S
O846 C855 1.272 . S
O847 Co833 2.113 . S
O847 C855 1.245 . S
C848 O856 1.259 . S
C848 O857 1.257 . S
C849 O858 1.268 . S
C849 O859 1.253 . S
C850 O860 1.281 . S
C850 O861 1.252 . S
C851 O862 1.272 . S
C851 O863 1.245 . S
C852 O840 1.259 . S
C852 O841 1.257 . S
C853 O842 1.253 . S
C853 O843 1.268 . S
C854 O844 1.281 . S
C854 O845 1.252 . S
C855 O846 1.272 . S
C855 O847 1.245 . S
O856 Co832 2.053 . S
O856 C848 1.259 . S
O857 Co834 2.047 . S
O857 C848 1.257 . S
O858 Co833 2.063 . S
O858 C849 1.268 . S
O859 Co832 2.094 . S
O859 C849 1.253 . S
O860 Co839 2.115 . S
O860 C850 1.281 . S
O861 Co839 2.315 . S
O861 C850 1.252 . S
O862 Co832 2.122 . S
O862 C851 1.272 . S
O863 Co834 2.113 . S
O863 C851 1.245 . S
Co864 H867 2.400 . S
Co864 O868 2.009 . S
Co864 O876 2.115 . S
Co864 O877 2.315 . S
Co864 O888 2.053 . S
Co864 O891 2.094 . S
Co864 O894 2.122 . S
Co865 O868 2.126 . S
Co865 H869 2.388 . S
Co865 O870 2.053 . S
Co865 O873 2.047 . S
Co865 O879 2.113 . S
Co865 O890 2.063 . S
Co866 H867 2.388 . S
Co866 O868 2.053 . S
Co866 O870 2.126 . S
Co866 O875 2.063 . S
Co866 O889 2.047 . S
Co866 O895 2.113 . S
H867 Co864 2.400 . S
H867 Co866 2.388 . S
H867 O868 0.760 . S
O868 Co864 2.009 . S
O868 Co865 2.126 . S
O868 Co866 2.053 . S
O868 H867 0.760 . S
H869 Co865 2.388 . S
H869 O870 0.760 . S
H869 Co871 2.400 . S
O870 Co865 2.053 . S
O870 Co866 2.126 . S
O870 H869 0.760 . S
O870 Co871 2.009 . S
Co871 H869 2.400 . S
Co871 O870 2.009 . S
Co871 O872 2.053 . S
Co871 O874 2.094 . S
Co871 O878 2.122 . S
Co871 O892 2.115 . S
Co871 O893 2.315 . S
O872 Co871 2.053 . S
O872 C884 1.259 . S
O873 Co865 2.047 . S
O873 C884 1.257 . S
O874 Co871 2.094 . S
O874 C885 1.253 . S
O875 Co866 2.063 . S
O875 C885 1.268 . S
O876 Co864 2.115 . S
O876 C886 1.281 . S
O877 Co864 2.315 . S
O877 C886 1.252 . S
O878 Co871 2.122 . S
O878 C887 1.272 . S
O879 Co865 2.113 . S
O879 C887 1.245 . S
C880 O888 1.259 . S
C880 O889 1.257 . S
C881 O890 1.268 . S
C881 O891 1.253 . S
C882 O892 1.281 . S
C882 O893 1.252 . S
C883 O894 1.272 . S
C883 O895 1.245 . S
C884 O872 1.259 . S
C884 O873 1.257 . S
C885 O874 1.253 . S
C885 O875 1.268 . S
C886 O876 1.281 . S
C886 O877 1.252 . S
C887 O878 1.272 . S
C887 O879 1.245 . S
O888 Co864 2.053 . S
O888 C880 1.259 . S
O889 Co866 2.047 . S
O889 C880 1.257 . S
O890 Co865 2.063 . S
O890 C881 1.268 . S
O891 Co864 2.094 . S
O891 C881 1.253 . S
O892 Co871 2.115 . S
O892 C882 1.281 . S
O893 Co871 2.315 . S
O893 C882 1.252 . S
O894 Co864 2.122 . S
O894 C883 1.272 . S
O895 Co866 2.113 . S
O895 C883 1.245 . S
Co896 H899 2.400 . S
Co896 O900 2.009 . S
Co896 O908 2.115 . S
Co896 O909 2.315 . S
Co896 O920 2.053 . S
Co896 O923 2.094 . S
Co896 O926 2.122 . S
Co897 O900 2.126 . S
Co897 H901 2.388 . S
Co897 O902 2.053 . S
Co897 O905 2.047 . S
Co897 O911 2.113 1_556 S
Co897 O922 2.063 . S
Co898 H899 2.388 . S
Co898 O900 2.053 . S
Co898 O902 2.126 . S
Co898 O907 2.063 . S
Co898 O921 2.047 1_556 S
Co898 O927 2.113 . S
H899 Co896 2.400 . S
H899 Co898 2.388 . S
H899 O900 0.760 . S
O900 Co896 2.009 . S
O900 Co897 2.126 . S
O900 Co898 2.053 . S
O900 H899 0.760 . S
H901 Co897 2.388 . S
H901 O902 0.760 . S
H901 Co903 2.400 . S
O902 Co897 2.053 . S
O902 Co898 2.126 . S
O902 H901 0.760 . S
O902 Co903 2.009 . S
Co903 H901 2.400 . S
Co903 O902 2.009 . S
Co903 O904 2.053 . S
Co903 O906 2.089 1_556 S
Co903 O910 2.122 1_556 S
Co903 O924 2.115 . S
Co903 O925 2.315 . S
O904 Co903 2.053 . S
O904 C916 1.259 . S
O905 Co897 2.047 . S
O905 C916 1.257 . S
O906 Co903 2.089 1_554 S
O906 C917 1.250 1_554 S
O907 Co898 2.063 . S
O907 C917 1.268 . S
O908 Co896 2.115 . S
O908 C918 1.281 . S
O909 Co896 2.315 . S
O909 C918 1.252 . S
O910 Co903 2.122 1_554 S
O910 C919 1.272 . S
O911 Co897 2.113 1_554 S
O911 C919 1.245 . S
C912 O920 1.259 . S
C912 O921 1.257 1_556 S
C913 O922 1.268 . S
C913 O923 1.253 . S
C914 O924 1.281 . S
C914 O925 1.252 . S
C915 O926 1.272 . S
C915 O927 1.245 . S
C916 O904 1.259 . S
C916 O905 1.257 . S
C917 O906 1.250 1_556 S
C917 O907 1.268 . S
C918 O908 1.281 . S
C918 O909 1.252 . S
C919 O910 1.272 . S
C919 O911 1.245 . S
O920 Co896 2.053 . S
O920 C912 1.259 . S
O921 Co898 2.047 1_554 S
O921 C912 1.257 1_554 S
O922 Co897 2.063 . S
O922 C913 1.268 . S
O923 Co896 2.094 . S
O923 C913 1.253 . S
O924 Co903 2.115 . S
O924 C914 1.281 . S
O925 Co903 2.315 . S
O925 C914 1.252 . S
O926 Co896 2.122 . S
O926 C915 1.272 . S
O927 Co898 2.113 . S
O927 C915 1.245 . S
Co928 H931 2.400 . S
Co928 O932 2.009 . S
Co928 O940 2.115 . S
Co928 O941 2.315 . S
Co928 O952 2.053 . S
Co928 O955 2.094 . S
Co928 O958 2.122 . S
Co929 O932 2.126 . S
Co929 H933 2.388 . S
Co929 O934 2.053 . S
Co929 O937 2.047 . S
Co929 O943 2.113 . S
Co929 O954 2.063 . S
Co930 H931 2.388 . S
Co930 O932 2.053 . S
Co930 O934 2.126 . S
Co930 O939 2.063 . S
Co930 O953 2.047 . S
Co930 O959 2.113 . S
H931 Co928 2.400 . S
H931 Co930 2.388 . S
H931 O932 0.760 . S
O932 Co928 2.009 . S
O932 Co929 2.126 . S
O932 Co930 2.053 . S
O932 H931 0.760 . S
H933 Co929 2.388 . S
H933 O934 0.760 . S
H933 Co935 2.400 . S
O934 Co929 2.053 . S
O934 Co930 2.126 . S
O934 H933 0.760 . S
O934 Co935 2.009 . S
Co935 H933 2.400 . S
Co935 O934 2.009 . S
Co935 O936 2.053 . S
Co935 O938 2.094 1_556 S
Co935 O942 2.122 1_556 S
Co935 O956 2.115 1_556 S
Co935 O957 2.315 . S
O936 Co935 2.053 . S
O936 C948 1.259 . S
O937 Co929 2.047 . S
O937 C948 1.257 . S
O938 Co935 2.094 1_554 S
O938 C949 1.253 1_554 S
O939 Co930 2.063 . S
O939 C949 1.268 . S
O940 Co928 2.115 . S
O940 C950 1.281 . S
O941 Co928 2.315 . S
O941 C950 1.252 . S
O942 Co935 2.122 1_554 S
O942 C951 1.272 . S
O943 Co929 2.113 . S
O943 C951 1.245 1_556 S
C944 O952 1.259 . S
C944 O953 1.257 . S
C945 O954 1.268 . S
C945 O955 1.253 . S
C946 O956 1.281 1_556 S
C946 O957 1.252 . S
C947 O958 1.272 . S
C947 O959 1.245 . S
C948 O936 1.259 . S
C948 O937 1.257 . S
C949 O938 1.253 1_556 S
C949 O939 1.268 . S
C950 O940 1.281 . S
C950 O941 1.252 . S
C951 O942 1.272 . S
C951 O943 1.245 1_554 S
O952 Co928 2.053 . S
O952 C944 1.259 . S
O953 Co930 2.047 . S
O953 C944 1.257 . S
O954 Co929 2.063 . S
O954 C945 1.268 . S
O955 Co928 2.094 . S
O955 C945 1.253 . S
O956 Co935 2.115 1_554 S
O956 C946 1.281 1_554 S
O957 Co935 2.315 . S
O957 C946 1.252 . S
O958 Co928 2.122 . S
O958 C947 1.272 . S
O959 Co930 2.113 . S
O959 C947 1.245 . S
Co960 H963 2.400 . S
Co960 O964 2.009 . S
Co960 O972 2.115 . S
Co960 O973 2.315 . S
Co960 O984 2.053 . S
Co960 O987 2.094 . S
Co960 O990 2.122 . S
Co961 O964 2.126 . S
Co961 H965 2.388 . S
Co961 O966 2.053 . S
Co961 O969 2.047 . S
Co961 O975 2.113 . S
Co961 O986 2.063 . S
Co962 H963 2.388 . S
Co962 O964 2.053 . S
Co962 O966 2.126 . S
Co962 O971 2.063 . S
Co962 O985 2.047 . S
Co962 O991 2.113 . S
H963 Co960 2.400 . S
H963 Co962 2.388 . S
H963 O964 0.760 . S
O964 Co960 2.009 . S
O964 Co961 2.126 . S
O964 Co962 2.053 . S
O964 H963 0.760 . S
H965 Co961 2.388 . S
H965 O966 0.760 . S
H965 Co967 2.400 . S
O966 Co961 2.053 . S
O966 Co962 2.126 . S
O966 H965 0.760 . S
O966 Co967 2.009 . S
Co967 H965 2.400 . S
Co967 O966 2.009 . S
Co967 O968 2.053 . S
Co967 O970 2.094 . S
Co967 O974 2.122 . S
Co967 O988 2.115 . S
Co967 O989 2.315 . S
O968 Co967 2.053 . S
O968 C980 1.259 . S
O969 Co961 2.047 . S
O969 C980 1.257 . S
O970 Co967 2.094 . S
O970 C981 1.253 . S
O971 Co962 2.063 . S
O971 C981 1.268 . S
O972 Co960 2.115 . S
O972 C982 1.281 . S
O973 Co960 2.315 . S
O973 C982 1.252 . S
O974 Co967 2.122 . S
O974 C983 1.272 . S
O975 Co961 2.113 . S
O975 C983 1.245 . S
C976 O984 1.259 . S
C976 O985 1.257 . S
C977 O986 1.268 . S
C977 O987 1.253 . S
C978 O988 1.281 . S
C978 O989 1.252 . S
C979 O990 1.272 . S
C979 O991 1.245 . S
C980 O968 1.259 . S
C980 O969 1.257 . S
C981 O970 1.253 . S
C981 O971 1.268 . S
C982 O972 1.281 . S
C982 O973 1.252 . S
C983 O974 1.272 . S
C983 O975 1.245 . S
O984 Co960 2.053 . S
O984 C976 1.259 . S
O985 Co962 2.047 . S
O985 C976 1.257 . S
O986 Co961 2.063 . S
O986 C977 1.268 . S
O987 Co960 2.094 . S
O987 C977 1.253 . S
O988 Co967 2.115 . S
O988 C978 1.281 . S
O989 Co967 2.315 . S
O989 C978 1.252 . S
O990 Co960 2.122 . S
O990 C979 1.272 . S
O991 Co962 2.113 . S
O991 C979 1.245 . S
Co992 H995 2.400 . S
Co992 O996 2.009 . S
Co992 O1004 2.115 . S
Co992 O1005 2.315 . S
Co992 O1016 2.053 . S
Co992 O1019 2.094 . S
Co992 O1022 2.122 . S
Co993 O996 2.126 . S
Co993 H997 2.388 . S
Co993 O998 2.053 . S
Co993 O1001 2.047 . S
Co993 O1007 2.113 . S
Co993 O1018 2.063 . S
Co994 H995 2.388 . S
Co994 O996 2.053 . S
Co994 O998 2.126 . S
Co994 O1003 2.063 . S
Co994 O1017 2.047 . S
Co994 O1023 2.113 . S
H995 Co992 2.400 . S
H995 Co994 2.388 . S
H995 O996 0.760 . S
O996 Co992 2.009 . S
O996 Co993 2.126 . S
O996 Co994 2.053 . S
O996 H995 0.760 . S
H997 Co993 2.388 . S
H997 O998 0.760 . S
H997 Co999 2.400 . S
O998 Co993 2.053 . S
O998 Co994 2.126 . S
O998 H997 0.760 . S
O998 Co999 2.009 . S
Co999 H997 2.400 . S
Co999 O998 2.009 . S
Co999 O1000 2.053 . S
Co999 O1002 2.094 . S
Co999 O1006 2.122 . S
Co999 O1020 2.115 . S
Co999 O1021 2.315 . S
O1000 Co999 2.053 . S
O1000 C1012 1.259 . S
O1001 Co993 2.047 . S
O1001 C1012 1.257 . S
O1002 Co999 2.094 . S
O1002 C1013 1.253 . S
O1003 Co994 2.063 . S
O1003 C1013 1.268 . S
O1004 Co992 2.115 . S
O1004 C1014 1.281 . S
O1005 Co992 2.315 . S
O1005 C1014 1.252 . S
O1006 Co999 2.122 . S
O1006 C1015 1.272 . S
O1007 Co993 2.113 . S
O1007 C1015 1.245 . S
C1008 O1016 1.259 . S
C1008 O1017 1.257 . S
C1009 O1018 1.268 . S
C1009 O1019 1.253 . S
C1010 O1020 1.281 . S
C1010 O1021 1.252 . S
C1011 O1022 1.272 . S
C1011 O1023 1.245 . S
C1012 O1000 1.259 . S
C1012 O1001 1.257 . S
C1013 O1002 1.253 . S
C1013 O1003 1.268 . S
C1014 O1004 1.281 . S
C1014 O1005 1.252 . S
C1015 O1006 1.272 . S
C1015 O1007 1.245 . S
O1016 Co992 2.053 . S
O1016 C1008 1.259 . S
O1017 Co994 2.047 . S
O1017 C1008 1.257 . S
O1018 Co993 2.063 . S
O1018 C1009 1.268 . S
O1019 Co992 2.094 . S
O1019 C1009 1.253 . S
O1020 Co999 2.115 . S
O1020 C1010 1.281 . S
O1021 Co999 2.315 . S
O1021 C1010 1.252 . S
O1022 Co992 2.122 . S
O1022 C1011 1.272 . S
O1023 Co994 2.113 . S
O1023 C1011 1.245 . S
H1024 C1032 0.949 1_556 S
H1025 C1037 0.950 . S
H1026 C1034 0.950 1_556 S
H1027 C1036 0.950 . S
H1028 C1038 0.950 . S
H1029 C1040 0.950 . S
H1030 C1042 0.950 . S
H1031 C1043 0.950 . S
C1032 H1024 0.949 1_554 S
C1032 C1033 1.390 . S
C1032 C1034 1.388 . S
C1033 C1032 1.390 . S
C1033 C1037 1.393 . S
C1034 H1026 0.950 1_554 S
C1034 C1032 1.388 . S
C1034 C1035 1.400 . S
C1035 C1034 1.400 . S
C1035 C1036 1.398 . S
C1035 C1041 1.491 . S
C1036 H1027 0.950 . S
C1036 C1035 1.398 . S
C1036 C1037 1.391 . S
C1037 H1025 0.950 . S
C1037 C1033 1.393 . S
C1037 C1036 1.391 . S
C1038 H1028 0.950 . S
C1038 C1039 1.388 . S
C1038 C1040 1.391 . S
C1039 C1038 1.388 . S
C1039 C1043 1.392 1_554 S
C1040 H1029 0.950 . S
C1040 C1038 1.391 . S
C1040 C1041 1.400 . S
C1041 C1035 1.491 . S
C1041 C1040 1.400 . S
C1041 C1042 1.398 1_554 S
C1042 H1030 0.950 . S
C1042 C1041 1.398 1_556 S
C1042 C1043 1.391 . S
C1043 H1031 0.950 . S
C1043 C1039 1.392 1_556 S
C1043 C1042 1.391 . S
H1044 C1052 0.950 . S
H1045 C1057 0.950 . S
H1046 C1054 0.950 . S
H1047 C1056 0.950 . S
H1048 C1058 0.950 . S
H1049 C1060 0.950 . S
H1050 C1062 0.950 . S
H1051 C1063 0.950 . S
C1052 H1044 0.950 . S
C1052 C1053 1.386 . S
C1052 C1054 1.391 . S
C1053 C1052 1.386 . S
C1053 C1057 1.393 1_554 S
C1054 H1046 0.950 . S
C1054 C1052 1.391 . S
C1054 C1055 1.400 . S
C1055 C1054 1.400 . S
C1055 C1056 1.398 1_554 S
C1055 C1061 1.491 . S
C1056 H1047 0.950 . S
C1056 C1055 1.398 1_556 S
C1056 C1057 1.391 . S
C1057 H1045 0.950 . S
C1057 C1053 1.393 1_556 S
C1057 C1056 1.391 . S
C1058 H1048 0.950 . S
C1058 C1059 1.383 1_556 S
C1058 C1060 1.391 . S
C1059 C1058 1.383 1_554 S
C1059 C1063 1.398 . S
C1060 H1049 0.950 . S
C1060 C1058 1.391 . S
C1060 C1061 1.400 1_556 S
C1061 C1055 1.491 . S
C1061 C1060 1.400 1_554 S
C1061 C1062 1.398 . S
C1062 H1050 0.950 . S
C1062 C1061 1.398 . S
C1062 C1063 1.391 . S
C1063 H1051 0.950 . S
C1063 C1059 1.398 . S
C1063 C1062 1.391 . S
H1064 C1072 0.950 . S
H1065 C1077 0.950 . S
H1066 C1074 0.950 . S
H1067 C1076 0.950 . S
H1068 C1078 0.950 . S
H1069 C1080 0.950 . S
H1070 C1082 0.950 . S
H1071 C1083 0.950 . S
C1072 H1064 0.950 . S
C1072 C1073 1.386 . S
C1072 C1074 1.391 . S
C1073 C1072 1.386 . S
C1073 C1077 1.393 . S
C1074 H1066 0.950 . S
C1074 C1072 1.391 . S
C1074 C1075 1.400 . S
C1075 C1074 1.400 . S
C1075 C1076 1.398 . S
C1075 C1081 1.491 . S
C1076 H1067 0.950 . S
C1076 C1075 1.398 . S
C1076 C1077 1.391 . S
C1077 H1065 0.950 . S
C1077 C1073 1.393 . S
C1077 C1076 1.391 . S
C1078 H1068 0.950 . S
C1078 C1079 1.386 . S
C1078 C1080 1.391 . S
C1079 C1078 1.386 . S
C1079 C1083 1.393 . S
C1080 H1069 0.950 . S
C1080 C1078 1.391 . S
C1080 C1081 1.400 . S
C1081 C1075 1.491 . S
C1081 C1080 1.400 . S
C1081 C1082 1.398 . S
C1082 H1070 0.950 . S
C1082 C1081 1.398 . S
C1082 C1083 1.391 . S
C1083 H1071 0.950 . S
C1083 C1079 1.393 . S
C1083 C1082 1.391 . S
H1084 C1092 0.950 . S
H1085 C1097 0.950 . S
H1086 C1094 0.950 . S
H1087 C1096 0.950 . S
H1088 C1098 0.950 . S
H1089 C1100 0.950 . S
H1090 C1102 0.950 . S
H1091 C1103 0.950 . S
C1092 H1084 0.950 . S
C1092 C1093 1.386 . S
C1092 C1094 1.391 . S
C1093 C1092 1.386 . S
C1093 C1097 1.393 . S
C1094 H1086 0.950 . S
C1094 C1092 1.391 . S
C1094 C1095 1.400 . S
C1095 C1094 1.400 . S
C1095 C1096 1.398 . S
C1095 C1101 1.491 . S
C1096 H1087 0.950 . S
C1096 C1095 1.398 . S
C1096 C1097 1.391 . S
C1097 H1085 0.950 . S
C1097 C1093 1.393 . S
C1097 C1096 1.391 . S
C1098 H1088 0.950 . S
C1098 C1099 1.386 . S
C1098 C1100 1.391 . S
C1099 C1098 1.386 . S
C1099 C1103 1.393 . S
C1100 H1089 0.950 . S
C1100 C1098 1.391 . S
C1100 C1101 1.400 . S
C1101 C1095 1.491 . S
C1101 C1100 1.400 . S
C1101 C1102 1.398 . S
C1102 H1090 0.950 . S
C1102 C1101 1.398 . S
C1102 C1103 1.391 . S
C1103 H1091 0.950 . S
C1103 C1099 1.393 . S
C1103 C1102 1.391 . S
H1104 C1112 0.950 . S
H1105 C1117 0.950 . S
H1106 C1114 0.952 . S
H1107 C1116 0.950 . S
H1108 C1118 0.950 . S
H1109 C1120 0.950 . S
H1110 C1122 0.950 . S
H1111 C1123 0.950 1_554 S
C1112 H1104 0.950 . S
C1112 C1113 1.383 1_554 S
C1112 C1114 1.392 . S
C1113 C1112 1.383 1_556 S
C1113 C1117 1.393 . S
C1114 H1106 0.952 . S
C1114 C1112 1.392 . S
C1114 C1115 1.400 1_554 S
C1115 C1114 1.400 1_556 S
C1115 C1116 1.398 . S
C1115 C1121 1.491 . S
C1116 H1107 0.950 . S
C1116 C1115 1.398 . S
C1116 C1117 1.391 . S
C1117 H1105 0.950 . S
C1117 C1113 1.393 . S
C1117 C1116 1.391 . S
C1118 H1108 0.950 . S
C1118 C1119 1.386 . S
C1118 C1120 1.391 . S
C1119 C1118 1.386 . S
C1119 C1123 1.393 . S
C1120 H1109 0.950 . S
C1120 C1118 1.391 . S
C1120 C1121 1.400 . S
C1121 C1115 1.491 . S
C1121 C1120 1.400 . S
C1121 C1122 1.398 . S
C1122 H1110 0.950 . S
C1122 C1121 1.398 . S
C1122 C1123 1.391 . S
C1123 H1111 0.950 1_556 S
C1123 C1119 1.393 . S
C1123 C1122 1.391 . S
H1124 C1132 0.950 . S
H1125 C1137 0.950 . S
H1126 C1134 0.950 . S
H1127 C1136 0.950 . S
H1128 C1138 0.950 . S
H1129 C1140 0.950 . S
H1130 C1142 0.950 . S
H1131 C1143 0.950 . S
C1132 H1124 0.950 . S
C1132 C1133 1.386 . S
C1132 C1134 1.391 . S
C1133 C1132 1.386 . S
C1133 C1137 1.393 1_556 S
C1134 H1126 0.950 . S
C1134 C1132 1.391 . S
C1134 C1135 1.400 . S
C1135 C1134 1.400 . S
C1135 C1136 1.398 1_556 S
C1135 C1141 1.491 . S
C1136 H1127 0.950 . S
C1136 C1135 1.398 1_554 S
C1136 C1137 1.391 . S
C1137 H1125 0.950 . S
C1137 C1133 1.393 1_554 S
C1137 C1136 1.391 . S
C1138 H1128 0.950 . S
C1138 C1139 1.386 1_554 S
C1138 C1140 1.391 . S
C1139 C1138 1.386 1_556 S
C1139 C1143 1.393 . S
C1140 H1129 0.950 . S
C1140 C1138 1.391 . S
C1140 C1141 1.400 1_554 S
C1141 C1135 1.491 . S
C1141 C1140 1.400 1_556 S
C1141 C1142 1.398 . S
C1142 H1130 0.950 . S
C1142 C1141 1.398 . S
C1142 C1143 1.391 . S
C1143 H1131 0.950 . S
C1143 C1139 1.393 . S
C1143 C1142 1.391 . S
H1144 C1152 0.950 . S
H1145 C1157 0.950 . S
H1146 C1154 0.950 . S
H1147 C1156 0.950 . S
H1148 C1158 0.950 . S
H1149 C1160 0.950 . S
H1150 C1162 0.950 . S
H1151 C1163 0.950 . S
C1152 H1144 0.950 . S
C1152 C1153 1.386 . S
C1152 C1154 1.391 . S
C1153 C1152 1.386 . S
C1153 C1157 1.393 . S
C1154 H1146 0.950 . S
C1154 C1152 1.391 . S
C1154 C1155 1.400 . S
C1155 C1154 1.400 . S
C1155 C1156 1.398 . S
C1155 C1161 1.491 . S
C1156 H1147 0.950 . S
C1156 C1155 1.398 . S
C1156 C1157 1.391 . S
C1157 H1145 0.950 . S
C1157 C1153 1.393 . S
C1157 C1156 1.391 . S
C1158 H1148 0.950 . S
C1158 C1159 1.386 . S
C1158 C1160 1.391 . S
C1159 C1158 1.386 . S
C1159 C1163 1.393 . S
C1160 H1149 0.950 . S
C1160 C1158 1.391 . S
C1160 C1161 1.400 . S
C1161 C1155 1.491 . S
C1161 C1160 1.400 . S
C1161 C1162 1.398 . S
C1162 H1150 0.950 . S
C1162 C1161 1.398 . S
C1162 C1163 1.391 . S
C1163 H1151 0.950 . S
C1163 C1159 1.393 . S
C1163 C1162 1.391 . S
H1164 C1172 0.950 . S
H1165 C1177 0.950 . S
H1166 C1174 0.950 . S
H1167 C1176 0.950 . S
H1168 C1178 0.950 . S
H1169 C1180 0.950 . S
H1170 C1182 0.950 . S
H1171 C1183 0.950 . S
C1172 H1164 0.950 . S
C1172 C1173 1.386 . S
C1172 C1174 1.391 . S
C1173 C1172 1.386 . S
C1173 C1177 1.393 . S
C1174 H1166 0.950 . S
C1174 C1172 1.391 . S
C1174 C1175 1.400 . S
C1175 C1174 1.400 . S
C1175 C1176 1.398 . S
C1175 C1181 1.491 . S
C1176 H1167 0.950 . S
C1176 C1175 1.398 . S
C1176 C1177 1.391 . S
C1177 H1165 0.950 . S
C1177 C1173 1.393 . S
C1177 C1176 1.391 . S
C1178 H1168 0.950 . S
C1178 C1179 1.386 . S
C1178 C1180 1.391 . S
C1179 C1178 1.386 . S
C1179 C1183 1.393 . S
C1180 H1169 0.950 . S
C1180 C1178 1.391 . S
C1180 C1181 1.400 . S
C1181 C1175 1.491 . S
C1181 C1180 1.400 . S
C1181 C1182 1.398 . S
C1182 H1170 0.950 . S
C1182 C1181 1.398 . S
C1182 C1183 1.391 . S
C1183 H1171 0.950 . S
C1183 C1179 1.393 . S
C1183 C1182 1.391 . S
H1184 C1192 0.950 . S
H1185 C1197 0.950 . S
H1186 C1194 0.950 . S
H1187 C1196 0.950 . S
H1188 C1198 0.950 . S
H1189 C1200 0.950 . S
H1190 C1202 0.950 . S
H1191 C1203 0.950 . S
C1192 H1184 0.950 . S
C1192 C1193 1.386 . S
C1192 C1194 1.391 . S
C1193 C1192 1.386 . S
C1193 C1197 1.393 . S
C1194 H1186 0.950 . S
C1194 C1192 1.391 . S
C1194 C1195 1.400 . S
C1195 C1194 1.400 . S
C1195 C1196 1.398 . S
C1195 C1201 1.491 . S
C1196 H1187 0.950 . S
C1196 C1195 1.398 . S
C1196 C1197 1.391 . S
C1197 H1185 0.950 . S
C1197 C1193 1.393 . S
C1197 C1196 1.391 . S
C1198 H1188 0.950 . S
C1198 C1199 1.386 . S
C1198 C1200 1.391 . S
C1199 C1198 1.386 . S
C1199 C1203 1.393 . S
C1200 H1189 0.950 . S
C1200 C1198 1.391 . S
C1200 C1201 1.400 . S
C1201 C1195 1.491 . S
C1201 C1200 1.400 . S
C1201 C1202 1.398 . S
C1202 H1190 0.950 . S
C1202 C1201 1.398 . S
C1202 C1203 1.391 . S
C1203 H1191 0.950 . S
C1203 C1199 1.393 . S
C1203 C1202 1.391 . S
H1204 C1212 0.950 . S
H1205 C1217 0.950 . S
H1206 C1214 0.950 . S
H1207 C1216 0.950 . S
H1208 C1218 0.950 . S
H1209 C1220 0.950 . S
H1210 C1222 0.950 . S
H1211 C1223 0.950 . S
C1212 H1204 0.950 . S
C1212 C1213 1.386 . S
C1212 C1214 1.391 . S
C1213 C1212 1.386 . S
C1213 C1217 1.393 . S
C1214 H1206 0.950 . S
C1214 C1212 1.391 . S
C1214 C1215 1.400 . S
C1215 C1214 1.400 . S
C1215 C1216 1.398 . S
C1215 C1221 1.491 . S
C1216 H1207 0.950 . S
C1216 C1215 1.398 . S
C1216 C1217 1.391 . S
C1217 H1205 0.950 . S
C1217 C1213 1.393 . S
C1217 C1216 1.391 . S
C1218 H1208 0.950 . S
C1218 C1219 1.386 . S
C1218 C1220 1.391 . S
C1219 C1218 1.386 . S
C1219 C1223 1.393 . S
C1220 H1209 0.950 . S
C1220 C1218 1.391 . S
C1220 C1221 1.400 . S
C1221 C1215 1.491 . S
C1221 C1220 1.400 . S
C1221 C1222 1.398 . S
C1222 H1210 0.950 . S
C1222 C1221 1.398 . S
C1222 C1223 1.391 . S
C1223 H1211 0.950 . S
C1223 C1219 1.393 . S
C1223 C1222 1.391 . S
H1224 C1232 0.950 . S
H1225 C1237 0.950 . S
H1226 C1234 0.950 . S
H1227 C1236 0.950 . S
H1228 C1238 0.950 . S
H1229 C1240 0.950 . S
H1230 C1242 0.950 . S
H1231 C1243 0.950 . S
C1232 H1224 0.950 . S
C1232 C1233 1.386 . S
C1232 C1234 1.391 . S
C1233 C1232 1.386 . S
C1233 C1237 1.393 . S
C1234 H1226 0.950 . S
C1234 C1232 1.391 . S
C1234 C1235 1.400 . S
C1235 C1234 1.400 . S
C1235 C1236 1.398 . S
C1235 C1241 1.491 . S
C1236 H1227 0.950 . S
C1236 C1235 1.398 . S
C1236 C1237 1.391 . S
C1237 H1225 0.950 . S
C1237 C1233 1.393 . S
C1237 C1236 1.391 . S
C1238 H1228 0.950 . S
C1238 C1239 1.386 . S
C1238 C1240 1.391 . S
C1239 C1238 1.386 . S
C1239 C1243 1.393 . S
C1240 H1229 0.950 . S
C1240 C1238 1.391 . S
C1240 C1241 1.400 . S
C1241 C1235 1.491 . S
C1241 C1240 1.400 . S
C1241 C1242 1.398 . S
C1242 H1230 0.950 . S
C1242 C1241 1.398 . S
C1242 C1243 1.391 . S
C1243 H1231 0.950 . S
C1243 C1239 1.393 . S
C1243 C1242 1.391 . S
H1244 C1252 0.950 . S
H1245 C1257 0.950 . S
H1246 C1254 0.950 . S
H1247 C1256 0.950 . S
H1248 C1258 0.950 . S
H1249 C1260 0.950 . S
H1250 C1262 0.950 . S
H1251 C1263 0.950 . S
C1252 H1244 0.950 . S
C1252 C1253 1.386 . S
C1252 C1254 1.391 . S
C1253 C1252 1.386 . S
C1253 C1257 1.393 . S
C1254 H1246 0.950 . S
C1254 C1252 1.391 . S
C1254 C1255 1.400 . S
C1255 C1254 1.400 . S
C1255 C1256 1.398 . S
C1255 C1261 1.491 . S
C1256 H1247 0.950 . S
C1256 C1255 1.398 . S
C1256 C1257 1.391 . S
C1257 H1245 0.950 . S
C1257 C1253 1.393 . S
C1257 C1256 1.391 . S
C1258 H1248 0.950 . S
C1258 C1259 1.386 . S
C1258 C1260 1.391 . S
C1259 C1258 1.386 . S
C1259 C1263 1.393 . S
C1260 H1249 0.950 . S
C1260 C1258 1.391 . S
C1260 C1261 1.400 . S
C1261 C1255 1.491 . S
C1261 C1260 1.400 . S
C1261 C1262 1.398 . S
C1262 H1250 0.950 . S
C1262 C1261 1.398 . S
C1262 C1263 1.391 . S
C1263 H1251 0.950 . S
C1263 C1259 1.393 . S
C1263 C1262 1.391 . S
H1264 C1272 0.950 . S
H1265 C1277 0.950 . S
H1266 C1274 0.950 . S
H1267 C1276 0.950 . S
H1268 C1278 0.950 . S
H1269 C1280 0.950 . S
H1270 C1282 0.950 . S
H1271 C1283 0.950 . S
C1272 H1264 0.950 . S
C1272 C1273 1.386 . S
C1272 C1274 1.391 . S
C1273 C1272 1.386 . S
C1273 C1277 1.393 . S
C1274 H1266 0.950 . S
C1274 C1272 1.391 . S
C1274 C1275 1.400 . S
C1275 C1274 1.400 . S
C1275 C1276 1.398 . S
C1275 C1281 1.491 . S
C1276 H1267 0.950 . S
C1276 C1275 1.398 . S
C1276 C1277 1.391 . S
C1277 H1265 0.950 . S
C1277 C1273 1.393 . S
C1277 C1276 1.391 . S
C1278 H1268 0.950 . S
C1278 C1279 1.386 . S
C1278 C1280 1.391 . S
C1279 C1278 1.386 . S
C1279 C1283 1.393 . S
C1280 H1269 0.950 . S
C1280 C1278 1.391 . S
C1280 C1281 1.400 . S
C1281 C1275 1.491 . S
C1281 C1280 1.400 . S
C1281 C1282 1.398 . S
C1282 H1270 0.950 . S
C1282 C1281 1.398 . S
C1282 C1283 1.391 . S
C1283 H1271 0.950 . S
C1283 C1279 1.393 . S
C1283 C1282 1.391 . S
H1284 C1292 0.950 . S
H1285 C1297 0.950 . S
H1286 C1294 0.950 . S
H1287 C1296 0.950 . S
H1288 C1298 0.950 . S
H1289 C1300 0.950 . S
H1290 C1302 0.950 . S
H1291 C1303 0.950 . S
C1292 H1284 0.950 . S
C1292 C1293 1.386 . S
C1292 C1294 1.391 . S
C1293 C1292 1.386 . S
C1293 C1297 1.393 . S
C1294 H1286 0.950 . S
C1294 C1292 1.391 . S
C1294 C1295 1.400 . S
C1295 C1294 1.400 . S
C1295 C1296 1.398 . S
C1295 C1301 1.491 . S
C1296 H1287 0.950 . S
C1296 C1295 1.398 . S
C1296 C1297 1.391 . S
C1297 H1285 0.950 . S
C1297 C1293 1.393 . S
C1297 C1296 1.391 . S
C1298 H1288 0.950 . S
C1298 C1299 1.386 . S
C1298 C1300 1.391 . S
C1299 C1298 1.386 . S
C1299 C1303 1.393 . S
C1300 H1289 0.950 . S
C1300 C1298 1.391 . S
C1300 C1301 1.400 . S
C1301 C1295 1.491 . S
C1301 C1300 1.400 . S
C1301 C1302 1.398 . S
C1302 H1290 0.950 . S
C1302 C1301 1.398 . S
C1302 C1303 1.391 . S
C1303 H1291 0.950 . S
C1303 C1299 1.393 . S
C1303 C1302 1.391 . S
H1304 C1312 0.950 . S
H1305 C1317 0.950 . S
H1306 C1314 0.950 . S
H1307 C1316 0.950 . S
H1308 C1318 0.950 . S
H1309 C1320 0.950 . S
H1310 C1322 0.950 . S
H1311 C1323 0.950 . S
C1312 H1304 0.950 . S
C1312 C1313 1.386 . S
C1312 C1314 1.391 . S
C1313 C1312 1.386 . S
C1313 C1317 1.393 . S
C1314 H1306 0.950 . S
C1314 C1312 1.391 . S
C1314 C1315 1.400 . S
C1315 C1314 1.400 . S
C1315 C1316 1.398 . S
C1315 C1321 1.491 . S
C1316 H1307 0.950 . S
C1316 C1315 1.398 . S
C1316 C1317 1.391 . S
C1317 H1305 0.950 . S
C1317 C1313 1.393 . S
C1317 C1316 1.391 . S
C1318 H1308 0.950 . S
C1318 C1319 1.386 . S
C1318 C1320 1.391 . S
C1319 C1318 1.386 . S
C1319 C1323 1.393 . S
C1320 H1309 0.950 . S
C1320 C1318 1.391 . S
C1320 C1321 1.400 . S
C1321 C1315 1.491 . S
C1321 C1320 1.400 . S
C1321 C1322 1.398 . S
C1322 H1310 0.950 . S
C1322 C1321 1.398 . S
C1322 C1323 1.391 . S
C1323 H1311 0.950 . S
C1323 C1319 1.393 . S
C1323 C1322 1.391 . S
H1324 C1332 0.950 . S
H1325 C1337 0.950 . S
H1326 C1334 0.950 . S
H1327 C1336 0.950 . S
H1328 C1338 0.950 . S
H1329 C1340 0.950 . S
H1330 C1342 0.950 . S
H1331 C1343 0.950 . S
C1332 H1324 0.950 . S
C1332 C1333 1.386 . S
C1332 C1334 1.391 . S
C1333 C1332 1.386 . S
C1333 C1337 1.393 . S
C1334 H1326 0.950 . S
C1334 C1332 1.391 . S
C1334 C1335 1.400 . S
C1335 C1334 1.400 . S
C1335 C1336 1.398 . S
C1335 C1341 1.491 . S
C1336 H1327 0.950 . S
C1336 C1335 1.398 . S
C1336 C1337 1.391 . S
C1337 H1325 0.950 . S
C1337 C1333 1.393 . S
C1337 C1336 1.391 . S
C1338 H1328 0.950 . S
C1338 C1339 1.386 . S
C1338 C1340 1.391 . S
C1339 C1338 1.386 . S
C1339 C1343 1.393 . S
C1340 H1329 0.950 . S
C1340 C1338 1.391 . S
C1340 C1341 1.400 . S
C1341 C1335 1.491 . S
C1341 C1340 1.400 . S
C1341 C1342 1.398 . S
C1342 H1330 0.950 . S
C1342 C1341 1.398 . S
C1342 C1343 1.391 . S
C1343 H1331 0.950 . S
C1343 C1339 1.393 . S
C1343 C1342 1.391 . S
H1344 C1352 0.950 . S
H1345 C1357 0.950 . S
H1346 C1354 0.950 . S
H1347 C1356 0.950 . S
H1348 C1358 0.950 . S
H1349 C1360 0.950 . S
H1350 C1362 0.950 . S
H1351 C1363 0.950 . S
C1352 H1344 0.950 . S
C1352 C1353 1.386 . S
C1352 C1354 1.391 . S
C1353 C1352 1.386 . S
C1353 C1357 1.393 . S
C1354 H1346 0.950 . S
C1354 C1352 1.391 . S
C1354 C1355 1.400 . S
C1355 C1354 1.400 . S
C1355 C1356 1.398 . S
C1355 C1361 1.491 . S
C1356 H1347 0.950 . S
C1356 C1355 1.398 . S
C1356 C1357 1.391 . S
C1357 H1345 0.950 . S
C1357 C1353 1.393 . S
C1357 C1356 1.391 . S
C1358 H1348 0.950 . S
C1358 C1359 1.386 1_556 S
C1358 C1360 1.391 . S
C1359 C1358 1.386 1_554 S
C1359 C1363 1.393 . S
C1360 H1349 0.950 . S
C1360 C1358 1.391 . S
C1360 C1361 1.400 . S
C1361 C1355 1.491 . S
C1361 C1360 1.400 . S
C1361 C1362 1.398 1_556 S
C1362 H1350 0.950 . S
C1362 C1361 1.398 1_554 S
C1362 C1363 1.391 . S
C1363 H1351 0.950 . S
C1363 C1359 1.393 . S
C1363 C1362 1.391 . S
H1364 C1372 0.950 . S
H1365 C1377 0.950 . S
H1366 C1374 0.950 1_556 S
H1367 C1376 0.950 . S
H1368 C1378 0.950 1_554 S
H1369 C1380 0.950 . S
H1370 C1382 0.950 . S
H1371 C1383 0.950 . S
C1372 H1364 0.950 . S
C1372 C1373 1.386 . S
C1372 C1374 1.391 . S
C1373 C1372 1.386 . S
C1373 C1377 1.393 . S
C1374 H1366 0.950 1_554 S
C1374 C1372 1.391 . S
C1374 C1375 1.400 . S
C1375 C1374 1.400 . S
C1375 C1376 1.398 . S
C1375 C1381 1.502 . S
C1376 H1367 0.950 . S
C1376 C1375 1.398 . S
C1376 C1377 1.391 . S
C1377 H1365 0.950 . S
C1377 C1373 1.393 . S
C1377 C1376 1.391 . S
C1378 H1368 0.950 1_556 S
C1378 C1379 1.386 . S
C1378 C1380 1.391 1_556 S
C1379 C1378 1.386 . S
C1379 C1383 1.393 . S
C1380 H1369 0.950 . S
C1380 C1378 1.391 1_554 S
C1380 C1381 1.413 . S
C1381 C1375 1.502 . S
C1381 C1380 1.413 . S
C1381 C1382 1.375 1_554 S
C1382 H1370 0.950 . S
C1382 C1381 1.375 1_556 S
C1382 C1383 1.391 . S
C1383 H1371 0.950 . S
C1383 C1379 1.393 . S
C1383 C1382 1.391 . S
H1384 C1392 0.950 . S
H1385 C1397 0.950 . S
H1386 C1394 0.950 . S
H1387 C1396 0.950 . S
H1388 C1398 0.950 . S
H1389 C1400 0.950 . S
H1390 C1402 0.950 . S
H1391 C1403 0.950 . S
C1392 H1384 0.950 . S
C1392 C1393 1.386 . S
C1392 C1394 1.391 . S
C1393 C1392 1.386 . S
C1393 C1397 1.393 . S
C1394 H1386 0.950 . S
C1394 C1392 1.391 . S
C1394 C1395 1.400 . S
C1395 C1394 1.400 . S
C1395 C1396 1.398 . S
C1395 C1401 1.491 . S
C1396 H1387 0.950 . S
C1396 C1395 1.398 . S
C1396 C1397 1.391 . S
C1397 H1385 0.950 . S
C1397 C1393 1.393 . S
C1397 C1396 1.391 . S
C1398 H1388 0.950 . S
C1398 C1399 1.386 . S
C1398 C1400 1.391 . S
C1399 C1398 1.386 . S
C1399 C1403 1.393 . S
C1400 H1389 0.950 . S
C1400 C1398 1.391 . S
C1400 C1401 1.400 . S
C1401 C1395 1.491 . S
C1401 C1400 1.400 . S
C1401 C1402 1.398 . S
C1402 H1390 0.950 . S
C1402 C1401 1.398 . S
C1402 C1403 1.391 . S
C1403 H1391 0.950 . S
C1403 C1399 1.393 . S
C1403 C1402 1.391 . S
H1404 C1412 0.950 . S
H1405 C1417 0.950 . S
H1406 C1414 0.950 . S
H1407 C1416 0.950 . S
H1408 C1418 0.950 . S
H1409 C1420 0.950 . S
H1410 C1422 0.950 . S
H1411 C1423 0.950 . S
C1412 H1404 0.950 . S
C1412 C1413 1.386 . S
C1412 C1414 1.391 . S
C1413 C1412 1.386 . S
C1413 C1417 1.393 . S
C1414 H1406 0.950 . S
C1414 C1412 1.391 . S
C1414 C1415 1.400 . S
C1415 C1414 1.400 . S
C1415 C1416 1.398 . S
C1415 C1421 1.491 . S
C1416 H1407 0.950 . S
C1416 C1415 1.398 . S
C1416 C1417 1.391 . S
C1417 H1405 0.950 . S
C1417 C1413 1.393 . S
C1417 C1416 1.391 . S
C1418 H1408 0.950 . S
C1418 C1419 1.386 . S
C1418 C1420 1.391 . S
C1419 C1418 1.386 . S
C1419 C1423 1.393 . S
C1420 H1409 0.950 . S
C1420 C1418 1.391 . S
C1420 C1421 1.400 . S
C1421 C1415 1.491 . S
C1421 C1420 1.400 . S
C1421 C1422 1.398 . S
C1422 H1410 0.950 . S
C1422 C1421 1.398 . S
C1422 C1423 1.391 . S
C1423 H1411 0.950 . S
C1423 C1419 1.393 . S
C1423 C1422 1.391 . S
H1424 C1432 0.950 . S
H1425 C1437 0.950 1_556 S
H1426 C1434 0.950 . S
H1427 C1436 0.971 . S
H1428 C1438 0.950 . S
H1429 C1440 0.950 . S
H1430 C1442 0.950 . S
H1431 C1443 0.950 . S
C1432 H1424 0.950 . S
C1432 C1433 1.386 . S
C1432 C1434 1.391 . S
C1433 C1432 1.386 . S
C1433 C1437 1.393 . S
C1434 H1426 0.950 . S
C1434 C1432 1.391 . S
C1434 C1435 1.400 . S
C1435 C1434 1.400 . S
C1435 C1436 1.386 1_554 S
C1435 C1441 1.491 . S
C1436 H1427 0.971 . S
C1436 C1435 1.386 1_556 S
C1436 C1437 1.382 1_556 S
C1437 H1425 0.950 1_554 S
C1437 C1433 1.393 . S
C1437 C1436 1.382 1_554 S
C1438 H1428 0.950 . S
C1438 C1439 1.386 . S
C1438 C1440 1.391 . S
C1439 C1438 1.386 . S
C1439 C1443 1.393 1_556 S
C1440 H1429 0.950 . S
C1440 C1438 1.391 . S
C1440 C1441 1.400 1_556 S
C1441 C1435 1.491 . S
C1441 C1440 1.400 1_554 S
C1441 C1442 1.398 . S
C1442 H1430 0.950 . S
C1442 C1441 1.398 . S
C1442 C1443 1.391 . S
C1443 H1431 0.950 . S
C1443 C1439 1.393 1_554 S
C1443 C1442 1.391 . S
H1444 C1452 0.950 . S
H1445 C1457 0.950 . S
H1446 C1454 0.950 1_556 S
H1447 C1456 0.950 . S
H1448 C1458 0.950 . S
H1449 C1460 0.950 . S
H1450 C1462 0.950 . S
H1451 C1463 0.950 . S
C1452 H1444 0.950 . S
C1452 C1453 1.386 . S
C1452 C1454 1.391 . S
C1453 C1452 1.386 . S
C1453 C1457 1.393 . S
C1454 H1446 0.950 1_554 S
C1454 C1452 1.391 . S
C1454 C1455 1.400 1_554 S
C1455 C1454 1.400 1_556 S
C1455 C1456 1.398 1_556 S
C1455 C1461 1.491 . S
C1456 H1447 0.950 . S
C1456 C1455 1.398 1_554 S
C1456 C1457 1.391 . S
C1457 H1445 0.950 . S
C1457 C1453 1.393 . S
C1457 C1456 1.391 . S
C1458 H1448 0.950 . S
C1458 C1459 1.386 . S
C1458 C1460 1.391 . S
C1459 C1458 1.386 . S
C1459 C1463 1.393 . S
C1460 H1449 0.950 . S
C1460 C1458 1.391 . S
C1460 C1461 1.400 . S
C1461 C1455 1.491 . S
C1461 C1460 1.400 . S
C1461 C1462 1.398 . S
C1462 H1450 0.950 . S
C1462 C1461 1.398 . S
C1462 C1463 1.391 . S
C1463 H1451 0.950 . S
C1463 C1459 1.393 . S
C1463 C1462 1.391 . S
H1464 C1472 0.950 . S
H1465 C1477 0.950 . S
H1466 C1474 0.950 . S
H1467 C1476 0.950 . S
H1468 C1478 0.950 . S
H1469 C1480 0.950 . S
H1470 C1482 0.950 . S
H1471 C1483 0.950 . S
C1472 H1464 0.950 . S
C1472 C1473 1.386 . S
C1472 C1474 1.391 . S
C1473 C1472 1.386 . S
C1473 C1477 1.393 . S
C1474 H1466 0.950 . S
C1474 C1472 1.391 . S
C1474 C1475 1.400 . S
C1475 C1474 1.400 . S
C1475 C1476 1.398 . S
C1475 C1481 1.491 . S
C1476 H1467 0.950 . S
C1476 C1475 1.398 . S
C1476 C1477 1.391 . S
C1477 H1465 0.950 . S
C1477 C1473 1.393 . S
C1477 C1476 1.391 . S
C1478 H1468 0.950 . S
C1478 C1479 1.386 . S
C1478 C1480 1.391 . S
C1479 C1478 1.386 . S
C1479 C1483 1.393 . S
C1480 H1469 0.950 . S
C1480 C1478 1.391 . S
C1480 C1481 1.400 . S
C1481 C1475 1.491 . S
C1481 C1480 1.400 . S
C1481 C1482 1.398 . S
C1482 H1470 0.950 . S
C1482 C1481 1.398 . S
C1482 C1483 1.391 . S
C1483 H1471 0.950 . S
C1483 C1479 1.393 . S
C1483 C1482 1.391 . S
H1484 C1492 0.950 . S
H1485 C1497 0.950 . S
H1486 C1494 0.950 . S
H1487 C1496 0.950 . S
H1488 C1498 0.950 . S
H1489 C1500 0.950 . S
H1490 C1502 0.950 . S
H1491 C1503 0.950 . S
C1492 H1484 0.950 . S
C1492 C1493 1.386 . S
C1492 C1494 1.391 . S
C1493 C1492 1.386 . S
C1493 C1497 1.393 . S
C1494 H1486 0.950 . S
C1494 C1492 1.391 . S
C1494 C1495 1.400 . S
C1495 C1494 1.400 . S
C1495 C1496 1.398 . S
C1495 C1501 1.491 . S
C1496 H1487 0.950 . S
C1496 C1495 1.398 . S
C1496 C1497 1.391 . S
C1497 H1485 0.950 . S
C1497 C1493 1.393 . S
C1497 C1496 1.391 . S
C1498 H1488 0.950 . S
C1498 C1499 1.386 . S
C1498 C1500 1.391 . S
C1499 C1498 1.386 . S
C1499 C1503 1.393 . S
C1500 H1489 0.950 . S
C1500 C1498 1.391 . S
C1500 C1501 1.400 . S
C1501 C1495 1.491 . S
C1501 C1500 1.400 . S
C1501 C1502 1.398 . S
C1502 H1490 0.950 . S
C1502 C1501 1.398 . S
C1502 C1503 1.391 . S
C1503 H1491 0.950 . S
C1503 C1499 1.393 . S
C1503 C1502 1.391 . S
H1504 C1512 0.950 . S
H1505 C1517 0.950 . S
H1506 C1514 0.950 . S
H1507 C1516 0.950 . S
H1508 C1518 0.950 . S
H1509 C1520 0.950 . S
H1510 C1522 0.950 . S
H1511 C1523 0.950 . S
C1512 H1504 0.950 . S
C1512 C1513 1.386 . S
C1512 C1514 1.391 . S
C1513 C1512 1.386 . S
C1513 C1517 1.393 . S
C1514 H1506 0.950 . S
C1514 C1512 1.391 . S
C1514 C1515 1.400 . S
C1515 C1514 1.400 . S
C1515 C1516 1.398 . S
C1515 C1521 1.491 . S
C1516 H1507 0.950 . S
C1516 C1515 1.398 . S
C1516 C1517 1.391 . S
C1517 H1505 0.950 . S
C1517 C1513 1.393 . S
C1517 C1516 1.391 . S
C1518 H1508 0.950 . S
C1518 C1519 1.386 . S
C1518 C1520 1.391 . S
C1519 C1518 1.386 . S
C1519 C1523 1.393 . S
C1520 H1509 0.950 . S
C1520 C1518 1.391 . S
C1520 C1521 1.400 . S
C1521 C1515 1.491 . S
C1521 C1520 1.400 . S
C1521 C1522 1.398 . S
C1522 H1510 0.950 . S
C1522 C1521 1.398 . S
C1522 C1523 1.391 . S
C1523 H1511 0.950 . S
C1523 C1519 1.393 . S
C1523 C1522 1.391 . S
H1524 C1532 0.950 . S
H1525 C1537 0.950 . S
H1526 C1534 0.950 . S
H1527 C1536 0.950 . S
H1528 C1538 0.950 . S
H1529 C1540 0.950 . S
H1530 C1542 0.950 . S
H1531 C1543 0.950 . S
C1532 H1524 0.950 . S
C1532 C1533 1.386 . S
C1532 C1534 1.391 . S
C1533 C1532 1.386 . S
C1533 C1537 1.393 . S
C1534 H1526 0.950 . S
C1534 C1532 1.391 . S
C1534 C1535 1.400 . S
C1535 C1534 1.400 . S
C1535 C1536 1.398 . S
C1535 C1541 1.491 . S
C1536 H1527 0.950 . S
C1536 C1535 1.398 . S
C1536 C1537 1.391 . S
C1537 H1525 0.950 . S
C1537 C1533 1.393 . S
C1537 C1536 1.391 . S
C1538 H1528 0.950 . S
C1538 C1539 1.386 . S
C1538 C1540 1.391 . S
C1539 C1538 1.386 . S
C1539 C1543 1.393 . S
C1540 H1529 0.950 . S
C1540 C1538 1.391 . S
C1540 C1541 1.400 . S
C1541 C1535 1.491 . S
C1541 C1540 1.400 . S
C1541 C1542 1.398 . S
C1542 H1530 0.950 . S
C1542 C1541 1.398 . S
C1542 C1543 1.391 . S
C1543 H1531 0.950 . S
C1543 C1539 1.393 . S
C1543 C1542 1.391 . S
H1544 C1552 0.950 . S
H1545 C1557 0.950 . S
H1546 C1554 0.950 . S
H1547 C1556 0.950 . S
H1548 C1558 0.950 . S
H1549 C1560 0.950 . S
H1550 C1562 0.950 . S
H1551 C1563 0.950 . S
C1552 H1544 0.950 . S
C1552 C1553 1.386 . S
C1552 C1554 1.391 . S
C1553 C1552 1.386 . S
C1553 C1557 1.393 . S
C1554 H1546 0.950 . S
C1554 C1552 1.391 . S
C1554 C1555 1.400 . S
C1555 C1554 1.400 . S
C1555 C1556 1.398 . S
C1555 C1561 1.491 . S
C1556 H1547 0.950 . S
C1556 C1555 1.398 . S
C1556 C1557 1.391 . S
C1557 H1545 0.950 . S
C1557 C1553 1.393 . S
C1557 C1556 1.391 . S
C1558 H1548 0.950 . S
C1558 C1559 1.386 . S
C1558 C1560 1.391 . S
C1559 C1558 1.386 . S
C1559 C1563 1.393 . S
C1560 H1549 0.950 . S
C1560 C1558 1.391 . S
C1560 C1561 1.400 . S
C1561 C1555 1.491 . S
C1561 C1560 1.400 . S
C1561 C1562 1.398 . S
C1562 H1550 0.950 . S
C1562 C1561 1.398 . S
C1562 C1563 1.391 . S
C1563 H1551 0.950 . S
C1563 C1559 1.393 . S
C1563 C1562 1.391 . S
H1564 C1572 0.950 1_545 S
H1565 C1577 0.950 . S
H1566 C1574 0.950 . S
H1567 C1576 0.950 . S
H1568 C1578 0.950 . S
H1569 C1580 0.950 . S
H1570 C1582 0.950 . S
H1571 C1583 0.950 . S
C1572 H1564 0.950 1_565 S
C1572 C1573 1.386 . S
C1572 C1574 1.391 . S
C1573 C1572 1.386 . S
C1573 C1577 1.393 . S
C1574 H1566 0.950 . S
C1574 C1572 1.391 . S
C1574 C1575 1.400 . S
C1575 C1574 1.400 . S
C1575 C1576 1.398 . S
C1575 C1581 1.491 . S
C1576 H1567 0.950 . S
C1576 C1575 1.398 . S
C1576 C1577 1.391 . S
C1577 H1565 0.950 . S
C1577 C1573 1.393 . S
C1577 C1576 1.391 . S
C1578 H1568 0.950 . S
C1578 C1579 1.386 . S
C1578 C1580 1.391 . S
C1579 C1578 1.386 . S
C1579 C1583 1.393 . S
C1580 H1569 0.950 . S
C1580 C1578 1.391 . S
C1580 C1581 1.400 . S
C1581 C1575 1.491 . S
C1581 C1580 1.400 . S
C1581 C1582 1.398 . S
C1582 H1570 0.950 . S
C1582 C1581 1.398 . S
C1582 C1583 1.391 . S
C1583 H1571 0.950 . S
C1583 C1579 1.393 . S
C1583 C1582 1.391 . S
H1584 C1592 0.950 . S
H1585 C1597 0.950 . S
H1586 C1594 0.950 . S
H1587 C1596 0.950 . S
H1588 C1598 0.950 . S
H1589 C1600 0.950 . S
H1590 C1602 0.950 . S
H1591 C1603 0.950 . S
C1592 H1584 0.950 . S
C1592 C1593 1.386 . S
C1592 C1594 1.391 . S
C1593 C1592 1.386 . S
C1593 C1597 1.393 1_545 S
C1594 H1586 0.950 . S
C1594 C1592 1.391 . S
C1594 C1595 1.400 . S
C1595 C1594 1.400 . S
C1595 C1596 1.398 . S
C1595 C1601 1.491 . S
C1596 H1587 0.950 . S
C1596 C1595 1.398 . S
C1596 C1597 1.391 1_545 S
C1597 H1585 0.950 . S
C1597 C1593 1.393 1_565 S
C1597 C1596 1.391 1_565 S
C1598 H1588 0.950 . S
C1598 C1599 1.386 . S
C1598 C1600 1.391 . S
C1599 C1598 1.386 . S
C1599 C1603 1.393 . S
C1600 H1589 0.950 . S
C1600 C1598 1.391 . S
C1600 C1601 1.400 . S
C1601 C1595 1.491 . S
C1601 C1600 1.400 . S
C1601 C1602 1.398 . S
C1602 H1590 0.950 . S
C1602 C1601 1.398 . S
C1602 C1603 1.391 . S
C1603 H1591 0.950 . S
C1603 C1599 1.393 . S
C1603 C1602 1.391 . S
H1604 C1612 0.950 . S
H1605 C1617 0.950 . S
H1606 C1614 0.950 . S
H1607 C1616 0.950 . S
H1608 C1618 0.950 . S
H1609 C1620 0.950 . S
H1610 C1622 0.950 . S
H1611 C1623 0.950 . S
C1612 H1604 0.950 . S
C1612 C1613 1.386 . S
C1612 C1614 1.391 . S
C1613 C1612 1.386 . S
C1613 C1617 1.393 . S
C1614 H1606 0.950 . S
C1614 C1612 1.391 . S
C1614 C1615 1.400 . S
C1615 C1614 1.400 . S
C1615 C1616 1.398 . S
C1615 C1621 1.491 . S
C1616 H1607 0.950 . S
C1616 C1615 1.398 . S
C1616 C1617 1.391 . S
C1617 H1605 0.950 . S
C1617 C1613 1.393 . S
C1617 C1616 1.391 . S
C1618 H1608 0.950 . S
C1618 C1619 1.386 . S
C1618 C1620 1.391 . S
C1619 C1618 1.386 . S
C1619 C1623 1.393 . S
C1620 H1609 0.950 . S
C1620 C1618 1.391 . S
C1620 C1621 1.400 . S
C1621 C1615 1.491 . S
C1621 C1620 1.400 . S
C1621 C1622 1.398 . S
C1622 H1610 0.950 . S
C1622 C1621 1.398 . S
C1622 C1623 1.391 . S
C1623 H1611 0.950 . S
C1623 C1619 1.393 . S
C1623 C1622 1.391 . S
H1624 C1632 0.950 . S
H1625 C1637 0.950 . S
H1626 C1634 0.950 . S
H1627 C1636 0.950 . S
H1628 C1638 0.950 . S
H1629 C1640 0.950 . S
H1630 C1642 0.950 . S
H1631 C1643 0.950 . S
C1632 H1624 0.950 . S
C1632 C1633 1.386 . S
C1632 C1634 1.391 . S
C1633 C1632 1.386 . S
C1633 C1637 1.393 . S
C1634 H1626 0.950 . S
C1634 C1632 1.391 . S
C1634 C1635 1.400 . S
C1635 C1634 1.400 . S
C1635 C1636 1.398 . S
C1635 C1641 1.491 . S
C1636 H1627 0.950 . S
C1636 C1635 1.398 . S
C1636 C1637 1.391 . S
C1637 H1625 0.950 . S
C1637 C1633 1.393 . S
C1637 C1636 1.391 . S
C1638 H1628 0.950 . S
C1638 C1639 1.386 . S
C1638 C1640 1.391 . S
C1639 C1638 1.386 . S
C1639 C1643 1.393 . S
C1640 H1629 0.950 . S
C1640 C1638 1.391 . S
C1640 C1641 1.400 . S
C1641 C1635 1.491 . S
C1641 C1640 1.400 . S
C1641 C1642 1.398 . S
C1642 H1630 0.950 . S
C1642 C1641 1.398 . S
C1642 C1643 1.391 . S
C1643 H1631 0.950 . S
C1643 C1639 1.393 . S
C1643 C1642 1.391 . S
H1644 C1652 0.950 . S
H1645 C1657 0.950 . S
H1646 C1654 0.950 . S
H1647 C1656 0.950 . S
H1648 C1658 0.950 . S
H1649 C1660 0.950 . S
H1650 C1662 0.950 . S
H1651 C1663 0.950 . S
C1652 H1644 0.950 . S
C1652 C1653 1.386 . S
C1652 C1654 1.391 . S
C1653 C1652 1.386 . S
C1653 C1657 1.393 . S
C1654 H1646 0.950 . S
C1654 C1652 1.391 . S
C1654 C1655 1.400 . S
C1655 C1654 1.400 . S
C1655 C1656 1.398 . S
C1655 C1661 1.491 . S
C1656 H1647 0.950 . S
C1656 C1655 1.398 . S
C1656 C1657 1.391 . S
C1657 H1645 0.950 . S
C1657 C1653 1.393 . S
C1657 C1656 1.391 . S
C1658 H1648 0.950 . S
C1658 C1659 1.386 . S
C1658 C1660 1.391 . S
C1659 C1658 1.386 . S
C1659 C1663 1.393 . S
C1660 H1649 0.950 . S
C1660 C1658 1.391 . S
C1660 C1661 1.400 . S
C1661 C1655 1.491 . S
C1661 C1660 1.400 . S
C1661 C1662 1.398 . S
C1662 H1650 0.950 . S
C1662 C1661 1.398 . S
C1662 C1663 1.391 . S
C1663 H1651 0.950 . S
C1663 C1659 1.393 . S
C1663 C1662 1.391 . S
H1664 C1672 0.950 . S
H1665 C1677 0.950 . S
H1666 C1674 0.950 . S
H1667 C1676 0.950 . S
H1668 C1678 0.950 . S
H1669 C1680 0.950 . S
H1670 C1682 0.950 . S
H1671 C1683 0.950 . S
C1672 H1664 0.950 . S
C1672 C1673 1.386 . S
C1672 C1674 1.391 . S
C1673 C1672 1.386 . S
C1673 C1677 1.393 . S
C1674 H1666 0.950 . S
C1674 C1672 1.391 . S
C1674 C1675 1.400 . S
C1675 C1674 1.400 . S
C1675 C1676 1.398 . S
C1675 C1681 1.491 . S
C1676 H1667 0.950 . S
C1676 C1675 1.398 . S
C1676 C1677 1.391 . S
C1677 H1665 0.950 . S
C1677 C1673 1.393 . S
C1677 C1676 1.391 . S
C1678 H1668 0.950 . S
C1678 C1679 1.386 . S
C1678 C1680 1.391 . S
C1679 C1678 1.386 . S
C1679 C1683 1.393 . S
C1680 H1669 0.950 . S
C1680 C1678 1.391 . S
C1680 C1681 1.400 . S
C1681 C1675 1.491 . S
C1681 C1680 1.400 . S
C1681 C1682 1.398 . S
C1682 H1670 0.950 . S
C1682 C1681 1.398 . S
C1682 C1683 1.391 . S
C1683 H1671 0.950 . S
C1683 C1679 1.393 . S
C1683 C1682 1.391 . S
H1684 C1692 0.950 . S
H1685 C1697 0.950 . S
H1686 C1694 0.950 . S
H1687 C1696 0.950 . S
H1688 C1698 0.950 . S
H1689 C1700 0.950 . S
H1690 C1702 0.950 . S
H1691 C1703 0.950 . S
C1692 H1684 0.950 . S
C1692 C1693 1.386 . S
C1692 C1694 1.391 . S
C1693 C1692 1.386 . S
C1693 C1697 1.393 . S
C1694 H1686 0.950 . S
C1694 C1692 1.391 . S
C1694 C1695 1.400 . S
C1695 C1694 1.400 . S
C1695 C1696 1.398 . S
C1695 C1701 1.491 . S
C1696 H1687 0.950 . S
C1696 C1695 1.398 . S
C1696 C1697 1.391 . S
C1697 H1685 0.950 . S
C1697 C1693 1.393 . S
C1697 C1696 1.391 . S
C1698 H1688 0.950 . S
C1698 C1699 1.386 . S
C1698 C1700 1.391 . S
C1699 C1698 1.386 . S
C1699 C1703 1.393 . S
C1700 H1689 0.950 . S
C1700 C1698 1.391 . S
C1700 C1701 1.400 . S
C1701 C1695 1.491 . S
C1701 C1700 1.400 . S
C1701 C1702 1.398 . S
C1702 H1690 0.950 . S
C1702 C1701 1.398 . S
C1702 C1703 1.391 . S
C1703 H1691 0.950 . S
C1703 C1699 1.393 . S
C1703 C1702 1.391 . S
H1704 C1712 0.950 . S
H1705 C1717 0.950 . S
H1706 C1714 0.950 . S
H1707 C1716 0.950 . S
H1708 C1718 0.950 . S
H1709 C1720 0.950 . S
H1710 C1722 0.950 . S
H1711 C1723 0.950 . S
C1712 H1704 0.950 . S
C1712 C1713 1.386 . S
C1712 C1714 1.391 . S
C1713 C1712 1.386 . S
C1713 C1717 1.393 . S
C1714 H1706 0.950 . S
C1714 C1712 1.391 . S
C1714 C1715 1.400 . S
C1715 C1714 1.400 . S
C1715 C1716 1.398 . S
C1715 C1721 1.491 . S
C1716 H1707 0.950 . S
C1716 C1715 1.398 . S
C1716 C1717 1.391 . S
C1717 H1705 0.950 . S
C1717 C1713 1.393 . S
C1717 C1716 1.391 . S
C1718 H1708 0.950 . S
C1718 C1719 1.386 . S
C1718 C1720 1.391 . S
C1719 C1718 1.386 . S
C1719 C1723 1.393 . S
C1720 H1709 0.950 . S
C1720 C1718 1.391 . S
C1720 C1721 1.400 . S
C1721 C1715 1.491 . S
C1721 C1720 1.400 . S
C1721 C1722 1.398 . S
C1722 H1710 0.950 . S
C1722 C1721 1.398 . S
C1722 C1723 1.391 . S
C1723 H1711 0.950 . S
C1723 C1719 1.393 . S
C1723 C1722 1.391 . S
H1724 C1732 0.950 . S
H1725 C1737 0.950 . S
H1726 C1734 0.950 . S
H1727 C1736 0.950 . S
H1728 C1738 0.950 . S
H1729 C1740 0.950 . S
H1730 C1742 0.950 . S
H1731 C1743 0.950 . S
C1732 H1724 0.950 . S
C1732 C1733 1.386 . S
C1732 C1734 1.391 . S
C1733 C1732 1.386 . S
C1733 C1737 1.393 . S
C1734 H1726 0.950 . S
C1734 C1732 1.391 . S
C1734 C1735 1.400 . S
C1735 C1734 1.400 . S
C1735 C1736 1.398 . S
C1735 C1741 1.491 . S
C1736 H1727 0.950 . S
C1736 C1735 1.398 . S
C1736 C1737 1.391 . S
C1737 H1725 0.950 . S
C1737 C1733 1.393 . S
C1737 C1736 1.391 . S
C1738 H1728 0.950 . S
C1738 C1739 1.386 . S
C1738 C1740 1.391 . S
C1739 C1738 1.386 . S
C1739 C1743 1.393 . S
C1740 H1729 0.950 . S
C1740 C1738 1.391 . S
C1740 C1741 1.400 . S
C1741 C1735 1.491 . S
C1741 C1740 1.400 . S
C1741 C1742 1.398 . S
C1742 H1730 0.950 . S
C1742 C1741 1.398 . S
C1742 C1743 1.391 . S
C1743 H1731 0.950 . S
C1743 C1739 1.393 . S
C1743 C1742 1.391 . S
H1744 C1752 0.950 . S
H1745 C1757 0.950 . S
H1746 C1754 0.950 . S
H1747 C1756 0.950 . S
H1748 C1758 0.950 . S
H1749 C1760 0.950 . S
H1750 C1762 0.950 . S
H1751 C1763 0.950 . S
C1752 H1744 0.950 . S
C1752 C1753 1.386 . S
C1752 C1754 1.391 . S
C1753 C1752 1.386 . S
C1753 C1757 1.393 . S
C1754 H1746 0.950 . S
C1754 C1752 1.391 . S
C1754 C1755 1.400 . S
C1755 C1754 1.400 . S
C1755 C1756 1.398 . S
C1755 C1761 1.491 . S
C1756 H1747 0.950 . S
C1756 C1755 1.398 . S
C1756 C1757 1.391 . S
C1757 H1745 0.950 . S
C1757 C1753 1.393 . S
C1757 C1756 1.391 . S
C1758 H1748 0.950 . S
C1758 C1759 1.386 . S
C1758 C1760 1.391 . S
C1759 C1758 1.386 . S
C1759 C1763 1.393 . S
C1760 H1749 0.950 . S
C1760 C1758 1.391 . S
C1760 C1761 1.400 . S
C1761 C1755 1.491 . S
C1761 C1760 1.400 . S
C1761 C1762 1.398 . S
C1762 H1750 0.950 . S
C1762 C1761 1.398 . S
C1762 C1763 1.391 . S
C1763 H1751 0.950 . S
C1763 C1759 1.393 . S
C1763 C1762 1.391 . S
H1764 C1772 0.950 . S
H1765 C1777 0.950 . S
H1766 C1774 0.950 . S
H1767 C1776 0.950 . S
H1768 C1778 0.950 . S
H1769 C1780 0.950 . S
H1770 C1782 0.950 . S
H1771 C1783 0.950 . S
C1772 H1764 0.950 . S
C1772 C1773 1.386 . S
C1772 C1774 1.391 . S
C1773 C1772 1.386 . S
C1773 C1777 1.393 . S
C1774 H1766 0.950 . S
C1774 C1772 1.391 . S
C1774 C1775 1.400 . S
C1775 C1774 1.400 . S
C1775 C1776 1.398 . S
C1775 C1781 1.491 . S
C1776 H1767 0.950 . S
C1776 C1775 1.398 . S
C1776 C1777 1.391 . S
C1777 H1765 0.950 . S
C1777 C1773 1.393 . S
C1777 C1776 1.391 . S
C1778 H1768 0.950 . S
C1778 C1779 1.386 . S
C1778 C1780 1.391 . S
C1779 C1778 1.386 . S
C1779 C1783 1.393 . S
C1780 H1769 0.950 . S
C1780 C1778 1.391 . S
C1780 C1781 1.400 . S
C1781 C1775 1.491 . S
C1781 C1780 1.400 . S
C1781 C1782 1.398 . S
C1782 H1770 0.950 . S
C1782 C1781 1.398 . S
C1782 C1783 1.391 . S
C1783 H1771 0.950 . S
C1783 C1779 1.393 . S
C1783 C1782 1.391 . S
H1784 C1792 0.950 . S
H1785 C1797 0.950 . S
H1786 C1794 0.950 . S
H1787 C1796 0.950 . S
H1788 C1798 0.950 . S
H1789 C1800 0.950 . S
H1790 C1802 0.950 . S
H1791 C1803 0.950 . S
C1792 H1784 0.950 . S
C1792 C1793 1.386 . S
C1792 C1794 1.391 . S
C1793 C1792 1.386 . S
C1793 C1797 1.393 . S
C1794 H1786 0.950 . S
C1794 C1792 1.391 . S
C1794 C1795 1.400 . S
C1795 C1794 1.400 . S
C1795 C1796 1.398 . S
C1795 C1801 1.491 . S
C1796 H1787 0.950 . S
C1796 C1795 1.398 . S
C1796 C1797 1.391 . S
C1797 H1785 0.950 . S
C1797 C1793 1.393 . S
C1797 C1796 1.391 . S
C1798 H1788 0.950 . S
C1798 C1799 1.386 . S
C1798 C1800 1.391 . S
C1799 C1798 1.386 . S
C1799 C1803 1.393 . S
C1800 H1789 0.950 . S
C1800 C1798 1.391 . S
C1800 C1801 1.400 . S
C1801 C1795 1.491 . S
C1801 C1800 1.400 . S
C1801 C1802 1.398 . S
C1802 H1790 0.950 . S
C1802 C1801 1.398 . S
C1802 C1803 1.391 . S
C1803 H1791 0.950 . S
C1803 C1799 1.393 . S
C1803 C1802 1.391 . S
H1804 C1812 0.950 . S
H1805 C1817 0.950 . S
H1806 C1814 0.950 . S
H1807 C1816 0.950 . S
H1808 C1818 0.950 . S
H1809 C1820 0.950 . S
H1810 C1822 0.950 . S
H1811 C1823 0.950 . S
C1812 H1804 0.950 . S
C1812 C1813 1.386 . S
C1812 C1814 1.391 . S
C1813 C1812 1.386 . S
C1813 C1817 1.393 . S
C1814 H1806 0.950 . S
C1814 C1812 1.391 . S
C1814 C1815 1.400 . S
C1815 C1814 1.400 . S
C1815 C1816 1.398 . S
C1815 C1821 1.491 . S
C1816 H1807 0.950 . S
C1816 C1815 1.398 . S
C1816 C1817 1.391 . S
C1817 H1805 0.950 . S
C1817 C1813 1.393 . S
C1817 C1816 1.391 . S
C1818 H1808 0.950 . S
C1818 C1819 1.386 . S
C1818 C1820 1.391 . S
C1819 C1818 1.386 . S
C1819 C1823 1.393 . S
C1820 H1809 0.950 . S
C1820 C1818 1.391 . S
C1820 C1821 1.400 . S
C1821 C1815 1.491 . S
C1821 C1820 1.400 . S
C1821 C1822 1.398 . S
C1822 H1810 0.950 . S
C1822 C1821 1.398 . S
C1822 C1823 1.391 . S
C1823 H1811 0.950 . S
C1823 C1819 1.393 . S
C1823 C1822 1.391 . S
H1824 C1832 0.950 . S
H1825 C1837 0.950 1_554 S
H1826 C1834 0.950 . S
H1827 C1836 0.950 1_554 S
H1828 C1838 0.950 . S
H1829 C1840 0.950 . S
H1830 C1842 0.950 . S
H1831 C1843 0.950 . S
C1832 H1824 0.950 . S
C1832 C1833 1.386 . S
C1832 C1834 1.391 . S
C1833 C1832 1.386 . S
C1833 C1837 1.393 . S
C1834 H1826 0.950 . S
C1834 C1832 1.391 . S
C1834 C1835 1.400 . S
C1835 C1834 1.400 . S
C1835 C1836 1.398 . S
C1835 C1841 1.491 . S
C1836 H1827 0.950 1_556 S
C1836 C1835 1.398 . S
C1836 C1837 1.391 . S
C1837 H1825 0.950 1_556 S
C1837 C1833 1.393 . S
C1837 C1836 1.391 . S
C1838 H1828 0.950 . S
C1838 C1839 1.386 . S
C1838 C1840 1.391 . S
C1839 C1838 1.386 . S
C1839 C1843 1.393 1_554 S
C1840 H1829 0.950 . S
C1840 C1838 1.391 . S
C1840 C1841 1.400 1_554 S
C1841 C1835 1.491 . S
C1841 C1840 1.400 1_556 S
C1841 C1842 1.398 . S
C1842 H1830 0.950 . S
C1842 C1841 1.398 . S
C1842 C1843 1.391 . S
C1843 H1831 0.950 . S
C1843 C1839 1.393 1_556 S
C1843 C1842 1.391 . S
H1844 C1852 0.950 1_554 S
H1845 C1857 0.950 . S
H1846 C1854 0.950 . S
H1847 C1856 0.950 . S
H1848 C1858 0.950 . S
H1849 C1860 0.950 1_556 S
H1850 C1862 0.950 . S
H1851 C1863 0.950 . S
C1852 H1844 0.950 1_556 S
C1852 C1853 1.386 . S
C1852 C1854 1.391 1_556 S
C1853 C1852 1.386 . S
C1853 C1857 1.393 . S
C1854 H1846 0.950 . S
C1854 C1852 1.391 1_554 S
C1854 C1855 1.416 . S
C1855 C1854 1.416 . S
C1855 C1856 1.372 1_554 S
C1855 C1861 1.503 . S
C1856 H1847 0.950 . S
C1856 C1855 1.372 1_556 S
C1856 C1857 1.391 . S
C1857 H1845 0.950 . S
C1857 C1853 1.393 . S
C1857 C1856 1.391 . S
C1858 H1848 0.950 . S
C1858 C1859 1.386 . S
C1858 C1860 1.391 . S
C1859 C1858 1.386 . S
C1859 C1863 1.393 . S
C1860 H1849 0.950 1_554 S
C1860 C1858 1.391 . S
C1860 C1861 1.400 . S
C1861 C1855 1.503 . S
C1861 C1860 1.400 . S
C1861 C1862 1.398 . S
C1862 H1850 0.950 . S
C1862 C1861 1.398 . S
C1862 C1863 1.391 . S
C1863 H1851 0.950 . S
C1863 C1859 1.393 . S
C1863 C1862 1.391 . S
H1864 C1872 0.950 . S
H1865 C1877 0.950 . S
H1866 C1874 0.950 . S
H1867 C1876 0.950 . S
H1868 C1878 0.950 . S
H1869 C1880 0.950 . S
H1870 C1882 0.950 . S
H1871 C1883 0.950 . S
C1872 H1864 0.950 . S
C1872 C1873 1.386 . S
C1872 C1874 1.391 . S
C1873 C1872 1.386 . S
C1873 C1877 1.393 . S
C1874 H1866 0.950 . S
C1874 C1872 1.391 . S
C1874 C1875 1.400 . S
C1875 C1874 1.400 . S
C1875 C1876 1.398 . S
C1875 C1881 1.491 . S
C1876 H1867 0.950 . S
C1876 C1875 1.398 . S
C1876 C1877 1.391 . S
C1877 H1865 0.950 . S
C1877 C1873 1.393 . S
C1877 C1876 1.391 . S
C1878 H1868 0.950 . S
C1878 C1879 1.386 . S
C1878 C1880 1.391 . S
C1879 C1878 1.386 . S
C1879 C1883 1.393 . S
C1880 H1869 0.950 . S
C1880 C1878 1.391 . S
C1880 C1881 1.400 . S
C1881 C1875 1.491 . S
C1881 C1880 1.400 . S
C1881 C1882 1.398 . S
C1882 H1870 0.950 . S
C1882 C1881 1.398 . S
C1882 C1883 1.391 . S
C1883 H1871 0.950 . S
C1883 C1879 1.393 . S
C1883 C1882 1.391 . S
H1884 C1892 0.950 . S
H1885 C1897 0.950 . S
H1886 C1894 0.950 . S
H1887 C1896 0.950 . S
H1888 C1898 0.950 . S
H1889 C1900 0.950 . S
H1890 C1902 0.950 . S
H1891 C1903 0.950 1_545 S
C1892 H1884 0.950 . S
C1892 C1893 1.386 . S
C1892 C1894 1.391 . S
C1893 C1892 1.386 . S
C1893 C1897 1.393 . S
C1894 H1886 0.950 . S
C1894 C1892 1.391 . S
C1894 C1895 1.400 . S
C1895 C1894 1.400 . S
C1895 C1896 1.398 . S
C1895 C1901 1.491 . S
C1896 H1887 0.950 . S
C1896 C1895 1.398 . S
C1896 C1897 1.391 . S
C1897 H1885 0.950 . S
C1897 C1893 1.393 . S
C1897 C1896 1.391 . S
C1898 H1888 0.950 . S
C1898 C1899 1.386 . S
C1898 C1900 1.391 . S
C1899 C1898 1.386 . S
C1899 C1903 1.393 . S
C1900 H1889 0.950 . S
C1900 C1898 1.391 . S
C1900 C1901 1.400 . S
C1901 C1895 1.491 . S
C1901 C1900 1.400 . S
C1901 C1902 1.398 . S
C1902 H1890 0.950 . S
C1902 C1901 1.398 . S
C1902 C1903 1.391 . S
C1903 H1891 0.950 1_565 S
C1903 C1899 1.393 . S
C1903 C1902 1.391 . S
H1904 C1912 0.950 . S
H1905 C1917 0.950 . S
H1906 C1914 0.950 . S
H1907 C1916 0.950 . S
H1908 C1918 0.950 . S
H1909 C1920 0.950 . S
H1910 C1922 0.967 . S
H1911 C1923 0.950 1_556 S
C1912 H1904 0.950 . S
C1912 C1913 1.386 . S
C1912 C1914 1.391 . S
C1913 C1912 1.386 . S
C1913 C1917 1.393 1_556 S
C1914 H1906 0.950 . S
C1914 C1912 1.391 . S
C1914 C1915 1.400 1_556 S
C1915 C1914 1.400 1_554 S
C1915 C1916 1.398 . S
C1915 C1921 1.491 . S
C1916 H1907 0.950 . S
C1916 C1915 1.398 . S
C1916 C1917 1.391 . S
C1917 H1905 0.950 . S
C1917 C1913 1.393 1_554 S
C1917 C1916 1.391 . S
C1918 H1908 0.950 . S
C1918 C1919 1.386 . S
C1918 C1920 1.391 . S
C1919 C1918 1.386 . S
C1919 C1923 1.393 . S
C1920 H1909 0.950 . S
C1920 C1918 1.391 . S
C1920 C1921 1.400 . S
C1921 C1915 1.491 . S
C1921 C1920 1.400 . S
C1921 C1922 1.389 1_554 S
C1922 H1910 0.967 . S
C1922 C1921 1.389 1_556 S
C1922 C1923 1.384 1_556 S
C1923 H1911 0.950 1_554 S
C1923 C1919 1.393 . S
C1923 C1922 1.384 1_554 S
H1924 C1932 0.950 . S
H1925 C1937 0.950 . S
H1926 C1934 0.950 1_554 S
H1927 C1936 0.950 . S
H1928 C1938 0.950 1_556 S
H1929 C1940 0.950 . S
H1930 C1942 0.950 . S
H1931 C1943 0.950 . S
C1932 H1924 0.950 . S
C1932 C1933 1.386 . S
C1932 C1934 1.391 . S
C1933 C1932 1.386 . S
C1933 C1937 1.393 . S
C1934 H1926 0.950 1_556 S
C1934 C1932 1.391 . S
C1934 C1935 1.400 . S
C1935 C1934 1.400 . S
C1935 C1936 1.398 . S
C1935 C1941 1.502 . S
C1936 H1927 0.950 . S
C1936 C1935 1.398 . S
C1936 C1937 1.391 . S
C1937 H1925 0.950 . S
C1937 C1933 1.393 . S
C1937 C1936 1.391 . S
C1938 H1928 0.950 1_554 S
C1938 C1939 1.386 . S
C1938 C1940 1.391 1_554 S
C1939 C1938 1.386 . S
C1939 C1943 1.393 . S
C1940 H1929 0.950 . S
C1940 C1938 1.391 1_556 S
C1940 C1941 1.416 . S
C1941 C1935 1.502 . S
C1941 C1940 1.416 . S
C1941 C1942 1.371 1_556 S
C1942 H1930 0.950 . S
C1942 C1941 1.371 1_554 S
C1942 C1943 1.391 . S
C1943 H1931 0.950 . S
C1943 C1939 1.393 . S
C1943 C1942 1.391 . S
H1944 C1952 0.950 . S
H1945 C1957 0.950 . S
H1946 C1954 0.950 . S
H1947 C1956 0.950 . S
H1948 C1958 0.950 . S
H1949 C1960 0.950 . S
H1950 C1962 0.950 . S
H1951 C1963 0.950 . S
C1952 H1944 0.950 . S
C1952 C1953 1.386 . S
C1952 C1954 1.391 . S
C1953 C1952 1.386 . S
C1953 C1957 1.393 . S
C1954 H1946 0.950 . S
C1954 C1952 1.391 . S
C1954 C1955 1.400 . S
C1955 C1954 1.400 . S
C1955 C1956 1.398 . S
C1955 C1961 1.491 . S
C1956 H1947 0.950 . S
C1956 C1955 1.398 . S
C1956 C1957 1.391 . S
C1957 H1945 0.950 . S
C1957 C1953 1.393 . S
C1957 C1956 1.391 . S
C1958 H1948 0.950 . S
C1958 C1959 1.386 . S
C1958 C1960 1.391 . S
C1959 C1958 1.386 . S
C1959 C1963 1.393 . S
C1960 H1949 0.950 . S
C1960 C1958 1.391 . S
C1960 C1961 1.400 . S
C1961 C1955 1.491 . S
C1961 C1960 1.400 . S
C1961 C1962 1.398 . S
C1962 H1950 0.950 . S
C1962 C1961 1.398 . S
C1962 C1963 1.391 . S
C1963 H1951 0.950 . S
C1963 C1959 1.393 . S
C1963 C1962 1.391 . S
H1964 C1972 0.950 . S
H1965 C1977 0.950 . S
H1966 C1974 0.950 . S
H1967 C1976 0.950 . S
H1968 C1978 0.950 . S
H1969 C1980 0.950 . S
H1970 C1982 0.950 . S
H1971 C1983 0.950 1_565 S
C1972 H1964 0.950 . S
C1972 C1973 1.386 . S
C1972 C1974 1.391 . S
C1973 C1972 1.386 . S
C1973 C1977 1.393 . S
C1974 H1966 0.950 . S
C1974 C1972 1.391 . S
C1974 C1975 1.400 . S
C1975 C1974 1.400 . S
C1975 C1976 1.398 . S
C1975 C1981 1.491 . S
C1976 H1967 0.950 . S
C1976 C1975 1.398 . S
C1976 C1977 1.391 . S
C1977 H1965 0.950 . S
C1977 C1973 1.393 . S
C1977 C1976 1.391 . S
C1978 H1968 0.950 . S
C1978 C1979 1.386 . S
C1978 C1980 1.391 . S
C1979 C1978 1.386 . S
C1979 C1983 1.393 . S
C1980 H1969 0.950 . S
C1980 C1978 1.391 . S
C1980 C1981 1.400 . S
C1981 C1975 1.491 . S
C1981 C1980 1.400 . S
C1981 C1982 1.398 . S
C1982 H1970 0.950 . S
C1982 C1981 1.398 . S
C1982 C1983 1.391 . S
C1983 H1971 0.950 1_545 S
C1983 C1979 1.393 . S
C1983 C1982 1.391 . S
H1984 C1992 0.950 . S
H1985 C1997 0.950 . S
H1986 C1994 0.950 . S
H1987 C1996 0.950 . S
H1988 C1998 0.950 . S
H1989 C2000 0.950 . S
H1990 C2002 0.950 . S
H1991 C2003 0.950 . S
C1992 H1984 0.950 . S
C1992 C1993 1.386 . S
C1992 C1994 1.391 . S
C1993 C1992 1.386 . S
C1993 C1997 1.393 1_455 S
C1994 H1986 0.950 . S
C1994 C1992 1.391 . S
C1994 C1995 1.400 . S
C1995 C1994 1.400 . S
C1995 C1996 1.398 1_455 S
C1995 C2001 1.491 . S
C1996 H1987 0.950 . S
C1996 C1995 1.398 1_655 S
C1996 C1997 1.391 . S
C1997 H1985 0.950 . S
C1997 C1993 1.393 1_655 S
C1997 C1996 1.391 . S
C1998 H1988 0.950 . S
C1998 C1999 1.386 1_655 S
C1998 C2000 1.391 . S
C1999 C1998 1.386 1_455 S
C1999 C2003 1.393 . S
C2000 H1989 0.950 . S
C2000 C1998 1.391 . S
C2000 C2001 1.400 1_655 S
C2001 C1995 1.491 . S
C2001 C2000 1.400 1_455 S
C2001 C2002 1.398 . S
C2002 H1990 0.950 . S
C2002 C2001 1.398 . S
C2002 C2003 1.391 . S
C2003 H1991 0.950 . S
C2003 C1999 1.393 . S
C2003 C2002 1.391 . S
H2004 C2012 0.950 . S
H2005 C2017 0.950 . S
H2006 C2014 0.950 . S
H2007 C2016 0.950 . S
H2008 C2018 0.950 . S
H2009 C2020 0.950 . S
H2010 C2022 0.950 . S
H2011 C2023 0.950 . S
C2012 H2004 0.950 . S
C2012 C2013 1.386 . S
C2012 C2014 1.391 1_565 S
C2013 C2012 1.386 . S
C2013 C2017 1.393 1_565 S
C2014 H2006 0.950 . S
C2014 C2012 1.391 1_545 S
C2014 C2015 1.400 . S
C2015 C2014 1.400 . S
C2015 C2016 1.398 . S
C2015 C2021 1.491 . S
C2016 H2007 0.950 . S
C2016 C2015 1.398 . S
C2016 C2017 1.391 . S
C2017 H2005 0.950 . S
C2017 C2013 1.393 1_545 S
C2017 C2016 1.391 . S
C2018 H2008 0.950 . S
C2018 C2019 1.386 . S
C2018 C2020 1.391 . S
C2019 C2018 1.386 . S
C2019 C2023 1.393 . S
C2020 H2009 0.950 . S
C2020 C2018 1.391 . S
C2020 C2021 1.400 . S
C2021 C2015 1.491 . S
C2021 C2020 1.400 . S
C2021 C2022 1.398 . S
C2022 H2010 0.950 . S
C2022 C2021 1.398 . S
C2022 C2023 1.391 . S
C2023 H2011 0.950 . S
C2023 C2019 1.393 . S
C2023 C2022 1.391 . S
H2024 C2032 0.950 . S
H2025 C2037 0.950 . S
H2026 C2034 0.950 . S
H2027 C2036 0.950 . S
H2028 C2038 0.950 . S
H2029 C2040 0.950 . S
H2030 C2042 0.960 . S
H2031 C2043 0.950 . S
C2032 H2024 0.950 . S
C2032 C2033 1.386 . S
C2032 C2034 1.391 . S
C2033 C2032 1.386 . S
C2033 C2037 1.393 1_655 S
C2034 H2026 0.950 . S
C2034 C2032 1.391 . S
C2034 C2035 1.400 1_655 S
C2035 C2034 1.400 1_455 S
C2035 C2036 1.398 . S
C2035 C2041 1.491 . S
C2036 H2027 0.950 . S
C2036 C2035 1.398 . S
C2036 C2037 1.391 . S
C2037 H2025 0.950 . S
C2037 C2033 1.393 1_455 S
C2037 C2036 1.391 . S
C2038 H2028 0.950 . S
C2038 C2039 1.386 . S
C2038 C2040 1.391 . S
C2039 C2038 1.386 . S
C2039 C2043 1.393 1_545 S
C2040 H2029 0.950 . S
C2040 C2038 1.391 . S
C2040 C2041 1.400 . S
C2041 C2035 1.491 . S
C2041 C2040 1.400 . S
C2041 C2042 1.398 . S
C2042 H2030 0.960 . S
C2042 C2041 1.398 . S
C2042 C2043 1.391 1_545 S
C2043 H2031 0.950 . S
C2043 C2039 1.393 1_565 S
C2043 C2042 1.391 1_565 S
H2044 C2052 0.950 . S
H2045 C2057 0.950 . S
H2046 C2054 0.950 . S
H2047 C2056 0.950 . S
H2048 C2058 0.950 . S
H2049 C2060 0.950 . S
H2050 C2062 0.950 . S
H2051 C2063 0.950 . S
C2052 H2044 0.950 . S
C2052 C2053 1.386 . S
C2052 C2054 1.391 . S
C2053 C2052 1.386 . S
C2053 C2057 1.393 . S
C2054 H2046 0.950 . S
C2054 C2052 1.391 . S
C2054 C2055 1.400 . S
C2055 C2054 1.400 . S
C2055 C2056 1.398 . S
C2055 C2061 1.491 . S
C2056 H2047 0.950 . S
C2056 C2055 1.398 . S
C2056 C2057 1.391 . S
C2057 H2045 0.950 . S
C2057 C2053 1.393 . S
C2057 C2056 1.391 . S
C2058 H2048 0.950 . S
C2058 C2059 1.386 . S
C2058 C2060 1.391 . S
C2059 C2058 1.386 . S
C2059 C2063 1.393 . S
C2060 H2049 0.950 . S
C2060 C2058 1.391 . S
C2060 C2061 1.400 . S
C2061 C2055 1.491 . S
C2061 C2060 1.400 . S
C2061 C2062 1.398 . S
C2062 H2050 0.950 . S
C2062 C2061 1.398 . S
C2062 C2063 1.391 . S
C2063 H2051 0.950 . S
C2063 C2059 1.393 . S
C2063 C2062 1.391 . S
H2064 C2072 0.950 . S
H2065 C2077 0.950 . S
H2066 C2074 0.950 . S
H2067 C2076 0.950 . S
H2068 C2078 0.950 . S
H2069 C2080 0.950 . S
H2070 C2082 0.950 . S
H2071 C2083 0.950 . S
C2072 H2064 0.950 . S
C2072 C2073 1.386 . S
C2072 C2074 1.391 . S
C2073 C2072 1.386 . S
C2073 C2077 1.393 1_655 S
C2074 H2066 0.950 . S
C2074 C2072 1.391 . S
C2074 C2075 1.400 . S
C2075 C2074 1.400 . S
C2075 C2076 1.398 1_655 S
C2075 C2081 1.491 . S
C2076 H2067 0.950 . S
C2076 C2075 1.398 1_455 S
C2076 C2077 1.391 . S
C2077 H2065 0.950 . S
C2077 C2073 1.393 1_455 S
C2077 C2076 1.391 . S
C2078 H2068 0.950 . S
C2078 C2079 1.386 1_455 S
C2078 C2080 1.391 . S
C2079 C2078 1.386 1_655 S
C2079 C2083 1.393 . S
C2080 H2069 0.950 . S
C2080 C2078 1.391 . S
C2080 C2081 1.400 1_455 S
C2081 C2075 1.491 . S
C2081 C2080 1.400 1_655 S
C2081 C2082 1.398 . S
C2082 H2070 0.950 . S
C2082 C2081 1.398 . S
C2082 C2083 1.391 . S
C2083 H2071 0.950 . S
C2083 C2079 1.393 . S
C2083 C2082 1.391 . S
H2084 C2092 0.950 1_545 S
H2085 C2097 0.950 . S
H2086 C2094 0.950 . S
H2087 C2096 0.950 . S
H2088 C2098 0.950 . S
H2089 C2100 0.950 . S
H2090 C2102 0.950 . S
H2091 C2103 0.950 . S
C2092 H2084 0.950 1_565 S
C2092 C2093 1.386 1_565 S
C2092 C2094 1.391 . S
C2093 C2092 1.386 1_545 S
C2093 C2097 1.393 1_545 S
C2094 H2086 0.950 . S
C2094 C2092 1.391 . S
C2094 C2095 1.400 . S
C2095 C2094 1.400 . S
C2095 C2096 1.398 . S
C2095 C2101 1.491 . S
C2096 H2087 0.950 . S
C2096 C2095 1.398 . S
C2096 C2097 1.391 . S
C2097 H2085 0.950 . S
C2097 C2093 1.393 1_565 S
C2097 C2096 1.391 . S
C2098 H2088 0.950 . S
C2098 C2099 1.386 . S
C2098 C2100 1.391 . S
C2099 C2098 1.386 . S
C2099 C2103 1.393 . S
C2100 H2089 0.950 . S
C2100 C2098 1.391 . S
C2100 C2101 1.400 . S
C2101 C2095 1.491 . S
C2101 C2100 1.400 . S
C2101 C2102 1.398 . S
C2102 H2090 0.950 . S
C2102 C2101 1.398 . S
C2102 C2103 1.391 . S
C2103 H2091 0.950 . S
C2103 C2099 1.393 . S
C2103 C2102 1.391 . S
H2104 C2112 0.950 . S
H2105 C2117 0.950 . S
H2106 C2114 0.950 . S
H2107 C2116 0.950 . S
H2108 C2118 0.950 . S
H2109 C2120 0.950 . S
H2110 C2122 0.950 . S
H2111 C2123 0.950 . S
C2112 H2104 0.950 . S
C2112 C2113 1.386 . S
C2112 C2114 1.391 . S
C2113 C2112 1.386 . S
C2113 C2117 1.393 1_455 S
C2114 H2106 0.950 . S
C2114 C2112 1.391 . S
C2114 C2115 1.400 1_455 S
C2115 C2114 1.400 1_655 S
C2115 C2116 1.398 . S
C2115 C2121 1.491 . S
C2116 H2107 0.950 . S
C2116 C2115 1.398 . S
C2116 C2117 1.391 . S
C2117 H2105 0.950 . S
C2117 C2113 1.393 1_655 S
C2117 C2116 1.391 . S
C2118 H2108 0.950 . S
C2118 C2119 1.386 . S
C2118 C2120 1.391 . S
C2119 C2118 1.386 . S
C2119 C2123 1.393 1_655 S
C2120 H2109 0.950 . S
C2120 C2118 1.391 . S
C2120 C2121 1.400 . S
C2121 C2115 1.491 . S
C2121 C2120 1.400 . S
C2121 C2122 1.398 1_655 S
C2122 H2110 0.950 . S
C2122 C2121 1.398 1_455 S
C2122 C2123 1.391 . S
C2123 H2111 0.950 . S
C2123 C2119 1.393 1_455 S
C2123 C2122 1.391 . S
H2124 C2132 0.950 . S
H2125 C2137 0.950 . S
H2126 C2134 0.950 . S
H2127 C2136 0.950 . S
H2128 C2138 0.950 . S
H2129 C2140 0.950 . S
H2130 C2142 0.950 . S
H2131 C2143 0.950 . S
C2132 H2124 0.950 . S
C2132 C2133 1.386 . S
C2132 C2134 1.391 . S
C2133 C2132 1.386 . S
C2133 C2137 1.393 . S
C2134 H2126 0.950 . S
C2134 C2132 1.391 . S
C2134 C2135 1.400 . S
C2135 C2134 1.400 . S
C2135 C2136 1.398 . S
C2135 C2141 1.491 . S
C2136 H2127 0.950 . S
C2136 C2135 1.398 . S
C2136 C2137 1.391 . S
C2137 H2125 0.950 . S
C2137 C2133 1.393 . S
C2137 C2136 1.391 . S
C2138 H2128 0.950 . S
C2138 C2139 1.386 . S
C2138 C2140 1.391 . S
C2139 C2138 1.386 . S
C2139 C2143 1.393 . S
C2140 H2129 0.950 . S
C2140 C2138 1.391 . S
C2140 C2141 1.400 . S
C2141 C2135 1.491 . S
C2141 C2140 1.400 . S
C2141 C2142 1.398 . S
C2142 H2130 0.950 . S
C2142 C2141 1.398 . S
C2142 C2143 1.391 . S
C2143 H2131 0.950 . S
C2143 C2139 1.393 . S
C2143 C2142 1.391 . S
H2144 C2152 0.950 . S
H2145 C2157 0.950 . S
H2146 C2154 0.950 . S
H2147 C2156 0.950 . S
H2148 C2158 0.950 . S
H2149 C2160 0.950 . S
H2150 C2162 0.950 . S
H2151 C2163 0.950 . S
C2152 H2144 0.950 . S
C2152 C2153 1.386 . S
C2152 C2154 1.391 . S
C2153 C2152 1.386 . S
C2153 C2157 1.393 1_455 S
C2154 H2146 0.950 . S
C2154 C2152 1.391 . S
C2154 C2155 1.400 . S
C2155 C2154 1.400 . S
C2155 C2156 1.398 1_455 S
C2155 C2161 1.491 . S
C2156 H2147 0.950 . S
C2156 C2155 1.398 1_655 S
C2156 C2157 1.391 . S
C2157 H2145 0.950 . S
C2157 C2153 1.393 1_655 S
C2157 C2156 1.391 . S
C2158 H2148 0.950 . S
C2158 C2159 1.386 1_655 S
C2158 C2160 1.391 . S
C2159 C2158 1.386 1_455 S
C2159 C2163 1.393 . S
C2160 H2149 0.950 . S
C2160 C2158 1.391 . S
C2160 C2161 1.400 1_655 S
C2161 C2155 1.491 . S
C2161 C2160 1.400 1_455 S
C2161 C2162 1.398 . S
C2162 H2150 0.950 . S
C2162 C2161 1.398 . S
C2162 C2163 1.391 . S
C2163 H2151 0.950 . S
C2163 C2159 1.393 . S
C2163 C2162 1.391 . S
H2164 C2172 0.950 . S
H2165 C2177 0.950 . S
H2166 C2174 0.950 . S
H2167 C2176 0.950 . S
H2168 C2178 0.950 . S
H2169 C2180 0.950 . S
H2170 C2182 0.950 . S
H2171 C2183 0.950 . S
C2172 H2164 0.950 . S
C2172 C2173 1.386 . S
C2172 C2174 1.391 . S
C2173 C2172 1.386 . S
C2173 C2177 1.393 . S
C2174 H2166 0.950 . S
C2174 C2172 1.391 . S
C2174 C2175 1.400 . S
C2175 C2174 1.400 . S
C2175 C2176 1.398 . S
C2175 C2181 1.491 . S
C2176 H2167 0.950 . S
C2176 C2175 1.398 . S
C2176 C2177 1.391 . S
C2177 H2165 0.950 . S
C2177 C2173 1.393 . S
C2177 C2176 1.391 . S
C2178 H2168 0.950 . S
C2178 C2179 1.386 . S
C2178 C2180 1.391 . S
C2179 C2178 1.386 . S
C2179 C2183 1.393 . S
C2180 H2169 0.950 . S
C2180 C2178 1.391 . S
C2180 C2181 1.400 . S
C2181 C2175 1.491 . S
C2181 C2180 1.400 . S
C2181 C2182 1.398 . S
C2182 H2170 0.950 . S
C2182 C2181 1.398 . S
C2182 C2183 1.391 . S
C2183 H2171 0.950 . S
C2183 C2179 1.393 . S
C2183 C2182 1.391 . S
H2184 C2192 0.950 . S
H2185 C2197 0.950 . S
H2186 C2194 0.950 . S
H2187 C2196 0.950 . S
H2188 C2198 0.950 . S
H2189 C2200 0.950 . S
H2190 C2202 0.950 . S
H2191 C2203 0.950 . S
C2192 H2184 0.950 . S
C2192 C2193 1.386 1_655 S
C2192 C2194 1.391 . S
C2193 C2192 1.386 1_455 S
C2193 C2197 1.393 . S
C2194 H2186 0.950 . S
C2194 C2192 1.391 . S
C2194 C2195 1.400 1_655 S
C2195 C2194 1.400 1_455 S
C2195 C2196 1.398 . S
C2195 C2201 1.491 . S
C2196 H2187 0.950 . S
C2196 C2195 1.398 . S
C2196 C2197 1.391 . S
C2197 H2185 0.950 . S
C2197 C2193 1.393 . S
C2197 C2196 1.391 . S
C2198 H2188 0.950 . S
C2198 C2199 1.386 1_455 S
C2198 C2200 1.391 . S
C2199 C2198 1.386 1_655 S
C2199 C2203 1.393 . S
C2200 H2189 0.950 . S
C2200 C2198 1.391 . S
C2200 C2201 1.400 . S
C2201 C2195 1.491 . S
C2201 C2200 1.400 . S
C2201 C2202 1.398 1_455 S
C2202 H2190 0.950 . S
C2202 C2201 1.398 1_655 S
C2202 C2203 1.391 . S
C2203 H2191 0.950 . S
C2203 C2199 1.393 . S
C2203 C2202 1.391 . S
H2204 C2212 0.950 . S
H2205 C2217 0.950 . S
H2206 C2214 0.950 . S
H2207 C2216 0.950 . S
H2208 C2218 0.950 . S
H2209 C2220 0.950 . S
H2210 C2222 0.950 . S
H2211 C2223 0.950 . S
C2212 H2204 0.950 . S
C2212 C2213 1.386 . S
C2212 C2214 1.391 . S
C2213 C2212 1.386 . S
C2213 C2217 1.393 . S
C2214 H2206 0.950 . S
C2214 C2212 1.391 . S
C2214 C2215 1.400 . S
C2215 C2214 1.400 . S
C2215 C2216 1.398 . S
C2215 C2221 1.491 . S
C2216 H2207 0.950 . S
C2216 C2215 1.398 . S
C2216 C2217 1.391 . S
C2217 H2205 0.950 . S
C2217 C2213 1.393 . S
C2217 C2216 1.391 . S
C2218 H2208 0.950 . S
C2218 C2219 1.386 . S
C2218 C2220 1.391 . S
C2219 C2218 1.386 . S
C2219 C2223 1.393 . S
C2220 H2209 0.950 . S
C2220 C2218 1.391 . S
C2220 C2221 1.400 . S
C2221 C2215 1.491 . S
C2221 C2220 1.400 . S
C2221 C2222 1.398 . S
C2222 H2210 0.950 . S
C2222 C2221 1.398 . S
C2222 C2223 1.391 . S
C2223 H2211 0.950 . S
C2223 C2219 1.393 . S
C2223 C2222 1.391 . S
H2224 C2232 0.950 . S
H2225 C2237 0.950 . S
H2226 C2234 0.950 . S
H2227 C2236 0.950 . S
H2228 C2238 0.950 . S
H2229 C2240 0.950 . S
H2230 C2242 0.950 . S
H2231 C2243 0.950 . S
C2232 H2224 0.950 . S
C2232 C2233 1.386 . S
C2232 C2234 1.391 . S
C2233 C2232 1.386 . S
C2233 C2237 1.393 1_655 S
C2234 H2226 0.950 . S
C2234 C2232 1.391 . S
C2234 C2235 1.400 . S
C2235 C2234 1.400 . S
C2235 C2236 1.398 1_655 S
C2235 C2241 1.491 . S
C2236 H2227 0.950 . S
C2236 C2235 1.398 1_455 S
C2236 C2237 1.391 . S
C2237 H2225 0.950 . S
C2237 C2233 1.393 1_455 S
C2237 C2236 1.391 . S
C2238 H2228 0.950 . S
C2238 C2239 1.386 1_455 S
C2238 C2240 1.391 . S
C2239 C2238 1.386 1_655 S
C2239 C2243 1.393 . S
C2240 H2229 0.950 . S
C2240 C2238 1.391 . S
C2240 C2241 1.400 1_455 S
C2241 C2235 1.491 . S
C2241 C2240 1.400 1_655 S
C2241 C2242 1.398 . S
C2242 H2230 0.950 . S
C2242 C2241 1.398 . S
C2242 C2243 1.391 . S
C2243 H2231 0.950 . S
C2243 C2239 1.393 . S
C2243 C2242 1.391 . S
H2244 C2252 0.950 . S
H2245 C2257 0.950 . S
H2246 C2254 0.950 . S
H2247 C2256 0.950 . S
H2248 C2258 0.950 . S
H2249 C2260 0.950 . S
H2250 C2262 0.950 . S
H2251 C2263 0.950 . S
C2252 H2244 0.950 . S
C2252 C2253 1.386 . S
C2252 C2254 1.391 . S
C2253 C2252 1.386 . S
C2253 C2257 1.393 . S
C2254 H2246 0.950 . S
C2254 C2252 1.391 . S
C2254 C2255 1.400 . S
C2255 C2254 1.400 . S
C2255 C2256 1.398 . S
C2255 C2261 1.491 . S
C2256 H2247 0.950 . S
C2256 C2255 1.398 . S
C2256 C2257 1.391 . S
C2257 H2245 0.950 . S
C2257 C2253 1.393 . S
C2257 C2256 1.391 . S
C2258 H2248 0.950 . S
C2258 C2259 1.386 . S
C2258 C2260 1.391 . S
C2259 C2258 1.386 . S
C2259 C2263 1.393 . S
C2260 H2249 0.950 . S
C2260 C2258 1.391 . S
C2260 C2261 1.400 . S
C2261 C2255 1.491 . S
C2261 C2260 1.400 . S
C2261 C2262 1.398 . S
C2262 H2250 0.950 . S
C2262 C2261 1.398 . S
C2262 C2263 1.391 . S
C2263 H2251 0.950 . S
C2263 C2259 1.393 . S
C2263 C2262 1.391 . S
H2264 C2272 0.950 . S
H2265 C2277 0.950 . S
H2266 C2274 0.950 . S
H2267 C2276 0.950 . S
H2268 C2278 0.950 . S
H2269 C2280 0.950 . S
H2270 C2282 0.950 . S
H2271 C2283 0.950 . S
C2272 H2264 0.950 . S
C2272 C2273 1.386 . S
C2272 C2274 1.391 . S
C2273 C2272 1.386 . S
C2273 C2277 1.393 1_655 S
C2274 H2266 0.950 . S
C2274 C2272 1.391 . S
C2274 C2275 1.400 . S
C2275 C2274 1.400 . S
C2275 C2276 1.398 1_655 S
C2275 C2281 1.491 . S
C2276 H2267 0.950 . S
C2276 C2275 1.398 1_455 S
C2276 C2277 1.391 . S
C2277 H2265 0.950 . S
C2277 C2273 1.393 1_455 S
C2277 C2276 1.391 . S
C2278 H2268 0.950 . S
C2278 C2279 1.386 . S
C2278 C2280 1.391 . S
C2279 C2278 1.386 . S
C2279 C2283 1.393 1_455 S
C2280 H2269 0.950 . S
C2280 C2278 1.391 . S
C2280 C2281 1.400 1_455 S
C2281 C2275 1.491 . S
C2281 C2280 1.400 1_655 S
C2281 C2282 1.398 . S
C2282 H2270 0.950 . S
C2282 C2281 1.398 . S
C2282 C2283 1.391 . S
C2283 H2271 0.950 . S
C2283 C2279 1.393 1_655 S
C2283 C2282 1.391 . S
H2284 C2292 0.950 . S
H2285 C2297 0.950 . S
H2286 C2294 0.950 . S
H2287 C2296 0.950 . S
H2288 C2298 0.950 . S
H2289 C2300 0.950 . S
H2290 C2302 0.950 . S
H2291 C2303 0.950 . S
C2292 H2284 0.950 . S
C2292 C2293 1.386 . S
C2292 C2294 1.391 . S
C2293 C2292 1.386 . S
C2293 C2297 1.393 . S
C2294 H2286 0.950 . S
C2294 C2292 1.391 . S
C2294 C2295 1.400 . S
C2295 C2294 1.400 . S
C2295 C2296 1.398 . S
C2295 C2301 1.491 . S
C2296 H2287 0.950 . S
C2296 C2295 1.398 . S
C2296 C2297 1.391 . S
C2297 H2285 0.950 . S
C2297 C2293 1.393 . S
C2297 C2296 1.391 . S
C2298 H2288 0.950 . S
C2298 C2299 1.386 . S
C2298 C2300 1.391 . S
C2299 C2298 1.386 . S
C2299 C2303 1.393 . S
C2300 H2289 0.950 . S
C2300 C2298 1.391 . S
C2300 C2301 1.400 . S
C2301 C2295 1.491 . S
C2301 C2300 1.400 . S
C2301 C2302 1.398 . S
C2302 H2290 0.950 . S
C2302 C2301 1.398 . S
C2302 C2303 1.391 . S
C2303 H2291 0.950 . S
C2303 C2299 1.393 . S
C2303 C2302 1.391 . S
H2304 C2312 0.950 . S
H2305 C2317 0.950 . S
H2306 C2314 0.950 . S
H2307 C2316 0.950 . S
H2308 C2318 0.950 . S
H2309 C2320 0.950 . S
H2310 C2322 0.950 . S
H2311 C2323 0.950 . S
C2312 H2304 0.950 . S
C2312 C2313 1.386 . S
C2312 C2314 1.391 . S
C2313 C2312 1.386 . S
C2313 C2317 1.393 . S
C2314 H2306 0.950 . S
C2314 C2312 1.391 . S
C2314 C2315 1.400 . S
C2315 C2314 1.400 . S
C2315 C2316 1.398 . S
C2315 C2321 1.491 . S
C2316 H2307 0.950 . S
C2316 C2315 1.398 . S
C2316 C2317 1.391 . S
C2317 H2305 0.950 . S
C2317 C2313 1.393 . S
C2317 C2316 1.391 . S
C2318 H2308 0.950 . S
C2318 C2319 1.386 . S
C2318 C2320 1.391 . S
C2319 C2318 1.386 . S
C2319 C2323 1.393 . S
C2320 H2309 0.950 . S
C2320 C2318 1.391 . S
C2320 C2321 1.400 . S
C2321 C2315 1.491 . S
C2321 C2320 1.400 . S
C2321 C2322 1.398 . S
C2322 H2310 0.950 . S
C2322 C2321 1.398 . S
C2322 C2323 1.391 . S
C2323 H2311 0.950 . S
C2323 C2319 1.393 . S
C2323 C2322 1.391 . S
H2324 C2332 0.950 . S
H2325 C2337 0.950 . S
H2326 C2334 0.950 . S
H2327 C2336 0.950 . S
H2328 C2338 0.950 . S
H2329 C2340 0.950 . S
H2330 C2342 0.950 . S
H2331 C2343 0.950 . S
C2332 H2324 0.950 . S
C2332 C2333 1.386 . S
C2332 C2334 1.391 1_565 S
C2333 C2332 1.386 . S
C2333 C2337 1.393 1_565 S
C2334 H2326 0.950 . S
C2334 C2332 1.391 1_545 S
C2334 C2335 1.400 . S
C2335 C2334 1.400 . S
C2335 C2336 1.398 . S
C2335 C2341 1.491 . S
C2336 H2327 0.950 . S
C2336 C2335 1.398 . S
C2336 C2337 1.391 . S
C2337 H2325 0.950 . S
C2337 C2333 1.393 1_545 S
C2337 C2336 1.391 . S
C2338 H2328 0.950 . S
C2338 C2339 1.386 . S
C2338 C2340 1.391 . S
C2339 C2338 1.386 . S
C2339 C2343 1.393 . S
C2340 H2329 0.950 . S
C2340 C2338 1.391 . S
C2340 C2341 1.400 . S
C2341 C2335 1.491 . S
C2341 C2340 1.400 . S
C2341 C2342 1.398 . S
C2342 H2330 0.950 . S
C2342 C2341 1.398 . S
C2342 C2343 1.391 . S
C2343 H2331 0.950 . S
C2343 C2339 1.393 . S
C2343 C2342 1.391 . S
H2344 C2352 0.950 . S
H2345 C2357 0.950 . S
H2346 C2354 0.950 . S
H2347 C2356 0.950 . S
H2348 C2358 0.950 . S
H2349 C2360 0.950 . S
H2350 C2362 0.950 . S
H2351 C2363 0.950 . S
C2352 H2344 0.950 . S
C2352 C2353 1.386 . S
C2352 C2354 1.391 . S
C2353 C2352 1.386 . S
C2353 C2357 1.393 . S
C2354 H2346 0.950 . S
C2354 C2352 1.391 . S
C2354 C2355 1.400 . S
C2355 C2354 1.400 . S
C2355 C2356 1.398 . S
C2355 C2361 1.491 . S
C2356 H2347 0.950 . S
C2356 C2355 1.398 . S
C2356 C2357 1.391 . S
C2357 H2345 0.950 . S
C2357 C2353 1.393 . S
C2357 C2356 1.391 . S
C2358 H2348 0.950 . S
C2358 C2359 1.386 . S
C2358 C2360 1.391 . S
C2359 C2358 1.386 . S
C2359 C2363 1.393 . S
C2360 H2349 0.950 . S
C2360 C2358 1.391 . S
C2360 C2361 1.400 . S
C2361 C2355 1.491 . S
C2361 C2360 1.400 . S
C2361 C2362 1.398 . S
C2362 H2350 0.950 . S
C2362 C2361 1.398 . S
C2362 C2363 1.391 . S
C2363 H2351 0.950 . S
C2363 C2359 1.393 . S
C2363 C2362 1.391 . S
H2364 C2372 0.950 . S
H2365 C2377 0.950 . S
H2366 C2374 0.950 . S
H2367 C2376 0.950 . S
H2368 C2378 0.950 . S
H2369 C2380 0.950 . S
H2370 C2382 0.950 . S
H2371 C2383 0.950 . S
C2372 H2364 0.950 . S
C2372 C2373 1.386 . S
C2372 C2374 1.391 . S
C2373 C2372 1.386 . S
C2373 C2377 1.393 . S
C2374 H2366 0.950 . S
C2374 C2372 1.391 . S
C2374 C2375 1.400 . S
C2375 C2374 1.400 . S
C2375 C2376 1.398 . S
C2375 C2381 1.491 . S
C2376 H2367 0.950 . S
C2376 C2375 1.398 . S
C2376 C2377 1.391 . S
C2377 H2365 0.950 . S
C2377 C2373 1.393 . S
C2377 C2376 1.391 . S
C2378 H2368 0.950 . S
C2378 C2379 1.386 . S
C2378 C2380 1.391 . S
C2379 C2378 1.386 . S
C2379 C2383 1.393 . S
C2380 H2369 0.950 . S
C2380 C2378 1.391 . S
C2380 C2381 1.400 . S
C2381 C2375 1.491 . S
C2381 C2380 1.400 . S
C2381 C2382 1.398 . S
C2382 H2370 0.950 . S
C2382 C2381 1.398 . S
C2382 C2383 1.391 . S
C2383 H2371 0.950 . S
C2383 C2379 1.393 . S
C2383 C2382 1.391 . S
H2384 C2392 0.950 . S
H2385 C2397 0.950 . S
H2386 C2394 0.950 . S
H2387 C2396 0.950 . S
H2388 C2398 0.950 . S
H2389 C2400 0.950 . S
H2390 C2402 0.950 . S
H2391 C2403 0.950 . S
C2392 H2384 0.950 . S
C2392 C2393 1.386 . S
C2392 C2394 1.391 . S
C2393 C2392 1.386 . S
C2393 C2397 1.393 . S
C2394 H2386 0.950 . S
C2394 C2392 1.391 . S
C2394 C2395 1.400 . S
C2395 C2394 1.400 . S
C2395 C2396 1.398 . S
C2395 C2401 1.491 . S
C2396 H2387 0.950 . S
C2396 C2395 1.398 . S
C2396 C2397 1.391 . S
C2397 H2385 0.950 . S
C2397 C2393 1.393 . S
C2397 C2396 1.391 . S
C2398 H2388 0.950 . S
C2398 C2399 1.386 . S
C2398 C2400 1.391 . S
C2399 C2398 1.386 . S
C2399 C2403 1.393 . S
C2400 H2389 0.950 . S
C2400 C2398 1.391 . S
C2400 C2401 1.400 . S
C2401 C2395 1.491 . S
C2401 C2400 1.400 . S
C2401 C2402 1.398 . S
C2402 H2390 0.950 . S
C2402 C2401 1.398 . S
C2402 C2403 1.391 . S
C2403 H2391 0.950 . S
C2403 C2399 1.393 . S
C2403 C2402 1.391 . S
H2404 C2412 0.950 . S
H2405 C2417 0.945 1_545 S
H2406 C2414 0.950 . S
H2407 C2416 0.950 . S
H2408 C2418 0.950 . S
H2409 C2420 0.950 . S
H2410 C2422 0.950 . S
H2411 C2423 0.950 . S
C2412 H2404 0.950 . S
C2412 C2413 1.386 1_565 S
C2412 C2414 1.391 . S
C2413 C2412 1.386 1_545 S
C2413 C2417 1.390 1_545 S
C2414 H2406 0.950 . S
C2414 C2412 1.391 . S
C2414 C2415 1.400 . S
C2415 C2414 1.400 . S
C2415 C2416 1.398 . S
C2415 C2421 1.491 . S
C2416 H2407 0.950 . S
C2416 C2415 1.398 . S
C2416 C2417 1.398 . S
C2417 H2405 0.945 1_565 S
C2417 C2413 1.390 1_565 S
C2417 C2416 1.398 . S
C2418 H2408 0.950 . S
C2418 C2419 1.386 . S
C2418 C2420 1.391 . S
C2419 C2418 1.386 . S
C2419 C2423 1.393 . S
C2420 H2409 0.950 . S
C2420 C2418 1.391 . S
C2420 C2421 1.400 . S
C2421 C2415 1.491 . S
C2421 C2420 1.400 . S
C2421 C2422 1.398 . S
C2422 H2410 0.950 . S
C2422 C2421 1.398 . S
C2422 C2423 1.391 . S
C2423 H2411 0.950 . S
C2423 C2419 1.393 . S
C2423 C2422 1.391 . S
H2424 C2432 0.950 . S
H2425 C2437 0.950 . S
H2426 C2434 0.950 . S
H2427 C2436 0.950 . S
H2428 C2438 0.950 . S
H2429 C2440 0.950 . S
H2430 C2442 0.950 . S
H2431 C2443 0.950 . S
C2432 H2424 0.950 . S
C2432 C2433 1.386 . S
C2432 C2434 1.391 . S
C2433 C2432 1.386 . S
C2433 C2437 1.393 . S
C2434 H2426 0.950 . S
C2434 C2432 1.391 . S
C2434 C2435 1.400 . S
C2435 C2434 1.400 . S
C2435 C2436 1.398 . S
C2435 C2441 1.491 . S
C2436 H2427 0.950 . S
C2436 C2435 1.398 . S
C2436 C2437 1.391 . S
C2437 H2425 0.950 . S
C2437 C2433 1.393 . S
C2437 C2436 1.391 . S
C2438 H2428 0.950 . S
C2438 C2439 1.386 1_545 S
C2438 C2440 1.391 1_545 S
C2439 C2438 1.386 1_565 S
C2439 C2443 1.393 . S
C2440 H2429 0.950 . S
C2440 C2438 1.391 1_565 S
C2440 C2441 1.400 . S
C2441 C2435 1.491 . S
C2441 C2440 1.400 . S
C2441 C2442 1.398 . S
C2442 H2430 0.950 . S
C2442 C2441 1.398 . S
C2442 C2443 1.391 . S
C2443 H2431 0.950 . S
C2443 C2439 1.393 . S
C2443 C2442 1.391 . S
H2444 C2452 0.950 . S
H2445 C2457 0.950 . S
H2446 C2454 0.950 . S
H2447 C2456 0.950 . S
H2448 C2458 0.950 . S
H2449 C2460 0.950 . S
H2450 C2462 0.950 . S
H2451 C2463 0.950 . S
C2452 H2444 0.950 . S
C2452 C2453 1.386 . S
C2452 C2454 1.391 . S
C2453 C2452 1.386 . S
C2453 C2457 1.393 . S
C2454 H2446 0.950 . S
C2454 C2452 1.391 . S
C2454 C2455 1.400 . S
C2455 C2454 1.400 . S
C2455 C2456 1.398 . S
C2455 C2461 1.491 . S
C2456 H2447 0.950 . S
C2456 C2455 1.398 . S
C2456 C2457 1.391 . S
C2457 H2445 0.950 . S
C2457 C2453 1.393 . S
C2457 C2456 1.391 . S
C2458 H2448 0.950 . S
C2458 C2459 1.386 . S
C2458 C2460 1.391 . S
C2459 C2458 1.386 . S
C2459 C2463 1.393 . S
C2460 H2449 0.950 . S
C2460 C2458 1.391 . S
C2460 C2461 1.400 . S
C2461 C2455 1.491 . S
C2461 C2460 1.400 . S
C2461 C2462 1.398 . S
C2462 H2450 0.950 . S
C2462 C2461 1.398 . S
C2462 C2463 1.391 . S
C2463 H2451 0.950 . S
C2463 C2459 1.393 . S
C2463 C2462 1.391 . S
H2464 C2472 0.950 . S
H2465 C2477 0.950 . S
H2466 C2474 0.950 . S
H2467 C2476 0.950 . S
H2468 C2478 0.950 . S
H2469 C2480 0.950 . S
H2470 C2482 0.950 . S
H2471 C2483 0.950 . S
C2472 H2464 0.950 . S
C2472 C2473 1.386 . S
C2472 C2474 1.391 . S
C2473 C2472 1.386 . S
C2473 C2477 1.393 . S
C2474 H2466 0.950 . S
C2474 C2472 1.391 . S
C2474 C2475 1.400 . S
C2475 C2474 1.400 . S
C2475 C2476 1.398 . S
C2475 C2481 1.491 . S
C2476 H2467 0.950 . S
C2476 C2475 1.398 . S
C2476 C2477 1.391 . S
C2477 H2465 0.950 . S
C2477 C2473 1.393 . S
C2477 C2476 1.391 . S
C2478 H2468 0.950 . S
C2478 C2479 1.386 . S
C2478 C2480 1.391 . S
C2479 C2478 1.386 . S
C2479 C2483 1.393 . S
C2480 H2469 0.950 . S
C2480 C2478 1.391 . S
C2480 C2481 1.400 . S
C2481 C2475 1.491 . S
C2481 C2480 1.400 . S
C2481 C2482 1.398 . S
C2482 H2470 0.950 . S
C2482 C2481 1.398 . S
C2482 C2483 1.391 . S
C2483 H2471 0.950 . S
C2483 C2479 1.393 . S
C2483 C2482 1.391 . S
H2484 C2492 0.950 . S
H2485 C2497 0.950 . S
H2486 C2494 0.950 . S
H2487 C2496 0.950 . S
H2488 C2498 0.950 . S
H2489 C2500 0.950 . S
H2490 C2502 0.950 . S
H2491 C2503 0.950 . S
C2492 H2484 0.950 . S
C2492 C2493 1.386 . S
C2492 C2494 1.391 . S
C2493 C2492 1.386 . S
C2493 C2497 1.393 . S
C2494 H2486 0.950 . S
C2494 C2492 1.391 . S
C2494 C2495 1.400 . S
C2495 C2494 1.400 . S
C2495 C2496 1.398 . S
C2495 C2501 1.491 . S
C2496 H2487 0.950 . S
C2496 C2495 1.398 . S
C2496 C2497 1.391 . S
C2497 H2485 0.950 . S
C2497 C2493 1.393 . S
C2497 C2496 1.391 . S
C2498 H2488 0.950 . S
C2498 C2499 1.386 . S
C2498 C2500 1.391 . S
C2499 C2498 1.386 . S
C2499 C2503 1.393 . S
C2500 H2489 0.950 . S
C2500 C2498 1.391 . S
C2500 C2501 1.400 . S
C2501 C2495 1.491 . S
C2501 C2500 1.400 . S
C2501 C2502 1.398 . S
C2502 H2490 0.950 . S
C2502 C2501 1.398 . S
C2502 C2503 1.391 . S
C2503 H2491 0.950 . S
C2503 C2499 1.393 . S
C2503 C2502 1.391 . S
H2504 C2512 0.950 . S
H2505 C2517 0.950 . S
H2506 C2514 0.950 . S
H2507 C2516 0.950 . S
H2508 C2518 0.950 . S
H2509 C2520 0.950 . S
H2510 C2522 0.950 . S
H2511 C2523 0.950 . S
C2512 H2504 0.950 . S
C2512 C2513 1.386 . S
C2512 C2514 1.391 . S
C2513 C2512 1.386 . S
C2513 C2517 1.393 . S
C2514 H2506 0.950 . S
C2514 C2512 1.391 . S
C2514 C2515 1.400 . S
C2515 C2514 1.400 . S
C2515 C2516 1.398 . S
C2515 C2521 1.491 . S
C2516 H2507 0.950 . S
C2516 C2515 1.398 . S
C2516 C2517 1.391 . S
C2517 H2505 0.950 . S
C2517 C2513 1.393 . S
C2517 C2516 1.391 . S
C2518 H2508 0.950 . S
C2518 C2519 1.386 . S
C2518 C2520 1.391 . S
C2519 C2518 1.386 . S
C2519 C2523 1.393 . S
C2520 H2509 0.950 . S
C2520 C2518 1.391 . S
C2520 C2521 1.400 . S
C2521 C2515 1.491 . S
C2521 C2520 1.400 . S
C2521 C2522 1.398 . S
C2522 H2510 0.950 . S
C2522 C2521 1.398 . S
C2522 C2523 1.391 . S
C2523 H2511 0.950 . S
C2523 C2519 1.393 . S
C2523 C2522 1.391 . S
H2524 C2532 0.950 . S
H2525 C2537 0.950 . S
H2526 C2534 0.950 . S
H2527 C2536 0.950 . S
H2528 C2538 0.950 . S
H2529 C2540 0.950 . S
H2530 C2542 0.950 . S
H2531 C2543 0.950 . S
C2532 H2524 0.950 . S
C2532 C2533 1.386 . S
C2532 C2534 1.391 . S
C2533 C2532 1.386 . S
C2533 C2537 1.393 . S
C2534 H2526 0.950 . S
C2534 C2532 1.391 . S
C2534 C2535 1.400 . S
C2535 C2534 1.400 . S
C2535 C2536 1.398 . S
C2535 C2541 1.491 . S
C2536 H2527 0.950 . S
C2536 C2535 1.398 . S
C2536 C2537 1.391 . S
C2537 H2525 0.950 . S
C2537 C2533 1.393 . S
C2537 C2536 1.391 . S
C2538 H2528 0.950 . S
C2538 C2539 1.386 . S
C2538 C2540 1.391 . S
C2539 C2538 1.386 . S
C2539 C2543 1.393 . S
C2540 H2529 0.950 . S
C2540 C2538 1.391 . S
C2540 C2541 1.400 . S
C2541 C2535 1.491 . S
C2541 C2540 1.400 . S
C2541 C2542 1.398 . S
C2542 H2530 0.950 . S
C2542 C2541 1.398 . S
C2542 C2543 1.391 . S
C2543 H2531 0.950 . S
C2543 C2539 1.393 . S
C2543 C2542 1.391 . S
H2544 C2552 0.950 . S
H2545 C2557 0.950 . S
H2546 C2554 0.950 . S
H2547 C2556 0.950 . S
H2548 C2558 0.950 . S
H2549 C2560 0.950 . S
H2550 C2562 0.950 . S
H2551 C2563 0.950 . S
C2552 H2544 0.950 . S
C2552 C2553 1.386 . S
C2552 C2554 1.391 . S
C2553 C2552 1.386 . S
C2553 C2557 1.393 . S
C2554 H2546 0.950 . S
C2554 C2552 1.391 . S
C2554 C2555 1.400 . S
C2555 C2554 1.400 . S
C2555 C2556 1.398 . S
C2555 C2561 1.491 . S
C2556 H2547 0.950 . S
C2556 C2555 1.398 . S
C2556 C2557 1.391 . S
C2557 H2545 0.950 . S
C2557 C2553 1.393 . S
C2557 C2556 1.391 . S
C2558 H2548 0.950 . S
C2558 C2559 1.386 . S
C2558 C2560 1.391 . S
C2559 C2558 1.386 . S
C2559 C2563 1.393 . S
C2560 H2549 0.950 . S
C2560 C2558 1.391 . S
C2560 C2561 1.400 . S
C2561 C2555 1.491 . S
C2561 C2560 1.400 . S
C2561 C2562 1.398 . S
C2562 H2550 0.950 . S
C2562 C2561 1.398 . S
C2562 C2563 1.391 . S
C2563 H2551 0.950 . S
C2563 C2559 1.393 . S
C2563 C2562 1.391 . S
H2564 C2572 0.950 . S
H2565 C2577 0.950 . S
H2566 C2574 0.950 . S
H2567 C2576 0.950 . S
H2568 C2578 0.950 . S
H2569 C2580 0.950 . S
H2570 C2582 0.950 . S
H2571 C2583 0.950 . S
C2572 H2564 0.950 . S
C2572 C2573 1.386 . S
C2572 C2574 1.391 . S
C2573 C2572 1.386 . S
C2573 C2577 1.393 . S
C2574 H2566 0.950 . S
C2574 C2572 1.391 . S
C2574 C2575 1.400 . S
C2575 C2574 1.400 . S
C2575 C2576 1.398 . S
C2575 C2581 1.491 . S
C2576 H2567 0.950 . S
C2576 C2575 1.398 . S
C2576 C2577 1.391 . S
C2577 H2565 0.950 . S
C2577 C2573 1.393 . S
C2577 C2576 1.391 . S
C2578 H2568 0.950 . S
C2578 C2579 1.386 . S
C2578 C2580 1.391 . S
C2579 C2578 1.386 . S
C2579 C2583 1.393 . S
C2580 H2569 0.950 . S
C2580 C2578 1.391 . S
C2580 C2581 1.400 . S
C2581 C2575 1.491 . S
C2581 C2580 1.400 . S
C2581 C2582 1.398 . S
C2582 H2570 0.950 . S
C2582 C2581 1.398 . S
C2582 C2583 1.391 . S
C2583 H2571 0.950 . S
C2583 C2579 1.393 . S
C2583 C2582 1.391 . S
H2584 C2592 0.950 . S
H2585 C2597 0.950 . S
H2586 C2594 0.950 . S
H2587 C2596 0.950 . S
H2588 C2598 0.950 . S
H2589 C2600 0.950 . S
H2590 C2602 0.950 . S
H2591 C2603 0.950 . S
C2592 H2584 0.950 . S
C2592 C2593 1.386 . S
C2592 C2594 1.391 . S
C2593 C2592 1.386 . S
C2593 C2597 1.393 . S
C2594 H2586 0.950 . S
C2594 C2592 1.391 . S
C2594 C2595 1.400 . S
C2595 C2594 1.400 . S
C2595 C2596 1.398 . S
C2595 C2601 1.491 . S
C2596 H2587 0.950 . S
C2596 C2595 1.398 . S
C2596 C2597 1.391 . S
C2597 H2585 0.950 . S
C2597 C2593 1.393 . S
C2597 C2596 1.391 . S
C2598 H2588 0.950 . S
C2598 C2599 1.386 . S
C2598 C2600 1.391 . S
C2599 C2598 1.386 . S
C2599 C2603 1.393 . S
C2600 H2589 0.950 . S
C2600 C2598 1.391 . S
C2600 C2601 1.400 . S
C2601 C2595 1.491 . S
C2601 C2600 1.400 . S
C2601 C2602 1.398 . S
C2602 H2590 0.950 . S
C2602 C2601 1.398 . S
C2602 C2603 1.391 . S
C2603 H2591 0.950 . S
C2603 C2599 1.393 . S
C2603 C2602 1.391 . S
H2604 C2612 0.950 . S
H2605 C2617 0.950 . S
H2606 C2614 0.950 . S
H2607 C2616 0.950 . S
H2608 C2618 0.950 . S
H2609 C2620 0.950 . S
H2610 C2622 0.950 . S
H2611 C2623 0.950 . S
C2612 H2604 0.950 . S
C2612 C2613 1.386 . S
C2612 C2614 1.391 . S
C2613 C2612 1.386 . S
C2613 C2617 1.393 . S
C2614 H2606 0.950 . S
C2614 C2612 1.391 . S
C2614 C2615 1.400 . S
C2615 C2614 1.400 . S
C2615 C2616 1.398 . S
C2615 C2621 1.491 . S
C2616 H2607 0.950 . S
C2616 C2615 1.398 . S
C2616 C2617 1.391 . S
C2617 H2605 0.950 . S
C2617 C2613 1.393 . S
C2617 C2616 1.391 . S
C2618 H2608 0.950 . S
C2618 C2619 1.386 . S
C2618 C2620 1.391 . S
C2619 C2618 1.386 . S
C2619 C2623 1.393 . S
C2620 H2609 0.950 . S
C2620 C2618 1.391 . S
C2620 C2621 1.400 . S
C2621 C2615 1.491 . S
C2621 C2620 1.400 . S
C2621 C2622 1.398 . S
C2622 H2610 0.950 . S
C2622 C2621 1.398 . S
C2622 C2623 1.391 . S
C2623 H2611 0.950 . S
C2623 C2619 1.393 . S
C2623 C2622 1.391 . S
H2624 C2632 0.950 . S
H2625 C2637 0.950 . S
H2626 C2634 0.950 . S
H2627 C2636 0.950 . S
H2628 C2638 0.950 . S
H2629 C2640 0.950 . S
H2630 C2642 0.950 . S
H2631 C2643 0.950 . S
C2632 H2624 0.950 . S
C2632 C2633 1.386 . S
C2632 C2634 1.391 . S
C2633 C2632 1.386 . S
C2633 C2637 1.393 . S
C2634 H2626 0.950 . S
C2634 C2632 1.391 . S
C2634 C2635 1.400 . S
C2635 C2634 1.400 . S
C2635 C2636 1.398 . S
C2635 C2641 1.491 . S
C2636 H2627 0.950 . S
C2636 C2635 1.398 . S
C2636 C2637 1.391 . S
C2637 H2625 0.950 . S
C2637 C2633 1.393 . S
C2637 C2636 1.391 . S
C2638 H2628 0.950 . S
C2638 C2639 1.386 . S
C2638 C2640 1.391 . S
C2639 C2638 1.386 . S
C2639 C2643 1.393 . S
C2640 H2629 0.950 . S
C2640 C2638 1.391 . S
C2640 C2641 1.400 . S
C2641 C2635 1.491 . S
C2641 C2640 1.400 . S
C2641 C2642 1.398 . S
C2642 H2630 0.950 . S
C2642 C2641 1.398 . S
C2642 C2643 1.391 . S
C2643 H2631 0.950 . S
C2643 C2639 1.393 . S
C2643 C2642 1.391 . S
H2644 C2652 0.950 . S
H2645 C2657 0.950 . S
H2646 C2654 0.950 . S
H2647 C2656 0.950 . S
H2648 C2658 0.950 . S
H2649 C2660 0.950 . S
H2650 C2662 0.950 . S
H2651 C2663 0.950 . S
C2652 H2644 0.950 . S
C2652 C2653 1.386 . S
C2652 C2654 1.391 . S
C2653 C2652 1.386 . S
C2653 C2657 1.393 . S
C2654 H2646 0.950 . S
C2654 C2652 1.391 . S
C2654 C2655 1.400 . S
C2655 C2654 1.400 . S
C2655 C2656 1.398 . S
C2655 C2661 1.491 . S
C2656 H2647 0.950 . S
C2656 C2655 1.398 . S
C2656 C2657 1.391 . S
C2657 H2645 0.950 . S
C2657 C2653 1.393 . S
C2657 C2656 1.391 . S
C2658 H2648 0.950 . S
C2658 C2659 1.386 . S
C2658 C2660 1.391 . S
C2659 C2658 1.386 . S
C2659 C2663 1.393 . S
C2660 H2649 0.950 . S
C2660 C2658 1.391 . S
C2660 C2661 1.400 . S
C2661 C2655 1.491 . S
C2661 C2660 1.400 . S
C2661 C2662 1.398 . S
C2662 H2650 0.950 . S
C2662 C2661 1.398 . S
C2662 C2663 1.391 . S
C2663 H2651 0.950 . S
C2663 C2659 1.393 . S
C2663 C2662 1.391 . S
H2664 C2672 0.950 . S
H2665 C2677 0.950 . S
H2666 C2674 0.950 . S
H2667 C2676 0.950 . S
H2668 C2678 0.950 . S
H2669 C2680 0.950 . S
H2670 C2682 0.950 . S
H2671 C2683 0.950 . S
C2672 H2664 0.950 . S
C2672 C2673 1.386 . S
C2672 C2674 1.391 . S
C2673 C2672 1.386 . S
C2673 C2677 1.393 . S
C2674 H2666 0.950 . S
C2674 C2672 1.391 . S
C2674 C2675 1.400 . S
C2675 C2674 1.400 . S
C2675 C2676 1.398 . S
C2675 C2681 1.491 . S
C2676 H2667 0.950 . S
C2676 C2675 1.398 . S
C2676 C2677 1.391 . S
C2677 H2665 0.950 . S
C2677 C2673 1.393 . S
C2677 C2676 1.391 . S
C2678 H2668 0.950 . S
C2678 C2679 1.386 . S
C2678 C2680 1.391 . S
C2679 C2678 1.386 . S
C2679 C2683 1.393 . S
C2680 H2669 0.950 . S
C2680 C2678 1.391 . S
C2680 C2681 1.400 . S
C2681 C2675 1.491 . S
C2681 C2680 1.400 . S
C2681 C2682 1.398 . S
C2682 H2670 0.950 . S
C2682 C2681 1.398 . S
C2682 C2683 1.391 . S
C2683 H2671 0.950 . S
C2683 C2679 1.393 . S
C2683 C2682 1.391 . S
H2684 C2692 0.950 . S
H2685 C2697 0.948 . S
H2686 C2694 0.950 . S
H2687 C2696 0.950 1_565 S
H2688 C2698 0.950 1_565 S
H2689 C2700 0.950 1_565 S
H2690 C2702 0.950 . S
H2691 C2703 0.950 . S
C2692 H2684 0.950 . S
C2692 C2693 1.386 . S
C2692 C2694 1.391 . S
C2693 C2692 1.386 . S
C2693 C2697 1.393 . S
C2694 H2686 0.950 . S
C2694 C2692 1.391 . S
C2694 C2695 1.400 . S
C2695 C2694 1.400 . S
C2695 C2696 1.398 . S
C2695 C2701 1.491 . S
C2696 H2687 0.950 1_545 S
C2696 C2695 1.398 . S
C2696 C2697 1.391 . S
C2697 H2685 0.948 . S
C2697 C2693 1.393 . S
C2697 C2696 1.391 . S
C2698 H2688 0.950 1_545 S
C2698 C2699 1.386 . S
C2698 C2700 1.391 . S
C2699 C2698 1.386 . S
C2699 C2703 1.393 . S
C2700 H2689 0.950 1_545 S
C2700 C2698 1.391 . S
C2700 C2701 1.400 . S
C2701 C2695 1.491 . S
C2701 C2700 1.400 . S
C2701 C2702 1.398 . S
C2702 H2690 0.950 . S
C2702 C2701 1.398 . S
C2702 C2703 1.391 . S
C2703 H2691 0.950 . S
C2703 C2699 1.393 . S
C2703 C2702 1.391 . S
H2704 C2712 0.950 . S
H2705 C2717 0.950 . S
H2706 C2714 0.950 . S
H2707 C2716 0.950 . S
H2708 C2718 0.950 . S
H2709 C2720 0.950 . S
H2710 C2722 0.950 . S
H2711 C2723 0.950 . S
C2712 H2704 0.950 . S
C2712 C2713 1.386 . S
C2712 C2714 1.391 . S
C2713 C2712 1.386 . S
C2713 C2717 1.393 . S
C2714 H2706 0.950 . S
C2714 C2712 1.391 . S
C2714 C2715 1.400 . S
C2715 C2714 1.400 . S
C2715 C2716 1.398 . S
C2715 C2721 1.491 . S
C2716 H2707 0.950 . S
C2716 C2715 1.398 . S
C2716 C2717 1.391 . S
C2717 H2705 0.950 . S
C2717 C2713 1.393 . S
C2717 C2716 1.391 . S
C2718 H2708 0.950 . S
C2718 C2719 1.386 . S
C2718 C2720 1.391 . S
C2719 C2718 1.386 . S
C2719 C2723 1.393 . S
C2720 H2709 0.950 . S
C2720 C2718 1.391 . S
C2720 C2721 1.400 . S
C2721 C2715 1.491 . S
C2721 C2720 1.400 . S
C2721 C2722 1.398 . S
C2722 H2710 0.950 . S
C2722 C2721 1.398 . S
C2722 C2723 1.391 . S
C2723 H2711 0.950 . S
C2723 C2719 1.393 . S
C2723 C2722 1.391 . S
H2724 C2732 0.950 . S
H2725 C2737 0.950 . S
H2726 C2734 0.950 . S
H2727 C2736 0.950 . S
H2728 C2738 0.950 . S
H2729 C2740 0.950 . S
H2730 C2742 0.950 . S
H2731 C2743 0.950 . S
C2732 H2724 0.950 . S
C2732 C2733 1.386 . S
C2732 C2734 1.391 . S
C2733 C2732 1.386 . S
C2733 C2737 1.393 . S
C2734 H2726 0.950 . S
C2734 C2732 1.391 . S
C2734 C2735 1.400 . S
C2735 C2734 1.400 . S
C2735 C2736 1.398 . S
C2735 C2741 1.491 . S
C2736 H2727 0.950 . S
C2736 C2735 1.398 . S
C2736 C2737 1.391 . S
C2737 H2725 0.950 . S
C2737 C2733 1.393 . S
C2737 C2736 1.391 . S
C2738 H2728 0.950 . S
C2738 C2739 1.386 . S
C2738 C2740 1.391 . S
C2739 C2738 1.386 . S
C2739 C2743 1.393 . S
C2740 H2729 0.950 . S
C2740 C2738 1.391 . S
C2740 C2741 1.400 . S
C2741 C2735 1.491 . S
C2741 C2740 1.400 . S
C2741 C2742 1.398 . S
C2742 H2730 0.950 . S
C2742 C2741 1.398 . S
C2742 C2743 1.391 . S
C2743 H2731 0.950 . S
C2743 C2739 1.393 . S
C2743 C2742 1.391 . S
H2744 C2752 0.950 . S
H2745 C2757 0.950 . S
H2746 C2754 0.950 . S
H2747 C2756 0.950 . S
H2748 C2758 0.950 . S
H2749 C2760 0.950 . S
H2750 C2762 0.950 . S
H2751 C2763 0.950 . S
C2752 H2744 0.950 . S
C2752 C2753 1.386 . S
C2752 C2754 1.391 . S
C2753 C2752 1.386 . S
C2753 C2757 1.393 . S
C2754 H2746 0.950 . S
C2754 C2752 1.391 . S
C2754 C2755 1.400 . S
C2755 C2754 1.400 . S
C2755 C2756 1.398 . S
C2755 C2761 1.491 . S
C2756 H2747 0.950 . S
C2756 C2755 1.398 . S
C2756 C2757 1.391 . S
C2757 H2745 0.950 . S
C2757 C2753 1.393 . S
C2757 C2756 1.391 . S
C2758 H2748 0.950 . S
C2758 C2759 1.386 . S
C2758 C2760 1.391 . S
C2759 C2758 1.386 . S
C2759 C2763 1.393 . S
C2760 H2749 0.950 . S
C2760 C2758 1.391 . S
C2760 C2761 1.400 . S
C2761 C2755 1.491 . S
C2761 C2760 1.400 . S
C2761 C2762 1.398 . S
C2762 H2750 0.950 . S
C2762 C2761 1.398 . S
C2762 C2763 1.391 . S
C2763 H2751 0.950 . S
C2763 C2759 1.393 . S
C2763 C2762 1.391 . S
H2764 C2772 0.950 . S
H2765 C2777 0.950 . S
H2766 C2774 0.950 . S
H2767 C2776 0.950 . S
H2768 C2778 0.950 . S
H2769 C2780 0.950 . S
H2770 C2782 0.950 . S
H2771 C2783 0.950 . S
C2772 H2764 0.950 . S
C2772 C2773 1.386 . S
C2772 C2774 1.391 . S
C2773 C2772 1.386 . S
C2773 C2777 1.393 . S
C2774 H2766 0.950 . S
C2774 C2772 1.391 . S
C2774 C2775 1.400 . S
C2775 C2774 1.400 . S
C2775 C2776 1.398 . S
C2775 C2781 1.491 . S
C2776 H2767 0.950 . S
C2776 C2775 1.398 . S
C2776 C2777 1.391 . S
C2777 H2765 0.950 . S
C2777 C2773 1.393 . S
C2777 C2776 1.391 . S
C2778 H2768 0.950 . S
C2778 C2779 1.386 . S
C2778 C2780 1.391 . S
C2779 C2778 1.386 . S
C2779 C2783 1.393 . S
C2780 H2769 0.950 . S
C2780 C2778 1.391 . S
C2780 C2781 1.400 . S
C2781 C2775 1.491 . S
C2781 C2780 1.400 . S
C2781 C2782 1.398 . S
C2782 H2770 0.950 . S
C2782 C2781 1.398 . S
C2782 C2783 1.391 . S
C2783 H2771 0.950 . S
C2783 C2779 1.393 . S
C2783 C2782 1.391 . S
H2784 C2792 0.950 . S
H2785 C2797 0.950 . S
H2786 C2794 0.950 . S
H2787 C2796 0.950 . S
H2788 C2798 0.950 . S
H2789 C2800 0.950 . S
H2790 C2802 0.950 . S
H2791 C2803 0.950 . S
C2792 H2784 0.950 . S
C2792 C2793 1.386 . S
C2792 C2794 1.391 . S
C2793 C2792 1.386 . S
C2793 C2797 1.393 . S
C2794 H2786 0.950 . S
C2794 C2792 1.391 . S
C2794 C2795 1.400 . S
C2795 C2794 1.400 . S
C2795 C2796 1.398 . S
C2795 C2801 1.491 . S
C2796 H2787 0.950 . S
C2796 C2795 1.398 . S
C2796 C2797 1.391 . S
C2797 H2785 0.950 . S
C2797 C2793 1.393 . S
C2797 C2796 1.391 . S
C2798 H2788 0.950 . S
C2798 C2799 1.386 . S
C2798 C2800 1.391 . S
C2799 C2798 1.386 . S
C2799 C2803 1.393 . S
C2800 H2789 0.950 . S
C2800 C2798 1.391 . S
C2800 C2801 1.400 . S
C2801 C2795 1.491 . S
C2801 C2800 1.400 . S
C2801 C2802 1.398 . S
C2802 H2790 0.950 . S
C2802 C2801 1.398 . S
C2802 C2803 1.391 . S
C2803 H2791 0.950 . S
C2803 C2799 1.393 . S
C2803 C2802 1.391 . S
H2804 C2812 0.950 1_545 S
H2805 C2817 0.950 . S
H2806 C2814 0.950 1_545 S
H2807 C2816 0.950 . S
H2808 C2818 0.950 . S
H2809 C2820 0.950 . S
H2810 C2822 0.950 1_545 S
H2811 C2823 0.950 1_545 S
C2812 H2804 0.950 1_565 S
C2812 C2813 1.386 . S
C2812 C2814 1.391 . S
C2813 C2812 1.386 . S
C2813 C2817 1.393 . S
C2814 H2806 0.950 1_565 S
C2814 C2812 1.391 . S
C2814 C2815 1.400 . S
C2815 C2814 1.400 . S
C2815 C2816 1.398 . S
C2815 C2821 1.491 . S
C2816 H2807 0.950 . S
C2816 C2815 1.398 . S
C2816 C2817 1.391 . S
C2817 H2805 0.950 . S
C2817 C2813 1.393 . S
C2817 C2816 1.391 . S
C2818 H2808 0.950 . S
C2818 C2819 1.386 . S
C2818 C2820 1.391 . S
C2819 C2818 1.386 . S
C2819 C2823 1.393 . S
C2820 H2809 0.950 . S
C2820 C2818 1.391 . S
C2820 C2821 1.400 . S
C2821 C2815 1.491 . S
C2821 C2820 1.400 . S
C2821 C2822 1.398 . S
C2822 H2810 0.950 1_565 S
C2822 C2821 1.398 . S
C2822 C2823 1.391 . S
C2823 H2811 0.950 1_565 S
C2823 C2819 1.393 . S
C2823 C2822 1.391 . S
H2824 C2832 0.950 . S
H2825 C2837 0.950 . S
H2826 C2834 0.950 . S
H2827 C2836 0.950 . S
H2828 C2838 0.950 . S
H2829 C2840 0.950 . S
H2830 C2842 0.950 . S
H2831 C2843 0.950 . S
C2832 H2824 0.950 . S
C2832 C2833 1.386 . S
C2832 C2834 1.391 . S
C2833 C2832 1.386 . S
C2833 C2837 1.393 . S
C2834 H2826 0.950 . S
C2834 C2832 1.391 . S
C2834 C2835 1.400 . S
C2835 C2834 1.400 . S
C2835 C2836 1.398 . S
C2835 C2841 1.491 . S
C2836 H2827 0.950 . S
C2836 C2835 1.398 . S
C2836 C2837 1.391 . S
C2837 H2825 0.950 . S
C2837 C2833 1.393 . S
C2837 C2836 1.391 . S
C2838 H2828 0.950 . S
C2838 C2839 1.386 . S
C2838 C2840 1.391 . S
C2839 C2838 1.386 . S
C2839 C2843 1.393 . S
C2840 H2829 0.950 . S
C2840 C2838 1.391 . S
C2840 C2841 1.400 . S
C2841 C2835 1.491 . S
C2841 C2840 1.400 . S
C2841 C2842 1.398 . S
C2842 H2830 0.950 . S
C2842 C2841 1.398 . S
C2842 C2843 1.391 . S
C2843 H2831 0.950 . S
C2843 C2839 1.393 . S
C2843 C2842 1.391 . S
H2844 C2852 0.950 . S
H2845 C2857 0.950 . S
H2846 C2854 0.950 . S
H2847 C2856 0.950 . S
H2848 C2858 0.950 . S
H2849 C2860 0.950 . S
H2850 C2862 0.950 . S
H2851 C2863 0.950 1_565 S
C2852 H2844 0.950 . S
C2852 C2853 1.386 . S
C2852 C2854 1.391 . S
C2853 C2852 1.386 . S
C2853 C2857 1.393 . S
C2854 H2846 0.950 . S
C2854 C2852 1.391 . S
C2854 C2855 1.400 . S
C2855 C2854 1.400 . S
C2855 C2856 1.398 . S
C2855 C2861 1.491 . S
C2856 H2847 0.950 . S
C2856 C2855 1.398 . S
C2856 C2857 1.391 . S
C2857 H2845 0.950 . S
C2857 C2853 1.393 . S
C2857 C2856 1.391 . S
C2858 H2848 0.950 . S
C2858 C2859 1.386 . S
C2858 C2860 1.391 . S
C2859 C2858 1.386 . S
C2859 C2863 1.393 . S
C2860 H2849 0.950 . S
C2860 C2858 1.391 . S
C2860 C2861 1.400 . S
C2861 C2855 1.491 . S
C2861 C2860 1.400 . S
C2861 C2862 1.398 . S
C2862 H2850 0.950 . S
C2862 C2861 1.398 . S
C2862 C2863 1.391 . S
C2863 H2851 0.950 1_545 S
C2863 C2859 1.393 . S
C2863 C2862 1.391 . S
H2864 C2872 0.950 . S
H2865 C2877 0.950 . S
H2866 C2874 0.950 . S
H2867 C2876 0.950 . S
H2868 C2878 0.950 . S
H2869 C2880 0.950 . S
H2870 C2882 0.950 . S
H2871 C2883 0.950 . S
C2872 H2864 0.950 . S
C2872 C2873 1.386 . S
C2872 C2874 1.391 . S
C2873 C2872 1.386 . S
C2873 C2877 1.393 . S
C2874 H2866 0.950 . S
C2874 C2872 1.391 . S
C2874 C2875 1.400 . S
C2875 C2874 1.400 . S
C2875 C2876 1.398 . S
C2875 C2881 1.491 . S
C2876 H2867 0.950 . S
C2876 C2875 1.398 . S
C2876 C2877 1.391 . S
C2877 H2865 0.950 . S
C2877 C2873 1.393 . S
C2877 C2876 1.391 . S
C2878 H2868 0.950 . S
C2878 C2879 1.386 . S
C2878 C2880 1.391 . S
C2879 C2878 1.386 . S
C2879 C2883 1.393 . S
C2880 H2869 0.950 . S
C2880 C2878 1.391 . S
C2880 C2881 1.400 . S
C2881 C2875 1.491 . S
C2881 C2880 1.400 . S
C2881 C2882 1.398 . S
C2882 H2870 0.950 . S
C2882 C2881 1.398 . S
C2882 C2883 1.391 . S
C2883 H2871 0.950 . S
C2883 C2879 1.393 . S
C2883 C2882 1.391 . S
H2884 C2892 0.950 . S
H2885 C2897 0.950 . S
H2886 C2894 0.950 . S
H2887 C2896 0.950 . S
H2888 C2898 0.950 . S
H2889 C2900 0.950 . S
H2890 C2902 0.950 . S
H2891 C2903 0.950 . S
C2892 H2884 0.950 . S
C2892 C2893 1.386 . S
C2892 C2894 1.391 . S
C2893 C2892 1.386 . S
C2893 C2897 1.393 . S
C2894 H2886 0.950 . S
C2894 C2892 1.391 . S
C2894 C2895 1.400 . S
C2895 C2894 1.400 . S
C2895 C2896 1.398 . S
C2895 C2901 1.491 . S
C2896 H2887 0.950 . S
C2896 C2895 1.398 . S
C2896 C2897 1.391 . S
C2897 H2885 0.950 . S
C2897 C2893 1.393 . S
C2897 C2896 1.391 . S
C2898 H2888 0.950 . S
C2898 C2899 1.386 . S
C2898 C2900 1.391 . S
C2899 C2898 1.386 . S
C2899 C2903 1.393 . S
C2900 H2889 0.950 . S
C2900 C2898 1.391 . S
C2900 C2901 1.400 . S
C2901 C2895 1.491 . S
C2901 C2900 1.400 . S
C2901 C2902 1.398 . S
C2902 H2890 0.950 . S
C2902 C2901 1.398 . S
C2902 C2903 1.391 . S
C2903 H2891 0.950 . S
C2903 C2899 1.393 . S
C2903 C2902 1.391 . S
H2904 C2912 0.950 . S
H2905 C2917 0.950 . S
H2906 C2914 0.950 . S
H2907 C2916 0.950 . S
H2908 C2918 0.950 . S
H2909 C2920 0.950 . S
H2910 C2922 0.950 . S
H2911 C2923 0.950 . S
C2912 H2904 0.950 . S
C2912 C2913 1.386 . S
C2912 C2914 1.391 . S
C2913 C2912 1.386 . S
C2913 C2917 1.393 . S
C2914 H2906 0.950 . S
C2914 C2912 1.391 . S
C2914 C2915 1.400 . S
C2915 C2914 1.400 . S
C2915 C2916 1.398 . S
C2915 C2921 1.491 . S
C2916 H2907 0.950 . S
C2916 C2915 1.398 . S
C2916 C2917 1.391 . S
C2917 H2905 0.950 . S
C2917 C2913 1.393 . S
C2917 C2916 1.391 . S
C2918 H2908 0.950 . S
C2918 C2919 1.386 . S
C2918 C2920 1.391 . S
C2919 C2918 1.386 . S
C2919 C2923 1.393 . S
C2920 H2909 0.950 . S
C2920 C2918 1.391 . S
C2920 C2921 1.400 . S
C2921 C2915 1.491 . S
C2921 C2920 1.400 . S
C2921 C2922 1.398 . S
C2922 H2910 0.950 . S
C2922 C2921 1.398 . S
C2922 C2923 1.391 . S
C2923 H2911 0.950 . S
C2923 C2919 1.393 . S
C2923 C2922 1.391 . S
H2924 C2932 0.950 . S
H2925 C2937 0.950 . S
H2926 C2934 0.950 . S
H2927 C2936 0.950 . S
H2928 C2938 0.950 . S
H2929 C2940 0.950 . S
H2930 C2942 0.950 . S
H2931 C2943 0.950 . S
C2932 H2924 0.950 . S
C2932 C2933 1.386 . S
C2932 C2934 1.391 . S
C2933 C2932 1.386 . S
C2933 C2937 1.393 . S
C2934 H2926 0.950 . S
C2934 C2932 1.391 . S
C2934 C2935 1.400 . S
C2935 C2934 1.400 . S
C2935 C2936 1.398 . S
C2935 C2941 1.491 . S
C2936 H2927 0.950 . S
C2936 C2935 1.398 . S
C2936 C2937 1.391 . S
C2937 H2925 0.950 . S
C2937 C2933 1.393 . S
C2937 C2936 1.391 . S
C2938 H2928 0.950 . S
C2938 C2939 1.386 . S
C2938 C2940 1.391 . S
C2939 C2938 1.386 . S
C2939 C2943 1.393 . S
C2940 H2929 0.950 . S
C2940 C2938 1.391 . S
C2940 C2941 1.400 . S
C2941 C2935 1.491 . S
C2941 C2940 1.400 . S
C2941 C2942 1.398 . S
C2942 H2930 0.950 . S
C2942 C2941 1.398 . S
C2942 C2943 1.391 . S
C2943 H2931 0.950 . S
C2943 C2939 1.393 . S
C2943 C2942 1.391 . S
H2944 C2952 0.950 . S
H2945 C2957 0.950 . S
H2946 C2954 0.950 . S
H2947 C2956 0.950 . S
H2948 C2958 0.950 . S
H2949 C2960 0.950 . S
H2950 C2962 0.950 . S
H2951 C2963 0.950 . S
C2952 H2944 0.950 . S
C2952 C2953 1.386 . S
C2952 C2954 1.391 . S
C2953 C2952 1.386 . S
C2953 C2957 1.393 1_456 S
C2954 H2946 0.950 . S
C2954 C2952 1.391 . S
C2954 C2955 1.450 . S
C2955 C2954 1.450 . S
C2955 C2956 1.359 1_456 S
C2955 C2961 1.477 1_456 S
C2956 H2947 0.950 . S
C2956 C2955 1.359 1_654 S
C2956 C2957 1.391 . S
C2957 H2945 0.950 . S
C2957 C2953 1.393 1_654 S
C2957 C2956 1.391 . S
C2958 H2948 0.950 . S
C2958 C2959 1.386 . S
C2958 C2960 1.391 . S
C2959 C2958 1.386 . S
C2959 C2963 1.393 1_654 S
C2960 H2949 0.950 . S
C2960 C2958 1.391 . S
C2960 C2961 1.450 . S
C2961 C2955 1.477 1_654 S
C2961 C2960 1.450 . S
C2961 C2962 1.359 1_654 S
C2962 H2950 0.950 . S
C2962 C2961 1.359 1_456 S
C2962 C2963 1.391 . S
C2963 H2951 0.950 . S
C2963 C2959 1.393 1_456 S
C2963 C2962 1.391 . S
H2964 C2972 0.950 . S
H2965 C2977 0.950 . S
H2966 C2974 0.950 . S
H2967 C2976 0.950 . S
H2968 C2978 0.950 . S
H2969 C2980 0.950 . S
H2970 C2982 0.950 . S
H2971 C2983 0.950 . S
C2972 H2964 0.950 . S
C2972 C2973 1.386 . S
C2972 C2974 1.391 . S
C2973 C2972 1.386 . S
C2973 C2977 1.393 1_556 S
C2974 H2966 0.950 . S
C2974 C2972 1.391 . S
C2974 C2975 1.413 . S
C2975 C2974 1.413 . S
C2975 C2976 1.387 1_556 S
C2975 C2981 1.489 1_556 S
C2976 H2967 0.950 . S
C2976 C2975 1.387 1_554 S
C2976 C2977 1.391 . S
C2977 H2965 0.950 . S
C2977 C2973 1.393 1_554 S
C2977 C2976 1.391 . S
C2978 H2968 0.950 . S
C2978 C2979 1.386 . S
C2978 C2980 1.391 . S
C2979 C2978 1.386 . S
C2979 C2983 1.393 1_554 S
C2980 H2969 0.950 . S
C2980 C2978 1.391 . S
C2980 C2981 1.413 . S
C2981 C2975 1.489 1_554 S
C2981 C2980 1.413 . S
C2981 C2982 1.387 1_554 S
C2982 H2970 0.950 . S
C2982 C2981 1.387 1_556 S
C2982 C2983 1.391 . S
C2983 H2971 0.950 . S
C2983 C2979 1.393 1_556 S
C2983 C2982 1.391 . S
H2984 C2992 0.950 . S
H2985 C2997 0.950 . S
H2986 C2994 0.950 . S
H2987 C2996 0.950 . S
H2988 C2998 0.950 . S
H2989 C3000 0.950 . S
H2990 C3002 0.950 . S
H2991 C3003 0.950 . S
C2992 H2984 0.950 . S
C2992 C2993 1.386 1_455 S
C2992 C2994 1.391 . S
C2993 C2992 1.386 1_655 S
C2993 C2997 1.393 . S
C2994 H2986 0.950 . S
C2994 C2992 1.391 . S
C2994 C2995 1.391 1_455 S
C2995 C2994 1.391 1_655 S
C2995 C2996 1.407 . S
C2995 C3001 1.493 1_655 S
C2996 H2987 0.950 . S
C2996 C2995 1.407 . S
C2996 C2997 1.391 . S
C2997 H2985 0.950 . S
C2997 C2993 1.393 . S
C2997 C2996 1.391 . S
C2998 H2988 0.950 . S
C2998 C2999 1.386 1_655 S
C2998 C3000 1.391 . S
C2999 C2998 1.386 1_455 S
C2999 C3003 1.393 . S
C3000 H2989 0.950 . S
C3000 C2998 1.391 . S
C3000 C3001 1.391 1_655 S
C3001 C2995 1.493 1_455 S
C3001 C3000 1.391 1_455 S
C3001 C3002 1.407 . S
C3002 H2990 0.950 . S
C3002 C3001 1.407 . S
C3002 C3003 1.391 . S
C3003 H2991 0.950 . S
C3003 C2999 1.393 . S
C3003 C3002 1.391 . S
H3004 C3012 0.950 . S
H3005 C3017 0.950 . S
H3006 C3014 0.950 . S
H3007 C3016 0.950 . S
H3008 C3018 0.950 . S
H3009 C3020 0.950 . S
H3010 C3022 0.950 . S
H3011 C3023 0.950 . S
C3012 H3004 0.950 . S
C3012 C3013 1.386 . S
C3012 C3014 1.391 . S
C3013 C3012 1.386 . S
C3013 C3017 1.393 . S
C3014 H3006 0.950 . S
C3014 C3012 1.391 . S
C3014 C3015 1.400 . S
C3015 C3014 1.400 . S
C3015 C3016 1.398 . S
C3015 C3021 1.491 . S
C3016 H3007 0.950 . S
C3016 C3015 1.398 . S
C3016 C3017 1.391 . S
C3017 H3005 0.950 . S
C3017 C3013 1.393 . S
C3017 C3016 1.391 . S
C3018 H3008 0.950 . S
C3018 C3019 1.386 . S
C3018 C3020 1.391 . S
C3019 C3018 1.386 . S
C3019 C3023 1.393 . S
C3020 H3009 0.950 . S
C3020 C3018 1.391 . S
C3020 C3021 1.400 . S
C3021 C3015 1.491 . S
C3021 C3020 1.400 . S
C3021 C3022 1.398 . S
C3022 H3010 0.950 . S
C3022 C3021 1.398 . S
C3022 C3023 1.391 . S
C3023 H3011 0.950 . S
C3023 C3019 1.393 . S
C3023 C3022 1.391 . S
H3024 C3032 0.950 . S
H3025 C3037 0.950 . S
H3026 C3034 0.950 . S
H3027 C3036 0.950 . S
H3028 C3038 0.950 . S
H3029 C3040 0.950 . S
H3030 C3042 0.950 . S
H3031 C3043 0.950 . S
C3032 H3024 0.950 . S
C3032 C3033 1.385 . S
C3032 C3034 1.391 . S
C3033 C3032 1.385 . S
C3033 C3037 1.393 1_556 S
C3034 H3026 0.950 . S
C3034 C3032 1.391 . S
C3034 C3035 1.403 . S
C3035 C3034 1.403 . S
C3035 C3036 1.395 1_556 S
C3035 C3041 1.491 1_556 S
C3036 H3027 0.950 . S
C3036 C3035 1.395 1_554 S
C3036 C3037 1.391 . S
C3037 H3025 0.950 . S
C3037 C3033 1.393 1_554 S
C3037 C3036 1.391 . S
C3038 H3028 0.950 . S
C3038 C3039 1.385 . S
C3038 C3040 1.391 . S
C3039 C3038 1.385 . S
C3039 C3043 1.393 1_554 S
C3040 H3029 0.950 . S
C3040 C3038 1.391 . S
C3040 C3041 1.404 . S
C3041 C3035 1.491 1_554 S
C3041 C3040 1.404 . S
C3041 C3042 1.395 1_554 S
C3042 H3030 0.950 . S
C3042 C3041 1.395 1_556 S
C3042 C3043 1.391 . S
C3043 H3031 0.950 . S
C3043 C3039 1.393 1_556 S
C3043 C3042 1.391 . S
H3044 C3052 0.950 . S
H3045 C3057 0.950 . S
H3046 C3054 0.950 . S
H3047 C3056 0.950 . S
H3048 C3058 0.950 . S
H3049 C3060 0.950 . S
H3050 C3062 0.950 . S
H3051 C3063 0.950 . S
C3052 H3044 0.950 . S
C3052 C3053 1.386 1_655 S
C3052 C3054 1.391 . S
C3053 C3052 1.386 1_455 S
C3053 C3057 1.393 . S
C3054 H3046 0.950 . S
C3054 C3052 1.391 . S
C3054 C3055 1.390 1_655 S
C3055 C3054 1.390 1_455 S
C3055 C3056 1.408 . S
C3055 C3061 1.493 1_455 S
C3056 H3047 0.950 . S
C3056 C3055 1.408 . S
C3056 C3057 1.391 . S
C3057 H3045 0.950 . S
C3057 C3053 1.393 . S
C3057 C3056 1.391 . S
C3058 H3048 0.950 . S
C3058 C3059 1.386 1_455 S
C3058 C3060 1.391 . S
C3059 C3058 1.386 1_655 S
C3059 C3063 1.393 . S
C3060 H3049 0.950 . S
C3060 C3058 1.391 . S
C3060 C3061 1.390 1_455 S
C3061 C3055 1.493 1_655 S
C3061 C3060 1.390 1_655 S
C3061 C3062 1.408 . S
C3062 H3050 0.950 . S
C3062 C3061 1.408 . S
C3062 C3063 1.391 . S
C3063 H3051 0.950 . S
C3063 C3059 1.393 . S
C3063 C3062 1.391 . S
H3064 C3072 0.950 . S
H3065 C3077 0.950 . S
H3066 C3074 0.950 . S
H3067 C3076 0.950 . S
H3068 C3078 0.950 . S
H3069 C3080 0.950 . S
H3070 C3082 0.950 . S
H3071 C3083 0.950 . S
C3072 H3064 0.950 . S
C3072 C3073 1.386 . S
C3072 C3074 1.391 . S
C3073 C3072 1.386 . S
C3073 C3077 1.393 . S
C3074 H3066 0.950 . S
C3074 C3072 1.391 . S
C3074 C3075 1.400 . S
C3075 C3074 1.400 . S
C3075 C3076 1.398 . S
C3075 C3081 1.491 . S
C3076 H3067 0.950 . S
C3076 C3075 1.398 . S
C3076 C3077 1.391 . S
C3077 H3065 0.950 . S
C3077 C3073 1.393 . S
C3077 C3076 1.391 . S
C3078 H3068 0.950 . S
C3078 C3079 1.386 . S
C3078 C3080 1.391 . S
C3079 C3078 1.386 . S
C3079 C3083 1.393 . S
C3080 H3069 0.950 . S
C3080 C3078 1.391 . S
C3080 C3081 1.400 . S
C3081 C3075 1.491 . S
C3081 C3080 1.400 . S
C3081 C3082 1.398 . S
C3082 H3070 0.950 . S
C3082 C3081 1.398 . S
C3082 C3083 1.391 . S
C3083 H3071 0.950 . S
C3083 C3079 1.393 . S
C3083 C3082 1.391 . S
H3084 C3092 0.950 . S
H3085 C3097 0.950 . S
H3086 C3094 0.950 . S
H3087 C3096 0.950 . S
H3088 C3098 0.950 . S
H3089 C3100 0.950 . S
H3090 C3102 0.950 . S
H3091 C3103 0.950 . S
C3092 H3084 0.950 . S
C3092 C3093 1.386 1_455 S
C3092 C3094 1.391 . S
C3093 C3092 1.386 1_655 S
C3093 C3097 1.393 . S
C3094 H3086 0.950 . S
C3094 C3092 1.391 . S
C3094 C3095 1.400 1_455 S
C3095 C3094 1.400 1_655 S
C3095 C3096 1.398 . S
C3095 C3101 1.491 1_645 S
C3096 H3087 0.950 . S
C3096 C3095 1.398 . S
C3096 C3097 1.391 . S
C3097 H3085 0.950 . S
C3097 C3093 1.393 . S
C3097 C3096 1.391 . S
C3098 H3088 0.950 . S
C3098 C3099 1.386 1_655 S
C3098 C3100 1.391 . S
C3099 C3098 1.386 1_455 S
C3099 C3103 1.393 . S
C3100 H3089 0.950 . S
C3100 C3098 1.391 . S
C3100 C3101 1.400 1_655 S
C3101 C3095 1.491 1_465 S
C3101 C3100 1.400 1_455 S
C3101 C3102 1.398 . S
C3102 H3090 0.950 . S
C3102 C3101 1.398 . S
C3102 C3103 1.391 . S
C3103 H3091 0.950 . S
C3103 C3099 1.393 . S
C3103 C3102 1.391 . S
H3104 C3112 0.950 . S
H3105 C3117 0.950 . S
H3106 C3114 0.950 . S
H3107 C3116 0.950 . S
H3108 C3118 0.950 . S
H3109 C3120 0.950 . S
H3110 C3122 0.950 . S
H3111 C3123 0.950 . S
C3112 H3104 0.950 . S
C3112 C3113 1.386 . S
C3112 C3114 1.391 . S
C3113 C3112 1.386 . S
C3113 C3117 1.393 . S
C3114 H3106 0.950 . S
C3114 C3112 1.391 . S
C3114 C3115 1.400 . S
C3115 C3114 1.400 . S
C3115 C3116 1.398 . S
C3115 C3121 1.491 . S
C3116 H3107 0.950 . S
C3116 C3115 1.398 . S
C3116 C3117 1.391 . S
C3117 H3105 0.950 . S
C3117 C3113 1.393 . S
C3117 C3116 1.391 . S
C3118 H3108 0.950 . S
C3118 C3119 1.386 . S
C3118 C3120 1.391 . S
C3119 C3118 1.386 . S
C3119 C3123 1.393 . S
C3120 H3109 0.950 . S
C3120 C3118 1.391 . S
C3120 C3121 1.400 . S
C3121 C3115 1.491 . S
C3121 C3120 1.400 . S
C3121 C3122 1.398 . S
C3122 H3110 0.950 . S
C3122 C3121 1.398 . S
C3122 C3123 1.391 . S
C3123 H3111 0.950 . S
C3123 C3119 1.393 . S
C3123 C3122 1.391 . S
H3124 C3132 0.950 . S
H3125 C3137 0.950 . S
H3126 C3134 0.950 . S
H3127 C3136 0.950 . S
H3128 C3138 0.950 . S
H3129 C3140 0.950 . S
H3130 C3142 0.950 . S
H3131 C3143 0.950 . S
C3132 H3124 0.950 . S
C3132 C3133 1.386 . S
C3132 C3134 1.391 . S
C3133 C3132 1.386 . S
C3133 C3137 1.393 . S
C3134 H3126 0.950 . S
C3134 C3132 1.391 . S
C3134 C3135 1.400 . S
C3135 C3134 1.400 . S
C3135 C3136 1.398 . S
C3135 C3141 1.491 1_565 S
C3136 H3127 0.950 . S
C3136 C3135 1.398 . S
C3136 C3137 1.391 . S
C3137 H3125 0.950 . S
C3137 C3133 1.393 . S
C3137 C3136 1.391 . S
C3138 H3128 0.950 . S
C3138 C3139 1.386 . S
C3138 C3140 1.391 . S
C3139 C3138 1.386 . S
C3139 C3143 1.393 . S
C3140 H3129 0.950 . S
C3140 C3138 1.391 . S
C3140 C3141 1.400 . S
C3141 C3135 1.491 1_545 S
C3141 C3140 1.400 . S
C3141 C3142 1.398 . S
C3142 H3130 0.950 . S
C3142 C3141 1.398 . S
C3142 C3143 1.391 . S
C3143 H3131 0.950 . S
C3143 C3139 1.393 . S
C3143 C3142 1.391 . S
H3144 C3152 0.950 . S
H3145 C3157 0.950 . S
H3146 C3154 0.950 . S
H3147 C3156 0.950 . S
H3148 C3158 0.950 . S
H3149 C3160 0.950 . S
H3150 C3162 0.950 . S
H3151 C3163 0.950 . S
C3152 H3144 0.950 . S
C3152 C3153 1.386 . S
C3152 C3154 1.391 . S
C3153 C3152 1.386 . S
C3153 C3157 1.393 . S
C3154 H3146 0.950 . S
C3154 C3152 1.391 . S
C3154 C3155 1.400 . S
C3155 C3154 1.400 . S
C3155 C3156 1.398 . S
C3155 C3161 1.491 . S
C3156 H3147 0.950 . S
C3156 C3155 1.398 . S
C3156 C3157 1.391 . S
C3157 H3145 0.950 . S
C3157 C3153 1.393 . S
C3157 C3156 1.391 . S
C3158 H3148 0.950 . S
C3158 C3159 1.386 . S
C3158 C3160 1.391 . S
C3159 C3158 1.386 . S
C3159 C3163 1.393 . S
C3160 H3149 0.950 . S
C3160 C3158 1.391 . S
C3160 C3161 1.400 . S
C3161 C3155 1.491 . S
C3161 C3160 1.400 . S
C3161 C3162 1.398 . S
C3162 H3150 0.950 . S
C3162 C3161 1.398 . S
C3162 C3163 1.391 . S
C3163 H3151 0.950 . S
C3163 C3159 1.393 . S
C3163 C3162 1.391 . S
H3164 C3172 0.950 . S
H3165 C3177 0.950 . S
H3166 C3174 0.950 . S
H3167 C3176 0.950 . S
H3168 C3178 0.950 . S
H3169 C3180 0.950 . S
H3170 C3182 0.950 . S
H3171 C3183 0.950 . S
C3172 H3164 0.950 . S
C3172 C3173 1.386 . S
C3172 C3174 1.391 . S
C3173 C3172 1.386 . S
C3173 C3177 1.393 . S
C3174 H3166 0.950 . S
C3174 C3172 1.391 . S
C3174 C3175 1.400 . S
C3175 C3174 1.400 . S
C3175 C3176 1.398 . S
C3175 C3181 1.491 1_565 S
C3176 H3167 0.950 . S
C3176 C3175 1.398 . S
C3176 C3177 1.391 . S
C3177 H3165 0.950 . S
C3177 C3173 1.393 . S
C3177 C3176 1.391 . S
C3178 H3168 0.950 . S
C3178 C3179 1.386 . S
C3178 C3180 1.391 . S
C3179 C3178 1.386 . S
C3179 C3183 1.393 . S
C3180 H3169 0.950 . S
C3180 C3178 1.391 . S
C3180 C3181 1.400 . S
C3181 C3175 1.491 1_545 S
C3181 C3180 1.400 . S
C3181 C3182 1.398 . S
C3182 H3170 0.950 . S
C3182 C3181 1.398 . S
C3182 C3183 1.391 . S
C3183 H3171 0.950 . S
C3183 C3179 1.393 . S
C3183 C3182 1.391 . S
H3184 C3192 0.950 . S
H3185 C3197 0.950 . S
H3186 C3194 0.950 . S
H3187 C3196 0.950 . S
H3188 C3198 0.950 . S
H3189 C3200 0.950 . S
H3190 C3202 0.950 . S
H3191 C3203 0.950 . S
C3192 H3184 0.950 . S
C3192 C3193 1.386 . S
C3192 C3194 1.391 . S
C3193 C3192 1.386 . S
C3193 C3197 1.393 . S
C3194 H3186 0.950 . S
C3194 C3192 1.391 . S
C3194 C3195 1.400 . S
C3195 C3194 1.400 . S
C3195 C3196 1.398 . S
C3195 C3201 1.491 . S
C3196 H3187 0.950 . S
C3196 C3195 1.398 . S
C3196 C3197 1.391 . S
C3197 H3185 0.950 . S
C3197 C3193 1.393 . S
C3197 C3196 1.391 . S
C3198 H3188 0.950 . S
C3198 C3199 1.386 . S
C3198 C3200 1.391 . S
C3199 C3198 1.386 . S
C3199 C3203 1.393 . S
C3200 H3189 0.950 . S
C3200 C3198 1.391 . S
C3200 C3201 1.400 . S
C3201 C3195 1.491 . S
C3201 C3200 1.400 . S
C3201 C3202 1.398 . S
C3202 H3190 0.950 . S
C3202 C3201 1.398 . S
C3202 C3203 1.391 . S
C3203 H3191 0.950 . S
C3203 C3199 1.393 . S
C3203 C3202 1.391 . S
H3204 C3212 0.950 . S
H3205 C3217 0.950 . S
H3206 C3214 0.950 . S
H3207 C3216 0.950 . S
H3208 C3218 0.950 . S
H3209 C3220 0.950 . S
H3210 C3222 0.950 . S
H3211 C3223 0.950 . S
C3212 H3204 0.950 . S
C3212 C3213 1.386 . S
C3212 C3214 1.391 . S
C3213 C3212 1.386 . S
C3213 C3217 1.393 . S
C3214 H3206 0.950 . S
C3214 C3212 1.391 . S
C3214 C3215 1.400 . S
C3215 C3214 1.400 . S
C3215 C3216 1.398 . S
C3215 C3221 1.491 . S
C3216 H3207 0.950 . S
C3216 C3215 1.398 . S
C3216 C3217 1.391 . S
C3217 H3205 0.950 . S
C3217 C3213 1.393 . S
C3217 C3216 1.391 . S
C3218 H3208 0.950 . S
C3218 C3219 1.386 . S
C3218 C3220 1.391 . S
C3219 C3218 1.386 . S
C3219 C3223 1.393 . S
C3220 H3209 0.950 . S
C3220 C3218 1.391 . S
C3220 C3221 1.400 . S
C3221 C3215 1.491 . S
C3221 C3220 1.400 . S
C3221 C3222 1.398 . S
C3222 H3210 0.950 . S
C3222 C3221 1.398 . S
C3222 C3223 1.391 . S
C3223 H3211 0.950 . S
C3223 C3219 1.393 . S
C3223 C3222 1.391 . S
H3224 C3232 0.950 . S
H3225 C3237 0.950 . S
H3226 C3234 0.950 . S
H3227 C3236 0.950 . S
H3228 C3238 0.950 . S
H3229 C3240 0.950 . S
H3230 C3242 0.950 . S
H3231 C3243 0.950 . S
C3232 H3224 0.950 . S
C3232 C3233 1.386 . S
C3232 C3234 1.391 . S
C3233 C3232 1.386 . S
C3233 C3237 1.393 . S
C3234 H3226 0.950 . S
C3234 C3232 1.391 . S
C3234 C3235 1.400 . S
C3235 C3234 1.400 . S
C3235 C3236 1.398 . S
C3235 C3241 1.491 . S
C3236 H3227 0.950 . S
C3236 C3235 1.398 . S
C3236 C3237 1.391 . S
C3237 H3225 0.950 . S
C3237 C3233 1.393 . S
C3237 C3236 1.391 . S
C3238 H3228 0.950 . S
C3238 C3239 1.386 . S
C3238 C3240 1.391 . S
C3239 C3238 1.386 . S
C3239 C3243 1.393 . S
C3240 H3229 0.950 . S
C3240 C3238 1.391 . S
C3240 C3241 1.400 . S
C3241 C3235 1.491 . S
C3241 C3240 1.400 . S
C3241 C3242 1.398 . S
C3242 H3230 0.950 . S
C3242 C3241 1.398 . S
C3242 C3243 1.391 . S
C3243 H3231 0.950 . S
C3243 C3239 1.393 . S
C3243 C3242 1.391 . S
H3244 C3252 0.950 . S
H3245 C3257 0.950 . S
H3246 C3254 0.950 . S
H3247 C3256 0.950 . S
H3248 C3258 0.950 . S
H3249 C3260 0.950 . S
H3250 C3262 0.950 . S
H3251 C3263 0.950 . S
C3252 H3244 0.950 . S
C3252 C3253 1.386 1_556 S
C3252 C3254 1.391 . S
C3253 C3252 1.386 1_554 S
C3253 C3257 1.393 . S
C3254 H3246 0.950 . S
C3254 C3252 1.391 . S
C3254 C3255 1.400 1_556 S
C3255 C3254 1.400 1_554 S
C3255 C3256 1.398 . S
C3255 C3261 1.491 1_544 S
C3256 H3247 0.950 . S
C3256 C3255 1.398 . S
C3256 C3257 1.391 . S
C3257 H3245 0.950 . S
C3257 C3253 1.393 . S
C3257 C3256 1.391 . S
C3258 H3248 0.950 . S
C3258 C3259 1.386 1_554 S
C3258 C3260 1.391 . S
C3259 C3258 1.386 1_556 S
C3259 C3263 1.393 . S
C3260 H3249 0.950 . S
C3260 C3258 1.391 . S
C3260 C3261 1.400 1_554 S
C3261 C3255 1.491 1_566 S
C3261 C3260 1.400 1_556 S
C3261 C3262 1.398 . S
C3262 H3250 0.950 . S
C3262 C3261 1.398 . S
C3262 C3263 1.391 . S
C3263 H3251 0.950 . S
C3263 C3259 1.393 . S
C3263 C3262 1.391 . S
H3264 C3272 0.950 . S
H3265 C3277 0.950 . S
H3266 C3274 0.950 . S
H3267 C3276 0.950 . S
H3268 C3278 0.950 . S
H3269 C3280 0.950 . S
H3270 C3282 0.950 . S
H3271 C3283 0.950 . S
C3272 H3264 0.950 . S
C3272 C3273 1.386 . S
C3272 C3274 1.391 . S
C3273 C3272 1.386 . S
C3273 C3277 1.393 1_455 S
C3274 H3266 0.950 . S
C3274 C3272 1.391 . S
C3274 C3275 1.400 . S
C3275 C3274 1.400 . S
C3275 C3276 1.398 1_455 S
C3275 C3281 1.491 . S
C3276 H3267 0.950 . S
C3276 C3275 1.398 1_655 S
C3276 C3277 1.391 . S
C3277 H3265 0.950 . S
C3277 C3273 1.393 1_655 S
C3277 C3276 1.391 . S
C3278 H3268 0.950 . S
C3278 C3279 1.386 1_655 S
C3278 C3280 1.391 . S
C3279 C3278 1.386 1_455 S
C3279 C3283 1.393 . S
C3280 H3269 0.950 . S
C3280 C3278 1.391 . S
C3280 C3281 1.400 1_655 S
C3281 C3275 1.491 . S
C3281 C3280 1.400 1_455 S
C3281 C3282 1.398 . S
C3282 H3270 0.950 . S
C3282 C3281 1.398 . S
C3282 C3283 1.391 . S
C3283 H3271 0.950 . S
C3283 C3279 1.393 . S
C3283 C3282 1.391 . S
H3284 C3292 0.950 . S
H3285 C3297 0.950 . S
H3286 C3294 0.950 . S
H3287 C3296 0.950 . S
H3288 C3298 0.950 . S
H3289 C3300 0.950 . S
H3290 C3302 0.950 . S
H3291 C3303 0.950 . S
C3292 H3284 0.950 . S
C3292 C3293 1.386 . S
C3292 C3294 1.391 . S
C3293 C3292 1.386 . S
C3293 C3297 1.393 . S
C3294 H3286 0.950 . S
C3294 C3292 1.391 . S
C3294 C3295 1.400 . S
C3295 C3294 1.400 . S
C3295 C3296 1.398 . S
C3295 C3301 1.491 . S
C3296 H3287 0.950 . S
C3296 C3295 1.398 . S
C3296 C3297 1.391 . S
C3297 H3285 0.950 . S
C3297 C3293 1.393 . S
C3297 C3296 1.391 . S
C3298 H3288 0.950 . S
C3298 C3299 1.386 . S
C3298 C3300 1.391 . S
C3299 C3298 1.386 . S
C3299 C3303 1.393 . S
C3300 H3289 0.950 . S
C3300 C3298 1.391 . S
C3300 C3301 1.400 . S
C3301 C3295 1.491 . S
C3301 C3300 1.400 . S
C3301 C3302 1.398 . S
C3302 H3290 0.950 . S
C3302 C3301 1.398 . S
C3302 C3303 1.391 . S
C3303 H3291 0.950 . S
C3303 C3299 1.393 . S
C3303 C3302 1.391 . S
H3304 C3312 0.950 . S
H3305 C3317 0.950 . S
H3306 C3314 0.950 . S
H3307 C3316 0.950 . S
H3308 C3318 0.950 . S
H3309 C3320 0.950 . S
H3310 C3322 0.950 . S
H3311 C3323 0.950 . S
C3312 H3304 0.950 . S
C3312 C3313 1.386 1_455 S
C3312 C3314 1.391 . S
C3313 C3312 1.386 1_655 S
C3313 C3317 1.393 . S
C3314 H3306 0.950 . S
C3314 C3312 1.391 . S
C3314 C3315 1.400 1_455 S
C3315 C3314 1.400 1_655 S
C3315 C3316 1.398 . S
C3315 C3321 1.491 . S
C3316 H3307 0.950 . S
C3316 C3315 1.398 . S
C3316 C3317 1.391 . S
C3317 H3305 0.950 . S
C3317 C3313 1.393 . S
C3317 C3316 1.391 . S
C3318 H3308 0.950 . S
C3318 C3319 1.386 . S
C3318 C3320 1.391 . S
C3319 C3318 1.386 . S
C3319 C3323 1.393 1_655 S
C3320 H3309 0.950 . S
C3320 C3318 1.391 . S
C3320 C3321 1.400 . S
C3321 C3315 1.491 . S
C3321 C3320 1.400 . S
C3321 C3322 1.398 1_655 S
C3322 H3310 0.950 . S
C3322 C3321 1.398 1_455 S
C3322 C3323 1.391 . S
C3323 H3311 0.950 . S
C3323 C3319 1.393 1_455 S
C3323 C3322 1.391 . S
H3324 C3332 0.950 . S
H3325 C3337 0.950 . S
H3326 C3334 0.950 . S
H3327 C3336 0.950 . S
H3328 C3338 0.950 . S
H3329 C3340 0.950 . S
H3330 C3342 0.950 . S
H3331 C3343 0.950 . S
C3332 H3324 0.950 . S
C3332 C3333 1.386 . S
C3332 C3334 1.391 . S
C3333 C3332 1.386 . S
C3333 C3337 1.393 . S
C3334 H3326 0.950 . S
C3334 C3332 1.391 . S
C3334 C3335 1.400 . S
C3335 C3334 1.400 . S
C3335 C3336 1.398 . S
C3335 C3341 1.491 . S
C3336 H3327 0.950 . S
C3336 C3335 1.398 . S
C3336 C3337 1.391 . S
C3337 H3325 0.950 . S
C3337 C3333 1.393 . S
C3337 C3336 1.391 . S
C3338 H3328 0.950 . S
C3338 C3339 1.386 . S
C3338 C3340 1.391 . S
C3339 C3338 1.386 . S
C3339 C3343 1.393 . S
C3340 H3329 0.950 . S
C3340 C3338 1.391 . S
C3340 C3341 1.400 . S
C3341 C3335 1.491 . S
C3341 C3340 1.400 . S
C3341 C3342 1.398 . S
C3342 H3330 0.950 . S
C3342 C3341 1.398 . S
C3342 C3343 1.391 . S
C3343 H3331 0.950 . S
C3343 C3339 1.393 . S
C3343 C3342 1.391 . S
H3344 C3352 0.950 . S
H3345 C3357 0.950 . S
H3346 C3354 0.950 . S
H3347 C3356 0.950 . S
H3348 C3358 0.950 . S
H3349 C3360 0.950 . S
H3350 C3362 0.950 . S
H3351 C3363 0.950 . S
C3352 H3344 0.950 . S
C3352 C3353 1.386 . S
C3352 C3354 1.391 . S
C3353 C3352 1.386 . S
C3353 C3357 1.393 . S
C3354 H3346 0.950 . S
C3354 C3352 1.391 . S
C3354 C3355 1.400 . S
C3355 C3354 1.400 . S
C3355 C3356 1.398 . S
C3355 C3361 1.491 . S
C3356 H3347 0.950 . S
C3356 C3355 1.398 . S
C3356 C3357 1.391 . S
C3357 H3345 0.950 . S
C3357 C3353 1.393 . S
C3357 C3356 1.391 . S
C3358 H3348 0.950 . S
C3358 C3359 1.386 . S
C3358 C3360 1.391 . S
C3359 C3358 1.386 . S
C3359 C3363 1.393 . S
C3360 H3349 0.950 . S
C3360 C3358 1.391 . S
C3360 C3361 1.400 . S
C3361 C3355 1.491 . S
C3361 C3360 1.400 . S
C3361 C3362 1.398 . S
C3362 H3350 0.950 . S
C3362 C3361 1.398 . S
C3362 C3363 1.391 . S
C3363 H3351 0.950 . S
C3363 C3359 1.393 . S
C3363 C3362 1.391 . S
H3364 C3372 0.950 . S
H3365 C3377 0.950 . S
H3366 C3374 0.950 . S
H3367 C3376 0.950 . S
H3368 C3378 0.950 . S
H3369 C3380 0.950 . S
H3370 C3382 0.950 . S
H3371 C3383 0.950 . S
C3372 H3364 0.950 . S
C3372 C3373 1.386 . S
C3372 C3374 1.391 . S
C3373 C3372 1.386 . S
C3373 C3377 1.393 . S
C3374 H3366 0.950 . S
C3374 C3372 1.391 . S
C3374 C3375 1.400 . S
C3375 C3374 1.400 . S
C3375 C3376 1.398 . S
C3375 C3381 1.491 . S
C3376 H3367 0.950 . S
C3376 C3375 1.398 . S
C3376 C3377 1.391 . S
C3377 H3365 0.950 . S
C3377 C3373 1.393 . S
C3377 C3376 1.391 . S
C3378 H3368 0.950 . S
C3378 C3379 1.386 . S
C3378 C3380 1.391 . S
C3379 C3378 1.386 . S
C3379 C3383 1.393 . S
C3380 H3369 0.950 . S
C3380 C3378 1.391 . S
C3380 C3381 1.400 . S
C3381 C3375 1.491 . S
C3381 C3380 1.400 . S
C3381 C3382 1.398 . S
C3382 H3370 0.950 . S
C3382 C3381 1.398 . S
C3382 C3383 1.391 . S
C3383 H3371 0.950 . S
C3383 C3379 1.393 . S
C3383 C3382 1.391 . S
H3384 C3392 0.950 . S
H3385 C3397 0.950 . S
H3386 C3394 0.950 . S
H3387 C3396 0.950 . S
H3388 C3398 0.950 . S
H3389 C3400 0.950 . S
H3390 C3402 0.950 . S
H3391 C3403 0.950 . S
C3392 H3384 0.950 . S
C3392 C3393 1.386 . S
C3392 C3394 1.391 . S
C3393 C3392 1.386 . S
C3393 C3397 1.393 1_655 S
C3394 H3386 0.950 . S
C3394 C3392 1.391 . S
C3394 C3395 1.400 . S
C3395 C3394 1.400 . S
C3395 C3396 1.398 1_655 S
C3395 C3401 1.491 . S
C3396 H3387 0.950 . S
C3396 C3395 1.398 1_455 S
C3396 C3397 1.391 . S
C3397 H3385 0.950 . S
C3397 C3393 1.393 1_455 S
C3397 C3396 1.391 . S
C3398 H3388 0.950 . S
C3398 C3399 1.386 1_455 S
C3398 C3400 1.391 . S
C3399 C3398 1.386 1_655 S
C3399 C3403 1.393 . S
C3400 H3389 0.950 . S
C3400 C3398 1.391 . S
C3400 C3401 1.400 1_455 S
C3401 C3395 1.491 . S
C3401 C3400 1.400 1_655 S
C3401 C3402 1.398 . S
C3402 H3390 0.950 . S
C3402 C3401 1.398 . S
C3402 C3403 1.391 . S
C3403 H3391 0.950 . S
C3403 C3399 1.393 . S
C3403 C3402 1.391 . S
H3404 C3412 0.950 . S
H3405 C3417 0.950 . S
H3406 C3414 0.950 . S
H3407 C3416 0.950 . S
H3408 C3418 0.950 . S
H3409 C3420 0.950 . S
H3410 C3422 0.950 . S
H3411 C3423 0.950 . S
C3412 H3404 0.950 . S
C3412 C3413 1.386 . S
C3412 C3414 1.391 . S
C3413 C3412 1.386 . S
C3413 C3417 1.393 . S
C3414 H3406 0.950 . S
C3414 C3412 1.391 . S
C3414 C3415 1.400 . S
C3415 C3414 1.400 . S
C3415 C3416 1.398 . S
C3415 C3421 1.491 . S
C3416 H3407 0.950 . S
C3416 C3415 1.398 . S
C3416 C3417 1.391 . S
C3417 H3405 0.950 . S
C3417 C3413 1.393 . S
C3417 C3416 1.391 . S
C3418 H3408 0.950 . S
C3418 C3419 1.386 . S
C3418 C3420 1.391 . S
C3419 C3418 1.386 . S
C3419 C3423 1.393 . S
C3420 H3409 0.950 . S
C3420 C3418 1.391 . S
C3420 C3421 1.400 . S
C3421 C3415 1.491 . S
C3421 C3420 1.400 . S
C3421 C3422 1.398 . S
C3422 H3410 0.950 . S
C3422 C3421 1.398 . S
C3422 C3423 1.391 . S
C3423 H3411 0.950 . S
C3423 C3419 1.393 . S
C3423 C3422 1.391 . S
H3424 C3432 0.950 . S
H3425 C3437 0.950 . S
H3426 C3434 0.950 . S
H3427 C3436 0.950 . S
H3428 C3438 0.950 . S
H3429 C3440 0.950 . S
H3430 C3442 0.950 . S
H3431 C3443 0.950 . S
C3432 H3424 0.950 . S
C3432 C3433 1.386 . S
C3432 C3434 1.391 . S
C3433 C3432 1.386 . S
C3433 C3437 1.393 . S
C3434 H3426 0.950 . S
C3434 C3432 1.391 . S
C3434 C3435 1.400 . S
C3435 C3434 1.400 . S
C3435 C3436 1.398 . S
C3435 C3441 1.491 . S
C3436 H3427 0.950 . S
C3436 C3435 1.398 . S
C3436 C3437 1.391 . S
C3437 H3425 0.950 . S
C3437 C3433 1.393 . S
C3437 C3436 1.391 . S
C3438 H3428 0.950 . S
C3438 C3439 1.386 . S
C3438 C3440 1.391 . S
C3439 C3438 1.386 . S
C3439 C3443 1.393 . S
C3440 H3429 0.950 . S
C3440 C3438 1.391 . S
C3440 C3441 1.400 . S
C3441 C3435 1.491 . S
C3441 C3440 1.400 . S
C3441 C3442 1.398 . S
C3442 H3430 0.950 . S
C3442 C3441 1.398 . S
C3442 C3443 1.391 . S
C3443 H3431 0.950 . S
C3443 C3439 1.393 . S
C3443 C3442 1.391 . S
H3444 C3452 0.950 . S
H3445 C3457 0.950 . S
H3446 C3454 0.950 . S
H3447 C3456 0.950 . S
H3448 C3458 0.950 . S
H3449 C3460 0.950 . S
H3450 C3462 0.950 . S
H3451 C3463 0.950 . S
C3452 H3444 0.950 . S
C3452 C3453 1.386 . S
C3452 C3454 1.391 . S
C3453 C3452 1.386 . S
C3453 C3457 1.393 . S
C3454 H3446 0.950 . S
C3454 C3452 1.391 . S
C3454 C3455 1.400 . S
C3455 C3454 1.400 . S
C3455 C3456 1.398 . S
C3455 C3461 1.491 . S
C3456 H3447 0.950 . S
C3456 C3455 1.398 . S
C3456 C3457 1.391 . S
C3457 H3445 0.950 . S
C3457 C3453 1.393 . S
C3457 C3456 1.391 . S
C3458 H3448 0.950 . S
C3458 C3459 1.386 . S
C3458 C3460 1.391 . S
C3459 C3458 1.386 . S
C3459 C3463 1.393 . S
C3460 H3449 0.950 . S
C3460 C3458 1.391 . S
C3460 C3461 1.400 . S
C3461 C3455 1.491 . S
C3461 C3460 1.400 . S
C3461 C3462 1.398 . S
C3462 H3450 0.950 . S
C3462 C3461 1.398 . S
C3462 C3463 1.391 . S
C3463 H3451 0.950 . S
C3463 C3459 1.393 . S
C3463 C3462 1.391 . S
H3464 C3472 0.950 . S
H3465 C3477 0.950 . S
H3466 C3474 0.950 . S
H3467 C3476 0.950 . S
H3468 C3478 0.950 . S
H3469 C3480 0.950 . S
H3470 C3482 0.950 . S
H3471 C3483 0.950 . S
C3472 H3464 0.950 . S
C3472 C3473 1.386 . S
C3472 C3474 1.391 . S
C3473 C3472 1.386 . S
C3473 C3477 1.393 . S
C3474 H3466 0.950 . S
C3474 C3472 1.391 . S
C3474 C3475 1.400 . S
C3475 C3474 1.400 . S
C3475 C3476 1.398 . S
C3475 C3481 1.491 . S
C3476 H3467 0.950 . S
C3476 C3475 1.398 . S
C3476 C3477 1.391 . S
C3477 H3465 0.950 . S
C3477 C3473 1.393 . S
C3477 C3476 1.391 . S
C3478 H3468 0.950 . S
C3478 C3479 1.386 . S
C3478 C3480 1.391 . S
C3479 C3478 1.386 . S
C3479 C3483 1.393 . S
C3480 H3469 0.950 . S
C3480 C3478 1.391 . S
C3480 C3481 1.400 . S
C3481 C3475 1.491 . S
C3481 C3480 1.400 . S
C3481 C3482 1.398 . S
C3482 H3470 0.950 . S
C3482 C3481 1.398 . S
C3482 C3483 1.391 . S
C3483 H3471 0.950 . S
C3483 C3479 1.393 . S
C3483 C3482 1.391 . S
H3484 C3492 0.950 . S
H3485 C3497 0.950 . S
H3486 C3494 0.950 . S
H3487 C3496 0.950 . S
H3488 C3498 0.950 . S
H3489 C3500 0.950 . S
H3490 C3502 0.950 . S
H3491 C3503 0.950 . S
C3492 H3484 0.950 . S
C3492 C3493 1.386 . S
C3492 C3494 1.391 . S
C3493 C3492 1.386 . S
C3493 C3497 1.393 . S
C3494 H3486 0.950 . S
C3494 C3492 1.391 . S
C3494 C3495 1.400 . S
C3495 C3494 1.400 . S
C3495 C3496 1.398 . S
C3495 C3501 1.491 . S
C3496 H3487 0.950 . S
C3496 C3495 1.398 . S
C3496 C3497 1.391 . S
C3497 H3485 0.950 . S
C3497 C3493 1.393 . S
C3497 C3496 1.391 . S
C3498 H3488 0.950 . S
C3498 C3499 1.386 . S
C3498 C3500 1.391 . S
C3499 C3498 1.386 . S
C3499 C3503 1.393 . S
C3500 H3489 0.950 . S
C3500 C3498 1.391 . S
C3500 C3501 1.400 . S
C3501 C3495 1.491 . S
C3501 C3500 1.400 . S
C3501 C3502 1.398 . S
C3502 H3490 0.950 . S
C3502 C3501 1.398 . S
C3502 C3503 1.391 . S
C3503 H3491 0.950 . S
C3503 C3499 1.393 . S
C3503 C3502 1.391 . S
H3504 C3512 0.950 . S
H3505 C3517 0.950 . S
H3506 C3514 0.950 . S
H3507 C3516 0.950 . S
H3508 C3518 0.950 . S
H3509 C3520 0.950 . S
H3510 C3522 0.950 . S
H3511 C3523 0.950 . S
C3512 H3504 0.950 . S
C3512 C3513 1.386 . S
C3512 C3514 1.391 . S
C3513 C3512 1.386 . S
C3513 C3517 1.393 . S
C3514 H3506 0.950 . S
C3514 C3512 1.391 . S
C3514 C3515 1.400 . S
C3515 C3514 1.400 . S
C3515 C3516 1.398 . S
C3515 C3521 1.491 . S
C3516 H3507 0.950 . S
C3516 C3515 1.398 . S
C3516 C3517 1.391 . S
C3517 H3505 0.950 . S
C3517 C3513 1.393 . S
C3517 C3516 1.391 . S
C3518 H3508 0.950 . S
C3518 C3519 1.386 . S
C3518 C3520 1.391 . S
C3519 C3518 1.386 . S
C3519 C3523 1.393 . S
C3520 H3509 0.950 . S
C3520 C3518 1.391 . S
C3520 C3521 1.400 . S
C3521 C3515 1.491 . S
C3521 C3520 1.400 . S
C3521 C3522 1.398 . S
C3522 H3510 0.950 . S
C3522 C3521 1.398 . S
C3522 C3523 1.391 . S
C3523 H3511 0.950 . S
C3523 C3519 1.393 . S
C3523 C3522 1.391 . S
H3524 C3532 0.950 . S
H3525 C3537 0.950 . S
H3526 C3534 0.950 . S
H3527 C3536 0.950 . S
H3528 C3538 0.950 . S
H3529 C3540 0.950 . S
H3530 C3542 0.950 . S
H3531 C3543 0.950 . S
C3532 H3524 0.950 . S
C3532 C3533 1.386 . S
C3532 C3534 1.391 . S
C3533 C3532 1.386 . S
C3533 C3537 1.393 . S
C3534 H3526 0.950 . S
C3534 C3532 1.391 . S
C3534 C3535 1.400 . S
C3535 C3534 1.400 . S
C3535 C3536 1.398 . S
C3535 C3541 1.491 . S
C3536 H3527 0.950 . S
C3536 C3535 1.398 . S
C3536 C3537 1.391 . S
C3537 H3525 0.950 . S
C3537 C3533 1.393 . S
C3537 C3536 1.391 . S
C3538 H3528 0.950 . S
C3538 C3539 1.386 . S
C3538 C3540 1.391 . S
C3539 C3538 1.386 . S
C3539 C3543 1.393 . S
C3540 H3529 0.950 . S
C3540 C3538 1.391 . S
C3540 C3541 1.400 . S
C3541 C3535 1.491 . S
C3541 C3540 1.400 . S
C3541 C3542 1.398 . S
C3542 H3530 0.950 . S
C3542 C3541 1.398 . S
C3542 C3543 1.391 . S
C3543 H3531 0.950 . S
C3543 C3539 1.393 . S
C3543 C3542 1.391 . S
H3544 C3552 0.950 . S
H3545 C3557 0.950 . S
H3546 C3554 0.950 . S
H3547 C3556 0.950 . S
H3548 C3558 0.950 . S
H3549 C3560 0.950 . S
H3550 C3562 0.950 . S
H3551 C3563 0.950 . S
C3552 H3544 0.950 . S
C3552 C3553 1.386 . S
C3552 C3554 1.391 . S
C3553 C3552 1.386 . S
C3553 C3557 1.393 . S
C3554 H3546 0.950 . S
C3554 C3552 1.391 . S
C3554 C3555 1.400 . S
C3555 C3554 1.400 . S
C3555 C3556 1.398 . S
C3555 C3561 1.491 . S
C3556 H3547 0.950 . S
C3556 C3555 1.398 . S
C3556 C3557 1.391 . S
C3557 H3545 0.950 . S
C3557 C3553 1.393 . S
C3557 C3556 1.391 . S
C3558 H3548 0.950 . S
C3558 C3559 1.386 . S
C3558 C3560 1.391 . S
C3559 C3558 1.386 . S
C3559 C3563 1.393 . S
C3560 H3549 0.950 . S
C3560 C3558 1.391 . S
C3560 C3561 1.400 . S
C3561 C3555 1.491 . S
C3561 C3560 1.400 . S
C3561 C3562 1.398 . S
C3562 H3550 0.950 . S
C3562 C3561 1.398 . S
C3562 C3563 1.391 . S
C3563 H3551 0.950 . S
C3563 C3559 1.393 . S
C3563 C3562 1.391 . S
H3564 C3572 0.950 . S
H3565 C3577 0.950 . S
H3566 C3574 0.950 . S
H3567 C3576 0.950 . S
H3568 C3578 0.950 . S
H3569 C3580 0.950 . S
H3570 C3582 0.950 . S
H3571 C3583 0.950 . S
C3572 H3564 0.950 . S
C3572 C3573 1.386 . S
C3572 C3574 1.391 . S
C3573 C3572 1.386 . S
C3573 C3577 1.393 . S
C3574 H3566 0.950 . S
C3574 C3572 1.391 . S
C3574 C3575 1.400 . S
C3575 C3574 1.400 . S
C3575 C3576 1.398 . S
C3575 C3581 1.491 . S
C3576 H3567 0.950 . S
C3576 C3575 1.398 . S
C3576 C3577 1.391 . S
C3577 H3565 0.950 . S
C3577 C3573 1.393 . S
C3577 C3576 1.391 . S
C3578 H3568 0.950 . S
C3578 C3579 1.386 . S
C3578 C3580 1.391 . S
C3579 C3578 1.386 . S
C3579 C3583 1.393 . S
C3580 H3569 0.950 . S
C3580 C3578 1.391 . S
C3580 C3581 1.400 . S
C3581 C3575 1.491 . S
C3581 C3580 1.400 . S
C3581 C3582 1.398 . S
C3582 H3570 0.950 . S
C3582 C3581 1.398 . S
C3582 C3583 1.391 . S
C3583 H3571 0.950 . S
C3583 C3579 1.393 . S
C3583 C3582 1.391 . S
C1033 C822 1.621 . S
C1039 C17 1.658 . S
C1053 C54 1.625 . S
C1059 C785 1.657 . S
C1073 C881 1.874 . S
C1079 C81 1.875 . S
C1093 C113 1.867 . S
C1099 C849 1.876 . S
C1113 C946 1.635 . S
C1119 C149 1.648 . S
C1133 C178 1.619 . S
C1139 C917 1.656 . S
C1153 C1013 1.869 . S
C1159 C213 1.878 . S
C1173 C245 1.866 . S
C1179 C981 1.876 . S
C1193 C273 1.652 . S
C1199 C566 1.624 . S
C1213 C310 1.626 . S
C1219 C529 1.656 . S
C1233 C625 1.865 . S
C1239 C337 1.878 . S
C1253 C369 1.866 . S
C1259 C593 1.877 . S
C1273 C405 1.650 . S
C1279 C690 1.628 . S
C1293 C661 1.653 . S
C1299 C434 1.623 . S
C1313 C757 1.873 . S
C1319 C469 1.873 . S
C1333 C725 1.878 . S
C1339 C501 1.865 . S
C1353 C948 2.093 . S
C1359 C18 2.128 . S
C1373 C52 1.608 . S
C1379 C146 1.563 . S
C1393 C82 1.697 . S
C1399 C754 1.673 . S
C1413 C114 1.913 . S
C1419 C466 1.869 . S
C1433 C816 2.083 . S
C1439 C150 2.126 . S
C1453 C22 1.563 . S
C1459 C176 1.602 . S
C1473 C630 1.673 . S
C1479 C214 1.691 . S
C1493 C246 1.911 . S
C1499 C342 1.871 . S
C1513 C692 2.081 1_565 S
C1519 C274 2.125 . S
C1533 C402 1.587 . S
C1539 C308 1.612 . S
C1553 C338 1.691 . S
C1559 C1010 1.668 . S
C1573 C210 1.886 . S
C1579 C370 1.922 . S
C1593 C560 2.094 1_545 S
C1599 C406 2.127 . S
C1613 C432 1.603 . S
C1619 C278 1.580 . S
C1633 C470 1.692 . S
C1639 C886 1.674 . S
C1653 C502 1.915 . S
C1659 C86 1.878 . S
C1673 C530 2.128 . S
C1679 C436 2.088 . S
C1693 C658 1.563 . S
C1699 C564 1.601 . S
C1713 C242 1.685 . S
C1719 C594 1.700 . S
C1733 C978 1.877 . S
C1739 C626 1.914 . S
C1753 C662 2.127 . S
C1759 C304 2.086 . S
C1773 C688 1.600 . S
C1779 C534 1.566 . S
C1793 C726 1.705 . S
C1799 C118 1.685 . S
C1813 C758 1.922 . S
C1819 C854 1.882 . S
C1833 C180 2.094 1_565 S
C1839 C786 2.120 . S
C1853 C914 1.572 . S
C1859 C820 1.600 . S
C1873 C498 1.669 . S
C1879 C850 1.690 . S
C1893 C882 1.923 . S
C1899 C722 1.887 . S
C1913 C918 2.117 . S
C1919 C48 2.090 1_545 S
C1933 C944 1.600 . S
C1939 C790 1.573 . S
C1953 C982 1.692 . S
C1959 C374 1.669 . S
C1973 C1014 1.913 . S
C1979 C598 1.869 . S
C1993 C211 1.001 1_455 S
C1999 C19 1.024 1_455 S
C2013 C51 1.200 . S
C2019 C1011 1.183 . S
C2033 C403 1.113 . S
C2039 C83 1.091 1_545 S
C2053 C691 0.698 . S
C2059 C115 0.691 . S
C2073 C87 1.024 1_655 S
C2079 C151 1.038 1_655 S
C2093 C183 1.189 . S
C2099 C887 1.169 . S
C2113 C279 1.104 . S
C2119 C215 1.061 1_565 S
C2133 C247 0.705 . S
C2139 C567 0.700 . S
C2153 C275 1.019 1_455 S
C2159 C467 1.002 1_455 S
C2173 C755 1.181 . S
C2179 C307 1.181 . S
C2193 C339 1.064 . S
C2199 C147 1.126 . S
C2213 C947 0.681 . S
C2219 C371 0.710 . S
C2233 C407 1.021 1_655 S
C2239 C343 1.043 1_655 S
C2253 C631 1.176 . S
C2259 C439 1.183 . S
C2273 C471 1.078 . S
C2279 C23 1.125 . S
C2293 C823 0.693 . S
C2299 C503 0.744 . S
C2313 C531 1.023 . S
C2319 C723 1.019 . S
C2333 C563 1.201 . S
C2339 C499 1.166 . S
C2353 C915 1.103 . S
C2359 C595 1.071 1_545 S
C2373 C627 0.685 . S
C2379 C179 0.681 . S
C2393 C599 1.027 . S
C2399 C663 1.053 . S
C2413 C695 1.195 . S
C2419 C375 1.165 . S
C2433 C791 1.113 . S
C2439 C727 1.091 1_565 S
C2453 C759 0.714 . S
C2459 C55 0.701 . S
C2473 C979 1.001 . S
C2479 C787 1.037 . S
C2493 C819 1.189 . S
C2499 C243 1.169 . S
C2513 C851 1.091 . S
C2519 C659 1.114 . S
C2533 C883 0.737 . S
C2539 C435 0.698 . S
C2553 C855 1.013 . S
C2559 C919 1.054 . S
C2573 C951 1.187 . S
C2579 C119 1.172 . S
C2593 C535 1.126 . S
C2599 C983 1.066 . S
C2613 C1015 0.728 . S
C2619 C311 0.700 . S
C2633 C117 1.461 . S
C2639 C21 1.461 . S
C2653 C85 1.507 . S
C2659 C50 1.442 . S
C2673 C145 1.473 . S
C2679 C241 1.445 . S
C2693 C209 1.503 . S
C2699 C182 1.464 . S
C2713 C373 1.465 . S
C2719 C277 1.469 . S
C2733 C306 1.468 . S
C2739 C341 1.500 . S
C2753 C497 1.446 . S
C2759 C401 1.452 . S
C2773 C465 1.500 . S
C2779 C438 1.439 . S
C2793 C533 1.453 . S
C2799 C629 1.449 . S
C2813 C597 1.505 . S
C2819 C562 1.461 . S
C2833 C657 1.463 . S
C2839 C753 1.462 . S
C2853 C721 1.495 . S
C2859 C694 1.442 . S
C2873 C885 1.456 . S
C2879 C789 1.477 . S
C2893 C818 1.452 . S
C2899 C853 1.488 . S
C2913 C913 1.460 . S
C2919 C1009 1.436 . S
C2933 C950 1.462 . S
C2939 C977 1.505 . S
C2953 C20 0.795 1_556 S
C2959 C144 0.795 1_554 S
C2973 C949 1.392 . S
C2979 C49 1.392 . S
C2993 C464 0.814 . S
C2999 C84 0.814 . S
C3013 C752 0.859 . S
C3019 C116 0.859 . S
C3033 C817 1.406 1_556 S
C3039 C181 1.406 1_554 S
C3053 C340 0.794 . S
C3059 C208 0.794 . S
C3073 C240 0.848 . S
C3079 C628 0.848 . S
C3093 C400 0.779 . S
C3099 C276 0.779 . S
C3113 C305 1.382 . S
C3119 C693 1.382 . S
C3133 C372 0.859 . S
C3139 C1008 0.859 . S
C3153 C437 1.384 . S
C3159 C561 1.384 . S
C3173 C884 0.841 . S
C3179 C496 0.841 . S
C3193 C656 0.780 . S
C3199 C532 0.780 . S
C3213 C976 0.810 . S
C3219 C596 0.810 . S
C3233 C720 0.813 . S
C3239 C852 0.813 . S
C3253 C912 0.796 1_554 S
C3259 C788 0.796 1_556 S
C3273 C80 1.706 . S
C3279 C16 1.699 . S
C3293 C112 1.785 . S
C3299 C53 1.777 . S
C3313 C148 1.701 . S
C3319 C212 1.699 . S
C3333 C177 1.782 . S
C3339 C244 1.778 . S
C3353 C336 1.710 . S
C3359 C272 1.701 . S
C3373 C368 1.784 . S
C3379 C309 1.776 . S
C3393 C404 1.716 . S
C3399 C468 1.709 . S
C3413 C500 1.785 . S
C3419 C433 1.776 . S
C3433 C592 1.713 . S
C3439 C528 1.712 . S
C3453 C565 1.779 . S
C3459 C624 1.783 . S
C3473 C724 1.715 . S
C3479 C660 1.710 . S
C3493 C689 1.782 . S
C3499 C756 1.778 . S
C3513 C784 1.709 . S
C3519 C848 1.715 . S
C3533 C821 1.776 . S
C3539 C880 1.785 . S
C3553 C980 1.709 . S
C3559 C916 1.712 . S
C3573 C1012 1.777 . S
C3579 C945 1.784 . S
