# Generated by pormake.
# Topology umf, (4)-cn, num edge types: 1
# Building blocks:
#     Node 0, Type 0, BuildingBlock: ICAMEG_clean_sbu_1, # of connection points: 4
#     Node 1, Type 0, BuildingBlock: ICAMEG_clean_sbu_1, # of connection points: 4
#     Node 2, Type 0, BuildingBlock: ICAMEG_clean_sbu_1, # of connection points: 4
#     Node 3, Type 0, BuildingBlock: ICAMEG_clean_sbu_1, # of connection points: 4
#     Node 4, Type 0, BuildingBlock: ICAMEG_clean_sbu_1, # of connection points: 4
#     Node 5, Type 0, BuildingBlock: ICAMEG_clean_sbu_1, # of connection points: 4
#     Node 6, Type 0, BuildingBlock: ICAMEG_clean_sbu_1, # of connection points: 4
#     Node 7, Type 0, BuildingBlock: ICAMEG_clean_sbu_1, # of connection points: 4
#     Edge 8, Type (0, 0), BuildingBlock: UVAHIK_clean_linker_0, # of connection points: 2
#     Edge 9, Type (0, 0), BuildingBlock: UVAHIK_clean_linker_0, # of connection points: 2
#     Edge 10, Type (0, 0), BuildingBlock: UVAHIK_clean_linker_0, # of connection points: 2
#     Edge 11, Type (0, 0), BuildingBlock: UVAHIK_clean_linker_0, # of connection points: 2
#     Edge 12, Type (0, 0), BuildingBlock: UVAHIK_clean_linker_0, # of connection points: 2
#     Edge 13, Type (0, 0), BuildingBlock: UVAHIK_clean_linker_0, # of connection points: 2
#     Edge 14, Type (0, 0), BuildingBlock: UVAHIK_clean_linker_0, # of connection points: 2
#     Edge 15, Type (0, 0), BuildingBlock: UVAHIK_clean_linker_0, # of connection points: 2
#     Edge 16, Type (0, 0), BuildingBlock: UVAHIK_clean_linker_0, # of connection points: 2
#     Edge 17, Type (0, 0), BuildingBlock: UVAHIK_clean_linker_0, # of connection points: 2
#     Edge 18, Type (0, 0), BuildingBlock: UVAHIK_clean_linker_0, # of connection points: 2
#     Edge 19, Type (0, 0), BuildingBlock: UVAHIK_clean_linker_0, # of connection points: 2
#     Edge 20, Type (0, 0), BuildingBlock: UVAHIK_clean_linker_0, # of connection points: 2
#     Edge 21, Type (0, 0), BuildingBlock: UVAHIK_clean_linker_0, # of connection points: 2
#     Edge 22, Type (0, 0), BuildingBlock: UVAHIK_clean_linker_0, # of connection points: 2
#     Edge 23, Type (0, 0), BuildingBlock: UVAHIK_clean_linker_0, # of connection points: 2
# Relax obj value: 0.112
# Max RMSD: 0.202
# Mean RMSD: 0.202
data_MOF--net-umf--node1-ICAMEG_clean_sbu_1--edge1-UVAHIK_clean_linker_0
_symmetry_space_group_name_H-M    P1
_symmetry_Int_Tables_number       1
_symmetry_cell_setting            triclinic
loop_
_symmetry_equiv_pos_as_xyz
'x, y, z'
_cell_length_a     38.117564
_cell_length_b     38.088973
_cell_length_c     73.113577
_cell_angle_alpha  90.006076
_cell_angle_beta   89.992037
_cell_angle_gamma 90.02345
loop_
_atom_site_label
_atom_site_type_symbol
_atom_site_fract_x
_atom_site_fract_y
_atom_site_fract_z
_atom_type_partial_charge
Co0 Co 0.08067 0.2377 0.12968 0.0
Co1 Co 0.00811 0.24715 0.15764 0.0
O2 O 0.03925 0.26298 0.13817 0.0
C3 C 0.03479 0.24371 0.09766 0.0
O4 O 0.00947 0.23423 0.10876 0.0
C5 C 0.03348 0.31591 0.16998 0.0
O6 O 0.06519 0.30464 0.16618 0.0
O7 O 0.04856 0.2362 0.17376 0.0
O8 O 0.09541 0.22792 0.15549 0.0
H9 H 0.96628 0.16547 0.207 0.0
H10 H 0.06638 0.3096 0.11606 0.0
O11 O 0.06606 0.2467 0.10368 0.0
H12 H 0.18139 0.3167 0.14672 0.0
H13 H 0.18459 0.21893 0.08837 0.0
H14 H 0.11677 0.17184 0.14032 0.0
H15 H 0.14955 0.2604 0.14496 0.0
H16 H 0.13245 0.25034 0.09989 0.0
O17 O 0.00706 0.296 0.16751 0.0
H18 H 0.00522 0.18504 0.18204 0.0
H19 H 0.94461 0.27768 0.1753 0.0
H20 H 0.16889 0.13973 0.12935 0.0
H21 H 0.09741 0.36641 0.11741 0.0
H22 H 0.20319 0.16329 0.10319 0.0
H23 H 0.1553 0.37021 0.13287 0.0
O24 O 0.05479 0.19241 0.12904 0.0
H25 H 0.9387 0.32173 0.11402 0.0
H26 H 0.94355 0.20837 0.1465 0.0
H27 H 0.89409 0.22068 0.12573 0.0
H28 H 0.89146 0.27772 0.10931 0.0
H29 H 0.98783 0.30823 0.13481 0.0
H30 H 0.90516 0.25926 0.20029 0.0
H31 H 0.91583 0.20271 0.21627 0.0
O32 O 0.00885 0.1982 0.14808 0.0
C33 C 0.08078 0.22858 0.17122 0.0
C34 C 0.96129 0.1901 0.2001 0.0
C35 C 0.92701 0.24277 0.19635 0.0
N36 N 0.97698 0.23229 0.17713 0.0
C37 C 0.98318 0.20127 0.18593 0.0
C38 C 0.94946 0.25309 0.18224 0.0
C39 C 0.933 0.21103 0.20531 0.0
C40 C 0.09172 0.311 0.12266 0.0
N41 N 0.10624 0.2817 0.13032 0.0
C42 C 0.1091 0.34325 0.12344 0.0
C43 C 0.14156 0.34538 0.13214 0.0
C44 C 0.1562 0.31537 0.13993 0.0
C45 C 0.13804 0.28358 0.13891 0.0
C46 C 0.16992 0.20845 0.09981 0.0
C47 C 0.13173 0.18237 0.12902 0.0
C48 C 0.14036 0.22608 0.10637 0.0
N49 N 0.12183 0.21309 0.12087 0.0
C50 C 0.16113 0.16402 0.12282 0.0
C51 C 0.18034 0.17723 0.10813 0.0
C52 C 0.0277 0.1803 0.13709 0.0
C53 C 0.9395 0.29683 0.12114 0.0
C54 C 0.9426 0.23324 0.1394 0.0
C55 C 0.9145 0.24009 0.12768 0.0
C56 C 0.91303 0.2721 0.11848 0.0
N57 N 0.96846 0.25763 0.14193 0.0
C58 C 0.96717 0.2891 0.13299 0.0
Co59 Co 0.75172 0.08215 0.62991 0.0
Co60 Co 0.74661 0.00937 0.6581 0.0
O61 O 0.72906 0.03919 0.63847 0.0
C62 C 0.74936 0.03522 0.59819 0.0
O63 O 0.76007 0.01085 0.60956 0.0
C64 C 0.67617 0.03001 0.6701 0.0
O65 O 0.68492 0.0623 0.66578 0.0
O66 O 0.75437 0.05071 0.67407 0.0
O67 O 0.76011 0.09795 0.65572 0.0
H68 H 0.83018 0.97399 0.70792 0.0
H69 H 0.68127 0.06282 0.61596 0.0
O70 O 0.74427 0.06645 0.60392 0.0
H71 H 0.66585 0.17753 0.64618 0.0
H72 H 0.76409 0.18649 0.58819 0.0
H73 H 0.81492 0.12272 0.64056 0.0
H74 H 0.72416 0.14956 0.64481 0.0
H75 H 0.73607 0.13252 0.59986 0.0
O76 O 0.69794 0.00504 0.66787 0.0
H77 H 0.80831 0.01119 0.68277 0.0
H78 H 0.72037 0.944 0.67585 0.0
H79 H 0.84364 0.17673 0.62945 0.0
H80 H 0.62253 0.08993 0.61691 0.0
H81 H 0.81819 0.20899 0.60307 0.0
H82 H 0.61453 0.14765 0.63216 0.0
O83 O 0.7986 0.05944 0.6296 0.0
H84 H 0.6776 0.93432 0.61451 0.0
H85 H 0.78987 0.94746 0.64732 0.0
H86 H 0.78124 0.89695 0.62669 0.0
H87 H 0.72477 0.89015 0.61011 0.0
H88 H 0.68744 0.98459 0.63515 0.0
H89 H 0.74112 0.90621 0.70103 0.0
H90 H 0.79649 0.92107 0.7172 0.0
O91 O 0.79548 0.0134 0.64874 0.0
C92 C 0.75992 0.08335 0.67147 0.0
C93 C 0.80609 0.96717 0.70094 0.0
C94 C 0.75608 0.92916 0.69708 0.0
N95 N 0.76329 0.97958 0.67775 0.0
C96 C 0.79364 0.98808 0.68665 0.0
C97 C 0.74443 0.95068 0.68286 0.0
C98 C 0.78715 0.9375 0.70615 0.0
C99 C 0.67805 0.0881 0.62245 0.0
N100 N 0.70612 0.10469 0.63022 0.0
C101 C 0.6447 0.10325 0.62302 0.0
C102 C 0.64023 0.13562 0.6316 0.0
C103 C 0.66901 0.15239 0.63948 0.0
C104 C 0.70195 0.13641 0.63869 0.0
C105 C 0.77536 0.17272 0.59973 0.0
C106 C 0.80354 0.1368 0.62918 0.0
C107 C 0.75965 0.14215 0.60637 0.0
N108 N 0.77365 0.12476 0.621 0.0
C109 C 0.81999 0.16728 0.6229 0.0
C110 C 0.80572 0.18534 0.60809 0.0
C111 C 0.81231 0.03335 0.63783 0.0
C112 C 0.70228 0.93694 0.6217 0.0
C113 C 0.76523 0.9447 0.64014 0.0
C114 C 0.76048 0.91601 0.6285 0.0
C115 C 0.72878 0.9122 0.61922 0.0
N116 N 0.73912 0.96886 0.6425 0.0
C117 C 0.70794 0.96526 0.63347 0.0
Co118 Co 0.90097 0.75274 0.12902 0.0
Co119 Co 0.9729 0.74881 0.15775 0.0
O120 O 0.94423 0.73096 0.13773 0.0
C121 C 0.94777 0.75128 0.09716 0.0
O122 O 0.97209 0.76304 0.10829 0.0
C123 C 0.95477 0.67709 0.16895 0.0
O124 O 0.92216 0.68483 0.16483 0.0
O125 O 0.93095 0.75451 0.17357 0.0
O126 O 0.88468 0.76076 0.15471 0.0
H127 H 0.00403 0.8317 0.20869 0.0
H128 H 0.92176 0.68255 0.11524 0.0
O129 O 0.91689 0.7454 0.10314 0.0
H130 H 0.80695 0.66507 0.14498 0.0
H131 H 0.79686 0.7631 0.08705 0.0
H132 H 0.85915 0.81517 0.13958 0.0
H133 H 0.83386 0.72394 0.14368 0.0
H134 H 0.85118 0.7361 0.09884 0.0
O135 O 0.97885 0.69993 0.167 0.0
H136 H 0.96829 0.80948 0.18305 0.0
H137 H 0.03874 0.72429 0.17565 0.0
H138 H 0.80476 0.84287 0.12835 0.0
H139 H 0.89572 0.62327 0.11613 0.0
H140 H 0.77324 0.81679 0.10189 0.0
H141 H 0.83794 0.61424 0.13113 0.0
O142 O 0.9229 0.80014 0.12875 0.0
H143 H 0.05122 0.68435 0.11385 0.0
H144 H 0.03348 0.79469 0.1479 0.0
H145 H 0.08468 0.78875 0.12751 0.0
H146 H 0.0938 0.73326 0.11031 0.0
H147 H 0.00021 0.69152 0.13427 0.0
H148 H 0.07511 0.74543 0.20131 0.0
H149 H 0.05787 0.79959 0.21797 0.0
O150 O 0.96739 0.79784 0.14887 0.0
C151 C 0.89842 0.75997 0.17064 0.0
C152 C 0.01188 0.80814 0.2015 0.0
C153 C 0.05175 0.75969 0.19737 0.0
N154 N 0.0016 0.76581 0.17777 0.0
C155 C 0.99181 0.79549 0.18694 0.0
C156 C 0.03102 0.74782 0.18288 0.0
C157 C 0.04206 0.79009 0.20671 0.0
C158 C 0.89646 0.67888 0.12163 0.0
N159 N 0.87926 0.70669 0.1293 0.0
C160 C 0.88191 0.64523 0.12216 0.0
C161 C 0.84951 0.64018 0.13061 0.0
C162 C 0.83212 0.66868 0.13839 0.0
C163 C 0.8475 0.70194 0.13763 0.0
C164 C 0.8103 0.77465 0.09861 0.0
C165 C 0.84542 0.80354 0.12815 0.0
C166 C 0.84109 0.75952 0.10533 0.0
N167 N 0.85808 0.77387 0.11999 0.0
C168 C 0.81471 0.8194 0.12181 0.0
C169 C 0.79706 0.80478 0.10695 0.0
C170 C 0.94799 0.81437 0.13758 0.0
C171 C 0.04758 0.70862 0.12131 0.0
C172 C 0.03724 0.77048 0.14044 0.0
C173 C 0.06632 0.76725 0.12894 0.0
C174 C 0.07144 0.73609 0.11931 0.0
N175 N 0.01396 0.74342 0.14233 0.0
C176 C 0.01884 0.71277 0.13296 0.0
Co177 Co 0.23786 0.91048 0.63055 0.0
Co178 Co 0.24612 0.98409 0.6579 0.0
O179 O 0.26243 0.95259 0.63871 0.0
C180 C 0.24301 0.95563 0.59819 0.0
O181 O 0.23296 0.98107 0.60908 0.0
C182 C 0.3147 0.95962 0.67067 0.0
O183 O 0.30356 0.92779 0.667 0.0
O184 O 0.23561 0.94395 0.6743 0.0
O185 O 0.22822 0.89625 0.65647 0.0
H186 H 0.16362 0.0264 0.70675 0.0
H187 H 0.30948 0.92561 0.61682 0.0
O188 O 0.24667 0.92459 0.60446 0.0
H189 H 0.3184 0.81156 0.6484 0.0
H190 H 0.22092 0.80506 0.59 0.0
H191 H 0.17251 0.87364 0.64135 0.0
H192 H 0.26162 0.84238 0.64636 0.0
H193 H 0.25144 0.85805 0.60118 0.0
O194 O 0.29487 0.98598 0.66786 0.0
H195 H 0.18384 0.98691 0.68217 0.0
H196 H 0.27576 0.04849 0.67512 0.0
H197 H 0.14126 0.82068 0.63073 0.0
H198 H 0.36674 0.89559 0.61844 0.0
H199 H 0.16549 0.786 0.60487 0.0
H200 H 0.37146 0.83819 0.63437 0.0
O201 O 0.19224 0.93556 0.62973 0.0
H202 H 0.32006 0.05334 0.61389 0.0
H203 H 0.20659 0.0478 0.64618 0.0
H204 H 0.2184 0.09686 0.62504 0.0
H205 H 0.27548 0.09984 0.60872 0.0
H206 H 0.30705 0.00458 0.63503 0.0
H207 H 0.25667 0.08852 0.69972 0.0
H208 H 0.20015 0.07764 0.71567 0.0
O209 O 0.19725 0.98237 0.64828 0.0
C210 C 0.22861 0.91149 0.67204 0.0
C211 C 0.18823 0.03149 0.69986 0.0
C212 C 0.24049 0.06633 0.69593 0.0
N213 N 0.23076 0.0156 0.67712 0.0
C214 C 0.19976 0.00929 0.6859 0.0
C215 C 0.25118 0.04355 0.68204 0.0
C216 C 0.20876 0.06021 0.70487 0.0
C217 C 0.31128 0.90047 0.62362 0.0
N218 N 0.28223 0.88566 0.63139 0.0
C219 C 0.34379 0.88367 0.62456 0.0
C220 C 0.34643 0.85149 0.63352 0.0
C221 C 0.31667 0.83654 0.6414 0.0
C222 C 0.2846 0.85413 0.64023 0.0
C223 C 0.21016 0.81989 0.60132 0.0
C224 C 0.18334 0.85851 0.63019 0.0
C225 C 0.22729 0.84993 0.60768 0.0
N226 N 0.21394 0.86865 0.62202 0.0
C227 C 0.16547 0.82863 0.62419 0.0
C228 C 0.17906 0.80921 0.60967 0.0
C229 C 0.17969 0.96274 0.63751 0.0
C230 C 0.29513 0.05238 0.62096 0.0
C231 C 0.23148 0.0489 0.63912 0.0
C232 C 0.23804 0.07677 0.62719 0.0
C233 C 0.27008 0.07844 0.61805 0.0
N234 N 0.25618 0.02344 0.6419 0.0
C235 C 0.28768 0.02493 0.63301 0.0
Co236 Co 0.0803 0.75218 0.87447 0.0
Co237 Co 0.00834 0.74798 0.84574 0.0
O238 O 0.03757 0.72983 0.86545 0.0
C239 C 0.03297 0.7487 0.90602 0.0
O240 O 0.00866 0.7598 0.89473 0.0
C241 C 0.02926 0.67776 0.83342 0.0
O242 O 0.06144 0.68653 0.83788 0.0
O243 O 0.05005 0.75631 0.83008 0.0
O244 O 0.0966 0.76143 0.84887 0.0
H245 H 0.97418 0.83307 0.79635 0.0
H246 H 0.06071 0.6812 0.88762 0.0
O247 O 0.06419 0.7438 0.90028 0.0
H248 H 0.17599 0.66686 0.85793 0.0
H249 H 0.18374 0.76321 0.91685 0.0
H250 H 0.12101 0.81579 0.86461 0.0
H251 H 0.14801 0.72516 0.85971 0.0
H252 H 0.13008 0.73553 0.90464 0.0
O253 O 0.00425 0.6995 0.83559 0.0
H254 H 0.01072 0.81047 0.82159 0.0
H255 H 0.94351 0.7222 0.82732 0.0
H256 H 0.17473 0.84419 0.87627 0.0
H257 H 0.08782 0.62245 0.88624 0.0
H258 H 0.20647 0.81787 0.90258 0.0
H259 H 0.14583 0.615 0.87126 0.0
O260 O 0.05753 0.7991 0.87508 0.0
H261 H 0.93222 0.6777 0.88828 0.0
H262 H 0.9462 0.79096 0.85641 0.0
H263 H 0.89519 0.78175 0.87661 0.0
H264 H 0.88797 0.72478 0.89271 0.0
H265 H 0.98299 0.68812 0.86807 0.0
H266 H 0.90639 0.74368 0.80205 0.0
H267 H 0.92159 0.79957 0.78643 0.0
O268 O 0.01213 0.79662 0.85552 0.0
C269 C 0.08257 0.76187 0.833 0.0
C270 C 0.96722 0.80874 0.80309 0.0
C271 C 0.92919 0.75855 0.80627 0.0
N272 N 0.97906 0.76523 0.82601 0.0
C273 C 0.98775 0.79588 0.81742 0.0
C274 C 0.95034 0.74648 0.82054 0.0
C275 C 0.93773 0.78992 0.79752 0.0
C276 C 0.08611 0.67821 0.88124 0.0
N277 N 0.10286 0.70658 0.87386 0.0
C278 C 0.10127 0.64486 0.88043 0.0
C279 C 0.1338 0.64069 0.872 0.0
C280 C 0.15072 0.66978 0.86451 0.0
C281 C 0.13474 0.70271 0.86554 0.0
C282 C 0.1702 0.77488 0.90534 0.0
C283 C 0.13486 0.80404 0.87597 0.0
C284 C 0.13979 0.75935 0.89839 0.0
N285 N 0.12269 0.77385 0.88381 0.0
C286 C 0.16517 0.8203 0.88255 0.0
C287 C 0.18294 0.80554 0.89733 0.0
C288 C 0.03172 0.81311 0.86675 0.0
C289 C 0.93503 0.7026 0.88129 0.0
C290 C 0.94326 0.76611 0.86338 0.0
C291 C 0.91429 0.76103 0.87478 0.0
C292 C 0.91024 0.72905 0.8838 0.0
N293 N 0.96746 0.74004 0.861 0.0
C294 C 0.96363 0.70859 0.86977 0.0
Co295 Co 0.23717 0.08321 0.37489 0.0
Co296 Co 0.25157 0.01175 0.3467 0.0
O297 O 0.26495 0.04335 0.36647 0.0
C298 C 0.24412 0.03671 0.40661 0.0
O299 O 0.23639 0.01133 0.39518 0.0
C300 C 0.31927 0.04113 0.33528 0.0
O301 O 0.30642 0.07209 0.3394 0.0
O302 O 0.23918 0.05191 0.33072 0.0
O303 O 0.2277 0.09812 0.34902 0.0
H304 H 0.17433 0.96671 0.2962 0.0
H305 H 0.30906 0.07242 0.3893 0.0
O306 O 0.24581 0.06833 0.4009 0.0
H307 H 0.3113 0.18855 0.35951 0.0
H308 H 0.21103 0.18485 0.41669 0.0
H309 H 0.16994 0.11599 0.36374 0.0
H310 H 0.25678 0.15364 0.36033 0.0
H311 H 0.24572 0.13483 0.40516 0.0
O312 O 0.30066 0.01363 0.3373 0.0
H313 H 0.19073 0.00606 0.32161 0.0
H314 H 0.28616 0.95035 0.32903 0.0
H315 H 0.13457 0.16597 0.37471 0.0
H316 H 0.3641 0.10653 0.38889 0.0
H317 H 0.15509 0.20078 0.40138 0.0
H318 H 0.36545 0.165 0.37387 0.0
O319 O 0.19341 0.05496 0.37483 0.0
H320 H 0.32816 0.94551 0.3907 0.0
H321 H 0.21601 0.94486 0.35707 0.0
H322 H 0.23026 0.89564 0.37769 0.0
H323 H 0.28669 0.89578 0.39468 0.0
H324 H 0.31275 0.99433 0.37005 0.0
H325 H 0.27094 0.91056 0.3036 0.0
H326 H 0.2146 0.91856 0.28704 0.0
O327 O 0.20232 0.00957 0.35575 0.0
C328 C 0.2299 0.0837 0.33327 0.0
C329 C 0.19889 0.96288 0.30335 0.0
C330 C 0.25314 0.93139 0.30749 0.0
N331 N 0.23919 0.98027 0.32689 0.0
C332 C 0.20826 0.985 0.31778 0.0
C333 C 0.26164 0.95403 0.32185 0.0
C334 C 0.22152 0.93589 0.29821 0.0
C335 C 0.30938 0.09799 0.38289 0.0
N336 N 0.27972 0.11112 0.37495 0.0
C337 C 0.34064 0.11711 0.38264 0.0
C338 C 0.3414 0.1499 0.37418 0.0
C339 C 0.31102 0.16312 0.36611 0.0
C340 C 0.28025 0.14322 0.3666 0.0
C341 C 0.20187 0.16995 0.40503 0.0
C342 C 0.17917 0.13121 0.37525 0.0
C343 C 0.22137 0.14159 0.39846 0.0
N344 N 0.21003 0.12279 0.38367 0.0
C345 C 0.15897 0.15939 0.38144 0.0
C346 C 0.17048 0.17888 0.39642 0.0
C347 C 0.18308 0.02733 0.3666 0.0
C348 C 0.30354 0.9451 0.38333 0.0
C349 C 0.24061 0.94512 0.36442 0.0
C350 C 0.24856 0.91715 0.37606 0.0
C351 C 0.28024 0.91723 0.38558 0.0
N352 N 0.26361 0.97236 0.3623 0.0
C353 C 0.29475 0.97259 0.37155 0.0
Co354 Co 0.91159 0.23994 0.87362 0.0
Co355 Co 0.984 0.2468 0.84536 0.0
O356 O 0.9535 0.26394 0.8648 0.0
C357 C 0.95761 0.24603 0.90566 0.0
O358 O 0.98292 0.23578 0.89474 0.0
C359 C 0.95948 0.31529 0.83237 0.0
O360 O 0.92773 0.30433 0.83632 0.0
O361 O 0.94313 0.23596 0.82947 0.0
O362 O 0.89638 0.22948 0.84799 0.0
H363 H 0.02369 0.16244 0.79675 0.0
H364 H 0.92763 0.31201 0.88646 0.0
O365 O 0.92652 0.24958 0.89949 0.0
H366 H 0.81261 0.32051 0.85592 0.0
H367 H 0.80754 0.22506 0.91529 0.0
H368 H 0.87408 0.17437 0.86382 0.0
H369 H 0.8431 0.26356 0.85825 0.0
H370 H 0.86023 0.25492 0.90332 0.0
O371 O 0.98579 0.29532 0.835 0.0
H372 H 0.98543 0.18369 0.82161 0.0
H373 H 0.04775 0.27553 0.82713 0.0
H374 H 0.82138 0.14378 0.87524 0.0
H375 H 0.89797 0.36945 0.88452 0.0
H376 H 0.78772 0.16915 0.90116 0.0
H377 H 0.84008 0.37396 0.86911 0.0
O378 O 0.93649 0.19418 0.87465 0.0
H379 H 0.05565 0.32171 0.88786 0.0
H380 H 0.04787 0.20717 0.85666 0.0
H381 H 0.09795 0.21933 0.87707 0.0
H382 H 0.10206 0.27696 0.89283 0.0
H383 H 0.00587 0.30835 0.86746 0.0
H384 H 0.08654 0.25543 0.80222 0.0
H385 H 0.07467 0.19843 0.7869 0.0
O386 O 0.98236 0.19821 0.85543 0.0
C387 C 0.91079 0.22912 0.83221 0.0
C388 C 0.02921 0.18726 0.80336 0.0
C389 C 0.06446 0.23948 0.80641 0.0
N390 N 0.01456 0.23064 0.82591 0.0
C391 C 0.0077 0.19937 0.81748 0.0
C392 C 0.04237 0.25075 0.82048 0.0
C393 C 0.05779 0.20749 0.79783 0.0
C394 C 0.90229 0.31372 0.8799 0.0
N395 N 0.88701 0.28446 0.87258 0.0
C396 C 0.88569 0.34633 0.87877 0.0
C397 C 0.85323 0.34885 0.8701 0.0
C398 C 0.83781 0.31887 0.86269 0.0
C399 C 0.85521 0.28671 0.86403 0.0
C400 C 0.82192 0.2138 0.90395 0.0
C401 C 0.8594 0.18569 0.87501 0.0
C402 C 0.8518 0.23055 0.89714 0.0
N403 N 0.86996 0.21656 0.88277 0.0
C404 C 0.82966 0.1682 0.88146 0.0
C405 C 0.81082 0.18243 0.89602 0.0
C406 C 0.96318 0.18115 0.86663 0.0
C407 C 0.0542 0.29654 0.88103 0.0
C408 C 0.04946 0.23229 0.86349 0.0
C409 C 0.07791 0.23905 0.875 0.0
C410 C 0.08021 0.2714 0.88383 0.0
N411 N 0.02406 0.25709 0.86081 0.0
C412 C 0.02616 0.28889 0.8694 0.0
Co413 Co 0.75492 0.90101 0.37509 0.0
Co414 Co 0.75209 0.9746 0.34747 0.0
O415 O 0.73458 0.94575 0.36747 0.0
C416 C 0.75813 0.94643 0.4074 0.0
O417 O 0.771 0.97024 0.3963 0.0
C418 C 0.67871 0.96128 0.33773 0.0
O419 O 0.68494 0.928 0.34108 0.0
O420 O 0.75368 0.93332 0.33097 0.0
O421 O 0.76033 0.88574 0.34898 0.0
H422 H 0.83147 0.00381 0.29476 0.0
H423 H 0.68691 0.92431 0.39063 0.0
O424 O 0.75016 0.91608 0.4013 0.0
H425 H 0.66183 0.812 0.35971 0.0
H426 H 0.76319 0.79434 0.41545 0.0
H427 H 0.8144 0.85678 0.36273 0.0
H428 H 0.72189 0.83614 0.3601 0.0
H429 H 0.73811 0.85055 0.40494 0.0
O430 O 0.7029 0.98398 0.33966 0.0
H431 H 0.8097 0.96791 0.32045 0.0
H432 H 0.72993 0.04291 0.33127 0.0
H433 H 0.84014 0.8005 0.37268 0.0
H434 H 0.62652 0.90101 0.39067 0.0
H435 H 0.81448 0.76889 0.39922 0.0
H436 H 0.61366 0.84451 0.37509 0.0
O437 O 0.80328 0.92061 0.37464 0.0
H438 H 0.69697 0.05379 0.39432 0.0
H439 H 0.80239 0.03185 0.35693 0.0
H440 H 0.8016 0.08198 0.37827 0.0
H441 H 0.7486 0.09321 0.39716 0.0
H442 H 0.69899 0.00377 0.37291 0.0
H443 H 0.75067 0.07951 0.30561 0.0
H444 H 0.80188 0.06006 0.2872 0.0
O445 O 0.80146 0.96571 0.35488 0.0
C446 C 0.75822 0.90045 0.33331 0.0
C447 C 0.80922 0.01263 0.30272 0.0
C448 C 0.76383 0.0551 0.30879 0.0
N449 N 0.7688 0.00347 0.32744 0.0
C450 C 0.79684 0.99247 0.31731 0.0
C451 C 0.75217 0.03424 0.32328 0.0
C452 C 0.79257 0.04417 0.29847 0.0
C453 C 0.68158 0.89954 0.38397 0.0
N454 N 0.70792 0.8815 0.37547 0.0
C455 C 0.64731 0.88655 0.38397 0.0
C456 C 0.6401 0.85487 0.3752 0.0
C457 C 0.66711 0.83662 0.36656 0.0
C458 C 0.70106 0.85045 0.3668 0.0
C459 C 0.77454 0.80781 0.40384 0.0
C460 C 0.80294 0.84302 0.3742 0.0
C461 C 0.76049 0.83966 0.39784 0.0
N462 N 0.77457 0.85669 0.38312 0.0
C463 C 0.81769 0.81124 0.37981 0.0
C464 C 0.80331 0.79354 0.39472 0.0
C465 C 0.81797 0.94512 0.36557 0.0
C466 C 0.72017 0.04923 0.38612 0.0
C467 C 0.77925 0.03654 0.36511 0.0
C468 C 0.77893 0.06501 0.37715 0.0
C469 C 0.74917 0.0713 0.38773 0.0
N470 N 0.75071 0.01499 0.36362 0.0
C471 C 0.7214 0.02105 0.37391 0.0
C472 C 0.05666 0.37521 0.17832 0.0
C473 C 0.02798 0.35259 0.17572 0.0
C474 C 0.0512 0.41067 0.18223 0.0
C475 C 0.98295 0.47547 0.19581 0.0
H476 H 0.03854 0.53911 0.16624 0.0
C477 C 0.93867 0.61466 0.17545 0.0
C478 C 0.96419 0.64122 0.17471 0.0
C479 C 0.94829 0.58015 0.17947 0.0
C480 C 0.02321 0.52178 0.17486 0.0
H481 H 0.97113 0.34902 0.17588 0.0
H482 H 0.96165 0.41085 0.18223 0.0
H483 H 0.05268 0.47694 0.16652 0.0
H484 H 0.01954 0.65282 0.17843 0.0
H485 H 0.03619 0.5926 0.18543 0.0
H486 H 0.95255 0.52044 0.20348 0.0
C487 C 0.98835 0.40122 0.18159 0.0
C488 C 0.03136 0.48613 0.17506 0.0
C489 C 0.9938 0.36579 0.17779 0.0
C490 C -0.00073 0.63288 0.17874 0.0
C491 C 0.00886 0.59842 0.18272 0.0
C492 C 0.97467 0.51118 0.19553 0.0
C493 C 0.01697 0.42419 0.18351 0.0
C494 C 0.01091 0.46247 0.18525 0.0
C495 C 0.98358 0.57162 0.18278 0.0
C496 C 0.99435 0.53453 0.18478 0.0
H497 H 0.08333 0.36575 0.17695 0.0
H498 H 0.07378 0.42763 0.1839 0.0
H499 H 0.96704 0.45795 0.20403 0.0
H500 H 0.91142 0.62027 0.17242 0.0
H501 H 0.92831 0.55992 0.17924 0.0
C502 C 0.36489 -0.00077 0.67811 0.0
C503 C 0.35109 0.96512 0.67682 0.0
C504 C 0.4002 0.00435 0.68231 0.0
C505 C 0.48409 0.95871 0.67805 0.0
H506 H 0.51947 0.03949 0.70459 0.0
C507 C 0.63116 0.98758 0.68131 0.0
C508 C 0.6403 0.02204 0.67636 0.0
C509 C 0.59656 0.97924 0.68567 0.0
C510 C 0.50991 0.0168 0.69718 0.0
H511 H 0.36286 0.9097 0.67993 0.0
H512 H 0.42443 0.9187 0.68756 0.0
H513 H 0.45662 0.02668 0.70487 0.0
H514 H 0.62072 0.07512 0.67289 0.0
H515 H 0.56012 0.06039 0.68028 0.0
H516 H 0.53705 0.94931 0.66995 0.0
C517 C 0.40812 0.94144 0.68496 0.0
C518 C 0.474 0.00948 0.69731 0.0
C519 C 0.37284 0.9363 0.68064 0.0
C520 C 0.61447 0.04832 0.67663 0.0
C521 C 0.57981 0.03994 0.68099 0.0
C522 C 0.5199 0.96592 0.67799 0.0
C523 C 0.42236 0.97547 0.68541 0.0
C524 C 0.46065 0.98079 0.68741 0.0
C525 C 0.57041 0.00517 0.68514 0.0
C526 C 0.53308 0.99544 0.68722 0.0
H527 H 0.34876 0.02199 0.67526 0.0
H528 H 0.41043 0.03088 0.68232 0.0
H529 H 0.47464 0.93677 0.67001 0.0
H530 H 0.65056 0.9668 0.68142 0.0
H531 H 0.59009 0.95232 0.68905 0.0
C532 C 0.93621 0.37372 0.82273 0.0
C533 C 0.965 0.35177 0.8263 0.0
C534 C 0.94138 0.40911 0.81861 0.0
C535 C 0.00936 0.47518 0.80636 0.0
H536 H 0.94935 0.53795 0.834 0.0
C537 C 0.0478 0.61605 0.8269 0.0
C538 C 0.02142 0.64178 0.8272 0.0
C539 C 0.03956 0.58128 0.82264 0.0
C540 C 0.96593 0.52088 0.82589 0.0
H541 H 0.02184 0.34926 0.82759 0.0
H542 H 0.03079 0.41112 0.82087 0.0
H543 H 0.93697 0.47545 0.83384 0.0
H544 H 0.9661 0.65171 0.82231 0.0
H545 H 0.95185 0.59105 0.81485 0.0
H546 H 0.03917 0.52082 0.79909 0.0
C547 C 0.00425 0.40096 0.82093 0.0
C548 C 0.9588 0.48501 0.82577 0.0
C549 C -0.0009 0.36553 0.82493 0.0
C550 C 0.98697 0.63241 0.82237 0.0
C551 C 0.97877 0.59769 0.81813 0.0
C552 C 0.0166 0.51113 0.80655 0.0
C553 C 0.97541 0.42329 0.8181 0.0
C554 C 0.98079 0.46167 0.81629 0.0
C555 C 0.00481 0.57166 0.81862 0.0
C556 C -0.00472 0.53421 0.81659 0.0
H557 H 0.90961 0.3638 0.82351 0.0
H558 H 0.91866 0.42554 0.8162 0.0
H559 H 0.02649 0.45789 0.7987 0.0
H560 H 0.07459 0.62247 0.83055 0.0
H561 H 0.06011 0.56169 0.82331 0.0
C562 C 0.37821 0.06717 0.32874 0.0
C563 C 0.35619 0.03764 0.3296 0.0
C564 C 0.4139 0.06322 0.32494 0.0
C565 C 0.4804 -0.00095 0.30854 0.0
H566 H 0.54151 0.0477 0.34255 0.0
C567 C 0.6162 0.94832 0.32992 0.0
C568 C 0.64329 0.97286 0.33237 0.0
C569 C 0.58231 0.95959 0.32576 0.0
C570 C 0.52491 0.03441 0.33271 0.0
H571 H 0.35389 0.98101 0.32636 0.0
H572 H 0.41599 0.97409 0.32015 0.0
H573 H 0.47944 0.06225 0.34165 0.0
H574 H 0.65643 0.02837 0.33183 0.0
H575 H 0.59716 0.04791 0.32466 0.0
H576 H 0.52585 0.97005 0.30027 0.0
C577 C 0.40578 0.00036 0.32211 0.0
C578 C 0.48934 0.04281 0.33215 0.0
C579 C 0.37019 0.0043 0.32585 0.0
C580 C 0.63606 0.0088 0.33011 0.0
C581 C 0.60216 0.02004 0.32604 0.0
C582 C 0.51597 0.99051 0.30918 0.0
C583 C 0.42816 0.02967 0.32196 0.0
C584 C 0.46655 0.02459 0.3204 0.0
C585 C 0.5749 0.99558 0.32405 0.0
C586 C 0.53834 0.00754 0.32159 0.0
H587 H 0.36813 0.09324 0.33146 0.0
H588 H 0.43045 0.08633 0.3247 0.0
H589 H 0.46356 0.985 0.29912 0.0
H590 H 0.62097 0.92047 0.33155 0.0
H591 H 0.56164 0.9402 0.32452 0.0
C592 C 0.93755 0.25668 0.93784 0.0
C593 C 0.96504 0.25179 0.92528 0.0
C594 C 0.94462 0.25982 0.95652 0.0
C595 C 0.01481 0.27915 0.98991 0.0
H596 H 0.95845 0.22218 0.02259 0.0
C597 C 0.05393 0.25213 0.06512 0.0
C598 C 0.02689 0.24968 0.07812 0.0
C599 C 0.04603 0.25558 0.04652 0.0
C600 C 0.97411 0.23873 0.01373 0.0
H601 H 0.02157 0.24763 0.9224 0.0
H602 H 0.03381 0.25306 0.955 0.0
H603 H 0.94491 0.22323 0.99008 0.0
H604 H 0.97043 0.25051 0.08193 0.0
H605 H 0.95673 0.25725 0.04964 0.0
H606 H 0.04408 0.29458 0.01358 0.0
C607 C 0.00684 0.25456 0.9504 0.0
C608 C 0.96634 0.23928 0.99508 0.0
C609 C -0.00023 0.2512 0.93173 0.0
C610 C 0.99188 0.25186 0.07223 0.0
C611 C 0.98401 0.25556 0.05369 0.0
C612 C 0.02248 0.27875 0.00861 0.0
C613 C 0.97931 0.2584 0.96302 0.0
C614 C 0.98671 0.25932 0.98294 0.0
C615 C 0.01094 0.2569 0.04057 0.0
C616 C 0.00233 0.25837 0.02074 0.0
H617 H 0.91051 0.25737 0.93329 0.0
H618 H 0.9229 0.26318 0.96592 0.0
H619 H 0.03075 0.29512 0.9809 0.0
H620 H 0.08117 0.25048 0.06925 0.0
H621 H 0.06742 0.25618 0.03678 0.0
C622 C 0.74272 0.99098 0.57328 0.0
C623 C 0.74461 0.02632 0.57868 0.0
C624 C 0.74048 0.98207 0.55481 0.0
C625 C 0.72214 0.01843 0.50858 0.0
H626 H 0.77691 0.93817 0.49274 0.0
C627 C 0.75574 0.99004 0.43291 0.0
C628 C 0.75302 0.95507 0.42692 0.0
C629 C 0.75176 -0.00165 0.45139 0.0
C630 C 0.76114 0.96038 0.49698 0.0
H631 H 0.74487 0.08012 0.56902 0.0
H632 H 0.74192 0.06457 0.53666 0.0
H633 H 0.77546 0.95377 0.525 0.0
H634 H 0.74353 0.90143 0.43558 0.0
H635 H 0.73692 0.91598 0.46797 0.0
H636 H 0.70873 0.02545 0.48034 0.0
C637 C 0.74149 0.0437 0.54672 0.0
C638 C 0.76021 0.96933 0.51549 0.0
C639 C 0.74335 0.05265 0.56525 0.0
C640 C 0.74584 0.92861 0.43978 0.0
C641 C 0.74221 0.9369 0.45832 0.0
C642 C 0.72333 0.00964 0.49002 0.0
C643 C 0.7405 0.00826 0.54126 0.0
C644 C 0.74073 -0.00151 0.52154 0.0
C645 C 0.74528 0.97184 0.46431 0.0
C646 C 0.74291 0.98056 0.48404 0.0
H647 H 0.74316 0.97008 0.58333 0.0
H648 H 0.7389 0.95456 0.55116 0.0
H649 H 0.70645 0.04072 0.51276 0.0
H650 H 0.76107 0.01107 0.42333 0.0
H651 H 0.75458 0.02546 0.45564 0.0
C652 C 0.92921 0.74013 0.06481 0.0
C653 C 0.95608 0.74588 0.07762 0.0
C654 C 0.93707 0.73682 0.04622 0.0
C655 C 0.00843 0.7171 0.01383 0.0
H656 H 0.95357 0.77305 0.98002 0.0
C657 C 0.0506 0.74055 0.93878 0.0
C658 C 0.02414 0.74326 0.92548 0.0
C659 C 0.0419 0.73782 0.95731 0.0
C660 C 0.96881 0.75675 0.98919 0.0
H661 H 0.01236 0.75154 0.08108 0.0
H662 H 0.026 0.74564 0.04863 0.0
H663 H 0.93877 0.77317 0.01239 0.0
H664 H 0.96786 0.74357 0.92106 0.0
H665 H 0.95273 0.73789 0.95324 0.0
H666 H 0.03843 0.70056 0.99063 0.0
C667 C -0.0011 0.74369 0.05297 0.0
C668 C 0.96033 0.75691 0.00776 0.0
C669 C 0.99103 0.74731 0.07153 0.0
C670 C 0.98887 0.742 0.93101 0.0
C671 C 0.98019 0.73893 0.94948 0.0
C672 C 0.01676 0.71671 0.9952 0.0
C673 C 0.97197 0.73884 0.0401 0.0
C674 C 0.98018 0.73728 0.02029 0.0
C675 C 0.00657 0.73741 0.96291 0.0
C676 C -0.00283 0.73671 0.98266 0.0
H677 H 0.90202 0.73883 0.06909 0.0
H678 H 0.91582 0.73275 0.03662 0.0
H679 H 0.02396 0.70144 0.02317 0.0
H680 H 0.07803 0.74153 0.93493 0.0
H681 H 0.06291 0.7371 0.96727 0.0
C682 C 0.2525 0.99318 0.43175 0.0
C683 C 0.24965 0.02835 0.42613 0.0
C684 C 0.25579 0.98478 0.45024 0.0
C685 C 0.27717 0.02214 0.49573 0.0
H686 H 0.22219 0.94337 0.51334 0.0
C687 C 0.24828 -0.00211 0.57219 0.0
C688 C 0.24882 0.96308 0.57858 0.0
C689 C 0.25194 0.00513 0.55358 0.0
C690 C 0.2381 0.96511 0.50861 0.0
H691 H 0.24884 0.08238 0.43548 0.0
H692 H 0.25395 0.06767 0.46788 0.0
H693 H 0.22179 0.95775 0.48092 0.0
H694 H 0.25452 0.90859 0.57048 0.0
H695 H 0.2609 0.92129 0.53789 0.0
H696 H 0.29284 0.02984 0.52359 0.0
C697 C 0.25413 0.04659 0.45794 0.0
C698 C 0.2379 0.97338 0.49001 0.0
C699 C 0.25102 0.05503 0.43939 0.0
C700 C 0.25388 0.93568 0.56598 0.0
C701 C 0.25735 0.94293 0.54732 0.0
C702 C 0.27726 0.01393 0.51437 0.0
C703 C 0.25612 0.01132 0.46359 0.0
C704 C 0.2573 0.00209 0.48334 0.0
C705 C 0.25608 0.97772 0.5409 0.0
C706 C 0.25757 0.98543 0.52102 0.0
H707 H 0.25196 0.972 0.42186 0.0
H708 H 0.25798 0.95741 0.45407 0.0
H709 H 0.2928 0.04409 0.49102 0.0
H710 H 0.24459 0.01964 0.58155 0.0
H711 H 0.2505 0.03217 0.54906 0.0
C712 C 0.13437 0.20225 0.1857 0.0
C713 C 0.10209 0.21977 0.18751 0.0
C714 C 0.15299 0.19163 0.20121 0.0
C715 C 0.16297 0.20586 0.25078 0.0
H716 H 0.18827 0.10734 0.25192 0.0
C717 C 0.19763 0.13281 0.31781 0.0
C718 C 0.22131 0.10464 0.31688 0.0
C719 C 0.1871 0.15014 0.30185 0.0
C720 C 0.18215 0.1351 0.25178 0.0
H721 H 0.06493 0.24133 0.20704 0.0
H722 H 0.09763 0.22301 0.23401 0.0
H723 H 0.16376 0.13235 0.22417 0.0
H724 H 0.25441 0.0741 0.29874 0.0
H725 H 0.23724 0.10506 0.27112 0.0
H726 H 0.18142 0.20869 0.27839 0.0
C727 C 0.10842 0.21743 0.22062 0.0
C728 C 0.16798 0.14937 0.23584 0.0
C729 C 0.08959 0.22766 0.20514 0.0
C730 C 0.23561 0.09532 0.29985 0.0
C731 C 0.22558 0.11297 0.28399 0.0
C732 C 0.17759 0.19168 0.2667 0.0
C733 C 0.13997 0.19876 0.21881 0.0
C734 C 0.15784 0.18475 0.23525 0.0
C735 C 0.20048 0.13998 0.28468 0.0
C736 C 0.18698 0.15597 0.26747 0.0
H737 H 0.14479 0.19586 0.17233 0.0
H738 H 0.1774 0.17746 0.19946 0.0
H739 H 0.15558 0.23331 0.25062 0.0
H740 H 0.18616 0.14054 0.33075 0.0
H741 H 0.16747 0.17057 0.30293 0.0
C742 C 0.90084 0.22803 0.79838 0.0
C743 C 0.88896 0.22025 0.81614 0.0
C744 C 0.88131 0.21793 0.78312 0.0
C745 C 0.82145 0.15002 0.76843 0.0
H746 H 0.80483 0.20996 0.72644 0.0
C747 C 0.75346 0.09495 0.70483 0.0
C748 C 0.76709 0.105 0.68778 0.0
C749 C 0.763 0.11292 0.72069 0.0
C750 C 0.80954 0.19277 0.73797 0.0
H751 H 0.84671 0.19658 0.83178 0.0
H752 H 0.81296 0.17827 0.805 0.0
H753 H 0.83184 0.23443 0.75395 0.0
H754 H 0.80033 0.14253 0.6738 0.0
H755 H 0.81831 0.17308 0.70157 0.0
H756 H 0.8011 0.10795 0.75241 0.0
C757 C 0.83737 0.19234 0.803 0.0
C758 C 0.82481 0.20687 0.75374 0.0
C759 C 0.85665 0.2029 0.8183 0.0
C760 C 0.78938 0.13428 0.68678 0.0
C761 C 0.79951 0.15188 0.70272 0.0
C762 C 0.80669 0.13582 0.75262 0.0
C763 C 0.84972 0.19945 0.78527 0.0
C764 C 0.83111 0.18553 0.76906 0.0
C765 C 0.78704 0.14092 0.71994 0.0
C766 C 0.80074 0.15691 0.73711 0.0
H767 H 0.9255 0.24159 0.79624 0.0
H768 H 0.89156 0.22347 0.7696 0.0
H769 H 0.82656 0.13287 0.77995 0.0
H770 H 0.73573 0.07281 0.70597 0.0
H771 H 0.75199 0.10435 0.73359 0.0
C772 C 0.78349 0.84854 0.317 0.0
C773 C 0.76225 0.87862 0.31678 0.0
C774 C 0.79093 0.83068 0.30075 0.0
C775 C 0.79325 0.84744 0.25087 0.0
H776 H 0.81769 0.74872 0.24873 0.0
C777 C 0.8429 0.78301 0.18457 0.0
C778 C 0.87565 0.76652 0.18666 0.0
C779 C 0.82303 0.79218 0.19991 0.0
C780 C 0.81075 0.77629 0.24915 0.0
H781 H 0.72977 0.91197 0.29975 0.0
H782 H 0.74133 0.87998 0.2716 0.0
H783 H 0.79233 0.77287 0.27674 0.0
H784 H 0.91224 0.74488 0.20643 0.0
H785 H 0.87732 0.76061 0.23313 0.0
H786 H 0.81176 0.85078 0.22331 0.0
C787 C 0.7536 0.87095 0.2841 0.0
C788 C 0.79644 0.79021 0.2652 0.0
C789 C 0.74677 0.88919 0.30025 0.0
C790 C 0.88726 0.75784 0.20435 0.0
C791 C 0.86716 0.76656 0.21964 0.0
C792 C 0.80702 0.83341 0.23479 0.0
C793 C 0.77673 0.84218 0.28401 0.0
C794 C 0.78821 0.82617 0.2664 0.0
C795 C 0.83525 0.78451 0.21758 0.0
C796 C 0.81658 0.79791 0.23389 0.0
H797 H 0.79581 0.83985 0.32956 0.0
H798 H 0.80914 0.8089 0.30126 0.0
H799 H 0.78802 0.87536 0.2513 0.0
H800 H 0.83314 0.78996 0.17114 0.0
H801 H 0.7984 0.80587 0.19798 0.0
C802 C 0.19931 0.86074 0.68764 0.0
C803 C 0.22087 0.89057 0.68856 0.0
C804 C 0.18975 0.84293 0.70361 0.0
C805 C 0.18326 0.85781 0.75367 0.0
H806 H 0.16245 0.75817 0.75459 0.0
C807 C 0.13687 0.78798 0.81921 0.0
C808 C 0.10486 0.77012 0.81702 0.0
C809 C 0.15596 0.79897 0.80392 0.0
C810 C 0.16831 0.786 0.7545 0.0
H811 H 0.25127 0.9238 0.7067 0.0
H812 H 0.23592 0.89201 0.73437 0.0
H813 H 0.18753 0.78437 0.72702 0.0
H814 H 0.06885 0.74799 0.7971 0.0
H815 H 0.10247 0.7668 0.77048 0.0
H816 H 0.16414 0.8593 0.78118 0.0
C817 C 0.22508 0.88309 0.7215 0.0
C818 C 0.18244 0.80109 0.73869 0.0
C819 C 0.23406 0.90124 0.70561 0.0
C820 C 0.09327 0.76195 0.79926 0.0
C821 C 0.11262 0.77246 0.78401 0.0
C822 C 0.16966 0.84262 0.76952 0.0
C823 C 0.2021 0.85422 0.72079 0.0
C824 C 0.18959 0.83734 0.73798 0.0
C825 C 0.14371 0.79176 0.78619 0.0
C826 C 0.16156 0.80672 0.77 0.0
H827 H 0.18873 0.85196 0.67467 0.0
H828 H 0.17169 0.82109 0.7025 0.0
H829 H 0.18763 0.88589 0.75358 0.0
H830 H 0.14655 0.79461 0.8327 0.0
H831 H 0.17999 0.81367 0.80593 0.0
C832 C 0.03652 0.12278 0.12107 0.0
C833 C 0.01749 0.14347 0.13353 0.0
C834 C 0.02765 0.08761 0.1183 0.0
C835 C 0.01947 0.00989 0.12592 0.0
H836 H 0.92296 0.97758 0.12684 0.0
C837 C 0.983 0.86844 0.14407 0.0
C838 C 0.95555 0.85199 0.13449 0.0
C839 C 0.99025 0.90389 0.14136 0.0
C840 C 0.95002 0.98619 0.1263 0.0
H841 H 0.97368 0.14352 0.15256 0.0
H842 H 0.95874 0.08218 0.14795 0.0
H843 H 0.93534 0.04042 0.12604 0.0
H844 H 0.91426 0.86004 0.11446 0.0
H845 H 0.92717 0.92217 0.10969 0.0
H846 H 0.03418 0.95574 0.12621 0.0
C847 C 0.98015 0.09326 0.1401 0.0
C848 C 0.95712 0.02216 0.12604 0.0
C849 C 0.98893 0.12841 0.14285 0.0
C850 C 0.93557 0.87189 0.12208 0.0
C851 C 0.94286 0.90749 0.11938 0.0
C852 C 0.01238 0.97397 0.12614 0.0
C853 C -0.00038 0.07238 0.12795 0.0
C854 C 0.99192 0.03438 0.12623 0.0
C855 C 0.97029 0.92382 0.12901 0.0
C856 C 0.97761 0.96176 0.12675 0.0
H857 H 0.05853 0.13358 0.11357 0.0
H858 H 0.04289 0.07228 0.10868 0.0
H859 H 0.04657 0.01842 0.1262 0.0
H860 H -0.00114 0.85406 0.15381 0.0
H861 H 0.01112 0.91587 0.14925 0.0
C862 C 0.12676 -4e-05 0.64332 0.0
C863 C 0.14265 0.97192 0.63396 0.0
C864 C 0.09134 0.00752 0.64067 0.0
C865 C 0.01958 0.02817 0.62672 0.0
H866 H 0.95564 0.94896 0.62659 0.0
C867 C 0.86954 0.04609 0.62227 0.0
C868 C 0.84978 0.02564 0.63454 0.0
C869 C 0.90517 0.0393 0.61962 0.0
C870 C 0.97317 0.97134 0.62663 0.0
H871 H 0.13397 0.93057 0.61398 0.0
H872 H 0.07224 0.94414 0.60923 0.0
H873 H 0.01864 0.93858 0.62678 0.0
H874 H 0.85198 0.98173 0.65348 0.0
H875 H 0.91403 0.97035 0.64905 0.0
H876 H 0.97405 0.06091 0.62745 0.0
C877 C 0.08711 0.95987 0.61884 0.0
C878 C 0.00927 0.96541 0.62651 0.0
C879 C 0.12253 0.95221 0.62152 0.0
C880 C 0.86632 -0.00202 0.64389 0.0
C881 C 0.90189 0.99125 0.64125 0.0
C882 C 0.98346 0.0341 0.62689 0.0
C883 C 0.07104 0.98733 0.62855 0.0
C884 C 0.03286 0.99376 0.62688 0.0
C885 C 0.92174 0.01194 0.62917 0.0
C886 C 0.9599 0.00573 0.62719 0.0
H887 H 0.14143 0.01569 0.65301 0.0
H888 H 0.07962 0.02853 0.64856 0.0
H889 H 0.03713 0.05055 0.62677 0.0
H890 H 0.8576 0.06752 0.61478 0.0
H891 H 0.91974 0.05545 0.61008 0.0
C892 C 0.95253 0.12424 0.88293 0.0
C893 C 0.97221 0.14408 0.87036 0.0
C894 C 0.95996 0.08876 0.88572 0.0
C895 C 0.96485 0.01067 0.87826 0.0
H896 H 0.06001 0.97472 0.87716 0.0
C897 C -0.00362 0.8673 0.86093 0.0
C898 C 0.02404 0.85058 0.87019 0.0
C899 C 0.98983 0.90292 0.86362 0.0
C900 C 0.0333 0.98434 0.87776 0.0
H901 H 0.0157 0.14227 0.85117 0.0
H902 H 0.02817 0.08039 0.85581 0.0
H903 H 0.05011 0.03794 0.8777 0.0
H904 H 0.06609 0.85819 0.88986 0.0
H905 H 0.05434 0.92043 0.89463 0.0
H906 H 0.94803 0.95711 0.87834 0.0
C907 C 0.00735 0.09237 0.86373 0.0
C908 C 0.02763 0.02054 0.87785 0.0
C909 C 0.0 0.12784 0.86097 0.0
C910 C 0.04464 0.87024 0.88245 0.0
C911 C 0.03803 0.90593 0.88514 0.0
C912 C 0.97052 0.97449 0.87821 0.0
C913 C 0.98717 0.07235 0.87597 0.0
C914 C 0.99334 0.03408 0.87775 0.0
C915 C 0.01071 0.92269 0.87564 0.0
C916 C 0.00478 0.96095 0.87759 0.0
H917 H 0.93107 0.13595 0.89049 0.0
H918 H 0.94424 0.07412 0.89542 0.0
H919 H 0.93811 0.02024 0.87804 0.0
H920 H 0.98001 0.85305 0.85136 0.0
H921 H 0.96894 0.91518 0.85587 0.0
C922 C 0.87607 0.92986 0.37971 0.0
C923 C 0.85607 0.95088 0.36781 0.0
C924 C 0.91196 0.93614 0.38196 0.0
C925 C 0.99089 0.94358 0.37462 0.0
H926 H 0.02192 0.04047 0.37713 0.0
C927 C 0.13284 0.98701 0.35978 0.0
C928 C 0.14679 0.0152 0.36985 0.0
C929 C 0.09799 0.9768 0.36218 0.0
C930 C 0.01374 0.01325 0.37673 0.0
H931 H 0.85837 0.99452 0.34868 0.0
H932 H 0.92058 0.00514 0.35254 0.0
H933 H 0.95952 0.02738 0.3766 0.0
H934 H 0.13543 0.05376 0.39094 0.0
H935 H 0.07478 0.03564 0.39521 0.0
H936 H 0.0453 0.92953 0.3747 0.0
C937 C 0.90848 0.98425 0.36037 0.0
C938 C 0.97799 0.00579 0.3762 0.0
C939 C 0.87279 0.97797 0.35809 0.0
C940 C 0.12545 0.03218 0.3828 0.0
C941 C 0.09065 0.02187 0.38524 0.0
C942 C 0.02677 0.95106 0.37515 0.0
C943 C 0.92838 0.96362 0.37241 0.0
C944 C 0.96622 0.97096 0.37476 0.0
C945 C 0.07639 0.99448 0.37473 0.0
C946 C 0.03853 0.98602 0.37591 0.0
H947 H 0.86403 0.90871 0.38738 0.0
H948 H 0.92672 0.9199 0.39137 0.0
H949 H 0.98252 0.9165 0.37345 0.0
H950 H 0.14855 0.97329 0.34971 0.0
H951 H 0.08764 0.95588 0.35372 0.0
loop_
_geom_bond_atom_site_label_1
_geom_bond_atom_site_label_2
_geom_bond_distance
_geom_bond_site_symmetry_2
_ccdc_geom_bond_type
Co0 O2 2.143 . S
Co0 O8 2.074 . S
Co0 O11 2.093 . S
Co0 O24 2.097 . S
Co0 N41 2.151 . S
Co0 N49 2.214 . S
Co1 O2 2.160 . S
Co1 O7 2.058 . S
Co1 O17 2.057 . S
Co1 O32 2.037 . S
Co1 N36 2.145 1_455 S
Co1 N57 2.257 1_455 S
O2 Co0 2.143 . S
O2 Co1 2.160 . S
C3 O4 1.278 . S
C3 O11 1.224 . S
O4 C3 1.278 . S
C5 O6 1.245 . S
C5 O17 1.232 . S
O6 C5 1.245 . S
O7 Co1 2.058 . S
O7 C33 1.269 . S
O8 Co0 2.074 . S
O8 C33 1.257 . S
H9 C34 0.930 . S
H10 C40 0.930 . S
O11 Co0 2.093 . S
O11 C3 1.224 . S
H12 C44 0.929 . S
H13 C46 0.930 . S
H14 C47 0.930 . S
H15 C45 0.929 . S
H16 C48 0.928 . S
O17 Co1 2.057 . S
O17 C5 1.232 . S
H18 C37 0.929 1_455 S
H19 C38 0.929 . S
H20 C50 0.931 . S
H21 C42 0.929 . S
H22 C51 0.930 . S
H23 C43 0.931 . S
O24 Co0 2.097 . S
O24 C52 1.214 . S
H25 C53 0.929 . S
H26 C54 0.929 . S
H27 C55 0.930 . S
H28 C56 0.929 . S
H29 C58 0.930 . S
H30 C35 0.930 . S
H31 C39 0.930 . S
O32 Co1 2.037 . S
O32 C52 1.234 . S
C33 O7 1.269 . S
C33 O8 1.257 . S
C34 H9 0.930 . S
C34 C37 1.388 . S
C34 C39 1.418 . S
C35 H30 0.930 . S
C35 C38 1.404 . S
C35 C39 1.353 . S
N36 Co1 2.145 1_655 S
N36 C37 1.397 . S
N36 C38 1.334 . S
C37 H18 0.929 1_655 S
C37 C34 1.388 . S
C37 N36 1.397 . S
C38 H19 0.929 . S
C38 C35 1.404 . S
C38 N36 1.334 . S
C39 H31 0.930 . S
C39 C34 1.418 . S
C39 C35 1.353 . S
C40 H10 0.930 . S
C40 N41 1.330 . S
C40 C42 1.446 . S
N41 Co0 2.151 . S
N41 C40 1.330 . S
N41 C45 1.418 . S
C42 H21 0.929 . S
C42 C40 1.446 . S
C42 C43 1.332 . S
C43 H23 0.931 . S
C43 C42 1.332 . S
C43 C44 1.267 . S
C44 H12 0.929 . S
C44 C43 1.267 . S
C44 C45 1.251 . S
C45 H15 0.929 . S
C45 N41 1.418 . S
C45 C44 1.251 . S
C46 H13 0.930 . S
C46 C48 1.406 . S
C46 C51 1.261 . S
C47 H14 0.930 . S
C47 N49 1.325 . S
C47 C50 1.357 . S
C48 H16 0.928 . S
C48 C46 1.406 . S
C48 N49 1.261 . S
N49 Co0 2.214 . S
N49 C47 1.325 . S
N49 C48 1.261 . S
C50 H20 0.931 . S
C50 C47 1.357 . S
C50 C51 1.312 . S
C51 H22 0.930 . S
C51 C46 1.261 . S
C51 C50 1.312 . S
C52 O24 1.214 . S
C52 O32 1.234 . S
C53 H25 0.929 . S
C53 C56 1.391 . S
C53 C58 1.391 . S
C54 H26 0.929 . S
C54 C55 1.390 . S
C54 N57 1.391 . S
C55 H27 0.930 . S
C55 C54 1.390 . S
C55 C56 1.392 . S
C56 H28 0.929 . S
C56 C53 1.391 . S
C56 C55 1.392 . S
N57 Co1 2.257 1_655 S
N57 C54 1.391 . S
N57 C58 1.388 . S
C58 H29 0.930 . S
C58 C53 1.391 . S
C58 N57 1.388 . S
Co59 O61 2.143 . S
Co59 O67 2.074 . S
Co59 O70 2.093 . S
Co59 O83 2.097 . S
Co59 N100 2.151 . S
Co59 N108 2.214 . S
Co60 O61 2.160 . S
Co60 O66 2.058 . S
Co60 O76 2.057 . S
Co60 O91 2.037 . S
Co60 N95 2.145 1_545 S
Co60 N116 2.257 1_545 S
O61 Co59 2.143 . S
O61 Co60 2.160 . S
C62 O63 1.278 . S
C62 O70 1.224 . S
O63 C62 1.278 . S
C64 O65 1.245 . S
C64 O76 1.232 . S
O65 C64 1.245 . S
O66 Co60 2.058 . S
O66 C92 1.269 . S
O67 Co59 2.074 . S
O67 C92 1.257 . S
H68 C93 0.930 . S
H69 C99 0.930 . S
O70 Co59 2.093 . S
O70 C62 1.224 . S
H71 C103 0.929 . S
H72 C105 0.930 . S
H73 C106 0.930 . S
H74 C104 0.929 . S
H75 C107 0.928 . S
O76 Co60 2.057 . S
O76 C64 1.232 . S
H77 C96 0.929 1_545 S
H78 C97 0.929 . S
H79 C109 0.931 . S
H80 C101 0.929 . S
H81 C110 0.930 . S
H82 C102 0.931 . S
O83 Co59 2.097 . S
O83 C111 1.214 . S
H84 C112 0.929 . S
H85 C113 0.929 . S
H86 C114 0.930 . S
H87 C115 0.929 . S
H88 C117 0.930 . S
H89 C94 0.930 . S
H90 C98 0.930 . S
O91 Co60 2.037 . S
O91 C111 1.234 . S
C92 O66 1.269 . S
C92 O67 1.257 . S
C93 H68 0.930 . S
C93 C96 1.388 . S
C93 C98 1.418 . S
C94 H89 0.930 . S
C94 C97 1.404 . S
C94 C98 1.353 . S
N95 Co60 2.145 1_565 S
N95 C96 1.397 . S
N95 C97 1.334 . S
C96 H77 0.929 1_565 S
C96 C93 1.388 . S
C96 N95 1.397 . S
C97 H78 0.929 . S
C97 C94 1.404 . S
C97 N95 1.334 . S
C98 H90 0.930 . S
C98 C93 1.418 . S
C98 C94 1.353 . S
C99 H69 0.930 . S
C99 N100 1.330 . S
C99 C101 1.446 . S
N100 Co59 2.151 . S
N100 C99 1.330 . S
N100 C104 1.418 . S
C101 H80 0.929 . S
C101 C99 1.446 . S
C101 C102 1.332 . S
C102 H82 0.931 . S
C102 C101 1.332 . S
C102 C103 1.267 . S
C103 H71 0.929 . S
C103 C102 1.267 . S
C103 C104 1.251 . S
C104 H74 0.929 . S
C104 N100 1.418 . S
C104 C103 1.251 . S
C105 H72 0.930 . S
C105 C107 1.406 . S
C105 C110 1.261 . S
C106 H73 0.930 . S
C106 N108 1.325 . S
C106 C109 1.357 . S
C107 H75 0.928 . S
C107 C105 1.406 . S
C107 N108 1.261 . S
N108 Co59 2.214 . S
N108 C106 1.325 . S
N108 C107 1.261 . S
C109 H79 0.931 . S
C109 C106 1.357 . S
C109 C110 1.312 . S
C110 H81 0.930 . S
C110 C105 1.261 . S
C110 C109 1.312 . S
C111 O83 1.214 . S
C111 O91 1.234 . S
C112 H84 0.929 . S
C112 C115 1.391 . S
C112 C117 1.391 . S
C113 H85 0.929 . S
C113 C114 1.390 . S
C113 N116 1.391 . S
C114 H86 0.930 . S
C114 C113 1.390 . S
C114 C115 1.392 . S
C115 H87 0.929 . S
C115 C112 1.391 . S
C115 C114 1.392 . S
N116 Co60 2.257 1_565 S
N116 C113 1.391 . S
N116 C117 1.388 . S
C117 H88 0.930 . S
C117 C112 1.391 . S
C117 N116 1.388 . S
Co118 O120 2.143 . S
Co118 O126 2.074 . S
Co118 O129 2.093 . S
Co118 O142 2.097 . S
Co118 N159 2.151 . S
Co118 N167 2.214 . S
Co119 O120 2.160 . S
Co119 O125 2.058 . S
Co119 O135 2.057 . S
Co119 O150 2.037 . S
Co119 N154 2.145 1_655 S
Co119 N175 2.257 1_655 S
O120 Co118 2.143 . S
O120 Co119 2.160 . S
C121 O122 1.278 . S
C121 O129 1.224 . S
O122 C121 1.278 . S
C123 O124 1.245 . S
C123 O135 1.232 . S
O124 C123 1.245 . S
O125 Co119 2.058 . S
O125 C151 1.269 . S
O126 Co118 2.074 . S
O126 C151 1.257 . S
H127 C152 0.930 . S
H128 C158 0.930 . S
O129 Co118 2.093 . S
O129 C121 1.224 . S
H130 C162 0.929 . S
H131 C164 0.930 . S
H132 C165 0.930 . S
H133 C163 0.929 . S
H134 C166 0.928 . S
O135 Co119 2.057 . S
O135 C123 1.232 . S
H136 C155 0.929 1_655 S
H137 C156 0.929 . S
H138 C168 0.931 . S
H139 C160 0.929 . S
H140 C169 0.930 . S
H141 C161 0.931 . S
O142 Co118 2.097 . S
O142 C170 1.214 . S
H143 C171 0.929 . S
H144 C172 0.929 . S
H145 C173 0.930 . S
H146 C174 0.929 . S
H147 C176 0.930 . S
H148 C153 0.930 . S
H149 C157 0.930 . S
O150 Co119 2.037 . S
O150 C170 1.234 . S
C151 O125 1.269 . S
C151 O126 1.257 . S
C152 H127 0.930 . S
C152 C155 1.388 . S
C152 C157 1.418 . S
C153 H148 0.930 . S
C153 C156 1.404 . S
C153 C157 1.353 . S
N154 Co119 2.145 1_455 S
N154 C155 1.397 . S
N154 C156 1.334 . S
C155 H136 0.929 1_455 S
C155 C152 1.388 . S
C155 N154 1.397 . S
C156 H137 0.929 . S
C156 C153 1.404 . S
C156 N154 1.334 . S
C157 H149 0.930 . S
C157 C152 1.418 . S
C157 C153 1.353 . S
C158 H128 0.930 . S
C158 N159 1.330 . S
C158 C160 1.446 . S
N159 Co118 2.151 . S
N159 C158 1.330 . S
N159 C163 1.418 . S
C160 H139 0.929 . S
C160 C158 1.446 . S
C160 C161 1.332 . S
C161 H141 0.931 . S
C161 C160 1.332 . S
C161 C162 1.267 . S
C162 H130 0.929 . S
C162 C161 1.267 . S
C162 C163 1.251 . S
C163 H133 0.929 . S
C163 N159 1.418 . S
C163 C162 1.251 . S
C164 H131 0.930 . S
C164 C166 1.406 . S
C164 C169 1.261 . S
C165 H132 0.930 . S
C165 N167 1.325 . S
C165 C168 1.357 . S
C166 H134 0.928 . S
C166 C164 1.406 . S
C166 N167 1.261 . S
N167 Co118 2.214 . S
N167 C165 1.325 . S
N167 C166 1.261 . S
C168 H138 0.931 . S
C168 C165 1.357 . S
C168 C169 1.312 . S
C169 H140 0.930 . S
C169 C164 1.261 . S
C169 C168 1.312 . S
C170 O142 1.214 . S
C170 O150 1.234 . S
C171 H143 0.929 . S
C171 C174 1.391 . S
C171 C176 1.391 . S
C172 H144 0.929 . S
C172 C173 1.390 . S
C172 N175 1.391 . S
C173 H145 0.930 . S
C173 C172 1.390 . S
C173 C174 1.392 . S
C174 H146 0.929 . S
C174 C171 1.391 . S
C174 C173 1.392 . S
N175 Co119 2.257 1_455 S
N175 C172 1.391 . S
N175 C176 1.388 . S
C176 H147 0.930 . S
C176 C171 1.391 . S
C176 N175 1.388 . S
Co177 O179 2.143 . S
Co177 O185 2.074 . S
Co177 O188 2.093 . S
Co177 O201 2.097 . S
Co177 N218 2.151 . S
Co177 N226 2.214 . S
Co178 O179 2.160 . S
Co178 O184 2.058 . S
Co178 O194 2.057 . S
Co178 O209 2.037 . S
Co178 N213 2.145 1_565 S
Co178 N234 2.257 1_565 S
O179 Co177 2.143 . S
O179 Co178 2.160 . S
C180 O181 1.278 . S
C180 O188 1.224 . S
O181 C180 1.278 . S
C182 O183 1.245 . S
C182 O194 1.232 . S
O183 C182 1.245 . S
O184 Co178 2.058 . S
O184 C210 1.269 . S
O185 Co177 2.074 . S
O185 C210 1.257 . S
H186 C211 0.930 . S
H187 C217 0.930 . S
O188 Co177 2.093 . S
O188 C180 1.224 . S
H189 C221 0.929 . S
H190 C223 0.930 . S
H191 C224 0.930 . S
H192 C222 0.929 . S
H193 C225 0.928 . S
O194 Co178 2.057 . S
O194 C182 1.232 . S
H195 C214 0.929 1_565 S
H196 C215 0.929 . S
H197 C227 0.931 . S
H198 C219 0.929 . S
H199 C228 0.930 . S
H200 C220 0.931 . S
O201 Co177 2.097 . S
O201 C229 1.214 . S
H202 C230 0.929 . S
H203 C231 0.929 . S
H204 C232 0.930 . S
H205 C233 0.929 . S
H206 C235 0.930 . S
H207 C212 0.930 . S
H208 C216 0.930 . S
O209 Co178 2.037 . S
O209 C229 1.234 . S
C210 O184 1.269 . S
C210 O185 1.257 . S
C211 H186 0.930 . S
C211 C214 1.388 . S
C211 C216 1.418 . S
C212 H207 0.930 . S
C212 C215 1.404 . S
C212 C216 1.353 . S
N213 Co178 2.145 1_545 S
N213 C214 1.397 . S
N213 C215 1.334 . S
C214 H195 0.929 1_545 S
C214 C211 1.388 . S
C214 N213 1.397 . S
C215 H196 0.929 . S
C215 C212 1.404 . S
C215 N213 1.334 . S
C216 H208 0.930 . S
C216 C211 1.418 . S
C216 C212 1.353 . S
C217 H187 0.930 . S
C217 N218 1.330 . S
C217 C219 1.446 . S
N218 Co177 2.151 . S
N218 C217 1.330 . S
N218 C222 1.418 . S
C219 H198 0.929 . S
C219 C217 1.446 . S
C219 C220 1.332 . S
C220 H200 0.931 . S
C220 C219 1.332 . S
C220 C221 1.267 . S
C221 H189 0.929 . S
C221 C220 1.267 . S
C221 C222 1.251 . S
C222 H192 0.929 . S
C222 N218 1.418 . S
C222 C221 1.251 . S
C223 H190 0.930 . S
C223 C225 1.406 . S
C223 C228 1.261 . S
C224 H191 0.930 . S
C224 N226 1.325 . S
C224 C227 1.357 . S
C225 H193 0.928 . S
C225 C223 1.406 . S
C225 N226 1.261 . S
N226 Co177 2.214 . S
N226 C224 1.325 . S
N226 C225 1.261 . S
C227 H197 0.931 . S
C227 C224 1.357 . S
C227 C228 1.312 . S
C228 H199 0.930 . S
C228 C223 1.261 . S
C228 C227 1.312 . S
C229 O201 1.214 . S
C229 O209 1.234 . S
C230 H202 0.929 . S
C230 C233 1.391 . S
C230 C235 1.391 . S
C231 H203 0.929 . S
C231 C232 1.390 . S
C231 N234 1.391 . S
C232 H204 0.930 . S
C232 C231 1.390 . S
C232 C233 1.392 . S
C233 H205 0.929 . S
C233 C230 1.391 . S
C233 C232 1.392 . S
N234 Co178 2.257 1_545 S
N234 C231 1.391 . S
N234 C235 1.388 . S
C235 H206 0.930 . S
C235 C230 1.391 . S
C235 N234 1.388 . S
Co236 O238 2.143 . S
Co236 O244 2.074 . S
Co236 O247 2.093 . S
Co236 O260 2.097 . S
Co236 N277 2.151 . S
Co236 N285 2.214 . S
Co237 O238 2.160 . S
Co237 O243 2.058 . S
Co237 O253 2.057 . S
Co237 O268 2.037 . S
Co237 N272 2.145 1_455 S
Co237 N293 2.257 1_455 S
O238 Co236 2.143 . S
O238 Co237 2.160 . S
C239 O240 1.278 . S
C239 O247 1.224 . S
O240 C239 1.278 . S
C241 O242 1.245 . S
C241 O253 1.232 . S
O242 C241 1.245 . S
O243 Co237 2.058 . S
O243 C269 1.269 . S
O244 Co236 2.074 . S
O244 C269 1.257 . S
H245 C270 0.930 . S
H246 C276 0.930 . S
O247 Co236 2.093 . S
O247 C239 1.224 . S
H248 C280 0.929 . S
H249 C282 0.930 . S
H250 C283 0.930 . S
H251 C281 0.929 . S
H252 C284 0.928 . S
O253 Co237 2.057 . S
O253 C241 1.232 . S
H254 C273 0.929 1_455 S
H255 C274 0.929 . S
H256 C286 0.931 . S
H257 C278 0.929 . S
H258 C287 0.930 . S
H259 C279 0.931 . S
O260 Co236 2.097 . S
O260 C288 1.214 . S
H261 C289 0.929 . S
H262 C290 0.929 . S
H263 C291 0.930 . S
H264 C292 0.929 . S
H265 C294 0.930 . S
H266 C271 0.930 . S
H267 C275 0.930 . S
O268 Co237 2.037 . S
O268 C288 1.234 . S
C269 O243 1.269 . S
C269 O244 1.257 . S
C270 H245 0.930 . S
C270 C273 1.388 . S
C270 C275 1.418 . S
C271 H266 0.930 . S
C271 C274 1.404 . S
C271 C275 1.353 . S
N272 Co237 2.145 1_655 S
N272 C273 1.397 . S
N272 C274 1.334 . S
C273 H254 0.929 1_655 S
C273 C270 1.388 . S
C273 N272 1.397 . S
C274 H255 0.929 . S
C274 C271 1.404 . S
C274 N272 1.334 . S
C275 H267 0.930 . S
C275 C270 1.418 . S
C275 C271 1.353 . S
C276 H246 0.930 . S
C276 N277 1.330 . S
C276 C278 1.446 . S
N277 Co236 2.151 . S
N277 C276 1.330 . S
N277 C281 1.418 . S
C278 H257 0.929 . S
C278 C276 1.446 . S
C278 C279 1.332 . S
C279 H259 0.931 . S
C279 C278 1.332 . S
C279 C280 1.267 . S
C280 H248 0.929 . S
C280 C279 1.267 . S
C280 C281 1.251 . S
C281 H251 0.929 . S
C281 N277 1.418 . S
C281 C280 1.251 . S
C282 H249 0.930 . S
C282 C284 1.406 . S
C282 C287 1.261 . S
C283 H250 0.930 . S
C283 N285 1.325 . S
C283 C286 1.357 . S
C284 H252 0.928 . S
C284 C282 1.406 . S
C284 N285 1.261 . S
N285 Co236 2.214 . S
N285 C283 1.325 . S
N285 C284 1.261 . S
C286 H256 0.931 . S
C286 C283 1.357 . S
C286 C287 1.312 . S
C287 H258 0.930 . S
C287 C282 1.261 . S
C287 C286 1.312 . S
C288 O260 1.214 . S
C288 O268 1.234 . S
C289 H261 0.929 . S
C289 C292 1.391 . S
C289 C294 1.391 . S
C290 H262 0.929 . S
C290 C291 1.390 . S
C290 N293 1.391 . S
C291 H263 0.930 . S
C291 C290 1.390 . S
C291 C292 1.392 . S
C292 H264 0.929 . S
C292 C289 1.391 . S
C292 C291 1.392 . S
N293 Co237 2.257 1_655 S
N293 C290 1.391 . S
N293 C294 1.388 . S
C294 H265 0.930 . S
C294 C289 1.391 . S
C294 N293 1.388 . S
Co295 O297 2.143 . S
Co295 O303 2.074 . S
Co295 O306 2.093 . S
Co295 O319 2.097 . S
Co295 N336 2.151 . S
Co295 N344 2.214 . S
Co296 O297 2.160 . S
Co296 O302 2.058 . S
Co296 O312 2.057 . S
Co296 O327 2.037 . S
Co296 N331 2.145 1_545 S
Co296 N352 2.257 1_545 S
O297 Co295 2.143 . S
O297 Co296 2.160 . S
C298 O299 1.278 . S
C298 O306 1.224 . S
O299 C298 1.278 . S
C300 O301 1.245 . S
C300 O312 1.232 . S
O301 C300 1.245 . S
O302 Co296 2.058 . S
O302 C328 1.269 . S
O303 Co295 2.074 . S
O303 C328 1.257 . S
H304 C329 0.930 . S
H305 C335 0.930 . S
O306 Co295 2.093 . S
O306 C298 1.224 . S
H307 C339 0.929 . S
H308 C341 0.930 . S
H309 C342 0.930 . S
H310 C340 0.929 . S
H311 C343 0.928 . S
O312 Co296 2.057 . S
O312 C300 1.232 . S
H313 C332 0.929 1_545 S
H314 C333 0.929 . S
H315 C345 0.931 . S
H316 C337 0.929 . S
H317 C346 0.930 . S
H318 C338 0.931 . S
O319 Co295 2.097 . S
O319 C347 1.214 . S
H320 C348 0.929 . S
H321 C349 0.929 . S
H322 C350 0.930 . S
H323 C351 0.929 . S
H324 C353 0.930 . S
H325 C330 0.930 . S
H326 C334 0.930 . S
O327 Co296 2.037 . S
O327 C347 1.234 . S
C328 O302 1.269 . S
C328 O303 1.257 . S
C329 H304 0.930 . S
C329 C332 1.388 . S
C329 C334 1.418 . S
C330 H325 0.930 . S
C330 C333 1.404 . S
C330 C334 1.353 . S
N331 Co296 2.145 1_565 S
N331 C332 1.397 . S
N331 C333 1.334 . S
C332 H313 0.929 1_565 S
C332 C329 1.388 . S
C332 N331 1.397 . S
C333 H314 0.929 . S
C333 C330 1.404 . S
C333 N331 1.334 . S
C334 H326 0.930 . S
C334 C329 1.418 . S
C334 C330 1.353 . S
C335 H305 0.930 . S
C335 N336 1.330 . S
C335 C337 1.446 . S
N336 Co295 2.151 . S
N336 C335 1.330 . S
N336 C340 1.418 . S
C337 H316 0.929 . S
C337 C335 1.446 . S
C337 C338 1.332 . S
C338 H318 0.931 . S
C338 C337 1.332 . S
C338 C339 1.267 . S
C339 H307 0.929 . S
C339 C338 1.267 . S
C339 C340 1.251 . S
C340 H310 0.929 . S
C340 N336 1.418 . S
C340 C339 1.251 . S
C341 H308 0.930 . S
C341 C343 1.406 . S
C341 C346 1.261 . S
C342 H309 0.930 . S
C342 N344 1.325 . S
C342 C345 1.357 . S
C343 H311 0.928 . S
C343 C341 1.406 . S
C343 N344 1.261 . S
N344 Co295 2.214 . S
N344 C342 1.325 . S
N344 C343 1.261 . S
C345 H315 0.931 . S
C345 C342 1.357 . S
C345 C346 1.312 . S
C346 H317 0.930 . S
C346 C341 1.261 . S
C346 C345 1.312 . S
C347 O319 1.214 . S
C347 O327 1.234 . S
C348 H320 0.929 . S
C348 C351 1.391 . S
C348 C353 1.391 . S
C349 H321 0.929 . S
C349 C350 1.390 . S
C349 N352 1.391 . S
C350 H322 0.930 . S
C350 C349 1.390 . S
C350 C351 1.392 . S
C351 H323 0.929 . S
C351 C348 1.391 . S
C351 C350 1.392 . S
N352 Co296 2.257 1_565 S
N352 C349 1.391 . S
N352 C353 1.388 . S
C353 H324 0.930 . S
C353 C348 1.391 . S
C353 N352 1.388 . S
Co354 O356 2.143 . S
Co354 O362 2.074 . S
Co354 O365 2.093 . S
Co354 O378 2.097 . S
Co354 N395 2.151 . S
Co354 N403 2.214 . S
Co355 O356 2.160 . S
Co355 O361 2.058 . S
Co355 O371 2.057 . S
Co355 O386 2.037 . S
Co355 N390 2.145 1_655 S
Co355 N411 2.257 1_655 S
O356 Co354 2.143 . S
O356 Co355 2.160 . S
C357 O358 1.278 . S
C357 O365 1.224 . S
O358 C357 1.278 . S
C359 O360 1.245 . S
C359 O371 1.232 . S
O360 C359 1.245 . S
O361 Co355 2.058 . S
O361 C387 1.269 . S
O362 Co354 2.074 . S
O362 C387 1.257 . S
H363 C388 0.930 . S
H364 C394 0.930 . S
O365 Co354 2.093 . S
O365 C357 1.224 . S
H366 C398 0.929 . S
H367 C400 0.930 . S
H368 C401 0.930 . S
H369 C399 0.929 . S
H370 C402 0.928 . S
O371 Co355 2.057 . S
O371 C359 1.232 . S
H372 C391 0.929 1_655 S
H373 C392 0.929 . S
H374 C404 0.931 . S
H375 C396 0.929 . S
H376 C405 0.930 . S
H377 C397 0.931 . S
O378 Co354 2.097 . S
O378 C406 1.214 . S
H379 C407 0.929 . S
H380 C408 0.929 . S
H381 C409 0.930 . S
H382 C410 0.929 . S
H383 C412 0.930 . S
H384 C389 0.930 . S
H385 C393 0.930 . S
O386 Co355 2.037 . S
O386 C406 1.234 . S
C387 O361 1.269 . S
C387 O362 1.257 . S
C388 H363 0.930 . S
C388 C391 1.388 . S
C388 C393 1.418 . S
C389 H384 0.930 . S
C389 C392 1.404 . S
C389 C393 1.353 . S
N390 Co355 2.145 1_455 S
N390 C391 1.397 . S
N390 C392 1.334 . S
C391 H372 0.929 1_455 S
C391 C388 1.388 . S
C391 N390 1.397 . S
C392 H373 0.929 . S
C392 C389 1.404 . S
C392 N390 1.334 . S
C393 H385 0.930 . S
C393 C388 1.418 . S
C393 C389 1.353 . S
C394 H364 0.930 . S
C394 N395 1.330 . S
C394 C396 1.446 . S
N395 Co354 2.151 . S
N395 C394 1.330 . S
N395 C399 1.418 . S
C396 H375 0.929 . S
C396 C394 1.446 . S
C396 C397 1.332 . S
C397 H377 0.931 . S
C397 C396 1.332 . S
C397 C398 1.267 . S
C398 H366 0.929 . S
C398 C397 1.267 . S
C398 C399 1.251 . S
C399 H369 0.929 . S
C399 N395 1.418 . S
C399 C398 1.251 . S
C400 H367 0.930 . S
C400 C402 1.406 . S
C400 C405 1.261 . S
C401 H368 0.930 . S
C401 N403 1.325 . S
C401 C404 1.357 . S
C402 H370 0.928 . S
C402 C400 1.406 . S
C402 N403 1.261 . S
N403 Co354 2.214 . S
N403 C401 1.325 . S
N403 C402 1.261 . S
C404 H374 0.931 . S
C404 C401 1.357 . S
C404 C405 1.312 . S
C405 H376 0.930 . S
C405 C400 1.261 . S
C405 C404 1.312 . S
C406 O378 1.214 . S
C406 O386 1.234 . S
C407 H379 0.929 . S
C407 C410 1.391 . S
C407 C412 1.391 . S
C408 H380 0.929 . S
C408 C409 1.390 . S
C408 N411 1.391 . S
C409 H381 0.930 . S
C409 C408 1.390 . S
C409 C410 1.392 . S
C410 H382 0.929 . S
C410 C407 1.391 . S
C410 C409 1.392 . S
N411 Co355 2.257 1_455 S
N411 C408 1.391 . S
N411 C412 1.388 . S
C412 H383 0.930 . S
C412 C407 1.391 . S
C412 N411 1.388 . S
Co413 O415 2.143 . S
Co413 O421 2.074 . S
Co413 O424 2.093 . S
Co413 O437 2.097 . S
Co413 N454 2.151 . S
Co413 N462 2.214 . S
Co414 O415 2.160 . S
Co414 O420 2.058 . S
Co414 O430 2.057 . S
Co414 O445 2.037 . S
Co414 N449 2.145 1_565 S
Co414 N470 2.257 1_565 S
O415 Co413 2.143 . S
O415 Co414 2.160 . S
C416 O417 1.278 . S
C416 O424 1.224 . S
O417 C416 1.278 . S
C418 O419 1.245 . S
C418 O430 1.232 . S
O419 C418 1.245 . S
O420 Co414 2.058 . S
O420 C446 1.269 . S
O421 Co413 2.074 . S
O421 C446 1.257 . S
H422 C447 0.930 . S
H423 C453 0.930 . S
O424 Co413 2.093 . S
O424 C416 1.224 . S
H425 C457 0.929 . S
H426 C459 0.930 . S
H427 C460 0.930 . S
H428 C458 0.929 . S
H429 C461 0.928 . S
O430 Co414 2.057 . S
O430 C418 1.232 . S
H431 C450 0.929 1_565 S
H432 C451 0.929 . S
H433 C463 0.931 . S
H434 C455 0.929 . S
H435 C464 0.930 . S
H436 C456 0.931 . S
O437 Co413 2.097 . S
O437 C465 1.214 . S
H438 C466 0.929 . S
H439 C467 0.929 . S
H440 C468 0.930 . S
H441 C469 0.929 . S
H442 C471 0.930 . S
H443 C448 0.930 . S
H444 C452 0.930 . S
O445 Co414 2.037 . S
O445 C465 1.234 . S
C446 O420 1.269 . S
C446 O421 1.257 . S
C447 H422 0.930 . S
C447 C450 1.388 . S
C447 C452 1.418 . S
C448 H443 0.930 . S
C448 C451 1.404 . S
C448 C452 1.353 . S
N449 Co414 2.145 1_545 S
N449 C450 1.397 . S
N449 C451 1.334 . S
C450 H431 0.929 1_545 S
C450 C447 1.388 . S
C450 N449 1.397 . S
C451 H432 0.929 . S
C451 C448 1.404 . S
C451 N449 1.334 . S
C452 H444 0.930 . S
C452 C447 1.418 . S
C452 C448 1.353 . S
C453 H423 0.930 . S
C453 N454 1.330 . S
C453 C455 1.446 . S
N454 Co413 2.151 . S
N454 C453 1.330 . S
N454 C458 1.418 . S
C455 H434 0.929 . S
C455 C453 1.446 . S
C455 C456 1.332 . S
C456 H436 0.931 . S
C456 C455 1.332 . S
C456 C457 1.267 . S
C457 H425 0.929 . S
C457 C456 1.267 . S
C457 C458 1.251 . S
C458 H428 0.929 . S
C458 N454 1.418 . S
C458 C457 1.251 . S
C459 H426 0.930 . S
C459 C461 1.406 . S
C459 C464 1.261 . S
C460 H427 0.930 . S
C460 N462 1.325 . S
C460 C463 1.357 . S
C461 H429 0.928 . S
C461 C459 1.406 . S
C461 N462 1.261 . S
N462 Co413 2.214 . S
N462 C460 1.325 . S
N462 C461 1.261 . S
C463 H433 0.931 . S
C463 C460 1.357 . S
C463 C464 1.312 . S
C464 H435 0.930 . S
C464 C459 1.261 . S
C464 C463 1.312 . S
C465 O437 1.214 . S
C465 O445 1.234 . S
C466 H438 0.929 . S
C466 C469 1.391 . S
C466 C471 1.391 . S
C467 H439 0.929 . S
C467 C468 1.390 . S
C467 N470 1.391 . S
C468 H440 0.930 . S
C468 C467 1.390 . S
C468 C469 1.392 . S
C469 H441 0.929 . S
C469 C466 1.391 . S
C469 C468 1.392 . S
N470 Co414 2.257 1_545 S
N470 C467 1.391 . S
N470 C471 1.388 . S
C471 H442 0.930 . S
C471 C466 1.391 . S
C471 N470 1.388 . S
C472 C473 1.349 . S
C472 C474 1.327 . S
C472 H497 0.950 . S
C473 C472 1.349 . S
C473 C489 1.349 . S
C474 C472 1.327 . S
C474 C493 1.429 . S
C474 H498 0.950 . S
C475 C492 1.574 . S
C475 C494 1.368 1_655 S
C475 H499 0.949 . S
H476 C480 0.949 . S
C477 C478 1.349 . S
C477 C479 1.327 . S
C477 H500 0.950 . S
C478 C477 1.349 . S
C478 C490 1.349 . S
C479 C477 1.327 . S
C479 C495 1.429 . S
C479 H501 0.950 . S
C480 H476 0.949 . S
C480 C488 1.574 . S
C480 C496 1.368 1_455 S
H481 C489 0.950 1_655 S
H482 C487 0.946 1_655 S
H483 C488 0.949 . S
H484 C490 0.950 1_455 S
H485 C491 0.946 1_455 S
H486 C492 0.949 . S
C487 H482 0.946 1_455 S
C487 C489 1.328 . S
C487 C493 1.431 . S
C488 C480 1.574 . S
C488 H483 0.949 . S
C488 C494 1.368 . S
C489 C473 1.349 . S
C489 H481 0.950 1_455 S
C489 C487 1.328 . S
C490 C478 1.349 . S
C490 H484 0.950 1_655 S
C490 C491 1.329 . S
C491 H485 0.946 1_655 S
C491 C490 1.329 . S
C491 C495 1.431 . S
C492 C475 1.574 . S
C492 H486 0.949 . S
C492 C496 1.368 . S
C493 C474 1.429 . S
C493 C487 1.431 . S
C493 C494 1.523 . S
C494 C475 1.368 1_455 S
C494 C488 1.368 . S
C494 C493 1.523 . S
C495 C479 1.429 . S
C495 C491 1.431 . S
C495 C496 1.523 . S
C496 C480 1.368 1_655 S
C496 C492 1.368 . S
C496 C495 1.523 . S
H497 C472 0.950 . S
H498 C474 0.950 . S
H499 C475 0.949 . S
H500 C477 0.950 . S
H501 C479 0.950 . S
C502 C503 1.349 . S
C502 C504 1.329 . S
C502 H527 0.950 1_565 S
C503 C502 1.349 . S
C503 C519 1.349 . S
C504 C502 1.329 . S
C504 C523 1.431 . S
C504 H528 0.945 1_565 S
C505 C522 1.574 . S
C505 C524 1.368 . S
C505 H529 0.949 . S
H506 C510 0.949 . S
C507 C508 1.349 . S
C507 C509 1.328 . S
C507 H530 0.950 1_545 S
C508 C507 1.349 . S
C508 C520 1.349 . S
C509 C507 1.328 . S
C509 C525 1.430 . S
C509 H531 0.947 1_545 S
C510 H506 0.949 . S
C510 C518 1.574 . S
C510 C526 1.368 . S
H511 C519 0.950 . S
H512 C517 0.950 . S
H513 C518 0.949 . S
H514 C520 0.950 . S
H515 C521 0.950 . S
H516 C522 0.949 . S
C517 H512 0.950 . S
C517 C519 1.327 . S
C517 C523 1.429 . S
C518 C510 1.574 . S
C518 H513 0.949 . S
C518 C524 1.368 1_545 S
C519 C503 1.349 . S
C519 H511 0.950 . S
C519 C517 1.327 . S
C520 C508 1.349 . S
C520 H514 0.950 . S
C520 C521 1.327 . S
C521 H515 0.950 . S
C521 C520 1.327 . S
C521 C525 1.429 . S
C522 C505 1.574 . S
C522 H516 0.949 . S
C522 C526 1.368 1_565 S
C523 C504 1.431 . S
C523 C517 1.429 . S
C523 C524 1.523 . S
C524 C505 1.368 . S
C524 C518 1.368 1_565 S
C524 C523 1.523 . S
C525 C509 1.430 . S
C525 C521 1.429 . S
C525 C526 1.523 . S
C526 C510 1.368 . S
C526 C522 1.368 1_545 S
C526 C525 1.523 . S
H527 C502 0.950 1_545 S
H528 C504 0.945 1_545 S
H529 C505 0.949 . S
H530 C507 0.950 1_565 S
H531 C509 0.947 1_565 S
C532 C533 1.349 . S
C532 C534 1.327 . S
C532 H557 0.950 . S
C533 C532 1.349 . S
C533 C549 1.349 . S
C534 C532 1.327 . S
C534 C553 1.429 . S
C534 H558 0.950 . S
C535 C552 1.574 . S
C535 C554 1.368 1_455 S
C535 H559 0.949 . S
H536 C540 0.949 . S
C537 C538 1.349 . S
C537 C539 1.327 . S
C537 H560 0.950 . S
C538 C537 1.349 . S
C538 C550 1.349 . S
C539 C537 1.327 . S
C539 C555 1.429 . S
C539 H561 0.950 . S
C540 H536 0.949 . S
C540 C548 1.574 . S
C540 C556 1.368 1_655 S
H541 C549 0.950 1_455 S
H542 C547 0.947 1_455 S
H543 C548 0.949 . S
H544 C550 0.950 1_655 S
H545 C551 0.945 1_655 S
H546 C552 0.949 . S
C547 H542 0.947 1_655 S
C547 C549 1.328 . S
C547 C553 1.431 . S
C548 C540 1.574 . S
C548 H543 0.949 . S
C548 C554 1.368 . S
C549 C533 1.349 . S
C549 H541 0.950 1_655 S
C549 C547 1.328 . S
C550 C538 1.349 . S
C550 H544 0.950 1_455 S
C550 C551 1.329 . S
C551 H545 0.945 1_455 S
C551 C550 1.329 . S
C551 C555 1.431 . S
C552 C535 1.574 . S
C552 H546 0.949 . S
C552 C556 1.368 . S
C553 C534 1.429 . S
C553 C547 1.431 . S
C553 C554 1.523 . S
C554 C535 1.368 1_655 S
C554 C548 1.368 . S
C554 C553 1.523 . S
C555 C539 1.429 . S
C555 C551 1.431 . S
C555 C556 1.523 . S
C556 C540 1.368 1_455 S
C556 C552 1.368 . S
C556 C555 1.523 . S
H557 C532 0.950 . S
H558 C534 0.950 . S
H559 C535 0.949 . S
H560 C537 0.950 . S
H561 C539 0.950 . S
C562 C563 1.349 . S
C562 C564 1.327 . S
C562 H587 0.950 . S
C563 C562 1.349 . S
C563 C579 1.349 . S
C564 C562 1.327 . S
C564 C583 1.429 . S
C564 H588 0.950 . S
C565 C582 1.574 . S
C565 C584 1.368 1_565 S
C565 H589 0.949 . S
H566 C570 0.949 . S
C567 C568 1.349 . S
C567 C569 1.327 . S
C567 H590 0.950 . S
C568 C567 1.349 . S
C568 C580 1.349 . S
C569 C567 1.327 . S
C569 C585 1.429 . S
C569 H591 0.950 . S
C570 H566 0.949 . S
C570 C578 1.574 . S
C570 C586 1.368 1_545 S
H571 C579 0.950 1_565 S
H572 C577 0.946 1_565 S
H573 C578 0.949 . S
H574 C580 0.950 1_545 S
H575 C581 0.946 1_545 S
H576 C582 0.949 . S
C577 H572 0.946 1_545 S
C577 C579 1.329 . S
C577 C583 1.431 . S
C578 C570 1.574 . S
C578 H573 0.949 . S
C578 C584 1.368 . S
C579 C563 1.349 . S
C579 H571 0.950 1_545 S
C579 C577 1.329 . S
C580 C568 1.349 . S
C580 H574 0.950 1_565 S
C580 C581 1.328 . S
C581 H575 0.946 1_565 S
C581 C580 1.328 . S
C581 C585 1.431 . S
C582 C565 1.574 . S
C582 H576 0.949 . S
C582 C586 1.368 . S
C583 C564 1.429 . S
C583 C577 1.431 . S
C583 C584 1.523 . S
C584 C565 1.368 1_545 S
C584 C578 1.368 . S
C584 C583 1.523 . S
C585 C569 1.429 . S
C585 C581 1.431 . S
C585 C586 1.523 . S
C586 C570 1.368 1_565 S
C586 C582 1.368 . S
C586 C585 1.523 . S
H587 C562 0.950 . S
H588 C564 0.950 . S
H589 C565 0.949 . S
H590 C567 0.950 . S
H591 C569 0.950 . S
C592 C593 1.349 . S
C592 C594 1.327 . S
C592 H617 0.950 . S
C593 C592 1.349 . S
C593 C609 1.349 . S
C594 C592 1.327 . S
C594 C613 1.429 . S
C594 H618 0.950 . S
C595 C612 1.574 1_556 S
C595 C614 1.368 1_455 S
C595 H619 0.949 . S
H596 C600 0.949 . S
C597 C598 1.349 . S
C597 C599 1.327 . S
C597 H620 0.950 . S
C598 C597 1.349 . S
C598 C610 1.349 . S
C599 C597 1.327 . S
C599 C615 1.429 . S
C599 H621 0.950 . S
C600 H596 0.949 . S
C600 C608 1.574 1_554 S
C600 C616 1.368 1_655 S
H601 C609 0.950 . S
H602 C607 0.950 . S
H603 C608 0.949 . S
H604 C610 0.950 . S
H605 C611 0.950 . S
H606 C612 0.949 . S
C607 H602 0.950 . S
C607 C609 1.327 . S
C607 C613 1.429 . S
C608 C600 1.574 1_556 S
C608 H603 0.949 . S
C608 C614 1.368 . S
C609 C593 1.349 . S
C609 H601 0.950 . S
C609 C607 1.327 . S
C610 C598 1.349 . S
C610 H604 0.950 . S
C610 C611 1.327 . S
C611 H605 0.950 . S
C611 C610 1.327 . S
C611 C615 1.429 . S
C612 C595 1.574 1_554 S
C612 H606 0.949 . S
C612 C616 1.368 . S
C613 C594 1.429 . S
C613 C607 1.429 . S
C613 C614 1.523 . S
C614 C595 1.368 1_655 S
C614 C608 1.368 . S
C614 C613 1.523 . S
C615 C599 1.429 . S
C615 C611 1.429 . S
C615 C616 1.523 . S
C616 C600 1.368 1_455 S
C616 C612 1.368 . S
C616 C615 1.523 . S
H617 C592 0.950 . S
H618 C594 0.950 . S
H619 C595 0.949 . S
H620 C597 0.950 . S
H621 C599 0.950 . S
C622 C623 1.349 . S
C622 C624 1.327 . S
C622 H647 0.950 . S
C623 C622 1.349 . S
C623 C639 1.349 . S
C624 C622 1.327 . S
C624 C643 1.429 . S
C624 H648 0.950 1_545 S
C625 C642 1.574 . S
C625 C644 1.368 . S
C625 H649 0.949 . S
H626 C630 0.949 . S
C627 C628 1.349 . S
C627 C629 1.327 . S
C627 H650 0.950 . S
C628 C627 1.349 . S
C628 C640 1.349 . S
C629 C627 1.327 . S
C629 C645 1.429 . S
C629 H651 0.950 1_565 S
C630 H626 0.949 . S
C630 C638 1.574 . S
C630 C646 1.368 . S
H631 C639 0.950 . S
H632 C637 0.950 . S
H633 C638 0.949 . S
H634 C640 0.950 . S
H635 C641 0.950 . S
H636 C642 0.949 . S
C637 H632 0.950 . S
C637 C639 1.327 . S
C637 C643 1.429 . S
C638 C630 1.574 . S
C638 H633 0.949 . S
C638 C644 1.368 1_565 S
C639 C623 1.349 . S
C639 H631 0.950 . S
C639 C637 1.327 . S
C640 C628 1.349 . S
C640 H634 0.950 . S
C640 C641 1.327 . S
C641 H635 0.950 . S
C641 C640 1.327 . S
C641 C645 1.429 . S
C642 C625 1.574 . S
C642 H636 0.949 . S
C642 C646 1.368 1_545 S
C643 C624 1.429 . S
C643 C637 1.429 . S
C643 C644 1.523 . S
C644 C625 1.368 . S
C644 C638 1.368 1_545 S
C644 C643 1.523 . S
C645 C629 1.429 . S
C645 C641 1.429 . S
C645 C646 1.523 . S
C646 C630 1.368 . S
C646 C642 1.368 1_565 S
C646 C645 1.523 . S
H647 C622 0.950 . S
H648 C624 0.950 1_565 S
H649 C625 0.949 . S
H650 C627 0.950 . S
H651 C629 0.950 1_545 S
C652 C653 1.349 . S
C652 C654 1.327 . S
C652 H677 0.950 . S
C653 C652 1.349 . S
C653 C669 1.349 . S
C654 C652 1.327 . S
C654 C673 1.429 . S
C654 H678 0.950 . S
C655 C672 1.574 1_554 S
C655 C674 1.368 1_455 S
C655 H679 0.949 . S
H656 C660 0.949 . S
C657 C658 1.349 . S
C657 C659 1.327 . S
C657 H680 0.950 . S
C658 C657 1.349 . S
C658 C670 1.349 . S
C659 C657 1.327 . S
C659 C675 1.429 . S
C659 H681 0.950 . S
C660 H656 0.949 . S
C660 C668 1.574 1_556 S
C660 C676 1.368 1_655 S
H661 C669 0.950 . S
H662 C667 0.950 . S
H663 C668 0.949 . S
H664 C670 0.950 . S
H665 C671 0.950 . S
H666 C672 0.949 . S
C667 H662 0.950 . S
C667 C669 1.327 . S
C667 C673 1.429 . S
C668 C660 1.574 1_554 S
C668 H663 0.949 . S
C668 C674 1.368 . S
C669 C653 1.349 . S
C669 H661 0.950 . S
C669 C667 1.327 . S
C670 C658 1.349 . S
C670 H664 0.950 . S
C670 C671 1.327 . S
C671 H665 0.950 . S
C671 C670 1.327 . S
C671 C675 1.429 . S
C672 C655 1.574 1_556 S
C672 H666 0.949 . S
C672 C676 1.368 . S
C673 C654 1.429 . S
C673 C667 1.429 . S
C673 C674 1.523 . S
C674 C655 1.368 1_655 S
C674 C668 1.368 . S
C674 C673 1.523 . S
C675 C659 1.429 . S
C675 C671 1.429 . S
C675 C676 1.523 . S
C676 C660 1.368 1_455 S
C676 C672 1.368 . S
C676 C675 1.523 . S
H677 C652 0.950 . S
H678 C654 0.950 . S
H679 C655 0.949 . S
H680 C657 0.950 . S
H681 C659 0.950 . S
C682 C683 1.349 . S
C682 C684 1.327 . S
C682 H707 0.950 . S
C683 C682 1.349 . S
C683 C699 1.349 . S
C684 C682 1.327 . S
C684 C703 1.429 . S
C684 H708 0.950 1_545 S
C685 C702 1.574 . S
C685 C704 1.368 . S
C685 H709 0.949 . S
H686 C690 0.949 . S
C687 C688 1.349 . S
C687 C689 1.327 . S
C687 H710 0.950 . S
C688 C687 1.349 . S
C688 C700 1.349 . S
C689 C687 1.327 . S
C689 C705 1.429 . S
C689 H711 0.950 1_565 S
C690 H686 0.949 . S
C690 C698 1.574 . S
C690 C706 1.368 . S
H691 C699 0.950 . S
H692 C697 0.950 . S
H693 C698 0.949 . S
H694 C700 0.950 . S
H695 C701 0.950 . S
H696 C702 0.949 . S
C697 H692 0.950 . S
C697 C699 1.327 . S
C697 C703 1.429 . S
C698 C690 1.574 . S
C698 H693 0.949 . S
C698 C704 1.368 1_565 S
C699 C683 1.349 . S
C699 H691 0.950 . S
C699 C697 1.327 . S
C700 C688 1.349 . S
C700 H694 0.950 . S
C700 C701 1.327 . S
C701 H695 0.950 . S
C701 C700 1.327 . S
C701 C705 1.429 . S
C702 C685 1.574 . S
C702 H696 0.949 . S
C702 C706 1.368 1_545 S
C703 C684 1.429 . S
C703 C697 1.429 . S
C703 C704 1.523 . S
C704 C685 1.368 . S
C704 C698 1.368 1_545 S
C704 C703 1.523 . S
C705 C689 1.429 . S
C705 C701 1.429 . S
C705 C706 1.523 . S
C706 C690 1.368 . S
C706 C702 1.368 1_565 S
C706 C705 1.523 . S
H707 C682 0.950 . S
H708 C684 0.950 1_565 S
H709 C685 0.949 . S
H710 C687 0.950 . S
H711 C689 0.950 1_545 S
C712 C713 1.349 . S
C712 C714 1.327 . S
C712 H737 0.950 . S
C713 C712 1.349 . S
C713 C729 1.349 . S
C714 C712 1.327 . S
C714 C733 1.429 . S
C714 H738 0.950 . S
C715 C732 1.574 . S
C715 C734 1.368 . S
C715 H739 0.949 . S
H716 C720 0.949 . S
C717 C718 1.349 . S
C717 C719 1.327 . S
C717 H740 0.950 . S
C718 C717 1.349 . S
C718 C730 1.349 . S
C719 C717 1.327 . S
C719 C735 1.429 . S
C719 H741 0.950 . S
C720 H716 0.949 . S
C720 C728 1.574 . S
C720 C736 1.368 . S
H721 C729 0.950 . S
H722 C727 0.950 . S
H723 C728 0.949 . S
H724 C730 0.950 . S
H725 C731 0.950 . S
H726 C732 0.949 . S
C727 H722 0.950 . S
C727 C729 1.327 . S
C727 C733 1.429 . S
C728 C720 1.574 . S
C728 H723 0.949 . S
C728 C734 1.368 . S
C729 C713 1.349 . S
C729 H721 0.950 . S
C729 C727 1.327 . S
C730 C718 1.349 . S
C730 H724 0.950 . S
C730 C731 1.327 . S
C731 H725 0.950 . S
C731 C730 1.327 . S
C731 C735 1.429 . S
C732 C715 1.574 . S
C732 H726 0.949 . S
C732 C736 1.368 . S
C733 C714 1.429 . S
C733 C727 1.429 . S
C733 C734 1.523 . S
C734 C715 1.368 . S
C734 C728 1.368 . S
C734 C733 1.523 . S
C735 C719 1.429 . S
C735 C731 1.429 . S
C735 C736 1.523 . S
C736 C720 1.368 . S
C736 C732 1.368 . S
C736 C735 1.523 . S
H737 C712 0.950 . S
H738 C714 0.950 . S
H739 C715 0.949 . S
H740 C717 0.950 . S
H741 C719 0.950 . S
C742 C743 1.349 . S
C742 C744 1.327 . S
C742 H767 0.950 . S
C743 C742 1.349 . S
C743 C759 1.349 . S
C744 C742 1.327 . S
C744 C763 1.429 . S
C744 H768 0.950 . S
C745 C762 1.574 . S
C745 C764 1.368 . S
C745 H769 0.949 . S
H746 C750 0.949 . S
C747 C748 1.349 . S
C747 C749 1.327 . S
C747 H770 0.950 . S
C748 C747 1.349 . S
C748 C760 1.349 . S
C749 C747 1.327 . S
C749 C765 1.429 . S
C749 H771 0.950 . S
C750 H746 0.949 . S
C750 C758 1.574 . S
C750 C766 1.368 . S
H751 C759 0.950 . S
H752 C757 0.950 . S
H753 C758 0.949 . S
H754 C760 0.950 . S
H755 C761 0.950 . S
H756 C762 0.949 . S
C757 H752 0.950 . S
C757 C759 1.327 . S
C757 C763 1.429 . S
C758 C750 1.574 . S
C758 H753 0.949 . S
C758 C764 1.368 . S
C759 C743 1.349 . S
C759 H751 0.950 . S
C759 C757 1.327 . S
C760 C748 1.349 . S
C760 H754 0.950 . S
C760 C761 1.327 . S
C761 H755 0.950 . S
C761 C760 1.327 . S
C761 C765 1.429 . S
C762 C745 1.574 . S
C762 H756 0.949 . S
C762 C766 1.368 . S
C763 C744 1.429 . S
C763 C757 1.429 . S
C763 C764 1.523 . S
C764 C745 1.368 . S
C764 C758 1.368 . S
C764 C763 1.523 . S
C765 C749 1.429 . S
C765 C761 1.429 . S
C765 C766 1.523 . S
C766 C750 1.368 . S
C766 C762 1.368 . S
C766 C765 1.523 . S
H767 C742 0.950 . S
H768 C744 0.950 . S
H769 C745 0.949 . S
H770 C747 0.950 . S
H771 C749 0.950 . S
C772 C773 1.349 . S
C772 C774 1.327 . S
C772 H797 0.950 . S
C773 C772 1.349 . S
C773 C789 1.349 . S
C774 C772 1.327 . S
C774 C793 1.429 . S
C774 H798 0.950 . S
C775 C792 1.574 . S
C775 C794 1.368 . S
C775 H799 0.949 . S
H776 C780 0.949 . S
C777 C778 1.349 . S
C777 C779 1.327 . S
C777 H800 0.950 . S
C778 C777 1.349 . S
C778 C790 1.349 . S
C779 C777 1.327 . S
C779 C795 1.429 . S
C779 H801 0.950 . S
C780 H776 0.949 . S
C780 C788 1.574 . S
C780 C796 1.368 . S
H781 C789 0.950 . S
H782 C787 0.950 . S
H783 C788 0.949 . S
H784 C790 0.950 . S
H785 C791 0.950 . S
H786 C792 0.949 . S
C787 H782 0.950 . S
C787 C789 1.327 . S
C787 C793 1.429 . S
C788 C780 1.574 . S
C788 H783 0.949 . S
C788 C794 1.368 . S
C789 C773 1.349 . S
C789 H781 0.950 . S
C789 C787 1.327 . S
C790 C778 1.349 . S
C790 H784 0.950 . S
C790 C791 1.327 . S
C791 H785 0.950 . S
C791 C790 1.327 . S
C791 C795 1.429 . S
C792 C775 1.574 . S
C792 H786 0.949 . S
C792 C796 1.368 . S
C793 C774 1.429 . S
C793 C787 1.429 . S
C793 C794 1.523 . S
C794 C775 1.368 . S
C794 C788 1.368 . S
C794 C793 1.523 . S
C795 C779 1.429 . S
C795 C791 1.429 . S
C795 C796 1.523 . S
C796 C780 1.368 . S
C796 C792 1.368 . S
C796 C795 1.523 . S
H797 C772 0.950 . S
H798 C774 0.950 . S
H799 C775 0.949 . S
H800 C777 0.950 . S
H801 C779 0.950 . S
C802 C803 1.349 . S
C802 C804 1.327 . S
C802 H827 0.950 . S
C803 C802 1.349 . S
C803 C819 1.349 . S
C804 C802 1.327 . S
C804 C823 1.429 . S
C804 H828 0.950 . S
C805 C822 1.574 . S
C805 C824 1.368 . S
C805 H829 0.949 . S
H806 C810 0.949 . S
C807 C808 1.349 . S
C807 C809 1.327 . S
C807 H830 0.950 . S
C808 C807 1.349 . S
C808 C820 1.349 . S
C809 C807 1.327 . S
C809 C825 1.429 . S
C809 H831 0.950 . S
C810 H806 0.949 . S
C810 C818 1.574 . S
C810 C826 1.368 . S
H811 C819 0.950 . S
H812 C817 0.950 . S
H813 C818 0.949 . S
H814 C820 0.950 . S
H815 C821 0.950 . S
H816 C822 0.949 . S
C817 H812 0.950 . S
C817 C819 1.327 . S
C817 C823 1.429 . S
C818 C810 1.574 . S
C818 H813 0.949 . S
C818 C824 1.368 . S
C819 C803 1.349 . S
C819 H811 0.950 . S
C819 C817 1.327 . S
C820 C808 1.349 . S
C820 H814 0.950 . S
C820 C821 1.327 . S
C821 H815 0.950 . S
C821 C820 1.327 . S
C821 C825 1.429 . S
C822 C805 1.574 . S
C822 H816 0.949 . S
C822 C826 1.368 . S
C823 C804 1.429 . S
C823 C817 1.429 . S
C823 C824 1.523 . S
C824 C805 1.368 . S
C824 C818 1.368 . S
C824 C823 1.523 . S
C825 C809 1.429 . S
C825 C821 1.429 . S
C825 C826 1.523 . S
C826 C810 1.368 . S
C826 C822 1.368 . S
C826 C825 1.523 . S
H827 C802 0.950 . S
H828 C804 0.950 . S
H829 C805 0.949 . S
H830 C807 0.950 . S
H831 C809 0.950 . S
C832 C833 1.349 . S
C832 C834 1.327 . S
C832 H857 0.950 . S
C833 C832 1.349 . S
C833 C849 1.349 . S
C834 C832 1.327 . S
C834 C853 1.429 . S
C834 H858 0.950 . S
C835 C852 1.574 1_545 S
C835 C854 1.368 1_655 S
C835 H859 0.949 . S
H836 C840 0.949 . S
C837 C838 1.349 . S
C837 C839 1.327 . S
C837 H860 0.950 . S
C838 C837 1.349 . S
C838 C850 1.349 . S
C839 C837 1.327 . S
C839 C855 1.429 . S
C839 H861 0.950 . S
C840 H836 0.949 . S
C840 C848 1.574 1_565 S
C840 C856 1.368 1_455 S
H841 C849 0.950 1_655 S
H842 C847 0.950 . S
H843 C848 0.949 . S
H844 C850 0.950 1_455 S
H845 C851 0.950 . S
H846 C852 0.949 . S
C847 H842 0.950 . S
C847 C849 1.327 1_655 S
C847 C853 1.429 1_655 S
C848 C840 1.574 1_545 S
C848 H843 0.949 . S
C848 C854 1.368 . S
C849 C833 1.349 . S
C849 H841 0.950 1_455 S
C849 C847 1.327 1_455 S
C850 C838 1.349 . S
C850 H844 0.950 1_655 S
C850 C851 1.327 1_655 S
C851 H845 0.950 . S
C851 C850 1.327 1_455 S
C851 C855 1.429 1_455 S
C852 C835 1.574 1_565 S
C852 H846 0.949 . S
C852 C856 1.368 . S
C853 C834 1.429 . S
C853 C847 1.429 1_455 S
C853 C854 1.523 . S
C854 C835 1.368 1_455 S
C854 C848 1.368 . S
C854 C853 1.523 . S
C855 C839 1.429 . S
C855 C851 1.429 1_655 S
C855 C856 1.523 . S
C856 C840 1.368 1_655 S
C856 C852 1.368 . S
C856 C855 1.523 . S
H857 C832 0.950 . S
H858 C834 0.950 . S
H859 C835 0.949 . S
H860 C837 0.950 . S
H861 C839 0.950 . S
C862 C863 1.349 . S
C862 C864 1.327 1_565 S
C862 H887 0.950 1_565 S
C863 C862 1.349 . S
C863 C879 1.349 . S
C864 C862 1.327 1_545 S
C864 C883 1.429 1_545 S
C864 H888 0.950 . S
C865 C882 1.574 1_455 S
C865 C884 1.368 . S
C865 H889 0.949 . S
H866 C870 0.949 . S
C867 C868 1.349 . S
C867 C869 1.327 1_545 S
C867 H890 0.950 1_545 S
C868 C867 1.349 . S
C868 C880 1.349 . S
C869 C867 1.327 1_565 S
C869 C885 1.429 1_565 S
C869 H891 0.950 . S
C870 H866 0.949 . S
C870 C878 1.574 1_655 S
C870 C886 1.368 . S
H871 C879 0.950 . S
H872 C877 0.950 . S
H873 C878 0.949 . S
H874 C880 0.950 . S
H875 C881 0.950 . S
H876 C882 0.949 . S
C877 H872 0.950 . S
C877 C879 1.327 . S
C877 C883 1.429 . S
C878 C870 1.574 1_455 S
C878 H873 0.949 . S
C878 C884 1.368 1_545 S
C879 C863 1.349 . S
C879 H871 0.950 . S
C879 C877 1.327 . S
C880 C868 1.349 . S
C880 H874 0.950 . S
C880 C881 1.327 . S
C881 H875 0.950 . S
C881 C880 1.327 . S
C881 C885 1.429 . S
C882 C865 1.574 1_655 S
C882 H876 0.949 . S
C882 C886 1.368 1_565 S
C883 C864 1.429 1_565 S
C883 C877 1.429 . S
C883 C884 1.523 . S
C884 C865 1.368 . S
C884 C878 1.368 1_565 S
C884 C883 1.523 . S
C885 C869 1.429 1_545 S
C885 C881 1.429 . S
C885 C886 1.523 . S
C886 C870 1.368 . S
C886 C882 1.368 1_545 S
C886 C885 1.523 . S
H887 C862 0.950 1_545 S
H888 C864 0.950 . S
H889 C865 0.949 . S
H890 C867 0.950 1_565 S
H891 C869 0.950 . S
C892 C893 1.349 . S
C892 C894 1.327 . S
C892 H917 0.950 . S
C893 C892 1.349 . S
C893 C909 1.349 . S
C894 C892 1.327 . S
C894 C913 1.429 . S
C894 H918 0.950 . S
C895 C912 1.574 1_545 S
C895 C914 1.368 1_455 S
C895 H919 0.949 . S
H896 C900 0.949 . S
C897 C898 1.349 . S
C897 C899 1.327 . S
C897 H920 0.950 . S
C898 C897 1.349 . S
C898 C910 1.349 . S
C899 C897 1.327 . S
C899 C915 1.429 . S
C899 H921 0.950 . S
C900 H896 0.949 . S
C900 C908 1.574 1_565 S
C900 C916 1.368 1_655 S
H901 C909 0.950 1_455 S
H902 C907 0.950 . S
H903 C908 0.949 . S
H904 C910 0.950 1_655 S
H905 C911 0.950 . S
H906 C912 0.949 . S
C907 H902 0.950 . S
C907 C909 1.327 1_455 S
C907 C913 1.429 1_455 S
C908 C900 1.574 1_545 S
C908 H903 0.949 . S
C908 C914 1.368 . S
C909 C893 1.349 . S
C909 H901 0.950 1_655 S
C909 C907 1.327 1_655 S
C910 C898 1.349 . S
C910 H904 0.950 1_455 S
C910 C911 1.327 1_455 S
C911 H905 0.950 . S
C911 C910 1.327 1_655 S
C911 C915 1.429 1_655 S
C912 C895 1.574 1_565 S
C912 H906 0.949 . S
C912 C916 1.368 . S
C913 C894 1.429 . S
C913 C907 1.429 1_655 S
C913 C914 1.523 . S
C914 C895 1.368 1_655 S
C914 C908 1.368 . S
C914 C913 1.523 . S
C915 C899 1.429 . S
C915 C911 1.429 1_455 S
C915 C916 1.523 . S
C916 C900 1.368 1_455 S
C916 C912 1.368 . S
C916 C915 1.523 . S
H917 C892 0.950 . S
H918 C894 0.950 . S
H919 C895 0.949 . S
H920 C897 0.950 . S
H921 C899 0.950 . S
C922 C923 1.349 . S
C922 C924 1.327 . S
C922 H947 0.950 . S
C923 C922 1.349 . S
C923 C939 1.349 . S
C924 C922 1.327 . S
C924 C943 1.429 . S
C924 H948 0.950 . S
C925 C942 1.574 1_655 S
C925 C944 1.368 1_545 S
C925 H949 0.949 . S
H926 C930 0.949 . S
C927 C928 1.349 . S
C927 C929 1.327 . S
C927 H950 0.950 . S
C928 C927 1.349 . S
C928 C940 1.349 . S
C929 C927 1.327 . S
C929 C945 1.429 . S
C929 H951 0.950 . S
C930 H926 0.949 . S
C930 C938 1.574 1_455 S
C930 C946 1.368 1_565 S
H931 C939 0.950 1_545 S
H932 C937 0.950 . S
H933 C938 0.949 . S
H934 C940 0.950 1_565 S
H935 C941 0.950 . S
H936 C942 0.949 . S
C937 H932 0.950 . S
C937 C939 1.327 1_545 S
C937 C943 1.429 1_545 S
C938 C930 1.574 1_655 S
C938 H933 0.949 . S
C938 C944 1.368 . S
C939 C923 1.349 . S
C939 H931 0.950 1_565 S
C939 C937 1.327 1_565 S
C940 C928 1.349 . S
C940 H934 0.950 1_545 S
C940 C941 1.327 1_545 S
C941 H935 0.950 . S
C941 C940 1.327 1_565 S
C941 C945 1.429 1_565 S
C942 C925 1.574 1_455 S
C942 H936 0.949 . S
C942 C946 1.368 . S
C943 C924 1.429 . S
C943 C937 1.429 1_565 S
C943 C944 1.523 . S
C944 C925 1.368 1_565 S
C944 C938 1.368 . S
C944 C943 1.523 . S
C945 C929 1.429 . S
C945 C941 1.429 1_545 S
C945 C946 1.523 . S
C946 C930 1.368 1_545 S
C946 C942 1.368 . S
C946 C945 1.523 . S
H947 C922 0.950 . S
H948 C924 0.950 . S
H949 C925 0.949 . S
H950 C927 0.950 . S
H951 C929 0.950 . S
C473 C5 1.316 . S
C478 C123 1.316 . S
C503 C182 1.316 . S
C508 C64 1.316 . S
C533 C359 1.316 . S
C538 C241 1.316 . S
C563 C300 1.316 . S
C568 C418 1.316 . S
C593 C357 1.465 . S
C598 C3 1.465 . S
C623 C62 1.465 . S
C628 C416 1.465 . S
C653 C121 1.465 . S
C658 C239 1.465 . S
C683 C298 1.465 . S
C688 C180 1.465 . S
C713 C33 1.277 . S
C718 C328 1.277 . S
C743 C387 1.277 . S
C748 C92 1.277 . S
C773 C446 1.277 . S
C778 C151 1.277 . S
C803 C210 1.277 . S
C808 C269 1.277 . S
C833 C52 0.805 . S
C838 C170 0.805 . S
C863 C229 0.805 . S
C868 C111 0.805 . S
C893 C406 0.805 . S
C898 C288 0.805 . S
C923 C465 0.805 . S
C928 C347 0.805 . S
