# Generated by pormake.
# Topology sve, (7)-cn, num edge types: 1
# Building blocks:
#     Node 0, Type 0, BuildingBlock: HICVOG_clean_sbu_0, # of connection points: 7
#     Node 1, Type 0, BuildingBlock: HICVOG_clean_sbu_0, # of connection points: 7
#     Node 2, Type 0, BuildingBlock: HICVOG_clean_sbu_0, # of connection points: 7
#     Node 3, Type 0, BuildingBlock: HICVOG_clean_sbu_0, # of connection points: 7
#     Edge 4, Type (0, 0), BuildingBlock: TEMPAE_clean_linker_10, # of connection points: 2
#     Edge 5, Type (0, 0), BuildingBlock: TEMPAE_clean_linker_10, # of connection points: 2
#     Edge 6, Type (0, 0), BuildingBlock: TEMPAE_clean_linker_10, # of connection points: 2
#     Edge 7, Type (0, 0), BuildingBlock: TEMPAE_clean_linker_10, # of connection points: 2
#     Edge 8, Type (0, 0), BuildingBlock: TEMPAE_clean_linker_10, # of connection points: 2
#     Edge 9, Type (0, 0), BuildingBlock: TEMPAE_clean_linker_10, # of connection points: 2
#     Edge 10, Type (0, 0), BuildingBlock: TEMPAE_clean_linker_10, # of connection points: 2
#     Edge 11, Type (0, 0), BuildingBlock: TEMPAE_clean_linker_10, # of connection points: 2
#     Edge 12, Type (0, 0), BuildingBlock: TEMPAE_clean_linker_10, # of connection points: 2
#     Edge 13, Type (0, 0), BuildingBlock: TEMPAE_clean_linker_10, # of connection points: 2
#     Edge 14, Type (0, 0), BuildingBlock: TEMPAE_clean_linker_10, # of connection points: 2
#     Edge 15, Type (0, 0), BuildingBlock: TEMPAE_clean_linker_10, # of connection points: 2
#     Edge 16, Type (0, 0), BuildingBlock: TEMPAE_clean_linker_10, # of connection points: 2
#     Edge 17, Type (0, 0), BuildingBlock: TEMPAE_clean_linker_10, # of connection points: 2
# Relax obj value: 0.267
# Max RMSD: 0.295
# Mean RMSD: 0.258
data_MOF--net-sve--node1-HICVOG_clean_sbu_0--edge1-TEMPAE_clean_linker_10
_symmetry_space_group_name_H-M    P1
_symmetry_Int_Tables_number       1
_symmetry_cell_setting            triclinic
loop_
_symmetry_equiv_pos_as_xyz
'x, y, z'
_cell_length_a     31.76068
_cell_length_b     28.358554
_cell_length_c     20.634495
_cell_angle_alpha  96.491906
_cell_angle_beta   84.154755
_cell_angle_gamma 90.110896
loop_
_atom_site_label
_atom_site_type_symbol
_atom_site_fract_x
_atom_site_fract_y
_atom_site_fract_z
_atom_type_partial_charge
Zn0 Zn 0.16656 0.30051 0.16062 0.0
C1 C 0.09643 0.38661 0.08578 0.0
N2 N 0.06408 0.36644 0.119 0.0
C3 C 0.08143 0.32651 0.13436 0.0
N4 N 0.123 0.32261 0.11123 0.0
N5 N 0.1319 0.35995 0.0793 0.0
C6 C 0.22739 0.44691 0.03377 0.0
O7 O 0.24863 0.41762 0.06351 0.0
O8 O 0.14974 0.24347 0.20563 0.0
Zn9 Zn 0.17878 0.36329 0.01221 0.0
N10 N 0.17674 0.3514 0.22821 0.0
C11 C 0.19899 0.43073 0.25529 0.0
C12 C 0.18922 0.39387 0.20876 0.0
C13 C 0.17284 0.34447 0.2928 0.0
N14 N 0.19575 0.42368 0.31961 0.0
C15 C 0.18262 0.38157 0.34007 0.0
O16 O 0.23161 0.32596 0.02394 0.0
C17 C 0.24635 0.2967 0.05857 0.0
O18 O 0.2242 0.28358 0.10839 0.0
H19 H 0.19188 0.39883 0.15742 0.0
H20 H 0.16326 0.31013 0.30693 0.0
C21 C 0.16759 0.35044 0.87145 0.0
C22 C 0.15623 0.32266 0.81495 0.0
C23 C 0.12874 0.26416 0.88092 0.0
C24 C 0.14056 0.29128 0.9365 0.0
N25 N 0.15985 0.33367 0.93091 0.0
N26 N 0.1372 0.2802 0.82157 0.0
H27 H 0.18372 0.38385 0.86792 0.0
C28 C 0.14294 0.20475 0.17146 0.0
O29 O 0.13895 0.2055 0.10888 0.0
O30 O 0.19512 0.43175 0.00627 0.0
H31 H 0.1353 0.27813 0.98378 0.0
H32 H 0.20929 0.46461 0.24037 0.0
H33 H 0.11362 0.23023 0.88472 0.0
Zn34 Zn 0.7185 0.18703 0.07441 0.0
C35 C 0.65605 0.09741 0.95371 0.0
N36 N 0.68103 0.06384 0.9707 0.0
C37 C 0.70778 0.0891 0.00703 0.0
N38 N 0.69943 0.1364 0.01254 0.0
N39 N 0.66659 0.14136 0.97864 0.0
C40 C 0.56314 0.23202 0.98676 0.0
O41 O 0.58502 0.25945 0.02635 0.0
O42 O 0.7785 0.17668 0.09985 0.0
Zn43 Zn 0.64876 0.19687 0.93925 0.0
N44 N 0.67568 0.19136 0.1488 0.0
C45 C 0.60168 0.20107 0.17938 0.0
C46 C 0.63621 0.19896 0.13201 0.0
C47 C 0.68224 0.18609 0.21184 0.0
N48 N 0.60797 0.19561 0.24208 0.0
C49 C 0.64727 0.18833 0.26023 0.0
O50 O 0.67367 0.26092 0.97036 0.0
C51 C 0.7017 0.27816 0.00603 0.0
O52 O 0.71988 0.25267 0.04223 0.0
H53 H 0.63171 0.20283 0.08173 0.0
H54 H 0.71395 0.17929 0.22356 0.0
C55 C 0.65945 0.18224 0.7926 0.0
C56 C 0.68576 0.16937 0.73389 0.0
C57 C 0.7441 0.16161 0.79528 0.0
C58 C 0.71832 0.17471 0.8529 0.0
N59 N 0.67651 0.18402 0.85088 0.0
N60 N 0.72726 0.15916 0.73737 0.0
H61 H 0.62612 0.1899 0.79204 0.0
C62 C 0.8078 0.19211 0.06097 0.0
O63 O 0.79757 0.20675 0.00641 0.0
O64 O 0.58325 0.20254 0.94313 0.0
H65 H 0.73146 0.17697 0.89946 0.0
H66 H 0.57007 0.20684 0.16645 0.0
H67 H 0.77727 0.15355 0.79644 0.0
Zn68 Zn 0.87637 0.70436 0.10453 0.0
C69 C 0.84709 0.58753 0.99077 0.0
N70 N 0.88394 0.5709 0.00626 0.0
C71 C 0.90082 0.60936 0.0373 0.0
N72 N 0.87528 0.64772 0.04215 0.0
N73 N 0.84196 0.6346 0.01092 0.0
C74 C 0.73295 0.66276 0.96235 0.0
O75 O 0.73676 0.66443 0.02533 0.0
O76 O 0.93499 0.71865 0.1298 0.0
Zn77 Zn 0.82251 0.67832 0.95346 0.0
N78 N 0.83818 0.6936 0.18031 0.0
C79 C 0.76606 0.68584 0.22136 0.0
C80 C 0.79675 0.69058 0.1694 0.0
C81 C 0.85045 0.69145 0.24127 0.0
N82 N 0.77803 0.68462 0.2824 0.0
C83 C 0.81945 0.68711 0.2941 0.0
O84 O 0.81752 0.74823 0.9912 0.0
C85 C 0.83159 0.77821 0.03441 0.0
O86 O 0.85515 0.76517 0.07554 0.0
H87 H 0.78773 0.69266 0.12068 0.0
H88 H 0.88362 0.69461 0.24876 0.0
C89 C 0.85194 0.67616 0.81517 0.0
C90 C 0.88319 0.6782 0.76203 0.0
C91 C 0.93632 0.67879 0.83501 0.0
C92 C 0.90529 0.67713 0.88742 0.0
N93 N 0.86378 0.67611 0.87681 0.0
N94 N 0.9246 0.67967 0.77377 0.0
H95 H 0.81865 0.67614 0.80799 0.0
C96 C 0.9618 0.72892 0.08367 0.0
O97 O 0.95039 0.72706 0.02409 0.0
O98 O 0.76604 0.66274 0.92239 0.0
H99 H 0.91418 0.67737 0.93636 0.0
H100 H 0.73293 0.68373 0.21345 0.0
H101 H 0.96947 0.67991 0.84301 0.0
Zn102 Zn 0.37831 0.84685 0.91686 0.0
C103 C 0.34046 0.96747 0.02331 0.0
N104 N 0.36672 0.98639 0.97819 0.0
C105 C 0.38781 0.94844 0.94605 0.0
N106 N 0.37464 0.9079 0.97003 0.0
N107 N 0.34519 0.91986 0.0193 0.0
C108 C 0.23941 0.89152 0.08958 0.0
O109 O 0.24982 0.90284 0.03011 0.0
O110 O 0.43814 0.82781 0.88448 0.0
Zn111 Zn 0.3292 0.87992 0.08801 0.0
N112 N 0.34227 0.85263 0.84908 0.0
C113 C 0.27047 0.85702 0.82696 0.0
C114 C 0.30039 0.85118 0.87014 0.0
C115 C 0.35576 0.85964 0.7863 0.0
N116 N 0.28369 0.86404 0.76429 0.0
C117 C 0.32555 0.8654 0.7423 0.0
O118 O 0.32903 0.81053 0.06078 0.0
C119 C 0.33744 0.77934 0.01232 0.0
O120 O 0.35502 0.79019 0.95816 0.0
H121 H 0.29044 0.84597 0.92051 0.0
H122 H 0.38934 0.8617 0.77165 0.0
C123 C 0.35844 0.88819 0.21692 0.0
C124 C 0.38857 0.89892 0.26176 0.0
C125 C 0.43821 0.91755 0.17464 0.0
C126 C 0.40839 0.90664 0.13048 0.0
N127 N 0.3691 0.89242 0.1524 0.0
N128 N 0.42763 0.91357 0.23909 0.0
H129 H 0.32667 0.87756 0.23287 0.0
C130 C 0.45862 0.82024 0.93213 0.0
O131 O 0.44026 0.82918 0.99226 0.0
O132 O 0.26834 0.88609 0.12632 0.0
H133 H 0.41645 0.90985 0.07912 0.0
H134 H 0.23701 0.85615 0.84307 0.0
H135 H 0.46951 0.92917 0.1579 0.0
C136 C 0.05778 0.43338 0.01813 0.0
C137 C 0.0906 0.43124 0.0579 0.0
C138 C 0.03753 0.4765 0.01359 0.0
C139 C 0.05052 0.51851 0.05008 0.0
C140 C 0.08756 0.51741 0.08287 0.0
C141 C 0.10707 0.47341 0.08697 0.0
C142 C 0.9989 0.47575 0.97633 0.0
C143 C 0.10412 0.56149 0.11938 0.0
C144 C 0.97826 0.61462 0.01454 0.0
C145 C 0.94324 0.60732 0.05929 0.0
C146 C 0.01706 0.59143 0.01699 0.0
C147 C 0.02004 0.55925 0.06398 0.0
C148 C 0.98671 0.55758 0.11498 0.0
C149 C 0.94851 0.58157 0.11175 0.0
C150 C 0.05265 0.5965 0.96411 0.0
C151 C 0.98892 0.52498 0.16753 0.0
H152 H 0.0451 0.40057 0.99593 0.0
H153 H 0.13238 0.47166 0.1182 0.0
H154 H 0.97002 0.4815 0.01148 0.0
H155 H 1.00027 0.50466 0.94426 0.0
H156 H 0.99573 0.44146 0.94544 0.0
H157 H 0.13908 0.55935 0.11904 0.0
H158 H 0.09577 0.59404 0.09813 0.0
H159 H 0.0902 0.56459 0.17124 0.0
H160 H 0.97412 0.6341 0.97333 0.0
H161 H 0.92126 0.57562 0.14594 0.0
H162 H 0.0508 0.56762 0.92351 0.0
H163 H 0.08391 0.59372 0.98308 0.0
H164 H 0.05051 0.63094 0.94374 0.0
H165 H 0.98529 0.48768 0.14602 0.0
H166 H 0.96359 0.53308 0.20855 0.0
H167 H 0.02006 0.52783 0.18749 0.0
C168 C 0.57805 0.09818 0.9579 0.0
C169 C 0.61708 0.08478 0.92322 0.0
C170 C 0.5409 0.07442 0.94272 0.0
C171 C 0.54309 0.03613 0.89177 0.0
C172 C 0.5819 0.02546 0.85279 0.0
C173 C 0.61862 0.04959 0.86957 0.0
C174 C 0.50024 0.08696 0.98588 0.0
C175 C 0.58561 0.9858 0.79723 0.0
C176 C 0.46539 0.94193 0.93882 0.0
C177 C 0.42962 0.95532 0.91073 0.0
C178 C 0.50398 0.96538 0.92825 0.0
C179 C 0.50684 1.00281 0.88799 0.0
C180 C 0.4722 1.01266 0.85348 0.0
C181 C 0.43372 0.98905 0.86581 0.0
C182 C 0.54015 0.95372 0.96614 0.0
C183 C 0.47465 0.05103 0.80826 0.0
H184 H 0.57714 0.12408 1.00093 0.0
H185 H 0.64904 0.03877 0.84339 0.0
H186 H 0.4741 0.09211 0.95554 0.0
H187 H 0.49129 0.05737 0.01528 0.0
H188 H 0.50316 0.11972 0.02008 0.0
H189 H 0.61349 0.99059 0.76152 0.0
H190 H 0.58961 0.95155 0.81719 0.0
H191 H 0.55672 0.98343 0.77104 0.0
H192 H 0.46199 0.91747 0.97555 0.0
H193 H 0.40585 0.99996 0.84484 0.0
H194 H 0.54763 0.98514 1.00006 0.0
H195 H 0.56894 0.94451 0.93198 0.0
H196 H 0.53281 0.92377 0.99551 0.0
H197 H 0.47758 0.08614 0.83703 0.0
H198 H 0.4463 0.05173 0.78098 0.0
H199 H 0.50329 0.04572 0.77258 0.0
C200 C 0.14575 0.35195 0.44094 0.0
C201 C 0.17987 0.37567 0.41092 0.0
C202 C 0.14278 0.34695 0.50825 0.0
C203 C 0.17517 0.36522 0.54621 0.0
C204 C 0.20963 0.38932 0.5161 0.0
C205 C 0.21126 0.39479 0.44903 0.0
C206 C 0.10505 0.32189 0.53869 0.0
C207 C 0.2453 0.40829 0.55435 0.0
C208 C 0.15106 0.38034 0.73241 0.0
C209 C 0.16552 0.33686 0.74824 0.0
C210 C 0.15457 0.39056 0.66686 0.0
C211 C 0.17388 0.35692 0.61653 0.0
C212 C 0.19032 0.31398 0.63307 0.0
C213 C 0.18533 0.30419 0.69853 0.0
C214 C 0.13589 0.4363 0.65112 0.0
C215 C 0.21215 0.2777 0.58136 0.0
H216 H 0.12097 0.33794 0.41199 0.0
H217 H 0.2377 0.41312 0.42594 0.0
H218 H 0.11559 0.28887 0.55662 0.0
H219 H 0.08951 0.34473 0.58166 0.0
H220 H 0.08131 0.31247 0.5035 0.0
H221 H 0.26934 0.4271 0.52408 0.0
H222 H 0.23271 0.43309 0.59736 0.0
H223 H 0.26113 0.3786 0.57333 0.0
H224 H 0.1352 0.40529 0.77081 0.0
H225 H 0.19653 0.27056 0.71092 0.0
H226 H 0.10927 0.42824 0.62084 0.0
H227 H 0.15983 0.45585 0.6219 0.0
H228 H 0.12395 0.45977 0.696 0.0
H229 H 0.18908 0.26262 0.54794 0.0
H230 H 0.22638 0.24812 0.60299 0.0
H231 H 0.23745 0.29474 0.5512 0.0
C232 C 0.61862 0.16131 0.36683 0.0
C233 C 0.65142 0.18267 0.32995 0.0
C234 C 0.62028 0.15752 0.43373 0.0
C235 C 0.65535 0.17613 0.46489 0.0
C236 C 0.68857 0.19784 0.42805 0.0
C237 C 0.68631 0.20068 0.36093 0.0
C238 C 0.58459 0.13343 0.471 0.0
C239 C 0.72637 0.21843 0.45972 0.0
C240 C 0.64768 0.20518 0.65048 0.0
C241 C 0.67091 0.16752 0.66808 0.0
C242 C 0.64124 0.20786 0.58452 0.0
C243 C 0.65801 0.17172 0.53559 0.0
C244 C 0.6793 0.1323 0.5539 0.0
C245 C 0.68579 0.13092 0.61981 0.0
C246 C 0.61856 0.25058 0.56681 0.0
C247 C 0.69694 0.09258 0.50354 0.0
H248 H 0.59158 0.14722 0.34316 0.0
H249 H 0.71134 0.21814 0.33323 0.0
H250 H 0.59707 0.10256 0.49191 0.0
H251 H 0.57009 0.15825 0.51267 0.0
H252 H 0.55951 0.12089 0.43955 0.0
H253 H 0.74905 0.23507 0.42467 0.0
H254 H 0.71574 0.24557 0.50119 0.0
H255 H 0.74325 0.19017 0.48011 0.0
H256 H 0.63676 0.23389 0.68756 0.0
H257 H 0.70375 0.10174 0.63347 0.0
H258 H 0.59284 0.23925 0.5361 0.0
H259 H 0.64106 0.27175 0.53743 0.0
H260 H 0.60478 0.27376 0.61085 0.0
H261 H 0.67216 0.07897 0.47226 0.0
H262 H 0.70938 0.06258 0.52648 0.0
H263 H 0.72301 0.10618 0.47095 0.0
C264 C 0.80535 0.71314 0.41363 0.0
C265 C 0.83023 0.68675 0.36215 0.0
C266 C 0.81371 0.71242 0.47897 0.0
C267 C 0.84703 0.68348 0.49337 0.0
C268 C 0.87207 0.65637 0.44153 0.0
C269 C 0.86368 0.65878 0.37636 0.0
C270 C 0.78701 0.74281 0.53257 0.0
C271 C 0.90725 0.62429 0.45501 0.0
C272 C 0.89424 0.71155 0.65512 0.0
C273 C 0.87247 0.68025 0.69426 0.0
C274 C 0.8859 0.71336 0.58996 0.0
C275 C 0.8559 0.6821 0.56266 0.0
C276 C 0.83405 0.65007 0.60184 0.0
C277 C 0.84223 0.64992 0.66752 0.0
C278 C 0.90902 0.74892 0.55047 0.0
C279 C 0.80251 0.61549 0.57409 0.0
H280 H 0.77954 0.7349 0.40262 0.0
H281 H 0.88251 0.63774 0.33667 0.0
H282 H 0.7703 0.72011 0.56712 0.0
H283 H 0.80755 0.76709 0.56112 0.0
H284 H 0.76311 0.76438 0.51295 0.0
H285 H 0.92309 0.60466 0.40942 0.0
H286 H 0.93134 0.64541 0.48052 0.0
H287 H 0.89446 0.59822 0.48802 0.0
H288 H 0.91755 0.73513 0.67585 0.0
H289 H 0.82586 0.62515 0.69741 0.0
H290 H 0.8859 0.77213 0.53209 0.0
H291 H 0.92796 0.73021 0.50705 0.0
H292 H 0.93052 0.77159 0.57955 0.0
H293 H 0.77618 0.63504 0.55734 0.0
H294 H 0.78904 0.59205 0.61047 0.0
H295 H 0.81794 0.59303 0.53067 0.0
C296 C 0.3114 0.90121 0.64201 0.0
C297 C 0.33757 0.87313 0.67319 0.0
C298 C 0.3201 0.90677 0.57544 0.0
C299 C 0.35563 0.88328 0.53902 0.0
C300 C 0.38256 0.85536 0.57027 0.0
C301 C 0.37324 0.85066 0.63716 0.0
C302 C 0.29091 0.93721 0.54387 0.0
C303 C 0.42058 0.82955 0.53268 0.0
C304 C 0.35301 0.85914 0.35496 0.0
C305 C 0.37903 0.89519 0.33263 0.0
C306 C 0.34534 0.85469 0.42211 0.0
C307 C 0.364 0.88716 0.46782 0.0
C308 C 0.39017 0.92368 0.44561 0.0
C309 C 0.39757 0.92707 0.3782 0.0
C310 C 0.31751 0.81504 0.44413 0.0
C311 C 0.41022 0.95923 0.49304 0.0
H312 H 0.28389 0.91881 0.66976 0.0
H313 H 0.39312 0.82812 0.66056 0.0
H314 H 0.30921 0.96522 0.52041 0.0
H315 H 0.27595 0.91521 0.50472 0.0
H316 H 0.2655 0.95444 0.57969 0.0
H317 H 0.43904 0.81041 0.56465 0.0
H318 H 0.41016 0.80351 0.49336 0.0
H319 H 0.44174 0.85499 0.5086 0.0
H320 H 0.33939 0.8337 0.31996 0.0
H321 H 0.41765 0.95504 0.36111 0.0
H322 H 0.28991 0.82998 0.47733 0.0
H323 H 0.33538 0.79223 0.47226 0.0
H324 H 0.30571 0.79253 0.40228 0.0
H325 H 0.3853 0.97852 0.52753 0.0
H326 H 0.42971 0.98556 0.46772 0.0
H327 H 0.43061 0.9406 0.52279 0.0
C328 C 0.14434 0.11672 0.16218 0.0
C329 C 0.15706 0.16018 0.19299 0.0
C330 C 0.17023 0.07633 0.15844 0.0
C331 C 0.21028 0.08092 0.18279 0.0
C332 C 0.21912 0.12196 0.22453 0.0
C333 C 0.19182 0.16125 0.23005 0.0
C334 C 0.15807 0.03118 0.11916 0.0
C335 C 0.26073 0.12742 0.25373 0.0
C336 C 0.29557 0.98596 0.13124 0.0
C337 C 0.3096 0.99708 0.06836 0.0
C338 C 0.26266 1.01217 0.16975 0.0
C339 C 0.2461 0.05262 0.14636 0.0
C340 C 0.26345 0.06662 0.08543 0.0
C341 C 0.29419 0.03809 0.04679 0.0
C342 C 0.24633 0.99609 0.23482 0.0
C343 C 0.24907 0.11127 0.05986 0.0
H344 H 0.11666 0.11542 0.13531 0.0
H345 H 0.20121 0.19455 0.25554 0.0
H346 H 0.17226 0.03071 0.06765 0.0
H347 H 0.17018 0.99966 0.13915 0.0
H348 H 0.12317 0.02853 0.11901 0.0
H349 H 0.25988 0.15758 0.29322 0.0
H350 H 0.26903 0.09448 0.27401 0.0
H351 H 0.28612 0.134 0.21476 0.0
H352 H 0.31005 0.95687 0.1504 0.0
H353 H 0.30578 0.04773 0.99882 0.0
H354 H 0.21451 1.0108 0.25354 0.0
H355 H 0.26876 1.0074 0.27133 0.0
H356 H 0.2449 0.95674 0.23083 0.0
H357 H 0.21637 0.10666 0.0459 0.0
H358 H 0.26975 0.11998 0.01616 0.0
H359 H 0.24893 0.14201 0.09824 0.0
C360 C 0.01797 0.29651 0.19536 0.0
C361 C 0.05284 0.28683 0.14832 0.0
C362 C 0.97973 0.27189 0.19023 0.0
C363 C 0.97645 0.23614 0.13716 0.0
C364 C 1.01337 0.22196 0.09487 0.0
C365 C 0.05089 0.24808 0.10015 0.0
C366 C 0.94145 0.28887 0.23629 0.0
C367 C 1.01198 0.18316 0.03878 0.0
C368 C 0.86934 0.17449 0.12402 0.0
C369 C 0.85133 0.20095 0.08013 0.0
C370 C 0.91058 0.18431 0.14186 0.0
C371 C 0.93363 0.22244 0.11694 0.0
C372 C 0.91522 0.2493 0.07299 0.0
C373 C 0.87481 0.23781 0.0546 0.0
C374 C 0.92945 0.154 0.18726 0.0
C375 C 0.93789 0.29095 0.04601 0.0
H376 H 0.01898 0.3271 0.23182 0.0
H377 H 0.07679 0.24163 0.06174 0.0
H378 H 0.92165 0.31182 0.21114 0.0
H379 H 0.92173 0.25865 0.25038 0.0
H380 H 0.95052 0.30982 0.28149 0.0
H381 H 0.04409 0.16855 0.02137 0.0
H382 H 0.99116 0.15386 0.05331 0.0
H383 H 0.99896 0.19779 0.99723 0.0
H384 H 0.85145 0.14583 0.14373 0.0
H385 H 0.86104 0.25884 0.02125 0.0
H386 H 0.93392 0.17564 0.23424 0.0
H387 H 0.96114 0.14057 0.16538 0.0
H388 H 0.90913 0.12331 0.19788 0.0
H389 H 0.94588 0.31726 0.08684 0.0
H390 H 0.91861 0.3091 0.01406 0.0
H391 H 0.96802 0.27881 0.01703 0.0
C392 C 0.78895 0.84416 0.9997 0.0
C393 C 0.81957 0.82954 0.03793 0.0
C394 C 0.77638 0.89209 0.00382 0.0
C395 C 0.79497 0.92681 0.04693 0.0
C396 C 0.82624 0.91246 0.08513 0.0
C397 C 0.83802 0.86414 0.08039 0.0
C398 C 0.7427 0.90549 0.96235 0.0
C399 C 0.84698 0.94812 0.13146 0.0
C400 C 0.77791 0.0511 1.0009 0.0
C401 C 0.73949 0.06402 0.03824 0.0
C402 C 0.79879 1.00832 0.00745 0.0
C403 C 0.78065 0.97769 0.05227 0.0
C404 C 0.74459 0.99352 0.09544 0.0
C405 C 0.72447 0.03646 0.08781 0.0
C406 C 0.83754 0.99358 0.96113 0.0
C407 C 0.72425 0.96267 0.14459 0.0
H408 H 0.77429 0.81798 0.96692 0.0
H409 H 0.86177 0.8535 0.11017 0.0
H410 H 0.71512 0.92178 0.99435 0.0
H411 H 0.75516 0.93231 0.93032 0.0
H412 H 0.73155 0.87446 0.93101 0.0
H413 H 0.8719 0.9317 0.15593 0.0
H414 H 0.86138 0.97685 0.10453 0.0
H415 H 0.82282 0.96491 0.16967 0.0
H416 H 0.78909 0.07163 0.96141 0.0
H417 H 0.69422 0.0457 0.1157 0.0
H418 H 0.82846 0.96702 0.92135 0.0
H419 H 0.86151 0.97672 0.98684 0.0
H420 H 0.85216 0.02422 0.93851 0.0
H421 H 0.70697 0.9335 0.11855 0.0
H422 H 0.7014 0.98304 0.18168 0.0
H423 H 0.7485 0.94626 0.17024 0.0
C424 C 1.00844 0.77763 0.15456 0.0
C425 C 1.00365 0.74776 0.09695 0.0
C426 C 0.04646 0.80197 0.16262 0.0
C427 C 0.08056 0.79515 0.11255 0.0
C428 C 0.07665 0.76246 0.05632 0.0
C429 C 0.03796 0.73973 0.04874 0.0
C430 C 0.04939 0.83675 0.22297 0.0
C431 C 0.11279 0.75283 1.00292 0.0
C432 C 0.16192 0.88973 0.07971 0.0
C433 C 0.19692 0.87264 0.10622 0.0
C434 C 0.12291 0.86648 0.08535 0.0
C435 C 0.11938 0.8243 0.11635 0.0
C436 C 0.15423 0.80802 0.14557 0.0
C437 C 0.19248 0.83279 0.14086 0.0
C438 C 0.08614 0.88566 0.05503 0.0
C439 C 0.15226 0.76257 0.17745 0.0
H440 H 0.98173 0.78402 0.19166 0.0
H441 H 0.03425 0.71628 0.00444 0.0
H442 H 0.07813 0.82945 0.24668 0.0
H443 H 0.05223 0.87328 0.20868 0.0
H444 H 0.02124 0.83548 0.25939 0.0
H445 H 0.10595 0.72307 0.96574 0.0
H446 H 0.11906 0.78509 0.9778 0.0
H447 H 0.14212 0.74417 0.02427 0.0
H448 H 0.16542 0.92049 0.05288 0.0
H449 H 0.21975 0.81898 0.16048 0.0
H450 H 0.05709 0.88729 0.09001 0.0
H451 H 0.07975 0.8615 0.01102 0.0
H452 H 0.09245 0.92165 0.04009 0.0
H453 H 0.12224 0.76047 0.20948 0.0
H454 H 0.1792 0.75909 0.20704 0.0
H455 H 0.15334 0.73187 0.13884 0.0
C456 C 0.82391 0.51359 0.92923 0.0
C457 C 0.81322 0.55348 0.97453 0.0
C458 C 0.80021 0.47164 0.92978 0.0
C459 C 0.76504 0.46914 0.97737 0.0
C460 C 0.75189 0.51075 0.01943 0.0
C461 C 0.7762 0.55241 0.01759 0.0
C462 C 0.8153 0.42867 0.8833 0.0
C463 C 0.71453 0.51013 0.07065 0.0
C464 C 0.69708 0.35738 0.96147 0.0
C465 C 0.71544 0.32846 1.00232 0.0
C466 C 0.7119 0.40366 0.95424 0.0
C467 C 0.74602 0.42175 0.98848 0.0
C468 C 0.76395 0.3932 0.03099 0.0
C469 C 0.74852 0.34718 0.03738 0.0
C470 C 0.69179 0.43271 0.90853 0.0
C471 C 0.80036 0.41078 0.0686 0.0
H472 H 0.85293 0.51394 0.89666 0.0
H473 H 0.76856 0.58242 0.05429 0.0
H474 H 0.82992 0.40272 0.91091 0.0
H475 H 0.78835 0.4109 0.86074 0.0
H476 H 0.83912 0.438 0.84364 0.0
H477 H 0.70368 0.54658 0.09076 0.0
H478 H 0.6877 0.4906 0.05013 0.0
H479 H 0.72368 0.49147 0.11163 0.0
H480 H 0.67152 0.34358 0.93408 0.0
H481 H 0.7631 0.32546 0.06907 0.0
H482 H 0.71511 0.43833 0.86635 0.0
H483 H 0.68236 0.46824 0.93402 0.0
H484 H 0.66349 0.41526 0.88945 0.0
H485 H 0.82831 0.41694 0.03381 0.0
H486 H 0.80955 0.38525 0.10185 0.0
H487 H 0.79183 0.44519 0.09819 0.0
C488 C 0.53065 0.8116 0.96515 0.0
C489 C 0.5008 0.79788 0.92153 0.0
C490 C 0.56914 0.78708 0.9617 0.0
C491 C 0.57692 0.7463 0.91562 0.0
C492 C 0.54711 0.73273 0.87056 0.0
C493 C 0.50956 0.75935 0.87329 0.0
C494 C 0.60083 0.80395 0.0089 0.0
C495 C 0.55375 0.68873 0.8221 0.0
C496 C 0.69117 0.70494 0.89082 0.0
C497 C 0.69201 0.67533 0.94077 0.0
C498 C 0.65336 0.72652 0.87944 0.0
C499 C 0.61538 0.71701 0.9176 0.0
C500 C 0.61551 0.68378 0.964 0.0
C501 C 0.65405 0.66395 0.97591 0.0
C502 C 0.65487 0.7627 0.8309 0.0
C503 C 0.57538 0.6715 0.00408 0.0
H504 H 0.52352 0.8411 1.00285 0.0
H505 H 0.48597 0.74834 0.84034 0.0
H506 H 0.60311 0.77792 0.04471 0.0
H507 H 0.63272 0.80667 0.98215 0.0
H508 H 0.59194 0.83907 0.03642 0.0
H509 H 0.52932 0.68522 0.787 0.0
H510 H 0.58544 0.68895 0.79407 0.0
H511 H 0.55254 0.65693 0.84901 0.0
H512 H 0.72057 0.71424 0.86394 0.0
H513 H 0.6547 0.64089 0.0143 0.0
H514 H 0.65134 0.79882 0.858 0.0
H515 H 0.62843 0.75765 0.79971 0.0
H516 H 0.68522 0.76099 0.79873 0.0
H517 H 0.56552 0.70188 0.04124 0.0
H518 H 0.57964 0.63982 0.02998 0.0
H519 H 0.54933 0.66468 0.97236 0.0
C520 C 0.2801 0.51036 0.05595 0.0
C521 C 0.24165 0.49649 0.032 0.0
C522 C 0.29497 0.55673 0.05387 0.0
C523 C 0.27076 0.59024 0.02732 0.0
C524 C 0.23147 0.57683 0.00414 0.0
C525 C 0.2174 0.52998 0.0066 0.0
C526 C 0.33682 0.56976 0.07963 0.0
C527 C 0.20457 0.61179 0.97613 0.0
C528 C 0.29539 0.72011 0.0724 0.0
C529 C 0.32195 0.73038 0.01714 0.0
C530 C 0.27788 0.67491 0.0759 0.0
C531 C 0.28723 0.639 0.02298 0.0
C532 C 0.31403 0.64901 0.96715 0.0
C533 C 0.33107 0.69457 0.96489 0.0
C534 C 0.24936 0.66563 0.13621 0.0
C535 C 0.32473 0.61153 0.9098 0.0
H536 H 0.299 0.48478 0.07588 0.0
H537 H 0.18745 0.51961 0.9886 0.0
H538 H 0.35929 0.58108 0.03969 0.0
H539 H 0.33241 0.60017 0.11862 0.0
H540 H 0.35134 0.53978 0.09999 0.0
H541 H 0.17413 0.59623 0.96249 0.0
H542 H 0.19761 0.64357 0.0122 0.0
H543 H 0.22215 0.62401 0.93192 0.0
H544 H 0.28768 0.74763 0.11278 0.0
H545 H 0.35132 0.70219 0.92187 0.0
H546 H 0.26253 0.63617 0.15926 0.0
H547 H 0.21769 0.65447 0.12233 0.0
H548 H 0.24536 0.69739 0.17317 0.0
H549 H 0.34139 0.58129 0.92607 0.0
H550 H 0.34511 0.62536 0.8693 0.0
H551 H 0.29526 0.5975 0.89051 0.0
C552 C 0.4907 0.20779 0.95325 0.0
C553 C 0.51581 0.23581 0.99449 0.0
C554 C 0.44606 0.21241 0.96075 0.0
C555 C 0.42586 0.24573 0.01085 0.0
C556 C 0.45113 0.27346 0.0531 0.0
C557 C 0.49545 0.26818 0.04446 0.0
C558 C 0.42058 0.18145 0.91518 0.0
C559 C 0.43136 0.30956 0.10699 0.0
C560 C 0.31844 0.30179 0.99655 0.0
C561 C 0.29133 0.27995 0.04224 0.0
C562 C 0.36169 0.28954 0.98402 0.0
C563 C 0.37874 0.25415 0.01741 0.0
C564 C 0.35121 0.23031 0.06127 0.0
C565 C 0.30804 0.24371 0.07356 0.0
C566 C 0.38952 0.31575 0.93652 0.0
C567 C 0.3676 0.19162 0.09684 0.0
H568 H 0.50589 0.1823 0.91492 0.0
H569 H 0.51423 0.28992 0.07703 0.0
H570 H 0.40419 0.15398 0.94239 0.0
H571 H 0.39595 0.20259 0.89669 0.0
H572 H 0.4408 0.16335 0.87259 0.0
H573 H 0.45518 0.32729 0.13708 0.0
H574 H 0.41433 0.33713 0.08539 0.0
H575 H 0.40776 0.29222 0.13973 0.0
H576 H 0.30616 0.3297 0.97172 0.0
H577 H 0.28752 0.22617 0.10845 0.0
H578 H 0.40724 0.29014 0.89893 0.0
H579 H 0.41316 0.33686 0.96314 0.0
H580 H 0.3711 0.34011 0.91133 0.0
H581 H 0.38664 0.16541 0.06186 0.0
H582 H 0.34158 0.17273 0.12304 0.0
H583 H 0.38869 0.20724 0.13311 0.0
loop_
_geom_bond_atom_site_label_1
_geom_bond_atom_site_label_2
_geom_bond_distance
_geom_bond_site_symmetry_2
_ccdc_geom_bond_type
Zn0 N4 2.020 . S
Zn0 O8 2.019 . S
Zn0 N10 2.119 . S
Zn0 O18 1.975 . S
C1 N2 1.334 . S
C1 N5 1.336 . S
N2 C1 1.334 . S
N2 C3 1.334 . S
C3 N2 1.334 . S
C3 N4 1.336 . S
N4 Zn0 2.020 . S
N4 C3 1.336 . S
N4 N5 1.354 . S
N5 C1 1.336 . S
N5 N4 1.354 . S
N5 Zn9 2.020 . S
C6 O7 1.244 . S
C6 O30 1.257 1_554 S
O7 C6 1.244 . S
O8 Zn0 2.019 . S
O8 C28 1.257 . S
Zn9 N5 2.020 . S
Zn9 O16 1.975 . S
Zn9 N25 2.119 1_554 S
Zn9 O30 2.019 1_554 S
N10 Zn0 2.119 . S
N10 C12 1.334 . S
N10 C13 1.328 . S
C11 C12 1.391 . S
C11 N14 1.329 . S
C11 H32 0.930 . S
C12 N10 1.334 . S
C12 C11 1.391 . S
C12 H19 0.930 . S
C13 N10 1.328 . S
C13 C15 1.392 . S
C13 H20 0.930 . S
N14 C11 1.329 . S
N14 C15 1.331 . S
C15 C13 1.392 . S
C15 N14 1.331 . S
O16 Zn9 1.975 . S
O16 C17 1.252 . S
C17 O16 1.252 . S
C17 O18 1.252 . S
O18 Zn0 1.975 . S
O18 C17 1.252 . S
H19 C12 0.930 . S
H20 C13 0.930 . S
C21 C22 1.392 . S
C21 N25 1.328 . S
C21 H27 0.930 . S
C22 C21 1.392 . S
C22 N26 1.331 . S
C23 C24 1.391 . S
C23 N26 1.329 . S
C23 H33 0.930 . S
C24 C23 1.391 . S
C24 N25 1.334 . S
C24 H31 0.930 . S
N25 Zn9 2.119 1_556 S
N25 C21 1.328 . S
N25 C24 1.334 . S
N26 C22 1.331 . S
N26 C23 1.329 . S
H27 C21 0.930 . S
C28 O8 1.257 . S
C28 O29 1.244 . S
O29 C28 1.244 . S
O30 C6 1.257 1_556 S
O30 Zn9 2.019 1_556 S
H31 C24 0.930 . S
H32 C11 0.930 . S
H33 C23 0.930 . S
Zn34 N38 2.020 . S
Zn34 O42 2.019 . S
Zn34 N44 2.119 . S
Zn34 O52 1.975 . S
C35 N36 1.334 1_556 S
C35 N39 1.336 . S
N36 C35 1.334 1_554 S
N36 C37 1.334 . S
C37 N36 1.334 . S
C37 N38 1.336 . S
N38 Zn34 2.020 . S
N38 C37 1.336 . S
N38 N39 1.354 1_554 S
N39 C35 1.336 . S
N39 N38 1.354 1_556 S
N39 Zn43 2.020 . S
C40 O41 1.244 1_556 S
C40 O64 1.257 . S
O41 C40 1.244 1_554 S
O42 Zn34 2.019 . S
O42 C62 1.257 . S
Zn43 N39 2.020 . S
Zn43 O50 1.975 1_556 S
Zn43 N59 2.119 . S
Zn43 O64 2.019 . S
N44 Zn34 2.119 . S
N44 C46 1.334 . S
N44 C47 1.328 . S
C45 C46 1.391 . S
C45 N48 1.329 . S
C45 H66 0.930 . S
C46 N44 1.334 . S
C46 C45 1.391 . S
C46 H53 0.930 . S
C47 N44 1.328 . S
C47 C49 1.392 . S
C47 H54 0.930 . S
N48 C45 1.329 . S
N48 C49 1.331 . S
C49 C47 1.392 . S
C49 N48 1.331 . S
O50 Zn43 1.975 1_554 S
O50 C51 1.252 . S
C51 O50 1.252 . S
C51 O52 1.252 . S
O52 Zn34 1.975 . S
O52 C51 1.252 . S
H53 C46 0.930 . S
H54 C47 0.930 . S
C55 C56 1.392 . S
C55 N59 1.328 . S
C55 H61 0.930 . S
C56 C55 1.392 . S
C56 N60 1.331 . S
C57 C58 1.391 . S
C57 N60 1.329 . S
C57 H67 0.930 . S
C58 C57 1.391 . S
C58 N59 1.334 . S
C58 H65 0.930 . S
N59 Zn43 2.119 . S
N59 C55 1.328 . S
N59 C58 1.334 . S
N60 C56 1.331 . S
N60 C57 1.329 . S
H61 C55 0.930 . S
C62 O42 1.257 . S
C62 O63 1.244 1_554 S
O63 C62 1.244 1_556 S
O64 C40 1.257 . S
O64 Zn43 2.019 . S
H65 C58 0.930 . S
H66 C45 0.930 . S
H67 C57 0.930 . S
Zn68 N72 2.020 . S
Zn68 O76 2.019 . S
Zn68 N78 2.119 . S
Zn68 O86 1.975 . S
C69 N70 1.334 1_556 S
C69 N73 1.336 1_556 S
N70 C69 1.334 1_554 S
N70 C71 1.334 . S
C71 N70 1.334 . S
C71 N72 1.336 . S
N72 Zn68 2.020 . S
N72 C71 1.336 . S
N72 N73 1.354 . S
N73 C69 1.336 1_554 S
N73 N72 1.354 . S
N73 Zn77 2.020 1_554 S
C74 O75 1.240 1_556 S
C74 O98 1.260 . S
O75 C74 1.240 1_554 S
O76 Zn68 2.019 . S
O76 C96 1.257 . S
Zn77 N73 2.020 1_556 S
Zn77 O84 1.975 1_556 S
Zn77 N93 2.119 . S
Zn77 O98 2.019 . S
N78 Zn68 2.119 . S
N78 C80 1.334 . S
N78 C81 1.328 . S
C79 C80 1.391 . S
C79 N82 1.329 . S
C79 H100 0.930 . S
C80 N78 1.334 . S
C80 C79 1.391 . S
C80 H87 0.930 . S
C81 N78 1.328 . S
C81 C83 1.392 . S
C81 H88 0.930 . S
N82 C79 1.329 . S
N82 C83 1.331 . S
C83 C81 1.392 . S
C83 N82 1.331 . S
O84 Zn77 1.975 1_554 S
O84 C85 1.252 . S
C85 O84 1.252 . S
C85 O86 1.252 . S
O86 Zn68 1.975 . S
O86 C85 1.252 . S
H87 C80 0.930 . S
H88 C81 0.930 . S
C89 C90 1.392 . S
C89 N93 1.328 . S
C89 H95 0.930 . S
C90 C89 1.392 . S
C90 N94 1.331 . S
C91 C92 1.391 . S
C91 N94 1.329 . S
C91 H101 0.930 . S
C92 C91 1.391 . S
C92 N93 1.334 . S
C92 H99 0.930 . S
N93 Zn77 2.119 . S
N93 C89 1.328 . S
N93 C92 1.334 . S
N94 C90 1.331 . S
N94 C91 1.329 . S
H95 C89 0.930 . S
C96 O76 1.257 . S
C96 O97 1.244 . S
O97 C96 1.244 . S
O98 C74 1.260 . S
O98 Zn77 2.019 . S
H99 C92 0.930 . S
H100 C79 0.930 . S
H101 C91 0.930 . S
Zn102 N106 2.020 . S
Zn102 O110 2.019 . S
Zn102 N112 2.119 . S
Zn102 O120 1.975 . S
C103 N104 1.334 . S
C103 N107 1.336 . S
N104 C103 1.334 . S
N104 C105 1.334 1_554 S
C105 N104 1.334 1_556 S
C105 N106 1.336 . S
N106 Zn102 2.020 . S
N106 C105 1.336 . S
N106 N107 1.354 1_556 S
N107 C103 1.336 . S
N107 N106 1.354 1_554 S
N107 Zn111 2.020 . S
C108 O109 1.244 1_554 S
C108 O132 1.257 . S
O109 C108 1.244 1_556 S
O110 Zn102 2.019 . S
O110 C130 1.257 . S
Zn111 N107 2.020 . S
Zn111 O118 1.975 . S
Zn111 N127 2.119 . S
Zn111 O132 2.019 . S
N112 Zn102 2.119 . S
N112 C114 1.334 . S
N112 C115 1.328 . S
C113 C114 1.391 . S
C113 N116 1.329 . S
C113 H134 0.930 . S
C114 N112 1.334 . S
C114 C113 1.391 . S
C114 H121 0.930 . S
C115 N112 1.328 . S
C115 C117 1.392 . S
C115 H122 0.930 . S
N116 C113 1.329 . S
N116 C117 1.331 . S
C117 C115 1.392 . S
C117 N116 1.331 . S
O118 Zn111 1.975 . S
O118 C119 1.252 1_554 S
C119 O118 1.252 1_556 S
C119 O120 1.252 . S
O120 Zn102 1.975 . S
O120 C119 1.252 . S
H121 C114 0.930 . S
H122 C115 0.930 . S
C123 C124 1.392 . S
C123 N127 1.328 . S
C123 H129 0.930 . S
C124 C123 1.392 . S
C124 N128 1.331 . S
C125 C126 1.391 . S
C125 N128 1.329 . S
C125 H135 0.930 . S
C126 C125 1.391 . S
C126 N127 1.334 . S
C126 H133 0.930 . S
N127 Zn111 2.119 . S
N127 C123 1.328 . S
N127 C126 1.334 . S
N128 C124 1.331 . S
N128 C125 1.329 . S
H129 C123 0.930 . S
C130 O110 1.257 . S
C130 O131 1.244 1_556 S
O131 C130 1.244 1_554 S
O132 C108 1.257 . S
O132 Zn111 2.019 . S
H133 C126 0.930 . S
H134 C113 0.930 . S
H135 C125 0.930 . S
C136 C137 1.391 . S
C136 C138 1.394 1_455 S
C136 H152 0.931 1_554 S
C137 C136 1.391 . S
C137 C141 1.376 . S
C138 C136 1.394 1_655 S
C138 C139 1.369 1_655 S
C138 C142 1.531 1_554 S
C139 C138 1.369 1_455 S
C139 C140 1.410 . S
C139 C147 1.503 1_455 S
C140 C139 1.410 . S
C140 C141 1.392 . S
C140 C143 1.511 . S
C141 C137 1.376 . S
C141 C140 1.392 . S
C141 H153 0.929 . S
C142 C138 1.531 1_556 S
C142 H154 0.960 1_556 S
C142 H155 0.962 . S
C142 H156 0.960 . S
C143 C140 1.511 . S
C143 H157 0.961 . S
C143 H158 0.961 . S
C143 H159 0.961 . S
C144 C145 1.370 . S
C144 C146 1.363 . S
C144 H160 0.931 1_554 S
C145 C144 1.370 . S
C145 C149 1.408 . S
C146 C144 1.363 . S
C146 C147 1.370 . S
C146 C150 1.524 1_654 S
C147 C139 1.503 1_655 S
C147 C146 1.370 . S
C147 C148 1.403 . S
C148 C147 1.403 . S
C148 C149 1.404 . S
C148 C151 1.539 . S
C149 C145 1.408 . S
C149 C148 1.404 . S
C149 H161 0.930 . S
C150 C146 1.524 1_456 S
C150 H162 0.956 . S
C150 H163 0.961 . S
C150 H164 0.961 . S
C151 C148 1.539 . S
C151 H165 0.958 . S
C151 H166 0.961 . S
C151 H167 0.960 . S
H152 C136 0.931 1_556 S
H153 C141 0.929 . S
H154 C142 0.960 1_554 S
H155 C142 0.962 . S
H156 C142 0.960 . S
H157 C143 0.961 . S
H158 C143 0.961 . S
H159 C143 0.961 . S
H160 C144 0.931 1_556 S
H161 C149 0.930 . S
H162 C150 0.956 . S
H163 C150 0.961 . S
H164 C150 0.961 . S
H165 C151 0.958 . S
H166 C151 0.961 . S
H167 C151 0.960 . S
C168 C169 1.391 . S
C168 C170 1.394 . S
C168 H184 0.931 . S
C169 C168 1.391 . S
C169 C173 1.376 . S
C170 C168 1.394 . S
C170 C171 1.369 . S
C170 C174 1.531 . S
C171 C170 1.369 . S
C171 C172 1.410 1_545 S
C171 C179 1.503 1_545 S
C172 C171 1.410 1_565 S
C172 C173 1.392 1_565 S
C172 C175 1.519 . S
C173 C169 1.376 . S
C173 C172 1.392 1_545 S
C173 H185 0.933 . S
C174 C170 1.531 . S
C174 H186 0.960 . S
C174 H187 0.962 . S
C174 H188 0.960 . S
C175 C172 1.519 . S
C175 H189 0.947 1_556 S
C175 H190 0.955 1_556 S
C175 H191 0.973 . S
C176 C177 1.370 1_554 S
C176 C178 1.363 . S
C176 H192 0.931 . S
C177 C176 1.370 1_556 S
C177 C181 1.408 . S
C178 C176 1.363 . S
C178 C179 1.370 1_554 S
C178 C182 1.524 1_565 S
C179 C171 1.503 1_565 S
C179 C178 1.370 1_556 S
C179 C180 1.403 . S
C180 C179 1.403 . S
C180 C181 1.404 . S
C180 C183 1.539 . S
C181 C177 1.408 . S
C181 C180 1.404 . S
C181 H193 0.930 . S
C182 C178 1.524 1_545 S
C182 H194 0.956 . S
C182 H195 0.961 . S
C182 H196 0.961 . S
C183 C180 1.539 . S
C183 H197 0.958 . S
C183 H198 0.961 . S
C183 H199 0.960 . S
H184 C168 0.931 . S
H185 C173 0.933 . S
H186 C174 0.960 . S
H187 C174 0.962 . S
H188 C174 0.960 . S
H189 C175 0.947 1_554 S
H190 C175 0.955 1_554 S
H191 C175 0.973 . S
H192 C176 0.931 . S
H193 C181 0.930 . S
H194 C182 0.956 . S
H195 C182 0.961 . S
H196 C182 0.961 . S
H197 C183 0.958 . S
H198 C183 0.961 . S
H199 C183 0.960 . S
C200 C201 1.391 . S
C200 C202 1.394 . S
C200 H216 0.931 . S
C201 C200 1.391 . S
C201 C205 1.376 . S
C202 C200 1.394 . S
C202 C203 1.369 . S
C202 C206 1.531 . S
C203 C202 1.369 . S
C203 C204 1.410 . S
C203 C211 1.503 . S
C204 C203 1.410 . S
C204 C205 1.392 . S
C204 C207 1.511 . S
C205 C201 1.376 . S
C205 C204 1.392 . S
C205 H217 0.929 . S
C206 C202 1.531 . S
C206 H218 0.960 . S
C206 H219 0.962 . S
C206 H220 0.960 . S
C207 C204 1.511 . S
C207 H221 0.961 . S
C207 H222 0.961 . S
C207 H223 0.961 . S
C208 C209 1.370 . S
C208 C210 1.363 . S
C208 H224 0.931 . S
C209 C208 1.370 . S
C209 C213 1.408 . S
C210 C208 1.363 . S
C210 C211 1.370 . S
C210 C214 1.524 . S
C211 C203 1.503 . S
C211 C210 1.370 . S
C211 C212 1.403 . S
C212 C211 1.403 . S
C212 C213 1.404 . S
C212 C215 1.539 . S
C213 C209 1.408 . S
C213 C212 1.404 . S
C213 H225 0.930 . S
C214 C210 1.524 . S
C214 H226 0.956 . S
C214 H227 0.961 . S
C214 H228 0.961 . S
C215 C212 1.539 . S
C215 H229 0.958 . S
C215 H230 0.961 . S
C215 H231 0.960 . S
H216 C200 0.931 . S
H217 C205 0.929 . S
H218 C206 0.960 . S
H219 C206 0.962 . S
H220 C206 0.960 . S
H221 C207 0.961 . S
H222 C207 0.961 . S
H223 C207 0.961 . S
H224 C208 0.931 . S
H225 C213 0.930 . S
H226 C214 0.956 . S
H227 C214 0.961 . S
H228 C214 0.961 . S
H229 C215 0.958 . S
H230 C215 0.961 . S
H231 C215 0.960 . S
C232 C233 1.391 . S
C232 C234 1.394 . S
C232 H248 0.931 . S
C233 C232 1.391 . S
C233 C237 1.376 . S
C234 C232 1.394 . S
C234 C235 1.369 . S
C234 C238 1.531 . S
C235 C234 1.369 . S
C235 C236 1.410 . S
C235 C243 1.503 . S
C236 C235 1.410 . S
C236 C237 1.392 . S
C236 C239 1.511 . S
C237 C233 1.376 . S
C237 C236 1.392 . S
C237 H249 0.929 . S
C238 C234 1.531 . S
C238 H250 0.960 . S
C238 H251 0.962 . S
C238 H252 0.960 . S
C239 C236 1.511 . S
C239 H253 0.961 . S
C239 H254 0.961 . S
C239 H255 0.961 . S
C240 C241 1.370 . S
C240 C242 1.363 . S
C240 H256 0.931 . S
C241 C240 1.370 . S
C241 C245 1.408 . S
C242 C240 1.363 . S
C242 C243 1.370 . S
C242 C246 1.524 . S
C243 C235 1.503 . S
C243 C242 1.370 . S
C243 C244 1.403 . S
C244 C243 1.403 . S
C244 C245 1.404 . S
C244 C247 1.539 . S
C245 C241 1.408 . S
C245 C244 1.404 . S
C245 H257 0.930 . S
C246 C242 1.524 . S
C246 H258 0.956 . S
C246 H259 0.961 . S
C246 H260 0.961 . S
C247 C244 1.539 . S
C247 H261 0.958 . S
C247 H262 0.961 . S
C247 H263 0.960 . S
H248 C232 0.931 . S
H249 C237 0.929 . S
H250 C238 0.960 . S
H251 C238 0.962 . S
H252 C238 0.960 . S
H253 C239 0.961 . S
H254 C239 0.961 . S
H255 C239 0.961 . S
H256 C240 0.931 . S
H257 C245 0.930 . S
H258 C246 0.956 . S
H259 C246 0.961 . S
H260 C246 0.961 . S
H261 C247 0.958 . S
H262 C247 0.961 . S
H263 C247 0.960 . S
C264 C265 1.391 . S
C264 C266 1.394 . S
C264 H280 0.931 . S
C265 C264 1.391 . S
C265 C269 1.376 . S
C266 C264 1.394 . S
C266 C267 1.369 . S
C266 C270 1.531 . S
C267 C266 1.369 . S
C267 C268 1.410 . S
C267 C275 1.503 . S
C268 C267 1.410 . S
C268 C269 1.392 . S
C268 C271 1.511 . S
C269 C265 1.376 . S
C269 C268 1.392 . S
C269 H281 0.929 . S
C270 C266 1.531 . S
C270 H282 0.960 . S
C270 H283 0.962 . S
C270 H284 0.960 . S
C271 C268 1.511 . S
C271 H285 0.961 . S
C271 H286 0.961 . S
C271 H287 0.961 . S
C272 C273 1.370 . S
C272 C274 1.363 . S
C272 H288 0.931 . S
C273 C272 1.370 . S
C273 C277 1.408 . S
C274 C272 1.363 . S
C274 C275 1.370 . S
C274 C278 1.524 . S
C275 C267 1.503 . S
C275 C274 1.370 . S
C275 C276 1.403 . S
C276 C275 1.403 . S
C276 C277 1.404 . S
C276 C279 1.539 . S
C277 C273 1.408 . S
C277 C276 1.404 . S
C277 H289 0.930 . S
C278 C274 1.524 . S
C278 H290 0.956 . S
C278 H291 0.961 . S
C278 H292 0.961 . S
C279 C276 1.539 . S
C279 H293 0.958 . S
C279 H294 0.961 . S
C279 H295 0.960 . S
H280 C264 0.931 . S
H281 C269 0.929 . S
H282 C270 0.960 . S
H283 C270 0.962 . S
H284 C270 0.960 . S
H285 C271 0.961 . S
H286 C271 0.961 . S
H287 C271 0.961 . S
H288 C272 0.931 . S
H289 C277 0.930 . S
H290 C278 0.956 . S
H291 C278 0.961 . S
H292 C278 0.961 . S
H293 C279 0.958 . S
H294 C279 0.961 . S
H295 C279 0.960 . S
C296 C297 1.391 . S
C296 C298 1.394 . S
C296 H312 0.931 . S
C297 C296 1.391 . S
C297 C301 1.376 . S
C298 C296 1.394 . S
C298 C299 1.369 . S
C298 C302 1.531 . S
C299 C298 1.369 . S
C299 C300 1.410 . S
C299 C307 1.503 . S
C300 C299 1.410 . S
C300 C301 1.392 . S
C300 C303 1.511 . S
C301 C297 1.376 . S
C301 C300 1.392 . S
C301 H313 0.929 . S
C302 C298 1.531 . S
C302 H314 0.960 . S
C302 H315 0.962 . S
C302 H316 0.960 . S
C303 C300 1.511 . S
C303 H317 0.961 . S
C303 H318 0.961 . S
C303 H319 0.961 . S
C304 C305 1.370 . S
C304 C306 1.363 . S
C304 H320 0.931 . S
C305 C304 1.370 . S
C305 C309 1.408 . S
C306 C304 1.363 . S
C306 C307 1.370 . S
C306 C310 1.524 . S
C307 C299 1.503 . S
C307 C306 1.370 . S
C307 C308 1.403 . S
C308 C307 1.403 . S
C308 C309 1.404 . S
C308 C311 1.539 . S
C309 C305 1.408 . S
C309 C308 1.404 . S
C309 H321 0.930 . S
C310 C306 1.524 . S
C310 H322 0.956 . S
C310 H323 0.961 . S
C310 H324 0.961 . S
C311 C308 1.539 . S
C311 H325 0.958 . S
C311 H326 0.961 . S
C311 H327 0.960 . S
H312 C296 0.931 . S
H313 C301 0.929 . S
H314 C302 0.960 . S
H315 C302 0.962 . S
H316 C302 0.960 . S
H317 C303 0.961 . S
H318 C303 0.961 . S
H319 C303 0.961 . S
H320 C304 0.931 . S
H321 C309 0.930 . S
H322 C310 0.956 . S
H323 C310 0.961 . S
H324 C310 0.961 . S
H325 C311 0.958 . S
H326 C311 0.961 . S
H327 C311 0.960 . S
C328 C329 1.391 . S
C328 C330 1.394 . S
C328 H344 0.931 . S
C329 C328 1.391 . S
C329 C333 1.376 . S
C330 C328 1.394 . S
C330 C331 1.369 . S
C330 C334 1.531 . S
C331 C330 1.369 . S
C331 C332 1.410 . S
C331 C339 1.503 . S
C332 C331 1.410 . S
C332 C333 1.392 . S
C332 C335 1.511 . S
C333 C329 1.376 . S
C333 C332 1.392 . S
C333 H345 0.929 . S
C334 C330 1.531 . S
C334 H346 0.960 1_544 S
C334 H347 0.962 1_545 S
C334 H348 0.960 1_554 S
C335 C332 1.511 . S
C335 H349 0.961 . S
C335 H350 0.961 . S
C335 H351 0.961 . S
C336 C337 1.370 . S
C336 C338 1.363 . S
C336 H352 0.931 . S
C337 C336 1.370 . S
C337 C341 1.408 . S
C338 C336 1.363 . S
C338 C339 1.370 1_565 S
C338 C342 1.524 1_565 S
C339 C331 1.503 . S
C339 C338 1.370 1_545 S
C339 C340 1.403 1_545 S
C340 C339 1.403 1_565 S
C340 C341 1.404 . S
C340 C343 1.539 1_564 S
C341 C337 1.408 . S
C341 C340 1.404 . S
C341 H353 0.930 1_554 S
C342 C338 1.524 1_545 S
C342 H354 0.956 . S
C342 H355 0.961 . S
C342 H356 0.961 1_545 S
C343 C340 1.539 1_546 S
C343 H357 0.958 . S
C343 H358 0.961 . S
C343 H359 0.960 . S
H344 C328 0.931 . S
H345 C333 0.929 . S
H346 C334 0.960 1_566 S
H347 C334 0.962 1_565 S
H348 C334 0.960 1_556 S
H349 C335 0.961 . S
H350 C335 0.961 . S
H351 C335 0.961 . S
H352 C336 0.931 . S
H353 C341 0.930 1_556 S
H354 C342 0.956 . S
H355 C342 0.961 . S
H356 C342 0.961 1_565 S
H357 C343 0.958 . S
H358 C343 0.961 . S
H359 C343 0.960 . S
C360 C361 1.391 . S
C360 C362 1.394 1_455 S
C360 H376 0.931 . S
C361 C360 1.391 . S
C361 C365 1.376 . S
C362 C360 1.394 1_655 S
C362 C363 1.369 . S
C362 C366 1.531 . S
C363 C362 1.369 . S
C363 C364 1.410 1_655 S
C363 C371 1.503 . S
C364 C363 1.410 1_455 S
C364 C365 1.392 . S
C364 C367 1.511 1_454 S
C365 C361 1.376 . S
C365 C364 1.392 . S
C365 H377 0.929 . S
C366 C362 1.531 . S
C366 H378 0.960 . S
C366 H379 0.962 . S
C366 H380 0.960 . S
C367 C364 1.511 1_656 S
C367 H381 0.961 1_655 S
C367 H382 0.961 . S
C367 H383 0.961 . S
C368 C369 1.370 . S
C368 C370 1.363 . S
C368 H384 0.931 . S
C369 C368 1.370 . S
C369 C373 1.408 . S
C370 C368 1.363 . S
C370 C371 1.370 . S
C370 C374 1.524 . S
C371 C363 1.503 . S
C371 C370 1.370 . S
C371 C372 1.403 . S
C372 C371 1.403 . S
C372 C373 1.404 . S
C372 C375 1.539 . S
C373 C369 1.408 . S
C373 C372 1.404 . S
C373 H385 0.930 . S
C374 C370 1.524 . S
C374 H386 0.956 . S
C374 H387 0.961 . S
C374 H388 0.961 . S
C375 C372 1.539 . S
C375 H389 0.958 . S
C375 H390 0.961 1_554 S
C375 H391 0.960 . S
H376 C360 0.931 . S
H377 C365 0.929 . S
H378 C366 0.960 . S
H379 C366 0.962 . S
H380 C366 0.960 . S
H381 C367 0.961 1_455 S
H382 C367 0.961 . S
H383 C367 0.961 . S
H384 C368 0.931 . S
H385 C373 0.930 . S
H386 C374 0.956 . S
H387 C374 0.961 . S
H388 C374 0.961 . S
H389 C375 0.958 . S
H390 C375 0.961 1_556 S
H391 C375 0.960 . S
C392 C393 1.391 . S
C392 C394 1.394 . S
C392 H408 0.931 . S
C393 C392 1.391 . S
C393 C397 1.376 . S
C394 C392 1.394 . S
C394 C395 1.369 . S
C394 C398 1.531 . S
C395 C394 1.369 . S
C395 C396 1.410 . S
C395 C403 1.503 . S
C396 C395 1.410 . S
C396 C397 1.392 . S
C396 C399 1.511 . S
C397 C393 1.376 . S
C397 C396 1.392 . S
C397 H409 0.932 . S
C398 C394 1.531 . S
C398 H410 0.960 . S
C398 H411 0.962 . S
C398 H412 0.960 . S
C399 C396 1.511 . S
C399 H413 0.961 1_554 S
C399 H414 0.961 1_554 S
C399 H415 0.961 . S
C400 C401 1.370 1_556 S
C400 C402 1.363 1_545 S
C400 H416 0.931 . S
C401 C400 1.370 1_554 S
C401 C405 1.408 . S
C402 C400 1.363 1_565 S
C402 C403 1.370 1_556 S
C402 C406 1.524 . S
C403 C395 1.503 . S
C403 C402 1.370 1_554 S
C403 C404 1.403 . S
C404 C403 1.403 . S
C404 C405 1.404 1_565 S
C404 C407 1.539 . S
C405 C401 1.408 . S
C405 C404 1.404 1_545 S
C405 H417 0.930 . S
C406 C402 1.524 . S
C406 H418 0.956 . S
C406 H419 0.961 . S
C406 H420 0.961 . S
C407 C404 1.539 . S
C407 H421 0.958 . S
C407 H422 0.961 1_565 S
C407 H423 0.960 . S
H408 C392 0.931 . S
H409 C397 0.932 . S
H410 C398 0.960 . S
H411 C398 0.962 . S
H412 C398 0.960 . S
H413 C399 0.961 1_556 S
H414 C399 0.961 1_556 S
H415 C399 0.961 . S
H416 C400 0.931 . S
H417 C405 0.930 . S
H418 C406 0.956 . S
H419 C406 0.961 . S
H420 C406 0.961 . S
H421 C407 0.958 . S
H422 C407 0.961 1_545 S
H423 C407 0.960 . S
C424 C425 1.391 . S
C424 C426 1.394 1_655 S
C424 H440 0.931 . S
C425 C424 1.391 . S
C425 C429 1.376 1_655 S
C426 C424 1.394 1_455 S
C426 C427 1.369 . S
C426 C430 1.531 . S
C427 C426 1.369 . S
C427 C428 1.410 . S
C427 C435 1.503 . S
C428 C427 1.410 . S
C428 C429 1.392 . S
C428 C431 1.511 1_554 S
C429 C425 1.376 1_455 S
C429 C428 1.392 . S
C429 H441 0.929 1_454 S
C430 C426 1.531 . S
C430 H442 0.960 . S
C430 H443 0.962 . S
C430 H444 0.960 . S
C431 C428 1.511 1_556 S
C431 H445 0.961 . S
C431 H446 0.961 . S
C431 H447 0.961 . S
C432 C433 1.370 . S
C432 C434 1.363 . S
C432 H448 0.931 1_554 S
C433 C432 1.370 . S
C433 C437 1.408 . S
C434 C432 1.363 . S
C434 C435 1.370 . S
C434 C438 1.524 1_554 S
C435 C427 1.503 . S
C435 C434 1.370 . S
C435 C436 1.403 . S
C436 C435 1.403 . S
C436 C437 1.404 . S
C436 C439 1.539 . S
C437 C433 1.408 . S
C437 C436 1.404 . S
C437 H449 0.930 . S
C438 C434 1.524 1_556 S
C438 H450 0.956 1_556 S
C438 H451 0.961 . S
C438 H452 0.961 . S
C439 C436 1.539 . S
C439 H453 0.958 . S
C439 H454 0.961 . S
C439 H455 0.960 . S
H440 C424 0.931 . S
H441 C429 0.929 1_656 S
H442 C430 0.960 . S
H443 C430 0.962 . S
H444 C430 0.960 . S
H445 C431 0.961 . S
H446 C431 0.961 . S
H447 C431 0.961 . S
H448 C432 0.931 1_556 S
H449 C437 0.930 . S
H450 C438 0.956 1_554 S
H451 C438 0.961 . S
H452 C438 0.961 . S
H453 C439 0.958 . S
H454 C439 0.961 . S
H455 C439 0.960 . S
C456 C457 1.391 1_554 S
C456 C458 1.394 . S
C456 H472 0.931 . S
C457 C456 1.391 1_556 S
C457 C461 1.376 . S
C458 C456 1.394 . S
C458 C459 1.369 . S
C458 C462 1.531 . S
C459 C458 1.369 . S
C459 C460 1.410 1_554 S
C459 C467 1.503 . S
C460 C459 1.410 1_556 S
C460 C461 1.392 . S
C460 C463 1.511 . S
C461 C457 1.376 . S
C461 C460 1.392 . S
C461 H473 0.929 . S
C462 C458 1.531 . S
C462 H474 0.960 . S
C462 H475 0.962 . S
C462 H476 0.960 . S
C463 C460 1.511 . S
C463 H477 0.961 . S
C463 H478 0.961 . S
C463 H479 0.961 1_556 S
C464 C465 1.370 1_556 S
C464 C466 1.363 . S
C464 H480 0.931 . S
C465 C464 1.370 1_554 S
C465 C469 1.408 . S
C466 C464 1.363 . S
C466 C467 1.370 1_556 S
C466 C470 1.524 . S
C467 C459 1.503 . S
C467 C466 1.370 1_554 S
C467 C468 1.403 . S
C468 C467 1.403 . S
C468 C469 1.404 . S
C468 C471 1.539 . S
C469 C465 1.408 . S
C469 C468 1.404 . S
C469 H481 0.930 . S
C470 C466 1.524 . S
C470 H482 0.956 . S
C470 H483 0.961 . S
C470 H484 0.961 . S
C471 C468 1.539 . S
C471 H485 0.958 . S
C471 H486 0.961 . S
C471 H487 0.960 . S
H472 C456 0.931 . S
H473 C461 0.929 . S
H474 C462 0.960 . S
H475 C462 0.962 . S
H476 C462 0.960 . S
H477 C463 0.961 . S
H478 C463 0.961 . S
H479 C463 0.961 1_554 S
H480 C464 0.931 . S
H481 C469 0.930 . S
H482 C470 0.956 . S
H483 C470 0.961 . S
H484 C470 0.961 . S
H485 C471 0.958 . S
H486 C471 0.961 . S
H487 C471 0.960 . S
C488 C489 1.391 . S
C488 C490 1.394 1_556 S
C488 H504 0.931 1_556 S
C489 C488 1.391 . S
C489 C493 1.376 . S
C490 C488 1.394 1_554 S
C490 C491 1.369 1_554 S
C490 C494 1.531 . S
C491 C490 1.369 1_556 S
C491 C492 1.410 . S
C491 C499 1.503 . S
C492 C491 1.410 . S
C492 C493 1.392 . S
C492 C495 1.511 . S
C493 C489 1.376 . S
C493 C492 1.392 . S
C493 H505 0.929 . S
C494 C490 1.531 . S
C494 H506 0.960 . S
C494 H507 0.962 . S
C494 H508 0.960 . S
C495 C492 1.511 . S
C495 H509 0.961 . S
C495 H510 0.961 . S
C495 H511 0.961 . S
C496 C497 1.370 1_556 S
C496 C498 1.363 . S
C496 H512 0.931 . S
C497 C496 1.370 1_554 S
C497 C501 1.408 . S
C498 C496 1.363 . S
C498 C499 1.370 . S
C498 C502 1.524 . S
C499 C491 1.503 . S
C499 C498 1.370 . S
C499 C500 1.403 1_556 S
C500 C499 1.403 1_554 S
C500 C501 1.404 . S
C500 C503 1.539 . S
C501 C497 1.408 . S
C501 C500 1.404 . S
C501 H513 0.930 . S
C502 C498 1.524 . S
C502 H514 0.956 . S
C502 H515 0.961 . S
C502 H516 0.961 . S
C503 C500 1.539 . S
C503 H517 0.958 . S
C503 H518 0.961 . S
C503 H519 0.960 . S
H504 C488 0.931 1_554 S
H505 C493 0.929 . S
H506 C494 0.960 . S
H507 C494 0.962 . S
H508 C494 0.960 . S
H509 C495 0.961 . S
H510 C495 0.961 . S
H511 C495 0.961 . S
H512 C496 0.931 . S
H513 C501 0.930 . S
H514 C502 0.956 . S
H515 C502 0.961 . S
H516 C502 0.961 . S
H517 C503 0.958 . S
H518 C503 0.961 . S
H519 C503 0.960 . S
C520 C521 1.391 . S
C520 C522 1.394 1_554 S
C520 H536 0.931 . S
C521 C520 1.391 . S
C521 C525 1.376 . S
C522 C520 1.394 1_556 S
C522 C523 1.369 1_556 S
C522 C526 1.531 . S
C523 C522 1.369 1_554 S
C523 C524 1.410 . S
C523 C531 1.503 . S
C524 C523 1.410 . S
C524 C525 1.392 . S
C524 C527 1.511 . S
C525 C521 1.376 . S
C525 C524 1.392 . S
C525 H537 0.929 . S
C526 C522 1.531 . S
C526 H538 0.960 . S
C526 H539 0.962 1_556 S
C526 H540 0.960 . S
C527 C524 1.511 . S
C527 H541 0.961 . S
C527 H542 0.961 . S
C527 H543 0.961 1_554 S
C528 C529 1.370 1_554 S
C528 C530 1.363 . S
C528 H544 0.931 . S
C529 C528 1.370 1_556 S
C529 C533 1.408 . S
C530 C528 1.363 . S
C530 C531 1.370 . S
C530 C534 1.524 . S
C531 C523 1.503 . S
C531 C530 1.370 . S
C531 C532 1.403 1_554 S
C532 C531 1.403 1_556 S
C532 C533 1.404 . S
C532 C535 1.539 . S
C533 C529 1.408 . S
C533 C532 1.404 . S
C533 H545 0.930 . S
C534 C530 1.524 . S
C534 H546 0.956 . S
C534 H547 0.961 . S
C534 H548 0.961 . S
C535 C532 1.539 . S
C535 H549 0.958 . S
C535 H550 0.961 . S
C535 H551 0.960 . S
H536 C520 0.931 . S
H537 C525 0.929 . S
H538 C526 0.960 . S
H539 C526 0.962 1_554 S
H540 C526 0.960 . S
H541 C527 0.961 . S
H542 C527 0.961 . S
H543 C527 0.961 1_556 S
H544 C528 0.931 . S
H545 C533 0.930 . S
H546 C534 0.956 . S
H547 C534 0.961 . S
H548 C534 0.961 . S
H549 C535 0.958 . S
H550 C535 0.961 . S
H551 C535 0.960 . S
C552 C553 1.391 . S
C552 C554 1.394 . S
C552 H568 0.931 . S
C553 C552 1.391 . S
C553 C557 1.376 1_556 S
C554 C552 1.394 . S
C554 C555 1.369 1_556 S
C554 C558 1.531 . S
C555 C554 1.369 1_554 S
C555 C556 1.410 . S
C555 C563 1.503 . S
C556 C555 1.410 . S
C556 C557 1.392 . S
C556 C559 1.511 . S
C557 C553 1.376 1_554 S
C557 C556 1.392 . S
C557 H569 0.929 . S
C558 C554 1.531 . S
C558 H570 0.960 . S
C558 H571 0.962 . S
C558 H572 0.960 . S
C559 C556 1.511 . S
C559 H573 0.961 . S
C559 H574 0.961 . S
C559 H575 0.961 . S
C560 C561 1.370 . S
C560 C562 1.363 . S
C560 H576 0.931 . S
C561 C560 1.370 . S
C561 C565 1.408 . S
C562 C560 1.363 . S
C562 C563 1.370 . S
C562 C566 1.524 . S
C563 C555 1.503 . S
C563 C562 1.370 . S
C563 C564 1.403 1_554 S
C564 C563 1.403 1_556 S
C564 C565 1.404 1_556 S
C564 C567 1.539 . S
C565 C561 1.408 . S
C565 C564 1.404 1_554 S
C565 H577 0.930 1_554 S
C566 C562 1.524 . S
C566 H578 0.956 . S
C566 H579 0.961 . S
C566 H580 0.961 . S
C567 C564 1.539 . S
C567 H581 0.958 . S
C567 H582 0.961 . S
C567 H583 0.960 . S
H568 C552 0.931 . S
H569 C557 0.929 . S
H570 C558 0.960 . S
H571 C558 0.962 . S
H572 C558 0.960 . S
H573 C559 0.961 . S
H574 C559 0.961 . S
H575 C559 0.961 . S
H576 C560 0.931 . S
H577 C565 0.930 1_556 S
H578 C566 0.956 . S
H579 C566 0.961 . S
H580 C566 0.961 . S
H581 C567 0.958 . S
H582 C567 0.961 . S
H583 C567 0.960 . S
C137 C1 1.740 . S
C145 C71 1.798 . S
C169 C35 1.877 . S
C177 C105 1.877 . S
C201 C15 1.710 . S
C209 C22 1.659 . S
C233 C49 1.674 . S
C241 C56 1.656 . S
C265 C83 1.687 . S
C273 C90 1.714 . S
C297 C117 1.948 . S
C305 C124 1.939 . S
C329 C28 1.233 . S
C337 C103 1.205 . S
C361 C3 1.529 . S
C369 C62 1.748 . S
C393 C85 1.844 . S
C401 C37 1.728 . S
C425 C96 0.781 . S
C433 C108 0.754 . S
C457 C69 1.709 . S
C465 C51 1.914 . S
C489 C130 0.745 . S
C497 C74 0.789 1_554 S
C521 C6 0.929 . S
C529 C119 0.932 . S
C553 C40 1.537 . S
C561 C17 1.536 . S
