# Generated by pormake.
# Topology sod, (4)-cn, num edge types: 1
# Building blocks:
#     Node 0, Type 0, BuildingBlock: CEKHIL_clean_sbu_0, # of connection points: 4
#     Node 1, Type 0, BuildingBlock: CEKHIL_clean_sbu_0, # of connection points: 4
#     Node 2, Type 0, BuildingBlock: CEKHIL_clean_sbu_0, # of connection points: 4
#     Node 3, Type 0, BuildingBlock: CEKHIL_clean_sbu_0, # of connection points: 4
#     Node 4, Type 0, BuildingBlock: CEKHIL_clean_sbu_0, # of connection points: 4
#     Node 5, Type 0, BuildingBlock: CEKHIL_clean_sbu_0, # of connection points: 4
#     Node 6, Type 0, BuildingBlock: CEKHIL_clean_sbu_0, # of connection points: 4
#     Node 7, Type 0, BuildingBlock: CEKHIL_clean_sbu_0, # of connection points: 4
#     Node 8, Type 0, BuildingBlock: CEKHIL_clean_sbu_0, # of connection points: 4
#     Node 9, Type 0, BuildingBlock: CEKHIL_clean_sbu_0, # of connection points: 4
#     Node 10, Type 0, BuildingBlock: CEKHIL_clean_sbu_0, # of connection points: 4
#     Node 11, Type 0, BuildingBlock: CEKHIL_clean_sbu_0, # of connection points: 4
#     Edge 12, Type (0, 0), BuildingBlock: TEMPAE_clean_linker_10, # of connection points: 2
#     Edge 13, Type (0, 0), BuildingBlock: TEMPAE_clean_linker_10, # of connection points: 2
#     Edge 14, Type (0, 0), BuildingBlock: TEMPAE_clean_linker_10, # of connection points: 2
#     Edge 15, Type (0, 0), BuildingBlock: TEMPAE_clean_linker_10, # of connection points: 2
#     Edge 16, Type (0, 0), BuildingBlock: TEMPAE_clean_linker_10, # of connection points: 2
#     Edge 17, Type (0, 0), BuildingBlock: TEMPAE_clean_linker_10, # of connection points: 2
#     Edge 18, Type (0, 0), BuildingBlock: TEMPAE_clean_linker_10, # of connection points: 2
#     Edge 19, Type (0, 0), BuildingBlock: TEMPAE_clean_linker_10, # of connection points: 2
#     Edge 20, Type (0, 0), BuildingBlock: TEMPAE_clean_linker_10, # of connection points: 2
#     Edge 21, Type (0, 0), BuildingBlock: TEMPAE_clean_linker_10, # of connection points: 2
#     Edge 22, Type (0, 0), BuildingBlock: TEMPAE_clean_linker_10, # of connection points: 2
#     Edge 23, Type (0, 0), BuildingBlock: TEMPAE_clean_linker_10, # of connection points: 2
#     Edge 24, Type (0, 0), BuildingBlock: TEMPAE_clean_linker_10, # of connection points: 2
#     Edge 25, Type (0, 0), BuildingBlock: TEMPAE_clean_linker_10, # of connection points: 2
#     Edge 26, Type (0, 0), BuildingBlock: TEMPAE_clean_linker_10, # of connection points: 2
#     Edge 27, Type (0, 0), BuildingBlock: TEMPAE_clean_linker_10, # of connection points: 2
#     Edge 28, Type (0, 0), BuildingBlock: TEMPAE_clean_linker_10, # of connection points: 2
#     Edge 29, Type (0, 0), BuildingBlock: TEMPAE_clean_linker_10, # of connection points: 2
#     Edge 30, Type (0, 0), BuildingBlock: TEMPAE_clean_linker_10, # of connection points: 2
#     Edge 31, Type (0, 0), BuildingBlock: TEMPAE_clean_linker_10, # of connection points: 2
#     Edge 32, Type (0, 0), BuildingBlock: TEMPAE_clean_linker_10, # of connection points: 2
#     Edge 33, Type (0, 0), BuildingBlock: TEMPAE_clean_linker_10, # of connection points: 2
#     Edge 34, Type (0, 0), BuildingBlock: TEMPAE_clean_linker_10, # of connection points: 2
#     Edge 35, Type (0, 0), BuildingBlock: TEMPAE_clean_linker_10, # of connection points: 2
# Relax obj value: 0.139
# Max RMSD: 0.179
# Mean RMSD: 0.169
data_MOF--net-sod--node1-CEKHIL_clean_sbu_0--edge1-TEMPAE_clean_linker_10
_symmetry_space_group_name_H-M    P1
_symmetry_Int_Tables_number       1
_symmetry_cell_setting            triclinic
loop_
_symmetry_equiv_pos_as_xyz
'x, y, z'
_cell_length_a     42.311927
_cell_length_b     42.555134
_cell_length_c     42.456323
_cell_angle_alpha  92.137874
_cell_angle_beta   89.970629
_cell_angle_gamma 91.072465
loop_
_atom_site_label
_atom_site_type_symbol
_atom_site_fract_x
_atom_site_fract_y
_atom_site_fract_z
_atom_type_partial_charge
Co0 Co 0.00788 0.26085 0.50685 0.0
O1 O 0.98157 0.2917 0.48773 0.0
O2 O 0.03169 0.28309 0.47575 0.0
C3 C 0.97266 0.2204 0.50489 0.0
O4 O 0.04268 0.23082 0.51917 0.0
Co5 Co 0.99173 0.22922 0.56981 0.0
O6 O 0.02511 0.19935 0.55696 0.0
C7 C 0.00638 0.2973 0.56838 0.0
C8 C 0.00626 0.29884 0.47097 0.0
C9 C 0.04532 0.20641 0.53601 0.0
O10 O 0.01953 0.29342 0.54112 0.0
O11 O 0.99182 0.27502 0.58213 0.0
O12 O 0.98893 0.22694 0.47985 0.0
O13 O 0.97632 0.23975 0.52868 0.0
Co14 Co 0.75144 0.0165 0.51154 0.0
O15 O 0.78605 0.99765 0.48785 0.0
O16 O 0.77066 0.9849 0.53569 0.0
C17 C 0.71589 0.01609 0.472 0.0
O18 O 0.71757 0.02732 0.54386 0.0
Co19 Co 0.7182 0.07886 0.49842 0.0
O20 O 0.68504 0.06443 0.52799 0.0
C21 C 0.78478 0.07877 0.52045 0.0
C22 C 0.7899 0.98044 0.51228 0.0
C23 C 0.69201 0.04298 0.54675 0.0
O24 O 0.78184 0.04998 0.52859 0.0
O25 O 0.76295 0.09327 0.50637 0.0
O26 O 0.72022 0.99066 0.48749 0.0
O27 O 0.73395 0.03978 0.47976 0.0
Co28 Co 0.99014 0.77505 0.52931 0.0
O29 O 0.96617 0.74207 0.54939 0.0
O30 O 0.01595 0.7556 0.56004 0.0
C31 C 0.95262 0.81211 0.53157 0.0
O32 O 0.02292 0.80771 0.51617 0.0
Co33 Co 0.97158 0.80477 0.46658 0.0
O34 O 0.00669 0.83547 0.47552 0.0
C35 C 0.98968 0.73811 0.46815 0.0
C36 C 0.99171 0.73752 0.56557 0.0
C37 C 0.02643 0.83053 0.49736 0.0
O38 O 0.00303 0.74335 0.49517 0.0
O39 O 0.9734 0.75879 0.45461 0.0
O40 O 0.97013 0.80761 0.55617 0.0
O41 O 0.95686 0.79292 0.50785 0.0
Co42 Co 0.26497 0.01989 0.5067 0.0
O43 O 0.23234 0.03967 0.48266 0.0
O44 O 0.24326 0.05033 0.53294 0.0
C45 C 0.30386 0.02295 0.47037 0.0
O46 O 0.2969 0.00729 0.53974 0.0
Co47 Co 0.29763 0.95785 0.48677 0.0
O48 O 0.32877 0.96984 0.52028 0.0
C49 C 0.23072 0.95679 0.50713 0.0
C50 C 0.2262 0.05592 0.50845 0.0
C51 C 0.32178 0.99048 0.54152 0.0
O52 O 0.23356 0.98548 0.51785 0.0
O53 O 0.25285 0.94267 0.49203 0.0
O54 O 0.29753 0.04725 0.48866 0.0
O55 O 0.28523 0.99886 0.47308 0.0
Co56 Co 0.51952 0.0312 0.26143 0.0
O57 O 0.5409 0.0519 0.22725 0.0
O58 O 0.49099 0.05875 0.24111 0.0
C59 C 0.55835 0.03856 0.29742 0.0
O60 O 0.48879 0.01692 0.2953 0.0
Co61 Co 0.54357 0.97301 0.29554 0.0
O62 O 0.51245 0.9852 0.32861 0.0
C63 C 0.5193 0.96664 0.22985 0.0
C64 C 0.51431 0.06593 0.22269 0.0
C65 C 0.48965 0.00273 0.32152 0.0
O66 O 0.50789 0.99458 0.23155 0.0
O67 O 0.53587 0.95536 0.25184 0.0
O68 O 0.53873 0.0611 0.29258 0.0
O69 O 0.55491 0.01369 0.27953 0.0
Co70 Co 0.02027 0.50365 0.27246 0.0
O71 O 0.04195 0.48384 0.30638 0.0
O72 O 0.99162 0.47571 0.2937 0.0
C73 C 0.05806 0.49636 0.23559 0.0
O74 O 0.98952 0.51727 0.23867 0.0
Co75 Co 0.04602 0.56232 0.23865 0.0
O76 O 0.01397 0.55016 0.20609 0.0
C77 C 0.02214 0.56839 0.30425 0.0
C78 C 0.0153 0.46926 0.31166 0.0
C79 C 0.99078 0.53207 0.21274 0.0
O80 O 0.0098 0.54039 0.30224 0.0
O81 O 0.03926 0.57984 0.28243 0.0
O82 O 0.03809 0.47364 0.24129 0.0
O83 O 0.05588 0.52125 0.25356 0.0
Co84 Co 0.51475 1.00129 0.77152 0.0
O85 O 0.53862 0.9804 0.80321 0.0
O86 O 0.48867 0.96966 0.79068 0.0
C87 C 0.55194 1.00024 0.73339 0.0
O88 O 0.48239 0.01555 0.73964 0.0
Co89 Co 0.5355 0.06516 0.74402 0.0
O90 O 0.50292 0.05456 0.71142 0.0
C91 C 0.51598 0.06131 0.81048 0.0
C92 C 0.5131 0.96369 0.80782 0.0
C93 C 0.48165 0.03359 0.71595 0.0
O94 O 0.50233 0.0344 0.80454 0.0
O95 O 0.53297 0.07562 0.79039 0.0
O96 O 0.53416 0.97546 0.73767 0.0
O97 O 0.5484 0.02316 0.75366 0.0
Co98 Co 0.0208 0.53398 0.76303 0.0
O99 O 0.04206 0.55587 0.7296 0.0
O100 O 0.9916 0.56065 0.74249 0.0
C101 C 0.05865 0.54237 0.79973 0.0
O102 O 0.98999 0.5182 0.79611 0.0
Co103 Co 0.04631 0.47629 0.79675 0.0
O104 O 0.01374 0.48625 0.82911 0.0
C105 C 0.02572 0.4709 0.72982 0.0
C106 C 0.01501 0.5689 0.72466 0.0
C107 C 0.99066 0.5034 0.82199 0.0
O108 O 0.01137 0.49738 0.73242 0.0
O109 O 0.0426 0.46031 0.75196 0.0
O110 O 0.0382 0.56417 0.79494 0.0
O111 O 0.05651 0.5176 0.78155 0.0
Co112 Co 0.25348 0.51304 0.01033 0.0
O113 O 0.28811 0.49522 0.98578 0.0
O114 O 0.27277 0.48045 0.03297 0.0
C115 C 0.21752 0.51446 0.97127 0.0
O116 O 0.21957 0.52214 0.04308 0.0
Co117 Co 0.22014 0.57608 1.00047 0.0
O118 O 0.18729 0.56049 0.02975 0.0
C119 C 0.28683 0.57504 0.02186 0.0
C120 C 0.29199 0.47694 0.00941 0.0
C121 C 0.19411 0.53777 0.04703 0.0
O122 O 0.28388 0.54589 0.02881 0.0
O123 O 0.26494 0.59012 0.00852 0.0
O124 O 0.22226 0.48821 0.98527 0.0
O125 O 0.23569 0.53778 0.97992 0.0
Co126 Co 0.49424 0.27347 0.02781 0.0
O127 O 0.46995 0.23978 0.04646 0.0
O128 O 0.51884 0.25428 0.05971 0.0
C129 C 0.45592 0.30969 0.0285 0.0
O130 O 0.52711 0.30693 0.01663 0.0
Co131 Co 0.47845 0.30372 0.96459 0.0
O132 O 0.51153 0.33563 0.97642 0.0
C133 C 0.50193 0.23867 0.96503 0.0
C134 C 0.49474 0.23559 0.06386 0.0
C135 C 0.53064 0.33049 0.99872 0.0
O136 O 0.50963 0.24228 0.99433 0.0
O137 O 0.48743 0.25952 0.9499 0.0
O138 O 0.47236 0.30531 0.05383 0.0
O139 O 0.46161 0.29088 0.00478 0.0
Co140 Co 0.76796 0.52031 0.00952 0.0
O141 O 0.73459 0.53987 0.98636 0.0
O142 O 0.74669 0.55067 0.03634 0.0
C143 C 0.8058 0.52359 0.97215 0.0
O144 O 0.80091 0.5078 0.04164 0.0
Co145 Co 0.80023 0.45839 0.98844 0.0
O146 O 0.83196 0.46997 0.02148 0.0
C147 C 0.734 0.45709 0.01081 0.0
C148 C 0.72892 0.55606 0.01229 0.0
C149 C 0.82566 0.49072 0.04284 0.0
O150 O 0.73703 0.48578 0.02147 0.0
O151 O 0.75571 0.44307 0.99501 0.0
O152 O 0.79992 0.54782 0.99071 0.0
O153 O 0.78736 0.49944 0.97527 0.0
Co154 Co 0.509 0.7577 0.00569 0.0
O155 O 0.48252 0.7873 0.98496 0.0
O156 O 0.53291 0.77894 0.97395 0.0
C157 C 0.47437 0.71674 0.005 0.0
O158 O 0.54392 0.72879 0.01984 0.0
Co159 Co 0.49219 0.72921 0.07007 0.0
O160 O 0.52663 0.69958 0.05956 0.0
C161 C 0.50528 0.7971 0.06492 0.0
C162 C 0.50734 0.79413 0.96825 0.0
C163 C 0.54688 0.70566 0.0383 0.0
O164 O 0.51992 0.79174 0.03869 0.0
O165 O 0.49011 0.77565 0.07932 0.0
O166 O 0.49082 0.72251 0.97987 0.0
O167 O 0.47739 0.73715 0.028 0.0
C168 C 0.02696 0.32316 0.42233 0.0
C169 C 0.00588 0.32398 0.44782 0.0
C170 C 0.02745 0.347 0.40033 0.0
C171 C 0.00703 0.37283 0.40442 0.0
C172 C 0.98585 0.37392 0.43031 0.0
C173 C 0.9852 0.34921 0.45145 0.0
C174 C 0.04977 0.34446 0.37261 0.0
C175 C 0.9643 0.40143 0.43597 0.0
C176 C 0.03241 0.44672 0.36242 0.0
C177 C 0.01227 0.44556 0.3362 0.0
C178 C 0.03019 0.42383 0.38541 0.0
C179 C 0.00797 0.39864 0.38154 0.0
C180 C 0.98754 0.39744 0.35508 0.0
C181 C 0.98962 0.42118 0.33299 0.0
C182 C 0.0518 0.42647 0.41371 0.0
C183 C 0.96414 0.37057 0.34958 0.0
H184 H 0.04285 0.30358 0.41935 0.0
H185 H 0.96909 0.35005 0.47131 0.0
H186 H 0.03636 0.3457 0.35025 0.0
H187 H 0.06693 0.36449 0.37353 0.0
H188 H 0.06313 0.32221 0.3721 0.0
H189 H 0.94968 0.39902 0.45752 0.0
H190 H 0.97854 0.42355 0.43838 0.0
H191 H 0.94833 0.4037 0.41551 0.0
H192 H 0.04978 0.46569 0.36508 0.0
H193 H 0.97415 0.42009 0.31262 0.0
H194 H 0.06816 0.4064 0.41329 0.0
H195 H 0.03775 0.42534 0.43573 0.0
H196 H 0.06605 0.44868 0.41445 0.0
H197 H 0.97691 0.34806 0.34725 0.0
H198 H 0.94973 0.37327 0.32801 0.0
H199 H 0.94799 0.36883 0.37005 0.0
C200 C 0.69204 0.0456 0.42899 0.0
C201 C 0.69066 0.0196 0.44837 0.0
C202 C 0.66895 0.05011 0.40611 0.0
C203 C 0.64349 0.02828 0.40267 0.0
C204 C 0.64141 0.00237 0.42271 0.0
C205 C 0.66525 0.99815 0.44522 0.0
C206 C 0.67248 0.07766 0.38484 0.0
C207 C 0.61433 0.97885 0.41995 0.0
C208 C 0.57403 0.05375 0.35305 0.0
C209 C 0.58057 0.03835 0.32413 0.0
C210 C 0.59385 0.05008 0.37926 0.0
C211 C 0.62098 0.03113 0.37606 0.0
C212 C 0.62783 0.01607 0.34665 0.0
C213 C 0.60739 0.01965 0.3212 0.0
C214 C 0.58563 0.06611 0.41041 0.0
C215 C 0.65687 0.99629 0.34195 0.0
H216 H 0.71165 0.06229 0.43125 0.0
H217 H 0.66394 0.97823 0.46038 0.0
H218 H 0.67595 0.06893 0.36015 0.0
H219 H 0.65069 0.09174 0.38539 0.0
H220 H 0.69283 0.09334 0.39164 0.0
H221 H 0.61452 0.9618 0.43912 0.0
H222 H 0.59145 0.99119 0.42052 0.0
H223 H 0.61568 0.9656 0.397 0.0
H224 H 0.55296 0.06775 0.35544 0.0
H225 H 0.61243 0.00768 0.29881 0.0
H226 H 0.60486 0.08284 0.41783 0.0
H227 H 0.58342 0.04841 0.42887 0.0
H228 H 0.56317 0.07914 0.40929 0.0
H229 H 0.67845 0.01078 0.34716 0.0
H230 H 0.6587 0.98614 0.31754 0.0
H231 H 0.65648 0.97675 0.35853 0.0
C232 C 0.02779 0.62043 0.33288 0.0
C233 C 0.01697 0.58899 0.33279 0.0
C234 C 0.02367 0.64082 0.35907 0.0
C235 C 0.0083 0.62973 0.38618 0.0
C236 C 0.99792 0.59789 0.38676 0.0
C237 C 0.00227 0.57785 0.35996 0.0
C238 C 0.03494 0.67464 0.35723 0.0
C239 C 0.98163 0.58522 0.41538 0.0
C240 C 0.01884 0.68809 0.45542 0.0
C241 C 0.99263 0.70718 0.45129 0.0
C242 C 0.02316 0.66094 0.43598 0.0
C243 C 1.00062 0.65277 0.41219 0.0
C244 C 0.97289 0.67058 0.40984 0.0
C245 C 0.96932 0.69754 0.42929 0.0
C246 C 0.05291 0.64239 0.43939 0.0
C247 C 0.94812 0.66271 0.38502 0.0
H248 H 0.03926 0.62947 0.31218 0.0
H249 H 0.99412 0.55357 0.36029 0.0
H250 H 0.01439 0.69046 0.35852 0.0
H251 H 0.05061 0.68114 0.37747 0.0
H252 H 0.04804 0.67905 0.33509 0.0
H253 H 0.97834 0.55926 0.41356 0.0
H254 H 0.99544 0.59156 0.43698 0.0
H255 H 0.95809 0.59602 0.4182 0.0
H256 H 0.03676 0.69523 0.47261 0.0
H257 H 0.94856 0.71173 0.4265 0.0
H258 H 0.06952 0.6481 0.4201 0.0
H259 H 0.04763 0.61676 0.43741 0.0
H260 H 0.06491 0.64793 0.46225 0.0
H261 H 0.95758 0.6684 0.36148 0.0
H262 H 0.92612 0.67612 0.3891 0.0
H263 H 0.94207 0.63723 0.38442 0.0
C264 C 0.35428 0.04607 0.44902 0.0
C265 C 0.33172 0.02153 0.44923 0.0
C266 C 0.38081 0.04428 0.42904 0.0
C267 C 0.38469 0.01742 0.40873 0.0
C268 C 0.36192 0.99265 0.40889 0.0
C269 C 0.33583 0.99498 0.42915 0.0
C270 C 0.4047 0.07109 0.42965 0.0
C271 C 0.36503 0.96367 0.38753 0.0
C272 C 0.43543 0.02204 0.33503 0.0
C273 C 0.46299 0.00684 0.34406 0.0
C274 C 0.41006 0.0262 0.35603 0.0
C275 C 0.41229 0.01511 0.38696 0.0
C276 C 0.44021 1.00024 0.39645 0.0
C277 C 0.46515 0.99618 0.37488 0.0
C278 C 0.3806 0.04194 0.3449 0.0
C279 C 0.44357 0.98824 0.42929 0.0
H280 H 0.35129 0.0666 0.46455 0.0
H281 H 0.31849 0.9759 0.42912 0.0
H282 H 0.42842 0.06231 0.43554 0.0
H283 H 0.40644 0.08117 0.40597 0.0
H284 H 0.39849 0.09012 0.44704 0.0
H285 H 0.34524 0.94651 0.39051 0.0
H286 H 0.36567 0.97044 0.36255 0.0
H287 H 0.38756 0.95187 0.3924 0.0
H288 H 0.43347 0.03045 0.31134 0.0
H289 H 0.48642 0.9847 0.38226 0.0
H290 H 0.37498 0.06227 0.36089 0.0
H291 H 0.36022 0.02519 0.34554 0.0
H292 H 0.38306 0.05032 0.32053 0.0
H293 H 0.43913 0.00744 0.44705 0.0
H294 H 0.46739 0.97872 0.43353 0.0
H295 H 0.42566 0.96939 0.4331 0.0
C296 C 0.98705 0.61489 0.70397 0.0
C297 C 0.01094 0.59264 0.70048 0.0
C298 C 0.98321 0.63824 0.68186 0.0
C299 C 0.00316 0.63881 0.65509 0.0
C300 C 0.02684 0.61588 0.65105 0.0
C301 C 0.03078 0.59334 0.67407 0.0
C302 C 0.95827 0.66275 0.68755 0.0
C303 C 0.04805 0.6152 0.62244 0.0
C304 C 0.97498 0.68513 0.58561 0.0
C305 C 0.99371 0.71257 0.58878 0.0
C306 C 0.97819 0.66063 0.60667 0.0
C307 C 0.99995 0.66413 0.632 0.0
C308 C 0.01843 0.69212 0.63559 0.0
C309 C 0.01542 0.71577 0.61367 0.0
C310 C 0.95864 0.63083 0.60158 0.0
C311 C 0.04125 0.6972 0.66273 0.0
H312 H 0.9718 0.61454 0.72448 0.0
H313 H 0.0491 0.57599 0.67119 0.0
H314 H 0.96954 0.68652 0.68909 0.0
H315 H 0.94146 0.66239 0.66751 0.0
H316 H 0.94474 0.65905 0.70958 0.0
H317 H 0.06393 0.59468 0.62181 0.0
H318 H 0.03356 0.61436 0.60063 0.0
H319 H 0.0628 0.63701 0.62225 0.0
H320 H 0.95844 0.68246 0.56616 0.0
H321 H 0.02984 0.73704 0.61626 0.0
H322 H 0.94323 0.62709 0.62229 0.0
H323 H 0.97439 0.61031 0.59921 0.0
H324 H 0.94356 0.6314 0.58021 0.0
H325 H 0.02855 0.69491 0.68543 0.0
H326 H 0.05314 0.7207 0.66271 0.0
H327 H 0.05961 0.67894 0.66162 0.0
C328 C 0.45626 0.04556 0.66437 0.0
C329 C 0.45585 0.02884 0.69229 0.0
C330 C 0.43351 0.0396 0.64068 0.0
C331 C 0.4096 0.01641 0.64495 0.0
C332 C 0.40854 0.99998 0.67333 0.0
C333 C 0.43166 0.00634 0.69661 0.0
C334 C 0.43551 0.05763 0.61076 0.0
C335 C 0.38335 0.97519 0.67885 0.0
C336 C 0.33661 0.0187 0.59265 0.0
C337 C 0.34343 0.99592 0.56893 0.0
C338 C 0.35765 0.02528 0.61776 0.0
C339 C 0.38631 0.00875 0.61926 0.0
C340 C 0.39314 0.9854 0.59572 0.0
C341 C 0.37166 0.97926 0.57091 0.0
C342 C 0.34946 0.05031 0.6424 0.0
C343 C 0.42344 0.96724 0.59645 0.0
H344 H 0.47481 0.06293 0.66063 0.0
H345 H 0.43101 0.99326 0.71802 0.0
H346 H 0.43952 0.04114 0.59035 0.0
H347 H 0.41286 0.06952 0.60656 0.0
H348 H 0.45489 0.07562 0.6115 0.0
H349 H 0.38496 0.96547 0.70271 0.0
H350 H 0.35954 0.9852 0.67599 0.0
H351 H 0.38556 0.9556 0.66104 0.0
H352 H 0.31492 0.03177 0.59146 0.0
H353 H 0.37729 0.96164 0.55278 0.0
H354 H 0.36733 0.06972 0.64218 0.0
H355 H 0.35001 0.04045 0.66621 0.0
H356 H 0.32575 0.06025 0.63851 0.0
H357 H 0.44402 0.98364 0.59478 0.0
H358 H 0.42486 0.94925 0.57688 0.0
H359 H 0.4255 0.95534 0.61914 0.0
C360 C 0.98674 0.33378 0.61083 0.0
C361 C 0.00721 0.32853 0.58518 0.0
C362 C 0.9884 0.3616 0.62934 0.0
C363 C 0.01107 0.38506 0.62212 0.0
C364 C 0.0302 0.38109 0.59487 0.0
C365 C 0.0281 0.35275 0.57665 0.0
C366 C 0.96745 0.36472 0.65811 0.0
C367 C 0.05417 0.40592 0.58605 0.0
C368 C 0.00342 0.45849 0.67536 0.0
C369 C 0.02355 0.4512 0.70021 0.0
C370 C 1.00067 0.43833 0.64833 0.0
C371 C 0.01827 0.41029 0.64639 0.0
C372 C 0.03982 0.40383 0.67062 0.0
C373 C 0.04223 0.42429 0.69703 0.0
C374 C 0.97788 0.4463 0.62265 0.0
C375 C 0.05902 0.37418 0.66971 0.0
H376 H 0.96982 0.31566 0.61718 0.0
H377 H 0.04358 0.34916 0.55655 0.0
H378 H 0.98205 0.36327 0.6797 0.0
H379 H 0.95586 0.38788 0.65911 0.0
H380 H 0.94882 0.34598 0.6585 0.0
H381 H 0.06214 0.40255 0.56124 0.0
H382 H 0.04428 0.42979 0.58935 0.0
H383 H 0.07512 0.40474 0.60163 0.0
H384 H 0.98926 0.47944 0.67731 0.0
H385 H 0.05841 0.41859 0.71565 0.0
H386 H 0.95598 0.43179 0.62476 0.0
H387 H 0.98812 0.44094 0.59903 0.0
H388 H 0.97134 0.47147 0.62423 0.0
H389 H 0.04299 0.35339 0.67163 0.0
H390 H 0.07655 0.37394 0.68916 0.0
H391 H 0.0718 0.37155 0.64699 0.0
C392 C 0.59179 0.03109 0.70387 0.0
C393 C 0.57204 0.00432 0.70526 0.0
C394 C 0.61037 0.03664 0.67728 0.0
C395 C 0.60917 0.01494 0.65125 0.0
C396 C 0.58931 0.98779 0.65241 0.0
C397 C 0.57099 0.98273 0.67952 0.0
C398 C 0.6314 0.06574 0.67714 0.0
C399 C 0.58738 0.9642 0.62502 0.0
C400 C 0.63933 0.04665 0.57397 0.0
C401 C 0.67035 0.03555 0.57309 0.0
C402 C 0.61872 0.03919 0.59871 0.0
C403 C 0.62951 0.0205 0.62331 0.0
C404 C 0.66066 0.00901 0.62239 0.0
C405 C 0.68061 0.01654 0.59729 0.0
C406 C 0.58557 0.05172 0.5988 0.0
C407 C 0.67322 0.98937 0.64836 0.0
H408 H 0.59279 0.04789 0.72369 0.0
H409 H 0.55563 0.96212 0.68042 0.0
H410 H 0.65643 0.05894 0.67404 0.0
H411 H 0.62518 0.08031 0.65701 0.0
H412 H 0.62942 0.08038 0.69925 0.0
H413 H 0.5704 0.94462 0.62938 0.0
H414 H 0.58004 0.97602 0.60341 0.0
H415 H 0.61102 0.95421 0.6203 0.0
H416 H 0.63106 0.06105 0.55524 0.0
H417 H 0.70452 0.00782 0.5969 0.0
H418 H 0.58249 0.06834 0.61929 0.0
H419 H 0.56812 0.0322 0.60137 0.0
H420 H 0.58013 0.06411 0.57694 0.0
H421 H 0.67364 0.00342 0.67091 0.0
H422 H 0.69749 0.98099 0.64337 0.0
H423 H 0.65745 0.96866 0.65174 0.0
C424 C 0.41103 0.33388 0.00116 0.0
C425 C 0.43344 0.33562 0.02552 0.0
C426 C 0.38922 0.35785 0.99744 0.0
C427 C 0.39019 0.38461 0.01823 0.0
C428 C 0.41328 0.3869 0.04246 0.0
C429 C 0.43446 0.36215 0.04606 0.0
C430 C 0.36455 0.35407 0.97179 0.0
C431 C 0.41538 0.41533 0.06474 0.0
C432 C 0.34487 0.45608 0.99273 0.0
C433 C 0.31707 0.45325 0.01043 0.0
C434 C 0.36932 0.43433 0.99553 0.0
C435 C 0.36546 0.40891 0.01597 0.0
C436 C 0.33721 0.40584 0.0335 0.0
C437 C 0.31356 0.42817 0.03074 0.0
C438 C 0.39933 0.43862 0.97684 0.0
C439 C 0.33176 0.37874 0.055 0.0
H440 H 0.41011 0.31336 0.98523 0.0
H441 H 0.45199 0.36373 0.06469 0.0
H442 H 0.34062 0.35338 0.98248 0.0
H443 H 0.36557 0.3745 0.95633 0.0
H444 H 0.36762 0.33225 0.957 0.0
H445 H 0.43617 0.41467 0.08065 0.0
H446 H 0.41689 0.43713 0.05123 0.0
H447 H 0.39368 0.41669 0.07937 0.0
H448 H 0.3478 0.47564 0.97729 0.0
H449 H 0.29204 0.4258 0.04439 0.0
H450 H 0.40264 0.41807 0.96041 0.0
H451 H 0.42 0.43989 0.99295 0.0
H452 H 0.39917 0.46026 0.96298 0.0
H453 H 0.33319 0.35611 0.04128 0.0
H454 H 0.30839 0.37971 0.0669 0.0
H455 H 0.35045 0.37881 0.07331 0.0
C456 C 0.31871 0.62462 0.02643 0.0
C457 C 0.31769 0.59165 0.02598 0.0
C458 C 0.34735 0.64126 0.02376 0.0
C459 C 0.37588 0.62458 0.02074 0.0
C460 C 0.37531 0.59134 0.02197 0.0
C461 C 0.34612 0.57519 0.02458 0.0
C462 C 0.34686 0.67673 0.02298 0.0
C463 C 0.4053 0.57281 0.01922 0.0
C464 C 0.4394 0.67373 0.98172 0.0
C465 C 0.45362 0.68872 0.00812 0.0
C466 C 0.41541 0.6508 0.98535 0.0
C467 C 0.40594 0.64251 0.01607 0.0
C468 C 0.42227 0.65564 0.04259 0.0
C469 C 0.44566 0.67878 0.0383 0.0
C470 C 0.39853 0.63731 0.95646 0.0
C471 C 0.41339 0.64709 0.07569 0.0
H472 H 0.29685 0.6375 0.02773 0.0
H473 H 0.34548 0.54969 0.02389 0.0
H474 H 0.36218 0.68731 0.0419 0.0
H475 H 0.35641 0.68453 1.00015 0.0
H476 H 0.32268 0.6861 0.02604 0.0
H477 H 0.40125 0.54755 0.02395 0.0
H478 H 0.41508 0.57459 0.99509 0.0
H479 H 0.42344 0.58266 0.03588 0.0
H480 H 0.44558 0.68129 0.95836 0.0
H481 H 0.45691 0.68991 0.05883 0.0
H482 H 0.37453 0.6473 0.95533 0.0
H483 H 0.39564 0.61143 0.95773 0.0
H484 H 0.41132 0.64275 0.9344 0.0
H485 H 0.39071 0.65824 0.08229 0.0
H486 H 0.43162 0.65517 0.09316 0.0
H487 H 0.40992 0.62129 0.07721 0.0
C488 C 0.57505 0.35243 0.03251 0.0
C489 C 0.55845 0.35191 0.00385 0.0
C490 C 0.60222 0.37155 0.03721 0.0
C491 C 0.61341 0.39021 0.01249 0.0
C492 C 0.59628 0.39044 0.98383 0.0
C493 C 0.5689 0.3715 0.97995 0.0
C494 C 0.61948 0.37103 0.06829 0.0
C495 C 0.60762 0.40968 0.95672 0.0
C496 C 0.67621 0.45495 0.02551 0.0
C497 C 0.70358 0.4396 0.01502 0.0
C498 C 0.64674 0.43898 0.02583 0.0
C499 C 0.64461 0.40701 0.01528 0.0
C500 C 0.67233 0.39115 0.00583 0.0
C501 C 0.70136 0.40754 0.00594 0.0
C502 C 0.61775 0.45658 0.03645 0.0
C503 C 0.6712 0.35708 0.99442 0.0
H504 H 0.56693 0.33771 0.05129 0.0
H505 H 0.55626 0.37129 0.95775 0.0
H506 H 0.64268 0.35968 0.06479 0.0
H507 H 0.62422 0.39536 0.07762 0.0
H508 H 0.60595 0.35797 0.08621 0.0
H509 H 0.5906 0.40887 0.93678 0.0
H510 H 0.61157 0.43456 0.96468 0.0
H511 H 0.63061 0.40068 0.94801 0.0
H512 H 0.67759 0.47969 0.03255 0.0
H513 H 0.7223 0.39526 0.99803 0.0
H514 H 0.60461 0.44318 0.05434 0.0
H515 H 0.60165 0.45911 0.01612 0.0
H516 H 0.62373 0.48039 0.04659 0.0
H517 H 0.66013 0.3423 0.01252 0.0
H518 H 0.69504 0.34787 0.98891 0.0
H519 H 0.65641 0.35447 0.97287 0.0
C520 C 0.70171 0.60027 0.04093 0.0
C521 C 0.70322 0.57926 0.01474 0.0
C522 C 0.67714 0.62189 0.04423 0.0
C523 C 0.65317 0.62224 0.021 0.0
C524 C 0.65468 0.60124 0.99435 0.0
C525 C 0.67981 0.58014 0.99143 0.0
C526 C 0.67664 0.64411 0.0728 0.0
C527 C 0.62937 0.60059 0.96928 0.0
C528 C 0.57369 0.65466 0.0468 0.0
C529 C 0.57445 0.68474 0.03426 0.0
C530 C 0.59895 0.63402 0.0423 0.0
C531 C 0.62594 0.64378 0.02525 0.0
C532 C 0.62702 0.67419 0.01275 0.0
C533 C 0.60117 0.69421 0.01718 0.0
C534 C 0.59665 0.60166 0.05568 0.0
C535 C 0.65557 0.68565 0.99486 0.0
H536 H 0.71981 0.59987 0.05896 0.0
H537 H 0.68077 0.56389 0.97119 0.0
H538 H 0.67531 0.66877 0.06535 0.0
H539 H 0.65531 0.63929 0.08716 0.0
H540 H 0.69786 0.64193 0.08791 0.0
H541 H 0.63434 0.58337 0.94967 0.0
H542 H 0.60618 0.5944 0.97983 0.0
H543 H 0.62719 0.62424 0.95944 0.0
H544 H 0.55305 0.64695 0.05974 0.0
H545 H 0.60202 0.7174 0.00745 0.0
H546 H 0.61601 0.59866 0.07285 0.0
H547 H 0.59948 0.58344 0.03656 0.0
H548 H 0.57372 0.59739 0.0677 0.0
H549 H 0.6769 0.68503 0.01 0.0
H550 H 0.65283 0.70999 0.98681 0.0
H551 H 0.6598 0.66984 0.97397 0.0
C552 C 0.4856 0.84332 0.94682 0.0
C553 C 0.50695 0.81857 0.94435 0.0
C554 C 0.48621 0.86749 0.9251 0.0
C555 C 0.50809 0.86635 0.89981 0.0
C556 C 0.52921 0.84097 0.89686 0.0
C557 C 0.52869 0.81766 0.91943 0.0
C558 C 0.46385 0.89454 0.92953 0.0
C559 C 0.55232 0.83839 0.86981 0.0
C560 C 0.49037 0.91359 0.8277 0.0
C561 C 0.51178 0.939 0.83143 0.0
C562 C 0.48909 0.88966 0.84963 0.0
C563 C 0.50903 0.8917 0.87644 0.0
C564 C 0.53027 0.91767 0.88062 0.0
C565 C 0.53174 0.94076 0.85779 0.0
C566 C 0.46676 0.86196 0.84382 0.0
C567 C 0.55133 0.92115 0.90928 0.0
H568 H 0.46895 0.84425 0.96625 0.0
H569 H 0.54513 0.79845 0.91736 0.0
H570 H 0.47749 0.91704 0.9318 0.0
H571 H 0.44837 0.89593 0.90858 0.0
H572 H 0.44872 0.89225 0.95075 0.0
H573 H 0.5662 0.81651 0.87016 0.0
H574 H 0.53947 0.83882 0.84705 0.0
H575 H 0.56898 0.85883 0.87073 0.0
H576 H 0.47504 0.91207 0.80723 0.0
H577 H 0.54812 0.96053 0.86087 0.0
H578 H 0.44976 0.8603 0.8636 0.0
H579 H 0.48024 0.83983 0.84273 0.0
H580 H 0.45324 0.86364 0.82154 0.0
H581 H 0.53682 0.92048 0.93104 0.0
H582 H 0.56542 0.94346 0.90977 0.0
H583 H 0.56781 0.90122 0.90975 0.0
C584 C 0.16871 0.49569 0.94171 0.0
C585 C 0.19139 0.51925 0.9489 0.0
C586 C 0.14456 0.5007 0.91974 0.0
C587 C 0.1434 0.5298 0.90454 0.0
C588 C 0.16575 0.55387 0.91245 0.0
C589 C 0.18935 0.54834 0.93452 0.0
C590 C 0.12088 0.47458 0.91206 0.0
C591 C 0.16567 0.58506 0.89655 0.0
C592 C 0.11033 0.52907 0.82173 0.0
C593 C 0.08083 0.54284 0.82639 0.0
C594 C 0.13084 0.52487 0.84698 0.0
C595 C 0.12129 0.534 0.87786 0.0
C596 C 0.0915 0.54815 0.88276 0.0
C597 C 0.07163 0.55273 0.85678 0.0
C598 C 0.16268 0.51044 0.84056 0.0
C599 C 0.08038 0.5577 0.91544 0.0
H600 H 0.17 0.47329 0.95295 0.0
H601 H 0.20671 0.56678 0.93999 0.0
H602 H 0.09648 0.48365 0.91334 0.0
H603 H 0.1247 0.46536 0.88759 0.0
H604 H 0.12284 0.4548 0.92827 0.0
H605 H 0.18322 0.60213 0.90705 0.0
H606 H 0.17122 0.58136 0.87114 0.0
H607 H 0.14192 0.59558 0.89816 0.0
H608 H 0.11726 0.52125 0.79816 0.0
H609 H 0.04846 0.56269 0.86037 0.0
H610 H 0.16473 0.48836 0.85342 0.0
H611 H 0.18182 0.52671 0.84924 0.0
H612 H 0.16661 0.50505 0.81506 0.0
H613 H 0.07959 0.53687 0.9304 0.0
H614 H 0.05656 0.56824 0.91528 0.0
H615 H 0.0973 0.57495 0.9266 0.0
C616 C 0.48385 0.0879 0.85256 0.0
C617 C 0.51304 0.07705 0.84175 0.0
C618 C 0.48238 0.1103 0.87774 0.0
C619 C 0.51075 0.12166 0.89234 0.0
C620 C 0.53988 0.1082 0.88342 0.0
C621 C 0.5407 0.08632 0.85795 0.0
C622 C 0.45083 0.12401 0.88659 0.0
C623 C 0.57062 0.11915 0.8986 0.0
C624 C 0.51254 0.2086 0.915 0.0
C625 C 0.50829 0.20864 0.94773 0.0
C626 C 0.51398 0.18043 0.89702 0.0
C627 C 0.51077 0.15138 0.91204 0.0
C628 C 0.50753 0.15114 0.94526 0.0
C629 C 0.50649 0.17987 0.96281 0.0
C630 C 0.51816 0.18186 0.86173 0.0
C631 C 0.504 0.12067 0.96209 0.0
H632 H 0.46254 0.08087 0.83978 0.0
H633 H 0.56328 0.07778 0.84949 0.0
H634 H 0.44833 0.12637 0.91257 0.0
H635 H 0.44926 0.14791 0.87716 0.0
H636 H 0.43081 0.10942 0.8769 0.0
H637 H 0.59002 0.10253 0.89327 0.0
H638 H 0.57756 0.14245 0.88963 0.0
H639 H 0.56799 0.12193 0.92454 0.0
H640 H 0.51416 0.23079 0.90329 0.0
H641 H 0.50283 0.17982 0.98809 0.0
H642 H 0.49738 0.17078 0.84953 0.0
H643 H 0.53929 0.1685 0.85414 0.0
H644 H 0.52097 0.20636 0.85386 0.0
H645 H 0.48108 0.10913 0.95555 0.0
H646 H 0.50479 0.12435 0.98812 0.0
H647 H 0.52292 0.10424 0.95474 0.0
C648 C 0.93797 0.52567 0.83698 0.0
C649 C 0.9637 0.50686 0.84431 0.0
C650 C 0.91265 0.52982 0.85804 0.0
C651 C 0.91295 0.51485 0.88726 0.0
C652 C 0.9389 0.49604 0.89497 0.0
C653 C 0.96392 0.49225 0.87343 0.0
C654 C 0.88537 0.54996 0.84887 0.0
C655 C 0.9401 0.47969 0.9259 0.0
C656 C 0.85788 0.54452 0.95259 0.0
C657 C 0.83305 0.52229 0.95027 0.0
C658 C 0.8842 0.54235 0.93236 0.0
C659 C 0.88541 0.51764 0.90906 0.0
C660 C 0.86015 0.49543 0.90644 0.0
C661 C 0.83444 0.49791 0.92717 0.0
C662 C 0.91082 0.5663 0.93608 0.0
C663 C 0.86027 0.46897 0.8817 0.0
H664 H 0.93752 0.53724 0.81467 0.0
H665 H 0.9837 0.47784 0.87951 0.0
H666 H 0.86325 0.53554 0.84772 0.0
H667 H 0.88184 0.56904 0.86699 0.0
H668 H 0.88912 0.56072 0.82569 0.0
H669 H 0.96248 0.46688 0.92889 0.0
H670 H 0.93763 0.49708 0.94583 0.0
H671 H 0.92003 0.46265 0.92733 0.0
H672 H 0.85699 0.56329 0.97052 0.0
H673 H 0.81525 0.48072 0.92516 0.0
H674 H 0.91429 0.5787 0.91378 0.0
H675 H 0.93322 0.55429 0.94111 0.0
H676 H 0.90635 0.584 0.95537 0.0
H677 H 0.86226 0.47869 0.85788 0.0
H678 H 0.83857 0.45391 0.8825 0.0
H679 H 0.8811 0.454 0.88505 0.0
C680 C 0.53108 0.09046 0.17236 0.0
C681 C 0.51067 0.08965 0.19834 0.0
C682 C 0.5277 0.11312 0.14935 0.0
C683 C 0.5039 0.13601 0.15289 0.0
C684 C 0.4833 0.13527 0.17915 0.0
C685 C 0.48669 0.11187 0.20131 0.0
C686 C 0.54968 0.11268 0.12132 0.0
C687 C 0.45816 0.15966 0.18428 0.0
C688 C 0.51707 0.21346 0.11247 0.0
C689 C 0.49615 0.21039 0.0869 0.0
C690 C 0.51956 0.18959 0.13424 0.0
C691 C 0.50131 0.16152 0.12987 0.0
C692 C 0.48034 0.15816 0.10388 0.0
C693 C 0.47769 0.18284 0.08292 0.0
C694 C 0.54159 0.19451 0.16204 0.0
C695 C 0.46103 0.12834 0.09799 0.0
H696 H 0.54949 0.07317 0.16986 0.0
H697 H 0.47096 0.11147 0.22147 0.0
H698 H 0.5358 0.11199 0.09913 0.0
H699 H 0.56442 0.13452 0.12169 0.0
H700 H 0.56557 0.09218 0.12098 0.0
H701 H 0.44394 0.15571 0.20583 0.0
H702 H 0.46933 0.18345 0.1864 0.0
H703 H 0.44198 0.15946 0.16373 0.0
H704 H 0.5313 0.23478 0.1157 0.0
H705 H 0.46176 0.18025 0.06295 0.0
H706 H 0.55997 0.17625 0.16134 0.0
H707 H 0.52824 0.19206 0.18435 0.0
H708 H 0.55349 0.21801 0.16249 0.0
H709 H 0.47688 0.10788 0.09593 0.0
H710 H 0.44657 0.12903 0.0762 0.0
H711 H 0.44503 0.12439 0.11822 0.0
C712 C 0.96666 0.54098 0.15983 0.0
C713 C 0.96471 0.52729 0.18939 0.0
C714 C 0.9432 0.53526 0.13681 0.0
C715 C 0.917 0.51537 0.1434 0.0
C716 C 0.91455 0.50189 0.17332 0.0
C717 C 0.9384 0.50797 0.19592 0.0
C718 C 0.94674 0.55009 0.1052 0.0
C719 C 0.88696 0.48062 0.18129 0.0
C720 C 0.84402 0.52115 0.09157 0.0
C721 C 0.84805 0.49597 0.06967 0.0
C722 C 0.866 0.52747 0.11593 0.0
C723 C 0.89264 0.50811 0.11863 0.0
C724 C 0.89653 0.48229 0.09704 0.0
C725 C 0.87428 0.47658 0.07283 0.0
C726 C 0.86103 0.55528 0.13841 0.0
C727 C 0.92454 0.46099 0.09917 0.0
H728 H 0.98685 0.55586 0.15438 0.0
H729 H 0.93656 0.49724 0.21861 0.0
H730 H 0.94845 0.53147 0.08631 0.0
H731 H 0.92559 0.56407 0.10013 0.0
H732 H 0.96803 0.56568 0.10408 0.0
H733 H 0.88799 0.47277 0.20593 0.0
H734 H 0.8644 0.49294 0.17794 0.0
H735 H 0.88659 0.45954 0.1651 0.0
H736 H 0.82395 0.53638 0.08939 0.0
H737 H 0.87767 0.45703 0.05616 0.0
H738 H 0.88087 0.57249 0.13626 0.0
H739 H 0.86091 0.54757 0.16308 0.0
H740 H 0.83853 0.56737 0.13387 0.0
H741 H 0.94675 0.47471 0.09577 0.0
H742 H 0.92356 0.44127 0.08128 0.0
H743 H 0.92563 0.45107 0.12294 0.0
C744 C 0.53198 0.84869 0.08018 0.0
C745 C 0.50505 0.82906 0.07971 0.0
C746 C 0.53311 0.87621 0.09967 0.0
C747 C 0.50659 0.88415 0.11865 0.0
C748 C 0.47832 0.86608 0.1155 0.0
C749 C 0.47799 0.83866 0.09626 0.0
C750 C 0.56363 0.89501 0.10219 0.0
C751 C 0.44935 0.87376 0.1349 0.0
C752 C 0.52178 0.91416 0.20221 0.0
C753 C 0.51443 0.94614 0.20112 0.0
C754 C 0.51996 0.89423 0.17536 0.0
C755 C 0.5103 0.90632 0.1464 0.0
C756 C 0.50254 0.9385 0.14493 0.0
C757 C 0.50466 0.95811 0.17241 0.0
C758 C 0.52818 0.86 0.1782 0.0
C759 C 0.49206 0.95212 0.11443 0.0
H760 H 0.55282 0.84144 0.06716 0.0
H761 H 0.45684 0.82386 0.09532 0.0
H762 H 0.55901 0.9206 0.10373 0.0
H763 H 0.57617 0.88896 0.12404 0.0
H764 H 0.57944 0.88995 0.0818 0.0
H765 H 0.4279 0.86113 0.1256 0.0
H766 H 0.45316 0.86675 0.15951 0.0
H767 H 0.44498 0.89938 0.13556 0.0
H768 H 0.52917 0.9045 0.22423 0.0
H769 H 0.49918 0.98283 0.17127 0.0
H770 H 0.54705 0.85352 0.16114 0.0
H771 H 0.50719 0.84485 0.17247 0.0
H772 H 0.53639 0.85464 0.20223 0.0
H773 H 0.5103 0.94813 0.09601 0.0
H774 H 0.48769 0.97775 0.117 0.0
H775 H 0.47005 0.94001 0.10596 0.0
C776 C 0.14502 0.54583 0.07961 0.0
C777 C 0.17238 0.52873 0.07281 0.0
C778 C 0.12499 0.53771 0.10458 0.0
C779 C 0.13251 0.5119 0.12317 0.0
C780 C 0.15947 0.49394 0.11578 0.0
C781 C 0.17905 0.50256 0.09076 0.0
C782 C 0.09638 0.55741 0.11175 0.0
C783 C 0.16832 0.46629 0.13504 0.0
C784 C 0.1051 0.51704 0.20805 0.0
C785 C 0.07852 0.49689 0.20749 0.0
C786 C 0.12314 0.52153 0.18092 0.0
C787 C 0.11417 0.50577 0.15229 0.0
C788 C 0.08774 0.48475 0.15168 0.0
C789 C 0.07026 0.48037 0.17946 0.0
C790 C 0.15142 0.54376 0.18277 0.0
C791 C 0.07737 0.46774 0.12151 0.0
H792 H 0.13947 0.5659 0.06577 0.0
H793 H 0.1999 0.48889 0.08558 0.0
H794 H 0.07497 0.54215 0.11365 0.0
H795 H 0.09962 0.57021 0.13481 0.0
H796 H 0.09223 0.57488 0.09346 0.0
H797 H 0.18843 0.45311 0.12459 0.0
H798 H 0.175 0.47471 0.15922 0.0
H799 H 0.14782 0.44988 0.1372 0.0
H800 H 0.11153 0.52978 0.22978 0.0
H801 H 0.04945 0.46511 0.17893 0.0
H802 H 0.1477 0.56374 0.16722 0.0
H803 H 0.17291 0.53151 0.17432 0.0
H804 H 0.15583 0.5533 0.20712 0.0
H805 H 0.06993 0.48508 0.10423 0.0
H806 H 0.05739 0.451 0.1253 0.0
H807 H 0.09738 0.45464 0.11085 0.0
C808 C 0.81052 0.9313 0.53369 0.0
C809 C 0.81498 0.95688 0.51419 0.0
C810 C 0.83405 0.90891 0.53696 0.0
C811 C 0.86315 0.91257 0.52096 0.0
C812 C 0.86804 0.93869 0.5016 0.0
C813 C 0.84366 0.96037 0.4981 0.0
C814 C 0.8275 0.88101 0.55712 0.0
C815 C 0.89899 0.9437 0.48466 0.0
C816 C 0.93085 0.86394 0.55106 0.0
C817 C 0.93042 0.8384 0.52925 0.0
C818 C 0.90979 0.8889 0.54811 0.0
C819 C 0.88753 0.88792 0.52309 0.0
C820 C 0.88718 0.8622 0.50101 0.0
C821 C 0.90873 0.83794 0.50424 0.0
C822 C 0.91113 0.91618 0.57185 0.0
C823 C 0.86349 0.85986 0.47436 0.0
H824 H 0.7883 0.92851 0.54611 0.0
H825 H 0.8473 0.9804 0.48338 0.0
H826 H 0.82911 0.8589 0.54254 0.0
H827 H 0.84552 0.88005 0.576 0.0
H828 H 0.80372 0.88179 0.56822 0.0
H829 H 0.89978 0.9662 0.4722 0.0
H830 H 0.91887 0.94367 0.50169 0.0
H831 H 0.90278 0.9241 0.4672 0.0
H832 H 0.94775 0.86451 0.57026 0.0
H833 H 0.90822 0.81825 0.48729 0.0
H834 H 0.88881 0.917 0.58554 0.0
H835 H 0.91345 0.93867 0.55956 0.0
H836 H 0.93118 0.9145 0.58856 0.0
H837 H 0.83915 0.85907 0.48407 0.0
H838 H 0.86683 0.83863 0.45878 0.0
H839 H 0.86544 0.88095 0.45985 0.0
C840 C 0.94359 0.18189 0.53719 0.0
C841 C 0.95173 0.19241 0.50727 0.0
C842 C 0.92006 0.1588 0.54094 0.0
C843 C 0.90384 0.14623 0.51413 0.0
C844 C 0.9135 0.15504 0.48363 0.0
C845 C 0.93758 0.17799 0.48053 0.0
C846 C 0.9109 0.14977 0.57384 0.0
C847 C 0.89679 0.14205 0.45444 0.0
C848 C 0.844 0.07896 0.52247 0.0
C849 C 0.8156 0.09545 0.52408 0.0
C850 C 0.87316 0.09507 0.51956 0.0
C851 C 0.87373 0.12831 0.51838 0.0
C852 C 0.84521 0.14501 0.52152 0.0
C853 C 0.81658 0.1284 0.52433 0.0
C854 C 0.90312 0.07652 0.51652 0.0
C855 C 0.84477 0.1805 0.52093 0.0
H856 H 0.95475 0.19255 0.55798 0.0
H857 H 0.94391 0.18597 0.45737 0.0
H858 H 0.88815 0.16082 0.58039 0.0
H859 H 0.90742 0.12394 0.57496 0.0
H860 H 0.92896 0.1576 0.59157 0.0
H861 H 0.90984 0.14767 0.43258 0.0
H862 H 0.89369 0.11616 0.45535 0.0
H863 H 0.87289 0.15223 0.45322 0.0
H864 H 0.84334 0.05346 0.52187 0.0
H865 H 0.79471 0.14125 0.52572 0.0
H866 H 0.92118 0.08595 0.53348 0.0
H867 H 0.91306 0.07887 0.49252 0.0
H868 H 0.899 0.05113 0.52063 0.0
H869 H 0.86008 0.19094 0.53993 0.0
H870 H 0.8206 0.18988 0.52402 0.0
H871 H 0.85437 0.18843 0.49817 0.0
C872 C 0.06457 0.87094 0.47698 0.0
C873 C 0.05468 0.85162 0.50131 0.0
C874 C 0.0921 0.88983 0.48002 0.0
C875 C 0.10997 0.88977 0.50824 0.0
C876 C 0.09945 0.87124 0.53333 0.0
C877 C 0.07211 0.85223 0.52948 0.0
C878 C 0.10271 0.90896 0.45256 0.0
C879 C 0.11756 0.8708 0.56394 0.0
C880 C 0.19785 0.90744 0.50089 0.0
C881 C 0.20013 0.93936 0.51056 0.0
C882 C 0.1688 0.89107 0.50057 0.0
C883 C 0.14111 0.90678 0.51036 0.0
C884 C 0.14325 0.93866 0.52121 0.0
C885 C 0.17274 0.95462 0.52113 0.0
C886 C 0.16764 0.85709 0.48885 0.0
C887 C 0.11428 0.95611 0.53215 0.0
H888 H 0.05128 0.87068 0.45515 0.0
H889 H 0.06446 0.83772 0.54861 0.0
H890 H 0.10673 0.93389 0.46033 0.0
H891 H 0.12554 0.90002 0.44337 0.0
H892 H 0.08523 0.90798 0.43302 0.0
H893 H 0.10472 0.85749 0.58215 0.0
H894 H 0.14083 0.8598 0.55978 0.0
H895 H 0.12218 0.89515 0.57327 0.0
H896 H 0.21878 0.89523 0.49284 0.0
H897 H 0.17414 0.97925 0.52859 0.0
H898 H 0.15235 0.85455 0.46764 0.0
H899 H 0.15712 0.84208 0.50707 0.0
H900 H 0.19142 0.84808 0.48269 0.0
H901 H 0.09765 0.95806 0.51216 0.0
H902 H 0.12017 0.98015 0.54176 0.0
H903 H 0.10176 0.94289 0.55058 0.0
C904 C 0.07175 0.15485 0.54234 0.0
C905 C 0.07258 0.18531 0.53068 0.0
C906 C 0.09686 0.1342 0.53715 0.0
C907 C 0.12379 0.14429 0.5202 0.0
C908 C 0.12486 0.17497 0.50834 0.0
C909 C 0.09915 0.19504 0.51351 0.0
C910 C 0.0946 0.10157 0.54992 0.0
C911 C 0.15333 0.18673 0.49051 0.0
C912 C 0.19922 0.10057 0.53645 0.0
C913 C 0.20083 0.07949 0.51033 0.0
C914 C 0.17484 0.12241 0.53943 0.0
C915 C 0.15116 0.12294 0.51592 0.0
C916 C 0.15288 0.10199 0.48924 0.0
C917 C 0.17783 0.08064 0.48665 0.0
C918 C 0.17411 0.14454 0.56806 0.0
C919 C 0.12789 0.10157 0.46385 0.0
H920 H 0.05122 0.14691 0.55532 0.0
H921 H 0.10005 0.2185 0.50441 0.0
H922 H 0.09782 0.08367 0.53056 0.0
H923 H 0.11375 0.09844 0.56729 0.0
H924 H 0.07154 0.09694 0.56155 0.0
H925 H 0.15032 0.21102 0.48242 0.0
H926 H 0.1746 0.1864 0.50576 0.0
H927 H 0.15785 0.17094 0.46968 0.0
H928 H 0.21703 0.09999 0.55475 0.0
H929 H 0.17891 0.06436 0.46645 0.0
H930 H 0.15277 0.1395 0.58234 0.0
H931 H 0.17263 0.16922 0.56072 0.0
H932 H 0.1953 0.14245 0.58322 0.0
H933 H 0.10465 0.09489 0.474 0.0
H934 H 0.13329 0.08477 0.44401 0.0
H935 H 0.12554 0.12539 0.45445 0.0
loop_
_geom_bond_atom_site_label_1
_geom_bond_atom_site_label_2
_geom_bond_distance
_geom_bond_site_symmetry_2
_ccdc_geom_bond_type
Co0 O1 2.216 1_455 S
Co0 O2 2.091 . S
Co0 O4 2.004 . S
Co0 O10 2.021 . S
Co0 O12 2.137 1_455 S
Co0 O13 2.244 1_455 S
O1 Co0 2.216 1_655 S
O1 C8 1.247 . S
O2 Co0 2.091 . S
O2 C8 1.261 1_455 S
C3 O12 1.247 . S
C3 O13 1.272 . S
O4 Co0 2.004 . S
O4 C9 1.259 . S
Co5 O6 2.061 1_655 S
Co5 O11 2.052 . S
Co5 O13 2.135 . S
O6 Co5 2.061 1_455 S
O6 C9 1.235 . S
C7 O10 1.238 . S
C7 O11 1.241 1_455 S
C8 O1 1.247 . S
C8 O2 1.261 1_655 S
C9 O4 1.259 . S
C9 O6 1.235 . S
O10 Co0 2.021 . S
O10 C7 1.238 . S
O11 Co5 2.052 . S
O11 C7 1.241 1_655 S
O12 Co0 2.137 1_655 S
O12 C3 1.247 . S
O13 Co0 2.244 1_655 S
O13 C3 1.272 . S
O13 Co5 2.135 . S
Co14 O15 2.208 1_545 S
Co14 O16 2.071 1_545 S
Co14 O18 2.006 . S
Co14 O24 2.038 . S
Co14 O26 2.127 1_545 S
Co14 O27 2.258 . S
O15 Co14 2.208 1_565 S
O15 C22 1.247 . S
O16 Co14 2.071 1_565 S
O16 C22 1.261 . S
C17 O26 1.247 1_545 S
C17 O27 1.272 . S
O18 Co14 2.006 . S
O18 C23 1.259 . S
Co19 O20 2.061 . S
Co19 O25 2.052 . S
Co19 O27 2.135 . S
O20 Co19 2.061 . S
O20 C23 1.235 . S
C21 O24 1.238 . S
C21 O25 1.241 . S
C22 O15 1.247 . S
C22 O16 1.261 . S
C23 O18 1.259 . S
C23 O20 1.235 . S
O24 Co14 2.038 . S
O24 C21 1.238 . S
O25 Co19 2.052 . S
O25 C21 1.241 . S
O26 Co14 2.127 1_565 S
O26 C17 1.247 1_565 S
O27 Co14 2.258 . S
O27 C17 1.272 . S
O27 Co19 2.135 . S
Co28 O29 2.216 1_455 S
Co28 O30 2.091 . S
Co28 O32 2.004 . S
Co28 O38 2.021 . S
Co28 O40 2.137 1_455 S
Co28 O41 2.244 1_455 S
O29 Co28 2.216 1_655 S
O29 C36 1.247 1_655 S
O30 Co28 2.091 . S
O30 C36 1.261 . S
C31 O40 1.247 . S
C31 O41 1.272 . S
O32 Co28 2.004 . S
O32 C37 1.259 . S
Co33 O34 2.060 1_655 S
Co33 O39 2.052 1_655 S
Co33 O41 2.135 . S
O34 Co33 2.060 1_455 S
O34 C37 1.235 . S
C35 O38 1.238 . S
C35 O39 1.241 . S
C36 O29 1.247 1_455 S
C36 O30 1.261 . S
C37 O32 1.259 . S
C37 O34 1.235 . S
O38 Co28 2.021 . S
O38 C35 1.238 . S
O39 Co33 2.052 1_455 S
O39 C35 1.241 . S
O40 Co28 2.137 1_655 S
O40 C31 1.247 . S
O41 Co28 2.244 1_655 S
O41 C31 1.272 . S
O41 Co33 2.135 . S
Co42 O43 2.216 . S
Co42 O44 2.091 . S
Co42 O46 2.004 . S
Co42 O52 2.021 1_545 S
Co42 O54 2.137 . S
Co42 O55 2.244 . S
O43 Co42 2.216 . S
O43 C50 1.247 . S
O44 Co42 2.091 . S
O44 C50 1.261 . S
C45 O54 1.247 . S
C45 O55 1.272 . S
O46 Co42 2.004 . S
O46 C51 1.259 . S
Co47 O48 2.061 . S
Co47 O53 2.052 . S
Co47 O55 2.135 1_565 S
O48 Co47 2.061 . S
O48 C51 1.235 1_565 S
C49 O52 1.238 . S
C49 O53 1.241 . S
C50 O43 1.247 . S
C50 O44 1.261 . S
C51 O46 1.259 . S
C51 O48 1.235 1_545 S
O52 Co42 2.021 1_565 S
O52 C49 1.238 . S
O53 Co47 2.052 . S
O53 C49 1.241 . S
O54 Co42 2.137 . S
O54 C45 1.247 . S
O55 Co42 2.244 . S
O55 C45 1.272 . S
O55 Co47 2.135 1_545 S
Co56 O57 2.216 . S
Co56 O58 2.091 . S
Co56 O60 2.004 . S
Co56 O66 2.021 1_545 S
Co56 O68 2.137 . S
Co56 O69 2.244 1_545 S
O57 Co56 2.216 . S
O57 C64 1.247 . S
O58 Co56 2.091 . S
O58 C64 1.261 . S
C59 O68 1.247 . S
C59 O69 1.272 1_545 S
O60 Co56 2.004 . S
O60 C65 1.258 1_545 S
Co61 O62 2.061 . S
Co61 O67 2.052 . S
Co61 O69 2.135 . S
O62 Co61 2.061 . S
O62 C65 1.236 . S
C63 O66 1.238 . S
C63 O67 1.241 . S
C64 O57 1.247 . S
C64 O58 1.261 . S
C65 O60 1.258 1_565 S
C65 O62 1.236 . S
O66 Co56 2.021 1_565 S
O66 C63 1.238 . S
O67 Co61 2.052 . S
O67 C63 1.241 . S
O68 Co56 2.137 . S
O68 C59 1.247 . S
O69 Co56 2.244 1_565 S
O69 C59 1.272 1_565 S
O69 Co61 2.135 . S
Co70 O71 2.216 . S
Co70 O72 2.091 1_455 S
Co70 O74 2.004 1_455 S
Co70 O80 2.021 1_455 S
Co70 O82 2.137 . S
Co70 O83 2.244 . S
O71 Co70 2.216 . S
O71 C78 1.247 . S
O72 Co70 2.091 1_655 S
O72 C78 1.261 1_655 S
C73 O82 1.247 . S
C73 O83 1.272 . S
O74 Co70 2.004 1_655 S
O74 C79 1.259 . S
Co75 O76 2.061 1_455 S
Co75 O81 2.052 . S
Co75 O83 2.135 . S
O76 Co75 2.061 1_655 S
O76 C79 1.235 . S
C77 O80 1.238 1_455 S
C77 O81 1.241 . S
C78 O71 1.247 . S
C78 O72 1.261 1_455 S
C79 O74 1.259 . S
C79 O76 1.235 . S
O80 Co70 2.021 1_655 S
O80 C77 1.238 1_655 S
O81 Co75 2.052 . S
O81 C77 1.241 . S
O82 Co70 2.137 . S
O82 C73 1.247 . S
O83 Co70 2.244 . S
O83 C73 1.272 . S
O83 Co75 2.135 . S
Co84 O85 2.216 1_545 S
Co84 O86 2.091 1_545 S
Co84 O88 2.004 . S
Co84 O94 2.021 . S
Co84 O96 2.137 1_545 S
Co84 O97 2.244 . S
O85 Co84 2.216 1_565 S
O85 C92 1.247 . S
O86 Co84 2.091 1_565 S
O86 C92 1.261 . S
C87 O96 1.247 1_545 S
C87 O97 1.272 . S
O88 Co84 2.004 . S
O88 C93 1.259 . S
Co89 O90 2.061 . S
Co89 O95 2.052 . S
Co89 O97 2.135 . S
O90 Co89 2.061 . S
O90 C93 1.235 . S
C91 O94 1.238 . S
C91 O95 1.241 . S
C92 O85 1.247 . S
C92 O86 1.261 . S
C93 O88 1.259 . S
C93 O90 1.235 . S
O94 Co84 2.021 . S
O94 C91 1.238 . S
O95 Co89 2.052 . S
O95 C91 1.241 . S
O96 Co84 2.137 1_565 S
O96 C87 1.247 1_565 S
O97 Co84 2.244 . S
O97 C87 1.272 . S
O97 Co89 2.135 . S
Co98 O99 2.216 . S
Co98 O100 2.091 1_455 S
Co98 O102 2.004 1_455 S
Co98 O108 2.021 1_455 S
Co98 O110 2.137 . S
Co98 O111 2.244 . S
O99 Co98 2.216 . S
O99 C106 1.247 . S
O100 Co98 2.091 1_655 S
O100 C106 1.261 1_655 S
C101 O110 1.247 . S
C101 O111 1.272 . S
O102 Co98 2.004 1_655 S
O102 C107 1.259 . S
Co103 O104 2.061 1_455 S
Co103 O109 2.052 . S
Co103 O111 2.135 . S
O104 Co103 2.061 1_655 S
O104 C107 1.235 . S
C105 O108 1.237 . S
C105 O109 1.242 1_655 S
C106 O99 1.247 . S
C106 O100 1.261 1_455 S
C107 O102 1.259 . S
C107 O104 1.235 . S
O108 Co98 2.021 1_655 S
O108 C105 1.237 . S
O109 Co103 2.052 . S
O109 C105 1.242 1_455 S
O110 Co98 2.137 . S
O110 C101 1.247 . S
O111 Co98 2.244 . S
O111 C101 1.272 . S
O111 Co103 2.135 . S
Co112 O113 2.216 1_554 S
Co112 O114 2.091 . S
Co112 O116 2.004 . S
Co112 O122 2.021 . S
Co112 O124 2.137 1_554 S
Co112 O125 2.244 1_554 S
O113 Co112 2.216 1_556 S
O113 C120 1.247 1_556 S
O114 Co112 2.091 . S
O114 C120 1.261 . S
C115 O124 1.247 . S
C115 O125 1.272 . S
O116 Co112 2.004 . S
O116 C121 1.259 . S
Co117 O118 2.061 . S
Co117 O123 2.052 . S
Co117 O125 2.135 1_554 S
O118 Co117 2.061 . S
O118 C121 1.235 . S
C119 O122 1.238 . S
C119 O123 1.241 . S
C120 O113 1.247 1_554 S
C120 O114 1.261 . S
C121 O116 1.259 . S
C121 O118 1.235 . S
O122 Co112 2.021 . S
O122 C119 1.238 . S
O123 Co117 2.052 . S
O123 C119 1.241 . S
O124 Co112 2.137 1_556 S
O124 C115 1.247 . S
O125 Co112 2.244 1_556 S
O125 C115 1.272 . S
O125 Co117 2.135 1_556 S
Co126 O127 2.216 . S
Co126 O128 2.091 . S
Co126 O130 2.004 . S
Co126 O136 2.021 1_554 S
Co126 O138 2.137 . S
Co126 O139 2.244 1_554 S
O127 Co126 2.216 . S
O127 C134 1.247 . S
O128 Co126 2.091 . S
O128 C134 1.261 . S
C129 O138 1.247 . S
C129 O139 1.272 1_554 S
O130 Co126 2.004 . S
O130 C135 1.259 1_554 S
Co131 O132 2.061 . S
Co131 O137 2.052 . S
Co131 O139 2.135 . S
O132 Co131 2.061 . S
O132 C135 1.235 . S
C133 O136 1.238 . S
C133 O137 1.241 . S
C134 O127 1.247 . S
C134 O128 1.261 . S
C135 O130 1.259 1_556 S
C135 O132 1.235 . S
O136 Co126 2.021 1_556 S
O136 C133 1.238 . S
O137 Co131 2.052 . S
O137 C133 1.241 . S
O138 Co126 2.137 . S
O138 C129 1.247 . S
O139 Co126 2.244 1_556 S
O139 C129 1.272 1_556 S
O139 Co131 2.135 . S
Co140 O141 2.216 1_554 S
Co140 O142 2.091 . S
Co140 O144 2.004 . S
Co140 O150 2.021 . S
Co140 O152 2.137 1_554 S
Co140 O153 2.244 1_554 S
O141 Co140 2.216 1_556 S
O141 C148 1.247 1_556 S
O142 Co140 2.091 . S
O142 C148 1.261 . S
C143 O152 1.247 . S
C143 O153 1.272 . S
O144 Co140 2.004 . S
O144 C149 1.259 . S
Co145 O146 2.056 1_556 S
Co145 O151 2.051 1_556 S
Co145 O153 2.137 . S
O146 Co145 2.056 1_554 S
O146 C149 1.235 . S
C147 O150 1.238 . S
C147 O151 1.241 . S
C148 O141 1.247 1_554 S
C148 O142 1.261 . S
C149 O144 1.259 . S
C149 O146 1.235 . S
O150 Co140 2.021 . S
O150 C147 1.238 . S
O151 Co145 2.051 1_554 S
O151 C147 1.241 . S
O152 Co140 2.137 1_556 S
O152 C143 1.247 . S
O153 Co140 2.244 1_556 S
O153 C143 1.272 . S
O153 Co145 2.137 . S
Co154 O155 2.216 1_554 S
Co154 O156 2.091 1_554 S
Co154 O158 2.004 . S
Co154 O164 2.021 . S
Co154 O166 2.137 1_554 S
Co154 O167 2.244 . S
O155 Co154 2.216 1_556 S
O155 C162 1.247 . S
O156 Co154 2.091 1_556 S
O156 C162 1.261 . S
C157 O166 1.247 1_554 S
C157 O167 1.272 . S
O158 Co154 2.004 . S
O158 C163 1.259 . S
Co159 O160 2.061 . S
Co159 O165 2.052 . S
Co159 O167 2.135 . S
O160 Co159 2.061 . S
O160 C163 1.235 . S
C161 O164 1.238 . S
C161 O165 1.241 . S
C162 O155 1.247 . S
C162 O156 1.261 . S
C163 O158 1.259 . S
C163 O160 1.235 . S
O164 Co154 2.021 . S
O164 C161 1.238 . S
O165 Co159 2.052 . S
O165 C161 1.241 . S
O166 Co154 2.137 1_556 S
O166 C157 1.247 1_556 S
O167 Co154 2.244 . S
O167 C157 1.272 . S
O167 Co159 2.135 . S
C168 C169 1.391 1_455 S
C168 C170 1.394 . S
C168 H184 0.931 . S
C169 C168 1.391 1_655 S
C169 C173 1.376 . S
C170 C168 1.394 . S
C170 C171 1.369 . S
C170 C174 1.531 . S
C171 C170 1.369 . S
C171 C172 1.410 1_455 S
C171 C179 1.503 . S
C172 C171 1.410 1_655 S
C172 C173 1.392 . S
C172 C175 1.511 . S
C173 C169 1.376 . S
C173 C172 1.392 . S
C173 H185 0.929 . S
C174 C170 1.531 . S
C174 H186 0.960 . S
C174 H187 0.962 . S
C174 H188 0.960 . S
C175 C172 1.511 . S
C175 H189 0.961 . S
C175 H190 0.961 . S
C175 H191 0.961 . S
C176 C177 1.370 . S
C176 C178 1.363 . S
C176 H192 0.931 . S
C177 C176 1.370 . S
C177 C181 1.408 . S
C178 C176 1.363 . S
C178 C179 1.370 . S
C178 C182 1.524 . S
C179 C171 1.503 . S
C179 C178 1.370 . S
C179 C180 1.403 . S
C180 C179 1.403 . S
C180 C181 1.404 . S
C180 C183 1.539 1_455 S
C181 C177 1.408 . S
C181 C180 1.404 . S
C181 H193 0.930 . S
C182 C178 1.524 . S
C182 H194 0.956 . S
C182 H195 0.961 . S
C182 H196 0.961 . S
C183 C180 1.539 1_655 S
C183 H197 0.958 1_655 S
C183 H198 0.961 . S
C183 H199 0.960 . S
H184 C168 0.931 . S
H185 C173 0.929 . S
H186 C174 0.960 . S
H187 C174 0.962 . S
H188 C174 0.960 . S
H189 C175 0.961 . S
H190 C175 0.961 . S
H191 C175 0.961 . S
H192 C176 0.931 . S
H193 C181 0.930 . S
H194 C182 0.956 . S
H195 C182 0.961 . S
H196 C182 0.961 . S
H197 C183 0.958 1_455 S
H198 C183 0.961 . S
H199 C183 0.960 . S
C200 C201 1.391 . S
C200 C202 1.394 . S
C200 H216 0.931 . S
C201 C200 1.391 . S
C201 C205 1.376 1_545 S
C202 C200 1.394 . S
C202 C203 1.369 . S
C202 C206 1.531 . S
C203 C202 1.369 . S
C203 C204 1.410 1_545 S
C203 C211 1.503 . S
C204 C203 1.410 1_565 S
C204 C205 1.392 . S
C204 C207 1.511 . S
C205 C201 1.376 1_565 S
C205 C204 1.392 . S
C205 H217 0.929 . S
C206 C202 1.531 . S
C206 H218 0.960 . S
C206 H219 0.962 . S
C206 H220 0.960 . S
C207 C204 1.511 . S
C207 H221 0.961 . S
C207 H222 0.961 . S
C207 H223 0.961 . S
C208 C209 1.370 . S
C208 C210 1.363 . S
C208 H224 0.931 . S
C209 C208 1.370 . S
C209 C213 1.408 . S
C210 C208 1.363 . S
C210 C211 1.370 . S
C210 C214 1.524 . S
C211 C203 1.503 . S
C211 C210 1.370 . S
C211 C212 1.403 . S
C212 C211 1.403 . S
C212 C213 1.404 . S
C212 C215 1.539 1_545 S
C213 C209 1.408 . S
C213 C212 1.404 . S
C213 H225 0.930 . S
C214 C210 1.524 . S
C214 H226 0.956 . S
C214 H227 0.961 . S
C214 H228 0.961 . S
C215 C212 1.539 1_565 S
C215 H229 0.958 1_565 S
C215 H230 0.961 . S
C215 H231 0.960 . S
H216 C200 0.931 . S
H217 C205 0.929 . S
H218 C206 0.960 . S
H219 C206 0.962 . S
H220 C206 0.960 . S
H221 C207 0.961 . S
H222 C207 0.961 . S
H223 C207 0.961 . S
H224 C208 0.931 . S
H225 C213 0.930 . S
H226 C214 0.956 . S
H227 C214 0.961 . S
H228 C214 0.961 . S
H229 C215 0.958 1_545 S
H230 C215 0.961 . S
H231 C215 0.960 . S
C232 C233 1.391 1_455 S
C232 C234 1.394 . S
C232 H248 0.931 . S
C233 C232 1.391 1_655 S
C233 C237 1.376 . S
C234 C232 1.394 . S
C234 C235 1.369 . S
C234 C238 1.531 . S
C235 C234 1.369 . S
C235 C236 1.410 1_455 S
C235 C243 1.503 . S
C236 C235 1.410 1_655 S
C236 C237 1.392 . S
C236 C239 1.511 . S
C237 C233 1.376 . S
C237 C236 1.392 . S
C237 H249 0.929 . S
C238 C234 1.531 . S
C238 H250 0.960 . S
C238 H251 0.962 . S
C238 H252 0.960 . S
C239 C236 1.511 . S
C239 H253 0.961 . S
C239 H254 0.961 . S
C239 H255 0.961 . S
C240 C241 1.370 . S
C240 C242 1.363 . S
C240 H256 0.931 . S
C241 C240 1.370 . S
C241 C245 1.408 1_455 S
C242 C240 1.363 . S
C242 C243 1.370 . S
C242 C246 1.524 . S
C243 C235 1.503 . S
C243 C242 1.370 . S
C243 C244 1.403 1_455 S
C244 C243 1.403 1_655 S
C244 C245 1.404 . S
C244 C247 1.539 . S
C245 C241 1.408 1_655 S
C245 C244 1.404 . S
C245 H257 0.930 . S
C246 C242 1.524 . S
C246 H258 0.956 . S
C246 H259 0.961 . S
C246 H260 0.961 . S
C247 C244 1.539 . S
C247 H261 0.958 . S
C247 H262 0.961 . S
C247 H263 0.960 . S
H248 C232 0.931 . S
H249 C237 0.929 . S
H250 C238 0.960 . S
H251 C238 0.962 . S
H252 C238 0.960 . S
H253 C239 0.961 . S
H254 C239 0.961 . S
H255 C239 0.961 . S
H256 C240 0.931 . S
H257 C245 0.930 . S
H258 C246 0.956 . S
H259 C246 0.961 . S
H260 C246 0.961 . S
H261 C247 0.958 . S
H262 C247 0.961 . S
H263 C247 0.960 . S
C264 C265 1.391 . S
C264 C266 1.394 . S
C264 H280 0.931 . S
C265 C264 1.391 . S
C265 C269 1.376 1_545 S
C266 C264 1.394 . S
C266 C267 1.369 . S
C266 C270 1.531 . S
C267 C266 1.369 . S
C267 C268 1.410 1_545 S
C267 C275 1.503 . S
C268 C267 1.410 1_565 S
C268 C269 1.392 . S
C268 C271 1.511 . S
C269 C265 1.376 1_565 S
C269 C268 1.392 . S
C269 H281 0.929 . S
C270 C266 1.531 . S
C270 H282 0.960 . S
C270 H283 0.962 . S
C270 H284 0.960 . S
C271 C268 1.511 . S
C271 H285 0.961 . S
C271 H286 0.961 . S
C271 H287 0.961 . S
C272 C273 1.370 1_565 S
C272 C274 1.363 1_565 S
C272 H288 0.931 . S
C273 C272 1.370 1_545 S
C273 C277 1.408 . S
C274 C272 1.363 1_545 S
C274 C275 1.370 . S
C274 C278 1.524 1_545 S
C275 C267 1.503 . S
C275 C274 1.370 . S
C275 C276 1.403 . S
C276 C275 1.403 . S
C276 C277 1.404 . S
C276 C279 1.539 . S
C277 C273 1.408 . S
C277 C276 1.404 . S
C277 H289 0.930 . S
C278 C274 1.524 1_565 S
C278 H290 0.956 1_565 S
C278 H291 0.961 . S
C278 H292 0.961 . S
C279 C276 1.539 . S
C279 H293 0.958 . S
C279 H294 0.961 . S
C279 H295 0.960 . S
H280 C264 0.931 . S
H281 C269 0.929 . S
H282 C270 0.960 . S
H283 C270 0.962 . S
H284 C270 0.960 . S
H285 C271 0.961 . S
H286 C271 0.961 . S
H287 C271 0.961 . S
H288 C272 0.931 . S
H289 C277 0.930 . S
H290 C278 0.956 1_545 S
H291 C278 0.961 . S
H292 C278 0.961 . S
H293 C279 0.958 . S
H294 C279 0.961 . S
H295 C279 0.960 . S
C296 C297 1.391 . S
C296 C298 1.394 . S
C296 H312 0.931 1_455 S
C297 C296 1.391 . S
C297 C301 1.376 . S
C298 C296 1.394 . S
C298 C299 1.369 . S
C298 C302 1.531 1_455 S
C299 C298 1.369 . S
C299 C300 1.410 . S
C299 C307 1.503 . S
C300 C299 1.410 . S
C300 C301 1.392 . S
C300 C303 1.511 . S
C301 C297 1.376 . S
C301 C300 1.392 . S
C301 H313 0.929 . S
C302 C298 1.531 1_655 S
C302 H314 0.960 . S
C302 H315 0.962 . S
C302 H316 0.960 . S
C303 C300 1.511 . S
C303 H317 0.961 . S
C303 H318 0.961 . S
C303 H319 0.961 . S
C304 C305 1.370 1_655 S
C304 C306 1.363 . S
C304 H320 0.931 . S
C305 C304 1.370 1_455 S
C305 C309 1.408 . S
C306 C304 1.363 . S
C306 C307 1.370 1_655 S
C306 C310 1.524 . S
C307 C299 1.503 . S
C307 C306 1.370 1_455 S
C307 C308 1.403 . S
C308 C307 1.403 . S
C308 C309 1.404 . S
C308 C311 1.539 . S
C309 C305 1.408 . S
C309 C308 1.404 . S
C309 H321 0.930 . S
C310 C306 1.524 . S
C310 H322 0.956 . S
C310 H323 0.961 . S
C310 H324 0.961 . S
C311 C308 1.539 . S
C311 H325 0.958 . S
C311 H326 0.961 . S
C311 H327 0.960 . S
H312 C296 0.931 1_655 S
H313 C301 0.929 . S
H314 C302 0.960 . S
H315 C302 0.962 . S
H316 C302 0.960 . S
H317 C303 0.961 . S
H318 C303 0.961 . S
H319 C303 0.961 . S
H320 C304 0.931 . S
H321 C309 0.930 . S
H322 C310 0.956 . S
H323 C310 0.961 . S
H324 C310 0.961 . S
H325 C311 0.958 . S
H326 C311 0.961 . S
H327 C311 0.960 . S
C328 C329 1.391 . S
C328 C330 1.394 . S
C328 H344 0.931 . S
C329 C328 1.391 . S
C329 C333 1.376 . S
C330 C328 1.394 . S
C330 C331 1.369 . S
C330 C334 1.531 . S
C331 C330 1.369 . S
C331 C332 1.410 . S
C331 C339 1.503 . S
C332 C331 1.410 . S
C332 C333 1.392 . S
C332 C335 1.511 1_545 S
C333 C329 1.376 . S
C333 C332 1.392 . S
C333 H345 0.929 . S
C334 C330 1.531 . S
C334 H346 0.960 . S
C334 H347 0.962 . S
C334 H348 0.960 . S
C335 C332 1.511 1_565 S
C335 H349 0.961 . S
C335 H350 0.961 . S
C335 H351 0.961 . S
C336 C337 1.370 . S
C336 C338 1.363 . S
C336 H352 0.931 . S
C337 C336 1.370 . S
C337 C341 1.408 1_545 S
C338 C336 1.363 . S
C338 C339 1.370 . S
C338 C342 1.524 . S
C339 C331 1.503 . S
C339 C338 1.370 . S
C339 C340 1.403 1_545 S
C340 C339 1.403 1_565 S
C340 C341 1.404 . S
C340 C343 1.539 . S
C341 C337 1.408 1_565 S
C341 C340 1.404 . S
C341 H353 0.930 . S
C342 C338 1.524 . S
C342 H354 0.956 . S
C342 H355 0.961 . S
C342 H356 0.961 . S
C343 C340 1.539 . S
C343 H357 0.958 . S
C343 H358 0.961 . S
C343 H359 0.960 . S
H344 C328 0.931 . S
H345 C333 0.929 . S
H346 C334 0.960 . S
H347 C334 0.962 . S
H348 C334 0.960 . S
H349 C335 0.961 . S
H350 C335 0.961 . S
H351 C335 0.961 . S
H352 C336 0.931 . S
H353 C341 0.930 . S
H354 C342 0.956 . S
H355 C342 0.961 . S
H356 C342 0.961 . S
H357 C343 0.958 . S
H358 C343 0.961 . S
H359 C343 0.960 . S
C360 C361 1.391 1_655 S
C360 C362 1.394 . S
C360 H376 0.931 . S
C361 C360 1.391 1_455 S
C361 C365 1.376 . S
C362 C360 1.394 . S
C362 C363 1.369 1_655 S
C362 C366 1.531 . S
C363 C362 1.369 1_455 S
C363 C364 1.410 . S
C363 C371 1.503 . S
C364 C363 1.410 . S
C364 C365 1.392 . S
C364 C367 1.511 . S
C365 C361 1.376 . S
C365 C364 1.392 . S
C365 H377 0.929 . S
C366 C362 1.531 . S
C366 H378 0.960 . S
C366 H379 0.962 . S
C366 H380 0.960 . S
C367 C364 1.511 . S
C367 H381 0.961 . S
C367 H382 0.961 . S
C367 H383 0.961 . S
C368 C369 1.370 . S
C368 C370 1.363 . S
C368 H384 0.931 . S
C369 C368 1.370 . S
C369 C373 1.408 1_655 S
C370 C368 1.363 . S
C370 C371 1.370 1_655 S
C370 C374 1.524 . S
C371 C363 1.503 . S
C371 C370 1.370 1_455 S
C371 C372 1.403 . S
C372 C371 1.403 . S
C372 C373 1.404 . S
C372 C375 1.539 . S
C373 C369 1.408 1_455 S
C373 C372 1.404 . S
C373 H385 0.930 . S
C374 C370 1.524 . S
C374 H386 0.956 . S
C374 H387 0.961 . S
C374 H388 0.961 . S
C375 C372 1.539 . S
C375 H389 0.958 . S
C375 H390 0.961 . S
C375 H391 0.960 . S
H376 C360 0.931 . S
H377 C365 0.929 . S
H378 C366 0.960 . S
H379 C366 0.962 . S
H380 C366 0.960 . S
H381 C367 0.961 . S
H382 C367 0.961 . S
H383 C367 0.961 . S
H384 C368 0.931 . S
H385 C373 0.930 . S
H386 C374 0.956 . S
H387 C374 0.961 . S
H388 C374 0.961 . S
H389 C375 0.958 . S
H390 C375 0.961 . S
H391 C375 0.960 . S
C392 C393 1.391 . S
C392 C394 1.394 . S
C392 H408 0.931 . S
C393 C392 1.391 . S
C393 C397 1.376 1_545 S
C394 C392 1.394 . S
C394 C395 1.369 . S
C394 C398 1.531 . S
C395 C394 1.369 . S
C395 C396 1.410 1_545 S
C395 C403 1.503 . S
C396 C395 1.410 1_565 S
C396 C397 1.392 . S
C396 C399 1.511 . S
C397 C393 1.376 1_565 S
C397 C396 1.392 . S
C397 H409 0.929 . S
C398 C394 1.531 . S
C398 H410 0.960 . S
C398 H411 0.962 . S
C398 H412 0.960 . S
C399 C396 1.511 . S
C399 H413 0.961 . S
C399 H414 0.961 . S
C399 H415 0.961 . S
C400 C401 1.370 . S
C400 C402 1.363 . S
C400 H416 0.931 1_545 S
C401 C400 1.370 . S
C401 C405 1.408 . S
C402 C400 1.363 . S
C402 C403 1.370 . S
C402 C406 1.524 1_545 S
C403 C395 1.503 . S
C403 C402 1.370 . S
C403 C404 1.403 . S
C404 C403 1.403 . S
C404 C405 1.404 . S
C404 C407 1.539 . S
C405 C401 1.408 . S
C405 C404 1.404 . S
C405 H417 0.930 . S
C406 C402 1.524 1_565 S
C406 H418 0.956 . S
C406 H419 0.961 . S
C406 H420 0.961 . S
C407 C404 1.539 . S
C407 H421 0.958 . S
C407 H422 0.961 . S
C407 H423 0.960 . S
H408 C392 0.931 . S
H409 C397 0.929 . S
H410 C398 0.960 . S
H411 C398 0.962 . S
H412 C398 0.960 . S
H413 C399 0.961 . S
H414 C399 0.961 . S
H415 C399 0.961 . S
H416 C400 0.931 1_565 S
H417 C405 0.930 . S
H418 C406 0.956 . S
H419 C406 0.961 . S
H420 C406 0.961 . S
H421 C407 0.958 . S
H422 C407 0.961 . S
H423 C407 0.960 . S
C424 C425 1.391 . S
C424 C426 1.394 . S
C424 H440 0.931 . S
C425 C424 1.391 . S
C425 C429 1.376 . S
C426 C424 1.394 . S
C426 C427 1.369 . S
C426 C430 1.531 . S
C427 C426 1.369 . S
C427 C428 1.410 . S
C427 C435 1.503 . S
C428 C427 1.410 . S
C428 C429 1.392 . S
C428 C431 1.511 . S
C429 C425 1.376 . S
C429 C428 1.392 . S
C429 H441 0.929 . S
C430 C426 1.531 . S
C430 H442 0.960 . S
C430 H443 0.962 1_554 S
C430 H444 0.960 . S
C431 C428 1.511 . S
C431 H445 0.961 . S
C431 H446 0.961 . S
C431 H447 0.961 . S
C432 C433 1.370 1_556 S
C432 C434 1.363 . S
C432 H448 0.931 . S
C433 C432 1.370 1_554 S
C433 C437 1.408 . S
C434 C432 1.363 . S
C434 C435 1.370 1_556 S
C434 C438 1.524 . S
C435 C427 1.503 . S
C435 C434 1.370 1_554 S
C435 C436 1.403 . S
C436 C435 1.403 . S
C436 C437 1.404 . S
C436 C439 1.539 . S
C437 C433 1.408 . S
C437 C436 1.404 . S
C437 H449 0.930 . S
C438 C434 1.524 . S
C438 H450 0.956 . S
C438 H451 0.961 . S
C438 H452 0.961 . S
C439 C436 1.539 . S
C439 H453 0.958 . S
C439 H454 0.961 . S
C439 H455 0.960 . S
H440 C424 0.931 . S
H441 C429 0.929 . S
H442 C430 0.960 . S
H443 C430 0.962 1_556 S
H444 C430 0.960 . S
H445 C431 0.961 . S
H446 C431 0.961 . S
H447 C431 0.961 . S
H448 C432 0.931 . S
H449 C437 0.930 . S
H450 C438 0.956 . S
H451 C438 0.961 . S
H452 C438 0.961 . S
H453 C439 0.958 . S
H454 C439 0.961 . S
H455 C439 0.960 . S
C456 C457 1.391 . S
C456 C458 1.394 . S
C456 H472 0.931 . S
C457 C456 1.391 . S
C457 C461 1.376 . S
C458 C456 1.394 . S
C458 C459 1.369 . S
C458 C462 1.531 . S
C459 C458 1.369 . S
C459 C460 1.410 . S
C459 C467 1.503 . S
C460 C459 1.410 . S
C460 C461 1.392 . S
C460 C463 1.511 1_554 S
C461 C457 1.376 . S
C461 C460 1.392 . S
C461 H473 0.929 1_554 S
C462 C458 1.531 . S
C462 H474 0.960 . S
C462 H475 0.962 . S
C462 H476 0.960 . S
C463 C460 1.511 1_556 S
C463 H477 0.961 . S
C463 H478 0.961 . S
C463 H479 0.961 1_556 S
C464 C465 1.370 1_556 S
C464 C466 1.363 . S
C464 H480 0.931 . S
C465 C464 1.370 1_554 S
C465 C469 1.408 . S
C466 C464 1.363 . S
C466 C467 1.370 1_556 S
C466 C470 1.524 . S
C467 C459 1.503 . S
C467 C466 1.370 1_554 S
C467 C468 1.403 . S
C468 C467 1.403 . S
C468 C469 1.404 . S
C468 C471 1.539 . S
C469 C465 1.408 . S
C469 C468 1.404 . S
C469 H481 0.930 . S
C470 C466 1.524 . S
C470 H482 0.956 . S
C470 H483 0.961 . S
C470 H484 0.961 . S
C471 C468 1.539 . S
C471 H485 0.958 . S
C471 H486 0.961 . S
C471 H487 0.960 . S
H472 C456 0.931 . S
H473 C461 0.929 1_556 S
H474 C462 0.960 . S
H475 C462 0.962 . S
H476 C462 0.960 . S
H477 C463 0.961 . S
H478 C463 0.961 . S
H479 C463 0.961 1_554 S
H480 C464 0.931 . S
H481 C469 0.930 . S
H482 C470 0.956 . S
H483 C470 0.961 . S
H484 C470 0.961 . S
H485 C471 0.958 . S
H486 C471 0.961 . S
H487 C471 0.960 . S
C488 C489 1.391 . S
C488 C490 1.394 . S
C488 H504 0.931 . S
C489 C488 1.391 . S
C489 C493 1.376 1_554 S
C490 C488 1.394 . S
C490 C491 1.369 . S
C490 C494 1.531 . S
C491 C490 1.369 . S
C491 C492 1.410 1_554 S
C491 C499 1.503 . S
C492 C491 1.410 1_556 S
C492 C493 1.392 . S
C492 C495 1.511 . S
C493 C489 1.376 1_556 S
C493 C492 1.392 . S
C493 H505 0.929 . S
C494 C490 1.531 . S
C494 H506 0.960 . S
C494 H507 0.962 . S
C494 H508 0.960 . S
C495 C492 1.511 . S
C495 H509 0.961 . S
C495 H510 0.961 . S
C495 H511 0.961 . S
C496 C497 1.373 1_556 S
C496 C498 1.363 . S
C496 H512 0.929 . S
C497 C496 1.373 1_554 S
C497 C501 1.408 . S
C498 C496 1.363 . S
C498 C499 1.370 1_556 S
C498 C502 1.524 . S
C499 C491 1.503 . S
C499 C498 1.370 1_554 S
C499 C500 1.403 . S
C500 C499 1.403 . S
C500 C501 1.404 . S
C500 C503 1.539 . S
C501 C497 1.408 . S
C501 C500 1.404 . S
C501 H513 0.930 . S
C502 C498 1.524 . S
C502 H514 0.956 . S
C502 H515 0.961 . S
C502 H516 0.961 . S
C503 C500 1.539 . S
C503 H517 0.958 . S
C503 H518 0.961 . S
C503 H519 0.960 . S
H504 C488 0.931 . S
H505 C493 0.929 . S
H506 C494 0.960 . S
H507 C494 0.962 . S
H508 C494 0.960 . S
H509 C495 0.961 . S
H510 C495 0.961 . S
H511 C495 0.961 . S
H512 C496 0.929 . S
H513 C501 0.930 . S
H514 C502 0.956 . S
H515 C502 0.961 . S
H516 C502 0.961 . S
H517 C503 0.958 . S
H518 C503 0.961 . S
H519 C503 0.960 . S
C520 C521 1.391 . S
C520 C522 1.394 . S
C520 H536 0.931 . S
C521 C520 1.391 . S
C521 C525 1.376 1_554 S
C522 C520 1.394 . S
C522 C523 1.369 . S
C522 C526 1.531 . S
C523 C522 1.369 . S
C523 C524 1.410 1_554 S
C523 C531 1.503 . S
C524 C523 1.410 1_556 S
C524 C525 1.392 . S
C524 C527 1.511 . S
C525 C521 1.376 1_556 S
C525 C524 1.392 . S
C525 H537 0.929 . S
C526 C522 1.531 . S
C526 H538 0.960 . S
C526 H539 0.962 . S
C526 H540 0.960 . S
C527 C524 1.511 . S
C527 H541 0.961 . S
C527 H542 0.961 . S
C527 H543 0.961 . S
C528 C529 1.370 . S
C528 C530 1.363 . S
C528 H544 0.931 . S
C529 C528 1.370 . S
C529 C533 1.408 . S
C530 C528 1.363 . S
C530 C531 1.370 . S
C530 C534 1.524 . S
C531 C523 1.503 . S
C531 C530 1.370 . S
C531 C532 1.403 . S
C532 C531 1.403 . S
C532 C533 1.404 . S
C532 C535 1.539 . S
C533 C529 1.408 . S
C533 C532 1.404 . S
C533 H545 0.930 . S
C534 C530 1.524 . S
C534 H546 0.956 . S
C534 H547 0.961 1_554 S
C534 H548 0.961 . S
C535 C532 1.539 . S
C535 H549 0.958 . S
C535 H550 0.961 . S
C535 H551 0.960 . S
H536 C520 0.931 . S
H537 C525 0.929 . S
H538 C526 0.960 . S
H539 C526 0.962 . S
H540 C526 0.960 . S
H541 C527 0.961 . S
H542 C527 0.961 . S
H543 C527 0.961 . S
H544 C528 0.931 . S
H545 C533 0.930 . S
H546 C534 0.956 . S
H547 C534 0.961 1_556 S
H548 C534 0.961 . S
H549 C535 0.958 . S
H550 C535 0.961 . S
H551 C535 0.960 . S
C552 C553 1.391 . S
C552 C554 1.394 . S
C552 H568 0.931 . S
C553 C552 1.391 . S
C553 C557 1.376 . S
C554 C552 1.394 . S
C554 C555 1.369 . S
C554 C558 1.531 . S
C555 C554 1.369 . S
C555 C556 1.410 . S
C555 C563 1.503 . S
C556 C555 1.410 . S
C556 C557 1.392 . S
C556 C559 1.511 . S
C557 C553 1.376 . S
C557 C556 1.392 . S
C557 H569 0.929 . S
C558 C554 1.531 . S
C558 H570 0.960 . S
C558 H571 0.962 . S
C558 H572 0.960 . S
C559 C556 1.511 . S
C559 H573 0.961 . S
C559 H574 0.961 . S
C559 H575 0.961 . S
C560 C561 1.370 . S
C560 C562 1.363 . S
C560 H576 0.931 . S
C561 C560 1.370 . S
C561 C565 1.408 . S
C562 C560 1.363 . S
C562 C563 1.370 . S
C562 C566 1.524 . S
C563 C555 1.503 . S
C563 C562 1.370 . S
C563 C564 1.403 . S
C564 C563 1.403 . S
C564 C565 1.404 . S
C564 C567 1.539 . S
C565 C561 1.408 . S
C565 C564 1.404 . S
C565 H577 0.930 . S
C566 C562 1.524 . S
C566 H578 0.956 . S
C566 H579 0.961 . S
C566 H580 0.961 . S
C567 C564 1.539 . S
C567 H581 0.958 . S
C567 H582 0.961 . S
C567 H583 0.960 . S
H568 C552 0.931 . S
H569 C557 0.929 . S
H570 C558 0.960 . S
H571 C558 0.962 . S
H572 C558 0.960 . S
H573 C559 0.961 . S
H574 C559 0.961 . S
H575 C559 0.961 . S
H576 C560 0.931 . S
H577 C565 0.930 . S
H578 C566 0.956 . S
H579 C566 0.961 . S
H580 C566 0.961 . S
H581 C567 0.958 . S
H582 C567 0.961 . S
H583 C567 0.960 . S
C584 C585 1.391 . S
C584 C586 1.394 . S
C584 H600 0.931 . S
C585 C584 1.391 . S
C585 C589 1.376 . S
C586 C584 1.394 . S
C586 C587 1.369 . S
C586 C590 1.531 . S
C587 C586 1.369 . S
C587 C588 1.410 . S
C587 C595 1.503 . S
C588 C587 1.410 . S
C588 C589 1.392 . S
C588 C591 1.511 . S
C589 C585 1.376 . S
C589 C588 1.392 . S
C589 H601 0.929 . S
C590 C586 1.531 . S
C590 H602 0.960 . S
C590 H603 0.962 . S
C590 H604 0.960 . S
C591 C588 1.511 . S
C591 H605 0.961 . S
C591 H606 0.961 . S
C591 H607 0.961 . S
C592 C593 1.370 . S
C592 C594 1.363 . S
C592 H608 0.931 . S
C593 C592 1.370 . S
C593 C597 1.408 . S
C594 C592 1.363 . S
C594 C595 1.370 . S
C594 C598 1.524 . S
C595 C587 1.503 . S
C595 C594 1.370 . S
C595 C596 1.403 . S
C596 C595 1.403 . S
C596 C597 1.404 . S
C596 C599 1.539 . S
C597 C593 1.408 . S
C597 C596 1.404 . S
C597 H609 0.930 . S
C598 C594 1.524 . S
C598 H610 0.956 . S
C598 H611 0.961 . S
C598 H612 0.961 . S
C599 C596 1.539 . S
C599 H613 0.958 . S
C599 H614 0.961 . S
C599 H615 0.960 . S
H600 C584 0.931 . S
H601 C589 0.929 . S
H602 C590 0.960 . S
H603 C590 0.962 . S
H604 C590 0.960 . S
H605 C591 0.961 . S
H606 C591 0.961 . S
H607 C591 0.961 . S
H608 C592 0.931 . S
H609 C597 0.930 . S
H610 C598 0.956 . S
H611 C598 0.961 . S
H612 C598 0.961 . S
H613 C599 0.958 . S
H614 C599 0.961 . S
H615 C599 0.960 . S
C616 C617 1.391 . S
C616 C618 1.394 . S
C616 H632 0.931 . S
C617 C616 1.391 . S
C617 C621 1.376 . S
C618 C616 1.394 . S
C618 C619 1.369 . S
C618 C622 1.531 . S
C619 C618 1.369 . S
C619 C620 1.410 . S
C619 C627 1.503 . S
C620 C619 1.410 . S
C620 C621 1.392 . S
C620 C623 1.511 . S
C621 C617 1.376 . S
C621 C620 1.392 . S
C621 H633 0.929 . S
C622 C618 1.531 . S
C622 H634 0.960 . S
C622 H635 0.962 . S
C622 H636 0.960 . S
C623 C620 1.511 . S
C623 H637 0.961 . S
C623 H638 0.961 . S
C623 H639 0.961 . S
C624 C625 1.370 . S
C624 C626 1.363 . S
C624 H640 0.931 . S
C625 C624 1.370 . S
C625 C629 1.408 . S
C626 C624 1.363 . S
C626 C627 1.370 . S
C626 C630 1.524 . S
C627 C619 1.503 . S
C627 C626 1.370 . S
C627 C628 1.403 . S
C628 C627 1.403 . S
C628 C629 1.404 . S
C628 C631 1.539 . S
C629 C625 1.408 . S
C629 C628 1.404 . S
C629 H641 0.930 . S
C630 C626 1.524 . S
C630 H642 0.956 . S
C630 H643 0.961 . S
C630 H644 0.961 . S
C631 C628 1.539 . S
C631 H645 0.958 . S
C631 H646 0.961 . S
C631 H647 0.960 . S
H632 C616 0.931 . S
H633 C621 0.929 . S
H634 C622 0.960 . S
H635 C622 0.962 . S
H636 C622 0.960 . S
H637 C623 0.961 . S
H638 C623 0.961 . S
H639 C623 0.961 . S
H640 C624 0.931 . S
H641 C629 0.930 . S
H642 C630 0.956 . S
H643 C630 0.961 . S
H644 C630 0.961 . S
H645 C631 0.958 . S
H646 C631 0.961 . S
H647 C631 0.960 . S
C648 C649 1.391 . S
C648 C650 1.394 . S
C648 H664 0.931 . S
C649 C648 1.391 . S
C649 C653 1.376 . S
C650 C648 1.394 . S
C650 C651 1.369 . S
C650 C654 1.531 . S
C651 C650 1.369 . S
C651 C652 1.410 . S
C651 C659 1.503 . S
C652 C651 1.410 . S
C652 C653 1.392 . S
C652 C655 1.511 . S
C653 C649 1.376 . S
C653 C652 1.392 . S
C653 H665 0.929 . S
C654 C650 1.531 . S
C654 H666 0.960 . S
C654 H667 0.962 . S
C654 H668 0.960 . S
C655 C652 1.511 . S
C655 H669 0.961 . S
C655 H670 0.961 . S
C655 H671 0.961 . S
C656 C657 1.370 . S
C656 C658 1.363 . S
C656 H672 0.931 . S
C657 C656 1.370 . S
C657 C661 1.408 . S
C658 C656 1.363 . S
C658 C659 1.370 . S
C658 C662 1.524 . S
C659 C651 1.503 . S
C659 C658 1.370 . S
C659 C660 1.403 . S
C660 C659 1.403 . S
C660 C661 1.404 . S
C660 C663 1.539 . S
C661 C657 1.408 . S
C661 C660 1.404 . S
C661 H673 0.930 . S
C662 C658 1.524 . S
C662 H674 0.956 . S
C662 H675 0.961 . S
C662 H676 0.961 . S
C663 C660 1.539 . S
C663 H677 0.958 . S
C663 H678 0.961 . S
C663 H679 0.960 . S
H664 C648 0.931 . S
H665 C653 0.929 . S
H666 C654 0.960 . S
H667 C654 0.962 . S
H668 C654 0.960 . S
H669 C655 0.961 . S
H670 C655 0.961 . S
H671 C655 0.961 . S
H672 C656 0.931 . S
H673 C661 0.930 . S
H674 C662 0.956 . S
H675 C662 0.961 . S
H676 C662 0.961 . S
H677 C663 0.958 . S
H678 C663 0.961 . S
H679 C663 0.960 . S
C680 C681 1.391 . S
C680 C682 1.394 . S
C680 H696 0.931 . S
C681 C680 1.391 . S
C681 C685 1.376 . S
C682 C680 1.394 . S
C682 C683 1.369 . S
C682 C686 1.531 . S
C683 C682 1.369 . S
C683 C684 1.410 . S
C683 C691 1.503 . S
C684 C683 1.410 . S
C684 C685 1.392 . S
C684 C687 1.511 . S
C685 C681 1.376 . S
C685 C684 1.392 . S
C685 H697 0.929 . S
C686 C682 1.531 . S
C686 H698 0.960 . S
C686 H699 0.962 . S
C686 H700 0.960 . S
C687 C684 1.511 . S
C687 H701 0.961 . S
C687 H702 0.961 . S
C687 H703 0.961 . S
C688 C689 1.370 . S
C688 C690 1.363 . S
C688 H704 0.931 . S
C689 C688 1.370 . S
C689 C693 1.408 . S
C690 C688 1.363 . S
C690 C691 1.370 . S
C690 C694 1.524 . S
C691 C683 1.503 . S
C691 C690 1.370 . S
C691 C692 1.403 . S
C692 C691 1.403 . S
C692 C693 1.404 . S
C692 C695 1.539 . S
C693 C689 1.408 . S
C693 C692 1.404 . S
C693 H705 0.930 . S
C694 C690 1.524 . S
C694 H706 0.956 . S
C694 H707 0.961 . S
C694 H708 0.961 . S
C695 C692 1.539 . S
C695 H709 0.958 . S
C695 H710 0.961 . S
C695 H711 0.960 . S
H696 C680 0.931 . S
H697 C685 0.929 . S
H698 C686 0.960 . S
H699 C686 0.962 . S
H700 C686 0.960 . S
H701 C687 0.961 . S
H702 C687 0.961 . S
H703 C687 0.961 . S
H704 C688 0.931 . S
H705 C693 0.930 . S
H706 C694 0.956 . S
H707 C694 0.961 . S
H708 C694 0.961 . S
H709 C695 0.958 . S
H710 C695 0.961 . S
H711 C695 0.960 . S
C712 C713 1.391 . S
C712 C714 1.394 . S
C712 H728 0.931 . S
C713 C712 1.391 . S
C713 C717 1.376 . S
C714 C712 1.394 . S
C714 C715 1.369 . S
C714 C718 1.531 . S
C715 C714 1.369 . S
C715 C716 1.410 . S
C715 C723 1.503 . S
C716 C715 1.410 . S
C716 C717 1.392 . S
C716 C719 1.511 . S
C717 C713 1.376 . S
C717 C716 1.392 . S
C717 H729 0.929 . S
C718 C714 1.531 . S
C718 H730 0.960 . S
C718 H731 0.962 . S
C718 H732 0.960 . S
C719 C716 1.511 . S
C719 H733 0.961 . S
C719 H734 0.961 . S
C719 H735 0.961 . S
C720 C721 1.370 . S
C720 C722 1.363 . S
C720 H736 0.931 . S
C721 C720 1.370 . S
C721 C725 1.408 . S
C722 C720 1.363 . S
C722 C723 1.370 . S
C722 C726 1.524 . S
C723 C715 1.503 . S
C723 C722 1.370 . S
C723 C724 1.403 . S
C724 C723 1.403 . S
C724 C725 1.404 . S
C724 C727 1.539 . S
C725 C721 1.408 . S
C725 C724 1.404 . S
C725 H737 0.930 . S
C726 C722 1.524 . S
C726 H738 0.956 . S
C726 H739 0.961 . S
C726 H740 0.961 . S
C727 C724 1.539 . S
C727 H741 0.958 . S
C727 H742 0.961 . S
C727 H743 0.960 . S
H728 C712 0.931 . S
H729 C717 0.929 . S
H730 C718 0.960 . S
H731 C718 0.962 . S
H732 C718 0.960 . S
H733 C719 0.961 . S
H734 C719 0.961 . S
H735 C719 0.961 . S
H736 C720 0.931 . S
H737 C725 0.930 . S
H738 C726 0.956 . S
H739 C726 0.961 . S
H740 C726 0.961 . S
H741 C727 0.958 . S
H742 C727 0.961 . S
H743 C727 0.960 . S
C744 C745 1.391 . S
C744 C746 1.394 . S
C744 H760 0.931 . S
C745 C744 1.391 . S
C745 C749 1.376 . S
C746 C744 1.394 . S
C746 C747 1.369 . S
C746 C750 1.531 . S
C747 C746 1.369 . S
C747 C748 1.410 . S
C747 C755 1.503 . S
C748 C747 1.410 . S
C748 C749 1.392 . S
C748 C751 1.511 . S
C749 C745 1.376 . S
C749 C748 1.392 . S
C749 H761 0.929 . S
C750 C746 1.531 . S
C750 H762 0.960 . S
C750 H763 0.962 . S
C750 H764 0.960 . S
C751 C748 1.511 . S
C751 H765 0.961 . S
C751 H766 0.961 . S
C751 H767 0.961 . S
C752 C753 1.370 . S
C752 C754 1.363 . S
C752 H768 0.931 . S
C753 C752 1.370 . S
C753 C757 1.408 . S
C754 C752 1.363 . S
C754 C755 1.370 . S
C754 C758 1.524 . S
C755 C747 1.503 . S
C755 C754 1.370 . S
C755 C756 1.403 . S
C756 C755 1.403 . S
C756 C757 1.404 . S
C756 C759 1.539 . S
C757 C753 1.408 . S
C757 C756 1.404 . S
C757 H769 0.930 . S
C758 C754 1.524 . S
C758 H770 0.956 . S
C758 H771 0.961 . S
C758 H772 0.961 . S
C759 C756 1.539 . S
C759 H773 0.958 . S
C759 H774 0.961 . S
C759 H775 0.960 . S
H760 C744 0.931 . S
H761 C749 0.929 . S
H762 C750 0.960 . S
H763 C750 0.962 . S
H764 C750 0.960 . S
H765 C751 0.961 . S
H766 C751 0.961 . S
H767 C751 0.961 . S
H768 C752 0.931 . S
H769 C757 0.930 . S
H770 C758 0.956 . S
H771 C758 0.961 . S
H772 C758 0.961 . S
H773 C759 0.958 . S
H774 C759 0.961 . S
H775 C759 0.960 . S
C776 C777 1.391 . S
C776 C778 1.394 . S
C776 H792 0.931 . S
C777 C776 1.391 . S
C777 C781 1.376 . S
C778 C776 1.394 . S
C778 C779 1.369 . S
C778 C782 1.531 . S
C779 C778 1.369 . S
C779 C780 1.410 . S
C779 C787 1.503 . S
C780 C779 1.410 . S
C780 C781 1.392 . S
C780 C783 1.511 . S
C781 C777 1.376 . S
C781 C780 1.392 . S
C781 H793 0.929 . S
C782 C778 1.531 . S
C782 H794 0.960 . S
C782 H795 0.962 . S
C782 H796 0.960 . S
C783 C780 1.511 . S
C783 H797 0.961 . S
C783 H798 0.961 . S
C783 H799 0.961 . S
C784 C785 1.370 . S
C784 C786 1.363 . S
C784 H800 0.931 . S
C785 C784 1.370 . S
C785 C789 1.408 . S
C786 C784 1.363 . S
C786 C787 1.370 . S
C786 C790 1.524 . S
C787 C779 1.503 . S
C787 C786 1.370 . S
C787 C788 1.403 . S
C788 C787 1.403 . S
C788 C789 1.404 . S
C788 C791 1.539 . S
C789 C785 1.408 . S
C789 C788 1.404 . S
C789 H801 0.930 . S
C790 C786 1.524 . S
C790 H802 0.956 . S
C790 H803 0.961 . S
C790 H804 0.961 . S
C791 C788 1.539 . S
C791 H805 0.958 . S
C791 H806 0.961 . S
C791 H807 0.960 . S
H792 C776 0.931 . S
H793 C781 0.929 . S
H794 C782 0.960 . S
H795 C782 0.962 . S
H796 C782 0.960 . S
H797 C783 0.961 . S
H798 C783 0.961 . S
H799 C783 0.961 . S
H800 C784 0.931 . S
H801 C789 0.930 . S
H802 C790 0.956 . S
H803 C790 0.961 . S
H804 C790 0.961 . S
H805 C791 0.958 . S
H806 C791 0.961 . S
H807 C791 0.960 . S
C808 C809 1.391 . S
C808 C810 1.394 . S
C808 H824 0.931 . S
C809 C808 1.391 . S
C809 C813 1.376 . S
C810 C808 1.394 . S
C810 C811 1.369 . S
C810 C814 1.531 . S
C811 C810 1.369 . S
C811 C812 1.410 . S
C811 C819 1.503 . S
C812 C811 1.410 . S
C812 C813 1.392 . S
C812 C815 1.511 . S
C813 C809 1.376 . S
C813 C812 1.392 . S
C813 H825 0.929 . S
C814 C810 1.531 . S
C814 H826 0.960 . S
C814 H827 0.962 . S
C814 H828 0.960 . S
C815 C812 1.511 . S
C815 H829 0.961 . S
C815 H830 0.961 . S
C815 H831 0.961 . S
C816 C817 1.370 . S
C816 C818 1.363 . S
C816 H832 0.931 . S
C817 C816 1.370 . S
C817 C821 1.408 . S
C818 C816 1.363 . S
C818 C819 1.370 . S
C818 C822 1.524 . S
C819 C811 1.503 . S
C819 C818 1.370 . S
C819 C820 1.403 . S
C820 C819 1.403 . S
C820 C821 1.404 . S
C820 C823 1.539 . S
C821 C817 1.408 . S
C821 C820 1.404 . S
C821 H833 0.930 . S
C822 C818 1.524 . S
C822 H834 0.956 . S
C822 H835 0.961 . S
C822 H836 0.961 . S
C823 C820 1.539 . S
C823 H837 0.958 . S
C823 H838 0.961 . S
C823 H839 0.960 . S
H824 C808 0.931 . S
H825 C813 0.929 . S
H826 C814 0.960 . S
H827 C814 0.962 . S
H828 C814 0.960 . S
H829 C815 0.961 . S
H830 C815 0.961 . S
H831 C815 0.961 . S
H832 C816 0.931 . S
H833 C821 0.930 . S
H834 C822 0.956 . S
H835 C822 0.961 . S
H836 C822 0.961 . S
H837 C823 0.958 . S
H838 C823 0.961 . S
H839 C823 0.960 . S
C840 C841 1.391 . S
C840 C842 1.394 . S
C840 H856 0.931 . S
C841 C840 1.391 . S
C841 C845 1.376 . S
C842 C840 1.394 . S
C842 C843 1.369 . S
C842 C846 1.531 . S
C843 C842 1.369 . S
C843 C844 1.410 . S
C843 C851 1.503 . S
C844 C843 1.410 . S
C844 C845 1.392 . S
C844 C847 1.511 . S
C845 C841 1.376 . S
C845 C844 1.392 . S
C845 H857 0.929 . S
C846 C842 1.531 . S
C846 H858 0.960 . S
C846 H859 0.962 . S
C846 H860 0.960 . S
C847 C844 1.511 . S
C847 H861 0.961 . S
C847 H862 0.961 . S
C847 H863 0.961 . S
C848 C849 1.370 . S
C848 C850 1.363 . S
C848 H864 0.931 . S
C849 C848 1.370 . S
C849 C853 1.408 . S
C850 C848 1.363 . S
C850 C851 1.370 . S
C850 C854 1.524 . S
C851 C843 1.503 . S
C851 C850 1.370 . S
C851 C852 1.403 . S
C852 C851 1.403 . S
C852 C853 1.404 . S
C852 C855 1.539 . S
C853 C849 1.408 . S
C853 C852 1.404 . S
C853 H865 0.930 . S
C854 C850 1.524 . S
C854 H866 0.956 . S
C854 H867 0.961 . S
C854 H868 0.961 . S
C855 C852 1.539 . S
C855 H869 0.958 . S
C855 H870 0.961 . S
C855 H871 0.960 . S
H856 C840 0.931 . S
H857 C845 0.929 . S
H858 C846 0.960 . S
H859 C846 0.962 . S
H860 C846 0.960 . S
H861 C847 0.961 . S
H862 C847 0.961 . S
H863 C847 0.961 . S
H864 C848 0.931 . S
H865 C853 0.930 . S
H866 C854 0.956 . S
H867 C854 0.961 . S
H868 C854 0.961 . S
H869 C855 0.958 . S
H870 C855 0.961 . S
H871 C855 0.960 . S
C872 C873 1.391 . S
C872 C874 1.394 . S
C872 H888 0.931 . S
C873 C872 1.391 . S
C873 C877 1.376 . S
C874 C872 1.394 . S
C874 C875 1.369 . S
C874 C878 1.531 . S
C875 C874 1.369 . S
C875 C876 1.410 . S
C875 C883 1.503 . S
C876 C875 1.410 . S
C876 C877 1.392 . S
C876 C879 1.511 . S
C877 C873 1.376 . S
C877 C876 1.392 . S
C877 H889 0.929 . S
C878 C874 1.531 . S
C878 H890 0.960 . S
C878 H891 0.962 . S
C878 H892 0.960 . S
C879 C876 1.511 . S
C879 H893 0.961 . S
C879 H894 0.961 . S
C879 H895 0.961 . S
C880 C881 1.370 . S
C880 C882 1.363 . S
C880 H896 0.931 . S
C881 C880 1.370 . S
C881 C885 1.408 . S
C882 C880 1.363 . S
C882 C883 1.370 . S
C882 C886 1.524 . S
C883 C875 1.503 . S
C883 C882 1.370 . S
C883 C884 1.403 . S
C884 C883 1.403 . S
C884 C885 1.404 . S
C884 C887 1.539 . S
C885 C881 1.408 . S
C885 C884 1.404 . S
C885 H897 0.930 . S
C886 C882 1.524 . S
C886 H898 0.956 . S
C886 H899 0.961 . S
C886 H900 0.961 . S
C887 C884 1.539 . S
C887 H901 0.958 . S
C887 H902 0.961 . S
C887 H903 0.960 . S
H888 C872 0.931 . S
H889 C877 0.929 . S
H890 C878 0.960 . S
H891 C878 0.962 . S
H892 C878 0.960 . S
H893 C879 0.961 . S
H894 C879 0.961 . S
H895 C879 0.961 . S
H896 C880 0.931 . S
H897 C885 0.930 . S
H898 C886 0.956 . S
H899 C886 0.961 . S
H900 C886 0.961 . S
H901 C887 0.958 . S
H902 C887 0.961 . S
H903 C887 0.960 . S
C904 C905 1.391 . S
C904 C906 1.394 . S
C904 H920 0.931 . S
C905 C904 1.391 . S
C905 C909 1.376 . S
C906 C904 1.394 . S
C906 C907 1.369 . S
C906 C910 1.531 . S
C907 C906 1.369 . S
C907 C908 1.410 . S
C907 C915 1.503 . S
C908 C907 1.410 . S
C908 C909 1.392 . S
C908 C911 1.511 . S
C909 C905 1.376 . S
C909 C908 1.392 . S
C909 H921 0.929 . S
C910 C906 1.531 . S
C910 H922 0.960 . S
C910 H923 0.962 . S
C910 H924 0.960 . S
C911 C908 1.511 . S
C911 H925 0.961 . S
C911 H926 0.961 . S
C911 H927 0.961 . S
C912 C913 1.370 . S
C912 C914 1.363 . S
C912 H928 0.931 . S
C913 C912 1.370 . S
C913 C917 1.408 . S
C914 C912 1.363 . S
C914 C915 1.370 . S
C914 C918 1.524 . S
C915 C907 1.503 . S
C915 C914 1.370 . S
C915 C916 1.403 . S
C916 C915 1.403 . S
C916 C917 1.404 . S
C916 C919 1.539 . S
C917 C913 1.408 . S
C917 C916 1.404 . S
C917 H929 0.930 . S
C918 C914 1.524 . S
C918 H930 0.956 . S
C918 H931 0.961 . S
C918 H932 0.961 . S
C919 C916 1.539 . S
C919 H933 0.958 . S
C919 H934 0.961 . S
C919 H935 0.960 . S
H920 C904 0.931 . S
H921 C909 0.929 . S
H922 C910 0.960 . S
H923 C910 0.962 . S
H924 C910 0.960 . S
H925 C911 0.961 . S
H926 C911 0.961 . S
H927 C911 0.961 . S
H928 C912 0.931 . S
H929 C917 0.930 . S
H930 C918 0.956 . S
H931 C918 0.961 . S
H932 C918 0.961 . S
H933 C919 0.958 . S
H934 C919 0.961 . S
H935 C919 0.960 . S
C169 C8 1.470 . S
C177 C78 1.468 . S
C201 C17 1.544 . S
C209 C59 1.540 . S
C233 C77 1.381 1_655 S
C241 C35 1.364 . S
C265 C45 1.437 . S
C273 C65 1.434 1_545 S
C297 C106 1.515 . S
C305 C36 1.501 . S
C329 C93 1.362 . S
C337 C51 1.377 . S
C361 C7 1.406 . S
C369 C105 1.401 . S
C393 C87 1.476 . S
C401 C23 1.482 . S
C425 C129 1.538 . S
C433 C120 1.511 . S
C457 C119 1.480 . S
C465 C157 1.484 . S
C489 C135 1.389 1_554 S
C497 C147 1.365 . S
C521 C148 1.414 . S
C529 C163 1.433 . S
C553 C162 1.460 . S
C561 C92 1.476 . S
C585 C115 1.535 . S
C593 C101 1.537 . S
C617 C91 1.398 . S
C625 C133 1.378 . S
C649 C107 1.445 . S
C657 C143 1.448 . S
C681 C64 1.490 . S
C689 C134 1.514 . S
C713 C79 1.375 . S
C721 C149 1.382 . S
C745 C161 1.417 . S
C753 C63 1.422 . S
C777 C121 1.464 . S
C785 C73 1.476 . S
C809 C22 1.532 . S
C817 C31 1.528 . S
C841 C3 1.481 . S
C849 C21 1.458 . S
C873 C37 1.375 . S
C881 C49 1.368 . S
C905 C9 1.415 . S
C913 C50 1.429 . S
