# Generated by pormake.
# Topology pcl, (4)-cn, num edge types: 1
# Building blocks:
#     Node 0, Type 0, BuildingBlock: ICAMEG_clean_sbu_1, # of connection points: 4
#     Node 1, Type 0, BuildingBlock: ICAMEG_clean_sbu_1, # of connection points: 4
#     Node 2, Type 0, BuildingBlock: ICAMEG_clean_sbu_1, # of connection points: 4
#     Node 3, Type 0, BuildingBlock: ICAMEG_clean_sbu_1, # of connection points: 4
#     Node 4, Type 0, BuildingBlock: ICAMEG_clean_sbu_1, # of connection points: 4
#     Node 5, Type 0, BuildingBlock: ICAMEG_clean_sbu_1, # of connection points: 4
#     Node 6, Type 0, BuildingBlock: ICAMEG_clean_sbu_1, # of connection points: 4
#     Node 7, Type 0, BuildingBlock: ICAMEG_clean_sbu_1, # of connection points: 4
#     Node 8, Type 0, BuildingBlock: ICAMEG_clean_sbu_1, # of connection points: 4
#     Node 9, Type 0, BuildingBlock: ICAMEG_clean_sbu_1, # of connection points: 4
#     Node 10, Type 0, BuildingBlock: ICAMEG_clean_sbu_1, # of connection points: 4
#     Node 11, Type 0, BuildingBlock: ICAMEG_clean_sbu_1, # of connection points: 4
#     Node 12, Type 0, BuildingBlock: ICAMEG_clean_sbu_1, # of connection points: 4
#     Node 13, Type 0, BuildingBlock: ICAMEG_clean_sbu_1, # of connection points: 4
#     Node 14, Type 0, BuildingBlock: ICAMEG_clean_sbu_1, # of connection points: 4
#     Node 15, Type 0, BuildingBlock: ICAMEG_clean_sbu_1, # of connection points: 4
#     Edge 16, Type (0, 0), BuildingBlock: XUDNAN_clean_linker_2, # of connection points: 2
#     Edge 17, Type (0, 0), BuildingBlock: XUDNAN_clean_linker_2, # of connection points: 2
#     Edge 18, Type (0, 0), BuildingBlock: XUDNAN_clean_linker_2, # of connection points: 2
#     Edge 19, Type (0, 0), BuildingBlock: XUDNAN_clean_linker_2, # of connection points: 2
#     Edge 20, Type (0, 0), BuildingBlock: XUDNAN_clean_linker_2, # of connection points: 2
#     Edge 21, Type (0, 0), BuildingBlock: XUDNAN_clean_linker_2, # of connection points: 2
#     Edge 22, Type (0, 0), BuildingBlock: XUDNAN_clean_linker_2, # of connection points: 2
#     Edge 23, Type (0, 0), BuildingBlock: XUDNAN_clean_linker_2, # of connection points: 2
#     Edge 24, Type (0, 0), BuildingBlock: XUDNAN_clean_linker_2, # of connection points: 2
#     Edge 25, Type (0, 0), BuildingBlock: XUDNAN_clean_linker_2, # of connection points: 2
#     Edge 26, Type (0, 0), BuildingBlock: XUDNAN_clean_linker_2, # of connection points: 2
#     Edge 27, Type (0, 0), BuildingBlock: XUDNAN_clean_linker_2, # of connection points: 2
#     Edge 28, Type (0, 0), BuildingBlock: XUDNAN_clean_linker_2, # of connection points: 2
#     Edge 29, Type (0, 0), BuildingBlock: XUDNAN_clean_linker_2, # of connection points: 2
#     Edge 30, Type (0, 0), BuildingBlock: XUDNAN_clean_linker_2, # of connection points: 2
#     Edge 31, Type (0, 0), BuildingBlock: XUDNAN_clean_linker_2, # of connection points: 2
#     Edge 32, Type (0, 0), BuildingBlock: XUDNAN_clean_linker_2, # of connection points: 2
#     Edge 33, Type (0, 0), BuildingBlock: XUDNAN_clean_linker_2, # of connection points: 2
#     Edge 34, Type (0, 0), BuildingBlock: XUDNAN_clean_linker_2, # of connection points: 2
#     Edge 35, Type (0, 0), BuildingBlock: XUDNAN_clean_linker_2, # of connection points: 2
#     Edge 36, Type (0, 0), BuildingBlock: XUDNAN_clean_linker_2, # of connection points: 2
#     Edge 37, Type (0, 0), BuildingBlock: XUDNAN_clean_linker_2, # of connection points: 2
#     Edge 38, Type (0, 0), BuildingBlock: XUDNAN_clean_linker_2, # of connection points: 2
#     Edge 39, Type (0, 0), BuildingBlock: XUDNAN_clean_linker_2, # of connection points: 2
#     Edge 40, Type (0, 0), BuildingBlock: XUDNAN_clean_linker_2, # of connection points: 2
#     Edge 41, Type (0, 0), BuildingBlock: XUDNAN_clean_linker_2, # of connection points: 2
#     Edge 42, Type (0, 0), BuildingBlock: XUDNAN_clean_linker_2, # of connection points: 2
#     Edge 43, Type (0, 0), BuildingBlock: XUDNAN_clean_linker_2, # of connection points: 2
#     Edge 44, Type (0, 0), BuildingBlock: XUDNAN_clean_linker_2, # of connection points: 2
#     Edge 45, Type (0, 0), BuildingBlock: XUDNAN_clean_linker_2, # of connection points: 2
#     Edge 46, Type (0, 0), BuildingBlock: XUDNAN_clean_linker_2, # of connection points: 2
#     Edge 47, Type (0, 0), BuildingBlock: XUDNAN_clean_linker_2, # of connection points: 2
# Relax obj value: 0.091
# Max RMSD: 0.122
# Mean RMSD: 0.117
data_MOF--net-pcl--node1-ICAMEG_clean_sbu_1--edge1-XUDNAN_clean_linker_2
_symmetry_space_group_name_H-M    P1
_symmetry_Int_Tables_number       1
_symmetry_cell_setting            triclinic
loop_
_symmetry_equiv_pos_as_xyz
'x, y, z'
_cell_length_a     55.001026
_cell_length_b     43.257447
_cell_length_c     46.763126
_cell_angle_alpha  90.059748
_cell_angle_beta   89.903417
_cell_angle_gamma 89.988263
loop_
_atom_site_label
_atom_site_type_symbol
_atom_site_fract_x
_atom_site_fract_y
_atom_site_fract_z
_atom_type_partial_charge
Co0 Co 0.14256 0.3773 0.10558 0.0
Co1 Co 0.12929 0.30228 0.08547 0.0
O2 O 0.14707 0.34136 0.08036 0.0
C3 C 0.13513 0.40386 0.04807 0.0
O4 O 0.12214 0.37931 0.04186 0.0
C5 C 0.18155 0.28252 0.07462 0.0
O6 O 0.18979 0.30732 0.08754 0.0
O7 O 0.13969 0.29988 0.12659 0.0
O8 O 0.13926 0.34994 0.13955 0.0
H9 H 0.07263 0.22977 0.13645 0.0
H10 H 0.18495 0.37681 0.06646 0.0
O11 O 0.14533 0.40628 0.07236 0.0
H12 H 0.21957 0.38148 0.16358 0.0
H13 H 0.16017 0.48499 0.14098 0.0
H14 H 0.10979 0.39183 0.15427 0.0
H15 H 0.17515 0.38058 0.1565 0.0
H16 H 0.16576 0.43951 0.10982 0.0
O17 O 0.15871 0.27751 0.07324 0.0
H18 H 0.09517 0.27844 0.12925 0.0
H19 H 0.12607 0.24309 0.0526 0.0
H20 H 0.10383 0.43662 0.18616 0.0
H21 H 0.2295 0.37809 0.07254 0.0
H22 H 0.1291 0.48366 0.17958 0.0
H23 H 0.24707 0.38031 0.1214 0.0
O24 O 0.10679 0.37593 0.10017 0.0
H25 H 0.14259 0.3203 0.98043 0.0
H26 H 0.08229 0.29375 0.05448 0.0
H27 H 0.06917 0.29848 1.00432 0.0
H28 H 0.09947 0.31176 0.96683 0.0
H29 H 0.15478 0.31587 0.03097 0.0
H30 H 0.10411 0.19391 0.05917 0.0
H31 H 0.07705 0.18707 0.10127 0.0
O32 O 0.09873 0.32519 0.09669 0.0
C33 C 0.14002 0.32124 0.14548 0.0
C34 C 0.08434 0.23249 0.118 0.0
C35 C 0.10204 0.21234 0.07465 0.0
N36 N 0.11187 0.26365 0.0905 0.0
C37 C 0.09711 0.26001 0.11378 0.0
C38 C 0.11452 0.2402 0.07112 0.0
C39 C 0.08685 0.20853 0.09827 0.0
C40 C 0.19248 0.37812 0.08776 0.0
N41 N 0.17749 0.37869 0.11107 0.0
C42 C 0.21771 0.37869 0.09108 0.0
C43 C 0.22755 0.37988 0.1185 0.0
C44 C 0.21213 0.3805 0.14218 0.0
C45 C 0.18699 0.37986 0.13804 0.0
C46 C 0.14908 0.4646 0.1441 0.0
C47 C 0.12101 0.41209 0.15142 0.0
C48 C 0.15212 0.4388 0.12648 0.0
N49 N 0.13824 0.41292 0.13036 0.0
C50 C 0.11748 0.43744 0.16948 0.0
C51 C 0.13165 0.46384 0.16576 0.0
C52 C 0.09195 0.35332 0.09943 0.0
C53 C 0.12922 0.31449 0.99656 0.0
C54 C 0.09549 0.29989 0.03839 0.0
C55 C 0.088 0.30234 0.00997 0.0
C56 C 0.10502 0.30974 0.98895 0.0
N57 N 0.11924 0.30469 0.04573 0.0
C58 C 0.13603 0.31182 0.02521 0.0
Co59 Co 0.87893 0.64036 0.62656 0.0
Co60 Co 0.89027 0.70972 0.59114 0.0
O61 O 0.87223 0.67042 0.59576 0.0
C62 C 0.88419 0.59976 0.57506 0.0
O63 O 0.89558 0.62199 0.56142 0.0
C64 C 0.83715 0.72729 0.5798 0.0
O65 O 0.82911 0.70025 0.58825 0.0
O66 O 0.88548 0.72061 0.63255 0.0
O67 O 0.88229 0.67463 0.65462 0.0
H68 H 0.95281 0.78893 0.61873 0.0
H69 H 0.83488 0.63274 0.59104 0.0
O70 O 0.87545 0.60441 0.59991 0.0
H71 H 0.80484 0.64303 0.69003 0.0
H72 H 0.86627 0.54248 0.68309 0.0
H73 H 0.91431 0.63824 0.67417 0.0
H74 H 0.84882 0.64382 0.67968 0.0
H75 H 0.85788 0.57953 0.6443 0.0
O76 O 0.85981 0.73355 0.58091 0.0
H77 H 0.92983 0.74024 0.6235 0.0
H78 H 0.88917 0.76167 0.54896 0.0
H79 H 0.92307 0.60202 0.71354 0.0
H80 H 0.7907 0.63121 0.6004 0.0
H81 H 0.89896 0.55374 0.71817 0.0
H82 H 0.77543 0.63658 0.65018 0.0
O83 O 0.91455 0.64108 0.61794 0.0
H84 H 0.86479 0.67073 0.4942 0.0
H85 H 0.93296 0.71069 0.5517 0.0
H86 H 0.93996 0.69617 0.50142 0.0
H87 H 0.90571 0.67612 0.47224 0.0
H88 H 0.85865 0.68512 0.5446 0.0
H89 H 0.91154 0.81069 0.54354 0.0
H90 H 0.94369 0.82456 0.57852 0.0
O91 O 0.92157 0.68837 0.59999 0.0
C92 C 0.88357 0.70399 0.65502 0.0
C93 C 0.93885 0.78314 0.60333 0.0
C94 C 0.91567 0.79537 0.56116 0.0
N95 N 0.90818 0.74809 0.58655 0.0
C96 C 0.92581 0.75558 0.60591 0.0
C97 C 0.90299 0.76763 0.56441 0.0
C98 C 0.93372 0.80313 0.58078 0.0
C99 C 0.82834 0.63498 0.61276 0.0
N100 N 0.84436 0.6389 0.63474 0.0
C101 C 0.80332 0.63414 0.61793 0.0
C102 C 0.79477 0.63719 0.64586 0.0
C103 C 0.81125 0.64088 0.66822 0.0
C104 C 0.83612 0.64161 0.66222 0.0
C105 C 0.87689 0.56345 0.68131 0.0
C106 C 0.90366 0.61734 0.67613 0.0
C107 C 0.87229 0.58447 0.65932 0.0
N108 N 0.88552 0.61111 0.65704 0.0
C109 C 0.90874 0.59689 0.69842 0.0
C110 C 0.89522 0.56979 0.701 0.0
C111 C 0.92877 0.66205 0.60866 0.0
C112 C 0.87982 0.67967 0.50662 0.0
C113 C 0.9179 0.7021 0.53917 0.0
C114 C 0.922 0.69389 0.51068 0.0
C115 C 0.90279 0.68264 0.49433 0.0
N116 N 0.89527 0.69933 0.55107 0.0
C117 C 0.8764 0.68811 0.53519 0.0
Co118 Co 0.14197 0.64135 0.89144 0.0
Co119 Co 0.14531 0.71212 0.92477 0.0
O120 O 0.1568 0.66934 0.91966 0.0
C121 C 0.14227 0.60049 0.94293 0.0
O122 O 0.13397 0.62337 0.95864 0.0
C123 C 0.19944 0.72073 0.91973 0.0
O124 O 0.19958 0.70256 0.89721 0.0
O125 O 0.14952 0.72046 0.8827 0.0
O126 O 0.13565 0.676 0.86465 0.0
H127 H 0.09495 0.80507 0.89982 0.0
H128 H 0.19083 0.62692 0.91415 0.0
O129 O 0.14759 0.60479 0.91674 0.0
H130 H 0.202 0.63782 0.80997 0.0
H131 H 0.13602 0.54379 0.83287 0.0
H132 H 0.09779 0.64405 0.85523 0.0
H133 H 0.1614 0.64368 0.83168 0.0
H134 H 0.15448 0.57892 0.86827 0.0
O135 O 0.17948 0.72676 0.93237 0.0
H136 H 0.10933 0.75127 0.89493 0.0
H137 H 0.15776 0.76397 0.96461 0.0
H138 H 0.07888 0.60981 0.81947 0.0
H139 H 0.23177 0.62052 0.89326 0.0
H140 H 0.09803 0.55927 0.80804 0.0
H141 H 0.23755 0.62608 0.84082 0.0
O142 O 0.10951 0.64771 0.90908 0.0
H143 H 0.17175 0.67057 0.02004 0.0
H144 H 0.10704 0.72611 0.96837 0.0
H145 H 0.10225 0.71577 0.01993 0.0
H146 H 0.13475 0.68777 0.04611 0.0
H147 H 0.17576 0.68139 0.96847 0.0
H148 H 0.14414 0.81795 0.97003 0.0
H149 H 0.11241 0.83879 0.93758 0.0
O150 O 0.11037 0.69863 0.9192 0.0
C151 C 0.14212 0.70402 0.86176 0.0
C152 C 0.10873 0.79622 0.91414 0.0
C153 C 0.13637 0.80347 0.95351 0.0
N154 N 0.13425 0.75443 0.92954 0.0
C155 C 0.11689 0.76577 0.91152 0.0
C156 C 0.14408 0.77291 0.95025 0.0
C157 C 0.11856 0.81515 0.93531 0.0
C158 C 0.1932 0.62908 0.89128 0.0
N159 N 0.17375 0.63558 0.87418 0.0
C160 C 0.21642 0.62555 0.87959 0.0
C161 C 0.21965 0.62872 0.85017 0.0
C162 C 0.19972 0.63534 0.83285 0.0
C163 C 0.17678 0.63873 0.84529 0.0
C164 C 0.12751 0.56576 0.83764 0.0
C165 C 0.10626 0.62213 0.85037 0.0
C166 C 0.13783 0.58571 0.85775 0.0
N167 N 0.12728 0.61359 0.86376 0.0
C168 C 0.09545 0.60281 0.83011 0.0
C169 C 0.1062 0.57446 0.82371 0.0
C170 C 0.09915 0.67283 0.91648 0.0
C171 C 0.15744 0.68276 0.00887 0.0
C172 C 0.12123 0.71385 0.9796 0.0
C173 C 0.11844 0.70812 0.00881 0.0
C174 C 0.13668 0.69242 0.02349 0.0
N175 N 0.1416 0.70423 0.96539 0.0
C176 C 0.15961 0.68895 0.97967 0.0
Co177 Co 0.87957 0.38121 0.40833 0.0
Co178 Co 0.88425 0.30336 0.42579 0.0
O179 O 0.86993 0.34482 0.43119 0.0
C180 C 0.88637 0.40389 0.46776 0.0
O181 O 0.89595 0.37704 0.4744 0.0
C182 C 0.82986 0.29091 0.43572 0.0
O183 O 0.82416 0.32021 0.43304 0.0
O184 O 0.87788 0.30505 0.38351 0.0
O185 O 0.8812 0.35549 0.37306 0.0
H186 H 0.93806 0.22595 0.37655 0.0
H187 H 0.8357 0.3852 0.44482 0.0
O188 O 0.87819 0.40869 0.44274 0.0
H189 H 0.80669 0.40425 0.34669 0.0
H190 H 0.87573 0.49275 0.37772 0.0
H191 H 0.91585 0.39208 0.36251 0.0
H192 H 0.85013 0.39493 0.35612 0.0
H193 H 0.86368 0.44724 0.4061 0.0
O194 O 0.85182 0.282 0.43208 0.0
H195 H 0.91984 0.27732 0.38479 0.0
H196 H 0.87919 0.24203 0.45481 0.0
H197 H 0.92818 0.43689 0.33333 0.0
H198 H 0.79208 0.39496 0.4365 0.0
H199 H 0.90809 0.48769 0.34089 0.0
H200 H 0.7773 0.40441 0.3871 0.0
O201 O 0.91471 0.37356 0.41624 0.0
H202 H 0.86337 0.31769 0.52984 0.0
H203 H 0.92666 0.28463 0.46158 0.0
H204 H 0.93515 0.28304 0.51326 0.0
H205 H 0.90336 0.29958 0.54783 0.0
H206 H 0.85571 0.31919 0.47804 0.0
H207 H 0.89676 0.19023 0.44715 0.0
H208 H 0.9265 0.18196 0.40785 0.0
O209 O 0.91744 0.32198 0.42065 0.0
C210 C 0.879 0.3273 0.36558 0.0
C211 C 0.92514 0.22927 0.39376 0.0
C212 C 0.90192 0.20921 0.43335 0.0
N213 N 0.89848 0.2627 0.42026 0.0
C214 C 0.9148 0.25831 0.39856 0.0
C215 C 0.89194 0.23857 0.4375 0.0
C216 C 0.91863 0.20459 0.41131 0.0
C217 C 0.82941 0.38948 0.4233 0.0
N218 N 0.84542 0.38917 0.40094 0.0
C219 C 0.80469 0.39491 0.4187 0.0
C220 C 0.79641 0.40016 0.39098 0.0
C221 C 0.81287 0.40001 0.3683 0.0
C222 C 0.83745 0.39447 0.37372 0.0
C223 C 0.88459 0.47073 0.37419 0.0
C224 C 0.9069 0.41406 0.36578 0.0
C225 C 0.8779 0.44489 0.39026 0.0
N226 N 0.88894 0.41697 0.38584 0.0
C227 C 0.91401 0.43937 0.34926 0.0
C228 C 0.90275 0.46787 0.35352 0.0
C229 C 0.92699 0.34881 0.41915 0.0
C230 C 0.87731 0.31022 0.51501 0.0
C231 C 0.91266 0.29176 0.47644 0.0
C232 C 0.9176 0.29082 0.50571 0.0
C233 C 0.89976 0.30011 0.52508 0.0
N234 N 0.89053 0.30154 0.46668 0.0
C235 C 0.87301 0.31081 0.48558 0.0
Co236 Co 0.87714 0.65147 0.90047 0.0
Co237 Co 0.87395 0.67735 0.97038 0.0
O238 O 0.86469 0.68004 0.92977 0.0
C239 C 0.89656 0.69663 0.85785 0.0
O240 O 0.91851 0.68817 0.86548 0.0
C241 C 0.81952 0.6793 0.9743 0.0
O242 O 0.81866 0.65747 0.95478 0.0
O243 O 0.86501 0.63245 0.97164 0.0
O244 O 0.87616 0.61604 0.92798 0.0
H245 H 0.91416 0.62869 0.05556 0.0
H246 H 0.83405 0.69009 0.88793 0.0
O247 O 0.87799 0.68614 0.87125 0.0
H248 H 0.80609 0.58241 0.8771 0.0
H249 H 0.88248 0.60553 0.80153 0.0
H250 H 0.91503 0.60272 0.8997 0.0
H251 H 0.84864 0.59373 0.88983 0.0
H252 H 0.86588 0.63986 0.83884 0.0
O253 O 0.84003 0.6896 0.98256 0.0
H254 H 0.90313 0.63337 1.00466 0.0
H255 H 0.86346 0.7155 0.02228 0.0
H256 H 0.93202 0.56768 0.86314 0.0
H257 H 0.79136 0.67985 0.87483 0.0
H258 H 0.91578 0.56901 0.81361 0.0
H259 H 0.77713 0.62568 0.86941 0.0
O260 O 0.91118 0.6604 0.91241 0.0
H261 H 0.86101 0.7892 0.94592 0.0
H262 H 0.91701 0.71392 0.98966 0.0
H263 H 0.92869 0.76888 0.98748 0.0
H264 H 0.90054 0.80699 0.96559 0.0
H265 H 0.85018 0.73391 0.94826 0.0
H266 H 0.87395 0.71161 0.07339 0.0
H267 H 0.89954 0.66801 0.09032 0.0
O268 O 0.9083 0.6662 0.95993 0.0
C269 C 0.86956 0.61085 0.95373 0.0
C270 C 0.90307 0.64786 0.04844 0.0
C271 C 0.88047 0.69437 0.05844 0.0
N272 N 0.88279 0.67477 0.01046 0.0
C273 C 0.89681 0.65067 0.01962 0.0
C274 C 0.87454 0.69641 0.02948 0.0
C275 C 0.89483 0.6699 0.06793 0.0
C276 C 0.82803 0.66646 0.88537 0.0
N277 N 0.84385 0.64254 0.88954 0.0
C278 C 0.80382 0.6608 0.87805 0.0
C279 C 0.79584 0.6304 0.87506 0.0
C280 C 0.81207 0.60612 0.8794 0.0
C281 C 0.83613 0.61266 0.88672 0.0
C282 C 0.88974 0.60474 0.82302 0.0
C283 C 0.90781 0.60337 0.87823 0.0
C284 C 0.88047 0.62423 0.84421 0.0
N285 N 0.88954 0.62344 0.8714 0.0
C286 C 0.91752 0.58349 0.8576 0.0
C287 C 0.90841 0.58425 0.82982 0.0
C288 C 0.9208 0.66313 0.93705 0.0
C289 C 0.87341 0.77283 0.95555 0.0
C290 C 0.90474 0.73029 0.97991 0.0
C291 C 0.91142 0.76142 0.97884 0.0
C292 C 0.8956 0.78279 0.96657 0.0
N293 N 0.88291 0.72072 0.96914 0.0
C294 C 0.86736 0.74151 0.957 0.0
Co295 Co 0.15042 0.37449 0.406 0.0
Co296 Co 0.15164 0.32785 0.46576 0.0
O297 O 0.16151 0.33753 0.42653 0.0
C298 C 0.13143 0.34875 0.35182 0.0
O299 O 0.11139 0.364 0.3578 0.0
C300 C 0.2003 0.31832 0.49336 0.0
O301 O 0.19603 0.34282 0.50917 0.0
O302 O 0.16187 0.36978 0.47852 0.0
O303 O 0.15173 0.40042 0.44173 0.0
H304 H 0.11184 0.3503 0.5603 0.0
H305 H 0.19277 0.33933 0.38406 0.0
O306 O 0.14911 0.34921 0.36954 0.0
H307 H 0.22368 0.44438 0.403 0.0
H308 H 0.14943 0.44972 0.32365 0.0
H309 H 0.11415 0.42358 0.41759 0.0
H310 H 0.18066 0.43159 0.41187 0.0
H311 H 0.16331 0.40356 0.34991 0.0
O312 O 0.18526 0.3105 0.47376 0.0
H313 H 0.12391 0.36123 0.51051 0.0
H314 H 0.15905 0.274 0.50486 0.0
H315 H 0.09982 0.47003 0.39213 0.0
H316 H 0.23589 0.35125 0.37454 0.0
H317 H 0.11747 0.48333 0.34479 0.0
H318 H 0.25161 0.40409 0.38407 0.0
O319 O 0.11576 0.36374 0.41438 0.0
H320 H 0.16136 0.22759 0.41264 0.0
H321 H 0.10681 0.28975 0.47363 0.0
H322 H 0.09333 0.23858 0.45664 0.0
H323 H 0.12074 0.20706 0.42602 0.0
H324 H 0.17402 0.27906 0.42984 0.0
H325 H 0.14749 0.26219 0.55463 0.0
H326 H 0.12366 0.30047 0.58269 0.0
O327 O 0.11787 0.34383 0.4586 0.0
C328 C 0.15828 0.39645 0.46766 0.0
C329 C 0.1222 0.33341 0.54829 0.0
C330 C 0.14222 0.28397 0.54511 0.0
N331 N 0.14214 0.31827 0.50478 0.0
C332 C 0.12906 0.33946 0.52008 0.0
C333 C 0.14875 0.29081 0.51695 0.0
C334 C 0.12885 0.30546 0.56084 0.0
C335 C 0.19943 0.36244 0.38805 0.0
N336 N 0.18417 0.38476 0.39835 0.0
C337 C 0.22389 0.36903 0.38272 0.0
C338 C 0.2327 0.39867 0.3881 0.0
C339 C 0.21705 0.42127 0.39874 0.0
C340 C 0.19271 0.41385 0.40382 0.0
C341 C 0.14161 0.44418 0.34428 0.0
C342 C 0.12197 0.42926 0.39703 0.0
C343 C 0.1494 0.41809 0.35925 0.0
N344 N 0.13958 0.41092 0.3853 0.0
C345 C 0.11376 0.45558 0.38271 0.0
C346 C 0.12368 0.46303 0.35615 0.0
C347 C 0.10574 0.35422 0.43737 0.0
C348 C 0.14929 0.24106 0.42604 0.0
C349 C 0.1188 0.27626 0.46018 0.0
C350 C 0.11109 0.24725 0.4507 0.0
C351 C 0.12648 0.22958 0.43353 0.0
N352 N 0.14126 0.2873 0.45287 0.0
C353 C 0.15639 0.27017 0.43592 0.0
Co354 Co 0.86289 0.38771 0.11134 0.0
Co355 Co 0.87321 0.33727 0.05476 0.0
O356 O 0.85639 0.34945 0.0901 0.0
C357 C 0.87151 0.3389 0.15542 0.0
O358 O 0.882 0.32177 0.13576 0.0
C359 C 0.82156 0.33924 0.03575 0.0
O360 O 0.82027 0.36658 0.04789 0.0
O361 O 0.8692 0.37964 0.03789 0.0
O362 O 0.86398 0.41184 0.07508 0.0
H363 H 0.93407 0.34934 0.97533 0.0
H364 H 0.82094 0.34865 0.12762 0.0
O365 O 0.8622 0.36492 0.14881 0.0
H366 H 0.78578 0.4494 0.10083 0.0
H367 H 0.85156 0.46294 0.19256 0.0
H368 H 0.89568 0.44138 0.10283 0.0
H369 H 0.83013 0.44118 0.09935 0.0
H370 H 0.84351 0.41517 0.16535 0.0
O371 O 0.84132 0.32388 0.03705 0.0
H372 H 0.91271 0.36435 0.01965 0.0
H373 H 0.86884 0.28373 0.01479 0.0
H374 H 0.904 0.48967 0.12911 0.0
H375 H 0.77646 0.35593 0.12963 0.0
H376 H 0.8819 0.50067 0.17437 0.0
H377 H 0.75862 0.40659 0.1161 0.0
O378 O 0.89869 0.381 0.10915 0.0
H379 H 0.84498 0.24137 0.10539 0.0
H380 H 0.91495 0.29362 0.0605 0.0
H381 H 0.92054 0.24217 0.08218 0.0
H382 H 0.88537 0.21566 0.10478 0.0
H383 H 0.84029 0.29303 0.08374 0.0
H384 H 0.88955 0.268 0.97027 0.0
H385 H 0.9225 0.30084 0.95032 0.0
O386 O 0.9054 0.34974 0.07147 0.0
C387 C 0.86633 0.40671 0.0484 0.0
C388 C 0.91979 0.33479 0.98385 0.0
C389 C 0.89478 0.28916 0.98099 0.0
N390 N 0.88968 0.32484 0.0199 0.0
C391 C 0.90768 0.34313 0.00898 0.0
C392 C 0.88308 0.29823 1.00616 0.0
C393 C 0.91327 0.30759 0.96982 0.0
C394 C 0.8133 0.37082 0.12193 0.0
N395 N 0.8281 0.39449 0.11353 0.0
C396 C 0.78811 0.37478 0.12301 0.0
C397 C 0.77811 0.4032 0.11539 0.0
C398 C 0.79333 0.42723 0.1068 0.0
C399 C 0.81843 0.42242 0.10595 0.0
C400 C 0.86129 0.45842 0.17285 0.0
C401 C 0.88586 0.4461 0.1224 0.0
C402 C 0.85687 0.43136 0.1574 0.0
N403 N 0.86905 0.42555 0.13245 0.0
C404 C 0.89071 0.47344 0.13723 0.0
C405 C 0.87831 0.47959 0.16263 0.0
C406 C 0.91288 0.36626 0.09235 0.0
C407 C 0.86044 0.25267 0.09557 0.0
C408 C 0.89961 0.28233 0.07046 0.0
C409 C 0.90286 0.25314 0.0826 0.0
C410 C 0.88311 0.23827 0.09526 0.0
N411 N 0.87732 0.2963 0.07087 0.0
C412 C 0.85787 0.28186 0.0832 0.0
Co413 Co 0.15168 0.63658 0.62114 0.0
Co414 Co 0.15183 0.66657 0.5522 0.0
O415 O 0.16283 0.66676 0.59241 0.0
C416 C 0.15268 0.69764 0.65518 0.0
O417 O 0.16066 0.71466 0.63392 0.0
C418 C 0.19798 0.66389 0.5194 0.0
O419 O 0.18908 0.63856 0.50799 0.0
O420 O 0.15942 0.62143 0.54826 0.0
O421 O 0.15365 0.60254 0.59235 0.0
H422 H 0.10717 0.62404 0.46715 0.0
H423 H 0.19543 0.67613 0.63061 0.0
O424 O 0.14891 0.66878 0.65199 0.0
H425 H 0.22366 0.56912 0.64437 0.0
H426 H 0.14713 0.58814 0.71903 0.0
H427 H 0.11657 0.58463 0.61999 0.0
H428 H 0.18091 0.57981 0.63243 0.0
H429 H 0.16232 0.62489 0.68296 0.0
O430 O 0.18595 0.67794 0.53896 0.0
H431 H 0.12105 0.62495 0.51725 0.0
H432 H 0.1594 0.7086 0.50217 0.0
H433 H 0.10113 0.54714 0.65534 0.0
H434 H 0.2382 0.66658 0.64298 0.0
H435 H 0.11639 0.54881 0.70528 0.0
H436 H 0.25266 0.61272 0.64993 0.0
O437 O 0.117 0.64465 0.61112 0.0
H438 H 0.16931 0.77674 0.57938 0.0
H439 H 0.10821 0.70539 0.53946 0.0
H440 H 0.09807 0.76057 0.5451 0.0
H441 H 0.12877 0.7967 0.56507 0.0
H442 H 0.17858 0.72128 0.57375 0.0
H443 H 0.14591 0.7086 0.4519 0.0
H444 H 0.1196 0.66609 0.43409 0.0
O445 O 0.11784 0.65575 0.56421 0.0
C446 C 0.15774 0.5989 0.56573 0.0
C447 C 0.11859 0.64272 0.47467 0.0
C448 C 0.14033 0.69018 0.46611 0.0
N449 N 0.14094 0.66685 0.51268 0.0
C450 C 0.12649 0.64338 0.50303 0.0
C451 C 0.1479 0.69006 0.4946 0.0
C452 C 0.12558 0.66631 0.45613 0.0
C453 C 0.20136 0.65269 0.63396 0.0
N454 N 0.18544 0.62864 0.63118 0.0
C455 C 0.22572 0.64739 0.6408 0.0
C456 C 0.23383 0.61717 0.64464 0.0
C457 C 0.21758 0.59271 0.64151 0.0
C458 C 0.19337 0.59891 0.63465 0.0
C459 C 0.14039 0.58712 0.69732 0.0
C460 C 0.12348 0.5853 0.6416 0.0
C461 C 0.14887 0.60794 0.67679 0.0
N462 N 0.14048 0.60677 0.64929 0.0
C463 C 0.1146 0.56409 0.66156 0.0
C464 C 0.12314 0.56507 0.68959 0.0
C465 C 0.10641 0.6497 0.58734 0.0
C466 C 0.1558 0.76124 0.57058 0.0
C467 C 0.12162 0.72089 0.54839 0.0
C468 C 0.1158 0.75215 0.55142 0.0
C469 C 0.13304 0.77242 0.56259 0.0
N470 N 0.14402 0.71012 0.55619 0.0
C471 C 0.16098 0.72984 0.56724 0.0
Co472 Co 0.64736 0.88143 0.10999 0.0
Co473 Co 0.63448 0.80581 0.09034 0.0
O474 O 0.65054 0.84585 0.08401 0.0
C475 C 0.63269 0.90786 0.05423 0.0
O476 O 0.62027 0.88248 0.04941 0.0
C477 C 0.68699 0.78765 0.078 0.0
O478 O 0.69526 0.8106 0.09359 0.0
O479 O 0.6465 0.80389 0.13097 0.0
O480 O 0.6494 0.85379 0.14369 0.0
H481 H 0.583 0.73026 0.145 0.0
H482 H 0.68471 0.88216 0.06438 0.0
O483 O 0.64512 0.9107 0.07698 0.0
H484 H 0.73024 0.89201 0.15468 0.0
H485 H 0.66416 0.99008 0.14345 0.0
H486 H 0.62034 0.89312 0.16388 0.0
H487 H 0.68549 0.88859 0.15496 0.0
H488 H 0.66793 0.94533 0.11103 0.0
O489 O 0.66415 0.7829 0.07607 0.0
H490 H 0.60311 0.7803 0.13608 0.0
H491 H 0.63203 0.74625 0.05789 0.0
H492 H 0.61638 0.93714 0.19709 0.0
H493 H 0.72947 0.88583 0.06305 0.0
H494 H 0.63836 0.98608 0.18694 0.0
H495 H 0.75253 0.8907 0.10845 0.0
O496 O 0.61117 0.87777 0.11037 0.0
H497 H 0.64209 0.82475 0.98466 0.0
H498 H 0.58656 0.79415 0.06251 0.0
H499 H 0.5709 0.79811 0.01328 0.0
H500 H 0.59878 0.81345 0.97391 0.0
H501 H 0.65687 0.82096 0.0343 0.0
H502 H 0.61243 0.69577 0.06608 0.0
H503 H 0.58762 0.68755 0.10985 0.0
O504 O 0.60391 0.82716 0.10311 0.0
C505 C 0.64976 0.8251 0.14967 0.0
C506 C 0.59373 0.73357 0.12583 0.0
C507 C 0.61029 0.71419 0.08156 0.0
N508 N 0.61869 0.76623 0.09648 0.0
C509 C 0.60512 0.76187 0.12063 0.0
C510 C 0.62144 0.74279 0.0771 0.0
C511 C 0.59635 0.70961 0.10611 0.0
C512 C 0.69462 0.88451 0.0842 0.0
N513 N 0.68251 0.88515 0.10972 0.0
C514 C 0.71996 0.88648 0.08332 0.0
C515 C 0.73289 0.88916 0.10881 0.0
C516 C 0.7204 0.88987 0.13476 0.0
C517 C 0.69506 0.88779 0.1348 0.0
C518 C 0.65451 0.96887 0.14812 0.0
C519 C 0.63008 0.91427 0.15939 0.0
C520 C 0.65651 0.94348 0.12979 0.0
N521 N 0.64446 0.91657 0.13562 0.0
C522 C 0.62771 0.93915 0.17824 0.0
C523 C 0.64004 0.96661 0.17252 0.0
C524 C 0.59685 0.85467 0.10857 0.0
C525 C 0.62977 0.81803 1.00162 0.0
C526 C 0.59875 0.80109 0.04554 0.0
C527 C 0.58981 0.80314 0.01768 0.0
C528 C 0.60546 0.81172 0.99561 0.0
N529 N 0.62257 0.80749 0.05131 0.0
C530 C 0.63805 0.81576 0.02976 0.0
Co531 Co 0.38157 0.12074 0.61314 0.0
Co532 Co 0.38809 0.19705 0.59125 0.0
O533 O 0.37515 0.15496 0.58677 0.0
C534 C 0.39682 0.09573 0.55688 0.0
O535 O 0.40687 0.1226 0.55136 0.0
C536 C 0.33433 0.2043 0.58584 0.0
O537 O 0.33209 0.17985 0.6022 0.0
O538 O 0.37889 0.19842 0.63289 0.0
O539 O 0.37758 0.1487 0.64648 0.0
H540 H 0.43701 0.2805 0.63885 0.0
H541 H 0.3439 0.11345 0.56846 0.0
O542 O 0.38576 0.09134 0.58042 0.0
H543 H 0.30075 0.09954 0.66006 0.0
H544 H 0.3747 0.01117 0.64863 0.0
H545 H 0.40998 0.11414 0.66663 0.0
H546 H 0.34489 0.1094 0.65915 0.0
H547 H 0.36679 0.05435 0.61554 0.0
O548 O 0.35539 0.21512 0.58032 0.0
H549 H 0.42068 0.22777 0.63287 0.0
H550 H 0.38242 0.25578 0.55845 0.0
H551 H 0.41802 0.07174 0.70051 0.0
H552 H 0.29979 0.1032 0.56832 0.0
H553 H 0.40035 0.01978 0.69158 0.0
H554 H 0.2779 0.09631 0.61438 0.0
O555 O 0.41713 0.12956 0.61248 0.0
H556 H 0.37448 0.17537 0.48687 0.0
H557 H 0.43286 0.21348 0.55859 0.0
H558 H 0.44522 0.21051 0.50795 0.0
H559 H 0.41589 0.19138 0.47167 0.0
H560 H 0.36301 0.17835 0.5378 0.0
H561 H 0.39815 0.30887 0.56377 0.0
H562 H 0.42573 0.32147 0.60413 0.0
O563 O 0.42111 0.17997 0.60125 0.0
C564 C 0.37648 0.17749 0.65197 0.0
C565 C 0.42505 0.27527 0.62113 0.0
C566 C 0.40321 0.29121 0.57901 0.0
N567 N 0.40074 0.23868 0.59526 0.0
C568 C 0.41581 0.24545 0.61759 0.0
C569 C 0.3943 0.26113 0.57616 0.0
C570 C 0.4187 0.29826 0.60166 0.0
C571 C 0.33454 0.11017 0.58857 0.0
N572 N 0.34696 0.11204 0.6138 0.0
C573 C 0.30955 0.1045 0.58837 0.0
C574 C 0.29727 0.10069 0.61422 0.0
C575 C 0.31008 0.10254 0.63986 0.0
C576 C 0.33506 0.10828 0.63923 0.0
C577 C 0.38249 0.0337 0.65276 0.0
C578 C 0.40211 0.09165 0.66267 0.0
C579 C 0.37815 0.05822 0.63404 0.0
N580 N 0.38783 0.08679 0.6392 0.0
C581 C 0.40678 0.0677 0.68189 0.0
C582 C 0.39687 0.03855 0.67686 0.0
C583 C 0.43 0.1537 0.60821 0.0
C584 C 0.3874 0.18379 0.50247 0.0
C585 C 0.42007 0.20495 0.54297 0.0
C586 C 0.42713 0.20344 0.5143 0.0
C587 C 0.41066 0.19274 0.49396 0.0
N588 N 0.39725 0.19607 0.55117 0.0
C589 C 0.38098 0.18564 0.53133 0.0
Co590 Co 0.6375 0.1421 0.89459 0.0
Co591 Co 0.63728 0.21552 0.92419 0.0
O592 O 0.65049 0.17309 0.92168 0.0
C593 C 0.63542 0.10423 0.94813 0.0
O594 O 0.62578 0.12746 0.96226 0.0
C595 C 0.69231 0.22479 0.93349 0.0
O596 O 0.69745 0.19531 0.93073 0.0
O597 O 0.64097 0.22131 0.88166 0.0
O598 O 0.63183 0.17422 0.86532 0.0
H599 H 0.58235 0.3019 0.89307 0.0
H600 H 0.68532 0.13069 0.92139 0.0
O601 O 0.64256 0.10764 0.92244 0.0
H602 H 0.70158 0.13468 0.81771 0.0
H603 H 0.63674 0.04027 0.84209 0.0
H604 H 0.59507 0.14017 0.85555 0.0
H605 H 0.65991 0.141 0.83622 0.0
H606 H 0.65262 0.0787 0.87627 0.0
O607 O 0.67058 0.23452 0.92994 0.0
H608 H 0.59931 0.24911 0.89204 0.0
H609 H 0.64711 0.27157 0.96023 0.0
H610 H 0.5787 0.10254 0.82097 0.0
H611 H 0.72732 0.12389 0.90376 0.0
H612 H 0.59959 0.05216 0.81403 0.0
H613 H 0.73565 0.12596 0.85157 0.0
O614 O 0.60388 0.14817 0.90948 0.0
H615 H 0.66281 0.17862 0.02193 0.0
H616 H 0.59964 0.23344 0.96724 0.0
H617 H 0.59455 0.22655 0.01913 0.0
H618 H 0.62631 0.19904 0.04693 0.0
H619 H 0.66706 0.18572 0.9701 0.0
H620 H 0.63094 0.32468 0.96168 0.0
H621 H 0.59821 0.34011 0.92805 0.0
O622 O 0.60318 0.19896 0.91988 0.0
C623 C 0.63581 0.20278 0.86129 0.0
C624 C 0.59656 0.29543 0.90788 0.0
C625 C 0.62387 0.30824 0.94634 0.0
N626 N 0.62411 0.25717 0.92611 0.0
C627 C 0.60618 0.26554 0.90746 0.0
C628 C 0.63306 0.27816 0.9453 0.0
C629 C 0.60549 0.31687 0.92749 0.0
C630 C 0.68882 0.13144 0.89864 0.0
N631 N 0.6702 0.1363 0.8799 0.0
C632 C 0.71263 0.12765 0.88879 0.0
C633 C 0.71729 0.12885 0.85951 0.0
C634 C 0.69819 0.13378 0.8405 0.0
C635 C 0.67463 0.1375 0.85113 0.0
C636 C 0.62749 0.06215 0.8449 0.0
C637 C 0.60428 0.11831 0.85267 0.0
C638 C 0.63636 0.08398 0.86428 0.0
N639 N 0.62484 0.11172 0.86786 0.0
C640 C 0.59491 0.09709 0.83305 0.0
C641 C 0.60664 0.06884 0.82917 0.0
C642 C 0.59267 0.1728 0.91659 0.0
C643 C 0.6489 0.19082 0.01009 0.0
C644 C 0.61361 0.22147 0.97908 0.0
C645 C 0.6106 0.21765 0.00853 0.0
C646 C 0.62841 0.20223 0.0241 0.0
N647 N 0.63382 0.21041 0.96542 0.0
C648 C 0.65128 0.1951 0.98062 0.0
Co649 Co 0.38762 0.86637 0.39084 0.0
Co650 Co 0.38522 0.79274 0.41959 0.0
O651 O 0.37361 0.83588 0.41765 0.0
C652 C 0.3912 0.90309 0.44494 0.0
O653 O 0.40024 0.8791 0.45843 0.0
C654 C 0.33015 0.78642 0.4311 0.0
O655 O 0.32611 0.81632 0.43161 0.0
O656 O 0.3812 0.7877 0.37706 0.0
O657 O 0.392 0.83434 0.36103 0.0
H658 H 0.43689 0.70354 0.38712 0.0
H659 H 0.34031 0.87986 0.41829 0.0
O660 O 0.38388 0.90063 0.41925 0.0
H661 H 0.32361 0.87878 0.31471 0.0
H662 H 0.39206 0.96891 0.34001 0.0
H663 H 0.42993 0.86636 0.35141 0.0
H664 H 0.36509 0.86978 0.33272 0.0
H665 H 0.37479 0.93087 0.37361 0.0
O666 O 0.35125 0.77577 0.42525 0.0
H667 H 0.4221 0.75737 0.38704 0.0
H668 H 0.37275 0.73658 0.45433 0.0
H669 H 0.44764 0.90358 0.31738 0.0
H670 H 0.29853 0.88927 0.40118 0.0
H671 H 0.42867 0.9553 0.31149 0.0
H672 H 0.28997 0.8887 0.34904 0.0
O673 O 0.42105 0.85811 0.40529 0.0
H674 H 0.36332 0.83221 0.51807 0.0
H675 H 0.42163 0.7703 0.4622 0.0
H676 H 0.42778 0.77656 0.51389 0.0
H677 H 0.39842 0.80755 0.54235 0.0
H678 H 0.3581 0.82588 0.4664 0.0
H679 H 0.38672 0.68247 0.45477 0.0
H680 H 0.41914 0.66566 0.42113 0.0
O681 O 0.41985 0.80723 0.41503 0.0
C682 C 0.38702 0.80605 0.35682 0.0
C683 C 0.42282 0.71062 0.40196 0.0
C684 C 0.39462 0.69877 0.43987 0.0
N685 N 0.39673 0.75025 0.42079 0.0
C686 C 0.41445 0.7411 0.4021 0.0
C687 C 0.38669 0.72943 0.4394 0.0
C688 C 0.41283 0.68936 0.42101 0.0
C689 C 0.33672 0.87974 0.39557 0.0
N690 N 0.3551 0.87427 0.37656 0.0
C691 C 0.31304 0.88501 0.38601 0.0
C692 C 0.30824 0.88465 0.35675 0.0
C693 C 0.32709 0.87906 0.33748 0.0
C694 C 0.35054 0.87385 0.34782 0.0
C695 C 0.40048 0.94645 0.34237 0.0
C696 C 0.42154 0.88879 0.34896 0.0
C697 C 0.39082 0.92483 0.36142 0.0
N698 N 0.40128 0.89635 0.36443 0.0
C699 C 0.43167 0.90978 0.32966 0.0
C700 C 0.42102 0.93879 0.32637 0.0
C701 C 0.43137 0.83273 0.41192 0.0
C702 C 0.37613 0.8184 0.50596 0.0
C703 C 0.40873 0.78387 0.47422 0.0
C704 C 0.41232 0.78729 0.50361 0.0
C705 C 0.39585 0.80465 0.51956 0.0
N706 N 0.3892 0.79714 0.46093 0.0
C707 C 0.37314 0.81445 0.47652 0.0
Co708 Co 0.37113 0.12495 0.90641 0.0
Co709 Co 0.36692 0.17374 0.9645 0.0
O710 O 0.35674 0.16077 0.92614 0.0
C711 C 0.376 0.17409 0.86164 0.0
O712 O 0.38526 0.19284 0.88085 0.0
C713 C 0.31307 0.17013 0.97356 0.0
O714 O 0.31344 0.14232 0.96226 0.0
O715 O 0.3612 0.13117 0.97955 0.0
O716 O 0.37326 0.10111 0.94304 0.0
H717 H 0.4127 0.16272 0.05681 0.0
H718 H 0.32486 0.15182 0.88577 0.0
O719 O 0.36909 0.14706 0.86878 0.0
H720 H 0.3058 0.04338 0.90929 0.0
H721 H 0.37904 0.04843 0.82565 0.0
H722 H 0.41179 0.08202 0.91875 0.0
H723 H 0.34741 0.06351 0.91517 0.0
H724 H 0.36083 0.09258 0.85132 0.0
O725 O 0.3326 0.1859 0.97485 0.0
H726 H 0.39992 0.14753 0.00825 0.0
H727 H 0.355 0.22717 1.00255 0.0
H728 H 0.43035 0.03747 0.89401 0.0
H729 H 0.283 0.13255 0.87929 0.0
H730 H 0.41398 0.02044 0.84709 0.0
H731 H 0.27325 0.07799 0.89116 0.0
O732 O 0.40473 0.14142 0.91229 0.0
H733 H 0.34521 0.26855 0.9082 0.0
H734 H 0.40762 0.21935 0.9685 0.0
H735 H 0.41524 0.27118 0.94854 0.0
H736 H 0.38387 0.29616 0.91819 0.0
H737 H 0.33846 0.21656 0.9284 0.0
H738 H 0.36709 0.24304 0.05115 0.0
H739 H 0.39623 0.21078 0.07857 0.0
O740 O 0.40157 0.16294 0.95576 0.0
C741 C 0.36674 0.10482 0.96901 0.0
C742 C 0.40004 0.17701 0.04504 0.0
C743 C 0.37442 0.22207 0.04188 0.0
N744 N 0.37685 0.18652 1.00251 0.0
C745 C 0.39278 0.16857 0.01752 0.0
C746 C 0.36759 0.21292 0.0144 0.0
C747 C 0.39078 0.20397 0.05725 0.0
C748 C 0.32078 0.12799 0.89078 0.0
N749 N 0.33857 0.10881 0.90077 0.0
C750 C 0.29704 0.11724 0.88715 0.0
C751 C 0.29157 0.08663 0.89385 0.0
C752 C 0.30982 0.0672 0.90404 0.0
C753 C 0.33334 0.07877 0.90741 0.0
C754 C 0.38632 0.05561 0.8461 0.0
C755 C 0.40448 0.07463 0.89842 0.0
C756 C 0.37614 0.08067 0.86068 0.0
N757 N 0.38519 0.0898 0.88656 0.0
C758 C 0.4151 0.04944 0.88448 0.0
C759 C 0.40592 0.03991 0.85814 0.0
C760 C 0.41421 0.15345 0.93456 0.0
C761 C 0.359 0.25793 0.92144 0.0
C762 C 0.39394 0.22998 0.9552 0.0
C763 C 0.39832 0.25939 0.94403 0.0
C764 C 0.3807 0.2734 0.92702 0.0
N765 N 0.37259 0.21497 0.94966 0.0
C766 C 0.35524 0.22856 0.933 0.0
Co767 Co 0.65266 0.88492 0.40354 0.0
Co768 Co 0.65716 0.83471 0.46077 0.0
O769 O 0.66755 0.84931 0.423 0.0
C770 C 0.64833 0.83535 0.35917 0.0
O771 O 0.63953 0.81676 0.37881 0.0
C772 C 0.7104 0.84177 0.47372 0.0
O773 O 0.70944 0.87061 0.46504 0.0
O774 O 0.6606 0.87731 0.47689 0.0
O775 O 0.65056 0.9085 0.44037 0.0
H776 H 0.60898 0.84031 0.55199 0.0
H777 H 0.69909 0.85876 0.38229 0.0
O778 O 0.65472 0.86276 0.36581 0.0
H779 H 0.71727 0.96739 0.40618 0.0
H780 H 0.64368 0.96131 0.32304 0.0
H781 H 0.61188 0.92751 0.41659 0.0
H782 H 0.67588 0.94661 0.41244 0.0
H783 H 0.6623 0.91729 0.34833 0.0
O784 O 0.69166 0.82461 0.47183 0.0
H785 H 0.6221 0.85747 0.5041 0.0
H786 H 0.67056 0.78126 0.49804 0.0
H787 H 0.5929 0.9719 0.39221 0.0
H788 H 0.74072 0.87868 0.37543 0.0
H789 H 0.6088 0.98904 0.34506 0.0
H790 H 0.75003 0.93335 0.38747 0.0
O791 O 0.61911 0.86814 0.40954 0.0
H792 H 0.68443 0.74362 0.40233 0.0
H793 H 0.61905 0.7854 0.46334 0.0
H794 H 0.61435 0.7337 0.44183 0.0
H795 H 0.64724 0.71245 0.41111 0.0
H796 H 0.68819 0.79541 0.42403 0.0
H797 H 0.6582 0.76351 0.54598 0.0
H798 H 0.6271 0.79304 0.57325 0.0
O799 O 0.62236 0.84312 0.4513 0.0
C800 C 0.65579 0.904 0.46662 0.0
C801 C 0.6225 0.82721 0.54029 0.0
C802 C 0.65015 0.78413 0.53694 0.0
N803 N 0.64698 0.82032 0.49822 0.0
C804 C 0.62995 0.83676 0.51314 0.0
C805 C 0.65713 0.79436 0.50983 0.0
C806 C 0.63269 0.8007 0.55222 0.0
C807 C 0.70297 0.88263 0.3874 0.0
N808 N 0.68506 0.9015 0.39768 0.0
C809 C 0.72659 0.89375 0.38354 0.0
C810 C 0.73181 0.92442 0.39034 0.0
C811 C 0.71344 0.94353 0.40084 0.0
C812 C 0.69004 0.9316 0.40443 0.0
C813 C 0.63661 0.95409 0.34359 0.0
C814 C 0.619 0.93496 0.39617 0.0
C815 C 0.64703 0.92911 0.35797 0.0
N816 N 0.63826 0.91993 0.38397 0.0
C817 C 0.60813 0.96006 0.38242 0.0
C818 C 0.61705 0.96964 0.35596 0.0
C819 C 0.60973 0.85395 0.43076 0.0
C820 C 0.66997 0.75262 0.41568 0.0
C821 C 0.6333 0.77646 0.44979 0.0
C822 C 0.63061 0.74709 0.43778 0.0
C823 C 0.64909 0.73516 0.42058 0.0
N824 N 0.65381 0.79348 0.44485 0.0
C825 C 0.67202 0.7819 0.42807 0.0
Co826 Co 0.36609 0.85931 0.11473 0.0
Co827 Co 0.38382 0.83386 0.04765 0.0
O828 O 0.36528 0.82912 0.08339 0.0
C829 C 0.38055 0.80354 0.14846 0.0
O830 O 0.39752 0.79717 0.12958 0.0
C831 C 0.33278 0.82199 0.02667 0.0
O832 O 0.32425 0.84083 0.0463 0.0
O833 O 0.37181 0.87731 0.04221 0.0
O834 O 0.36627 0.89424 0.08707 0.0
H835 H 0.43994 0.88856 0.97964 0.0
H836 H 0.32846 0.8105 0.11426 0.0
O837 O 0.36575 0.82566 0.1442 0.0
H838 H 0.2832 0.9089 0.11266 0.0
H839 H 0.34252 0.90156 0.21131 0.0
H840 H 0.39337 0.91726 0.12558 0.0
H841 H 0.328 0.90863 0.11454 0.0
H842 H 0.34069 0.86483 0.17103 0.0
O843 O 0.35563 0.81733 0.02464 0.0
H844 H 0.41662 0.88193 0.0243 0.0
H845 H 0.3901 0.79528 0.99509 0.0
H846 H 0.39559 0.95472 0.16529 0.0
H847 H 0.28361 0.80965 0.11261 0.0
H848 H 0.37009 0.94693 0.20858 0.0
H849 H 0.2607 0.85912 0.11169 0.0
O850 O 0.40241 0.85913 0.11496 0.0
H851 H 0.37489 0.72087 0.07016 0.0
H852 H 0.43246 0.80336 0.04375 0.0
H853 H 0.44773 0.75051 0.05167 0.0
H854 H 0.41882 0.70876 0.06489 0.0
H855 H 0.36049 0.77421 0.06242 0.0
H856 H 0.41298 0.80109 0.95001 0.0
H857 H 0.4382 0.84794 0.9421 0.0
O858 O 0.41282 0.84944 0.06934 0.0
C859 C 0.36743 0.89886 0.06021 0.0
C860 C 0.42906 0.868 0.98285 0.0
C861 C 0.41389 0.81894 0.9662 0.0
N862 N 0.40209 0.8382 0.01235 0.0
C863 C 0.41586 0.86409 0.00812 0.0
C864 C 0.40091 0.81583 0.99174 0.0
C865 C 0.42806 0.84522 0.96179 0.0
C866 C 0.31858 0.8321 0.11409 0.0
N867 N 0.33082 0.85958 0.11448 0.0
C868 C 0.29321 0.83148 0.11307 0.0
C869 C 0.28036 0.85925 0.11251 0.0
C870 C 0.29298 0.88719 0.11302 0.0
C871 C 0.31836 0.8869 0.11398 0.0
C872 C 0.35366 0.90527 0.19252 0.0
C873 C 0.38205 0.91386 0.14424 0.0
C874 C 0.35275 0.88451 0.16966 0.0
N875 N 0.36679 0.88901 0.14586 0.0
C876 C 0.38345 0.9351 0.16669 0.0
C877 C 0.36914 0.9307 0.19098 0.0
C878 C 0.41823 0.85659 0.09508 0.0
C879 C 0.38767 0.73885 0.06441 0.0
C880 C 0.41983 0.78544 0.04979 0.0
C881 C 0.42855 0.75549 0.05409 0.0
C882 C 0.41232 0.73208 0.06147 0.0
N883 N 0.39564 0.79193 0.05274 0.0
C884 C 0.37961 0.76909 0.05994 0.0
Co885 Co 0.66039 0.14446 0.61946 0.0
Co886 Co 0.64746 0.1752 0.55276 0.0
O887 O 0.66443 0.17584 0.58973 0.0
C888 C 0.64832 0.20128 0.65353 0.0
O889 O 0.63498 0.2121 0.63256 0.0
C890 C 0.69957 0.17524 0.53522 0.0
O891 O 0.70236 0.15134 0.55218 0.0
O892 O 0.65509 0.13009 0.54621 0.0
O893 O 0.66017 0.11109 0.59034 0.0
H894 H 0.58984 0.13335 0.47903 0.0
H895 H 0.70021 0.1901 0.62373 0.0
O896 O 0.66045 0.17645 0.65045 0.0
H897 H 0.74068 0.08839 0.6214 0.0
H898 H 0.67619 0.09564 0.71541 0.0
H899 H 0.62994 0.08826 0.62541 0.0
H900 H 0.69597 0.0922 0.61999 0.0
H901 H 0.68203 0.1342 0.67725 0.0
O902 O 0.67865 0.18771 0.53273 0.0
H903 H 0.61106 0.13426 0.52546 0.0
H904 H 0.64862 0.21598 0.50135 0.0
H905 H 0.62371 0.04903 0.66295 0.0
H906 H 0.74501 0.1874 0.62541 0.0
H907 H 0.64689 0.05263 0.70838 0.0
H908 H 0.76552 0.13625 0.62417 0.0
O909 O 0.62432 0.1477 0.61694 0.0
H910 H 0.66644 0.28528 0.57896 0.0
H911 H 0.60236 0.2131 0.54779 0.0
H912 H 0.59206 0.26781 0.55636 0.0
H913 H 0.62427 0.30435 0.57198 0.0
H914 H 0.67585 0.23027 0.5705 0.0
H915 H 0.62795 0.21584 0.45457 0.0
H916 H 0.59825 0.17437 0.44321 0.0
O917 O 0.61599 0.16358 0.57215 0.0
C918 C 0.65853 0.10755 0.56341 0.0
C919 C 0.60269 0.1516 0.48376 0.0
C920 C 0.62411 0.19787 0.47002 0.0
N921 N 0.63093 0.17525 0.51616 0.0
C922 C 0.6147 0.15228 0.51004 0.0
C923 C 0.6358 0.19778 0.49651 0.0
C924 C 0.60744 0.1746 0.46366 0.0
C925 C 0.70903 0.16777 0.62338 0.0
N926 N 0.69551 0.14134 0.6218 0.0
C927 C 0.73439 0.16638 0.62425 0.0
C928 C 0.74588 0.13767 0.62352 0.0
C929 C 0.73196 0.11081 0.62195 0.0
C930 C 0.70664 0.1131 0.62106 0.0
C931 C 0.66603 0.09377 0.69569 0.0
C932 C 0.64024 0.08984 0.64502 0.0
C933 C 0.66922 0.11558 0.67401 0.0
N934 N 0.65644 0.11339 0.64902 0.0
C935 C 0.63658 0.06761 0.66624 0.0
C936 C 0.64958 0.06966 0.69173 0.0
C937 C 0.60938 0.15434 0.59698 0.0
C938 C 0.65226 0.26959 0.57214 0.0
C939 C 0.61641 0.22879 0.55481 0.0
C940 C 0.6105 0.25978 0.55951 0.0
C941 C 0.62858 0.28027 0.56824 0.0
N942 N 0.63967 0.21848 0.55867 0.0
C943 C 0.65749 0.23843 0.56724 0.0
H944 H 0.05313 0.31699 0.0828 0.0
H945 H 0.07071 0.4053 0.1218 0.0
H946 H 0.02697 0.4173 0.1256 0.0
H947 H 1.00427 0.34617 0.03965 0.0
H948 H 0.98604 0.31174 0.04299 0.0
H949 H 0.01869 0.30919 0.04498 0.0
H950 H 0.01521 0.28226 0.09428 0.0
H951 H 0.98254 0.28477 0.09245 0.0
H952 H 0.99846 0.30084 0.12267 0.0
H953 H 0.98117 0.41941 0.12587 0.0
H954 H 0.93694 0.4134 0.11912 0.0
H955 H 0.94918 0.32571 0.07622 0.0
C956 C 0.04787 0.33884 0.09216 0.0
C957 C 0.06552 0.36015 0.10201 0.0
C958 C 0.05765 0.38855 0.11405 0.0
C959 C 0.0328 0.39557 0.11637 0.0
C960 C 0.01594 0.37419 0.10619 0.0
C961 C 0.02314 0.34654 0.09402 0.0
C962 C 1.00139 0.32828 0.0834 0.0
C963 C 1.00268 0.32358 0.05082 0.0
C964 C 0.99928 0.2972 0.09915 0.0
C965 C 0.98082 0.34994 0.09159 0.0
C966 C 0.98961 0.3761 0.10506 0.0
C967 C 0.9741 0.39911 0.1152 0.0
C968 C 0.94896 0.39544 0.11133 0.0
C969 C 0.9395 0.36916 0.09701 0.0
C970 C 0.95578 0.34618 0.08703 0.0
H971 H 0.96857 0.66164 0.64483 0.0
H972 H 0.94614 0.64604 0.55722 0.0
H973 H 0.98899 0.6391 0.54277 0.0
H974 H 0.02122 0.70516 0.62889 0.0
H975 H 0.03993 0.68915 0.65681 0.0
H976 H 1.0074 0.69045 0.6611 0.0
H977 H 1.00653 0.63138 0.66998 0.0
H978 H 0.03911 0.62994 0.66593 0.0
H979 H 0.02004 0.6057 0.64405 0.0
H980 H 0.03379 0.63853 0.5368 0.0
H981 H 0.0784 0.6409 0.53992 0.0
H982 H 0.07317 0.65503 0.63171 0.0
C983 C 0.9728 0.65601 0.62281 0.0
C984 C 0.9542 0.65398 0.60207 0.0
C985 C 0.96024 0.64736 0.57333 0.0
C986 C 0.98449 0.64344 0.56495 0.0
C987 C 1.00255 0.64606 0.58565 0.0
C988 C 0.99711 0.65184 0.61406 0.0
C989 C 0.02027 0.65456 0.63161 0.0
C990 C 0.02232 0.68674 0.64541 0.0
C991 C 0.02156 0.62886 0.65423 0.0
C992 C 0.03945 0.64999 0.60853 0.0
C993 C 0.02872 0.64517 0.58221 0.0
C994 C 0.04244 0.64188 0.55734 0.0
C995 C 0.06782 0.64341 0.55934 0.0
C996 C 0.07941 0.64798 0.58606 0.0
C997 C 0.06492 0.65113 0.61101 0.0
H998 H 0.95515 0.65582 0.89407 0.0
H999 H 0.94794 0.6713 0.98556 0.0
H1000 H 0.9924 0.67478 0.98975 0.0
H1001 H 1.01001 0.60882 0.89817 0.0
H1002 H 0.02307 0.62477 0.86603 0.0
H1003 H 0.99051 0.62275 0.87004 0.0
H1004 H 0.98736 0.68162 0.86075 0.0
H1005 H 0.0199 0.68384 0.85679 0.0
H1006 H 1.00463 0.70799 0.88262 0.0
H1007 H 0.03736 0.67829 0.98432 0.0
H1008 H 0.0804 0.67981 0.96957 0.0
H1009 H 0.05956 0.66191 0.88182 0.0
C1010 C 0.96287 0.65988 0.91502 0.0
C1011 C 0.94781 0.66357 0.93944 0.0
C1012 C 0.95886 0.66858 0.96645 0.0
C1013 C 0.98419 0.67058 0.96909 0.0
C1014 C 0.9984 0.6673 0.94461 0.0
C1015 C 0.98824 0.66183 0.91811 0.0
C1016 C 1.00782 0.65934 0.89523 0.0
C1017 C 1.00785 0.62699 0.88157 0.0
C1018 C 1.00474 0.68471 0.87251 0.0
C1019 C 0.03053 0.66459 0.91303 0.0
C1020 C 0.02457 0.66915 0.94147 0.0
C1021 C 0.04224 0.67487 0.96211 0.0
C1022 C 0.06663 0.67605 0.95351 0.0
C1023 C 0.07321 0.67163 0.92457 0.0
C1024 C 0.05495 0.66549 0.90409 0.0
H1025 H 0.07131 0.36586 0.39519 0.0
H1026 H 0.07861 0.34338 0.48534 0.0
H1027 H 0.03414 0.34197 0.49008 0.0
H1028 H 0.01718 0.41453 0.40245 0.0
H1029 H 1.00357 0.40082 0.36978 0.0
H1030 H 0.03619 0.40163 0.37335 0.0
H1031 H 0.03817 0.34333 0.36108 0.0
H1032 H 1.00558 0.3423 0.3575 0.0
H1033 H 0.02056 0.31627 0.38185 0.0
H1034 H 0.98928 0.3413 0.48547 0.0
H1035 H 0.94611 0.34072 0.47132 0.0
H1036 H 0.96629 0.36272 0.38408 0.0
C1037 C 0.06358 0.36091 0.41599 0.0
C1038 C 0.0787 0.35477 0.4399 0.0
C1039 C 0.06765 0.34815 0.46664 0.0
C1040 C 0.04231 0.34735 0.46961 0.0
C1041 C 0.02802 0.35319 0.44567 0.0
C1042 C 0.03814 0.35985 0.41935 0.0
C1043 C 0.01838 0.36421 0.39694 0.0
C1044 C 0.01886 0.39727 0.38492 0.0
C1045 C 0.02082 0.34009 0.37292 0.0
C1046 C 0.99565 0.35865 0.41479 0.0
C1047 C 1.00179 0.35249 0.44289 0.0
C1048 C 0.98425 0.34606 0.46355 0.0
C1049 C 0.9598 0.34558 0.4553 0.0
C1050 C 0.95299 0.35133 0.42667 0.0
C1051 C 0.9711 0.35832 0.40615 0.0
H1052 H 0.45805 0.84111 0.06248 0.0
H1053 H 0.43795 0.88214 0.14391 0.0
H1054 H 0.48154 0.88823 0.15578 0.0
H1055 H 0.50736 0.79648 0.0897 0.0
H1056 H 0.52575 0.80103 0.05804 0.0
H1057 H 0.49309 0.802 0.05541 0.0
H1058 H 0.49547 0.85565 0.03091 0.0
H1059 H 0.52814 0.85479 0.03349 0.0
H1060 H 0.51136 0.88678 0.04844 0.0
H1061 H 0.52825 0.89032 0.15812 0.0
H1062 H 0.57292 0.88391 0.1524 0.0
H1063 H 0.56124 0.83798 0.07127 0.0
C1064 C 0.46265 0.85142 0.08283 0.0
C1065 C 0.44439 0.86115 0.10221 0.0
C1066 C 0.4515 0.8745 0.12863 0.0
C1067 C 0.47626 0.87811 0.13555 0.0
C1068 C 0.49374 0.86794 0.116 0.0
C1069 C 0.48715 0.85458 0.09029 0.0
C1070 C 0.50923 0.84402 0.07352 0.0
C1071 C 0.50883 0.80879 0.06891 0.0
C1072 C 0.51116 0.86135 0.0449 0.0
C1073 C 0.52935 0.85345 0.09377 0.0
C1074 C 0.52017 0.86765 0.118 0.0
C1075 C 0.53555 0.87901 0.13933 0.0
C1076 C 0.56085 0.87537 0.13591 0.0
C1077 C 0.57041 0.85997 0.11166 0.0
C1078 C 0.5544 0.84914 0.09034 0.0
H1079 H 0.57048 0.18221 0.56976 0.0
H1080 H 0.58829 0.11836 0.63818 0.0
H1081 H 0.54464 0.11162 0.64849 0.0
H1082 H 0.52065 0.21936 0.60718 0.0
H1083 H 0.5025 0.22429 0.57546 0.0
H1084 H 0.53519 0.2236 0.57282 0.0
H1085 H 0.53263 0.17896 0.536 0.0
H1086 H 0.49994 0.17954 0.53851 0.0
H1087 H 0.51633 0.14419 0.54516 0.0
H1088 H 0.49895 0.10981 0.65003 0.0
H1089 H 0.45452 0.11606 0.64501 0.0
H1090 H 0.46606 0.18403 0.5782 0.0
C1091 C 0.56523 0.16678 0.58687 0.0
C1092 C 0.58295 0.1507 0.60304 0.0
C1093 C 0.57518 0.13097 0.62546 0.0
C1094 C 0.55037 0.12692 0.63148 0.0
C1095 C 0.53343 0.14311 0.6152 0.0
C1096 C 0.5405 0.16292 0.59356 0.0
C1097 C 0.51855 0.17821 0.57986 0.0
C1098 C 0.51927 0.21346 0.58409 0.0
C1099 C 0.51676 0.16971 0.54799 0.0
C1100 C 0.49806 0.16366 0.597 0.0
C1101 C 0.50707 0.14325 0.61708 0.0
C1102 C 0.4917 0.12598 0.63459 0.0
C1103 C 0.46648 0.12964 0.63154 0.0
C1104 C 0.45677 0.15078 0.61146 0.0
C1105 C 0.47288 0.16811 0.5941 0.0
H1106 H 0.55518 0.14617 0.88535 0.0
H1107 H 0.57094 0.19441 0.96444 0.0
H1108 H 0.52771 0.1935 0.97735 0.0
H1109 H 0.4986 0.18567 0.87122 0.0
H1110 H 0.48322 0.15222 0.85703 0.0
H1111 H 0.51579 0.1554 0.85401 0.0
H1112 H 0.52077 0.10264 0.87938 0.0
H1113 H 0.4882 0.09929 0.8825 0.0
H1114 H 0.50698 0.09676 0.91396 0.0
H1115 H 0.48354 0.18787 0.98221 0.0
H1116 H 0.43968 0.17957 0.97836 0.0
H1117 H 0.45005 0.13587 0.8954 0.0
C1118 C 0.54943 0.15636 0.90541 0.0
C1119 C 0.56646 0.17085 0.92379 0.0
C1120 C 0.55828 0.184 0.94976 0.0
C1121 C 0.53371 0.18329 0.95741 0.0
C1122 C 0.51734 0.16937 0.9388 0.0
C1123 C 0.52467 0.1562 0.91327 0.0
C1124 C 0.50282 0.14368 0.89697 0.0
C1125 C 0.49994 0.16024 0.86809 0.0
C1126 C 0.50482 0.1085 0.89297 0.0
C1127 C 0.48222 0.15201 0.91739 0.0
C1128 C 0.49124 0.16659 0.94141 0.0
C1129 C 0.47619 0.17655 0.96348 0.0
C1130 C 0.45116 0.17173 0.96099 0.0
C1131 C 0.44111 0.15724 0.93645 0.0
C1132 C 0.45702 0.14711 0.91439 0.0
H1133 H 0.46793 0.86795 0.38674 0.0
H1134 H 0.45502 0.79744 0.45088 0.0
H1135 H 0.49832 0.79691 0.46281 0.0
H1136 H 0.52524 0.83514 0.36222 0.0
H1137 H 0.53958 0.87198 0.35593 0.0
H1138 H 0.50705 0.8683 0.35288 0.0
H1139 H 0.50136 0.9124 0.38971 0.0
H1140 H 0.53387 0.91616 0.39296 0.0
H1141 H 0.51555 0.9094 0.42433 0.0
H1142 H 0.54189 0.80511 0.46988 0.0
H1143 H 0.58525 0.81709 0.46828 0.0
H1144 H 0.57311 0.87894 0.39644 0.0
C1145 C 0.47428 0.85251 0.40334 0.0
C1146 C 0.45788 0.83277 0.41803 0.0
C1147 C 0.467 0.81264 0.4393 0.0
C1148 C 0.49166 0.81228 0.44635 0.0
C1149 C 0.50729 0.83185 0.43159 0.0
C1150 C 0.49921 0.85129 0.41022 0.0
C1151 C 0.5205 0.8687 0.39694 0.0
C1152 C 0.52325 0.86053 0.3651 0.0
C1153 C 0.51764 0.90375 0.40125 0.0
C1154 C 0.54161 0.85604 0.41442 0.0
C1155 C 0.5333 0.83516 0.43449 0.0
C1156 C 0.54875 0.82103 0.45396 0.0
C1157 C 0.57352 0.82798 0.45274 0.0
C1158 C 0.58298 0.84844 0.43178 0.0
C1159 C 0.56663 0.86283 0.41244 0.0
H1160 H 0.1087 0.34345 0.18462 0.0
H1161 H 0.17129 0.28354 0.17563 0.0
H1162 H 0.17442 0.28011 0.22866 0.0
H1163 H 0.13003 0.3869 0.24073 0.0
H1164 H 0.10117 0.39106 0.25865 0.0
H1165 H 0.10214 0.38517 0.2206 0.0
H1166 H 0.07431 0.33717 0.2254 0.0
H1167 H 0.0729 0.34305 0.26353 0.0
H1168 H 0.08277 0.30637 0.24935 0.0
H1169 H 0.17355 0.29003 0.28318 0.0
H1170 H 0.16694 0.30847 0.33286 0.0
H1171 H 0.10384 0.36015 0.30458 0.0
C1172 C 0.12268 0.32894 0.19385 0.0
C1173 C 0.13966 0.31355 0.17623 0.0
C1174 C 0.15788 0.29504 0.18889 0.0
C1175 C 0.15984 0.29317 0.21894 0.0
C1176 C 0.14317 0.30956 0.23579 0.0
C1177 C 0.12466 0.3266 0.22353 0.0
C1178 C 0.10977 0.3435 0.24581 0.0
C1179 C 0.11086 0.37873 0.24117 0.0
C1180 C 0.08338 0.33181 0.24603 0.0
C1181 C 0.12308 0.33406 0.27268 0.0
C1182 C 0.14231 0.31449 0.26665 0.0
C1183 C 0.15823 0.30481 0.28811 0.0
C1184 C 0.15437 0.31545 0.31627 0.0
C1185 C 0.13466 0.3354 0.32276 0.0
C1186 C 0.11876 0.34439 0.30057 0.0
H1187 H 0.85223 0.6933 0.69875 0.0
H1188 H 0.91679 0.74511 0.6764 0.0
H1189 H 0.92341 0.75714 0.72766 0.0
H1190 H 0.83324 0.74131 0.76261 0.0
H1191 H 0.8235 0.70728 0.78167 0.0
H1192 H 0.82117 0.7087 0.74323 0.0
H1193 H 0.84637 0.65826 0.73954 0.0
H1194 H 0.84903 0.65677 0.77779 0.0
H1195 H 0.87601 0.65659 0.75586 0.0
H1196 H 0.92784 0.75302 0.78135 0.0
H1197 H 0.92816 0.73651 0.83194 0.0
H1198 H 0.8593 0.68978 0.81954 0.0
C1199 C 0.8673 0.70802 0.70459 0.0
C1200 C 0.88394 0.71843 0.68369 0.0
C1201 C 0.90357 0.73747 0.69205 0.0
C1202 C 0.90751 0.74422 0.72115 0.0
C1203 C 0.89137 0.73222 0.74145 0.0
C1204 C 0.87133 0.71503 0.73341 0.0
C1205 C 0.85817 0.70191 0.75919 0.0
C1206 C 0.83249 0.71564 0.76183 0.0
C1207 C 0.85737 0.6663 0.75801 0.0
C1208 C 0.87448 0.71322 0.78307 0.0
C1209 C 0.89348 0.73081 0.77246 0.0
C1210 C 0.91264 0.74015 0.78997 0.0
C1211 C 0.91268 0.73066 0.81871 0.0
C1212 C 0.89358 0.71225 0.82984 0.0
C1213 C 0.87385 0.70447 0.81193 0.0
H1214 H 0.11653 0.68083 0.81719 0.0
H1215 H 0.16828 0.75288 0.83832 0.0
H1216 H 0.17303 0.76445 0.78651 0.0
H1217 H 0.14906 0.65091 0.76128 0.0
H1218 H 0.12291 0.64059 0.74015 0.0
H1219 H 0.12044 0.64253 0.77842 0.0
H1220 H 0.08492 0.68163 0.77388 0.0
H1221 H 0.08723 0.67973 0.73547 0.0
H1222 H 0.08912 0.71654 0.75342 0.0
H1223 H 0.1754 0.76299 0.73083 0.0
H1224 H 0.1759 0.74798 0.67951 0.0
H1225 H 0.12396 0.67519 0.6975 0.0
C1226 C 0.12847 0.69962 0.81117 0.0
C1227 C 0.14198 0.71602 0.83194 0.0
C1228 C 0.15748 0.74027 0.82288 0.0
C1229 C 0.16035 0.74686 0.79346 0.0
C1230 C 0.14747 0.72912 0.7735 0.0
C1231 C 0.13172 0.7061 0.78224 0.0
C1232 C 0.12185 0.68784 0.75726 0.0
C1233 C 0.12901 0.65346 0.75942 0.0
C1234 C 0.09414 0.69169 0.75487 0.0
C1235 C 0.13483 0.70364 0.73286 0.0
C1236 C 0.14928 0.72772 0.74233 0.0
C1237 C 0.16388 0.74442 0.7233 0.0
C1238 C 0.164 0.73583 0.69415 0.0
C1239 C 0.14993 0.71047 0.68448 0.0
C1240 C 0.13486 0.69477 0.70415 0.0
H1241 H 0.86753 0.37636 0.20214 0.0
H1242 H 0.87754 0.28043 0.17782 0.0
H1243 H 0.87944 0.26583 0.22911 0.0
H1244 H 0.90957 0.37526 0.25994 0.0
H1245 H 0.89203 0.40147 0.28174 0.0
H1246 H 0.89008 0.40356 0.24337 0.0
H1247 H 0.84332 0.39684 0.24631 0.0
H1248 H 0.84512 0.39467 0.28471 0.0
H1249 H 0.83082 0.36394 0.26486 0.0
H1250 H 0.87988 0.26238 0.28455 0.0
H1251 H 0.88133 0.27102 0.33705 0.0
H1252 H 0.8739 0.36969 0.32265 0.0
C1253 C 0.86983 0.35219 0.20751 0.0
C1254 C 0.87209 0.32947 0.18595 0.0
C1255 C 0.87566 0.29822 0.19399 0.0
C1256 C 0.87671 0.28972 0.22307 0.0
C1257 C 0.8745 0.31282 0.24382 0.0
C1258 C 0.87135 0.34346 0.23624 0.0
C1259 C 0.87066 0.36426 0.26223 0.0
C1260 C 0.89185 0.38749 0.26178 0.0
C1261 C 0.84601 0.3809 0.26466 0.0
C1262 C 0.87378 0.34062 0.28573 0.0
C1263 C 0.87573 0.311 0.27495 0.0
C1264 C 0.87842 0.28555 0.29311 0.0
C1265 C 0.87919 0.29066 0.32293 0.0
C1266 C 0.87757 0.32101 0.33425 0.0
C1267 C 0.87495 0.34611 0.31509 0.0
H1268 H 0.66176 0.87045 0.31319 0.0
H1269 H 0.63798 0.77806 0.33598 0.0
H1270 H 0.63888 0.76317 0.28475 0.0
H1271 H 0.62605 0.87746 0.25118 0.0
H1272 H 0.64859 0.89919 0.23171 0.0
H1273 H 0.64766 0.90118 0.27011 0.0
H1274 H 0.69286 0.88419 0.27217 0.0
H1275 H 0.69379 0.88193 0.23371 0.0
H1276 H 0.70208 0.84879 0.25489 0.0
H1277 H 0.6404 0.75983 0.22939 0.0
H1278 H 0.64099 0.7692 0.17699 0.0
H1279 H 0.66364 0.8638 0.19274 0.0
C1280 C 0.657 0.84693 0.30761 0.0
C1281 C 0.64988 0.82541 0.32874 0.0
C1282 C 0.64356 0.79498 0.32023 0.0
C1283 C 0.64407 0.78629 0.29116 0.0
C1284 C 0.65098 0.80828 0.27085 0.0
C1285 C 0.65732 0.83798 0.27887 0.0
C1286 C 0.66287 0.85796 0.25318 0.0
C1287 C 0.64524 0.88556 0.25145 0.0
C1288 C 0.68949 0.86885 0.25352 0.0
C1289 C 0.65842 0.83505 0.22933 0.0
C1290 C 0.65175 0.8064 0.23969 0.0
C1291 C 0.64583 0.78215 0.22114 0.0
C1292 C 0.64632 0.78762 0.19138 0.0
C1293 C 0.6525 0.81717 0.18051 0.0
C1294 C 0.65902 0.8408 0.2 0.0
H1295 H 0.36325 0.13747 0.8165 0.0
H1296 H 0.38643 0.23073 0.83709 0.0
H1297 H 0.38605 0.24384 0.78544 0.0
H1298 H 0.39992 0.12861 0.75542 0.0
H1299 H 0.37784 0.10598 0.73616 0.0
H1300 H 0.37818 0.10531 0.77462 0.0
H1301 H 0.33286 0.1219 0.77554 0.0
H1302 H 0.33245 0.12275 0.73703 0.0
H1303 H 0.32366 0.15656 0.75711 0.0
H1304 H 0.38484 0.24533 0.73002 0.0
H1305 H 0.38469 0.23422 0.67791 0.0
H1306 H 0.36293 0.13979 0.69593 0.0
C1307 C 0.36797 0.16083 0.81036 0.0
C1308 C 0.37475 0.18311 0.83099 0.0
C1309 C 0.38108 0.21326 0.82173 0.0
C1310 C 0.38087 0.22093 0.79243 0.0
C1311 C 0.3743 0.19819 0.77265 0.0
C1312 C 0.36801 0.16873 0.78141 0.0
C1313 C 0.36294 0.14776 0.75625 0.0
C1314 C 0.38078 0.12031 0.75558 0.0
C1315 C 0.3364 0.1366 0.75651 0.0
C1316 C 0.36757 0.16983 0.73182 0.0
C1317 C 0.37389 0.19893 0.74146 0.0
C1318 C 0.37972 0.22264 0.72234 0.0
C1319 C 0.37949 0.21618 0.69274 0.0
C1320 C 0.37369 0.18617 0.68262 0.0
C1321 C 0.3673 0.16306 0.70266 0.0
H1322 H 0.6211 0.16905 0.81552 0.0
H1323 H 0.65012 0.25924 0.83761 0.0
H1324 H 0.65313 0.27175 0.78574 0.0
H1325 H 0.6609 0.1545 0.75975 0.0
H1326 H 0.63884 0.13361 0.73882 0.0
H1327 H 0.63626 0.13443 0.77712 0.0
H1328 H 0.59239 0.15588 0.77264 0.0
H1329 H 0.59498 0.15528 0.73423 0.0
H1330 H 0.58705 0.19067 0.75238 0.0
H1331 H 0.65526 0.27177 0.72954 0.0
H1332 H 0.65809 0.25838 0.67772 0.0
H1333 H 0.62998 0.16708 0.69606 0.0
C1334 C 0.62782 0.19173 0.80983 0.0
C1335 C 0.63538 0.21315 0.83089 0.0
C1336 C 0.64406 0.24246 0.82197 0.0
C1337 C 0.64585 0.2497 0.79253 0.0
C1338 C 0.63886 0.2274 0.77241 0.0
C1339 C 0.63001 0.199 0.78099 0.0
C1340 C 0.62549 0.17765 0.75602 0.0
C1341 C 0.64133 0.14835 0.75806 0.0
C1342 C 0.59836 0.1694 0.75369 0.0
C1343 C 0.63347 0.19814 0.73172 0.0
C1344 C 0.64079 0.22699 0.74122 0.0
C1345 C 0.64941 0.2493 0.72204 0.0
C1346 C 0.6509 0.24163 0.6927 0.0
C1347 C 0.64418 0.21179 0.68315 0.0
C1348 C 0.63514 0.19012 0.70291 0.0
H1349 H 0.39879 0.83797 0.19081 0.0
H1350 H 0.36783 0.74798 0.17339 0.0
H1351 H 0.36849 0.73596 0.22553 0.0
H1352 H 0.43859 0.81446 0.25007 0.0
H1353 H 0.43336 0.85015 0.26905 0.0
H1354 H 0.43233 0.84948 0.23054 0.0
H1355 H 0.38917 0.87313 0.23219 0.0
H1356 H 0.3897 0.8734 0.27062 0.0
H1357 H 0.3655 0.85381 0.25202 0.0
H1358 H 0.36957 0.73685 0.28149 0.0
H1359 H 0.37164 0.75009 0.33324 0.0
H1360 H 0.40286 0.83905 0.31098 0.0
C1361 C 0.3927 0.81543 0.19798 0.0
C1362 C 0.3836 0.79366 0.17835 0.0
C1363 C 0.37525 0.76468 0.18828 0.0
C1364 C 0.3755 0.75778 0.2178 0.0
C1365 C 0.38432 0.78011 0.23682 0.0
C1366 C 0.39298 0.80825 0.22706 0.0
C1367 C 0.40041 0.82914 0.25137 0.0
C1368 C 0.4278 0.8362 0.25018 0.0
C1369 C 0.38528 0.85912 0.25155 0.0
C1370 C 0.39422 0.80876 0.27652 0.0
C1371 C 0.38502 0.7805 0.26806 0.0
C1372 C 0.37703 0.75882 0.28822 0.0
C1373 C 0.37829 0.76649 0.31759 0.0
C1374 C 0.38739 0.79562 0.32642 0.0
C1375 C 0.39578 0.81652 0.30534 0.0
H1376 H 0.30687 0.22483 1.00328 0.0
H1377 H 0.26764 0.14383 0.97366 0.0
H1378 H 0.23031 0.16343 0.99686 0.0
H1379 H 0.27772 0.23031 0.07192 0.0
H1380 H 0.27695 0.27197 0.0722 0.0
H1381 H 0.30055 0.25198 0.05284 0.0
H1382 H 0.2887 0.28113 1.00658 0.0
H1383 H 0.26514 0.30132 0.02582 0.0
H1384 H 0.25773 0.27959 0.9941 0.0
H1385 H 0.19723 0.19154 0.02357 0.0
H1386 H 0.1705 0.22646 0.05084 0.0
H1387 H 0.23093 0.28951 0.0638 0.0
C1388 C 0.29042 0.21124 1.0015 0.0
C1389 C 0.29029 0.18269 0.98651 0.0
C1390 C 0.26831 0.1657 0.98492 0.0
C1391 C 0.24698 0.17665 0.99809 0.0
C1392 C 0.24781 0.20467 0.01288 0.0
C1393 C 0.26894 0.2218 0.01461 0.0
C1394 C 0.26492 0.25113 0.03194 0.0
C1395 C 0.28099 0.25135 0.05882 0.0
C1396 C 0.26939 0.28 0.01351 0.0
C1397 C 0.23819 0.24785 0.03969 0.0
C1398 C 0.22874 0.22084 0.02845 0.0
C1399 C 0.20446 0.21274 0.03244 0.0
C1400 C 0.18938 0.23283 0.04804 0.0
C1401 C 0.19848 0.26086 0.05962 0.0
C1402 C 0.22336 0.26824 0.05546 0.0
H1403 H 0.78966 0.7184 0.56179 0.0
H1404 H 0.84712 0.78715 0.5649 0.0
H1405 H 0.82135 0.82343 0.53794 0.0
H1406 H 0.77008 0.73503 0.49066 0.0
H1407 H 0.7382 0.72938 0.49799 0.0
H1408 H 0.76067 0.70896 0.51862 0.0
H1409 H 0.74238 0.73117 0.5654 0.0
H1410 H 0.71974 0.75149 0.54491 0.0
H1411 H 0.73902 0.77242 0.56931 0.0
H1412 H 0.78966 0.85219 0.50934 0.0
H1413 H 0.75388 0.87155 0.4829 0.0
H1414 H 0.71709 0.78422 0.49779 0.0
C1415 C 0.79673 0.74121 0.55713 0.0
C1416 C 0.82052 0.7498 0.56561 0.0
C1417 C 0.82905 0.77985 0.5587 0.0
C1418 C 0.81452 0.80071 0.54333 0.0
C1419 C 0.79138 0.79136 0.53489 0.0
C1420 C 0.78245 0.76239 0.54167 0.0
C1421 C 0.75705 0.75801 0.52961 0.0
C1422 C 0.75648 0.73126 0.50793 0.0
C1423 C 0.73845 0.75298 0.55375 0.0
C1424 C 0.75319 0.78895 0.51496 0.0
C1425 C 0.7732 0.80786 0.51827 0.0
C1426 C 0.77386 0.83757 0.50666 0.0
C1427 C 0.75345 0.84836 0.49158 0.0
C1428 C 0.73258 0.82952 0.48812 0.0
C1429 C 0.73269 0.7993 0.49989 0.0
H1430 H 0.28238 0.81939 0.02787 0.0
H1431 H 0.34519 0.78649 0.98039 0.0
H1432 H 0.31818 0.75796 0.94774 0.0
H1433 H 0.24789 0.74894 0.02287 0.0
H1434 H 0.21899 0.76809 0.01885 0.0
H1435 H 0.24319 0.78672 0.03824 0.0
H1436 H 0.23999 0.83434 1.00492 0.0
H1437 H 0.21578 0.81584 0.98544 0.0
H1438 H 0.2425 0.82914 0.96677 0.0
H1439 H 0.28428 0.73228 0.9201 0.0
H1440 H 0.24608 0.71117 0.90026 0.0
H1441 H 0.20518 0.76008 0.96568 0.0
C1442 C 0.29046 0.80634 0.01052 0.0
C1443 C 0.31603 0.80537 1.00679 0.0
C1444 C 0.32574 0.78772 0.98385 0.0
C1445 C 0.31052 0.77139 0.96509 0.0
C1446 C 0.28547 0.77273 0.9694 0.0
C1447 C 0.27547 0.78971 0.99156 0.0
C1448 C 0.24795 0.78679 0.99169 0.0
C1449 C 0.23898 0.77174 0.01957 0.0
C1450 C 0.23585 0.81841 0.98692 0.0
C1451 C 0.24409 0.76553 0.96621 0.0
C1452 C 0.26596 0.75775 0.9536 0.0
C1453 C 0.26703 0.73827 0.9298 0.0
C1454 C 0.2452 0.72639 0.91864 0.0
C1455 C 0.22251 0.73391 0.93126 0.0
C1456 C 0.22213 0.75384 0.95539 0.0
H1457 H 0.70612 0.23355 0.51186 0.0
H1458 H 0.74122 0.14433 0.52159 0.0
H1459 H 0.77678 0.16346 0.49471 0.0
H1460 H 0.72901 0.25123 0.44041 0.0
H1461 H 0.73376 0.29165 0.44793 0.0
H1462 H 0.71025 0.27063 0.46649 0.0
H1463 H 0.72886 0.2867 0.51511 0.0
H1464 H 0.75234 0.30785 0.49671 0.0
H1465 H 0.7604 0.2784 0.52224 0.0
H1466 H 0.80862 0.19186 0.46698 0.0
H1467 H 0.83627 0.2288 0.44381 0.0
H1468 H 0.78225 0.30133 0.45366 0.0
C1469 C 0.72121 0.21798 0.50807 0.0
C1470 C 0.72074 0.18726 0.51869 0.0
C1471 C 0.74107 0.16786 0.51371 0.0
C1472 C 0.76135 0.1785 0.49833 0.0
C1473 C 0.76128 0.20881 0.48823 0.0
C1474 C 0.74189 0.22844 0.4931 0.0
C1475 C 0.74719 0.2605 0.48121 0.0
C1476 C 0.72897 0.269 0.45761 0.0
C1477 C 0.7472 0.28479 0.50525 0.0
C1478 C 0.7726 0.2558 0.469 0.0
C1479 C 0.78017 0.22566 0.47303 0.0
C1480 C 0.80291 0.21555 0.46381 0.0
C1481 C 0.81855 0.23685 0.45062 0.0
C1482 C 0.81168 0.26821 0.44693 0.0
C1483 C 0.78814 0.27758 0.45599 0.0
H1484 H 0.73769 0.78714 0.07721 0.0
H1485 H 0.67453 0.74338 0.03895 0.0
H1486 H 0.70128 0.71143 0.00891 0.0
H1487 H 0.77417 0.78977 0.01329 0.0
H1488 H 0.80236 0.78091 0.03111 0.0
H1489 H 0.77837 0.80036 0.05026 0.0
H1490 H 0.77905 0.75762 0.08897 0.0
H1491 H 0.80308 0.73807 0.06995 0.0
H1492 H 0.77539 0.71778 0.0785 0.0
H1493 H 0.73464 0.68445 0.98204 0.0
H1494 H 0.77251 0.66373 0.96107 0.0
H1495 H 0.81464 0.72401 0.01635 0.0
C1496 C 0.72949 0.77075 0.06262 0.0
C1497 C 0.70384 0.76787 0.06071 0.0
C1498 C 0.694 0.74608 0.04116 0.0
C1499 C 0.70909 0.72777 0.02384 0.0
C1500 C 0.73417 0.7312 0.02618 0.0
C1501 C 0.74438 0.75202 0.04513 0.0
C1502 C 0.77199 0.75093 0.04328 0.0
C1503 C 0.78232 0.78237 0.03392 0.0
C1504 C 0.78302 0.74048 0.07188 0.0
C1505 C 0.7756 0.72653 0.0202 0.0
C1506 C 0.75351 0.71545 0.01068 0.0
C1507 C 0.75206 0.69289 0.9894 0.0
C1508 C 0.77372 0.68124 0.97758 0.0
C1509 C 0.79667 0.69207 0.98697 0.0
C1510 C 0.79746 0.71512 0.00861 0.0
H1511 H 0.3222 0.26507 0.57457 0.0
H1512 H 0.29786 0.17071 0.56213 0.0
H1513 H 0.26275 0.18958 0.53417 0.0
H1514 H 0.26171 0.29603 0.58567 0.0
H1515 H 0.26813 0.33229 0.56827 0.0
H1516 H 0.29222 0.31127 0.58559 0.0
H1517 H 0.31692 0.3116 0.53838 0.0
H1518 H 0.29278 0.3324 0.52085 0.0
H1519 H 0.30342 0.29625 0.50626 0.0
H1520 H 0.23113 0.2186 0.50583 0.0
H1521 H 0.20149 0.25567 0.48596 0.0
H1522 H 0.24339 0.33175 0.52099 0.0
C1523 C 0.30945 0.24847 0.56587 0.0
C1524 C 0.31279 0.21639 0.57035 0.0
C1525 C 0.29559 0.19536 0.55903 0.0
C1526 C 0.27569 0.20586 0.54294 0.0
C1527 C 0.2729 0.23759 0.5388 0.0
C1528 C 0.28899 0.25866 0.55046 0.0
C1529 C 0.28071 0.29158 0.54459 0.0
C1530 C 0.27537 0.3088 0.5727 0.0
C1531 C 0.29958 0.30898 0.52644 0.0
C1532 C 0.25753 0.28571 0.52775 0.0
C1533 C 0.25369 0.25438 0.52414 0.0
C1534 C 0.23386 0.24318 0.50874 0.0
C1535 C 0.21717 0.26446 0.49736 0.0
C1536 C 0.22002 0.29664 0.50194 0.0
C1537 C 0.24066 0.3073 0.51716 0.0
H1538 H 0.81349 0.27955 0.01614 0.0
H1539 H 0.7816 0.37136 0.01805 0.0
H1540 H 0.74683 0.35245 0.98986 0.0
H1541 H 0.7943 0.25879 0.94433 0.0
H1542 H 0.78752 0.2192 0.95328 0.0
H1543 H 0.81059 0.23991 0.97281 0.0
H1544 H 0.78838 0.22796 0.0204 0.0
H1545 H 0.76535 0.20705 1.00104 0.0
H1546 H 0.75683 0.23843 0.02438 0.0
H1547 H 0.71561 0.32421 0.96129 0.0
H1548 H 0.68801 0.28755 0.93771 0.0
H1549 H 0.73842 0.21266 0.95535 0.0
C1550 C 0.79922 0.29568 0.01054 0.0
C1551 C 0.80042 0.32708 0.01929 0.0
C1552 C 0.78119 0.34728 0.01172 0.0
C1553 C 0.76136 0.33677 0.99555 0.0
C1554 C 0.76078 0.30584 0.98718 0.0
C1555 C 0.77903 0.28545 0.99462 0.0
C1556 C 0.77326 0.25305 0.98383 0.0
C1557 C 0.79257 0.2421 0.96228 0.0
C1558 C 0.77081 0.23028 0.00891 0.0
C1559 C 0.7489 0.25846 0.96926 0.0
C1560 C 0.74227 0.2892 0.97126 0.0
C1561 C 0.72058 0.30006 0.9597 0.0
C1562 C 0.70497 0.27892 0.94631 0.0
C1563 C 0.71082 0.24701 0.94468 0.0
C1564 C 0.73337 0.23684 0.95601 0.0
H1565 H 0.21302 0.72528 0.5187 0.0
H1566 H 0.23328 0.63323 0.49032 0.0
H1567 H 0.26833 0.65488 0.46436 0.0
H1568 H 0.22789 0.76368 0.45321 0.0
H1569 H 0.23984 0.79809 0.46981 0.0
H1570 H 0.21691 0.77561 0.48785 0.0
H1571 H 0.24489 0.77009 0.53201 0.0
H1572 H 0.26779 0.79287 0.51424 0.0
H1573 H 0.27519 0.75492 0.52751 0.0
H1574 H 0.30049 0.68586 0.44042 0.0
H1575 H 0.32907 0.72438 0.4212 0.0
H1576 H 0.28847 0.79758 0.46334 0.0
C1577 C 0.22512 0.70968 0.50745 0.0
C1578 C 0.22045 0.67743 0.50676 0.0
C1579 C 0.23645 0.65792 0.49127 0.0
C1580 C 0.25643 0.67002 0.47638 0.0
C1581 C 0.26024 0.70184 0.47691 0.0
C1582 C 0.24518 0.72149 0.49212 0.0
C1583 C 0.25327 0.75492 0.48839 0.0
C1584 C 0.23328 0.77421 0.47396 0.0
C1585 C 0.26073 0.76903 0.51726 0.0
C1586 C 0.27516 0.75087 0.46873 0.0
C1587 C 0.27876 0.71998 0.46249 0.0
C1588 C 0.29786 0.71012 0.44515 0.0
C1589 C 0.314 0.73227 0.43426 0.0
C1590 C 0.31105 0.76413 0.44053 0.0
C1591 C 0.2911 0.7735 0.45778 0.0
H1592 H 0.14395 0.58083 0.99924 0.0
H1593 H 0.1413 0.54743 0.91169 0.0
H1594 H 0.13981 0.49387 0.929 0.0
H1595 H 0.18291 0.51852 0.02565 0.0
H1596 H 0.16786 0.51643 0.05986 0.0
H1597 H 0.16892 0.55254 0.04072 0.0
H1598 H 0.12194 0.55622 0.04308 0.0
H1599 H 0.12076 0.5201 0.06215 0.0
H1600 H 0.10381 0.52476 0.02948 0.0
H1601 H 0.13558 0.44401 0.95544 0.0
H1602 H 0.13279 0.40066 0.9898 0.0
H1603 H 0.14117 0.46529 0.06013 0.0
C1604 C 0.14319 0.56221 0.98377 0.0
C1605 C 0.14276 0.56842 0.9541 0.0
C1606 C 0.14186 0.54337 0.93451 0.0
C1607 C 0.14089 0.51277 0.94412 0.0
C1608 C 0.1412 0.5074 0.97342 0.0
C1609 C 0.14268 0.53131 0.993 0.0
C1610 C 0.14309 0.51891 0.02333 0.0
C1611 C 0.16713 0.52709 0.03827 0.0
C1612 C 0.12109 0.5307 0.04051 0.0
C1613 C 0.14124 0.48444 0.01762 0.0
C1614 C 0.13995 0.47835 0.98868 0.0
C1615 C 0.13691 0.44841 0.97816 0.0
C1616 C 0.13527 0.42397 0.99778 0.0
C1617 C 0.13706 0.42962 0.02749 0.0
C1618 C 0.14018 0.46026 0.03746 0.0
H1619 H 0.88643 0.58069 0.51862 0.0
H1620 H 0.8811 0.54652 0.60566 0.0
H1621 H 0.88148 0.49299 0.58786 0.0
H1622 H 0.84655 0.52264 0.48794 0.0
H1623 H 0.86364 0.51936 0.45515 0.0
H1624 H 0.86351 0.55529 0.47467 0.0
H1625 H 0.91058 0.55431 0.47666 0.0
H1626 H 0.91082 0.51835 0.45719 0.0
H1627 H 0.9258 0.52102 0.49136 0.0
H1628 H 0.88434 0.44288 0.56102 0.0
H1629 H 0.88573 0.39971 0.5262 0.0
H1630 H 0.88632 0.46589 0.45652 0.0
C1631 C 0.88534 0.56191 0.53386 0.0
C1632 C 0.88373 0.56784 0.56353 0.0
C1633 C 0.88214 0.54263 0.58282 0.0
C1634 C 0.88247 0.51206 0.57295 0.0
C1635 C 0.88408 0.50693 0.54364 0.0
C1636 C 0.88517 0.5311 0.52431 0.0
C1637 C 0.886 0.51904 0.49386 0.0
C1638 C 0.86359 0.52972 0.47691 0.0
C1639 C 0.90972 0.52876 0.47889 0.0
C1640 C 0.88539 0.48446 0.49921 0.0
C1641 C 0.88457 0.47796 0.52809 0.0
C1642 C 0.88474 0.44765 0.53831 0.0
C1643 C 0.88561 0.4233 0.51844 0.0
C1644 C 0.88587 0.42946 0.48875 0.0
C1645 C 0.88576 0.46047 0.47912 0.0
H1646 H 0.86121 0.46818 0.06291 0.0
H1647 H 0.87084 0.40735 0.98974 0.0
H1648 H 0.87136 0.45284 0.95785 0.0
H1649 H 0.82187 0.52384 0.0281 0.0
H1650 H 0.83511 0.55654 0.04622 0.0
H1651 H 0.83481 0.51918 0.06323 0.0
H1652 H 0.88152 0.52184 0.06955 0.0
H1653 H 0.882 0.55918 0.05253 0.0
H1654 H 0.90057 0.52823 0.03871 0.0
H1655 H 0.87231 0.50486 0.93414 0.0
H1656 H 0.87337 0.55943 0.91984 0.0
H1657 H 0.8626 0.5871 0.00834 0.0
C1658 C 0.86327 0.46426 0.04016 0.0
C1659 C 0.86592 0.43395 0.0289 0.0
C1660 C 0.86871 0.43017 0.99897 0.0
C1661 C 0.86903 0.45591 0.98066 0.0
C1662 C 0.8665 0.48536 0.99254 0.0
C1663 C 0.86363 0.48967 0.02159 0.0
C1664 C 0.86173 0.52382 0.02893 0.0
C1665 C 0.8369 0.53128 0.04242 0.0
C1666 C 0.88271 0.53385 0.0486 0.0
C1667 C 0.86414 0.53812 0.99944 0.0
C1668 C 0.86684 0.51544 0.9788 0.0
C1669 C 0.87002 0.52278 0.95009 0.0
C1670 C 0.87055 0.55402 0.9422 0.0
C1671 C 0.86783 0.57788 0.96286 0.0
C1672 C 0.86446 0.5696 0.99191 0.0
H1673 H 0.15541 0.45838 0.4528 0.0
H1674 H 0.16666 0.39732 0.52536 0.0
H1675 H 0.16911 0.44246 0.55722 0.0
H1676 H 0.19651 0.51954 0.47714 0.0
H1677 H 0.17741 0.55033 0.46416 0.0
H1678 H 0.17729 0.51327 0.44649 0.0
H1679 H 0.13066 0.50967 0.4534 0.0
H1680 H 0.13064 0.54666 0.47113 0.0
H1681 H 0.11797 0.51332 0.48881 0.0
H1682 H 0.16782 0.49318 0.5818 0.0
H1683 H 0.16466 0.54695 0.59781 0.0
H1684 H 0.15595 0.57699 0.50977 0.0
C1685 C 0.15861 0.45447 0.47534 0.0
C1686 C 0.16091 0.42407 0.48645 0.0
C1687 C 0.16496 0.42018 0.51616 0.0
C1688 C 0.16635 0.44574 0.53452 0.0
C1689 C 0.16385 0.47522 0.52293 0.0
C1690 C 0.16024 0.47984 0.49405 0.0
C1691 C 0.15783 0.51413 0.48739 0.0
C1692 C 0.17849 0.52495 0.46762 0.0
C1693 C 0.13279 0.52136 0.47442 0.0
C1694 C 0.16033 0.52795 0.51715 0.0
C1695 C 0.16375 0.50494 0.53722 0.0
C1696 C 0.16549 0.51145 0.56625 0.0
C1697 C 0.16369 0.54226 0.57513 0.0
C1698 C 0.16042 0.56656 0.55512 0.0
C1699 C 0.15884 0.55914 0.52563 0.0
H1700 H 0.6394 0.08497 1.00446 0.0
H1701 H 0.62917 0.05147 0.9178 0.0
H1702 H 0.62674 0.99811 0.93551 0.0
H1703 H 0.67797 0.02144 0.02677 0.0
H1704 H 0.66574 0.01981 0.06252 0.0
H1705 H 0.66594 0.05588 0.0433 0.0
H1706 H 0.61944 0.06105 0.05087 0.0
H1707 H 0.61912 0.02496 0.07007 0.0
H1708 H 0.59968 0.03017 0.03947 0.0
H1709 H 0.62375 0.94844 0.96235 0.0
H1710 H 0.62419 0.90497 0.99672 0.0
H1711 H 0.63921 0.96938 0.06568 0.0
C1712 C 0.63663 0.06635 0.98932 0.0
C1713 C 0.63455 0.07241 0.95974 0.0
C1714 C 0.63111 0.04742 0.94051 0.0
C1715 C 0.62954 0.01697 0.95037 0.0
C1716 C 0.63173 0.01168 0.97955 0.0
C1717 C 0.63551 0.03553 0.99878 0.0
C1718 C 0.63815 0.02309 0.02894 0.0
C1719 C 0.66346 0.03049 0.04109 0.0
C1720 C 0.61789 0.03556 0.04849 0.0
C1721 C 0.63516 0.98868 0.02353 0.0
C1722 C 0.63116 0.98267 0.99493 0.0
C1723 C 0.62708 0.95277 0.9848 0.0
C1724 C 0.62729 0.92826 1.00443 0.0
C1725 C 0.63195 0.93379 0.03372 0.0
C1726 C 0.63593 0.96443 0.04331 0.0
H1727 H 0.38917 0.92037 0.50197 0.0
H1728 H 0.39678 0.9569 0.416 0.0
H1729 H 0.40016 0.00955 0.43532 0.0
H1730 H 0.35179 0.98324 0.52814 0.0
H1731 H 0.36514 0.98349 0.56332 0.0
H1732 H 0.36417 0.94815 0.54294 0.0
H1733 H 0.41085 0.94245 0.54814 0.0
H1734 H 0.41194 0.97783 0.56847 0.0
H1735 H 0.43038 0.9736 0.53681 0.0
H1736 H 0.4039 0.05824 0.46355 0.0
H1737 H 0.40409 0.10053 0.49919 0.0
H1738 H 0.39162 0.03365 0.5668 0.0
C1739 C 0.39159 0.9395 0.48731 0.0
C1740 C 0.39265 0.93449 0.45747 0.0
C1741 C 0.39564 0.96013 0.43891 0.0
C1742 C 0.39775 0.99018 0.44967 0.0
C1743 C 0.39657 0.99443 0.4791 0.0
C1744 C 0.39327 0.96993 0.49771 0.0
C1745 C 0.39164 0.98128 0.52836 0.0
C1746 C 0.3667 0.97358 0.54145 0.0
C1747 C 0.41245 0.968 0.54651 0.0
C1748 C 0.39462 0.01584 0.52393 0.0
C1749 C 0.39774 0.02285 0.49538 0.0
C1750 C 0.40134 0.05311 0.486 0.0
C1751 C 0.40151 0.07695 0.50636 0.0
C1752 C 0.39775 0.0704 0.53567 0.0
C1753 C 0.39433 0.03939 0.54448 0.0
H1754 H 0.37575 0.92379 1.0062 0.0
H1755 H 0.35254 0.94825 0.09221 0.0
H1756 H 0.34942 1.00259 0.07805 0.0
H1757 H 0.41269 0.99071 0.99506 0.0
H1758 H 0.4048 0.99529 0.95791 0.0
H1759 H 0.40411 0.9575 0.97405 0.0
H1760 H 0.35921 0.95086 0.95858 0.0
H1761 H 0.35982 0.9886 0.9423 0.0
H1762 H 0.33711 0.97961 0.96886 0.0
H1763 H 0.34988 0.05486 0.05562 0.0
H1764 H 0.35329 0.10152 0.02556 0.0
H1765 H 0.37673 0.04435 0.95415 0.0
C1766 C 0.3697 0.9405 0.02194 0.0
C1767 C 0.3642 0.93136 0.05031 0.0
C1768 C 0.35671 0.95426 0.07029 0.0
C1769 C 0.3549 0.98539 0.0625 0.0
C1770 C 0.36069 0.99365 0.0346 0.0
C1771 C 0.36788 0.97196 0.01454 0.0
C1772 C 0.37363 0.98744 0.98619 0.0
C1773 C 0.4004 0.98243 0.97782 0.0
C1774 C 0.35641 0.97594 0.96259 0.0
C1775 C 0.36867 0.02106 0.99363 0.0
C1776 C 0.36117 0.02408 0.02166 0.0
C1777 C 0.35566 0.05282 0.03357 0.0
C1778 C 0.35769 0.07924 0.01632 0.0
C1779 C 0.36521 0.07682 0.98741 0.0
C1780 C 0.37085 0.04719 0.9761 0.0
H1781 H 0.65049 0.08468 0.50827 0.0
H1782 H 0.67035 0.05625 0.5943 0.0
H1783 H 0.67179 1.00233 0.57878 0.0
H1784 H 0.61161 0.01977 0.49375 0.0
H1785 H 0.62057 0.01582 0.45684 0.0
H1786 H 0.62186 0.05309 0.474 0.0
H1787 H 0.6674 0.05792 0.46054 0.0
H1788 H 0.6662 0.0207 0.44325 0.0
H1789 H 0.68826 0.02783 0.47094 0.0
H1790 H 0.67036 0.95102 0.55515 0.0
H1791 H 0.66691 0.90538 0.52381 0.0
H1792 H 0.64757 0.96532 0.45282 0.0
C1793 C 0.65539 0.06716 0.52375 0.0
C1794 C 0.66046 0.07515 0.55255 0.0
C1795 C 0.66651 0.05121 0.5721 0.0
C1796 C 0.66735 0.02026 0.56354 0.0
C1797 C 0.66206 0.01315 0.53527 0.0
C1798 C 0.65626 0.03578 0.51555 0.0
C1799 C 0.651 0.02134 0.48656 0.0
C1800 C 0.62469 0.0279 0.47725 0.0
C1801 C 0.66931 0.03262 0.46399 0.0
C1802 C 0.65469 0.98726 0.49328 0.0
C1803 C 0.66108 0.98315 0.52152 0.0
C1804 C 0.66542 0.95389 0.53292 0.0
C1805 C 0.66337 0.92805 0.51493 0.0
C1806 C 0.65702 0.93152 0.48575 0.0
C1807 C 0.65251 0.96168 0.47496 0.0
loop_
_geom_bond_atom_site_label_1
_geom_bond_atom_site_label_2
_geom_bond_distance
_geom_bond_site_symmetry_2
_ccdc_geom_bond_type
Co0 O2 2.143 . S
Co0 O8 2.074 . S
Co0 O11 2.093 . S
Co0 O24 2.097 . S
Co0 N41 2.151 . S
Co0 N49 2.214 . S
Co1 O2 2.160 . S
Co1 O7 2.058 . S
Co1 O17 2.057 . S
Co1 O32 2.037 . S
Co1 N36 2.145 . S
Co1 N57 2.257 . S
O2 Co0 2.143 . S
O2 Co1 2.160 . S
C3 O4 1.278 . S
C3 O11 1.224 . S
O4 C3 1.278 . S
C5 O6 1.245 . S
C5 O17 1.232 . S
O6 C5 1.245 . S
O7 Co1 2.058 . S
O7 C33 1.269 . S
O8 Co0 2.074 . S
O8 C33 1.257 . S
H9 C34 0.930 . S
H10 C40 0.930 . S
O11 Co0 2.093 . S
O11 C3 1.224 . S
H12 C44 0.929 . S
H13 C46 0.930 . S
H14 C47 0.930 . S
H15 C45 0.929 . S
H16 C48 0.928 . S
O17 Co1 2.057 . S
O17 C5 1.232 . S
H18 C37 0.929 . S
H19 C38 0.929 . S
H20 C50 0.931 . S
H21 C42 0.929 . S
H22 C51 0.930 . S
H23 C43 0.931 . S
O24 Co0 2.097 . S
O24 C52 1.214 . S
H25 C53 0.929 . S
H26 C54 0.929 . S
H27 C55 0.930 . S
H28 C56 0.929 . S
H29 C58 0.930 . S
H30 C35 0.930 . S
H31 C39 0.930 . S
O32 Co1 2.037 . S
O32 C52 1.234 . S
C33 O7 1.269 . S
C33 O8 1.257 . S
C34 H9 0.930 . S
C34 C37 1.388 . S
C34 C39 1.418 . S
C35 H30 0.930 . S
C35 C38 1.404 . S
C35 C39 1.353 . S
N36 Co1 2.145 . S
N36 C37 1.397 . S
N36 C38 1.334 . S
C37 H18 0.929 . S
C37 C34 1.388 . S
C37 N36 1.397 . S
C38 H19 0.929 . S
C38 C35 1.404 . S
C38 N36 1.334 . S
C39 H31 0.930 . S
C39 C34 1.418 . S
C39 C35 1.353 . S
C40 H10 0.930 . S
C40 N41 1.330 . S
C40 C42 1.446 . S
N41 Co0 2.151 . S
N41 C40 1.330 . S
N41 C45 1.418 . S
C42 H21 0.929 . S
C42 C40 1.446 . S
C42 C43 1.332 . S
C43 H23 0.931 . S
C43 C42 1.332 . S
C43 C44 1.267 . S
C44 H12 0.929 . S
C44 C43 1.267 . S
C44 C45 1.251 . S
C45 H15 0.929 . S
C45 N41 1.418 . S
C45 C44 1.251 . S
C46 H13 0.930 . S
C46 C48 1.406 . S
C46 C51 1.261 . S
C47 H14 0.930 . S
C47 N49 1.325 . S
C47 C50 1.357 . S
C48 H16 0.928 . S
C48 C46 1.406 . S
C48 N49 1.261 . S
N49 Co0 2.214 . S
N49 C47 1.325 . S
N49 C48 1.261 . S
C50 H20 0.931 . S
C50 C47 1.357 . S
C50 C51 1.312 . S
C51 H22 0.930 . S
C51 C46 1.261 . S
C51 C50 1.312 . S
C52 O24 1.214 . S
C52 O32 1.234 . S
C53 H25 0.929 . S
C53 C56 1.391 . S
C53 C58 1.391 1_556 S
C54 H26 0.929 . S
C54 C55 1.390 1_554 S
C54 N57 1.391 . S
C55 H27 0.930 . S
C55 C54 1.390 1_556 S
C55 C56 1.392 . S
C56 H28 0.929 . S
C56 C53 1.391 . S
C56 C55 1.392 . S
N57 Co1 2.257 . S
N57 C54 1.391 . S
N57 C58 1.388 . S
C58 H29 0.930 . S
C58 C53 1.391 1_554 S
C58 N57 1.388 . S
Co59 O61 2.143 . S
Co59 O67 2.074 . S
Co59 O70 2.093 . S
Co59 O83 2.097 . S
Co59 N100 2.151 . S
Co59 N108 2.214 . S
Co60 O61 2.160 . S
Co60 O66 2.058 . S
Co60 O76 2.057 . S
Co60 O91 2.037 . S
Co60 N95 2.145 . S
Co60 N116 2.257 . S
O61 Co59 2.143 . S
O61 Co60 2.160 . S
C62 O63 1.278 . S
C62 O70 1.224 . S
O63 C62 1.278 . S
C64 O65 1.245 . S
C64 O76 1.232 . S
O65 C64 1.245 . S
O66 Co60 2.058 . S
O66 C92 1.269 . S
O67 Co59 2.074 . S
O67 C92 1.257 . S
H68 C93 0.930 . S
H69 C99 0.930 . S
O70 Co59 2.093 . S
O70 C62 1.224 . S
H71 C103 0.929 . S
H72 C105 0.930 . S
H73 C106 0.930 . S
H74 C104 0.929 . S
H75 C107 0.928 . S
O76 Co60 2.057 . S
O76 C64 1.232 . S
H77 C96 0.929 . S
H78 C97 0.929 . S
H79 C109 0.931 . S
H80 C101 0.929 . S
H81 C110 0.930 . S
H82 C102 0.931 . S
O83 Co59 2.097 . S
O83 C111 1.214 . S
H84 C112 0.929 . S
H85 C113 0.929 . S
H86 C114 0.930 . S
H87 C115 0.929 . S
H88 C117 0.930 . S
H89 C94 0.930 . S
H90 C98 0.930 . S
O91 Co60 2.037 . S
O91 C111 1.234 . S
C92 O66 1.269 . S
C92 O67 1.257 . S
C93 H68 0.930 . S
C93 C96 1.388 . S
C93 C98 1.418 . S
C94 H89 0.930 . S
C94 C97 1.404 . S
C94 C98 1.353 . S
N95 Co60 2.145 . S
N95 C96 1.397 . S
N95 C97 1.334 . S
C96 H77 0.929 . S
C96 C93 1.388 . S
C96 N95 1.397 . S
C97 H78 0.929 . S
C97 C94 1.404 . S
C97 N95 1.334 . S
C98 H90 0.930 . S
C98 C93 1.418 . S
C98 C94 1.353 . S
C99 H69 0.930 . S
C99 N100 1.330 . S
C99 C101 1.446 . S
N100 Co59 2.151 . S
N100 C99 1.330 . S
N100 C104 1.418 . S
C101 H80 0.929 . S
C101 C99 1.446 . S
C101 C102 1.332 . S
C102 H82 0.931 . S
C102 C101 1.332 . S
C102 C103 1.267 . S
C103 H71 0.929 . S
C103 C102 1.267 . S
C103 C104 1.251 . S
C104 H74 0.929 . S
C104 N100 1.418 . S
C104 C103 1.251 . S
C105 H72 0.930 . S
C105 C107 1.406 . S
C105 C110 1.261 . S
C106 H73 0.930 . S
C106 N108 1.325 . S
C106 C109 1.357 . S
C107 H75 0.928 . S
C107 C105 1.406 . S
C107 N108 1.261 . S
N108 Co59 2.214 . S
N108 C106 1.325 . S
N108 C107 1.261 . S
C109 H79 0.931 . S
C109 C106 1.357 . S
C109 C110 1.312 . S
C110 H81 0.930 . S
C110 C105 1.261 . S
C110 C109 1.312 . S
C111 O83 1.214 . S
C111 O91 1.234 . S
C112 H84 0.929 . S
C112 C115 1.391 . S
C112 C117 1.391 . S
C113 H85 0.929 . S
C113 C114 1.390 . S
C113 N116 1.391 . S
C114 H86 0.930 . S
C114 C113 1.390 . S
C114 C115 1.392 . S
C115 H87 0.929 . S
C115 C112 1.391 . S
C115 C114 1.392 . S
N116 Co60 2.257 . S
N116 C113 1.391 . S
N116 C117 1.388 . S
C117 H88 0.930 . S
C117 C112 1.391 . S
C117 N116 1.388 . S
Co118 O120 2.143 . S
Co118 O126 2.074 . S
Co118 O129 2.093 . S
Co118 O142 2.097 . S
Co118 N159 2.151 . S
Co118 N167 2.214 . S
Co119 O120 2.160 . S
Co119 O125 2.058 . S
Co119 O135 2.057 . S
Co119 O150 2.037 . S
Co119 N154 2.145 . S
Co119 N175 2.257 . S
O120 Co118 2.143 . S
O120 Co119 2.160 . S
C121 O122 1.278 . S
C121 O129 1.224 . S
O122 C121 1.278 . S
C123 O124 1.245 . S
C123 O135 1.232 . S
O124 C123 1.245 . S
O125 Co119 2.058 . S
O125 C151 1.269 . S
O126 Co118 2.074 . S
O126 C151 1.257 . S
H127 C152 0.930 . S
H128 C158 0.930 . S
O129 Co118 2.093 . S
O129 C121 1.224 . S
H130 C162 0.929 . S
H131 C164 0.930 . S
H132 C165 0.930 . S
H133 C163 0.929 . S
H134 C166 0.928 . S
O135 Co119 2.057 . S
O135 C123 1.232 . S
H136 C155 0.929 . S
H137 C156 0.929 . S
H138 C168 0.931 . S
H139 C160 0.929 . S
H140 C169 0.930 . S
H141 C161 0.931 . S
O142 Co118 2.097 . S
O142 C170 1.214 . S
H143 C171 0.929 . S
H144 C172 0.929 . S
H145 C173 0.930 . S
H146 C174 0.929 . S
H147 C176 0.930 . S
H148 C153 0.930 . S
H149 C157 0.930 . S
O150 Co119 2.037 . S
O150 C170 1.234 . S
C151 O125 1.269 . S
C151 O126 1.257 . S
C152 H127 0.930 . S
C152 C155 1.388 . S
C152 C157 1.418 . S
C153 H148 0.930 . S
C153 C156 1.404 . S
C153 C157 1.353 . S
N154 Co119 2.145 . S
N154 C155 1.397 . S
N154 C156 1.334 . S
C155 H136 0.929 . S
C155 C152 1.388 . S
C155 N154 1.397 . S
C156 H137 0.929 . S
C156 C153 1.404 . S
C156 N154 1.334 . S
C157 H149 0.930 . S
C157 C152 1.418 . S
C157 C153 1.353 . S
C158 H128 0.930 . S
C158 N159 1.330 . S
C158 C160 1.446 . S
N159 Co118 2.151 . S
N159 C158 1.330 . S
N159 C163 1.418 . S
C160 H139 0.929 . S
C160 C158 1.446 . S
C160 C161 1.332 . S
C161 H141 0.931 . S
C161 C160 1.332 . S
C161 C162 1.267 . S
C162 H130 0.929 . S
C162 C161 1.267 . S
C162 C163 1.251 . S
C163 H133 0.929 . S
C163 N159 1.418 . S
C163 C162 1.251 . S
C164 H131 0.930 . S
C164 C166 1.406 . S
C164 C169 1.261 . S
C165 H132 0.930 . S
C165 N167 1.325 . S
C165 C168 1.357 . S
C166 H134 0.928 . S
C166 C164 1.406 . S
C166 N167 1.261 . S
N167 Co118 2.214 . S
N167 C165 1.325 . S
N167 C166 1.261 . S
C168 H138 0.931 . S
C168 C165 1.357 . S
C168 C169 1.312 . S
C169 H140 0.930 . S
C169 C164 1.261 . S
C169 C168 1.312 . S
C170 O142 1.214 . S
C170 O150 1.234 . S
C171 H143 0.929 . S
C171 C174 1.391 . S
C171 C176 1.391 1_554 S
C172 H144 0.929 . S
C172 C173 1.390 1_556 S
C172 N175 1.391 . S
C173 H145 0.930 . S
C173 C172 1.390 1_554 S
C173 C174 1.392 . S
C174 H146 0.929 . S
C174 C171 1.391 . S
C174 C173 1.392 . S
N175 Co119 2.257 . S
N175 C172 1.391 . S
N175 C176 1.388 . S
C176 H147 0.930 . S
C176 C171 1.391 1_556 S
C176 N175 1.388 . S
Co177 O179 2.143 . S
Co177 O185 2.074 . S
Co177 O188 2.093 . S
Co177 O201 2.097 . S
Co177 N218 2.151 . S
Co177 N226 2.214 . S
Co178 O179 2.160 . S
Co178 O184 2.058 . S
Co178 O194 2.057 . S
Co178 O209 2.037 . S
Co178 N213 2.145 . S
Co178 N234 2.257 . S
O179 Co177 2.143 . S
O179 Co178 2.160 . S
C180 O181 1.278 . S
C180 O188 1.224 . S
O181 C180 1.278 . S
C182 O183 1.245 . S
C182 O194 1.232 . S
O183 C182 1.245 . S
O184 Co178 2.058 . S
O184 C210 1.269 . S
O185 Co177 2.074 . S
O185 C210 1.257 . S
H186 C211 0.930 . S
H187 C217 0.930 . S
O188 Co177 2.093 . S
O188 C180 1.224 . S
H189 C221 0.929 . S
H190 C223 0.930 . S
H191 C224 0.930 . S
H192 C222 0.929 . S
H193 C225 0.928 . S
O194 Co178 2.057 . S
O194 C182 1.232 . S
H195 C214 0.929 . S
H196 C215 0.929 . S
H197 C227 0.931 . S
H198 C219 0.929 . S
H199 C228 0.930 . S
H200 C220 0.931 . S
O201 Co177 2.097 . S
O201 C229 1.214 . S
H202 C230 0.929 . S
H203 C231 0.929 . S
H204 C232 0.930 . S
H205 C233 0.929 . S
H206 C235 0.930 . S
H207 C212 0.930 . S
H208 C216 0.930 . S
O209 Co178 2.037 . S
O209 C229 1.234 . S
C210 O184 1.269 . S
C210 O185 1.257 . S
C211 H186 0.930 . S
C211 C214 1.388 . S
C211 C216 1.418 . S
C212 H207 0.930 . S
C212 C215 1.404 . S
C212 C216 1.353 . S
N213 Co178 2.145 . S
N213 C214 1.397 . S
N213 C215 1.334 . S
C214 H195 0.929 . S
C214 C211 1.388 . S
C214 N213 1.397 . S
C215 H196 0.929 . S
C215 C212 1.404 . S
C215 N213 1.334 . S
C216 H208 0.930 . S
C216 C211 1.418 . S
C216 C212 1.353 . S
C217 H187 0.930 . S
C217 N218 1.330 . S
C217 C219 1.446 . S
N218 Co177 2.151 . S
N218 C217 1.330 . S
N218 C222 1.418 . S
C219 H198 0.929 . S
C219 C217 1.446 . S
C219 C220 1.332 . S
C220 H200 0.931 . S
C220 C219 1.332 . S
C220 C221 1.267 . S
C221 H189 0.929 . S
C221 C220 1.267 . S
C221 C222 1.251 . S
C222 H192 0.929 . S
C222 N218 1.418 . S
C222 C221 1.251 . S
C223 H190 0.930 . S
C223 C225 1.406 . S
C223 C228 1.261 . S
C224 H191 0.930 . S
C224 N226 1.325 . S
C224 C227 1.357 . S
C225 H193 0.928 . S
C225 C223 1.406 . S
C225 N226 1.261 . S
N226 Co177 2.214 . S
N226 C224 1.325 . S
N226 C225 1.261 . S
C227 H197 0.931 . S
C227 C224 1.357 . S
C227 C228 1.312 . S
C228 H199 0.930 . S
C228 C223 1.261 . S
C228 C227 1.312 . S
C229 O201 1.214 . S
C229 O209 1.234 . S
C230 H202 0.929 . S
C230 C233 1.391 . S
C230 C235 1.391 . S
C231 H203 0.929 . S
C231 C232 1.390 . S
C231 N234 1.391 . S
C232 H204 0.930 . S
C232 C231 1.390 . S
C232 C233 1.392 . S
C233 H205 0.929 . S
C233 C230 1.391 . S
C233 C232 1.392 . S
N234 Co178 2.257 . S
N234 C231 1.391 . S
N234 C235 1.388 . S
C235 H206 0.930 . S
C235 C230 1.391 . S
C235 N234 1.388 . S
Co236 O238 2.143 . S
Co236 O244 2.074 . S
Co236 O247 2.093 . S
Co236 O260 2.097 . S
Co236 N277 2.151 . S
Co236 N285 2.214 . S
Co237 O238 2.160 . S
Co237 O243 2.058 . S
Co237 O253 2.057 . S
Co237 O268 2.037 . S
Co237 N272 2.145 . S
Co237 N293 2.257 . S
O238 Co236 2.143 . S
O238 Co237 2.160 . S
C239 O240 1.278 . S
C239 O247 1.224 . S
O240 C239 1.278 . S
C241 O242 1.245 . S
C241 O253 1.232 . S
O242 C241 1.245 . S
O243 Co237 2.058 . S
O243 C269 1.269 . S
O244 Co236 2.074 . S
O244 C269 1.257 . S
H245 C270 0.930 . S
H246 C276 0.930 . S
O247 Co236 2.093 . S
O247 C239 1.224 . S
H248 C280 0.929 . S
H249 C282 0.930 . S
H250 C283 0.930 . S
H251 C281 0.929 . S
H252 C284 0.928 . S
O253 Co237 2.057 . S
O253 C241 1.232 . S
H254 C273 0.929 1_556 S
H255 C274 0.929 1_556 S
H256 C286 0.931 . S
H257 C278 0.929 . S
H258 C287 0.930 . S
H259 C279 0.931 . S
O260 Co236 2.097 . S
O260 C288 1.214 . S
H261 C289 0.929 . S
H262 C290 0.929 . S
H263 C291 0.930 . S
H264 C292 0.929 . S
H265 C294 0.930 . S
H266 C271 0.930 . S
H267 C275 0.930 . S
O268 Co237 2.037 . S
O268 C288 1.234 . S
C269 O243 1.269 . S
C269 O244 1.257 . S
C270 H245 0.930 . S
C270 C273 1.388 . S
C270 C275 1.418 . S
C271 H266 0.930 . S
C271 C274 1.404 . S
C271 C275 1.353 . S
N272 Co237 2.145 . S
N272 C273 1.397 1_556 S
N272 C274 1.334 1_556 S
C273 H254 0.929 1_554 S
C273 C270 1.388 . S
C273 N272 1.397 1_554 S
C274 H255 0.929 1_554 S
C274 C271 1.404 . S
C274 N272 1.334 1_554 S
C275 H267 0.930 . S
C275 C270 1.418 . S
C275 C271 1.353 . S
C276 H246 0.930 . S
C276 N277 1.330 . S
C276 C278 1.446 . S
N277 Co236 2.151 . S
N277 C276 1.330 . S
N277 C281 1.418 . S
C278 H257 0.929 . S
C278 C276 1.446 . S
C278 C279 1.332 . S
C279 H259 0.931 . S
C279 C278 1.332 . S
C279 C280 1.267 . S
C280 H248 0.929 . S
C280 C279 1.267 . S
C280 C281 1.251 . S
C281 H251 0.929 . S
C281 N277 1.418 . S
C281 C280 1.251 . S
C282 H249 0.930 . S
C282 C284 1.406 . S
C282 C287 1.261 . S
C283 H250 0.930 . S
C283 N285 1.325 . S
C283 C286 1.357 . S
C284 H252 0.928 . S
C284 C282 1.406 . S
C284 N285 1.261 . S
N285 Co236 2.214 . S
N285 C283 1.325 . S
N285 C284 1.261 . S
C286 H256 0.931 . S
C286 C283 1.357 . S
C286 C287 1.312 . S
C287 H258 0.930 . S
C287 C282 1.261 . S
C287 C286 1.312 . S
C288 O260 1.214 . S
C288 O268 1.234 . S
C289 H261 0.929 . S
C289 C292 1.391 . S
C289 C294 1.391 . S
C290 H262 0.929 . S
C290 C291 1.390 . S
C290 N293 1.391 . S
C291 H263 0.930 . S
C291 C290 1.390 . S
C291 C292 1.392 . S
C292 H264 0.929 . S
C292 C289 1.391 . S
C292 C291 1.392 . S
N293 Co237 2.257 . S
N293 C290 1.391 . S
N293 C294 1.388 . S
C294 H265 0.930 . S
C294 C289 1.391 . S
C294 N293 1.388 . S
Co295 O297 2.143 . S
Co295 O303 2.074 . S
Co295 O306 2.093 . S
Co295 O319 2.097 . S
Co295 N336 2.151 . S
Co295 N344 2.214 . S
Co296 O297 2.160 . S
Co296 O302 2.058 . S
Co296 O312 2.057 . S
Co296 O327 2.037 . S
Co296 N331 2.145 . S
Co296 N352 2.257 . S
O297 Co295 2.143 . S
O297 Co296 2.160 . S
C298 O299 1.278 . S
C298 O306 1.224 . S
O299 C298 1.278 . S
C300 O301 1.245 . S
C300 O312 1.232 . S
O301 C300 1.245 . S
O302 Co296 2.058 . S
O302 C328 1.269 . S
O303 Co295 2.074 . S
O303 C328 1.257 . S
H304 C329 0.930 . S
H305 C335 0.930 . S
O306 Co295 2.093 . S
O306 C298 1.224 . S
H307 C339 0.929 . S
H308 C341 0.930 . S
H309 C342 0.930 . S
H310 C340 0.929 . S
H311 C343 0.928 . S
O312 Co296 2.057 . S
O312 C300 1.232 . S
H313 C332 0.929 . S
H314 C333 0.929 . S
H315 C345 0.931 . S
H316 C337 0.929 . S
H317 C346 0.930 . S
H318 C338 0.931 . S
O319 Co295 2.097 . S
O319 C347 1.214 . S
H320 C348 0.929 . S
H321 C349 0.929 . S
H322 C350 0.930 . S
H323 C351 0.929 . S
H324 C353 0.930 . S
H325 C330 0.930 . S
H326 C334 0.930 . S
O327 Co296 2.037 . S
O327 C347 1.234 . S
C328 O302 1.269 . S
C328 O303 1.257 . S
C329 H304 0.930 . S
C329 C332 1.388 . S
C329 C334 1.418 . S
C330 H325 0.930 . S
C330 C333 1.404 . S
C330 C334 1.353 . S
N331 Co296 2.145 . S
N331 C332 1.397 . S
N331 C333 1.334 . S
C332 H313 0.929 . S
C332 C329 1.388 . S
C332 N331 1.397 . S
C333 H314 0.929 . S
C333 C330 1.404 . S
C333 N331 1.334 . S
C334 H326 0.930 . S
C334 C329 1.418 . S
C334 C330 1.353 . S
C335 H305 0.930 . S
C335 N336 1.330 . S
C335 C337 1.446 . S
N336 Co295 2.151 . S
N336 C335 1.330 . S
N336 C340 1.418 . S
C337 H316 0.929 . S
C337 C335 1.446 . S
C337 C338 1.332 . S
C338 H318 0.931 . S
C338 C337 1.332 . S
C338 C339 1.267 . S
C339 H307 0.929 . S
C339 C338 1.267 . S
C339 C340 1.251 . S
C340 H310 0.929 . S
C340 N336 1.418 . S
C340 C339 1.251 . S
C341 H308 0.930 . S
C341 C343 1.406 . S
C341 C346 1.261 . S
C342 H309 0.930 . S
C342 N344 1.325 . S
C342 C345 1.357 . S
C343 H311 0.928 . S
C343 C341 1.406 . S
C343 N344 1.261 . S
N344 Co295 2.214 . S
N344 C342 1.325 . S
N344 C343 1.261 . S
C345 H315 0.931 . S
C345 C342 1.357 . S
C345 C346 1.312 . S
C346 H317 0.930 . S
C346 C341 1.261 . S
C346 C345 1.312 . S
C347 O319 1.214 . S
C347 O327 1.234 . S
C348 H320 0.929 . S
C348 C351 1.391 . S
C348 C353 1.391 . S
C349 H321 0.929 . S
C349 C350 1.390 . S
C349 N352 1.391 . S
C350 H322 0.930 . S
C350 C349 1.390 . S
C350 C351 1.392 . S
C351 H323 0.929 . S
C351 C348 1.391 . S
C351 C350 1.392 . S
N352 Co296 2.257 . S
N352 C349 1.391 . S
N352 C353 1.388 . S
C353 H324 0.930 . S
C353 C348 1.391 . S
C353 N352 1.388 . S
Co354 O356 2.143 . S
Co354 O362 2.074 . S
Co354 O365 2.093 . S
Co354 O378 2.097 . S
Co354 N395 2.151 . S
Co354 N403 2.214 . S
Co355 O356 2.160 . S
Co355 O361 2.058 . S
Co355 O371 2.057 . S
Co355 O386 2.037 . S
Co355 N390 2.145 . S
Co355 N411 2.257 . S
O356 Co354 2.143 . S
O356 Co355 2.160 . S
C357 O358 1.278 . S
C357 O365 1.224 . S
O358 C357 1.278 . S
C359 O360 1.245 . S
C359 O371 1.232 . S
O360 C359 1.245 . S
O361 Co355 2.058 . S
O361 C387 1.269 . S
O362 Co354 2.074 . S
O362 C387 1.257 . S
H363 C388 0.930 . S
H364 C394 0.930 . S
O365 Co354 2.093 . S
O365 C357 1.224 . S
H366 C398 0.929 . S
H367 C400 0.930 . S
H368 C401 0.930 . S
H369 C399 0.929 . S
H370 C402 0.928 . S
O371 Co355 2.057 . S
O371 C359 1.232 . S
H372 C391 0.929 1_554 S
H373 C392 0.929 1_554 S
H374 C404 0.931 . S
H375 C396 0.929 . S
H376 C405 0.930 . S
H377 C397 0.931 . S
O378 Co354 2.097 . S
O378 C406 1.214 . S
H379 C407 0.929 . S
H380 C408 0.929 . S
H381 C409 0.930 . S
H382 C410 0.929 . S
H383 C412 0.930 . S
H384 C389 0.930 . S
H385 C393 0.930 . S
O386 Co355 2.037 . S
O386 C406 1.234 . S
C387 O361 1.269 . S
C387 O362 1.257 . S
C388 H363 0.930 . S
C388 C391 1.388 . S
C388 C393 1.418 . S
C389 H384 0.930 . S
C389 C392 1.404 . S
C389 C393 1.353 . S
N390 Co355 2.145 . S
N390 C391 1.397 1_554 S
N390 C392 1.334 1_554 S
C391 H372 0.929 1_556 S
C391 C388 1.388 . S
C391 N390 1.397 1_556 S
C392 H373 0.929 1_556 S
C392 C389 1.404 . S
C392 N390 1.334 1_556 S
C393 H385 0.930 . S
C393 C388 1.418 . S
C393 C389 1.353 . S
C394 H364 0.930 . S
C394 N395 1.330 . S
C394 C396 1.446 . S
N395 Co354 2.151 . S
N395 C394 1.330 . S
N395 C399 1.418 . S
C396 H375 0.929 . S
C396 C394 1.446 . S
C396 C397 1.332 . S
C397 H377 0.931 . S
C397 C396 1.332 . S
C397 C398 1.267 . S
C398 H366 0.929 . S
C398 C397 1.267 . S
C398 C399 1.251 . S
C399 H369 0.929 . S
C399 N395 1.418 . S
C399 C398 1.251 . S
C400 H367 0.930 . S
C400 C402 1.406 . S
C400 C405 1.261 . S
C401 H368 0.930 . S
C401 N403 1.325 . S
C401 C404 1.357 . S
C402 H370 0.928 . S
C402 C400 1.406 . S
C402 N403 1.261 . S
N403 Co354 2.214 . S
N403 C401 1.325 . S
N403 C402 1.261 . S
C404 H374 0.931 . S
C404 C401 1.357 . S
C404 C405 1.312 . S
C405 H376 0.930 . S
C405 C400 1.261 . S
C405 C404 1.312 . S
C406 O378 1.214 . S
C406 O386 1.234 . S
C407 H379 0.929 . S
C407 C410 1.391 . S
C407 C412 1.391 . S
C408 H380 0.929 . S
C408 C409 1.390 . S
C408 N411 1.391 . S
C409 H381 0.930 . S
C409 C408 1.390 . S
C409 C410 1.392 . S
C410 H382 0.929 . S
C410 C407 1.391 . S
C410 C409 1.392 . S
N411 Co355 2.257 . S
N411 C408 1.391 . S
N411 C412 1.388 . S
C412 H383 0.930 . S
C412 C407 1.391 . S
C412 N411 1.388 . S
Co413 O415 2.143 . S
Co413 O421 2.074 . S
Co413 O424 2.093 . S
Co413 O437 2.097 . S
Co413 N454 2.151 . S
Co413 N462 2.214 . S
Co414 O415 2.160 . S
Co414 O420 2.058 . S
Co414 O430 2.057 . S
Co414 O445 2.037 . S
Co414 N449 2.145 . S
Co414 N470 2.257 . S
O415 Co413 2.143 . S
O415 Co414 2.160 . S
C416 O417 1.278 . S
C416 O424 1.224 . S
O417 C416 1.278 . S
C418 O419 1.245 . S
C418 O430 1.232 . S
O419 C418 1.245 . S
O420 Co414 2.058 . S
O420 C446 1.269 . S
O421 Co413 2.074 . S
O421 C446 1.257 . S
H422 C447 0.930 . S
H423 C453 0.930 . S
O424 Co413 2.093 . S
O424 C416 1.224 . S
H425 C457 0.929 . S
H426 C459 0.930 . S
H427 C460 0.930 . S
H428 C458 0.929 . S
H429 C461 0.928 . S
O430 Co414 2.057 . S
O430 C418 1.232 . S
H431 C450 0.929 . S
H432 C451 0.929 . S
H433 C463 0.931 . S
H434 C455 0.929 . S
H435 C464 0.930 . S
H436 C456 0.931 . S
O437 Co413 2.097 . S
O437 C465 1.214 . S
H438 C466 0.929 . S
H439 C467 0.929 . S
H440 C468 0.930 . S
H441 C469 0.929 . S
H442 C471 0.930 . S
H443 C448 0.930 . S
H444 C452 0.930 . S
O445 Co414 2.037 . S
O445 C465 1.234 . S
C446 O420 1.269 . S
C446 O421 1.257 . S
C447 H422 0.930 . S
C447 C450 1.388 . S
C447 C452 1.418 . S
C448 H443 0.930 . S
C448 C451 1.404 . S
C448 C452 1.353 . S
N449 Co414 2.145 . S
N449 C450 1.397 . S
N449 C451 1.334 . S
C450 H431 0.929 . S
C450 C447 1.388 . S
C450 N449 1.397 . S
C451 H432 0.929 . S
C451 C448 1.404 . S
C451 N449 1.334 . S
C452 H444 0.930 . S
C452 C447 1.418 . S
C452 C448 1.353 . S
C453 H423 0.930 . S
C453 N454 1.330 . S
C453 C455 1.446 . S
N454 Co413 2.151 . S
N454 C453 1.330 . S
N454 C458 1.418 . S
C455 H434 0.929 . S
C455 C453 1.446 . S
C455 C456 1.332 . S
C456 H436 0.931 . S
C456 C455 1.332 . S
C456 C457 1.267 . S
C457 H425 0.929 . S
C457 C456 1.267 . S
C457 C458 1.251 . S
C458 H428 0.929 . S
C458 N454 1.418 . S
C458 C457 1.251 . S
C459 H426 0.930 . S
C459 C461 1.406 . S
C459 C464 1.261 . S
C460 H427 0.930 . S
C460 N462 1.325 . S
C460 C463 1.357 . S
C461 H429 0.928 . S
C461 C459 1.406 . S
C461 N462 1.261 . S
N462 Co413 2.214 . S
N462 C460 1.325 . S
N462 C461 1.261 . S
C463 H433 0.931 . S
C463 C460 1.357 . S
C463 C464 1.312 . S
C464 H435 0.930 . S
C464 C459 1.261 . S
C464 C463 1.312 . S
C465 O437 1.214 . S
C465 O445 1.234 . S
C466 H438 0.929 . S
C466 C469 1.391 . S
C466 C471 1.391 . S
C467 H439 0.929 . S
C467 C468 1.390 . S
C467 N470 1.391 . S
C468 H440 0.930 . S
C468 C467 1.390 . S
C468 C469 1.392 . S
C469 H441 0.929 . S
C469 C466 1.391 . S
C469 C468 1.392 . S
N470 Co414 2.257 . S
N470 C467 1.391 . S
N470 C471 1.388 . S
C471 H442 0.930 . S
C471 C466 1.391 . S
C471 N470 1.388 . S
Co472 O474 2.143 . S
Co472 O480 2.074 . S
Co472 O483 2.093 . S
Co472 O496 2.097 . S
Co472 N513 2.151 . S
Co472 N521 2.214 . S
Co473 O474 2.160 . S
Co473 O479 2.058 . S
Co473 O489 2.057 . S
Co473 O504 2.037 . S
Co473 N508 2.145 . S
Co473 N529 2.257 . S
O474 Co472 2.143 . S
O474 Co473 2.160 . S
C475 O476 1.278 . S
C475 O483 1.224 . S
O476 C475 1.278 . S
C477 O478 1.245 . S
C477 O489 1.232 . S
O478 C477 1.245 . S
O479 Co473 2.058 . S
O479 C505 1.269 . S
O480 Co472 2.074 . S
O480 C505 1.257 . S
H481 C506 0.930 . S
H482 C512 0.930 . S
O483 Co472 2.093 . S
O483 C475 1.224 . S
H484 C516 0.929 . S
H485 C518 0.930 . S
H486 C519 0.930 . S
H487 C517 0.929 . S
H488 C520 0.928 . S
O489 Co473 2.057 . S
O489 C477 1.232 . S
H490 C509 0.929 . S
H491 C510 0.929 . S
H492 C522 0.931 . S
H493 C514 0.929 . S
H494 C523 0.930 . S
H495 C515 0.931 . S
O496 Co472 2.097 . S
O496 C524 1.214 . S
H497 C525 0.929 . S
H498 C526 0.929 . S
H499 C527 0.930 . S
H500 C528 0.929 . S
H501 C530 0.930 . S
H502 C507 0.930 . S
H503 C511 0.930 . S
O504 Co473 2.037 . S
O504 C524 1.234 . S
C505 O479 1.269 . S
C505 O480 1.257 . S
C506 H481 0.930 . S
C506 C509 1.388 . S
C506 C511 1.418 . S
C507 H502 0.930 . S
C507 C510 1.404 . S
C507 C511 1.353 . S
N508 Co473 2.145 . S
N508 C509 1.397 . S
N508 C510 1.334 . S
C509 H490 0.929 . S
C509 C506 1.388 . S
C509 N508 1.397 . S
C510 H491 0.929 . S
C510 C507 1.404 . S
C510 N508 1.334 . S
C511 H503 0.930 . S
C511 C506 1.418 . S
C511 C507 1.353 . S
C512 H482 0.930 . S
C512 N513 1.330 . S
C512 C514 1.446 . S
N513 Co472 2.151 . S
N513 C512 1.330 . S
N513 C517 1.418 . S
C514 H493 0.929 . S
C514 C512 1.446 . S
C514 C515 1.332 . S
C515 H495 0.931 . S
C515 C514 1.332 . S
C515 C516 1.267 . S
C516 H484 0.929 . S
C516 C515 1.267 . S
C516 C517 1.251 . S
C517 H487 0.929 . S
C517 N513 1.418 . S
C517 C516 1.251 . S
C518 H485 0.930 . S
C518 C520 1.406 . S
C518 C523 1.261 . S
C519 H486 0.930 . S
C519 N521 1.325 . S
C519 C522 1.357 . S
C520 H488 0.928 . S
C520 C518 1.406 . S
C520 N521 1.261 . S
N521 Co472 2.214 . S
N521 C519 1.325 . S
N521 C520 1.261 . S
C522 H492 0.931 . S
C522 C519 1.357 . S
C522 C523 1.312 . S
C523 H494 0.930 . S
C523 C518 1.261 . S
C523 C522 1.312 . S
C524 O496 1.214 . S
C524 O504 1.234 . S
C525 H497 0.929 . S
C525 C528 1.391 . S
C525 C530 1.391 1_556 S
C526 H498 0.929 . S
C526 C527 1.390 1_554 S
C526 N529 1.391 . S
C527 H499 0.930 . S
C527 C526 1.390 1_556 S
C527 C528 1.392 . S
C528 H500 0.929 . S
C528 C525 1.391 . S
C528 C527 1.392 . S
N529 Co473 2.257 . S
N529 C526 1.391 . S
N529 C530 1.388 . S
C530 H501 0.930 . S
C530 C525 1.391 1_554 S
C530 N529 1.388 . S
Co531 O533 2.143 . S
Co531 O539 2.074 . S
Co531 O542 2.093 . S
Co531 O555 2.097 . S
Co531 N572 2.151 . S
Co531 N580 2.214 . S
Co532 O533 2.160 . S
Co532 O538 2.058 . S
Co532 O548 2.057 . S
Co532 O563 2.037 . S
Co532 N567 2.145 . S
Co532 N588 2.257 . S
O533 Co531 2.143 . S
O533 Co532 2.160 . S
C534 O535 1.278 . S
C534 O542 1.224 . S
O535 C534 1.278 . S
C536 O537 1.245 . S
C536 O548 1.232 . S
O537 C536 1.245 . S
O538 Co532 2.058 . S
O538 C564 1.269 . S
O539 Co531 2.074 . S
O539 C564 1.257 . S
H540 C565 0.930 . S
H541 C571 0.930 . S
O542 Co531 2.093 . S
O542 C534 1.224 . S
H543 C575 0.929 . S
H544 C577 0.930 . S
H545 C578 0.930 . S
H546 C576 0.929 . S
H547 C579 0.928 . S
O548 Co532 2.057 . S
O548 C536 1.232 . S
H549 C568 0.929 . S
H550 C569 0.929 . S
H551 C581 0.931 . S
H552 C573 0.929 . S
H553 C582 0.930 . S
H554 C574 0.931 . S
O555 Co531 2.097 . S
O555 C583 1.214 . S
H556 C584 0.929 . S
H557 C585 0.929 . S
H558 C586 0.930 . S
H559 C587 0.929 . S
H560 C589 0.930 . S
H561 C566 0.930 . S
H562 C570 0.930 . S
O563 Co532 2.037 . S
O563 C583 1.234 . S
C564 O538 1.269 . S
C564 O539 1.257 . S
C565 H540 0.930 . S
C565 C568 1.388 . S
C565 C570 1.418 . S
C566 H561 0.930 . S
C566 C569 1.404 . S
C566 C570 1.353 . S
N567 Co532 2.145 . S
N567 C568 1.397 . S
N567 C569 1.334 . S
C568 H549 0.929 . S
C568 C565 1.388 . S
C568 N567 1.397 . S
C569 H550 0.929 . S
C569 C566 1.404 . S
C569 N567 1.334 . S
C570 H562 0.930 . S
C570 C565 1.418 . S
C570 C566 1.353 . S
C571 H541 0.930 . S
C571 N572 1.330 . S
C571 C573 1.446 . S
N572 Co531 2.151 . S
N572 C571 1.330 . S
N572 C576 1.418 . S
C573 H552 0.929 . S
C573 C571 1.446 . S
C573 C574 1.332 . S
C574 H554 0.931 . S
C574 C573 1.332 . S
C574 C575 1.267 . S
C575 H543 0.929 . S
C575 C574 1.267 . S
C575 C576 1.251 . S
C576 H546 0.929 . S
C576 N572 1.418 . S
C576 C575 1.251 . S
C577 H544 0.930 . S
C577 C579 1.406 . S
C577 C582 1.261 . S
C578 H545 0.930 . S
C578 N580 1.325 . S
C578 C581 1.357 . S
C579 H547 0.928 . S
C579 C577 1.406 . S
C579 N580 1.261 . S
N580 Co531 2.214 . S
N580 C578 1.325 . S
N580 C579 1.261 . S
C581 H551 0.931 . S
C581 C578 1.357 . S
C581 C582 1.312 . S
C582 H553 0.930 . S
C582 C577 1.261 . S
C582 C581 1.312 . S
C583 O555 1.214 . S
C583 O563 1.234 . S
C584 H556 0.929 . S
C584 C587 1.391 . S
C584 C589 1.391 . S
C585 H557 0.929 . S
C585 C586 1.390 . S
C585 N588 1.391 . S
C586 H558 0.930 . S
C586 C585 1.390 . S
C586 C587 1.392 . S
C587 H559 0.929 . S
C587 C584 1.391 . S
C587 C586 1.392 . S
N588 Co532 2.257 . S
N588 C585 1.391 . S
N588 C589 1.388 . S
C589 H560 0.930 . S
C589 C584 1.391 . S
C589 N588 1.388 . S
Co590 O592 2.143 . S
Co590 O598 2.074 . S
Co590 O601 2.093 . S
Co590 O614 2.097 . S
Co590 N631 2.151 . S
Co590 N639 2.214 . S
Co591 O592 2.160 . S
Co591 O597 2.058 . S
Co591 O607 2.057 . S
Co591 O622 2.037 . S
Co591 N626 2.145 . S
Co591 N647 2.257 . S
O592 Co590 2.143 . S
O592 Co591 2.160 . S
C593 O594 1.278 . S
C593 O601 1.224 . S
O594 C593 1.278 . S
C595 O596 1.245 . S
C595 O607 1.232 . S
O596 C595 1.245 . S
O597 Co591 2.058 . S
O597 C623 1.269 . S
O598 Co590 2.074 . S
O598 C623 1.257 . S
H599 C624 0.930 . S
H600 C630 0.930 . S
O601 Co590 2.093 . S
O601 C593 1.224 . S
H602 C634 0.929 . S
H603 C636 0.930 . S
H604 C637 0.930 . S
H605 C635 0.929 . S
H606 C638 0.928 . S
O607 Co591 2.057 . S
O607 C595 1.232 . S
H608 C627 0.929 . S
H609 C628 0.929 . S
H610 C640 0.931 . S
H611 C632 0.929 . S
H612 C641 0.930 . S
H613 C633 0.931 . S
O614 Co590 2.097 . S
O614 C642 1.214 . S
H615 C643 0.929 . S
H616 C644 0.929 . S
H617 C645 0.930 . S
H618 C646 0.929 . S
H619 C648 0.930 . S
H620 C625 0.930 . S
H621 C629 0.930 . S
O622 Co591 2.037 . S
O622 C642 1.234 . S
C623 O597 1.269 . S
C623 O598 1.257 . S
C624 H599 0.930 . S
C624 C627 1.388 . S
C624 C629 1.418 . S
C625 H620 0.930 . S
C625 C628 1.404 . S
C625 C629 1.353 . S
N626 Co591 2.145 . S
N626 C627 1.397 . S
N626 C628 1.334 . S
C627 H608 0.929 . S
C627 C624 1.388 . S
C627 N626 1.397 . S
C628 H609 0.929 . S
C628 C625 1.404 . S
C628 N626 1.334 . S
C629 H621 0.930 . S
C629 C624 1.418 . S
C629 C625 1.353 . S
C630 H600 0.930 . S
C630 N631 1.330 . S
C630 C632 1.446 . S
N631 Co590 2.151 . S
N631 C630 1.330 . S
N631 C635 1.418 . S
C632 H611 0.929 . S
C632 C630 1.446 . S
C632 C633 1.332 . S
C633 H613 0.931 . S
C633 C632 1.332 . S
C633 C634 1.267 . S
C634 H602 0.929 . S
C634 C633 1.267 . S
C634 C635 1.251 . S
C635 H605 0.929 . S
C635 N631 1.418 . S
C635 C634 1.251 . S
C636 H603 0.930 . S
C636 C638 1.406 . S
C636 C641 1.261 . S
C637 H604 0.930 . S
C637 N639 1.325 . S
C637 C640 1.357 . S
C638 H606 0.928 . S
C638 C636 1.406 . S
C638 N639 1.261 . S
N639 Co590 2.214 . S
N639 C637 1.325 . S
N639 C638 1.261 . S
C640 H610 0.931 . S
C640 C637 1.357 . S
C640 C641 1.312 . S
C641 H612 0.930 . S
C641 C636 1.261 . S
C641 C640 1.312 . S
C642 O614 1.214 . S
C642 O622 1.234 . S
C643 H615 0.929 . S
C643 C646 1.391 . S
C643 C648 1.391 1_554 S
C644 H616 0.929 . S
C644 C645 1.390 1_556 S
C644 N647 1.391 . S
C645 H617 0.930 . S
C645 C644 1.390 1_554 S
C645 C646 1.392 . S
C646 H618 0.929 . S
C646 C643 1.391 . S
C646 C645 1.392 . S
N647 Co591 2.257 . S
N647 C644 1.391 . S
N647 C648 1.388 . S
C648 H619 0.930 . S
C648 C643 1.391 1_556 S
C648 N647 1.388 . S
Co649 O651 2.143 . S
Co649 O657 2.074 . S
Co649 O660 2.093 . S
Co649 O673 2.097 . S
Co649 N690 2.151 . S
Co649 N698 2.214 . S
Co650 O651 2.160 . S
Co650 O656 2.058 . S
Co650 O666 2.057 . S
Co650 O681 2.037 . S
Co650 N685 2.145 . S
Co650 N706 2.257 . S
O651 Co649 2.143 . S
O651 Co650 2.160 . S
C652 O653 1.278 . S
C652 O660 1.224 . S
O653 C652 1.278 . S
C654 O655 1.245 . S
C654 O666 1.232 . S
O655 C654 1.245 . S
O656 Co650 2.058 . S
O656 C682 1.269 . S
O657 Co649 2.074 . S
O657 C682 1.257 . S
H658 C683 0.930 . S
H659 C689 0.930 . S
O660 Co649 2.093 . S
O660 C652 1.224 . S
H661 C693 0.929 . S
H662 C695 0.930 . S
H663 C696 0.930 . S
H664 C694 0.929 . S
H665 C697 0.928 . S
O666 Co650 2.057 . S
O666 C654 1.232 . S
H667 C686 0.929 . S
H668 C687 0.929 . S
H669 C699 0.931 . S
H670 C691 0.929 . S
H671 C700 0.930 . S
H672 C692 0.931 . S
O673 Co649 2.097 . S
O673 C701 1.214 . S
H674 C702 0.929 . S
H675 C703 0.929 . S
H676 C704 0.930 . S
H677 C705 0.929 . S
H678 C707 0.930 . S
H679 C684 0.930 . S
H680 C688 0.930 . S
O681 Co650 2.037 . S
O681 C701 1.234 . S
C682 O656 1.269 . S
C682 O657 1.257 . S
C683 H658 0.930 . S
C683 C686 1.388 . S
C683 C688 1.418 . S
C684 H679 0.930 . S
C684 C687 1.404 . S
C684 C688 1.353 . S
N685 Co650 2.145 . S
N685 C686 1.397 . S
N685 C687 1.334 . S
C686 H667 0.929 . S
C686 C683 1.388 . S
C686 N685 1.397 . S
C687 H668 0.929 . S
C687 C684 1.404 . S
C687 N685 1.334 . S
C688 H680 0.930 . S
C688 C683 1.418 . S
C688 C684 1.353 . S
C689 H659 0.930 . S
C689 N690 1.330 . S
C689 C691 1.446 . S
N690 Co649 2.151 . S
N690 C689 1.330 . S
N690 C694 1.418 . S
C691 H670 0.929 . S
C691 C689 1.446 . S
C691 C692 1.332 . S
C692 H672 0.931 . S
C692 C691 1.332 . S
C692 C693 1.267 . S
C693 H661 0.929 . S
C693 C692 1.267 . S
C693 C694 1.251 . S
C694 H664 0.929 . S
C694 N690 1.418 . S
C694 C693 1.251 . S
C695 H662 0.930 . S
C695 C697 1.406 . S
C695 C700 1.261 . S
C696 H663 0.930 . S
C696 N698 1.325 . S
C696 C699 1.357 . S
C697 H665 0.928 . S
C697 C695 1.406 . S
C697 N698 1.261 . S
N698 Co649 2.214 . S
N698 C696 1.325 . S
N698 C697 1.261 . S
C699 H669 0.931 . S
C699 C696 1.357 . S
C699 C700 1.312 . S
C700 H671 0.930 . S
C700 C695 1.261 . S
C700 C699 1.312 . S
C701 O673 1.214 . S
C701 O681 1.234 . S
C702 H674 0.929 . S
C702 C705 1.391 . S
C702 C707 1.391 . S
C703 H675 0.929 . S
C703 C704 1.390 . S
C703 N706 1.391 . S
C704 H676 0.930 . S
C704 C703 1.390 . S
C704 C705 1.392 . S
C705 H677 0.929 . S
C705 C702 1.391 . S
C705 C704 1.392 . S
N706 Co650 2.257 . S
N706 C703 1.391 . S
N706 C707 1.388 . S
C707 H678 0.930 . S
C707 C702 1.391 . S
C707 N706 1.388 . S
Co708 O710 2.143 . S
Co708 O716 2.074 . S
Co708 O719 2.093 . S
Co708 O732 2.097 . S
Co708 N749 2.151 . S
Co708 N757 2.214 . S
Co709 O710 2.160 . S
Co709 O715 2.058 . S
Co709 O725 2.057 . S
Co709 O740 2.037 . S
Co709 N744 2.145 . S
Co709 N765 2.257 . S
O710 Co708 2.143 . S
O710 Co709 2.160 . S
C711 O712 1.278 . S
C711 O719 1.224 . S
O712 C711 1.278 . S
C713 O714 1.245 . S
C713 O725 1.232 . S
O714 C713 1.245 . S
O715 Co709 2.058 . S
O715 C741 1.269 . S
O716 Co708 2.074 . S
O716 C741 1.257 . S
H717 C742 0.930 . S
H718 C748 0.930 . S
O719 Co708 2.093 . S
O719 C711 1.224 . S
H720 C752 0.929 . S
H721 C754 0.930 . S
H722 C755 0.930 . S
H723 C753 0.929 . S
H724 C756 0.928 . S
O725 Co709 2.057 . S
O725 C713 1.232 . S
H726 C745 0.929 1_556 S
H727 C746 0.929 1_556 S
H728 C758 0.931 . S
H729 C750 0.929 . S
H730 C759 0.930 . S
H731 C751 0.931 . S
O732 Co708 2.097 . S
O732 C760 1.214 . S
H733 C761 0.929 . S
H734 C762 0.929 . S
H735 C763 0.930 . S
H736 C764 0.929 . S
H737 C766 0.930 . S
H738 C743 0.930 . S
H739 C747 0.930 . S
O740 Co709 2.037 . S
O740 C760 1.234 . S
C741 O715 1.269 . S
C741 O716 1.257 . S
C742 H717 0.930 . S
C742 C745 1.388 . S
C742 C747 1.418 . S
C743 H738 0.930 . S
C743 C746 1.404 . S
C743 C747 1.353 . S
N744 Co709 2.145 . S
N744 C745 1.397 1_556 S
N744 C746 1.334 1_556 S
C745 H726 0.929 1_554 S
C745 C742 1.388 . S
C745 N744 1.397 1_554 S
C746 H727 0.929 1_554 S
C746 C743 1.404 . S
C746 N744 1.334 1_554 S
C747 H739 0.930 . S
C747 C742 1.418 . S
C747 C743 1.353 . S
C748 H718 0.930 . S
C748 N749 1.330 . S
C748 C750 1.446 . S
N749 Co708 2.151 . S
N749 C748 1.330 . S
N749 C753 1.418 . S
C750 H729 0.929 . S
C750 C748 1.446 . S
C750 C751 1.332 . S
C751 H731 0.931 . S
C751 C750 1.332 . S
C751 C752 1.267 . S
C752 H720 0.929 . S
C752 C751 1.267 . S
C752 C753 1.251 . S
C753 H723 0.929 . S
C753 N749 1.418 . S
C753 C752 1.251 . S
C754 H721 0.930 . S
C754 C756 1.406 . S
C754 C759 1.261 . S
C755 H722 0.930 . S
C755 N757 1.325 . S
C755 C758 1.357 . S
C756 H724 0.928 . S
C756 C754 1.406 . S
C756 N757 1.261 . S
N757 Co708 2.214 . S
N757 C755 1.325 . S
N757 C756 1.261 . S
C758 H728 0.931 . S
C758 C755 1.357 . S
C758 C759 1.312 . S
C759 H730 0.930 . S
C759 C754 1.261 . S
C759 C758 1.312 . S
C760 O732 1.214 . S
C760 O740 1.234 . S
C761 H733 0.929 . S
C761 C764 1.391 . S
C761 C766 1.391 . S
C762 H734 0.929 . S
C762 C763 1.390 . S
C762 N765 1.391 . S
C763 H735 0.930 . S
C763 C762 1.390 . S
C763 C764 1.392 . S
C764 H736 0.929 . S
C764 C761 1.391 . S
C764 C763 1.392 . S
N765 Co709 2.257 . S
N765 C762 1.391 . S
N765 C766 1.388 . S
C766 H737 0.930 . S
C766 C761 1.391 . S
C766 N765 1.388 . S
Co767 O769 2.143 . S
Co767 O775 2.074 . S
Co767 O778 2.093 . S
Co767 O791 2.097 . S
Co767 N808 2.151 . S
Co767 N816 2.214 . S
Co768 O769 2.160 . S
Co768 O774 2.058 . S
Co768 O784 2.057 . S
Co768 O799 2.037 . S
Co768 N803 2.145 . S
Co768 N824 2.257 . S
O769 Co767 2.143 . S
O769 Co768 2.160 . S
C770 O771 1.278 . S
C770 O778 1.224 . S
O771 C770 1.278 . S
C772 O773 1.245 . S
C772 O784 1.232 . S
O773 C772 1.245 . S
O774 Co768 2.058 . S
O774 C800 1.269 . S
O775 Co767 2.074 . S
O775 C800 1.257 . S
H776 C801 0.930 . S
H777 C807 0.930 . S
O778 Co767 2.093 . S
O778 C770 1.224 . S
H779 C811 0.929 . S
H780 C813 0.930 . S
H781 C814 0.930 . S
H782 C812 0.929 . S
H783 C815 0.928 . S
O784 Co768 2.057 . S
O784 C772 1.232 . S
H785 C804 0.929 . S
H786 C805 0.929 . S
H787 C817 0.931 . S
H788 C809 0.929 . S
H789 C818 0.930 . S
H790 C810 0.931 . S
O791 Co767 2.097 . S
O791 C819 1.214 . S
H792 C820 0.929 . S
H793 C821 0.929 . S
H794 C822 0.930 . S
H795 C823 0.929 . S
H796 C825 0.930 . S
H797 C802 0.930 . S
H798 C806 0.930 . S
O799 Co768 2.037 . S
O799 C819 1.234 . S
C800 O774 1.269 . S
C800 O775 1.257 . S
C801 H776 0.930 . S
C801 C804 1.388 . S
C801 C806 1.418 . S
C802 H797 0.930 . S
C802 C805 1.404 . S
C802 C806 1.353 . S
N803 Co768 2.145 . S
N803 C804 1.397 . S
N803 C805 1.334 . S
C804 H785 0.929 . S
C804 C801 1.388 . S
C804 N803 1.397 . S
C805 H786 0.929 . S
C805 C802 1.404 . S
C805 N803 1.334 . S
C806 H798 0.930 . S
C806 C801 1.418 . S
C806 C802 1.353 . S
C807 H777 0.930 . S
C807 N808 1.330 . S
C807 C809 1.446 . S
N808 Co767 2.151 . S
N808 C807 1.330 . S
N808 C812 1.418 . S
C809 H788 0.929 . S
C809 C807 1.446 . S
C809 C810 1.332 . S
C810 H790 0.931 . S
C810 C809 1.332 . S
C810 C811 1.267 . S
C811 H779 0.929 . S
C811 C810 1.267 . S
C811 C812 1.251 . S
C812 H782 0.929 . S
C812 N808 1.418 . S
C812 C811 1.251 . S
C813 H780 0.930 . S
C813 C815 1.406 . S
C813 C818 1.261 . S
C814 H781 0.930 . S
C814 N816 1.325 . S
C814 C817 1.357 . S
C815 H783 0.928 . S
C815 C813 1.406 . S
C815 N816 1.261 . S
N816 Co767 2.214 . S
N816 C814 1.325 . S
N816 C815 1.261 . S
C817 H787 0.931 . S
C817 C814 1.357 . S
C817 C818 1.312 . S
C818 H789 0.930 . S
C818 C813 1.261 . S
C818 C817 1.312 . S
C819 O791 1.214 . S
C819 O799 1.234 . S
C820 H792 0.929 . S
C820 C823 1.391 . S
C820 C825 1.391 . S
C821 H793 0.929 . S
C821 C822 1.390 . S
C821 N824 1.391 . S
C822 H794 0.930 . S
C822 C821 1.390 . S
C822 C823 1.392 . S
C823 H795 0.929 . S
C823 C820 1.391 . S
C823 C822 1.392 . S
N824 Co768 2.257 . S
N824 C821 1.391 . S
N824 C825 1.388 . S
C825 H796 0.930 . S
C825 C820 1.391 . S
C825 N824 1.388 . S
Co826 O828 2.143 . S
Co826 O834 2.074 . S
Co826 O837 2.093 . S
Co826 O850 2.097 . S
Co826 N867 2.151 . S
Co826 N875 2.214 . S
Co827 O828 2.160 . S
Co827 O833 2.058 . S
Co827 O843 2.057 . S
Co827 O858 2.037 . S
Co827 N862 2.145 . S
Co827 N883 2.257 . S
O828 Co826 2.143 . S
O828 Co827 2.160 . S
C829 O830 1.278 . S
C829 O837 1.224 . S
O830 C829 1.278 . S
C831 O832 1.245 . S
C831 O843 1.232 . S
O832 C831 1.245 . S
O833 Co827 2.058 . S
O833 C859 1.269 . S
O834 Co826 2.074 . S
O834 C859 1.257 . S
H835 C860 0.930 . S
H836 C866 0.930 . S
O837 Co826 2.093 . S
O837 C829 1.224 . S
H838 C870 0.929 . S
H839 C872 0.930 . S
H840 C873 0.930 . S
H841 C871 0.929 . S
H842 C874 0.928 . S
O843 Co827 2.057 . S
O843 C831 1.232 . S
H844 C863 0.929 1_554 S
H845 C864 0.929 1_554 S
H846 C876 0.931 . S
H847 C868 0.929 . S
H848 C877 0.930 . S
H849 C869 0.931 . S
O850 Co826 2.097 . S
O850 C878 1.214 . S
H851 C879 0.929 . S
H852 C880 0.929 . S
H853 C881 0.930 . S
H854 C882 0.929 . S
H855 C884 0.930 . S
H856 C861 0.930 . S
H857 C865 0.930 . S
O858 Co827 2.037 . S
O858 C878 1.234 . S
C859 O833 1.269 . S
C859 O834 1.257 . S
C860 H835 0.930 . S
C860 C863 1.388 . S
C860 C865 1.418 . S
C861 H856 0.930 . S
C861 C864 1.404 . S
C861 C865 1.353 . S
N862 Co827 2.145 . S
N862 C863 1.397 1_554 S
N862 C864 1.334 1_554 S
C863 H844 0.929 1_556 S
C863 C860 1.388 . S
C863 N862 1.397 1_556 S
C864 H845 0.929 1_556 S
C864 C861 1.404 . S
C864 N862 1.334 1_556 S
C865 H857 0.930 . S
C865 C860 1.418 . S
C865 C861 1.353 . S
C866 H836 0.930 . S
C866 N867 1.330 . S
C866 C868 1.446 . S
N867 Co826 2.151 . S
N867 C866 1.330 . S
N867 C871 1.418 . S
C868 H847 0.929 . S
C868 C866 1.446 . S
C868 C869 1.332 . S
C869 H849 0.931 . S
C869 C868 1.332 . S
C869 C870 1.267 . S
C870 H838 0.929 . S
C870 C869 1.267 . S
C870 C871 1.251 . S
C871 H841 0.929 . S
C871 N867 1.418 . S
C871 C870 1.251 . S
C872 H839 0.930 . S
C872 C874 1.406 . S
C872 C877 1.261 . S
C873 H840 0.930 . S
C873 N875 1.325 . S
C873 C876 1.357 . S
C874 H842 0.928 . S
C874 C872 1.406 . S
C874 N875 1.261 . S
N875 Co826 2.214 . S
N875 C873 1.325 . S
N875 C874 1.261 . S
C876 H846 0.931 . S
C876 C873 1.357 . S
C876 C877 1.312 . S
C877 H848 0.930 . S
C877 C872 1.261 . S
C877 C876 1.312 . S
C878 O850 1.214 . S
C878 O858 1.234 . S
C879 H851 0.929 . S
C879 C882 1.391 . S
C879 C884 1.391 . S
C880 H852 0.929 . S
C880 C881 1.390 . S
C880 N883 1.391 . S
C881 H853 0.930 . S
C881 C880 1.390 . S
C881 C882 1.392 . S
C882 H854 0.929 . S
C882 C879 1.391 . S
C882 C881 1.392 . S
N883 Co827 2.257 . S
N883 C880 1.391 . S
N883 C884 1.388 . S
C884 H855 0.930 . S
C884 C879 1.391 . S
C884 N883 1.388 . S
Co885 O887 2.143 . S
Co885 O893 2.074 . S
Co885 O896 2.093 . S
Co885 O909 2.097 . S
Co885 N926 2.151 . S
Co885 N934 2.214 . S
Co886 O887 2.160 . S
Co886 O892 2.058 . S
Co886 O902 2.057 . S
Co886 O917 2.037 . S
Co886 N921 2.145 . S
Co886 N942 2.257 . S
O887 Co885 2.143 . S
O887 Co886 2.160 . S
C888 O889 1.278 . S
C888 O896 1.224 . S
O889 C888 1.278 . S
C890 O891 1.245 . S
C890 O902 1.232 . S
O891 C890 1.245 . S
O892 Co886 2.058 . S
O892 C918 1.269 . S
O893 Co885 2.074 . S
O893 C918 1.257 . S
H894 C919 0.930 . S
H895 C925 0.930 . S
O896 Co885 2.093 . S
O896 C888 1.224 . S
H897 C929 0.929 . S
H898 C931 0.930 . S
H899 C932 0.930 . S
H900 C930 0.929 . S
H901 C933 0.928 . S
O902 Co886 2.057 . S
O902 C890 1.232 . S
H903 C922 0.929 . S
H904 C923 0.929 . S
H905 C935 0.931 . S
H906 C927 0.929 . S
H907 C936 0.930 . S
H908 C928 0.931 . S
O909 Co885 2.097 . S
O909 C937 1.214 . S
H910 C938 0.929 . S
H911 C939 0.929 . S
H912 C940 0.930 . S
H913 C941 0.929 . S
H914 C943 0.930 . S
H915 C920 0.930 . S
H916 C924 0.930 . S
O917 Co886 2.037 . S
O917 C937 1.234 . S
C918 O892 1.269 . S
C918 O893 1.257 . S
C919 H894 0.930 . S
C919 C922 1.388 . S
C919 C924 1.418 . S
C920 H915 0.930 . S
C920 C923 1.404 . S
C920 C924 1.353 . S
N921 Co886 2.145 . S
N921 C922 1.397 . S
N921 C923 1.334 . S
C922 H903 0.929 . S
C922 C919 1.388 . S
C922 N921 1.397 . S
C923 H904 0.929 . S
C923 C920 1.404 . S
C923 N921 1.334 . S
C924 H916 0.930 . S
C924 C919 1.418 . S
C924 C920 1.353 . S
C925 H895 0.930 . S
C925 N926 1.330 . S
C925 C927 1.446 . S
N926 Co885 2.151 . S
N926 C925 1.330 . S
N926 C930 1.418 . S
C927 H906 0.929 . S
C927 C925 1.446 . S
C927 C928 1.332 . S
C928 H908 0.931 . S
C928 C927 1.332 . S
C928 C929 1.267 . S
C929 H897 0.929 . S
C929 C928 1.267 . S
C929 C930 1.251 . S
C930 H900 0.929 . S
C930 N926 1.418 . S
C930 C929 1.251 . S
C931 H898 0.930 . S
C931 C933 1.406 . S
C931 C936 1.261 . S
C932 H899 0.930 . S
C932 N934 1.325 . S
C932 C935 1.357 . S
C933 H901 0.928 . S
C933 C931 1.406 . S
C933 N934 1.261 . S
N934 Co885 2.214 . S
N934 C932 1.325 . S
N934 C933 1.261 . S
C935 H905 0.931 . S
C935 C932 1.357 . S
C935 C936 1.312 . S
C936 H907 0.930 . S
C936 C931 1.261 . S
C936 C935 1.312 . S
C937 O909 1.214 . S
C937 O917 1.234 . S
C938 H910 0.929 . S
C938 C941 1.391 . S
C938 C943 1.391 . S
C939 H911 0.929 . S
C939 C940 1.390 . S
C939 N942 1.391 . S
C940 H912 0.930 . S
C940 C939 1.390 . S
C940 C941 1.392 . S
C941 H913 0.929 . S
C941 C938 1.391 . S
C941 C940 1.392 . S
N942 Co886 2.257 . S
N942 C939 1.391 . S
N942 C943 1.388 . S
C943 H914 0.930 . S
C943 C938 1.391 . S
C943 N942 1.388 . S
H944 C956 0.930 . S
H945 C958 0.930 . S
H946 C959 0.930 . S
H947 C963 0.959 . S
H948 C963 0.959 1_655 S
H949 C963 0.961 . S
H950 C964 0.960 . S
H951 C964 0.961 1_655 S
H952 C964 0.959 . S
H953 C967 0.929 . S
H954 C968 0.931 . S
H955 C970 0.930 . S
C956 H944 0.930 . S
C956 C957 1.399 . S
C956 C961 1.399 . S
C957 C956 1.399 . S
C957 C958 1.376 . S
C958 H945 0.930 . S
C958 C957 1.376 . S
C958 C959 1.388 . S
C959 H946 0.930 . S
C959 C958 1.388 . S
C959 C960 1.390 . S
C960 C959 1.390 . S
C960 C961 1.394 . S
C960 C966 1.465 1_455 S
C961 C956 1.399 . S
C961 C960 1.394 . S
C961 C962 1.516 . S
C962 C961 1.516 . S
C962 C963 1.502 . S
C962 C964 1.561 . S
C962 C965 1.526 1_455 S
C963 H947 0.959 . S
C963 H948 0.959 1_455 S
C963 H949 0.961 . S
C963 C962 1.502 . S
C964 H950 0.960 . S
C964 H951 0.961 1_455 S
C964 H952 0.959 . S
C964 C962 1.561 . S
C965 C962 1.526 1_655 S
C965 C966 1.396 . S
C965 C970 1.390 . S
C966 C960 1.465 1_655 S
C966 C965 1.396 . S
C966 C967 1.399 . S
C967 H953 0.929 . S
C967 C966 1.399 . S
C967 C968 1.385 . S
C968 H954 0.931 . S
C968 C967 1.385 . S
C968 C969 1.389 . S
C969 C968 1.389 . S
C969 C970 1.387 . S
C970 H955 0.930 . S
C970 C965 1.390 . S
C970 C969 1.387 . S
H971 C983 0.930 . S
H972 C985 0.930 . S
H973 C986 0.930 . S
H974 C990 0.962 . S
H975 C990 0.959 1_455 S
H976 C990 0.961 . S
H977 C991 0.960 . S
H978 C991 0.961 1_455 S
H979 C991 0.959 . S
H980 C994 0.929 . S
H981 C995 0.931 . S
H982 C997 0.930 . S
C983 H971 0.930 . S
C983 C984 1.399 . S
C983 C988 1.399 . S
C984 C983 1.399 . S
C984 C985 1.376 . S
C985 H972 0.930 . S
C985 C984 1.376 . S
C985 C986 1.388 . S
C986 H973 0.930 . S
C986 C985 1.388 . S
C986 C987 1.390 . S
C987 C986 1.390 . S
C987 C988 1.394 . S
C987 C993 1.465 1_655 S
C988 C983 1.399 . S
C988 C987 1.394 . S
C988 C989 1.516 . S
C989 C988 1.516 . S
C989 C990 1.502 . S
C989 C991 1.561 . S
C989 C992 1.526 1_655 S
C990 H974 0.962 . S
C990 H975 0.959 1_655 S
C990 H976 0.961 . S
C990 C989 1.502 . S
C991 H977 0.960 . S
C991 H978 0.961 1_655 S
C991 H979 0.959 . S
C991 C989 1.561 . S
C992 C989 1.526 1_455 S
C992 C993 1.396 . S
C992 C997 1.390 . S
C993 C987 1.465 1_455 S
C993 C992 1.396 . S
C993 C994 1.399 . S
C994 H980 0.929 . S
C994 C993 1.399 . S
C994 C995 1.385 . S
C995 H981 0.931 . S
C995 C994 1.385 . S
C995 C996 1.389 . S
C996 C995 1.389 . S
C996 C997 1.387 . S
C997 H982 0.930 . S
C997 C992 1.390 . S
C997 C996 1.387 . S
H998 C1010 0.930 . S
H999 C1012 0.930 . S
H1000 C1013 0.930 . S
H1001 C1017 0.959 . S
H1002 C1017 0.959 . S
H1003 C1017 0.961 1_655 S
H1004 C1018 0.960 1_655 S
H1005 C1018 0.961 . S
H1006 C1018 0.959 . S
H1007 C1021 0.929 . S
H1008 C1022 0.931 . S
H1009 C1024 0.930 . S
C1010 H998 0.930 . S
C1010 C1011 1.399 . S
C1010 C1015 1.399 . S
C1011 C1010 1.399 . S
C1011 C1012 1.376 . S
C1012 H999 0.930 . S
C1012 C1011 1.376 . S
C1012 C1013 1.388 . S
C1013 H1000 0.930 . S
C1013 C1012 1.388 . S
C1013 C1014 1.390 . S
C1014 C1013 1.390 . S
C1014 C1015 1.394 . S
C1014 C1020 1.465 1_655 S
C1015 C1010 1.399 . S
C1015 C1014 1.394 . S
C1015 C1016 1.516 1_655 S
C1016 C1015 1.516 1_455 S
C1016 C1017 1.502 . S
C1016 C1018 1.561 . S
C1016 C1019 1.526 . S
C1017 H1001 0.959 . S
C1017 H1002 0.959 . S
C1017 H1003 0.961 1_455 S
C1017 C1016 1.502 . S
C1018 H1004 0.960 1_455 S
C1018 H1005 0.961 . S
C1018 H1006 0.959 . S
C1018 C1016 1.561 . S
C1019 C1016 1.526 . S
C1019 C1020 1.396 . S
C1019 C1024 1.390 . S
C1020 C1014 1.465 1_455 S
C1020 C1019 1.396 . S
C1020 C1021 1.399 . S
C1021 H1007 0.929 . S
C1021 C1020 1.399 . S
C1021 C1022 1.385 . S
C1022 H1008 0.931 . S
C1022 C1021 1.385 . S
C1022 C1023 1.389 . S
C1023 C1022 1.389 . S
C1023 C1024 1.387 . S
C1024 H1009 0.930 . S
C1024 C1019 1.390 . S
C1024 C1023 1.387 . S
H1025 C1037 0.930 . S
H1026 C1039 0.930 . S
H1027 C1040 0.930 . S
H1028 C1044 0.959 . S
H1029 C1044 0.959 . S
H1030 C1044 0.961 1_455 S
H1031 C1045 0.960 1_455 S
H1032 C1045 0.961 . S
H1033 C1045 0.959 . S
H1034 C1048 0.929 . S
H1035 C1049 0.931 . S
H1036 C1051 0.930 . S
C1037 H1025 0.930 . S
C1037 C1038 1.399 . S
C1037 C1042 1.399 . S
C1038 C1037 1.399 . S
C1038 C1039 1.376 . S
C1039 H1026 0.930 . S
C1039 C1038 1.376 . S
C1039 C1040 1.388 . S
C1040 H1027 0.930 . S
C1040 C1039 1.388 . S
C1040 C1041 1.390 . S
C1041 C1040 1.390 . S
C1041 C1042 1.394 . S
C1041 C1047 1.465 1_455 S
C1042 C1037 1.399 . S
C1042 C1041 1.394 . S
C1042 C1043 1.516 1_455 S
C1043 C1042 1.516 1_655 S
C1043 C1044 1.502 . S
C1043 C1045 1.561 . S
C1043 C1046 1.526 . S
C1044 H1028 0.959 . S
C1044 H1029 0.959 . S
C1044 H1030 0.961 1_655 S
C1044 C1043 1.502 . S
C1045 H1031 0.960 1_655 S
C1045 H1032 0.961 . S
C1045 H1033 0.959 . S
C1045 C1043 1.561 . S
C1046 C1043 1.526 . S
C1046 C1047 1.396 . S
C1046 C1051 1.390 . S
C1047 C1041 1.465 1_655 S
C1047 C1046 1.396 . S
C1047 C1048 1.399 . S
C1048 H1034 0.929 . S
C1048 C1047 1.399 . S
C1048 C1049 1.385 . S
C1049 H1035 0.931 . S
C1049 C1048 1.385 . S
C1049 C1050 1.389 . S
C1050 C1049 1.389 . S
C1050 C1051 1.387 . S
C1051 H1036 0.930 . S
C1051 C1046 1.390 . S
C1051 C1050 1.387 . S
H1052 C1064 0.930 . S
H1053 C1066 0.930 . S
H1054 C1067 0.930 . S
H1055 C1071 0.959 . S
H1056 C1071 0.959 . S
H1057 C1071 0.961 . S
H1058 C1072 0.960 . S
H1059 C1072 0.961 . S
H1060 C1072 0.959 . S
H1061 C1075 0.929 . S
H1062 C1076 0.931 . S
H1063 C1078 0.930 . S
C1064 H1052 0.930 . S
C1064 C1065 1.399 . S
C1064 C1069 1.399 . S
C1065 C1064 1.399 . S
C1065 C1066 1.376 . S
C1066 H1053 0.930 . S
C1066 C1065 1.376 . S
C1066 C1067 1.388 . S
C1067 H1054 0.930 . S
C1067 C1066 1.388 . S
C1067 C1068 1.390 . S
C1068 C1067 1.390 . S
C1068 C1069 1.394 . S
C1068 C1074 1.465 . S
C1069 C1064 1.399 . S
C1069 C1068 1.394 . S
C1069 C1070 1.516 . S
C1070 C1069 1.516 . S
C1070 C1071 1.502 . S
C1070 C1072 1.561 . S
C1070 C1073 1.526 . S
C1071 H1055 0.959 . S
C1071 H1056 0.959 . S
C1071 H1057 0.961 . S
C1071 C1070 1.502 . S
C1072 H1058 0.960 . S
C1072 H1059 0.961 . S
C1072 H1060 0.959 . S
C1072 C1070 1.561 . S
C1073 C1070 1.526 . S
C1073 C1074 1.396 . S
C1073 C1078 1.390 . S
C1074 C1068 1.465 . S
C1074 C1073 1.396 . S
C1074 C1075 1.399 . S
C1075 H1061 0.929 . S
C1075 C1074 1.399 . S
C1075 C1076 1.385 . S
C1076 H1062 0.931 . S
C1076 C1075 1.385 . S
C1076 C1077 1.389 . S
C1077 C1076 1.389 . S
C1077 C1078 1.387 . S
C1078 H1063 0.930 . S
C1078 C1073 1.390 . S
C1078 C1077 1.387 . S
H1079 C1091 0.930 . S
H1080 C1093 0.930 . S
H1081 C1094 0.930 . S
H1082 C1098 0.959 . S
H1083 C1098 0.959 . S
H1084 C1098 0.961 . S
H1085 C1099 0.960 . S
H1086 C1099 0.961 . S
H1087 C1099 0.959 . S
H1088 C1102 0.929 . S
H1089 C1103 0.931 . S
H1090 C1105 0.930 . S
C1091 H1079 0.930 . S
C1091 C1092 1.399 . S
C1091 C1096 1.399 . S
C1092 C1091 1.399 . S
C1092 C1093 1.376 . S
C1093 H1080 0.930 . S
C1093 C1092 1.376 . S
C1093 C1094 1.388 . S
C1094 H1081 0.930 . S
C1094 C1093 1.388 . S
C1094 C1095 1.390 . S
C1095 C1094 1.390 . S
C1095 C1096 1.394 . S
C1095 C1101 1.465 . S
C1096 C1091 1.399 . S
C1096 C1095 1.394 . S
C1096 C1097 1.516 . S
C1097 C1096 1.516 . S
C1097 C1098 1.502 . S
C1097 C1099 1.561 . S
C1097 C1100 1.526 . S
C1098 H1082 0.959 . S
C1098 H1083 0.959 . S
C1098 H1084 0.961 . S
C1098 C1097 1.502 . S
C1099 H1085 0.960 . S
C1099 H1086 0.961 . S
C1099 H1087 0.959 . S
C1099 C1097 1.561 . S
C1100 C1097 1.526 . S
C1100 C1101 1.396 . S
C1100 C1105 1.390 . S
C1101 C1095 1.465 . S
C1101 C1100 1.396 . S
C1101 C1102 1.399 . S
C1102 H1088 0.929 . S
C1102 C1101 1.399 . S
C1102 C1103 1.385 . S
C1103 H1089 0.931 . S
C1103 C1102 1.385 . S
C1103 C1104 1.389 . S
C1104 C1103 1.389 . S
C1104 C1105 1.387 . S
C1105 H1090 0.930 . S
C1105 C1100 1.390 . S
C1105 C1104 1.387 . S
H1106 C1118 0.930 . S
H1107 C1120 0.930 . S
H1108 C1121 0.930 . S
H1109 C1125 0.959 . S
H1110 C1125 0.959 . S
H1111 C1125 0.961 . S
H1112 C1126 0.960 . S
H1113 C1126 0.961 . S
H1114 C1126 0.959 . S
H1115 C1129 0.929 . S
H1116 C1130 0.931 . S
H1117 C1132 0.930 . S
C1118 H1106 0.930 . S
C1118 C1119 1.399 . S
C1118 C1123 1.399 . S
C1119 C1118 1.399 . S
C1119 C1120 1.376 . S
C1120 H1107 0.930 . S
C1120 C1119 1.376 . S
C1120 C1121 1.388 . S
C1121 H1108 0.930 . S
C1121 C1120 1.388 . S
C1121 C1122 1.390 . S
C1122 C1121 1.390 . S
C1122 C1123 1.394 . S
C1122 C1128 1.465 . S
C1123 C1118 1.399 . S
C1123 C1122 1.394 . S
C1123 C1124 1.516 . S
C1124 C1123 1.516 . S
C1124 C1125 1.502 . S
C1124 C1126 1.561 . S
C1124 C1127 1.526 . S
C1125 H1109 0.959 . S
C1125 H1110 0.959 . S
C1125 H1111 0.961 . S
C1125 C1124 1.502 . S
C1126 H1112 0.960 . S
C1126 H1113 0.961 . S
C1126 H1114 0.959 . S
C1126 C1124 1.561 . S
C1127 C1124 1.526 . S
C1127 C1128 1.396 . S
C1127 C1132 1.390 . S
C1128 C1122 1.465 . S
C1128 C1127 1.396 . S
C1128 C1129 1.399 . S
C1129 H1115 0.929 . S
C1129 C1128 1.399 . S
C1129 C1130 1.385 . S
C1130 H1116 0.931 . S
C1130 C1129 1.385 . S
C1130 C1131 1.389 . S
C1131 C1130 1.389 . S
C1131 C1132 1.387 . S
C1132 H1117 0.930 . S
C1132 C1127 1.390 . S
C1132 C1131 1.387 . S
H1133 C1145 0.930 . S
H1134 C1147 0.930 . S
H1135 C1148 0.930 . S
H1136 C1152 0.959 . S
H1137 C1152 0.959 . S
H1138 C1152 0.961 . S
H1139 C1153 0.960 . S
H1140 C1153 0.961 . S
H1141 C1153 0.959 . S
H1142 C1156 0.929 . S
H1143 C1157 0.931 . S
H1144 C1159 0.930 . S
C1145 H1133 0.930 . S
C1145 C1146 1.399 . S
C1145 C1150 1.399 . S
C1146 C1145 1.399 . S
C1146 C1147 1.376 . S
C1147 H1134 0.930 . S
C1147 C1146 1.376 . S
C1147 C1148 1.388 . S
C1148 H1135 0.930 . S
C1148 C1147 1.388 . S
C1148 C1149 1.390 . S
C1149 C1148 1.390 . S
C1149 C1150 1.394 . S
C1149 C1155 1.465 . S
C1150 C1145 1.399 . S
C1150 C1149 1.394 . S
C1150 C1151 1.516 . S
C1151 C1150 1.516 . S
C1151 C1152 1.502 . S
C1151 C1153 1.561 . S
C1151 C1154 1.526 . S
C1152 H1136 0.959 . S
C1152 H1137 0.959 . S
C1152 H1138 0.961 . S
C1152 C1151 1.502 . S
C1153 H1139 0.960 . S
C1153 H1140 0.961 . S
C1153 H1141 0.959 . S
C1153 C1151 1.561 . S
C1154 C1151 1.526 . S
C1154 C1155 1.396 . S
C1154 C1159 1.390 . S
C1155 C1149 1.465 . S
C1155 C1154 1.396 . S
C1155 C1156 1.399 . S
C1156 H1142 0.929 . S
C1156 C1155 1.399 . S
C1156 C1157 1.385 . S
C1157 H1143 0.931 . S
C1157 C1156 1.385 . S
C1157 C1158 1.389 . S
C1158 C1157 1.389 . S
C1158 C1159 1.387 . S
C1159 H1144 0.930 . S
C1159 C1154 1.390 . S
C1159 C1158 1.387 . S
H1160 C1172 0.930 . S
H1161 C1174 0.930 . S
H1162 C1175 0.930 . S
H1163 C1179 0.959 . S
H1164 C1179 0.959 . S
H1165 C1179 0.961 . S
H1166 C1180 0.960 . S
H1167 C1180 0.961 . S
H1168 C1180 0.959 . S
H1169 C1183 0.929 . S
H1170 C1184 0.931 . S
H1171 C1186 0.930 . S
C1172 H1160 0.930 . S
C1172 C1173 1.399 . S
C1172 C1177 1.399 . S
C1173 C1172 1.399 . S
C1173 C1174 1.376 . S
C1174 H1161 0.930 . S
C1174 C1173 1.376 . S
C1174 C1175 1.388 . S
C1175 H1162 0.930 . S
C1175 C1174 1.388 . S
C1175 C1176 1.390 . S
C1176 C1175 1.390 . S
C1176 C1177 1.394 . S
C1176 C1182 1.465 . S
C1177 C1172 1.399 . S
C1177 C1176 1.394 . S
C1177 C1178 1.516 . S
C1178 C1177 1.516 . S
C1178 C1179 1.502 . S
C1178 C1180 1.561 . S
C1178 C1181 1.526 . S
C1179 H1163 0.959 . S
C1179 H1164 0.959 . S
C1179 H1165 0.961 . S
C1179 C1178 1.502 . S
C1180 H1166 0.960 . S
C1180 H1167 0.961 . S
C1180 H1168 0.959 . S
C1180 C1178 1.561 . S
C1181 C1178 1.526 . S
C1181 C1182 1.396 . S
C1181 C1186 1.390 . S
C1182 C1176 1.465 . S
C1182 C1181 1.396 . S
C1182 C1183 1.399 . S
C1183 H1169 0.929 . S
C1183 C1182 1.399 . S
C1183 C1184 1.385 . S
C1184 H1170 0.931 . S
C1184 C1183 1.385 . S
C1184 C1185 1.389 . S
C1185 C1184 1.389 . S
C1185 C1186 1.387 . S
C1186 H1171 0.930 . S
C1186 C1181 1.390 . S
C1186 C1185 1.387 . S
H1187 C1199 0.930 . S
H1188 C1201 0.930 . S
H1189 C1202 0.930 . S
H1190 C1206 0.959 . S
H1191 C1206 0.959 . S
H1192 C1206 0.961 . S
H1193 C1207 0.960 . S
H1194 C1207 0.961 . S
H1195 C1207 0.959 . S
H1196 C1210 0.929 . S
H1197 C1211 0.931 . S
H1198 C1213 0.930 . S
C1199 H1187 0.930 . S
C1199 C1200 1.399 . S
C1199 C1204 1.399 . S
C1200 C1199 1.399 . S
C1200 C1201 1.376 . S
C1201 H1188 0.930 . S
C1201 C1200 1.376 . S
C1201 C1202 1.388 . S
C1202 H1189 0.930 . S
C1202 C1201 1.388 . S
C1202 C1203 1.390 . S
C1203 C1202 1.390 . S
C1203 C1204 1.394 . S
C1203 C1209 1.465 . S
C1204 C1199 1.399 . S
C1204 C1203 1.394 . S
C1204 C1205 1.516 . S
C1205 C1204 1.516 . S
C1205 C1206 1.502 . S
C1205 C1207 1.561 . S
C1205 C1208 1.526 . S
C1206 H1190 0.959 . S
C1206 H1191 0.959 . S
C1206 H1192 0.961 . S
C1206 C1205 1.502 . S
C1207 H1193 0.960 . S
C1207 H1194 0.961 . S
C1207 H1195 0.959 . S
C1207 C1205 1.561 . S
C1208 C1205 1.526 . S
C1208 C1209 1.396 . S
C1208 C1213 1.390 . S
C1209 C1203 1.465 . S
C1209 C1208 1.396 . S
C1209 C1210 1.399 . S
C1210 H1196 0.929 . S
C1210 C1209 1.399 . S
C1210 C1211 1.385 . S
C1211 H1197 0.931 . S
C1211 C1210 1.385 . S
C1211 C1212 1.389 . S
C1212 C1211 1.389 . S
C1212 C1213 1.387 . S
C1213 H1198 0.930 . S
C1213 C1208 1.390 . S
C1213 C1212 1.387 . S
H1214 C1226 0.930 . S
H1215 C1228 0.930 . S
H1216 C1229 0.930 . S
H1217 C1233 0.959 . S
H1218 C1233 0.959 . S
H1219 C1233 0.961 . S
H1220 C1234 0.960 . S
H1221 C1234 0.961 . S
H1222 C1234 0.959 . S
H1223 C1237 0.929 . S
H1224 C1238 0.931 . S
H1225 C1240 0.930 . S
C1226 H1214 0.930 . S
C1226 C1227 1.399 . S
C1226 C1231 1.399 . S
C1227 C1226 1.399 . S
C1227 C1228 1.376 . S
C1228 H1215 0.930 . S
C1228 C1227 1.376 . S
C1228 C1229 1.388 . S
C1229 H1216 0.930 . S
C1229 C1228 1.388 . S
C1229 C1230 1.390 . S
C1230 C1229 1.390 . S
C1230 C1231 1.394 . S
C1230 C1236 1.465 . S
C1231 C1226 1.399 . S
C1231 C1230 1.394 . S
C1231 C1232 1.516 . S
C1232 C1231 1.516 . S
C1232 C1233 1.502 . S
C1232 C1234 1.561 . S
C1232 C1235 1.526 . S
C1233 H1217 0.959 . S
C1233 H1218 0.959 . S
C1233 H1219 0.961 . S
C1233 C1232 1.502 . S
C1234 H1220 0.960 . S
C1234 H1221 0.961 . S
C1234 H1222 0.959 . S
C1234 C1232 1.561 . S
C1235 C1232 1.526 . S
C1235 C1236 1.396 . S
C1235 C1240 1.390 . S
C1236 C1230 1.465 . S
C1236 C1235 1.396 . S
C1236 C1237 1.399 . S
C1237 H1223 0.929 . S
C1237 C1236 1.399 . S
C1237 C1238 1.385 . S
C1238 H1224 0.931 . S
C1238 C1237 1.385 . S
C1238 C1239 1.389 . S
C1239 C1238 1.389 . S
C1239 C1240 1.387 . S
C1240 H1225 0.930 . S
C1240 C1235 1.390 . S
C1240 C1239 1.387 . S
H1241 C1253 0.930 . S
H1242 C1255 0.930 . S
H1243 C1256 0.930 . S
H1244 C1260 0.959 . S
H1245 C1260 0.959 . S
H1246 C1260 0.961 . S
H1247 C1261 0.960 . S
H1248 C1261 0.961 . S
H1249 C1261 0.959 . S
H1250 C1264 0.929 . S
H1251 C1265 0.931 . S
H1252 C1267 0.930 . S
C1253 H1241 0.930 . S
C1253 C1254 1.399 . S
C1253 C1258 1.399 . S
C1254 C1253 1.399 . S
C1254 C1255 1.376 . S
C1255 H1242 0.930 . S
C1255 C1254 1.376 . S
C1255 C1256 1.388 . S
C1256 H1243 0.930 . S
C1256 C1255 1.388 . S
C1256 C1257 1.390 . S
C1257 C1256 1.390 . S
C1257 C1258 1.394 . S
C1257 C1263 1.465 . S
C1258 C1253 1.399 . S
C1258 C1257 1.394 . S
C1258 C1259 1.516 . S
C1259 C1258 1.516 . S
C1259 C1260 1.502 . S
C1259 C1261 1.561 . S
C1259 C1262 1.526 . S
C1260 H1244 0.959 . S
C1260 H1245 0.959 . S
C1260 H1246 0.961 . S
C1260 C1259 1.502 . S
C1261 H1247 0.960 . S
C1261 H1248 0.961 . S
C1261 H1249 0.959 . S
C1261 C1259 1.561 . S
C1262 C1259 1.526 . S
C1262 C1263 1.396 . S
C1262 C1267 1.390 . S
C1263 C1257 1.465 . S
C1263 C1262 1.396 . S
C1263 C1264 1.399 . S
C1264 H1250 0.929 . S
C1264 C1263 1.399 . S
C1264 C1265 1.385 . S
C1265 H1251 0.931 . S
C1265 C1264 1.385 . S
C1265 C1266 1.389 . S
C1266 C1265 1.389 . S
C1266 C1267 1.387 . S
C1267 H1252 0.930 . S
C1267 C1262 1.390 . S
C1267 C1266 1.387 . S
H1268 C1280 0.930 . S
H1269 C1282 0.930 . S
H1270 C1283 0.930 . S
H1271 C1287 0.959 . S
H1272 C1287 0.959 . S
H1273 C1287 0.961 . S
H1274 C1288 0.960 . S
H1275 C1288 0.961 . S
H1276 C1288 0.959 . S
H1277 C1291 0.929 . S
H1278 C1292 0.931 . S
H1279 C1294 0.930 . S
C1280 H1268 0.930 . S
C1280 C1281 1.399 . S
C1280 C1285 1.399 . S
C1281 C1280 1.399 . S
C1281 C1282 1.376 . S
C1282 H1269 0.930 . S
C1282 C1281 1.376 . S
C1282 C1283 1.388 . S
C1283 H1270 0.930 . S
C1283 C1282 1.388 . S
C1283 C1284 1.390 . S
C1284 C1283 1.390 . S
C1284 C1285 1.394 . S
C1284 C1290 1.465 . S
C1285 C1280 1.399 . S
C1285 C1284 1.394 . S
C1285 C1286 1.516 . S
C1286 C1285 1.516 . S
C1286 C1287 1.502 . S
C1286 C1288 1.561 . S
C1286 C1289 1.526 . S
C1287 H1271 0.959 . S
C1287 H1272 0.959 . S
C1287 H1273 0.961 . S
C1287 C1286 1.502 . S
C1288 H1274 0.960 . S
C1288 H1275 0.961 . S
C1288 H1276 0.959 . S
C1288 C1286 1.561 . S
C1289 C1286 1.526 . S
C1289 C1290 1.396 . S
C1289 C1294 1.390 . S
C1290 C1284 1.465 . S
C1290 C1289 1.396 . S
C1290 C1291 1.399 . S
C1291 H1277 0.929 . S
C1291 C1290 1.399 . S
C1291 C1292 1.385 . S
C1292 H1278 0.931 . S
C1292 C1291 1.385 . S
C1292 C1293 1.389 . S
C1293 C1292 1.389 . S
C1293 C1294 1.387 . S
C1294 H1279 0.930 . S
C1294 C1289 1.390 . S
C1294 C1293 1.387 . S
H1295 C1307 0.930 . S
H1296 C1309 0.930 . S
H1297 C1310 0.930 . S
H1298 C1314 0.959 . S
H1299 C1314 0.959 . S
H1300 C1314 0.961 . S
H1301 C1315 0.960 . S
H1302 C1315 0.961 . S
H1303 C1315 0.959 . S
H1304 C1318 0.929 . S
H1305 C1319 0.931 . S
H1306 C1321 0.930 . S
C1307 H1295 0.930 . S
C1307 C1308 1.399 . S
C1307 C1312 1.399 . S
C1308 C1307 1.399 . S
C1308 C1309 1.376 . S
C1309 H1296 0.930 . S
C1309 C1308 1.376 . S
C1309 C1310 1.388 . S
C1310 H1297 0.930 . S
C1310 C1309 1.388 . S
C1310 C1311 1.390 . S
C1311 C1310 1.390 . S
C1311 C1312 1.394 . S
C1311 C1317 1.465 . S
C1312 C1307 1.399 . S
C1312 C1311 1.394 . S
C1312 C1313 1.516 . S
C1313 C1312 1.516 . S
C1313 C1314 1.502 . S
C1313 C1315 1.561 . S
C1313 C1316 1.526 . S
C1314 H1298 0.959 . S
C1314 H1299 0.959 . S
C1314 H1300 0.961 . S
C1314 C1313 1.502 . S
C1315 H1301 0.960 . S
C1315 H1302 0.961 . S
C1315 H1303 0.959 . S
C1315 C1313 1.561 . S
C1316 C1313 1.526 . S
C1316 C1317 1.396 . S
C1316 C1321 1.390 . S
C1317 C1311 1.465 . S
C1317 C1316 1.396 . S
C1317 C1318 1.399 . S
C1318 H1304 0.929 . S
C1318 C1317 1.399 . S
C1318 C1319 1.385 . S
C1319 H1305 0.931 . S
C1319 C1318 1.385 . S
C1319 C1320 1.389 . S
C1320 C1319 1.389 . S
C1320 C1321 1.387 . S
C1321 H1306 0.930 . S
C1321 C1316 1.390 . S
C1321 C1320 1.387 . S
H1322 C1334 0.930 . S
H1323 C1336 0.930 . S
H1324 C1337 0.930 . S
H1325 C1341 0.959 . S
H1326 C1341 0.959 . S
H1327 C1341 0.961 . S
H1328 C1342 0.960 . S
H1329 C1342 0.961 . S
H1330 C1342 0.959 . S
H1331 C1345 0.929 . S
H1332 C1346 0.931 . S
H1333 C1348 0.930 . S
C1334 H1322 0.930 . S
C1334 C1335 1.399 . S
C1334 C1339 1.399 . S
C1335 C1334 1.399 . S
C1335 C1336 1.376 . S
C1336 H1323 0.930 . S
C1336 C1335 1.376 . S
C1336 C1337 1.388 . S
C1337 H1324 0.930 . S
C1337 C1336 1.388 . S
C1337 C1338 1.390 . S
C1338 C1337 1.390 . S
C1338 C1339 1.394 . S
C1338 C1344 1.465 . S
C1339 C1334 1.399 . S
C1339 C1338 1.394 . S
C1339 C1340 1.516 . S
C1340 C1339 1.516 . S
C1340 C1341 1.502 . S
C1340 C1342 1.561 . S
C1340 C1343 1.526 . S
C1341 H1325 0.959 . S
C1341 H1326 0.959 . S
C1341 H1327 0.961 . S
C1341 C1340 1.502 . S
C1342 H1328 0.960 . S
C1342 H1329 0.961 . S
C1342 H1330 0.959 . S
C1342 C1340 1.561 . S
C1343 C1340 1.526 . S
C1343 C1344 1.396 . S
C1343 C1348 1.390 . S
C1344 C1338 1.465 . S
C1344 C1343 1.396 . S
C1344 C1345 1.399 . S
C1345 H1331 0.929 . S
C1345 C1344 1.399 . S
C1345 C1346 1.385 . S
C1346 H1332 0.931 . S
C1346 C1345 1.385 . S
C1346 C1347 1.389 . S
C1347 C1346 1.389 . S
C1347 C1348 1.387 . S
C1348 H1333 0.930 . S
C1348 C1343 1.390 . S
C1348 C1347 1.387 . S
H1349 C1361 0.930 . S
H1350 C1363 0.930 . S
H1351 C1364 0.930 . S
H1352 C1368 0.959 . S
H1353 C1368 0.959 . S
H1354 C1368 0.961 . S
H1355 C1369 0.960 . S
H1356 C1369 0.961 . S
H1357 C1369 0.959 . S
H1358 C1372 0.929 . S
H1359 C1373 0.931 . S
H1360 C1375 0.930 . S
C1361 H1349 0.930 . S
C1361 C1362 1.399 . S
C1361 C1366 1.399 . S
C1362 C1361 1.399 . S
C1362 C1363 1.376 . S
C1363 H1350 0.930 . S
C1363 C1362 1.376 . S
C1363 C1364 1.388 . S
C1364 H1351 0.930 . S
C1364 C1363 1.388 . S
C1364 C1365 1.390 . S
C1365 C1364 1.390 . S
C1365 C1366 1.394 . S
C1365 C1371 1.465 . S
C1366 C1361 1.399 . S
C1366 C1365 1.394 . S
C1366 C1367 1.516 . S
C1367 C1366 1.516 . S
C1367 C1368 1.502 . S
C1367 C1369 1.561 . S
C1367 C1370 1.526 . S
C1368 H1352 0.959 . S
C1368 H1353 0.959 . S
C1368 H1354 0.961 . S
C1368 C1367 1.502 . S
C1369 H1355 0.960 . S
C1369 H1356 0.961 . S
C1369 H1357 0.959 . S
C1369 C1367 1.561 . S
C1370 C1367 1.526 . S
C1370 C1371 1.396 . S
C1370 C1375 1.390 . S
C1371 C1365 1.465 . S
C1371 C1370 1.396 . S
C1371 C1372 1.399 . S
C1372 H1358 0.929 . S
C1372 C1371 1.399 . S
C1372 C1373 1.385 . S
C1373 H1359 0.931 . S
C1373 C1372 1.385 . S
C1373 C1374 1.389 . S
C1374 C1373 1.389 . S
C1374 C1375 1.387 . S
C1375 H1360 0.930 . S
C1375 C1370 1.390 . S
C1375 C1374 1.387 . S
H1376 C1388 0.912 1_554 S
H1377 C1390 0.930 . S
H1378 C1391 0.930 . S
H1379 C1395 0.959 . S
H1380 C1395 0.959 . S
H1381 C1395 0.961 . S
H1382 C1396 0.960 . S
H1383 C1396 0.961 . S
H1384 C1396 0.959 . S
H1385 C1399 0.929 . S
H1386 C1400 0.931 . S
H1387 C1402 0.930 . S
C1388 H1376 0.912 1_556 S
C1388 C1389 1.399 . S
C1388 C1393 1.396 1_556 S
C1389 C1388 1.399 . S
C1389 C1390 1.376 . S
C1390 H1377 0.930 . S
C1390 C1389 1.376 . S
C1390 C1391 1.388 . S
C1391 H1378 0.930 . S
C1391 C1390 1.388 . S
C1391 C1392 1.390 . S
C1392 C1391 1.390 . S
C1392 C1393 1.389 1_556 S
C1392 C1398 1.482 . S
C1393 C1388 1.396 1_554 S
C1393 C1392 1.389 1_554 S
C1393 C1394 1.523 . S
C1394 C1393 1.523 . S
C1394 C1395 1.502 . S
C1394 C1396 1.561 . S
C1394 C1397 1.526 . S
C1395 H1379 0.959 . S
C1395 H1380 0.959 . S
C1395 H1381 0.961 . S
C1395 C1394 1.502 . S
C1396 H1382 0.960 . S
C1396 H1383 0.961 . S
C1396 H1384 0.959 . S
C1396 C1394 1.561 . S
C1397 C1394 1.526 . S
C1397 C1398 1.368 1_554 S
C1397 C1402 1.390 . S
C1398 C1392 1.482 . S
C1398 C1397 1.368 1_556 S
C1398 C1399 1.407 . S
C1399 H1385 0.929 . S
C1399 C1398 1.407 . S
C1399 C1400 1.385 1_556 S
C1400 H1386 0.931 . S
C1400 C1399 1.385 1_554 S
C1400 C1401 1.389 . S
C1401 C1400 1.389 . S
C1401 C1402 1.387 . S
C1402 H1387 0.930 . S
C1402 C1397 1.390 . S
C1402 C1401 1.387 . S
H1403 C1415 0.930 . S
H1404 C1417 0.930 . S
H1405 C1418 0.930 . S
H1406 C1422 0.959 . S
H1407 C1422 0.959 . S
H1408 C1422 0.961 . S
H1409 C1423 0.960 . S
H1410 C1423 0.961 . S
H1411 C1423 0.959 . S
H1412 C1426 0.929 . S
H1413 C1427 0.931 . S
H1414 C1429 0.930 . S
C1415 H1403 0.930 . S
C1415 C1416 1.399 . S
C1415 C1420 1.399 . S
C1416 C1415 1.399 . S
C1416 C1417 1.376 . S
C1417 H1404 0.930 . S
C1417 C1416 1.376 . S
C1417 C1418 1.388 . S
C1418 H1405 0.930 . S
C1418 C1417 1.388 . S
C1418 C1419 1.390 . S
C1419 C1418 1.390 . S
C1419 C1420 1.394 . S
C1419 C1425 1.465 . S
C1420 C1415 1.399 . S
C1420 C1419 1.394 . S
C1420 C1421 1.516 . S
C1421 C1420 1.516 . S
C1421 C1422 1.502 . S
C1421 C1423 1.561 . S
C1421 C1424 1.526 . S
C1422 H1406 0.959 . S
C1422 H1407 0.959 . S
C1422 H1408 0.961 . S
C1422 C1421 1.502 . S
C1423 H1409 0.960 . S
C1423 H1410 0.961 . S
C1423 H1411 0.959 . S
C1423 C1421 1.561 . S
C1424 C1421 1.526 . S
C1424 C1425 1.396 . S
C1424 C1429 1.390 . S
C1425 C1419 1.465 . S
C1425 C1424 1.396 . S
C1425 C1426 1.399 . S
C1426 H1412 0.929 . S
C1426 C1425 1.399 . S
C1426 C1427 1.385 . S
C1427 H1413 0.931 . S
C1427 C1426 1.385 . S
C1427 C1428 1.389 . S
C1428 C1427 1.389 . S
C1428 C1429 1.387 . S
C1429 H1414 0.930 . S
C1429 C1424 1.390 . S
C1429 C1428 1.387 . S
H1430 C1442 0.930 . S
H1431 C1444 0.930 . S
H1432 C1445 0.930 . S
H1433 C1449 0.959 . S
H1434 C1449 0.959 . S
H1435 C1449 0.961 . S
H1436 C1450 0.960 . S
H1437 C1450 0.961 . S
H1438 C1450 0.959 . S
H1439 C1453 0.929 . S
H1440 C1454 0.931 . S
H1441 C1456 0.930 . S
C1442 H1430 0.930 . S
C1442 C1443 1.399 . S
C1442 C1447 1.399 . S
C1443 C1442 1.399 . S
C1443 C1444 1.376 . S
C1444 H1431 0.930 . S
C1444 C1443 1.376 . S
C1444 C1445 1.388 . S
C1445 H1432 0.930 . S
C1445 C1444 1.388 . S
C1445 C1446 1.399 . S
C1446 C1445 1.399 . S
C1446 C1447 1.409 . S
C1446 C1452 1.443 1_554 S
C1447 C1442 1.399 . S
C1447 C1446 1.409 . S
C1447 C1448 1.526 . S
C1448 C1447 1.526 . S
C1448 C1449 1.521 . S
C1448 C1450 1.544 1_554 S
C1448 C1451 1.512 1_554 S
C1449 H1433 0.959 . S
C1449 H1434 0.959 . S
C1449 H1435 0.961 . S
C1449 C1448 1.521 . S
C1450 H1436 0.960 . S
C1450 H1437 0.961 . S
C1450 H1438 0.959 . S
C1450 C1448 1.544 1_556 S
C1451 C1448 1.512 1_556 S
C1451 C1452 1.396 . S
C1451 C1456 1.390 . S
C1452 C1446 1.443 1_556 S
C1452 C1451 1.396 . S
C1452 C1453 1.399 . S
C1453 H1439 0.929 . S
C1453 C1452 1.399 . S
C1453 C1454 1.385 . S
C1454 H1440 0.931 . S
C1454 C1453 1.385 . S
C1454 C1455 1.389 . S
C1455 C1454 1.389 . S
C1455 C1456 1.387 . S
C1456 H1441 0.930 . S
C1456 C1451 1.390 . S
C1456 C1455 1.387 . S
H1457 C1469 0.930 . S
H1458 C1471 0.930 . S
H1459 C1472 0.930 . S
H1460 C1476 0.959 . S
H1461 C1476 0.959 . S
H1462 C1476 0.961 . S
H1463 C1477 0.960 . S
H1464 C1477 0.961 . S
H1465 C1477 0.959 . S
H1466 C1480 0.929 . S
H1467 C1481 0.931 . S
H1468 C1483 0.930 . S
C1469 H1457 0.930 . S
C1469 C1470 1.399 . S
C1469 C1474 1.399 . S
C1470 C1469 1.399 . S
C1470 C1471 1.376 . S
C1471 H1458 0.930 . S
C1471 C1470 1.376 . S
C1471 C1472 1.388 . S
C1472 H1459 0.930 . S
C1472 C1471 1.388 . S
C1472 C1473 1.390 . S
C1473 C1472 1.390 . S
C1473 C1474 1.394 . S
C1473 C1479 1.465 . S
C1474 C1469 1.399 . S
C1474 C1473 1.394 . S
C1474 C1475 1.516 . S
C1475 C1474 1.516 . S
C1475 C1476 1.502 . S
C1475 C1477 1.561 . S
C1475 C1478 1.526 . S
C1476 H1460 0.959 . S
C1476 H1461 0.959 . S
C1476 H1462 0.961 . S
C1476 C1475 1.502 . S
C1477 H1463 0.960 . S
C1477 H1464 0.961 . S
C1477 H1465 0.959 . S
C1477 C1475 1.561 . S
C1478 C1475 1.526 . S
C1478 C1479 1.396 . S
C1478 C1483 1.390 . S
C1479 C1473 1.465 . S
C1479 C1478 1.396 . S
C1479 C1480 1.399 . S
C1480 H1466 0.929 . S
C1480 C1479 1.399 . S
C1480 C1481 1.385 . S
C1481 H1467 0.931 . S
C1481 C1480 1.385 . S
C1481 C1482 1.389 . S
C1482 C1481 1.389 . S
C1482 C1483 1.387 . S
C1483 H1468 0.930 . S
C1483 C1478 1.390 . S
C1483 C1482 1.387 . S
H1484 C1496 0.930 . S
H1485 C1498 0.930 . S
H1486 C1499 0.930 . S
H1487 C1503 0.959 . S
H1488 C1503 0.959 . S
H1489 C1503 0.961 . S
H1490 C1504 0.960 . S
H1491 C1504 0.961 . S
H1492 C1504 0.959 . S
H1493 C1507 0.929 . S
H1494 C1508 0.931 . S
H1495 C1510 0.924 1_554 S
C1496 H1484 0.930 . S
C1496 C1497 1.399 . S
C1496 C1501 1.399 . S
C1497 C1496 1.399 . S
C1497 C1498 1.376 . S
C1498 H1485 0.930 . S
C1498 C1497 1.376 . S
C1498 C1499 1.388 1_554 S
C1499 H1486 0.930 . S
C1499 C1498 1.388 1_556 S
C1499 C1500 1.390 . S
C1500 C1499 1.390 . S
C1500 C1501 1.394 1_556 S
C1500 C1506 1.465 . S
C1501 C1496 1.399 . S
C1501 C1500 1.394 1_554 S
C1501 C1502 1.516 . S
C1502 C1501 1.516 . S
C1502 C1503 1.502 . S
C1502 C1504 1.561 . S
C1502 C1505 1.504 1_554 S
C1503 H1487 0.959 . S
C1503 H1488 0.959 . S
C1503 H1489 0.961 . S
C1503 C1502 1.502 . S
C1504 H1490 0.960 . S
C1504 H1491 0.961 . S
C1504 H1492 0.959 . S
C1504 C1502 1.561 . S
C1505 C1502 1.504 1_556 S
C1505 C1506 1.410 . S
C1505 C1510 1.398 . S
C1506 C1500 1.465 . S
C1506 C1505 1.410 . S
C1506 C1507 1.399 . S
C1507 H1493 0.929 . S
C1507 C1506 1.399 . S
C1507 C1508 1.385 . S
C1508 H1494 0.931 . S
C1508 C1507 1.385 . S
C1508 C1509 1.389 . S
C1509 C1508 1.389 . S
C1509 C1510 1.387 . S
C1510 H1495 0.924 1_556 S
C1510 C1505 1.398 . S
C1510 C1509 1.387 . S
H1511 C1523 0.930 . S
H1512 C1525 0.930 . S
H1513 C1526 0.930 . S
H1514 C1530 0.959 . S
H1515 C1530 0.959 . S
H1516 C1530 0.961 . S
H1517 C1531 0.960 . S
H1518 C1531 0.961 . S
H1519 C1531 0.959 . S
H1520 C1534 0.929 . S
H1521 C1535 0.931 . S
H1522 C1537 0.930 . S
C1523 H1511 0.930 . S
C1523 C1524 1.399 . S
C1523 C1528 1.399 . S
C1524 C1523 1.399 . S
C1524 C1525 1.376 . S
C1525 H1512 0.930 . S
C1525 C1524 1.376 . S
C1525 C1526 1.388 . S
C1526 H1513 0.930 . S
C1526 C1525 1.388 . S
C1526 C1527 1.390 . S
C1527 C1526 1.390 . S
C1527 C1528 1.394 . S
C1527 C1533 1.465 . S
C1528 C1523 1.399 . S
C1528 C1527 1.394 . S
C1528 C1529 1.516 . S
C1529 C1528 1.516 . S
C1529 C1530 1.502 . S
C1529 C1531 1.561 . S
C1529 C1532 1.526 . S
C1530 H1514 0.959 . S
C1530 H1515 0.959 . S
C1530 H1516 0.961 . S
C1530 C1529 1.502 . S
C1531 H1517 0.960 . S
C1531 H1518 0.961 . S
C1531 H1519 0.959 . S
C1531 C1529 1.561 . S
C1532 C1529 1.526 . S
C1532 C1533 1.396 . S
C1532 C1537 1.390 . S
C1533 C1527 1.465 . S
C1533 C1532 1.396 . S
C1533 C1534 1.399 . S
C1534 H1520 0.929 . S
C1534 C1533 1.399 . S
C1534 C1535 1.385 . S
C1535 H1521 0.931 . S
C1535 C1534 1.385 . S
C1535 C1536 1.389 . S
C1536 C1535 1.389 . S
C1536 C1537 1.387 . S
C1537 H1522 0.930 . S
C1537 C1532 1.390 . S
C1537 C1536 1.387 . S
H1538 C1550 0.930 . S
H1539 C1552 0.930 . S
H1540 C1553 0.930 . S
H1541 C1557 0.959 . S
H1542 C1557 0.959 . S
H1543 C1557 0.961 . S
H1544 C1558 0.960 . S
H1545 C1558 0.961 1_556 S
H1546 C1558 0.959 . S
H1547 C1561 0.929 1_554 S
H1548 C1562 0.931 . S
H1549 C1564 0.930 . S
C1550 H1538 0.930 . S
C1550 C1551 1.399 . S
C1550 C1555 1.399 . S
C1551 C1550 1.399 . S
C1551 C1552 1.376 . S
C1552 H1539 0.930 . S
C1552 C1551 1.376 . S
C1552 C1553 1.388 . S
C1553 H1540 0.930 . S
C1553 C1552 1.388 . S
C1553 C1554 1.390 . S
C1554 C1553 1.390 . S
C1554 C1555 1.394 . S
C1554 C1560 1.465 1_554 S
C1555 C1550 1.399 . S
C1555 C1554 1.394 . S
C1555 C1556 1.516 1_554 S
C1556 C1555 1.516 1_556 S
C1556 C1557 1.502 . S
C1556 C1558 1.561 1_556 S
C1556 C1559 1.526 . S
C1557 H1541 0.959 . S
C1557 H1542 0.959 . S
C1557 H1543 0.961 . S
C1557 C1556 1.502 . S
C1558 H1544 0.960 . S
C1558 H1545 0.961 1_554 S
C1558 H1546 0.959 . S
C1558 C1556 1.561 1_554 S
C1559 C1556 1.526 . S
C1559 C1560 1.396 . S
C1559 C1564 1.390 . S
C1560 C1554 1.465 1_556 S
C1560 C1559 1.396 . S
C1560 C1561 1.399 . S
C1561 H1547 0.929 1_556 S
C1561 C1560 1.399 . S
C1561 C1562 1.385 . S
C1562 H1548 0.931 . S
C1562 C1561 1.385 . S
C1562 C1563 1.389 . S
C1563 C1562 1.389 . S
C1563 C1564 1.387 . S
C1564 H1549 0.930 . S
C1564 C1559 1.390 . S
C1564 C1563 1.387 . S
H1565 C1577 0.930 . S
H1566 C1579 0.930 . S
H1567 C1580 0.930 . S
H1568 C1584 0.959 . S
H1569 C1584 0.959 . S
H1570 C1584 0.961 . S
H1571 C1585 0.960 . S
H1572 C1585 0.961 . S
H1573 C1585 0.959 . S
H1574 C1588 0.929 . S
H1575 C1589 0.931 . S
H1576 C1591 0.930 . S
C1577 H1565 0.930 . S
C1577 C1578 1.399 . S
C1577 C1582 1.399 . S
C1578 C1577 1.399 . S
C1578 C1579 1.376 . S
C1579 H1566 0.930 . S
C1579 C1578 1.376 . S
C1579 C1580 1.388 . S
C1580 H1567 0.930 . S
C1580 C1579 1.388 . S
C1580 C1581 1.390 . S
C1581 C1580 1.390 . S
C1581 C1582 1.394 . S
C1581 C1587 1.465 . S
C1582 C1577 1.399 . S
C1582 C1581 1.394 . S
C1582 C1583 1.516 . S
C1583 C1582 1.516 . S
C1583 C1584 1.502 . S
C1583 C1585 1.561 . S
C1583 C1586 1.526 . S
C1584 H1568 0.959 . S
C1584 H1569 0.959 . S
C1584 H1570 0.961 . S
C1584 C1583 1.502 . S
C1585 H1571 0.960 . S
C1585 H1572 0.961 . S
C1585 H1573 0.959 . S
C1585 C1583 1.561 . S
C1586 C1583 1.526 . S
C1586 C1587 1.396 . S
C1586 C1591 1.390 . S
C1587 C1581 1.465 . S
C1587 C1586 1.396 . S
C1587 C1588 1.399 . S
C1588 H1574 0.929 . S
C1588 C1587 1.399 . S
C1588 C1589 1.385 . S
C1589 H1575 0.931 . S
C1589 C1588 1.385 . S
C1589 C1590 1.389 . S
C1590 C1589 1.389 . S
C1590 C1591 1.387 . S
C1591 H1576 0.930 . S
C1591 C1586 1.390 . S
C1591 C1590 1.387 . S
H1592 C1604 0.931 . S
H1593 C1606 0.930 . S
H1594 C1607 0.930 . S
H1595 C1611 0.959 . S
H1596 C1611 0.959 . S
H1597 C1611 0.961 . S
H1598 C1612 0.960 . S
H1599 C1612 0.961 . S
H1600 C1612 0.959 . S
H1601 C1615 0.929 . S
H1602 C1616 0.931 . S
H1603 C1618 0.930 . S
C1604 H1592 0.931 . S
C1604 C1605 1.398 1_554 S
C1604 C1609 1.399 . S
C1605 C1604 1.398 1_556 S
C1605 C1606 1.376 . S
C1606 H1593 0.930 . S
C1606 C1605 1.376 . S
C1606 C1607 1.388 . S
C1607 H1594 0.930 . S
C1607 C1606 1.388 . S
C1607 C1608 1.390 . S
C1608 C1607 1.390 . S
C1608 C1609 1.394 1_556 S
C1608 C1614 1.465 . S
C1609 C1604 1.399 . S
C1609 C1608 1.394 1_554 S
C1609 C1610 1.516 . S
C1610 C1609 1.516 . S
C1610 C1611 1.502 . S
C1610 C1612 1.561 . S
C1610 C1613 1.526 . S
C1611 H1595 0.959 . S
C1611 H1596 0.959 . S
C1611 H1597 0.961 . S
C1611 C1610 1.502 . S
C1612 H1598 0.960 . S
C1612 H1599 0.961 . S
C1612 H1600 0.959 . S
C1612 C1610 1.561 . S
C1613 C1610 1.526 . S
C1613 C1614 1.396 1_554 S
C1613 C1618 1.390 . S
C1614 C1608 1.465 . S
C1614 C1613 1.396 1_556 S
C1614 C1615 1.399 . S
C1615 H1601 0.929 . S
C1615 C1614 1.399 . S
C1615 C1616 1.385 . S
C1616 H1602 0.931 . S
C1616 C1615 1.385 . S
C1616 C1617 1.389 1_556 S
C1617 C1616 1.389 1_554 S
C1617 C1618 1.387 . S
C1618 H1603 0.930 . S
C1618 C1613 1.390 . S
C1618 C1617 1.387 . S
H1619 C1631 0.930 . S
H1620 C1633 0.930 . S
H1621 C1634 0.930 . S
H1622 C1638 0.959 . S
H1623 C1638 0.959 . S
H1624 C1638 0.961 . S
H1625 C1639 0.960 . S
H1626 C1639 0.961 . S
H1627 C1639 0.959 . S
H1628 C1642 0.929 . S
H1629 C1643 0.931 . S
H1630 C1645 0.930 . S
C1631 H1619 0.930 . S
C1631 C1632 1.399 . S
C1631 C1636 1.399 . S
C1632 C1631 1.399 . S
C1632 C1633 1.376 . S
C1633 H1620 0.930 . S
C1633 C1632 1.376 . S
C1633 C1634 1.388 . S
C1634 H1621 0.930 . S
C1634 C1633 1.388 . S
C1634 C1635 1.390 . S
C1635 C1634 1.390 . S
C1635 C1636 1.394 . S
C1635 C1641 1.465 . S
C1636 C1631 1.399 . S
C1636 C1635 1.394 . S
C1636 C1637 1.516 . S
C1637 C1636 1.516 . S
C1637 C1638 1.502 . S
C1637 C1639 1.561 . S
C1637 C1640 1.526 . S
C1638 H1622 0.959 . S
C1638 H1623 0.959 . S
C1638 H1624 0.961 . S
C1638 C1637 1.502 . S
C1639 H1625 0.960 . S
C1639 H1626 0.961 . S
C1639 H1627 0.959 . S
C1639 C1637 1.561 . S
C1640 C1637 1.526 . S
C1640 C1641 1.396 . S
C1640 C1645 1.390 . S
C1641 C1635 1.465 . S
C1641 C1640 1.396 . S
C1641 C1642 1.399 . S
C1642 H1628 0.929 . S
C1642 C1641 1.399 . S
C1642 C1643 1.385 . S
C1643 H1629 0.931 . S
C1643 C1642 1.385 . S
C1643 C1644 1.389 . S
C1644 C1643 1.389 . S
C1644 C1645 1.387 . S
C1645 H1630 0.930 . S
C1645 C1640 1.390 . S
C1645 C1644 1.387 . S
H1646 C1658 0.930 . S
H1647 C1660 0.930 . S
H1648 C1661 0.930 . S
H1649 C1665 0.959 . S
H1650 C1665 0.959 . S
H1651 C1665 0.961 . S
H1652 C1666 0.960 . S
H1653 C1666 0.961 . S
H1654 C1666 0.959 . S
H1655 C1669 0.929 . S
H1656 C1670 0.931 . S
H1657 C1672 0.930 1_554 S
C1658 H1646 0.930 . S
C1658 C1659 1.399 . S
C1658 C1663 1.399 . S
C1659 C1658 1.399 . S
C1659 C1660 1.376 1_554 S
C1660 H1647 0.930 . S
C1660 C1659 1.376 1_556 S
C1660 C1661 1.388 . S
C1661 H1648 0.930 . S
C1661 C1660 1.388 . S
C1661 C1662 1.390 . S
C1662 C1661 1.390 . S
C1662 C1663 1.394 1_556 S
C1662 C1668 1.465 . S
C1663 C1658 1.399 . S
C1663 C1662 1.394 1_554 S
C1663 C1664 1.516 . S
C1664 C1663 1.516 . S
C1664 C1665 1.502 . S
C1664 C1666 1.561 . S
C1664 C1667 1.526 . S
C1665 H1649 0.959 . S
C1665 H1650 0.959 . S
C1665 H1651 0.961 . S
C1665 C1664 1.502 . S
C1666 H1652 0.960 . S
C1666 H1653 0.961 . S
C1666 H1654 0.959 . S
C1666 C1664 1.561 . S
C1667 C1664 1.526 . S
C1667 C1668 1.396 1_554 S
C1667 C1672 1.390 1_554 S
C1668 C1662 1.465 . S
C1668 C1667 1.396 1_556 S
C1668 C1669 1.399 . S
C1669 H1655 0.929 . S
C1669 C1668 1.399 . S
C1669 C1670 1.385 . S
C1670 H1656 0.931 . S
C1670 C1669 1.385 . S
C1670 C1671 1.389 . S
C1671 C1670 1.389 . S
C1671 C1672 1.387 . S
C1672 H1657 0.930 1_556 S
C1672 C1667 1.390 1_556 S
C1672 C1671 1.387 . S
H1673 C1685 0.930 . S
H1674 C1687 0.930 . S
H1675 C1688 0.930 . S
H1676 C1692 0.959 . S
H1677 C1692 0.959 . S
H1678 C1692 0.961 . S
H1679 C1693 0.960 . S
H1680 C1693 0.961 . S
H1681 C1693 0.959 . S
H1682 C1696 0.929 . S
H1683 C1697 0.931 . S
H1684 C1699 0.930 . S
C1685 H1673 0.930 . S
C1685 C1686 1.399 . S
C1685 C1690 1.399 . S
C1686 C1685 1.399 . S
C1686 C1687 1.376 . S
C1687 H1674 0.930 . S
C1687 C1686 1.376 . S
C1687 C1688 1.388 . S
C1688 H1675 0.930 . S
C1688 C1687 1.388 . S
C1688 C1689 1.390 . S
C1689 C1688 1.390 . S
C1689 C1690 1.394 . S
C1689 C1695 1.465 . S
C1690 C1685 1.399 . S
C1690 C1689 1.394 . S
C1690 C1691 1.516 . S
C1691 C1690 1.516 . S
C1691 C1692 1.502 . S
C1691 C1693 1.561 . S
C1691 C1694 1.526 . S
C1692 H1676 0.959 . S
C1692 H1677 0.959 . S
C1692 H1678 0.961 . S
C1692 C1691 1.502 . S
C1693 H1679 0.960 . S
C1693 H1680 0.961 . S
C1693 H1681 0.959 . S
C1693 C1691 1.561 . S
C1694 C1691 1.526 . S
C1694 C1695 1.396 . S
C1694 C1699 1.390 . S
C1695 C1689 1.465 . S
C1695 C1694 1.396 . S
C1695 C1696 1.399 . S
C1696 H1682 0.929 . S
C1696 C1695 1.399 . S
C1696 C1697 1.385 . S
C1697 H1683 0.931 . S
C1697 C1696 1.385 . S
C1697 C1698 1.389 . S
C1698 C1697 1.389 . S
C1698 C1699 1.387 . S
C1699 H1684 0.930 . S
C1699 C1694 1.390 . S
C1699 C1698 1.387 . S
H1700 C1712 0.932 1_554 S
H1701 C1714 0.930 . S
H1702 C1715 0.930 . S
H1703 C1719 0.959 . S
H1704 C1719 0.959 . S
H1705 C1719 0.961 . S
H1706 C1720 0.960 . S
H1707 C1720 0.961 . S
H1708 C1720 0.959 . S
H1709 C1723 0.929 . S
H1710 C1724 0.931 . S
H1711 C1726 0.930 . S
C1712 H1700 0.932 1_556 S
C1712 C1713 1.396 . S
C1712 C1717 1.399 1_556 S
C1713 C1712 1.396 . S
C1713 C1714 1.376 . S
C1714 H1701 0.930 . S
C1714 C1713 1.376 . S
C1714 C1715 1.388 . S
C1715 H1702 0.930 . S
C1715 C1714 1.388 . S
C1715 C1716 1.390 . S
C1716 C1715 1.390 . S
C1716 C1717 1.394 1_556 S
C1716 C1722 1.465 1_545 S
C1717 C1712 1.399 1_554 S
C1717 C1716 1.394 1_554 S
C1717 C1718 1.516 . S
C1718 C1717 1.516 . S
C1718 C1719 1.502 . S
C1718 C1720 1.561 . S
C1718 C1721 1.526 1_545 S
C1719 H1703 0.959 . S
C1719 H1704 0.959 . S
C1719 H1705 0.961 . S
C1719 C1718 1.502 . S
C1720 H1706 0.960 . S
C1720 H1707 0.961 . S
C1720 H1708 0.959 . S
C1720 C1718 1.561 . S
C1721 C1718 1.526 1_565 S
C1721 C1722 1.396 1_554 S
C1721 C1726 1.390 . S
C1722 C1716 1.465 1_565 S
C1722 C1721 1.396 1_556 S
C1722 C1723 1.399 . S
C1723 H1709 0.929 . S
C1723 C1722 1.399 . S
C1723 C1724 1.385 . S
C1724 H1710 0.931 . S
C1724 C1723 1.385 . S
C1724 C1725 1.389 1_556 S
C1725 C1724 1.389 1_554 S
C1725 C1726 1.387 . S
C1726 H1711 0.930 . S
C1726 C1721 1.390 . S
C1726 C1725 1.387 . S
H1727 C1739 0.930 . S
H1728 C1741 0.930 . S
H1729 C1742 0.930 . S
H1730 C1746 0.959 . S
H1731 C1746 0.959 . S
H1732 C1746 0.961 . S
H1733 C1747 0.960 . S
H1734 C1747 0.961 . S
H1735 C1747 0.959 . S
H1736 C1750 0.929 . S
H1737 C1751 0.931 . S
H1738 C1753 0.930 . S
C1739 H1727 0.930 . S
C1739 C1740 1.399 . S
C1739 C1744 1.399 . S
C1740 C1739 1.399 . S
C1740 C1741 1.376 . S
C1741 H1728 0.930 . S
C1741 C1740 1.376 . S
C1741 C1742 1.388 . S
C1742 H1729 0.930 . S
C1742 C1741 1.388 . S
C1742 C1743 1.390 . S
C1743 C1742 1.390 . S
C1743 C1744 1.394 . S
C1743 C1749 1.465 1_565 S
C1744 C1739 1.399 . S
C1744 C1743 1.394 . S
C1744 C1745 1.516 . S
C1745 C1744 1.516 . S
C1745 C1746 1.502 . S
C1745 C1747 1.561 . S
C1745 C1748 1.526 1_565 S
C1746 H1730 0.959 . S
C1746 H1731 0.959 . S
C1746 H1732 0.961 . S
C1746 C1745 1.502 . S
C1747 H1733 0.960 . S
C1747 H1734 0.961 . S
C1747 H1735 0.959 . S
C1747 C1745 1.561 . S
C1748 C1745 1.526 1_545 S
C1748 C1749 1.396 . S
C1748 C1753 1.390 . S
C1749 C1743 1.465 1_545 S
C1749 C1748 1.396 . S
C1749 C1750 1.399 . S
C1750 H1736 0.929 . S
C1750 C1749 1.399 . S
C1750 C1751 1.385 . S
C1751 H1737 0.931 . S
C1751 C1750 1.385 . S
C1751 C1752 1.389 . S
C1752 C1751 1.389 . S
C1752 C1753 1.387 . S
C1753 H1738 0.930 . S
C1753 C1748 1.390 . S
C1753 C1752 1.387 . S
H1754 C1766 0.930 . S
H1755 C1768 0.930 . S
H1756 C1769 0.930 . S
H1757 C1773 0.933 1_544 S
H1758 C1773 0.959 1_545 S
H1759 C1773 0.961 . S
H1760 C1774 0.960 . S
H1761 C1774 0.961 . S
H1762 C1774 0.959 . S
H1763 C1777 0.929 . S
H1764 C1778 0.931 . S
H1765 C1780 0.930 . S
C1766 H1754 0.930 . S
C1766 C1767 1.399 . S
C1766 C1771 1.400 1_554 S
C1767 C1766 1.399 . S
C1767 C1768 1.376 . S
C1768 H1755 0.930 . S
C1768 C1767 1.376 . S
C1768 C1769 1.388 . S
C1769 H1756 0.930 . S
C1769 C1768 1.388 . S
C1769 C1770 1.390 . S
C1770 C1769 1.390 . S
C1770 C1771 1.395 1_554 S
C1770 C1776 1.468 1_565 S
C1771 C1766 1.400 1_556 S
C1771 C1770 1.395 1_556 S
C1771 C1772 1.514 . S
C1772 C1771 1.514 . S
C1772 C1773 1.502 . S
C1772 C1774 1.561 . S
C1772 C1775 1.526 1_565 S
C1773 H1757 0.933 1_566 S
C1773 H1758 0.959 1_565 S
C1773 H1759 0.961 . S
C1773 C1772 1.502 . S
C1774 H1760 0.960 . S
C1774 H1761 0.961 . S
C1774 H1762 0.959 . S
C1774 C1772 1.561 . S
C1775 C1772 1.526 1_545 S
C1775 C1776 1.391 1_556 S
C1775 C1780 1.390 . S
C1776 C1770 1.468 1_545 S
C1776 C1775 1.391 1_554 S
C1776 C1777 1.400 . S
C1777 H1763 0.929 . S
C1777 C1776 1.400 . S
C1777 C1778 1.385 1_554 S
C1778 H1764 0.931 . S
C1778 C1777 1.385 1_556 S
C1778 C1779 1.389 . S
C1779 C1778 1.389 . S
C1779 C1780 1.387 . S
C1780 H1765 0.930 . S
C1780 C1775 1.390 . S
C1780 C1779 1.387 . S
H1781 C1793 0.930 . S
H1782 C1795 0.930 . S
H1783 C1796 0.930 . S
H1784 C1800 0.959 . S
H1785 C1800 0.959 . S
H1786 C1800 0.961 . S
H1787 C1801 0.960 . S
H1788 C1801 0.961 . S
H1789 C1801 0.959 . S
H1790 C1804 0.929 . S
H1791 C1805 0.931 . S
H1792 C1807 0.930 . S
C1793 H1781 0.930 . S
C1793 C1794 1.399 . S
C1793 C1798 1.399 . S
C1794 C1793 1.399 . S
C1794 C1795 1.376 . S
C1795 H1782 0.930 . S
C1795 C1794 1.376 . S
C1795 C1796 1.388 . S
C1796 H1783 0.930 . S
C1796 C1795 1.388 . S
C1796 C1797 1.390 . S
C1797 C1796 1.390 . S
C1797 C1798 1.394 . S
C1797 C1803 1.465 1_545 S
C1798 C1793 1.399 . S
C1798 C1797 1.394 . S
C1798 C1799 1.516 . S
C1799 C1798 1.516 . S
C1799 C1800 1.502 . S
C1799 C1801 1.561 . S
C1799 C1802 1.526 1_545 S
C1800 H1784 0.959 . S
C1800 H1785 0.959 . S
C1800 H1786 0.961 . S
C1800 C1799 1.502 . S
C1801 H1787 0.960 . S
C1801 H1788 0.961 . S
C1801 H1789 0.959 . S
C1801 C1799 1.561 . S
C1802 C1799 1.526 1_565 S
C1802 C1803 1.396 . S
C1802 C1807 1.390 . S
C1803 C1797 1.465 1_565 S
C1803 C1802 1.396 . S
C1803 C1804 1.399 . S
C1804 H1790 0.929 . S
C1804 C1803 1.399 . S
C1804 C1805 1.385 . S
C1805 H1791 0.931 . S
C1805 C1804 1.385 . S
C1805 C1806 1.389 . S
C1806 C1805 1.389 . S
C1806 C1807 1.387 . S
C1807 H1792 0.930 . S
C1807 C1802 1.390 . S
C1807 C1806 1.387 . S
C957 C52 1.538 . S
C969 C406 1.518 . S
C984 C111 1.507 . S
C996 C465 1.538 . S
C1011 C288 1.531 . S
C1023 C170 1.518 . S
C1038 C347 1.526 . S
C1050 C229 1.525 . S
C1065 C878 1.517 . S
C1077 C524 1.539 . S
C1092 C937 1.533 . S
C1104 C583 1.518 . S
C1119 C642 1.507 . S
C1131 C760 1.539 . S
C1146 C701 1.510 . S
C1158 C819 1.536 . S
C1173 C33 1.587 . S
C1185 C298 1.574 . S
C1200 C92 1.596 . S
C1212 C239 1.579 . S
C1227 C151 1.597 . S
C1239 C416 1.581 . S
C1254 C357 1.600 . S
C1266 C210 1.608 . S
C1281 C770 1.601 . S
C1293 C505 1.608 . S
C1308 C711 1.598 . S
C1320 C564 1.607 . S
C1335 C623 1.597 . S
C1347 C888 1.580 . S
C1362 C829 1.601 . S
C1374 C682 1.608 . S
C1389 C713 1.570 . S
C1401 C5 1.545 . S
C1416 C64 1.566 . S
C1428 C772 1.550 . S
C1443 C831 1.549 . S
C1455 C123 1.559 . S
C1470 C890 1.554 . S
C1482 C182 1.562 . S
C1497 C477 1.547 . S
C1509 C241 1.570 . S
C1524 C536 1.551 . S
C1536 C300 1.559 . S
C1551 C359 1.562 . S
C1563 C595 1.555 . S
C1578 C418 1.551 . S
C1590 C654 1.564 . S
C1605 C121 1.170 . S
C1617 C3 1.233 . S
C1632 C62 1.168 . S
C1644 C180 1.212 . S
C1659 C387 1.948 . S
C1671 C269 1.922 . S
C1686 C328 1.948 . S
C1698 C446 1.922 . S
C1713 C593 1.166 . S
C1725 C475 1.219 . S
C1740 C652 1.167 . S
C1752 C534 1.227 . S
C1767 C859 1.933 . S
C1779 C741 1.943 . S
C1794 C918 1.930 . S
C1806 C800 1.945 . S
