# Generated by pormake.
# Topology whj, (6)-cn, num edge types: 1
# Building blocks:
#     Node 0, Type 0, BuildingBlock: IZENUY_clean_sbu_0, # of connection points: 6
#     Node 1, Type 0, BuildingBlock: IZENUY_clean_sbu_0, # of connection points: 6
#     Node 2, Type 0, BuildingBlock: IZENUY_clean_sbu_0, # of connection points: 6
#     Node 3, Type 0, BuildingBlock: IZENUY_clean_sbu_0, # of connection points: 6
#     Node 4, Type 0, BuildingBlock: IZENUY_clean_sbu_0, # of connection points: 6
#     Node 5, Type 0, BuildingBlock: IZENUY_clean_sbu_0, # of connection points: 6
#     Node 6, Type 0, BuildingBlock: IZENUY_clean_sbu_0, # of connection points: 6
#     Node 7, Type 0, BuildingBlock: IZENUY_clean_sbu_0, # of connection points: 6
#     Node 8, Type 0, BuildingBlock: IZENUY_clean_sbu_0, # of connection points: 6
#     Node 9, Type 0, BuildingBlock: IZENUY_clean_sbu_0, # of connection points: 6
#     Node 10, Type 0, BuildingBlock: IZENUY_clean_sbu_0, # of connection points: 6
#     Node 11, Type 0, BuildingBlock: IZENUY_clean_sbu_0, # of connection points: 6
#     Node 12, Type 0, BuildingBlock: IZENUY_clean_sbu_0, # of connection points: 6
#     Node 13, Type 0, BuildingBlock: IZENUY_clean_sbu_0, # of connection points: 6
#     Node 14, Type 0, BuildingBlock: IZENUY_clean_sbu_0, # of connection points: 6
#     Node 15, Type 0, BuildingBlock: IZENUY_clean_sbu_0, # of connection points: 6
#     Edge 16, Type (0, 0), BuildingBlock: KIFKEQ_clean_linker_1, # of connection points: 2
#     Edge 17, Type (0, 0), BuildingBlock: KIFKEQ_clean_linker_1, # of connection points: 2
#     Edge 18, Type (0, 0), BuildingBlock: KIFKEQ_clean_linker_1, # of connection points: 2
#     Edge 19, Type (0, 0), BuildingBlock: KIFKEQ_clean_linker_1, # of connection points: 2
#     Edge 20, Type (0, 0), BuildingBlock: KIFKEQ_clean_linker_1, # of connection points: 2
#     Edge 21, Type (0, 0), BuildingBlock: KIFKEQ_clean_linker_1, # of connection points: 2
#     Edge 22, Type (0, 0), BuildingBlock: KIFKEQ_clean_linker_1, # of connection points: 2
#     Edge 23, Type (0, 0), BuildingBlock: KIFKEQ_clean_linker_1, # of connection points: 2
#     Edge 24, Type (0, 0), BuildingBlock: KIFKEQ_clean_linker_1, # of connection points: 2
#     Edge 25, Type (0, 0), BuildingBlock: KIFKEQ_clean_linker_1, # of connection points: 2
#     Edge 26, Type (0, 0), BuildingBlock: KIFKEQ_clean_linker_1, # of connection points: 2
#     Edge 27, Type (0, 0), BuildingBlock: KIFKEQ_clean_linker_1, # of connection points: 2
#     Edge 28, Type (0, 0), BuildingBlock: KIFKEQ_clean_linker_1, # of connection points: 2
#     Edge 29, Type (0, 0), BuildingBlock: KIFKEQ_clean_linker_1, # of connection points: 2
#     Edge 30, Type (0, 0), BuildingBlock: KIFKEQ_clean_linker_1, # of connection points: 2
#     Edge 31, Type (0, 0), BuildingBlock: KIFKEQ_clean_linker_1, # of connection points: 2
#     Edge 32, Type (0, 0), BuildingBlock: KIFKEQ_clean_linker_1, # of connection points: 2
#     Edge 33, Type (0, 0), BuildingBlock: KIFKEQ_clean_linker_1, # of connection points: 2
#     Edge 34, Type (0, 0), BuildingBlock: KIFKEQ_clean_linker_1, # of connection points: 2
#     Edge 35, Type (0, 0), BuildingBlock: KIFKEQ_clean_linker_1, # of connection points: 2
#     Edge 36, Type (0, 0), BuildingBlock: KIFKEQ_clean_linker_1, # of connection points: 2
#     Edge 37, Type (0, 0), BuildingBlock: KIFKEQ_clean_linker_1, # of connection points: 2
#     Edge 38, Type (0, 0), BuildingBlock: KIFKEQ_clean_linker_1, # of connection points: 2
#     Edge 39, Type (0, 0), BuildingBlock: KIFKEQ_clean_linker_1, # of connection points: 2
#     Edge 40, Type (0, 0), BuildingBlock: KIFKEQ_clean_linker_1, # of connection points: 2
#     Edge 41, Type (0, 0), BuildingBlock: KIFKEQ_clean_linker_1, # of connection points: 2
#     Edge 42, Type (0, 0), BuildingBlock: KIFKEQ_clean_linker_1, # of connection points: 2
#     Edge 43, Type (0, 0), BuildingBlock: KIFKEQ_clean_linker_1, # of connection points: 2
#     Edge 44, Type (0, 0), BuildingBlock: KIFKEQ_clean_linker_1, # of connection points: 2
#     Edge 45, Type (0, 0), BuildingBlock: KIFKEQ_clean_linker_1, # of connection points: 2
#     Edge 46, Type (0, 0), BuildingBlock: KIFKEQ_clean_linker_1, # of connection points: 2
#     Edge 47, Type (0, 0), BuildingBlock: KIFKEQ_clean_linker_1, # of connection points: 2
#     Edge 48, Type (0, 0), BuildingBlock: KIFKEQ_clean_linker_1, # of connection points: 2
#     Edge 49, Type (0, 0), BuildingBlock: KIFKEQ_clean_linker_1, # of connection points: 2
#     Edge 50, Type (0, 0), BuildingBlock: KIFKEQ_clean_linker_1, # of connection points: 2
#     Edge 51, Type (0, 0), BuildingBlock: KIFKEQ_clean_linker_1, # of connection points: 2
#     Edge 52, Type (0, 0), BuildingBlock: KIFKEQ_clean_linker_1, # of connection points: 2
#     Edge 53, Type (0, 0), BuildingBlock: KIFKEQ_clean_linker_1, # of connection points: 2
#     Edge 54, Type (0, 0), BuildingBlock: KIFKEQ_clean_linker_1, # of connection points: 2
#     Edge 55, Type (0, 0), BuildingBlock: KIFKEQ_clean_linker_1, # of connection points: 2
#     Edge 56, Type (0, 0), BuildingBlock: KIFKEQ_clean_linker_1, # of connection points: 2
#     Edge 57, Type (0, 0), BuildingBlock: KIFKEQ_clean_linker_1, # of connection points: 2
#     Edge 58, Type (0, 0), BuildingBlock: KIFKEQ_clean_linker_1, # of connection points: 2
#     Edge 59, Type (0, 0), BuildingBlock: KIFKEQ_clean_linker_1, # of connection points: 2
#     Edge 60, Type (0, 0), BuildingBlock: KIFKEQ_clean_linker_1, # of connection points: 2
#     Edge 61, Type (0, 0), BuildingBlock: KIFKEQ_clean_linker_1, # of connection points: 2
#     Edge 62, Type (0, 0), BuildingBlock: KIFKEQ_clean_linker_1, # of connection points: 2
#     Edge 63, Type (0, 0), BuildingBlock: KIFKEQ_clean_linker_1, # of connection points: 2
# Relax obj value: 0.270
# Max RMSD: 0.261
# Mean RMSD: 0.260
data_MOF--net-whj--node1-IZENUY_clean_sbu_0--edge1-KIFKEQ_clean_linker_1
_symmetry_space_group_name_H-M    P1
_symmetry_Int_Tables_number       1
_symmetry_cell_setting            triclinic
loop_
_symmetry_equiv_pos_as_xyz
'x, y, z'
_cell_length_a     37.353543
_cell_length_b     37.387513
_cell_length_c     47.637503
_cell_angle_alpha  90.108586
_cell_angle_beta   90.150052
_cell_angle_gamma 89.939331
loop_
_atom_site_label
_atom_site_type_symbol
_atom_site_fract_x
_atom_site_fract_y
_atom_site_fract_z
_atom_type_partial_charge
Fe0 Fe 0.69132 1.01495 0.09338 0.0
Fe1 Fe 0.63359 0.05334 0.12733 0.0
O2 O 0.67791 0.05215 0.11408 0.0
Fe3 Fe 0.70761 0.0884 0.12051 0.0
O4 O 0.71531 0.09566 0.08338 0.0
O5 O 0.72253 0.03978 0.0707 0.0
O6 O 0.65614 0.02402 0.06727 0.0
C7 C 0.62347 0.02659 0.07385 0.0
C8 C 0.75122 0.02528 0.1259 0.0
O9 O 0.61449 0.02707 0.09921 0.0
C10 C 0.67267 0.08592 0.17105 0.0
O11 O 0.66324 0.98273 0.11265 0.0
O12 O 0.64071 1.01318 0.14815 0.0
O13 O 0.74756 0.0591 0.12383 0.0
O14 O 0.7269 1.00413 0.1178 0.0
C15 C 0.64177 0.12114 0.1057 0.0
O16 O 0.64392 0.08014 0.15803 0.0
O17 O 0.70242 0.08523 0.15857 0.0
C18 C 0.64888 0.9836 0.13683 0.0
O19 O 0.6238 0.09262 0.10668 0.0
O20 O 0.67241 0.12314 0.11736 0.0
C21 C 0.72596 0.07285 0.06586 0.0
Fe22 Fe 0.45225 0.72141 0.11695 0.0
Fe23 Fe 0.51953 0.69485 0.08659 0.0
O24 O 0.48161 0.68601 0.10756 0.0
Fe25 Fe 0.47234 0.6418 0.11857 0.0
O26 O 0.42326 0.64683 0.11632 0.0
O27 O 0.41605 0.70011 0.09789 0.0
O28 O 0.45999 0.74756 0.08493 0.0
C29 C 0.46948 0.73721 0.06072 0.0
C30 C 0.4524 0.67728 0.16573 0.0
O31 O 0.49166 0.71187 0.05803 0.0
C32 C 0.54849 0.647 0.12362 0.0
O33 O 0.48788 0.74524 0.13573 0.0
O34 O 0.52647 0.73978 0.10106 0.0
O35 O 0.47364 0.65495 0.15507 0.0
O36 O 0.43804 0.70126 0.15061 0.0
C37 C 0.49597 0.62738 0.0659 0.0
O38 O 0.54977 0.67826 0.11358 0.0
O39 O 0.51981 0.62886 0.12231 0.0
C40 C 0.51691 0.75435 0.12394 0.0
O41 O 0.51976 0.65121 0.06871 0.0
O42 O 0.47035 0.62543 0.08288 0.0
C43 C 0.40577 0.66824 0.1009 0.0
Fe44 Fe 0.81334 0.44898 0.12017 0.0
Fe45 Fe 0.84006 0.51286 0.0856 0.0
O46 O 0.84876 0.47739 0.1092 0.0
Fe47 Fe 0.89282 0.46935 0.12124 0.0
O48 O 0.88792 0.42025 0.12166 0.0
O49 O 0.83471 0.41092 0.10349 0.0
O50 O 0.7871 0.45372 0.08773 0.0
C51 C 0.79734 0.4608 0.06305 0.0
C52 C 0.8575 0.4534 0.16908 0.0
O53 O 0.82301 0.4821 0.05908 0.0
C54 C 0.88772 0.54583 0.12088 0.0
O55 O 0.78951 0.48635 0.13651 0.0
O56 O 0.79519 0.52158 0.09962 0.0
O57 O 0.87931 0.47412 0.15736 0.0
O58 O 0.8334 0.43792 0.15472 0.0
C59 C 0.90754 0.48679 0.06714 0.0
O60 O 0.85673 0.54603 0.1102 0.0
O61 O 0.9057 0.51703 0.12228 0.0
C62 C 0.78053 0.51417 0.12293 0.0
O63 O 0.88362 0.51078 0.06773 0.0
O64 O 0.90948 0.46375 0.08618 0.0
C65 C 0.86677 0.40123 0.10705 0.0
Fe66 Fe 1.01193 0.8367 0.08529 0.0
Fe67 Fe 0.05198 0.89684 0.11557 0.0
O68 O 0.049 0.85118 0.10583 0.0
Fe69 Fe 0.0832 0.82067 0.11574 0.0
O70 O 0.09172 0.80829 0.07955 0.0
O71 O 0.036 0.801 0.06637 0.0
O72 O 0.02388 0.86679 0.05665 0.0
C73 C 0.02815 0.89999 0.06018 0.0
C74 C 0.01763 0.78115 0.12219 0.0
O75 O 0.0292 0.91333 0.08447 0.0
C76 C 0.08224 0.86215 0.16311 0.0
O77 O 0.98059 0.86972 0.10021 0.0
O78 O 1.01002 0.89466 0.1351 0.0
O79 O 0.05167 0.78292 0.12081 0.0
O80 O 0.99813 0.80585 0.11243 0.0
C81 C 0.12067 0.88259 0.09806 0.0
O82 O 0.07648 0.88925 0.14806 0.0
O83 O 0.07861 0.83099 0.15318 0.0
C84 C 0.98075 0.88784 0.12278 0.0
O85 O 0.0931 0.90193 0.09626 0.0
O86 O 0.12008 0.85312 0.11132 0.0
C87 C 0.06914 0.79667 0.06218 0.0
Fe88 Fe 0.1905 0.02059 0.42924 0.0
Fe89 Fe 0.12805 0.9828 0.40014 0.0
O90 O 0.17413 0.98392 0.40939 0.0
Fe91 Fe 0.20288 0.94806 0.39988 0.0
O92 O 0.21576 0.9398 0.43594 0.0
O93 O 0.22474 0.99528 0.44888 0.0
O94 O 0.15965 1.01088 0.45792 0.0
C95 C 0.12621 1.00999 0.45446 0.0
C96 C 0.24566 1.01139 0.39214 0.0
O97 O 0.11276 1.00843 0.43029 0.0
C98 C 0.16051 0.94906 0.35307 0.0
O99 O 0.15963 0.05314 0.41302 0.0
O100 O 0.13187 0.02353 0.37935 0.0
O101 O 0.24229 0.97749 0.39371 0.0
O102 O 0.22218 0.03207 0.40215 0.0
C103 C 0.13968 0.91455 0.41978 0.0
O104 O 0.13395 0.95619 0.36838 0.0
O105 O 0.19197 0.95211 0.36257 0.0
C106 C 0.14142 0.05291 0.3904 0.0
O107 O 0.12155 0.94302 0.42102 0.0
O108 O 0.16849 0.91313 0.40557 0.0
C109 C 0.22827 0.96208 0.45312 0.0
Fe110 Fe 0.50825 0.19675 0.43244 0.0
Fe111 Fe 0.54886 0.1333 0.40719 0.0
O112 O 0.54638 0.17986 0.41445 0.0
Fe113 Fe 0.58186 0.20899 0.40465 0.0
O114 O 0.58789 0.22506 0.44029 0.0
O115 O 0.53151 0.2335 0.45057 0.0
O116 O 0.51783 0.16909 0.46309 0.0
C117 C 0.52202 0.13567 0.46156 0.0
C118 C 0.51752 0.24824 0.39229 0.0
O119 O 0.524 0.1201 0.43815 0.0
C120 C 0.58343 0.16334 0.35955 0.0
O121 O 0.47701 0.16349 0.41776 0.0
O122 O 0.50808 0.13432 0.386 0.0
O123 O 0.55137 0.24642 0.3955 0.0
O124 O 0.49695 0.22531 0.40313 0.0
C125 C 0.617 0.1474 0.42664 0.0
O126 O 0.57509 0.13771 0.37537 0.0
O127 O 0.58033 0.1953 0.3678 0.0
C128 C 0.47819 0.14354 0.39619 0.0
O129 O 0.589 0.12871 0.42807 0.0
O130 O 0.61771 0.17658 0.413 0.0
C131 C 0.56429 0.23844 0.45586 0.0
Fe132 Fe 0.4038 0.54797 0.39436 0.0
Fe133 Fe 0.32922 0.5831 0.39983 0.0
O134 O 0.35897 0.54681 0.40668 0.0
Fe135 Fe 0.34487 0.5094 0.42661 0.0
O136 O 0.3791 0.51756 0.45351 0.0
O137 O 0.42244 0.52163 0.42282 0.0
O138 O 0.41272 0.58719 0.41545 0.0
C139 C 0.3946 0.6157 0.41635 0.0
C140 C 0.38897 0.4782 0.38408 0.0
O141 O 0.36416 0.61778 0.40438 0.0
C142 C 0.28628 0.52 0.39256 0.0
O143 O 0.39448 0.57482 0.36345 0.0
O144 O 0.33608 0.58069 0.36193 0.0
O145 O 0.3735 0.47739 0.40777 0.0
O146 O 0.39761 0.50781 0.37313 0.0
C147 C 0.30829 0.56672 0.45372 0.0
O148 O 0.28953 0.55382 0.39491 0.0
O149 O 0.31034 0.49901 0.40131 0.0
C150 C 0.36618 0.58144 0.35004 0.0
O151 O 0.31939 0.5899 0.43675 0.0
O152 O 0.31298 0.53382 0.44883 0.0
C153 C 0.41207 0.51754 0.4477 0.0
Fe154 Fe 0.98396 0.40282 0.40589 0.0
Fe155 Fe 0.94938 0.32796 0.4041 0.0
O156 O 0.98548 0.35647 0.4138 0.0
Fe157 Fe 0.02309 0.33957 0.43232 0.0
O158 O 1.01422 0.36908 0.46219 0.0
O159 O 1.01049 0.4169 0.43592 0.0
O160 O 0.94475 0.40851 0.42752 0.0
C161 C 0.9161 0.39071 0.42609 0.0
C162 C 0.05374 0.39013 0.39426 0.0
O163 O 0.91441 0.36185 0.41185 0.0
C164 C 1.01283 0.28622 0.3935 0.0
O165 O 0.95653 0.39829 0.37462 0.0
O166 O 0.95168 0.34076 0.367 0.0
O167 O 0.05491 0.37124 0.41641 0.0
O168 O 0.0239 0.39989 0.38415 0.0
C169 C 0.96596 0.29954 0.456 0.0
O170 O 0.97894 0.28933 0.39577 0.0
O171 O 0.03377 0.30917 0.40402 0.0
C172 C 0.94891 0.37264 0.35853 0.0
O173 O 0.94268 0.31266 0.43988 0.0
O174 O 0.99889 0.30445 0.45136 0.0
C175 C 1.01277 0.4026 0.45969 0.0
Fe176 Fe 0.32137 0.94851 0.90023 0.0
Fe177 Fe 0.39784 0.97984 0.89795 0.0
O178 O 0.35282 0.98225 0.90991 0.0
Fe179 Fe 0.34023 0.01825 0.93219 0.0
O180 O 0.30749 0.99311 0.95276 0.0
O181 O 0.31052 0.93834 0.93646 0.0
O182 O 0.35436 0.91161 0.9029 0.0
C183 C 0.38485 0.91068 0.91494 0.0
C184 C 0.28088 1.01422 0.89807 0.0
O185 O 0.40449 0.93808 0.91618 0.0
C186 C 0.38608 0.05121 0.89195 0.0
O187 O 0.32925 0.95455 0.86258 0.0
O188 O 0.38776 0.95681 0.86547 0.0
O189 O 0.30614 0.03292 0.90784 0.0
O190 O 0.28317 0.9802 0.89708 0.0
C191 C 0.40638 1.00264 0.95315 0.0
O192 O 0.39401 0.02237 0.87941 0.0
O193 O 0.37046 0.05049 0.91557 0.0
C194 C 0.35968 0.9533 0.85114 0.0
O195 O 0.41733 1.00174 0.92826 0.0
O196 O 0.37355 1.00601 0.95853 0.0
C197 C 0.30155 0.96005 0.95538 0.0
Fe198 Fe 0.56476 0.3909 0.8981 0.0
Fe199 Fe 0.51693 0.33855 0.93011 0.0
O200 O 0.55499 0.34693 0.90919 0.0
Fe201 Fe 0.58413 0.31131 0.89973 0.0
O202 O 0.62047 0.33193 0.91907 0.0
O203 O 0.61374 0.38506 0.90025 0.0
O204 O 0.56731 0.40708 0.93361 0.0
C205 C 0.54223 0.40551 0.95108 0.0
C206 C 0.58396 0.35516 0.85105 0.0
O207 O 0.51804 0.38189 0.94881 0.0
C208 C 0.51912 0.27994 0.89168 0.0
O209 O 0.51761 0.40497 0.89462 0.0
O210 O 0.48681 0.35625 0.90352 0.0
O211 O 0.59888 0.3317 0.86632 0.0
O212 O 0.56284 0.37759 0.86168 0.0
C213 C 0.56533 0.29396 0.95545 0.0
O214 O 0.50884 0.29416 0.91456 0.0
O215 O 0.54871 0.28839 0.88059 0.0
C216 C 0.48863 0.38739 0.89343 0.0
O217 O 0.54448 0.3203 0.95841 0.0
O218 O 0.57542 0.28445 0.93122 0.0
C219 C 0.63125 0.3636 0.91569 0.0
Fe220 Fe 0.21957 0.57846 0.90132 0.0
Fe221 Fe 0.14056 0.55585 0.90115 0.0
O222 O 0.18545 0.54803 0.9115 0.0
Fe223 Fe 0.19618 0.5106 0.93275 0.0
O224 O 0.21349 0.5392 0.96071 0.0
O225 O 0.24679 0.57222 0.933 0.0
O226 O 0.19759 0.61452 0.92017 0.0
C227 C 0.16522 0.62368 0.91778 0.0
C228 C 0.25452 0.51472 0.89456 0.0
O229 O 0.14383 0.60499 0.90318 0.0
C230 C 0.14779 0.47963 0.89699 0.0
O231 O 0.19812 0.59134 0.86773 0.0
O232 O 0.15235 0.5549 0.86445 0.0
O233 O 0.24069 0.50467 0.91751 0.0
O234 O 0.24433 0.5434 0.88273 0.0
C235 C 0.12895 0.53262 0.95435 0.0
O236 O 0.12904 0.50798 0.89774 0.0
O237 O 0.17938 0.47935 0.9066 0.0
C238 C 0.17365 0.57665 0.85325 0.0
O239 O 0.12544 0.55767 0.93705 0.0
O240 O 0.15335 0.50948 0.95144 0.0
C241 C 0.2377 0.56233 0.95734 0.0
Fe242 Fe 1.01369 0.19181 0.93419 0.0
Fe243 Fe 0.94595 0.21705 0.90309 0.0
O244 O 0.97542 0.1822 0.91351 0.0
Fe245 Fe 0.9657 0.13746 0.90423 0.0
O246 O 0.96326 0.12416 0.94049 0.0
O247 O 1.01374 0.14896 0.95325 0.0
O248 O 0.98614 0.21053 0.96225 0.0
C249 C 0.96379 0.23563 0.9589 0.0
C250 C 0.04209 0.14134 0.89929 0.0
O251 O 0.95378 0.24458 0.93446 0.0
C252 C 0.94632 0.16988 0.85565 0.0
O253 O 0.02101 0.23593 0.91839 0.0
O254 O 0.98137 0.24028 0.88405 0.0
O255 O 1.01316 0.12368 0.90133 0.0
O256 O 0.04358 0.17344 0.90765 0.0
C257 C 0.899 0.16492 0.92044 0.0
O258 O 0.93215 0.19515 0.86968 0.0
O259 O 0.96717 0.14801 0.86738 0.0
C260 C 1.01058 0.24977 0.89548 0.0
O261 O 0.90943 0.19686 0.92252 0.0
O262 O 0.91667 0.14278 0.90584 0.0
C263 C 0.9896 0.12568 0.95682 0.0
Fe264 Fe 0.90275 0.04442 0.61834 0.0
Fe265 Fe 0.84096 1.00391 0.5908 0.0
O266 O 0.8568 0.04205 0.60914 0.0
Fe267 Fe 0.82761 0.07817 0.61746 0.0
O268 O 0.86175 0.1131 0.61078 0.0
O269 O 0.9086 0.08279 0.59576 0.0
O270 O 0.91866 0.01693 0.58961 0.0
C271 C 0.90567 1.01134 0.56566 0.0
C272 C 0.86991 0.07978 0.66438 0.0
O273 O 0.87227 1.0109 0.56184 0.0
C274 C 0.78463 1.01513 0.62637 0.0
O275 O 0.89956 1.00515 0.64084 0.0
O276 O 0.87167 0.97281 0.60879 0.0
O277 O 0.83839 0.07616 0.65505 0.0
O278 O 0.89635 0.07291 0.64888 0.0
C279 C 0.8026 0.0607 0.56476 0.0
O280 O 0.80892 0.99426 0.61798 0.0
O281 O 0.78824 0.04894 0.62432 0.0
C282 C 0.89024 0.97492 0.63116 0.0
O283 O 0.807 0.02781 0.56991 0.0
O284 O 0.81476 0.08426 0.58105 0.0
C285 C 0.89034 0.11123 0.59634 0.0
Fe286 Fe 0.51604 0.84402 0.58568 0.0
Fe287 Fe 0.44956 0.81785 0.61722 0.0
O288 O 0.47785 0.85321 0.60621 0.0
Fe289 Fe 0.46714 0.89783 0.61484 0.0
O290 O 0.46424 0.91027 0.57841 0.0
O291 O 0.51531 0.88653 0.5662 0.0
O292 O 0.48859 0.82423 0.55789 0.0
C293 C 0.46822 0.7977 0.56185 0.0
C294 C 0.54343 0.89535 0.62042 0.0
O295 O 0.45856 0.78936 0.58648 0.0
C296 C 0.44736 0.86695 0.66347 0.0
O297 O 0.5242 0.80041 0.602 0.0
O298 O 0.48591 0.79663 0.63703 0.0
O299 O 0.51432 0.91268 0.6178 0.0
O300 O 0.54562 0.86328 0.61211 0.0
C301 C 0.40132 0.86829 0.59868 0.0
O302 O 0.43462 0.84047 0.64997 0.0
O303 O 0.46888 0.88802 0.65177 0.0
C304 C 0.51512 0.78734 0.6255 0.0
O305 O 0.41249 0.83647 0.59709 0.0
O306 O 0.41837 0.89115 0.6131 0.0
C307 C 0.49059 0.90913 0.56222 0.0
Fe308 Fe 0.63238 0.48931 0.62224 0.0
Fe309 Fe 0.69392 0.52839 0.59338 0.0
O310 O 0.67802 0.49057 0.61187 0.0
Fe311 Fe 0.70687 0.45379 0.61901 0.0
O312 O 0.67183 0.41963 0.61307 0.0
O313 O 0.6245 0.45077 0.60011 0.0
O314 O 0.61582 0.51673 0.59346 0.0
C315 C 0.62837 0.52019 0.56916 0.0
C316 C 0.66741 0.45471 0.66738 0.0
O317 O 0.66169 0.52091 0.56507 0.0
C318 C 0.75033 0.51589 0.62896 0.0
O319 O 0.63742 0.52856 0.64446 0.0
O320 O 0.66421 0.56021 0.61172 0.0
O321 O 0.69817 0.45569 0.65658 0.0
O322 O 0.63983 0.46148 0.65302 0.0
C323 C 0.73047 0.4712 0.56617 0.0
O324 O 0.72689 0.53762 0.62028 0.0
O325 O 0.74675 0.48229 0.62539 0.0
C326 C 0.64712 0.55846 0.63472 0.0
O327 O 0.72695 0.50408 0.57189 0.0
O328 O 0.718 0.44781 0.58232 0.0
C329 C 0.64235 0.4221 0.59977 0.0
Fe330 Fe 1.01195 0.69116 0.59018 0.0
Fe331 Fe 0.08666 0.70399 0.61668 0.0
O332 O 0.05059 0.67493 0.60775 0.0
Fe333 Fe 0.05336 0.62869 0.61585 0.0
O334 O 0.02542 0.61363 0.58713 0.0
O335 O 0.01832 0.6607 0.56046 0.0
O336 O 0.03534 0.72546 0.56962 0.0
C337 C 0.06813 0.73089 0.56456 0.0
C338 C 0.98399 0.64104 0.62992 0.0
O339 O 0.09205 0.71896 0.58071 0.0
C340 C 0.08897 0.6597 0.66241 0.0
O341 O 1.00256 0.72239 0.61819 0.0
O342 O 0.05737 0.7426 0.62524 0.0
O343 O 1.01442 0.63102 0.63885 0.0
O344 O 0.98136 0.66006 0.60791 0.0
C345 C 0.11987 0.64205 0.59371 0.0
O346 O 0.08531 0.6915 0.65393 0.0
O347 O 0.08235 0.63394 0.64618 0.0
C348 C 0.02363 0.74554 0.62812 0.0
O349 O 0.12168 0.67039 0.60854 0.0
O350 O 0.09147 0.62376 0.59281 0.0
C351 C 0.01926 0.62724 0.56354 0.0
H352 H 0.70234 0.14313 0.1993 0.0
H353 H 0.63301 0.05185 0.20914 0.0
H354 H 0.68468 0.16466 0.24629 0.0
H355 H 0.61532 0.07298 0.2552 0.0
H356 H 0.61119 0.09907 0.34498 0.0
H357 H 0.64008 0.08168 0.30185 0.0
H358 H 0.6269 0.18868 0.26948 0.0
H359 H 0.59824 0.20687 0.31381 0.0
C360 C 0.68422 0.12723 0.21185 0.0
C361 C 0.66937 0.09561 0.20091 0.0
C362 C 0.67367 0.13979 0.23844 0.0
C363 C 0.64857 0.12055 0.25445 0.0
C364 C 0.63503 0.08825 0.24368 0.0
C365 C 0.64522 0.07605 0.21729 0.0
C366 C 0.61424 0.11917 0.32881 0.0
C367 C 0.60156 0.1543 0.33272 0.0
C368 C 0.63102 0.10909 0.30402 0.0
C369 C 0.63538 0.13361 0.28207 0.0
C370 C 0.62403 0.16921 0.28612 0.0
C371 C 0.60732 0.17953 0.31133 0.0
H372 H 0.38557 0.69131 0.18694 0.0
H373 H 0.48782 0.64497 0.20858 0.0
H374 H 0.36003 0.66789 0.23047 0.0
H375 H 0.46303 0.62296 0.25237 0.0
H376 H 0.40587 0.55046 0.30976 0.0
H377 H 0.42443 0.57625 0.26534 0.0
H378 H 0.35752 0.66852 0.28114 0.0
H379 H 0.33768 0.6414 0.32536 0.0
C380 C 0.40283 0.67697 0.20137 0.0
C381 C 0.43865 0.66973 0.19426 0.0
C382 C 0.38816 0.66344 0.22629 0.0
C383 C 0.40915 0.64267 0.24468 0.0
C384 C 0.44562 0.63767 0.23831 0.0
C385 C 0.46005 0.6507 0.21335 0.0
C386 C 0.39443 0.57583 0.30335 0.0
C387 C 0.37029 0.59389 0.32086 0.0
C388 C 0.40549 0.59096 0.2781 0.0
C389 C 0.39339 0.62507 0.26995 0.0
C390 C 0.36748 0.64227 0.28672 0.0
C391 C 0.35592 0.62671 0.31196 0.0
H392 H 0.93424 0.32871 0.31265 0.0
H393 H 0.92523 0.4378 0.34212 0.0
H394 H 0.90856 0.34718 0.26721 0.0
H395 H 0.89932 0.45549 0.29797 0.0
H396 H 0.90197 0.48579 0.2065 0.0
H397 H 0.92242 0.46349 0.25147 0.0
H398 H 0.85306 0.37171 0.2431 0.0
H399 H 0.83292 0.39385 0.19719 0.0
C400 C 0.92671 0.3564 0.30956 0.0
C401 C 0.93251 0.38178 0.33094 0.0
C402 C 0.91178 0.36694 0.28366 0.0
C403 C 0.90236 0.40297 0.27882 0.0
C404 C 0.90705 0.42777 0.30063 0.0
C405 C 0.92198 0.41744 0.32611 0.0
C406 C 0.89067 0.46103 0.21425 0.0
C407 C 0.86562 0.44176 0.19822 0.0
C408 C 0.90241 0.44822 0.24015 0.0
C409 C 0.88937 0.41578 0.25097 0.0
C410 C 0.86386 0.39661 0.23523 0.0
C411 C 0.85196 0.40957 0.20914 0.0
H412 H 0.20604 0.94076 0.30779 0.0
H413 H 0.0986 0.91779 0.33589 0.0
H414 H 0.19175 0.91355 0.2621 0.0
H415 H 0.08469 0.8908 0.29085 0.0
H416 H 0.07548 0.82292 0.21201 0.0
H417 H 0.09911 0.8391 0.25865 0.0
H418 H 0.15043 0.93184 0.22295 0.0
H419 H 0.12697 0.91601 0.17702 0.0
C420 C 0.17957 0.92978 0.30433 0.0
C421 C 0.1534 0.93197 0.32539 0.0
C422 C 0.17138 0.91415 0.27823 0.0
C423 C 0.13709 0.89983 0.27292 0.0
C424 C 0.11145 0.90106 0.29433 0.0
C425 C 0.11939 0.91705 0.32009 0.0
C426 C 0.09221 0.84641 0.2142 0.0
C427 C 0.09889 0.86845 0.19098 0.0
C428 C 0.10566 0.85576 0.24082 0.0
C429 C 0.12663 0.88683 0.24448 0.0
C430 C 0.13473 0.90762 0.22089 0.0
C431 C 0.12089 0.89869 0.19459 0.0
H432 H 0.41252 0.97706 0.81821 0.0
H433 H 0.31966 0.90847 0.8168 0.0
H434 H 0.43044 0.95504 0.77282 0.0
H435 H 0.33704 0.88692 0.76979 0.0
H436 H 0.41068 0.82735 0.70321 0.0
H437 H 0.38357 0.84973 0.7469 0.0
H438 H 0.41635 0.95698 0.72525 0.0
H439 H 0.44461 0.93475 0.68327 0.0
C440 C 0.39536 0.9578 0.80776 0.0
C441 C 0.36465 0.94456 0.82109 0.0
C442 C 0.40559 0.9452 0.78152 0.0
C443 C 0.3852 0.91918 0.76741 0.0
C444 C 0.35353 0.90674 0.78019 0.0
C445 C 0.34324 0.91946 0.80684 0.0
C446 C 0.41226 0.85561 0.70808 0.0
C447 C 0.43073 0.87902 0.69015 0.0
C448 C 0.39637 0.86852 0.73289 0.0
C449 C 0.3982 0.90515 0.73989 0.0
C450 C 0.41527 0.9285 0.72114 0.0
C451 C 0.43163 0.91563 0.69694 0.0
H452 H 0.54624 0.38202 0.80726 0.0
H453 H 0.6519 0.34608 0.83083 0.0
H454 H 0.5696 0.40446 0.7631 0.0
H455 H 0.67597 0.37024 0.78708 0.0
H456 H 0.69955 0.39747 0.69319 0.0
H457 H 0.68019 0.36889 0.73691 0.0
H458 H 0.60352 0.45411 0.74971 0.0
H459 H 0.62163 0.48115 0.70568 0.0
C460 C 0.57447 0.37863 0.80279 0.0
C461 C 0.59725 0.36243 0.82246 0.0
C462 C 0.58805 0.39194 0.77765 0.0
C463 C 0.62495 0.39019 0.7718 0.0
C464 C 0.64746 0.37211 0.79083 0.0
C465 C 0.63367 0.35817 0.81587 0.0
C466 C 0.67907 0.41026 0.70576 0.0
C467 C 0.66192 0.44137 0.69613 0.0
C468 C 0.66784 0.39388 0.73073 0.0
C469 C 0.63957 0.40863 0.74655 0.0
C470 C 0.62437 0.44115 0.73764 0.0
C471 C 0.63509 0.45703 0.71261 0.0
H472 H 0.19937 0.63647 0.82613 0.0
H473 H 0.12795 0.54658 0.81544 0.0
H474 H 0.18065 0.65967 0.78017 0.0
H475 H 0.10911 0.56987 0.77029 0.0
H476 H 0.11299 0.59487 0.67926 0.0
H477 H 0.13639 0.57713 0.72427 0.0
H478 H 0.12503 0.68528 0.75487 0.0
H479 H 0.10156 0.70378 0.70866 0.0
C480 C 0.18001 0.62148 0.81392 0.0
C481 C 0.1654 0.58946 0.82442 0.0
C482 C 0.16897 0.63504 0.78779 0.0
C483 C 0.14342 0.61663 0.77156 0.0
C484 C 0.12917 0.58454 0.78205 0.0
C485 C 0.13999 0.57115 0.80803 0.0
C486 C 0.11529 0.61521 0.69538 0.0
C487 C 0.10473 0.65081 0.6903 0.0
C488 C 0.12876 0.60485 0.72135 0.0
C489 C 0.13204 0.62957 0.74334 0.0
C490 C 0.12279 0.66559 0.73826 0.0
C491 C 0.10921 0.67615 0.7119 0.0
H492 H 0.88636 0.19433 0.82732 0.0
H493 H 0.97824 0.12494 0.81855 0.0
H494 H 0.86459 0.1746 0.78102 0.0
H495 H 0.9564 0.10506 0.77327 0.0
H496 H 0.93374 0.10559 0.68214 0.0
H497 H 0.94963 0.13094 0.72695 0.0
H498 H 0.84087 0.11815 0.75559 0.0
H499 H 0.82422 0.09283 0.7095 0.0
C500 C 0.90209 0.17525 0.81545 0.0
C501 C 0.93422 0.16145 0.8266 0.0
C502 C 0.88937 0.16362 0.78914 0.0
C503 C 0.90876 0.1383 0.77341 0.0
C504 C 0.94097 0.12493 0.78457 0.0
C505 C 0.95351 0.13635 0.81066 0.0
C506 C 0.91288 0.10796 0.69779 0.0
C507 C 0.87768 0.09643 0.69219 0.0
C508 C 0.92216 0.1226 0.72365 0.0
C509 C 0.89675 0.12605 0.74508 0.0
C510 C 0.86109 0.11584 0.73945 0.0
C511 C 0.8516 0.10115 0.71316 0.0
H512 H 0.55975 0.05763 0.08155 0.0
H513 H 0.62028 0.99752 0.02031 0.0
H514 H 0.50651 0.05199 0.05343 0.0
H515 H 0.5662 0.99295 0.99091 0.0
H516 H 0.45508 0.95253 0.96585 0.0
H517 H 0.51004 0.96116 0.99287 0.0
H518 H 0.47663 0.06924 0.01237 0.0
H519 H 0.42101 0.05961 0.98635 0.0
C520 C 0.56179 0.04367 0.06165 0.0
C521 C 0.59406 0.02751 0.05326 0.0
C522 C 0.53116 0.04072 0.04539 0.0
C523 C 0.5319 0.02176 0.02004 0.0
C524 C 0.56469 1.00717 0.0107 0.0
C525 C 0.59571 1.01011 0.02723 0.0
C526 C 0.45918 0.97764 0.97682 0.0
C527 C 0.43371 1.00511 0.97492 0.0
C528 C 0.49092 0.98291 0.99167 0.0
C529 C 0.498 0.01604 1.00443 0.0
C530 C 0.47186 0.04323 1.00306 0.0
C531 C 0.43984 0.03771 0.98851 0.0
H532 H 0.56031 0.60291 0.04768 0.0
H533 H 0.44685 0.58152 0.04323 0.0
H534 H 0.57251 0.5477 0.02268 0.0
H535 H 0.4588 0.52695 0.01661 0.0
H536 H 0.49188 0.41438 0.99256 0.0
H537 H 0.48103 0.46815 0.02049 0.0
H538 H 0.56982 0.52036 0.97936 0.0
H539 H 0.58181 0.46654 0.95303 0.0
C540 C 0.53789 0.58683 0.04063 0.0
C541 C 0.50261 0.59665 0.04719 0.0
C542 C 0.54486 0.55505 0.02628 0.0
C543 C 0.51667 0.53264 0.01757 0.0
C544 C 0.48125 0.54307 0.02348 0.0
C545 C 0.47432 0.57458 0.03837 0.0
C546 C 0.5094 0.43719 0.98993 0.0
C547 C 0.53767 0.43608 0.97055 0.0
C548 C 0.50294 0.4682 1.00566 0.0
C549 C 0.52433 0.49887 1.00207 0.0
C550 C 0.55307 0.49726 0.98314 0.0
C551 C 0.55986 0.46624 0.96784 0.0
H552 H 0.08296 0.58105 0.97722 0.0
H553 H 0.10674 0.46804 0.97343 0.0
H554 H 0.02843 0.56827 1.00338 0.0
H555 H 0.05154 0.45501 0.99812 0.0
H556 H 0.96853 0.44691 0.06706 0.0
H557 H 0.02292 0.45833 0.04131 0.0
H558 H 0.97037 0.54433 0.99663 0.0
H559 H 0.91608 0.53414 0.02379 0.0
C560 C 0.07658 0.55352 0.98221 0.0
C561 C 0.09911 0.52556 0.97356 0.0
C562 C 0.04513 0.54612 0.99679 0.0
C563 C 0.03531 0.51057 1.00254 0.0
C564 C 0.05843 0.48272 0.99441 0.0
C565 C 0.09017 0.49017 0.98032 0.0
C566 C 0.96833 0.46808 0.05156 0.0
C567 C 0.93804 0.48993 0.04771 0.0
C568 C 0.99962 0.47453 0.03666 0.0
C569 C 1.00124 0.50254 0.01712 0.0
C570 C 0.97032 0.52314 0.01209 0.0
C571 C 0.93906 0.51702 0.02736 0.0
H572 H 0.94224 0.08127 0.98236 0.0
H573 H 0.05481 0.09573 0.96543 0.0
H574 H 0.95469 0.02219 1.00175 0.0
H575 H 0.06717 0.03614 0.98327 0.0
H576 H 0.07734 0.95028 0.05191 0.0
H577 H 0.0696 1.00468 0.02526 0.0
H578 H 0.97151 0.96252 0.98978 0.0
H579 H 0.97896 0.90809 0.01793 0.0
C580 C 0.96969 0.07188 0.98314 0.0
C581 C 0.99765 0.09327 0.97302 0.0
C582 C 0.97677 0.03778 0.99364 0.0
C583 C 1.01189 0.02414 0.99372 0.0
C584 C 0.03987 0.04588 0.98386 0.0
C585 C 0.03287 0.08021 0.97389 0.0
C586 C 0.0548 0.95219 0.03764 0.0
C587 C 0.02875 0.92526 0.03684 0.0
C588 C 0.05028 0.98342 0.02232 0.0
C589 C 0.01956 0.98834 1.00573 0.0
C590 C 0.99505 0.95986 1.00292 0.0
C591 C 0.99958 0.92844 0.0185 0.0
H592 H 0.10388 0.95225 0.48246 0.0
H593 H 0.08931 0.06613 0.47518 0.0
H594 H 0.04579 0.94695 0.50511 0.0
H595 H 0.03212 0.06172 0.49964 0.0
H596 H 0.91682 0.04429 0.51551 0.0
H597 H 0.97332 0.04225 0.48958 0.0
H598 H 1.01079 0.95774 0.54428 0.0
H599 H 0.95401 0.95875 0.56871 0.0
C600 C 0.08892 0.97636 0.48717 0.0
C601 C 0.10112 1.00964 0.47779 0.0
C602 C 0.05543 0.97338 0.49984 0.0
C603 C 0.03378 1.00384 0.50367 0.0
C604 C 0.04752 0.03756 0.49622 0.0
C605 C 0.08073 0.04035 0.48305 0.0
C606 C 0.93653 0.02411 0.52082 0.0
C607 C 0.93122 1.00148 0.54379 0.0
C608 C 0.96926 0.02352 0.50658 0.0
C609 C 0.99711 1.00057 0.51541 0.0
C610 C 0.99017 0.97574 0.53679 0.0
C611 C 0.95749 0.97611 0.55071 0.0
H612 H 0.5759 0.09324 0.47678 0.0
H613 H 0.46871 0.12441 0.49961 0.0
H614 H 0.56984 0.03838 0.50293 0.0
H615 H 0.46291 0.06996 0.52776 0.0
H616 H 0.44325 0.95 0.53314 0.0
H617 H 0.45335 1.01014 0.51516 0.0
H618 H 0.5639 1.00411 0.54236 0.0
H619 H 0.55416 0.94325 0.55821 0.0
C620 C 0.55163 0.08904 0.48875 0.0
C621 C 0.52273 0.11274 0.48628 0.0
C622 C 0.54804 0.05745 0.50377 0.0
C623 C 0.51549 0.04914 0.51693 0.0
C624 C 0.48795 0.07501 0.5171 0.0
C625 C 0.49146 0.10659 0.50162 0.0
C626 C 0.46989 0.96135 0.53442 0.0
C627 C 0.49811 0.94185 0.5464 0.0
C628 C 0.47555 0.99611 0.52481 0.0
C629 C 0.50934 1.01239 0.52771 0.0
C630 C 0.53765 0.99244 0.53939 0.0
C631 C 0.5322 0.95738 0.54827 0.0
H632 H 0.58334 0.57442 0.55706 0.0
H633 H 0.6127 0.46719 0.53308 0.0
H634 H 0.52845 0.5698 0.52931 0.0
H635 H 0.55701 0.46127 0.50672 0.0
H636 H 0.47108 0.47799 0.43959 0.0
H637 H 0.52543 0.47911 0.46718 0.0
H638 H 0.47154 0.54168 0.53087 0.0
H639 H 0.41706 0.54203 0.50197 0.0
C640 C 0.57839 0.55028 0.54503 0.0
C641 C 0.60251 0.5216 0.54622 0.0
C642 C 0.54657 0.54718 0.5298 0.0
C643 C 0.53789 0.51494 0.51613 0.0
C644 C 0.56289 0.48668 0.51664 0.0
C645 C 0.59502 0.49011 0.53142 0.0
C646 C 0.47061 0.49139 0.4598 0.0
C647 C 0.44004 0.51016 0.46864 0.0
C648 C 0.50184 0.49195 0.47569 0.0
C649 C 0.50321 0.51102 0.50106 0.0
C650 C 0.47166 0.52751 0.51103 0.0
C651 C 0.44024 0.52714 0.49486 0.0
H652 H 0.05491 0.61109 0.51555 0.0
H653 H 0.96215 0.58441 0.5648 0.0
H654 H 0.05168 0.55278 0.49236 0.0
H655 H 0.95998 0.52564 0.54343 0.0
H656 H 0.95505 0.42719 0.48649 0.0
H657 H 0.95117 0.48661 0.50696 0.0
H658 H 0.0668 0.49445 0.50543 0.0
H659 H 0.06985 0.43594 0.48276 0.0
C660 C 0.03288 0.59333 0.52041 0.0
C661 C 1.00847 0.6022 0.54154 0.0
C662 C 0.03163 0.55947 0.50788 0.0
C663 C 1.00634 0.53386 0.51674 0.0
C664 C 0.97985 0.54437 0.53596 0.0
C665 C 0.98078 0.5783 0.54804 0.0
C666 C 0.9796 0.44115 0.49168 0.0
C667 C 1.01273 0.42699 0.48357 0.0
C668 C 0.97746 0.47546 0.50311 0.0
C669 C 1.00864 0.49598 0.50716 0.0
C670 C 0.04211 0.48006 0.50164 0.0
C671 C 0.04408 0.44604 0.48958 0.0
H672 H 0.68032 0.91834 0.14079 0.0
H673 H 0.58021 0.97301 0.15434 0.0
H674 H 0.65038 0.86089 0.14615 0.0
H675 H 0.54941 0.91561 0.15774 0.0
H676 H 0.50034 0.80479 0.16489 0.0
H677 H 0.53445 0.85891 0.1767 0.0
H678 H 0.61481 0.82874 0.1159 0.0
H679 H 0.58218 0.77501 0.10534 0.0
C680 C 0.65195 0.91797 0.1455 0.0
C681 C 0.63262 0.95005 0.14717 0.0
C682 C 0.63456 0.88504 0.14816 0.0
C683 C 0.59708 0.88328 0.1515 0.0
C684 C 0.57821 0.9156 0.15529 0.0
C685 C 0.59587 0.94863 0.15335 0.0
C686 C 0.52565 0.80955 0.15452 0.0
C687 C 0.53825 0.78556 0.13399 0.0
C688 C 0.54513 0.84073 0.16112 0.0
C689 C 0.57764 0.84853 0.14735 0.0
C690 C 0.5905 0.82373 0.12755 0.0
C691 C 0.57133 0.79281 0.12116 0.0
H692 H 0.56009 0.57545 0.13213 0.0
H693 H 0.61392 0.67762 0.13405 0.0
H694 H 0.61718 0.54508 0.13839 0.0
H695 H 0.67098 0.64728 0.14136 0.0
H696 H 0.76428 0.5812 0.10548 0.0
H697 H 0.70907 0.61398 0.11182 0.0
H698 H 0.66928 0.53025 0.16579 0.0
H699 H 0.72492 0.49654 0.15862 0.0
C700 C 0.584 0.59153 0.13457 0.0
C701 C 0.58239 0.62903 0.13216 0.0
C702 C 0.61685 0.57404 0.13835 0.0
C703 C 0.64896 0.59358 0.14003 0.0
C704 C 0.64698 0.63123 0.13949 0.0
C705 C 0.61418 0.6487 0.13545 0.0
C706 C 0.744 0.56983 0.11901 0.0
C707 C 0.74895 0.53597 0.13127 0.0
C708 C 0.71228 0.58891 0.12289 0.0
C709 C 0.68439 0.57486 0.13926 0.0
C710 C 0.68996 0.54172 0.15273 0.0
C711 C 0.72198 0.52252 0.14886 0.0
H712 H 0.94855 0.77104 0.13924 0.0
H713 H 0.04645 0.71369 0.1221 0.0
H714 H 0.91691 0.71457 0.14466 0.0
H715 H 1.01461 0.65716 0.12624 0.0
H716 H 0.95288 0.5571 0.14635 0.0
H717 H 0.98429 0.61372 0.15272 0.0
H718 H 0.89471 0.66961 0.11543 0.0
H719 H 0.86296 0.61345 0.11019 0.0
C720 C 0.96342 0.74632 0.1369 0.0
C721 C 1.00002 0.74695 0.13011 0.0
C722 C 0.94517 0.71383 0.13973 0.0
C723 C 0.96287 0.68099 0.1354 0.0
C724 C 0.99996 0.68168 0.13001 0.0
C725 C 0.01832 0.71423 0.12757 0.0
C726 C 0.93968 0.58156 0.13991 0.0
C727 C 0.90537 0.58055 0.12765 0.0
C728 C 0.95785 0.61411 0.14335 0.0
C729 C 0.94234 0.64654 0.13444 0.0
C730 C 0.90751 0.6455 0.12302 0.0
C731 C 0.88926 0.61307 0.11983 0.0
H732 H 0.94788 0.93061 0.08545 0.0
H733 H 0.9428 0.8972 0.17198 0.0
H734 H 0.89478 0.96765 0.09196 0.0
H735 H 0.88828 0.93382 0.17835 0.0
H736 H 0.76459 0.95973 0.14898 0.0
H737 H 0.82252 0.9295 0.15337 0.0
H738 H 0.87554 0.02398 0.12258 0.0
H739 H 0.81772 0.05459 0.11873 0.0
C740 C 0.93532 0.93128 0.10593 0.0
C741 C 0.94927 0.91091 0.12819 0.0
C742 C 0.90509 0.9527 0.1097 0.0
C743 C 0.88749 0.95378 0.13567 0.0
C744 C 0.90144 0.93353 0.15812 0.0
C745 C 0.93251 0.91266 0.15452 0.0
C746 C 0.7887 0.97438 0.14383 0.0
C747 C 0.78653 1.00954 0.13341 0.0
C748 C 0.82186 0.95709 0.14647 0.0
C749 C 0.85349 0.97433 0.13822 0.0
C750 C 0.85154 1.01006 0.12908 0.0
C751 C 0.81845 0.02763 0.127 0.0
H752 H 0.16488 0.12019 0.40154 0.0
H753 H 0.07906 0.06336 0.36021 0.0
H754 H 0.13272 0.17605 0.39565 0.0
H755 H 0.04676 0.11991 0.35376 0.0
H756 H 0.9831 0.21894 0.39123 0.0
H757 H 1.01472 0.16241 0.38367 0.0
H758 H 0.11128 0.22071 0.36427 0.0
H759 H 0.08003 0.27687 0.37258 0.0
C760 C 0.13944 0.11974 0.39057 0.0
C761 C 0.12459 0.08719 0.38144 0.0
C762 C 0.12096 0.15194 0.38703 0.0
C763 C 0.08693 0.15271 0.37428 0.0
C764 C 0.07271 0.12034 0.36394 0.0
C765 C 0.09142 0.08795 0.36734 0.0
C766 C 1.01083 0.21967 0.38466 0.0
C767 C 0.02912 0.25246 0.38286 0.0
C768 C 0.02903 0.1872 0.3803 0.0
C769 C 0.06585 0.18683 0.37386 0.0
C770 C 0.08323 0.21981 0.3699 0.0
C771 C 0.0652 0.2521 0.37448 0.0
H772 H 0.40995 0.16515 0.40634 0.0
H773 H 0.4699 0.08016 0.36685 0.0
H774 H 0.35493 0.13196 0.39934 0.0
H775 H 0.41416 0.04678 0.3593 0.0
H776 H 0.31341 0.9821 0.39266 0.0
H777 H 0.37017 1.01416 0.38761 0.0
H778 H 0.31221 0.11039 0.36624 0.0
H779 H 0.25585 0.07872 0.37202 0.0
C780 C 0.41132 0.13961 0.39562 0.0
C781 C 0.44449 0.1254 0.38723 0.0
C782 C 0.37958 0.12053 0.39143 0.0
C783 C 0.37985 0.0865 0.37873 0.0
C784 C 0.41289 0.07273 0.36938 0.0
C785 C 0.44483 0.09205 0.37343 0.0
C786 C 0.31287 1.00986 0.3862 0.0
C787 C 0.28002 0.02791 0.38306 0.0
C788 C 0.34546 0.02831 0.3833 0.0
C789 C 0.34592 0.06516 0.37704 0.0
C790 C 0.31303 0.08233 0.3718 0.0
C791 C 0.28062 0.06405 0.37491 0.0
H792 H 0.36377 0.4113 0.39289 0.0
H793 H 0.4505 0.46806 0.35324 0.0
H794 H 0.3957 0.35537 0.38704 0.0
H795 H 0.48256 0.41143 0.34666 0.0
H796 H 0.4508 0.25475 0.36948 0.0
H797 H 0.41902 0.30972 0.358 0.0
H798 H 0.51394 0.3709 0.37766 0.0
H799 H 0.54609 0.31563 0.38814 0.0
C800 C 0.38929 0.41165 0.38212 0.0
C801 C 0.40464 0.44418 0.3737 0.0
C802 C 0.40765 0.37942 0.37861 0.0
C803 C 0.442 0.3787 0.36656 0.0
C804 C 0.45639 0.411 0.35638 0.0
C805 C 0.43782 0.44342 0.35981 0.0
C806 C 0.46513 0.27988 0.37075 0.0
C807 C 0.50086 0.28082 0.38008 0.0
C808 C 0.44683 0.31149 0.36432 0.0
C809 C 0.46358 0.34497 0.36744 0.0
C810 C 0.50013 0.3457 0.37482 0.0
C811 C 0.51861 0.31395 0.38094 0.0
H812 H 0.06227 0.4532 0.36507 0.0
H813 H 0.12168 0.36698 0.40343 0.0
H814 H 0.11824 0.4861 0.35783 0.0
H815 H 0.17701 0.39972 0.39669 0.0
H816 H 0.27607 0.45346 0.3708 0.0
H817 H 0.21967 0.42216 0.36383 0.0
H818 H 0.16185 0.51751 0.38777 0.0
H819 H 0.21862 0.54924 0.39404 0.0
C820 C 0.08729 0.44091 0.37138 0.0
C821 C 0.08747 0.40745 0.38489 0.0
C822 C 0.11933 0.45995 0.36752 0.0
C823 C 0.15224 0.44573 0.37677 0.0
C824 C 0.15239 0.41146 0.38894 0.0
C825 C 0.12052 0.39266 0.39295 0.0
C826 C 0.25132 0.46801 0.37407 0.0
C827 C 0.25189 0.50376 0.38331 0.0
C828 C 0.21893 0.44997 0.37021 0.0
C829 C 0.18611 0.467 0.37577 0.0
C830 C 0.18655 0.50353 0.38317 0.0
C831 C 0.21912 0.52176 0.38681 0.0
H832 H 0.36751 0.11711 0.91067 0.0
H833 H 0.43925 0.06437 0.85289 0.0
H834 H 0.39837 0.17286 0.9036 0.0
H835 H 0.46967 0.12143 0.84458 0.0
H836 H 0.54483 0.2147 0.87525 0.0
H837 H 0.50998 0.1601 0.86821 0.0
H838 H 0.41223 0.2214 0.8762 0.0
H839 H 0.44733 0.27511 0.88514 0.0
C840 C 0.38945 0.11759 0.89585 0.0
C841 C 0.40111 0.08603 0.88264 0.0
C842 C 0.40709 0.14993 0.89152 0.0
C843 C 0.43681 0.15203 0.87351 0.0
C844 C 0.44727 0.12084 0.85894 0.0
C845 C 0.42959 0.08816 0.86345 0.0
C846 C 0.51588 0.21644 0.87487 0.0
C847 C 0.49869 0.24893 0.88102 0.0
C848 C 0.4958 0.18516 0.87075 0.0
C849 C 0.45809 0.18593 0.87222 0.0
C850 C 0.44114 0.21932 0.87586 0.0
C851 C 0.46119 0.25026 0.8807 0.0
H852 H 0.31153 0.53839 0.86249 0.0
H853 H 0.27039 0.44559 0.9054 0.0
H854 H 0.36832 0.50684 0.85465 0.0
H855 H 0.3266 0.4149 0.89866 0.0
H856 H 0.42503 0.35682 0.87784 0.0
H857 H 0.36797 0.38667 0.86953 0.0
H858 H 0.4188 0.48926 0.88224 0.0
H859 H 0.47608 0.45939 0.88923 0.0
C860 C 0.31433 0.51109 0.86974 0.0
C861 C 0.28653 0.49465 0.88478 0.0
C862 C 0.34701 0.4931 0.86556 0.0
C863 C 0.35242 0.45827 0.8762 0.0
C864 C 0.32366 0.44137 0.88976 0.0
C865 C 0.2913 0.4592 0.89389 0.0
C866 C 0.42412 0.38578 0.87837 0.0
C867 C 0.45507 0.40564 0.88454 0.0
C868 C 0.39131 0.40297 0.87376 0.0
C869 C 0.38839 0.4405 0.87571 0.0
C870 C 0.41983 0.46042 0.88031 0.0
C871 C 0.45278 0.44322 0.8845 0.0
H872 H 0.08171 0.25545 0.88575 0.0
H873 H 0.98387 0.31649 0.8851 0.0
H874 H 0.11629 0.31002 0.87948 0.0
H875 H 0.01819 0.37171 0.88095 0.0
H876 H 0.08631 0.46892 0.86636 0.0
H877 H 0.05413 0.41295 0.8589 0.0
H878 H 0.13592 0.35679 0.90587 0.0
H879 H 0.16874 0.41211 0.91167 0.0
C880 C 0.06762 0.28068 0.8838 0.0
C881 C 0.03016 0.28175 0.88564 0.0
C882 C 0.08744 0.31219 0.88069 0.0
C883 C 0.07042 0.34588 0.88036 0.0
C884 C 0.0326 0.34659 0.8808 0.0
C885 C 1.01272 0.31486 0.88316 0.0
C886 C 0.09767 0.44442 0.87461 0.0
C887 C 0.13019 0.44511 0.88958 0.0
C888 C 0.079 0.41223 0.87059 0.0
C889 C 0.09197 0.37984 0.88188 0.0
C890 C 0.12507 0.38063 0.89622 0.0
C891 C 0.14401 0.41264 0.89975 0.0
H892 H 0.26539 0.08518 0.90448 0.0
H893 H 0.21751 0.98557 0.87788 0.0
H894 H 0.2081 0.11467 0.90084 0.0
H895 H 0.15981 0.01581 0.87272 0.0
H896 H 0.05561 0.06965 0.90353 0.0
H897 H 0.11271 0.03902 0.89896 0.0
H898 H 0.16251 0.13851 0.87442 0.0
H899 H 0.10556 0.1694 0.88064 0.0
C900 C 0.24274 0.06959 0.89722 0.0
C901 C 0.24631 0.03273 0.89167 0.0
C902 C 0.2096 0.08677 0.8949 0.0
C903 C 0.17877 0.0679 0.88652 0.0
C904 C 0.1826 0.03129 0.87977 0.0
C905 C 0.21586 1.01391 0.88245 0.0
C906 C 0.07866 0.08492 0.89678 0.0
C907 C 0.07597 0.12209 0.89258 0.0
C908 C 0.11159 0.06724 0.89401 0.0
C909 C 0.14279 0.08607 0.88653 0.0
C910 C 0.13955 0.12302 0.88095 0.0
C911 C 0.10673 0.14082 0.88424 0.0
H912 H 0.86709 0.90672 0.62408 0.0
H913 H 0.95448 0.96762 0.65931 0.0
H914 H 0.90094 0.85195 0.63033 0.0
H915 H 0.98853 0.91221 0.66619 0.0
H916 H 0.05176 0.81349 0.6279 0.0
H917 H 0.01928 0.86939 0.63604 0.0
H918 H 0.92618 0.80921 0.66136 0.0
H919 H 0.9582 0.75365 0.65235 0.0
C920 C 0.89325 0.90831 0.63389 0.0
C921 C 0.90802 0.94163 0.64112 0.0
C922 C 0.91272 0.87674 0.63762 0.0
C923 C 0.9477 0.87745 0.64869 0.0
C924 C 0.96186 0.91064 0.65732 0.0
C925 C 0.94215 0.94238 0.65371 0.0
C926 C 0.02467 0.81227 0.63589 0.0
C927 C 1.00744 0.77911 0.63913 0.0
C928 C 1.00598 0.84436 0.6406 0.0
C929 C 0.96976 0.84396 0.64887 0.0
C930 C 0.95367 0.81068 0.6543 0.0
C931 C 0.97214 0.77875 0.64932 0.0
H932 H 0.60368 0.86817 0.64524 0.0
H933 H 0.55894 0.96612 0.61272 0.0
H934 H 0.66041 0.89836 0.65372 0.0
H935 H 0.61627 0.99587 0.6191 0.0
H936 H 0.72099 0.0487 0.64056 0.0
H937 H 0.66194 0.02117 0.6451 0.0
H938 H 0.70925 0.91727 0.63003 0.0
H939 H 0.76756 0.94423 0.62741 0.0
C940 C 0.60602 0.89623 0.63991 0.0
C941 C 0.57683 0.91465 0.62822 0.0
C942 C 0.63877 0.91361 0.64448 0.0
C943 C 0.6437 0.9497 0.63665 0.0
C944 C 0.61388 0.96836 0.62582 0.0
C945 C 0.58085 0.95118 0.62196 0.0
C946 C 0.71877 0.01989 0.63892 0.0
C947 C 0.74926 0.99888 0.63351 0.0
C948 C 0.68474 1.00402 0.64115 0.0
C949 C 0.6802 0.96674 0.63768 0.0
C950 C 0.71108 0.94583 0.63339 0.0
C951 C 0.74492 0.96153 0.63162 0.0
H952 H 0.58253 0.76973 0.61013 0.0
H953 H 0.49709 0.73547 0.66469 0.0
H954 H 0.61523 0.71577 0.61993 0.0
H955 H 0.53119 0.68118 0.67594 0.0
H956 H 0.5776 0.56887 0.65012 0.0
H957 H 0.54707 0.62621 0.65517 0.0
H958 H 0.6489 0.6806 0.64896 0.0
H959 H 0.67867 0.62329 0.64181 0.0
C960 C 0.57097 0.75091 0.6248 0.0
C961 C 0.53683 0.75686 0.63628 0.0
C962 C 0.59012 0.71984 0.63077 0.0
C963 C 0.57614 0.69362 0.64881 0.0
C964 C 0.54272 0.7004 0.66161 0.0
C965 C 0.52326 0.73171 0.65541 0.0
C966 C 0.59347 0.59311 0.65058 0.0
C967 C 0.63046 0.59172 0.64537 0.0
C968 C 0.57596 0.62613 0.65352 0.0
C969 C 0.59521 0.65847 0.6518 0.0
C970 C 0.63281 0.65654 0.64937 0.0
C971 C 0.65008 0.62366 0.64565 0.0
H972 H 0.97571 0.57609 0.65654 0.0
H973 H 0.91655 0.66719 0.62571 0.0
H974 H 0.91932 0.54398 0.664 0.0
H975 H 0.86086 0.63528 0.63236 0.0
H976 H 0.76124 0.58056 0.65393 0.0
H977 H 0.81809 0.6103 0.66285 0.0
H978 H 0.87457 0.51614 0.63432 0.0
H979 H 0.81744 0.4859 0.62644 0.0
C980 C 0.95069 0.58961 0.65206 0.0
C981 C 0.95064 0.62419 0.64047 0.0
C982 C 0.91837 0.57104 0.65597 0.0
C983 C 0.88535 0.58681 0.64861 0.0
C984 C 0.88548 0.62223 0.63867 0.0
C985 C 0.91758 0.64059 0.63468 0.0
C986 C 0.78581 0.56592 0.65012 0.0
C987 C 0.78479 0.53099 0.63918 0.0
C988 C 0.81849 0.58307 0.65507 0.0
C989 C 0.85111 0.56601 0.64877 0.0
C990 C 0.85011 0.53014 0.6396 0.0
C991 C 0.81729 0.51277 0.63499 0.0
H992 H 0.57997 0.12257 0.07515 0.0
H993 H 0.67148 0.18791 0.09674 0.0
H994 H 0.56093 0.16699 0.04108 0.0
H995 H 0.65143 0.23308 0.06267 0.0
H996 H 0.57016 0.31323 0.01118 0.0
H997 H 0.58799 0.27494 0.05091 0.0
H998 H 0.60009 0.18562 0.99432 0.0
H999 H 0.58334 0.22354 0.95483 0.0
C1000 C 0.59571 0.14671 0.07314 0.0
C1001 C 0.6275 0.15141 0.0887 0.0
C1002 C 0.58472 0.17215 0.05352 0.0
C1003 C 0.60479 0.2033 0.0492 0.0
C1004 C 0.63542 0.20928 0.06576 0.0
C1005 C 0.64685 0.18342 0.08523 0.0
C1006 C 0.57664 0.28541 1.00731 0.0
C1007 C 0.57525 0.27139 0.97988 0.0
C1008 C 0.58702 0.26366 0.02997 0.0
C1009 C 0.5953 0.22739 0.02559 0.0
C1010 C 0.59371 0.21346 0.99824 0.0
C1011 C 0.58417 0.23524 0.97565 0.0
H1012 H 0.25428 0.63159 0.96505 0.0
H1013 H 0.26481 0.52817 1.00387 0.0
H1014 H 0.28798 0.65872 1.00286 0.0
H1015 H 0.30264 0.55432 0.04052 0.0
H1016 H 0.35963 0.6124 0.11136 0.0
H1017 H 0.31437 0.58781 0.07957 0.0
H1018 H 0.3439 0.66673 0.01734 0.0
H1019 H 0.38609 0.69255 0.04982 0.0
C1020 C 0.26403 0.61466 0.98181 0.0
C1021 C 0.25685 0.5779 0.98162 0.0
C1022 C 0.28408 0.63007 1.00338 0.0
C1023 C 0.29931 0.60886 0.02474 0.0
C1024 C 0.29133 0.5719 0.02481 0.0
C1025 C 0.26983 0.5567 1.00369 0.0
C1026 C 0.35561 0.62481 0.09106 0.0
C1027 C 0.37597 0.65474 0.08327 0.0
C1028 C 0.32996 0.61047 0.0726 0.0
C1029 C 0.32487 0.6251 0.04557 0.0
C1030 C 0.34558 0.65512 0.03807 0.0
C1031 C 0.37022 0.67 0.05676 0.0
H1032 H 0.82879 0.3539 0.07484 0.0
H1033 H 0.93642 0.37809 0.10235 0.0
H1034 H 0.85229 0.31008 0.04182 0.0
H1035 H 0.95994 0.33437 0.06892 0.0
H1036 H 0.98725 0.23506 0.01402 0.0
H1037 H 0.96355 0.27018 0.05344 0.0
H1038 H 0.8854 0.31793 0.99803 0.0
H1039 H 0.90859 0.28313 0.95911 0.0
C1040 C 0.85744 0.34943 0.07427 0.0
C1041 C 0.88067 0.36977 0.09123 0.0
C1042 C 0.87095 0.32445 0.05514 0.0
C1043 C 0.90806 0.3191 0.05237 0.0
C1044 C 0.93122 0.33772 0.07057 0.0
C1045 C 0.91769 0.36281 0.08975 0.0
C1046 C 0.96495 0.253 0.01034 0.0
C1047 C 0.94999 0.25634 0.98331 0.0
C1048 C 0.95145 0.27318 0.03289 0.0
C1049 C 0.92238 0.29669 0.02897 0.0
C1050 C 0.90737 0.29968 1.00199 0.0
C1051 C 0.92098 0.2799 0.97954 0.0
H1052 H 0.2832 0.99757 1.00255 0.0
H1053 H 0.27316 0.89327 0.9641 0.0
H1054 H 0.24543 0.97821 0.04116 0.0
H1055 H 0.23436 0.87426 1.00233 0.0
H1056 H 0.17892 0.8421 0.08265 0.0
H1057 H 0.22773 0.85986 0.05146 0.0
H1058 H 0.18343 0.96654 0.04688 0.0
H1059 H 0.13586 0.94924 0.07852 0.0
C1060 C 0.273 0.97046 1.00233 0.0
C1061 C 0.28088 0.94716 0.97998 0.0
C1062 C 0.25119 0.95938 0.02447 0.0
C1063 C 0.23641 0.92477 0.02478 0.0
C1064 C 0.24548 0.90098 1.00299 0.0
C1065 C 0.26754 0.912 0.98091 0.0
C1066 C 0.18019 0.86956 0.07551 0.0
C1067 C 0.15338 0.89419 0.083 0.0
C1068 C 0.20792 0.87964 0.05736 0.0
C1069 C 0.20948 0.9146 0.04643 0.0
C1070 C 0.1835 0.93953 0.05505 0.0
C1071 C 0.15593 0.92949 0.07309 0.0
H1072 H 0.07583 0.90611 0.44679 0.0
H1073 H 0.17624 0.85225 0.43128 0.0
H1074 H 0.05892 0.85956 0.47953 0.0
H1075 H 0.15866 0.80463 0.46352 0.0
H1076 H 0.13519 0.75497 0.55061 0.0
H1077 H 0.15155 0.79584 0.51303 0.0
H1078 H 0.04129 0.79915 0.48553 0.0
H1079 H 0.02475 0.75913 0.52364 0.0
C1080 C 0.09409 0.88394 0.44994 0.0
C1081 C 0.12752 0.88311 0.43637 0.0
C1082 C 0.08424 0.85699 0.46868 0.0
C1083 C 0.1074 0.82819 0.47438 0.0
C1084 C 0.14031 0.82662 0.46001 0.0
C1085 C 0.15025 0.85374 0.44124 0.0
C1086 C 0.11441 0.76425 0.53648 0.0
C1087 C 0.07853 0.75393 0.54042 0.0
C1088 C 0.12388 0.78755 0.51472 0.0
C1089 C 0.09778 0.80108 0.49618 0.0
C1090 C 0.06207 0.78988 0.49964 0.0
C1091 C 0.05258 0.76672 0.52148 0.0
H1092 H 0.74492 0.02546 0.54317 0.0
H1093 H 0.80718 0.12171 0.53357 0.0
H1094 H 0.70294 0.04645 0.50785 0.0
H1095 H 0.76682 0.1419 0.49657 0.0
H1096 H 0.6653 0.18757 0.45587 0.0
H1097 H 0.71207 0.16618 0.48737 0.0
H1098 H 0.68865 0.05723 0.46244 0.0
H1099 H 0.6402 0.07889 0.43281 0.0
C1100 C 0.75007 0.05078 0.53293 0.0
C1101 C 0.77927 0.07195 0.54116 0.0
C1102 C 0.72607 0.06287 0.51241 0.0
C1103 C 0.73111 0.0961 0.49898 0.0
C1104 C 0.76125 0.11663 0.50668 0.0
C1105 C 0.78471 0.10493 0.52775 0.0
C1106 C 0.67063 0.15911 0.45692 0.0
C1107 C 0.64915 0.1349 0.44195 0.0
C1108 C 0.6976 0.14668 0.47496 0.0
C1109 C 0.70432 0.1097 0.47797 0.0
C1110 C 0.68386 0.08575 0.46162 0.0
C1111 C 0.6563 0.09816 0.44424 0.0
H1112 H 0.4507 0.72734 0.56529 0.0
H1113 H 0.46416 0.8127 0.50527 0.0
H1114 H 0.43486 0.68643 0.52744 0.0
H1115 H 0.44742 0.77135 0.46711 0.0
H1116 H 0.36812 0.68458 0.42085 0.0
H1117 H 0.3877 0.73124 0.45391 0.0
H1118 H 0.47124 0.66148 0.4842 0.0
H1119 H 0.45245 0.61538 0.45132 0.0
C1120 C 0.45017 0.73745 0.544 0.0
C1121 C 0.45885 0.7733 0.5383 0.0
C1122 C 0.4412 0.71393 0.52231 0.0
C1123 C 0.44002 0.72569 0.49435 0.0
C1124 C 0.44809 0.76165 0.48851 0.0
C1125 C 0.45785 0.78518 0.51029 0.0
C1126 C 0.39108 0.67948 0.43419 0.0
C1127 C 0.4086 0.64611 0.43337 0.0
C1128 C 0.4023 0.70622 0.45304 0.0
C1129 C 0.43082 0.69983 0.47171 0.0
C1130 C 0.44904 0.66704 0.47018 0.0
C1131 C 0.43827 0.64067 0.45117 0.0
H1132 H 0.90873 0.45495 0.45281 0.0
H1133 H 0.85187 0.35668 0.43575 0.0
H1134 H 0.86111 0.47421 0.48374 0.0
H1135 H 0.80306 0.37676 0.46608 0.0
H1136 H 0.75064 0.40312 0.55174 0.0
H1137 H 0.79174 0.3847 0.51495 0.0
H1138 H 0.80148 0.49459 0.48809 0.0
H1139 H 0.76124 0.51318 0.52561 0.0
C1140 C 0.88575 0.4376 0.45528 0.0
C1141 C 0.88441 0.40403 0.44189 0.0
C1142 C 0.85813 0.44889 0.47293 0.0
C1143 C 0.82807 0.4271 0.47762 0.0
C1144 C 0.82601 0.39407 0.46336 0.0
C1145 C 0.85385 0.38266 0.44572 0.0
C1146 C 0.76132 0.4234 0.53789 0.0
C1147 C 0.75287 0.45976 0.54193 0.0
C1148 C 0.78477 0.41275 0.51656 0.0
C1149 C 0.80028 0.4381 0.49852 0.0
C1150 C 0.79068 0.47432 0.50188 0.0
C1151 C 0.76739 0.48501 0.52334 0.0
H1152 H 0.49925 0.74177 1.00796 0.0
H1153 H 0.4091 0.7776 0.05715 0.0
H1154 H 0.47811 0.7781 0.96836 0.0
H1155 H 0.38802 0.81343 0.01778 0.0
H1156 H 0.34408 0.85623 0.93629 0.0
H1157 H 0.36375 0.80908 0.96848 0.0
H1158 H 0.47301 0.84493 0.96021 0.0
H1159 H 0.45347 0.89196 0.92825 0.0
C1160 C 0.47479 0.75707 0.01023 0.0
C1161 C 0.45609 0.7571 0.03582 0.0
C1162 C 0.46273 0.77792 0.9876 0.0
C1163 C 0.43133 0.79861 0.9899 0.0
C1164 C 0.41205 0.79753 0.01516 0.0
C1165 C 0.42437 0.77725 0.03785 0.0
C1166 C 0.37239 0.85342 0.94074 0.0
C1167 C 0.39717 0.8779 0.92971 0.0
C1168 C 0.38363 0.82663 0.95938 0.0
C1169 C 0.41993 0.8234 0.96705 0.0
C1170 C 0.44493 0.84647 0.9546 0.0
C1171 C 0.43367 0.87352 0.93633 0.0
H1172 H 0.65759 0.432 0.91912 0.0
H1173 H 0.67549 0.32471 0.94979 0.0
H1174 H 0.70183 0.4547 0.9525 0.0
H1175 H 0.71988 0.3474 0.98279 0.0
H1176 H 0.7478 0.40753 0.06424 0.0
H1177 H 0.71292 0.38338 0.02556 0.0
H1178 H 0.76587 0.45515 0.96819 0.0
H1179 H 0.80095 0.47979 1.00725 0.0
C1180 C 0.67155 0.41312 0.93246 0.0
C1181 C 0.66271 0.37654 0.93189 0.0
C1182 C 0.69697 0.42616 0.95158 0.0
C1183 C 0.714 0.40292 0.97057 0.0
C1184 C 0.70674 0.36609 0.96879 0.0
C1185 C 0.68143 0.35306 0.94971 0.0
C1186 C 0.75216 0.41823 0.04341 0.0
C1187 C 0.77705 0.44579 0.03892 0.0
C1188 C 0.73235 0.40409 0.02114 0.0
C1189 C 0.73674 0.41718 0.99373 0.0
C1190 C 0.76177 0.44462 0.9891 0.0
C1191 C 0.78192 0.45863 0.01145 0.0
H1192 H 0.13398 0.80046 0.03631 0.0
H1193 H 0.03307 0.7445 0.03315 0.0
H1194 H 0.15635 0.76386 0.99791 0.0
H1195 H 0.056 0.70625 0.99576 0.0
H1196 H 0.09754 0.65297 0.91752 0.0
H1197 H 0.07366 0.69828 0.9493 0.0
H1198 H 0.17757 0.70732 0.98893 0.0
H1199 H 0.20153 0.66402 0.95626 0.0
C1200 C 0.11663 0.78012 0.02746 0.0
C1201 C 0.08183 0.77523 0.0379 0.0
C1202 C 0.12953 0.75887 1.00549 0.0
C1203 C 0.1083 0.73153 0.9937 0.0
C1204 C 0.07312 0.72723 1.00384 0.0
C1205 C 0.05997 0.74903 0.02548 0.0
C1206 C 0.11542 0.66524 0.93265 0.0
C1207 C 0.15154 0.65468 0.93427 0.0
C1208 C 0.10161 0.69097 0.95119 0.0
C1209 C 0.12343 0.70652 0.97209 0.0
C1210 C 0.15982 0.69667 0.973 0.0
C1211 C 0.17367 0.67143 0.95425 0.0
H1212 H 0.77409 0.03511 0.03403 0.0
H1213 H 0.72431 0.13892 0.04142 0.0
H1214 H 0.81215 0.05755 0.99653 0.0
H1215 H 0.76104 0.16105 1.00307 0.0
H1216 H 0.86383 0.2014 0.96178 0.0
H1217 H 0.81956 0.17869 0.9943 0.0
H1218 H 0.81886 0.07749 0.95023 0.0
H1219 H 0.86459 0.09993 0.91832 0.0
C1220 C 0.77076 0.06255 0.02725 0.0
C1221 C 0.74634 0.08527 0.04092 0.0
C1222 C 0.79252 0.07547 1.00557 0.0
C1223 C 0.7901 0.11136 0.99668 0.0
C1224 C 0.76448 0.13356 1.00965 0.0
C1225 C 0.74314 0.12079 0.03158 0.0
C1226 C 0.85386 0.17447 0.95868 0.0
C1227 C 0.86788 0.15255 0.93733 0.0
C1228 C 0.82821 0.16138 0.97739 0.0
C1229 C 0.81543 0.12604 0.97518 0.0
C1230 C 0.82842 0.10458 0.95307 0.0
C1231 C 0.85443 0.11759 0.9345 0.0
H1232 H 0.89792 0.27799 0.46986 0.0
H1233 H 1.0085 0.26647 0.49511 0.0
H1234 H 0.88022 0.23534 0.50593 0.0
H1235 H 0.99071 0.22458 0.53156 0.0
H1236 H 0.952 0.1169 0.56596 0.0
H1237 H 0.96972 0.16434 0.53428 0.0
H1238 H 0.87441 0.2238 0.55577 0.0
H1239 H 0.85609 0.17557 0.58728 0.0
C1240 C 0.91845 0.26668 0.48327 0.0
C1241 C 0.95473 0.2755 0.4793 0.0
C1242 C 0.90824 0.24235 0.50414 0.0
C1243 C 0.93401 0.22621 0.52164 0.0
C1244 C 0.97015 0.2359 0.51819 0.0
C1245 C 0.98036 0.26014 0.49732 0.0
C1246 C 0.9349 0.14022 0.56428 0.0
C1247 C 0.90259 0.14232 0.57935 0.0
C1248 C 0.94522 0.16764 0.54611 0.0
C1249 C 0.92359 0.19809 0.54238 0.0
C1250 C 0.89158 0.2006 0.55786 0.0
C1251 C 0.88122 0.17308 0.57615 0.0
H1252 H 0.36849 0.83199 0.5559 0.0
H1253 H 0.36471 0.93183 0.60155 0.0
H1254 H 0.32458 0.85481 0.52273 0.0
H1255 H 0.31962 0.95429 0.56896 0.0
H1256 H 0.27688 0.99896 0.48533 0.0
H1257 H 0.31514 0.97555 0.52257 0.0
H1258 H 0.26536 0.87181 0.5135 0.0
H1259 H 0.2283 0.89493 0.47556 0.0
C1260 C 0.35758 0.8585 0.55932 0.0
C1261 C 0.37021 0.88003 0.58145 0.0
C1262 C 0.33223 0.87166 0.54024 0.0
C1263 C 0.31851 0.90663 0.54288 0.0
C1264 C 0.33003 0.92755 0.5658 0.0
C1265 C 0.35565 0.9145 0.58473 0.0
C1266 C 0.27398 0.97122 0.49143 0.0
C1267 C 0.24975 0.94878 0.47726 0.0
C1268 C 0.2958 0.95776 0.51296 0.0
C1269 C 0.29364 0.9216 0.52114 0.0
C1270 C 0.26848 0.89954 0.50749 0.0
C1271 C 0.24702 0.91288 0.48577 0.0
H1272 H 0.58021 0.41867 0.56945 0.0
H1273 H 0.67447 0.3569 0.59012 0.0
H1274 H 0.56137 0.37262 0.5367 0.0
H1275 H 0.65493 0.31002 0.55773 0.0
H1276 H 0.63217 0.25886 0.47104 0.0
H1277 H 0.64983 0.30042 0.50796 0.0
H1278 H 0.53897 0.31323 0.5316 0.0
H1279 H 0.5212 0.2724 0.49414 0.0
C1280 C 0.59666 0.39494 0.56744 0.0
C1281 C 0.62895 0.39162 0.58254 0.0
C1282 C 0.58569 0.36832 0.54865 0.0
C1283 C 0.60658 0.33747 0.54442 0.0
C1284 C 0.63837 0.33361 0.56013 0.0
C1285 C 0.64943 0.36036 0.57894 0.0
C1286 C 0.61151 0.27044 0.48414 0.0
C1287 C 0.57518 0.26245 0.47936 0.0
C1288 C 0.62171 0.29411 0.50553 0.0
C1289 C 0.59588 0.31039 0.52283 0.0
C1290 C 0.5596 0.30172 0.51845 0.0
C1291 C 0.54939 0.27812 0.497 0.0
H1292 H 0.12613 0.58065 0.56289 0.0
H1293 H 0.18442 0.67616 0.58581 0.0
H1294 H 0.17451 0.56288 0.53197 0.0
H1295 H 0.23349 0.65785 0.55502 0.0
H1296 H 0.28782 0.63475 0.46865 0.0
H1297 H 0.24546 0.65233 0.50502 0.0
H1298 H 0.23534 0.54194 0.53031 0.0
H1299 H 0.27705 0.52424 0.49359 0.0
C1300 C 0.14953 0.59767 0.5617 0.0
C1301 C 0.15127 0.62989 0.57698 0.0
C1302 C 0.17748 0.58731 0.544 0.0
C1303 C 0.20807 0.60884 0.54095 0.0
C1304 C 0.21021 0.64076 0.55663 0.0
C1305 C 0.18218 0.65113 0.57447 0.0
C1306 C 0.27685 0.61422 0.48213 0.0
C1307 C 0.28567 0.57798 0.47791 0.0
C1308 C 0.25265 0.62437 0.50314 0.0
C1309 C 0.23663 0.59856 0.52051 0.0
C1310 C 0.24659 0.5625 0.51702 0.0
C1311 C 0.27075 0.55235 0.49602 0.0
loop_
_geom_bond_atom_site_label_1
_geom_bond_atom_site_label_2
_geom_bond_distance
_geom_bond_site_symmetry_2
_ccdc_geom_bond_type
Fe0 O2 1.918 1_565 S
Fe0 O5 1.997 1_565 S
Fe0 O6 2.002 . S
Fe0 O11 1.976 . S
Fe0 O14 1.996 . S
Fe1 O2 1.918 . S
Fe1 O9 1.997 . S
Fe1 O12 1.996 1_545 S
Fe1 O16 1.976 . S
Fe1 O19 2.002 . S
O2 Fe0 1.918 1_545 S
O2 Fe1 1.918 . S
O2 Fe3 1.918 . S
Fe3 O2 1.918 . S
Fe3 O4 2.002 . S
Fe3 O13 1.976 . S
Fe3 O17 1.996 . S
Fe3 O20 1.997 . S
O4 Fe3 2.002 . S
O4 C21 1.295 . S
O5 Fe0 1.997 1_545 S
O5 C21 1.235 . S
O6 Fe0 2.002 . S
O6 C7 1.295 1_565 S
C7 O6 1.295 1_545 S
C7 O9 1.235 . S
C8 O13 1.301 . S
C8 O14 1.246 1_545 S
O9 Fe1 1.997 . S
O9 C7 1.235 . S
C10 O16 1.287 . S
C10 O17 1.255 . S
O11 Fe0 1.976 . S
O11 C18 1.287 . S
O12 Fe1 1.996 1_565 S
O12 C18 1.255 . S
O13 Fe3 1.976 . S
O13 C8 1.301 . S
O14 Fe0 1.996 . S
O14 C8 1.246 1_565 S
C15 O19 1.295 . S
C15 O20 1.235 . S
O16 Fe1 1.976 . S
O16 C10 1.287 . S
O17 Fe3 1.996 . S
O17 C10 1.255 . S
C18 O11 1.287 . S
C18 O12 1.255 . S
O19 Fe1 2.002 . S
O19 C15 1.295 . S
O20 Fe3 1.997 . S
O20 C15 1.235 . S
C21 O4 1.295 . S
C21 O5 1.235 . S
Fe22 O24 1.918 . S
Fe22 O27 1.997 . S
Fe22 O28 2.002 . S
Fe22 O33 1.976 . S
Fe22 O36 1.996 . S
Fe23 O24 1.918 . S
Fe23 O31 1.997 . S
Fe23 O34 1.996 . S
Fe23 O38 1.976 . S
Fe23 O41 2.002 . S
O24 Fe22 1.918 . S
O24 Fe23 1.918 . S
O24 Fe25 1.918 . S
Fe25 O24 1.918 . S
Fe25 O26 2.002 . S
Fe25 O35 1.976 . S
Fe25 O39 1.996 . S
Fe25 O42 1.997 . S
O26 Fe25 2.002 . S
O26 C43 1.295 . S
O27 Fe22 1.997 . S
O27 C43 1.235 . S
O28 Fe22 2.002 . S
O28 C29 1.295 . S
C29 O28 1.295 . S
C29 O31 1.235 . S
C30 O35 1.287 . S
C30 O36 1.255 . S
O31 Fe23 1.997 . S
O31 C29 1.235 . S
C32 O38 1.287 . S
C32 O39 1.255 . S
O33 Fe22 1.976 . S
O33 C40 1.287 . S
O34 Fe23 1.996 . S
O34 C40 1.255 . S
O35 Fe25 1.976 . S
O35 C30 1.287 . S
O36 Fe22 1.996 . S
O36 C30 1.255 . S
C37 O41 1.295 . S
C37 O42 1.235 . S
O38 Fe23 1.976 . S
O38 C32 1.287 . S
O39 Fe25 1.996 . S
O39 C32 1.255 . S
C40 O33 1.287 . S
C40 O34 1.255 . S
O41 Fe23 2.002 . S
O41 C37 1.295 . S
O42 Fe25 1.997 . S
O42 C37 1.235 . S
C43 O26 1.295 . S
C43 O27 1.235 . S
Fe44 O46 1.918 . S
Fe44 O49 1.997 . S
Fe44 O50 2.002 . S
Fe44 O55 1.976 . S
Fe44 O58 1.996 . S
Fe45 O46 1.918 . S
Fe45 O53 1.997 . S
Fe45 O56 1.996 . S
Fe45 O60 1.976 . S
Fe45 O63 2.002 . S
O46 Fe44 1.918 . S
O46 Fe45 1.918 . S
O46 Fe47 1.918 . S
Fe47 O46 1.918 . S
Fe47 O48 2.002 . S
Fe47 O57 1.976 . S
Fe47 O61 1.996 . S
Fe47 O64 1.997 . S
O48 Fe47 2.002 . S
O48 C65 1.295 . S
O49 Fe44 1.997 . S
O49 C65 1.235 . S
O50 Fe44 2.002 . S
O50 C51 1.295 . S
C51 O50 1.295 . S
C51 O53 1.235 . S
C52 O57 1.287 . S
C52 O58 1.255 . S
O53 Fe45 1.997 . S
O53 C51 1.235 . S
C54 O60 1.287 . S
C54 O61 1.255 . S
O55 Fe44 1.976 . S
O55 C62 1.287 . S
O56 Fe45 1.996 . S
O56 C62 1.255 . S
O57 Fe47 1.976 . S
O57 C52 1.287 . S
O58 Fe44 1.996 . S
O58 C52 1.255 . S
C59 O63 1.295 . S
C59 O64 1.235 . S
O60 Fe45 1.976 . S
O60 C54 1.287 . S
O61 Fe47 1.996 . S
O61 C54 1.255 . S
C62 O55 1.287 . S
C62 O56 1.255 . S
O63 Fe45 2.002 . S
O63 C59 1.295 . S
O64 Fe47 1.997 . S
O64 C59 1.235 . S
C65 O48 1.295 . S
C65 O49 1.235 . S
Fe66 O68 1.918 1_655 S
Fe66 O71 1.997 1_655 S
Fe66 O72 2.002 . S
Fe66 O77 1.976 . S
Fe66 O80 1.996 . S
Fe67 O68 1.918 . S
Fe67 O75 1.997 . S
Fe67 O78 1.996 1_455 S
Fe67 O82 1.976 . S
Fe67 O85 2.002 . S
O68 Fe66 1.918 1_455 S
O68 Fe67 1.918 . S
O68 Fe69 1.918 . S
Fe69 O68 1.918 . S
Fe69 O70 2.002 . S
Fe69 O79 1.976 . S
Fe69 O83 1.996 . S
Fe69 O86 1.997 . S
O70 Fe69 2.002 . S
O70 C87 1.295 . S
O71 Fe66 1.997 1_455 S
O71 C87 1.235 . S
O72 Fe66 2.002 . S
O72 C73 1.295 1_655 S
C73 O72 1.295 1_455 S
C73 O75 1.235 . S
C74 O79 1.301 . S
C74 O80 1.246 1_455 S
O75 Fe67 1.997 . S
O75 C73 1.235 . S
C76 O82 1.287 . S
C76 O83 1.255 . S
O77 Fe66 1.976 . S
O77 C84 1.287 . S
O78 Fe67 1.996 1_655 S
O78 C84 1.255 . S
O79 Fe69 1.976 . S
O79 C74 1.301 . S
O80 Fe66 1.996 . S
O80 C74 1.246 1_655 S
C81 O85 1.295 . S
C81 O86 1.235 . S
O82 Fe67 1.976 . S
O82 C76 1.287 . S
O83 Fe69 1.996 . S
O83 C76 1.255 . S
C84 O77 1.287 . S
C84 O78 1.255 . S
O85 Fe67 2.002 . S
O85 C81 1.295 . S
O86 Fe69 1.997 . S
O86 C81 1.235 . S
C87 O70 1.295 . S
C87 O71 1.235 . S
Fe88 O90 1.918 1_545 S
Fe88 O93 1.997 1_545 S
Fe88 O94 2.002 . S
Fe88 O99 1.976 . S
Fe88 O102 1.996 . S
Fe89 O90 1.918 . S
Fe89 O97 1.997 . S
Fe89 O100 1.996 1_565 S
Fe89 O104 1.976 . S
Fe89 O107 2.002 . S
O90 Fe88 1.918 1_565 S
O90 Fe89 1.918 . S
O90 Fe91 1.918 . S
Fe91 O90 1.918 . S
Fe91 O92 2.002 . S
Fe91 O101 1.976 . S
Fe91 O105 1.996 . S
Fe91 O108 1.997 . S
O92 Fe91 2.002 . S
O92 C109 1.295 . S
O93 Fe88 1.997 1_565 S
O93 C109 1.235 . S
O94 Fe88 2.002 . S
O94 C95 1.295 1_545 S
C95 O94 1.295 1_565 S
C95 O97 1.235 . S
C96 O101 1.301 . S
C96 O102 1.246 1_565 S
O97 Fe89 1.997 . S
O97 C95 1.235 . S
C98 O104 1.287 . S
C98 O105 1.255 . S
O99 Fe88 1.976 . S
O99 C106 1.287 . S
O100 Fe89 1.996 1_545 S
O100 C106 1.255 . S
O101 Fe91 1.976 . S
O101 C96 1.301 . S
O102 Fe88 1.996 . S
O102 C96 1.246 1_545 S
C103 O107 1.295 . S
C103 O108 1.235 . S
O104 Fe89 1.976 . S
O104 C98 1.287 . S
O105 Fe91 1.996 . S
O105 C98 1.255 . S
C106 O99 1.287 . S
C106 O100 1.255 . S
O107 Fe89 2.002 . S
O107 C103 1.295 . S
O108 Fe91 1.997 . S
O108 C103 1.235 . S
C109 O92 1.295 . S
C109 O93 1.235 . S
Fe110 O112 1.918 . S
Fe110 O115 1.997 . S
Fe110 O116 2.002 . S
Fe110 O121 1.976 . S
Fe110 O124 1.996 . S
Fe111 O112 1.918 . S
Fe111 O119 1.997 . S
Fe111 O122 1.996 . S
Fe111 O126 1.976 . S
Fe111 O129 2.002 . S
O112 Fe110 1.918 . S
O112 Fe111 1.918 . S
O112 Fe113 1.918 . S
Fe113 O112 1.918 . S
Fe113 O114 2.002 . S
Fe113 O123 1.976 . S
Fe113 O127 1.996 . S
Fe113 O130 1.997 . S
O114 Fe113 2.002 . S
O114 C131 1.295 . S
O115 Fe110 1.997 . S
O115 C131 1.235 . S
O116 Fe110 2.002 . S
O116 C117 1.295 . S
C117 O116 1.295 . S
C117 O119 1.235 . S
C118 O123 1.287 . S
C118 O124 1.255 . S
O119 Fe111 1.997 . S
O119 C117 1.235 . S
C120 O126 1.287 . S
C120 O127 1.255 . S
O121 Fe110 1.976 . S
O121 C128 1.287 . S
O122 Fe111 1.996 . S
O122 C128 1.255 . S
O123 Fe113 1.976 . S
O123 C118 1.287 . S
O124 Fe110 1.996 . S
O124 C118 1.255 . S
C125 O129 1.295 . S
C125 O130 1.235 . S
O126 Fe111 1.976 . S
O126 C120 1.287 . S
O127 Fe113 1.996 . S
O127 C120 1.255 . S
C128 O121 1.287 . S
C128 O122 1.255 . S
O129 Fe111 2.002 . S
O129 C125 1.295 . S
O130 Fe113 1.997 . S
O130 C125 1.235 . S
C131 O114 1.295 . S
C131 O115 1.235 . S
Fe132 O134 1.918 . S
Fe132 O137 1.997 . S
Fe132 O138 2.002 . S
Fe132 O143 1.976 . S
Fe132 O146 1.996 . S
Fe133 O134 1.918 . S
Fe133 O141 1.997 . S
Fe133 O144 1.996 . S
Fe133 O148 1.976 . S
Fe133 O151 2.002 . S
O134 Fe132 1.918 . S
O134 Fe133 1.918 . S
O134 Fe135 1.918 . S
Fe135 O134 1.918 . S
Fe135 O136 2.002 . S
Fe135 O145 1.976 . S
Fe135 O149 1.996 . S
Fe135 O152 1.997 . S
O136 Fe135 2.002 . S
O136 C153 1.295 . S
O137 Fe132 1.997 . S
O137 C153 1.235 . S
O138 Fe132 2.002 . S
O138 C139 1.295 . S
C139 O138 1.295 . S
C139 O141 1.235 . S
C140 O145 1.287 . S
C140 O146 1.255 . S
O141 Fe133 1.997 . S
O141 C139 1.235 . S
C142 O148 1.287 . S
C142 O149 1.255 . S
O143 Fe132 1.976 . S
O143 C150 1.287 . S
O144 Fe133 1.996 . S
O144 C150 1.255 . S
O145 Fe135 1.976 . S
O145 C140 1.287 . S
O146 Fe132 1.996 . S
O146 C140 1.255 . S
C147 O151 1.295 . S
C147 O152 1.235 . S
O148 Fe133 1.976 . S
O148 C142 1.287 . S
O149 Fe135 1.996 . S
O149 C142 1.255 . S
C150 O143 1.287 . S
C150 O144 1.255 . S
O151 Fe133 2.002 . S
O151 C147 1.295 . S
O152 Fe135 1.997 . S
O152 C147 1.235 . S
C153 O136 1.295 . S
C153 O137 1.235 . S
Fe154 O156 1.918 . S
Fe154 O159 1.997 . S
Fe154 O160 2.002 . S
Fe154 O165 1.976 . S
Fe154 O168 1.996 1_655 S
Fe155 O156 1.918 . S
Fe155 O163 1.997 . S
Fe155 O166 1.996 . S
Fe155 O170 1.976 . S
Fe155 O173 2.002 . S
O156 Fe154 1.918 . S
O156 Fe155 1.918 . S
O156 Fe157 1.918 1_655 S
Fe157 O156 1.918 1_455 S
Fe157 O158 2.002 . S
Fe157 O167 1.976 . S
Fe157 O171 1.996 . S
Fe157 O174 1.997 1_455 S
O158 Fe157 2.002 . S
O158 C175 1.295 1_455 S
O159 Fe154 1.997 . S
O159 C175 1.235 . S
O160 Fe154 2.002 . S
O160 C161 1.295 . S
C161 O160 1.295 . S
C161 O163 1.235 . S
C162 O167 1.287 . S
C162 O168 1.255 . S
O163 Fe155 1.997 . S
O163 C161 1.235 . S
C164 O170 1.301 . S
C164 O171 1.246 1_655 S
O165 Fe154 1.976 . S
O165 C172 1.287 . S
O166 Fe155 1.996 . S
O166 C172 1.255 . S
O167 Fe157 1.976 . S
O167 C162 1.287 . S
O168 Fe154 1.996 1_455 S
O168 C162 1.255 . S
C169 O173 1.295 . S
C169 O174 1.235 . S
O170 Fe155 1.976 . S
O170 C164 1.301 . S
O171 Fe157 1.996 . S
O171 C164 1.246 1_455 S
C172 O165 1.287 . S
C172 O166 1.255 . S
O173 Fe155 2.002 . S
O173 C169 1.295 . S
O174 Fe157 1.997 1_655 S
O174 C169 1.235 . S
C175 O158 1.295 1_655 S
C175 O159 1.235 . S
Fe176 O178 1.918 . S
Fe176 O181 1.997 . S
Fe176 O182 2.002 . S
Fe176 O187 1.976 . S
Fe176 O190 1.996 . S
Fe177 O178 1.918 . S
Fe177 O185 1.997 . S
Fe177 O188 1.996 . S
Fe177 O192 1.976 1_565 S
Fe177 O195 2.002 . S
O178 Fe176 1.918 . S
O178 Fe177 1.918 . S
O178 Fe179 1.918 1_565 S
Fe179 O178 1.918 1_545 S
Fe179 O180 2.002 1_545 S
Fe179 O189 1.976 . S
Fe179 O193 1.996 . S
Fe179 O196 1.997 . S
O180 Fe179 2.002 1_565 S
O180 C197 1.295 . S
O181 Fe176 1.997 . S
O181 C197 1.235 . S
O182 Fe176 2.002 . S
O182 C183 1.295 . S
C183 O182 1.295 . S
C183 O185 1.235 . S
C184 O189 1.287 1_565 S
C184 O190 1.255 . S
O185 Fe177 1.997 . S
O185 C183 1.235 . S
C186 O192 1.287 . S
C186 O193 1.255 . S
O187 Fe176 1.976 . S
O187 C194 1.287 . S
O188 Fe177 1.996 . S
O188 C194 1.255 . S
O189 Fe179 1.976 . S
O189 C184 1.287 1_545 S
O190 Fe176 1.996 . S
O190 C184 1.255 . S
C191 O195 1.295 . S
C191 O196 1.235 1_565 S
O192 Fe177 1.976 1_545 S
O192 C186 1.287 . S
O193 Fe179 1.996 . S
O193 C186 1.255 . S
C194 O187 1.287 . S
C194 O188 1.255 . S
O195 Fe177 2.002 . S
O195 C191 1.295 . S
O196 Fe179 1.997 . S
O196 C191 1.235 1_545 S
C197 O180 1.295 . S
C197 O181 1.235 . S
Fe198 O200 1.918 . S
Fe198 O203 1.997 . S
Fe198 O204 2.002 . S
Fe198 O209 1.976 . S
Fe198 O212 1.996 . S
Fe199 O200 1.918 . S
Fe199 O207 1.997 . S
Fe199 O210 1.996 . S
Fe199 O214 1.976 . S
Fe199 O217 2.002 . S
O200 Fe198 1.918 . S
O200 Fe199 1.918 . S
O200 Fe201 1.918 . S
Fe201 O200 1.918 . S
Fe201 O202 2.002 . S
Fe201 O211 1.976 . S
Fe201 O215 1.996 . S
Fe201 O218 1.997 . S
O202 Fe201 2.002 . S
O202 C219 1.295 . S
O203 Fe198 1.997 . S
O203 C219 1.235 . S
O204 Fe198 2.002 . S
O204 C205 1.295 . S
C205 O204 1.295 . S
C205 O207 1.235 . S
C206 O211 1.287 . S
C206 O212 1.255 . S
O207 Fe199 1.997 . S
O207 C205 1.235 . S
C208 O214 1.287 . S
C208 O215 1.255 . S
O209 Fe198 1.976 . S
O209 C216 1.287 . S
O210 Fe199 1.996 . S
O210 C216 1.255 . S
O211 Fe201 1.976 . S
O211 C206 1.287 . S
O212 Fe198 1.996 . S
O212 C206 1.255 . S
C213 O217 1.295 . S
C213 O218 1.235 . S
O214 Fe199 1.976 . S
O214 C208 1.287 . S
O215 Fe201 1.996 . S
O215 C208 1.255 . S
C216 O209 1.287 . S
C216 O210 1.255 . S
O217 Fe199 2.002 . S
O217 C213 1.295 . S
O218 Fe201 1.997 . S
O218 C213 1.235 . S
C219 O202 1.295 . S
C219 O203 1.235 . S
Fe220 O222 1.918 . S
Fe220 O225 1.997 . S
Fe220 O226 2.002 . S
Fe220 O231 1.976 . S
Fe220 O234 1.996 . S
Fe221 O222 1.918 . S
Fe221 O229 1.997 . S
Fe221 O232 1.996 . S
Fe221 O236 1.976 . S
Fe221 O239 2.002 . S
O222 Fe220 1.918 . S
O222 Fe221 1.918 . S
O222 Fe223 1.918 . S
Fe223 O222 1.918 . S
Fe223 O224 2.002 . S
Fe223 O233 1.976 . S
Fe223 O237 1.996 . S
Fe223 O240 1.997 . S
O224 Fe223 2.002 . S
O224 C241 1.295 . S
O225 Fe220 1.997 . S
O225 C241 1.235 . S
O226 Fe220 2.002 . S
O226 C227 1.295 . S
C227 O226 1.295 . S
C227 O229 1.235 . S
C228 O233 1.287 . S
C228 O234 1.255 . S
O229 Fe221 1.997 . S
O229 C227 1.235 . S
C230 O236 1.287 . S
C230 O237 1.255 . S
O231 Fe220 1.976 . S
O231 C238 1.287 . S
O232 Fe221 1.996 . S
O232 C238 1.255 . S
O233 Fe223 1.976 . S
O233 C228 1.287 . S
O234 Fe220 1.996 . S
O234 C228 1.255 . S
C235 O239 1.295 . S
C235 O240 1.235 . S
O236 Fe221 1.976 . S
O236 C230 1.287 . S
O237 Fe223 1.996 . S
O237 C230 1.255 . S
C238 O231 1.287 . S
C238 O232 1.255 . S
O239 Fe221 2.002 . S
O239 C235 1.295 . S
O240 Fe223 1.997 . S
O240 C235 1.235 . S
C241 O224 1.295 . S
C241 O225 1.235 . S
Fe242 O244 1.918 1_455 S
Fe242 O247 1.997 . S
Fe242 O248 2.002 1_455 S
Fe242 O253 1.976 . S
Fe242 O256 1.996 . S
Fe243 O244 1.918 . S
Fe243 O251 1.997 . S
Fe243 O254 1.996 . S
Fe243 O258 1.976 . S
Fe243 O261 2.002 . S
O244 Fe242 1.918 1_655 S
O244 Fe243 1.918 . S
O244 Fe245 1.918 . S
Fe245 O244 1.918 . S
Fe245 O246 2.002 . S
Fe245 O255 1.976 1_655 S
Fe245 O259 1.996 . S
Fe245 O262 1.997 . S
O246 Fe245 2.002 . S
O246 C263 1.295 . S
O247 Fe242 1.997 . S
O247 C263 1.235 1_455 S
O248 Fe242 2.002 1_655 S
O248 C249 1.295 . S
C249 O248 1.295 . S
C249 O251 1.235 . S
C250 O255 1.287 . S
C250 O256 1.255 . S
O251 Fe243 1.997 . S
O251 C249 1.235 . S
C252 O258 1.287 . S
C252 O259 1.255 . S
O253 Fe242 1.976 . S
O253 C260 1.287 1_455 S
O254 Fe243 1.996 . S
O254 C260 1.255 . S
O255 Fe245 1.976 1_455 S
O255 C250 1.287 . S
O256 Fe242 1.996 . S
O256 C250 1.255 . S
C257 O261 1.295 . S
C257 O262 1.235 . S
O258 Fe243 1.976 . S
O258 C252 1.287 . S
O259 Fe245 1.996 . S
O259 C252 1.255 . S
C260 O253 1.287 1_655 S
C260 O254 1.255 . S
O261 Fe243 2.002 . S
O261 C257 1.295 . S
O262 Fe245 1.997 . S
O262 C257 1.235 . S
C263 O246 1.295 . S
C263 O247 1.235 1_655 S
Fe264 O266 1.918 . S
Fe264 O269 1.997 . S
Fe264 O270 2.002 . S
Fe264 O275 1.976 1_545 S
Fe264 O278 1.996 . S
Fe265 O266 1.918 1_565 S
Fe265 O273 1.997 . S
Fe265 O276 1.996 . S
Fe265 O280 1.976 . S
Fe265 O283 2.002 1_565 S
O266 Fe264 1.918 . S
O266 Fe265 1.918 1_545 S
O266 Fe267 1.918 . S
Fe267 O266 1.918 . S
Fe267 O268 2.002 . S
Fe267 O277 1.976 . S
Fe267 O281 1.996 . S
Fe267 O284 1.997 . S
O268 Fe267 2.002 . S
O268 C285 1.295 . S
O269 Fe264 1.997 . S
O269 C285 1.235 . S
O270 Fe264 2.002 . S
O270 C271 1.295 . S
C271 O270 1.295 . S
C271 O273 1.235 1_545 S
C272 O277 1.287 . S
C272 O278 1.255 . S
O273 Fe265 1.997 . S
O273 C271 1.235 1_565 S
C274 O280 1.287 1_545 S
C274 O281 1.255 . S
O275 Fe264 1.976 1_565 S
O275 C282 1.287 . S
O276 Fe265 1.996 . S
O276 C282 1.255 . S
O277 Fe267 1.976 . S
O277 C272 1.287 . S
O278 Fe264 1.996 . S
O278 C272 1.255 . S
C279 O283 1.295 . S
C279 O284 1.235 . S
O280 Fe265 1.976 . S
O280 C274 1.287 1_565 S
O281 Fe267 1.996 . S
O281 C274 1.255 . S
C282 O275 1.287 . S
C282 O276 1.255 . S
O283 Fe265 2.002 1_545 S
O283 C279 1.295 . S
O284 Fe267 1.997 . S
O284 C279 1.235 . S
C285 O268 1.295 . S
C285 O269 1.235 . S
Fe286 O288 1.918 . S
Fe286 O291 1.997 . S
Fe286 O292 2.002 . S
Fe286 O297 1.976 . S
Fe286 O300 1.996 . S
Fe287 O288 1.918 . S
Fe287 O295 1.997 . S
Fe287 O298 1.996 . S
Fe287 O302 1.976 . S
Fe287 O305 2.002 . S
O288 Fe286 1.918 . S
O288 Fe287 1.918 . S
O288 Fe289 1.918 . S
Fe289 O288 1.918 . S
Fe289 O290 2.002 . S
Fe289 O299 1.976 . S
Fe289 O303 1.996 . S
Fe289 O306 1.997 . S
O290 Fe289 2.002 . S
O290 C307 1.295 . S
O291 Fe286 1.997 . S
O291 C307 1.235 . S
O292 Fe286 2.002 . S
O292 C293 1.295 . S
C293 O292 1.295 . S
C293 O295 1.235 . S
C294 O299 1.287 . S
C294 O300 1.255 . S
O295 Fe287 1.997 . S
O295 C293 1.235 . S
C296 O302 1.287 . S
C296 O303 1.255 . S
O297 Fe286 1.976 . S
O297 C304 1.287 . S
O298 Fe287 1.996 . S
O298 C304 1.255 . S
O299 Fe289 1.976 . S
O299 C294 1.287 . S
O300 Fe286 1.996 . S
O300 C294 1.255 . S
C301 O305 1.295 . S
C301 O306 1.235 . S
O302 Fe287 1.976 . S
O302 C296 1.287 . S
O303 Fe289 1.996 . S
O303 C296 1.255 . S
C304 O297 1.287 . S
C304 O298 1.255 . S
O305 Fe287 2.002 . S
O305 C301 1.295 . S
O306 Fe289 1.997 . S
O306 C301 1.235 . S
C307 O290 1.295 . S
C307 O291 1.235 . S
Fe308 O310 1.918 . S
Fe308 O313 1.997 . S
Fe308 O314 2.002 . S
Fe308 O319 1.976 . S
Fe308 O322 1.996 . S
Fe309 O310 1.918 . S
Fe309 O317 1.997 . S
Fe309 O320 1.996 . S
Fe309 O324 1.976 . S
Fe309 O327 2.002 . S
O310 Fe308 1.918 . S
O310 Fe309 1.918 . S
O310 Fe311 1.918 . S
Fe311 O310 1.918 . S
Fe311 O312 2.002 . S
Fe311 O321 1.976 . S
Fe311 O325 1.996 . S
Fe311 O328 1.997 . S
O312 Fe311 2.002 . S
O312 C329 1.295 . S
O313 Fe308 1.997 . S
O313 C329 1.235 . S
O314 Fe308 2.002 . S
O314 C315 1.295 . S
C315 O314 1.295 . S
C315 O317 1.235 . S
C316 O321 1.287 . S
C316 O322 1.255 . S
O317 Fe309 1.997 . S
O317 C315 1.235 . S
C318 O324 1.287 . S
C318 O325 1.255 . S
O319 Fe308 1.976 . S
O319 C326 1.287 . S
O320 Fe309 1.996 . S
O320 C326 1.255 . S
O321 Fe311 1.976 . S
O321 C316 1.287 . S
O322 Fe308 1.996 . S
O322 C316 1.255 . S
C323 O327 1.295 . S
C323 O328 1.235 . S
O324 Fe309 1.976 . S
O324 C318 1.287 . S
O325 Fe311 1.996 . S
O325 C318 1.255 . S
C326 O319 1.287 . S
C326 O320 1.255 . S
O327 Fe309 2.002 . S
O327 C323 1.295 . S
O328 Fe311 1.997 . S
O328 C323 1.235 . S
C329 O312 1.295 . S
C329 O313 1.235 . S
Fe330 O332 1.918 1_655 S
Fe330 O335 1.997 . S
Fe330 O336 2.002 1_655 S
Fe330 O341 1.976 . S
Fe330 O344 1.996 . S
Fe331 O332 1.918 . S
Fe331 O339 1.997 . S
Fe331 O342 1.996 . S
Fe331 O346 1.976 . S
Fe331 O349 2.002 . S
O332 Fe330 1.918 1_455 S
O332 Fe331 1.918 . S
O332 Fe333 1.918 . S
Fe333 O332 1.918 . S
Fe333 O334 2.002 . S
Fe333 O343 1.976 1_455 S
Fe333 O347 1.996 . S
Fe333 O350 1.997 . S
O334 Fe333 2.002 . S
O334 C351 1.295 . S
O335 Fe330 1.997 . S
O335 C351 1.235 1_655 S
O336 Fe330 2.002 1_455 S
O336 C337 1.295 . S
C337 O336 1.295 . S
C337 O339 1.235 . S
C338 O343 1.287 . S
C338 O344 1.255 . S
O339 Fe331 1.997 . S
O339 C337 1.235 . S
C340 O346 1.287 . S
C340 O347 1.255 . S
O341 Fe330 1.976 . S
O341 C348 1.287 1_655 S
O342 Fe331 1.996 . S
O342 C348 1.255 . S
O343 Fe333 1.976 1_655 S
O343 C338 1.287 . S
O344 Fe330 1.996 . S
O344 C338 1.255 . S
C345 O349 1.295 . S
C345 O350 1.235 . S
O346 Fe331 1.976 . S
O346 C340 1.287 . S
O347 Fe333 1.996 . S
O347 C340 1.255 . S
C348 O341 1.287 1_455 S
C348 O342 1.255 . S
O349 Fe331 2.002 . S
O349 C345 1.295 . S
O350 Fe333 1.997 . S
O350 C345 1.235 . S
C351 O334 1.295 . S
C351 O335 1.235 1_455 S
H352 C360 0.950 . S
H353 C365 0.950 . S
H354 C362 0.950 . S
H355 C364 0.950 . S
H356 C366 0.950 . S
H357 C368 0.950 . S
H358 C370 0.950 . S
H359 C371 0.950 . S
C360 H352 0.950 . S
C360 C361 1.386 . S
C360 C362 1.391 . S
C361 C360 1.386 . S
C361 C365 1.393 . S
C362 H354 0.950 . S
C362 C360 1.391 . S
C362 C363 1.400 . S
C363 C362 1.400 . S
C363 C364 1.398 . S
C363 C369 1.491 . S
C364 H355 0.950 . S
C364 C363 1.398 . S
C364 C365 1.391 . S
C365 H353 0.950 . S
C365 C361 1.393 . S
C365 C364 1.391 . S
C366 H356 0.950 . S
C366 C367 1.386 . S
C366 C368 1.391 . S
C367 C366 1.386 . S
C367 C371 1.393 . S
C368 H357 0.950 . S
C368 C366 1.391 . S
C368 C369 1.400 . S
C369 C363 1.491 . S
C369 C368 1.400 . S
C369 C370 1.398 . S
C370 H358 0.950 . S
C370 C369 1.398 . S
C370 C371 1.391 . S
C371 H359 0.950 . S
C371 C367 1.393 . S
C371 C370 1.391 . S
H372 C380 0.950 . S
H373 C385 0.950 . S
H374 C382 0.950 . S
H375 C384 0.950 . S
H376 C386 0.950 . S
H377 C388 0.950 . S
H378 C390 0.950 . S
H379 C391 0.950 . S
C380 H372 0.950 . S
C380 C381 1.386 . S
C380 C382 1.391 . S
C381 C380 1.386 . S
C381 C385 1.393 . S
C382 H374 0.950 . S
C382 C380 1.391 . S
C382 C383 1.400 . S
C383 C382 1.400 . S
C383 C384 1.398 . S
C383 C389 1.491 . S
C384 H375 0.950 . S
C384 C383 1.398 . S
C384 C385 1.391 . S
C385 H373 0.950 . S
C385 C381 1.393 . S
C385 C384 1.391 . S
C386 H376 0.950 . S
C386 C387 1.386 . S
C386 C388 1.391 . S
C387 C386 1.386 . S
C387 C391 1.393 . S
C388 H377 0.950 . S
C388 C386 1.391 . S
C388 C389 1.400 . S
C389 C383 1.491 . S
C389 C388 1.400 . S
C389 C390 1.398 . S
C390 H378 0.950 . S
C390 C389 1.398 . S
C390 C391 1.391 . S
C391 H379 0.950 . S
C391 C387 1.393 . S
C391 C390 1.391 . S
H392 C400 0.950 . S
H393 C405 0.950 . S
H394 C402 0.950 . S
H395 C404 0.950 . S
H396 C406 0.950 . S
H397 C408 0.950 . S
H398 C410 0.950 . S
H399 C411 0.950 . S
C400 H392 0.950 . S
C400 C401 1.386 . S
C400 C402 1.391 . S
C401 C400 1.386 . S
C401 C405 1.393 . S
C402 H394 0.950 . S
C402 C400 1.391 . S
C402 C403 1.400 . S
C403 C402 1.400 . S
C403 C404 1.398 . S
C403 C409 1.491 . S
C404 H395 0.950 . S
C404 C403 1.398 . S
C404 C405 1.391 . S
C405 H393 0.950 . S
C405 C401 1.393 . S
C405 C404 1.391 . S
C406 H396 0.950 . S
C406 C407 1.386 . S
C406 C408 1.391 . S
C407 C406 1.386 . S
C407 C411 1.393 . S
C408 H397 0.950 . S
C408 C406 1.391 . S
C408 C409 1.400 . S
C409 C403 1.491 . S
C409 C408 1.400 . S
C409 C410 1.398 . S
C410 H398 0.950 . S
C410 C409 1.398 . S
C410 C411 1.391 . S
C411 H399 0.950 . S
C411 C407 1.393 . S
C411 C410 1.391 . S
H412 C420 0.950 . S
H413 C425 0.950 . S
H414 C422 0.950 . S
H415 C424 0.950 . S
H416 C426 0.950 . S
H417 C428 0.950 . S
H418 C430 0.950 . S
H419 C431 0.950 . S
C420 H412 0.950 . S
C420 C421 1.386 . S
C420 C422 1.391 . S
C421 C420 1.386 . S
C421 C425 1.393 . S
C422 H414 0.950 . S
C422 C420 1.391 . S
C422 C423 1.400 . S
C423 C422 1.400 . S
C423 C424 1.398 . S
C423 C429 1.491 . S
C424 H415 0.950 . S
C424 C423 1.398 . S
C424 C425 1.391 . S
C425 H413 0.950 . S
C425 C421 1.393 . S
C425 C424 1.391 . S
C426 H416 0.950 . S
C426 C427 1.386 . S
C426 C428 1.391 . S
C427 C426 1.386 . S
C427 C431 1.393 . S
C428 H417 0.950 . S
C428 C426 1.391 . S
C428 C429 1.400 . S
C429 C423 1.491 . S
C429 C428 1.400 . S
C429 C430 1.398 . S
C430 H418 0.950 . S
C430 C429 1.398 . S
C430 C431 1.391 . S
C431 H419 0.950 . S
C431 C427 1.393 . S
C431 C430 1.391 . S
H432 C440 0.950 . S
H433 C445 0.950 . S
H434 C442 0.950 . S
H435 C444 0.950 . S
H436 C446 0.950 . S
H437 C448 0.950 . S
H438 C450 0.950 . S
H439 C451 0.950 . S
C440 H432 0.950 . S
C440 C441 1.386 . S
C440 C442 1.391 . S
C441 C440 1.386 . S
C441 C445 1.393 . S
C442 H434 0.950 . S
C442 C440 1.391 . S
C442 C443 1.400 . S
C443 C442 1.400 . S
C443 C444 1.398 . S
C443 C449 1.491 . S
C444 H435 0.950 . S
C444 C443 1.398 . S
C444 C445 1.391 . S
C445 H433 0.950 . S
C445 C441 1.393 . S
C445 C444 1.391 . S
C446 H436 0.950 . S
C446 C447 1.386 . S
C446 C448 1.391 . S
C447 C446 1.386 . S
C447 C451 1.393 . S
C448 H437 0.950 . S
C448 C446 1.391 . S
C448 C449 1.400 . S
C449 C443 1.491 . S
C449 C448 1.400 . S
C449 C450 1.398 . S
C450 H438 0.950 . S
C450 C449 1.398 . S
C450 C451 1.391 . S
C451 H439 0.950 . S
C451 C447 1.393 . S
C451 C450 1.391 . S
H452 C460 0.950 . S
H453 C465 0.950 . S
H454 C462 0.950 . S
H455 C464 0.950 . S
H456 C466 0.950 . S
H457 C468 0.950 . S
H458 C470 0.950 . S
H459 C471 0.950 . S
C460 H452 0.950 . S
C460 C461 1.386 . S
C460 C462 1.391 . S
C461 C460 1.386 . S
C461 C465 1.393 . S
C462 H454 0.950 . S
C462 C460 1.391 . S
C462 C463 1.400 . S
C463 C462 1.400 . S
C463 C464 1.398 . S
C463 C469 1.491 . S
C464 H455 0.950 . S
C464 C463 1.398 . S
C464 C465 1.391 . S
C465 H453 0.950 . S
C465 C461 1.393 . S
C465 C464 1.391 . S
C466 H456 0.950 . S
C466 C467 1.386 . S
C466 C468 1.391 . S
C467 C466 1.386 . S
C467 C471 1.393 . S
C468 H457 0.950 . S
C468 C466 1.391 . S
C468 C469 1.400 . S
C469 C463 1.491 . S
C469 C468 1.400 . S
C469 C470 1.398 . S
C470 H458 0.950 . S
C470 C469 1.398 . S
C470 C471 1.391 . S
C471 H459 0.950 . S
C471 C467 1.393 . S
C471 C470 1.391 . S
H472 C480 0.950 . S
H473 C485 0.950 . S
H474 C482 0.950 . S
H475 C484 0.950 . S
H476 C486 0.950 . S
H477 C488 0.950 . S
H478 C490 0.950 . S
H479 C491 0.950 . S
C480 H472 0.950 . S
C480 C481 1.386 . S
C480 C482 1.391 . S
C481 C480 1.386 . S
C481 C485 1.393 . S
C482 H474 0.950 . S
C482 C480 1.391 . S
C482 C483 1.400 . S
C483 C482 1.400 . S
C483 C484 1.398 . S
C483 C489 1.491 . S
C484 H475 0.950 . S
C484 C483 1.398 . S
C484 C485 1.391 . S
C485 H473 0.950 . S
C485 C481 1.393 . S
C485 C484 1.391 . S
C486 H476 0.950 . S
C486 C487 1.386 . S
C486 C488 1.391 . S
C487 C486 1.386 . S
C487 C491 1.393 . S
C488 H477 0.950 . S
C488 C486 1.391 . S
C488 C489 1.400 . S
C489 C483 1.491 . S
C489 C488 1.400 . S
C489 C490 1.398 . S
C490 H478 0.950 . S
C490 C489 1.398 . S
C490 C491 1.391 . S
C491 H479 0.950 . S
C491 C487 1.393 . S
C491 C490 1.391 . S
H492 C500 0.950 . S
H493 C505 0.950 . S
H494 C502 0.950 . S
H495 C504 0.950 . S
H496 C506 0.950 . S
H497 C508 0.950 . S
H498 C510 0.950 . S
H499 C511 0.950 . S
C500 H492 0.950 . S
C500 C501 1.386 . S
C500 C502 1.391 . S
C501 C500 1.386 . S
C501 C505 1.393 . S
C502 H494 0.950 . S
C502 C500 1.391 . S
C502 C503 1.400 . S
C503 C502 1.400 . S
C503 C504 1.398 . S
C503 C509 1.491 . S
C504 H495 0.950 . S
C504 C503 1.398 . S
C504 C505 1.391 . S
C505 H493 0.950 . S
C505 C501 1.393 . S
C505 C504 1.391 . S
C506 H496 0.950 . S
C506 C507 1.386 . S
C506 C508 1.391 . S
C507 C506 1.386 . S
C507 C511 1.393 . S
C508 H497 0.950 . S
C508 C506 1.391 . S
C508 C509 1.400 . S
C509 C503 1.491 . S
C509 C508 1.400 . S
C509 C510 1.398 . S
C510 H498 0.950 . S
C510 C509 1.398 . S
C510 C511 1.391 . S
C511 H499 0.950 . S
C511 C507 1.393 . S
C511 C510 1.391 . S
H512 C520 0.950 . S
H513 C525 0.950 1_556 S
H514 C522 0.950 . S
H515 C524 0.950 . S
H516 C526 0.950 . S
H517 C528 0.950 . S
H518 C530 0.950 . S
H519 C531 0.950 1_554 S
C520 H512 0.950 . S
C520 C521 1.386 . S
C520 C522 1.391 . S
C521 C520 1.386 . S
C521 C525 1.393 1_545 S
C522 H514 0.950 . S
C522 C520 1.391 . S
C522 C523 1.400 . S
C523 C522 1.400 . S
C523 C524 1.398 1_544 S
C523 C529 1.491 1_544 S
C524 H515 0.950 . S
C524 C523 1.398 1_566 S
C524 C525 1.391 1_556 S
C525 H513 0.950 1_554 S
C525 C521 1.393 1_565 S
C525 C524 1.391 1_554 S
C526 H516 0.950 . S
C526 C527 1.386 . S
C526 C528 1.391 . S
C527 C526 1.386 . S
C527 C531 1.393 1_565 S
C528 H517 0.950 . S
C528 C526 1.391 . S
C528 C529 1.400 . S
C529 C523 1.491 1_566 S
C529 C528 1.400 . S
C529 C530 1.398 1_566 S
C530 H518 0.950 . S
C530 C529 1.398 1_544 S
C530 C531 1.391 1_554 S
C531 H519 0.950 1_556 S
C531 C527 1.393 1_545 S
C531 C530 1.391 1_556 S
H532 C540 0.950 . S
H533 C545 0.950 1_556 S
H534 C542 0.950 . S
H535 C544 0.950 . S
H536 C546 0.950 . S
H537 C548 0.950 . S
H538 C550 0.950 . S
H539 C551 0.950 1_554 S
C540 H532 0.950 . S
C540 C541 1.386 . S
C540 C542 1.391 . S
C541 C540 1.386 . S
C541 C545 1.393 . S
C542 H534 0.950 . S
C542 C540 1.391 . S
C542 C543 1.400 . S
C543 C542 1.400 . S
C543 C544 1.398 1_554 S
C543 C549 1.491 1_554 S
C544 H535 0.950 . S
C544 C543 1.398 1_556 S
C544 C545 1.391 1_556 S
C545 H533 0.950 1_554 S
C545 C541 1.393 . S
C545 C544 1.391 1_554 S
C546 H536 0.950 . S
C546 C547 1.386 . S
C546 C548 1.391 . S
C547 C546 1.386 . S
C547 C551 1.393 . S
C548 H537 0.950 . S
C548 C546 1.391 . S
C548 C549 1.400 . S
C549 C543 1.491 1_556 S
C549 C548 1.400 . S
C549 C550 1.398 1_556 S
C550 H538 0.950 . S
C550 C549 1.398 1_554 S
C550 C551 1.391 1_554 S
C551 H539 0.950 1_556 S
C551 C547 1.393 . S
C551 C550 1.391 1_556 S
H552 C560 0.950 . S
H553 C565 0.950 . S
H554 C562 0.950 . S
H555 C564 0.950 . S
H556 C566 0.950 . S
H557 C568 0.950 . S
H558 C570 0.950 . S
H559 C571 0.950 . S
C560 H552 0.950 . S
C560 C561 1.386 . S
C560 C562 1.391 1_556 S
C561 C560 1.386 . S
C561 C565 1.393 . S
C562 H554 0.950 . S
C562 C560 1.391 1_554 S
C562 C563 1.400 1_554 S
C563 C562 1.400 1_556 S
C563 C564 1.398 . S
C563 C569 1.491 1_456 S
C564 H555 0.950 . S
C564 C563 1.398 . S
C564 C565 1.391 . S
C565 H553 0.950 . S
C565 C561 1.393 . S
C565 C564 1.391 . S
C566 H556 0.950 . S
C566 C567 1.386 . S
C566 C568 1.391 1_554 S
C567 C566 1.386 . S
C567 C571 1.393 . S
C568 H557 0.950 . S
C568 C566 1.391 1_556 S
C568 C569 1.400 1_556 S
C569 C563 1.491 1_654 S
C569 C568 1.400 1_554 S
C569 C570 1.398 . S
C570 H558 0.950 . S
C570 C569 1.398 . S
C570 C571 1.391 . S
C571 H559 0.950 . S
C571 C567 1.393 . S
C571 C570 1.391 . S
H572 C580 0.950 . S
H573 C585 0.950 . S
H574 C582 0.950 1_554 S
H575 C584 0.950 . S
H576 C586 0.950 . S
H577 C588 0.950 1_556 S
H578 C590 0.950 . S
H579 C591 0.950 . S
C580 H572 0.950 . S
C580 C581 1.386 . S
C580 C582 1.391 . S
C581 C580 1.386 . S
C581 C585 1.393 1_655 S
C582 H574 0.950 1_556 S
C582 C580 1.391 . S
C582 C583 1.400 . S
C583 C582 1.400 . S
C583 C584 1.398 1_655 S
C583 C589 1.491 1_646 S
C584 H575 0.950 . S
C584 C583 1.398 1_455 S
C584 C585 1.391 . S
C585 H573 0.950 . S
C585 C581 1.393 1_455 S
C585 C584 1.391 . S
C586 H576 0.950 . S
C586 C587 1.386 . S
C586 C588 1.391 . S
C587 C586 1.386 . S
C587 C591 1.393 1_455 S
C588 H577 0.950 1_554 S
C588 C586 1.391 . S
C588 C589 1.400 . S
C589 C583 1.491 1_464 S
C589 C588 1.400 . S
C589 C590 1.398 1_455 S
C590 H578 0.950 . S
C590 C589 1.398 1_655 S
C590 C591 1.391 . S
C591 H579 0.950 . S
C591 C587 1.393 1_655 S
C591 C590 1.391 . S
H592 C600 0.950 . S
H593 C605 0.950 . S
H594 C602 0.950 . S
H595 C604 0.950 . S
H596 C606 0.950 . S
H597 C608 0.950 . S
H598 C610 0.950 . S
H599 C611 0.950 . S
C600 H592 0.950 . S
C600 C601 1.386 . S
C600 C602 1.391 . S
C601 C600 1.386 . S
C601 C605 1.393 1_565 S
C602 H594 0.950 . S
C602 C600 1.391 . S
C602 C603 1.400 . S
C603 C602 1.400 . S
C603 C604 1.398 1_565 S
C603 C609 1.491 1_465 S
C604 H595 0.950 . S
C604 C603 1.398 1_545 S
C604 C605 1.391 . S
C605 H593 0.950 . S
C605 C601 1.393 1_545 S
C605 C604 1.391 . S
C606 H596 0.950 . S
C606 C607 1.386 . S
C606 C608 1.391 . S
C607 C606 1.386 . S
C607 C611 1.393 1_545 S
C608 H597 0.950 . S
C608 C606 1.391 . S
C608 C609 1.400 . S
C609 C603 1.491 1_645 S
C609 C608 1.400 . S
C609 C610 1.398 1_545 S
C610 H598 0.950 . S
C610 C609 1.398 1_565 S
C610 C611 1.391 . S
C611 H599 0.950 . S
C611 C607 1.393 1_565 S
C611 C610 1.391 . S
H612 C620 0.950 . S
H613 C625 0.950 . S
H614 C622 0.950 . S
H615 C624 0.950 . S
H616 C626 0.950 . S
H617 C628 0.950 . S
H618 C630 0.950 . S
H619 C631 0.950 . S
C620 H612 0.950 . S
C620 C621 1.386 . S
C620 C622 1.391 . S
C621 C620 1.386 . S
C621 C625 1.393 . S
C622 H614 0.950 . S
C622 C620 1.391 . S
C622 C623 1.400 . S
C623 C622 1.400 . S
C623 C624 1.398 . S
C623 C629 1.491 1_545 S
C624 H615 0.950 . S
C624 C623 1.398 . S
C624 C625 1.391 . S
C625 H613 0.950 . S
C625 C621 1.393 . S
C625 C624 1.391 . S
C626 H616 0.950 . S
C626 C627 1.386 . S
C626 C628 1.391 . S
C627 C626 1.386 . S
C627 C631 1.393 . S
C628 H617 0.950 . S
C628 C626 1.391 . S
C628 C629 1.400 . S
C629 C623 1.491 1_565 S
C629 C628 1.400 . S
C629 C630 1.398 . S
C630 H618 0.950 . S
C630 C629 1.398 . S
C630 C631 1.391 . S
C631 H619 0.950 . S
C631 C627 1.393 . S
C631 C630 1.391 . S
H632 C640 0.950 . S
H633 C645 0.950 . S
H634 C642 0.950 . S
H635 C644 0.950 . S
H636 C646 0.950 . S
H637 C648 0.950 . S
H638 C650 0.950 . S
H639 C651 0.950 . S
C640 H632 0.950 . S
C640 C641 1.386 . S
C640 C642 1.391 . S
C641 C640 1.386 . S
C641 C645 1.393 . S
C642 H634 0.950 . S
C642 C640 1.391 . S
C642 C643 1.400 . S
C643 C642 1.400 . S
C643 C644 1.398 . S
C643 C649 1.491 . S
C644 H635 0.950 . S
C644 C643 1.398 . S
C644 C645 1.391 . S
C645 H633 0.950 . S
C645 C641 1.393 . S
C645 C644 1.391 . S
C646 H636 0.950 . S
C646 C647 1.386 . S
C646 C648 1.391 . S
C647 C646 1.386 . S
C647 C651 1.393 . S
C648 H637 0.950 . S
C648 C646 1.391 . S
C648 C649 1.400 . S
C649 C643 1.491 . S
C649 C648 1.400 . S
C649 C650 1.398 . S
C650 H638 0.950 . S
C650 C649 1.398 . S
C650 C651 1.391 . S
C651 H639 0.950 . S
C651 C647 1.393 . S
C651 C650 1.391 . S
H652 C660 0.950 . S
H653 C665 0.950 . S
H654 C662 0.950 . S
H655 C664 0.950 . S
H656 C666 0.950 . S
H657 C668 0.950 . S
H658 C670 0.950 . S
H659 C671 0.950 . S
C660 H652 0.950 . S
C660 C661 1.386 . S
C660 C662 1.391 . S
C661 C660 1.386 . S
C661 C665 1.393 1_455 S
C662 H654 0.950 . S
C662 C660 1.391 . S
C662 C663 1.400 . S
C663 C662 1.400 . S
C663 C664 1.398 1_455 S
C663 C669 1.491 1_455 S
C664 H655 0.950 . S
C664 C663 1.398 1_655 S
C664 C665 1.391 . S
C665 H653 0.950 . S
C665 C661 1.393 1_655 S
C665 C664 1.391 . S
C666 H656 0.950 . S
C666 C667 1.386 . S
C666 C668 1.391 . S
C667 C666 1.386 . S
C667 C671 1.393 1_655 S
C668 H657 0.950 . S
C668 C666 1.391 . S
C668 C669 1.400 . S
C669 C663 1.491 1_655 S
C669 C668 1.400 . S
C669 C670 1.398 1_655 S
C670 H658 0.950 . S
C670 C669 1.398 1_455 S
C670 C671 1.391 . S
C671 H659 0.950 . S
C671 C667 1.393 1_455 S
C671 C670 1.391 . S
H672 C680 0.950 . S
H673 C685 0.950 . S
H674 C682 0.950 . S
H675 C684 0.950 . S
H676 C686 0.950 . S
H677 C688 0.950 . S
H678 C690 0.950 . S
H679 C691 0.950 . S
C680 H672 0.950 . S
C680 C681 1.386 . S
C680 C682 1.391 . S
C681 C680 1.386 . S
C681 C685 1.393 . S
C682 H674 0.950 . S
C682 C680 1.391 . S
C682 C683 1.400 . S
C683 C682 1.400 . S
C683 C684 1.398 . S
C683 C689 1.491 . S
C684 H675 0.950 . S
C684 C683 1.398 . S
C684 C685 1.391 . S
C685 H673 0.950 . S
C685 C681 1.393 . S
C685 C684 1.391 . S
C686 H676 0.950 . S
C686 C687 1.386 . S
C686 C688 1.391 . S
C687 C686 1.386 . S
C687 C691 1.393 . S
C688 H677 0.950 . S
C688 C686 1.391 . S
C688 C689 1.400 . S
C689 C683 1.491 . S
C689 C688 1.400 . S
C689 C690 1.398 . S
C690 H678 0.950 . S
C690 C689 1.398 . S
C690 C691 1.391 . S
C691 H679 0.950 . S
C691 C687 1.393 . S
C691 C690 1.391 . S
H692 C700 0.950 . S
H693 C705 0.950 . S
H694 C702 0.950 . S
H695 C704 0.950 . S
H696 C706 0.950 . S
H697 C708 0.950 . S
H698 C710 0.950 . S
H699 C711 0.950 . S
C700 H692 0.950 . S
C700 C701 1.386 . S
C700 C702 1.391 . S
C701 C700 1.386 . S
C701 C705 1.393 . S
C702 H694 0.950 . S
C702 C700 1.391 . S
C702 C703 1.400 . S
C703 C702 1.400 . S
C703 C704 1.398 . S
C703 C709 1.491 . S
C704 H695 0.950 . S
C704 C703 1.398 . S
C704 C705 1.391 . S
C705 H693 0.950 . S
C705 C701 1.393 . S
C705 C704 1.391 . S
C706 H696 0.950 . S
C706 C707 1.386 . S
C706 C708 1.391 . S
C707 C706 1.386 . S
C707 C711 1.393 . S
C708 H697 0.950 . S
C708 C706 1.391 . S
C708 C709 1.400 . S
C709 C703 1.491 . S
C709 C708 1.400 . S
C709 C710 1.398 . S
C710 H698 0.950 . S
C710 C709 1.398 . S
C710 C711 1.391 . S
C711 H699 0.950 . S
C711 C707 1.393 . S
C711 C710 1.391 . S
H712 C720 0.950 . S
H713 C725 0.950 1_455 S
H714 C722 0.950 . S
H715 C724 0.950 . S
H716 C726 0.950 . S
H717 C728 0.950 . S
H718 C730 0.950 . S
H719 C731 0.950 . S
C720 H712 0.950 . S
C720 C721 1.386 . S
C720 C722 1.391 . S
C721 C720 1.386 . S
C721 C725 1.393 . S
C722 H714 0.950 . S
C722 C720 1.391 . S
C722 C723 1.400 . S
C723 C722 1.400 . S
C723 C724 1.398 . S
C723 C729 1.491 . S
C724 H715 0.950 . S
C724 C723 1.398 . S
C724 C725 1.391 . S
C725 H713 0.950 1_655 S
C725 C721 1.393 . S
C725 C724 1.391 . S
C726 H716 0.950 . S
C726 C727 1.386 . S
C726 C728 1.391 . S
C727 C726 1.386 . S
C727 C731 1.393 . S
C728 H717 0.950 . S
C728 C726 1.391 . S
C728 C729 1.400 . S
C729 C723 1.491 . S
C729 C728 1.400 . S
C729 C730 1.398 . S
C730 H718 0.950 . S
C730 C729 1.398 . S
C730 C731 1.391 . S
C731 H719 0.950 . S
C731 C727 1.393 . S
C731 C730 1.391 . S
H732 C740 0.950 . S
H733 C745 0.950 . S
H734 C742 0.950 . S
H735 C744 0.950 . S
H736 C746 0.950 . S
H737 C748 0.950 . S
H738 C750 0.950 . S
H739 C751 0.950 1_545 S
C740 H732 0.950 . S
C740 C741 1.386 . S
C740 C742 1.391 . S
C741 C740 1.386 . S
C741 C745 1.393 . S
C742 H734 0.950 . S
C742 C740 1.391 . S
C742 C743 1.400 . S
C743 C742 1.400 . S
C743 C744 1.398 . S
C743 C749 1.491 . S
C744 H735 0.950 . S
C744 C743 1.398 . S
C744 C745 1.391 . S
C745 H733 0.950 . S
C745 C741 1.393 . S
C745 C744 1.391 . S
C746 H736 0.950 . S
C746 C747 1.386 . S
C746 C748 1.391 . S
C747 C746 1.386 . S
C747 C751 1.393 . S
C748 H737 0.950 . S
C748 C746 1.391 . S
C748 C749 1.400 . S
C749 C743 1.491 . S
C749 C748 1.400 . S
C749 C750 1.398 . S
C750 H738 0.950 . S
C750 C749 1.398 . S
C750 C751 1.391 . S
C751 H739 0.950 1_565 S
C751 C747 1.393 . S
C751 C750 1.391 . S
H752 C760 0.950 . S
H753 C765 0.950 . S
H754 C762 0.950 . S
H755 C764 0.950 . S
H756 C766 0.950 . S
H757 C768 0.950 1_655 S
H758 C770 0.950 . S
H759 C771 0.950 . S
C760 H752 0.950 . S
C760 C761 1.386 . S
C760 C762 1.391 . S
C761 C760 1.386 . S
C761 C765 1.393 . S
C762 H754 0.950 . S
C762 C760 1.391 . S
C762 C763 1.400 . S
C763 C762 1.400 . S
C763 C764 1.398 . S
C763 C769 1.491 . S
C764 H755 0.950 . S
C764 C763 1.398 . S
C764 C765 1.391 . S
C765 H753 0.950 . S
C765 C761 1.393 . S
C765 C764 1.391 . S
C766 H756 0.950 . S
C766 C767 1.386 1_655 S
C766 C768 1.391 1_655 S
C767 C766 1.386 1_455 S
C767 C771 1.393 . S
C768 H757 0.950 1_455 S
C768 C766 1.391 1_455 S
C768 C769 1.400 . S
C769 C763 1.491 . S
C769 C768 1.400 . S
C769 C770 1.398 . S
C770 H758 0.950 . S
C770 C769 1.398 . S
C770 C771 1.391 . S
C771 H759 0.950 . S
C771 C767 1.393 . S
C771 C770 1.391 . S
H772 C780 0.950 . S
H773 C785 0.950 . S
H774 C782 0.950 . S
H775 C784 0.950 . S
H776 C786 0.950 . S
H777 C788 0.950 1_565 S
H778 C790 0.950 . S
H779 C791 0.950 . S
C780 H772 0.950 . S
C780 C781 1.386 . S
C780 C782 1.391 . S
C781 C780 1.386 . S
C781 C785 1.393 . S
C782 H774 0.950 . S
C782 C780 1.391 . S
C782 C783 1.400 . S
C783 C782 1.400 . S
C783 C784 1.398 . S
C783 C789 1.491 . S
C784 H775 0.950 . S
C784 C783 1.398 . S
C784 C785 1.391 . S
C785 H773 0.950 . S
C785 C781 1.393 . S
C785 C784 1.391 . S
C786 H776 0.950 . S
C786 C787 1.386 1_565 S
C786 C788 1.391 1_565 S
C787 C786 1.386 1_545 S
C787 C791 1.393 . S
C788 H777 0.950 1_545 S
C788 C786 1.391 1_545 S
C788 C789 1.400 . S
C789 C783 1.491 . S
C789 C788 1.400 . S
C789 C790 1.398 . S
C790 H778 0.950 . S
C790 C789 1.398 . S
C790 C791 1.391 . S
C791 H779 0.950 . S
C791 C787 1.393 . S
C791 C790 1.391 . S
H792 C800 0.950 . S
H793 C805 0.950 . S
H794 C802 0.950 . S
H795 C804 0.950 . S
H796 C806 0.950 . S
H797 C808 0.950 . S
H798 C810 0.950 . S
H799 C811 0.950 . S
C800 H792 0.950 . S
C800 C801 1.386 . S
C800 C802 1.391 . S
C801 C800 1.386 . S
C801 C805 1.393 . S
C802 H794 0.950 . S
C802 C800 1.391 . S
C802 C803 1.400 . S
C803 C802 1.400 . S
C803 C804 1.398 . S
C803 C809 1.491 . S
C804 H795 0.950 . S
C804 C803 1.398 . S
C804 C805 1.391 . S
C805 H793 0.950 . S
C805 C801 1.393 . S
C805 C804 1.391 . S
C806 H796 0.950 . S
C806 C807 1.386 . S
C806 C808 1.391 . S
C807 C806 1.386 . S
C807 C811 1.393 . S
C808 H797 0.950 . S
C808 C806 1.391 . S
C808 C809 1.400 . S
C809 C803 1.491 . S
C809 C808 1.400 . S
C809 C810 1.398 . S
C810 H798 0.950 . S
C810 C809 1.398 . S
C810 C811 1.391 . S
C811 H799 0.950 . S
C811 C807 1.393 . S
C811 C810 1.391 . S
H812 C820 0.950 . S
H813 C825 0.950 . S
H814 C822 0.950 . S
H815 C824 0.950 . S
H816 C826 0.950 . S
H817 C828 0.950 . S
H818 C830 0.950 . S
H819 C831 0.950 . S
C820 H812 0.950 . S
C820 C821 1.386 . S
C820 C822 1.391 . S
C821 C820 1.386 . S
C821 C825 1.393 . S
C822 H814 0.950 . S
C822 C820 1.391 . S
C822 C823 1.400 . S
C823 C822 1.400 . S
C823 C824 1.398 . S
C823 C829 1.491 . S
C824 H815 0.950 . S
C824 C823 1.398 . S
C824 C825 1.391 . S
C825 H813 0.950 . S
C825 C821 1.393 . S
C825 C824 1.391 . S
C826 H816 0.950 . S
C826 C827 1.386 . S
C826 C828 1.391 . S
C827 C826 1.386 . S
C827 C831 1.393 . S
C828 H817 0.950 . S
C828 C826 1.391 . S
C828 C829 1.400 . S
C829 C823 1.491 . S
C829 C828 1.400 . S
C829 C830 1.398 . S
C830 H818 0.950 . S
C830 C829 1.398 . S
C830 C831 1.391 . S
C831 H819 0.950 . S
C831 C827 1.393 . S
C831 C830 1.391 . S
H832 C840 0.950 . S
H833 C845 0.950 . S
H834 C842 0.950 . S
H835 C844 0.950 . S
H836 C846 0.950 . S
H837 C848 0.950 . S
H838 C850 0.950 . S
H839 C851 0.950 . S
C840 H832 0.950 . S
C840 C841 1.386 . S
C840 C842 1.391 . S
C841 C840 1.386 . S
C841 C845 1.393 . S
C842 H834 0.950 . S
C842 C840 1.391 . S
C842 C843 1.400 . S
C843 C842 1.400 . S
C843 C844 1.398 . S
C843 C849 1.491 . S
C844 H835 0.950 . S
C844 C843 1.398 . S
C844 C845 1.391 . S
C845 H833 0.950 . S
C845 C841 1.393 . S
C845 C844 1.391 . S
C846 H836 0.950 . S
C846 C847 1.386 . S
C846 C848 1.391 . S
C847 C846 1.386 . S
C847 C851 1.393 . S
C848 H837 0.950 . S
C848 C846 1.391 . S
C848 C849 1.400 . S
C849 C843 1.491 . S
C849 C848 1.400 . S
C849 C850 1.398 . S
C850 H838 0.950 . S
C850 C849 1.398 . S
C850 C851 1.391 . S
C851 H839 0.950 . S
C851 C847 1.393 . S
C851 C850 1.391 . S
H852 C860 0.950 . S
H853 C865 0.950 . S
H854 C862 0.950 . S
H855 C864 0.950 . S
H856 C866 0.950 . S
H857 C868 0.950 . S
H858 C870 0.950 . S
H859 C871 0.950 . S
C860 H852 0.950 . S
C860 C861 1.386 . S
C860 C862 1.391 . S
C861 C860 1.386 . S
C861 C865 1.393 . S
C862 H854 0.950 . S
C862 C860 1.391 . S
C862 C863 1.400 . S
C863 C862 1.400 . S
C863 C864 1.398 . S
C863 C869 1.491 . S
C864 H855 0.950 . S
C864 C863 1.398 . S
C864 C865 1.391 . S
C865 H853 0.950 . S
C865 C861 1.393 . S
C865 C864 1.391 . S
C866 H856 0.950 . S
C866 C867 1.386 . S
C866 C868 1.391 . S
C867 C866 1.386 . S
C867 C871 1.393 . S
C868 H857 0.950 . S
C868 C866 1.391 . S
C868 C869 1.400 . S
C869 C863 1.491 . S
C869 C868 1.400 . S
C869 C870 1.398 . S
C870 H858 0.950 . S
C870 C869 1.398 . S
C870 C871 1.391 . S
C871 H859 0.950 . S
C871 C867 1.393 . S
C871 C870 1.391 . S
H872 C880 0.950 . S
H873 C885 0.950 1_655 S
H874 C882 0.950 . S
H875 C884 0.950 . S
H876 C886 0.950 . S
H877 C888 0.950 . S
H878 C890 0.950 . S
H879 C891 0.950 . S
C880 H872 0.950 . S
C880 C881 1.386 . S
C880 C882 1.391 . S
C881 C880 1.386 . S
C881 C885 1.393 . S
C882 H874 0.950 . S
C882 C880 1.391 . S
C882 C883 1.400 . S
C883 C882 1.400 . S
C883 C884 1.398 . S
C883 C889 1.491 . S
C884 H875 0.950 . S
C884 C883 1.398 . S
C884 C885 1.391 . S
C885 H873 0.950 1_455 S
C885 C881 1.393 . S
C885 C884 1.391 . S
C886 H876 0.950 . S
C886 C887 1.386 . S
C886 C888 1.391 . S
C887 C886 1.386 . S
C887 C891 1.393 . S
C888 H877 0.950 . S
C888 C886 1.391 . S
C888 C889 1.400 . S
C889 C883 1.491 . S
C889 C888 1.400 . S
C889 C890 1.398 . S
C890 H878 0.950 . S
C890 C889 1.398 . S
C890 C891 1.391 . S
C891 H879 0.950 . S
C891 C887 1.393 . S
C891 C890 1.391 . S
H892 C900 0.950 . S
H893 C905 0.950 . S
H894 C902 0.950 . S
H895 C904 0.950 1_565 S
H896 C906 0.950 . S
H897 C908 0.950 . S
H898 C910 0.950 . S
H899 C911 0.950 . S
C900 H892 0.950 . S
C900 C901 1.386 . S
C900 C902 1.391 . S
C901 C900 1.386 . S
C901 C905 1.393 1_545 S
C902 H894 0.950 . S
C902 C900 1.391 . S
C902 C903 1.400 . S
C903 C902 1.400 . S
C903 C904 1.398 . S
C903 C909 1.491 . S
C904 H895 0.950 1_545 S
C904 C903 1.398 . S
C904 C905 1.391 1_545 S
C905 H893 0.950 . S
C905 C901 1.393 1_565 S
C905 C904 1.391 1_565 S
C906 H896 0.950 . S
C906 C907 1.386 . S
C906 C908 1.391 . S
C907 C906 1.386 . S
C907 C911 1.393 . S
C908 H897 0.950 . S
C908 C906 1.391 . S
C908 C909 1.400 . S
C909 C903 1.491 . S
C909 C908 1.400 . S
C909 C910 1.398 . S
C910 H898 0.950 . S
C910 C909 1.398 . S
C910 C911 1.391 . S
C911 H899 0.950 . S
C911 C907 1.393 . S
C911 C910 1.391 . S
H912 C920 0.950 . S
H913 C925 0.950 . S
H914 C922 0.950 . S
H915 C924 0.950 . S
H916 C926 0.950 . S
H917 C928 0.950 1_455 S
H918 C930 0.950 . S
H919 C931 0.950 . S
C920 H912 0.950 . S
C920 C921 1.386 . S
C920 C922 1.391 . S
C921 C920 1.386 . S
C921 C925 1.393 . S
C922 H914 0.950 . S
C922 C920 1.391 . S
C922 C923 1.400 . S
C923 C922 1.400 . S
C923 C924 1.398 . S
C923 C929 1.491 . S
C924 H915 0.950 . S
C924 C923 1.398 . S
C924 C925 1.391 . S
C925 H913 0.950 . S
C925 C921 1.393 . S
C925 C924 1.391 . S
C926 H916 0.950 . S
C926 C927 1.386 1_455 S
C926 C928 1.391 1_455 S
C927 C926 1.386 1_655 S
C927 C931 1.393 . S
C928 H917 0.950 1_655 S
C928 C926 1.391 1_655 S
C928 C929 1.400 . S
C929 C923 1.491 . S
C929 C928 1.400 . S
C929 C930 1.398 . S
C930 H918 0.950 . S
C930 C929 1.398 . S
C930 C931 1.391 . S
C931 H919 0.950 . S
C931 C927 1.393 . S
C931 C930 1.391 . S
H932 C940 0.950 . S
H933 C945 0.950 . S
H934 C942 0.950 . S
H935 C944 0.950 . S
H936 C946 0.950 1_545 S
H937 C948 0.950 . S
H938 C950 0.950 . S
H939 C951 0.950 . S
C940 H932 0.950 . S
C940 C941 1.386 . S
C940 C942 1.391 . S
C941 C940 1.386 . S
C941 C945 1.393 . S
C942 H934 0.950 . S
C942 C940 1.391 . S
C942 C943 1.400 . S
C943 C942 1.400 . S
C943 C944 1.398 . S
C943 C949 1.491 . S
C944 H935 0.950 . S
C944 C943 1.398 . S
C944 C945 1.391 . S
C945 H933 0.950 . S
C945 C941 1.393 . S
C945 C944 1.391 . S
C946 H936 0.950 1_565 S
C946 C947 1.386 . S
C946 C948 1.391 . S
C947 C946 1.386 . S
C947 C951 1.393 . S
C948 H937 0.950 . S
C948 C946 1.391 . S
C948 C949 1.400 . S
C949 C943 1.491 . S
C949 C948 1.400 . S
C949 C950 1.398 . S
C950 H938 0.950 . S
C950 C949 1.398 . S
C950 C951 1.391 . S
C951 H939 0.950 . S
C951 C947 1.393 . S
C951 C950 1.391 . S
H952 C960 0.950 . S
H953 C965 0.950 . S
H954 C962 0.950 . S
H955 C964 0.950 . S
H956 C966 0.950 . S
H957 C968 0.950 . S
H958 C970 0.950 . S
H959 C971 0.950 . S
C960 H952 0.950 . S
C960 C961 1.386 . S
C960 C962 1.391 . S
C961 C960 1.386 . S
C961 C965 1.393 . S
C962 H954 0.950 . S
C962 C960 1.391 . S
C962 C963 1.400 . S
C963 C962 1.400 . S
C963 C964 1.398 . S
C963 C969 1.491 . S
C964 H955 0.950 . S
C964 C963 1.398 . S
C964 C965 1.391 . S
C965 H953 0.950 . S
C965 C961 1.393 . S
C965 C964 1.391 . S
C966 H956 0.950 . S
C966 C967 1.386 . S
C966 C968 1.391 . S
C967 C966 1.386 . S
C967 C971 1.393 . S
C968 H957 0.950 . S
C968 C966 1.391 . S
C968 C969 1.400 . S
C969 C963 1.491 . S
C969 C968 1.400 . S
C969 C970 1.398 . S
C970 H958 0.950 . S
C970 C969 1.398 . S
C970 C971 1.391 . S
C971 H959 0.950 . S
C971 C967 1.393 . S
C971 C970 1.391 . S
H972 C980 0.950 . S
H973 C985 0.950 . S
H974 C982 0.950 . S
H975 C984 0.950 . S
H976 C986 0.950 . S
H977 C988 0.950 . S
H978 C990 0.950 . S
H979 C991 0.950 . S
C980 H972 0.950 . S
C980 C981 1.386 . S
C980 C982 1.391 . S
C981 C980 1.386 . S
C981 C985 1.393 . S
C982 H974 0.950 . S
C982 C980 1.391 . S
C982 C983 1.400 . S
C983 C982 1.400 . S
C983 C984 1.398 . S
C983 C989 1.491 . S
C984 H975 0.950 . S
C984 C983 1.398 . S
C984 C985 1.391 . S
C985 H973 0.950 . S
C985 C981 1.393 . S
C985 C984 1.391 . S
C986 H976 0.950 . S
C986 C987 1.386 . S
C986 C988 1.391 . S
C987 C986 1.386 . S
C987 C991 1.393 . S
C988 H977 0.950 . S
C988 C986 1.391 . S
C988 C989 1.400 . S
C989 C983 1.491 . S
C989 C988 1.400 . S
C989 C990 1.398 . S
C990 H978 0.950 . S
C990 C989 1.398 . S
C990 C991 1.391 . S
C991 H979 0.950 . S
C991 C987 1.393 . S
C991 C990 1.391 . S
H992 C1000 0.950 . S
H993 C1005 0.950 . S
H994 C1002 0.950 . S
H995 C1004 0.950 . S
H996 C1006 0.950 . S
H997 C1008 0.950 . S
H998 C1010 0.950 . S
H999 C1011 0.950 . S
C1000 H992 0.950 . S
C1000 C1001 1.386 . S
C1000 C1002 1.391 . S
C1001 C1000 1.386 . S
C1001 C1005 1.393 . S
C1002 H994 0.950 . S
C1002 C1000 1.391 . S
C1002 C1003 1.400 . S
C1003 C1002 1.400 . S
C1003 C1004 1.398 . S
C1003 C1009 1.491 . S
C1004 H995 0.950 . S
C1004 C1003 1.398 . S
C1004 C1005 1.391 . S
C1005 H993 0.950 . S
C1005 C1001 1.393 . S
C1005 C1004 1.391 . S
C1006 H996 0.950 . S
C1006 C1007 1.386 1_554 S
C1006 C1008 1.391 . S
C1007 C1006 1.386 1_556 S
C1007 C1011 1.393 . S
C1008 H997 0.950 . S
C1008 C1006 1.391 . S
C1008 C1009 1.400 . S
C1009 C1003 1.491 . S
C1009 C1008 1.400 . S
C1009 C1010 1.398 1_554 S
C1010 H998 0.950 . S
C1010 C1009 1.398 1_556 S
C1010 C1011 1.391 . S
C1011 H999 0.950 . S
C1011 C1007 1.393 . S
C1011 C1010 1.391 . S
H1012 C1020 0.950 . S
H1013 C1025 0.950 . S
H1014 C1022 0.950 . S
H1015 C1024 0.950 . S
H1016 C1026 0.950 . S
H1017 C1028 0.950 . S
H1018 C1030 0.950 . S
H1019 C1031 0.950 . S
C1020 H1012 0.950 . S
C1020 C1021 1.386 . S
C1020 C1022 1.391 . S
C1021 C1020 1.386 . S
C1021 C1025 1.393 1_556 S
C1022 H1014 0.950 . S
C1022 C1020 1.391 . S
C1022 C1023 1.400 1_556 S
C1023 C1022 1.400 1_554 S
C1023 C1024 1.398 . S
C1023 C1029 1.491 . S
C1024 H1015 0.950 . S
C1024 C1023 1.398 . S
C1024 C1025 1.391 . S
C1025 H1013 0.950 . S
C1025 C1021 1.393 1_554 S
C1025 C1024 1.391 . S
C1026 H1016 0.950 . S
C1026 C1027 1.386 . S
C1026 C1028 1.391 . S
C1027 C1026 1.386 . S
C1027 C1031 1.393 . S
C1028 H1017 0.950 . S
C1028 C1026 1.391 . S
C1028 C1029 1.400 . S
C1029 C1023 1.491 . S
C1029 C1028 1.400 . S
C1029 C1030 1.398 . S
C1030 H1018 0.950 . S
C1030 C1029 1.398 . S
C1030 C1031 1.391 . S
C1031 H1019 0.950 . S
C1031 C1027 1.393 . S
C1031 C1030 1.391 . S
H1032 C1040 0.950 . S
H1033 C1045 0.950 . S
H1034 C1042 0.950 . S
H1035 C1044 0.950 . S
H1036 C1046 0.950 . S
H1037 C1048 0.950 . S
H1038 C1050 0.950 1_554 S
H1039 C1051 0.950 . S
C1040 H1032 0.950 . S
C1040 C1041 1.386 . S
C1040 C1042 1.391 . S
C1041 C1040 1.386 . S
C1041 C1045 1.393 . S
C1042 H1034 0.950 . S
C1042 C1040 1.391 . S
C1042 C1043 1.400 . S
C1043 C1042 1.400 . S
C1043 C1044 1.398 . S
C1043 C1049 1.491 . S
C1044 H1035 0.950 . S
C1044 C1043 1.398 . S
C1044 C1045 1.391 . S
C1045 H1033 0.950 . S
C1045 C1041 1.393 . S
C1045 C1044 1.391 . S
C1046 H1036 0.950 . S
C1046 C1047 1.386 . S
C1046 C1048 1.391 1_556 S
C1047 C1046 1.386 . S
C1047 C1051 1.393 . S
C1048 H1037 0.950 . S
C1048 C1046 1.391 1_554 S
C1048 C1049 1.400 . S
C1049 C1043 1.491 . S
C1049 C1048 1.400 . S
C1049 C1050 1.398 1_554 S
C1050 H1038 0.950 1_556 S
C1050 C1049 1.398 1_556 S
C1050 C1051 1.391 . S
C1051 H1039 0.950 . S
C1051 C1047 1.393 . S
C1051 C1050 1.391 . S
H1052 C1060 0.950 . S
H1053 C1065 0.950 . S
H1054 C1062 0.950 . S
H1055 C1064 0.950 . S
H1056 C1066 0.950 . S
H1057 C1068 0.950 . S
H1058 C1070 0.950 . S
H1059 C1071 0.950 . S
C1060 H1052 0.950 . S
C1060 C1061 1.386 . S
C1060 C1062 1.391 1_556 S
C1061 C1060 1.386 . S
C1061 C1065 1.393 . S
C1062 H1054 0.950 . S
C1062 C1060 1.391 1_554 S
C1062 C1063 1.400 . S
C1063 C1062 1.400 . S
C1063 C1064 1.398 1_554 S
C1063 C1069 1.491 . S
C1064 H1055 0.950 . S
C1064 C1063 1.398 1_556 S
C1064 C1065 1.391 . S
C1065 H1053 0.950 . S
C1065 C1061 1.393 . S
C1065 C1064 1.391 . S
C1066 H1056 0.950 . S
C1066 C1067 1.386 . S
C1066 C1068 1.391 . S
C1067 C1066 1.386 . S
C1067 C1071 1.393 . S
C1068 H1057 0.950 . S
C1068 C1066 1.391 . S
C1068 C1069 1.400 . S
C1069 C1063 1.491 . S
C1069 C1068 1.400 . S
C1069 C1070 1.398 . S
C1070 H1058 0.950 . S
C1070 C1069 1.398 . S
C1070 C1071 1.391 . S
C1071 H1059 0.950 . S
C1071 C1067 1.393 . S
C1071 C1070 1.391 . S
H1072 C1080 0.950 . S
H1073 C1085 0.950 . S
H1074 C1082 0.950 . S
H1075 C1084 0.950 . S
H1076 C1086 0.950 . S
H1077 C1088 0.950 . S
H1078 C1090 0.950 . S
H1079 C1091 0.950 . S
C1080 H1072 0.950 . S
C1080 C1081 1.386 . S
C1080 C1082 1.391 . S
C1081 C1080 1.386 . S
C1081 C1085 1.393 . S
C1082 H1074 0.950 . S
C1082 C1080 1.391 . S
C1082 C1083 1.400 . S
C1083 C1082 1.400 . S
C1083 C1084 1.398 . S
C1083 C1089 1.491 . S
C1084 H1075 0.950 . S
C1084 C1083 1.398 . S
C1084 C1085 1.391 . S
C1085 H1073 0.950 . S
C1085 C1081 1.393 . S
C1085 C1084 1.391 . S
C1086 H1076 0.950 . S
C1086 C1087 1.386 . S
C1086 C1088 1.391 . S
C1087 C1086 1.386 . S
C1087 C1091 1.393 . S
C1088 H1077 0.950 . S
C1088 C1086 1.391 . S
C1088 C1089 1.400 . S
C1089 C1083 1.491 . S
C1089 C1088 1.400 . S
C1089 C1090 1.398 . S
C1090 H1078 0.950 . S
C1090 C1089 1.398 . S
C1090 C1091 1.391 . S
C1091 H1079 0.950 . S
C1091 C1087 1.393 . S
C1091 C1090 1.391 . S
H1092 C1100 0.950 . S
H1093 C1105 0.950 . S
H1094 C1102 0.950 . S
H1095 C1104 0.950 . S
H1096 C1106 0.950 . S
H1097 C1108 0.950 . S
H1098 C1110 0.950 . S
H1099 C1111 0.950 . S
C1100 H1092 0.950 . S
C1100 C1101 1.386 . S
C1100 C1102 1.391 . S
C1101 C1100 1.386 . S
C1101 C1105 1.393 . S
C1102 H1094 0.950 . S
C1102 C1100 1.391 . S
C1102 C1103 1.400 . S
C1103 C1102 1.400 . S
C1103 C1104 1.398 . S
C1103 C1109 1.491 . S
C1104 H1095 0.950 . S
C1104 C1103 1.398 . S
C1104 C1105 1.391 . S
C1105 H1093 0.950 . S
C1105 C1101 1.393 . S
C1105 C1104 1.391 . S
C1106 H1096 0.950 . S
C1106 C1107 1.386 . S
C1106 C1108 1.391 . S
C1107 C1106 1.386 . S
C1107 C1111 1.393 . S
C1108 H1097 0.950 . S
C1108 C1106 1.391 . S
C1108 C1109 1.400 . S
C1109 C1103 1.491 . S
C1109 C1108 1.400 . S
C1109 C1110 1.398 . S
C1110 H1098 0.950 . S
C1110 C1109 1.398 . S
C1110 C1111 1.391 . S
C1111 H1099 0.950 . S
C1111 C1107 1.393 . S
C1111 C1110 1.391 . S
H1112 C1120 0.950 . S
H1113 C1125 0.950 . S
H1114 C1122 0.950 . S
H1115 C1124 0.950 . S
H1116 C1126 0.950 . S
H1117 C1128 0.950 . S
H1118 C1130 0.950 . S
H1119 C1131 0.950 . S
C1120 H1112 0.950 . S
C1120 C1121 1.386 . S
C1120 C1122 1.391 . S
C1121 C1120 1.386 . S
C1121 C1125 1.393 . S
C1122 H1114 0.950 . S
C1122 C1120 1.391 . S
C1122 C1123 1.400 . S
C1123 C1122 1.400 . S
C1123 C1124 1.398 . S
C1123 C1129 1.491 . S
C1124 H1115 0.950 . S
C1124 C1123 1.398 . S
C1124 C1125 1.391 . S
C1125 H1113 0.950 . S
C1125 C1121 1.393 . S
C1125 C1124 1.391 . S
C1126 H1116 0.950 . S
C1126 C1127 1.386 . S
C1126 C1128 1.391 . S
C1127 C1126 1.386 . S
C1127 C1131 1.393 . S
C1128 H1117 0.950 . S
C1128 C1126 1.391 . S
C1128 C1129 1.400 . S
C1129 C1123 1.491 . S
C1129 C1128 1.400 . S
C1129 C1130 1.398 . S
C1130 H1118 0.950 . S
C1130 C1129 1.398 . S
C1130 C1131 1.391 . S
C1131 H1119 0.950 . S
C1131 C1127 1.393 . S
C1131 C1130 1.391 . S
H1132 C1140 0.950 . S
H1133 C1145 0.950 . S
H1134 C1142 0.950 . S
H1135 C1144 0.950 . S
H1136 C1146 0.950 . S
H1137 C1148 0.950 . S
H1138 C1150 0.950 . S
H1139 C1151 0.950 . S
C1140 H1132 0.950 . S
C1140 C1141 1.386 . S
C1140 C1142 1.391 . S
C1141 C1140 1.386 . S
C1141 C1145 1.393 . S
C1142 H1134 0.950 . S
C1142 C1140 1.391 . S
C1142 C1143 1.400 . S
C1143 C1142 1.400 . S
C1143 C1144 1.398 . S
C1143 C1149 1.491 . S
C1144 H1135 0.950 . S
C1144 C1143 1.398 . S
C1144 C1145 1.391 . S
C1145 H1133 0.950 . S
C1145 C1141 1.393 . S
C1145 C1144 1.391 . S
C1146 H1136 0.950 . S
C1146 C1147 1.386 . S
C1146 C1148 1.391 . S
C1147 C1146 1.386 . S
C1147 C1151 1.393 . S
C1148 H1137 0.950 . S
C1148 C1146 1.391 . S
C1148 C1149 1.400 . S
C1149 C1143 1.491 . S
C1149 C1148 1.400 . S
C1149 C1150 1.398 . S
C1150 H1138 0.950 . S
C1150 C1149 1.398 . S
C1150 C1151 1.391 . S
C1151 H1139 0.950 . S
C1151 C1147 1.393 . S
C1151 C1150 1.391 . S
H1152 C1160 0.950 . S
H1153 C1165 0.950 . S
H1154 C1162 0.950 . S
H1155 C1164 0.950 . S
H1156 C1166 0.950 . S
H1157 C1168 0.950 . S
H1158 C1170 0.950 . S
H1159 C1171 0.950 . S
C1160 H1152 0.950 . S
C1160 C1161 1.386 . S
C1160 C1162 1.391 1_554 S
C1161 C1160 1.386 . S
C1161 C1165 1.393 . S
C1162 H1154 0.950 . S
C1162 C1160 1.391 1_556 S
C1162 C1163 1.400 . S
C1163 C1162 1.400 . S
C1163 C1164 1.398 1_556 S
C1163 C1169 1.491 . S
C1164 H1155 0.950 . S
C1164 C1163 1.398 1_554 S
C1164 C1165 1.391 . S
C1165 H1153 0.950 . S
C1165 C1161 1.393 . S
C1165 C1164 1.391 . S
C1166 H1156 0.950 . S
C1166 C1167 1.386 . S
C1166 C1168 1.391 . S
C1167 C1166 1.386 . S
C1167 C1171 1.393 . S
C1168 H1157 0.950 . S
C1168 C1166 1.391 . S
C1168 C1169 1.400 . S
C1169 C1163 1.491 . S
C1169 C1168 1.400 . S
C1169 C1170 1.398 . S
C1170 H1158 0.950 . S
C1170 C1169 1.398 . S
C1170 C1171 1.391 . S
C1171 H1159 0.950 . S
C1171 C1167 1.393 . S
C1171 C1170 1.391 . S
H1172 C1180 0.950 . S
H1173 C1185 0.950 . S
H1174 C1182 0.950 . S
H1175 C1184 0.950 . S
H1176 C1186 0.950 . S
H1177 C1188 0.950 1_556 S
H1178 C1190 0.950 . S
H1179 C1191 0.950 . S
C1180 H1172 0.950 . S
C1180 C1181 1.386 . S
C1180 C1182 1.391 . S
C1181 C1180 1.386 . S
C1181 C1185 1.393 . S
C1182 H1174 0.950 . S
C1182 C1180 1.391 . S
C1182 C1183 1.400 . S
C1183 C1182 1.400 . S
C1183 C1184 1.398 . S
C1183 C1189 1.491 . S
C1184 H1175 0.950 . S
C1184 C1183 1.398 . S
C1184 C1185 1.391 . S
C1185 H1173 0.950 . S
C1185 C1181 1.393 . S
C1185 C1184 1.391 . S
C1186 H1176 0.950 . S
C1186 C1187 1.386 . S
C1186 C1188 1.391 . S
C1187 C1186 1.386 . S
C1187 C1191 1.393 . S
C1188 H1177 0.950 1_554 S
C1188 C1186 1.391 . S
C1188 C1189 1.400 1_554 S
C1189 C1183 1.491 . S
C1189 C1188 1.400 1_556 S
C1189 C1190 1.398 . S
C1190 H1178 0.950 . S
C1190 C1189 1.398 . S
C1190 C1191 1.391 1_556 S
C1191 H1179 0.950 . S
C1191 C1187 1.393 . S
C1191 C1190 1.391 1_554 S
H1192 C1200 0.950 . S
H1193 C1205 0.950 . S
H1194 C1202 0.950 . S
H1195 C1204 0.950 . S
H1196 C1206 0.950 . S
H1197 C1208 0.950 . S
H1198 C1210 0.950 . S
H1199 C1211 0.950 . S
C1200 H1192 0.950 . S
C1200 C1201 1.386 . S
C1200 C1202 1.391 1_554 S
C1201 C1200 1.386 . S
C1201 C1205 1.393 . S
C1202 H1194 0.950 . S
C1202 C1200 1.391 1_556 S
C1202 C1203 1.400 . S
C1203 C1202 1.400 . S
C1203 C1204 1.398 1_556 S
C1203 C1209 1.491 . S
C1204 H1195 0.950 . S
C1204 C1203 1.398 1_554 S
C1204 C1205 1.391 . S
C1205 H1193 0.950 . S
C1205 C1201 1.393 . S
C1205 C1204 1.391 . S
C1206 H1196 0.950 . S
C1206 C1207 1.386 . S
C1206 C1208 1.391 . S
C1207 C1206 1.386 . S
C1207 C1211 1.393 . S
C1208 H1197 0.950 . S
C1208 C1206 1.391 . S
C1208 C1209 1.400 . S
C1209 C1203 1.491 . S
C1209 C1208 1.400 . S
C1209 C1210 1.398 . S
C1210 H1198 0.950 . S
C1210 C1209 1.398 . S
C1210 C1211 1.391 . S
C1211 H1199 0.950 . S
C1211 C1207 1.393 . S
C1211 C1210 1.391 . S
H1212 C1220 0.961 . S
H1213 C1225 0.950 . S
H1214 C1222 0.950 . S
H1215 C1224 0.950 . S
H1216 C1226 0.950 . S
H1217 C1228 0.950 . S
H1218 C1230 0.950 . S
H1219 C1231 0.950 . S
C1220 H1212 0.961 . S
C1220 C1221 1.347 1_556 S
C1220 C1222 1.420 . S
C1221 C1220 1.347 1_554 S
C1221 C1225 1.393 . S
C1222 H1214 0.950 . S
C1222 C1220 1.420 . S
C1222 C1223 1.400 . S
C1223 C1222 1.400 . S
C1223 C1224 1.398 1_556 S
C1223 C1229 1.491 . S
C1224 H1215 0.950 . S
C1224 C1223 1.398 1_554 S
C1224 C1225 1.391 . S
C1225 H1213 0.950 . S
C1225 C1221 1.393 . S
C1225 C1224 1.391 . S
C1226 H1216 0.950 . S
C1226 C1227 1.386 . S
C1226 C1228 1.391 . S
C1227 C1226 1.386 . S
C1227 C1231 1.393 . S
C1228 H1217 0.950 . S
C1228 C1226 1.391 . S
C1228 C1229 1.400 . S
C1229 C1223 1.491 . S
C1229 C1228 1.400 . S
C1229 C1230 1.398 . S
C1230 H1218 0.950 . S
C1230 C1229 1.398 . S
C1230 C1231 1.391 . S
C1231 H1219 0.950 . S
C1231 C1227 1.393 . S
C1231 C1230 1.391 . S
H1232 C1240 0.950 . S
H1233 C1245 0.950 . S
H1234 C1242 0.950 . S
H1235 C1244 0.950 . S
H1236 C1246 0.950 . S
H1237 C1248 0.950 . S
H1238 C1250 0.950 . S
H1239 C1251 0.950 . S
C1240 H1232 0.950 . S
C1240 C1241 1.386 . S
C1240 C1242 1.391 . S
C1241 C1240 1.386 . S
C1241 C1245 1.393 . S
C1242 H1234 0.950 . S
C1242 C1240 1.391 . S
C1242 C1243 1.400 . S
C1243 C1242 1.400 . S
C1243 C1244 1.398 . S
C1243 C1249 1.491 . S
C1244 H1235 0.950 . S
C1244 C1243 1.398 . S
C1244 C1245 1.391 . S
C1245 H1233 0.950 . S
C1245 C1241 1.393 . S
C1245 C1244 1.391 . S
C1246 H1236 0.950 . S
C1246 C1247 1.386 . S
C1246 C1248 1.391 . S
C1247 C1246 1.386 . S
C1247 C1251 1.393 . S
C1248 H1237 0.950 . S
C1248 C1246 1.391 . S
C1248 C1249 1.400 . S
C1249 C1243 1.491 . S
C1249 C1248 1.400 . S
C1249 C1250 1.398 . S
C1250 H1238 0.950 . S
C1250 C1249 1.398 . S
C1250 C1251 1.391 . S
C1251 H1239 0.950 . S
C1251 C1247 1.393 . S
C1251 C1250 1.391 . S
H1252 C1260 0.950 . S
H1253 C1265 0.950 . S
H1254 C1262 0.950 . S
H1255 C1264 0.950 . S
H1256 C1266 0.950 . S
H1257 C1268 0.950 . S
H1258 C1270 0.950 . S
H1259 C1271 0.950 . S
C1260 H1252 0.950 . S
C1260 C1261 1.386 . S
C1260 C1262 1.391 . S
C1261 C1260 1.386 . S
C1261 C1265 1.393 . S
C1262 H1254 0.950 . S
C1262 C1260 1.391 . S
C1262 C1263 1.400 . S
C1263 C1262 1.400 . S
C1263 C1264 1.398 . S
C1263 C1269 1.491 . S
C1264 H1255 0.950 . S
C1264 C1263 1.398 . S
C1264 C1265 1.391 . S
C1265 H1253 0.950 . S
C1265 C1261 1.393 . S
C1265 C1264 1.391 . S
C1266 H1256 0.950 . S
C1266 C1267 1.386 . S
C1266 C1268 1.391 . S
C1267 C1266 1.386 . S
C1267 C1271 1.393 . S
C1268 H1257 0.950 . S
C1268 C1266 1.391 . S
C1268 C1269 1.400 . S
C1269 C1263 1.491 . S
C1269 C1268 1.400 . S
C1269 C1270 1.398 . S
C1270 H1258 0.950 . S
C1270 C1269 1.398 . S
C1270 C1271 1.391 . S
C1271 H1259 0.950 . S
C1271 C1267 1.393 . S
C1271 C1270 1.391 . S
H1272 C1280 0.950 . S
H1273 C1285 0.950 . S
H1274 C1282 0.950 . S
H1275 C1284 0.950 . S
H1276 C1286 0.950 . S
H1277 C1288 0.950 . S
H1278 C1290 0.950 . S
H1279 C1291 0.950 . S
C1280 H1272 0.950 . S
C1280 C1281 1.386 . S
C1280 C1282 1.391 . S
C1281 C1280 1.386 . S
C1281 C1285 1.393 . S
C1282 H1274 0.950 . S
C1282 C1280 1.391 . S
C1282 C1283 1.400 . S
C1283 C1282 1.400 . S
C1283 C1284 1.398 . S
C1283 C1289 1.491 . S
C1284 H1275 0.950 . S
C1284 C1283 1.398 . S
C1284 C1285 1.391 . S
C1285 H1273 0.950 . S
C1285 C1281 1.393 . S
C1285 C1284 1.391 . S
C1286 H1276 0.950 . S
C1286 C1287 1.386 . S
C1286 C1288 1.391 . S
C1287 C1286 1.386 . S
C1287 C1291 1.393 . S
C1288 H1277 0.950 . S
C1288 C1286 1.391 . S
C1288 C1289 1.400 . S
C1289 C1283 1.491 . S
C1289 C1288 1.400 . S
C1289 C1290 1.398 . S
C1290 H1278 0.950 . S
C1290 C1289 1.398 . S
C1290 C1291 1.391 . S
C1291 H1279 0.950 . S
C1291 C1287 1.393 . S
C1291 C1290 1.391 . S
H1292 C1300 0.950 . S
H1293 C1305 0.950 . S
H1294 C1302 0.950 . S
H1295 C1304 0.950 . S
H1296 C1306 0.950 . S
H1297 C1308 0.950 . S
H1298 C1310 0.950 . S
H1299 C1311 0.950 . S
C1300 H1292 0.950 . S
C1300 C1301 1.386 . S
C1300 C1302 1.391 . S
C1301 C1300 1.386 . S
C1301 C1305 1.393 . S
C1302 H1294 0.950 . S
C1302 C1300 1.391 . S
C1302 C1303 1.400 . S
C1303 C1302 1.400 . S
C1303 C1304 1.398 . S
C1303 C1309 1.491 . S
C1304 H1295 0.950 . S
C1304 C1303 1.398 . S
C1304 C1305 1.391 . S
C1305 H1293 0.950 . S
C1305 C1301 1.393 . S
C1305 C1304 1.391 . S
C1306 H1296 0.950 . S
C1306 C1307 1.386 . S
C1306 C1308 1.391 . S
C1307 C1306 1.386 . S
C1307 C1311 1.393 . S
C1308 H1297 0.950 . S
C1308 C1306 1.391 . S
C1308 C1309 1.400 . S
C1309 C1303 1.491 . S
C1309 C1308 1.400 . S
C1309 C1310 1.398 . S
C1310 H1298 0.950 . S
C1310 C1309 1.398 . S
C1310 C1311 1.391 . S
C1311 H1299 0.950 . S
C1311 C1307 1.393 . S
C1311 C1310 1.391 . S
C361 C10 1.363 . S
C367 C120 1.363 . S
C381 C30 1.366 . S
C387 C150 1.367 . S
C401 C172 1.365 . S
C407 C52 1.364 . S
C421 C98 1.368 . S
C427 C76 1.366 . S
C441 C194 1.359 . S
C447 C296 1.356 . S
C461 C206 1.357 . S
C467 C316 1.362 . S
C481 C238 1.366 . S
C487 C340 1.367 . S
C501 C252 1.367 . S
C507 C272 1.364 . S
C521 C7 0.836 . S
C527 C191 0.835 . S
C541 C37 0.814 . S
C547 C205 0.810 . S
C561 C235 0.800 . S
C567 C59 0.804 . S
C581 C263 0.794 . S
C587 C73 0.798 . S
C601 C95 0.842 . S
C607 C271 0.841 . S
C621 C117 0.842 . S
C627 C307 0.842 . S
C641 C315 0.830 . S
C647 C153 0.832 . S
C661 C351 0.796 . S
C667 C175 0.798 . S
C681 C18 1.585 . S
C687 C40 1.550 . S
C701 C32 1.582 . S
C707 C62 1.554 . S
C721 C74 1.542 1_655 S
C727 C54 1.586 . S
C741 C84 1.580 . S
C747 C8 1.552 1_565 S
C761 C106 1.587 . S
C767 C164 1.541 1_455 S
C781 C128 1.587 . S
C787 C96 1.541 1_545 S
C801 C140 1.580 . S
C807 C118 1.558 . S
C821 C162 1.575 . S
C827 C142 1.566 . S
C841 C186 1.561 . S
C847 C208 1.562 . S
C861 C228 1.544 . S
C867 C216 1.577 . S
C881 C260 1.556 1_455 S
C887 C230 1.564 . S
C901 C184 1.561 1_545 S
C907 C250 1.561 . S
C921 C282 1.562 . S
C927 C348 1.563 1_655 S
C941 C294 1.564 . S
C947 C274 1.557 1_565 S
C961 C304 1.551 . S
C967 C326 1.573 . S
C981 C338 1.575 . S
C987 C318 1.543 . S
C1001 C15 1.555 . S
C1007 C213 1.578 . S
C1021 C241 1.579 . S
C1027 C43 1.553 . S
C1041 C65 1.545 . S
C1047 C249 1.580 . S
C1061 C197 1.569 . S
C1067 C81 1.563 . S
C1081 C103 1.563 . S
C1087 C337 1.569 . S
C1101 C279 1.568 . S
C1107 C125 1.559 . S
C1121 C293 1.580 . S
C1127 C139 1.550 . S
C1141 C161 1.559 . S
C1147 C323 1.575 . S
C1161 C29 1.577 . S
C1167 C183 1.544 . S
C1181 C219 1.542 . S
C1187 C51 1.577 . S
C1201 C87 1.568 . S
C1207 C227 1.560 . S
C1221 C21 1.573 . S
C1227 C257 1.555 . S
C1241 C169 1.566 . S
C1247 C285 1.561 . S
C1261 C301 1.553 . S
C1267 C109 1.566 . S
C1281 C329 1.542 . S
C1287 C131 1.575 . S
C1301 C345 1.543 . S
C1307 C147 1.577 . S
