# Generated by pormake.
# Topology noo, (5)-cn, num edge types: 1
# Building blocks:
#     Node 0, Type 0, BuildingBlock: XOMCOT_clean_sbu_1, # of connection points: 5
#     Node 1, Type 0, BuildingBlock: XOMCOT_clean_sbu_1, # of connection points: 5
#     Node 2, Type 0, BuildingBlock: XOMCOT_clean_sbu_1, # of connection points: 5
#     Node 3, Type 0, BuildingBlock: XOMCOT_clean_sbu_1, # of connection points: 5
#     Node 4, Type 0, BuildingBlock: XOMCOT_clean_sbu_1, # of connection points: 5
#     Node 5, Type 0, BuildingBlock: XOMCOT_clean_sbu_1, # of connection points: 5
#     Node 6, Type 0, BuildingBlock: XOMCOT_clean_sbu_1, # of connection points: 5
#     Node 7, Type 0, BuildingBlock: XOMCOT_clean_sbu_1, # of connection points: 5
#     Edge 8, Type (0, 0), BuildingBlock: ZUJKAS_clean_linker_0, # of connection points: 2
#     Edge 9, Type (0, 0), BuildingBlock: ZUJKAS_clean_linker_0, # of connection points: 2
#     Edge 10, Type (0, 0), BuildingBlock: ZUJKAS_clean_linker_0, # of connection points: 2
#     Edge 11, Type (0, 0), BuildingBlock: ZUJKAS_clean_linker_0, # of connection points: 2
#     Edge 12, Type (0, 0), BuildingBlock: ZUJKAS_clean_linker_0, # of connection points: 2
#     Edge 13, Type (0, 0), BuildingBlock: ZUJKAS_clean_linker_0, # of connection points: 2
#     Edge 14, Type (0, 0), BuildingBlock: ZUJKAS_clean_linker_0, # of connection points: 2
#     Edge 15, Type (0, 0), BuildingBlock: ZUJKAS_clean_linker_0, # of connection points: 2
#     Edge 16, Type (0, 0), BuildingBlock: ZUJKAS_clean_linker_0, # of connection points: 2
#     Edge 17, Type (0, 0), BuildingBlock: ZUJKAS_clean_linker_0, # of connection points: 2
#     Edge 18, Type (0, 0), BuildingBlock: ZUJKAS_clean_linker_0, # of connection points: 2
#     Edge 19, Type (0, 0), BuildingBlock: ZUJKAS_clean_linker_0, # of connection points: 2
#     Edge 20, Type (0, 0), BuildingBlock: ZUJKAS_clean_linker_0, # of connection points: 2
#     Edge 21, Type (0, 0), BuildingBlock: ZUJKAS_clean_linker_0, # of connection points: 2
#     Edge 22, Type (0, 0), BuildingBlock: ZUJKAS_clean_linker_0, # of connection points: 2
#     Edge 23, Type (0, 0), BuildingBlock: ZUJKAS_clean_linker_0, # of connection points: 2
#     Edge 24, Type (0, 0), BuildingBlock: ZUJKAS_clean_linker_0, # of connection points: 2
#     Edge 25, Type (0, 0), BuildingBlock: ZUJKAS_clean_linker_0, # of connection points: 2
#     Edge 26, Type (0, 0), BuildingBlock: ZUJKAS_clean_linker_0, # of connection points: 2
#     Edge 27, Type (0, 0), BuildingBlock: ZUJKAS_clean_linker_0, # of connection points: 2
# Relax obj value: 0.065
# Max RMSD: 0.101
# Mean RMSD: 0.101
data_MOF--net-noo--node1-XOMCOT_clean_sbu_1--edge1-ZUJKAS_clean_linker_0
_symmetry_space_group_name_H-M    P1
_symmetry_Int_Tables_number       1
_symmetry_cell_setting            triclinic
loop_
_symmetry_equiv_pos_as_xyz
'x, y, z'
_cell_length_a     51.683455
_cell_length_b     51.717428
_cell_length_c     34.794919
_cell_angle_alpha  90.015752
_cell_angle_beta   89.927167
_cell_angle_gamma 90.009305
loop_
_atom_site_label
_atom_site_type_symbol
_atom_site_fract_x
_atom_site_fract_y
_atom_site_fract_z
_atom_type_partial_charge
C0 C 0.3895 0.24264 0.96313 0.0
C1 C 0.37281 0.26213 0.97313 0.0
N2 N 0.37629 0.26768 1.01056 0.0
N3 N 0.40342 0.23552 0.99414 0.0
C4 C 0.39504 0.25132 0.02268 0.0
H5 H 0.39174 0.23477 0.93458 0.0
Co6 Co 0.42981 0.21057 0.99367 0.0
C7 C 0.42358 0.18045 0.06848 0.0
O8 O 0.44749 0.172 0.06642 0.0
N9 N 0.45655 0.18563 0.99167 0.0
C10 C 0.49504 0.16716 0.98334 0.0
C11 C 0.4821 0.19023 0.98709 0.0
C12 C 0.45445 0.15954 0.98956 0.0
N13 N 0.47764 0.14783 0.98501 0.0
O14 O 0.40861 0.18843 0.96085 0.0
H15 H 0.49093 0.20913 0.98585 0.0
H16 H 0.43619 0.14936 0.99122 0.0
O17 O 0.41485 0.19547 0.04205 0.0
C18 C 0.41772 0.19004 0.92662 0.0
O19 O 0.43806 0.20485 0.92107 0.0
N20 N 0.45173 0.23373 0.0202 0.0
C21 C 0.49355 0.26568 0.0391 0.0
C22 C 0.48346 0.24805 0.066 0.0
C23 C 0.4623 0.23236 0.05613 0.0
C24 C 0.46013 0.252 0.99487 0.0
C25 C 0.4809 0.26816 1.00368 0.0
H26 H 0.45548 0.21863 0.07691 0.0
H27 H 0.45177 0.25279 0.96641 0.0
H28 H 0.40279 0.25105 0.05157 0.0
H29 H 0.35983 0.27219 0.95385 0.0
H30 H 0.51574 0.16484 0.98005 0.0
H31 H 0.49233 0.24585 0.09399 0.0
H32 H 0.48801 0.28126 0.98181 0.0
C33 C 0.75612 0.43047 0.96878 0.0
C34 C 0.73293 0.41754 0.967 0.0
N35 N 0.73298 0.39876 0.99383 0.0
N36 N 0.77093 0.41994 0.99652 0.0
C37 C 0.75634 0.40052 1.01122 0.0
H38 H 0.76152 0.44711 0.95176 0.0
Co39 Co 0.80368 0.43279 1.01019 0.0
C40 C 0.79966 0.41405 0.09372 0.0
O41 O 0.79047 0.43644 0.1048 0.0
N42 N 0.83712 0.44523 0.02368 0.0
C43 C 0.87023 0.45979 0.05847 0.0
C44 C 0.84469 0.45274 0.05916 0.0
C45 C 0.85861 0.44846 1.00169 0.0
N46 N 0.87901 0.45709 0.02236 0.0
O47 O 0.81936 0.40594 0.97817 0.0
H48 H 0.83243 0.45385 0.08409 0.0
H49 H 0.85955 0.44436 0.97127 0.0
O50 O 0.80497 0.4102 0.05795 0.0
C51 C 0.81925 0.41588 0.94435 0.0
O52 O 0.81153 0.44001 0.94118 0.0
N53 N 0.78732 0.46189 0.03469 0.0
C54 C 0.75994 0.50804 0.04862 0.0
C55 C 0.74937 0.48398 0.05864 0.0
C56 C 0.76314 0.46121 0.05094 0.0
C57 C 0.7976 0.48531 0.02451 0.0
C58 C 0.78461 0.50845 0.03194 0.0
H59 H 0.75389 0.44297 0.05723 0.0
H60 H 0.81528 0.48631 1.00803 0.0
H61 H 0.76247 0.38826 0.03469 0.0
H62 H 0.71685 0.42231 0.94841 0.0
H63 H 0.88138 0.46694 0.08256 0.0
H64 H 0.73027 0.48266 0.0713 0.0
H65 H 0.79317 0.52642 0.02227 0.0
C66 C 0.58384 0.76581 0.97128 0.0
C67 C 0.59616 0.74233 0.96878 0.0
N68 N 0.61354 0.7407 0.99754 0.0
N69 N 0.59326 0.77904 1.00152 0.0
C70 C 0.61163 0.76341 0.01669 0.0
H71 H 0.56834 0.77252 0.95297 0.0
Co72 Co 0.57992 0.81087 0.01767 0.0
C73 C 0.59596 0.80304 0.10193 0.0
O74 O 0.57343 0.79309 0.11088 0.0
N75 N 0.56672 0.84351 0.03386 0.0
C76 C 0.54735 0.87336 0.07 0.0
C77 C 0.557 0.84873 0.06911 0.0
C78 C 0.56275 0.8657 1.01383 0.0
N79 N 0.55082 0.88405 0.03519 0.0
O80 O 0.6081 0.82783 0.99054 0.0
H81 H 0.5556 0.83521 0.09248 0.0
H82 H 0.56746 0.86815 0.9838 0.0
O83 O 0.60061 0.80984 0.067 0.0
C84 C 0.60023 0.83121 0.95597 0.0
O85 O 0.57629 0.82476 0.94763 0.0
N86 N 0.54989 0.79348 0.03757 0.0
C87 C 0.503 0.7662 0.04518 0.0
C88 C 0.52647 0.75521 0.05716 0.0
C89 C 0.5497 0.7689 0.05235 0.0
C90 C 0.52709 0.80412 0.02544 0.0
C91 C 0.50358 0.7912 0.02978 0.0
H92 H 0.5676 0.75928 0.05948 0.0
H93 H 0.52697 0.82225 1.01008 0.0
H94 H 0.62244 0.76799 0.0424 0.0
H95 H 0.59232 0.72746 0.94765 0.0
H96 H 0.53811 0.88258 0.09435 0.0
H97 H 0.52712 0.73565 0.06823 0.0
H98 H 0.48605 0.80048 0.01976 0.0
C99 C 0.25639 0.57048 1.01242 0.0
C100 C 0.279 0.58384 1.00696 0.0
N101 N 0.27517 0.60857 0.01758 0.0
N102 N 0.23823 0.58645 0.02704 0.0
C103 C 0.25011 0.6098 0.02887 0.0
H104 H 0.25344 0.55023 1.00612 0.0
Co105 Co 0.20413 0.57544 0.0374 0.0
C106 C 0.21475 0.6084 0.11089 0.0
O107 O 0.24005 0.60926 0.10782 0.0
N108 N 0.17035 0.56406 0.04708 0.0
C109 C 0.13656 0.5484 0.07888 0.0
C110 C 0.16102 0.55833 0.08229 0.0
C111 C 0.15116 0.55732 0.02257 0.0
N112 N 0.13035 0.54757 0.04131 0.0
O113 O 0.19083 0.60325 1.00554 0.0
H114 H 0.17169 0.56033 0.10883 0.0
H115 H 0.15284 0.5585 0.99162 0.0
O116 O 0.20134 0.59652 0.08538 0.0
C117 C 0.19418 0.59641 0.97049 0.0
O118 O 0.20505 0.57388 0.96374 0.0
N119 N 0.21713 0.54614 0.06338 0.0
C120 C 0.24315 0.49992 0.07901 0.0
C121 C 0.24675 0.52176 0.10248 0.0
C122 C 0.23357 0.54486 0.09405 0.0
C123 C 0.21217 0.52457 0.04211 0.0
C124 C 0.22479 0.50133 0.04952 0.0
H125 H 0.23797 0.5618 0.11063 0.0
H126 H 0.19964 0.52588 0.01732 0.0
H127 H 0.24061 0.62734 0.0383 0.0
H128 H 0.29712 0.57576 0.99695 0.0
H129 H 0.1244 0.54197 0.10236 0.0
H130 H 0.26082 0.5215 0.12552 0.0
H131 H 0.22106 0.48489 0.03104 0.0
C132 C 0.93217 0.26209 0.55568 0.0
C133 C 0.92006 0.23849 0.55711 0.0
N134 N 0.9013 0.23805 0.53024 0.0
N135 N 0.9212 0.27668 0.52808 0.0
C136 C 0.90218 0.26163 0.51331 0.0
H137 H 0.94859 0.26795 0.57282 0.0
Co138 Co 0.93382 0.30941 0.51427 0.0
C139 C 0.91698 0.30446 0.4298 0.0
O140 O 0.93983 0.29587 0.41969 0.0
N141 N 0.94634 0.34274 0.50069 0.0
C142 C 0.96507 0.37426 0.46712 0.0
C143 C 0.95553 0.34961 0.46576 0.0
C144 C 0.95045 0.36397 0.52285 0.0
N145 N 0.96204 0.3833 0.50303 0.0
O146 O 0.9059 0.32502 0.54415 0.0
H147 H 0.95674 0.33721 0.44106 0.0
H148 H 0.94615 0.36492 0.55323 0.0
O149 O 0.91234 0.30983 0.46535 0.0
C150 C 0.91416 0.32471 0.57892 0.0
O151 O 0.93813 0.31725 0.58484 0.0
N152 N 0.96372 0.29321 0.4919 0.0
C153 C 0.01071 0.26673 0.48004 0.0
C154 C 0.98707 0.25603 0.46808 0.0
C155 C 0.96384 0.26926 0.47502 0.0
C156 C 0.98662 0.3035 0.50431 0.0
C157 C 0.01015 0.29096 0.49807 0.0
H158 H 0.94588 0.25983 0.46755 0.0
H159 H 0.98678 0.32089 0.52149 0.0
H160 H 0.89007 0.26734 0.48945 0.0
H161 H 0.92499 0.22275 0.57622 0.0
H162 H 0.97403 0.38461 0.44355 0.0
H163 H 0.98637 0.23724 0.45439 0.0
H164 H 0.02762 0.29958 0.50949 0.0
C165 C 0.75353 0.92612 0.5678 0.0
C166 C 0.77667 0.91313 0.57007 0.0
N167 N 0.77771 0.89572 0.54127 0.0
N168 N 0.73986 0.91702 0.53776 0.0
C169 C 0.75502 0.89834 0.52223 0.0
H170 H 0.74735 0.94181 0.58618 0.0
Co171 Co 0.70775 0.93061 0.52308 0.0
C172 C 0.71296 0.91381 0.43872 0.0
O173 O 0.72263 0.93626 0.42886 0.0
N174 N 0.67478 0.94395 0.50854 0.0
C175 C 0.64303 0.96066 0.47309 0.0
C176 C 0.66837 0.95293 0.47332 0.0
C177 C 0.65276 0.94693 0.52944 0.0
N178 N 0.63316 0.95686 0.50837 0.0
O179 O 0.69106 0.903 0.5519 0.0
H180 H 0.68136 0.95475 0.44932 0.0
H181 H 0.6509 0.94185 0.5594 0.0
O182 O 0.70726 0.90934 0.47416 0.0
C183 C 0.68867 0.91108 0.58656 0.0
O184 O 0.69574 0.93491 0.59438 0.0
N185 N 0.72501 0.96006 0.5012 0.0
C186 C 0.75247 0.00629 0.48827 0.0
C187 C 0.76301 0.98228 0.4778 0.0
C188 C 0.74924 0.95946 0.48513 0.0
C189 C 0.71492 0.98334 0.51237 0.0
C190 C 0.72795 0.00653 0.50546 0.0
H191 H 0.75837 0.94126 0.47827 0.0
H192 H 0.69721 0.98413 0.52881 0.0
H193 H 0.7498 0.88728 0.49703 0.0
H194 H 0.79199 0.91697 0.59047 0.0
H195 H 0.63282 0.96911 0.44903 0.0
H196 H 0.78202 0.98105 0.4648 0.0
H197 H 0.71944 0.02442 0.5156 0.0
C198 C 0.12293 0.74166 0.57345 0.0
C199 C 0.1395 0.76125 0.56344 0.0
N200 N 0.13576 0.76699 0.52613 0.0
N201 N 0.10881 0.73465 0.54257 0.0
C202 C 0.11697 0.75062 0.5141 0.0
H203 H 0.12092 0.73369 0.60195 0.0
Co204 Co 0.08236 0.70969 0.54308 0.0
C205 C 0.0887 0.67937 0.46842 0.0
O206 O 0.06486 0.67073 0.47068 0.0
N207 N 0.05558 0.68476 0.54512 0.0
C208 C 0.01701 0.66633 0.55301 0.0
C209 C 0.02999 0.68937 0.54911 0.0
C210 C 0.05765 0.65868 0.54776 0.0
N211 N 0.03442 0.64698 0.55208 0.0
O212 O 0.10345 0.68758 0.57614 0.0
H213 H 0.02113 0.70827 0.54982 0.0
H214 H 0.07593 0.64851 0.54663 0.0
O215 O 0.09737 0.69451 0.49474 0.0
C216 C 0.09432 0.68976 0.61029 0.0
O217 O 0.07427 0.70506 0.61529 0.0
N218 N 0.0605 0.7328 0.51637 0.0
C219 C 0.01865 0.76467 0.49727 0.0
C220 C 0.02876 0.74696 0.47048 0.0
C221 C 0.04992 0.7313 0.48046 0.0
C222 C 0.05209 0.75116 0.54158 0.0
C223 C 0.03131 0.76726 0.53268 0.0
H224 H 0.05671 0.71745 0.45981 0.0
H225 H 0.06045 0.75204 0.57004 0.0
H226 H 0.10902 0.75049 0.48533 0.0
H227 H 0.15256 0.77126 0.58267 0.0
H228 H 0.99628 0.66405 0.55589 0.0
H229 H 0.0199 0.74467 0.4425 0.0
H230 H 0.02419 0.78041 0.55448 0.0
C231 C 0.25525 0.07338 0.52541 0.0
C232 C 0.23321 0.08781 0.53031 0.0
N233 N 0.23803 0.11205 0.51827 0.0
N234 N 0.27399 0.08824 0.50984 0.0
C235 C 0.26307 0.11198 0.50679 0.0
H236 H 0.25738 0.05318 0.53268 0.0
Co237 Co 0.3076 0.07592 0.49947 0.0
C238 C 0.29757 0.10806 0.42515 0.0
O239 O 0.27224 0.10885 0.4278 0.0
N240 N 0.34092 0.06328 0.48965 0.0
C241 C 0.37381 0.04597 0.45761 0.0
C242 C 0.34967 0.05668 0.45443 0.0
C243 C 0.36017 0.05633 0.51393 0.0
N244 N 0.38041 0.04558 0.49503 0.0
O245 O 0.32198 0.10363 0.53045 0.0
H246 H 0.3388 0.05868 0.42806 0.0
H247 H 0.35892 0.0581 0.54486 0.0
O248 O 0.31084 0.09645 0.45107 0.0
C249 C 0.31854 0.09731 0.56568 0.0
O250 O 0.30708 0.07518 0.57313 0.0
N251 N 0.29351 0.04673 0.47451 0.0
C252 C 0.26687 1.00068 0.4597 0.0
C253 C 0.26426 0.02209 0.43508 0.0
C254 C 0.27774 0.0451 0.44309 0.0
C255 C 0.29743 0.02557 0.49709 0.0
C256 C 0.28449 1.00243 0.49015 0.0
H257 H 0.27431 0.06166 0.42523 0.0
H258 H 0.30955 0.02716 0.5223 0.0
H259 H 0.2732 0.12885 0.49621 0.0
H260 H 0.21478 0.08076 0.5408 0.0
H261 H 0.38549 0.03874 0.43411 0.0
H262 H 0.25085 0.02156 0.41122 0.0
H263 H 0.28753 0.98632 0.50951 0.0
H264 H 0.57371 0.91653 0.98401 0.0
H265 H 0.56082 0.96138 0.96994 0.0
H266 H 0.49526 0.95326 0.04573 0.0
H267 H 0.50805 0.9089 0.05994 0.0
H268 H 0.51454 0.98384 0.9412 0.0
H269 H 0.53379 0.01522 0.09081 0.0
H270 H 0.545 0.98466 0.07209 0.0
H271 H 0.51203 0.98825 0.0879 0.0
C272 C 0.55643 0.92431 0.99728 0.0
C273 C 0.54218 0.90939 0.02365 0.0
C274 C 0.54912 0.94989 0.98934 0.0
C275 C 0.52744 0.96084 1.00757 0.0
C276 C 0.51246 0.94547 0.0322 0.0
H277 H 0.45087 0.10946 0.02022 0.0
H278 H 0.46231 0.06349 0.02232 0.0
C279 C 0.51981 0.92011 0.04031 0.0
C280 C 0.52065 0.98849 1.00199 0.0
H281 H 0.51076 0.04479 0.05125 0.0
C282 C 0.5139 0.99725 0.96515 0.0
C283 C 0.5199 0.00598 0.0333 0.0
C284 C 0.52831 0.99816 0.07318 0.0
C285 C 0.50566 0.02286 0.95904 0.0
C286 C 0.50439 0.04012 0.99055 0.0
C287 C 0.51148 0.03143 0.02722 0.0
C288 C 0.4962 0.06746 0.98624 0.0
C289 C 0.49778 0.03111 0.91918 0.0
C290 C 0.51139 0.08489 0.96514 0.0
C291 C 0.50491 0.11113 0.96394 0.0
C292 C 0.48311 0.12048 0.98385 0.0
C293 C 0.46758 0.10284 1.00422 0.0
C294 C 0.47417 0.07661 1.0056 0.0
H295 H 0.4943 0.01426 0.90005 0.0
H296 H 0.47998 0.04313 0.92018 0.0
H297 H 0.51346 0.04297 0.90635 0.0
H298 H 0.52867 0.07833 0.95045 0.0
H299 H 0.51713 0.12416 0.9477 0.0
H300 H 0.89361 0.48072 0.95614 0.0
H301 H 0.93779 0.49484 0.93918 0.0
H302 H 0.96665 0.46043 0.04354 0.0
H303 H 0.92291 0.4466 0.06044 0.0
H304 H 0.96893 0.52826 0.98957 0.0
H305 H 0.01758 0.43529 0.95843 0.0
H306 H 0.9829 0.43938 0.95536 0.0
H307 H 0.99813 0.43439 1.00122 0.0
C308 C 0.90955 0.47577 0.9749 0.0
C309 C 0.90493 0.46265 1.00963 0.0
C310 C 0.93468 0.4839 0.96533 0.0
C311 C 0.95551 0.47844 0.98993 0.0
C312 C 0.95095 0.46453 0.02386 0.0
H313 H 0.10147 0.50902 0.07129 0.0
H314 H 0.05982 0.49345 0.04857 0.0
C315 C 0.92595 0.45679 0.03364 0.0
C316 C 0.98177 0.48898 0.98272 0.0
H317 H 0.04504 0.47023 0.97967 0.0
C318 C 0.98562 0.51574 0.98627 0.0
C319 C 1.00343 0.47256 0.97839 0.0
C320 C 1.00035 0.44381 0.97275 0.0
C321 C 0.01065 0.52626 0.98903 0.0
C322 C 0.03234 0.50955 0.98751 0.0
C323 C 0.02843 0.48303 0.98098 0.0
C324 C 0.05864 0.5184 0.99871 0.0
C325 C 0.01363 0.55484 0.99657 0.0
C326 C 0.07221 0.53734 0.97782 0.0
C327 C 0.09618 0.54653 0.99108 0.0
C328 C 0.10684 0.53694 0.02544 0.0
C329 C 0.09358 0.51729 0.04527 0.0
C330 C 0.06983 0.50816 0.03208 0.0
H331 H 0.99476 0.56445 1.00212 0.0
H332 H 0.02646 0.55816 0.02167 0.0
H333 H 0.02268 0.56419 0.9712 0.0
H334 H 0.06413 0.54524 0.95164 0.0
H335 H 0.10596 0.56163 0.97516 0.0
H336 H 1.00567 0.40782 0.48167 0.0
H337 H 0.01853 0.45188 0.49777 0.0
H338 H 0.95141 0.45949 0.57073 0.0
H339 H 0.93859 0.4149 0.55481 0.0
H340 H 0.98946 0.49442 0.48041 0.0
H341 H 0.00875 0.49052 0.63739 0.0
H342 H 0.0066 0.46179 0.60805 0.0
H343 H 0.97771 0.47838 0.62276 0.0
C344 C 0.99377 0.41878 0.50144 0.0
C345 C 0.97098 0.40805 0.51669 0.0
C346 C 1.00119 0.44393 0.51073 0.0
C347 C 0.98601 0.45902 0.53551 0.0
C348 C 0.96368 0.44808 0.55203 0.0
H349 H 0.99388 0.62365 0.58753 0.0
H350 H 0.98238 0.57779 0.5851 0.0
C351 C 0.95632 0.42267 0.5429 0.0
C352 C 0.99268 0.48673 0.54105 0.0
H353 H 0.01026 0.53187 0.60792 0.0
C354 C 0.99407 0.50256 0.50831 0.0
C355 C 0.99852 0.4974 0.57747 0.0
C356 C 0.99806 0.48116 0.61346 0.0
C357 C 1.00119 0.52867 0.5109 0.0
C358 C 0.00746 0.53925 0.54719 0.0
C359 C 1.00563 0.52363 0.58011 0.0
C360 C 0.01566 0.56662 0.55125 0.0
C361 C 1.00159 0.54484 0.47479 0.0
C362 C 0.03853 0.57546 0.5338 0.0
C363 C 0.04511 0.60171 0.53498 0.0
C364 C 0.02892 0.61962 0.55364 0.0
C365 C 0.00653 0.61048 0.57233 0.0
C366 C 1.00002 0.58424 0.57124 0.0
H367 H 0.99052 0.53561 0.45112 0.0
H368 H 0.9934 0.56436 0.48024 0.0
H369 H 0.02189 0.54726 0.46503 0.0
H370 H 0.05104 0.56211 0.51862 0.0
H371 H 0.06239 0.60807 0.52015 0.0
H372 H 0.59006 0.95236 0.46553 0.0
H373 H 0.5464 0.96645 0.48246 0.0
H374 H 0.57312 0.98931 0.59475 0.0
H375 H 0.61724 0.97509 0.57781 0.0
H376 H 0.51441 0.95126 0.55615 0.0
H377 H 0.53856 0.05549 0.53573 0.0
H378 H 0.55707 0.03069 0.51164 0.0
H379 H 0.55986 0.03461 0.56262 0.0
C380 C 0.58665 0.96027 0.4939 0.0
C381 C 0.6071 0.96285 0.52023 0.0
C382 C 0.56169 0.96818 0.5036 0.0
C383 C 0.55662 0.97905 0.53971 0.0
C384 C 0.57673 0.981 0.56667 0.0
H385 H 0.40717 0.06138 0.55811 0.0
H386 H 0.44921 0.04457 0.58022 0.0
C387 C 0.60182 0.97278 0.55707 0.0
C388 C 0.53037 0.98927 0.54766 0.0
H389 H 0.49452 0.04435 0.53844 0.0
C390 C 0.51006 0.97169 0.55323 0.0
C391 C 0.5248 0.01591 0.54414 0.0
C392 C 0.5461 0.03545 0.53818 0.0
C393 C 0.48416 0.97992 0.55319 0.0
C394 C 0.47844 0.0063 0.54632 0.0
C395 C 0.49887 0.02413 0.54356 0.0
C396 C 0.45189 0.01505 0.53627 0.0
C397 C 0.46313 0.9601 0.55926 0.0
C398 C 0.43947 1.00409 0.50436 0.0
C399 C 0.41571 0.01361 0.49182 0.0
C400 C 0.40378 0.03452 0.51063 0.0
C401 C 0.41583 0.04514 0.54325 0.0
C402 C 0.43984 0.03562 0.55577 0.0
H403 H 0.46999 0.94408 0.57791 0.0
H404 H 0.44564 0.96886 0.57247 0.0
H405 H 0.45768 0.95161 0.53111 0.0
H406 H 0.44857 0.98864 0.48825 0.0
H407 H 0.40681 1.00477 0.46693 0.0
H408 H 0.25745 0.47314 0.14431 0.0
H409 H 0.28398 0.43361 0.14776 0.0
H410 H 0.29282 0.43467 0.02455 0.0
H411 H 0.26692 0.47393 0.02096 0.0
H412 H 0.27394 0.38527 0.11149 0.0
H413 H 0.36734 0.42576 0.06263 0.0
H414 H 0.34123 0.44581 0.08012 0.0
H415 H 0.34121 0.43438 0.03124 0.0
C416 C 0.26532 0.46504 0.11808 0.0
C417 C 0.25989 0.47656 0.08235 0.0
C418 C 0.28039 0.44245 0.12006 0.0
C419 C 0.29067 0.43136 0.08644 0.0
C420 C 0.28549 0.44307 0.05093 0.0
H421 H 0.32743 0.28465 1.00069 0.0
H422 H 0.30789 0.32335 0.02825 0.0
C423 C 0.27039 0.46538 0.04891 0.0
C424 C 0.30572 0.40684 0.08746 0.0
H425 H 0.36168 0.37976 0.05405 0.0
C426 C 0.29334 0.38411 0.09969 0.0
C427 C 0.3312 0.4053 0.07267 0.0
C428 C 0.34613 0.42917 0.06129 0.0
C429 C 0.30504 0.35975 0.09491 0.0
C430 C 0.32961 0.35806 0.07698 0.0
C431 C 0.34274 0.38094 0.0674 0.0
C432 C 0.34074 0.33294 0.06405 0.0
C433 C 0.29069 0.33601 0.10827 0.0
C434 C 0.36585 0.32534 0.07476 0.0
C435 C 0.37718 0.30312 0.05874 0.0
C436 C 0.36373 0.2884 0.03125 0.0
C437 C 0.33835 0.29568 0.02156 0.0
C438 C 0.32703 0.31768 0.03766 0.0
H439 H 0.27746 0.34063 0.13252 0.0
H440 H 0.27872 0.32847 0.08429 0.0
H441 H 0.30424 0.32055 0.1175 0.0
H442 H 0.3769 0.33695 0.0948 0.0
H443 H 0.39684 0.29816 0.06647 0.0
H444 H 0.53823 0.2468 0.07078 0.0
H445 H 0.58067 0.26784 0.07324 0.0
H446 H 0.54794 0.33668 0.02315 0.0
H447 H 0.50541 0.31602 0.02142 0.0
H448 H 0.60771 0.28473 1.00966 0.0
H449 H 0.59182 0.36632 0.10997 0.0
H450 H 0.57003 0.33908 0.10706 0.0
H451 H 0.56804 0.36486 0.07248 0.0
C452 C 0.53989 0.26668 0.06133 0.0
C453 C 0.51836 0.27972 0.04594 0.0
C454 C 0.56423 0.27862 0.06247 0.0
C455 C 0.56752 0.30394 0.04868 0.0
C456 C 0.54587 0.31732 0.03458 0.0
H457 H 0.69645 0.38058 0.9453 0.0
H458 H 0.65788 0.35564 0.96187 0.0
C459 C 0.52157 0.30538 0.0333 0.0
C460 C 0.59383 0.31558 0.0458 0.0
H461 H 0.62913 0.36928 0.069 0.0
C462 C 0.61249 0.30305 0.02307 0.0
C463 C 0.60024 0.33935 0.06359 0.0
C464 C 0.58157 0.35308 0.08996 0.0
C465 C 0.6369 0.31418 0.01628 0.0
C466 C 0.64276 0.33864 0.03228 0.0
C467 C 0.62457 0.35063 0.05644 0.0
C468 C 0.66697 0.35275 0.02239 0.0
C469 C 0.65614 0.29974 0.99169 0.0
C470 C 0.68491 0.35966 0.05093 0.0
C471 C 0.70708 0.37402 0.04148 0.0
C472 C 0.71148 0.38207 1.00338 0.0
C473 C 0.69357 0.37485 0.97491 0.0
C474 C 0.6716 0.3604 0.98431 0.0
H475 H 0.65186 0.2787 0.99091 0.0
H476 H 0.65514 0.30718 0.96181 0.0
H477 H 0.67618 0.30256 1.00236 0.0
H478 H 0.68165 0.35412 0.08057 0.0
H479 H 0.7203 0.37953 0.06414 0.0
H480 H 0.65979 0.74016 0.03485 0.0
H481 H 0.68601 0.70205 0.0508 0.0
H482 H 0.62881 0.65268 0.99849 0.0
H483 H 0.60241 0.69038 0.98318 0.0
H484 H 0.64676 0.63574 0.07251 0.0
H485 H 0.72748 0.65807 0.9718 0.0
H486 H 0.71828 0.68329 1.0047 0.0
H487 H 0.69612 0.67325 0.96794 0.0
C488 C 0.65276 0.72118 0.02692 0.0
C489 C 0.62909 0.71841 1.00736 0.0
C490 C 0.66785 0.69944 0.0358 0.0
C491 C 0.65951 0.67454 0.02541 0.0
C492 C 0.63571 0.67171 1.00657 0.0
H493 H 0.70875 0.51544 0.03162 0.0
H494 H 0.68481 0.55613 0.0304 0.0
C495 C 0.62073 0.69336 0.99753 0.0
C496 C 0.67539 0.65127 0.03392 0.0
H497 H 0.73126 0.62023 1.00883 0.0
C498 C 0.66531 0.63239 0.05877 0.0
C499 C 0.69962 0.64698 1.0161 0.0
C500 C 0.71106 0.66632 0.98841 0.0
C501 C 0.67873 0.60925 0.06609 0.0
C502 C 0.70261 0.60457 0.04733 0.0
C503 C 0.71296 0.62376 0.02319 0.0
C504 C 0.71666 0.57953 0.05094 0.0
C505 C 0.66726 0.59017 0.09413 0.0
C506 C 0.7427 0.57902 0.06245 0.0
C507 C 0.75651 0.55572 0.06301 0.0
C508 C 0.74461 0.53239 0.05193 0.0
C509 C 0.71839 0.5329 0.04112 0.0
C510 C 0.70464 0.55622 0.04041 0.0
H511 H 0.65401 0.59984 0.11479 0.0
H512 H 0.65583 0.57557 0.07806 0.0
H513 H 0.68257 0.57996 0.11054 0.0
H514 H 0.75244 0.59674 0.07059 0.0
H515 H 0.77662 0.55601 0.07169 0.0
H516 H 0.27944 0.64706 0.07036 0.0
H517 H 0.31644 0.67632 0.07877 0.0
H518 H 0.35281 0.6435 0.97837 0.0
H519 H 0.31611 0.61428 0.97008 0.0
H520 H 0.3852 0.6444 0.0406 0.0
H521 H 0.33955 0.74063 0.0199 0.0
H522 H 0.32438 0.72051 0.0555 0.0
H523 H 0.32386 0.7109 1.00588 0.0
C524 C 0.29506 0.64654 0.04963 0.0
C525 C 0.2949 0.62829 0.01964 0.0
C526 C 0.31623 0.66324 0.05447 0.0
C527 C 0.33743 0.66218 0.02913 0.0
C528 C 0.33678 0.64461 0.99841 0.0
H529 H 0.46571 0.76433 0.98951 0.0
H530 H 0.42556 0.73956 0.9894 0.0
C531 C 0.31579 0.62791 0.9937 0.0
C532 C 0.36103 0.67813 0.03551 0.0
H533 H 0.38352 0.74025 0.03869 0.0
C534 C 0.38482 0.66537 0.04034 0.0
C535 C 0.36056 0.70548 0.03494 0.0
C536 C 0.33579 0.72027 0.02846 0.0
C537 C 0.40813 0.67913 0.04405 0.0
C538 C 0.40767 0.70649 0.04368 0.0
C539 C 0.38385 0.71928 0.0393 0.0
C540 C 0.43184 0.72213 0.04511 0.0
C541 C 0.43316 0.66422 0.0469 0.0
C542 C 0.44875 0.72082 0.07668 0.0
C543 C 0.47186 0.73506 0.07687 0.0
C544 C 0.47836 0.75113 0.04568 0.0
C545 C 0.46118 0.75255 1.01436 0.0
C546 C 0.4382 0.7383 1.01415 0.0
H547 H 0.43077 0.64374 0.03794 0.0
H548 H 0.44841 0.67321 0.0288 0.0
H549 H 0.43991 0.66438 0.07715 0.0
H550 H 0.44405 0.70882 0.10121 0.0
H551 H 0.48449 0.73372 0.1016 0.0
H552 H 0.73489 0.05422 0.46653 0.0
H553 H 0.7589 0.09504 0.46587 0.0
H554 H 0.82791 0.05484 0.5014 0.0
H555 H 0.80411 0.01404 0.50224 0.0
H556 H 0.78264 0.11862 0.5267 0.0
H557 H 0.85495 0.09835 0.41315 0.0
H558 H 0.82642 0.0787 0.41988 0.0
H559 H 0.85439 0.07399 0.44985 0.0
C560 C 0.75524 0.05402 0.47395 0.0
C561 C 0.76756 0.03076 0.48432 0.0
C562 C 0.76895 0.07738 0.47345 0.0
C563 C 0.79532 0.07802 0.48306 0.0
C564 C 0.80776 0.0548 0.49291 0.0
H565 H 0.91318 0.18735 0.53888 0.0
H566 H 0.8858 0.1502 0.52478 0.0
C567 C 0.79409 0.03143 0.49335 0.0
C568 C 0.80942 0.10309 0.48525 0.0
H569 H 0.8639 0.13434 0.45441 0.0
C570 C 0.80021 0.12222 0.51048 0.0
C571 C 0.83233 0.10783 0.46404 0.0
C572 C 0.84248 0.08873 0.43492 0.0
C573 C 0.81387 0.14542 0.51636 0.0
C574 C 0.83721 0.14978 0.49605 0.0
C575 C 0.84603 0.13097 0.47002 0.0
C576 C 0.8537 0.17282 0.50346 0.0
C577 C 0.80383 0.16457 0.54551 0.0
C578 C 0.84494 0.19802 0.49567 0.0
C579 C 0.8606 0.21948 0.50398 0.0
C580 C 0.88528 0.21612 0.52028 0.0
C581 C 0.8941 0.19078 0.52717 0.0
C582 C 0.87854 0.16944 0.51879 0.0
H583 H 0.78844 0.15613 0.56395 0.0
H584 H 0.81976 0.17157 0.56421 0.0
H585 H 0.79559 0.18152 0.53029 0.0
H586 H 0.82598 0.20108 0.48327 0.0
H587 H 0.85322 0.23869 0.49831 0.0
H588 H 0.97414 0.74586 0.46484 0.0
H589 H 0.9317 0.76681 0.46209 0.0
H590 H 0.96397 0.83542 0.5136 0.0
H591 H 0.00654 0.81491 0.51544 0.0
H592 H 0.90398 0.78284 0.52455 0.0
H593 H 0.92069 0.86596 0.42758 0.0
H594 H 0.94274 0.83895 0.43044 0.0
H595 H 0.94396 0.86437 0.46572 0.0
C596 C 0.9724 0.76568 0.47452 0.0
C597 C 0.99383 0.77868 0.49034 0.0
C598 C 0.94804 0.77757 0.47323 0.0
C599 C 0.9446 0.8028 0.48733 0.0
C600 C 0.96614 0.81613 0.50189 0.0
H601 H 0.81323 0.87607 0.59031 0.0
H602 H 0.85226 0.85186 0.57396 0.0
C603 C 0.99047 0.80427 0.50326 0.0
C604 C 0.91823 0.81435 0.49003 0.0
H605 H 0.88305 0.86835 0.46807 0.0
C606 C 0.89932 0.80138 0.51176 0.0
C607 C 0.91194 0.83841 0.47301 0.0
C608 C 0.93082 0.85262 0.44755 0.0
C609 C 0.87479 0.8123 0.51831 0.0
C610 C 0.86906 0.83705 0.50319 0.0
C611 C 0.88751 0.84951 0.48002 0.0
C612 C 0.84462 0.85088 0.51286 0.0
C613 C 0.85528 0.79728 0.54161 0.0
C614 C 0.82736 0.85873 0.48394 0.0
C615 C 0.80496 0.87275 0.49325 0.0
C616 C 0.79959 0.87951 0.53164 0.0
C617 C 0.81684 0.87139 0.56047 0.0
C618 C 0.83908 0.8573 0.55119 0.0
H619 H 0.85949 0.77621 0.54115 0.0
H620 H 0.85607 0.80385 0.57195 0.0
H621 H 0.83533 0.80045 0.53076 0.0
H622 H 0.83133 0.85415 0.45412 0.0
H623 H 0.7923 0.87898 0.4703 0.0
H624 H 0.25385 0.97327 0.39438 0.0
H625 H 0.22753 0.93363 0.39058 0.0
H626 H 0.21623 0.93585 0.51333 0.0
H627 H 0.2418 0.9753 0.51721 0.0
H628 H 0.23696 0.88606 0.42662 0.0
H629 H 0.14279 0.92533 0.47392 0.0
H630 H 0.16893 0.94579 0.45765 0.0
H631 H 0.16828 0.93405 0.50636 0.0
C632 C 0.24544 0.96544 0.42042 0.0
C633 C 0.2501 0.97734 0.45612 0.0
C634 C 0.23049 0.94277 0.41824 0.0
C635 C 0.21959 0.93194 0.45162 0.0
C636 C 0.22399 0.94404 0.48709 0.0
H637 H 0.18452 0.78432 0.53581 0.0
H638 H 0.20362 0.82335 0.50867 0.0
C639 C 0.23893 0.96647 0.4893 0.0
C640 C 0.20483 0.90722 0.45044 0.0
H641 H 0.14904 0.87939 0.48315 0.0
C642 C 0.21753 0.88466 0.43823 0.0
C643 C 0.17929 0.90534 0.46491 0.0
C644 C 0.16393 0.92898 0.47606 0.0
C645 C 0.20609 0.86015 0.44274 0.0
C646 C 0.18148 0.85811 0.46046 0.0
C647 C 0.16803 0.88082 0.47 0.0
C648 C 0.1706 0.83283 0.47316 0.0
C649 C 0.22076 0.83663 0.42927 0.0
C650 C 0.14552 0.82505 0.46252 0.0
C651 C 0.13443 0.80265 0.47834 0.0
C652 C 0.14808 0.7879 0.50556 0.0
C653 C 0.17343 0.79535 0.51516 0.0
C654 C 0.18451 0.81755 0.49928 0.0
H655 H 0.23388 0.84148 0.40499 0.0
H656 H 0.23289 0.82926 0.45318 0.0
H657 H 0.20744 0.82098 0.42003 0.0
H658 H 0.13431 0.83665 0.44269 0.0
H659 H 0.11478 0.79756 0.47069 0.0
H660 H 0.05933 0.28567 0.46444 0.0
H661 H 0.1005 0.26238 0.46652 0.0
H662 H 0.05993 0.19141 0.49062 0.0
H663 H 0.01872 0.21456 0.48966 0.0
H664 H 0.11943 0.23388 0.53169 0.0
H665 H 0.11031 0.17243 0.40155 0.0
H666 H 0.09099 0.20112 0.40899 0.0
H667 H 0.08288 0.17159 0.43335 0.0
C668 C 0.05908 0.26509 0.47012 0.0
C669 C 0.03556 0.25207 0.47695 0.0
C670 C 0.08267 0.2518 0.47112 0.0
C671 C 0.08329 0.22514 0.47843 0.0
C672 C 0.05988 0.21191 0.48428 0.0
H673 H 0.1982 0.1219 0.5663 0.0
H674 H 0.16255 0.15222 0.55577 0.0
C675 C 0.03628 0.22521 0.48354 0.0
C676 C 0.10842 0.21141 0.48224 0.0
H677 H 0.1443 0.16185 0.44499 0.0
C678 C 0.12499 0.21829 0.51253 0.0
C679 C 0.11577 0.19125 0.45701 0.0
C680 C 0.09921 0.18373 0.42315 0.0
C681 C 0.14825 0.2049 0.51909 0.0
C682 C 0.15508 0.18406 0.4948 0.0
C683 C 0.13899 0.17779 0.46367 0.0
C684 C 0.17797 0.16751 0.50261 0.0
C685 C 0.16527 0.21299 0.55215 0.0
C686 C 0.19861 0.16616 0.47637 0.0
C687 C 0.21914 0.14891 0.48251 0.0
C688 C 0.2191 0.1324 0.51462 0.0
C689 C 0.1987 0.13431 0.54126 0.0
C690 C 0.17839 0.1517 0.53536 0.0
H691 H 0.16073 0.23291 0.56207 0.0
H692 H 0.16218 0.19959 0.57662 0.0
H693 H 0.18602 0.21207 0.54393 0.0
H694 H 0.19858 0.1781 0.4508 0.0
H695 H 0.23442 0.14764 0.46127 0.0
H696 H 0.43882 0.15138 0.12977 0.0
H697 H 0.41544 0.14208 0.1889 0.0
H698 H 0.35024 0.18605 0.14802 0.0
H699 H 0.37374 0.19566 0.08806 0.0
H700 H 0.39551 0.17844 0.24331 0.0
H701 H 0.3183 0.11572 0.18247 0.0
H702 H 0.3478 0.12278 0.15664 0.0
H703 H 0.32286 0.14679 0.16021 0.0
C704 C 0.41945 0.15908 0.13298 0.0
C705 C 0.40822 0.17429 0.10379 0.0
C706 C 0.4061 0.15373 0.16706 0.0
C707 C 0.38099 0.16316 0.17302 0.0
C708 C 0.36949 0.17824 0.14397 0.0
H709 H 0.27515 0.13466 0.36576 0.0
H710 H 0.29513 0.14961 0.30612 0.0
C711 C 0.38297 0.18378 0.1097 0.0
C712 C 0.36743 0.1574 0.21009 0.0
H713 H 0.3172 0.1232 0.24917 0.0
C714 C 0.37831 0.16645 0.24458 0.0
C715 C 0.34496 0.14181 0.21188 0.0
C716 C 0.33277 0.13099 0.17595 0.0
C717 C 0.36739 0.1604 0.28063 0.0
C718 C 0.3453 0.14418 0.28256 0.0
C719 C 0.33416 0.13552 0.24796 0.0
C720 C 0.33351 0.13584 0.32001 0.0
C721 C 0.37944 0.1719 0.31622 0.0
C722 C 0.34828 0.12301 0.34815 0.0
C723 C 0.3369 0.1146 0.38268 0.0
C724 C 0.31034 0.11843 0.38974 0.0
C725 C 0.29564 0.13133 0.36153 0.0
C726 C 0.30706 0.13987 0.3272 0.0
H727 H 0.39042 0.1898 0.30947 0.0
H728 H 0.36455 0.17654 0.3382 0.0
H729 H 0.39321 0.15777 0.32873 0.0
H730 H 0.36857 0.11903 0.34317 0.0
H731 H 0.34887 0.10468 0.40349 0.0
H732 H 0.83837 0.37684 0.09423 0.0
H733 H 0.85461 0.35314 0.15075 0.0
H734 H 0.79496 0.38771 0.22058 0.0
H735 H 0.77848 0.41058 0.16475 0.0
H736 H 0.87458 0.374 0.21537 0.0
H737 H 0.79027 0.31495 0.25817 0.0
H738 H 0.79233 0.33051 0.21185 0.0
H739 H 0.78178 0.34839 0.25346 0.0
C740 C 0.82825 0.37866 0.12137 0.0
C741 C 0.80701 0.39553 0.12478 0.0
C742 C 0.83768 0.36531 0.15382 0.0
C743 C 0.82589 0.36829 0.19018 0.0
C744 C 0.80414 0.38442 0.19302 0.0
H745 H 0.87668 0.3401 0.4284 0.0
H746 H 0.85288 0.35505 0.37103 0.0
C747 C 0.7948 0.39769 0.16088 0.0
C748 C 0.83738 0.35661 0.22581 0.0
H749 H 0.82272 0.32151 0.30668 0.0
C750 C 0.86324 0.36231 0.23503 0.0
C751 C 0.8227 0.34142 0.25196 0.0
C752 C 0.79532 0.33324 0.24318 0.0
C753 C 0.87454 0.35379 0.26965 0.0
C754 C 0.85973 0.33907 0.29601 0.0
C755 C 0.83397 0.33314 0.28682 0.0
C756 C 0.87149 0.32835 0.33188 0.0
C757 C 0.90228 0.36079 0.27814 0.0
C758 C 0.88909 0.30785 0.32925 0.0
C759 C 0.90245 0.29924 0.36175 0.0
C760 C 0.89866 0.31088 0.39798 0.0
C761 C 0.87995 0.33056 0.40112 0.0
C762 C 0.86646 0.33921 0.36829 0.0
H763 H 0.90981 0.37577 0.25815 0.0
H764 H 0.90417 0.36798 0.3081 0.0
H765 H 0.91455 0.34328 0.27534 0.0
H766 H 0.89314 0.29898 0.30167 0.0
H767 H 0.91653 0.28391 0.35813 0.0
H768 H 0.72964 0.91519 0.36468 0.0
H769 H 0.71242 0.89228 0.30937 0.0
H770 H 0.66178 0.84874 0.3837 0.0
H771 H 0.67848 0.87255 0.43971 0.0
H772 H 0.7101 0.84396 0.28505 0.0
H773 H 0.61001 0.8789 0.31043 0.0
H774 H 0.63725 0.8909 0.33738 0.0
H775 H 0.62293 0.86022 0.34936 0.0
C776 C 0.71494 0.90062 0.36956 0.0
C777 C 0.70525 0.89603 0.40684 0.0
C778 C 0.70512 0.88743 0.33767 0.0
C779 C 0.68526 0.86915 0.34188 0.0
C780 C 0.67657 0.86328 0.37935 0.0
H781 H 0.59443 0.78381 0.17456 0.0
H782 H 0.61776 0.79872 0.23111 0.0
C783 C 0.68638 0.87665 0.41152 0.0
C784 C 0.67336 0.85728 0.30669 0.0
H785 H 0.61619 0.85056 0.25804 0.0
C786 C 0.68954 0.84541 0.27924 0.0
C787 C 0.64655 0.85934 0.29856 0.0
C788 C 0.62818 0.87324 0.32524 0.0
C789 C 0.67969 0.83539 0.24446 0.0
C790 C 0.65292 0.83736 0.23656 0.0
C791 C 0.63672 0.84904 0.26402 0.0
C792 C 0.64099 0.82678 0.20066 0.0
C793 C 0.69791 0.82242 0.21662 0.0
C794 C 0.64656 0.83718 0.16412 0.0
C795 C 0.63307 0.82864 0.13125 0.0
C796 C 0.6137 0.80961 0.13441 0.0
C797 C 0.60907 0.7986 0.17085 0.0
C798 C 0.6224 0.80713 0.20342 0.0
H799 H 0.71689 0.81795 0.23003 0.0
H800 H 0.68933 0.80422 0.20547 0.0
H801 H 0.70135 0.83545 0.1918 0.0
H802 H 0.66061 0.85259 0.16122 0.0
H803 H 0.63699 0.83772 0.10382 0.0
H804 H 0.13856 0.69451 0.44872 0.0
H805 H 0.16184 0.68521 0.38836 0.0
H806 H 0.09637 0.64165 0.34744 0.0
H807 H 0.07327 0.65054 0.40693 0.0
H808 H 0.17333 0.63416 0.3529 0.0
H809 H 0.11081 0.69526 0.26064 0.0
H810 H 0.11239 0.69915 0.31219 0.0
H811 H 0.09362 0.67339 0.29163 0.0
C812 C 0.12918 0.68289 0.4269 0.0
C813 C 0.10393 0.67341 0.43288 0.0
C814 C 0.14249 0.67761 0.39238 0.0
C815 C 0.13071 0.66305 0.36299 0.0
C816 C 0.10575 0.65329 0.36925 0.0
H817 H 0.16339 0.60582 0.13279 0.0
H818 H 0.14421 0.61961 0.19389 0.0
C819 C 0.09258 0.65836 0.40359 0.0
C820 C 0.14424 0.65757 0.32582 0.0
H821 H 0.13901 0.66606 0.22854 0.0
C822 C 0.16604 0.64139 0.32573 0.0
C823 C 0.13459 0.66675 0.29025 0.0
C824 C 0.11169 0.68478 0.28848 0.0
C825 C 0.17791 0.63346 0.29111 0.0
C826 C 0.16815 0.64249 0.25541 0.0
C827 C 0.14655 0.65902 0.25565 0.0
C828 C 0.17982 0.63478 0.21758 0.0
C829 C 0.20014 0.61461 0.29317 0.0
C830 C 0.20613 0.63924 0.20974 0.0
C831 C 0.21721 0.63116 0.17491 0.0
C832 C 0.20224 0.61865 0.14662 0.0
C833 C 0.17565 0.61511 0.15388 0.0
C834 C 0.16461 0.62306 0.1889 0.0
H835 H 0.2003 0.60392 0.32087 0.0
H836 H 0.19928 0.60036 0.26933 0.0
H837 H 0.21865 0.62538 0.29088 0.0
H838 H 0.21821 0.64894 0.23065 0.0
H839 H 0.23766 0.63455 0.17037 0.0
H840 H 0.58707 0.8693 0.90708 0.0
H841 H 0.60718 0.87977 0.84541 0.0
H842 H 0.66871 0.82584 0.86915 0.0
H843 H 0.64849 0.8154 0.9316 0.0
H844 H 0.65841 0.89766 0.82456 0.0
H845 H 0.63582 0.80011 0.7657 0.0
H846 H 0.62054 0.81236 0.80871 0.0
H847 H 0.65356 0.80175 0.81013 0.0
C848 C 0.60531 0.86023 0.8997 0.0
C849 C 0.6164 0.84181 0.92442 0.0
C850 C 0.61671 0.86609 0.86427 0.0
C851 C 0.63924 0.85332 0.85218 0.0
C852 C 0.65114 0.83575 0.87759 0.0
H853 H 0.70776 0.86652 0.61881 0.0
H854 H 0.69717 0.85012 0.68351 0.0
C855 C 0.63984 0.83009 0.91353 0.0
C856 C 0.64922 0.85795 0.81237 0.0
H857 H 0.65307 0.8307 0.72269 0.0
C858 C 0.6575 0.88292 0.80242 0.0
C859 C 0.64812 0.83875 0.78332 0.0
C860 C 0.63891 0.81172 0.79216 0.0
C861 C 0.66424 0.88933 0.76437 0.0
C862 C 0.66195 0.87049 0.73489 0.0
C863 C 0.65462 0.84522 0.74505 0.0
C864 C 0.66598 0.87727 0.69343 0.0
C865 C 0.67376 0.91636 0.75614 0.0
C866 C 0.65109 0.89691 0.67645 0.0
C867 C 0.65708 0.90615 0.6397 0.0
C868 C 0.67768 0.89559 0.61849 0.0
C869 C 0.69135 0.87457 0.63407 0.0
C870 C 0.68549 0.86542 0.67125 0.0
H871 H 0.68201 0.92555 0.78227 0.0
H872 H 0.68873 0.91636 0.73323 0.0
H873 H 0.65727 0.92843 0.74642 0.0
H874 H 0.63555 0.90599 0.69241 0.0
H875 H 0.64648 0.92263 0.62869 0.0
H876 H 0.14359 0.66921 0.62067 0.0
H877 H 0.16232 0.65338 0.68158 0.0
H878 H 0.08984 0.66795 0.73908 0.0
H879 H 0.07116 0.68302 0.67923 0.0
H880 H 0.1683 0.6802 0.75086 0.0
H881 H 0.10513 0.59541 0.77472 0.0
H882 H 0.10725 0.61153 0.72883 0.0
H883 H 0.0868 0.62428 0.76626 0.0
C884 C 0.13158 0.66849 0.64618 0.0
C885 C 0.10585 0.67731 0.64492 0.0
C886 C 0.14232 0.65963 0.68104 0.0
C887 C 0.1274 0.65911 0.71501 0.0
C888 C 0.10166 0.66755 0.71336 0.0
H889 H 0.14946 0.6248 0.95992 0.0
H890 H 0.13367 0.6426 0.89843 0.0
C891 C 0.09104 0.67637 0.67892 0.0
C892 C 0.13859 0.65105 0.75281 0.0
H893 H 0.12812 0.61104 0.8297 0.0
C894 C 0.15969 0.66488 0.76789 0.0
C895 C 0.12729 0.63119 0.77538 0.0
C896 C 0.10554 0.61458 0.76032 0.0
C897 C 0.16931 0.65982 0.80506 0.0
C898 C 0.15769 0.64028 0.82781 0.0
C899 C 0.13677 0.62632 0.81262 0.0
C900 C 0.16813 0.63264 0.86619 0.0
C901 C 0.19155 0.67577 0.82003 0.0
C902 C 0.1928 0.62152 0.86874 0.0
C903 C 0.20167 0.61134 0.90352 0.0
C904 C 0.18623 0.61216 0.93685 0.0
C905 C 0.16197 0.62434 0.93493 0.0
C906 C 0.15288 0.63428 0.89974 0.0
H907 H 0.19382 0.69411 0.80374 0.0
H908 H 0.18884 0.68041 0.85094 0.0
H909 H 0.20975 0.66456 0.81704 0.0
H910 H 0.20479 0.61961 0.84333 0.0
H911 H 0.22037 0.60187 0.90402 0.0
H912 H 0.29067 0.10693 0.62946 0.0
H913 H 0.30567 0.12508 0.69023 0.0
H914 H 0.38049 0.13972 0.6396 0.0
H915 H 0.36503 0.1222 0.57796 0.0
H916 H 0.3421 0.10557 0.73419 0.0
H917 H 0.37014 0.20595 0.69755 0.0
H918 H 0.3512 0.18608 0.66554 0.0
H919 H 0.38578 0.18228 0.66787 0.0
C920 C 0.3101 0.11475 0.63095 0.0
C921 C 0.32658 0.11345 0.59882 0.0
C922 C 0.31874 0.12496 0.66586 0.0
C923 C 0.34422 0.13393 0.66984 0.0
C924 C 0.36055 0.1335 0.63729 0.0
H925 H 0.44137 0.17897 0.85934 0.0
H926 H 0.42211 0.16465 0.79925 0.0
C927 C 0.35173 0.12355 0.60195 0.0
C928 C 0.35393 0.14169 0.70876 0.0
H929 H 0.38389 0.19022 0.75857 0.0
C930 C 0.35104 0.1242 0.73951 0.0
C931 C 0.36559 0.16598 0.71603 0.0
C932 C 0.36815 0.18626 0.68511 0.0
C933 C 0.35997 0.13002 0.77679 0.0
C934 C 0.37197 0.15413 0.78387 0.0
C935 C 0.37467 0.17172 0.75326 0.0
C936 C 0.38337 0.16097 0.82204 0.0
C937 C 0.35722 0.10998 0.80801 0.0
C938 C 0.36815 0.16321 0.85557 0.0
C939 C 0.37927 0.17135 0.89054 0.0
C940 C 0.40573 0.17759 0.89238 0.0
C941 C 0.42089 0.1745 0.85903 0.0
C942 C 0.40989 0.16636 0.82445 0.0
H943 H 0.35259 0.09056 0.79617 0.0
H944 H 0.37525 0.10857 0.82519 0.0
H945 H 0.34129 0.11572 0.82765 0.0
H946 H 0.34756 0.15949 0.85443 0.0
H947 H 0.36702 0.17382 0.91554 0.0
H948 H 0.91557 0.29923 0.64614 0.0
H949 H 0.89602 0.31116 0.70729 0.0
H950 H 0.85798 0.37565 0.65282 0.0
H951 H 0.87738 0.36325 0.59061 0.0
H952 H 0.9051 0.35453 0.74626 0.0
H953 H 0.79977 0.34714 0.71843 0.0
H954 H 0.82363 0.33353 0.68634 0.0
H955 H 0.81669 0.36759 0.68513 0.0
C956 C 0.90261 0.31569 0.64689 0.0
C957 C 0.89798 0.33025 0.61341 0.0
C958 C 0.89149 0.32256 0.68206 0.0
C959 C 0.87542 0.34431 0.68508 0.0
C960 C 0.86992 0.35849 0.65135 0.0
H961 H 0.81161 0.4323 0.87144 0.0
H962 H 0.82498 0.41271 0.81145 0.0
C963 C 0.88097 0.35141 0.61571 0.0
C964 C 0.86625 0.35277 0.72407 0.0
H965 H 0.81233 0.3667 0.77743 0.0
C966 C 0.88477 0.35698 0.75309 0.0
C967 C 0.83975 0.35593 0.73333 0.0
C968 C 0.81876 0.35059 0.70433 0.0
C969 C 0.87766 0.36487 0.79044 0.0
C970 C 0.85118 0.36834 0.79958 0.0
C971 C 0.83263 0.36388 0.7707 0.0
C972 C 0.8425 0.3791 0.83749 0.0
C973 C 0.89865 0.37036 0.8194 0.0
C974 C 0.84753 0.36667 0.87286 0.0
C975 C 0.83981 0.37803 0.90802 0.0
C976 C 0.82699 0.40203 0.90835 0.0
C977 C 0.82164 0.41394 0.87274 0.0
C978 C 0.82918 0.40267 0.83805 0.0
H979 H 0.91804 0.37174 0.80573 0.0
H980 H 0.89469 0.38869 0.83497 0.0
H981 H 0.89923 0.35448 0.84082 0.0
H982 H 0.85742 0.34823 0.8733 0.0
H983 H 0.84415 0.36825 0.93475 0.0
loop_
_geom_bond_atom_site_label_1
_geom_bond_atom_site_label_2
_geom_bond_distance
_geom_bond_site_symmetry_2
_ccdc_geom_bond_type
C0 C1 1.351 . S
C0 N3 1.368 . S
C0 H5 0.931 . S
C1 C0 1.351 . S
C1 N2 1.373 1_556 S
C1 H29 0.930 . S
N2 C1 1.373 1_554 S
N2 C4 1.340 . S
N3 C0 1.368 . S
N3 C4 1.321 1_556 S
N3 Co6 2.135 . S
C4 N2 1.340 . S
C4 N3 1.321 1_554 S
C4 H28 0.930 . S
H5 C0 0.931 . S
Co6 N3 2.135 . S
Co6 N9 2.121 1_556 S
Co6 O14 2.053 . S
Co6 O17 2.040 1_556 S
Co6 N20 2.140 1_556 S
C7 O8 1.227 . S
C7 O17 1.265 . S
O8 C7 1.227 . S
N9 Co6 2.121 1_554 S
N9 C11 1.375 . S
N9 C12 1.313 1_554 S
C10 C11 1.338 . S
C10 N13 1.367 1_554 S
C10 H30 0.930 . S
C11 N9 1.375 . S
C11 C10 1.338 . S
C11 H15 0.931 . S
C12 N9 1.313 1_556 S
C12 N13 1.348 . S
C12 H16 0.930 . S
N13 C10 1.367 1_556 S
N13 C12 1.348 . S
O14 Co6 2.053 . S
O14 C18 1.253 . S
H15 C11 0.931 . S
H16 C12 0.930 . S
O17 Co6 2.040 1_554 S
O17 C7 1.265 . S
C18 O14 1.253 . S
C18 O19 1.227 . S
O19 C18 1.227 . S
N20 Co6 2.140 1_554 S
N20 C23 1.346 . S
N20 C24 1.345 1_554 S
C21 C22 1.387 . S
C21 C25 1.391 1_554 S
C22 C21 1.387 . S
C22 C23 1.369 . S
C22 H31 0.929 . S
C23 N20 1.346 . S
C23 C22 1.369 . S
C23 H26 0.928 . S
C24 N20 1.345 1_556 S
C24 C25 1.371 . S
C24 H27 0.931 . S
C25 C21 1.391 1_556 S
C25 C24 1.371 . S
C25 H32 0.930 . S
H26 C23 0.928 . S
H27 C24 0.931 . S
H28 C4 0.930 . S
H29 C1 0.930 . S
H30 C10 0.930 . S
H31 C22 0.929 . S
H32 C25 0.930 . S
C33 C34 1.351 . S
C33 N36 1.368 . S
C33 H38 0.931 . S
C34 C33 1.351 . S
C34 N35 1.373 1_556 S
C34 H62 0.930 . S
N35 C34 1.373 1_554 S
N35 C37 1.340 . S
N36 C33 1.368 . S
N36 C37 1.321 1_556 S
N36 Co39 2.135 . S
C37 N35 1.340 . S
C37 N36 1.321 1_554 S
C37 H61 0.930 . S
H38 C33 0.931 . S
Co39 N36 2.135 . S
Co39 N42 2.121 1_556 S
Co39 O47 2.053 . S
Co39 O50 2.040 1_556 S
Co39 N53 2.140 1_556 S
C40 O41 1.227 . S
C40 O50 1.265 . S
O41 C40 1.227 . S
N42 Co39 2.121 1_554 S
N42 C44 1.375 . S
N42 C45 1.313 1_554 S
C43 C44 1.338 . S
C43 N46 1.367 1_554 S
C43 H63 0.930 . S
C44 N42 1.375 . S
C44 C43 1.338 . S
C44 H48 0.931 . S
C45 N42 1.313 1_556 S
C45 N46 1.348 . S
C45 H49 0.930 . S
N46 C43 1.367 1_556 S
N46 C45 1.348 . S
O47 Co39 2.053 . S
O47 C51 1.253 . S
H48 C44 0.931 . S
H49 C45 0.930 . S
O50 Co39 2.040 1_554 S
O50 C40 1.265 . S
C51 O47 1.253 . S
C51 O52 1.227 . S
O52 C51 1.227 . S
N53 Co39 2.140 1_554 S
N53 C56 1.346 . S
N53 C57 1.345 1_554 S
C54 C55 1.387 . S
C54 C58 1.391 1_554 S
C55 C54 1.387 . S
C55 C56 1.369 . S
C55 H64 0.929 . S
C56 N53 1.346 . S
C56 C55 1.369 . S
C56 H59 0.928 . S
C57 N53 1.345 1_556 S
C57 C58 1.371 . S
C57 H60 0.931 . S
C58 C54 1.391 1_556 S
C58 C57 1.371 . S
C58 H65 0.930 . S
H59 C56 0.928 . S
H60 C57 0.931 . S
H61 C37 0.930 . S
H62 C34 0.930 . S
H63 C43 0.930 . S
H64 C55 0.929 . S
H65 C58 0.930 . S
C66 C67 1.351 . S
C66 N69 1.368 . S
C66 H71 0.931 . S
C67 C66 1.351 . S
C67 N68 1.373 1_556 S
C67 H95 0.930 . S
N68 C67 1.373 1_554 S
N68 C70 1.340 . S
N69 C66 1.368 . S
N69 C70 1.321 1_556 S
N69 Co72 2.135 . S
C70 N68 1.340 . S
C70 N69 1.321 1_554 S
C70 H94 0.930 . S
H71 C66 0.931 . S
Co72 N69 2.135 . S
Co72 N75 2.121 1_556 S
Co72 O80 2.053 . S
Co72 O83 2.040 1_556 S
Co72 N86 2.140 1_556 S
C73 O74 1.227 . S
C73 O83 1.265 . S
O74 C73 1.227 . S
N75 Co72 2.121 1_554 S
N75 C77 1.375 . S
N75 C78 1.313 1_554 S
C76 C77 1.338 . S
C76 N79 1.367 1_554 S
C76 H96 0.930 . S
C77 N75 1.375 . S
C77 C76 1.338 . S
C77 H81 0.931 . S
C78 N75 1.313 1_556 S
C78 N79 1.348 . S
C78 H82 0.930 . S
N79 C76 1.367 1_556 S
N79 C78 1.348 . S
O80 Co72 2.053 . S
O80 C84 1.253 . S
H81 C77 0.931 . S
H82 C78 0.930 . S
O83 Co72 2.040 1_554 S
O83 C73 1.265 . S
C84 O80 1.253 . S
C84 O85 1.227 . S
O85 C84 1.227 . S
N86 Co72 2.140 1_554 S
N86 C89 1.346 . S
N86 C90 1.345 1_554 S
C87 C88 1.387 . S
C87 C91 1.391 1_554 S
C88 C87 1.387 . S
C88 C89 1.369 . S
C88 H97 0.929 . S
C89 N86 1.346 . S
C89 C88 1.369 . S
C89 H92 0.928 . S
C90 N86 1.345 1_556 S
C90 C91 1.371 . S
C90 H93 0.931 . S
C91 C87 1.391 1_556 S
C91 C90 1.371 . S
C91 H98 0.930 . S
H92 C89 0.928 . S
H93 C90 0.931 . S
H94 C70 0.930 . S
H95 C67 0.930 . S
H96 C76 0.930 . S
H97 C88 0.929 . S
H98 C91 0.930 . S
C99 C100 1.351 . S
C99 N102 1.368 . S
C99 H104 0.931 . S
C100 C99 1.351 . S
C100 N101 1.373 1_556 S
C100 H128 0.930 . S
N101 C100 1.373 1_554 S
N101 C103 1.340 . S
N102 C99 1.368 . S
N102 C103 1.321 1_556 S
N102 Co105 2.135 . S
C103 N101 1.340 . S
C103 N102 1.321 1_554 S
C103 H127 0.930 . S
H104 C99 0.931 . S
Co105 N102 2.135 . S
Co105 N108 2.121 1_556 S
Co105 O113 2.053 . S
Co105 O116 2.040 1_556 S
Co105 N119 2.140 1_556 S
C106 O107 1.227 . S
C106 O116 1.265 . S
O107 C106 1.227 . S
N108 Co105 2.121 1_554 S
N108 C110 1.375 . S
N108 C111 1.313 1_554 S
C109 C110 1.338 . S
C109 N112 1.367 1_554 S
C109 H129 0.930 . S
C110 N108 1.375 . S
C110 C109 1.338 . S
C110 H114 0.931 . S
C111 N108 1.313 1_556 S
C111 N112 1.348 . S
C111 H115 0.930 . S
N112 C109 1.367 1_556 S
N112 C111 1.348 . S
O113 Co105 2.053 . S
O113 C117 1.253 . S
H114 C110 0.931 . S
H115 C111 0.930 . S
O116 Co105 2.040 1_554 S
O116 C106 1.265 . S
C117 O113 1.253 . S
C117 O118 1.227 . S
O118 C117 1.227 . S
N119 Co105 2.140 1_554 S
N119 C122 1.346 . S
N119 C123 1.345 1_554 S
C120 C121 1.387 . S
C120 C124 1.391 1_554 S
C121 C120 1.387 . S
C121 C122 1.369 . S
C121 H130 0.929 . S
C122 N119 1.346 . S
C122 C121 1.369 . S
C122 H125 0.928 . S
C123 N119 1.345 1_556 S
C123 C124 1.371 . S
C123 H126 0.931 . S
C124 C120 1.391 1_556 S
C124 C123 1.371 . S
C124 H131 0.930 . S
H125 C122 0.928 . S
H126 C123 0.931 . S
H127 C103 0.930 . S
H128 C100 0.930 . S
H129 C109 0.930 . S
H130 C121 0.929 . S
H131 C124 0.930 . S
C132 C133 1.351 . S
C132 N135 1.368 . S
C132 H137 0.931 . S
C133 C132 1.351 . S
C133 N134 1.373 . S
C133 H161 0.930 . S
N134 C133 1.373 . S
N134 C136 1.340 . S
N135 C132 1.368 . S
N135 C136 1.321 . S
N135 Co138 2.135 . S
C136 N134 1.340 . S
C136 N135 1.321 . S
C136 H160 0.930 . S
H137 C132 0.931 . S
Co138 N135 2.135 . S
Co138 N141 2.121 . S
Co138 O146 2.055 . S
Co138 O149 2.039 . S
Co138 N152 2.140 . S
C139 O140 1.227 . S
C139 O149 1.265 . S
O140 C139 1.227 . S
N141 Co138 2.121 . S
N141 C143 1.375 . S
N141 C144 1.313 . S
C142 C143 1.338 . S
C142 N145 1.377 . S
C142 H162 0.930 . S
C143 N141 1.375 . S
C143 C142 1.338 . S
C143 H147 0.931 . S
C144 N141 1.313 . S
C144 N145 1.344 . S
C144 H148 0.930 . S
N145 C142 1.377 . S
N145 C144 1.344 . S
O146 Co138 2.055 . S
O146 C150 1.253 . S
H147 C143 0.931 . S
H148 C144 0.930 . S
O149 Co138 2.039 . S
O149 C139 1.265 . S
C150 O146 1.253 . S
C150 O151 1.227 . S
O151 C150 1.227 . S
N152 Co138 2.140 . S
N152 C155 1.346 . S
N152 C156 1.345 . S
C153 C154 1.387 . S
C153 C157 1.391 . S
C154 C153 1.387 . S
C154 C155 1.369 . S
C154 H163 0.929 . S
C155 N152 1.346 . S
C155 C154 1.369 . S
C155 H158 0.928 . S
C156 N152 1.345 . S
C156 C157 1.371 . S
C156 H159 0.931 . S
C157 C153 1.391 . S
C157 C156 1.371 . S
C157 H164 0.930 1_655 S
H158 C155 0.928 . S
H159 C156 0.931 . S
H160 C136 0.930 . S
H161 C133 0.930 . S
H162 C142 0.930 . S
H163 C154 0.929 . S
H164 C157 0.930 1_455 S
C165 C166 1.351 . S
C165 N168 1.368 . S
C165 H170 0.931 . S
C166 C165 1.351 . S
C166 N167 1.373 . S
C166 H194 0.930 . S
N167 C166 1.373 . S
N167 C169 1.340 . S
N168 C165 1.368 . S
N168 C169 1.321 . S
N168 Co171 2.135 . S
C169 N167 1.340 . S
C169 N168 1.321 . S
C169 H193 0.930 . S
H170 C165 0.931 . S
Co171 N168 2.135 . S
Co171 N174 2.121 . S
Co171 O179 2.055 . S
Co171 O182 2.039 . S
Co171 N185 2.140 . S
C172 O173 1.227 . S
C172 O182 1.265 . S
O173 C172 1.227 . S
N174 Co171 2.121 . S
N174 C176 1.375 . S
N174 C177 1.313 . S
C175 C176 1.338 . S
C175 N178 1.377 . S
C175 H195 0.930 . S
C176 N174 1.375 . S
C176 C175 1.338 . S
C176 H180 0.931 . S
C177 N174 1.313 . S
C177 N178 1.344 . S
C177 H181 0.930 . S
N178 C175 1.377 . S
N178 C177 1.344 . S
O179 Co171 2.055 . S
O179 C183 1.253 . S
H180 C176 0.931 . S
H181 C177 0.930 . S
O182 Co171 2.039 . S
O182 C172 1.265 . S
C183 O179 1.253 . S
C183 O184 1.227 . S
O184 C183 1.227 . S
N185 Co171 2.140 . S
N185 C188 1.346 . S
N185 C189 1.345 . S
C186 C187 1.387 . S
C186 C190 1.391 . S
C187 C186 1.387 . S
C187 C188 1.369 . S
C187 H196 0.929 . S
C188 N185 1.346 . S
C188 C187 1.369 . S
C188 H191 0.928 . S
C189 N185 1.345 . S
C189 C190 1.371 . S
C189 H192 0.931 . S
C190 C186 1.391 . S
C190 C189 1.371 . S
C190 H197 0.930 1_565 S
H191 C188 0.928 . S
H192 C189 0.931 . S
H193 C169 0.930 . S
H194 C166 0.930 . S
H195 C175 0.930 . S
H196 C187 0.929 . S
H197 C190 0.930 1_545 S
C198 C199 1.351 . S
C198 N201 1.368 . S
C198 H203 0.931 . S
C199 C198 1.351 . S
C199 N200 1.373 . S
C199 H227 0.930 . S
N200 C199 1.373 . S
N200 C202 1.340 . S
N201 C198 1.368 . S
N201 C202 1.321 . S
N201 Co204 2.135 . S
C202 N200 1.340 . S
C202 N201 1.321 . S
C202 H226 0.930 . S
H203 C198 0.931 . S
Co204 N201 2.135 . S
Co204 N207 2.121 . S
Co204 O212 2.055 . S
Co204 O215 2.039 . S
Co204 N218 2.140 . S
C205 O206 1.227 . S
C205 O215 1.265 . S
O206 C205 1.227 . S
N207 Co204 2.121 . S
N207 C209 1.375 . S
N207 C210 1.313 . S
C208 C209 1.338 . S
C208 N211 1.377 . S
C208 H228 0.930 . S
C209 N207 1.375 . S
C209 C208 1.338 . S
C209 H213 0.931 . S
C210 N207 1.313 . S
C210 N211 1.344 . S
C210 H214 0.930 . S
N211 C208 1.377 . S
N211 C210 1.344 . S
O212 Co204 2.055 . S
O212 C216 1.253 . S
H213 C209 0.931 . S
H214 C210 0.930 . S
O215 Co204 2.039 . S
O215 C205 1.265 . S
C216 O212 1.253 . S
C216 O217 1.227 . S
O217 C216 1.227 . S
N218 Co204 2.140 . S
N218 C221 1.346 . S
N218 C222 1.345 . S
C219 C220 1.387 . S
C219 C223 1.391 . S
C220 C219 1.387 . S
C220 C221 1.369 . S
C220 H229 0.929 . S
C221 N218 1.346 . S
C221 C220 1.369 . S
C221 H224 0.928 . S
C222 N218 1.345 . S
C222 C223 1.371 . S
C222 H225 0.931 . S
C223 C219 1.391 . S
C223 C222 1.371 . S
C223 H230 0.930 1_455 S
H224 C221 0.928 . S
H225 C222 0.931 . S
H226 C202 0.930 . S
H227 C199 0.930 . S
H228 C208 0.930 . S
H229 C220 0.929 . S
H230 C223 0.930 1_655 S
C231 C232 1.351 . S
C231 N234 1.368 . S
C231 H236 0.931 . S
C232 C231 1.351 . S
C232 N233 1.373 . S
C232 H260 0.930 . S
N233 C232 1.373 . S
N233 C235 1.340 . S
N234 C231 1.368 . S
N234 C235 1.321 . S
N234 Co237 2.135 . S
C235 N233 1.340 . S
C235 N234 1.321 . S
C235 H259 0.930 . S
H236 C231 0.931 . S
Co237 N234 2.135 . S
Co237 N240 2.121 . S
Co237 O245 2.055 . S
Co237 O248 2.039 . S
Co237 N251 2.140 . S
C238 O239 1.227 . S
C238 O248 1.265 . S
O239 C238 1.227 . S
N240 Co237 2.121 . S
N240 C242 1.375 . S
N240 C243 1.313 . S
C241 C242 1.338 . S
C241 N244 1.377 . S
C241 H261 0.930 . S
C242 N240 1.375 . S
C242 C241 1.338 . S
C242 H246 0.931 . S
C243 N240 1.313 . S
C243 N244 1.344 . S
C243 H247 0.930 . S
N244 C241 1.377 . S
N244 C243 1.344 . S
O245 Co237 2.055 . S
O245 C249 1.253 . S
H246 C242 0.931 . S
H247 C243 0.930 . S
O248 Co237 2.039 . S
O248 C238 1.265 . S
C249 O245 1.253 . S
C249 O250 1.227 . S
O250 C249 1.227 . S
N251 Co237 2.140 . S
N251 C254 1.346 . S
N251 C255 1.345 . S
C252 C253 1.387 . S
C252 C256 1.391 . S
C253 C252 1.387 . S
C253 C254 1.369 . S
C253 H262 0.929 . S
C254 N251 1.346 . S
C254 C253 1.369 . S
C254 H257 0.928 . S
C255 N251 1.345 . S
C255 C256 1.371 . S
C255 H258 0.931 . S
C256 C252 1.391 . S
C256 C255 1.371 . S
C256 H263 0.930 1_545 S
H257 C254 0.928 . S
H258 C255 0.931 . S
H259 C235 0.930 . S
H260 C232 0.930 . S
H261 C241 0.930 . S
H262 C253 0.929 . S
H263 C256 0.930 1_565 S
H264 C272 0.929 . S
H265 C274 0.930 . S
H266 C276 0.930 . S
H267 C279 0.929 . S
H268 C282 0.930 . S
H269 C284 0.960 . S
H270 C284 0.960 . S
H271 C284 0.960 . S
C272 H264 0.929 . S
C272 C273 1.377 . S
C272 C274 1.384 . S
C273 C272 1.377 . S
C273 C279 1.390 . S
C274 H265 0.930 . S
C274 C272 1.384 . S
C274 C275 1.372 . S
C275 C274 1.372 . S
C275 C276 1.400 . S
C275 C280 1.490 . S
C276 H266 0.930 . S
C276 C275 1.400 . S
C276 C279 1.386 . S
H277 C293 0.930 . S
H278 C294 0.931 . S
C279 H267 0.929 . S
C279 C273 1.390 . S
C279 C276 1.386 . S
C280 C275 1.490 . S
C280 C282 1.395 . S
C280 C283 1.403 1_556 S
H281 C287 0.930 . S
C282 H268 0.930 . S
C282 C280 1.395 . S
C282 C285 1.403 1_565 S
C283 C280 1.403 1_554 S
C283 C284 1.524 . S
C283 C287 1.400 1_565 S
C284 H269 0.960 . S
C284 H270 0.960 . S
C284 H271 0.960 . S
C284 C283 1.524 . S
C285 C282 1.403 1_545 S
C285 C286 1.392 . S
C285 C289 1.495 . S
C286 C285 1.392 . S
C286 C287 1.385 1_556 S
C286 C288 1.478 . S
C287 H281 0.930 . S
C287 C283 1.400 1_545 S
C287 C286 1.385 1_554 S
C288 C286 1.478 . S
C288 C290 1.381 . S
C288 C294 1.383 . S
C289 C285 1.495 . S
C289 H295 0.959 . S
C289 H296 0.961 . S
C289 H297 0.960 . S
C290 C288 1.381 . S
C290 C291 1.394 . S
C290 H298 0.930 . S
C291 C290 1.394 . S
C291 C292 1.383 . S
C291 H299 0.929 . S
C292 C291 1.383 . S
C292 C293 1.377 . S
C293 H277 0.930 . S
C293 C292 1.377 . S
C293 C294 1.379 . S
C294 H278 0.931 . S
C294 C288 1.383 . S
C294 C293 1.379 . S
H295 C289 0.959 . S
H296 C289 0.961 . S
H297 C289 0.960 . S
H298 C290 0.930 . S
H299 C291 0.929 . S
H300 C308 0.929 . S
H301 C310 0.930 . S
H302 C312 0.930 . S
H303 C315 0.929 . S
H304 C318 0.925 1_554 S
H305 C320 0.960 1_455 S
H306 C320 0.960 . S
H307 C320 0.960 . S
C308 H300 0.929 . S
C308 C309 1.377 . S
C308 C310 1.384 . S
C309 C308 1.377 . S
C309 C315 1.390 1_556 S
C310 H301 0.930 . S
C310 C308 1.384 . S
C310 C311 1.372 . S
C311 C310 1.372 . S
C311 C312 1.400 1_556 S
C311 C316 1.490 . S
C312 H302 0.930 . S
C312 C311 1.400 1_554 S
C312 C315 1.386 . S
H313 C329 0.930 . S
H314 C330 0.931 . S
C315 H303 0.929 . S
C315 C309 1.390 1_554 S
C315 C312 1.386 . S
C316 C311 1.490 . S
C316 C318 1.395 . S
C316 C319 1.403 . S
H317 C323 0.930 . S
C318 H304 0.925 1_556 S
C318 C316 1.395 . S
C318 C321 1.403 1_655 S
C319 C316 1.403 . S
C319 C320 1.524 . S
C319 C323 1.400 1_655 S
C320 H305 0.960 1_655 S
C320 H306 0.960 . S
C320 H307 0.960 . S
C320 C319 1.524 . S
C321 C318 1.403 1_455 S
C321 C322 1.392 . S
C321 C325 1.495 1_556 S
C322 C321 1.392 . S
C322 C323 1.385 . S
C322 C324 1.478 . S
C323 H317 0.930 . S
C323 C319 1.400 1_455 S
C323 C322 1.385 . S
C324 C322 1.478 . S
C324 C326 1.381 . S
C324 C330 1.383 1_556 S
C325 C321 1.495 1_554 S
C325 H331 0.959 1_455 S
C325 H332 0.961 . S
C325 H333 0.960 1_554 S
C326 C324 1.381 . S
C326 C327 1.394 . S
C326 H334 0.930 . S
C327 C326 1.394 . S
C327 C328 1.383 . S
C327 H335 0.929 . S
C328 C327 1.383 . S
C328 C329 1.377 1_556 S
C329 H313 0.930 . S
C329 C328 1.377 1_554 S
C329 C330 1.379 . S
C330 H314 0.931 . S
C330 C324 1.383 1_554 S
C330 C329 1.379 . S
H331 C325 0.959 1_655 S
H332 C325 0.961 . S
H333 C325 0.960 1_556 S
H334 C326 0.930 . S
H335 C327 0.929 . S
H336 C344 0.929 . S
H337 C346 0.930 1_455 S
H338 C348 0.930 . S
H339 C351 0.929 . S
H340 C354 0.929 1_655 S
H341 C356 0.960 . S
H342 C356 0.960 . S
H343 C356 0.960 . S
C344 H336 0.929 . S
C344 C345 1.377 . S
C344 C346 1.384 . S
C345 C344 1.377 . S
C345 C351 1.390 . S
C346 H337 0.930 1_655 S
C346 C344 1.384 . S
C346 C347 1.372 . S
C347 C346 1.372 . S
C347 C348 1.400 . S
C347 C352 1.490 . S
C348 H338 0.930 . S
C348 C347 1.400 . S
C348 C351 1.386 . S
H349 C365 0.930 . S
H350 C366 0.931 1_655 S
C351 H339 0.929 . S
C351 C345 1.390 . S
C351 C348 1.386 . S
C352 C347 1.490 . S
C352 C354 1.389 1_655 S
C352 C355 1.403 . S
H353 C359 0.930 . S
C354 H340 0.929 1_455 S
C354 C352 1.389 1_455 S
C354 C357 1.410 . S
C355 C352 1.403 . S
C355 C356 1.524 . S
C355 C359 1.400 1_655 S
C356 H341 0.960 . S
C356 H342 0.960 . S
C356 H343 0.960 . S
C356 C355 1.524 . S
C357 C354 1.410 . S
C357 C358 1.392 . S
C357 C361 1.495 . S
C358 C357 1.392 . S
C358 C359 1.385 . S
C358 C360 1.478 . S
C359 H353 0.930 . S
C359 C355 1.400 1_455 S
C359 C358 1.385 . S
C360 C358 1.478 . S
C360 C362 1.381 . S
C360 C366 1.383 . S
C361 C357 1.495 . S
C361 H367 0.959 . S
C361 H368 0.961 . S
C361 H369 0.960 . S
C362 C360 1.381 . S
C362 C363 1.394 . S
C362 H370 0.930 . S
C363 C362 1.394 . S
C363 C364 1.383 . S
C363 H371 0.929 . S
C364 C363 1.383 . S
C364 C365 1.377 . S
C365 H349 0.930 . S
C365 C364 1.377 . S
C365 C366 1.379 . S
C366 H350 0.931 1_455 S
C366 C360 1.383 . S
C366 C365 1.379 . S
H367 C361 0.959 . S
H368 C361 0.961 . S
H369 C361 0.960 . S
H370 C362 0.930 . S
H371 C363 0.929 . S
H372 C380 0.929 . S
H373 C382 0.930 . S
H374 C384 0.930 . S
H375 C387 0.929 . S
H376 C390 0.930 . S
H377 C392 0.960 . S
H378 C392 0.960 . S
H379 C392 0.960 . S
C380 H372 0.929 . S
C380 C381 1.377 . S
C380 C382 1.384 . S
C381 C380 1.377 . S
C381 C387 1.390 . S
C382 H373 0.930 . S
C382 C380 1.384 . S
C382 C383 1.372 . S
C383 C382 1.372 . S
C383 C384 1.400 . S
C383 C388 1.490 . S
C384 H374 0.930 . S
C384 C383 1.400 . S
C384 C387 1.386 . S
H385 C401 0.930 . S
H386 C402 0.931 . S
C387 H375 0.929 . S
C387 C381 1.390 . S
C387 C384 1.386 . S
C388 C383 1.490 . S
C388 C390 1.395 . S
C388 C391 1.403 1_565 S
H389 C395 0.930 . S
C390 H376 0.930 . S
C390 C388 1.395 . S
C390 C393 1.403 . S
C391 C388 1.403 1_545 S
C391 C392 1.524 . S
C391 C395 1.400 . S
C392 H377 0.960 . S
C392 H378 0.960 . S
C392 H379 0.960 . S
C392 C391 1.524 . S
C393 C390 1.403 . S
C393 C394 1.392 1_565 S
C393 C397 1.495 . S
C394 C393 1.392 1_545 S
C394 C395 1.385 . S
C394 C396 1.478 . S
C395 H389 0.930 . S
C395 C391 1.400 . S
C395 C394 1.385 . S
C396 C394 1.478 . S
C396 C398 1.381 . S
C396 C402 1.383 . S
C397 C393 1.495 . S
C397 H403 0.959 . S
C397 H404 0.961 . S
C397 H405 0.960 . S
C398 C396 1.381 . S
C398 C399 1.394 . S
C398 H406 0.930 . S
C399 C398 1.394 . S
C399 C400 1.383 . S
C399 H407 0.929 . S
C400 C399 1.383 . S
C400 C401 1.377 . S
C401 H385 0.930 . S
C401 C400 1.377 . S
C401 C402 1.379 . S
C402 H386 0.931 . S
C402 C396 1.383 . S
C402 C401 1.379 . S
H403 C397 0.959 . S
H404 C397 0.961 . S
H405 C397 0.960 . S
H406 C398 0.930 . S
H407 C399 0.929 . S
H408 C416 0.929 . S
H409 C418 0.930 . S
H410 C420 0.930 . S
H411 C423 0.929 . S
H412 C426 0.930 . S
H413 C428 0.960 . S
H414 C428 0.960 1_554 S
H415 C428 0.960 . S
C416 H408 0.929 . S
C416 C417 1.377 . S
C416 C418 1.384 . S
C417 C416 1.377 . S
C417 C423 1.390 1_554 S
C418 H409 0.930 . S
C418 C416 1.384 . S
C418 C419 1.372 . S
C419 C418 1.372 . S
C419 C420 1.400 1_554 S
C419 C424 1.490 . S
C420 H410 0.930 . S
C420 C419 1.400 1_556 S
C420 C423 1.386 . S
H421 C437 0.930 . S
H422 C438 0.931 . S
C423 H411 0.929 . S
C423 C417 1.390 1_556 S
C423 C420 1.386 . S
C424 C419 1.490 . S
C424 C426 1.395 . S
C424 C427 1.403 . S
H425 C431 0.930 1_556 S
C426 H412 0.930 . S
C426 C424 1.395 . S
C426 C429 1.403 . S
C427 C424 1.403 . S
C427 C428 1.524 1_554 S
C427 C431 1.400 . S
C428 H413 0.960 . S
C428 H414 0.960 1_556 S
C428 H415 0.960 . S
C428 C427 1.524 1_556 S
C429 C426 1.403 . S
C429 C430 1.392 . S
C429 C433 1.495 . S
C430 C429 1.392 . S
C430 C431 1.385 . S
C430 C432 1.478 . S
C431 H425 0.930 1_554 S
C431 C427 1.400 . S
C431 C430 1.385 . S
C432 C430 1.478 . S
C432 C434 1.381 . S
C432 C438 1.383 1_554 S
C433 C429 1.495 . S
C433 H439 0.959 . S
C433 H440 0.961 . S
C433 H441 0.960 . S
C434 C432 1.381 . S
C434 C435 1.394 . S
C434 H442 0.930 . S
C435 C434 1.394 . S
C435 C436 1.383 . S
C435 H443 0.929 . S
C436 C435 1.383 . S
C436 C437 1.377 1_554 S
C437 H421 0.930 . S
C437 C436 1.377 1_556 S
C437 C438 1.379 . S
C438 H422 0.931 . S
C438 C432 1.383 1_556 S
C438 C437 1.379 . S
H439 C433 0.959 . S
H440 C433 0.961 . S
H441 C433 0.960 . S
H442 C434 0.930 . S
H443 C435 0.929 . S
H444 C452 0.929 . S
H445 C454 0.930 . S
H446 C456 0.930 . S
H447 C459 0.929 . S
H448 C462 0.930 . S
H449 C464 0.960 . S
H450 C464 0.960 . S
H451 C464 0.960 1_556 S
C452 H444 0.929 . S
C452 C453 1.377 . S
C452 C454 1.384 . S
C453 C452 1.377 . S
C453 C459 1.390 1_554 S
C454 H445 0.930 . S
C454 C452 1.384 . S
C454 C455 1.372 . S
C455 C454 1.372 . S
C455 C456 1.400 1_554 S
C455 C460 1.490 . S
C456 H446 0.930 . S
C456 C455 1.400 1_556 S
C456 C459 1.386 . S
H457 C473 0.930 . S
H458 C474 0.931 . S
C459 H447 0.929 . S
C459 C453 1.390 1_556 S
C459 C456 1.386 . S
C460 C455 1.490 . S
C460 C462 1.395 . S
C460 C463 1.403 . S
H461 C467 0.930 . S
C462 H448 0.930 . S
C462 C460 1.395 . S
C462 C465 1.403 . S
C463 C460 1.403 . S
C463 C464 1.524 . S
C463 C467 1.400 . S
C464 H449 0.960 . S
C464 H450 0.960 . S
C464 H451 0.960 1_554 S
C464 C463 1.524 . S
C465 C462 1.403 . S
C465 C466 1.392 . S
C465 C469 1.495 . S
C466 C465 1.392 . S
C466 C467 1.385 . S
C466 C468 1.478 . S
C467 H461 0.930 . S
C467 C463 1.400 . S
C467 C466 1.385 . S
C468 C466 1.478 . S
C468 C470 1.381 . S
C468 C474 1.383 1_554 S
C469 C465 1.495 . S
C469 H475 0.959 . S
C469 H476 0.961 1_554 S
C469 H477 0.960 . S
C470 C468 1.381 . S
C470 C471 1.394 . S
C470 H478 0.930 . S
C471 C470 1.394 . S
C471 C472 1.383 . S
C471 H479 0.929 . S
C472 C471 1.383 . S
C472 C473 1.377 1_554 S
C473 H457 0.930 . S
C473 C472 1.377 1_556 S
C473 C474 1.379 . S
C474 H458 0.931 . S
C474 C468 1.383 1_556 S
C474 C473 1.379 . S
H475 C469 0.959 . S
H476 C469 0.961 1_556 S
H477 C469 0.960 . S
H478 C470 0.930 . S
H479 C471 0.929 . S
H480 C488 0.929 . S
H481 C490 0.930 . S
H482 C492 0.930 . S
H483 C495 0.929 . S
H484 C498 0.930 . S
H485 C500 0.960 . S
H486 C500 0.960 . S
H487 C500 0.960 . S
C488 H480 0.929 . S
C488 C489 1.377 . S
C488 C490 1.384 . S
C489 C488 1.377 . S
C489 C495 1.390 1_554 S
C490 H481 0.930 . S
C490 C488 1.384 . S
C490 C491 1.372 . S
C491 C490 1.372 . S
C491 C492 1.400 1_554 S
C491 C496 1.490 . S
C492 H482 0.930 . S
C492 C491 1.400 1_556 S
C492 C495 1.386 . S
H493 C509 0.930 . S
H494 C510 0.931 . S
C495 H483 0.929 . S
C495 C489 1.390 1_556 S
C495 C492 1.386 . S
C496 C491 1.490 . S
C496 C498 1.395 . S
C496 C499 1.403 1_554 S
H497 C503 0.930 . S
C498 H484 0.930 . S
C498 C496 1.395 . S
C498 C501 1.403 . S
C499 C496 1.403 1_556 S
C499 C500 1.524 . S
C499 C503 1.400 . S
C500 H485 0.960 . S
C500 H486 0.960 . S
C500 H487 0.960 . S
C500 C499 1.524 . S
C501 C498 1.403 . S
C501 C502 1.392 . S
C501 C505 1.495 . S
C502 C501 1.392 . S
C502 C503 1.385 1_554 S
C502 C504 1.478 . S
C503 H497 0.930 . S
C503 C499 1.400 . S
C503 C502 1.385 1_556 S
C504 C502 1.478 . S
C504 C506 1.381 . S
C504 C510 1.383 1_554 S
C505 C501 1.495 . S
C505 H511 0.959 . S
C505 H512 0.961 . S
C505 H513 0.960 . S
C506 C504 1.381 . S
C506 C507 1.394 . S
C506 H514 0.930 . S
C507 C506 1.394 . S
C507 C508 1.383 . S
C507 H515 0.929 . S
C508 C507 1.383 . S
C508 C509 1.377 1_554 S
C509 H493 0.930 . S
C509 C508 1.377 1_556 S
C509 C510 1.379 . S
C510 H494 0.931 . S
C510 C504 1.383 1_556 S
C510 C509 1.379 . S
H511 C505 0.959 . S
H512 C505 0.961 . S
H513 C505 0.960 . S
H514 C506 0.930 . S
H515 C507 0.929 . S
H516 C524 0.929 . S
H517 C526 0.930 . S
H518 C528 0.930 . S
H519 C531 0.929 . S
H520 C534 0.930 . S
H521 C536 0.960 . S
H522 C536 0.960 . S
H523 C536 0.960 1_556 S
C524 H516 0.929 . S
C524 C525 1.377 . S
C524 C526 1.384 . S
C525 C524 1.377 . S
C525 C531 1.390 1_554 S
C526 H517 0.930 . S
C526 C524 1.384 . S
C526 C527 1.372 . S
C527 C526 1.372 . S
C527 C528 1.400 1_554 S
C527 C532 1.490 . S
C528 H518 0.930 . S
C528 C527 1.400 1_556 S
C528 C531 1.386 . S
H529 C545 0.930 . S
H530 C546 0.931 . S
C531 H519 0.929 . S
C531 C525 1.390 1_556 S
C531 C528 1.386 . S
C532 C527 1.490 . S
C532 C534 1.395 . S
C532 C535 1.403 . S
H533 C539 0.930 . S
C534 H520 0.930 . S
C534 C532 1.395 . S
C534 C537 1.403 . S
C535 C532 1.403 . S
C535 C536 1.524 . S
C535 C539 1.400 . S
C536 H521 0.960 . S
C536 H522 0.960 . S
C536 H523 0.960 1_554 S
C536 C535 1.524 . S
C537 C534 1.403 . S
C537 C538 1.392 . S
C537 C541 1.495 . S
C538 C537 1.392 . S
C538 C539 1.385 . S
C538 C540 1.478 . S
C539 H533 0.930 . S
C539 C535 1.400 . S
C539 C538 1.385 . S
C540 C538 1.478 . S
C540 C542 1.381 . S
C540 C546 1.383 1_554 S
C541 C537 1.495 . S
C541 H547 0.959 . S
C541 H548 0.961 1_554 S
C541 H549 0.960 . S
C542 C540 1.381 . S
C542 C543 1.394 . S
C542 H550 0.930 . S
C543 C542 1.394 . S
C543 C544 1.383 . S
C543 H551 0.929 . S
C544 C543 1.383 . S
C544 C545 1.377 1_554 S
C545 H529 0.930 . S
C545 C544 1.377 1_556 S
C545 C546 1.379 . S
C546 H530 0.931 . S
C546 C540 1.383 1_556 S
C546 C545 1.379 . S
H547 C541 0.959 . S
H548 C541 0.961 1_556 S
H549 C541 0.960 . S
H550 C542 0.930 . S
H551 C543 0.929 . S
H552 C560 0.929 . S
H553 C562 0.930 . S
H554 C564 0.930 . S
H555 C567 0.929 . S
H556 C570 0.930 . S
H557 C572 0.960 . S
H558 C572 0.960 . S
H559 C572 0.960 . S
C560 H552 0.929 . S
C560 C561 1.377 . S
C560 C562 1.384 . S
C561 C560 1.377 . S
C561 C567 1.390 . S
C562 H553 0.930 . S
C562 C560 1.384 . S
C562 C563 1.372 . S
C563 C562 1.372 . S
C563 C564 1.400 . S
C563 C568 1.490 . S
C564 H554 0.930 . S
C564 C563 1.400 . S
C564 C567 1.386 . S
H565 C581 0.930 . S
H566 C582 0.931 . S
C567 H555 0.929 . S
C567 C561 1.390 . S
C567 C564 1.386 . S
C568 C563 1.490 . S
C568 C570 1.395 . S
C568 C571 1.403 . S
H569 C575 0.930 . S
C570 H556 0.930 . S
C570 C568 1.395 . S
C570 C573 1.403 . S
C571 C568 1.403 . S
C571 C572 1.524 . S
C571 C575 1.400 . S
C572 H557 0.960 . S
C572 H558 0.960 . S
C572 H559 0.960 . S
C572 C571 1.524 . S
C573 C570 1.403 . S
C573 C574 1.392 . S
C573 C577 1.495 . S
C574 C573 1.392 . S
C574 C575 1.385 . S
C574 C576 1.478 . S
C575 H569 0.930 . S
C575 C571 1.400 . S
C575 C574 1.385 . S
C576 C574 1.478 . S
C576 C578 1.381 . S
C576 C582 1.383 . S
C577 C573 1.495 . S
C577 H583 0.959 . S
C577 H584 0.961 . S
C577 H585 0.960 . S
C578 C576 1.381 . S
C578 C579 1.394 . S
C578 H586 0.930 . S
C579 C578 1.394 . S
C579 C580 1.383 . S
C579 H587 0.929 . S
C580 C579 1.383 . S
C580 C581 1.377 . S
C581 H565 0.930 . S
C581 C580 1.377 . S
C581 C582 1.379 . S
C582 H566 0.931 . S
C582 C576 1.383 . S
C582 C581 1.379 . S
H583 C577 0.959 . S
H584 C577 0.961 . S
H585 C577 0.960 . S
H586 C578 0.930 . S
H587 C579 0.929 . S
H588 C596 0.929 . S
H589 C598 0.930 . S
H590 C600 0.930 . S
H591 C603 0.929 . S
H592 C606 0.930 . S
H593 C608 0.960 . S
H594 C608 0.960 . S
H595 C608 0.960 . S
C596 H588 0.929 . S
C596 C597 1.377 . S
C596 C598 1.384 . S
C597 C596 1.377 . S
C597 C603 1.390 . S
C598 H589 0.930 . S
C598 C596 1.384 . S
C598 C599 1.372 . S
C599 C598 1.372 . S
C599 C600 1.400 . S
C599 C604 1.490 . S
C600 H590 0.930 . S
C600 C599 1.400 . S
C600 C603 1.386 . S
H601 C617 0.930 . S
H602 C618 0.931 . S
C603 H591 0.929 . S
C603 C597 1.390 . S
C603 C600 1.386 . S
C604 C599 1.490 . S
C604 C606 1.395 . S
C604 C607 1.403 . S
H605 C611 0.930 . S
C606 H592 0.930 . S
C606 C604 1.395 . S
C606 C609 1.403 . S
C607 C604 1.403 . S
C607 C608 1.524 . S
C607 C611 1.400 . S
C608 H593 0.960 . S
C608 H594 0.960 . S
C608 H595 0.960 . S
C608 C607 1.524 . S
C609 C606 1.403 . S
C609 C610 1.392 . S
C609 C613 1.495 . S
C610 C609 1.392 . S
C610 C611 1.385 . S
C610 C612 1.478 . S
C611 H605 0.930 . S
C611 C607 1.400 . S
C611 C610 1.385 . S
C612 C610 1.478 . S
C612 C614 1.381 . S
C612 C618 1.383 . S
C613 C609 1.495 . S
C613 H619 0.959 . S
C613 H620 0.961 . S
C613 H621 0.960 . S
C614 C612 1.381 . S
C614 C615 1.394 . S
C614 H622 0.930 . S
C615 C614 1.394 . S
C615 C616 1.383 . S
C615 H623 0.929 . S
C616 C615 1.383 . S
C616 C617 1.377 . S
C617 H601 0.930 . S
C617 C616 1.377 . S
C617 C618 1.379 . S
C618 H602 0.931 . S
C618 C612 1.383 . S
C618 C617 1.379 . S
H619 C613 0.959 . S
H620 C613 0.961 . S
H621 C613 0.960 . S
H622 C614 0.930 . S
H623 C615 0.929 . S
H624 C632 0.929 . S
H625 C634 0.930 . S
H626 C636 0.930 . S
H627 C639 0.929 . S
H628 C642 0.930 . S
H629 C644 0.960 . S
H630 C644 0.960 . S
H631 C644 0.960 . S
C632 H624 0.929 . S
C632 C633 1.377 . S
C632 C634 1.384 . S
C633 C632 1.377 . S
C633 C639 1.390 . S
C634 H625 0.930 . S
C634 C632 1.384 . S
C634 C635 1.372 . S
C635 C634 1.372 . S
C635 C636 1.400 . S
C635 C640 1.490 . S
C636 H626 0.930 . S
C636 C635 1.400 . S
C636 C639 1.386 . S
H637 C653 0.930 . S
H638 C654 0.931 . S
C639 H627 0.929 . S
C639 C633 1.390 . S
C639 C636 1.386 . S
C640 C635 1.490 . S
C640 C642 1.395 . S
C640 C643 1.403 . S
H641 C647 0.930 . S
C642 H628 0.930 . S
C642 C640 1.395 . S
C642 C645 1.403 . S
C643 C640 1.403 . S
C643 C644 1.524 . S
C643 C647 1.400 . S
C644 H629 0.960 . S
C644 H630 0.960 . S
C644 H631 0.960 . S
C644 C643 1.524 . S
C645 C642 1.403 . S
C645 C646 1.392 . S
C645 C649 1.495 . S
C646 C645 1.392 . S
C646 C647 1.385 . S
C646 C648 1.478 . S
C647 H641 0.930 . S
C647 C643 1.400 . S
C647 C646 1.385 . S
C648 C646 1.478 . S
C648 C650 1.381 . S
C648 C654 1.383 . S
C649 C645 1.495 . S
C649 H655 0.959 . S
C649 H656 0.961 . S
C649 H657 0.960 . S
C650 C648 1.381 . S
C650 C651 1.394 . S
C650 H658 0.930 . S
C651 C650 1.394 . S
C651 C652 1.383 . S
C651 H659 0.929 . S
C652 C651 1.383 . S
C652 C653 1.377 . S
C653 H637 0.930 . S
C653 C652 1.377 . S
C653 C654 1.379 . S
C654 H638 0.931 . S
C654 C648 1.383 . S
C654 C653 1.379 . S
H655 C649 0.959 . S
H656 C649 0.961 . S
H657 C649 0.960 . S
H658 C650 0.930 . S
H659 C651 0.929 . S
H660 C668 0.929 . S
H661 C670 0.930 . S
H662 C672 0.930 . S
H663 C675 0.929 . S
H664 C678 0.930 . S
H665 C680 0.960 . S
H666 C680 0.960 . S
H667 C680 0.960 . S
C668 H660 0.929 . S
C668 C669 1.377 . S
C668 C670 1.384 . S
C669 C668 1.377 . S
C669 C675 1.390 . S
C670 H661 0.930 . S
C670 C668 1.384 . S
C670 C671 1.372 . S
C671 C670 1.372 . S
C671 C672 1.400 . S
C671 C676 1.490 . S
C672 H662 0.930 . S
C672 C671 1.400 . S
C672 C675 1.386 . S
H673 C689 0.930 . S
H674 C690 0.931 . S
C675 H663 0.929 . S
C675 C669 1.390 . S
C675 C672 1.386 . S
C676 C671 1.490 . S
C676 C678 1.395 . S
C676 C679 1.403 . S
H677 C683 0.930 . S
C678 H664 0.930 . S
C678 C676 1.395 . S
C678 C681 1.403 . S
C679 C676 1.403 . S
C679 C680 1.524 . S
C679 C683 1.400 . S
C680 H665 0.960 . S
C680 H666 0.960 . S
C680 H667 0.960 . S
C680 C679 1.524 . S
C681 C678 1.403 . S
C681 C682 1.392 . S
C681 C685 1.495 . S
C682 C681 1.392 . S
C682 C683 1.385 . S
C682 C684 1.478 . S
C683 H677 0.930 . S
C683 C679 1.400 . S
C683 C682 1.385 . S
C684 C682 1.478 . S
C684 C686 1.381 . S
C684 C690 1.383 . S
C685 C681 1.495 . S
C685 H691 0.959 . S
C685 H692 0.961 . S
C685 H693 0.960 . S
C686 C684 1.381 . S
C686 C687 1.394 . S
C686 H694 0.930 . S
C687 C686 1.394 . S
C687 C688 1.383 . S
C687 H695 0.929 . S
C688 C687 1.383 . S
C688 C689 1.377 . S
C689 H673 0.930 . S
C689 C688 1.377 . S
C689 C690 1.379 . S
C690 H674 0.931 . S
C690 C684 1.383 . S
C690 C689 1.379 . S
H691 C685 0.959 . S
H692 C685 0.961 . S
H693 C685 0.960 . S
H694 C686 0.930 . S
H695 C687 0.929 . S
H696 C704 0.929 . S
H697 C706 0.930 . S
H698 C708 0.930 . S
H699 C711 0.929 . S
H700 C714 0.930 . S
H701 C716 0.960 . S
H702 C716 0.960 . S
H703 C716 0.960 . S
C704 H696 0.929 . S
C704 C705 1.377 . S
C704 C706 1.384 . S
C705 C704 1.377 . S
C705 C711 1.390 . S
C706 H697 0.930 . S
C706 C704 1.384 . S
C706 C707 1.372 . S
C707 C706 1.372 . S
C707 C708 1.400 . S
C707 C712 1.490 . S
C708 H698 0.930 . S
C708 C707 1.400 . S
C708 C711 1.386 . S
H709 C725 0.930 . S
H710 C726 0.931 . S
C711 H699 0.929 . S
C711 C705 1.390 . S
C711 C708 1.386 . S
C712 C707 1.490 . S
C712 C714 1.395 . S
C712 C715 1.403 . S
H713 C719 0.930 . S
C714 H700 0.930 . S
C714 C712 1.395 . S
C714 C717 1.403 . S
C715 C712 1.403 . S
C715 C716 1.524 . S
C715 C719 1.400 . S
C716 H701 0.960 . S
C716 H702 0.960 . S
C716 H703 0.960 . S
C716 C715 1.524 . S
C717 C714 1.403 . S
C717 C718 1.392 . S
C717 C721 1.495 . S
C718 C717 1.392 . S
C718 C719 1.385 . S
C718 C720 1.478 . S
C719 H713 0.930 . S
C719 C715 1.400 . S
C719 C718 1.385 . S
C720 C718 1.478 . S
C720 C722 1.381 . S
C720 C726 1.383 . S
C721 C717 1.495 . S
C721 H727 0.959 . S
C721 H728 0.961 . S
C721 H729 0.960 . S
C722 C720 1.381 . S
C722 C723 1.394 . S
C722 H730 0.930 . S
C723 C722 1.394 . S
C723 C724 1.383 . S
C723 H731 0.929 . S
C724 C723 1.383 . S
C724 C725 1.377 . S
C725 H709 0.930 . S
C725 C724 1.377 . S
C725 C726 1.379 . S
C726 H710 0.931 . S
C726 C720 1.383 . S
C726 C725 1.379 . S
H727 C721 0.959 . S
H728 C721 0.961 . S
H729 C721 0.960 . S
H730 C722 0.930 . S
H731 C723 0.929 . S
H732 C740 0.929 . S
H733 C742 0.930 . S
H734 C744 0.930 . S
H735 C747 0.929 . S
H736 C750 0.930 . S
H737 C752 0.960 . S
H738 C752 0.960 . S
H739 C752 0.960 . S
C740 H732 0.929 . S
C740 C741 1.377 . S
C740 C742 1.384 . S
C741 C740 1.377 . S
C741 C747 1.390 . S
C742 H733 0.930 . S
C742 C740 1.384 . S
C742 C743 1.372 . S
C743 C742 1.372 . S
C743 C744 1.400 . S
C743 C748 1.490 . S
C744 H734 0.930 . S
C744 C743 1.400 . S
C744 C747 1.386 . S
H745 C761 0.930 . S
H746 C762 0.931 . S
C747 H735 0.929 . S
C747 C741 1.390 . S
C747 C744 1.386 . S
C748 C743 1.490 . S
C748 C750 1.395 . S
C748 C751 1.403 . S
H749 C755 0.930 . S
C750 H736 0.930 . S
C750 C748 1.395 . S
C750 C753 1.403 . S
C751 C748 1.403 . S
C751 C752 1.524 . S
C751 C755 1.400 . S
C752 H737 0.960 . S
C752 H738 0.960 . S
C752 H739 0.960 . S
C752 C751 1.524 . S
C753 C750 1.403 . S
C753 C754 1.392 . S
C753 C757 1.495 . S
C754 C753 1.392 . S
C754 C755 1.385 . S
C754 C756 1.478 . S
C755 H749 0.930 . S
C755 C751 1.400 . S
C755 C754 1.385 . S
C756 C754 1.478 . S
C756 C758 1.381 . S
C756 C762 1.383 . S
C757 C753 1.495 . S
C757 H763 0.959 . S
C757 H764 0.961 . S
C757 H765 0.960 . S
C758 C756 1.381 . S
C758 C759 1.394 . S
C758 H766 0.930 . S
C759 C758 1.394 . S
C759 C760 1.383 . S
C759 H767 0.929 . S
C760 C759 1.383 . S
C760 C761 1.377 . S
C761 H745 0.930 . S
C761 C760 1.377 . S
C761 C762 1.379 . S
C762 H746 0.931 . S
C762 C756 1.383 . S
C762 C761 1.379 . S
H763 C757 0.959 . S
H764 C757 0.961 . S
H765 C757 0.960 . S
H766 C758 0.930 . S
H767 C759 0.929 . S
H768 C776 0.929 . S
H769 C778 0.930 . S
H770 C780 0.930 . S
H771 C783 0.929 . S
H772 C786 0.930 . S
H773 C788 0.960 . S
H774 C788 0.960 . S
H775 C788 0.960 . S
C776 H768 0.929 . S
C776 C777 1.377 . S
C776 C778 1.384 . S
C777 C776 1.377 . S
C777 C783 1.390 . S
C778 H769 0.930 . S
C778 C776 1.384 . S
C778 C779 1.372 . S
C779 C778 1.372 . S
C779 C780 1.400 . S
C779 C784 1.490 . S
C780 H770 0.930 . S
C780 C779 1.400 . S
C780 C783 1.386 . S
H781 C797 0.930 . S
H782 C798 0.931 . S
C783 H771 0.929 . S
C783 C777 1.390 . S
C783 C780 1.386 . S
C784 C779 1.490 . S
C784 C786 1.395 . S
C784 C787 1.403 . S
H785 C791 0.930 . S
C786 H772 0.930 . S
C786 C784 1.395 . S
C786 C789 1.403 . S
C787 C784 1.403 . S
C787 C788 1.524 . S
C787 C791 1.400 . S
C788 H773 0.960 . S
C788 H774 0.960 . S
C788 H775 0.960 . S
C788 C787 1.524 . S
C789 C786 1.403 . S
C789 C790 1.392 . S
C789 C793 1.495 . S
C790 C789 1.392 . S
C790 C791 1.385 . S
C790 C792 1.478 . S
C791 H785 0.930 . S
C791 C787 1.400 . S
C791 C790 1.385 . S
C792 C790 1.478 . S
C792 C794 1.381 . S
C792 C798 1.383 . S
C793 C789 1.495 . S
C793 H799 0.959 . S
C793 H800 0.961 . S
C793 H801 0.960 . S
C794 C792 1.381 . S
C794 C795 1.394 . S
C794 H802 0.930 . S
C795 C794 1.394 . S
C795 C796 1.383 . S
C795 H803 0.929 . S
C796 C795 1.383 . S
C796 C797 1.377 . S
C797 H781 0.930 . S
C797 C796 1.377 . S
C797 C798 1.379 . S
C798 H782 0.931 . S
C798 C792 1.383 . S
C798 C797 1.379 . S
H799 C793 0.959 . S
H800 C793 0.961 . S
H801 C793 0.960 . S
H802 C794 0.930 . S
H803 C795 0.929 . S
H804 C812 0.929 . S
H805 C814 0.930 . S
H806 C816 0.930 . S
H807 C819 0.929 . S
H808 C822 0.930 . S
H809 C824 0.960 . S
H810 C824 0.960 . S
H811 C824 0.960 . S
C812 H804 0.929 . S
C812 C813 1.377 . S
C812 C814 1.384 . S
C813 C812 1.377 . S
C813 C819 1.390 . S
C814 H805 0.930 . S
C814 C812 1.384 . S
C814 C815 1.372 . S
C815 C814 1.372 . S
C815 C816 1.400 . S
C815 C820 1.490 . S
C816 H806 0.930 . S
C816 C815 1.400 . S
C816 C819 1.386 . S
H817 C833 0.930 . S
H818 C834 0.931 . S
C819 H807 0.929 . S
C819 C813 1.390 . S
C819 C816 1.386 . S
C820 C815 1.490 . S
C820 C822 1.395 . S
C820 C823 1.403 . S
H821 C827 0.930 . S
C822 H808 0.930 . S
C822 C820 1.395 . S
C822 C825 1.403 . S
C823 C820 1.403 . S
C823 C824 1.524 . S
C823 C827 1.400 . S
C824 H809 0.960 . S
C824 H810 0.960 . S
C824 H811 0.960 . S
C824 C823 1.524 . S
C825 C822 1.403 . S
C825 C826 1.392 . S
C825 C829 1.495 . S
C826 C825 1.392 . S
C826 C827 1.385 . S
C826 C828 1.478 . S
C827 H821 0.930 . S
C827 C823 1.400 . S
C827 C826 1.385 . S
C828 C826 1.478 . S
C828 C830 1.381 . S
C828 C834 1.383 . S
C829 C825 1.495 . S
C829 H835 0.959 . S
C829 H836 0.961 . S
C829 H837 0.960 . S
C830 C828 1.381 . S
C830 C831 1.394 . S
C830 H838 0.930 . S
C831 C830 1.394 . S
C831 C832 1.383 . S
C831 H839 0.929 . S
C832 C831 1.383 . S
C832 C833 1.377 . S
C833 H817 0.930 . S
C833 C832 1.377 . S
C833 C834 1.379 . S
C834 H818 0.931 . S
C834 C828 1.383 . S
C834 C833 1.379 . S
H835 C829 0.959 . S
H836 C829 0.961 . S
H837 C829 0.960 . S
H838 C830 0.930 . S
H839 C831 0.929 . S
H840 C848 0.929 . S
H841 C850 0.930 . S
H842 C852 0.930 . S
H843 C855 0.929 . S
H844 C858 0.930 . S
H845 C860 0.960 . S
H846 C860 0.960 . S
H847 C860 0.960 . S
C848 H840 0.929 . S
C848 C849 1.377 . S
C848 C850 1.384 . S
C849 C848 1.377 . S
C849 C855 1.390 . S
C850 H841 0.930 . S
C850 C848 1.384 . S
C850 C851 1.372 . S
C851 C850 1.372 . S
C851 C852 1.400 . S
C851 C856 1.490 . S
C852 H842 0.930 . S
C852 C851 1.400 . S
C852 C855 1.386 . S
H853 C869 0.930 . S
H854 C870 0.931 . S
C855 H843 0.929 . S
C855 C849 1.390 . S
C855 C852 1.386 . S
C856 C851 1.490 . S
C856 C858 1.395 . S
C856 C859 1.403 . S
H857 C863 0.930 . S
C858 H844 0.930 . S
C858 C856 1.395 . S
C858 C861 1.403 . S
C859 C856 1.403 . S
C859 C860 1.524 . S
C859 C863 1.400 . S
C860 H845 0.960 . S
C860 H846 0.960 . S
C860 H847 0.960 . S
C860 C859 1.524 . S
C861 C858 1.403 . S
C861 C862 1.392 . S
C861 C865 1.495 . S
C862 C861 1.392 . S
C862 C863 1.385 . S
C862 C864 1.478 . S
C863 H857 0.930 . S
C863 C859 1.400 . S
C863 C862 1.385 . S
C864 C862 1.478 . S
C864 C866 1.381 . S
C864 C870 1.383 . S
C865 C861 1.495 . S
C865 H871 0.959 . S
C865 H872 0.961 . S
C865 H873 0.960 . S
C866 C864 1.381 . S
C866 C867 1.394 . S
C866 H874 0.930 . S
C867 C866 1.394 . S
C867 C868 1.383 . S
C867 H875 0.929 . S
C868 C867 1.383 . S
C868 C869 1.377 . S
C869 H853 0.930 . S
C869 C868 1.377 . S
C869 C870 1.379 . S
C870 H854 0.931 . S
C870 C864 1.383 . S
C870 C869 1.379 . S
H871 C865 0.959 . S
H872 C865 0.961 . S
H873 C865 0.960 . S
H874 C866 0.930 . S
H875 C867 0.929 . S
H876 C884 0.929 . S
H877 C886 0.930 . S
H878 C888 0.930 . S
H879 C891 0.929 . S
H880 C894 0.930 . S
H881 C896 0.960 . S
H882 C896 0.960 . S
H883 C896 0.960 . S
C884 H876 0.929 . S
C884 C885 1.377 . S
C884 C886 1.384 . S
C885 C884 1.377 . S
C885 C891 1.390 . S
C886 H877 0.930 . S
C886 C884 1.384 . S
C886 C887 1.372 . S
C887 C886 1.372 . S
C887 C888 1.400 . S
C887 C892 1.490 . S
C888 H878 0.930 . S
C888 C887 1.400 . S
C888 C891 1.386 . S
H889 C905 0.930 . S
H890 C906 0.931 . S
C891 H879 0.929 . S
C891 C885 1.390 . S
C891 C888 1.386 . S
C892 C887 1.490 . S
C892 C894 1.395 . S
C892 C895 1.403 . S
H893 C899 0.930 . S
C894 H880 0.930 . S
C894 C892 1.395 . S
C894 C897 1.403 . S
C895 C892 1.403 . S
C895 C896 1.524 . S
C895 C899 1.400 . S
C896 H881 0.960 . S
C896 H882 0.960 . S
C896 H883 0.960 . S
C896 C895 1.524 . S
C897 C894 1.403 . S
C897 C898 1.392 . S
C897 C901 1.495 . S
C898 C897 1.392 . S
C898 C899 1.385 . S
C898 C900 1.478 . S
C899 H893 0.930 . S
C899 C895 1.400 . S
C899 C898 1.385 . S
C900 C898 1.478 . S
C900 C902 1.381 . S
C900 C906 1.383 . S
C901 C897 1.495 . S
C901 H907 0.959 . S
C901 H908 0.961 . S
C901 H909 0.960 . S
C902 C900 1.381 . S
C902 C903 1.394 . S
C902 H910 0.930 . S
C903 C902 1.394 . S
C903 C904 1.383 . S
C903 H911 0.929 . S
C904 C903 1.383 . S
C904 C905 1.377 . S
C905 H889 0.930 . S
C905 C904 1.377 . S
C905 C906 1.379 . S
C906 H890 0.931 . S
C906 C900 1.383 . S
C906 C905 1.379 . S
H907 C901 0.959 . S
H908 C901 0.961 . S
H909 C901 0.960 . S
H910 C902 0.930 . S
H911 C903 0.929 . S
H912 C920 0.929 . S
H913 C922 0.930 . S
H914 C924 0.930 . S
H915 C927 0.929 . S
H916 C930 0.930 . S
H917 C932 0.960 . S
H918 C932 0.960 . S
H919 C932 0.960 . S
C920 H912 0.929 . S
C920 C921 1.377 . S
C920 C922 1.384 . S
C921 C920 1.377 . S
C921 C927 1.390 . S
C922 H913 0.930 . S
C922 C920 1.384 . S
C922 C923 1.372 . S
C923 C922 1.372 . S
C923 C924 1.400 . S
C923 C928 1.490 . S
C924 H914 0.930 . S
C924 C923 1.400 . S
C924 C927 1.386 . S
H925 C941 0.930 . S
H926 C942 0.931 . S
C927 H915 0.929 . S
C927 C921 1.390 . S
C927 C924 1.386 . S
C928 C923 1.490 . S
C928 C930 1.395 . S
C928 C931 1.403 . S
H929 C935 0.930 . S
C930 H916 0.930 . S
C930 C928 1.395 . S
C930 C933 1.403 . S
C931 C928 1.403 . S
C931 C932 1.524 . S
C931 C935 1.400 . S
C932 H917 0.960 . S
C932 H918 0.960 . S
C932 H919 0.960 . S
C932 C931 1.524 . S
C933 C930 1.403 . S
C933 C934 1.392 . S
C933 C937 1.495 . S
C934 C933 1.392 . S
C934 C935 1.385 . S
C934 C936 1.478 . S
C935 H929 0.930 . S
C935 C931 1.400 . S
C935 C934 1.385 . S
C936 C934 1.478 . S
C936 C938 1.381 . S
C936 C942 1.383 . S
C937 C933 1.495 . S
C937 H943 0.959 . S
C937 H944 0.961 . S
C937 H945 0.960 . S
C938 C936 1.381 . S
C938 C939 1.394 . S
C938 H946 0.930 . S
C939 C938 1.394 . S
C939 C940 1.383 . S
C939 H947 0.929 . S
C940 C939 1.383 . S
C940 C941 1.377 . S
C941 H925 0.930 . S
C941 C940 1.377 . S
C941 C942 1.379 . S
C942 H926 0.931 . S
C942 C936 1.383 . S
C942 C941 1.379 . S
H943 C937 0.959 . S
H944 C937 0.961 . S
H945 C937 0.960 . S
H946 C938 0.930 . S
H947 C939 0.929 . S
H948 C956 0.929 . S
H949 C958 0.930 . S
H950 C960 0.930 . S
H951 C963 0.929 . S
H952 C966 0.930 . S
H953 C968 0.960 . S
H954 C968 0.960 . S
H955 C968 0.960 . S
C956 H948 0.929 . S
C956 C957 1.377 . S
C956 C958 1.384 . S
C957 C956 1.377 . S
C957 C963 1.390 . S
C958 H949 0.930 . S
C958 C956 1.384 . S
C958 C959 1.372 . S
C959 C958 1.372 . S
C959 C960 1.400 . S
C959 C964 1.490 . S
C960 H950 0.930 . S
C960 C959 1.400 . S
C960 C963 1.386 . S
H961 C977 0.930 . S
H962 C978 0.931 . S
C963 H951 0.929 . S
C963 C957 1.390 . S
C963 C960 1.386 . S
C964 C959 1.490 . S
C964 C966 1.395 . S
C964 C967 1.403 . S
H965 C971 0.930 . S
C966 H952 0.930 . S
C966 C964 1.395 . S
C966 C969 1.403 . S
C967 C964 1.403 . S
C967 C968 1.524 . S
C967 C971 1.400 . S
C968 H953 0.960 . S
C968 H954 0.960 . S
C968 H955 0.960 . S
C968 C967 1.524 . S
C969 C966 1.403 . S
C969 C970 1.392 . S
C969 C973 1.495 . S
C970 C969 1.392 . S
C970 C971 1.385 . S
C970 C972 1.478 . S
C971 H965 0.930 . S
C971 C967 1.400 . S
C971 C970 1.385 . S
C972 C970 1.478 . S
C972 C974 1.381 . S
C972 C978 1.383 . S
C973 C969 1.495 . S
C973 H979 0.959 . S
C973 H980 0.961 . S
C973 H981 0.960 . S
C974 C972 1.381 . S
C974 C975 1.394 . S
C974 H982 0.930 . S
C975 C974 1.394 . S
C975 C976 1.383 . S
C975 H983 0.929 . S
C976 C975 1.383 . S
C976 C977 1.377 . S
C977 H961 0.930 . S
C977 C976 1.377 . S
C977 C978 1.379 . S
C978 H962 0.931 . S
C978 C972 1.383 . S
C978 C977 1.379 . S
H979 C973 0.959 . S
H980 C973 0.961 . S
H981 C973 0.960 . S
H982 C974 0.930 . S
H983 C975 0.929 . S
C273 N79 1.268 . S
C292 N13 1.298 . S
C309 N46 1.279 . S
C328 N112 1.258 . S
C345 N145 1.274 . S
C364 N211 1.239 . S
C381 N178 1.265 . S
C400 N244 1.272 . S
C417 C120 1.560 . S
C436 N2 1.508 . S
C453 C21 1.560 . S
C472 N35 1.500 . S
C489 N68 1.507 . S
C508 C54 1.558 . S
C525 N101 1.511 . S
C544 C87 1.558 . S
C561 C186 1.560 1_545 S
C580 N134 1.494 . S
C597 C219 1.560 1_655 S
C616 N167 1.511 . S
C633 C252 1.560 1_565 S
C652 N200 1.520 . S
C669 C153 1.560 1_455 S
C688 N233 1.494 . S
C705 C7 1.472 . S
C724 C238 1.473 . S
C741 C40 1.473 . S
C760 C139 1.464 . S
C777 C172 1.472 . S
C796 C73 1.473 . S
C813 C205 1.472 . S
C832 C106 1.466 . S
C849 C84 1.415 . S
C868 C183 1.407 . S
C885 C216 1.417 . S
C904 C117 1.420 . S
C921 C249 1.417 . S
C940 C18 1.419 . S
C957 C150 1.417 . S
C976 C51 1.413 . S
