# Generated by pormake.
# Topology mer, (4)-cn, num edge types: 1
# Building blocks:
#     Node 0, Type 0, BuildingBlock: AZAVOO_clean_sbu_0, # of connection points: 4
#     Node 1, Type 0, BuildingBlock: AZAVOO_clean_sbu_0, # of connection points: 4
#     Node 2, Type 0, BuildingBlock: AZAVOO_clean_sbu_0, # of connection points: 4
#     Node 3, Type 0, BuildingBlock: AZAVOO_clean_sbu_0, # of connection points: 4
#     Node 4, Type 0, BuildingBlock: AZAVOO_clean_sbu_0, # of connection points: 4
#     Node 5, Type 0, BuildingBlock: AZAVOO_clean_sbu_0, # of connection points: 4
#     Node 6, Type 0, BuildingBlock: AZAVOO_clean_sbu_0, # of connection points: 4
#     Node 7, Type 0, BuildingBlock: AZAVOO_clean_sbu_0, # of connection points: 4
#     Node 8, Type 0, BuildingBlock: AZAVOO_clean_sbu_0, # of connection points: 4
#     Node 9, Type 0, BuildingBlock: AZAVOO_clean_sbu_0, # of connection points: 4
#     Node 10, Type 0, BuildingBlock: AZAVOO_clean_sbu_0, # of connection points: 4
#     Node 11, Type 0, BuildingBlock: AZAVOO_clean_sbu_0, # of connection points: 4
#     Node 12, Type 0, BuildingBlock: AZAVOO_clean_sbu_0, # of connection points: 4
#     Node 13, Type 0, BuildingBlock: AZAVOO_clean_sbu_0, # of connection points: 4
#     Node 14, Type 0, BuildingBlock: AZAVOO_clean_sbu_0, # of connection points: 4
#     Node 15, Type 0, BuildingBlock: AZAVOO_clean_sbu_0, # of connection points: 4
#     Node 16, Type 0, BuildingBlock: AZAVOO_clean_sbu_0, # of connection points: 4
#     Node 17, Type 0, BuildingBlock: AZAVOO_clean_sbu_0, # of connection points: 4
#     Node 18, Type 0, BuildingBlock: AZAVOO_clean_sbu_0, # of connection points: 4
#     Node 19, Type 0, BuildingBlock: AZAVOO_clean_sbu_0, # of connection points: 4
#     Node 20, Type 0, BuildingBlock: AZAVOO_clean_sbu_0, # of connection points: 4
#     Node 21, Type 0, BuildingBlock: AZAVOO_clean_sbu_0, # of connection points: 4
#     Node 22, Type 0, BuildingBlock: AZAVOO_clean_sbu_0, # of connection points: 4
#     Node 23, Type 0, BuildingBlock: AZAVOO_clean_sbu_0, # of connection points: 4
#     Node 24, Type 0, BuildingBlock: AZAVOO_clean_sbu_0, # of connection points: 4
#     Node 25, Type 0, BuildingBlock: AZAVOO_clean_sbu_0, # of connection points: 4
#     Node 26, Type 0, BuildingBlock: AZAVOO_clean_sbu_0, # of connection points: 4
#     Node 27, Type 0, BuildingBlock: AZAVOO_clean_sbu_0, # of connection points: 4
#     Node 28, Type 0, BuildingBlock: AZAVOO_clean_sbu_0, # of connection points: 4
#     Node 29, Type 0, BuildingBlock: AZAVOO_clean_sbu_0, # of connection points: 4
#     Node 30, Type 0, BuildingBlock: AZAVOO_clean_sbu_0, # of connection points: 4
#     Node 31, Type 0, BuildingBlock: AZAVOO_clean_sbu_0, # of connection points: 4
#     Edge 32, Type (0, 0), None
#     Edge 33, Type (0, 0), None
#     Edge 34, Type (0, 0), None
#     Edge 35, Type (0, 0), None
#     Edge 36, Type (0, 0), None
#     Edge 37, Type (0, 0), None
#     Edge 38, Type (0, 0), None
#     Edge 39, Type (0, 0), None
#     Edge 40, Type (0, 0), None
#     Edge 41, Type (0, 0), None
#     Edge 42, Type (0, 0), None
#     Edge 43, Type (0, 0), None
#     Edge 44, Type (0, 0), None
#     Edge 45, Type (0, 0), None
#     Edge 46, Type (0, 0), None
#     Edge 47, Type (0, 0), None
#     Edge 48, Type (0, 0), None
#     Edge 49, Type (0, 0), None
#     Edge 50, Type (0, 0), None
#     Edge 51, Type (0, 0), None
#     Edge 52, Type (0, 0), None
#     Edge 53, Type (0, 0), None
#     Edge 54, Type (0, 0), None
#     Edge 55, Type (0, 0), None
#     Edge 56, Type (0, 0), None
#     Edge 57, Type (0, 0), None
#     Edge 58, Type (0, 0), None
#     Edge 59, Type (0, 0), None
#     Edge 60, Type (0, 0), None
#     Edge 61, Type (0, 0), None
#     Edge 62, Type (0, 0), None
#     Edge 63, Type (0, 0), None
#     Edge 64, Type (0, 0), None
#     Edge 65, Type (0, 0), None
#     Edge 66, Type (0, 0), None
#     Edge 67, Type (0, 0), None
#     Edge 68, Type (0, 0), None
#     Edge 69, Type (0, 0), None
#     Edge 70, Type (0, 0), None
#     Edge 71, Type (0, 0), None
#     Edge 72, Type (0, 0), None
#     Edge 73, Type (0, 0), None
#     Edge 74, Type (0, 0), None
#     Edge 75, Type (0, 0), None
#     Edge 76, Type (0, 0), None
#     Edge 77, Type (0, 0), None
#     Edge 78, Type (0, 0), None
#     Edge 79, Type (0, 0), None
#     Edge 80, Type (0, 0), None
#     Edge 81, Type (0, 0), None
#     Edge 82, Type (0, 0), None
#     Edge 83, Type (0, 0), None
#     Edge 84, Type (0, 0), None
#     Edge 85, Type (0, 0), None
#     Edge 86, Type (0, 0), None
#     Edge 87, Type (0, 0), None
#     Edge 88, Type (0, 0), None
#     Edge 89, Type (0, 0), None
#     Edge 90, Type (0, 0), None
#     Edge 91, Type (0, 0), None
#     Edge 92, Type (0, 0), None
#     Edge 93, Type (0, 0), None
#     Edge 94, Type (0, 0), None
#     Edge 95, Type (0, 0), None
# Relax obj value: 0.176
# Max RMSD: 0.176
# Mean RMSD: 0.171
data_MOF--net-mer--node1-AZAVOO_clean_sbu_0--edge1-none
_symmetry_space_group_name_H-M    P1
_symmetry_Int_Tables_number       1
_symmetry_cell_setting            triclinic
loop_
_symmetry_equiv_pos_as_xyz
'x, y, z'
_cell_length_a     30.818874
_cell_length_b     32.273859
_cell_length_c     18.143718
_cell_angle_alpha  90.0
_cell_angle_beta   90.000001
_cell_angle_gamma 89.998659
loop_
_atom_site_label
_atom_site_type_symbol
_atom_site_fract_x
_atom_site_fract_y
_atom_site_fract_z
_atom_type_partial_charge
Mg0 Mg 0.09713 0.21634 0.3302 0.0
O1 O 0.13397 0.2254 0.4376 0.0
O2 O 0.20377 0.23408 0.40822 0.0
Mg3 Mg 0.21261 0.23013 0.28331 0.0
C4 C 0.17346 0.23083 0.45571 0.0
C5 C 0.99641 0.22511 0.37214 0.0
O6 O 0.96362 0.23127 0.41673 0.0
O7 O 0.10273 0.2863 0.29664 0.0
O8 O 0.17267 0.28763 0.26361 0.0
O9 O 0.11393 0.14686 0.33866 0.0
O10 O 0.15309 0.19355 0.28047 0.0
C11 C 0.13579 0.30507 0.2695 0.0
C12 C 0.14935 0.15644 0.30442 0.0
O13 O 0.03482 0.227 0.39738 0.0
Mg14 Mg 0.69848 0.07908 0.37862 0.0
O15 O 0.7614 0.11374 0.3512 0.0
O16 O 0.81862 0.07594 0.38661 0.0
Mg17 Mg 0.79183 0.017 0.44024 0.0
C18 C 0.80224 0.10824 0.35706 0.0
C19 C 0.63238 0.13793 0.2626 0.0
O20 O 0.59628 0.11638 0.26017 0.0
O21 O 0.7131 0.03589 0.28519 0.0
O22 O 0.7679 -0.00391 0.32492 0.0
O23 O 0.69767 0.11044 0.48512 0.0
O24 O 0.73125 0.0505 0.4684 0.0
C25 C 0.74007 0.00644 0.27608 0.0
C26 C 0.72433 0.08259 0.50933 0.0
O27 O 0.6646 0.12563 0.30104 0.0
Mg28 Mg 0.93805 0.76811 0.3302 0.0
O29 O 0.9012 0.75905 0.4376 0.0
O30 O 0.83141 0.75037 0.40822 0.0
Mg31 Mg 0.82257 0.75432 0.28331 0.0
C32 C 0.86172 0.75362 0.45571 0.0
C33 C 0.03877 0.75934 0.37214 0.0
O34 O 0.07155 0.75318 0.41673 0.0
O35 O 0.93245 0.69815 0.29664 0.0
O36 O 0.8625 0.69682 0.26361 0.0
O37 O 0.92125 0.83759 0.33866 0.0
O38 O 0.88208 0.7909 0.28047 0.0
C39 C 0.89939 0.67938 0.2695 0.0
C40 C 0.88583 0.82801 0.30442 0.0
O41 O 1.00036 0.75745 0.39738 0.0
Mg42 Mg 0.33669 0.90537 0.37862 0.0
O43 O 0.27377 0.87071 0.3512 0.0
O44 O 0.21655 0.90851 0.38661 0.0
Mg45 Mg 0.24335 0.96745 0.44024 0.0
C46 C 0.23294 0.87621 0.35706 0.0
C47 C 0.4028 0.84652 0.2626 0.0
O48 O 0.43889 0.86807 0.26017 0.0
O49 O 0.32207 0.94856 0.28519 0.0
O50 O 0.26728 0.98836 0.32492 0.0
O51 O 0.33751 0.87401 0.48512 0.0
O52 O 0.30393 0.93395 0.4684 0.0
C53 C 0.29511 0.97801 0.27608 0.0
C54 C 0.31085 0.90186 0.50933 0.0
O55 O 0.37057 0.85882 0.30104 0.0
Mg56 Mg 0.09714 0.76813 0.66822 0.0
O57 O 0.13398 0.75906 0.56082 0.0
O58 O 0.20377 0.75037 0.59019 0.0
Mg59 Mg 0.21261 0.75432 0.71511 0.0
C60 C 0.17346 0.75363 0.5427 0.0
C61 C 0.99641 0.75936 0.62627 0.0
O62 O 0.96363 0.75321 0.58167 0.0
O63 O 0.10272 0.69816 0.70177 0.0
O64 O 0.17267 0.69682 0.7348 0.0
O65 O 0.11394 0.8376 0.65976 0.0
O66 O 0.1531 0.7909 0.71795 0.0
C67 C 0.13579 0.67939 0.72891 0.0
C68 C 0.14936 0.82802 0.694 0.0
O69 O 0.03483 0.75748 0.60103 0.0
Mg70 Mg 0.33669 0.07907 0.61979 0.0
O71 O 0.27377 0.11374 0.64722 0.0
O72 O 0.21654 0.07594 0.61181 0.0
Mg73 Mg 0.24334 0.017 0.55819 0.0
C74 C 0.23293 0.10824 0.64136 0.0
C75 C 0.40279 0.13792 0.73581 0.0
O76 O 0.43888 0.11636 0.73824 0.0
O77 O 0.32207 0.03589 0.71322 0.0
O78 O 0.26728 -0.00391 0.6735 0.0
O79 O 0.3375 0.11043 0.51329 0.0
O80 O 0.30391 0.0505 0.53002 0.0
C81 C 0.2951 0.00644 0.72234 0.0
C82 C 0.31084 0.08258 0.48908 0.0
O83 O 0.37057 0.12563 0.69737 0.0
Mg84 Mg 0.93804 0.21632 0.66822 0.0
O85 O 0.9012 0.22539 0.56082 0.0
O86 O 0.83141 0.23408 0.59019 0.0
Mg87 Mg 0.82257 0.23013 0.71511 0.0
C88 C 0.86172 0.23082 0.5427 0.0
C89 C 0.03877 0.22509 0.62627 0.0
O90 O 0.07155 0.23124 0.58167 0.0
O91 O 0.93245 0.28629 0.70177 0.0
O92 O 0.8625 0.28763 0.7348 0.0
O93 O 0.92124 0.14685 0.65976 0.0
O94 O 0.88208 0.19355 0.71795 0.0
C95 C 0.89939 0.30506 0.72891 0.0
C96 C 0.88582 0.15643 0.694 0.0
O97 O 1.00035 0.22697 0.60103 0.0
Mg98 Mg 0.69849 0.90538 0.61979 0.0
O99 O 0.76141 0.87071 0.64722 0.0
O100 O 0.81863 0.90851 0.61181 0.0
Mg101 Mg 0.79184 0.96745 0.55819 0.0
C102 C 0.80225 0.87621 0.64137 0.0
C103 C 0.63238 0.84653 0.73581 0.0
O104 O 0.59629 0.86808 0.73824 0.0
O105 O 0.71311 0.94856 0.71322 0.0
O106 O 0.7679 0.98836 0.6735 0.0
O107 O 0.69768 0.87402 0.51329 0.0
O108 O 0.73126 0.93395 0.53002 0.0
C109 C 0.74007 0.97801 0.72234 0.0
C110 C 0.72434 0.90187 0.48908 0.0
O111 O 0.66461 0.85882 0.69737 0.0
Mg112 Mg 0.87869 0.78419 0.70563 0.0
O113 O 0.87857 0.7663 0.58157 0.0
O114 O 0.80889 0.75831 0.54779 0.0
Mg115 Mg 0.76566 0.76809 0.64676 0.0
C116 C 0.84941 0.75804 0.53329 0.0
C117 C 0.98912 0.76719 0.70467 0.0
O118 O 0.02234 0.76655 0.74996 0.0
O119 O 0.8652 0.71718 0.73291 0.0
O120 O 0.7967 0.70906 0.69436 0.0
O121 O 0.87278 0.85088 0.6755 0.0
O122 O 0.81699 0.8085 0.68991 0.0
C123 C 0.8319 0.69478 0.72143 0.0
C124 C 0.83142 0.84439 0.67083 0.0
O125 O 0.95163 0.7748 0.73086 0.0
Mg126 Mg 0.25542 0.89232 0.75152 0.0
O127 O 0.28471 0.90632 0.63278 0.0
O128 O 0.26357 0.85418 0.55923 0.0
Mg129 Mg 0.2642 0.80043 0.6379 0.0
C130 C 0.28135 0.88948 0.56877 0.0
C131 C 0.29264 0.9882 0.79579 0.0
O132 O 0.30564 0.01024 0.85251 0.0
O133 O 0.3173 0.85964 0.79153 0.0
O134 O 0.32221 0.83524 0.6814 0.0
O135 O 0.184 0.89516 0.71339 0.0
O136 O 0.22407 0.83899 0.71272 0.0
C137 C 0.33169 0.83178 0.74865 0.0
C138 C 0.18702 0.85571 0.70204 0.0
O139 O 0.27848 0.95187 0.80732 0.0
Mg140 Mg 0.15649 0.20026 0.70563 0.0
O141 O 0.1566 0.21815 0.58157 0.0
O142 O 0.22629 0.22614 0.54779 0.0
Mg143 Mg 0.26952 0.21636 0.64676 0.0
C144 C 0.18576 0.22641 0.53329 0.0
C145 C 0.04606 0.21726 0.70467 0.0
O146 O 1.01284 0.2179 0.74996 0.0
O147 O 0.16998 0.26727 0.73291 0.0
O148 O 0.23848 0.27539 0.69436 0.0
O149 O 0.1624 0.13357 0.6755 0.0
O150 O 0.21819 0.17595 0.68991 0.0
C151 C 0.20328 0.28967 0.72143 0.0
C152 C 0.20375 0.14006 0.67083 0.0
O153 O 0.08354 0.20965 0.73086 0.0
Mg154 Mg 0.77976 0.09213 0.75152 0.0
O155 O 0.75047 0.07813 0.63278 0.0
O156 O 0.77161 0.13027 0.55923 0.0
Mg157 Mg 0.77098 0.18402 0.6379 0.0
C158 C 0.75383 0.09497 0.56877 0.0
C159 C 0.74253 -0.00375 0.79579 0.0
O160 O 0.72953 0.97421 0.85251 0.0
O161 O 0.71788 0.12481 0.79153 0.0
O162 O 0.71296 0.14921 0.6814 0.0
O163 O 0.85117 0.08929 0.71339 0.0
O164 O 0.81111 0.14546 0.71272 0.0
C165 C 0.70349 0.15267 0.74865 0.0
C166 C 0.84816 0.12874 0.70204 0.0
O167 O 0.7567 0.03258 0.80732 0.0
Mg168 Mg 0.87869 0.20024 0.29278 0.0
O169 O 0.87857 0.21813 0.41685 0.0
O170 O 0.80889 0.22614 0.45062 0.0
Mg171 Mg 0.76566 0.21636 0.35166 0.0
C172 C 0.84941 0.2264 0.46512 0.0
C173 C 0.98912 0.21724 0.29375 0.0
O174 O 0.02234 0.21786 0.24846 0.0
O175 O 0.86521 0.26726 0.26551 0.0
O176 O 0.79671 0.27538 0.30406 0.0
O177 O 0.87277 0.13356 0.32292 0.0
O178 O 0.81699 0.17595 0.30851 0.0
C179 C 0.83191 0.28966 0.27698 0.0
C180 C 0.83142 0.14005 0.32759 0.0
O181 O 0.95163 0.20962 0.26757 0.0
Mg182 Mg 0.77977 0.89232 0.24689 0.0
O183 O 0.75048 0.90632 0.36563 0.0
O184 O 0.77162 0.85418 0.43918 0.0
Mg185 Mg 0.77099 0.80043 0.36051 0.0
C186 C 0.75385 0.88949 0.42964 0.0
C187 C 0.74254 0.9882 0.20263 0.0
O188 O 0.72955 0.01024 0.14591 0.0
O189 O 0.71789 0.85965 0.20688 0.0
O190 O 0.71298 0.83525 0.31702 0.0
O191 O 0.85119 0.89516 0.28503 0.0
O192 O 0.81112 0.83899 0.2857 0.0
C193 C 0.7035 0.83178 0.24976 0.0
C194 C 0.84817 0.85571 0.29638 0.0
O195 O 0.75671 0.95187 0.19109 0.0
Mg196 Mg 0.15649 0.78421 0.29278 0.0
O197 O 0.1566 0.76632 0.41685 0.0
O198 O 0.22629 0.75831 0.45062 0.0
Mg199 Mg 0.26952 0.76809 0.35166 0.0
C200 C 0.18577 0.75805 0.46512 0.0
C201 C 0.04606 0.76721 0.29375 0.0
O202 O 1.01284 0.76659 0.24846 0.0
O203 O 0.16997 0.71719 0.26551 0.0
O204 O 0.23847 0.70907 0.30406 0.0
O205 O 0.16241 0.85089 0.32293 0.0
O206 O 0.21819 0.8085 0.30851 0.0
C207 C 0.20327 0.69479 0.27698 0.0
C208 C 0.20376 0.84439 0.32759 0.0
O209 O 0.08354 0.77483 0.26757 0.0
Mg210 Mg 0.25541 0.09213 0.24689 0.0
O211 O 0.2847 0.07813 0.36563 0.0
O212 O 0.26355 0.13027 0.43918 0.0
Mg213 Mg 0.26419 0.18402 0.36051 0.0
C214 C 0.28133 0.09496 0.42964 0.0
C215 C 0.29264 -0.00375 0.20263 0.0
O216 O 0.30563 0.97421 0.14591 0.0
O217 O 0.31729 0.1248 0.20688 0.0
O218 O 0.3222 0.1492 0.31702 0.0
O219 O 0.18399 0.08929 0.28503 0.0
O220 O 0.22405 0.14546 0.2857 0.0
C221 C 0.33168 0.15267 0.24976 0.0
C222 C 0.18701 0.12874 0.29638 0.0
O223 O 0.27847 0.03258 0.19109 0.0
Mg224 Mg 0.59713 0.71632 0.83019 0.0
O225 O 0.63397 0.72538 0.93759 0.0
O226 O 0.70376 0.73406 0.90821 0.0
Mg227 Mg 0.7126 0.73011 0.7833 0.0
C228 C 0.67345 0.73081 0.9557 0.0
C229 C 0.4964 0.7251 0.87214 0.0
O230 O 0.46362 0.73126 0.91673 0.0
O231 O 0.60272 0.78629 0.79665 0.0
O232 O 0.67267 0.78762 0.76362 0.0
O233 O 0.61392 0.64685 0.83864 0.0
O234 O 0.65309 0.69354 0.78046 0.0
C235 C 0.63579 0.80506 0.76951 0.0
C236 C 0.64934 0.65643 0.8044 0.0
O237 O 0.53482 0.72698 0.89738 0.0
Mg238 Mg 0.19848 0.57907 0.87863 0.0
O239 O 0.2614 0.61372 0.8512 0.0
O240 O 0.31862 0.57592 0.8866 0.0
Mg241 Mg 0.29183 0.51698 0.94023 0.0
C242 C 0.30224 0.60822 0.85705 0.0
C243 C 0.13238 0.63792 0.76261 0.0
O244 O 0.09628 0.61637 0.76019 0.0
O245 O 0.21309 0.53588 0.7852 0.0
O246 O 0.26789 0.49608 0.82491 0.0
O247 O 0.19767 0.61043 0.98513 0.0
O248 O 0.23125 0.55049 0.9684 0.0
C249 C 0.24006 0.50643 0.77608 0.0
C250 C 0.22434 0.58257 0.00934 0.0
O251 O 0.16461 0.62562 0.80105 0.0
Mg252 Mg 0.43805 0.26813 0.83019 0.0
O253 O 0.40121 0.25907 0.93759 0.0
O254 O 0.33141 0.25039 0.90821 0.0
Mg255 Mg 0.32258 0.25434 0.7833 0.0
C256 C 0.36172 0.25364 0.9557 0.0
C257 C 0.53878 0.25935 0.87214 0.0
O258 O 0.57156 0.25319 0.91672 0.0
O259 O 0.43245 0.19816 0.79665 0.0
O260 O 0.3625 0.19683 0.76362 0.0
O261 O 0.42125 0.3376 0.83864 0.0
O262 O 0.38209 0.29091 0.78046 0.0
C263 C 0.39939 0.17938 0.76951 0.0
C264 C 0.38583 0.32802 0.8044 0.0
O265 O 0.50036 0.25747 0.89738 0.0
Mg266 Mg 0.8367 0.40538 0.87863 0.0
O267 O 0.77377 0.37073 0.8512 0.0
O268 O 0.71655 0.40853 0.8866 0.0
Mg269 Mg 0.74335 0.46747 0.94023 0.0
C270 C 0.73294 0.37623 0.85705 0.0
C271 C 0.9028 0.34653 0.76261 0.0
O272 O 0.9389 0.36808 0.76019 0.0
O273 O 0.82209 0.44857 0.7852 0.0
O274 O 0.76729 0.48837 0.82491 0.0
O275 O 0.8375 0.37402 0.98513 0.0
O276 O 0.80393 0.43396 0.9684 0.0
C277 C 0.79512 0.47802 0.77608 0.0
C278 C 0.81084 0.40188 0.00934 0.0
O279 O 0.87057 0.35883 0.80105 0.0
Mg280 Mg 0.59713 0.26814 0.16823 0.0
O281 O 0.63397 0.25908 0.06083 0.0
O282 O 0.70377 0.25039 0.09021 0.0
Mg283 Mg 0.71261 0.25434 0.21512 0.0
C284 C 0.67346 0.25365 0.04271 0.0
C285 C 0.49641 0.25937 0.12627 0.0
O286 O 0.46363 0.25323 0.08167 0.0
O287 O 0.60272 0.19817 0.20177 0.0
O288 O 0.67267 0.19683 0.23479 0.0
O289 O 0.61394 0.33762 0.15978 0.0
O290 O 0.65309 0.29092 0.21796 0.0
C291 C 0.63579 0.17939 0.22889 0.0
C292 C 0.64935 0.32803 0.19402 0.0
O293 O 0.53482 0.2575 0.10103 0.0
Mg294 Mg 0.83669 0.57906 0.11978 0.0
O295 O 0.77377 0.61372 0.14722 0.0
O296 O 0.71654 0.57592 0.11182 0.0
Mg297 Mg 0.74334 0.51698 0.0582 0.0
C298 C 0.73293 0.60822 0.14137 0.0
C299 C 0.90279 0.63791 0.2358 0.0
O300 O 0.93889 0.61636 0.23822 0.0
O301 O 0.82208 0.53588 0.21321 0.0
O302 O 0.76729 0.49608 0.17351 0.0
O303 O 0.83749 0.61042 0.01328 0.0
O304 O 0.80391 0.55049 0.03001 0.0
C305 C 0.79512 0.50643 0.22234 0.0
C306 C 0.81083 0.58257 0.98907 0.0
O307 O 0.87057 0.62562 0.19736 0.0
Mg308 Mg 0.43805 0.71631 0.16823 0.0
O309 O 0.4012 0.72537 0.06083 0.0
O310 O 0.33141 0.73406 0.09021 0.0
Mg311 Mg 0.32257 0.73011 0.21512 0.0
C312 C 0.36172 0.7308 0.04271 0.0
C313 C 0.53877 0.72508 0.12627 0.0
O314 O 0.57155 0.73123 0.08167 0.0
O315 O 0.43245 0.78628 0.20177 0.0
O316 O 0.3625 0.78762 0.23479 0.0
O317 O 0.42124 0.64683 0.15978 0.0
O318 O 0.38208 0.69353 0.21796 0.0
C319 C 0.39939 0.80506 0.22889 0.0
C320 C 0.38582 0.65642 0.19402 0.0
O321 O 0.50036 0.72695 0.10103 0.0
Mg322 Mg 0.19849 0.40539 0.11978 0.0
O323 O 0.26141 0.37073 0.14722 0.0
O324 O 0.31863 0.40853 0.11182 0.0
Mg325 Mg 0.29184 0.46747 0.0582 0.0
C326 C 0.30225 0.37623 0.14137 0.0
C327 C 0.13239 0.34654 0.2358 0.0
O328 O 0.09629 0.36809 0.23822 0.0
O329 O 0.21309 0.44857 0.21321 0.0
O330 O 0.26789 0.48837 0.17351 0.0
O331 O 0.19769 0.37403 0.01328 0.0
O332 O 0.23126 0.43396 0.03001 0.0
C333 C 0.24006 0.47802 0.22234 0.0
C334 C 0.22435 0.40188 0.98907 0.0
O335 O 0.16461 0.35883 0.19736 0.0
Mg336 Mg 0.37868 0.2842 0.20563 0.0
O337 O 0.37857 0.26633 0.08156 0.0
O338 O 0.30889 0.25834 0.04777 0.0
Mg339 Mg 0.26566 0.26812 0.14673 0.0
C340 C 0.34941 0.25807 0.03328 0.0
C341 C 0.48911 0.2672 0.20467 0.0
O342 O 0.52233 0.26656 0.24997 0.0
O343 O 0.36519 0.21719 0.23288 0.0
O344 O 0.29669 0.20908 0.1943 0.0
O345 O 0.37278 0.35089 0.17551 0.0
O346 O 0.31699 0.30851 0.1899 0.0
C347 C 0.33189 0.19479 0.22136 0.0
C348 C 0.33142 0.3444 0.17084 0.0
O349 O 0.45163 0.27481 0.23086 0.0
Mg350 Mg 0.75542 0.39232 0.25153 0.0
O351 O 0.78471 0.40632 0.1328 0.0
O352 O 0.76354 0.3542 0.05923 0.0
Mg353 Mg 0.76418 0.30044 0.13787 0.0
C354 C 0.78134 0.3895 0.06878 0.0
C355 C 0.79267 0.48819 0.29579 0.0
O356 O 0.80568 0.51023 0.35251 0.0
O357 O 0.81728 0.35962 0.29151 0.0
O358 O 0.82225 0.33521 0.18131 0.0
O359 O 0.684 0.39518 0.21341 0.0
O360 O 0.72406 0.339 0.21272 0.0
C361 C 0.83171 0.33179 0.24858 0.0
C362 C 0.68702 0.35572 0.20205 0.0
O363 O 0.7785 0.45186 0.30734 0.0
Mg364 Mg 0.6565 0.70025 0.20563 0.0
O365 O 0.6566 0.71812 0.08156 0.0
O366 O 0.72629 0.72611 0.04777 0.0
Mg367 Mg 0.76952 0.71633 0.14673 0.0
C368 C 0.68576 0.72638 0.03328 0.0
C369 C 0.54607 0.71725 0.20467 0.0
O370 O 0.51285 0.71789 0.24997 0.0
O371 O 0.66999 0.76726 0.23288 0.0
O372 O 0.73849 0.77537 0.1943 0.0
O373 O 0.6624 0.63356 0.17551 0.0
O374 O 0.71819 0.67594 0.1899 0.0
C375 C 0.70328 0.78966 0.22136 0.0
C376 C 0.70376 0.64004 0.17084 0.0
O377 O 0.58355 0.70964 0.23086 0.0
Mg378 Mg 0.27976 0.59213 0.25153 0.0
O379 O 0.25047 0.57813 0.1328 0.0
O380 O 0.27164 0.63025 0.05923 0.0
Mg381 Mg 0.271 0.68401 0.13787 0.0
C382 C 0.25384 0.59495 0.06878 0.0
C383 C 0.24251 0.49626 0.29579 0.0
O384 O 0.2295 0.47422 0.35251 0.0
O385 O 0.2179 0.62483 0.29151 0.0
O386 O 0.21292 0.64924 0.18131 0.0
O387 O 0.35118 0.58927 0.21341 0.0
O388 O 0.31112 0.64545 0.21272 0.0
C389 C 0.20347 0.65266 0.24858 0.0
C390 C 0.34816 0.62873 0.20205 0.0
O391 O 0.25668 0.53259 0.30734 0.0
Mg392 Mg 0.37868 0.70023 0.79279 0.0
O393 O 0.37857 0.71811 0.91686 0.0
O394 O 0.30889 0.72611 0.95064 0.0
Mg395 Mg 0.26566 0.71633 0.85168 0.0
C396 C 0.34941 0.72637 0.96514 0.0
C397 C 0.48911 0.71723 0.79375 0.0
O398 O 0.52233 0.71786 0.74845 0.0
O399 O 0.3652 0.76725 0.76554 0.0
O400 O 0.2967 0.77536 0.80412 0.0
O401 O 0.37277 0.63354 0.82291 0.0
O402 O 0.31698 0.67593 0.80851 0.0
C403 C 0.3319 0.78965 0.77706 0.0
C404 C 0.33142 0.64004 0.82758 0.0
O405 O 0.45163 0.70961 0.76756 0.0
Mg406 Mg 0.27977 0.39233 0.74689 0.0
O407 O 0.25048 0.40632 0.86562 0.0
O408 O 0.27165 0.3542 0.93919 0.0
Mg409 Mg 0.27101 0.30045 0.86054 0.0
C410 C 0.25386 0.3895 0.92964 0.0
C411 C 0.24252 0.48819 0.70262 0.0
O412 O 0.22951 0.51023 0.64591 0.0
O413 O 0.21791 0.35962 0.7069 0.0
O414 O 0.21294 0.33522 0.8171 0.0
O415 O 0.35119 0.39517 0.78501 0.0
O416 O 0.31113 0.339 0.7857 0.0
C417 C 0.20348 0.3318 0.74983 0.0
C418 C 0.34818 0.35572 0.79637 0.0
O419 O 0.25669 0.45186 0.69108 0.0
Mg420 Mg 0.6565 0.28422 0.79279 0.0
O421 O 0.6566 0.26634 0.91686 0.0
O422 O 0.72629 0.25834 0.95064 0.0
Mg423 Mg 0.76952 0.26812 0.85168 0.0
C424 C 0.68576 0.25808 0.96514 0.0
C425 C 0.54607 0.26722 0.79375 0.0
O426 O 0.51285 0.26659 0.74846 0.0
O427 O 0.66998 0.2172 0.76554 0.0
O428 O 0.73848 0.20909 0.80412 0.0
O429 O 0.66241 0.35091 0.82291 0.0
O430 O 0.71819 0.30852 0.80851 0.0
C431 C 0.70328 0.1948 0.77706 0.0
C432 C 0.70376 0.34441 0.82758 0.0
O433 O 0.58355 0.27484 0.76756 0.0
Mg434 Mg 0.7554 0.59212 0.74689 0.0
O435 O 0.7847 0.57813 0.86562 0.0
O436 O 0.76353 0.63025 0.93919 0.0
Mg437 Mg 0.76417 0.684 0.86054 0.0
C438 C 0.78132 0.59495 0.92964 0.0
C439 C 0.79266 0.49626 0.70262 0.0
O440 O 0.80567 0.47422 0.64591 0.0
O441 O 0.81727 0.62483 0.7069 0.0
O442 O 0.82224 0.64923 0.8171 0.0
O443 O 0.68399 0.58928 0.78501 0.0
O444 O 0.72405 0.64545 0.7857 0.0
C445 C 0.8317 0.65265 0.74983 0.0
C446 C 0.687 0.62873 0.79637 0.0
O447 O 0.77848 0.53259 0.69108 0.0
loop_
_geom_bond_atom_site_label_1
_geom_bond_atom_site_label_2
_geom_bond_distance
_geom_bond_site_symmetry_2
_ccdc_geom_bond_type
Mg0 O1 2.028 . S
Mg0 O7 1.986 . S
Mg0 O9 2.114 . S
Mg0 O10 2.251 . S
Mg0 O13 2.010 . S
O1 Mg0 2.028 . S
O1 C4 1.250 . S
O2 Mg3 2.028 . S
O2 C4 1.248 . S
Mg3 O2 2.028 . S
Mg3 O8 2.032 . S
Mg3 O10 2.079 . S
C4 O1 1.250 . S
C4 O2 1.248 . S
C5 O6 1.264 1_455 S
C5 O13 1.249 . S
O6 C5 1.264 1_655 S
O7 Mg0 1.986 . S
O7 C11 1.246 . S
O8 Mg3 2.032 . S
O8 C11 1.259 . S
O9 Mg0 2.114 . S
O9 C12 1.252 . S
O10 Mg0 2.251 . S
O10 Mg3 2.079 . S
O10 C12 1.273 . S
C11 O7 1.246 . S
C11 O8 1.259 . S
C12 O9 1.252 . S
C12 O10 1.273 . S
O13 Mg0 2.010 . S
O13 C5 1.249 . S
Mg14 O15 2.028 . S
Mg14 O21 1.986 . S
Mg14 O23 2.114 . S
Mg14 O24 2.251 . S
Mg14 O27 2.010 . S
O15 Mg14 2.028 . S
O15 C18 1.250 . S
O16 Mg17 2.028 . S
O16 C18 1.248 . S
Mg17 O16 2.028 . S
Mg17 O22 2.032 . S
Mg17 O24 2.079 . S
C18 O15 1.250 . S
C18 O16 1.248 . S
C19 O20 1.264 . S
C19 O27 1.249 . S
O20 C19 1.264 . S
O21 Mg14 1.986 . S
O21 C25 1.246 . S
O22 Mg17 2.032 . S
O22 C25 1.259 . S
O23 Mg14 2.114 . S
O23 C26 1.252 . S
O24 Mg14 2.251 . S
O24 Mg17 2.079 . S
O24 C26 1.273 . S
C25 O21 1.246 . S
C25 O22 1.259 . S
C26 O23 1.252 . S
C26 O24 1.273 . S
O27 Mg14 2.010 . S
O27 C19 1.249 . S
Mg28 O29 2.028 . S
Mg28 O35 1.986 . S
Mg28 O37 2.114 . S
Mg28 O38 2.251 . S
Mg28 O41 2.010 . S
O29 Mg28 2.028 . S
O29 C32 1.250 . S
O30 Mg31 2.028 . S
O30 C32 1.248 . S
Mg31 O30 2.028 . S
Mg31 O36 2.032 . S
Mg31 O38 2.079 . S
C32 O29 1.250 . S
C32 O30 1.248 . S
C33 O34 1.264 1_655 S
C33 O41 1.249 . S
O34 C33 1.264 1_455 S
O35 Mg28 1.986 . S
O35 C39 1.246 . S
O36 Mg31 2.032 . S
O36 C39 1.259 . S
O37 Mg28 2.114 . S
O37 C40 1.252 . S
O38 Mg28 2.251 . S
O38 Mg31 2.079 . S
O38 C40 1.273 . S
C39 O35 1.246 . S
C39 O36 1.259 . S
C40 O37 1.252 . S
C40 O38 1.273 . S
O41 Mg28 2.010 . S
O41 C33 1.249 . S
Mg42 O43 2.028 . S
Mg42 O49 1.986 . S
Mg42 O51 2.114 . S
Mg42 O52 2.251 . S
Mg42 O55 2.010 . S
O43 Mg42 2.028 . S
O43 C46 1.250 . S
O44 Mg45 2.028 . S
O44 C46 1.248 . S
Mg45 O44 2.028 . S
Mg45 O50 2.032 . S
Mg45 O52 2.079 . S
C46 O43 1.250 . S
C46 O44 1.248 . S
C47 O48 1.264 . S
C47 O55 1.249 . S
O48 C47 1.264 . S
O49 Mg42 1.986 . S
O49 C53 1.246 . S
O50 Mg45 2.032 . S
O50 C53 1.259 . S
O51 Mg42 2.114 . S
O51 C54 1.252 . S
O52 Mg42 2.251 . S
O52 Mg45 2.079 . S
O52 C54 1.273 . S
C53 O49 1.246 . S
C53 O50 1.259 . S
C54 O51 1.252 . S
C54 O52 1.273 . S
O55 Mg42 2.010 . S
O55 C47 1.249 . S
Mg56 O57 2.028 . S
Mg56 O63 1.986 . S
Mg56 O65 2.114 . S
Mg56 O66 2.251 . S
Mg56 O69 2.010 . S
O57 Mg56 2.028 . S
O57 C60 1.250 . S
O58 Mg59 2.028 . S
O58 C60 1.248 . S
Mg59 O58 2.028 . S
Mg59 O64 2.032 . S
Mg59 O66 2.079 . S
C60 O57 1.250 . S
C60 O58 1.248 . S
C61 O62 1.264 1_455 S
C61 O69 1.249 . S
O62 C61 1.264 1_655 S
O63 Mg56 1.986 . S
O63 C67 1.246 . S
O64 Mg59 2.032 . S
O64 C67 1.259 . S
O65 Mg56 2.114 . S
O65 C68 1.252 . S
O66 Mg56 2.251 . S
O66 Mg59 2.079 . S
O66 C68 1.273 . S
C67 O63 1.246 . S
C67 O64 1.259 . S
C68 O65 1.252 . S
C68 O66 1.273 . S
O69 Mg56 2.010 . S
O69 C61 1.249 . S
Mg70 O71 2.028 . S
Mg70 O77 1.986 . S
Mg70 O79 2.114 . S
Mg70 O80 2.251 . S
Mg70 O83 2.010 . S
O71 Mg70 2.028 . S
O71 C74 1.250 . S
O72 Mg73 2.028 . S
O72 C74 1.248 . S
Mg73 O72 2.028 . S
Mg73 O78 2.032 . S
Mg73 O80 2.079 . S
C74 O71 1.250 . S
C74 O72 1.248 . S
C75 O76 1.264 . S
C75 O83 1.249 . S
O76 C75 1.264 . S
O77 Mg70 1.986 . S
O77 C81 1.246 . S
O78 Mg73 2.032 . S
O78 C81 1.259 . S
O79 Mg70 2.114 . S
O79 C82 1.252 . S
O80 Mg70 2.251 . S
O80 Mg73 2.079 . S
O80 C82 1.273 . S
C81 O77 1.246 . S
C81 O78 1.259 . S
C82 O79 1.252 . S
C82 O80 1.273 . S
O83 Mg70 2.010 . S
O83 C75 1.249 . S
Mg84 O85 2.028 . S
Mg84 O91 1.986 . S
Mg84 O93 2.114 . S
Mg84 O94 2.251 . S
Mg84 O97 2.010 . S
O85 Mg84 2.028 . S
O85 C88 1.250 . S
O86 Mg87 2.028 . S
O86 C88 1.248 . S
Mg87 O86 2.028 . S
Mg87 O92 2.032 . S
Mg87 O94 2.079 . S
C88 O85 1.250 . S
C88 O86 1.248 . S
C89 O90 1.264 1_655 S
C89 O97 1.249 . S
O90 C89 1.264 1_455 S
O91 Mg84 1.986 . S
O91 C95 1.246 . S
O92 Mg87 2.032 . S
O92 C95 1.259 . S
O93 Mg84 2.114 . S
O93 C96 1.252 . S
O94 Mg84 2.251 . S
O94 Mg87 2.079 . S
O94 C96 1.273 . S
C95 O91 1.246 . S
C95 O92 1.259 . S
C96 O93 1.252 . S
C96 O94 1.273 . S
O97 Mg84 2.010 . S
O97 C89 1.249 . S
Mg98 O99 2.028 . S
Mg98 O105 1.986 . S
Mg98 O107 2.114 . S
Mg98 O108 2.251 . S
Mg98 O111 2.010 . S
O99 Mg98 2.028 . S
O99 C102 1.250 . S
O100 Mg101 2.028 . S
O100 C102 1.248 . S
Mg101 O100 2.028 . S
Mg101 O106 2.032 . S
Mg101 O108 2.079 . S
C102 O99 1.250 . S
C102 O100 1.248 . S
C103 O104 1.264 . S
C103 O111 1.249 . S
O104 C103 1.264 . S
O105 Mg98 1.986 . S
O105 C109 1.246 . S
O106 Mg101 2.032 . S
O106 C109 1.259 . S
O107 Mg98 2.114 . S
O107 C110 1.252 . S
O108 Mg98 2.251 . S
O108 Mg101 2.079 . S
O108 C110 1.273 . S
C109 O105 1.246 . S
C109 O106 1.259 . S
C110 O107 1.252 . S
C110 O108 1.273 . S
O111 Mg98 2.010 . S
O111 C103 1.249 . S
Mg112 O113 2.028 . S
Mg112 O119 1.986 . S
Mg112 O121 2.114 . S
Mg112 O122 2.251 . S
Mg112 O125 2.010 . S
O113 Mg112 2.028 . S
O113 C116 1.250 . S
O114 Mg115 2.028 . S
O114 C116 1.248 . S
Mg115 O114 2.028 . S
Mg115 O120 2.032 . S
Mg115 O122 2.079 . S
C116 O113 1.250 . S
C116 O114 1.248 . S
C117 O118 1.264 . S
C117 O125 1.249 . S
O118 C117 1.264 . S
O119 Mg112 1.986 . S
O119 C123 1.246 . S
O120 Mg115 2.032 . S
O120 C123 1.259 . S
O121 Mg112 2.114 . S
O121 C124 1.252 . S
O122 Mg112 2.251 . S
O122 Mg115 2.079 . S
O122 C124 1.273 . S
C123 O119 1.246 . S
C123 O120 1.259 . S
C124 O121 1.252 . S
C124 O122 1.273 . S
O125 Mg112 2.010 . S
O125 C117 1.249 . S
Mg126 O127 2.028 . S
Mg126 O133 1.986 . S
Mg126 O135 2.114 . S
Mg126 O136 2.251 . S
Mg126 O139 2.010 . S
O127 Mg126 2.028 . S
O127 C130 1.250 . S
O128 Mg129 2.028 . S
O128 C130 1.248 . S
Mg129 O128 2.028 . S
Mg129 O134 2.032 . S
Mg129 O136 2.079 . S
C130 O127 1.250 . S
C130 O128 1.248 . S
C131 O132 1.264 1_565 S
C131 O139 1.249 . S
O132 C131 1.264 1_545 S
O133 Mg126 1.986 . S
O133 C137 1.246 . S
O134 Mg129 2.032 . S
O134 C137 1.259 . S
O135 Mg126 2.114 . S
O135 C138 1.252 . S
O136 Mg126 2.251 . S
O136 Mg129 2.079 . S
O136 C138 1.273 . S
C137 O133 1.246 . S
C137 O134 1.259 . S
C138 O135 1.252 . S
C138 O136 1.273 . S
O139 Mg126 2.010 . S
O139 C131 1.249 . S
Mg140 O141 2.028 . S
Mg140 O147 1.986 . S
Mg140 O149 2.114 . S
Mg140 O150 2.251 . S
Mg140 O153 2.010 . S
O141 Mg140 2.028 . S
O141 C144 1.250 . S
O142 Mg143 2.028 . S
O142 C144 1.248 . S
Mg143 O142 2.028 . S
Mg143 O148 2.032 . S
Mg143 O150 2.079 . S
C144 O141 1.250 . S
C144 O142 1.248 . S
C145 O146 1.264 . S
C145 O153 1.249 . S
O146 C145 1.264 . S
O147 Mg140 1.986 . S
O147 C151 1.246 . S
O148 Mg143 2.032 . S
O148 C151 1.259 . S
O149 Mg140 2.114 . S
O149 C152 1.252 . S
O150 Mg140 2.251 . S
O150 Mg143 2.079 . S
O150 C152 1.273 . S
C151 O147 1.246 . S
C151 O148 1.259 . S
C152 O149 1.252 . S
C152 O150 1.273 . S
O153 Mg140 2.010 . S
O153 C145 1.249 . S
Mg154 O155 2.028 . S
Mg154 O161 1.986 . S
Mg154 O163 2.114 . S
Mg154 O164 2.251 . S
Mg154 O167 2.010 . S
O155 Mg154 2.028 . S
O155 C158 1.250 . S
O156 Mg157 2.028 . S
O156 C158 1.248 . S
Mg157 O156 2.028 . S
Mg157 O162 2.032 . S
Mg157 O164 2.079 . S
C158 O155 1.250 . S
C158 O156 1.248 . S
C159 O160 1.264 1_545 S
C159 O167 1.249 . S
O160 C159 1.264 1_565 S
O161 Mg154 1.986 . S
O161 C165 1.246 . S
O162 Mg157 2.032 . S
O162 C165 1.259 . S
O163 Mg154 2.114 . S
O163 C166 1.252 . S
O164 Mg154 2.251 . S
O164 Mg157 2.079 . S
O164 C166 1.273 . S
C165 O161 1.246 . S
C165 O162 1.259 . S
C166 O163 1.252 . S
C166 O164 1.273 . S
O167 Mg154 2.010 . S
O167 C159 1.249 . S
Mg168 O169 2.028 . S
Mg168 O175 1.986 . S
Mg168 O177 2.114 . S
Mg168 O178 2.251 . S
Mg168 O181 2.010 . S
O169 Mg168 2.028 . S
O169 C172 1.250 . S
O170 Mg171 2.028 . S
O170 C172 1.248 . S
Mg171 O170 2.028 . S
Mg171 O176 2.032 . S
Mg171 O178 2.079 . S
C172 O169 1.250 . S
C172 O170 1.248 . S
C173 O174 1.264 . S
C173 O181 1.249 . S
O174 C173 1.264 . S
O175 Mg168 1.986 . S
O175 C179 1.246 . S
O176 Mg171 2.032 . S
O176 C179 1.259 . S
O177 Mg168 2.114 . S
O177 C180 1.252 . S
O178 Mg168 2.251 . S
O178 Mg171 2.079 . S
O178 C180 1.273 . S
C179 O175 1.246 . S
C179 O176 1.259 . S
C180 O177 1.252 . S
C180 O178 1.273 . S
O181 Mg168 2.010 . S
O181 C173 1.249 . S
Mg182 O183 2.028 . S
Mg182 O189 1.986 . S
Mg182 O191 2.114 . S
Mg182 O192 2.251 . S
Mg182 O195 2.010 . S
O183 Mg182 2.028 . S
O183 C186 1.250 . S
O184 Mg185 2.028 . S
O184 C186 1.248 . S
Mg185 O184 2.028 . S
Mg185 O190 2.032 . S
Mg185 O192 2.079 . S
C186 O183 1.250 . S
C186 O184 1.248 . S
C187 O188 1.264 1_565 S
C187 O195 1.249 . S
O188 C187 1.264 1_545 S
O189 Mg182 1.986 . S
O189 C193 1.246 . S
O190 Mg185 2.032 . S
O190 C193 1.259 . S
O191 Mg182 2.114 . S
O191 C194 1.252 . S
O192 Mg182 2.251 . S
O192 Mg185 2.079 . S
O192 C194 1.273 . S
C193 O189 1.246 . S
C193 O190 1.259 . S
C194 O191 1.252 . S
C194 O192 1.273 . S
O195 Mg182 2.010 . S
O195 C187 1.249 . S
Mg196 O197 2.028 . S
Mg196 O203 1.986 . S
Mg196 O205 2.114 . S
Mg196 O206 2.251 . S
Mg196 O209 2.010 . S
O197 Mg196 2.028 . S
O197 C200 1.250 . S
O198 Mg199 2.028 . S
O198 C200 1.248 . S
Mg199 O198 2.028 . S
Mg199 O204 2.032 . S
Mg199 O206 2.079 . S
C200 O197 1.250 . S
C200 O198 1.248 . S
C201 O202 1.264 . S
C201 O209 1.249 . S
O202 C201 1.264 . S
O203 Mg196 1.986 . S
O203 C207 1.246 . S
O204 Mg199 2.032 . S
O204 C207 1.259 . S
O205 Mg196 2.114 . S
O205 C208 1.252 . S
O206 Mg196 2.251 . S
O206 Mg199 2.079 . S
O206 C208 1.273 . S
C207 O203 1.246 . S
C207 O204 1.259 . S
C208 O205 1.252 . S
C208 O206 1.273 . S
O209 Mg196 2.010 . S
O209 C201 1.249 . S
Mg210 O211 2.028 . S
Mg210 O217 1.986 . S
Mg210 O219 2.114 . S
Mg210 O220 2.251 . S
Mg210 O223 2.010 . S
O211 Mg210 2.028 . S
O211 C214 1.250 . S
O212 Mg213 2.028 . S
O212 C214 1.248 . S
Mg213 O212 2.028 . S
Mg213 O218 2.032 . S
Mg213 O220 2.079 . S
C214 O211 1.250 . S
C214 O212 1.248 . S
C215 O216 1.264 1_545 S
C215 O223 1.249 . S
O216 C215 1.264 1_565 S
O217 Mg210 1.986 . S
O217 C221 1.246 . S
O218 Mg213 2.032 . S
O218 C221 1.259 . S
O219 Mg210 2.114 . S
O219 C222 1.252 . S
O220 Mg210 2.251 . S
O220 Mg213 2.079 . S
O220 C222 1.273 . S
C221 O217 1.246 . S
C221 O218 1.259 . S
C222 O219 1.252 . S
C222 O220 1.273 . S
O223 Mg210 2.010 . S
O223 C215 1.249 . S
Mg224 O225 2.028 . S
Mg224 O231 1.986 . S
Mg224 O233 2.114 . S
Mg224 O234 2.251 . S
Mg224 O237 2.010 . S
O225 Mg224 2.028 . S
O225 C228 1.250 . S
O226 Mg227 2.028 . S
O226 C228 1.248 . S
Mg227 O226 2.028 . S
Mg227 O232 2.032 . S
Mg227 O234 2.079 . S
C228 O225 1.250 . S
C228 O226 1.248 . S
C229 O230 1.264 . S
C229 O237 1.249 . S
O230 C229 1.264 . S
O231 Mg224 1.986 . S
O231 C235 1.246 . S
O232 Mg227 2.032 . S
O232 C235 1.259 . S
O233 Mg224 2.114 . S
O233 C236 1.252 . S
O234 Mg224 2.251 . S
O234 Mg227 2.079 . S
O234 C236 1.273 . S
C235 O231 1.246 . S
C235 O232 1.259 . S
C236 O233 1.252 . S
C236 O234 1.273 . S
O237 Mg224 2.010 . S
O237 C229 1.249 . S
Mg238 O239 2.028 . S
Mg238 O245 1.986 . S
Mg238 O247 2.114 . S
Mg238 O248 2.251 . S
Mg238 O251 2.010 . S
O239 Mg238 2.028 . S
O239 C242 1.250 . S
O240 Mg241 2.028 . S
O240 C242 1.248 . S
Mg241 O240 2.028 . S
Mg241 O246 2.032 . S
Mg241 O248 2.079 . S
C242 O239 1.250 . S
C242 O240 1.248 . S
C243 O244 1.264 . S
C243 O251 1.249 . S
O244 C243 1.264 . S
O245 Mg238 1.986 . S
O245 C249 1.246 . S
O246 Mg241 2.032 . S
O246 C249 1.259 . S
O247 Mg238 2.114 . S
O247 C250 1.252 . S
O248 Mg238 2.251 . S
O248 Mg241 2.079 . S
O248 C250 1.273 . S
C249 O245 1.246 . S
C249 O246 1.259 . S
C250 O247 1.252 . S
C250 O248 1.273 . S
O251 Mg238 2.010 . S
O251 C243 1.249 . S
Mg252 O253 2.028 . S
Mg252 O259 1.986 . S
Mg252 O261 2.114 . S
Mg252 O262 2.251 . S
Mg252 O265 2.010 . S
O253 Mg252 2.028 . S
O253 C256 1.250 . S
O254 Mg255 2.028 . S
O254 C256 1.248 . S
Mg255 O254 2.028 . S
Mg255 O260 2.032 . S
Mg255 O262 2.079 . S
C256 O253 1.250 . S
C256 O254 1.248 . S
C257 O258 1.264 . S
C257 O265 1.249 . S
O258 C257 1.264 . S
O259 Mg252 1.986 . S
O259 C263 1.246 . S
O260 Mg255 2.032 . S
O260 C263 1.259 . S
O261 Mg252 2.114 . S
O261 C264 1.252 . S
O262 Mg252 2.251 . S
O262 Mg255 2.079 . S
O262 C264 1.273 . S
C263 O259 1.246 . S
C263 O260 1.259 . S
C264 O261 1.252 . S
C264 O262 1.273 . S
O265 Mg252 2.010 . S
O265 C257 1.249 . S
Mg266 O267 2.028 . S
Mg266 O273 1.986 . S
Mg266 O275 2.114 . S
Mg266 O276 2.251 . S
Mg266 O279 2.010 . S
O267 Mg266 2.028 . S
O267 C270 1.250 . S
O268 Mg269 2.028 . S
O268 C270 1.248 . S
Mg269 O268 2.028 . S
Mg269 O274 2.032 . S
Mg269 O276 2.079 . S
C270 O267 1.250 . S
C270 O268 1.248 . S
C271 O272 1.264 . S
C271 O279 1.249 . S
O272 C271 1.264 . S
O273 Mg266 1.986 . S
O273 C277 1.246 . S
O274 Mg269 2.032 . S
O274 C277 1.259 . S
O275 Mg266 2.114 . S
O275 C278 1.252 . S
O276 Mg266 2.251 . S
O276 Mg269 2.079 . S
O276 C278 1.273 . S
C277 O273 1.246 . S
C277 O274 1.259 . S
C278 O275 1.252 . S
C278 O276 1.273 . S
O279 Mg266 2.010 . S
O279 C271 1.249 . S
Mg280 O281 2.028 . S
Mg280 O287 1.986 . S
Mg280 O289 2.114 . S
Mg280 O290 2.251 . S
Mg280 O293 2.010 . S
O281 Mg280 2.028 . S
O281 C284 1.250 . S
O282 Mg283 2.028 . S
O282 C284 1.248 . S
Mg283 O282 2.028 . S
Mg283 O288 2.032 . S
Mg283 O290 2.079 . S
C284 O281 1.250 . S
C284 O282 1.248 . S
C285 O286 1.264 . S
C285 O293 1.249 . S
O286 C285 1.264 . S
O287 Mg280 1.986 . S
O287 C291 1.246 . S
O288 Mg283 2.032 . S
O288 C291 1.259 . S
O289 Mg280 2.114 . S
O289 C292 1.252 . S
O290 Mg280 2.251 . S
O290 Mg283 2.079 . S
O290 C292 1.273 . S
C291 O287 1.246 . S
C291 O288 1.259 . S
C292 O289 1.252 . S
C292 O290 1.273 . S
O293 Mg280 2.010 . S
O293 C285 1.249 . S
Mg294 O295 2.028 . S
Mg294 O301 1.986 . S
Mg294 O303 2.114 . S
Mg294 O304 2.251 . S
Mg294 O307 2.010 . S
O295 Mg294 2.028 . S
O295 C298 1.250 . S
O296 Mg297 2.028 . S
O296 C298 1.248 . S
Mg297 O296 2.028 . S
Mg297 O302 2.032 . S
Mg297 O304 2.079 . S
C298 O295 1.250 . S
C298 O296 1.248 . S
C299 O300 1.264 . S
C299 O307 1.249 . S
O300 C299 1.264 . S
O301 Mg294 1.986 . S
O301 C305 1.246 . S
O302 Mg297 2.032 . S
O302 C305 1.259 . S
O303 Mg294 2.114 . S
O303 C306 1.252 . S
O304 Mg294 2.251 . S
O304 Mg297 2.079 . S
O304 C306 1.273 . S
C305 O301 1.246 . S
C305 O302 1.259 . S
C306 O303 1.252 . S
C306 O304 1.273 . S
O307 Mg294 2.010 . S
O307 C299 1.249 . S
Mg308 O309 2.028 . S
Mg308 O315 1.986 . S
Mg308 O317 2.114 . S
Mg308 O318 2.251 . S
Mg308 O321 2.010 . S
O309 Mg308 2.028 . S
O309 C312 1.250 . S
O310 Mg311 2.028 . S
O310 C312 1.248 . S
Mg311 O310 2.028 . S
Mg311 O316 2.032 . S
Mg311 O318 2.079 . S
C312 O309 1.250 . S
C312 O310 1.248 . S
C313 O314 1.264 . S
C313 O321 1.249 . S
O314 C313 1.264 . S
O315 Mg308 1.986 . S
O315 C319 1.246 . S
O316 Mg311 2.032 . S
O316 C319 1.259 . S
O317 Mg308 2.114 . S
O317 C320 1.252 . S
O318 Mg308 2.251 . S
O318 Mg311 2.079 . S
O318 C320 1.273 . S
C319 O315 1.246 . S
C319 O316 1.259 . S
C320 O317 1.252 . S
C320 O318 1.273 . S
O321 Mg308 2.010 . S
O321 C313 1.249 . S
Mg322 O323 2.028 . S
Mg322 O329 1.986 . S
Mg322 O331 2.114 . S
Mg322 O332 2.251 . S
Mg322 O335 2.010 . S
O323 Mg322 2.028 . S
O323 C326 1.250 . S
O324 Mg325 2.028 . S
O324 C326 1.248 . S
Mg325 O324 2.028 . S
Mg325 O330 2.032 . S
Mg325 O332 2.079 . S
C326 O323 1.250 . S
C326 O324 1.248 . S
C327 O328 1.264 . S
C327 O335 1.249 . S
O328 C327 1.264 . S
O329 Mg322 1.986 . S
O329 C333 1.246 . S
O330 Mg325 2.032 . S
O330 C333 1.259 . S
O331 Mg322 2.114 . S
O331 C334 1.252 . S
O332 Mg322 2.251 . S
O332 Mg325 2.079 . S
O332 C334 1.273 . S
C333 O329 1.246 . S
C333 O330 1.259 . S
C334 O331 1.252 . S
C334 O332 1.273 . S
O335 Mg322 2.010 . S
O335 C327 1.249 . S
Mg336 O337 2.028 . S
Mg336 O343 1.986 . S
Mg336 O345 2.114 . S
Mg336 O346 2.251 . S
Mg336 O349 2.010 . S
O337 Mg336 2.028 . S
O337 C340 1.250 . S
O338 Mg339 2.028 . S
O338 C340 1.248 . S
Mg339 O338 2.028 . S
Mg339 O344 2.032 . S
Mg339 O346 2.079 . S
C340 O337 1.250 . S
C340 O338 1.248 . S
C341 O342 1.264 . S
C341 O349 1.249 . S
O342 C341 1.264 . S
O343 Mg336 1.986 . S
O343 C347 1.246 . S
O344 Mg339 2.032 . S
O344 C347 1.259 . S
O345 Mg336 2.114 . S
O345 C348 1.252 . S
O346 Mg336 2.251 . S
O346 Mg339 2.079 . S
O346 C348 1.273 . S
C347 O343 1.246 . S
C347 O344 1.259 . S
C348 O345 1.252 . S
C348 O346 1.273 . S
O349 Mg336 2.010 . S
O349 C341 1.249 . S
Mg350 O351 2.028 . S
Mg350 O357 1.986 . S
Mg350 O359 2.114 . S
Mg350 O360 2.251 . S
Mg350 O363 2.010 . S
O351 Mg350 2.028 . S
O351 C354 1.250 . S
O352 Mg353 2.028 . S
O352 C354 1.248 . S
Mg353 O352 2.028 . S
Mg353 O358 2.032 . S
Mg353 O360 2.079 . S
C354 O351 1.250 . S
C354 O352 1.248 . S
C355 O356 1.264 . S
C355 O363 1.249 . S
O356 C355 1.264 . S
O357 Mg350 1.986 . S
O357 C361 1.246 . S
O358 Mg353 2.032 . S
O358 C361 1.259 . S
O359 Mg350 2.114 . S
O359 C362 1.252 . S
O360 Mg350 2.251 . S
O360 Mg353 2.079 . S
O360 C362 1.273 . S
C361 O357 1.246 . S
C361 O358 1.259 . S
C362 O359 1.252 . S
C362 O360 1.273 . S
O363 Mg350 2.010 . S
O363 C355 1.249 . S
Mg364 O365 2.028 . S
Mg364 O371 1.986 . S
Mg364 O373 2.114 . S
Mg364 O374 2.251 . S
Mg364 O377 2.010 . S
O365 Mg364 2.028 . S
O365 C368 1.250 . S
O366 Mg367 2.028 . S
O366 C368 1.248 . S
Mg367 O366 2.028 . S
Mg367 O372 2.032 . S
Mg367 O374 2.079 . S
C368 O365 1.250 . S
C368 O366 1.248 . S
C369 O370 1.264 . S
C369 O377 1.249 . S
O370 C369 1.264 . S
O371 Mg364 1.986 . S
O371 C375 1.246 . S
O372 Mg367 2.032 . S
O372 C375 1.259 . S
O373 Mg364 2.114 . S
O373 C376 1.252 . S
O374 Mg364 2.251 . S
O374 Mg367 2.079 . S
O374 C376 1.273 . S
C375 O371 1.246 . S
C375 O372 1.259 . S
C376 O373 1.252 . S
C376 O374 1.273 . S
O377 Mg364 2.010 . S
O377 C369 1.249 . S
Mg378 O379 2.028 . S
Mg378 O385 1.986 . S
Mg378 O387 2.114 . S
Mg378 O388 2.251 . S
Mg378 O391 2.010 . S
O379 Mg378 2.028 . S
O379 C382 1.250 . S
O380 Mg381 2.028 . S
O380 C382 1.248 . S
Mg381 O380 2.028 . S
Mg381 O386 2.032 . S
Mg381 O388 2.079 . S
C382 O379 1.250 . S
C382 O380 1.248 . S
C383 O384 1.264 . S
C383 O391 1.249 . S
O384 C383 1.264 . S
O385 Mg378 1.986 . S
O385 C389 1.246 . S
O386 Mg381 2.032 . S
O386 C389 1.259 . S
O387 Mg378 2.114 . S
O387 C390 1.252 . S
O388 Mg378 2.251 . S
O388 Mg381 2.079 . S
O388 C390 1.273 . S
C389 O385 1.246 . S
C389 O386 1.259 . S
C390 O387 1.252 . S
C390 O388 1.273 . S
O391 Mg378 2.010 . S
O391 C383 1.249 . S
Mg392 O393 2.028 . S
Mg392 O399 1.986 . S
Mg392 O401 2.114 . S
Mg392 O402 2.251 . S
Mg392 O405 2.010 . S
O393 Mg392 2.028 . S
O393 C396 1.250 . S
O394 Mg395 2.028 . S
O394 C396 1.248 . S
Mg395 O394 2.028 . S
Mg395 O400 2.032 . S
Mg395 O402 2.079 . S
C396 O393 1.250 . S
C396 O394 1.248 . S
C397 O398 1.264 . S
C397 O405 1.249 . S
O398 C397 1.264 . S
O399 Mg392 1.986 . S
O399 C403 1.246 . S
O400 Mg395 2.032 . S
O400 C403 1.259 . S
O401 Mg392 2.114 . S
O401 C404 1.252 . S
O402 Mg392 2.251 . S
O402 Mg395 2.079 . S
O402 C404 1.273 . S
C403 O399 1.246 . S
C403 O400 1.259 . S
C404 O401 1.252 . S
C404 O402 1.273 . S
O405 Mg392 2.010 . S
O405 C397 1.249 . S
Mg406 O407 2.028 . S
Mg406 O413 1.986 . S
Mg406 O415 2.114 . S
Mg406 O416 2.251 . S
Mg406 O419 2.010 . S
O407 Mg406 2.028 . S
O407 C410 1.250 . S
O408 Mg409 2.028 . S
O408 C410 1.248 . S
Mg409 O408 2.028 . S
Mg409 O414 2.032 . S
Mg409 O416 2.079 . S
C410 O407 1.250 . S
C410 O408 1.248 . S
C411 O412 1.264 . S
C411 O419 1.249 . S
O412 C411 1.264 . S
O413 Mg406 1.986 . S
O413 C417 1.246 . S
O414 Mg409 2.032 . S
O414 C417 1.259 . S
O415 Mg406 2.114 . S
O415 C418 1.252 . S
O416 Mg406 2.251 . S
O416 Mg409 2.079 . S
O416 C418 1.273 . S
C417 O413 1.246 . S
C417 O414 1.259 . S
C418 O415 1.252 . S
C418 O416 1.273 . S
O419 Mg406 2.010 . S
O419 C411 1.249 . S
Mg420 O421 2.028 . S
Mg420 O427 1.986 . S
Mg420 O429 2.114 . S
Mg420 O430 2.251 . S
Mg420 O433 2.010 . S
O421 Mg420 2.028 . S
O421 C424 1.250 . S
O422 Mg423 2.028 . S
O422 C424 1.248 . S
Mg423 O422 2.028 . S
Mg423 O428 2.032 . S
Mg423 O430 2.079 . S
C424 O421 1.250 . S
C424 O422 1.248 . S
C425 O426 1.264 . S
C425 O433 1.249 . S
O426 C425 1.264 . S
O427 Mg420 1.986 . S
O427 C431 1.246 . S
O428 Mg423 2.032 . S
O428 C431 1.259 . S
O429 Mg420 2.114 . S
O429 C432 1.252 . S
O430 Mg420 2.251 . S
O430 Mg423 2.079 . S
O430 C432 1.273 . S
C431 O427 1.246 . S
C431 O428 1.259 . S
C432 O429 1.252 . S
C432 O430 1.273 . S
O433 Mg420 2.010 . S
O433 C425 1.249 . S
Mg434 O435 2.028 . S
Mg434 O441 1.986 . S
Mg434 O443 2.114 . S
Mg434 O444 2.251 . S
Mg434 O447 2.010 . S
O435 Mg434 2.028 . S
O435 C438 1.250 . S
O436 Mg437 2.028 . S
O436 C438 1.248 . S
Mg437 O436 2.028 . S
Mg437 O442 2.032 . S
Mg437 O444 2.079 . S
C438 O435 1.250 . S
C438 O436 1.248 . S
C439 O440 1.264 . S
C439 O447 1.249 . S
O440 C439 1.264 . S
O441 Mg434 1.986 . S
O441 C445 1.246 . S
O442 Mg437 2.032 . S
O442 C445 1.259 . S
O443 Mg434 2.114 . S
O443 C446 1.252 . S
O444 Mg434 2.251 . S
O444 Mg437 2.079 . S
O444 C446 1.273 . S
C445 O441 1.246 . S
C445 O442 1.259 . S
C446 O443 1.252 . S
C446 O444 1.273 . S
O447 Mg434 2.010 . S
O447 C439 1.249 . S
C222 C12 1.278 . S
C18 C180 1.477 . S
C40 C194 1.278 . S
C208 C46 1.477 . S
C68 C138 1.278 . S
C74 C152 1.477 . S
C166 C96 1.278 . S
C124 C102 1.477 . S
C236 C446 1.278 . S
C242 C404 1.477 . S
C264 C418 1.278 . S
C432 C270 1.477 . S
C292 C362 1.278 . S
C298 C376 1.477 . S
C390 C320 1.278 . S
C326 C348 1.477 . S
C173 C5 0.739 1_655 S
C25 C187 1.592 1_545 S
C201 C33 0.739 1_455 S
C53 C215 1.592 1_565 S
C61 C117 0.739 1_455 S
C131 C81 1.592 1_565 S
C145 C89 0.739 1_455 S
C159 C109 1.592 1_545 S
C229 C397 0.739 . S
C411 C249 1.592 . S
C257 C425 0.739 . S
C277 C439 1.592 . S
C341 C285 0.739 . S
C305 C355 1.592 . S
C313 C369 0.739 . S
C333 C383 1.592 . S
C4 C144 1.398 . S
C158 C26 1.387 . S
C32 C116 1.398 . S
C130 C54 1.387 . S
C200 C60 1.398 . S
C214 C82 1.387 . S
C172 C88 1.398 . S
C110 C186 1.387 . S
C368 C228 1.398 1_554 S
C250 C382 1.387 1_556 S
C340 C256 1.398 1_554 S
C354 C278 1.387 1_554 S
C284 C424 1.398 1_554 S
C306 C438 1.387 1_554 S
C396 C312 1.398 1_556 S
C410 C334 1.387 1_556 S
C327 C11 1.291 . S
C291 C19 1.291 . S
C299 C39 1.291 . S
C319 C47 1.291 . S
C243 C67 1.291 . S
C75 C263 1.291 . S
C95 C271 1.291 . S
C103 C235 1.291 . S
C123 C445 1.243 . S
C403 C137 1.243 . S
C151 C417 1.243 . S
C165 C431 1.243 . S
C361 C179 1.243 . S
C375 C193 1.243 . S
C207 C389 1.243 . S
C221 C347 1.243 . S
