# Generated by pormake.
# Topology lcy, (6)-cn, num edge types: 1
# Building blocks:
#     Node 0, Type 0, BuildingBlock: UKALOJ_clean_sbu_0, # of connection points: 6
#     Node 1, Type 0, BuildingBlock: UKALOJ_clean_sbu_0, # of connection points: 6
#     Node 2, Type 0, BuildingBlock: UKALOJ_clean_sbu_0, # of connection points: 6
#     Node 3, Type 0, BuildingBlock: UKALOJ_clean_sbu_0, # of connection points: 6
#     Edge 4, Type (0, 0), BuildingBlock: TEMPAE_clean_linker_10, # of connection points: 2
#     Edge 5, Type (0, 0), BuildingBlock: TEMPAE_clean_linker_10, # of connection points: 2
#     Edge 6, Type (0, 0), BuildingBlock: TEMPAE_clean_linker_10, # of connection points: 2
#     Edge 7, Type (0, 0), BuildingBlock: TEMPAE_clean_linker_10, # of connection points: 2
#     Edge 8, Type (0, 0), BuildingBlock: TEMPAE_clean_linker_10, # of connection points: 2
#     Edge 9, Type (0, 0), BuildingBlock: TEMPAE_clean_linker_10, # of connection points: 2
#     Edge 10, Type (0, 0), BuildingBlock: TEMPAE_clean_linker_10, # of connection points: 2
#     Edge 11, Type (0, 0), BuildingBlock: TEMPAE_clean_linker_10, # of connection points: 2
#     Edge 12, Type (0, 0), BuildingBlock: TEMPAE_clean_linker_10, # of connection points: 2
#     Edge 13, Type (0, 0), BuildingBlock: TEMPAE_clean_linker_10, # of connection points: 2
#     Edge 14, Type (0, 0), BuildingBlock: TEMPAE_clean_linker_10, # of connection points: 2
#     Edge 15, Type (0, 0), BuildingBlock: TEMPAE_clean_linker_10, # of connection points: 2
# Relax obj value: 0.341
# Max RMSD: 0.294
# Mean RMSD: 0.263
data_MOF--net-lcy--node1-UKALOJ_clean_sbu_0--edge1-TEMPAE_clean_linker_10
_symmetry_space_group_name_H-M    P1
_symmetry_Int_Tables_number       1
_symmetry_cell_setting            triclinic
loop_
_symmetry_equiv_pos_as_xyz
'x, y, z'
_cell_length_a     26.64553
_cell_length_b     27.551466
_cell_length_c     26.920463
_cell_angle_alpha  89.460855
_cell_angle_beta   99.141554
_cell_angle_gamma 99.236388
loop_
_atom_site_label
_atom_site_type_symbol
_atom_site_fract_x
_atom_site_fract_y
_atom_site_fract_z
_atom_type_partial_charge
Zn0 Zn 0.39045 0.44092 0.34959 0.0
O1 O 0.35322 0.48347 0.39266 0.0
C2 C 0.4743 0.52597 0.35355 0.0
Zn3 Zn 0.45139 0.43916 0.41684 0.0
C4 C 0.37292 0.49604 0.43787 0.0
O5 O 0.41496 0.48265 0.45794 0.0
C6 C 0.46801 0.38298 0.32793 0.0
O7 O 0.40596 0.37549 0.44278 0.0
O8 O 0.34836 0.37721 0.37507 0.0
N9 N 0.51092 0.43692 0.4754 0.0
C10 C 0.53965 0.40107 0.48699 0.0
C11 C 0.58056 0.46596 0.52596 0.0
N12 N 0.53623 0.47715 0.50012 0.0
N13 N 0.58353 0.41839 0.51814 0.0
C14 C 0.32576 0.4707 0.24927 0.0
C15 C 0.27632 0.40276 0.22848 0.0
N16 N 0.33423 0.4394 0.28744 0.0
N17 N 0.30318 0.39738 0.27441 0.0
N18 N 0.29022 0.44827 0.21162 0.0
H19 H 0.35438 0.53966 0.28849 0.0
H20 H 0.32575 0.5453 0.22377 0.0
H21 H 0.38825 0.52696 0.2382 0.0
C22 C 0.34982 0.5238 0.25 0.0
C23 C 0.52585 0.34899 0.46756 0.0
H24 H 0.48477 0.33972 0.45105 0.0
H25 H 0.53487 0.32349 0.49867 0.0
H26 H 0.54968 0.34321 0.43871 0.0
O27 O 0.48727 0.39549 0.37302 0.0
O28 O 0.42711 0.39806 0.30805 0.0
C29 C 0.36276 0.35789 0.41681 0.0
O30 O 0.43314 0.50544 0.32654 0.0
O31 O 0.49271 0.50492 0.39285 0.0
Zn32 Zn 0.92516 0.13597 0.61746 0.0
O33 O 0.88602 0.19398 0.58412 0.0
C34 C 0.9377 0.19821 0.7059 0.0
Zn35 Zn 0.86031 0.11024 0.65895 0.0
C36 C 0.83935 0.19241 0.5904 0.0
O37 O 0.81912 0.15906 0.61722 0.0
C38 C 0.94323 0.05021 0.6846 0.0
O39 O 0.82437 0.05317 0.60482 0.0
O40 O 0.88377 0.08623 0.56111 0.0
N41 N 0.80243 0.09616 0.70232 0.0
C42 C 0.78954 0.06118 0.73565 0.0
C43 C 0.74621 0.11856 0.74324 0.0
N44 N 0.77496 0.13144 0.70695 0.0
N45 N 0.75441 0.07449 0.76168 0.0
C46 C 0.02513 0.18591 0.57437 0.0
C47 C 0.02593 0.13369 0.51661 0.0
N48 N 0.98274 0.15135 0.57363 0.0
N49 N 0.9835 0.11922 0.53755 0.0
N50 N 0.0528 0.17545 0.53893 0.0
H51 H 0.00892 0.24693 0.61458 0.0
H52 H 0.07508 0.25308 0.6045 0.0
H53 H 0.0526 0.21104 0.65012 0.0
C54 C 0.04152 0.22685 0.61271 0.0
C55 C 0.81374 0.01586 0.74522 0.0
H56 H 0.82127 1.00112 0.70938 0.0
H57 H 0.78852 0.98716 0.763 0.0
H58 H 0.85077 0.02522 0.77118 0.0
O59 O 0.90325 0.05993 0.70004 0.0
O60 O 0.96141 0.07653 0.65047 0.0
C61 C 0.84412 0.05473 0.56453 0.0
O62 O 0.96436 0.18686 0.67401 0.0
O63 O 0.89496 0.17104 0.70913 0.0
Zn64 Zn 0.05908 0.6484 0.86014 0.0
O65 O 0.10785 0.71121 0.89729 0.0
C66 C 0.03213 0.71355 0.77658 0.0
Zn67 Zn 0.11005 0.64457 0.80373 0.0
C68 C 0.15057 0.72417 0.88157 0.0
O69 O 0.15965 0.70256 0.84341 0.0
C70 C 0.02355 0.56235 0.7866 0.0
O71 O 0.15266 0.59457 0.84783 0.0
O72 O 0.10474 0.60571 0.90464 0.0
N73 N 0.15818 0.64996 0.75185 0.0
C74 C 0.17068 0.61713 0.7211 0.0
C75 C 0.21063 0.68784 0.7057 0.0
N76 N 0.18312 0.69375 0.74232 0.0
N77 N 0.20361 0.64013 0.6918 0.0
C78 C 0.97938 0.67103 0.92608 0.0
C79 C 0.97361 0.60733 0.97182 0.0
N80 N 0.01255 0.64296 0.91358 0.0
N81 N 0.00903 0.60353 0.94218 0.0
N82 N 0.95435 0.64927 0.96222 0.0
H83 H 0.95881 0.74326 0.93159 0.0
H84 H 0.94549 0.71608 0.86939 0.0
H85 H 0.01094 0.74016 0.89671 0.0
C86 C 0.97346 0.72066 0.9049 0.0
C87 C 0.14618 0.56402 0.71654 0.0
H88 H 0.14278 0.54887 0.7544 0.0
H89 H 0.16742 0.54111 0.69675 0.0
H90 H 0.10694 0.56142 0.69451 0.0
O91 O 0.05993 0.58391 0.7651 0.0
O92 O 0.01354 0.58247 0.82545 0.0
C93 C 0.14178 0.58776 0.89196 0.0
O94 O 0.01443 0.69484 0.81481 0.0
O95 O 0.0701 0.69773 0.76266 0.0
Zn96 Zn 0.59305 0.86646 0.14469 0.0
O97 O 0.52744 0.84175 0.08803 0.0
C98 C 0.62547 0.94502 0.07607 0.0
Zn99 Zn 0.56178 0.93316 0.15948 0.0
C100 C 0.49029 0.86622 0.0838 0.0
O101 O 0.49511 0.90508 0.11014 0.0
C102 C 0.66065 0.93274 0.22516 0.0
O103 O 0.52846 0.89831 0.22181 0.0
O104 O 0.55413 0.83146 0.19784 0.0
N105 N 0.53188 0.99538 0.16643 0.0
C106 C 0.53748 0.02903 0.2037 0.0
C107 C 0.49898 0.05845 0.13737 0.0
N108 N 0.50752 0.01353 0.12546 0.0
N109 N 0.51742 0.06894 0.18619 0.0
C110 C 0.64198 0.78787 0.09704 0.0
C111 C 0.66403 0.74445 0.16012 0.0
N112 N 0.62361 0.80457 0.1362 0.0
N113 N 0.63669 0.77707 0.17527 0.0
N114 N 0.66777 0.75051 0.1111 0.0
H115 H 0.59909 0.82392 0.03691 0.0
H116 H 0.63398 0.77835 0.0168 0.0
H117 H 0.66823 0.83679 0.04095 0.0
C118 C 0.63507 0.80791 0.04487 0.0
C119 C 0.56672 0.02484 0.25549 0.0
H120 H 0.56733 0.98579 0.2654 0.0
H121 H 0.5494 0.04266 0.28382 0.0
H122 H 0.60681 0.0441 0.2568 0.0
O123 O 0.62834 0.96085 0.20975 0.0
O124 O 0.65601 0.89075 0.20408 0.0
C125 C 0.53172 0.85287 0.22718 0.0
O126 O 0.63385 0.90286 0.09089 0.0
O127 O 0.59542 0.96639 0.09726 0.0
C128 C 0.18908 0.5927 0.97813 0.0
C129 C 0.17569 0.56696 0.93208 0.0
C130 C 0.21366 0.57178 0.02073 0.0
C131 C 0.22493 0.52362 0.0173 0.0
C132 C 0.21459 0.49857 0.97 0.0
C133 C 0.18999 0.52075 0.92754 0.0
C134 C 0.22446 0.60018 0.07009 0.0
C135 C 0.22682 0.44745 0.96489 0.0
C136 C 0.31092 0.48816 0.13343 0.0
C137 C 0.27435 0.46518 0.16184 0.0
C138 C 0.29574 0.50496 0.08483 0.0
C139 C 0.24274 0.49857 0.06441 0.0
C140 C 0.2059 0.47344 0.09223 0.0
C141 C 0.22228 0.45672 0.14053 0.0
C142 C 0.33616 0.53099 0.05611 0.0
C143 C 0.14897 0.46621 0.07196 0.0
H144 H 0.17854 0.62888 0.98123 0.0
H145 H 0.17951 0.50101 0.8918 0.0
H146 H 0.19944 0.58175 0.09624 0.0
H147 H 0.26499 0.60084 0.08813 0.0
H148 H 0.21733 0.63873 0.06528 0.0
H149 H 0.22389 0.43623 0.92487 0.0
H150 H 0.26614 0.44507 0.98471 0.0
H151 H 0.1994 0.42086 0.98263 0.0
H152 H 0.35141 0.49294 0.1493 0.0
H153 H 0.19431 0.4382 0.16241 0.0
H154 H 0.33284 0.57058 0.05326 0.0
H155 H 0.33013 0.51583 0.0172 0.0
H156 H 0.37582 0.52777 0.07461 0.0
H157 H 0.13569 0.50245 0.06875 0.0
H158 H 0.1258 0.44258 0.09651 0.0
H159 H 0.14134 0.44929 0.03372 0.0
C160 C 0.71296 0.90863 0.30454 0.0
C161 C 0.69668 0.94566 0.27271 0.0
C162 C 0.73841 0.91981 0.35401 0.0
C163 C 0.74805 0.96918 0.37185 0.0
C164 C 0.73354 0.00685 0.33908 0.0
C165 C 0.70807 0.99462 0.29003 0.0
C166 C 0.75318 0.87862 0.38774 0.0
C167 C 0.74354 0.06005 0.35629 0.0
C168 C 0.76717 0.00626 0.51034 0.0
C169 C 0.8202 0.02374 0.5196 0.0
C170 C 0.74333 0.9856 0.4631 0.0
C171 C 0.77339 0.98214 0.42459 0.0
C172 C 0.82742 0.99641 0.43519 0.0
C173 C 0.85009 0.0171 0.48242 0.0
C174 C 0.68559 0.97051 0.45335 0.0
C175 C 0.86103 0.99294 0.39559 0.0
H176 H 0.70355 0.8706 0.29171 0.0
H177 H 0.69571 0.02338 0.26558 0.0
H178 H 0.7945 0.88685 0.40447 0.0
H179 H 0.73067 0.87522 0.41926 0.0
H180 H 0.74598 0.84271 0.36728 0.0
H181 H 0.73063 0.08497 0.32591 0.0
H182 H 0.72312 0.06434 0.38844 0.0
H183 H 0.78528 0.07189 0.36963 0.0
H184 H 0.74387 0.01137 0.53884 0.0
H185 H 0.89126 0.03 0.48953 0.0
H186 H 0.67507 0.93356 0.4351 0.0
H187 H 0.66813 0.99678 0.42717 0.0
H188 H 0.66858 0.9699 0.4885 0.0
H189 H 0.85178 0.95606 0.37712 0.0
H190 H 0.90269 0.99998 0.41149 0.0
H191 H 0.85352 0.02036 0.36601 0.0
C192 C 0.22384 0.64436 0.6061 0.0
C193 C 0.22551 0.6208 0.65249 0.0
C194 C 0.24665 0.62725 0.56769 0.0
C195 C 0.27114 0.58534 0.57604 0.0
C196 C 0.27309 0.56156 0.62301 0.0
C197 C 0.25116 0.58034 0.66111 0.0
C198 C 0.24515 0.65427 0.51855 0.0
C199 C 0.29858 0.5165 0.63312 0.0
C200 C 0.29256 0.51051 0.46644 0.0
C201 C 0.3458 0.52337 0.4684 0.0
C202 C 0.26728 0.53135 0.50063 0.0
C203 C 0.29596 0.56681 0.53628 0.0
C204 C 0.34927 0.58202 0.53621 0.0
C205 C 0.3738 0.5594 0.50271 0.0
C206 C 0.21063 0.51344 0.50047 0.0
C207 C 0.38076 0.62081 0.57271 0.0
H208 H 0.20469 0.67627 0.60009 0.0
H209 H 0.25452 0.56377 0.6979 0.0
H210 H 0.28497 0.66716 0.51139 0.0
H211 H 0.22552 0.6291 0.48698 0.0
H212 H 0.22485 0.6865 0.51832 0.0
H213 H 0.29398 0.50076 0.67059 0.0
H214 H 0.28196 0.48782 0.60381 0.0
H215 H 0.34031 0.52597 0.63134 0.0
H216 H 0.27124 0.48218 0.44004 0.0
H217 H 0.41502 0.56941 0.5037 0.0
H218 H 0.18926 0.54496 0.49853 0.0
H219 H 0.20527 0.49413 0.53608 0.0
H220 H 0.19338 0.4878 0.46845 0.0
H221 H 0.36144 0.65364 0.57244 0.0
H222 H 0.42017 0.63244 0.56376 0.0
H223 H 0.3841 0.60626 0.61144 0.0
C224 C 0.62513 1.00241 0.0033 0.0
C225 C 0.64793 0.96692 0.03244 0.0
C226 C 0.64323 0.01986 0.95909 0.0
C227 C 0.68555 1.00186 0.94407 0.0
C228 C 0.70958 0.96705 0.97415 0.0
C229 C 0.69038 0.9499 0.01783 0.0
C230 C 0.61634 0.05676 0.92787 0.0
C231 C 0.75532 0.94754 0.95997 0.0
C232 C 0.70263 0.01178 0.80626 0.0
C233 C 0.73907 0.05448 0.80735 0.0
C234 C 0.68494 0.99401 0.85058 0.0
C235 C 0.70468 0.01949 0.89689 0.0
C236 C 0.74233 0.06224 0.89802 0.0
C237 C 0.75874 0.07941 0.85308 0.0
C238 C 0.64449 0.94857 0.84774 0.0
C239 C 0.76492 0.09008 0.94657 0.0
H240 H 0.59212 0.01548 0.01421 0.0
H241 H 0.70861 0.92295 0.04054 0.0
H242 H 0.64418 0.09045 0.9235 0.0
H243 H 0.60082 0.04123 0.8896 0.0
H244 H 0.58416 0.06727 0.94483 0.0
H245 H 0.77014 0.92119 0.98787 0.0
H246 H 0.74449 0.92874 0.92265 0.0
H247 H 0.78688 0.97844 0.95676 0.0
H248 H 0.68738 0.99304 0.77054 0.0
H249 H 0.78692 0.11252 0.85338 0.0
H250 H 0.60953 0.95758 0.86076 0.0
H251 H 0.65882 0.92009 0.87309 0.0
H252 H 0.63346 0.93283 0.80896 0.0
H253 H 0.7341 0.10416 0.96263 0.0
H254 H 0.79514 0.12162 0.94122 0.0
H255 H 0.78195 0.0651 0.97462 0.0
C256 C 0.10919 0.24962 0.51644 0.0
C257 C 0.10163 0.19956 0.52775 0.0
C258 C 0.15548 0.27244 0.50178 0.0
C259 C 0.19465 0.24417 0.4974 0.0
C260 C 0.18726 0.19362 0.50919 0.0
C261 C 0.14072 0.17192 0.52408 0.0
C262 C 0.16183 0.32646 0.48952 0.0
C263 C 0.22782 0.16216 0.50465 0.0
C264 C 0.28301 0.29537 0.40551 0.0
C265 C 0.3254 0.32088 0.43772 0.0
C266 C 0.24133 0.26822 0.42464 0.0
C267 C 0.24174 0.26696 0.47728 0.0
C268 C 0.28572 0.29027 0.51013 0.0
C269 C 0.32726 0.31676 0.48993 0.0
C270 C 0.1956 0.24318 0.3883 0.0
C271 C 0.28756 0.28985 0.56645 0.0
H272 H 0.07825 0.27051 0.51775 0.0
H273 H 0.13444 0.13305 0.53237 0.0
H274 H 0.19819 0.34624 0.51112 0.0
H275 H 0.16439 0.33122 0.44897 0.0
H276 H 0.12929 0.34388 0.49807 0.0
H277 H 0.2174 0.12421 0.51815 0.0
H278 H 0.2332 0.16002 0.46474 0.0
H279 H 0.26536 0.17898 0.52649 0.0
H280 H 0.28146 0.29828 0.36512 0.0
H281 H 0.35969 0.33675 0.51501 0.0
H282 H 0.16196 0.26187 0.38985 0.0
H283 H 0.18483 0.20437 0.399 0.0
H284 H 0.20329 0.24383 0.34891 0.0
H285 H 0.25936 0.31204 0.57672 0.0
H286 H 0.32636 0.30523 0.58691 0.0
H287 H 0.27654 0.25185 0.57939 0.0
C288 C 0.05637 0.79914 0.74823 0.0
C289 C 0.01743 0.7606 0.75658 0.0
C290 C 0.04568 0.8468 0.73735 0.0
C291 C 0.99432 0.85597 0.73241 0.0
C292 C 0.95445 0.81663 0.7388 0.0
C293 C 0.96668 0.76975 0.75218 0.0
C294 C 0.08977 0.88779 0.73317 0.0
C295 C 0.8989 0.8241 0.73183 0.0
C296 C 0.96693 0.98677 0.74801 0.0
C297 C 0.96114 1.00286 0.69821 0.0
C298 C 0.97908 0.93959 0.75988 0.0
C299 C 0.98265 0.90673 0.72071 0.0
C300 C 0.97584 0.92275 0.67026 0.0
C301 C 0.96635 0.97088 0.65979 0.0
C302 C 0.98818 0.92497 0.81433 0.0
C303 C 0.97692 0.88852 0.62709 0.0
H304 H 0.09592 0.79265 0.75294 0.0
H305 H 0.93659 0.74024 0.75919 0.0
H306 H 0.08451 0.90426 0.69535 0.0
H307 H 0.09037 0.91739 0.76106 0.0
H308 H 0.12769 0.87495 0.7397 0.0
H309 H 0.87212 0.78892 0.73297 0.0
H310 H 0.89319 0.84894 0.76187 0.0
H311 H 0.88857 0.8419 0.69528 0.0
H312 H 0.96227 0.01122 0.77767 0.0
H313 H 0.96045 0.98276 0.62107 0.0
H314 H 0.02564 0.91152 0.82324 0.0
H315 H 0.95777 0.8944 0.82137 0.0
H316 H 0.98823 0.956 0.84041 0.0
H317 H 0.01526 0.87693 0.63031 0.0
H318 H 0.96842 0.90582 0.5899 0.0
H319 H 0.9482 0.85476 0.62851 0.0
C320 C 0.20118 0.75585 0.964 0.0
C321 C 0.1937 0.75713 0.91134 0.0
C322 C 0.24874 0.77613 0.99243 0.0
C323 C 0.28928 0.79862 0.96746 0.0
C324 C 0.28059 0.80287 0.91449 0.0
C325 C 0.23298 0.78186 0.88708 0.0
C326 C 0.25658 0.77078 0.04886 0.0
C327 C 0.3225 0.82715 0.88648 0.0
C328 C 0.40351 0.88081 0.04245 0.0
C329 C 0.44038 0.84922 0.05117 0.0
C330 C 0.35431 0.86486 0.01526 0.0
C331 C 0.34141 0.81603 0.99635 0.0
C332 C 0.37858 0.78405 0.00435 0.0
C333 C 0.42778 0.80111 0.03153 0.0
C334 C 0.31594 0.90016 0.00722 0.0
C335 C 0.36611 0.73163 0.98473 0.0
H336 H 0.17123 0.73595 0.9828 0.0
H337 H 0.22729 0.7827 0.8463 0.0
H338 H 0.28437 0.74513 0.06005 0.0
H339 H 0.2732 0.8067 0.06772 0.0
H340 H 0.22008 0.75634 0.06283 0.0
H341 H 0.30824 0.83091 0.84576 0.0
H342 H 0.33902 0.86419 0.90278 0.0
H343 H 0.35419 0.80503 0.8904 0.0
H344 H 0.41291 0.91816 0.05733 0.0
H345 H 0.45592 0.77644 0.03839 0.0
H346 H 0.2814 0.88535 0.02417 0.0
H347 H 0.3029 0.90421 0.96638 0.0
H348 H 0.33223 0.93713 0.02398 0.0
H349 H 0.33293 0.7117 0.00079 0.0
H350 H 0.39919 0.71145 0.99416 0.0
H351 H 0.3547 0.7311 0.94324 0.0
C352 C 0.53382 0.32878 0.3225 0.0
C353 C 0.48797 0.3452 0.3017 0.0
C354 C 0.54707 0.28591 0.30406 0.0
C355 C 0.51379 0.25944 0.26367 0.0
C356 C 0.46977 0.27818 0.23988 0.0
C357 C 0.45748 0.32097 0.25912 0.0
C358 C 0.59484 0.26744 0.32976 0.0
C359 C 0.43357 0.25122 0.19632 0.0
C360 C 0.54796 0.15753 0.18899 0.0
C361 C 0.52211 0.116 0.20987 0.0
C362 C 0.54855 0.20467 0.20826 0.0
C363 C 0.52184 0.21004 0.24874 0.0
C364 C 0.4974 0.16785 0.27122 0.0
C365 C 0.49782 0.12113 0.25134 0.0
C366 C 0.57538 0.24872 0.18366 0.0
C367 C 0.4683 0.17218 0.31433 0.0
H368 H 0.55834 0.34831 0.35441 0.0
H369 H 0.42222 0.3337 0.24248 0.0
H370 H 0.58354 0.23435 0.35176 0.0
H371 H 0.61725 0.25643 0.30157 0.0
H372 H 0.62007 0.29551 0.35579 0.0
H373 H 0.40341 0.27276 0.17957 0.0
H374 H 0.45524 0.24263 0.16648 0.0
H375 H 0.41433 0.21576 0.20943 0.0
H376 H 0.56671 0.15293 0.15683 0.0
H377 H 0.47731 0.08872 0.26665 0.0
H378 H 0.59943 0.27468 0.21252 0.0
H379 H 0.54624 0.2687 0.1621 0.0
H380 H 0.60016 0.23801 0.15748 0.0
H381 H 0.49274 0.19606 0.34475 0.0
H382 H 0.45536 0.13583 0.33028 0.0
H383 H 0.43393 0.18963 0.30106 0.0
C384 C 0.75508 0.21727 0.55855 0.0
C385 C 0.80862 0.23043 0.57078 0.0
C386 C 0.72314 0.25301 0.54851 0.0
C387 C 0.74523 0.30338 0.55122 0.0
C388 C 0.79953 0.31697 0.56181 0.0
C389 C 0.83076 0.28015 0.5713 0.0
C390 C 0.66551 0.23677 0.53688 0.0
C391 C 0.82444 0.37027 0.56519 0.0
C392 C 0.65203 0.38339 0.48742 0.0
C393 C 0.62916 0.39609 0.52779 0.0
C394 C 0.69254 0.35601 0.4949 0.0
C395 C 0.71058 0.3411 0.54407 0.0
C396 C 0.68974 0.35672 0.58543 0.0
C397 C 0.64915 0.38424 0.57672 0.0
C398 C 0.71366 0.34043 0.4498 0.0
C399 C 0.70801 0.34168 0.63843 0.0
H400 H 0.73796 0.17878 0.55825 0.0
H401 H 0.87212 0.29037 0.58172 0.0
H402 H 0.64679 0.25093 0.5665 0.0
H403 H 0.64975 0.2522 0.50059 0.0
H404 H 0.65472 0.1961 0.53463 0.0
H405 H 0.86707 0.37459 0.56908 0.0
H406 H 0.80965 0.3901 0.53131 0.0
H407 H 0.81445 0.38811 0.59826 0.0
H408 H 0.63685 0.39361 0.44969 0.0
H409 H 0.63139 0.39454 0.60773 0.0
H410 H 0.7005 0.3005 0.44234 0.0
H411 H 0.75638 0.34656 0.45721 0.0
H412 H 0.70069 0.36058 0.41543 0.0
H413 H 0.69564 0.30156 0.64218 0.0
H414 H 0.69233 0.36138 0.66679 0.0
H415 H 0.75068 0.3489 0.64697 0.0
C416 C 0.00121 0.49041 0.7256 0.0
C417 C 0.00127 0.51008 0.7735 0.0
C418 C 0.98791 0.43939 0.71564 0.0
C419 C 0.97627 0.40695 0.75499 0.0
C420 C 0.97533 0.42678 0.80313 0.0
C421 C 0.98701 0.47798 0.81154 0.0
C422 C 0.98746 0.42011 0.66324 0.0
C423 C 0.96434 0.39374 0.84649 0.0
C424 C 0.90688 0.27584 0.72402 0.0
C425 C 0.94803 0.2493 0.72655 0.0
C426 C 0.91545 0.32699 0.73275 0.0
C427 C 0.96643 0.35228 0.74627 0.0
C428 C 0.00806 0.3253 0.7509 0.0
C429 C 0.99844 0.27438 0.73983 0.0
C430 C 0.87003 0.35426 0.725 0.0
C431 C 0.06291 0.35041 0.76651 0.0
H432 H 0.01237 0.51487 0.69607 0.0
H433 H 0.98784 0.49264 0.84895 0.0
H434 H 0.01891 0.39813 0.66356 0.0
H435 H 0.95063 0.3954 0.65006 0.0
H436 H 0.99256 0.45021 0.63585 0.0
H437 H 0.96433 0.41486 0.88144 0.0
H438 H 0.92642 0.36981 0.83669 0.0
H439 H 0.99388 0.36929 0.85417 0.0
H440 H 0.86786 0.25707 0.71203 0.0
H441 H 0.03038 0.25428 0.74085 0.0
H442 H 0.87389 0.3807 0.69395 0.0
H443 H 0.86918 0.37585 0.75933 0.0
H444 H 0.83273 0.32911 0.71555 0.0
H445 H 0.0742 0.37668 0.73723 0.0
H446 H 0.09045 0.3238 0.77227 0.0
H447 H 0.06635 0.37187 0.80192 0.0
C448 C 0.8689 0.67389 0.95071 0.0
C449 C 0.91235 0.66326 0.98275 0.0
C450 C 0.82666 0.6858 0.97026 0.0
C451 C 0.8285 0.68757 0.02305 0.0
C452 C 0.87232 0.6765 0.05553 0.0
C453 C 0.91359 0.66385 0.03483 0.0
C454 C 0.78024 0.69666 0.93453 0.0
C455 C 0.87598 0.67889 0.11203 0.0
C456 C 0.74669 0.76887 0.07444 0.0
C457 C 0.70634 0.73429 0.08694 0.0
C458 C 0.78655 0.7541 0.05329 0.0
C459 C 0.78574 0.70346 0.04438 0.0
C460 C 0.74474 0.66831 0.05666 0.0
C461 C 0.70561 0.68424 0.07846 0.0
C462 C 0.82997 0.79262 0.04145 0.0
C463 C 0.74244 0.61406 0.047 0.0
H464 H 0.8678 0.67204 0.91036 0.0
H465 H 0.94733 0.65516 0.05919 0.0
H466 H 0.74502 0.67243 0.94245 0.0
H467 H 0.77472 0.73517 0.94017 0.0
H468 H 0.78402 0.69139 0.8945 0.0
H469 H 0.91242 0.66841 0.1319 0.0
H470 H 0.87367 0.71677 0.1241 0.0
H471 H 0.84313 0.6541 0.12399 0.0
H472 H 0.74758 0.80748 0.0825 0.0
H473 H 0.67435 0.65787 0.08878 0.0
H474 H 0.83341 0.79037 0.00105 0.0
H475 H 0.867 0.78578 0.06344 0.0
H476 H 0.82431 0.83051 0.05019 0.0
H477 H 0.74387 0.60731 0.00672 0.0
H478 H 0.70696 0.59176 0.05698 0.0
H479 H 0.77639 0.60116 0.06924 0.0
C480 C 0.46846 0.79598 0.26578 0.0
C481 C 0.51734 0.82453 0.27033 0.0
C482 C 0.4613 0.75081 0.29045 0.0
C483 C 0.50451 0.73366 0.31855 0.0
C484 C 0.55247 0.76531 0.32801 0.0
C485 C 0.55799 0.8109 0.30434 0.0
C486 C 0.40892 0.71908 0.28152 0.0
C487 C 0.59979 0.74855 0.357 0.0
C488 C 0.48756 0.61143 0.38537 0.0
C489 C 0.49111 0.57865 0.34704 0.0
C490 C 0.49194 0.66215 0.37696 0.0
C491 C 0.50188 0.68042 0.32963 0.0
C492 C 0.50811 0.64744 0.29165 0.0
C493 C 0.50124 0.5967 0.30042 0.0
C494 C 0.48278 0.69562 0.41755 0.0
C495 C 0.52052 0.6656 0.24118 0.0
H496 H 0.43726 0.80622 0.23885 0.0
H497 H 0.59604 0.83283 0.30703 0.0
H498 H 0.40803 0.69088 0.2521 0.0
H499 H 0.40061 0.69957 0.31628 0.0
H500 H 0.37798 0.74113 0.26865 0.0
H501 H 0.63112 0.77998 0.36865 0.0
H502 H 0.59081 0.72803 0.39095 0.0
H503 H 0.61422 0.72331 0.33272 0.0
H504 H 0.47795 0.59701 0.42093 0.0
H505 H 0.50292 0.57104 0.27065 0.0
H506 H 0.44598 0.70952 0.40534 0.0
H507 H 0.51371 0.72808 0.42384 0.0
H508 H 0.48054 0.67642 0.45381 0.0
H509 H 0.48738 0.68078 0.22015 0.0
H510 H 0.52918 0.63586 0.21788 0.0
H511 H 0.55414 0.69566 0.24636 0.0
loop_
_geom_bond_atom_site_label_1
_geom_bond_atom_site_label_2
_geom_bond_distance
_geom_bond_site_symmetry_2
_ccdc_geom_bond_type
Zn0 O1 2.055 . S
Zn0 O8 2.046 . S
Zn0 N16 2.036 . S
Zn0 O28 2.053 . S
Zn0 O30 2.066 . S
O1 Zn0 2.055 . S
O1 C4 1.259 . S
C2 O30 1.256 . S
C2 O31 1.244 . S
Zn3 O5 2.046 . S
Zn3 O7 2.055 . S
Zn3 N9 2.036 . S
Zn3 O27 2.066 . S
Zn3 O31 2.053 . S
C4 O1 1.259 . S
C4 O5 1.254 . S
O5 Zn3 2.046 . S
O5 C4 1.254 . S
C6 O27 1.256 . S
C6 O28 1.244 . S
O7 Zn3 2.055 . S
O7 C29 1.259 . S
O8 Zn0 2.046 . S
O8 C29 1.254 . S
N9 Zn3 2.036 . S
N9 C10 1.298 . S
N9 N12 1.398 . S
C10 N9 1.298 . S
C10 N13 1.367 . S
C10 C23 1.481 . S
C11 N12 1.299 . S
C11 N13 1.379 . S
N12 N9 1.398 . S
N12 C11 1.299 . S
N13 C10 1.367 . S
N13 C11 1.379 . S
C14 N16 1.298 . S
C14 N18 1.367 . S
C14 C22 1.481 . S
C15 N17 1.299 . S
C15 N18 1.379 . S
N16 Zn0 2.036 . S
N16 C14 1.298 . S
N16 N17 1.398 . S
N17 C15 1.299 . S
N17 N16 1.398 . S
N18 C14 1.367 . S
N18 C15 1.379 . S
H19 C22 0.980 . S
H20 C22 0.981 . S
H21 C22 0.981 . S
C22 C14 1.481 . S
C22 H19 0.980 . S
C22 H20 0.981 . S
C22 H21 0.981 . S
C23 C10 1.481 . S
C23 H24 0.980 . S
C23 H25 0.981 . S
C23 H26 0.981 . S
H24 C23 0.980 . S
H25 C23 0.981 . S
H26 C23 0.981 . S
O27 Zn3 2.066 . S
O27 C6 1.256 . S
O28 Zn0 2.053 . S
O28 C6 1.244 . S
C29 O7 1.259 . S
C29 O8 1.254 . S
O30 Zn0 2.066 . S
O30 C2 1.256 . S
O31 C2 1.244 . S
O31 Zn3 2.053 . S
Zn32 O33 2.055 . S
Zn32 O40 2.046 . S
Zn32 N48 2.036 . S
Zn32 O60 2.053 . S
Zn32 O62 2.066 . S
O33 Zn32 2.055 . S
O33 C36 1.259 . S
C34 O62 1.256 . S
C34 O63 1.244 . S
Zn35 O37 2.046 . S
Zn35 O39 2.055 . S
Zn35 N41 2.036 . S
Zn35 O59 2.066 . S
Zn35 O63 2.053 . S
C36 O33 1.259 . S
C36 O37 1.254 . S
O37 Zn35 2.046 . S
O37 C36 1.254 . S
C38 O59 1.256 . S
C38 O60 1.244 . S
O39 Zn35 2.055 . S
O39 C61 1.259 . S
O40 Zn32 2.046 . S
O40 C61 1.254 . S
N41 Zn35 2.036 . S
N41 C42 1.298 . S
N41 N44 1.398 . S
C42 N41 1.298 . S
C42 N45 1.367 . S
C42 C55 1.481 1_545 S
C43 N44 1.299 . S
C43 N45 1.379 . S
N44 N41 1.398 . S
N44 C43 1.299 . S
N45 C42 1.367 . S
N45 C43 1.379 . S
C46 N48 1.298 . S
C46 N50 1.367 1_655 S
C46 C54 1.481 . S
C47 N49 1.299 . S
C47 N50 1.379 . S
N48 Zn32 2.036 . S
N48 C46 1.298 . S
N48 N49 1.398 1_655 S
N49 C47 1.299 . S
N49 N48 1.398 1_455 S
N50 C46 1.367 1_455 S
N50 C47 1.379 . S
H51 C54 0.980 . S
H52 C54 0.981 . S
H53 C54 0.981 . S
C54 C46 1.481 . S
C54 H51 0.980 . S
C54 H52 0.981 . S
C54 H53 0.981 . S
C55 C42 1.481 1_565 S
C55 H56 0.980 1_565 S
C55 H57 0.981 . S
C55 H58 0.981 . S
H56 C55 0.980 1_545 S
H57 C55 0.981 . S
H58 C55 0.981 . S
O59 Zn35 2.066 . S
O59 C38 1.256 . S
O60 Zn32 2.053 . S
O60 C38 1.244 . S
C61 O39 1.259 . S
C61 O40 1.254 . S
O62 Zn32 2.066 . S
O62 C34 1.256 . S
O63 C34 1.244 . S
O63 Zn35 2.053 . S
Zn64 O65 2.055 . S
Zn64 O72 2.046 . S
Zn64 N80 2.036 . S
Zn64 O92 2.053 . S
Zn64 O94 2.066 . S
O65 Zn64 2.055 . S
O65 C68 1.259 . S
C66 O94 1.256 . S
C66 O95 1.244 . S
Zn67 O69 2.046 . S
Zn67 O71 2.055 . S
Zn67 N73 2.036 . S
Zn67 O91 2.066 . S
Zn67 O95 2.053 . S
C68 O65 1.259 . S
C68 O69 1.254 . S
O69 Zn67 2.046 . S
O69 C68 1.254 . S
C70 O91 1.256 . S
C70 O92 1.244 . S
O71 Zn67 2.055 . S
O71 C93 1.259 . S
O72 Zn64 2.046 . S
O72 C93 1.254 . S
N73 Zn67 2.036 . S
N73 C74 1.298 . S
N73 N76 1.398 . S
C74 N73 1.298 . S
C74 N77 1.367 . S
C74 C87 1.481 . S
C75 N76 1.299 . S
C75 N77 1.379 . S
N76 N73 1.398 . S
N76 C75 1.299 . S
N77 C74 1.367 . S
N77 C75 1.379 . S
C78 N80 1.298 . S
C78 N82 1.367 1_455 S
C78 C86 1.481 . S
C79 N81 1.296 1_655 S
C79 N82 1.379 . S
N80 Zn64 2.036 . S
N80 C78 1.298 . S
N80 N81 1.401 . S
N81 C79 1.296 1_455 S
N81 N80 1.401 . S
N82 C78 1.367 1_655 S
N82 C79 1.379 . S
H83 C86 0.980 . S
H84 C86 0.981 . S
H85 C86 0.981 . S
C86 C78 1.481 . S
C86 H83 0.980 . S
C86 H84 0.981 . S
C86 H85 0.981 . S
C87 C74 1.481 . S
C87 H88 0.980 . S
C87 H89 0.981 . S
C87 H90 0.981 . S
H88 C87 0.980 . S
H89 C87 0.981 . S
H90 C87 0.981 . S
O91 Zn67 2.066 . S
O91 C70 1.256 . S
O92 Zn64 2.053 . S
O92 C70 1.244 . S
C93 O71 1.259 . S
C93 O72 1.254 . S
O94 Zn64 2.066 . S
O94 C66 1.256 . S
O95 C66 1.244 . S
O95 Zn67 2.053 . S
Zn96 O97 2.055 . S
Zn96 O104 2.046 . S
Zn96 N112 2.036 . S
Zn96 O124 2.053 . S
Zn96 O126 2.066 . S
O97 Zn96 2.055 . S
O97 C100 1.259 . S
C98 O126 1.256 . S
C98 O127 1.244 . S
Zn99 O101 2.046 . S
Zn99 O103 2.055 . S
Zn99 N105 2.036 . S
Zn99 O123 2.066 . S
Zn99 O127 2.053 . S
C100 O97 1.259 . S
C100 O101 1.254 . S
O101 Zn99 2.046 . S
O101 C100 1.254 . S
C102 O123 1.256 . S
C102 O124 1.244 . S
O103 Zn99 2.055 . S
O103 C125 1.259 . S
O104 Zn96 2.046 . S
O104 C125 1.254 . S
N105 Zn99 2.036 . S
N105 C106 1.298 . S
N105 N108 1.398 1_565 S
C106 N105 1.298 . S
C106 N109 1.367 1_565 S
C106 C119 1.481 . S
C107 N108 1.299 . S
C107 N109 1.379 . S
N108 N105 1.398 1_545 S
N108 C107 1.299 . S
N109 C106 1.367 1_545 S
N109 C107 1.379 . S
C110 N112 1.298 . S
C110 N114 1.367 . S
C110 C118 1.481 . S
C111 N113 1.299 . S
C111 N114 1.379 . S
N112 Zn96 2.036 . S
N112 C110 1.298 . S
N112 N113 1.398 . S
N113 C111 1.299 . S
N113 N112 1.398 . S
N114 C110 1.367 . S
N114 C111 1.379 . S
H115 C118 0.980 . S
H116 C118 0.981 . S
H117 C118 0.981 . S
C118 C110 1.481 . S
C118 H115 0.980 . S
C118 H116 0.981 . S
C118 H117 0.981 . S
C119 C106 1.481 . S
C119 H120 0.980 . S
C119 H121 0.981 . S
C119 H122 0.981 . S
H120 C119 0.980 . S
H121 C119 0.981 . S
H122 C119 0.981 . S
O123 Zn99 2.066 . S
O123 C102 1.256 . S
O124 Zn96 2.053 . S
O124 C102 1.244 . S
C125 O103 1.259 . S
C125 O104 1.254 . S
O126 Zn96 2.066 . S
O126 C98 1.256 . S
O127 C98 1.244 . S
O127 Zn99 2.053 . S
C128 C129 1.391 . S
C128 C130 1.394 1_556 S
C128 H144 0.931 . S
C129 C128 1.391 . S
C129 C133 1.376 . S
C130 C128 1.394 1_554 S
C130 C131 1.369 . S
C130 C134 1.531 . S
C131 C130 1.369 . S
C131 C132 1.410 1_554 S
C131 C139 1.503 . S
C132 C131 1.410 1_556 S
C132 C133 1.392 . S
C132 C135 1.511 1_556 S
C133 C129 1.376 . S
C133 C132 1.392 . S
C133 H145 0.929 . S
C134 C130 1.531 . S
C134 H146 0.960 . S
C134 H147 0.962 . S
C134 H148 0.960 . S
C135 C132 1.511 1_554 S
C135 H149 0.961 1_554 S
C135 H150 0.961 . S
C135 H151 0.961 . S
C136 C137 1.370 . S
C136 C138 1.363 . S
C136 H152 0.931 . S
C137 C136 1.370 . S
C137 C141 1.408 . S
C138 C136 1.363 . S
C138 C139 1.370 . S
C138 C142 1.524 . S
C139 C131 1.503 . S
C139 C138 1.370 . S
C139 C140 1.403 . S
C140 C139 1.403 . S
C140 C141 1.404 . S
C140 C143 1.539 . S
C141 C137 1.408 . S
C141 C140 1.404 . S
C141 H153 0.930 . S
C142 C138 1.524 . S
C142 H154 0.956 . S
C142 H155 0.961 . S
C142 H156 0.961 . S
C143 C140 1.539 . S
C143 H157 0.958 . S
C143 H158 0.961 . S
C143 H159 0.960 . S
H144 C128 0.931 . S
H145 C133 0.929 . S
H146 C134 0.960 . S
H147 C134 0.962 . S
H148 C134 0.960 . S
H149 C135 0.961 1_556 S
H150 C135 0.961 . S
H151 C135 0.961 . S
H152 C136 0.931 . S
H153 C141 0.930 . S
H154 C142 0.956 . S
H155 C142 0.961 . S
H156 C142 0.961 . S
H157 C143 0.958 . S
H158 C143 0.961 . S
H159 C143 0.960 . S
C160 C161 1.391 . S
C160 C162 1.394 . S
C160 H176 0.931 . S
C161 C160 1.391 . S
C161 C165 1.376 . S
C162 C160 1.394 . S
C162 C163 1.369 . S
C162 C166 1.531 . S
C163 C162 1.369 . S
C163 C164 1.410 . S
C163 C171 1.503 . S
C164 C163 1.410 . S
C164 C165 1.392 . S
C164 C167 1.511 1_565 S
C165 C161 1.376 . S
C165 C164 1.392 . S
C165 H177 0.929 . S
C166 C162 1.531 . S
C166 H178 0.960 . S
C166 H179 0.962 . S
C166 H180 0.960 . S
C167 C164 1.511 1_545 S
C167 H181 0.961 . S
C167 H182 0.961 . S
C167 H183 0.961 . S
C168 C169 1.370 . S
C168 C170 1.363 . S
C168 H184 0.931 . S
C169 C168 1.370 . S
C169 C173 1.408 1_545 S
C170 C168 1.363 . S
C170 C171 1.370 1_545 S
C170 C174 1.524 . S
C171 C163 1.503 . S
C171 C170 1.370 1_565 S
C171 C172 1.403 . S
C172 C171 1.403 . S
C172 C173 1.404 . S
C172 C175 1.539 . S
C173 C169 1.408 1_565 S
C173 C172 1.404 . S
C173 H185 0.930 . S
C174 C170 1.524 . S
C174 H186 0.956 . S
C174 H187 0.961 . S
C174 H188 0.961 . S
C175 C172 1.539 . S
C175 H189 0.958 . S
C175 H190 0.961 . S
C175 H191 0.960 . S
H176 C160 0.931 . S
H177 C165 0.929 . S
H178 C166 0.960 . S
H179 C166 0.962 . S
H180 C166 0.960 . S
H181 C167 0.961 . S
H182 C167 0.961 . S
H183 C167 0.961 . S
H184 C168 0.931 . S
H185 C173 0.930 . S
H186 C174 0.956 . S
H187 C174 0.961 . S
H188 C174 0.961 . S
H189 C175 0.958 . S
H190 C175 0.961 . S
H191 C175 0.960 . S
C192 C193 1.391 . S
C192 C194 1.394 . S
C192 H208 0.931 . S
C193 C192 1.391 . S
C193 C197 1.376 . S
C194 C192 1.394 . S
C194 C195 1.369 . S
C194 C198 1.531 . S
C195 C194 1.369 . S
C195 C196 1.410 . S
C195 C203 1.503 . S
C196 C195 1.410 . S
C196 C197 1.392 . S
C196 C199 1.511 . S
C197 C193 1.376 . S
C197 C196 1.392 . S
C197 H209 0.929 . S
C198 C194 1.531 . S
C198 H210 0.960 . S
C198 H211 0.962 . S
C198 H212 0.960 . S
C199 C196 1.511 . S
C199 H213 0.961 . S
C199 H214 0.961 . S
C199 H215 0.961 . S
C200 C201 1.370 . S
C200 C202 1.363 . S
C200 H216 0.931 . S
C201 C200 1.370 . S
C201 C205 1.408 . S
C202 C200 1.363 . S
C202 C203 1.370 . S
C202 C206 1.524 . S
C203 C195 1.503 . S
C203 C202 1.370 . S
C203 C204 1.403 . S
C204 C203 1.403 . S
C204 C205 1.404 . S
C204 C207 1.539 . S
C205 C201 1.408 . S
C205 C204 1.404 . S
C205 H217 0.930 . S
C206 C202 1.524 . S
C206 H218 0.956 . S
C206 H219 0.961 . S
C206 H220 0.961 . S
C207 C204 1.539 . S
C207 H221 0.958 . S
C207 H222 0.961 . S
C207 H223 0.960 . S
H208 C192 0.931 . S
H209 C197 0.929 . S
H210 C198 0.960 . S
H211 C198 0.962 . S
H212 C198 0.960 . S
H213 C199 0.961 . S
H214 C199 0.961 . S
H215 C199 0.961 . S
H216 C200 0.931 . S
H217 C205 0.930 . S
H218 C206 0.956 . S
H219 C206 0.961 . S
H220 C206 0.961 . S
H221 C207 0.958 . S
H222 C207 0.961 . S
H223 C207 0.960 . S
C224 C225 1.391 1_545 S
C224 C226 1.394 1_554 S
C224 H240 0.931 . S
C225 C224 1.391 1_565 S
C225 C229 1.376 . S
C226 C224 1.394 1_556 S
C226 C227 1.369 1_545 S
C226 C230 1.531 . S
C227 C226 1.369 1_565 S
C227 C228 1.410 . S
C227 C235 1.503 1_565 S
C228 C227 1.410 . S
C228 C229 1.392 1_556 S
C228 C231 1.511 . S
C229 C225 1.376 . S
C229 C228 1.392 1_554 S
C229 H241 0.929 . S
C230 C226 1.531 . S
C230 H242 0.960 . S
C230 H243 0.962 . S
C230 H244 0.960 . S
C231 C228 1.511 . S
C231 H245 0.961 . S
C231 H246 0.961 . S
C231 H247 0.961 . S
C232 C233 1.370 1_565 S
C232 C234 1.363 . S
C232 H248 0.931 . S
C233 C232 1.370 1_545 S
C233 C237 1.408 . S
C234 C232 1.363 . S
C234 C235 1.370 1_565 S
C234 C238 1.524 . S
C235 C227 1.503 1_545 S
C235 C234 1.370 1_545 S
C235 C236 1.403 . S
C236 C235 1.403 . S
C236 C237 1.404 . S
C236 C239 1.539 . S
C237 C233 1.408 . S
C237 C236 1.404 . S
C237 H249 0.930 . S
C238 C234 1.524 . S
C238 H250 0.956 . S
C238 H251 0.961 . S
C238 H252 0.961 . S
C239 C236 1.539 . S
C239 H253 0.958 . S
C239 H254 0.961 . S
C239 H255 0.960 . S
H240 C224 0.931 . S
H241 C229 0.929 . S
H242 C230 0.960 . S
H243 C230 0.962 . S
H244 C230 0.960 . S
H245 C231 0.961 . S
H246 C231 0.961 . S
H247 C231 0.961 . S
H248 C232 0.931 . S
H249 C237 0.930 . S
H250 C238 0.956 . S
H251 C238 0.961 . S
H252 C238 0.961 . S
H253 C239 0.958 . S
H254 C239 0.961 . S
H255 C239 0.960 . S
C256 C257 1.391 . S
C256 C258 1.394 . S
C256 H272 0.931 . S
C257 C256 1.391 . S
C257 C261 1.376 . S
C258 C256 1.394 . S
C258 C259 1.369 . S
C258 C262 1.531 . S
C259 C258 1.369 . S
C259 C260 1.410 . S
C259 C267 1.503 . S
C260 C259 1.410 . S
C260 C261 1.392 . S
C260 C263 1.511 . S
C261 C257 1.376 . S
C261 C260 1.392 . S
C261 H273 0.929 . S
C262 C258 1.531 . S
C262 H274 0.960 . S
C262 H275 0.962 . S
C262 H276 0.960 . S
C263 C260 1.511 . S
C263 H277 0.961 . S
C263 H278 0.961 . S
C263 H279 0.961 . S
C264 C265 1.370 . S
C264 C266 1.363 . S
C264 H280 0.931 . S
C265 C264 1.370 . S
C265 C269 1.408 . S
C266 C264 1.363 . S
C266 C267 1.370 . S
C266 C270 1.524 . S
C267 C259 1.503 . S
C267 C266 1.370 . S
C267 C268 1.403 . S
C268 C267 1.403 . S
C268 C269 1.404 . S
C268 C271 1.539 . S
C269 C265 1.408 . S
C269 C268 1.404 . S
C269 H281 0.930 . S
C270 C266 1.524 . S
C270 H282 0.956 . S
C270 H283 0.961 . S
C270 H284 0.961 . S
C271 C268 1.539 . S
C271 H285 0.958 . S
C271 H286 0.961 . S
C271 H287 0.960 . S
H272 C256 0.931 . S
H273 C261 0.929 . S
H274 C262 0.960 . S
H275 C262 0.962 . S
H276 C262 0.960 . S
H277 C263 0.961 . S
H278 C263 0.961 . S
H279 C263 0.961 . S
H280 C264 0.931 . S
H281 C269 0.930 . S
H282 C270 0.956 . S
H283 C270 0.961 . S
H284 C270 0.961 . S
H285 C271 0.958 . S
H286 C271 0.961 . S
H287 C271 0.960 . S
C288 C289 1.391 . S
C288 C290 1.394 . S
C288 H304 0.931 . S
C289 C288 1.391 . S
C289 C293 1.376 . S
C290 C288 1.394 . S
C290 C291 1.369 . S
C290 C294 1.531 . S
C291 C290 1.369 . S
C291 C292 1.410 1_455 S
C291 C299 1.503 . S
C292 C291 1.410 1_655 S
C292 C293 1.392 1_655 S
C292 C295 1.511 . S
C293 C289 1.376 . S
C293 C292 1.392 1_455 S
C293 H305 0.929 1_455 S
C294 C290 1.531 . S
C294 H306 0.960 . S
C294 H307 0.962 . S
C294 H308 0.960 . S
C295 C292 1.511 . S
C295 H309 0.961 . S
C295 H310 0.961 . S
C295 H311 0.961 . S
C296 C297 1.370 1_565 S
C296 C298 1.363 1_655 S
C296 H312 0.931 1_565 S
C297 C296 1.370 1_545 S
C297 C301 1.408 1_545 S
C298 C296 1.363 1_455 S
C298 C299 1.370 . S
C298 C302 1.524 . S
C299 C291 1.503 . S
C299 C298 1.370 . S
C299 C300 1.403 1_455 S
C300 C299 1.403 1_655 S
C300 C301 1.404 . S
C300 C303 1.539 . S
C301 C297 1.408 1_565 S
C301 C300 1.404 . S
C301 H313 0.930 . S
C302 C298 1.524 . S
C302 H314 0.956 . S
C302 H315 0.961 . S
C302 H316 0.961 . S
C303 C300 1.539 . S
C303 H317 0.958 1_655 S
C303 H318 0.961 . S
C303 H319 0.960 . S
H304 C288 0.931 . S
H305 C293 0.929 1_655 S
H306 C294 0.960 . S
H307 C294 0.962 . S
H308 C294 0.960 . S
H309 C295 0.961 . S
H310 C295 0.961 . S
H311 C295 0.961 . S
H312 C296 0.931 1_545 S
H313 C301 0.930 . S
H314 C302 0.956 . S
H315 C302 0.961 . S
H316 C302 0.961 . S
H317 C303 0.958 1_455 S
H318 C303 0.961 . S
H319 C303 0.960 . S
C320 C321 1.391 . S
C320 C322 1.394 . S
C320 H336 0.931 . S
C321 C320 1.391 . S
C321 C325 1.376 . S
C322 C320 1.394 . S
C322 C323 1.369 . S
C322 C326 1.531 1_556 S
C323 C322 1.369 . S
C323 C324 1.410 . S
C323 C331 1.503 . S
C324 C323 1.410 . S
C324 C325 1.392 . S
C324 C327 1.511 . S
C325 C321 1.376 . S
C325 C324 1.392 . S
C325 H337 0.929 . S
C326 C322 1.531 1_554 S
C326 H338 0.960 . S
C326 H339 0.962 . S
C326 H340 0.960 . S
C327 C324 1.511 . S
C327 H341 0.961 . S
C327 H342 0.961 . S
C327 H343 0.961 . S
C328 C329 1.370 . S
C328 C330 1.363 1_554 S
C328 H344 0.931 . S
C329 C328 1.370 . S
C329 C333 1.408 . S
C330 C328 1.363 1_556 S
C330 C331 1.370 . S
C330 C334 1.524 . S
C331 C323 1.503 . S
C331 C330 1.370 . S
C331 C332 1.403 1_556 S
C332 C331 1.403 1_554 S
C332 C333 1.404 . S
C332 C335 1.539 . S
C333 C329 1.408 . S
C333 C332 1.404 . S
C333 H345 0.930 . S
C334 C330 1.524 . S
C334 H346 0.956 . S
C334 H347 0.961 . S
C334 H348 0.961 . S
C335 C332 1.539 . S
C335 H349 0.958 . S
C335 H350 0.961 . S
C335 H351 0.960 1_554 S
H336 C320 0.931 . S
H337 C325 0.929 . S
H338 C326 0.960 . S
H339 C326 0.962 . S
H340 C326 0.960 . S
H341 C327 0.961 . S
H342 C327 0.961 . S
H343 C327 0.961 . S
H344 C328 0.931 . S
H345 C333 0.930 . S
H346 C334 0.956 . S
H347 C334 0.961 . S
H348 C334 0.961 . S
H349 C335 0.958 . S
H350 C335 0.961 . S
H351 C335 0.960 1_556 S
C352 C353 1.391 . S
C352 C354 1.394 . S
C352 H368 0.931 . S
C353 C352 1.391 . S
C353 C357 1.376 . S
C354 C352 1.394 . S
C354 C355 1.369 . S
C354 C358 1.531 . S
C355 C354 1.369 . S
C355 C356 1.410 . S
C355 C363 1.503 . S
C356 C355 1.410 . S
C356 C357 1.392 . S
C356 C359 1.511 . S
C357 C353 1.376 . S
C357 C356 1.392 . S
C357 H369 0.929 . S
C358 C354 1.531 . S
C358 H370 0.960 . S
C358 H371 0.962 . S
C358 H372 0.960 . S
C359 C356 1.511 . S
C359 H373 0.961 . S
C359 H374 0.961 . S
C359 H375 0.961 . S
C360 C361 1.370 . S
C360 C362 1.363 . S
C360 H376 0.931 . S
C361 C360 1.370 . S
C361 C365 1.408 . S
C362 C360 1.363 . S
C362 C363 1.370 . S
C362 C366 1.524 . S
C363 C355 1.503 . S
C363 C362 1.370 . S
C363 C364 1.403 . S
C364 C363 1.403 . S
C364 C365 1.404 . S
C364 C367 1.539 . S
C365 C361 1.408 . S
C365 C364 1.404 . S
C365 H377 0.930 . S
C366 C362 1.524 . S
C366 H378 0.956 . S
C366 H379 0.961 . S
C366 H380 0.961 . S
C367 C364 1.539 . S
C367 H381 0.958 . S
C367 H382 0.961 . S
C367 H383 0.960 . S
H368 C352 0.931 . S
H369 C357 0.929 . S
H370 C358 0.960 . S
H371 C358 0.962 . S
H372 C358 0.960 . S
H373 C359 0.961 . S
H374 C359 0.961 . S
H375 C359 0.961 . S
H376 C360 0.931 . S
H377 C365 0.930 . S
H378 C366 0.956 . S
H379 C366 0.961 . S
H380 C366 0.961 . S
H381 C367 0.958 . S
H382 C367 0.961 . S
H383 C367 0.960 . S
C384 C385 1.391 . S
C384 C386 1.394 . S
C384 H400 0.931 . S
C385 C384 1.391 . S
C385 C389 1.376 . S
C386 C384 1.394 . S
C386 C387 1.369 . S
C386 C390 1.531 . S
C387 C386 1.369 . S
C387 C388 1.410 . S
C387 C395 1.503 . S
C388 C387 1.410 . S
C388 C389 1.392 . S
C388 C391 1.511 . S
C389 C385 1.376 . S
C389 C388 1.392 . S
C389 H401 0.929 . S
C390 C386 1.531 . S
C390 H402 0.960 . S
C390 H403 0.962 . S
C390 H404 0.960 . S
C391 C388 1.511 . S
C391 H405 0.961 . S
C391 H406 0.961 . S
C391 H407 0.961 . S
C392 C393 1.370 . S
C392 C394 1.363 . S
C392 H408 0.931 . S
C393 C392 1.370 . S
C393 C397 1.408 . S
C394 C392 1.363 . S
C394 C395 1.370 . S
C394 C398 1.524 . S
C395 C387 1.503 . S
C395 C394 1.370 . S
C395 C396 1.403 . S
C396 C395 1.403 . S
C396 C397 1.404 . S
C396 C399 1.539 . S
C397 C393 1.408 . S
C397 C396 1.404 . S
C397 H409 0.930 . S
C398 C394 1.524 . S
C398 H410 0.956 . S
C398 H411 0.961 . S
C398 H412 0.961 . S
C399 C396 1.539 . S
C399 H413 0.958 . S
C399 H414 0.961 . S
C399 H415 0.960 . S
H400 C384 0.931 . S
H401 C389 0.929 . S
H402 C390 0.960 . S
H403 C390 0.962 . S
H404 C390 0.960 . S
H405 C391 0.961 . S
H406 C391 0.961 . S
H407 C391 0.961 . S
H408 C392 0.931 . S
H409 C397 0.930 . S
H410 C398 0.956 . S
H411 C398 0.961 . S
H412 C398 0.961 . S
H413 C399 0.958 . S
H414 C399 0.961 . S
H415 C399 0.960 . S
C416 C417 1.391 1_655 S
C416 C418 1.394 . S
C416 H432 0.931 . S
C417 C416 1.391 1_455 S
C417 C421 1.376 . S
C418 C416 1.394 . S
C418 C419 1.369 1_655 S
C418 C422 1.531 . S
C419 C418 1.369 1_455 S
C419 C420 1.410 . S
C419 C427 1.503 1_455 S
C420 C419 1.410 . S
C420 C421 1.392 . S
C420 C423 1.511 . S
C421 C417 1.376 . S
C421 C420 1.392 . S
C421 H433 0.929 . S
C422 C418 1.531 . S
C422 H434 0.960 . S
C422 H435 0.962 . S
C422 H436 0.960 . S
C423 C420 1.511 . S
C423 H437 0.961 . S
C423 H438 0.961 . S
C423 H439 0.961 . S
C424 C425 1.370 . S
C424 C426 1.363 . S
C424 H440 0.931 . S
C425 C424 1.370 . S
C425 C429 1.408 . S
C426 C424 1.363 . S
C426 C427 1.370 . S
C426 C430 1.524 . S
C427 C419 1.503 1_655 S
C427 C426 1.370 . S
C427 C428 1.403 1_655 S
C428 C427 1.403 1_455 S
C428 C429 1.404 1_455 S
C428 C431 1.539 . S
C429 C425 1.408 . S
C429 C428 1.404 1_655 S
C429 H441 0.930 1_655 S
C430 C426 1.524 . S
C430 H442 0.956 . S
C430 H443 0.961 . S
C430 H444 0.961 . S
C431 C428 1.539 . S
C431 H445 0.958 . S
C431 H446 0.961 . S
C431 H447 0.960 . S
H432 C416 0.931 . S
H433 C421 0.929 . S
H434 C422 0.960 . S
H435 C422 0.962 . S
H436 C422 0.960 . S
H437 C423 0.961 . S
H438 C423 0.961 . S
H439 C423 0.961 . S
H440 C424 0.931 . S
H441 C429 0.930 1_455 S
H442 C430 0.956 . S
H443 C430 0.961 . S
H444 C430 0.961 . S
H445 C431 0.958 . S
H446 C431 0.961 . S
H447 C431 0.960 . S
C448 C449 1.391 . S
C448 C450 1.394 . S
C448 H464 0.931 . S
C449 C448 1.391 . S
C449 C453 1.376 1_556 S
C450 C448 1.394 . S
C450 C451 1.369 1_556 S
C450 C454 1.531 . S
C451 C450 1.369 1_554 S
C451 C452 1.410 . S
C451 C459 1.503 . S
C452 C451 1.410 . S
C452 C453 1.392 . S
C452 C455 1.511 . S
C453 C449 1.376 1_554 S
C453 C452 1.392 . S
C453 H465 0.939 . S
C454 C450 1.531 . S
C454 H466 0.960 . S
C454 H467 0.962 . S
C454 H468 0.960 . S
C455 C452 1.511 . S
C455 H469 0.961 . S
C455 H470 0.961 . S
C455 H471 0.961 . S
C456 C457 1.370 . S
C456 C458 1.363 . S
C456 H472 0.931 . S
C457 C456 1.370 . S
C457 C461 1.408 . S
C458 C456 1.363 . S
C458 C459 1.370 . S
C458 C462 1.524 1_554 S
C459 C451 1.503 . S
C459 C458 1.370 . S
C459 C460 1.403 . S
C460 C459 1.403 . S
C460 C461 1.404 . S
C460 C463 1.539 . S
C461 C457 1.408 . S
C461 C460 1.404 . S
C461 H473 0.930 . S
C462 C458 1.524 1_556 S
C462 H474 0.956 . S
C462 H475 0.961 . S
C462 H476 0.961 . S
C463 C460 1.539 . S
C463 H477 0.958 . S
C463 H478 0.961 . S
C463 H479 0.960 . S
H464 C448 0.931 . S
H465 C453 0.939 . S
H466 C454 0.960 . S
H467 C454 0.962 . S
H468 C454 0.960 . S
H469 C455 0.961 . S
H470 C455 0.961 . S
H471 C455 0.961 . S
H472 C456 0.931 . S
H473 C461 0.930 . S
H474 C462 0.956 . S
H475 C462 0.961 . S
H476 C462 0.961 . S
H477 C463 0.958 . S
H478 C463 0.961 . S
H479 C463 0.960 . S
C480 C481 1.391 . S
C480 C482 1.394 . S
C480 H496 0.931 . S
C481 C480 1.391 . S
C481 C485 1.376 . S
C482 C480 1.394 . S
C482 C483 1.369 . S
C482 C486 1.531 . S
C483 C482 1.369 . S
C483 C484 1.410 . S
C483 C491 1.503 . S
C484 C483 1.410 . S
C484 C485 1.392 . S
C484 C487 1.511 . S
C485 C481 1.376 . S
C485 C484 1.392 . S
C485 H497 0.929 . S
C486 C482 1.531 . S
C486 H498 0.960 . S
C486 H499 0.962 . S
C486 H500 0.960 . S
C487 C484 1.511 . S
C487 H501 0.961 . S
C487 H502 0.961 . S
C487 H503 0.961 . S
C488 C489 1.370 . S
C488 C490 1.363 . S
C488 H504 0.931 . S
C489 C488 1.370 . S
C489 C493 1.408 . S
C490 C488 1.363 . S
C490 C491 1.370 . S
C490 C494 1.524 . S
C491 C483 1.503 . S
C491 C490 1.370 . S
C491 C492 1.403 . S
C492 C491 1.403 . S
C492 C493 1.404 . S
C492 C495 1.539 . S
C493 C489 1.408 . S
C493 C492 1.404 . S
C493 H505 0.930 . S
C494 C490 1.524 . S
C494 H506 0.956 . S
C494 H507 0.961 . S
C494 H508 0.961 . S
C495 C492 1.539 . S
C495 H509 0.958 . S
C495 H510 0.961 . S
C495 H511 0.960 . S
H496 C480 0.931 . S
H497 C485 0.929 . S
H498 C486 0.960 . S
H499 C486 0.962 . S
H500 C486 0.960 . S
H501 C487 0.961 . S
H502 C487 0.961 . S
H503 C487 0.961 . S
H504 C488 0.931 . S
H505 C493 0.930 . S
H506 C494 0.956 . S
H507 C494 0.961 . S
H508 C494 0.961 . S
H509 C495 0.958 . S
H510 C495 0.961 . S
H511 C495 0.960 . S
C129 C93 1.266 . S
C137 N18 1.222 . S
C161 C102 1.668 . S
C169 C61 1.581 . S
C193 N77 0.957 . S
C201 C4 0.986 . S
C225 C98 1.511 . S
C233 N45 1.451 . S
C257 N50 1.138 . S
C265 C29 1.121 . S
C289 C66 1.922 . S
C297 C38 1.940 . S
C321 C68 1.162 . S
C329 C100 1.284 . S
C353 C6 1.487 . S
C361 N109 1.462 . S
C385 C36 1.178 . S
C393 N13 1.199 . S
C417 C70 2.193 . S
C425 C34 2.188 . S
C449 N82 0.960 . S
C457 N114 1.019 . S
C481 C125 1.463 . S
C489 C2 1.544 . S
