# Generated by pormake.
# Topology zfy, (5)-cn, num edge types: 1
# Building blocks:
#     Node 0, Type 0, BuildingBlock: BEQFEK_clean_sbu_0, # of connection points: 5
#     Node 1, Type 0, BuildingBlock: BEQFEK_clean_sbu_0, # of connection points: 5
#     Node 2, Type 0, BuildingBlock: BEQFEK_clean_sbu_0, # of connection points: 5
#     Node 3, Type 0, BuildingBlock: BEQFEK_clean_sbu_0, # of connection points: 5
#     Node 4, Type 0, BuildingBlock: BEQFEK_clean_sbu_0, # of connection points: 5
#     Node 5, Type 0, BuildingBlock: BEQFEK_clean_sbu_0, # of connection points: 5
#     Node 6, Type 0, BuildingBlock: BEQFEK_clean_sbu_0, # of connection points: 5
#     Node 7, Type 0, BuildingBlock: BEQFEK_clean_sbu_0, # of connection points: 5
#     Node 8, Type 0, BuildingBlock: BEQFEK_clean_sbu_0, # of connection points: 5
#     Node 9, Type 0, BuildingBlock: BEQFEK_clean_sbu_0, # of connection points: 5
#     Node 10, Type 0, BuildingBlock: BEQFEK_clean_sbu_0, # of connection points: 5
#     Node 11, Type 0, BuildingBlock: BEQFEK_clean_sbu_0, # of connection points: 5
#     Node 12, Type 0, BuildingBlock: BEQFEK_clean_sbu_0, # of connection points: 5
#     Node 13, Type 0, BuildingBlock: BEQFEK_clean_sbu_0, # of connection points: 5
#     Node 14, Type 0, BuildingBlock: BEQFEK_clean_sbu_0, # of connection points: 5
#     Node 15, Type 0, BuildingBlock: BEQFEK_clean_sbu_0, # of connection points: 5
#     Edge 16, Type (0, 0), BuildingBlock: XUDNAN_clean_linker_2, # of connection points: 2
#     Edge 17, Type (0, 0), BuildingBlock: XUDNAN_clean_linker_2, # of connection points: 2
#     Edge 18, Type (0, 0), BuildingBlock: XUDNAN_clean_linker_2, # of connection points: 2
#     Edge 19, Type (0, 0), BuildingBlock: XUDNAN_clean_linker_2, # of connection points: 2
#     Edge 20, Type (0, 0), BuildingBlock: XUDNAN_clean_linker_2, # of connection points: 2
#     Edge 21, Type (0, 0), BuildingBlock: XUDNAN_clean_linker_2, # of connection points: 2
#     Edge 22, Type (0, 0), BuildingBlock: XUDNAN_clean_linker_2, # of connection points: 2
#     Edge 23, Type (0, 0), BuildingBlock: XUDNAN_clean_linker_2, # of connection points: 2
#     Edge 24, Type (0, 0), BuildingBlock: XUDNAN_clean_linker_2, # of connection points: 2
#     Edge 25, Type (0, 0), BuildingBlock: XUDNAN_clean_linker_2, # of connection points: 2
#     Edge 26, Type (0, 0), BuildingBlock: XUDNAN_clean_linker_2, # of connection points: 2
#     Edge 27, Type (0, 0), BuildingBlock: XUDNAN_clean_linker_2, # of connection points: 2
#     Edge 28, Type (0, 0), BuildingBlock: XUDNAN_clean_linker_2, # of connection points: 2
#     Edge 29, Type (0, 0), BuildingBlock: XUDNAN_clean_linker_2, # of connection points: 2
#     Edge 30, Type (0, 0), BuildingBlock: XUDNAN_clean_linker_2, # of connection points: 2
#     Edge 31, Type (0, 0), BuildingBlock: XUDNAN_clean_linker_2, # of connection points: 2
#     Edge 32, Type (0, 0), BuildingBlock: XUDNAN_clean_linker_2, # of connection points: 2
#     Edge 33, Type (0, 0), BuildingBlock: XUDNAN_clean_linker_2, # of connection points: 2
#     Edge 34, Type (0, 0), BuildingBlock: XUDNAN_clean_linker_2, # of connection points: 2
#     Edge 35, Type (0, 0), BuildingBlock: XUDNAN_clean_linker_2, # of connection points: 2
#     Edge 36, Type (0, 0), BuildingBlock: XUDNAN_clean_linker_2, # of connection points: 2
#     Edge 37, Type (0, 0), BuildingBlock: XUDNAN_clean_linker_2, # of connection points: 2
#     Edge 38, Type (0, 0), BuildingBlock: XUDNAN_clean_linker_2, # of connection points: 2
#     Edge 39, Type (0, 0), BuildingBlock: XUDNAN_clean_linker_2, # of connection points: 2
#     Edge 40, Type (0, 0), BuildingBlock: XUDNAN_clean_linker_2, # of connection points: 2
#     Edge 41, Type (0, 0), BuildingBlock: XUDNAN_clean_linker_2, # of connection points: 2
#     Edge 42, Type (0, 0), BuildingBlock: XUDNAN_clean_linker_2, # of connection points: 2
#     Edge 43, Type (0, 0), BuildingBlock: XUDNAN_clean_linker_2, # of connection points: 2
#     Edge 44, Type (0, 0), BuildingBlock: XUDNAN_clean_linker_2, # of connection points: 2
#     Edge 45, Type (0, 0), BuildingBlock: XUDNAN_clean_linker_2, # of connection points: 2
#     Edge 46, Type (0, 0), BuildingBlock: XUDNAN_clean_linker_2, # of connection points: 2
#     Edge 47, Type (0, 0), BuildingBlock: XUDNAN_clean_linker_2, # of connection points: 2
#     Edge 48, Type (0, 0), BuildingBlock: XUDNAN_clean_linker_2, # of connection points: 2
#     Edge 49, Type (0, 0), BuildingBlock: XUDNAN_clean_linker_2, # of connection points: 2
#     Edge 50, Type (0, 0), BuildingBlock: XUDNAN_clean_linker_2, # of connection points: 2
#     Edge 51, Type (0, 0), BuildingBlock: XUDNAN_clean_linker_2, # of connection points: 2
#     Edge 52, Type (0, 0), BuildingBlock: XUDNAN_clean_linker_2, # of connection points: 2
#     Edge 53, Type (0, 0), BuildingBlock: XUDNAN_clean_linker_2, # of connection points: 2
#     Edge 54, Type (0, 0), BuildingBlock: XUDNAN_clean_linker_2, # of connection points: 2
#     Edge 55, Type (0, 0), BuildingBlock: XUDNAN_clean_linker_2, # of connection points: 2
# Relax obj value: 0.213
# Max RMSD: 0.146
# Mean RMSD: 0.146
data_MOF--net-zfy--node1-BEQFEK_clean_sbu_0--edge1-XUDNAN_clean_linker_2
_symmetry_space_group_name_H-M    P1
_symmetry_Int_Tables_number       1
_symmetry_cell_setting            triclinic
loop_
_symmetry_equiv_pos_as_xyz
'x, y, z'
_cell_length_a     55.48431
_cell_length_b     55.461821
_cell_length_c     27.305368
_cell_angle_alpha  89.953186
_cell_angle_beta   89.941576
_cell_angle_gamma 90.11294
loop_
_atom_site_label
_atom_site_type_symbol
_atom_site_fract_x
_atom_site_fract_y
_atom_site_fract_z
_atom_type_partial_charge
Co0 Co 0.32831 0.17078 0.09589 0.0
Co1 Co 0.31272 0.21212 0.02467 0.0
C2 C 0.31178 0.21637 0.13759 0.0
O3 O 0.32141 0.19577 0.14398 0.0
O4 O 0.30776 0.22454 0.09446 0.0
C5 C 0.33667 0.12976 0.16436 0.0
O6 O 0.32253 0.13944 0.19755 0.0
C7 C 0.32813 0.2561 0.97413 0.0
C8 C 0.30386 0.25688 0.91031 0.0
C9 C 0.32399 0.26797 0.93025 0.0
N10 N 0.31132 0.23877 0.97982 0.0
N11 N 0.29646 0.23979 0.94208 0.0
C12 C 0.34959 0.25906 1.00667 0.0
H13 H 0.34872 0.24639 0.0381 0.0
H14 H 0.36636 0.25593 0.98545 0.0
H15 H 0.35026 0.27789 0.02035 0.0
C16 C 0.371 0.17045 0.03345 0.0
N17 N 0.35021 0.18075 0.04769 0.0
N18 N 0.34295 0.19601 0.01403 0.0
C19 C 0.35855 0.19498 0.97586 0.0
C20 C 0.37687 0.17876 0.98709 0.0
C21 C 0.38467 0.15242 0.06323 0.0
H22 H 0.38283 0.15653 0.1028 0.0
H23 H 0.40406 0.15246 0.05314 0.0
H24 H 0.37725 0.13419 0.0562 0.0
O25 O 0.29746 0.16147 0.06597 0.0
O26 O 0.28578 0.18888 0.01169 0.0
H27 H 0.36157 0.19456 0.89708 0.0
H28 H 0.36312 0.22381 0.92475 0.0
C29 C 0.35405 0.20602 0.92668 0.0
H30 H 0.33448 0.20842 0.92049 0.0
H31 H 0.28241 0.22759 0.93611 0.0
O32 O 0.34069 0.14072 0.12438 0.0
C33 C 0.28244 0.169 0.0343 0.0
Co34 Co 0.59935 0.57437 0.34207 0.0
Co35 Co 0.55403 0.56463 0.27622 0.0
C36 C 0.55333 0.55555 0.3856 0.0
O37 O 0.57495 0.563 0.38892 0.0
O38 O 0.54247 0.55545 0.34439 0.0
C39 C 0.62781 0.58994 0.42373 0.0
O40 O 0.60804 0.5856 0.44868 0.0
C41 C 0.50729 0.57851 0.23573 0.0
C42 C 0.50569 0.55745 0.16717 0.0
C43 C 0.49339 0.5747 0.19407 0.0
N44 N 0.52684 0.5643 0.23326 0.0
N45 N 0.52563 0.5515 0.19252 0.0
C46 C 0.50366 0.59707 0.27479 0.0
H47 H 0.52076 0.60056 0.2946 0.0
H48 H 0.49677 0.6141 0.2587 0.0
H49 H 0.49022 0.59028 0.30159 0.0
C50 C 0.59917 0.62014 0.28824 0.0
N51 N 0.58804 0.59954 0.30152 0.0
N52 N 0.57007 0.59523 0.27141 0.0
C53 C 0.56991 0.61256 0.23648 0.0
C54 C 0.58839 0.62898 0.24601 0.0
C55 C 0.62056 0.63044 0.31435 0.0
H56 H 0.61753 0.62963 0.35446 0.0
H57 H 0.62382 0.64949 0.30378 0.0
H58 H 0.63675 0.61957 0.3055 0.0
O59 O 0.60914 0.54652 0.30124 0.0
O60 O 0.57723 0.53997 0.25343 0.0
H61 H 0.56356 0.62182 0.16036 0.0
H62 H 0.53698 0.61757 0.19728 0.0
C63 C 0.55549 0.61092 0.19024 0.0
H64 H 0.55442 0.59192 0.17796 0.0
H65 H 0.53886 0.53941 0.18111 0.0
O66 O 0.6282 0.58588 0.37798 0.0
C67 C 0.59855 0.53485 0.26728 0.0
Co68 Co 0.19639 0.8535 0.59352 0.0
Co69 Co 0.20442 0.80819 0.52696 0.0
C70 C 0.20854 0.80774 0.64008 0.0
O71 O 0.20107 0.82933 0.64426 0.0
O72 O 0.21036 0.79774 0.59797 0.0
C73 C 0.18694 0.89316 0.66421 0.0
O74 O 0.19136 0.87846 0.70085 0.0
C75 C 0.18052 0.76577 0.48631 0.0
C76 C 0.20561 0.75331 0.42901 0.0
C77 C 0.18304 0.74886 0.44906 0.0
N78 N 0.20036 0.77976 0.48747 0.0
N79 N 0.21542 0.77207 0.4534 0.0
C80 C 0.15998 0.76834 0.5215 0.0
H81 H 0.16633 0.77671 0.55609 0.0
H82 H 0.14604 0.78026 0.50549 0.0
H83 H 0.15167 0.75051 0.52923 0.0
C84 C 0.15318 0.85828 0.53336 0.0
N85 N 0.1721 0.84515 0.54864 0.0
N86 N 0.17661 0.82815 0.51653 0.0
C87 C 0.16145 0.831 0.47807 0.0
C88 C 0.14588 0.85009 0.48782 0.0
C89 C 0.14425 0.88052 0.55838 0.0
H90 H 0.14459 0.87802 0.59866 0.0
H91 H 0.1256 0.88486 0.54664 0.0
H92 H 0.1561 0.89586 0.54835 0.0
O93 O 0.22796 0.85699 0.56057 0.0
O94 O 0.23396 0.82676 0.50822 0.0
H95 H 0.15886 0.83075 0.39918 0.0
H96 H 0.15303 0.80241 0.42854 0.0
C97 C 0.16454 0.81876 0.42962 0.0
H98 H 0.18358 0.81334 0.42422 0.0
H99 H 0.23206 0.78003 0.44585 0.0
O100 O 0.18867 0.88561 0.62046 0.0
C101 C 0.24077 0.84637 0.52848 0.0
Co102 Co 0.92321 0.44495 0.84139 0.0
Co103 Co 0.96043 0.45721 0.75795 0.0
C104 C 0.97058 0.46508 0.86776 0.0
O105 O 0.95039 0.45674 0.88283 0.0
O106 O 0.97591 0.46527 0.82217 0.0
C107 C 0.88348 0.43482 0.91678 0.0
O108 O 0.89163 0.4498 0.95012 0.0
C109 C 1.00171 0.44246 0.69664 0.0
C110 C 0.99742 0.46676 0.63319 0.0
C111 C 0.0105 0.44711 0.64981 0.0
N112 N 0.98398 0.45833 0.70649 0.0
N113 N 0.98196 0.47315 0.66884 0.0
C114 C 1.00805 0.42172 0.72922 0.0
H115 H 0.99476 0.41982 0.75936 0.0
H116 H 0.00902 0.40477 0.70772 0.0
H117 H 0.02608 0.42499 0.74548 0.0
C118 C 0.92307 0.39829 0.78957 0.0
N119 N 0.93241 0.42049 0.79647 0.0
N120 N 0.94516 0.42654 0.75779 0.0
C121 C 0.94314 0.40894 0.72383 0.0
C122 C 0.92916 0.39035 0.74301 0.0
C123 C 0.90871 0.38474 0.82695 0.0
H124 H 0.91389 0.39039 0.86446 0.0
H125 H 0.91156 0.36503 0.82291 0.0
H126 H 0.88934 0.3884 0.82129 0.0
O127 O 0.91025 0.47332 0.80539 0.0
O128 O 0.93619 0.48252 0.74614 0.0
H129 H 0.95209 0.43078 0.66111 0.0
H130 H 0.93798 0.40231 0.64671 0.0
C131 C 0.95089 0.4115 0.67152 0.0
H132 H 0.96876 0.40294 0.66656 0.0
H133 H 0.969 0.48669 0.66621 0.0
O134 O 0.8948 0.43204 0.87674 0.0
C135 C 0.91673 0.48653 0.76948 0.0
Co136 Co 0.69463 0.85356 0.91369 0.0
Co137 Co 0.70234 0.80708 0.97838 0.0
C138 C 0.71326 0.80829 0.86905 0.0
O139 O 0.70598 0.82996 0.86546 0.0
O140 O 0.71247 0.79711 0.90996 0.0
C141 C 0.68886 0.88853 0.83606 0.0
O142 O 0.7028 0.87389 0.81108 0.0
C143 C 0.68073 0.76287 0.0166 0.0
C144 C 0.7026 0.75516 0.08216 0.0
C145 C 0.682 0.74789 0.05741 0.0
N146 N 0.6992 0.77861 0.0181 0.0
N147 N 0.71248 0.77362 0.05693 0.0
C148 C 0.66238 0.76243 0.97644 0.0
H149 H 0.67047 0.76922 0.94187 0.0
H150 H 0.64712 0.77442 0.98593 0.0
H151 H 0.65531 0.74389 0.97106 0.0
C152 C 0.6476 0.85261 0.96244 0.0
N153 N 0.66859 0.8418 0.95116 0.0
N154 N 0.67269 0.82429 0.98242 0.0
C155 C 0.65523 0.82457 0.01696 0.0
C156 C 0.63847 0.84224 1.00496 0.0
C157 C 0.6371 0.87312 0.93393 0.0
H158 H 0.64016 0.87026 0.89421 0.0
H159 H 0.61745 0.8748 0.94066 0.0
H160 H 0.64614 0.89014 0.94487 0.0
O161 O 0.72248 0.86134 0.95726 0.0
O162 O 0.72767 0.82876 1.00423 0.0
H163 H 0.64961 0.82372 0.09526 0.0
H164 H 0.6473 0.79511 0.06519 0.0
C165 C 0.65738 0.81237 0.06578 0.0
H166 H 0.67651 0.8088 0.07463 0.0
H167 H 0.72756 0.78357 0.0676 0.0
O168 O 0.68393 0.88358 0.88034 0.0
C169 C 0.73362 0.85008 0.99118 0.0
Co170 Co 0.41816 0.44928 0.6744 0.0
Co171 Co 0.45767 0.45582 0.75523 0.0
C172 C 0.46554 0.4669 0.64493 0.0
O173 O 0.44475 0.46006 0.63062 0.0
O174 O 0.47148 0.46565 0.69008 0.0
C175 C 0.38023 0.43976 0.59693 0.0
O176 O 0.39467 0.4449 0.56021 0.0
C177 C 0.50019 0.43297 0.79631 0.0
C178 C 0.50632 0.45257 0.86547 0.0
C179 C 0.51444 0.43313 0.8381 0.0
N180 N 0.48411 0.45102 0.79938 0.0
N181 N 0.48804 0.46289 0.84057 0.0
C182 C 0.50196 0.41626 0.75341 0.0
H183 H 0.49528 0.42527 0.71979 0.0
H184 H 0.49058 0.40013 0.75993 0.0
H185 H 0.52085 0.41027 0.748 0.0
C186 C 0.41514 0.40093 0.71927 0.0
N187 N 0.4261 0.42253 0.71436 0.0
N188 N 0.44006 0.42629 0.75242 0.0
C189 C 0.43746 0.4077 0.78409 0.0
C190 C 0.42181 0.39085 0.76378 0.0
C191 C 0.3962 0.39162 0.68516 0.0
H192 H 0.37873 0.40008 0.69461 0.0
H193 H 0.40089 0.39634 0.64684 0.0
H194 H 0.39406 0.37181 0.68824 0.0
O195 O 0.40901 0.47659 0.71714 0.0
O196 O 0.43581 0.48239 0.77653 0.0
H197 H 0.45117 0.42541 0.84842 0.0
H198 H 0.43662 0.39681 0.8602 0.0
C199 C 0.44827 0.4069 0.83432 0.0
H200 H 0.46583 0.39745 0.83273 0.0
H201 H 0.47776 0.47749 0.85246 0.0
O202 O 0.38785 0.44114 0.64063 0.0
C203 C 0.41626 0.48803 0.7548 0.0
Co204 Co 0.82741 0.16883 0.41111 0.0
Co205 Co 0.81718 0.20443 0.49847 0.0
C206 C 0.80567 0.2161 0.39082 0.0
O207 O 0.81435 0.19665 0.37333 0.0
O208 O 0.80618 0.22026 0.43674 0.0
C209 C 0.82454 0.12708 0.34872 0.0
O210 O 0.80117 0.12978 0.35424 0.0
C211 C 0.83607 0.24721 0.54501 0.0
C212 C 0.81891 0.24769 0.61789 0.0
C213 C 0.8364 0.2591 0.58975 0.0
N214 N 0.81981 0.22925 0.5471 0.0
N215 N 0.80925 0.22986 0.5905 0.0
C216 C 0.85127 0.25237 0.50084 0.0
H217 H 0.84125 0.24785 0.46698 0.0
H218 H 0.86767 0.24098 0.50177 0.0
H219 H 0.8568 0.27161 0.49986 0.0
C220 C 0.87488 0.16681 0.45918 0.0
N221 N 0.853 0.177 0.45373 0.0
N222 N 0.84799 0.18978 0.49294 0.0
C223 C 0.86616 0.18735 0.52546 0.0
C224 C 0.8839 0.17298 0.50484 0.0
C225 C 0.88504 0.14833 0.42511 0.0
H226 H 0.87507 0.13115 0.43025 0.0
H227 H 0.88274 0.15436 0.38666 0.0
H228 H 0.90441 0.14497 0.43227 0.0
O229 O 0.80083 0.15512 0.45126 0.0
O230 O 0.79298 0.17908 0.51478 0.0
H231 H 0.84688 0.19571 0.59159 0.0
H232 H 0.87766 0.18635 0.60143 0.0
C233 C 0.8655 0.19661 0.57699 0.0
H234 H 0.87163 0.21562 0.57738 0.0
H235 H 0.79632 0.21745 0.60226 0.0
O236 O 0.83872 0.14252 0.36747 0.0
C237 C 0.78889 0.15997 0.48998 0.0
Co238 Co 0.10257 0.56839 0.17226 0.0
Co239 Co 0.05641 0.55975 0.23653 0.0
C240 C 0.05409 0.55574 0.12785 0.0
O241 O 0.07648 0.56052 0.12592 0.0
O242 O 0.04288 0.55582 0.16862 0.0
C243 C 0.12449 0.59592 0.09993 0.0
O244 O 0.10184 0.60231 0.09484 0.0
C245 C 0.01043 0.57352 0.27981 0.0
C246 C 0.00971 0.55302 0.34917 0.0
C247 C 0.99709 0.57008 0.32237 0.0
N248 N 0.02999 0.5593 0.2816 0.0
N249 N 0.0293 0.54682 0.32282 0.0
C250 C 1.00637 0.59192 0.24057 0.0
H251 H 0.02347 0.5959 0.22099 0.0
H252 H 0.99893 0.60878 0.25637 0.0
H253 H 0.99324 0.58469 0.21369 0.0
C254 C 0.10622 0.61187 0.23461 0.0
N255 N 0.0941 0.59224 0.21883 0.0
N256 N 0.07521 0.58859 0.24707 0.0
C257 C 0.07502 0.60573 0.28241 0.0
C258 C 0.09465 0.62108 0.27564 0.0
C259 C 0.12838 0.62171 0.21028 0.0
H260 H 0.14204 0.60726 0.20652 0.0
H261 H 0.12349 0.62821 0.17329 0.0
H262 H 0.1363 0.6372 0.2301 0.0
O263 O 0.11099 0.53801 0.20619 0.0
O264 O 0.07689 0.53073 0.24723 0.0
H265 H 0.05642 0.58714 0.33999 0.0
H266 H 0.06492 0.61755 0.35524 0.0
C267 C 0.05829 0.60569 0.32545 0.0
H268 H 0.04031 0.61215 0.31368 0.0
H269 H 0.04268 0.53481 0.33387 0.0
O270 O 0.12984 0.58018 0.13197 0.0
C271 C 0.09806 0.52462 0.23371 0.0
Co272 Co 0.82035 0.66924 0.59973 0.0
Co273 Co 0.81351 0.70691 0.51493 0.0
C274 C 0.80799 0.72 0.62239 0.0
O275 O 0.81448 0.69935 0.63785 0.0
O276 O 0.80718 0.72457 0.57673 0.0
C277 C 0.84785 0.64129 0.66871 0.0
O278 O 0.86423 0.65819 0.6627 0.0
C279 C 0.82763 0.75166 0.46681 0.0
C280 C 0.81584 0.74637 0.39035 0.0
C281 C 0.82812 0.76218 0.42074 0.0
N282 N 0.81575 0.73056 0.46384 0.0
N283 N 0.80839 0.72767 0.41818 0.0
C284 C 0.84096 0.75983 0.51147 0.0
H285 H 0.84587 0.74413 0.53458 0.0
H286 H 0.8575 0.76996 0.50128 0.0
H287 H 0.82914 0.77191 0.53314 0.0
C288 C 0.86159 0.6554 0.53509 0.0
N289 N 0.84433 0.67108 0.54953 0.0
N290 N 0.84237 0.68817 0.5163 0.0
C291 C 0.85916 0.6846 0.48122 0.0
C292 C 0.87172 0.66359 0.4916 0.0
C293 C 0.86479 0.63064 0.5561 0.0
H294 H 0.84765 0.624 0.57201 0.0
H295 H 0.87883 0.63125 0.5849 0.0
H296 H 0.87076 0.61765 0.52771 0.0
O297 O 0.78958 0.661 0.56898 0.0
O298 O 0.78494 0.68516 0.50439 0.0
H299 H 0.84682 0.69744 0.41179 0.0
H300 H 0.87924 0.69602 0.41718 0.0
C301 C 0.86227 0.70019 0.4369 0.0
H302 H 0.86289 0.71935 0.44805 0.0
H303 H 0.7992 0.71246 0.40557 0.0
O304 O 0.82787 0.64295 0.64631 0.0
C305 C 0.77759 0.66797 0.53186 0.0
Co306 Co 0.10222 0.07784 0.84934 0.0
Co307 Co 0.05794 0.06769 0.78098 0.0
C308 C 0.05556 0.05893 0.89006 0.0
O309 O 0.07707 0.06661 0.89479 0.0
O310 O 0.04531 0.05869 0.8482 0.0
C311 C 0.13711 0.0817 0.92793 0.0
O312 O 0.12545 0.06352 0.94785 0.0
C313 C 0.01339 0.08108 0.72917 0.0
C314 C 0.01695 0.05929 0.66203 0.0
C315 C 1.00336 0.07741 0.68324 0.0
N316 N 0.03227 0.06611 0.73438 0.0
N317 N 0.03374 0.05254 0.69474 0.0
C318 C 1.00702 0.1005 0.76489 0.0
H319 H 0.02168 0.10305 0.79204 0.0
H320 H 1.00326 0.11769 0.74551 0.0
H321 H 0.99031 0.09518 0.78454 0.0
C322 C 0.10377 0.12259 0.79273 0.0
N323 N 0.09168 0.10268 0.80701 0.0
N324 N 0.0739 0.09842 0.77633 0.0
C325 C 0.07479 0.11521 0.74029 0.0
C326 C 0.0936 0.13118 0.74979 0.0
C327 C 0.12735 0.13031 0.81437 0.0
H328 H 0.14077 0.11571 0.80937 0.0
H329 H 0.12501 0.13346 0.8542 0.0
H330 H 0.13445 0.147 0.79723 0.0
O331 O 0.11327 0.04986 0.81023 0.0
O332 O 0.08198 0.04328 0.76087 0.0
H333 H 0.06023 0.09542 0.67957 0.0
H334 H 0.06738 0.12645 0.66546 0.0
C335 C 0.06036 0.11408 0.69399 0.0
H336 H 0.04165 0.11967 0.70182 0.0
H337 H 0.04742 0.04005 0.68832 0.0
O338 O 0.13007 0.09001 0.8871 0.0
C339 C 0.10312 0.03819 0.77578 0.0
Co340 Co 0.698 0.35094 0.0932 0.0
Co341 Co 0.70566 0.3044 0.03049 0.0
C342 C 0.71381 0.30633 0.14175 0.0
O343 O 0.70695 0.32818 0.14505 0.0
O344 O 0.71392 0.29538 0.10054 0.0
C345 C 0.68741 0.39155 0.16154 0.0
O346 O 0.69455 0.3786 0.19911 0.0
C347 C 0.68784 0.25822 0.99079 0.0
C348 C 0.71667 0.24884 0.93834 0.0
C349 C 0.69469 0.24107 0.95659 0.0
N350 N 0.70489 0.27551 0.99228 0.0
N351 N 0.72209 0.26973 0.96091 0.0
C352 C 0.66635 0.25733 0.02387 0.0
H353 H 0.66705 0.27213 0.05118 0.0
H354 H 0.6496 0.25889 1.00204 0.0
H355 H 0.66575 0.23965 0.04293 0.0
C356 C 0.65133 0.35032 0.04251 0.0
N357 N 0.67222 0.33941 0.05409 0.0
N358 N 0.67611 0.32161 0.0234 0.0
C359 C 0.65851 0.3217 0.98911 0.0
C360 C 0.6421 0.33991 1.00023 0.0
C361 C 0.64054 0.37055 0.0713 0.0
H362 H 0.64436 0.36811 0.11085 0.0
H363 H 0.62073 0.3714 0.06584 0.0
H364 H 0.6486 0.3878 0.05898 0.0
O365 O 0.72708 0.35743 0.05255 0.0
O366 O 0.7318 0.32517 1.00521 0.0
H367 H 0.6528 0.31901 0.91125 0.0
H368 H 0.64823 0.29161 0.94482 0.0
C369 C 0.65971 0.30792 0.94203 0.0
H370 H 0.67848 0.30245 0.93387 0.0
H371 H 0.73749 0.28011 0.95473 0.0
O372 O 0.68825 0.38273 0.11869 0.0
C373 C 0.73834 0.3461 0.01906 0.0
Co374 Co 0.41682 0.94611 0.35623 0.0
Co375 Co 0.45664 0.94802 0.27463 0.0
C376 C 0.46535 0.96498 0.37974 0.0
O377 O 0.44449 0.95904 0.39531 0.0
O378 O 0.47142 0.96119 0.33537 0.0
C379 C 0.39009 0.93144 0.4428 0.0
O380 O 0.41119 0.93099 0.46458 0.0
C381 C 0.49978 0.92773 0.2295 0.0
C382 C 0.50048 0.94555 0.15715 0.0
C383 C 0.512 0.9282 0.18515 0.0
N384 N 0.48158 0.94363 0.22737 0.0
N385 N 0.4823 0.95451 0.18431 0.0
C386 C 0.50555 0.9129 0.27382 0.0
H387 H 0.49955 0.92235 0.30747 0.0
H388 H 0.4959 0.89542 0.27205 0.0
H389 H 0.52519 0.90921 0.27573 0.0
C390 C 0.41193 0.89643 0.31654 0.0
N391 N 0.42408 0.91749 0.31989 0.0
N392 N 0.43965 0.91878 0.2836 0.0
C393 C 0.43716 0.8991 0.25486 0.0
C394 C 0.4198 0.88414 0.27532 0.0
C395 C 0.39057 0.88996 0.34738 0.0
H396 H 0.37625 0.90357 0.34164 0.0
H397 H 0.39586 0.89004 0.3865 0.0
H398 H 0.38314 0.87197 0.3381 0.0
O399 O 0.40627 0.97203 0.31021 0.0
O400 O 0.43371 0.97207 0.25056 0.0
H401 H 0.44987 0.91365 0.18656 0.0
H402 H 0.43926 0.88292 0.18254 0.0
C403 C 0.44896 0.89607 0.20583 0.0
H404 H 0.46749 0.8892 0.21087 0.0
H405 H 0.46991 0.96746 0.17284 0.0
O406 O 0.38878 0.93859 0.39869 0.0
C407 C 0.41439 0.98014 0.26965 0.0
Co408 Co 0.19953 0.35419 0.40326 0.0
Co409 Co 0.1993 0.31573 0.48764 0.0
C410 C 0.21676 0.30397 0.3853 0.0
O411 O 0.21157 0.32486 0.36919 0.0
O412 O 0.21268 0.29829 0.4298 0.0
C413 C 0.17791 0.37346 0.31927 0.0
O414 O 0.17023 0.35108 0.31631 0.0
C415 C 0.18332 0.27131 0.53581 0.0
C416 C 0.19159 0.27842 0.61357 0.0
C417 C 0.18116 0.26157 0.5826 0.0
N418 N 0.19431 0.29286 0.53923 0.0
N419 N 0.19951 0.29688 0.58573 0.0
C420 C 0.17277 0.26188 0.48916 0.0
H421 H 0.17009 0.27679 0.4626 0.0
H422 H 0.15531 0.2527 0.49624 0.0
H423 H 0.18541 0.24868 0.47274 0.0
C424 C 0.15056 0.36293 0.44451 0.0
N425 N 0.17073 0.34944 0.44078 0.0
N426 N 0.17016 0.33258 0.47472 0.0
C427 C 0.14939 0.33456 0.5004 0.0
C428 C 0.13625 0.35378 0.48187 0.0
C429 C 0.14682 0.38658 0.41908 0.0
H430 H 0.16426 0.39591 0.41345 0.0
H431 H 0.13812 0.38327 0.3832 0.0
H432 H 0.1349 0.39862 0.44061 0.0
O433 O 0.22537 0.36591 0.44707 0.0
O434 O 0.22383 0.33968 0.50901 0.0
H435 H 0.15622 0.32225 0.57331 0.0
H436 H 0.12458 0.32345 0.55763 0.0
C437 C 0.14288 0.31931 0.54369 0.0
H438 H 0.14333 0.30007 0.53305 0.0
H439 H 0.20772 0.31256 0.59863 0.0
O440 O 0.19277 0.3789 0.35289 0.0
C441 C 0.23272 0.35842 0.4886 0.0
Co442 Co 0.92167 0.94268 0.16826 0.0
Co443 Co 0.95917 0.95568 0.2504 0.0
C444 C 0.96782 0.96396 0.13969 0.0
O445 O 0.94807 0.95482 0.12441 0.0
O446 O 0.97271 0.9645 0.18531 0.0
C447 C 0.88075 0.93473 0.09495 0.0
O448 O 0.88891 0.9503 0.06265 0.0
C449 C 1.00418 0.93996 0.29574 0.0
C450 C 0.00971 0.96617 0.3554 0.0
C451 C 0.01964 0.94592 0.3336 0.0
N452 N 0.98569 0.95564 0.29552 0.0
N453 N 0.98912 0.97132 0.3313 0.0
C454 C 1.00757 0.92035 0.25881 0.0
H455 H 0.99469 0.92239 0.22802 0.0
H456 H 1.00464 0.90258 0.27656 0.0
H457 H 0.02635 0.92069 0.24477 0.0
C458 C 0.92083 0.89676 0.22398 0.0
N459 N 0.93134 0.91813 0.21336 0.0
N460 N 0.94471 0.92472 0.25074 0.0
C461 C 0.94221 0.90842 0.28711 0.0
C462 C 0.92676 0.89016 0.27163 0.0
C463 C 0.90232 0.88473 0.19254 0.0
H464 H 0.90481 0.88971 0.1536 0.0
H465 H 0.90365 0.86486 0.19559 0.0
H466 H 0.88416 0.89001 0.20541 0.0
O467 O 0.90935 0.97043 0.20652 0.0
O468 O 0.93435 0.98043 0.26685 0.0
H469 H 0.94995 0.9308 0.34933 0.0
H470 H 0.94403 0.89945 0.36467 0.0
C471 C 0.95232 0.9118 0.33755 0.0
H472 H 0.97187 0.90788 0.3369 0.0
H473 H 0.97751 0.98557 0.33912 0.0
O474 O 0.89245 0.93076 0.13411 0.0
C475 C 0.91477 0.9836 0.24314 0.0
Co476 Co 0.31395 0.67032 0.9191 0.0
Co477 Co 0.31162 0.71234 0.99632 0.0
C478 C 0.30412 0.72276 0.89098 0.0
O479 O 0.30645 0.70048 0.88008 0.0
O480 O 0.30748 0.73014 0.93464 0.0
C481 C 0.34273 0.64137 0.85383 0.0
O482 O 0.35905 0.65821 0.86091 0.0
C483 C 0.32642 0.75345 0.05928 0.0
C484 C 0.30834 0.74319 0.12835 0.0
C485 C 0.32457 0.75953 0.10856 0.0
N486 N 0.31248 0.73394 0.05102 0.0
N487 N 0.30117 0.72845 0.09214 0.0
C488 C 0.34331 0.764 0.02223 0.0
H489 H 0.34527 0.75174 0.99036 0.0
H490 H 0.36119 0.76755 0.03897 0.0
H491 H 0.33596 0.78148 0.00933 0.0
C492 C 0.35512 0.65655 0.98312 0.0
N493 N 0.33886 0.67293 0.96721 0.0
N494 N 0.33895 0.69148 0.99729 0.0
C495 C 0.35608 0.68793 0.03172 0.0
C496 C 0.36678 0.66568 0.02398 0.0
C497 C 0.35582 0.63073 0.96698 0.0
H498 H 0.33823 0.62518 0.95147 0.0
H499 H 0.37019 0.6285 0.93914 0.0
H500 H 0.36015 0.61862 0.99813 0.0
O501 O 0.28403 0.66155 0.95367 0.0
O502 O 0.28166 0.69291 1.0044 0.0
H503 H 0.34567 0.70509 0.09863 0.0
H504 H 0.37761 0.69935 0.09379 0.0
C505 C 0.36125 0.70473 0.07323 0.0
H506 H 0.36439 0.72304 0.05864 0.0
H507 H 0.28977 0.7136 0.09631 0.0
O508 O 0.32201 0.64367 0.87326 0.0
C509 C 0.27307 0.67345 0.9867 0.0
Co510 Co 0.60106 0.07822 0.66136 0.0
Co511 Co 0.55944 0.06509 0.73436 0.0
C512 C 0.55443 0.06219 0.62237 0.0
O513 O 0.57508 0.07152 0.61508 0.0
O514 O 0.54655 0.05875 0.66581 0.0
C515 C 0.64286 0.07516 0.60001 0.0
O516 O 0.63591 0.05267 0.59438 0.0
C517 C 0.51668 0.08613 0.77628 0.0
C518 C 0.509 0.06421 0.84188 0.0
C519 C 0.50188 0.08497 0.81736 0.0
N520 N 0.53212 0.06749 0.77729 0.0
N521 N 0.52725 0.0542 0.81626 0.0
C522 C 0.51662 0.1047 0.73645 0.0
H523 H 0.52324 0.09677 0.70171 0.0
H524 H 0.52899 0.11963 0.74645 0.0
H525 H 0.49824 0.11211 0.73101 0.0
C526 C 0.60594 0.11978 0.72566 0.0
N527 N 0.59294 0.10097 0.7091 0.0
N528 N 0.57708 0.09463 0.74242 0.0
C529 C 0.58012 0.10886 0.78216 0.0
C530 C 0.59838 0.12543 0.77266 0.0
C531 C 0.62812 0.12923 0.70095 0.0
H532 H 0.64283 0.11581 0.70463 0.0
H533 H 0.62447 0.13206 0.66143 0.0
H534 H 0.6341 0.1465 0.71753 0.0
O535 O 0.60914 0.04743 0.69379 0.0
O536 O 0.58162 0.03752 0.74988 0.0
H537 H 0.5677 0.08396 0.83702 0.0
H538 H 0.58021 0.11165 0.86133 0.0
C539 C 0.5693 0.1037 0.83135 0.0
H540 H 0.55103 0.11173 0.83305 0.0
H541 H 0.53703 0.03896 0.82654 0.0
O542 O 0.63013 0.08926 0.62587 0.0
C543 C 0.60124 0.03319 0.72685 0.0
H544 H 0.46048 0.07684 0.86974 0.0
H545 H 0.50479 0.1345 0.81078 0.0
H546 H 0.47622 0.16448 0.84247 0.0
H547 H 0.40209 0.10498 0.84937 0.0
H548 H 0.38965 0.09431 0.90643 0.0
H549 H 0.41271 0.07715 0.87577 0.0
H550 H 0.43894 0.07841 0.95422 0.0
H551 H 0.41599 0.0956 0.98505 0.0
H552 H 0.44633 0.10713 0.98132 0.0
H553 H 0.4432 0.18864 0.88305 0.0
H554 H 0.40949 0.20462 0.93315 0.0
H555 H 0.38734 0.13154 0.96745 0.0
C556 C 0.464 0.09577 0.863 0.0
C557 C 0.48441 0.10316 0.83577 0.0
C558 C 0.48869 0.12816 0.82897 0.0
C559 C 0.47267 0.14544 0.84752 0.0
C560 C 0.45255 0.13754 0.87348 0.0
C561 C 0.44824 0.11329 0.88153 0.0
C562 C 0.42592 0.10963 0.91272 0.0
C563 C 0.40644 0.09569 0.88436 0.0
C564 C 0.43218 0.09694 0.96119 0.0
C565 C 0.41851 0.13558 0.92124 0.0
C566 C 0.43399 0.15144 0.89805 0.0
C567 C 0.43094 0.17637 0.90131 0.0
C568 C 0.41175 0.1853 0.92962 0.0
C569 C 0.39607 0.16933 0.95451 0.0
C570 C 0.39934 0.14418 0.94951 0.0
H571 H 0.63513 0.63653 0.21676 0.0
H572 H 0.56276 0.66474 0.20069 0.0
H573 H 0.57843 0.69684 0.1459 0.0
H574 H 0.66425 0.69416 0.22448 0.0
H575 H 0.69084 0.68449 0.19207 0.0
H576 H 0.67352 0.66305 0.22706 0.0
H577 H 0.66903 0.63624 0.14991 0.0
H578 H 0.68617 0.65771 0.11455 0.0
H579 H 0.65644 0.64892 0.09479 0.0
H580 H 0.60243 0.72645 0.09472 0.0
H581 H 0.63264 0.75251 0.05507 0.0
H582 H 0.68974 0.70591 0.10766 0.0
C583 C 0.62259 0.64961 0.20219 0.0
C584 C 0.59771 0.64828 0.21321 0.0
C585 C 0.58185 0.66542 0.19247 0.0
C586 C 0.5906 0.68368 0.16142 0.0
C587 C 0.61529 0.68459 0.15171 0.0
C588 C 0.63107 0.6681 0.1718 0.0
C589 C 0.6569 0.67362 0.15747 0.0
C590 C 0.67228 0.67917 0.20297 0.0
C591 C 0.66777 0.65289 0.12738 0.0
C592 C 0.65326 0.69591 0.12626 0.0
C593 C 0.62911 0.70178 0.12293 0.0
C594 C 0.62135 0.72185 0.09666 0.0
C595 C 0.6387 0.73644 0.07365 0.0
C596 C 0.66359 0.73095 0.07706 0.0
C597 C 0.67084 0.71038 0.10381 0.0
H598 H 0.10039 0.84162 0.45126 0.0
H599 H 0.15983 0.89233 0.44766 0.0
H600 H 0.13472 0.92132 0.40182 0.0
H601 H 0.07559 0.85763 0.32693 0.0
H602 H 0.04486 0.8541 0.34718 0.0
H603 H 0.06838 0.83611 0.37427 0.0
H604 H 0.0559 0.85132 0.46024 0.0
H605 H 0.03256 0.86954 0.43347 0.0
H606 H 0.05506 0.88329 0.47203 0.0
H607 H 0.10181 0.94699 0.36844 0.0
H608 H 0.06396 0.96631 0.34101 0.0
H609 H 0.02588 0.89874 0.36093 0.0
C610 C 0.10824 0.85851 0.43919 0.0
C611 C 0.13205 0.86477 0.45234 0.0
C612 C 0.14167 0.88723 0.43732 0.0
C613 C 0.12754 0.90379 0.41144 0.0
C614 C 0.10385 0.89752 0.4003 0.0
C615 C 0.09434 0.87526 0.4128 0.0
C616 C 0.06791 0.87371 0.39859 0.0
C617 C 0.06396 0.85423 0.3594 0.0
C618 C 0.05193 0.8692 0.44378 0.0
C619 C 0.06394 0.89878 0.37771 0.0
C620 C 0.08494 0.9122 0.37914 0.0
C621 C 0.08539 0.93651 0.36597 0.0
C622 C 0.06385 0.94736 0.35068 0.0
C623 C 0.04228 0.93386 0.34801 0.0
C624 C 0.04236 0.90923 0.36139 0.0
H625 H 0.88234 0.37444 0.73886 0.0
H626 H 0.95445 0.35828 0.68731 0.0
H627 H 0.93853 0.32301 0.64201 0.0
H628 H 0.86333 0.31251 0.75711 0.0
H629 H 0.8329 0.31807 0.73707 0.0
H630 H 0.85008 0.34189 0.76526 0.0
H631 H 0.84269 0.36901 0.68951 0.0
H632 H 0.82561 0.34524 0.66092 0.0
H633 H 0.8511 0.3583 0.62957 0.0
H634 H 0.91477 0.28952 0.60307 0.0
H635 H 0.8851 0.2601 0.57278 0.0
H636 H 0.82814 0.29788 0.64978 0.0
C637 C 0.89486 0.36323 0.7188 0.0
C638 C 0.9197 0.36888 0.71695 0.0
C639 C 0.93537 0.35423 0.68903 0.0
C640 C 0.92649 0.33416 0.66338 0.0
C641 C 0.9019 0.32905 0.66607 0.0
C642 C 0.8863 0.34313 0.69313 0.0
C643 C 0.86062 0.33384 0.68966 0.0
C644 C 0.85118 0.32611 0.74029 0.0
C645 C 0.84403 0.35272 0.666 0.0
C646 C 0.86419 0.3123 0.65633 0.0
C647 C 0.88814 0.30992 0.64313 0.0
C648 C 0.89594 0.29138 0.61271 0.0
C649 C 0.87884 0.27489 0.59514 0.0
C650 C 0.85414 0.27711 0.6076 0.0
C651 C 0.84685 0.29592 0.63915 0.0
H652 H 0.62595 0.889 0.02683 0.0
H653 H 0.60525 0.81464 0.05316 0.0
H654 H 0.57216 0.82851 0.10698 0.0
H655 H 0.61222 0.91275 0.14514 0.0
H656 H 0.6001 0.94065 0.12201 0.0
H657 H 0.62293 0.92488 0.08781 0.0
H658 H 0.59511 0.92381 0.01166 0.0
H659 H 0.57231 0.93985 0.04539 0.0
H660 H 0.56519 0.91135 0.01716 0.0
H661 H 0.5414 0.85064 0.15778 0.0
H662 H 0.51289 0.87921 0.19567 0.0
H663 H 0.55186 0.9391 0.13081 0.0
C664 C 0.61422 0.8756 0.04308 0.0
C665 C 0.61807 0.8507 0.03558 0.0
C666 C 0.6027 0.83379 0.0588 0.0
C667 C 0.58388 0.8415 0.08931 0.0
C668 C 0.58054 0.8662 0.09577 0.0
C669 C 0.59509 0.88299 0.07278 0.0
C670 C 0.58702 0.90848 0.08388 0.0
C671 C 0.60674 0.92251 0.11135 0.0
C672 C 0.57945 0.92164 0.03672 0.0
C673 C 0.56558 0.90342 0.11666 0.0
C674 C 0.56238 0.87893 0.12369 0.0
C675 C 0.54379 0.86985 0.15271 0.0
C676 C 0.52784 0.88623 0.17452 0.0
C677 C 0.53048 0.91134 0.16683 0.0
C678 C 0.54961 0.91998 0.13757 0.0
H679 H 0.33658 0.31539 0.94502 0.0
H680 H 0.35035 0.25351 0.85249 0.0
H681 H 0.37933 0.27752 0.80364 0.0
H682 H 0.33703 0.35857 0.84791 0.0
H683 H 0.35117 0.38212 0.8832 0.0
H684 H 0.33312 0.35956 0.91344 0.0
H685 H 0.36914 0.34904 0.96983 0.0
H686 H 0.38734 0.37152 0.93955 0.0
H687 H 0.39762 0.34075 0.94289 0.0
H688 H 0.40568 0.30838 0.76325 0.0
H689 H 0.42596 0.3449 0.73089 0.0
H690 H 0.39374 0.38758 0.84641 0.0
C691 C 0.34594 0.30697 0.91473 0.0
C692 C 0.34149 0.28266 0.90242 0.0
C693 C 0.35367 0.27215 0.86228 0.0
C694 C 0.37018 0.2856 0.83454 0.0
C695 C 0.37413 0.30962 0.84719 0.0
C696 C 0.36225 0.32032 0.88608 0.0
C697 C 0.36866 0.34688 0.88975 0.0
C698 C 0.34616 0.36271 0.88317 0.0
C699 C 0.38145 0.35236 0.9384 0.0
C700 C 0.3858 0.34944 0.84668 0.0
C701 C 0.38891 0.32765 0.82303 0.0
C702 C 0.40347 0.32552 0.7816 0.0
C703 C 0.4149 0.34628 0.76349 0.0
C704 C 0.41158 0.36884 0.78652 0.0
C705 C 0.39696 0.37039 0.82881 0.0
H706 H 0.95498 0.08735 0.69092 0.0
H707 H 0.01995 0.10642 0.61155 0.0
H708 H 0.99678 0.13491 0.56042 0.0
H709 H 0.91643 0.08734 0.58682 0.0
H710 H 0.89071 0.09967 0.61838 0.0
H711 H 0.91267 0.08231 0.65163 0.0
H712 H 0.91884 0.11788 0.71186 0.0
H713 H 0.89689 0.13536 0.67872 0.0
H714 H 0.92679 0.1472 0.68825 0.0
H715 H 0.96659 0.1598 0.5156 0.0
H716 H 0.93067 0.17901 0.47849 0.0
H717 H 0.88486 0.14285 0.58419 0.0
C718 C 0.96422 0.0978 0.66311 0.0
C719 C 0.98914 0.09493 0.65497 0.0
C720 C 1.0008 0.10852 0.61803 0.0
C721 C 0.98783 0.12475 0.58901 0.0
C722 C 0.96318 0.12704 0.59729 0.0
C723 C 0.95142 0.11393 0.63329 0.0
C724 C 0.92456 0.11884 0.6325 0.0
C725 C 0.91026 0.09566 0.62167 0.0
C726 C 0.91629 0.13052 0.6807 0.0
C727 C 0.9231 0.13651 0.59021 0.0
C728 C 0.94563 0.14117 0.57076 0.0
C729 C 0.94885 0.15646 0.53072 0.0
C730 C 0.92846 0.16724 0.50987 0.0
C731 C 0.90527 0.16258 0.52903 0.0
C732 C 0.90255 0.14703 0.56963 0.0
H733 H 0.13941 0.62819 0.31578 0.0
H734 H 0.06809 0.65957 0.30699 0.0
H735 H 0.08215 0.69461 0.35563 0.0
H736 H 0.15513 0.64927 0.43789 0.0
H737 H 0.18603 0.65547 0.42166 0.0
H738 H 0.16967 0.63196 0.39049 0.0
H739 H 0.17915 0.6521 0.30699 0.0
H740 H 0.19555 0.67564 0.33784 0.0
H741 H 0.17108 0.68321 0.2973 0.0
H742 H 0.1049 0.72733 0.40107 0.0
H743 H 0.13426 0.7554 0.43779 0.0
H744 H 0.19136 0.70345 0.41364 0.0
C745 C 0.12677 0.64247 0.32409 0.0
C746 C 0.1027 0.64134 0.30734 0.0
C747 C 0.08657 0.66011 0.31965 0.0
C748 C 0.09444 0.68007 0.34712 0.0
C749 C 0.1185 0.68095 0.36193 0.0
C750 C 0.13444 0.66265 0.35072 0.0
C751 C 0.15967 0.66856 0.36833 0.0
C752 C 0.16812 0.65022 0.40689 0.0
C753 C 0.17741 0.66996 0.32504 0.0
C754 C 0.15555 0.69316 0.39091 0.0
C755 C 0.13163 0.69987 0.38734 0.0
C756 C 0.12359 0.72208 0.40467 0.0
C757 C 0.1404 0.73784 0.42602 0.0
C758 C 0.16503 0.73139 0.42986 0.0
C759 C 0.1726 0.70876 0.4118 0.0
H760 H 0.91483 0.642 0.51346 0.0
H761 H 0.86413 0.65339 0.395 0.0
H762 H 0.89054 0.63059 0.33895 0.0
H763 H 0.96908 0.6467 0.44209 0.0
H764 H 0.98458 0.62308 0.4746 0.0
H765 H 0.96183 0.6406 0.50528 0.0
H766 H 0.93874 0.60143 0.52765 0.0
H767 H 0.96143 0.58378 0.49701 0.0
H768 H 0.93022 0.58076 0.47975 0.0
H769 H 0.92255 0.60697 0.29553 0.0
H770 H 0.95782 0.58349 0.26798 0.0
H771 H 0.98738 0.58624 0.41488 0.0
C772 C 0.90939 0.63968 0.47568 0.0
C773 C 0.88776 0.64991 0.45818 0.0
C774 C 0.88099 0.64631 0.40873 0.0
C775 C 0.89576 0.6332 0.37675 0.0
C776 C 0.91709 0.62353 0.39496 0.0
C777 C 0.92386 0.62646 0.44331 0.0
C778 C 0.94759 0.61394 0.4536 0.0
C779 C 0.96691 0.63217 0.46984 0.0
C780 C 0.94429 0.59378 0.49176 0.0
C781 C 0.95318 0.60372 0.40337 0.0
C782 C 0.93535 0.60948 0.3701 0.0
C783 C 0.93667 0.6024 0.3212 0.0
C784 C 0.95686 0.58924 0.30578 0.0
C785 C 0.97547 0.58336 0.33909 0.0
C786 C 0.97338 0.59045 0.38863 0.0
H787 H 0.10251 0.17923 0.7628 0.0
H788 H 0.11245 0.12052 0.66028 0.0
H789 H 0.13493 0.14775 0.60468 0.0
H790 H 0.09591 0.22757 0.67292 0.0
H791 H 0.11268 0.249 0.709 0.0
H792 H 0.09595 0.22528 0.73879 0.0
H793 H 0.13477 0.21152 0.78342 0.0
H794 H 0.15165 0.23509 0.75357 0.0
H795 H 0.16119 0.20416 0.74802 0.0
H796 H 0.1579 0.18095 0.5622 0.0
H797 H 0.17947 0.21768 0.53563 0.0
H798 H 0.1551 0.25476 0.66641 0.0
C799 C 0.10911 0.17233 0.72821 0.0
C800 C 0.10532 0.14803 0.71504 0.0
C801 C 0.11468 0.1393 0.67022 0.0
C802 C 0.12758 0.15457 0.63866 0.0
C803 C 0.13115 0.17846 0.65276 0.0
C804 C 0.1222 0.18731 0.69648 0.0
C805 C 0.12947 0.21339 0.70396 0.0
C806 C 0.10717 0.22978 0.70629 0.0
C807 C 0.14521 0.21619 0.74997 0.0
C808 C 0.14392 0.21781 0.6577 0.0
C809 C 0.14462 0.19747 0.62858 0.0
C810 C 0.15722 0.19709 0.58439 0.0
C811 C 0.16925 0.21812 0.56937 0.0
C812 C 0.16854 0.23927 0.59835 0.0
C813 C 0.15587 0.23891 0.64331 0.0
H814 H 0.55693 0.44132 0.88601 0.0
H815 H 0.51162 0.38388 0.82994 0.0
H816 H 0.54019 0.35367 0.86171 0.0
H817 H 0.61462 0.41198 0.86044 0.0
H818 H 0.62849 0.42328 0.91553 0.0
H819 H 0.60499 0.44032 0.8861 0.0
H820 H 0.58068 0.44055 0.96721 0.0
H821 H 0.60401 0.42336 0.99675 0.0
H822 H 0.57343 0.41234 0.99665 0.0
H823 H 0.57268 0.32948 0.90484 0.0
H824 H 0.60695 0.31377 0.95351 0.0
H825 H 0.63192 0.38697 0.97718 0.0
C826 C 0.55321 0.42238 0.87993 0.0
C827 C 0.53233 0.41499 0.85446 0.0
C828 C 0.52788 0.39004 0.8478 0.0
C829 C 0.54391 0.3727 0.86619 0.0
C830 C 0.56438 0.38057 0.89105 0.0
C831 C 0.56916 0.40485 0.8976 0.0
C832 C 0.59221 0.40857 0.92631 0.0
C833 C 0.6112 0.42182 0.89523 0.0
C834 C 0.58727 0.422 0.97459 0.0
C835 C 0.5994 0.38265 0.93562 0.0
C836 C 0.58315 0.36672 0.91512 0.0
C837 C 0.58565 0.34181 0.92065 0.0
C838 C 0.60518 0.33303 0.94815 0.0
C839 C 0.62195 0.34911 0.96964 0.0
C840 C 0.61913 0.37419 0.96236 0.0
H841 H 0.3951 0.87937 0.18885 0.0
H842 H 0.41934 0.83967 0.31628 0.0
H843 H 0.39862 0.80309 0.28569 0.0
H844 H 0.33725 0.85317 0.18058 0.0
H845 H 0.33649 0.85194 0.11463 0.0
H846 H 0.35429 0.87463 0.14491 0.0
H847 H 0.3923 0.8604 0.09805 0.0
H848 H 0.37458 0.83774 0.06731 0.0
H849 H 0.4011 0.82917 0.10115 0.0
H850 H 0.37329 0.77208 0.24467 0.0
H851 H 0.34632 0.74732 0.19359 0.0
H852 H 0.33936 0.80634 0.09021 0.0
C853 C 0.39646 0.86277 0.20956 0.0
C854 C 0.40905 0.86203 0.25448 0.0
C855 C 0.40994 0.84034 0.28155 0.0
C856 C 0.39825 0.81957 0.26448 0.0
C857 C 0.38588 0.82085 0.22014 0.0
C858 C 0.38506 0.84179 0.19275 0.0
C859 C 0.36996 0.83839 0.14694 0.0
C860 C 0.34821 0.85555 0.14679 0.0
C861 C 0.38541 0.84161 0.10062 0.0
C862 C 0.3621 0.81237 0.15329 0.0
C863 C 0.3715 0.80269 0.19586 0.0
C864 C 0.36602 0.77936 0.21102 0.0
C865 C 0.35057 0.76551 0.18191 0.0
C866 C 0.34089 0.77489 0.13789 0.0
C867 C 0.34683 0.79861 0.12329 0.0
H868 H 0.12624 0.36848 0.57603 0.0
H869 H 0.09614 0.36459 0.42983 0.0
H870 H 0.05999 0.38659 0.45812 0.0
H871 H 0.06841 0.36139 0.64255 0.0
H872 H 0.07699 0.38228 0.68999 0.0
H873 H 0.09968 0.3647 0.65914 0.0
H874 H 0.12245 0.40391 0.63602 0.0
H875 H 0.09977 0.42161 0.66644 0.0
H876 H 0.10682 0.4273 0.60301 0.0
H877 H 0.02895 0.41149 0.50006 0.0
H878 H 1.00354 0.43634 0.5541 0.0
H879 H 0.053 0.42381 0.67443 0.0
C880 C 0.1117 0.37172 0.55043 0.0
C881 C 0.1137 0.3646 0.50089 0.0
C882 C 0.09475 0.36978 0.46797 0.0
C883 C 0.07421 0.38223 0.48372 0.0
C884 C 0.07287 0.3893 0.53261 0.0
C885 C 0.09097 0.38408 0.56567 0.0
C886 C 0.08536 0.39463 0.61571 0.0
C887 C 0.08244 0.37455 0.65412 0.0
C888 C 0.10476 0.41295 0.63118 0.0
C889 C 0.0615 0.40694 0.60532 0.0
C890 C 0.05468 0.40356 0.55713 0.0
C891 C 0.03395 0.41402 0.53801 0.0
C892 C 0.01971 0.42824 0.56894 0.0
C893 C 0.02612 0.4318 0.61862 0.0
C894 C 0.04732 0.42095 0.63699 0.0
H895 H 0.91953 0.84136 0.26033 0.0
H896 H 0.90031 0.90218 0.3519 0.0
H897 H 0.87397 0.87582 0.40157 0.0
H898 H 0.85975 0.81686 0.25633 0.0
H899 H 0.86941 0.78585 0.25624 0.0
H900 H 0.88861 0.8089 0.23073 0.0
H901 H 0.92321 0.79585 0.28859 0.0
H902 H 0.90416 0.7727 0.31416 0.0
H903 H 0.91796 0.79475 0.35373 0.0
H904 H 0.84946 0.84301 0.44088 0.0
H905 H 0.82687 0.80628 0.46467 0.0
H906 H 0.85884 0.76758 0.34307 0.0
C907 C 0.90987 0.84903 0.29103 0.0
C908 C 0.91241 0.87366 0.30309 0.0
C909 C 0.89926 0.88317 0.34313 0.0
C910 C 0.88409 0.86839 0.37125 0.0
C911 C 0.88185 0.84422 0.35824 0.0
C912 C 0.8942 0.83461 0.31885 0.0
C913 C 0.88744 0.8084 0.31096 0.0
C914 C 0.8756 0.8048 0.26058 0.0
C915 C 0.90951 0.79196 0.31725 0.0
C916 C 0.86942 0.80478 0.35212 0.0
C917 C 0.86666 0.82562 0.37926 0.0
C918 C 0.85141 0.8266 0.41983 0.0
C919 C 0.83872 0.8057 0.43313 0.0
C920 C 0.84114 0.78425 0.40563 0.0
C921 C 0.85652 0.78388 0.36438 0.0
H922 H 0.48201 0.58825 0.10076 0.0
H923 H 0.45517 0.59013 0.25 0.0
H924 H 0.41975 0.61329 0.22245 0.0
H925 H 0.46412 0.64763 0.06728 0.0
H926 H 0.45561 0.6397 1.00566 0.0
H927 H 0.47856 0.62269 0.03685 0.0
H928 H 0.45448 0.5833 0.02184 0.0
H929 H 0.43147 0.6002 0.99053 0.0
H930 H 0.42357 0.58133 0.04188 0.0
H931 H 0.38746 0.63654 0.17884 0.0
H932 H 0.36064 0.65857 0.12217 0.0
H933 H 0.40846 0.64191 1.00127 0.0
C934 C 0.46858 0.59339 0.12758 0.0
C935 C 0.47158 0.58779 0.17773 0.0
C936 C 0.45365 0.59484 0.2117 0.0
C937 C 0.43332 0.60778 0.19628 0.0
C938 C 0.43114 0.61339 0.14672 0.0
C939 C 0.44822 0.60636 0.11281 0.0
C940 C 0.44177 0.61507 0.06183 0.0
C941 C 0.46117 0.6323 0.04174 0.0
C942 C 0.43757 0.5937 0.02697 0.0
C943 C 0.41848 0.62827 0.07246 0.0
C944 C 0.41262 0.62697 0.12162 0.0
C945 C 0.39194 0.6378 0.14035 0.0
C946 C 0.37694 0.65041 0.10802 0.0
C947 C 0.38282 0.65231 0.05771 0.0
C948 C 0.40371 0.64085 0.0397 0.0
H949 H 0.59152 0.17021 0.81312 0.0
H950 H 0.63947 0.10869 0.81282 0.0
H951 H 0.66762 0.13039 0.86751 0.0
H952 H 0.6364 0.21441 0.80695 0.0
H953 H 0.62177 0.23578 0.84676 0.0
H954 H 0.60402 0.21449 0.81253 0.0
H955 H 0.58429 0.1993 0.8929 0.0
H956 H 0.60201 0.2206 0.92744 0.0
H957 H 0.60315 0.18896 0.94235 0.0
H958 H 0.69261 0.16009 0.91295 0.0
H959 H 0.71247 0.19577 0.94937 0.0
H960 H 0.64822 0.23811 0.92309 0.0
C961 C 0.6077 0.16124 0.82572 0.0
C962 C 0.61343 0.13782 0.80944 0.0
C963 C 0.63488 0.12662 0.82548 0.0
C964 C 0.65088 0.13877 0.85649 0.0
C965 C 0.64505 0.16206 0.87136 0.0
C966 C 0.6239 0.17317 0.85691 0.0
C967 C 0.62284 0.19891 0.87563 0.0
C968 C 0.62116 0.21695 0.83292 0.0
C969 C 0.60182 0.20212 0.91173 0.0
C970 C 0.64695 0.2007 0.90156 0.0
C971 C 0.65938 0.17916 0.89883 0.0
C972 C 0.68286 0.17688 0.91635 0.0
C973 C 0.69401 0.19719 0.93685 0.0
C974 C 0.68161 0.21937 0.94016 0.0
C975 C 0.6577 0.22107 0.92274 0.0
H976 H 0.28401 0.258 0.14173 0.0
H977 H 0.3165 0.20273 0.23318 0.0
H978 H 0.29489 0.21857 0.30467 0.0
H979 H 0.28583 0.30586 0.23618 0.0
H980 H 0.25746 0.31856 0.21718 0.0
H981 H 0.27649 0.30366 0.17313 0.0
H982 H 0.24103 0.27542 0.15018 0.0
H983 H 0.22204 0.28993 0.1948 0.0
H984 H 0.22657 0.25778 0.19733 0.0
H985 H 0.26713 0.23746 0.36484 0.0
H986 H 0.23961 0.26263 0.41355 0.0
H987 H 0.22608 0.30739 0.28583 0.0
C988 C 0.28699 0.24955 0.17696 0.0
C989 C 0.30199 0.22899 0.18144 0.0
C990 C 0.30517 0.21844 0.22838 0.0
C991 C 0.29285 0.22723 0.26939 0.0
C992 C 0.27757 0.24684 0.26338 0.0
C993 C 0.27497 0.25828 0.21872 0.0
C994 C 0.25738 0.27917 0.22282 0.0
C995 C 0.27005 0.30324 0.21168 0.0
C996 C 0.23546 0.27533 0.18929 0.0
C997 C 0.25032 0.27736 0.2765 0.0
C998 C 0.26204 0.25841 0.29893 0.0
C999 C 0.25805 0.25256 0.34788 0.0
C1000 C 0.2422 0.2669 0.37519 0.0
C1001 C 0.23067 0.28711 0.35377 0.0
C1002 C 0.23462 0.29213 0.30344 0.0
H1003 H 0.45874 0.47789 0.54635 0.0
H1004 H 0.51069 0.48373 0.66488 0.0
H1005 H 0.53725 0.50777 0.61198 0.0
H1006 H 0.50377 0.47277 0.44807 0.0
H1007 H 0.48637 0.49023 0.40511 0.0
H1008 H 0.47132 0.47281 0.45177 0.0
H1009 H 0.44928 0.51126 0.48121 0.0
H1010 H 0.46451 0.52887 0.43508 0.0
H1011 H 0.46665 0.53738 0.49862 0.0
H1012 H 0.55723 0.53295 0.54975 0.0
H1013 H 0.57235 0.55426 0.47745 0.0
H1014 H 0.50906 0.53188 0.39533 0.0
C1015 C 0.47585 0.48395 0.56095 0.0
C1016 C 0.48248 0.47888 0.61012 0.0
C1017 C 0.50503 0.4873 0.62763 0.0
C1018 C 0.52029 0.50109 0.59786 0.0
C1019 C 0.51297 0.50627 0.55029 0.0
C1020 C 0.49153 0.49771 0.53144 0.0
C1021 C 0.48837 0.50591 0.47857 0.0
C1022 C 0.48741 0.48413 0.44382 0.0
C1023 C 0.46586 0.5218 0.47307 0.0
C1024 C 0.51133 0.52052 0.47104 0.0
C1025 C 0.52503 0.52055 0.51325 0.0
C1026 C 0.54678 0.53291 0.5163 0.0
C1027 C 0.55518 0.54509 0.4748 0.0
C1028 C 0.54204 0.54481 0.43021 0.0
C1029 C 0.51957 0.53256 0.42869 0.0
H1030 H 0.23101 0.7629 0.64915 0.0
H1031 H 0.2116 0.82708 0.73155 0.0
H1032 H 0.23607 0.81315 0.80047 0.0
H1033 H 0.22941 0.72222 0.75711 0.0
H1034 H 0.25432 0.70427 0.73565 0.0
H1035 H 0.23472 0.71891 0.69231 0.0
H1036 H 0.27179 0.7397 0.65289 0.0
H1037 H 0.29144 0.72555 0.69681 0.0
H1038 H 0.2914 0.7579 0.69039 0.0
H1039 H 0.26556 0.79525 0.85709 0.0
H1040 H 0.29149 0.76954 0.9075 0.0
H1041 H 0.29013 0.71442 0.79434 0.0
C1042 C 0.2315 0.77376 0.68206 0.0
C1043 C 0.21939 0.79627 0.68432 0.0
C1044 C 0.22064 0.80987 0.7283 0.0
C1045 C 0.23469 0.8022 0.7678 0.0
C1046 C 0.24716 0.7806 0.76361 0.0
C1047 C 0.24519 0.76611 0.72268 0.0
C1048 C 0.26 0.74324 0.72916 0.0
C1049 C 0.24364 0.72083 0.72853 0.0
C1050 C 0.27983 0.7415 0.68997 0.0
C1051 C 0.27073 0.74742 0.77977 0.0
C1052 C 0.26334 0.76936 0.79826 0.0
C1053 C 0.27119 0.77783 0.84344 0.0
C1054 C 0.28614 0.76307 0.8717 0.0
C1055 C 0.29285 0.73974 0.85536 0.0
C1056 C 0.28542 0.73211 0.80806 0.0
H1057 H 0.96417 0.47409 0.96713 0.0
H1058 H 0.01397 0.48586 0.8464 0.0
H1059 H 0.03856 0.51215 0.89871 0.0
H1060 H 0.96661 0.53365 0.01649 0.0
H1061 H 0.96608 0.52442 0.07979 0.0
H1062 H 0.95212 0.50579 0.03377 0.0
H1063 H 0.97823 0.46943 0.06045 0.0
H1064 H 0.99193 0.48782 0.10715 0.0
H1065 H 0.01055 0.47264 0.06275 0.0
H1066 H 0.05667 0.53886 0.96112 0.0
H1067 H 0.0711 0.55983 0.03469 0.0
H1068 H 0.0111 0.53038 0.11801 0.0
C1069 C 0.98044 0.48189 0.9519 0.0
C1070 C 0.98697 0.47786 0.90232 0.0
C1071 C 1.00841 0.48857 0.88402 0.0
C1072 C 0.0225 0.50371 0.91341 0.0
C1073 C 0.01515 0.50792 0.96137 0.0
C1074 C 0.99494 0.497 0.981 0.0
C1075 C 0.99158 0.50434 0.03426 0.0
C1076 C 0.96767 0.51785 0.04148 0.0
C1077 C 0.99317 0.48224 0.06816 0.0
C1078 C 0.01304 0.52109 0.04122 0.0
C1079 C 0.02614 0.52304 0.99835 0.0
C1080 C 0.04669 0.53735 0.99506 0.0
C1081 C 0.05467 0.5493 0.03715 0.0
C1082 C 0.04232 0.54679 0.0824 0.0
C1083 C 0.02084 0.5329 0.08401 0.0
H1084 H 0.79443 0.71344 0.7192 0.0
H1085 H 0.79659 0.76685 0.60275 0.0
H1086 H 0.77221 0.79431 0.65303 0.0
H1087 H 0.73438 0.72324 0.75488 0.0
H1088 H 0.73929 0.71991 0.81978 0.0
H1089 H 0.75872 0.70469 0.77696 0.0
H1090 H 0.79617 0.72495 0.81581 0.0
H1091 H 0.77691 0.73986 0.85943 0.0
H1092 H 0.79714 0.75732 0.82175 0.0
H1093 H 0.7444 0.81429 0.71094 0.0
H1094 H 0.71947 0.82872 0.77899 0.0
H1095 H 0.73573 0.76361 0.86122 0.0
C1096 C 0.79034 0.73116 0.70479 0.0
C1097 C 0.79752 0.73792 0.65683 0.0
C1098 C 0.79139 0.76117 0.63922 0.0
C1099 C 0.77742 0.77691 0.66746 0.0
C1100 C 0.76981 0.76931 0.71355 0.0
C1101 C 0.7764 0.74724 0.7327 0.0
C1102 C 0.76533 0.74355 0.78316 0.0
C1103 C 0.74843 0.72154 0.7837 0.0
C1104 C 0.78507 0.74129 0.82236 0.0
C1105 C 0.75127 0.76687 0.7889 0.0
C1106 C 0.75404 0.78129 0.74799 0.0
C1107 C 0.74236 0.80333 0.74351 0.0
C1108 C 0.72808 0.81131 0.78248 0.0
C1109 C 0.72563 0.79745 0.82594 0.0
C1110 C 0.73716 0.77469 0.82868 0.0
H1111 H 0.73798 0.26272 0.14836 0.0
H1112 H 0.7141 0.32381 0.23525 0.0
H1113 H 0.73571 0.30768 0.30662 0.0
H1114 H 0.73383 0.21801 0.24743 0.0
H1115 H 0.76033 0.20197 0.22761 0.0
H1116 H 0.74204 0.21773 0.18353 0.0
H1117 H 0.77964 0.24161 0.15474 0.0
H1118 H 0.79797 0.2262 0.19923 0.0
H1119 H 0.79683 0.25867 0.19875 0.0
H1120 H 0.7616 0.28671 0.36724 0.0
H1121 H 0.78704 0.25982 0.41658 0.0
H1122 H 0.79417 0.2114 0.29235 0.0
C1123 C 0.73694 0.2725 0.1826 0.0
C1124 C 0.72426 0.29461 0.18593 0.0
C1125 C 0.72362 0.30688 0.23148 0.0
C1126 C 0.73594 0.29791 0.27234 0.0
C1127 C 0.74879 0.27652 0.26743 0.0
C1128 C 0.74915 0.26374 0.22404 0.0
C1129 C 0.76456 0.24124 0.22895 0.0
C1130 C 0.74928 0.21838 0.22144 0.0
C1131 C 0.78602 0.24199 0.19329 0.0
C1132 C 0.7729 0.24354 0.28174 0.0
C1133 C 0.76363 0.26412 0.30299 0.0
C1134 C 0.76883 0.27043 0.35115 0.0
C1135 C 0.78342 0.25501 0.37886 0.0
C1136 C 0.79266 0.23337 0.35859 0.0
C1137 C 0.78752 0.22781 0.309 0.0
H1138 H 0.96154 0.97591 0.04109 0.0
H1139 H 0.01239 0.98123 0.16168 0.0
H1140 H 0.03854 1.00704 0.11173 0.0
H1141 H 1.00793 0.9741 0.9441 0.0
H1142 H 0.99034 0.99171 0.90173 0.0
H1143 H 0.97547 0.97289 0.94635 0.0
H1144 H 0.95172 0.00996 0.97759 0.0
H1145 H 0.9668 0.02896 0.9336 0.0
H1146 H 0.96794 0.03632 0.99784 0.0
H1147 H 0.05793 0.03438 0.05302 0.0
H1148 H 0.07316 0.05749 0.98303 0.0
H1149 H 0.01183 0.03405 0.89603 0.0
C1150 C 0.97836 0.98218 0.05664 0.0
C1151 C 0.98471 0.97655 0.10569 0.0
C1152 C 1.00689 0.98529 0.12453 0.0
C1153 C 0.02193 1.00009 0.09646 0.0
C1154 C 0.01483 1.00594 0.04913 0.0
C1155 C 0.99388 0.99696 0.02875 0.0
C1156 C 0.99101 1.00605 0.97641 0.0
C1157 C 0.9912 0.98493 0.93999 0.0
C1158 C 0.968 0.02122 0.97107 0.0
C1159 C 0.0135 0.02162 0.97108 0.0
C1160 C 0.02672 0.02138 0.0139 0.0
C1161 C 0.04791 0.03453 0.01903 0.0
C1162 C 0.05636 0.04773 0.97889 0.0
C1163 C 0.04385 0.04761 0.93357 0.0
C1164 C 0.02184 0.03463 0.93004 0.0
H1165 H 0.46175 0.97533 0.47936 0.0
H1166 H 0.50633 0.98808 0.35084 0.0
H1167 H 0.53146 0.01607 0.39802 0.0
H1168 H 0.46374 0.03554 0.52752 0.0
H1169 H 0.46626 0.02653 0.59075 0.0
H1170 H 0.45114 1.0072 0.54751 0.0
H1171 H 0.47968 0.97201 0.56995 0.0
H1172 H 0.49462 0.99111 0.61381 0.0
H1173 H 0.51184 0.97646 0.56642 0.0
H1174 H 0.55059 0.0442 0.4561 0.0
H1175 H 0.56717 0.06623 0.52626 0.0
H1176 H 0.51255 0.03445 0.62074 0.0
C1177 C 0.47693 0.98383 0.46131 0.0
C1178 C 0.48188 0.97946 0.4111 0.0
C1179 C 0.50203 0.99097 0.38909 0.0
C1180 C 0.5164 1.0071 0.41552 0.0
C1181 C 0.51071 0.01146 0.46431 0.0
C1182 C 0.49184 0.99985 0.48751 0.0
C1183 C 0.4905 1.00728 0.54109 0.0
C1184 C 0.46648 0.01988 0.55237 0.0
C1185 C 0.4944 0.98541 0.57481 0.0
C1186 C 0.51152 0.02489 0.54405 0.0
C1187 C 0.52258 0.02721 0.49896 0.0
C1188 C 0.54223 0.04241 0.49174 0.0
C1189 C 0.55146 0.05497 0.532 0.0
C1190 C 0.54132 0.05211 0.57939 0.0
C1191 C 0.52069 0.03719 0.58511 0.0
H1192 H 0.16555 0.119 0.89504 0.0
H1193 H 0.15683 0.06874 0.01592 0.0
H1194 H 0.19252 0.08638 0.05619 0.0
H1195 H 0.23001 0.11787 0.89174 0.0
H1196 H 0.23313 0.14947 0.87752 0.0
H1197 H 0.20659 0.13327 0.8584 0.0
H1198 H 0.17966 0.16423 0.90341 0.0
H1199 H 0.2061 0.18057 0.92268 0.0
H1200 H 0.18465 0.17008 0.96756 0.0
H1201 H 0.22929 0.10835 0.08215 0.0
H1202 H 0.26504 0.13378 0.09385 0.0
H1203 H 0.2501 0.17078 0.95686 0.0
C1204 C 0.17105 0.11174 0.93009 0.0
C1205 C 0.15835 0.09245 0.95237 0.0
C1206 C 0.16624 0.08346 0.99814 0.0
C1207 C 0.18648 0.09338 0.02131 0.0
C1208 C 0.19858 0.1123 0.99828 0.0
C1209 C 0.19118 0.12146 0.95378 0.0
C1210 C 0.20761 0.14173 0.93676 0.0
C1211 C 0.22007 0.13518 0.88823 0.0
C1212 C 0.19367 0.16557 0.93236 0.0
C1213 C 0.22547 0.14249 0.97872 0.0
C1214 C 0.21985 0.12528 0.01363 0.0
C1215 C 0.23385 0.12193 0.0552 0.0
C1216 C 0.25421 0.13648 0.06134 0.0
C1217 C 0.26046 0.15432 0.02621 0.0
C1218 C 0.24573 0.15743 0.98446 0.0
H1219 H 0.62742 0.50072 0.30918 0.0
H1220 H 0.59849 0.52479 0.17001 0.0
H1221 H 0.6208 0.49236 0.12762 0.0
H1222 H 0.68638 0.48169 0.26666 0.0
H1223 H 0.68717 0.45525 0.30505 0.0
H1224 H 0.67049 0.48144 0.32429 0.0
H1225 H 0.63191 0.45541 0.33358 0.0
H1226 H 0.6485 0.42914 0.31467 0.0
H1227 H 0.62153 0.43773 0.28237 0.0
H1228 H 0.64671 0.45844 0.10051 0.0
H1229 H 0.67006 0.42127 0.09023 0.0
H1230 H 0.6791 0.41615 0.24797 0.0
C1231 C 0.62602 0.49921 0.26973 0.0
C1232 C 0.61155 0.51529 0.24254 0.0
C1233 C 0.60958 0.51259 0.19123 0.0
C1234 C 0.62227 0.49437 0.16692 0.0
C1235 C 0.63645 0.47881 0.1947 0.0
C1236 C 0.63807 0.48071 0.24503 0.0
C1237 C 0.65302 0.46042 0.26642 0.0
C1238 C 0.67561 0.4703 0.29212 0.0
C1239 C 0.63783 0.44475 0.30131 0.0
C1240 C 0.65954 0.44682 0.22017 0.0
C1241 C 0.65014 0.45808 0.17926 0.0
C1242 C 0.65392 0.44928 0.13227 0.0
C1243 C 0.66714 0.42803 0.12691 0.0
C1244 C 0.67596 0.4154 0.16838 0.0
C1245 C 0.67245 0.42523 0.21559 0.0
H1246 H 0.26133 0.86584 0.4453 0.0
H1247 H 0.2749 0.84864 0.59761 0.0
H1248 H 0.31466 0.86861 0.59263 0.0
H1249 H 0.32417 0.85932 0.40202 0.0
H1250 H 0.32199 0.88452 0.36058 0.0
H1251 H 0.29558 0.86688 0.37474 0.0
H1252 H 0.27345 0.90569 0.40226 0.0
H1253 H 0.29989 0.92339 0.3888 0.0
H1254 H 0.28668 0.9244 0.4491 0.0
H1255 H 0.3521 0.89156 0.57245 0.0
H1256 H 0.38563 0.91529 0.53723 0.0
H1257 H 0.34688 0.91997 0.39943 0.0
C1258 C 0.27303 0.86582 0.47702 0.0
C1259 C 0.26545 0.85543 0.52162 0.0
C1260 C 0.28072 0.8563 0.56302 0.0
C1261 C 0.30324 0.86764 0.56059 0.0
C1262 C 0.31009 0.87825 0.51654 0.0
C1263 C 0.29555 0.87741 0.47537 0.0
C1264 C 0.30687 0.89133 0.4334 0.0
C1265 C 0.31249 0.87451 0.39013 0.0
C1266 C 0.29076 0.91246 0.41748 0.0
C1267 C 0.32981 0.90024 0.45764 0.0
C1268 C 0.33139 0.89232 0.50545 0.0
C1269 C 0.35111 0.89787 0.535 0.0
C1270 C 0.37002 0.91145 0.51476 0.0
C1271 C 0.36896 0.91951 0.46561 0.0
C1272 C 0.3483 0.91414 0.43716 0.0
H1273 H 0.89216 0.62004 0.67307 0.0
H1274 H 0.81738 0.61014 0.71506 0.0
H1275 H 0.82695 0.56939 0.74637 0.0
H1276 H 0.9 0.5607 0.62792 0.0
H1277 H 0.93079 0.55793 0.64811 0.0
H1278 H 0.91869 0.58717 0.63355 0.0
H1279 H 0.93021 0.60273 0.71993 0.0
H1280 H 0.94261 0.57362 0.73457 0.0
H1281 H 0.91977 0.58664 0.77332 0.0
H1282 H 0.84459 0.52966 0.77183 0.0
H1283 H 0.86883 0.49322 0.78825 0.0
H1284 H 0.93139 0.52799 0.72351 0.0
C1285 C 0.87793 0.6095 0.68987 0.0
C1286 C 0.85411 0.61829 0.69247 0.0
C1287 C 0.83579 0.60373 0.71327 0.0
C1288 C 0.84105 0.5806 0.73101 0.0
C1289 C 0.86462 0.57222 0.72687 0.0
C1290 C 0.88275 0.58617 0.70666 0.0
C1291 C 0.90622 0.57235 0.70366 0.0
C1292 C 0.91439 0.56937 0.65013 0.0
C1293 C 0.92586 0.58456 0.73474 0.0
C1294 C 0.89849 0.54849 0.72563 0.0
C1295 C 0.87448 0.54886 0.73913 0.0
C1296 C 0.86338 0.52911 0.76128 0.0
C1297 C 0.87728 0.50851 0.77041 0.0
C1298 C 0.90191 0.50773 0.7568 0.0
C1299 C 0.91252 0.52794 0.73368 0.0
H1300 H 0.76583 0.88222 0.9515 0.0
H1301 H 0.7479 0.84424 0.08575 0.0
H1302 H 0.78249 0.86354 0.12709 0.0
H1303 H 0.82973 0.87535 0.96387 0.0
H1304 H 0.83697 0.90443 0.93821 0.0
H1305 H 0.80982 0.88908 0.91984 0.0
H1306 H 0.78454 0.92626 0.9452 0.0
H1307 H 0.81163 0.94174 0.96369 0.0
H1308 H 0.78717 0.93797 1.00654 0.0
H1309 H 0.81796 0.88713 0.15411 0.0
H1310 H 0.85501 0.91071 0.16426 0.0
H1311 H 0.85293 0.93103 0.01075 0.0
C1312 C 0.76908 0.87822 0.98976 0.0
C1313 C 0.7541 0.86196 0.01574 0.0
C1314 C 0.75916 0.85669 0.06536 0.0
C1315 C 0.77867 0.86762 0.08913 0.0
C1316 C 0.79314 0.88349 0.06251 0.0
C1317 C 0.78883 0.8886 0.01381 0.0
C1318 C 0.80814 0.90516 0.99305 0.0
C1319 C 0.82198 0.89276 0.95127 0.0
C1320 C 0.79721 0.92921 0.97613 0.0
C1321 C 0.82396 0.90855 0.03781 0.0
C1322 C 0.81468 0.89609 0.07748 0.0
C1323 C 0.82563 0.89663 0.12315 0.0
C1324 C 0.84689 0.90989 0.12837 0.0
C1325 C 0.85743 0.92209 0.08798 0.0
C1326 C 0.84552 0.9217 0.04219 0.0
H1327 H 0.43089 0.5304 0.79912 0.0
H1328 H 0.36777 0.49177 0.74735 0.0
H1329 H 0.34236 0.52689 0.76637 0.0
H1330 H 0.40053 0.56342 0.89872 0.0
H1331 H 0.41766 0.5906 0.88852 0.0
H1332 H 0.43074 0.56169 0.87462 0.0
H1333 H 0.43916 0.57605 0.78586 0.0
H1334 H 0.4258 0.60486 0.79931 0.0
H1335 H 0.41461 0.58709 0.74896 0.0
H1336 H 0.32378 0.56607 0.78861 0.0
H1337 H 0.31297 0.60726 0.81485 0.0
H1338 H 0.38808 0.6218 0.84825 0.0
C1339 C 0.41166 0.52924 0.79282 0.0
C1340 C 0.40126 0.50833 0.77204 0.0
C1341 C 0.37609 0.50762 0.76326 0.0
C1342 C 0.3615 0.52746 0.77392 0.0
C1343 C 0.37232 0.54803 0.79306 0.0
C1344 C 0.39677 0.54912 0.80268 0.0
C1345 C 0.40381 0.57389 0.82149 0.0
C1346 C 0.41377 0.5723 0.87395 0.0
C1347 C 0.42192 0.58619 0.78682 0.0
C1348 C 0.37955 0.58647 0.82044 0.0
C1349 C 0.36163 0.57112 0.80428 0.0
C1350 C 0.33764 0.57832 0.80123 0.0
C1351 C 0.33168 0.60176 0.81601 0.0
C1352 C 0.34969 0.61779 0.83303 0.0
C1353 C 0.37398 0.61009 0.83455 0.0
H1354 H 0.75128 0.16777 0.55437 0.0
H1355 H 0.7824 0.1139 0.45787 0.0
H1356 H 0.74889 0.08629 0.47664 0.0
H1357 H 0.72818 0.12553 0.64633 0.0
H1358 H 0.70105 0.1426 0.65676 0.0
H1359 H 0.72828 0.15779 0.63807 0.0
H1360 H 0.70565 0.17641 0.56423 0.0
H1361 H 0.67841 0.16115 0.58253 0.0
H1362 H 0.6903 0.15685 0.5217 0.0
H1363 H 0.71155 0.06487 0.50327 0.0
H1364 H 0.67268 0.05092 0.53721 0.0
H1365 H 0.6652 0.11875 0.61515 0.0
C1366 C 0.75121 0.15005 0.53776 0.0
C1367 C 0.76952 0.14303 0.50471 0.0
C1368 C 0.76858 0.11976 0.48323 0.0
C1369 C 0.74963 0.10389 0.49368 0.0
C1370 C 0.73167 0.11149 0.52567 0.0
C1371 C 0.73228 0.13396 0.54756 0.0
C1372 C 0.71022 0.13786 0.57933 0.0
C1373 C 0.71737 0.14113 0.63332 0.0
C1374 C 0.69526 0.15934 0.56082 0.0
C1375 C 0.6971 0.11419 0.5714 0.0
C1376 C 0.70986 0.0992 0.54054 0.0
C1377 C 0.70138 0.07641 0.52761 0.0
C1378 C 0.67927 0.06866 0.54701 0.0
C1379 C 0.66586 0.08373 0.57873 0.0
C1380 C 0.67495 0.10681 0.59086 0.0
H1381 H 0.14288 0.51036 0.26478 0.0
H1382 H 0.072 0.48361 0.22549 0.0
H1383 H 0.08637 0.44171 0.23484 0.0
H1384 H 0.17858 0.46376 0.20893 0.0
H1385 H 0.19992 0.46186 0.25851 0.0
H1386 H 0.18467 0.48987 0.24625 0.0
H1387 H 0.16886 0.49116 0.3356 0.0
H1388 H 0.18444 0.46341 0.34829 0.0
H1389 H 0.15252 0.46564 0.35969 0.0
H1390 H 0.10862 0.40304 0.24524 0.0
H1391 H 0.13481 0.36972 0.27183 0.0
H1392 H 0.1904 0.42131 0.31176 0.0
C1393 C 0.13046 0.4956 0.25833 0.0
C1394 C 0.10641 0.50002 0.24427 0.0
C1395 C 0.09047 0.48045 0.23662 0.0
C1396 C 0.09852 0.45665 0.24132 0.0
C1397 C 0.12243 0.45281 0.25461 0.0
C1398 C 0.13802 0.47169 0.2643 0.0
C1399 C 0.1622 0.46251 0.28202 0.0
C1400 C 0.18254 0.46995 0.24681 0.0
C1401 C 0.16729 0.47119 0.33452 0.0
C1402 C 0.15778 0.43555 0.28041 0.0
C1403 C 0.13489 0.43039 0.2635 0.0
C1404 C 0.12656 0.40682 0.25879 0.0
C1405 C 0.14167 0.388 0.27364 0.0
C1406 C 0.16464 0.3929 0.29396 0.0
C1407 C 0.17296 0.41699 0.29622 0.0
H1408 H 0.66643 0.61307 0.38135 0.0
H1409 H 0.63687 0.59086 0.5217 0.0
H1410 H 0.67175 0.60908 0.56366 0.0
H1411 H 0.72892 0.6031 0.4102 0.0
H1412 H 0.73951 0.62933 0.37756 0.0
H1413 H 0.71237 0.61426 0.35813 0.0
H1414 H 0.68879 0.65435 0.36551 0.0
H1415 H 0.71584 0.66955 0.38509 0.0
H1416 H 0.68914 0.67059 0.42267 0.0
H1417 H 0.70964 0.62828 0.59024 0.0
H1418 H 0.74849 0.6489 0.60123 0.0
H1419 H 0.75337 0.66091 0.44432 0.0
C1420 C 0.66738 0.61195 0.42089 0.0
C1421 C 0.64902 0.60045 0.44835 0.0
C1422 C 0.65073 0.59958 0.50002 0.0
C1423 C 0.67046 0.60986 0.52415 0.0
C1424 C 0.68816 0.62115 0.4961 0.0
C1425 C 0.68683 0.62242 0.44568 0.0
C1426 C 0.70822 0.63601 0.42456 0.0
C1427 C 0.72313 0.61969 0.39061 0.0
C1428 C 0.7 0.65899 0.39789 0.0
C1429 C 0.72188 0.64199 0.47109 0.0
C1430 C 0.70993 0.63308 0.51176 0.0
C1431 C 0.71914 0.63546 0.55878 0.0
C1432 C 0.74126 0.64713 0.56456 0.0
C1433 C 0.75392 0.6565 0.52361 0.0
C1434 C 0.74396 0.65412 0.47625 0.0
H1435 H 0.1287 1.00142 0.81761 0.0
H1436 H 0.10706 0.03165 0.67796 0.0
H1437 H 0.12954 0.99961 0.63474 0.0
H1438 H 0.18839 0.97996 0.78192 0.0
H1439 H 0.18592 0.95232 0.81637 0.0
H1440 H 0.17022 0.97893 0.83667 0.0
H1441 H 0.12983 0.95539 0.83602 0.0
H1442 H 0.14541 0.92871 0.81599 0.0
H1443 H 0.12046 0.94021 0.78085 0.0
H1444 H 0.15426 0.96508 0.607 0.0
H1445 H 0.17498 0.9265 0.59495 0.0
H1446 H 0.1773 0.9156 0.75249 0.0
C1447 C 0.12903 1.00135 0.77794 0.0
C1448 C 0.11653 0.01901 0.75081 0.0
C1449 C 0.11667 0.01821 0.69909 0.0
C1450 C 0.12948 1.00023 0.67435 0.0
C1451 C 0.14162 0.983 0.70203 0.0
C1452 C 0.14118 0.98308 0.75263 0.0
C1453 C 0.15387 0.96112 0.77329 0.0
C1454 C 0.17591 0.96854 0.80387 0.0
C1455 C 0.13634 0.94543 0.80329 0.0
C1456 C 0.16139 0.94865 0.72632 0.0
C1457 C 0.15455 0.96192 0.68582 0.0
C1458 C 0.1595 0.95437 0.63837 0.0
C1459 C 0.17121 0.93232 0.63197 0.0
C1460 C 0.17733 0.91769 0.67272 0.0
C1461 C 0.17274 0.92626 0.72059 0.0
H1462 H 0.77087 0.37728 0.06033 0.0
H1463 H 0.75293 0.34088 0.9245 0.0
H1464 H 0.78728 0.36098 0.88365 0.0
H1465 H 0.79092 0.43366 0.00863 0.0
H1466 H 0.8156 0.43737 0.05086 0.0
H1467 H 0.78906 0.42093 0.0693 0.0
H1468 H 0.81537 0.38396 0.09139 0.0
H1469 H 0.842 0.40031 0.07321 0.0
H1470 H 0.83534 0.37149 0.0459 0.0
H1471 H 0.82173 0.38624 0.85678 0.0
H1472 H 0.85772 0.41145 0.84665 0.0
H1473 H 0.85662 0.42869 1.00176 0.0
C1474 C 0.77416 0.37368 0.02192 0.0
C1475 C 0.7592 0.35773 0.99528 0.0
C1476 C 0.76422 0.35304 0.94541 0.0
C1477 C 0.78359 0.36445 0.92191 0.0
C1478 C 0.79794 0.38013 0.94911 0.0
C1479 C 0.79377 0.38449 0.99816 0.0
C1480 C 0.8128 0.40119 0.01934 0.0
C1481 C 0.80141 0.42468 0.03813 0.0
C1482 C 0.82723 0.38847 0.05985 0.0
C1483 C 0.8282 0.40569 0.97432 0.0
C1484 C 0.81902 0.39355 0.93422 0.0
C1485 C 0.82942 0.39539 0.8881 0.0
C1486 C 0.85009 0.40957 0.8829 0.0
C1487 C 0.86064 0.42132 0.92375 0.0
C1488 C 0.84924 0.41965 0.96999 0.0
H1489 H 0.3852 0.01459 0.31058 0.0
H1490 H 0.41536 0.99046 0.17228 0.0
H1491 H 0.39634 0.02486 0.13028 0.0
H1492 H 0.32812 0.03824 0.26194 0.0
H1493 H 0.32807 0.06383 0.3026 0.0
H1494 H 0.34205 0.03602 0.32139 0.0
H1495 H 0.38196 0.05889 0.33808 0.0
H1496 H 0.36816 0.08673 0.31916 0.0
H1497 H 0.39544 0.0766 0.28985 0.0
H1498 H 0.37614 0.06214 0.10392 0.0
H1499 H 0.35658 0.10144 0.09405 0.0
H1500 H 0.34049 0.10318 0.24977 0.0
C1501 C 0.38738 0.01633 0.27131 0.0
C1502 C 0.40157 0.9998 0.24451 0.0
C1503 C 0.40453 1.00293 0.19341 0.0
C1504 C 0.39374 0.02233 0.16923 0.0
C1505 C 0.38019 0.0385 0.19677 0.0
C1506 C 0.37698 0.03583 0.24664 0.0
C1507 C 0.36293 0.05681 0.26787 0.0
C1508 C 0.33886 0.0482 0.28973 0.0
C1509 C 0.37803 0.07057 0.30598 0.0
C1510 C 0.35901 0.07179 0.22213 0.0
C1511 C 0.36896 0.06068 0.1816 0.0
C1512 C 0.36827 0.07105 0.13532 0.0
C1513 C 0.35728 0.09353 0.13024 0.0
C1514 C 0.34729 0.10559 0.17127 0.0
C1515 C 0.34794 0.0944 0.21776 0.0
H1516 H 0.2704 0.38264 0.44639 0.0
H1517 H 0.23917 0.36344 0.5869 0.0
H1518 H 0.27212 0.38507 0.62911 0.0
H1519 H 0.33116 0.37307 0.48278 0.0
H1520 H 0.34335 0.39749 0.44682 0.0
H1521 H 0.31617 0.38251 0.42746 0.0
H1522 H 0.29384 0.42349 0.42583 0.0
H1523 H 0.32096 0.43861 0.44533 0.0
H1524 H 0.29352 0.44205 0.48 0.0
H1525 H 0.30798 0.40826 0.6558 0.0
H1526 H 0.34716 0.42802 0.66685 0.0
H1527 H 0.35742 0.42979 0.50904 0.0
C1528 C 0.27037 0.38332 0.48603 0.0
C1529 C 0.25217 0.37167 0.51356 0.0
C1530 C 0.25296 0.37234 0.5653 0.0
C1531 C 0.27149 0.38467 0.58951 0.0
C1532 C 0.28921 0.39591 0.56135 0.0
C1533 C 0.28904 0.39511 0.51081 0.0
C1534 C 0.31132 0.40708 0.48952 0.0
C1535 C 0.32639 0.38895 0.45991 0.0
C1536 C 0.30449 0.42912 0.45833 0.0
C1537 C 0.32412 0.41458 0.53609 0.0
C1538 C 0.31078 0.40828 0.57694 0.0
C1539 C 0.31868 0.41317 0.62415 0.0
C1540 C 0.34107 0.42436 0.62995 0.0
C1541 C 0.35562 0.43017 0.58881 0.0
C1542 C 0.34679 0.42553 0.54119 0.0
H1543 H 0.87123 0.11048 0.3512 0.0
H1544 H 0.79991 0.09312 0.29607 0.0
H1545 H 0.81543 0.05456 0.26389 0.0
H1546 H 0.90557 0.08389 0.25228 0.0
H1547 H 0.92886 0.07261 0.29212 0.0
H1548 H 0.9124 0.09936 0.30865 0.0
H1549 H 0.90063 0.07973 0.39136 0.0
H1550 H 0.91689 0.05282 0.37499 0.0
H1551 H 0.88549 0.05093 0.39162 0.0
H1552 H 0.83829 0.01799 0.23872 0.0
H1553 H 0.86707 0.98545 0.22114 0.0
H1554 H 0.92353 0.02537 0.29581 0.0
C1555 C 0.85889 0.09871 0.33202 0.0
C1556 C 0.83431 0.10489 0.32607 0.0
C1557 C 0.81878 0.08882 0.301 0.0
C1558 C 0.82743 0.06686 0.28267 0.0
C1559 C 0.85161 0.06115 0.29004 0.0
C1560 C 0.86714 0.07657 0.31408 0.0
C1561 C 0.89216 0.06573 0.31832 0.0
C1562 C 0.91085 0.08133 0.29121 0.0
C1563 C 0.8992 0.06209 0.37228 0.0
C1564 C 0.88827 0.0418 0.29269 0.0
C1565 C 0.86474 0.03964 0.27658 0.0
C1566 C 0.85675 0.01945 0.25117 0.0
C1567 C 0.87328 1.00106 0.24137 0.0
C1568 C 0.89757 1.00281 0.25717 0.0
C1569 C 0.90505 0.0234 0.28369 0.0
H1570 H 0.17092 0.58234 0.07858 0.0
H1571 H 0.12122 0.64255 0.07038 0.0
H1572 H 0.15396 0.66872 0.0402 0.0
H1573 H 0.2222 0.61473 0.1181 0.0
H1574 H 0.24353 0.59843 0.08095 0.0
H1575 H 0.21612 0.58395 0.10074 0.0
H1576 H 0.20515 0.57422 0.01067 0.0
H1577 H 0.23267 0.58845 0.9906 0.0
H1578 H 0.20414 0.59827 0.96626 0.0
H1579 H 0.19253 0.68929 0.01979 0.0
H1580 H 0.23389 0.70186 0.99755 0.0
H1581 H 0.25807 0.62782 0.01048 0.0
C1582 C 0.16694 0.60096 0.06981 0.0
C1583 C 0.14361 0.61048 0.07683 0.0
C1584 C 0.13895 0.63487 0.06488 0.0
C1585 C 0.15744 0.64992 0.04802 0.0
C1586 C 0.18034 0.64014 0.04229 0.0
C1587 C 0.18509 0.61612 0.05168 0.0
C1588 C 0.21127 0.61017 0.04146 0.0
C1589 C 0.22402 0.6013 0.0881 0.0
C1590 C 0.21342 0.59168 0.99976 0.0
C1591 C 0.22053 0.63472 0.02583 0.0
C1592 C 0.20242 0.65178 0.02729 0.0
C1593 C 0.2068 0.67605 0.01762 0.0
C1594 C 0.23029 0.68303 1.00538 0.0
C1595 C 0.24889 0.66573 1.002 0.0
C1596 C 0.24397 0.64127 0.01221 0.0
H1597 H 0.60276 1.00425 0.81018 0.0
H1598 H 0.63127 0.01144 0.6626 0.0
H1599 H 0.65613 0.97544 0.67482 0.0
H1600 H 0.65859 0.98539 0.86496 0.0
H1601 H 0.64493 0.96412 0.90657 0.0
H1602 H 0.6282 0.99007 0.88633 0.0
H1603 H 0.59401 0.96221 0.85503 0.0
H1604 H 0.61064 0.93619 0.87536 0.0
H1605 H 0.60103 0.9384 0.81247 0.0
H1606 H 0.67843 0.93948 0.70183 0.0
H1607 H 0.69721 0.90482 0.74324 0.0
H1608 H 0.65567 0.92037 0.87443 0.0
C1609 C 0.61407 0.99806 0.78042 0.0
C1610 C 0.61507 0.01076 0.73548 0.0
C1611 C 0.6303 1.00221 0.69753 0.0
C1612 C 0.64448 0.98169 0.70397 0.0
C1613 C 0.64342 0.96981 0.7487 0.0
C1614 C 0.62868 0.97756 0.78639 0.0
C1615 C 0.63172 0.9616 0.8312 0.0
C1616 C 0.64144 0.97617 0.87484 0.0
C1617 C 0.60793 0.94884 0.84427 0.0
C1618 C 0.65037 0.94382 0.81248 0.0
C1619 C 0.65676 0.94894 0.76474 0.0
C1620 C 0.67361 0.93522 0.73926 0.0
C1621 C 0.68421 0.91558 0.76314 0.0
C1622 C 0.67799 0.90986 0.81209 0.0
C1623 C 0.66087 0.92429 0.83704 0.0
loop_
_geom_bond_atom_site_label_1
_geom_bond_atom_site_label_2
_geom_bond_distance
_geom_bond_site_symmetry_2
_ccdc_geom_bond_type
Co0 O3 1.970 . S
Co0 N17 1.989 . S
Co0 O25 1.967 . S
Co0 O32 1.920 . S
Co1 O4 1.966 . S
Co1 N10 2.022 1_554 S
Co1 N18 1.993 . S
Co1 O26 1.941 1_554 S
C2 O3 1.258 . S
C2 O4 1.263 . S
O3 Co0 1.970 . S
O3 C2 1.258 . S
O4 Co1 1.966 . S
O4 C2 1.263 . S
C5 O6 1.235 . S
C5 O32 1.289 . S
O6 C5 1.235 . S
C7 C9 1.400 . S
C7 N10 1.351 . S
C7 C12 1.501 1_556 S
C8 C9 1.387 . S
C8 N11 1.341 . S
C9 C7 1.400 . S
C9 C8 1.387 . S
N10 Co1 2.022 1_556 S
N10 C7 1.351 . S
N10 N11 1.365 . S
N11 C8 1.341 . S
N11 N10 1.365 . S
N11 H31 0.862 . S
C12 C7 1.501 1_554 S
C12 H13 0.961 . S
C12 H14 0.961 . S
C12 H15 0.960 . S
H13 C12 0.961 . S
H14 C12 0.961 . S
H15 C12 0.960 . S
C16 N17 1.342 . S
C16 C20 1.401 1_554 S
C16 C21 1.499 . S
N17 Co0 1.989 . S
N17 C16 1.342 . S
N17 N18 1.388 . S
N18 Co1 1.993 . S
N18 N17 1.388 . S
N18 C19 1.346 1_554 S
C19 N18 1.346 1_556 S
C19 C20 1.396 . S
C19 C29 1.510 . S
C20 C16 1.401 1_556 S
C20 C19 1.396 . S
C21 C16 1.499 . S
C21 H22 0.959 . S
C21 H23 0.960 . S
C21 H24 0.961 . S
H22 C21 0.959 . S
H23 C21 0.960 . S
H24 C21 0.961 . S
O25 Co0 1.967 . S
O25 C33 1.258 . S
O26 Co1 1.941 1_556 S
O26 C33 1.266 1_556 S
H27 C29 0.959 . S
H28 C29 0.961 . S
C29 C19 1.510 . S
C29 H27 0.959 . S
C29 H28 0.961 . S
C29 H30 0.960 . S
H30 C29 0.960 . S
H31 N11 0.862 . S
O32 Co0 1.920 . S
O32 C5 1.289 . S
C33 O25 1.258 . S
C33 O26 1.266 1_554 S
Co34 O37 1.970 . S
Co34 N51 1.989 . S
Co34 O59 1.967 . S
Co34 O66 1.920 . S
Co35 O38 1.966 . S
Co35 N44 2.022 . S
Co35 N52 1.993 . S
Co35 O60 1.941 . S
C36 O37 1.258 . S
C36 O38 1.263 . S
O37 Co34 1.970 . S
O37 C36 1.258 . S
O38 Co35 1.966 . S
O38 C36 1.263 . S
C39 O40 1.235 . S
C39 O66 1.289 . S
O40 C39 1.235 . S
C41 C43 1.400 . S
C41 N44 1.351 . S
C41 C46 1.501 . S
C42 C43 1.387 . S
C42 N45 1.341 . S
C43 C41 1.400 . S
C43 C42 1.387 . S
N44 Co35 2.022 . S
N44 C41 1.351 . S
N44 N45 1.365 . S
N45 C42 1.341 . S
N45 N44 1.365 . S
N45 H65 0.862 . S
C46 C41 1.501 . S
C46 H47 0.961 . S
C46 H48 0.961 . S
C46 H49 0.960 . S
H47 C46 0.961 . S
H48 C46 0.961 . S
H49 C46 0.960 . S
C50 N51 1.342 . S
C50 C54 1.401 . S
C50 C55 1.499 . S
N51 Co34 1.989 . S
N51 C50 1.342 . S
N51 N52 1.388 . S
N52 Co35 1.993 . S
N52 N51 1.388 . S
N52 C53 1.346 . S
C53 N52 1.346 . S
C53 C54 1.396 . S
C53 C63 1.510 . S
C54 C50 1.401 . S
C54 C53 1.396 . S
C55 C50 1.499 . S
C55 H56 0.959 . S
C55 H57 0.960 . S
C55 H58 0.961 . S
H56 C55 0.959 . S
H57 C55 0.960 . S
H58 C55 0.961 . S
O59 Co34 1.967 . S
O59 C67 1.258 . S
O60 Co35 1.941 . S
O60 C67 1.266 . S
H61 C63 0.959 . S
H62 C63 0.961 . S
C63 C53 1.510 . S
C63 H61 0.959 . S
C63 H62 0.961 . S
C63 H64 0.960 . S
H64 C63 0.960 . S
H65 N45 0.862 . S
O66 Co34 1.920 . S
O66 C39 1.289 . S
C67 O59 1.258 . S
C67 O60 1.266 . S
Co68 O71 1.970 . S
Co68 N85 1.989 . S
Co68 O93 1.967 . S
Co68 O100 1.920 . S
Co69 O72 1.966 . S
Co69 N78 2.022 . S
Co69 N86 1.993 . S
Co69 O94 1.941 . S
C70 O71 1.258 . S
C70 O72 1.263 . S
O71 Co68 1.970 . S
O71 C70 1.258 . S
O72 Co69 1.966 . S
O72 C70 1.263 . S
C73 O74 1.235 . S
C73 O100 1.289 . S
O74 C73 1.235 . S
C75 C77 1.400 . S
C75 N78 1.351 . S
C75 C80 1.501 . S
C76 C77 1.387 . S
C76 N79 1.341 . S
C77 C75 1.400 . S
C77 C76 1.387 . S
N78 Co69 2.022 . S
N78 C75 1.351 . S
N78 N79 1.365 . S
N79 C76 1.341 . S
N79 N78 1.365 . S
N79 H99 0.862 . S
C80 C75 1.501 . S
C80 H81 0.961 . S
C80 H82 0.961 . S
C80 H83 0.960 . S
H81 C80 0.961 . S
H82 C80 0.961 . S
H83 C80 0.960 . S
C84 N85 1.342 . S
C84 C88 1.401 . S
C84 C89 1.499 . S
N85 Co68 1.989 . S
N85 C84 1.342 . S
N85 N86 1.388 . S
N86 Co69 1.993 . S
N86 N85 1.388 . S
N86 C87 1.346 . S
C87 N86 1.346 . S
C87 C88 1.396 . S
C87 C97 1.510 . S
C88 C84 1.401 . S
C88 C87 1.396 . S
C89 C84 1.499 . S
C89 H90 0.959 . S
C89 H91 0.960 . S
C89 H92 0.961 . S
H90 C89 0.959 . S
H91 C89 0.960 . S
H92 C89 0.961 . S
O93 Co68 1.967 . S
O93 C101 1.258 . S
O94 Co69 1.941 . S
O94 C101 1.266 . S
H95 C97 0.959 . S
H96 C97 0.961 . S
C97 C87 1.510 . S
C97 H95 0.959 . S
C97 H96 0.961 . S
C97 H98 0.960 . S
H98 C97 0.960 . S
H99 N79 0.862 . S
O100 Co68 1.920 . S
O100 C73 1.289 . S
C101 O93 1.258 . S
C101 O94 1.266 . S
Co102 O105 1.970 . S
Co102 N119 1.989 . S
Co102 O127 1.967 . S
Co102 O134 1.920 . S
Co103 O106 1.966 . S
Co103 N112 2.022 . S
Co103 N120 1.993 . S
Co103 O128 1.941 . S
C104 O105 1.258 . S
C104 O106 1.263 . S
O105 Co102 1.970 . S
O105 C104 1.258 . S
O106 Co103 1.966 . S
O106 C104 1.263 . S
C107 O108 1.235 . S
C107 O134 1.289 . S
O108 C107 1.235 . S
C109 C111 1.400 1_655 S
C109 N112 1.351 . S
C109 C114 1.502 . S
C110 C111 1.387 1_655 S
C110 N113 1.341 . S
C111 C109 1.400 1_455 S
C111 C110 1.387 1_455 S
N112 Co103 2.022 . S
N112 C109 1.351 . S
N112 N113 1.365 . S
N113 C110 1.341 . S
N113 N112 1.365 . S
N113 H133 0.862 . S
C114 C109 1.502 . S
C114 H115 0.965 . S
C114 H116 0.960 1_655 S
C114 H117 0.956 1_655 S
H115 C114 0.965 . S
H116 C114 0.960 1_455 S
H117 C114 0.956 1_455 S
C118 N119 1.342 . S
C118 C122 1.401 . S
C118 C123 1.499 . S
N119 Co102 1.989 . S
N119 C118 1.342 . S
N119 N120 1.388 . S
N120 Co103 1.993 . S
N120 N119 1.388 . S
N120 C121 1.346 . S
C121 N120 1.346 . S
C121 C122 1.396 . S
C121 C131 1.510 . S
C122 C118 1.401 . S
C122 C121 1.396 . S
C123 C118 1.499 . S
C123 H124 0.959 . S
C123 H125 0.960 . S
C123 H126 0.961 . S
H124 C123 0.959 . S
H125 C123 0.960 . S
H126 C123 0.961 . S
O127 Co102 1.967 . S
O127 C135 1.258 . S
O128 Co103 1.941 . S
O128 C135 1.266 . S
H129 C131 0.959 . S
H130 C131 0.961 . S
C131 C121 1.510 . S
C131 H129 0.959 . S
C131 H130 0.961 . S
C131 H132 0.960 . S
H132 C131 0.960 . S
H133 N113 0.862 . S
O134 Co102 1.920 . S
O134 C107 1.289 . S
C135 O127 1.258 . S
C135 O128 1.266 . S
Co136 O139 1.970 . S
Co136 N153 1.989 . S
Co136 O161 1.967 . S
Co136 O168 1.920 . S
Co137 O140 1.966 . S
Co137 N146 2.022 1_556 S
Co137 N154 1.993 . S
Co137 O162 1.941 1_556 S
C138 O139 1.258 . S
C138 O140 1.263 . S
O139 Co136 1.970 . S
O139 C138 1.258 . S
O140 Co137 1.966 . S
O140 C138 1.263 . S
C141 O142 1.235 . S
C141 O168 1.289 . S
O142 C141 1.235 . S
C143 C145 1.400 . S
C143 N146 1.351 . S
C143 C148 1.501 1_554 S
C144 C145 1.387 . S
C144 N147 1.341 . S
C145 C143 1.400 . S
C145 C144 1.387 . S
N146 Co137 2.022 1_554 S
N146 C143 1.351 . S
N146 N147 1.365 . S
N147 C144 1.341 . S
N147 N146 1.365 . S
N147 H167 0.862 . S
C148 C143 1.501 1_556 S
C148 H149 0.961 . S
C148 H150 0.961 . S
C148 H151 0.960 . S
H149 C148 0.961 . S
H150 C148 0.961 . S
H151 C148 0.960 . S
C152 N153 1.342 . S
C152 C156 1.401 1_556 S
C152 C157 1.499 . S
N153 Co136 1.989 . S
N153 C152 1.342 . S
N153 N154 1.388 . S
N154 Co137 1.993 . S
N154 N153 1.388 . S
N154 C155 1.346 1_556 S
C155 N154 1.346 1_554 S
C155 C156 1.396 . S
C155 C165 1.510 . S
C156 C152 1.401 1_554 S
C156 C155 1.396 . S
C157 C152 1.499 . S
C157 H158 0.959 . S
C157 H159 0.960 . S
C157 H160 0.961 . S
H158 C157 0.959 . S
H159 C157 0.960 . S
H160 C157 0.961 . S
O161 Co136 1.967 . S
O161 C169 1.258 . S
O162 Co137 1.941 1_554 S
O162 C169 1.266 1_554 S
H163 C165 0.959 . S
H164 C165 0.961 . S
C165 C155 1.510 . S
C165 H163 0.959 . S
C165 H164 0.961 . S
C165 H166 0.960 . S
H166 C165 0.960 . S
H167 N147 0.862 . S
O168 Co136 1.920 . S
O168 C141 1.289 . S
C169 O161 1.258 . S
C169 O162 1.266 1_556 S
Co170 O173 1.970 . S
Co170 N187 1.989 . S
Co170 O195 1.967 . S
Co170 O202 1.920 . S
Co171 O174 1.966 . S
Co171 N180 2.022 . S
Co171 N188 1.993 . S
Co171 O196 1.941 . S
C172 O173 1.258 . S
C172 O174 1.263 . S
O173 Co170 1.970 . S
O173 C172 1.258 . S
O174 Co171 1.966 . S
O174 C172 1.263 . S
C175 O176 1.235 . S
C175 O202 1.289 . S
O176 C175 1.235 . S
C177 C179 1.400 . S
C177 N180 1.351 . S
C177 C182 1.501 . S
C178 C179 1.387 . S
C178 N181 1.341 . S
C179 C177 1.400 . S
C179 C178 1.387 . S
N180 Co171 2.022 . S
N180 C177 1.351 . S
N180 N181 1.365 . S
N181 C178 1.341 . S
N181 N180 1.365 . S
N181 H201 0.862 . S
C182 C177 1.501 . S
C182 H183 0.961 . S
C182 H184 0.961 . S
C182 H185 0.960 . S
H183 C182 0.961 . S
H184 C182 0.961 . S
H185 C182 0.960 . S
C186 N187 1.342 . S
C186 C190 1.401 . S
C186 C191 1.499 . S
N187 Co170 1.989 . S
N187 C186 1.342 . S
N187 N188 1.388 . S
N188 Co171 1.993 . S
N188 N187 1.388 . S
N188 C189 1.346 . S
C189 N188 1.346 . S
C189 C190 1.396 . S
C189 C199 1.510 . S
C190 C186 1.401 . S
C190 C189 1.396 . S
C191 C186 1.499 . S
C191 H192 0.959 . S
C191 H193 0.960 . S
C191 H194 0.961 . S
H192 C191 0.959 . S
H193 C191 0.960 . S
H194 C191 0.961 . S
O195 Co170 1.967 . S
O195 C203 1.258 . S
O196 Co171 1.941 . S
O196 C203 1.266 . S
H197 C199 0.959 . S
H198 C199 0.961 . S
C199 C189 1.510 . S
C199 H197 0.959 . S
C199 H198 0.961 . S
C199 H200 0.960 . S
H200 C199 0.960 . S
H201 N181 0.862 . S
O202 Co170 1.920 . S
O202 C175 1.289 . S
C203 O195 1.258 . S
C203 O196 1.266 . S
Co204 O207 1.970 . S
Co204 N221 1.989 . S
Co204 O229 1.967 . S
Co204 O236 1.920 . S
Co205 O208 1.966 . S
Co205 N214 2.022 . S
Co205 N222 1.993 . S
Co205 O230 1.941 . S
C206 O207 1.258 . S
C206 O208 1.263 . S
O207 Co204 1.970 . S
O207 C206 1.258 . S
O208 Co205 1.966 . S
O208 C206 1.263 . S
C209 O210 1.235 . S
C209 O236 1.289 . S
O210 C209 1.235 . S
C211 C213 1.400 . S
C211 N214 1.351 . S
C211 C216 1.501 . S
C212 C213 1.387 . S
C212 N215 1.341 . S
C213 C211 1.400 . S
C213 C212 1.387 . S
N214 Co205 2.022 . S
N214 C211 1.351 . S
N214 N215 1.365 . S
N215 C212 1.341 . S
N215 N214 1.365 . S
N215 H235 0.862 . S
C216 C211 1.501 . S
C216 H217 0.961 . S
C216 H218 0.961 . S
C216 H219 0.960 . S
H217 C216 0.961 . S
H218 C216 0.961 . S
H219 C216 0.960 . S
C220 N221 1.342 . S
C220 C224 1.401 . S
C220 C225 1.499 . S
N221 Co204 1.989 . S
N221 C220 1.342 . S
N221 N222 1.388 . S
N222 Co205 1.993 . S
N222 N221 1.388 . S
N222 C223 1.346 . S
C223 N222 1.346 . S
C223 C224 1.396 . S
C223 C233 1.510 . S
C224 C220 1.401 . S
C224 C223 1.396 . S
C225 C220 1.499 . S
C225 H226 0.959 . S
C225 H227 0.960 . S
C225 H228 0.961 . S
H226 C225 0.959 . S
H227 C225 0.960 . S
H228 C225 0.961 . S
O229 Co204 1.967 . S
O229 C237 1.258 . S
O230 Co205 1.941 . S
O230 C237 1.266 . S
H231 C233 0.959 . S
H232 C233 0.961 . S
C233 C223 1.510 . S
C233 H231 0.959 . S
C233 H232 0.961 . S
C233 H234 0.960 . S
H234 C233 0.960 . S
H235 N215 0.862 . S
O236 Co204 1.920 . S
O236 C209 1.289 . S
C237 O229 1.258 . S
C237 O230 1.266 . S
Co238 O241 1.970 . S
Co238 N255 1.989 . S
Co238 O263 1.967 . S
Co238 O270 1.920 . S
Co239 O242 1.966 . S
Co239 N248 2.022 . S
Co239 N256 1.993 . S
Co239 O264 1.941 . S
C240 O241 1.258 . S
C240 O242 1.263 . S
O241 Co238 1.970 . S
O241 C240 1.258 . S
O242 Co239 1.966 . S
O242 C240 1.263 . S
C243 O244 1.235 . S
C243 O270 1.289 . S
O244 C243 1.235 . S
C245 C247 1.400 1_455 S
C245 N248 1.351 . S
C245 C250 1.502 . S
C246 C247 1.387 1_455 S
C246 N249 1.341 . S
C247 C245 1.400 1_655 S
C247 C246 1.387 1_655 S
N248 Co239 2.022 . S
N248 C245 1.351 . S
N248 N249 1.365 . S
N249 C246 1.341 . S
N249 N248 1.365 . S
N249 H269 0.862 . S
C250 C245 1.502 . S
C250 H251 0.965 . S
C250 H252 0.960 1_455 S
C250 H253 0.956 1_455 S
H251 C250 0.965 . S
H252 C250 0.960 1_655 S
H253 C250 0.956 1_655 S
C254 N255 1.342 . S
C254 C258 1.401 . S
C254 C259 1.499 . S
N255 Co238 1.989 . S
N255 C254 1.342 . S
N255 N256 1.388 . S
N256 Co239 1.993 . S
N256 N255 1.388 . S
N256 C257 1.346 . S
C257 N256 1.346 . S
C257 C258 1.396 . S
C257 C267 1.510 . S
C258 C254 1.401 . S
C258 C257 1.396 . S
C259 C254 1.499 . S
C259 H260 0.959 . S
C259 H261 0.960 . S
C259 H262 0.961 . S
H260 C259 0.959 . S
H261 C259 0.960 . S
H262 C259 0.961 . S
O263 Co238 1.967 . S
O263 C271 1.258 . S
O264 Co239 1.941 . S
O264 C271 1.266 . S
H265 C267 0.959 . S
H266 C267 0.961 . S
C267 C257 1.510 . S
C267 H265 0.959 . S
C267 H266 0.961 . S
C267 H268 0.960 . S
H268 C267 0.960 . S
H269 N249 0.862 . S
O270 Co238 1.920 . S
O270 C243 1.289 . S
C271 O263 1.258 . S
C271 O264 1.266 . S
Co272 O275 1.970 . S
Co272 N289 1.989 . S
Co272 O297 1.967 . S
Co272 O304 1.920 . S
Co273 O276 1.966 . S
Co273 N282 2.022 . S
Co273 N290 1.993 . S
Co273 O298 1.941 . S
C274 O275 1.258 . S
C274 O276 1.263 . S
O275 Co272 1.970 . S
O275 C274 1.258 . S
O276 Co273 1.966 . S
O276 C274 1.263 . S
C277 O278 1.235 . S
C277 O304 1.289 . S
O278 C277 1.235 . S
C279 C281 1.400 . S
C279 N282 1.351 . S
C279 C284 1.501 . S
C280 C281 1.387 . S
C280 N283 1.341 . S
C281 C279 1.400 . S
C281 C280 1.387 . S
N282 Co273 2.022 . S
N282 C279 1.351 . S
N282 N283 1.365 . S
N283 C280 1.341 . S
N283 N282 1.365 . S
N283 H303 0.862 . S
C284 C279 1.501 . S
C284 H285 0.961 . S
C284 H286 0.961 . S
C284 H287 0.960 . S
H285 C284 0.961 . S
H286 C284 0.961 . S
H287 C284 0.960 . S
C288 N289 1.342 . S
C288 C292 1.401 . S
C288 C293 1.499 . S
N289 Co272 1.989 . S
N289 C288 1.342 . S
N289 N290 1.388 . S
N290 Co273 1.993 . S
N290 N289 1.388 . S
N290 C291 1.346 . S
C291 N290 1.346 . S
C291 C292 1.396 . S
C291 C301 1.510 . S
C292 C288 1.401 . S
C292 C291 1.396 . S
C293 C288 1.499 . S
C293 H294 0.959 . S
C293 H295 0.960 . S
C293 H296 0.961 . S
H294 C293 0.959 . S
H295 C293 0.960 . S
H296 C293 0.961 . S
O297 Co272 1.967 . S
O297 C305 1.258 . S
O298 Co273 1.941 . S
O298 C305 1.266 . S
H299 C301 0.959 . S
H300 C301 0.961 . S
C301 C291 1.510 . S
C301 H299 0.959 . S
C301 H300 0.961 . S
C301 H302 0.960 . S
H302 C301 0.960 . S
H303 N283 0.862 . S
O304 Co272 1.920 . S
O304 C277 1.289 . S
C305 O297 1.258 . S
C305 O298 1.266 . S
Co306 O309 1.970 . S
Co306 N323 1.989 . S
Co306 O331 1.967 . S
Co306 O338 1.920 . S
Co307 O310 1.966 . S
Co307 N316 2.022 . S
Co307 N324 1.993 . S
Co307 O332 1.941 . S
C308 O309 1.258 . S
C308 O310 1.263 . S
O309 Co306 1.970 . S
O309 C308 1.258 . S
O310 Co307 1.966 . S
O310 C308 1.263 . S
C311 O312 1.235 . S
C311 O338 1.289 . S
O312 C311 1.235 . S
C313 C315 1.400 1_455 S
C313 N316 1.351 . S
C313 C318 1.502 . S
C314 C315 1.387 1_455 S
C314 N317 1.341 . S
C315 C313 1.400 1_655 S
C315 C314 1.387 1_655 S
N316 Co307 2.022 . S
N316 C313 1.351 . S
N316 N317 1.365 . S
N317 C314 1.341 . S
N317 N316 1.365 . S
N317 H337 0.862 . S
C318 C313 1.502 . S
C318 H319 0.965 . S
C318 H320 0.960 1_455 S
C318 H321 0.956 1_455 S
H319 C318 0.965 . S
H320 C318 0.960 1_655 S
H321 C318 0.956 1_655 S
C322 N323 1.342 . S
C322 C326 1.401 . S
C322 C327 1.499 . S
N323 Co306 1.989 . S
N323 C322 1.342 . S
N323 N324 1.388 . S
N324 Co307 1.993 . S
N324 N323 1.388 . S
N324 C325 1.346 . S
C325 N324 1.346 . S
C325 C326 1.396 . S
C325 C335 1.510 . S
C326 C322 1.401 . S
C326 C325 1.396 . S
C327 C322 1.499 . S
C327 H328 0.959 . S
C327 H329 0.960 . S
C327 H330 0.961 . S
H328 C327 0.959 . S
H329 C327 0.960 . S
H330 C327 0.961 . S
O331 Co306 1.967 . S
O331 C339 1.258 . S
O332 Co307 1.941 . S
O332 C339 1.266 . S
H333 C335 0.959 . S
H334 C335 0.961 . S
C335 C325 1.510 . S
C335 H333 0.959 . S
C335 H334 0.961 . S
C335 H336 0.960 . S
H336 C335 0.960 . S
H337 N317 0.862 . S
O338 Co306 1.920 . S
O338 C311 1.289 . S
C339 O331 1.258 . S
C339 O332 1.266 . S
Co340 O343 1.970 . S
Co340 N357 1.989 . S
Co340 O365 1.967 . S
Co340 O372 1.920 . S
Co341 O344 1.966 . S
Co341 N350 2.022 1_554 S
Co341 N358 1.993 . S
Co341 O366 1.941 1_554 S
C342 O343 1.258 . S
C342 O344 1.263 . S
O343 Co340 1.970 . S
O343 C342 1.258 . S
O344 Co341 1.966 . S
O344 C342 1.263 . S
C345 O346 1.235 . S
C345 O372 1.289 . S
O346 C345 1.235 . S
C347 C349 1.400 . S
C347 N350 1.351 . S
C347 C352 1.501 1_556 S
C348 C349 1.387 . S
C348 N351 1.341 . S
C349 C347 1.400 . S
C349 C348 1.387 . S
N350 Co341 2.022 1_556 S
N350 C347 1.351 . S
N350 N351 1.365 . S
N351 C348 1.341 . S
N351 N350 1.365 . S
N351 H371 0.862 . S
C352 C347 1.501 1_554 S
C352 H353 0.961 . S
C352 H354 0.961 . S
C352 H355 0.960 . S
H353 C352 0.961 . S
H354 C352 0.961 . S
H355 C352 0.960 . S
C356 N357 1.342 . S
C356 C360 1.401 1_554 S
C356 C361 1.499 . S
N357 Co340 1.989 . S
N357 C356 1.342 . S
N357 N358 1.388 . S
N358 Co341 1.993 . S
N358 N357 1.388 . S
N358 C359 1.346 1_554 S
C359 N358 1.346 1_556 S
C359 C360 1.396 . S
C359 C369 1.510 . S
C360 C356 1.401 1_556 S
C360 C359 1.396 . S
C361 C356 1.499 . S
C361 H362 0.959 . S
C361 H363 0.960 . S
C361 H364 0.961 . S
H362 C361 0.959 . S
H363 C361 0.960 . S
H364 C361 0.961 . S
O365 Co340 1.967 . S
O365 C373 1.258 . S
O366 Co341 1.941 1_556 S
O366 C373 1.266 1_556 S
H367 C369 0.959 . S
H368 C369 0.961 . S
C369 C359 1.510 . S
C369 H367 0.959 . S
C369 H368 0.961 . S
C369 H370 0.960 . S
H370 C369 0.960 . S
H371 N351 0.862 . S
O372 Co340 1.920 . S
O372 C345 1.289 . S
C373 O365 1.258 . S
C373 O366 1.266 1_554 S
Co374 O377 1.970 . S
Co374 N391 1.989 . S
Co374 O399 1.967 . S
Co374 O406 1.920 . S
Co375 O378 1.966 . S
Co375 N384 2.022 . S
Co375 N392 1.993 . S
Co375 O400 1.941 . S
C376 O377 1.258 . S
C376 O378 1.263 . S
O377 Co374 1.970 . S
O377 C376 1.258 . S
O378 Co375 1.966 . S
O378 C376 1.263 . S
C379 O380 1.235 . S
C379 O406 1.289 . S
O380 C379 1.235 . S
C381 C383 1.400 . S
C381 N384 1.351 . S
C381 C386 1.501 . S
C382 C383 1.387 . S
C382 N385 1.341 . S
C383 C381 1.400 . S
C383 C382 1.387 . S
N384 Co375 2.022 . S
N384 C381 1.351 . S
N384 N385 1.365 . S
N385 C382 1.341 . S
N385 N384 1.365 . S
N385 H405 0.862 . S
C386 C381 1.501 . S
C386 H387 0.961 . S
C386 H388 0.961 . S
C386 H389 0.960 . S
H387 C386 0.961 . S
H388 C386 0.961 . S
H389 C386 0.960 . S
C390 N391 1.342 . S
C390 C394 1.401 . S
C390 C395 1.499 . S
N391 Co374 1.989 . S
N391 C390 1.342 . S
N391 N392 1.388 . S
N392 Co375 1.993 . S
N392 N391 1.388 . S
N392 C393 1.346 . S
C393 N392 1.346 . S
C393 C394 1.396 . S
C393 C403 1.510 . S
C394 C390 1.401 . S
C394 C393 1.396 . S
C395 C390 1.499 . S
C395 H396 0.959 . S
C395 H397 0.960 . S
C395 H398 0.961 . S
H396 C395 0.959 . S
H397 C395 0.960 . S
H398 C395 0.961 . S
O399 Co374 1.967 . S
O399 C407 1.258 . S
O400 Co375 1.941 . S
O400 C407 1.266 . S
H401 C403 0.959 . S
H402 C403 0.961 . S
C403 C393 1.510 . S
C403 H401 0.959 . S
C403 H402 0.961 . S
C403 H404 0.960 . S
H404 C403 0.960 . S
H405 N385 0.862 . S
O406 Co374 1.920 . S
O406 C379 1.289 . S
C407 O399 1.258 . S
C407 O400 1.266 . S
Co408 O411 1.970 . S
Co408 N425 1.989 . S
Co408 O433 1.967 . S
Co408 O440 1.920 . S
Co409 O412 1.966 . S
Co409 N418 2.022 . S
Co409 N426 1.993 . S
Co409 O434 1.941 . S
C410 O411 1.258 . S
C410 O412 1.263 . S
O411 Co408 1.970 . S
O411 C410 1.258 . S
O412 Co409 1.966 . S
O412 C410 1.263 . S
C413 O414 1.235 . S
C413 O440 1.289 . S
O414 C413 1.235 . S
C415 C417 1.400 . S
C415 N418 1.351 . S
C415 C420 1.501 . S
C416 C417 1.387 . S
C416 N419 1.341 . S
C417 C415 1.400 . S
C417 C416 1.387 . S
N418 Co409 2.022 . S
N418 C415 1.351 . S
N418 N419 1.365 . S
N419 C416 1.341 . S
N419 N418 1.365 . S
N419 H439 0.862 . S
C420 C415 1.501 . S
C420 H421 0.961 . S
C420 H422 0.961 . S
C420 H423 0.960 . S
H421 C420 0.961 . S
H422 C420 0.961 . S
H423 C420 0.960 . S
C424 N425 1.342 . S
C424 C428 1.401 . S
C424 C429 1.499 . S
N425 Co408 1.989 . S
N425 C424 1.342 . S
N425 N426 1.388 . S
N426 Co409 1.993 . S
N426 N425 1.388 . S
N426 C427 1.346 . S
C427 N426 1.346 . S
C427 C428 1.396 . S
C427 C437 1.510 . S
C428 C424 1.401 . S
C428 C427 1.396 . S
C429 C424 1.499 . S
C429 H430 0.959 . S
C429 H431 0.960 . S
C429 H432 0.961 . S
H430 C429 0.959 . S
H431 C429 0.960 . S
H432 C429 0.961 . S
O433 Co408 1.967 . S
O433 C441 1.258 . S
O434 Co409 1.941 . S
O434 C441 1.266 . S
H435 C437 0.959 . S
H436 C437 0.961 . S
C437 C427 1.510 . S
C437 H435 0.959 . S
C437 H436 0.961 . S
C437 H438 0.960 . S
H438 C437 0.960 . S
H439 N419 0.862 . S
O440 Co408 1.920 . S
O440 C413 1.289 . S
C441 O433 1.258 . S
C441 O434 1.266 . S
Co442 O445 1.970 . S
Co442 N459 1.989 . S
Co442 O467 1.967 . S
Co442 O474 1.920 . S
Co443 O446 1.966 . S
Co443 N452 2.022 . S
Co443 N460 1.993 . S
Co443 O468 1.941 . S
C444 O445 1.258 . S
C444 O446 1.263 . S
O445 Co442 1.970 . S
O445 C444 1.258 . S
O446 Co443 1.966 . S
O446 C444 1.263 . S
C447 O448 1.235 . S
C447 O474 1.289 . S
O448 C447 1.235 . S
C449 C451 1.400 1_655 S
C449 N452 1.351 . S
C449 C454 1.502 . S
C450 C451 1.387 1_655 S
C450 N453 1.341 . S
C451 C449 1.400 1_455 S
C451 C450 1.387 1_455 S
N452 Co443 2.022 . S
N452 C449 1.351 . S
N452 N453 1.365 . S
N453 C450 1.341 . S
N453 N452 1.365 . S
N453 H473 0.862 . S
C454 C449 1.502 . S
C454 H455 0.965 . S
C454 H456 0.960 1_655 S
C454 H457 0.956 1_655 S
H455 C454 0.965 . S
H456 C454 0.960 1_455 S
H457 C454 0.956 1_455 S
C458 N459 1.342 . S
C458 C462 1.401 . S
C458 C463 1.499 . S
N459 Co442 1.989 . S
N459 C458 1.342 . S
N459 N460 1.388 . S
N460 Co443 1.993 . S
N460 N459 1.388 . S
N460 C461 1.346 . S
C461 N460 1.346 . S
C461 C462 1.396 . S
C461 C471 1.510 . S
C462 C458 1.401 . S
C462 C461 1.396 . S
C463 C458 1.499 . S
C463 H464 0.959 . S
C463 H465 0.960 . S
C463 H466 0.961 . S
H464 C463 0.959 . S
H465 C463 0.960 . S
H466 C463 0.961 . S
O467 Co442 1.967 . S
O467 C475 1.258 . S
O468 Co443 1.941 . S
O468 C475 1.266 . S
H469 C471 0.959 . S
H470 C471 0.961 . S
C471 C461 1.510 . S
C471 H469 0.959 . S
C471 H470 0.961 . S
C471 H472 0.960 . S
H472 C471 0.960 . S
H473 N453 0.862 . S
O474 Co442 1.920 . S
O474 C447 1.289 . S
C475 O467 1.258 . S
C475 O468 1.266 . S
Co476 O479 1.970 . S
Co476 N493 1.989 . S
Co476 O501 1.967 . S
Co476 O508 1.920 . S
Co477 O480 1.966 . S
Co477 N486 2.022 1_556 S
Co477 N494 1.993 . S
Co477 O502 1.941 1_556 S
C478 O479 1.258 . S
C478 O480 1.263 . S
O479 Co476 1.970 . S
O479 C478 1.258 . S
O480 Co477 1.966 . S
O480 C478 1.263 . S
C481 O482 1.235 . S
C481 O508 1.289 . S
O482 C481 1.235 . S
C483 C485 1.400 . S
C483 N486 1.351 . S
C483 C488 1.501 1_554 S
C484 C485 1.387 . S
C484 N487 1.341 . S
C485 C483 1.400 . S
C485 C484 1.387 . S
N486 Co477 2.022 1_554 S
N486 C483 1.351 . S
N486 N487 1.365 . S
N487 C484 1.341 . S
N487 N486 1.365 . S
N487 H507 0.862 . S
C488 C483 1.501 1_556 S
C488 H489 0.961 . S
C488 H490 0.961 . S
C488 H491 0.960 . S
H489 C488 0.961 . S
H490 C488 0.961 . S
H491 C488 0.960 . S
C492 N493 1.342 . S
C492 C496 1.401 1_556 S
C492 C497 1.499 . S
N493 Co476 1.989 . S
N493 C492 1.342 . S
N493 N494 1.388 . S
N494 Co477 1.993 . S
N494 N493 1.388 . S
N494 C495 1.346 1_556 S
C495 N494 1.346 1_554 S
C495 C496 1.396 . S
C495 C505 1.510 . S
C496 C492 1.401 1_554 S
C496 C495 1.396 . S
C497 C492 1.499 . S
C497 H498 0.959 . S
C497 H499 0.960 . S
C497 H500 0.961 . S
H498 C497 0.959 . S
H499 C497 0.960 . S
H500 C497 0.961 . S
O501 Co476 1.967 . S
O501 C509 1.258 . S
O502 Co477 1.941 1_554 S
O502 C509 1.266 1_554 S
H503 C505 0.959 . S
H504 C505 0.961 . S
C505 C495 1.510 . S
C505 H503 0.959 . S
C505 H504 0.961 . S
C505 H506 0.960 . S
H506 C505 0.960 . S
H507 N487 0.862 . S
O508 Co476 1.920 . S
O508 C481 1.289 . S
C509 O501 1.258 . S
C509 O502 1.266 1_556 S
Co510 O513 1.970 . S
Co510 N527 1.989 . S
Co510 O535 1.967 . S
Co510 O542 1.920 . S
Co511 O514 1.966 . S
Co511 N520 2.022 . S
Co511 N528 1.993 . S
Co511 O536 1.941 . S
C512 O513 1.258 . S
C512 O514 1.263 . S
O513 Co510 1.970 . S
O513 C512 1.258 . S
O514 Co511 1.966 . S
O514 C512 1.263 . S
C515 O516 1.235 . S
C515 O542 1.289 . S
O516 C515 1.235 . S
C517 C519 1.400 . S
C517 N520 1.351 . S
C517 C522 1.501 . S
C518 C519 1.387 . S
C518 N521 1.341 . S
C519 C517 1.400 . S
C519 C518 1.387 . S
N520 Co511 2.022 . S
N520 C517 1.351 . S
N520 N521 1.365 . S
N521 C518 1.341 . S
N521 N520 1.365 . S
N521 H541 0.862 . S
C522 C517 1.501 . S
C522 H523 0.961 . S
C522 H524 0.961 . S
C522 H525 0.960 . S
H523 C522 0.961 . S
H524 C522 0.961 . S
H525 C522 0.960 . S
C526 N527 1.342 . S
C526 C530 1.401 . S
C526 C531 1.499 . S
N527 Co510 1.989 . S
N527 C526 1.342 . S
N527 N528 1.388 . S
N528 Co511 1.993 . S
N528 N527 1.388 . S
N528 C529 1.346 . S
C529 N528 1.346 . S
C529 C530 1.396 . S
C529 C539 1.510 . S
C530 C526 1.401 . S
C530 C529 1.396 . S
C531 C526 1.499 . S
C531 H532 0.959 . S
C531 H533 0.960 . S
C531 H534 0.961 . S
H532 C531 0.959 . S
H533 C531 0.960 . S
H534 C531 0.961 . S
O535 Co510 1.967 . S
O535 C543 1.258 . S
O536 Co511 1.941 . S
O536 C543 1.266 . S
H537 C539 0.959 . S
H538 C539 0.961 . S
C539 C529 1.510 . S
C539 H537 0.959 . S
C539 H538 0.961 . S
C539 H540 0.960 . S
H540 C539 0.960 . S
H541 N521 0.862 . S
O542 Co510 1.920 . S
O542 C515 1.289 . S
C543 O535 1.258 . S
C543 O536 1.266 . S
H544 C556 0.930 . S
H545 C558 0.930 . S
H546 C559 0.930 . S
H547 C563 0.959 . S
H548 C563 0.959 . S
H549 C563 0.961 . S
H550 C564 0.960 . S
H551 C564 0.961 . S
H552 C564 0.959 . S
H553 C567 0.929 . S
H554 C568 0.931 . S
H555 C570 0.930 . S
C556 H544 0.930 . S
C556 C557 1.399 . S
C556 C561 1.399 . S
C557 C556 1.399 . S
C557 C558 1.376 . S
C558 H545 0.930 . S
C558 C557 1.376 . S
C558 C559 1.388 . S
C559 H546 0.930 . S
C559 C558 1.388 . S
C559 C560 1.390 . S
C560 C559 1.390 . S
C560 C561 1.394 . S
C560 C566 1.465 . S
C561 C556 1.399 . S
C561 C560 1.394 . S
C561 C562 1.516 . S
C562 C561 1.516 . S
C562 C563 1.502 . S
C562 C564 1.561 . S
C562 C565 1.526 . S
C563 H547 0.959 . S
C563 H548 0.959 . S
C563 H549 0.961 . S
C563 C562 1.502 . S
C564 H550 0.960 . S
C564 H551 0.961 . S
C564 H552 0.959 . S
C564 C562 1.561 . S
C565 C562 1.526 . S
C565 C566 1.396 . S
C565 C570 1.390 . S
C566 C560 1.465 . S
C566 C565 1.396 . S
C566 C567 1.399 . S
C567 H553 0.929 . S
C567 C566 1.399 . S
C567 C568 1.385 . S
C568 H554 0.931 . S
C568 C567 1.385 . S
C568 C569 1.389 . S
C569 C568 1.389 . S
C569 C570 1.387 . S
C570 H555 0.930 . S
C570 C565 1.390 . S
C570 C569 1.387 . S
H571 C583 0.930 . S
H572 C585 0.930 . S
H573 C586 0.930 . S
H574 C590 0.959 . S
H575 C590 0.959 . S
H576 C590 0.961 . S
H577 C591 0.960 . S
H578 C591 0.961 . S
H579 C591 0.959 . S
H580 C594 0.929 . S
H581 C595 0.931 . S
H582 C597 0.930 . S
C583 H571 0.930 . S
C583 C584 1.399 . S
C583 C588 1.399 . S
C584 C583 1.399 . S
C584 C585 1.376 . S
C585 H572 0.930 . S
C585 C584 1.376 . S
C585 C586 1.388 . S
C586 H573 0.930 . S
C586 C585 1.388 . S
C586 C587 1.390 . S
C587 C586 1.390 . S
C587 C588 1.394 . S
C587 C593 1.465 . S
C588 C583 1.399 . S
C588 C587 1.394 . S
C588 C589 1.516 . S
C589 C588 1.516 . S
C589 C590 1.502 . S
C589 C591 1.561 . S
C589 C592 1.526 . S
C590 H574 0.959 . S
C590 H575 0.959 . S
C590 H576 0.961 . S
C590 C589 1.502 . S
C591 H577 0.960 . S
C591 H578 0.961 . S
C591 H579 0.959 . S
C591 C589 1.561 . S
C592 C589 1.526 . S
C592 C593 1.396 . S
C592 C597 1.390 . S
C593 C587 1.465 . S
C593 C592 1.396 . S
C593 C594 1.399 . S
C594 H580 0.929 . S
C594 C593 1.399 . S
C594 C595 1.385 . S
C595 H581 0.931 . S
C595 C594 1.385 . S
C595 C596 1.389 . S
C596 C595 1.389 . S
C596 C597 1.387 . S
C597 H582 0.930 . S
C597 C592 1.390 . S
C597 C596 1.387 . S
H598 C610 0.930 . S
H599 C612 0.930 . S
H600 C613 0.930 . S
H601 C617 0.959 . S
H602 C617 0.959 . S
H603 C617 0.961 . S
H604 C618 0.960 . S
H605 C618 0.961 . S
H606 C618 0.959 . S
H607 C621 0.929 . S
H608 C622 0.931 . S
H609 C624 0.930 . S
C610 H598 0.930 . S
C610 C611 1.399 . S
C610 C615 1.399 . S
C611 C610 1.399 . S
C611 C612 1.376 . S
C612 H599 0.930 . S
C612 C611 1.376 . S
C612 C613 1.388 . S
C613 H600 0.930 . S
C613 C612 1.388 . S
C613 C614 1.390 . S
C614 C613 1.390 . S
C614 C615 1.394 . S
C614 C620 1.465 . S
C615 C610 1.399 . S
C615 C614 1.394 . S
C615 C616 1.516 . S
C616 C615 1.516 . S
C616 C617 1.502 . S
C616 C618 1.561 . S
C616 C619 1.526 . S
C617 H601 0.959 . S
C617 H602 0.959 . S
C617 H603 0.961 . S
C617 C616 1.502 . S
C618 H604 0.960 . S
C618 H605 0.961 . S
C618 H606 0.959 . S
C618 C616 1.561 . S
C619 C616 1.526 . S
C619 C620 1.396 . S
C619 C624 1.390 . S
C620 C614 1.465 . S
C620 C619 1.396 . S
C620 C621 1.399 . S
C621 H607 0.929 . S
C621 C620 1.399 . S
C621 C622 1.385 . S
C622 H608 0.931 . S
C622 C621 1.385 . S
C622 C623 1.389 . S
C623 C622 1.389 . S
C623 C624 1.387 . S
C624 H609 0.930 . S
C624 C619 1.390 . S
C624 C623 1.387 . S
H625 C637 0.930 . S
H626 C639 0.930 . S
H627 C640 0.930 . S
H628 C644 0.959 . S
H629 C644 0.959 . S
H630 C644 0.961 . S
H631 C645 0.960 . S
H632 C645 0.961 . S
H633 C645 0.959 . S
H634 C648 0.929 . S
H635 C649 0.931 . S
H636 C651 0.930 . S
C637 H625 0.930 . S
C637 C638 1.399 . S
C637 C642 1.399 . S
C638 C637 1.399 . S
C638 C639 1.376 . S
C639 H626 0.930 . S
C639 C638 1.376 . S
C639 C640 1.388 . S
C640 H627 0.930 . S
C640 C639 1.388 . S
C640 C641 1.390 . S
C641 C640 1.390 . S
C641 C642 1.394 . S
C641 C647 1.465 . S
C642 C637 1.399 . S
C642 C641 1.394 . S
C642 C643 1.516 . S
C643 C642 1.516 . S
C643 C644 1.502 . S
C643 C645 1.561 . S
C643 C646 1.526 . S
C644 H628 0.959 . S
C644 H629 0.959 . S
C644 H630 0.961 . S
C644 C643 1.502 . S
C645 H631 0.960 . S
C645 H632 0.961 . S
C645 H633 0.959 . S
C645 C643 1.561 . S
C646 C643 1.526 . S
C646 C647 1.396 . S
C646 C651 1.390 . S
C647 C641 1.465 . S
C647 C646 1.396 . S
C647 C648 1.399 . S
C648 H634 0.929 . S
C648 C647 1.399 . S
C648 C649 1.385 . S
C649 H635 0.931 . S
C649 C648 1.385 . S
C649 C650 1.389 . S
C650 C649 1.389 . S
C650 C651 1.387 . S
C651 H636 0.930 . S
C651 C646 1.390 . S
C651 C650 1.387 . S
H652 C664 0.930 . S
H653 C666 0.930 . S
H654 C667 0.930 . S
H655 C671 0.959 . S
H656 C671 0.959 . S
H657 C671 0.961 . S
H658 C672 0.960 . S
H659 C672 0.961 . S
H660 C672 0.959 . S
H661 C675 0.929 . S
H662 C676 0.931 . S
H663 C678 0.930 . S
C664 H652 0.930 . S
C664 C665 1.399 . S
C664 C669 1.399 . S
C665 C664 1.399 . S
C665 C666 1.376 . S
C666 H653 0.930 . S
C666 C665 1.376 . S
C666 C667 1.388 . S
C667 H654 0.930 . S
C667 C666 1.388 . S
C667 C668 1.390 . S
C668 C667 1.390 . S
C668 C669 1.394 . S
C668 C674 1.465 . S
C669 C664 1.399 . S
C669 C668 1.394 . S
C669 C670 1.516 . S
C670 C669 1.516 . S
C670 C671 1.502 . S
C670 C672 1.561 . S
C670 C673 1.526 . S
C671 H655 0.959 . S
C671 H656 0.959 . S
C671 H657 0.961 . S
C671 C670 1.502 . S
C672 H658 0.960 . S
C672 H659 0.961 . S
C672 H660 0.959 . S
C672 C670 1.561 . S
C673 C670 1.526 . S
C673 C674 1.396 . S
C673 C678 1.390 . S
C674 C668 1.465 . S
C674 C673 1.396 . S
C674 C675 1.399 . S
C675 H661 0.929 . S
C675 C674 1.399 . S
C675 C676 1.385 . S
C676 H662 0.931 . S
C676 C675 1.385 . S
C676 C677 1.389 . S
C677 C676 1.389 . S
C677 C678 1.387 . S
C678 H663 0.930 . S
C678 C673 1.390 . S
C678 C677 1.387 . S
H679 C691 0.930 . S
H680 C693 0.930 . S
H681 C694 0.930 . S
H682 C698 0.959 . S
H683 C698 0.959 . S
H684 C698 0.961 . S
H685 C699 0.960 . S
H686 C699 0.961 . S
H687 C699 0.959 . S
H688 C702 0.929 . S
H689 C703 0.931 . S
H690 C705 0.930 . S
C691 H679 0.930 . S
C691 C692 1.399 . S
C691 C696 1.399 . S
C692 C691 1.399 . S
C692 C693 1.376 . S
C693 H680 0.930 . S
C693 C692 1.376 . S
C693 C694 1.388 . S
C694 H681 0.930 . S
C694 C693 1.388 . S
C694 C695 1.390 . S
C695 C694 1.390 . S
C695 C696 1.394 . S
C695 C701 1.465 . S
C696 C691 1.399 . S
C696 C695 1.394 . S
C696 C697 1.516 . S
C697 C696 1.516 . S
C697 C698 1.502 . S
C697 C699 1.561 . S
C697 C700 1.526 . S
C698 H682 0.959 . S
C698 H683 0.959 . S
C698 H684 0.961 . S
C698 C697 1.502 . S
C699 H685 0.960 . S
C699 H686 0.961 . S
C699 H687 0.959 . S
C699 C697 1.561 . S
C700 C697 1.526 . S
C700 C701 1.396 . S
C700 C705 1.390 . S
C701 C695 1.465 . S
C701 C700 1.396 . S
C701 C702 1.399 . S
C702 H688 0.929 . S
C702 C701 1.399 . S
C702 C703 1.385 . S
C703 H689 0.931 . S
C703 C702 1.385 . S
C703 C704 1.389 . S
C704 C703 1.389 . S
C704 C705 1.387 . S
C705 H690 0.930 . S
C705 C700 1.390 . S
C705 C704 1.387 . S
H706 C718 0.930 . S
H707 C720 0.930 1_455 S
H708 C721 0.930 . S
H709 C725 0.959 . S
H710 C725 0.959 . S
H711 C725 0.961 . S
H712 C726 0.960 . S
H713 C726 0.961 . S
H714 C726 0.959 . S
H715 C729 0.929 . S
H716 C730 0.931 . S
H717 C732 0.930 . S
C718 H706 0.930 . S
C718 C719 1.399 . S
C718 C723 1.399 . S
C719 C718 1.399 . S
C719 C720 1.376 . S
C720 H707 0.930 1_655 S
C720 C719 1.376 . S
C720 C721 1.388 . S
C721 H708 0.930 . S
C721 C720 1.388 . S
C721 C722 1.390 . S
C722 C721 1.390 . S
C722 C723 1.394 . S
C722 C728 1.465 . S
C723 C718 1.399 . S
C723 C722 1.394 . S
C723 C724 1.516 . S
C724 C723 1.516 . S
C724 C725 1.502 . S
C724 C726 1.561 . S
C724 C727 1.526 . S
C725 H709 0.959 . S
C725 H710 0.959 . S
C725 H711 0.961 . S
C725 C724 1.502 . S
C726 H712 0.960 . S
C726 H713 0.961 . S
C726 H714 0.959 . S
C726 C724 1.561 . S
C727 C724 1.526 . S
C727 C728 1.396 . S
C727 C732 1.390 . S
C728 C722 1.465 . S
C728 C727 1.396 . S
C728 C729 1.399 . S
C729 H715 0.929 . S
C729 C728 1.399 . S
C729 C730 1.385 . S
C730 H716 0.931 . S
C730 C729 1.385 . S
C730 C731 1.389 . S
C731 C730 1.389 . S
C731 C732 1.387 . S
C732 H717 0.930 . S
C732 C727 1.390 . S
C732 C731 1.387 . S
H733 C745 0.930 . S
H734 C747 0.930 . S
H735 C748 0.930 . S
H736 C752 0.959 . S
H737 C752 0.959 . S
H738 C752 0.961 . S
H739 C753 0.960 . S
H740 C753 0.961 . S
H741 C753 0.959 . S
H742 C756 0.929 . S
H743 C757 0.931 . S
H744 C759 0.930 . S
C745 H733 0.930 . S
C745 C746 1.399 . S
C745 C750 1.399 . S
C746 C745 1.399 . S
C746 C747 1.376 . S
C747 H734 0.930 . S
C747 C746 1.376 . S
C747 C748 1.388 . S
C748 H735 0.930 . S
C748 C747 1.388 . S
C748 C749 1.390 . S
C749 C748 1.390 . S
C749 C750 1.394 . S
C749 C755 1.465 . S
C750 C745 1.399 . S
C750 C749 1.394 . S
C750 C751 1.516 . S
C751 C750 1.516 . S
C751 C752 1.502 . S
C751 C753 1.561 . S
C751 C754 1.526 . S
C752 H736 0.959 . S
C752 H737 0.959 . S
C752 H738 0.961 . S
C752 C751 1.502 . S
C753 H739 0.960 . S
C753 H740 0.961 . S
C753 H741 0.959 . S
C753 C751 1.561 . S
C754 C751 1.526 . S
C754 C755 1.396 . S
C754 C759 1.390 . S
C755 C749 1.465 . S
C755 C754 1.396 . S
C755 C756 1.399 . S
C756 H742 0.929 . S
C756 C755 1.399 . S
C756 C757 1.385 . S
C757 H743 0.931 . S
C757 C756 1.385 . S
C757 C758 1.389 . S
C758 C757 1.389 . S
C758 C759 1.387 . S
C759 H744 0.930 . S
C759 C754 1.390 . S
C759 C758 1.387 . S
H760 C772 0.930 . S
H761 C774 0.930 . S
H762 C775 0.930 . S
H763 C779 0.959 . S
H764 C779 0.959 . S
H765 C779 0.961 . S
H766 C780 0.960 . S
H767 C780 0.961 . S
H768 C780 0.959 . S
H769 C783 0.929 . S
H770 C784 0.931 . S
H771 C786 0.930 . S
C772 H760 0.930 . S
C772 C773 1.399 . S
C772 C777 1.399 . S
C773 C772 1.399 . S
C773 C774 1.376 . S
C774 H761 0.930 . S
C774 C773 1.376 . S
C774 C775 1.388 . S
C775 H762 0.930 . S
C775 C774 1.388 . S
C775 C776 1.390 . S
C776 C775 1.390 . S
C776 C777 1.394 . S
C776 C782 1.465 . S
C777 C772 1.399 . S
C777 C776 1.394 . S
C777 C778 1.516 . S
C778 C777 1.516 . S
C778 C779 1.502 . S
C778 C780 1.561 . S
C778 C781 1.526 . S
C779 H763 0.959 . S
C779 H764 0.959 . S
C779 H765 0.961 . S
C779 C778 1.502 . S
C780 H766 0.960 . S
C780 H767 0.961 . S
C780 H768 0.959 . S
C780 C778 1.561 . S
C781 C778 1.526 . S
C781 C782 1.396 . S
C781 C786 1.390 . S
C782 C776 1.465 . S
C782 C781 1.396 . S
C782 C783 1.399 . S
C783 H769 0.929 . S
C783 C782 1.399 . S
C783 C784 1.385 . S
C784 H770 0.931 . S
C784 C783 1.385 . S
C784 C785 1.389 . S
C785 C784 1.389 . S
C785 C786 1.387 . S
C786 H771 0.930 . S
C786 C781 1.390 . S
C786 C785 1.387 . S
H787 C799 0.930 . S
H788 C801 0.930 . S
H789 C802 0.930 . S
H790 C806 0.959 . S
H791 C806 0.959 . S
H792 C806 0.961 . S
H793 C807 0.960 . S
H794 C807 0.961 . S
H795 C807 0.959 . S
H796 C810 0.929 . S
H797 C811 0.931 . S
H798 C813 0.930 . S
C799 H787 0.930 . S
C799 C800 1.399 . S
C799 C804 1.399 . S
C800 C799 1.399 . S
C800 C801 1.376 . S
C801 H788 0.930 . S
C801 C800 1.376 . S
C801 C802 1.388 . S
C802 H789 0.930 . S
C802 C801 1.388 . S
C802 C803 1.390 . S
C803 C802 1.390 . S
C803 C804 1.394 . S
C803 C809 1.465 . S
C804 C799 1.399 . S
C804 C803 1.394 . S
C804 C805 1.516 . S
C805 C804 1.516 . S
C805 C806 1.502 . S
C805 C807 1.561 . S
C805 C808 1.526 . S
C806 H790 0.959 . S
C806 H791 0.959 . S
C806 H792 0.961 . S
C806 C805 1.502 . S
C807 H793 0.960 . S
C807 H794 0.961 . S
C807 H795 0.959 . S
C807 C805 1.561 . S
C808 C805 1.526 . S
C808 C809 1.396 . S
C808 C813 1.390 . S
C809 C803 1.465 . S
C809 C808 1.396 . S
C809 C810 1.399 . S
C810 H796 0.929 . S
C810 C809 1.399 . S
C810 C811 1.385 . S
C811 H797 0.931 . S
C811 C810 1.385 . S
C811 C812 1.389 . S
C812 C811 1.389 . S
C812 C813 1.387 . S
C813 H798 0.930 . S
C813 C808 1.390 . S
C813 C812 1.387 . S
H814 C826 0.930 . S
H815 C828 0.930 . S
H816 C829 0.930 . S
H817 C833 0.959 . S
H818 C833 0.959 . S
H819 C833 0.961 . S
H820 C834 0.960 . S
H821 C834 0.961 . S
H822 C834 0.959 . S
H823 C837 0.929 . S
H824 C838 0.931 . S
H825 C840 0.930 . S
C826 H814 0.930 . S
C826 C827 1.399 . S
C826 C831 1.399 . S
C827 C826 1.399 . S
C827 C828 1.376 . S
C828 H815 0.930 . S
C828 C827 1.376 . S
C828 C829 1.388 . S
C829 H816 0.930 . S
C829 C828 1.388 . S
C829 C830 1.390 . S
C830 C829 1.390 . S
C830 C831 1.394 . S
C830 C836 1.465 . S
C831 C826 1.399 . S
C831 C830 1.394 . S
C831 C832 1.516 . S
C832 C831 1.516 . S
C832 C833 1.502 . S
C832 C834 1.561 . S
C832 C835 1.526 . S
C833 H817 0.959 . S
C833 H818 0.959 . S
C833 H819 0.961 . S
C833 C832 1.502 . S
C834 H820 0.960 . S
C834 H821 0.961 . S
C834 H822 0.959 . S
C834 C832 1.561 . S
C835 C832 1.526 . S
C835 C836 1.396 . S
C835 C840 1.390 . S
C836 C830 1.465 . S
C836 C835 1.396 . S
C836 C837 1.399 . S
C837 H823 0.929 . S
C837 C836 1.399 . S
C837 C838 1.385 . S
C838 H824 0.931 . S
C838 C837 1.385 . S
C838 C839 1.389 . S
C839 C838 1.389 . S
C839 C840 1.387 . S
C840 H825 0.930 . S
C840 C835 1.390 . S
C840 C839 1.387 . S
H841 C853 0.930 . S
H842 C855 0.930 . S
H843 C856 0.930 . S
H844 C860 0.959 . S
H845 C860 0.959 . S
H846 C860 0.961 . S
H847 C861 0.960 . S
H848 C861 0.961 . S
H849 C861 0.959 . S
H850 C864 0.929 . S
H851 C865 0.931 . S
H852 C867 0.930 . S
C853 H841 0.930 . S
C853 C854 1.399 . S
C853 C858 1.399 . S
C854 C853 1.399 . S
C854 C855 1.376 . S
C855 H842 0.930 . S
C855 C854 1.376 . S
C855 C856 1.388 . S
C856 H843 0.930 . S
C856 C855 1.388 . S
C856 C857 1.390 . S
C857 C856 1.390 . S
C857 C858 1.394 . S
C857 C863 1.465 . S
C858 C853 1.399 . S
C858 C857 1.394 . S
C858 C859 1.516 . S
C859 C858 1.516 . S
C859 C860 1.502 . S
C859 C861 1.561 . S
C859 C862 1.526 . S
C860 H844 0.959 . S
C860 H845 0.959 . S
C860 H846 0.961 . S
C860 C859 1.502 . S
C861 H847 0.960 . S
C861 H848 0.961 . S
C861 H849 0.959 . S
C861 C859 1.561 . S
C862 C859 1.526 . S
C862 C863 1.396 . S
C862 C867 1.390 . S
C863 C857 1.465 . S
C863 C862 1.396 . S
C863 C864 1.399 . S
C864 H850 0.929 . S
C864 C863 1.399 . S
C864 C865 1.385 . S
C865 H851 0.931 . S
C865 C864 1.385 . S
C865 C866 1.389 . S
C866 C865 1.389 . S
C866 C867 1.387 . S
C867 H852 0.930 . S
C867 C862 1.390 . S
C867 C866 1.387 . S
H868 C880 0.930 . S
H869 C882 0.930 . S
H870 C883 0.930 . S
H871 C887 0.959 . S
H872 C887 0.959 . S
H873 C887 0.961 . S
H874 C888 0.960 . S
H875 C888 0.961 . S
H876 C888 0.959 . S
H877 C891 0.929 . S
H878 C892 0.931 . S
H879 C894 0.930 . S
C880 H868 0.930 . S
C880 C881 1.399 . S
C880 C885 1.399 . S
C881 C880 1.399 . S
C881 C882 1.376 . S
C882 H869 0.930 . S
C882 C881 1.376 . S
C882 C883 1.388 . S
C883 H870 0.930 . S
C883 C882 1.388 . S
C883 C884 1.390 . S
C884 C883 1.390 . S
C884 C885 1.394 . S
C884 C890 1.465 . S
C885 C880 1.399 . S
C885 C884 1.394 . S
C885 C886 1.516 . S
C886 C885 1.516 . S
C886 C887 1.502 . S
C886 C888 1.561 . S
C886 C889 1.526 . S
C887 H871 0.959 . S
C887 H872 0.959 . S
C887 H873 0.961 . S
C887 C886 1.502 . S
C888 H874 0.960 . S
C888 H875 0.961 . S
C888 H876 0.959 . S
C888 C886 1.561 . S
C889 C886 1.526 . S
C889 C890 1.396 . S
C889 C894 1.390 . S
C890 C884 1.465 . S
C890 C889 1.396 . S
C890 C891 1.399 . S
C891 H877 0.929 . S
C891 C890 1.399 . S
C891 C892 1.385 . S
C892 H878 0.931 . S
C892 C891 1.385 . S
C892 C893 1.389 . S
C893 C892 1.389 . S
C893 C894 1.387 . S
C894 H879 0.930 . S
C894 C889 1.390 . S
C894 C893 1.387 . S
H895 C907 0.930 . S
H896 C909 0.930 . S
H897 C910 0.930 . S
H898 C914 0.959 . S
H899 C914 0.959 . S
H900 C914 0.961 . S
H901 C915 0.960 . S
H902 C915 0.961 . S
H903 C915 0.959 . S
H904 C918 0.929 . S
H905 C919 0.931 . S
H906 C921 0.930 . S
C907 H895 0.930 . S
C907 C908 1.399 . S
C907 C912 1.399 . S
C908 C907 1.399 . S
C908 C909 1.376 . S
C909 H896 0.930 . S
C909 C908 1.376 . S
C909 C910 1.388 . S
C910 H897 0.930 . S
C910 C909 1.388 . S
C910 C911 1.390 . S
C911 C910 1.390 . S
C911 C912 1.394 . S
C911 C917 1.465 . S
C912 C907 1.399 . S
C912 C911 1.394 . S
C912 C913 1.516 . S
C913 C912 1.516 . S
C913 C914 1.502 . S
C913 C915 1.561 . S
C913 C916 1.526 . S
C914 H898 0.959 . S
C914 H899 0.959 . S
C914 H900 0.961 . S
C914 C913 1.502 . S
C915 H901 0.960 . S
C915 H902 0.961 . S
C915 H903 0.959 . S
C915 C913 1.561 . S
C916 C913 1.526 . S
C916 C917 1.396 . S
C916 C921 1.390 . S
C917 C911 1.465 . S
C917 C916 1.396 . S
C917 C918 1.399 . S
C918 H904 0.929 . S
C918 C917 1.399 . S
C918 C919 1.385 . S
C919 H905 0.931 . S
C919 C918 1.385 . S
C919 C920 1.389 . S
C920 C919 1.389 . S
C920 C921 1.387 . S
C921 H906 0.930 . S
C921 C916 1.390 . S
C921 C920 1.387 . S
H922 C934 0.930 . S
H923 C936 0.930 . S
H924 C937 0.930 . S
H925 C941 0.959 . S
H926 C941 0.959 . S
H927 C941 0.961 . S
H928 C942 0.960 . S
H929 C942 0.961 . S
H930 C942 0.959 . S
H931 C945 0.929 . S
H932 C946 0.931 . S
H933 C948 0.930 . S
C934 H922 0.930 . S
C934 C935 1.399 . S
C934 C939 1.399 . S
C935 C934 1.399 . S
C935 C936 1.376 . S
C936 H923 0.930 . S
C936 C935 1.376 . S
C936 C937 1.388 . S
C937 H924 0.930 . S
C937 C936 1.388 . S
C937 C938 1.390 . S
C938 C937 1.390 . S
C938 C939 1.394 . S
C938 C944 1.465 . S
C939 C934 1.399 . S
C939 C938 1.394 . S
C939 C940 1.516 . S
C940 C939 1.516 . S
C940 C941 1.502 . S
C940 C942 1.561 . S
C940 C943 1.526 . S
C941 H925 0.959 . S
C941 H926 0.959 . S
C941 H927 0.961 . S
C941 C940 1.502 . S
C942 H928 0.960 . S
C942 H929 0.961 . S
C942 H930 0.959 . S
C942 C940 1.561 . S
C943 C940 1.526 . S
C943 C944 1.396 . S
C943 C948 1.390 . S
C944 C938 1.465 . S
C944 C943 1.396 . S
C944 C945 1.399 . S
C945 H931 0.929 . S
C945 C944 1.399 . S
C945 C946 1.385 . S
C946 H932 0.931 . S
C946 C945 1.385 . S
C946 C947 1.389 . S
C947 C946 1.389 . S
C947 C948 1.387 . S
C948 H933 0.930 . S
C948 C943 1.390 . S
C948 C947 1.387 . S
H949 C961 0.930 . S
H950 C963 0.930 . S
H951 C964 0.930 . S
H952 C968 0.959 . S
H953 C968 0.959 . S
H954 C968 0.961 . S
H955 C969 0.960 . S
H956 C969 0.961 . S
H957 C969 0.959 . S
H958 C972 0.929 . S
H959 C973 0.931 . S
H960 C975 0.930 . S
C961 H949 0.930 . S
C961 C962 1.399 . S
C961 C966 1.399 . S
C962 C961 1.399 . S
C962 C963 1.376 . S
C963 H950 0.930 . S
C963 C962 1.376 . S
C963 C964 1.388 . S
C964 H951 0.930 . S
C964 C963 1.388 . S
C964 C965 1.390 . S
C965 C964 1.390 . S
C965 C966 1.394 . S
C965 C971 1.465 . S
C966 C961 1.399 . S
C966 C965 1.394 . S
C966 C967 1.516 . S
C967 C966 1.516 . S
C967 C968 1.502 . S
C967 C969 1.561 . S
C967 C970 1.526 . S
C968 H952 0.959 . S
C968 H953 0.959 . S
C968 H954 0.961 . S
C968 C967 1.502 . S
C969 H955 0.960 . S
C969 H956 0.961 . S
C969 H957 0.959 . S
C969 C967 1.561 . S
C970 C967 1.526 . S
C970 C971 1.396 . S
C970 C975 1.390 . S
C971 C965 1.465 . S
C971 C970 1.396 . S
C971 C972 1.399 . S
C972 H958 0.929 . S
C972 C971 1.399 . S
C972 C973 1.385 . S
C973 H959 0.931 . S
C973 C972 1.385 . S
C973 C974 1.389 . S
C974 C973 1.389 . S
C974 C975 1.387 . S
C975 H960 0.930 . S
C975 C970 1.390 . S
C975 C974 1.387 . S
H976 C988 0.930 . S
H977 C990 0.930 . S
H978 C991 0.930 . S
H979 C995 0.959 . S
H980 C995 0.959 . S
H981 C995 0.961 . S
H982 C996 0.960 . S
H983 C996 0.961 . S
H984 C996 0.959 . S
H985 C999 0.929 . S
H986 C1000 0.931 . S
H987 C1002 0.930 . S
C988 H976 0.930 . S
C988 C989 1.399 . S
C988 C993 1.399 . S
C989 C988 1.399 . S
C989 C990 1.376 . S
C990 H977 0.930 . S
C990 C989 1.376 . S
C990 C991 1.388 . S
C991 H978 0.930 . S
C991 C990 1.388 . S
C991 C992 1.390 . S
C992 C991 1.390 . S
C992 C993 1.394 . S
C992 C998 1.465 . S
C993 C988 1.399 . S
C993 C992 1.394 . S
C993 C994 1.516 . S
C994 C993 1.516 . S
C994 C995 1.502 . S
C994 C996 1.561 . S
C994 C997 1.526 . S
C995 H979 0.959 . S
C995 H980 0.959 . S
C995 H981 0.961 . S
C995 C994 1.502 . S
C996 H982 0.960 . S
C996 H983 0.961 . S
C996 H984 0.959 . S
C996 C994 1.561 . S
C997 C994 1.526 . S
C997 C998 1.396 . S
C997 C1002 1.390 . S
C998 C992 1.465 . S
C998 C997 1.396 . S
C998 C999 1.399 . S
C999 H985 0.929 . S
C999 C998 1.399 . S
C999 C1000 1.385 . S
C1000 H986 0.931 . S
C1000 C999 1.385 . S
C1000 C1001 1.389 . S
C1001 C1000 1.389 . S
C1001 C1002 1.387 . S
C1002 H987 0.930 . S
C1002 C997 1.390 . S
C1002 C1001 1.387 . S
H1003 C1015 0.930 . S
H1004 C1017 0.930 . S
H1005 C1018 0.930 . S
H1006 C1022 0.959 . S
H1007 C1022 0.959 . S
H1008 C1022 0.961 . S
H1009 C1023 0.960 . S
H1010 C1023 0.961 . S
H1011 C1023 0.959 . S
H1012 C1026 0.929 . S
H1013 C1027 0.931 . S
H1014 C1029 0.930 . S
C1015 H1003 0.930 . S
C1015 C1016 1.399 . S
C1015 C1020 1.399 . S
C1016 C1015 1.399 . S
C1016 C1017 1.376 . S
C1017 H1004 0.930 . S
C1017 C1016 1.376 . S
C1017 C1018 1.388 . S
C1018 H1005 0.930 . S
C1018 C1017 1.388 . S
C1018 C1019 1.390 . S
C1019 C1018 1.390 . S
C1019 C1020 1.394 . S
C1019 C1025 1.465 . S
C1020 C1015 1.399 . S
C1020 C1019 1.394 . S
C1020 C1021 1.516 . S
C1021 C1020 1.516 . S
C1021 C1022 1.502 . S
C1021 C1023 1.561 . S
C1021 C1024 1.526 . S
C1022 H1006 0.959 . S
C1022 H1007 0.959 . S
C1022 H1008 0.961 . S
C1022 C1021 1.502 . S
C1023 H1009 0.960 . S
C1023 H1010 0.961 . S
C1023 H1011 0.959 . S
C1023 C1021 1.561 . S
C1024 C1021 1.526 . S
C1024 C1025 1.396 . S
C1024 C1029 1.390 . S
C1025 C1019 1.465 . S
C1025 C1024 1.396 . S
C1025 C1026 1.399 . S
C1026 H1012 0.929 . S
C1026 C1025 1.399 . S
C1026 C1027 1.385 . S
C1027 H1013 0.931 . S
C1027 C1026 1.385 . S
C1027 C1028 1.389 . S
C1028 C1027 1.389 . S
C1028 C1029 1.387 . S
C1029 H1014 0.930 . S
C1029 C1024 1.390 . S
C1029 C1028 1.387 . S
H1030 C1042 0.930 . S
H1031 C1044 0.930 . S
H1032 C1045 0.930 . S
H1033 C1049 0.959 . S
H1034 C1049 0.959 . S
H1035 C1049 0.961 . S
H1036 C1050 0.960 . S
H1037 C1050 0.961 . S
H1038 C1050 0.959 . S
H1039 C1053 0.929 . S
H1040 C1054 0.931 . S
H1041 C1056 0.930 . S
C1042 H1030 0.930 . S
C1042 C1043 1.399 . S
C1042 C1047 1.399 . S
C1043 C1042 1.399 . S
C1043 C1044 1.376 . S
C1044 H1031 0.930 . S
C1044 C1043 1.376 . S
C1044 C1045 1.388 . S
C1045 H1032 0.930 . S
C1045 C1044 1.388 . S
C1045 C1046 1.390 . S
C1046 C1045 1.390 . S
C1046 C1047 1.394 . S
C1046 C1052 1.465 . S
C1047 C1042 1.399 . S
C1047 C1046 1.394 . S
C1047 C1048 1.516 . S
C1048 C1047 1.516 . S
C1048 C1049 1.502 . S
C1048 C1050 1.561 . S
C1048 C1051 1.526 . S
C1049 H1033 0.959 . S
C1049 H1034 0.959 . S
C1049 H1035 0.961 . S
C1049 C1048 1.502 . S
C1050 H1036 0.960 . S
C1050 H1037 0.961 . S
C1050 H1038 0.959 . S
C1050 C1048 1.561 . S
C1051 C1048 1.526 . S
C1051 C1052 1.396 . S
C1051 C1056 1.390 . S
C1052 C1046 1.465 . S
C1052 C1051 1.396 . S
C1052 C1053 1.399 . S
C1053 H1039 0.929 . S
C1053 C1052 1.399 . S
C1053 C1054 1.385 . S
C1054 H1040 0.931 . S
C1054 C1053 1.385 . S
C1054 C1055 1.389 . S
C1055 C1054 1.389 . S
C1055 C1056 1.387 . S
C1056 H1041 0.930 . S
C1056 C1051 1.390 . S
C1056 C1055 1.387 . S
H1057 C1069 0.930 . S
H1058 C1071 0.930 . S
H1059 C1072 0.930 1_455 S
H1060 C1076 0.959 . S
H1061 C1076 0.959 . S
H1062 C1076 0.961 . S
H1063 C1077 0.960 . S
H1064 C1077 0.961 . S
H1065 C1077 0.959 . S
H1066 C1080 0.929 . S
H1067 C1081 0.931 . S
H1068 C1083 0.930 . S
C1069 H1057 0.930 . S
C1069 C1070 1.399 . S
C1069 C1074 1.399 . S
C1070 C1069 1.399 . S
C1070 C1071 1.376 . S
C1071 H1058 0.930 . S
C1071 C1070 1.376 . S
C1071 C1072 1.388 . S
C1072 H1059 0.930 1_655 S
C1072 C1071 1.388 . S
C1072 C1073 1.390 . S
C1073 C1072 1.390 . S
C1073 C1074 1.394 . S
C1073 C1079 1.465 1_656 S
C1074 C1069 1.399 . S
C1074 C1073 1.394 . S
C1074 C1075 1.516 . S
C1075 C1074 1.516 . S
C1075 C1076 1.502 . S
C1075 C1077 1.561 1_556 S
C1075 C1078 1.526 1_656 S
C1076 H1060 0.959 . S
C1076 H1061 0.959 . S
C1076 H1062 0.961 . S
C1076 C1075 1.502 . S
C1077 H1063 0.960 . S
C1077 H1064 0.961 . S
C1077 H1065 0.959 . S
C1077 C1075 1.561 1_554 S
C1078 C1075 1.526 1_454 S
C1078 C1079 1.396 . S
C1078 C1083 1.390 . S
C1079 C1073 1.465 1_454 S
C1079 C1078 1.396 . S
C1079 C1080 1.399 . S
C1080 H1066 0.929 . S
C1080 C1079 1.399 . S
C1080 C1081 1.385 . S
C1081 H1067 0.931 . S
C1081 C1080 1.385 . S
C1081 C1082 1.389 . S
C1082 C1081 1.389 . S
C1082 C1083 1.387 . S
C1083 H1068 0.930 . S
C1083 C1078 1.390 . S
C1083 C1082 1.387 . S
H1084 C1096 0.930 . S
H1085 C1098 0.930 . S
H1086 C1099 0.930 . S
H1087 C1103 0.959 . S
H1088 C1103 0.959 . S
H1089 C1103 0.961 . S
H1090 C1104 0.960 . S
H1091 C1104 0.961 . S
H1092 C1104 0.959 . S
H1093 C1107 0.929 . S
H1094 C1108 0.931 . S
H1095 C1110 0.930 . S
C1096 H1084 0.930 . S
C1096 C1097 1.399 . S
C1096 C1101 1.399 . S
C1097 C1096 1.399 . S
C1097 C1098 1.376 . S
C1098 H1085 0.930 . S
C1098 C1097 1.376 . S
C1098 C1099 1.388 . S
C1099 H1086 0.930 . S
C1099 C1098 1.388 . S
C1099 C1100 1.390 . S
C1100 C1099 1.390 . S
C1100 C1101 1.394 . S
C1100 C1106 1.465 . S
C1101 C1096 1.399 . S
C1101 C1100 1.394 . S
C1101 C1102 1.516 . S
C1102 C1101 1.516 . S
C1102 C1103 1.502 . S
C1102 C1104 1.561 . S
C1102 C1105 1.526 . S
C1103 H1087 0.959 . S
C1103 H1088 0.959 . S
C1103 H1089 0.961 . S
C1103 C1102 1.502 . S
C1104 H1090 0.960 . S
C1104 H1091 0.961 . S
C1104 H1092 0.959 . S
C1104 C1102 1.561 . S
C1105 C1102 1.526 . S
C1105 C1106 1.396 . S
C1105 C1110 1.390 . S
C1106 C1100 1.465 . S
C1106 C1105 1.396 . S
C1106 C1107 1.399 . S
C1107 H1093 0.929 . S
C1107 C1106 1.399 . S
C1107 C1108 1.385 . S
C1108 H1094 0.931 . S
C1108 C1107 1.385 . S
C1108 C1109 1.389 . S
C1109 C1108 1.389 . S
C1109 C1110 1.387 . S
C1110 H1095 0.930 . S
C1110 C1105 1.390 . S
C1110 C1109 1.387 . S
H1111 C1123 0.930 . S
H1112 C1125 0.930 . S
H1113 C1126 0.930 . S
H1114 C1130 0.959 . S
H1115 C1130 0.959 . S
H1116 C1130 0.961 . S
H1117 C1131 0.960 . S
H1118 C1131 0.961 . S
H1119 C1131 0.959 . S
H1120 C1134 0.929 . S
H1121 C1135 0.931 . S
H1122 C1137 0.930 . S
C1123 H1111 0.930 . S
C1123 C1124 1.399 . S
C1123 C1128 1.399 . S
C1124 C1123 1.399 . S
C1124 C1125 1.376 . S
C1125 H1112 0.930 . S
C1125 C1124 1.376 . S
C1125 C1126 1.388 . S
C1126 H1113 0.930 . S
C1126 C1125 1.388 . S
C1126 C1127 1.390 . S
C1127 C1126 1.390 . S
C1127 C1128 1.394 . S
C1127 C1133 1.465 . S
C1128 C1123 1.399 . S
C1128 C1127 1.394 . S
C1128 C1129 1.516 . S
C1129 C1128 1.516 . S
C1129 C1130 1.502 . S
C1129 C1131 1.561 . S
C1129 C1132 1.526 . S
C1130 H1114 0.959 . S
C1130 H1115 0.959 . S
C1130 H1116 0.961 . S
C1130 C1129 1.502 . S
C1131 H1117 0.960 . S
C1131 H1118 0.961 . S
C1131 H1119 0.959 . S
C1131 C1129 1.561 . S
C1132 C1129 1.526 . S
C1132 C1133 1.396 . S
C1132 C1137 1.390 . S
C1133 C1127 1.465 . S
C1133 C1132 1.396 . S
C1133 C1134 1.399 . S
C1134 H1120 0.929 . S
C1134 C1133 1.399 . S
C1134 C1135 1.385 . S
C1135 H1121 0.931 . S
C1135 C1134 1.385 . S
C1135 C1136 1.389 . S
C1136 C1135 1.389 . S
C1136 C1137 1.387 . S
C1137 H1122 0.930 . S
C1137 C1132 1.390 . S
C1137 C1136 1.387 . S
H1138 C1150 0.930 . S
H1139 C1152 0.930 . S
H1140 C1153 0.930 1_445 S
H1141 C1157 0.959 . S
H1142 C1157 0.959 . S
H1143 C1157 0.961 . S
H1144 C1158 0.960 . S
H1145 C1158 0.961 . S
H1146 C1158 0.959 . S
H1147 C1161 0.929 . S
H1148 C1162 0.931 . S
H1149 C1164 0.930 . S
C1150 H1138 0.930 . S
C1150 C1151 1.399 . S
C1150 C1155 1.399 . S
C1151 C1150 1.399 . S
C1151 C1152 1.376 . S
C1152 H1139 0.930 . S
C1152 C1151 1.376 . S
C1152 C1153 1.388 . S
C1153 H1140 0.930 1_665 S
C1153 C1152 1.388 . S
C1153 C1154 1.390 . S
C1154 C1153 1.390 . S
C1154 C1155 1.394 . S
C1154 C1160 1.465 1_665 S
C1155 C1150 1.399 . S
C1155 C1154 1.394 . S
C1155 C1156 1.516 1_554 S
C1156 C1155 1.516 1_556 S
C1156 C1157 1.502 . S
C1156 C1158 1.561 1_565 S
C1156 C1159 1.526 1_665 S
C1157 H1141 0.959 . S
C1157 H1142 0.959 . S
C1157 H1143 0.961 . S
C1157 C1156 1.502 . S
C1158 H1144 0.960 . S
C1158 H1145 0.961 . S
C1158 H1146 0.959 . S
C1158 C1156 1.561 1_545 S
C1159 C1156 1.526 1_445 S
C1159 C1160 1.396 1_556 S
C1159 C1164 1.390 . S
C1160 C1154 1.465 1_445 S
C1160 C1159 1.396 1_554 S
C1160 C1161 1.399 . S
C1161 H1147 0.929 . S
C1161 C1160 1.399 . S
C1161 C1162 1.385 1_554 S
C1162 H1148 0.931 . S
C1162 C1161 1.385 1_556 S
C1162 C1163 1.389 . S
C1163 C1162 1.389 . S
C1163 C1164 1.387 . S
C1164 H1149 0.930 . S
C1164 C1159 1.390 . S
C1164 C1163 1.387 . S
H1165 C1177 0.930 . S
H1166 C1179 0.930 . S
H1167 C1180 0.963 . S
H1168 C1184 0.959 . S
H1169 C1184 0.959 . S
H1170 C1184 0.961 . S
H1171 C1185 0.960 . S
H1172 C1185 0.961 . S
H1173 C1185 0.959 . S
H1174 C1188 0.929 . S
H1175 C1189 0.931 . S
H1176 C1191 0.930 . S
C1177 H1165 0.930 . S
C1177 C1178 1.399 . S
C1177 C1182 1.399 . S
C1178 C1177 1.399 . S
C1178 C1179 1.376 . S
C1179 H1166 0.930 . S
C1179 C1178 1.376 . S
C1179 C1180 1.360 1_565 S
C1180 H1167 0.963 . S
C1180 C1179 1.360 1_545 S
C1180 C1181 1.387 1_545 S
C1181 C1180 1.387 1_565 S
C1181 C1182 1.394 . S
C1181 C1187 1.465 1_565 S
C1182 C1177 1.399 . S
C1182 C1181 1.394 . S
C1182 C1183 1.516 . S
C1183 C1182 1.516 . S
C1183 C1184 1.502 . S
C1183 C1185 1.561 . S
C1183 C1186 1.526 1_565 S
C1184 H1168 0.959 . S
C1184 H1169 0.959 . S
C1184 H1170 0.961 . S
C1184 C1183 1.502 . S
C1185 H1171 0.960 . S
C1185 H1172 0.961 . S
C1185 H1173 0.959 . S
C1185 C1183 1.561 . S
C1186 C1183 1.526 1_545 S
C1186 C1187 1.396 . S
C1186 C1191 1.390 . S
C1187 C1181 1.465 1_545 S
C1187 C1186 1.396 . S
C1187 C1188 1.399 . S
C1188 H1174 0.929 . S
C1188 C1187 1.399 . S
C1188 C1189 1.385 . S
C1189 H1175 0.931 . S
C1189 C1188 1.385 . S
C1189 C1190 1.389 . S
C1190 C1189 1.389 . S
C1190 C1191 1.387 . S
C1191 H1176 0.930 . S
C1191 C1186 1.390 . S
C1191 C1190 1.387 . S
H1192 C1204 0.930 . S
H1193 C1206 0.930 . S
H1194 C1207 0.930 1_554 S
H1195 C1211 0.959 . S
H1196 C1211 0.959 . S
H1197 C1211 0.961 . S
H1198 C1212 0.960 . S
H1199 C1212 0.961 . S
H1200 C1212 0.959 . S
H1201 C1215 0.929 . S
H1202 C1216 0.931 . S
H1203 C1218 0.930 . S
C1204 H1192 0.930 . S
C1204 C1205 1.399 . S
C1204 C1209 1.399 . S
C1205 C1204 1.399 . S
C1205 C1206 1.376 . S
C1206 H1193 0.930 . S
C1206 C1205 1.376 . S
C1206 C1207 1.388 . S
C1207 H1194 0.930 1_556 S
C1207 C1206 1.388 . S
C1207 C1208 1.390 . S
C1208 C1207 1.390 . S
C1208 C1209 1.394 . S
C1208 C1214 1.465 . S
C1209 C1204 1.399 . S
C1209 C1208 1.394 . S
C1209 C1210 1.516 . S
C1210 C1209 1.516 . S
C1210 C1211 1.502 . S
C1210 C1212 1.561 . S
C1210 C1213 1.526 . S
C1211 H1195 0.959 . S
C1211 H1196 0.959 . S
C1211 H1197 0.961 . S
C1211 C1210 1.502 . S
C1212 H1198 0.960 . S
C1212 H1199 0.961 . S
C1212 H1200 0.959 . S
C1212 C1210 1.561 . S
C1213 C1210 1.526 . S
C1213 C1214 1.396 . S
C1213 C1218 1.390 . S
C1214 C1208 1.465 . S
C1214 C1213 1.396 . S
C1214 C1215 1.399 1_556 S
C1215 H1201 0.929 . S
C1215 C1214 1.399 1_554 S
C1215 C1216 1.385 . S
C1216 H1202 0.931 . S
C1216 C1215 1.385 . S
C1216 C1217 1.389 . S
C1217 C1216 1.389 . S
C1217 C1218 1.387 1_554 S
C1218 H1203 0.930 . S
C1218 C1213 1.390 . S
C1218 C1217 1.387 1_556 S
H1219 C1231 0.930 . S
H1220 C1233 0.930 . S
H1221 C1234 0.930 . S
H1222 C1238 0.959 . S
H1223 C1238 0.959 . S
H1224 C1238 0.961 . S
H1225 C1239 0.960 . S
H1226 C1239 0.961 . S
H1227 C1239 0.959 . S
H1228 C1242 0.929 . S
H1229 C1243 0.931 . S
H1230 C1245 0.930 . S
C1231 H1219 0.930 . S
C1231 C1232 1.399 . S
C1231 C1236 1.399 . S
C1232 C1231 1.399 . S
C1232 C1233 1.376 . S
C1233 H1220 0.930 . S
C1233 C1232 1.376 . S
C1233 C1234 1.388 . S
C1234 H1221 0.930 . S
C1234 C1233 1.388 . S
C1234 C1235 1.390 . S
C1235 C1234 1.390 . S
C1235 C1236 1.394 . S
C1235 C1241 1.465 . S
C1236 C1231 1.399 . S
C1236 C1235 1.394 . S
C1236 C1237 1.516 . S
C1237 C1236 1.516 . S
C1237 C1238 1.502 . S
C1237 C1239 1.561 . S
C1237 C1240 1.526 . S
C1238 H1222 0.959 . S
C1238 H1223 0.959 . S
C1238 H1224 0.961 . S
C1238 C1237 1.502 . S
C1239 H1225 0.960 . S
C1239 H1226 0.961 . S
C1239 H1227 0.959 . S
C1239 C1237 1.561 . S
C1240 C1237 1.526 . S
C1240 C1241 1.396 . S
C1240 C1245 1.390 . S
C1241 C1235 1.465 . S
C1241 C1240 1.396 . S
C1241 C1242 1.399 . S
C1242 H1228 0.929 . S
C1242 C1241 1.399 . S
C1242 C1243 1.385 . S
C1243 H1229 0.931 . S
C1243 C1242 1.385 . S
C1243 C1244 1.389 . S
C1244 C1243 1.389 . S
C1244 C1245 1.387 . S
C1245 H1230 0.930 . S
C1245 C1240 1.390 . S
C1245 C1244 1.387 . S
H1246 C1258 0.930 . S
H1247 C1260 0.930 . S
H1248 C1261 0.930 . S
H1249 C1265 0.959 . S
H1250 C1265 0.959 . S
H1251 C1265 0.961 . S
H1252 C1266 0.960 . S
H1253 C1266 0.961 . S
H1254 C1266 0.959 . S
H1255 C1269 0.929 . S
H1256 C1270 0.931 . S
H1257 C1272 0.930 . S
C1258 H1246 0.930 . S
C1258 C1259 1.399 . S
C1258 C1263 1.399 . S
C1259 C1258 1.399 . S
C1259 C1260 1.376 . S
C1260 H1247 0.930 . S
C1260 C1259 1.376 . S
C1260 C1261 1.388 . S
C1261 H1248 0.930 . S
C1261 C1260 1.388 . S
C1261 C1262 1.390 . S
C1262 C1261 1.390 . S
C1262 C1263 1.394 . S
C1262 C1268 1.465 . S
C1263 C1258 1.399 . S
C1263 C1262 1.394 . S
C1263 C1264 1.516 . S
C1264 C1263 1.516 . S
C1264 C1265 1.502 . S
C1264 C1266 1.561 . S
C1264 C1267 1.526 . S
C1265 H1249 0.959 . S
C1265 H1250 0.959 . S
C1265 H1251 0.961 . S
C1265 C1264 1.502 . S
C1266 H1252 0.960 . S
C1266 H1253 0.961 . S
C1266 H1254 0.959 . S
C1266 C1264 1.561 . S
C1267 C1264 1.526 . S
C1267 C1268 1.396 . S
C1267 C1272 1.390 . S
C1268 C1262 1.465 . S
C1268 C1267 1.396 . S
C1268 C1269 1.399 . S
C1269 H1255 0.929 . S
C1269 C1268 1.399 . S
C1269 C1270 1.385 . S
C1270 H1256 0.931 . S
C1270 C1269 1.385 . S
C1270 C1271 1.389 . S
C1271 C1270 1.389 . S
C1271 C1272 1.387 . S
C1272 H1257 0.930 . S
C1272 C1267 1.390 . S
C1272 C1271 1.387 . S
H1273 C1285 0.930 . S
H1274 C1287 0.930 . S
H1275 C1288 0.930 . S
H1276 C1292 0.959 . S
H1277 C1292 0.959 . S
H1278 C1292 0.961 . S
H1279 C1293 0.960 . S
H1280 C1293 0.961 . S
H1281 C1293 0.959 . S
H1282 C1296 0.929 . S
H1283 C1297 0.931 . S
H1284 C1299 0.930 . S
C1285 H1273 0.930 . S
C1285 C1286 1.399 . S
C1285 C1290 1.399 . S
C1286 C1285 1.399 . S
C1286 C1287 1.376 . S
C1287 H1274 0.930 . S
C1287 C1286 1.376 . S
C1287 C1288 1.388 . S
C1288 H1275 0.930 . S
C1288 C1287 1.388 . S
C1288 C1289 1.390 . S
C1289 C1288 1.390 . S
C1289 C1290 1.394 . S
C1289 C1295 1.465 . S
C1290 C1285 1.399 . S
C1290 C1289 1.394 . S
C1290 C1291 1.516 . S
C1291 C1290 1.516 . S
C1291 C1292 1.502 . S
C1291 C1293 1.561 . S
C1291 C1294 1.526 . S
C1292 H1276 0.959 . S
C1292 H1277 0.959 . S
C1292 H1278 0.961 . S
C1292 C1291 1.502 . S
C1293 H1279 0.960 . S
C1293 H1280 0.961 . S
C1293 H1281 0.959 . S
C1293 C1291 1.561 . S
C1294 C1291 1.526 . S
C1294 C1295 1.396 . S
C1294 C1299 1.390 . S
C1295 C1289 1.465 . S
C1295 C1294 1.396 . S
C1295 C1296 1.399 . S
C1296 H1282 0.929 . S
C1296 C1295 1.399 . S
C1296 C1297 1.385 . S
C1297 H1283 0.931 . S
C1297 C1296 1.385 . S
C1297 C1298 1.389 . S
C1298 C1297 1.389 . S
C1298 C1299 1.387 . S
C1299 H1284 0.930 . S
C1299 C1294 1.390 . S
C1299 C1298 1.387 . S
H1300 C1312 0.930 . S
H1301 C1314 0.930 . S
H1302 C1315 0.930 . S
H1303 C1319 0.959 . S
H1304 C1319 0.959 . S
H1305 C1319 0.961 . S
H1306 C1320 0.960 . S
H1307 C1320 0.961 . S
H1308 C1320 0.959 1_554 S
H1309 C1323 0.929 . S
H1310 C1324 0.931 . S
H1311 C1326 0.930 . S
C1312 H1300 0.930 . S
C1312 C1313 1.399 1_556 S
C1312 C1317 1.399 1_556 S
C1313 C1312 1.399 1_554 S
C1313 C1314 1.376 . S
C1314 H1301 0.930 . S
C1314 C1313 1.376 . S
C1314 C1315 1.388 . S
C1315 H1302 0.930 . S
C1315 C1314 1.388 . S
C1315 C1316 1.390 . S
C1316 C1315 1.390 . S
C1316 C1317 1.394 . S
C1316 C1322 1.465 . S
C1317 C1312 1.399 1_554 S
C1317 C1316 1.394 . S
C1317 C1318 1.516 1_554 S
C1318 C1317 1.516 1_556 S
C1318 C1319 1.502 . S
C1318 C1320 1.561 . S
C1318 C1321 1.526 1_556 S
C1319 H1303 0.959 . S
C1319 H1304 0.959 . S
C1319 H1305 0.961 . S
C1319 C1318 1.502 . S
C1320 H1306 0.960 . S
C1320 H1307 0.961 . S
C1320 H1308 0.959 1_556 S
C1320 C1318 1.561 . S
C1321 C1318 1.526 1_554 S
C1321 C1322 1.396 . S
C1321 C1326 1.390 . S
C1322 C1316 1.465 . S
C1322 C1321 1.396 . S
C1322 C1323 1.399 . S
C1323 H1309 0.929 . S
C1323 C1322 1.399 . S
C1323 C1324 1.385 . S
C1324 H1310 0.931 . S
C1324 C1323 1.385 . S
C1324 C1325 1.389 . S
C1325 C1324 1.389 . S
C1325 C1326 1.387 . S
C1326 H1311 0.930 . S
C1326 C1321 1.390 . S
C1326 C1325 1.387 . S
H1327 C1339 0.930 . S
H1328 C1341 0.930 . S
H1329 C1342 0.930 . S
H1330 C1346 0.959 . S
H1331 C1346 0.959 . S
H1332 C1346 0.961 . S
H1333 C1347 0.960 . S
H1334 C1347 0.961 . S
H1335 C1347 0.959 . S
H1336 C1350 0.929 . S
H1337 C1351 0.931 . S
H1338 C1353 0.930 . S
C1339 H1327 0.930 . S
C1339 C1340 1.399 . S
C1339 C1344 1.399 . S
C1340 C1339 1.399 . S
C1340 C1341 1.376 . S
C1341 H1328 0.930 . S
C1341 C1340 1.376 . S
C1341 C1342 1.388 . S
C1342 H1329 0.930 . S
C1342 C1341 1.388 . S
C1342 C1343 1.390 . S
C1343 C1342 1.390 . S
C1343 C1344 1.394 . S
C1343 C1349 1.465 . S
C1344 C1339 1.399 . S
C1344 C1343 1.394 . S
C1344 C1345 1.516 . S
C1345 C1344 1.516 . S
C1345 C1346 1.502 . S
C1345 C1347 1.561 . S
C1345 C1348 1.526 . S
C1346 H1330 0.959 . S
C1346 H1331 0.959 . S
C1346 H1332 0.961 . S
C1346 C1345 1.502 . S
C1347 H1333 0.960 . S
C1347 H1334 0.961 . S
C1347 H1335 0.959 . S
C1347 C1345 1.561 . S
C1348 C1345 1.526 . S
C1348 C1349 1.396 . S
C1348 C1353 1.390 . S
C1349 C1343 1.465 . S
C1349 C1348 1.396 . S
C1349 C1350 1.399 . S
C1350 H1336 0.929 . S
C1350 C1349 1.399 . S
C1350 C1351 1.385 . S
C1351 H1337 0.931 . S
C1351 C1350 1.385 . S
C1351 C1352 1.389 . S
C1352 C1351 1.389 . S
C1352 C1353 1.387 . S
C1353 H1338 0.930 . S
C1353 C1348 1.390 . S
C1353 C1352 1.387 . S
H1354 C1366 0.930 . S
H1355 C1368 0.930 . S
H1356 C1369 0.930 . S
H1357 C1373 0.959 . S
H1358 C1373 0.959 . S
H1359 C1373 0.961 . S
H1360 C1374 0.960 . S
H1361 C1374 0.961 . S
H1362 C1374 0.959 . S
H1363 C1377 0.929 . S
H1364 C1378 0.931 . S
H1365 C1380 0.930 . S
C1366 H1354 0.930 . S
C1366 C1367 1.399 . S
C1366 C1371 1.399 . S
C1367 C1366 1.399 . S
C1367 C1368 1.376 . S
C1368 H1355 0.930 . S
C1368 C1367 1.376 . S
C1368 C1369 1.388 . S
C1369 H1356 0.930 . S
C1369 C1368 1.388 . S
C1369 C1370 1.390 . S
C1370 C1369 1.390 . S
C1370 C1371 1.394 . S
C1370 C1376 1.465 . S
C1371 C1366 1.399 . S
C1371 C1370 1.394 . S
C1371 C1372 1.516 . S
C1372 C1371 1.516 . S
C1372 C1373 1.502 . S
C1372 C1374 1.561 . S
C1372 C1375 1.526 . S
C1373 H1357 0.959 . S
C1373 H1358 0.959 . S
C1373 H1359 0.961 . S
C1373 C1372 1.502 . S
C1374 H1360 0.960 . S
C1374 H1361 0.961 . S
C1374 H1362 0.959 . S
C1374 C1372 1.561 . S
C1375 C1372 1.526 . S
C1375 C1376 1.396 . S
C1375 C1380 1.390 . S
C1376 C1370 1.465 . S
C1376 C1375 1.396 . S
C1376 C1377 1.399 . S
C1377 H1363 0.929 . S
C1377 C1376 1.399 . S
C1377 C1378 1.385 . S
C1378 H1364 0.931 . S
C1378 C1377 1.385 . S
C1378 C1379 1.389 . S
C1379 C1378 1.389 . S
C1379 C1380 1.387 . S
C1380 H1365 0.930 . S
C1380 C1375 1.390 . S
C1380 C1379 1.387 . S
H1381 C1393 0.930 . S
H1382 C1395 0.930 . S
H1383 C1396 0.930 . S
H1384 C1400 0.959 . S
H1385 C1400 0.959 . S
H1386 C1400 0.961 . S
H1387 C1401 0.960 . S
H1388 C1401 0.961 . S
H1389 C1401 0.959 . S
H1390 C1404 0.929 . S
H1391 C1405 0.931 . S
H1392 C1407 0.930 . S
C1393 H1381 0.930 . S
C1393 C1394 1.399 . S
C1393 C1398 1.399 . S
C1394 C1393 1.399 . S
C1394 C1395 1.376 . S
C1395 H1382 0.930 . S
C1395 C1394 1.376 . S
C1395 C1396 1.388 . S
C1396 H1383 0.930 . S
C1396 C1395 1.388 . S
C1396 C1397 1.390 . S
C1397 C1396 1.390 . S
C1397 C1398 1.394 . S
C1397 C1403 1.465 . S
C1398 C1393 1.399 . S
C1398 C1397 1.394 . S
C1398 C1399 1.516 . S
C1399 C1398 1.516 . S
C1399 C1400 1.502 . S
C1399 C1401 1.561 . S
C1399 C1402 1.526 . S
C1400 H1384 0.959 . S
C1400 H1385 0.959 . S
C1400 H1386 0.961 . S
C1400 C1399 1.502 . S
C1401 H1387 0.960 . S
C1401 H1388 0.961 . S
C1401 H1389 0.959 . S
C1401 C1399 1.561 . S
C1402 C1399 1.526 . S
C1402 C1403 1.396 . S
C1402 C1407 1.390 . S
C1403 C1397 1.465 . S
C1403 C1402 1.396 . S
C1403 C1404 1.399 . S
C1404 H1390 0.929 . S
C1404 C1403 1.399 . S
C1404 C1405 1.385 . S
C1405 H1391 0.931 . S
C1405 C1404 1.385 . S
C1405 C1406 1.389 . S
C1406 C1405 1.389 . S
C1406 C1407 1.387 . S
C1407 H1392 0.930 . S
C1407 C1402 1.390 . S
C1407 C1406 1.387 . S
H1408 C1420 0.930 . S
H1409 C1422 0.930 . S
H1410 C1423 0.930 . S
H1411 C1427 0.959 . S
H1412 C1427 0.959 . S
H1413 C1427 0.961 . S
H1414 C1428 0.960 . S
H1415 C1428 0.961 . S
H1416 C1428 0.959 . S
H1417 C1431 0.929 . S
H1418 C1432 0.931 . S
H1419 C1434 0.930 . S
C1420 H1408 0.930 . S
C1420 C1421 1.399 . S
C1420 C1425 1.399 . S
C1421 C1420 1.399 . S
C1421 C1422 1.376 . S
C1422 H1409 0.930 . S
C1422 C1421 1.376 . S
C1422 C1423 1.388 . S
C1423 H1410 0.930 . S
C1423 C1422 1.388 . S
C1423 C1424 1.390 . S
C1424 C1423 1.390 . S
C1424 C1425 1.394 . S
C1424 C1430 1.465 . S
C1425 C1420 1.399 . S
C1425 C1424 1.394 . S
C1425 C1426 1.516 . S
C1426 C1425 1.516 . S
C1426 C1427 1.502 . S
C1426 C1428 1.561 . S
C1426 C1429 1.526 . S
C1427 H1411 0.959 . S
C1427 H1412 0.959 . S
C1427 H1413 0.961 . S
C1427 C1426 1.502 . S
C1428 H1414 0.960 . S
C1428 H1415 0.961 . S
C1428 H1416 0.959 . S
C1428 C1426 1.561 . S
C1429 C1426 1.526 . S
C1429 C1430 1.396 . S
C1429 C1434 1.390 . S
C1430 C1424 1.465 . S
C1430 C1429 1.396 . S
C1430 C1431 1.399 . S
C1431 H1417 0.929 . S
C1431 C1430 1.399 . S
C1431 C1432 1.385 . S
C1432 H1418 0.931 . S
C1432 C1431 1.385 . S
C1432 C1433 1.389 . S
C1433 C1432 1.389 . S
C1433 C1434 1.387 . S
C1434 H1419 0.930 . S
C1434 C1429 1.390 . S
C1434 C1433 1.387 . S
H1435 C1447 0.930 . S
H1436 C1449 0.930 . S
H1437 C1450 0.930 . S
H1438 C1454 0.959 . S
H1439 C1454 0.959 . S
H1440 C1454 0.961 . S
H1441 C1455 0.960 . S
H1442 C1455 0.961 . S
H1443 C1455 0.959 . S
H1444 C1458 0.929 . S
H1445 C1459 0.931 . S
H1446 C1461 0.930 . S
C1447 H1435 0.930 . S
C1447 C1448 1.399 1_565 S
C1447 C1452 1.399 . S
C1448 C1447 1.399 1_545 S
C1448 C1449 1.376 . S
C1449 H1436 0.930 . S
C1449 C1448 1.376 . S
C1449 C1450 1.388 1_545 S
C1450 H1437 0.930 . S
C1450 C1449 1.388 1_565 S
C1450 C1451 1.390 . S
C1451 C1450 1.390 . S
C1451 C1452 1.394 . S
C1451 C1457 1.465 . S
C1452 C1447 1.399 . S
C1452 C1451 1.394 . S
C1452 C1453 1.516 . S
C1453 C1452 1.516 . S
C1453 C1454 1.502 . S
C1453 C1455 1.561 . S
C1453 C1456 1.526 . S
C1454 H1438 0.959 . S
C1454 H1439 0.959 . S
C1454 H1440 0.961 . S
C1454 C1453 1.502 . S
C1455 H1441 0.960 . S
C1455 H1442 0.961 . S
C1455 H1443 0.959 . S
C1455 C1453 1.561 . S
C1456 C1453 1.526 . S
C1456 C1457 1.396 . S
C1456 C1461 1.390 . S
C1457 C1451 1.465 . S
C1457 C1456 1.396 . S
C1457 C1458 1.399 . S
C1458 H1444 0.929 . S
C1458 C1457 1.399 . S
C1458 C1459 1.385 . S
C1459 H1445 0.931 . S
C1459 C1458 1.385 . S
C1459 C1460 1.389 . S
C1460 C1459 1.389 . S
C1460 C1461 1.387 . S
C1461 H1446 0.930 . S
C1461 C1456 1.390 . S
C1461 C1460 1.387 . S
H1462 C1474 0.930 . S
H1463 C1476 0.930 . S
H1464 C1477 0.930 . S
H1465 C1481 0.959 . S
H1466 C1481 0.959 . S
H1467 C1481 0.961 . S
H1468 C1482 0.960 . S
H1469 C1482 0.961 . S
H1470 C1482 0.959 . S
H1471 C1485 0.929 . S
H1472 C1486 0.931 . S
H1473 C1488 0.930 . S
C1474 H1462 0.930 . S
C1474 C1475 1.399 1_554 S
C1474 C1479 1.399 1_554 S
C1475 C1474 1.399 1_556 S
C1475 C1476 1.376 . S
C1476 H1463 0.930 . S
C1476 C1475 1.376 . S
C1476 C1477 1.388 . S
C1477 H1464 0.930 . S
C1477 C1476 1.388 . S
C1477 C1478 1.390 . S
C1478 C1477 1.390 . S
C1478 C1479 1.394 . S
C1478 C1484 1.465 . S
C1479 C1474 1.399 1_556 S
C1479 C1478 1.394 . S
C1479 C1480 1.516 1_556 S
C1480 C1479 1.516 1_554 S
C1480 C1481 1.502 . S
C1480 C1482 1.561 . S
C1480 C1483 1.526 1_554 S
C1481 H1465 0.959 . S
C1481 H1466 0.959 . S
C1481 H1467 0.961 . S
C1481 C1480 1.502 . S
C1482 H1468 0.960 . S
C1482 H1469 0.961 . S
C1482 H1470 0.959 . S
C1482 C1480 1.561 . S
C1483 C1480 1.526 1_556 S
C1483 C1484 1.396 . S
C1483 C1488 1.390 . S
C1484 C1478 1.465 . S
C1484 C1483 1.396 . S
C1484 C1485 1.399 . S
C1485 H1471 0.929 . S
C1485 C1484 1.399 . S
C1485 C1486 1.385 . S
C1486 H1472 0.931 . S
C1486 C1485 1.385 . S
C1486 C1487 1.389 . S
C1487 C1486 1.389 . S
C1487 C1488 1.387 . S
C1488 H1473 0.930 . S
C1488 C1483 1.390 . S
C1488 C1487 1.387 . S
H1489 C1501 0.930 . S
H1490 C1503 0.930 . S
H1491 C1504 0.930 . S
H1492 C1508 0.959 . S
H1493 C1508 0.959 . S
H1494 C1508 0.961 . S
H1495 C1509 0.960 . S
H1496 C1509 0.961 . S
H1497 C1509 0.959 . S
H1498 C1512 0.929 . S
H1499 C1513 0.931 . S
H1500 C1515 0.930 . S
C1501 H1489 0.930 . S
C1501 C1502 1.399 1_545 S
C1501 C1506 1.399 . S
C1502 C1501 1.399 1_565 S
C1502 C1503 1.376 . S
C1503 H1490 0.930 . S
C1503 C1502 1.376 . S
C1503 C1504 1.388 1_565 S
C1504 H1491 0.930 . S
C1504 C1503 1.388 1_545 S
C1504 C1505 1.390 . S
C1505 C1504 1.390 . S
C1505 C1506 1.394 . S
C1505 C1511 1.465 . S
C1506 C1501 1.399 . S
C1506 C1505 1.394 . S
C1506 C1507 1.516 . S
C1507 C1506 1.516 . S
C1507 C1508 1.502 . S
C1507 C1509 1.561 . S
C1507 C1510 1.526 . S
C1508 H1492 0.959 . S
C1508 H1493 0.959 . S
C1508 H1494 0.961 . S
C1508 C1507 1.502 . S
C1509 H1495 0.960 . S
C1509 H1496 0.961 . S
C1509 H1497 0.959 . S
C1509 C1507 1.561 . S
C1510 C1507 1.526 . S
C1510 C1511 1.396 . S
C1510 C1515 1.390 . S
C1511 C1505 1.465 . S
C1511 C1510 1.396 . S
C1511 C1512 1.399 . S
C1512 H1498 0.929 . S
C1512 C1511 1.399 . S
C1512 C1513 1.385 . S
C1513 H1499 0.931 . S
C1513 C1512 1.385 . S
C1513 C1514 1.389 . S
C1514 C1513 1.389 . S
C1514 C1515 1.387 . S
C1515 H1500 0.930 . S
C1515 C1510 1.390 . S
C1515 C1514 1.387 . S
H1516 C1528 0.930 . S
H1517 C1530 0.930 . S
H1518 C1531 0.930 . S
H1519 C1535 0.959 . S
H1520 C1535 0.959 . S
H1521 C1535 0.961 . S
H1522 C1536 0.960 . S
H1523 C1536 0.961 . S
H1524 C1536 0.959 . S
H1525 C1539 0.929 . S
H1526 C1540 0.931 . S
H1527 C1542 0.930 . S
C1528 H1516 0.930 . S
C1528 C1529 1.399 . S
C1528 C1533 1.399 . S
C1529 C1528 1.399 . S
C1529 C1530 1.376 . S
C1530 H1517 0.930 . S
C1530 C1529 1.376 . S
C1530 C1531 1.388 . S
C1531 H1518 0.930 . S
C1531 C1530 1.388 . S
C1531 C1532 1.390 . S
C1532 C1531 1.390 . S
C1532 C1533 1.394 . S
C1532 C1538 1.465 . S
C1533 C1528 1.399 . S
C1533 C1532 1.394 . S
C1533 C1534 1.516 . S
C1534 C1533 1.516 . S
C1534 C1535 1.502 . S
C1534 C1536 1.561 . S
C1534 C1537 1.526 . S
C1535 H1519 0.959 . S
C1535 H1520 0.959 . S
C1535 H1521 0.961 . S
C1535 C1534 1.502 . S
C1536 H1522 0.960 . S
C1536 H1523 0.961 . S
C1536 H1524 0.959 . S
C1536 C1534 1.561 . S
C1537 C1534 1.526 . S
C1537 C1538 1.396 . S
C1537 C1542 1.390 . S
C1538 C1532 1.465 . S
C1538 C1537 1.396 . S
C1538 C1539 1.399 . S
C1539 H1525 0.929 . S
C1539 C1538 1.399 . S
C1539 C1540 1.385 . S
C1540 H1526 0.931 . S
C1540 C1539 1.385 . S
C1540 C1541 1.389 . S
C1541 C1540 1.389 . S
C1541 C1542 1.387 . S
C1542 H1527 0.930 . S
C1542 C1537 1.390 . S
C1542 C1541 1.387 . S
H1543 C1555 0.930 . S
H1544 C1557 0.930 . S
H1545 C1558 0.930 . S
H1546 C1562 0.959 . S
H1547 C1562 0.959 . S
H1548 C1562 0.961 . S
H1549 C1563 0.960 . S
H1550 C1563 0.961 . S
H1551 C1563 0.959 . S
H1552 C1566 0.929 . S
H1553 C1567 0.931 . S
H1554 C1569 0.928 1_565 S
C1555 H1543 0.930 . S
C1555 C1556 1.399 . S
C1555 C1560 1.399 . S
C1556 C1555 1.399 . S
C1556 C1557 1.376 . S
C1557 H1544 0.930 . S
C1557 C1556 1.376 . S
C1557 C1558 1.388 . S
C1558 H1545 0.930 . S
C1558 C1557 1.388 . S
C1558 C1559 1.390 . S
C1559 C1558 1.390 . S
C1559 C1560 1.394 . S
C1559 C1565 1.465 . S
C1560 C1555 1.399 . S
C1560 C1559 1.394 . S
C1560 C1561 1.516 . S
C1561 C1560 1.516 . S
C1561 C1562 1.502 . S
C1561 C1563 1.561 . S
C1561 C1564 1.526 . S
C1562 H1546 0.959 . S
C1562 H1547 0.959 . S
C1562 H1548 0.961 . S
C1562 C1561 1.502 . S
C1563 H1549 0.960 . S
C1563 H1550 0.961 . S
C1563 H1551 0.959 . S
C1563 C1561 1.561 . S
C1564 C1561 1.526 . S
C1564 C1565 1.396 . S
C1564 C1569 1.390 . S
C1565 C1559 1.465 . S
C1565 C1564 1.396 . S
C1565 C1566 1.399 . S
C1566 H1552 0.929 . S
C1566 C1565 1.399 . S
C1566 C1567 1.385 1_545 S
C1567 H1553 0.931 . S
C1567 C1566 1.385 1_565 S
C1567 C1568 1.389 . S
C1568 C1567 1.389 . S
C1568 C1569 1.387 1_565 S
C1569 H1554 0.928 1_545 S
C1569 C1564 1.390 . S
C1569 C1568 1.387 1_545 S
H1570 C1582 0.930 . S
H1571 C1584 0.930 . S
H1572 C1585 0.930 . S
H1573 C1589 0.959 . S
H1574 C1589 0.959 1_556 S
H1575 C1589 0.962 . S
H1576 C1590 0.960 . S
H1577 C1590 0.961 . S
H1578 C1590 0.959 . S
H1579 C1593 0.929 . S
H1580 C1594 0.931 . S
H1581 C1596 0.930 . S
C1582 H1570 0.930 . S
C1582 C1583 1.399 . S
C1582 C1587 1.399 . S
C1583 C1582 1.399 . S
C1583 C1584 1.376 . S
C1584 H1571 0.930 . S
C1584 C1583 1.376 . S
C1584 C1585 1.388 . S
C1585 H1572 0.930 . S
C1585 C1584 1.388 . S
C1585 C1586 1.390 . S
C1586 C1585 1.390 . S
C1586 C1587 1.394 . S
C1586 C1592 1.465 . S
C1587 C1582 1.399 . S
C1587 C1586 1.394 . S
C1587 C1588 1.522 . S
C1588 C1587 1.522 . S
C1588 C1589 1.502 . S
C1588 C1590 1.554 1_554 S
C1588 C1591 1.527 . S
C1589 H1573 0.959 . S
C1589 H1574 0.959 1_554 S
C1589 H1575 0.962 . S
C1589 C1588 1.502 . S
C1590 H1576 0.960 . S
C1590 H1577 0.961 . S
C1590 H1578 0.959 . S
C1590 C1588 1.554 1_556 S
C1591 C1588 1.527 . S
C1591 C1592 1.396 . S
C1591 C1596 1.390 1_554 S
C1592 C1586 1.465 . S
C1592 C1591 1.396 . S
C1592 C1593 1.399 . S
C1593 H1579 0.929 . S
C1593 C1592 1.399 . S
C1593 C1594 1.385 . S
C1594 H1580 0.931 . S
C1594 C1593 1.385 . S
C1594 C1595 1.389 . S
C1595 C1594 1.389 . S
C1595 C1596 1.387 1_554 S
C1596 H1581 0.930 . S
C1596 C1591 1.390 1_556 S
C1596 C1595 1.387 1_556 S
H1597 C1609 0.930 . S
H1598 C1611 0.930 . S
H1599 C1612 0.930 . S
H1600 C1616 0.959 . S
H1601 C1616 0.959 . S
H1602 C1616 0.961 1_545 S
H1603 C1617 0.960 . S
H1604 C1617 0.961 . S
H1605 C1617 0.959 . S
H1606 C1620 0.929 . S
H1607 C1621 0.931 . S
H1608 C1623 0.930 . S
C1609 H1597 0.930 . S
C1609 C1610 1.399 . S
C1609 C1614 1.399 1_545 S
C1610 C1609 1.399 . S
C1610 C1611 1.376 1_545 S
C1611 H1598 0.930 . S
C1611 C1610 1.376 1_565 S
C1611 C1612 1.388 . S
C1612 H1599 0.930 . S
C1612 C1611 1.388 . S
C1612 C1613 1.390 . S
C1613 C1612 1.390 . S
C1613 C1614 1.394 . S
C1613 C1619 1.465 . S
C1614 C1609 1.399 1_565 S
C1614 C1613 1.394 . S
C1614 C1615 1.516 . S
C1615 C1614 1.516 . S
C1615 C1616 1.502 . S
C1615 C1617 1.561 . S
C1615 C1618 1.526 . S
C1616 H1600 0.959 . S
C1616 H1601 0.959 . S
C1616 H1602 0.961 1_565 S
C1616 C1615 1.502 . S
C1617 H1603 0.960 . S
C1617 H1604 0.961 . S
C1617 H1605 0.959 . S
C1617 C1615 1.561 . S
C1618 C1615 1.526 . S
C1618 C1619 1.396 . S
C1618 C1623 1.390 . S
C1619 C1613 1.465 . S
C1619 C1618 1.396 . S
C1619 C1620 1.399 . S
C1620 H1606 0.929 . S
C1620 C1619 1.399 . S
C1620 C1621 1.385 . S
C1621 H1607 0.931 . S
C1621 C1620 1.385 . S
C1621 C1622 1.389 . S
C1622 C1621 1.389 . S
C1622 C1623 1.387 . S
C1623 H1608 0.930 . S
C1623 C1618 1.390 . S
C1623 C1622 1.387 . S
C557 C519 1.308 . S
C569 C20 1.404 . S
C584 C54 1.397 . S
C596 C145 1.332 . S
C611 C88 1.385 . S
C623 C451 1.304 . S
C638 C122 1.408 . S
C650 C213 1.281 . S
C665 C156 1.408 . S
C677 C383 1.310 . S
C692 C9 1.280 . S
C704 C190 1.406 . S
C719 C315 1.282 . S
C731 C224 1.406 . S
C746 C258 1.405 . S
C758 C77 1.277 . S
C773 C292 1.384 . S
C785 C247 1.363 . S
C800 C326 1.375 . S
C812 C417 1.344 . S
C827 C179 1.292 . S
C839 C360 1.407 . S
C854 C394 1.405 . S
C866 C485 1.268 . S
C881 C428 1.376 . S
C893 C111 1.307 . S
C908 C462 1.388 . S
C920 C281 1.370 . S
C935 C43 1.350 . S
C947 C496 1.374 . S
C962 C530 1.373 . S
C974 C349 1.344 . S
C989 C2 2.256 . S
C1001 C410 2.266 . S
C1016 C172 2.251 . S
C1028 C36 2.274 . S
C1043 C70 2.265 . S
C1055 C478 2.257 . S
C1070 C104 2.273 . S
C1082 C240 2.254 . S
C1097 C274 2.272 . S
C1109 C138 2.255 . S
C1124 C342 2.258 . S
C1136 C206 2.264 . S
C1151 C444 2.251 . S
C1163 C308 2.272 . S
C1178 C376 2.253 . S
C1190 C512 2.273 . S
C1205 C311 1.228 . S
C1217 C33 1.285 . S
C1232 C67 1.290 . S
C1244 C345 1.238 . S
C1259 C101 1.283 . S
C1271 C379 1.240 . S
C1286 C277 1.282 . S
C1298 C135 1.280 . S
C1313 C169 1.290 1_554 S
C1325 C447 1.205 . S
C1340 C203 1.279 . S
C1352 C481 1.281 . S
C1367 C237 1.287 . S
C1379 C515 1.249 . S
C1394 C271 1.291 . S
C1406 C413 1.227 . S
C1421 C39 1.206 . S
C1433 C305 1.289 . S
C1448 C339 1.295 . S
C1460 C73 1.202 . S
C1475 C373 1.295 1_556 S
C1487 C107 1.205 . S
C1502 C407 1.295 . S
C1514 C5 1.199 . S
C1529 C441 1.291 . S
C1541 C175 1.201 . S
C1556 C209 1.279 . S
C1568 C475 1.281 . S
C1583 C243 1.180 . S
C1595 C509 1.296 1_554 S
C1610 C543 1.293 . S
C1622 C141 1.210 . S
