# Generated by pormake.
# Topology umj, (4)-cn, num edge types: 1
# Building blocks:
#     Node 0, Type 0, BuildingBlock: ICAMEG_clean_sbu_1, # of connection points: 4
#     Node 1, Type 0, BuildingBlock: ICAMEG_clean_sbu_1, # of connection points: 4
#     Node 2, Type 0, BuildingBlock: ICAMEG_clean_sbu_1, # of connection points: 4
#     Node 3, Type 0, BuildingBlock: ICAMEG_clean_sbu_1, # of connection points: 4
#     Node 4, Type 0, BuildingBlock: ICAMEG_clean_sbu_1, # of connection points: 4
#     Node 5, Type 0, BuildingBlock: ICAMEG_clean_sbu_1, # of connection points: 4
#     Node 6, Type 0, BuildingBlock: ICAMEG_clean_sbu_1, # of connection points: 4
#     Node 7, Type 0, BuildingBlock: ICAMEG_clean_sbu_1, # of connection points: 4
#     Node 8, Type 0, BuildingBlock: ICAMEG_clean_sbu_1, # of connection points: 4
#     Node 9, Type 0, BuildingBlock: ICAMEG_clean_sbu_1, # of connection points: 4
#     Node 10, Type 0, BuildingBlock: ICAMEG_clean_sbu_1, # of connection points: 4
#     Node 11, Type 0, BuildingBlock: ICAMEG_clean_sbu_1, # of connection points: 4
#     Edge 12, Type (0, 0), BuildingBlock: CIFDUS_clean_linker_0, # of connection points: 2
#     Edge 13, Type (0, 0), BuildingBlock: CIFDUS_clean_linker_0, # of connection points: 2
#     Edge 14, Type (0, 0), BuildingBlock: CIFDUS_clean_linker_0, # of connection points: 2
#     Edge 15, Type (0, 0), BuildingBlock: CIFDUS_clean_linker_0, # of connection points: 2
#     Edge 16, Type (0, 0), BuildingBlock: CIFDUS_clean_linker_0, # of connection points: 2
#     Edge 17, Type (0, 0), BuildingBlock: CIFDUS_clean_linker_0, # of connection points: 2
#     Edge 18, Type (0, 0), BuildingBlock: CIFDUS_clean_linker_0, # of connection points: 2
#     Edge 19, Type (0, 0), BuildingBlock: CIFDUS_clean_linker_0, # of connection points: 2
#     Edge 20, Type (0, 0), BuildingBlock: CIFDUS_clean_linker_0, # of connection points: 2
#     Edge 21, Type (0, 0), BuildingBlock: CIFDUS_clean_linker_0, # of connection points: 2
#     Edge 22, Type (0, 0), BuildingBlock: CIFDUS_clean_linker_0, # of connection points: 2
#     Edge 23, Type (0, 0), BuildingBlock: CIFDUS_clean_linker_0, # of connection points: 2
#     Edge 24, Type (0, 0), BuildingBlock: CIFDUS_clean_linker_0, # of connection points: 2
#     Edge 25, Type (0, 0), BuildingBlock: CIFDUS_clean_linker_0, # of connection points: 2
#     Edge 26, Type (0, 0), BuildingBlock: CIFDUS_clean_linker_0, # of connection points: 2
#     Edge 27, Type (0, 0), BuildingBlock: CIFDUS_clean_linker_0, # of connection points: 2
#     Edge 28, Type (0, 0), BuildingBlock: CIFDUS_clean_linker_0, # of connection points: 2
#     Edge 29, Type (0, 0), BuildingBlock: CIFDUS_clean_linker_0, # of connection points: 2
#     Edge 30, Type (0, 0), BuildingBlock: CIFDUS_clean_linker_0, # of connection points: 2
#     Edge 31, Type (0, 0), BuildingBlock: CIFDUS_clean_linker_0, # of connection points: 2
#     Edge 32, Type (0, 0), BuildingBlock: CIFDUS_clean_linker_0, # of connection points: 2
#     Edge 33, Type (0, 0), BuildingBlock: CIFDUS_clean_linker_0, # of connection points: 2
#     Edge 34, Type (0, 0), BuildingBlock: CIFDUS_clean_linker_0, # of connection points: 2
#     Edge 35, Type (0, 0), BuildingBlock: CIFDUS_clean_linker_0, # of connection points: 2
# Relax obj value: 0.070
# Max RMSD: 0.256
# Mean RMSD: 0.227
data_MOF--net-umj--node1-ICAMEG_clean_sbu_1--edge1-CIFDUS_clean_linker_0
_symmetry_space_group_name_H-M    P1
_symmetry_Int_Tables_number       1
_symmetry_cell_setting            triclinic
loop_
_symmetry_equiv_pos_as_xyz
'x, y, z'
_cell_length_a     27.025685
_cell_length_b     27.053049
_cell_length_c     78.068245
_cell_angle_alpha  90.026326
_cell_angle_beta   89.986726
_cell_angle_gamma 119.89597
loop_
_atom_site_label
_atom_site_type_symbol
_atom_site_fract_x
_atom_site_fract_y
_atom_site_fract_z
_atom_type_partial_charge
Co0 Co 0.11838 0.27434 0.09236 0.0
Co1 Co 0.99575 0.25004 0.07138 0.0
O2 O 0.05161 0.28297 0.08969 0.0
C3 C 0.05071 0.22772 0.12387 0.0
O4 O 0.00657 0.20007 0.11372 0.0
C5 C 0.04397 0.37422 0.06865 0.0
O6 O 0.09384 0.37721 0.06968 0.0
O7 O 0.05647 0.27372 0.05374 0.0
O8 O 0.1361 0.28813 0.06728 0.0
H9 H 0.90793 0.13443 0.0182 0.0
H10 H 0.10356 0.35493 0.11466 0.0
O11 O 0.10029 0.25939 0.1175 0.0
H12 H 0.28407 0.47246 0.08362 0.0
H13 H 0.29302 0.30088 0.12347 0.0
H14 H 0.17082 0.21846 0.07258 0.0
H15 H 0.2286 0.36844 0.07906 0.0
H16 H 0.20861 0.31192 0.11908 0.0
O17 O 0.99841 0.32557 0.06882 0.0
H18 H 0.97827 0.17473 0.04165 0.0
H19 H 0.89351 0.25843 0.06188 0.0
H20 H 0.25496 0.2067 0.07639 0.0
H21 H 0.15783 0.45873 0.11968 0.0
H22 H 0.31674 0.24809 0.10199 0.0
H23 H 0.24867 0.51825 0.10405 0.0
O24 O 0.0733 0.19122 0.0877 0.0
H25 H 0.90177 0.27734 0.12325 0.0
H26 H 0.88887 0.14133 0.07897 0.0
H27 H 0.81486 0.10936 0.10139 0.0
H28 H 0.82112 0.17761 0.12375 0.0
H29 H 0.97503 0.30735 0.10067 0.0
H30 H 0.82242 0.21935 0.03858 0.0
H31 H 0.8293 0.1567 0.01657 0.0
O32 O 0.99353 0.17478 0.07373 0.0
C33 C 0.1086 0.28603 0.05371 0.0
C34 C 0.90435 0.16149 0.02775 0.0
C35 C 0.8564 0.20922 0.03918 0.0
N36 N 0.93962 0.21841 0.05319 0.0
C37 C 0.94393 0.18426 0.04109 0.0
C38 C 0.8968 0.23129 0.05232 0.0
C39 C 0.86028 0.17406 0.02684 0.0
C40 C 0.14338 0.38045 0.10796 0.0
N41 N 0.16309 0.35563 0.09667 0.0
C42 C 0.17379 0.43924 0.11079 0.0
C43 C 0.22472 0.47263 0.102 0.0
C44 C 0.24459 0.44697 0.09053 0.0
C45 C 0.21298 0.38807 0.08799 0.0
C46 C 0.26648 0.28273 0.11225 0.0
C47 C 0.19768 0.23686 0.0837 0.0
C48 C 0.21859 0.28874 0.10972 0.0
N49 N 0.18507 0.26615 0.09554 0.0
C50 C 0.24518 0.22994 0.08581 0.0
C51 C 0.27978 0.25312 0.10019 0.0
C52 C 0.02653 0.15816 0.08005 0.0
C53 C 0.8985 0.24725 0.11355 0.0
C54 C 0.89185 0.17124 0.08866 0.0
C55 C 0.84979 0.15294 0.10131 0.0
C56 C 0.8533 0.19126 0.11384 0.0
N57 N 0.93608 0.22619 0.08848 0.0
C58 C 0.93971 0.26407 0.10069 0.0
Co59 Co 0.81132 0.08044 0.42141 0.0
Co60 Co 0.7211 0.94845 0.40375 0.0
O61 O 0.74004 0.00849 0.42041 0.0
C62 C 0.80111 0.02098 0.45391 0.0
O63 O 0.78825 0.97647 0.44428 0.0
C64 C 0.63705 0.98554 0.3991 0.0
O65 O 0.68119 0.0373 0.39919 0.0
O66 O 0.75196 0.00423 0.38469 0.0
O67 O 0.80958 0.09123 0.39592 0.0
H68 H 0.75642 0.85349 0.35363 0.0
H69 H 0.71554 0.06011 0.44445 0.0
O70 O 0.81367 0.06863 0.44693 0.0
H71 H 0.75373 0.22767 0.4097 0.0
H72 H 0.94934 0.26809 0.44859 0.0
H73 H 0.91602 0.13831 0.40008 0.0
H74 H 0.81193 0.18138 0.40602 0.0
H75 H 0.85898 0.17667 0.44625 0.0
O76 O 0.64448 0.94267 0.40064 0.0
H77 H 0.7817 0.92962 0.37501 0.0
H78 H 0.61573 0.83809 0.39665 0.0
H79 H 0.00677 0.22941 0.40184 0.0
H80 H 0.65652 0.10528 0.44863 0.0
H81 H 0.02389 0.29502 0.42624 0.0
H82 H 0.67531 0.18952 0.43111 0.0
O83 O 0.85678 0.04247 0.41735 0.0
H84 H 0.608 0.86247 0.45747 0.0
H85 H 0.7358 0.85092 0.41455 0.0
H86 H 0.70178 0.78379 0.43888 0.0
H87 H 0.6375 0.78943 0.46057 0.0
H88 H 0.64334 0.92898 0.43301 0.0
H89 H 0.58847 0.7611 0.37544 0.0
H90 H 0.65919 0.76847 0.35377 0.0
O91 O 0.79805 0.95506 0.40655 0.0
C92 C 0.78575 0.05778 0.38317 0.0
C93 C 0.72531 0.84969 0.36305 0.0
C94 C 0.63101 0.79786 0.37527 0.0
N95 N 0.70039 0.88796 0.38715 0.0
C96 C 0.73944 0.89256 0.37522 0.0
C97 C 0.64664 0.8416 0.38723 0.0
C98 C 0.67072 0.80202 0.36312 0.0
C99 C 0.72443 0.09718 0.43694 0.0
N100 N 0.76737 0.11835 0.4251 0.0
C101 C 0.69069 0.1224 0.43929 0.0
C102 C 0.7012 0.16962 0.42945 0.0
C103 C 0.74518 0.19104 0.41743 0.0
C104 C 0.77797 0.16465 0.41539 0.0
C105 C 0.94235 0.2399 0.43789 0.0
C106 C 0.92302 0.16679 0.41068 0.0
C107 C 0.89135 0.18806 0.43652 0.0
N108 N 0.88215 0.15243 0.42299 0.0
C109 C 0.97456 0.21825 0.41163 0.0
C110 C 0.98415 0.255 0.42534 0.0
C111 C 0.84723 0.99463 0.4114 0.0
C112 C 0.63584 0.85947 0.44807 0.0
C113 C 0.70775 0.85354 0.42392 0.0
C114 C 0.68858 0.81539 0.43766 0.0
C115 C 0.65247 0.81855 0.44981 0.0
N116 N 0.69134 0.89362 0.42232 0.0
C117 C 0.65577 0.89684 0.43415 0.0
Co118 Co 0.73048 0.83054 0.75415 0.0
Co119 Co 0.76016 0.72761 0.73969 0.0
O120 O 0.72422 0.75602 0.75525 0.0
C121 C 0.77745 0.8228 0.78738 0.0
O122 O 0.80689 0.80541 0.7784 0.0
C123 C 0.63654 0.65185 0.73609 0.0
O124 O 0.63455 0.69919 0.73513 0.0
O125 O 0.73892 0.7574 0.71955 0.0
O126 O 0.71686 0.8231 0.72863 0.0
H127 H 0.88424 0.73764 0.69034 0.0
H128 H 0.65089 0.74416 0.77895 0.0
O129 O 0.74518 0.83782 0.77971 0.0
H130 H 0.53042 0.7883 0.74181 0.0
H131 H 0.69862 0.98659 0.77676 0.0
H132 H 0.78359 0.92925 0.73041 0.0
H133 H 0.63477 0.83736 0.73766 0.0
H134 H 0.69071 0.89167 0.77702 0.0
O135 O 0.68471 0.65411 0.73785 0.0
H136 H 0.84018 0.77513 0.71036 0.0
H137 H 0.75317 0.61498 0.7356 0.0
H138 H 0.79219 0.02437 0.72956 0.0
H139 H 0.54681 0.69439 0.78361 0.0
H140 H 0.7495 0.05358 0.75287 0.0
H141 H 0.48581 0.71619 0.76491 0.0
O142 O 0.81376 0.86858 0.74978 0.0
H143 H 0.72537 0.62571 0.79603 0.0
H144 H 0.86803 0.73395 0.75142 0.0
H145 H 0.89687 0.70087 0.77698 0.0
H146 H 0.82526 0.64642 0.79952 0.0
H147 H 0.6985 0.65989 0.77031 0.0
H148 H 0.79594 0.57556 0.71578 0.0
H149 H 0.86216 0.63716 0.693 0.0
O150 O 0.8349 0.80172 0.74116 0.0
C151 C 0.72305 0.79383 0.71676 0.0
C152 C 0.85564 0.71045 0.70026 0.0
C153 C 0.80601 0.61945 0.71452 0.0
N154 N 0.79466 0.69741 0.72422 0.0
C155 C 0.83074 0.7315 0.71167 0.0
C156 C 0.78187 0.64195 0.72568 0.0
C157 C 0.84318 0.65404 0.70174 0.0
C158 C 0.62472 0.75441 0.7709 0.0
N159 N 0.64891 0.79392 0.75813 0.0
C160 C 0.56577 0.72587 0.77354 0.0
C161 C 0.53156 0.73807 0.76303 0.0
C162 C 0.55657 0.77851 0.75006 0.0
C163 C 0.61565 0.80612 0.74777 0.0
C164 C 0.71732 0.97433 0.76652 0.0
C165 C 0.76461 0.94153 0.74053 0.0
C166 C 0.71308 0.92072 0.76662 0.0
N167 N 0.73635 0.90489 0.75368 0.0
C168 C 0.76976 0.9955 0.74002 0.0
C169 C 0.74585 0.01188 0.75311 0.0
C170 C 0.84902 0.85344 0.74464 0.0
C171 C 0.7569 0.64922 0.78627 0.0
C172 C 0.83665 0.71019 0.76116 0.0
C173 C 0.85319 0.69152 0.7756 0.0
C174 C 0.81298 0.66092 0.78823 0.0
N175 N 0.78159 0.69859 0.75934 0.0
C176 C 0.74187 0.66846 0.77165 0.0
Co177 Co 0.89665 0.72884 0.08715 0.0
Co178 Co 0.02636 0.75677 0.07042 0.0
O179 O 0.96431 0.72105 0.08678 0.0
C180 C 0.95576 0.77453 0.1198 0.0
O181 O 1.00122 0.8032 0.11024 0.0
C182 C 0.97985 0.63305 0.06672 0.0
O183 O 0.92979 0.62977 0.06615 0.0
O184 O 0.97206 0.73521 0.051 0.0
O185 O 0.88701 0.71683 0.06164 0.0
H186 H 0.13233 0.87996 0.02009 0.0
H187 H 0.90532 0.6472 0.11065 0.0
O188 O 0.90746 0.74227 0.11271 0.0
H189 H 0.73573 0.53074 0.07492 0.0
H190 H 0.71262 0.69821 0.11274 0.0
H191 H 0.84958 0.78518 0.06522 0.0
H192 H 0.79162 0.63511 0.0712 0.0
H193 H 0.79878 0.68876 0.11124 0.0
O194 O 0.02501 0.68174 0.06813 0.0
H195 H 0.05393 0.83605 0.04113 0.0
H196 H 0.13169 0.75011 0.06452 0.0
H197 H 0.76385 0.79534 0.06613 0.0
H198 H 0.8505 0.54303 0.11487 0.0
H199 H 0.69465 0.75165 0.09003 0.0
H200 H 0.76516 0.48405 0.09687 0.0
O201 O 0.94213 0.81229 0.08316 0.0
H202 H 0.10113 0.72288 0.12548 0.0
H203 H 0.12978 0.86448 0.08113 0.0
H204 H 0.195 0.89364 0.10592 0.0
H205 H 0.18074 0.82258 0.12833 0.0
H206 H 0.03671 0.69568 0.10055 0.0
H207 H 0.21075 0.79274 0.04366 0.0
H208 H 0.21147 0.85836 0.02129 0.0
O209 O 0.0274 0.83162 0.07251 0.0
C210 C 0.91982 0.72147 0.04915 0.0
C211 C 0.13261 0.85162 0.02982 0.0
C212 C 0.17659 0.80259 0.04303 0.0
N213 N 0.0886 0.79105 0.05412 0.0
C214 C 0.08845 0.82679 0.0418 0.0
C215 C 0.13169 0.77851 0.05479 0.0
C216 C 0.17697 0.83942 0.03049 0.0
C217 C 0.86786 0.6219 0.10291 0.0
N218 N 0.85144 0.64722 0.09078 0.0
C219 C 0.83714 0.5629 0.1053 0.0
C220 C 0.78931 0.52982 0.09518 0.0
C221 C 0.77279 0.55599 0.08285 0.0
C222 C 0.80461 0.61508 0.0808 0.0
C223 C 0.7424 0.71734 0.10225 0.0
C224 C 0.81947 0.76574 0.07559 0.0
C225 C 0.79127 0.71223 0.10135 0.0
N226 N 0.82886 0.73602 0.08809 0.0
C227 C 0.77109 0.77179 0.07607 0.0
C228 C 0.73232 0.74732 0.0895 0.0
C229 C 0.99155 0.84682 0.07726 0.0
C230 C 0.10788 0.75419 0.11578 0.0
C231 C 0.12339 0.83333 0.09082 0.0
C232 C 0.16048 0.85006 0.10481 0.0
C233 C 0.15249 0.81016 0.11738 0.0
N234 N 0.07965 0.7784 0.08936 0.0
C235 C 0.0717 0.73897 0.10159 0.0
Co236 Co 0.18383 0.92067 0.42371 0.0
Co237 Co 0.26731 0.03987 0.39917 0.0
O238 O 0.25425 0.99064 0.4187 0.0
C239 C 0.20482 0.99893 0.45242 0.0
O240 O 0.21436 0.03683 0.44052 0.0
C241 C 0.34972 0.99994 0.3963 0.0
O242 O 0.30577 0.94902 0.3989 0.0
O243 O 0.23028 0.97366 0.38348 0.0
O244 O 0.17668 0.89468 0.39917 0.0
H245 H 0.21511 0.10345 0.34502 0.0
H246 H 0.28712 0.95398 0.44483 0.0
O247 O 0.19014 0.94773 0.44818 0.0
H248 H 0.23815 0.76824 0.41936 0.0
H249 H 0.05659 0.7528 0.46085 0.0
H250 H 0.07215 0.85156 0.40634 0.0
H251 H 0.17842 0.81186 0.41375 0.0
H252 H 0.14548 0.84092 0.45331 0.0
O253 O 0.34262 0.04317 0.39556 0.0
H254 H 0.19724 0.04159 0.37018 0.0
H255 H 0.36963 0.14373 0.38599 0.0
H256 H 0.98263 0.76343 0.4133 0.0
H257 H 0.34785 0.91179 0.45085 0.0
H258 H 0.97446 0.71342 0.44073 0.0
H259 H 0.32363 0.81839 0.43799 0.0
O260 O 0.13707 0.95604 0.41799 0.0
H261 H 0.39881 0.15695 0.4468 0.0
H262 H 0.2561 0.14278 0.40476 0.0
H263 H 0.29884 0.22406 0.42482 0.0
H264 H 0.37075 0.23149 0.44603 0.0
H265 H 0.35466 0.07618 0.4266 0.0
H266 H 0.38952 0.20655 0.36094 0.0
H267 H 0.31184 0.18664 0.34029 0.0
O268 O 0.19153 0.03558 0.40261 0.0
C269 C 0.1961 0.92016 0.38484 0.0
C270 C 0.24924 0.11271 0.35397 0.0
C271 C 0.34716 0.17053 0.36289 0.0
N272 N 0.28221 0.08945 0.37961 0.0
C273 C 0.23932 0.07796 0.36826 0.0
C274 C 0.33568 0.1348 0.37703 0.0
C275 C 0.30355 0.15934 0.35131 0.0
C276 C 0.2759 0.91299 0.43937 0.0
N277 N 0.22908 0.88521 0.42905 0.0
C278 C 0.3106 0.88944 0.44275 0.0
C279 C 0.29704 0.83707 0.43552 0.0
C280 C 0.24909 0.80892 0.42505 0.0
C281 C 0.21545 0.83382 0.42192 0.0
C282 C 0.05967 0.77414 0.44884 0.0
C283 C 0.06904 0.82983 0.41824 0.0
C284 C 0.10983 0.82407 0.44452 0.0
N285 N 0.11408 0.85105 0.42935 0.0
C286 C 0.01818 0.78004 0.42214 0.0
C287 C 0.01361 0.75205 0.43755 0.0
C288 C 0.14432 0.99965 0.40965 0.0
C289 C 0.36768 0.15429 0.43757 0.0
C290 C 0.28735 0.14575 0.41396 0.0
C291 C 0.31147 0.19189 0.42527 0.0
C292 C 0.35185 0.19606 0.43715 0.0
N293 N 0.30311 0.10498 0.41445 0.0
C294 C 0.34272 0.10879 0.42605 0.0
Co295 Co 0.27093 0.16195 0.7577 0.0
Co296 Co 0.24648 0.25897 0.73616 0.0
O297 O 0.27759 0.23624 0.75492 0.0
C298 C 0.21496 0.18025 0.78728 0.0
O299 O 0.18839 0.19386 0.77581 0.0
C300 C 0.37081 0.33392 0.73501 0.0
O301 O 0.3727 0.28663 0.73645 0.0
O302 O 0.27294 0.22301 0.71917 0.0
O303 O 0.29117 0.16057 0.7329 0.0
H304 H 0.13778 0.23206 0.68149 0.0
H305 H 0.34407 0.25655 0.78138 0.0
O306 O 0.24937 0.1634 0.78244 0.0
H307 H 0.47308 0.20099 0.75365 0.0
H308 H 0.29484 0.01527 0.79052 0.0
H309 H 0.22324 0.0554 0.73724 0.0
H310 H 0.37021 0.15025 0.74688 0.0
H311 H 0.30381 0.10959 0.78572 0.0
O312 O 0.32249 0.33184 0.73435 0.0
H313 H 0.17514 0.2017 0.70568 0.0
H314 H 0.25561 0.36935 0.72621 0.0
H315 H 0.21371 0.96066 0.74144 0.0
H316 H 0.44654 0.30819 0.78859 0.0
H317 H 0.24966 0.94011 0.76824 0.0
H318 H 0.51184 0.28063 0.77463 0.0
O319 O 0.1892 0.12223 0.75118 0.0
H320 H 0.26598 0.37914 0.7876 0.0
H321 H 0.13615 0.25578 0.74222 0.0
H322 H 0.10073 0.29724 0.76383 0.0
H323 H 0.16587 0.35941 0.78673 0.0
H324 H 0.29948 0.3365 0.76581 0.0
H325 H 0.21942 0.40169 0.70218 0.0
H326 H 0.15989 0.33271 0.67964 0.0
O327 O 0.17117 0.18534 0.73776 0.0
C328 C 0.28875 0.18582 0.71929 0.0
C329 C 0.16346 0.26245 0.69127 0.0
C330 C 0.20936 0.35768 0.70287 0.0
N331 N 0.21696 0.2836 0.71741 0.0
C332 C 0.18454 0.24546 0.70502 0.0
C333 C 0.22977 0.33917 0.71643 0.0
C334 C 0.17594 0.31895 0.69023 0.0
C335 C 0.37208 0.24384 0.7754 0.0
N336 N 0.35113 0.20017 0.76381 0.0
C337 C 0.43012 0.27343 0.77948 0.0
C338 C 0.46675 0.258 0.77162 0.0
C339 C 0.44503 0.21333 0.75984 0.0
C340 C 0.38677 0.18478 0.75605 0.0
C341 C 0.27911 0.02374 0.77877 0.0
C342 C 0.23934 0.04689 0.74888 0.0
C343 C 0.28398 0.077 0.77601 0.0
N344 N 0.26446 0.08804 0.76117 0.0
C345 C 0.23366 0.99312 0.75121 0.0
C346 C 0.25378 0.9816 0.76626 0.0
C347 C 0.15573 0.13517 0.7434 0.0
C348 C 0.23725 0.35229 0.77765 0.0
C349 C 0.16472 0.28282 0.75215 0.0
C350 C 0.14446 0.30622 0.76433 0.0
C351 C 0.18105 0.34114 0.77717 0.0
N352 N 0.21989 0.29399 0.7527 0.0
C353 C 0.25605 0.32823 0.76523 0.0
Co354 Co 0.71261 0.87602 0.5856 0.0
Co355 Co 0.75302 0.00954 0.6017 0.0
O356 O 0.71346 0.94802 0.58549 0.0
C357 C 0.76244 0.93225 0.55282 0.0
O358 O 0.79521 0.97688 0.56226 0.0
C359 C 0.63022 0.9715 0.60496 0.0
O360 O 0.62446 0.92051 0.60575 0.0
O361 O 0.72658 0.95605 0.62124 0.0
O362 O 0.69987 0.86812 0.6112 0.0
H363 H 0.8789 0.11006 0.65214 0.0
H364 H 0.63752 0.89391 0.56165 0.0
O365 O 0.72692 0.88524 0.56003 0.0
H366 H 0.50781 0.73053 0.59773 0.0
H367 H 0.66293 0.68541 0.5606 0.0
H368 H 0.75892 0.82015 0.60807 0.0
H369 H 0.61215 0.77705 0.6016 0.0
H370 H 0.66442 0.77733 0.56169 0.0
O371 O 0.68043 0.01506 0.60352 0.0
H372 H 0.83023 0.03172 0.63129 0.0
H373 H 0.75654 0.12007 0.607 0.0
H374 H 0.75804 0.72855 0.6076 0.0
H375 H 0.53353 0.84846 0.55728 0.0
H376 H 0.70981 0.66046 0.58372 0.0
H377 H 0.46791 0.76632 0.57545 0.0
O378 O 0.79586 0.91428 0.58982 0.0
H379 H 0.73071 0.0912 0.54635 0.0
H380 H 0.86619 0.10518 0.591 0.0
H381 H 0.90146 0.17035 0.5662 0.0
H382 H 0.83347 0.1635 0.54365 0.0
H383 H 0.69737 0.02666 0.57129 0.0
H384 H 0.80405 0.19926 0.62766 0.0
H385 H 0.86591 0.19459 0.65039 0.0
O386 O 0.82466 0.00221 0.60026 0.0
C387 C 0.70788 0.90298 0.62344 0.0
C388 C 0.85224 0.1127 0.64225 0.0
C389 C 0.81016 0.16273 0.62853 0.0
N390 N 0.79113 0.0717 0.61786 0.0
C391 C 0.82476 0.06858 0.63038 0.0
C392 C 0.78332 0.11777 0.61689 0.0
C393 C 0.84488 0.16009 0.64128 0.0
C394 C 0.60928 0.85773 0.56946 0.0
N395 N 0.63087 0.83787 0.58179 0.0
C396 C 0.55042 0.83235 0.56699 0.0
C397 C 0.51362 0.78632 0.5772 0.0
C398 C 0.53598 0.76623 0.58971 0.0
C399 C 0.59507 0.79274 0.59185 0.0
C400 C 0.684 0.71467 0.57109 0.0
C401 C 0.73746 0.79054 0.59772 0.0
C402 C 0.68508 0.7668 0.57175 0.0
N403 N 0.71134 0.80379 0.585 0.0
C404 C 0.73729 0.73884 0.59748 0.0
C405 C 0.71028 0.70069 0.58407 0.0
C406 C 0.83433 0.96191 0.59585 0.0
C407 C 0.7607 0.09475 0.55613 0.0
C408 C 0.83638 0.10205 0.58124 0.0
C409 C 0.85656 0.13908 0.56725 0.0
C410 C 0.81839 0.13526 0.55461 0.0
N411 N 0.77975 0.06245 0.58263 0.0
C412 C 0.74203 0.0585 0.57031 0.0
Co413 Co 0.81561 0.72894 0.92031 0.0
Co414 Co 0.72336 0.77017 0.93696 0.0
O415 O 0.74379 0.72898 0.92072 0.0
C416 C 0.80686 0.77651 0.88728 0.0
O417 O 0.79299 0.80836 0.89647 0.0
C418 C 0.63912 0.64923 0.94164 0.0
O419 O 0.68321 0.64134 0.942 0.0
O420 O 0.7533 0.74581 0.95647 0.0
O421 O 0.81278 0.71756 0.94586 0.0
H422 H 0.75471 0.90107 0.98656 0.0
H423 H 0.72135 0.65212 0.89709 0.0
O424 O 0.81913 0.74185 0.89472 0.0
H425 H 0.75969 0.52546 0.93322 0.0
H426 H 0.95635 0.67943 0.89478 0.0
H427 H 0.91941 0.77754 0.94209 0.0
H428 H 0.81672 0.62993 0.93654 0.0
H429 H 0.86532 0.67981 0.89633 0.0
O430 O 0.64673 0.69947 0.93985 0.0
H431 H 0.78176 0.85004 0.96573 0.0
H432 H 0.61716 0.77501 0.94308 0.0
H433 H 0.01081 0.7779 0.94112 0.0
H434 H 0.66353 0.54793 0.89326 0.0
H435 H 0.02974 0.72858 0.91732 0.0
H436 H 0.6824 0.48384 0.91146 0.0
O437 O 0.86014 0.81246 0.92404 0.0
H438 H 0.61373 0.74161 0.88238 0.0
H439 H 0.73777 0.88174 0.9256 0.0
H440 H 0.70504 0.91408 0.90074 0.0
H441 H 0.64266 0.84376 0.8789 0.0
H442 H 0.64776 0.71121 0.90737 0.0
H443 H 0.58813 0.8249 0.96374 0.0
H444 H 0.65726 0.88864 0.98563 0.0
O445 O 0.80017 0.8405 0.93438 0.0
C446 C 0.78777 0.72687 0.95836 0.0
C447 C 0.72428 0.87359 0.97704 0.0
C448 C 0.63075 0.83077 0.96425 0.0
N449 N 0.70124 0.81007 0.95312 0.0
C450 C 0.73942 0.84475 0.96518 0.0
C451 C 0.64738 0.80257 0.95261 0.0
C452 C 0.66957 0.86654 0.97652 0.0
C453 C 0.73027 0.62453 0.90491 0.0
N454 N 0.7726 0.64706 0.91694 0.0
C455 C 0.69721 0.56556 0.90275 0.0
C456 C 0.70777 0.52962 0.91298 0.0
C457 C 0.75111 0.55295 0.92519 0.0
C458 C 0.78323 0.61211 0.92703 0.0
C459 C 0.94856 0.70099 0.90522 0.0
C460 C 0.9272 0.75569 0.93176 0.0
C461 C 0.89718 0.70145 0.90615 0.0
N462 N 0.88698 0.72834 0.91935 0.0
C463 C 0.9791 0.75618 0.93125 0.0
C464 C 0.98972 0.72855 0.91788 0.0
C465 C 0.84972 0.85052 0.92973 0.0
C466 C 0.64075 0.77262 0.89184 0.0
C467 C 0.71056 0.85091 0.91616 0.0
C468 C 0.69211 0.86944 0.90213 0.0
C469 C 0.65707 0.82996 0.88988 0.0
N470 N 0.69449 0.79463 0.91797 0.0
C471 C 0.65994 0.75562 0.90606 0.0
Co472 Co 0.11587 0.84211 0.24995 0.0
Co473 Co 0.99337 0.74484 0.2711 0.0
O474 O 0.04888 0.76719 0.2527 0.0
C475 C 0.04798 0.82145 0.21846 0.0
O476 O 0.00382 0.80513 0.2286 0.0
C477 C 0.04166 0.6688 0.2738 0.0
O478 O 0.09142 0.71554 0.27268 0.0
O479 O 0.05433 0.78169 0.28865 0.0
O480 O 0.13395 0.84602 0.275 0.0
H481 H 0.90656 0.77391 0.32436 0.0
H482 H 0.10018 0.74642 0.22767 0.0
O483 O 0.09754 0.83906 0.22484 0.0
H484 H 0.28097 0.80791 0.25846 0.0
H485 H 0.29041 0.98877 0.21864 0.0
H486 H 0.16904 0.95031 0.26969 0.0
H487 H 0.22608 0.85726 0.26309 0.0
H488 H 0.2058 0.89389 0.22313 0.0
O489 O 0.996 0.67192 0.27369 0.0
H490 H 0.97646 0.80324 0.30079 0.0
H491 H 0.89123 0.63483 0.2808 0.0
H492 H 0.25339 0.04566 0.26577 0.0
H493 H 0.15386 0.69609 0.22259 0.0
H494 H 0.31475 0.06538 0.24009 0.0
H495 H 0.24483 0.72666 0.2381 0.0
O496 O 0.07117 0.88068 0.25468 0.0
H497 H 0.89808 0.62311 0.21947 0.0
H498 H 0.88656 0.74736 0.26364 0.0
H499 H 0.81201 0.70531 0.24138 0.0
H500 H 0.81756 0.64273 0.21908 0.0
H501 H 0.9719 0.66638 0.24189 0.0
H502 H 0.82057 0.60352 0.30421 0.0
H503 H 0.82791 0.67339 0.32616 0.0
O504 O 0.99135 0.81801 0.26871 0.0
C505 C 0.10655 0.82101 0.28861 0.0
C506 C 0.90278 0.74312 0.31483 0.0
C507 C 0.85456 0.64747 0.30354 0.0
N508 N 0.93755 0.72089 0.28937 0.0
C509 C 0.94211 0.75953 0.30143 0.0
C510 C 0.89472 0.6654 0.29033 0.0
C511 C 0.8587 0.6867 0.31585 0.0
C512 C 0.14007 0.76039 0.23432 0.0
N513 N 0.16018 0.80496 0.24557 0.0
C514 C 0.17014 0.73156 0.23145 0.0
C515 C 0.22114 0.74868 0.24018 0.0
C516 C 0.24142 0.79425 0.25161 0.0
C517 C 0.21015 0.822 0.25418 0.0
C518 C 0.26406 0.98068 0.22989 0.0
C519 C 0.19571 0.95848 0.25853 0.0
C520 C 0.21605 0.92709 0.23248 0.0
N521 N 0.18275 0.91653 0.2467 0.0
C522 C 0.24334 0.01259 0.25636 0.0
C523 C 0.2777 0.02364 0.24194 0.0
C524 C 0.02451 0.86742 0.26236 0.0
C525 C 0.89511 0.65018 0.22914 0.0
C526 C 0.88925 0.72019 0.25397 0.0
C527 C 0.84688 0.69642 0.24142 0.0
C528 C 0.84999 0.66128 0.22892 0.0
N529 N 0.93339 0.70916 0.25409 0.0
C530 C 0.93665 0.6746 0.24191 0.0
Co531 Co 0.28138 0.12316 0.58298 0.0
Co532 Co 0.24836 0.99943 0.60461 0.0
O533 O 0.28204 0.05236 0.58583 0.0
C534 C 0.22091 0.04986 0.5537 0.0
O535 O 0.19191 0.01137 0.56539 0.0
C536 C 0.3723 0.04021 0.60548 0.0
O537 O 0.37756 0.09091 0.60416 0.0
O538 O 0.27909 0.06211 0.6215 0.0
O539 O 0.30264 0.14424 0.60779 0.0
H540 H 0.13941 0.92468 0.65958 0.0
H541 H 0.34899 0.0938 0.55928 0.0
O542 O 0.25841 0.10031 0.55829 0.0
H543 H 0.48831 0.27452 0.58673 0.0
H544 H 0.31822 0.29725 0.54964 0.0
H545 H 0.24263 0.1902 0.60345 0.0
H546 H 0.38577 0.2297 0.59362 0.0
H547 H 0.31897 0.20755 0.55464 0.0
O548 O 0.32217 0.99619 0.60622 0.0
H549 H 0.17986 0.99137 0.63527 0.0
H550 H 0.24912 0.8937 0.61454 0.0
H551 H 0.2414 0.27985 0.59905 0.0
H552 H 0.45102 0.13729 0.55195 0.0
H553 H 0.27938 0.33402 0.57198 0.0
H554 H 0.5215 0.22818 0.56578 0.0
O555 O 0.19991 0.08716 0.5897 0.0
H556 H 0.25733 0.89206 0.55326 0.0
H557 H 0.13377 0.89803 0.59876 0.0
H558 H 0.09295 0.82078 0.5773 0.0
H559 H 0.15495 0.81748 0.55436 0.0
H560 H 0.29625 0.96873 0.57491 0.0
H561 H 0.2097 0.82604 0.63868 0.0
H562 H 0.15425 0.84129 0.66138 0.0
O563 O 0.17548 0.00441 0.60321 0.0
C564 C 0.298 0.11568 0.6214 0.0
C565 C 0.16326 0.91742 0.64973 0.0
C566 C 0.20279 0.86211 0.63801 0.0
N567 N 0.21622 0.94599 0.62343 0.0
C568 C 0.18607 0.95491 0.6359 0.0
C569 C 0.22505 0.90055 0.62439 0.0
C570 C 0.17167 0.87069 0.65074 0.0
C571 C 0.37929 0.13372 0.56519 0.0
N572 N 0.36141 0.15942 0.57677 0.0
C573 C 0.43705 0.15799 0.56106 0.0
C574 C 0.47659 0.20895 0.56884 0.0
C575 C 0.458 0.23496 0.5806 0.0
C576 C 0.39991 0.20939 0.58445 0.0
C577 C 0.30159 0.27406 0.5615 0.0
C578 C 0.25949 0.21368 0.59168 0.0
C579 C 0.30178 0.2232 0.56438 0.0
N580 N 0.2811 0.19387 0.57935 0.0
C581 C 0.25856 0.26435 0.58924 0.0
C582 C 0.27982 0.29469 0.57404 0.0
C583 C 0.16389 0.04228 0.59763 0.0
C584 C 0.22996 0.8929 0.56324 0.0
C585 C 0.16097 0.89681 0.58881 0.0
C586 C 0.13766 0.85296 0.57671 0.0
C587 C 0.17248 0.85111 0.56385 0.0
N588 N 0.21739 0.93756 0.58814 0.0
C589 C 0.25181 0.93606 0.57557 0.0
Co590 Co 0.18171 0.26356 0.91831 0.0
Co591 Co 0.26705 0.2278 0.94204 0.0
O592 O 0.25269 0.2642 0.9228 0.0
C593 C 0.20154 0.20755 0.88901 0.0
O594 O 0.21179 0.17877 0.9006 0.0
C595 C 0.34994 0.34986 0.94486 0.0
O596 O 0.306 0.35733 0.94268 0.0
O597 O 0.23093 0.25692 0.9582 0.0
O598 O 0.17551 0.28141 0.943 0.0
H599 H 0.21822 0.11149 0.99598 0.0
H600 H 0.28387 0.33455 0.89692 0.0
O601 O 0.18708 0.24393 0.89366 0.0
H602 H 0.23457 0.46945 0.92375 0.0
H603 H 0.05185 0.30489 0.88251 0.0
H604 H 0.07065 0.21968 0.9362 0.0
H605 H 0.17578 0.36608 0.92907 0.0
H606 H 0.1415 0.30587 0.88935 0.0
O607 O 0.34259 0.29946 0.94542 0.0
H608 H 0.19881 0.15589 0.97121 0.0
H609 H 0.37023 0.22577 0.95438 0.0
H610 H 0.9804 0.21805 0.92993 0.0
H611 H 0.34365 0.43752 0.89118 0.0
H612 H 0.97059 0.26089 0.90291 0.0
H613 H 0.31927 0.50576 0.90471 0.0
O614 O 0.13572 0.18129 0.92377 0.0
H615 H 0.39522 0.24241 0.89331 0.0
H616 H 0.25589 0.11394 0.93599 0.0
H617 H 0.29725 0.07554 0.91532 0.0
H618 H 0.36745 0.13999 0.89378 0.0
H619 H 0.35248 0.2789 0.91412 0.0
H620 H 0.39166 0.18242 0.97903 0.0
H621 H 0.31525 0.12464 1.0 0.0
O622 O 0.19119 0.15655 0.93883 0.0
C623 C 0.19609 0.27569 0.95716 0.0
C624 C 0.25181 0.13637 0.98689 0.0
C625 C 0.34917 0.17626 0.97739 0.0
N626 N 0.2832 0.19286 0.96129 0.0
C627 C 0.24101 0.16144 0.97282 0.0
C628 C 0.33683 0.20075 0.96348 0.0
C629 C 0.30628 0.14383 0.98915 0.0
C630 C 0.27258 0.36392 0.90268 0.0
N631 N 0.22619 0.34433 0.91322 0.0
C632 C 0.30675 0.4222 0.89945 0.0
C633 C 0.29309 0.46047 0.90707 0.0
C634 C 0.24559 0.44013 0.91776 0.0
C635 C 0.21247 0.38158 0.92073 0.0
C636 C 0.05564 0.28619 0.89434 0.0
C637 C 0.06682 0.23874 0.92447 0.0
C638 C 0.10623 0.28654 0.89826 0.0
N639 N 0.11138 0.26326 0.91322 0.0
C640 C 0.01556 0.23753 0.92097 0.0
C641 C 0.01007 0.26152 0.9058 0.0
C642 C 0.14368 0.14502 0.93192 0.0
C643 C 0.36483 0.21395 0.90267 0.0
C644 C 0.2864 0.14221 0.92665 0.0
C645 C 0.30974 0.12026 0.915 0.0
C646 C 0.34916 0.15646 0.90293 0.0
N647 N 0.30197 0.19864 0.92631 0.0
C648 C 0.34067 0.23442 0.91454 0.0
Co649 Co 0.89712 0.16899 0.25492 0.0
Co650 Co 0.02643 0.26978 0.27197 0.0
O651 O 0.96485 0.24406 0.25546 0.0
C652 C 0.9571 0.18258 0.2224 0.0
O653 O 0.00235 0.19909 0.23205 0.0
C654 C 0.97952 0.3468 0.27567 0.0
O655 O 0.92957 0.30009 0.2761 0.0
O656 O 0.97168 0.23681 0.29126 0.0
O657 O 0.88678 0.17103 0.2804 0.0
H658 H 0.1311 0.25113 0.32249 0.0
H659 H 0.90668 0.25971 0.23145 0.0
O660 O 0.90863 0.16666 0.22939 0.0
H661 H 0.73613 0.2071 0.26674 0.0
H662 H 0.71374 0.01697 0.22884 0.0
H663 H 0.8492 0.06544 0.27673 0.0
H664 H 0.79172 0.15811 0.2706 0.0
H665 H 0.79994 0.11211 0.23058 0.0
O666 O 0.02486 0.34336 0.27434 0.0
H667 H 0.05332 0.21735 0.30125 0.0
H668 H 0.13148 0.38128 0.27821 0.0
H669 H 0.7634 0.97 0.27558 0.0
H670 H 0.85218 0.30954 0.2271 0.0
H671 H 0.69495 0.94525 0.25149 0.0
H672 H 0.76635 0.28344 0.24487 0.0
O673 O 0.94235 0.13066 0.25903 0.0
H674 H 0.10281 0.37957 0.21721 0.0
H675 H 0.13011 0.26529 0.26145 0.0
H676 H 0.1961 0.30177 0.23686 0.0
H677 H 0.18253 0.35925 0.2145 0.0
H678 H 0.03763 0.34192 0.24195 0.0
H679 H 0.20993 0.41701 0.29928 0.0
H680 H 0.21013 0.35163 0.32158 0.0
O681 O 0.02754 0.19599 0.26982 0.0
C682 C 0.91935 0.19866 0.29298 0.0
C683 C 0.13161 0.27996 0.3128 0.0
C684 C 0.17581 0.37309 0.29978 0.0
N685 N 0.08823 0.29717 0.28842 0.0
C686 C 0.0878 0.26102 0.3007 0.0
C687 C 0.13126 0.35266 0.28791 0.0
C688 C 0.17591 0.33638 0.31229 0.0
C689 C 0.86901 0.24766 0.2391 0.0
N690 N 0.85215 0.20579 0.25118 0.0
C691 C 0.83847 0.27621 0.23663 0.0
C692 C 0.79037 0.2616 0.24662 0.0
C693 C 0.7734 0.21879 0.2589 0.0
C694 C 0.80505 0.19123 0.26104 0.0
C695 C 0.74318 0.02728 0.23941 0.0
C696 C 0.81942 0.05511 0.26628 0.0
C697 C 0.79209 0.08101 0.24044 0.0
N698 N 0.82926 0.09438 0.25381 0.0
C699 C 0.771 0.00094 0.26566 0.0
C700 C 0.73266 0.98706 0.25213 0.0
C701 C 0.99164 0.14516 0.26501 0.0
C702 C 0.10926 0.35472 0.22689 0.0
C703 C 0.12402 0.29034 0.25179 0.0
C704 C 0.16154 0.31095 0.2379 0.0
C705 C 0.15394 0.34324 0.22537 0.0
N706 N 0.08023 0.30167 0.25317 0.0
C707 C 0.07265 0.33351 0.24098 0.0
H708 H 0.05635 0.23032 0.20465 0.0
H709 H 0.87356 0.14206 0.1977 0.0
H710 H 0.88654 0.14783 0.16655 0.0
H711 H 0.95003 0.17813 0.14138 0.0
H712 H 0.13275 0.26802 0.14872 0.0
H713 H 0.11935 0.26137 0.17973 0.0
C714 C 0.01917 0.21204 0.19637 0.0
C715 C 0.96398 0.18542 0.20353 0.0
C716 C 0.02696 0.21586 0.17855 0.0
C717 C 0.91648 0.16263 0.19254 0.0
C718 C 0.9239 0.16592 0.17474 0.0
C719 C 0.98697 0.19606 0.14975 0.0
C720 C 0.04238 0.22328 0.1427 0.0
C721 C 0.97897 0.1924 0.16761 0.0
C722 C 0.08968 0.24678 0.15377 0.0
C723 C 0.08206 0.24297 0.17151 0.0
H724 H 0.75215 0.92203 0.47194 0.0
H725 H 0.84387 0.10489 0.47834 0.0
H726 H 0.8405 0.09306 0.50949 0.0
H727 H 0.81216 0.03094 0.53474 0.0
H728 H 0.71707 0.84812 0.52843 0.0
H729 H 0.72125 0.85987 0.49726 0.0
C730 C 0.77164 0.9594 0.48012 0.0
C731 C 0.7987 0.01436 0.4728 0.0
C732 C 0.76899 0.95225 0.49799 0.0
C733 C 0.82293 0.06219 0.48363 0.0
C734 C 0.82108 0.05542 0.50143 0.0
C735 C 0.79248 0.99354 0.52658 0.0
C736 C 0.76473 0.93862 0.53393 0.0
C737 C 0.79439 0.00067 0.50873 0.0
C738 C 0.73884 0.89078 0.52313 0.0
C739 C 0.74124 0.89751 0.50531 0.0
H740 H 0.82236 0.7713 0.80662 0.0
H741 H 0.73534 0.86814 0.81078 0.0
H742 H 0.73737 0.86257 0.84207 0.0
H743 H 0.76362 0.82999 0.86811 0.0
H744 H 0.84793 0.73056 0.86381 0.0
H745 H 0.84695 0.73725 0.83257 0.0
C746 C 0.80406 0.79153 0.81433 0.0
C747 C 0.77911 0.82055 0.80634 0.0
C748 C 0.80478 0.78755 0.83226 0.0
C749 C 0.75496 0.84575 0.81658 0.0
C750 C 0.75611 0.84255 0.83447 0.0
C751 C 0.78205 0.80993 0.86037 0.0
C752 C 0.80622 0.78011 0.86833 0.0
C753 C 0.78092 0.81357 0.84243 0.0
C754 C 0.82919 0.75383 0.85805 0.0
C755 C 0.8287 0.75771 0.84019 0.0
H756 H 0.05467 0.82551 0.13771 0.0
H757 H 0.87179 0.73146 0.14439 0.0
H758 H 0.88428 0.73824 0.17556 0.0
H759 H 0.94744 0.77091 0.20084 0.0
H760 H 0.13026 0.86324 0.1937 0.0
H761 H 0.11728 0.85693 0.16269 0.0
C762 C 0.01736 0.80661 0.14593 0.0
C763 C 0.96229 0.77831 0.13869 0.0
C764 C 0.02488 0.81034 0.16376 0.0
C765 C 0.91462 0.75361 0.14961 0.0
C766 C 0.92176 0.7575 0.16743 0.0
C767 C 0.98448 0.78991 0.19251 0.0
C768 C 0.03981 0.81782 0.19963 0.0
C769 C 0.97673 0.78583 0.17464 0.0
C770 C 0.08725 0.84161 0.18861 0.0
C771 C 0.07987 0.83806 0.17086 0.0
H772 H 0.26158 0.11732 0.5252 0.0
H773 H 0.1619 0.94173 0.54128 0.0
H774 H 0.14945 0.91021 0.51163 0.0
H775 H 0.16626 0.93193 0.48091 0.0
H776 H 0.26269 0.10746 0.46464 0.0
H777 H 0.27688 0.13917 0.49437 0.0
C778 C 0.23707 0.07222 0.5222 0.0
C779 C 0.21274 0.03215 0.53548 0.0
C780 C 0.22941 0.05412 0.50501 0.0
C781 C 0.18097 0.97375 0.53135 0.0
C782 C 0.17386 0.95549 0.51435 0.0
C783 C 0.19047 0.97707 0.4839 0.0
C784 C 0.2133 0.01714 0.47057 0.0
C785 C 0.19784 0.99523 0.50106 0.0
C786 C 0.24432 0.07559 0.47464 0.0
C787 C 0.25259 0.09388 0.49167 0.0
H788 H 0.25233 0.14714 0.81521 0.0
H789 H 0.16098 0.2337 0.80059 0.0
H790 H 0.14967 0.25087 0.83055 0.0
H791 H 0.16539 0.24148 0.86109 0.0
H792 H 0.25443 0.15278 0.87582 0.0
H793 H 0.26686 0.13655 0.84581 0.0
C794 C 0.22987 0.16964 0.81859 0.0
C795 C 0.20749 0.18888 0.80564 0.0
C796 C 0.22305 0.17915 0.83594 0.0
C797 C 0.17843 0.218 0.81027 0.0
C798 C 0.17201 0.22807 0.82743 0.0
C799 C 0.18757 0.2187 0.85772 0.0
C800 C 0.20882 0.19839 0.87069 0.0
C801 C 0.19411 0.20887 0.84039 0.0
C802 C 0.23729 0.16868 0.8661 0.0
C803 C 0.24455 0.15939 0.84892 0.0
H804 H 0.06844 0.29356 0.02229 0.0
H805 H 0.21383 0.29874 0.04717 0.0
H806 H 0.25584 0.30125 0.01934 0.0
H807 H 0.24745 0.29327 0.98817 0.0
H808 H 0.10226 0.28739 0.96305 0.0
H809 H 0.06453 0.29473 0.99083 0.0
C810 C 0.10963 0.29586 0.02167 0.0
C811 C 0.13747 0.29517 0.03688 0.0
C812 C 0.13353 0.29695 0.00559 0.0
C813 C 0.19114 0.29884 0.03575 0.0
C814 C 0.21521 0.30014 0.01981 0.0
C815 C 0.20777 0.29413 0.9887 0.0
C816 C 0.17731 0.28891 0.97353 0.0
C817 C 0.18614 0.29784 0.00468 0.0
C818 C 0.1265 0.29109 0.9745 0.0
C819 C 0.10476 0.29501 0.9904 0.0
H820 H 0.87279 0.16086 0.37242 0.0
H821 H 0.72664 0.0065 0.35404 0.0
H822 H 0.75214 0.03869 0.32459 0.0
H823 H 0.82001 0.10675 0.30386 0.0
H824 H 0.96824 0.25946 0.32215 0.0
H825 H 0.93746 0.23198 0.35164 0.0
C826 C 0.8461 0.1346 0.362 0.0
C827 C 0.79821 0.08111 0.36551 0.0
C828 C 0.86152 0.15285 0.34497 0.0
C829 C 0.76415 0.04766 0.35178 0.0
C830 C 0.77864 0.06599 0.33487 0.0
C831 C 0.84524 0.13442 0.31427 0.0
C832 C 0.89662 0.18481 0.31071 0.0
C833 C 0.8279 0.11793 0.33129 0.0
C834 C 0.9287 0.22009 0.32444 0.0
C835 C 0.91119 0.20444 0.34137 0.0
H836 H 0.70109 0.87462 0.70352 0.0
H837 H 0.71922 0.73022 0.6891 0.0
H838 H 0.70957 0.74718 0.65905 0.0
H839 H 0.70453 0.80781 0.63654 0.0
H840 H 0.68927 0.95378 0.65086 0.0
H841 H 0.68832 0.93072 0.68104 0.0
C842 C 0.70231 0.84648 0.69384 0.0
C843 C 0.7116 0.80172 0.69867 0.0
C844 C 0.69735 0.85672 0.67643 0.0
C845 C 0.7128 0.76555 0.68585 0.0
C846 C 0.70719 0.77507 0.66859 0.0
C847 C 0.69994 0.83393 0.64625 0.0
C848 C 0.69761 0.88271 0.6414 0.0
C849 C 0.70066 0.82122 0.66368 0.0
C850 C 0.6918 0.91622 0.6542 0.0
C851 C 0.69135 0.90321 0.67151 0.0
H852 H 0.82116 0.71539 0.03794 0.0
H853 H 0.96883 0.70818 0.0202 0.0
H854 H 0.93854 0.70429 0.99062 0.0
H855 H 0.87436 0.71054 0.96959 0.0
H856 H 0.72874 0.72149 0.98735 0.0
H857 H 0.75387 0.71583 0.01694 0.0
C858 C 0.84638 0.71224 0.02764 0.0
C859 C 0.89745 0.71257 0.03137 0.0
C860 C 0.82932 0.71104 0.01055 0.0
C861 C 0.92953 0.70851 0.01777 0.0
C862 C 0.9123 0.7063 1.0008 0.0
C863 C 0.8477 0.71098 0.97991 0.0
C864 C 0.80003 0.71694 0.97616 0.0
C865 C 0.8629 0.70872 0.997 0.0
C866 C 0.76604 0.71746 0.98978 0.0
C867 C 0.78034 0.71424 0.00676 0.0
H868 H 0.06637 0.77426 0.32012 0.0
H869 H 0.21261 0.91201 0.29496 0.0
H870 H 0.25543 0.95132 0.32271 0.0
H871 H 0.24752 0.95175 0.35385 0.0
H872 H 0.10145 0.81525 0.3793 0.0
H873 H 0.06292 0.76979 0.35161 0.0
C874 C 0.10791 0.81255 0.32066 0.0
C875 C 0.13576 0.84049 0.30539 0.0
C876 C 0.13228 0.83527 0.3367 0.0
C877 C 0.18989 0.88971 0.30643 0.0
C878 C 0.21444 0.91236 0.32231 0.0
C879 C 0.20747 0.91171 0.35341 0.0
C880 C 0.17697 0.88741 0.36863 0.0
C881 C 0.18538 0.88627 0.33749 0.0
C882 C 0.12571 0.83502 0.3678 0.0
C883 C 0.10352 0.80918 0.35196 0.0
H884 H 0.3111 0.07338 0.65152 0.0
H885 H 0.31409 0.22148 0.62961 0.0
H886 H 0.31768 0.25904 0.65836 0.0
H887 H 0.3084 0.2441 0.6894 0.0
H888 H 0.30162 0.09408 0.71123 0.0
H889 H 0.31151 0.06314 0.68263 0.0
C890 C 0.31324 0.11429 0.65295 0.0
C891 C 0.31131 0.14411 0.63837 0.0
C892 C 0.31406 0.13494 0.66948 0.0
C893 C 0.31518 0.19746 0.64055 0.0
C894 C 0.31689 0.21878 0.657 0.0
C895 C 0.30962 0.20483 0.68799 0.0
C896 C 0.30326 0.17092 0.70247 0.0
C897 C 0.31445 0.18694 0.67152 0.0
C898 C 0.30603 0.1208 0.70035 0.0
C899 C 0.31149 0.10301 0.68398 0.0
H900 H 0.07493 0.62192 0.06789 0.0
H901 H 0.89102 0.52389 0.06501 0.0
H902 H 0.89443 0.4356 0.0651 0.0
H903 H 0.94926 0.38556 0.06637 0.0
H904 H 0.13312 0.48345 0.06948 0.0
H905 H 0.12985 0.57185 0.06891 0.0
C906 C 0.03561 0.58127 0.06723 0.0
C907 C 0.98288 0.57978 0.0664 0.0
C908 C 0.03773 0.53033 0.06735 0.0
C909 C 0.93233 0.52656 0.0656 0.0
C910 C 0.93414 0.47585 0.06568 0.0
C911 C 0.98863 0.42621 0.06688 0.0
C912 C 0.04129 0.42764 0.06793 0.0
C913 C 0.98656 0.47716 0.06659 0.0
C914 C 0.09188 0.48085 0.06861 0.0
C915 C 0.09013 0.5316 0.06831 0.0
H916 H 0.60918 0.06821 0.39516 0.0
H917 H 0.53473 0.8859 0.40059 0.0
H918 H 0.43917 0.87453 0.39972 0.0
H919 H 0.37732 0.91651 0.39813 0.0
H920 H 0.45184 0.09886 0.39278 0.0
H921 H 0.54729 0.10994 0.39284 0.0
C922 C 0.57212 0.02587 0.39608 0.0
C923 C 0.5791 0.97793 0.39795 0.0
C924 C 0.51748 0.01968 0.39559 0.0
C925 C 0.53056 0.92347 0.39912 0.0
C926 C 0.47594 0.91696 0.39864 0.0
C927 C 0.41436 0.95873 0.39687 0.0
C928 C 0.40744 0.00683 0.39545 0.0
C929 C 0.46897 0.96479 0.39697 0.0
C930 C 0.45596 0.06115 0.39386 0.0
C931 C 0.51053 0.06752 0.39393 0.0
H932 H 0.38576 0.4414 0.7333 0.0
H933 H 0.4785 0.34998 0.7367 0.0
H934 H 0.56859 0.43955 0.73722 0.0
H935 H 0.62177 0.54432 0.737 0.0
H936 H 0.52893 0.63571 0.73386 0.0
H937 H 0.43893 0.54613 0.73296 0.0
C938 C 0.42567 0.44109 0.7341 0.0
C939 C 0.42515 0.38896 0.73491 0.0
C940 C 0.47767 0.49293 0.73447 0.0
C941 C 0.4774 0.38941 0.736 0.0
C942 C 0.52915 0.4407 0.73633 0.0
C943 C 0.58186 0.54461 0.7361 0.0
C944 C 0.58234 0.59674 0.73546 0.0
C945 C 0.52988 0.49276 0.73562 0.0
C946 C 0.53009 0.59628 0.73431 0.0
C947 C 0.47838 0.54498 0.73381 0.0
H948 H 0.38277 0.94408 0.6071 0.0
H949 H 0.48217 0.12758 0.60378 0.0
H950 H 0.57001 0.12348 0.6034 0.0
H951 H 0.62009 0.06806 0.60386 0.0
H952 H 0.5204 0.88448 0.60692 0.0
H953 H 0.43274 0.88874 0.60754 0.0
C954 C 0.42361 0.98315 0.60634 0.0
C955 C 0.4253 0.03594 0.60554 0.0
C956 C 0.47466 0.98071 0.60606 0.0
C957 C 0.479 0.08611 0.60449 0.0
C958 C 0.52964 0.08396 0.60424 0.0
C959 C 0.57923 0.02904 0.60468 0.0
C960 C 0.57744 0.97618 0.6054 0.0
C961 C 0.52818 0.03153 0.60501 0.0
C962 C 0.5237 0.92604 0.60642 0.0
C963 C 0.47313 0.92826 0.60676 0.0
H964 H 0.37864 0.4611 0.94267 0.0
H965 H 0.45167 0.35175 0.94825 0.0
H966 H 0.5475 0.43511 0.94801 0.0
H967 H 0.61025 0.53841 0.94558 0.0
H968 H 0.53723 0.64776 0.93993 0.0
H969 H 0.44133 0.56456 0.94084 0.0
C970 C 0.41544 0.45538 0.94394 0.0
C971 C 0.40795 0.4002 0.9455 0.0
C972 C 0.47031 0.50338 0.94373 0.0
C973 C 0.45619 0.3937 0.94707 0.0
C974 C 0.511 0.44134 0.9469 0.0
C975 C 0.57342 0.54422 0.94462 0.0
C976 C 0.58094 0.5993 0.94269 0.0
C977 C 0.51852 0.4963 0.94514 0.0
C978 C 0.53268 0.60588 0.94144 0.0
C979 C 0.47784 0.55834 0.94195 0.0
H980 H 0.94729 0.56285 0.27608 0.0
H981 H 0.1312 0.649 0.27301 0.0
H982 H 0.12857 0.55768 0.2736 0.0
H983 H 0.07421 0.45291 0.27458 0.0
H984 H 0.89024 0.3668 0.2774 0.0
H985 H 0.893 0.45817 0.27733 0.0
C986 C 0.9868 0.56167 0.27559 0.0
C987 C 0.03929 0.61285 0.27455 0.0
C988 C 0.98511 0.50884 0.27587 0.0
C989 C 0.09008 0.61039 0.27388 0.0
C990 C 0.08871 0.55809 0.27419 0.0
C991 C 0.03474 0.45413 0.27524 0.0
C992 C 0.98219 0.40292 0.27603 0.0
C993 C 0.03648 0.50699 0.27514 0.0
C994 C 0.93143 0.40543 0.27683 0.0
C995 C 0.93287 0.45775 0.27677 0.0
H996 H 0.09745 0.11409 0.08007 0.0
H997 H 0.91956 0.06547 0.07626 0.0
H998 H 0.89344 0.96498 0.07474 0.0
H999 H 0.92103 0.89113 0.07534 0.0
H1000 H 0.09924 0.94001 0.07777 0.0
H1001 H 0.12544 0.04057 0.07885 0.0
C1002 C 0.05292 0.08156 0.07892 0.0
C1003 C 0.01043 0.09731 0.07848 0.0
C1004 C 0.03835 0.02404 0.07777 0.0
C1005 C 0.95306 0.05459 0.07667 0.0
C1006 C 0.93812 0.99713 0.07583 0.0
C1007 C 0.96567 0.92374 0.07607 0.0
C1008 C 0.00812 0.90796 0.07664 0.0
C1009 C 0.98039 0.98139 0.0765 0.0
C1010 C 0.06574 0.95088 0.07731 0.0
C1011 C 0.08071 0.00838 0.07799 0.0
H1012 H 0.95835 0.0751 0.40787 0.0
H1013 H 0.84659 0.8932 0.41213 0.0
H1014 H 0.92926 0.87907 0.41164 0.0
H1015 H 0.03288 0.91878 0.41098 0.0
H1016 H 0.14455 0.10029 0.4055 0.0
H1017 H 0.06175 0.11432 0.40538 0.0
C1018 C 0.95201 0.03233 0.4087 0.0
C1019 C 0.89647 0.98525 0.41025 0.0
C1020 C 0.99953 0.02457 0.40819 0.0
C1021 C 0.88889 0.93006 0.41097 0.0
C1022 C 0.93611 0.92202 0.41073 0.0
C1023 C 0.03919 0.96146 0.40975 0.0
C1024 C 0.0948 0.00856 0.40846 0.0
C1025 C 0.99156 0.96902 0.40951 0.0
C1026 C 0.1022 0.06343 0.40654 0.0
C1027 C 0.05493 0.07144 0.40653 0.0
H1028 H 0.11537 0.02111 0.74396 0.0
H1029 H 0.06055 0.14543 0.73876 0.0
H1030 H 0.96083 0.06868 0.73824 0.0
H1031 H 0.88963 0.96695 0.74066 0.0
H1032 H 0.94467 0.84258 0.74506 0.0
H1033 H 0.04442 0.91911 0.74443 0.0
C1034 C 0.08169 0.03158 0.74266 0.0
C1035 C 0.09547 0.08913 0.7416 0.0
C1036 C 0.02466 0.98731 0.74229 0.0
C1037 C 0.05123 0.10166 0.73963 0.0
C1038 C 0.99422 0.05777 0.73939 0.0
C1039 C 0.92337 0.95643 0.74146 0.0
C1040 C 0.9096 0.89901 0.74313 0.0
C1041 C 0.98049 0.00055 0.74095 0.0
C1042 C 0.95397 0.88626 0.74382 0.0
C1043 C 0.011 0.93004 0.74351 0.0
H1044 H 0.93866 0.06035 0.60014 0.0
H1045 H 0.86156 0.87757 0.59567 0.0
H1046 H 0.95462 0.88499 0.59724 0.0
H1047 H 0.05968 0.94329 0.59834 0.0
H1048 H 0.13743 0.12613 0.60154 0.0
H1049 H 0.04382 0.11855 0.60216 0.0
C1050 C 0.94218 0.02216 0.59962 0.0
C1051 C 0.89256 0.96863 0.59766 0.0
C1052 C 0.9966 0.02654 0.60028 0.0
C1053 C 0.89853 0.91966 0.59701 0.0
C1054 C 0.95205 0.92367 0.59794 0.0
C1055 C 0.05606 0.98133 0.59942 0.0
C1056 C 0.10581 0.03513 0.59985 0.0
C1057 C 1.00161 0.97688 0.59938 0.0
C1058 C 0.10005 0.08405 0.60105 0.0
C1059 C 0.04633 0.07985 0.60141 0.0
H1060 H 0.96149 0.88295 0.93331 0.0
H1061 H 0.84693 0.95019 0.92877 0.0
H1062 H 0.92826 0.0474 0.92933 0.0
H1063 H 0.03158 0.11263 0.93024 0.0
H1064 H 0.14599 0.04567 0.93604 0.0
H1065 H 0.06456 0.94842 0.93596 0.0
C1066 C 0.95425 0.91885 0.93243 0.0
C1067 C 0.89828 0.9094 0.9308 0.0
C1068 C 1.00103 0.97441 0.933 0.0
C1069 C 0.88956 0.95635 0.93 0.0
C1070 C 0.93603 0.01187 0.93028 0.0
C1071 C 0.03879 0.0768 0.9315 0.0
C1072 C 0.09481 0.08629 0.93295 0.0
C1073 C 0.99189 0.0213 0.93163 0.0
C1074 C 0.10333 0.03947 0.93488 0.0
C1075 C 0.05682 0.98393 0.93478 0.0
H1076 H 0.09601 0.98202 0.26229 0.0
H1077 H 0.91786 0.85433 0.26625 0.0
H1078 H 0.8924 0.9293 0.26776 0.0
H1079 H 0.92063 0.03078 0.26708 0.0
H1080 H 0.09908 0.15854 0.26448 0.0
H1081 H 0.12466 0.0836 0.26346 0.0
C1082 C 0.05156 0.97048 0.26347 0.0
C1083 C 0.0088 0.91252 0.26395 0.0
C1084 C 0.03738 0.01377 0.26461 0.0
C1085 C 0.95155 0.89848 0.2658 0.0
C1086 C 0.937 0.94135 0.26664 0.0
C1087 C 0.96518 0.04233 0.26632 0.0
C1088 C 0.00789 0.10029 0.26568 0.0
C1089 C 0.97953 0.99908 0.26592 0.0
C1090 C 0.0654 0.1144 0.26499 0.0
C1091 C 0.08 0.07153 0.26434 0.0
loop_
_geom_bond_atom_site_label_1
_geom_bond_atom_site_label_2
_geom_bond_distance
_geom_bond_site_symmetry_2
_ccdc_geom_bond_type
Co0 O2 2.143 . S
Co0 O8 2.074 . S
Co0 O11 2.093 . S
Co0 O24 2.097 . S
Co0 N41 2.151 . S
Co0 N49 2.214 . S
Co1 O2 2.160 1_655 S
Co1 O7 2.058 1_655 S
Co1 O17 2.057 . S
Co1 O32 2.037 . S
Co1 N36 2.145 . S
Co1 N57 2.257 . S
O2 Co0 2.143 . S
O2 Co1 2.160 1_455 S
C3 O4 1.288 . S
C3 O11 1.224 . S
O4 C3 1.288 . S
C5 O6 1.245 1_655 S
C5 O17 1.232 . S
O6 C5 1.245 1_455 S
O7 Co1 2.058 1_455 S
O7 C33 1.269 . S
O8 Co0 2.074 . S
O8 C33 1.257 . S
H9 C34 0.930 . S
H10 C40 0.930 . S
O11 Co0 2.093 . S
O11 C3 1.224 . S
H12 C44 0.929 . S
H13 C46 0.930 . S
H14 C47 0.930 . S
H15 C45 0.929 . S
H16 C48 0.928 . S
O17 Co1 2.057 . S
O17 C5 1.232 . S
H18 C37 0.929 . S
H19 C38 0.929 . S
H20 C50 0.931 . S
H21 C42 0.929 . S
H22 C51 0.930 . S
H23 C43 0.931 . S
O24 Co0 2.097 . S
O24 C52 1.214 1_455 S
H25 C53 0.929 . S
H26 C54 0.929 . S
H27 C55 0.930 . S
H28 C56 0.929 . S
H29 C58 0.930 . S
H30 C35 0.930 . S
H31 C39 0.930 . S
O32 Co1 2.037 . S
O32 C52 1.234 . S
C33 O7 1.269 . S
C33 O8 1.257 . S
C34 H9 0.930 . S
C34 C37 1.388 . S
C34 C39 1.418 . S
C35 H30 0.930 . S
C35 C38 1.404 . S
C35 C39 1.353 . S
N36 Co1 2.145 . S
N36 C37 1.397 . S
N36 C38 1.334 . S
C37 H18 0.929 . S
C37 C34 1.388 . S
C37 N36 1.397 . S
C38 H19 0.929 . S
C38 C35 1.404 . S
C38 N36 1.334 . S
C39 H31 0.930 . S
C39 C34 1.418 . S
C39 C35 1.353 . S
C40 H10 0.930 . S
C40 N41 1.330 . S
C40 C42 1.446 . S
N41 Co0 2.151 . S
N41 C40 1.330 . S
N41 C45 1.418 . S
C42 H21 0.929 . S
C42 C40 1.446 . S
C42 C43 1.332 . S
C43 H23 0.931 . S
C43 C42 1.332 . S
C43 C44 1.267 . S
C44 H12 0.929 . S
C44 C43 1.267 . S
C44 C45 1.251 . S
C45 H15 0.929 . S
C45 N41 1.418 . S
C45 C44 1.251 . S
C46 H13 0.930 . S
C46 C48 1.406 . S
C46 C51 1.261 . S
C47 H14 0.930 . S
C47 N49 1.325 . S
C47 C50 1.357 . S
C48 H16 0.928 . S
C48 C46 1.406 . S
C48 N49 1.261 . S
N49 Co0 2.214 . S
N49 C47 1.325 . S
N49 C48 1.261 . S
C50 H20 0.931 . S
C50 C47 1.357 . S
C50 C51 1.312 . S
C51 H22 0.930 . S
C51 C46 1.261 . S
C51 C50 1.312 . S
C52 O24 1.214 1_655 S
C52 O32 1.234 . S
C53 H25 0.929 . S
C53 C56 1.391 . S
C53 C58 1.391 . S
C54 H26 0.929 . S
C54 C55 1.390 . S
C54 N57 1.391 . S
C55 H27 0.930 . S
C55 C54 1.390 . S
C55 C56 1.392 . S
C56 H28 0.929 . S
C56 C53 1.391 . S
C56 C55 1.392 . S
N57 Co1 2.257 . S
N57 C54 1.391 . S
N57 C58 1.388 . S
C58 H29 0.930 . S
C58 C53 1.391 . S
C58 N57 1.388 . S
Co59 O61 2.143 . S
Co59 O67 2.074 . S
Co59 O70 2.093 . S
Co59 O83 2.097 . S
Co59 N100 2.151 . S
Co59 N108 2.214 . S
Co60 O61 2.160 1_565 S
Co60 O66 2.058 1_565 S
Co60 O76 2.057 . S
Co60 O91 2.037 . S
Co60 N95 2.145 . S
Co60 N116 2.257 . S
O61 Co59 2.143 . S
O61 Co60 2.160 1_545 S
C62 O63 1.278 1_545 S
C62 O70 1.224 . S
O63 C62 1.278 1_565 S
C64 O65 1.245 1_565 S
C64 O76 1.232 . S
O65 C64 1.245 1_545 S
O66 Co60 2.058 1_545 S
O66 C92 1.269 . S
O67 Co59 2.074 . S
O67 C92 1.257 . S
H68 C93 0.930 . S
H69 C99 0.930 . S
O70 Co59 2.093 . S
O70 C62 1.224 . S
H71 C103 0.929 . S
H72 C105 0.930 . S
H73 C106 0.930 . S
H74 C104 0.929 . S
H75 C107 0.928 . S
O76 Co60 2.057 . S
O76 C64 1.232 . S
H77 C96 0.929 . S
H78 C97 0.929 . S
H79 C109 0.931 . S
H80 C101 0.929 . S
H81 C110 0.930 . S
H82 C102 0.931 . S
O83 Co59 2.097 . S
O83 C111 1.214 1_545 S
H84 C112 0.929 . S
H85 C113 0.929 . S
H86 C114 0.930 . S
H87 C115 0.929 . S
H88 C117 0.930 . S
H89 C94 0.930 . S
H90 C98 0.930 . S
O91 Co60 2.037 . S
O91 C111 1.234 . S
C92 O66 1.269 . S
C92 O67 1.257 . S
C93 H68 0.930 . S
C93 C96 1.388 . S
C93 C98 1.418 . S
C94 H89 0.930 . S
C94 C97 1.404 . S
C94 C98 1.353 . S
N95 Co60 2.145 . S
N95 C96 1.397 . S
N95 C97 1.334 . S
C96 H77 0.929 . S
C96 C93 1.388 . S
C96 N95 1.397 . S
C97 H78 0.929 . S
C97 C94 1.404 . S
C97 N95 1.334 . S
C98 H90 0.930 . S
C98 C93 1.418 . S
C98 C94 1.353 . S
C99 H69 0.930 . S
C99 N100 1.330 . S
C99 C101 1.446 . S
N100 Co59 2.151 . S
N100 C99 1.330 . S
N100 C104 1.418 . S
C101 H80 0.929 . S
C101 C99 1.446 . S
C101 C102 1.332 . S
C102 H82 0.931 . S
C102 C101 1.332 . S
C102 C103 1.267 . S
C103 H71 0.929 . S
C103 C102 1.267 . S
C103 C104 1.251 . S
C104 H74 0.929 . S
C104 N100 1.418 . S
C104 C103 1.251 . S
C105 H72 0.930 . S
C105 C107 1.406 1_455 S
C105 C110 1.261 . S
C106 H73 0.930 . S
C106 N108 1.325 . S
C106 C109 1.357 1_655 S
C107 H75 0.928 . S
C107 C105 1.406 1_655 S
C107 N108 1.261 . S
N108 Co59 2.214 . S
N108 C106 1.325 . S
N108 C107 1.261 . S
C109 H79 0.931 . S
C109 C106 1.357 1_455 S
C109 C110 1.312 . S
C110 H81 0.930 . S
C110 C105 1.261 . S
C110 C109 1.312 . S
C111 O83 1.214 1_565 S
C111 O91 1.234 . S
C112 H84 0.929 . S
C112 C115 1.391 . S
C112 C117 1.391 . S
C113 H85 0.929 . S
C113 C114 1.390 . S
C113 N116 1.391 . S
C114 H86 0.930 . S
C114 C113 1.390 . S
C114 C115 1.392 . S
C115 H87 0.929 . S
C115 C112 1.391 . S
C115 C114 1.392 . S
N116 Co60 2.257 . S
N116 C113 1.391 . S
N116 C117 1.388 . S
C117 H88 0.930 . S
C117 C112 1.391 . S
C117 N116 1.388 . S
Co118 O120 2.143 . S
Co118 O126 2.074 . S
Co118 O129 2.093 . S
Co118 O142 2.097 . S
Co118 N159 2.151 . S
Co118 N167 2.214 . S
Co119 O120 2.160 . S
Co119 O125 2.058 . S
Co119 O135 2.057 . S
Co119 O150 2.037 . S
Co119 N154 2.145 . S
Co119 N175 2.257 . S
O120 Co118 2.143 . S
O120 Co119 2.160 . S
C121 O122 1.278 . S
C121 O129 1.224 . S
O122 C121 1.278 . S
C123 O124 1.245 . S
C123 O135 1.232 . S
O124 C123 1.245 . S
O125 Co119 2.058 . S
O125 C151 1.269 . S
O126 Co118 2.074 . S
O126 C151 1.257 . S
H127 C152 0.930 . S
H128 C158 0.930 . S
O129 Co118 2.093 . S
O129 C121 1.224 . S
H130 C162 0.929 . S
H131 C164 0.930 . S
H132 C165 0.930 . S
H133 C163 0.929 . S
H134 C166 0.928 . S
O135 Co119 2.057 . S
O135 C123 1.232 . S
H136 C155 0.929 . S
H137 C156 0.929 . S
H138 C168 0.931 . S
H139 C160 0.929 . S
H140 C169 0.930 . S
H141 C161 0.931 . S
O142 Co118 2.097 . S
O142 C170 1.214 . S
H143 C171 0.929 . S
H144 C172 0.929 . S
H145 C173 0.930 . S
H146 C174 0.929 . S
H147 C176 0.930 . S
H148 C153 0.930 . S
H149 C157 0.930 . S
O150 Co119 2.037 . S
O150 C170 1.234 . S
C151 O125 1.269 . S
C151 O126 1.257 . S
C152 H127 0.930 . S
C152 C155 1.388 . S
C152 C157 1.418 . S
C153 H148 0.930 . S
C153 C156 1.404 . S
C153 C157 1.353 . S
N154 Co119 2.145 . S
N154 C155 1.397 . S
N154 C156 1.334 . S
C155 H136 0.929 . S
C155 C152 1.388 . S
C155 N154 1.397 . S
C156 H137 0.929 . S
C156 C153 1.404 . S
C156 N154 1.334 . S
C157 H149 0.930 . S
C157 C152 1.418 . S
C157 C153 1.353 . S
C158 H128 0.930 . S
C158 N159 1.330 . S
C158 C160 1.446 . S
N159 Co118 2.151 . S
N159 C158 1.330 . S
N159 C163 1.418 . S
C160 H139 0.929 . S
C160 C158 1.446 . S
C160 C161 1.332 . S
C161 H141 0.931 . S
C161 C160 1.332 . S
C161 C162 1.267 . S
C162 H130 0.929 . S
C162 C161 1.267 . S
C162 C163 1.251 . S
C163 H133 0.929 . S
C163 N159 1.418 . S
C163 C162 1.251 . S
C164 H131 0.930 . S
C164 C166 1.406 1_545 S
C164 C169 1.261 . S
C165 H132 0.930 . S
C165 N167 1.325 . S
C165 C168 1.357 1_565 S
C166 H134 0.928 . S
C166 C164 1.406 1_565 S
C166 N167 1.261 . S
N167 Co118 2.214 . S
N167 C165 1.325 . S
N167 C166 1.261 . S
C168 H138 0.931 . S
C168 C165 1.357 1_545 S
C168 C169 1.312 . S
C169 H140 0.930 . S
C169 C164 1.261 . S
C169 C168 1.312 . S
C170 O142 1.214 . S
C170 O150 1.234 . S
C171 H143 0.929 . S
C171 C174 1.391 . S
C171 C176 1.391 . S
C172 H144 0.929 . S
C172 C173 1.390 . S
C172 N175 1.391 . S
C173 H145 0.930 . S
C173 C172 1.390 . S
C173 C174 1.392 . S
C174 H146 0.929 . S
C174 C171 1.391 . S
C174 C173 1.392 . S
N175 Co119 2.257 . S
N175 C172 1.391 . S
N175 C176 1.388 . S
C176 H147 0.930 . S
C176 C171 1.391 . S
C176 N175 1.388 . S
Co177 O179 2.143 . S
Co177 O185 2.074 . S
Co177 O188 2.093 . S
Co177 O201 2.097 . S
Co177 N218 2.151 . S
Co177 N226 2.214 . S
Co178 O179 2.160 1_455 S
Co178 O184 2.058 1_455 S
Co178 O194 2.057 . S
Co178 O209 2.037 . S
Co178 N213 2.145 . S
Co178 N234 2.257 . S
O179 Co177 2.143 . S
O179 Co178 2.160 1_655 S
C180 O181 1.278 . S
C180 O188 1.224 . S
O181 C180 1.278 . S
C182 O183 1.245 1_455 S
C182 O194 1.232 . S
O183 C182 1.245 1_655 S
O184 Co178 2.058 1_655 S
O184 C210 1.269 . S
O185 Co177 2.074 . S
O185 C210 1.257 . S
H186 C211 0.930 . S
H187 C217 0.930 . S
O188 Co177 2.093 . S
O188 C180 1.224 . S
H189 C221 0.929 . S
H190 C223 0.930 . S
H191 C224 0.930 . S
H192 C222 0.929 . S
H193 C225 0.928 . S
O194 Co178 2.057 . S
O194 C182 1.232 . S
H195 C214 0.929 . S
H196 C215 0.929 . S
H197 C227 0.931 . S
H198 C219 0.929 . S
H199 C228 0.930 . S
H200 C220 0.931 . S
O201 Co177 2.097 . S
O201 C229 1.214 1_655 S
H202 C230 0.929 . S
H203 C231 0.929 . S
H204 C232 0.930 . S
H205 C233 0.929 . S
H206 C235 0.930 . S
H207 C212 0.930 . S
H208 C216 0.930 . S
O209 Co178 2.037 . S
O209 C229 1.234 . S
C210 O184 1.269 . S
C210 O185 1.257 . S
C211 H186 0.930 . S
C211 C214 1.388 . S
C211 C216 1.418 . S
C212 H207 0.930 . S
C212 C215 1.404 . S
C212 C216 1.353 . S
N213 Co178 2.145 . S
N213 C214 1.397 . S
N213 C215 1.334 . S
C214 H195 0.929 . S
C214 C211 1.388 . S
C214 N213 1.397 . S
C215 H196 0.929 . S
C215 C212 1.404 . S
C215 N213 1.334 . S
C216 H208 0.930 . S
C216 C211 1.418 . S
C216 C212 1.353 . S
C217 H187 0.930 . S
C217 N218 1.330 . S
C217 C219 1.446 . S
N218 Co177 2.151 . S
N218 C217 1.330 . S
N218 C222 1.418 . S
C219 H198 0.929 . S
C219 C217 1.446 . S
C219 C220 1.332 . S
C220 H200 0.931 . S
C220 C219 1.332 . S
C220 C221 1.267 . S
C221 H189 0.929 . S
C221 C220 1.267 . S
C221 C222 1.251 . S
C222 H192 0.929 . S
C222 N218 1.418 . S
C222 C221 1.251 . S
C223 H190 0.930 . S
C223 C225 1.406 . S
C223 C228 1.261 . S
C224 H191 0.930 . S
C224 N226 1.325 . S
C224 C227 1.357 . S
C225 H193 0.928 . S
C225 C223 1.406 . S
C225 N226 1.261 . S
N226 Co177 2.214 . S
N226 C224 1.325 . S
N226 C225 1.261 . S
C227 H197 0.931 . S
C227 C224 1.357 . S
C227 C228 1.312 . S
C228 H199 0.930 . S
C228 C223 1.261 . S
C228 C227 1.312 . S
C229 O201 1.214 1_455 S
C229 O209 1.234 . S
C230 H202 0.929 . S
C230 C233 1.391 . S
C230 C235 1.391 . S
C231 H203 0.929 . S
C231 C232 1.390 . S
C231 N234 1.391 . S
C232 H204 0.930 . S
C232 C231 1.390 . S
C232 C233 1.392 . S
C233 H205 0.929 . S
C233 C230 1.391 . S
C233 C232 1.392 . S
N234 Co178 2.257 . S
N234 C231 1.391 . S
N234 C235 1.388 . S
C235 H206 0.930 . S
C235 C230 1.391 . S
C235 N234 1.388 . S
Co236 O238 2.143 . S
Co236 O244 2.074 . S
Co236 O247 2.093 . S
Co236 O260 2.097 . S
Co236 N277 2.151 . S
Co236 N285 2.214 . S
Co237 O238 2.160 1_545 S
Co237 O243 2.058 1_545 S
Co237 O253 2.057 . S
Co237 O268 2.037 . S
Co237 N272 2.145 . S
Co237 N293 2.257 . S
O238 Co236 2.143 . S
O238 Co237 2.160 1_565 S
C239 O240 1.278 1_565 S
C239 O247 1.224 . S
O240 C239 1.278 1_545 S
C241 O242 1.245 1_545 S
C241 O253 1.232 . S
O242 C241 1.245 1_565 S
O243 Co237 2.058 1_565 S
O243 C269 1.269 . S
O244 Co236 2.074 . S
O244 C269 1.257 . S
H245 C270 0.930 . S
H246 C276 0.930 . S
O247 Co236 2.093 . S
O247 C239 1.224 . S
H248 C280 0.929 . S
H249 C282 0.930 . S
H250 C283 0.930 . S
H251 C281 0.929 . S
H252 C284 0.928 . S
O253 Co237 2.057 . S
O253 C241 1.232 . S
H254 C273 0.929 . S
H255 C274 0.929 . S
H256 C286 0.931 . S
H257 C278 0.929 . S
H258 C287 0.930 . S
H259 C279 0.931 . S
O260 Co236 2.097 . S
O260 C288 1.214 1_565 S
H261 C289 0.929 . S
H262 C290 0.929 . S
H263 C291 0.930 . S
H264 C292 0.929 . S
H265 C294 0.930 . S
H266 C271 0.930 . S
H267 C275 0.930 . S
O268 Co237 2.037 . S
O268 C288 1.234 . S
C269 O243 1.269 . S
C269 O244 1.257 . S
C270 H245 0.930 . S
C270 C273 1.388 . S
C270 C275 1.418 . S
C271 H266 0.930 . S
C271 C274 1.404 . S
C271 C275 1.353 . S
N272 Co237 2.145 . S
N272 C273 1.397 . S
N272 C274 1.334 . S
C273 H254 0.929 . S
C273 C270 1.388 . S
C273 N272 1.397 . S
C274 H255 0.929 . S
C274 C271 1.404 . S
C274 N272 1.334 . S
C275 H267 0.930 . S
C275 C270 1.418 . S
C275 C271 1.353 . S
C276 H246 0.930 . S
C276 N277 1.330 . S
C276 C278 1.446 . S
N277 Co236 2.151 . S
N277 C276 1.330 . S
N277 C281 1.418 . S
C278 H257 0.929 . S
C278 C276 1.446 . S
C278 C279 1.332 . S
C279 H259 0.931 . S
C279 C278 1.332 . S
C279 C280 1.267 . S
C280 H248 0.929 . S
C280 C279 1.267 . S
C280 C281 1.251 . S
C281 H251 0.929 . S
C281 N277 1.418 . S
C281 C280 1.251 . S
C282 H249 0.930 . S
C282 C284 1.406 1_655 S
C282 C287 1.261 . S
C283 H250 0.930 . S
C283 N285 1.325 . S
C283 C286 1.357 1_455 S
C284 H252 0.928 . S
C284 C282 1.406 1_455 S
C284 N285 1.261 . S
N285 Co236 2.214 . S
N285 C283 1.325 . S
N285 C284 1.261 . S
C286 H256 0.931 . S
C286 C283 1.357 1_655 S
C286 C287 1.312 . S
C287 H258 0.930 . S
C287 C282 1.261 . S
C287 C286 1.312 . S
C288 O260 1.214 1_545 S
C288 O268 1.234 . S
C289 H261 0.929 . S
C289 C292 1.391 . S
C289 C294 1.391 . S
C290 H262 0.929 . S
C290 C291 1.390 . S
C290 N293 1.391 . S
C291 H263 0.930 . S
C291 C290 1.390 . S
C291 C292 1.392 . S
C292 H264 0.929 . S
C292 C289 1.391 . S
C292 C291 1.392 . S
N293 Co237 2.257 . S
N293 C290 1.391 . S
N293 C294 1.388 . S
C294 H265 0.930 . S
C294 C289 1.391 . S
C294 N293 1.388 . S
Co295 O297 2.143 . S
Co295 O303 2.074 . S
Co295 O306 2.093 . S
Co295 O319 2.097 . S
Co295 N336 2.151 . S
Co295 N344 2.214 . S
Co296 O297 2.160 . S
Co296 O302 2.058 . S
Co296 O312 2.057 . S
Co296 O327 2.037 . S
Co296 N331 2.145 . S
Co296 N352 2.257 . S
O297 Co295 2.143 . S
O297 Co296 2.160 . S
C298 O299 1.278 . S
C298 O306 1.224 . S
O299 C298 1.278 . S
C300 O301 1.245 . S
C300 O312 1.232 . S
O301 C300 1.245 . S
O302 Co296 2.058 . S
O302 C328 1.269 . S
O303 Co295 2.074 . S
O303 C328 1.257 . S
H304 C329 0.930 . S
H305 C335 0.930 . S
O306 Co295 2.093 . S
O306 C298 1.224 . S
H307 C339 0.929 . S
H308 C341 0.930 . S
H309 C342 0.930 . S
H310 C340 0.929 . S
H311 C343 0.928 . S
O312 Co296 2.057 . S
O312 C300 1.232 . S
H313 C332 0.929 . S
H314 C333 0.929 . S
H315 C345 0.931 . S
H316 C337 0.929 . S
H317 C346 0.930 . S
H318 C338 0.931 . S
O319 Co295 2.097 . S
O319 C347 1.214 . S
H320 C348 0.929 . S
H321 C349 0.929 . S
H322 C350 0.930 . S
H323 C351 0.929 . S
H324 C353 0.930 . S
H325 C330 0.930 . S
H326 C334 0.930 . S
O327 Co296 2.037 . S
O327 C347 1.234 . S
C328 O302 1.269 . S
C328 O303 1.257 . S
C329 H304 0.930 . S
C329 C332 1.388 . S
C329 C334 1.418 . S
C330 H325 0.930 . S
C330 C333 1.404 . S
C330 C334 1.353 . S
N331 Co296 2.145 . S
N331 C332 1.397 . S
N331 C333 1.334 . S
C332 H313 0.929 . S
C332 C329 1.388 . S
C332 N331 1.397 . S
C333 H314 0.929 . S
C333 C330 1.404 . S
C333 N331 1.334 . S
C334 H326 0.930 . S
C334 C329 1.418 . S
C334 C330 1.353 . S
C335 H305 0.930 . S
C335 N336 1.330 . S
C335 C337 1.446 . S
N336 Co295 2.151 . S
N336 C335 1.330 . S
N336 C340 1.418 . S
C337 H316 0.929 . S
C337 C335 1.446 . S
C337 C338 1.332 . S
C338 H318 0.931 . S
C338 C337 1.332 . S
C338 C339 1.267 . S
C339 H307 0.929 . S
C339 C338 1.267 . S
C339 C340 1.251 . S
C340 H310 0.929 . S
C340 N336 1.418 . S
C340 C339 1.251 . S
C341 H308 0.930 . S
C341 C343 1.406 1_565 S
C341 C346 1.261 . S
C342 H309 0.930 . S
C342 N344 1.325 . S
C342 C345 1.357 1_545 S
C343 H311 0.928 . S
C343 C341 1.406 1_545 S
C343 N344 1.261 . S
N344 Co295 2.214 . S
N344 C342 1.325 . S
N344 C343 1.261 . S
C345 H315 0.931 . S
C345 C342 1.357 1_565 S
C345 C346 1.312 . S
C346 H317 0.930 . S
C346 C341 1.261 . S
C346 C345 1.312 . S
C347 O319 1.214 . S
C347 O327 1.234 . S
C348 H320 0.929 . S
C348 C351 1.391 . S
C348 C353 1.391 . S
C349 H321 0.929 . S
C349 C350 1.390 . S
C349 N352 1.391 . S
C350 H322 0.930 . S
C350 C349 1.390 . S
C350 C351 1.392 . S
C351 H323 0.929 . S
C351 C348 1.391 . S
C351 C350 1.392 . S
N352 Co296 2.257 . S
N352 C349 1.391 . S
N352 C353 1.388 . S
C353 H324 0.930 . S
C353 C348 1.391 . S
C353 N352 1.388 . S
Co354 O356 2.143 . S
Co354 O362 2.074 . S
Co354 O365 2.093 . S
Co354 O378 2.097 . S
Co354 N395 2.151 . S
Co354 N403 2.214 . S
Co355 O356 2.160 1_545 S
Co355 O361 2.058 1_545 S
Co355 O371 2.057 . S
Co355 O386 2.037 . S
Co355 N390 2.145 . S
Co355 N411 2.257 . S
O356 Co354 2.143 . S
O356 Co355 2.160 1_565 S
C357 O358 1.278 1_565 S
C357 O365 1.224 . S
O358 C357 1.278 1_545 S
C359 O360 1.245 1_545 S
C359 O371 1.232 . S
O360 C359 1.245 1_565 S
O361 Co355 2.058 1_565 S
O361 C387 1.269 . S
O362 Co354 2.074 . S
O362 C387 1.257 . S
H363 C388 0.930 . S
H364 C394 0.930 . S
O365 Co354 2.093 . S
O365 C357 1.224 . S
H366 C398 0.929 . S
H367 C400 0.930 . S
H368 C401 0.930 . S
H369 C399 0.929 . S
H370 C402 0.928 . S
O371 Co355 2.057 . S
O371 C359 1.232 . S
H372 C391 0.929 . S
H373 C392 0.929 . S
H374 C404 0.931 . S
H375 C396 0.929 . S
H376 C405 0.930 . S
H377 C397 0.931 . S
O378 Co354 2.097 . S
O378 C406 1.214 1_565 S
H379 C407 0.929 . S
H380 C408 0.929 . S
H381 C409 0.930 . S
H382 C410 0.929 . S
H383 C412 0.930 . S
H384 C389 0.930 . S
H385 C393 0.930 . S
O386 Co355 2.037 . S
O386 C406 1.234 . S
C387 O361 1.269 . S
C387 O362 1.257 . S
C388 H363 0.930 . S
C388 C391 1.388 . S
C388 C393 1.418 . S
C389 H384 0.930 . S
C389 C392 1.404 . S
C389 C393 1.353 . S
N390 Co355 2.145 . S
N390 C391 1.397 . S
N390 C392 1.334 . S
C391 H372 0.929 . S
C391 C388 1.388 . S
C391 N390 1.397 . S
C392 H373 0.929 . S
C392 C389 1.404 . S
C392 N390 1.334 . S
C393 H385 0.930 . S
C393 C388 1.418 . S
C393 C389 1.353 . S
C394 H364 0.930 . S
C394 N395 1.330 . S
C394 C396 1.446 . S
N395 Co354 2.151 . S
N395 C394 1.330 . S
N395 C399 1.418 . S
C396 H375 0.929 . S
C396 C394 1.446 . S
C396 C397 1.332 . S
C397 H377 0.931 . S
C397 C396 1.332 . S
C397 C398 1.267 . S
C398 H366 0.929 . S
C398 C397 1.267 . S
C398 C399 1.251 . S
C399 H369 0.929 . S
C399 N395 1.418 . S
C399 C398 1.251 . S
C400 H367 0.930 . S
C400 C402 1.406 . S
C400 C405 1.261 . S
C401 H368 0.930 . S
C401 N403 1.325 . S
C401 C404 1.357 . S
C402 H370 0.928 . S
C402 C400 1.406 . S
C402 N403 1.261 . S
N403 Co354 2.214 . S
N403 C401 1.325 . S
N403 C402 1.261 . S
C404 H374 0.931 . S
C404 C401 1.357 . S
C404 C405 1.312 . S
C405 H376 0.930 . S
C405 C400 1.261 . S
C405 C404 1.312 . S
C406 O378 1.214 1_545 S
C406 O386 1.234 . S
C407 H379 0.929 . S
C407 C410 1.391 . S
C407 C412 1.391 . S
C408 H380 0.929 . S
C408 C409 1.390 . S
C408 N411 1.391 . S
C409 H381 0.930 . S
C409 C408 1.390 . S
C409 C410 1.392 . S
C410 H382 0.929 . S
C410 C407 1.391 . S
C410 C409 1.392 . S
N411 Co355 2.257 . S
N411 C408 1.391 . S
N411 C412 1.388 . S
C412 H383 0.930 . S
C412 C407 1.391 . S
C412 N411 1.388 . S
Co413 O415 2.143 . S
Co413 O421 2.074 . S
Co413 O424 2.093 . S
Co413 O437 2.097 . S
Co413 N454 2.151 . S
Co413 N462 2.214 . S
Co414 O415 2.160 . S
Co414 O420 2.058 . S
Co414 O430 2.057 . S
Co414 O445 2.037 . S
Co414 N449 2.145 . S
Co414 N470 2.257 . S
O415 Co413 2.143 . S
O415 Co414 2.160 . S
C416 O417 1.278 . S
C416 O424 1.224 . S
O417 C416 1.278 . S
C418 O419 1.245 . S
C418 O430 1.232 . S
O419 C418 1.245 . S
O420 Co414 2.058 . S
O420 C446 1.269 . S
O421 Co413 2.074 . S
O421 C446 1.257 . S
H422 C447 0.930 . S
H423 C453 0.930 . S
O424 Co413 2.093 . S
O424 C416 1.224 . S
H425 C457 0.929 . S
H426 C459 0.930 . S
H427 C460 0.930 . S
H428 C458 0.929 . S
H429 C461 0.928 . S
O430 Co414 2.057 . S
O430 C418 1.232 . S
H431 C450 0.929 . S
H432 C451 0.929 . S
H433 C463 0.931 . S
H434 C455 0.929 . S
H435 C464 0.930 . S
H436 C456 0.931 . S
O437 Co413 2.097 . S
O437 C465 1.214 . S
H438 C466 0.929 . S
H439 C467 0.929 . S
H440 C468 0.930 . S
H441 C469 0.929 . S
H442 C471 0.930 . S
H443 C448 0.930 . S
H444 C452 0.930 . S
O445 Co414 2.037 . S
O445 C465 1.234 . S
C446 O420 1.269 . S
C446 O421 1.257 . S
C447 H422 0.930 . S
C447 C450 1.388 . S
C447 C452 1.418 . S
C448 H443 0.930 . S
C448 C451 1.404 . S
C448 C452 1.353 . S
N449 Co414 2.145 . S
N449 C450 1.397 . S
N449 C451 1.334 . S
C450 H431 0.929 . S
C450 C447 1.388 . S
C450 N449 1.397 . S
C451 H432 0.929 . S
C451 C448 1.404 . S
C451 N449 1.334 . S
C452 H444 0.930 . S
C452 C447 1.418 . S
C452 C448 1.353 . S
C453 H423 0.930 . S
C453 N454 1.330 . S
C453 C455 1.446 . S
N454 Co413 2.151 . S
N454 C453 1.330 . S
N454 C458 1.418 . S
C455 H434 0.929 . S
C455 C453 1.446 . S
C455 C456 1.332 . S
C456 H436 0.931 . S
C456 C455 1.332 . S
C456 C457 1.267 . S
C457 H425 0.929 . S
C457 C456 1.267 . S
C457 C458 1.251 . S
C458 H428 0.929 . S
C458 N454 1.418 . S
C458 C457 1.251 . S
C459 H426 0.930 . S
C459 C461 1.406 1_455 S
C459 C464 1.261 . S
C460 H427 0.930 . S
C460 N462 1.325 . S
C460 C463 1.357 1_655 S
C461 H429 0.928 . S
C461 C459 1.406 1_655 S
C461 N462 1.261 . S
N462 Co413 2.214 . S
N462 C460 1.325 . S
N462 C461 1.261 . S
C463 H433 0.931 . S
C463 C460 1.357 1_455 S
C463 C464 1.312 . S
C464 H435 0.930 . S
C464 C459 1.261 . S
C464 C463 1.312 . S
C465 O437 1.214 . S
C465 O445 1.234 . S
C466 H438 0.929 . S
C466 C469 1.391 . S
C466 C471 1.391 . S
C467 H439 0.929 . S
C467 C468 1.390 . S
C467 N470 1.391 . S
C468 H440 0.930 . S
C468 C467 1.390 . S
C468 C469 1.392 . S
C469 H441 0.929 . S
C469 C466 1.391 . S
C469 C468 1.392 . S
N470 Co414 2.257 . S
N470 C467 1.391 . S
N470 C471 1.388 . S
C471 H442 0.930 . S
C471 C466 1.391 . S
C471 N470 1.388 . S
Co472 O474 2.145 . S
Co472 O480 2.074 . S
Co472 O483 2.093 . S
Co472 O496 2.097 1_455 S
Co472 N513 2.151 . S
Co472 N521 2.214 . S
Co473 O474 2.152 1_655 S
Co473 O479 2.058 1_655 S
Co473 O489 2.057 . S
Co473 O504 2.037 . S
Co473 N508 2.145 . S
Co473 N529 2.257 . S
O474 Co472 2.145 . S
O474 Co473 2.152 1_455 S
C475 O476 1.278 1_455 S
C475 O483 1.224 . S
O476 C475 1.278 1_655 S
C477 O478 1.245 1_655 S
C477 O489 1.232 . S
O478 C477 1.245 1_455 S
O479 Co473 2.058 1_455 S
O479 C505 1.269 . S
O480 Co472 2.074 . S
O480 C505 1.257 . S
H481 C506 0.930 . S
H482 C512 0.930 . S
O483 Co472 2.093 . S
O483 C475 1.224 . S
H484 C516 0.929 . S
H485 C518 0.930 . S
H486 C519 0.930 . S
H487 C517 0.929 . S
H488 C520 0.928 . S
O489 Co473 2.057 . S
O489 C477 1.232 . S
H490 C509 0.929 . S
H491 C510 0.929 . S
H492 C522 0.931 . S
H493 C514 0.929 . S
H494 C523 0.930 . S
H495 C515 0.931 . S
O496 Co472 2.097 1_655 S
O496 C524 1.214 . S
H497 C525 0.929 . S
H498 C526 0.929 . S
H499 C527 0.930 . S
H500 C528 0.929 . S
H501 C530 0.930 . S
H502 C507 0.930 . S
H503 C511 0.930 . S
O504 Co473 2.037 . S
O504 C524 1.234 . S
C505 O479 1.269 . S
C505 O480 1.257 . S
C506 H481 0.930 . S
C506 C509 1.388 . S
C506 C511 1.418 . S
C507 H502 0.930 . S
C507 C510 1.404 . S
C507 C511 1.353 . S
N508 Co473 2.145 . S
N508 C509 1.397 . S
N508 C510 1.334 . S
C509 H490 0.929 . S
C509 C506 1.388 . S
C509 N508 1.397 . S
C510 H491 0.929 . S
C510 C507 1.404 . S
C510 N508 1.334 . S
C511 H503 0.930 . S
C511 C506 1.418 . S
C511 C507 1.353 . S
C512 H482 0.930 . S
C512 N513 1.330 . S
C512 C514 1.446 . S
N513 Co472 2.151 . S
N513 C512 1.330 . S
N513 C517 1.418 . S
C514 H493 0.929 . S
C514 C512 1.446 . S
C514 C515 1.332 . S
C515 H495 0.931 . S
C515 C514 1.332 . S
C515 C516 1.267 . S
C516 H484 0.929 . S
C516 C515 1.267 . S
C516 C517 1.251 . S
C517 H487 0.929 . S
C517 N513 1.418 . S
C517 C516 1.251 . S
C518 H485 0.930 . S
C518 C520 1.406 1_545 S
C518 C523 1.261 . S
C519 H486 0.930 . S
C519 N521 1.325 . S
C519 C522 1.357 1_565 S
C520 H488 0.928 . S
C520 C518 1.406 1_565 S
C520 N521 1.261 . S
N521 Co472 2.214 . S
N521 C519 1.325 . S
N521 C520 1.261 . S
C522 H492 0.931 . S
C522 C519 1.357 1_545 S
C522 C523 1.312 . S
C523 H494 0.930 . S
C523 C518 1.261 . S
C523 C522 1.312 . S
C524 O496 1.214 . S
C524 O504 1.234 . S
C525 H497 0.929 . S
C525 C528 1.391 . S
C525 C530 1.391 . S
C526 H498 0.929 . S
C526 C527 1.390 . S
C526 N529 1.391 . S
C527 H499 0.930 . S
C527 C526 1.390 . S
C527 C528 1.392 . S
C528 H500 0.929 . S
C528 C525 1.391 . S
C528 C527 1.392 . S
N529 Co473 2.257 . S
N529 C526 1.391 . S
N529 C530 1.388 . S
C530 H501 0.930 . S
C530 C525 1.391 . S
C530 N529 1.388 . S
Co531 O533 2.143 . S
Co531 O539 2.074 . S
Co531 O542 2.093 . S
Co531 O555 2.097 . S
Co531 N572 2.151 . S
Co531 N580 2.214 . S
Co532 O533 2.160 1_565 S
Co532 O538 2.058 1_565 S
Co532 O548 2.057 . S
Co532 O563 2.037 . S
Co532 N567 2.145 . S
Co532 N588 2.257 . S
O533 Co531 2.143 . S
O533 Co532 2.160 1_545 S
C534 O535 1.278 1_545 S
C534 O542 1.224 . S
O535 C534 1.278 1_565 S
C536 O537 1.245 1_565 S
C536 O548 1.232 . S
O537 C536 1.245 1_545 S
O538 Co532 2.058 1_545 S
O538 C564 1.269 . S
O539 Co531 2.074 . S
O539 C564 1.257 . S
H540 C565 0.930 . S
H541 C571 0.930 . S
O542 Co531 2.093 . S
O542 C534 1.224 . S
H543 C575 0.929 . S
H544 C577 0.930 . S
H545 C578 0.930 . S
H546 C576 0.929 . S
H547 C579 0.928 . S
O548 Co532 2.057 . S
O548 C536 1.232 . S
H549 C568 0.929 . S
H550 C569 0.929 . S
H551 C581 0.931 . S
H552 C573 0.929 . S
H553 C582 0.930 . S
H554 C574 0.931 . S
O555 Co531 2.097 . S
O555 C583 1.214 1_545 S
H556 C584 0.929 . S
H557 C585 0.929 . S
H558 C586 0.930 . S
H559 C587 0.929 . S
H560 C589 0.930 . S
H561 C566 0.930 . S
H562 C570 0.930 . S
O563 Co532 2.037 . S
O563 C583 1.234 . S
C564 O538 1.269 . S
C564 O539 1.257 . S
C565 H540 0.930 . S
C565 C568 1.388 . S
C565 C570 1.418 . S
C566 H561 0.930 . S
C566 C569 1.404 . S
C566 C570 1.353 . S
N567 Co532 2.145 . S
N567 C568 1.397 . S
N567 C569 1.334 . S
C568 H549 0.929 . S
C568 C565 1.388 . S
C568 N567 1.397 . S
C569 H550 0.929 . S
C569 C566 1.404 . S
C569 N567 1.334 . S
C570 H562 0.930 . S
C570 C565 1.418 . S
C570 C566 1.353 . S
C571 H541 0.930 . S
C571 N572 1.330 . S
C571 C573 1.446 . S
N572 Co531 2.151 . S
N572 C571 1.330 . S
N572 C576 1.418 . S
C573 H552 0.929 . S
C573 C571 1.446 . S
C573 C574 1.332 . S
C574 H554 0.931 . S
C574 C573 1.332 . S
C574 C575 1.267 . S
C575 H543 0.929 . S
C575 C574 1.267 . S
C575 C576 1.251 . S
C576 H546 0.929 . S
C576 N572 1.418 . S
C576 C575 1.251 . S
C577 H544 0.930 . S
C577 C579 1.406 . S
C577 C582 1.261 . S
C578 H545 0.930 . S
C578 N580 1.325 . S
C578 C581 1.357 . S
C579 H547 0.928 . S
C579 C577 1.406 . S
C579 N580 1.261 . S
N580 Co531 2.214 . S
N580 C578 1.325 . S
N580 C579 1.261 . S
C581 H551 0.931 . S
C581 C578 1.357 . S
C581 C582 1.312 . S
C582 H553 0.930 . S
C582 C577 1.261 . S
C582 C581 1.312 . S
C583 O555 1.214 1_565 S
C583 O563 1.234 . S
C584 H556 0.929 . S
C584 C587 1.391 . S
C584 C589 1.391 . S
C585 H557 0.929 . S
C585 C586 1.390 . S
C585 N588 1.391 . S
C586 H558 0.930 . S
C586 C585 1.390 . S
C586 C587 1.392 . S
C587 H559 0.929 . S
C587 C584 1.391 . S
C587 C586 1.392 . S
N588 Co532 2.257 . S
N588 C585 1.391 . S
N588 C589 1.388 . S
C589 H560 0.930 . S
C589 C584 1.391 . S
C589 N588 1.388 . S
Co590 O592 2.143 . S
Co590 O598 2.074 . S
Co590 O601 2.093 . S
Co590 O614 2.097 . S
Co590 N631 2.151 . S
Co590 N639 2.214 . S
Co591 O592 2.160 . S
Co591 O597 2.058 . S
Co591 O607 2.057 . S
Co591 O622 2.037 . S
Co591 N626 2.145 . S
Co591 N647 2.257 . S
O592 Co590 2.143 . S
O592 Co591 2.160 . S
C593 O594 1.278 . S
C593 O601 1.224 . S
O594 C593 1.278 . S
C595 O596 1.245 . S
C595 O607 1.232 . S
O596 C595 1.245 . S
O597 Co591 2.058 . S
O597 C623 1.269 . S
O598 Co590 2.074 . S
O598 C623 1.257 . S
H599 C624 0.930 . S
H600 C630 0.930 . S
O601 Co590 2.093 . S
O601 C593 1.224 . S
H602 C634 0.929 . S
H603 C636 0.930 . S
H604 C637 0.930 . S
H605 C635 0.929 . S
H606 C638 0.928 . S
O607 Co591 2.057 . S
O607 C595 1.232 . S
H608 C627 0.929 . S
H609 C628 0.929 . S
H610 C640 0.931 . S
H611 C632 0.929 . S
H612 C641 0.930 . S
H613 C633 0.931 . S
O614 Co590 2.097 . S
O614 C642 1.214 . S
H615 C643 0.929 . S
H616 C644 0.929 . S
H617 C645 0.930 . S
H618 C646 0.929 . S
H619 C648 0.930 . S
H620 C625 0.930 . S
H621 C629 0.930 . S
O622 Co591 2.037 . S
O622 C642 1.234 . S
C623 O597 1.269 . S
C623 O598 1.257 . S
C624 H599 0.930 . S
C624 C627 1.388 . S
C624 C629 1.418 . S
C625 H620 0.930 . S
C625 C628 1.404 . S
C625 C629 1.353 . S
N626 Co591 2.145 . S
N626 C627 1.397 . S
N626 C628 1.334 . S
C627 H608 0.929 . S
C627 C624 1.388 . S
C627 N626 1.397 . S
C628 H609 0.929 . S
C628 C625 1.404 . S
C628 N626 1.334 . S
C629 H621 0.930 . S
C629 C624 1.418 . S
C629 C625 1.353 . S
C630 H600 0.930 . S
C630 N631 1.330 . S
C630 C632 1.446 . S
N631 Co590 2.151 . S
N631 C630 1.330 . S
N631 C635 1.418 . S
C632 H611 0.929 . S
C632 C630 1.446 . S
C632 C633 1.332 . S
C633 H613 0.931 . S
C633 C632 1.332 . S
C633 C634 1.267 . S
C634 H602 0.929 . S
C634 C633 1.267 . S
C634 C635 1.251 . S
C635 H605 0.929 . S
C635 N631 1.418 . S
C635 C634 1.251 . S
C636 H603 0.930 . S
C636 C638 1.406 1_655 S
C636 C641 1.261 . S
C637 H604 0.930 . S
C637 N639 1.325 . S
C637 C640 1.357 1_455 S
C638 H606 0.928 . S
C638 C636 1.406 1_455 S
C638 N639 1.261 . S
N639 Co590 2.214 . S
N639 C637 1.325 . S
N639 C638 1.261 . S
C640 H610 0.931 . S
C640 C637 1.357 1_655 S
C640 C641 1.312 . S
C641 H612 0.930 . S
C641 C636 1.261 . S
C641 C640 1.312 . S
C642 O614 1.214 . S
C642 O622 1.234 . S
C643 H615 0.929 . S
C643 C646 1.391 . S
C643 C648 1.391 . S
C644 H616 0.929 . S
C644 C645 1.390 . S
C644 N647 1.391 . S
C645 H617 0.930 . S
C645 C644 1.390 . S
C645 C646 1.392 . S
C646 H618 0.929 . S
C646 C643 1.391 . S
C646 C645 1.392 . S
N647 Co591 2.257 . S
N647 C644 1.391 . S
N647 C648 1.388 . S
C648 H619 0.930 . S
C648 C643 1.391 . S
C648 N647 1.388 . S
Co649 O651 2.146 . S
Co649 O657 2.074 . S
Co649 O660 2.093 . S
Co649 O673 2.097 1_655 S
Co649 N690 2.151 . S
Co649 N698 2.214 . S
Co650 O651 2.152 1_455 S
Co650 O656 2.058 1_455 S
Co650 O666 2.057 . S
Co650 O681 2.037 . S
Co650 N685 2.145 . S
Co650 N706 2.257 . S
O651 Co649 2.146 . S
O651 Co650 2.152 1_655 S
C652 O653 1.278 1_655 S
C652 O660 1.224 . S
O653 C652 1.278 1_455 S
C654 O655 1.245 1_455 S
C654 O666 1.232 . S
O655 C654 1.245 1_655 S
O656 Co650 2.058 1_655 S
O656 C682 1.269 . S
O657 Co649 2.074 . S
O657 C682 1.257 . S
H658 C683 0.930 . S
H659 C689 0.930 . S
O660 Co649 2.093 . S
O660 C652 1.224 . S
H661 C693 0.929 . S
H662 C695 0.930 . S
H663 C696 0.930 . S
H664 C694 0.929 . S
H665 C697 0.928 . S
O666 Co650 2.057 . S
O666 C654 1.232 . S
H667 C686 0.929 . S
H668 C687 0.929 . S
H669 C699 0.931 . S
H670 C691 0.929 . S
H671 C700 0.930 . S
H672 C692 0.931 . S
O673 Co649 2.097 1_455 S
O673 C701 1.214 . S
H674 C702 0.929 . S
H675 C703 0.929 . S
H676 C704 0.930 . S
H677 C705 0.929 . S
H678 C707 0.930 . S
H679 C684 0.930 . S
H680 C688 0.930 . S
O681 Co650 2.037 . S
O681 C701 1.234 . S
C682 O656 1.269 . S
C682 O657 1.257 . S
C683 H658 0.930 . S
C683 C686 1.388 . S
C683 C688 1.418 . S
C684 H679 0.930 . S
C684 C687 1.404 . S
C684 C688 1.353 . S
N685 Co650 2.145 . S
N685 C686 1.397 . S
N685 C687 1.334 . S
C686 H667 0.929 . S
C686 C683 1.388 . S
C686 N685 1.397 . S
C687 H668 0.929 . S
C687 C684 1.404 . S
C687 N685 1.334 . S
C688 H680 0.930 . S
C688 C683 1.418 . S
C688 C684 1.353 . S
C689 H659 0.930 . S
C689 N690 1.330 . S
C689 C691 1.446 . S
N690 Co649 2.151 . S
N690 C689 1.330 . S
N690 C694 1.418 . S
C691 H670 0.929 . S
C691 C689 1.446 . S
C691 C692 1.332 . S
C692 H672 0.931 . S
C692 C691 1.332 . S
C692 C693 1.267 . S
C693 H661 0.929 . S
C693 C692 1.267 . S
C693 C694 1.251 . S
C694 H664 0.929 . S
C694 N690 1.418 . S
C694 C693 1.251 . S
C695 H662 0.930 . S
C695 C697 1.406 1_565 S
C695 C700 1.261 . S
C696 H663 0.930 . S
C696 N698 1.325 . S
C696 C699 1.357 1_545 S
C697 H665 0.928 . S
C697 C695 1.406 1_545 S
C697 N698 1.261 . S
N698 Co649 2.214 . S
N698 C696 1.325 . S
N698 C697 1.261 . S
C699 H669 0.931 . S
C699 C696 1.357 1_565 S
C699 C700 1.312 . S
C700 H671 0.930 . S
C700 C695 1.261 . S
C700 C699 1.312 . S
C701 O673 1.214 . S
C701 O681 1.234 . S
C702 H674 0.929 . S
C702 C705 1.391 . S
C702 C707 1.391 . S
C703 H675 0.929 . S
C703 C704 1.390 . S
C703 N706 1.391 . S
C704 H676 0.930 . S
C704 C703 1.390 . S
C704 C705 1.392 . S
C705 H677 0.929 . S
C705 C702 1.391 . S
C705 C704 1.392 . S
N706 Co650 2.257 . S
N706 C703 1.391 . S
N706 C707 1.388 . S
C707 H678 0.930 . S
C707 C702 1.391 . S
C707 N706 1.388 . S
H708 C714 0.930 . S
H709 C717 0.930 . S
H710 C718 0.930 . S
H711 C719 0.939 . S
H712 C722 0.930 . S
H713 C723 0.930 . S
C714 H708 0.930 . S
C714 C715 1.355 1_455 S
C714 C716 1.415 . S
C715 C714 1.355 1_655 S
C715 C717 1.419 . S
C716 C714 1.415 . S
C716 C721 1.425 1_455 S
C716 C723 1.409 . S
C717 H709 0.930 . S
C717 C715 1.419 . S
C717 C718 1.362 . S
C718 H710 0.930 . S
C718 C717 1.362 . S
C718 C721 1.409 . S
C719 H711 0.939 . S
C719 C720 1.344 1_655 S
C719 C721 1.417 . S
C720 C719 1.344 1_455 S
C720 C722 1.419 . S
C721 C716 1.425 1_655 S
C721 C718 1.409 . S
C721 C719 1.417 . S
C722 H712 0.930 . S
C722 C720 1.419 . S
C722 C723 1.362 . S
C723 H713 0.930 . S
C723 C716 1.409 . S
C723 C722 1.362 . S
H724 C730 0.930 . S
H725 C733 0.930 . S
H726 C734 0.930 . S
H727 C735 0.930 . S
H728 C738 0.927 1_545 S
H729 C739 0.930 . S
C730 H724 0.930 . S
C730 C731 1.355 . S
C730 C732 1.415 . S
C731 C730 1.355 . S
C731 C733 1.419 . S
C732 C730 1.415 . S
C732 C737 1.425 1_545 S
C732 C739 1.409 . S
C733 H725 0.930 . S
C733 C731 1.419 . S
C733 C734 1.362 1_545 S
C734 H726 0.930 . S
C734 C733 1.362 1_565 S
C734 C737 1.409 . S
C735 H727 0.930 . S
C735 C736 1.355 . S
C735 C737 1.415 . S
C736 C735 1.355 . S
C736 C738 1.419 . S
C737 C732 1.425 1_565 S
C737 C734 1.409 . S
C737 C735 1.415 . S
C738 H728 0.927 1_565 S
C738 C736 1.419 . S
C738 C739 1.362 1_565 S
C739 H729 0.930 . S
C739 C732 1.409 . S
C739 C738 1.362 1_545 S
H740 C746 0.930 . S
H741 C749 0.930 . S
H742 C750 0.930 . S
H743 C751 0.930 . S
H744 C754 0.930 . S
H745 C755 0.930 . S
C746 H740 0.930 . S
C746 C747 1.355 . S
C746 C748 1.415 . S
C747 C746 1.355 . S
C747 C749 1.419 . S
C748 C746 1.415 . S
C748 C753 1.425 . S
C748 C755 1.409 . S
C749 H741 0.930 . S
C749 C747 1.419 . S
C749 C750 1.362 . S
C750 H742 0.930 . S
C750 C749 1.362 . S
C750 C753 1.409 . S
C751 H743 0.930 . S
C751 C752 1.355 . S
C751 C753 1.415 . S
C752 C751 1.355 . S
C752 C754 1.419 . S
C753 C748 1.425 . S
C753 C750 1.409 . S
C753 C751 1.415 . S
C754 H744 0.930 . S
C754 C752 1.419 . S
C754 C755 1.362 . S
C755 H745 0.930 . S
C755 C748 1.409 . S
C755 C754 1.362 . S
H756 C762 0.930 . S
H757 C765 0.930 . S
H758 C766 0.930 . S
H759 C767 0.930 . S
H760 C770 0.930 . S
H761 C771 0.930 . S
C762 H756 0.930 . S
C762 C763 1.355 . S
C762 C764 1.415 . S
C763 C762 1.355 . S
C763 C765 1.419 . S
C764 C762 1.415 . S
C764 C769 1.425 . S
C764 C771 1.409 1_655 S
C765 H757 0.930 . S
C765 C763 1.419 . S
C765 C766 1.362 . S
C766 H758 0.930 . S
C766 C765 1.362 . S
C766 C769 1.409 . S
C767 H759 0.930 . S
C767 C768 1.355 1_655 S
C767 C769 1.415 . S
C768 C767 1.355 1_455 S
C768 C770 1.419 . S
C769 C764 1.425 . S
C769 C766 1.409 . S
C769 C767 1.415 . S
C770 H760 0.930 . S
C770 C768 1.419 . S
C770 C771 1.362 . S
C771 H761 0.930 . S
C771 C764 1.409 1_455 S
C771 C770 1.362 . S
H772 C778 0.930 . S
H773 C781 0.930 . S
H774 C782 0.930 . S
H775 C783 0.930 . S
H776 C786 0.930 . S
H777 C787 0.930 . S
C778 H772 0.930 . S
C778 C779 1.355 . S
C778 C780 1.415 . S
C779 C778 1.355 . S
C779 C781 1.419 1_545 S
C780 C778 1.415 . S
C780 C785 1.425 1_545 S
C780 C787 1.409 . S
C781 H773 0.930 . S
C781 C779 1.419 1_565 S
C781 C782 1.362 . S
C782 H774 0.930 . S
C782 C781 1.362 . S
C782 C785 1.409 . S
C783 H775 0.930 . S
C783 C784 1.355 . S
C783 C785 1.415 . S
C784 C783 1.355 . S
C784 C786 1.419 1_565 S
C785 C780 1.425 1_565 S
C785 C782 1.409 . S
C785 C783 1.415 . S
C786 H776 0.930 . S
C786 C784 1.419 1_545 S
C786 C787 1.362 . S
C787 H777 0.930 . S
C787 C780 1.409 . S
C787 C786 1.362 . S
H788 C794 0.930 . S
H789 C797 0.930 . S
H790 C798 0.930 . S
H791 C799 0.930 . S
H792 C802 0.930 . S
H793 C803 0.930 . S
C794 H788 0.930 . S
C794 C795 1.355 . S
C794 C796 1.415 . S
C795 C794 1.355 . S
C795 C797 1.419 . S
C796 C794 1.415 . S
C796 C801 1.425 . S
C796 C803 1.409 . S
C797 H789 0.930 . S
C797 C795 1.419 . S
C797 C798 1.362 . S
C798 H790 0.930 . S
C798 C797 1.362 . S
C798 C801 1.409 . S
C799 H791 0.930 . S
C799 C800 1.355 . S
C799 C801 1.415 . S
C800 C799 1.355 . S
C800 C802 1.419 . S
C801 C796 1.425 . S
C801 C798 1.409 . S
C801 C799 1.415 . S
C802 H792 0.930 . S
C802 C800 1.419 . S
C802 C803 1.362 . S
C803 H793 0.930 . S
C803 C796 1.409 . S
C803 C802 1.362 . S
H804 C810 0.930 . S
H805 C813 0.930 . S
H806 C814 0.930 . S
H807 C815 0.930 . S
H808 C818 0.930 . S
H809 C819 0.930 . S
C810 H804 0.930 . S
C810 C811 1.355 . S
C810 C812 1.415 . S
C811 C810 1.355 . S
C811 C813 1.419 . S
C812 C810 1.415 . S
C812 C817 1.425 1_554 S
C812 C819 1.409 1_554 S
C813 H805 0.930 . S
C813 C811 1.419 . S
C813 C814 1.362 . S
C814 H806 0.930 . S
C814 C813 1.362 . S
C814 C817 1.409 1_554 S
C815 H807 0.930 . S
C815 C816 1.355 . S
C815 C817 1.415 . S
C816 C815 1.355 . S
C816 C818 1.419 . S
C817 C812 1.425 1_556 S
C817 C814 1.409 1_556 S
C817 C815 1.415 . S
C818 H808 0.930 . S
C818 C816 1.419 . S
C818 C819 1.362 . S
C819 H809 0.930 . S
C819 C812 1.409 1_556 S
C819 C818 1.362 . S
H820 C826 0.930 . S
H821 C829 0.930 . S
H822 C830 0.930 . S
H823 C831 0.930 . S
H824 C834 0.930 . S
H825 C835 0.930 . S
C826 H820 0.930 . S
C826 C827 1.355 . S
C826 C828 1.415 . S
C827 C826 1.355 . S
C827 C829 1.419 . S
C828 C826 1.415 . S
C828 C833 1.425 . S
C828 C835 1.409 . S
C829 H821 0.930 . S
C829 C827 1.419 . S
C829 C830 1.362 . S
C830 H822 0.930 . S
C830 C829 1.362 . S
C830 C833 1.409 . S
C831 H823 0.930 . S
C831 C832 1.355 . S
C831 C833 1.415 . S
C832 C831 1.355 . S
C832 C834 1.419 . S
C833 C828 1.425 . S
C833 C830 1.409 . S
C833 C831 1.415 . S
C834 H824 0.930 . S
C834 C832 1.419 . S
C834 C835 1.362 . S
C835 H825 0.930 . S
C835 C828 1.409 . S
C835 C834 1.362 . S
H836 C842 0.930 . S
H837 C845 0.930 . S
H838 C846 0.930 . S
H839 C847 0.930 . S
H840 C850 0.930 . S
H841 C851 0.930 . S
C842 H836 0.930 . S
C842 C843 1.355 . S
C842 C844 1.415 . S
C843 C842 1.355 . S
C843 C845 1.419 . S
C844 C842 1.415 . S
C844 C849 1.425 . S
C844 C851 1.409 . S
C845 H837 0.930 . S
C845 C843 1.419 . S
C845 C846 1.362 . S
C846 H838 0.930 . S
C846 C845 1.362 . S
C846 C849 1.409 . S
C847 H839 0.930 . S
C847 C848 1.355 . S
C847 C849 1.415 . S
C848 C847 1.355 . S
C848 C850 1.419 . S
C849 C844 1.425 . S
C849 C846 1.409 . S
C849 C847 1.415 . S
C850 H840 0.930 . S
C850 C848 1.419 . S
C850 C851 1.362 . S
C851 H841 0.930 . S
C851 C844 1.409 . S
C851 C850 1.362 . S
H852 C858 0.930 . S
H853 C861 0.930 . S
H854 C862 0.930 1_556 S
H855 C863 0.930 . S
H856 C866 0.930 . S
H857 C867 0.930 1_554 S
C858 H852 0.930 . S
C858 C859 1.355 . S
C858 C860 1.415 . S
C859 C858 1.355 . S
C859 C861 1.419 . S
C860 C858 1.415 . S
C860 C865 1.425 1_554 S
C860 C867 1.409 1_554 S
C861 H853 0.930 . S
C861 C859 1.419 . S
C861 C862 1.362 . S
C862 H854 0.930 1_554 S
C862 C861 1.362 . S
C862 C865 1.409 1_554 S
C863 H855 0.930 . S
C863 C864 1.355 . S
C863 C865 1.415 . S
C864 C863 1.355 . S
C864 C866 1.419 . S
C865 C860 1.425 1_556 S
C865 C862 1.409 1_556 S
C865 C863 1.415 . S
C866 H856 0.930 . S
C866 C864 1.419 . S
C866 C867 1.362 . S
C867 H857 0.930 1_556 S
C867 C860 1.409 1_556 S
C867 C866 1.362 . S
H868 C874 0.930 . S
H869 C877 0.930 . S
H870 C878 0.930 . S
H871 C879 0.930 . S
H872 C882 0.930 . S
H873 C883 0.930 . S
C874 H868 0.930 . S
C874 C875 1.355 . S
C874 C876 1.415 . S
C875 C874 1.355 . S
C875 C877 1.419 . S
C876 C874 1.415 . S
C876 C881 1.425 . S
C876 C883 1.409 . S
C877 H869 0.930 . S
C877 C875 1.419 . S
C877 C878 1.362 . S
C878 H870 0.930 . S
C878 C877 1.362 . S
C878 C881 1.409 . S
C879 H871 0.930 . S
C879 C880 1.355 . S
C879 C881 1.415 . S
C880 C879 1.355 . S
C880 C882 1.419 . S
C881 C876 1.425 . S
C881 C878 1.409 . S
C881 C879 1.415 . S
C882 H872 0.930 . S
C882 C880 1.419 . S
C882 C883 1.362 . S
C883 H873 0.930 . S
C883 C876 1.409 . S
C883 C882 1.362 . S
H884 C890 0.930 . S
H885 C893 0.930 . S
H886 C894 0.930 . S
H887 C895 0.930 . S
H888 C898 0.930 . S
H889 C899 0.930 . S
C890 H884 0.930 . S
C890 C891 1.355 . S
C890 C892 1.415 . S
C891 C890 1.355 . S
C891 C893 1.419 . S
C892 C890 1.415 . S
C892 C897 1.425 . S
C892 C899 1.409 . S
C893 H885 0.930 . S
C893 C891 1.419 . S
C893 C894 1.362 . S
C894 H886 0.930 . S
C894 C893 1.362 . S
C894 C897 1.409 . S
C895 H887 0.930 . S
C895 C896 1.355 . S
C895 C897 1.415 . S
C896 C895 1.355 . S
C896 C898 1.419 . S
C897 C892 1.425 . S
C897 C894 1.409 . S
C897 C895 1.415 . S
C898 H888 0.930 . S
C898 C896 1.419 . S
C898 C899 1.362 . S
C899 H889 0.930 . S
C899 C892 1.409 . S
C899 C898 1.362 . S
H900 C906 0.930 . S
H901 C909 0.930 . S
H902 C910 0.930 . S
H903 C911 0.930 . S
H904 C914 0.930 . S
H905 C915 0.930 . S
C906 H900 0.930 . S
C906 C907 1.355 . S
C906 C908 1.415 . S
C907 C906 1.355 . S
C907 C909 1.419 1_455 S
C908 C906 1.415 . S
C908 C913 1.425 1_455 S
C908 C915 1.409 . S
C909 H901 0.930 . S
C909 C907 1.419 1_655 S
C909 C910 1.362 . S
C910 H902 0.930 . S
C910 C909 1.362 . S
C910 C913 1.409 . S
C911 H903 0.930 . S
C911 C912 1.355 . S
C911 C913 1.415 . S
C912 C911 1.355 . S
C912 C914 1.419 1_655 S
C913 C908 1.425 1_655 S
C913 C910 1.409 . S
C913 C911 1.415 . S
C914 H904 0.930 . S
C914 C912 1.419 1_455 S
C914 C915 1.362 . S
C915 H905 0.930 . S
C915 C908 1.409 . S
C915 C914 1.362 . S
H916 C922 0.930 . S
H917 C925 0.930 . S
H918 C926 0.930 . S
H919 C927 0.930 . S
H920 C930 0.930 . S
H921 C931 0.930 . S
C922 H916 0.930 . S
C922 C923 1.355 1_545 S
C922 C924 1.415 . S
C923 C922 1.355 1_565 S
C923 C925 1.419 . S
C924 C922 1.415 . S
C924 C929 1.425 1_545 S
C924 C931 1.409 . S
C925 H917 0.930 . S
C925 C923 1.419 . S
C925 C926 1.362 . S
C926 H918 0.930 . S
C926 C925 1.362 . S
C926 C929 1.409 . S
C927 H919 0.930 . S
C927 C928 1.355 1_565 S
C927 C929 1.415 . S
C928 C927 1.355 1_545 S
C928 C930 1.419 . S
C929 C924 1.425 1_565 S
C929 C926 1.409 . S
C929 C927 1.415 . S
C930 H920 0.930 . S
C930 C928 1.419 . S
C930 C931 1.362 . S
C931 H921 0.930 . S
C931 C924 1.409 . S
C931 C930 1.362 . S
H932 C938 0.930 . S
H933 C941 0.930 . S
H934 C942 0.930 . S
H935 C943 0.930 . S
H936 C946 0.930 . S
H937 C947 0.930 . S
C938 H932 0.930 . S
C938 C939 1.355 . S
C938 C940 1.415 . S
C939 C938 1.355 . S
C939 C941 1.419 . S
C940 C938 1.415 . S
C940 C945 1.425 . S
C940 C947 1.409 . S
C941 H933 0.930 . S
C941 C939 1.419 . S
C941 C942 1.362 . S
C942 H934 0.930 . S
C942 C941 1.362 . S
C942 C945 1.409 . S
C943 H935 0.930 . S
C943 C944 1.355 . S
C943 C945 1.415 . S
C944 C943 1.355 . S
C944 C946 1.419 . S
C945 C940 1.425 . S
C945 C942 1.409 . S
C945 C943 1.415 . S
C946 H936 0.930 . S
C946 C944 1.419 . S
C946 C947 1.362 . S
C947 H937 0.930 . S
C947 C940 1.409 . S
C947 C946 1.362 . S
H948 C954 0.930 . S
H949 C957 0.930 . S
H950 C958 0.930 . S
H951 C959 0.930 . S
H952 C962 0.930 . S
H953 C963 0.930 . S
C954 H948 0.930 . S
C954 C955 1.355 . S
C954 C956 1.415 . S
C955 C954 1.355 . S
C955 C957 1.419 1_565 S
C956 C954 1.415 . S
C956 C961 1.425 1_565 S
C956 C963 1.409 . S
C957 H949 0.930 . S
C957 C955 1.419 1_545 S
C957 C958 1.362 . S
C958 H950 0.930 . S
C958 C957 1.362 . S
C958 C961 1.409 . S
C959 H951 0.930 . S
C959 C960 1.355 . S
C959 C961 1.415 . S
C960 C959 1.355 . S
C960 C962 1.419 1_545 S
C961 C956 1.425 1_545 S
C961 C958 1.409 . S
C961 C959 1.415 . S
C962 H952 0.930 . S
C962 C960 1.419 1_565 S
C962 C963 1.362 . S
C963 H953 0.930 . S
C963 C956 1.409 . S
C963 C962 1.362 . S
H964 C970 0.930 . S
H965 C973 0.930 . S
H966 C974 0.930 . S
H967 C975 0.930 . S
H968 C978 0.930 . S
H969 C979 0.930 . S
C970 H964 0.930 . S
C970 C971 1.355 . S
C970 C972 1.415 . S
C971 C970 1.355 . S
C971 C973 1.419 . S
C972 C970 1.415 . S
C972 C977 1.425 . S
C972 C979 1.409 . S
C973 H965 0.930 . S
C973 C971 1.419 . S
C973 C974 1.362 . S
C974 H966 0.930 . S
C974 C973 1.362 . S
C974 C977 1.409 . S
C975 H967 0.930 . S
C975 C976 1.355 . S
C975 C977 1.415 . S
C976 C975 1.355 . S
C976 C978 1.419 . S
C977 C972 1.425 . S
C977 C974 1.409 . S
C977 C975 1.415 . S
C978 H968 0.930 . S
C978 C976 1.419 . S
C978 C979 1.362 . S
C979 H969 0.930 . S
C979 C972 1.409 . S
C979 C978 1.362 . S
H980 C986 0.930 . S
H981 C989 0.930 . S
H982 C990 0.930 . S
H983 C991 0.930 . S
H984 C994 0.930 . S
H985 C995 0.930 . S
C986 H980 0.930 . S
C986 C987 1.355 . S
C986 C988 1.415 . S
C987 C986 1.355 . S
C987 C989 1.419 1_655 S
C988 C986 1.415 . S
C988 C993 1.425 1_655 S
C988 C995 1.409 . S
C989 H981 0.930 . S
C989 C987 1.419 1_455 S
C989 C990 1.362 . S
C990 H982 0.930 . S
C990 C989 1.362 . S
C990 C993 1.409 . S
C991 H983 0.930 . S
C991 C992 1.355 . S
C991 C993 1.415 . S
C992 C991 1.355 . S
C992 C994 1.419 1_455 S
C993 C988 1.425 1_455 S
C993 C990 1.409 . S
C993 C991 1.415 . S
C994 H984 0.930 . S
C994 C992 1.419 1_655 S
C994 C995 1.362 . S
C995 H985 0.930 . S
C995 C988 1.409 . S
C995 C994 1.362 . S
H996 C1002 0.930 . S
H997 C1005 0.930 . S
H998 C1006 0.930 . S
H999 C1007 0.930 . S
H1000 C1010 0.930 . S
H1001 C1011 0.930 . S
C1002 H996 0.930 . S
C1002 C1003 1.355 1_455 S
C1002 C1004 1.415 . S
C1003 C1002 1.355 1_655 S
C1003 C1005 1.419 . S
C1004 C1002 1.415 . S
C1004 C1009 1.425 1_445 S
C1004 C1011 1.409 . S
C1005 H997 0.930 . S
C1005 C1003 1.419 . S
C1005 C1006 1.362 1_545 S
C1006 H998 0.930 . S
C1006 C1005 1.362 1_565 S
C1006 C1009 1.409 . S
C1007 H999 0.930 . S
C1007 C1008 1.355 1_655 S
C1007 C1009 1.415 . S
C1008 C1007 1.355 1_455 S
C1008 C1010 1.419 . S
C1009 C1004 1.425 1_665 S
C1009 C1006 1.409 . S
C1009 C1007 1.415 . S
C1010 H1000 0.930 . S
C1010 C1008 1.419 . S
C1010 C1011 1.362 1_565 S
C1011 H1001 0.930 . S
C1011 C1004 1.409 . S
C1011 C1010 1.362 1_545 S
H1012 C1018 0.930 . S
H1013 C1021 0.930 . S
H1014 C1022 0.930 . S
H1015 C1023 0.930 . S
H1016 C1026 0.930 . S
H1017 C1027 0.930 . S
C1018 H1012 0.930 . S
C1018 C1019 1.355 1_545 S
C1018 C1020 1.415 . S
C1019 C1018 1.355 1_565 S
C1019 C1021 1.419 . S
C1020 C1018 1.415 . S
C1020 C1025 1.425 1_645 S
C1020 C1027 1.409 1_655 S
C1021 H1013 0.930 . S
C1021 C1019 1.419 . S
C1021 C1022 1.362 . S
C1022 H1014 0.930 . S
C1022 C1021 1.362 . S
C1022 C1025 1.409 1_655 S
C1023 H1015 0.930 . S
C1023 C1024 1.355 1_565 S
C1023 C1025 1.415 . S
C1024 C1023 1.355 1_545 S
C1024 C1026 1.419 . S
C1025 C1020 1.425 1_465 S
C1025 C1022 1.409 1_455 S
C1025 C1023 1.415 . S
C1026 H1016 0.930 . S
C1026 C1024 1.419 . S
C1026 C1027 1.362 . S
C1027 H1017 0.930 . S
C1027 C1020 1.409 1_455 S
C1027 C1026 1.362 . S
H1028 C1034 0.930 1_655 S
H1029 C1037 0.930 . S
H1030 C1038 0.930 . S
H1031 C1039 0.930 1_455 S
H1032 C1042 0.930 . S
H1033 C1043 0.930 . S
C1034 H1028 0.930 1_455 S
C1034 C1035 1.355 . S
C1034 C1036 1.415 1_455 S
C1035 C1034 1.355 . S
C1035 C1037 1.419 . S
C1036 C1034 1.415 1_655 S
C1036 C1041 1.425 1_645 S
C1036 C1043 1.409 1_545 S
C1037 H1029 0.930 . S
C1037 C1035 1.419 . S
C1037 C1038 1.362 . S
C1038 H1030 0.930 . S
C1038 C1037 1.362 . S
C1038 C1041 1.409 1_545 S
C1039 H1031 0.930 1_655 S
C1039 C1040 1.355 . S
C1039 C1041 1.415 1_655 S
C1040 C1039 1.355 . S
C1040 C1042 1.419 . S
C1041 C1036 1.425 1_465 S
C1041 C1038 1.409 1_565 S
C1041 C1039 1.415 1_455 S
C1042 H1032 0.930 . S
C1042 C1040 1.419 . S
C1042 C1043 1.362 . S
C1043 H1033 0.930 . S
C1043 C1036 1.409 1_565 S
C1043 C1042 1.362 . S
H1044 C1050 0.930 1_455 S
H1045 C1053 0.930 . S
H1046 C1054 0.930 . S
H1047 C1055 0.930 1_655 S
H1048 C1058 0.930 . S
H1049 C1059 0.930 . S
C1050 H1044 0.930 1_655 S
C1050 C1051 1.355 . S
C1050 C1052 1.415 1_655 S
C1051 C1050 1.355 . S
C1051 C1053 1.419 1_545 S
C1052 C1050 1.415 1_455 S
C1052 C1057 1.425 1_445 S
C1052 C1059 1.409 . S
C1053 H1045 0.930 . S
C1053 C1051 1.419 1_565 S
C1053 C1054 1.362 . S
C1054 H1046 0.930 . S
C1054 C1053 1.362 . S
C1054 C1057 1.409 . S
C1055 H1047 0.930 1_455 S
C1055 C1056 1.355 . S
C1055 C1057 1.415 1_455 S
C1056 C1055 1.355 . S
C1056 C1058 1.419 1_565 S
C1057 C1052 1.425 1_665 S
C1057 C1054 1.409 . S
C1057 C1055 1.415 1_655 S
C1058 H1048 0.930 . S
C1058 C1056 1.419 1_545 S
C1058 C1059 1.362 . S
C1059 H1049 0.930 . S
C1059 C1052 1.409 . S
C1059 C1058 1.362 . S
H1060 C1066 0.930 . S
H1061 C1069 0.930 . S
H1062 C1070 0.930 . S
H1063 C1071 0.930 . S
H1064 C1074 0.930 . S
H1065 C1075 0.930 . S
C1066 H1060 0.930 . S
C1066 C1067 1.355 . S
C1066 C1068 1.415 1_655 S
C1067 C1066 1.355 . S
C1067 C1069 1.419 . S
C1068 C1066 1.415 1_455 S
C1068 C1073 1.425 1_465 S
C1068 C1075 1.409 . S
C1069 H1061 0.930 . S
C1069 C1067 1.419 . S
C1069 C1070 1.362 1_565 S
C1070 H1062 0.930 . S
C1070 C1069 1.362 1_545 S
C1070 C1073 1.409 . S
C1071 H1063 0.930 . S
C1071 C1072 1.355 . S
C1071 C1073 1.415 1_455 S
C1072 C1071 1.355 . S
C1072 C1074 1.419 . S
C1073 C1068 1.425 1_645 S
C1073 C1070 1.409 . S
C1073 C1071 1.415 1_655 S
C1074 H1064 0.930 . S
C1074 C1072 1.419 . S
C1074 C1075 1.362 1_545 S
C1075 H1065 0.930 . S
C1075 C1068 1.409 . S
C1075 C1074 1.362 1_565 S
H1076 C1082 0.930 . S
H1077 C1085 0.930 . S
H1078 C1086 0.930 . S
H1079 C1087 0.930 . S
H1080 C1090 0.930 . S
H1081 C1091 0.930 . S
C1082 H1076 0.930 . S
C1082 C1083 1.355 . S
C1082 C1084 1.415 1_655 S
C1083 C1082 1.355 . S
C1083 C1085 1.419 . S
C1084 C1082 1.415 1_455 S
C1084 C1089 1.425 1_465 S
C1084 C1091 1.409 1_565 S
C1085 H1077 0.930 . S
C1085 C1083 1.419 . S
C1085 C1086 1.362 . S
C1086 H1078 0.930 . S
C1086 C1085 1.362 . S
C1086 C1089 1.409 1_565 S
C1087 H1079 0.930 . S
C1087 C1088 1.355 . S
C1087 C1089 1.415 1_455 S
C1088 C1087 1.355 . S
C1088 C1090 1.419 . S
C1089 C1084 1.425 1_645 S
C1089 C1086 1.409 1_545 S
C1089 C1087 1.415 1_655 S
C1090 H1080 0.930 . S
C1090 C1088 1.419 . S
C1090 C1091 1.362 . S
C1091 H1081 0.930 . S
C1091 C1084 1.409 1_545 S
C1091 C1090 1.362 . S
C715 C652 1.475 . S
C720 C3 1.472 . S
C731 C62 1.431 . S
C736 C357 1.463 . S
C747 C121 1.478 . S
C752 C416 1.451 . S
C763 C180 1.449 . S
C768 C475 1.476 . S
C779 C534 1.418 . S
C784 C239 1.438 . S
C795 C298 1.423 . S
C800 C593 1.428 . S
C811 C33 1.293 . S
C816 C623 1.318 . S
C827 C92 1.302 . S
C832 C682 1.308 . S
C843 C151 1.324 . S
C848 C387 1.321 . S
C859 C210 1.274 . S
C864 C446 1.277 . S
C875 C505 1.310 . S
C880 C269 1.337 . S
C891 C564 1.355 . S
C896 C328 1.352 . S
C907 C182 1.408 . S
C912 C5 1.410 . S
C923 C64 1.547 . S
C928 C241 1.550 . S
C939 C300 1.599 . S
C944 C123 1.597 . S
C955 C536 1.515 . S
C960 C359 1.509 . S
C971 C595 1.450 . S
C976 C418 1.439 . S
C987 C477 1.517 . S
C992 C654 1.517 . S
C1003 C52 1.390 . S
C1008 C229 1.383 . S
C1019 C111 1.410 . S
C1024 C288 1.405 . S
C1035 C347 1.488 . S
C1040 C170 1.502 . S
C1051 C406 1.337 . S
C1056 C583 1.345 . S
C1067 C465 1.353 . S
C1072 C642 1.343 . S
C1083 C524 1.465 . S
C1088 C701 1.442 . S
