# Generated by pormake.
# Topology wlj, (5)-cn, num edge types: 1
# Building blocks:
#     Node 0, Type 0, BuildingBlock: XOMCOT_clean_sbu_1, # of connection points: 5
#     Node 1, Type 0, BuildingBlock: XOMCOT_clean_sbu_1, # of connection points: 5
#     Node 2, Type 0, BuildingBlock: XOMCOT_clean_sbu_1, # of connection points: 5
#     Node 3, Type 0, BuildingBlock: XOMCOT_clean_sbu_1, # of connection points: 5
#     Node 4, Type 0, BuildingBlock: XOMCOT_clean_sbu_1, # of connection points: 5
#     Node 5, Type 0, BuildingBlock: XOMCOT_clean_sbu_1, # of connection points: 5
#     Edge 6, Type (0, 0), BuildingBlock: XUDNAN_clean_linker_2, # of connection points: 2
#     Edge 7, Type (0, 0), BuildingBlock: XUDNAN_clean_linker_2, # of connection points: 2
#     Edge 8, Type (0, 0), BuildingBlock: XUDNAN_clean_linker_2, # of connection points: 2
#     Edge 9, Type (0, 0), BuildingBlock: XUDNAN_clean_linker_2, # of connection points: 2
#     Edge 10, Type (0, 0), BuildingBlock: XUDNAN_clean_linker_2, # of connection points: 2
#     Edge 11, Type (0, 0), BuildingBlock: XUDNAN_clean_linker_2, # of connection points: 2
#     Edge 12, Type (0, 0), BuildingBlock: XUDNAN_clean_linker_2, # of connection points: 2
#     Edge 13, Type (0, 0), BuildingBlock: XUDNAN_clean_linker_2, # of connection points: 2
#     Edge 14, Type (0, 0), BuildingBlock: XUDNAN_clean_linker_2, # of connection points: 2
#     Edge 15, Type (0, 0), BuildingBlock: XUDNAN_clean_linker_2, # of connection points: 2
#     Edge 16, Type (0, 0), BuildingBlock: XUDNAN_clean_linker_2, # of connection points: 2
#     Edge 17, Type (0, 0), BuildingBlock: XUDNAN_clean_linker_2, # of connection points: 2
#     Edge 18, Type (0, 0), BuildingBlock: XUDNAN_clean_linker_2, # of connection points: 2
#     Edge 19, Type (0, 0), BuildingBlock: XUDNAN_clean_linker_2, # of connection points: 2
#     Edge 20, Type (0, 0), BuildingBlock: XUDNAN_clean_linker_2, # of connection points: 2
# Relax obj value: 0.129
# Max RMSD: 0.180
# Mean RMSD: 0.180
data_MOF--net-wlj--node1-XOMCOT_clean_sbu_1--edge1-XUDNAN_clean_linker_2
_symmetry_space_group_name_H-M    P1
_symmetry_Int_Tables_number       1
_symmetry_cell_setting            triclinic
loop_
_symmetry_equiv_pos_as_xyz
'x, y, z'
_cell_length_a     25.154611
_cell_length_b     25.031258
_cell_length_c     53.550155
_cell_angle_alpha  89.727284
_cell_angle_beta   90.162502
_cell_angle_gamma 119.7992
loop_
_atom_site_label
_atom_site_type_symbol
_atom_site_fract_x
_atom_site_fract_y
_atom_site_fract_z
_atom_type_partial_charge
C0 C 0.70459 0.30603 0.32049 0.0
C1 C 0.71015 0.26508 0.33598 0.0
N2 N 0.65843 0.20993 0.33443 0.0
N3 N 0.64963 0.27734 0.30908 0.0
C4 C 0.62235 0.21891 0.31803 0.0
H5 H 0.73855 0.3539 0.31768 0.0
Co6 Co 0.62291 0.31592 0.28598 0.0
C7 C 0.51914 0.19192 0.26925 0.0
O8 O 0.48016 0.18748 0.28652 0.0
N9 N 0.59606 0.35434 0.26305 0.0
C10 C 0.55532 0.37324 0.22962 0.0
C11 C 0.57426 0.33504 0.23978 0.0
C12 C 0.59144 0.40548 0.26634 0.0
N13 N 0.56616 0.41739 0.24634 0.0
O14 O 0.55852 0.30565 0.30831 0.0
H15 H 0.57201 0.29563 0.23064 0.0
H16 H 0.60519 0.43279 0.28319 0.0
O17 O 0.57313 0.23829 0.26884 0.0
C18 C 0.58298 0.34907 0.3243 0.0
O19 O 0.64267 0.38541 0.32383 0.0
N20 N 0.68926 0.33285 0.26528 0.0
C21 C 0.79763 0.37313 0.23826 0.0
C22 C 0.75702 0.30989 0.24206 0.0
C23 C 0.7029 0.2906 0.25572 0.0
C24 C 0.72813 0.39415 0.26189 0.0
C25 C 0.78174 0.4152 0.24814 0.0
H26 H 0.673 0.24202 0.25921 0.0
H27 H 0.71761 0.42715 0.27016 0.0
H28 H 0.57719 0.18349 0.31243 0.0
H29 H 0.74923 0.27575 0.34771 0.0
H30 H 0.53568 0.36939 0.21124 0.0
H31 H 0.76759 0.27567 0.23515 0.0
H32 H 0.81043 0.46432 0.24535 0.0
C33 C 0.79379 0.43283 0.98347 0.0
C34 C 0.84538 0.48083 0.99379 0.0
N35 N 0.89395 0.47476 0.9876 0.0
N36 N 0.80929 0.39626 0.97072 0.0
C37 C 0.87082 0.42302 0.97353 0.0
H38 H 0.74748 0.42454 0.98532 0.0
Co39 Co 0.75029 0.323 0.95555 0.0
C40 C 0.81018 0.33188 0.90648 0.0
O41 O 0.75958 0.32203 0.89525 0.0
N42 N 0.68838 0.24728 0.94223 0.0
C43 C 0.59844 0.16012 0.94416 0.0
C44 C 0.6363 0.21517 0.95556 0.0
C45 C 0.68197 0.20865 0.92328 0.0
N46 N 0.62696 0.15606 0.92369 0.0
O47 O 0.77053 0.27468 0.97757 0.0
H48 H 0.62639 0.23117 0.9727 0.0
H49 H 0.71745 0.21678 0.91004 0.0
O50 O 0.8122 0.33112 0.93043 0.0
C51 C 0.74775 0.26948 0.99932 0.0
O52 O 0.72482 0.30485 1.00513 0.0
N53 N 0.72549 0.36954 0.9353 0.0
C54 C 0.68185 0.4358 0.90804 0.0
C55 C 0.74473 0.45536 0.90874 0.0
C56 C 0.76572 0.4221 0.92278 0.0
C57 C 0.66486 0.35224 0.93587 0.0
C58 C 0.642 0.38352 0.92199 0.0
H59 H 0.8144 0.43852 0.92355 0.0
H60 H 0.63344 0.3145 0.94742 0.0
H61 H 0.89781 0.40411 0.96598 0.0
H62 H 0.84701 0.51766 1.00488 0.0
H63 H 0.55297 0.12625 0.95032 0.0
H64 H 0.77756 0.49645 0.89887 0.0
H65 H 0.5931 0.36627 0.92221 0.0
C66 C 0.67698 0.41161 0.66248 0.0
C67 C 0.63574 0.41792 0.67708 0.0
N68 N 0.59947 0.42966 0.66216 0.0
N69 N 0.6676 0.41966 0.63832 0.0
C70 C 0.61968 0.43022 0.63863 0.0
H71 H 0.71046 0.39978 0.66909 0.0
Co72 Co 0.71062 0.40834 0.61235 0.0
C73 C 0.71516 0.49227 0.57013 0.0
O74 O 0.73932 0.47042 0.55436 0.0
N75 N 0.75509 0.39423 0.5871 0.0
C76 C 0.78263 0.3437 0.56077 0.0
C77 C 0.7381 0.3388 0.57678 0.0
C78 C 0.81219 0.43151 0.57782 0.0
N79 N 0.82919 0.40199 0.56134 0.0
O80 O 0.78703 0.47066 0.6267 0.0
H81 H 0.69663 0.29639 0.58096 0.0
H82 H 0.84022 0.47962 0.58264 0.0
O83 O 0.70302 0.47144 0.59253 0.0
C84 C 0.81639 0.44917 0.63864 0.0
O85 O 0.79274 0.3891 0.63974 0.0
N86 N 0.63596 0.34411 0.59958 0.0
C87 C 0.54592 0.23211 0.58005 0.0
C88 C 0.56765 0.28656 0.56618 0.0
C89 C 0.61234 0.3423 0.57636 0.0
C90 C 0.61169 0.29236 0.61407 0.0
C91 C 0.56638 0.23583 0.60471 0.0
H92 H 0.63056 0.3822 0.56458 0.0
H93 H 0.63113 0.29398 0.63229 0.0
H94 H 0.59958 0.43723 0.62192 0.0
H95 H 0.63153 0.41201 0.69714 0.0
H96 H 0.78149 0.30675 0.54992 0.0
H97 H 0.55245 0.28561 0.54715 0.0
H98 H 0.55103 0.19475 0.61601 0.0
C99 C 0.29805 0.68202 0.74711 0.0
C100 C 0.25737 0.68678 0.73128 0.0
N101 N 0.20302 0.63418 0.73269 0.0
N102 N 0.26955 0.62688 0.75871 0.0
C103 C 0.21187 0.59859 0.74941 0.0
H104 H 0.34573 0.71618 0.74961 0.0
Co105 Co 0.30489 0.59558 0.78098 0.0
C106 C 0.21148 0.54169 0.82205 0.0
O107 O 0.25517 0.56681 0.83888 0.0
N108 N 0.34008 0.56196 0.80278 0.0
C109 C 0.34853 0.49066 0.82475 0.0
C110 C 0.30935 0.50362 0.81169 0.0
C111 C 0.39902 0.58221 0.80962 0.0
N112 N 0.40484 0.54005 0.82335 0.0
O113 O 0.28516 0.528 0.75886 0.0
H114 H 0.26167 0.47118 0.80804 0.0
H115 H 0.43753 0.62577 0.80408 0.0
O116 O 0.22527 0.54994 0.79875 0.0
C117 C 0.33174 0.54794 0.74451 0.0
O118 O 0.37429 0.60609 0.74623 0.0
N119 N 0.33284 0.66677 0.80084 0.0
C120 C 0.3962 0.78336 0.8228 0.0
C121 C 0.33291 0.74532 0.82671 0.0
C122 C 0.30155 0.68752 0.81493 0.0
C123 C 0.3936 0.70447 0.79623 0.0
C124 C 0.42622 0.76208 0.80724 0.0
H125 H 0.25234 0.66083 0.81659 0.0
H126 H 0.41672 0.69046 0.78308 0.0
H127 H 0.17716 0.55254 0.75475 0.0
H128 H 0.26775 0.72541 0.71912 0.0
H129 H 0.33725 0.44723 0.83354 0.0
H130 H 0.30764 0.76105 0.83792 0.0
H131 H 0.47472 0.79009 0.80332 0.0
C132 C 0.3766 0.63817 0.4107 0.0
C133 C 0.38755 0.60076 0.39528 0.0
N134 N 0.44288 0.60809 0.40093 0.0
N135 N 0.42432 0.66857 0.42651 0.0
C136 C 0.46508 0.65124 0.41912 0.0
H137 H 0.33517 0.64092 0.41064 0.0
Co138 Co 0.43169 0.72079 0.45393 0.0
C139 C 0.47836 0.64114 0.4761 0.0
O140 O 0.43278 0.59187 0.46596 0.0
N141 N 0.43934 0.77254 0.48064 0.0
C142 C 0.44665 0.80747 0.51934 0.0
C143 C 0.4492 0.76397 0.50479 0.0
C144 C 0.43167 0.82244 0.481 0.0
N145 N 0.43571 0.84415 0.50441 0.0
O146 O 0.50275 0.78782 0.4383 0.0
H147 H 0.45617 0.72742 0.51176 0.0
H148 H 0.42136 0.84124 0.46466 0.0
O149 O 0.48284 0.69395 0.47264 0.0
C150 C 0.48292 0.81316 0.42291 0.0
O151 O 0.42334 0.78725 0.4198 0.0
N152 N 0.35728 0.65963 0.46808 0.0
C153 C 0.2374 0.58955 0.48578 0.0
C154 C 0.28608 0.58909 0.4984 0.0
C155 C 0.34607 0.62494 0.48933 0.0
C156 C 0.31051 0.66291 0.45667 0.0
C157 C 0.25029 0.62726 0.46475 0.0
H158 H 0.3829 0.62635 0.50012 0.0
H159 H 0.32035 0.69493 0.44143 0.0
H160 H 0.50945 0.66783 0.42774 0.0
H161 H 0.35551 0.56778 0.38207 0.0
H162 H 0.45206 0.81175 0.53943 0.0
H163 H 0.27787 0.56161 0.51514 0.0
H164 H 0.21417 0.6305 0.45501 0.0
C165 C 0.44182 0.77429 0.08554 0.0
C166 C 0.49231 0.8217 0.07393 0.0
N167 N 0.49328 0.87471 0.07912 0.0
N168 N 0.41091 0.79734 0.09782 0.0
C169 C 0.44349 0.8587 0.09348 0.0
H170 H 0.42818 0.72596 0.08488 0.0
Co171 Co 0.3363 0.75215 0.11493 0.0
C172 C 0.34126 0.83558 0.15593 0.0
O173 O 0.31156 0.78746 0.17061 0.0
N174 N 0.25979 0.70707 0.13126 0.0
C175 C 0.16772 0.68735 0.14439 0.0
C176 C 0.22036 0.72904 0.1325 0.0
C177 C 0.22841 0.65019 0.14177 0.0
N178 N 0.17284 0.63791 0.15015 0.0
O179 O 0.29376 0.76671 0.08812 0.0
H180 H 0.22952 0.77321 0.12525 0.0
H181 H 0.2452 0.61811 0.14331 0.0
O182 O 0.35287 0.82795 0.13328 0.0
C183 C 0.28213 0.72603 0.07142 0.0
O184 O 0.3061 0.69015 0.07389 0.0
N185 N 0.37667 0.73108 0.13942 0.0
C186 C 0.43164 0.68318 0.17118 0.0
C187 C 0.4455 0.74482 0.1732 0.0
C188 C 0.41889 0.7684 0.15666 0.0
C189 C 0.36584 0.67265 0.13616 0.0
C190 C 0.39229 0.64768 0.15181 0.0
H191 H 0.43344 0.81676 0.15756 0.0
H192 H 0.33658 0.64524 0.12101 0.0
H193 H 0.43029 0.89115 0.1001 0.0
H194 H 0.52619 0.81774 0.06291 0.0
H195 H 0.12819 0.69239 0.14823 0.0
H196 H 0.47669 0.77487 0.18735 0.0
H197 H 0.38263 0.60115 0.14832 0.0
H198 H 0.4163 0.07598 0.26699 0.0
H199 H 0.57936 0.20231 0.22548 0.0
H200 H 0.54734 0.12845 0.19084 0.0
H201 H 0.41969 0.93957 0.24868 0.0
H202 H 0.33754 0.89216 0.24697 0.0
H203 H 0.37144 0.95659 0.268 0.0
H204 H 0.30747 1.00032 0.24757 0.0
H205 H 0.27382 0.93626 0.22631 0.0
H206 H 0.31256 1.01394 0.21434 0.0
H207 H 0.49765 0.04112 0.16026 0.0
H208 H 0.4399 0.94197 0.1383 0.0
H209 H 0.31171 0.86953 0.20011 0.0
C210 C 0.44509 0.08823 0.25056 0.0
C211 C 0.5 0.14555 0.24893 0.0
C212 C 0.53684 0.15913 0.22722 0.0
C213 C 0.51896 0.11747 0.20733 0.0
C214 C 0.46441 0.06176 0.20941 0.0
C215 C 0.42842 0.04659 0.23061 0.0
C216 C 0.37383 0.98203 0.22862 0.0
C217 C 0.37577 0.94012 0.24929 0.0
C218 C 0.31334 0.98324 0.22924 0.0
C219 C 0.3849 0.96342 0.20305 0.0
C220 C 0.43694 1.01042 0.19215 0.0
C221 C 0.45675 1.00398 0.16862 0.0
C222 C 0.42334 0.94751 0.15616 0.0
C223 C 0.37105 0.89785 0.16734 0.0
C224 C 0.35136 0.90657 0.19098 0.0
H225 H 0.1657 0.52681 0.86978 0.0
H226 H 0.11047 0.46932 0.79321 0.0
H227 H 1.00337 0.40431 0.80721 0.0
H228 H 0.06202 0.38153 0.89984 0.0
H229 H 0.04636 0.41709 0.92584 0.0
H230 H 0.11908 0.45723 0.91002 0.0
H231 H 0.10215 0.54972 0.90206 0.0
H232 H 0.02932 0.50997 0.91772 0.0
H233 H 0.03363 0.53751 0.88624 0.0
H234 H 0.9021 0.34728 0.82933 0.0
H235 H 0.81277 0.30662 0.85736 0.0
H236 H 0.93261 0.40125 0.9199 0.0
C237 C 0.13121 0.50028 0.85593 0.0
C238 C 0.14677 0.50303 0.83034 0.0
C239 C 0.09991 0.46805 0.81287 0.0
C240 C 0.03892 0.43076 0.82068 0.0
C241 C 0.0253 0.42896 0.84604 0.0
C242 C 0.07002 0.46307 0.8634 0.0
C243 C 0.0427 0.45498 0.88937 0.0
C244 C 0.06912 0.42597 0.90732 0.0
C245 C 0.05254 0.51672 0.89943 0.0
C246 C 0.97552 0.41088 0.88394 0.0
C247 C 0.96669 0.39635 0.85881 0.0
C248 C 0.90857 0.35815 0.84903 0.0
C249 C 0.85804 0.33522 0.86515 0.0
C250 C 0.86553 0.35028 0.8909 0.0
C251 C 0.92538 0.38792 0.90044 0.0
H252 H 0.50969 0.55158 0.47353 0.0
H253 H 0.54558 0.71363 0.51565 0.0
H254 H 0.61088 0.6943 0.54488 0.0
H255 H 0.50314 0.45686 0.52347 0.0
H256 H 0.54262 0.42387 0.50726 0.0
H257 H 0.49918 0.4509 0.48989 0.0
H258 H 0.59503 0.52229 0.46353 0.0
H259 H 0.63868 0.49498 0.48061 0.0
H260 H 0.66491 0.57629 0.47906 0.0
H261 H 0.66452 0.64919 0.572 0.0
H262 H 0.71309 0.59227 0.59036 0.0
H263 H 0.65065 0.4685 0.52712 0.0
C264 C 0.53178 0.5835 0.48872 0.0
C265 C 0.52216 0.63388 0.4924 0.0
C266 C 0.55217 0.67464 0.51248 0.0
C267 C 0.5892 0.66389 0.52922 0.0
C268 C 0.597 0.61311 0.52521 0.0
C269 C 0.57015 0.57453 0.50505 0.0
C270 C 0.58693 0.52432 0.50421 0.0
C271 C 0.52955 0.46022 0.50634 0.0
C272 C 0.62358 0.52983 0.48045 0.0
C273 C 0.62652 0.53972 0.52732 0.0
C274 C 0.63124 0.59048 0.5395 0.0
C275 C 0.66213 0.61023 0.56229 0.0
C276 C 0.68937 0.57767 0.57264 0.0
C277 C 0.68666 0.52704 0.55986 0.0
C278 C 0.6548 0.50812 0.53696 0.0
H279 H 0.38044 0.56304 0.18741 0.0
H280 H 0.5461 0.74105 0.19361 0.0
H281 H 0.59313 0.69368 0.21936 0.0
H282 H 0.38778 0.49997 0.24881 0.0
H283 H 0.36149 0.42427 0.2362 0.0
H284 H 0.33682 0.47406 0.2223 0.0
H285 H 0.37727 0.46296 0.17924 0.0
H286 H 0.4018 0.41315 0.19299 0.0
H287 H 0.45601 0.48145 0.17637 0.0
H288 H 0.62561 0.62436 0.24168 0.0
H289 H 0.64309 0.53868 0.2544 0.0
H290 H 0.46043 0.40671 0.22964 0.0
C291 C 0.42658 0.59251 0.19415 0.0
C292 C 0.45917 0.65614 0.18835 0.0
C293 C 0.51925 0.69255 0.19807 0.0
C294 C 0.5466 0.66595 0.21271 0.0
C295 C 0.51354 0.60282 0.21746 0.0
C296 C 0.4549 0.56661 0.2083 0.0
C297 C 0.43139 0.49905 0.21351 0.0
C298 C 0.37609 0.47281 0.23126 0.0
C299 C 0.41574 0.46202 0.18908 0.0
C300 C 0.4868 0.50256 0.2262 0.0
C301 C 0.53315 0.56283 0.22904 0.0
C302 C 0.58942 0.57707 0.23968 0.0
C303 C 0.59898 0.52839 0.24693 0.0
C304 C 0.55307 0.46662 0.24288 0.0
C305 C 0.49605 0.45376 0.23288 0.0
H306 H 0.39802 0.81936 0.87165 0.0
H307 H 0.47529 0.88906 0.79838 0.0
H308 H 0.54368 0.99128 0.81642 0.0
H309 H 0.4029 0.96055 0.89342 0.0
H310 H 0.42317 0.9521 0.92492 0.0
H311 H 0.37827 0.88492 0.90605 0.0
H312 H 0.45824 0.85004 0.91363 0.0
H313 H 0.50375 0.91751 0.93225 0.0
H314 H 0.53738 0.90138 0.90572 0.0
H315 H 0.60722 0.08464 0.84245 0.0
H316 H 0.65621 0.16542 0.87447 0.0
H317 H 0.53896 0.03604 0.9311 0.0
C318 C 0.42858 0.85651 0.85939 0.0
C319 C 0.43152 0.84618 0.83362 0.0
C320 C 0.4727 0.89576 0.81822 0.0
C321 C 0.51171 0.95403 0.82828 0.0
C322 C 0.50903 0.96231 0.85382 0.0
C323 C 0.46818 0.91522 0.86918 0.0
C324 C 0.47554 0.93653 0.8961 0.0
C325 C 0.41646 0.93335 0.90568 0.0
C326 C 0.49489 0.89913 0.91291 0.0
C327 C 0.5269 1.00269 0.89339 0.0
C328 C 0.54566 1.01649 0.86886 0.0
C329 C 0.59281 0.07446 0.86174 0.0
C330 C 0.62081 0.11995 0.88012 0.0
C331 C 0.60157 0.10741 0.90535 0.0
C332 C 0.55434 0.04756 0.91197 0.0
H333 H 0.94626 0.48486 0.57545 0.0
H334 H 0.83593 0.37298 0.51368 0.0
H335 H 0.92908 0.40672 0.48844 0.0
H336 H 0.05951 0.61251 0.53775 0.0
H337 H 0.12312 0.62576 0.55745 0.0
H338 H 0.04752 0.59429 0.57059 0.0
H339 H 0.055 0.50141 0.58778 0.0
H340 H 0.13036 0.53222 0.57445 0.0
H341 H 0.07112 0.4554 0.56664 0.0
H342 H 0.03212 0.45126 0.46982 0.0
H343 H 0.14152 0.50722 0.45817 0.0
H344 H 0.18838 0.58906 0.53186 0.0
C345 C 0.942 0.46828 0.55651 0.0
C346 C 0.88398 0.4262 0.54647 0.0
C347 C 0.88 0.40472 0.52174 0.0
C348 C 0.9326 0.42369 0.50727 0.0
C349 C 0.98913 0.46404 0.5178 0.0
C350 C 0.99448 0.48638 0.54179 0.0
C351 C 0.06134 0.52877 0.54848 0.0
C352 C 0.07358 0.59422 0.55388 0.0
C353 C 0.08057 0.50288 0.57066 0.0
C354 C 0.09237 0.52671 0.52448 0.0
C355 C 0.04955 0.48906 0.50709 0.0
C356 C 0.06621 0.48071 0.48327 0.0
C357 C 0.12831 0.51252 0.47683 0.0
C358 C 0.1731 0.55183 0.49417 0.0
C359 C 0.15498 0.5584 0.51843 0.0
H360 H 0.58645 0.45468 0.92004 0.0
H361 H 0.7198 0.49059 0.86173 0.0
H362 H 0.67037 0.53464 0.83521 0.0
H363 H 0.46134 0.39849 0.88041 0.0
H364 H 0.42157 0.42952 0.89773 0.0
H365 H 0.47387 0.41149 0.91353 0.0
H366 H 0.53485 0.52341 0.93001 0.0
H367 H 0.48259 0.54184 0.91423 0.0
H368 H 0.56368 0.58683 0.90823 0.0
H369 H 0.59892 0.56533 0.81339 0.0
H370 H 0.51027 0.57446 0.79818 0.0
H371 H 0.4213 0.51028 0.86976 0.0
C372 C 0.60577 0.47209 0.90177 0.0
C373 C 0.65708 0.46887 0.89302 0.0
C374 C 0.68113 0.49325 0.86908 0.0
C375 C 0.65318 0.51819 0.85382 0.0
C376 C 0.60132 0.51855 0.86278 0.0
C377 C 0.578 0.49606 0.88625 0.0
C378 C 0.51849 0.49564 0.89075 0.0
C379 C 0.46573 0.42989 0.8959 0.0
C380 C 0.52535 0.53956 0.91207 0.0
C381 C 0.51077 0.51965 0.86588 0.0
C382 C 0.55955 0.53403 0.8501 0.0
C383 C 0.56096 0.55492 0.82573 0.0
C384 C 0.51077 0.56021 0.81726 0.0
C385 C 0.4597 0.54341 0.83296 0.0
C386 C 0.46026 0.52374 0.85758 0.0
H387 H 0.56757 0.19362 0.53557 0.0
H388 H 0.44208 0.13253 0.59826 0.0
H389 H 0.38854 0.02713 0.58095 0.0
H390 H 0.45633 0.08734 0.48724 0.0
H391 H 0.5143 0.07534 0.47292 0.0
H392 H 0.53528 0.1479 0.48758 0.0
H393 H 0.61351 0.13668 0.51545 0.0
H394 H 0.59277 0.06428 0.50097 0.0
H395 H 0.58785 0.06852 0.53441 0.0
H396 H 0.35928 0.92712 0.56077 0.0
H397 H 0.35785 0.83876 0.53966 0.0
H398 H 0.50127 0.96315 0.48964 0.0
C399 C 0.52732 0.15851 0.54511 0.0
C400 C 0.50821 0.17128 0.56805 0.0
C401 C 0.45703 0.12368 0.58059 0.0
C402 C 0.42622 0.06386 0.57081 0.0
C403 C 0.44713 0.05241 0.54846 0.0
C404 C 0.4964 0.09845 0.53569 0.0
C405 C 0.51443 0.07259 0.51377 0.0
C406 C 0.50447 0.09726 0.4889 0.0
C407 C 0.58106 0.08632 0.51633 0.0
C408 C 0.46921 1.00447 0.5168 0.0
C409 C 0.43012 0.99406 0.53668 0.0
C410 C 0.38854 0.93475 0.54481 0.0
C411 C 0.38797 0.88492 0.53277 0.0
C412 C 0.42851 0.89453 0.51282 0.0
C413 C 0.46848 0.95492 0.5043 0.0
H414 H 0.12643 0.63439 0.19537 0.0
H415 H 0.11299 0.52196 0.13208 0.0
H416 H 1.0188 0.43434 0.15018 0.0
H417 H 0.06554 0.50673 0.24329 0.0
H418 H 0.02667 0.54007 0.25972 0.0
H419 H 0.09723 0.58907 0.24345 0.0
H420 H 0.04303 0.63748 0.21857 0.0
H421 H 0.97224 0.58816 0.23442 0.0
H422 H 0.97514 0.58827 0.20079 0.0
H423 H 0.91677 0.36619 0.17225 0.0
H424 H 0.82149 0.32181 0.19715 0.0
H425 H 0.9075 0.47756 0.24757 0.0
C426 C 0.10465 0.59044 0.18591 0.0
C427 C 0.12679 0.58399 0.16266 0.0
C428 C 0.09695 0.52678 0.15022 0.0
C429 C 0.04346 0.47716 0.16032 0.0
C430 C 1.02152 0.48556 0.18306 0.0
C431 C 0.05213 0.54055 0.19593 0.0
C432 C 1.01745 0.53986 0.21905 0.0
C433 C 0.05389 0.54417 0.24278 0.0
C434 C 1.001 0.59148 0.21813 0.0
C435 C 0.96109 0.47705 0.21667 0.0
C436 C 0.96413 0.44605 0.19593 0.0
C437 C 0.91463 0.38948 0.18886 0.0
C438 C 0.86064 0.36448 0.2032 0.0
C439 C 0.85648 0.39607 0.22437 0.0
C440 C 0.90834 0.45231 0.23137 0.0
H441 H 0.44648 0.87823 0.39354 0.0
H442 H 0.60978 0.88442 0.42368 0.0
H443 H 0.67343 0.9862 0.40327 0.0
H444 H 0.50934 0.95022 0.33418 0.0
H445 H 0.4677 0.9916 0.33361 0.0
H446 H 0.43632 0.91881 0.3497 0.0
H447 H 0.42749 0.96992 0.39027 0.0
H448 H 0.45889 0.04285 0.37435 0.0
H449 H 0.49454 0.03617 0.40253 0.0
H450 H 0.71831 0.08897 0.37959 0.0
H451 H 0.74065 0.18248 0.356 0.0
H452 H 0.54604 0.10858 0.34306 0.0
C453 C 0.49571 0.90042 0.39577 0.0
C454 C 0.52315 0.87291 0.41015 0.0
C455 C 0.58771 0.90429 0.41268 0.0
C456 C 0.62413 0.96212 0.40115 0.0
C457 C 0.59523 0.98792 0.38725 0.0
C458 C 0.53237 0.95788 0.3846 0.0
C459 C 0.51182 0.9957 0.36943 0.0
C460 C 0.47939 0.96207 0.3453 0.0
C461 C 0.47078 1.01213 0.38509 0.0
C462 C 0.57297 0.05213 0.36386 0.0
C463 C 0.62059 0.0468 0.37419 0.0
C464 C 0.68121 0.09349 0.37155 0.0
C465 C 0.69338 0.14688 0.35818 0.0
C466 C 0.64521 0.15382 0.34762 0.0
C467 C 0.58422 0.10518 0.35054 0.0
H468 H 0.93435 0.541 1.03054 0.0
H469 H 0.9963 0.50065 0.96141 0.0
H470 H 0.10378 0.57346 0.9732 0.0
H471 H 0.04851 0.70398 1.0343 0.0
H472 H 0.0571 0.70217 0.06768 0.0
H473 H 0.98498 0.64994 0.05315 0.0
H474 H 0.98791 0.55697 0.07319 0.0
H475 H 0.05942 0.60898 0.08805 0.0
H476 H 0.05409 0.54822 0.06843 0.0
H477 H 0.20433 0.6465 0.99354 0.0
H478 H 0.29044 0.70534 1.02255 0.0
H479 H 0.1637 0.69982 0.07841 0.0
C480 C 0.97046 0.54813 1.0177 0.0
C481 C 0.95684 0.51561 0.99483 0.0
C482 C 1.00563 0.52496 0.97895 0.0
C483 C 0.06673 0.56664 0.98543 0.0
C484 C 0.07841 0.59849 1.00796 0.0
C485 C 0.03164 0.58914 1.024 0.0
C486 C 0.05668 0.62563 0.04793 0.0
C487 C 0.03555 0.67326 0.05093 0.0
C488 C 0.03846 0.58238 0.07074 0.0
C489 C 0.12501 0.65674 0.04298 0.0
C490 C 0.13646 0.6409 1.01968 0.0
C491 C 0.19589 0.66 1.01161 0.0
C492 C 0.24458 0.69387 1.02812 0.0
C493 C 0.23385 0.70882 0.05235 0.0
C494 C 0.1734 0.69145 0.05959 0.0
H495 H 0.42152 0.52545 0.75749 0.0
H496 H 0.28468 0.48569 0.70053 0.0
H497 H 0.33526 0.44394 0.67325 0.0
H498 H 0.54428 0.58245 0.71804 0.0
H499 H 0.58613 0.55242 0.73475 0.0
H500 H 0.53312 0.56803 0.75116 0.0
H501 H 0.47438 0.4557 0.76735 0.0
H502 H 0.52789 0.43978 0.75135 0.0
H503 H 0.44692 0.39301 0.74543 0.0
H504 H 0.41114 0.42022 0.65023 0.0
H505 H 0.49825 0.40898 0.63531 0.0
H506 H 0.58559 0.46886 0.70764 0.0
C507 C 0.40068 0.50528 0.7397 0.0
C508 C 0.34829 0.50682 0.7313 0.0
C509 C 0.3236 0.48278 0.70754 0.0
C510 C 0.3525 0.45968 0.69189 0.0
C511 C 0.40588 0.46115 0.70038 0.0
C512 C 0.42902 0.48255 0.72397 0.0
C513 C 0.48957 0.48467 0.72812 0.0
C514 C 0.54128 0.55081 0.73331 0.0
C515 C 0.48434 0.44064 0.74932 0.0
C516 C 0.49782 0.46223 0.70304 0.0
C517 C 0.44923 0.44861 0.68723 0.0
C518 C 0.44891 0.43 0.66264 0.0
C519 C 0.49895 0.42433 0.65422 0.0
C520 C 0.54883 0.43742 0.6703 0.0
C521 C 0.54782 0.45697 0.69496 0.0
H522 H 0.11048 0.51961 0.72014 0.0
H523 H 0.17041 0.71418 0.71292 0.0
H524 H 0.07866 0.68891 0.68773 0.0
H525 H 0.04933 0.4765 0.65839 0.0
H526 H 0.98552 0.40373 0.66798 0.0
H527 H 0.05585 0.43732 0.68557 0.0
H528 H 0.9964 0.4321 0.72583 0.0
H529 H 0.92587 0.3983 0.70836 0.0
H530 H 0.94904 0.46745 0.72611 0.0
H531 H 0.97911 0.64164 0.66281 0.0
H532 H 0.88069 0.57612 0.641 0.0
H533 H 0.88659 0.41334 0.66509 0.0
C534 C 0.10416 0.55698 0.71353 0.0
C535 C 0.14813 0.61901 0.71856 0.0
C536 C 0.13808 0.66635 0.70912 0.0
C537 C 0.08582 0.65244 0.69485 0.0
C538 C 0.0437 0.59088 0.69011 0.0
C539 C 0.05231 0.54394 0.69922 0.0
C540 C 1.00046 0.48158 0.69136 0.0
C541 C 1.02423 0.44781 0.67484 0.0
C542 C 0.9659 0.44257 0.71428 0.0
C543 C 0.96125 0.50072 0.6765 0.0
C544 C 0.98685 0.56392 0.67592 0.0
C545 C 0.95864 0.59205 0.66319 0.0
C546 C 0.90276 0.55451 0.65084 0.0
C547 C 0.87569 0.48958 0.65132 0.0
C548 C 0.90579 0.46278 0.66433 0.0
H549 H 0.50115 0.38695 0.31143 0.0
H550 H 0.59311 0.35849 0.37426 0.0
H551 H 0.56312 0.41893 0.40114 0.0
H552 H 0.54924 0.5389 0.32346 0.0
H553 H 0.47987 0.53854 0.31461 0.0
H554 H 0.4979 0.48384 0.30101 0.0
H555 H 0.39425 0.39347 0.31592 0.0
H556 H 0.37496 0.44784 0.32905 0.0
H557 H 0.37323 0.38785 0.34839 0.0
H558 H 0.53877 0.49531 0.41928 0.0
H559 H 0.5078 0.57165 0.42966 0.0
H560 H 0.4293 0.55172 0.35577 0.0
C561 C 0.51189 0.39073 0.33117 0.0
C562 C 0.54763 0.36632 0.34108 0.0
C563 C 0.56412 0.3752 0.36661 0.0
C564 C 0.54782 0.41001 0.38193 0.0
C565 C 0.51516 0.436 0.37141 0.0
C566 C 0.49614 0.42589 0.34676 0.0
C567 C 0.46553 0.46323 0.33978 0.0
C568 C 0.50022 0.5088 0.31846 0.0
C569 C 0.39797 0.42054 0.33289 0.0
C570 C 0.4716 0.49673 0.36418 0.0
C571 C 0.50065 0.48039 0.38207 0.0
C572 C 0.51495 0.50763 0.40558 0.0
C573 C 0.49772 0.55153 0.41125 0.0
C574 C 0.46583 0.56764 0.39366 0.0
C575 C 0.45299 0.5399 0.36972 0.0
H576 H 0.70131 0.14845 0.9857 0.0
H577 H 0.75157 0.2694 0.04969 0.0
H578 H 0.69815 0.17938 0.07757 0.0
H579 H 0.55451 0.04913 1.00447 0.0
H580 H 0.54971 0.97884 0.99358 0.0
H581 H 0.60145 0.0509 0.97876 0.0
H582 H 0.69268 0.03301 0.98721 0.0
H583 H 0.64112 0.96006 1.00162 0.0
H584 H 0.70708 1.01669 1.01855 0.0
H585 H 0.62501 0.07978 0.09748 0.0
H586 H 0.54602 0.97381 0.10906 0.0
H587 H 0.54368 0.91437 1.03304 0.0
C588 C 0.7037 0.1556 1.0057 0.0
C589 C 0.73189 0.21584 1.01567 0.0
C590 C 0.73135 0.22363 0.0418 0.0
C591 C 0.70079 0.17275 0.05776 0.0
C592 C 0.67086 0.11412 0.04733 0.0
C593 C 0.6729 0.10496 1.02197 0.0
C594 C 0.63223 0.03737 1.01545 0.0
C595 C 0.58149 0.02858 0.99698 0.0
C596 C 0.67058 1.01018 1.0051 0.0
C597 C 0.60592 1.01051 0.04098 0.0
C598 C 0.62887 0.05577 0.05905 0.0
C599 C 0.6078 0.04364 0.08363 0.0
C600 C 0.56268 0.98357 0.09002 0.0
C601 C 0.53949 0.93609 0.07204 0.0
C602 C 0.56172 0.94974 0.04723 0.0
loop_
_geom_bond_atom_site_label_1
_geom_bond_atom_site_label_2
_geom_bond_distance
_geom_bond_site_symmetry_2
_ccdc_geom_bond_type
C0 C1 1.351 . S
C0 N3 1.368 . S
C0 H5 0.931 . S
C1 C0 1.351 . S
C1 N2 1.373 . S
C1 H29 0.930 . S
N2 C1 1.373 . S
N2 C4 1.340 . S
N3 C0 1.368 . S
N3 C4 1.321 . S
N3 Co6 2.135 . S
C4 N2 1.340 . S
C4 N3 1.321 . S
C4 H28 0.930 . S
H5 C0 0.931 . S
Co6 N3 2.135 . S
Co6 N9 2.121 . S
Co6 O14 2.055 . S
Co6 O17 2.039 . S
Co6 N20 2.140 . S
C7 O8 1.227 . S
C7 O17 1.265 . S
O8 C7 1.227 . S
N9 Co6 2.121 . S
N9 C11 1.375 . S
N9 C12 1.313 . S
C10 C11 1.338 . S
C10 N13 1.377 . S
C10 H30 0.930 . S
C11 N9 1.375 . S
C11 C10 1.338 . S
C11 H15 0.931 . S
C12 N9 1.313 . S
C12 N13 1.344 . S
C12 H16 0.930 . S
N13 C10 1.377 . S
N13 C12 1.344 . S
O14 Co6 2.055 . S
O14 C18 1.253 . S
H15 C11 0.931 . S
H16 C12 0.930 . S
O17 Co6 2.039 . S
O17 C7 1.265 . S
C18 O14 1.253 . S
C18 O19 1.227 . S
O19 C18 1.227 . S
N20 Co6 2.140 . S
N20 C23 1.346 . S
N20 C24 1.345 . S
C21 C22 1.387 . S
C21 C25 1.391 . S
C22 C21 1.387 . S
C22 C23 1.369 . S
C22 H31 0.929 . S
C23 N20 1.346 . S
C23 C22 1.369 . S
C23 H26 0.928 . S
C24 N20 1.345 . S
C24 C25 1.371 . S
C24 H27 0.931 . S
C25 C21 1.391 . S
C25 C24 1.371 . S
C25 H32 0.930 . S
H26 C23 0.928 . S
H27 C24 0.931 . S
H28 C4 0.930 . S
H29 C1 0.930 . S
H30 C10 0.930 . S
H31 C22 0.929 . S
H32 C25 0.930 . S
C33 C34 1.351 . S
C33 N36 1.368 . S
C33 H38 0.931 . S
C34 C33 1.351 . S
C34 N35 1.373 . S
C34 H62 0.930 . S
N35 C34 1.373 . S
N35 C37 1.340 . S
N36 C33 1.368 . S
N36 C37 1.321 . S
N36 Co39 2.135 . S
C37 N35 1.340 . S
C37 N36 1.321 . S
C37 H61 0.930 . S
H38 C33 0.931 . S
Co39 N36 2.135 . S
Co39 N42 2.121 . S
Co39 O47 2.055 . S
Co39 O50 2.039 . S
Co39 N53 2.140 . S
C40 O41 1.227 . S
C40 O50 1.265 . S
O41 C40 1.227 . S
N42 Co39 2.121 . S
N42 C44 1.375 . S
N42 C45 1.313 . S
C43 C44 1.338 . S
C43 N46 1.377 . S
C43 H63 0.930 . S
C44 N42 1.375 . S
C44 C43 1.338 . S
C44 H48 0.931 . S
C45 N42 1.313 . S
C45 N46 1.344 . S
C45 H49 0.930 . S
N46 C43 1.377 . S
N46 C45 1.344 . S
O47 Co39 2.055 . S
O47 C51 1.253 . S
H48 C44 0.931 . S
H49 C45 0.930 . S
O50 Co39 2.039 . S
O50 C40 1.265 . S
C51 O47 1.253 . S
C51 O52 1.227 . S
O52 C51 1.227 . S
N53 Co39 2.140 . S
N53 C56 1.346 . S
N53 C57 1.345 . S
C54 C55 1.387 . S
C54 C58 1.391 . S
C55 C54 1.387 . S
C55 C56 1.369 . S
C55 H64 0.929 . S
C56 N53 1.346 . S
C56 C55 1.369 . S
C56 H59 0.928 . S
C57 N53 1.345 . S
C57 C58 1.371 . S
C57 H60 0.931 . S
C58 C54 1.391 . S
C58 C57 1.371 . S
C58 H65 0.930 . S
H59 C56 0.928 . S
H60 C57 0.931 . S
H61 C37 0.930 . S
H62 C34 0.930 . S
H63 C43 0.930 . S
H64 C55 0.929 . S
H65 C58 0.930 . S
C66 C67 1.351 . S
C66 N69 1.368 . S
C66 H71 0.931 . S
C67 C66 1.351 . S
C67 N68 1.373 . S
C67 H95 0.930 . S
N68 C67 1.373 . S
N68 C70 1.340 . S
N69 C66 1.368 . S
N69 C70 1.321 . S
N69 Co72 2.135 . S
C70 N68 1.340 . S
C70 N69 1.321 . S
C70 H94 0.930 . S
H71 C66 0.931 . S
Co72 N69 2.135 . S
Co72 N75 2.121 . S
Co72 O80 2.055 . S
Co72 O83 2.039 . S
Co72 N86 2.140 . S
C73 O74 1.227 . S
C73 O83 1.265 . S
O74 C73 1.227 . S
N75 Co72 2.121 . S
N75 C77 1.375 . S
N75 C78 1.313 . S
C76 C77 1.338 . S
C76 N79 1.377 . S
C76 H96 0.930 . S
C77 N75 1.375 . S
C77 C76 1.338 . S
C77 H81 0.931 . S
C78 N75 1.313 . S
C78 N79 1.344 . S
C78 H82 0.930 . S
N79 C76 1.377 . S
N79 C78 1.344 . S
O80 Co72 2.055 . S
O80 C84 1.253 . S
H81 C77 0.931 . S
H82 C78 0.930 . S
O83 Co72 2.039 . S
O83 C73 1.265 . S
C84 O80 1.253 . S
C84 O85 1.227 . S
O85 C84 1.227 . S
N86 Co72 2.140 . S
N86 C89 1.346 . S
N86 C90 1.345 . S
C87 C88 1.387 . S
C87 C91 1.391 . S
C88 C87 1.387 . S
C88 C89 1.369 . S
C88 H97 0.929 . S
C89 N86 1.346 . S
C89 C88 1.369 . S
C89 H92 0.928 . S
C90 N86 1.345 . S
C90 C91 1.371 . S
C90 H93 0.931 . S
C91 C87 1.391 . S
C91 C90 1.371 . S
C91 H98 0.930 . S
H92 C89 0.928 . S
H93 C90 0.931 . S
H94 C70 0.930 . S
H95 C67 0.930 . S
H96 C76 0.930 . S
H97 C88 0.929 . S
H98 C91 0.930 . S
C99 C100 1.351 . S
C99 N102 1.368 . S
C99 H104 0.931 . S
C100 C99 1.351 . S
C100 N101 1.373 . S
C100 H128 0.930 . S
N101 C100 1.373 . S
N101 C103 1.340 . S
N102 C99 1.368 . S
N102 C103 1.321 . S
N102 Co105 2.135 . S
C103 N101 1.340 . S
C103 N102 1.321 . S
C103 H127 0.930 . S
H104 C99 0.931 . S
Co105 N102 2.135 . S
Co105 N108 2.121 . S
Co105 O113 2.055 . S
Co105 O116 2.039 . S
Co105 N119 2.140 . S
C106 O107 1.227 . S
C106 O116 1.265 . S
O107 C106 1.227 . S
N108 Co105 2.121 . S
N108 C110 1.375 . S
N108 C111 1.313 . S
C109 C110 1.338 . S
C109 N112 1.377 . S
C109 H129 0.930 . S
C110 N108 1.375 . S
C110 C109 1.338 . S
C110 H114 0.931 . S
C111 N108 1.313 . S
C111 N112 1.344 . S
C111 H115 0.930 . S
N112 C109 1.377 . S
N112 C111 1.344 . S
O113 Co105 2.055 . S
O113 C117 1.253 . S
H114 C110 0.931 . S
H115 C111 0.930 . S
O116 Co105 2.039 . S
O116 C106 1.265 . S
C117 O113 1.253 . S
C117 O118 1.227 . S
O118 C117 1.227 . S
N119 Co105 2.140 . S
N119 C122 1.346 . S
N119 C123 1.345 . S
C120 C121 1.387 . S
C120 C124 1.391 . S
C121 C120 1.387 . S
C121 C122 1.369 . S
C121 H130 0.929 . S
C122 N119 1.346 . S
C122 C121 1.369 . S
C122 H125 0.928 . S
C123 N119 1.345 . S
C123 C124 1.371 . S
C123 H126 0.931 . S
C124 C120 1.391 . S
C124 C123 1.371 . S
C124 H131 0.930 . S
H125 C122 0.928 . S
H126 C123 0.931 . S
H127 C103 0.930 . S
H128 C100 0.930 . S
H129 C109 0.930 . S
H130 C121 0.929 . S
H131 C124 0.930 . S
C132 C133 1.351 . S
C132 N135 1.368 . S
C132 H137 0.931 . S
C133 C132 1.351 . S
C133 N134 1.373 . S
C133 H161 0.930 . S
N134 C133 1.373 . S
N134 C136 1.340 . S
N135 C132 1.368 . S
N135 C136 1.321 . S
N135 Co138 2.135 . S
C136 N134 1.340 . S
C136 N135 1.321 . S
C136 H160 0.930 . S
H137 C132 0.931 . S
Co138 N135 2.135 . S
Co138 N141 2.121 . S
Co138 O146 2.055 . S
Co138 O149 2.039 . S
Co138 N152 2.140 . S
C139 O140 1.227 . S
C139 O149 1.265 . S
O140 C139 1.227 . S
N141 Co138 2.121 . S
N141 C143 1.375 . S
N141 C144 1.313 . S
C142 C143 1.338 . S
C142 N145 1.377 . S
C142 H162 0.930 . S
C143 N141 1.375 . S
C143 C142 1.338 . S
C143 H147 0.931 . S
C144 N141 1.313 . S
C144 N145 1.344 . S
C144 H148 0.930 . S
N145 C142 1.377 . S
N145 C144 1.344 . S
O146 Co138 2.055 . S
O146 C150 1.253 . S
H147 C143 0.931 . S
H148 C144 0.930 . S
O149 Co138 2.039 . S
O149 C139 1.265 . S
C150 O146 1.253 . S
C150 O151 1.227 . S
O151 C150 1.227 . S
N152 Co138 2.140 . S
N152 C155 1.346 . S
N152 C156 1.345 . S
C153 C154 1.387 . S
C153 C157 1.391 . S
C154 C153 1.387 . S
C154 C155 1.369 . S
C154 H163 0.929 . S
C155 N152 1.346 . S
C155 C154 1.369 . S
C155 H158 0.928 . S
C156 N152 1.345 . S
C156 C157 1.371 . S
C156 H159 0.931 . S
C157 C153 1.391 . S
C157 C156 1.371 . S
C157 H164 0.930 . S
H158 C155 0.928 . S
H159 C156 0.931 . S
H160 C136 0.930 . S
H161 C133 0.930 . S
H162 C142 0.930 . S
H163 C154 0.929 . S
H164 C157 0.930 . S
C165 C166 1.351 . S
C165 N168 1.368 . S
C165 H170 0.931 . S
C166 C165 1.351 . S
C166 N167 1.373 . S
C166 H194 0.930 . S
N167 C166 1.373 . S
N167 C169 1.340 . S
N168 C165 1.368 . S
N168 C169 1.321 . S
N168 Co171 2.135 . S
C169 N167 1.340 . S
C169 N168 1.321 . S
C169 H193 0.930 . S
H170 C165 0.931 . S
Co171 N168 2.135 . S
Co171 N174 2.121 . S
Co171 O179 2.055 . S
Co171 O182 2.039 . S
Co171 N185 2.140 . S
C172 O173 1.227 . S
C172 O182 1.265 . S
O173 C172 1.227 . S
N174 Co171 2.121 . S
N174 C176 1.375 . S
N174 C177 1.313 . S
C175 C176 1.338 . S
C175 N178 1.377 . S
C175 H195 0.930 . S
C176 N174 1.375 . S
C176 C175 1.338 . S
C176 H180 0.931 . S
C177 N174 1.313 . S
C177 N178 1.344 . S
C177 H181 0.930 . S
N178 C175 1.377 . S
N178 C177 1.344 . S
O179 Co171 2.055 . S
O179 C183 1.253 . S
H180 C176 0.931 . S
H181 C177 0.930 . S
O182 Co171 2.039 . S
O182 C172 1.265 . S
C183 O179 1.253 . S
C183 O184 1.227 . S
O184 C183 1.227 . S
N185 Co171 2.140 . S
N185 C188 1.346 . S
N185 C189 1.345 . S
C186 C187 1.387 . S
C186 C190 1.391 . S
C187 C186 1.387 . S
C187 C188 1.369 . S
C187 H196 0.929 . S
C188 N185 1.346 . S
C188 C187 1.369 . S
C188 H191 0.928 . S
C189 N185 1.345 . S
C189 C190 1.371 . S
C189 H192 0.931 . S
C190 C186 1.391 . S
C190 C189 1.371 . S
C190 H197 0.930 . S
H191 C188 0.928 . S
H192 C189 0.931 . S
H193 C169 0.930 . S
H194 C166 0.930 . S
H195 C175 0.930 . S
H196 C187 0.929 . S
H197 C190 0.930 . S
H198 C210 0.930 . S
H199 C212 0.930 . S
H200 C213 0.930 . S
H201 C217 0.959 . S
H202 C217 0.959 . S
H203 C217 0.961 1_545 S
H204 C218 0.960 . S
H205 C218 0.961 . S
H206 C218 0.959 . S
H207 C221 0.929 . S
H208 C222 0.931 . S
H209 C224 0.930 . S
C210 H198 0.930 . S
C210 C211 1.399 . S
C210 C215 1.399 . S
C211 C210 1.399 . S
C211 C212 1.376 . S
C212 H199 0.930 . S
C212 C211 1.376 . S
C212 C213 1.388 . S
C213 H200 0.930 . S
C213 C212 1.388 . S
C213 C214 1.390 . S
C214 C213 1.390 . S
C214 C215 1.394 . S
C214 C220 1.465 1_545 S
C215 C210 1.399 . S
C215 C214 1.394 . S
C215 C216 1.516 . S
C216 C215 1.516 . S
C216 C217 1.502 1_545 S
C216 C218 1.561 . S
C216 C219 1.526 1_545 S
C217 H201 0.959 . S
C217 H202 0.959 . S
C217 H203 0.961 1_565 S
C217 C216 1.502 1_565 S
C218 H204 0.960 . S
C218 H205 0.961 . S
C218 H206 0.959 . S
C218 C216 1.561 . S
C219 C216 1.526 1_565 S
C219 C220 1.396 . S
C219 C224 1.390 . S
C220 C214 1.465 1_565 S
C220 C219 1.396 . S
C220 C221 1.399 . S
C221 H207 0.929 . S
C221 C220 1.399 . S
C221 C222 1.385 . S
C222 H208 0.931 . S
C222 C221 1.385 . S
C222 C223 1.389 . S
C223 C222 1.389 . S
C223 C224 1.387 . S
C224 H209 0.930 . S
C224 C219 1.390 . S
C224 C223 1.387 . S
H225 C237 0.930 . S
H226 C239 0.930 . S
H227 C240 0.930 1_655 S
H228 C244 0.959 . S
H229 C244 0.959 . S
H230 C244 0.961 . S
H231 C245 0.960 . S
H232 C245 0.961 . S
H233 C245 0.959 1_655 S
H234 C248 0.929 . S
H235 C249 0.931 . S
H236 C251 0.930 . S
C237 H225 0.930 . S
C237 C238 1.399 . S
C237 C242 1.399 . S
C238 C237 1.399 . S
C238 C239 1.376 . S
C239 H226 0.930 . S
C239 C238 1.376 . S
C239 C240 1.388 . S
C240 H227 0.930 1_455 S
C240 C239 1.388 . S
C240 C241 1.390 . S
C241 C240 1.390 . S
C241 C242 1.394 . S
C241 C247 1.465 1_455 S
C242 C237 1.399 . S
C242 C241 1.394 . S
C242 C243 1.516 . S
C243 C242 1.516 . S
C243 C244 1.502 . S
C243 C245 1.561 . S
C243 C246 1.526 1_455 S
C244 H228 0.959 . S
C244 H229 0.959 . S
C244 H230 0.961 . S
C244 C243 1.502 . S
C245 H231 0.960 . S
C245 H232 0.961 . S
C245 H233 0.959 1_455 S
C245 C243 1.561 . S
C246 C243 1.526 1_655 S
C246 C247 1.396 . S
C246 C251 1.390 . S
C247 C241 1.465 1_655 S
C247 C246 1.396 . S
C247 C248 1.399 . S
C248 H234 0.929 . S
C248 C247 1.399 . S
C248 C249 1.385 . S
C249 H235 0.931 . S
C249 C248 1.385 . S
C249 C250 1.389 . S
C250 C249 1.389 . S
C250 C251 1.387 . S
C251 H236 0.930 . S
C251 C246 1.390 . S
C251 C250 1.387 . S
H252 C264 0.930 . S
H253 C266 0.930 . S
H254 C267 0.930 . S
H255 C271 0.959 . S
H256 C271 0.959 . S
H257 C271 0.961 . S
H258 C272 0.960 . S
H259 C272 0.961 . S
H260 C272 0.959 . S
H261 C275 0.929 . S
H262 C276 0.931 . S
H263 C278 0.930 . S
C264 H252 0.930 . S
C264 C265 1.399 . S
C264 C269 1.399 . S
C265 C264 1.399 . S
C265 C266 1.376 . S
C266 H253 0.930 . S
C266 C265 1.376 . S
C266 C267 1.388 . S
C267 H254 0.930 . S
C267 C266 1.388 . S
C267 C268 1.390 . S
C268 C267 1.390 . S
C268 C269 1.394 . S
C268 C274 1.465 . S
C269 C264 1.399 . S
C269 C268 1.394 . S
C269 C270 1.516 . S
C270 C269 1.516 . S
C270 C271 1.502 . S
C270 C272 1.561 . S
C270 C273 1.526 . S
C271 H255 0.959 . S
C271 H256 0.959 . S
C271 H257 0.961 . S
C271 C270 1.502 . S
C272 H258 0.960 . S
C272 H259 0.961 . S
C272 H260 0.959 . S
C272 C270 1.561 . S
C273 C270 1.526 . S
C273 C274 1.396 . S
C273 C278 1.390 . S
C274 C268 1.465 . S
C274 C273 1.396 . S
C274 C275 1.399 . S
C275 H261 0.929 . S
C275 C274 1.399 . S
C275 C276 1.385 . S
C276 H262 0.931 . S
C276 C275 1.385 . S
C276 C277 1.389 . S
C277 C276 1.389 . S
C277 C278 1.387 . S
C278 H263 0.930 . S
C278 C273 1.390 . S
C278 C277 1.387 . S
H279 C291 0.930 . S
H280 C293 0.930 . S
H281 C294 0.930 . S
H282 C298 0.959 . S
H283 C298 0.959 . S
H284 C298 0.961 . S
H285 C299 0.960 . S
H286 C299 0.961 . S
H287 C299 0.959 . S
H288 C302 0.929 . S
H289 C303 0.931 . S
H290 C305 0.930 . S
C291 H279 0.930 . S
C291 C292 1.399 . S
C291 C296 1.399 . S
C292 C291 1.399 . S
C292 C293 1.376 . S
C293 H280 0.930 . S
C293 C292 1.376 . S
C293 C294 1.388 . S
C294 H281 0.930 . S
C294 C293 1.388 . S
C294 C295 1.390 . S
C295 C294 1.390 . S
C295 C296 1.394 . S
C295 C301 1.465 . S
C296 C291 1.399 . S
C296 C295 1.394 . S
C296 C297 1.516 . S
C297 C296 1.516 . S
C297 C298 1.502 . S
C297 C299 1.561 . S
C297 C300 1.526 . S
C298 H282 0.959 . S
C298 H283 0.959 . S
C298 H284 0.961 . S
C298 C297 1.502 . S
C299 H285 0.960 . S
C299 H286 0.961 . S
C299 H287 0.959 . S
C299 C297 1.561 . S
C300 C297 1.526 . S
C300 C301 1.396 . S
C300 C305 1.390 . S
C301 C295 1.465 . S
C301 C300 1.396 . S
C301 C302 1.399 . S
C302 H288 0.929 . S
C302 C301 1.399 . S
C302 C303 1.385 . S
C303 H289 0.931 . S
C303 C302 1.385 . S
C303 C304 1.389 . S
C304 C303 1.389 . S
C304 C305 1.387 . S
C305 H290 0.930 . S
C305 C300 1.390 . S
C305 C304 1.387 . S
H306 C318 0.930 . S
H307 C320 0.930 . S
H308 C321 0.930 . S
H309 C325 0.959 . S
H310 C325 0.959 . S
H311 C325 0.961 . S
H312 C326 0.960 . S
H313 C326 0.961 . S
H314 C326 0.959 . S
H315 C329 0.929 . S
H316 C330 0.931 . S
H317 C332 0.930 . S
C318 H306 0.930 . S
C318 C319 1.399 . S
C318 C323 1.399 . S
C319 C318 1.399 . S
C319 C320 1.376 . S
C320 H307 0.930 . S
C320 C319 1.376 . S
C320 C321 1.388 . S
C321 H308 0.930 . S
C321 C320 1.388 . S
C321 C322 1.390 . S
C322 C321 1.390 . S
C322 C323 1.394 . S
C322 C328 1.465 . S
C323 C318 1.399 . S
C323 C322 1.394 . S
C323 C324 1.516 . S
C324 C323 1.516 . S
C324 C325 1.502 . S
C324 C326 1.561 . S
C324 C327 1.526 . S
C325 H309 0.959 . S
C325 H310 0.959 . S
C325 H311 0.961 . S
C325 C324 1.502 . S
C326 H312 0.960 . S
C326 H313 0.961 . S
C326 H314 0.959 . S
C326 C324 1.561 . S
C327 C324 1.526 . S
C327 C328 1.396 . S
C327 C332 1.390 . S
C328 C322 1.465 . S
C328 C327 1.396 . S
C328 C329 1.399 . S
C329 H315 0.929 . S
C329 C328 1.399 . S
C329 C330 1.385 1_565 S
C330 H316 0.931 . S
C330 C329 1.385 1_545 S
C330 C331 1.389 . S
C331 C330 1.389 . S
C331 C332 1.387 1_545 S
C332 H317 0.930 . S
C332 C327 1.390 . S
C332 C331 1.387 1_565 S
H333 C345 0.930 . S
H334 C347 0.942 . S
H335 C348 0.930 . S
H336 C352 0.959 . S
H337 C352 0.959 . S
H338 C352 0.961 . S
H339 C353 0.960 . S
H340 C353 0.961 . S
H341 C353 0.959 . S
H342 C356 0.929 . S
H343 C357 0.931 . S
H344 C359 0.930 . S
C345 H333 0.930 . S
C345 C346 1.399 1_455 S
C345 C350 1.399 . S
C346 C345 1.399 1_655 S
C346 C347 1.374 . S
C347 H334 0.942 . S
C347 C346 1.374 . S
C347 C348 1.380 1_655 S
C348 H335 0.930 . S
C348 C347 1.380 1_455 S
C348 C349 1.390 . S
C349 C348 1.390 . S
C349 C350 1.394 . S
C349 C355 1.465 . S
C350 C345 1.399 . S
C350 C349 1.394 . S
C350 C351 1.516 . S
C351 C350 1.516 . S
C351 C352 1.502 . S
C351 C353 1.561 . S
C351 C354 1.526 . S
C352 H336 0.959 . S
C352 H337 0.959 . S
C352 H338 0.961 . S
C352 C351 1.502 . S
C353 H339 0.960 . S
C353 H340 0.961 . S
C353 H341 0.959 . S
C353 C351 1.561 . S
C354 C351 1.526 . S
C354 C355 1.396 . S
C354 C359 1.390 . S
C355 C349 1.465 . S
C355 C354 1.396 . S
C355 C356 1.399 . S
C356 H342 0.929 . S
C356 C355 1.399 . S
C356 C357 1.385 . S
C357 H343 0.931 . S
C357 C356 1.385 . S
C357 C358 1.389 . S
C358 C357 1.389 . S
C358 C359 1.387 . S
C359 H344 0.930 . S
C359 C354 1.390 . S
C359 C358 1.387 . S
H360 C372 0.930 . S
H361 C374 0.930 . S
H362 C375 0.930 . S
H363 C379 0.959 . S
H364 C379 0.959 . S
H365 C379 0.961 . S
H366 C380 0.960 . S
H367 C380 0.961 . S
H368 C380 0.959 . S
H369 C383 0.929 . S
H370 C384 0.931 . S
H371 C386 0.930 . S
C372 H360 0.930 . S
C372 C373 1.399 . S
C372 C377 1.399 . S
C373 C372 1.399 . S
C373 C374 1.376 . S
C374 H361 0.930 . S
C374 C373 1.376 . S
C374 C375 1.388 . S
C375 H362 0.930 . S
C375 C374 1.388 . S
C375 C376 1.390 . S
C376 C375 1.390 . S
C376 C377 1.394 . S
C376 C382 1.465 . S
C377 C372 1.399 . S
C377 C376 1.394 . S
C377 C378 1.516 . S
C378 C377 1.516 . S
C378 C379 1.502 . S
C378 C380 1.561 . S
C378 C381 1.526 . S
C379 H363 0.959 . S
C379 H364 0.959 . S
C379 H365 0.961 . S
C379 C378 1.502 . S
C380 H366 0.960 . S
C380 H367 0.961 . S
C380 H368 0.959 . S
C380 C378 1.561 . S
C381 C378 1.526 . S
C381 C382 1.396 . S
C381 C386 1.390 . S
C382 C376 1.465 . S
C382 C381 1.396 . S
C382 C383 1.399 . S
C383 H369 0.929 . S
C383 C382 1.399 . S
C383 C384 1.385 . S
C384 H370 0.931 . S
C384 C383 1.385 . S
C384 C385 1.389 . S
C385 C384 1.389 . S
C385 C386 1.387 . S
C386 H371 0.930 . S
C386 C381 1.390 . S
C386 C385 1.387 . S
H387 C399 0.930 . S
H388 C401 0.930 . S
H389 C402 0.930 . S
H390 C406 0.959 . S
H391 C406 0.959 . S
H392 C406 0.961 . S
H393 C407 0.960 . S
H394 C407 0.961 . S
H395 C407 0.959 . S
H396 C410 0.929 . S
H397 C411 0.929 1_565 S
H398 C413 0.930 . S
C399 H387 0.930 . S
C399 C400 1.399 . S
C399 C404 1.399 . S
C400 C399 1.399 . S
C400 C401 1.376 . S
C401 H388 0.930 . S
C401 C400 1.376 . S
C401 C402 1.388 . S
C402 H389 0.930 . S
C402 C401 1.388 . S
C402 C403 1.390 . S
C403 C402 1.390 . S
C403 C404 1.394 . S
C403 C409 1.465 . S
C404 C399 1.399 . S
C404 C403 1.394 . S
C404 C405 1.516 . S
C405 C404 1.516 . S
C405 C406 1.502 . S
C405 C407 1.561 . S
C405 C408 1.526 . S
C406 H390 0.959 . S
C406 H391 0.959 . S
C406 H392 0.961 . S
C406 C405 1.502 . S
C407 H393 0.960 . S
C407 H394 0.961 . S
C407 H395 0.959 . S
C407 C405 1.561 . S
C408 C405 1.526 . S
C408 C409 1.396 . S
C408 C413 1.390 . S
C409 C403 1.465 . S
C409 C408 1.396 . S
C409 C410 1.399 . S
C410 H396 0.929 . S
C410 C409 1.399 . S
C410 C411 1.387 . S
C411 H397 0.929 1_545 S
C411 C410 1.387 . S
C411 C412 1.390 1_545 S
C412 C411 1.390 1_565 S
C412 C413 1.387 1_565 S
C413 H398 0.930 . S
C413 C408 1.390 . S
C413 C412 1.387 1_545 S
H414 C426 0.930 . S
H415 C428 0.922 1_455 S
H416 C429 0.930 . S
H417 C433 0.959 . S
H418 C433 0.959 . S
H419 C433 0.961 . S
H420 C434 0.960 . S
H421 C434 0.961 . S
H422 C434 0.959 . S
H423 C437 0.929 . S
H424 C438 0.931 . S
H425 C440 0.930 . S
C426 H414 0.930 . S
C426 C427 1.399 1_655 S
C426 C431 1.399 . S
C427 C426 1.399 1_455 S
C427 C428 1.376 1_455 S
C428 H415 0.922 1_655 S
C428 C427 1.376 1_655 S
C428 C429 1.388 . S
C429 H416 0.930 . S
C429 C428 1.388 . S
C429 C430 1.390 . S
C430 C429 1.390 . S
C430 C431 1.394 . S
C430 C436 1.465 . S
C431 C426 1.399 . S
C431 C430 1.394 . S
C431 C432 1.516 . S
C432 C431 1.516 . S
C432 C433 1.502 . S
C432 C434 1.561 . S
C432 C435 1.526 . S
C433 H417 0.959 . S
C433 H418 0.959 . S
C433 H419 0.961 . S
C433 C432 1.502 . S
C434 H420 0.960 . S
C434 H421 0.961 . S
C434 H422 0.959 . S
C434 C432 1.561 . S
C435 C432 1.526 . S
C435 C436 1.396 . S
C435 C440 1.390 . S
C436 C430 1.465 . S
C436 C435 1.396 . S
C436 C437 1.399 . S
C437 H423 0.929 . S
C437 C436 1.399 . S
C437 C438 1.385 . S
C438 H424 0.931 . S
C438 C437 1.385 . S
C438 C439 1.389 . S
C439 C438 1.389 . S
C439 C440 1.387 . S
C440 H425 0.930 . S
C440 C435 1.390 . S
C440 C439 1.387 . S
H441 C453 0.930 . S
H442 C455 0.930 . S
H443 C456 0.930 . S
H444 C460 0.959 . S
H445 C460 0.959 . S
H446 C460 0.961 . S
H447 C461 0.960 . S
H448 C461 0.961 . S
H449 C461 0.959 . S
H450 C464 0.929 . S
H451 C465 0.931 . S
H452 C467 0.930 . S
C453 H441 0.930 . S
C453 C454 1.399 . S
C453 C458 1.399 . S
C454 C453 1.399 . S
C454 C455 1.376 . S
C455 H442 0.930 . S
C455 C454 1.376 . S
C455 C456 1.388 1_565 S
C456 H443 0.930 . S
C456 C455 1.388 1_545 S
C456 C457 1.390 . S
C457 C456 1.390 . S
C457 C458 1.394 1_545 S
C457 C463 1.465 . S
C458 C453 1.399 . S
C458 C457 1.394 1_565 S
C458 C459 1.516 . S
C459 C458 1.516 . S
C459 C460 1.502 . S
C459 C461 1.561 . S
C459 C462 1.526 1_565 S
C460 H444 0.959 . S
C460 H445 0.959 . S
C460 H446 0.961 . S
C460 C459 1.502 . S
C461 H447 0.960 . S
C461 H448 0.961 . S
C461 H449 0.959 . S
C461 C459 1.561 . S
C462 C459 1.526 1_545 S
C462 C463 1.396 . S
C462 C467 1.390 . S
C463 C457 1.465 . S
C463 C462 1.396 . S
C463 C464 1.399 . S
C464 H450 0.929 . S
C464 C463 1.399 . S
C464 C465 1.385 . S
C465 H451 0.931 . S
C465 C464 1.385 . S
C465 C466 1.389 . S
C466 C465 1.389 . S
C466 C467 1.387 . S
C467 H452 0.930 . S
C467 C462 1.390 . S
C467 C466 1.387 . S
H468 C480 0.930 . S
H469 C482 0.930 . S
H470 C483 0.930 1_455 S
H471 C487 0.959 . S
H472 C487 0.959 . S
H473 C487 0.961 . S
H474 C488 0.960 . S
H475 C488 0.961 . S
H476 C488 0.959 . S
H477 C491 0.929 1_556 S
H478 C492 0.931 . S
H479 C494 0.930 1_655 S
C480 H468 0.930 . S
C480 C481 1.399 . S
C480 C485 1.399 . S
C481 C480 1.399 . S
C481 C482 1.376 . S
C482 H469 0.930 . S
C482 C481 1.376 . S
C482 C483 1.388 . S
C483 H470 0.930 1_655 S
C483 C482 1.388 . S
C483 C484 1.390 . S
C484 C483 1.390 . S
C484 C485 1.394 . S
C484 C490 1.465 1_656 S
C485 C480 1.399 . S
C485 C484 1.394 . S
C485 C486 1.516 1_556 S
C486 C485 1.516 1_554 S
C486 C487 1.502 . S
C486 C488 1.561 . S
C486 C489 1.526 . S
C487 H471 0.959 . S
C487 H472 0.959 . S
C487 H473 0.961 . S
C487 C486 1.502 . S
C488 H474 0.960 . S
C488 H475 0.961 . S
C488 H476 0.959 . S
C488 C486 1.561 . S
C489 C486 1.526 . S
C489 C490 1.396 1_655 S
C489 C494 1.390 1_655 S
C490 C484 1.465 1_454 S
C490 C489 1.396 1_455 S
C490 C491 1.399 . S
C491 H477 0.929 1_554 S
C491 C490 1.399 . S
C491 C492 1.385 . S
C492 H478 0.931 . S
C492 C491 1.385 . S
C492 C493 1.389 . S
C493 C492 1.389 . S
C493 C494 1.387 . S
C494 H479 0.930 1_455 S
C494 C489 1.390 1_455 S
C494 C493 1.387 . S
H495 C507 0.930 . S
H496 C509 0.930 . S
H497 C510 0.930 . S
H498 C514 0.959 . S
H499 C514 0.959 . S
H500 C514 0.961 . S
H501 C515 0.960 . S
H502 C515 0.961 . S
H503 C515 0.959 . S
H504 C518 0.929 . S
H505 C519 0.931 . S
H506 C521 0.930 . S
C507 H495 0.930 . S
C507 C508 1.399 . S
C507 C512 1.399 . S
C508 C507 1.399 . S
C508 C509 1.376 . S
C509 H496 0.930 . S
C509 C508 1.376 . S
C509 C510 1.388 . S
C510 H497 0.930 . S
C510 C509 1.388 . S
C510 C511 1.390 . S
C511 C510 1.390 . S
C511 C512 1.394 . S
C511 C517 1.465 . S
C512 C507 1.399 . S
C512 C511 1.394 . S
C512 C513 1.516 . S
C513 C512 1.516 . S
C513 C514 1.502 . S
C513 C515 1.561 . S
C513 C516 1.526 . S
C514 H498 0.959 . S
C514 H499 0.959 . S
C514 H500 0.961 . S
C514 C513 1.502 . S
C515 H501 0.960 . S
C515 H502 0.961 . S
C515 H503 0.959 . S
C515 C513 1.561 . S
C516 C513 1.526 . S
C516 C517 1.396 . S
C516 C521 1.390 . S
C517 C511 1.465 . S
C517 C516 1.396 . S
C517 C518 1.399 . S
C518 H504 0.929 . S
C518 C517 1.399 . S
C518 C519 1.385 . S
C519 H505 0.931 . S
C519 C518 1.385 . S
C519 C520 1.389 . S
C520 C519 1.389 . S
C520 C521 1.387 . S
C521 H506 0.930 . S
C521 C516 1.390 . S
C521 C520 1.387 . S
H522 C534 0.930 . S
H523 C536 0.930 . S
H524 C537 0.930 . S
H525 C541 0.959 . S
H526 C541 0.959 1_655 S
H527 C541 0.961 . S
H528 C542 0.960 . S
H529 C542 0.961 . S
H530 C542 0.959 . S
H531 C545 0.929 . S
H532 C546 0.931 . S
H533 C548 0.930 . S
C534 H522 0.930 . S
C534 C535 1.399 . S
C534 C539 1.399 . S
C535 C534 1.399 . S
C535 C536 1.376 . S
C536 H523 0.930 . S
C536 C535 1.376 . S
C536 C537 1.388 . S
C537 H524 0.930 . S
C537 C536 1.388 . S
C537 C538 1.390 . S
C538 C537 1.390 . S
C538 C539 1.394 . S
C538 C544 1.465 . S
C539 C534 1.399 . S
C539 C538 1.394 . S
C539 C540 1.504 1_455 S
C540 C539 1.504 1_655 S
C540 C541 1.492 1_655 S
C540 C542 1.572 . S
C540 C543 1.539 . S
C541 H525 0.959 . S
C541 H526 0.959 1_455 S
C541 H527 0.961 . S
C541 C540 1.492 1_455 S
C542 H528 0.960 . S
C542 H529 0.961 . S
C542 H530 0.959 . S
C542 C540 1.572 . S
C543 C540 1.539 . S
C543 C544 1.396 1_655 S
C543 C548 1.390 . S
C544 C538 1.465 . S
C544 C543 1.396 1_455 S
C544 C545 1.399 . S
C545 H531 0.929 . S
C545 C544 1.399 . S
C545 C546 1.385 1_455 S
C546 H532 0.931 . S
C546 C545 1.385 1_655 S
C546 C547 1.389 . S
C547 C546 1.389 . S
C547 C548 1.387 . S
C548 H533 0.930 . S
C548 C543 1.390 . S
C548 C547 1.387 . S
H549 C561 0.930 . S
H550 C563 0.930 . S
H551 C564 0.930 . S
H552 C568 0.959 . S
H553 C568 0.959 . S
H554 C568 0.961 . S
H555 C569 0.960 . S
H556 C569 0.961 . S
H557 C569 0.959 . S
H558 C572 0.929 . S
H559 C573 0.931 . S
H560 C575 0.930 . S
C561 H549 0.930 . S
C561 C562 1.399 . S
C561 C566 1.399 . S
C562 C561 1.399 . S
C562 C563 1.376 . S
C563 H550 0.930 . S
C563 C562 1.376 . S
C563 C564 1.388 . S
C564 H551 0.930 . S
C564 C563 1.388 . S
C564 C565 1.390 . S
C565 C564 1.390 . S
C565 C566 1.394 . S
C565 C571 1.465 . S
C566 C561 1.399 . S
C566 C565 1.394 . S
C566 C567 1.516 . S
C567 C566 1.516 . S
C567 C568 1.502 . S
C567 C569 1.561 . S
C567 C570 1.526 . S
C568 H552 0.959 . S
C568 H553 0.959 . S
C568 H554 0.961 . S
C568 C567 1.502 . S
C569 H555 0.960 . S
C569 H556 0.961 . S
C569 H557 0.959 . S
C569 C567 1.561 . S
C570 C567 1.526 . S
C570 C571 1.396 . S
C570 C575 1.390 . S
C571 C565 1.465 . S
C571 C570 1.396 . S
C571 C572 1.399 . S
C572 H558 0.929 . S
C572 C571 1.399 . S
C572 C573 1.385 . S
C573 H559 0.931 . S
C573 C572 1.385 . S
C573 C574 1.389 . S
C574 C573 1.389 . S
C574 C575 1.387 . S
C575 H560 0.930 . S
C575 C570 1.390 . S
C575 C574 1.387 . S
H576 C588 0.930 1_565 S
H577 C590 0.930 . S
H578 C591 0.947 . S
H579 C595 0.959 . S
H580 C595 0.959 . S
H581 C595 0.961 . S
H582 C596 0.960 . S
H583 C596 0.961 . S
H584 C596 0.959 . S
H585 C599 0.929 1_545 S
H586 C600 0.931 . S
H587 C602 0.930 . S
C588 H576 0.930 1_545 S
C588 C589 1.399 . S
C588 C593 1.399 1_545 S
C589 C588 1.399 . S
C589 C590 1.376 . S
C590 H577 0.930 . S
C590 C589 1.376 . S
C590 C591 1.373 1_556 S
C591 H578 0.947 . S
C591 C590 1.373 1_554 S
C591 C592 1.388 1_554 S
C592 C591 1.388 1_556 S
C592 C593 1.394 1_545 S
C592 C598 1.465 1_546 S
C593 C588 1.399 1_565 S
C593 C592 1.394 1_565 S
C593 C594 1.516 . S
C594 C593 1.516 . S
C594 C595 1.502 . S
C594 C596 1.561 . S
C594 C597 1.526 1_556 S
C595 H579 0.959 . S
C595 H580 0.959 . S
C595 H581 0.961 . S
C595 C594 1.502 . S
C596 H582 0.960 . S
C596 H583 0.961 . S
C596 H584 0.959 . S
C596 C594 1.561 . S
C597 C594 1.526 1_554 S
C597 C598 1.396 . S
C597 C602 1.390 . S
C598 C592 1.465 1_564 S
C598 C597 1.396 . S
C598 C599 1.399 . S
C599 H585 0.929 1_565 S
C599 C598 1.399 . S
C599 C600 1.385 . S
C600 H586 0.931 . S
C600 C599 1.385 . S
C600 C601 1.389 . S
C601 C600 1.389 . S
C601 C602 1.387 . S
C602 H587 0.930 . S
C602 C597 1.390 . S
C602 C601 1.387 . S
C211 C7 1.477 . S
C223 C172 1.478 . S
C238 C106 1.519 . S
C250 C40 1.512 . S
C265 C139 1.532 . S
C277 C73 1.534 . S
C292 C186 1.118 . S
C304 N13 1.094 . S
C319 C120 1.124 . S
C331 N46 1.093 . S
C346 N79 1.092 . S
C358 C153 1.123 . S
C373 C54 1.131 . S
C385 N112 1.145 . S
C400 C87 1.118 . S
C412 N145 1.094 . S
C427 N178 1.151 . S
C439 C21 1.138 . S
C454 C150 1.627 . S
C466 N2 1.573 . S
C481 N35 1.592 . S
C493 C183 1.632 . S
C508 C117 1.635 . S
C520 N68 1.598 . S
C535 N101 1.616 . S
C547 C84 1.648 . S
C562 C18 1.648 . S
C574 N134 1.620 . S
C589 C51 1.645 . S
C601 N167 1.615 . S
