# Generated by pormake.
# Topology lta, (4)-cn, num edge types: 1
# Building blocks:
#     Node 0, Type 0, BuildingBlock: QUQFOY_clean_sbu_1, # of connection points: 4
#     Node 1, Type 0, BuildingBlock: QUQFOY_clean_sbu_1, # of connection points: 4
#     Node 2, Type 0, BuildingBlock: QUQFOY_clean_sbu_1, # of connection points: 4
#     Node 3, Type 0, BuildingBlock: QUQFOY_clean_sbu_1, # of connection points: 4
#     Node 4, Type 0, BuildingBlock: QUQFOY_clean_sbu_1, # of connection points: 4
#     Node 5, Type 0, BuildingBlock: QUQFOY_clean_sbu_1, # of connection points: 4
#     Node 6, Type 0, BuildingBlock: QUQFOY_clean_sbu_1, # of connection points: 4
#     Node 7, Type 0, BuildingBlock: QUQFOY_clean_sbu_1, # of connection points: 4
#     Node 8, Type 0, BuildingBlock: QUQFOY_clean_sbu_1, # of connection points: 4
#     Node 9, Type 0, BuildingBlock: QUQFOY_clean_sbu_1, # of connection points: 4
#     Node 10, Type 0, BuildingBlock: QUQFOY_clean_sbu_1, # of connection points: 4
#     Node 11, Type 0, BuildingBlock: QUQFOY_clean_sbu_1, # of connection points: 4
#     Node 12, Type 0, BuildingBlock: QUQFOY_clean_sbu_1, # of connection points: 4
#     Node 13, Type 0, BuildingBlock: QUQFOY_clean_sbu_1, # of connection points: 4
#     Node 14, Type 0, BuildingBlock: QUQFOY_clean_sbu_1, # of connection points: 4
#     Node 15, Type 0, BuildingBlock: QUQFOY_clean_sbu_1, # of connection points: 4
#     Node 16, Type 0, BuildingBlock: QUQFOY_clean_sbu_1, # of connection points: 4
#     Node 17, Type 0, BuildingBlock: QUQFOY_clean_sbu_1, # of connection points: 4
#     Node 18, Type 0, BuildingBlock: QUQFOY_clean_sbu_1, # of connection points: 4
#     Node 19, Type 0, BuildingBlock: QUQFOY_clean_sbu_1, # of connection points: 4
#     Node 20, Type 0, BuildingBlock: QUQFOY_clean_sbu_1, # of connection points: 4
#     Node 21, Type 0, BuildingBlock: QUQFOY_clean_sbu_1, # of connection points: 4
#     Node 22, Type 0, BuildingBlock: QUQFOY_clean_sbu_1, # of connection points: 4
#     Node 23, Type 0, BuildingBlock: QUQFOY_clean_sbu_1, # of connection points: 4
#     Edge 24, Type (0, 0), BuildingBlock: EZIPEK_clean_linker_0, # of connection points: 2
#     Edge 25, Type (0, 0), BuildingBlock: EZIPEK_clean_linker_0, # of connection points: 2
#     Edge 26, Type (0, 0), BuildingBlock: EZIPEK_clean_linker_0, # of connection points: 2
#     Edge 27, Type (0, 0), BuildingBlock: EZIPEK_clean_linker_0, # of connection points: 2
#     Edge 28, Type (0, 0), BuildingBlock: EZIPEK_clean_linker_0, # of connection points: 2
#     Edge 29, Type (0, 0), BuildingBlock: EZIPEK_clean_linker_0, # of connection points: 2
#     Edge 30, Type (0, 0), BuildingBlock: EZIPEK_clean_linker_0, # of connection points: 2
#     Edge 31, Type (0, 0), BuildingBlock: EZIPEK_clean_linker_0, # of connection points: 2
#     Edge 32, Type (0, 0), BuildingBlock: EZIPEK_clean_linker_0, # of connection points: 2
#     Edge 33, Type (0, 0), BuildingBlock: EZIPEK_clean_linker_0, # of connection points: 2
#     Edge 34, Type (0, 0), BuildingBlock: EZIPEK_clean_linker_0, # of connection points: 2
#     Edge 35, Type (0, 0), BuildingBlock: EZIPEK_clean_linker_0, # of connection points: 2
#     Edge 36, Type (0, 0), BuildingBlock: EZIPEK_clean_linker_0, # of connection points: 2
#     Edge 37, Type (0, 0), BuildingBlock: EZIPEK_clean_linker_0, # of connection points: 2
#     Edge 38, Type (0, 0), BuildingBlock: EZIPEK_clean_linker_0, # of connection points: 2
#     Edge 39, Type (0, 0), BuildingBlock: EZIPEK_clean_linker_0, # of connection points: 2
#     Edge 40, Type (0, 0), BuildingBlock: EZIPEK_clean_linker_0, # of connection points: 2
#     Edge 41, Type (0, 0), BuildingBlock: EZIPEK_clean_linker_0, # of connection points: 2
#     Edge 42, Type (0, 0), BuildingBlock: EZIPEK_clean_linker_0, # of connection points: 2
#     Edge 43, Type (0, 0), BuildingBlock: EZIPEK_clean_linker_0, # of connection points: 2
#     Edge 44, Type (0, 0), BuildingBlock: EZIPEK_clean_linker_0, # of connection points: 2
#     Edge 45, Type (0, 0), BuildingBlock: EZIPEK_clean_linker_0, # of connection points: 2
#     Edge 46, Type (0, 0), BuildingBlock: EZIPEK_clean_linker_0, # of connection points: 2
#     Edge 47, Type (0, 0), BuildingBlock: EZIPEK_clean_linker_0, # of connection points: 2
#     Edge 48, Type (0, 0), BuildingBlock: EZIPEK_clean_linker_0, # of connection points: 2
#     Edge 49, Type (0, 0), BuildingBlock: EZIPEK_clean_linker_0, # of connection points: 2
#     Edge 50, Type (0, 0), BuildingBlock: EZIPEK_clean_linker_0, # of connection points: 2
#     Edge 51, Type (0, 0), BuildingBlock: EZIPEK_clean_linker_0, # of connection points: 2
#     Edge 52, Type (0, 0), BuildingBlock: EZIPEK_clean_linker_0, # of connection points: 2
#     Edge 53, Type (0, 0), BuildingBlock: EZIPEK_clean_linker_0, # of connection points: 2
#     Edge 54, Type (0, 0), BuildingBlock: EZIPEK_clean_linker_0, # of connection points: 2
#     Edge 55, Type (0, 0), BuildingBlock: EZIPEK_clean_linker_0, # of connection points: 2
#     Edge 56, Type (0, 0), BuildingBlock: EZIPEK_clean_linker_0, # of connection points: 2
#     Edge 57, Type (0, 0), BuildingBlock: EZIPEK_clean_linker_0, # of connection points: 2
#     Edge 58, Type (0, 0), BuildingBlock: EZIPEK_clean_linker_0, # of connection points: 2
#     Edge 59, Type (0, 0), BuildingBlock: EZIPEK_clean_linker_0, # of connection points: 2
#     Edge 60, Type (0, 0), BuildingBlock: EZIPEK_clean_linker_0, # of connection points: 2
#     Edge 61, Type (0, 0), BuildingBlock: EZIPEK_clean_linker_0, # of connection points: 2
#     Edge 62, Type (0, 0), BuildingBlock: EZIPEK_clean_linker_0, # of connection points: 2
#     Edge 63, Type (0, 0), BuildingBlock: EZIPEK_clean_linker_0, # of connection points: 2
#     Edge 64, Type (0, 0), BuildingBlock: EZIPEK_clean_linker_0, # of connection points: 2
#     Edge 65, Type (0, 0), BuildingBlock: EZIPEK_clean_linker_0, # of connection points: 2
#     Edge 66, Type (0, 0), BuildingBlock: EZIPEK_clean_linker_0, # of connection points: 2
#     Edge 67, Type (0, 0), BuildingBlock: EZIPEK_clean_linker_0, # of connection points: 2
#     Edge 68, Type (0, 0), BuildingBlock: EZIPEK_clean_linker_0, # of connection points: 2
#     Edge 69, Type (0, 0), BuildingBlock: EZIPEK_clean_linker_0, # of connection points: 2
#     Edge 70, Type (0, 0), BuildingBlock: EZIPEK_clean_linker_0, # of connection points: 2
#     Edge 71, Type (0, 0), BuildingBlock: EZIPEK_clean_linker_0, # of connection points: 2
# Relax obj value: 0.321
# Max RMSD: 0.229
# Mean RMSD: 0.229
data_MOF--net-lta--node1-QUQFOY_clean_sbu_1--edge1-EZIPEK_clean_linker_0
_symmetry_space_group_name_H-M    P1
_symmetry_Int_Tables_number       1
_symmetry_cell_setting            triclinic
loop_
_symmetry_equiv_pos_as_xyz
'x, y, z'
_cell_length_a     43.702305
_cell_length_b     43.714032
_cell_length_c     43.694771
_cell_angle_alpha  90.009853
_cell_angle_beta   89.994447
_cell_angle_gamma 90.013777
loop_
_atom_site_label
_atom_site_type_symbol
_atom_site_fract_x
_atom_site_fract_y
_atom_site_fract_z
_atom_type_partial_charge
O0 O 0.13885 0.32072 0.57113 0.0
Cd1 Cd 0.12825 0.28834 0.5384 0.0
Cd2 Cd 0.11888 0.33693 0.5011 0.0
O3 O 0.13038 0.36008 0.54056 0.0
O4 O 0.15054 0.24968 0.54689 0.0
O5 O 0.15886 0.27865 0.50586 0.0
C6 C 0.16511 0.2544 0.52161 0.0
C7 C 0.13555 0.35763 0.45487 0.0
C8 C 0.13732 0.3494 0.56669 0.0
C9 C 0.06553 0.2945 0.51314 0.0
O10 O 0.07599 0.31768 0.49915 0.0
O11 O 0.08258 0.27868 0.53057 0.0
O12 O 0.11455 0.37056 0.47088 0.0
O13 O 0.14793 0.33291 0.46518 0.0
O14 O 0.67894 0.13596 0.5724 0.0
Cd15 Cd 0.71053 0.12744 0.53835 0.0
Cd16 Cd 0.6612 0.11996 0.50136 0.0
O17 O 0.63924 0.13274 0.54117 0.0
O18 O 0.74972 0.14912 0.54601 0.0
O19 O 0.71817 0.16058 0.50788 0.0
C20 C 0.74352 0.16566 0.5223 0.0
C21 C 0.64004 0.13609 0.45513 0.0
C22 C 0.65026 0.1371 0.56773 0.0
C23 C 0.70301 0.06565 0.51142 0.0
O24 O 0.67894 0.0764 0.49928 0.0
O25 O 0.72018 0.08243 0.52778 0.0
O26 O 0.62669 0.1161 0.47205 0.0
O27 O 0.66535 0.14796 0.46463 0.0
O28 O 0.8671 0.68428 0.56689 0.0
Cd29 Cd 0.87434 0.71563 0.53241 0.0
Cd30 Cd 0.8829 0.66559 0.49501 0.0
O31 O 0.87242 0.64451 0.53601 0.0
O32 O 0.85179 0.75425 0.54009 0.0
O33 O 0.84043 0.72206 0.50246 0.0
C34 C 0.83488 0.74734 0.51684 0.0
C35 C 0.86956 0.63625 0.45186 0.0
C36 C 0.86736 0.65555 0.56243 0.0
C37 C 0.93569 0.71022 0.50408 0.0
O38 O 0.9251 0.68639 0.4913 0.0
O39 O 0.91897 0.72639 0.52147 0.0
O40 O 0.89225 0.62944 0.46924 0.0
O41 O 0.85386 0.66024 0.4588 0.0
O42 O 0.31943 0.864 0.56928 0.0
Cd43 Cd 0.28683 0.87335 0.53639 0.0
Cd44 Cd 0.33553 0.88211 0.4987 0.0
O45 O 0.35868 0.86922 0.53777 0.0
O46 O 0.24847 0.85054 0.54497 0.0
O47 O 0.27789 0.8421 0.50426 0.0
C48 C 0.25359 0.83573 0.5199 0.0
C49 C 0.35628 0.86718 0.45186 0.0
C50 C 0.34808 0.86375 0.56429 0.0
C51 C 0.29311 0.93575 0.51091 0.0
O52 O 0.3168 0.92528 0.49777 0.0
O53 O 0.27659 0.91865 0.52762 0.0
O54 O 0.36927 0.88744 0.46873 0.0
O55 O 0.33152 0.85444 0.46168 0.0
O56 O 0.13807 0.67973 0.42936 0.0
Cd57 Cd 0.12804 0.71292 0.46148 0.0
Cd58 Cd 0.1177 0.66485 0.49981 0.0
O59 O 0.13047 0.64108 0.4611 0.0
O60 O 0.15121 0.75102 0.45276 0.0
O61 O 0.15851 0.72238 0.49422 0.0
C62 C 0.16534 0.74637 0.4783 0.0
C63 C 0.13249 0.64397 0.54667 0.0
C64 C 0.13721 0.65115 0.43467 0.0
C65 C 0.06503 0.70807 0.48602 0.0
O66 O 0.07496 0.68471 0.50015 0.0
O67 O 0.08262 0.7237 0.46896 0.0
O68 O 0.11166 0.63149 0.5301 0.0
O69 O 0.14565 0.66843 0.53668 0.0
O70 O 0.31947 0.13613 0.43223 0.0
Cd71 Cd 0.28703 0.12708 0.46536 0.0
Cd72 Cd 0.33597 0.11867 0.50293 0.0
O73 O 0.35886 0.13122 0.46361 0.0
O74 O 0.24859 0.14957 0.45639 0.0
O75 O 0.27789 0.15872 0.49704 0.0
C76 C 0.25359 0.16475 0.48126 0.0
C77 C 0.35713 0.1343 0.54935 0.0
C78 C 0.34814 0.13648 0.4371 0.0
C79 C 0.29343 0.06492 0.49148 0.0
O80 O 0.31719 0.07548 0.50443 0.0
O81 O 0.27687 0.08189 0.47468 0.0
O82 O 0.36998 0.1138 0.53267 0.0
O83 O 0.33223 0.14682 0.53962 0.0
O84 O 0.86702 0.31327 0.42983 0.0
Cd85 Cd 0.87471 0.28435 0.46632 0.0
Cd86 Cd 0.88227 0.33645 0.49934 0.0
O87 O 0.86868 0.35521 0.45813 0.0
O88 O 0.85289 0.24495 0.46051 0.0
O89 O 0.84051 0.27895 0.49616 0.0
C90 C 0.8355 0.25289 0.48306 0.0
C91 C 0.86635 0.35994 0.54454 0.0
C92 C 0.86503 0.34216 0.43237 0.0
C93 C 0.93647 0.29378 0.49268 0.0
O94 O 0.92599 0.31912 0.50219 0.0
O95 O 0.91944 0.27508 0.47838 0.0
O96 O 0.88577 0.37274 0.52655 0.0
O97 O 0.85479 0.33396 0.5366 0.0
O98 O 0.6784 0.86581 0.43086 0.0
Cd99 Cd 0.71036 0.87456 0.46448 0.0
Cd100 Cd 0.66134 0.88245 0.50187 0.0
O101 O 0.63898 0.86919 0.46244 0.0
O102 O 0.7494 0.85282 0.45631 0.0
O103 O 0.71828 0.84129 0.49476 0.0
C104 C 0.74339 0.83613 0.47996 0.0
C105 C 0.64061 0.86723 0.5486 0.0
C106 C 0.64975 0.86463 0.43581 0.0
C107 C 0.70317 0.93659 0.49094 0.0
O108 O 0.67913 0.92597 0.50324 0.0
O109 O 0.72028 0.91964 0.47469 0.0
O110 O 0.62721 0.88702 0.5315 0.0
O111 O 0.6657 0.855 0.539 0.0
O112 O 0.56879 0.13777 0.32225 0.0
Cd113 Cd 0.53644 0.12769 0.2893 0.0
Cd114 Cd 0.49812 0.11884 0.33796 0.0
O115 O 0.5371 0.13169 0.36122 0.0
O116 O 0.54605 0.14978 0.25076 0.0
O117 O 0.50461 0.15883 0.27891 0.0
C118 C 0.52093 0.16476 0.25494 0.0
C119 C 0.45148 0.13366 0.35923 0.0
C120 C 0.56359 0.1377 0.35087 0.0
C121 C 0.51083 0.06521 0.2956 0.0
O122 O 0.49714 0.07578 0.31893 0.0
O123 O 0.52801 0.08221 0.27945 0.0
O124 O 0.46836 0.11319 0.37184 0.0
O125 O 0.4611 0.14658 0.33449 0.0
O126 O 0.87352 0.56231 0.32298 0.0
Cd127 Cd 0.87727 0.53247 0.28649 0.0
Cd128 Cd 0.87819 0.48842 0.32977 0.0
O129 O 0.85976 0.52487 0.35368 0.0
O130 O 0.85354 0.54308 0.24913 0.0
O131 O 0.84272 0.50363 0.27928 0.0
C132 C 0.83685 0.51931 0.25487 0.0
C133 C 0.86491 0.44064 0.34974 0.0
C134 C 0.86418 0.55321 0.34898 0.0
C135 C 0.93629 0.50247 0.29313 0.0
O136 O 0.9237 0.48983 0.31609 0.0
O137 O 0.92086 0.51939 0.27533 0.0
O138 O 0.88277 0.459 0.36406 0.0
O139 O 0.85384 0.44921 0.32376 0.0
O140 O 0.42894 0.8665 0.31958 0.0
Cd141 Cd 0.46337 0.87437 0.28818 0.0
Cd142 Cd 0.49986 0.88204 0.33761 0.0
O143 O 0.46004 0.86913 0.35942 0.0
O144 O 0.49358 0.84072 0.28181 0.0
O145 O 0.45627 0.85195 0.24926 0.0
C146 C 0.47958 0.8352 0.25632 0.0
C147 C 0.54608 0.86601 0.35876 0.0
C148 C 0.43348 0.86509 0.34829 0.0
C149 C 0.49045 0.93616 0.29547 0.0
O150 O 0.50197 0.92561 0.31994 0.0
O151 O 0.47455 0.91919 0.27804 0.0
O152 O 0.5291 0.88592 0.37214 0.0
O153 O 0.53664 0.85413 0.33344 0.0
O154 O 0.1401 0.4293 0.32238 0.0
Cd155 Cd 0.12955 0.46178 0.28975 0.0
Cd156 Cd 0.12021 0.49945 0.33841 0.0
O157 O 0.13344 0.46058 0.36157 0.0
O158 O 0.15173 0.45298 0.25104 0.0
O159 O 0.16016 0.49423 0.27966 0.0
C160 C 0.16633 0.47828 0.2555 0.0
C161 C 0.13534 0.54634 0.3589 0.0
C162 C 0.13977 0.43425 0.35104 0.0
C163 C 0.0665 0.48589 0.29665 0.0
O164 O 0.07689 0.49972 0.31999 0.0
O165 O 0.08383 0.46929 0.28024 0.0
O166 O 0.11523 0.5295 0.37216 0.0
O167 O 0.14773 0.53652 0.33396 0.0
O168 O 0.56874 0.86655 0.68134 0.0
Cd169 Cd 0.53462 0.87438 0.71308 0.0
Cd170 Cd 0.49765 0.88242 0.66369 0.0
O171 O 0.53742 0.86964 0.64169 0.0
O172 O 0.54273 0.85243 0.75204 0.0
O173 O 0.50474 0.8406 0.72049 0.0
C174 C 0.51934 0.83549 0.74573 0.0
C175 C 0.45151 0.86666 0.64204 0.0
C176 C 0.56401 0.86538 0.65266 0.0
C177 C 0.5075 0.9362 0.70632 0.0
O178 O 0.49565 0.9258 0.68194 0.0
O179 O 0.52363 0.91915 0.72343 0.0
O180 O 0.46849 0.88688 0.62912 0.0
O181 O 0.46084 0.85442 0.66723 0.0
O182 O 0.13665 0.5714 0.67896 0.0
Cd183 Cd 0.12766 0.53836 0.71159 0.0
Cd184 Cd 0.1193 0.50078 0.66279 0.0
O185 O 0.13193 0.53988 0.63966 0.0
O186 O 0.15005 0.54754 0.75009 0.0
O187 O 0.15936 0.50679 0.72104 0.0
C188 C 0.16528 0.52267 0.7453 0.0
C189 C 0.13478 0.454 0.64237 0.0
C190 C 0.137 0.56645 0.65029 0.0
C191 C 0.06539 0.51243 0.70496 0.0
O192 O 0.07596 0.49955 0.68118 0.0
O193 O 0.08239 0.52905 0.72167 0.0
O194 O 0.11466 0.47075 0.62901 0.0
O195 O 0.14703 0.46391 0.66734 0.0
O196 O 0.42934 0.13722 0.6817 0.0
Cd197 Cd 0.46215 0.12767 0.71431 0.0
Cd198 Cd 0.49999 0.11921 0.66573 0.0
O199 O 0.46094 0.13199 0.64253 0.0
O200 O 0.45369 0.15053 0.75268 0.0
O201 O 0.49437 0.15885 0.72318 0.0
C202 C 0.47874 0.16534 0.74746 0.0
C203 C 0.54674 0.1344 0.645 0.0
C204 C 0.4344 0.13746 0.65306 0.0
C205 C 0.48766 0.06532 0.7078 0.0
O206 O 0.501 0.07597 0.68431 0.0
O207 O 0.4708 0.08228 0.72431 0.0
O208 O 0.52997 0.11408 0.63198 0.0
O209 O 0.5369 0.14702 0.66981 0.0
O210 O 0.8651 0.43395 0.67623 0.0
Cd211 Cd 0.87369 0.46713 0.70887 0.0
Cd212 Cd 0.88359 0.50463 0.66001 0.0
O213 O 0.87062 0.46548 0.63701 0.0
O214 O 0.8513 0.45867 0.74759 0.0
O215 O 0.84066 0.49773 0.717 0.0
C216 C 0.83505 0.48268 0.74186 0.0
C217 C 0.86936 0.55158 0.63915 0.0
C218 C 0.86508 0.43894 0.64754 0.0
C219 C 0.93635 0.49293 0.70334 0.0
O220 O 0.92653 0.50552 0.67912 0.0
O221 O 0.91875 0.47672 0.71983 0.0
O222 O 0.85626 0.54188 0.66377 0.0
O223 O 0.8895 0.53447 0.62627 0.0
O224 O 0.32081 0.56656 0.13647 0.0
Cd225 Cd 0.28807 0.53369 0.12738 0.0
Cd226 Cd 0.33693 0.49593 0.11806 0.0
O227 O 0.36001 0.53509 0.13076 0.0
O228 O 0.2498 0.54285 0.15016 0.0
O229 O 0.27876 0.50192 0.15893 0.0
C230 C 0.25464 0.51788 0.16519 0.0
C231 C 0.35867 0.44954 0.13296 0.0
C232 C 0.34946 0.56156 0.13646 0.0
C233 C 0.2939 0.50819 0.06482 0.0
O234 O 0.31764 0.49494 0.07504 0.0
O235 O 0.27759 0.5249 0.08213 0.0
O236 O 0.371 0.46642 0.1123 0.0
O237 O 0.3339 0.45897 0.14595 0.0
O238 O 0.32014 0.43339 0.86272 0.0
Cd239 Cd 0.28771 0.46641 0.87238 0.0
Cd240 Cd 0.33702 0.50342 0.88242 0.0
O241 O 0.35972 0.46421 0.86935 0.0
O242 O 0.24935 0.45774 0.84959 0.0
O243 O 0.27847 0.49864 0.84125 0.0
C244 C 0.25427 0.48286 0.83484 0.0
C245 C 0.3591 0.54996 0.8685 0.0
C246 C 0.34886 0.43797 0.86313 0.0
C247 C 0.29373 0.49092 0.93535 0.0
O248 O 0.31762 0.50403 0.92533 0.0
O249 O 0.27725 0.47462 0.9178 0.0
O250 O 0.37125 0.53261 0.88887 0.0
O251 O 0.33438 0.54086 0.85516 0.0
O252 O 0.56851 0.32272 0.86141 0.0
Cd253 Cd 0.53603 0.28999 0.87178 0.0
Cd254 Cd 0.49823 0.33861 0.8815 0.0
O255 O 0.53731 0.36182 0.86885 0.0
O256 O 0.54492 0.25143 0.84942 0.0
O257 O 0.50361 0.28 0.84111 0.0
C258 C 0.51957 0.25587 0.83491 0.0
C259 C 0.45172 0.35978 0.86618 0.0
C260 C 0.56361 0.35137 0.86218 0.0
C261 C 0.5111 0.29586 0.93466 0.0
O262 O 0.49725 0.31925 0.92445 0.0
O263 O 0.52817 0.27995 0.91732 0.0
O264 O 0.46834 0.37241 0.88688 0.0
O265 O 0.46149 0.33503 0.8534 0.0
O266 O 0.68267 0.57108 0.86419 0.0
Cd267 Cd 0.71363 0.53628 0.87216 0.0
Cd268 Cd 0.66355 0.50048 0.88012 0.0
O269 O 0.64237 0.5406 0.86718 0.0
O270 O 0.75289 0.54353 0.85031 0.0
O271 O 0.72057 0.50628 0.83831 0.0
C272 C 0.74608 0.52039 0.8332 0.0
C273 C 0.64157 0.45463 0.86397 0.0
C274 C 0.65389 0.56696 0.86301 0.0
C275 C 0.70561 0.50993 0.93429 0.0
O276 O 0.6811 0.49846 0.92379 0.0
O277 O 0.72329 0.52541 0.91719 0.0
O278 O 0.62846 0.47183 0.88388 0.0
O279 O 0.66713 0.4636 0.85223 0.0
O280 O 0.43299 0.68152 0.86757 0.0
Cd281 Cd 0.46691 0.71338 0.87543 0.0
Cd282 Cd 0.50402 0.66453 0.88314 0.0
O283 O 0.46455 0.64204 0.87013 0.0
O284 O 0.45892 0.75224 0.85327 0.0
O285 O 0.49701 0.72067 0.84182 0.0
C286 C 0.48239 0.74583 0.83646 0.0
C287 C 0.55072 0.64423 0.86717 0.0
C288 C 0.43787 0.65288 0.86615 0.0
C289 C 0.49328 0.70623 0.93742 0.0
O290 O 0.50539 0.68207 0.92685 0.0
O291 O 0.47737 0.72354 0.92037 0.0
O292 O 0.53398 0.6306 0.88713 0.0
O293 O 0.54082 0.66935 0.85527 0.0
O294 O 0.68215 0.43185 0.13506 0.0
Cd295 Cd 0.71341 0.46621 0.12633 0.0
Cd296 Cd 0.66408 0.50239 0.1183 0.0
O297 O 0.64219 0.46263 0.13125 0.0
O298 O 0.7527 0.45892 0.14802 0.0
O299 O 0.7209 0.4967 0.15966 0.0
C300 C 0.74628 0.4824 0.1648 0.0
C301 C 0.64329 0.54855 0.13497 0.0
C302 C 0.6534 0.43623 0.13594 0.0
C303 C 0.70566 0.49208 0.064 0.0
O304 O 0.68151 0.50422 0.07457 0.0
O305 O 0.72298 0.47619 0.08107 0.0
O306 O 0.62971 0.53187 0.11493 0.0
O307 O 0.66869 0.53892 0.14649 0.0
O308 O 0.56965 0.67997 0.13863 0.0
Cd309 Cd 0.5356 0.71142 0.12972 0.0
Cd310 Cd 0.49931 0.66173 0.12011 0.0
O311 O 0.53908 0.63998 0.13328 0.0
O312 O 0.54295 0.75045 0.1518 0.0
O313 O 0.50464 0.7189 0.16254 0.0
C314 C 0.51905 0.74417 0.16803 0.0
C315 C 0.453 0.63952 0.13466 0.0
C316 C 0.56535 0.6512 0.13877 0.0
C317 C 0.51048 0.70476 0.06698 0.0
O318 O 0.49815 0.68045 0.07694 0.0
O319 O 0.52625 0.72171 0.08453 0.0
O320 O 0.47047 0.62702 0.1146 0.0
O321 O 0.46193 0.6646 0.14744 0.0
O322 O 0.4339 0.31892 0.13558 0.0
Cd323 Cd 0.46745 0.28691 0.12647 0.0
Cd324 Cd 0.50418 0.33651 0.11803 0.0
O325 O 0.46466 0.35882 0.13092 0.0
O326 O 0.45842 0.24828 0.14865 0.0
O327 O 0.49885 0.27765 0.1584 0.0
C328 C 0.48305 0.25331 0.16419 0.0
C329 C 0.5506 0.35791 0.13339 0.0
C330 C 0.43831 0.34766 0.13606 0.0
C331 C 0.49306 0.29416 0.0641 0.0
O332 O 0.50549 0.31818 0.07466 0.0
O333 O 0.4769 0.27706 0.08118 0.0
O334 O 0.53359 0.37082 0.11319 0.0
O335 O 0.54116 0.33285 0.14581 0.0
C336 C 0.16771 0.41168 0.39545 0.0
C337 C 0.14437 0.40891 0.37305 0.0
C338 C 0.12414 0.36389 0.39966 0.0
C339 C 0.1435 0.37055 0.42472 0.0
N340 N 0.18457 0.39956 0.44703 0.0
N341 N 0.09918 0.38307 0.35413 0.0
C342 C 0.16596 0.39378 0.42258 0.0
C343 C 0.12267 0.38473 0.37476 0.0
N344 N 0.19149 0.4314 0.39056 0.0
N345 N 0.10682 0.33786 0.40006 0.0
H346 H 0.09689 0.39788 0.3356 0.0
H347 H 0.08063 0.36833 0.35652 0.0
H348 H 0.1074 0.32241 0.41827 0.0
H349 H 0.09428 0.33012 0.38133 0.0
H350 H 0.21057 0.43286 0.40474 0.0
H351 H 0.19337 0.44444 0.37063 0.0
H352 H 0.19897 0.41847 0.44851 0.0
H353 H 0.18461 0.38586 0.46661 0.0
C354 C 0.6037 0.16545 0.42212 0.0
C355 C 0.62705 0.14319 0.42479 0.0
C356 C 0.61297 0.12112 0.37531 0.0
C357 C 0.58873 0.14269 0.37305 0.0
N358 N 0.56606 0.19011 0.38947 0.0
N359 N 0.65982 0.10595 0.40107 0.0
C360 C 0.58583 0.16651 0.39493 0.0
C361 C 0.63378 0.12323 0.40021 0.0
N362 N 0.59783 0.18461 0.44612 0.0
N363 N 0.61473 0.09721 0.35518 0.0
H364 H 0.67524 0.10694 0.4193 0.0
H365 H 0.66761 0.09297 0.38267 0.0
H366 H 0.59995 0.09448 0.33669 0.0
H367 H 0.62953 0.07877 0.35798 0.0
H368 H 0.57884 0.19893 0.44726 0.0
H369 H 0.61154 0.1852 0.46568 0.0
H370 H 0.56454 0.2095 0.40321 0.0
H371 H 0.55305 0.19152 0.36948 0.0
C372 C 0.86606 0.58385 0.43035 0.0
C373 C 0.86191 0.61563 0.42583 0.0
C374 C 0.85101 0.60516 0.37168 0.0
C375 C 0.86209 0.57478 0.37537 0.0
N376 N 0.88917 0.53919 0.40856 0.0
N377 N 0.85404 0.6573 0.39008 0.0
C378 C 0.87194 0.56503 0.40483 0.0
C379 C 0.85507 0.62664 0.39595 0.0
N380 N 0.86451 0.57152 0.45903 0.0
N381 N 0.83597 0.6134 0.34557 0.0
H382 H 0.85767 0.67394 0.40671 0.0
H383 H 0.85228 0.66612 0.36799 0.0
H384 H 0.83114 0.59795 0.32804 0.0
H385 H 0.82529 0.63456 0.34298 0.0
H386 H 0.86541 0.54798 0.46288 0.0
H387 H 0.85855 0.58443 0.47823 0.0
H388 H 0.89838 0.53292 0.42967 0.0
H389 H 0.89806 0.52658 0.39039 0.0
C390 C 0.39058 0.83674 0.41757 0.0
C391 C 0.36905 0.86063 0.4213 0.0
C392 C 0.38509 0.88392 0.37299 0.0
C393 C 0.40766 0.86072 0.36979 0.0
N394 N 0.42658 0.811 0.38389 0.0
N395 N 0.33937 0.90136 0.39936 0.0
C396 C 0.40855 0.83569 0.39044 0.0
C397 C 0.36406 0.88223 0.39772 0.0
N398 N 0.39481 0.81604 0.44062 0.0
N399 N 0.38521 0.90874 0.35394 0.0
H400 H 0.32376 0.90057 0.41744 0.0
H401 H 0.33273 0.9158 0.38162 0.0
H402 H 0.40015 0.91108 0.33551 0.0
H403 H 0.37184 0.92812 0.35754 0.0
H404 H 0.41261 0.80023 0.44106 0.0
H405 H 0.38105 0.8156 0.46014 0.0
H406 H 0.42653 0.79088 0.39663 0.0
H407 H 0.43964 0.80966 0.36393 0.0
C408 C 0.16513 0.59099 0.60698 0.0
C409 C 0.14073 0.59202 0.62837 0.0
C410 C 0.11857 0.63571 0.60108 0.0
C411 C 0.13956 0.63076 0.57694 0.0
N412 N 0.18344 0.60475 0.5563 0.0
N413 N 0.09313 0.6145 0.64547 0.0
C414 C 0.16341 0.60905 0.57993 0.0
C415 C 0.11748 0.61462 0.62579 0.0
N416 N 0.18988 0.57278 0.61275 0.0
N417 N 0.09949 0.66046 0.60006 0.0
H418 H 0.09119 0.5995 0.66388 0.0
H419 H 0.07368 0.6279 0.64237 0.0
H420 H 0.09984 0.67613 0.58203 0.0
H421 H 0.08555 0.66709 0.61822 0.0
H422 H 0.20964 0.57274 0.59945 0.0
H423 H 0.1917 0.55962 0.6326 0.0
H424 H 0.19912 0.58686 0.55536 0.0
H425 H 0.18342 0.61853 0.53679 0.0
C426 C 0.36458 0.12081 0.60394 0.0
C427 C 0.37025 0.14141 0.57964 0.0
C428 C 0.41079 0.16595 0.6095 0.0
C429 C 0.40899 0.14175 0.63106 0.0
N430 N 0.38501 0.09499 0.64845 0.0
N431 N 0.3976 0.1843 0.55869 0.0
C432 C 0.38564 0.11922 0.62865 0.0
C433 C 0.39271 0.16458 0.58246 0.0
N434 N 0.33924 0.10251 0.60303 0.0
N435 N 0.42973 0.1902 0.61512 0.0
H436 H 0.38376 0.18458 0.53922 0.0
H437 H 0.41598 0.19942 0.55762 0.0
H438 H 0.4429 0.19179 0.63499 0.0
H439 H 0.43039 0.20983 0.60166 0.0
H440 H 0.33215 0.08894 0.62129 0.0
H441 H 0.32361 0.10318 0.58497 0.0
H442 H 0.37097 0.07598 0.64549 0.0
H443 H 0.4 0.09264 0.66683 0.0
C444 C 0.83672 0.41639 0.60328 0.0
C445 C 0.86027 0.4136 0.62548 0.0
C446 C 0.87942 0.36781 0.59931 0.0
C447 C 0.85968 0.37422 0.57444 0.0
N448 N 0.81905 0.40379 0.55209 0.0
N449 N 0.90548 0.38759 0.64399 0.0
C450 C 0.83784 0.39804 0.57641 0.0
C451 C 0.88164 0.38913 0.62378 0.0
N452 N 0.81323 0.43644 0.60817 0.0
N453 N 0.89641 0.34155 0.59916 0.0
H454 H 0.90838 0.40281 0.6621 0.0
H455 H 0.9238 0.37255 0.64155 0.0
H456 H 0.89547 0.32577 0.58126 0.0
H457 H 0.90909 0.33402 0.61787 0.0
H458 H 0.79399 0.43786 0.5942 0.0
H459 H 0.81168 0.44977 0.62793 0.0
H460 H 0.80515 0.42305 0.55043 0.0
H461 H 0.81843 0.38976 0.53276 0.0
C462 C 0.58905 0.8358 0.61068 0.0
C463 C 0.58972 0.8611 0.63101 0.0
C464 C 0.63281 0.88293 0.60255 0.0
C465 C 0.62805 0.86091 0.5793 0.0
N466 N 0.60296 0.81561 0.56075 0.0
N467 N 0.61158 0.90958 0.64624 0.0
C468 C 0.60691 0.83673 0.58346 0.0
C469 C 0.61192 0.88458 0.62741 0.0
N470 N 0.57134 0.81097 0.61761 0.0
N471 N 0.65715 0.90247 0.6005 0.0
H472 H 0.59677 0.91181 0.66479 0.0
H473 H 0.62461 0.92914 0.64236 0.0
H474 H 0.67266 0.90173 0.58233 0.0
H475 H 0.66364 0.91731 0.61797 0.0
H476 H 0.57157 0.79069 0.60514 0.0
H477 H 0.55834 0.80975 0.63762 0.0
H478 H 0.58546 0.79946 0.5606 0.0
H479 H 0.61668 0.8151 0.5412 0.0
C480 C 0.3728 0.11733 0.38889 0.0
C481 C 0.36994 0.14054 0.4115 0.0
C482 C 0.41781 0.16413 0.39415 0.0
C483 C 0.42113 0.1403 0.37246 0.0
N484 N 0.39866 0.09971 0.34295 0.0
N485 N 0.38476 0.18996 0.43069 0.0
C486 C 0.39738 0.11884 0.36767 0.0
C487 C 0.39087 0.16533 0.41241 0.0
N488 N 0.35351 0.09268 0.3891 0.0
N489 N 0.44106 0.18465 0.39822 0.0
H490 H 0.36499 0.19138 0.44402 0.0
H491 H 0.39769 0.20996 0.43067 0.0
H492 H 0.46044 0.18499 0.38426 0.0
H493 H 0.44182 0.2004 0.41606 0.0
H494 H 0.35685 0.07327 0.3757 0.0
H495 H 0.33517 0.0905 0.40418 0.0
H496 H 0.38077 0.08537 0.33646 0.0
H497 H 0.41661 0.10035 0.32719 0.0
C498 C 0.88338 0.36403 0.38244 0.0
C499 C 0.86013 0.36161 0.40507 0.0
C500 C 0.8345 0.40701 0.38447 0.0
C501 C 0.85861 0.41031 0.3631 0.0
N502 N 0.90055 0.38821 0.33537 0.0
N503 N 0.80964 0.37493 0.42248 0.0
C504 C 0.8811 0.38729 0.35983 0.0
C505 C 0.83427 0.38119 0.40427 0.0
N506 N 0.90875 0.34577 0.38392 0.0
N507 N 0.81277 0.42937 0.38676 0.0
H508 H 0.80893 0.3559 0.4369 0.0
H509 H 0.78903 0.3868 0.42138 0.0
H510 H 0.81172 0.44775 0.37154 0.0
H511 H 0.79662 0.43039 0.40423 0.0
H512 H 0.9281 0.34899 0.37041 0.0
H513 H 0.91145 0.32841 0.40003 0.0
H514 H 0.91585 0.37075 0.33002 0.0
H515 H 0.89927 0.40528 0.3187 0.0
C516 C 0.60066 0.87975 0.36559 0.0
C517 C 0.57648 0.85912 0.37166 0.0
C518 C 0.60663 0.83536 0.4124 0.0
C519 C 0.62794 0.85977 0.41032 0.0
N520 N 0.64485 0.90638 0.38566 0.0
N521 N 0.5559 0.8165 0.39967 0.0
C522 C 0.62534 0.88193 0.38663 0.0
C523 C 0.57952 0.8363 0.39442 0.0
N524 N 0.5996 0.89762 0.33995 0.0
N525 N 0.61254 0.81133 0.43151 0.0
H526 H 0.53641 0.81588 0.38587 0.0
H527 H 0.55499 0.80167 0.41828 0.0
H528 H 0.6325 0.81 0.44456 0.0
H529 H 0.59924 0.79159 0.43238 0.0
H530 H 0.61777 0.91118 0.33261 0.0
H531 H 0.58152 0.89657 0.32436 0.0
H532 H 0.64169 0.92512 0.37131 0.0
H533 H 0.66313 0.90923 0.40069 0.0
C534 C 0.16573 0.60663 0.41308 0.0
C535 C 0.1422 0.62873 0.40975 0.0
C536 C 0.1228 0.6014 0.36476 0.0
C537 C 0.14247 0.5767 0.37184 0.0
N538 N 0.18342 0.5552 0.40161 0.0
N539 N 0.09727 0.647 0.3831 0.0
C540 C 0.16455 0.57933 0.39539 0.0
C541 C 0.12084 0.62653 0.38531 0.0
N542 N 0.18917 0.61197 0.43308 0.0
N543 N 0.10568 0.60046 0.33859 0.0
H544 H 0.09476 0.66572 0.39764 0.0
H545 H 0.07892 0.64435 0.36815 0.0
H546 H 0.10658 0.58207 0.32337 0.0
H547 H 0.09294 0.6189 0.33054 0.0
H548 H 0.2084 0.59804 0.43492 0.0
H549 H 0.19065 0.63202 0.44599 0.0
H550 H 0.19755 0.55406 0.42076 0.0
H551 H 0.18395 0.53553 0.38806 0.0
C552 C 0.39128 0.83509 0.58839 0.0
C553 C 0.37 0.85955 0.58979 0.0
C554 C 0.39716 0.88077 0.63403 0.0
C555 C 0.42123 0.85978 0.62878 0.0
N556 N 0.44176 0.81626 0.60215 0.0
N557 N 0.35301 0.90679 0.61309 0.0
C558 C 0.41823 0.83635 0.60662 0.0
C559 C 0.37256 0.88236 0.61285 0.0
N560 N 0.38548 0.8107 0.56969 0.0
N561 N 0.39819 0.89943 0.65912 0.0
H562 H 0.33469 0.90909 0.598 0.0
H563 H 0.35611 0.92597 0.62687 0.0
H564 H 0.41617 0.89877 0.67485 0.0
H565 H 0.38009 0.91334 0.66592 0.0
H566 H 0.39871 0.79091 0.56933 0.0
H567 H 0.36569 0.8092 0.55639 0.0
H568 H 0.44274 0.80086 0.584 0.0
H569 H 0.46113 0.81592 0.61612 0.0
C570 C 0.1185 0.40011 0.6342 0.0
C571 C 0.14104 0.4231 0.63024 0.0
C572 C 0.16612 0.39289 0.59029 0.0
C573 C 0.14198 0.37121 0.59222 0.0
N574 N 0.09889 0.35017 0.61974 0.0
N575 N 0.18976 0.43915 0.61059 0.0
C576 C 0.11956 0.37334 0.6157 0.0
C577 C 0.16619 0.41858 0.61036 0.0
N578 N 0.09526 0.40483 0.65468 0.0
N579 N 0.18835 0.38919 0.56856 0.0
H580 H 0.19004 0.45809 0.62513 0.0
H581 H 0.20987 0.43665 0.59813 0.0
H582 H 0.18985 0.36962 0.55496 0.0
H583 H 0.20496 0.40543 0.56345 0.0
H584 H 0.07589 0.39114 0.65646 0.0
H585 H 0.09497 0.42337 0.66974 0.0
H586 H 0.08373 0.34885 0.63803 0.0
H587 H 0.09787 0.33091 0.60576 0.0
C588 C 0.58075 0.16502 0.61058 0.0
C589 C 0.57723 0.14116 0.63219 0.0
C590 C 0.62566 0.11816 0.61611 0.0
C591 C 0.62866 0.14134 0.59349 0.0
N592 N 0.61416 0.19089 0.57442 0.0
N593 N 0.59951 0.10066 0.66194 0.0
C594 C 0.60783 0.16622 0.59255 0.0
C595 C 0.60096 0.11974 0.63719 0.0
N596 N 0.55756 0.18555 0.60635 0.0
N597 N 0.64484 0.09345 0.616 0.0
H598 H 0.58146 0.10135 0.67758 0.0
H599 H 0.61736 0.08636 0.66858 0.0
H600 H 0.66323 0.09117 0.601 0.0
H601 H 0.64137 0.07407 0.62941 0.0
H602 H 0.55696 0.20132 0.58852 0.0
H603 H 0.53808 0.18589 0.62017 0.0
H604 H 0.60128 0.21092 0.57442 0.0
H605 H 0.63407 0.19234 0.5613 0.0
C606 C 0.83874 0.5868 0.60594 0.0
C607 C 0.8634 0.58228 0.62645 0.0
C608 C 0.88727 0.63016 0.60986 0.0
C609 C 0.86336 0.634 0.58821 0.0
N610 N 0.81273 0.62121 0.57082 0.0
N611 N 0.90611 0.60278 0.65442 0.0
C612 C 0.8378 0.614 0.58807 0.0
C613 C 0.88592 0.60519 0.63064 0.0
N614 N 0.81719 0.56441 0.6025 0.0
N615 N 0.91223 0.64902 0.60915 0.0
H616 H 0.90552 0.58459 0.6699 0.0
H617 H 0.92144 0.61995 0.66052 0.0
H618 H 0.91395 0.66782 0.59458 0.0
H619 H 0.93209 0.64509 0.6217 0.0
H620 H 0.8006 0.5645 0.58541 0.0
H621 H 0.81674 0.54484 0.61617 0.0
H622 H 0.79227 0.60903 0.57147 0.0
H623 H 0.81153 0.64117 0.55777 0.0
C624 C 0.36761 0.3953 0.11897 0.0
C625 C 0.3724 0.41949 0.13992 0.0
C626 C 0.41328 0.39033 0.16471 0.0
C627 C 0.41234 0.36902 0.14023 0.0
N628 N 0.3894 0.35155 0.09297 0.0
N629 N 0.39863 0.44057 0.18346 0.0
C630 C 0.38926 0.37112 0.1174 0.0
C631 C 0.39457 0.41693 0.1634 0.0
N632 N 0.34248 0.39581 0.10034 0.0
N633 N 0.43201 0.38489 0.18916 0.0
H634 H 0.38435 0.45971 0.18376 0.0
H635 H 0.41676 0.4419 0.19885 0.0
H636 H 0.44565 0.36535 0.1907 0.0
H637 H 0.43206 0.39812 0.20897 0.0
H638 H 0.33602 0.37755 0.08646 0.0
H639 H 0.32642 0.41347 0.10104 0.0
H640 H 0.37555 0.35436 0.07379 0.0
H641 H 0.40484 0.33355 0.09066 0.0
C642 C 0.39052 0.62763 0.88655 0.0
C643 C 0.41211 0.6312 0.86249 0.0
C644 C 0.39347 0.58426 0.83801 0.0
C645 C 0.3727 0.58029 0.86257 0.0
N646 N 0.34509 0.60157 0.90512 0.0
N647 N 0.42918 0.61794 0.81185 0.0
C648 C 0.36904 0.60329 0.88506 0.0
C649 C 0.41187 0.61111 0.83698 0.0
N650 N 0.39196 0.64598 0.91187 0.0
N651 N 0.39659 0.56168 0.8166 0.0
H652 H 0.44263 0.63764 0.81055 0.0
H653 H 0.42823 0.60571 0.79142 0.0
H654 H 0.38256 0.54237 0.8162 0.0
H655 H 0.4138 0.56136 0.80014 0.0
H656 H 0.3794 0.642 0.93172 0.0
H657 H 0.40729 0.6641 0.91409 0.0
H658 H 0.33938 0.61901 0.92032 0.0
H659 H 0.32911 0.58383 0.90449 0.0
C660 C 0.41938 0.39617 0.83613 0.0
C661 C 0.42163 0.3732 0.85885 0.0
C662 C 0.37231 0.38844 0.8805 0.0
C663 C 0.37054 0.41235 0.85852 0.0
N664 N 0.38748 0.43402 0.81081 0.0
N665 N 0.39731 0.34148 0.89659 0.0
C666 C 0.39252 0.4145 0.83471 0.0
C667 C 0.3969 0.36724 0.87886 0.0
N668 N 0.44352 0.40131 0.81692 0.0
N669 N 0.352 0.38734 0.90429 0.0
H670 H 0.41528 0.32577 0.89587 0.0
H671 H 0.37877 0.33422 0.90968 0.0
H672 H 0.33366 0.40238 0.9066 0.0
H673 H 0.35445 0.37281 0.92301 0.0
H674 H 0.445 0.42 0.80225 0.0
H675 H 0.46287 0.38731 0.81664 0.0
H676 H 0.40128 0.43501 0.79142 0.0
H677 H 0.36775 0.44738 0.80919 0.0
C678 C 0.60365 0.42294 0.83517 0.0
C679 C 0.62787 0.42466 0.85661 0.0
C680 C 0.61384 0.3748 0.87781 0.0
C681 C 0.58883 0.37344 0.85703 0.0
N682 N 0.56479 0.39147 0.81087 0.0
N683 N 0.66158 0.39948 0.89201 0.0
C684 C 0.5854 0.39602 0.83396 0.0
C685 C 0.63494 0.39945 0.87562 0.0
N686 N 0.59739 0.44755 0.81694 0.0
N687 N 0.61611 0.35406 0.90114 0.0
H688 H 0.6772 0.41753 0.89103 0.0
H689 H 0.66955 0.38061 0.90416 0.0
H690 H 0.60111 0.33577 0.90396 0.0
H691 H 0.6316 0.35617 0.91912 0.0
H692 H 0.57786 0.44935 0.80343 0.0
H693 H 0.61134 0.46694 0.81638 0.0
H694 H 0.56282 0.40578 0.79193 0.0
H695 H 0.55151 0.37168 0.8093 0.0
C696 C 0.62967 0.61513 0.88285 0.0
C697 C 0.63274 0.59312 0.8591 0.0
C698 C 0.58501 0.61094 0.83559 0.0
C699 C 0.5813 0.63176 0.86012 0.0
N700 N 0.60333 0.66034 0.90161 0.0
N701 N 0.61855 0.57546 0.80893 0.0
C702 C 0.60493 0.63618 0.8818 0.0
C703 C 0.61209 0.59293 0.83405 0.0
N704 N 0.64887 0.61443 0.90756 0.0
N705 N 0.562 0.60742 0.81471 0.0
H706 H 0.63847 0.56237 0.8073 0.0
H707 H 0.60582 0.576 0.78881 0.0
H708 H 0.54254 0.62127 0.81467 0.0
H709 H 0.56153 0.59016 0.79831 0.0
H710 H 0.64537 0.62729 0.92731 0.0
H711 H 0.66738 0.59953 0.90936 0.0
H712 H 0.62108 0.66659 0.91622 0.0
H713 H 0.58525 0.67595 0.90128 0.0
C714 C 0.60744 0.58093 0.16558 0.0
C715 C 0.63028 0.5787 0.14274 0.0
C716 C 0.61509 0.62811 0.12134 0.0
C717 C 0.59121 0.6298 0.14338 0.0
N718 N 0.56986 0.61287 0.19124 0.0
N719 N 0.662 0.60313 0.10506 0.0
C720 C 0.5892 0.60782 0.16719 0.0
C721 C 0.63628 0.60351 0.12285 0.0
N722 N 0.60237 0.55676 0.18475 0.0
N723 N 0.61611 0.64843 0.09757 0.0
H724 H 0.67768 0.58513 0.10566 0.0
H725 H 0.66928 0.62172 0.09206 0.0
H726 H 0.60105 0.66675 0.0953 0.0
H727 H 0.63061 0.646 0.07882 0.0
H728 H 0.58375 0.55528 0.19953 0.0
H729 H 0.61637 0.53741 0.18491 0.0
H730 H 0.56896 0.59903 0.2106 0.0
H731 H 0.5566 0.63266 0.19301 0.0
C732 C 0.37449 0.6096 0.11746 0.0
C733 C 0.37141 0.58701 0.14064 0.0
C734 C 0.41918 0.60422 0.16456 0.0
C735 C 0.42268 0.62597 0.14081 0.0
N736 N 0.4006 0.65543 0.09995 0.0
N737 N 0.38594 0.56763 0.19008 0.0
C738 C 0.39912 0.63075 0.11912 0.0
C739 C 0.39221 0.58598 0.16554 0.0
N740 N 0.35531 0.60946 0.09272 0.0
N741 N 0.44226 0.60013 0.18526 0.0
H742 H 0.36615 0.5543 0.19134 0.0
H743 H 0.39874 0.56757 0.21016 0.0
H744 H 0.46165 0.61407 0.18577 0.0
H745 H 0.4429 0.58227 0.201 0.0
H746 H 0.35878 0.62282 0.07331 0.0
H747 H 0.3369 0.59447 0.09049 0.0
H748 H 0.38284 0.66192 0.08546 0.0
H749 H 0.41857 0.67115 0.10067 0.0
C750 C 0.62946 0.38729 0.11753 0.0
C751 C 0.632 0.41032 0.14036 0.0
C752 C 0.58392 0.39322 0.16374 0.0
C753 C 0.5809 0.37115 0.14023 0.0
N754 N 0.60392 0.34096 0.10047 0.0
N755 N 0.6167 0.43009 0.18943 0.0
C756 C 0.60493 0.36601 0.11917 0.0
C757 C 0.61084 0.4115 0.16497 0.0
N758 N 0.64894 0.38716 0.09302 0.0
N759 N 0.56044 0.3976 0.18393 0.0
H760 H 0.63649 0.44338 0.19091 0.0
H761 H 0.60356 0.43031 0.2093 0.0
H762 H 0.54109 0.3836 0.18429 0.0
H763 H 0.55948 0.41571 0.19937 0.0
H764 H 0.64582 0.37339 0.07383 0.0
H765 H 0.66721 0.40228 0.09069 0.0
H766 H 0.62201 0.33424 0.08649 0.0
H767 H 0.58599 0.32519 0.10118 0.0
C768 C 0.01214 0.28977 0.53413 0.0
C769 C 0.03276 0.28689 0.50918 0.0
C770 C 0.98979 0.28404 0.47324 0.0
C771 C 0.96916 0.28678 0.4982 0.0
N772 N 0.96009 0.28382 0.55249 0.0
N773 N 0.04158 0.27294 0.45662 0.0
C774 C 0.98021 0.28681 0.52872 0.0
C775 C 0.02162 0.28119 0.47925 0.0
N776 N 0.02279 0.29731 0.56257 0.0
N777 N 0.97933 0.28623 0.44383 0.0
H778 H 0.06502 0.27042 0.46049 0.0
H779 H 0.03463 0.26569 0.435 0.0
H780 H 0.95626 0.28852 0.43828 0.0
H781 H 0.99373 0.28811 0.42493 0.0
H782 H 0.00856 0.30341 0.58068 0.0
H783 H 0.04597 0.29969 0.56764 0.0
H784 H 0.96689 0.28082 0.57513 0.0
H785 H 0.93657 0.2813 0.54917 0.0
C786 C 0.71023 0.01226 0.53169 0.0
C787 C 0.71021 0.03291 0.5066 0.0
C788 C 0.71018 0.98996 0.47053 0.0
C789 C 0.71046 0.96933 0.49562 0.0
N790 N 0.7193 0.96043 0.54928 0.0
N791 N 0.71865 0.04189 0.45288 0.0
C792 C 0.71338 0.98043 0.52597 0.0
C793 C 0.71305 0.02184 0.47622 0.0
N794 N 0.70518 0.02272 0.56075 0.0
N795 N 0.70515 0.97943 0.44149 0.0
H796 H 0.72119 0.06536 0.45645 0.0
H797 H 0.72379 0.035 0.43064 0.0
H798 H 0.7028 0.9563 0.43619 0.0
H799 H 0.701 0.99376 0.42292 0.0
H800 H 0.70125 0.00832 0.57932 0.0
H801 H 0.7025 0.04579 0.56609 0.0
H802 H 0.72451 0.96737 0.57148 0.0
H803 H 0.72204 0.93698 0.54568 0.0
C804 C 0.98021 0.71991 0.46958 0.0
C805 C 0.96855 0.71749 0.49977 0.0
C806 C 0.0208 0.72025 0.51989 0.0
C807 C 0.03237 0.71641 0.48984 0.0
N808 N 0.02291 0.71033 0.43565 0.0
N809 N 0.97809 0.71239 0.55412 0.0
C810 C 0.01211 0.71619 0.46442 0.0
C811 C 0.98886 0.71742 0.52517 0.0
N812 N 0.96069 0.72585 0.44589 0.0
N813 N 0.04044 0.72664 0.54339 0.0
H814 H 0.955 0.70958 0.55928 0.0
H815 H 0.99235 0.70843 0.57281 0.0
H816 H 0.06395 0.72925 0.54008 0.0
H817 H 0.03311 0.73247 0.56531 0.0
H818 H 0.96809 0.73066 0.42374 0.0
H819 H 0.93724 0.72906 0.44912 0.0
H820 H 0.00869 0.70626 0.41696 0.0
H821 H 0.04602 0.70715 0.43073 0.0
C822 C 0.28295 0.0209 0.52627 0.0
C823 C 0.2859 0.03218 0.49598 0.0
C824 C 0.28254 0.97983 0.4763 0.0
C825 C 0.2856 0.96851 0.50655 0.0
N826 N 0.29114 0.97835 0.56072 0.0
N827 N 0.29109 0.02223 0.44178 0.0
C828 C 0.28591 0.989 0.53177 0.0
C829 C 0.28585 0.01168 0.47077 0.0
N830 N 0.27717 0.04076 0.54973 0.0
N831 N 0.27636 0.96002 0.45288 0.0
H832 H 0.294 0.0453 0.43656 0.0
H833 H 0.29497 0.00787 0.42316 0.0
H834 H 0.27343 0.93658 0.45636 0.0
H835 H 0.27108 0.96715 0.43076 0.0
H836 H 0.27197 0.03368 0.57189 0.0
H837 H 0.27449 0.06424 0.54629 0.0
H838 H 0.29532 0.99264 0.57934 0.0
H839 H 0.29368 0.95523 0.56591 0.0
C840 C 0.52599 0.97992 0.28645 0.0
C841 C 0.49553 0.96885 0.28812 0.0
C842 C 0.47635 0.02132 0.28381 0.0
C843 C 0.50654 0.03245 0.28804 0.0
N844 N 0.56037 0.02235 0.29571 0.0
N845 N 0.44124 0.97911 0.29087 0.0
C846 C 0.53158 0.01182 0.28945 0.0
C847 C 0.47048 0.9895 0.28692 0.0
N848 N 0.54954 0.95987 0.28185 0.0
N849 N 0.45334 0.04126 0.27669 0.0
H850 H 0.43576 0.95607 0.29352 0.0
H851 H 0.42254 0.99357 0.29393 0.0
H852 H 0.45709 0.06469 0.27391 0.0
H853 H 0.4314 0.03428 0.27054 0.0
H854 H 0.57196 0.96674 0.2776 0.0
H855 H 0.54606 0.93639 0.27921 0.0
H856 H 0.57872 0.008 0.3007 0.0
H857 H 0.56559 0.04547 0.29823 0.0
C858 C 0.98955 0.52393 0.28834 0.0
C859 C 0.9696 0.49825 0.28831 0.0
C860 C 0.0137 0.46362 0.29032 0.0
C861 C 0.03359 0.4893 0.28934 0.0
N862 N 0.04079 0.54293 0.27893 0.0
N863 N 0.9626 0.44402 0.28118 0.0
C864 C 0.02155 0.51916 0.2855 0.0
C865 C 0.9817 0.46818 0.28665 0.0
N866 N 0.9783 0.55272 0.29321 0.0
N867 N 0.02502 0.43517 0.29665 0.0
H868 H 0.93909 0.44665 0.27792 0.0
H869 H 0.9704 0.42192 0.27685 0.0
H870 H 0.04824 0.43071 0.29973 0.0
H871 H 0.01114 0.41634 0.30127 0.0
H872 H 0.99224 0.57168 0.29697 0.0
H873 H 0.95514 0.55743 0.29631 0.0
H874 H 0.03309 0.56469 0.273 0.0
H875 H 0.06436 0.54006 0.27631 0.0
C876 C 0.52776 0.98941 0.71512 0.0
C877 C 0.50261 0.96886 0.71397 0.0
C878 C 0.46674 0.01197 0.71364 0.0
C879 C 0.49189 0.03249 0.71503 0.0
N880 N 0.54524 0.04098 0.72582 0.0
N881 N 0.44864 0.96 0.72079 0.0
C882 C 0.52207 0.0212 0.71874 0.0
C883 C 0.47222 0.98002 0.71615 0.0
N884 N 0.55691 0.97898 0.71065 0.0
N885 N 0.43792 0.02269 0.70788 0.0
H886 H 0.45204 0.93647 0.72308 0.0
H887 H 0.42631 0.96691 0.72541 0.0
H888 H 0.43277 0.04586 0.70577 0.0
H889 H 0.41945 0.00849 0.7029 0.0
H890 H 0.57563 0.99341 0.70757 0.0
H891 H 0.56226 0.95596 0.70755 0.0
H892 H 0.56723 0.03384 0.73161 0.0
H893 H 0.54163 0.06438 0.72893 0.0
C894 C 0.98016 0.52764 0.71466 0.0
C895 C 0.96892 0.49736 0.71159 0.0
C896 C 0.02127 0.47771 0.71526 0.0
C897 C 0.03259 0.50798 0.71231 0.0
N898 N 0.02276 0.56214 0.70691 0.0
N899 N 0.97881 0.44317 0.70683 0.0
C900 C 0.01209 0.53317 0.71196 0.0
C901 C 0.98941 0.47217 0.71187 0.0
N902 N 0.9602 0.55106 0.72024 0.0
N903 N 0.04109 0.45432 0.72139 0.0
H904 H 0.9557 0.43797 0.70411 0.0
H905 H 0.99313 0.42451 0.70304 0.0
H906 H 0.06454 0.45782 0.72435 0.0
H907 H 0.03399 0.43217 0.72657 0.0
H908 H 0.96719 0.57323 0.7255 0.0
H909 H 0.9367 0.54757 0.72266 0.0
H910 H 0.0085 0.58075 0.70269 0.0
H911 H 0.0459 0.56736 0.70456 0.0
C912 C 0.28592 0.46924 0.98821 0.0
C913 C 0.28595 0.49478 0.96813 0.0
C914 C 0.28644 0.52984 0.01192 0.0
C915 C 0.28623 0.5043 0.03201 0.0
N916 N 0.27691 0.45055 0.03969 0.0
N917 N 0.27724 0.54864 0.96052 0.0
C918 C 0.28296 0.47426 0.02021 0.0
C919 C 0.28314 0.52486 0.97996 0.0
N920 N 0.29085 0.44043 0.97709 0.0
N921 N 0.29194 0.55858 0.02296 0.0
H922 H 0.27434 0.54556 0.93701 0.0
H923 H 0.27216 0.57068 0.96801 0.0
H924 H 0.29485 0.56341 0.04612 0.0
H925 H 0.29604 0.57739 0.0089 0.0
H926 H 0.29478 0.42154 0.99108 0.0
H927 H 0.29336 0.43558 0.95388 0.0
H928 H 0.27148 0.42857 0.03225 0.0
H929 H 0.27425 0.45365 0.06323 0.0
C930 C 0.47724 0.28381 0.97901 0.0
C931 C 0.50726 0.28797 0.96741 0.0
C932 C 0.52761 0.28516 0.01957 0.0
C933 C 0.49738 0.28702 0.03123 0.0
N934 N 0.44295 0.29065 0.02193 0.0
N935 N 0.56133 0.29508 0.97678 0.0
C936 C 0.47197 0.28648 0.01099 0.0
C937 C 0.53267 0.28878 0.98765 0.0
N938 N 0.45382 0.27718 0.95937 0.0
N939 N 0.55145 0.27982 0.0391 0.0
H940 H 0.56618 0.29818 0.95364 0.0
H941 H 0.57995 0.2996 0.99094 0.0
H942 H 0.54833 0.27668 0.06258 0.0
H943 H 0.57368 0.27542 0.03171 0.0
H944 H 0.43196 0.27109 0.96667 0.0
H945 H 0.45712 0.27472 0.93583 0.0
H946 H 0.42407 0.29417 0.00782 0.0
H947 H 0.43789 0.29302 0.04511 0.0
C948 C 0.71309 0.53115 0.98732 0.0
C949 C 0.7126 0.50564 0.96719 0.0
C950 C 0.71176 0.47055 0.01095 0.0
C951 C 0.71261 0.49605 0.03106 0.0
N952 N 0.72226 0.54972 0.03884 0.0
N953 N 0.71965 0.45156 0.95937 0.0
C954 C 0.71603 0.52609 0.01932 0.0
C955 C 0.71468 0.47547 0.97893 0.0
N956 N 0.70868 0.56006 0.9762 0.0
N957 N 0.70616 0.44187 0.02214 0.0
H958 H 0.72218 0.45455 0.93581 0.0
H959 H 0.72426 0.42937 0.96672 0.0
H960 H 0.70376 0.43714 0.04539 0.0
H961 H 0.70157 0.42308 0.00824 0.0
H962 H 0.7051 0.57903 0.99017 0.0
H963 H 0.70622 0.56493 0.95299 0.0
H964 H 0.72789 0.57166 0.03145 0.0
H965 H 0.72478 0.54661 0.06239 0.0
C966 C 0.52733 0.71585 0.98223 0.0
C967 C 0.49726 0.71315 0.97035 0.0
C968 C 0.47654 0.71548 0.0224 0.0
C969 C 0.50659 0.71247 0.03422 0.0
N970 N 0.56097 0.70745 0.02541 0.0
N971 N 0.44288 0.70785 0.9791 0.0
C972 C 0.53221 0.71256 0.01421 0.0
C973 C 0.47165 0.71281 0.99036 0.0
N974 N 0.55116 0.72171 0.96283 0.0
N975 N 0.45271 0.72102 0.04189 0.0
H976 H 0.43813 0.70555 0.95584 0.0
H977 H 0.42396 0.70365 0.99296 0.0
H978 H 0.4557 0.72339 0.06548 0.0
H979 H 0.43068 0.72629 0.03448 0.0
H980 H 0.57321 0.72678 0.97033 0.0
H981 H 0.54818 0.72451 0.9393 0.0
H982 H 0.57992 0.70356 0.0115 0.0
H983 H 0.56569 0.70477 0.04863 0.0
C984 C 0.1784 0.2014 0.50469 0.0
C985 C 0.18786 0.23187 0.51063 0.0
C986 C 0.24015 0.21897 0.49485 0.0
C987 C 0.23126 0.18788 0.49185 0.0
N988 N 0.19343 0.14837 0.49951 0.0
N989 N 0.22848 0.26886 0.51612 0.0
C990 C 0.20078 0.17876 0.49828 0.0
C991 C 0.21895 0.2405 0.50695 0.0
N992 N 0.14793 0.1943 0.50399 0.0
N993 N 0.26843 0.22814 0.48508 0.0
H994 H 0.21369 0.28522 0.52522 0.0
H995 H 0.25141 0.27527 0.51715 0.0
H996 H 0.28453 0.21308 0.47594 0.0
H997 H 0.27498 0.25099 0.48355 0.0
H998 H 0.13958 0.17326 0.49653 0.0
H999 H 0.13074 0.21036 0.508 0.0
H1000 H 0.17241 0.14031 0.50734 0.0
H1001 H 0.20928 0.13098 0.49553 0.0
C1002 C 0.77971 0.20886 0.53389 0.0
C1003 C 0.76528 0.18968 0.51197 0.0
C1004 C 0.79182 0.21743 0.4712 0.0
C1005 C 0.81032 0.23243 0.49331 0.0
N1006 N 0.82558 0.2369 0.54644 0.0
N1007 N 0.76326 0.17168 0.45953 0.0
C1008 C 0.80527 0.22677 0.52493 0.0
C1009 C 0.77275 0.19287 0.48049 0.0
N1010 N 0.7685 0.21087 0.56301 0.0
N1011 N 0.79154 0.22719 0.4415 0.0
H1012 H 0.75101 0.15208 0.46533 0.0
H1013 H 0.77068 0.17179 0.43685 0.0
H1014 H 0.8037 0.24632 0.43405 0.0
H1015 H 0.77638 0.21855 0.42523 0.0
H1016 H 0.77674 0.2266 0.57894 0.0
H1017 H 0.74869 0.19958 0.57006 0.0
H1018 H 0.82412 0.23073 0.56944 0.0
H1019 H 0.84573 0.24843 0.54103 0.0
C1020 C 0.8049 0.77491 0.4757 0.0
C1021 C 0.80977 0.76816 0.50713 0.0
C1022 C 0.7724 0.80753 0.52105 0.0
C1023 C 0.76501 0.81171 0.48967 0.0
N1024 N 0.7681 0.79174 0.43811 0.0
N1025 N 0.7906 0.77174 0.55897 0.0
C1026 C 0.77936 0.79306 0.46725 0.0
C1027 C 0.7912 0.78251 0.52962 0.0
N1028 N 0.82535 0.76564 0.45393 0.0
N1029 N 0.76311 0.82817 0.54263 0.0
H1030 H 0.80245 0.7522 0.56581 0.0
H1031 H 0.77541 0.77999 0.57541 0.0
H1032 H 0.75117 0.84811 0.53739 0.0
H1033 H 0.77046 0.82725 0.56531 0.0
H1034 H 0.8239 0.77258 0.43115 0.0
H1035 H 0.8456 0.75417 0.45902 0.0
H1036 H 0.77637 0.77643 0.42179 0.0
H1037 H 0.74822 0.80308 0.43139 0.0
C1038 C 0.17862 0.79932 0.4954 0.0
C1039 C 0.18806 0.76883 0.48951 0.0
C1040 C 0.24022 0.78159 0.50587 0.0
C1041 C 0.23135 0.81267 0.50892 0.0
N1042 N 0.19371 0.85229 0.50106 0.0
N1043 N 0.22859 0.73172 0.48449 0.0
C1044 C 0.20097 0.82188 0.50218 0.0
C1045 C 0.21908 0.76011 0.49352 0.0
N1046 N 0.14816 0.80649 0.49571 0.0
N1047 N 0.26841 0.77237 0.51581 0.0
H1048 H 0.21381 0.71539 0.47528 0.0
H1049 H 0.25149 0.72521 0.48369 0.0
H1050 H 0.28448 0.7874 0.52507 0.0
H1051 H 0.27494 0.74951 0.51731 0.0
H1052 H 0.13976 0.82752 0.50313 0.0
H1053 H 0.13097 0.7905 0.49137 0.0
H1054 H 0.17282 0.86045 0.49301 0.0
H1055 H 0.20955 0.86962 0.50537 0.0
C1056 C 0.50539 0.17811 0.20148 0.0
C1057 C 0.51074 0.18757 0.23207 0.0
C1058 C 0.49571 0.23996 0.2187 0.0
C1059 C 0.49326 0.23103 0.18757 0.0
N1060 N 0.50148 0.19308 0.14829 0.0
N1061 N 0.51591 0.22825 0.26904 0.0
C1062 C 0.49967 0.20049 0.17865 0.0
C1063 C 0.5072 0.21872 0.24054 0.0
N1064 N 0.50457 0.14764 0.19442 0.0
N1065 N 0.48597 0.26831 0.22764 0.0
H1066 H 0.52458 0.21344 0.28561 0.0
H1067 H 0.51704 0.25119 0.2754 0.0
H1068 H 0.47726 0.28445 0.21237 0.0
H1069 H 0.48404 0.27491 0.25046 0.0
H1070 H 0.49751 0.13932 0.17322 0.0
H1071 H 0.50806 0.13045 0.21059 0.0
H1072 H 0.50933 0.17199 0.14044 0.0
H1073 H 0.49801 0.20893 0.1308 0.0
C1074 C 0.79318 0.53222 0.2194 0.0
C1075 C 0.81214 0.50983 0.23337 0.0
C1076 C 0.78246 0.46986 0.20773 0.0
C1077 C 0.76764 0.49227 0.18947 0.0
N1078 N 0.76462 0.54545 0.17403 0.0
N1079 N 0.82904 0.45697 0.2342 0.0
C1080 C 0.77444 0.52371 0.19423 0.0
C1081 C 0.80796 0.47848 0.22582 0.0
N1082 N 0.79213 0.56136 0.23065 0.0
N1083 N 0.77171 0.44052 0.20871 0.0
H1084 H 0.84949 0.46225 0.24523 0.0
H1085 H 0.82793 0.43433 0.22675 0.0
H1086 H 0.75181 0.43364 0.19749 0.0
H1087 H 0.78041 0.42415 0.22373 0.0
H1088 H 0.77664 0.57766 0.22271 0.0
H1089 H 0.80395 0.5681 0.25025 0.0
H1090 H 0.77153 0.56824 0.17533 0.0
H1091 H 0.75265 0.54033 0.15407 0.0
C1092 C 0.53052 0.7803 0.21134 0.0
C1093 C 0.50862 0.76568 0.19228 0.0
C1094 C 0.46784 0.79154 0.22067 0.0
C1095 C 0.48986 0.81033 0.23546 0.0
N1096 N 0.54283 0.82647 0.23892 0.0
N1097 N 0.45603 0.76324 0.17479 0.0
C1098 C 0.52145 0.80578 0.22929 0.0
C1099 C 0.47709 0.77278 0.19583 0.0
N1100 N 0.55974 0.76936 0.21323 0.0
N1101 N 0.43829 0.79067 0.23085 0.0
H1102 H 0.46178 0.7513 0.15497 0.0
H1103 H 0.43327 0.77038 0.17523 0.0
H1104 H 0.43094 0.80248 0.25024 0.0
H1105 H 0.42217 0.77531 0.22229 0.0
H1106 H 0.57567 0.77783 0.22885 0.0
H1107 H 0.56688 0.74953 0.20205 0.0
H1108 H 0.56575 0.82525 0.23241 0.0
H1109 H 0.53731 0.84672 0.25022 0.0
C1110 C 0.17948 0.49497 0.20234 0.0
C1111 C 0.18904 0.48905 0.23279 0.0
C1112 C 0.2414 0.50441 0.21953 0.0
C1113 C 0.23236 0.50743 0.18848 0.0
N1114 N 0.19425 0.50006 0.14919 0.0
N1115 N 0.22982 0.48339 0.26957 0.0
C1116 C 0.20177 0.50122 0.17955 0.0
C1117 C 0.22022 0.49253 0.24123 0.0
N1118 N 0.14897 0.49579 0.1954 0.0
N1119 N 0.26981 0.51395 0.22852 0.0
H1120 H 0.21504 0.47448 0.28606 0.0
H1121 H 0.25277 0.48219 0.27586 0.0
H1122 H 0.28591 0.5229 0.21334 0.0
H1123 H 0.27651 0.51546 0.25134 0.0
H1124 H 0.14054 0.50325 0.1744 0.0
H1125 H 0.13184 0.49185 0.21156 0.0
H1126 H 0.17313 0.49238 0.14124 0.0
H1127 H 0.21003 0.50396 0.1317 0.0
C1128 C 0.46967 0.78129 0.79295 0.0
C1129 C 0.4921 0.76704 0.81166 0.0
C1130 C 0.53207 0.79244 0.78174 0.0
C1131 C 0.50964 0.81092 0.7672 0.0
N1132 N 0.45658 0.82693 0.76488 0.0
N1133 N 0.54514 0.76497 0.82778 0.0
C1134 C 0.47822 0.80645 0.7743 0.0
C1135 C 0.52351 0.77412 0.80714 0.0
N1136 N 0.44043 0.77028 0.79204 0.0
N1137 N 0.56134 0.79146 0.7708 0.0
H1138 H 0.53993 0.75338 0.84794 0.0
H1139 H 0.56787 0.77212 0.8266 0.0
H1140 H 0.56816 0.80295 0.75103 0.0
H1141 H 0.57772 0.77629 0.7792 0.0
H1142 H 0.42407 0.77845 0.77671 0.0
H1143 H 0.43361 0.75065 0.80376 0.0
H1144 H 0.43384 0.82581 0.77203 0.0
H1145 H 0.46176 0.84696 0.75305 0.0
C1146 C 0.2408 0.49714 0.78073 0.0
C1147 C 0.23192 0.4937 0.81179 0.0
C1148 C 0.1789 0.50592 0.79833 0.0
C1149 C 0.18825 0.51216 0.76787 0.0
N1150 N 0.22881 0.51859 0.73097 0.0
N1151 N 0.194 0.50061 0.85135 0.0
C1152 C 0.21942 0.50907 0.75925 0.0
C1153 C 0.20136 0.49969 0.82094 0.0
N1154 N 0.26923 0.48791 0.7715 0.0
N1155 N 0.14844 0.5047 0.80543 0.0
H1156 H 0.20992 0.49675 0.86871 0.0
H1157 H 0.17288 0.50811 0.85946 0.0
H1158 H 0.13117 0.50854 0.7894 0.0
H1159 H 0.14021 0.49699 0.82643 0.0
H1160 H 0.27582 0.48669 0.74863 0.0
H1161 H 0.28548 0.47894 0.7865 0.0
H1162 H 0.25172 0.52004 0.72458 0.0
H1163 H 0.21388 0.52758 0.71467 0.0
C1164 C 0.49621 0.17982 0.80002 0.0
C1165 C 0.48963 0.18865 0.76948 0.0
C1166 C 0.50487 0.24138 0.78121 0.0
C1167 C 0.50865 0.23306 0.81238 0.0
N1168 N 0.50228 0.19585 0.85269 0.0
N1169 N 0.48287 0.22852 0.73191 0.0
C1170 C 0.50278 0.20267 0.82215 0.0
C1171 C 0.49268 0.21963 0.76026 0.0
N1172 N 0.49739 0.1495 0.80764 0.0
N1173 N 0.514 0.26964 0.77139 0.0
H1174 H 0.47369 0.21331 0.71597 0.0
H1175 H 0.48137 0.25131 0.72513 0.0
H1176 H 0.52313 0.28614 0.78602 0.0
H1177 H 0.51496 0.27584 0.7484 0.0
H1178 H 0.50533 0.14161 0.82868 0.0
H1179 H 0.49323 0.13198 0.79197 0.0
H1180 H 0.49488 0.1749 0.86128 0.0
H1181 H 0.50644 0.21206 0.86972 0.0
C1182 C 0.78217 0.53289 0.79005 0.0
C1183 C 0.76721 0.51054 0.80832 0.0
C1184 C 0.79161 0.47044 0.77771 0.0
C1185 C 0.81075 0.49262 0.7636 0.0
N1186 N 0.82831 0.54521 0.76243 0.0
N1187 N 0.76366 0.45731 0.82346 0.0
C1188 C 0.80716 0.52399 0.77133 0.0
C1189 C 0.77345 0.47904 0.80324 0.0
N1190 N 0.77197 0.56243 0.7896 0.0
N1191 N 0.78984 0.44142 0.76624 0.0
H1192 H 0.75217 0.46247 0.8437 0.0
H1193 H 0.77018 0.43442 0.82188 0.0
H1194 H 0.80117 0.43465 0.74636 0.0
H1195 H 0.77419 0.42533 0.77432 0.0
H1196 H 0.78068 0.57881 0.7746 0.0
H1197 H 0.75245 0.56957 0.80131 0.0
H1198 H 0.82781 0.56782 0.77004 0.0
H1199 H 0.84825 0.53969 0.7506 0.0
loop_
_geom_bond_atom_site_label_1
_geom_bond_atom_site_label_2
_geom_bond_distance
_geom_bond_site_symmetry_2
_ccdc_geom_bond_type
O0 Cd1 2.223 . S
O0 C8 1.315 . S
Cd1 O0 2.223 . S
Cd1 O4 2.297 . S
Cd1 O5 2.439 . S
Cd1 O11 2.240 . S
Cd2 O3 2.240 . S
Cd2 O10 2.223 . S
Cd2 O12 2.297 . S
Cd2 O13 2.439 . S
O3 Cd2 2.240 . S
O3 C8 1.279 . S
O4 Cd1 2.297 . S
O4 C6 1.247 . S
O5 Cd1 2.439 . S
O5 C6 1.208 . S
C6 O4 1.247 . S
C6 O5 1.208 . S
C7 O12 1.247 . S
C7 O13 1.208 . S
C8 O0 1.315 . S
C8 O3 1.279 . S
C9 O10 1.315 . S
C9 O11 1.279 . S
O10 Cd2 2.223 . S
O10 C9 1.315 . S
O11 Cd1 2.240 . S
O11 C9 1.279 . S
O12 Cd2 2.297 . S
O12 C7 1.247 . S
O13 Cd2 2.439 . S
O13 C7 1.208 . S
O14 Cd15 2.223 . S
O14 C22 1.315 . S
Cd15 O14 2.223 . S
Cd15 O18 2.297 . S
Cd15 O19 2.439 . S
Cd15 O25 2.240 . S
Cd16 O17 2.240 . S
Cd16 O24 2.223 . S
Cd16 O26 2.297 . S
Cd16 O27 2.439 . S
O17 Cd16 2.240 . S
O17 C22 1.279 . S
O18 Cd15 2.297 . S
O18 C20 1.247 . S
O19 Cd15 2.439 . S
O19 C20 1.208 . S
C20 O18 1.247 . S
C20 O19 1.208 . S
C21 O26 1.247 . S
C21 O27 1.208 . S
C22 O14 1.315 . S
C22 O17 1.279 . S
C23 O24 1.315 . S
C23 O25 1.279 . S
O24 Cd16 2.223 . S
O24 C23 1.315 . S
O25 Cd15 2.240 . S
O25 C23 1.279 . S
O26 Cd16 2.297 . S
O26 C21 1.247 . S
O27 Cd16 2.439 . S
O27 C21 1.208 . S
O28 Cd29 2.223 . S
O28 C36 1.315 . S
Cd29 O28 2.223 . S
Cd29 O32 2.297 . S
Cd29 O33 2.439 . S
Cd29 O39 2.240 . S
Cd30 O31 2.240 . S
Cd30 O38 2.223 . S
Cd30 O40 2.297 . S
Cd30 O41 2.439 . S
O31 Cd30 2.240 . S
O31 C36 1.279 . S
O32 Cd29 2.297 . S
O32 C34 1.247 . S
O33 Cd29 2.439 . S
O33 C34 1.208 . S
C34 O32 1.247 . S
C34 O33 1.208 . S
C35 O40 1.247 . S
C35 O41 1.208 . S
C36 O28 1.315 . S
C36 O31 1.279 . S
C37 O38 1.315 . S
C37 O39 1.279 . S
O38 Cd30 2.223 . S
O38 C37 1.315 . S
O39 Cd29 2.240 . S
O39 C37 1.279 . S
O40 Cd30 2.297 . S
O40 C35 1.247 . S
O41 Cd30 2.439 . S
O41 C35 1.208 . S
O42 Cd43 2.223 . S
O42 C50 1.315 . S
Cd43 O42 2.223 . S
Cd43 O46 2.297 . S
Cd43 O47 2.439 . S
Cd43 O53 2.240 . S
Cd44 O45 2.240 . S
Cd44 O52 2.223 . S
Cd44 O54 2.297 . S
Cd44 O55 2.439 . S
O45 Cd44 2.240 . S
O45 C50 1.279 . S
O46 Cd43 2.297 . S
O46 C48 1.247 . S
O47 Cd43 2.439 . S
O47 C48 1.208 . S
C48 O46 1.247 . S
C48 O47 1.208 . S
C49 O54 1.247 . S
C49 O55 1.208 . S
C50 O42 1.315 . S
C50 O45 1.279 . S
C51 O52 1.315 . S
C51 O53 1.279 . S
O52 Cd44 2.223 . S
O52 C51 1.315 . S
O53 Cd43 2.240 . S
O53 C51 1.279 . S
O54 Cd44 2.297 . S
O54 C49 1.247 . S
O55 Cd44 2.439 . S
O55 C49 1.208 . S
O56 Cd57 2.223 . S
O56 C64 1.315 . S
Cd57 O56 2.223 . S
Cd57 O60 2.297 . S
Cd57 O61 2.439 . S
Cd57 O67 2.240 . S
Cd58 O59 2.240 . S
Cd58 O66 2.223 . S
Cd58 O68 2.297 . S
Cd58 O69 2.439 . S
O59 Cd58 2.240 . S
O59 C64 1.279 . S
O60 Cd57 2.297 . S
O60 C62 1.247 . S
O61 Cd57 2.439 . S
O61 C62 1.208 . S
C62 O60 1.247 . S
C62 O61 1.208 . S
C63 O68 1.247 . S
C63 O69 1.208 . S
C64 O56 1.315 . S
C64 O59 1.279 . S
C65 O66 1.315 . S
C65 O67 1.279 . S
O66 Cd58 2.223 . S
O66 C65 1.315 . S
O67 Cd57 2.240 . S
O67 C65 1.279 . S
O68 Cd58 2.297 . S
O68 C63 1.247 . S
O69 Cd58 2.439 . S
O69 C63 1.208 . S
O70 Cd71 2.223 . S
O70 C78 1.315 . S
Cd71 O70 2.223 . S
Cd71 O74 2.297 . S
Cd71 O75 2.439 . S
Cd71 O81 2.240 . S
Cd72 O73 2.240 . S
Cd72 O80 2.223 . S
Cd72 O82 2.297 . S
Cd72 O83 2.439 . S
O73 Cd72 2.240 . S
O73 C78 1.279 . S
O74 Cd71 2.297 . S
O74 C76 1.247 . S
O75 Cd71 2.439 . S
O75 C76 1.208 . S
C76 O74 1.247 . S
C76 O75 1.208 . S
C77 O82 1.247 . S
C77 O83 1.208 . S
C78 O70 1.315 . S
C78 O73 1.279 . S
C79 O80 1.315 . S
C79 O81 1.279 . S
O80 Cd72 2.223 . S
O80 C79 1.315 . S
O81 Cd71 2.240 . S
O81 C79 1.279 . S
O82 Cd72 2.297 . S
O82 C77 1.247 . S
O83 Cd72 2.439 . S
O83 C77 1.208 . S
O84 Cd85 2.223 . S
O84 C92 1.315 . S
Cd85 O84 2.223 . S
Cd85 O88 2.297 . S
Cd85 O89 2.439 . S
Cd85 O95 2.240 . S
Cd86 O87 2.240 . S
Cd86 O94 2.223 . S
Cd86 O96 2.297 . S
Cd86 O97 2.439 . S
O87 Cd86 2.240 . S
O87 C92 1.279 . S
O88 Cd85 2.297 . S
O88 C90 1.247 . S
O89 Cd85 2.439 . S
O89 C90 1.208 . S
C90 O88 1.247 . S
C90 O89 1.208 . S
C91 O96 1.247 . S
C91 O97 1.208 . S
C92 O84 1.315 . S
C92 O87 1.279 . S
C93 O94 1.315 . S
C93 O95 1.279 . S
O94 Cd86 2.223 . S
O94 C93 1.315 . S
O95 Cd85 2.240 . S
O95 C93 1.279 . S
O96 Cd86 2.297 . S
O96 C91 1.247 . S
O97 Cd86 2.439 . S
O97 C91 1.208 . S
O98 Cd99 2.223 . S
O98 C106 1.315 . S
Cd99 O98 2.223 . S
Cd99 O102 2.297 . S
Cd99 O103 2.439 . S
Cd99 O109 2.240 . S
Cd100 O101 2.240 . S
Cd100 O108 2.223 . S
Cd100 O110 2.297 . S
Cd100 O111 2.439 . S
O101 Cd100 2.240 . S
O101 C106 1.279 . S
O102 Cd99 2.297 . S
O102 C104 1.247 . S
O103 Cd99 2.439 . S
O103 C104 1.208 . S
C104 O102 1.247 . S
C104 O103 1.208 . S
C105 O110 1.247 . S
C105 O111 1.208 . S
C106 O98 1.315 . S
C106 O101 1.279 . S
C107 O108 1.315 . S
C107 O109 1.279 . S
O108 Cd100 2.223 . S
O108 C107 1.315 . S
O109 Cd99 2.240 . S
O109 C107 1.279 . S
O110 Cd100 2.297 . S
O110 C105 1.247 . S
O111 Cd100 2.439 . S
O111 C105 1.208 . S
O112 Cd113 2.223 . S
O112 C120 1.315 . S
Cd113 O112 2.223 . S
Cd113 O116 2.297 . S
Cd113 O117 2.439 . S
Cd113 O123 2.240 . S
Cd114 O115 2.240 . S
Cd114 O122 2.223 . S
Cd114 O124 2.297 . S
Cd114 O125 2.439 . S
O115 Cd114 2.240 . S
O115 C120 1.279 . S
O116 Cd113 2.297 . S
O116 C118 1.247 . S
O117 Cd113 2.439 . S
O117 C118 1.208 . S
C118 O116 1.247 . S
C118 O117 1.208 . S
C119 O124 1.247 . S
C119 O125 1.208 . S
C120 O112 1.315 . S
C120 O115 1.279 . S
C121 O122 1.315 . S
C121 O123 1.279 . S
O122 Cd114 2.223 . S
O122 C121 1.315 . S
O123 Cd113 2.240 . S
O123 C121 1.279 . S
O124 Cd114 2.297 . S
O124 C119 1.247 . S
O125 Cd114 2.439 . S
O125 C119 1.208 . S
O126 Cd127 2.223 . S
O126 C134 1.315 . S
Cd127 O126 2.223 . S
Cd127 O130 2.297 . S
Cd127 O131 2.439 . S
Cd127 O137 2.240 . S
Cd128 O129 2.240 . S
Cd128 O136 2.223 . S
Cd128 O138 2.297 . S
Cd128 O139 2.439 . S
O129 Cd128 2.240 . S
O129 C134 1.279 . S
O130 Cd127 2.297 . S
O130 C132 1.247 . S
O131 Cd127 2.439 . S
O131 C132 1.208 . S
C132 O130 1.247 . S
C132 O131 1.208 . S
C133 O138 1.247 . S
C133 O139 1.208 . S
C134 O126 1.315 . S
C134 O129 1.279 . S
C135 O136 1.315 . S
C135 O137 1.279 . S
O136 Cd128 2.223 . S
O136 C135 1.315 . S
O137 Cd127 2.240 . S
O137 C135 1.279 . S
O138 Cd128 2.297 . S
O138 C133 1.247 . S
O139 Cd128 2.439 . S
O139 C133 1.208 . S
O140 Cd141 2.223 . S
O140 C148 1.315 . S
Cd141 O140 2.223 . S
Cd141 O144 2.297 . S
Cd141 O145 2.439 . S
Cd141 O151 2.240 . S
Cd142 O143 2.240 . S
Cd142 O150 2.223 . S
Cd142 O152 2.297 . S
Cd142 O153 2.439 . S
O143 Cd142 2.240 . S
O143 C148 1.279 . S
O144 Cd141 2.297 . S
O144 C146 1.247 . S
O145 Cd141 2.439 . S
O145 C146 1.208 . S
C146 O144 1.247 . S
C146 O145 1.208 . S
C147 O152 1.247 . S
C147 O153 1.208 . S
C148 O140 1.315 . S
C148 O143 1.279 . S
C149 O150 1.315 . S
C149 O151 1.279 . S
O150 Cd142 2.223 . S
O150 C149 1.315 . S
O151 Cd141 2.240 . S
O151 C149 1.279 . S
O152 Cd142 2.297 . S
O152 C147 1.247 . S
O153 Cd142 2.439 . S
O153 C147 1.208 . S
O154 Cd155 2.223 . S
O154 C162 1.315 . S
Cd155 O154 2.223 . S
Cd155 O158 2.297 . S
Cd155 O159 2.439 . S
Cd155 O165 2.240 . S
Cd156 O157 2.240 . S
Cd156 O164 2.223 . S
Cd156 O166 2.297 . S
Cd156 O167 2.439 . S
O157 Cd156 2.240 . S
O157 C162 1.279 . S
O158 Cd155 2.297 . S
O158 C160 1.247 . S
O159 Cd155 2.439 . S
O159 C160 1.208 . S
C160 O158 1.247 . S
C160 O159 1.208 . S
C161 O166 1.247 . S
C161 O167 1.208 . S
C162 O154 1.315 . S
C162 O157 1.279 . S
C163 O164 1.315 . S
C163 O165 1.279 . S
O164 Cd156 2.223 . S
O164 C163 1.315 . S
O165 Cd155 2.240 . S
O165 C163 1.279 . S
O166 Cd156 2.297 . S
O166 C161 1.247 . S
O167 Cd156 2.439 . S
O167 C161 1.208 . S
O168 Cd169 2.223 . S
O168 C176 1.315 . S
Cd169 O168 2.223 . S
Cd169 O172 2.297 . S
Cd169 O173 2.439 . S
Cd169 O179 2.240 . S
Cd170 O171 2.240 . S
Cd170 O178 2.223 . S
Cd170 O180 2.297 . S
Cd170 O181 2.439 . S
O171 Cd170 2.240 . S
O171 C176 1.279 . S
O172 Cd169 2.297 . S
O172 C174 1.247 . S
O173 Cd169 2.439 . S
O173 C174 1.208 . S
C174 O172 1.247 . S
C174 O173 1.208 . S
C175 O180 1.247 . S
C175 O181 1.208 . S
C176 O168 1.315 . S
C176 O171 1.279 . S
C177 O178 1.315 . S
C177 O179 1.279 . S
O178 Cd170 2.223 . S
O178 C177 1.315 . S
O179 Cd169 2.240 . S
O179 C177 1.279 . S
O180 Cd170 2.297 . S
O180 C175 1.247 . S
O181 Cd170 2.439 . S
O181 C175 1.208 . S
O182 Cd183 2.223 . S
O182 C190 1.315 . S
Cd183 O182 2.223 . S
Cd183 O186 2.297 . S
Cd183 O187 2.439 . S
Cd183 O193 2.240 . S
Cd184 O185 2.240 . S
Cd184 O192 2.223 . S
Cd184 O194 2.297 . S
Cd184 O195 2.439 . S
O185 Cd184 2.240 . S
O185 C190 1.279 . S
O186 Cd183 2.297 . S
O186 C188 1.247 . S
O187 Cd183 2.439 . S
O187 C188 1.208 . S
C188 O186 1.247 . S
C188 O187 1.208 . S
C189 O194 1.247 . S
C189 O195 1.208 . S
C190 O182 1.315 . S
C190 O185 1.279 . S
C191 O192 1.315 . S
C191 O193 1.279 . S
O192 Cd184 2.223 . S
O192 C191 1.315 . S
O193 Cd183 2.240 . S
O193 C191 1.279 . S
O194 Cd184 2.297 . S
O194 C189 1.247 . S
O195 Cd184 2.439 . S
O195 C189 1.208 . S
O196 Cd197 2.223 . S
O196 C204 1.315 . S
Cd197 O196 2.223 . S
Cd197 O200 2.297 . S
Cd197 O201 2.439 . S
Cd197 O207 2.240 . S
Cd198 O199 2.240 . S
Cd198 O206 2.223 . S
Cd198 O208 2.297 . S
Cd198 O209 2.439 . S
O199 Cd198 2.240 . S
O199 C204 1.279 . S
O200 Cd197 2.297 . S
O200 C202 1.247 . S
O201 Cd197 2.439 . S
O201 C202 1.208 . S
C202 O200 1.247 . S
C202 O201 1.208 . S
C203 O208 1.247 . S
C203 O209 1.208 . S
C204 O196 1.315 . S
C204 O199 1.279 . S
C205 O206 1.315 . S
C205 O207 1.279 . S
O206 Cd198 2.223 . S
O206 C205 1.315 . S
O207 Cd197 2.240 . S
O207 C205 1.279 . S
O208 Cd198 2.297 . S
O208 C203 1.247 . S
O209 Cd198 2.439 . S
O209 C203 1.208 . S
O210 Cd211 2.223 . S
O210 C218 1.315 . S
Cd211 O210 2.223 . S
Cd211 O214 2.297 . S
Cd211 O215 2.439 . S
Cd211 O221 2.240 . S
Cd212 O213 2.240 . S
Cd212 O220 2.223 . S
Cd212 O222 2.297 . S
Cd212 O223 2.439 . S
O213 Cd212 2.240 . S
O213 C218 1.279 . S
O214 Cd211 2.297 . S
O214 C216 1.247 . S
O215 Cd211 2.439 . S
O215 C216 1.208 . S
C216 O214 1.247 . S
C216 O215 1.208 . S
C217 O222 1.247 . S
C217 O223 1.208 . S
C218 O210 1.315 . S
C218 O213 1.279 . S
C219 O220 1.315 . S
C219 O221 1.279 . S
O220 Cd212 2.223 . S
O220 C219 1.315 . S
O221 Cd211 2.240 . S
O221 C219 1.279 . S
O222 Cd212 2.297 . S
O222 C217 1.247 . S
O223 Cd212 2.439 . S
O223 C217 1.208 . S
O224 Cd225 2.223 . S
O224 C232 1.315 . S
Cd225 O224 2.223 . S
Cd225 O228 2.297 . S
Cd225 O229 2.439 . S
Cd225 O235 2.240 . S
Cd226 O227 2.240 . S
Cd226 O234 2.223 . S
Cd226 O236 2.297 . S
Cd226 O237 2.439 . S
O227 Cd226 2.240 . S
O227 C232 1.279 . S
O228 Cd225 2.297 . S
O228 C230 1.247 . S
O229 Cd225 2.439 . S
O229 C230 1.208 . S
C230 O228 1.247 . S
C230 O229 1.208 . S
C231 O236 1.247 . S
C231 O237 1.208 . S
C232 O224 1.315 . S
C232 O227 1.279 . S
C233 O234 1.315 . S
C233 O235 1.279 . S
O234 Cd226 2.223 . S
O234 C233 1.315 . S
O235 Cd225 2.240 . S
O235 C233 1.279 . S
O236 Cd226 2.297 . S
O236 C231 1.247 . S
O237 Cd226 2.439 . S
O237 C231 1.208 . S
O238 Cd239 2.223 . S
O238 C246 1.315 . S
Cd239 O238 2.223 . S
Cd239 O242 2.297 . S
Cd239 O243 2.439 . S
Cd239 O249 2.240 . S
Cd240 O241 2.240 . S
Cd240 O248 2.223 . S
Cd240 O250 2.297 . S
Cd240 O251 2.439 . S
O241 Cd240 2.240 . S
O241 C246 1.279 . S
O242 Cd239 2.297 . S
O242 C244 1.247 . S
O243 Cd239 2.439 . S
O243 C244 1.208 . S
C244 O242 1.247 . S
C244 O243 1.208 . S
C245 O250 1.247 . S
C245 O251 1.208 . S
C246 O238 1.315 . S
C246 O241 1.279 . S
C247 O248 1.315 . S
C247 O249 1.279 . S
O248 Cd240 2.223 . S
O248 C247 1.315 . S
O249 Cd239 2.240 . S
O249 C247 1.279 . S
O250 Cd240 2.297 . S
O250 C245 1.247 . S
O251 Cd240 2.439 . S
O251 C245 1.208 . S
O252 Cd253 2.223 . S
O252 C260 1.315 . S
Cd253 O252 2.223 . S
Cd253 O256 2.297 . S
Cd253 O257 2.439 . S
Cd253 O263 2.240 . S
Cd254 O255 2.240 . S
Cd254 O262 2.223 . S
Cd254 O264 2.297 . S
Cd254 O265 2.439 . S
O255 Cd254 2.240 . S
O255 C260 1.279 . S
O256 Cd253 2.297 . S
O256 C258 1.247 . S
O257 Cd253 2.439 . S
O257 C258 1.208 . S
C258 O256 1.247 . S
C258 O257 1.208 . S
C259 O264 1.247 . S
C259 O265 1.208 . S
C260 O252 1.315 . S
C260 O255 1.279 . S
C261 O262 1.315 . S
C261 O263 1.279 . S
O262 Cd254 2.223 . S
O262 C261 1.315 . S
O263 Cd253 2.240 . S
O263 C261 1.279 . S
O264 Cd254 2.297 . S
O264 C259 1.247 . S
O265 Cd254 2.439 . S
O265 C259 1.208 . S
O266 Cd267 2.223 . S
O266 C274 1.315 . S
Cd267 O266 2.223 . S
Cd267 O270 2.297 . S
Cd267 O271 2.439 . S
Cd267 O277 2.240 . S
Cd268 O269 2.240 . S
Cd268 O276 2.223 . S
Cd268 O278 2.297 . S
Cd268 O279 2.439 . S
O269 Cd268 2.240 . S
O269 C274 1.279 . S
O270 Cd267 2.297 . S
O270 C272 1.247 . S
O271 Cd267 2.439 . S
O271 C272 1.208 . S
C272 O270 1.247 . S
C272 O271 1.208 . S
C273 O278 1.247 . S
C273 O279 1.208 . S
C274 O266 1.315 . S
C274 O269 1.279 . S
C275 O276 1.315 . S
C275 O277 1.279 . S
O276 Cd268 2.223 . S
O276 C275 1.315 . S
O277 Cd267 2.240 . S
O277 C275 1.279 . S
O278 Cd268 2.297 . S
O278 C273 1.247 . S
O279 Cd268 2.439 . S
O279 C273 1.208 . S
O280 Cd281 2.223 . S
O280 C288 1.315 . S
Cd281 O280 2.223 . S
Cd281 O284 2.297 . S
Cd281 O285 2.439 . S
Cd281 O291 2.240 . S
Cd282 O283 2.240 . S
Cd282 O290 2.223 . S
Cd282 O292 2.297 . S
Cd282 O293 2.439 . S
O283 Cd282 2.240 . S
O283 C288 1.279 . S
O284 Cd281 2.297 . S
O284 C286 1.247 . S
O285 Cd281 2.439 . S
O285 C286 1.208 . S
C286 O284 1.247 . S
C286 O285 1.208 . S
C287 O292 1.247 . S
C287 O293 1.208 . S
C288 O280 1.315 . S
C288 O283 1.279 . S
C289 O290 1.315 . S
C289 O291 1.279 . S
O290 Cd282 2.223 . S
O290 C289 1.315 . S
O291 Cd281 2.240 . S
O291 C289 1.279 . S
O292 Cd282 2.297 . S
O292 C287 1.247 . S
O293 Cd282 2.439 . S
O293 C287 1.208 . S
O294 Cd295 2.223 . S
O294 C302 1.315 . S
Cd295 O294 2.223 . S
Cd295 O298 2.297 . S
Cd295 O299 2.439 . S
Cd295 O305 2.240 . S
Cd296 O297 2.240 . S
Cd296 O304 2.223 . S
Cd296 O306 2.297 . S
Cd296 O307 2.439 . S
O297 Cd296 2.240 . S
O297 C302 1.279 . S
O298 Cd295 2.297 . S
O298 C300 1.247 . S
O299 Cd295 2.439 . S
O299 C300 1.208 . S
C300 O298 1.247 . S
C300 O299 1.208 . S
C301 O306 1.247 . S
C301 O307 1.208 . S
C302 O294 1.315 . S
C302 O297 1.279 . S
C303 O304 1.315 . S
C303 O305 1.279 . S
O304 Cd296 2.223 . S
O304 C303 1.315 . S
O305 Cd295 2.240 . S
O305 C303 1.279 . S
O306 Cd296 2.297 . S
O306 C301 1.247 . S
O307 Cd296 2.439 . S
O307 C301 1.208 . S
O308 Cd309 2.223 . S
O308 C316 1.315 . S
Cd309 O308 2.223 . S
Cd309 O312 2.297 . S
Cd309 O313 2.439 . S
Cd309 O319 2.240 . S
Cd310 O311 2.240 . S
Cd310 O318 2.223 . S
Cd310 O320 2.297 . S
Cd310 O321 2.439 . S
O311 Cd310 2.240 . S
O311 C316 1.279 . S
O312 Cd309 2.297 . S
O312 C314 1.247 . S
O313 Cd309 2.439 . S
O313 C314 1.208 . S
C314 O312 1.247 . S
C314 O313 1.208 . S
C315 O320 1.247 . S
C315 O321 1.208 . S
C316 O308 1.315 . S
C316 O311 1.279 . S
C317 O318 1.315 . S
C317 O319 1.279 . S
O318 Cd310 2.223 . S
O318 C317 1.315 . S
O319 Cd309 2.240 . S
O319 C317 1.279 . S
O320 Cd310 2.297 . S
O320 C315 1.247 . S
O321 Cd310 2.439 . S
O321 C315 1.208 . S
O322 Cd323 2.223 . S
O322 C330 1.315 . S
Cd323 O322 2.223 . S
Cd323 O326 2.297 . S
Cd323 O327 2.439 . S
Cd323 O333 2.240 . S
Cd324 O325 2.240 . S
Cd324 O332 2.223 . S
Cd324 O334 2.297 . S
Cd324 O335 2.439 . S
O325 Cd324 2.240 . S
O325 C330 1.279 . S
O326 Cd323 2.297 . S
O326 C328 1.247 . S
O327 Cd323 2.439 . S
O327 C328 1.208 . S
C328 O326 1.247 . S
C328 O327 1.208 . S
C329 O334 1.247 . S
C329 O335 1.208 . S
C330 O322 1.315 . S
C330 O325 1.279 . S
C331 O332 1.315 . S
C331 O333 1.279 . S
O332 Cd324 2.223 . S
O332 C331 1.315 . S
O333 Cd323 2.240 . S
O333 C331 1.279 . S
O334 Cd324 2.297 . S
O334 C329 1.247 . S
O335 Cd324 2.439 . S
O335 C329 1.208 . S
C336 C337 1.363 . S
C336 C342 1.379 . S
C336 N344 1.356 . S
C337 C336 1.363 . S
C337 C343 1.363 . S
C338 C339 1.363 . S
C338 C343 1.379 . S
C338 N345 1.356 . S
C339 C338 1.363 . S
C339 C342 1.363 . S
N340 C342 1.356 . S
N340 H352 0.984 . S
N340 H353 0.985 . S
N341 C343 1.356 . S
N341 H346 0.984 . S
N341 H347 0.985 . S
C342 C336 1.379 . S
C342 C339 1.363 . S
C342 N340 1.356 . S
C343 C337 1.363 . S
C343 C338 1.379 . S
C343 N341 1.356 . S
N344 C336 1.356 . S
N344 H350 0.984 . S
N344 H351 0.984 . S
N345 C338 1.356 . S
N345 H348 0.984 . S
N345 H349 0.985 . S
H346 N341 0.984 . S
H347 N341 0.985 . S
H348 N345 0.984 . S
H349 N345 0.985 . S
H350 N344 0.984 . S
H351 N344 0.984 . S
H352 N340 0.984 . S
H353 N340 0.985 . S
C354 C355 1.363 . S
C354 C360 1.379 . S
C354 N362 1.356 . S
C355 C354 1.363 . S
C355 C361 1.363 . S
C356 C357 1.363 . S
C356 C361 1.379 . S
C356 N363 1.356 . S
C357 C356 1.363 . S
C357 C360 1.363 . S
N358 C360 1.356 . S
N358 H370 0.984 . S
N358 H371 0.985 . S
N359 C361 1.356 . S
N359 H364 0.984 . S
N359 H365 0.985 . S
C360 C354 1.379 . S
C360 C357 1.363 . S
C360 N358 1.356 . S
C361 C355 1.363 . S
C361 C356 1.379 . S
C361 N359 1.356 . S
N362 C354 1.356 . S
N362 H368 0.984 . S
N362 H369 0.984 . S
N363 C356 1.356 . S
N363 H366 0.984 . S
N363 H367 0.985 . S
H364 N359 0.984 . S
H365 N359 0.985 . S
H366 N363 0.984 . S
H367 N363 0.985 . S
H368 N362 0.984 . S
H369 N362 0.984 . S
H370 N358 0.984 . S
H371 N358 0.985 . S
C372 C373 1.363 . S
C372 C378 1.379 . S
C372 N380 1.356 . S
C373 C372 1.363 . S
C373 C379 1.363 . S
C374 C375 1.363 . S
C374 C379 1.379 . S
C374 N381 1.356 . S
C375 C374 1.363 . S
C375 C378 1.363 . S
N376 C378 1.356 . S
N376 H388 0.984 . S
N376 H389 0.985 . S
N377 C379 1.356 . S
N377 H382 0.984 . S
N377 H383 0.985 . S
C378 C372 1.379 . S
C378 C375 1.363 . S
C378 N376 1.356 . S
C379 C373 1.363 . S
C379 C374 1.379 . S
C379 N377 1.356 . S
N380 C372 1.356 . S
N380 H386 0.984 . S
N380 H387 0.984 . S
N381 C374 1.356 . S
N381 H384 0.984 . S
N381 H385 0.985 . S
H382 N377 0.984 . S
H383 N377 0.985 . S
H384 N381 0.984 . S
H385 N381 0.985 . S
H386 N380 0.984 . S
H387 N380 0.984 . S
H388 N376 0.984 . S
H389 N376 0.985 . S
C390 C391 1.363 . S
C390 C396 1.379 . S
C390 N398 1.356 . S
C391 C390 1.363 . S
C391 C397 1.363 . S
C392 C393 1.363 . S
C392 C397 1.379 . S
C392 N399 1.356 . S
C393 C392 1.363 . S
C393 C396 1.363 . S
N394 C396 1.356 . S
N394 H406 0.984 . S
N394 H407 0.985 . S
N395 C397 1.356 . S
N395 H400 0.984 . S
N395 H401 0.985 . S
C396 C390 1.379 . S
C396 C393 1.363 . S
C396 N394 1.356 . S
C397 C391 1.363 . S
C397 C392 1.379 . S
C397 N395 1.356 . S
N398 C390 1.356 . S
N398 H404 0.984 . S
N398 H405 0.984 . S
N399 C392 1.356 . S
N399 H402 0.984 . S
N399 H403 0.985 . S
H400 N395 0.984 . S
H401 N395 0.985 . S
H402 N399 0.984 . S
H403 N399 0.985 . S
H404 N398 0.984 . S
H405 N398 0.984 . S
H406 N394 0.984 . S
H407 N394 0.985 . S
C408 C409 1.363 . S
C408 C414 1.379 . S
C408 N416 1.356 . S
C409 C408 1.363 . S
C409 C415 1.363 . S
C410 C411 1.363 . S
C410 C415 1.379 . S
C410 N417 1.356 . S
C411 C410 1.363 . S
C411 C414 1.363 . S
N412 C414 1.356 . S
N412 H424 0.984 . S
N412 H425 0.985 . S
N413 C415 1.356 . S
N413 H418 0.984 . S
N413 H419 0.985 . S
C414 C408 1.379 . S
C414 C411 1.363 . S
C414 N412 1.356 . S
C415 C409 1.363 . S
C415 C410 1.379 . S
C415 N413 1.356 . S
N416 C408 1.356 . S
N416 H422 0.984 . S
N416 H423 0.984 . S
N417 C410 1.356 . S
N417 H420 0.984 . S
N417 H421 0.985 . S
H418 N413 0.984 . S
H419 N413 0.985 . S
H420 N417 0.984 . S
H421 N417 0.985 . S
H422 N416 0.984 . S
H423 N416 0.984 . S
H424 N412 0.984 . S
H425 N412 0.985 . S
C426 C427 1.363 . S
C426 C432 1.379 . S
C426 N434 1.356 . S
C427 C426 1.363 . S
C427 C433 1.363 . S
C428 C429 1.363 . S
C428 C433 1.379 . S
C428 N435 1.356 . S
C429 C428 1.363 . S
C429 C432 1.363 . S
N430 C432 1.356 . S
N430 H442 0.984 . S
N430 H443 0.985 . S
N431 C433 1.356 . S
N431 H436 0.984 . S
N431 H437 0.985 . S
C432 C426 1.379 . S
C432 C429 1.363 . S
C432 N430 1.356 . S
C433 C427 1.363 . S
C433 C428 1.379 . S
C433 N431 1.356 . S
N434 C426 1.356 . S
N434 H440 0.984 . S
N434 H441 0.984 . S
N435 C428 1.356 . S
N435 H438 0.984 . S
N435 H439 0.985 . S
H436 N431 0.984 . S
H437 N431 0.985 . S
H438 N435 0.984 . S
H439 N435 0.985 . S
H440 N434 0.984 . S
H441 N434 0.984 . S
H442 N430 0.984 . S
H443 N430 0.985 . S
C444 C445 1.363 . S
C444 C450 1.379 . S
C444 N452 1.356 . S
C445 C444 1.363 . S
C445 C451 1.363 . S
C446 C447 1.363 . S
C446 C451 1.379 . S
C446 N453 1.356 . S
C447 C446 1.363 . S
C447 C450 1.363 . S
N448 C450 1.356 . S
N448 H460 0.984 . S
N448 H461 0.985 . S
N449 C451 1.356 . S
N449 H454 0.984 . S
N449 H455 0.985 . S
C450 C444 1.379 . S
C450 C447 1.363 . S
C450 N448 1.356 . S
C451 C445 1.363 . S
C451 C446 1.379 . S
C451 N449 1.356 . S
N452 C444 1.356 . S
N452 H458 0.984 . S
N452 H459 0.984 . S
N453 C446 1.356 . S
N453 H456 0.984 . S
N453 H457 0.985 . S
H454 N449 0.984 . S
H455 N449 0.985 . S
H456 N453 0.984 . S
H457 N453 0.985 . S
H458 N452 0.984 . S
H459 N452 0.984 . S
H460 N448 0.984 . S
H461 N448 0.985 . S
C462 C463 1.363 . S
C462 C468 1.379 . S
C462 N470 1.356 . S
C463 C462 1.363 . S
C463 C469 1.363 . S
C464 C465 1.363 . S
C464 C469 1.379 . S
C464 N471 1.356 . S
C465 C464 1.363 . S
C465 C468 1.363 . S
N466 C468 1.356 . S
N466 H478 0.984 . S
N466 H479 0.985 . S
N467 C469 1.356 . S
N467 H472 0.984 . S
N467 H473 0.985 . S
C468 C462 1.379 . S
C468 C465 1.363 . S
C468 N466 1.356 . S
C469 C463 1.363 . S
C469 C464 1.379 . S
C469 N467 1.356 . S
N470 C462 1.356 . S
N470 H476 0.984 . S
N470 H477 0.984 . S
N471 C464 1.356 . S
N471 H474 0.984 . S
N471 H475 0.985 . S
H472 N467 0.984 . S
H473 N467 0.985 . S
H474 N471 0.984 . S
H475 N471 0.985 . S
H476 N470 0.984 . S
H477 N470 0.984 . S
H478 N466 0.984 . S
H479 N466 0.985 . S
C480 C481 1.363 . S
C480 C486 1.379 . S
C480 N488 1.356 . S
C481 C480 1.363 . S
C481 C487 1.363 . S
C482 C483 1.363 . S
C482 C487 1.379 . S
C482 N489 1.356 . S
C483 C482 1.363 . S
C483 C486 1.363 . S
N484 C486 1.356 . S
N484 H496 0.984 . S
N484 H497 0.985 . S
N485 C487 1.356 . S
N485 H490 0.984 . S
N485 H491 0.985 . S
C486 C480 1.379 . S
C486 C483 1.363 . S
C486 N484 1.356 . S
C487 C481 1.363 . S
C487 C482 1.379 . S
C487 N485 1.356 . S
N488 C480 1.356 . S
N488 H494 0.984 . S
N488 H495 0.984 . S
N489 C482 1.356 . S
N489 H492 0.984 . S
N489 H493 0.985 . S
H490 N485 0.984 . S
H491 N485 0.985 . S
H492 N489 0.984 . S
H493 N489 0.985 . S
H494 N488 0.984 . S
H495 N488 0.984 . S
H496 N484 0.984 . S
H497 N484 0.985 . S
C498 C499 1.363 . S
C498 C504 1.379 . S
C498 N506 1.356 . S
C499 C498 1.363 . S
C499 C505 1.363 . S
C500 C501 1.363 . S
C500 C505 1.379 . S
C500 N507 1.356 . S
C501 C500 1.363 . S
C501 C504 1.363 . S
N502 C504 1.356 . S
N502 H514 0.984 . S
N502 H515 0.985 . S
N503 C505 1.356 . S
N503 H508 0.984 . S
N503 H509 0.985 . S
C504 C498 1.379 . S
C504 C501 1.363 . S
C504 N502 1.356 . S
C505 C499 1.363 . S
C505 C500 1.379 . S
C505 N503 1.356 . S
N506 C498 1.356 . S
N506 H512 0.984 . S
N506 H513 0.984 . S
N507 C500 1.356 . S
N507 H510 0.984 . S
N507 H511 0.985 . S
H508 N503 0.984 . S
H509 N503 0.985 . S
H510 N507 0.984 . S
H511 N507 0.985 . S
H512 N506 0.984 . S
H513 N506 0.984 . S
H514 N502 0.984 . S
H515 N502 0.985 . S
C516 C517 1.363 . S
C516 C522 1.379 . S
C516 N524 1.356 . S
C517 C516 1.363 . S
C517 C523 1.363 . S
C518 C519 1.363 . S
C518 C523 1.379 . S
C518 N525 1.356 . S
C519 C518 1.363 . S
C519 C522 1.363 . S
N520 C522 1.356 . S
N520 H532 0.984 . S
N520 H533 0.985 . S
N521 C523 1.356 . S
N521 H526 0.984 . S
N521 H527 0.985 . S
C522 C516 1.379 . S
C522 C519 1.363 . S
C522 N520 1.356 . S
C523 C517 1.363 . S
C523 C518 1.379 . S
C523 N521 1.356 . S
N524 C516 1.356 . S
N524 H530 0.984 . S
N524 H531 0.984 . S
N525 C518 1.356 . S
N525 H528 0.984 . S
N525 H529 0.985 . S
H526 N521 0.984 . S
H527 N521 0.985 . S
H528 N525 0.984 . S
H529 N525 0.985 . S
H530 N524 0.984 . S
H531 N524 0.984 . S
H532 N520 0.984 . S
H533 N520 0.985 . S
C534 C535 1.363 . S
C534 C540 1.379 . S
C534 N542 1.356 . S
C535 C534 1.363 . S
C535 C541 1.363 . S
C536 C537 1.363 . S
C536 C541 1.379 . S
C536 N543 1.356 . S
C537 C536 1.363 . S
C537 C540 1.363 . S
N538 C540 1.356 . S
N538 H550 0.984 . S
N538 H551 0.985 . S
N539 C541 1.356 . S
N539 H544 0.984 . S
N539 H545 0.985 . S
C540 C534 1.379 . S
C540 C537 1.363 . S
C540 N538 1.356 . S
C541 C535 1.363 . S
C541 C536 1.379 . S
C541 N539 1.356 . S
N542 C534 1.356 . S
N542 H548 0.984 . S
N542 H549 0.984 . S
N543 C536 1.356 . S
N543 H546 0.984 . S
N543 H547 0.985 . S
H544 N539 0.984 . S
H545 N539 0.985 . S
H546 N543 0.984 . S
H547 N543 0.985 . S
H548 N542 0.984 . S
H549 N542 0.984 . S
H550 N538 0.984 . S
H551 N538 0.985 . S
C552 C553 1.363 . S
C552 C558 1.379 . S
C552 N560 1.356 . S
C553 C552 1.363 . S
C553 C559 1.363 . S
C554 C555 1.363 . S
C554 C559 1.379 . S
C554 N561 1.356 . S
C555 C554 1.363 . S
C555 C558 1.363 . S
N556 C558 1.356 . S
N556 H568 0.984 . S
N556 H569 0.985 . S
N557 C559 1.356 . S
N557 H562 0.984 . S
N557 H563 0.985 . S
C558 C552 1.379 . S
C558 C555 1.363 . S
C558 N556 1.356 . S
C559 C553 1.363 . S
C559 C554 1.379 . S
C559 N557 1.356 . S
N560 C552 1.356 . S
N560 H566 0.984 . S
N560 H567 0.984 . S
N561 C554 1.356 . S
N561 H564 0.984 . S
N561 H565 0.985 . S
H562 N557 0.984 . S
H563 N557 0.985 . S
H564 N561 0.984 . S
H565 N561 0.985 . S
H566 N560 0.984 . S
H567 N560 0.984 . S
H568 N556 0.984 . S
H569 N556 0.985 . S
C570 C571 1.363 . S
C570 C576 1.379 . S
C570 N578 1.356 . S
C571 C570 1.363 . S
C571 C577 1.363 . S
C572 C573 1.363 . S
C572 C577 1.379 . S
C572 N579 1.356 . S
C573 C572 1.363 . S
C573 C576 1.363 . S
N574 C576 1.356 . S
N574 H586 0.984 . S
N574 H587 0.985 . S
N575 C577 1.356 . S
N575 H580 0.984 . S
N575 H581 0.985 . S
C576 C570 1.379 . S
C576 C573 1.363 . S
C576 N574 1.356 . S
C577 C571 1.363 . S
C577 C572 1.379 . S
C577 N575 1.356 . S
N578 C570 1.356 . S
N578 H584 0.984 . S
N578 H585 0.984 . S
N579 C572 1.356 . S
N579 H582 0.984 . S
N579 H583 0.985 . S
H580 N575 0.984 . S
H581 N575 0.985 . S
H582 N579 0.984 . S
H583 N579 0.985 . S
H584 N578 0.984 . S
H585 N578 0.984 . S
H586 N574 0.984 . S
H587 N574 0.985 . S
C588 C589 1.363 . S
C588 C594 1.379 . S
C588 N596 1.356 . S
C589 C588 1.363 . S
C589 C595 1.363 . S
C590 C591 1.363 . S
C590 C595 1.379 . S
C590 N597 1.356 . S
C591 C590 1.363 . S
C591 C594 1.363 . S
N592 C594 1.356 . S
N592 H604 0.984 . S
N592 H605 0.985 . S
N593 C595 1.356 . S
N593 H598 0.984 . S
N593 H599 0.985 . S
C594 C588 1.379 . S
C594 C591 1.363 . S
C594 N592 1.356 . S
C595 C589 1.363 . S
C595 C590 1.379 . S
C595 N593 1.356 . S
N596 C588 1.356 . S
N596 H602 0.984 . S
N596 H603 0.984 . S
N597 C590 1.356 . S
N597 H600 0.984 . S
N597 H601 0.985 . S
H598 N593 0.984 . S
H599 N593 0.985 . S
H600 N597 0.984 . S
H601 N597 0.985 . S
H602 N596 0.984 . S
H603 N596 0.984 . S
H604 N592 0.984 . S
H605 N592 0.985 . S
C606 C607 1.363 . S
C606 C612 1.379 . S
C606 N614 1.356 . S
C607 C606 1.363 . S
C607 C613 1.363 . S
C608 C609 1.363 . S
C608 C613 1.379 . S
C608 N615 1.356 . S
C609 C608 1.363 . S
C609 C612 1.363 . S
N610 C612 1.356 . S
N610 H622 0.984 . S
N610 H623 0.985 . S
N611 C613 1.356 . S
N611 H616 0.984 . S
N611 H617 0.985 . S
C612 C606 1.379 . S
C612 C609 1.363 . S
C612 N610 1.356 . S
C613 C607 1.363 . S
C613 C608 1.379 . S
C613 N611 1.356 . S
N614 C606 1.356 . S
N614 H620 0.984 . S
N614 H621 0.984 . S
N615 C608 1.356 . S
N615 H618 0.984 . S
N615 H619 0.985 . S
H616 N611 0.984 . S
H617 N611 0.985 . S
H618 N615 0.984 . S
H619 N615 0.985 . S
H620 N614 0.984 . S
H621 N614 0.984 . S
H622 N610 0.984 . S
H623 N610 0.985 . S
C624 C625 1.363 . S
C624 C630 1.379 . S
C624 N632 1.356 . S
C625 C624 1.363 . S
C625 C631 1.363 . S
C626 C627 1.363 . S
C626 C631 1.379 . S
C626 N633 1.356 . S
C627 C626 1.363 . S
C627 C630 1.363 . S
N628 C630 1.356 . S
N628 H640 0.984 . S
N628 H641 0.985 . S
N629 C631 1.356 . S
N629 H634 0.984 . S
N629 H635 0.985 . S
C630 C624 1.379 . S
C630 C627 1.363 . S
C630 N628 1.356 . S
C631 C625 1.363 . S
C631 C626 1.379 . S
C631 N629 1.356 . S
N632 C624 1.356 . S
N632 H638 0.984 . S
N632 H639 0.984 . S
N633 C626 1.356 . S
N633 H636 0.984 . S
N633 H637 0.985 . S
H634 N629 0.984 . S
H635 N629 0.985 . S
H636 N633 0.984 . S
H637 N633 0.985 . S
H638 N632 0.984 . S
H639 N632 0.984 . S
H640 N628 0.984 . S
H641 N628 0.985 . S
C642 C643 1.363 . S
C642 C648 1.379 . S
C642 N650 1.356 . S
C643 C642 1.363 . S
C643 C649 1.363 . S
C644 C645 1.363 . S
C644 C649 1.379 . S
C644 N651 1.356 . S
C645 C644 1.363 . S
C645 C648 1.363 . S
N646 C648 1.356 . S
N646 H658 0.984 . S
N646 H659 0.985 . S
N647 C649 1.356 . S
N647 H652 0.984 . S
N647 H653 0.985 . S
C648 C642 1.379 . S
C648 C645 1.363 . S
C648 N646 1.356 . S
C649 C643 1.363 . S
C649 C644 1.379 . S
C649 N647 1.356 . S
N650 C642 1.356 . S
N650 H656 0.984 . S
N650 H657 0.984 . S
N651 C644 1.356 . S
N651 H654 0.984 . S
N651 H655 0.985 . S
H652 N647 0.984 . S
H653 N647 0.985 . S
H654 N651 0.984 . S
H655 N651 0.985 . S
H656 N650 0.984 . S
H657 N650 0.984 . S
H658 N646 0.984 . S
H659 N646 0.985 . S
C660 C661 1.363 . S
C660 C666 1.379 . S
C660 N668 1.356 . S
C661 C660 1.363 . S
C661 C667 1.363 . S
C662 C663 1.363 . S
C662 C667 1.379 . S
C662 N669 1.356 . S
C663 C662 1.363 . S
C663 C666 1.363 . S
N664 C666 1.356 . S
N664 H676 0.984 . S
N664 H677 0.985 . S
N665 C667 1.356 . S
N665 H670 0.984 . S
N665 H671 0.985 . S
C666 C660 1.379 . S
C666 C663 1.363 . S
C666 N664 1.356 . S
C667 C661 1.363 . S
C667 C662 1.379 . S
C667 N665 1.356 . S
N668 C660 1.356 . S
N668 H674 0.984 . S
N668 H675 0.984 . S
N669 C662 1.356 . S
N669 H672 0.984 . S
N669 H673 0.985 . S
H670 N665 0.984 . S
H671 N665 0.985 . S
H672 N669 0.984 . S
H673 N669 0.985 . S
H674 N668 0.984 . S
H675 N668 0.984 . S
H676 N664 0.984 . S
H677 N664 0.985 . S
C678 C679 1.363 . S
C678 C684 1.379 . S
C678 N686 1.356 . S
C679 C678 1.363 . S
C679 C685 1.363 . S
C680 C681 1.363 . S
C680 C685 1.379 . S
C680 N687 1.356 . S
C681 C680 1.363 . S
C681 C684 1.363 . S
N682 C684 1.356 . S
N682 H694 0.984 . S
N682 H695 0.985 . S
N683 C685 1.356 . S
N683 H688 0.984 . S
N683 H689 0.985 . S
C684 C678 1.379 . S
C684 C681 1.363 . S
C684 N682 1.356 . S
C685 C679 1.363 . S
C685 C680 1.379 . S
C685 N683 1.356 . S
N686 C678 1.356 . S
N686 H692 0.984 . S
N686 H693 0.984 . S
N687 C680 1.356 . S
N687 H690 0.984 . S
N687 H691 0.985 . S
H688 N683 0.984 . S
H689 N683 0.985 . S
H690 N687 0.984 . S
H691 N687 0.985 . S
H692 N686 0.984 . S
H693 N686 0.984 . S
H694 N682 0.984 . S
H695 N682 0.985 . S
C696 C697 1.363 . S
C696 C702 1.379 . S
C696 N704 1.356 . S
C697 C696 1.363 . S
C697 C703 1.363 . S
C698 C699 1.363 . S
C698 C703 1.379 . S
C698 N705 1.356 . S
C699 C698 1.363 . S
C699 C702 1.363 . S
N700 C702 1.356 . S
N700 H712 0.984 . S
N700 H713 0.985 . S
N701 C703 1.356 . S
N701 H706 0.984 . S
N701 H707 0.985 . S
C702 C696 1.379 . S
C702 C699 1.363 . S
C702 N700 1.356 . S
C703 C697 1.363 . S
C703 C698 1.379 . S
C703 N701 1.356 . S
N704 C696 1.356 . S
N704 H710 0.984 . S
N704 H711 0.984 . S
N705 C698 1.356 . S
N705 H708 0.984 . S
N705 H709 0.985 . S
H706 N701 0.984 . S
H707 N701 0.985 . S
H708 N705 0.984 . S
H709 N705 0.985 . S
H710 N704 0.984 . S
H711 N704 0.984 . S
H712 N700 0.984 . S
H713 N700 0.985 . S
C714 C715 1.363 . S
C714 C720 1.379 . S
C714 N722 1.356 . S
C715 C714 1.363 . S
C715 C721 1.363 . S
C716 C717 1.363 . S
C716 C721 1.379 . S
C716 N723 1.356 . S
C717 C716 1.363 . S
C717 C720 1.363 . S
N718 C720 1.356 . S
N718 H730 0.984 . S
N718 H731 0.985 . S
N719 C721 1.356 . S
N719 H724 0.984 . S
N719 H725 0.985 . S
C720 C714 1.379 . S
C720 C717 1.363 . S
C720 N718 1.356 . S
C721 C715 1.363 . S
C721 C716 1.379 . S
C721 N719 1.356 . S
N722 C714 1.356 . S
N722 H728 0.984 . S
N722 H729 0.984 . S
N723 C716 1.356 . S
N723 H726 0.984 . S
N723 H727 0.985 . S
H724 N719 0.984 . S
H725 N719 0.985 . S
H726 N723 0.984 . S
H727 N723 0.985 . S
H728 N722 0.984 . S
H729 N722 0.984 . S
H730 N718 0.984 . S
H731 N718 0.985 . S
C732 C733 1.363 . S
C732 C738 1.379 . S
C732 N740 1.356 . S
C733 C732 1.363 . S
C733 C739 1.363 . S
C734 C735 1.363 . S
C734 C739 1.379 . S
C734 N741 1.356 . S
C735 C734 1.363 . S
C735 C738 1.363 . S
N736 C738 1.356 . S
N736 H748 0.984 . S
N736 H749 0.985 . S
N737 C739 1.356 . S
N737 H742 0.984 . S
N737 H743 0.985 . S
C738 C732 1.379 . S
C738 C735 1.363 . S
C738 N736 1.356 . S
C739 C733 1.363 . S
C739 C734 1.379 . S
C739 N737 1.356 . S
N740 C732 1.356 . S
N740 H746 0.984 . S
N740 H747 0.984 . S
N741 C734 1.356 . S
N741 H744 0.984 . S
N741 H745 0.985 . S
H742 N737 0.984 . S
H743 N737 0.985 . S
H744 N741 0.984 . S
H745 N741 0.985 . S
H746 N740 0.984 . S
H747 N740 0.984 . S
H748 N736 0.984 . S
H749 N736 0.985 . S
C750 C751 1.363 . S
C750 C756 1.379 . S
C750 N758 1.356 . S
C751 C750 1.363 . S
C751 C757 1.363 . S
C752 C753 1.363 . S
C752 C757 1.379 . S
C752 N759 1.356 . S
C753 C752 1.363 . S
C753 C756 1.363 . S
N754 C756 1.356 . S
N754 H766 0.984 . S
N754 H767 0.985 . S
N755 C757 1.356 . S
N755 H760 0.984 . S
N755 H761 0.985 . S
C756 C750 1.379 . S
C756 C753 1.363 . S
C756 N754 1.356 . S
C757 C751 1.363 . S
C757 C752 1.379 . S
C757 N755 1.356 . S
N758 C750 1.356 . S
N758 H764 0.984 . S
N758 H765 0.984 . S
N759 C752 1.356 . S
N759 H762 0.984 . S
N759 H763 0.985 . S
H760 N755 0.984 . S
H761 N755 0.985 . S
H762 N759 0.984 . S
H763 N759 0.985 . S
H764 N758 0.984 . S
H765 N758 0.984 . S
H766 N754 0.984 . S
H767 N754 0.985 . S
C768 C769 1.363 . S
C768 C774 1.379 1_455 S
C768 N776 1.356 . S
C769 C768 1.363 . S
C769 C775 1.363 . S
C770 C771 1.363 . S
C770 C775 1.379 1_655 S
C770 N777 1.356 . S
C771 C770 1.363 . S
C771 C774 1.363 . S
N772 C774 1.356 . S
N772 H784 0.984 . S
N772 H785 0.985 . S
N773 C775 1.356 . S
N773 H778 0.984 . S
N773 H779 0.985 . S
C774 C768 1.379 1_655 S
C774 C771 1.363 . S
C774 N772 1.356 . S
C775 C769 1.363 . S
C775 C770 1.379 1_455 S
C775 N773 1.356 . S
N776 C768 1.356 . S
N776 H782 0.984 . S
N776 H783 0.984 . S
N777 C770 1.356 . S
N777 H780 0.984 . S
N777 H781 0.985 . S
H778 N773 0.984 . S
H779 N773 0.985 . S
H780 N777 0.984 . S
H781 N777 0.985 . S
H782 N776 0.984 . S
H783 N776 0.984 . S
H784 N772 0.984 . S
H785 N772 0.985 . S
C786 C787 1.363 . S
C786 C792 1.379 1_545 S
C786 N794 1.356 . S
C787 C786 1.363 . S
C787 C793 1.363 . S
C788 C789 1.363 . S
C788 C793 1.379 1_565 S
C788 N795 1.356 . S
C789 C788 1.363 . S
C789 C792 1.363 . S
N790 C792 1.356 . S
N790 H802 0.984 . S
N790 H803 0.985 . S
N791 C793 1.356 . S
N791 H796 0.984 . S
N791 H797 0.985 . S
C792 C786 1.379 1_565 S
C792 C789 1.363 . S
C792 N790 1.356 . S
C793 C787 1.363 . S
C793 C788 1.379 1_545 S
C793 N791 1.356 . S
N794 C786 1.356 . S
N794 H800 0.984 . S
N794 H801 0.984 . S
N795 C788 1.356 . S
N795 H798 0.984 . S
N795 H799 0.985 . S
H796 N791 0.984 . S
H797 N791 0.985 . S
H798 N795 0.984 . S
H799 N795 0.985 . S
H800 N794 0.984 . S
H801 N794 0.984 . S
H802 N790 0.984 . S
H803 N790 0.985 . S
C804 C805 1.363 . S
C804 C810 1.379 1_655 S
C804 N812 1.356 . S
C805 C804 1.363 . S
C805 C811 1.363 . S
C806 C807 1.363 . S
C806 C811 1.379 1_455 S
C806 N813 1.356 . S
C807 C806 1.363 . S
C807 C810 1.363 . S
N808 C810 1.356 . S
N808 H820 0.984 . S
N808 H821 0.985 . S
N809 C811 1.356 . S
N809 H814 0.984 . S
N809 H815 0.985 . S
C810 C804 1.379 1_455 S
C810 C807 1.363 . S
C810 N808 1.356 . S
C811 C805 1.363 . S
C811 C806 1.379 1_655 S
C811 N809 1.356 . S
N812 C804 1.356 . S
N812 H818 0.984 . S
N812 H819 0.984 . S
N813 C806 1.356 . S
N813 H816 0.984 . S
N813 H817 0.985 . S
H814 N809 0.984 . S
H815 N809 0.985 . S
H816 N813 0.984 . S
H817 N813 0.985 . S
H818 N812 0.984 . S
H819 N812 0.984 . S
H820 N808 0.984 . S
H821 N808 0.985 . S
C822 C823 1.363 . S
C822 C828 1.379 1_545 S
C822 N830 1.356 . S
C823 C822 1.363 . S
C823 C829 1.363 . S
C824 C825 1.363 . S
C824 C829 1.379 1_565 S
C824 N831 1.356 . S
C825 C824 1.363 . S
C825 C828 1.363 . S
N826 C828 1.356 . S
N826 H838 0.984 . S
N826 H839 0.985 . S
N827 C829 1.356 . S
N827 H832 0.984 . S
N827 H833 0.985 . S
C828 C822 1.379 1_565 S
C828 C825 1.363 . S
C828 N826 1.356 . S
C829 C823 1.363 . S
C829 C824 1.379 1_545 S
C829 N827 1.356 . S
N830 C822 1.356 . S
N830 H836 0.984 . S
N830 H837 0.984 . S
N831 C824 1.356 . S
N831 H834 0.984 . S
N831 H835 0.985 . S
H832 N827 0.984 . S
H833 N827 0.985 . S
H834 N831 0.984 . S
H835 N831 0.985 . S
H836 N830 0.984 . S
H837 N830 0.984 . S
H838 N826 0.984 . S
H839 N826 0.985 . S
C840 C841 1.363 . S
C840 C846 1.379 1_565 S
C840 N848 1.356 . S
C841 C840 1.363 . S
C841 C847 1.363 . S
C842 C843 1.363 . S
C842 C847 1.379 1_545 S
C842 N849 1.356 . S
C843 C842 1.363 . S
C843 C846 1.363 . S
N844 C846 1.356 . S
N844 H856 0.984 . S
N844 H857 0.985 . S
N845 C847 1.356 . S
N845 H850 0.984 . S
N845 H851 0.985 . S
C846 C840 1.379 1_545 S
C846 C843 1.363 . S
C846 N844 1.356 . S
C847 C841 1.363 . S
C847 C842 1.379 1_565 S
C847 N845 1.356 . S
N848 C840 1.356 . S
N848 H854 0.984 . S
N848 H855 0.984 . S
N849 C842 1.356 . S
N849 H852 0.984 . S
N849 H853 0.985 . S
H850 N845 0.984 . S
H851 N845 0.985 . S
H852 N849 0.984 . S
H853 N849 0.985 . S
H854 N848 0.984 . S
H855 N848 0.984 . S
H856 N844 0.984 . S
H857 N844 0.985 . S
C858 C859 1.363 . S
C858 C864 1.379 1_655 S
C858 N866 1.356 . S
C859 C858 1.363 . S
C859 C865 1.363 . S
C860 C861 1.363 . S
C860 C865 1.379 1_455 S
C860 N867 1.356 . S
C861 C860 1.363 . S
C861 C864 1.363 . S
N862 C864 1.356 . S
N862 H874 0.984 . S
N862 H875 0.985 . S
N863 C865 1.356 . S
N863 H868 0.984 . S
N863 H869 0.985 . S
C864 C858 1.379 1_455 S
C864 C861 1.363 . S
C864 N862 1.356 . S
C865 C859 1.363 . S
C865 C860 1.379 1_655 S
C865 N863 1.356 . S
N866 C858 1.356 . S
N866 H872 0.984 . S
N866 H873 0.984 . S
N867 C860 1.356 . S
N867 H870 0.984 . S
N867 H871 0.985 . S
H868 N863 0.984 . S
H869 N863 0.985 . S
H870 N867 0.984 . S
H871 N867 0.985 . S
H872 N866 0.984 . S
H873 N866 0.984 . S
H874 N862 0.984 . S
H875 N862 0.985 . S
C876 C877 1.363 . S
C876 C882 1.379 1_565 S
C876 N884 1.356 . S
C877 C876 1.363 . S
C877 C883 1.363 . S
C878 C879 1.363 . S
C878 C883 1.379 1_545 S
C878 N885 1.356 . S
C879 C878 1.363 . S
C879 C882 1.363 . S
N880 C882 1.356 . S
N880 H892 0.984 . S
N880 H893 0.985 . S
N881 C883 1.356 . S
N881 H886 0.984 . S
N881 H887 0.985 . S
C882 C876 1.379 1_545 S
C882 C879 1.363 . S
C882 N880 1.356 . S
C883 C877 1.363 . S
C883 C878 1.379 1_565 S
C883 N881 1.356 . S
N884 C876 1.356 . S
N884 H890 0.984 . S
N884 H891 0.984 . S
N885 C878 1.356 . S
N885 H888 0.984 . S
N885 H889 0.985 . S
H886 N881 0.984 . S
H887 N881 0.985 . S
H888 N885 0.984 . S
H889 N885 0.985 . S
H890 N884 0.984 . S
H891 N884 0.984 . S
H892 N880 0.984 . S
H893 N880 0.985 . S
C894 C895 1.363 . S
C894 C900 1.379 1_655 S
C894 N902 1.356 . S
C895 C894 1.363 . S
C895 C901 1.363 . S
C896 C897 1.363 . S
C896 C901 1.379 1_455 S
C896 N903 1.356 . S
C897 C896 1.363 . S
C897 C900 1.363 . S
N898 C900 1.356 . S
N898 H910 0.984 . S
N898 H911 0.985 . S
N899 C901 1.356 . S
N899 H904 0.984 . S
N899 H905 0.985 . S
C900 C894 1.379 1_455 S
C900 C897 1.363 . S
C900 N898 1.356 . S
C901 C895 1.363 . S
C901 C896 1.379 1_655 S
C901 N899 1.356 . S
N902 C894 1.356 . S
N902 H908 0.984 . S
N902 H909 0.984 . S
N903 C896 1.356 . S
N903 H906 0.984 . S
N903 H907 0.985 . S
H904 N899 0.984 . S
H905 N899 0.985 . S
H906 N903 0.984 . S
H907 N903 0.985 . S
H908 N902 0.984 . S
H909 N902 0.984 . S
H910 N898 0.984 . S
H911 N898 0.985 . S
C912 C913 1.363 . S
C912 C918 1.379 1_556 S
C912 N920 1.356 . S
C913 C912 1.363 . S
C913 C919 1.363 . S
C914 C915 1.363 . S
C914 C919 1.379 1_554 S
C914 N921 1.356 . S
C915 C914 1.363 . S
C915 C918 1.363 . S
N916 C918 1.356 . S
N916 H928 0.984 . S
N916 H929 0.985 . S
N917 C919 1.356 . S
N917 H922 0.984 . S
N917 H923 0.985 . S
C918 C912 1.379 1_554 S
C918 C915 1.363 . S
C918 N916 1.356 . S
C919 C913 1.363 . S
C919 C914 1.379 1_556 S
C919 N917 1.356 . S
N920 C912 1.356 . S
N920 H926 0.984 . S
N920 H927 0.984 . S
N921 C914 1.356 . S
N921 H924 0.984 . S
N921 H925 0.985 . S
H922 N917 0.984 . S
H923 N917 0.985 . S
H924 N921 0.984 . S
H925 N921 0.985 . S
H926 N920 0.984 . S
H927 N920 0.984 . S
H928 N916 0.984 . S
H929 N916 0.985 . S
C930 C931 1.363 . S
C930 C936 1.379 1_556 S
C930 N938 1.356 . S
C931 C930 1.363 . S
C931 C937 1.363 . S
C932 C933 1.363 . S
C932 C937 1.379 1_554 S
C932 N939 1.356 . S
C933 C932 1.363 . S
C933 C936 1.363 . S
N934 C936 1.356 . S
N934 H946 0.984 . S
N934 H947 0.985 . S
N935 C937 1.356 . S
N935 H940 0.984 . S
N935 H941 0.985 . S
C936 C930 1.379 1_554 S
C936 C933 1.363 . S
C936 N934 1.356 . S
C937 C931 1.363 . S
C937 C932 1.379 1_556 S
C937 N935 1.356 . S
N938 C930 1.356 . S
N938 H944 0.984 . S
N938 H945 0.984 . S
N939 C932 1.356 . S
N939 H942 0.984 . S
N939 H943 0.985 . S
H940 N935 0.984 . S
H941 N935 0.985 . S
H942 N939 0.984 . S
H943 N939 0.985 . S
H944 N938 0.984 . S
H945 N938 0.984 . S
H946 N934 0.984 . S
H947 N934 0.985 . S
C948 C949 1.363 . S
C948 C954 1.379 1_556 S
C948 N956 1.356 . S
C949 C948 1.363 . S
C949 C955 1.363 . S
C950 C951 1.363 . S
C950 C955 1.379 1_554 S
C950 N957 1.356 . S
C951 C950 1.363 . S
C951 C954 1.363 . S
N952 C954 1.356 . S
N952 H964 0.984 . S
N952 H965 0.985 . S
N953 C955 1.356 . S
N953 H958 0.984 . S
N953 H959 0.985 . S
C954 C948 1.379 1_554 S
C954 C951 1.363 . S
C954 N952 1.356 . S
C955 C949 1.363 . S
C955 C950 1.379 1_556 S
C955 N953 1.356 . S
N956 C948 1.356 . S
N956 H962 0.984 . S
N956 H963 0.984 . S
N957 C950 1.356 . S
N957 H960 0.984 . S
N957 H961 0.985 . S
H958 N953 0.984 . S
H959 N953 0.985 . S
H960 N957 0.984 . S
H961 N957 0.985 . S
H962 N956 0.984 . S
H963 N956 0.984 . S
H964 N952 0.984 . S
H965 N952 0.985 . S
C966 C967 1.363 . S
C966 C972 1.379 1_556 S
C966 N974 1.356 . S
C967 C966 1.363 . S
C967 C973 1.363 . S
C968 C969 1.363 . S
C968 C973 1.379 1_554 S
C968 N975 1.356 . S
C969 C968 1.363 . S
C969 C972 1.363 . S
N970 C972 1.356 . S
N970 H982 0.984 . S
N970 H983 0.985 . S
N971 C973 1.356 . S
N971 H976 0.984 . S
N971 H977 0.985 . S
C972 C966 1.379 1_554 S
C972 C969 1.363 . S
C972 N970 1.356 . S
C973 C967 1.363 . S
C973 C968 1.379 1_556 S
C973 N971 1.356 . S
N974 C966 1.356 . S
N974 H980 0.984 . S
N974 H981 0.984 . S
N975 C968 1.356 . S
N975 H978 0.984 . S
N975 H979 0.985 . S
H976 N971 0.984 . S
H977 N971 0.985 . S
H978 N975 0.984 . S
H979 N975 0.985 . S
H980 N974 0.984 . S
H981 N974 0.984 . S
H982 N970 0.984 . S
H983 N970 0.985 . S
C984 C985 1.363 . S
C984 C990 1.379 . S
C984 N992 1.356 . S
C985 C984 1.363 . S
C985 C991 1.363 . S
C986 C987 1.363 . S
C986 C991 1.379 . S
C986 N993 1.356 . S
C987 C986 1.363 . S
C987 C990 1.363 . S
N988 C990 1.356 . S
N988 H1000 0.984 . S
N988 H1001 0.985 . S
N989 C991 1.356 . S
N989 H994 0.984 . S
N989 H995 0.985 . S
C990 C984 1.379 . S
C990 C987 1.363 . S
C990 N988 1.356 . S
C991 C985 1.363 . S
C991 C986 1.379 . S
C991 N989 1.356 . S
N992 C984 1.356 . S
N992 H998 0.984 . S
N992 H999 0.984 . S
N993 C986 1.356 . S
N993 H996 0.984 . S
N993 H997 0.985 . S
H994 N989 0.984 . S
H995 N989 0.985 . S
H996 N993 0.984 . S
H997 N993 0.985 . S
H998 N992 0.984 . S
H999 N992 0.984 . S
H1000 N988 0.984 . S
H1001 N988 0.985 . S
C1002 C1003 1.363 . S
C1002 C1008 1.379 . S
C1002 N1010 1.356 . S
C1003 C1002 1.363 . S
C1003 C1009 1.363 . S
C1004 C1005 1.363 . S
C1004 C1009 1.379 . S
C1004 N1011 1.356 . S
C1005 C1004 1.363 . S
C1005 C1008 1.363 . S
N1006 C1008 1.356 . S
N1006 H1018 0.984 . S
N1006 H1019 0.985 . S
N1007 C1009 1.356 . S
N1007 H1012 0.984 . S
N1007 H1013 0.985 . S
C1008 C1002 1.379 . S
C1008 C1005 1.363 . S
C1008 N1006 1.356 . S
C1009 C1003 1.363 . S
C1009 C1004 1.379 . S
C1009 N1007 1.356 . S
N1010 C1002 1.356 . S
N1010 H1016 0.984 . S
N1010 H1017 0.984 . S
N1011 C1004 1.356 . S
N1011 H1014 0.984 . S
N1011 H1015 0.985 . S
H1012 N1007 0.984 . S
H1013 N1007 0.985 . S
H1014 N1011 0.984 . S
H1015 N1011 0.985 . S
H1016 N1010 0.984 . S
H1017 N1010 0.984 . S
H1018 N1006 0.984 . S
H1019 N1006 0.985 . S
C1020 C1021 1.363 . S
C1020 C1026 1.379 . S
C1020 N1028 1.356 . S
C1021 C1020 1.363 . S
C1021 C1027 1.363 . S
C1022 C1023 1.363 . S
C1022 C1027 1.379 . S
C1022 N1029 1.356 . S
C1023 C1022 1.363 . S
C1023 C1026 1.363 . S
N1024 C1026 1.356 . S
N1024 H1036 0.984 . S
N1024 H1037 0.985 . S
N1025 C1027 1.356 . S
N1025 H1030 0.984 . S
N1025 H1031 0.985 . S
C1026 C1020 1.379 . S
C1026 C1023 1.363 . S
C1026 N1024 1.356 . S
C1027 C1021 1.363 . S
C1027 C1022 1.379 . S
C1027 N1025 1.356 . S
N1028 C1020 1.356 . S
N1028 H1034 0.984 . S
N1028 H1035 0.984 . S
N1029 C1022 1.356 . S
N1029 H1032 0.984 . S
N1029 H1033 0.985 . S
H1030 N1025 0.984 . S
H1031 N1025 0.985 . S
H1032 N1029 0.984 . S
H1033 N1029 0.985 . S
H1034 N1028 0.984 . S
H1035 N1028 0.984 . S
H1036 N1024 0.984 . S
H1037 N1024 0.985 . S
C1038 C1039 1.363 . S
C1038 C1044 1.379 . S
C1038 N1046 1.356 . S
C1039 C1038 1.363 . S
C1039 C1045 1.363 . S
C1040 C1041 1.363 . S
C1040 C1045 1.379 . S
C1040 N1047 1.356 . S
C1041 C1040 1.363 . S
C1041 C1044 1.363 . S
N1042 C1044 1.356 . S
N1042 H1054 0.984 . S
N1042 H1055 0.985 . S
N1043 C1045 1.356 . S
N1043 H1048 0.984 . S
N1043 H1049 0.985 . S
C1044 C1038 1.379 . S
C1044 C1041 1.363 . S
C1044 N1042 1.356 . S
C1045 C1039 1.363 . S
C1045 C1040 1.379 . S
C1045 N1043 1.356 . S
N1046 C1038 1.356 . S
N1046 H1052 0.984 . S
N1046 H1053 0.984 . S
N1047 C1040 1.356 . S
N1047 H1050 0.984 . S
N1047 H1051 0.985 . S
H1048 N1043 0.984 . S
H1049 N1043 0.985 . S
H1050 N1047 0.984 . S
H1051 N1047 0.985 . S
H1052 N1046 0.984 . S
H1053 N1046 0.984 . S
H1054 N1042 0.984 . S
H1055 N1042 0.985 . S
C1056 C1057 1.363 . S
C1056 C1062 1.379 . S
C1056 N1064 1.356 . S
C1057 C1056 1.363 . S
C1057 C1063 1.363 . S
C1058 C1059 1.363 . S
C1058 C1063 1.379 . S
C1058 N1065 1.356 . S
C1059 C1058 1.363 . S
C1059 C1062 1.363 . S
N1060 C1062 1.356 . S
N1060 H1072 0.984 . S
N1060 H1073 0.985 . S
N1061 C1063 1.356 . S
N1061 H1066 0.984 . S
N1061 H1067 0.985 . S
C1062 C1056 1.379 . S
C1062 C1059 1.363 . S
C1062 N1060 1.356 . S
C1063 C1057 1.363 . S
C1063 C1058 1.379 . S
C1063 N1061 1.356 . S
N1064 C1056 1.356 . S
N1064 H1070 0.984 . S
N1064 H1071 0.984 . S
N1065 C1058 1.356 . S
N1065 H1068 0.984 . S
N1065 H1069 0.985 . S
H1066 N1061 0.984 . S
H1067 N1061 0.985 . S
H1068 N1065 0.984 . S
H1069 N1065 0.985 . S
H1070 N1064 0.984 . S
H1071 N1064 0.984 . S
H1072 N1060 0.984 . S
H1073 N1060 0.985 . S
C1074 C1075 1.363 . S
C1074 C1080 1.379 . S
C1074 N1082 1.356 . S
C1075 C1074 1.363 . S
C1075 C1081 1.363 . S
C1076 C1077 1.363 . S
C1076 C1081 1.379 . S
C1076 N1083 1.356 . S
C1077 C1076 1.363 . S
C1077 C1080 1.363 . S
N1078 C1080 1.356 . S
N1078 H1090 0.984 . S
N1078 H1091 0.985 . S
N1079 C1081 1.356 . S
N1079 H1084 0.984 . S
N1079 H1085 0.985 . S
C1080 C1074 1.379 . S
C1080 C1077 1.363 . S
C1080 N1078 1.356 . S
C1081 C1075 1.363 . S
C1081 C1076 1.379 . S
C1081 N1079 1.356 . S
N1082 C1074 1.356 . S
N1082 H1088 0.984 . S
N1082 H1089 0.984 . S
N1083 C1076 1.356 . S
N1083 H1086 0.984 . S
N1083 H1087 0.985 . S
H1084 N1079 0.984 . S
H1085 N1079 0.985 . S
H1086 N1083 0.984 . S
H1087 N1083 0.985 . S
H1088 N1082 0.984 . S
H1089 N1082 0.984 . S
H1090 N1078 0.984 . S
H1091 N1078 0.985 . S
C1092 C1093 1.363 . S
C1092 C1098 1.379 . S
C1092 N1100 1.356 . S
C1093 C1092 1.363 . S
C1093 C1099 1.363 . S
C1094 C1095 1.363 . S
C1094 C1099 1.379 . S
C1094 N1101 1.356 . S
C1095 C1094 1.363 . S
C1095 C1098 1.363 . S
N1096 C1098 1.356 . S
N1096 H1108 0.984 . S
N1096 H1109 0.985 . S
N1097 C1099 1.356 . S
N1097 H1102 0.984 . S
N1097 H1103 0.985 . S
C1098 C1092 1.379 . S
C1098 C1095 1.363 . S
C1098 N1096 1.356 . S
C1099 C1093 1.363 . S
C1099 C1094 1.379 . S
C1099 N1097 1.356 . S
N1100 C1092 1.356 . S
N1100 H1106 0.984 . S
N1100 H1107 0.984 . S
N1101 C1094 1.356 . S
N1101 H1104 0.984 . S
N1101 H1105 0.985 . S
H1102 N1097 0.984 . S
H1103 N1097 0.985 . S
H1104 N1101 0.984 . S
H1105 N1101 0.985 . S
H1106 N1100 0.984 . S
H1107 N1100 0.984 . S
H1108 N1096 0.984 . S
H1109 N1096 0.985 . S
C1110 C1111 1.363 . S
C1110 C1116 1.379 . S
C1110 N1118 1.356 . S
C1111 C1110 1.363 . S
C1111 C1117 1.363 . S
C1112 C1113 1.363 . S
C1112 C1117 1.379 . S
C1112 N1119 1.356 . S
C1113 C1112 1.363 . S
C1113 C1116 1.363 . S
N1114 C1116 1.356 . S
N1114 H1126 0.984 . S
N1114 H1127 0.985 . S
N1115 C1117 1.356 . S
N1115 H1120 0.984 . S
N1115 H1121 0.985 . S
C1116 C1110 1.379 . S
C1116 C1113 1.363 . S
C1116 N1114 1.356 . S
C1117 C1111 1.363 . S
C1117 C1112 1.379 . S
C1117 N1115 1.356 . S
N1118 C1110 1.356 . S
N1118 H1124 0.984 . S
N1118 H1125 0.984 . S
N1119 C1112 1.356 . S
N1119 H1122 0.984 . S
N1119 H1123 0.985 . S
H1120 N1115 0.984 . S
H1121 N1115 0.985 . S
H1122 N1119 0.984 . S
H1123 N1119 0.985 . S
H1124 N1118 0.984 . S
H1125 N1118 0.984 . S
H1126 N1114 0.984 . S
H1127 N1114 0.985 . S
C1128 C1129 1.363 . S
C1128 C1134 1.379 . S
C1128 N1136 1.356 . S
C1129 C1128 1.363 . S
C1129 C1135 1.363 . S
C1130 C1131 1.363 . S
C1130 C1135 1.379 . S
C1130 N1137 1.356 . S
C1131 C1130 1.363 . S
C1131 C1134 1.363 . S
N1132 C1134 1.356 . S
N1132 H1144 0.984 . S
N1132 H1145 0.985 . S
N1133 C1135 1.356 . S
N1133 H1138 0.984 . S
N1133 H1139 0.985 . S
C1134 C1128 1.379 . S
C1134 C1131 1.363 . S
C1134 N1132 1.356 . S
C1135 C1129 1.363 . S
C1135 C1130 1.379 . S
C1135 N1133 1.356 . S
N1136 C1128 1.356 . S
N1136 H1142 0.984 . S
N1136 H1143 0.984 . S
N1137 C1130 1.356 . S
N1137 H1140 0.984 . S
N1137 H1141 0.985 . S
H1138 N1133 0.984 . S
H1139 N1133 0.985 . S
H1140 N1137 0.984 . S
H1141 N1137 0.985 . S
H1142 N1136 0.984 . S
H1143 N1136 0.984 . S
H1144 N1132 0.984 . S
H1145 N1132 0.985 . S
C1146 C1147 1.363 . S
C1146 C1152 1.379 . S
C1146 N1154 1.356 . S
C1147 C1146 1.363 . S
C1147 C1153 1.363 . S
C1148 C1149 1.363 . S
C1148 C1153 1.379 . S
C1148 N1155 1.356 . S
C1149 C1148 1.363 . S
C1149 C1152 1.363 . S
N1150 C1152 1.356 . S
N1150 H1162 0.984 . S
N1150 H1163 0.985 . S
N1151 C1153 1.356 . S
N1151 H1156 0.984 . S
N1151 H1157 0.985 . S
C1152 C1146 1.379 . S
C1152 C1149 1.363 . S
C1152 N1150 1.356 . S
C1153 C1147 1.363 . S
C1153 C1148 1.379 . S
C1153 N1151 1.356 . S
N1154 C1146 1.356 . S
N1154 H1160 0.984 . S
N1154 H1161 0.984 . S
N1155 C1148 1.356 . S
N1155 H1158 0.984 . S
N1155 H1159 0.985 . S
H1156 N1151 0.984 . S
H1157 N1151 0.985 . S
H1158 N1155 0.984 . S
H1159 N1155 0.985 . S
H1160 N1154 0.984 . S
H1161 N1154 0.984 . S
H1162 N1150 0.984 . S
H1163 N1150 0.985 . S
C1164 C1165 1.363 . S
C1164 C1170 1.379 . S
C1164 N1172 1.356 . S
C1165 C1164 1.363 . S
C1165 C1171 1.363 . S
C1166 C1167 1.363 . S
C1166 C1171 1.379 . S
C1166 N1173 1.356 . S
C1167 C1166 1.363 . S
C1167 C1170 1.363 . S
N1168 C1170 1.356 . S
N1168 H1180 0.984 . S
N1168 H1181 0.985 . S
N1169 C1171 1.356 . S
N1169 H1174 0.984 . S
N1169 H1175 0.985 . S
C1170 C1164 1.379 . S
C1170 C1167 1.363 . S
C1170 N1168 1.356 . S
C1171 C1165 1.363 . S
C1171 C1166 1.379 . S
C1171 N1169 1.356 . S
N1172 C1164 1.356 . S
N1172 H1178 0.984 . S
N1172 H1179 0.984 . S
N1173 C1166 1.356 . S
N1173 H1176 0.984 . S
N1173 H1177 0.985 . S
H1174 N1169 0.984 . S
H1175 N1169 0.985 . S
H1176 N1173 0.984 . S
H1177 N1173 0.985 . S
H1178 N1172 0.984 . S
H1179 N1172 0.984 . S
H1180 N1168 0.984 . S
H1181 N1168 0.985 . S
C1182 C1183 1.363 . S
C1182 C1188 1.379 . S
C1182 N1190 1.356 . S
C1183 C1182 1.363 . S
C1183 C1189 1.363 . S
C1184 C1185 1.363 . S
C1184 C1189 1.379 . S
C1184 N1191 1.356 . S
C1185 C1184 1.363 . S
C1185 C1188 1.363 . S
N1186 C1188 1.356 . S
N1186 H1198 0.984 . S
N1186 H1199 0.985 . S
N1187 C1189 1.356 . S
N1187 H1192 0.984 . S
N1187 H1193 0.985 . S
C1188 C1182 1.379 . S
C1188 C1185 1.363 . S
C1188 N1186 1.356 . S
C1189 C1183 1.363 . S
C1189 C1184 1.379 . S
C1189 N1187 1.356 . S
N1190 C1182 1.356 . S
N1190 H1196 0.984 . S
N1190 H1197 0.984 . S
N1191 C1184 1.356 . S
N1191 H1194 0.984 . S
N1191 H1195 0.985 . S
H1192 N1187 0.984 . S
H1193 N1187 0.985 . S
H1194 N1191 0.984 . S
H1195 N1191 0.985 . S
H1196 N1190 0.984 . S
H1197 N1190 0.984 . S
H1198 N1186 0.984 . S
H1199 N1186 0.985 . S
C337 C162 1.640 . S
C339 C7 1.459 . S
C355 C21 1.459 . S
C357 C120 1.640 . S
C373 C35 1.459 . S
C375 C134 1.640 . S
C391 C49 1.459 . S
C393 C148 1.640 . S
C409 C190 1.640 . S
C411 C63 1.459 . S
C427 C77 1.459 . S
C429 C204 1.640 . S
C445 C218 1.640 . S
C447 C91 1.459 . S
C463 C176 1.640 . S
C465 C105 1.459 . S
C481 C78 1.640 . S
C483 C119 1.459 . S
C499 C92 1.640 . S
C501 C133 1.459 . S
C517 C147 1.459 . S
C519 C106 1.640 . S
C535 C64 1.640 . S
C537 C161 1.459 . S
C553 C50 1.640 . S
C555 C175 1.459 . S
C571 C189 1.459 . S
C573 C8 1.640 . S
C589 C203 1.459 . S
C591 C22 1.640 . S
C607 C217 1.459 . S
C609 C36 1.640 . S
C625 C231 1.459 . S
C627 C330 1.640 . S
C643 C288 1.640 . S
C645 C245 1.459 . S
C661 C259 1.459 . S
C663 C246 1.640 . S
C679 C273 1.459 . S
C681 C260 1.640 . S
C697 C274 1.640 . S
C699 C287 1.459 . S
C715 C301 1.459 . S
C717 C316 1.640 . S
C733 C232 1.640 . S
C735 C315 1.459 . S
C751 C302 1.640 . S
C753 C329 1.459 . S
C769 C9 1.608 . S
C771 C93 1.608 . S
C787 C23 1.608 . S
C789 C107 1.608 . S
C805 C37 1.608 . S
C807 C65 1.608 . S
C823 C79 1.608 . S
C825 C51 1.608 . S
C841 C149 1.608 . S
C843 C121 1.608 . S
C859 C135 1.608 . S
C861 C163 1.608 . S
C877 C177 1.608 . S
C879 C205 1.608 . S
C895 C219 1.608 . S
C897 C191 1.608 . S
C913 C247 1.608 . S
C915 C233 1.608 . S
C931 C261 1.608 . S
C933 C331 1.608 . S
C949 C275 1.608 . S
C951 C303 1.608 . S
C967 C289 1.608 . S
C969 C317 1.608 . S
C985 C6 1.257 . S
C987 C76 1.257 . S
C1003 C20 1.257 . S
C1005 C90 1.257 . S
C1021 C34 1.257 . S
C1023 C104 1.257 . S
C1039 C62 1.257 . S
C1041 C48 1.257 . S
C1057 C118 1.257 . S
C1059 C328 1.257 . S
C1075 C132 1.257 . S
C1077 C300 1.257 . S
C1093 C314 1.257 . S
C1095 C146 1.257 . S
C1111 C160 1.257 . S
C1113 C230 1.257 . S
C1129 C286 1.257 . S
C1131 C174 1.257 . S
C1147 C244 1.257 . S
C1149 C188 1.257 . S
C1165 C202 1.257 . S
C1167 C258 1.257 . S
C1183 C272 1.257 . S
C1185 C216 1.257 . S
