# Generated by pormake.
# Topology unf, (4)-cn, num edge types: 1
# Building blocks:
#     Node 0, Type 0, BuildingBlock: ICAMEG_clean_sbu_1, # of connection points: 4
#     Node 1, Type 0, BuildingBlock: ICAMEG_clean_sbu_1, # of connection points: 4
#     Node 2, Type 0, BuildingBlock: ICAMEG_clean_sbu_1, # of connection points: 4
#     Node 3, Type 0, BuildingBlock: ICAMEG_clean_sbu_1, # of connection points: 4
#     Node 4, Type 0, BuildingBlock: ICAMEG_clean_sbu_1, # of connection points: 4
#     Node 5, Type 0, BuildingBlock: ICAMEG_clean_sbu_1, # of connection points: 4
#     Node 6, Type 0, BuildingBlock: ICAMEG_clean_sbu_1, # of connection points: 4
#     Node 7, Type 0, BuildingBlock: ICAMEG_clean_sbu_1, # of connection points: 4
#     Node 8, Type 0, BuildingBlock: ICAMEG_clean_sbu_1, # of connection points: 4
#     Node 9, Type 0, BuildingBlock: ICAMEG_clean_sbu_1, # of connection points: 4
#     Node 10, Type 0, BuildingBlock: ICAMEG_clean_sbu_1, # of connection points: 4
#     Node 11, Type 0, BuildingBlock: ICAMEG_clean_sbu_1, # of connection points: 4
#     Edge 12, Type (0, 0), BuildingBlock: ZUJKAS_clean_linker_0, # of connection points: 2
#     Edge 13, Type (0, 0), BuildingBlock: ZUJKAS_clean_linker_0, # of connection points: 2
#     Edge 14, Type (0, 0), BuildingBlock: ZUJKAS_clean_linker_0, # of connection points: 2
#     Edge 15, Type (0, 0), BuildingBlock: ZUJKAS_clean_linker_0, # of connection points: 2
#     Edge 16, Type (0, 0), BuildingBlock: ZUJKAS_clean_linker_0, # of connection points: 2
#     Edge 17, Type (0, 0), BuildingBlock: ZUJKAS_clean_linker_0, # of connection points: 2
#     Edge 18, Type (0, 0), BuildingBlock: ZUJKAS_clean_linker_0, # of connection points: 2
#     Edge 19, Type (0, 0), BuildingBlock: ZUJKAS_clean_linker_0, # of connection points: 2
#     Edge 20, Type (0, 0), BuildingBlock: ZUJKAS_clean_linker_0, # of connection points: 2
#     Edge 21, Type (0, 0), BuildingBlock: ZUJKAS_clean_linker_0, # of connection points: 2
#     Edge 22, Type (0, 0), BuildingBlock: ZUJKAS_clean_linker_0, # of connection points: 2
#     Edge 23, Type (0, 0), BuildingBlock: ZUJKAS_clean_linker_0, # of connection points: 2
#     Edge 24, Type (0, 0), BuildingBlock: ZUJKAS_clean_linker_0, # of connection points: 2
#     Edge 25, Type (0, 0), BuildingBlock: ZUJKAS_clean_linker_0, # of connection points: 2
#     Edge 26, Type (0, 0), BuildingBlock: ZUJKAS_clean_linker_0, # of connection points: 2
#     Edge 27, Type (0, 0), BuildingBlock: ZUJKAS_clean_linker_0, # of connection points: 2
#     Edge 28, Type (0, 0), BuildingBlock: ZUJKAS_clean_linker_0, # of connection points: 2
#     Edge 29, Type (0, 0), BuildingBlock: ZUJKAS_clean_linker_0, # of connection points: 2
#     Edge 30, Type (0, 0), BuildingBlock: ZUJKAS_clean_linker_0, # of connection points: 2
#     Edge 31, Type (0, 0), BuildingBlock: ZUJKAS_clean_linker_0, # of connection points: 2
#     Edge 32, Type (0, 0), BuildingBlock: ZUJKAS_clean_linker_0, # of connection points: 2
#     Edge 33, Type (0, 0), BuildingBlock: ZUJKAS_clean_linker_0, # of connection points: 2
#     Edge 34, Type (0, 0), BuildingBlock: ZUJKAS_clean_linker_0, # of connection points: 2
#     Edge 35, Type (0, 0), BuildingBlock: ZUJKAS_clean_linker_0, # of connection points: 2
# Relax obj value: 0.235
# Max RMSD: 0.193
# Mean RMSD: 0.193
data_MOF--net-unf--node1-ICAMEG_clean_sbu_1--edge1-ZUJKAS_clean_linker_0
_symmetry_space_group_name_H-M    P1
_symmetry_Int_Tables_number       1
_symmetry_cell_setting            triclinic
loop_
_symmetry_equiv_pos_as_xyz
'x, y, z'
_cell_length_a     49.057386
_cell_length_b     49.032781
_cell_length_c     52.447452
_cell_angle_alpha  89.992821
_cell_angle_beta   90.017844
_cell_angle_gamma 120.01933
loop_
_atom_site_label
_atom_site_type_symbol
_atom_site_fract_x
_atom_site_fract_y
_atom_site_fract_z
_atom_type_partial_charge
Co0 Co 0.14338 0.43164 0.05668 0.0
Co1 Co 0.09701 0.41007 0.11057 0.0
O2 O 0.13674 0.42237 0.09306 0.0
C3 C 0.16214 0.38341 0.06336 0.0
O4 O 0.13551 0.36627 0.07555 0.0
C5 C 0.14804 0.4596 0.1429 0.0
O6 O 0.16161 0.47557 0.12213 0.0
O7 O 0.09525 0.44715 0.09612 0.0
O8 O 0.11748 0.45256 0.0576 0.0
H9 H 0.98521 0.38689 0.11747 0.0
H10 H 0.19905 0.4498 0.08958 0.0
O11 O 0.16916 0.41046 0.0548 0.0
H12 H 0.2152 0.54918 0.05239 0.0
H13 H 0.20752 0.46482 0.97596 0.0
H14 H 0.10282 0.42876 0.01359 0.0
H15 H 0.16807 0.49862 0.04151 0.0
H16 H 0.19863 0.45355 0.02201 0.0
O17 O 0.12111 0.43472 0.14155 0.0
H18 H 0.03519 0.40223 0.09538 0.0
H19 H 0.07468 0.39135 0.16406 0.0
H20 H 0.11074 0.44003 0.96753 0.0
H21 H 0.24675 0.49977 0.10071 0.0
H22 H 0.16341 0.4582 0.94841 0.0
H23 H 0.25498 0.54995 0.08214 0.0
O24 O 0.10488 0.39117 0.0481 0.0
H25 H 0.14817 0.35416 0.15152 0.0
H26 H 0.05024 0.34145 0.11415 0.0
H27 H 0.05149 0.29476 0.12999 0.0
H28 H 0.10071 0.30096 0.1489 0.0
H29 H 0.14601 0.40016 0.1352 0.0
H30 H 0.02519 0.3761 0.18694 0.0
H31 H 0.97997 0.3737 0.1636 0.0
O32 O 0.07224 0.3844 0.08057 0.0
C33 C 0.10115 0.45821 0.07339 0.0
C34 C 0.00475 0.38787 0.12786 0.0
C35 C 0.0272 0.38187 0.16685 0.0
N36 N 0.0579 0.39785 0.12842 0.0
C37 C 0.03312 0.39655 0.11545 0.0
C38 C 0.05523 0.39067 0.15381 0.0
C39 C 1.00183 0.38049 0.15374 0.0
C40 C 0.20265 0.47149 0.08119 0.0
N41 N 0.18081 0.47128 0.0649 0.0
C42 C 0.22963 0.49974 0.08767 0.0
C43 C 0.2342 0.52789 0.07729 0.0
C44 C 0.21186 0.52747 0.06062 0.0
C45 C 0.18514 0.49879 0.05462 0.0
C46 C 0.18448 0.45697 0.98407 0.0
C47 C 0.12586 0.43684 1.00546 0.0
C48 C 0.17929 0.45049 0.01012 0.0
N49 N 0.1503 0.44074 0.02051 0.0
C50 C 0.13018 0.4431 0.97934 0.0
C51 C 0.15972 0.45326 0.96863 0.0
C52 C 0.07774 0.37728 0.0585 0.0
C53 C 0.12655 0.35117 0.14341 0.0
C54 C 0.07177 0.34436 0.12229 0.0
C55 C 0.07232 0.31782 0.13128 0.0
C56 C 0.09993 0.32132 0.1419 0.0
N57 N 0.09795 0.37359 0.1239 0.0
C58 C 0.12512 0.37718 0.13425 0.0
Co59 Co 0.57315 0.71363 0.05734 0.0
Co60 Co 0.59417 0.68866 0.11141 0.0
O61 O 0.58212 0.7162 0.09377 0.0
C62 C 0.6214 0.78063 0.06408 0.0
O63 O 0.63859 0.77106 0.0761 0.0
C64 C 0.54459 0.69032 0.14347 0.0
O65 O 0.52866 0.68776 0.12264 0.0
O66 O 0.55709 0.64992 0.09688 0.0
O67 O 0.55227 0.66677 0.05818 0.0
H68 H 0.61665 0.59956 0.11868 0.0
H69 H 0.55467 0.75105 0.09003 0.0
O70 O 0.59431 0.76064 0.05557 0.0
H71 H 0.4557 0.66773 0.05236 0.0
H72 H 0.54067 0.74489 0.97639 0.0
H73 H 0.57647 0.67614 0.01429 0.0
H74 H 0.50636 0.67127 0.04182 0.0
H75 H 0.55152 0.74708 0.0225 0.0
O76 O 0.56944 0.68823 0.14226 0.0
H77 H 0.60163 0.63438 0.09643 0.0
H78 H 0.61263 0.68499 0.16499 0.0
H79 H 0.56566 0.67301 0.96815 0.0
H80 H 0.50459 0.74866 0.10082 0.0
H81 H 0.54761 0.70755 0.9489 0.0
H82 H 0.45461 0.70667 0.08201 0.0
O83 O 0.61368 0.71563 0.04904 0.0
H84 H 0.65012 0.79571 0.15246 0.0
H85 H 0.6627 0.71028 0.11532 0.0
H86 H 0.70936 0.75812 0.13135 0.0
H87 H 0.70323 0.80124 0.15015 0.0
H88 H 0.60416 0.74766 0.13593 0.0
H89 H 0.62755 0.65057 0.18802 0.0
H90 H 0.62973 0.60754 0.16482 0.0
O91 O 0.61995 0.68945 0.08156 0.0
C92 C 0.54635 0.64475 0.07404 0.0
C93 C 0.61577 0.61822 0.129 0.0
C94 C 0.62184 0.64681 0.16793 0.0
N95 N 0.60613 0.66163 0.12939 0.0
C96 C 0.60729 0.63802 0.1165 0.0
C97 C 0.61322 0.66614 0.1548 0.0
C98 C 0.62309 0.6227 0.1549 0.0
C99 C 0.53307 0.73294 0.08153 0.0
N100 N 0.53344 0.71134 0.06529 0.0
C101 C 0.50476 0.7316 0.08782 0.0
C102 C 0.47673 0.708 0.0773 0.0
C103 C 0.47731 0.68612 0.06069 0.0
C104 C 0.50605 0.68815 0.05488 0.0
C105 C 0.54847 0.72968 0.98456 0.0
C106 C 0.56845 0.69112 1.00609 0.0
C107 C 0.5547 0.73086 0.01065 0.0
N108 N 0.56439 0.71159 0.02111 0.0
C109 C 0.56245 0.6893 0.97994 0.0
C110 C 0.55235 0.70871 0.96915 0.0
C111 C 0.62736 0.70221 0.05954 0.0
C112 C 0.65308 0.77704 0.1444 0.0
C113 C 0.65982 0.72895 0.1234 0.0
C114 C 0.68633 0.75597 0.1325 0.0
C115 C 0.68288 0.78015 0.14306 0.0
N116 N 0.63064 0.72602 0.12484 0.0
C117 C 0.6271 0.74967 0.13512 0.0
Co118 Co 0.29069 0.86031 0.0581 0.0
Co119 Co 0.31579 0.90726 0.1116 0.0
O120 O 0.28823 0.86739 0.09437 0.0
C121 C 0.22357 0.84182 0.06384 0.0
O122 O 0.23278 0.86952 0.0741 0.0
C123 C 0.31452 0.85656 0.14414 0.0
O124 O 0.31724 0.84311 0.12342 0.0
O125 O 0.35448 0.90874 0.09722 0.0
O126 O 0.33752 0.88635 0.05875 0.0
H127 H 0.40486 0.019 0.11788 0.0
H128 H 0.25353 0.80498 0.09148 0.0
O129 O 0.24372 0.83429 0.05663 0.0
H130 H 0.33658 0.78868 0.05425 0.0
H131 H 0.25881 0.79496 0.97799 0.0
H132 H 0.32797 0.90026 0.01458 0.0
H133 H 0.33298 0.83564 0.04309 0.0
H134 H 0.25697 0.80453 0.02397 0.0
O135 O 0.31633 0.88338 0.14273 0.0
H136 H 0.36994 0.96883 0.09608 0.0
H137 H 0.31969 0.93016 0.16494 0.0
H138 H 0.33076 0.89165 0.96857 0.0
H139 H 0.25598 0.75746 0.10289 0.0
H140 H 0.29601 0.83869 0.94998 0.0
H141 H 0.29783 0.74914 0.0843 0.0
O142 O 0.2887 0.89874 0.0492 0.0
H143 H 0.2087 0.85657 0.15242 0.0
H144 H 0.29429 0.9543 0.11504 0.0
H145 H 0.24647 0.95331 0.13077 0.0
H146 H 0.20326 0.9042 0.14969 0.0
H147 H 0.25677 0.85849 0.13623 0.0
H148 H 0.35422 0.97985 0.18753 0.0
H149 H 0.39712 0.02475 0.16395 0.0
O150 O 0.31484 0.93178 0.08143 0.0
C151 C 0.35957 0.90276 0.07449 0.0
C152 C 0.38626 0.99961 0.12837 0.0
C153 C 0.35787 0.97761 0.16746 0.0
N154 N 0.34286 0.94653 0.12922 0.0
C155 C 0.36639 0.97113 0.11612 0.0
C156 C 0.33848 0.94948 0.15459 0.0
C157 C 0.38192 0.00281 0.15422 0.0
C158 C 0.27158 0.80135 0.08308 0.0
N159 N 0.29307 0.82305 0.06662 0.0
C160 C 0.27295 0.77447 0.08971 0.0
C161 C 0.29648 0.76985 0.07932 0.0
C162 C 0.31826 0.79206 0.06249 0.0
C163 C 0.3162 0.81868 0.05633 0.0
C164 C 0.27412 0.81813 0.98588 0.0
C165 C 0.31291 0.87709 0.00668 0.0
C166 C 0.27314 0.8237 0.01188 0.0
N167 N 0.29252 0.85286 0.02199 0.0
C168 C 0.31453 0.87238 0.98059 0.0
C169 C 0.295 0.84267 0.97017 0.0
C170 C 0.30205 0.92602 0.0594 0.0
C171 C 0.22741 0.87815 0.1443 0.0
C172 C 0.27559 0.93282 0.12318 0.0
C173 C 0.24858 0.93242 0.13211 0.0
C174 C 0.22436 0.90486 0.14273 0.0
N175 N 0.27848 0.90656 0.12486 0.0
C176 C 0.25478 0.87943 0.1352 0.0
Co177 Co 0.57289 0.85966 0.4569 0.0
Co178 Co 0.5938 0.90589 0.40299 0.0
O179 O 0.58184 0.86624 0.42048 0.0
C180 C 0.62113 0.84107 0.44984 0.0
O181 O 0.63823 0.86792 0.43791 0.0
C182 C 0.54438 0.85465 0.37076 0.0
O183 O 0.52852 0.84106 0.39157 0.0
O184 O 0.5566 0.90723 0.41753 0.0
O185 O 0.552 0.88563 0.45623 0.0
H186 H 0.61554 0.01728 0.39618 0.0
H187 H 0.55435 0.80379 0.4241 0.0
O188 O 0.59408 0.83386 0.45848 0.0
H189 H 0.45544 0.78799 0.4619 0.0
H190 H 0.54059 0.7955 0.53763 0.0
H191 H 0.57623 0.90026 0.50014 0.0
H192 H 0.50612 0.83516 0.47243 0.0
H193 H 0.55134 0.8044 0.49153 0.0
O194 O 0.56915 0.88167 0.37206 0.0
H195 H 0.60083 0.96739 0.41823 0.0
H196 H 0.61229 0.9284 0.3495 0.0
H197 H 0.56551 0.89234 0.54628 0.0
H198 H 0.50425 0.75605 0.41331 0.0
H199 H 0.54755 0.83964 0.56532 0.0
H200 H 0.45431 0.74798 0.43219 0.0
O201 O 0.6134 0.8982 0.46526 0.0
H202 H 0.65025 0.85543 0.36188 0.0
H203 H 0.66224 0.95315 0.39916 0.0
H204 H 0.70907 0.95233 0.38319 0.0
H205 H 0.70324 0.90322 0.36433 0.0
H206 H 0.60411 0.85718 0.37834 0.0
H207 H 0.62692 0.97781 0.32666 0.0
H208 H 0.6287 0.02273 0.35005 0.0
O209 O 0.61951 0.93084 0.43294 0.0
C210 C 0.54598 0.90168 0.4404 0.0
C211 C 0.61485 0.99788 0.38578 0.0
C212 C 0.62118 0.97571 0.34675 0.0
N213 N 0.6056 0.94495 0.38517 0.0
C214 C 0.60654 0.96956 0.39817 0.0
C215 C 0.61274 0.94773 0.35977 0.0
C216 C 0.62221 1.00091 0.35989 0.0
C217 C 0.53276 0.80027 0.43262 0.0
N218 N 0.53316 0.82223 0.4489 0.0
C219 C 0.50445 0.77327 0.42634 0.0
C220 C 0.47643 0.76879 0.43689 0.0
C221 C 0.47704 0.79125 0.45353 0.0
C222 C 0.50579 0.81799 0.45934 0.0
C223 C 0.54835 0.81855 0.52955 0.0
C224 C 0.56824 0.87721 0.50825 0.0
C225 C 0.55453 0.82375 0.50347 0.0
N226 N 0.56417 0.85275 0.49312 0.0
C227 C 0.56229 0.87289 0.5344 0.0
C228 C 0.55225 0.84333 0.54508 0.0
C229 C 0.62699 0.92538 0.4549 0.0
C230 C 0.65308 0.87701 0.36997 0.0
C231 C 0.65949 0.93167 0.39105 0.0
C232 C 0.6861 0.93136 0.38198 0.0
C233 C 0.68281 0.90381 0.37138 0.0
N234 N 0.63039 0.90531 0.38954 0.0
C235 C 0.627 0.87819 0.37921 0.0
Co236 Co 0.14426 0.71439 0.45715 0.0
Co237 Co 0.09856 0.68885 0.403 0.0
O238 O 0.13804 0.71668 0.42065 0.0
C239 C 0.16307 0.78131 0.44986 0.0
O240 O 0.13633 0.77161 0.43778 0.0
C241 C 0.15013 0.69096 0.3711 0.0
O242 O 0.16354 0.68859 0.39197 0.0
O243 O 0.0973 0.65038 0.41767 0.0
O244 O 0.11825 0.66749 0.45654 0.0
H245 H 0.98741 0.59889 0.39572 0.0
H246 H 0.20041 0.75154 0.42462 0.0
O247 O 0.17012 0.76141 0.45866 0.0
H248 H 0.21572 0.66847 0.46323 0.0
H249 H 0.20758 0.74642 0.53831 0.0
H250 H 0.10322 0.6773 0.50024 0.0
H251 H 0.16852 0.67208 0.47326 0.0
H252 H 0.19918 0.74813 0.4921 0.0
O253 O 0.12306 0.68857 0.37223 0.0
H254 H 0.03707 0.63422 0.418 0.0
H255 H 0.07644 0.68475 0.34936 0.0
H256 H 0.11065 0.67465 0.54648 0.0
H257 H 0.24818 0.74907 0.41433 0.0
H258 H 0.16315 0.70938 0.56582 0.0
H259 H 0.25601 0.70722 0.43362 0.0
O260 O 0.10571 0.71647 0.46509 0.0
H261 H 0.14883 0.79568 0.36163 0.0
H262 H 0.05117 0.70981 0.39886 0.0
H263 H 0.05185 0.75732 0.38261 0.0
H264 H 0.10092 0.80065 0.36376 0.0
H265 H 0.14724 0.74796 0.37838 0.0
H266 H 0.02728 0.64982 0.3263 0.0
H267 H 0.98229 0.60657 0.34952 0.0
O268 O 0.07335 0.68947 0.43277 0.0
C269 C 0.10251 0.64536 0.44067 0.0
C270 C 0.00685 0.61764 0.38538 0.0
C271 C 0.02925 0.64619 0.34642 0.0
N272 N 0.05969 0.66147 0.385 0.0
C273 C 0.03504 0.63774 0.3979 0.0
C274 C 0.05709 0.66581 0.35956 0.0
C275 C 0.004 0.62195 0.35946 0.0
C276 C 0.20382 0.73348 0.43332 0.0
N277 N 0.18171 0.712 0.44954 0.0
C278 C 0.23084 0.73211 0.42732 0.0
C279 C 0.23518 0.70858 0.43811 0.0
C280 C 0.21257 0.6868 0.45469 0.0
C281 C 0.18581 0.68887 0.46021 0.0
C282 C 0.18462 0.73112 0.5301 0.0
C283 C 0.12619 0.69236 0.50847 0.0
C284 C 0.1797 0.73203 0.50396 0.0
N285 N 0.1508 0.71266 0.49345 0.0
C286 C 0.13023 0.69081 0.53469 0.0
C287 C 0.15968 0.71033 0.54552 0.0
C288 C 0.0786 0.70261 0.45464 0.0
C289 C 0.12727 0.77691 0.36971 0.0
C290 C 0.07265 0.72858 0.39076 0.0
C291 C 0.07287 0.75541 0.38153 0.0
C292 C 0.1004 0.7797 0.37095 0.0
N293 N 0.09907 0.72595 0.38942 0.0
C294 C 0.12617 0.74973 0.37912 0.0
Co295 Co 0.29056 0.4324 0.45651 0.0
Co296 Co 0.31522 0.41124 0.40237 0.0
O297 O 0.28775 0.42329 0.4201 0.0
C298 C 0.22356 0.38414 0.44998 0.0
O299 O 0.23302 0.36702 0.43771 0.0
C300 C 0.3131 0.46057 0.37021 0.0
O301 O 0.31569 0.47657 0.391 0.0
O302 O 0.354 0.44847 0.41668 0.0
O303 O 0.33739 0.45333 0.45546 0.0
H304 H 0.40444 0.38904 0.3948 0.0
H305 H 0.25288 0.45073 0.42399 0.0
O306 O 0.24361 0.41119 0.45852 0.0
H307 H 0.33634 0.54991 0.46129 0.0
H308 H 0.25985 0.46512 0.53759 0.0
H309 H 0.32835 0.42925 0.4994 0.0
H310 H 0.33296 0.49929 0.47183 0.0
H311 H 0.25736 0.45415 0.49149 0.0
O312 O 0.31536 0.4358 0.37147 0.0
H313 H 0.36967 0.404 0.41716 0.0
H314 H 0.31859 0.39258 0.34879 0.0
H315 H 0.33178 0.44019 0.54553 0.0
H316 H 0.2551 0.50076 0.41321 0.0
H317 H 0.29736 0.45827 0.56492 0.0
H318 H 0.29715 0.55084 0.43183 0.0
O319 O 0.28865 0.3919 0.46483 0.0
H320 H 0.20796 0.35481 0.36177 0.0
H321 H 0.29377 0.34271 0.39867 0.0
H322 H 0.24592 0.29586 0.38289 0.0
H323 H 0.20261 0.30175 0.36421 0.0
H324 H 0.25602 0.40095 0.37805 0.0
H325 H 0.35295 0.37771 0.32565 0.0
H326 H 0.3962 0.37578 0.34869 0.0
O327 O 0.31474 0.38564 0.43227 0.0
C328 C 0.3593 0.45927 0.43951 0.0
C329 C 0.38569 0.38981 0.38454 0.0
C330 C 0.35683 0.38351 0.34572 0.0
N331 N 0.34219 0.3993 0.3843 0.0
C332 C 0.36591 0.39826 0.3971 0.0
C333 C 0.33753 0.39209 0.35891 0.0
C334 C 0.38107 0.3824 0.35867 0.0
C335 C 0.27102 0.47237 0.43241 0.0
N336 N 0.29275 0.47208 0.44854 0.0
C337 C 0.27226 0.50066 0.42612 0.0
C338 C 0.2959 0.52875 0.43654 0.0
C339 C 0.31792 0.52825 0.45304 0.0
C340 C 0.31598 0.49953 0.45885 0.0
C341 C 0.27501 0.45731 0.52936 0.0
C342 C 0.31342 0.43729 0.50766 0.0
C343 C 0.27366 0.451 0.50327 0.0
N344 N 0.29286 0.4413 0.49273 0.0
C345 C 0.31541 0.44336 0.53381 0.0
C346 C 0.29607 0.45348 0.54468 0.0
C347 C 0.30209 0.37826 0.45433 0.0
C348 C 0.22672 0.35195 0.36978 0.0
C349 C 0.27502 0.34548 0.39064 0.0
C350 C 0.24799 0.31886 0.38168 0.0
C351 C 0.22371 0.32219 0.37119 0.0
N352 N 0.27785 0.37463 0.38913 0.0
C353 C 0.25409 0.37804 0.37892 0.0
Co354 Co 0.86073 0.57132 0.95526 0.0
Co355 Co 0.90719 0.59789 0.9012 0.0
O356 O 0.86735 0.58288 0.91926 0.0
C357 C 0.84176 0.61959 0.95124 0.0
O358 O 0.86827 0.63722 0.93903 0.0
C359 C 0.85762 0.547 0.86863 0.0
O360 O 0.84506 0.52986 0.88912 0.0
O361 O 0.91222 0.56228 0.9149 0.0
O362 O 0.88679 0.55083 0.95249 0.0
H363 H 0.02098 0.62829 0.89289 0.0
H364 H 0.80534 0.55512 0.92254 0.0
O365 O 0.83484 0.59222 0.95892 0.0
H366 H 0.78942 0.45361 0.95457 0.0
H367 H 0.7961 0.53288 0.03552 0.0
H368 H 0.90079 0.57047 0.99736 0.0
H369 H 0.83621 0.50352 0.96731 0.0
H370 H 0.80538 0.54743 0.99002 0.0
O371 O 0.88366 0.57285 0.87024 0.0
H372 H 0.97068 0.60972 0.9155 0.0
H373 H 0.92824 0.61813 0.8476 0.0
H374 H 0.89248 0.55591 0.04284 0.0
H375 H 0.75805 0.50579 0.90953 0.0
H376 H 0.83982 0.53697 0.06223 0.0
H377 H 0.74992 0.45455 0.92551 0.0
O378 O 0.89921 0.61123 0.96531 0.0
H379 H 0.84841 0.64775 0.86324 0.0
H380 H 0.95067 0.66709 0.89621 0.0
H381 H 0.94533 0.71188 0.88129 0.0
H382 H 0.89389 0.70232 0.8646 0.0
H383 H 0.85471 0.60376 0.87868 0.0
H384 H 0.97801 0.63653 0.8242 0.0
H385 H 0.02487 0.64182 0.84689 0.0
O386 O 0.93117 0.62421 0.93117 0.0
C387 C 0.90513 0.54841 0.93662 0.0
C388 C 1.00073 0.62609 0.88279 0.0
C389 C 0.9766 0.63066 0.84423 0.0
N390 N 0.94651 0.61277 0.8829 0.0
C391 C 0.97219 0.61562 0.8955 0.0
C392 C 0.94842 0.62007 0.85756 0.0
C393 C 0.00289 0.63365 0.85698 0.0
C394 C 0.80179 0.53294 0.9298 0.0
N395 N 0.82347 0.5322 0.94572 0.0
C396 C 0.77504 0.50508 0.92227 0.0
C397 C 0.77053 0.47633 0.9312 0.0
C398 C 0.79271 0.47578 0.94748 0.0
C399 C 0.81921 0.50411 0.95456 0.0
C400 C 0.81915 0.5411 0.02729 0.0
C401 C 0.87778 0.56215 1.00561 0.0
C402 C 0.82457 0.54947 1.00156 0.0
N403 N 0.85358 0.55972 0.99102 0.0
C404 C 0.87323 0.55399 0.0314 0.0
C405 C 0.84368 0.54338 0.04226 0.0
C406 C 0.9256 0.62823 0.95423 0.0
C407 C 0.87095 0.65222 0.87046 0.0
C408 C 0.92818 0.66279 0.8892 0.0
C409 C 0.92531 0.68822 0.88065 0.0
C410 C 0.89646 0.68284 0.87125 0.0
N411 N 0.90305 0.63283 0.88841 0.0
C412 C 0.87471 0.62737 0.87915 0.0
Co413 Co 0.42954 0.28881 0.95614 0.0
Co414 Co 0.40582 0.31186 0.90256 0.0
O415 O 0.41915 0.28525 0.91997 0.0
C416 C 0.38193 0.22146 0.95067 0.0
O417 O 0.36402 0.23046 0.93906 0.0
C418 C 0.45506 0.31122 0.8693 0.0
O419 O 0.47266 0.31625 0.88958 0.0
O420 O 0.44318 0.35127 0.91597 0.0
O421 O 0.44963 0.33558 0.95466 0.0
H422 H 0.38157 0.39977 0.89536 0.0
H423 H 0.44775 0.25173 0.92279 0.0
O424 O 0.40921 0.2419 0.95852 0.0
H425 H 0.54738 0.33679 0.95812 0.0
H426 H 0.46613 0.26039 0.03633 0.0
H427 H 0.4271 0.32684 0.99916 0.0
H428 H 0.49668 0.33228 0.97011 0.0
H429 H 0.45341 0.25694 0.99051 0.0
O430 O 0.42937 0.31165 0.87116 0.0
H431 H 0.39811 0.36603 0.91742 0.0
H432 H 0.38495 0.31376 0.84945 0.0
H433 H 0.43978 0.33122 0.045 0.0
H434 H 0.49789 0.25514 0.9105 0.0
H435 H 0.45945 0.29784 0.06388 0.0
H436 H 0.54819 0.29798 0.92814 0.0
O437 O 0.38897 0.28624 0.96542 0.0
H438 H 0.34935 0.20366 0.86355 0.0
H439 H 0.33699 0.28931 0.90051 0.0
H440 H 0.29004 0.24068 0.88597 0.0
H441 H 0.29605 0.19744 0.86728 0.0
H442 H 0.39562 0.25251 0.87858 0.0
H443 H 0.36847 0.34708 0.8266 0.0
H444 H 0.36661 0.39039 0.8496 0.0
O445 O 0.38116 0.31154 0.93305 0.0
C446 C 0.45468 0.35713 0.93857 0.0
C447 C 0.3823 0.38098 0.88512 0.0
C448 C 0.375 0.35144 0.84653 0.0
N449 N 0.39263 0.33801 0.88474 0.0
C450 C 0.39165 0.36179 0.89752 0.0
C451 C 0.3845 0.33274 0.85954 0.0
C452 C 0.37393 0.37572 0.85945 0.0
C453 C 0.46951 0.27023 0.93076 0.0
N454 N 0.46928 0.29174 0.94719 0.0
C455 C 0.49784 0.27213 0.92364 0.0
C456 C 0.52606 0.29621 0.93351 0.0
C457 C 0.52562 0.31802 0.9503 0.0
C458 C 0.49685 0.31542 0.95695 0.0
C459 C 0.45763 0.2751 0.02832 0.0
C460 C 0.43583 0.31236 0.00719 0.0
C461 C 0.45033 0.2732 1.0024 0.0
N462 N 0.43975 0.29184 0.99213 0.0
C463 C 0.44288 0.31488 0.03318 0.0
C464 C 0.45389 0.29613 0.04376 0.0
C465 C 0.37466 0.2992 0.95524 0.0
C466 C 0.34643 0.22238 0.87158 0.0
C467 C 0.33982 0.27059 0.89247 0.0
C468 C 0.31314 0.24312 0.88421 0.0
C469 C 0.31653 0.21888 0.87371 0.0
N470 N 0.36909 0.27389 0.89026 0.0
C471 C 0.37258 0.25019 0.88001 0.0
Co472 Co 0.71438 0.14084 0.95499 0.0
Co473 Co 0.69138 0.09369 0.90162 0.0
O474 O 0.71789 0.13381 0.91886 0.0
C475 C 0.78179 0.16095 0.94945 0.0
O476 O 0.77299 0.13416 0.93769 0.0
C477 C 0.6914 0.14323 0.8683 0.0
O478 O 0.6862 0.15567 0.88857 0.0
O479 O 0.65192 0.09142 0.91508 0.0
O480 O 0.66768 0.11402 0.95361 0.0
H481 H 0.60393 0.98123 0.89487 0.0
H482 H 0.75116 0.19594 0.92137 0.0
O483 O 0.76124 0.16759 0.95733 0.0
H484 H 0.66609 0.21044 0.95662 0.0
H485 H 0.74281 0.20637 0.0349 0.0
H486 H 0.67661 0.10054 0.99817 0.0
H487 H 0.67082 0.16442 0.96885 0.0
H488 H 0.74613 0.19686 0.98912 0.0
O489 O 0.69127 0.11724 0.87017 0.0
H490 H 0.63757 0.03169 0.91675 0.0
H491 H 0.68933 0.07072 0.84856 0.0
H492 H 0.67236 0.10907 0.04398 0.0
H493 H 0.74751 0.2425 0.90882 0.0
H494 H 0.70562 0.1623 0.06264 0.0
H495 H 0.70466 0.24992 0.92643 0.0
O496 O 0.71719 0.10301 0.96444 0.0
H497 H 0.79931 0.14581 0.86222 0.0
H498 H 0.71431 0.0477 0.8996 0.0
H499 H 0.76298 0.04963 0.88495 0.0
H500 H 0.80589 0.09894 0.86604 0.0
H501 H 0.75043 0.14298 0.87738 0.0
H502 H 0.6561 0.02073 0.8259 0.0
H503 H 0.61309 0.9755 0.8491 0.0
O504 O 0.69206 0.06958 0.93218 0.0
C505 C 0.64611 0.09728 0.93761 0.0
C506 C 0.62259 1.00076 0.88455 0.0
C507 C 0.65183 0.02295 0.84583 0.0
N508 N 0.66533 0.05418 0.88394 0.0
C509 C 0.64173 0.02941 0.89684 0.0
C510 C 0.67049 0.05125 0.85874 0.0
C511 C 0.62772 0.99757 0.85886 0.0
C512 C 0.73265 0.19919 0.92931 0.0
N513 N 0.71127 0.17753 0.94586 0.0
C514 C 0.73062 0.22552 0.92205 0.0
C515 C 0.70653 0.22963 0.9319 0.0
C516 C 0.68486 0.20747 0.94881 0.0
C517 C 0.68758 0.18139 0.9556 0.0
C518 C 0.72815 0.18308 0.02699 0.0
C519 C 0.69104 0.12382 1.00611 0.0
C520 C 0.72998 0.17754 1.00109 0.0
N521 N 0.71141 0.14823 0.99095 0.0
C522 C 0.68858 0.12848 0.03208 0.0
C523 C 0.70727 0.15835 0.04254 0.0
C524 C 0.70445 0.07567 0.95437 0.0
C525 C 0.78074 0.12416 0.87035 0.0
C526 C 0.73289 0.06927 0.89148 0.0
C527 C 0.76038 0.0702 0.88315 0.0
C528 C 0.78444 0.09787 0.87253 0.0
N529 N 0.72939 0.09513 0.88923 0.0
C530 C 0.75291 0.12235 0.87886 0.0
Co531 Co 0.43044 0.14225 0.55719 0.0
Co532 Co 0.40612 0.09537 0.61069 0.0
O533 O 0.41982 0.13543 0.59332 0.0
C534 C 0.38326 0.1625 0.56252 0.0
O535 O 0.36529 0.13576 0.57434 0.0
C536 C 0.4553 0.14507 0.64415 0.0
O537 O 0.47305 0.15763 0.62396 0.0
O538 O 0.44344 0.09317 0.5975 0.0
O539 O 0.45015 0.11526 0.55877 0.0
H540 H 0.38144 0.98305 0.61782 0.0
H541 H 0.44893 0.19764 0.59051 0.0
O542 O 0.41045 0.1691 0.55465 0.0
H543 H 0.54839 0.21143 0.55563 0.0
H544 H 0.46784 0.20738 0.4771 0.0
H545 H 0.42781 0.10167 0.51418 0.0
H546 H 0.49754 0.16542 0.54352 0.0
H547 H 0.45494 0.19812 0.52288 0.0
O548 O 0.42955 0.119 0.64219 0.0
H549 H 0.39831 0.03345 0.59583 0.0
H550 H 0.38476 0.07245 0.66369 0.0
H551 H 0.44065 0.10995 0.46837 0.0
H552 H 0.49922 0.24419 0.60292 0.0
H553 H 0.46083 0.16312 0.44953 0.0
H554 H 0.54943 0.25125 0.5855 0.0
O555 O 0.38976 0.10446 0.54778 0.0
H556 H 0.34993 0.14748 0.6494 0.0
H557 H 0.33721 0.04931 0.61246 0.0
H558 H 0.29033 0.05121 0.62676 0.0
H559 H 0.29653 0.10055 0.64544 0.0
H560 H 0.39613 0.14467 0.63459 0.0
H561 H 0.36795 0.02253 0.68647 0.0
H562 H 0.36612 0.97735 0.66349 0.0
O563 O 0.38155 0.07114 0.58009 0.0
C564 C 0.45499 0.09869 0.57493 0.0
C565 C 0.38214 0.00256 0.62805 0.0
C566 C 0.37462 0.02474 0.66658 0.0
N567 N 0.39261 0.05592 0.62846 0.0
C568 C 0.39166 0.03117 0.61569 0.0
C569 C 0.3843 0.05301 0.65361 0.0
C570 C 0.37357 0.99939 0.65367 0.0
C571 C 0.47066 0.20073 0.58264 0.0
N572 N 0.4703 0.17889 0.56626 0.0
C573 C 0.49907 0.22706 0.58983 0.0
C574 C 0.52723 0.23097 0.58009 0.0
C575 C 0.52667 0.20861 0.56335 0.0
C576 C 0.49782 0.18255 0.55663 0.0
C577 C 0.45912 0.18412 0.48509 0.0
C578 C 0.43675 0.12493 0.50617 0.0
C579 C 0.45172 0.17872 0.51099 0.0
N580 N 0.44086 0.14944 0.52123 0.0
C581 C 0.4439 0.12945 0.48019 0.0
C582 C 0.45519 0.15928 0.46964 0.0
C583 C 0.37523 0.07715 0.55788 0.0
C584 C 0.34693 0.12581 0.64137 0.0
C585 C 0.34012 0.07089 0.62049 0.0
C586 C 0.31348 0.07181 0.62861 0.0
C587 C 0.31697 0.09949 0.63911 0.0
N588 N 0.36944 0.09678 0.62281 0.0
C589 C 0.37304 0.12402 0.63306 0.0
Co590 Co 0.86136 0.28903 0.55687 0.0
Co591 Co 0.90772 0.31246 0.61064 0.0
O592 O 0.86793 0.2856 0.59311 0.0
C593 C 0.84178 0.22178 0.56263 0.0
O594 O 0.86865 0.23092 0.57434 0.0
C595 C 0.85738 0.31123 0.64368 0.0
O596 O 0.84475 0.31604 0.62334 0.0
O597 O 0.90943 0.35165 0.59714 0.0
O598 O 0.88798 0.33583 0.55824 0.0
H599 H 0.01946 0.40117 0.61815 0.0
H600 H 0.80577 0.25197 0.58994 0.0
O601 O 0.83488 0.2421 0.5546 0.0
H602 H 0.79134 0.33678 0.55387 0.0
H603 H 0.79696 0.26003 0.47632 0.0
H604 H 0.90211 0.32689 0.51391 0.0
H605 H 0.83775 0.33239 0.54241 0.0
H606 H 0.80589 0.2569 0.52226 0.0
O607 O 0.88369 0.31202 0.64193 0.0
H608 H 0.96941 0.36702 0.59594 0.0
H609 H 0.93033 0.3146 0.66385 0.0
H610 H 0.89417 0.33095 0.46795 0.0
H611 H 0.75883 0.25526 0.60171 0.0
H612 H 0.84128 0.29736 0.44886 0.0
H613 H 0.75144 0.29798 0.58369 0.0
O614 O 0.89945 0.2865 0.54794 0.0
H615 H 0.85664 0.20431 0.64971 0.0
H616 H 0.95446 0.29051 0.61299 0.0
H617 H 0.9532 0.24213 0.62767 0.0
H618 H 0.90405 0.19863 0.64625 0.0
H619 H 0.8588 0.25292 0.63454 0.0
H620 H 0.9799 0.34833 0.68685 0.0
H621 H 0.02495 0.39194 0.66396 0.0
O622 O 0.93237 0.31238 0.58027 0.0
C623 C 0.90413 0.35744 0.57441 0.0
C624 C 1.0 0.38226 0.62834 0.0
C625 C 0.97778 0.35263 0.6669 0.0
N626 N 0.94691 0.3389 0.62858 0.0
C627 C 0.97159 0.36282 0.61586 0.0
C628 C 0.94971 0.33369 0.6538 0.0
C629 C 0.00306 0.37708 0.65404 0.0
C630 C 0.80255 0.27042 0.58181 0.0
N631 N 0.82443 0.29192 0.56546 0.0
C632 C 0.77599 0.27225 0.58864 0.0
C633 C 0.7719 0.29626 0.57856 0.0
C634 C 0.7943 0.31806 0.56186 0.0
C635 C 0.82059 0.31553 0.55551 0.0
C636 C 0.8201 0.27484 0.48442 0.0
C637 C 0.87898 0.31233 0.50579 0.0
C638 C 0.82531 0.27312 0.51041 0.0
N639 N 0.85443 0.29187 0.52079 0.0
C640 C 0.87465 0.31467 0.47973 0.0
C641 C 0.84497 0.29579 0.46903 0.0
C642 C 0.9267 0.29979 0.55817 0.0
C643 C 0.87823 0.22315 0.64174 0.0
C644 C 0.93295 0.27167 0.62098 0.0
C645 C 0.9324 0.24435 0.62931 0.0
C646 C 0.90482 0.21996 0.63975 0.0
N647 N 0.9068 0.27468 0.62304 0.0
C648 C 0.87966 0.25082 0.63322 0.0
Co649 Co 0.71446 0.57381 0.55752 0.0
Co650 Co 0.69174 0.59818 0.61091 0.0
O651 O 0.71809 0.58446 0.59363 0.0
C652 C 0.78181 0.62126 0.56292 0.0
O653 O 0.77294 0.63921 0.57463 0.0
C654 C 0.69157 0.54854 0.64418 0.0
O655 O 0.6862 0.53086 0.6239 0.0
O656 O 0.65219 0.56101 0.59749 0.0
O657 O 0.66775 0.55392 0.55898 0.0
H658 H 0.60457 0.62348 0.61777 0.0
H659 H 0.75134 0.5556 0.5911 0.0
O660 O 0.76131 0.59398 0.55512 0.0
H661 H 0.66604 0.45585 0.55614 0.0
H662 H 0.74264 0.53649 0.47765 0.0
H663 H 0.67656 0.57617 0.51436 0.0
H664 H 0.67078 0.5066 0.54383 0.0
H665 H 0.74609 0.54947 0.52341 0.0
O666 O 0.69161 0.57449 0.64234 0.0
H667 H 0.63801 0.60648 0.59586 0.0
H668 H 0.68991 0.6192 0.66398 0.0
H669 H 0.67216 0.56324 0.46857 0.0
H670 H 0.74769 0.50541 0.60373 0.0
H671 H 0.70536 0.54324 0.44992 0.0
H672 H 0.70472 0.45506 0.58626 0.0
O673 O 0.71724 0.61442 0.54801 0.0
H674 H 0.79979 0.65383 0.65016 0.0
H675 H 0.7149 0.66717 0.6129 0.0
H676 H 0.7637 0.71388 0.62748 0.0
H677 H 0.80656 0.70737 0.64633 0.0
H678 H 0.75077 0.6078 0.63507 0.0
H679 H 0.65688 0.63613 0.68668 0.0
H680 H 0.6139 0.63844 0.66353 0.0
O681 O 0.69243 0.62297 0.58036 0.0
C682 C 0.64627 0.54925 0.57499 0.0
C683 C 0.62322 0.62256 0.62808 0.0
C684 C 0.65254 0.62961 0.66675 0.0
N685 N 0.66584 0.61174 0.62862 0.0
C686 C 0.64225 0.61296 0.61576 0.0
C687 C 0.67108 0.61986 0.65382 0.0
C688 C 0.62845 0.63093 0.65375 0.0
C689 C 0.73279 0.53381 0.58321 0.0
N690 N 0.71135 0.53403 0.5667 0.0
C691 C 0.73075 0.50545 0.59052 0.0
C692 C 0.7066 0.47721 0.58076 0.0
C693 C 0.68486 0.47763 0.56388 0.0
C694 C 0.6876 0.50643 0.55704 0.0
C695 C 0.728 0.54513 0.48556 0.0
C696 C 0.69095 0.5673 0.50643 0.0
C697 C 0.7299 0.55257 0.51144 0.0
N698 N 0.71137 0.56334 0.52158 0.0
C699 C 0.68842 0.5601 0.48047 0.0
C700 C 0.70708 0.54891 0.47001 0.0
C701 C 0.70467 0.62914 0.55812 0.0
C702 C 0.78124 0.65696 0.64206 0.0
C703 C 0.73345 0.66412 0.621 0.0
C704 C 0.76102 0.69067 0.62928 0.0
C705 C 0.78505 0.687 0.63987 0.0
N706 N 0.72985 0.63472 0.62326 0.0
C707 C 0.75334 0.63096 0.63359 0.0
H708 H 0.21902 0.41344 0.03934 0.0
H709 H 0.25251 0.3919 0.02753 0.0
H710 H 0.18778 0.30379 0.06356 0.0
H711 H 0.15366 0.32509 0.0753 0.0
H712 H 0.28207 0.36612 0.05737 0.0
H713 H 0.19438 0.27896 0.98952 0.0
H714 H 0.19085 0.31122 1.00229 0.0
H715 H 0.18146 0.27758 0.02182 0.0
C716 C 0.21187 0.38951 0.04491 0.0
C717 C 0.18345 0.37086 0.05804 0.0
C718 C 0.23114 0.37728 0.0382 0.0
C719 C 0.22244 0.34615 0.0444 0.0
C720 C 0.19466 0.32773 0.05827 0.0
H721 H 0.35748 0.28275 1.00533 0.0
H722 H 0.31884 0.28966 0.02993 0.0
C723 C 0.17528 0.33998 0.06503 0.0
C724 C 0.24214 0.33307 0.03526 0.0
H725 H 0.24392 0.28265 0.99127 0.0
C726 C 0.27366 0.3475 0.04323 0.0
C727 C 0.23106 0.30897 0.01666 0.0
C728 C 0.19767 0.29332 0.00685 0.0
C729 C 0.29474 0.33929 0.03239 0.0
C730 C 0.28385 0.31577 0.01332 0.0
C731 C 0.25206 0.30051 1.00605 0.0
C732 C 0.3058 0.30944 0.99853 0.0
C733 C 0.32887 0.35702 0.04037 0.0
C734 C 0.31064 0.31755 0.97265 0.0
C735 C 0.33254 0.31363 0.95857 0.0
C736 C 0.35001 0.30129 0.97005 0.0
C737 C 0.34448 0.29233 0.99589 0.0
C738 C 0.32253 0.29639 0.01002 0.0
H739 H 0.33435 0.37764 0.05261 0.0
H740 H 0.33448 0.34104 0.05125 0.0
H741 H 0.34442 0.36537 0.02336 0.0
H742 H 0.29795 0.32766 0.96344 0.0
H743 H 0.33605 0.32078 0.93876 0.0
H744 H 0.68072 0.83001 0.07377 0.0
H745 H 0.70183 0.88551 0.06229 0.0
H746 H 0.61166 0.86309 0.03103 0.0
H747 H 0.59037 0.80797 0.04251 0.0
H748 H 0.70528 0.90839 0.013 0.0
H749 H 0.63436 0.94059 0.0748 0.0
H750 H 0.63796 0.90618 0.08053 0.0
H751 H 0.61045 0.90502 0.05723 0.0
C752 C 0.66529 0.837 0.06477 0.0
C753 C 0.63388 0.81455 0.05902 0.0
C754 C 0.67739 0.86869 0.05822 0.0
C755 C 0.65818 0.87848 0.04615 0.0
C756 C 0.62671 0.8562 0.04084 0.0
H757 H 0.68425 0.01562 0.93802 0.0
H758 H 0.6785 0.97115 0.96285 0.0
C759 C 0.61465 0.82461 0.04725 0.0
C760 C 0.67133 0.91135 0.03715 0.0
H761 H 0.65753 0.97303 0.03756 0.0
C762 C 0.69528 0.9228 0.01873 0.0
C763 C 0.65859 0.93031 0.04487 0.0
C764 C 0.63414 0.92004 0.06565 0.0
C765 C 0.70536 0.95184 0.00663 0.0
C766 C 0.69085 0.96964 0.01295 0.0
C767 C 0.6684 0.95918 0.03255 0.0
C768 C 0.69647 0.99752 0.99786 0.0
C769 C 0.73092 0.96286 0.98674 0.0
C770 C 0.70808 0.02712 0.00941 0.0
C771 C 0.71146 0.05282 0.99521 0.0
C772 C 0.70285 0.0492 0.96928 0.0
C773 C 0.69134 0.01945 0.95785 0.0
C774 C 0.68818 0.99395 0.972 0.0
H775 H 0.74601 0.95217 0.98971 0.0
H776 H 0.71996 0.95563 0.9676 0.0
H777 H 0.74601 0.98891 0.98695 0.0
H778 H 0.71432 0.03025 0.02944 0.0
H779 H 0.72019 0.07531 1.00467 0.0
H780 H 0.19502 0.77858 0.05619 0.0
H781 H 0.14104 0.74331 0.04218 0.0
H782 H 0.12236 0.82041 0.0442 0.0
H783 H 0.1762 0.8557 0.05922 0.0
H784 H 0.07145 0.76536 0.0601 0.0
H785 H 0.11716 0.74656 0.9692 0.0
H786 H 0.13156 0.73545 0.99639 0.0
H787 H 0.14215 0.77601 0.99202 0.0
C788 C 0.17931 0.78796 0.05394 0.0
C789 C 0.18994 0.81999 0.05843 0.0
C790 C 0.14852 0.76781 0.04582 0.0
C791 C 0.12797 0.77944 0.04143 0.0
C792 C 0.13793 0.81102 0.04727 0.0
H793 H 0.97262 0.68431 0.93652 0.0
H794 H 0.0193 0.72306 0.95929 0.0
C795 C 0.16868 0.83114 0.05583 0.0
C796 C 0.09687 0.75907 0.02935 0.0
H797 H 0.06259 0.71333 0.97698 0.0
C798 C 0.06943 0.75409 0.04185 0.0
C799 C 0.09432 0.74491 1.00529 0.0
C800 C 0.12287 0.75125 0.98981 0.0
C801 C 0.03946 0.73479 0.03115 0.0
C802 C 0.0369 0.71947 0.00765 0.0
C803 C 0.06443 0.72486 0.99507 0.0
C804 C 0.00621 0.69801 0.99526 0.0
C805 C 0.01099 0.7316 0.04489 0.0
C806 C 0.98276 0.67131 0.00799 0.0
C807 C 0.95557 0.64936 0.99504 0.0
C808 C 0.95184 0.65332 0.96896 0.0
C809 C 0.97492 0.68044 0.9565 0.0
C810 C 1.00165 0.70264 0.96954 0.0
H811 H 0.01738 0.752 0.05768 0.0
H812 H 0.99278 0.72962 0.03125 0.0
H813 H 1.00064 0.71006 0.05686 0.0
H814 H 0.98601 0.66671 0.02761 0.0
H815 H 0.9383 0.62855 1.00508 0.0
H816 H 0.7201 0.64501 0.50774 0.0
H817 H 0.71427 0.68423 0.48298 0.0
H818 H 0.67921 0.70803 0.54972 0.0
H819 H 0.68489 0.66927 0.57453 0.0
H820 H 0.65757 0.68485 0.47513 0.0
H821 H 0.74675 0.79433 0.5225 0.0
H822 H 0.74662 0.75753 0.52525 0.0
H823 H 0.72088 0.76496 0.54478 0.0
C824 C 0.71154 0.65888 0.51724 0.0
C825 C 0.70312 0.65403 0.5432 0.0
C826 C 0.7082 0.68124 0.50304 0.0
C827 C 0.69681 0.69936 0.51463 0.0
C828 C 0.68871 0.69479 0.54054 0.0
H829 H 0.59039 0.78261 0.47132 0.0
H830 H 0.61185 0.7488 0.4823 0.0
C831 C 0.69183 0.67242 0.55467 0.0
C832 C 0.69119 0.72164 0.49957 0.0
H833 H 0.70573 0.79736 0.49962 0.0
C834 C 0.66853 0.7096 0.48011 0.0
C835 C 0.70583 0.75398 0.50584 0.0
C836 C 0.73162 0.76857 0.52556 0.0
C837 C 0.65863 0.72865 0.46792 0.0
C838 C 0.67147 0.76038 0.47566 0.0
C839 C 0.69565 0.77293 0.49389 0.0
C840 C 0.65819 0.78006 0.4669 0.0
C841 C 0.63395 0.71443 0.44731 0.0
C842 C 0.67724 0.80912 0.45485 0.0
C843 C 0.66504 0.82869 0.4486 0.0
C844 C 0.63369 0.81965 0.45462 0.0
C845 C 0.61461 0.79031 0.46637 0.0
C846 C 0.62677 0.77079 0.4725 0.0
H847 H 0.63412 0.69414 0.43805 0.0
H848 H 0.61035 0.70567 0.45591 0.0
H849 H 0.63756 0.73211 0.43249 0.0
H850 H 0.70164 0.8168 0.45058 0.0
H851 H 0.68035 0.85116 0.43959 0.0
H852 H 0.15319 0.83058 0.43951 0.0
H853 H 0.18766 0.88624 0.45048 0.0
H854 H 0.2554 0.86419 0.48234 0.0
H855 H 0.22148 0.8089 0.47138 0.0
H856 H 0.20713 0.90974 0.4996 0.0
H857 H 0.31022 0.94112 0.43801 0.0
H858 H 0.2722 0.90666 0.43245 0.0
H859 H 0.29855 0.90575 0.45588 0.0
C860 C 0.17563 0.83768 0.44854 0.0
C861 C 0.18455 0.81529 0.45462 0.0
C862 C 0.19526 0.86946 0.45479 0.0
C863 C 0.22428 0.8794 0.46688 0.0
C864 C 0.23344 0.85717 0.47251 0.0
H865 H 0.33548 0.01713 0.57432 0.0
H866 H 0.29677 0.97256 0.54956 0.0
C867 C 0.21385 0.82549 0.4664 0.0
C868 C 0.24402 0.91238 0.47562 0.0
H869 H 0.31956 0.97395 0.47503 0.0
C870 C 0.23155 0.92406 0.49386 0.0
C871 C 0.27574 0.93121 0.46787 0.0
C872 C 0.28989 0.92068 0.44727 0.0
C873 C 0.25054 0.9532 0.50579 0.0
C874 C 0.28286 0.97087 0.49949 0.0
C875 C 0.29483 0.96019 0.48003 0.0
C876 C 0.30516 0.99881 0.51449 0.0
C877 C 0.23604 0.96446 0.52553 0.0
C878 C 0.32311 0.02836 0.50288 0.0
C879 C 0.34542 0.05413 0.51705 0.0
C880 C 0.35041 0.05061 0.54299 0.0
C881 C 0.33222 0.02089 0.55447 0.0
C882 C 0.30989 0.99532 0.54037 0.0
H883 H 0.21027 0.95376 0.52257 0.0
H884 H 0.2398 0.95745 0.54475 0.0
H885 H 0.24703 0.99051 0.52512 0.0
H886 H 0.31999 0.03142 0.48284 0.0
H887 H 0.35914 0.07659 0.50754 0.0
H888 H 0.98705 0.32241 0.57472 0.0
H889 H 0.03219 0.32935 0.55022 0.0
H890 H 0.97327 0.28949 0.48398 0.0
H891 H 0.92757 0.28251 0.50837 0.0
H892 H 0.04173 0.28413 0.52318 0.0
H893 H 0.04505 0.37737 0.46034 0.0
H894 H 0.02282 0.3655 0.48966 0.0
H895 H 0.00851 0.34061 0.46207 0.0
C896 C 0.98345 0.31487 0.55499 0.0
C897 C 0.95358 0.30198 0.54352 0.0
C898 C 0.00936 0.31883 0.54103 0.0
C899 C 0.00611 0.3102 0.51526 0.0
C900 C 0.97629 0.29662 0.50379 0.0
H901 H 0.17379 0.32555 0.43863 0.0
H902 H 0.11843 0.30424 0.4506 0.0
C903 C 0.9502 0.29253 0.51781 0.0
C904 C 0.03445 0.31654 0.50056 0.0
H905 H 0.08605 0.36615 0.45589 0.0
C906 C 0.05124 0.30167 0.50815 0.0
C907 C 0.04679 0.33964 0.48115 0.0
C908 C 0.03009 0.35695 0.47282 0.0
C909 C 0.08068 0.31012 0.49751 0.0
C910 C 0.0934 0.3338 0.47855 0.0
C911 C 0.07607 0.34785 0.4703 0.0
C912 C 0.12612 0.34686 0.46929 0.0
C913 C 0.09871 0.29493 0.50762 0.0
C914 C 0.14849 0.37811 0.47515 0.0
C915 C 0.17996 0.39035 0.46832 0.0
C916 C 0.18973 0.37158 0.45539 0.0
C917 C 0.16706 0.34055 0.44872 0.0
C918 C 0.13547 0.32829 0.45562 0.0
H919 H 0.0878 0.28086 0.52511 0.0
H920 H 0.09929 0.27899 0.49289 0.0
H921 H 0.1234 0.31308 0.51202 0.0
H922 H 0.14174 0.39284 0.48565 0.0
H923 H 0.19671 0.4144 0.47363 0.0
H924 H 0.6463 0.71952 0.0099 0.0
H925 H 0.68533 0.71248 0.98605 0.0
H926 H 0.70343 0.67267 0.05281 0.0
H927 H 0.66489 0.67966 0.07677 0.0
H928 H 0.75861 0.71788 0.02599 0.0
H929 H 0.66927 0.62436 0.96299 0.0
H930 H 0.66941 0.66109 0.96442 0.0
H931 H 0.65866 0.63636 0.99212 0.0
C932 C 0.65877 0.70951 0.01958 0.0
C933 C 0.65232 0.70007 0.04527 0.0
C934 C 0.68094 0.70538 1.00587 0.0
C935 C 0.69699 0.69178 0.01764 0.0
C936 C 0.69126 0.6832 0.0434 0.0
H937 H 0.78507 0.5887 0.97552 0.0
H938 H 0.75128 0.60961 0.9882 0.0
C939 C 0.66912 0.68719 0.05705 0.0
C940 C 0.71913 0.68538 1.00322 0.0
H941 H 0.72165 0.63596 0.95864 0.0
C942 C 0.75073 0.70034 0.01097 0.0
C943 C 0.70856 0.66226 0.98384 0.0
C944 C 0.67461 0.64485 0.97535 0.0
C945 C 0.77189 0.69206 1.00042 0.0
C946 C 0.76115 0.66844 0.98143 0.0
C947 C 0.7298 0.65421 0.97309 0.0
C948 C 0.78113 0.65582 0.97201 0.0
C949 C 0.80509 0.70743 0.01062 0.0
C950 C 0.80888 0.67474 0.95827 0.0
C951 C 0.8284 0.66286 0.95099 0.0
C952 C 0.8204 0.63184 0.95734 0.0
C953 C 0.79207 0.61274 0.97044 0.0
C954 C 0.77264 0.62461 0.97765 0.0
H955 H 0.80805 0.7213 0.02819 0.0
H956 H 0.81184 0.68941 0.0149 0.0
H957 H 0.82158 0.72359 0.99597 0.0
H958 H 0.81558 0.69877 0.95342 0.0
H959 H 0.84994 0.6781 0.94077 0.0
H960 H 0.41414 0.19518 0.97195 0.0
H961 H 0.39386 0.14028 0.98375 0.0
H962 H 0.30268 0.11617 0.9537 0.0
H963 H 0.32276 0.17139 0.94189 0.0
H964 H 0.30074 0.09396 1.00312 0.0
H965 H 0.37134 0.06269 0.93999 0.0
H966 H 0.39511 0.09848 0.95735 0.0
H967 H 0.36695 0.09667 0.93442 0.0
C968 C 0.38985 0.17822 0.96755 0.0
C969 C 0.37005 0.18771 0.95601 0.0
C970 C 0.37836 0.14676 0.97416 0.0
C971 C 0.3469 0.12407 0.96926 0.0
C972 C 0.32711 0.13331 0.95745 0.0
H973 H 0.28553 0.92706 0.00942 0.0
H974 H 0.29143 0.97254 0.98526 0.0
C975 C 0.33864 0.16485 0.95072 0.0
C976 C 0.33438 0.09133 0.97837 0.0
H977 H 0.34868 0.02998 0.97708 0.0
C978 C 0.3108 0.07971 0.9971 0.0
C979 C 0.34723 0.07259 0.97026 0.0
C980 C 0.37133 0.0831 0.9492 0.0
C981 C 0.30111 0.05066 0.00906 0.0
C982 C 0.31563 0.03303 1.00226 0.0
C983 C 0.3378 0.04371 0.98243 0.0
C984 C 0.31021 0.00496 0.01698 0.0
C985 C 0.27591 0.03943 0.02928 0.0
C986 C 0.31903 0.00825 0.04272 0.0
C987 C 0.31586 0.9825 0.05651 0.0
C988 C 0.30379 0.9528 0.04486 0.0
C989 C 0.2947 0.9495 0.01906 0.0
C990 C 0.29809 0.97544 1.0052 0.0
H991 H 0.26085 0.05024 0.02689 0.0
H992 H 0.26075 0.0134 0.02885 0.0
H993 H 0.28722 0.04631 0.04833 0.0
H994 H 0.32906 0.03098 0.05202 0.0
H995 H 0.32334 0.98609 0.07625 0.0
H996 H 0.07655 0.35871 0.0088 0.0
H997 H 0.03075 0.31964 0.98468 0.0
H998 H 0.97225 0.30092 0.0511 0.0
H999 H 0.01752 0.33948 0.07536 0.0
H1000 H 0.9628 0.246 0.0244 0.0
H1001 H 0.95853 0.33492 0.96097 0.0
H1002 H 0.99525 0.33509 0.96264 0.0
H1003 H 0.98095 0.3457 0.99021 0.0
C1004 C 0.05399 0.34611 0.01835 0.0
C1005 C 0.05077 0.35237 0.04404 0.0
C1006 C 0.02784 0.32392 1.00448 0.0
C1007 C 0.99811 0.30767 0.01607 0.0
C1008 C 0.99501 0.31325 0.04182 0.0
H1009 H 0.80734 0.21827 0.97272 0.0
H1010 H 0.86197 0.25262 0.9853 0.0
C1011 C 0.02099 0.3354 0.05564 0.0
C1012 C 0.96975 0.28538 1.0015 0.0
H1013 H 0.91812 0.28235 0.95638 0.0
C1014 C 0.9532 0.25376 0.00925 0.0
C1015 C 0.95728 0.29578 0.98193 0.0
C1016 C 0.97369 0.32974 0.97345 0.0
C1017 C 0.92393 0.23241 0.99852 0.0
C1018 C 0.91112 0.24295 0.9793 0.0
C1019 C 0.92817 0.27434 0.97098 0.0
C1020 C 0.87864 0.22276 0.9697 0.0
C1021 C 0.90617 0.19921 0.00875 0.0
C1022 C 0.86999 0.19483 0.95626 0.0
C1023 C 0.83861 0.17497 0.94905 0.0
C1024 C 0.81543 0.18281 0.95515 0.0
C1025 C 0.8245 0.21138 0.96784 0.0
C1026 C 0.85576 0.23113 0.97499 0.0
H1027 H 0.9169 0.19644 0.02651 0.0
H1028 H 0.88129 0.19223 0.01274 0.0
H1029 H 0.90623 0.18275 0.99426 0.0
H1030 H 0.88742 0.18821 0.95166 0.0
H1031 H 0.83243 0.15325 0.93915 0.0
H1032 H 0.32499 0.15485 0.57298 0.0
H1033 H 0.30488 0.18972 0.56047 0.0
H1034 H 0.39452 0.25398 0.52643 0.0
H1035 H 0.41489 0.21968 0.53899 0.0
H1036 H 0.36811 0.28374 0.55561 0.0
H1037 H 0.28329 0.19773 0.48559 0.0
H1038 H 0.2805 0.18404 0.51781 0.0
H1039 H 0.31487 0.19367 0.49921 0.0
C1040 C 0.34048 0.17651 0.56299 0.0
C1041 C 0.37145 0.18432 0.55677 0.0
C1042 C 0.3289 0.19633 0.55578 0.0
C1043 C 0.3481 0.22419 0.54224 0.0
C1044 C 0.37931 0.23254 0.53682 0.0
H1045 H 0.32491 0.34091 0.43717 0.0
H1046 H 0.33201 0.30244 0.46118 0.0
C1047 C 0.39087 0.21282 0.54396 0.0
C1048 C 0.33572 0.24433 0.53269 0.0
H1049 H 0.28675 0.2472 0.48784 0.0
C1050 C 0.34998 0.27569 0.54107 0.0
C1051 C 0.31228 0.23373 0.51355 0.0
C1052 C 0.2969 0.20054 0.50329 0.0
C1053 C 0.34212 0.29705 0.53024 0.0
C1054 C 0.31914 0.2866 0.51075 0.0
C1055 C 0.30418 0.255 0.50294 0.0
C1056 C 0.31284 0.30882 0.49633 0.0
C1057 C 0.35954 0.33099 0.5388 0.0
C1058 C 0.29918 0.32482 0.50806 0.0
C1059 C 0.29498 0.34694 0.49433 0.0
C1060 C 0.3044 0.3534 0.46864 0.0
C1061 C 0.31739 0.33667 0.45689 0.0
C1062 C 0.32145 0.31458 0.47057 0.0
H1063 H 0.37995 0.33624 0.55121 0.0
H1064 H 0.36812 0.347 0.52206 0.0
H1065 H 0.34329 0.3362 0.54968 0.0
H1066 H 0.29205 0.3204 0.52787 0.0
H1067 H 0.28489 0.35936 0.50399 0.0
H1068 H 0.78317 0.19516 0.54151 0.0
H1069 H 0.74875 0.14018 0.52982 0.0
H1070 H 0.8163 0.11666 0.55973 0.0
H1071 H 0.85123 0.17195 0.57145 0.0
H1072 H 0.7959 0.09445 0.51019 0.0
H1073 H 0.69429 0.06248 0.57383 0.0
H1074 H 0.70606 0.09827 0.55653 0.0
H1075 H 0.7326 0.09657 0.57932 0.0
C1076 C 0.79065 0.17831 0.54591 0.0
C1077 C 0.82002 0.18798 0.55738 0.0
C1078 C 0.77079 0.14681 0.53937 0.0
C1079 C 0.77976 0.12427 0.54424 0.0
C1080 C 0.80886 0.13369 0.556 0.0
H1081 H 0.64529 0.92686 0.50469 0.0
H1082 H 0.68481 0.97264 0.52856 0.0
C1083 C 0.82875 0.16526 0.56268 0.0
C1084 C 0.75968 0.0915 0.53517 0.0
H1085 H 0.68426 0.02976 0.53678 0.0
C1086 C 0.77166 0.08004 0.51632 0.0
C1087 C 0.72819 0.07259 0.54342 0.0
C1088 C 0.71459 0.08295 0.56458 0.0
C1089 C 0.75239 0.05095 0.50441 0.0
C1090 C 0.7203 0.03311 0.51137 0.0
C1091 C 0.70882 0.04365 0.5313 0.0
C1092 C 0.69772 0.00489 0.49678 0.0
C1093 C 0.76635 0.03988 0.48406 0.0
C1094 C 0.6918 0.00798 0.47111 0.0
C1095 C 0.66925 0.98205 0.45746 0.0
C1096 C 0.65205 0.95237 0.46923 0.0
C1097 C 0.65823 0.94928 0.49497 0.0
C1098 C 0.68075 0.9754 0.50867 0.0
H1099 H 0.79228 0.05096 0.48624 0.0
H1100 H 0.75575 0.01388 0.48455 0.0
H1101 H 0.76156 0.04655 0.46506 0.0
H1102 H 0.70418 0.03069 0.46173 0.0
H1103 H 0.66504 0.98547 0.43777 0.0
H1104 H 0.07705 0.72125 0.50384 0.0
H1105 H 0.03092 0.71424 0.52756 0.0
H1106 H 0.97261 0.67156 0.46146 0.0
H1107 H 0.01821 0.67854 0.4376 0.0
H1108 H 0.96202 0.71702 0.48687 0.0
H1109 H 0.95995 0.62678 0.55264 0.0
H1110 H 0.99624 0.66372 0.55049 0.0
H1111 H 0.98233 0.63797 0.52339 0.0
C1112 C 0.05446 0.71059 0.49427 0.0
C1113 C 0.05139 0.70037 0.4688 0.0
C1114 C 0.02812 0.70648 0.50791 0.0
C1115 C 0.99836 0.6921 0.49631 0.0
C1116 C 0.9954 0.68269 0.47075 0.0
H1117 H 0.80767 0.58943 0.54029 0.0
H1118 H 0.8623 0.61 0.52755 0.0
C1119 C 0.02157 0.68668 0.45715 0.0
C1120 C 0.96984 0.68586 0.51069 0.0
H1121 H 0.91891 0.6381 0.55655 0.0
C1122 C 0.95276 0.70013 0.50238 0.0
C1123 C 0.9578 0.66358 0.53072 0.0
C1124 C 0.9748 0.64688 0.53984 0.0
C1125 C 0.92341 0.692 0.51303 0.0
C1126 C 0.91107 0.66926 0.53273 0.0
C1127 C 0.92861 0.6557 0.54158 0.0
C1128 C 0.87862 0.65682 0.54241 0.0
C1129 C 0.9051 0.70657 0.50226 0.0
C1130 C 0.86982 0.67619 0.5555 0.0
C1131 C 0.83845 0.66449 0.56282 0.0
C1132 C 0.81546 0.63323 0.55715 0.0
C1133 C 0.82469 0.61367 0.54482 0.0
C1134 C 0.85595 0.62535 0.53758 0.0
H1135 H 0.91561 0.71967 0.4843 0.0
H1136 H 0.88033 0.68817 0.49846 0.0
H1137 H 0.90482 0.72329 0.51637 0.0
H1138 H 0.8871 0.70044 0.55972 0.0
H1139 H 0.83214 0.68011 0.57243 0.0
H1140 H 0.28644 0.49772 0.36335 0.0
H1141 H 0.26026 0.50194 0.32498 0.0
H1142 H 0.28788 0.4434 0.28399 0.0
H1143 H 0.31319 0.43828 0.32239 0.0
H1144 H 0.27729 0.52299 0.27678 0.0
H1145 H 0.19409 0.39449 0.27442 0.0
H1146 H 0.21998 0.41355 0.30106 0.0
H1147 H 0.23437 0.40384 0.2729 0.0
C1148 C 0.28732 0.48609 0.34607 0.0
C1149 C 0.30173 0.46744 0.34605 0.0
C1150 C 0.27223 0.48844 0.32413 0.0
C1151 C 0.2713 0.47231 0.30168 0.0
C1152 C 0.28736 0.45529 0.30122 0.0
H1153 H 0.21176 0.4967 0.15013 0.0
H1154 H 0.24167 0.50184 0.18891 0.0
C1155 C 0.30212 0.45262 0.32318 0.0
C1156 C 0.25272 0.47237 0.27909 0.0
H1157 H 0.19422 0.42359 0.23818 0.0
C1158 C 0.25904 0.50126 0.26839 0.0
C1159 C 0.22838 0.44407 0.26836 0.0
C1160 C 0.21854 0.41226 0.27992 0.0
C1161 C 0.24222 0.50259 0.24706 0.0
C1162 C 0.21887 0.47422 0.23565 0.0
C1163 C 0.21224 0.44539 0.24665 0.0
C1164 C 0.20075 0.47356 0.21244 0.0
C1165 C 0.24923 0.53442 0.23739 0.0
C1166 C 0.16768 0.45571 0.21241 0.0
C1167 C 0.15053 0.45233 0.19011 0.0
C1168 C 0.16598 0.46686 0.16725 0.0
C1169 C 0.19903 0.48558 0.16746 0.0
C1170 C 0.21622 0.48864 0.18973 0.0
H1171 H 0.25973 0.55264 0.25255 0.0
H1172 H 0.26647 0.54174 0.22156 0.0
H1173 H 0.22762 0.53375 0.23017 0.0
H1174 H 0.15507 0.44378 0.22958 0.0
H1175 H 0.12514 0.43766 0.19066 0.0
H1176 H 0.50704 0.71653 0.15035 0.0
H1177 H 0.50253 0.74246 0.18876 0.0
H1178 H 0.56145 0.71532 0.22974 0.0
H1179 H 0.56685 0.69024 0.19131 0.0
H1180 H 0.48152 0.72514 0.23703 0.0
H1181 H 0.60979 0.80923 0.23925 0.0
H1182 H 0.59082 0.78331 0.21261 0.0
H1183 H 0.60075 0.76902 0.24073 0.0
C1184 C 0.5187 0.71569 0.16764 0.0
C1185 C 0.53753 0.70149 0.16764 0.0
C1186 C 0.51617 0.73064 0.1896 0.0
C1187 C 0.53232 0.73164 0.21205 0.0
C1188 C 0.54953 0.71578 0.2125 0.0
H1189 H 0.50769 0.79084 0.36365 0.0
H1190 H 0.50267 0.76093 0.32489 0.0
C1191 C 0.55236 0.70116 0.19053 0.0
C1192 C 0.53211 0.75012 0.23465 0.0
H1193 H 0.58062 0.80887 0.2755 0.0
C1194 C 0.50318 0.74354 0.24539 0.0
C1195 C 0.56032 0.77464 0.24534 0.0
C1196 C 0.59215 0.78474 0.23375 0.0
C1197 C 0.50173 0.76027 0.26672 0.0
C1198 C 0.53002 0.78382 0.27809 0.0
C1199 C 0.55888 0.7907 0.26705 0.0
C1200 C 0.53056 0.8019 0.30128 0.0
C1201 C 0.46985 0.75297 0.27645 0.0
C1202 C 0.54814 0.835 0.30126 0.0
C1203 C 0.55147 0.85216 0.32354 0.0
C1204 C 0.53713 0.83667 0.34644 0.0
C1205 C 0.51866 0.80359 0.34629 0.0
C1206 C 0.51566 0.7864 0.32403 0.0
H1207 H 0.4516 0.74229 0.26134 0.0
H1208 H 0.46274 0.73576 0.29231 0.0
H1209 H 0.4703 0.77448 0.28366 0.0
H1210 H 0.55993 0.84764 0.28406 0.0
H1211 H 0.56594 0.87758 0.32294 0.0
H1212 H 0.31517 0.87936 0.19188 0.0
H1213 H 0.29134 0.84931 0.23074 0.0
H1214 H 0.26337 0.76281 0.19004 0.0
H1215 H 0.28817 0.79285 0.15132 0.0
H1216 H 0.23208 0.80991 0.2392 0.0
H1217 H 0.29602 0.74488 0.25375 0.0
H1218 H 0.30918 0.77699 0.23138 0.0
H1219 H 0.27843 0.73806 0.22272 0.0
C1220 C 0.30457 0.85397 0.19131 0.0
C1221 C 0.30382 0.83858 0.16846 0.0
C1222 C 0.2908 0.83675 0.21358 0.0
C1223 C 0.27573 0.80367 0.21359 0.0
C1224 C 0.27551 0.78827 0.19088 0.0
H1225 H 0.12786 0.69058 0.32317 0.0
H1226 H 0.15837 0.71595 0.28482 0.0
C1227 C 0.28965 0.80553 0.16865 0.0
C1228 C 0.25824 0.78546 0.23674 0.0
H1229 H 0.2487 0.72707 0.27787 0.0
C1230 C 0.23593 0.79194 0.24769 0.0
C1231 C 0.26333 0.76217 0.24818 0.0
C1232 C 0.28827 0.75532 0.23857 0.0
C1233 C 0.21845 0.77572 0.26936 0.0
C1234 C 0.22249 0.75144 0.2801 0.0
C1235 C 0.24516 0.74527 0.26947 0.0
C1236 C 0.20382 0.7328 0.30266 0.0
C1237 C 0.19635 0.78541 0.28087 0.0
C1238 C 0.219 0.732 0.32516 0.0
C1239 C 0.20151 0.71688 0.34708 0.0
C1240 C 0.16844 0.70231 0.34697 0.0
C1241 C 0.15328 0.70178 0.32404 0.0
C1242 C 0.17074 0.71656 0.3021 0.0
H1243 H 0.20291 0.80982 0.27536 0.0
H1244 H 0.17212 0.76946 0.2738 0.0
H1245 H 0.19616 0.78396 0.302 0.0
H1246 H 0.24447 0.74411 0.32609 0.0
H1247 H 0.214 0.71788 0.36441 0.0
H1248 H 0.79777 0.49813 0.85875 0.0
H1249 H 0.76605 0.49004 0.82035 0.0
H1250 H 0.84359 0.57205 0.78597 0.0
H1251 H 0.87551 0.57982 0.82375 0.0
H1252 H 0.7468 0.52802 0.8007 0.0
H1253 H 0.81816 0.51101 0.72781 0.0
H1254 H 0.82459 0.50938 0.76152 0.0
H1255 H 0.84128 0.54674 0.74533 0.0
C1256 C 0.80832 0.51402 0.84279 0.0
C1257 C 0.83937 0.53948 0.84437 0.0
C1258 C 0.79007 0.50946 0.82086 0.0
C1259 C 0.80248 0.53013 0.79998 0.0
C1260 C 0.83362 0.55523 0.80142 0.0
H1261 H 0.70909 0.58289 0.68834 0.0
H1262 H 0.73287 0.57466 0.72617 0.0
C1263 C 0.85187 0.55974 0.82322 0.0
C1264 C 0.78243 0.52697 0.77743 0.0
H1265 H 0.78134 0.52598 0.71221 0.0
C1266 C 0.75418 0.52715 0.78137 0.0
C1267 C 0.79161 0.5253 0.75211 0.0
C1268 C 0.8204 0.52275 0.74644 0.0
C1269 C 0.7357 0.52712 0.7608 0.0
C1270 C 0.74602 0.52763 0.73547 0.0
C1271 C 0.77351 0.526 0.73154 0.0
C1272 C 0.72954 0.53131 0.71287 0.0
C1273 C 0.70526 0.5265 0.7665 0.0
C1274 C 0.72006 0.51001 0.69234 0.0
C1275 C 0.7066 0.51483 0.67039 0.0
C1276 C 0.70244 0.54116 0.66842 0.0
C1277 C 0.71151 0.56214 0.68919 0.0
C1278 C 0.72504 0.55737 0.71102 0.0
H1279 H 0.69559 0.51545 0.78531 0.0
H1280 H 0.70971 0.55102 0.76722 0.0
H1281 H 0.68726 0.51343 0.75163 0.0
H1282 H 0.72345 0.48983 0.69317 0.0
H1283 H 0.7002 0.49834 0.65472 0.0
H1284 H 0.50433 0.30115 0.8588 0.0
H1285 H 0.51227 0.27763 0.82027 0.0
H1286 H 0.42867 0.27081 0.78706 0.0
H1287 H 0.42101 0.29484 0.825 0.0
H1288 H 0.47487 0.21996 0.8009 0.0
H1289 H 0.48864 0.30755 0.72824 0.0
H1290 H 0.49068 0.31562 0.76198 0.0
H1291 H 0.45311 0.29414 0.74622 0.0
C1292 C 0.48801 0.29526 0.84308 0.0
C1293 C 0.46218 0.30021 0.84502 0.0
C1294 C 0.49249 0.28165 0.82107 0.0
C1295 C 0.47137 0.27281 0.80047 0.0
C1296 C 0.44583 0.27812 0.80229 0.0
H1297 H 0.42105 0.12739 0.68834 0.0
H1298 H 0.42862 0.15907 0.72628 0.0
C1299 C 0.44139 0.29179 0.82417 0.0
C1300 C 0.47465 0.25617 0.7778 0.0
H1301 H 0.47505 0.25617 0.71257 0.0
C1302 C 0.47531 0.22813 0.7816 0.0
C1303 C 0.47575 0.26692 0.75252 0.0
C1304 C 0.47735 0.29788 0.74698 0.0
C1305 C 0.47568 0.20997 0.76095 0.0
C1306 C 0.47468 0.21966 0.73567 0.0
C1307 C 0.47541 0.2484 0.73187 0.0
C1308 C 0.47143 0.19976 0.713 0.0
C1309 C 0.4772 0.18057 0.76649 0.0
C1310 C 0.49265 0.21205 0.69246 0.0
C1311 C 0.48822 0.19396 0.67046 0.0
C1312 C 0.46235 0.16318 0.66845 0.0
C1313 C 0.44146 0.15081 0.68923 0.0
C1314 C 0.44584 0.16891 0.71111 0.0
H1315 H 0.4884 0.18214 0.78526 0.0
H1316 H 0.45294 0.16007 0.76717 0.0
H1317 H 0.49057 0.17618 0.75154 0.0
H1318 H 0.51247 0.23585 0.69332 0.0
H1319 H 0.50463 0.2044 0.65479 0.0
H1320 H 0.7006 0.20227 0.85774 0.0
H1321 H 0.72395 0.23392 0.81926 0.0
H1322 H 0.73229 0.15791 0.78621 0.0
H1323 H 0.70841 0.12602 0.82409 0.0
H1324 H 0.78174 0.25508 0.80012 0.0
H1325 H 0.69525 0.18035 0.72716 0.0
H1326 H 0.68702 0.17416 0.76087 0.0
H1327 H 0.70908 0.15865 0.74523 0.0
C1328 C 0.70678 0.19203 0.84206 0.0
C1329 C 0.7023 0.16141 0.84403 0.0
C1330 C 0.7203 0.21024 0.82009 0.0
C1331 C 0.72951 0.19823 0.79954 0.0
C1332 C 0.72467 0.16753 0.80139 0.0
H1333 H 0.87521 0.29525 0.6881 0.0
H1334 H 0.84342 0.27081 0.72591 0.0
C1335 C 0.71109 0.14931 0.82324 0.0
C1336 C 0.74606 0.2183 0.77691 0.0
H1337 H 0.7465 0.21873 0.71168 0.0
C1338 C 0.77377 0.24728 0.7808 0.0
C1339 C 0.73556 0.20856 0.7516 0.0
C1340 C 0.70491 0.17889 0.74595 0.0
C1341 C 0.79188 0.266 0.7602 0.0
C1342 C 0.78248 0.25522 0.7349 0.0
C1343 C 0.75404 0.22693 0.731 0.0
C1344 C 0.80242 0.2721 0.7123 0.0
C1345 C 0.82091 0.29721 0.76583 0.0
C1346 C 0.79 0.28067 0.69162 0.0
C1347 C 0.80817 0.29453 0.66969 0.0
C1348 C 0.83914 0.29998 0.6679 0.0
C1349 C 0.85163 0.29181 0.68882 0.0
C1350 C 0.83346 0.27791 0.71062 0.0
H1351 H 0.81898 0.30672 0.78455 0.0
H1352 H 0.84166 0.29387 0.7667 0.0
H1353 H 0.82512 0.31487 0.75083 0.0
H1354 H 0.76607 0.27627 0.69232 0.0
H1355 H 0.79763 0.30021 0.65391 0.0
H1356 H 0.04812 0.45803 0.09149 0.0
H1357 H 0.01472 0.47315 0.06757 0.0
H1358 H 0.08347 0.51004 0.0072 0.0
H1359 H 0.11643 0.49445 0.03047 0.0
H1360 H 0.02218 0.52898 0.0464 0.0
H1361 H 0.00533 0.44372 0.97 0.0
H1362 H 0.02255 0.44396 1.00046 0.0
H1363 H 0.04589 0.47185 0.97619 0.0
C1364 C 0.05641 0.46985 0.07335 0.0
C1365 C 0.08478 0.47442 0.06278 0.0
C1366 C 0.0372 0.47838 0.05961 0.0
C1367 C 0.04607 0.49175 0.03515 0.0
C1368 C 0.07559 0.49881 0.02563 0.0
H1369 H 0.96072 0.55373 0.91905 0.0
H1370 H 0.99466 0.5386 0.94219 0.0
C1371 C 0.09461 0.49014 0.03917 0.0
C1372 C 0.02419 0.4973 0.01909 0.0
H1373 H 0.98567 0.47839 0.96169 0.0
C1374 C 0.01408 0.5178 0.02795 0.0
C1375 C 0.01353 0.48268 0.99496 0.0
C1376 C 0.0221 0.45909 0.9849 0.0
C1377 C 0.99422 0.52454 0.01317 0.0
C1378 C 0.98376 0.51008 0.98899 0.0
C1379 C 0.99381 0.48958 0.98012 0.0
C1380 C 0.96177 0.51553 0.97307 0.0
C1381 C 0.98499 0.54758 0.02336 0.0
C1382 C 0.93138 0.50608 0.98197 0.0
C1383 C 0.91193 0.51449 0.96878 0.0
C1384 C 0.92235 0.53261 0.94627 0.0
C1385 C 0.95187 0.53987 0.93627 0.0
C1386 C 0.97141 0.5314 0.94959 0.0
H1387 H 1.00072 0.56216 0.03908 0.0
H1388 H 0.98553 0.56345 0.00801 0.0
H1389 H 0.96061 0.53437 0.03091 0.0
H1390 H 0.92311 0.49317 0.99971 0.0
H1391 H 0.88928 0.50814 0.97702 0.0
H1392 H 0.51191 0.62413 0.03019 0.0
H1393 H 0.4957 0.57496 0.00769 0.0
H1394 H 0.52934 0.54247 0.07005 0.0
H1395 H 0.54506 0.59158 0.09314 0.0
H1396 H 0.53594 0.55584 0.99134 0.0
H1397 H 0.44571 0.46452 0.0544 0.0
H1398 H 0.45873 0.50587 0.05798 0.0
H1399 H 0.48225 0.49009 0.0702 0.0
C1400 C 0.51519 0.60629 0.03955 0.0
C1401 C 0.53006 0.6121 0.06354 0.0
C1402 C 0.50603 0.57815 0.02649 0.0
C1403 C 0.51132 0.55492 0.03703 0.0
C1404 C 0.52459 0.5598 0.06158 0.0
H1405 H 0.49025 0.37907 0.98175 0.0
H1406 H 0.50603 0.42837 1.00386 0.0
C1407 C 0.53363 0.588 0.0748 0.0
C1408 C 0.5051 0.52691 0.02141 0.0
H1409 H 0.46424 0.44643 0.02019 0.0
C1410 C 0.52012 0.53191 0.99761 0.0
C1411 C 0.48453 0.49565 0.02953 0.0
C1412 C 0.46663 0.4886 0.0543 0.0
C1413 C 0.51557 0.50662 0.98197 0.0
C1414 C 0.49508 0.47537 0.99013 0.0
C1415 C 0.48002 0.47037 0.01391 0.0
C1416 C 0.48913 0.44737 0.97465 0.0
C1417 C 0.53334 0.5136 0.95714 0.0
C1418 C 0.47532 0.44189 0.95028 0.0
C1419 C 0.46645 0.41358 0.9373 0.0
C1420 C 0.47081 0.38999 0.94862 0.0
C1421 C 0.48631 0.39648 0.97237 0.0
C1422 C 0.49524 0.42469 0.9852 0.0
H1423 H 0.5539 0.5379 0.95675 0.0
H1424 H 0.54174 0.49668 0.95372 0.0
H1425 H 0.51743 0.51138 0.94124 0.0
H1426 H 0.47 0.45884 0.94181 0.0
H1427 H 0.45454 0.40948 0.91914 0.0
H1428 H 0.38002 0.88821 0.03092 0.0
H1429 H 0.42902 0.92088 0.00816 0.0
H1430 H 0.46172 0.98807 0.06978 0.0
H1431 H 0.41276 0.95499 0.09313 0.0
H1432 H 0.44786 0.9801 0.99121 0.0
H1433 H 0.53962 0.98218 0.0543 0.0
H1434 H 0.49833 0.95378 0.05806 0.0
H1435 H 0.51406 0.99323 0.06997 0.0
C1436 C 0.39787 0.90952 0.04006 0.0
C1437 C 0.39216 0.91897 0.06391 0.0
C1438 C 0.42591 0.92832 0.02686 0.0
C1439 C 0.44914 0.95705 0.03711 0.0
C1440 C 0.44437 0.96583 0.06154 0.0
H1441 H 0.62426 0.11142 0.98055 0.0
H1442 H 0.57511 0.07805 1.00289 0.0
C1443 C 0.41627 0.94685 0.07491 0.0
C1444 C 0.47701 0.97864 0.0213 0.0
H1445 H 0.55743 0.01834 0.01975 0.0
C1446 C 0.47183 0.98833 0.99741 0.0
C1447 C 0.50831 0.98947 0.02933 0.0
C1448 C 0.51552 0.97894 0.0542 0.0
C1449 C 0.49698 0.00889 0.98159 0.0
C1450 C 0.52827 0.0198 0.98967 0.0
C1451 C 0.53346 0.01006 0.01353 0.0
C1452 C 0.55613 0.04171 0.97402 0.0
C1453 C 0.48983 0.01936 0.95666 0.0
C1454 C 0.56154 0.03306 0.94977 0.0
C1455 C 0.58977 0.05241 0.93665 0.0
C1456 C 0.61331 0.08057 0.94774 0.0
C1457 C 0.60687 0.0899 0.97136 0.0
C1458 C 0.57876 0.0707 0.98432 0.0
H1459 H 0.4655 0.01549 0.95626 0.0
H1460 H 0.50665 0.04469 0.95308 0.0
H1461 H 0.49209 0.00556 0.94087 0.0
H1462 H 0.54463 0.01064 0.94149 0.0
H1463 H 0.59384 0.04436 0.9186 0.0
H1464 H 0.54345 0.95262 0.42059 0.0
H1465 H 0.52775 0.98627 0.44339 0.0
H1466 H 0.49738 0.92252 0.50731 0.0
H1467 H 0.51275 0.88886 0.48485 0.0
H1468 H 0.45697 0.94612 0.49677 0.0
H1469 H 0.58169 0.04212 0.503 0.0
H1470 H 0.56741 0.02872 0.47128 0.0
H1471 H 0.57069 0.00256 0.49344 0.0
C1472 C 0.53287 0.9454 0.43927 0.0
C1473 C 0.52987 0.91818 0.45095 0.0
C1474 C 0.52417 0.96486 0.45241 0.0
C1475 C 0.51216 0.95737 0.47737 0.0
C1476 C 0.50691 0.92902 0.48822 0.0
H1477 H 0.45545 0.04683 0.59521 0.0
H1478 H 0.47097 0.01259 0.57311 0.0
C1479 C 0.5157 0.90971 0.47523 0.0
C1480 C 0.50637 0.97952 0.49282 0.0
H1481 H 0.54339 0.05267 0.5202 0.0
C1482 C 0.47586 0.96941 0.50192 0.0
C1483 C 0.53109 0.00982 0.49974 0.0
C1484 C 0.56464 0.02148 0.49159 0.0
C1485 C 0.46924 0.989 0.51721 0.0
C1486 C 0.49395 0.01932 0.52413 0.0
C1487 C 0.52449 0.02938 0.51507 0.0
C1488 C 0.48817 0.04168 0.5393 0.0
C1489 C 0.43564 0.97737 0.5252 0.0
C1490 C 0.49447 0.07037 0.52842 0.0
C1491 C 0.4859 0.09005 0.54105 0.0
C1492 C 0.47083 0.08163 0.56499 0.0
C1493 C 0.46674 0.05402 0.57677 0.0
C1494 C 0.47529 0.03422 0.56401 0.0
H1495 H 0.41865 0.95689 0.51361 0.0
H1496 H 0.43265 0.96986 0.54545 0.0
H1497 H 0.42967 0.99635 0.52345 0.0
H1498 H 0.5047 0.0769 0.50954 0.0
H1499 H 0.48973 0.1112 0.53137 0.0
H1500 H 0.95553 0.41014 0.59468 0.0
H1501 H 0.98943 0.46002 0.57256 0.0
H1502 H 0.9256 0.42842 0.50866 0.0
H1503 H 0.89175 0.37905 0.53044 0.0
H1504 H 0.01916 0.46467 0.52618 0.0
H1505 H 0.94314 0.51786 0.51728 0.0
H1506 H 0.93463 0.4863 0.53933 0.0
H1507 H 0.9244 0.47792 0.50617 0.0
C1508 C 0.94826 0.41412 0.57622 0.0
C1509 C 0.9209 0.39032 0.56437 0.0
C1510 C 0.9678 0.44262 0.56351 0.0
C1511 C 0.96007 0.44812 0.53892 0.0
C1512 C 0.93192 0.4251 0.52772 0.0
H1513 H 0.05175 0.5918 0.4208 0.0
H1514 H 0.0182 0.5423 0.44351 0.0
C1515 C 0.91255 0.39669 0.54029 0.0
C1516 C 0.98245 0.47648 0.52396 0.0
H1517 H 0.9884 0.53902 0.49033 0.0
C1518 C 0.01253 0.4811 0.51855 0.0
C1519 C 0.97374 0.49776 0.51371 0.0
C1520 C 0.94233 0.49494 0.5196 0.0
C1521 C 0.03385 0.50599 0.50287 0.0
C1522 C 0.02509 0.52719 0.49254 0.0
C1523 C 0.99504 0.52261 0.49799 0.0
C1524 C 0.04732 0.55535 0.47734 0.0
C1525 C 0.06535 0.50898 0.49707 0.0
C1526 C 0.07523 0.57887 0.48849 0.0
C1527 C 0.09437 0.6071 0.47561 0.0
C1528 C 0.08606 0.61273 0.45123 0.0
C1529 C 0.05898 0.5884 0.43947 0.0
C1530 C 0.03965 0.56012 0.45251 0.0
H1531 H 0.06488 0.48629 0.49993 0.0
H1532 H 0.07273 0.517 0.47716 0.0
H1533 H 0.08334 0.52661 0.51011 0.0
H1534 H 0.0815 0.57606 0.50772 0.0
H1535 H 0.11496 0.62518 0.48539 0.0
H1536 H 0.38012 0.4938 0.48329 0.0
H1537 H 0.42924 0.50977 0.50575 0.0
H1538 H 0.46141 0.476 0.44328 0.0
H1539 H 0.41233 0.46051 0.42024 0.0
H1540 H 0.44792 0.46902 0.52192 0.0
H1541 H 0.5396 0.55943 0.4592 0.0
H1542 H 0.49833 0.54671 0.45564 0.0
H1543 H 0.51386 0.52303 0.44327 0.0
C1544 C 0.39788 0.49044 0.4739 0.0
C1545 C 0.39198 0.47557 0.44991 0.0
C1546 C 0.42599 0.49947 0.48693 0.0
C1547 C 0.4491 0.49405 0.47635 0.0
C1548 C 0.44416 0.48083 0.45178 0.0
H1549 H 0.62417 0.51357 0.53187 0.0
H1550 H 0.575 0.49812 0.50968 0.0
C1551 C 0.41598 0.47192 0.43859 0.0
C1552 C 0.47701 0.50001 0.49198 0.0
H1553 H 0.55745 0.54056 0.49336 0.0
C1554 C 0.47188 0.4848 0.51571 0.0
C1555 C 0.5083 0.52053 0.48394 0.0
C1556 C 0.51547 0.53861 0.45924 0.0
C1557 C 0.49706 0.48914 0.53137 0.0
C1558 C 0.52834 0.50959 0.52329 0.0
C1559 C 0.53348 0.52482 0.49957 0.0
C1560 C 0.55622 0.51533 0.53881 0.0
C1561 C 0.48996 0.4712 0.55613 0.0
C1562 C 0.56175 0.5292 0.56314 0.0
C1563 C 0.59 0.53791 0.57617 0.0
C1564 C 0.61343 0.53329 0.56491 0.0
C1565 C 0.60687 0.5177 0.54119 0.0
C1566 C 0.57874 0.50896 0.52832 0.0
H1567 H 0.4656 0.45076 0.55649 0.0
H1568 H 0.50673 0.46258 0.55945 0.0
H1569 H 0.49236 0.48708 0.5721 0.0
H1570 H 0.54492 0.5347 0.57157 0.0
H1571 H 0.59416 0.54989 0.5943 0.0
loop_
_geom_bond_atom_site_label_1
_geom_bond_atom_site_label_2
_geom_bond_distance
_geom_bond_site_symmetry_2
_ccdc_geom_bond_type
Co0 O2 2.143 . S
Co0 O8 2.074 . S
Co0 O11 2.093 . S
Co0 O24 2.097 . S
Co0 N41 2.151 . S
Co0 N49 2.214 1_554 S
Co1 O2 2.160 . S
Co1 O7 2.058 . S
Co1 O17 2.057 . S
Co1 O32 2.037 . S
Co1 N36 2.145 . S
Co1 N57 2.257 . S
O2 Co0 2.143 . S
O2 Co1 2.160 . S
C3 O4 1.278 . S
C3 O11 1.224 . S
O4 C3 1.278 . S
C5 O6 1.245 . S
C5 O17 1.232 . S
O6 C5 1.245 . S
O7 Co1 2.058 . S
O7 C33 1.269 . S
O8 Co0 2.074 . S
O8 C33 1.257 . S
H9 C34 0.930 . S
H10 C40 0.930 . S
O11 Co0 2.093 . S
O11 C3 1.224 . S
H12 C44 0.929 . S
H13 C46 0.930 . S
H14 C47 0.930 . S
H15 C45 0.929 . S
H16 C48 0.928 . S
O17 Co1 2.057 . S
O17 C5 1.232 . S
H18 C37 0.929 . S
H19 C38 0.929 . S
H20 C50 0.931 . S
H21 C42 0.929 . S
H22 C51 0.930 . S
H23 C43 0.931 . S
O24 Co0 2.097 . S
O24 C52 1.214 . S
H25 C53 0.929 . S
H26 C54 0.929 . S
H27 C55 0.930 . S
H28 C56 0.929 . S
H29 C58 0.930 . S
H30 C35 0.930 . S
H31 C39 0.925 1_655 S
O32 Co1 2.037 . S
O32 C52 1.234 . S
C33 O7 1.269 . S
C33 O8 1.257 . S
C34 H9 0.930 . S
C34 C37 1.388 1_655 S
C34 C39 1.417 1_655 S
C35 H30 0.930 . S
C35 C38 1.404 . S
C35 C39 1.360 . S
N36 Co1 2.145 . S
N36 C37 1.397 . S
N36 C38 1.334 . S
C37 H18 0.929 . S
C37 C34 1.388 1_455 S
C37 N36 1.397 . S
C38 H19 0.929 . S
C38 C35 1.404 . S
C38 N36 1.334 . S
C39 H31 0.925 1_455 S
C39 C34 1.417 1_455 S
C39 C35 1.360 . S
C40 H10 0.930 . S
C40 N41 1.330 . S
C40 C42 1.446 . S
N41 Co0 2.151 . S
N41 C40 1.330 . S
N41 C45 1.418 . S
C42 H21 0.929 . S
C42 C40 1.446 . S
C42 C43 1.332 . S
C43 H23 0.931 . S
C43 C42 1.332 . S
C43 C44 1.267 . S
C44 H12 0.929 . S
C44 C43 1.267 . S
C44 C45 1.251 . S
C45 H15 0.929 . S
C45 N41 1.418 . S
C45 C44 1.251 . S
C46 H13 0.930 . S
C46 C48 1.406 . S
C46 C51 1.261 . S
C47 H14 0.930 . S
C47 N49 1.325 . S
C47 C50 1.357 . S
C48 H16 0.928 . S
C48 C46 1.406 . S
C48 N49 1.261 . S
N49 Co0 2.214 1_556 S
N49 C47 1.325 . S
N49 C48 1.261 . S
C50 H20 0.931 . S
C50 C47 1.357 . S
C50 C51 1.312 . S
C51 H22 0.930 . S
C51 C46 1.261 . S
C51 C50 1.312 . S
C52 O24 1.214 . S
C52 O32 1.234 . S
C53 H25 0.929 . S
C53 C56 1.391 . S
C53 C58 1.391 . S
C54 H26 0.929 . S
C54 C55 1.390 . S
C54 N57 1.391 . S
C55 H27 0.930 . S
C55 C54 1.390 . S
C55 C56 1.392 . S
C56 H28 0.929 . S
C56 C53 1.391 . S
C56 C55 1.392 . S
N57 Co1 2.257 . S
N57 C54 1.391 . S
N57 C58 1.388 . S
C58 H29 0.930 . S
C58 C53 1.391 . S
C58 N57 1.388 . S
Co59 O61 2.143 . S
Co59 O67 2.074 . S
Co59 O70 2.093 . S
Co59 O83 2.097 . S
Co59 N100 2.151 . S
Co59 N108 2.214 1_554 S
Co60 O61 2.160 . S
Co60 O66 2.058 . S
Co60 O76 2.057 . S
Co60 O91 2.037 . S
Co60 N95 2.145 . S
Co60 N116 2.257 . S
O61 Co59 2.143 . S
O61 Co60 2.160 . S
C62 O63 1.278 . S
C62 O70 1.224 . S
O63 C62 1.278 . S
C64 O65 1.245 . S
C64 O76 1.232 . S
O65 C64 1.245 . S
O66 Co60 2.058 . S
O66 C92 1.269 . S
O67 Co59 2.074 . S
O67 C92 1.257 . S
H68 C93 0.930 . S
H69 C99 0.930 . S
O70 Co59 2.093 . S
O70 C62 1.224 . S
H71 C103 0.929 . S
H72 C105 0.930 . S
H73 C106 0.930 . S
H74 C104 0.929 . S
H75 C107 0.928 . S
O76 Co60 2.057 . S
O76 C64 1.232 . S
H77 C96 0.929 . S
H78 C97 0.929 . S
H79 C109 0.931 . S
H80 C101 0.929 . S
H81 C110 0.930 . S
H82 C102 0.931 . S
O83 Co59 2.097 . S
O83 C111 1.214 . S
H84 C112 0.929 . S
H85 C113 0.929 . S
H86 C114 0.930 . S
H87 C115 0.929 . S
H88 C117 0.930 . S
H89 C94 0.930 . S
H90 C98 0.930 . S
O91 Co60 2.037 . S
O91 C111 1.234 . S
C92 O66 1.269 . S
C92 O67 1.257 . S
C93 H68 0.930 . S
C93 C96 1.388 . S
C93 C98 1.418 . S
C94 H89 0.930 . S
C94 C97 1.404 . S
C94 C98 1.353 . S
N95 Co60 2.145 . S
N95 C96 1.397 . S
N95 C97 1.334 . S
C96 H77 0.929 . S
C96 C93 1.388 . S
C96 N95 1.397 . S
C97 H78 0.929 . S
C97 C94 1.404 . S
C97 N95 1.334 . S
C98 H90 0.930 . S
C98 C93 1.418 . S
C98 C94 1.353 . S
C99 H69 0.930 . S
C99 N100 1.330 . S
C99 C101 1.446 . S
N100 Co59 2.151 . S
N100 C99 1.330 . S
N100 C104 1.418 . S
C101 H80 0.929 . S
C101 C99 1.446 . S
C101 C102 1.332 . S
C102 H82 0.931 . S
C102 C101 1.332 . S
C102 C103 1.267 . S
C103 H71 0.929 . S
C103 C102 1.267 . S
C103 C104 1.251 . S
C104 H74 0.929 . S
C104 N100 1.418 . S
C104 C103 1.251 . S
C105 H72 0.930 . S
C105 C107 1.406 . S
C105 C110 1.261 . S
C106 H73 0.930 . S
C106 N108 1.325 . S
C106 C109 1.357 . S
C107 H75 0.928 . S
C107 C105 1.406 . S
C107 N108 1.261 . S
N108 Co59 2.214 1_556 S
N108 C106 1.325 . S
N108 C107 1.261 . S
C109 H79 0.931 . S
C109 C106 1.357 . S
C109 C110 1.312 . S
C110 H81 0.930 . S
C110 C105 1.261 . S
C110 C109 1.312 . S
C111 O83 1.214 . S
C111 O91 1.234 . S
C112 H84 0.929 . S
C112 C115 1.391 . S
C112 C117 1.391 . S
C113 H85 0.929 . S
C113 C114 1.390 . S
C113 N116 1.391 . S
C114 H86 0.930 . S
C114 C113 1.390 . S
C114 C115 1.392 . S
C115 H87 0.929 . S
C115 C112 1.391 . S
C115 C114 1.392 . S
N116 Co60 2.257 . S
N116 C113 1.391 . S
N116 C117 1.388 . S
C117 H88 0.930 . S
C117 C112 1.391 . S
C117 N116 1.388 . S
Co118 O120 2.143 . S
Co118 O126 2.074 . S
Co118 O129 2.093 . S
Co118 O142 2.097 . S
Co118 N159 2.151 . S
Co118 N167 2.214 1_554 S
Co119 O120 2.160 . S
Co119 O125 2.058 . S
Co119 O135 2.057 . S
Co119 O150 2.037 . S
Co119 N154 2.145 . S
Co119 N175 2.257 . S
O120 Co118 2.143 . S
O120 Co119 2.160 . S
C121 O122 1.278 . S
C121 O129 1.224 . S
O122 C121 1.278 . S
C123 O124 1.245 . S
C123 O135 1.232 . S
O124 C123 1.245 . S
O125 Co119 2.058 . S
O125 C151 1.269 . S
O126 Co118 2.074 . S
O126 C151 1.257 . S
H127 C152 0.930 . S
H128 C158 0.930 . S
O129 Co118 2.093 . S
O129 C121 1.224 . S
H130 C162 0.929 . S
H131 C164 0.930 . S
H132 C165 0.930 . S
H133 C163 0.929 . S
H134 C166 0.928 . S
O135 Co119 2.057 . S
O135 C123 1.232 . S
H136 C155 0.929 . S
H137 C156 0.929 . S
H138 C168 0.931 . S
H139 C160 0.929 . S
H140 C169 0.930 . S
H141 C161 0.931 . S
O142 Co118 2.097 . S
O142 C170 1.214 . S
H143 C171 0.929 . S
H144 C172 0.929 . S
H145 C173 0.930 . S
H146 C174 0.929 . S
H147 C176 0.930 . S
H148 C153 0.930 . S
H149 C157 0.925 1_545 S
O150 Co119 2.037 . S
O150 C170 1.234 . S
C151 O125 1.269 . S
C151 O126 1.257 . S
C152 H127 0.930 . S
C152 C155 1.388 1_545 S
C152 C157 1.418 1_545 S
C153 H148 0.930 . S
C153 C156 1.404 . S
C153 C157 1.358 . S
N154 Co119 2.145 . S
N154 C155 1.397 . S
N154 C156 1.334 . S
C155 H136 0.929 . S
C155 C152 1.388 1_565 S
C155 N154 1.397 . S
C156 H137 0.929 . S
C156 C153 1.404 . S
C156 N154 1.334 . S
C157 H149 0.925 1_565 S
C157 C152 1.418 1_565 S
C157 C153 1.358 . S
C158 H128 0.930 . S
C158 N159 1.330 . S
C158 C160 1.446 . S
N159 Co118 2.151 . S
N159 C158 1.330 . S
N159 C163 1.418 . S
C160 H139 0.929 . S
C160 C158 1.446 . S
C160 C161 1.332 . S
C161 H141 0.931 . S
C161 C160 1.332 . S
C161 C162 1.267 . S
C162 H130 0.929 . S
C162 C161 1.267 . S
C162 C163 1.251 . S
C163 H133 0.929 . S
C163 N159 1.418 . S
C163 C162 1.251 . S
C164 H131 0.930 . S
C164 C166 1.406 . S
C164 C169 1.261 . S
C165 H132 0.930 . S
C165 N167 1.325 . S
C165 C168 1.357 . S
C166 H134 0.928 . S
C166 C164 1.406 . S
C166 N167 1.261 . S
N167 Co118 2.214 1_556 S
N167 C165 1.325 . S
N167 C166 1.261 . S
C168 H138 0.931 . S
C168 C165 1.357 . S
C168 C169 1.312 . S
C169 H140 0.930 . S
C169 C164 1.261 . S
C169 C168 1.312 . S
C170 O142 1.214 . S
C170 O150 1.234 . S
C171 H143 0.929 . S
C171 C174 1.391 . S
C171 C176 1.391 . S
C172 H144 0.929 . S
C172 C173 1.390 . S
C172 N175 1.391 . S
C173 H145 0.930 . S
C173 C172 1.390 . S
C173 C174 1.392 . S
C174 H146 0.929 . S
C174 C171 1.391 . S
C174 C173 1.392 . S
N175 Co119 2.257 . S
N175 C172 1.391 . S
N175 C176 1.388 . S
C176 H147 0.930 . S
C176 C171 1.391 . S
C176 N175 1.388 . S
Co177 O179 2.143 . S
Co177 O185 2.074 . S
Co177 O188 2.093 . S
Co177 O201 2.097 . S
Co177 N218 2.151 . S
Co177 N226 2.214 . S
Co178 O179 2.160 . S
Co178 O184 2.058 . S
Co178 O194 2.057 . S
Co178 O209 2.037 . S
Co178 N213 2.145 . S
Co178 N234 2.257 . S
O179 Co177 2.143 . S
O179 Co178 2.160 . S
C180 O181 1.278 . S
C180 O188 1.224 . S
O181 C180 1.278 . S
C182 O183 1.245 . S
C182 O194 1.232 . S
O183 C182 1.245 . S
O184 Co178 2.058 . S
O184 C210 1.269 . S
O185 Co177 2.074 . S
O185 C210 1.257 . S
H186 C211 0.930 . S
H187 C217 0.930 . S
O188 Co177 2.093 . S
O188 C180 1.224 . S
H189 C221 0.929 . S
H190 C223 0.930 . S
H191 C224 0.930 . S
H192 C222 0.929 . S
H193 C225 0.928 . S
O194 Co178 2.057 . S
O194 C182 1.232 . S
H195 C214 0.929 . S
H196 C215 0.929 . S
H197 C227 0.931 . S
H198 C219 0.929 . S
H199 C228 0.930 . S
H200 C220 0.931 . S
O201 Co177 2.097 . S
O201 C229 1.214 . S
H202 C230 0.929 . S
H203 C231 0.929 . S
H204 C232 0.930 . S
H205 C233 0.929 . S
H206 C235 0.930 . S
H207 C212 0.930 . S
H208 C216 0.925 1_545 S
O209 Co178 2.037 . S
O209 C229 1.234 . S
C210 O184 1.269 . S
C210 O185 1.257 . S
C211 H186 0.930 . S
C211 C214 1.388 1_545 S
C211 C216 1.417 1_545 S
C212 H207 0.930 . S
C212 C215 1.404 . S
C212 C216 1.360 . S
N213 Co178 2.145 . S
N213 C214 1.397 . S
N213 C215 1.334 . S
C214 H195 0.929 . S
C214 C211 1.388 1_565 S
C214 N213 1.397 . S
C215 H196 0.929 . S
C215 C212 1.404 . S
C215 N213 1.334 . S
C216 H208 0.925 1_565 S
C216 C211 1.417 1_565 S
C216 C212 1.360 . S
C217 H187 0.930 . S
C217 N218 1.330 . S
C217 C219 1.446 . S
N218 Co177 2.151 . S
N218 C217 1.330 . S
N218 C222 1.418 . S
C219 H198 0.929 . S
C219 C217 1.446 . S
C219 C220 1.332 . S
C220 H200 0.931 . S
C220 C219 1.332 . S
C220 C221 1.267 . S
C221 H189 0.929 . S
C221 C220 1.267 . S
C221 C222 1.251 . S
C222 H192 0.929 . S
C222 N218 1.418 . S
C222 C221 1.251 . S
C223 H190 0.930 . S
C223 C225 1.406 . S
C223 C228 1.261 . S
C224 H191 0.930 . S
C224 N226 1.325 . S
C224 C227 1.357 . S
C225 H193 0.928 . S
C225 C223 1.406 . S
C225 N226 1.261 . S
N226 Co177 2.214 . S
N226 C224 1.325 . S
N226 C225 1.261 . S
C227 H197 0.931 . S
C227 C224 1.357 . S
C227 C228 1.312 . S
C228 H199 0.930 . S
C228 C223 1.261 . S
C228 C227 1.312 . S
C229 O201 1.214 . S
C229 O209 1.234 . S
C230 H202 0.929 . S
C230 C233 1.391 . S
C230 C235 1.391 . S
C231 H203 0.929 . S
C231 C232 1.390 . S
C231 N234 1.391 . S
C232 H204 0.930 . S
C232 C231 1.390 . S
C232 C233 1.392 . S
C233 H205 0.929 . S
C233 C230 1.391 . S
C233 C232 1.392 . S
N234 Co178 2.257 . S
N234 C231 1.391 . S
N234 C235 1.388 . S
C235 H206 0.930 . S
C235 C230 1.391 . S
C235 N234 1.388 . S
Co236 O238 2.143 . S
Co236 O244 2.074 . S
Co236 O247 2.093 . S
Co236 O260 2.097 . S
Co236 N277 2.151 . S
Co236 N285 2.214 . S
Co237 O238 2.160 . S
Co237 O243 2.058 . S
Co237 O253 2.057 . S
Co237 O268 2.037 . S
Co237 N272 2.145 . S
Co237 N293 2.257 . S
O238 Co236 2.143 . S
O238 Co237 2.160 . S
C239 O240 1.278 . S
C239 O247 1.224 . S
O240 C239 1.278 . S
C241 O242 1.245 . S
C241 O253 1.232 . S
O242 C241 1.245 . S
O243 Co237 2.058 . S
O243 C269 1.269 . S
O244 Co236 2.074 . S
O244 C269 1.257 . S
H245 C270 0.930 . S
H246 C276 0.930 . S
O247 Co236 2.093 . S
O247 C239 1.224 . S
H248 C280 0.929 . S
H249 C282 0.930 . S
H250 C283 0.930 . S
H251 C281 0.929 . S
H252 C284 0.928 . S
O253 Co237 2.057 . S
O253 C241 1.232 . S
H254 C273 0.929 . S
H255 C274 0.929 . S
H256 C286 0.931 . S
H257 C278 0.929 . S
H258 C287 0.930 . S
H259 C279 0.931 . S
O260 Co236 2.097 . S
O260 C288 1.214 . S
H261 C289 0.929 . S
H262 C290 0.929 . S
H263 C291 0.930 . S
H264 C292 0.929 . S
H265 C294 0.930 . S
H266 C271 0.930 . S
H267 C275 0.925 1_655 S
O268 Co237 2.037 . S
O268 C288 1.234 . S
C269 O243 1.269 . S
C269 O244 1.257 . S
C270 H245 0.930 . S
C270 C273 1.388 1_655 S
C270 C275 1.418 1_655 S
C271 H266 0.930 . S
C271 C274 1.404 . S
C271 C275 1.358 . S
N272 Co237 2.145 . S
N272 C273 1.397 . S
N272 C274 1.334 . S
C273 H254 0.929 . S
C273 C270 1.388 1_455 S
C273 N272 1.397 . S
C274 H255 0.929 . S
C274 C271 1.404 . S
C274 N272 1.334 . S
C275 H267 0.925 1_455 S
C275 C270 1.418 1_455 S
C275 C271 1.358 . S
C276 H246 0.930 . S
C276 N277 1.330 . S
C276 C278 1.446 . S
N277 Co236 2.151 . S
N277 C276 1.330 . S
N277 C281 1.418 . S
C278 H257 0.929 . S
C278 C276 1.446 . S
C278 C279 1.332 . S
C279 H259 0.931 . S
C279 C278 1.332 . S
C279 C280 1.267 . S
C280 H248 0.929 . S
C280 C279 1.267 . S
C280 C281 1.251 . S
C281 H251 0.929 . S
C281 N277 1.418 . S
C281 C280 1.251 . S
C282 H249 0.930 . S
C282 C284 1.406 . S
C282 C287 1.261 . S
C283 H250 0.930 . S
C283 N285 1.325 . S
C283 C286 1.357 . S
C284 H252 0.928 . S
C284 C282 1.406 . S
C284 N285 1.261 . S
N285 Co236 2.214 . S
N285 C283 1.325 . S
N285 C284 1.261 . S
C286 H256 0.931 . S
C286 C283 1.357 . S
C286 C287 1.312 . S
C287 H258 0.930 . S
C287 C282 1.261 . S
C287 C286 1.312 . S
C288 O260 1.214 . S
C288 O268 1.234 . S
C289 H261 0.929 . S
C289 C292 1.391 . S
C289 C294 1.391 . S
C290 H262 0.929 . S
C290 C291 1.390 . S
C290 N293 1.391 . S
C291 H263 0.930 . S
C291 C290 1.390 . S
C291 C292 1.392 . S
C292 H264 0.929 . S
C292 C289 1.391 . S
C292 C291 1.392 . S
N293 Co237 2.257 . S
N293 C290 1.391 . S
N293 C294 1.388 . S
C294 H265 0.930 . S
C294 C289 1.391 . S
C294 N293 1.388 . S
Co295 O297 2.143 . S
Co295 O303 2.074 . S
Co295 O306 2.093 . S
Co295 O319 2.097 . S
Co295 N336 2.151 . S
Co295 N344 2.214 . S
Co296 O297 2.160 . S
Co296 O302 2.058 . S
Co296 O312 2.057 . S
Co296 O327 2.037 . S
Co296 N331 2.145 . S
Co296 N352 2.257 . S
O297 Co295 2.143 . S
O297 Co296 2.160 . S
C298 O299 1.278 . S
C298 O306 1.224 . S
O299 C298 1.278 . S
C300 O301 1.245 . S
C300 O312 1.232 . S
O301 C300 1.245 . S
O302 Co296 2.058 . S
O302 C328 1.269 . S
O303 Co295 2.074 . S
O303 C328 1.257 . S
H304 C329 0.930 . S
H305 C335 0.930 . S
O306 Co295 2.093 . S
O306 C298 1.224 . S
H307 C339 0.929 . S
H308 C341 0.930 . S
H309 C342 0.930 . S
H310 C340 0.929 . S
H311 C343 0.928 . S
O312 Co296 2.057 . S
O312 C300 1.232 . S
H313 C332 0.929 . S
H314 C333 0.929 . S
H315 C345 0.931 . S
H316 C337 0.929 . S
H317 C346 0.930 . S
H318 C338 0.931 . S
O319 Co295 2.097 . S
O319 C347 1.214 . S
H320 C348 0.929 . S
H321 C349 0.929 . S
H322 C350 0.930 . S
H323 C351 0.929 . S
H324 C353 0.930 . S
H325 C330 0.930 . S
H326 C334 0.930 . S
O327 Co296 2.037 . S
O327 C347 1.234 . S
C328 O302 1.269 . S
C328 O303 1.257 . S
C329 H304 0.930 . S
C329 C332 1.388 . S
C329 C334 1.418 . S
C330 H325 0.930 . S
C330 C333 1.404 . S
C330 C334 1.353 . S
N331 Co296 2.145 . S
N331 C332 1.397 . S
N331 C333 1.334 . S
C332 H313 0.929 . S
C332 C329 1.388 . S
C332 N331 1.397 . S
C333 H314 0.929 . S
C333 C330 1.404 . S
C333 N331 1.334 . S
C334 H326 0.930 . S
C334 C329 1.418 . S
C334 C330 1.353 . S
C335 H305 0.930 . S
C335 N336 1.330 . S
C335 C337 1.446 . S
N336 Co295 2.151 . S
N336 C335 1.330 . S
N336 C340 1.418 . S
C337 H316 0.929 . S
C337 C335 1.446 . S
C337 C338 1.332 . S
C338 H318 0.931 . S
C338 C337 1.332 . S
C338 C339 1.267 . S
C339 H307 0.929 . S
C339 C338 1.267 . S
C339 C340 1.251 . S
C340 H310 0.929 . S
C340 N336 1.418 . S
C340 C339 1.251 . S
C341 H308 0.930 . S
C341 C343 1.406 . S
C341 C346 1.261 . S
C342 H309 0.930 . S
C342 N344 1.325 . S
C342 C345 1.357 . S
C343 H311 0.928 . S
C343 C341 1.406 . S
C343 N344 1.261 . S
N344 Co295 2.214 . S
N344 C342 1.325 . S
N344 C343 1.261 . S
C345 H315 0.931 . S
C345 C342 1.357 . S
C345 C346 1.312 . S
C346 H317 0.930 . S
C346 C341 1.261 . S
C346 C345 1.312 . S
C347 O319 1.214 . S
C347 O327 1.234 . S
C348 H320 0.929 . S
C348 C351 1.391 . S
C348 C353 1.391 . S
C349 H321 0.929 . S
C349 C350 1.390 . S
C349 N352 1.391 . S
C350 H322 0.930 . S
C350 C349 1.390 . S
C350 C351 1.392 . S
C351 H323 0.929 . S
C351 C348 1.391 . S
C351 C350 1.392 . S
N352 Co296 2.257 . S
N352 C349 1.391 . S
N352 C353 1.388 . S
C353 H324 0.930 . S
C353 C348 1.391 . S
C353 N352 1.388 . S
Co354 O356 2.143 . S
Co354 O362 2.074 . S
Co354 O365 2.093 . S
Co354 O378 2.097 . S
Co354 N395 2.151 . S
Co354 N403 2.214 1_556 S
Co355 O356 2.160 . S
Co355 O361 2.058 . S
Co355 O371 2.057 . S
Co355 O386 2.037 . S
Co355 N390 2.145 . S
Co355 N411 2.257 . S
O356 Co354 2.143 . S
O356 Co355 2.160 . S
C357 O358 1.278 . S
C357 O365 1.224 . S
O358 C357 1.278 . S
C359 O360 1.245 . S
C359 O371 1.232 . S
O360 C359 1.245 . S
O361 Co355 2.058 . S
O361 C387 1.269 . S
O362 Co354 2.074 . S
O362 C387 1.257 . S
H363 C388 0.930 . S
H364 C394 0.930 . S
O365 Co354 2.093 . S
O365 C357 1.224 . S
H366 C398 0.929 . S
H367 C400 0.930 . S
H368 C401 0.930 . S
H369 C399 0.929 . S
H370 C402 0.928 . S
O371 Co355 2.057 . S
O371 C359 1.232 . S
H372 C391 0.929 . S
H373 C392 0.929 . S
H374 C404 0.931 . S
H375 C396 0.929 . S
H376 C405 0.930 . S
H377 C397 0.931 . S
O378 Co354 2.097 . S
O378 C406 1.214 . S
H379 C407 0.929 . S
H380 C408 0.929 . S
H381 C409 0.930 . S
H382 C410 0.929 . S
H383 C412 0.930 . S
H384 C389 0.930 . S
H385 C393 0.925 1_455 S
O386 Co355 2.037 . S
O386 C406 1.234 . S
C387 O361 1.269 . S
C387 O362 1.257 . S
C388 H363 0.930 . S
C388 C391 1.388 1_455 S
C388 C393 1.417 1_455 S
C389 H384 0.930 . S
C389 C392 1.404 . S
C389 C393 1.360 . S
N390 Co355 2.145 . S
N390 C391 1.397 . S
N390 C392 1.334 . S
C391 H372 0.929 . S
C391 C388 1.388 1_655 S
C391 N390 1.397 . S
C392 H373 0.929 . S
C392 C389 1.404 . S
C392 N390 1.334 . S
C393 H385 0.925 1_655 S
C393 C388 1.417 1_655 S
C393 C389 1.360 . S
C394 H364 0.930 . S
C394 N395 1.330 . S
C394 C396 1.446 . S
N395 Co354 2.151 . S
N395 C394 1.330 . S
N395 C399 1.418 . S
C396 H375 0.929 . S
C396 C394 1.446 . S
C396 C397 1.332 . S
C397 H377 0.931 . S
C397 C396 1.332 . S
C397 C398 1.267 . S
C398 H366 0.929 . S
C398 C397 1.267 . S
C398 C399 1.251 . S
C399 H369 0.929 . S
C399 N395 1.418 . S
C399 C398 1.251 . S
C400 H367 0.930 . S
C400 C402 1.406 . S
C400 C405 1.261 . S
C401 H368 0.930 . S
C401 N403 1.325 . S
C401 C404 1.357 . S
C402 H370 0.928 . S
C402 C400 1.406 . S
C402 N403 1.261 . S
N403 Co354 2.214 1_554 S
N403 C401 1.325 . S
N403 C402 1.261 . S
C404 H374 0.931 . S
C404 C401 1.357 . S
C404 C405 1.312 . S
C405 H376 0.930 . S
C405 C400 1.261 . S
C405 C404 1.312 . S
C406 O378 1.214 . S
C406 O386 1.234 . S
C407 H379 0.929 . S
C407 C410 1.391 . S
C407 C412 1.391 . S
C408 H380 0.929 . S
C408 C409 1.390 . S
C408 N411 1.391 . S
C409 H381 0.930 . S
C409 C408 1.390 . S
C409 C410 1.392 . S
C410 H382 0.929 . S
C410 C407 1.391 . S
C410 C409 1.392 . S
N411 Co355 2.257 . S
N411 C408 1.391 . S
N411 C412 1.388 . S
C412 H383 0.930 . S
C412 C407 1.391 . S
C412 N411 1.388 . S
Co413 O415 2.143 . S
Co413 O421 2.074 . S
Co413 O424 2.093 . S
Co413 O437 2.097 . S
Co413 N454 2.151 . S
Co413 N462 2.214 1_556 S
Co414 O415 2.160 . S
Co414 O420 2.058 . S
Co414 O430 2.057 . S
Co414 O445 2.037 . S
Co414 N449 2.145 . S
Co414 N470 2.257 . S
O415 Co413 2.143 . S
O415 Co414 2.160 . S
C416 O417 1.278 . S
C416 O424 1.224 . S
O417 C416 1.278 . S
C418 O419 1.245 . S
C418 O430 1.232 . S
O419 C418 1.245 . S
O420 Co414 2.058 . S
O420 C446 1.269 . S
O421 Co413 2.074 . S
O421 C446 1.257 . S
H422 C447 0.930 . S
H423 C453 0.930 . S
O424 Co413 2.093 . S
O424 C416 1.224 . S
H425 C457 0.929 . S
H426 C459 0.930 . S
H427 C460 0.930 . S
H428 C458 0.929 . S
H429 C461 0.928 . S
O430 Co414 2.057 . S
O430 C418 1.232 . S
H431 C450 0.929 . S
H432 C451 0.929 . S
H433 C463 0.931 . S
H434 C455 0.929 . S
H435 C464 0.930 . S
H436 C456 0.931 . S
O437 Co413 2.097 . S
O437 C465 1.214 . S
H438 C466 0.929 . S
H439 C467 0.929 . S
H440 C468 0.930 . S
H441 C469 0.929 . S
H442 C471 0.930 . S
H443 C448 0.930 . S
H444 C452 0.930 . S
O445 Co414 2.037 . S
O445 C465 1.234 . S
C446 O420 1.269 . S
C446 O421 1.257 . S
C447 H422 0.930 . S
C447 C450 1.388 . S
C447 C452 1.418 . S
C448 H443 0.930 . S
C448 C451 1.404 . S
C448 C452 1.353 . S
N449 Co414 2.145 . S
N449 C450 1.397 . S
N449 C451 1.334 . S
C450 H431 0.929 . S
C450 C447 1.388 . S
C450 N449 1.397 . S
C451 H432 0.929 . S
C451 C448 1.404 . S
C451 N449 1.334 . S
C452 H444 0.930 . S
C452 C447 1.418 . S
C452 C448 1.353 . S
C453 H423 0.930 . S
C453 N454 1.330 . S
C453 C455 1.446 . S
N454 Co413 2.151 . S
N454 C453 1.330 . S
N454 C458 1.418 . S
C455 H434 0.929 . S
C455 C453 1.446 . S
C455 C456 1.332 . S
C456 H436 0.931 . S
C456 C455 1.332 . S
C456 C457 1.267 . S
C457 H425 0.929 . S
C457 C456 1.267 . S
C457 C458 1.251 . S
C458 H428 0.929 . S
C458 N454 1.418 . S
C458 C457 1.251 . S
C459 H426 0.930 . S
C459 C461 1.406 . S
C459 C464 1.261 . S
C460 H427 0.930 . S
C460 N462 1.325 . S
C460 C463 1.357 . S
C461 H429 0.928 . S
C461 C459 1.406 . S
C461 N462 1.261 . S
N462 Co413 2.214 1_554 S
N462 C460 1.325 . S
N462 C461 1.261 . S
C463 H433 0.931 . S
C463 C460 1.357 . S
C463 C464 1.312 . S
C464 H435 0.930 . S
C464 C459 1.261 . S
C464 C463 1.312 . S
C465 O437 1.214 . S
C465 O445 1.234 . S
C466 H438 0.929 . S
C466 C469 1.391 . S
C466 C471 1.391 . S
C467 H439 0.929 . S
C467 C468 1.390 . S
C467 N470 1.391 . S
C468 H440 0.930 . S
C468 C467 1.390 . S
C468 C469 1.392 . S
C469 H441 0.929 . S
C469 C466 1.391 . S
C469 C468 1.392 . S
N470 Co414 2.257 . S
N470 C467 1.391 . S
N470 C471 1.388 . S
C471 H442 0.930 . S
C471 C466 1.391 . S
C471 N470 1.388 . S
Co472 O474 2.143 . S
Co472 O480 2.074 . S
Co472 O483 2.093 . S
Co472 O496 2.097 . S
Co472 N513 2.151 . S
Co472 N521 2.214 1_556 S
Co473 O474 2.160 . S
Co473 O479 2.058 . S
Co473 O489 2.057 . S
Co473 O504 2.037 . S
Co473 N508 2.145 . S
Co473 N529 2.257 . S
O474 Co472 2.143 . S
O474 Co473 2.160 . S
C475 O476 1.278 . S
C475 O483 1.224 . S
O476 C475 1.278 . S
C477 O478 1.245 . S
C477 O489 1.232 . S
O478 C477 1.245 . S
O479 Co473 2.058 . S
O479 C505 1.269 . S
O480 Co472 2.074 . S
O480 C505 1.257 . S
H481 C506 0.930 . S
H482 C512 0.930 . S
O483 Co472 2.093 . S
O483 C475 1.224 . S
H484 C516 0.929 . S
H485 C518 0.930 . S
H486 C519 0.930 . S
H487 C517 0.929 . S
H488 C520 0.928 . S
O489 Co473 2.057 . S
O489 C477 1.232 . S
H490 C509 0.929 . S
H491 C510 0.929 . S
H492 C522 0.931 . S
H493 C514 0.929 . S
H494 C523 0.930 . S
H495 C515 0.931 . S
O496 Co472 2.097 . S
O496 C524 1.214 . S
H497 C525 0.929 . S
H498 C526 0.929 . S
H499 C527 0.930 . S
H500 C528 0.929 . S
H501 C530 0.930 . S
H502 C507 0.930 . S
H503 C511 0.925 1_565 S
O504 Co473 2.037 . S
O504 C524 1.234 . S
C505 O479 1.269 . S
C505 O480 1.257 . S
C506 H481 0.930 . S
C506 C509 1.388 1_565 S
C506 C511 1.418 1_565 S
C507 H502 0.930 . S
C507 C510 1.404 . S
C507 C511 1.358 . S
N508 Co473 2.145 . S
N508 C509 1.397 . S
N508 C510 1.334 . S
C509 H490 0.929 . S
C509 C506 1.388 1_545 S
C509 N508 1.397 . S
C510 H491 0.929 . S
C510 C507 1.404 . S
C510 N508 1.334 . S
C511 H503 0.925 1_545 S
C511 C506 1.418 1_545 S
C511 C507 1.358 . S
C512 H482 0.930 . S
C512 N513 1.330 . S
C512 C514 1.446 . S
N513 Co472 2.151 . S
N513 C512 1.330 . S
N513 C517 1.418 . S
C514 H493 0.929 . S
C514 C512 1.446 . S
C514 C515 1.332 . S
C515 H495 0.931 . S
C515 C514 1.332 . S
C515 C516 1.267 . S
C516 H484 0.929 . S
C516 C515 1.267 . S
C516 C517 1.251 . S
C517 H487 0.929 . S
C517 N513 1.418 . S
C517 C516 1.251 . S
C518 H485 0.930 . S
C518 C520 1.406 . S
C518 C523 1.261 . S
C519 H486 0.930 . S
C519 N521 1.325 . S
C519 C522 1.357 . S
C520 H488 0.928 . S
C520 C518 1.406 . S
C520 N521 1.261 . S
N521 Co472 2.214 1_554 S
N521 C519 1.325 . S
N521 C520 1.261 . S
C522 H492 0.931 . S
C522 C519 1.357 . S
C522 C523 1.312 . S
C523 H494 0.930 . S
C523 C518 1.261 . S
C523 C522 1.312 . S
C524 O496 1.214 . S
C524 O504 1.234 . S
C525 H497 0.929 . S
C525 C528 1.391 . S
C525 C530 1.391 . S
C526 H498 0.929 . S
C526 C527 1.390 . S
C526 N529 1.391 . S
C527 H499 0.930 . S
C527 C526 1.390 . S
C527 C528 1.392 . S
C528 H500 0.929 . S
C528 C525 1.391 . S
C528 C527 1.392 . S
N529 Co473 2.257 . S
N529 C526 1.391 . S
N529 C530 1.388 . S
C530 H501 0.930 . S
C530 C525 1.391 . S
C530 N529 1.388 . S
Co531 O533 2.143 . S
Co531 O539 2.074 . S
Co531 O542 2.093 . S
Co531 O555 2.097 . S
Co531 N572 2.151 . S
Co531 N580 2.214 . S
Co532 O533 2.160 . S
Co532 O538 2.058 . S
Co532 O548 2.057 . S
Co532 O563 2.037 . S
Co532 N567 2.145 . S
Co532 N588 2.257 . S
O533 Co531 2.143 . S
O533 Co532 2.160 . S
C534 O535 1.278 . S
C534 O542 1.224 . S
O535 C534 1.278 . S
C536 O537 1.245 . S
C536 O548 1.232 . S
O537 C536 1.245 . S
O538 Co532 2.058 . S
O538 C564 1.269 . S
O539 Co531 2.074 . S
O539 C564 1.257 . S
H540 C565 0.930 . S
H541 C571 0.930 . S
O542 Co531 2.093 . S
O542 C534 1.224 . S
H543 C575 0.929 . S
H544 C577 0.930 . S
H545 C578 0.930 . S
H546 C576 0.929 . S
H547 C579 0.928 . S
O548 Co532 2.057 . S
O548 C536 1.232 . S
H549 C568 0.929 . S
H550 C569 0.929 . S
H551 C581 0.931 . S
H552 C573 0.929 . S
H553 C582 0.930 . S
H554 C574 0.931 . S
O555 Co531 2.097 . S
O555 C583 1.214 . S
H556 C584 0.929 . S
H557 C585 0.929 . S
H558 C586 0.930 . S
H559 C587 0.929 . S
H560 C589 0.930 . S
H561 C566 0.930 . S
H562 C570 0.925 1_565 S
O563 Co532 2.037 . S
O563 C583 1.234 . S
C564 O538 1.269 . S
C564 O539 1.257 . S
C565 H540 0.930 . S
C565 C568 1.388 1_565 S
C565 C570 1.417 1_565 S
C566 H561 0.930 . S
C566 C569 1.404 . S
C566 C570 1.360 . S
N567 Co532 2.145 . S
N567 C568 1.397 . S
N567 C569 1.334 . S
C568 H549 0.929 . S
C568 C565 1.388 1_545 S
C568 N567 1.397 . S
C569 H550 0.929 . S
C569 C566 1.404 . S
C569 N567 1.334 . S
C570 H562 0.925 1_545 S
C570 C565 1.417 1_545 S
C570 C566 1.360 . S
C571 H541 0.930 . S
C571 N572 1.330 . S
C571 C573 1.446 . S
N572 Co531 2.151 . S
N572 C571 1.330 . S
N572 C576 1.418 . S
C573 H552 0.929 . S
C573 C571 1.446 . S
C573 C574 1.332 . S
C574 H554 0.931 . S
C574 C573 1.332 . S
C574 C575 1.267 . S
C575 H543 0.929 . S
C575 C574 1.267 . S
C575 C576 1.251 . S
C576 H546 0.929 . S
C576 N572 1.418 . S
C576 C575 1.251 . S
C577 H544 0.930 . S
C577 C579 1.406 . S
C577 C582 1.261 . S
C578 H545 0.930 . S
C578 N580 1.325 . S
C578 C581 1.357 . S
C579 H547 0.928 . S
C579 C577 1.406 . S
C579 N580 1.261 . S
N580 Co531 2.214 . S
N580 C578 1.325 . S
N580 C579 1.261 . S
C581 H551 0.931 . S
C581 C578 1.357 . S
C581 C582 1.312 . S
C582 H553 0.930 . S
C582 C577 1.261 . S
C582 C581 1.312 . S
C583 O555 1.214 . S
C583 O563 1.234 . S
C584 H556 0.929 . S
C584 C587 1.391 . S
C584 C589 1.391 . S
C585 H557 0.929 . S
C585 C586 1.390 . S
C585 N588 1.391 . S
C586 H558 0.930 . S
C586 C585 1.390 . S
C586 C587 1.392 . S
C587 H559 0.929 . S
C587 C584 1.391 . S
C587 C586 1.392 . S
N588 Co532 2.257 . S
N588 C585 1.391 . S
N588 C589 1.388 . S
C589 H560 0.930 . S
C589 C584 1.391 . S
C589 N588 1.388 . S
Co590 O592 2.143 . S
Co590 O598 2.074 . S
Co590 O601 2.093 . S
Co590 O614 2.097 . S
Co590 N631 2.151 . S
Co590 N639 2.214 . S
Co591 O592 2.160 . S
Co591 O597 2.058 . S
Co591 O607 2.057 . S
Co591 O622 2.037 . S
Co591 N626 2.145 . S
Co591 N647 2.257 . S
O592 Co590 2.143 . S
O592 Co591 2.160 . S
C593 O594 1.278 . S
C593 O601 1.224 . S
O594 C593 1.278 . S
C595 O596 1.245 . S
C595 O607 1.232 . S
O596 C595 1.245 . S
O597 Co591 2.058 . S
O597 C623 1.269 . S
O598 Co590 2.074 . S
O598 C623 1.257 . S
H599 C624 0.930 . S
H600 C630 0.930 . S
O601 Co590 2.093 . S
O601 C593 1.224 . S
H602 C634 0.929 . S
H603 C636 0.930 . S
H604 C637 0.930 . S
H605 C635 0.929 . S
H606 C638 0.928 . S
O607 Co591 2.057 . S
O607 C595 1.232 . S
H608 C627 0.929 . S
H609 C628 0.929 . S
H610 C640 0.931 . S
H611 C632 0.929 . S
H612 C641 0.930 . S
H613 C633 0.931 . S
O614 Co590 2.097 . S
O614 C642 1.214 . S
H615 C643 0.929 . S
H616 C644 0.929 . S
H617 C645 0.930 . S
H618 C646 0.929 . S
H619 C648 0.930 . S
H620 C625 0.930 . S
H621 C629 0.925 1_455 S
O622 Co591 2.037 . S
O622 C642 1.234 . S
C623 O597 1.269 . S
C623 O598 1.257 . S
C624 H599 0.930 . S
C624 C627 1.388 1_455 S
C624 C629 1.418 1_455 S
C625 H620 0.930 . S
C625 C628 1.404 . S
C625 C629 1.358 . S
N626 Co591 2.145 . S
N626 C627 1.397 . S
N626 C628 1.334 . S
C627 H608 0.929 . S
C627 C624 1.388 1_655 S
C627 N626 1.397 . S
C628 H609 0.929 . S
C628 C625 1.404 . S
C628 N626 1.334 . S
C629 H621 0.925 1_655 S
C629 C624 1.418 1_655 S
C629 C625 1.358 . S
C630 H600 0.930 . S
C630 N631 1.330 . S
C630 C632 1.446 . S
N631 Co590 2.151 . S
N631 C630 1.330 . S
N631 C635 1.418 . S
C632 H611 0.929 . S
C632 C630 1.446 . S
C632 C633 1.332 . S
C633 H613 0.931 . S
C633 C632 1.332 . S
C633 C634 1.267 . S
C634 H602 0.929 . S
C634 C633 1.267 . S
C634 C635 1.251 . S
C635 H605 0.929 . S
C635 N631 1.418 . S
C635 C634 1.251 . S
C636 H603 0.930 . S
C636 C638 1.406 . S
C636 C641 1.261 . S
C637 H604 0.930 . S
C637 N639 1.325 . S
C637 C640 1.357 . S
C638 H606 0.928 . S
C638 C636 1.406 . S
C638 N639 1.261 . S
N639 Co590 2.214 . S
N639 C637 1.325 . S
N639 C638 1.261 . S
C640 H610 0.931 . S
C640 C637 1.357 . S
C640 C641 1.312 . S
C641 H612 0.930 . S
C641 C636 1.261 . S
C641 C640 1.312 . S
C642 O614 1.214 . S
C642 O622 1.234 . S
C643 H615 0.929 . S
C643 C646 1.391 . S
C643 C648 1.391 . S
C644 H616 0.929 . S
C644 C645 1.390 . S
C644 N647 1.391 . S
C645 H617 0.930 . S
C645 C644 1.390 . S
C645 C646 1.392 . S
C646 H618 0.929 . S
C646 C643 1.391 . S
C646 C645 1.392 . S
N647 Co591 2.257 . S
N647 C644 1.391 . S
N647 C648 1.388 . S
C648 H619 0.930 . S
C648 C643 1.391 . S
C648 N647 1.388 . S
Co649 O651 2.143 . S
Co649 O657 2.074 . S
Co649 O660 2.093 . S
Co649 O673 2.097 . S
Co649 N690 2.151 . S
Co649 N698 2.214 . S
Co650 O651 2.160 . S
Co650 O656 2.058 . S
Co650 O666 2.057 . S
Co650 O681 2.037 . S
Co650 N685 2.145 . S
Co650 N706 2.257 . S
O651 Co649 2.143 . S
O651 Co650 2.160 . S
C652 O653 1.278 . S
C652 O660 1.224 . S
O653 C652 1.278 . S
C654 O655 1.245 . S
C654 O666 1.232 . S
O655 C654 1.245 . S
O656 Co650 2.058 . S
O656 C682 1.269 . S
O657 Co649 2.074 . S
O657 C682 1.257 . S
H658 C683 0.930 . S
H659 C689 0.930 . S
O660 Co649 2.093 . S
O660 C652 1.224 . S
H661 C693 0.929 . S
H662 C695 0.930 . S
H663 C696 0.930 . S
H664 C694 0.929 . S
H665 C697 0.928 . S
O666 Co650 2.057 . S
O666 C654 1.232 . S
H667 C686 0.929 . S
H668 C687 0.929 . S
H669 C699 0.931 . S
H670 C691 0.929 . S
H671 C700 0.930 . S
H672 C692 0.931 . S
O673 Co649 2.097 . S
O673 C701 1.214 . S
H674 C702 0.929 . S
H675 C703 0.929 . S
H676 C704 0.930 . S
H677 C705 0.929 . S
H678 C707 0.930 . S
H679 C684 0.930 . S
H680 C688 0.930 . S
O681 Co650 2.037 . S
O681 C701 1.234 . S
C682 O656 1.269 . S
C682 O657 1.257 . S
C683 H658 0.930 . S
C683 C686 1.388 . S
C683 C688 1.418 . S
C684 H679 0.930 . S
C684 C687 1.404 . S
C684 C688 1.353 . S
N685 Co650 2.145 . S
N685 C686 1.397 . S
N685 C687 1.334 . S
C686 H667 0.929 . S
C686 C683 1.388 . S
C686 N685 1.397 . S
C687 H668 0.929 . S
C687 C684 1.404 . S
C687 N685 1.334 . S
C688 H680 0.930 . S
C688 C683 1.418 . S
C688 C684 1.353 . S
C689 H659 0.930 . S
C689 N690 1.330 . S
C689 C691 1.446 . S
N690 Co649 2.151 . S
N690 C689 1.330 . S
N690 C694 1.418 . S
C691 H670 0.929 . S
C691 C689 1.446 . S
C691 C692 1.332 . S
C692 H672 0.931 . S
C692 C691 1.332 . S
C692 C693 1.267 . S
C693 H661 0.929 . S
C693 C692 1.267 . S
C693 C694 1.251 . S
C694 H664 0.929 . S
C694 N690 1.418 . S
C694 C693 1.251 . S
C695 H662 0.930 . S
C695 C697 1.406 . S
C695 C700 1.261 . S
C696 H663 0.930 . S
C696 N698 1.325 . S
C696 C699 1.357 . S
C697 H665 0.928 . S
C697 C695 1.406 . S
C697 N698 1.261 . S
N698 Co649 2.214 . S
N698 C696 1.325 . S
N698 C697 1.261 . S
C699 H669 0.931 . S
C699 C696 1.357 . S
C699 C700 1.312 . S
C700 H671 0.930 . S
C700 C695 1.261 . S
C700 C699 1.312 . S
C701 O673 1.214 . S
C701 O681 1.234 . S
C702 H674 0.929 . S
C702 C705 1.391 . S
C702 C707 1.391 . S
C703 H675 0.929 . S
C703 C704 1.390 . S
C703 N706 1.391 . S
C704 H676 0.930 . S
C704 C703 1.390 . S
C704 C705 1.392 . S
C705 H677 0.929 . S
C705 C702 1.391 . S
C705 C704 1.392 . S
N706 Co650 2.257 . S
N706 C703 1.391 . S
N706 C707 1.388 . S
C707 H678 0.930 . S
C707 C702 1.391 . S
C707 N706 1.388 . S
H708 C716 0.940 . S
H709 C718 0.930 1_556 S
H710 C720 0.930 . S
H711 C723 0.929 . S
H712 C726 0.930 . S
H713 C728 0.957 1_556 S
H714 C728 0.952 1_556 S
H715 C728 0.972 . S
C716 H708 0.940 . S
C716 C717 1.377 . S
C716 C718 1.384 . S
C717 C716 1.377 . S
C717 C723 1.390 . S
C718 H709 0.930 1_554 S
C718 C716 1.384 . S
C718 C719 1.372 . S
C719 C718 1.372 . S
C719 C720 1.400 . S
C719 C724 1.490 . S
C720 H710 0.930 . S
C720 C719 1.400 . S
C720 C723 1.386 . S
H721 C737 0.932 1_554 S
H722 C738 0.931 1_554 S
C723 H711 0.929 . S
C723 C717 1.390 . S
C723 C720 1.386 . S
C724 C719 1.490 . S
C724 C726 1.395 . S
C724 C727 1.403 1_554 S
H725 C731 0.930 . S
C726 H712 0.930 . S
C726 C724 1.395 . S
C726 C729 1.403 1_554 S
C727 C724 1.403 1_556 S
C727 C728 1.524 1_556 S
C727 C731 1.400 . S
C728 H713 0.957 1_554 S
C728 H714 0.952 1_554 S
C728 H715 0.972 . S
C728 C727 1.524 1_554 S
C729 C726 1.403 1_556 S
C729 C730 1.392 . S
C729 C733 1.495 . S
C730 C729 1.392 . S
C730 C731 1.385 . S
C730 C732 1.478 . S
C731 H725 0.930 . S
C731 C727 1.400 . S
C731 C730 1.385 . S
C732 C730 1.478 . S
C732 C734 1.381 . S
C732 C738 1.383 . S
C733 C729 1.495 . S
C733 H739 0.966 . S
C733 H740 0.961 1_556 S
C733 H741 0.960 . S
C734 C732 1.381 . S
C734 C735 1.394 . S
C734 H742 0.930 . S
C735 C734 1.394 . S
C735 C736 1.383 . S
C735 H743 0.929 . S
C736 C735 1.383 . S
C736 C737 1.377 . S
C737 H721 0.932 1_556 S
C737 C736 1.377 . S
C737 C738 1.379 . S
C738 H722 0.931 1_556 S
C738 C732 1.383 . S
C738 C737 1.379 . S
H739 C733 0.966 . S
H740 C733 0.961 1_554 S
H741 C733 0.960 . S
H742 C734 0.930 . S
H743 C735 0.929 . S
H744 C752 0.929 . S
H745 C754 0.930 . S
H746 C756 0.930 . S
H747 C759 0.929 . S
H748 C762 0.930 . S
H749 C764 0.960 . S
H750 C764 0.960 . S
H751 C764 0.960 . S
C752 H744 0.929 . S
C752 C753 1.377 . S
C752 C754 1.384 . S
C753 C752 1.377 . S
C753 C759 1.390 . S
C754 H745 0.930 . S
C754 C752 1.384 . S
C754 C755 1.372 . S
C755 C754 1.372 . S
C755 C756 1.400 . S
C755 C760 1.490 . S
C756 H746 0.930 . S
C756 C755 1.400 . S
C756 C759 1.386 . S
H757 C773 0.930 . S
H758 C774 0.931 . S
C759 H747 0.929 . S
C759 C753 1.390 . S
C759 C756 1.386 . S
C760 C755 1.490 . S
C760 C762 1.395 1_554 S
C760 C763 1.403 . S
H761 C767 0.930 . S
C762 H748 0.930 . S
C762 C760 1.395 1_556 S
C762 C765 1.403 . S
C763 C760 1.403 . S
C763 C764 1.524 . S
C763 C767 1.400 . S
C764 H749 0.960 . S
C764 H750 0.960 . S
C764 H751 0.960 . S
C764 C763 1.524 . S
C765 C762 1.403 . S
C765 C766 1.392 . S
C765 C769 1.495 . S
C766 C765 1.392 . S
C766 C767 1.385 1_556 S
C766 C768 1.478 . S
C767 H761 0.930 . S
C767 C763 1.400 . S
C767 C766 1.385 1_554 S
C768 C766 1.478 . S
C768 C770 1.381 1_565 S
C768 C774 1.383 . S
C769 C765 1.495 . S
C769 H775 0.959 . S
C769 H776 0.961 . S
C769 H777 0.960 . S
C770 C768 1.381 1_545 S
C770 C771 1.394 . S
C770 H778 0.930 . S
C771 C770 1.394 . S
C771 C772 1.383 . S
C771 H779 0.929 . S
C772 C771 1.383 . S
C772 C773 1.377 . S
C773 H757 0.930 . S
C773 C772 1.377 . S
C773 C774 1.379 1_545 S
C774 H758 0.931 . S
C774 C768 1.383 . S
C774 C773 1.379 1_565 S
H775 C769 0.959 . S
H776 C769 0.961 . S
H777 C769 0.960 . S
H778 C770 0.930 . S
H779 C771 0.929 . S
H780 C788 0.929 . S
H781 C790 0.930 . S
H782 C792 0.930 . S
H783 C795 0.929 . S
H784 C798 0.930 . S
H785 C800 0.960 . S
H786 C800 0.960 . S
H787 C800 0.960 . S
C788 H780 0.929 . S
C788 C789 1.377 . S
C788 C790 1.384 . S
C789 C788 1.377 . S
C789 C795 1.390 . S
C790 H781 0.930 . S
C790 C788 1.384 . S
C790 C791 1.372 . S
C791 C790 1.372 . S
C791 C792 1.400 . S
C791 C796 1.490 . S
C792 H782 0.930 . S
C792 C791 1.400 . S
C792 C795 1.386 . S
H793 C809 0.930 . S
H794 C810 0.931 . S
C795 H783 0.929 . S
C795 C789 1.390 . S
C795 C792 1.386 . S
C796 C791 1.490 . S
C796 C798 1.395 . S
C796 C799 1.403 1_554 S
H797 C803 0.930 . S
C798 H784 0.930 . S
C798 C796 1.395 . S
C798 C801 1.403 . S
C799 C796 1.403 1_556 S
C799 C800 1.524 . S
C799 C803 1.400 . S
C800 H785 0.960 . S
C800 H786 0.960 . S
C800 H787 0.960 . S
C800 C799 1.524 . S
C801 C798 1.403 . S
C801 C802 1.392 1_554 S
C801 C805 1.495 . S
C802 C801 1.392 1_556 S
C802 C803 1.385 . S
C802 C804 1.478 . S
C803 H797 0.930 . S
C803 C799 1.400 . S
C803 C802 1.385 . S
C804 C802 1.478 . S
C804 C806 1.381 1_455 S
C804 C810 1.383 1_455 S
C805 C801 1.495 . S
C805 H811 0.959 . S
C805 H812 0.961 . S
C805 H813 0.960 . S
C806 C804 1.381 1_655 S
C806 C807 1.394 . S
C806 H814 0.930 1_655 S
C807 C806 1.394 . S
C807 C808 1.383 . S
C807 H815 0.929 . S
C808 C807 1.383 . S
C808 C809 1.377 . S
C809 H793 0.930 . S
C809 C808 1.377 . S
C809 C810 1.379 . S
C810 H794 0.931 . S
C810 C804 1.383 1_655 S
C810 C809 1.379 . S
H811 C805 0.959 . S
H812 C805 0.961 . S
H813 C805 0.960 . S
H814 C806 0.930 1_455 S
H815 C807 0.929 . S
H816 C824 0.929 . S
H817 C826 0.930 . S
H818 C828 0.930 . S
H819 C831 0.929 . S
H820 C834 0.930 . S
H821 C836 0.960 . S
H822 C836 0.960 . S
H823 C836 0.960 . S
C824 H816 0.929 . S
C824 C825 1.377 . S
C824 C826 1.384 . S
C825 C824 1.377 . S
C825 C831 1.390 . S
C826 H817 0.930 . S
C826 C824 1.384 . S
C826 C827 1.372 . S
C827 C826 1.372 . S
C827 C828 1.400 . S
C827 C832 1.490 . S
C828 H818 0.930 . S
C828 C827 1.400 . S
C828 C831 1.386 . S
H829 C845 0.930 . S
H830 C846 0.931 . S
C831 H819 0.929 . S
C831 C825 1.390 . S
C831 C828 1.386 . S
C832 C827 1.490 . S
C832 C834 1.395 . S
C832 C835 1.403 . S
H833 C839 0.930 . S
C834 H820 0.930 . S
C834 C832 1.395 . S
C834 C837 1.403 . S
C835 C832 1.403 . S
C835 C836 1.524 . S
C835 C839 1.400 . S
C836 H821 0.960 . S
C836 H822 0.960 . S
C836 H823 0.960 . S
C836 C835 1.524 . S
C837 C834 1.403 . S
C837 C838 1.392 . S
C837 C841 1.495 . S
C838 C837 1.392 . S
C838 C839 1.385 . S
C838 C840 1.478 . S
C839 H833 0.930 . S
C839 C835 1.400 . S
C839 C838 1.385 . S
C840 C838 1.478 . S
C840 C842 1.381 . S
C840 C846 1.383 . S
C841 C837 1.495 . S
C841 H847 0.959 . S
C841 H848 0.961 . S
C841 H849 0.960 . S
C842 C840 1.381 . S
C842 C843 1.394 . S
C842 H850 0.930 . S
C843 C842 1.394 . S
C843 C844 1.383 . S
C843 H851 0.929 . S
C844 C843 1.383 . S
C844 C845 1.377 . S
C845 H829 0.930 . S
C845 C844 1.377 . S
C845 C846 1.379 . S
C846 H830 0.931 . S
C846 C840 1.383 . S
C846 C845 1.379 . S
H847 C841 0.959 . S
H848 C841 0.961 . S
H849 C841 0.960 . S
H850 C842 0.930 . S
H851 C843 0.929 . S
H852 C860 0.929 . S
H853 C862 0.930 . S
H854 C864 0.930 . S
H855 C867 0.929 . S
H856 C870 0.930 . S
H857 C872 0.960 . S
H858 C872 0.960 . S
H859 C872 0.960 . S
C860 H852 0.929 . S
C860 C861 1.377 . S
C860 C862 1.384 . S
C861 C860 1.377 . S
C861 C867 1.390 . S
C862 H853 0.930 . S
C862 C860 1.384 . S
C862 C863 1.372 . S
C863 C862 1.372 . S
C863 C864 1.400 . S
C863 C868 1.490 . S
C864 H854 0.930 . S
C864 C863 1.400 . S
C864 C867 1.386 . S
H865 C881 0.930 . S
H866 C882 0.933 1_565 S
C867 H855 0.929 . S
C867 C861 1.390 . S
C867 C864 1.386 . S
C868 C863 1.490 . S
C868 C870 1.395 . S
C868 C871 1.403 . S
H869 C875 0.930 . S
C870 H856 0.930 . S
C870 C868 1.395 . S
C870 C873 1.403 . S
C871 C868 1.403 . S
C871 C872 1.524 . S
C871 C875 1.400 . S
C872 H857 0.960 . S
C872 H858 0.960 . S
C872 H859 0.960 . S
C872 C871 1.524 . S
C873 C870 1.403 . S
C873 C874 1.392 . S
C873 C877 1.495 . S
C874 C873 1.392 . S
C874 C875 1.385 . S
C874 C876 1.478 . S
C875 H869 0.930 . S
C875 C871 1.400 . S
C875 C874 1.385 . S
C876 C874 1.478 . S
C876 C878 1.381 1_565 S
C876 C882 1.383 1_565 S
C877 C873 1.495 . S
C877 H883 0.959 . S
C877 H884 0.961 . S
C877 H885 0.960 . S
C878 C876 1.381 1_545 S
C878 C879 1.394 . S
C878 H886 0.930 . S
C879 C878 1.394 . S
C879 C880 1.383 . S
C879 H887 0.929 . S
C880 C879 1.383 . S
C880 C881 1.377 . S
C881 H865 0.930 . S
C881 C880 1.377 . S
C881 C882 1.377 . S
C882 H866 0.933 1_545 S
C882 C876 1.383 1_545 S
C882 C881 1.377 . S
H883 C877 0.959 . S
H884 C877 0.961 . S
H885 C877 0.960 . S
H886 C878 0.930 . S
H887 C879 0.929 . S
H888 C896 0.929 . S
H889 C898 0.930 . S
H890 C900 0.930 . S
H891 C903 0.929 . S
H892 C906 0.930 . S
H893 C908 0.960 . S
H894 C908 0.960 . S
H895 C908 0.960 . S
C896 H888 0.929 . S
C896 C897 1.377 . S
C896 C898 1.384 1_655 S
C897 C896 1.377 . S
C897 C903 1.390 . S
C898 H889 0.930 . S
C898 C896 1.384 1_455 S
C898 C899 1.372 . S
C899 C898 1.372 . S
C899 C900 1.400 1_455 S
C899 C904 1.490 . S
C900 H890 0.930 . S
C900 C899 1.400 1_655 S
C900 C903 1.386 . S
H901 C917 0.930 . S
H902 C918 0.931 . S
C903 H891 0.929 . S
C903 C897 1.390 . S
C903 C900 1.386 . S
C904 C899 1.490 . S
C904 C906 1.395 . S
C904 C907 1.403 . S
H905 C911 0.930 . S
C906 H892 0.930 . S
C906 C904 1.395 . S
C906 C909 1.403 . S
C907 C904 1.403 . S
C907 C908 1.524 . S
C907 C911 1.400 . S
C908 H893 0.960 . S
C908 H894 0.960 . S
C908 H895 0.960 . S
C908 C907 1.524 . S
C909 C906 1.403 . S
C909 C910 1.392 . S
C909 C913 1.495 . S
C910 C909 1.392 . S
C910 C911 1.385 . S
C910 C912 1.478 . S
C911 H905 0.930 . S
C911 C907 1.400 . S
C911 C910 1.385 . S
C912 C910 1.478 . S
C912 C914 1.381 . S
C912 C918 1.383 . S
C913 C909 1.495 . S
C913 H919 0.959 . S
C913 H920 0.961 . S
C913 H921 0.960 . S
C914 C912 1.381 . S
C914 C915 1.394 . S
C914 H922 0.930 . S
C915 C914 1.394 . S
C915 C916 1.383 . S
C915 H923 0.929 . S
C916 C915 1.383 . S
C916 C917 1.377 . S
C917 H901 0.930 . S
C917 C916 1.377 . S
C917 C918 1.379 . S
C918 H902 0.931 . S
C918 C912 1.383 . S
C918 C917 1.379 . S
H919 C913 0.959 . S
H920 C913 0.961 . S
H921 C913 0.960 . S
H922 C914 0.930 . S
H923 C915 0.929 . S
H924 C932 0.929 . S
H925 C934 0.930 1_556 S
H926 C936 0.930 . S
H927 C939 0.929 . S
H928 C942 0.930 . S
H929 C944 0.960 . S
H930 C944 0.960 . S
H931 C944 0.960 1_554 S
C932 H924 0.929 . S
C932 C933 1.377 . S
C932 C934 1.384 . S
C933 C932 1.377 . S
C933 C939 1.390 . S
C934 H925 0.930 1_554 S
C934 C932 1.384 . S
C934 C935 1.372 . S
C935 C934 1.372 . S
C935 C936 1.400 . S
C935 C940 1.490 . S
C936 H926 0.930 . S
C936 C935 1.400 . S
C936 C939 1.386 . S
H937 C953 0.930 . S
H938 C954 0.931 1_554 S
C939 H927 0.929 . S
C939 C933 1.390 . S
C939 C936 1.386 . S
C940 C935 1.490 . S
C940 C942 1.395 . S
C940 C943 1.403 1_554 S
H941 C947 0.930 . S
C942 H928 0.930 . S
C942 C940 1.395 . S
C942 C945 1.403 . S
C943 C940 1.403 1_556 S
C943 C944 1.524 . S
C943 C947 1.400 . S
C944 H929 0.960 . S
C944 H930 0.960 . S
C944 H931 0.960 1_556 S
C944 C943 1.524 . S
C945 C942 1.403 . S
C945 C946 1.392 1_554 S
C945 C949 1.495 . S
C946 C945 1.392 1_556 S
C946 C947 1.385 . S
C946 C948 1.478 . S
C947 H941 0.930 . S
C947 C943 1.400 . S
C947 C946 1.385 . S
C948 C946 1.478 . S
C948 C950 1.381 . S
C948 C954 1.383 . S
C949 C945 1.495 . S
C949 H955 0.959 . S
C949 H956 0.961 . S
C949 H957 0.960 1_554 S
C950 C948 1.381 . S
C950 C951 1.394 . S
C950 H958 0.930 . S
C951 C950 1.394 . S
C951 C952 1.383 . S
C951 H959 0.929 . S
C952 C951 1.383 . S
C952 C953 1.377 . S
C953 H937 0.930 . S
C953 C952 1.377 . S
C953 C954 1.379 . S
C954 H938 0.931 1_556 S
C954 C948 1.383 . S
C954 C953 1.379 . S
H955 C949 0.959 . S
H956 C949 0.961 . S
H957 C949 0.960 1_556 S
H958 C950 0.930 . S
H959 C951 0.929 . S
H960 C968 0.929 1_554 S
H961 C970 0.930 . S
H962 C972 0.930 . S
H963 C975 0.929 . S
H964 C978 0.930 . S
H965 C980 0.960 . S
H966 C980 0.960 . S
H967 C980 0.960 . S
C968 H960 0.929 1_556 S
C968 C969 1.377 . S
C968 C970 1.384 1_556 S
C969 C968 1.377 . S
C969 C975 1.390 . S
C970 H961 0.930 . S
C970 C968 1.384 1_554 S
C970 C971 1.372 1_554 S
C971 C970 1.372 1_556 S
C971 C972 1.400 . S
C971 C976 1.490 . S
C972 H962 0.930 . S
C972 C971 1.400 . S
C972 C975 1.386 . S
H973 C989 0.930 1_556 S
H974 C990 0.931 1_556 S
C975 H963 0.929 . S
C975 C969 1.390 . S
C975 C972 1.386 . S
C976 C971 1.490 . S
C976 C978 1.395 1_556 S
C976 C979 1.403 . S
H977 C983 0.930 1_556 S
C978 H964 0.930 . S
C978 C976 1.395 1_554 S
C978 C981 1.403 . S
C979 C976 1.403 . S
C979 C980 1.524 . S
C979 C983 1.399 1_556 S
C980 H965 0.960 . S
C980 H966 0.960 . S
C980 H967 0.960 . S
C980 C979 1.524 . S
C981 C978 1.403 . S
C981 C982 1.392 . S
C981 C985 1.495 . S
C982 C981 1.392 . S
C982 C983 1.386 . S
C982 C984 1.478 . S
C983 H977 0.930 1_554 S
C983 C979 1.399 1_554 S
C983 C982 1.386 . S
C984 C982 1.478 . S
C984 C986 1.377 1_545 S
C984 C990 1.383 1_545 S
C985 C981 1.495 . S
C985 H991 0.959 . S
C985 H992 0.961 . S
C985 H993 0.960 . S
C986 C984 1.377 1_565 S
C986 C987 1.410 . S
C986 H994 0.918 1_565 S
C987 C986 1.410 . S
C987 C988 1.383 . S
C987 H995 0.929 . S
C988 C987 1.383 . S
C988 C989 1.377 . S
C989 H973 0.930 1_554 S
C989 C988 1.377 . S
C989 C990 1.379 . S
C990 H974 0.931 1_554 S
C990 C984 1.383 1_565 S
C990 C989 1.379 . S
H991 C985 0.959 . S
H992 C985 0.961 . S
H993 C985 0.960 . S
H994 C986 0.918 1_545 S
H995 C987 0.929 . S
H996 C1004 0.929 . S
H997 C1006 0.930 1_556 S
H998 C1008 0.930 . S
H999 C1011 0.929 . S
H1000 C1014 0.930 . S
H1001 C1016 0.951 1_556 S
H1002 C1016 0.936 1_556 S
H1003 C1016 0.994 . S
C1004 H996 0.929 . S
C1004 C1005 1.377 . S
C1004 C1006 1.384 . S
C1005 C1004 1.377 . S
C1005 C1011 1.390 . S
C1006 H997 0.930 1_554 S
C1006 C1004 1.384 . S
C1006 C1007 1.372 1_455 S
C1007 C1006 1.372 1_655 S
C1007 C1008 1.400 . S
C1007 C1012 1.490 . S
C1008 H998 0.930 . S
C1008 C1007 1.400 . S
C1008 C1011 1.386 1_655 S
H1009 C1025 0.930 1_554 S
H1010 C1026 0.898 1_554 S
C1011 H999 0.929 . S
C1011 C1005 1.390 . S
C1011 C1008 1.386 1_455 S
C1012 C1007 1.490 . S
C1012 C1014 1.395 . S
C1012 C1015 1.403 . S
H1013 C1019 0.930 . S
C1014 H1000 0.930 . S
C1014 C1012 1.395 . S
C1014 C1017 1.403 1_554 S
C1015 C1012 1.403 . S
C1015 C1016 1.524 . S
C1015 C1019 1.400 1_554 S
C1016 H1001 0.951 1_554 S
C1016 H1002 0.936 1_554 S
C1016 H1003 0.994 . S
C1016 C1015 1.524 . S
C1017 C1014 1.403 1_556 S
C1017 C1018 1.392 . S
C1017 C1021 1.495 . S
C1018 C1017 1.392 . S
C1018 C1019 1.385 . S
C1018 C1020 1.478 . S
C1019 H1013 0.930 . S
C1019 C1015 1.400 1_556 S
C1019 C1018 1.385 . S
C1020 C1018 1.478 . S
C1020 C1022 1.381 . S
C1020 C1026 1.404 . S
C1021 C1017 1.495 . S
C1021 H1027 0.959 1_556 S
C1021 H1028 0.961 1_556 S
C1021 H1029 0.960 . S
C1022 C1020 1.381 . S
C1022 C1023 1.394 . S
C1022 H1030 0.930 . S
C1023 C1022 1.394 . S
C1023 C1024 1.383 . S
C1023 H1031 0.929 . S
C1024 C1023 1.383 . S
C1024 C1025 1.377 . S
C1025 H1009 0.930 1_556 S
C1025 C1024 1.377 . S
C1025 C1026 1.392 . S
C1026 H1010 0.898 1_556 S
C1026 C1020 1.404 . S
C1026 C1025 1.392 . S
H1027 C1021 0.959 1_554 S
H1028 C1021 0.961 1_554 S
H1029 C1021 0.960 . S
H1030 C1022 0.930 . S
H1031 C1023 0.929 . S
H1032 C1040 0.929 . S
H1033 C1042 0.930 . S
H1034 C1044 0.930 . S
H1035 C1047 0.929 . S
H1036 C1050 0.930 . S
H1037 C1052 0.960 . S
H1038 C1052 0.960 . S
H1039 C1052 0.960 . S
C1040 H1032 0.929 . S
C1040 C1041 1.377 . S
C1040 C1042 1.384 . S
C1041 C1040 1.377 . S
C1041 C1047 1.390 . S
C1042 H1033 0.930 . S
C1042 C1040 1.384 . S
C1042 C1043 1.372 . S
C1043 C1042 1.372 . S
C1043 C1044 1.400 . S
C1043 C1048 1.490 . S
C1044 H1034 0.930 . S
C1044 C1043 1.400 . S
C1044 C1047 1.386 . S
H1045 C1061 0.930 . S
H1046 C1062 0.931 . S
C1047 H1035 0.929 . S
C1047 C1041 1.390 . S
C1047 C1044 1.386 . S
C1048 C1043 1.490 . S
C1048 C1050 1.395 . S
C1048 C1051 1.403 . S
H1049 C1055 0.930 . S
C1050 H1036 0.930 . S
C1050 C1048 1.395 . S
C1050 C1053 1.403 . S
C1051 C1048 1.403 . S
C1051 C1052 1.524 . S
C1051 C1055 1.400 . S
C1052 H1037 0.960 . S
C1052 H1038 0.960 . S
C1052 H1039 0.960 . S
C1052 C1051 1.524 . S
C1053 C1050 1.403 . S
C1053 C1054 1.392 . S
C1053 C1057 1.495 . S
C1054 C1053 1.392 . S
C1054 C1055 1.385 . S
C1054 C1056 1.478 . S
C1055 H1049 0.930 . S
C1055 C1051 1.400 . S
C1055 C1054 1.385 . S
C1056 C1054 1.478 . S
C1056 C1058 1.381 . S
C1056 C1062 1.383 . S
C1057 C1053 1.495 . S
C1057 H1063 0.959 . S
C1057 H1064 0.961 . S
C1057 H1065 0.960 . S
C1058 C1056 1.381 . S
C1058 C1059 1.394 . S
C1058 H1066 0.930 . S
C1059 C1058 1.394 . S
C1059 C1060 1.383 . S
C1059 H1067 0.929 . S
C1060 C1059 1.383 . S
C1060 C1061 1.377 . S
C1061 H1045 0.930 . S
C1061 C1060 1.377 . S
C1061 C1062 1.379 . S
C1062 H1046 0.931 . S
C1062 C1056 1.383 . S
C1062 C1061 1.379 . S
H1063 C1057 0.959 . S
H1064 C1057 0.961 . S
H1065 C1057 0.960 . S
H1066 C1058 0.930 . S
H1067 C1059 0.929 . S
H1068 C1076 0.929 . S
H1069 C1078 0.930 . S
H1070 C1080 0.930 . S
H1071 C1083 0.929 . S
H1072 C1086 0.930 . S
H1073 C1088 0.960 . S
H1074 C1088 0.960 . S
H1075 C1088 0.960 . S
C1076 H1068 0.929 . S
C1076 C1077 1.377 . S
C1076 C1078 1.384 . S
C1077 C1076 1.377 . S
C1077 C1083 1.390 . S
C1078 H1069 0.930 . S
C1078 C1076 1.384 . S
C1078 C1079 1.372 . S
C1079 C1078 1.372 . S
C1079 C1080 1.400 . S
C1079 C1084 1.490 . S
C1080 H1070 0.930 . S
C1080 C1079 1.400 . S
C1080 C1083 1.386 . S
H1081 C1097 0.930 . S
H1082 C1098 0.931 . S
C1083 H1071 0.929 . S
C1083 C1077 1.390 . S
C1083 C1080 1.386 . S
C1084 C1079 1.490 . S
C1084 C1086 1.395 . S
C1084 C1087 1.403 . S
H1085 C1091 0.930 . S
C1086 H1072 0.930 . S
C1086 C1084 1.395 . S
C1086 C1089 1.403 . S
C1087 C1084 1.403 . S
C1087 C1088 1.524 . S
C1087 C1091 1.400 . S
C1088 H1073 0.960 . S
C1088 H1074 0.960 . S
C1088 H1075 0.960 . S
C1088 C1087 1.524 . S
C1089 C1086 1.403 . S
C1089 C1090 1.392 . S
C1089 C1093 1.495 . S
C1090 C1089 1.392 . S
C1090 C1091 1.385 . S
C1090 C1092 1.478 . S
C1091 H1085 0.930 . S
C1091 C1087 1.400 . S
C1091 C1090 1.385 . S
C1092 C1090 1.478 . S
C1092 C1094 1.381 1_545 S
C1092 C1098 1.383 1_545 S
C1093 C1089 1.495 . S
C1093 H1099 0.959 . S
C1093 H1100 0.961 . S
C1093 H1101 0.960 . S
C1094 C1092 1.381 1_565 S
C1094 C1095 1.394 . S
C1094 H1102 0.930 1_565 S
C1095 C1094 1.394 . S
C1095 C1096 1.383 . S
C1095 H1103 0.929 . S
C1096 C1095 1.383 . S
C1096 C1097 1.377 . S
C1097 H1081 0.930 . S
C1097 C1096 1.377 . S
C1097 C1098 1.379 . S
C1098 H1082 0.931 . S
C1098 C1092 1.383 1_565 S
C1098 C1097 1.379 . S
H1099 C1093 0.959 . S
H1100 C1093 0.961 . S
H1101 C1093 0.960 . S
H1102 C1094 0.930 1_545 S
H1103 C1095 0.929 . S
H1104 C1112 0.929 . S
H1105 C1114 0.930 . S
H1106 C1116 0.930 1_655 S
H1107 C1119 0.929 . S
H1108 C1122 0.930 . S
H1109 C1124 0.960 . S
H1110 C1124 0.960 . S
H1111 C1124 0.960 . S
C1112 H1104 0.929 . S
C1112 C1113 1.377 . S
C1112 C1114 1.384 . S
C1113 C1112 1.377 . S
C1113 C1119 1.390 . S
C1114 H1105 0.930 . S
C1114 C1112 1.384 . S
C1114 C1115 1.372 1_455 S
C1115 C1114 1.372 1_655 S
C1115 C1116 1.400 1_655 S
C1115 C1120 1.490 . S
C1116 H1106 0.930 1_455 S
C1116 C1115 1.400 1_455 S
C1116 C1119 1.386 . S
H1117 C1133 0.930 . S
H1118 C1134 0.931 . S
C1119 H1107 0.929 . S
C1119 C1113 1.390 . S
C1119 C1116 1.386 . S
C1120 C1115 1.490 . S
C1120 C1122 1.395 . S
C1120 C1123 1.403 . S
H1121 C1127 0.930 . S
C1122 H1108 0.930 . S
C1122 C1120 1.395 . S
C1122 C1125 1.403 . S
C1123 C1120 1.403 . S
C1123 C1124 1.524 . S
C1123 C1127 1.400 . S
C1124 H1109 0.960 . S
C1124 H1110 0.960 . S
C1124 H1111 0.960 . S
C1124 C1123 1.524 . S
C1125 C1122 1.403 . S
C1125 C1126 1.392 . S
C1125 C1129 1.495 . S
C1126 C1125 1.392 . S
C1126 C1127 1.385 . S
C1126 C1128 1.478 . S
C1127 H1121 0.930 . S
C1127 C1123 1.400 . S
C1127 C1126 1.385 . S
C1128 C1126 1.478 . S
C1128 C1130 1.381 . S
C1128 C1134 1.383 . S
C1129 C1125 1.495 . S
C1129 H1135 0.959 . S
C1129 H1136 0.961 . S
C1129 H1137 0.960 . S
C1130 C1128 1.381 . S
C1130 C1131 1.394 . S
C1130 H1138 0.930 . S
C1131 C1130 1.394 . S
C1131 C1132 1.383 . S
C1131 H1139 0.929 . S
C1132 C1131 1.383 . S
C1132 C1133 1.377 . S
C1133 H1117 0.930 . S
C1133 C1132 1.377 . S
C1133 C1134 1.379 . S
C1134 H1118 0.931 . S
C1134 C1128 1.383 . S
C1134 C1133 1.379 . S
H1135 C1129 0.959 . S
H1136 C1129 0.961 . S
H1137 C1129 0.960 . S
H1138 C1130 0.930 . S
H1139 C1131 0.929 . S
H1140 C1148 0.929 . S
H1141 C1150 0.930 . S
H1142 C1152 0.930 . S
H1143 C1155 0.929 . S
H1144 C1158 0.930 . S
H1145 C1160 0.960 . S
H1146 C1160 0.960 . S
H1147 C1160 0.960 . S
C1148 H1140 0.929 . S
C1148 C1149 1.377 . S
C1148 C1150 1.384 . S
C1149 C1148 1.377 . S
C1149 C1155 1.390 . S
C1150 H1141 0.930 . S
C1150 C1148 1.384 . S
C1150 C1151 1.372 . S
C1151 C1150 1.372 . S
C1151 C1152 1.400 . S
C1151 C1156 1.490 . S
C1152 H1142 0.930 . S
C1152 C1151 1.400 . S
C1152 C1155 1.386 . S
H1153 C1169 0.930 . S
H1154 C1170 0.931 . S
C1155 H1143 0.929 . S
C1155 C1149 1.390 . S
C1155 C1152 1.386 . S
C1156 C1151 1.490 . S
C1156 C1158 1.395 . S
C1156 C1159 1.403 . S
H1157 C1163 0.930 . S
C1158 H1144 0.930 . S
C1158 C1156 1.395 . S
C1158 C1161 1.403 . S
C1159 C1156 1.403 . S
C1159 C1160 1.524 . S
C1159 C1163 1.400 . S
C1160 H1145 0.960 . S
C1160 H1146 0.960 . S
C1160 H1147 0.960 . S
C1160 C1159 1.524 . S
C1161 C1158 1.403 . S
C1161 C1162 1.392 . S
C1161 C1165 1.495 . S
C1162 C1161 1.392 . S
C1162 C1163 1.385 . S
C1162 C1164 1.478 . S
C1163 H1157 0.930 . S
C1163 C1159 1.400 . S
C1163 C1162 1.385 . S
C1164 C1162 1.478 . S
C1164 C1166 1.381 . S
C1164 C1170 1.383 . S
C1165 C1161 1.495 . S
C1165 H1171 0.959 . S
C1165 H1172 0.961 . S
C1165 H1173 0.960 . S
C1166 C1164 1.381 . S
C1166 C1167 1.394 . S
C1166 H1174 0.930 . S
C1167 C1166 1.394 . S
C1167 C1168 1.383 . S
C1167 H1175 0.929 . S
C1168 C1167 1.383 . S
C1168 C1169 1.377 . S
C1169 H1153 0.930 . S
C1169 C1168 1.377 . S
C1169 C1170 1.379 . S
C1170 H1154 0.931 . S
C1170 C1164 1.383 . S
C1170 C1169 1.379 . S
H1171 C1165 0.959 . S
H1172 C1165 0.961 . S
H1173 C1165 0.960 . S
H1174 C1166 0.930 . S
H1175 C1167 0.929 . S
H1176 C1184 0.929 . S
H1177 C1186 0.930 . S
H1178 C1188 0.930 . S
H1179 C1191 0.929 . S
H1180 C1194 0.930 . S
H1181 C1196 0.960 . S
H1182 C1196 0.960 . S
H1183 C1196 0.960 . S
C1184 H1176 0.929 . S
C1184 C1185 1.377 . S
C1184 C1186 1.384 . S
C1185 C1184 1.377 . S
C1185 C1191 1.390 . S
C1186 H1177 0.930 . S
C1186 C1184 1.384 . S
C1186 C1187 1.372 . S
C1187 C1186 1.372 . S
C1187 C1188 1.400 . S
C1187 C1192 1.490 . S
C1188 H1178 0.930 . S
C1188 C1187 1.400 . S
C1188 C1191 1.386 . S
H1189 C1205 0.930 . S
H1190 C1206 0.931 . S
C1191 H1179 0.929 . S
C1191 C1185 1.390 . S
C1191 C1188 1.386 . S
C1192 C1187 1.490 . S
C1192 C1194 1.395 . S
C1192 C1195 1.403 . S
H1193 C1199 0.930 . S
C1194 H1180 0.930 . S
C1194 C1192 1.395 . S
C1194 C1197 1.403 . S
C1195 C1192 1.403 . S
C1195 C1196 1.524 . S
C1195 C1199 1.400 . S
C1196 H1181 0.960 . S
C1196 H1182 0.960 . S
C1196 H1183 0.960 . S
C1196 C1195 1.524 . S
C1197 C1194 1.403 . S
C1197 C1198 1.392 . S
C1197 C1201 1.495 . S
C1198 C1197 1.392 . S
C1198 C1199 1.385 . S
C1198 C1200 1.478 . S
C1199 H1193 0.930 . S
C1199 C1195 1.400 . S
C1199 C1198 1.385 . S
C1200 C1198 1.478 . S
C1200 C1202 1.381 . S
C1200 C1206 1.383 . S
C1201 C1197 1.495 . S
C1201 H1207 0.959 . S
C1201 H1208 0.961 . S
C1201 H1209 0.960 . S
C1202 C1200 1.381 . S
C1202 C1203 1.394 . S
C1202 H1210 0.930 . S
C1203 C1202 1.394 . S
C1203 C1204 1.383 . S
C1203 H1211 0.929 . S
C1204 C1203 1.383 . S
C1204 C1205 1.377 . S
C1205 H1189 0.930 . S
C1205 C1204 1.377 . S
C1205 C1206 1.379 . S
C1206 H1190 0.931 . S
C1206 C1200 1.383 . S
C1206 C1205 1.379 . S
H1207 C1201 0.959 . S
H1208 C1201 0.961 . S
H1209 C1201 0.960 . S
H1210 C1202 0.930 . S
H1211 C1203 0.929 . S
H1212 C1220 0.929 . S
H1213 C1222 0.930 . S
H1214 C1224 0.930 . S
H1215 C1227 0.929 . S
H1216 C1230 0.930 . S
H1217 C1232 0.960 . S
H1218 C1232 0.960 . S
H1219 C1232 0.960 . S
C1220 H1212 0.929 . S
C1220 C1221 1.377 . S
C1220 C1222 1.384 . S
C1221 C1220 1.377 . S
C1221 C1227 1.390 . S
C1222 H1213 0.930 . S
C1222 C1220 1.384 . S
C1222 C1223 1.372 . S
C1223 C1222 1.372 . S
C1223 C1224 1.400 . S
C1223 C1228 1.490 . S
C1224 H1214 0.930 . S
C1224 C1223 1.400 . S
C1224 C1227 1.386 . S
H1225 C1241 0.930 . S
H1226 C1242 0.931 . S
C1227 H1215 0.929 . S
C1227 C1221 1.390 . S
C1227 C1224 1.386 . S
C1228 C1223 1.490 . S
C1228 C1230 1.395 . S
C1228 C1231 1.403 . S
H1229 C1235 0.930 . S
C1230 H1216 0.930 . S
C1230 C1228 1.395 . S
C1230 C1233 1.403 . S
C1231 C1228 1.403 . S
C1231 C1232 1.524 . S
C1231 C1235 1.400 . S
C1232 H1217 0.960 . S
C1232 H1218 0.960 . S
C1232 H1219 0.960 . S
C1232 C1231 1.524 . S
C1233 C1230 1.403 . S
C1233 C1234 1.392 . S
C1233 C1237 1.495 . S
C1234 C1233 1.392 . S
C1234 C1235 1.385 . S
C1234 C1236 1.478 . S
C1235 H1229 0.930 . S
C1235 C1231 1.400 . S
C1235 C1234 1.385 . S
C1236 C1234 1.478 . S
C1236 C1238 1.381 . S
C1236 C1242 1.383 . S
C1237 C1233 1.495 . S
C1237 H1243 0.959 . S
C1237 H1244 0.961 . S
C1237 H1245 0.960 . S
C1238 C1236 1.381 . S
C1238 C1239 1.394 . S
C1238 H1246 0.930 . S
C1239 C1238 1.394 . S
C1239 C1240 1.383 . S
C1239 H1247 0.929 . S
C1240 C1239 1.383 . S
C1240 C1241 1.377 . S
C1241 H1225 0.930 . S
C1241 C1240 1.377 . S
C1241 C1242 1.379 . S
C1242 H1226 0.931 . S
C1242 C1236 1.383 . S
C1242 C1241 1.379 . S
H1243 C1237 0.959 . S
H1244 C1237 0.961 . S
H1245 C1237 0.960 . S
H1246 C1238 0.930 . S
H1247 C1239 0.929 . S
H1248 C1256 0.929 . S
H1249 C1258 0.930 . S
H1250 C1260 0.930 . S
H1251 C1263 0.929 . S
H1252 C1266 0.930 . S
H1253 C1268 0.960 . S
H1254 C1268 0.960 . S
H1255 C1268 0.960 . S
C1256 H1248 0.929 . S
C1256 C1257 1.377 . S
C1256 C1258 1.384 . S
C1257 C1256 1.377 . S
C1257 C1263 1.390 . S
C1258 H1249 0.930 . S
C1258 C1256 1.384 . S
C1258 C1259 1.372 . S
C1259 C1258 1.372 . S
C1259 C1260 1.400 . S
C1259 C1264 1.490 . S
C1260 H1250 0.930 . S
C1260 C1259 1.400 . S
C1260 C1263 1.386 . S
H1261 C1277 0.930 . S
H1262 C1278 0.931 . S
C1263 H1251 0.929 . S
C1263 C1257 1.390 . S
C1263 C1260 1.386 . S
C1264 C1259 1.490 . S
C1264 C1266 1.395 . S
C1264 C1267 1.403 . S
H1265 C1271 0.930 . S
C1266 H1252 0.930 . S
C1266 C1264 1.395 . S
C1266 C1269 1.403 . S
C1267 C1264 1.403 . S
C1267 C1268 1.524 . S
C1267 C1271 1.400 . S
C1268 H1253 0.960 . S
C1268 H1254 0.960 . S
C1268 H1255 0.960 . S
C1268 C1267 1.524 . S
C1269 C1266 1.403 . S
C1269 C1270 1.392 . S
C1269 C1273 1.495 . S
C1270 C1269 1.392 . S
C1270 C1271 1.385 . S
C1270 C1272 1.478 . S
C1271 H1265 0.930 . S
C1271 C1267 1.400 . S
C1271 C1270 1.385 . S
C1272 C1270 1.478 . S
C1272 C1274 1.381 . S
C1272 C1278 1.383 . S
C1273 C1269 1.495 . S
C1273 H1279 0.959 . S
C1273 H1280 0.961 . S
C1273 H1281 0.960 . S
C1274 C1272 1.381 . S
C1274 C1275 1.394 . S
C1274 H1282 0.930 . S
C1275 C1274 1.394 . S
C1275 C1276 1.383 . S
C1275 H1283 0.929 . S
C1276 C1275 1.383 . S
C1276 C1277 1.377 . S
C1277 H1261 0.930 . S
C1277 C1276 1.377 . S
C1277 C1278 1.379 . S
C1278 H1262 0.931 . S
C1278 C1272 1.383 . S
C1278 C1277 1.379 . S
H1279 C1273 0.959 . S
H1280 C1273 0.961 . S
H1281 C1273 0.960 . S
H1282 C1274 0.930 . S
H1283 C1275 0.929 . S
H1284 C1292 0.929 . S
H1285 C1294 0.930 . S
H1286 C1296 0.930 . S
H1287 C1299 0.929 . S
H1288 C1302 0.930 . S
H1289 C1304 0.960 . S
H1290 C1304 0.960 . S
H1291 C1304 0.960 . S
C1292 H1284 0.929 . S
C1292 C1293 1.377 . S
C1292 C1294 1.384 . S
C1293 C1292 1.377 . S
C1293 C1299 1.390 . S
C1294 H1285 0.930 . S
C1294 C1292 1.384 . S
C1294 C1295 1.372 . S
C1295 C1294 1.372 . S
C1295 C1296 1.400 . S
C1295 C1300 1.490 . S
C1296 H1286 0.930 . S
C1296 C1295 1.400 . S
C1296 C1299 1.386 . S
H1297 C1313 0.930 . S
H1298 C1314 0.931 . S
C1299 H1287 0.929 . S
C1299 C1293 1.390 . S
C1299 C1296 1.386 . S
C1300 C1295 1.490 . S
C1300 C1302 1.395 . S
C1300 C1303 1.403 . S
H1301 C1307 0.930 . S
C1302 H1288 0.930 . S
C1302 C1300 1.395 . S
C1302 C1305 1.403 . S
C1303 C1300 1.403 . S
C1303 C1304 1.524 . S
C1303 C1307 1.400 . S
C1304 H1289 0.960 . S
C1304 H1290 0.960 . S
C1304 H1291 0.960 . S
C1304 C1303 1.524 . S
C1305 C1302 1.403 . S
C1305 C1306 1.392 . S
C1305 C1309 1.495 . S
C1306 C1305 1.392 . S
C1306 C1307 1.385 . S
C1306 C1308 1.478 . S
C1307 H1301 0.930 . S
C1307 C1303 1.400 . S
C1307 C1306 1.385 . S
C1308 C1306 1.478 . S
C1308 C1310 1.381 . S
C1308 C1314 1.383 . S
C1309 C1305 1.495 . S
C1309 H1315 0.959 . S
C1309 H1316 0.961 . S
C1309 H1317 0.960 . S
C1310 C1308 1.381 . S
C1310 C1311 1.394 . S
C1310 H1318 0.930 . S
C1311 C1310 1.394 . S
C1311 C1312 1.383 . S
C1311 H1319 0.929 . S
C1312 C1311 1.383 . S
C1312 C1313 1.377 . S
C1313 H1297 0.930 . S
C1313 C1312 1.377 . S
C1313 C1314 1.379 . S
C1314 H1298 0.931 . S
C1314 C1308 1.383 . S
C1314 C1313 1.379 . S
H1315 C1309 0.959 . S
H1316 C1309 0.961 . S
H1317 C1309 0.960 . S
H1318 C1310 0.930 . S
H1319 C1311 0.929 . S
H1320 C1328 0.929 . S
H1321 C1330 0.930 . S
H1322 C1332 0.930 . S
H1323 C1335 0.929 . S
H1324 C1338 0.930 . S
H1325 C1340 0.960 . S
H1326 C1340 0.960 . S
H1327 C1340 0.960 . S
C1328 H1320 0.929 . S
C1328 C1329 1.377 . S
C1328 C1330 1.384 . S
C1329 C1328 1.377 . S
C1329 C1335 1.390 . S
C1330 H1321 0.930 . S
C1330 C1328 1.384 . S
C1330 C1331 1.372 . S
C1331 C1330 1.372 . S
C1331 C1332 1.400 . S
C1331 C1336 1.490 . S
C1332 H1322 0.930 . S
C1332 C1331 1.400 . S
C1332 C1335 1.386 . S
H1333 C1349 0.930 . S
H1334 C1350 0.931 . S
C1335 H1323 0.929 . S
C1335 C1329 1.390 . S
C1335 C1332 1.386 . S
C1336 C1331 1.490 . S
C1336 C1338 1.395 . S
C1336 C1339 1.403 . S
H1337 C1343 0.930 . S
C1338 H1324 0.930 . S
C1338 C1336 1.395 . S
C1338 C1341 1.403 . S
C1339 C1336 1.403 . S
C1339 C1340 1.524 . S
C1339 C1343 1.400 . S
C1340 H1325 0.960 . S
C1340 H1326 0.960 . S
C1340 H1327 0.960 . S
C1340 C1339 1.524 . S
C1341 C1338 1.403 . S
C1341 C1342 1.392 . S
C1341 C1345 1.495 . S
C1342 C1341 1.392 . S
C1342 C1343 1.385 . S
C1342 C1344 1.478 . S
C1343 H1337 0.930 . S
C1343 C1339 1.400 . S
C1343 C1342 1.385 . S
C1344 C1342 1.478 . S
C1344 C1346 1.381 . S
C1344 C1350 1.383 . S
C1345 C1341 1.495 . S
C1345 H1351 0.959 . S
C1345 H1352 0.961 . S
C1345 H1353 0.960 . S
C1346 C1344 1.381 . S
C1346 C1347 1.394 . S
C1346 H1354 0.930 . S
C1347 C1346 1.394 . S
C1347 C1348 1.383 . S
C1347 H1355 0.929 . S
C1348 C1347 1.383 . S
C1348 C1349 1.377 . S
C1349 H1333 0.930 . S
C1349 C1348 1.377 . S
C1349 C1350 1.379 . S
C1350 H1334 0.931 . S
C1350 C1344 1.383 . S
C1350 C1349 1.379 . S
H1351 C1345 0.959 . S
H1352 C1345 0.961 . S
H1353 C1345 0.960 . S
H1354 C1346 0.930 . S
H1355 C1347 0.929 . S
H1356 C1364 0.929 . S
H1357 C1366 0.930 . S
H1358 C1368 0.930 . S
H1359 C1371 0.929 . S
H1360 C1374 0.930 . S
H1361 C1376 0.960 . S
H1362 C1376 0.960 . S
H1363 C1376 0.960 . S
C1364 H1356 0.929 . S
C1364 C1365 1.377 . S
C1364 C1366 1.384 . S
C1365 C1364 1.377 . S
C1365 C1371 1.390 . S
C1366 H1357 0.930 . S
C1366 C1364 1.384 . S
C1366 C1367 1.372 . S
C1367 C1366 1.372 . S
C1367 C1368 1.400 . S
C1367 C1372 1.490 . S
C1368 H1358 0.930 . S
C1368 C1367 1.400 . S
C1368 C1371 1.386 . S
H1369 C1385 0.930 . S
H1370 C1386 0.931 . S
C1371 H1359 0.929 . S
C1371 C1365 1.390 . S
C1371 C1368 1.386 . S
C1372 C1367 1.490 . S
C1372 C1374 1.395 1_455 S
C1372 C1375 1.403 1_554 S
H1373 C1379 0.930 . S
C1374 H1360 0.930 . S
C1374 C1372 1.395 1_655 S
C1374 C1377 1.403 . S
C1375 C1372 1.403 1_556 S
C1375 C1376 1.524 . S
C1375 C1379 1.400 . S
C1376 H1361 0.960 . S
C1376 H1362 0.960 . S
C1376 H1363 0.960 . S
C1376 C1375 1.524 . S
C1377 C1374 1.403 . S
C1377 C1378 1.392 1_554 S
C1377 C1381 1.495 . S
C1378 C1377 1.392 1_556 S
C1378 C1379 1.385 1_655 S
C1378 C1380 1.478 . S
C1379 H1373 0.930 . S
C1379 C1375 1.400 . S
C1379 C1378 1.385 1_455 S
C1380 C1378 1.478 . S
C1380 C1382 1.381 . S
C1380 C1386 1.383 . S
C1381 C1377 1.495 . S
C1381 H1387 0.959 . S
C1381 H1388 0.961 . S
C1381 H1389 0.960 . S
C1382 C1380 1.381 . S
C1382 C1383 1.394 . S
C1382 H1390 0.930 . S
C1383 C1382 1.394 . S
C1383 C1384 1.383 . S
C1383 H1391 0.929 . S
C1384 C1383 1.383 . S
C1384 C1385 1.377 . S
C1385 H1369 0.930 . S
C1385 C1384 1.377 . S
C1385 C1386 1.379 . S
C1386 H1370 0.931 . S
C1386 C1380 1.383 . S
C1386 C1385 1.379 . S
H1387 C1381 0.959 . S
H1388 C1381 0.961 . S
H1389 C1381 0.960 . S
H1390 C1382 0.930 . S
H1391 C1383 0.929 . S
H1392 C1400 0.929 . S
H1393 C1402 0.930 . S
H1394 C1404 0.930 . S
H1395 C1407 0.929 . S
H1396 C1410 0.930 . S
H1397 C1412 0.960 . S
H1398 C1412 0.960 . S
H1399 C1412 0.960 . S
C1400 H1392 0.929 . S
C1400 C1401 1.377 . S
C1400 C1402 1.384 . S
C1401 C1400 1.377 . S
C1401 C1407 1.390 . S
C1402 H1393 0.930 . S
C1402 C1400 1.384 . S
C1402 C1403 1.372 . S
C1403 C1402 1.372 . S
C1403 C1404 1.400 . S
C1403 C1408 1.490 . S
C1404 H1394 0.930 . S
C1404 C1403 1.400 . S
C1404 C1407 1.386 . S
H1405 C1421 0.930 . S
H1406 C1422 0.931 . S
C1407 H1395 0.929 . S
C1407 C1401 1.390 . S
C1407 C1404 1.386 . S
C1408 C1403 1.490 . S
C1408 C1410 1.395 1_554 S
C1408 C1411 1.403 . S
H1409 C1415 0.930 . S
C1410 H1396 0.930 . S
C1410 C1408 1.395 1_556 S
C1410 C1413 1.403 . S
C1411 C1408 1.403 . S
C1411 C1412 1.524 . S
C1411 C1415 1.407 . S
C1412 H1397 0.960 . S
C1412 H1398 0.960 . S
C1412 H1399 0.960 . S
C1412 C1411 1.524 . S
C1413 C1410 1.403 . S
C1413 C1414 1.392 . S
C1413 C1417 1.495 . S
C1414 C1413 1.392 . S
C1414 C1415 1.378 1_556 S
C1414 C1416 1.478 . S
C1415 H1409 0.930 . S
C1415 C1411 1.407 . S
C1415 C1414 1.378 1_554 S
C1416 C1414 1.478 . S
C1416 C1418 1.381 . S
C1416 C1422 1.383 . S
C1417 C1413 1.495 . S
C1417 H1423 0.959 . S
C1417 H1424 0.961 . S
C1417 H1425 0.960 . S
C1418 C1416 1.381 . S
C1418 C1419 1.394 . S
C1418 H1426 0.930 . S
C1419 C1418 1.394 . S
C1419 C1420 1.383 . S
C1419 H1427 0.929 . S
C1420 C1419 1.383 . S
C1420 C1421 1.377 . S
C1421 H1405 0.930 . S
C1421 C1420 1.377 . S
C1421 C1422 1.379 . S
C1422 H1406 0.931 . S
C1422 C1416 1.383 . S
C1422 C1421 1.379 . S
H1423 C1417 0.959 . S
H1424 C1417 0.961 . S
H1425 C1417 0.960 . S
H1426 C1418 0.930 . S
H1427 C1419 0.929 . S
H1428 C1436 0.929 . S
H1429 C1438 0.930 . S
H1430 C1440 0.930 . S
H1431 C1443 0.929 . S
H1432 C1446 0.930 . S
H1433 C1448 0.960 . S
H1434 C1448 0.960 . S
H1435 C1448 0.960 . S
C1436 H1428 0.929 . S
C1436 C1437 1.377 . S
C1436 C1438 1.384 . S
C1437 C1436 1.377 . S
C1437 C1443 1.390 . S
C1438 H1429 0.930 . S
C1438 C1436 1.384 . S
C1438 C1439 1.372 . S
C1439 C1438 1.372 . S
C1439 C1440 1.400 . S
C1439 C1444 1.490 . S
C1440 H1430 0.930 . S
C1440 C1439 1.400 . S
C1440 C1443 1.386 . S
H1441 C1457 0.930 . S
H1442 C1458 0.931 . S
C1443 H1431 0.929 . S
C1443 C1437 1.390 . S
C1443 C1440 1.386 . S
C1444 C1439 1.490 . S
C1444 C1446 1.395 1_554 S
C1444 C1447 1.403 1_565 S
H1445 C1451 0.930 . S
C1446 H1432 0.930 . S
C1446 C1444 1.395 1_556 S
C1446 C1449 1.403 . S
C1447 C1444 1.403 1_545 S
C1447 C1448 1.524 . S
C1447 C1451 1.400 . S
C1448 H1433 0.960 . S
C1448 H1434 0.960 . S
C1448 H1435 0.960 . S
C1448 C1447 1.524 . S
C1449 C1446 1.403 . S
C1449 C1450 1.392 1_565 S
C1449 C1453 1.495 . S
C1450 C1449 1.392 1_545 S
C1450 C1451 1.385 1_556 S
C1450 C1452 1.478 . S
C1451 H1445 0.930 . S
C1451 C1447 1.400 . S
C1451 C1450 1.385 1_554 S
C1452 C1450 1.478 . S
C1452 C1454 1.381 . S
C1452 C1458 1.383 . S
C1453 C1449 1.495 . S
C1453 H1459 0.959 . S
C1453 H1460 0.961 . S
C1453 H1461 0.960 . S
C1454 C1452 1.381 . S
C1454 C1455 1.394 . S
C1454 H1462 0.930 . S
C1455 C1454 1.394 . S
C1455 C1456 1.383 . S
C1455 H1463 0.929 . S
C1456 C1455 1.383 . S
C1456 C1457 1.377 . S
C1457 H1441 0.930 . S
C1457 C1456 1.377 . S
C1457 C1458 1.379 . S
C1458 H1442 0.931 . S
C1458 C1452 1.383 . S
C1458 C1457 1.379 . S
H1459 C1453 0.959 . S
H1460 C1453 0.961 . S
H1461 C1453 0.960 . S
H1462 C1454 0.930 . S
H1463 C1455 0.929 . S
H1464 C1472 0.929 . S
H1465 C1474 0.930 . S
H1466 C1476 0.930 . S
H1467 C1479 0.929 . S
H1468 C1482 0.930 . S
H1469 C1484 0.960 . S
H1470 C1484 0.960 . S
H1471 C1484 0.994 . S
C1472 H1464 0.929 . S
C1472 C1473 1.377 . S
C1472 C1474 1.384 . S
C1473 C1472 1.377 . S
C1473 C1479 1.390 . S
C1474 H1465 0.930 . S
C1474 C1472 1.384 . S
C1474 C1475 1.372 . S
C1475 C1474 1.372 . S
C1475 C1476 1.400 . S
C1475 C1480 1.490 . S
C1476 H1466 0.930 . S
C1476 C1475 1.400 . S
C1476 C1479 1.386 . S
H1477 C1493 0.930 . S
H1478 C1494 0.931 . S
C1479 H1467 0.929 . S
C1479 C1473 1.390 . S
C1479 C1476 1.386 . S
C1480 C1475 1.490 . S
C1480 C1482 1.395 . S
C1480 C1483 1.403 1_565 S
H1481 C1487 0.930 . S
C1482 H1468 0.930 . S
C1482 C1480 1.395 . S
C1482 C1485 1.403 . S
C1483 C1480 1.403 1_545 S
C1483 C1484 1.524 . S
C1483 C1487 1.400 . S
C1484 H1469 0.960 . S
C1484 H1470 0.960 . S
C1484 H1471 0.994 . S
C1484 C1483 1.524 . S
C1485 C1482 1.403 . S
C1485 C1486 1.392 1_565 S
C1485 C1489 1.495 . S
C1486 C1485 1.392 1_545 S
C1486 C1487 1.385 . S
C1486 C1488 1.478 . S
C1487 H1481 0.930 . S
C1487 C1483 1.400 . S
C1487 C1486 1.385 . S
C1488 C1486 1.478 . S
C1488 C1490 1.381 . S
C1488 C1494 1.383 . S
C1489 C1485 1.495 . S
C1489 H1495 0.959 . S
C1489 H1496 0.961 . S
C1489 H1497 0.960 . S
C1490 C1488 1.381 . S
C1490 C1491 1.394 . S
C1490 H1498 0.930 . S
C1491 C1490 1.394 . S
C1491 C1492 1.383 . S
C1491 H1499 0.929 . S
C1492 C1491 1.383 . S
C1492 C1493 1.377 . S
C1493 H1477 0.930 . S
C1493 C1492 1.377 . S
C1493 C1494 1.379 . S
C1494 H1478 0.931 . S
C1494 C1488 1.383 . S
C1494 C1493 1.379 . S
H1495 C1489 0.959 . S
H1496 C1489 0.961 . S
H1497 C1489 0.960 . S
H1498 C1490 0.930 . S
H1499 C1491 0.929 . S
H1500 C1508 0.929 . S
H1501 C1510 0.930 . S
H1502 C1512 0.930 . S
H1503 C1515 0.929 . S
H1504 C1518 0.930 . S
H1505 C1520 0.960 . S
H1506 C1520 0.960 . S
H1507 C1520 0.960 . S
C1508 H1500 0.929 . S
C1508 C1509 1.377 . S
C1508 C1510 1.384 . S
C1509 C1508 1.377 . S
C1509 C1515 1.390 . S
C1510 H1501 0.930 . S
C1510 C1508 1.384 . S
C1510 C1511 1.372 . S
C1511 C1510 1.372 . S
C1511 C1512 1.400 . S
C1511 C1516 1.490 . S
C1512 H1502 0.930 . S
C1512 C1511 1.400 . S
C1512 C1515 1.386 . S
H1513 C1529 0.930 . S
H1514 C1530 0.931 . S
C1515 H1503 0.929 . S
C1515 C1509 1.390 . S
C1515 C1512 1.386 . S
C1516 C1511 1.490 . S
C1516 C1518 1.395 1_655 S
C1516 C1519 1.403 . S
H1517 C1523 0.930 . S
C1518 H1504 0.930 . S
C1518 C1516 1.395 1_455 S
C1518 C1521 1.403 . S
C1519 C1516 1.403 . S
C1519 C1520 1.524 . S
C1519 C1523 1.400 . S
C1520 H1505 0.960 . S
C1520 H1506 0.960 . S
C1520 H1507 0.960 . S
C1520 C1519 1.524 . S
C1521 C1518 1.403 . S
C1521 C1522 1.392 . S
C1521 C1525 1.495 . S
C1522 C1521 1.392 . S
C1522 C1523 1.385 1_455 S
C1522 C1524 1.478 . S
C1523 H1517 0.930 . S
C1523 C1519 1.400 . S
C1523 C1522 1.385 1_655 S
C1524 C1522 1.478 . S
C1524 C1526 1.381 . S
C1524 C1530 1.383 . S
C1525 C1521 1.495 . S
C1525 H1531 0.959 . S
C1525 H1532 0.961 . S
C1525 H1533 0.960 . S
C1526 C1524 1.381 . S
C1526 C1527 1.394 . S
C1526 H1534 0.930 . S
C1527 C1526 1.394 . S
C1527 C1528 1.383 . S
C1527 H1535 0.929 . S
C1528 C1527 1.383 . S
C1528 C1529 1.377 . S
C1529 H1513 0.930 . S
C1529 C1528 1.377 . S
C1529 C1530 1.379 . S
C1530 H1514 0.931 . S
C1530 C1524 1.383 . S
C1530 C1529 1.379 . S
H1531 C1525 0.959 . S
H1532 C1525 0.961 . S
H1533 C1525 0.960 . S
H1534 C1526 0.930 . S
H1535 C1527 0.929 . S
H1536 C1544 0.929 . S
H1537 C1546 0.930 . S
H1538 C1548 0.930 . S
H1539 C1551 0.929 . S
H1540 C1554 0.930 . S
H1541 C1556 0.960 . S
H1542 C1556 0.960 . S
H1543 C1556 0.960 . S
C1544 H1536 0.929 . S
C1544 C1545 1.377 . S
C1544 C1546 1.384 . S
C1545 C1544 1.377 . S
C1545 C1551 1.390 . S
C1546 H1537 0.930 . S
C1546 C1544 1.384 . S
C1546 C1547 1.372 . S
C1547 C1546 1.372 . S
C1547 C1548 1.400 . S
C1547 C1552 1.490 . S
C1548 H1538 0.930 . S
C1548 C1547 1.400 . S
C1548 C1551 1.386 . S
H1549 C1565 0.930 . S
H1550 C1566 0.931 . S
C1551 H1539 0.929 . S
C1551 C1545 1.390 . S
C1551 C1548 1.386 . S
C1552 C1547 1.490 . S
C1552 C1554 1.395 . S
C1552 C1555 1.403 . S
H1553 C1559 0.930 . S
C1554 H1540 0.930 . S
C1554 C1552 1.395 . S
C1554 C1557 1.403 . S
C1555 C1552 1.403 . S
C1555 C1556 1.524 . S
C1555 C1559 1.400 . S
C1556 H1541 0.960 . S
C1556 H1542 0.960 . S
C1556 H1543 0.960 . S
C1556 C1555 1.524 . S
C1557 C1554 1.403 . S
C1557 C1558 1.392 . S
C1557 C1561 1.495 . S
C1558 C1557 1.392 . S
C1558 C1559 1.385 . S
C1558 C1560 1.478 . S
C1559 H1553 0.930 . S
C1559 C1555 1.400 . S
C1559 C1558 1.385 . S
C1560 C1558 1.478 . S
C1560 C1562 1.381 . S
C1560 C1566 1.383 . S
C1561 C1557 1.495 . S
C1561 H1567 0.959 . S
C1561 H1568 0.961 . S
C1561 H1569 0.960 . S
C1562 C1560 1.381 . S
C1562 C1563 1.394 . S
C1562 H1570 0.930 . S
C1563 C1562 1.394 . S
C1563 C1564 1.383 . S
C1563 H1571 0.929 . S
C1564 C1563 1.383 . S
C1564 C1565 1.377 . S
C1565 H1549 0.930 . S
C1565 C1564 1.377 . S
C1565 C1566 1.379 . S
C1566 H1550 0.931 . S
C1566 C1560 1.383 . S
C1566 C1565 1.379 . S
H1567 C1561 0.959 . S
H1568 C1561 0.961 . S
H1569 C1561 0.960 . S
H1570 C1562 0.930 . S
H1571 C1563 0.929 . S
C717 C3 0.686 . S
C736 C465 0.686 . S
C753 C62 0.688 . S
C772 C524 0.679 . S
C789 C121 0.692 . S
C808 C406 0.707 . S
C825 C701 0.690 . S
C844 C180 0.707 . S
C861 C239 0.693 . S
C880 C583 0.701 . S
C897 C642 0.685 . S
C916 C298 0.666 . S
C933 C111 0.692 . S
C952 C357 0.666 . S
C969 C416 0.691 . S
C988 C170 0.691 . S
C1005 C52 0.691 . S
C1024 C475 0.666 . S
C1041 C534 0.687 . S
C1060 C347 0.682 . S
C1077 C593 0.689 . S
C1096 C229 0.698 . S
C1113 C288 0.692 . S
C1132 C652 0.677 . S
C1149 C300 1.655 . S
C1168 C5 1.663 . S
C1185 C64 1.656 . S
C1204 C182 1.657 . S
C1221 C123 1.658 . S
C1240 C241 1.646 . S
C1257 C359 1.659 . S
C1276 C654 1.658 . S
C1293 C418 1.659 . S
C1312 C536 1.659 . S
C1329 C477 1.659 . S
C1348 C595 1.660 . S
C1365 C33 1.763 . S
C1384 C387 1.766 . S
C1401 C92 1.769 . S
C1420 C446 1.753 . S
C1437 C151 1.770 . S
C1456 C505 1.757 . S
C1473 C210 1.766 . S
C1492 C564 1.742 . S
C1509 C623 1.770 . S
C1528 C269 1.784 . S
C1545 C328 1.770 . S
C1564 C682 1.755 . S
