# Generated by pormake.
# Topology ths, (3)-cn, num edge types: 1
# Building blocks:
#     Node 0, Type 0, BuildingBlock: WUSLED_clean_sbu_0, # of connection points: 3
#     Node 1, Type 0, BuildingBlock: WUSLED_clean_sbu_0, # of connection points: 3
#     Node 2, Type 0, BuildingBlock: WUSLED_clean_sbu_0, # of connection points: 3
#     Node 3, Type 0, BuildingBlock: WUSLED_clean_sbu_0, # of connection points: 3
#     Node 4, Type 0, BuildingBlock: WUSLED_clean_sbu_0, # of connection points: 3
#     Node 5, Type 0, BuildingBlock: WUSLED_clean_sbu_0, # of connection points: 3
#     Node 6, Type 0, BuildingBlock: WUSLED_clean_sbu_0, # of connection points: 3
#     Node 7, Type 0, BuildingBlock: WUSLED_clean_sbu_0, # of connection points: 3
#     Edge 8, Type (0, 0), BuildingBlock: FUNLAD_clean_linker_1, # of connection points: 2
#     Edge 9, Type (0, 0), BuildingBlock: FUNLAD_clean_linker_1, # of connection points: 2
#     Edge 10, Type (0, 0), BuildingBlock: FUNLAD_clean_linker_1, # of connection points: 2
#     Edge 11, Type (0, 0), BuildingBlock: FUNLAD_clean_linker_1, # of connection points: 2
#     Edge 12, Type (0, 0), BuildingBlock: FUNLAD_clean_linker_1, # of connection points: 2
#     Edge 13, Type (0, 0), BuildingBlock: FUNLAD_clean_linker_1, # of connection points: 2
#     Edge 14, Type (0, 0), BuildingBlock: FUNLAD_clean_linker_1, # of connection points: 2
#     Edge 15, Type (0, 0), BuildingBlock: FUNLAD_clean_linker_1, # of connection points: 2
#     Edge 16, Type (0, 0), BuildingBlock: FUNLAD_clean_linker_1, # of connection points: 2
#     Edge 17, Type (0, 0), BuildingBlock: FUNLAD_clean_linker_1, # of connection points: 2
#     Edge 18, Type (0, 0), BuildingBlock: FUNLAD_clean_linker_1, # of connection points: 2
#     Edge 19, Type (0, 0), BuildingBlock: FUNLAD_clean_linker_1, # of connection points: 2
# Relax obj value: 0.000
# Max RMSD: 0.003
# Mean RMSD: 0.003
data_MOF--net-ths--node1-WUSLED_clean_sbu_0--edge1-FUNLAD_clean_linker_1
_symmetry_space_group_name_H-M    P1
_symmetry_Int_Tables_number       1
_symmetry_cell_setting            triclinic
loop_
_symmetry_equiv_pos_as_xyz
'x, y, z'
_cell_length_a     41.179271
_cell_length_b     41.297133
_cell_length_c     137.87996
_cell_angle_alpha  88.845364
_cell_angle_beta   90.729819
_cell_angle_gamma 89.638185
loop_
_atom_site_label
_atom_site_type_symbol
_atom_site_fract_x
_atom_site_fract_y
_atom_site_fract_z
_atom_type_partial_charge
C0 C 0.07975 0.83665 0.04614 0.0
C1 C 0.07849 0.84607 0.03633 0.0
C2 C 0.08033 0.903 0.0407 0.0
C3 C 0.07885 0.87892 0.03361 0.0
C4 C 0.08173 0.8933 0.05054 0.0
C5 C 0.08132 0.86045 0.05325 0.0
U6 U 0.08066 0.76886 0.06535 0.0
O7 O 0.05534 0.72215 0.06578 0.0
O8 O 0.10861 0.72317 0.06603 0.0
C9 C 0.08244 0.70521 0.0655 0.0
C10 C 0.08012 0.802 0.04887 0.0
C11 C 0.08325 0.67919 0.05835 0.0
C12 C 0.07466 0.65957 0.04202 0.0
C13 C 0.0742 0.68491 0.04862 0.0
C14 C 0.09373 0.62271 0.05476 0.0
C15 C 0.08406 0.62806 0.04501 0.0
C16 C 0.09317 0.64803 0.06135 0.0
C17 C 0.08025 0.7914 0.09224 0.0
C18 C 0.09625 0.75598 0.1058 0.0
C19 C 0.06798 0.80635 0.10877 0.0
C20 C 0.06671 0.81305 0.09879 0.0
C21 C 0.08282 0.77767 0.1124 0.0
C22 C 0.09479 0.76263 0.0958 0.0
C23 C 0.07977 0.7998 0.0818 0.0
O24 O 0.10689 0.79151 0.05321 0.0
O25 O 0.05364 0.79111 0.05301 0.0
O26 O 0.05329 0.79201 0.077 0.0
O27 O 0.10656 0.79349 0.07709 0.0
H28 H 0.07756 0.82798 0.03075 0.0
H29 H 0.07868 0.88509 0.02595 0.0
H30 H 0.08312 0.91121 0.05616 0.0
H31 H 0.08244 0.8536 0.06087 0.0
H32 H 0.06741 0.66457 0.03455 0.0
H33 H 0.06669 0.70891 0.04615 0.0
H34 H 0.10215 0.59923 0.05737 0.0
H35 H 0.10056 0.64325 0.06882 0.0
H36 H 0.10802 0.73385 0.10839 0.0
H37 H 0.05819 0.82419 0.11359 0.0
H38 H 0.05558 0.83548 0.09618 0.0
H39 H 0.10537 0.74553 0.09087 0.0
C40 C 0.51048 0.77224 0.29604 0.0
C41 C 0.48616 0.77548 0.30299 0.0
C42 C 0.44428 0.77267 0.29037 0.0
C43 C 0.4534 0.77584 0.30017 0.0
C44 C 0.46887 0.76962 0.28342 0.0
C45 C 0.50165 0.76934 0.28625 0.0
U46 U 0.57599 0.772 0.31571 0.0
O47 O 0.62222 0.74516 0.31696 0.0
O48 O 0.62225 0.79829 0.31658 0.0
C49 C 0.6398 0.7716 0.3165 0.0
C50 C 0.54501 0.77201 0.29894 0.0
C51 C 0.66643 0.77138 0.30948 0.0
C52 C 0.68611 0.76641 0.29303 0.0
C53 C 0.66039 0.76656 0.29958 0.0
C54 C 0.72408 0.77621 0.30619 0.0
C55 C 0.71831 0.77096 0.29624 0.0
C56 C 0.69836 0.7763 0.31272 0.0
C57 C 0.54703 0.77224 0.34224 0.0
C58 C 0.58218 0.76796 0.35654 0.0
C59 C 0.524 0.7737 0.35834 0.0
C60 C 0.52007 0.77472 0.34826 0.0
C61 C 0.555 0.77031 0.36263 0.0
C62 C 0.57817 0.76897 0.34641 0.0
C63 C 0.54177 0.77239 0.33167 0.0
O64 O 0.55535 0.79853 0.30305 0.0
O65 O 0.55526 0.74544 0.30344 0.0
O66 O 0.55009 0.74574 0.32725 0.0
O67 O 0.5503 0.79889 0.32695 0.0
H68 H 0.49254 0.77779 0.31059 0.0
H69 H 0.43509 0.77844 0.30568 0.0
H70 H 0.46311 0.76805 0.27577 0.0
H71 H 0.52015 0.76705 0.28078 0.0
H72 H 0.6808 0.76258 0.28542 0.0
H73 H 0.63583 0.76292 0.29693 0.0
H74 H 0.74819 0.78076 0.309 0.0
H75 H 0.70341 0.78036 0.32033 0.0
H76 H 0.60645 0.76467 0.35948 0.0
H77 H 0.50262 0.77544 0.3628 0.0
H78 H 0.49584 0.77719 0.34516 0.0
H79 H 0.59927 0.76684 0.34185 0.0
C80 C 0.57725 0.3354 0.54623 0.0
C81 C 0.5833 0.35919 0.55313 0.0
C82 C 0.57611 0.40176 0.54074 0.0
C83 C 0.5827 0.39202 0.55041 0.0
C84 C 0.56956 0.37769 0.53388 0.0
C85 C 0.57025 0.34486 0.53662 0.0
U86 U 0.5797 0.26763 0.56545 0.0
O87 O 0.55458 0.22068 0.56592 0.0
O88 O 0.60783 0.2222 0.56611 0.0
C89 C 0.58181 0.20399 0.56562 0.0
C90 C 0.5781 0.30075 0.54897 0.0
C91 C 0.58269 0.17789 0.5585 0.0
C92 C 0.57589 0.1209 0.55492 0.0
C93 C 0.57439 0.14637 0.56144 0.0
C94 C 0.59398 0.15825 0.54237 0.0
C95 C 0.58564 0.12656 0.54527 0.0
C96 C 0.59235 0.18375 0.5489 0.0
C97 C 0.58048 0.29032 0.59234 0.0
C98 C 0.56952 0.30548 0.60893 0.0
C99 C 0.59789 0.25527 0.60583 0.0
C100 C 0.5955 0.26171 0.59583 0.0
C101 C 0.58496 0.27703 0.6125 0.0
C102 C 0.56731 0.31197 0.59895 0.0
C103 C 0.57931 0.29865 0.5819 0.0
O104 O 0.60516 0.29043 0.55319 0.0
O105 O 0.55192 0.28963 0.55322 0.0
O106 O 0.55267 0.29053 0.57722 0.0
O107 O 0.6059 0.29261 0.57705 0.0
H108 H 0.58854 0.35235 0.56062 0.0
H109 H 0.58757 0.40989 0.55588 0.0
H110 H 0.56348 0.38385 0.52642 0.0
H111 H 0.56523 0.3268 0.53121 0.0
H112 H 0.57018 0.0968 0.55756 0.0
H113 H 0.56711 0.14136 0.56884 0.0
H114 H 0.60179 0.16331 0.53502 0.0
H115 H 0.59888 0.20795 0.54649 0.0
H116 H 0.56003 0.32333 0.6138 0.0
H117 H 0.6101 0.2333 0.60835 0.0
H118 H 0.6058 0.24462 0.59084 0.0
H119 H 0.55581 0.33427 0.59639 0.0
C120 C 1.01534 0.26987 0.79579 0.0
C121 C 0.99085 0.27067 0.80275 0.0
C122 C 0.94924 0.26871 0.79003 0.0
C123 C 0.95813 0.27 0.7999 0.0
C124 C 0.97402 0.2676 0.78307 0.0
C125 C 1.00675 0.26827 0.78595 0.0
U126 U 0.08046 0.2714 0.81555 0.0
O127 O 0.12702 0.24523 0.81698 0.0
O128 O 0.12634 0.29835 0.81639 0.0
C129 C 0.14425 0.27189 0.81644 0.0
C130 C 0.04981 0.27036 0.79873 0.0
C131 C 0.17096 0.2717 0.80944 0.0
C132 C 0.19081 0.26678 0.79301 0.0
C133 C 0.16502 0.26697 0.79954 0.0
C134 C 0.22867 0.27633 0.80621 0.0
C135 C 0.22299 0.27117 0.79626 0.0
C136 C 0.20288 0.27647 0.81272 0.0
C137 C 0.05088 0.27213 0.84203 0.0
C138 C 0.08541 0.26712 0.85644 0.0
C139 C 0.02743 0.27529 0.85804 0.0
C140 C 1.02385 0.27601 0.84795 0.0
C141 C 0.05815 0.27081 0.86244 0.0
C142 C 0.08175 0.26783 0.84631 0.0
C143 C 0.0459 0.27186 0.83145 0.0
O144 O 0.05958 0.2972 0.80279 0.0
O145 O 0.06046 0.24411 0.80332 0.0
O146 O 0.0547 0.24517 0.82713 0.0
O147 O 0.05417 0.29832 0.82666 0.0
H148 H 0.99705 0.27176 0.8104 0.0
H149 H 0.93969 0.27062 0.80543 0.0
H150 H 0.96846 0.26567 0.77542 0.0
H151 H 1.02538 0.26734 0.78048 0.0
H152 H 0.18558 0.26302 0.7854 0.0
H153 H 0.14047 0.26343 0.79686 0.0
H154 H 0.25279 0.28077 0.80905 0.0
H155 H 0.20786 0.28046 0.82034 0.0
H156 H 0.10944 0.26299 0.85947 0.0
H157 H 1.00599 0.27809 0.86243 0.0
H158 H 0.99983 0.2793 0.84477 0.0
H159 H 0.10289 0.26464 0.84182 0.0
C160 C 0.07938 0.20409 1.0043 0.0
C161 C 0.08009 0.19465 1.01411 0.0
C162 C 0.07719 0.13778 1.00973 0.0
C163 C 0.07892 0.16183 1.01683 0.0
C164 C 0.07623 0.1475 0.99989 0.0
C165 C 0.07745 0.18033 0.99719 0.0
U166 U 0.08237 0.27174 0.9851 0.0
O167 O 0.05637 0.31851 0.98422 0.0
O168 O 0.10964 0.31737 0.98484 0.0
C169 C 0.08321 0.33539 0.98494 0.0
C170 C 0.08035 0.23871 1.00157 0.0
C171 C 0.08283 0.36147 0.99207 0.0
C172 C 0.09133 0.38102 1.00841 0.0
C173 C 0.0916 0.35566 1.00182 0.0
C174 C 0.07302 0.4181 0.99563 0.0
C175 C 0.08237 0.41264 1.0054 0.0
C176 C 0.07341 0.39276 0.98905 0.0
C177 C 0.08391 0.24869 0.95817 0.0
C178 C 0.10576 0.27859 0.94436 0.0
C179 C 0.0653 0.23728 0.94178 0.0
C180 C 0.06421 0.23128 0.95179 0.0
C181 C 0.08652 0.26076 0.9379 0.0
C182 C 0.10448 0.27269 0.95439 0.0
C183 C 0.08302 0.24074 0.96865 0.0
O184 O 0.10753 0.24865 0.99764 0.0
O185 O 0.05431 0.25011 0.99703 0.0
O186 O 0.05611 0.24848 0.9731 0.0
O187 O 0.1094 0.24699 0.97374 0.0
H188 H 0.08131 0.21271 1.0197 0.0
H189 H 0.07875 0.15564 1.02448 0.0
H190 H 0.07467 0.12962 0.99426 0.0
H191 H 0.07679 0.1872 0.98956 0.0
H192 H 0.09832 0.37593 1.0159 0.0
H193 H 0.0987 0.33157 1.00431 0.0
H194 H 0.06496 0.44166 0.993 0.0
H195 H 0.06622 0.39762 0.98157 0.0
H196 H 0.12211 0.29702 0.94164 0.0
H197 H 0.04935 0.22339 0.93721 0.0
H198 H 0.048 0.21281 0.95456 0.0
H199 H 0.11978 0.28669 0.95916 0.0
C200 C 0.14286 0.76385 0.25465 0.0
C201 C 0.16663 0.76048 0.24753 0.0
C202 C 0.20942 0.76228 0.25991 0.0
C203 C 0.19958 0.75955 0.25016 0.0
C204 C 0.18536 0.76538 0.26703 0.0
C205 C 0.15242 0.76623 0.26439 0.0
U206 U 0.0752 0.76656 0.23554 0.0
O207 O 0.02811 0.7418 0.23506 0.0
O208 O 0.02969 0.7949 0.23494 0.0
C209 C 1.01139 0.76897 0.23543 0.0
C210 C 0.10814 0.76497 0.25199 0.0
C211 C 0.98534 0.76966 0.24264 0.0
C212 C 0.96596 0.76149 0.25909 0.0
C213 C 0.9913 0.76109 0.2524 0.0
C214 C 0.92861 0.77952 0.24636 0.0
C215 C 0.93423 0.77037 0.25615 0.0
C216 C 0.95393 0.77902 0.23969 0.0
C217 C 0.09879 0.76703 0.20868 0.0
C218 C 0.05992 0.77374 0.19537 0.0
C219 C 0.11692 0.76544 0.19199 0.0
C220 C 0.12373 0.7637 0.20195 0.0
C221 C 0.08484 0.77039 0.18857 0.0
C222 C 0.06679 0.77194 0.20534 0.0
C223 C 0.10684 0.76607 0.2191 0.0
O224 O 0.09814 0.79199 0.24769 0.0
O225 O 0.09676 0.73891 0.24785 0.0
O226 O 0.09849 0.73958 0.22387 0.0
O227 O 0.10034 0.79266 0.22381 0.0
H228 H 0.15968 0.75856 0.23996 0.0
H229 H 0.21747 0.7569 0.24453 0.0
H230 H 0.19167 0.76658 0.27464 0.0
H231 H 0.13435 0.76863 0.26998 0.0
H232 H 0.97117 0.75464 0.26657 0.0
H233 H 1.01548 0.754 0.25484 0.0
H234 H 0.90494 0.78752 0.24378 0.0
H235 H 0.94896 0.78603 0.2322 0.0
H236 H 0.03506 0.77786 0.19296 0.0
H237 H 0.13703 0.76373 0.18706 0.0
H238 H 0.14863 0.76017 0.20441 0.0
H239 H 0.04722 0.77467 0.21045 0.0
C240 C 0.58088 0.70323 0.5044 0.0
C241 C 0.57451 0.67964 0.49746 0.0
C242 C 0.58029 0.63684 0.50985 0.0
C243 C 0.57424 0.64679 0.50017 0.0
C244 C 0.58704 0.66071 0.51675 0.0
C245 C 0.5872 0.69356 0.51404 0.0
U246 U 0.58294 0.77104 0.48521 0.0
O247 O 0.55692 0.81765 0.48433 0.0
O248 O 0.61018 0.81682 0.485 0.0
C249 C 0.58366 0.83469 0.48508 0.0
C250 C 0.58146 0.73788 0.50166 0.0
C251 C 0.58314 0.86071 0.49222 0.0
C252 C 0.59056 0.91758 0.49586 0.0
C253 C 0.59193 0.89214 0.48933 0.0
C254 C 0.57167 0.88037 0.50833 0.0
C255 C 0.58045 0.91198 0.50548 0.0
C256 C 0.57316 0.8549 0.50179 0.0
C257 C 0.5841 0.74816 0.45826 0.0
C258 C 0.60519 0.77854 0.44444 0.0
C259 C 0.56524 0.73671 0.4419 0.0
C260 C 0.56449 0.73056 0.4519 0.0
C261 C 0.58603 0.76052 0.438 0.0
C262 C 0.60425 0.77248 0.45446 0.0
C263 C 0.58349 0.74013 0.46874 0.0
O264 O 0.6085 0.74803 0.49769 0.0
O265 O 0.55526 0.74916 0.49718 0.0
O266 O 0.55662 0.74767 0.47324 0.0
O267 O 0.60992 0.74653 0.47379 0.0
H268 H 0.56981 0.68664 0.48996 0.0
H269 H 0.56924 0.62907 0.49466 0.0
H270 H 0.5927 0.65439 0.52423 0.0
H271 H 0.59249 0.71145 0.51947 0.0
H272 H 0.59662 0.94161 0.49324 0.0
H273 H 0.59944 0.89711 0.48195 0.0
H274 H 0.56358 0.87535 0.51566 0.0
H275 H 0.56621 0.83077 0.50416 0.0
H276 H 0.62119 0.79724 0.4417 0.0
H277 H 0.5493 0.72274 0.43735 0.0
H278 H 0.54857 0.71185 0.45469 0.0
H279 H 0.61945 0.78665 0.45921 0.0
C280 C 0.64757 0.26505 0.7547 0.0
C281 C 0.67136 0.26187 0.74759 0.0
C282 C 0.71414 0.2646 0.75994 0.0
C283 C 0.70433 0.26149 0.7502 0.0
C284 C 0.69007 0.26756 0.76706 0.0
C285 C 0.65711 0.26786 0.76444 0.0
U286 U 0.57983 0.26589 0.73562 0.0
O287 O 0.53347 0.23965 0.73521 0.0
O288 O 0.53353 0.29278 0.73498 0.0
C289 C 0.51598 0.26633 0.73551 0.0
C290 C 0.61282 0.26535 0.75206 0.0
C291 C 0.48992 0.26634 0.74272 0.0
C292 C 0.47132 0.27137 0.75929 0.0
C293 C 0.49659 0.2713 0.75258 0.0
C294 C 0.43256 0.26119 0.74637 0.0
C295 C 0.43894 0.26664 0.75627 0.0
C296 C 0.45783 0.26117 0.73968 0.0
C297 C 0.60338 0.26657 0.70876 0.0
C298 C 0.5643 0.27152 0.69544 0.0
C299 C 0.62156 0.26524 0.69207 0.0
C300 C 0.62843 0.26402 0.70203 0.0
C301 C 0.58932 0.26885 0.68865 0.0
C302 C 0.57122 0.27024 0.70542 0.0
C303 C 0.61144 0.26605 0.71918 0.0
O304 O 0.60214 0.29206 0.74773 0.0
O305 O 0.60208 0.23896 0.74796 0.0
O306 O 0.60389 0.2394 0.72399 0.0
O307 O 0.60417 0.29252 0.72384 0.0
H308 H 0.66442 0.25961 0.74003 0.0
H309 H 0.72224 0.25893 0.74457 0.0
H310 H 0.6964 0.26907 0.77467 0.0
H311 H 0.63903 0.27011 0.77003 0.0
H312 H 0.47708 0.27533 0.76686 0.0
H313 H 0.5213 0.27514 0.75508 0.0
H314 H 0.40829 0.2564 0.74371 0.0
H315 H 0.45229 0.25697 0.73211 0.0
H316 H 0.53931 0.27461 0.69303 0.0
H317 H 0.64173 0.26417 0.68714 0.0
H318 H 0.65343 0.26148 0.70449 0.0
H319 H 0.55157 0.27236 0.71052 0.0
H320 H 0.08419 0.43168 1.02033 0.0
C321 C 0.08237 0.43885 1.01271 0.0
H322 H 0.08144 0.47924 1.00296 0.0
H323 H 0.02992 0.54581 0.04352 0.0
H324 H 0.98291 0.51119 0.04197 0.0
H325 H 0.98027 0.46985 0.02933 0.0
H326 H 1.02468 0.46271 1.01821 0.0
C327 C 0.08104 0.47076 1.01045 0.0
C328 C 0.08215 0.4959 1.01808 0.0
C329 C 0.05575 0.49999 1.02447 0.0
C330 C 0.05706 0.52422 0.03167 0.0
C331 C 0.03033 0.52775 0.03794 0.0
C332 C 1.0031 0.50811 0.03711 0.0
C333 C 1.00163 0.48482 0.03 0.0
C334 C 0.02746 0.48082 1.02371 0.0
H335 H 0.08228 0.60898 0.03009 0.0
C336 C 0.08414 0.60183 0.03772 0.0
H337 H 0.08514 0.56151 0.04748 0.0
H338 H 0.13667 0.49484 1.00693 0.0
H339 H 0.18368 0.52948 1.00848 0.0
H340 H 0.18631 0.57083 1.02112 0.0
H341 H 0.14189 0.57797 0.03224 0.0
C342 C 0.08553 0.56994 0.03999 0.0
C343 C 0.08444 0.54476 0.03237 0.0
C344 C 0.11084 0.54067 0.02598 0.0
C345 C 0.10953 0.51645 1.01878 0.0
C346 C 0.13627 0.51291 1.01251 0.0
C347 C 0.16348 0.53255 1.01334 0.0
C348 C 0.16495 0.55586 1.02044 0.0
C349 C 0.13912 0.55986 0.02674 0.0
H350 H 0.91535 0.7689 0.27115 0.0
C351 C 0.90804 0.77048 0.26354 0.0
H352 H 0.86743 0.77095 0.25393 0.0
H353 H 0.76808 0.71182 0.28359 0.0
H354 H 0.77517 0.66721 0.27264 0.0
H355 H 0.8169 0.6693 0.25998 0.0
H356 H 0.85192 0.71597 0.25821 0.0
C357 C 0.87601 0.77162 0.26139 0.0
C358 C 0.8509 0.77064 0.26911 0.0
C359 C 0.83026 0.74337 0.26996 0.0
C360 C 0.80593 0.74228 0.27722 0.0
C361 C 0.78642 0.71428 0.27808 0.0
C362 C 0.79036 0.68838 0.27188 0.0
C363 C 0.81387 0.68955 0.26475 0.0
C364 C 0.83374 0.71657 0.2638 0.0
H365 H 0.73784 0.77261 0.28132 0.0
C366 C 0.74483 0.77083 0.28895 0.0
H367 H 0.7851 0.76567 0.29865 0.0
H368 H 0.88415 0.82799 0.26892 0.0
H369 H 0.87721 0.87238 0.27994 0.0
H370 H 0.83604 0.86982 0.29277 0.0
H371 H 0.80135 0.82291 0.29459 0.0
C372 C 0.77668 0.76779 0.29119 0.0
C373 C 0.80199 0.76867 0.28354 0.0
C374 C 0.82268 0.79588 0.28271 0.0
C375 C 0.84688 0.79707 0.27542 0.0
C376 C 0.8661 0.82527 0.2745 0.0
C377 C 0.86221 0.85108 0.28074 0.0
C378 C 0.839 0.84966 0.28795 0.0
C379 C 0.8193 0.82253 0.28893 0.0
H380 H 0.576 0.45396 0.5442 0.0
C381 C 0.5757 0.43711 0.53823 0.0
H382 H 0.57761 0.4339 0.52292 0.0
H383 H 0.52306 0.58437 0.52842 0.0
H384 H 0.47494 0.55968 0.53522 0.0
H385 H 0.47239 0.50065 0.53815 0.0
H386 H 0.51799 0.46598 0.53437 0.0
C387 C 0.57579 0.44951 0.52911 0.0
C388 C 0.5767 0.4852 0.52717 0.0
C389 C 0.54962 0.50513 0.52932 0.0
C390 C 0.5509 0.53916 0.52748 0.0
C391 C 0.52349 0.55843 0.5297 0.0
C392 C 0.49565 0.54457 0.53357 0.0
C393 C 0.49423 0.51134 0.53523 0.0
C394 C 0.52072 0.49172 0.5331 0.0
H395 H 0.57974 0.5847 0.50632 0.0
C396 C 0.58015 0.60145 0.51231 0.0
H397 H 0.57826 0.60444 0.52763 0.0
H398 H 0.6326 0.45404 0.52205 0.0
H399 H 0.68071 0.47872 0.51526 0.0
H400 H 0.68327 0.53775 0.51233 0.0
H401 H 0.6377 0.57243 0.51612 0.0
C402 C 0.57994 0.58892 0.52141 0.0
C403 C 0.57896 0.55321 0.52332 0.0
C404 C 0.60604 0.53328 0.52116 0.0
C405 C 0.60476 0.49924 0.523 0.0
C406 C 0.63216 0.47997 0.52078 0.0
C407 C 0.66001 0.49384 0.51691 0.0
C408 C 0.66143 0.52707 0.51525 0.0
C409 C 0.63494 0.54668 0.51739 0.0
H410 H 0.89699 0.26203 0.79312 0.0
C411 C 0.91404 0.26768 0.78738 0.0
H412 H 0.91769 0.28228 0.7726 0.0
H413 H 0.77148 0.21419 0.77426 0.0
H414 H 0.8004 0.16373 0.77749 0.0
H415 H 0.85985 0.16301 0.77992 0.0
H416 H 0.89068 0.2128 0.77928 0.0
C417 C 0.90198 0.27429 0.77842 0.0
C418 C 0.86629 0.27417 0.77638 0.0
C419 C 0.84875 0.24469 0.77647 0.0
C420 C 0.81459 0.24496 0.7747 0.0
C421 C 0.79754 0.21532 0.77524 0.0
C422 C 0.81382 0.18617 0.77714 0.0
C423 C 0.84728 0.18577 0.77853 0.0
C424 C 0.86467 0.21459 0.7782 0.0
H425 H 0.76591 0.25382 0.75705 0.0
C426 C 0.74952 0.26366 0.76239 0.0
H427 H 0.74734 0.28739 0.77585 0.0
H428 H 0.89248 0.33491 0.77559 0.0
H429 H 0.86381 0.38519 0.77184 0.0
H430 H 0.80494 0.38546 0.7683 0.0
H431 H 0.77432 0.33546 0.76852 0.0
C432 C 0.76241 0.27519 0.77064 0.0
C433 C 0.79817 0.2746 0.77252 0.0
C434 C 0.81578 0.30399 0.77232 0.0
C435 C 0.84983 0.30378 0.77424 0.0
C436 C 0.86668 0.33359 0.77407 0.0
C437 C 0.85051 0.36265 0.77195 0.0
C438 C 0.81736 0.36281 0.76997 0.0
C439 C 0.80007 0.33392 0.77014 0.0
H440 H 0.42017 0.26433 0.77128 0.0
C441 C 0.41285 0.26676 0.76369 0.0
H442 H 0.37237 0.27354 0.75416 0.0
H443 H 0.2713 0.21208 0.78325 0.0
H444 H 0.27693 0.16847 0.77188 0.0
H445 H 0.31855 0.17066 0.75918 0.0
H446 H 0.35496 0.21643 0.75782 0.0
C447 C 0.38098 0.27065 0.76158 0.0
C448 C 0.35589 0.26969 0.7693 0.0
C449 C 0.33433 0.24309 0.76989 0.0
C450 C 0.30999 0.24204 0.77713 0.0
C451 C 0.28965 0.21457 0.77775 0.0
C452 C 0.29275 0.18924 0.7713 0.0
C453 C 0.3162 0.19046 0.76416 0.0
C454 C 0.33689 0.21693 0.76344 0.0
H455 H 0.24275 0.2732 0.78137 0.0
C456 C 0.2496 0.27095 0.789 0.0
H457 H 0.28958 0.26458 0.79875 0.0
H458 H 0.39161 0.3254 0.76977 0.0
H459 H 0.38604 0.36897 0.78116 0.0
H460 H 0.34438 0.3668 0.79385 0.0
H461 H 0.30786 0.32111 0.79518 0.0
C462 C 0.28136 0.2672 0.79128 0.0
C463 C 0.30683 0.26793 0.78367 0.0
C464 C 0.32846 0.29447 0.7831 0.0
C465 C 0.35282 0.29551 0.77586 0.0
C466 C 0.37323 0.32294 0.77526 0.0
C467 C 0.37017 0.34824 0.78172 0.0
C468 C 0.34669 0.34703 0.78886 0.0
C469 C 0.32594 0.32061 0.78956 0.0
H470 H 0.26099 0.75071 0.25702 0.0
C471 C 0.24478 0.76088 0.26235 0.0
H472 H 0.24282 0.78322 0.27605 0.0
H473 H 0.37404 0.72 0.29176 0.0
H474 H 0.33463 0.68945 0.30103 0.0
H475 H 0.27598 0.69528 0.2975 0.0
H476 H 0.25642 0.73155 0.28464 0.0
C477 C 0.2579 0.77248 0.27057 0.0
C478 C 0.29343 0.76968 0.27273 0.0
C479 C 0.30449 0.74889 0.28041 0.0
C480 C 0.33832 0.74595 0.28256 0.0
C481 C 0.34864 0.72396 0.29001 0.0
C482 C 0.32627 0.70606 0.29534 0.0
C483 C 0.29326 0.70931 0.29335 0.0
C484 C 0.28236 0.73031 0.28596 0.0
H485 H 0.3924 0.78354 0.29298 0.0
C486 C 0.40906 0.77364 0.28773 0.0
H487 H 0.41204 0.75156 0.27401 0.0
H488 H 0.28047 0.81382 0.25805 0.0
H489 H 0.31989 0.84429 0.24877 0.0
H490 H 0.37853 0.83851 0.25231 0.0
H491 H 0.39808 0.80236 0.26521 0.0
C492 C 0.39653 0.76201 0.27943 0.0
C493 C 0.36105 0.76436 0.27715 0.0
C494 C 0.35 0.78505 0.26944 0.0
C495 C 0.31617 0.78798 0.26729 0.0
C496 C 0.30586 0.8099 0.25982 0.0
C497 C 0.32824 0.82775 0.25448 0.0
C498 C 0.36125 0.82452 0.25648 0.0
C499 C 0.37214 0.8036 0.26389 0.0
H500 H 0.56143 0.93471 0.5187 0.0
C501 C 0.57737 0.9386 0.51256 0.0
H502 H 0.61011 0.97148 0.50597 0.0
H503 H 0.54644 0.09685 0.52325 0.0
H504 H 0.53075 0.10251 0.50631 0.0
H505 H 0.5412 0.05852 0.4949 0.0
H506 H 0.56719 1.0085 0.50039 0.0
C507 C 0.59363 0.96677 0.5119 0.0
C508 C 0.58825 0.99346 0.51886 0.0
C509 C 0.57365 0.0229 0.5155 0.0
C510 C 0.56815 0.04854 0.52205 0.0
C511 C 0.55219 0.07702 0.51856 0.0
C512 C 0.5428 0.0805 0.50885 0.0
C513 C 0.54864 0.05572 0.50243 0.0
C514 C 0.5637 0.02715 0.50568 0.0
H515 H 0.60459 0.10385 0.53204 0.0
C516 C 0.58876 0.09992 0.5382 0.0
H517 H 0.55618 0.067 0.54484 0.0
H518 H 0.61963 0.94157 0.52754 0.0
H519 H 0.6353 0.9359 0.54448 0.0
H520 H 0.6249 0.97991 0.55589 0.0
H521 H 0.59897 0.02996 0.5504 0.0
C522 C 0.57258 0.07171 0.53889 0.0
C523 C 0.57792 0.045 0.53193 0.0
C524 C 0.5925 1.01556 0.53529 0.0
C525 C 0.59799 0.98992 0.52874 0.0
C526 C 0.6139 0.96141 0.53223 0.0
C527 C 0.62329 0.95792 0.54194 0.0
C528 C 0.61747 0.98271 0.54836 0.0
C529 C 0.60245 1.0113 0.54511 0.0
H530 H 0.09041 0.9545 0.04374 0.0
C531 C 0.08167 0.93826 0.03818 0.0
H532 H 0.06274 0.9362 1.02383 0.0
H533 H 0.04091 0.09154 0.03365 0.0
H534 H 1.0017 0.07261 0.04541 0.0
H535 H 0.99496 1.01423 0.04887 0.0
H536 H 0.02751 0.97442 0.04064 0.0
C537 C 0.07196 0.95127 0.02958 0.0
C538 C 0.07512 0.98665 0.02737 0.0
C539 C 0.05558 1.00962 0.03217 0.0
C540 C 0.0591 0.04331 0.03006 0.0
C541 C 0.03931 0.06569 0.03497 0.0
C542 C 1.01663 0.05516 0.04173 0.0
C543 C 1.01286 0.02229 0.04368 0.0
C544 C 0.0319 0.99968 0.03895 0.0
H545 H 0.06646 0.08643 1.00666 0.0
C546 C 0.07533 0.10254 1.01224 0.0
H547 H 0.09429 0.10435 0.02659 0.0
H548 H 0.11582 0.94912 1.01672 0.0
H549 H 0.15501 0.96804 1.00496 0.0
H550 H 0.16177 0.02642 1.0015 0.0
H551 H 0.12925 0.06622 1.00973 0.0
C552 C 0.08493 0.08939 1.02084 0.0
C553 C 0.08164 0.05401 1.02301 0.0
C554 C 0.10116 0.03103 1.0182 0.0
C555 C 0.09764 0.99734 1.02031 0.0
C556 C 0.11742 0.97497 1.01539 0.0
C557 C 0.1401 0.98549 1.00864 0.0
C558 C 0.14387 1.01836 1.00669 0.0
C559 C 0.12484 0.04097 1.01142 0.0
H560 H 0.05396 0.7858 0.17599 0.0
C561 C 0.07675 0.7739 0.17803 0.0
H562 H 0.11775 0.74916 0.17261 0.0
H563 H 0.05396 0.7215 0.1317 0.0
H564 H 0.05145 0.66814 0.1393 0.0
H565 H 0.06544 0.65998 0.15663 0.0
H566 H 0.08176 0.70523 0.16649 0.0
C567 C 0.09599 0.76321 0.17092 0.0
C568 C 0.08734 0.76842 0.16046 0.0
C569 C 0.07848 0.74165 0.15474 0.0
C570 C 0.071 0.74626 0.14469 0.0
C571 C 0.06091 0.71926 0.13927 0.0
C572 C 0.05911 0.68851 0.14357 0.0
C573 C 0.06695 0.68392 0.15333 0.0
C574 C 0.07638 0.7101 0.15889 0.0
H575 H 0.10615 0.75458 0.12537 0.0
C576 C 0.08641 0.7706 0.123 0.0
H577 H 0.04632 0.79841 0.12763 0.0
H578 H 0.10542 0.82478 0.16917 0.0
H579 H 0.10774 0.8781 0.1616 0.0
H580 H 0.09424 0.8862 0.14424 0.0
H581 H 0.07851 0.84096 0.13434 0.0
C582 C 0.06656 0.78274 0.12973 0.0
C583 C 0.07312 0.77758 0.14032 0.0
C584 C 0.08162 0.80442 0.14608 0.0
C585 C 0.089 0.79982 0.15613 0.0
C586 C 0.09871 0.82691 0.16158 0.0
C587 C 0.10037 0.85769 0.1573 0.0
C588 C 0.0928 0.86224 0.14753 0.0
C589 C 0.08369 0.83603 0.14194 0.0
H590 H 0.60211 0.78878 0.42509 0.0
C591 C 0.58837 0.7676 0.42736 0.0
H592 H 0.56305 0.72665 0.42223 0.0
H593 H 0.55726 0.82494 0.38344 0.0
H594 H 0.52685 0.86218 0.3933 0.0
H595 H 0.51899 0.85084 0.41074 0.0
H596 H 0.54201 0.80262 0.41847 0.0
C597 C 0.57523 0.74908 0.42041 0.0
C598 C 0.5796 0.75646 0.40986 0.0
C599 C 0.56493 0.78428 0.4054 0.0
C600 C 0.5681 0.79006 0.39523 0.0
C601 C 0.55452 0.81875 0.39105 0.0
C602 C 0.53717 0.84043 0.39663 0.0
C603 C 0.53285 0.83411 0.40646 0.0
C604 C 0.54642 0.80638 0.41082 0.0
H605 H 0.53483 0.76425 0.37734 0.0
C606 C 0.55731 0.76816 0.37342 0.0
H607 H 0.60806 0.77508 0.37522 0.0
H608 H 0.61235 0.70189 0.41614 0.0
H609 H 0.64163 0.66414 0.40617 0.0
H610 H 0.64505 0.673 0.38847 0.0
H611 H 0.61939 0.71979 0.38063 0.0
C612 C 0.58488 0.7712 0.37868 0.0
C613 C 0.58459 0.76728 0.38946 0.0
C614 C 0.59976 0.73985 0.39394 0.0
C615 C 0.59735 0.73448 0.40414 0.0
C616 C 0.61293 0.70692 0.40841 0.0
C617 C 0.62993 0.68509 0.40278 0.0
C618 C 0.63189 0.6901 0.39281 0.0
C619 C 0.61704 0.71709 0.38841 0.0
H620 H 0.60955 0.254 0.62528 0.0
C621 C 0.58987 0.27034 0.62307 0.0
H622 H 0.55027 0.29807 0.62815 0.0
H623 H 0.55126 0.22198 0.66884 0.0
H624 H 0.50591 0.19565 0.66093 0.0
H625 H 0.49325 0.20655 0.64363 0.0
H626 H 0.52607 0.24371 0.6341 0.0
C627 C 0.57148 0.28341 0.63001 0.0
C628 C 0.57885 0.27732 0.6405 0.0
C629 C 0.55904 0.25614 0.64602 0.0
C630 C 0.56603 0.25027 0.65605 0.0
C631 C 0.54657 0.228 0.66128 0.0
C632 C 0.52057 0.21256 0.65681 0.0
C633 C 0.51346 0.21866 0.64706 0.0
C634 C 0.53244 0.24009 0.64169 0.0
H635 H 0.55821 0.28312 0.67601 0.0
C636 C 0.58111 0.27155 0.6781 0.0
H637 H 0.62311 0.24813 0.67282 0.0
H638 H 0.62047 0.32094 0.63217 0.0
H639 H 0.66566 0.34748 0.64007 0.0
H640 H 0.67798 0.33715 0.65742 0.0
H641 H 0.64509 0.3003 0.66698 0.0
C642 C 0.60029 0.26024 0.67106 0.0
C643 C 0.59249 0.26613 0.66058 0.0
C644 C 0.61227 0.28736 0.65505 0.0
C645 C 0.60534 0.29312 0.64502 0.0
C646 C 0.62496 0.31518 0.63976 0.0
C647 C 0.65091 0.33073 0.64421 0.0
C648 C 0.65784 0.32492 0.65398 0.0
C649 C 0.63879 0.30362 0.65938 0.0
H650 H 0.10412 0.28809 0.925 0.0
C651 C 0.08935 0.2676 0.92726 0.0
H652 H 0.06208 0.22796 0.92208 0.0
H653 H 0.0624 0.32581 0.8832 0.0
H654 H 0.03352 0.36463 0.89293 0.0
H655 H 1.02458 0.35394 0.91035 0.0
H656 H 0.04498 0.30477 0.9182 0.0
C657 C 0.07547 0.2497 0.92028 0.0
C658 C 0.08053 0.25671 0.90975 0.0
C659 C 0.06738 0.28515 0.90521 0.0
C660 C 0.07115 0.29062 0.89506 0.0
C661 C 0.05912 0.31987 0.8908 0.0
C662 C 0.04266 0.34245 0.89631 0.0
C663 C 0.03774 0.33649 0.90613 0.0
C664 C 0.0498 0.3082 0.91056 0.0
H665 H 0.03724 0.2662 0.87709 0.0
C666 C 0.06001 0.26893 0.87324 0.0
H667 H 0.11101 0.27337 0.87519 0.0
H668 H 0.11037 0.20071 0.91618 0.0
H669 H 0.13813 0.16145 0.90634 0.0
H670 H 0.14257 0.16989 0.88865 0.0
H671 H 0.11947 0.21776 0.88069 0.0
C672 C 0.08754 0.27074 0.87858 0.0
C673 C 0.08671 0.267 0.88936 0.0
C674 C 0.10039 0.23893 0.89392 0.0
C675 C 0.09738 0.23383 0.90411 0.0
C676 C 0.11146 0.2056 0.90845 0.0
C677 C 0.12757 0.1829 0.90289 0.0
C678 C 0.1301 0.18767 0.89294 0.0
C679 C 0.11673 0.21528 0.88846 0.0
loop_
_geom_bond_atom_site_label_1
_geom_bond_atom_site_label_2
_geom_bond_distance
_geom_bond_site_symmetry_2
_ccdc_geom_bond_type
C0 C1 1.264 . S
C0 C5 1.479 . S
C0 C10 1.465 . S
C1 C0 1.264 . S
C1 C3 1.339 . S
C1 H28 0.931 . S
C2 C3 1.395 . S
C2 C4 1.320 . S
C3 C1 1.339 . S
C3 C2 1.395 . S
C3 H29 0.929 . S
C4 C2 1.320 . S
C4 C5 1.405 . S
C4 H30 0.930 . S
C5 C0 1.479 . S
C5 C4 1.405 . S
C5 H31 0.931 . S
U6 O7 2.454 . S
U6 O8 2.458 . S
U6 C9 2.984 . S
U6 C10 2.847 . S
U6 C23 2.882 . S
U6 O24 2.441 . S
U6 O25 2.420 . S
U6 O26 2.455 . S
U6 O27 2.449 . S
O7 U6 2.454 . S
O7 C9 1.353 . S
O8 U6 2.458 . S
O8 C9 1.286 . S
C9 U6 2.984 . S
C9 O7 1.353 . S
C9 O8 1.286 . S
C9 C11 1.363 . S
C10 C0 1.465 . S
C10 U6 2.847 . S
C10 O24 1.249 . S
C10 O25 1.202 . S
C11 C9 1.363 . S
C11 C13 1.408 . S
C11 C16 1.342 . S
C12 C13 1.310 . S
C12 C15 1.461 . S
C12 H32 0.932 . S
C13 C11 1.408 . S
C13 C12 1.310 . S
C13 H33 0.930 . S
C14 C15 1.474 . S
C14 C16 1.285 . S
C14 H34 0.929 . S
C15 C12 1.461 . S
C15 C14 1.474 . S
C16 C11 1.342 . S
C16 C14 1.285 . S
C16 H35 0.930 . S
C17 C20 1.424 . S
C17 C22 1.245 . S
C17 C23 1.428 . S
C18 C21 1.260 . S
C18 C22 1.477 . S
C18 H36 0.932 . S
C19 C20 1.384 . S
C19 C21 1.479 . S
C19 H37 0.929 . S
C20 C17 1.424 . S
C20 C19 1.384 . S
C20 H38 0.928 . S
C21 C18 1.260 . S
C21 C19 1.479 . S
C22 C17 1.245 . S
C22 C18 1.477 . S
C22 H39 0.932 . S
C23 U6 2.882 . S
C23 C17 1.428 . S
C23 O26 1.301 . S
C23 O27 1.282 . S
O24 U6 2.441 . S
O24 C10 1.249 . S
O25 U6 2.420 . S
O25 C10 1.202 . S
O26 U6 2.455 . S
O26 C23 1.301 . S
O27 U6 2.449 . S
O27 C23 1.282 . S
H28 C1 0.931 . S
H29 C3 0.929 . S
H30 C4 0.930 . S
H31 C5 0.931 . S
H32 C12 0.932 . S
H33 C13 0.930 . S
H34 C14 0.929 . S
H35 C16 0.930 . S
H36 C18 0.932 . S
H37 C19 0.929 . S
H38 C20 0.928 . S
H39 C22 0.932 . S
C40 C41 1.264 . S
C40 C45 1.479 . S
C40 C50 1.465 . S
C41 C40 1.264 . S
C41 C43 1.339 . S
C41 H68 0.931 . S
C42 C43 1.395 . S
C42 C44 1.320 . S
C43 C41 1.339 . S
C43 C42 1.395 . S
C43 H69 0.929 . S
C44 C42 1.320 . S
C44 C45 1.405 . S
C44 H70 0.930 . S
C45 C40 1.479 . S
C45 C44 1.405 . S
C45 H71 0.931 . S
U46 O47 2.454 . S
U46 O48 2.458 . S
U46 C49 2.984 . S
U46 C50 2.847 . S
U46 C63 2.882 . S
U46 O64 2.441 . S
U46 O65 2.420 . S
U46 O66 2.455 . S
U46 O67 2.449 . S
O47 U46 2.454 . S
O47 C49 1.353 . S
O48 U46 2.458 . S
O48 C49 1.286 . S
C49 U46 2.984 . S
C49 O47 1.353 . S
C49 O48 1.286 . S
C49 C51 1.363 . S
C50 C40 1.465 . S
C50 U46 2.847 . S
C50 O64 1.249 . S
C50 O65 1.202 . S
C51 C49 1.363 . S
C51 C53 1.408 . S
C51 C56 1.342 . S
C52 C53 1.310 . S
C52 C55 1.461 . S
C52 H72 0.932 . S
C53 C51 1.408 . S
C53 C52 1.310 . S
C53 H73 0.930 . S
C54 C55 1.474 . S
C54 C56 1.285 . S
C54 H74 0.929 . S
C55 C52 1.461 . S
C55 C54 1.474 . S
C56 C51 1.342 . S
C56 C54 1.285 . S
C56 H75 0.930 . S
C57 C60 1.424 . S
C57 C62 1.245 . S
C57 C63 1.428 . S
C58 C61 1.260 . S
C58 C62 1.477 . S
C58 H76 0.932 . S
C59 C60 1.384 . S
C59 C61 1.479 . S
C59 H77 0.929 . S
C60 C57 1.424 . S
C60 C59 1.384 . S
C60 H78 0.928 . S
C61 C58 1.260 . S
C61 C59 1.479 . S
C62 C57 1.245 . S
C62 C58 1.477 . S
C62 H79 0.932 . S
C63 U46 2.882 . S
C63 C57 1.428 . S
C63 O66 1.301 . S
C63 O67 1.282 . S
O64 U46 2.441 . S
O64 C50 1.249 . S
O65 U46 2.420 . S
O65 C50 1.202 . S
O66 U46 2.455 . S
O66 C63 1.301 . S
O67 U46 2.449 . S
O67 C63 1.282 . S
H68 C41 0.931 . S
H69 C43 0.929 . S
H70 C44 0.930 . S
H71 C45 0.931 . S
H72 C52 0.932 . S
H73 C53 0.930 . S
H74 C54 0.929 . S
H75 C56 0.930 . S
H76 C58 0.932 . S
H77 C59 0.929 . S
H78 C60 0.928 . S
H79 C62 0.932 . S
C80 C81 1.264 . S
C80 C85 1.479 . S
C80 C90 1.465 . S
C81 C80 1.264 . S
C81 C83 1.339 . S
C81 H108 0.931 . S
C82 C83 1.395 . S
C82 C84 1.320 . S
C83 C81 1.339 . S
C83 C82 1.395 . S
C83 H109 0.929 . S
C84 C82 1.320 . S
C84 C85 1.405 . S
C84 H110 0.930 . S
C85 C80 1.479 . S
C85 C84 1.405 . S
C85 H111 0.931 . S
U86 O87 2.454 . S
U86 O88 2.458 . S
U86 C89 2.984 . S
U86 C90 2.847 . S
U86 C103 2.882 . S
U86 O104 2.441 . S
U86 O105 2.420 . S
U86 O106 2.455 . S
U86 O107 2.449 . S
O87 U86 2.454 . S
O87 C89 1.353 . S
O88 U86 2.458 . S
O88 C89 1.286 . S
C89 U86 2.984 . S
C89 O87 1.353 . S
C89 O88 1.286 . S
C89 C91 1.363 . S
C90 C80 1.465 . S
C90 U86 2.847 . S
C90 O104 1.249 . S
C90 O105 1.202 . S
C91 C89 1.363 . S
C91 C93 1.408 . S
C91 C96 1.342 . S
C92 C93 1.310 . S
C92 C95 1.461 . S
C92 H112 0.932 . S
C93 C91 1.408 . S
C93 C92 1.310 . S
C93 H113 0.930 . S
C94 C95 1.474 . S
C94 C96 1.285 . S
C94 H114 0.929 . S
C95 C92 1.461 . S
C95 C94 1.474 . S
C96 C91 1.342 . S
C96 C94 1.285 . S
C96 H115 0.930 . S
C97 C100 1.424 . S
C97 C102 1.245 . S
C97 C103 1.428 . S
C98 C101 1.260 . S
C98 C102 1.477 . S
C98 H116 0.932 . S
C99 C100 1.384 . S
C99 C101 1.479 . S
C99 H117 0.929 . S
C100 C97 1.424 . S
C100 C99 1.384 . S
C100 H118 0.928 . S
C101 C98 1.260 . S
C101 C99 1.479 . S
C102 C97 1.245 . S
C102 C98 1.477 . S
C102 H119 0.932 . S
C103 U86 2.882 . S
C103 C97 1.428 . S
C103 O106 1.301 . S
C103 O107 1.282 . S
O104 U86 2.441 . S
O104 C90 1.249 . S
O105 U86 2.420 . S
O105 C90 1.202 . S
O106 U86 2.455 . S
O106 C103 1.301 . S
O107 U86 2.449 . S
O107 C103 1.282 . S
H108 C81 0.931 . S
H109 C83 0.929 . S
H110 C84 0.930 . S
H111 C85 0.931 . S
H112 C92 0.932 . S
H113 C93 0.930 . S
H114 C94 0.929 . S
H115 C96 0.930 . S
H116 C98 0.932 . S
H117 C99 0.929 . S
H118 C100 0.928 . S
H119 C102 0.932 . S
C120 C121 1.264 . S
C120 C125 1.479 . S
C120 C130 1.465 1_655 S
C121 C120 1.264 . S
C121 C123 1.339 . S
C121 H148 0.931 . S
C122 C123 1.395 . S
C122 C124 1.320 . S
C123 C121 1.339 . S
C123 C122 1.395 . S
C123 H149 0.929 . S
C124 C122 1.320 . S
C124 C125 1.405 . S
C124 H150 0.930 . S
C125 C120 1.479 . S
C125 C124 1.405 . S
C125 H151 0.931 . S
U126 O127 2.454 . S
U126 O128 2.458 . S
U126 C129 2.984 . S
U126 C130 2.847 . S
U126 C143 2.882 . S
U126 O144 2.441 . S
U126 O145 2.420 . S
U126 O146 2.455 . S
U126 O147 2.449 . S
O127 U126 2.454 . S
O127 C129 1.353 . S
O128 U126 2.458 . S
O128 C129 1.286 . S
C129 U126 2.984 . S
C129 O127 1.353 . S
C129 O128 1.286 . S
C129 C131 1.363 . S
C130 C120 1.465 1_455 S
C130 U126 2.847 . S
C130 O144 1.249 . S
C130 O145 1.202 . S
C131 C129 1.363 . S
C131 C133 1.408 . S
C131 C136 1.342 . S
C132 C133 1.310 . S
C132 C135 1.461 . S
C132 H152 0.932 . S
C133 C131 1.408 . S
C133 C132 1.310 . S
C133 H153 0.930 . S
C134 C135 1.474 . S
C134 C136 1.285 . S
C134 H154 0.929 . S
C135 C132 1.461 . S
C135 C134 1.474 . S
C136 C131 1.342 . S
C136 C134 1.285 . S
C136 H155 0.930 . S
C137 C140 1.424 . S
C137 C142 1.245 . S
C137 C143 1.428 . S
C138 C141 1.260 . S
C138 C142 1.477 . S
C138 H156 0.932 . S
C139 C140 1.384 . S
C139 C141 1.479 . S
C139 H157 0.929 . S
C140 C137 1.424 . S
C140 C139 1.384 . S
C140 H158 0.928 . S
C141 C138 1.260 . S
C141 C139 1.479 . S
C142 C137 1.245 . S
C142 C138 1.477 . S
C142 H159 0.932 . S
C143 U126 2.882 . S
C143 C137 1.428 . S
C143 O146 1.301 . S
C143 O147 1.282 . S
O144 U126 2.441 . S
O144 C130 1.249 . S
O145 U126 2.420 . S
O145 C130 1.202 . S
O146 U126 2.455 . S
O146 C143 1.301 . S
O147 U126 2.449 . S
O147 C143 1.282 . S
H148 C121 0.931 . S
H149 C123 0.929 . S
H150 C124 0.930 . S
H151 C125 0.931 . S
H152 C132 0.932 . S
H153 C133 0.930 . S
H154 C134 0.929 . S
H155 C136 0.930 . S
H156 C138 0.932 . S
H157 C139 0.929 . S
H158 C140 0.928 . S
H159 C142 0.932 . S
C160 C161 1.264 . S
C160 C165 1.479 . S
C160 C170 1.465 . S
C161 C160 1.264 . S
C161 C163 1.339 . S
C161 H188 0.931 . S
C162 C163 1.395 . S
C162 C164 1.320 . S
C163 C161 1.339 . S
C163 C162 1.395 . S
C163 H189 0.929 . S
C164 C162 1.320 . S
C164 C165 1.405 . S
C164 H190 0.930 . S
C165 C160 1.479 . S
C165 C164 1.405 . S
C165 H191 0.931 . S
U166 O167 2.454 . S
U166 O168 2.458 . S
U166 C169 2.984 . S
U166 C170 2.847 . S
U166 C183 2.882 . S
U166 O184 2.441 . S
U166 O185 2.420 . S
U166 O186 2.455 . S
U166 O187 2.449 . S
O167 U166 2.454 . S
O167 C169 1.353 . S
O168 U166 2.458 . S
O168 C169 1.286 . S
C169 U166 2.984 . S
C169 O167 1.353 . S
C169 O168 1.286 . S
C169 C171 1.363 . S
C170 C160 1.465 . S
C170 U166 2.847 . S
C170 O184 1.249 . S
C170 O185 1.202 . S
C171 C169 1.363 . S
C171 C173 1.408 . S
C171 C176 1.342 . S
C172 C173 1.310 . S
C172 C175 1.461 . S
C172 H192 0.932 . S
C173 C171 1.408 . S
C173 C172 1.310 . S
C173 H193 0.930 . S
C174 C175 1.474 . S
C174 C176 1.285 . S
C174 H194 0.929 . S
C175 C172 1.461 . S
C175 C174 1.474 . S
C176 C171 1.342 . S
C176 C174 1.285 . S
C176 H195 0.930 . S
C177 C180 1.424 . S
C177 C182 1.245 . S
C177 C183 1.428 . S
C178 C181 1.260 . S
C178 C182 1.477 . S
C178 H196 0.932 . S
C179 C180 1.384 . S
C179 C181 1.479 . S
C179 H197 0.929 . S
C180 C177 1.424 . S
C180 C179 1.384 . S
C180 H198 0.928 . S
C181 C178 1.260 . S
C181 C179 1.479 . S
C182 C177 1.245 . S
C182 C178 1.477 . S
C182 H199 0.932 . S
C183 U166 2.882 . S
C183 C177 1.428 . S
C183 O186 1.301 . S
C183 O187 1.282 . S
O184 U166 2.441 . S
O184 C170 1.249 . S
O185 U166 2.420 . S
O185 C170 1.202 . S
O186 U166 2.455 . S
O186 C183 1.301 . S
O187 U166 2.449 . S
O187 C183 1.282 . S
H188 C161 0.931 . S
H189 C163 0.929 . S
H190 C164 0.930 . S
H191 C165 0.931 . S
H192 C172 0.932 . S
H193 C173 0.930 . S
H194 C174 0.929 . S
H195 C176 0.930 . S
H196 C178 0.932 . S
H197 C179 0.929 . S
H198 C180 0.928 . S
H199 C182 0.932 . S
C200 C201 1.264 . S
C200 C205 1.479 . S
C200 C210 1.465 . S
C201 C200 1.264 . S
C201 C203 1.339 . S
C201 H228 0.931 . S
C202 C203 1.395 . S
C202 C204 1.320 . S
C203 C201 1.339 . S
C203 C202 1.395 . S
C203 H229 0.929 . S
C204 C202 1.320 . S
C204 C205 1.405 . S
C204 H230 0.930 . S
C205 C200 1.479 . S
C205 C204 1.405 . S
C205 H231 0.931 . S
U206 O207 2.454 . S
U206 O208 2.458 1_455 S
U206 C209 2.984 1_455 S
U206 C210 2.847 . S
U206 C223 2.882 . S
U206 O224 2.441 . S
U206 O225 2.420 . S
U206 O226 2.455 . S
U206 O227 2.449 . S
O207 U206 2.454 . S
O207 C209 1.353 1_455 S
O208 U206 2.458 1_655 S
O208 C209 1.286 . S
C209 U206 2.984 1_655 S
C209 O207 1.353 1_655 S
C209 O208 1.286 . S
C209 C211 1.363 . S
C210 C200 1.465 . S
C210 U206 2.847 . S
C210 O224 1.249 . S
C210 O225 1.202 . S
C211 C209 1.363 . S
C211 C213 1.408 . S
C211 C216 1.342 . S
C212 C213 1.310 . S
C212 C215 1.461 . S
C212 H232 0.932 . S
C213 C211 1.408 . S
C213 C212 1.310 . S
C213 H233 0.930 . S
C214 C215 1.474 . S
C214 C216 1.285 . S
C214 H234 0.929 . S
C215 C212 1.461 . S
C215 C214 1.474 . S
C216 C211 1.342 . S
C216 C214 1.285 . S
C216 H235 0.930 . S
C217 C220 1.424 . S
C217 C222 1.245 . S
C217 C223 1.428 . S
C218 C221 1.260 . S
C218 C222 1.477 . S
C218 H236 0.932 . S
C219 C220 1.384 . S
C219 C221 1.479 . S
C219 H237 0.929 . S
C220 C217 1.424 . S
C220 C219 1.384 . S
C220 H238 0.928 . S
C221 C218 1.260 . S
C221 C219 1.479 . S
C222 C217 1.245 . S
C222 C218 1.477 . S
C222 H239 0.932 . S
C223 U206 2.882 . S
C223 C217 1.428 . S
C223 O226 1.301 . S
C223 O227 1.282 . S
O224 U206 2.441 . S
O224 C210 1.249 . S
O225 U206 2.420 . S
O225 C210 1.202 . S
O226 U206 2.455 . S
O226 C223 1.301 . S
O227 U206 2.449 . S
O227 C223 1.282 . S
H228 C201 0.931 . S
H229 C203 0.929 . S
H230 C204 0.930 . S
H231 C205 0.931 . S
H232 C212 0.932 . S
H233 C213 0.930 . S
H234 C214 0.929 . S
H235 C216 0.930 . S
H236 C218 0.932 . S
H237 C219 0.929 . S
H238 C220 0.928 . S
H239 C222 0.932 . S
C240 C241 1.264 . S
C240 C245 1.479 . S
C240 C250 1.465 . S
C241 C240 1.264 . S
C241 C243 1.339 . S
C241 H268 0.931 . S
C242 C243 1.395 . S
C242 C244 1.320 . S
C243 C241 1.339 . S
C243 C242 1.395 . S
C243 H269 0.929 . S
C244 C242 1.320 . S
C244 C245 1.405 . S
C244 H270 0.930 . S
C245 C240 1.479 . S
C245 C244 1.405 . S
C245 H271 0.931 . S
U246 O247 2.454 . S
U246 O248 2.458 . S
U246 C249 2.984 . S
U246 C250 2.847 . S
U246 C263 2.882 . S
U246 O264 2.441 . S
U246 O265 2.420 . S
U246 O266 2.455 . S
U246 O267 2.449 . S
O247 U246 2.454 . S
O247 C249 1.353 . S
O248 U246 2.458 . S
O248 C249 1.286 . S
C249 U246 2.984 . S
C249 O247 1.353 . S
C249 O248 1.286 . S
C249 C251 1.363 . S
C250 C240 1.465 . S
C250 U246 2.847 . S
C250 O264 1.249 . S
C250 O265 1.202 . S
C251 C249 1.363 . S
C251 C253 1.408 . S
C251 C256 1.342 . S
C252 C253 1.310 . S
C252 C255 1.461 . S
C252 H272 0.932 . S
C253 C251 1.408 . S
C253 C252 1.310 . S
C253 H273 0.930 . S
C254 C255 1.474 . S
C254 C256 1.285 . S
C254 H274 0.929 . S
C255 C252 1.461 . S
C255 C254 1.474 . S
C256 C251 1.342 . S
C256 C254 1.285 . S
C256 H275 0.930 . S
C257 C260 1.424 . S
C257 C262 1.245 . S
C257 C263 1.428 . S
C258 C261 1.260 . S
C258 C262 1.477 . S
C258 H276 0.932 . S
C259 C260 1.384 . S
C259 C261 1.479 . S
C259 H277 0.929 . S
C260 C257 1.424 . S
C260 C259 1.384 . S
C260 H278 0.928 . S
C261 C258 1.260 . S
C261 C259 1.479 . S
C262 C257 1.245 . S
C262 C258 1.477 . S
C262 H279 0.932 . S
C263 U246 2.882 . S
C263 C257 1.428 . S
C263 O266 1.301 . S
C263 O267 1.282 . S
O264 U246 2.441 . S
O264 C250 1.249 . S
O265 U246 2.420 . S
O265 C250 1.202 . S
O266 U246 2.455 . S
O266 C263 1.301 . S
O267 U246 2.449 . S
O267 C263 1.282 . S
H268 C241 0.931 . S
H269 C243 0.929 . S
H270 C244 0.930 . S
H271 C245 0.931 . S
H272 C252 0.932 . S
H273 C253 0.930 . S
H274 C254 0.929 . S
H275 C256 0.930 . S
H276 C258 0.932 . S
H277 C259 0.929 . S
H278 C260 0.928 . S
H279 C262 0.932 . S
C280 C281 1.264 . S
C280 C285 1.479 . S
C280 C290 1.465 . S
C281 C280 1.264 . S
C281 C283 1.339 . S
C281 H308 0.931 . S
C282 C283 1.395 . S
C282 C284 1.320 . S
C283 C281 1.339 . S
C283 C282 1.395 . S
C283 H309 0.929 . S
C284 C282 1.320 . S
C284 C285 1.405 . S
C284 H310 0.930 . S
C285 C280 1.479 . S
C285 C284 1.405 . S
C285 H311 0.931 . S
U286 O287 2.454 . S
U286 O288 2.458 . S
U286 C289 2.984 . S
U286 C290 2.847 . S
U286 C303 2.882 . S
U286 O304 2.441 . S
U286 O305 2.420 . S
U286 O306 2.455 . S
U286 O307 2.449 . S
O287 U286 2.454 . S
O287 C289 1.353 . S
O288 U286 2.458 . S
O288 C289 1.286 . S
C289 U286 2.984 . S
C289 O287 1.353 . S
C289 O288 1.286 . S
C289 C291 1.363 . S
C290 C280 1.465 . S
C290 U286 2.847 . S
C290 O304 1.249 . S
C290 O305 1.202 . S
C291 C289 1.363 . S
C291 C293 1.408 . S
C291 C296 1.342 . S
C292 C293 1.310 . S
C292 C295 1.461 . S
C292 H312 0.932 . S
C293 C291 1.408 . S
C293 C292 1.310 . S
C293 H313 0.930 . S
C294 C295 1.474 . S
C294 C296 1.285 . S
C294 H314 0.929 . S
C295 C292 1.461 . S
C295 C294 1.474 . S
C296 C291 1.342 . S
C296 C294 1.285 . S
C296 H315 0.930 . S
C297 C300 1.424 . S
C297 C302 1.245 . S
C297 C303 1.428 . S
C298 C301 1.260 . S
C298 C302 1.477 . S
C298 H316 0.932 . S
C299 C300 1.384 . S
C299 C301 1.479 . S
C299 H317 0.929 . S
C300 C297 1.424 . S
C300 C299 1.384 . S
C300 H318 0.928 . S
C301 C298 1.260 . S
C301 C299 1.479 . S
C302 C297 1.245 . S
C302 C298 1.477 . S
C302 H319 0.932 . S
C303 U286 2.882 . S
C303 C297 1.428 . S
C303 O306 1.301 . S
C303 O307 1.282 . S
O304 U286 2.441 . S
O304 C290 1.249 . S
O305 U286 2.420 . S
O305 C290 1.202 . S
O306 U286 2.455 . S
O306 C303 1.301 . S
O307 U286 2.449 . S
O307 C303 1.282 . S
H308 C281 0.931 . S
H309 C283 0.929 . S
H310 C284 0.930 . S
H311 C285 0.931 . S
H312 C292 0.932 . S
H313 C293 0.930 . S
H314 C294 0.929 . S
H315 C296 0.930 . S
H316 C298 0.932 . S
H317 C299 0.929 . S
H318 C300 0.928 . S
H319 C302 0.932 . S
H320 C321 0.951 . S
C321 H320 0.951 . S
C321 C327 1.265 . S
H322 C327 0.950 . S
H323 C331 0.949 . S
H324 C332 0.950 . S
H325 C333 0.951 . S
H326 C334 0.951 . S
C327 C321 1.265 . S
C327 H322 0.950 . S
C327 C328 1.478 . S
C328 C327 1.478 . S
C328 C329 1.397 1_556 S
C328 C345 1.394 . S
C329 C328 1.397 1_554 S
C329 C330 1.438 . S
C329 C334 1.429 . S
C330 C329 1.438 . S
C330 C331 1.428 . S
C330 C343 1.394 . S
C331 H323 0.949 . S
C331 C330 1.428 . S
C331 C332 1.345 1_455 S
C332 H324 0.950 . S
C332 C331 1.345 1_655 S
C332 C333 1.424 . S
C333 H325 0.951 . S
C333 C332 1.424 . S
C333 C334 1.347 1_655 S
C334 H326 0.951 . S
C334 C329 1.429 . S
C334 C333 1.347 1_455 S
H335 C336 0.951 . S
C336 H335 0.951 . S
C336 C342 1.265 . S
H337 C342 0.950 . S
H338 C346 0.949 . S
H339 C347 0.950 . S
H340 C348 0.951 . S
H341 C349 0.951 . S
C342 C336 1.265 . S
C342 H337 0.950 . S
C342 C343 1.478 . S
C343 C330 1.394 . S
C343 C342 1.478 . S
C343 C344 1.397 1_554 S
C344 C343 1.397 1_556 S
C344 C345 1.438 . S
C344 C349 1.429 . S
C345 C328 1.394 . S
C345 C344 1.438 . S
C345 C346 1.428 . S
C346 H338 0.949 . S
C346 C345 1.428 . S
C346 C347 1.345 . S
C347 H339 0.950 . S
C347 C346 1.345 . S
C347 C348 1.424 . S
C348 H340 0.951 . S
C348 C347 1.424 . S
C348 C349 1.347 . S
C349 H341 0.951 . S
C349 C344 1.429 . S
C349 C348 1.347 . S
H350 C351 0.951 . S
C351 H350 0.951 . S
C351 C357 1.265 . S
H352 C357 0.950 . S
H353 C361 0.949 . S
H354 C362 0.950 . S
H355 C363 0.951 . S
H356 C364 0.951 . S
C357 C351 1.265 . S
C357 H352 0.950 . S
C357 C358 1.478 . S
C358 C357 1.478 . S
C358 C359 1.397 . S
C358 C375 1.394 . S
C359 C358 1.397 . S
C359 C360 1.438 . S
C359 C364 1.429 . S
C360 C359 1.438 . S
C360 C361 1.428 . S
C360 C373 1.394 . S
C361 H353 0.949 . S
C361 C360 1.428 . S
C361 C362 1.345 . S
C362 H354 0.950 . S
C362 C361 1.345 . S
C362 C363 1.424 . S
C363 H355 0.951 . S
C363 C362 1.424 . S
C363 C364 1.347 . S
C364 H356 0.951 . S
C364 C359 1.429 . S
C364 C363 1.347 . S
H365 C366 0.951 . S
C366 H365 0.951 . S
C366 C372 1.265 . S
H367 C372 0.950 . S
H368 C376 0.949 . S
H369 C377 0.950 . S
H370 C378 0.951 . S
H371 C379 0.951 . S
C372 C366 1.265 . S
C372 H367 0.950 . S
C372 C373 1.478 . S
C373 C360 1.394 . S
C373 C372 1.478 . S
C373 C374 1.397 . S
C374 C373 1.397 . S
C374 C375 1.438 . S
C374 C379 1.429 . S
C375 C358 1.394 . S
C375 C374 1.438 . S
C375 C376 1.428 . S
C376 H368 0.949 . S
C376 C375 1.428 . S
C376 C377 1.345 . S
C377 H369 0.950 . S
C377 C376 1.345 . S
C377 C378 1.424 . S
C378 H370 0.951 . S
C378 C377 1.424 . S
C378 C379 1.347 . S
C379 H371 0.951 . S
C379 C374 1.429 . S
C379 C378 1.347 . S
H380 C381 0.951 . S
C381 H380 0.951 . S
C381 C387 1.265 . S
H382 C387 0.950 . S
H383 C391 0.949 . S
H384 C392 0.950 . S
H385 C393 0.951 . S
H386 C394 0.951 . S
C387 C381 1.265 . S
C387 H382 0.950 . S
C387 C388 1.478 . S
C388 C387 1.478 . S
C388 C389 1.397 . S
C388 C405 1.394 . S
C389 C388 1.397 . S
C389 C390 1.438 . S
C389 C394 1.429 . S
C390 C389 1.438 . S
C390 C391 1.428 . S
C390 C403 1.394 . S
C391 H383 0.949 . S
C391 C390 1.428 . S
C391 C392 1.345 . S
C392 H384 0.950 . S
C392 C391 1.345 . S
C392 C393 1.424 . S
C393 H385 0.951 . S
C393 C392 1.424 . S
C393 C394 1.347 . S
C394 H386 0.951 . S
C394 C389 1.429 . S
C394 C393 1.347 . S
H395 C396 0.951 . S
C396 H395 0.951 . S
C396 C402 1.265 . S
H397 C402 0.950 . S
H398 C406 0.949 . S
H399 C407 0.950 . S
H400 C408 0.951 . S
H401 C409 0.951 . S
C402 C396 1.265 . S
C402 H397 0.950 . S
C402 C403 1.478 . S
C403 C390 1.394 . S
C403 C402 1.478 . S
C403 C404 1.397 . S
C404 C403 1.397 . S
C404 C405 1.438 . S
C404 C409 1.429 . S
C405 C388 1.394 . S
C405 C404 1.438 . S
C405 C406 1.428 . S
C406 H398 0.949 . S
C406 C405 1.428 . S
C406 C407 1.345 . S
C407 H399 0.950 . S
C407 C406 1.345 . S
C407 C408 1.424 . S
C408 H400 0.951 . S
C408 C407 1.424 . S
C408 C409 1.347 . S
C409 H401 0.951 . S
C409 C404 1.429 . S
C409 C408 1.347 . S
H410 C411 0.951 . S
C411 H410 0.951 . S
C411 C417 1.265 . S
H412 C417 0.950 . S
H413 C421 0.949 . S
H414 C422 0.950 . S
H415 C423 0.951 . S
H416 C424 0.951 . S
C417 C411 1.265 . S
C417 H412 0.950 . S
C417 C418 1.478 . S
C418 C417 1.478 . S
C418 C419 1.397 . S
C418 C435 1.394 . S
C419 C418 1.397 . S
C419 C420 1.438 . S
C419 C424 1.429 . S
C420 C419 1.438 . S
C420 C421 1.428 . S
C420 C433 1.394 . S
C421 H413 0.949 . S
C421 C420 1.428 . S
C421 C422 1.345 . S
C422 H414 0.950 . S
C422 C421 1.345 . S
C422 C423 1.424 . S
C423 H415 0.951 . S
C423 C422 1.424 . S
C423 C424 1.347 . S
C424 H416 0.951 . S
C424 C419 1.429 . S
C424 C423 1.347 . S
H425 C426 0.951 . S
C426 H425 0.951 . S
C426 C432 1.265 . S
H427 C432 0.950 . S
H428 C436 0.949 . S
H429 C437 0.950 . S
H430 C438 0.951 . S
H431 C439 0.951 . S
C432 C426 1.265 . S
C432 H427 0.950 . S
C432 C433 1.478 . S
C433 C420 1.394 . S
C433 C432 1.478 . S
C433 C434 1.397 . S
C434 C433 1.397 . S
C434 C435 1.438 . S
C434 C439 1.429 . S
C435 C418 1.394 . S
C435 C434 1.438 . S
C435 C436 1.428 . S
C436 H428 0.949 . S
C436 C435 1.428 . S
C436 C437 1.345 . S
C437 H429 0.950 . S
C437 C436 1.345 . S
C437 C438 1.424 . S
C438 H430 0.951 . S
C438 C437 1.424 . S
C438 C439 1.347 . S
C439 H431 0.951 . S
C439 C434 1.429 . S
C439 C438 1.347 . S
H440 C441 0.951 . S
C441 H440 0.951 . S
C441 C447 1.265 . S
H442 C447 0.950 . S
H443 C451 0.949 . S
H444 C452 0.950 . S
H445 C453 0.951 . S
H446 C454 0.951 . S
C447 C441 1.265 . S
C447 H442 0.950 . S
C447 C448 1.478 . S
C448 C447 1.478 . S
C448 C449 1.397 . S
C448 C465 1.394 . S
C449 C448 1.397 . S
C449 C450 1.438 . S
C449 C454 1.429 . S
C450 C449 1.438 . S
C450 C451 1.428 . S
C450 C463 1.394 . S
C451 H443 0.949 . S
C451 C450 1.428 . S
C451 C452 1.345 . S
C452 H444 0.950 . S
C452 C451 1.345 . S
C452 C453 1.424 . S
C453 H445 0.951 . S
C453 C452 1.424 . S
C453 C454 1.347 . S
C454 H446 0.951 . S
C454 C449 1.429 . S
C454 C453 1.347 . S
H455 C456 0.951 . S
C456 H455 0.951 . S
C456 C462 1.265 . S
H457 C462 0.950 . S
H458 C466 0.949 . S
H459 C467 0.950 . S
H460 C468 0.951 . S
H461 C469 0.951 . S
C462 C456 1.265 . S
C462 H457 0.950 . S
C462 C463 1.478 . S
C463 C450 1.394 . S
C463 C462 1.478 . S
C463 C464 1.397 . S
C464 C463 1.397 . S
C464 C465 1.438 . S
C464 C469 1.429 . S
C465 C448 1.394 . S
C465 C464 1.438 . S
C465 C466 1.428 . S
C466 H458 0.949 . S
C466 C465 1.428 . S
C466 C467 1.345 . S
C467 H459 0.950 . S
C467 C466 1.345 . S
C467 C468 1.424 . S
C468 H460 0.951 . S
C468 C467 1.424 . S
C468 C469 1.347 . S
C469 H461 0.951 . S
C469 C464 1.429 . S
C469 C468 1.347 . S
H470 C471 0.951 . S
C471 H470 0.951 . S
C471 C477 1.265 . S
H472 C477 0.950 . S
H473 C481 0.949 . S
H474 C482 0.950 . S
H475 C483 0.951 . S
H476 C484 0.951 . S
C477 C471 1.265 . S
C477 H472 0.950 . S
C477 C478 1.478 . S
C478 C477 1.478 . S
C478 C479 1.397 . S
C478 C495 1.394 . S
C479 C478 1.397 . S
C479 C480 1.438 . S
C479 C484 1.429 . S
C480 C479 1.438 . S
C480 C481 1.428 . S
C480 C493 1.394 . S
C481 H473 0.949 . S
C481 C480 1.428 . S
C481 C482 1.345 . S
C482 H474 0.950 . S
C482 C481 1.345 . S
C482 C483 1.424 . S
C483 H475 0.951 . S
C483 C482 1.424 . S
C483 C484 1.347 . S
C484 H476 0.951 . S
C484 C479 1.429 . S
C484 C483 1.347 . S
H485 C486 0.951 . S
C486 H485 0.951 . S
C486 C492 1.265 . S
H487 C492 0.950 . S
H488 C496 0.949 . S
H489 C497 0.950 . S
H490 C498 0.951 . S
H491 C499 0.951 . S
C492 C486 1.265 . S
C492 H487 0.950 . S
C492 C493 1.478 . S
C493 C480 1.394 . S
C493 C492 1.478 . S
C493 C494 1.397 . S
C494 C493 1.397 . S
C494 C495 1.438 . S
C494 C499 1.429 . S
C495 C478 1.394 . S
C495 C494 1.438 . S
C495 C496 1.428 . S
C496 H488 0.949 . S
C496 C495 1.428 . S
C496 C497 1.345 . S
C497 H489 0.950 . S
C497 C496 1.345 . S
C497 C498 1.424 . S
C498 H490 0.951 . S
C498 C497 1.424 . S
C498 C499 1.347 . S
C499 H491 0.951 . S
C499 C494 1.429 . S
C499 C498 1.347 . S
H500 C501 0.951 . S
C501 H500 0.951 . S
C501 C507 1.265 . S
H502 C507 0.950 . S
H503 C511 0.949 . S
H504 C512 0.950 . S
H505 C513 0.951 . S
H506 C514 0.951 . S
C507 C501 1.265 . S
C507 H502 0.950 . S
C507 C508 1.478 . S
C508 C507 1.478 . S
C508 C509 1.397 . S
C508 C525 1.394 . S
C509 C508 1.397 . S
C509 C510 1.438 1_565 S
C509 C514 1.429 . S
C510 C509 1.438 1_545 S
C510 C511 1.428 . S
C510 C523 1.394 . S
C511 H503 0.949 . S
C511 C510 1.428 . S
C511 C512 1.345 . S
C512 H504 0.950 . S
C512 C511 1.345 . S
C512 C513 1.424 . S
C513 H505 0.951 . S
C513 C512 1.424 . S
C513 C514 1.347 1_545 S
C514 H506 0.951 . S
C514 C509 1.429 . S
C514 C513 1.347 1_565 S
H515 C516 0.951 . S
C516 H515 0.951 . S
C516 C522 1.265 . S
H517 C522 0.950 . S
H518 C526 0.949 . S
H519 C527 0.950 . S
H520 C528 0.951 . S
H521 C529 0.951 . S
C522 C516 1.265 . S
C522 H517 0.950 . S
C522 C523 1.478 . S
C523 C510 1.394 . S
C523 C522 1.478 . S
C523 C524 1.397 . S
C524 C523 1.397 . S
C524 C525 1.438 1_545 S
C524 C529 1.429 . S
C525 C508 1.394 . S
C525 C524 1.438 1_565 S
C525 C526 1.428 . S
C526 H518 0.949 . S
C526 C525 1.428 . S
C526 C527 1.345 . S
C527 H519 0.950 . S
C527 C526 1.345 . S
C527 C528 1.424 . S
C528 H520 0.951 . S
C528 C527 1.424 . S
C528 C529 1.347 1_565 S
C529 H521 0.951 . S
C529 C524 1.429 . S
C529 C528 1.347 1_545 S
H530 C531 0.951 . S
C531 H530 0.951 . S
C531 C537 1.265 . S
H532 C537 0.950 . S
H533 C541 0.949 . S
H534 C542 0.950 . S
H535 C543 0.951 . S
H536 C544 0.951 1_565 S
C537 C531 1.265 . S
C537 H532 0.950 . S
C537 C538 1.478 . S
C538 C537 1.478 . S
C538 C539 1.397 1_565 S
C538 C555 1.394 1_554 S
C539 C538 1.397 1_545 S
C539 C540 1.438 . S
C539 C544 1.429 . S
C540 C539 1.438 . S
C540 C541 1.428 . S
C540 C553 1.394 1_554 S
C541 H533 0.949 . S
C541 C540 1.428 . S
C541 C542 1.345 . S
C542 H534 0.950 . S
C542 C541 1.345 . S
C542 C543 1.424 . S
C543 H535 0.951 . S
C543 C542 1.424 . S
C543 C544 1.347 . S
C544 H536 0.951 1_545 S
C544 C539 1.429 . S
C544 C543 1.347 . S
H545 C546 0.951 . S
C546 H545 0.951 . S
C546 C552 1.265 . S
H547 C552 0.950 . S
H548 C556 0.949 . S
H549 C557 0.950 . S
H550 C558 0.951 . S
H551 C559 0.951 1_545 S
C552 C546 1.265 . S
C552 H547 0.950 . S
C552 C553 1.478 . S
C553 C540 1.394 1_556 S
C553 C552 1.478 . S
C553 C554 1.397 1_545 S
C554 C553 1.397 1_565 S
C554 C555 1.438 . S
C554 C559 1.429 . S
C555 C538 1.394 1_556 S
C555 C554 1.438 . S
C555 C556 1.428 . S
C556 H548 0.949 . S
C556 C555 1.428 . S
C556 C557 1.345 . S
C557 H549 0.950 . S
C557 C556 1.345 . S
C557 C558 1.424 . S
C558 H550 0.951 . S
C558 C557 1.424 . S
C558 C559 1.347 . S
C559 H551 0.951 1_565 S
C559 C554 1.429 . S
C559 C558 1.347 . S
H560 C561 0.951 . S
C561 H560 0.951 . S
C561 C567 1.265 . S
H562 C567 0.950 . S
H563 C571 0.949 . S
H564 C572 0.950 . S
H565 C573 0.951 . S
H566 C574 0.951 . S
C567 C561 1.265 . S
C567 H562 0.950 . S
C567 C568 1.478 . S
C568 C567 1.478 . S
C568 C569 1.397 . S
C568 C585 1.394 . S
C569 C568 1.397 . S
C569 C570 1.438 . S
C569 C574 1.429 . S
C570 C569 1.438 . S
C570 C571 1.428 . S
C570 C583 1.394 . S
C571 H563 0.949 . S
C571 C570 1.428 . S
C571 C572 1.345 . S
C572 H564 0.950 . S
C572 C571 1.345 . S
C572 C573 1.424 . S
C573 H565 0.951 . S
C573 C572 1.424 . S
C573 C574 1.347 . S
C574 H566 0.951 . S
C574 C569 1.429 . S
C574 C573 1.347 . S
H575 C576 0.951 . S
C576 H575 0.951 . S
C576 C582 1.265 . S
H577 C582 0.950 . S
H578 C586 0.949 . S
H579 C587 0.950 . S
H580 C588 0.951 . S
H581 C589 0.951 . S
C582 C576 1.265 . S
C582 H577 0.950 . S
C582 C583 1.478 . S
C583 C570 1.394 . S
C583 C582 1.478 . S
C583 C584 1.397 . S
C584 C583 1.397 . S
C584 C585 1.438 . S
C584 C589 1.429 . S
C585 C568 1.394 . S
C585 C584 1.438 . S
C585 C586 1.428 . S
C586 H578 0.949 . S
C586 C585 1.428 . S
C586 C587 1.345 . S
C587 H579 0.950 . S
C587 C586 1.345 . S
C587 C588 1.424 . S
C588 H580 0.951 . S
C588 C587 1.424 . S
C588 C589 1.347 . S
C589 H581 0.951 . S
C589 C584 1.429 . S
C589 C588 1.347 . S
H590 C591 0.951 . S
C591 H590 0.951 . S
C591 C597 1.265 . S
H592 C597 0.950 . S
H593 C601 0.949 . S
H594 C602 0.950 . S
H595 C603 0.951 . S
H596 C604 0.951 . S
C597 C591 1.265 . S
C597 H592 0.950 . S
C597 C598 1.478 . S
C598 C597 1.478 . S
C598 C599 1.397 . S
C598 C615 1.394 . S
C599 C598 1.397 . S
C599 C600 1.438 . S
C599 C604 1.429 . S
C600 C599 1.438 . S
C600 C601 1.428 . S
C600 C613 1.394 . S
C601 H593 0.949 . S
C601 C600 1.428 . S
C601 C602 1.345 . S
C602 H594 0.950 . S
C602 C601 1.345 . S
C602 C603 1.424 . S
C603 H595 0.951 . S
C603 C602 1.424 . S
C603 C604 1.347 . S
C604 H596 0.951 . S
C604 C599 1.429 . S
C604 C603 1.347 . S
H605 C606 0.951 . S
C606 H605 0.951 . S
C606 C612 1.265 . S
H607 C612 0.950 . S
H608 C616 0.949 . S
H609 C617 0.950 . S
H610 C618 0.951 . S
H611 C619 0.951 . S
C612 C606 1.265 . S
C612 H607 0.950 . S
C612 C613 1.478 . S
C613 C600 1.394 . S
C613 C612 1.478 . S
C613 C614 1.397 . S
C614 C613 1.397 . S
C614 C615 1.438 . S
C614 C619 1.429 . S
C615 C598 1.394 . S
C615 C614 1.438 . S
C615 C616 1.428 . S
C616 H608 0.949 . S
C616 C615 1.428 . S
C616 C617 1.345 . S
C617 H609 0.950 . S
C617 C616 1.345 . S
C617 C618 1.424 . S
C618 H610 0.951 . S
C618 C617 1.424 . S
C618 C619 1.347 . S
C619 H611 0.951 . S
C619 C614 1.429 . S
C619 C618 1.347 . S
H620 C621 0.951 . S
C621 H620 0.951 . S
C621 C627 1.265 . S
H622 C627 0.950 . S
H623 C631 0.949 . S
H624 C632 0.950 . S
H625 C633 0.951 . S
H626 C634 0.951 . S
C627 C621 1.265 . S
C627 H622 0.950 . S
C627 C628 1.478 . S
C628 C627 1.478 . S
C628 C629 1.397 . S
C628 C645 1.394 . S
C629 C628 1.397 . S
C629 C630 1.438 . S
C629 C634 1.429 . S
C630 C629 1.438 . S
C630 C631 1.428 . S
C630 C643 1.394 . S
C631 H623 0.949 . S
C631 C630 1.428 . S
C631 C632 1.345 . S
C632 H624 0.950 . S
C632 C631 1.345 . S
C632 C633 1.424 . S
C633 H625 0.951 . S
C633 C632 1.424 . S
C633 C634 1.347 . S
C634 H626 0.951 . S
C634 C629 1.429 . S
C634 C633 1.347 . S
H635 C636 0.951 . S
C636 H635 0.951 . S
C636 C642 1.265 . S
H637 C642 0.950 . S
H638 C646 0.949 . S
H639 C647 0.950 . S
H640 C648 0.951 . S
H641 C649 0.951 . S
C642 C636 1.265 . S
C642 H637 0.950 . S
C642 C643 1.478 . S
C643 C630 1.394 . S
C643 C642 1.478 . S
C643 C644 1.397 . S
C644 C643 1.397 . S
C644 C645 1.438 . S
C644 C649 1.429 . S
C645 C628 1.394 . S
C645 C644 1.438 . S
C645 C646 1.428 . S
C646 H638 0.949 . S
C646 C645 1.428 . S
C646 C647 1.345 . S
C647 H639 0.950 . S
C647 C646 1.345 . S
C647 C648 1.424 . S
C648 H640 0.951 . S
C648 C647 1.424 . S
C648 C649 1.347 . S
C649 H641 0.951 . S
C649 C644 1.429 . S
C649 C648 1.347 . S
H650 C651 0.951 . S
C651 H650 0.951 . S
C651 C657 1.265 . S
H652 C657 0.950 . S
H653 C661 0.949 . S
H654 C662 0.950 . S
H655 C663 0.951 . S
H656 C664 0.951 . S
C657 C651 1.265 . S
C657 H652 0.950 . S
C657 C658 1.478 . S
C658 C657 1.478 . S
C658 C659 1.397 . S
C658 C675 1.394 . S
C659 C658 1.397 . S
C659 C660 1.438 . S
C659 C664 1.429 . S
C660 C659 1.438 . S
C660 C661 1.428 . S
C660 C673 1.394 . S
C661 H653 0.949 . S
C661 C660 1.428 . S
C661 C662 1.345 . S
C662 H654 0.950 . S
C662 C661 1.345 . S
C662 C663 1.424 . S
C663 H655 0.951 . S
C663 C662 1.424 . S
C663 C664 1.347 . S
C664 H656 0.951 . S
C664 C659 1.429 . S
C664 C663 1.347 . S
H665 C666 0.951 . S
C666 H665 0.951 . S
C666 C672 1.265 . S
H667 C672 0.950 . S
H668 C676 0.949 . S
H669 C677 0.950 . S
H670 C678 0.951 . S
H671 C679 0.951 . S
C672 C666 1.265 . S
C672 H667 0.950 . S
C672 C673 1.478 . S
C673 C660 1.394 . S
C673 C672 1.478 . S
C673 C674 1.397 . S
C674 C673 1.397 . S
C674 C675 1.438 . S
C674 C679 1.429 . S
C675 C658 1.394 . S
C675 C674 1.438 . S
C675 C676 1.428 . S
C676 H668 0.949 . S
C676 C675 1.428 . S
C676 C677 1.345 . S
C677 H669 0.950 . S
C677 C676 1.345 . S
C677 C678 1.424 . S
C678 H670 0.951 . S
C678 C677 1.424 . S
C678 C679 1.347 . S
C679 H671 0.951 . S
C679 C674 1.429 . S
C679 C678 1.347 . S
C321 C175 1.490 . S
C336 C15 1.486 . S
C351 C215 1.489 . S
C366 C55 1.489 . S
C381 C82 1.507 . S
C396 C242 1.479 . S
C411 C122 1.500 . S
C426 C282 1.476 . S
C441 C295 1.491 . S
C456 C135 1.490 . S
C471 C202 1.465 . S
C486 C42 1.500 . S
C501 C255 1.502 . S
C516 C95 1.505 . S
C531 C2 1.489 . S
C546 C162 1.454 . S
C561 C221 1.483 . S
C576 C21 1.499 . S
C591 C261 1.502 . S
C606 C61 1.476 . S
C621 C101 1.502 . S
C636 C301 1.485 . S
C651 C181 1.499 . S
C666 C141 1.475 . S
