# Generated by pormake.
# Topology son, (6)-cn, num edge types: 1
# Building blocks:
#     Node 0, Type 0, BuildingBlock: KUMJIN_clean_sbu_0, # of connection points: 6
#     Node 1, Type 0, BuildingBlock: KUMJIN_clean_sbu_0, # of connection points: 6
#     Node 2, Type 0, BuildingBlock: KUMJIN_clean_sbu_0, # of connection points: 6
#     Node 3, Type 0, BuildingBlock: KUMJIN_clean_sbu_0, # of connection points: 6
#     Node 4, Type 0, BuildingBlock: KUMJIN_clean_sbu_0, # of connection points: 6
#     Node 5, Type 0, BuildingBlock: KUMJIN_clean_sbu_0, # of connection points: 6
#     Node 6, Type 0, BuildingBlock: KUMJIN_clean_sbu_0, # of connection points: 6
#     Node 7, Type 0, BuildingBlock: KUMJIN_clean_sbu_0, # of connection points: 6
#     Node 8, Type 0, BuildingBlock: KUMJIN_clean_sbu_0, # of connection points: 6
#     Node 9, Type 0, BuildingBlock: KUMJIN_clean_sbu_0, # of connection points: 6
#     Node 10, Type 0, BuildingBlock: KUMJIN_clean_sbu_0, # of connection points: 6
#     Node 11, Type 0, BuildingBlock: KUMJIN_clean_sbu_0, # of connection points: 6
#     Node 12, Type 0, BuildingBlock: KUMJIN_clean_sbu_0, # of connection points: 6
#     Node 13, Type 0, BuildingBlock: KUMJIN_clean_sbu_0, # of connection points: 6
#     Node 14, Type 0, BuildingBlock: KUMJIN_clean_sbu_0, # of connection points: 6
#     Node 15, Type 0, BuildingBlock: KUMJIN_clean_sbu_0, # of connection points: 6
#     Node 16, Type 0, BuildingBlock: KUMJIN_clean_sbu_0, # of connection points: 6
#     Node 17, Type 0, BuildingBlock: KUMJIN_clean_sbu_0, # of connection points: 6
#     Node 18, Type 0, BuildingBlock: KUMJIN_clean_sbu_0, # of connection points: 6
#     Node 19, Type 0, BuildingBlock: KUMJIN_clean_sbu_0, # of connection points: 6
#     Node 20, Type 0, BuildingBlock: KUMJIN_clean_sbu_0, # of connection points: 6
#     Node 21, Type 0, BuildingBlock: KUMJIN_clean_sbu_0, # of connection points: 6
#     Node 22, Type 0, BuildingBlock: KUMJIN_clean_sbu_0, # of connection points: 6
#     Node 23, Type 0, BuildingBlock: KUMJIN_clean_sbu_0, # of connection points: 6
#     Node 24, Type 0, BuildingBlock: KUMJIN_clean_sbu_0, # of connection points: 6
#     Node 25, Type 0, BuildingBlock: KUMJIN_clean_sbu_0, # of connection points: 6
#     Node 26, Type 0, BuildingBlock: KUMJIN_clean_sbu_0, # of connection points: 6
#     Node 27, Type 0, BuildingBlock: KUMJIN_clean_sbu_0, # of connection points: 6
#     Node 28, Type 0, BuildingBlock: KUMJIN_clean_sbu_0, # of connection points: 6
#     Node 29, Type 0, BuildingBlock: KUMJIN_clean_sbu_0, # of connection points: 6
#     Node 30, Type 0, BuildingBlock: KUMJIN_clean_sbu_0, # of connection points: 6
#     Node 31, Type 0, BuildingBlock: KUMJIN_clean_sbu_0, # of connection points: 6
#     Edge 32, Type (0, 0), BuildingBlock: OJICUG_clean_linker_0, # of connection points: 2
#     Edge 33, Type (0, 0), BuildingBlock: OJICUG_clean_linker_0, # of connection points: 2
#     Edge 34, Type (0, 0), BuildingBlock: OJICUG_clean_linker_0, # of connection points: 2
#     Edge 35, Type (0, 0), BuildingBlock: OJICUG_clean_linker_0, # of connection points: 2
#     Edge 36, Type (0, 0), BuildingBlock: OJICUG_clean_linker_0, # of connection points: 2
#     Edge 37, Type (0, 0), BuildingBlock: OJICUG_clean_linker_0, # of connection points: 2
#     Edge 38, Type (0, 0), BuildingBlock: OJICUG_clean_linker_0, # of connection points: 2
#     Edge 39, Type (0, 0), BuildingBlock: OJICUG_clean_linker_0, # of connection points: 2
#     Edge 40, Type (0, 0), BuildingBlock: OJICUG_clean_linker_0, # of connection points: 2
#     Edge 41, Type (0, 0), BuildingBlock: OJICUG_clean_linker_0, # of connection points: 2
#     Edge 42, Type (0, 0), BuildingBlock: OJICUG_clean_linker_0, # of connection points: 2
#     Edge 43, Type (0, 0), BuildingBlock: OJICUG_clean_linker_0, # of connection points: 2
#     Edge 44, Type (0, 0), BuildingBlock: OJICUG_clean_linker_0, # of connection points: 2
#     Edge 45, Type (0, 0), BuildingBlock: OJICUG_clean_linker_0, # of connection points: 2
#     Edge 46, Type (0, 0), BuildingBlock: OJICUG_clean_linker_0, # of connection points: 2
#     Edge 47, Type (0, 0), BuildingBlock: OJICUG_clean_linker_0, # of connection points: 2
#     Edge 48, Type (0, 0), BuildingBlock: OJICUG_clean_linker_0, # of connection points: 2
#     Edge 49, Type (0, 0), BuildingBlock: OJICUG_clean_linker_0, # of connection points: 2
#     Edge 50, Type (0, 0), BuildingBlock: OJICUG_clean_linker_0, # of connection points: 2
#     Edge 51, Type (0, 0), BuildingBlock: OJICUG_clean_linker_0, # of connection points: 2
#     Edge 52, Type (0, 0), BuildingBlock: OJICUG_clean_linker_0, # of connection points: 2
#     Edge 53, Type (0, 0), BuildingBlock: OJICUG_clean_linker_0, # of connection points: 2
#     Edge 54, Type (0, 0), BuildingBlock: OJICUG_clean_linker_0, # of connection points: 2
#     Edge 55, Type (0, 0), BuildingBlock: OJICUG_clean_linker_0, # of connection points: 2
#     Edge 56, Type (0, 0), BuildingBlock: OJICUG_clean_linker_0, # of connection points: 2
#     Edge 57, Type (0, 0), BuildingBlock: OJICUG_clean_linker_0, # of connection points: 2
#     Edge 58, Type (0, 0), BuildingBlock: OJICUG_clean_linker_0, # of connection points: 2
#     Edge 59, Type (0, 0), BuildingBlock: OJICUG_clean_linker_0, # of connection points: 2
#     Edge 60, Type (0, 0), BuildingBlock: OJICUG_clean_linker_0, # of connection points: 2
#     Edge 61, Type (0, 0), BuildingBlock: OJICUG_clean_linker_0, # of connection points: 2
#     Edge 62, Type (0, 0), BuildingBlock: OJICUG_clean_linker_0, # of connection points: 2
#     Edge 63, Type (0, 0), BuildingBlock: OJICUG_clean_linker_0, # of connection points: 2
#     Edge 64, Type (0, 0), BuildingBlock: OJICUG_clean_linker_0, # of connection points: 2
#     Edge 65, Type (0, 0), BuildingBlock: OJICUG_clean_linker_0, # of connection points: 2
#     Edge 66, Type (0, 0), BuildingBlock: OJICUG_clean_linker_0, # of connection points: 2
#     Edge 67, Type (0, 0), BuildingBlock: OJICUG_clean_linker_0, # of connection points: 2
#     Edge 68, Type (0, 0), BuildingBlock: OJICUG_clean_linker_0, # of connection points: 2
#     Edge 69, Type (0, 0), BuildingBlock: OJICUG_clean_linker_0, # of connection points: 2
#     Edge 70, Type (0, 0), BuildingBlock: OJICUG_clean_linker_0, # of connection points: 2
#     Edge 71, Type (0, 0), BuildingBlock: OJICUG_clean_linker_0, # of connection points: 2
#     Edge 72, Type (0, 0), BuildingBlock: OJICUG_clean_linker_0, # of connection points: 2
#     Edge 73, Type (0, 0), BuildingBlock: OJICUG_clean_linker_0, # of connection points: 2
#     Edge 74, Type (0, 0), BuildingBlock: OJICUG_clean_linker_0, # of connection points: 2
#     Edge 75, Type (0, 0), BuildingBlock: OJICUG_clean_linker_0, # of connection points: 2
#     Edge 76, Type (0, 0), BuildingBlock: OJICUG_clean_linker_0, # of connection points: 2
#     Edge 77, Type (0, 0), BuildingBlock: OJICUG_clean_linker_0, # of connection points: 2
#     Edge 78, Type (0, 0), BuildingBlock: OJICUG_clean_linker_0, # of connection points: 2
#     Edge 79, Type (0, 0), BuildingBlock: OJICUG_clean_linker_0, # of connection points: 2
#     Edge 80, Type (0, 0), BuildingBlock: OJICUG_clean_linker_0, # of connection points: 2
#     Edge 81, Type (0, 0), BuildingBlock: OJICUG_clean_linker_0, # of connection points: 2
#     Edge 82, Type (0, 0), BuildingBlock: OJICUG_clean_linker_0, # of connection points: 2
#     Edge 83, Type (0, 0), BuildingBlock: OJICUG_clean_linker_0, # of connection points: 2
#     Edge 84, Type (0, 0), BuildingBlock: OJICUG_clean_linker_0, # of connection points: 2
#     Edge 85, Type (0, 0), BuildingBlock: OJICUG_clean_linker_0, # of connection points: 2
#     Edge 86, Type (0, 0), BuildingBlock: OJICUG_clean_linker_0, # of connection points: 2
#     Edge 87, Type (0, 0), BuildingBlock: OJICUG_clean_linker_0, # of connection points: 2
#     Edge 88, Type (0, 0), BuildingBlock: OJICUG_clean_linker_0, # of connection points: 2
#     Edge 89, Type (0, 0), BuildingBlock: OJICUG_clean_linker_0, # of connection points: 2
#     Edge 90, Type (0, 0), BuildingBlock: OJICUG_clean_linker_0, # of connection points: 2
#     Edge 91, Type (0, 0), BuildingBlock: OJICUG_clean_linker_0, # of connection points: 2
#     Edge 92, Type (0, 0), BuildingBlock: OJICUG_clean_linker_0, # of connection points: 2
#     Edge 93, Type (0, 0), BuildingBlock: OJICUG_clean_linker_0, # of connection points: 2
#     Edge 94, Type (0, 0), BuildingBlock: OJICUG_clean_linker_0, # of connection points: 2
#     Edge 95, Type (0, 0), BuildingBlock: OJICUG_clean_linker_0, # of connection points: 2
#     Edge 96, Type (0, 0), BuildingBlock: OJICUG_clean_linker_0, # of connection points: 2
#     Edge 97, Type (0, 0), BuildingBlock: OJICUG_clean_linker_0, # of connection points: 2
#     Edge 98, Type (0, 0), BuildingBlock: OJICUG_clean_linker_0, # of connection points: 2
#     Edge 99, Type (0, 0), BuildingBlock: OJICUG_clean_linker_0, # of connection points: 2
#     Edge 100, Type (0, 0), BuildingBlock: OJICUG_clean_linker_0, # of connection points: 2
#     Edge 101, Type (0, 0), BuildingBlock: OJICUG_clean_linker_0, # of connection points: 2
#     Edge 102, Type (0, 0), BuildingBlock: OJICUG_clean_linker_0, # of connection points: 2
#     Edge 103, Type (0, 0), BuildingBlock: OJICUG_clean_linker_0, # of connection points: 2
#     Edge 104, Type (0, 0), BuildingBlock: OJICUG_clean_linker_0, # of connection points: 2
#     Edge 105, Type (0, 0), BuildingBlock: OJICUG_clean_linker_0, # of connection points: 2
#     Edge 106, Type (0, 0), BuildingBlock: OJICUG_clean_linker_0, # of connection points: 2
#     Edge 107, Type (0, 0), BuildingBlock: OJICUG_clean_linker_0, # of connection points: 2
#     Edge 108, Type (0, 0), BuildingBlock: OJICUG_clean_linker_0, # of connection points: 2
#     Edge 109, Type (0, 0), BuildingBlock: OJICUG_clean_linker_0, # of connection points: 2
#     Edge 110, Type (0, 0), BuildingBlock: OJICUG_clean_linker_0, # of connection points: 2
#     Edge 111, Type (0, 0), BuildingBlock: OJICUG_clean_linker_0, # of connection points: 2
#     Edge 112, Type (0, 0), BuildingBlock: OJICUG_clean_linker_0, # of connection points: 2
#     Edge 113, Type (0, 0), BuildingBlock: OJICUG_clean_linker_0, # of connection points: 2
#     Edge 114, Type (0, 0), BuildingBlock: OJICUG_clean_linker_0, # of connection points: 2
#     Edge 115, Type (0, 0), BuildingBlock: OJICUG_clean_linker_0, # of connection points: 2
#     Edge 116, Type (0, 0), BuildingBlock: OJICUG_clean_linker_0, # of connection points: 2
#     Edge 117, Type (0, 0), BuildingBlock: OJICUG_clean_linker_0, # of connection points: 2
#     Edge 118, Type (0, 0), BuildingBlock: OJICUG_clean_linker_0, # of connection points: 2
#     Edge 119, Type (0, 0), BuildingBlock: OJICUG_clean_linker_0, # of connection points: 2
#     Edge 120, Type (0, 0), BuildingBlock: OJICUG_clean_linker_0, # of connection points: 2
#     Edge 121, Type (0, 0), BuildingBlock: OJICUG_clean_linker_0, # of connection points: 2
#     Edge 122, Type (0, 0), BuildingBlock: OJICUG_clean_linker_0, # of connection points: 2
#     Edge 123, Type (0, 0), BuildingBlock: OJICUG_clean_linker_0, # of connection points: 2
#     Edge 124, Type (0, 0), BuildingBlock: OJICUG_clean_linker_0, # of connection points: 2
#     Edge 125, Type (0, 0), BuildingBlock: OJICUG_clean_linker_0, # of connection points: 2
#     Edge 126, Type (0, 0), BuildingBlock: OJICUG_clean_linker_0, # of connection points: 2
#     Edge 127, Type (0, 0), BuildingBlock: OJICUG_clean_linker_0, # of connection points: 2
# Relax obj value: 0.057
# Max RMSD: 0.160
# Mean RMSD: 0.160
data_MOF--net-son--node1-KUMJIN_clean_sbu_0--edge1-OJICUG_clean_linker_0
_symmetry_space_group_name_H-M    P1
_symmetry_Int_Tables_number       1
_symmetry_cell_setting            triclinic
loop_
_symmetry_equiv_pos_as_xyz
'x, y, z'
_cell_length_a     58.306496
_cell_length_b     39.682354
_cell_length_c     20.454452
_cell_angle_alpha  89.982408
_cell_angle_beta   90.009026
_cell_angle_gamma 90.021706
loop_
_atom_site_label
_atom_site_type_symbol
_atom_site_fract_x
_atom_site_fract_y
_atom_site_fract_z
_atom_type_partial_charge
Eu0 Eu 0.32577 0.26492 0.15858 0.0
C1 C 0.24273 0.19498 0.28833 0.0
C2 C 0.19016 0.24772 0.28646 0.0
C3 C 0.19278 0.17195 0.33952 0.0
C4 C 0.23475 0.23433 0.26509 0.0
C5 C 0.22346 0.16523 0.32298 0.0
C6 C 0.17658 0.21079 0.32329 0.0
C7 C 0.25819 0.13123 0.32433 0.0
N8 N 0.26496 0.18869 0.28378 0.0
C9 C 0.27293 0.15764 0.30244 0.0
C10 C 0.23431 0.13474 0.33518 0.0
Eu11 Eu 0.28559 0.24141 0.26936 0.0
N12 N 0.24853 0.26471 0.23546 0.0
C13 C 0.23806 0.30201 0.21353 0.0
C14 C 0.18425 0.29046 0.25798 0.0
C15 C 0.2077 0.31601 0.22259 0.0
H16 H 0.29121 0.15301 0.30158 0.0
H17 H 0.2036 0.3414 0.20728 0.0
H18 H 0.15841 0.21157 0.33359 0.0
H19 H 0.26601 0.10735 0.33671 0.0
H20 H 0.2501 0.32088 0.19682 0.0
H21 H 0.37714 0.1529 0.23898 0.0
H22 H 0.18327 0.2655 0.27761 0.0
H23 H 0.35092 0.33445 0.08937 0.0
H24 H 0.34269 0.18276 0.21168 0.0
H25 H 0.38891 0.36027 0.08553 0.0
H26 H 0.18351 0.15017 0.3562 0.0
H27 H 0.4118 0.1855 0.26623 0.0
H28 H 0.42694 0.24308 0.29324 0.0
H29 H 0.22456 0.11376 0.3545 0.0
H30 H 0.43095 0.30156 0.25298 0.0
N31 N 0.35855 0.23022 0.19056 0.0
C32 C 0.35828 0.19642 0.20596 0.0
C33 C 0.39723 0.19802 0.24402 0.0
C34 C 0.39686 0.23286 0.23564 0.0
C35 C 0.37788 0.17954 0.22769 0.0
C36 C 0.37783 0.24801 0.20447 0.0
H37 H 0.41795 0.34372 0.16943 0.0
N38 N 0.36066 0.29566 0.15666 0.0
C39 C 0.38584 0.33903 0.11757 0.0
C40 C 0.37862 0.28167 0.18862 0.0
C41 C 0.36433 0.32348 0.11858 0.0
C42 C 0.40222 0.32948 0.16392 0.0
C43 C 0.39898 0.29994 0.19894 0.0
O44 O 0.32145 0.29619 0.07289 0.0
O45 O 0.28931 0.24735 0.16107 0.0
O46 O 0.28442 0.19809 0.19992 0.0
O47 O 0.31807 0.20862 0.14321 0.0
O48 O 0.2939 0.29162 0.11516 0.0
O49 O 0.33931 0.24645 0.06685 0.0
O50 O 0.29471 0.22187 0.36412 0.0
O51 O 0.32224 0.26043 0.26554 0.0
O52 O 0.3232 0.30993 0.23431 0.0
O53 O 0.28661 0.29919 0.27205 0.0
O54 O 0.31762 0.21362 0.30489 0.0
O55 O 0.26863 0.26018 0.35757 0.0
C56 C 0.2792 0.26739 0.12177 0.0
C57 C 0.33415 0.27763 0.9688 0.0
C58 C 0.31624 0.27802 0.86295 0.0
C59 C 0.3171 0.26573 0.92654 0.0
C60 C 0.33357 0.3009 0.84244 0.0
C61 C 0.35009 0.30169 0.94891 0.0
C62 C 0.34936 0.31369 0.88582 0.0
C63 C 0.30127 0.18811 0.16181 0.0
C64 C 0.33113 0.27305 0.03698 0.0
C65 C 0.41608 0.28673 0.23952 0.0
C66 C 0.41448 0.25325 0.25967 0.0
C67 C 0.33214 0.2378 0.29894 0.0
C68 C 0.27138 0.22533 0.45373 0.0
C69 C 0.27891 0.2371 0.5138 0.0
C70 C 0.27436 0.21911 0.571 0.0
C71 C 0.26123 0.18911 0.56621 0.0
C72 C 0.25931 0.19509 0.45043 0.0
C73 C 0.25376 0.17733 0.50625 0.0
C74 C 0.30493 0.31898 0.27063 0.0
C75 C 0.28093 0.2412 0.39596 0.0
H76 H 0.30385 0.24892 0.94445 0.0
H77 H 0.33495 0.31051 0.79333 0.0
H78 H 0.36224 0.31251 0.98293 0.0
H79 H 0.36027 0.33395 0.8704 0.0
H80 H 0.28885 0.25996 0.51447 0.0
H81 H 0.25547 0.17512 0.60806 0.0
H82 H 0.2544 0.18489 0.40525 0.0
H83 H 0.24381 0.15435 0.50296 0.0
Eu84 Eu 0.92757 0.97213 0.16147 0.0
C85 C 0.01001 0.04219 0.29161 0.0
C86 C 0.06366 0.9922 0.277 0.0
C87 C 0.06062 0.06723 0.33368 0.0
C88 C 0.01834 0.00351 0.26501 0.0
C89 C 0.02942 0.07248 0.32383 0.0
C90 C 0.07726 0.02945 0.31252 0.0
C91 C 0.99394 0.104 0.33719 0.0
N92 N 0.98748 0.04724 0.29278 0.0
C93 C 0.97931 0.07724 0.31648 0.0
C94 C 0.01814 0.10185 0.34163 0.0
Eu95 Eu 0.96746 -0.00586 0.27457 0.0
N96 N 0.00456 0.97273 0.23658 0.0
C97 C 0.01535 0.93625 0.21117 0.0
C98 C 0.06981 0.9501 0.24561 0.0
C99 C 0.04616 0.92375 0.21377 0.0
H100 H 0.96097 0.08085 0.31996 0.0
H101 H 0.05045 0.89876 0.19654 0.0
H102 H 0.09564 0.02945 0.31953 0.0
H103 H 0.98592 0.12713 0.35329 0.0
H104 H 0.00341 0.91702 0.19551 0.0
H105 H 0.87571 0.08377 0.23976 0.0
H106 H 0.07071 0.97488 0.26606 0.0
H107 H 0.90196 0.90217 0.09099 0.0
H108 H 0.91042 0.05422 0.21321 0.0
H109 H 0.86367 0.87744 0.08675 0.0
H110 H 0.06983 0.08915 0.35006 0.0
H111 H 0.84147 0.05062 0.26876 0.0
H112 H 0.82787 0.99285 0.30038 0.0
H113 H 0.02786 0.12296 0.3605 0.0
H114 H 0.82377 0.93393 0.26148 0.0
N115 N 0.89487 0.00652 0.1933 0.0
C116 C 0.89492 0.04037 0.20788 0.0
C117 C 0.85606 0.03828 0.24635 0.0
C118 C 0.85683 0.00338 0.23926 0.0
C119 C 0.87519 0.05705 0.22919 0.0
C120 C 0.87579 0.98842 0.20782 0.0
H121 H 0.83527 0.8933 0.17296 0.0
N122 N 0.89291 0.94058 0.16025 0.0
C123 C 0.86709 0.89818 0.1197 0.0
C124 C 0.8751 0.9546 0.19264 0.0
C125 C 0.88881 0.91316 0.12115 0.0
C126 C 0.85104 0.90736 0.16716 0.0
C127 C 0.85483 0.93628 0.20365 0.0
O128 O 0.9308 0.94156 0.07559 0.0
O129 O 0.96419 0.98978 0.16417 0.0
O130 O 0.96733 0.04007 0.21139 0.0
O131 O 0.9358 0.02808 0.14578 0.0
O132 O 0.95928 0.94596 0.11636 0.0
O133 O 0.91126 0.98988 0.07196 0.0
O134 O 0.95631 5e-05 0.37508 0.0
O135 O 0.93033 0.97646 0.26908 0.0
O136 O 0.92957 0.92736 0.23708 0.0
O137 O 0.96677 0.93662 0.26854 0.0
O138 O 0.93562 0.02243 0.31177 0.0
O139 O 0.98891 0.97797 0.35709 0.0
C140 C 0.97405 0.97004 0.12343 0.0
C141 C 0.91696 0.95887 0.97315 0.0
C142 C 0.93596 0.95668 0.86879 0.0
C143 C 0.93514 0.96891 0.93273 0.0
C144 C 0.91824 0.93455 0.84769 0.0
C145 C 0.89998 0.93689 0.95134 0.0
C146 C 0.90123 0.92393 0.88928 0.0
C147 C 0.95154 0.04916 0.16891 0.0
C148 C 0.91817 0.96255 0.04207 0.0
C149 C 0.83828 0.94908 0.24625 0.0
C150 C 0.83987 0.98268 0.26571 0.0
C151 C 0.92043 -0.00076 0.30258 0.0
C152 C 0.98186 0.00683 0.4586 0.0
C153 C 0.97234 -0.00275 0.51791 0.0
C154 C 0.97487 0.01695 0.5742 0.0
C155 C 0.98773 0.0472 0.56873 0.0
C156 C 0.99431 0.03671 0.4549 0.0
C157 C 0.99741 0.05676 0.50955 0.0
C158 C 0.94814 0.91766 0.27099 0.0
C159 C 0.97448 0.98795 0.40111 0.0
H160 H 0.94882 0.98462 0.95172 0.0
H161 H 0.91714 0.92415 0.79923 0.0
H162 H 0.88671 0.92773 0.9839 0.0
H163 H 0.88974 0.90446 0.87363 0.0
H164 H 0.96255 0.97444 0.51822 0.0
H165 H 0.99203 0.06284 0.60975 0.0
H166 H 0.00179 0.04457 0.41068 0.0
H167 H 0.00758 0.07953 0.50618 0.0
Eu168 Eu 0.32836 0.97341 0.09827 0.0
C169 C 0.24051 0.03869 0.98667 0.0
C170 C 0.20726 0.98119 0.99604 0.0
C171 C 0.19388 0.06556 0.94046 0.0
C172 C 0.23431 -0.00223 0.00506 0.0
C173 C 0.22221 0.06919 0.95832 0.0
C174 C 0.17943 0.02842 0.9498 0.0
C175 C 0.25578 0.10471 0.95344 0.0
N176 N 0.26301 0.04654 0.98582 0.0
C177 C 0.27059 0.07796 0.96803 0.0
C178 C 0.23219 0.10043 0.94774 0.0
Eu179 Eu 0.28762 -0.0008 0.98751 0.0
N180 N 0.25178 0.97669 0.01756 0.0
C181 C 0.24797 0.94395 0.03477 0.0
C182 C 0.20641 0.94635 0.01502 0.0
C183 C 0.22614 0.92937 0.03503 0.0
H184 H 0.28885 0.08255 0.96471 0.0
H185 H 0.22466 0.90312 0.04902 0.0
H186 H 0.16117 0.02835 0.93728 0.0
H187 H 0.26306 0.12914 0.94219 0.0
H188 H 0.26212 0.92786 0.04821 0.0
H189 H 0.37397 0.09356 0.03218 0.0
H190 H 0.19103 0.93111 0.01499 0.0
H191 H 0.35769 0.90475 0.1398 0.0
H192 H 0.34117 0.05821 0.04987 0.0
H193 H 0.39528 0.87838 0.1168 0.0
H194 H 0.1847 0.08782 0.92584 0.0
H195 H 0.41109 0.06717 0.00719 0.0
H196 H 0.431 0.01487 0.97512 0.0
H197 H 0.22174 0.12154 0.93225 0.0
H198 H 0.43352 0.95275 0.97829 0.0
N199 N 0.35953 0.01251 0.06739 0.0
C200 C 0.35743 0.04651 0.05576 0.0
C201 C 0.39696 0.05177 0.02433 0.0
C202 C 0.39839 0.01681 0.02475 0.0
C203 C 0.37619 0.06673 0.03933 0.0
C204 C 0.37958 -0.00224 0.0487 0.0
H205 H 0.42016 0.90052 0.03214 0.0
N206 N 0.3637 0.94577 0.07749 0.0
C207 C 0.38953 0.8995 0.08951 0.0
C208 C 0.38096 0.96334 0.04947 0.0
C209 C 0.36875 0.91532 0.10385 0.0
C210 C 0.40441 0.91354 0.04455 0.0
C211 C 0.40115 0.94702 0.02801 0.0
O212 O 0.32713 0.93623 0.17517 0.0
O213 O 0.29156 0.99093 0.09676 0.0
O214 O 0.28875 0.04124 0.06117 0.0
O215 O 0.32033 0.02823 0.12583 0.0
O216 O 0.29655 0.94837 0.14685 0.0
O217 O 0.34505 0.98428 0.19204 0.0
O218 O 0.29427 0.02197 0.89388 0.0
O219 O 0.32393 0.98042 0.9915 0.0
O220 O 0.32521 0.92867 0.0214 0.0
O221 O 0.29074 0.94242 0.97203 0.0
O222 O 0.31916 0.02728 0.95012 0.0
O223 O 0.26906 0.98149 0.89957 0.0
C224 C 0.2814 0.97166 0.13798 0.0
C225 C 0.33574 0.94939 0.28505 0.0
C226 C 0.31713 0.95517 0.39173 0.0
C227 C 0.31849 0.96444 0.32483 0.0
C228 C 0.33407 0.9327 0.41585 0.0
C229 C 0.34997 0.92429 0.31027 0.0
C230 C 0.34868 0.91569 0.37519 0.0
C231 C 0.30419 0.04941 0.10543 0.0
C232 C 0.33893 0.95491 0.21532 0.0
C233 C 0.41863 0.96541 0.99819 0.0
C234 C 0.41741 0.00046 0.99761 0.0
C235 C 0.33371 0.00315 0.95771 0.0
C236 C 0.27084 0.01612 0.80258 0.0
C237 C 0.27808 0.00237 0.74315 0.0
C238 C 0.27402 0.01905 0.68388 0.0
C239 C 0.26041 0.04864 0.68591 0.0
C240 C 0.25892 0.04664 0.80333 0.0
C241 C 0.25303 0.06221 0.74505 0.0
C242 C 0.30792 0.92112 0.98015 0.0
C243 C 0.28065 0.00203 0.86199 0.0
H244 H 0.30637 0.98214 0.30406 0.0
H245 H 0.33596 0.92632 0.46673 0.0
H246 H 0.36214 0.91106 0.27939 0.0
H247 H 0.35886 0.89561 0.39531 0.0
H248 H 0.28796 0.97956 0.74449 0.0
H249 H 0.25445 0.06094 0.64233 0.0
H250 H 0.25441 0.05864 0.84863 0.0
H251 H 0.24298 0.08512 0.74577 0.0
Eu252 Eu 0.92476 0.26355 0.0978 0.0
C253 C 0.01207 0.19804 0.98874 0.0
C254 C 0.04492 0.25615 0.99626 0.0
C255 C 0.05888 0.17158 0.94321 0.0
C256 C 0.018 0.23926 0.00588 0.0
C257 C 0.0306 0.16762 0.96124 0.0
C258 C 0.07305 0.20903 0.95137 0.0
C259 C 0.99725 0.13172 0.95594 0.0
N260 N 0.98962 0.18989 0.98749 0.0
C261 C 0.98228 0.15834 0.96976 0.0
C262 C 0.02083 0.13621 0.95095 0.0
Eu263 Eu 0.96487 0.23697 0.98707 0.0
N264 N 1.00041 0.26027 0.01726 0.0
C265 C 0.004 0.29319 0.03357 0.0
C266 C 0.04555 0.29118 0.01411 0.0
C267 C 0.02572 0.30806 0.03354 0.0
H268 H 0.96405 0.15356 0.96573 0.0
H269 H 0.02704 0.33443 0.04678 0.0
H270 H 0.09129 0.20932 0.93881 0.0
H271 H 0.9901 0.10723 0.94453 0.0
H272 H 0.98974 0.30917 0.04656 0.0
H273 H 0.87943 0.14369 0.02793 0.0
H274 H 0.06083 0.30662 0.01363 0.0
H275 H 0.89624 0.33282 0.1388 0.0
H276 H 0.91211 0.17901 0.04703 0.0
H277 H 0.8568 0.35493 0.12972 0.0
H278 H 0.0682 0.14938 0.92872 0.0
H279 H 0.84229 0.17015 1.00346 0.0
H280 H 0.82257 0.2226 0.97245 0.0
H281 H 0.03143 0.11519 0.93591 0.0
H282 H 0.81948 0.2847 0.97963 0.0
N283 N 0.89366 0.22448 0.06615 0.0
C284 C 0.89584 0.1906 0.05321 0.0
C285 C 0.85637 0.18543 0.02129 0.0
C286 C 0.85488 0.22037 0.02303 0.0
C287 C 0.87714 0.17044 0.03598 0.0
C288 C 0.87358 0.23928 0.04796 0.0
H289 H 0.83148 0.33507 0.04273 0.0
N290 N 0.88931 0.2911 0.07857 0.0
C291 C 0.8627 0.33567 0.09773 0.0
C292 C 0.87201 0.27364 0.05052 0.0
C293 C 0.88432 0.32125 0.10626 0.0
C294 C 0.84764 0.32248 0.0523 0.0
C295 C 0.85155 0.2899 0.03103 0.0
O296 O 0.92668 0.30135 0.17323 0.0
O297 O 0.96137 0.2451 0.09651 0.0
O298 O 0.96313 0.19491 0.06097 0.0
O299 O 0.93204 0.20872 0.12675 0.0
O300 O 0.95686 0.28808 0.14561 0.0
O301 O 0.90841 0.25387 0.19281 0.0
O302 O 0.95858 0.21267 0.8946 0.0
O303 O 0.92886 0.25697 0.9906 0.0
O304 O 0.92817 0.30851 0.0216 0.0
O305 O 0.96183 0.29356 0.96905 0.0
O306 O 0.93304 0.21016 0.94857 0.0
O307 O 0.98385 0.25328 0.89886 0.0
C308 C 0.9717 0.26432 0.13746 0.0
C309 C 0.91838 0.28999 0.28394 0.0
C310 C 0.93549 0.28303 0.39236 0.0
C311 C 0.93427 0.27325 0.3257 0.0
C312 C 0.91947 0.30753 0.41431 0.0
C313 C 0.90588 0.31759 0.30666 0.0
C314 C 0.90689 0.32666 0.37142 0.0
C315 C 0.9479 0.18719 0.10613 0.0
C316 C 0.91492 0.28336 0.21462 0.0
C317 C 0.8344 0.27189 0.99907 0.0
C318 C 0.83591 0.2369 0.99613 0.0
C319 C 0.91888 0.23478 0.95595 0.0
C320 C 0.98207 0.21785 0.80268 0.0
C321 C 0.97474 0.23177 0.7436 0.0
C322 C 0.97788 0.21486 0.68406 0.0
C323 C 0.99113 0.18491 0.68549 0.0
C324 C 0.99385 0.18724 0.80294 0.0
C325 C 0.99906 0.17145 0.7443 0.0
C326 C 0.94522 0.31559 0.97929 0.0
C327 C 0.97243 0.2321 0.86222 0.0
H328 H 0.94541 0.25377 0.30662 0.0
H329 H 0.91682 0.31358 0.46518 0.0
H330 H 0.89491 0.33204 0.2742 0.0
H331 H 0.8973 0.34804 0.38945 0.0
H332 H 0.96548 0.25501 0.7459 0.0
H333 H 0.99647 0.1722 0.64174 0.0
H334 H 0.99877 0.17538 0.84809 0.0
H335 H 0.00895 0.14839 0.74453 0.0
Eu336 Eu 0.71605 0.74655 0.74123 0.0
C337 C 0.62404 0.70676 0.81621 0.0
C338 C 0.60615 0.75631 0.77244 0.0
C339 C 0.58749 0.7022 0.76077 0.0
C340 C 0.62491 0.74069 0.80368 0.0
C341 C 0.60377 0.68863 0.80309 0.0
C342 C 0.58914 0.73623 0.74432 0.0
C343 C 0.61404 0.65235 0.89091 0.0
N344 N 0.64126 0.69269 0.85063 0.0
C345 C 0.63597 0.66661 0.89138 0.0
C346 C 0.59929 0.65988 0.83955 0.0
Eu347 Eu 0.67641 0.72292 0.85331 0.0
N348 N 0.644 0.75826 0.8207 0.0
C349 C 0.64444 0.79218 0.80672 0.0
C350 C 0.6057 0.79126 0.76681 0.0
C351 C 0.62498 0.80942 0.78498 0.0
H352 H 0.64831 0.65597 0.9244 0.0
H353 H 0.62581 0.83621 0.7752 0.0
H354 H 0.57718 0.74722 0.71043 0.0
H355 H 0.60951 0.63364 0.92707 0.0
H356 H 0.66007 0.8058 0.80249 0.0
H357 H 0.79826 0.64774 0.80702 0.0
H358 H 0.59129 0.8041 0.74449 0.0
H359 H 0.71025 0.83449 0.70586 0.0
H360 H 0.75171 0.66809 0.8162 0.0
H361 H 0.73534 0.88027 0.6704 0.0
H362 H 0.57299 0.6874 0.74422 0.0
H363 H 0.81854 0.72343 0.73596 0.0
H364 H 0.84329 0.77695 0.67845 0.0
H365 H 0.58346 0.64595 0.83334 0.0
H366 H 0.81805 0.83793 0.65297 0.0
N367 N 0.75328 0.72409 0.77718 0.0
C368 C 0.76377 0.68698 0.79984 0.0
C369 C 0.81759 0.69854 0.75591 0.0
C370 C 0.81163 0.74113 0.72688 0.0
C371 C 0.79415 0.67306 0.79135 0.0
C372 C 0.76709 0.75439 0.74764 0.0
H373 H 0.77689 0.8742 0.65423 0.0
N374 N 0.73663 0.7994 0.72631 0.0
C375 C 0.74324 0.85659 0.68397 0.0
C376 C 0.75898 0.79351 0.72341 0.0
C377 C 0.72856 0.83015 0.70612 0.0
C378 C 0.76719 0.85333 0.67421 0.0
C379 C 0.7782 0.82317 0.68825 0.0
O380 O 0.70678 0.76469 0.64519 0.0
O381 O 0.67926 0.72741 0.74546 0.0
O382 O 0.67858 0.67827 0.77756 0.0
O383 O 0.71499 0.68869 0.73861 0.0
O384 O 0.68392 0.77407 0.70507 0.0
O385 O 0.73371 0.72801 0.65379 0.0
O386 O 0.67989 0.69003 0.93592 0.0
O387 O 0.71285 0.74087 0.85029 0.0
O388 O 0.71629 0.7906 0.80911 0.0
O389 O 0.68417 0.77864 0.8722 0.0
O390 O 0.7085 0.69725 0.89817 0.0
O391 O 0.66062 0.73821 0.94548 0.0
C392 C 0.66935 0.74995 0.71138 0.0
C393 C 0.73076 0.76211 0.55645 0.0
C394 C 0.72856 0.76837 0.43872 0.0
C395 C 0.72339 0.75063 0.49595 0.0
C396 C 0.74178 0.79817 0.44405 0.0
C397 C 0.74305 0.79212 0.5601 0.0
C398 C 0.74898 0.80983 0.50442 0.0
C399 C 0.69661 0.66903 0.74085 0.0
C400 C 0.72116 0.74598 0.61424 0.0
C401 C 0.80891 0.81652 0.672 0.0
C402 C 0.82516 0.77785 0.68916 0.0
C403 C 0.72319 0.72131 0.89009 0.0
C404 C 0.6681 0.70542 0.04167 0.0
C405 C 0.68556 0.71857 0.08181 0.0
C406 C 0.68677 0.70768 0.14692 0.0
C407 C 0.66982 0.68472 0.16952 0.0
C408 C 0.65305 0.68073 0.06441 0.0
C409 C 0.65472 0.66958 0.12762 0.0
C410 C 0.70024 0.79964 0.85084 0.0
C411 C 0.66769 0.71016 0.97252 0.0
H412 H 0.71305 0.72826 0.49486 0.0
H413 H 0.74772 0.81206 0.40232 0.0
H414 H 0.74792 0.80209 0.60547 0.0
H415 H 0.75908 0.83265 0.50817 0.0
H416 H 0.69823 0.73576 0.0621 0.0
H417 H 0.66834 0.67644 0.21947 0.0
H418 H 0.64061 0.66887 0.03259 0.0
H419 H 0.64484 0.64856 0.14476 0.0
Eu420 Eu 0.03434 0.99064 0.72789 0.0
C421 C 0.12523 0.03474 0.8073 0.0
C422 C 0.14583 0.98675 0.76623 0.0
C423 C 0.1629 0.04208 0.7591 0.0
C424 C 0.126 0.00074 0.7947 0.0
C425 C 0.14528 0.05413 0.79873 0.0
C426 C 0.16253 0.00829 0.74081 0.0
C427 C 0.13317 0.08602 0.89028 0.0
N428 N 0.10706 0.04721 0.84046 0.0
C429 C 0.11111 0.07247 0.88436 0.0
C430 C 0.14863 0.08151 0.83953 0.0
Eu431 Eu 0.07388 0.0127 0.84199 0.0
N432 N 0.1077 0.98132 0.81061 0.0
C433 C 0.10899 0.94731 0.79944 0.0
C434 C 0.14789 0.95184 0.76193 0.0
C435 C 0.1294 0.93187 0.77997 0.0
H436 H 0.09816 0.08093 0.91804 0.0
H437 H 0.12996 0.90495 0.77162 0.0
H438 H 0.17527 -0.00132 0.70792 0.0
H439 H 0.1379 0.10089 0.93237 0.0
H440 H 0.09397 0.93247 0.79481 0.0
H441 H 0.95072 0.08585 0.80058 0.0
H442 H 0.16306 0.94025 0.74129 0.0
H443 H 0.04142 0.90247 0.68682 0.0
H444 H 0.99773 0.06799 0.80552 0.0
H445 H 0.01657 0.85556 0.65699 0.0
H446 H 0.17756 0.05765 0.74688 0.0
H447 H 0.93124 0.00883 0.73323 0.0
H448 H 0.90683 0.95382 0.68098 0.0
H449 H 0.16431 0.09602 0.83755 0.0
H450 H 0.93285 0.89384 0.65363 0.0
N451 N 0.99712 0.01175 0.76691 0.0
C452 C 0.986 0.04841 0.79014 0.0
C453 C 0.9319 0.03384 0.75262 0.0
C454 C 0.93841 0.99141 0.7236 0.0
C455 C 0.95521 0.06068 0.78487 0.0
C456 C 0.9836 0.98041 0.73935 0.0
H457 H 0.9747 0.85984 0.6475 0.0
N458 N 0.01485 0.93656 0.71214 0.0
C459 C 0.00851 0.87899 0.67124 0.0
C460 C 0.99223 0.94128 0.71417 0.0
C461 C 0.02308 0.90613 0.69022 0.0
C462 C 0.98437 0.88115 0.66568 0.0
C463 C 0.97305 0.91072 0.68177 0.0
O464 O 0.01175 0.99327 0.6458 0.0
O465 O 0.07148 0.00642 0.73436 0.0
O466 O 0.07144 0.05742 0.76753 0.0
O467 O 0.0341 0.04783 0.7378 0.0
O468 O 0.06546 0.96077 0.68978 0.0
O469 O 0.0466 0.00311 0.62717 0.0
O470 O 0.07002 0.04062 0.93082 0.0
O471 O 0.03725 -0.0052 0.83855 0.0
O472 O 0.036 0.94428 0.78912 0.0
O473 O 0.06651 0.95672 0.85777 0.0
O474 O 0.04197 0.03855 0.88683 0.0
O475 O 0.09155 -0.00582 0.92905 0.0
C476 C 0.08106 0.98319 0.70101 0.0
C477 C 0.02548 0.97346 0.54588 0.0
C478 C 0.03037 0.96455 0.42886 0.0
C479 C 0.0339 0.98375 0.48563 0.0
C480 C 0.01896 0.93311 0.43571 0.0
C481 C 0.01328 0.94317 0.5498 0.0
C482 C 0.0107 0.92259 0.49583 0.0
C483 C 0.05273 0.06676 0.73425 0.0
C484 C 0.02687 -0.00303 0.6014 0.0
C485 C 0.94196 0.91593 0.66977 0.0
C486 C 0.92516 0.95387 0.6886 0.0
C487 C 0.02724 0.01441 0.87935 0.0
C488 C 0.08523 0.02243 0.03086 0.0
C489 C 0.06629 0.01477 0.07036 0.0
C490 C 0.0655 0.02756 0.13384 0.0
C491 C 0.08388 0.04841 0.15514 0.0
C492 C 0.10339 0.04192 0.05368 0.0
C493 C 0.10221 0.05566 0.11519 0.0
C494 C 0.05128 0.93553 0.833 0.0
C495 C 0.08362 0.01996 0.96183 0.0
H496 H 0.04219 0.00775 0.48435 0.0
H497 H 0.01436 0.91709 0.39545 0.0
H498 H 0.00425 0.93633 0.59275 0.0
H499 H 1.00101 0.89939 0.49982 0.0
H500 H 0.05202 0.00042 0.05082 0.0
H501 H 0.08476 0.05982 0.20277 0.0
H502 H 0.11747 0.04902 0.02188 0.0
H503 H 0.11486 0.07326 0.13149 0.0
Eu504 Eu 0.71481 0.98798 0.02227 0.0
C505 C 0.62331 0.03211 0.95033 0.0
C506 C 0.60484 0.9827 0.99253 0.0
C507 C 0.58674 0.03708 0.00558 0.0
C508 C 0.62376 -0.00189 0.96177 0.0
C509 C 0.60315 0.05052 0.96349 0.0
C510 C 0.58814 0.00297 0.02145 0.0
C511 C 0.61338 0.08591 0.8744 0.0
N512 N 0.64053 0.04575 0.91523 0.0
C513 C 0.63524 0.07151 0.87385 0.0
C514 C 0.59869 0.07899 0.92624 0.0
Eu515 Eu 0.67532 0.01475 0.91087 0.0
N516 N 0.64248 0.98017 0.94322 0.0
C517 C 0.64235 0.94602 0.95492 0.0
C518 C 0.60383 0.9477 0.99627 0.0
C519 C 0.62269 0.92914 0.97622 0.0
H520 H 0.6474 0.0813 0.83946 0.0
H521 H 0.62308 0.90218 0.98435 0.0
H522 H 0.57614 0.99202 0.05509 0.0
H523 H 0.60866 0.10377 0.83691 0.0
H524 H 0.65778 0.93189 0.95814 0.0
H525 H 0.77716 0.08571 0.96495 0.0
H526 H 0.58931 0.93503 0.01837 0.0
H527 H 0.71416 0.90448 0.04312 0.0
H528 H 0.73986 0.06052 0.9649 0.0
H529 H 0.74024 0.85794 0.06256 0.0
H530 H 0.57222 0.05191 0.02188 0.0
H531 H 0.81097 0.0577 0.9973 0.0
H532 H 0.84152 0.95976 0.06911 0.0
H533 H 0.58279 0.09282 0.93165 0.0
H534 H 0.81836 0.89973 0.07696 0.0
N535 N 0.75048 0.01145 0.99331 0.0
C536 C 0.75409 0.04445 0.9776 0.0
C537 C 0.79568 0.04228 0.99667 0.0
C538 C 0.79504 0.00718 0.01381 0.0
C539 C 0.77583 0.05928 0.97774 0.0
C540 C 0.76808 0.99037 1.00418 0.0
H541 H 0.78158 0.86582 0.07071 0.0
N542 N 0.73971 0.94095 0.02187 0.0
C543 C 0.74736 0.88253 0.0518 0.0
C544 C 0.76217 0.94908 0.0204 0.0
C545 C 0.73237 0.90929 0.03903 0.0
C546 C 0.77095 0.88697 0.05643 0.0
C547 C 0.78072 0.91845 0.04678 0.0
O548 O 0.70851 0.96361 0.11449 0.0
O549 O 0.67848 0.00718 0.01889 0.0
O550 O 0.67795 0.05982 0.98638 0.0
O551 O 0.71136 0.04443 0.03997 0.0
O552 O 0.68327 0.95991 0.05908 0.0
O553 O 0.73359 0.00451 0.11045 0.0
O554 O 0.67943 0.04813 0.82868 0.0
O555 O 0.71172 -0.00422 0.91278 0.0
O556 O 0.71361 0.9465 0.94835 0.0
O557 O 0.68132 0.9591 0.88729 0.0
O558 O 0.7078 0.03992 0.86666 0.0
O559 O 0.65973 0.00049 0.81766 0.0
C560 C 0.6688 0.98422 0.05279 0.0
C561 C 0.73207 0.96878 0.20564 0.0
C562 C 0.7289 0.96549 0.32394 0.0
C563 C 0.72466 0.98219 0.26496 0.0
C564 C 0.74265 0.93604 0.32173 0.0
C565 C 0.7442 0.93845 0.20438 0.0
C566 C 0.75014 0.92272 0.26248 0.0
C567 C 0.6948 0.0665 0.02952 0.0
C568 C 0.72221 0.9832 0.14692 0.0
C569 C 0.80902 0.92219 0.06438 0.0
C570 C 0.82323 0.95966 0.0571 0.0
C571 C 0.72225 0.0154 0.87304 0.0
C572 C 0.66812 0.03317 0.72145 0.0
C573 C 0.68523 0.01937 0.68059 0.0
C574 C 0.68588 0.02931 0.6146 0.0
C575 C 0.66874 0.05192 0.59205 0.0
C576 C 0.65304 0.05771 0.69839 0.0
C577 C 0.65408 0.06779 0.63436 0.0
C578 C 0.69738 0.93787 0.90709 0.0
C579 C 0.66748 0.02823 0.79094 0.0
H580 H 0.71436 0.00469 0.26357 0.0
H581 H 0.74865 0.92368 0.3652 0.0
H582 H 0.74887 0.92675 0.15891 0.0
H583 H 0.76033 0.89994 0.26152 0.0
H584 H 0.69798 0.00227 0.7002 0.0
H585 H 0.66674 0.05915 0.54158 0.0
H586 H 0.64082 0.06999 0.73032 0.0
H587 H 0.64385 0.08836 0.61685 0.0
Eu588 Eu 0.03613 0.74761 0.02293 0.0
C589 C 0.12922 0.71414 0.95691 0.0
C590 C 0.14601 0.76789 0.98321 0.0
C591 C 0.16705 0.71674 0.00671 0.0
C592 C 0.12733 0.74855 0.9593 0.0
C593 C 0.14985 0.69827 0.97596 0.0
C594 C 0.1654 0.75176 0.00887 0.0
C595 C 0.13881 0.65196 0.91024 0.0
N596 N 0.11197 0.69622 0.92967 0.0
C597 C 0.11724 0.66637 0.90114 0.0
C598 C 0.15382 0.6655 0.95554 0.0
Eu599 Eu 0.07634 0.72316 0.91131 0.0
N600 N 0.10699 0.76294 0.94208 0.0
C601 C 0.10444 0.79677 0.95468 0.0
C602 C 0.14403 0.8028 0.98542 0.0
C603 C 0.12298 0.81731 0.97167 0.0
H604 H 0.10563 0.6551 0.86724 0.0
H605 H 0.12045 0.84401 0.97971 0.0
H606 H 0.17895 0.76628 0.03132 0.0
H607 H 0.14463 0.63243 0.87878 0.0
H608 H 0.08803 0.80817 0.95972 0.0
H609 H 0.9526 0.65123 0.95744 0.0
H610 H 0.15802 0.81842 1.00278 0.0
H611 H 0.04298 0.83592 0.05587 0.0
H612 H 0.99931 0.67043 0.94747 0.0
H613 H 0.01848 0.88212 0.09276 0.0
H614 H 0.18203 0.70413 0.0261 0.0
H615 H 0.93339 0.72697 0.03054 0.0
H616 H 0.90933 0.78093 0.08899 0.0
H617 H 0.16997 0.65302 0.9657 0.0
H618 H 0.93506 0.84036 0.11808 0.0
N619 N 0.99858 0.72618 0.98821 0.0
C620 C 0.98756 0.6895 0.9649 0.0
C621 C 0.934 0.70219 0.01002 0.0
C622 C 0.94053 0.74442 0.03996 0.0
C623 C 0.95705 0.67634 0.97364 0.0
C624 C 0.98524 0.75663 0.01889 0.0
H625 H 0.9771 0.87655 0.1131 0.0
N626 N 0.01622 0.80098 0.03882 0.0
C627 C 0.01034 0.8584 0.08073 0.0
C628 C 0.99389 0.79541 0.04379 0.0
C629 C 0.02466 0.83174 0.05756 0.0
C630 C 0.98647 0.85544 0.09293 0.0
C631 C 0.97509 0.82544 0.08002 0.0
O632 O 0.046 0.76556 0.11864 0.0
O633 O 0.07261 0.72745 0.0181 0.0
O634 O 0.07277 0.67861 0.98754 0.0
O635 O 0.03628 0.68977 0.0255 0.0
O636 O 0.0688 0.77418 0.05833 0.0
O637 O 0.01886 0.72918 0.11152 0.0
O638 O 0.07541 0.68706 0.83286 0.0
O639 O 0.03972 0.7398 0.91423 0.0
O640 O 0.03544 0.79129 0.95317 0.0
O641 O 0.06639 0.77764 0.886 0.0
O642 O 0.04488 0.69734 0.86353 0.0
O643 O 0.09373 0.73516 0.81942 0.0
C644 C 0.08294 0.74954 0.05177 0.0
C645 C 0.02274 0.76317 0.20924 0.0
C646 C 0.0252 0.76895 0.32754 0.0
C647 C 0.02997 0.75119 0.26982 0.0
C648 C 0.01251 0.7993 0.32241 0.0
C649 C 0.01102 0.79369 0.20614 0.0
C650 C 0.00552 0.81143 0.26213 0.0
C651 C 0.0544 0.66961 0.02334 0.0
C652 C 0.0318 0.74692 0.15053 0.0
C653 C 0.94419 0.8194 0.09659 0.0
C654 C 0.92747 0.78133 0.07825 0.0
C655 C 0.02961 0.72035 0.87358 0.0
C656 C 0.08556 0.70123 0.72531 0.0
C657 C 0.06801 0.7157 0.68635 0.0
C658 C 0.06641 0.70622 0.62001 0.0
C659 C 0.08341 0.68392 0.5953 0.0
C660 C 0.10039 0.677 0.69979 0.0
C661 C 0.09886 0.66804 0.63516 0.0
C662 C 0.05032 0.79892 0.90689 0.0
C663 C 0.08795 0.70595 0.7949 0.0
H664 H 0.03964 0.72825 0.27069 0.0
H665 H 0.00675 0.81338 0.36421 0.0
H666 H 0.00629 0.80406 0.16086 0.0
H667 H 0.99585 0.83466 0.2587 0.0
H668 H 0.05575 0.73304 0.70752 0.0
H669 H 0.08476 0.67673 0.54481 0.0
H670 H 0.11293 0.66437 0.73041 0.0
H671 H 0.10926 0.64827 0.61488 0.0
Eu672 Eu 0.32663 0.76254 0.65792 0.0
C673 C 0.24402 0.69182 0.7904 0.0
C674 C 0.19074 0.7429 0.78749 0.0
C675 C 0.19442 0.66764 0.84269 0.0
C676 C 0.23543 0.73075 0.7661 0.0
C677 C 0.22522 0.6617 0.82604 0.0
C678 C 0.17768 0.70585 0.82525 0.0
C679 C 0.26026 0.62835 0.82516 0.0
N680 N 0.26629 0.68606 0.78494 0.0
C681 C 0.27464 0.65508 0.80268 0.0
C682 C 0.23644 0.63145 0.83774 0.0
Eu683 Eu 0.28621 0.73938 0.76978 0.0
N684 N 0.24876 0.76131 0.73566 0.0
C685 C 0.23777 0.7981 0.71295 0.0
C686 C 0.1842 0.78525 0.75809 0.0
C687 C 0.20725 0.81125 0.72193 0.0
H688 H 0.29294 0.65074 0.80046 0.0
H689 H 0.20279 0.83641 0.70604 0.0
H690 H 0.15952 0.70626 0.83553 0.0
H691 H 0.26829 0.60443 0.83632 0.0
H692 H 0.24955 0.81721 0.69584 0.0
H693 H 0.37155 0.64306 0.72957 0.0
H694 H 0.18359 0.7604 0.77829 0.0
H695 H 0.35713 0.82962 0.60577 0.0
H696 H 0.33889 0.67877 0.71049 0.0
H697 H 0.3951 0.85325 0.62177 0.0
H698 H 0.18542 0.64605 0.86174 0.0
H699 H 0.40886 0.66946 0.75291 0.0
H700 H 0.42911 0.72227 0.782 0.0
H701 H 0.22699 0.61023 0.85724 0.0
H702 H 0.43174 0.78436 0.77509 0.0
N703 N 0.35762 0.72362 0.68954 0.0
C704 C 0.35528 0.68991 0.70322 0.0
C705 C 0.39482 0.68472 0.73484 0.0
C706 C 0.39643 0.71968 0.73251 0.0
C707 C 0.37394 0.66973 0.72068 0.0
C708 C 0.37771 0.7385 0.70745 0.0
H709 H 0.41888 0.8354 0.71567 0.0
N710 N 0.36226 0.78999 0.67405 0.0
C711 C 0.3891 0.83417 0.65417 0.0
C712 C 0.37924 0.77288 0.70435 0.0
C713 C 0.36798 0.81893 0.64259 0.0
C714 C 0.40322 0.82213 0.70341 0.0
C715 C 0.3995 0.78939 0.72453 0.0
O716 O 0.32533 0.79868 0.57972 0.0
O717 O 0.28998 0.74618 0.66128 0.0
O718 O 0.28486 0.69626 0.6993 0.0
O719 O 0.31714 0.70725 0.63555 0.0
O720 O 0.295 0.78833 0.61029 0.0
O721 O 0.3431 0.75018 0.56474 0.0
O722 O 0.29551 0.72037 0.86498 0.0
O723 O 0.32288 0.75838 0.76491 0.0
O724 O 0.32386 0.80723 0.73431 0.0
O725 O 0.28732 0.79724 0.77311 0.0
O726 O 0.31835 0.71177 0.80535 0.0
O727 O 0.26916 0.75811 0.85835 0.0
C728 C 0.27966 0.76554 0.62113 0.0
C729 C 0.33498 0.78506 0.47153 0.0
C730 C 0.31603 0.7806 0.36604 0.0
C731 C 0.31753 0.77075 0.43213 0.0
C732 C 0.33295 0.80318 0.34189 0.0
C733 C 0.34958 0.80986 0.44689 0.0
C734 C 0.34812 0.81921 0.38241 0.0
C735 C 0.30048 0.68687 0.65642 0.0
C736 C 0.33737 0.77958 0.54087 0.0
C737 C 0.4168 0.77144 0.75615 0.0
C738 C 0.4155 0.73637 0.75882 0.0
C739 C 0.33286 0.73592 0.7986 0.0
C740 C 0.27228 0.72356 0.95553 0.0
C741 C 0.27923 0.7359 0.01605 0.0
C742 C 0.2744 0.71825 0.07381 0.0
C743 C 0.26169 0.68791 0.06893 0.0
C744 C 0.26078 0.69282 0.95256 0.0
C745 C 0.255 0.6754 0.0087 0.0
C746 C 0.30576 0.81682 0.77065 0.0
C747 C 0.28166 0.73951 0.89703 0.0
H748 H 0.30527 0.75327 0.45278 0.0
H749 H 0.3344 0.81045 0.2914 0.0
H750 H 0.36196 0.8225 0.47804 0.0
H751 H 0.3585 0.83919 0.36269 0.0
H752 H 0.28891 0.75888 0.0168 0.0
H753 H 0.25582 0.67404 0.11087 0.0
H754 H 0.25657 0.68192 0.90731 0.0
H755 H 0.24547 0.65204 0.00542 0.0
Eu756 Eu 0.92744 0.47344 0.6574 0.0
C757 C 0.00844 0.54488 0.7903 0.0
C758 C 0.06168 0.49372 0.78575 0.0
C759 C 0.05826 0.56896 0.84092 0.0
C760 C 0.01691 0.50591 0.76575 0.0
C761 C 0.02742 0.57496 0.82531 0.0
C762 C 0.0749 0.53074 0.82304 0.0
C763 C 0.9924 0.60833 0.82624 0.0
N764 N 0.98612 0.55064 0.78606 0.0
C765 C 0.97788 0.58159 0.80452 0.0
C766 C 0.01629 0.60522 0.83757 0.0
Eu767 Eu 0.96606 0.49735 0.77068 0.0
N768 N 0.00344 0.47535 0.73588 0.0
C769 C 0.01433 0.43856 0.71281 0.0
C770 C 0.06808 0.45136 0.7562 0.0
C771 C 0.04488 0.42539 0.72082 0.0
H772 H 0.95957 0.58593 0.80338 0.0
H773 H 0.04925 0.40022 0.70487 0.0
H774 H 0.0931 0.5303 0.83278 0.0
H775 H 0.98444 0.63223 0.8379 0.0
H776 H 0.00248 0.41946 0.69611 0.0
H777 H 0.87402 0.58263 0.73766 0.0
H778 H 0.06878 0.47621 0.77635 0.0
H779 H 0.90562 0.39935 0.59636 0.0
H780 H 0.90913 0.55422 0.71013 0.0
H781 H 0.86788 0.37233 0.58866 0.0
H782 H 0.06735 0.59058 0.85953 0.0
H783 H 0.84034 0.54812 0.76584 0.0
H784 H 0.82763 0.48937 0.79502 0.0
H785 H 0.02587 0.62641 0.8567 0.0
H786 H 0.82372 0.4314 0.75101 0.0
N787 N 0.89422 0.50646 0.68843 0.0
C788 C 0.89378 0.54018 0.7038 0.0
C789 C 0.85504 0.53648 0.74261 0.0
C790 C 0.85622 0.5017 0.73369 0.0
C791 C 0.87385 0.55603 0.72588 0.0
C792 C 0.87539 0.48762 0.70174 0.0
H793 H 0.83666 0.39146 0.66362 0.0
N794 N 0.8939 0.43985 0.65706 0.0
C795 C 0.87009 0.39459 0.61859 0.0
C796 C 0.87531 0.45377 0.68602 0.0
C797 C 0.89145 0.41054 0.62229 0.0
C798 C 0.85249 0.40542 0.65984 0.0
C799 C 0.8552 0.43493 0.6952 0.0
O800 O 0.93089 0.44316 0.5712 0.0
O801 O 0.96361 0.49194 0.66115 0.0
O802 O 0.96723 0.5409 0.7025 0.0
O803 O 0.93458 0.53003 0.64148 0.0
O804 O 0.95969 0.44769 0.61434 0.0
O805 O 0.91086 0.49083 0.5678 0.0
O806 O 0.95666 0.51611 0.86612 0.0
O807 O 0.92944 0.47778 0.76547 0.0
O808 O 0.92944 0.42859 0.73283 0.0
O809 O 0.96549 0.43957 0.77383 0.0
O810 O 0.93364 0.52456 0.80544 0.0
O811 O 0.98351 0.47914 0.85861 0.0
C812 C 0.9741 0.47214 0.62224 0.0
C813 C 0.91751 0.4605 0.46852 0.0
C814 C 0.93685 0.46001 0.36431 0.0
C815 C 0.93598 0.47097 0.42925 0.0
C816 C 0.91881 0.4391 0.341 0.0
C817 C 0.90053 0.43907 0.44475 0.0
C818 C 0.9017 0.42773 0.38147 0.0
C819 C 0.95081 0.55077 0.663 0.0
C820 C 0.9179 0.46362 0.53781 0.0
C821 C 0.83813 0.44705 0.73692 0.0
C822 C 0.83952 0.48021 0.75901 0.0
C823 C 0.91927 0.50022 0.79906 0.0
C824 C 0.98058 0.5136 0.95526 0.0
C825 C 0.97367 0.50158 0.01581 0.0
C826 C 0.97922 0.51898 0.07308 0.0
C827 C 0.99254 0.54874 0.06787 0.0
C828 C 0.99255 0.5439 0.95172 0.0
C829 C 0.99905 0.56108 0.00744 0.0
C830 C 0.94732 0.41958 0.77039 0.0
C831 C 0.97096 0.49744 0.89758 0.0
H832 H 0.94977 0.48598 0.4497 0.0
H833 H 0.9177 0.42996 0.29162 0.0
H834 H 0.88723 0.42925 0.47657 0.0
H835 H 0.89009 0.40889 0.36374 0.0
H836 H 0.96339 0.47911 0.01692 0.0
H837 H 0.99897 0.56222 0.10962 0.0
H838 H 0.99672 0.55459 0.90649 0.0
H839 H 0.00902 0.58403 1.0037 0.0
Eu840 Eu 0.32636 0.47308 0.60024 0.0
C841 C 0.24363 0.54505 0.46962 0.0
C842 C 0.19023 0.49419 0.47205 0.0
C843 C 0.19411 0.56957 0.41759 0.0
C844 C 0.23495 0.5061 0.49357 0.0
C845 C 0.22492 0.57532 0.43426 0.0
C846 C 0.17728 0.53139 0.43466 0.0
C847 C 0.26016 0.60826 0.43419 0.0
N848 N 0.2659 0.5507 0.47516 0.0
C849 C 0.2744 0.58151 0.45712 0.0
C850 C 0.23629 0.60543 0.42215 0.0
Eu851 Eu 0.28557 0.49731 0.48968 0.0
N852 N 0.24819 0.47542 0.52382 0.0
C853 C 0.23712 0.43861 0.54617 0.0
C854 C 0.18359 0.45179 0.50105 0.0
C855 C 0.20657 0.42561 0.53701 0.0
H856 H 0.29273 0.58563 0.45907 0.0
H857 H 0.20206 0.40042 0.55263 0.0
H858 H 0.15911 0.53107 0.42447 0.0
H859 H 0.2684 0.63185 0.42196 0.0
H860 H 0.24883 0.4194 0.56326 0.0
H861 H 0.36784 0.59633 0.53434 0.0
H862 H 0.18304 0.4767 0.48108 0.0
H863 H 0.35433 0.4013 0.61921 0.0
H864 H 0.33633 0.55834 0.55178 0.0
H865 H 0.39513 0.38013 0.60401 0.0
H866 H 0.1852 0.59127 0.39876 0.0
H867 H 0.40606 0.57301 0.51143 0.0
H868 H 0.42813 0.52239 0.48021 0.0
H869 H 0.22694 0.62666 0.40233 0.0
H870 H 0.43169 0.46043 0.47801 0.0
N871 N 0.35637 0.51442 0.57072 0.0
C872 C 0.35302 0.54808 0.55817 0.0
C873 C 0.39248 0.55654 0.52843 0.0
C874 C 0.39524 0.52179 0.52936 0.0
C875 C 0.37105 0.56976 0.54211 0.0
C876 C 0.37702 0.50128 0.55283 0.0
H877 H 0.42038 0.40716 0.52977 0.0
N878 N 0.36219 0.44768 0.57561 0.0
C879 C 0.38877 0.402 0.5811 0.0
C880 C 0.37941 0.46702 0.55192 0.0
C881 C 0.36701 0.41555 0.59352 0.0
C882 C 0.40411 0.41883 0.54199 0.0
C883 C 0.40002 0.45239 0.52924 0.0
O884 O 0.32763 0.4344 0.67408 0.0
O885 O 0.28956 0.48886 0.59773 0.0
O886 O 0.28418 0.53998 0.56147 0.0
O887 O 0.31576 0.5275 0.62733 0.0
O888 O 0.29518 0.44678 0.6488 0.0
O889 O 0.34255 0.48407 0.69469 0.0
O890 O 0.2949 0.51667 0.39461 0.0
O891 O 0.32218 0.47811 0.49375 0.0
O892 O 0.32276 0.42916 0.52222 0.0
O893 O 0.28608 0.43962 0.48536 0.0
O894 O 0.31776 0.5251 0.45504 0.0
O895 O 0.26851 0.47896 0.40072 0.0
C896 C 0.27965 0.46935 0.63855 0.0
C897 C 0.33415 0.44685 0.78475 0.0
C898 C 0.31625 0.45371 0.89201 0.0
C899 C 0.31787 0.46345 0.82544 0.0
C900 C 0.33243 0.42979 0.91522 0.0
C901 C 0.34687 0.41972 0.8086 0.0
C902 C 0.34565 0.41107 0.8735 0.0
C903 C 0.29909 0.5482 0.60734 0.0
C904 C 0.33827 0.4536 0.71579 0.0
C905 C 0.41689 0.47213 0.50032 0.0
C906 C 0.41484 0.50701 0.50195 0.0
C907 C 0.33219 0.50082 0.46089 0.0
C908 C 0.27174 0.51373 0.30355 0.0
C909 C 0.27854 0.501 0.24321 0.0
C910 C 0.27466 0.51888 0.18503 0.0
C911 C 0.26243 0.54967 0.18943 0.0
C912 C 0.2606 0.54473 0.306 0.0
C913 C 0.25541 0.56226 0.24943 0.0
C914 C 0.30442 0.41993 0.48646 0.0
C915 C 0.281 0.49772 0.36231 0.0
H916 H 0.30676 0.48279 0.80568 0.0
H917 H 0.33464 0.42363 0.96617 0.0
H918 H 0.3582 0.40542 0.77694 0.0
H919 H 0.35532 0.39017 0.89281 0.0
H920 H 0.28728 0.47735 0.24321 0.0
H921 H 0.25712 0.56385 0.14732 0.0
H922 H 0.25615 0.55563 0.3512 0.0
H923 H 0.24615 0.58586 0.25223 0.0
Eu924 Eu 0.92631 0.76432 0.60055 0.0
C925 C 0.00841 0.69218 0.47002 0.0
C926 C 0.06191 0.74284 0.47354 0.0
C927 C 0.05803 0.6675 0.41902 0.0
C928 C 0.01712 0.73109 0.49419 0.0
C929 C 0.02717 0.66186 0.43501 0.0
C930 C 0.07488 0.70562 0.43638 0.0
C931 C 0.99184 0.62915 0.43324 0.0
N932 N 0.98608 0.68669 0.4745 0.0
C933 C 0.97757 0.65599 0.45565 0.0
C934 C 0.01577 0.63186 0.42219 0.0
Eu935 Eu 0.96643 0.74014 0.48924 0.0
N936 N 0.00385 0.76182 0.52403 0.0
C937 C 0.01494 0.79858 0.54661 0.0
C938 C 0.06855 0.78521 0.50263 0.0
C939 C 0.04552 0.81146 0.53808 0.0
H940 H 0.95921 0.65201 0.45671 0.0
H941 H 0.05003 0.83664 0.55374 0.0
H942 H 0.09307 0.7059 0.42651 0.0
H943 H 0.98365 0.60553 0.42078 0.0
H944 H 0.00321 0.81783 0.56329 0.0
H945 H 0.8837 0.64226 0.53114 0.0
H946 H 0.06911 0.76031 0.48269 0.0
H947 H 0.89619 0.83202 0.64289 0.0
H948 H 0.91553 0.67891 0.55199 0.0
H949 H 0.85646 0.85284 0.63327 0.0
H950 H 0.06694 0.64575 0.40049 0.0
H951 H 0.84591 0.66685 0.50716 0.0
H952 H 0.82442 0.71845 0.47838 0.0
H953 H 0.02516 0.61063 0.40254 0.0
H954 H 0.82065 0.78051 0.48357 0.0
N955 N 0.89604 0.72361 0.56994 0.0
C956 C 0.89901 0.68987 0.55703 0.0
C957 C 0.85963 0.68281 0.52508 0.0
C958 C 0.85721 0.71763 0.52755 0.0
C959 C 0.8808 0.66886 0.53936 0.0
C960 C 0.87556 0.73742 0.55226 0.0
H961 H 0.83155 0.83148 0.54617 0.0
N962 N 0.89018 0.79007 0.58238 0.0
C963 C 0.86263 0.83343 0.6018 0.0
C964 C 0.87321 0.77172 0.55485 0.0
C965 C 0.88453 0.81993 0.6103 0.0
C966 C 0.84787 0.81952 0.55632 0.0
C967 C 0.85243 0.78702 0.53541 0.0
O968 O 0.92719 0.80184 0.67629 0.0
O969 O 0.96301 0.74788 0.59777 0.0
O970 O 0.96731 0.69681 0.5598 0.0
O971 O 0.93632 0.70999 0.62713 0.0
O972 O 0.95773 0.79028 0.64836 0.0
O973 O 0.90983 0.75341 0.69451 0.0
O974 O 0.95672 0.72182 0.39354 0.0
O975 O 0.92993 0.76015 0.49355 0.0
O976 O 0.9298 0.80867 0.52363 0.0
O977 O 0.9664 0.79786 0.48658 0.0
O978 O 0.93391 0.71329 0.45405 0.0
O979 O 0.98399 0.75798 0.40083 0.0
C980 C 0.97304 0.76735 0.63849 0.0
C981 C 0.91869 0.78941 0.78571 0.0
C982 C 0.93655 0.78287 0.89255 0.0
C983 C 0.93507 0.77317 0.82621 0.0
C984 C 0.9202 0.80659 0.91585 0.0
C985 C 0.9056 0.81619 0.80931 0.0
C986 C 0.90672 0.82499 0.87413 0.0
C987 C 0.95256 0.68894 0.6063 0.0
C988 C 0.91545 0.78321 0.71667 0.0
C989 C 0.83564 0.76822 0.50366 0.0
C990 C 0.83773 0.73327 0.50132 0.0
C991 C 0.91969 0.73785 0.46013 0.0
C992 C 0.98033 0.72365 0.30342 0.0
C993 C 0.97333 0.73581 0.2429 0.0
C994 C 0.97767 0.71792 0.18507 0.0
C995 C 0.99012 0.68737 0.19005 0.0
C996 C 0.99184 0.69297 0.30649 0.0
C997 C 0.99719 0.6752 0.25033 0.0
C998 C 0.94824 0.81789 0.4883 0.0
C999 C 0.97117 0.7401 0.3618 0.0
H1000 H 0.94644 0.7542 0.80634 0.0
H1001 H 0.91808 0.81288 0.96674 0.0
H1002 H 0.89419 0.83024 0.77743 0.0
H1003 H 0.89674 0.84572 0.89312 0.0
H1004 H 0.96432 0.75922 0.24233 0.0
H1005 H 0.9956 0.67315 0.14818 0.0
H1006 H 0.99653 0.68254 0.35182 0.0
H1007 H 0.0067 0.65183 0.25364 0.0
Eu1008 Eu 0.71747 0.2465 0.24129 0.0
C1009 C 0.62387 0.20739 0.31756 0.0
C1010 C 0.6058 0.25677 0.27337 0.0
C1011 C 0.58638 0.20302 0.26649 0.0
C1012 C 0.62474 0.24114 0.30413 0.0
C1013 C 0.60346 0.18922 0.30612 0.0
C1014 C 0.588 0.23684 0.24861 0.0
C1015 C 0.61521 0.15205 0.39104 0.0
N1016 N 0.64151 0.19339 0.3505 0.0
C1017 C 0.637 0.16679 0.39036 0.0
C1018 C 0.59981 0.15985 0.34136 0.0
Eu1019 Eu 0.67676 0.2231 0.35222 0.0
N1020 N 0.64405 0.25853 0.31989 0.0
C1021 C 0.64457 0.29239 0.30501 0.0
C1022 C 0.60571 0.2916 0.26575 0.0
C1023 C 0.62518 0.30962 0.2827 0.0
H1024 H 0.65 0.15621 0.42129 0.0
H1025 H 0.62615 0.33631 0.272 0.0
H1026 H 0.57549 0.24758 0.21591 0.0
H1027 H 0.61121 0.13282 0.4267 0.0
H1028 H 0.6602 0.30601 0.30048 0.0
H1029 H 0.79935 0.14701 0.30654 0.0
H1030 H 0.59127 0.30448 0.24366 0.0
H1031 H 0.71186 0.3342 0.20549 0.0
H1032 H 0.75286 0.16772 0.31603 0.0
H1033 H 0.73698 0.37973 0.16941 0.0
H1034 H 0.5714 0.1885 0.25268 0.0
H1035 H 0.81984 0.22261 0.23553 0.0
H1036 H 0.84471 0.27607 0.17771 0.0
H1037 H 0.58406 0.1456 0.336 0.0
H1038 H 0.81959 0.33721 0.15296 0.0
N1039 N 0.75461 0.22374 0.27725 0.0
C1040 C 0.76499 0.18654 0.29974 0.0
C1041 C 0.81882 0.19771 0.25543 0.0
C1042 C 0.81298 0.24037 0.22654 0.0
C1043 C 0.79532 0.17238 0.291 0.0
C1044 C 0.76851 0.25394 0.24766 0.0
H1045 H 0.77856 0.37359 0.15378 0.0
N1046 N 0.7382 0.29914 0.22647 0.0
C1047 C 0.74487 0.35614 0.18348 0.0
C1048 C 0.76052 0.29313 0.22358 0.0
C1049 C 0.73017 0.32983 0.2059 0.0
C1050 C 0.76883 0.35281 0.17398 0.0
C1051 C 0.77978 0.32265 0.1883 0.0
O1052 O 0.70788 0.26473 0.14586 0.0
O1053 O 0.68078 0.22792 0.24577 0.0
O1054 O 0.67912 0.17831 0.27695 0.0
O1055 O 0.71577 0.18856 0.23874 0.0
O1056 O 0.68561 0.27457 0.20556 0.0
O1057 O 0.73478 0.22788 0.1535 0.0
O1058 O 0.68157 0.19046 0.4357 0.0
O1059 O 0.71322 0.24081 0.3492 0.0
O1060 O 0.71764 0.29044 0.30932 0.0
O1061 O 0.68454 0.27898 0.36851 0.0
O1062 O 0.70892 0.19699 0.39617 0.0
O1063 O 0.6632 0.23959 0.44555 0.0
C1064 C 0.67094 0.25064 0.21253 0.0
C1065 C 0.73125 0.26207 0.05668 0.0
C1066 C 0.72796 0.26901 0.93965 0.0
C1067 C 0.72285 0.25133 0.99686 0.0
C1068 C 0.74147 0.29856 0.94447 0.0
C1069 C 0.74402 0.29168 0.06011 0.0
C1070 C 0.74941 0.30973 1.00443 0.0
C1071 C 0.69725 0.16905 0.24059 0.0
C1072 C 0.72203 0.24587 0.11451 0.0
C1073 C 0.81044 0.31581 0.17184 0.0
C1074 C 0.8266 0.27704 0.18878 0.0
C1075 C 0.72357 0.22121 0.38869 0.0
C1076 C 0.66883 0.20647 0.54135 0.0
C1077 C 0.68491 0.21984 0.58502 0.0
C1078 C 0.68559 0.20763 0.64874 0.0
C1079 C 0.66906 0.18328 0.66784 0.0
C1080 C 0.65426 0.18022 0.55962 0.0
C1081 C 0.65516 0.16795 0.62247 0.0
C1082 C 0.70095 0.29982 0.34869 0.0
C1083 C 0.67191 0.21278 0.47354 0.0
H1084 H 0.71183 0.22952 0.99629 0.0
H1085 H 0.74714 0.3125 0.90256 0.0
H1086 H 0.74965 0.30105 0.10531 0.0
H1087 H 0.75979 0.33229 0.00782 0.0
H1088 H 0.69759 0.23785 0.56815 0.0
H1089 H 0.66714 0.17434 0.71739 0.0
H1090 H 0.64285 0.16825 0.52522 0.0
H1091 H 0.64564 0.14594 0.63637 0.0
Eu1092 Eu 0.03729 0.48882 0.23592 0.0
C1093 C 0.12974 0.52297 0.30257 0.0
C1094 C 0.14684 0.46962 0.27525 0.0
C1095 C 0.16747 0.52118 0.25208 0.0
C1096 C 0.12807 0.48857 0.29961 0.0
C1097 C 0.15022 0.53924 0.28349 0.0
C1098 C 0.16603 0.48615 0.24939 0.0
C1099 C 0.13908 0.58493 0.35059 0.0
N1100 N 0.11245 0.54046 0.33052 0.0
C1101 C 0.11763 0.57016 0.35981 0.0
C1102 C 0.15403 0.57195 0.30455 0.0
Eu1103 Eu 0.07686 0.51313 0.34738 0.0
N1104 N 0.10782 0.47384 0.31647 0.0
C1105 C 0.10547 0.4401 0.30262 0.0
C1106 C 0.14513 0.43469 0.27262 0.0
C1107 C 0.12416 0.41984 0.28581 0.0
H1108 H 0.10611 0.58103 0.39436 0.0
H1109 H 0.12175 0.39318 0.27692 0.0
H1110 H 0.17956 0.4719 0.22627 0.0
H1111 H 0.14489 0.60424 0.3826 0.0
H1112 H 0.08913 0.42873 0.29572 0.0
H1113 H 0.95509 0.58849 0.29695 0.0
H1114 H 0.15921 0.41935 0.25502 0.0
H1115 H 0.0432 0.40018 0.2054 0.0
H1116 H 0.00161 0.56832 0.30779 0.0
H1117 H 0.01809 0.35438 0.17017 0.0
H1118 H 0.18232 0.5341 0.23264 0.0
H1119 H 0.93501 0.51239 0.22696 0.0
H1120 H 0.91028 0.4583 0.1722 0.0
H1121 H 0.17007 0.58471 0.29438 0.0
H1122 H 0.93554 0.39701 0.14906 0.0
N1123 N 1.00025 0.51213 0.26902 0.0
C1124 C 0.98967 0.54937 0.29086 0.0
C1125 C 0.93591 0.53737 0.24646 0.0
C1126 C 0.94196 0.49466 0.21817 0.0
C1127 C 0.95927 0.56313 0.2817 0.0
C1128 C 0.9866 0.48161 0.23949 0.0
H1129 H 0.9767 0.36079 0.15105 0.0
N1130 N 0.01689 0.43596 0.22159 0.0
C1131 C 0.01025 0.37835 0.18183 0.0
C1132 C 0.9947 0.44226 0.21627 0.0
C1133 C 0.02493 0.40482 0.20379 0.0
C1134 C 0.98641 0.38184 0.17021 0.0
C1135 C 0.97552 0.41236 0.18182 0.0
O1136 O 0.04643 0.4684 0.14144 0.0
O1137 O 0.07363 0.50931 0.24025 0.0
O1138 O 0.07334 0.5579 0.27133 0.0
O1139 O 0.03709 0.54647 0.23213 0.0
O1140 O 0.06982 0.46236 0.20064 0.0
O1141 O 0.02066 0.50708 0.14649 0.0
O1142 O 0.07521 0.54948 0.42527 0.0
O1143 O 0.0404 0.49571 0.34492 0.0
O1144 O 0.03629 0.44537 0.30594 0.0
O1145 O 0.06777 0.45803 0.37147 0.0
O1146 O 0.04501 0.53897 0.39343 0.0
O1147 O 0.09366 0.50165 0.44052 0.0
C1148 C 0.08384 0.48715 0.20649 0.0
C1149 C 0.02333 0.47207 0.05007 0.0
C1150 C 0.02492 0.46744 0.9316 0.0
C1151 C 0.03015 0.4846 0.98957 0.0
C1152 C 0.0119 0.43734 0.93625 0.0
C1153 C 0.01137 0.44171 0.05287 0.0
C1154 C 0.00522 0.42472 0.99649 0.0
C1155 C 0.05501 0.5669 0.23536 0.0
C1156 C 0.03291 0.48775 0.10861 0.0
C1157 C 0.94479 0.41887 0.16547 0.0
C1158 C 0.92848 0.45761 0.18177 0.0
C1159 C 0.03004 0.51543 0.38443 0.0
C1160 C 0.08484 0.53613 0.53363 0.0
C1161 C 0.06741 0.52148 0.57284 0.0
C1162 C 0.06595 0.53093 0.63924 0.0
C1163 C 0.08287 0.55351 0.66356 0.0
C1164 C 0.09932 0.56099 0.55862 0.0
C1165 C 0.09783 0.57004 0.62318 0.0
C1166 C 0.05169 0.43687 0.3501 0.0
C1167 C 0.0875 0.53086 0.46427 0.0
H1168 H 0.03993 0.50745 0.98882 0.0
H1169 H 0.00572 0.42381 0.89414 0.0
H1170 H 0.00697 0.43088 0.09817 0.0
H1171 H 0.99536 0.40163 0.99954 0.0
H1172 H 0.05515 0.50404 0.55185 0.0
H1173 H 0.08447 0.56047 0.71416 0.0
H1174 H 0.11165 0.5739 0.5277 0.0
H1175 H 0.10802 0.5902 0.64308 0.0
Eu1176 Eu 0.71395 0.48807 0.5224 0.0
C1177 C 0.62275 0.53239 0.44835 0.0
C1178 C 0.60419 0.4833 0.49164 0.0
C1179 C 0.58609 0.53781 0.50294 0.0
C1180 C 0.62315 0.49848 0.46063 0.0
C1181 C 0.60261 0.55097 0.46084 0.0
C1182 C 0.58743 0.5038 0.51977 0.0
C1183 C 0.61319 0.58609 0.37155 0.0
N1184 N 0.64005 0.54574 0.41327 0.0
C1185 C 0.6349 0.57128 0.37128 0.0
C1186 C 0.59838 0.57942 0.42329 0.0
Eu1187 Eu 0.67486 0.5148 0.41034 0.0
N1188 N 0.64188 0.48041 0.44262 0.0
C1189 C 0.6417 0.44632 0.45493 0.0
C1190 C 0.60319 0.44834 0.49638 0.0
C1191 C 0.62202 0.42962 0.47673 0.0
H1192 H 0.64721 0.58105 0.33737 0.0
H1193 H 0.62239 0.40271 0.48543 0.0
H1194 H 0.5754 0.49314 0.5537 0.0
H1195 H 0.60876 0.60408 0.33401 0.0
H1196 H 0.6571 0.43215 0.45832 0.0
H1197 H 0.77589 0.58663 0.46593 0.0
H1198 H 0.58863 0.43583 0.51868 0.0
H1199 H 0.71371 0.40468 0.54362 0.0
H1200 H 0.73871 0.56107 0.4655 0.0
H1201 H 0.73999 0.35835 0.56245 0.0
H1202 H 0.57158 0.55279 0.51873 0.0
H1203 H 0.80983 0.55884 0.49789 0.0
H1204 H 0.84088 0.46086 0.5678 0.0
H1205 H 0.58259 0.59356 0.42863 0.0
H1206 H 0.81797 0.40061 0.57437 0.0
N1207 N 0.74952 0.51206 0.49377 0.0
C1208 C 0.753 0.54511 0.47823 0.0
C1209 C 0.7946 0.5433 0.49717 0.0
C1210 C 0.79411 0.50814 0.51388 0.0
C1211 C 0.77468 0.56016 0.47849 0.0
C1212 C 0.76721 0.49111 0.50435 0.0
H1213 H 0.78133 0.36651 0.56939 0.0
N1214 N 0.73907 0.44135 0.52185 0.0
C1215 C 0.747 0.38299 0.55149 0.0
C1216 C 0.7615 0.44971 0.52011 0.0
C1217 C 0.7319 0.40963 0.53912 0.0
C1218 C 0.77059 0.38759 0.55545 0.0
C1219 C 0.7802 0.41917 0.54582 0.0
O1220 O 0.70769 0.46338 0.61437 0.0
O1221 O 0.67763 0.50746 0.51866 0.0
O1222 O 0.67743 0.56008 0.48561 0.0
O1223 O 0.71045 0.54441 0.54075 0.0
O1224 O 0.68234 0.46023 0.55919 0.0
O1225 O 0.73265 0.50448 0.61067 0.0
O1226 O 0.67945 0.54821 0.3283 0.0
O1227 O 0.7112 0.49546 0.41271 0.0
O1228 O 0.71262 0.44638 0.44887 0.0
O1229 O 0.6806 0.45913 0.38681 0.0
O1230 O 0.70761 0.53958 0.36659 0.0
O1231 O 0.65944 0.50088 0.31668 0.0
C1232 C 0.66789 0.48455 0.55271 0.0
C1233 C 0.73122 0.4687 0.70562 0.0
C1234 C 0.72841 0.46569 0.82389 0.0
C1235 C 0.72373 0.48205 0.76489 0.0
C1236 C 0.7424 0.43651 0.82181 0.0
C1237 C 0.74369 0.43866 0.70441 0.0
C1238 C 0.74988 0.42318 0.76257 0.0
C1239 C 0.69408 0.56665 0.52942 0.0
C1240 C 0.72133 0.48302 0.64693 0.0
C1241 C 0.80851 0.42309 0.56303 0.0
C1242 C 0.82255 0.46069 0.55619 0.0
C1243 C 0.72195 0.51495 0.3732 0.0
C1244 C 0.66808 0.53372 0.22067 0.0
C1245 C 0.68516 0.51988 0.17981 0.0
C1246 C 0.68627 0.53041 0.11423 0.0
C1247 C 0.66952 0.55373 0.09192 0.0
C1248 C 0.65337 0.55886 0.19794 0.0
C1249 C 0.6549 0.56962 0.13436 0.0
C1250 C 0.69649 0.4378 0.40725 0.0
C1251 C 0.6675 0.52849 0.29018 0.0
H1252 H 0.71312 0.50428 0.76367 0.0
H1253 H 0.74856 0.42448 0.86546 0.0
H1254 H 0.74844 0.42701 0.65896 0.0
H1255 H 0.76031 0.40063 0.76169 0.0
H1256 H 0.69766 0.50236 0.1993 0.0
H1257 H 0.66787 0.56163 0.04172 0.0
H1258 H 0.64118 0.5712 0.2298 0.0
H1259 H 0.64521 0.59088 0.11736 0.0
Eu1260 Eu 0.03404 0.24575 0.53157 0.0
C1261 C 0.12789 0.21167 0.4573 0.0
C1262 C 0.14609 0.26421 0.485 0.0
C1263 C 0.1665 0.21197 0.50278 0.0
C1264 C 0.12676 0.24602 0.4621 0.0
C1265 C 0.14854 0.19478 0.4725 0.0
C1266 C 0.16534 0.24692 0.50827 0.0
C1267 C 0.13652 0.15191 0.40025 0.0
N1268 N 0.11003 0.19503 0.42998 0.0
C1269 C 0.11453 0.16589 0.39779 0.0
C1270 C 0.15191 0.16287 0.44712 0.0
Eu1271 Eu 0.07491 0.2241 0.4158 0.0
N1272 N 0.10661 0.26153 0.44739 0.0
C1273 C 0.105 0.29527 0.46152 0.0
C1274 C 0.14505 0.29919 0.48788 0.0
C1275 C 0.12423 0.31486 0.47643 0.0
H1276 H 0.10179 0.15472 0.36696 0.0
H1277 H 0.12241 0.34159 0.48558 0.0
H1278 H 0.17922 0.26058 0.53087 0.0
H1279 H 0.14208 0.13423 0.36402 0.0
H1280 H 0.08895 0.30699 0.47052 0.0
H1281 H 0.95151 0.15025 0.45473 0.0
H1282 H 0.15961 0.31396 0.50416 0.0
H1283 H 0.04056 0.33456 0.57047 0.0
H1284 H 0.99809 0.16999 0.44661 0.0
H1285 H 0.01549 0.37991 0.60706 0.0
H1286 H 0.18185 0.19873 0.51795 0.0
H1287 H 0.93176 0.22493 0.53039 0.0
H1288 H 0.90717 0.27759 0.59081 0.0
H1289 H 0.16789 0.14956 0.45483 0.0
H1290 H 0.93232 0.33688 0.6239 0.0
N1291 N 0.99701 0.22539 0.48923 0.0
C1292 C 0.98621 0.18887 0.46414 0.0
C1293 C 0.93254 0.20039 0.50893 0.0
C1294 C 0.93875 0.24239 0.54053 0.0
C1295 C 0.95579 0.17526 0.47189 0.0
C1296 C 0.98332 0.25561 0.52036 0.0
H1297 H 0.97401 0.37352 0.624 0.0
N1298 N 0.01416 0.29967 0.54812 0.0
C1299 C 0.00756 0.35643 0.59249 0.0
C1300 C 0.9916 0.29452 0.5477 0.0
C1301 C 0.02223 0.33029 0.56918 0.0
C1302 C 0.98364 0.35301 0.60252 0.0
C1303 C 0.97248 0.32341 0.58553 0.0
O1304 O 0.01315 0.25123 0.61837 0.0
O1305 O 0.07098 0.22933 0.52306 0.0
O1306 O 0.07119 0.17912 0.48964 0.0
O1307 O 0.03368 0.18837 0.52115 0.0
O1308 O 0.06564 0.27409 0.57121 0.0
O1309 O 0.04461 0.22591 0.62944 0.0
O1310 O 0.0727 0.1906 0.33319 0.0
O1311 O 0.03789 0.24098 0.4209 0.0
O1312 O 0.03718 0.29248 0.47056 0.0
O1313 O 0.06571 0.27886 0.3953 0.0
O1314 O 0.04309 0.19893 0.36837 0.0
O1315 O 0.09116 0.23907 0.32291 0.0
C1316 C 0.08084 0.25135 0.5583 0.0
C1317 C 0.03194 0.2613 0.71772 0.0
C1318 C 0.04926 0.26801 0.82523 0.0
C1319 C 0.04102 0.24727 0.77455 0.0
C1320 C 0.04613 0.30293 0.82174 0.0
C1321 C 0.02685 0.2959 0.71804 0.0
C1322 C 0.03424 0.3167 0.76897 0.0
C1323 C 0.05236 0.16923 0.52218 0.0
C1324 C 0.02748 0.23966 0.65976 0.0
C1325 C 0.94166 0.31651 0.60108 0.0
C1326 C 0.92532 0.27848 0.58043 0.0
C1327 C 0.02784 0.22196 0.37899 0.0
C1328 C 0.08946 0.20142 0.22879 0.0
C1329 C 0.08468 0.22345 0.17681 0.0
C1330 C 0.08548 0.21128 0.11274 0.0
C1331 C 0.09173 0.17763 0.10103 0.0
C1332 C 0.0949 0.16759 0.21635 0.0
C1333 C 0.09562 0.1557 0.15267 0.0
C1334 C 0.0509 0.30022 0.42175 0.0
C1335 C 0.08397 0.21124 0.29538 0.0
H1336 H 0.04275 0.22016 0.77779 0.0
H1337 H 0.05137 0.31914 0.86166 0.0
H1338 H 0.01652 0.30668 0.68043 0.0
H1339 H 0.03038 0.34339 0.768 0.0
H1340 H 0.07821 0.2486 0.1864 0.0
H1341 H 0.09204 0.16756 0.05182 0.0
H1342 H 0.09776 0.14995 0.2558 0.0
H1343 H 0.09951 0.12953 0.1432 0.0
Eu1344 Eu 0.82611 0.26484 0.66485 0.0
C1345 C 0.74292 0.19211 0.79701 0.0
C1346 C 0.69002 0.24426 0.79645 0.0
C1347 C 0.69328 0.16868 0.85064 0.0
C1348 C 0.73462 0.23127 0.77354 0.0
C1349 C 0.724 0.16222 0.83297 0.0
C1350 C 0.67677 0.20725 0.83409 0.0
C1351 C 0.75875 0.12824 0.83028 0.0
N1352 N 0.76506 0.18584 0.78995 0.0
C1353 C 0.77323 0.15469 0.80705 0.0
C1354 C 0.73502 0.13174 0.84391 0.0
Eu1355 Eu 0.78539 0.23878 0.77513 0.0
N1356 N 0.74807 0.26163 0.74271 0.0
C1357 C 0.73731 0.29874 0.72077 0.0
C1358 C 0.68379 0.28684 0.76762 0.0
C1359 C 0.70694 0.31248 0.73096 0.0
H1360 H 0.79148 0.15003 0.80401 0.0
H1361 H 0.70266 0.33777 0.71544 0.0
H1362 H 0.65867 0.20792 0.84532 0.0
H1363 H 0.76666 0.10421 0.84116 0.0
H1364 H 0.74915 0.31764 0.70301 0.0
H1365 H 0.86917 0.14272 0.72604 0.0
H1366 H 0.68301 0.26194 0.78761 0.0
H1367 H 0.84769 0.34106 0.68764 0.0
H1368 H 0.83717 0.18003 0.71235 0.0
H1369 H 0.88303 0.36851 0.73096 0.0
H1370 H 0.68416 0.14718 0.86943 0.0
H1371 H 0.90777 0.16641 0.74031 0.0
H1372 H 0.93041 0.21691 0.76495 0.0
H1373 H 0.7255 0.11067 0.86372 0.0
H1374 H 0.93339 0.27883 0.77205 0.0
N1375 N 0.85666 0.22445 0.69119 0.0
C1376 C 0.85369 0.19072 0.70425 0.0
C1377 C 0.89378 0.18276 0.72571 0.0
C1378 C 0.8965 0.21761 0.72305 0.0
C1379 C 0.87211 0.16929 0.7172 0.0
C1380 C 0.87768 0.23807 0.70373 0.0
H1381 H 0.91704 0.33454 0.75289 0.0
N1382 N 0.86085 0.29198 0.69531 0.0
C1383 C 0.88236 0.34173 0.7223 0.0
C1384 C 0.87959 0.27273 0.70757 0.0
C1385 C 0.86238 0.32613 0.69959 0.0
C1386 C 0.90149 0.32243 0.73616 0.0
C1387 C 0.90019 0.28758 0.73006 0.0
O1388 O 0.83103 0.30362 0.59119 0.0
O1389 O 0.78948 0.24818 0.66653 0.0
O1390 O 0.78444 0.19604 0.70371 0.0
O1391 O 0.81574 0.21031 0.63809 0.0
O1392 O 0.79496 0.2902 0.61444 0.0
O1393 O 0.84247 0.25168 0.57294 0.0
O1394 O 0.79523 0.21866 0.86928 0.0
O1395 O 0.82189 0.25885 0.77056 0.0
O1396 O 0.82065 0.30756 0.74365 0.0
O1397 O 0.78442 0.29617 0.78141 0.0
O1398 O 0.8181 0.2118 0.80905 0.0
O1399 O 0.76914 0.25678 0.86551 0.0
C1400 C 0.77951 0.26749 0.6253 0.0
C1401 C 0.8361 0.28708 0.48081 0.0
C1402 C 0.81812 0.27706 0.37428 0.0
C1403 C 0.81857 0.27125 0.44276 0.0
C1404 C 0.83634 0.29619 0.34742 0.0
C1405 C 0.85172 0.30906 0.45185 0.0
C1406 C 0.85164 0.31342 0.38546 0.0
C1407 C 0.79958 0.18874 0.65796 0.0
C1408 C 0.84021 0.28225 0.55033 0.0
C1409 C 0.91842 0.26738 0.75017 0.0
C1410 C 0.91669 0.23245 0.74614 0.0
C1411 C 0.83232 0.23633 0.80255 0.0
C1412 C 0.77274 0.22171 0.96199 0.0
C1413 C 0.78025 0.23349 0.02255 0.0
C1414 C 0.7756 0.2157 0.08045 0.0
C1415 C 0.76263 0.18557 0.07536 0.0
C1416 C 0.76073 0.19143 0.95907 0.0
C1417 C 0.75528 0.17371 0.01516 0.0
C1418 C 0.80237 0.31642 0.77912 0.0
C1419 C 0.7818 0.23776 0.90291 0.0
H1420 H 0.80573 0.25548 0.46574 0.0
H1421 H 0.83862 0.30024 0.29607 0.0
H1422 H 0.8645 0.32235 0.4806 0.0
H1423 H 0.86318 0.33052 0.36206 0.0
H1424 H 0.79003 0.25633 0.0232 0.0
H1425 H 0.75687 0.17144 0.11712 0.0
H1426 H 0.75586 0.18113 0.91376 0.0
H1427 H 0.74543 0.15063 0.0119 0.0
Eu1428 Eu 0.42474 0.9725 0.66107 0.0
C1429 C 0.51345 0.03607 0.76839 0.0
C1430 C 0.5453 0.97678 0.76451 0.0
C1431 C 0.56059 0.06162 0.81252 0.0
C1432 C 0.51871 -0.00551 0.75355 0.0
C1433 C 0.53243 0.06622 0.7942 0.0
C1434 C 0.57418 0.02358 0.80685 0.0
C1435 C 0.49948 0.10275 0.80146 0.0
N1436 N 0.49109 0.04476 0.77058 0.0
C1437 C 0.48418 0.07639 0.78897 0.0
C1438 C 0.52306 0.09788 0.80448 0.0
Eu1439 Eu 0.46562 -0.00147 0.77217 0.0
N1440 N 0.50081 0.97397 0.74279 0.0
C1441 C 0.50389 0.94082 0.72767 0.0
C1442 C 0.5454 0.94156 0.74827 0.0
C1443 C 0.52537 0.92525 0.72873 0.0
H1444 H 0.46604 0.0815 0.79414 0.0
H1445 H 0.52633 0.8988 0.71625 0.0
H1446 H 0.5924 0.02292 0.8197 0.0
H1447 H 0.49262 0.1273 0.81341 0.0
H1448 H 0.48941 0.92522 0.71494 0.0
H1449 H 0.38007 0.09414 0.72362 0.0
H1450 H 0.56041 0.92558 0.74981 0.0
H1451 H 0.39504 0.90451 0.62089 0.0
H1452 H 0.41245 0.05896 0.70207 0.0
H1453 H 0.35674 0.87973 0.64101 0.0
H1454 H 0.5701 0.08379 0.82562 0.0
H1455 H 0.34308 0.06828 0.75228 0.0
H1456 H 0.32249 0.0164 0.78398 0.0
H1457 H 0.53396 0.11873 0.81874 0.0
H1458 H 0.31953 0.95432 0.78161 0.0
N1459 N 0.39399 0.01256 0.69115 0.0
C1460 C 0.39625 0.04679 0.70037 0.0
C1461 C 0.35702 0.0526 0.73487 0.0
C1462 C 0.35528 0.01767 0.73487 0.0
C1463 C 0.37774 0.06723 0.71798 0.0
C1464 C 0.3739 -0.00178 0.71089 0.0
H1465 H 0.33194 0.90216 0.72582 0.0
N1466 N 0.38919 0.9458 0.68244 0.0
C1467 C 0.36271 0.90043 0.6691 0.0
C1468 C 0.37213 0.9638 0.7103 0.0
C1469 C 0.38385 0.9155 0.65598 0.0
C1470 C 0.34791 0.91473 0.71396 0.0
C1471 C 0.35171 0.94797 0.73144 0.0
O1472 O 0.4256 0.93538 0.58417 0.0
O1473 O 0.46176 0.98907 0.66339 0.0
O1474 O 0.46475 0.04035 0.69777 0.0
O1475 O 0.43381 0.02597 0.63184 0.0
O1476 O 0.45634 0.9468 0.61281 0.0
O1477 O 0.40798 0.98373 0.56768 0.0
O1478 O 0.45932 0.02257 0.86482 0.0
O1479 O 0.42921 0.98048 0.76771 0.0
O1480 O 0.42715 0.92806 0.73721 0.0
O1481 O 0.46101 0.94214 0.79005 0.0
O1482 O 0.43424 0.02728 0.80892 0.0
O1483 O 0.48431 0.98174 0.86078 0.0
C1484 C 0.47175 0.96975 0.62196 0.0
C1485 C 0.41694 0.94886 0.47466 0.0
C1486 C 0.43499 0.95556 0.3676 0.0
C1487 C 0.4339 0.96443 0.43467 0.0
C1488 C 0.41802 0.93311 0.34354 0.0
C1489 C 0.40284 0.92356 0.44956 0.0
C1490 C 0.40384 0.91543 0.3844 0.0
C1491 C 0.4498 0.04743 0.65155 0.0
C1492 C 0.41382 0.95427 0.54431 0.0
C1493 C 0.3345 0.96671 0.76152 0.0
C1494 C 0.33606 0.00173 0.762 0.0
C1495 C 0.41952 0.00339 0.80112 0.0
C1496 C 0.48248 0.01709 0.95723 0.0
C1497 C 0.47467 0.00372 0.01649 0.0
C1498 C 0.47821 0.02065 0.07587 0.0
C1499 C 0.49182 0.05031 0.07409 0.0
C1500 C 0.49466 0.04741 0.95671 0.0
C1501 C 0.49991 0.0634 0.01518 0.0
C1502 C 0.44393 0.92081 0.77991 0.0
C1503 C 0.47289 0.00289 0.89746 0.0
H1504 H 0.44598 0.98221 0.45537 0.0
H1505 H 0.41584 0.92722 0.29252 0.0
H1506 H 0.39094 0.90992 0.48063 0.0
H1507 H 0.39371 0.89533 0.3642 0.0
H1508 H 0.46475 0.98094 0.0147 0.0
H1509 H 0.4974 0.06305 0.1177 0.0
H1510 H 0.49982 0.05899 0.91143 0.0
H1511 H 0.51004 0.08626 0.01484 0.0
Eu1512 Eu 0.82519 0.97564 0.5943 0.0
C1513 C 0.74266 0.04435 0.46272 0.0
C1514 C 0.69004 0.99149 0.4676 0.0
C1515 C 0.69271 0.06634 0.41039 0.0
C1516 C 0.7346 0.00493 0.48851 0.0
C1517 C 0.7234 0.07336 0.42612 0.0
C1518 C 0.6765 0.0279 0.42909 0.0
C1519 C 0.75818 0.10699 0.41998 0.0
N1520 N 0.76515 0.04992 0.46233 0.0
C1521 C 0.77302 0.0808 0.44188 0.0
C1522 C 0.73428 0.10334 0.41037 0.0
Eu1523 Eu 0.78512 -0.00377 0.47799 0.0
N1524 N 0.74835 0.97451 0.5189 0.0
C1525 C 0.73768 0.9376 0.54255 0.0
C1526 C 0.68397 0.94913 0.49771 0.0
C1527 C 0.70729 0.92381 0.53405 0.0
H1528 H 0.79132 0.0853 0.44041 0.0
H1529 H 0.70309 0.89862 0.55037 0.0
H1530 H 0.65833 0.02702 0.41897 0.0
H1531 H 0.76593 0.13075 0.40637 0.0
H1532 H 0.74958 0.91869 0.55991 0.0
H1533 H 0.87409 0.09162 0.52412 0.0
H1534 H 0.6831 0.97387 0.47711 0.0
H1535 H 0.85025 0.90559 0.64275 0.0
H1536 H 0.8401 0.0577 0.53813 0.0
H1537 H 0.88962 0.88303 0.64605 0.0
H1538 H 0.68341 0.08759 0.39133 0.0
H1539 H 0.91103 0.06293 0.50705 0.0
H1540 H 0.92986 0.00877 0.48049 0.0
H1541 H 0.72445 0.12395 0.38995 0.0
H1542 H 0.93116 0.94649 0.49229 0.0
N1543 N 0.85725 0.01217 0.56294 0.0
C1544 C 0.85604 0.04586 0.54836 0.0
C1545 C 0.89624 0.0486 0.52314 0.0
C1546 C 0.89681 0.01357 0.52627 0.0
C1547 C 0.87556 0.06489 0.53382 0.0
C1548 C 0.87719 -0.00397 0.5489 0.0
H1549 H 0.91644 0.89774 0.556 0.0
N1550 N 0.8596 0.94558 0.58052 0.0
C1551 C 0.88489 0.90108 0.60979 0.0
C1552 C 0.87779 0.96164 0.55382 0.0
C1553 C 0.86333 0.91617 0.61227 0.0
C1554 C 0.90074 0.91174 0.56371 0.0
C1555 C 0.89809 0.94396 0.53875 0.0
O1556 O 0.82265 0.94329 0.67846 0.0
O1557 O 0.78812 0.99256 0.5892 0.0
O1558 O 0.78774 0.04311 0.5389 0.0
O1559 O 0.81654 0.03076 0.61373 0.0
O1560 O 0.79346 0.95007 0.64105 0.0
O1561 O 0.84222 0.99098 0.68579 0.0
O1562 O 0.76424 0.00199 0.39126 0.0
O1563 O 0.822 0.98 0.48675 0.0
O1564 O 0.82211 0.93032 0.52074 0.0
O1565 O 0.7847 0.93901 0.48897 0.0
O1566 O 0.81674 0.02459 0.43831 0.0
O1567 O 0.79558 0.97646 0.38011 0.0
C1568 C 0.77826 0.97325 0.63112 0.0
C1569 C 0.84049 0.95418 0.78088 0.0
C1570 C 0.83573 0.96335 0.8966 0.0
C1571 C 0.83494 0.97574 0.8328 0.0
C1572 C 0.84267 0.93006 0.90829 0.0
C1573 C 0.84682 0.9207 0.79307 0.0
C1574 C 0.84742 0.90869 0.85659 0.0
C1575 C 0.80162 0.05171 0.58673 0.0
C1576 C 0.83462 0.96378 0.71471 0.0
C1577 C 0.91628 0.96051 0.50837 0.0
C1578 C 0.91578 -0.00443 0.50314 0.0
C1579 C 0.83195 0.00192 0.45147 0.0
C1580 C 0.78287 0.01199 0.29211 0.0
C1581 C 0.79144 -0.0022 0.23495 0.0
C1582 C 0.79973 0.01839 0.18426 0.0
C1583 C 0.79694 0.05338 0.18779 0.0
C1584 C 0.77817 0.04672 0.29221 0.0
C1585 C 0.78545 0.06738 0.24097 0.0
C1586 C 0.80342 0.92008 0.48801 0.0
C1587 C 0.77847 0.99033 0.34989 0.0
H1588 H 0.8279 0.00057 0.82328 0.0
H1589 H 0.84287 0.91975 0.95731 0.0
H1590 H 0.85028 0.90333 0.75362 0.0
H1591 H 0.85161 0.88275 0.86602 0.0
H1592 H 0.79287 0.97065 0.2316 0.0
H1593 H 0.8022 0.0695 0.14776 0.0
H1594 H 0.76822 0.05772 0.33035 0.0
H1595 H 0.78185 0.09414 0.2421 0.0
Eu1596 Eu 0.42592 0.26068 0.59458 0.0
C1597 C 0.51457 0.2001 0.49549 0.0
C1598 C 0.54459 0.26144 0.49725 0.0
C1599 C 0.56236 0.17747 0.45167 0.0
C1600 C 0.51851 0.24216 0.50875 0.0
C1601 C 0.5345 0.1711 0.47051 0.0
C1602 C 0.57471 0.21635 0.45588 0.0
C1603 C 0.50323 0.1319 0.46582 0.0
N1604 N 0.49237 0.19013 0.49058 0.0
C1605 C 0.48699 0.15733 0.47412 0.0
C1606 C 0.52649 0.13854 0.46304 0.0
Eu1607 Eu 0.46588 0.23609 0.47802 0.0
N1608 N 0.49992 0.26183 0.5171 0.0
C1609 C 0.50225 0.29521 0.53198 0.0
C1610 C 0.54378 0.29667 0.51295 0.0
C1611 C 0.52333 0.31188 0.53176 0.0
H1612 H 0.46963 0.15012 0.46218 0.0
H1613 H 0.52359 0.33841 0.54382 0.0
H1614 H 0.59291 0.21801 0.44309 0.0
H1615 H 0.49733 0.10666 0.45491 0.0
H1616 H 0.48746 0.31024 0.54418 0.0
H1617 H 0.3721 0.15045 0.52178 0.0
H1618 H 0.55836 0.31349 0.51149 0.0
H1619 H 0.40177 0.33002 0.65576 0.0
H1620 H 0.40721 0.1814 0.53737 0.0
H1621 H 0.3636 0.35499 0.66151 0.0
H1622 H 0.57261 0.15571 0.44101 0.0
H1623 H 0.33705 0.18303 0.49916 0.0
H1624 H 0.32158 0.2394 0.47008 0.0
H1625 H 0.53819 0.11832 0.45066 0.0
H1626 H 0.32117 0.30066 0.49321 0.0
N1627 N 0.39247 0.22808 0.56026 0.0
C1628 C 0.392 0.19432 0.54758 0.0
C1629 C 0.35229 0.19577 0.51678 0.0
C1630 C 0.35347 0.23077 0.51964 0.0
C1631 C 0.37182 0.17731 0.531 0.0
C1632 C 0.37352 0.24616 0.54463 0.0
H1633 H 0.33767 0.34641 0.5641 0.0
N1634 N 0.39228 0.29342 0.58549 0.0
C1635 C 0.36727 0.33644 0.62449 0.0
C1636 C 0.37413 0.2802 0.55342 0.0
C1637 C 0.3885 0.32031 0.62485 0.0
C1638 C 0.35229 0.33026 0.57275 0.0
C1639 C 0.35442 0.29968 0.54055 0.0
O1640 O 0.42936 0.29042 0.68228 0.0
O1641 O 0.4629 0.24111 0.59069 0.0
O1642 O 0.45131 0.18942 0.52237 0.0
O1643 O 0.43449 0.20649 0.61867 0.0
O1644 O 0.4582 0.28548 0.63893 0.0
O1645 O 0.40844 0.24384 0.68441 0.0
O1646 O 0.48663 0.21559 0.4001 0.0
O1647 O 0.42967 0.25368 0.48656 0.0
O1648 O 0.42894 0.30718 0.52393 0.0
O1649 O 0.46157 0.29265 0.4645 0.0
O1650 O 0.43469 0.21066 0.43132 0.0
O1651 O 0.46477 0.25641 0.37642 0.0
C1652 C 0.47277 0.26102 0.63214 0.0
C1653 C 0.41115 0.27756 0.78368 0.0
C1654 C 0.41509 0.26542 0.89893 0.0
C1655 C 0.41694 0.25497 0.83389 0.0
C1656 C 0.40676 0.29775 0.91319 0.0
C1657 C 0.40419 0.31043 0.79895 0.0
C1658 C 0.40257 0.32051 0.8635 0.0
C1659 C 0.44428 0.18353 0.58191 0.0
C1660 C 0.41693 0.26951 0.71646 0.0
C1661 C 0.33597 0.2856 0.50643 0.0
C1662 C 0.33562 0.25085 0.49597 0.0
C1663 C 0.4197 0.23301 0.44823 0.0
C1664 C 0.47276 0.21521 0.29289 0.0
C1665 C 0.46483 0.23243 0.23726 0.0
C1666 C 0.45609 0.21436 0.18348 0.0
C1667 C 0.45841 0.17917 0.18196 0.0
C1668 C 0.47532 0.17989 0.28964 0.0
C1669 C 0.46854 0.16219 0.23405 0.0
C1670 C 0.44511 0.31435 0.47925 0.0
C1671 C 0.47878 0.23384 0.35348 0.0
H1672 H 0.42488 0.23097 0.82241 0.0
H1673 H 0.40566 0.30678 0.96298 0.0
H1674 H 0.40085 0.32893 0.76161 0.0
H1675 H 0.39822 0.34614 0.87541 0.0
H1676 H 0.46401 0.25971 0.23777 0.0
H1677 H 0.45307 0.1648 0.13961 0.0
H1678 H 0.48252 0.16573 0.32996 0.0
H1679 H 0.47087 0.13515 0.23169 0.0
Eu1680 Eu 0.21608 0.74707 0.23662 0.0
C1681 C 0.12339 0.71305 0.30426 0.0
C1682 C 0.10653 0.76649 0.27615 0.0
C1683 C 0.08557 0.71506 0.2543 0.0
C1684 C 0.12524 0.74742 0.30058 0.0
C1685 C 0.10276 0.69695 0.2859 0.0
C1686 C 0.08719 0.75006 0.25089 0.0
C1687 C 0.11349 0.65186 0.35516 0.0
N1688 N 0.14056 0.69553 0.33279 0.0
C1689 C 0.13504 0.6664 0.36382 0.0
C1690 C 0.09873 0.66449 0.30816 0.0
Eu1691 Eu 0.17637 0.72253 0.34833 0.0
N1692 N 0.14557 0.76201 0.31718 0.0
C1693 C 0.14806 0.79569 0.30296 0.0
C1694 C 0.1084 0.8014 0.27309 0.0
C1695 C 0.12946 0.81609 0.28601 0.0
H1696 H 0.14636 0.65561 0.39909 0.0
H1697 H 0.13197 0.84271 0.27689 0.0
H1698 H 0.07365 0.76435 0.22789 0.0
H1699 H 0.10767 0.63281 0.38794 0.0
H1700 H 0.16446 0.80692 0.29607 0.0
H1701 H 0.29979 0.65026 0.29905 0.0
H1702 H 0.09437 0.81683 0.25545 0.0
H1703 H 0.20888 0.8354 0.2058 0.0
H1704 H 0.253 0.669 0.30978 0.0
H1705 H 0.2333 0.88189 0.16984 0.0
H1706 H 0.07057 0.70225 0.23555 0.0
H1707 H 0.31869 0.72672 0.22799 0.0
H1708 H 0.34252 0.78114 0.17216 0.0
H1709 H 0.08266 0.6518 0.29808 0.0
H1710 H 0.31617 0.84151 0.14647 0.0
N1711 N 0.25352 0.72507 0.27042 0.0
C1712 C 0.26466 0.68828 0.29269 0.0
C1713 C 0.31818 0.70178 0.24781 0.0
C1714 C 0.31147 0.74419 0.21905 0.0
C1715 C 0.29523 0.67544 0.28354 0.0
C1716 C 0.26672 0.75587 0.24052 0.0
H1717 H 0.27472 0.87665 0.1501 0.0
N1718 N 0.23572 0.80049 0.22206 0.0
C1719 C 0.24148 0.85818 0.1816 0.0
C1720 C 0.258 0.79487 0.21675 0.0
C1721 C 0.22722 0.83132 0.20403 0.0
C1722 C 0.26534 0.85537 0.16965 0.0
C1723 C 0.27668 0.82524 0.18163 0.0
O1724 O 0.20662 0.76678 0.14188 0.0
O1725 O 0.17968 0.72646 0.24112 0.0
O1726 O 0.18002 0.67789 0.27207 0.0
O1727 O 0.21635 0.68938 0.23333 0.0
O1728 O 0.18348 0.77333 0.20107 0.0
O1729 O 0.23307 0.72913 0.14741 0.0
O1730 O 0.17816 0.68616 0.42631 0.0
O1731 O 0.21272 0.73989 0.34516 0.0
O1732 O 0.21712 0.79035 0.30726 0.0
O1733 O 0.18554 0.77753 0.37248 0.0
O1734 O 0.20833 0.69753 0.39585 0.0
O1735 O 0.15949 0.73394 0.44119 0.0
C1736 C 0.16943 0.74857 0.20718 0.0
C1737 C 0.22976 0.76403 0.05075 0.0
C1738 C 0.2278 0.76914 0.93237 0.0
C1739 C 0.22281 0.7517 0.99026 0.0
C1740 C 0.2406 0.79942 0.93712 0.0
C1741 C 0.24141 0.79463 0.05365 0.0
C1742 C 0.24729 0.81195 0.9974 0.0
C1743 C 0.19838 0.66899 0.23606 0.0
C1744 C 0.22049 0.74791 0.10928 0.0
C1745 C 0.30745 0.81963 0.16506 0.0
C1746 C 0.32436 0.78148 0.18197 0.0
C1747 C 0.22337 0.72077 0.38509 0.0
C1748 C 0.16804 0.69955 0.53448 0.0
C1749 C 0.18514 0.71461 0.57408 0.0
C1750 C 0.18625 0.70562 0.64067 0.0
C1751 C 0.16922 0.68326 0.66504 0.0
C1752 C 0.15348 0.67477 0.55941 0.0
C1753 C 0.15454 0.66631 0.62441 0.0
C1754 C 0.20174 0.79866 0.35166 0.0
C1755 C 0.16574 0.70478 0.46508 0.0
H1756 H 0.21312 0.72876 0.98956 0.0
H1757 H 0.24657 0.8132 0.89509 0.0
H1758 H 0.24576 0.8054 0.09895 0.0
H1759 H 0.25695 0.83522 1.00058 0.0
H1760 H 0.19744 0.73201 0.55327 0.0
H1761 H 0.16744 0.67678 0.71585 0.0
H1762 H 0.14137 0.66159 0.52824 0.0
H1763 H 0.14423 0.64633 0.64445 0.0
Eu1764 Eu 0.53418 0.98953 0.22857 0.0
C1765 C 0.62809 0.02393 0.2998 0.0
C1766 C 0.64696 0.97144 0.2748 0.0
C1767 C 0.66673 0.02387 0.25398 0.0
C1768 C 0.62742 0.98942 0.29691 0.0
C1769 C 0.64836 0.04118 0.28188 0.0
C1770 C 0.6661 0.98885 0.2512 0.0
C1771 C 0.63521 0.08679 0.3453 0.0
N1772 N 0.60995 0.04065 0.32579 0.0
C1773 C 0.6137 0.07152 0.35251 0.0
C1774 C 0.65091 0.07426 0.30123 0.0
Eu1775 Eu 0.57556 0.01006 0.34338 0.0
N1776 N 0.60746 0.9735 0.31186 0.0
C1777 C 0.60612 0.93963 0.29905 0.0
C1778 C 0.64623 0.93641 0.27299 0.0
C1779 C 0.62553 0.92037 0.2847 0.0
H1780 H 0.60081 0.08306 0.38276 0.0
H1781 H 0.62398 0.89353 0.27632 0.0
H1782 H 0.6803 0.97527 0.22998 0.0
H1783 H 0.64136 0.10522 0.3783 0.0
H1784 H 0.59009 0.92761 0.29045 0.0
H1785 H 0.45237 0.0868 0.30357 0.0
H1786 H 0.66094 0.92182 0.25731 0.0
H1787 H 0.54041 0.90064 0.19059 0.0
H1788 H 0.49892 0.06675 0.31204 0.0
H1789 H 0.51489 0.85509 0.15708 0.0
H1790 H 0.68193 0.03723 0.23795 0.0
H1791 H 0.43228 0.01176 0.22988 0.0
H1792 H 0.40746 0.95875 0.17138 0.0
H1793 H 0.6667 0.08785 0.29203 0.0
H1794 H 0.43264 0.89827 0.14284 0.0
N1795 N 0.49755 0.01105 0.27084 0.0
C1796 C 0.48695 0.04787 0.29497 0.0
C1797 C 0.43318 0.03644 0.25068 0.0
C1798 C 0.43921 -0.00583 0.22017 0.0
C1799 C 0.45655 0.06167 0.28697 0.0
C1800 C 0.48373 0.98073 0.24048 0.0
H1801 H 0.47345 0.862 0.14097 0.0
N1802 N 0.51425 0.93588 0.21321 0.0
C1803 C 0.50722 0.87889 0.17066 0.0
C1804 C 0.49177 0.94141 0.21418 0.0
C1805 C 0.52211 0.90509 0.19232 0.0
C1806 C 0.48332 0.88257 0.16137 0.0
C1807 C 0.47249 0.91251 0.17757 0.0
O1808 O 0.51317 0.98395 0.14203 0.0
O1809 O 0.57126 0.00439 0.23676 0.0
O1810 O 0.57232 0.05515 0.27022 0.0
O1811 O 0.53473 0.0469 0.23832 0.0
O1812 O 0.56522 0.95994 0.18859 0.0
O1813 O 0.54455 0.0093 0.13058 0.0
O1814 O 0.57555 0.04164 0.42853 0.0
O1815 O 0.53826 -0.0057 0.3393 0.0
O1816 O 0.53609 0.94303 0.29057 0.0
O1817 O 0.56602 0.95534 0.36176 0.0
O1818 O 0.54435 0.03604 0.39231 0.0
O1819 O 0.59174 0.99114 0.43342 0.0
C1820 C 0.58078 0.98205 0.20182 0.0
C1821 C 0.53165 0.97374 0.04245 0.0
C1822 C 0.54899 0.96664 0.93513 0.0
C1823 C 0.54063 0.98759 0.98527 0.0
C1824 C 0.54566 0.93177 0.93886 0.0
C1825 C 0.52646 0.93916 0.04253 0.0
C1826 C 0.53366 0.91825 0.99159 0.0
C1827 C 0.55373 0.06538 0.23728 0.0
C1828 C 0.52739 -0.0045 0.10042 0.0
C1829 C 0.44183 0.91951 0.16224 0.0
C1830 C 0.42563 0.95786 0.18141 0.0
C1831 C 0.52873 0.01343 0.38208 0.0
C1832 C 0.59222 0.02644 0.53028 0.0
C1833 C 0.58534 0.00541 0.58202 0.0
C1834 C 0.58713 0.01734 0.64619 0.0
C1835 C 0.59592 0.04958 0.65797 0.0
C1836 C 0.60061 0.05872 0.54278 0.0
C1837 C 0.60171 0.07031 0.60625 0.0
C1838 C 0.55055 0.93455 0.33699 0.0
C1839 C 0.58574 0.01872 0.46388 0.0
H1840 H 0.54238 0.01468 0.98162 0.0
H1841 H 0.5509 0.91539 0.89923 0.0
H1842 H 0.51623 0.92846 0.08051 0.0
H1843 H 0.52965 0.89165 0.99254 0.0
H1844 H 0.57678 0.98167 0.57219 0.0
H1845 H 0.59664 0.05985 0.70699 0.0
H1846 H 0.60503 0.07573 0.50329 0.0
H1847 H 0.60672 0.09567 0.61521 0.0
Eu1848 Eu 0.21769 0.98964 0.5307 0.0
C1849 C 0.12476 0.02468 0.45495 0.0
C1850 C 0.10638 0.97247 0.48368 0.0
C1851 C 0.08662 0.02514 0.50269 0.0
C1852 C 0.12569 0.99029 0.45987 0.0
C1853 C 0.10425 0.04183 0.47011 0.0
C1854 C 0.0877 0.99019 0.5091 0.0
C1855 C 0.11644 0.08438 0.3971 0.0
N1856 N 0.1427 0.04116 0.42788 0.0
C1857 C 0.13844 0.07041 0.39581 0.0
C1858 C 0.10082 0.07349 0.4435 0.0
Eu1859 Eu 0.17751 0.01158 0.41466 0.0
N1860 N 0.14564 0.97441 0.44478 0.0
C1861 C 0.14698 0.94057 0.45812 0.0
C1862 C 0.10704 0.93744 0.48597 0.0
C1863 C 0.12762 0.92133 0.47323 0.0
H1864 H 0.15145 0.08174 0.36618 0.0
H1865 H 0.1292 0.89452 0.48195 0.0
H1866 H 0.07436 0.97682 0.53478 0.0
H1867 H 0.11122 0.10234 0.36089 0.0
H1868 H 0.16295 0.92854 0.46685 0.0
H1869 H 0.30027 0.0861 0.45799 0.0
H1870 H 0.09243 0.92296 0.50286 0.0
H1871 H 0.21088 0.901 0.56834 0.0
H1872 H 0.25364 0.06668 0.44879 0.0
H1873 H 0.23585 0.85526 0.6033 0.0
H1874 H 0.07172 0.03885 0.51974 0.0
H1875 H 0.31985 0.01037 0.53023 0.0
H1876 H 0.34427 0.95686 0.58816 0.0
H1877 H 0.08481 0.08682 0.45063 0.0
H1878 H 0.31871 0.89665 0.61615 0.0
N1879 N 0.2546 0.01072 0.48899 0.0
C1880 C 0.26546 0.04754 0.46557 0.0
C1881 C 0.31912 0.03518 0.50992 0.0
C1882 C 0.3128 0.99281 0.53955 0.0
C1883 C 0.29593 0.06091 0.474 0.0
C1884 C 0.26821 0.98004 0.51867 0.0
H1885 H 0.27747 0.86106 0.6179 0.0
N1886 N 0.23734 0.93567 0.54538 0.0
C1887 C 0.24383 0.87865 0.58846 0.0
C1888 C 0.25989 0.94074 0.5442 0.0
C1889 C 0.22922 0.90505 0.56632 0.0
C1890 C 0.26781 0.88175 0.59715 0.0
C1891 C 0.27895 0.9114 0.5805 0.0
O1892 O 0.23836 0.98251 0.61767 0.0
O1893 O 0.18061 0.00564 0.52242 0.0
O1894 O 0.18073 0.05609 0.48995 0.0
O1895 O 0.21816 0.04696 0.52159 0.0
O1896 O 0.18624 0.96061 0.56939 0.0
O1897 O 0.20755 0.00967 0.62847 0.0
O1898 O 0.1801 0.04516 0.33231 0.0
O1899 O 0.21444 -0.00541 0.41997 0.0
O1900 O 0.21506 0.94337 0.46849 0.0
O1901 O 0.18655 0.95677 0.39323 0.0
O1902 O 0.20946 0.03694 0.36822 0.0
O1903 O 0.16096 -0.00273 0.32173 0.0
C1904 C 0.17087 0.98316 0.55712 0.0
C1905 C 0.21922 0.97349 0.71686 0.0
C1906 C 0.20242 0.96801 0.82526 0.0
C1907 C 0.21061 0.98815 0.7737 0.0
C1908 C 0.20507 0.93298 0.8226 0.0
C1909 C 0.22354 0.93865 0.71743 0.0
C1910 C 0.21623 0.91845 0.76936 0.0
C1911 C 0.19942 0.06589 0.52317 0.0
C1912 C 0.22426 -0.00516 0.65889 0.0
C1913 C 0.30966 0.91793 0.59622 0.0
C1914 C 0.32611 0.95617 0.57779 0.0
C1915 C 0.22461 0.01373 0.3785 0.0
C1916 C 0.16283 0.03545 0.22833 0.0
C1917 C 0.1678 0.01399 0.17571 0.0
C1918 C 0.1672 0.02684 0.11216 0.0
C1919 C 0.16096 0.06056 0.10141 0.0
C1920 C 0.15711 0.06929 0.21698 0.0
C1921 C 0.1565 0.08182 0.15373 0.0
C1922 C 0.20143 0.93549 0.41968 0.0
C1923 C 0.16843 0.02503 0.29448 0.0
H1924 H 0.2092 0.01535 0.77632 0.0
H1925 H 0.19987 0.9172 0.86322 0.0
H1926 H 0.23319 0.92715 0.67917 0.0
H1927 H 0.21958 0.89161 0.76873 0.0
H1928 H 0.17427 0.98876 0.1845 0.0
H1929 H 0.16086 0.07111 0.05255 0.0
H1930 H 0.15403 0.08653 0.25687 0.0
H1931 H 0.15248 0.108 0.14513 0.0
Eu1932 Eu 0.5348 0.74552 0.53266 0.0
C1933 C 0.62827 0.71181 0.46143 0.0
C1934 C 0.64655 0.76465 0.48705 0.0
C1935 C 0.66671 0.71253 0.50803 0.0
C1936 C 0.62721 0.74627 0.46474 0.0
C1937 C 0.64875 0.695 0.47863 0.0
C1938 C 0.66576 0.74756 0.51117 0.0
C1939 C 0.6363 0.64989 0.41241 0.0
N1940 N 0.61037 0.69482 0.43494 0.0
C1941 C 0.61455 0.66453 0.40663 0.0
C1942 C 0.65194 0.66238 0.45687 0.0
Eu1943 Eu 0.57558 0.72422 0.41816 0.0
N1944 N 0.60711 0.76172 0.44951 0.0
C1945 C 0.60547 0.79563 0.46194 0.0
C1946 C 0.64551 0.79967 0.48866 0.0
C1947 C 0.6247 0.81529 0.47645 0.0
H1948 H 0.60175 0.65323 0.37602 0.0
H1949 H 0.62292 0.84213 0.48436 0.0
H1950 H 0.67974 0.76142 0.5329 0.0
H1951 H 0.64235 0.63177 0.37849 0.0
H1952 H 0.58934 0.80754 0.46941 0.0
H1953 H 0.4516 0.65047 0.45904 0.0
H1954 H 0.66007 0.81457 0.50446 0.0
H1955 H 0.54245 0.83414 0.57049 0.0
H1956 H 0.49845 0.66886 0.45107 0.0
H1957 H 0.51761 0.88065 0.60322 0.0
H1958 H 0.68182 0.69928 0.52493 0.0
H1959 H 0.43256 0.72662 0.53056 0.0
H1960 H 0.40845 0.78064 0.58625 0.0
H1961 H 0.668 0.64932 0.46499 0.0
H1962 H 0.43461 0.84072 0.61461 0.0
N1963 N 0.49792 0.72479 0.49122 0.0
C1964 C 0.48677 0.68823 0.46762 0.0
C1965 C 0.4331 0.70181 0.51032 0.0
C1966 C 0.43975 0.74403 0.54011 0.0
C1967 C 0.45614 0.67556 0.47516 0.0
C1968 C 0.48455 0.75576 0.52069 0.0
H1969 H 0.47598 0.87534 0.61773 0.0
N1970 N 0.51576 0.79977 0.54772 0.0
C1971 C 0.50958 0.85711 0.58949 0.0
C1972 C 0.49319 0.79494 0.5465 0.0
C1973 C 0.52409 0.83032 0.56852 0.0
C1974 C 0.48558 0.85434 0.59793 0.0
C1975 C 0.47429 0.82472 0.58189 0.0
O1976 O 0.51351 0.75052 0.61849 0.0
O1977 O 0.57179 0.72975 0.52515 0.0
O1978 O 0.57191 0.67894 0.49157 0.0
O1979 O 0.53443 0.68832 0.52247 0.0
O1980 O 0.56616 0.77472 0.57191 0.0
O1981 O 0.5453 0.72655 0.63126 0.0
O1982 O 0.57557 0.69255 0.33253 0.0
O1983 O 0.5383 0.73983 0.42194 0.0
O1984 O 0.53617 0.79161 0.46909 0.0
O1985 O 0.56582 0.77857 0.39773 0.0
O1986 O 0.54445 0.69799 0.36922 0.0
O1987 O 0.59153 0.74327 0.32843 0.0
C1988 C 0.58149 0.75208 0.55991 0.0
C1989 C 0.53151 0.76193 0.7182 0.0
C1990 C 0.5483 0.77005 0.82585 0.0
C1991 C 0.54048 0.74863 0.77579 0.0
C1992 C 0.54457 0.80479 0.82137 0.0
C1993 C 0.52575 0.79631 0.71743 0.0
C1994 C 0.53253 0.81769 0.76813 0.0
C1995 C 0.55311 0.66928 0.52445 0.0
C1996 C 0.52779 0.73975 0.66066 0.0
C1997 C 0.44348 0.81891 0.59641 0.0
C1998 C 0.42669 0.78098 0.57758 0.0
C1999 C 0.52878 0.72055 0.37921 0.0
C2000 C 0.59165 0.7093 0.23045 0.0
C2001 C 0.58387 0.73053 0.18006 0.0
C2002 C 0.58587 0.7197 0.1152 0.0
C2003 C 0.59565 0.68837 0.10146 0.0
C2004 C 0.601 0.67787 0.21603 0.0
C2005 C 0.60236 0.66747 0.15187 0.0
C2006 C 0.55031 0.79953 0.42154 0.0
C2007 C 0.58553 0.71584 0.29751 0.0
H2008 H 0.54247 0.72162 0.7801 0.0
H2009 H 0.54942 0.82148 0.86095 0.0
H2010 H 0.51536 0.80644 0.67914 0.0
H2011 H 0.52809 0.84414 0.76668 0.0
H2012 H 0.57469 0.75357 0.19137 0.0
H2013 H 0.59666 0.67887 0.05191 0.0
H2014 H 0.60617 0.66066 0.25445 0.0
H2015 H 0.60837 0.64294 0.14117 0.0
Eu2016 Eu 0.82668 0.7645 0.16398 0.0
C2017 C 0.74435 0.69195 0.29575 0.0
C2018 C 0.69125 0.74359 0.29368 0.0
C2019 C 0.69456 0.66797 0.34722 0.0
C2020 C 0.73597 0.73115 0.27227 0.0
C2021 C 0.72537 0.66181 0.33071 0.0
C2022 C 0.67801 0.70642 0.33048 0.0
C2023 C 0.76031 0.62825 0.33 0.0
N2024 N 0.76656 0.68589 0.28977 0.0
C2025 C 0.77479 0.65485 0.30741 0.0
C2026 C 0.73648 0.63146 0.34227 0.0
Eu2027 Eu 0.78665 0.73904 0.27535 0.0
N2028 N 0.7494 0.76176 0.24234 0.0
C2029 C 0.73856 0.79879 0.22034 0.0
C2030 C 0.68492 0.78616 0.26509 0.0
C2031 C 0.70809 0.81215 0.22955 0.0
H2032 H 0.79308 0.65041 0.30532 0.0
H2033 H 0.70374 0.83743 0.21413 0.0
H2034 H 0.65984 0.70688 0.3407 0.0
H2035 H 0.76831 0.60439 0.34157 0.0
H2036 H 0.75037 0.81787 0.20319 0.0
H2037 H 0.86799 0.64131 0.22872 0.0
H2038 H 0.68419 0.76121 0.28478 0.0
H2039 H 0.85048 0.83986 0.17191 0.0
H2040 H 0.83655 0.67927 0.21247 0.0
H2041 H 0.88716 0.86662 0.21062 0.0
H2042 H 0.68539 0.64636 0.36554 0.0
H2043 H 0.90659 0.66429 0.247 0.0
H2044 H 0.92913 0.71471 0.27518 0.0
H2045 H 0.72695 0.6103 0.36172 0.0
H2046 H 0.93245 0.77666 0.27985 0.0
N2047 N 0.85663 0.7232 0.19183 0.0
C2048 C 0.85321 0.68959 0.20536 0.0
C2049 C 0.89295 0.68084 0.23068 0.0
C2050 C 0.89602 0.7156 0.22773 0.0
C2051 C 0.87128 0.6678 0.21999 0.0
C2052 C 0.87771 0.73631 0.20548 0.0
H2053 H 0.91919 0.83212 0.24361 0.0
N2054 N 0.86218 0.79061 0.1896 0.0
C2055 C 0.88535 0.83982 0.20663 0.0
C2056 C 0.88026 0.77089 0.20618 0.0
C2057 C 0.86477 0.82465 0.18682 0.0
C2058 C 0.90347 0.82016 0.22738 0.0
C2059 C 0.90095 0.7854 0.22864 0.0
O2060 O 0.83002 0.80272 0.08876 0.0
O2061 O 0.79001 0.74807 0.16653 0.0
O2062 O 0.78523 0.69609 0.204 0.0
O2063 O 0.81596 0.71024 0.1364 0.0
O2064 O 0.79543 0.79021 0.11481 0.0
O2065 O 0.84335 0.75158 0.07229 0.0
O2066 O 0.79638 0.71911 0.36994 0.0
O2067 O 0.82305 0.75955 0.2705 0.0
O2068 O 0.82207 0.80838 0.24122 0.0
O2069 O 0.78595 0.79651 0.28036 0.0
O2070 O 0.8195 0.71265 0.30988 0.0
O2071 O 0.76995 0.7567 0.36528 0.0
C2072 C 0.77998 0.76751 0.1256 0.0
C2073 C 0.83604 0.78595 0.97913 0.0
C2074 C 0.81695 0.7776 0.87366 0.0
C2075 C 0.81796 0.77107 0.94182 0.0
C2076 C 0.83508 0.79681 0.84632 0.0
C2077 C 0.85199 0.80722 0.94977 0.0
C2078 C 0.85129 0.81248 0.88371 0.0
C2079 C 0.7998 0.68881 0.15676 0.0
C2080 C 0.84001 0.78175 0.04875 0.0
C2081 C 0.91806 0.76514 0.25522 0.0
C2082 C 0.91593 0.73023 0.25333 0.0
C2083 C 0.83356 0.7374 0.3034 0.0
C2084 C 0.77332 0.72162 0.46177 0.0
C2085 C 0.78032 0.73352 0.52271 0.0
C2086 C 0.77494 0.71606 0.58044 0.0
C2087 C 0.76189 0.68604 0.57489 0.0
C2088 C 0.76127 0.69138 0.45837 0.0
C2089 C 0.75517 0.67394 0.5143 0.0
C2090 C 0.80378 0.81704 0.27729 0.0
C2091 C 0.7826 0.73788 0.40312 0.0
H2092 H 0.80509 0.75551 0.96518 0.0
H2093 H 0.83681 0.80194 0.79523 0.0
H2094 H 0.86528 0.81967 0.97805 0.0
H2095 H 0.86298 0.82927 0.86009 0.0
H2096 H 0.79016 0.75628 0.52401 0.0
H2097 H 0.7557 0.67221 0.61654 0.0
H2098 H 0.75674 0.68098 0.4129 0.0
H2099 H 0.74525 0.65093 0.51062 0.0
Eu2100 Eu 0.42318 0.47292 0.16171 0.0
C2101 C 0.51204 0.53704 0.26868 0.0
C2102 C 0.54364 0.47754 0.2648 0.0
C2103 C 0.55935 0.56234 0.31191 0.0
C2104 C 0.51713 0.49545 0.25409 0.0
C2105 C 0.53116 0.56711 0.29392 0.0
C2106 C 0.57279 0.52418 0.30634 0.0
C2107 C 0.4984 0.60414 0.29932 0.0
N2108 N 0.48971 0.54592 0.27047 0.0
C2109 C 0.48295 0.57784 0.28743 0.0
C2110 C 0.52194 0.59895 0.30319 0.0
Eu2111 Eu 0.46401 0.49977 0.27273 0.0
N2112 N 0.49918 0.47517 0.24261 0.0
C2113 C 0.50224 0.44225 0.22566 0.0
C2114 C 0.54363 0.44239 0.24797 0.0
C2115 C 0.52365 0.42648 0.22674 0.0
H2116 H 0.46483 0.58326 0.29211 0.0
H2117 H 0.52457 0.40024 0.21254 0.0
H2118 H 0.59105 0.52341 0.31875 0.0
H2119 H 0.49172 0.62901 0.30988 0.0
H2120 H 0.48776 0.42695 0.21153 0.0
H2121 H 0.37963 0.59351 0.23172 0.0
H2122 H 0.55857 0.42626 0.24954 0.0
H2123 H 0.40122 0.39614 0.17239 0.0
H2124 H 0.41169 0.55678 0.21482 0.0
H2125 H 0.36584 0.36747 0.21443 0.0
H2126 H 0.56902 0.58447 0.32444 0.0
H2127 H 0.34166 0.56872 0.25096 0.0
H2128 H 0.32092 0.51737 0.28092 0.0
H2129 H 0.53295 0.6198 0.31683 0.0
H2130 H 0.31825 0.45526 0.28293 0.0
N2131 N 0.39244 0.51243 0.19193 0.0
C2132 C 0.39522 0.54604 0.20654 0.0
C2133 C 0.35552 0.5529 0.23353 0.0
C2134 C 0.35325 0.51802 0.23036 0.0
C2135 C 0.37681 0.56698 0.22215 0.0
C2136 C 0.37179 0.49827 0.2066 0.0
H2137 H 0.33288 0.4005 0.24715 0.0
N2138 N 0.38845 0.44485 0.18957 0.0
C2139 C 0.36679 0.39439 0.20967 0.0
C2140 C 0.37005 0.4636 0.20731 0.0
C2141 C 0.38668 0.41066 0.18777 0.0
C2142 C 0.34824 0.41316 0.23042 0.0
C2143 C 0.34987 0.44804 0.23096 0.0
O2144 O 0.42032 0.43379 0.08802 0.0
O2145 O 0.45992 0.49086 0.1635 0.0
O2146 O 0.46205 0.54146 0.19856 0.0
O2147 O 0.43094 0.52762 0.13248 0.0
O2148 O 0.45499 0.44955 0.10998 0.0
O2149 O 0.40688 0.48447 0.06825 0.0
O2150 O 0.45799 0.52487 0.36463 0.0
O2151 O 0.4278 0.48031 0.26837 0.0
O2152 O 0.42788 0.42878 0.23807 0.0
O2153 O 0.46111 0.44364 0.29216 0.0
O2154 O 0.43224 0.52659 0.31206 0.0
O2155 O 0.48217 0.48291 0.36196 0.0
C2156 C 0.47023 0.47248 0.12107 0.0
C2157 C 0.415 0.44858 0.97653 0.0
C2158 C 0.43366 0.45633 0.86971 0.0
C2159 C 0.4326 0.4639 0.93774 0.0
C2160 C 0.41599 0.43574 0.84389 0.0
C2161 C 0.40003 0.42522 0.94876 0.0
C2162 C 0.40081 0.41885 0.88292 0.0
C2163 C 0.44694 0.54901 0.15297 0.0
C2164 C 0.41062 0.45408 0.04616 0.0
C2165 C 0.33244 0.46742 0.25836 0.0
C2166 C 0.33399 0.50241 0.25731 0.0
C2167 C 0.41783 0.50239 0.30322 0.0
C2168 C 0.48062 0.51823 0.45818 0.0
C2169 C 0.47315 0.50439 0.51755 0.0
C2170 C 0.47722 0.52076 0.57727 0.0
C2171 C 0.49104 0.55014 0.57544 0.0
C2172 C 0.49311 0.54824 0.45788 0.0
C2173 C 0.49888 0.56356 0.51652 0.0
C2174 C 0.4446 0.42177 0.28078 0.0
C2175 C 0.47097 0.50459 0.39804 0.0
H2176 H 0.44505 0.48064 0.95984 0.0
H2177 H 0.41388 0.43073 0.7926 0.0
H2178 H 0.38732 0.41214 0.97808 0.0
H2179 H 0.38977 0.40059 0.86063 0.0
H2180 H 0.46339 0.48152 0.51595 0.0
H2181 H 0.49696 0.56226 0.61913 0.0
H2182 H 0.49813 0.56005 0.4126 0.0
H2183 H 0.50927 0.58613 0.51619 0.0
Eu2184 Eu 0.82529 0.47558 0.09416 0.0
C2185 C 0.74314 0.54457 0.96174 0.0
C2186 C 0.69012 0.49259 0.96799 0.0
C2187 C 0.69324 0.5672 0.91035 0.0
C2188 C 0.73483 0.50515 0.98799 0.0
C2189 C 0.72397 0.57379 0.92535 0.0
C2190 C 0.67682 0.52914 0.92961 0.0
C2191 C 0.75869 0.60752 0.92023 0.0
N2192 N 0.7656 0.55024 0.962 0.0
C2193 C 0.77351 0.58131 0.94235 0.0
C2194 C 0.73484 0.60381 0.91002 0.0
Eu2195 Eu 0.78507 0.49625 0.97811 0.0
N2196 N 0.74833 0.47446 0.01843 0.0
C2197 C 0.73734 0.43775 0.04238 0.0
C2198 C 0.68369 0.45045 0.99839 0.0
C2199 C 0.70679 0.42465 0.03439 0.0
H2200 H 0.79179 0.58599 0.94174 0.0
H2201 H 0.7023 0.39959 0.05084 0.0
H2202 H 0.65863 0.52855 0.9197 0.0
H2203 H 0.76638 0.63141 0.90718 0.0
H2204 H 0.74904 0.41862 0.05993 0.0
H2205 H 0.87401 0.59148 0.02228 0.0
H2206 H 0.68306 0.47517 0.97772 0.0
H2207 H 0.85162 0.40714 0.14787 0.0
H2208 H 0.8401 0.5576 0.03794 0.0
H2209 H 0.89075 0.38414 0.1493 0.0
H2210 H 0.68397 0.58846 0.89107 0.0
H2211 H 0.91084 0.56276 1.00343 0.0
H2212 H 0.92989 0.50856 0.978 0.0
H2213 H 0.72496 0.62448 0.89 0.0
H2214 H 0.93176 0.44671 0.99289 0.0
N2215 N 0.85734 0.51202 0.06174 0.0
C2216 C 0.85609 0.54573 0.04738 0.0
C2217 C 0.89613 0.54843 0.02006 0.0
C2218 C 0.89674 0.51341 0.02336 0.0
C2219 C 0.87553 0.56474 0.03182 0.0
C2220 C 0.87723 0.49589 0.0468 0.0
H2221 H 0.91683 0.39795 0.05656 0.0
N2222 N 0.86005 0.44583 0.08156 0.0
C2223 C 0.88592 0.4023 0.1131 0.0
C2224 C 0.87797 0.46158 0.0528 0.0
C2225 C 0.86434 0.41736 0.11593 0.0
C2226 C 0.90128 0.41216 0.06499 0.0
C2227 C 0.89837 0.44396 0.03822 0.0
O2228 O 0.82254 0.44312 0.17831 0.0
O2229 O 0.7882 0.49248 0.08926 0.0
O2230 O 0.78744 0.54294 0.03987 0.0
O2231 O 0.81669 0.53077 0.11348 0.0
O2232 O 0.7935 0.45015 0.14126 0.0
O2233 O 0.84198 0.49093 0.18596 0.0
O2234 O 0.76411 0.50129 0.89132 0.0
O2235 O 0.82192 0.48009 0.98647 0.0
O2236 O 0.82207 0.43022 0.02083 0.0
O2237 O 0.78459 0.43912 0.98989 0.0
O2238 O 0.81641 0.52496 0.93867 0.0
O2239 O 0.79575 0.47671 0.88017 0.0
C2240 C 0.77825 0.47325 0.13116 0.0
C2241 C 0.83993 0.4545 0.2814 0.0
C2242 C 0.83509 0.46467 0.39671 0.0
C2243 C 0.83417 0.47643 0.33251 0.0
C2244 C 0.84247 0.43172 0.40969 0.0
C2245 C 0.84644 0.4212 0.29485 0.0
C2246 C 0.84733 0.40989 0.35886 0.0
C2247 C 0.80157 0.55164 0.08711 0.0
C2248 C 0.83435 0.46371 0.21479 0.0
C2249 C 0.91653 0.46045 0.00731 0.0
C2250 C 0.91578 0.49542 1.00064 0.0
C2251 C 0.83165 0.50226 0.95122 0.0
C2252 C 0.78263 0.51208 0.79246 0.0
C2253 C 0.79093 0.4981 0.73486 0.0
C2254 C 0.79904 0.51886 0.68427 0.0
C2255 C 0.79627 0.55383 0.68828 0.0
C2256 C 0.77786 0.54679 0.79311 0.0
C2257 C 0.78494 0.56765 0.74192 0.0
C2258 C 0.80326 0.4201 0.9885 0.0
C2259 C 0.77848 0.49014 0.84996 0.0
H2260 H 0.82694 0.50105 0.3221 0.0
H2261 H 0.84292 0.42194 0.45908 0.0
H2262 H 0.85 0.40344 0.2562 0.0
H2263 H 0.85193 0.3842 0.36936 0.0
H2264 H 0.79238 0.47096 0.7312 0.0
H2265 H 0.80141 0.57008 0.64831 0.0
H2266 H 0.768 0.55761 0.8316 0.0
H2267 H 0.78133 0.5944 0.74344 0.0
Eu2268 Eu 0.42375 0.76303 0.10155 0.0
C2269 C 0.51214 0.70112 0.99258 0.0
C2270 C 0.54402 0.76038 0.99699 0.0
C2271 C 0.55937 0.67553 0.94922 0.0
C2272 C 0.51741 0.74267 0.00757 0.0
C2273 C 0.53114 0.67095 0.96703 0.0
C2274 C 0.57296 0.71357 0.95516 0.0
C2275 C 0.49812 0.63454 0.95885 0.0
N2276 N 0.48976 0.69246 0.99019 0.0
C2277 C 0.48283 0.66087 0.9716 0.0
C2278 C 0.52172 0.63935 0.95625 0.0
Eu2279 Eu 0.46426 0.73867 0.98968 0.0
N2280 N 0.49954 0.76313 0.01899 0.0
C2281 C 0.50272 0.7961 0.03542 0.0
C2282 C 0.54414 0.79556 0.01341 0.0
C2283 C 0.52418 0.81174 0.03378 0.0
H2284 H 0.46469 0.65579 0.96626 0.0
H2285 H 0.52518 0.83813 0.04669 0.0
H2286 H 0.59121 0.71424 0.94268 0.0
H2287 H 0.49122 0.61009 0.94638 0.0
H2288 H 0.48833 0.81156 0.04957 0.0
H2289 H 0.37857 0.6438 0.0283 0.0
H2290 H 0.55913 0.81158 0.01175 0.0
H2291 H 0.39223 0.82916 0.15626 0.0
H2292 H 0.41132 0.67883 0.04994 0.0
H2293 H 0.3548 0.85366 0.13655 0.0
H2294 H 0.56896 0.65338 0.93621 0.0
H2295 H 0.34173 0.67075 1.00163 0.0
H2296 H 0.32236 0.7237 0.97026 0.0
H2297 H 0.5326 0.61851 0.94186 0.0
H2298 H 0.31974 0.78584 0.97762 0.0
N2299 N 0.39283 0.72434 0.06792 0.0
C2300 C 0.395 0.69049 0.05499 0.0
C2301 C 0.35574 0.68584 0.0205 0.0
C2302 C 0.35439 0.72083 0.02243 0.0
C2303 C 0.37635 0.67056 0.03643 0.0
C2304 C 0.37298 0.73943 0.04874 0.0
H2305 H 0.33158 0.83607 0.04173 0.0
N2306 N 0.38807 0.79055 0.08516 0.0
C2307 C 0.36101 0.83458 0.10448 0.0
C2308 C 0.37145 0.7738 0.0526 0.0
C2309 C 0.3819 0.81899 0.11769 0.0
C2310 C 0.34727 0.82288 0.05407 0.0
C2311 C 0.35134 0.79046 0.03163 0.0
O2312 O 0.4249 0.79936 0.17943 0.0
O2313 O 0.46081 0.74613 0.09918 0.0
O2314 O 0.46335 0.69646 0.0634 0.0
O2315 O 0.43169 0.70837 0.12819 0.0
O2316 O 0.4554 0.78821 0.15046 0.0
O2317 O 0.40745 0.75065 0.19515 0.0
O2318 O 0.45795 0.71506 0.89662 0.0
O2319 O 0.42787 0.75712 0.99396 0.0
O2320 O 0.42615 0.80858 0.02739 0.0
O2321 O 0.46007 0.7952 0.97451 0.0
O2322 O 0.43284 0.71082 0.95068 0.0
O2323 O 0.48286 0.75597 0.90135 0.0
C2324 C 0.47076 0.76525 0.14114 0.0
C2325 C 0.41625 0.78545 0.28849 0.0
C2326 C 0.43577 0.7813 0.39372 0.0
C2327 C 0.43386 0.77111 0.32765 0.0
C2328 C 0.41902 0.80412 0.4179 0.0
C2329 C 0.40179 0.81028 0.31353 0.0
C2330 C 0.40357 0.81982 0.3778 0.0
C2331 C 0.44812 0.68778 0.10792 0.0
C2332 C 0.41332 0.78 0.21902 0.0
C2333 C 0.33443 0.77278 0.99778 0.0
C2334 C 0.3357 0.73773 0.9947 0.0
C2335 C 0.41824 0.73483 0.95866 0.0
C2336 C 0.48121 0.72085 0.80481 0.0
C2337 C 0.4737 0.73414 0.74514 0.0
C2338 C 0.47762 0.71711 0.6861 0.0
C2339 C 0.49105 0.68737 0.68876 0.0
C2340 C 0.49337 0.69055 0.80602 0.0
C2341 C 0.49885 0.67441 0.74801 0.0
C2342 C 0.44308 0.81648 0.98551 0.0
C2343 C 0.47142 0.73502 0.86424 0.0
H2344 H 0.44583 0.75323 0.30691 0.0
H2345 H 0.41768 0.81158 0.4683 0.0
H2346 H 0.38922 0.82279 0.28284 0.0
H2347 H 0.39313 0.83965 0.39781 0.0
H2348 H 0.46377 0.75693 0.74616 0.0
H2349 H 0.49672 0.6746 0.64548 0.0
H2350 H 0.4983 0.67904 0.85151 0.0
H2351 H 0.50895 0.65156 0.74907 0.0
Eu2352 Eu 0.21643 0.24766 0.73394 0.0
C2353 C 0.12599 0.2061 0.80846 0.0
C2354 C 0.10735 0.25636 0.76994 0.0
C2355 C 0.08873 0.20241 0.7564 0.0
C2356 C 0.1265 0.24037 0.79849 0.0
C2357 C 0.10552 0.18825 0.79621 0.0
C2358 C 0.09008 0.23667 0.74209 0.0
C2359 C 0.11586 0.15277 0.88432 0.0
N2360 N 0.14349 0.19145 0.84115 0.0
C2361 C 0.1383 0.16528 0.88194 0.0
C2362 C 0.10096 0.15992 0.83343 0.0
Eu2363 Eu 0.17808 0.22282 0.84605 0.0
N2364 N 0.14564 0.25793 0.81491 0.0
C2365 C 0.14597 0.29194 0.80217 0.0
C2366 C 0.10679 0.29138 0.76617 0.0
C2367 C 0.12627 0.30938 0.78305 0.0
H2368 H 0.15064 0.15528 0.91584 0.0
H2369 H 0.12698 0.33626 0.77424 0.0
H2370 H 0.07774 0.2481 0.70991 0.0
H2371 H 0.11003 0.1376 0.92478 0.0
H2372 H 0.16162 0.3054 0.79669 0.0
H2373 H 0.29958 0.14921 0.79382 0.0
H2374 H 0.09211 0.30444 0.74583 0.0
H2375 H 0.20993 0.33655 0.70458 0.0
H2376 H 0.25282 0.16835 0.80413 0.0
H2377 H 0.23486 0.3831 0.67157 0.0
H2378 H 0.07401 0.18785 0.74071 0.0
H2379 H 0.31904 0.22597 0.72506 0.0
H2380 H 0.34337 0.28083 0.67246 0.0
H2381 H 0.08468 0.14695 0.82958 0.0
H2382 H 0.31742 0.34201 0.65087 0.0
N2383 N 0.25368 0.22467 0.76595 0.0
C2384 C 0.26461 0.18759 0.78751 0.0
C2385 C 0.31835 0.20091 0.74423 0.0
C2386 C 0.31192 0.24359 0.71631 0.0
C2387 C 0.29517 0.17452 0.77875 0.0
C2388 C 0.26708 0.2556 0.73703 0.0
H2389 H 0.27624 0.37726 0.65218 0.0
N2390 N 0.23643 0.3009 0.7197 0.0
C2391 C 0.24276 0.35901 0.682 0.0
C2392 C 0.25867 0.29492 0.71433 0.0
C2393 C 0.22822 0.33211 0.70276 0.0
C2394 C 0.26662 0.35589 0.67032 0.0
C2395 C 0.27765 0.32537 0.68081 0.0
O2396 O 0.20699 0.2686 0.64033 0.0
O2397 O 0.18003 0.22692 0.73804 0.0
O2398 O 0.18122 0.17744 0.77177 0.0
O2399 O 0.21681 0.19011 0.72884 0.0
O2400 O 0.18369 0.27429 0.70013 0.0
O2401 O 0.23323 0.23045 0.64424 0.0
O2402 O 0.18101 0.19196 0.93205 0.0
O2403 O 0.21429 0.24108 0.84329 0.0
O2404 O 0.21828 0.29059 0.80402 0.0
O2405 O 0.18601 0.27887 0.86581 0.0
O2406 O 0.21013 0.19706 0.8904 0.0
O2407 O 0.16063 0.23933 0.93442 0.0
C2408 C 0.16976 0.2493 0.70457 0.0
C2409 C 0.22995 0.26611 0.54918 0.0
C2410 C 0.22759 0.27206 0.43148 0.0
C2411 C 0.22251 0.25444 0.48887 0.0
C2412 C 0.24083 0.30193 0.43655 0.0
C2413 C 0.24207 0.2963 0.55262 0.0
C2414 C 0.24793 0.31387 0.49679 0.0
C2415 C 0.19921 0.16917 0.73383 0.0
C2416 C 0.2207 0.24978 0.60709 0.0
C2417 C 0.30844 0.31959 0.66507 0.0
C2418 C 0.32512 0.28111 0.681 0.0
C2419 C 0.22474 0.22129 0.88255 0.0
C2420 C 0.16719 0.20995 0.03418 0.0
C2421 C 0.18519 0.22164 0.07392 0.0
C2422 C 0.18513 0.21285 0.14009 0.0
C2423 C 0.16652 0.19341 0.16426 0.0
C2424 C 0.14964 0.18987 0.05886 0.0
C2425 C 0.14972 0.1812 0.12371 0.0
C2426 C 0.2023 0.29984 0.84552 0.0
C2427 C 0.16775 0.21235 0.96488 0.0
H2428 H 0.21231 0.2319 0.48805 0.0
H2429 H 0.24689 0.31575 0.3948 0.0
H2430 H 0.24682 0.30659 0.5979 0.0
H2431 H 0.25794 0.33679 0.5003 0.0
H2432 H 0.19923 0.23602 0.05323 0.0
H2433 H 0.1648 0.18591 0.21446 0.0
H2434 H 0.13646 0.17953 0.02727 0.0
H2435 H 0.13748 0.16377 0.14284 0.0
Eu2436 Eu 0.53347 0.489 0.72952 0.0
C2437 C 0.62686 0.52523 0.79774 0.0
C2438 C 0.64569 0.47258 0.77371 0.0
C2439 C 0.66542 0.52485 0.75132 0.0
C2440 C 0.62619 0.49063 0.79601 0.0
C2441 C 0.64722 0.54229 0.77982 0.0
C2442 C 0.66468 0.48986 0.7487 0.0
C2443 C 0.6347 0.58753 0.84536 0.0
N2444 N 0.60897 0.54212 0.82467 0.0
C2445 C 0.61307 0.57265 0.85229 0.0
C2446 C 0.65021 0.57508 0.80065 0.0
Eu2447 Eu 0.57455 0.51209 0.84358 0.0
N2448 N 0.60664 0.47463 0.81523 0.0
C2449 C 0.60633 0.43995 0.81201 0.0
C2450 C 0.6454 0.43758 0.77483 0.0
C2451 C 0.6256 0.42122 0.79416 0.0
H2452 H 0.60038 0.58407 0.8833 0.0
H2453 H 0.62474 0.39398 0.7924 0.0
H2454 H 0.67889 0.47617 0.72775 0.0
H2455 H 0.64097 0.60561 0.87896 0.0
H2456 H 0.59143 0.42532 0.81889 0.0
H2457 H 0.4522 0.58714 0.80518 0.0
H2458 H 0.66005 0.42301 0.75857 0.0
H2459 H 0.53919 0.40095 0.68832 0.0
H2460 H 0.4986 0.56647 0.81341 0.0
H2461 H 0.51363 0.35581 0.65385 0.0
H2462 H 0.68071 0.53803 0.73529 0.0
H2463 H 0.43161 0.5123 0.73187 0.0
H2464 H 0.40646 0.45972 0.67297 0.0
H2465 H 0.66617 0.58833 0.79205 0.0
H2466 H 0.4312 0.39911 0.64372 0.0
N2467 N 0.49687 0.51069 0.77257 0.0
C2468 C 0.48651 0.54769 0.79665 0.0
C2469 C 0.43267 0.53698 0.75261 0.0
C2470 C 0.43842 0.49462 0.7222 0.0
C2471 C 0.45621 0.56191 0.78876 0.0
C2472 C 0.48282 0.48058 0.74239 0.0
H2473 H 0.47206 0.36256 0.64048 0.0
N2474 N 0.51313 0.43573 0.71416 0.0
C2475 C 0.50595 0.37928 0.66933 0.0
C2476 C 0.49064 0.44126 0.71604 0.0
C2477 C 0.5209 0.40526 0.69145 0.0
C2478 C 0.48198 0.38289 0.66155 0.0
C2479 C 0.47119 0.41262 0.67935 0.0
O2480 O 0.51239 0.48341 0.64308 0.0
O2481 O 0.57045 0.50456 0.73731 0.0
O2482 O 0.57097 0.5567 0.76932 0.0
O2483 O 0.53367 0.54667 0.73636 0.0
O2484 O 0.56476 0.45946 0.6911 0.0
O2485 O 0.54385 0.50867 0.63154 0.0
O2486 O 0.57463 0.54389 0.92889 0.0
O2487 O 0.53748 0.49542 0.83991 0.0
O2488 O 0.53715 0.44156 0.78978 0.0
O2489 O 0.5643 0.45875 0.86543 0.0
O2490 O 0.54302 0.53799 0.89122 0.0
O2491 O 0.59067 0.49317 0.933 0.0
C2492 C 0.58023 0.4818 0.70395 0.0
C2493 C 0.53063 0.47386 0.54284 0.0
C2494 C 0.54769 0.46733 0.43509 0.0
C2495 C 0.53952 0.48804 0.48582 0.0
C2496 C 0.54433 0.43245 0.4382 0.0
C2497 C 0.52528 0.43934 0.54213 0.0
C2498 C 0.53237 0.41869 0.49072 0.0
C2499 C 0.55237 0.56585 0.73514 0.0
C2500 C 0.52655 0.49519 0.60145 0.0
C2501 C 0.44056 0.42001 0.66402 0.0
C2502 C 0.42462 0.45855 0.68326 0.0
C2503 C 0.52763 0.51493 0.88147 0.0
C2504 C 0.591 0.52729 0.03054 0.0
C2505 C 0.58321 0.50635 0.08135 0.0
C2506 C 0.58562 0.51732 0.14598 0.0
C2507 C 0.59584 0.54844 0.15906 0.0
C2508 C 0.60082 0.55848 0.0442 0.0
C2509 C 0.60261 0.56901 0.10817 0.0
C2510 C 0.55066 0.43568 0.84009 0.0
C2511 C 0.58471 0.52064 0.96381 0.0
H2512 H 0.54132 0.51515 0.48267 0.0
H2513 H 0.54947 0.41625 0.39819 0.0
H2514 H 0.51501 0.42851 0.57985 0.0
H2515 H 0.52828 0.39211 0.49111 0.0
H2516 H 0.57374 0.48348 0.07057 0.0
H2517 H 0.59709 0.55809 0.20847 0.0
H2518 H 0.60601 0.57544 0.00537 0.0
H2519 H 0.60881 0.59349 0.11824 0.0
Eu2520 Eu 0.21678 0.48914 0.02216 0.0
C2521 C 0.12359 0.52253 0.95568 0.0
C2522 C 0.10684 0.46886 0.98276 0.0
C2523 C 0.0858 0.52008 0.00567 0.0
C2524 C 0.12549 0.48813 0.95857 0.0
C2525 C 0.10294 0.53844 0.97438 0.0
C2526 C 0.08748 0.48507 0.00839 0.0
C2527 C 0.11376 0.58419 0.90682 0.0
N2528 N 0.14079 0.54033 0.92789 0.0
C2529 C 0.13536 0.56984 0.89813 0.0
C2530 C 0.09887 0.57103 0.95292 0.0
Eu2531 Eu 0.17649 0.51338 0.91062 0.0
N2532 N 0.14582 0.4737 0.9414 0.0
C2533 C 0.14837 0.43991 0.95428 0.0
C2534 C 0.10879 0.43394 0.98515 0.0
C2535 C 0.12983 0.41939 0.97137 0.0
H2536 H 0.14683 0.58101 0.86366 0.0
H2537 H 0.13237 0.39271 0.97965 0.0
H2538 H 0.07397 0.4706 0.03115 0.0
H2539 H 0.10798 0.60347 0.8746 0.0
H2540 H 0.1648 0.42864 0.95982 0.0
H2541 H 0.30044 0.58546 0.9578 0.0
H2542 H 0.09481 0.41836 1.00268 0.0
H2543 H 0.20985 0.40068 0.05413 0.0
H2544 H 0.25373 0.56631 0.94713 0.0
H2545 H 0.23429 0.35445 0.09138 0.0
H2546 H 0.07083 0.53275 0.02489 0.0
H2547 H 0.31946 0.50967 0.03118 0.0
H2548 H 0.34341 0.45565 0.08982 0.0
H2549 H 0.08274 0.58353 0.96296 0.0
H2550 H 0.3176 0.39628 0.11867 0.0
N2551 N 0.25437 0.51054 0.98789 0.0
C2552 C 0.26544 0.54722 0.96474 0.0
C2553 C 0.31891 0.53446 0.01065 0.0
C2554 C 0.31229 0.49223 0.04049 0.0
C2555 C 0.29595 0.56035 0.97392 0.0
C2556 C 0.26764 0.48008 0.01879 0.0
H2557 H 0.27559 0.3601 0.11285 0.0
N2558 N 0.23663 0.43573 0.03813 0.0
C2559 C 0.24244 0.37823 0.07975 0.0
C2560 C 0.25894 0.44132 0.04362 0.0
C2561 C 0.22816 0.4049 0.05639 0.0
C2562 C 0.26626 0.38123 0.09261 0.0
C2563 C 0.27766 0.41127 0.08011 0.0
O2564 O 0.20695 0.47079 0.11751 0.0
O2565 O 0.18026 0.50909 0.01732 0.0
O2566 O 0.17999 0.55784 0.98723 0.0
O2567 O 0.21662 0.54694 0.02438 0.0
O2568 O 0.18424 0.46227 0.05725 0.0
O2569 O 0.23371 0.50784 0.11105 0.0
O2570 O 0.17767 0.54956 0.8323 0.0
O2571 O 0.21309 0.49686 0.91366 0.0
O2572 O 0.21761 0.44573 0.95213 0.0
O2573 O 0.18637 0.45872 0.88547 0.0
O2574 O 0.20793 0.53939 0.86318 0.0
O2575 O 0.15918 0.50158 0.81856 0.0
C2576 C 0.17004 0.48685 0.05083 0.0
C2577 C 0.22988 0.47365 0.20853 0.0
C2578 C 0.22732 0.46817 0.32684 0.0
C2579 C 0.22275 0.48591 0.26897 0.0
C2580 C 0.23989 0.43771 0.32201 0.0
C2581 C 0.2414 0.44296 0.20572 0.0
C2582 C 0.24683 0.42534 0.26189 0.0
C2583 C 0.19843 0.56697 0.02269 0.0
C2584 C 0.22085 0.48975 0.14971 0.0
C2585 C 0.30851 0.41726 0.09711 0.0
C2586 C 0.32528 0.4553 0.07896 0.0
C2587 C 0.2232 0.51639 0.87322 0.0
C2588 C 0.1671 0.53589 0.72482 0.0
C2589 C 0.18442 0.52136 0.68531 0.0
C2590 C 0.1857 0.53083 0.619 0.0
C2591 C 0.16863 0.55311 0.59471 0.0
C2592 C 0.15226 0.5603 0.69994 0.0
C2593 C 0.15349 0.56922 0.63519 0.0
C2594 C 0.20262 0.43769 0.90638 0.0
C2595 C 0.16503 0.53083 0.7943 0.0
H2596 H 0.2133 0.50905 0.26956 0.0
H2597 H 0.24553 0.42367 0.36392 0.0
H2598 H 0.24603 0.43235 0.16052 0.0
H2599 H 0.25635 0.40198 0.2587 0.0
H2600 H 0.19674 0.50398 0.70605 0.0
H2601 H 0.16707 0.5601 0.5441 0.0
H2602 H 0.13991 0.573 0.73105 0.0
H2603 H 0.14308 0.58907 0.61529 0.0
Eu2604 Eu 0.53723 0.25238 0.03634 0.0
C2605 C 0.62636 0.20893 0.96905 0.0
C2606 C 0.6466 0.26065 0.9908 0.0
C2607 C 0.66461 0.20739 0.01702 0.0
C2608 C 0.62679 0.2435 0.96888 0.0
C2609 C 0.64642 0.1909 0.98613 0.0
C2610 C 0.66459 0.24252 0.01955 0.0
C2611 C 0.63484 0.14985 0.90925 0.0
N2612 N 0.60872 0.19356 0.93798 0.0
C2613 C 0.61321 0.1649 0.90414 0.0
C2614 C 0.64966 0.15934 0.95878 0.0
Eu2615 Eu 0.5753 0.22586 0.91883 0.0
N2616 N 0.60881 0.26014 0.94151 0.0
C2617 C 0.61152 0.29351 0.92599 0.0
C2618 C 0.64792 0.29542 0.98226 0.0
C2619 C 0.63056 0.31177 0.94805 0.0
H2620 H 0.60098 0.15552 0.86938 0.0
H2621 H 0.63208 0.33838 0.93723 0.0
H2622 H 0.67896 0.25562 0.04095 0.0
H2623 H 0.64122 0.13379 0.87158 0.0
H2624 H 0.5998 0.30628 0.89407 0.0
H2625 H 0.47976 0.1491 0.97252 0.0
H2626 H 0.66276 0.30948 0.99888 0.0
H2627 H 0.53356 0.3392 0.03936 0.0
H2628 H 0.51596 0.17734 0.97311 0.0
H2629 H 0.50598 0.38186 0.04539 0.0
H2630 H 0.67964 0.19358 0.03308 0.0
H2631 H 0.44478 0.17456 1.00269 0.0
H2632 H 0.41048 0.27063 0.06951 0.0
H2633 H 0.66555 0.14572 0.96602 0.0
H2634 H 0.43083 0.33285 0.06896 0.0
N2635 N 0.50336 0.22605 0.99678 0.0
C2636 C 0.50109 0.19246 0.98371 0.0
C2637 C 0.45942 0.19127 1.00108 0.0
C2638 C 0.45863 0.2266 0.01581 0.0
C2639 C 0.47996 0.1758 0.98357 0.0
C2640 C 0.48474 0.24572 1.00369 0.0
H2641 H 0.46526 0.37016 0.05615 0.0
N2642 N 0.51092 0.29789 0.01782 0.0
C2643 C 0.50001 0.35649 0.03761 0.0
C2644 C 0.48874 0.28777 0.01559 0.0
C2645 C 0.51629 0.33116 0.02962 0.0
C2646 C 0.47688 0.34975 0.04436 0.0
C2647 C 0.46895 0.31703 0.04023 0.0
O2648 O 0.5175 0.27648 0.11242 0.0
O2649 O 0.57329 0.23303 0.02712 0.0
O2650 O 0.57109 0.17888 0.98928 0.0
O2651 O 0.54106 0.19653 0.05611 0.0
O2652 O 0.5691 0.27702 0.08011 0.0
O2653 O 0.53594 0.23237 0.13822 0.0
O2654 O 0.57401 0.19552 0.83124 0.0
O2655 O 0.53883 0.24689 0.92197 0.0
O2656 O 0.55624 0.29785 1.00347 0.0
O2657 O 0.56329 0.27945 0.89988 0.0
O2658 O 0.54308 0.20139 0.87508 0.0
O2659 O 0.59251 0.24426 0.8303 0.0
C2660 C 0.58379 0.25423 0.06329 0.0
C2661 C 0.52971 0.27481 0.22132 0.0
C2662 C 0.54705 0.27469 0.33013 0.0
C2663 C 0.53813 0.25707 0.27588 0.0
C2664 C 0.54442 0.30978 0.33329 0.0
C2665 C 0.52678 0.31002 0.22654 0.0
C2666 C 0.53376 0.32714 0.2826 0.0
C2667 C 0.55594 0.17326 0.0378 0.0
C2668 C 0.52337 0.25708 0.1598 0.0
C2669 C 0.44113 0.31093 0.05982 0.0
C2670 C 0.42868 0.27211 0.05669 0.0
C2671 C 0.52894 0.22653 0.88063 0.0
C2672 C 0.59176 0.21149 0.73088 0.0
C2673 C 0.58481 0.23338 0.68058 0.0
C2674 C 0.58778 0.22341 0.61551 0.0
C2675 C 0.59789 0.19223 0.60165 0.0
C2676 C 0.60121 0.18015 0.71628 0.0
C2677 C 0.60361 0.17049 0.65191 0.0
C2678 C 0.55988 0.30383 0.94209 0.0
C2679 C 0.58541 0.21799 0.79782 0.0
H2680 H 0.53908 0.22982 0.27425 0.0
H2681 H 0.54982 0.32379 0.37603 0.0
H2682 H 0.51912 0.32453 0.18736 0.0
H2683 H 0.53115 0.35404 0.2866 0.0
H2684 H 0.57545 0.25626 0.69188 0.0
H2685 H 0.5995 0.18323 0.55189 0.0
H2686 H 0.6057 0.16244 0.75447 0.0
H2687 H 0.60928 0.14569 0.641 0.0
C2688 C 0.2494 0.26569 0.94796 0.0
C2689 C 0.23956 0.23309 0.94241 0.0
H2690 H 0.26854 0.30189 0.00577 0.0
C2691 C 0.24287 0.21213 0.99819 0.0
H2692 H 0.24787 0.28299 0.90745 0.0
C2693 C 0.25491 0.22306 0.05568 0.0
C2694 C 0.26463 0.25573 0.0614 0.0
H2695 H 0.2358 0.18689 0.99797 0.0
H2696 H 0.25655 0.20559 0.09596 0.0
C2697 C 0.26142 0.27668 0.00552 0.0
C2698 C 0.00688 0.96869 0.95367 0.0
C2699 C 0.01276 0.00276 0.94036 0.0
H2700 H 0.99123 0.93202 0.01867 0.0
C2701 C 0.00606 0.02582 0.99027 0.0
H2702 H 0.01155 0.94952 0.91869 0.0
C2703 C 0.99434 0.01567 0.04903 0.0
C2704 C 0.98846 0.98159 0.06231 0.0
H2705 H 0.01006 0.05227 0.98417 0.0
H2706 H 0.98976 0.03491 0.08405 0.0
C2707 C 0.99516 0.9585 0.01244 0.0
C2708 C 0.2401 0.96874 0.29286 0.0
C2709 C 0.24005 0.00196 0.31924 0.0
H2710 H 0.25195 0.93375 0.21833 0.0
C2711 C 0.25347 0.02527 0.28271 0.0
H2712 H 0.22996 0.94949 0.31632 0.0
C2713 C 0.26609 0.01615 0.2248 0.0
C2714 C 0.26608 0.98305 0.19799 0.0
H2715 H 0.25431 0.05113 0.29919 0.0
H2716 H 0.27629 0.03538 0.20202 0.0
C2717 C 0.25274 0.95964 0.23476 0.0
C2718 C 0.99884 0.21069 0.28344 0.0
C2719 C 0.01247 0.23385 0.31969 0.0
H2720 H 0.97586 0.20093 0.20299 0.0
C2721 C 0.01277 0.26698 0.29287 0.0
H2722 H 0.99771 0.18488 0.30029 0.0
C2723 C 1.00029 0.27614 0.23452 0.0
C2724 C 0.98676 0.25287 0.19796 0.0
H2725 H 0.02309 0.28609 0.31615 0.0
H2726 H 1.00134 0.30194 0.21771 0.0
C2727 C 0.98634 0.21992 0.22536 0.0
C2728 C 0.74269 0.71183 1.00402 0.0
C2729 C 0.73829 0.7332 0.94942 0.0
H2730 H 0.7574 0.70505 0.10043 0.0
C2731 C 0.74732 0.76628 0.9558 0.0
H2732 H 0.73621 0.68625 1.00325 0.0
C2733 C 0.75988 0.77711 0.01257 0.0
C2734 C 0.76437 0.75571 0.06712 0.0
H2735 H 0.7447 0.78416 0.91662 0.0
H2736 H 0.7664 0.80266 0.01326 0.0
C2737 C 0.75511 0.72275 0.06097 0.0
C2738 C 0.75238 0.96091 0.73342 0.0
C2739 C 0.76284 0.98475 0.69064 0.0
H2740 H 0.73222 0.95061 0.82003 0.0
C2741 C 0.75991 0.01881 0.71074 0.0
H2742 H 0.75385 0.93437 0.72197 0.0
C2743 C 0.74747 0.02821 0.76901 0.0
C2744 C 0.73713 0.0043 0.81201 0.0
H2745 H 0.76762 0.03858 0.68198 0.0
H2746 H 0.74599 0.05473 0.78053 0.0
C2747 C 0.73994 0.97032 0.79152 0.0
C2748 C 0.99118 0.77556 0.75457 0.0
C2749 C 0.98829 0.75538 0.69745 0.0
H2750 H 0.00481 0.78112 0.85275 0.0
C2751 C 0.99895 0.72327 0.70094 0.0
H2752 H 0.98343 0.80034 0.75604 0.0
C2753 C 0.0114 0.71211 0.75763 0.0
C2754 C 0.01431 0.73231 0.81471 0.0
H2755 H 0.99776 0.70648 0.65952 0.0
H2756 H 0.01915 0.68732 0.75617 0.0
C2757 C 0.00363 0.76438 0.81126 0.0
C2758 C 0.23431 0.76384 0.478 0.0
C2759 C 0.23846 0.73327 0.44365 0.0
H2760 H 0.24302 0.79746 0.55792 0.0
C2761 C 0.25595 0.7129 0.47124 0.0
H2762 H 0.2206 0.78013 0.4625 0.0
C2763 C 0.26867 0.72264 0.52828 0.0
C2764 C 0.26455 0.75323 0.56253 0.0
H2765 H 0.26004 0.68916 0.44815 0.0
H2766 H 0.28233 0.70627 0.54404 0.0
C2767 C 0.24708 0.77365 0.53493 0.0
C2768 C 0.99197 0.51789 0.54407 0.0
C2769 C 0.98915 0.48369 0.56301 0.0
H2770 H 0.00599 0.55432 0.47573 0.0
C2771 C 0.99946 0.46004 0.52013 0.0
H2772 H 0.98427 0.53741 0.57322 0.0
C2773 C 0.01178 0.46988 0.46254 0.0
C2774 C 0.01476 0.50403 0.44356 0.0
H2775 H 0.99797 0.43342 0.53105 0.0
H2776 H 0.01921 0.45031 0.43341 0.0
C2777 C 0.00443 0.52772 0.48656 0.0
C2778 C 0.25359 0.51332 0.70056 0.0
C2779 C 0.26434 0.48129 0.69731 0.0
H2780 H 0.23342 0.54931 0.75567 0.0
C2781 C 0.26156 0.46117 0.75454 0.0
H2782 H 0.25461 0.53 0.65895 0.0
C2783 C 0.24915 0.47239 0.81119 0.0
C2784 C 0.23844 0.50444 0.81444 0.0
H2785 H 0.26936 0.43642 0.75613 0.0
H2786 H 0.24805 0.45571 0.85281 0.0
C2787 C 0.24122 0.52456 0.75724 0.0
C2788 C 0.75661 0.22179 0.55748 0.0
C2789 C 0.76404 0.25554 0.56674 0.0
H2790 H 0.73947 0.18468 0.4968 0.0
C2791 C 0.75802 0.27777 0.51483 0.0
H2792 H 0.76014 0.20337 0.5947 0.0
C2793 C 0.74566 0.26702 0.45771 0.0
C2794 C 0.73848 0.23315 0.44824 0.0
H2795 H 0.7631 0.30397 0.51798 0.0
H2796 H 0.74174 0.28562 0.42085 0.0
C2797 C 0.74444 0.21092 0.50013 0.0
C2798 C 0.7502 0.52716 0.27535 0.0
C2799 C 0.73693 0.50374 0.31234 0.0
H2800 H 0.77287 0.53733 0.19343 0.0
C2801 C 0.73688 0.47063 0.2856 0.0
H2802 H 0.751 0.55303 0.29179 0.0
C2803 C 0.74947 0.46151 0.22753 0.0
C2804 C 0.76283 0.48487 0.19071 0.0
H2805 H 0.72663 0.4515 0.30873 0.0
H2806 H 0.74865 0.43562 0.21114 0.0
C2807 C 0.76275 0.51808 0.21707 0.0
C2808 C 0.49454 0.95788 0.51304 0.0
C2809 C 0.4872 0.98113 0.56209 0.0
H2810 H 0.51219 0.9484 0.42121 0.0
C2811 C 0.49356 0.01506 0.54874 0.0
H2812 H 0.49049 0.93143 0.51925 0.0
C2813 C 0.50608 0.02491 0.49097 0.0
C2814 C 0.5133 0.00176 0.44175 0.0
H2815 H 0.4889 0.03451 0.58304 0.0
H2816 H 0.51037 0.05125 0.48518 0.0
C2817 C 0.50711 0.96777 0.45522 0.0
C2818 C 0.48788 0.21884 0.72443 0.0
C2819 C 0.48821 0.25096 0.69322 0.0
H2820 H 0.49905 0.18665 0.80461 0.0
C2821 C 0.50208 0.27511 0.72662 0.0
H2822 H 0.47753 0.19901 0.70333 0.0
C2823 C 0.5148 0.26772 0.78563 0.0
C2824 C 0.51386 0.23612 0.81835 0.0
H2825 H 0.50345 0.3002 0.70626 0.0
H2826 H 0.52628 0.28665 0.80402 0.0
C2827 C 0.50024 0.21176 0.78441 0.0
C2828 C 0.49671 0.72136 0.20663 0.0
C2829 C 0.48635 0.75367 0.20077 0.0
H2830 H 0.51701 0.68604 0.26356 0.0
C2831 C 0.4901 0.77484 0.25641 0.0
H2832 H 0.49487 0.70364 0.16685 0.0
C2833 C 0.50294 0.76449 0.31348 0.0
C2834 C 0.51327 0.73217 0.3194 0.0
H2835 H 0.48276 0.7999 0.25637 0.0
H2836 H 0.50478 0.78217 0.35333 0.0
C2837 C 0.50963 0.71108 0.26359 0.0
C2838 C 0.49777 0.52636 0.97542 0.0
C2839 C 0.51219 0.50344 0.94109 0.0
H2840 H 0.47385 0.53609 0.05382 0.0
C2841 C 0.51314 0.47084 0.97 0.0
H2842 H 0.49614 0.55176 0.95694 0.0
C2843 C 0.50049 0.46196 0.02818 0.0
C2844 C 0.48592 0.4847 0.0623 0.0
H2845 H 0.52412 0.45195 0.94856 0.0
H2846 H 0.50226 0.43681 0.04718 0.0
C2847 C 0.48497 0.51731 0.03322 0.0
C2848 C 0.38499 0.20727 0.39386 0.0
C2849 C 0.39674 0.23661 0.41291 0.0
H2850 H 0.35501 0.18504 0.35138 0.0
C2851 C 0.38674 0.26776 0.39438 0.0
H2852 H 0.39211 0.18277 0.40533 0.0
C2853 C 0.36605 0.26902 0.35686 0.0
C2854 C 0.35421 0.23919 0.33927 0.0
H2855 H 0.39527 0.29102 0.40704 0.0
H2856 H 0.35936 0.29321 0.34178 0.0
C2857 C 0.36363 0.20861 0.36179 0.0
C2858 C 0.8658 0.96839 0.3983 0.0
C2859 C 0.8551 -0.00074 0.41575 0.0
H2860 H 0.89372 0.94349 0.34699 0.0
C2861 C 0.86664 0.02885 0.39651 0.0
H2862 H 0.85766 0.94487 0.41136 0.0
C2863 C 0.88824 0.02799 0.36508 0.0
C2864 C 0.89822 -0.00238 0.34313 0.0
H2865 H 0.85911 0.05317 0.40702 0.0
H2866 H 0.89659 0.05174 0.35443 0.0
C2867 C 0.88667 0.96758 0.36126 0.0
C2868 C 0.38692 0.97089 0.86049 0.0
C2869 C 0.39754 0.0014 0.84126 0.0
H2870 H 0.35897 0.94695 0.91287 0.0
C2871 C 0.38709 0.0315 0.8623 0.0
H2872 H 0.39447 0.94713 0.84627 0.0
C2873 C 0.36623 0.03141 0.89709 0.0
C2874 C 0.35581 0.00124 0.91805 0.0
H2875 H 0.39472 0.05555 0.84996 0.0
H2876 H 0.35853 0.05542 0.90925 0.0
C2877 C 0.36649 0.9708 0.89883 0.0
C2878 C 0.86545 0.20788 0.85966 0.0
C2879 C 0.85489 0.23816 0.84011 0.0
H2880 H 0.89399 0.18336 0.90534 0.0
C2881 C 0.86571 0.26848 0.8597 0.0
H2882 H 0.85761 0.18394 0.84758 0.0
C2883 C 0.88628 0.26812 0.89758 0.0
C2884 C 0.89689 0.23743 0.91587 0.0
H2885 H 0.85811 0.29241 0.8467 0.0
H2886 H 0.89388 0.29178 0.91237 0.0
C2887 C 0.88639 0.20754 0.89385 0.0
C2888 C 0.61591 0.7794 0.61554 0.0
C2889 C 0.60449 0.74972 0.59634 0.0
H2890 H 0.64563 0.80242 0.65865 0.0
C2891 C 0.61512 0.7189 0.61442 0.0
H2892 H 0.60843 0.80368 0.60435 0.0
C2893 C 0.63586 0.71821 0.65195 0.0
C2894 C 0.6473 0.74828 0.6702 0.0
H2895 H 0.60701 0.69531 0.60147 0.0
H2896 H 0.64287 0.6942 0.66668 0.0
C2897 C 0.63737 0.77863 0.64784 0.0
C2898 C 0.11463 0.95474 0.64244 0.0
C2899 C 0.10373 0.98482 0.66228 0.0
H2900 H 0.14459 0.9307 0.60226 0.0
C2901 C 0.11488 0.01523 0.64423 0.0
H2902 H 0.10673 0.93072 0.65362 0.0
C2903 C 0.13609 0.01519 0.60888 0.0
C2904 C 0.14755 0.98476 0.59258 0.0
H2905 H 0.10717 0.03911 0.65717 0.0
H2906 H 0.14383 0.03903 0.59582 0.0
C2907 C 0.13651 0.95472 0.61209 0.0
C2908 C 0.63562 0.01578 0.11279 0.0
C2909 C 0.64676 0.98568 0.09351 0.0
H2910 H 0.60685 0.03856 0.16338 0.0
C2911 C 0.63657 0.95524 0.11447 0.0
H2912 H 0.64293 0.03986 0.09934 0.0
C2913 C 0.61508 0.9545 0.14643 0.0
C2914 C 0.60387 0.98421 0.16624 0.0
H2915 H 0.64464 0.93143 0.1027 0.0
H2916 H 0.60737 0.93025 0.15675 0.0
C2917 C 0.6148 0.01502 0.14967 0.0
C2918 C 0.11567 0.71629 0.11068 0.0
C2919 C 0.10508 0.74691 0.09163 0.0
H2920 H 0.14356 0.69215 0.16328 0.0
C2921 C 0.11581 0.77683 0.11255 0.0
H2922 H 0.10799 0.69261 0.09659 0.0
C2923 C 0.13686 0.77656 0.14638 0.0
C2924 C 0.14719 0.74638 0.16765 0.0
H2925 H 0.10825 0.80099 0.10077 0.0
H2926 H 0.14478 0.80053 0.15772 0.0
C2927 C 0.1362 0.71603 0.14897 0.0
C2928 C 0.36506 0.70764 0.86066 0.0
C2929 C 0.35485 0.73787 0.83918 0.0
H2930 H 0.39338 0.68319 0.90784 0.0
C2931 C 0.36568 0.76818 0.8587 0.0
H2932 H 0.35724 0.6837 0.84857 0.0
C2933 C 0.3859 0.76789 0.8982 0.0
C2934 C 0.39636 0.73727 0.91767 0.0
H2935 H 0.35841 0.79206 0.84418 0.0
H2936 H 0.39347 0.79155 0.91288 0.0
C2937 C 0.38587 0.70735 0.89575 0.0
C2938 C 0.88716 0.52867 0.86211 0.0
C2939 C 0.89712 0.49837 0.83974 0.0
H2940 H 0.85823 0.55366 0.90551 0.0
C2941 C 0.88571 0.46826 0.85801 0.0
H2942 H 0.89539 0.5525 0.85133 0.0
C2943 C 0.86505 0.4689 0.89588 0.0
C2944 C 0.85445 0.4997 0.91407 0.0
H2945 H 0.89272 0.44428 0.8432 0.0
H2946 H 0.85701 0.44532 0.90916 0.0
C2947 C 0.86575 0.52938 0.89441 0.0
C2948 C 0.36478 0.46874 0.39994 0.0
C2949 C 0.35404 0.49901 0.42001 0.0
H2950 H 0.39273 0.44555 0.34631 0.0
C2951 C 0.36421 0.52933 0.39889 0.0
H2952 H 0.35748 0.4448 0.41417 0.0
C2953 C 0.38494 0.52974 0.36363 0.0
C2954 C 0.39553 0.49986 0.34194 0.0
H2955 H 0.35646 0.55323 0.41159 0.0
H2956 H 0.39251 0.55393 0.35207 0.0
C2957 C 0.38506 0.46917 0.36083 0.0
C2958 C 0.86669 0.70984 0.36249 0.0
C2959 C 0.85592 0.73984 0.34214 0.0
H2960 H 0.89535 0.68599 0.40892 0.0
C2961 C 0.8664 0.7704 0.36196 0.0
H2962 H 0.85915 0.68572 0.35031 0.0
C2963 C 0.88681 0.77052 0.40075 0.0
C2964 C 0.89773 0.74012 0.4194 0.0
H2965 H 0.85864 0.79414 0.34848 0.0
H2966 H 0.89403 0.79433 0.41589 0.0
C2967 C 0.88754 0.71 0.39726 0.0
C2968 C 0.63988 0.27944 0.14734 0.0
C2969 C 0.64891 0.24912 0.17242 0.0
H2970 H 0.61226 0.30473 0.09821 0.0
C2971 C 0.63676 0.21918 0.1576 0.0
H2972 H 0.64874 0.30302 0.15594 0.0
C2973 C 0.61603 0.22001 0.12047 0.0
C2974 C 0.6066 0.25091 0.09852 0.0
H2975 H 0.64314 0.19525 0.17499 0.0
H2976 H 0.60709 0.19667 0.11054 0.0
C2977 C 0.6188 0.28047 0.11382 0.0
C2978 C 0.11676 0.51988 0.14784 0.0
C2979 C 0.10596 0.48944 0.1668 0.0
H2980 H 0.14478 0.54352 0.09512 0.0
C2981 C 0.11641 0.45932 0.14577 0.0
H2982 H 0.10928 0.54368 0.16202 0.0
C2983 C 0.13741 0.45923 0.11184 0.0
C2984 C 0.14795 0.48925 0.09068 0.0
H2985 H 0.10863 0.43529 0.15741 0.0
H2986 H 0.1451 0.43514 0.1002 0.0
C2987 C 0.13724 0.51978 0.10948 0.0
C2988 C 0.63588 0.45551 0.61543 0.0
C2989 C 0.64577 0.48598 0.59328 0.0
H2990 H 0.60733 0.43029 0.66082 0.0
C2991 C 0.63433 0.51601 0.61165 0.0
H2992 H 0.64416 0.43177 0.60436 0.0
C2993 C 0.61355 0.51514 0.64881 0.0
C2994 C 0.60306 0.48422 0.6671 0.0
H2995 H 0.64138 0.54012 0.59726 0.0
H2996 H 0.60536 0.53867 0.66168 0.0
C2997 C 0.61458 0.45459 0.64845 0.0
C2998 C 0.13608 0.21739 0.64628 0.0
C2999 C 0.14741 0.24752 0.66483 0.0
H3000 H 0.10704 0.1945 0.59667 0.0
C3001 C 0.137 0.27789 0.64446 0.0
H3002 H 0.14346 0.19333 0.65952 0.0
C3003 C 0.11531 0.27857 0.61359 0.0
C3004 C 0.10404 0.24889 0.59369 0.0
H3005 H 0.14514 0.30174 0.65558 0.0
H3006 H 0.10753 0.30283 0.60385 0.0
C3007 C 0.11503 0.21809 0.61011 0.0
C3008 C 0.28252 0.20958 0.695 0.0
C3009 C 0.28203 0.23237 0.63537 0.0
H3010 H 0.29258 0.21791 0.85215 0.0
C3011 C 0.28741 0.26972 0.64935 0.0
H3012 H 0.27953 0.18364 0.67933 0.0
C3013 C 0.29599 0.29027 0.75718 0.0
C3014 C 0.29788 0.26802 0.81651 0.0
H3015 H 0.28549 0.28387 0.60403 0.0
H3016 H 0.29842 0.31628 0.77481 0.0
C3017 C 0.29117 0.23114 0.8051 0.0
C3018 C 0.96231 0.96635 0.65342 0.0
C3019 C 0.9669 0.00385 0.63921 0.0
H3020 H 0.9535 0.91865 0.77857 0.0
C3021 C 0.96712 0.0262 0.69939 0.0
H3022 H 0.96401 0.95242 0.60791 0.0
C3023 C 0.96021 0.00407 0.81017 0.0
C3024 C 0.95408 0.96683 0.82163 0.0
H3025 H 0.96972 0.05221 0.68376 0.0
H3026 H 0.95932 0.01711 0.85753 0.0
C3027 C 0.95543 0.94483 0.76135 0.0
C3028 C 0.29724 0.94528 0.50147 0.0
C3029 C 0.29918 0.96685 0.43997 0.0
H3030 H 0.28597 0.95436 0.65427 0.0
C3031 C 0.29222 0.00398 0.44976 0.0
H3032 H 0.29967 0.91895 0.48586 0.0
C3033 C 0.28327 0.02679 0.55918 0.0
C3034 C 0.28268 0.00503 0.62004 0.0
H3035 H 0.2937 0.01663 0.4021 0.0
H3036 H 0.28005 0.05288 0.57374 0.0
C3037 C 0.28826 0.96768 0.60796 0.0
C3038 C 0.95936 0.23251 0.45027 0.0
C3039 C 0.95234 0.2698 0.44237 0.0
H3040 H 0.97172 0.18209 0.57202 0.0
C3041 C 0.95422 0.29052 0.50497 0.0
H3042 H 0.95799 0.22046 0.40203 0.0
C3043 C 0.96322 0.26678 0.61015 0.0
C3044 C 0.9689 0.22933 0.62065 0.0
H3045 H 0.95213 0.31708 0.49075 0.0
H3046 H 0.96557 0.27959 0.65682 0.0
C3047 C 0.96836 0.20831 0.55872 0.0
C3048 C 0.71178 0.75536 0.20414 0.0
C3049 C 0.70497 0.71842 0.19366 0.0
H3050 H 0.72416 0.80345 0.32887 0.0
C3051 C 0.70691 0.6965 0.25384 0.0
H3052 H 0.71026 0.76832 0.1568 0.0
C3053 C 0.71587 0.71771 0.36078 0.0
C3054 C 0.72131 0.75501 0.37395 0.0
H3055 H 0.70459 0.67033 0.23701 0.0
H3056 H 0.71799 0.70384 0.40636 0.0
C3057 C 0.72084 0.77749 0.31378 0.0
C3058 C 0.04643 0.03916 0.24202 0.0
C3059 C 0.04721 0.01784 0.18093 0.0
H3060 H 0.03958 0.03009 0.39586 0.0
C3061 C 0.04107 0.98065 0.19146 0.0
H3062 H 0.04848 0.06545 0.22557 0.0
C3063 C 0.03508 0.95724 0.30161 0.0
C3064 C 0.03595 0.97895 0.36284 0.0
H3065 H 0.04144 0.96816 0.1435 0.0
H3066 H 0.03248 0.93111 0.31592 0.0
C3067 C 0.04043 0.01663 0.34975 0.0
C3068 C 0.71068 0.98088 0.55752 0.0
C3069 C 0.7036 0.01794 0.56662 0.0
H3070 H 0.72325 0.93178 0.43436 0.0
C3071 C 0.70532 0.03933 0.50521 0.0
H3072 H 0.70928 0.96835 0.60532 0.0
C3073 C 0.71446 0.01686 0.39917 0.0
C3074 C 0.72024 0.97949 0.38753 0.0
H3075 H 0.70279 0.06566 0.52068 0.0
H3076 H 0.71674 0.03015 0.35285 0.0
C3077 C 0.71982 0.95786 0.44859 0.0
C3078 C 0.03721 0.71767 0.40566 0.0
C3079 C 0.03213 0.75509 0.39268 0.0
H3080 H 0.04808 0.66962 0.52915 0.0
C3081 C 0.03267 0.77731 0.45323 0.0
H3082 H 0.03514 0.70403 0.35981 0.0
C3083 C 0.04137 0.75468 0.563 0.0
C3084 C 0.04798 0.71757 0.57338 0.0
H3085 H 0.02961 0.80336 0.43842 0.0
H3086 H 0.04292 0.76746 0.61051 0.0
C3087 C 0.04583 0.69587 0.5127 0.0
C3088 C 0.28663 0.76946 0.15174 0.0
C3089 C 0.28148 0.73206 0.13873 0.0
H3090 H 0.29777 0.81729 0.27533 0.0
C3091 C 0.28219 0.70973 0.19911 0.0
H3092 H 0.28447 0.78317 0.10598 0.0
C3093 C 0.29111 0.73218 0.30879 0.0
C3094 C 0.29772 0.76926 0.31925 0.0
H3095 H 0.27913 0.68368 0.1842 0.0
H3096 H 0.29281 0.71931 0.35617 0.0
C3097 C 0.29548 0.79107 0.25878 0.0
C3098 C 0.96264 0.50634 0.30751 0.0
C3099 C 0.95558 0.46954 0.31842 0.0
H3100 H 0.97514 0.55403 0.18244 0.0
C3101 C 0.95732 0.44744 0.25851 0.0
H3102 H 0.96123 0.51941 0.35474 0.0
C3103 C 0.96636 0.46832 0.15116 0.0
C3104 C 0.97206 0.50555 0.13778 0.0
H3105 H 0.95439 0.42143 0.27557 0.0
H3106 H 0.96825 0.45437 0.10557 0.0
C3107 C 0.97174 0.52812 0.19772 0.0
C3108 C 0.29205 0.5034 0.95011 0.0
C3109 C 0.29877 0.46624 0.94076 0.0
H3110 H 0.27965 0.55272 0.07324 0.0
C3111 C 0.29652 0.44489 1.00215 0.0
H3112 H 0.2937 0.51591 0.90236 0.0
C3113 C 0.28744 0.46732 0.10827 0.0
C3114 C 0.28212 0.50476 0.12028 0.0
H3115 H 0.29862 0.41851 0.98659 0.0
H3116 H 0.28515 0.4539 0.15418 0.0
C3117 C 0.28289 0.52662 0.05919 0.0
C3118 C 0.95637 0.79179 1.00189 0.0
C3119 C 0.95423 0.77048 0.94059 0.0
H3120 H 0.96751 0.78281 0.1539 0.0
C3121 C 0.96095 0.73331 0.94992 0.0
H3122 H 0.95427 0.81817 0.98622 0.0
C3123 C 0.96994 0.71007 0.05908 0.0
C3124 C 0.97053 0.73195 0.12013 0.0
H3125 H 0.95939 0.72081 0.90214 0.0
H3126 H 0.97321 0.68398 0.07323 0.0
C3127 C 0.96527 0.76937 0.10802 0.0
C3128 C 0.70528 0.19688 0.75657 0.0
C3129 C 0.70323 0.21864 0.69643 0.0
H3130 H 0.71717 0.2045 0.90846 0.0
C3131 C 0.71024 0.25557 0.70612 0.0
H3132 H 0.70286 0.1707 0.74012 0.0
C3133 C 0.71988 0.27788 0.81504 0.0
C3134 C 0.72046 0.25559 0.87537 0.0
H3135 H 0.70867 0.26845 0.65876 0.0
H3136 H 0.72342 0.30385 0.82972 0.0
C3137 C 0.71482 0.21828 0.86285 0.0
C3138 C 0.03232 0.45947 0.8061 0.0
C3139 C 0.03193 0.48153 0.86677 0.0
H3140 H 0.04235 0.46959 0.6488 0.0
C3141 C 0.03721 0.51896 0.85413 0.0
H3142 H 0.02918 0.43339 0.82077 0.0
C3143 C 0.04576 0.54091 0.74719 0.0
C3144 C 0.0477 0.51936 0.68629 0.0
H3145 H 0.03534 0.53249 0.90019 0.0
H3146 H 0.048 0.56719 0.73091 0.0
C3147 C 0.04093 0.48227 0.69644 0.0
C3148 C 0.71086 0.48166 0.05758 0.0
C3149 C 0.70411 0.51887 0.06663 0.0
H3150 H 0.72267 0.43212 0.93432 0.0
C3151 C 0.70594 0.54016 0.00511 0.0
H3152 H 0.70938 0.46919 0.10542 0.0
C3153 C 0.71462 0.51737 0.89896 0.0
C3154 C 0.71999 0.47986 0.88745 0.0
H3155 H 0.7039 0.56656 0.02069 0.0
H3156 H 0.71702 0.53053 0.85251 0.0
C3157 C 0.71953 0.45831 0.9486 0.0
C3158 C 0.07891 0.26792 0.93219 0.0
C3159 C 0.05699 0.25237 0.88604 0.0
H3160 H 0.10167 0.26845 0.03008 0.0
C3161 C 0.03943 0.22198 0.91488 0.0
H3162 H 0.08917 0.28754 0.90997 0.0
C3163 C 0.04992 0.20578 0.03402 0.0
C3164 C 0.07314 0.22805 0.06015 0.0
H3165 H 0.02576 0.21357 0.88269 0.0
H3166 H 0.04276 0.18705 0.06768 0.0
C3167 C 0.08629 0.25685 0.01089 0.0
C3168 C 0.78869 0.26648 0.15881 0.0
C3169 C 0.78286 0.22933 0.14579 0.0
H3170 H 0.80125 0.31402 0.282 0.0
C3171 C 0.78307 0.20713 0.20634 0.0
H3172 H 0.78708 0.28014 0.11287 0.0
C3173 C 0.79232 0.22927 0.31622 0.0
C3174 C 0.79962 0.26611 0.32687 0.0
H3175 H 0.77954 0.18122 0.19151 0.0
H3176 H 0.7937 0.21638 0.36368 0.0
C3177 C 0.79794 0.28795 0.26587 0.0
C3178 C 0.45992 0.00457 0.31005 0.0
C3179 C 0.45276 0.96748 0.31914 0.0
H3180 H 0.47234 0.054 0.187 0.0
C3181 C 0.4545 0.94625 0.25729 0.0
H3182 H 0.45857 0.01696 0.35798 0.0
C3183 C 0.46352 0.96907 0.15114 0.0
C3184 C 0.46932 0.00647 0.13962 0.0
H3185 H 0.45201 0.91986 0.27247 0.0
H3186 H 0.4657 0.95592 0.10466 0.0
C3187 C 0.46894 0.02789 0.20101 0.0
C3188 C 0.83641 0.00796 0.99878 0.0
C3189 C 0.82318 0.97961 0.94898 0.0
H3190 H 0.83951 0.03788 0.10022 0.0
C3191 C 0.79996 0.9571 0.97467 0.0
H3192 H 0.85179 0.01962 0.97976 0.0
C3193 C 0.78972 0.97247 0.09442 0.0
C3194 C 0.80738 0.00265 0.12365 0.0
H3195 H 0.79278 0.93856 0.94068 0.0
H3196 H 0.77612 0.96392 0.12658 0.0
C3197 C 0.8292 0.01843 0.07766 0.0
C3198 C 0.41723 0.22169 1.00239 0.0
C3199 C 0.42894 0.25009 0.94994 0.0
H3200 H 0.41597 0.19333 0.10547 0.0
C3201 C 0.45122 0.27507 0.97267 0.0
H3202 H 0.40218 0.20847 0.98516 0.0
C3203 C 0.46284 0.26336 0.09355 0.0
C3204 C 0.4467 0.23181 0.12572 0.0
H3205 H 0.4572 0.2937 0.93696 0.0
H3206 H 0.47577 0.27463 0.12521 0.0
C3207 C 0.42527 0.21343 0.08154 0.0
C3208 C 0.21549 0.71767 0.85511 0.0
C3209 C 0.22078 0.7551 0.86756 0.0
H3210 H 0.20412 0.66945 0.7324 0.0
C3211 C 0.22017 0.77718 0.80685 0.0
H3212 H 0.21763 0.70411 0.90103 0.0
C3213 C 0.21112 0.75437 0.69752 0.0
C3214 C 0.20439 0.71728 0.68768 0.0
H3215 H 0.22337 0.80326 0.82137 0.0
H3216 H 0.20948 0.76705 0.64993 0.0
C3217 C 0.20652 0.69572 0.74851 0.0
C3218 C 0.58668 0.97427 0.75069 0.0
C3219 C 0.5741 0.00255 0.69937 0.0
H3220 H 0.58886 0.94512 0.85315 0.0
C3221 C 0.55124 0.02629 0.72372 0.0
H3222 H 0.60188 0.96177 0.73249 0.0
C3223 C 0.54035 0.01236 0.84383 0.0
C3224 C 0.55733 0.98183 0.87459 0.0
H3225 H 0.54451 0.04481 0.68895 0.0
H3226 H 0.52679 0.02176 0.8754 0.0
C3227 C 0.57901 0.96481 0.82974 0.0
C3228 C 0.21291 0.01461 0.91358 0.0
C3229 C 0.19508 0.98427 0.8858 0.0
H3230 H 0.20993 0.05076 0.06539 0.0
C3231 C 0.17311 0.96946 0.93253 0.0
H3232 H 0.2266 0.0225 0.88108 0.0
C3233 C 0.16589 0.98124 0.01082 0.0
C3234 C 0.17926 0.01018 0.0591 0.0
H3235 H 0.16266 0.94988 0.91092 0.0
H3236 H 0.15047 0.96996 0.0305 0.0
C3237 C 0.20261 0.03192 0.03228 0.0
C3238 C 0.57787 0.77234 0.93226 0.0
C3239 C 0.55628 0.7553 0.88711 0.0
H3240 H 0.60057 0.77535 0.02977 0.0
C3241 C 0.53921 0.7248 0.9176 0.0
H3242 H 0.58782 0.79194 0.90886 0.0
C3243 C 0.54986 0.71086 0.0379 0.0
C3244 C 0.57268 0.73466 0.06261 0.0
H3245 H 0.52576 0.71537 0.88574 0.0
H3246 H 0.54309 0.69228 0.07249 0.0
C3247 C 0.58537 0.76291 0.01142 0.0
C3248 C 0.78185 0.70767 0.70652 0.0
C3249 C 0.78168 0.72985 0.64595 0.0
H3250 H 0.79229 0.71709 0.86393 0.0
C3251 C 0.78732 0.76705 0.65893 0.0
H3252 H 0.77836 0.68173 0.69168 0.0
C3253 C 0.79638 0.78863 0.766 0.0
C3254 C 0.79814 0.76684 0.82703 0.0
H3255 H 0.78565 0.78067 0.61294 0.0
H3256 H 0.79955 0.81473 0.78217 0.0
C3257 C 0.79093 0.72994 0.81642 0.0
C3258 C 0.45339 0.44648 0.75927 0.0
C3259 C 0.4518 0.46779 0.82139 0.0
H3260 H 0.46455 0.45617 0.60634 0.0
C3261 C 0.45922 0.50478 0.81204 0.0
H3262 H 0.45041 0.42017 0.77431 0.0
C3263 C 0.46835 0.52793 0.70281 0.0
C3264 C 0.46856 0.50653 0.6414 0.0
H3265 H 0.45794 0.51723 0.85993 0.0
H3266 H 0.47187 0.554 0.68873 0.0
C3267 C 0.46256 0.46926 0.65299 0.0
C3268 C 0.83546 0.50932 0.49841 0.0
C3269 C 0.82229 0.48106 0.44838 0.0
H3270 H 0.83861 0.5389 0.60012 0.0
C3271 C 0.79918 0.45826 0.47397 0.0
H3272 H 0.85081 0.52112 0.47946 0.0
C3273 C 0.78905 0.4731 0.59408 0.0
C3274 C 0.80664 0.50333 0.62347 0.0
H3275 H 0.79206 0.43973 0.43986 0.0
H3276 H 0.77555 0.46429 0.62632 0.0
C3277 C 0.82833 0.51944 0.57746 0.0
C3278 C 0.46427 0.76866 0.60925 0.0
C3279 C 0.46932 0.73116 0.62173 0.0
H3280 H 0.45401 0.81755 0.48642 0.0
C3281 C 0.46884 0.70937 0.56075 0.0
H3282 H 0.46655 0.78197 0.65558 0.0
C3283 C 0.46054 0.73241 0.451 0.0
C3284 C 0.45397 0.76967 0.44103 0.0
H3285 H 0.47179 0.68322 0.5754 0.0
H3286 H 0.45914 0.7198 0.4033 0.0
C3287 C 0.456 0.79119 0.50236 0.0
C3288 C 0.21086 0.25919 0.19703 0.0
C3289 C 0.20372 0.22244 0.18627 0.0
H3290 H 0.22348 0.30688 0.32184 0.0
C3291 C 0.20531 0.20038 0.2463 0.0
H3292 H 0.20944 0.27222 0.14972 0.0
C3293 C 0.2145 0.22129 0.35353 0.0
C3294 C 0.22032 0.25851 0.36678 0.0
H3295 H 0.202 0.17442 0.22946 0.0
H3296 H 0.21623 0.20737 0.39919 0.0
C3297 C 0.22006 0.28098 0.3067 0.0
C3298 C 0.539 0.5133 0.34396 0.0
C3299 C 0.55595 0.48266 0.37462 0.0
H3300 H 0.54304 0.54543 0.1887 0.0
C3301 C 0.57745 0.46539 0.32953 0.0
H3302 H 0.52555 0.52291 0.37575 0.0
C3303 C 0.585 0.47463 0.2504 0.0
C3304 C 0.57244 0.50285 0.19903 0.0
H3305 H 0.58728 0.44567 0.35292 0.0
H3306 H 0.60012 0.46198 0.23209 0.0
C3307 C 0.54973 0.5269 0.22349 0.0
C3308 C 0.21958 0.45983 0.4524 0.0
C3309 C 0.22024 0.48206 0.39182 0.0
H3310 H 0.20895 0.46962 0.60942 0.0
C3311 C 0.21504 0.51948 0.40466 0.0
H3312 H 0.22268 0.43378 0.43771 0.0
C3313 C 0.20613 0.54121 0.51152 0.0
C3314 C 0.20395 0.51948 0.57215 0.0
H3315 H 0.21722 0.53315 0.35887 0.0
H3316 H 0.20376 0.56744 0.5279 0.0
C3317 C 0.21059 0.48241 0.56193 0.0
C3318 C 0.57798 0.27516 0.43202 0.0
C3319 C 0.55665 0.25686 0.38728 0.0
H3320 H 0.60084 0.27994 0.52893 0.0
C3321 C 0.54059 0.2251 0.4187 0.0
H3322 H 0.58722 0.29546 0.40855 0.0
C3323 C 0.55202 0.21274 0.53946 0.0
C3324 C 0.57417 0.23789 0.56307 0.0
H3325 H 0.52783 0.21384 0.38645 0.0
H3326 H 0.54602 0.19387 0.57465 0.0
C3327 C 0.58593 0.26656 0.51116 0.0
C3328 C 0.32634 0.38012 0.40726 0.0
C3329 C 0.30556 0.3922 0.43449 0.0
H3330 H 0.34282 0.34902 0.33389 0.0
C3331 C 0.28516 0.38069 0.40481 0.0
H3332 H 0.34256 0.38823 0.42765 0.0
C3333 C 0.28532 0.35885 0.35026 0.0
C3334 C 0.30591 0.34673 0.32258 0.0
H3335 H 0.26875 0.38869 0.424 0.0
H3336 H 0.26903 0.35121 0.3297 0.0
C3337 C 0.32651 0.3578 0.35245 0.0
C3338 C 0.92659 0.85721 0.40816 0.0
C3339 C 0.94729 0.84575 0.43677 0.0
H3340 H 0.91031 0.88718 0.33277 0.0
C3341 C 0.96782 0.85776 0.40852 0.0
H3342 H 0.91033 0.84879 0.42768 0.0
C3343 C 0.96781 0.87962 0.354 0.0
C3344 C 0.94727 0.89074 0.32441 0.0
H3345 H 0.98417 0.85003 0.42858 0.0
H3346 H 0.98418 0.88794 0.33492 0.0
C3347 C 0.92658 0.8791 0.35281 0.0
C3348 C 0.28768 0.88068 0.90313 0.0
C3349 C 0.30849 0.89196 0.93119 0.0
H3350 H 0.27056 0.85019 0.83136 0.0
C3351 C 0.3289 0.87914 0.90307 0.0
H3352 H 0.27147 0.89 0.92172 0.0
C3353 C 0.32832 0.85632 0.84904 0.0
C3354 C 0.30733 0.84497 0.82169 0.0
H3355 H 0.34536 0.88745 0.92152 0.0
H3356 H 0.34438 0.84735 0.82914 0.0
C3357 C 0.28711 0.8578 0.85026 0.0
C3358 C 0.9248 0.38126 0.85044 0.0
C3359 C 0.94573 0.39164 0.82149 0.0
H3360 H 0.90784 0.35061 0.92374 0.0
C3361 C 0.96598 0.3783 0.84884 0.0
H3362 H 0.90875 0.39081 0.83156 0.0
C3363 C 0.96548 0.35553 0.90181 0.0
C3364 C 0.9447 0.34491 0.93096 0.0
H3365 H 0.98249 0.38544 0.82894 0.0
H3366 H 0.98168 0.34572 0.91951 0.0
C3367 C 0.92428 0.35841 0.90433 0.0
C3368 C 0.67391 0.63064 0.66127 0.0
C3369 C 0.69495 0.64145 0.68899 0.0
H3370 H 0.65676 0.60024 0.58789 0.0
C3371 C 0.71513 0.62885 0.65999 0.0
H3372 H 0.65789 0.63951 0.68161 0.0
C3373 C 0.71448 0.60666 0.60616 0.0
C3374 C 0.6936 0.59585 0.57785 0.0
H3375 H 0.7317 0.63605 0.67936 0.0
H3376 H 0.73063 0.59732 0.58728 0.0
C3377 C 0.67324 0.60843 0.60641 0.0
C3378 C 0.03281 0.1051 0.65221 0.0
C3379 C 0.05337 0.09414 0.68185 0.0
H3380 H 0.01644 0.13493 0.57791 0.0
C3381 C 0.07402 0.10673 0.65497 0.0
H3382 H 0.01651 0.09625 0.67067 0.0
C3383 C 0.07396 0.12956 0.60119 0.0
C3384 C 0.05324 0.14086 0.5725 0.0
H3385 H 0.09032 0.09865 0.67493 0.0
H3386 H 0.0902 0.13883 0.58294 0.0
C3387 C 0.03276 0.12767 0.59877 0.0
C3388 C 0.67395 0.10831 0.10639 0.0
C3389 C 0.69433 0.0956 0.07813 0.0
H3390 H 0.65858 0.13971 0.18101 0.0
C3391 C 0.7152 0.10638 0.10653 0.0
H3392 H 0.65748 0.1002 0.0877 0.0
C3393 C 0.71583 0.12867 0.1602 0.0
C3394 C 0.69563 0.1414 0.1889 0.0
H3395 H 0.73136 0.09698 0.08781 0.0
H3396 H 0.73239 0.13585 0.17966 0.0
C3397 C 0.6746 0.13064 0.16104 0.0
C3398 C 0.0762 0.62942 0.10158 0.0
C3399 C 0.05541 0.64154 0.07449 0.0
H3400 H 0.09271 0.59829 0.17473 0.0
C3401 C 0.03499 0.62985 0.10378 0.0
H3402 H 0.0924 0.63764 0.08133 0.0
C3403 C 0.03517 0.60751 0.15759 0.0
C3404 C 0.05579 0.59532 0.18496 0.0
H3405 H 0.01858 0.63806 0.08487 0.0
H3406 H 0.01889 0.59956 0.1778 0.0
C3407 C 0.07639 0.60699 0.1561 0.0
C3408 C 0.78336 0.37933 0.91137 0.0
C3409 C 0.80399 0.39186 0.93794 0.0
H3410 H 0.76673 0.34875 0.83885 0.0
C3411 C 0.82458 0.38013 0.90916 0.0
H3412 H 0.76711 0.3871 0.93196 0.0
C3413 C 0.82434 0.35707 0.85573 0.0
C3414 C 0.80349 0.34476 0.82934 0.0
H3415 H 0.84093 0.38907 0.9273 0.0
H3416 H 0.84053 0.34849 0.83592 0.0
C3417 C 0.78313 0.35681 0.85801 0.0
C3418 C 0.42163 0.88003 0.8551 0.0
C3419 C 0.44251 0.89207 0.82866 0.0
H3420 H 0.40505 0.84856 0.92764 0.0
C3421 C 0.46292 0.8805 0.85803 0.0
H3422 H 0.40548 0.88859 0.83498 0.0
C3423 C 0.46267 0.85788 0.9109 0.0
C3424 C 0.44199 0.84575 0.93788 0.0
H3425 H 0.47941 0.88921 0.84029 0.0
H3426 H 0.47898 0.84943 0.93031 0.0
C3427 C 0.42137 0.85742 0.90926 0.0
C3428 C 0.82528 0.85806 0.35438 0.0
C3429 C 0.80461 0.84541 0.32758 0.0
H3430 H 0.84143 0.88991 0.42696 0.0
C3431 C 0.78407 0.85674 0.35659 0.0
H3432 H 0.84157 0.84995 0.33451 0.0
C3433 C 0.784 0.87907 0.41028 0.0
C3434 C 0.80446 0.89197 0.43716 0.0
H3435 H 0.76777 0.84819 0.33755 0.0
H3436 H 0.76766 0.88634 0.43094 0.0
C3437 C 0.82521 0.88078 0.40838 0.0
C3438 C 0.46431 0.35694 0.40662 0.0
C3439 C 0.44381 0.34452 0.43417 0.0
H3440 H 0.4805 0.38943 0.3369 0.0
C3441 C 0.42298 0.35676 0.40789 0.0
H3442 H 0.48074 0.34805 0.42438 0.0
C3443 C 0.42284 0.38008 0.35499 0.0
C3444 C 0.44355 0.39242 0.32793 0.0
H3445 H 0.4068 0.34767 0.4269 0.0
H3446 H 0.40655 0.38895 0.33638 0.0
C3447 C 0.46417 0.38043 0.35525 0.0
C3448 C 0.21804 0.60692 0.10238 0.0
C3449 C 0.19752 0.59498 0.074 0.0
H3450 H 0.23438 0.63725 0.17588 0.0
C3451 C 0.17683 0.60672 0.10219 0.0
H3452 H 0.23439 0.59897 0.08265 0.0
C3453 C 0.17682 0.629 0.15694 0.0
C3454 C 0.19751 0.64088 0.18499 0.0
H3455 H 0.16056 0.59832 0.08267 0.0
H3456 H 0.16055 0.6374 0.17646 0.0
C3457 C 0.21804 0.62912 0.15639 0.0
C3458 C 0.53492 0.1082 0.1623 0.0
C3459 C 0.55515 0.09371 0.18726 0.0
H3460 H 0.51933 0.1429 0.09541 0.0
C3461 C 0.57608 0.1041 0.15828 0.0
H3462 H 0.51847 0.10146 0.18308 0.0
C3463 C 0.5766 0.12784 0.10604 0.0
C3464 C 0.55621 0.14241 0.08171 0.0
H3465 H 0.59212 0.09378 0.17571 0.0
H3466 H 0.59301 0.13576 0.08658 0.0
C3467 C 0.53544 0.13197 0.11113 0.0
C3468 C 0.17777 0.1048 0.60383 0.0
C3469 C 0.19847 0.09384 0.57444 0.0
H3470 H 0.16147 0.13577 0.67769 0.0
C3471 C 0.21895 0.10698 0.60079 0.0
H3472 H 0.16153 0.09538 0.58585 0.0
C3473 C 0.21892 0.12942 0.65436 0.0
C3474 C 0.19841 0.14054 0.68398 0.0
H3475 H 0.23527 0.09987 0.57972 0.0
H3476 H 0.23525 0.13829 0.67269 0.0
C3477 C 0.17773 0.12766 0.65766 0.0
C3478 C 0.533 0.60711 0.65745 0.0
C3479 C 0.55339 0.59413 0.68451 0.0
H3480 H 0.51691 0.63805 0.58454 0.0
C3481 C 0.57419 0.60562 0.65642 0.0
H3482 H 0.51665 0.59983 0.67799 0.0
C3483 C 0.57437 0.62868 0.60293 0.0
C3484 C 0.55376 0.64122 0.57556 0.0
H3485 H 0.59039 0.59641 0.67506 0.0
H3486 H 0.59071 0.63702 0.58365 0.0
C3487 C 0.53318 0.62964 0.60399 0.0
C3488 C 0.28102 0.13445 0.14239 0.0
C3489 C 0.30148 0.15303 0.1424 0.0
H3490 H 0.26588 0.08588 0.12956 0.0
C3491 C 0.32249 0.13658 0.13509 0.0
H3492 H 0.26452 0.14668 0.14802 0.0
C3493 C 0.32334 0.1019 0.13589 0.0
C3494 C 0.30309 0.08343 0.13053 0.0
H3495 H 0.33844 0.15003 0.13043 0.0
H3496 H 0.33994 0.09005 0.13675 0.0
C3497 C 0.2818 0.0998 0.13403 0.0
C3498 C 0.97041 0.13766 0.13923 0.0
C3499 C 0.94901 0.15338 0.13209 0.0
H3500 H 0.98798 0.09149 0.15898 0.0
C3501 C 0.92892 0.13441 0.13512 0.0
H3502 H 0.98622 0.15192 0.13576 0.0
C3503 C 0.93023 0.09979 0.13661 0.0
C3504 C 0.95127 0.08409 0.14852 0.0
H3505 H 0.91218 0.14573 0.13248 0.0
H3506 H 0.91456 0.08581 0.13006 0.0
C3507 C 0.97147 0.10321 0.15033 0.0
C3508 C 0.67796 0.88499 0.88097 0.0
C3509 C 0.69817 0.90374 0.88308 0.0
H3510 H 0.66331 0.83656 0.88814 0.0
C3511 C 0.7195 0.88761 0.87763 0.0
H3512 H 0.66125 0.89649 0.88191 0.0
C3513 C 0.7204 0.85309 0.86926 0.0
C3514 C 0.70009 0.83433 0.87158 0.0
H3515 H 0.73545 0.90153 0.88081 0.0
H3516 H 0.73688 0.84109 0.86164 0.0
C3517 C 0.67908 0.85036 0.88186 0.0
C3518 C 0.0294 0.88459 0.86258 0.0
C3519 C 0.05055 0.90109 0.8557 0.0
H3520 H 0.01271 0.83845 0.88832 0.0
C3521 C 0.07098 0.88308 0.86185 0.0
H3522 H 0.01335 0.89804 0.85717 0.0
C3523 C 0.07037 0.84864 0.86748 0.0
C3524 C 0.04962 0.83253 0.88036 0.0
H3525 H 0.08757 0.89475 0.86117 0.0
H3526 H 0.08642 0.83521 0.86537 0.0
C3527 C 0.02898 0.85056 0.87822 0.0
C3528 C 0.27821 0.63566 0.63237 0.0
C3529 C 0.29941 0.65234 0.63448 0.0
H3530 H 0.2614 0.58818 0.62048 0.0
C3531 C 0.31973 0.63394 0.63194 0.0
H3532 H 0.26222 0.64956 0.6344 0.0
C3533 C 0.31905 0.5995 0.63868 0.0
C3534 C 0.2983 0.58258 0.63053 0.0
H3535 H 0.33627 0.64577 0.62814 0.0
H3536 H 0.33503 0.58631 0.64541 0.0
C3537 C 0.2777 0.60079 0.62733 0.0
C3538 C 0.93237 0.63889 0.64351 0.0
C3539 C 0.95317 0.65494 0.63084 0.0
H3540 H 0.91458 0.59295 0.64376 0.0
C3541 C 0.97354 0.63634 0.62751 0.0
H3542 H 0.91659 0.65274 0.64955 0.0
C3543 C 0.97279 0.60175 0.63614 0.0
C3544 C 0.9515 0.58553 0.64247 0.0
H3545 H 0.98985 0.64841 0.61772 0.0
H3546 H 0.98873 0.58773 0.63732 0.0
C3547 C 0.93129 0.6043 0.64261 0.0
C3548 C 0.67761 0.38444 0.38187 0.0
C3549 C 0.69753 0.40387 0.38243 0.0
H3550 H 0.66382 0.33547 0.38853 0.0
C3551 C 0.71904 0.3886 0.37447 0.0
H3552 H 0.66075 0.3953 0.38513 0.0
C3553 C 0.72042 0.35414 0.36535 0.0
C3554 C 0.70044 0.33464 0.36887 0.0
H3555 H 0.73475 0.4032 0.3762 0.0
H3556 H 0.73703 0.34278 0.35634 0.0
C3557 C 0.6793 0.34988 0.3813 0.0
C3558 C 0.0709 0.35107 0.38711 0.0
C3559 C 0.05023 0.33439 0.3982 0.0
H3560 H 0.08764 0.39786 0.38341 0.0
C3561 C 0.02943 0.35196 0.39557 0.0
H3562 H 0.08704 0.3381 0.38362 0.0
C3563 C 0.02963 0.38608 0.38053 0.0
C3564 C 0.0507 0.40301 0.37546 0.0
H3565 H 0.01322 0.33922 0.40359 0.0
H3566 H 0.01351 0.39915 0.37349 0.0
C3567 C 0.07121 0.38554 0.38338 0.0
C3568 C 0.77921 0.10235 0.615 0.0
C3569 C 0.80047 0.08619 0.60906 0.0
H3570 H 0.76218 0.14829 0.63987 0.0
C3571 C 0.82074 0.10457 0.61535 0.0
H3572 H 0.76329 0.08847 0.60991 0.0
C3573 C 0.8199 0.13908 0.61915 0.0
C3574 C 0.79906 0.15502 0.6313 0.0
H3575 H 0.83738 0.09302 0.6158 0.0
H3576 H 0.83585 0.15272 0.61652 0.0
C3577 C 0.77855 0.1365 0.62977 0.0
C3578 C 0.46706 0.13602 0.61988 0.0
C3579 C 0.44556 0.1493 0.60403 0.0
H3580 H 0.48555 0.09183 0.64773 0.0
C3581 C 0.42653 0.1282 0.59764 0.0
H3582 H 0.48209 0.15204 0.62296 0.0
C3583 C 0.42912 0.09406 0.6032 0.0
C3584 C 0.44992 0.08093 0.6248 0.0
H3585 H 0.40951 0.13698 0.58807 0.0
H3586 H 0.41421 0.07835 0.59524 0.0
C3587 C 0.46915 0.10181 0.6321 0.0
C3588 C 0.18191 0.88411 0.38628 0.0
C3589 C 0.20243 0.90129 0.39641 0.0
H3590 H 0.16558 0.83697 0.38535 0.0
C3591 C 0.22339 0.88397 0.3951 0.0
H3592 H 0.16565 0.89674 0.38226 0.0
C3593 C 0.22348 0.84962 0.38214 0.0
C3594 C 0.20254 0.83243 0.37715 0.0
H3595 H 0.23948 0.89705 0.40294 0.0
H3596 H 0.23967 0.83652 0.37653 0.0
C3597 C 0.1819 0.84962 0.38452 0.0
C3598 C 0.5284 0.85029 0.38902 0.0
C3599 C 0.5493 0.83315 0.39523 0.0
H3600 H 0.51237 0.89645 0.35939 0.0
C3601 C 0.5699 0.84959 0.38233 0.0
H3602 H 0.51223 0.83782 0.39876 0.0
C3603 C 0.57004 0.88368 0.37318 0.0
C3604 C 0.54951 0.90059 0.36175 0.0
H3605 H 0.58617 0.83686 0.38175 0.0
H3606 H 0.58642 0.89603 0.37345 0.0
C3607 C 0.52849 0.8837 0.36836 0.0
C3608 C 0.81989 0.63911 0.11777 0.0
C3609 C 0.79909 0.65508 0.13029 0.0
H3610 H 0.8374 0.59307 0.1149 0.0
C3611 C 0.77859 0.63653 0.12998 0.0
H3612 H 0.83583 0.65279 0.11456 0.0
C3613 C 0.77922 0.60225 0.11611 0.0
C3614 C 0.80047 0.58613 0.10948 0.0
H3615 H 0.76227 0.64839 0.14044 0.0
H3616 H 0.76331 0.58824 0.11221 0.0
C3617 C 0.82074 0.60459 0.11471 0.0
C3618 C 0.4687 0.60015 0.12796 0.0
C3619 C 0.44758 0.58328 0.12952 0.0
H3620 H 0.4855 0.64774 0.12043 0.0
C3621 C 0.42715 0.6015 0.12795 0.0
H3622 H 0.48475 0.5864 0.12974 0.0
C3623 C 0.42773 0.63599 0.13517 0.0
C3624 C 0.44854 0.65306 0.12896 0.0
H3625 H 0.41068 0.58932 0.12528 0.0
H3626 H 0.41169 0.64913 0.14151 0.0
C3627 C 0.46916 0.63499 0.12554 0.0
C3628 C 0.22394 0.35136 0.87174 0.0
C3629 C 0.2029 0.33431 0.86788 0.0
H3630 H 0.24037 0.39857 0.88962 0.0
C3631 C 0.18236 0.35214 0.87232 0.0
H3632 H 0.24009 0.33809 0.86743 0.0
C3633 C 0.18271 0.38676 0.87211 0.0
C3634 C 0.20339 0.40367 0.88184 0.0
H3635 H 0.1659 0.33993 0.87367 0.0
H3636 H 0.16658 0.39985 0.86824 0.0
C3637 C 0.22415 0.38589 0.8818 0.0
C3638 C 0.53738 0.34572 0.88095 0.0
C3639 C 0.55665 0.33772 0.91879 0.0
H3640 H 0.52019 0.38367 0.82524 0.0
C3641 C 0.57194 0.36266 0.93805 0.0
H3642 H 0.52405 0.32741 0.87251 0.0
C3643 C 0.56907 0.39508 0.91496 0.0
C3644 C 0.55121 0.40257 0.87087 0.0
H3645 H 0.58625 0.35697 0.97004 0.0
H3646 H 0.5815 0.41387 0.92983 0.0
C3647 C 0.53485 0.378 0.8558 0.0
loop_
_geom_bond_atom_site_label_1
_geom_bond_atom_site_label_2
_geom_bond_distance
_geom_bond_site_symmetry_2
_ccdc_geom_bond_type
Eu0 N31 2.657 . S
Eu0 N38 2.609 . S
Eu0 O44 2.558 . S
Eu0 O45 2.612 . S
Eu0 O47 2.339 . S
Eu0 O48 2.563 . S
Eu0 O49 2.419 . S
Eu0 O51 2.380 . S
Eu0 O52 2.432 . S
Eu0 C64 2.848 . S
C1 C4 1.429 . S
C1 C5 1.411 . S
C1 N8 1.377 . S
C2 C4 1.420 . S
C2 C6 1.423 . S
C2 C14 1.392 . S
C3 C5 1.420 . S
C3 C6 1.351 . S
C3 H26 0.931 . S
C4 C1 1.429 . S
C4 C2 1.420 . S
C4 N12 1.362 . S
C5 C1 1.411 . S
C5 C3 1.420 . S
C5 C10 1.395 . S
C6 C2 1.423 . S
C6 C3 1.351 . S
C6 H18 0.930 . S
C7 C9 1.400 . S
C7 C10 1.386 . S
C7 H19 0.930 . S
N8 C1 1.377 . S
N8 C9 1.321 . S
N8 Eu11 2.609 . S
C9 C7 1.400 . S
C9 N8 1.321 . S
C9 H16 0.930 . S
C10 C5 1.395 . S
C10 C7 1.386 . S
C10 H29 0.930 . S
Eu11 N8 2.609 . S
Eu11 N12 2.657 . S
Eu11 O45 2.380 . S
Eu11 O46 2.432 . S
Eu11 O50 2.558 . S
Eu11 O51 2.612 . S
Eu11 O53 2.339 . S
Eu11 O54 2.563 . S
Eu11 O55 2.419 . S
Eu11 C75 2.848 . S
N12 C4 1.362 . S
N12 Eu11 2.657 . S
N12 C13 1.334 . S
C13 N12 1.334 . S
C13 C15 1.413 . S
C13 H20 0.929 . S
C14 C2 1.392 . S
C14 C15 1.367 . S
C14 H22 0.930 . S
C15 C13 1.413 . S
C15 C14 1.367 . S
C15 H17 0.930 . S
H16 C9 0.930 . S
H17 C15 0.930 . S
H18 C6 0.930 . S
H19 C7 0.930 . S
H20 C13 0.929 . S
H21 C35 0.930 . S
H22 C14 0.930 . S
H23 C41 0.930 . S
H24 C32 0.929 . S
H25 C39 0.930 . S
H26 C3 0.931 . S
H27 C33 0.930 . S
H28 C66 0.930 . S
H29 C10 0.930 . S
H30 C65 0.931 . S
N31 Eu0 2.657 . S
N31 C32 1.334 . S
N31 C36 1.362 . S
C32 H24 0.929 . S
C32 N31 1.334 . S
C32 C35 1.413 . S
C33 H27 0.930 . S
C33 C34 1.392 . S
C33 C35 1.367 . S
C34 C33 1.392 . S
C34 C36 1.420 . S
C34 C66 1.423 . S
C35 H21 0.930 . S
C35 C32 1.413 . S
C35 C33 1.367 . S
C36 N31 1.362 . S
C36 C34 1.420 . S
C36 C40 1.429 . S
H37 C42 0.930 . S
N38 Eu0 2.609 . S
N38 C40 1.377 . S
N38 C41 1.321 . S
C39 H25 0.930 . S
C39 C41 1.400 . S
C39 C42 1.386 . S
C40 C36 1.429 . S
C40 N38 1.377 . S
C40 C43 1.411 . S
C41 H23 0.930 . S
C41 N38 1.321 . S
C41 C39 1.400 . S
C42 H37 0.930 . S
C42 C39 1.386 . S
C42 C43 1.395 . S
C43 C40 1.411 . S
C43 C42 1.395 . S
C43 C65 1.420 . S
O44 Eu0 2.558 . S
O44 C64 1.257 . S
O45 Eu0 2.612 . S
O45 Eu11 2.380 . S
O45 C56 1.276 . S
O46 Eu11 2.432 . S
O46 C63 1.264 . S
O47 Eu0 2.339 . S
O47 C63 1.254 . S
O48 Eu0 2.563 . S
O48 C56 1.235 . S
O49 Eu0 2.419 . S
O49 C64 1.249 . S
O50 Eu11 2.558 . S
O50 C75 1.257 . S
O51 Eu0 2.380 . S
O51 Eu11 2.612 . S
O51 C67 1.276 . S
O52 Eu0 2.432 . S
O52 C74 1.264 . S
O53 Eu11 2.339 . S
O53 C74 1.254 . S
O54 Eu11 2.563 . S
O54 C67 1.235 . S
O55 Eu11 2.419 . S
O55 C75 1.249 . S
C56 O45 1.276 . S
C56 O48 1.235 . S
C57 C59 1.393 . S
C57 C61 1.395 . S
C57 C64 1.492 1_556 S
C58 C59 1.392 . S
C58 C60 1.386 . S
C59 C57 1.393 . S
C59 C58 1.392 . S
C59 H76 0.930 . S
C60 C58 1.386 . S
C60 C62 1.395 . S
C60 H77 0.930 . S
C61 C57 1.395 . S
C61 C62 1.379 . S
C61 H78 0.930 . S
C62 C60 1.395 . S
C62 C61 1.379 . S
C62 H79 0.930 . S
C63 O46 1.264 . S
C63 O47 1.254 . S
C64 Eu0 2.848 . S
C64 O44 1.257 . S
C64 O49 1.249 . S
C64 C57 1.492 1_554 S
C65 H30 0.931 . S
C65 C43 1.420 . S
C65 C66 1.351 . S
C66 H28 0.930 . S
C66 C34 1.423 . S
C66 C65 1.351 . S
C67 O51 1.276 . S
C67 O54 1.235 . S
C68 C69 1.393 . S
C68 C72 1.395 . S
C68 C75 1.492 . S
C69 C68 1.393 . S
C69 C70 1.392 . S
C69 H80 0.930 . S
C70 C69 1.392 . S
C70 C71 1.386 . S
C71 C70 1.386 . S
C71 C73 1.395 . S
C71 H81 0.930 . S
C72 C68 1.395 . S
C72 C73 1.379 . S
C72 H82 0.930 . S
C73 C71 1.395 . S
C73 C72 1.379 . S
C73 H83 0.930 . S
C74 O52 1.264 . S
C74 O53 1.254 . S
C75 Eu11 2.848 . S
C75 O50 1.257 . S
C75 O55 1.249 . S
C75 C68 1.492 . S
H76 C59 0.930 . S
H77 C60 0.930 . S
H78 C61 0.930 . S
H79 C62 0.930 . S
H80 C69 0.930 . S
H81 C71 0.930 . S
H82 C72 0.930 . S
H83 C73 0.930 . S
Eu84 N115 2.651 1_565 S
Eu84 N122 2.609 . S
Eu84 O128 2.558 . S
Eu84 O129 2.615 . S
Eu84 O131 2.339 1_565 S
Eu84 O132 2.563 . S
Eu84 O133 2.419 . S
Eu84 O135 2.380 . S
Eu84 O136 2.432 . S
Eu84 C148 2.848 . S
C85 C88 1.429 . S
C85 C89 1.411 . S
C85 N92 1.403 . S
C86 C88 1.420 . S
C86 C90 1.423 . S
C86 C98 1.392 1_545 S
C87 C89 1.420 . S
C87 C90 1.351 . S
C87 H110 0.931 . S
C88 C85 1.429 . S
C88 C86 1.420 . S
C88 N96 1.362 1_545 S
C89 C85 1.411 . S
C89 C87 1.420 . S
C89 C94 1.395 . S
C90 C86 1.423 . S
C90 C87 1.351 . S
C90 H102 0.930 . S
C91 C93 1.400 1_455 S
C91 C94 1.386 . S
C91 H103 0.930 . S
N92 C85 1.403 . S
N92 C93 1.316 1_455 S
N92 Eu95 2.589 1_455 S
C93 C91 1.400 1_655 S
C93 N92 1.316 1_655 S
C93 H100 0.930 . S
C94 C89 1.395 . S
C94 C91 1.386 . S
C94 H113 0.930 . S
Eu95 N92 2.589 1_655 S
Eu95 N96 2.657 1_645 S
Eu95 O129 2.378 1_545 S
Eu95 O130 2.432 . S
Eu95 O134 2.558 . S
Eu95 O135 2.612 1_545 S
Eu95 O137 2.339 1_545 S
Eu95 O138 2.563 . S
Eu95 O139 2.419 . S
Eu95 C159 2.848 . S
N96 C88 1.362 1_565 S
N96 Eu95 2.657 1_465 S
N96 C97 1.334 . S
C97 N96 1.334 . S
C97 C99 1.413 . S
C97 H104 0.929 . S
C98 C86 1.392 1_565 S
C98 C99 1.367 . S
C98 H106 0.930 . S
C99 C97 1.413 . S
C99 C98 1.367 . S
C99 H101 0.930 . S
H100 C93 0.930 . S
H101 C99 0.930 . S
H102 C90 0.930 . S
H103 C91 0.930 . S
H104 C97 0.929 . S
H105 C119 0.930 . S
H106 C98 0.930 . S
H107 C125 0.930 . S
H108 C116 0.929 . S
H109 C123 0.930 . S
H110 C87 0.931 . S
H111 C117 0.930 . S
H112 C150 0.930 . S
H113 C94 0.930 . S
H114 C149 0.931 . S
N115 Eu84 2.651 1_545 S
N115 C116 1.351 . S
N115 C120 1.351 1_545 S
C116 H108 0.929 . S
C116 N115 1.351 . S
C116 C119 1.413 . S
C117 H111 0.930 . S
C117 C118 1.392 1_545 S
C117 C119 1.367 . S
C118 C117 1.392 1_565 S
C118 C120 1.420 . S
C118 C150 1.423 . S
C119 H105 0.930 . S
C119 C116 1.413 . S
C119 C117 1.367 . S
C120 N115 1.351 1_565 S
C120 C118 1.420 . S
C120 C124 1.429 . S
H121 C126 0.930 . S
N122 Eu84 2.609 . S
N122 C124 1.377 . S
N122 C125 1.321 . S
C123 H109 0.930 . S
C123 C125 1.400 . S
C123 C126 1.386 . S
C124 C120 1.429 . S
C124 N122 1.377 . S
C124 C127 1.411 . S
C125 H107 0.930 . S
C125 N122 1.321 . S
C125 C123 1.400 . S
C126 H121 0.930 . S
C126 C123 1.386 . S
C126 C127 1.395 . S
C127 C124 1.411 . S
C127 C126 1.395 . S
C127 C149 1.420 . S
O128 Eu84 2.558 . S
O128 C148 1.257 . S
O129 Eu84 2.615 . S
O129 Eu95 2.378 1_565 S
O129 C140 1.278 . S
O130 Eu95 2.432 . S
O130 C147 1.264 . S
O131 Eu84 2.339 1_545 S
O131 C147 1.254 . S
O132 Eu84 2.563 . S
O132 C140 1.235 . S
O133 Eu84 2.419 . S
O133 C148 1.249 . S
O134 Eu95 2.558 . S
O134 C159 1.257 . S
O135 Eu84 2.380 . S
O135 Eu95 2.612 1_565 S
O135 C151 1.276 1_565 S
O136 Eu84 2.432 . S
O136 C158 1.264 . S
O137 Eu95 2.339 1_565 S
O137 C158 1.254 . S
O138 Eu95 2.563 . S
O138 C151 1.235 . S
O139 Eu95 2.419 . S
O139 C159 1.249 . S
C140 O129 1.278 . S
C140 O132 1.235 . S
C141 C143 1.393 . S
C141 C145 1.395 . S
C141 C148 1.492 1_556 S
C142 C143 1.392 . S
C142 C144 1.386 . S
C143 C141 1.393 . S
C143 C142 1.392 . S
C143 H160 0.930 1_565 S
C144 C142 1.386 . S
C144 C146 1.395 . S
C144 H161 0.930 . S
C145 C141 1.395 . S
C145 C146 1.379 . S
C145 H162 0.930 . S
C146 C144 1.395 . S
C146 C145 1.379 . S
C146 H163 0.930 . S
C147 O130 1.264 . S
C147 O131 1.254 . S
C148 Eu84 2.848 . S
C148 O128 1.257 . S
C148 O133 1.249 . S
C148 C141 1.492 1_554 S
C149 H114 0.931 . S
C149 C127 1.420 . S
C149 C150 1.351 . S
C150 H112 0.930 . S
C150 C118 1.423 . S
C150 C149 1.351 . S
C151 O135 1.276 1_545 S
C151 O138 1.235 . S
C152 C153 1.393 . S
C152 C156 1.395 . S
C152 C159 1.492 . S
C153 C152 1.393 . S
C153 C154 1.392 . S
C153 H164 0.930 1_545 S
C154 C153 1.392 . S
C154 C155 1.386 . S
C155 C154 1.386 . S
C155 C157 1.395 . S
C155 H165 0.930 . S
C156 C152 1.395 . S
C156 C157 1.379 . S
C156 H166 0.930 . S
C157 C155 1.395 . S
C157 C156 1.379 . S
C157 H167 0.930 . S
C158 O136 1.264 . S
C158 O137 1.254 . S
C159 Eu95 2.848 . S
C159 O134 1.257 . S
C159 O139 1.249 . S
C159 C152 1.492 . S
H160 C143 0.930 1_545 S
H161 C144 0.930 . S
H162 C145 0.930 . S
H163 C146 0.930 . S
H164 C153 0.930 1_565 S
H165 C155 0.930 . S
H166 C156 0.930 . S
H167 C157 0.930 . S
Eu168 N199 2.651 1_565 S
Eu168 N206 2.609 . S
Eu168 O212 2.558 . S
Eu168 O213 2.615 . S
Eu168 O215 2.339 1_565 S
Eu168 O216 2.563 . S
Eu168 O217 2.419 . S
Eu168 O219 2.380 1_554 S
Eu168 O220 2.432 . S
Eu168 C232 2.848 . S
C169 C172 1.429 . S
C169 C173 1.411 . S
C169 N176 1.377 . S
C170 C172 1.420 . S
C170 C174 1.423 . S
C170 C182 1.392 1_545 S
C171 C173 1.420 . S
C171 C174 1.351 . S
C171 H194 0.931 . S
C172 C169 1.429 . S
C172 C170 1.420 . S
C172 N180 1.362 1_545 S
C173 C169 1.411 . S
C173 C171 1.420 . S
C173 C178 1.395 . S
C174 C170 1.423 . S
C174 C171 1.351 . S
C174 H186 0.930 . S
C175 C177 1.400 . S
C175 C178 1.386 . S
C175 H187 0.930 . S
N176 C169 1.377 . S
N176 C177 1.321 . S
N176 Eu179 2.609 . S
C177 C175 1.400 . S
C177 N176 1.321 . S
C177 H184 0.930 . S
C178 C173 1.395 . S
C178 C175 1.386 . S
C178 H197 0.930 . S
Eu179 N176 2.609 . S
Eu179 N180 2.657 1_545 S
Eu179 O213 2.378 1_546 S
Eu179 O214 2.432 1_556 S
Eu179 O218 2.558 . S
Eu179 O219 2.612 1_545 S
Eu179 O221 2.339 1_545 S
Eu179 O222 2.563 . S
Eu179 O223 2.419 . S
Eu179 C243 2.848 . S
N180 C172 1.362 1_565 S
N180 Eu179 2.657 1_565 S
N180 C181 1.334 . S
C181 N180 1.334 . S
C181 C183 1.413 . S
C181 H188 0.929 . S
C182 C170 1.392 1_565 S
C182 C183 1.367 . S
C182 H190 0.930 . S
C183 C181 1.413 . S
C183 C182 1.367 . S
C183 H185 0.930 . S
H184 C177 0.930 . S
H185 C183 0.930 . S
H186 C174 0.930 . S
H187 C175 0.930 . S
H188 C181 0.929 . S
H189 C203 0.930 . S
H190 C182 0.930 . S
H191 C209 0.930 . S
H192 C200 0.929 . S
H193 C207 0.930 . S
H194 C171 0.931 . S
H195 C201 0.930 . S
H196 C234 0.930 . S
H197 C178 0.930 . S
H198 C233 0.931 . S
N199 Eu168 2.651 1_545 S
N199 C200 1.351 . S
N199 C204 1.351 1_545 S
C200 H192 0.929 . S
C200 N199 1.351 . S
C200 C203 1.413 . S
C201 H195 0.930 . S
C201 C202 1.392 1_545 S
C201 C203 1.367 . S
C202 C201 1.392 1_565 S
C202 C204 1.420 . S
C202 C234 1.423 . S
C203 H189 0.930 . S
C203 C200 1.413 . S
C203 C201 1.367 . S
C204 N199 1.351 1_565 S
C204 C202 1.420 . S
C204 C208 1.429 . S
H205 C210 0.930 . S
N206 Eu168 2.609 . S
N206 C208 1.377 . S
N206 C209 1.321 . S
C207 H193 0.930 . S
C207 C209 1.400 . S
C207 C210 1.386 . S
C208 C204 1.429 . S
C208 N206 1.377 . S
C208 C211 1.411 . S
C209 H191 0.930 . S
C209 N206 1.321 . S
C209 C207 1.400 . S
C210 H205 0.930 . S
C210 C207 1.386 . S
C210 C211 1.395 . S
C211 C208 1.411 . S
C211 C210 1.395 . S
C211 C233 1.420 . S
O212 Eu168 2.558 . S
O212 C232 1.257 . S
O213 Eu168 2.615 . S
O213 Eu179 2.378 1_564 S
O213 C224 1.278 . S
O214 Eu179 2.432 1_554 S
O214 C231 1.264 . S
O215 Eu168 2.339 1_545 S
O215 C231 1.254 . S
O216 Eu168 2.563 . S
O216 C224 1.235 . S
O217 Eu168 2.419 . S
O217 C232 1.249 . S
O218 Eu179 2.558 . S
O218 C243 1.257 . S
O219 Eu168 2.380 1_556 S
O219 Eu179 2.612 1_565 S
O219 C235 1.276 1_565 S
O220 Eu168 2.432 . S
O220 C242 1.264 1_554 S
O221 Eu179 2.339 1_565 S
O221 C242 1.254 . S
O222 Eu179 2.563 . S
O222 C235 1.235 . S
O223 Eu179 2.419 . S
O223 C243 1.249 . S
C224 O213 1.278 . S
C224 O216 1.235 . S
C225 C227 1.393 . S
C225 C229 1.395 . S
C225 C232 1.492 . S
C226 C227 1.392 . S
C226 C228 1.386 . S
C227 C225 1.393 . S
C227 C226 1.392 . S
C227 H244 0.930 1_565 S
C228 C226 1.386 . S
C228 C230 1.395 . S
C228 H245 0.930 . S
C229 C225 1.395 . S
C229 C230 1.379 . S
C229 H246 0.930 . S
C230 C228 1.395 . S
C230 C229 1.379 . S
C230 H247 0.930 . S
C231 O214 1.264 . S
C231 O215 1.254 . S
C232 Eu168 2.848 . S
C232 O212 1.257 . S
C232 O217 1.249 . S
C232 C225 1.492 . S
C233 H198 0.931 . S
C233 C211 1.420 . S
C233 C234 1.351 . S
C234 H196 0.930 . S
C234 C202 1.423 . S
C234 C233 1.351 . S
C235 O219 1.276 1_545 S
C235 O222 1.235 . S
C236 C237 1.393 . S
C236 C240 1.395 . S
C236 C243 1.492 . S
C237 C236 1.393 . S
C237 C238 1.392 . S
C237 H248 0.930 1_545 S
C238 C237 1.392 . S
C238 C239 1.386 . S
C239 C238 1.386 . S
C239 C241 1.395 . S
C239 H249 0.930 . S
C240 C236 1.395 . S
C240 C241 1.379 . S
C240 H250 0.930 . S
C241 C239 1.395 . S
C241 C240 1.379 . S
C241 H251 0.930 . S
C242 O220 1.264 1_556 S
C242 O221 1.254 . S
C243 Eu179 2.848 . S
C243 O218 1.257 . S
C243 O223 1.249 . S
C243 C236 1.492 . S
H244 C227 0.930 1_545 S
H245 C228 0.930 . S
H246 C229 0.930 . S
H247 C230 0.930 . S
H248 C237 0.930 1_565 S
H249 C239 0.930 . S
H250 C240 0.930 . S
H251 C241 0.930 . S
Eu252 N283 2.657 . S
Eu252 N290 2.609 . S
Eu252 O296 2.558 . S
Eu252 O297 2.612 . S
Eu252 O299 2.339 . S
Eu252 O300 2.563 . S
Eu252 O301 2.419 . S
Eu252 O303 2.380 1_554 S
Eu252 O304 2.432 . S
Eu252 C316 2.848 . S
C253 C256 1.429 . S
C253 C257 1.411 . S
C253 N260 1.403 . S
C254 C256 1.420 . S
C254 C258 1.423 . S
C254 C266 1.392 . S
C255 C257 1.420 . S
C255 C258 1.351 . S
C255 H278 0.931 . S
C256 C253 1.429 . S
C256 C254 1.420 . S
C256 N264 1.362 . S
C257 C253 1.411 . S
C257 C255 1.420 . S
C257 C262 1.395 . S
C258 C254 1.423 . S
C258 C255 1.351 . S
C258 H270 0.930 . S
C259 C261 1.400 1_455 S
C259 C262 1.386 . S
C259 H271 0.930 . S
N260 C253 1.403 . S
N260 C261 1.316 1_455 S
N260 Eu263 2.589 1_455 S
C261 C259 1.400 1_655 S
C261 N260 1.316 1_655 S
C261 H268 0.930 . S
C262 C257 1.395 . S
C262 C259 1.386 . S
C262 H281 0.930 . S
Eu263 N260 2.589 1_655 S
Eu263 N264 2.657 1_655 S
Eu263 O297 2.380 1_556 S
Eu263 O298 2.432 1_556 S
Eu263 O302 2.558 . S
Eu263 O303 2.612 . S
Eu263 O305 2.339 . S
Eu263 O306 2.563 . S
Eu263 O307 2.419 . S
Eu263 C327 2.848 . S
N264 C256 1.362 . S
N264 Eu263 2.657 1_455 S
N264 C265 1.334 . S
C265 N264 1.334 . S
C265 C267 1.413 . S
C265 H272 0.929 . S
C266 C254 1.392 . S
C266 C267 1.367 . S
C266 H274 0.930 . S
C267 C265 1.413 . S
C267 C266 1.367 . S
C267 H269 0.930 . S
H268 C261 0.930 . S
H269 C267 0.930 . S
H270 C258 0.930 . S
H271 C259 0.930 . S
H272 C265 0.929 . S
H273 C287 0.930 . S
H274 C266 0.930 . S
H275 C293 0.930 . S
H276 C284 0.929 . S
H277 C291 0.930 . S
H278 C255 0.931 . S
H279 C285 0.930 . S
H280 C318 0.930 . S
H281 C262 0.930 . S
H282 C317 0.931 . S
N283 Eu252 2.657 . S
N283 C284 1.334 . S
N283 C288 1.362 . S
C284 H276 0.929 . S
C284 N283 1.334 . S
C284 C287 1.413 . S
C285 H279 0.930 . S
C285 C286 1.392 . S
C285 C287 1.367 . S
C286 C285 1.392 . S
C286 C288 1.420 . S
C286 C318 1.423 . S
C287 H273 0.930 . S
C287 C284 1.413 . S
C287 C285 1.367 . S
C288 N283 1.362 . S
C288 C286 1.420 . S
C288 C292 1.429 . S
H289 C294 0.930 . S
N290 Eu252 2.609 . S
N290 C292 1.377 . S
N290 C293 1.321 . S
C291 H277 0.930 . S
C291 C293 1.400 . S
C291 C294 1.386 . S
C292 C288 1.429 . S
C292 N290 1.377 . S
C292 C295 1.411 . S
C293 H275 0.930 . S
C293 N290 1.321 . S
C293 C291 1.400 . S
C294 H289 0.930 . S
C294 C291 1.386 . S
C294 C295 1.395 . S
C295 C292 1.411 . S
C295 C294 1.395 . S
C295 C317 1.420 . S
O296 Eu252 2.558 . S
O296 C316 1.257 . S
O297 Eu252 2.612 . S
O297 Eu263 2.380 1_554 S
O297 C308 1.276 . S
O298 Eu263 2.432 1_554 S
O298 C315 1.264 . S
O299 Eu252 2.339 . S
O299 C315 1.254 . S
O300 Eu252 2.563 . S
O300 C308 1.235 . S
O301 Eu252 2.419 . S
O301 C316 1.249 . S
O302 Eu263 2.558 . S
O302 C327 1.257 . S
O303 Eu252 2.380 1_556 S
O303 Eu263 2.612 . S
O303 C319 1.276 . S
O304 Eu252 2.432 . S
O304 C326 1.264 1_554 S
O305 Eu263 2.339 . S
O305 C326 1.254 . S
O306 Eu263 2.563 . S
O306 C319 1.235 . S
O307 Eu263 2.419 . S
O307 C327 1.249 . S
C308 O297 1.276 . S
C308 O300 1.235 . S
C309 C311 1.393 . S
C309 C313 1.395 . S
C309 C316 1.492 . S
C310 C311 1.392 . S
C310 C312 1.386 . S
C311 C309 1.393 . S
C311 C310 1.392 . S
C311 H328 0.930 . S
C312 C310 1.386 . S
C312 C314 1.395 . S
C312 H329 0.930 . S
C313 C309 1.395 . S
C313 C314 1.379 . S
C313 H330 0.930 . S
C314 C312 1.395 . S
C314 C313 1.379 . S
C314 H331 0.930 . S
C315 O298 1.264 . S
C315 O299 1.254 . S
C316 Eu252 2.848 . S
C316 O296 1.257 . S
C316 O301 1.249 . S
C316 C309 1.492 . S
C317 H282 0.931 . S
C317 C295 1.420 . S
C317 C318 1.351 . S
C318 H280 0.930 . S
C318 C286 1.423 . S
C318 C317 1.351 . S
C319 O303 1.276 . S
C319 O306 1.235 . S
C320 C321 1.393 . S
C320 C324 1.395 . S
C320 C327 1.492 . S
C321 C320 1.393 . S
C321 C322 1.392 . S
C321 H332 0.930 . S
C322 C321 1.392 . S
C322 C323 1.386 . S
C323 C322 1.386 . S
C323 C325 1.395 . S
C323 H333 0.930 . S
C324 C320 1.395 . S
C324 C325 1.379 . S
C324 H334 0.930 . S
C325 C323 1.395 . S
C325 C324 1.379 . S
C325 H335 0.930 . S
C326 O304 1.264 1_556 S
C326 O305 1.254 . S
C327 Eu263 2.848 . S
C327 O302 1.257 . S
C327 O307 1.249 . S
C327 C320 1.492 . S
H328 C311 0.930 . S
H329 C312 0.930 . S
H330 C313 0.930 . S
H331 C314 0.930 . S
H332 C321 0.930 . S
H333 C323 0.930 . S
H334 C324 0.930 . S
H335 C325 0.930 . S
Eu336 N367 2.657 . S
Eu336 N374 2.609 . S
Eu336 O380 2.558 . S
Eu336 O381 2.612 . S
Eu336 O383 2.339 . S
Eu336 O384 2.563 . S
Eu336 O385 2.419 . S
Eu336 O387 2.380 . S
Eu336 O388 2.432 . S
Eu336 C400 2.848 . S
C337 C340 1.429 . S
C337 C341 1.411 . S
C337 N344 1.377 . S
C338 C340 1.420 . S
C338 C342 1.423 . S
C338 C350 1.392 . S
C339 C341 1.420 . S
C339 C342 1.351 . S
C339 H362 0.931 . S
C340 C337 1.429 . S
C340 C338 1.420 . S
C340 N348 1.362 . S
C341 C337 1.411 . S
C341 C339 1.420 . S
C341 C346 1.395 . S
C342 C338 1.423 . S
C342 C339 1.351 . S
C342 H354 0.930 . S
C343 C345 1.400 . S
C343 C346 1.386 . S
C343 H355 0.930 . S
N344 C337 1.377 . S
N344 C345 1.321 . S
N344 Eu347 2.609 . S
C345 C343 1.400 . S
C345 N344 1.321 . S
C345 H352 0.930 . S
C346 C341 1.395 . S
C346 C343 1.386 . S
C346 H365 0.930 . S
Eu347 N344 2.609 . S
Eu347 N348 2.657 . S
Eu347 O381 2.380 . S
Eu347 O382 2.432 . S
Eu347 O386 2.558 . S
Eu347 O387 2.612 . S
Eu347 O389 2.339 . S
Eu347 O390 2.563 . S
Eu347 O391 2.419 . S
Eu347 C411 2.848 . S
N348 C340 1.362 . S
N348 Eu347 2.657 . S
N348 C349 1.334 . S
C349 N348 1.334 . S
C349 C351 1.413 . S
C349 H356 0.929 . S
C350 C338 1.392 . S
C350 C351 1.367 . S
C350 H358 0.930 . S
C351 C349 1.413 . S
C351 C350 1.367 . S
C351 H353 0.930 . S
H352 C345 0.930 . S
H353 C351 0.930 . S
H354 C342 0.930 . S
H355 C343 0.930 . S
H356 C349 0.929 . S
H357 C371 0.930 . S
H358 C350 0.930 . S
H359 C377 0.930 . S
H360 C368 0.929 . S
H361 C375 0.930 . S
H362 C339 0.931 . S
H363 C369 0.930 . S
H364 C402 0.930 . S
H365 C346 0.930 . S
H366 C401 0.931 . S
N367 Eu336 2.657 . S
N367 C368 1.334 . S
N367 C372 1.362 . S
C368 H360 0.929 . S
C368 N367 1.334 . S
C368 C371 1.413 . S
C369 H363 0.930 . S
C369 C370 1.392 . S
C369 C371 1.367 . S
C370 C369 1.392 . S
C370 C372 1.420 . S
C370 C402 1.423 . S
C371 H357 0.930 . S
C371 C368 1.413 . S
C371 C369 1.367 . S
C372 N367 1.362 . S
C372 C370 1.420 . S
C372 C376 1.429 . S
H373 C378 0.930 . S
N374 Eu336 2.609 . S
N374 C376 1.377 . S
N374 C377 1.321 . S
C375 H361 0.930 . S
C375 C377 1.400 . S
C375 C378 1.386 . S
C376 C372 1.429 . S
C376 N374 1.377 . S
C376 C379 1.411 . S
C377 H359 0.930 . S
C377 N374 1.321 . S
C377 C375 1.400 . S
C378 H373 0.930 . S
C378 C375 1.386 . S
C378 C379 1.395 . S
C379 C376 1.411 . S
C379 C378 1.395 . S
C379 C401 1.420 . S
O380 Eu336 2.558 . S
O380 C400 1.257 . S
O381 Eu336 2.612 . S
O381 Eu347 2.380 . S
O381 C392 1.276 . S
O382 Eu347 2.432 . S
O382 C399 1.264 . S
O383 Eu336 2.339 . S
O383 C399 1.254 . S
O384 Eu336 2.563 . S
O384 C392 1.235 . S
O385 Eu336 2.419 . S
O385 C400 1.249 . S
O386 Eu347 2.558 . S
O386 C411 1.257 . S
O387 Eu336 2.380 . S
O387 Eu347 2.612 . S
O387 C403 1.276 . S
O388 Eu336 2.432 . S
O388 C410 1.264 . S
O389 Eu347 2.339 . S
O389 C410 1.254 . S
O390 Eu347 2.563 . S
O390 C403 1.235 . S
O391 Eu347 2.419 . S
O391 C411 1.249 . S
C392 O381 1.276 . S
C392 O384 1.235 . S
C393 C395 1.393 . S
C393 C397 1.395 . S
C393 C400 1.492 . S
C394 C395 1.392 . S
C394 C396 1.386 . S
C395 C393 1.393 . S
C395 C394 1.392 . S
C395 H412 0.930 . S
C396 C394 1.386 . S
C396 C398 1.395 . S
C396 H413 0.930 . S
C397 C393 1.395 . S
C397 C398 1.379 . S
C397 H414 0.930 . S
C398 C396 1.395 . S
C398 C397 1.379 . S
C398 H415 0.930 . S
C399 O382 1.264 . S
C399 O383 1.254 . S
C400 Eu336 2.848 . S
C400 O380 1.257 . S
C400 O385 1.249 . S
C400 C393 1.492 . S
C401 H366 0.931 . S
C401 C379 1.420 . S
C401 C402 1.351 . S
C402 H364 0.930 . S
C402 C370 1.423 . S
C402 C401 1.351 . S
C403 O387 1.276 . S
C403 O390 1.235 . S
C404 C405 1.393 . S
C404 C408 1.395 . S
C404 C411 1.492 1_554 S
C405 C404 1.393 . S
C405 C406 1.392 . S
C405 H416 0.930 . S
C406 C405 1.392 . S
C406 C407 1.386 . S
C407 C406 1.386 . S
C407 C409 1.395 . S
C407 H417 0.930 . S
C408 C404 1.395 . S
C408 C409 1.379 . S
C408 H418 0.930 . S
C409 C407 1.395 . S
C409 C408 1.379 . S
C409 H419 0.930 . S
C410 O388 1.264 . S
C410 O389 1.254 . S
C411 Eu347 2.848 . S
C411 O386 1.257 . S
C411 O391 1.249 . S
C411 C404 1.492 1_556 S
H412 C395 0.930 . S
H413 C396 0.930 . S
H414 C397 0.930 . S
H415 C398 0.930 . S
H416 C405 0.930 . S
H417 C407 0.930 . S
H418 C408 0.930 . S
H419 C409 0.930 . S
Eu420 N451 2.657 1_465 S
Eu420 N458 2.589 1_455 S
Eu420 O464 2.558 . S
Eu420 O465 2.612 1_565 S
Eu420 O467 2.339 1_565 S
Eu420 O468 2.563 . S
Eu420 O469 2.419 . S
Eu420 O471 2.378 1_565 S
Eu420 O472 2.432 . S
Eu420 C484 2.848 . S
C421 C424 1.429 . S
C421 C425 1.411 . S
C421 N428 1.377 . S
C422 C424 1.420 . S
C422 C426 1.423 . S
C422 C434 1.392 1_545 S
C423 C425 1.420 . S
C423 C426 1.351 . S
C423 H446 0.931 . S
C424 C421 1.429 . S
C424 C422 1.420 . S
C424 N432 1.351 1_545 S
C425 C421 1.411 . S
C425 C423 1.420 . S
C425 C430 1.395 . S
C426 C422 1.423 . S
C426 C423 1.351 . S
C426 H438 0.930 . S
C427 C429 1.400 . S
C427 C430 1.386 . S
C427 H439 0.930 . S
N428 C421 1.377 . S
N428 C429 1.321 . S
N428 Eu431 2.609 . S
C429 C427 1.400 . S
C429 N428 1.321 . S
C429 H436 0.930 . S
C430 C425 1.395 . S
C430 C427 1.386 . S
C430 H449 0.930 . S
Eu431 N428 2.609 . S
Eu431 N432 2.651 1_545 S
Eu431 O465 2.380 . S
Eu431 O466 2.432 . S
Eu431 O470 2.558 . S
Eu431 O471 2.615 . S
Eu431 O473 2.339 1_545 S
Eu431 O474 2.563 . S
Eu431 O475 2.419 . S
Eu431 C495 2.848 . S
N432 C424 1.351 1_565 S
N432 Eu431 2.651 1_565 S
N432 C433 1.351 . S
C433 N432 1.351 . S
C433 C435 1.413 . S
C433 H440 0.929 . S
C434 C422 1.392 1_565 S
C434 C435 1.367 . S
C434 H442 0.930 . S
C435 C433 1.413 . S
C435 C434 1.367 . S
C435 H437 0.930 . S
H436 C429 0.930 . S
H437 C435 0.930 . S
H438 C426 0.930 . S
H439 C427 0.930 . S
H440 C433 0.929 . S
H441 C455 0.930 . S
H442 C434 0.930 . S
H443 C461 0.930 . S
H444 C452 0.929 . S
H445 C459 0.930 . S
H446 C423 0.931 . S
H447 C453 0.930 . S
H448 C486 0.930 . S
H449 C430 0.930 . S
H450 C485 0.931 . S
N451 Eu420 2.657 1_645 S
N451 C452 1.334 . S
N451 C456 1.362 1_545 S
C452 H444 0.929 . S
C452 N451 1.334 . S
C452 C455 1.413 . S
C453 H447 0.930 . S
C453 C454 1.392 1_545 S
C453 C455 1.367 . S
C454 C453 1.392 1_565 S
C454 C456 1.420 . S
C454 C486 1.423 . S
C455 H441 0.930 . S
C455 C452 1.413 . S
C455 C453 1.367 . S
C456 N451 1.362 1_565 S
C456 C454 1.420 . S
C456 C460 1.429 . S
H457 C462 0.930 . S
N458 Eu420 2.589 1_655 S
N458 C460 1.403 . S
N458 C461 1.316 1_655 S
C459 H445 0.930 . S
C459 C461 1.400 1_655 S
C459 C462 1.386 . S
C460 C456 1.429 . S
C460 N458 1.403 . S
C460 C463 1.411 . S
C461 H443 0.930 . S
C461 N458 1.316 1_455 S
C461 C459 1.400 1_455 S
C462 H457 0.930 . S
C462 C459 1.386 . S
C462 C463 1.395 . S
C463 C460 1.411 . S
C463 C462 1.395 . S
C463 C485 1.420 . S
O464 Eu420 2.558 . S
O464 C484 1.257 . S
O465 Eu420 2.612 1_545 S
O465 Eu431 2.380 . S
O465 C476 1.276 1_545 S
O466 Eu431 2.432 . S
O466 C483 1.264 . S
O467 Eu420 2.339 1_545 S
O467 C483 1.254 . S
O468 Eu420 2.563 . S
O468 C476 1.235 . S
O469 Eu420 2.419 . S
O469 C484 1.249 . S
O470 Eu431 2.558 . S
O470 C495 1.257 . S
O471 Eu420 2.378 1_545 S
O471 Eu431 2.615 . S
O471 C487 1.278 . S
O472 Eu420 2.432 . S
O472 C494 1.264 . S
O473 Eu431 2.339 1_565 S
O473 C494 1.254 . S
O474 Eu431 2.563 . S
O474 C487 1.235 . S
O475 Eu431 2.419 . S
O475 C495 1.249 . S
C476 O465 1.276 1_565 S
C476 O468 1.235 . S
C477 C479 1.393 . S
C477 C481 1.395 . S
C477 C484 1.492 . S
C478 C479 1.392 . S
C478 C480 1.386 . S
C479 C477 1.393 . S
C479 C478 1.392 . S
C479 H496 0.930 1_565 S
C480 C478 1.386 . S
C480 C482 1.395 . S
C480 H497 0.930 . S
C481 C477 1.395 . S
C481 C482 1.379 . S
C481 H498 0.930 . S
C482 C480 1.395 . S
C482 C481 1.379 . S
C482 H499 0.930 . S
C483 O466 1.264 . S
C483 O467 1.254 . S
C484 Eu420 2.848 . S
C484 O464 1.257 . S
C484 O469 1.249 . S
C484 C477 1.492 . S
C485 H450 0.931 . S
C485 C463 1.420 . S
C485 C486 1.351 . S
C486 H448 0.930 . S
C486 C454 1.423 . S
C486 C485 1.351 . S
C487 O471 1.278 . S
C487 O474 1.235 . S
C488 C489 1.393 . S
C488 C492 1.395 . S
C488 C495 1.492 1_554 S
C489 C488 1.393 . S
C489 C490 1.392 . S
C489 H500 0.930 1_545 S
C490 C489 1.392 . S
C490 C491 1.386 . S
C491 C490 1.386 . S
C491 C493 1.395 . S
C491 H501 0.930 . S
C492 C488 1.395 . S
C492 C493 1.379 . S
C492 H502 0.930 . S
C493 C491 1.395 . S
C493 C492 1.379 . S
C493 H503 0.930 . S
C494 O472 1.264 . S
C494 O473 1.254 . S
C495 Eu431 2.848 . S
C495 O470 1.257 . S
C495 O475 1.249 . S
C495 C488 1.492 1_556 S
H496 C479 0.930 1_545 S
H497 C480 0.930 . S
H498 C481 0.930 . S
H499 C482 0.930 . S
H500 C489 0.930 1_565 S
H501 C491 0.930 . S
H502 C492 0.930 . S
H503 C493 0.930 . S
Eu504 N535 2.657 1_565 S
Eu504 N542 2.609 . S
Eu504 O548 2.558 . S
Eu504 O549 2.612 1_565 S
Eu504 O551 2.339 1_565 S
Eu504 O552 2.563 . S
Eu504 O553 2.419 . S
Eu504 O555 2.378 1_564 S
Eu504 O556 2.432 1_554 S
Eu504 C568 2.848 . S
C505 C508 1.429 . S
C505 C509 1.411 . S
C505 N512 1.377 . S
C506 C508 1.420 . S
C506 C510 1.423 . S
C506 C518 1.392 1_545 S
C507 C509 1.420 . S
C507 C510 1.351 . S
C507 H530 0.931 . S
C508 C505 1.429 . S
C508 C506 1.420 . S
C508 N516 1.351 1_545 S
C509 C505 1.411 . S
C509 C507 1.420 . S
C509 C514 1.395 . S
C510 C506 1.423 . S
C510 C507 1.351 . S
C510 H522 0.930 . S
C511 C513 1.400 . S
C511 C514 1.386 . S
C511 H523 0.930 . S
N512 C505 1.377 . S
N512 C513 1.321 . S
N512 Eu515 2.609 . S
C513 C511 1.400 . S
C513 N512 1.321 . S
C513 H520 0.930 . S
C514 C509 1.395 . S
C514 C511 1.386 . S
C514 H533 0.930 . S
Eu515 N512 2.609 . S
Eu515 N516 2.651 1_545 S
Eu515 O549 2.380 1_556 S
Eu515 O550 2.432 . S
Eu515 O554 2.558 . S
Eu515 O555 2.615 . S
Eu515 O557 2.339 1_545 S
Eu515 O558 2.563 . S
Eu515 O559 2.419 . S
Eu515 C579 2.848 . S
N516 C508 1.351 1_565 S
N516 Eu515 2.651 1_565 S
N516 C517 1.351 . S
C517 N516 1.351 . S
C517 C519 1.413 . S
C517 H524 0.929 . S
C518 C506 1.392 1_565 S
C518 C519 1.367 . S
C518 H526 0.930 . S
C519 C517 1.413 . S
C519 C518 1.367 . S
C519 H521 0.930 . S
H520 C513 0.930 . S
H521 C519 0.930 . S
H522 C510 0.930 . S
H523 C511 0.930 . S
H524 C517 0.929 . S
H525 C539 0.930 . S
H526 C518 0.930 . S
H527 C545 0.930 . S
H528 C536 0.929 . S
H529 C543 0.930 . S
H530 C507 0.931 . S
H531 C537 0.930 . S
H532 C570 0.930 . S
H533 C514 0.930 . S
H534 C569 0.931 . S
N535 Eu504 2.657 1_545 S
N535 C536 1.334 . S
N535 C540 1.362 1_545 S
C536 H528 0.929 . S
C536 N535 1.334 . S
C536 C539 1.413 . S
C537 H531 0.930 . S
C537 C538 1.392 1_545 S
C537 C539 1.367 . S
C538 C537 1.392 1_565 S
C538 C540 1.420 . S
C538 C570 1.423 . S
C539 H525 0.930 . S
C539 C536 1.413 . S
C539 C537 1.367 . S
C540 N535 1.362 1_565 S
C540 C538 1.420 . S
C540 C544 1.429 . S
H541 C546 0.930 . S
N542 Eu504 2.609 . S
N542 C544 1.377 . S
N542 C545 1.321 . S
C543 H529 0.930 . S
C543 C545 1.400 . S
C543 C546 1.386 . S
C544 C540 1.429 . S
C544 N542 1.377 . S
C544 C547 1.411 . S
C545 H527 0.930 . S
C545 N542 1.321 . S
C545 C543 1.400 . S
C546 H541 0.930 . S
C546 C543 1.386 . S
C546 C547 1.395 . S
C547 C544 1.411 . S
C547 C546 1.395 . S
C547 C569 1.420 . S
O548 Eu504 2.558 . S
O548 C568 1.257 . S
O549 Eu504 2.612 1_545 S
O549 Eu515 2.380 1_554 S
O549 C560 1.276 1_545 S
O550 Eu515 2.432 . S
O550 C567 1.264 1_556 S
O551 Eu504 2.339 1_545 S
O551 C567 1.254 . S
O552 Eu504 2.563 . S
O552 C560 1.235 . S
O553 Eu504 2.419 . S
O553 C568 1.249 . S
O554 Eu515 2.558 . S
O554 C579 1.257 . S
O555 Eu504 2.378 1_546 S
O555 Eu515 2.615 . S
O555 C571 1.278 . S
O556 Eu504 2.432 1_556 S
O556 C578 1.264 . S
O557 Eu515 2.339 1_565 S
O557 C578 1.254 . S
O558 Eu515 2.563 . S
O558 C571 1.235 . S
O559 Eu515 2.419 . S
O559 C579 1.249 . S
C560 O549 1.276 1_565 S
C560 O552 1.235 . S
C561 C563 1.393 . S
C561 C565 1.395 . S
C561 C568 1.492 . S
C562 C563 1.392 . S
C562 C564 1.386 . S
C563 C561 1.393 . S
C563 C562 1.392 . S
C563 H580 0.930 1_565 S
C564 C562 1.386 . S
C564 C566 1.395 . S
C564 H581 0.930 . S
C565 C561 1.395 . S
C565 C566 1.379 . S
C565 H582 0.930 . S
C566 C564 1.395 . S
C566 C565 1.379 . S
C566 H583 0.930 . S
C567 O550 1.264 1_554 S
C567 O551 1.254 . S
C568 Eu504 2.848 . S
C568 O548 1.257 . S
C568 O553 1.249 . S
C568 C561 1.492 . S
C569 H534 0.931 . S
C569 C547 1.420 . S
C569 C570 1.351 . S
C570 H532 0.930 . S
C570 C538 1.423 . S
C570 C569 1.351 . S
C571 O555 1.278 . S
C571 O558 1.235 . S
C572 C573 1.393 . S
C572 C576 1.395 . S
C572 C579 1.492 . S
C573 C572 1.393 . S
C573 C574 1.392 . S
C573 H584 0.930 1_545 S
C574 C573 1.392 . S
C574 C575 1.386 . S
C575 C574 1.386 . S
C575 C577 1.395 . S
C575 H585 0.930 . S
C576 C572 1.395 . S
C576 C577 1.379 . S
C576 H586 0.930 . S
C577 C575 1.395 . S
C577 C576 1.379 . S
C577 H587 0.930 . S
C578 O556 1.264 . S
C578 O557 1.254 . S
C579 Eu515 2.848 . S
C579 O554 1.257 . S
C579 O559 1.249 . S
C579 C572 1.492 . S
H580 C563 0.930 1_545 S
H581 C564 0.930 . S
H582 C565 0.930 . S
H583 C566 0.930 . S
H584 C573 0.930 1_565 S
H585 C575 0.930 . S
H586 C576 0.930 . S
H587 C577 0.930 . S
Eu588 N619 2.657 1_455 S
Eu588 N626 2.589 1_455 S
Eu588 O632 2.558 . S
Eu588 O633 2.612 . S
Eu588 O635 2.339 . S
Eu588 O636 2.563 . S
Eu588 O637 2.419 . S
Eu588 O639 2.380 1_554 S
Eu588 O640 2.432 1_554 S
Eu588 C652 2.848 . S
C589 C592 1.429 . S
C589 C593 1.411 . S
C589 N596 1.377 . S
C590 C592 1.420 . S
C590 C594 1.423 . S
C590 C602 1.392 . S
C591 C593 1.420 . S
C591 C594 1.351 . S
C591 H614 0.931 . S
C592 C589 1.429 . S
C592 C590 1.420 . S
C592 N600 1.362 . S
C593 C589 1.411 . S
C593 C591 1.420 . S
C593 C598 1.395 . S
C594 C590 1.423 . S
C594 C591 1.351 . S
C594 H606 0.930 . S
C595 C597 1.400 . S
C595 C598 1.386 . S
C595 H607 0.930 . S
N596 C589 1.377 . S
N596 C597 1.321 . S
N596 Eu599 2.609 . S
C597 C595 1.400 . S
C597 N596 1.321 . S
C597 H604 0.930 . S
C598 C593 1.395 . S
C598 C595 1.386 . S
C598 H617 0.930 . S
Eu599 N596 2.609 . S
Eu599 N600 2.657 . S
Eu599 O633 2.380 1_556 S
Eu599 O634 2.432 . S
Eu599 O638 2.558 . S
Eu599 O639 2.612 . S
Eu599 O641 2.339 . S
Eu599 O642 2.563 . S
Eu599 O643 2.419 . S
Eu599 C663 2.848 . S
N600 C592 1.362 . S
N600 Eu599 2.657 . S
N600 C601 1.334 . S
C601 N600 1.334 . S
C601 C603 1.413 . S
C601 H608 0.929 . S
C602 C590 1.392 . S
C602 C603 1.367 . S
C602 H610 0.930 . S
C603 C601 1.413 . S
C603 C602 1.367 . S
C603 H605 0.930 . S
H604 C597 0.930 . S
H605 C603 0.930 . S
H606 C594 0.930 . S
H607 C595 0.930 . S
H608 C601 0.929 . S
H609 C623 0.930 . S
H610 C602 0.930 . S
H611 C629 0.930 . S
H612 C620 0.929 . S
H613 C627 0.930 . S
H614 C591 0.931 . S
H615 C621 0.930 . S
H616 C654 0.930 . S
H617 C598 0.930 . S
H618 C653 0.931 . S
N619 Eu588 2.657 1_655 S
N619 C620 1.334 . S
N619 C624 1.362 . S
C620 H612 0.929 . S
C620 N619 1.334 . S
C620 C623 1.413 . S
C621 H615 0.930 . S
C621 C622 1.392 . S
C621 C623 1.367 . S
C622 C621 1.392 . S
C622 C624 1.420 . S
C622 C654 1.423 . S
C623 H609 0.930 . S
C623 C620 1.413 . S
C623 C621 1.367 . S
C624 N619 1.362 . S
C624 C622 1.420 . S
C624 C628 1.429 . S
H625 C630 0.930 . S
N626 Eu588 2.589 1_655 S
N626 C628 1.403 . S
N626 C629 1.316 1_655 S
C627 H613 0.930 . S
C627 C629 1.400 1_655 S
C627 C630 1.386 . S
C628 C624 1.429 . S
C628 N626 1.403 . S
C628 C631 1.411 . S
C629 H611 0.930 . S
C629 N626 1.316 1_455 S
C629 C627 1.400 1_455 S
C630 H625 0.930 . S
C630 C627 1.386 . S
C630 C631 1.395 . S
C631 C628 1.411 . S
C631 C630 1.395 . S
C631 C653 1.420 . S
O632 Eu588 2.558 . S
O632 C652 1.257 . S
O633 Eu588 2.612 . S
O633 Eu599 2.380 1_554 S
O633 C644 1.276 . S
O634 Eu599 2.432 . S
O634 C651 1.264 1_556 S
O635 Eu588 2.339 . S
O635 C651 1.254 . S
O636 Eu588 2.563 . S
O636 C644 1.235 . S
O637 Eu588 2.419 . S
O637 C652 1.249 . S
O638 Eu599 2.558 . S
O638 C663 1.257 . S
O639 Eu588 2.380 1_556 S
O639 Eu599 2.612 . S
O639 C655 1.276 . S
O640 Eu588 2.432 1_556 S
O640 C662 1.264 . S
O641 Eu599 2.339 . S
O641 C662 1.254 . S
O642 Eu599 2.563 . S
O642 C655 1.235 . S
O643 Eu599 2.419 . S
O643 C663 1.249 . S
C644 O633 1.276 . S
C644 O636 1.235 . S
C645 C647 1.393 . S
C645 C649 1.395 . S
C645 C652 1.492 . S
C646 C647 1.392 . S
C646 C648 1.386 . S
C647 C645 1.393 . S
C647 C646 1.392 . S
C647 H664 0.930 . S
C648 C646 1.386 . S
C648 C650 1.395 . S
C648 H665 0.930 . S
C649 C645 1.395 . S
C649 C650 1.379 . S
C649 H666 0.930 . S
C650 C648 1.395 . S
C650 C649 1.379 . S
C650 H667 0.930 . S
C651 O634 1.264 1_554 S
C651 O635 1.254 . S
C652 Eu588 2.848 . S
C652 O632 1.257 . S
C652 O637 1.249 . S
C652 C645 1.492 . S
C653 H618 0.931 . S
C653 C631 1.420 . S
C653 C654 1.351 . S
C654 H616 0.930 . S
C654 C622 1.423 . S
C654 C653 1.351 . S
C655 O639 1.276 . S
C655 O642 1.235 . S
C656 C657 1.393 . S
C656 C660 1.395 . S
C656 C663 1.492 . S
C657 C656 1.393 . S
C657 C658 1.392 . S
C657 H668 0.930 . S
C658 C657 1.392 . S
C658 C659 1.386 . S
C659 C658 1.386 . S
C659 C661 1.395 . S
C659 H669 0.930 . S
C660 C656 1.395 . S
C660 C661 1.379 . S
C660 H670 0.930 . S
C661 C659 1.395 . S
C661 C660 1.379 . S
C661 H671 0.930 . S
C662 O640 1.264 . S
C662 O641 1.254 . S
C663 Eu599 2.848 . S
C663 O638 1.257 . S
C663 O643 1.249 . S
C663 C656 1.492 . S
H664 C647 0.930 . S
H665 C648 0.930 . S
H666 C649 0.930 . S
H667 C650 0.930 . S
H668 C657 0.930 . S
H669 C659 0.930 . S
H670 C660 0.930 . S
H671 C661 0.930 . S
Eu672 N703 2.657 . S
Eu672 N710 2.609 . S
Eu672 O716 2.558 . S
Eu672 O717 2.612 . S
Eu672 O719 2.339 . S
Eu672 O720 2.563 . S
Eu672 O721 2.419 . S
Eu672 O723 2.380 . S
Eu672 O724 2.432 . S
Eu672 C736 2.848 . S
C673 C676 1.429 . S
C673 C677 1.411 . S
C673 N680 1.377 . S
C674 C676 1.420 . S
C674 C678 1.423 . S
C674 C686 1.392 . S
C675 C677 1.420 . S
C675 C678 1.351 . S
C675 H698 0.931 . S
C676 C673 1.429 . S
C676 C674 1.420 . S
C676 N684 1.362 . S
C677 C673 1.411 . S
C677 C675 1.420 . S
C677 C682 1.395 . S
C678 C674 1.423 . S
C678 C675 1.351 . S
C678 H690 0.930 . S
C679 C681 1.400 . S
C679 C682 1.386 . S
C679 H691 0.930 . S
N680 C673 1.377 . S
N680 C681 1.321 . S
N680 Eu683 2.609 . S
C681 C679 1.400 . S
C681 N680 1.321 . S
C681 H688 0.930 . S
C682 C677 1.395 . S
C682 C679 1.386 . S
C682 H701 0.930 . S
Eu683 N680 2.609 . S
Eu683 N684 2.657 . S
Eu683 O717 2.380 . S
Eu683 O718 2.432 . S
Eu683 O722 2.558 . S
Eu683 O723 2.612 . S
Eu683 O725 2.339 . S
Eu683 O726 2.563 . S
Eu683 O727 2.419 . S
Eu683 C747 2.848 . S
N684 C676 1.362 . S
N684 Eu683 2.657 . S
N684 C685 1.334 . S
C685 N684 1.334 . S
C685 C687 1.413 . S
C685 H692 0.929 . S
C686 C674 1.392 . S
C686 C687 1.367 . S
C686 H694 0.930 . S
C687 C685 1.413 . S
C687 C686 1.367 . S
C687 H689 0.930 . S
H688 C681 0.930 . S
H689 C687 0.930 . S
H690 C678 0.930 . S
H691 C679 0.930 . S
H692 C685 0.929 . S
H693 C707 0.930 . S
H694 C686 0.930 . S
H695 C713 0.930 . S
H696 C704 0.929 . S
H697 C711 0.930 . S
H698 C675 0.931 . S
H699 C705 0.930 . S
H700 C738 0.930 . S
H701 C682 0.930 . S
H702 C737 0.931 . S
N703 Eu672 2.657 . S
N703 C704 1.334 . S
N703 C708 1.362 . S
C704 H696 0.929 . S
C704 N703 1.334 . S
C704 C707 1.413 . S
C705 H699 0.930 . S
C705 C706 1.392 . S
C705 C707 1.367 . S
C706 C705 1.392 . S
C706 C708 1.420 . S
C706 C738 1.423 . S
C707 H693 0.930 . S
C707 C704 1.413 . S
C707 C705 1.367 . S
C708 N703 1.362 . S
C708 C706 1.420 . S
C708 C712 1.429 . S
H709 C714 0.930 . S
N710 Eu672 2.609 . S
N710 C712 1.377 . S
N710 C713 1.321 . S
C711 H697 0.930 . S
C711 C713 1.400 . S
C711 C714 1.386 . S
C712 C708 1.429 . S
C712 N710 1.377 . S
C712 C715 1.411 . S
C713 H695 0.930 . S
C713 N710 1.321 . S
C713 C711 1.400 . S
C714 H709 0.930 . S
C714 C711 1.386 . S
C714 C715 1.395 . S
C715 C712 1.411 . S
C715 C714 1.395 . S
C715 C737 1.420 . S
O716 Eu672 2.558 . S
O716 C736 1.257 . S
O717 Eu672 2.612 . S
O717 Eu683 2.380 . S
O717 C728 1.276 . S
O718 Eu683 2.432 . S
O718 C735 1.264 . S
O719 Eu672 2.339 . S
O719 C735 1.254 . S
O720 Eu672 2.563 . S
O720 C728 1.235 . S
O721 Eu672 2.419 . S
O721 C736 1.249 . S
O722 Eu683 2.558 . S
O722 C747 1.257 . S
O723 Eu672 2.380 . S
O723 Eu683 2.612 . S
O723 C739 1.276 . S
O724 Eu672 2.432 . S
O724 C746 1.264 . S
O725 Eu683 2.339 . S
O725 C746 1.254 . S
O726 Eu683 2.563 . S
O726 C739 1.235 . S
O727 Eu683 2.419 . S
O727 C747 1.249 . S
C728 O717 1.276 . S
C728 O720 1.235 . S
C729 C731 1.393 . S
C729 C733 1.395 . S
C729 C736 1.492 . S
C730 C731 1.392 . S
C730 C732 1.386 . S
C731 C729 1.393 . S
C731 C730 1.392 . S
C731 H748 0.930 . S
C732 C730 1.386 . S
C732 C734 1.395 . S
C732 H749 0.930 . S
C733 C729 1.395 . S
C733 C734 1.379 . S
C733 H750 0.930 . S
C734 C732 1.395 . S
C734 C733 1.379 . S
C734 H751 0.930 . S
C735 O718 1.264 . S
C735 O719 1.254 . S
C736 Eu672 2.848 . S
C736 O716 1.257 . S
C736 O721 1.249 . S
C736 C729 1.492 . S
C737 H702 0.931 . S
C737 C715 1.420 . S
C737 C738 1.351 . S
C738 H700 0.930 . S
C738 C706 1.423 . S
C738 C737 1.351 . S
C739 O723 1.276 . S
C739 O726 1.235 . S
C740 C741 1.393 1_556 S
C740 C744 1.395 1_556 S
C740 C747 1.492 . S
C741 C740 1.393 1_554 S
C741 C742 1.392 . S
C741 H752 0.930 . S
C742 C741 1.392 . S
C742 C743 1.386 . S
C743 C742 1.386 . S
C743 C745 1.395 . S
C743 H753 0.930 . S
C744 C740 1.395 1_554 S
C744 C745 1.379 . S
C744 H754 0.930 1_554 S
C745 C743 1.395 . S
C745 C744 1.379 . S
C745 H755 0.930 . S
C746 O724 1.264 . S
C746 O725 1.254 . S
C747 Eu683 2.848 . S
C747 O722 1.257 . S
C747 O727 1.249 . S
C747 C740 1.492 . S
H748 C731 0.930 . S
H749 C732 0.930 . S
H750 C733 0.930 . S
H751 C734 0.930 . S
H752 C741 0.930 . S
H753 C743 0.930 . S
H754 C744 0.930 1_556 S
H755 C745 0.930 . S
Eu756 N787 2.657 . S
Eu756 N794 2.609 . S
Eu756 O800 2.558 . S
Eu756 O801 2.612 . S
Eu756 O803 2.339 . S
Eu756 O804 2.563 . S
Eu756 O805 2.419 . S
Eu756 O807 2.380 . S
Eu756 O808 2.432 . S
Eu756 C820 2.848 . S
C757 C760 1.429 . S
C757 C761 1.411 . S
C757 N764 1.403 . S
C758 C760 1.420 . S
C758 C762 1.423 . S
C758 C770 1.392 . S
C759 C761 1.420 . S
C759 C762 1.351 . S
C759 H782 0.931 . S
C760 C757 1.429 . S
C760 C758 1.420 . S
C760 N768 1.362 . S
C761 C757 1.411 . S
C761 C759 1.420 . S
C761 C766 1.395 . S
C762 C758 1.423 . S
C762 C759 1.351 . S
C762 H774 0.930 . S
C763 C765 1.400 1_455 S
C763 C766 1.386 . S
C763 H775 0.930 . S
N764 C757 1.403 . S
N764 C765 1.316 1_455 S
N764 Eu767 2.589 1_455 S
C765 C763 1.400 1_655 S
C765 N764 1.316 1_655 S
C765 H772 0.930 . S
C766 C761 1.395 . S
C766 C763 1.386 . S
C766 H785 0.930 . S
Eu767 N764 2.589 1_655 S
Eu767 N768 2.657 1_655 S
Eu767 O801 2.380 . S
Eu767 O802 2.432 . S
Eu767 O806 2.558 . S
Eu767 O807 2.612 . S
Eu767 O809 2.339 . S
Eu767 O810 2.563 . S
Eu767 O811 2.419 . S
Eu767 C831 2.848 . S
N768 C760 1.362 . S
N768 Eu767 2.657 1_455 S
N768 C769 1.334 . S
C769 N768 1.334 . S
C769 C771 1.413 . S
C769 H776 0.929 . S
C770 C758 1.392 . S
C770 C771 1.367 . S
C770 H778 0.930 . S
C771 C769 1.413 . S
C771 C770 1.367 . S
C771 H773 0.930 . S
H772 C765 0.930 . S
H773 C771 0.930 . S
H774 C762 0.930 . S
H775 C763 0.930 . S
H776 C769 0.929 . S
H777 C791 0.930 . S
H778 C770 0.930 . S
H779 C797 0.930 . S
H780 C788 0.929 . S
H781 C795 0.930 . S
H782 C759 0.931 . S
H783 C789 0.930 . S
H784 C822 0.930 . S
H785 C766 0.930 . S
H786 C821 0.931 . S
N787 Eu756 2.657 . S
N787 C788 1.334 . S
N787 C792 1.362 . S
C788 H780 0.929 . S
C788 N787 1.334 . S
C788 C791 1.413 . S
C789 H783 0.930 . S
C789 C790 1.392 . S
C789 C791 1.367 . S
C790 C789 1.392 . S
C790 C792 1.420 . S
C790 C822 1.423 . S
C791 H777 0.930 . S
C791 C788 1.413 . S
C791 C789 1.367 . S
C792 N787 1.362 . S
C792 C790 1.420 . S
C792 C796 1.429 . S
H793 C798 0.930 . S
N794 Eu756 2.609 . S
N794 C796 1.377 . S
N794 C797 1.321 . S
C795 H781 0.930 . S
C795 C797 1.400 . S
C795 C798 1.386 . S
C796 C792 1.429 . S
C796 N794 1.377 . S
C796 C799 1.411 . S
C797 H779 0.930 . S
C797 N794 1.321 . S
C797 C795 1.400 . S
C798 H793 0.930 . S
C798 C795 1.386 . S
C798 C799 1.395 . S
C799 C796 1.411 . S
C799 C798 1.395 . S
C799 C821 1.420 . S
O800 Eu756 2.558 . S
O800 C820 1.257 . S
O801 Eu756 2.612 . S
O801 Eu767 2.380 . S
O801 C812 1.276 . S
O802 Eu767 2.432 . S
O802 C819 1.264 . S
O803 Eu756 2.339 . S
O803 C819 1.254 . S
O804 Eu756 2.563 . S
O804 C812 1.235 . S
O805 Eu756 2.419 . S
O805 C820 1.249 . S
O806 Eu767 2.558 . S
O806 C831 1.257 . S
O807 Eu756 2.380 . S
O807 Eu767 2.612 . S
O807 C823 1.276 . S
O808 Eu756 2.432 . S
O808 C830 1.264 . S
O809 Eu767 2.339 . S
O809 C830 1.254 . S
O810 Eu767 2.563 . S
O810 C823 1.235 . S
O811 Eu767 2.419 . S
O811 C831 1.249 . S
C812 O801 1.276 . S
C812 O804 1.235 . S
C813 C815 1.393 . S
C813 C817 1.395 . S
C813 C820 1.492 . S
C814 C815 1.392 . S
C814 C816 1.386 . S
C815 C813 1.393 . S
C815 C814 1.392 . S
C815 H832 0.930 . S
C816 C814 1.386 . S
C816 C818 1.395 . S
C816 H833 0.930 . S
C817 C813 1.395 . S
C817 C818 1.379 . S
C817 H834 0.930 . S
C818 C816 1.395 . S
C818 C817 1.379 . S
C818 H835 0.930 . S
C819 O802 1.264 . S
C819 O803 1.254 . S
C820 Eu756 2.848 . S
C820 O800 1.257 . S
C820 O805 1.249 . S
C820 C813 1.492 . S
C821 H786 0.931 . S
C821 C799 1.420 . S
C821 C822 1.351 . S
C822 H784 0.930 . S
C822 C790 1.423 . S
C822 C821 1.351 . S
C823 O807 1.276 . S
C823 O810 1.235 . S
C824 C825 1.393 1_556 S
C824 C828 1.395 1_556 S
C824 C831 1.492 . S
C825 C824 1.393 1_554 S
C825 C826 1.392 . S
C825 H836 0.930 . S
C826 C825 1.392 . S
C826 C827 1.386 . S
C827 C826 1.386 . S
C827 C829 1.395 . S
C827 H837 0.930 . S
C828 C824 1.395 1_554 S
C828 C829 1.379 . S
C828 H838 0.930 1_554 S
C829 C827 1.395 . S
C829 C828 1.379 . S
C829 H839 0.930 . S
C830 O808 1.264 . S
C830 O809 1.254 . S
C831 Eu767 2.848 . S
C831 O806 1.257 . S
C831 O811 1.249 . S
C831 C824 1.492 . S
H832 C815 0.930 . S
H833 C816 0.930 . S
H834 C817 0.930 . S
H835 C818 0.930 . S
H836 C825 0.930 . S
H837 C827 0.930 . S
H838 C828 0.930 1_556 S
H839 C829 0.930 . S
Eu840 N871 2.657 . S
Eu840 N878 2.609 . S
Eu840 O884 2.558 . S
Eu840 O885 2.612 . S
Eu840 O887 2.339 . S
Eu840 O888 2.563 . S
Eu840 O889 2.419 . S
Eu840 O891 2.380 . S
Eu840 O892 2.432 . S
Eu840 C904 2.848 . S
C841 C844 1.429 . S
C841 C845 1.411 . S
C841 N848 1.377 . S
C842 C844 1.420 . S
C842 C846 1.423 . S
C842 C854 1.392 . S
C843 C845 1.420 . S
C843 C846 1.351 . S
C843 H866 0.931 . S
C844 C841 1.429 . S
C844 C842 1.420 . S
C844 N852 1.362 . S
C845 C841 1.411 . S
C845 C843 1.420 . S
C845 C850 1.395 . S
C846 C842 1.423 . S
C846 C843 1.351 . S
C846 H858 0.930 . S
C847 C849 1.400 . S
C847 C850 1.386 . S
C847 H859 0.930 . S
N848 C841 1.377 . S
N848 C849 1.321 . S
N848 Eu851 2.609 . S
C849 C847 1.400 . S
C849 N848 1.321 . S
C849 H856 0.930 . S
C850 C845 1.395 . S
C850 C847 1.386 . S
C850 H869 0.930 . S
Eu851 N848 2.609 . S
Eu851 N852 2.657 . S
Eu851 O885 2.380 . S
Eu851 O886 2.432 . S
Eu851 O890 2.558 . S
Eu851 O891 2.612 . S
Eu851 O893 2.339 . S
Eu851 O894 2.563 . S
Eu851 O895 2.419 . S
Eu851 C915 2.848 . S
N852 C844 1.362 . S
N852 Eu851 2.657 . S
N852 C853 1.334 . S
C853 N852 1.334 . S
C853 C855 1.413 . S
C853 H860 0.929 . S
C854 C842 1.392 . S
C854 C855 1.367 . S
C854 H862 0.930 . S
C855 C853 1.413 . S
C855 C854 1.367 . S
C855 H857 0.930 . S
H856 C849 0.930 . S
H857 C855 0.930 . S
H858 C846 0.930 . S
H859 C847 0.930 . S
H860 C853 0.929 . S
H861 C875 0.930 . S
H862 C854 0.930 . S
H863 C881 0.930 . S
H864 C872 0.929 . S
H865 C879 0.930 . S
H866 C843 0.931 . S
H867 C873 0.930 . S
H868 C906 0.930 . S
H869 C850 0.930 . S
H870 C905 0.931 . S
N871 Eu840 2.657 . S
N871 C872 1.334 . S
N871 C876 1.362 . S
C872 H864 0.929 . S
C872 N871 1.334 . S
C872 C875 1.413 . S
C873 H867 0.930 . S
C873 C874 1.392 . S
C873 C875 1.367 . S
C874 C873 1.392 . S
C874 C876 1.420 . S
C874 C906 1.423 . S
C875 H861 0.930 . S
C875 C872 1.413 . S
C875 C873 1.367 . S
C876 N871 1.362 . S
C876 C874 1.420 . S
C876 C880 1.429 . S
H877 C882 0.930 . S
N878 Eu840 2.609 . S
N878 C880 1.377 . S
N878 C881 1.321 . S
C879 H865 0.930 . S
C879 C881 1.400 . S
C879 C882 1.386 . S
C880 C876 1.429 . S
C880 N878 1.377 . S
C880 C883 1.411 . S
C881 H863 0.930 . S
C881 N878 1.321 . S
C881 C879 1.400 . S
C882 H877 0.930 . S
C882 C879 1.386 . S
C882 C883 1.395 . S
C883 C880 1.411 . S
C883 C882 1.395 . S
C883 C905 1.420 . S
O884 Eu840 2.558 . S
O884 C904 1.257 . S
O885 Eu840 2.612 . S
O885 Eu851 2.380 . S
O885 C896 1.276 . S
O886 Eu851 2.432 . S
O886 C903 1.264 . S
O887 Eu840 2.339 . S
O887 C903 1.254 . S
O888 Eu840 2.563 . S
O888 C896 1.235 . S
O889 Eu840 2.419 . S
O889 C904 1.249 . S
O890 Eu851 2.558 . S
O890 C915 1.257 . S
O891 Eu840 2.380 . S
O891 Eu851 2.612 . S
O891 C907 1.276 . S
O892 Eu840 2.432 . S
O892 C914 1.264 . S
O893 Eu851 2.339 . S
O893 C914 1.254 . S
O894 Eu851 2.563 . S
O894 C907 1.235 . S
O895 Eu851 2.419 . S
O895 C915 1.249 . S
C896 O885 1.276 . S
C896 O888 1.235 . S
C897 C899 1.393 . S
C897 C901 1.395 . S
C897 C904 1.492 . S
C898 C899 1.392 . S
C898 C900 1.386 . S
C899 C897 1.393 . S
C899 C898 1.392 . S
C899 H916 0.930 . S
C900 C898 1.386 . S
C900 C902 1.395 . S
C900 H917 0.930 . S
C901 C897 1.395 . S
C901 C902 1.379 . S
C901 H918 0.930 . S
C902 C900 1.395 . S
C902 C901 1.379 . S
C902 H919 0.930 . S
C903 O886 1.264 . S
C903 O887 1.254 . S
C904 Eu840 2.848 . S
C904 O884 1.257 . S
C904 O889 1.249 . S
C904 C897 1.492 . S
C905 H870 0.931 . S
C905 C883 1.420 . S
C905 C906 1.351 . S
C906 H868 0.930 . S
C906 C874 1.423 . S
C906 C905 1.351 . S
C907 O891 1.276 . S
C907 O894 1.235 . S
C908 C909 1.393 . S
C908 C912 1.395 . S
C908 C915 1.492 . S
C909 C908 1.393 . S
C909 C910 1.392 . S
C909 H920 0.930 . S
C910 C909 1.392 . S
C910 C911 1.386 . S
C911 C910 1.386 . S
C911 C913 1.395 . S
C911 H921 0.930 . S
C912 C908 1.395 . S
C912 C913 1.379 . S
C912 H922 0.930 . S
C913 C911 1.395 . S
C913 C912 1.379 . S
C913 H923 0.930 . S
C914 O892 1.264 . S
C914 O893 1.254 . S
C915 Eu851 2.848 . S
C915 O890 1.257 . S
C915 O895 1.249 . S
C915 C908 1.492 . S
H916 C899 0.930 . S
H917 C900 0.930 . S
H918 C901 0.930 . S
H919 C902 0.930 . S
H920 C909 0.930 . S
H921 C911 0.930 . S
H922 C912 0.930 . S
H923 C913 0.930 . S
Eu924 N955 2.657 . S
Eu924 N962 2.609 . S
Eu924 O968 2.558 . S
Eu924 O969 2.612 . S
Eu924 O971 2.339 . S
Eu924 O972 2.563 . S
Eu924 O973 2.419 . S
Eu924 O975 2.380 . S
Eu924 O976 2.432 . S
Eu924 C988 2.848 . S
C925 C928 1.429 . S
C925 C929 1.411 . S
C925 N932 1.402 . S
C926 C928 1.420 . S
C926 C930 1.423 . S
C926 C938 1.392 . S
C927 C929 1.420 . S
C927 C930 1.351 . S
C927 H950 0.931 . S
C928 C925 1.429 . S
C928 C926 1.420 . S
C928 N936 1.362 . S
C929 C925 1.411 . S
C929 C927 1.420 . S
C929 C934 1.395 . S
C930 C926 1.423 . S
C930 C927 1.351 . S
C930 H942 0.930 . S
C931 C933 1.400 1_455 S
C931 C934 1.386 . S
C931 H943 0.930 . S
N932 C925 1.402 . S
N932 C933 1.316 1_455 S
N932 Eu935 2.589 1_455 S
C933 C931 1.400 1_655 S
C933 N932 1.316 1_655 S
C933 H940 0.930 . S
C934 C929 1.395 . S
C934 C931 1.386 . S
C934 H953 0.930 . S
Eu935 N932 2.589 1_655 S
Eu935 N936 2.657 1_655 S
Eu935 O969 2.380 . S
Eu935 O970 2.432 . S
Eu935 O974 2.558 . S
Eu935 O975 2.612 . S
Eu935 O977 2.339 . S
Eu935 O978 2.563 . S
Eu935 O979 2.419 . S
Eu935 C999 2.848 . S
N936 C928 1.362 . S
N936 Eu935 2.657 1_455 S
N936 C937 1.334 . S
C937 N936 1.334 . S
C937 C939 1.413 . S
C937 H944 0.929 . S
C938 C926 1.392 . S
C938 C939 1.367 . S
C938 H946 0.930 . S
C939 C937 1.413 . S
C939 C938 1.367 . S
C939 H941 0.930 . S
H940 C933 0.930 . S
H941 C939 0.930 . S
H942 C930 0.930 . S
H943 C931 0.930 . S
H944 C937 0.929 . S
H945 C959 0.930 . S
H946 C938 0.930 . S
H947 C965 0.930 . S
H948 C956 0.929 . S
H949 C963 0.930 . S
H950 C927 0.931 . S
H951 C957 0.930 . S
H952 C990 0.930 . S
H953 C934 0.930 . S
H954 C989 0.931 . S
N955 Eu924 2.657 . S
N955 C956 1.334 . S
N955 C960 1.362 . S
C956 H948 0.929 . S
C956 N955 1.334 . S
C956 C959 1.413 . S
C957 H951 0.930 . S
C957 C958 1.392 . S
C957 C959 1.367 . S
C958 C957 1.392 . S
C958 C960 1.420 . S
C958 C990 1.423 . S
C959 H945 0.930 . S
C959 C956 1.413 . S
C959 C957 1.367 . S
C960 N955 1.362 . S
C960 C958 1.420 . S
C960 C964 1.429 . S
H961 C966 0.930 . S
N962 Eu924 2.609 . S
N962 C964 1.377 . S
N962 C965 1.321 . S
C963 H949 0.930 . S
C963 C965 1.400 . S
C963 C966 1.386 . S
C964 C960 1.429 . S
C964 N962 1.377 . S
C964 C967 1.411 . S
C965 H947 0.930 . S
C965 N962 1.321 . S
C965 C963 1.400 . S
C966 H961 0.930 . S
C966 C963 1.386 . S
C966 C967 1.395 . S
C967 C964 1.411 . S
C967 C966 1.395 . S
C967 C989 1.420 . S
O968 Eu924 2.558 . S
O968 C988 1.257 . S
O969 Eu924 2.612 . S
O969 Eu935 2.380 . S
O969 C980 1.276 . S
O970 Eu935 2.432 . S
O970 C987 1.264 . S
O971 Eu924 2.339 . S
O971 C987 1.254 . S
O972 Eu924 2.563 . S
O972 C980 1.235 . S
O973 Eu924 2.419 . S
O973 C988 1.249 . S
O974 Eu935 2.558 . S
O974 C999 1.257 . S
O975 Eu924 2.380 . S
O975 Eu935 2.612 . S
O975 C991 1.276 . S
O976 Eu924 2.432 . S
O976 C998 1.264 . S
O977 Eu935 2.339 . S
O977 C998 1.254 . S
O978 Eu935 2.563 . S
O978 C991 1.235 . S
O979 Eu935 2.419 . S
O979 C999 1.249 . S
C980 O969 1.276 . S
C980 O972 1.235 . S
C981 C983 1.393 . S
C981 C985 1.395 . S
C981 C988 1.492 . S
C982 C983 1.392 . S
C982 C984 1.386 . S
C983 C981 1.393 . S
C983 C982 1.392 . S
C983 H1000 0.930 . S
C984 C982 1.386 . S
C984 C986 1.395 . S
C984 H1001 0.930 . S
C985 C981 1.395 . S
C985 C986 1.379 . S
C985 H1002 0.930 . S
C986 C984 1.395 . S
C986 C985 1.379 . S
C986 H1003 0.930 . S
C987 O970 1.264 . S
C987 O971 1.254 . S
C988 Eu924 2.848 . S
C988 O968 1.257 . S
C988 O973 1.249 . S
C988 C981 1.492 . S
C989 H954 0.931 . S
C989 C967 1.420 . S
C989 C990 1.351 . S
C990 H952 0.930 . S
C990 C958 1.423 . S
C990 C989 1.351 . S
C991 O975 1.276 . S
C991 O978 1.235 . S
C992 C993 1.393 . S
C992 C996 1.395 . S
C992 C999 1.492 . S
C993 C992 1.393 . S
C993 C994 1.392 . S
C993 H1004 0.930 . S
C994 C993 1.392 . S
C994 C995 1.386 . S
C995 C994 1.386 . S
C995 C997 1.395 . S
C995 H1005 0.930 . S
C996 C992 1.395 . S
C996 C997 1.379 . S
C996 H1006 0.930 . S
C997 C995 1.395 . S
C997 C996 1.379 . S
C997 H1007 0.930 . S
C998 O976 1.264 . S
C998 O977 1.254 . S
C999 Eu935 2.848 . S
C999 O974 1.257 . S
C999 O979 1.249 . S
C999 C992 1.492 . S
H1000 C983 0.930 . S
H1001 C984 0.930 . S
H1002 C985 0.930 . S
H1003 C986 0.930 . S
H1004 C993 0.930 . S
H1005 C995 0.930 . S
H1006 C996 0.930 . S
H1007 C997 0.930 . S
Eu1008 N1039 2.657 . S
Eu1008 N1046 2.609 . S
Eu1008 O1052 2.558 . S
Eu1008 O1053 2.612 . S
Eu1008 O1055 2.339 . S
Eu1008 O1056 2.563 . S
Eu1008 O1057 2.419 . S
Eu1008 O1059 2.380 . S
Eu1008 O1060 2.432 . S
Eu1008 C1072 2.848 . S
C1009 C1012 1.429 . S
C1009 C1013 1.411 . S
C1009 N1016 1.377 . S
C1010 C1012 1.420 . S
C1010 C1014 1.423 . S
C1010 C1022 1.392 . S
C1011 C1013 1.420 . S
C1011 C1014 1.351 . S
C1011 H1034 0.931 . S
C1012 C1009 1.429 . S
C1012 C1010 1.420 . S
C1012 N1020 1.362 . S
C1013 C1009 1.411 . S
C1013 C1011 1.420 . S
C1013 C1018 1.395 . S
C1014 C1010 1.423 . S
C1014 C1011 1.351 . S
C1014 H1026 0.930 . S
C1015 C1017 1.400 . S
C1015 C1018 1.386 . S
C1015 H1027 0.930 . S
N1016 C1009 1.377 . S
N1016 C1017 1.321 . S
N1016 Eu1019 2.609 . S
C1017 C1015 1.400 . S
C1017 N1016 1.321 . S
C1017 H1024 0.930 . S
C1018 C1013 1.395 . S
C1018 C1015 1.386 . S
C1018 H1037 0.930 . S
Eu1019 N1016 2.609 . S
Eu1019 N1020 2.657 . S
Eu1019 O1053 2.380 . S
Eu1019 O1054 2.432 . S
Eu1019 O1058 2.558 . S
Eu1019 O1059 2.612 . S
Eu1019 O1061 2.339 . S
Eu1019 O1062 2.563 . S
Eu1019 O1063 2.419 . S
Eu1019 C1083 2.848 . S
N1020 C1012 1.362 . S
N1020 Eu1019 2.657 . S
N1020 C1021 1.334 . S
C1021 N1020 1.334 . S
C1021 C1023 1.413 . S
C1021 H1028 0.929 . S
C1022 C1010 1.392 . S
C1022 C1023 1.367 . S
C1022 H1030 0.930 . S
C1023 C1021 1.413 . S
C1023 C1022 1.367 . S
C1023 H1025 0.930 . S
H1024 C1017 0.930 . S
H1025 C1023 0.930 . S
H1026 C1014 0.930 . S
H1027 C1015 0.930 . S
H1028 C1021 0.929 . S
H1029 C1043 0.930 . S
H1030 C1022 0.930 . S
H1031 C1049 0.930 . S
H1032 C1040 0.929 . S
H1033 C1047 0.930 . S
H1034 C1011 0.931 . S
H1035 C1041 0.930 . S
H1036 C1074 0.930 . S
H1037 C1018 0.930 . S
H1038 C1073 0.931 . S
N1039 Eu1008 2.657 . S
N1039 C1040 1.334 . S
N1039 C1044 1.362 . S
C1040 H1032 0.929 . S
C1040 N1039 1.334 . S
C1040 C1043 1.413 . S
C1041 H1035 0.930 . S
C1041 C1042 1.392 . S
C1041 C1043 1.367 . S
C1042 C1041 1.392 . S
C1042 C1044 1.420 . S
C1042 C1074 1.423 . S
C1043 H1029 0.930 . S
C1043 C1040 1.413 . S
C1043 C1041 1.367 . S
C1044 N1039 1.362 . S
C1044 C1042 1.420 . S
C1044 C1048 1.429 . S
H1045 C1050 0.930 . S
N1046 Eu1008 2.609 . S
N1046 C1048 1.377 . S
N1046 C1049 1.321 . S
C1047 H1033 0.930 . S
C1047 C1049 1.400 . S
C1047 C1050 1.386 . S
C1048 C1044 1.429 . S
C1048 N1046 1.377 . S
C1048 C1051 1.411 . S
C1049 H1031 0.930 . S
C1049 N1046 1.321 . S
C1049 C1047 1.400 . S
C1050 H1045 0.930 . S
C1050 C1047 1.386 . S
C1050 C1051 1.395 . S
C1051 C1048 1.411 . S
C1051 C1050 1.395 . S
C1051 C1073 1.420 . S
O1052 Eu1008 2.558 . S
O1052 C1072 1.257 . S
O1053 Eu1008 2.612 . S
O1053 Eu1019 2.380 . S
O1053 C1064 1.276 . S
O1054 Eu1019 2.432 . S
O1054 C1071 1.264 . S
O1055 Eu1008 2.339 . S
O1055 C1071 1.254 . S
O1056 Eu1008 2.563 . S
O1056 C1064 1.235 . S
O1057 Eu1008 2.419 . S
O1057 C1072 1.249 . S
O1058 Eu1019 2.558 . S
O1058 C1083 1.257 . S
O1059 Eu1008 2.380 . S
O1059 Eu1019 2.612 . S
O1059 C1075 1.276 . S
O1060 Eu1008 2.432 . S
O1060 C1082 1.264 . S
O1061 Eu1019 2.339 . S
O1061 C1082 1.254 . S
O1062 Eu1019 2.563 . S
O1062 C1075 1.235 . S
O1063 Eu1019 2.419 . S
O1063 C1083 1.249 . S
C1064 O1053 1.276 . S
C1064 O1056 1.235 . S
C1065 C1067 1.393 1_554 S
C1065 C1069 1.395 1_554 S
C1065 C1072 1.492 . S
C1066 C1067 1.392 . S
C1066 C1068 1.386 . S
C1067 C1065 1.393 1_556 S
C1067 C1066 1.392 . S
C1067 H1084 0.930 . S
C1068 C1066 1.386 . S
C1068 C1070 1.395 . S
C1068 H1085 0.930 . S
C1069 C1065 1.395 1_556 S
C1069 C1070 1.379 . S
C1069 H1086 0.930 1_556 S
C1070 C1068 1.395 . S
C1070 C1069 1.379 . S
C1070 H1087 0.930 . S
C1071 O1054 1.264 . S
C1071 O1055 1.254 . S
C1072 Eu1008 2.848 . S
C1072 O1052 1.257 . S
C1072 O1057 1.249 . S
C1072 C1065 1.492 . S
C1073 H1038 0.931 . S
C1073 C1051 1.420 . S
C1073 C1074 1.351 . S
C1074 H1036 0.930 . S
C1074 C1042 1.423 . S
C1074 C1073 1.351 . S
C1075 O1059 1.276 . S
C1075 O1062 1.235 . S
C1076 C1077 1.393 . S
C1076 C1080 1.395 . S
C1076 C1083 1.492 . S
C1077 C1076 1.393 . S
C1077 C1078 1.392 . S
C1077 H1088 0.930 . S
C1078 C1077 1.392 . S
C1078 C1079 1.386 . S
C1079 C1078 1.386 . S
C1079 C1081 1.395 . S
C1079 H1089 0.930 . S
C1080 C1076 1.395 . S
C1080 C1081 1.379 . S
C1080 H1090 0.930 . S
C1081 C1079 1.395 . S
C1081 C1080 1.379 . S
C1081 H1091 0.930 . S
C1082 O1060 1.264 . S
C1082 O1061 1.254 . S
C1083 Eu1019 2.848 . S
C1083 O1058 1.257 . S
C1083 O1063 1.249 . S
C1083 C1076 1.492 . S
H1084 C1067 0.930 . S
H1085 C1068 0.930 . S
H1086 C1069 0.930 1_554 S
H1087 C1070 0.930 . S
H1088 C1077 0.930 . S
H1089 C1079 0.930 . S
H1090 C1080 0.930 . S
H1091 C1081 0.930 . S
Eu1092 N1123 2.657 1_455 S
Eu1092 N1130 2.589 1_455 S
Eu1092 O1136 2.558 . S
Eu1092 O1137 2.612 . S
Eu1092 O1139 2.339 . S
Eu1092 O1140 2.563 . S
Eu1092 O1141 2.419 . S
Eu1092 O1143 2.380 . S
Eu1092 O1144 2.432 . S
Eu1092 C1156 2.848 . S
C1093 C1096 1.429 . S
C1093 C1097 1.411 . S
C1093 N1100 1.377 . S
C1094 C1096 1.420 . S
C1094 C1098 1.423 . S
C1094 C1106 1.392 . S
C1095 C1097 1.420 . S
C1095 C1098 1.351 . S
C1095 H1118 0.931 . S
C1096 C1093 1.429 . S
C1096 C1094 1.420 . S
C1096 N1104 1.362 . S
C1097 C1093 1.411 . S
C1097 C1095 1.420 . S
C1097 C1102 1.395 . S
C1098 C1094 1.423 . S
C1098 C1095 1.351 . S
C1098 H1110 0.930 . S
C1099 C1101 1.400 . S
C1099 C1102 1.386 . S
C1099 H1111 0.930 . S
N1100 C1093 1.377 . S
N1100 C1101 1.321 . S
N1100 Eu1103 2.609 . S
C1101 C1099 1.400 . S
C1101 N1100 1.321 . S
C1101 H1108 0.930 . S
C1102 C1097 1.395 . S
C1102 C1099 1.386 . S
C1102 H1121 0.930 . S
Eu1103 N1100 2.609 . S
Eu1103 N1104 2.657 . S
Eu1103 O1137 2.380 . S
Eu1103 O1138 2.432 . S
Eu1103 O1142 2.558 . S
Eu1103 O1143 2.612 . S
Eu1103 O1145 2.339 . S
Eu1103 O1146 2.563 . S
Eu1103 O1147 2.419 . S
Eu1103 C1167 2.848 . S
N1104 C1096 1.362 . S
N1104 Eu1103 2.657 . S
N1104 C1105 1.334 . S
C1105 N1104 1.334 . S
C1105 C1107 1.413 . S
C1105 H1112 0.929 . S
C1106 C1094 1.392 . S
C1106 C1107 1.367 . S
C1106 H1114 0.930 . S
C1107 C1105 1.413 . S
C1107 C1106 1.367 . S
C1107 H1109 0.930 . S
H1108 C1101 0.930 . S
H1109 C1107 0.930 . S
H1110 C1098 0.930 . S
H1111 C1099 0.930 . S
H1112 C1105 0.929 . S
H1113 C1127 0.930 . S
H1114 C1106 0.930 . S
H1115 C1133 0.930 . S
H1116 C1124 0.929 . S
H1117 C1131 0.930 . S
H1118 C1095 0.931 . S
H1119 C1125 0.930 . S
H1120 C1158 0.930 . S
H1121 C1102 0.930 . S
H1122 C1157 0.931 . S
N1123 Eu1092 2.657 1_655 S
N1123 C1124 1.334 . S
N1123 C1128 1.362 . S
C1124 H1116 0.929 . S
C1124 N1123 1.334 . S
C1124 C1127 1.413 . S
C1125 H1119 0.930 . S
C1125 C1126 1.392 . S
C1125 C1127 1.367 . S
C1126 C1125 1.392 . S
C1126 C1128 1.420 . S
C1126 C1158 1.423 . S
C1127 H1113 0.930 . S
C1127 C1124 1.413 . S
C1127 C1125 1.367 . S
C1128 N1123 1.362 . S
C1128 C1126 1.420 . S
C1128 C1132 1.429 . S
H1129 C1134 0.930 . S
N1130 Eu1092 2.589 1_655 S
N1130 C1132 1.403 . S
N1130 C1133 1.316 1_655 S
C1131 H1117 0.930 . S
C1131 C1133 1.400 1_655 S
C1131 C1134 1.386 . S
C1132 C1128 1.429 . S
C1132 N1130 1.403 . S
C1132 C1135 1.411 . S
C1133 H1115 0.930 . S
C1133 N1130 1.316 1_455 S
C1133 C1131 1.400 1_455 S
C1134 H1129 0.930 . S
C1134 C1131 1.386 . S
C1134 C1135 1.395 . S
C1135 C1132 1.411 . S
C1135 C1134 1.395 . S
C1135 C1157 1.420 . S
O1136 Eu1092 2.558 . S
O1136 C1156 1.257 . S
O1137 Eu1092 2.612 . S
O1137 Eu1103 2.380 . S
O1137 C1148 1.276 . S
O1138 Eu1103 2.432 . S
O1138 C1155 1.264 . S
O1139 Eu1092 2.339 . S
O1139 C1155 1.254 . S
O1140 Eu1092 2.563 . S
O1140 C1148 1.235 . S
O1141 Eu1092 2.419 . S
O1141 C1156 1.249 . S
O1142 Eu1103 2.558 . S
O1142 C1167 1.257 . S
O1143 Eu1092 2.380 . S
O1143 Eu1103 2.612 . S
O1143 C1159 1.276 . S
O1144 Eu1092 2.432 . S
O1144 C1166 1.264 . S
O1145 Eu1103 2.339 . S
O1145 C1166 1.254 . S
O1146 Eu1103 2.563 . S
O1146 C1159 1.235 . S
O1147 Eu1103 2.419 . S
O1147 C1167 1.249 . S
C1148 O1137 1.276 . S
C1148 O1140 1.235 . S
C1149 C1151 1.393 1_554 S
C1149 C1153 1.395 1_554 S
C1149 C1156 1.492 . S
C1150 C1151 1.392 . S
C1150 C1152 1.386 . S
C1151 C1149 1.393 1_556 S
C1151 C1150 1.392 . S
C1151 H1168 0.930 . S
C1152 C1150 1.386 . S
C1152 C1154 1.395 . S
C1152 H1169 0.930 . S
C1153 C1149 1.395 1_556 S
C1153 C1154 1.379 . S
C1153 H1170 0.930 1_556 S
C1154 C1152 1.395 . S
C1154 C1153 1.379 . S
C1154 H1171 0.930 . S
C1155 O1138 1.264 . S
C1155 O1139 1.254 . S
C1156 Eu1092 2.848 . S
C1156 O1136 1.257 . S
C1156 O1141 1.249 . S
C1156 C1149 1.492 . S
C1157 H1122 0.931 . S
C1157 C1135 1.420 . S
C1157 C1158 1.351 . S
C1158 H1120 0.930 . S
C1158 C1126 1.423 . S
C1158 C1157 1.351 . S
C1159 O1143 1.276 . S
C1159 O1146 1.235 . S
C1160 C1161 1.393 . S
C1160 C1164 1.395 . S
C1160 C1167 1.492 . S
C1161 C1160 1.393 . S
C1161 C1162 1.392 . S
C1161 H1172 0.930 . S
C1162 C1161 1.392 . S
C1162 C1163 1.386 . S
C1163 C1162 1.386 . S
C1163 C1165 1.395 . S
C1163 H1173 0.930 . S
C1164 C1160 1.395 . S
C1164 C1165 1.379 . S
C1164 H1174 0.930 . S
C1165 C1163 1.395 . S
C1165 C1164 1.379 . S
C1165 H1175 0.930 . S
C1166 O1144 1.264 . S
C1166 O1145 1.254 . S
C1167 Eu1103 2.848 . S
C1167 O1142 1.257 . S
C1167 O1147 1.249 . S
C1167 C1160 1.492 . S
H1168 C1151 0.930 . S
H1169 C1152 0.930 . S
H1170 C1153 0.930 1_554 S
H1171 C1154 0.930 . S
H1172 C1161 0.930 . S
H1173 C1163 0.930 . S
H1174 C1164 0.930 . S
H1175 C1165 0.930 . S
Eu1176 N1207 2.657 . S
Eu1176 N1214 2.609 . S
Eu1176 O1220 2.558 . S
Eu1176 O1221 2.612 . S
Eu1176 O1223 2.339 . S
Eu1176 O1224 2.563 . S
Eu1176 O1225 2.419 . S
Eu1176 O1227 2.380 . S
Eu1176 O1228 2.432 . S
Eu1176 C1240 2.848 . S
C1177 C1180 1.429 . S
C1177 C1181 1.411 . S
C1177 N1184 1.377 . S
C1178 C1180 1.420 . S
C1178 C1182 1.423 . S
C1178 C1190 1.392 . S
C1179 C1181 1.420 . S
C1179 C1182 1.351 . S
C1179 H1202 0.931 . S
C1180 C1177 1.429 . S
C1180 C1178 1.420 . S
C1180 N1188 1.362 . S
C1181 C1177 1.411 . S
C1181 C1179 1.420 . S
C1181 C1186 1.395 . S
C1182 C1178 1.423 . S
C1182 C1179 1.351 . S
C1182 H1194 0.930 . S
C1183 C1185 1.400 . S
C1183 C1186 1.386 . S
C1183 H1195 0.930 . S
N1184 C1177 1.377 . S
N1184 C1185 1.321 . S
N1184 Eu1187 2.609 . S
C1185 C1183 1.400 . S
C1185 N1184 1.321 . S
C1185 H1192 0.930 . S
C1186 C1181 1.395 . S
C1186 C1183 1.386 . S
C1186 H1205 0.930 . S
Eu1187 N1184 2.609 . S
Eu1187 N1188 2.657 . S
Eu1187 O1221 2.380 . S
Eu1187 O1222 2.432 . S
Eu1187 O1226 2.558 . S
Eu1187 O1227 2.612 . S
Eu1187 O1229 2.339 . S
Eu1187 O1230 2.563 . S
Eu1187 O1231 2.419 . S
Eu1187 C1251 2.848 . S
N1188 C1180 1.362 . S
N1188 Eu1187 2.657 . S
N1188 C1189 1.334 . S
C1189 N1188 1.334 . S
C1189 C1191 1.413 . S
C1189 H1196 0.929 . S
C1190 C1178 1.392 . S
C1190 C1191 1.367 . S
C1190 H1198 0.930 . S
C1191 C1189 1.413 . S
C1191 C1190 1.367 . S
C1191 H1193 0.930 . S
H1192 C1185 0.930 . S
H1193 C1191 0.930 . S
H1194 C1182 0.930 . S
H1195 C1183 0.930 . S
H1196 C1189 0.929 . S
H1197 C1211 0.930 . S
H1198 C1190 0.930 . S
H1199 C1217 0.930 . S
H1200 C1208 0.929 . S
H1201 C1215 0.930 . S
H1202 C1179 0.931 . S
H1203 C1209 0.930 . S
H1204 C1242 0.930 . S
H1205 C1186 0.930 . S
H1206 C1241 0.931 . S
N1207 Eu1176 2.657 . S
N1207 C1208 1.334 . S
N1207 C1212 1.362 . S
C1208 H1200 0.929 . S
C1208 N1207 1.334 . S
C1208 C1211 1.413 . S
C1209 H1203 0.930 . S
C1209 C1210 1.392 . S
C1209 C1211 1.367 . S
C1210 C1209 1.392 . S
C1210 C1212 1.420 . S
C1210 C1242 1.423 . S
C1211 H1197 0.930 . S
C1211 C1208 1.413 . S
C1211 C1209 1.367 . S
C1212 N1207 1.362 . S
C1212 C1210 1.420 . S
C1212 C1216 1.429 . S
H1213 C1218 0.930 . S
N1214 Eu1176 2.609 . S
N1214 C1216 1.377 . S
N1214 C1217 1.321 . S
C1215 H1201 0.930 . S
C1215 C1217 1.400 . S
C1215 C1218 1.386 . S
C1216 C1212 1.429 . S
C1216 N1214 1.377 . S
C1216 C1219 1.411 . S
C1217 H1199 0.930 . S
C1217 N1214 1.321 . S
C1217 C1215 1.400 . S
C1218 H1213 0.930 . S
C1218 C1215 1.386 . S
C1218 C1219 1.395 . S
C1219 C1216 1.411 . S
C1219 C1218 1.395 . S
C1219 C1241 1.420 . S
O1220 Eu1176 2.558 . S
O1220 C1240 1.257 . S
O1221 Eu1176 2.612 . S
O1221 Eu1187 2.380 . S
O1221 C1232 1.276 . S
O1222 Eu1187 2.432 . S
O1222 C1239 1.264 . S
O1223 Eu1176 2.339 . S
O1223 C1239 1.254 . S
O1224 Eu1176 2.563 . S
O1224 C1232 1.235 . S
O1225 Eu1176 2.419 . S
O1225 C1240 1.249 . S
O1226 Eu1187 2.558 . S
O1226 C1251 1.257 . S
O1227 Eu1176 2.380 . S
O1227 Eu1187 2.612 . S
O1227 C1243 1.276 . S
O1228 Eu1176 2.432 . S
O1228 C1250 1.264 . S
O1229 Eu1187 2.339 . S
O1229 C1250 1.254 . S
O1230 Eu1187 2.563 . S
O1230 C1243 1.235 . S
O1231 Eu1187 2.419 . S
O1231 C1251 1.249 . S
C1232 O1221 1.276 . S
C1232 O1224 1.235 . S
C1233 C1235 1.393 . S
C1233 C1237 1.395 . S
C1233 C1240 1.492 . S
C1234 C1235 1.392 . S
C1234 C1236 1.386 . S
C1235 C1233 1.393 . S
C1235 C1234 1.392 . S
C1235 H1252 0.930 . S
C1236 C1234 1.386 . S
C1236 C1238 1.395 . S
C1236 H1253 0.930 . S
C1237 C1233 1.395 . S
C1237 C1238 1.379 . S
C1237 H1254 0.930 . S
C1238 C1236 1.395 . S
C1238 C1237 1.379 . S
C1238 H1255 0.930 . S
C1239 O1222 1.264 . S
C1239 O1223 1.254 . S
C1240 Eu1176 2.848 . S
C1240 O1220 1.257 . S
C1240 O1225 1.249 . S
C1240 C1233 1.492 . S
C1241 H1206 0.931 . S
C1241 C1219 1.420 . S
C1241 C1242 1.351 . S
C1242 H1204 0.930 . S
C1242 C1210 1.423 . S
C1242 C1241 1.351 . S
C1243 O1227 1.276 . S
C1243 O1230 1.235 . S
C1244 C1245 1.393 . S
C1244 C1248 1.395 . S
C1244 C1251 1.492 . S
C1245 C1244 1.393 . S
C1245 C1246 1.392 . S
C1245 H1256 0.930 . S
C1246 C1245 1.392 . S
C1246 C1247 1.386 . S
C1247 C1246 1.386 . S
C1247 C1249 1.395 . S
C1247 H1257 0.930 . S
C1248 C1244 1.395 . S
C1248 C1249 1.379 . S
C1248 H1258 0.930 . S
C1249 C1247 1.395 . S
C1249 C1248 1.379 . S
C1249 H1259 0.930 . S
C1250 O1228 1.264 . S
C1250 O1229 1.254 . S
C1251 Eu1187 2.848 . S
C1251 O1226 1.257 . S
C1251 O1231 1.249 . S
C1251 C1244 1.492 . S
H1252 C1235 0.930 . S
H1253 C1236 0.930 . S
H1254 C1237 0.930 . S
H1255 C1238 0.930 . S
H1256 C1245 0.930 . S
H1257 C1247 0.930 . S
H1258 C1248 0.930 . S
H1259 C1249 0.930 . S
Eu1260 N1291 2.657 1_455 S
Eu1260 N1298 2.589 1_455 S
Eu1260 O1304 2.558 . S
Eu1260 O1305 2.612 . S
Eu1260 O1307 2.339 . S
Eu1260 O1308 2.563 . S
Eu1260 O1309 2.419 . S
Eu1260 O1311 2.380 . S
Eu1260 O1312 2.432 . S
Eu1260 C1324 2.848 . S
C1261 C1264 1.429 . S
C1261 C1265 1.411 . S
C1261 N1268 1.377 . S
C1262 C1264 1.420 . S
C1262 C1266 1.423 . S
C1262 C1274 1.392 . S
C1263 C1265 1.420 . S
C1263 C1266 1.351 . S
C1263 H1286 0.931 . S
C1264 C1261 1.429 . S
C1264 C1262 1.420 . S
C1264 N1272 1.362 . S
C1265 C1261 1.411 . S
C1265 C1263 1.420 . S
C1265 C1270 1.395 . S
C1266 C1262 1.423 . S
C1266 C1263 1.351 . S
C1266 H1278 0.930 . S
C1267 C1269 1.400 . S
C1267 C1270 1.386 . S
C1267 H1279 0.930 . S
N1268 C1261 1.377 . S
N1268 C1269 1.321 . S
N1268 Eu1271 2.609 . S
C1269 C1267 1.400 . S
C1269 N1268 1.321 . S
C1269 H1276 0.930 . S
C1270 C1265 1.395 . S
C1270 C1267 1.386 . S
C1270 H1289 0.930 . S
Eu1271 N1268 2.609 . S
Eu1271 N1272 2.657 . S
Eu1271 O1305 2.380 . S
Eu1271 O1306 2.432 . S
Eu1271 O1310 2.558 . S
Eu1271 O1311 2.612 . S
Eu1271 O1313 2.339 . S
Eu1271 O1314 2.563 . S
Eu1271 O1315 2.419 . S
Eu1271 C1335 2.848 . S
N1272 C1264 1.362 . S
N1272 Eu1271 2.657 . S
N1272 C1273 1.334 . S
C1273 N1272 1.334 . S
C1273 C1275 1.413 . S
C1273 H1280 0.929 . S
C1274 C1262 1.392 . S
C1274 C1275 1.367 . S
C1274 H1282 0.930 . S
C1275 C1273 1.413 . S
C1275 C1274 1.367 . S
C1275 H1277 0.930 . S
H1276 C1269 0.930 . S
H1277 C1275 0.930 . S
H1278 C1266 0.930 . S
H1279 C1267 0.930 . S
H1280 C1273 0.929 . S
H1281 C1295 0.930 . S
H1282 C1274 0.930 . S
H1283 C1301 0.930 . S
H1284 C1292 0.929 . S
H1285 C1299 0.930 . S
H1286 C1263 0.931 . S
H1287 C1293 0.930 . S
H1288 C1326 0.930 . S
H1289 C1270 0.930 . S
H1290 C1325 0.931 . S
N1291 Eu1260 2.657 1_655 S
N1291 C1292 1.334 . S
N1291 C1296 1.362 . S
C1292 H1284 0.929 . S
C1292 N1291 1.334 . S
C1292 C1295 1.413 . S
C1293 H1287 0.930 . S
C1293 C1294 1.392 . S
C1293 C1295 1.367 . S
C1294 C1293 1.392 . S
C1294 C1296 1.420 . S
C1294 C1326 1.423 . S
C1295 H1281 0.930 . S
C1295 C1292 1.413 . S
C1295 C1293 1.367 . S
C1296 N1291 1.362 . S
C1296 C1294 1.420 . S
C1296 C1300 1.429 . S
H1297 C1302 0.930 . S
N1298 Eu1260 2.589 1_655 S
N1298 C1300 1.402 . S
N1298 C1301 1.316 1_655 S
C1299 H1285 0.930 . S
C1299 C1301 1.400 1_655 S
C1299 C1302 1.386 . S
C1300 C1296 1.429 . S
C1300 N1298 1.402 . S
C1300 C1303 1.411 . S
C1301 H1283 0.930 . S
C1301 N1298 1.316 1_455 S
C1301 C1299 1.400 1_455 S
C1302 H1297 0.930 . S
C1302 C1299 1.386 . S
C1302 C1303 1.395 . S
C1303 C1300 1.411 . S
C1303 C1302 1.395 . S
C1303 C1325 1.420 . S
O1304 Eu1260 2.558 . S
O1304 C1324 1.257 . S
O1305 Eu1260 2.612 . S
O1305 Eu1271 2.380 . S
O1305 C1316 1.276 . S
O1306 Eu1271 2.432 . S
O1306 C1323 1.264 . S
O1307 Eu1260 2.339 . S
O1307 C1323 1.254 . S
O1308 Eu1260 2.563 . S
O1308 C1316 1.235 . S
O1309 Eu1260 2.419 . S
O1309 C1324 1.249 . S
O1310 Eu1271 2.558 . S
O1310 C1335 1.257 . S
O1311 Eu1260 2.380 . S
O1311 Eu1271 2.612 . S
O1311 C1327 1.276 . S
O1312 Eu1260 2.432 . S
O1312 C1334 1.264 . S
O1313 Eu1271 2.339 . S
O1313 C1334 1.254 . S
O1314 Eu1271 2.563 . S
O1314 C1327 1.235 . S
O1315 Eu1271 2.419 . S
O1315 C1335 1.249 . S
C1316 O1305 1.276 . S
C1316 O1308 1.235 . S
C1317 C1319 1.393 . S
C1317 C1321 1.395 . S
C1317 C1324 1.492 . S
C1318 C1319 1.392 . S
C1318 C1320 1.386 . S
C1319 C1317 1.393 . S
C1319 C1318 1.392 . S
C1319 H1336 0.930 . S
C1320 C1318 1.386 . S
C1320 C1322 1.395 . S
C1320 H1337 0.930 . S
C1321 C1317 1.395 . S
C1321 C1322 1.379 . S
C1321 H1338 0.930 . S
C1322 C1320 1.395 . S
C1322 C1321 1.379 . S
C1322 H1339 0.930 . S
C1323 O1306 1.264 . S
C1323 O1307 1.254 . S
C1324 Eu1260 2.848 . S
C1324 O1304 1.257 . S
C1324 O1309 1.249 . S
C1324 C1317 1.492 . S
C1325 H1290 0.931 . S
C1325 C1303 1.420 . S
C1325 C1326 1.351 . S
C1326 H1288 0.930 . S
C1326 C1294 1.423 . S
C1326 C1325 1.351 . S
C1327 O1311 1.276 . S
C1327 O1314 1.235 . S
C1328 C1329 1.393 . S
C1328 C1332 1.395 . S
C1328 C1335 1.492 . S
C1329 C1328 1.393 . S
C1329 C1330 1.392 . S
C1329 H1340 0.930 . S
C1330 C1329 1.392 . S
C1330 C1331 1.386 . S
C1331 C1330 1.386 . S
C1331 C1333 1.395 . S
C1331 H1341 0.930 . S
C1332 C1328 1.395 . S
C1332 C1333 1.379 . S
C1332 H1342 0.930 . S
C1333 C1331 1.395 . S
C1333 C1332 1.379 . S
C1333 H1343 0.930 . S
C1334 O1312 1.264 . S
C1334 O1313 1.254 . S
C1335 Eu1271 2.848 . S
C1335 O1310 1.257 . S
C1335 O1315 1.249 . S
C1335 C1328 1.492 . S
H1336 C1319 0.930 . S
H1337 C1320 0.930 . S
H1338 C1321 0.930 . S
H1339 C1322 0.930 . S
H1340 C1329 0.930 . S
H1341 C1331 0.930 . S
H1342 C1332 0.930 . S
H1343 C1333 0.930 . S
Eu1344 N1375 2.657 . S
Eu1344 N1382 2.609 . S
Eu1344 O1388 2.558 . S
Eu1344 O1389 2.612 . S
Eu1344 O1391 2.339 . S
Eu1344 O1392 2.563 . S
Eu1344 O1393 2.419 . S
Eu1344 O1395 2.380 . S
Eu1344 O1396 2.432 . S
Eu1344 C1408 2.848 . S
C1345 C1348 1.429 . S
C1345 C1349 1.411 . S
C1345 N1352 1.377 . S
C1346 C1348 1.420 . S
C1346 C1350 1.423 . S
C1346 C1358 1.392 . S
C1347 C1349 1.420 . S
C1347 C1350 1.351 . S
C1347 H1370 0.931 . S
C1348 C1345 1.429 . S
C1348 C1346 1.420 . S
C1348 N1356 1.362 . S
C1349 C1345 1.411 . S
C1349 C1347 1.420 . S
C1349 C1354 1.395 . S
C1350 C1346 1.423 . S
C1350 C1347 1.351 . S
C1350 H1362 0.930 . S
C1351 C1353 1.400 . S
C1351 C1354 1.386 . S
C1351 H1363 0.930 . S
N1352 C1345 1.377 . S
N1352 C1353 1.321 . S
N1352 Eu1355 2.609 . S
C1353 C1351 1.400 . S
C1353 N1352 1.321 . S
C1353 H1360 0.930 . S
C1354 C1349 1.395 . S
C1354 C1351 1.386 . S
C1354 H1373 0.930 . S
Eu1355 N1352 2.609 . S
Eu1355 N1356 2.657 . S
Eu1355 O1389 2.380 . S
Eu1355 O1390 2.432 . S
Eu1355 O1394 2.558 . S
Eu1355 O1395 2.612 . S
Eu1355 O1397 2.339 . S
Eu1355 O1398 2.563 . S
Eu1355 O1399 2.419 . S
Eu1355 C1419 2.848 . S
N1356 C1348 1.362 . S
N1356 Eu1355 2.657 . S
N1356 C1357 1.334 . S
C1357 N1356 1.334 . S
C1357 C1359 1.413 . S
C1357 H1364 0.929 . S
C1358 C1346 1.392 . S
C1358 C1359 1.367 . S
C1358 H1366 0.930 . S
C1359 C1357 1.413 . S
C1359 C1358 1.367 . S
C1359 H1361 0.930 . S
H1360 C1353 0.930 . S
H1361 C1359 0.930 . S
H1362 C1350 0.930 . S
H1363 C1351 0.930 . S
H1364 C1357 0.929 . S
H1365 C1379 0.930 . S
H1366 C1358 0.930 . S
H1367 C1385 0.930 . S
H1368 C1376 0.929 . S
H1369 C1383 0.930 . S
H1370 C1347 0.931 . S
H1371 C1377 0.930 . S
H1372 C1410 0.930 . S
H1373 C1354 0.930 . S
H1374 C1409 0.931 . S
N1375 Eu1344 2.657 . S
N1375 C1376 1.334 . S
N1375 C1380 1.362 . S
C1376 H1368 0.929 . S
C1376 N1375 1.334 . S
C1376 C1379 1.413 . S
C1377 H1371 0.930 . S
C1377 C1378 1.392 . S
C1377 C1379 1.367 . S
C1378 C1377 1.392 . S
C1378 C1380 1.420 . S
C1378 C1410 1.423 . S
C1379 H1365 0.930 . S
C1379 C1376 1.413 . S
C1379 C1377 1.367 . S
C1380 N1375 1.362 . S
C1380 C1378 1.420 . S
C1380 C1384 1.429 . S
H1381 C1386 0.930 . S
N1382 Eu1344 2.609 . S
N1382 C1384 1.377 . S
N1382 C1385 1.321 . S
C1383 H1369 0.930 . S
C1383 C1385 1.400 . S
C1383 C1386 1.386 . S
C1384 C1380 1.429 . S
C1384 N1382 1.377 . S
C1384 C1387 1.411 . S
C1385 H1367 0.930 . S
C1385 N1382 1.321 . S
C1385 C1383 1.400 . S
C1386 H1381 0.930 . S
C1386 C1383 1.386 . S
C1386 C1387 1.395 . S
C1387 C1384 1.411 . S
C1387 C1386 1.395 . S
C1387 C1409 1.420 . S
O1388 Eu1344 2.558 . S
O1388 C1408 1.257 . S
O1389 Eu1344 2.612 . S
O1389 Eu1355 2.380 . S
O1389 C1400 1.276 . S
O1390 Eu1355 2.432 . S
O1390 C1407 1.264 . S
O1391 Eu1344 2.339 . S
O1391 C1407 1.254 . S
O1392 Eu1344 2.563 . S
O1392 C1400 1.235 . S
O1393 Eu1344 2.419 . S
O1393 C1408 1.249 . S
O1394 Eu1355 2.558 . S
O1394 C1419 1.257 . S
O1395 Eu1344 2.380 . S
O1395 Eu1355 2.612 . S
O1395 C1411 1.276 . S
O1396 Eu1344 2.432 . S
O1396 C1418 1.264 . S
O1397 Eu1355 2.339 . S
O1397 C1418 1.254 . S
O1398 Eu1355 2.563 . S
O1398 C1411 1.235 . S
O1399 Eu1355 2.419 . S
O1399 C1419 1.249 . S
C1400 O1389 1.276 . S
C1400 O1392 1.235 . S
C1401 C1403 1.393 . S
C1401 C1405 1.395 . S
C1401 C1408 1.492 . S
C1402 C1403 1.392 . S
C1402 C1404 1.386 . S
C1403 C1401 1.393 . S
C1403 C1402 1.392 . S
C1403 H1420 0.930 . S
C1404 C1402 1.386 . S
C1404 C1406 1.395 . S
C1404 H1421 0.930 . S
C1405 C1401 1.395 . S
C1405 C1406 1.379 . S
C1405 H1422 0.930 . S
C1406 C1404 1.395 . S
C1406 C1405 1.379 . S
C1406 H1423 0.930 . S
C1407 O1390 1.264 . S
C1407 O1391 1.254 . S
C1408 Eu1344 2.848 . S
C1408 O1388 1.257 . S
C1408 O1393 1.249 . S
C1408 C1401 1.492 . S
C1409 H1374 0.931 . S
C1409 C1387 1.420 . S
C1409 C1410 1.351 . S
C1410 H1372 0.930 . S
C1410 C1378 1.423 . S
C1410 C1409 1.351 . S
C1411 O1395 1.276 . S
C1411 O1398 1.235 . S
C1412 C1413 1.393 1_556 S
C1412 C1416 1.395 1_556 S
C1412 C1419 1.492 . S
C1413 C1412 1.393 1_554 S
C1413 C1414 1.392 . S
C1413 H1424 0.930 . S
C1414 C1413 1.392 . S
C1414 C1415 1.386 . S
C1415 C1414 1.386 . S
C1415 C1417 1.395 . S
C1415 H1425 0.930 . S
C1416 C1412 1.395 1_554 S
C1416 C1417 1.379 . S
C1416 H1426 0.930 1_554 S
C1417 C1415 1.395 . S
C1417 C1416 1.379 . S
C1417 H1427 0.930 . S
C1418 O1396 1.264 . S
C1418 O1397 1.254 . S
C1419 Eu1355 2.848 . S
C1419 O1394 1.257 . S
C1419 O1399 1.249 . S
C1419 C1412 1.492 . S
H1420 C1403 0.930 . S
H1421 C1404 0.930 . S
H1422 C1405 0.930 . S
H1423 C1406 0.930 . S
H1424 C1413 0.930 . S
H1425 C1415 0.930 . S
H1426 C1416 0.930 1_556 S
H1427 C1417 0.930 . S
Eu1428 N1459 2.651 1_565 S
Eu1428 N1466 2.609 . S
Eu1428 O1472 2.558 . S
Eu1428 O1473 2.615 . S
Eu1428 O1475 2.339 1_565 S
Eu1428 O1476 2.563 . S
Eu1428 O1477 2.419 . S
Eu1428 O1479 2.380 . S
Eu1428 O1480 2.432 . S
Eu1428 C1492 2.848 . S
C1429 C1432 1.429 . S
C1429 C1433 1.411 . S
C1429 N1436 1.377 . S
C1430 C1432 1.420 . S
C1430 C1434 1.423 . S
C1430 C1442 1.392 1_545 S
C1431 C1433 1.420 . S
C1431 C1434 1.351 . S
C1431 H1454 0.931 . S
C1432 C1429 1.429 . S
C1432 C1430 1.420 . S
C1432 N1440 1.362 1_545 S
C1433 C1429 1.411 . S
C1433 C1431 1.420 . S
C1433 C1438 1.395 . S
C1434 C1430 1.423 . S
C1434 C1431 1.351 . S
C1434 H1446 0.930 . S
C1435 C1437 1.400 . S
C1435 C1438 1.386 . S
C1435 H1447 0.930 . S
N1436 C1429 1.377 . S
N1436 C1437 1.321 . S
N1436 Eu1439 2.609 . S
C1437 C1435 1.400 . S
C1437 N1436 1.321 . S
C1437 H1444 0.930 . S
C1438 C1433 1.395 . S
C1438 C1435 1.386 . S
C1438 H1457 0.930 . S
Eu1439 N1436 2.609 . S
Eu1439 N1440 2.657 1_545 S
Eu1439 O1473 2.378 1_545 S
Eu1439 O1474 2.432 . S
Eu1439 O1478 2.558 . S
Eu1439 O1479 2.612 1_545 S
Eu1439 O1481 2.339 1_545 S
Eu1439 O1482 2.563 . S
Eu1439 O1483 2.419 . S
Eu1439 C1503 2.848 . S
N1440 C1432 1.362 1_565 S
N1440 Eu1439 2.657 1_565 S
N1440 C1441 1.334 . S
C1441 N1440 1.334 . S
C1441 C1443 1.413 . S
C1441 H1448 0.929 . S
C1442 C1430 1.392 1_565 S
C1442 C1443 1.367 . S
C1442 H1450 0.930 . S
C1443 C1441 1.413 . S
C1443 C1442 1.367 . S
C1443 H1445 0.930 . S
H1444 C1437 0.930 . S
H1445 C1443 0.930 . S
H1446 C1434 0.930 . S
H1447 C1435 0.930 . S
H1448 C1441 0.929 . S
H1449 C1463 0.930 . S
H1450 C1442 0.930 . S
H1451 C1469 0.930 . S
H1452 C1460 0.929 . S
H1453 C1467 0.930 . S
H1454 C1431 0.931 . S
H1455 C1461 0.930 . S
H1456 C1494 0.930 . S
H1457 C1438 0.930 . S
H1458 C1493 0.931 . S
N1459 Eu1428 2.651 1_545 S
N1459 C1460 1.351 . S
N1459 C1464 1.351 1_545 S
C1460 H1452 0.929 . S
C1460 N1459 1.351 . S
C1460 C1463 1.413 . S
C1461 H1455 0.930 . S
C1461 C1462 1.392 1_545 S
C1461 C1463 1.367 . S
C1462 C1461 1.392 1_565 S
C1462 C1464 1.420 . S
C1462 C1494 1.423 . S
C1463 H1449 0.930 . S
C1463 C1460 1.413 . S
C1463 C1461 1.367 . S
C1464 N1459 1.351 1_565 S
C1464 C1462 1.420 . S
C1464 C1468 1.429 . S
H1465 C1470 0.930 . S
N1466 Eu1428 2.609 . S
N1466 C1468 1.377 . S
N1466 C1469 1.321 . S
C1467 H1453 0.930 . S
C1467 C1469 1.400 . S
C1467 C1470 1.386 . S
C1468 C1464 1.429 . S
C1468 N1466 1.377 . S
C1468 C1471 1.411 . S
C1469 H1451 0.930 . S
C1469 N1466 1.321 . S
C1469 C1467 1.400 . S
C1470 H1465 0.930 . S
C1470 C1467 1.386 . S
C1470 C1471 1.395 . S
C1471 C1468 1.411 . S
C1471 C1470 1.395 . S
C1471 C1493 1.420 . S
O1472 Eu1428 2.558 . S
O1472 C1492 1.257 . S
O1473 Eu1428 2.615 . S
O1473 Eu1439 2.378 1_565 S
O1473 C1484 1.278 . S
O1474 Eu1439 2.432 . S
O1474 C1491 1.264 . S
O1475 Eu1428 2.339 1_545 S
O1475 C1491 1.254 . S
O1476 Eu1428 2.563 . S
O1476 C1484 1.235 . S
O1477 Eu1428 2.419 . S
O1477 C1492 1.249 . S
O1478 Eu1439 2.558 . S
O1478 C1503 1.257 . S
O1479 Eu1428 2.380 . S
O1479 Eu1439 2.612 1_565 S
O1479 C1495 1.276 1_565 S
O1480 Eu1428 2.432 . S
O1480 C1502 1.264 . S
O1481 Eu1439 2.339 1_565 S
O1481 C1502 1.254 . S
O1482 Eu1439 2.563 . S
O1482 C1495 1.235 . S
O1483 Eu1439 2.419 . S
O1483 C1503 1.249 . S
C1484 O1473 1.278 . S
C1484 O1476 1.235 . S
C1485 C1487 1.393 . S
C1485 C1489 1.395 . S
C1485 C1492 1.492 . S
C1486 C1487 1.392 . S
C1486 C1488 1.386 . S
C1487 C1485 1.393 . S
C1487 C1486 1.392 . S
C1487 H1504 0.930 1_565 S
C1488 C1486 1.386 . S
C1488 C1490 1.395 . S
C1488 H1505 0.930 . S
C1489 C1485 1.395 . S
C1489 C1490 1.379 . S
C1489 H1506 0.930 . S
C1490 C1488 1.395 . S
C1490 C1489 1.379 . S
C1490 H1507 0.930 . S
C1491 O1474 1.264 . S
C1491 O1475 1.254 . S
C1492 Eu1428 2.848 . S
C1492 O1472 1.257 . S
C1492 O1477 1.249 . S
C1492 C1485 1.492 . S
C1493 H1458 0.931 . S
C1493 C1471 1.420 . S
C1493 C1494 1.351 . S
C1494 H1456 0.930 . S
C1494 C1462 1.423 . S
C1494 C1493 1.351 . S
C1495 O1479 1.276 1_545 S
C1495 O1482 1.235 . S
C1496 C1497 1.393 1_556 S
C1496 C1500 1.395 1_556 S
C1496 C1503 1.492 . S
C1497 C1496 1.393 1_554 S
C1497 C1498 1.392 . S
C1497 H1508 0.930 1_545 S
C1498 C1497 1.392 . S
C1498 C1499 1.386 . S
C1499 C1498 1.386 . S
C1499 C1501 1.395 . S
C1499 H1509 0.930 . S
C1500 C1496 1.395 1_554 S
C1500 C1501 1.379 . S
C1500 H1510 0.930 1_554 S
C1501 C1499 1.395 . S
C1501 C1500 1.379 . S
C1501 H1511 0.930 . S
C1502 O1480 1.264 . S
C1502 O1481 1.254 . S
C1503 Eu1439 2.848 . S
C1503 O1478 1.257 . S
C1503 O1483 1.249 . S
C1503 C1496 1.492 . S
H1504 C1487 0.930 1_545 S
H1505 C1488 0.930 . S
H1506 C1489 0.930 . S
H1507 C1490 0.930 . S
H1508 C1497 0.930 1_565 S
H1509 C1499 0.930 . S
H1510 C1500 0.930 1_556 S
H1511 C1501 0.930 . S
Eu1512 N1543 2.651 1_565 S
Eu1512 N1550 2.609 . S
Eu1512 O1556 2.558 . S
Eu1512 O1557 2.615 . S
Eu1512 O1559 2.339 1_565 S
Eu1512 O1560 2.563 . S
Eu1512 O1561 2.419 . S
Eu1512 O1563 2.380 . S
Eu1512 O1564 2.432 . S
Eu1512 C1576 2.848 . S
C1513 C1516 1.429 . S
C1513 C1517 1.411 . S
C1513 N1520 1.377 . S
C1514 C1516 1.420 . S
C1514 C1518 1.423 . S
C1514 C1526 1.392 1_545 S
C1515 C1517 1.420 . S
C1515 C1518 1.351 . S
C1515 H1538 0.931 . S
C1516 C1513 1.429 . S
C1516 C1514 1.420 . S
C1516 N1524 1.362 1_545 S
C1517 C1513 1.411 . S
C1517 C1515 1.420 . S
C1517 C1522 1.395 . S
C1518 C1514 1.423 . S
C1518 C1515 1.351 . S
C1518 H1530 0.930 . S
C1519 C1521 1.400 . S
C1519 C1522 1.386 . S
C1519 H1531 0.930 . S
N1520 C1513 1.377 . S
N1520 C1521 1.321 . S
N1520 Eu1523 2.609 . S
C1521 C1519 1.400 . S
C1521 N1520 1.321 . S
C1521 H1528 0.930 . S
C1522 C1517 1.395 . S
C1522 C1519 1.386 . S
C1522 H1541 0.930 . S
Eu1523 N1520 2.609 . S
Eu1523 N1524 2.657 1_545 S
Eu1523 O1557 2.378 1_545 S
Eu1523 O1558 2.432 . S
Eu1523 O1562 2.558 . S
Eu1523 O1563 2.612 1_545 S
Eu1523 O1565 2.339 1_545 S
Eu1523 O1566 2.563 . S
Eu1523 O1567 2.419 . S
Eu1523 C1587 2.848 . S
N1524 C1516 1.362 1_565 S
N1524 Eu1523 2.657 1_565 S
N1524 C1525 1.334 . S
C1525 N1524 1.334 . S
C1525 C1527 1.413 . S
C1525 H1532 0.929 . S
C1526 C1514 1.392 1_565 S
C1526 C1527 1.367 . S
C1526 H1534 0.930 . S
C1527 C1525 1.413 . S
C1527 C1526 1.367 . S
C1527 H1529 0.930 . S
H1528 C1521 0.930 . S
H1529 C1527 0.930 . S
H1530 C1518 0.930 . S
H1531 C1519 0.930 . S
H1532 C1525 0.929 . S
H1533 C1547 0.930 . S
H1534 C1526 0.930 . S
H1535 C1553 0.930 . S
H1536 C1544 0.929 . S
H1537 C1551 0.930 . S
H1538 C1515 0.931 . S
H1539 C1545 0.930 . S
H1540 C1578 0.930 . S
H1541 C1522 0.930 . S
H1542 C1577 0.931 . S
N1543 Eu1512 2.651 1_545 S
N1543 C1544 1.351 . S
N1543 C1548 1.351 1_545 S
C1544 H1536 0.929 . S
C1544 N1543 1.351 . S
C1544 C1547 1.413 . S
C1545 H1539 0.930 . S
C1545 C1546 1.392 1_545 S
C1545 C1547 1.367 . S
C1546 C1545 1.392 1_565 S
C1546 C1548 1.420 . S
C1546 C1578 1.423 . S
C1547 H1533 0.930 . S
C1547 C1544 1.413 . S
C1547 C1545 1.367 . S
C1548 N1543 1.351 1_565 S
C1548 C1546 1.420 . S
C1548 C1552 1.429 . S
H1549 C1554 0.930 . S
N1550 Eu1512 2.609 . S
N1550 C1552 1.377 . S
N1550 C1553 1.321 . S
C1551 H1537 0.930 . S
C1551 C1553 1.400 . S
C1551 C1554 1.386 . S
C1552 C1548 1.429 . S
C1552 N1550 1.377 . S
C1552 C1555 1.411 . S
C1553 H1535 0.930 . S
C1553 N1550 1.321 . S
C1553 C1551 1.400 . S
C1554 H1549 0.930 . S
C1554 C1551 1.386 . S
C1554 C1555 1.395 . S
C1555 C1552 1.411 . S
C1555 C1554 1.395 . S
C1555 C1577 1.420 . S
O1556 Eu1512 2.558 . S
O1556 C1576 1.257 . S
O1557 Eu1512 2.615 . S
O1557 Eu1523 2.378 1_565 S
O1557 C1568 1.278 . S
O1558 Eu1523 2.432 . S
O1558 C1575 1.264 . S
O1559 Eu1512 2.339 1_545 S
O1559 C1575 1.254 . S
O1560 Eu1512 2.563 . S
O1560 C1568 1.235 . S
O1561 Eu1512 2.419 . S
O1561 C1576 1.249 . S
O1562 Eu1523 2.558 . S
O1562 C1587 1.257 . S
O1563 Eu1512 2.380 . S
O1563 Eu1523 2.612 1_565 S
O1563 C1579 1.276 1_565 S
O1564 Eu1512 2.432 . S
O1564 C1586 1.264 . S
O1565 Eu1523 2.339 1_565 S
O1565 C1586 1.254 . S
O1566 Eu1523 2.563 . S
O1566 C1579 1.235 . S
O1567 Eu1523 2.419 . S
O1567 C1587 1.249 . S
C1568 O1557 1.278 . S
C1568 O1560 1.235 . S
C1569 C1571 1.393 . S
C1569 C1573 1.395 . S
C1569 C1576 1.492 . S
C1570 C1571 1.392 . S
C1570 C1572 1.386 . S
C1571 C1569 1.393 . S
C1571 C1570 1.392 . S
C1571 H1588 0.930 1_565 S
C1572 C1570 1.386 . S
C1572 C1574 1.395 . S
C1572 H1589 0.930 . S
C1573 C1569 1.395 . S
C1573 C1574 1.379 . S
C1573 H1590 0.930 . S
C1574 C1572 1.395 . S
C1574 C1573 1.379 . S
C1574 H1591 0.930 . S
C1575 O1558 1.264 . S
C1575 O1559 1.254 . S
C1576 Eu1512 2.848 . S
C1576 O1556 1.257 . S
C1576 O1561 1.249 . S
C1576 C1569 1.492 . S
C1577 H1542 0.931 . S
C1577 C1555 1.420 . S
C1577 C1578 1.351 . S
C1578 H1540 0.930 . S
C1578 C1546 1.423 . S
C1578 C1577 1.351 . S
C1579 O1563 1.276 1_545 S
C1579 O1566 1.235 . S
C1580 C1581 1.393 . S
C1580 C1584 1.395 . S
C1580 C1587 1.492 . S
C1581 C1580 1.393 . S
C1581 C1582 1.392 . S
C1581 H1592 0.930 1_545 S
C1582 C1581 1.392 . S
C1582 C1583 1.386 . S
C1583 C1582 1.386 . S
C1583 C1585 1.395 . S
C1583 H1593 0.930 . S
C1584 C1580 1.395 . S
C1584 C1585 1.379 . S
C1584 H1594 0.930 . S
C1585 C1583 1.395 . S
C1585 C1584 1.379 . S
C1585 H1595 0.930 . S
C1586 O1564 1.264 . S
C1586 O1565 1.254 . S
C1587 Eu1523 2.848 . S
C1587 O1562 1.257 . S
C1587 O1567 1.249 . S
C1587 C1580 1.492 . S
H1588 C1571 0.930 1_545 S
H1589 C1572 0.930 . S
H1590 C1573 0.930 . S
H1591 C1574 0.930 . S
H1592 C1581 0.930 1_565 S
H1593 C1583 0.930 . S
H1594 C1584 0.930 . S
H1595 C1585 0.930 . S
Eu1596 N1627 2.657 . S
Eu1596 N1634 2.609 . S
Eu1596 O1640 2.558 . S
Eu1596 O1641 2.612 . S
Eu1596 O1643 2.339 . S
Eu1596 O1644 2.563 . S
Eu1596 O1645 2.419 . S
Eu1596 O1647 2.380 . S
Eu1596 O1648 2.432 . S
Eu1596 C1660 2.848 . S
C1597 C1600 1.429 . S
C1597 C1601 1.411 . S
C1597 N1604 1.377 . S
C1598 C1600 1.420 . S
C1598 C1602 1.423 . S
C1598 C1610 1.392 . S
C1599 C1601 1.420 . S
C1599 C1602 1.351 . S
C1599 H1622 0.931 . S
C1600 C1597 1.429 . S
C1600 C1598 1.420 . S
C1600 N1608 1.362 . S
C1601 C1597 1.411 . S
C1601 C1599 1.420 . S
C1601 C1606 1.395 . S
C1602 C1598 1.423 . S
C1602 C1599 1.351 . S
C1602 H1614 0.930 . S
C1603 C1605 1.400 . S
C1603 C1606 1.386 . S
C1603 H1615 0.930 . S
N1604 C1597 1.377 . S
N1604 C1605 1.321 . S
N1604 Eu1607 2.609 . S
C1605 C1603 1.400 . S
C1605 N1604 1.321 . S
C1605 H1612 0.930 . S
C1606 C1601 1.395 . S
C1606 C1603 1.386 . S
C1606 H1625 0.930 . S
Eu1607 N1604 2.609 . S
Eu1607 N1608 2.657 . S
Eu1607 O1641 2.380 . S
Eu1607 O1642 2.432 . S
Eu1607 O1646 2.558 . S
Eu1607 O1647 2.612 . S
Eu1607 O1649 2.339 . S
Eu1607 O1650 2.563 . S
Eu1607 O1651 2.419 . S
Eu1607 C1671 2.848 . S
N1608 C1600 1.362 . S
N1608 Eu1607 2.657 . S
N1608 C1609 1.334 . S
C1609 N1608 1.334 . S
C1609 C1611 1.413 . S
C1609 H1616 0.929 . S
C1610 C1598 1.392 . S
C1610 C1611 1.367 . S
C1610 H1618 0.930 . S
C1611 C1609 1.413 . S
C1611 C1610 1.367 . S
C1611 H1613 0.930 . S
H1612 C1605 0.930 . S
H1613 C1611 0.930 . S
H1614 C1602 0.930 . S
H1615 C1603 0.930 . S
H1616 C1609 0.929 . S
H1617 C1631 0.930 . S
H1618 C1610 0.930 . S
H1619 C1637 0.930 . S
H1620 C1628 0.929 . S
H1621 C1635 0.930 . S
H1622 C1599 0.931 . S
H1623 C1629 0.930 . S
H1624 C1662 0.930 . S
H1625 C1606 0.930 . S
H1626 C1661 0.931 . S
N1627 Eu1596 2.657 . S
N1627 C1628 1.334 . S
N1627 C1632 1.362 . S
C1628 H1620 0.929 . S
C1628 N1627 1.334 . S
C1628 C1631 1.413 . S
C1629 H1623 0.930 . S
C1629 C1630 1.392 . S
C1629 C1631 1.367 . S
C1630 C1629 1.392 . S
C1630 C1632 1.420 . S
C1630 C1662 1.423 . S
C1631 H1617 0.930 . S
C1631 C1628 1.413 . S
C1631 C1629 1.367 . S
C1632 N1627 1.362 . S
C1632 C1630 1.420 . S
C1632 C1636 1.429 . S
H1633 C1638 0.930 . S
N1634 Eu1596 2.609 . S
N1634 C1636 1.377 . S
N1634 C1637 1.321 . S
C1635 H1621 0.930 . S
C1635 C1637 1.400 . S
C1635 C1638 1.386 . S
C1636 C1632 1.429 . S
C1636 N1634 1.377 . S
C1636 C1639 1.411 . S
C1637 H1619 0.930 . S
C1637 N1634 1.321 . S
C1637 C1635 1.400 . S
C1638 H1633 0.930 . S
C1638 C1635 1.386 . S
C1638 C1639 1.395 . S
C1639 C1636 1.411 . S
C1639 C1638 1.395 . S
C1639 C1661 1.420 . S
O1640 Eu1596 2.558 . S
O1640 C1660 1.257 . S
O1641 Eu1596 2.612 . S
O1641 Eu1607 2.380 . S
O1641 C1652 1.276 . S
O1642 Eu1607 2.432 . S
O1642 C1659 1.264 . S
O1643 Eu1596 2.339 . S
O1643 C1659 1.254 . S
O1644 Eu1596 2.563 . S
O1644 C1652 1.235 . S
O1645 Eu1596 2.419 . S
O1645 C1660 1.249 . S
O1646 Eu1607 2.558 . S
O1646 C1671 1.257 . S
O1647 Eu1596 2.380 . S
O1647 Eu1607 2.612 . S
O1647 C1663 1.276 . S
O1648 Eu1596 2.432 . S
O1648 C1670 1.264 . S
O1649 Eu1607 2.339 . S
O1649 C1670 1.254 . S
O1650 Eu1607 2.563 . S
O1650 C1663 1.235 . S
O1651 Eu1607 2.419 . S
O1651 C1671 1.249 . S
C1652 O1641 1.276 . S
C1652 O1644 1.235 . S
C1653 C1655 1.393 . S
C1653 C1657 1.395 . S
C1653 C1660 1.492 . S
C1654 C1655 1.392 . S
C1654 C1656 1.386 . S
C1655 C1653 1.393 . S
C1655 C1654 1.392 . S
C1655 H1672 0.930 . S
C1656 C1654 1.386 . S
C1656 C1658 1.395 . S
C1656 H1673 0.930 . S
C1657 C1653 1.395 . S
C1657 C1658 1.379 . S
C1657 H1674 0.930 . S
C1658 C1656 1.395 . S
C1658 C1657 1.379 . S
C1658 H1675 0.930 . S
C1659 O1642 1.264 . S
C1659 O1643 1.254 . S
C1660 Eu1596 2.848 . S
C1660 O1640 1.257 . S
C1660 O1645 1.249 . S
C1660 C1653 1.492 . S
C1661 H1626 0.931 . S
C1661 C1639 1.420 . S
C1661 C1662 1.351 . S
C1662 H1624 0.930 . S
C1662 C1630 1.423 . S
C1662 C1661 1.351 . S
C1663 O1647 1.276 . S
C1663 O1650 1.235 . S
C1664 C1665 1.393 . S
C1664 C1668 1.395 . S
C1664 C1671 1.492 . S
C1665 C1664 1.393 . S
C1665 C1666 1.392 . S
C1665 H1676 0.930 . S
C1666 C1665 1.392 . S
C1666 C1667 1.386 . S
C1667 C1666 1.386 . S
C1667 C1669 1.395 . S
C1667 H1677 0.930 . S
C1668 C1664 1.395 . S
C1668 C1669 1.379 . S
C1668 H1678 0.930 . S
C1669 C1667 1.395 . S
C1669 C1668 1.379 . S
C1669 H1679 0.930 . S
C1670 O1648 1.264 . S
C1670 O1649 1.254 . S
C1671 Eu1607 2.848 . S
C1671 O1646 1.257 . S
C1671 O1651 1.249 . S
C1671 C1664 1.492 . S
H1672 C1655 0.930 . S
H1673 C1656 0.930 . S
H1674 C1657 0.930 . S
H1675 C1658 0.930 . S
H1676 C1665 0.930 . S
H1677 C1667 0.930 . S
H1678 C1668 0.930 . S
H1679 C1669 0.930 . S
Eu1680 N1711 2.657 . S
Eu1680 N1718 2.609 . S
Eu1680 O1724 2.558 . S
Eu1680 O1725 2.612 . S
Eu1680 O1727 2.339 . S
Eu1680 O1728 2.563 . S
Eu1680 O1729 2.419 . S
Eu1680 O1731 2.380 . S
Eu1680 O1732 2.432 . S
Eu1680 C1744 2.848 . S
C1681 C1684 1.429 . S
C1681 C1685 1.411 . S
C1681 N1688 1.377 . S
C1682 C1684 1.420 . S
C1682 C1686 1.423 . S
C1682 C1694 1.392 . S
C1683 C1685 1.420 . S
C1683 C1686 1.351 . S
C1683 H1706 0.931 . S
C1684 C1681 1.429 . S
C1684 C1682 1.420 . S
C1684 N1692 1.362 . S
C1685 C1681 1.411 . S
C1685 C1683 1.420 . S
C1685 C1690 1.395 . S
C1686 C1682 1.423 . S
C1686 C1683 1.351 . S
C1686 H1698 0.930 . S
C1687 C1689 1.400 . S
C1687 C1690 1.386 . S
C1687 H1699 0.930 . S
N1688 C1681 1.377 . S
N1688 C1689 1.321 . S
N1688 Eu1691 2.609 . S
C1689 C1687 1.400 . S
C1689 N1688 1.321 . S
C1689 H1696 0.930 . S
C1690 C1685 1.395 . S
C1690 C1687 1.386 . S
C1690 H1709 0.930 . S
Eu1691 N1688 2.609 . S
Eu1691 N1692 2.657 . S
Eu1691 O1725 2.380 . S
Eu1691 O1726 2.432 . S
Eu1691 O1730 2.558 . S
Eu1691 O1731 2.612 . S
Eu1691 O1733 2.339 . S
Eu1691 O1734 2.563 . S
Eu1691 O1735 2.419 . S
Eu1691 C1755 2.848 . S
N1692 C1684 1.362 . S
N1692 Eu1691 2.657 . S
N1692 C1693 1.334 . S
C1693 N1692 1.334 . S
C1693 C1695 1.413 . S
C1693 H1700 0.929 . S
C1694 C1682 1.392 . S
C1694 C1695 1.367 . S
C1694 H1702 0.930 . S
C1695 C1693 1.413 . S
C1695 C1694 1.367 . S
C1695 H1697 0.930 . S
H1696 C1689 0.930 . S
H1697 C1695 0.930 . S
H1698 C1686 0.930 . S
H1699 C1687 0.930 . S
H1700 C1693 0.929 . S
H1701 C1715 0.930 . S
H1702 C1694 0.930 . S
H1703 C1721 0.930 . S
H1704 C1712 0.929 . S
H1705 C1719 0.930 . S
H1706 C1683 0.931 . S
H1707 C1713 0.930 . S
H1708 C1746 0.930 . S
H1709 C1690 0.930 . S
H1710 C1745 0.931 . S
N1711 Eu1680 2.657 . S
N1711 C1712 1.334 . S
N1711 C1716 1.362 . S
C1712 H1704 0.929 . S
C1712 N1711 1.334 . S
C1712 C1715 1.413 . S
C1713 H1707 0.930 . S
C1713 C1714 1.392 . S
C1713 C1715 1.367 . S
C1714 C1713 1.392 . S
C1714 C1716 1.420 . S
C1714 C1746 1.423 . S
C1715 H1701 0.930 . S
C1715 C1712 1.413 . S
C1715 C1713 1.367 . S
C1716 N1711 1.362 . S
C1716 C1714 1.420 . S
C1716 C1720 1.429 . S
H1717 C1722 0.930 . S
N1718 Eu1680 2.609 . S
N1718 C1720 1.377 . S
N1718 C1721 1.321 . S
C1719 H1705 0.930 . S
C1719 C1721 1.400 . S
C1719 C1722 1.386 . S
C1720 C1716 1.429 . S
C1720 N1718 1.377 . S
C1720 C1723 1.411 . S
C1721 H1703 0.930 . S
C1721 N1718 1.321 . S
C1721 C1719 1.400 . S
C1722 H1717 0.930 . S
C1722 C1719 1.386 . S
C1722 C1723 1.395 . S
C1723 C1720 1.411 . S
C1723 C1722 1.395 . S
C1723 C1745 1.420 . S
O1724 Eu1680 2.558 . S
O1724 C1744 1.257 . S
O1725 Eu1680 2.612 . S
O1725 Eu1691 2.380 . S
O1725 C1736 1.276 . S
O1726 Eu1691 2.432 . S
O1726 C1743 1.264 . S
O1727 Eu1680 2.339 . S
O1727 C1743 1.254 . S
O1728 Eu1680 2.563 . S
O1728 C1736 1.235 . S
O1729 Eu1680 2.419 . S
O1729 C1744 1.249 . S
O1730 Eu1691 2.558 . S
O1730 C1755 1.257 . S
O1731 Eu1680 2.380 . S
O1731 Eu1691 2.612 . S
O1731 C1747 1.276 . S
O1732 Eu1680 2.432 . S
O1732 C1754 1.264 . S
O1733 Eu1691 2.339 . S
O1733 C1754 1.254 . S
O1734 Eu1691 2.563 . S
O1734 C1747 1.235 . S
O1735 Eu1691 2.419 . S
O1735 C1755 1.249 . S
C1736 O1725 1.276 . S
C1736 O1728 1.235 . S
C1737 C1739 1.393 1_554 S
C1737 C1741 1.395 1_554 S
C1737 C1744 1.492 . S
C1738 C1739 1.392 . S
C1738 C1740 1.386 . S
C1739 C1737 1.393 1_556 S
C1739 C1738 1.392 . S
C1739 H1756 0.930 . S
C1740 C1738 1.386 . S
C1740 C1742 1.395 . S
C1740 H1757 0.930 . S
C1741 C1737 1.395 1_556 S
C1741 C1742 1.379 . S
C1741 H1758 0.930 1_556 S
C1742 C1740 1.395 . S
C1742 C1741 1.379 . S
C1742 H1759 0.930 . S
C1743 O1726 1.264 . S
C1743 O1727 1.254 . S
C1744 Eu1680 2.848 . S
C1744 O1724 1.257 . S
C1744 O1729 1.249 . S
C1744 C1737 1.492 . S
C1745 H1710 0.931 . S
C1745 C1723 1.420 . S
C1745 C1746 1.351 . S
C1746 H1708 0.930 . S
C1746 C1714 1.423 . S
C1746 C1745 1.351 . S
C1747 O1731 1.276 . S
C1747 O1734 1.235 . S
C1748 C1749 1.393 . S
C1748 C1752 1.395 . S
C1748 C1755 1.492 . S
C1749 C1748 1.393 . S
C1749 C1750 1.392 . S
C1749 H1760 0.930 . S
C1750 C1749 1.392 . S
C1750 C1751 1.386 . S
C1751 C1750 1.386 . S
C1751 C1753 1.395 . S
C1751 H1761 0.930 . S
C1752 C1748 1.395 . S
C1752 C1753 1.379 . S
C1752 H1762 0.930 . S
C1753 C1751 1.395 . S
C1753 C1752 1.379 . S
C1753 H1763 0.930 . S
C1754 O1732 1.264 . S
C1754 O1733 1.254 . S
C1755 Eu1691 2.848 . S
C1755 O1730 1.257 . S
C1755 O1735 1.249 . S
C1755 C1748 1.492 . S
H1756 C1739 0.930 . S
H1757 C1740 0.930 . S
H1758 C1741 0.930 1_554 S
H1759 C1742 0.930 . S
H1760 C1749 0.930 . S
H1761 C1751 0.930 . S
H1762 C1752 0.930 . S
H1763 C1753 0.930 . S
Eu1764 N1795 2.657 1_565 S
Eu1764 N1802 2.609 . S
Eu1764 O1808 2.558 . S
Eu1764 O1809 2.612 1_565 S
Eu1764 O1811 2.339 1_565 S
Eu1764 O1812 2.563 . S
Eu1764 O1813 2.419 . S
Eu1764 O1815 2.378 1_565 S
Eu1764 O1816 2.432 . S
Eu1764 C1828 2.848 . S
C1765 C1768 1.429 . S
C1765 C1769 1.411 . S
C1765 N1772 1.377 . S
C1766 C1768 1.420 . S
C1766 C1770 1.423 . S
C1766 C1778 1.392 1_545 S
C1767 C1769 1.420 . S
C1767 C1770 1.351 . S
C1767 H1790 0.931 . S
C1768 C1765 1.429 . S
C1768 C1766 1.420 . S
C1768 N1776 1.351 1_545 S
C1769 C1765 1.411 . S
C1769 C1767 1.420 . S
C1769 C1774 1.395 . S
C1770 C1766 1.423 . S
C1770 C1767 1.351 . S
C1770 H1782 0.930 . S
C1771 C1773 1.400 . S
C1771 C1774 1.386 . S
C1771 H1783 0.930 . S
N1772 C1765 1.377 . S
N1772 C1773 1.321 . S
N1772 Eu1775 2.609 . S
C1773 C1771 1.400 . S
C1773 N1772 1.321 . S
C1773 H1780 0.930 . S
C1774 C1769 1.395 . S
C1774 C1771 1.386 . S
C1774 H1793 0.930 . S
Eu1775 N1772 2.609 . S
Eu1775 N1776 2.651 1_545 S
Eu1775 O1809 2.380 . S
Eu1775 O1810 2.432 . S
Eu1775 O1814 2.558 . S
Eu1775 O1815 2.615 . S
Eu1775 O1817 2.339 1_545 S
Eu1775 O1818 2.563 . S
Eu1775 O1819 2.419 . S
Eu1775 C1839 2.848 . S
N1776 C1768 1.351 1_565 S
N1776 Eu1775 2.651 1_565 S
N1776 C1777 1.351 . S
C1777 N1776 1.351 . S
C1777 C1779 1.413 . S
C1777 H1784 0.929 . S
C1778 C1766 1.392 1_565 S
C1778 C1779 1.367 . S
C1778 H1786 0.930 . S
C1779 C1777 1.413 . S
C1779 C1778 1.367 . S
C1779 H1781 0.930 . S
H1780 C1773 0.930 . S
H1781 C1779 0.930 . S
H1782 C1770 0.930 . S
H1783 C1771 0.930 . S
H1784 C1777 0.929 . S
H1785 C1799 0.930 . S
H1786 C1778 0.930 . S
H1787 C1805 0.930 . S
H1788 C1796 0.929 . S
H1789 C1803 0.930 . S
H1790 C1767 0.931 . S
H1791 C1797 0.930 . S
H1792 C1830 0.930 . S
H1793 C1774 0.930 . S
H1794 C1829 0.931 . S
N1795 Eu1764 2.657 1_545 S
N1795 C1796 1.334 . S
N1795 C1800 1.362 1_545 S
C1796 H1788 0.929 . S
C1796 N1795 1.334 . S
C1796 C1799 1.413 . S
C1797 H1791 0.930 . S
C1797 C1798 1.392 1_545 S
C1797 C1799 1.367 . S
C1798 C1797 1.392 1_565 S
C1798 C1800 1.420 . S
C1798 C1830 1.423 . S
C1799 H1785 0.930 . S
C1799 C1796 1.413 . S
C1799 C1797 1.367 . S
C1800 N1795 1.362 1_565 S
C1800 C1798 1.420 . S
C1800 C1804 1.429 . S
H1801 C1806 0.930 . S
N1802 Eu1764 2.609 . S
N1802 C1804 1.377 . S
N1802 C1805 1.321 . S
C1803 H1789 0.930 . S
C1803 C1805 1.400 . S
C1803 C1806 1.386 . S
C1804 C1800 1.429 . S
C1804 N1802 1.377 . S
C1804 C1807 1.411 . S
C1805 H1787 0.930 . S
C1805 N1802 1.321 . S
C1805 C1803 1.400 . S
C1806 H1801 0.930 . S
C1806 C1803 1.386 . S
C1806 C1807 1.395 . S
C1807 C1804 1.411 . S
C1807 C1806 1.395 . S
C1807 C1829 1.420 . S
O1808 Eu1764 2.558 . S
O1808 C1828 1.257 . S
O1809 Eu1764 2.612 1_545 S
O1809 Eu1775 2.380 . S
O1809 C1820 1.276 1_545 S
O1810 Eu1775 2.432 . S
O1810 C1827 1.264 . S
O1811 Eu1764 2.339 1_545 S
O1811 C1827 1.254 . S
O1812 Eu1764 2.563 . S
O1812 C1820 1.235 . S
O1813 Eu1764 2.419 . S
O1813 C1828 1.249 . S
O1814 Eu1775 2.558 . S
O1814 C1839 1.257 . S
O1815 Eu1764 2.378 1_545 S
O1815 Eu1775 2.615 . S
O1815 C1831 1.278 . S
O1816 Eu1764 2.432 . S
O1816 C1838 1.264 . S
O1817 Eu1775 2.339 1_565 S
O1817 C1838 1.254 . S
O1818 Eu1775 2.563 . S
O1818 C1831 1.235 . S
O1819 Eu1775 2.419 . S
O1819 C1839 1.249 . S
C1820 O1809 1.276 1_565 S
C1820 O1812 1.235 . S
C1821 C1823 1.393 1_554 S
C1821 C1825 1.395 1_554 S
C1821 C1828 1.492 . S
C1822 C1823 1.392 . S
C1822 C1824 1.386 . S
C1823 C1821 1.393 1_556 S
C1823 C1822 1.392 . S
C1823 H1840 0.930 1_565 S
C1824 C1822 1.386 . S
C1824 C1826 1.395 . S
C1824 H1841 0.930 . S
C1825 C1821 1.395 1_556 S
C1825 C1826 1.379 . S
C1825 H1842 0.930 1_556 S
C1826 C1824 1.395 . S
C1826 C1825 1.379 . S
C1826 H1843 0.930 . S
C1827 O1810 1.264 . S
C1827 O1811 1.254 . S
C1828 Eu1764 2.848 . S
C1828 O1808 1.257 . S
C1828 O1813 1.249 . S
C1828 C1821 1.492 . S
C1829 H1794 0.931 . S
C1829 C1807 1.420 . S
C1829 C1830 1.351 . S
C1830 H1792 0.930 . S
C1830 C1798 1.423 . S
C1830 C1829 1.351 . S
C1831 O1815 1.278 . S
C1831 O1818 1.235 . S
C1832 C1833 1.393 . S
C1832 C1836 1.395 . S
C1832 C1839 1.492 . S
C1833 C1832 1.393 . S
C1833 C1834 1.392 . S
C1833 H1844 0.930 1_545 S
C1834 C1833 1.392 . S
C1834 C1835 1.386 . S
C1835 C1834 1.386 . S
C1835 C1837 1.395 . S
C1835 H1845 0.930 . S
C1836 C1832 1.395 . S
C1836 C1837 1.379 . S
C1836 H1846 0.930 . S
C1837 C1835 1.395 . S
C1837 C1836 1.379 . S
C1837 H1847 0.930 . S
C1838 O1816 1.264 . S
C1838 O1817 1.254 . S
C1839 Eu1775 2.848 . S
C1839 O1814 1.257 . S
C1839 O1819 1.249 . S
C1839 C1832 1.492 . S
H1840 C1823 0.930 1_545 S
H1841 C1824 0.930 . S
H1842 C1825 0.930 1_554 S
H1843 C1826 0.930 . S
H1844 C1833 0.930 1_565 S
H1845 C1835 0.930 . S
H1846 C1836 0.930 . S
H1847 C1837 0.930 . S
Eu1848 N1879 2.657 1_565 S
Eu1848 N1886 2.609 . S
Eu1848 O1892 2.558 . S
Eu1848 O1893 2.612 1_565 S
Eu1848 O1895 2.339 1_565 S
Eu1848 O1896 2.563 . S
Eu1848 O1897 2.419 . S
Eu1848 O1899 2.378 1_565 S
Eu1848 O1900 2.432 . S
Eu1848 C1912 2.848 . S
C1849 C1852 1.429 . S
C1849 C1853 1.411 . S
C1849 N1856 1.377 . S
C1850 C1852 1.420 . S
C1850 C1854 1.423 . S
C1850 C1862 1.392 1_545 S
C1851 C1853 1.420 . S
C1851 C1854 1.351 . S
C1851 H1874 0.931 . S
C1852 C1849 1.429 . S
C1852 C1850 1.420 . S
C1852 N1860 1.351 1_545 S
C1853 C1849 1.411 . S
C1853 C1851 1.420 . S
C1853 C1858 1.395 . S
C1854 C1850 1.423 . S
C1854 C1851 1.351 . S
C1854 H1866 0.930 . S
C1855 C1857 1.400 . S
C1855 C1858 1.386 . S
C1855 H1867 0.930 . S
N1856 C1849 1.377 . S
N1856 C1857 1.321 . S
N1856 Eu1859 2.609 . S
C1857 C1855 1.400 . S
C1857 N1856 1.321 . S
C1857 H1864 0.930 . S
C1858 C1853 1.395 . S
C1858 C1855 1.386 . S
C1858 H1877 0.930 . S
Eu1859 N1856 2.609 . S
Eu1859 N1860 2.651 1_545 S
Eu1859 O1893 2.380 . S
Eu1859 O1894 2.432 . S
Eu1859 O1898 2.558 . S
Eu1859 O1899 2.615 . S
Eu1859 O1901 2.339 1_545 S
Eu1859 O1902 2.563 . S
Eu1859 O1903 2.419 . S
Eu1859 C1923 2.848 . S
N1860 C1852 1.351 1_565 S
N1860 Eu1859 2.651 1_565 S
N1860 C1861 1.351 . S
C1861 N1860 1.351 . S
C1861 C1863 1.413 . S
C1861 H1868 0.929 . S
C1862 C1850 1.392 1_565 S
C1862 C1863 1.367 . S
C1862 H1870 0.930 . S
C1863 C1861 1.413 . S
C1863 C1862 1.367 . S
C1863 H1865 0.930 . S
H1864 C1857 0.930 . S
H1865 C1863 0.930 . S
H1866 C1854 0.930 . S
H1867 C1855 0.930 . S
H1868 C1861 0.929 . S
H1869 C1883 0.930 . S
H1870 C1862 0.930 . S
H1871 C1889 0.930 . S
H1872 C1880 0.929 . S
H1873 C1887 0.930 . S
H1874 C1851 0.931 . S
H1875 C1881 0.930 . S
H1876 C1914 0.930 . S
H1877 C1858 0.930 . S
H1878 C1913 0.931 . S
N1879 Eu1848 2.657 1_545 S
N1879 C1880 1.334 . S
N1879 C1884 1.362 1_545 S
C1880 H1872 0.929 . S
C1880 N1879 1.334 . S
C1880 C1883 1.413 . S
C1881 H1875 0.930 . S
C1881 C1882 1.392 1_545 S
C1881 C1883 1.367 . S
C1882 C1881 1.392 1_565 S
C1882 C1884 1.420 . S
C1882 C1914 1.423 . S
C1883 H1869 0.930 . S
C1883 C1880 1.413 . S
C1883 C1881 1.367 . S
C1884 N1879 1.362 1_565 S
C1884 C1882 1.420 . S
C1884 C1888 1.429 . S
H1885 C1890 0.930 . S
N1886 Eu1848 2.609 . S
N1886 C1888 1.377 . S
N1886 C1889 1.321 . S
C1887 H1873 0.930 . S
C1887 C1889 1.400 . S
C1887 C1890 1.386 . S
C1888 C1884 1.429 . S
C1888 N1886 1.377 . S
C1888 C1891 1.411 . S
C1889 H1871 0.930 . S
C1889 N1886 1.321 . S
C1889 C1887 1.400 . S
C1890 H1885 0.930 . S
C1890 C1887 1.386 . S
C1890 C1891 1.395 . S
C1891 C1888 1.411 . S
C1891 C1890 1.395 . S
C1891 C1913 1.420 . S
O1892 Eu1848 2.558 . S
O1892 C1912 1.257 . S
O1893 Eu1848 2.612 1_545 S
O1893 Eu1859 2.380 . S
O1893 C1904 1.276 1_545 S
O1894 Eu1859 2.432 . S
O1894 C1911 1.264 . S
O1895 Eu1848 2.339 1_545 S
O1895 C1911 1.254 . S
O1896 Eu1848 2.563 . S
O1896 C1904 1.235 . S
O1897 Eu1848 2.419 . S
O1897 C1912 1.249 . S
O1898 Eu1859 2.558 . S
O1898 C1923 1.257 . S
O1899 Eu1848 2.378 1_545 S
O1899 Eu1859 2.615 . S
O1899 C1915 1.278 . S
O1900 Eu1848 2.432 . S
O1900 C1922 1.264 . S
O1901 Eu1859 2.339 1_565 S
O1901 C1922 1.254 . S
O1902 Eu1859 2.563 . S
O1902 C1915 1.235 . S
O1903 Eu1859 2.419 . S
O1903 C1923 1.249 . S
C1904 O1893 1.276 1_565 S
C1904 O1896 1.235 . S
C1905 C1907 1.393 . S
C1905 C1909 1.395 . S
C1905 C1912 1.492 . S
C1906 C1907 1.392 . S
C1906 C1908 1.386 . S
C1907 C1905 1.393 . S
C1907 C1906 1.392 . S
C1907 H1924 0.930 1_565 S
C1908 C1906 1.386 . S
C1908 C1910 1.395 . S
C1908 H1925 0.930 . S
C1909 C1905 1.395 . S
C1909 C1910 1.379 . S
C1909 H1926 0.930 . S
C1910 C1908 1.395 . S
C1910 C1909 1.379 . S
C1910 H1927 0.930 . S
C1911 O1894 1.264 . S
C1911 O1895 1.254 . S
C1912 Eu1848 2.848 . S
C1912 O1892 1.257 . S
C1912 O1897 1.249 . S
C1912 C1905 1.492 . S
C1913 H1878 0.931 . S
C1913 C1891 1.420 . S
C1913 C1914 1.351 . S
C1914 H1876 0.930 . S
C1914 C1882 1.423 . S
C1914 C1913 1.351 . S
C1915 O1899 1.278 . S
C1915 O1902 1.235 . S
C1916 C1917 1.393 . S
C1916 C1920 1.395 . S
C1916 C1923 1.492 . S
C1917 C1916 1.393 . S
C1917 C1918 1.392 . S
C1917 H1928 0.930 1_545 S
C1918 C1917 1.392 . S
C1918 C1919 1.386 . S
C1919 C1918 1.386 . S
C1919 C1921 1.395 . S
C1919 H1929 0.930 . S
C1920 C1916 1.395 . S
C1920 C1921 1.379 . S
C1920 H1930 0.930 . S
C1921 C1919 1.395 . S
C1921 C1920 1.379 . S
C1921 H1931 0.930 . S
C1922 O1900 1.264 . S
C1922 O1901 1.254 . S
C1923 Eu1859 2.848 . S
C1923 O1898 1.257 . S
C1923 O1903 1.249 . S
C1923 C1916 1.492 . S
H1924 C1907 0.930 1_545 S
H1925 C1908 0.930 . S
H1926 C1909 0.930 . S
H1927 C1910 0.930 . S
H1928 C1917 0.930 1_565 S
H1929 C1919 0.930 . S
H1930 C1920 0.930 . S
H1931 C1921 0.930 . S
Eu1932 N1963 2.657 . S
Eu1932 N1970 2.609 . S
Eu1932 O1976 2.558 . S
Eu1932 O1977 2.612 . S
Eu1932 O1979 2.339 . S
Eu1932 O1980 2.563 . S
Eu1932 O1981 2.419 . S
Eu1932 O1983 2.380 . S
Eu1932 O1984 2.432 . S
Eu1932 C1996 2.848 . S
C1933 C1936 1.429 . S
C1933 C1937 1.411 . S
C1933 N1940 1.377 . S
C1934 C1936 1.420 . S
C1934 C1938 1.423 . S
C1934 C1946 1.392 . S
C1935 C1937 1.420 . S
C1935 C1938 1.351 . S
C1935 H1958 0.931 . S
C1936 C1933 1.429 . S
C1936 C1934 1.420 . S
C1936 N1944 1.362 . S
C1937 C1933 1.411 . S
C1937 C1935 1.420 . S
C1937 C1942 1.395 . S
C1938 C1934 1.423 . S
C1938 C1935 1.351 . S
C1938 H1950 0.930 . S
C1939 C1941 1.400 . S
C1939 C1942 1.386 . S
C1939 H1951 0.930 . S
N1940 C1933 1.377 . S
N1940 C1941 1.321 . S
N1940 Eu1943 2.609 . S
C1941 C1939 1.400 . S
C1941 N1940 1.321 . S
C1941 H1948 0.930 . S
C1942 C1937 1.395 . S
C1942 C1939 1.386 . S
C1942 H1961 0.930 . S
Eu1943 N1940 2.609 . S
Eu1943 N1944 2.657 . S
Eu1943 O1977 2.380 . S
Eu1943 O1978 2.432 . S
Eu1943 O1982 2.558 . S
Eu1943 O1983 2.612 . S
Eu1943 O1985 2.339 . S
Eu1943 O1986 2.563 . S
Eu1943 O1987 2.419 . S
Eu1943 C2007 2.848 . S
N1944 C1936 1.362 . S
N1944 Eu1943 2.657 . S
N1944 C1945 1.334 . S
C1945 N1944 1.334 . S
C1945 C1947 1.413 . S
C1945 H1952 0.929 . S
C1946 C1934 1.392 . S
C1946 C1947 1.367 . S
C1946 H1954 0.930 . S
C1947 C1945 1.413 . S
C1947 C1946 1.367 . S
C1947 H1949 0.930 . S
H1948 C1941 0.930 . S
H1949 C1947 0.930 . S
H1950 C1938 0.930 . S
H1951 C1939 0.930 . S
H1952 C1945 0.929 . S
H1953 C1967 0.930 . S
H1954 C1946 0.930 . S
H1955 C1973 0.930 . S
H1956 C1964 0.929 . S
H1957 C1971 0.930 . S
H1958 C1935 0.931 . S
H1959 C1965 0.930 . S
H1960 C1998 0.930 . S
H1961 C1942 0.930 . S
H1962 C1997 0.931 . S
N1963 Eu1932 2.657 . S
N1963 C1964 1.334 . S
N1963 C1968 1.362 . S
C1964 H1956 0.929 . S
C1964 N1963 1.334 . S
C1964 C1967 1.413 . S
C1965 H1959 0.930 . S
C1965 C1966 1.392 . S
C1965 C1967 1.367 . S
C1966 C1965 1.392 . S
C1966 C1968 1.420 . S
C1966 C1998 1.423 . S
C1967 H1953 0.930 . S
C1967 C1964 1.413 . S
C1967 C1965 1.367 . S
C1968 N1963 1.362 . S
C1968 C1966 1.420 . S
C1968 C1972 1.429 . S
H1969 C1974 0.930 . S
N1970 Eu1932 2.609 . S
N1970 C1972 1.377 . S
N1970 C1973 1.321 . S
C1971 H1957 0.930 . S
C1971 C1973 1.400 . S
C1971 C1974 1.386 . S
C1972 C1968 1.429 . S
C1972 N1970 1.377 . S
C1972 C1975 1.411 . S
C1973 H1955 0.930 . S
C1973 N1970 1.321 . S
C1973 C1971 1.400 . S
C1974 H1969 0.930 . S
C1974 C1971 1.386 . S
C1974 C1975 1.395 . S
C1975 C1972 1.411 . S
C1975 C1974 1.395 . S
C1975 C1997 1.420 . S
O1976 Eu1932 2.558 . S
O1976 C1996 1.257 . S
O1977 Eu1932 2.612 . S
O1977 Eu1943 2.380 . S
O1977 C1988 1.276 . S
O1978 Eu1943 2.432 . S
O1978 C1995 1.264 . S
O1979 Eu1932 2.339 . S
O1979 C1995 1.254 . S
O1980 Eu1932 2.563 . S
O1980 C1988 1.235 . S
O1981 Eu1932 2.419 . S
O1981 C1996 1.249 . S
O1982 Eu1943 2.558 . S
O1982 C2007 1.257 . S
O1983 Eu1932 2.380 . S
O1983 Eu1943 2.612 . S
O1983 C1999 1.276 . S
O1984 Eu1932 2.432 . S
O1984 C2006 1.264 . S
O1985 Eu1943 2.339 . S
O1985 C2006 1.254 . S
O1986 Eu1943 2.563 . S
O1986 C1999 1.235 . S
O1987 Eu1943 2.419 . S
O1987 C2007 1.249 . S
C1988 O1977 1.276 . S
C1988 O1980 1.235 . S
C1989 C1991 1.393 . S
C1989 C1993 1.395 . S
C1989 C1996 1.492 . S
C1990 C1991 1.392 . S
C1990 C1992 1.386 . S
C1991 C1989 1.393 . S
C1991 C1990 1.392 . S
C1991 H2008 0.930 . S
C1992 C1990 1.386 . S
C1992 C1994 1.395 . S
C1992 H2009 0.930 . S
C1993 C1989 1.395 . S
C1993 C1994 1.379 . S
C1993 H2010 0.930 . S
C1994 C1992 1.395 . S
C1994 C1993 1.379 . S
C1994 H2011 0.930 . S
C1995 O1978 1.264 . S
C1995 O1979 1.254 . S
C1996 Eu1932 2.848 . S
C1996 O1976 1.257 . S
C1996 O1981 1.249 . S
C1996 C1989 1.492 . S
C1997 H1962 0.931 . S
C1997 C1975 1.420 . S
C1997 C1998 1.351 . S
C1998 H1960 0.930 . S
C1998 C1966 1.423 . S
C1998 C1997 1.351 . S
C1999 O1983 1.276 . S
C1999 O1986 1.235 . S
C2000 C2001 1.393 . S
C2000 C2004 1.395 . S
C2000 C2007 1.492 . S
C2001 C2000 1.393 . S
C2001 C2002 1.392 . S
C2001 H2012 0.930 . S
C2002 C2001 1.392 . S
C2002 C2003 1.386 . S
C2003 C2002 1.386 . S
C2003 C2005 1.395 . S
C2003 H2013 0.930 . S
C2004 C2000 1.395 . S
C2004 C2005 1.379 . S
C2004 H2014 0.930 . S
C2005 C2003 1.395 . S
C2005 C2004 1.379 . S
C2005 H2015 0.930 . S
C2006 O1984 1.264 . S
C2006 O1985 1.254 . S
C2007 Eu1943 2.848 . S
C2007 O1982 1.257 . S
C2007 O1987 1.249 . S
C2007 C2000 1.492 . S
H2008 C1991 0.930 . S
H2009 C1992 0.930 . S
H2010 C1993 0.930 . S
H2011 C1994 0.930 . S
H2012 C2001 0.930 . S
H2013 C2003 0.930 . S
H2014 C2004 0.930 . S
H2015 C2005 0.930 . S
Eu2016 N2047 2.657 . S
Eu2016 N2054 2.609 . S
Eu2016 O2060 2.558 . S
Eu2016 O2061 2.612 . S
Eu2016 O2063 2.339 . S
Eu2016 O2064 2.563 . S
Eu2016 O2065 2.419 . S
Eu2016 O2067 2.380 . S
Eu2016 O2068 2.432 . S
Eu2016 C2080 2.848 . S
C2017 C2020 1.429 . S
C2017 C2021 1.411 . S
C2017 N2024 1.377 . S
C2018 C2020 1.420 . S
C2018 C2022 1.423 . S
C2018 C2030 1.392 . S
C2019 C2021 1.420 . S
C2019 C2022 1.351 . S
C2019 H2042 0.931 . S
C2020 C2017 1.429 . S
C2020 C2018 1.420 . S
C2020 N2028 1.362 . S
C2021 C2017 1.411 . S
C2021 C2019 1.420 . S
C2021 C2026 1.395 . S
C2022 C2018 1.423 . S
C2022 C2019 1.351 . S
C2022 H2034 0.930 . S
C2023 C2025 1.400 . S
C2023 C2026 1.386 . S
C2023 H2035 0.930 . S
N2024 C2017 1.377 . S
N2024 C2025 1.321 . S
N2024 Eu2027 2.609 . S
C2025 C2023 1.400 . S
C2025 N2024 1.321 . S
C2025 H2032 0.930 . S
C2026 C2021 1.395 . S
C2026 C2023 1.386 . S
C2026 H2045 0.930 . S
Eu2027 N2024 2.609 . S
Eu2027 N2028 2.657 . S
Eu2027 O2061 2.380 . S
Eu2027 O2062 2.432 . S
Eu2027 O2066 2.558 . S
Eu2027 O2067 2.612 . S
Eu2027 O2069 2.339 . S
Eu2027 O2070 2.563 . S
Eu2027 O2071 2.419 . S
Eu2027 C2091 2.848 . S
N2028 C2020 1.362 . S
N2028 Eu2027 2.657 . S
N2028 C2029 1.334 . S
C2029 N2028 1.334 . S
C2029 C2031 1.413 . S
C2029 H2036 0.929 . S
C2030 C2018 1.392 . S
C2030 C2031 1.367 . S
C2030 H2038 0.930 . S
C2031 C2029 1.413 . S
C2031 C2030 1.367 . S
C2031 H2033 0.930 . S
H2032 C2025 0.930 . S
H2033 C2031 0.930 . S
H2034 C2022 0.930 . S
H2035 C2023 0.930 . S
H2036 C2029 0.929 . S
H2037 C2051 0.930 . S
H2038 C2030 0.930 . S
H2039 C2057 0.930 . S
H2040 C2048 0.929 . S
H2041 C2055 0.930 . S
H2042 C2019 0.931 . S
H2043 C2049 0.930 . S
H2044 C2082 0.930 . S
H2045 C2026 0.930 . S
H2046 C2081 0.931 . S
N2047 Eu2016 2.657 . S
N2047 C2048 1.334 . S
N2047 C2052 1.362 . S
C2048 H2040 0.929 . S
C2048 N2047 1.334 . S
C2048 C2051 1.413 . S
C2049 H2043 0.930 . S
C2049 C2050 1.392 . S
C2049 C2051 1.367 . S
C2050 C2049 1.392 . S
C2050 C2052 1.420 . S
C2050 C2082 1.423 . S
C2051 H2037 0.930 . S
C2051 C2048 1.413 . S
C2051 C2049 1.367 . S
C2052 N2047 1.362 . S
C2052 C2050 1.420 . S
C2052 C2056 1.429 . S
H2053 C2058 0.930 . S
N2054 Eu2016 2.609 . S
N2054 C2056 1.377 . S
N2054 C2057 1.321 . S
C2055 H2041 0.930 . S
C2055 C2057 1.400 . S
C2055 C2058 1.386 . S
C2056 C2052 1.429 . S
C2056 N2054 1.377 . S
C2056 C2059 1.411 . S
C2057 H2039 0.930 . S
C2057 N2054 1.321 . S
C2057 C2055 1.400 . S
C2058 H2053 0.930 . S
C2058 C2055 1.386 . S
C2058 C2059 1.395 . S
C2059 C2056 1.411 . S
C2059 C2058 1.395 . S
C2059 C2081 1.420 . S
O2060 Eu2016 2.558 . S
O2060 C2080 1.257 . S
O2061 Eu2016 2.612 . S
O2061 Eu2027 2.380 . S
O2061 C2072 1.276 . S
O2062 Eu2027 2.432 . S
O2062 C2079 1.264 . S
O2063 Eu2016 2.339 . S
O2063 C2079 1.254 . S
O2064 Eu2016 2.563 . S
O2064 C2072 1.235 . S
O2065 Eu2016 2.419 . S
O2065 C2080 1.249 . S
O2066 Eu2027 2.558 . S
O2066 C2091 1.257 . S
O2067 Eu2016 2.380 . S
O2067 Eu2027 2.612 . S
O2067 C2083 1.276 . S
O2068 Eu2016 2.432 . S
O2068 C2090 1.264 . S
O2069 Eu2027 2.339 . S
O2069 C2090 1.254 . S
O2070 Eu2027 2.563 . S
O2070 C2083 1.235 . S
O2071 Eu2027 2.419 . S
O2071 C2091 1.249 . S
C2072 O2061 1.276 . S
C2072 O2064 1.235 . S
C2073 C2075 1.393 . S
C2073 C2077 1.395 . S
C2073 C2080 1.492 1_556 S
C2074 C2075 1.392 . S
C2074 C2076 1.386 . S
C2075 C2073 1.393 . S
C2075 C2074 1.392 . S
C2075 H2092 0.930 . S
C2076 C2074 1.386 . S
C2076 C2078 1.395 . S
C2076 H2093 0.930 . S
C2077 C2073 1.395 . S
C2077 C2078 1.379 . S
C2077 H2094 0.930 . S
C2078 C2076 1.395 . S
C2078 C2077 1.379 . S
C2078 H2095 0.930 . S
C2079 O2062 1.264 . S
C2079 O2063 1.254 . S
C2080 Eu2016 2.848 . S
C2080 O2060 1.257 . S
C2080 O2065 1.249 . S
C2080 C2073 1.492 1_554 S
C2081 H2046 0.931 . S
C2081 C2059 1.420 . S
C2081 C2082 1.351 . S
C2082 H2044 0.930 . S
C2082 C2050 1.423 . S
C2082 C2081 1.351 . S
C2083 O2067 1.276 . S
C2083 O2070 1.235 . S
C2084 C2085 1.393 . S
C2084 C2088 1.395 . S
C2084 C2091 1.492 . S
C2085 C2084 1.393 . S
C2085 C2086 1.392 . S
C2085 H2096 0.930 . S
C2086 C2085 1.392 . S
C2086 C2087 1.386 . S
C2087 C2086 1.386 . S
C2087 C2089 1.395 . S
C2087 H2097 0.930 . S
C2088 C2084 1.395 . S
C2088 C2089 1.379 . S
C2088 H2098 0.930 . S
C2089 C2087 1.395 . S
C2089 C2088 1.379 . S
C2089 H2099 0.930 . S
C2090 O2068 1.264 . S
C2090 O2069 1.254 . S
C2091 Eu2027 2.848 . S
C2091 O2066 1.257 . S
C2091 O2071 1.249 . S
C2091 C2084 1.492 . S
H2092 C2075 0.930 . S
H2093 C2076 0.930 . S
H2094 C2077 0.930 . S
H2095 C2078 0.930 . S
H2096 C2085 0.930 . S
H2097 C2087 0.930 . S
H2098 C2088 0.930 . S
H2099 C2089 0.930 . S
Eu2100 N2131 2.657 . S
Eu2100 N2138 2.609 . S
Eu2100 O2144 2.558 . S
Eu2100 O2145 2.612 . S
Eu2100 O2147 2.339 . S
Eu2100 O2148 2.563 . S
Eu2100 O2149 2.419 . S
Eu2100 O2151 2.380 . S
Eu2100 O2152 2.432 . S
Eu2100 C2164 2.848 . S
C2101 C2104 1.429 . S
C2101 C2105 1.411 . S
C2101 N2108 1.377 . S
C2102 C2104 1.420 . S
C2102 C2106 1.423 . S
C2102 C2114 1.392 . S
C2103 C2105 1.420 . S
C2103 C2106 1.351 . S
C2103 H2126 0.931 . S
C2104 C2101 1.429 . S
C2104 C2102 1.420 . S
C2104 N2112 1.362 . S
C2105 C2101 1.411 . S
C2105 C2103 1.420 . S
C2105 C2110 1.395 . S
C2106 C2102 1.423 . S
C2106 C2103 1.351 . S
C2106 H2118 0.930 . S
C2107 C2109 1.400 . S
C2107 C2110 1.386 . S
C2107 H2119 0.930 . S
N2108 C2101 1.377 . S
N2108 C2109 1.321 . S
N2108 Eu2111 2.609 . S
C2109 C2107 1.400 . S
C2109 N2108 1.321 . S
C2109 H2116 0.930 . S
C2110 C2105 1.395 . S
C2110 C2107 1.386 . S
C2110 H2129 0.930 . S
Eu2111 N2108 2.609 . S
Eu2111 N2112 2.657 . S
Eu2111 O2145 2.380 . S
Eu2111 O2146 2.432 . S
Eu2111 O2150 2.558 . S
Eu2111 O2151 2.612 . S
Eu2111 O2153 2.339 . S
Eu2111 O2154 2.563 . S
Eu2111 O2155 2.419 . S
Eu2111 C2175 2.848 . S
N2112 C2104 1.362 . S
N2112 Eu2111 2.657 . S
N2112 C2113 1.334 . S
C2113 N2112 1.334 . S
C2113 C2115 1.413 . S
C2113 H2120 0.929 . S
C2114 C2102 1.392 . S
C2114 C2115 1.367 . S
C2114 H2122 0.930 . S
C2115 C2113 1.413 . S
C2115 C2114 1.367 . S
C2115 H2117 0.930 . S
H2116 C2109 0.930 . S
H2117 C2115 0.930 . S
H2118 C2106 0.930 . S
H2119 C2107 0.930 . S
H2120 C2113 0.929 . S
H2121 C2135 0.930 . S
H2122 C2114 0.930 . S
H2123 C2141 0.930 . S
H2124 C2132 0.929 . S
H2125 C2139 0.930 . S
H2126 C2103 0.931 . S
H2127 C2133 0.930 . S
H2128 C2166 0.930 . S
H2129 C2110 0.930 . S
H2130 C2165 0.931 . S
N2131 Eu2100 2.657 . S
N2131 C2132 1.334 . S
N2131 C2136 1.362 . S
C2132 H2124 0.929 . S
C2132 N2131 1.334 . S
C2132 C2135 1.413 . S
C2133 H2127 0.930 . S
C2133 C2134 1.392 . S
C2133 C2135 1.367 . S
C2134 C2133 1.392 . S
C2134 C2136 1.420 . S
C2134 C2166 1.423 . S
C2135 H2121 0.930 . S
C2135 C2132 1.413 . S
C2135 C2133 1.367 . S
C2136 N2131 1.362 . S
C2136 C2134 1.420 . S
C2136 C2140 1.429 . S
H2137 C2142 0.930 . S
N2138 Eu2100 2.609 . S
N2138 C2140 1.377 . S
N2138 C2141 1.321 . S
C2139 H2125 0.930 . S
C2139 C2141 1.400 . S
C2139 C2142 1.386 . S
C2140 C2136 1.429 . S
C2140 N2138 1.377 . S
C2140 C2143 1.411 . S
C2141 H2123 0.930 . S
C2141 N2138 1.321 . S
C2141 C2139 1.400 . S
C2142 H2137 0.930 . S
C2142 C2139 1.386 . S
C2142 C2143 1.395 . S
C2143 C2140 1.411 . S
C2143 C2142 1.395 . S
C2143 C2165 1.420 . S
O2144 Eu2100 2.558 . S
O2144 C2164 1.257 . S
O2145 Eu2100 2.612 . S
O2145 Eu2111 2.380 . S
O2145 C2156 1.276 . S
O2146 Eu2111 2.432 . S
O2146 C2163 1.264 . S
O2147 Eu2100 2.339 . S
O2147 C2163 1.254 . S
O2148 Eu2100 2.563 . S
O2148 C2156 1.235 . S
O2149 Eu2100 2.419 . S
O2149 C2164 1.249 . S
O2150 Eu2111 2.558 . S
O2150 C2175 1.257 . S
O2151 Eu2100 2.380 . S
O2151 Eu2111 2.612 . S
O2151 C2167 1.276 . S
O2152 Eu2100 2.432 . S
O2152 C2174 1.264 . S
O2153 Eu2111 2.339 . S
O2153 C2174 1.254 . S
O2154 Eu2111 2.563 . S
O2154 C2167 1.235 . S
O2155 Eu2111 2.419 . S
O2155 C2175 1.249 . S
C2156 O2145 1.276 . S
C2156 O2148 1.235 . S
C2157 C2159 1.393 . S
C2157 C2161 1.395 . S
C2157 C2164 1.492 1_556 S
C2158 C2159 1.392 . S
C2158 C2160 1.386 . S
C2159 C2157 1.393 . S
C2159 C2158 1.392 . S
C2159 H2176 0.930 . S
C2160 C2158 1.386 . S
C2160 C2162 1.395 . S
C2160 H2177 0.930 . S
C2161 C2157 1.395 . S
C2161 C2162 1.379 . S
C2161 H2178 0.930 . S
C2162 C2160 1.395 . S
C2162 C2161 1.379 . S
C2162 H2179 0.930 . S
C2163 O2146 1.264 . S
C2163 O2147 1.254 . S
C2164 Eu2100 2.848 . S
C2164 O2144 1.257 . S
C2164 O2149 1.249 . S
C2164 C2157 1.492 1_554 S
C2165 H2130 0.931 . S
C2165 C2143 1.420 . S
C2165 C2166 1.351 . S
C2166 H2128 0.930 . S
C2166 C2134 1.423 . S
C2166 C2165 1.351 . S
C2167 O2151 1.276 . S
C2167 O2154 1.235 . S
C2168 C2169 1.393 . S
C2168 C2172 1.395 . S
C2168 C2175 1.492 . S
C2169 C2168 1.393 . S
C2169 C2170 1.392 . S
C2169 H2180 0.930 . S
C2170 C2169 1.392 . S
C2170 C2171 1.386 . S
C2171 C2170 1.386 . S
C2171 C2173 1.395 . S
C2171 H2181 0.930 . S
C2172 C2168 1.395 . S
C2172 C2173 1.379 . S
C2172 H2182 0.930 . S
C2173 C2171 1.395 . S
C2173 C2172 1.379 . S
C2173 H2183 0.930 . S
C2174 O2152 1.264 . S
C2174 O2153 1.254 . S
C2175 Eu2111 2.848 . S
C2175 O2150 1.257 . S
C2175 O2155 1.249 . S
C2175 C2168 1.492 . S
H2176 C2159 0.930 . S
H2177 C2160 0.930 . S
H2178 C2161 0.930 . S
H2179 C2162 0.930 . S
H2180 C2169 0.930 . S
H2181 C2171 0.930 . S
H2182 C2172 0.930 . S
H2183 C2173 0.930 . S
Eu2184 N2215 2.657 . S
Eu2184 N2222 2.609 . S
Eu2184 O2228 2.558 . S
Eu2184 O2229 2.612 . S
Eu2184 O2231 2.339 . S
Eu2184 O2232 2.563 . S
Eu2184 O2233 2.419 . S
Eu2184 O2235 2.380 1_554 S
Eu2184 O2236 2.432 . S
Eu2184 C2248 2.848 . S
C2185 C2188 1.429 . S
C2185 C2189 1.411 . S
C2185 N2192 1.377 . S
C2186 C2188 1.420 . S
C2186 C2190 1.423 . S
C2186 C2198 1.392 . S
C2187 C2189 1.420 . S
C2187 C2190 1.351 . S
C2187 H2210 0.931 . S
C2188 C2185 1.429 . S
C2188 C2186 1.420 . S
C2188 N2196 1.362 . S
C2189 C2185 1.411 . S
C2189 C2187 1.420 . S
C2189 C2194 1.395 . S
C2190 C2186 1.423 . S
C2190 C2187 1.351 . S
C2190 H2202 0.930 . S
C2191 C2193 1.400 . S
C2191 C2194 1.386 . S
C2191 H2203 0.930 . S
N2192 C2185 1.377 . S
N2192 C2193 1.321 . S
N2192 Eu2195 2.609 . S
C2193 C2191 1.400 . S
C2193 N2192 1.321 . S
C2193 H2200 0.930 . S
C2194 C2189 1.395 . S
C2194 C2191 1.386 . S
C2194 H2213 0.930 . S
Eu2195 N2192 2.609 . S
Eu2195 N2196 2.657 . S
Eu2195 O2229 2.380 1_556 S
Eu2195 O2230 2.432 1_556 S
Eu2195 O2234 2.558 . S
Eu2195 O2235 2.612 . S
Eu2195 O2237 2.339 . S
Eu2195 O2238 2.563 . S
Eu2195 O2239 2.419 . S
Eu2195 C2259 2.848 . S
N2196 C2188 1.362 . S
N2196 Eu2195 2.657 . S
N2196 C2197 1.334 . S
C2197 N2196 1.334 . S
C2197 C2199 1.413 . S
C2197 H2204 0.929 . S
C2198 C2186 1.392 . S
C2198 C2199 1.367 . S
C2198 H2206 0.930 . S
C2199 C2197 1.413 . S
C2199 C2198 1.367 . S
C2199 H2201 0.930 . S
H2200 C2193 0.930 . S
H2201 C2199 0.930 . S
H2202 C2190 0.930 . S
H2203 C2191 0.930 . S
H2204 C2197 0.929 . S
H2205 C2219 0.930 . S
H2206 C2198 0.930 . S
H2207 C2225 0.930 . S
H2208 C2216 0.929 . S
H2209 C2223 0.930 . S
H2210 C2187 0.931 . S
H2211 C2217 0.930 . S
H2212 C2250 0.930 . S
H2213 C2194 0.930 . S
H2214 C2249 0.931 . S
N2215 Eu2184 2.657 . S
N2215 C2216 1.334 . S
N2215 C2220 1.362 . S
C2216 H2208 0.929 . S
C2216 N2215 1.334 . S
C2216 C2219 1.413 . S
C2217 H2211 0.930 . S
C2217 C2218 1.392 . S
C2217 C2219 1.367 . S
C2218 C2217 1.392 . S
C2218 C2220 1.420 . S
C2218 C2250 1.423 . S
C2219 H2205 0.930 . S
C2219 C2216 1.413 . S
C2219 C2217 1.367 . S
C2220 N2215 1.362 . S
C2220 C2218 1.420 . S
C2220 C2224 1.429 . S
H2221 C2226 0.930 . S
N2222 Eu2184 2.609 . S
N2222 C2224 1.377 . S
N2222 C2225 1.321 . S
C2223 H2209 0.930 . S
C2223 C2225 1.400 . S
C2223 C2226 1.386 . S
C2224 C2220 1.429 . S
C2224 N2222 1.377 . S
C2224 C2227 1.411 . S
C2225 H2207 0.930 . S
C2225 N2222 1.321 . S
C2225 C2223 1.400 . S
C2226 H2221 0.930 . S
C2226 C2223 1.386 . S
C2226 C2227 1.395 . S
C2227 C2224 1.411 . S
C2227 C2226 1.395 . S
C2227 C2249 1.420 . S
O2228 Eu2184 2.558 . S
O2228 C2248 1.257 . S
O2229 Eu2184 2.612 . S
O2229 Eu2195 2.380 1_554 S
O2229 C2240 1.276 . S
O2230 Eu2195 2.432 1_554 S
O2230 C2247 1.264 . S
O2231 Eu2184 2.339 . S
O2231 C2247 1.254 . S
O2232 Eu2184 2.563 . S
O2232 C2240 1.235 . S
O2233 Eu2184 2.419 . S
O2233 C2248 1.249 . S
O2234 Eu2195 2.558 . S
O2234 C2259 1.257 . S
O2235 Eu2184 2.380 1_556 S
O2235 Eu2195 2.612 . S
O2235 C2251 1.276 . S
O2236 Eu2184 2.432 . S
O2236 C2258 1.264 1_554 S
O2237 Eu2195 2.339 . S
O2237 C2258 1.254 . S
O2238 Eu2195 2.563 . S
O2238 C2251 1.235 . S
O2239 Eu2195 2.419 . S
O2239 C2259 1.249 . S
C2240 O2229 1.276 . S
C2240 O2232 1.235 . S
C2241 C2243 1.393 . S
C2241 C2245 1.395 . S
C2241 C2248 1.492 . S
C2242 C2243 1.392 . S
C2242 C2244 1.386 . S
C2243 C2241 1.393 . S
C2243 C2242 1.392 . S
C2243 H2260 0.930 . S
C2244 C2242 1.386 . S
C2244 C2246 1.395 . S
C2244 H2261 0.930 . S
C2245 C2241 1.395 . S
C2245 C2246 1.379 . S
C2245 H2262 0.930 . S
C2246 C2244 1.395 . S
C2246 C2245 1.379 . S
C2246 H2263 0.930 . S
C2247 O2230 1.264 . S
C2247 O2231 1.254 . S
C2248 Eu2184 2.848 . S
C2248 O2228 1.257 . S
C2248 O2233 1.249 . S
C2248 C2241 1.492 . S
C2249 H2214 0.931 . S
C2249 C2227 1.420 . S
C2249 C2250 1.351 . S
C2250 H2212 0.930 . S
C2250 C2218 1.423 . S
C2250 C2249 1.351 . S
C2251 O2235 1.276 . S
C2251 O2238 1.235 . S
C2252 C2253 1.393 . S
C2252 C2256 1.395 . S
C2252 C2259 1.492 . S
C2253 C2252 1.393 . S
C2253 C2254 1.392 . S
C2253 H2264 0.930 . S
C2254 C2253 1.392 . S
C2254 C2255 1.386 . S
C2255 C2254 1.386 . S
C2255 C2257 1.395 . S
C2255 H2265 0.930 . S
C2256 C2252 1.395 . S
C2256 C2257 1.379 . S
C2256 H2266 0.930 . S
C2257 C2255 1.395 . S
C2257 C2256 1.379 . S
C2257 H2267 0.930 . S
C2258 O2236 1.264 1_556 S
C2258 O2237 1.254 . S
C2259 Eu2195 2.848 . S
C2259 O2234 1.257 . S
C2259 O2239 1.249 . S
C2259 C2252 1.492 . S
H2260 C2243 0.930 . S
H2261 C2244 0.930 . S
H2262 C2245 0.930 . S
H2263 C2246 0.930 . S
H2264 C2253 0.930 . S
H2265 C2255 0.930 . S
H2266 C2256 0.930 . S
H2267 C2257 0.930 . S
Eu2268 N2299 2.657 . S
Eu2268 N2306 2.609 . S
Eu2268 O2312 2.558 . S
Eu2268 O2313 2.612 . S
Eu2268 O2315 2.339 . S
Eu2268 O2316 2.563 . S
Eu2268 O2317 2.419 . S
Eu2268 O2319 2.380 1_554 S
Eu2268 O2320 2.432 . S
Eu2268 C2332 2.848 . S
C2269 C2272 1.429 . S
C2269 C2273 1.411 . S
C2269 N2276 1.377 . S
C2270 C2272 1.420 . S
C2270 C2274 1.423 . S
C2270 C2282 1.392 . S
C2271 C2273 1.420 . S
C2271 C2274 1.351 . S
C2271 H2294 0.931 . S
C2272 C2269 1.429 . S
C2272 C2270 1.420 . S
C2272 N2280 1.362 . S
C2273 C2269 1.411 . S
C2273 C2271 1.420 . S
C2273 C2278 1.395 . S
C2274 C2270 1.423 . S
C2274 C2271 1.351 . S
C2274 H2286 0.930 . S
C2275 C2277 1.400 . S
C2275 C2278 1.386 . S
C2275 H2287 0.930 . S
N2276 C2269 1.377 . S
N2276 C2277 1.321 . S
N2276 Eu2279 2.609 . S
C2277 C2275 1.400 . S
C2277 N2276 1.321 . S
C2277 H2284 0.930 . S
C2278 C2273 1.395 . S
C2278 C2275 1.386 . S
C2278 H2297 0.930 . S
Eu2279 N2276 2.609 . S
Eu2279 N2280 2.657 . S
Eu2279 O2313 2.380 1_556 S
Eu2279 O2314 2.432 1_556 S
Eu2279 O2318 2.558 . S
Eu2279 O2319 2.612 . S
Eu2279 O2321 2.339 . S
Eu2279 O2322 2.563 . S
Eu2279 O2323 2.419 . S
Eu2279 C2343 2.848 . S
N2280 C2272 1.362 . S
N2280 Eu2279 2.657 . S
N2280 C2281 1.334 . S
C2281 N2280 1.334 . S
C2281 C2283 1.413 . S
C2281 H2288 0.929 . S
C2282 C2270 1.392 . S
C2282 C2283 1.367 . S
C2282 H2290 0.930 . S
C2283 C2281 1.413 . S
C2283 C2282 1.367 . S
C2283 H2285 0.930 . S
H2284 C2277 0.930 . S
H2285 C2283 0.930 . S
H2286 C2274 0.930 . S
H2287 C2275 0.930 . S
H2288 C2281 0.929 . S
H2289 C2303 0.930 . S
H2290 C2282 0.930 . S
H2291 C2309 0.930 . S
H2292 C2300 0.929 . S
H2293 C2307 0.930 . S
H2294 C2271 0.931 . S
H2295 C2301 0.930 . S
H2296 C2334 0.930 . S
H2297 C2278 0.930 . S
H2298 C2333 0.931 . S
N2299 Eu2268 2.657 . S
N2299 C2300 1.334 . S
N2299 C2304 1.362 . S
C2300 H2292 0.929 . S
C2300 N2299 1.334 . S
C2300 C2303 1.413 . S
C2301 H2295 0.930 . S
C2301 C2302 1.392 . S
C2301 C2303 1.367 . S
C2302 C2301 1.392 . S
C2302 C2304 1.420 . S
C2302 C2334 1.423 . S
C2303 H2289 0.930 . S
C2303 C2300 1.413 . S
C2303 C2301 1.367 . S
C2304 N2299 1.362 . S
C2304 C2302 1.420 . S
C2304 C2308 1.429 . S
H2305 C2310 0.930 . S
N2306 Eu2268 2.609 . S
N2306 C2308 1.377 . S
N2306 C2309 1.321 . S
C2307 H2293 0.930 . S
C2307 C2309 1.400 . S
C2307 C2310 1.386 . S
C2308 C2304 1.429 . S
C2308 N2306 1.377 . S
C2308 C2311 1.411 . S
C2309 H2291 0.930 . S
C2309 N2306 1.321 . S
C2309 C2307 1.400 . S
C2310 H2305 0.930 . S
C2310 C2307 1.386 . S
C2310 C2311 1.395 . S
C2311 C2308 1.411 . S
C2311 C2310 1.395 . S
C2311 C2333 1.420 . S
O2312 Eu2268 2.558 . S
O2312 C2332 1.257 . S
O2313 Eu2268 2.612 . S
O2313 Eu2279 2.380 1_554 S
O2313 C2324 1.276 . S
O2314 Eu2279 2.432 1_554 S
O2314 C2331 1.264 . S
O2315 Eu2268 2.339 . S
O2315 C2331 1.254 . S
O2316 Eu2268 2.563 . S
O2316 C2324 1.235 . S
O2317 Eu2268 2.419 . S
O2317 C2332 1.249 . S
O2318 Eu2279 2.558 . S
O2318 C2343 1.257 . S
O2319 Eu2268 2.380 1_556 S
O2319 Eu2279 2.612 . S
O2319 C2335 1.276 . S
O2320 Eu2268 2.432 . S
O2320 C2342 1.264 1_554 S
O2321 Eu2279 2.339 . S
O2321 C2342 1.254 . S
O2322 Eu2279 2.563 . S
O2322 C2335 1.235 . S
O2323 Eu2279 2.419 . S
O2323 C2343 1.249 . S
C2324 O2313 1.276 . S
C2324 O2316 1.235 . S
C2325 C2327 1.393 . S
C2325 C2329 1.395 . S
C2325 C2332 1.492 . S
C2326 C2327 1.392 . S
C2326 C2328 1.386 . S
C2327 C2325 1.393 . S
C2327 C2326 1.392 . S
C2327 H2344 0.930 . S
C2328 C2326 1.386 . S
C2328 C2330 1.395 . S
C2328 H2345 0.930 . S
C2329 C2325 1.395 . S
C2329 C2330 1.379 . S
C2329 H2346 0.930 . S
C2330 C2328 1.395 . S
C2330 C2329 1.379 . S
C2330 H2347 0.930 . S
C2331 O2314 1.264 . S
C2331 O2315 1.254 . S
C2332 Eu2268 2.848 . S
C2332 O2312 1.257 . S
C2332 O2317 1.249 . S
C2332 C2325 1.492 . S
C2333 H2298 0.931 . S
C2333 C2311 1.420 . S
C2333 C2334 1.351 . S
C2334 H2296 0.930 . S
C2334 C2302 1.423 . S
C2334 C2333 1.351 . S
C2335 O2319 1.276 . S
C2335 O2322 1.235 . S
C2336 C2337 1.393 . S
C2336 C2340 1.395 . S
C2336 C2343 1.492 . S
C2337 C2336 1.393 . S
C2337 C2338 1.392 . S
C2337 H2348 0.930 . S
C2338 C2337 1.392 . S
C2338 C2339 1.386 . S
C2339 C2338 1.386 . S
C2339 C2341 1.395 . S
C2339 H2349 0.930 . S
C2340 C2336 1.395 . S
C2340 C2341 1.379 . S
C2340 H2350 0.930 . S
C2341 C2339 1.395 . S
C2341 C2340 1.379 . S
C2341 H2351 0.930 . S
C2342 O2320 1.264 1_556 S
C2342 O2321 1.254 . S
C2343 Eu2279 2.848 . S
C2343 O2318 1.257 . S
C2343 O2323 1.249 . S
C2343 C2336 1.492 . S
H2344 C2327 0.930 . S
H2345 C2328 0.930 . S
H2346 C2329 0.930 . S
H2347 C2330 0.930 . S
H2348 C2337 0.930 . S
H2349 C2339 0.930 . S
H2350 C2340 0.930 . S
H2351 C2341 0.930 . S
Eu2352 N2383 2.657 . S
Eu2352 N2390 2.609 . S
Eu2352 O2396 2.558 . S
Eu2352 O2397 2.612 . S
Eu2352 O2399 2.339 . S
Eu2352 O2400 2.563 . S
Eu2352 O2401 2.419 . S
Eu2352 O2403 2.380 . S
Eu2352 O2404 2.432 . S
Eu2352 C2416 2.848 . S
C2353 C2356 1.429 . S
C2353 C2357 1.411 . S
C2353 N2360 1.377 . S
C2354 C2356 1.420 . S
C2354 C2358 1.423 . S
C2354 C2366 1.392 . S
C2355 C2357 1.420 . S
C2355 C2358 1.351 . S
C2355 H2378 0.931 . S
C2356 C2353 1.429 . S
C2356 C2354 1.420 . S
C2356 N2364 1.362 . S
C2357 C2353 1.411 . S
C2357 C2355 1.420 . S
C2357 C2362 1.395 . S
C2358 C2354 1.423 . S
C2358 C2355 1.351 . S
C2358 H2370 0.930 . S
C2359 C2361 1.400 . S
C2359 C2362 1.386 . S
C2359 H2371 0.930 . S
N2360 C2353 1.377 . S
N2360 C2361 1.321 . S
N2360 Eu2363 2.609 . S
C2361 C2359 1.400 . S
C2361 N2360 1.321 . S
C2361 H2368 0.930 . S
C2362 C2357 1.395 . S
C2362 C2359 1.386 . S
C2362 H2381 0.930 . S
Eu2363 N2360 2.609 . S
Eu2363 N2364 2.657 . S
Eu2363 O2397 2.380 . S
Eu2363 O2398 2.432 . S
Eu2363 O2402 2.558 . S
Eu2363 O2403 2.612 . S
Eu2363 O2405 2.339 . S
Eu2363 O2406 2.563 . S
Eu2363 O2407 2.419 . S
Eu2363 C2427 2.848 . S
N2364 C2356 1.362 . S
N2364 Eu2363 2.657 . S
N2364 C2365 1.334 . S
C2365 N2364 1.334 . S
C2365 C2367 1.413 . S
C2365 H2372 0.929 . S
C2366 C2354 1.392 . S
C2366 C2367 1.367 . S
C2366 H2374 0.930 . S
C2367 C2365 1.413 . S
C2367 C2366 1.367 . S
C2367 H2369 0.930 . S
H2368 C2361 0.930 . S
H2369 C2367 0.930 . S
H2370 C2358 0.930 . S
H2371 C2359 0.930 . S
H2372 C2365 0.929 . S
H2373 C2387 0.930 . S
H2374 C2366 0.930 . S
H2375 C2393 0.930 . S
H2376 C2384 0.929 . S
H2377 C2391 0.930 . S
H2378 C2355 0.931 . S
H2379 C2385 0.930 . S
H2380 C2418 0.930 . S
H2381 C2362 0.930 . S
H2382 C2417 0.931 . S
N2383 Eu2352 2.657 . S
N2383 C2384 1.334 . S
N2383 C2388 1.362 . S
C2384 H2376 0.929 . S
C2384 N2383 1.334 . S
C2384 C2387 1.413 . S
C2385 H2379 0.930 . S
C2385 C2386 1.392 . S
C2385 C2387 1.367 . S
C2386 C2385 1.392 . S
C2386 C2388 1.420 . S
C2386 C2418 1.423 . S
C2387 H2373 0.930 . S
C2387 C2384 1.413 . S
C2387 C2385 1.367 . S
C2388 N2383 1.362 . S
C2388 C2386 1.420 . S
C2388 C2392 1.429 . S
H2389 C2394 0.930 . S
N2390 Eu2352 2.609 . S
N2390 C2392 1.377 . S
N2390 C2393 1.321 . S
C2391 H2377 0.930 . S
C2391 C2393 1.400 . S
C2391 C2394 1.386 . S
C2392 C2388 1.429 . S
C2392 N2390 1.377 . S
C2392 C2395 1.411 . S
C2393 H2375 0.930 . S
C2393 N2390 1.321 . S
C2393 C2391 1.400 . S
C2394 H2389 0.930 . S
C2394 C2391 1.386 . S
C2394 C2395 1.395 . S
C2395 C2392 1.411 . S
C2395 C2394 1.395 . S
C2395 C2417 1.420 . S
O2396 Eu2352 2.558 . S
O2396 C2416 1.257 . S
O2397 Eu2352 2.612 . S
O2397 Eu2363 2.380 . S
O2397 C2408 1.276 . S
O2398 Eu2363 2.432 . S
O2398 C2415 1.264 . S
O2399 Eu2352 2.339 . S
O2399 C2415 1.254 . S
O2400 Eu2352 2.563 . S
O2400 C2408 1.235 . S
O2401 Eu2352 2.419 . S
O2401 C2416 1.249 . S
O2402 Eu2363 2.558 . S
O2402 C2427 1.257 . S
O2403 Eu2352 2.380 . S
O2403 Eu2363 2.612 . S
O2403 C2419 1.276 . S
O2404 Eu2352 2.432 . S
O2404 C2426 1.264 . S
O2405 Eu2363 2.339 . S
O2405 C2426 1.254 . S
O2406 Eu2363 2.563 . S
O2406 C2419 1.235 . S
O2407 Eu2363 2.419 . S
O2407 C2427 1.249 . S
C2408 O2397 1.276 . S
C2408 O2400 1.235 . S
C2409 C2411 1.393 . S
C2409 C2413 1.395 . S
C2409 C2416 1.492 . S
C2410 C2411 1.392 . S
C2410 C2412 1.386 . S
C2411 C2409 1.393 . S
C2411 C2410 1.392 . S
C2411 H2428 0.930 . S
C2412 C2410 1.386 . S
C2412 C2414 1.395 . S
C2412 H2429 0.930 . S
C2413 C2409 1.395 . S
C2413 C2414 1.379 . S
C2413 H2430 0.930 . S
C2414 C2412 1.395 . S
C2414 C2413 1.379 . S
C2414 H2431 0.930 . S
C2415 O2398 1.264 . S
C2415 O2399 1.254 . S
C2416 Eu2352 2.848 . S
C2416 O2396 1.257 . S
C2416 O2401 1.249 . S
C2416 C2409 1.492 . S
C2417 H2382 0.931 . S
C2417 C2395 1.420 . S
C2417 C2418 1.351 . S
C2418 H2380 0.930 . S
C2418 C2386 1.423 . S
C2418 C2417 1.351 . S
C2419 O2403 1.276 . S
C2419 O2406 1.235 . S
C2420 C2421 1.393 . S
C2420 C2424 1.395 . S
C2420 C2427 1.492 1_554 S
C2421 C2420 1.393 . S
C2421 C2422 1.392 . S
C2421 H2432 0.930 . S
C2422 C2421 1.392 . S
C2422 C2423 1.386 . S
C2423 C2422 1.386 . S
C2423 C2425 1.395 . S
C2423 H2433 0.930 . S
C2424 C2420 1.395 . S
C2424 C2425 1.379 . S
C2424 H2434 0.930 . S
C2425 C2423 1.395 . S
C2425 C2424 1.379 . S
C2425 H2435 0.930 . S
C2426 O2404 1.264 . S
C2426 O2405 1.254 . S
C2427 Eu2363 2.848 . S
C2427 O2402 1.257 . S
C2427 O2407 1.249 . S
C2427 C2420 1.492 1_556 S
H2428 C2411 0.930 . S
H2429 C2412 0.930 . S
H2430 C2413 0.930 . S
H2431 C2414 0.930 . S
H2432 C2421 0.930 . S
H2433 C2423 0.930 . S
H2434 C2424 0.930 . S
H2435 C2425 0.930 . S
Eu2436 N2467 2.657 . S
Eu2436 N2474 2.609 . S
Eu2436 O2480 2.558 . S
Eu2436 O2481 2.612 . S
Eu2436 O2483 2.339 . S
Eu2436 O2484 2.563 . S
Eu2436 O2485 2.419 . S
Eu2436 O2487 2.380 . S
Eu2436 O2488 2.432 . S
Eu2436 C2500 2.848 . S
C2437 C2440 1.429 . S
C2437 C2441 1.411 . S
C2437 N2444 1.377 . S
C2438 C2440 1.420 . S
C2438 C2442 1.423 . S
C2438 C2450 1.392 . S
C2439 C2441 1.420 . S
C2439 C2442 1.351 . S
C2439 H2462 0.931 . S
C2440 C2437 1.429 . S
C2440 C2438 1.420 . S
C2440 N2448 1.362 . S
C2441 C2437 1.411 . S
C2441 C2439 1.420 . S
C2441 C2446 1.395 . S
C2442 C2438 1.423 . S
C2442 C2439 1.351 . S
C2442 H2454 0.930 . S
C2443 C2445 1.400 . S
C2443 C2446 1.386 . S
C2443 H2455 0.930 . S
N2444 C2437 1.377 . S
N2444 C2445 1.321 . S
N2444 Eu2447 2.609 . S
C2445 C2443 1.400 . S
C2445 N2444 1.321 . S
C2445 H2452 0.930 . S
C2446 C2441 1.395 . S
C2446 C2443 1.386 . S
C2446 H2465 0.930 . S
Eu2447 N2444 2.609 . S
Eu2447 N2448 2.657 . S
Eu2447 O2481 2.380 . S
Eu2447 O2482 2.432 . S
Eu2447 O2486 2.558 . S
Eu2447 O2487 2.612 . S
Eu2447 O2489 2.339 . S
Eu2447 O2490 2.563 . S
Eu2447 O2491 2.419 . S
Eu2447 C2511 2.848 . S
N2448 C2440 1.362 . S
N2448 Eu2447 2.657 . S
N2448 C2449 1.334 . S
C2449 N2448 1.334 . S
C2449 C2451 1.413 . S
C2449 H2456 0.929 . S
C2450 C2438 1.392 . S
C2450 C2451 1.367 . S
C2450 H2458 0.930 . S
C2451 C2449 1.413 . S
C2451 C2450 1.367 . S
C2451 H2453 0.930 . S
H2452 C2445 0.930 . S
H2453 C2451 0.930 . S
H2454 C2442 0.930 . S
H2455 C2443 0.930 . S
H2456 C2449 0.929 . S
H2457 C2471 0.930 . S
H2458 C2450 0.930 . S
H2459 C2477 0.930 . S
H2460 C2468 0.929 . S
H2461 C2475 0.930 . S
H2462 C2439 0.931 . S
H2463 C2469 0.930 . S
H2464 C2502 0.930 . S
H2465 C2446 0.930 . S
H2466 C2501 0.931 . S
N2467 Eu2436 2.657 . S
N2467 C2468 1.334 . S
N2467 C2472 1.362 . S
C2468 H2460 0.929 . S
C2468 N2467 1.334 . S
C2468 C2471 1.413 . S
C2469 H2463 0.930 . S
C2469 C2470 1.392 . S
C2469 C2471 1.367 . S
C2470 C2469 1.392 . S
C2470 C2472 1.420 . S
C2470 C2502 1.423 . S
C2471 H2457 0.930 . S
C2471 C2468 1.413 . S
C2471 C2469 1.367 . S
C2472 N2467 1.362 . S
C2472 C2470 1.420 . S
C2472 C2476 1.429 . S
H2473 C2478 0.930 . S
N2474 Eu2436 2.609 . S
N2474 C2476 1.377 . S
N2474 C2477 1.321 . S
C2475 H2461 0.930 . S
C2475 C2477 1.400 . S
C2475 C2478 1.386 . S
C2476 C2472 1.429 . S
C2476 N2474 1.377 . S
C2476 C2479 1.411 . S
C2477 H2459 0.930 . S
C2477 N2474 1.321 . S
C2477 C2475 1.400 . S
C2478 H2473 0.930 . S
C2478 C2475 1.386 . S
C2478 C2479 1.395 . S
C2479 C2476 1.411 . S
C2479 C2478 1.395 . S
C2479 C2501 1.420 . S
O2480 Eu2436 2.558 . S
O2480 C2500 1.257 . S
O2481 Eu2436 2.612 . S
O2481 Eu2447 2.380 . S
O2481 C2492 1.276 . S
O2482 Eu2447 2.432 . S
O2482 C2499 1.264 . S
O2483 Eu2436 2.339 . S
O2483 C2499 1.254 . S
O2484 Eu2436 2.563 . S
O2484 C2492 1.235 . S
O2485 Eu2436 2.419 . S
O2485 C2500 1.249 . S
O2486 Eu2447 2.558 . S
O2486 C2511 1.257 . S
O2487 Eu2436 2.380 . S
O2487 Eu2447 2.612 . S
O2487 C2503 1.276 . S
O2488 Eu2436 2.432 . S
O2488 C2510 1.264 . S
O2489 Eu2447 2.339 . S
O2489 C2510 1.254 . S
O2490 Eu2447 2.563 . S
O2490 C2503 1.235 . S
O2491 Eu2447 2.419 . S
O2491 C2511 1.249 . S
C2492 O2481 1.276 . S
C2492 O2484 1.235 . S
C2493 C2495 1.393 . S
C2493 C2497 1.395 . S
C2493 C2500 1.492 . S
C2494 C2495 1.392 . S
C2494 C2496 1.386 . S
C2495 C2493 1.393 . S
C2495 C2494 1.392 . S
C2495 H2512 0.930 . S
C2496 C2494 1.386 . S
C2496 C2498 1.395 . S
C2496 H2513 0.930 . S
C2497 C2493 1.395 . S
C2497 C2498 1.379 . S
C2497 H2514 0.930 . S
C2498 C2496 1.395 . S
C2498 C2497 1.379 . S
C2498 H2515 0.930 . S
C2499 O2482 1.264 . S
C2499 O2483 1.254 . S
C2500 Eu2436 2.848 . S
C2500 O2480 1.257 . S
C2500 O2485 1.249 . S
C2500 C2493 1.492 . S
C2501 H2466 0.931 . S
C2501 C2479 1.420 . S
C2501 C2502 1.351 . S
C2502 H2464 0.930 . S
C2502 C2470 1.423 . S
C2502 C2501 1.351 . S
C2503 O2487 1.276 . S
C2503 O2490 1.235 . S
C2504 C2505 1.393 . S
C2504 C2508 1.395 . S
C2504 C2511 1.492 1_554 S
C2505 C2504 1.393 . S
C2505 C2506 1.392 . S
C2505 H2516 0.930 . S
C2506 C2505 1.392 . S
C2506 C2507 1.386 . S
C2507 C2506 1.386 . S
C2507 C2509 1.395 . S
C2507 H2517 0.930 . S
C2508 C2504 1.395 . S
C2508 C2509 1.379 . S
C2508 H2518 0.930 . S
C2509 C2507 1.395 . S
C2509 C2508 1.379 . S
C2509 H2519 0.930 . S
C2510 O2488 1.264 . S
C2510 O2489 1.254 . S
C2511 Eu2447 2.848 . S
C2511 O2486 1.257 . S
C2511 O2491 1.249 . S
C2511 C2504 1.492 1_556 S
H2512 C2495 0.930 . S
H2513 C2496 0.930 . S
H2514 C2497 0.930 . S
H2515 C2498 0.930 . S
H2516 C2505 0.930 . S
H2517 C2507 0.930 . S
H2518 C2508 0.930 . S
H2519 C2509 0.930 . S
Eu2520 N2551 2.657 . S
Eu2520 N2558 2.609 . S
Eu2520 O2564 2.558 . S
Eu2520 O2565 2.612 . S
Eu2520 O2567 2.339 . S
Eu2520 O2568 2.563 . S
Eu2520 O2569 2.419 . S
Eu2520 O2571 2.380 1_554 S
Eu2520 O2572 2.432 1_554 S
Eu2520 C2584 2.848 . S
C2521 C2524 1.429 . S
C2521 C2525 1.411 . S
C2521 N2528 1.377 . S
C2522 C2524 1.420 . S
C2522 C2526 1.423 . S
C2522 C2534 1.392 . S
C2523 C2525 1.420 . S
C2523 C2526 1.351 . S
C2523 H2546 0.931 . S
C2524 C2521 1.429 . S
C2524 C2522 1.420 . S
C2524 N2532 1.362 . S
C2525 C2521 1.411 . S
C2525 C2523 1.420 . S
C2525 C2530 1.395 . S
C2526 C2522 1.423 . S
C2526 C2523 1.351 . S
C2526 H2538 0.930 . S
C2527 C2529 1.400 . S
C2527 C2530 1.386 . S
C2527 H2539 0.930 . S
N2528 C2521 1.377 . S
N2528 C2529 1.321 . S
N2528 Eu2531 2.609 . S
C2529 C2527 1.400 . S
C2529 N2528 1.321 . S
C2529 H2536 0.930 . S
C2530 C2525 1.395 . S
C2530 C2527 1.386 . S
C2530 H2549 0.930 . S
Eu2531 N2528 2.609 . S
Eu2531 N2532 2.657 . S
Eu2531 O2565 2.380 1_556 S
Eu2531 O2566 2.432 . S
Eu2531 O2570 2.558 . S
Eu2531 O2571 2.612 . S
Eu2531 O2573 2.339 . S
Eu2531 O2574 2.563 . S
Eu2531 O2575 2.419 . S
Eu2531 C2595 2.848 . S
N2532 C2524 1.362 . S
N2532 Eu2531 2.657 . S
N2532 C2533 1.334 . S
C2533 N2532 1.334 . S
C2533 C2535 1.413 . S
C2533 H2540 0.929 . S
C2534 C2522 1.392 . S
C2534 C2535 1.367 . S
C2534 H2542 0.930 . S
C2535 C2533 1.413 . S
C2535 C2534 1.367 . S
C2535 H2537 0.930 . S
H2536 C2529 0.930 . S
H2537 C2535 0.930 . S
H2538 C2526 0.930 . S
H2539 C2527 0.930 . S
H2540 C2533 0.929 . S
H2541 C2555 0.930 . S
H2542 C2534 0.930 . S
H2543 C2561 0.930 . S
H2544 C2552 0.929 . S
H2545 C2559 0.930 . S
H2546 C2523 0.931 . S
H2547 C2553 0.930 . S
H2548 C2586 0.930 . S
H2549 C2530 0.930 . S
H2550 C2585 0.931 . S
N2551 Eu2520 2.657 . S
N2551 C2552 1.334 . S
N2551 C2556 1.362 . S
C2552 H2544 0.929 . S
C2552 N2551 1.334 . S
C2552 C2555 1.413 . S
C2553 H2547 0.930 . S
C2553 C2554 1.392 . S
C2553 C2555 1.367 . S
C2554 C2553 1.392 . S
C2554 C2556 1.420 . S
C2554 C2586 1.423 . S
C2555 H2541 0.930 . S
C2555 C2552 1.413 . S
C2555 C2553 1.367 . S
C2556 N2551 1.362 . S
C2556 C2554 1.420 . S
C2556 C2560 1.429 . S
H2557 C2562 0.930 . S
N2558 Eu2520 2.609 . S
N2558 C2560 1.377 . S
N2558 C2561 1.321 . S
C2559 H2545 0.930 . S
C2559 C2561 1.400 . S
C2559 C2562 1.386 . S
C2560 C2556 1.429 . S
C2560 N2558 1.377 . S
C2560 C2563 1.411 . S
C2561 H2543 0.930 . S
C2561 N2558 1.321 . S
C2561 C2559 1.400 . S
C2562 H2557 0.930 . S
C2562 C2559 1.386 . S
C2562 C2563 1.395 . S
C2563 C2560 1.411 . S
C2563 C2562 1.395 . S
C2563 C2585 1.420 . S
O2564 Eu2520 2.558 . S
O2564 C2584 1.257 . S
O2565 Eu2520 2.612 . S
O2565 Eu2531 2.380 1_554 S
O2565 C2576 1.276 . S
O2566 Eu2531 2.432 . S
O2566 C2583 1.264 1_556 S
O2567 Eu2520 2.339 . S
O2567 C2583 1.254 . S
O2568 Eu2520 2.563 . S
O2568 C2576 1.235 . S
O2569 Eu2520 2.419 . S
O2569 C2584 1.249 . S
O2570 Eu2531 2.558 . S
O2570 C2595 1.257 . S
O2571 Eu2520 2.380 1_556 S
O2571 Eu2531 2.612 . S
O2571 C2587 1.276 . S
O2572 Eu2520 2.432 1_556 S
O2572 C2594 1.264 . S
O2573 Eu2531 2.339 . S
O2573 C2594 1.254 . S
O2574 Eu2531 2.563 . S
O2574 C2587 1.235 . S
O2575 Eu2531 2.419 . S
O2575 C2595 1.249 . S
C2576 O2565 1.276 . S
C2576 O2568 1.235 . S
C2577 C2579 1.393 . S
C2577 C2581 1.395 . S
C2577 C2584 1.492 . S
C2578 C2579 1.392 . S
C2578 C2580 1.386 . S
C2579 C2577 1.393 . S
C2579 C2578 1.392 . S
C2579 H2596 0.930 . S
C2580 C2578 1.386 . S
C2580 C2582 1.395 . S
C2580 H2597 0.930 . S
C2581 C2577 1.395 . S
C2581 C2582 1.379 . S
C2581 H2598 0.930 . S
C2582 C2580 1.395 . S
C2582 C2581 1.379 . S
C2582 H2599 0.930 . S
C2583 O2566 1.264 1_554 S
C2583 O2567 1.254 . S
C2584 Eu2520 2.848 . S
C2584 O2564 1.257 . S
C2584 O2569 1.249 . S
C2584 C2577 1.492 . S
C2585 H2550 0.931 . S
C2585 C2563 1.420 . S
C2585 C2586 1.351 . S
C2586 H2548 0.930 . S
C2586 C2554 1.423 . S
C2586 C2585 1.351 . S
C2587 O2571 1.276 . S
C2587 O2574 1.235 . S
C2588 C2589 1.393 . S
C2588 C2592 1.395 . S
C2588 C2595 1.492 . S
C2589 C2588 1.393 . S
C2589 C2590 1.392 . S
C2589 H2600 0.930 . S
C2590 C2589 1.392 . S
C2590 C2591 1.386 . S
C2591 C2590 1.386 . S
C2591 C2593 1.395 . S
C2591 H2601 0.930 . S
C2592 C2588 1.395 . S
C2592 C2593 1.379 . S
C2592 H2602 0.930 . S
C2593 C2591 1.395 . S
C2593 C2592 1.379 . S
C2593 H2603 0.930 . S
C2594 O2572 1.264 . S
C2594 O2573 1.254 . S
C2595 Eu2531 2.848 . S
C2595 O2570 1.257 . S
C2595 O2575 1.249 . S
C2595 C2588 1.492 . S
H2596 C2579 0.930 . S
H2597 C2580 0.930 . S
H2598 C2581 0.930 . S
H2599 C2582 0.930 . S
H2600 C2589 0.930 . S
H2601 C2591 0.930 . S
H2602 C2592 0.930 . S
H2603 C2593 0.930 . S
Eu2604 N2635 2.657 . S
Eu2604 N2642 2.609 . S
Eu2604 O2648 2.558 . S
Eu2604 O2649 2.612 . S
Eu2604 O2651 2.339 . S
Eu2604 O2652 2.563 . S
Eu2604 O2653 2.419 . S
Eu2604 O2655 2.380 1_554 S
Eu2604 O2656 2.432 1_554 S
Eu2604 C2668 2.848 . S
C2605 C2608 1.429 . S
C2605 C2609 1.411 . S
C2605 N2612 1.377 . S
C2606 C2608 1.420 . S
C2606 C2610 1.423 . S
C2606 C2618 1.392 . S
C2607 C2609 1.420 . S
C2607 C2610 1.351 . S
C2607 H2630 0.931 . S
C2608 C2605 1.429 . S
C2608 C2606 1.420 . S
C2608 N2616 1.362 . S
C2609 C2605 1.411 . S
C2609 C2607 1.420 . S
C2609 C2614 1.395 . S
C2610 C2606 1.423 . S
C2610 C2607 1.351 . S
C2610 H2622 0.930 . S
C2611 C2613 1.400 . S
C2611 C2614 1.386 . S
C2611 H2623 0.930 . S
N2612 C2605 1.377 . S
N2612 C2613 1.321 . S
N2612 Eu2615 2.609 . S
C2613 C2611 1.400 . S
C2613 N2612 1.321 . S
C2613 H2620 0.930 . S
C2614 C2609 1.395 . S
C2614 C2611 1.386 . S
C2614 H2633 0.930 . S
Eu2615 N2612 2.609 . S
Eu2615 N2616 2.657 . S
Eu2615 O2649 2.380 1_556 S
Eu2615 O2650 2.432 . S
Eu2615 O2654 2.558 . S
Eu2615 O2655 2.612 . S
Eu2615 O2657 2.339 . S
Eu2615 O2658 2.563 . S
Eu2615 O2659 2.419 . S
Eu2615 C2679 2.848 . S
N2616 C2608 1.362 . S
N2616 Eu2615 2.657 . S
N2616 C2617 1.334 . S
C2617 N2616 1.334 . S
C2617 C2619 1.413 . S
C2617 H2624 0.929 . S
C2618 C2606 1.392 . S
C2618 C2619 1.367 . S
C2618 H2626 0.930 . S
C2619 C2617 1.413 . S
C2619 C2618 1.367 . S
C2619 H2621 0.930 . S
H2620 C2613 0.930 . S
H2621 C2619 0.930 . S
H2622 C2610 0.930 . S
H2623 C2611 0.930 . S
H2624 C2617 0.929 . S
H2625 C2639 0.930 . S
H2626 C2618 0.930 . S
H2627 C2645 0.930 . S
H2628 C2636 0.929 . S
H2629 C2643 0.930 . S
H2630 C2607 0.931 . S
H2631 C2637 0.930 . S
H2632 C2670 0.930 . S
H2633 C2614 0.930 . S
H2634 C2669 0.931 . S
N2635 Eu2604 2.657 . S
N2635 C2636 1.334 . S
N2635 C2640 1.362 . S
C2636 H2628 0.929 . S
C2636 N2635 1.334 . S
C2636 C2639 1.413 . S
C2637 H2631 0.930 . S
C2637 C2638 1.392 . S
C2637 C2639 1.367 . S
C2638 C2637 1.392 . S
C2638 C2640 1.420 . S
C2638 C2670 1.423 . S
C2639 H2625 0.930 . S
C2639 C2636 1.413 . S
C2639 C2637 1.367 . S
C2640 N2635 1.362 . S
C2640 C2638 1.420 . S
C2640 C2644 1.429 . S
H2641 C2646 0.930 . S
N2642 Eu2604 2.609 . S
N2642 C2644 1.377 . S
N2642 C2645 1.321 . S
C2643 H2629 0.930 . S
C2643 C2645 1.400 . S
C2643 C2646 1.386 . S
C2644 C2640 1.429 . S
C2644 N2642 1.377 . S
C2644 C2647 1.411 . S
C2645 H2627 0.930 . S
C2645 N2642 1.321 . S
C2645 C2643 1.400 . S
C2646 H2641 0.930 . S
C2646 C2643 1.386 . S
C2646 C2647 1.395 . S
C2647 C2644 1.411 . S
C2647 C2646 1.395 . S
C2647 C2669 1.420 . S
O2648 Eu2604 2.558 . S
O2648 C2668 1.257 . S
O2649 Eu2604 2.612 . S
O2649 Eu2615 2.380 1_554 S
O2649 C2660 1.276 . S
O2650 Eu2615 2.432 . S
O2650 C2667 1.264 1_556 S
O2651 Eu2604 2.339 . S
O2651 C2667 1.254 . S
O2652 Eu2604 2.563 . S
O2652 C2660 1.235 . S
O2653 Eu2604 2.419 . S
O2653 C2668 1.249 . S
O2654 Eu2615 2.558 . S
O2654 C2679 1.257 . S
O2655 Eu2604 2.380 1_556 S
O2655 Eu2615 2.612 . S
O2655 C2671 1.276 . S
O2656 Eu2604 2.432 1_556 S
O2656 C2678 1.264 . S
O2657 Eu2615 2.339 . S
O2657 C2678 1.254 . S
O2658 Eu2615 2.563 . S
O2658 C2671 1.235 . S
O2659 Eu2615 2.419 . S
O2659 C2679 1.249 . S
C2660 O2649 1.276 . S
C2660 O2652 1.235 . S
C2661 C2663 1.393 . S
C2661 C2665 1.395 . S
C2661 C2668 1.492 . S
C2662 C2663 1.392 . S
C2662 C2664 1.386 . S
C2663 C2661 1.393 . S
C2663 C2662 1.392 . S
C2663 H2680 0.930 . S
C2664 C2662 1.386 . S
C2664 C2666 1.395 . S
C2664 H2681 0.930 . S
C2665 C2661 1.395 . S
C2665 C2666 1.379 . S
C2665 H2682 0.930 . S
C2666 C2664 1.395 . S
C2666 C2665 1.379 . S
C2666 H2683 0.930 . S
C2667 O2650 1.264 1_554 S
C2667 O2651 1.254 . S
C2668 Eu2604 2.848 . S
C2668 O2648 1.257 . S
C2668 O2653 1.249 . S
C2668 C2661 1.492 . S
C2669 H2634 0.931 . S
C2669 C2647 1.420 . S
C2669 C2670 1.351 . S
C2670 H2632 0.930 . S
C2670 C2638 1.423 . S
C2670 C2669 1.351 . S
C2671 O2655 1.276 . S
C2671 O2658 1.235 . S
C2672 C2673 1.393 . S
C2672 C2676 1.395 . S
C2672 C2679 1.492 . S
C2673 C2672 1.393 . S
C2673 C2674 1.392 . S
C2673 H2684 0.930 . S
C2674 C2673 1.392 . S
C2674 C2675 1.386 . S
C2675 C2674 1.386 . S
C2675 C2677 1.395 . S
C2675 H2685 0.930 . S
C2676 C2672 1.395 . S
C2676 C2677 1.379 . S
C2676 H2686 0.930 . S
C2677 C2675 1.395 . S
C2677 C2676 1.379 . S
C2677 H2687 0.930 . S
C2678 O2656 1.264 . S
C2678 O2657 1.254 . S
C2679 Eu2615 2.848 . S
C2679 O2654 1.257 . S
C2679 O2659 1.249 . S
C2679 C2672 1.492 . S
H2680 C2663 0.930 . S
H2681 C2664 0.930 . S
H2682 C2665 0.930 . S
H2683 C2666 0.930 . S
H2684 C2673 0.930 . S
H2685 C2675 0.930 . S
H2686 C2676 0.930 . S
H2687 C2677 0.930 . S
C2688 C2689 1.387 . S
C2688 H2692 0.950 . S
C2688 C2697 1.390 1_556 S
C2689 C2688 1.387 . S
C2689 C2691 1.387 . S
H2690 C2697 0.950 . S
C2691 C2689 1.387 . S
C2691 C2693 1.390 1_556 S
C2691 H2695 0.950 . S
H2692 C2688 0.950 . S
C2693 C2691 1.390 1_554 S
C2693 C2694 1.387 . S
C2693 H2696 0.950 . S
C2694 C2693 1.387 . S
C2694 C2697 1.387 . S
H2695 C2691 0.950 . S
H2696 C2693 0.950 . S
C2697 C2688 1.390 1_554 S
C2697 H2690 0.950 . S
C2697 C2694 1.387 . S
C2698 C2699 1.387 1_565 S
C2698 H2702 0.950 . S
C2698 C2707 1.383 1_456 S
C2699 C2698 1.387 1_545 S
C2699 C2701 1.395 . S
H2700 C2707 0.953 . S
C2701 C2699 1.395 . S
C2701 C2703 1.383 1_456 S
C2701 H2705 0.953 . S
H2702 C2698 0.950 . S
C2703 C2701 1.383 1_654 S
C2703 C2704 1.387 1_545 S
C2703 H2706 0.950 . S
C2704 C2703 1.387 1_565 S
C2704 C2707 1.395 . S
H2705 C2701 0.953 . S
H2706 C2703 0.950 . S
C2707 C2698 1.383 1_654 S
C2707 H2700 0.953 . S
C2707 C2704 1.395 . S
C2708 C2709 1.387 1_565 S
C2708 H2712 0.950 . S
C2708 C2717 1.390 . S
C2709 C2708 1.387 1_545 S
C2709 C2711 1.387 . S
H2710 C2717 0.950 . S
C2711 C2709 1.387 . S
C2711 C2713 1.390 . S
C2711 H2715 0.950 . S
H2712 C2708 0.950 . S
C2713 C2711 1.390 . S
C2713 C2714 1.387 1_545 S
C2713 H2716 0.950 . S
C2714 C2713 1.387 1_565 S
C2714 C2717 1.387 . S
H2715 C2711 0.950 . S
H2716 C2713 0.950 . S
C2717 C2708 1.390 . S
C2717 H2710 0.950 . S
C2717 C2714 1.387 . S
C2718 C2719 1.393 . S
C2718 H2722 0.951 . S
C2718 C2727 1.385 1_455 S
C2719 C2718 1.393 . S
C2719 C2721 1.387 . S
H2720 C2727 0.950 . S
C2721 C2719 1.387 . S
C2721 C2723 1.385 1_455 S
C2721 H2725 0.950 . S
H2722 C2718 0.951 . S
C2723 C2721 1.385 1_655 S
C2723 C2724 1.392 . S
C2723 H2726 0.951 . S
C2724 C2723 1.392 . S
C2724 C2727 1.387 . S
H2725 C2721 0.950 . S
H2726 C2723 0.951 . S
C2727 C2718 1.385 1_655 S
C2727 H2720 0.950 . S
C2727 C2724 1.387 . S
C2728 C2729 1.387 . S
C2728 H2732 0.950 . S
C2728 C2737 1.390 1_556 S
C2729 C2728 1.387 . S
C2729 C2731 1.387 . S
H2730 C2737 0.950 . S
C2731 C2729 1.387 . S
C2731 C2733 1.390 1_556 S
C2731 H2735 0.950 . S
H2732 C2728 0.950 . S
C2733 C2731 1.390 1_554 S
C2733 C2734 1.387 . S
C2733 H2736 0.950 . S
C2734 C2733 1.387 . S
C2734 C2737 1.387 . S
H2735 C2731 0.950 . S
H2736 C2733 0.950 . S
C2737 C2728 1.390 1_554 S
C2737 H2730 0.950 . S
C2737 C2734 1.387 . S
C2738 C2739 1.387 . S
C2738 H2742 0.950 . S
C2738 C2747 1.390 . S
C2739 C2738 1.387 . S
C2739 C2741 1.387 1_565 S
H2740 C2747 0.950 . S
C2741 C2739 1.387 1_545 S
C2741 C2743 1.390 . S
C2741 H2745 0.950 . S
H2742 C2738 0.950 . S
C2743 C2741 1.390 . S
C2743 C2744 1.387 . S
C2743 H2746 0.950 . S
C2744 C2743 1.387 . S
C2744 C2747 1.387 1_545 S
H2745 C2741 0.950 . S
H2746 C2743 0.950 . S
C2747 C2738 1.390 . S
C2747 H2740 0.950 . S
C2747 C2744 1.387 1_565 S
C2748 C2749 1.387 . S
C2748 H2752 0.950 . S
C2748 C2757 1.390 . S
C2749 C2748 1.387 . S
C2749 C2751 1.387 1_655 S
H2750 C2757 0.950 . S
C2751 C2749 1.387 1_455 S
C2751 C2753 1.390 . S
C2751 H2755 0.950 . S
H2752 C2748 0.950 . S
C2753 C2751 1.390 . S
C2753 C2754 1.387 . S
C2753 H2756 0.950 . S
C2754 C2753 1.387 . S
C2754 C2757 1.387 1_455 S
H2755 C2751 0.950 . S
H2756 C2753 0.950 . S
C2757 C2748 1.390 . S
C2757 H2750 0.950 . S
C2757 C2754 1.387 1_655 S
C2758 C2759 1.387 . S
C2758 H2762 0.950 . S
C2758 C2767 1.390 . S
C2759 C2758 1.387 . S
C2759 C2761 1.387 . S
H2760 C2767 0.950 . S
C2761 C2759 1.387 . S
C2761 C2763 1.390 . S
C2761 H2765 0.950 . S
H2762 C2758 0.950 . S
C2763 C2761 1.390 . S
C2763 C2764 1.387 . S
C2763 H2766 0.950 . S
C2764 C2763 1.387 . S
C2764 C2767 1.387 . S
H2765 C2761 0.950 . S
H2766 C2763 0.950 . S
C2767 C2758 1.390 . S
C2767 H2760 0.950 . S
C2767 C2764 1.387 . S
C2768 C2769 1.387 . S
C2768 H2772 0.950 . S
C2768 C2777 1.390 1_655 S
C2769 C2768 1.387 . S
C2769 C2771 1.387 . S
H2770 C2777 0.950 . S
C2771 C2769 1.387 . S
C2771 C2773 1.390 1_655 S
C2771 H2775 0.950 . S
H2772 C2768 0.950 . S
C2773 C2771 1.390 1_455 S
C2773 C2774 1.387 . S
C2773 H2776 0.950 . S
C2774 C2773 1.387 . S
C2774 C2777 1.387 . S
H2775 C2771 0.950 . S
H2776 C2773 0.950 . S
C2777 C2768 1.390 1_455 S
C2777 H2770 0.950 . S
C2777 C2774 1.387 . S
C2778 C2779 1.387 . S
C2778 H2782 0.950 . S
C2778 C2787 1.390 . S
C2779 C2778 1.387 . S
C2779 C2781 1.387 . S
H2780 C2787 0.950 . S
C2781 C2779 1.387 . S
C2781 C2783 1.390 . S
C2781 H2785 0.950 . S
H2782 C2778 0.950 . S
C2783 C2781 1.390 . S
C2783 C2784 1.387 . S
C2783 H2786 0.950 . S
C2784 C2783 1.387 . S
C2784 C2787 1.387 . S
H2785 C2781 0.950 . S
H2786 C2783 0.950 . S
C2787 C2778 1.390 . S
C2787 H2780 0.950 . S
C2787 C2784 1.387 . S
C2788 C2789 1.387 . S
C2788 H2792 0.950 . S
C2788 C2797 1.390 . S
C2789 C2788 1.387 . S
C2789 C2791 1.387 . S
H2790 C2797 0.950 . S
C2791 C2789 1.387 . S
C2791 C2793 1.390 . S
C2791 H2795 0.950 . S
H2792 C2788 0.950 . S
C2793 C2791 1.390 . S
C2793 C2794 1.387 . S
C2793 H2796 0.950 . S
C2794 C2793 1.387 . S
C2794 C2797 1.387 . S
H2795 C2791 0.950 . S
H2796 C2793 0.950 . S
C2797 C2788 1.390 . S
C2797 H2790 0.950 . S
C2797 C2794 1.387 . S
C2798 C2799 1.387 . S
C2798 H2802 0.950 . S
C2798 C2807 1.390 . S
C2799 C2798 1.387 . S
C2799 C2801 1.387 . S
H2800 C2807 0.950 . S
C2801 C2799 1.387 . S
C2801 C2803 1.390 . S
C2801 H2805 0.950 . S
H2802 C2798 0.950 . S
C2803 C2801 1.390 . S
C2803 C2804 1.387 . S
C2803 H2806 0.950 . S
C2804 C2803 1.387 . S
C2804 C2807 1.387 . S
H2805 C2801 0.950 . S
H2806 C2803 0.950 . S
C2807 C2798 1.390 . S
C2807 H2800 0.950 . S
C2807 C2804 1.387 . S
C2808 C2809 1.387 . S
C2808 H2812 0.950 . S
C2808 C2817 1.390 . S
C2809 C2808 1.387 . S
C2809 C2811 1.387 1_565 S
H2810 C2817 0.950 . S
C2811 C2809 1.387 1_545 S
C2811 C2813 1.390 . S
C2811 H2815 0.950 . S
H2812 C2808 0.950 . S
C2813 C2811 1.390 . S
C2813 C2814 1.387 . S
C2813 H2816 0.950 . S
C2814 C2813 1.387 . S
C2814 C2817 1.387 1_545 S
H2815 C2811 0.950 . S
H2816 C2813 0.950 . S
C2817 C2808 1.390 . S
C2817 H2810 0.950 . S
C2817 C2814 1.387 1_565 S
C2818 C2819 1.387 . S
C2818 H2822 0.950 . S
C2818 C2827 1.390 . S
C2819 C2818 1.387 . S
C2819 C2821 1.387 . S
H2820 C2827 0.950 . S
C2821 C2819 1.387 . S
C2821 C2823 1.390 . S
C2821 H2825 0.950 . S
H2822 C2818 0.950 . S
C2823 C2821 1.390 . S
C2823 C2824 1.387 . S
C2823 H2826 0.950 . S
C2824 C2823 1.387 . S
C2824 C2827 1.387 . S
H2825 C2821 0.950 . S
H2826 C2823 0.950 . S
C2827 C2818 1.390 . S
C2827 H2820 0.950 . S
C2827 C2824 1.387 . S
C2828 C2829 1.387 . S
C2828 H2832 0.950 . S
C2828 C2837 1.390 . S
C2829 C2828 1.387 . S
C2829 C2831 1.387 . S
H2830 C2837 0.950 . S
C2831 C2829 1.387 . S
C2831 C2833 1.390 . S
C2831 H2835 0.950 . S
H2832 C2828 0.950 . S
C2833 C2831 1.390 . S
C2833 C2834 1.387 . S
C2833 H2836 0.950 . S
C2834 C2833 1.387 . S
C2834 C2837 1.387 . S
H2835 C2831 0.950 . S
H2836 C2833 0.950 . S
C2837 C2828 1.390 . S
C2837 H2830 0.950 . S
C2837 C2834 1.387 . S
C2838 C2839 1.387 . S
C2838 H2842 0.950 . S
C2838 C2847 1.390 1_556 S
C2839 C2838 1.387 . S
C2839 C2841 1.387 . S
H2840 C2847 0.950 . S
C2841 C2839 1.387 . S
C2841 C2843 1.390 1_556 S
C2841 H2845 0.950 . S
H2842 C2838 0.950 . S
C2843 C2841 1.390 1_554 S
C2843 C2844 1.387 . S
C2843 H2846 0.950 . S
C2844 C2843 1.387 . S
C2844 C2847 1.387 . S
H2845 C2841 0.950 . S
H2846 C2843 0.950 . S
C2847 C2838 1.390 1_554 S
C2847 H2840 0.950 . S
C2847 C2844 1.387 . S
C2848 C2849 1.387 . S
C2848 H2852 0.950 . S
C2848 C2857 1.390 . S
C2849 C2848 1.387 . S
C2849 C2851 1.387 . S
H2850 C2857 0.950 . S
C2851 C2849 1.387 . S
C2851 C2853 1.390 . S
C2851 H2855 0.950 . S
H2852 C2848 0.950 . S
C2853 C2851 1.390 . S
C2853 C2854 1.387 . S
C2853 H2856 0.950 . S
C2854 C2853 1.387 . S
C2854 C2857 1.387 . S
H2855 C2851 0.950 . S
H2856 C2853 0.950 . S
C2857 C2848 1.390 . S
C2857 H2850 0.950 . S
C2857 C2854 1.387 . S
C2858 C2859 1.387 . S
C2858 H2862 0.950 . S
C2858 C2867 1.390 . S
C2859 C2858 1.387 . S
C2859 C2861 1.387 1_565 S
H2860 C2867 0.950 . S
C2861 C2859 1.387 1_545 S
C2861 C2863 1.390 . S
C2861 H2865 0.950 . S
H2862 C2858 0.950 . S
C2863 C2861 1.390 . S
C2863 C2864 1.387 1_545 S
C2863 H2866 0.950 . S
C2864 C2863 1.387 1_565 S
C2864 C2867 1.387 . S
H2865 C2861 0.950 . S
H2866 C2863 0.950 . S
C2867 C2858 1.390 . S
C2867 H2860 0.950 . S
C2867 C2864 1.387 . S
C2868 C2869 1.387 . S
C2868 H2872 0.950 . S
C2868 C2877 1.390 . S
C2869 C2868 1.387 . S
C2869 C2871 1.387 1_565 S
H2870 C2877 0.950 . S
C2871 C2869 1.387 1_545 S
C2871 C2873 1.390 . S
C2871 H2875 0.950 . S
H2872 C2868 0.950 . S
C2873 C2871 1.390 . S
C2873 C2874 1.387 1_545 S
C2873 H2876 0.950 . S
C2874 C2873 1.387 1_565 S
C2874 C2877 1.387 . S
H2875 C2871 0.950 . S
H2876 C2873 0.950 . S
C2877 C2868 1.390 . S
C2877 H2870 0.950 . S
C2877 C2874 1.387 . S
C2878 C2879 1.387 . S
C2878 H2882 0.950 . S
C2878 C2887 1.390 . S
C2879 C2878 1.387 . S
C2879 C2881 1.387 . S
H2880 C2887 0.950 . S
C2881 C2879 1.387 . S
C2881 C2883 1.390 . S
C2881 H2885 0.950 . S
H2882 C2878 0.950 . S
C2883 C2881 1.390 . S
C2883 C2884 1.387 . S
C2883 H2886 0.950 . S
C2884 C2883 1.387 . S
C2884 C2887 1.387 . S
H2885 C2881 0.950 . S
H2886 C2883 0.950 . S
C2887 C2878 1.390 . S
C2887 H2880 0.950 . S
C2887 C2884 1.387 . S
C2888 C2889 1.387 . S
C2888 H2892 0.950 . S
C2888 C2897 1.390 . S
C2889 C2888 1.387 . S
C2889 C2891 1.387 . S
H2890 C2897 0.950 . S
C2891 C2889 1.387 . S
C2891 C2893 1.390 . S
C2891 H2895 0.950 . S
H2892 C2888 0.950 . S
C2893 C2891 1.390 . S
C2893 C2894 1.387 . S
C2893 H2896 0.950 . S
C2894 C2893 1.387 . S
C2894 C2897 1.387 . S
H2895 C2891 0.950 . S
H2896 C2893 0.950 . S
C2897 C2888 1.390 . S
C2897 H2890 0.950 . S
C2897 C2894 1.387 . S
C2898 C2899 1.387 1_565 S
C2898 H2902 0.950 . S
C2898 C2907 1.390 . S
C2899 C2898 1.387 1_545 S
C2899 C2901 1.387 . S
H2900 C2907 0.950 . S
C2901 C2899 1.387 . S
C2901 C2903 1.390 . S
C2901 H2905 0.950 . S
H2902 C2898 0.950 . S
C2903 C2901 1.390 . S
C2903 C2904 1.387 . S
C2903 H2906 0.950 . S
C2904 C2903 1.387 . S
C2904 C2907 1.387 1_545 S
H2905 C2901 0.950 . S
H2906 C2903 0.950 . S
C2907 C2898 1.390 . S
C2907 H2900 0.950 . S
C2907 C2904 1.387 1_565 S
C2908 C2909 1.387 . S
C2908 H2912 0.950 . S
C2908 C2917 1.390 . S
C2909 C2908 1.387 . S
C2909 C2911 1.387 1_545 S
H2910 C2917 0.950 . S
C2911 C2909 1.387 1_565 S
C2911 C2913 1.390 . S
C2911 H2915 0.950 . S
H2912 C2908 0.950 . S
C2913 C2911 1.390 . S
C2913 C2914 1.387 1_565 S
C2913 H2916 0.950 . S
C2914 C2913 1.387 1_545 S
C2914 C2917 1.387 . S
H2915 C2911 0.950 . S
H2916 C2913 0.950 . S
C2917 C2908 1.390 . S
C2917 H2910 0.950 . S
C2917 C2914 1.387 . S
C2918 C2919 1.387 . S
C2918 H2922 0.950 . S
C2918 C2927 1.390 . S
C2919 C2918 1.387 . S
C2919 C2921 1.387 . S
H2920 C2927 0.950 . S
C2921 C2919 1.387 . S
C2921 C2923 1.390 . S
C2921 H2925 0.950 . S
H2922 C2918 0.950 . S
C2923 C2921 1.390 . S
C2923 C2924 1.387 . S
C2923 H2926 0.950 . S
C2924 C2923 1.387 . S
C2924 C2927 1.387 . S
H2925 C2921 0.950 . S
H2926 C2923 0.950 . S
C2927 C2918 1.390 . S
C2927 H2920 0.950 . S
C2927 C2924 1.387 . S
C2928 C2929 1.387 . S
C2928 H2932 0.950 . S
C2928 C2937 1.390 . S
C2929 C2928 1.387 . S
C2929 C2931 1.387 . S
H2930 C2937 0.950 . S
C2931 C2929 1.387 . S
C2931 C2933 1.390 . S
C2931 H2935 0.950 . S
H2932 C2928 0.950 . S
C2933 C2931 1.390 . S
C2933 C2934 1.387 . S
C2933 H2936 0.950 . S
C2934 C2933 1.387 . S
C2934 C2937 1.387 . S
H2935 C2931 0.950 . S
H2936 C2933 0.950 . S
C2937 C2928 1.390 . S
C2937 H2930 0.950 . S
C2937 C2934 1.387 . S
C2938 C2939 1.387 . S
C2938 H2942 0.950 . S
C2938 C2947 1.390 . S
C2939 C2938 1.387 . S
C2939 C2941 1.387 . S
H2940 C2947 0.950 . S
C2941 C2939 1.387 . S
C2941 C2943 1.390 . S
C2941 H2945 0.950 . S
H2942 C2938 0.950 . S
C2943 C2941 1.390 . S
C2943 C2944 1.387 . S
C2943 H2946 0.950 . S
C2944 C2943 1.387 . S
C2944 C2947 1.387 . S
H2945 C2941 0.950 . S
H2946 C2943 0.950 . S
C2947 C2938 1.390 . S
C2947 H2940 0.950 . S
C2947 C2944 1.387 . S
C2948 C2949 1.387 . S
C2948 H2952 0.950 . S
C2948 C2957 1.390 . S
C2949 C2948 1.387 . S
C2949 C2951 1.387 . S
H2950 C2957 0.950 . S
C2951 C2949 1.387 . S
C2951 C2953 1.390 . S
C2951 H2955 0.950 . S
H2952 C2948 0.950 . S
C2953 C2951 1.390 . S
C2953 C2954 1.387 . S
C2953 H2956 0.950 . S
C2954 C2953 1.387 . S
C2954 C2957 1.387 . S
H2955 C2951 0.950 . S
H2956 C2953 0.950 . S
C2957 C2948 1.390 . S
C2957 H2950 0.950 . S
C2957 C2954 1.387 . S
C2958 C2959 1.387 . S
C2958 H2962 0.950 . S
C2958 C2967 1.390 . S
C2959 C2958 1.387 . S
C2959 C2961 1.387 . S
H2960 C2967 0.950 . S
C2961 C2959 1.387 . S
C2961 C2963 1.390 . S
C2961 H2965 0.950 . S
H2962 C2958 0.950 . S
C2963 C2961 1.390 . S
C2963 C2964 1.387 . S
C2963 H2966 0.950 . S
C2964 C2963 1.387 . S
C2964 C2967 1.387 . S
H2965 C2961 0.950 . S
H2966 C2963 0.950 . S
C2967 C2958 1.390 . S
C2967 H2960 0.950 . S
C2967 C2964 1.387 . S
C2968 C2969 1.387 . S
C2968 H2972 0.950 . S
C2968 C2977 1.390 . S
C2969 C2968 1.387 . S
C2969 C2971 1.387 . S
H2970 C2977 0.950 . S
C2971 C2969 1.387 . S
C2971 C2973 1.390 . S
C2971 H2975 0.950 . S
H2972 C2968 0.950 . S
C2973 C2971 1.390 . S
C2973 C2974 1.387 . S
C2973 H2976 0.950 . S
C2974 C2973 1.387 . S
C2974 C2977 1.387 . S
H2975 C2971 0.950 . S
H2976 C2973 0.950 . S
C2977 C2968 1.390 . S
C2977 H2970 0.950 . S
C2977 C2974 1.387 . S
C2978 C2979 1.387 . S
C2978 H2982 0.950 . S
C2978 C2987 1.390 . S
C2979 C2978 1.387 . S
C2979 C2981 1.387 . S
H2980 C2987 0.950 . S
C2981 C2979 1.387 . S
C2981 C2983 1.390 . S
C2981 H2985 0.950 . S
H2982 C2978 0.950 . S
C2983 C2981 1.390 . S
C2983 C2984 1.387 . S
C2983 H2986 0.950 . S
C2984 C2983 1.387 . S
C2984 C2987 1.387 . S
H2985 C2981 0.950 . S
H2986 C2983 0.950 . S
C2987 C2978 1.390 . S
C2987 H2980 0.950 . S
C2987 C2984 1.387 . S
C2988 C2989 1.387 . S
C2988 H2992 0.950 . S
C2988 C2997 1.390 . S
C2989 C2988 1.387 . S
C2989 C2991 1.387 . S
H2990 C2997 0.950 . S
C2991 C2989 1.387 . S
C2991 C2993 1.390 . S
C2991 H2995 0.950 . S
H2992 C2988 0.950 . S
C2993 C2991 1.390 . S
C2993 C2994 1.387 . S
C2993 H2996 0.950 . S
C2994 C2993 1.387 . S
C2994 C2997 1.387 . S
H2995 C2991 0.950 . S
H2996 C2993 0.950 . S
C2997 C2988 1.390 . S
C2997 H2990 0.950 . S
C2997 C2994 1.387 . S
C2998 C2999 1.387 . S
C2998 H3002 0.950 . S
C2998 C3007 1.390 . S
C2999 C2998 1.387 . S
C2999 C3001 1.387 . S
H3000 C3007 0.950 . S
C3001 C2999 1.387 . S
C3001 C3003 1.390 . S
C3001 H3005 0.950 . S
H3002 C2998 0.950 . S
C3003 C3001 1.390 . S
C3003 C3004 1.387 . S
C3003 H3006 0.950 . S
C3004 C3003 1.387 . S
C3004 C3007 1.387 . S
H3005 C3001 0.950 . S
H3006 C3003 0.950 . S
C3007 C2998 1.390 . S
C3007 H3000 0.950 . S
C3007 C3004 1.387 . S
C3008 C3009 1.387 . S
C3008 H3012 0.950 . S
C3008 C3017 1.390 . S
C3009 C3008 1.387 . S
C3009 C3011 1.387 . S
H3010 C3017 0.950 . S
C3011 C3009 1.387 . S
C3011 C3013 1.390 . S
C3011 H3015 0.950 . S
H3012 C3008 0.950 . S
C3013 C3011 1.390 . S
C3013 C3014 1.387 . S
C3013 H3016 0.950 . S
C3014 C3013 1.387 . S
C3014 C3017 1.387 . S
H3015 C3011 0.950 . S
H3016 C3013 0.950 . S
C3017 C3008 1.390 . S
C3017 H3010 0.950 . S
C3017 C3014 1.387 . S
C3018 C3019 1.387 . S
C3018 H3022 0.950 . S
C3018 C3027 1.390 . S
C3019 C3018 1.387 . S
C3019 C3021 1.387 1_565 S
H3020 C3027 0.950 . S
C3021 C3019 1.387 1_545 S
C3021 C3023 1.390 . S
C3021 H3025 0.950 . S
H3022 C3018 0.950 . S
C3023 C3021 1.390 . S
C3023 C3024 1.387 1_545 S
C3023 H3026 0.950 . S
C3024 C3023 1.387 1_565 S
C3024 C3027 1.387 . S
H3025 C3021 0.950 . S
H3026 C3023 0.950 . S
C3027 C3018 1.390 . S
C3027 H3020 0.950 . S
C3027 C3024 1.387 . S
C3028 C3029 1.387 . S
C3028 H3032 0.950 . S
C3028 C3037 1.390 . S
C3029 C3028 1.387 . S
C3029 C3031 1.387 1_565 S
H3030 C3037 0.950 . S
C3031 C3029 1.387 1_545 S
C3031 C3033 1.390 . S
C3031 H3035 0.950 . S
H3032 C3028 0.950 . S
C3033 C3031 1.390 . S
C3033 C3034 1.387 1_545 S
C3033 H3036 0.950 . S
C3034 C3033 1.387 1_565 S
C3034 C3037 1.387 . S
H3035 C3031 0.950 . S
H3036 C3033 0.950 . S
C3037 C3028 1.390 . S
C3037 H3030 0.950 . S
C3037 C3034 1.387 . S
C3038 C3039 1.387 . S
C3038 H3042 0.950 . S
C3038 C3047 1.390 . S
C3039 C3038 1.387 . S
C3039 C3041 1.387 . S
H3040 C3047 0.950 . S
C3041 C3039 1.387 . S
C3041 C3043 1.390 . S
C3041 H3045 0.950 . S
H3042 C3038 0.950 . S
C3043 C3041 1.390 . S
C3043 C3044 1.387 . S
C3043 H3046 0.950 . S
C3044 C3043 1.387 . S
C3044 C3047 1.387 . S
H3045 C3041 0.950 . S
H3046 C3043 0.950 . S
C3047 C3038 1.390 . S
C3047 H3040 0.950 . S
C3047 C3044 1.387 . S
C3048 C3049 1.387 . S
C3048 H3052 0.950 . S
C3048 C3057 1.390 . S
C3049 C3048 1.387 . S
C3049 C3051 1.387 . S
H3050 C3057 0.950 . S
C3051 C3049 1.387 . S
C3051 C3053 1.390 . S
C3051 H3055 0.950 . S
H3052 C3048 0.950 . S
C3053 C3051 1.390 . S
C3053 C3054 1.387 . S
C3053 H3056 0.950 . S
C3054 C3053 1.387 . S
C3054 C3057 1.387 . S
H3055 C3051 0.950 . S
H3056 C3053 0.950 . S
C3057 C3048 1.390 . S
C3057 H3050 0.950 . S
C3057 C3054 1.387 . S
C3058 C3059 1.387 . S
C3058 H3062 0.950 . S
C3058 C3067 1.390 . S
C3059 C3058 1.387 . S
C3059 C3061 1.387 1_545 S
H3060 C3067 0.950 . S
C3061 C3059 1.387 1_565 S
C3061 C3063 1.390 . S
C3061 H3065 0.950 . S
H3062 C3058 0.950 . S
C3063 C3061 1.390 . S
C3063 C3064 1.387 1_565 S
C3063 H3066 0.950 . S
C3064 C3063 1.387 1_545 S
C3064 C3067 1.387 . S
H3065 C3061 0.950 . S
H3066 C3063 0.950 . S
C3067 C3058 1.390 . S
C3067 H3060 0.950 . S
C3067 C3064 1.387 . S
C3068 C3069 1.387 1_565 S
C3068 H3072 0.950 . S
C3068 C3077 1.390 . S
C3069 C3068 1.387 1_545 S
C3069 C3071 1.387 . S
H3070 C3077 0.950 . S
C3071 C3069 1.387 . S
C3071 C3073 1.390 . S
C3071 H3075 0.950 . S
H3072 C3068 0.950 . S
C3073 C3071 1.390 . S
C3073 C3074 1.387 . S
C3073 H3076 0.950 . S
C3074 C3073 1.387 . S
C3074 C3077 1.387 1_545 S
H3075 C3071 0.950 . S
H3076 C3073 0.950 . S
C3077 C3068 1.390 . S
C3077 H3070 0.950 . S
C3077 C3074 1.387 1_565 S
C3078 C3079 1.387 . S
C3078 H3082 0.950 . S
C3078 C3087 1.390 . S
C3079 C3078 1.387 . S
C3079 C3081 1.387 . S
H3080 C3087 0.950 . S
C3081 C3079 1.387 . S
C3081 C3083 1.390 . S
C3081 H3085 0.950 . S
H3082 C3078 0.950 . S
C3083 C3081 1.390 . S
C3083 C3084 1.387 . S
C3083 H3086 0.950 . S
C3084 C3083 1.387 . S
C3084 C3087 1.387 . S
H3085 C3081 0.950 . S
H3086 C3083 0.950 . S
C3087 C3078 1.390 . S
C3087 H3080 0.950 . S
C3087 C3084 1.387 . S
C3088 C3089 1.387 . S
C3088 H3092 0.950 . S
C3088 C3097 1.390 . S
C3089 C3088 1.387 . S
C3089 C3091 1.387 . S
H3090 C3097 0.950 . S
C3091 C3089 1.387 . S
C3091 C3093 1.390 . S
C3091 H3095 0.950 . S
H3092 C3088 0.950 . S
C3093 C3091 1.390 . S
C3093 C3094 1.387 . S
C3093 H3096 0.950 . S
C3094 C3093 1.387 . S
C3094 C3097 1.387 . S
H3095 C3091 0.950 . S
H3096 C3093 0.950 . S
C3097 C3088 1.390 . S
C3097 H3090 0.950 . S
C3097 C3094 1.387 . S
C3098 C3099 1.387 . S
C3098 H3102 0.950 . S
C3098 C3107 1.390 . S
C3099 C3098 1.387 . S
C3099 C3101 1.387 . S
H3100 C3107 0.950 . S
C3101 C3099 1.387 . S
C3101 C3103 1.390 . S
C3101 H3105 0.950 . S
H3102 C3098 0.950 . S
C3103 C3101 1.390 . S
C3103 C3104 1.387 . S
C3103 H3106 0.950 . S
C3104 C3103 1.387 . S
C3104 C3107 1.387 . S
H3105 C3101 0.950 . S
H3106 C3103 0.950 . S
C3107 C3098 1.390 . S
C3107 H3100 0.950 . S
C3107 C3104 1.387 . S
C3108 C3109 1.387 . S
C3108 H3112 0.950 . S
C3108 C3117 1.390 1_556 S
C3109 C3108 1.387 . S
C3109 C3111 1.387 1_556 S
H3110 C3117 0.950 . S
C3111 C3109 1.387 1_554 S
C3111 C3113 1.390 . S
C3111 H3115 0.950 1_554 S
H3112 C3108 0.950 . S
C3113 C3111 1.390 . S
C3113 C3114 1.387 . S
C3113 H3116 0.950 . S
C3114 C3113 1.387 . S
C3114 C3117 1.387 . S
H3115 C3111 0.950 1_556 S
H3116 C3113 0.950 . S
C3117 C3108 1.390 1_554 S
C3117 H3110 0.950 . S
C3117 C3114 1.387 . S
C3118 C3119 1.387 1_554 S
C3118 H3122 0.950 1_554 S
C3118 C3127 1.390 . S
C3119 C3118 1.387 1_556 S
C3119 C3121 1.387 . S
H3120 C3127 0.950 . S
C3121 C3119 1.387 . S
C3121 C3123 1.390 1_556 S
C3121 H3125 0.950 . S
H3122 C3118 0.950 1_556 S
C3123 C3121 1.390 1_554 S
C3123 C3124 1.387 . S
C3123 H3126 0.950 . S
C3124 C3123 1.387 . S
C3124 C3127 1.387 . S
H3125 C3121 0.950 . S
H3126 C3123 0.950 . S
C3127 C3118 1.390 . S
C3127 H3120 0.950 . S
C3127 C3124 1.387 . S
C3128 C3129 1.387 . S
C3128 H3132 0.950 . S
C3128 C3137 1.390 . S
C3129 C3128 1.387 . S
C3129 C3131 1.387 . S
H3130 C3137 0.950 . S
C3131 C3129 1.387 . S
C3131 C3133 1.390 . S
C3131 H3135 0.950 . S
H3132 C3128 0.950 . S
C3133 C3131 1.390 . S
C3133 C3134 1.387 . S
C3133 H3136 0.950 . S
C3134 C3133 1.387 . S
C3134 C3137 1.387 . S
H3135 C3131 0.950 . S
H3136 C3133 0.950 . S
C3137 C3128 1.390 . S
C3137 H3130 0.950 . S
C3137 C3134 1.387 . S
C3138 C3139 1.387 . S
C3138 H3142 0.950 . S
C3138 C3147 1.390 . S
C3139 C3138 1.387 . S
C3139 C3141 1.387 . S
H3140 C3147 0.950 . S
C3141 C3139 1.387 . S
C3141 C3143 1.390 . S
C3141 H3145 0.950 . S
H3142 C3138 0.950 . S
C3143 C3141 1.390 . S
C3143 C3144 1.387 . S
C3143 H3146 0.950 . S
C3144 C3143 1.387 . S
C3144 C3147 1.387 . S
H3145 C3141 0.950 . S
H3146 C3143 0.950 . S
C3147 C3138 1.390 . S
C3147 H3140 0.950 . S
C3147 C3144 1.387 . S
C3148 C3149 1.387 . S
C3148 H3152 0.950 . S
C3148 C3157 1.390 1_554 S
C3149 C3148 1.387 . S
C3149 C3151 1.387 1_554 S
H3150 C3157 0.950 . S
C3151 C3149 1.387 1_556 S
C3151 C3153 1.390 . S
C3151 H3155 0.950 1_556 S
H3152 C3148 0.950 . S
C3153 C3151 1.390 . S
C3153 C3154 1.387 . S
C3153 H3156 0.950 . S
C3154 C3153 1.387 . S
C3154 C3157 1.387 . S
H3155 C3151 0.950 1_554 S
H3156 C3153 0.950 . S
C3157 C3148 1.390 1_556 S
C3157 H3150 0.950 . S
C3157 C3154 1.387 . S
C3158 C3159 1.387 . S
C3158 H3162 0.950 . S
C3158 C3167 1.390 1_556 S
C3159 C3158 1.387 . S
C3159 C3161 1.387 . S
H3160 C3167 0.950 . S
C3161 C3159 1.387 . S
C3161 C3163 1.390 . S
C3161 H3165 0.950 . S
H3162 C3158 0.950 . S
C3163 C3161 1.390 . S
C3163 C3164 1.387 1_556 S
C3163 H3166 0.950 1_556 S
C3164 C3163 1.387 1_554 S
C3164 C3167 1.387 . S
H3165 C3161 0.950 . S
H3166 C3163 0.950 1_554 S
C3167 C3158 1.390 1_554 S
C3167 H3160 0.950 . S
C3167 C3164 1.387 . S
C3168 C3169 1.387 . S
C3168 H3172 0.950 . S
C3168 C3177 1.390 . S
C3169 C3168 1.387 . S
C3169 C3171 1.387 . S
H3170 C3177 0.950 . S
C3171 C3169 1.387 . S
C3171 C3173 1.390 . S
C3171 H3175 0.950 . S
H3172 C3168 0.950 . S
C3173 C3171 1.390 . S
C3173 C3174 1.387 . S
C3173 H3176 0.950 . S
C3174 C3173 1.387 . S
C3174 C3177 1.387 . S
H3175 C3171 0.950 . S
H3176 C3173 0.950 . S
C3177 C3168 1.390 . S
C3177 H3170 0.950 . S
C3177 C3174 1.387 . S
C3178 C3179 1.387 1_545 S
C3178 H3182 0.950 . S
C3178 C3187 1.390 . S
C3179 C3178 1.387 1_565 S
C3179 C3181 1.387 . S
H3180 C3187 0.950 . S
C3181 C3179 1.387 . S
C3181 C3183 1.390 . S
C3181 H3185 0.950 . S
H3182 C3178 0.950 . S
C3183 C3181 1.390 . S
C3183 C3184 1.387 . S
C3183 H3186 0.950 . S
C3184 C3183 1.387 . S
C3184 C3187 1.387 1_565 S
H3185 C3181 0.950 . S
H3186 C3183 0.950 . S
C3187 C3178 1.390 . S
C3187 H3180 0.950 . S
C3187 C3184 1.387 1_545 S
C3188 C3189 1.390 1_545 S
C3188 H3192 0.952 . S
C3188 C3197 1.385 1_556 S
C3189 C3188 1.390 1_565 S
C3189 C3191 1.387 1_556 S
H3190 C3197 0.950 . S
C3191 C3189 1.387 1_554 S
C3191 C3193 1.390 . S
C3191 H3195 0.950 1_554 S
H3192 C3188 0.952 . S
C3193 C3191 1.390 . S
C3193 C3194 1.387 . S
C3193 H3196 0.950 . S
C3194 C3193 1.387 . S
C3194 C3197 1.387 1_565 S
H3195 C3191 0.950 1_556 S
H3196 C3193 0.950 . S
C3197 C3188 1.385 1_554 S
C3197 H3190 0.950 . S
C3197 C3194 1.387 1_545 S
C3198 C3199 1.391 . S
C3198 H3202 0.954 . S
C3198 C3207 1.382 1_556 S
C3199 C3198 1.391 . S
C3199 C3201 1.387 1_556 S
H3200 C3207 0.950 . S
C3201 C3199 1.387 1_554 S
C3201 C3203 1.390 . S
C3201 H3205 0.950 1_554 S
H3202 C3198 0.954 . S
C3203 C3201 1.390 . S
C3203 C3204 1.387 . S
C3203 H3206 0.950 . S
C3204 C3203 1.387 . S
C3204 C3207 1.387 . S
H3205 C3201 0.950 1_556 S
H3206 C3203 0.950 . S
C3207 C3198 1.382 1_554 S
C3207 H3200 0.950 . S
C3207 C3204 1.387 . S
C3208 C3209 1.387 . S
C3208 H3212 0.950 . S
C3208 C3217 1.390 . S
C3209 C3208 1.387 . S
C3209 C3211 1.387 . S
H3210 C3217 0.950 . S
C3211 C3209 1.387 . S
C3211 C3213 1.390 . S
C3211 H3215 0.950 . S
H3212 C3208 0.950 . S
C3213 C3211 1.390 . S
C3213 C3214 1.387 . S
C3213 H3216 0.950 . S
C3214 C3213 1.387 . S
C3214 C3217 1.387 . S
H3215 C3211 0.950 . S
H3216 C3213 0.950 . S
C3217 C3208 1.390 . S
C3217 H3210 0.950 . S
C3217 C3214 1.387 . S
C3218 C3219 1.387 1_565 S
C3218 H3222 0.950 . S
C3218 C3227 1.390 . S
C3219 C3218 1.387 1_545 S
C3219 C3221 1.387 . S
H3220 C3227 0.950 . S
C3221 C3219 1.387 . S
C3221 C3223 1.390 . S
C3221 H3225 0.950 . S
H3222 C3218 0.950 . S
C3223 C3221 1.390 . S
C3223 C3224 1.387 . S
C3223 H3226 0.950 . S
C3224 C3223 1.387 . S
C3224 C3227 1.387 1_545 S
H3225 C3221 0.950 . S
H3226 C3223 0.950 . S
C3227 C3218 1.390 . S
C3227 H3220 0.950 . S
C3227 C3224 1.387 1_565 S
C3228 C3229 1.387 . S
C3228 H3232 0.950 . S
C3228 C3237 1.390 1_556 S
C3229 C3228 1.387 . S
C3229 C3231 1.387 1_545 S
H3230 C3237 0.950 . S
C3231 C3229 1.387 1_565 S
C3231 C3233 1.390 . S
C3231 H3235 0.950 . S
H3232 C3228 0.950 . S
C3233 C3231 1.390 . S
C3233 C3234 1.387 1_566 S
C3233 H3236 0.950 1_556 S
C3234 C3233 1.387 1_544 S
C3234 C3237 1.387 . S
H3235 C3231 0.950 . S
H3236 C3233 0.950 1_554 S
C3237 C3228 1.390 1_554 S
C3237 H3230 0.950 . S
C3237 C3234 1.387 . S
C3238 C3239 1.387 . S
C3238 H3242 0.950 . S
C3238 C3247 1.390 1_556 S
C3239 C3238 1.387 . S
C3239 C3241 1.387 . S
H3240 C3247 0.950 . S
C3241 C3239 1.387 . S
C3241 C3243 1.390 . S
C3241 H3245 0.950 . S
H3242 C3238 0.950 . S
C3243 C3241 1.390 . S
C3243 C3244 1.387 1_556 S
C3243 H3246 0.950 1_556 S
C3244 C3243 1.387 1_554 S
C3244 C3247 1.387 . S
H3245 C3241 0.950 . S
H3246 C3243 0.950 1_554 S
C3247 C3238 1.390 1_554 S
C3247 H3240 0.950 . S
C3247 C3244 1.387 . S
C3248 C3249 1.387 . S
C3248 H3252 0.950 . S
C3248 C3257 1.390 . S
C3249 C3248 1.387 . S
C3249 C3251 1.387 . S
H3250 C3257 0.950 . S
C3251 C3249 1.387 . S
C3251 C3253 1.390 . S
C3251 H3255 0.950 . S
H3252 C3248 0.950 . S
C3253 C3251 1.390 . S
C3253 C3254 1.387 . S
C3253 H3256 0.950 . S
C3254 C3253 1.387 . S
C3254 C3257 1.387 . S
H3255 C3251 0.950 . S
H3256 C3253 0.950 . S
C3257 C3248 1.390 . S
C3257 H3250 0.950 . S
C3257 C3254 1.387 . S
C3258 C3259 1.387 . S
C3258 H3262 0.950 . S
C3258 C3267 1.390 . S
C3259 C3258 1.387 . S
C3259 C3261 1.387 . S
H3260 C3267 0.950 . S
C3261 C3259 1.387 . S
C3261 C3263 1.390 . S
C3261 H3265 0.950 . S
H3262 C3258 0.950 . S
C3263 C3261 1.390 . S
C3263 C3264 1.387 . S
C3263 H3266 0.950 . S
C3264 C3263 1.387 . S
C3264 C3267 1.387 . S
H3265 C3261 0.950 . S
H3266 C3263 0.950 . S
C3267 C3258 1.390 . S
C3267 H3260 0.950 . S
C3267 C3264 1.387 . S
C3268 C3269 1.387 . S
C3268 H3272 0.950 . S
C3268 C3277 1.390 . S
C3269 C3268 1.387 . S
C3269 C3271 1.387 . S
H3270 C3277 0.950 . S
C3271 C3269 1.387 . S
C3271 C3273 1.390 . S
C3271 H3275 0.950 . S
H3272 C3268 0.950 . S
C3273 C3271 1.390 . S
C3273 C3274 1.387 . S
C3273 H3276 0.950 . S
C3274 C3273 1.387 . S
C3274 C3277 1.387 . S
H3275 C3271 0.950 . S
H3276 C3273 0.950 . S
C3277 C3268 1.390 . S
C3277 H3270 0.950 . S
C3277 C3274 1.387 . S
C3278 C3279 1.387 . S
C3278 H3282 0.950 . S
C3278 C3287 1.390 . S
C3279 C3278 1.387 . S
C3279 C3281 1.387 . S
H3280 C3287 0.950 . S
C3281 C3279 1.387 . S
C3281 C3283 1.390 . S
C3281 H3285 0.950 . S
H3282 C3278 0.950 . S
C3283 C3281 1.390 . S
C3283 C3284 1.387 . S
C3283 H3286 0.950 . S
C3284 C3283 1.387 . S
C3284 C3287 1.387 . S
H3285 C3281 0.950 . S
H3286 C3283 0.950 . S
C3287 C3278 1.390 . S
C3287 H3280 0.950 . S
C3287 C3284 1.387 . S
C3288 C3289 1.387 . S
C3288 H3292 0.950 . S
C3288 C3297 1.390 . S
C3289 C3288 1.387 . S
C3289 C3291 1.387 . S
H3290 C3297 0.950 . S
C3291 C3289 1.387 . S
C3291 C3293 1.390 . S
C3291 H3295 0.950 . S
H3292 C3288 0.950 . S
C3293 C3291 1.390 . S
C3293 C3294 1.387 . S
C3293 H3296 0.950 . S
C3294 C3293 1.387 . S
C3294 C3297 1.387 . S
H3295 C3291 0.950 . S
H3296 C3293 0.950 . S
C3297 C3288 1.390 . S
C3297 H3290 0.950 . S
C3297 C3294 1.387 . S
C3298 C3299 1.387 . S
C3298 H3302 0.950 . S
C3298 C3307 1.390 . S
C3299 C3298 1.387 . S
C3299 C3301 1.387 . S
H3300 C3307 0.950 . S
C3301 C3299 1.387 . S
C3301 C3303 1.390 . S
C3301 H3305 0.950 . S
H3302 C3298 0.950 . S
C3303 C3301 1.390 . S
C3303 C3304 1.387 . S
C3303 H3306 0.950 . S
C3304 C3303 1.387 . S
C3304 C3307 1.387 . S
H3305 C3301 0.950 . S
H3306 C3303 0.950 . S
C3307 C3298 1.390 . S
C3307 H3300 0.950 . S
C3307 C3304 1.387 . S
C3308 C3309 1.387 . S
C3308 H3312 0.950 . S
C3308 C3317 1.390 . S
C3309 C3308 1.387 . S
C3309 C3311 1.387 . S
H3310 C3317 0.950 . S
C3311 C3309 1.387 . S
C3311 C3313 1.390 . S
C3311 H3315 0.950 . S
H3312 C3308 0.950 . S
C3313 C3311 1.390 . S
C3313 C3314 1.387 . S
C3313 H3316 0.950 . S
C3314 C3313 1.387 . S
C3314 C3317 1.387 . S
H3315 C3311 0.950 . S
H3316 C3313 0.950 . S
C3317 C3308 1.390 . S
C3317 H3310 0.950 . S
C3317 C3314 1.387 . S
C3318 C3319 1.387 . S
C3318 H3322 0.950 . S
C3318 C3327 1.390 . S
C3319 C3318 1.387 . S
C3319 C3321 1.387 . S
H3320 C3327 0.950 . S
C3321 C3319 1.387 . S
C3321 C3323 1.390 . S
C3321 H3325 0.950 . S
H3322 C3318 0.950 . S
C3323 C3321 1.390 . S
C3323 C3324 1.387 . S
C3323 H3326 0.950 . S
C3324 C3323 1.387 . S
C3324 C3327 1.387 . S
H3325 C3321 0.950 . S
H3326 C3323 0.950 . S
C3327 C3318 1.390 . S
C3327 H3320 0.950 . S
C3327 C3324 1.387 . S
C3328 C3329 1.387 . S
C3328 H3332 0.950 . S
C3328 C3337 1.390 . S
C3329 C3328 1.387 . S
C3329 C3331 1.387 . S
H3330 C3337 0.950 . S
C3331 C3329 1.387 . S
C3331 C3333 1.390 . S
C3331 H3335 0.950 . S
H3332 C3328 0.950 . S
C3333 C3331 1.390 . S
C3333 C3334 1.387 . S
C3333 H3336 0.950 . S
C3334 C3333 1.387 . S
C3334 C3337 1.387 . S
H3335 C3331 0.950 . S
H3336 C3333 0.950 . S
C3337 C3328 1.390 . S
C3337 H3330 0.950 . S
C3337 C3334 1.387 . S
C3338 C3339 1.387 . S
C3338 H3342 0.950 . S
C3338 C3347 1.390 . S
C3339 C3338 1.387 . S
C3339 C3341 1.387 . S
H3340 C3347 0.950 . S
C3341 C3339 1.387 . S
C3341 C3343 1.390 . S
C3341 H3345 0.950 . S
H3342 C3338 0.950 . S
C3343 C3341 1.390 . S
C3343 C3344 1.387 . S
C3343 H3346 0.950 . S
C3344 C3343 1.387 . S
C3344 C3347 1.387 . S
H3345 C3341 0.950 . S
H3346 C3343 0.950 . S
C3347 C3338 1.390 . S
C3347 H3340 0.950 . S
C3347 C3344 1.387 . S
C3348 C3349 1.387 . S
C3348 H3352 0.950 . S
C3348 C3357 1.390 . S
C3349 C3348 1.387 . S
C3349 C3351 1.387 . S
H3350 C3357 0.950 . S
C3351 C3349 1.387 . S
C3351 C3353 1.390 . S
C3351 H3355 0.950 . S
H3352 C3348 0.950 . S
C3353 C3351 1.390 . S
C3353 C3354 1.387 . S
C3353 H3356 0.950 . S
C3354 C3353 1.387 . S
C3354 C3357 1.387 . S
H3355 C3351 0.950 . S
H3356 C3353 0.950 . S
C3357 C3348 1.390 . S
C3357 H3350 0.950 . S
C3357 C3354 1.387 . S
C3358 C3359 1.387 . S
C3358 H3362 0.950 . S
C3358 C3367 1.390 . S
C3359 C3358 1.387 . S
C3359 C3361 1.387 . S
H3360 C3367 0.950 . S
C3361 C3359 1.387 . S
C3361 C3363 1.390 . S
C3361 H3365 0.950 . S
H3362 C3358 0.950 . S
C3363 C3361 1.390 . S
C3363 C3364 1.387 . S
C3363 H3366 0.950 . S
C3364 C3363 1.387 . S
C3364 C3367 1.387 . S
H3365 C3361 0.950 . S
H3366 C3363 0.950 . S
C3367 C3358 1.390 . S
C3367 H3360 0.950 . S
C3367 C3364 1.387 . S
C3368 C3369 1.387 . S
C3368 H3372 0.950 . S
C3368 C3377 1.390 . S
C3369 C3368 1.387 . S
C3369 C3371 1.387 . S
H3370 C3377 0.950 . S
C3371 C3369 1.387 . S
C3371 C3373 1.390 . S
C3371 H3375 0.950 . S
H3372 C3368 0.950 . S
C3373 C3371 1.390 . S
C3373 C3374 1.387 . S
C3373 H3376 0.950 . S
C3374 C3373 1.387 . S
C3374 C3377 1.387 . S
H3375 C3371 0.950 . S
H3376 C3373 0.950 . S
C3377 C3368 1.390 . S
C3377 H3370 0.950 . S
C3377 C3374 1.387 . S
C3378 C3379 1.387 . S
C3378 H3382 0.950 . S
C3378 C3387 1.390 . S
C3379 C3378 1.387 . S
C3379 C3381 1.387 . S
H3380 C3387 0.950 . S
C3381 C3379 1.387 . S
C3381 C3383 1.390 . S
C3381 H3385 0.950 . S
H3382 C3378 0.950 . S
C3383 C3381 1.390 . S
C3383 C3384 1.387 . S
C3383 H3386 0.950 . S
C3384 C3383 1.387 . S
C3384 C3387 1.387 . S
H3385 C3381 0.950 . S
H3386 C3383 0.950 . S
C3387 C3378 1.390 . S
C3387 H3380 0.950 . S
C3387 C3384 1.387 . S
C3388 C3389 1.387 . S
C3388 H3392 0.950 . S
C3388 C3397 1.390 . S
C3389 C3388 1.387 . S
C3389 C3391 1.387 . S
H3390 C3397 0.950 . S
C3391 C3389 1.387 . S
C3391 C3393 1.390 . S
C3391 H3395 0.950 . S
H3392 C3388 0.950 . S
C3393 C3391 1.390 . S
C3393 C3394 1.387 . S
C3393 H3396 0.950 . S
C3394 C3393 1.387 . S
C3394 C3397 1.387 . S
H3395 C3391 0.950 . S
H3396 C3393 0.950 . S
C3397 C3388 1.390 . S
C3397 H3390 0.950 . S
C3397 C3394 1.387 . S
C3398 C3399 1.387 . S
C3398 H3402 0.950 . S
C3398 C3407 1.390 . S
C3399 C3398 1.387 . S
C3399 C3401 1.387 . S
H3400 C3407 0.950 . S
C3401 C3399 1.387 . S
C3401 C3403 1.390 . S
C3401 H3405 0.950 . S
H3402 C3398 0.950 . S
C3403 C3401 1.390 . S
C3403 C3404 1.387 . S
C3403 H3406 0.950 . S
C3404 C3403 1.387 . S
C3404 C3407 1.387 . S
H3405 C3401 0.950 . S
H3406 C3403 0.950 . S
C3407 C3398 1.390 . S
C3407 H3400 0.950 . S
C3407 C3404 1.387 . S
C3408 C3409 1.387 . S
C3408 H3412 0.950 . S
C3408 C3417 1.390 . S
C3409 C3408 1.387 . S
C3409 C3411 1.387 . S
H3410 C3417 0.950 . S
C3411 C3409 1.387 . S
C3411 C3413 1.390 . S
C3411 H3415 0.950 . S
H3412 C3408 0.950 . S
C3413 C3411 1.390 . S
C3413 C3414 1.387 . S
C3413 H3416 0.950 . S
C3414 C3413 1.387 . S
C3414 C3417 1.387 . S
H3415 C3411 0.950 . S
H3416 C3413 0.950 . S
C3417 C3408 1.390 . S
C3417 H3410 0.950 . S
C3417 C3414 1.387 . S
C3418 C3419 1.387 . S
C3418 H3422 0.950 . S
C3418 C3427 1.390 . S
C3419 C3418 1.387 . S
C3419 C3421 1.387 . S
H3420 C3427 0.950 . S
C3421 C3419 1.387 . S
C3421 C3423 1.390 . S
C3421 H3425 0.950 . S
H3422 C3418 0.950 . S
C3423 C3421 1.390 . S
C3423 C3424 1.387 . S
C3423 H3426 0.950 . S
C3424 C3423 1.387 . S
C3424 C3427 1.387 . S
H3425 C3421 0.950 . S
H3426 C3423 0.950 . S
C3427 C3418 1.390 . S
C3427 H3420 0.950 . S
C3427 C3424 1.387 . S
C3428 C3429 1.387 . S
C3428 H3432 0.950 . S
C3428 C3437 1.390 . S
C3429 C3428 1.387 . S
C3429 C3431 1.387 . S
H3430 C3437 0.950 . S
C3431 C3429 1.387 . S
C3431 C3433 1.390 . S
C3431 H3435 0.950 . S
H3432 C3428 0.950 . S
C3433 C3431 1.390 . S
C3433 C3434 1.387 . S
C3433 H3436 0.950 . S
C3434 C3433 1.387 . S
C3434 C3437 1.387 . S
H3435 C3431 0.950 . S
H3436 C3433 0.950 . S
C3437 C3428 1.390 . S
C3437 H3430 0.950 . S
C3437 C3434 1.387 . S
C3438 C3439 1.387 . S
C3438 H3442 0.950 . S
C3438 C3447 1.390 . S
C3439 C3438 1.387 . S
C3439 C3441 1.387 . S
H3440 C3447 0.950 . S
C3441 C3439 1.387 . S
C3441 C3443 1.390 . S
C3441 H3445 0.950 . S
H3442 C3438 0.950 . S
C3443 C3441 1.390 . S
C3443 C3444 1.387 . S
C3443 H3446 0.950 . S
C3444 C3443 1.387 . S
C3444 C3447 1.387 . S
H3445 C3441 0.950 . S
H3446 C3443 0.950 . S
C3447 C3438 1.390 . S
C3447 H3440 0.950 . S
C3447 C3444 1.387 . S
C3448 C3449 1.387 . S
C3448 H3452 0.950 . S
C3448 C3457 1.390 . S
C3449 C3448 1.387 . S
C3449 C3451 1.387 . S
H3450 C3457 0.950 . S
C3451 C3449 1.387 . S
C3451 C3453 1.390 . S
C3451 H3455 0.950 . S
H3452 C3448 0.950 . S
C3453 C3451 1.390 . S
C3453 C3454 1.387 . S
C3453 H3456 0.950 . S
C3454 C3453 1.387 . S
C3454 C3457 1.387 . S
H3455 C3451 0.950 . S
H3456 C3453 0.950 . S
C3457 C3448 1.390 . S
C3457 H3450 0.950 . S
C3457 C3454 1.387 . S
C3458 C3459 1.387 . S
C3458 H3462 0.950 . S
C3458 C3467 1.390 . S
C3459 C3458 1.387 . S
C3459 C3461 1.387 . S
H3460 C3467 0.950 . S
C3461 C3459 1.387 . S
C3461 C3463 1.390 . S
C3461 H3465 0.950 . S
H3462 C3458 0.950 . S
C3463 C3461 1.390 . S
C3463 C3464 1.387 . S
C3463 H3466 0.950 . S
C3464 C3463 1.387 . S
C3464 C3467 1.387 . S
H3465 C3461 0.950 . S
H3466 C3463 0.950 . S
C3467 C3458 1.390 . S
C3467 H3460 0.950 . S
C3467 C3464 1.387 . S
C3468 C3469 1.387 . S
C3468 H3472 0.950 . S
C3468 C3477 1.390 . S
C3469 C3468 1.387 . S
C3469 C3471 1.387 . S
H3470 C3477 0.950 . S
C3471 C3469 1.387 . S
C3471 C3473 1.390 . S
C3471 H3475 0.950 . S
H3472 C3468 0.950 . S
C3473 C3471 1.390 . S
C3473 C3474 1.387 . S
C3473 H3476 0.950 . S
C3474 C3473 1.387 . S
C3474 C3477 1.387 . S
H3475 C3471 0.950 . S
H3476 C3473 0.950 . S
C3477 C3468 1.390 . S
C3477 H3470 0.950 . S
C3477 C3474 1.387 . S
C3478 C3479 1.387 . S
C3478 H3482 0.950 . S
C3478 C3487 1.390 . S
C3479 C3478 1.387 . S
C3479 C3481 1.387 . S
H3480 C3487 0.950 . S
C3481 C3479 1.387 . S
C3481 C3483 1.390 . S
C3481 H3485 0.950 . S
H3482 C3478 0.950 . S
C3483 C3481 1.390 . S
C3483 C3484 1.387 . S
C3483 H3486 0.950 . S
C3484 C3483 1.387 . S
C3484 C3487 1.387 . S
H3485 C3481 0.950 . S
H3486 C3483 0.950 . S
C3487 C3478 1.390 . S
C3487 H3480 0.950 . S
C3487 C3484 1.387 . S
C3488 C3489 1.387 . S
C3488 H3492 0.950 . S
C3488 C3497 1.390 . S
C3489 C3488 1.387 . S
C3489 C3491 1.387 . S
H3490 C3497 0.950 . S
C3491 C3489 1.387 . S
C3491 C3493 1.390 . S
C3491 H3495 0.950 . S
H3492 C3488 0.950 . S
C3493 C3491 1.390 . S
C3493 C3494 1.387 . S
C3493 H3496 0.950 . S
C3494 C3493 1.387 . S
C3494 C3497 1.387 . S
H3495 C3491 0.950 . S
H3496 C3493 0.950 . S
C3497 C3488 1.390 . S
C3497 H3490 0.950 . S
C3497 C3494 1.387 . S
C3498 C3499 1.387 . S
C3498 H3502 0.950 . S
C3498 C3507 1.390 . S
C3499 C3498 1.387 . S
C3499 C3501 1.387 . S
H3500 C3507 0.950 . S
C3501 C3499 1.387 . S
C3501 C3503 1.390 . S
C3501 H3505 0.950 . S
H3502 C3498 0.950 . S
C3503 C3501 1.390 . S
C3503 C3504 1.387 . S
C3503 H3506 0.950 . S
C3504 C3503 1.387 . S
C3504 C3507 1.387 . S
H3505 C3501 0.950 . S
H3506 C3503 0.950 . S
C3507 C3498 1.390 . S
C3507 H3500 0.950 . S
C3507 C3504 1.387 . S
C3508 C3509 1.387 . S
C3508 H3512 0.950 . S
C3508 C3517 1.390 . S
C3509 C3508 1.387 . S
C3509 C3511 1.387 . S
H3510 C3517 0.950 . S
C3511 C3509 1.387 . S
C3511 C3513 1.390 . S
C3511 H3515 0.950 . S
H3512 C3508 0.950 . S
C3513 C3511 1.390 . S
C3513 C3514 1.387 . S
C3513 H3516 0.950 . S
C3514 C3513 1.387 . S
C3514 C3517 1.387 . S
H3515 C3511 0.950 . S
H3516 C3513 0.950 . S
C3517 C3508 1.390 . S
C3517 H3510 0.950 . S
C3517 C3514 1.387 . S
C3518 C3519 1.387 . S
C3518 H3522 0.950 . S
C3518 C3527 1.390 . S
C3519 C3518 1.387 . S
C3519 C3521 1.387 . S
H3520 C3527 0.950 . S
C3521 C3519 1.387 . S
C3521 C3523 1.390 . S
C3521 H3525 0.950 . S
H3522 C3518 0.950 . S
C3523 C3521 1.390 . S
C3523 C3524 1.387 . S
C3523 H3526 0.950 . S
C3524 C3523 1.387 . S
C3524 C3527 1.387 . S
H3525 C3521 0.950 . S
H3526 C3523 0.950 . S
C3527 C3518 1.390 . S
C3527 H3520 0.950 . S
C3527 C3524 1.387 . S
C3528 C3529 1.387 . S
C3528 H3532 0.950 . S
C3528 C3537 1.390 . S
C3529 C3528 1.387 . S
C3529 C3531 1.387 . S
H3530 C3537 0.950 . S
C3531 C3529 1.387 . S
C3531 C3533 1.390 . S
C3531 H3535 0.950 . S
H3532 C3528 0.950 . S
C3533 C3531 1.390 . S
C3533 C3534 1.387 . S
C3533 H3536 0.950 . S
C3534 C3533 1.387 . S
C3534 C3537 1.387 . S
H3535 C3531 0.950 . S
H3536 C3533 0.950 . S
C3537 C3528 1.390 . S
C3537 H3530 0.950 . S
C3537 C3534 1.387 . S
C3538 C3539 1.387 . S
C3538 H3542 0.950 . S
C3538 C3547 1.390 . S
C3539 C3538 1.387 . S
C3539 C3541 1.387 . S
H3540 C3547 0.950 . S
C3541 C3539 1.387 . S
C3541 C3543 1.390 . S
C3541 H3545 0.950 . S
H3542 C3538 0.950 . S
C3543 C3541 1.390 . S
C3543 C3544 1.387 . S
C3543 H3546 0.950 . S
C3544 C3543 1.387 . S
C3544 C3547 1.387 . S
H3545 C3541 0.950 . S
H3546 C3543 0.950 . S
C3547 C3538 1.390 . S
C3547 H3540 0.950 . S
C3547 C3544 1.387 . S
C3548 C3549 1.387 . S
C3548 H3552 0.950 . S
C3548 C3557 1.390 . S
C3549 C3548 1.387 . S
C3549 C3551 1.387 . S
H3550 C3557 0.950 . S
C3551 C3549 1.387 . S
C3551 C3553 1.390 . S
C3551 H3555 0.950 . S
H3552 C3548 0.950 . S
C3553 C3551 1.390 . S
C3553 C3554 1.387 . S
C3553 H3556 0.950 . S
C3554 C3553 1.387 . S
C3554 C3557 1.387 . S
H3555 C3551 0.950 . S
H3556 C3553 0.950 . S
C3557 C3548 1.390 . S
C3557 H3550 0.950 . S
C3557 C3554 1.387 . S
C3558 C3559 1.387 . S
C3558 H3562 0.950 . S
C3558 C3567 1.390 . S
C3559 C3558 1.387 . S
C3559 C3561 1.387 . S
H3560 C3567 0.950 . S
C3561 C3559 1.387 . S
C3561 C3563 1.390 . S
C3561 H3565 0.950 . S
H3562 C3558 0.950 . S
C3563 C3561 1.390 . S
C3563 C3564 1.387 . S
C3563 H3566 0.950 . S
C3564 C3563 1.387 . S
C3564 C3567 1.387 . S
H3565 C3561 0.950 . S
H3566 C3563 0.950 . S
C3567 C3558 1.390 . S
C3567 H3560 0.950 . S
C3567 C3564 1.387 . S
C3568 C3569 1.387 . S
C3568 H3572 0.950 . S
C3568 C3577 1.390 . S
C3569 C3568 1.387 . S
C3569 C3571 1.387 . S
H3570 C3577 0.950 . S
C3571 C3569 1.387 . S
C3571 C3573 1.390 . S
C3571 H3575 0.950 . S
H3572 C3568 0.950 . S
C3573 C3571 1.390 . S
C3573 C3574 1.387 . S
C3573 H3576 0.950 . S
C3574 C3573 1.387 . S
C3574 C3577 1.387 . S
H3575 C3571 0.950 . S
H3576 C3573 0.950 . S
C3577 C3568 1.390 . S
C3577 H3570 0.950 . S
C3577 C3574 1.387 . S
C3578 C3579 1.387 . S
C3578 H3582 0.950 . S
C3578 C3587 1.390 . S
C3579 C3578 1.387 . S
C3579 C3581 1.387 . S
H3580 C3587 0.950 . S
C3581 C3579 1.387 . S
C3581 C3583 1.390 . S
C3581 H3585 0.950 . S
H3582 C3578 0.950 . S
C3583 C3581 1.390 . S
C3583 C3584 1.387 . S
C3583 H3586 0.950 . S
C3584 C3583 1.387 . S
C3584 C3587 1.387 . S
H3585 C3581 0.950 . S
H3586 C3583 0.950 . S
C3587 C3578 1.390 . S
C3587 H3580 0.950 . S
C3587 C3584 1.387 . S
C3588 C3589 1.387 . S
C3588 H3592 0.950 . S
C3588 C3597 1.390 . S
C3589 C3588 1.387 . S
C3589 C3591 1.387 . S
H3590 C3597 0.950 . S
C3591 C3589 1.387 . S
C3591 C3593 1.390 . S
C3591 H3595 0.950 . S
H3592 C3588 0.950 . S
C3593 C3591 1.390 . S
C3593 C3594 1.387 . S
C3593 H3596 0.950 . S
C3594 C3593 1.387 . S
C3594 C3597 1.387 . S
H3595 C3591 0.950 . S
H3596 C3593 0.950 . S
C3597 C3588 1.390 . S
C3597 H3590 0.950 . S
C3597 C3594 1.387 . S
C3598 C3599 1.387 . S
C3598 H3602 0.950 . S
C3598 C3607 1.390 . S
C3599 C3598 1.387 . S
C3599 C3601 1.387 . S
H3600 C3607 0.950 . S
C3601 C3599 1.387 . S
C3601 C3603 1.390 . S
C3601 H3605 0.950 . S
H3602 C3598 0.950 . S
C3603 C3601 1.390 . S
C3603 C3604 1.387 . S
C3603 H3606 0.950 . S
C3604 C3603 1.387 . S
C3604 C3607 1.387 . S
H3605 C3601 0.950 . S
H3606 C3603 0.950 . S
C3607 C3598 1.390 . S
C3607 H3600 0.950 . S
C3607 C3604 1.387 . S
C3608 C3609 1.387 . S
C3608 H3612 0.950 . S
C3608 C3617 1.390 . S
C3609 C3608 1.387 . S
C3609 C3611 1.387 . S
H3610 C3617 0.950 . S
C3611 C3609 1.387 . S
C3611 C3613 1.390 . S
C3611 H3615 0.950 . S
H3612 C3608 0.950 . S
C3613 C3611 1.390 . S
C3613 C3614 1.387 . S
C3613 H3616 0.950 . S
C3614 C3613 1.387 . S
C3614 C3617 1.387 . S
H3615 C3611 0.950 . S
H3616 C3613 0.950 . S
C3617 C3608 1.390 . S
C3617 H3610 0.950 . S
C3617 C3614 1.387 . S
C3618 C3619 1.387 . S
C3618 H3622 0.950 . S
C3618 C3627 1.390 . S
C3619 C3618 1.387 . S
C3619 C3621 1.387 . S
H3620 C3627 0.950 . S
C3621 C3619 1.387 . S
C3621 C3623 1.390 . S
C3621 H3625 0.950 . S
H3622 C3618 0.950 . S
C3623 C3621 1.390 . S
C3623 C3624 1.387 . S
C3623 H3626 0.950 . S
C3624 C3623 1.387 . S
C3624 C3627 1.387 . S
H3625 C3621 0.950 . S
H3626 C3623 0.950 . S
C3627 C3618 1.390 . S
C3627 H3620 0.950 . S
C3627 C3624 1.387 . S
C3628 C3629 1.387 . S
C3628 H3632 0.950 . S
C3628 C3637 1.390 . S
C3629 C3628 1.387 . S
C3629 C3631 1.387 . S
H3630 C3637 0.950 . S
C3631 C3629 1.387 . S
C3631 C3633 1.390 . S
C3631 H3635 0.950 . S
H3632 C3628 0.950 . S
C3633 C3631 1.390 . S
C3633 C3634 1.387 . S
C3633 H3636 0.950 . S
C3634 C3633 1.387 . S
C3634 C3637 1.387 . S
H3635 C3631 0.950 . S
H3636 C3633 0.950 . S
C3637 C3628 1.390 . S
C3637 H3630 0.950 . S
C3637 C3634 1.387 . S
C3638 C3639 1.387 . S
C3638 H3642 0.950 . S
C3638 C3647 1.390 . S
C3639 C3638 1.387 . S
C3639 C3641 1.387 . S
H3640 C3647 0.950 . S
C3641 C3639 1.387 . S
C3641 C3643 1.390 . S
C3641 H3645 0.950 . S
H3642 C3638 0.950 . S
C3643 C3641 1.390 . S
C3643 C3644 1.387 . S
C3643 H3646 0.950 . S
C3644 C3643 1.387 . S
C3644 C3647 1.387 . S
H3645 C3641 0.950 . S
H3646 C3643 0.950 . S
C3647 C3638 1.390 . S
C3647 H3640 0.950 . S
C3647 C3644 1.387 . S
C2689 C2419 1.628 . S
C2694 C56 1.628 . S
C2699 C487 1.628 . S
C2704 C140 1.628 . S
C2709 C1915 1.628 . S
C2714 C224 1.628 . S
C2719 C1327 1.623 . S
C2724 C308 1.623 . S
C2729 C403 1.623 . S
C2734 C2072 1.623 . S
C2739 C1568 1.628 . S
C2744 C571 1.628 . S
C2749 C980 1.628 . S
C2754 C655 1.628 . S
C2759 C1747 1.628 . S
C2764 C728 1.628 . S
C2769 C812 1.623 . S
C2774 C1159 1.623 . S
C2779 C896 1.623 . S
C2784 C2587 1.623 . S
C2789 C1400 1.623 . S
C2794 C1075 1.623 . S
C2799 C1243 1.623 . S
C2804 C2240 1.623 . S
C2809 C1484 1.628 . S
C2814 C1831 1.628 . S
C2819 C1652 1.623 . S
C2824 C2671 1.623 . S
C2829 C2324 1.623 . S
C2834 C1999 1.623 . S
C2839 C2503 1.623 . S
C2844 C2156 1.623 . S
C2849 C1663 1.489 . S
C2854 C67 1.489 . S
C2859 C1579 1.491 1_565 S
C2864 C151 1.491 1_565 S
C2869 C1495 1.491 1_565 S
C2874 C235 1.491 1_565 S
C2879 C1411 1.489 . S
C2884 C319 1.489 . S
C2889 C1988 1.491 . S
C2894 C392 1.491 . S
C2899 C476 1.491 1_545 S
C2904 C1904 1.491 1_545 S
C2909 C560 1.489 1_545 S
C2914 C1820 1.489 1_545 S
C2919 C644 1.489 . S
C2924 C1736 1.489 . S
C2929 C739 1.489 . S
C2934 C2335 1.489 . S
C2939 C823 1.489 . S
C2944 C2251 1.489 . S
C2949 C907 1.491 . S
C2954 C2167 1.491 . S
C2959 C2083 1.489 . S
C2964 C991 1.489 . S
C2969 C1064 1.491 . S
C2974 C2660 1.491 . S
C2979 C1148 1.489 . S
C2984 C2576 1.489 . S
C2989 C1232 1.491 . S
C2994 C2492 1.491 . S
C2999 C2408 1.489 . S
C3004 C1316 1.489 . S
C3009 C70 1.481 . S
C3014 C58 1.481 . S
C3019 C154 1.480 1_565 S
C3024 C142 1.480 . S
C3029 C226 1.480 . S
C3034 C238 1.480 1_565 S
C3039 C310 1.481 . S
C3044 C322 1.481 . S
C3049 C406 1.480 . S
C3054 C394 1.480 . S
C3059 C490 1.481 . S
C3064 C478 1.481 1_545 S
C3069 C574 1.480 . S
C3074 C562 1.480 1_545 S
C3079 C646 1.481 . S
C3084 C658 1.481 . S
C3089 C742 1.480 . S
C3094 C730 1.480 . S
C3099 C814 1.481 . S
C3104 C826 1.481 . S
C3109 C898 1.481 . S
C3114 C910 1.481 . S
C3119 C982 1.480 . S
C3124 C994 1.480 . S
C3129 C1078 1.481 . S
C3134 C1066 1.481 . S
C3139 C1150 1.480 . S
C3144 C1162 1.480 . S
C3149 C1246 1.480 . S
C3154 C1234 1.480 . S
C3159 C1318 1.480 . S
C3164 C1330 1.480 . S
C3169 C1414 1.480 . S
C3174 C1402 1.480 . S
C3179 C1486 1.482 . S
C3184 C1498 1.482 1_565 S
C3189 C1570 1.481 . S
C3194 C1582 1.481 1_565 S
C3199 C1654 1.481 . S
C3204 C1666 1.481 . S
C3209 C1738 1.481 . S
C3214 C1750 1.481 . S
C3219 C1834 1.480 . S
C3224 C1822 1.480 1_545 S
C3229 C1906 1.481 1_545 S
C3234 C1918 1.481 . S
C3239 C1990 1.480 . S
C3244 C2002 1.480 . S
C3249 C2086 1.481 . S
C3254 C2074 1.481 . S
C3259 C2158 1.480 . S
C3264 C2170 1.480 . S
C3269 C2242 1.481 . S
C3274 C2254 1.481 . S
C3279 C2338 1.480 . S
C3284 C2326 1.480 . S
C3289 C2422 1.480 . S
C3294 C2410 1.480 . S
C3299 C2494 1.481 . S
C3304 C2506 1.481 . S
C3309 C2578 1.480 . S
C3314 C2590 1.480 . S
C3319 C2662 1.480 . S
C3324 C2674 1.480 . S
C3329 C914 1.736 . S
C3334 C74 1.736 . S
C3339 C998 1.736 . S
C3344 C158 1.736 . S
C3349 C242 1.736 . S
C3354 C746 1.736 . S
C3359 C830 1.736 . S
C3364 C326 1.736 . S
C3369 C399 1.736 . S
C3374 C1239 1.736 . S
C3379 C483 1.736 . S
C3384 C1323 1.736 . S
C3389 C567 1.736 . S
C3394 C1071 1.736 . S
C3399 C651 1.736 . S
C3404 C1155 1.736 . S
C3409 C2258 1.736 . S
C3414 C1418 1.736 . S
C3419 C1502 1.736 . S
C3424 C2342 1.736 . S
C3429 C2090 1.736 . S
C3434 C1586 1.736 . S
C3439 C1670 1.736 . S
C3444 C2174 1.736 . S
C3449 C2583 1.736 . S
C3454 C1743 1.736 . S
C3459 C1827 1.736 . S
C3464 C2667 1.736 . S
C3469 C1911 1.736 . S
C3474 C2415 1.736 . S
C3479 C2499 1.736 . S
C3484 C1995 1.736 . S
C3489 C63 1.332 . S
C3494 C231 1.332 . S
C3499 C315 1.332 . S
C3504 C147 1.332 . S
C3509 C578 1.332 . S
C3514 C410 1.332 . S
C3519 C494 1.335 . S
C3524 C662 1.335 . S
C3529 C735 1.332 . S
C3534 C903 1.332 . S
C3539 C987 1.335 . S
C3544 C819 1.335 . S
C3549 C1250 1.332 . S
C3554 C1082 1.332 . S
C3559 C1334 1.332 . S
C3564 C1166 1.332 . S
C3569 C1575 1.332 . S
C3574 C1407 1.332 . S
C3579 C1659 1.332 . S
C3584 C1491 1.332 . S
C3589 C1922 1.332 . S
C3594 C1754 1.332 . S
C3599 C2006 1.335 . S
C3604 C1838 1.335 . S
C3609 C2079 1.335 . S
C3614 C2247 1.335 . S
C3619 C2163 1.332 . S
C3624 C2331 1.332 . S
C3629 C2426 1.335 . S
C3634 C2594 1.335 . S
C3639 C2678 1.335 . S
C3644 C2510 1.335 . S
