# Generated by pormake.
# Topology gsi, (4)-cn, num edge types: 1
# Building blocks:
#     Node 0, Type 0, BuildingBlock: KUFVIS_clean_sbu_0, # of connection points: 4
#     Node 1, Type 0, BuildingBlock: KUFVIS_clean_sbu_0, # of connection points: 4
#     Node 2, Type 0, BuildingBlock: KUFVIS_clean_sbu_0, # of connection points: 4
#     Node 3, Type 0, BuildingBlock: KUFVIS_clean_sbu_0, # of connection points: 4
#     Node 4, Type 0, BuildingBlock: KUFVIS_clean_sbu_0, # of connection points: 4
#     Node 5, Type 0, BuildingBlock: KUFVIS_clean_sbu_0, # of connection points: 4
#     Node 6, Type 0, BuildingBlock: KUFVIS_clean_sbu_0, # of connection points: 4
#     Node 7, Type 0, BuildingBlock: KUFVIS_clean_sbu_0, # of connection points: 4
#     Node 8, Type 0, BuildingBlock: KUFVIS_clean_sbu_0, # of connection points: 4
#     Node 9, Type 0, BuildingBlock: KUFVIS_clean_sbu_0, # of connection points: 4
#     Node 10, Type 0, BuildingBlock: KUFVIS_clean_sbu_0, # of connection points: 4
#     Node 11, Type 0, BuildingBlock: KUFVIS_clean_sbu_0, # of connection points: 4
#     Node 12, Type 0, BuildingBlock: KUFVIS_clean_sbu_0, # of connection points: 4
#     Node 13, Type 0, BuildingBlock: KUFVIS_clean_sbu_0, # of connection points: 4
#     Node 14, Type 0, BuildingBlock: KUFVIS_clean_sbu_0, # of connection points: 4
#     Node 15, Type 0, BuildingBlock: KUFVIS_clean_sbu_0, # of connection points: 4
#     Edge 16, Type (0, 0), BuildingBlock: XUDNAN_clean_linker_2, # of connection points: 2
#     Edge 17, Type (0, 0), BuildingBlock: XUDNAN_clean_linker_2, # of connection points: 2
#     Edge 18, Type (0, 0), BuildingBlock: XUDNAN_clean_linker_2, # of connection points: 2
#     Edge 19, Type (0, 0), BuildingBlock: XUDNAN_clean_linker_2, # of connection points: 2
#     Edge 20, Type (0, 0), BuildingBlock: XUDNAN_clean_linker_2, # of connection points: 2
#     Edge 21, Type (0, 0), BuildingBlock: XUDNAN_clean_linker_2, # of connection points: 2
#     Edge 22, Type (0, 0), BuildingBlock: XUDNAN_clean_linker_2, # of connection points: 2
#     Edge 23, Type (0, 0), BuildingBlock: XUDNAN_clean_linker_2, # of connection points: 2
#     Edge 24, Type (0, 0), BuildingBlock: XUDNAN_clean_linker_2, # of connection points: 2
#     Edge 25, Type (0, 0), BuildingBlock: XUDNAN_clean_linker_2, # of connection points: 2
#     Edge 26, Type (0, 0), BuildingBlock: XUDNAN_clean_linker_2, # of connection points: 2
#     Edge 27, Type (0, 0), BuildingBlock: XUDNAN_clean_linker_2, # of connection points: 2
#     Edge 28, Type (0, 0), BuildingBlock: XUDNAN_clean_linker_2, # of connection points: 2
#     Edge 29, Type (0, 0), BuildingBlock: XUDNAN_clean_linker_2, # of connection points: 2
#     Edge 30, Type (0, 0), BuildingBlock: XUDNAN_clean_linker_2, # of connection points: 2
#     Edge 31, Type (0, 0), BuildingBlock: XUDNAN_clean_linker_2, # of connection points: 2
#     Edge 32, Type (0, 0), BuildingBlock: XUDNAN_clean_linker_2, # of connection points: 2
#     Edge 33, Type (0, 0), BuildingBlock: XUDNAN_clean_linker_2, # of connection points: 2
#     Edge 34, Type (0, 0), BuildingBlock: XUDNAN_clean_linker_2, # of connection points: 2
#     Edge 35, Type (0, 0), BuildingBlock: XUDNAN_clean_linker_2, # of connection points: 2
#     Edge 36, Type (0, 0), BuildingBlock: XUDNAN_clean_linker_2, # of connection points: 2
#     Edge 37, Type (0, 0), BuildingBlock: XUDNAN_clean_linker_2, # of connection points: 2
#     Edge 38, Type (0, 0), BuildingBlock: XUDNAN_clean_linker_2, # of connection points: 2
#     Edge 39, Type (0, 0), BuildingBlock: XUDNAN_clean_linker_2, # of connection points: 2
#     Edge 40, Type (0, 0), BuildingBlock: XUDNAN_clean_linker_2, # of connection points: 2
#     Edge 41, Type (0, 0), BuildingBlock: XUDNAN_clean_linker_2, # of connection points: 2
#     Edge 42, Type (0, 0), BuildingBlock: XUDNAN_clean_linker_2, # of connection points: 2
#     Edge 43, Type (0, 0), BuildingBlock: XUDNAN_clean_linker_2, # of connection points: 2
#     Edge 44, Type (0, 0), BuildingBlock: XUDNAN_clean_linker_2, # of connection points: 2
#     Edge 45, Type (0, 0), BuildingBlock: XUDNAN_clean_linker_2, # of connection points: 2
#     Edge 46, Type (0, 0), BuildingBlock: XUDNAN_clean_linker_2, # of connection points: 2
#     Edge 47, Type (0, 0), BuildingBlock: XUDNAN_clean_linker_2, # of connection points: 2
# Relax obj value: 0.113
# Max RMSD: 0.169
# Mean RMSD: 0.121
data_MOF--net-gsi--node1-KUFVIS_clean_sbu_0--edge1-XUDNAN_clean_linker_2
_symmetry_space_group_name_H-M    P1
_symmetry_Int_Tables_number       1
_symmetry_cell_setting            triclinic
loop_
_symmetry_equiv_pos_as_xyz
'x, y, z'
_cell_length_a     42.375994
_cell_length_b     40.849142
_cell_length_c     40.295383
_cell_angle_alpha  92.472865
_cell_angle_beta   91.705883
_cell_angle_gamma 96.301525
loop_
_atom_site_label
_atom_site_type_symbol
_atom_site_fract_x
_atom_site_fract_y
_atom_site_fract_z
_atom_type_partial_charge
Mn0 Mn 0.16428 0.14658 0.15668 0.0
Mn1 Mn 0.1421 0.15506 0.23625 0.0
C2 C 0.18778 0.19059 0.19221 0.0
C3 C 0.19675 0.12789 0.11486 0.0
C4 C 0.10298 0.17416 0.17742 0.0
O5 O 0.14355 0.09939 0.16527 0.0
O6 O 0.13189 0.10972 0.21836 0.0
C7 C 0.18394 0.11194 0.26922 0.0
N8 N 0.17234 0.14163 0.26734 0.0
C9 C 0.1889 0.157 0.32392 0.0
C10 C 0.20145 0.12678 0.32644 0.0
C11 C 0.19941 0.10437 0.29877 0.0
C12 C 0.17573 0.16405 0.29315 0.0
H13 H 0.1807 0.09394 0.24863 0.0
C14 C 0.13296 0.08993 0.1932 0.0
O15 O 0.16868 0.1361 0.10807 0.0
O16 O 0.20545 0.12906 0.14611 0.0
N17 N 0.15039 0.19759 0.25821 0.0
C18 C 0.13735 0.22569 0.25138 0.0
C19 C 0.13754 0.25084 0.27629 0.0
C20 C 0.14957 0.24609 0.30839 0.0
C21 C 0.16247 0.21674 0.31492 0.0
C22 C 0.16354 0.19353 0.28852 0.0
H23 H 0.12615 0.22848 0.2274 0.0
O24 O 0.18703 0.19249 0.16014 0.0
O25 O 0.17451 0.16309 0.20283 0.0
O26 O 0.12111 0.16572 0.15465 0.0
O27 O 0.10881 0.17015 0.20799 0.0
C28 C 0.1736 0.20916 0.34675 0.0
C29 C 0.1875 0.17968 0.35107 0.0
H30 H 0.2122 0.1203 0.34963 0.0
H31 H 0.20864 0.08082 0.30064 0.0
H32 H 0.12728 0.27328 0.27113 0.0
H33 H 0.14854 0.26501 0.32788 0.0
H34 H 0.17221 0.22611 0.36793 0.0
H35 H 0.19671 0.17454 0.37543 0.0
Mn36 Mn 0.87066 0.34938 0.17083 0.0
Mn37 Mn 0.88859 0.32519 0.24769 0.0
C38 C 0.84224 0.3035 0.19273 0.0
C39 C 0.84225 0.37696 0.13193 0.0
C40 C 0.92915 0.31438 0.18863 0.0
O41 O 0.89345 0.3921 0.19396 0.0
O42 O 0.90313 0.37252 0.24446 0.0
C43 C 0.85063 0.36455 0.29068 0.0
N44 N 0.85722 0.33456 0.2784 0.0
C45 C 0.82505 0.30643 0.31866 0.0
C46 C 0.81909 0.33705 0.33245 0.0
C47 C 0.83125 0.36621 0.31808 0.0
C48 C 0.84477 0.30631 0.29156 0.0
H49 H 0.86088 0.38709 0.28038 0.0
C50 C 0.9036 0.39606 0.22444 0.0
O51 O 0.87021 0.36856 0.12612 0.0
O52 O 0.83139 0.37127 0.16118 0.0
N53 N 0.87495 0.27968 0.25394 0.0
C54 C 0.88624 0.25237 0.24021 0.0
C55 C 0.87517 0.22112 0.25113 0.0
C56 C 0.85313 0.21831 0.27648 0.0
C57 C 0.84239 0.24681 0.29071 0.0
C58 C 0.85384 0.27724 0.2784 0.0
H59 H 0.90353 0.25436 0.22107 0.0
O60 O 0.84416 0.30569 0.16077 0.0
O61 O 0.85797 0.32722 0.21059 0.0
O62 O 0.91224 0.3274 0.16728 0.0
O63 O 0.92244 0.31349 0.2191 0.0
C64 C 0.82123 0.24629 0.31704 0.0
C65 C 0.81284 0.27612 0.33126 0.0
H66 H 0.80564 0.3384 0.35438 0.0
H67 H 0.82639 0.38987 0.32865 0.0
H68 H 0.8838 0.19928 0.2402 0.0
H69 H 0.84484 0.19419 0.28504 0.0
H70 H 0.81178 0.22313 0.32695 0.0
H71 H 0.79708 0.27549 0.35194 0.0
Mn72 Mn 0.16189 0.85641 0.35441 0.0
Mn73 Mn 0.16535 0.78063 0.38465 0.0
C74 C 0.19366 0.82058 0.3301 0.0
C75 C 0.14173 0.89223 0.31701 0.0
C76 C 0.19722 0.84359 0.41959 0.0
O77 O 0.12075 0.84866 0.37899 0.0
O78 O 0.12436 0.7972 0.39631 0.0
C79 C 0.11236 0.74063 0.34704 0.0
N80 N 0.14373 0.74597 0.35641 0.0
C81 C 0.15405 0.69475 0.32926 0.0
C82 C 0.12183 0.68867 0.31945 0.0
C83 C 0.10093 0.71175 0.32832 0.0
C84 C 0.16401 0.72373 0.34831 0.0
H85 H 0.09614 0.75819 0.35384 0.0
C86 C 0.1091 0.82233 0.39238 0.0
O87 O 0.15534 0.90307 0.34526 0.0
O88 O 0.13814 0.86055 0.31134 0.0
N89 N 0.2033 0.76168 0.37362 0.0
C90 C 0.2342 0.77385 0.38017 0.0
C91 C 0.25853 0.75516 0.37036 0.0
C92 C 0.25083 0.72418 0.35388 0.0
C93 C 0.21888 0.71241 0.34689 0.0
C94 C 0.19565 0.73216 0.35725 0.0
H95 H 0.24023 0.79797 0.39208 0.0
O96 O 0.20058 0.85224 0.32837 0.0
O97 O 0.16954 0.81079 0.34772 0.0
O98 O 0.18856 0.86368 0.39862 0.0
O99 O 0.18921 0.81265 0.41649 0.0
C100 C 0.20924 0.6826 0.32867 0.0
C101 C 0.17684 0.6737 0.31999 0.0
H102 H 0.11297 0.66659 0.30471 0.0
H103 H 0.07605 0.70728 0.32075 0.0
H104 H 0.28315 0.76472 0.37521 0.0
H105 H 0.26965 0.71004 0.34594 0.0
H106 H 0.22666 0.66679 0.32039 0.0
H107 H 0.16982 0.6511 0.30529 0.0
Mn108 Mn 0.84567 0.65883 0.3774 0.0
Mn109 Mn 0.85572 0.66915 0.29515 0.0
C110 C 0.82089 0.6984 0.34941 0.0
C111 C 0.81574 0.63583 0.42104 0.0
C112 C 0.90418 0.69804 0.34877 0.0
O113 O 0.86362 0.6155 0.36255 0.0
O114 O 0.86934 0.62705 0.3088 0.0
C115 C 0.80603 0.61514 0.27286 0.0
N116 N 0.81952 0.6468 0.27095 0.0
C117 C 0.78157 0.65717 0.22811 0.0
C118 C 0.76798 0.62434 0.22882 0.0
C119 C 0.78007 0.60333 0.25154 0.0
C120 C 0.80735 0.66751 0.25001 0.0
H121 H 0.81479 0.59914 0.29077 0.0
C122 C 0.87137 0.60797 0.33284 0.0
O123 O 0.84511 0.64844 0.42604 0.0
O124 O 0.80491 0.6344 0.39057 0.0
N125 N 0.84307 0.70824 0.27658 0.0
C126 C 0.85701 0.73976 0.28098 0.0
C127 C 0.84834 0.76386 0.25982 0.0
C128 C 0.82416 0.75574 0.23533 0.0
C129 C 0.80945 0.72329 0.23176 0.0
C130 C 0.82035 0.69994 0.25248 0.0
H131 H 0.87419 0.7465 0.30078 0.0
O132 O 0.82535 0.70116 0.38137 0.0
O133 O 0.83069 0.67271 0.33476 0.0
O134 O 0.88986 0.68525 0.37346 0.0
O135 O 0.89335 0.69386 0.31866 0.0
C136 C 0.78428 0.71322 0.20866 0.0
C137 C 0.77013 0.68024 0.20706 0.0
H138 H 0.7479 0.61518 0.21247 0.0
H139 H 0.76933 0.57813 0.25271 0.0
H140 H 0.86026 0.78867 0.26257 0.0
H141 H 0.81692 0.77464 0.21962 0.0
H142 H 0.77524 0.73077 0.19245 0.0
H143 H 0.75031 0.67295 0.18975 0.0
Mn144 Mn 0.35762 0.83972 0.66792 0.0
Mn145 Mn 0.36071 0.83511 0.75116 0.0
C146 C 0.32099 0.80305 0.69477 0.0
C147 C 0.33601 0.86102 0.61999 0.0
C148 C 0.40913 0.80755 0.70607 0.0
O149 O 0.38291 0.88432 0.68384 0.0
O150 O 0.37873 0.87948 0.73932 0.0
C151 C 0.31389 0.88195 0.76594 0.0
N152 N 0.32407 0.85173 0.76909 0.0
C153 C 0.27724 0.83246 0.79782 0.0
C154 C 0.26601 0.86322 0.79443 0.0
C155 C 0.28455 0.88817 0.77868 0.0
C156 C 0.30652 0.82765 0.78444 0.0
H157 H 0.32767 0.90085 0.75313 0.0
C158 C 0.38686 0.89588 0.71406 0.0
O159 O 0.36238 0.84756 0.61935 0.0
O160 O 0.32322 0.86375 0.6486 0.0
N161 N 0.34325 0.79333 0.76602 0.0
C162 C 0.35498 0.76365 0.76311 0.0
C163 C 0.34133 0.73714 0.78074 0.0
C164 C 0.315 0.7411 0.80019 0.0
C165 C 0.3016 0.77101 0.80042 0.0
C166 C 0.31739 0.7971 0.78395 0.0
H167 H 0.37461 0.7602 0.74756 0.0
O168 O 0.327 0.79756 0.66378 0.0
O169 O 0.33777 0.82851 0.70867 0.0
O170 O 0.39602 0.81376 0.67834 0.0
O171 O 0.39855 0.81621 0.73419 0.0
C172 C 0.27273 0.77571 0.81536 0.0
C173 C 0.25989 0.80587 0.81253 0.0
H174 H 0.24292 0.86777 0.80319 0.0
H175 H 0.27598 0.91192 0.77584 0.0
H176 H 0.351 0.7137 0.77926 0.0
H177 H 0.30467 0.72062 0.81393 0.0
H178 H 0.2595 0.75591 0.82782 0.0
H179 H 0.23652 0.80828 0.82152 0.0
Mn180 Mn 0.86413 0.87749 0.86252 0.0
Mn181 Mn 0.82237 0.80988 0.89022 0.0
C182 C 0.83956 0.83627 0.82483 0.0
C183 C 0.86494 0.92998 0.84066 0.0
C184 C 0.8946 0.82177 0.89536 0.0
O185 O 0.85409 0.89208 0.91068 0.0
O186 O 0.82225 0.84656 0.92376 0.0
C187 C 0.75894 0.83375 0.88828 0.0
N188 N 0.77855 0.81109 0.87861 0.0
C189 C 0.73864 0.78397 0.84027 0.0
C190 C 0.71795 0.80694 0.84977 0.0
C191 C 0.72808 0.8318 0.87412 0.0
C192 C 0.76881 0.78668 0.85573 0.0
H193 H 0.76697 0.85349 0.90621 0.0
C194 C 0.83516 0.87603 0.93015 0.0
O195 O 0.89055 0.9202 0.85363 0.0
O196 O 0.83888 0.91077 0.84341 0.0
N197 N 0.82053 0.77279 0.85945 0.0
C198 C 0.84364 0.75313 0.85223 0.0
C199 C 0.83643 0.72525 0.83068 0.0
C200 C 0.80574 0.71825 0.81631 0.0
C201 C 0.78271 0.73952 0.82322 0.0
C202 C 0.7908 0.76591 0.84624 0.0
H203 H 0.86728 0.75837 0.86314 0.0
O204 O 0.86382 0.85579 0.81619 0.0
O205 O 0.83234 0.84057 0.85558 0.0
O206 O 0.89757 0.84862 0.87993 0.0
O207 O 0.8676 0.80657 0.90178 0.0
C208 C 0.75242 0.73633 0.80744 0.0
C209 C 0.73114 0.75952 0.81484 0.0
H210 H 0.69443 0.80596 0.83826 0.0
H211 H 0.71237 0.84978 0.88148 0.0
H212 H 0.85448 0.70922 0.82513 0.0
H213 H 0.80029 0.69662 0.7998 0.0
H214 H 0.74545 0.71679 0.78884 0.0
H215 H 0.70921 0.75865 0.80045 0.0
Mn216 Mn 0.14222 0.68582 0.87276 0.0
Mn217 Mn 0.17202 0.76127 0.90439 0.0
C218 C 0.1533 0.72852 0.83663 0.0
C219 C 0.14405 0.6315 0.85151 0.0
C220 C 0.10252 0.73639 0.90581 0.0
O221 O 0.16104 0.67507 0.91768 0.0
O222 O 0.1763 0.72682 0.93692 0.0
C223 C 0.23939 0.74847 0.91145 0.0
N224 N 0.21707 0.7675 0.90059 0.0
C225 C 0.25693 0.81262 0.89207 0.0
C226 C 0.28038 0.79357 0.90319 0.0
C227 C 0.2716 0.76115 0.91243 0.0
C228 C 0.22542 0.79801 0.88999 0.0
H229 H 0.23267 0.72401 0.91978 0.0
C230 C 0.17396 0.69569 0.94005 0.0
O231 O 0.11976 0.64076 0.86655 0.0
O232 O 0.16816 0.65382 0.84911 0.0
N233 N 0.17143 0.79888 0.87786 0.0
C234 C 0.14593 0.81453 0.86887 0.0
C235 C 0.1507 0.84672 0.85766 0.0
C236 C 0.18153 0.8633 0.85773 0.0
C237 C 0.20731 0.84739 0.86871 0.0
C238 C 0.20121 0.81474 0.8781 0.0
H239 H 0.12216 0.80224 0.8695 0.0
O240 O 0.13174 0.70394 0.82939 0.0
O241 O 0.16769 0.7283 0.86581 0.0
O242 O 0.10586 0.7075 0.89437 0.0
O243 O 0.12566 0.75895 0.90982 0.0
C244 C 0.23869 0.86303 0.87176 0.0
C245 C 0.26353 0.84559 0.88318 0.0
H246 H 0.30516 0.80359 0.90476 0.0
H247 H 0.28952 0.74628 0.92109 0.0
H248 H 0.13059 0.85899 0.84973 0.0
H249 H 0.18506 0.88843 0.84988 0.0
H250 H 0.24404 0.8884 0.86512 0.0
H251 H 0.28762 0.85769 0.88484 0.0
Mn252 Mn 0.86711 0.18147 0.66994 0.0
Mn253 Mn 0.91105 0.20004 0.74076 0.0
C254 C 0.84274 0.192 0.71925 0.0
C255 C 0.83746 0.19405 0.62301 0.0
C256 C 0.89428 0.13033 0.71328 0.0
O257 O 0.91034 0.19726 0.65175 0.0
O258 O 0.93776 0.20395 0.70088 0.0
C259 C 0.93287 0.27052 0.73182 0.0
N260 N 0.91807 0.24658 0.75025 0.0
C261 C 0.91847 0.28421 0.79796 0.0
C262 C 0.93366 0.30925 0.77948 0.0
C263 C 0.94057 0.30246 0.74615 0.0
C264 C 0.91055 0.25312 0.78205 0.0
H265 H 0.93918 0.26522 0.70657 0.0
C266 C 0.93606 0.20476 0.66908 0.0
O267 O 0.84815 0.16561 0.6251 0.0
O268 O 0.84653 0.21598 0.6466 0.0
N269 N 0.88859 0.19835 0.78123 0.0
C270 C 0.87188 0.17207 0.79474 0.0
C271 C 0.86061 0.17557 0.82699 0.0
C272 C 0.86751 0.20568 0.84535 0.0
C273 C 0.88509 0.23224 0.83102 0.0
C274 C 0.89462 0.22766 0.79834 0.0
H275 H 0.86726 0.14864 0.78103 0.0
O276 O 0.8285 0.17291 0.69555 0.0
O277 O 0.87192 0.20401 0.71416 0.0
O278 O 0.88178 0.13797 0.68587 0.0
O279 O 0.9057 0.15179 0.73543 0.0
C280 C 0.89379 0.26297 0.84793 0.0
C281 C 0.91081 0.28884 0.83154 0.0
H282 H 0.94007 0.3338 0.79058 0.0
H283 H 0.95235 0.32164 0.73174 0.0
H284 H 0.84714 0.15493 0.8379 0.0
H285 H 0.85926 0.20812 0.87042 0.0
H286 H 0.88718 0.26712 0.8734 0.0
H287 H 0.91696 0.3125 0.84463 0.0
Mn288 Mn 0.19993 0.37723 0.69054 0.0
Mn289 Mn 0.16532 0.34046 0.75585 0.0
C290 C 0.23046 0.36039 0.7355 0.0
C291 C 0.22435 0.37429 0.63891 0.0
C292 C 0.16487 0.41343 0.74359 0.0
O293 O 0.15458 0.35945 0.67147 0.0
O294 O 0.13768 0.33109 0.71575 0.0
C295 C 0.16919 0.2711 0.73271 0.0
N296 N 0.17417 0.29559 0.7569 0.0
C297 C 0.19467 0.25886 0.79513 0.0
C298 C 0.1881 0.23282 0.77124 0.0
C299 C 0.17579 0.2391 0.73967 0.0
C300 C 0.18772 0.29023 0.78663 0.0
H301 H 0.1614 0.27628 0.70802 0.0
C302 C 0.13441 0.33905 0.68558 0.0
O303 O 0.21222 0.40058 0.6491 0.0
O304 O 0.22041 0.34914 0.6575 0.0
N305 N 0.19038 0.34704 0.79637 0.0
C306 C 0.19867 0.37544 0.81506 0.0
C307 C 0.21346 0.37399 0.84653 0.0
C308 C 0.21913 0.34336 0.85863 0.0
C309 C 0.21062 0.31447 0.83884 0.0
C310 C 0.19616 0.31748 0.80763 0.0
H311 H 0.19368 0.39897 0.80621 0.0
O312 O 0.24248 0.38327 0.71673 0.0
O313 O 0.20123 0.35013 0.7281 0.0
O314 O 0.18268 0.41435 0.71855 0.0
O315 O 0.1556 0.38679 0.75773 0.0
C316 C 0.21611 0.28282 0.84873 0.0
C317 C 0.20861 0.25511 0.8267 0.0
H318 H 0.19335 0.20817 0.7765 0.0
H319 H 0.17177 0.21944 0.72065 0.0
H320 H 0.22011 0.39639 0.8616 0.0
H321 H 0.23035 0.34234 0.88302 0.0
H322 H 0.22681 0.2796 0.87296 0.0
H323 H 0.21401 0.23111 0.83412 0.0
Mn324 Mn 0.65542 0.18107 0.37525 0.0
Mn325 Mn 0.67488 0.2611 0.39855 0.0
C326 C 0.67184 0.21859 0.33498 0.0
C327 C 0.66275 0.12576 0.36323 0.0
C328 C 0.60751 0.22905 0.39406 0.0
O329 O 0.66747 0.17873 0.4249 0.0
O330 O 0.68045 0.23311 0.43659 0.0
C331 C 0.74281 0.2652 0.41826 0.0
N332 N 0.71922 0.27525 0.39879 0.0
C333 C 0.7508 0.32615 0.38862 0.0
C334 C 0.77537 0.31648 0.40884 0.0
C335 C 0.77163 0.28556 0.42307 0.0
C336 C 0.7232 0.30421 0.38359 0.0
H337 H 0.73921 0.24242 0.43098 0.0
C338 C 0.67785 0.20307 0.4448 0.0
O339 O 0.63597 0.13478 0.37244 0.0
O340 O 0.68643 0.14881 0.36225 0.0
N341 N 0.67089 0.29134 0.36441 0.0
C342 C 0.64436 0.29724 0.34671 0.0
C343 C 0.6449 0.326 0.32877 0.0
C344 C 0.67215 0.34903 0.33053 0.0
C345 C 0.69891 0.3426 0.34947 0.0
C346 C 0.69764 0.31259 0.36508 0.0
H347 H 0.62288 0.28035 0.3467 0.0
O348 O 0.65185 0.19256 0.32794 0.0
O349 O 0.67986 0.22351 0.36649 0.0
O350 O 0.61411 0.20085 0.38422 0.0
O351 O 0.62857 0.25296 0.40072 0.0
C352 C 0.72644 0.36515 0.35424 0.0
C353 C 0.75208 0.3572 0.37432 0.0
H354 H 0.79718 0.33266 0.41372 0.0
H355 H 0.79046 0.27799 0.43872 0.0
H356 H 0.62404 0.3309 0.31449 0.0
H357 H 0.67214 0.37173 0.31759 0.0
H358 H 0.72796 0.38885 0.34299 0.0
H359 H 0.77273 0.37517 0.37852 0.0
Mn360 Mn 0.65176 0.65922 0.66173 0.0
Mn361 Mn 0.64175 0.66439 0.74499 0.0
C362 C 0.67329 0.70687 0.69291 0.0
C363 C 0.67974 0.64326 0.6148 0.0
C364 C 0.58997 0.67508 0.69401 0.0
O365 O 0.63899 0.61037 0.67264 0.0
O366 O 0.63738 0.61871 0.72772 0.0
C367 C 0.69699 0.63241 0.76858 0.0
N368 N 0.67901 0.65803 0.77032 0.0
C369 C 0.70004 0.67507 0.8251 0.0
C370 C 0.71932 0.64925 0.82378 0.0
C371 C 0.71814 0.62813 0.79516 0.0
C372 C 0.68117 0.67947 0.79691 0.0
H373 H 0.69455 0.61499 0.74744 0.0
C374 C 0.63566 0.59961 0.70184 0.0
O375 O 0.6498 0.64719 0.61297 0.0
O376 O 0.69352 0.64785 0.64408 0.0
N377 N 0.64428 0.70653 0.76781 0.0
C378 C 0.62333 0.72945 0.76553 0.0
C379 C 0.62152 0.75266 0.79195 0.0
C380 C 0.63955 0.7506 0.82144 0.0
C381 C 0.6598 0.72583 0.82391 0.0
C382 C 0.66221 0.7048 0.79591 0.0
H383 H 0.60773 0.7297 0.74387 0.0
O384 O 0.66797 0.70706 0.66106 0.0
O385 O 0.66659 0.67853 0.70617 0.0
O386 O 0.60563 0.67169 0.66768 0.0
O387 O 0.60162 0.67141 0.72287 0.0
C388 C 0.67771 0.72113 0.85307 0.0
C389 C 0.69817 0.69607 0.8535 0.0
H390 H 0.73477 0.64515 0.84474 0.0
H391 H 0.7326 0.60789 0.79411 0.0
H392 H 0.60532 0.77126 0.79008 0.0
H393 H 0.63733 0.76787 0.84218 0.0
H394 H 0.6764 0.73706 0.87506 0.0
H395 H 0.71224 0.69309 0.87582 0.0
Mn396 Mn 0.67716 0.36905 0.86258 0.0
Mn397 Mn 0.68305 0.29555 0.89717 0.0
C398 C 0.71301 0.33465 0.84315 0.0
C399 C 0.65694 0.40246 0.82285 0.0
C400 C 0.70798 0.36106 0.93158 0.0
O401 O 0.63412 0.35912 0.88405 0.0
O402 O 0.6404 0.3093 0.90445 0.0
C403 C 0.63557 0.25125 0.85631 0.0
N404 N 0.66598 0.25914 0.86831 0.0
C405 C 0.68218 0.20933 0.84332 0.0
C406 C 0.65103 0.20067 0.83076 0.0
C407 C 0.62766 0.22177 0.83721 0.0
C408 C 0.68862 0.23891 0.86242 0.0
H409 H 0.61749 0.2673 0.86131 0.0
C410 C 0.62387 0.33301 0.89869 0.0
O411 O 0.6685 0.41446 0.85155 0.0
O412 O 0.65581 0.37078 0.8176 0.0
N413 N 0.72332 0.27956 0.89066 0.0
C414 C 0.75283 0.29348 0.9011 0.0
C415 C 0.77935 0.27679 0.89429 0.0
C416 C 0.77522 0.24587 0.87711 0.0
C417 C 0.74461 0.23205 0.86662 0.0
C418 C 0.71909 0.24989 0.87399 0.0
H419 H 0.75611 0.31727 0.91426 0.0
O420 O 0.71826 0.36625 0.8397 0.0
O421 O 0.68809 0.3245 0.85935 0.0
O422 O 0.70086 0.3793 0.90816 0.0
O423 O 0.70172 0.32986 0.92987 0.0
C424 C 0.73853 0.20177 0.84822 0.0
C425 C 0.70732 0.19036 0.83668 0.0
H426 H 0.64487 0.17809 0.81577 0.0
H427 H 0.6036 0.2153 0.82747 0.0
H428 H 0.80293 0.28775 0.9022 0.0
H429 H 0.79576 0.2332 0.87168 0.0
H430 H 0.75779 0.18744 0.84214 0.0
H431 H 0.70307 0.1674 0.82194 0.0
Mn432 Mn 0.36329 0.15715 0.87957 0.0
Mn433 Mn 0.38286 0.17264 0.80007 0.0
C434 C 0.3442 0.2006 0.85235 0.0
C435 C 0.33271 0.13307 0.92193 0.0
C436 C 0.42681 0.19346 0.85942 0.0
O437 O 0.37816 0.11308 0.86267 0.0
O438 O 0.39106 0.12732 0.81082 0.0
C439 C 0.33317 0.12504 0.766 0.0
N440 N 0.34798 0.15628 0.77046 0.0
C441 C 0.31528 0.17538 0.72708 0.0
C442 C 0.29984 0.14334 0.72192 0.0
C443 C 0.30874 0.11808 0.74158 0.0
C444 C 0.33932 0.18083 0.75196 0.0
H445 H 0.33992 0.10565 0.78098 0.0
C446 C 0.3885 0.10663 0.83378 0.0
O447 O 0.36254 0.14348 0.9263 0.0
O448 O 0.32047 0.13511 0.89218 0.0
N449 N 0.37598 0.21525 0.78517 0.0
C450 C 0.39259 0.24502 0.79387 0.0
C451 C 0.38694 0.27277 0.77619 0.0
C452 C 0.36426 0.26969 0.74978 0.0
C453 C 0.34739 0.2389 0.74133 0.0
C454 C 0.3545 0.21197 0.75941 0.0
H455 H 0.41025 0.24756 0.81394 0.0
O456 O 0.34614 0.20117 0.8846 0.0
O457 O 0.35341 0.17489 0.837 0.0
O458 O 0.40853 0.1802 0.88071 0.0
O459 O 0.41993 0.19173 0.82831 0.0
C460 C 0.32374 0.23389 0.71574 0.0
C461 C 0.30752 0.2022 0.70879 0.0
H462 H 0.281 0.13789 0.70307 0.0
H463 H 0.29685 0.0933 0.73787 0.0
H464 H 0.40012 0.29647 0.78284 0.0
H465 H 0.35992 0.29114 0.73618 0.0
H466 H 0.31757 0.25433 0.70153 0.0
H467 H 0.28905 0.19874 0.68939 0.0
Mn468 Mn 0.36487 0.37699 0.36523 0.0
Mn469 Mn 0.33657 0.30326 0.39426 0.0
C470 C 0.34654 0.33321 0.32806 0.0
C471 C 0.35885 0.42941 0.34621 0.0
C472 C 0.40662 0.32731 0.39302 0.0
O473 O 0.3557 0.38844 0.41432 0.0
O474 O 0.33231 0.33873 0.42819 0.0
C475 C 0.26915 0.31531 0.39529 0.0
N476 N 0.29189 0.29638 0.38514 0.0
C477 C 0.25392 0.2606 0.35123 0.0
C478 C 0.23003 0.27966 0.36145 0.0
C479 C 0.23765 0.30705 0.3836 0.0
C480 C 0.28479 0.27003 0.36372 0.0
H481 H 0.27509 0.33678 0.41179 0.0
C482 C 0.34069 0.36942 0.43451 0.0
O483 O 0.38594 0.42225 0.35796 0.0
O484 O 0.33468 0.4072 0.34836 0.0
N485 N 0.33905 0.26599 0.3644 0.0
C486 C 0.36456 0.24915 0.35862 0.0
C487 C 0.3607 0.21987 0.33866 0.0
C488 C 0.33048 0.20766 0.32554 0.0
C489 C 0.30437 0.22456 0.33308 0.0
C490 C 0.30962 0.25335 0.35359 0.0
H491 H 0.38757 0.25744 0.36977 0.0
O492 O 0.36583 0.35759 0.31856 0.0
O493 O 0.33871 0.33511 0.35892 0.0
O494 O 0.4035 0.3538 0.3783 0.0
O495 O 0.38323 0.30807 0.40271 0.0
C496 C 0.27349 0.21448 0.32035 0.0
C497 C 0.24863 0.23318 0.32847 0.0
H498 H 0.20581 0.27389 0.35217 0.0
H499 H 0.21936 0.32197 0.39134 0.0
H500 H 0.38095 0.20665 0.33362 0.0
H501 H 0.32756 0.18529 0.30978 0.0
H502 H 0.26876 0.19303 0.30345 0.0
H503 H 0.22586 0.22652 0.31624 0.0
Mn504 Mn 0.36263 0.6732 0.16513 0.0
Mn505 Mn 0.39456 0.69942 0.24079 0.0
C506 C 0.33008 0.68444 0.20874 0.0
C507 C 0.33958 0.67776 0.11211 0.0
C508 C 0.3883 0.62806 0.2158 0.0
O509 O 0.4081 0.6915 0.15347 0.0
O510 O 0.4258 0.70844 0.20542 0.0
C511 C 0.4041 0.77175 0.23236 0.0
N512 N 0.39375 0.74549 0.25029 0.0
C513 C 0.38731 0.78052 0.29857 0.0
C514 C 0.39987 0.80783 0.28132 0.0
C515 C 0.40738 0.80354 0.24775 0.0
C516 C 0.38388 0.74969 0.2816 0.0
H517 H 0.40952 0.76836 0.20654 0.0
C518 C 0.42943 0.70608 0.17391 0.0
O519 O 0.35266 0.65195 0.12029 0.0
O520 O 0.34269 0.70263 0.13367 0.0
N521 N 0.36708 0.69358 0.27736 0.0
C522 C 0.35136 0.66542 0.28833 0.0
C523 C 0.33689 0.66627 0.31923 0.0
C524 C 0.33958 0.69579 0.3389 0.0
C525 C 0.35607 0.72439 0.32711 0.0
C526 C 0.369 0.72226 0.29567 0.0
H527 H 0.35012 0.64248 0.27373 0.0
O528 O 0.32032 0.66333 0.18464 0.0
O529 O 0.35922 0.69804 0.2075 0.0
O530 O 0.37713 0.63294 0.18709 0.0
O531 O 0.39694 0.65147 0.23697 0.0
C532 C 0.3603 0.75492 0.34529 0.0
C533 C 0.3762 0.78293 0.33115 0.0
H534 H 0.40249 0.83235 0.29312 0.0
H535 H 0.41573 0.82468 0.23388 0.0
H536 H 0.32425 0.64408 0.32817 0.0
H537 H 0.32888 0.69622 0.36298 0.0
H538 H 0.3509 0.75729 0.36988 0.0
H539 H 0.37852 0.80646 0.34496 0.0
Mn540 Mn 0.68594 0.87835 0.1794 0.0
Mn541 Mn 0.64264 0.8378 0.23762 0.0
C542 C 0.71005 0.85195 0.22217 0.0
C543 C 0.71333 0.88051 0.12938 0.0
C544 C 0.6559 0.91236 0.23852 0.0
O545 O 0.64129 0.86923 0.15598 0.0
O546 O 0.6165 0.84296 0.19774 0.0
C547 C 0.62883 0.77285 0.20136 0.0
N548 N 0.64068 0.79124 0.22885 0.0
C549 C 0.65142 0.74263 0.25695 0.0
C550 C 0.63937 0.72319 0.22893 0.0
C551 C 0.62813 0.73839 0.20098 0.0
C552 C 0.6518 0.77688 0.25576 0.0
H553 H 0.61993 0.78437 0.17991 0.0
C554 C 0.6167 0.85382 0.1685 0.0
O555 O 0.70375 0.90665 0.14337 0.0
O556 O 0.70554 0.85287 0.14329 0.0
N557 N 0.66536 0.83037 0.27783 0.0
C558 C 0.67699 0.85269 0.30251 0.0
C559 C 0.68842 0.84146 0.33252 0.0
C560 C 0.6876 0.80746 0.33691 0.0
C561 C 0.67611 0.78499 0.31097 0.0
C562 C 0.66454 0.79759 0.28183 0.0
H563 H 0.67704 0.87884 0.29954 0.0
O564 O 0.72595 0.876 0.20773 0.0
O565 O 0.68088 0.84489 0.21189 0.0
O566 O 0.67162 0.91411 0.21194 0.0
O567 O 0.64378 0.8851 0.24944 0.0
C568 C 0.67551 0.75057 0.31297 0.0
C569 C 0.66342 0.72942 0.28586 0.0
H570 H 0.63874 0.6966 0.22855 0.0
H571 H 0.6188 0.72355 0.17924 0.0
H572 H 0.69748 0.85895 0.3524 0.0
H573 H 0.6958 0.79886 0.36035 0.0
H574 H 0.68458 0.74014 0.3351 0.0
H575 H 0.6635 0.70303 0.28749 0.0
H576 H 0.19383 0.25507 0.21826 0.0
H577 H 0.24268 0.16757 0.20786 0.0
H578 H 0.29121 0.19799 0.23428 0.0
H579 H 0.26799 0.31596 0.20923 0.0
H580 H 0.25462 0.34485 0.23932 0.0
H581 H 0.22613 0.31867 0.21318 0.0
H582 H 0.19901 0.30202 0.26492 0.0
H583 H 0.22858 0.32137 0.29464 0.0
H584 H 0.21714 0.27746 0.29381 0.0
H585 H 0.33575 0.23929 0.25725 0.0
H586 H 0.36748 0.28074 0.29506 0.0
H587 H 0.28677 0.33678 0.30236 0.0
C588 C 0.2148 0.24249 0.22166 0.0
C589 C 0.21472 0.20903 0.21121 0.0
C590 C 0.24243 0.19319 0.21595 0.0
C591 C 0.27021 0.21039 0.23034 0.0
C592 C 0.26981 0.24341 0.2402 0.0
C593 C 0.24266 0.25916 0.23691 0.0
C594 C 0.24777 0.29352 0.25355 0.0
C595 C 0.24922 0.31979 0.22725 0.0
C596 C 0.22174 0.29897 0.27831 0.0
C597 C 0.28049 0.29271 0.27004 0.0
C598 C 0.29382 0.265 0.25912 0.0
C599 C 0.32533 0.26059 0.26696 0.0
C600 C 0.34308 0.28401 0.28852 0.0
C601 C 0.32871 0.31036 0.30316 0.0
C602 C 0.29748 0.31557 0.29283 0.0
H603 H 0.79195 0.32614 0.22215 0.0
H604 H 0.8314 0.23603 0.19401 0.0
H605 H 0.79007 0.20409 0.22571 0.0
H606 H 0.76139 0.31148 0.30467 0.0
H607 H 0.72836 0.33191 0.2913 0.0
H608 H 0.76573 0.34072 0.27221 0.0
H609 H 0.72539 0.32508 0.21835 0.0
H610 H 0.6934 0.30913 0.24372 0.0
H611 H 0.70822 0.28278 0.21221 0.0
H612 H 0.75052 0.18441 0.26808 0.0
H613 H 0.7088 0.17546 0.30893 0.0
H614 H 0.68977 0.27725 0.30328 0.0
C615 C 0.79161 0.29961 0.22259 0.0
C616 C 0.8154 0.28342 0.20698 0.0
C617 C 0.81373 0.24873 0.20659 0.0
C618 C 0.79036 0.23053 0.22445 0.0
C619 C 0.76809 0.24743 0.24103 0.0
C620 C 0.76769 0.28102 0.23906 0.0
C621 C 0.73953 0.29273 0.25675 0.0
C622 C 0.74956 0.32085 0.28272 0.0
C623 C 0.7152 0.30303 0.23123 0.0
C624 C 0.72671 0.26134 0.27283 0.0
C625 C 0.7432 0.2354 0.26281 0.0
C626 C 0.73706 0.20436 0.27554 0.0
C627 C 0.71346 0.19964 0.29899 0.0
C628 C 0.69627 0.22578 0.30989 0.0
C629 C 0.70279 0.25697 0.29624 0.0
H630 H 0.33252 0.74828 0.23334 0.0
H631 H 0.2726 0.65493 0.22595 0.0
H632 H 0.22832 0.68228 0.24927 0.0
H633 H 0.30887 0.77661 0.30987 0.0
H634 H 0.30699 0.81926 0.30084 0.0
H635 H 0.33329 0.79609 0.27837 0.0
H636 H 0.31075 0.80644 0.22215 0.0
H637 H 0.28455 0.83246 0.24216 0.0
H638 H 0.26849 0.79889 0.21397 0.0
H639 H 0.18887 0.72234 0.26648 0.0
H640 H 0.16347 0.76548 0.29759 0.0
H641 H 0.25255 0.82818 0.30427 0.0
C642 C 0.31054 0.73331 0.23774 0.0
C643 C 0.30619 0.69932 0.22855 0.0
C644 C 0.27644 0.68096 0.23315 0.0
C645 C 0.25108 0.69634 0.24587 0.0
C646 C 0.25593 0.73007 0.25373 0.0
C647 C 0.28513 0.74816 0.25075 0.0
C648 C 0.28437 0.7837 0.26277 0.0
C649 C 0.3099 0.79445 0.28979 0.0
C650 C 0.2872 0.80673 0.23352 0.0
C651 C 0.25159 0.78175 0.27639 0.0
C652 C 0.23466 0.75148 0.26838 0.0
C653 C 0.20258 0.74528 0.27482 0.0
C654 C 0.18859 0.76948 0.29308 0.0
C655 C 0.2073 0.79796 0.30666 0.0
C656 C 0.23852 0.80529 0.29625 0.0
H657 H 0.8209 0.76644 0.35125 0.0
H658 H 0.7706 0.67443 0.31086 0.0
H659 H 0.73786 0.70508 0.27458 0.0
H660 H 0.75037 0.80635 0.35322 0.0
H661 H 0.76444 0.84713 0.34064 0.0
H662 H 0.79029 0.82337 0.36367 0.0
H663 H 0.83381 0.8191 0.3188 0.0
H664 H 0.81331 0.8523 0.304 0.0
H665 H 0.81951 0.81882 0.27599 0.0
H666 H 0.72246 0.74258 0.2335 0.0
H667 H 0.70371 0.78824 0.20378 0.0
H668 H 0.75401 0.85872 0.27589 0.0
C669 C 0.80284 0.75304 0.3348 0.0
C670 C 0.79916 0.71813 0.33224 0.0
C671 C 0.7745 0.70113 0.31185 0.0
C672 C 0.75587 0.71826 0.29124 0.0
C673 C 0.76179 0.75241 0.29202 0.0
C674 C 0.78359 0.76998 0.31404 0.0
C675 C 0.78222 0.80697 0.31142 0.0
C676 C 0.77108 0.8219 0.34409 0.0
C677 C 0.81418 0.82519 0.30207 0.0
C678 C 0.75763 0.8069 0.28305 0.0
C679 C 0.74734 0.77495 0.27179 0.0
C680 C 0.72885 0.76772 0.2429 0.0
C681 C 0.71855 0.79381 0.22611 0.0
C682 C 0.72601 0.82665 0.23869 0.0
C683 C 0.74691 0.83361 0.26674 0.0
H684 H 0.29129 0.74105 0.70938 0.0
H685 H 0.27766 0.84448 0.70589 0.0
H686 H 0.22617 0.83387 0.73212 0.0
H687 H 0.19726 0.71864 0.69664 0.0
H688 H 0.19743 0.68198 0.7198 0.0
H689 H 0.23027 0.69447 0.69396 0.0
H690 H 0.27341 0.69973 0.74673 0.0
H691 H 0.23865 0.6776 0.76285 0.0
H692 H 0.25672 0.71332 0.78515 0.0
H693 H 0.18248 0.81557 0.76835 0.0
H694 H 0.14884 0.78924 0.8108 0.0
H695 H 0.19176 0.69894 0.79505 0.0
C696 C 0.27697 0.76108 0.71368 0.0
C697 C 0.28866 0.79375 0.70656 0.0
C698 C 0.26929 0.81944 0.71179 0.0
C699 C 0.23983 0.81362 0.72632 0.0
C700 C 0.22961 0.78174 0.73499 0.0
C701 C 0.24703 0.75555 0.72821 0.0
C702 C 0.22977 0.72391 0.74063 0.0
C703 C 0.21267 0.70357 0.71101 0.0
C704 C 0.25115 0.70262 0.75983 0.0
C705 C 0.20563 0.73833 0.76257 0.0
C706 C 0.20397 0.77107 0.75637 0.0
C707 C 0.18383 0.79001 0.77366 0.0
C708 C 0.16585 0.77546 0.79888 0.0
C709 C 0.17002 0.74338 0.80834 0.0
C710 C 0.18914 0.72411 0.78902 0.0
H711 H 0.7379 0.71232 0.69603 0.0
H712 H 0.65772 0.76407 0.7221 0.0
H713 H 0.69409 0.80833 0.75121 0.0
H714 H 0.78361 0.71817 0.75138 0.0
H715 H 0.82314 0.7366 0.74321 0.0
H716 H 0.79794 0.71536 0.71066 0.0
H717 H 0.7935 0.75979 0.67202 0.0
H718 H 0.82561 0.78251 0.69661 0.0
H719 H 0.79004 0.80126 0.68722 0.0
H720 H 0.73732 0.84157 0.78367 0.0
H721 H 0.7836 0.86043 0.82049 0.0
H722 H 0.83805 0.78962 0.77174 0.0
C723 C 0.72823 0.73325 0.70768 0.0
C724 C 0.69495 0.73389 0.70925 0.0
C725 C 0.68296 0.76212 0.72301 0.0
C726 C 0.70354 0.78788 0.73845 0.0
C727 C 0.73622 0.78602 0.73776 0.0
C728 C 0.74868 0.76012 0.72153 0.0
C729 C 0.78481 0.76422 0.72533 0.0
C730 C 0.79823 0.73186 0.73336 0.0
C731 C 0.79933 0.77775 0.69342 0.0
C732 C 0.78953 0.791 0.75313 0.0
C733 C 0.76163 0.80535 0.7571 0.0
C734 C 0.75936 0.83088 0.78054 0.0
C735 C 0.78567 0.84112 0.80164 0.0
C736 C 0.81386 0.82563 0.79969 0.0
C737 C 0.81641 0.80121 0.77415 0.0
H738 H 0.77523 0.3387 0.82384 0.0
H739 H 0.68343 0.28137 0.80872 0.0
H740 H 0.70835 0.2369 0.77982 0.0
H741 H 0.79685 0.31156 0.73664 0.0
H742 H 0.83854 0.3148 0.74815 0.0
H743 H 0.81333 0.34193 0.76807 0.0
H744 H 0.82972 0.32238 0.82667 0.0
H745 H 0.85555 0.29789 0.8047 0.0
H746 H 0.82741 0.27862 0.83269 0.0
H747 H 0.74478 0.19446 0.76562 0.0
H748 H 0.78613 0.16494 0.73992 0.0
H749 H 0.85206 0.25423 0.75027 0.0
C750 C 0.76057 0.31664 0.81454 0.0
C751 C 0.72805 0.31153 0.82145 0.0
C752 C 0.70895 0.28401 0.8064 0.0
C753 C 0.72278 0.25885 0.78969 0.0
C754 C 0.75548 0.26274 0.78665 0.0
C755 C 0.77376 0.29188 0.79619 0.0
C756 C 0.8074 0.29138 0.78483 0.0
C757 C 0.81443 0.3164 0.75781 0.0
C758 C 0.83138 0.29789 0.81415 0.0
C759 C 0.80588 0.25619 0.77057 0.0
C760 C 0.77566 0.24009 0.77251 0.0
C761 C 0.76835 0.207 0.76286 0.0
C762 C 0.7921 0.19039 0.74868 0.0
C763 C 0.82247 0.20713 0.74336 0.0
C764 C 0.8296 0.24036 0.75506 0.0
H765 H 0.27616 0.36596 0.78873 0.0
H766 H 0.23045 0.29977 0.71002 0.0
H767 H 0.25227 0.25309 0.73468 0.0
H768 H 0.34721 0.3248 0.78417 0.0
H769 H 0.35978 0.32616 0.82744 0.0
H770 H 0.33904 0.35855 0.81111 0.0
H771 H 0.29137 0.35167 0.84948 0.0
H772 H 0.3165 0.32615 0.87115 0.0
H773 H 0.27653 0.31035 0.8597 0.0
H774 H 0.2664 0.21313 0.77324 0.0
H775 H 0.29651 0.17999 0.80937 0.0
H776 H 0.34529 0.2693 0.85755 0.0
C777 C 0.27109 0.34161 0.77681 0.0
C778 C 0.25021 0.33596 0.74847 0.0
C779 C 0.24522 0.30423 0.73253 0.0
C780 C 0.25734 0.27752 0.74639 0.0
C781 C 0.27553 0.28308 0.77561 0.0
C782 C 0.28418 0.31429 0.78984 0.0
C783 C 0.30868 0.31266 0.81821 0.0
C784 C 0.3406 0.33154 0.80975 0.0
C785 C 0.2975 0.32606 0.85152 0.0
C786 C 0.3103 0.27544 0.81851 0.0
C787 C 0.28985 0.2593 0.79432 0.0
C788 C 0.28371 0.2252 0.79133 0.0
C789 C 0.30082 0.20664 0.81199 0.0
C790 C 0.32433 0.22212 0.83474 0.0
C791 C 0.32826 0.25701 0.83929 0.0
H792 H 0.12257 0.9538 0.32561 0.0
H793 H 0.14503 0.88248 0.24973 0.0
H794 H 0.13962 0.92325 0.20667 0.0
H795 H 0.06282 0.99037 0.27375 0.0
H796 H 0.07425 0.03107 0.29226 0.0
H797 H 0.0779 0.99533 0.3162 0.0
H798 H 0.13765 1.01502 0.32838 0.0
H799 H 0.13405 0.05074 0.30463 0.0
H800 H 0.16328 0.0235 0.29414 0.0
H801 H 0.14003 0.97644 0.17332 0.0
H802 H 0.14135 0.03355 0.15386 0.0
H803 H 0.11082 0.06549 0.25079 0.0
C804 C 0.1257 0.94658 0.29984 0.0
C805 C 0.13417 0.91504 0.29098 0.0
C806 C 0.1382 0.90648 0.25701 0.0
C807 C 0.13528 0.92952 0.23238 0.0
C808 C 0.1274 0.96075 0.24199 0.0
C809 C 0.12193 0.96889 0.27491 0.0
C810 C 0.1143 1.00405 0.27916 0.0
C811 C 0.08029 1.00526 0.29103 0.0
C812 C 0.13877 0.02451 0.30296 0.0
C813 C 0.11734 1.01482 0.24382 0.0
C814 C 0.1252 0.98986 0.22255 0.0
C815 C 0.13299 0.9959 0.18962 0.0
C816 C 0.13352 0.0284 0.17863 0.0
C817 C 0.12593 0.05431 0.20044 0.0
C818 C 0.11648 0.0466 0.23296 0.0
H819 H 0.88167 0.45423 0.20652 0.0
H820 H 0.94038 0.41315 0.28057 0.0
H821 H 0.93943 0.46302 0.31697 0.0
H822 H 0.91717 0.54212 0.22238 0.0
H823 H 0.8792 0.55715 0.21539 0.0
H824 H 0.88809 0.51992 0.19375 0.0
H825 H 0.83714 0.48898 0.21642 0.0
H826 H 0.82862 0.52579 0.23896 0.0
H827 H 0.83211 0.48864 0.26068 0.0
H828 H 0.92468 0.51426 0.34948 0.0
H829 H 0.90538 0.56672 0.3699 0.0
H830 H 0.85971 0.57472 0.27324 0.0
C831 C 0.89553 0.45632 0.22968 0.0
C832 C 0.91118 0.42967 0.24047 0.0
C833 C 0.92825 0.43321 0.27157 0.0
C834 C 0.92769 0.46141 0.29264 0.0
C835 C 0.91041 0.48636 0.28219 0.0
C836 C 0.89544 0.48451 0.251 0.0
C837 C 0.87756 0.51415 0.24619 0.0
C838 C 0.89134 0.53455 0.21775 0.0
C839 C 0.84175 0.50375 0.24022 0.0
C840 C 0.88433 0.53246 0.27962 0.0
C841 C 0.90302 0.51606 0.30032 0.0
C842 C 0.9105 0.52765 0.33319 0.0
C843 C 0.89924 0.55726 0.34475 0.0
C844 C 0.88112 0.57502 0.3233 0.0
C845 C 0.8736 0.56203 0.29044 0.0
H846 H 0.2693 0.13854 0.93342 0.0
H847 H 0.35428 0.1051 0.9768 0.0
H848 H 0.32681 0.09512 0.02909 0.0
H849 H 0.24974 0.18308 1.00427 0.0
H850 H 0.20728 0.17338 0.99926 0.0
H851 H 0.23166 0.17337 0.96345 0.0
H852 H 0.20857 0.11326 0.94741 0.0
H853 H 0.1839 0.11315 0.98311 0.0
H854 H 0.21042 0.08191 0.97734 0.0
H855 H 0.29266 0.09458 0.07869 0.0
H856 H 0.25372 0.10275 0.12184 0.0
H857 H 0.19027 0.13683 0.04755 0.0
C858 C 0.28169 0.12805 0.95357 0.0
C859 C 0.31384 0.12211 0.95081 0.0
C860 C 0.3296 0.10954 0.97819 0.0
C861 C 0.31417 0.10378 1.00805 0.0
C862 C 0.28285 0.11078 1.01041 0.0
C863 C 0.26664 0.12246 0.98389 0.0
C864 C 0.23398 0.13054 0.99408 0.0
C865 C 0.23048 0.16727 0.99003 0.0
C866 C 0.20766 0.10839 0.97431 0.0
C867 C 0.23475 0.1223 0.03054 0.0
C868 C 0.26309 0.11066 0.03932 0.0
C869 C 0.27018 0.1032 0.07199 0.0
C870 C 0.2479 0.10797 0.09639 0.0
C871 C 0.21876 0.12011 0.08817 0.0
C872 C 0.21207 0.12697 0.05462 0.0
H873 H 0.7819 0.35155 0.11389 0.0
H874 H 0.85869 0.42288 0.08631 0.0
H875 H 0.82827 0.43293 0.03491 0.0
H876 H 0.77004 0.31462 0.03525 0.0
H877 H 0.7276 0.30516 0.03728 0.0
H878 H 0.75196 0.30894 0.07484 0.0
H879 H 0.7188 0.35349 0.09885 0.0
H880 H 0.6942 0.34975 0.0613 0.0
H881 H 0.71389 0.38943 0.07559 0.0
H882 H 0.79114 0.4313 0.98378 0.0
H883 H 0.75419 0.41398 0.93579 0.0
H884 H 0.7045 0.33986 0.99485 0.0
C885 C 0.79164 0.3703 0.09767 0.0
C886 C 0.82211 0.38734 0.10452 0.0
C887 C 0.835 0.41026 0.08183 0.0
C888 C 0.81787 0.41608 0.05261 0.0
C889 C 0.78812 0.39827 0.04608 0.0
C890 C 0.77525 0.3756 0.06792 0.0
C891 C 0.74527 0.35612 0.05302 0.0
C892 C 0.74896 0.31903 0.04991 0.0
C893 C 0.71632 0.3626 0.07341 0.0
C894 C 0.74356 0.37082 1.0192 0.0
C895 C 0.76798 0.39569 1.01589 0.0
C896 C 0.77178 0.41205 0.98627 0.0
C897 C 0.7506 0.40219 0.95916 0.0
C898 C 0.7264 0.37569 0.9616 0.0
C899 C 0.72265 0.36034 0.99228 0.0
H900 H 0.32671 0.82295 0.56271 0.0
H901 H 0.30403 0.91455 0.60927 0.0
H902 H 0.26937 0.92326 0.5604 0.0
H903 H 0.32304 0.84551 0.47504 0.0
H904 H 0.30373 0.80551 0.46128 0.0
H905 H 0.33059 0.80955 0.49712 0.0
H906 H 0.2864 0.78075 0.5323 0.0
H907 H 0.25945 0.77675 0.49665 0.0
H908 H 0.24872 0.79724 0.53451 0.0
H909 H 0.23519 0.92038 0.50595 0.0
H910 H 0.20124 0.90338 0.4554 0.0
H911 H 0.242 0.81056 0.44953 0.0
C912 C 0.31526 0.84537 0.56206 0.0
C913 C 0.31877 0.86863 0.58922 0.0
C914 C 0.30215 0.89684 0.58832 0.0
C915 C 0.28243 0.90194 0.56067 0.0
C916 C 0.27896 0.87818 0.53444 0.0
C917 C 0.29472 0.85025 0.5352 0.0
C918 C 0.28416 0.82646 0.5061 0.0
C919 C 0.31204 0.82148 0.48355 0.0
C920 C 0.26877 0.79336 0.51812 0.0
C921 C 0.2599 0.84516 0.48894 0.0
C922 C 0.25765 0.87529 0.50506 0.0
C923 C 0.2368 0.89678 0.49324 0.0
C924 C 0.21763 0.88699 0.46449 0.0
C925 C 0.21882 0.85563 0.44845 0.0
C926 C 0.2404 0.83471 0.46103 0.0
H927 H 0.74372 0.65757 0.60232 0.0
H928 H 0.65465 0.61051 0.55824 0.0
H929 H 0.68153 0.59861 0.5063 0.0
H930 H 0.76896 0.69762 0.52965 0.0
H931 H 0.81052 0.69314 0.536 0.0
H932 H 0.78534 0.69481 0.5711 0.0
H933 H 0.80189 0.63904 0.58954 0.0
H934 H 0.82707 0.63715 0.55438 0.0
H935 H 0.79678 0.60366 0.56078 0.0
H936 H 0.71677 0.59429 0.45817 0.0
H937 H 0.75707 0.6012 0.41552 0.0
H938 H 0.82402 0.65285 0.48865 0.0
C939 C 0.73008 0.64418 0.58192 0.0
C940 C 0.69707 0.63458 0.58454 0.0
C941 C 0.67991 0.61795 0.55694 0.0
C942 C 0.69503 0.61096 0.52734 0.0
C943 C 0.72742 0.62101 0.52536 0.0
C944 C 0.74479 0.63747 0.55178 0.0
C945 C 0.77876 0.64786 0.54194 0.0
C946 C 0.78633 0.6856 0.54484 0.0
C947 C 0.80253 0.63091 0.56291 0.0
C948 C 0.77757 0.63505 0.5058 0.0
C949 C 0.74777 0.61925 0.49703 0.0
C950 C 0.74024 0.60641 0.46483 0.0
C951 C 0.7634 0.61043 0.44071 0.0
C952 C 0.79391 0.62734 0.44859 0.0
C953 C 0.80118 0.63927 0.48187 0.0
H954 H 0.96788 0.28309 0.22862 0.0
H955 H 0.9517 0.3041 0.12518 0.0
H956 H 0.99399 0.26931 0.1094 0.0
H957 H 0.05241 0.28231 0.2273 0.0
H958 H 0.0519 0.24918 0.25545 0.0
H959 H 0.02202 0.27722 0.25761 0.0
H960 H 0.978 0.22773 0.25038 0.0
H961 H 1.00775 0.19957 0.24779 0.0
H962 H 0.97803 0.19942 0.21481 0.0
H963 H 0.03933 0.23033 0.10616 0.0
H964 H 0.08161 0.19386 0.1161 0.0
H965 H 0.06263 0.19791 0.2214 0.0
C966 C 0.97322 0.2809 0.20255 0.0
C967 C 0.95639 0.29662 0.17818 0.0
C968 C 0.96435 0.29256 0.14441 0.0
C969 C 0.98826 0.2727 0.13522 0.0
C970 C 1.00379 0.25697 0.16006 0.0
C971 C 0.99643 0.2611 0.19305 0.0
C972 C 0.01537 0.2412 0.21534 0.0
C973 C 0.03668 0.26383 0.24039 0.0
C974 C 0.99348 0.21546 0.23311 0.0
C975 C 0.03477 0.22504 0.18991 0.0
C976 C 0.02817 0.23433 0.15811 0.0
C977 C 0.04444 0.22287 0.13102 0.0
C978 C 0.06832 0.20201 0.13685 0.0
C979 C 0.0755 0.19267 0.1695 0.0
C980 C 0.05787 0.20411 0.19601 0.0
H981 H 0.95218 0.69828 0.39757 0.0
H982 H 0.9235 0.75131 0.31285 0.0
H983 H 0.96554 0.7957 0.32659 0.0
H984 H 0.98671 0.7679 0.45341 0.0
H985 H 0.02157 0.74863 0.46453 0.0
H986 H 0.98462 0.7236 0.45378 0.0
H987 H 1.01203 0.69163 0.40781 0.0
H988 H 0.04905 0.71596 0.41917 0.0
H989 H 0.03381 0.71436 0.37683 0.0
H990 H 1.00992 0.83484 0.34857 0.0
H991 H 0.06512 0.85641 0.36272 0.0
H992 H 0.07383 0.77404 0.42588 0.0
C993 C 0.95447 0.71958 0.38238 0.0
C994 C 0.93276 0.72225 0.35545 0.0
C995 C 0.93795 0.74947 0.33491 0.0
C996 C 0.96206 0.77502 0.34249 0.0
C997 C 0.98222 0.77237 0.36977 0.0
C998 C 0.97991 0.7446 0.38835 0.0
C999 C 1.00906 0.74492 0.41134 0.0
C1000 C 0.99993 0.74635 0.44794 0.0
C1001 C 0.02705 0.71495 0.40329 0.0
C1002 C 0.02797 0.77698 0.4023 0.0
C1003 C 1.01113 0.79303 0.37945 0.0
C1004 C 0.02354 0.82251 0.36637 0.0
C1005 C 0.05497 0.83476 0.37487 0.0
C1006 C 0.0741 0.81683 0.39522 0.0
C1007 C 0.05981 0.78847 0.41046 0.0
H1008 H 0.5608 0.71492 0.64922 0.0
H1009 H 0.5454 0.66055 0.7388 0.0
H1010 H 0.49867 0.68872 0.74995 0.0
H1011 H 0.53784 0.78997 0.67809 0.0
H1012 H 0.51537 0.79943 0.64173 0.0
H1013 H 0.54689 0.77345 0.63769 0.0
H1014 H 0.50801 0.7272 0.60839 0.0
H1015 H 0.47646 0.75329 0.61168 0.0
H1016 H 0.4718 0.71279 0.62817 0.0
H1017 H 0.46346 0.73084 0.75946 0.0
H1018 H 0.42693 0.77273 0.75814 0.0
H1019 H 0.45312 0.79418 0.65718 0.0
C1020 C 0.54685 0.70808 0.67041 0.0
C1021 C 0.55734 0.68575 0.69342 0.0
C1022 C 0.53842 0.67783 0.72104 0.0
C1023 C 0.51174 0.69381 0.72775 0.0
C1024 C 0.5032 0.71703 0.70602 0.0
C1025 C 0.519 0.72325 0.67709 0.0
C1026 C 0.50346 0.74935 0.65821 0.0
C1027 C 0.52732 0.77985 0.65366 0.0
C1028 C 0.48907 0.73478 0.62461 0.0
C1029 C 0.4775 0.75737 0.68187 0.0
C1030 C 0.47875 0.73878 0.70957 0.0
C1031 C 0.46088 0.74429 0.73716 0.0
C1032 C 0.43994 0.7683 0.73602 0.0
C1033 C 0.43535 0.78569 0.70682 0.0
C1034 C 0.45499 0.78047 0.67942 0.0
H1035 H 0.92668 0.10249 0.76317 0.0
H1036 H 0.85224 0.07954 0.68668 0.0
H1037 H 0.83771 0.02571 0.71084 0.0
H1038 H 0.94864 0.01667 0.76784 0.0
H1039 H 0.95622 0.0213 0.81215 0.0
H1040 H 0.96275 0.05656 0.78683 0.0
H1041 H 0.92535 0.0873 0.82361 0.0
H1042 H 0.9181 0.05195 0.84861 0.0
H1043 H 0.88524 0.06897 0.82886 0.0
H1044 H 0.826 0.97863 0.74787 0.0
H1045 H 0.82369 0.93608 0.78937 0.0
H1046 H 0.90804 0.98662 0.8404 0.0
C1047 C 0.90793 0.08575 0.75087 0.0
C1048 C 0.89071 0.09534 0.72282 0.0
C1049 C 0.8661 0.07276 0.70781 0.0
C1050 C 0.85747 0.04219 0.72158 0.0
C1051 C 0.87401 0.03421 0.75003 0.0
C1052 C 0.8993 0.05489 0.76401 0.0
C1053 C 0.91267 0.04057 0.79499 0.0
C1054 C 0.94712 0.03334 0.79015 0.0
C1055 C 0.91018 0.06357 0.82583 0.0
C1056 C 0.89044 1.00893 0.79669 0.0
C1057 C 0.86813 1.00607 0.77066 0.0
C1058 C 0.84371 0.98029 0.76796 0.0
C1059 C 0.84245 0.95639 0.79193 0.0
C1060 C 0.86571 0.95793 0.81817 0.0
C1061 C 0.89006 0.98466 0.82053 0.0
H1062 H 0.18631 0.6041 0.80939 0.0
H1063 H 0.09908 0.58081 0.86169 0.0
H1064 H 0.09431 0.52418 0.83775 0.0
H1065 H 0.1614 0.55483 0.73413 0.0
H1066 H 0.19973 0.54087 0.72756 0.0
H1067 H 0.19703 0.58018 0.74876 0.0
H1068 H 0.2294 0.56247 0.79913 0.0
H1069 H 0.23241 0.52323 0.77797 0.0
H1070 H 0.21611 0.52481 0.81875 0.0
H1071 H 0.09846 0.47017 0.80955 0.0
H1072 H 0.11237 0.42048 0.77921 0.0
H1073 H 0.1964 0.47669 0.74319 0.0
C1074 C 0.16634 0.58699 0.81587 0.0
C1075 C 0.14307 0.59708 0.8375 0.0
C1076 C 0.1172 0.57391 0.8452 0.0
C1077 C 0.1142 0.54156 0.83167 0.0
C1078 C 0.13718 0.53247 0.81026 0.0
C1079 C 0.16283 0.5543 0.80236 0.0
C1080 C 0.18411 0.53756 0.77872 0.0
C1081 C 0.18565 0.55437 0.74531 0.0
C1082 C 0.21749 0.53698 0.7946 0.0
C1083 C 0.1664 0.50302 0.77485 0.0
C1084 C 0.13938 0.50086 0.79333 0.0
C1085 C 0.11948 0.47153 0.79484 0.0
C1086 C 0.1276 0.4434 0.77748 0.0
C1087 C 0.15534 0.44462 0.75858 0.0
C1088 C 0.17476 0.47506 0.75693 0.0
H1089 H 0.7058 0.89755 0.06409 0.0
H1090 H 0.77452 0.8689 0.13587 0.0
H1091 H 0.8162 0.87463 0.09411 0.0
H1092 H 0.73347 0.8508 0.996 0.0
H1093 H 0.72581 0.88008 0.96537 0.0
H1094 H 0.7026 0.87732 1.00201 0.0
H1095 H 0.7181 0.93977 1.01535 0.0
H1096 H 0.74191 0.94247 0.97902 0.0
H1097 H 0.75949 0.95575 1.01932 0.0
H1098 H 0.85003 0.88122 0.04404 0.0
H1099 H 0.87082 0.87865 0.98733 0.0
H1100 H 0.7801 0.90017 0.94673 0.0
C1101 C 0.72973 0.89281 0.07092 0.0
C1102 C 0.73717 0.88305 0.10321 0.0
C1103 C 0.76849 0.87642 0.11123 0.0
C1104 C 0.79234 0.87991 0.08777 0.0
C1105 C 0.78446 0.8897 0.05613 0.0
C1106 C 0.75375 0.89541 0.04743 0.0
C1107 C 0.7509 0.9021 1.01072 0.0
C1108 C 0.72678 0.87602 0.99245 0.0
C1109 C 0.74207 0.93711 1.00583 0.0
C1110 C 0.7846 0.89885 1.00013 0.0
C1111 C 0.80377 0.89248 0.02689 0.0
C1112 C 0.83536 0.88668 1.02298 0.0
C1113 C 0.84719 0.88574 0.99074 0.0
C1114 C 0.82745 0.89033 0.96281 0.0
C1115 C 0.79606 0.89785 0.96777 0.0
H1116 H 0.20023 0.73186 0.99509 0.0
H1117 H 0.19317 0.63403 0.94692 0.0
H1118 H 0.23563 0.61955 0.98511 0.0
H1119 H 0.28261 0.74335 1.00442 0.0
H1120 H 0.28414 0.76489 0.04454 0.0
H1121 H 0.25074 0.76677 1.01626 0.0
H1122 H 0.21187 0.74471 0.06062 0.0
H1123 H 0.24502 0.74364 0.08944 0.0
H1124 H 0.21796 0.70694 0.08021 0.0
H1125 H 0.28304 0.61798 1.02414 0.0
H1126 H 0.32597 0.62588 0.06722 0.0
H1127 H 0.30193 0.72466 0.09082 0.0
C1128 C 0.20688 0.70701 0.9931 0.0
C1129 C 0.19307 0.68403 0.96792 0.0
C1130 C 0.20292 0.65197 0.96613 0.0
C1131 C 0.22733 0.64363 0.98752 0.0
C1132 C 0.24149 0.6675 1.0108 0.0
C1133 C 0.23113 0.69829 1.01423 0.0
C1134 C 0.25088 0.71979 0.04062 0.0
C1135 C 0.26811 0.75051 0.02555 0.0
C1136 C 0.2302 0.72932 0.06944 0.0
C1137 C 0.27422 0.69636 0.0514 0.0
C1138 C 0.26853 0.66645 0.03363 0.0
C1139 C 0.28742 0.64115 0.03846 0.0
C1140 C 0.31198 0.64603 0.06289 0.0
C1141 C 0.31745 0.67592 0.08255 0.0
C1142 C 0.29855 0.70161 0.07619 0.0
H1143 H 0.71999 0.15923 0.46167 0.0
H1144 H 0.66926 0.23776 0.5017 0.0
H1145 H 0.70423 0.24275 0.55201 0.0
H1146 H 0.73765 0.12305 0.54467 0.0
H1147 H 0.77634 0.11399 0.53207 0.0
H1148 H 0.74419 0.11296 0.5016 0.0
H1149 H 0.77889 0.15445 0.46751 0.0
H1150 H 0.81081 0.15646 0.49829 0.0
H1151 H 0.79486 0.19367 0.48677 0.0
H1152 H 0.74953 0.24634 0.5926 0.0
H1153 H 0.79707 0.24112 0.62765 0.0
H1154 H 0.81858 0.15842 0.56415 0.0
C1155 C 0.71527 0.1762 0.48183 0.0
C1156 C 0.6915 0.19771 0.47809 0.0
C1157 C 0.68695 0.22071 0.50435 0.0
C1158 C 0.70689 0.22392 0.53289 0.0
C1159 C 0.73124 0.20378 0.53504 0.0
C1160 C 0.73508 0.1797 0.51076 0.0
C1161 C 0.7644 0.16265 0.51873 0.0
C1162 C 0.75509 0.12599 0.52463 0.0
C1163 C 0.78866 0.16709 0.49118 0.0
C1164 C 0.77675 0.18153 0.55071 0.0
C1165 C 0.75729 0.2053 0.55936 0.0
C1166 C 0.76461 0.22737 0.58651 0.0
C1167 C 0.79194 0.22442 0.60607 0.0
C1168 C 0.81161 0.19934 0.59876 0.0
C1169 C 0.80396 0.17776 0.57047 0.0
H1170 H 0.21686 0.39599 0.57501 0.0
H1171 H 0.28267 0.35385 0.64086 0.0
H1172 H 0.32282 0.3572 0.59761 0.0
H1173 H 0.23706 0.34921 0.5024 0.0
H1174 H 0.23208 0.38144 0.47417 0.0
H1175 H 0.20984 0.37909 0.51152 0.0
H1176 H 0.23211 0.43937 0.5282 0.0
H1177 H 0.25494 0.44159 0.49116 0.0
H1178 H 0.2745 0.45047 0.53138 0.0
H1179 H 0.35572 0.36423 0.54759 0.0
H1180 H 0.37542 0.36385 0.49051 0.0
H1181 H 0.28758 0.39671 0.45426 0.0
C1182 C 0.23982 0.38768 0.58022 0.0
C1183 C 0.24684 0.37489 0.61136 0.0
C1184 C 0.27685 0.36365 0.61715 0.0
C1185 C 0.29992 0.36579 0.59286 0.0
C1186 C 0.2925 0.37868 0.56249 0.0
C1187 C 0.26292 0.38864 0.55568 0.0
C1188 C 0.26005 0.39796 0.51964 0.0
C1189 C 0.23317 0.37559 0.50083 0.0
C1190 C 0.2551 0.43453 0.51748 0.0
C1191 C 0.29251 0.39147 0.50733 0.0
C1192 C 0.31109 0.38123 0.53281 0.0
C1193 C 0.34153 0.37254 0.52752 0.0
C1194 C 0.35273 0.37281 0.49509 0.0
C1195 C 0.33355 0.38142 0.46825 0.0
C1196 C 0.30327 0.39148 0.47458 0.0
H1197 H 0.0797 0.79685 0.9023 0.0
H1198 H 0.05098 0.69466 0.92265 0.0
H1199 H 0.99553 0.70726 0.92768 0.0
H1200 H 0.0227 0.83548 0.95379 0.0
H1201 H 0.01569 0.86526 0.92344 0.0
H1202 H 0.05372 0.84951 0.92639 0.0
H1203 H 0.04862 0.83112 0.86399 0.0
H1204 H 1.0106 0.84675 0.86082 0.0
H1205 H 0.01412 0.80435 0.84868 0.0
H1206 H 0.94305 0.73032 0.92805 0.0
H1207 H 0.89651 0.76005 0.91875 0.0
H1208 H 0.95827 0.84627 0.89198 0.0
C1209 C 0.06194 0.77716 0.90826 0.0
C1210 C 0.06987 0.74472 0.91226 0.0
C1211 C 0.04559 0.71969 0.91965 0.0
C1212 C 0.01403 0.72666 0.92263 0.0
C1213 C 1.00695 0.75869 0.91764 0.0
C1214 C 0.03016 0.78348 0.91029 0.0
C1215 C 0.01578 0.8149 0.90259 0.0
C1216 C 0.02768 0.84295 0.92808 0.0
C1217 C 0.02269 0.82485 0.8669 0.0
C1218 C 0.98074 0.8038 0.90637 0.0
C1219 C 0.97635 0.7715 0.91576 0.0
C1220 C 0.94622 0.7556 0.92065 0.0
C1221 C 0.91984 0.77284 0.91524 0.0
C1222 C 0.92345 0.8056 0.9043 0.0
C1223 C 0.95452 0.82131 0.90025 0.0
H1224 H 0.11124 0.27641 0.69483 0.0
H1225 H 0.09304 0.35933 0.63657 0.0
H1226 H 0.04158 0.32818 0.6162 0.0
H1227 H 0.07313 0.20901 0.63748 0.0
H1228 H 0.05923 0.18587 0.6723 0.0
H1229 H 0.0962 0.21239 0.67605 0.0
H1230 H 0.07581 0.24283 0.72756 0.0
H1231 H 0.03893 0.2167 0.72397 0.0
H1232 H 0.03892 0.26082 0.72401 0.0
H1233 H 0.98765 0.28944 0.61049 0.0
H1234 H 0.93976 0.25143 0.62182 0.0
H1235 H 0.99694 0.19572 0.68414 0.0
C1236 C 0.09745 0.28788 0.6767 0.0
C1237 C 0.10668 0.32028 0.66703 0.0
C1238 C 0.08685 0.33434 0.64397 0.0
C1239 C 0.05756 0.31676 0.63239 0.0
C1240 C 0.04894 0.28502 0.64363 0.0
C1241 C 0.06886 0.27082 0.66506 0.0
C1242 C 0.05376 0.23849 0.6772 0.0
C1243 C 0.07164 0.20974 0.66501 0.0
C1244 C 0.05173 0.23984 0.71541 0.0
C1245 C 0.02138 0.23684 0.66038 0.0
C1246 C 0.01888 0.26342 0.64056 0.0
C1247 C 0.98979 0.26828 0.62532 0.0
C1248 C 0.9627 0.24636 0.63162 0.0
C1249 C 0.96483 0.22028 0.65341 0.0
C1250 C 0.99479 0.21495 0.66679 0.0
H1251 H 0.57499 0.26411 0.43908 0.0
H1252 H 0.5661 0.21228 0.34245 0.0
H1253 H 0.51454 0.23344 0.33199 0.0
H1254 H 0.48871 0.24766 0.45653 0.0
H1255 H 0.48808 0.28698 0.47846 0.0
H1256 H 0.52389 0.2669 0.47883 0.0
H1257 H 0.55455 0.31924 0.45638 0.0
H1258 H 0.51873 0.33924 0.45525 0.0
H1259 H 0.54095 0.33519 0.41811 0.0
H1260 H 0.46905 0.26641 0.32846 0.0
H1261 H 0.42378 0.29858 0.33696 0.0
H1262 H 0.45642 0.32318 0.43891 0.0
C1263 C 0.56168 0.25663 0.41613 0.0
C1264 C 0.57428 0.23642 0.39158 0.0
C1265 C 0.55654 0.22728 0.36171 0.0
C1266 C 0.52744 0.23946 0.35543 0.0
C1267 C 0.51604 0.26002 0.37968 0.0
C1268 C 0.5319 0.26763 0.40993 0.0
C1269 C 0.51352 0.28942 0.43197 0.0
C1270 C 0.50292 0.27168 0.4633 0.0
C1271 C 0.53312 0.32275 0.44095 0.0
C1272 C 0.48533 0.29357 0.40895 0.0
C1273 C 0.48784 0.27689 0.37868 0.0
C1274 C 0.46634 0.27885 0.35229 0.0
C1275 C 0.44093 0.29737 0.35727 0.0
C1276 C 0.43657 0.3128 0.38863 0.0
C1277 C 0.45918 0.31123 0.41482 0.0
H1278 H 0.6157 0.5729 0.75886 0.0
H1279 H 0.64803 0.54522 0.66149 0.0
H1280 H 0.6505 0.48807 0.67989 0.0
H1281 H 0.67003 0.53399 0.80203 0.0
H1282 H 0.64439 0.52298 0.83563 0.0
H1283 H 0.63862 0.55858 0.81247 0.0
H1284 H 0.58013 0.53524 0.79852 0.0
H1285 H 0.58554 0.49957 0.82195 0.0
H1286 H 0.57146 0.49448 0.77919 0.0
H1287 H 0.654 0.43456 0.71265 0.0
H1288 H 0.66181 0.39379 0.75529 0.0
H1289 H 0.63306 0.46135 0.83145 0.0
C1290 C 0.62267 0.55486 0.74083 0.0
C1291 C 0.63156 0.56375 0.70852 0.0
C1292 C 0.64065 0.53904 0.68616 0.0
C1293 C 0.64225 0.50655 0.69654 0.0
C1294 C 0.63477 0.49932 0.72931 0.0
C1295 C 0.62518 0.52308 0.75097 0.0
C1296 C 0.6223 0.51134 0.78595 0.0
C1297 C 0.6452 0.533 0.81043 0.0
C1298 C 0.5878 0.51008 0.79704 0.0
C1299 C 0.63227 0.47718 0.78112 0.0
C1300 C 0.63866 0.47015 0.74821 0.0
C1301 C 0.64886 0.43995 0.73833 0.0
C1302 C 0.65312 0.41688 0.76269 0.0
C1303 C 0.64801 0.42448 0.79664 0.0
C1304 C 0.63709 0.45486 0.80569 0.0
H1305 H 0.34591 0.05762 0.8068 0.0
H1306 H 0.44565 0.0814 0.83371 0.0
H1307 H 0.45788 0.03143 0.80139 0.0
H1308 H 0.34191 0.96744 0.80285 0.0
H1309 H 0.31519 0.96402 0.76692 0.0
H1310 H 0.31521 0.99826 0.79654 0.0
H1311 H 0.32451 0.03774 0.74812 0.0
H1312 H 0.32614 1.00341 0.71886 0.0
H1313 H 0.35889 0.03559 0.72316 0.0
H1314 H 0.45833 0.97785 0.76504 0.0
H1315 H 0.44649 0.92553 0.73107 0.0
H1316 H 0.34818 0.94372 0.72024 0.0
C1317 C 0.37021 0.05183 0.80658 0.0
C1318 C 0.39476 0.07281 0.82353 0.0
C1319 C 0.42639 0.06494 0.82189 0.0
C1320 C 0.43356 0.0369 0.80316 0.0
C1321 C 0.4089 0.01756 0.78539 0.0
C1322 C 0.37783 0.02473 0.78707 0.0
C1323 C 0.35587 1.00168 0.76401 0.0
C1324 C 0.33057 0.98166 0.78378 0.0
C1325 C 0.34045 0.02076 0.73694 0.0
C1326 C 0.37925 0.97999 0.74935 0.0
C1327 C 0.40972 0.98927 0.76211 0.0
C1328 C 0.43468 0.97086 0.75438 0.0
C1329 C 0.42793 0.94147 0.73456 0.0
C1330 C 0.39671 0.93124 0.72196 0.0
C1331 C 0.37249 0.95155 0.72851 0.0
H1332 H 0.46781 0.23513 0.82427 0.0
H1333 H 0.45077 0.20122 0.92358 0.0
H1334 H 0.49474 0.2412 0.94599 0.0
H1335 H 0.5523 0.24612 0.83309 0.0
H1336 H 0.55664 0.2822 0.8087 0.0
H1337 H 0.52299 0.25166 0.80107 0.0
H1338 H 0.48536 0.29707 0.80988 0.0
H1339 H 0.51901 0.32762 0.81834 0.0
H1340 H 0.48834 0.32175 0.84825 0.0
H1341 H 0.54254 0.28199 0.95733 0.0
H1342 H 0.5942 0.31631 0.95534 0.0
H1343 H 0.57857 0.32655 0.84987 0.0
C1344 C 0.47331 0.23598 0.85073 0.0
C1345 C 0.4556 0.21495 0.87209 0.0
C1346 C 0.46383 0.21698 0.90658 0.0
C1347 C 0.48863 0.23986 0.91966 0.0
C1348 C 0.50495 0.2608 0.89806 0.0
C1349 C 0.49789 0.25886 0.86429 0.0
C1350 C 0.52027 0.28299 0.84627 0.0
C1351 C 0.53917 0.26465 0.82079 0.0
C1352 C 0.50216 0.30889 0.82971 0.0
C1353 C 0.54144 0.29832 0.87512 0.0
C1354 C 0.53197 0.28538 0.90485 0.0
C1355 C 0.54978 0.29294 0.93439 0.0
C1356 C 0.57887 0.31278 0.93317 0.0
C1357 C 0.58961 0.32508 0.90275 0.0
C1358 C 0.57002 0.3189 0.87371 0.0
H1359 H 0.41678 0.60405 0.27114 0.0
H1360 H 0.34992 0.57502 0.18856 0.0
H1361 H 0.33396 0.5226 0.21449 0.0
H1362 H 0.44054 0.52015 0.28182 0.0
H1363 H 0.44451 0.5262 0.32639 0.0
H1364 H 0.4518 0.56086 0.30041 0.0
H1365 H 0.41031 0.5906 0.33247 0.0
H1366 H 0.40227 0.55573 0.35801 0.0
H1367 H 0.37032 0.57081 0.33473 0.0
H1368 H 0.32009 0.47668 0.25254 0.0
H1369 H 0.31776 0.43392 0.29406 0.0
H1370 H 0.39681 0.48915 0.3499 0.0
C1371 C 0.39942 0.58629 0.25805 0.0
C1372 C 0.38474 0.59384 0.22765 0.0
C1373 C 0.36187 0.56991 0.21159 0.0
C1374 C 0.35233 0.5401 0.22633 0.0
C1375 C 0.36627 0.5341 0.25688 0.0
C1376 C 0.39006 0.55597 0.27209 0.0
C1377 C 0.40149 0.54301 0.30462 0.0
C1378 C 0.43667 0.5372 0.30321 0.0
C1379 C 0.39575 0.56644 0.3342 0.0
C1380 C 0.38011 0.51068 0.30546 0.0
C1381 C 0.35954 0.50645 0.27797 0.0
C1382 C 0.33642 0.47944 0.27389 0.0
C1383 C 0.33505 0.45544 0.29784 0.0
C1384 C 0.35708 0.45816 0.32522 0.0
C1385 C 0.37968 0.4864 0.32921 0.0
H1386 H 0.69584 0.10042 0.31137 0.0
H1387 H 0.63097 0.07282 0.38928 0.0
H1388 H 0.6231 0.01585 0.36571 0.0
H1389 H 0.65277 0.05339 0.24675 0.0
H1390 H 0.68641 0.04032 0.22551 0.0
H1391 H 0.69059 0.07847 0.25018 0.0
H1392 H 0.73667 0.05887 0.28498 0.0
H1393 H 0.73306 0.02088 0.25999 0.0
H1394 H 0.73074 0.0199 0.30453 0.0
H1395 H 0.61739 0.9643 0.33167 0.0
H1396 H 0.61852 0.9175 0.29187 0.0
H1397 H 0.68741 0.97582 0.23437 0.0
C1398 C 0.68092 0.08201 0.32401 0.0
C1399 C 0.66428 0.09089 0.35244 0.0
C1400 C 0.6441 0.06646 0.3677 0.0
C1401 C 0.63938 0.03406 0.35441 0.0
C1402 C 0.65497 0.0263 0.32571 0.0
C1403 C 0.67573 0.04924 0.31083 0.0
C1404 C 0.68816 0.03417 0.27922 0.0
C1405 C 0.67892 0.0527 0.24861 0.0
C1406 C 0.72431 0.03341 0.28237 0.0
C1407 C 0.67065 0.99951 0.27853 0.0
C1408 C 0.65168 0.9958 0.30569 0.0
C1409 C 0.63247 0.96669 0.31051 0.0
C1410 C 0.63323 0.94021 0.28752 0.0
C1411 C 0.65316 0.94264 0.25982 0.0
C1412 C 0.67184 0.97303 0.25512 0.0
H1413 H 0.55864 0.86044 0.18885 0.0
H1414 H 0.60837 0.81859 0.10822 0.0
H1415 H 0.56122 0.77803 0.09461 0.0
H1416 H 0.53956 0.78726 0.21885 0.0
H1417 H 0.5024 0.79563 0.23625 0.0
H1418 H 0.53291 0.82886 0.23105 0.0
H1419 H 0.49456 0.85922 0.19527 0.0
H1420 H 0.4634 0.82651 0.20116 0.0
H1421 H 0.47347 0.83784 0.15977 0.0
H1422 H 0.50844 0.73581 0.09635 0.0
H1423 H 0.46251 0.6983 0.11519 0.0
H1424 H 0.4608 0.76105 0.20441 0.0
C1425 C 0.55877 0.84422 0.16685 0.0
C1426 C 0.58681 0.84336 0.14903 0.0
C1427 C 0.58674 0.82061 0.12145 0.0
C1428 C 0.56015 0.797 0.11401 0.0
C1429 C 0.53415 0.79617 0.13477 0.0
C1430 C 0.53367 0.81939 0.1608 0.0
C1431 C 0.50777 0.80962 0.18452 0.0
C1432 C 0.5215 0.80506 0.2197 0.0
C1433 C 0.48335 0.8348 0.18519 0.0
C1434 C 0.49376 0.77715 0.16823 0.0
C1435 C 0.50801 0.77006 0.13884 0.0
C1436 C 0.49738 0.74135 0.11948 0.0
C1437 C 0.47143 0.72001 0.13043 0.0
C1438 C 0.45762 0.7266 0.16132 0.0
C1439 C 0.46986 0.75525 0.1804 0.0
loop_
_geom_bond_atom_site_label_1
_geom_bond_atom_site_label_2
_geom_bond_distance
_geom_bond_site_symmetry_2
_ccdc_geom_bond_type
Mn0 O5 2.095 . S
Mn0 O15 2.162 . S
Mn0 O16 2.297 . S
Mn0 O24 2.385 . S
Mn0 O25 2.209 . S
Mn0 O26 2.094 . S
Mn1 O6 2.121 . S
Mn1 N8 2.257 . S
Mn1 N17 2.282 . S
Mn1 O25 2.215 . S
Mn1 O27 2.117 . S
C2 O24 1.234 . S
C2 O25 1.283 . S
C3 O15 1.281 . S
C3 O16 1.236 . S
C4 O26 1.240 . S
C4 O27 1.264 . S
O5 Mn0 2.095 . S
O5 C14 1.250 . S
O6 Mn1 2.121 . S
O6 C14 1.258 . S
C7 N8 1.326 . S
C7 C11 1.460 . S
C7 H13 0.929 . S
N8 Mn1 2.257 . S
N8 C7 1.326 . S
N8 C12 1.362 . S
C9 C10 1.258 . S
C9 C12 1.431 . S
C9 C29 1.449 . S
C10 C9 1.258 . S
C10 C11 1.477 . S
C10 H30 0.931 . S
C11 C7 1.460 . S
C11 C10 1.477 . S
C11 H31 0.930 . S
C12 N8 1.362 . S
C12 C9 1.431 . S
C12 C22 1.476 . S
H13 C7 0.929 . S
C14 O5 1.250 . S
C14 O6 1.258 . S
O15 Mn0 2.162 . S
O15 C3 1.281 . S
O16 Mn0 2.297 . S
O16 C3 1.236 . S
N17 Mn1 2.282 . S
N17 C18 1.328 . S
N17 C22 1.318 . S
C18 N17 1.328 . S
C18 C19 1.457 . S
C18 H23 0.929 . S
C19 C18 1.457 . S
C19 C20 1.291 . S
C19 H32 0.931 . S
C20 C19 1.291 . S
C20 C21 1.373 . S
C20 H33 0.929 . S
C21 C20 1.373 . S
C21 C22 1.396 . S
C21 C28 1.403 . S
C22 C12 1.476 . S
C22 N17 1.318 . S
C22 C21 1.396 . S
H23 C18 0.929 . S
O24 Mn0 2.385 . S
O24 C2 1.234 . S
O25 Mn0 2.209 . S
O25 Mn1 2.215 . S
O25 C2 1.283 . S
O26 Mn0 2.094 . S
O26 C4 1.240 . S
O27 Mn1 2.117 . S
O27 C4 1.264 . S
C28 C21 1.403 . S
C28 C29 1.399 . S
C28 H34 0.929 . S
C29 C9 1.449 . S
C29 C28 1.399 . S
C29 H35 0.930 . S
H30 C10 0.931 . S
H31 C11 0.930 . S
H32 C19 0.931 . S
H33 C20 0.929 . S
H34 C28 0.929 . S
H35 C29 0.930 . S
Mn36 O41 2.095 . S
Mn36 O51 2.162 . S
Mn36 O52 2.297 . S
Mn36 O60 2.385 . S
Mn36 O61 2.209 . S
Mn36 O62 2.094 . S
Mn37 O42 2.121 . S
Mn37 N44 2.257 . S
Mn37 N53 2.282 . S
Mn37 O61 2.215 . S
Mn37 O63 2.117 . S
C38 O60 1.234 . S
C38 O61 1.283 . S
C39 O51 1.281 . S
C39 O52 1.236 . S
C40 O62 1.240 . S
C40 O63 1.264 . S
O41 Mn36 2.095 . S
O41 C50 1.250 . S
O42 Mn37 2.121 . S
O42 C50 1.258 . S
C43 N44 1.326 . S
C43 C47 1.460 . S
C43 H49 0.929 . S
N44 Mn37 2.257 . S
N44 C43 1.326 . S
N44 C48 1.362 . S
C45 C46 1.258 . S
C45 C48 1.431 . S
C45 C65 1.449 . S
C46 C45 1.258 . S
C46 C47 1.477 . S
C46 H66 0.931 . S
C47 C43 1.460 . S
C47 C46 1.477 . S
C47 H67 0.930 . S
C48 N44 1.362 . S
C48 C45 1.431 . S
C48 C58 1.476 . S
H49 C43 0.929 . S
C50 O41 1.250 . S
C50 O42 1.258 . S
O51 Mn36 2.162 . S
O51 C39 1.281 . S
O52 Mn36 2.297 . S
O52 C39 1.236 . S
N53 Mn37 2.282 . S
N53 C54 1.328 . S
N53 C58 1.318 . S
C54 N53 1.328 . S
C54 C55 1.457 . S
C54 H59 0.929 . S
C55 C54 1.457 . S
C55 C56 1.291 . S
C55 H68 0.931 . S
C56 C55 1.291 . S
C56 C57 1.373 . S
C56 H69 0.929 . S
C57 C56 1.373 . S
C57 C58 1.396 . S
C57 C64 1.403 . S
C58 C48 1.476 . S
C58 N53 1.318 . S
C58 C57 1.396 . S
H59 C54 0.929 . S
O60 Mn36 2.385 . S
O60 C38 1.234 . S
O61 Mn36 2.209 . S
O61 Mn37 2.215 . S
O61 C38 1.283 . S
O62 Mn36 2.094 . S
O62 C40 1.240 . S
O63 Mn37 2.117 . S
O63 C40 1.264 . S
C64 C57 1.403 . S
C64 C65 1.399 . S
C64 H70 0.929 . S
C65 C45 1.449 . S
C65 C64 1.399 . S
C65 H71 0.930 . S
H66 C46 0.931 . S
H67 C47 0.930 . S
H68 C55 0.931 . S
H69 C56 0.929 . S
H70 C64 0.929 . S
H71 C65 0.930 . S
Mn72 O77 2.095 . S
Mn72 O87 2.162 . S
Mn72 O88 2.297 . S
Mn72 O96 2.385 . S
Mn72 O97 2.209 . S
Mn72 O98 2.094 . S
Mn73 O78 2.121 . S
Mn73 N80 2.257 . S
Mn73 N89 2.282 . S
Mn73 O97 2.215 . S
Mn73 O99 2.117 . S
C74 O96 1.234 . S
C74 O97 1.283 . S
C75 O87 1.281 . S
C75 O88 1.236 . S
C76 O98 1.240 . S
C76 O99 1.264 . S
O77 Mn72 2.095 . S
O77 C86 1.250 . S
O78 Mn73 2.121 . S
O78 C86 1.258 . S
C79 N80 1.326 . S
C79 C83 1.460 . S
C79 H85 0.929 . S
N80 Mn73 2.257 . S
N80 C79 1.326 . S
N80 C84 1.362 . S
C81 C82 1.258 . S
C81 C84 1.431 . S
C81 C101 1.449 . S
C82 C81 1.258 . S
C82 C83 1.477 . S
C82 H102 0.931 . S
C83 C79 1.460 . S
C83 C82 1.477 . S
C83 H103 0.930 . S
C84 N80 1.362 . S
C84 C81 1.431 . S
C84 C94 1.476 . S
H85 C79 0.929 . S
C86 O77 1.250 . S
C86 O78 1.258 . S
O87 Mn72 2.162 . S
O87 C75 1.281 . S
O88 Mn72 2.297 . S
O88 C75 1.236 . S
N89 Mn73 2.282 . S
N89 C90 1.328 . S
N89 C94 1.318 . S
C90 N89 1.328 . S
C90 C91 1.457 . S
C90 H95 0.929 . S
C91 C90 1.457 . S
C91 C92 1.291 . S
C91 H104 0.931 . S
C92 C91 1.291 . S
C92 C93 1.373 . S
C92 H105 0.929 . S
C93 C92 1.373 . S
C93 C94 1.396 . S
C93 C100 1.403 . S
C94 C84 1.476 . S
C94 N89 1.318 . S
C94 C93 1.396 . S
H95 C90 0.929 . S
O96 Mn72 2.385 . S
O96 C74 1.234 . S
O97 Mn72 2.209 . S
O97 Mn73 2.215 . S
O97 C74 1.283 . S
O98 Mn72 2.094 . S
O98 C76 1.240 . S
O99 Mn73 2.117 . S
O99 C76 1.264 . S
C100 C93 1.403 . S
C100 C101 1.399 . S
C100 H106 0.929 . S
C101 C81 1.449 . S
C101 C100 1.399 . S
C101 H107 0.930 . S
H102 C82 0.931 . S
H103 C83 0.930 . S
H104 C91 0.931 . S
H105 C92 0.929 . S
H106 C100 0.929 . S
H107 C101 0.930 . S
Mn108 O113 2.095 . S
Mn108 O123 2.162 . S
Mn108 O124 2.297 . S
Mn108 O132 2.385 . S
Mn108 O133 2.209 . S
Mn108 O134 2.094 . S
Mn109 O114 2.121 . S
Mn109 N116 2.257 . S
Mn109 N125 2.282 . S
Mn109 O133 2.215 . S
Mn109 O135 2.117 . S
C110 O132 1.234 . S
C110 O133 1.283 . S
C111 O123 1.281 . S
C111 O124 1.236 . S
C112 O134 1.240 . S
C112 O135 1.264 . S
O113 Mn108 2.095 . S
O113 C122 1.250 . S
O114 Mn109 2.121 . S
O114 C122 1.258 . S
C115 N116 1.326 . S
C115 C119 1.460 . S
C115 H121 0.929 . S
N116 Mn109 2.257 . S
N116 C115 1.326 . S
N116 C120 1.362 . S
C117 C118 1.258 . S
C117 C120 1.431 . S
C117 C137 1.449 . S
C118 C117 1.258 . S
C118 C119 1.477 . S
C118 H138 0.931 . S
C119 C115 1.460 . S
C119 C118 1.477 . S
C119 H139 0.930 . S
C120 N116 1.362 . S
C120 C117 1.431 . S
C120 C130 1.476 . S
H121 C115 0.929 . S
C122 O113 1.250 . S
C122 O114 1.258 . S
O123 Mn108 2.162 . S
O123 C111 1.281 . S
O124 Mn108 2.297 . S
O124 C111 1.236 . S
N125 Mn109 2.282 . S
N125 C126 1.328 . S
N125 C130 1.318 . S
C126 N125 1.328 . S
C126 C127 1.457 . S
C126 H131 0.929 . S
C127 C126 1.457 . S
C127 C128 1.291 . S
C127 H140 0.931 . S
C128 C127 1.291 . S
C128 C129 1.373 . S
C128 H141 0.929 . S
C129 C128 1.373 . S
C129 C130 1.396 . S
C129 C136 1.403 . S
C130 C120 1.476 . S
C130 N125 1.318 . S
C130 C129 1.396 . S
H131 C126 0.929 . S
O132 Mn108 2.385 . S
O132 C110 1.234 . S
O133 Mn108 2.209 . S
O133 Mn109 2.215 . S
O133 C110 1.283 . S
O134 Mn108 2.094 . S
O134 C112 1.240 . S
O135 Mn109 2.117 . S
O135 C112 1.264 . S
C136 C129 1.403 . S
C136 C137 1.399 . S
C136 H142 0.929 . S
C137 C117 1.449 . S
C137 C136 1.399 . S
C137 H143 0.930 . S
H138 C118 0.931 . S
H139 C119 0.930 . S
H140 C127 0.931 . S
H141 C128 0.929 . S
H142 C136 0.929 . S
H143 C137 0.930 . S
Mn144 O149 2.095 . S
Mn144 O159 2.162 . S
Mn144 O160 2.297 . S
Mn144 O168 2.385 . S
Mn144 O169 2.209 . S
Mn144 O170 2.094 . S
Mn145 O150 2.121 . S
Mn145 N152 2.257 . S
Mn145 N161 2.282 . S
Mn145 O169 2.215 . S
Mn145 O171 2.117 . S
C146 O168 1.234 . S
C146 O169 1.283 . S
C147 O159 1.281 . S
C147 O160 1.236 . S
C148 O170 1.240 . S
C148 O171 1.264 . S
O149 Mn144 2.095 . S
O149 C158 1.250 . S
O150 Mn145 2.121 . S
O150 C158 1.258 . S
C151 N152 1.326 . S
C151 C155 1.460 . S
C151 H157 0.929 . S
N152 Mn145 2.257 . S
N152 C151 1.326 . S
N152 C156 1.362 . S
C153 C154 1.258 . S
C153 C156 1.431 . S
C153 C173 1.449 . S
C154 C153 1.258 . S
C154 C155 1.477 . S
C154 H174 0.931 . S
C155 C151 1.460 . S
C155 C154 1.477 . S
C155 H175 0.930 . S
C156 N152 1.362 . S
C156 C153 1.431 . S
C156 C166 1.476 . S
H157 C151 0.929 . S
C158 O149 1.250 . S
C158 O150 1.258 . S
O159 Mn144 2.162 . S
O159 C147 1.281 . S
O160 Mn144 2.297 . S
O160 C147 1.236 . S
N161 Mn145 2.282 . S
N161 C162 1.328 . S
N161 C166 1.318 . S
C162 N161 1.328 . S
C162 C163 1.457 . S
C162 H167 0.929 . S
C163 C162 1.457 . S
C163 C164 1.291 . S
C163 H176 0.931 . S
C164 C163 1.291 . S
C164 C165 1.373 . S
C164 H177 0.929 . S
C165 C164 1.373 . S
C165 C166 1.396 . S
C165 C172 1.403 . S
C166 C156 1.476 . S
C166 N161 1.318 . S
C166 C165 1.396 . S
H167 C162 0.929 . S
O168 Mn144 2.385 . S
O168 C146 1.234 . S
O169 Mn144 2.209 . S
O169 Mn145 2.215 . S
O169 C146 1.283 . S
O170 Mn144 2.094 . S
O170 C148 1.240 . S
O171 Mn145 2.117 . S
O171 C148 1.264 . S
C172 C165 1.403 . S
C172 C173 1.399 . S
C172 H178 0.929 . S
C173 C153 1.449 . S
C173 C172 1.399 . S
C173 H179 0.930 . S
H174 C154 0.931 . S
H175 C155 0.930 . S
H176 C163 0.931 . S
H177 C164 0.929 . S
H178 C172 0.929 . S
H179 C173 0.930 . S
Mn180 O185 2.095 . S
Mn180 O195 2.162 . S
Mn180 O196 2.297 . S
Mn180 O204 2.385 . S
Mn180 O205 2.209 . S
Mn180 O206 2.094 . S
Mn181 O186 2.121 . S
Mn181 N188 2.257 . S
Mn181 N197 2.282 . S
Mn181 O205 2.215 . S
Mn181 O207 2.117 . S
C182 O204 1.234 . S
C182 O205 1.283 . S
C183 O195 1.281 . S
C183 O196 1.236 . S
C184 O206 1.240 . S
C184 O207 1.264 . S
O185 Mn180 2.095 . S
O185 C194 1.250 . S
O186 Mn181 2.121 . S
O186 C194 1.258 . S
C187 N188 1.326 . S
C187 C191 1.460 . S
C187 H193 0.929 . S
N188 Mn181 2.257 . S
N188 C187 1.326 . S
N188 C192 1.362 . S
C189 C190 1.258 . S
C189 C192 1.431 . S
C189 C209 1.449 . S
C190 C189 1.258 . S
C190 C191 1.477 . S
C190 H210 0.931 . S
C191 C187 1.460 . S
C191 C190 1.477 . S
C191 H211 0.930 . S
C192 N188 1.362 . S
C192 C189 1.431 . S
C192 C202 1.476 . S
H193 C187 0.929 . S
C194 O185 1.250 . S
C194 O186 1.258 . S
O195 Mn180 2.162 . S
O195 C183 1.281 . S
O196 Mn180 2.297 . S
O196 C183 1.236 . S
N197 Mn181 2.282 . S
N197 C198 1.328 . S
N197 C202 1.318 . S
C198 N197 1.328 . S
C198 C199 1.457 . S
C198 H203 0.929 . S
C199 C198 1.457 . S
C199 C200 1.291 . S
C199 H212 0.931 . S
C200 C199 1.291 . S
C200 C201 1.373 . S
C200 H213 0.929 . S
C201 C200 1.373 . S
C201 C202 1.396 . S
C201 C208 1.403 . S
C202 C192 1.476 . S
C202 N197 1.318 . S
C202 C201 1.396 . S
H203 C198 0.929 . S
O204 Mn180 2.385 . S
O204 C182 1.234 . S
O205 Mn180 2.209 . S
O205 Mn181 2.215 . S
O205 C182 1.283 . S
O206 Mn180 2.094 . S
O206 C184 1.240 . S
O207 Mn181 2.117 . S
O207 C184 1.264 . S
C208 C201 1.403 . S
C208 C209 1.399 . S
C208 H214 0.929 . S
C209 C189 1.449 . S
C209 C208 1.399 . S
C209 H215 0.930 . S
H210 C190 0.931 . S
H211 C191 0.930 . S
H212 C199 0.931 . S
H213 C200 0.929 . S
H214 C208 0.929 . S
H215 C209 0.930 . S
Mn216 O221 2.095 . S
Mn216 O231 2.162 . S
Mn216 O232 2.297 . S
Mn216 O240 2.385 . S
Mn216 O241 2.209 . S
Mn216 O242 2.094 . S
Mn217 O222 2.121 . S
Mn217 N224 2.257 . S
Mn217 N233 2.282 . S
Mn217 O241 2.215 . S
Mn217 O243 2.117 . S
C218 O240 1.234 . S
C218 O241 1.283 . S
C219 O231 1.281 . S
C219 O232 1.236 . S
C220 O242 1.240 . S
C220 O243 1.264 . S
O221 Mn216 2.095 . S
O221 C230 1.250 . S
O222 Mn217 2.121 . S
O222 C230 1.258 . S
C223 N224 1.326 . S
C223 C227 1.460 . S
C223 H229 0.929 . S
N224 Mn217 2.257 . S
N224 C223 1.326 . S
N224 C228 1.362 . S
C225 C226 1.258 . S
C225 C228 1.431 . S
C225 C245 1.449 . S
C226 C225 1.258 . S
C226 C227 1.477 . S
C226 H246 0.931 . S
C227 C223 1.460 . S
C227 C226 1.477 . S
C227 H247 0.930 . S
C228 N224 1.362 . S
C228 C225 1.431 . S
C228 C238 1.476 . S
H229 C223 0.929 . S
C230 O221 1.250 . S
C230 O222 1.258 . S
O231 Mn216 2.162 . S
O231 C219 1.281 . S
O232 Mn216 2.297 . S
O232 C219 1.236 . S
N233 Mn217 2.282 . S
N233 C234 1.328 . S
N233 C238 1.318 . S
C234 N233 1.328 . S
C234 C235 1.457 . S
C234 H239 0.929 . S
C235 C234 1.457 . S
C235 C236 1.291 . S
C235 H248 0.931 . S
C236 C235 1.291 . S
C236 C237 1.373 . S
C236 H249 0.929 . S
C237 C236 1.373 . S
C237 C238 1.396 . S
C237 C244 1.403 . S
C238 C228 1.476 . S
C238 N233 1.318 . S
C238 C237 1.396 . S
H239 C234 0.929 . S
O240 Mn216 2.385 . S
O240 C218 1.234 . S
O241 Mn216 2.209 . S
O241 Mn217 2.215 . S
O241 C218 1.283 . S
O242 Mn216 2.094 . S
O242 C220 1.240 . S
O243 Mn217 2.117 . S
O243 C220 1.264 . S
C244 C237 1.403 . S
C244 C245 1.399 . S
C244 H250 0.929 . S
C245 C225 1.449 . S
C245 C244 1.399 . S
C245 H251 0.930 . S
H246 C226 0.931 . S
H247 C227 0.930 . S
H248 C235 0.931 . S
H249 C236 0.929 . S
H250 C244 0.929 . S
H251 C245 0.930 . S
Mn252 O257 2.095 . S
Mn252 O267 2.162 . S
Mn252 O268 2.297 . S
Mn252 O276 2.385 . S
Mn252 O277 2.209 . S
Mn252 O278 2.094 . S
Mn253 O258 2.121 . S
Mn253 N260 2.257 . S
Mn253 N269 2.282 . S
Mn253 O277 2.215 . S
Mn253 O279 2.117 . S
C254 O276 1.234 . S
C254 O277 1.283 . S
C255 O267 1.281 . S
C255 O268 1.236 . S
C256 O278 1.240 . S
C256 O279 1.264 . S
O257 Mn252 2.095 . S
O257 C266 1.250 . S
O258 Mn253 2.121 . S
O258 C266 1.258 . S
C259 N260 1.326 . S
C259 C263 1.460 . S
C259 H265 0.929 . S
N260 Mn253 2.257 . S
N260 C259 1.326 . S
N260 C264 1.362 . S
C261 C262 1.258 . S
C261 C264 1.431 . S
C261 C281 1.449 . S
C262 C261 1.258 . S
C262 C263 1.477 . S
C262 H282 0.931 . S
C263 C259 1.460 . S
C263 C262 1.477 . S
C263 H283 0.930 . S
C264 N260 1.362 . S
C264 C261 1.431 . S
C264 C274 1.476 . S
H265 C259 0.929 . S
C266 O257 1.250 . S
C266 O258 1.258 . S
O267 Mn252 2.162 . S
O267 C255 1.281 . S
O268 Mn252 2.297 . S
O268 C255 1.236 . S
N269 Mn253 2.282 . S
N269 C270 1.328 . S
N269 C274 1.318 . S
C270 N269 1.328 . S
C270 C271 1.457 . S
C270 H275 0.929 . S
C271 C270 1.457 . S
C271 C272 1.291 . S
C271 H284 0.931 . S
C272 C271 1.291 . S
C272 C273 1.373 . S
C272 H285 0.929 . S
C273 C272 1.373 . S
C273 C274 1.396 . S
C273 C280 1.403 . S
C274 C264 1.476 . S
C274 N269 1.318 . S
C274 C273 1.396 . S
H275 C270 0.929 . S
O276 Mn252 2.385 . S
O276 C254 1.234 . S
O277 Mn252 2.209 . S
O277 Mn253 2.215 . S
O277 C254 1.283 . S
O278 Mn252 2.094 . S
O278 C256 1.240 . S
O279 Mn253 2.117 . S
O279 C256 1.264 . S
C280 C273 1.403 . S
C280 C281 1.399 . S
C280 H286 0.929 . S
C281 C261 1.449 . S
C281 C280 1.399 . S
C281 H287 0.930 . S
H282 C262 0.931 . S
H283 C263 0.930 . S
H284 C271 0.931 . S
H285 C272 0.929 . S
H286 C280 0.929 . S
H287 C281 0.930 . S
Mn288 O293 2.095 . S
Mn288 O303 2.162 . S
Mn288 O304 2.297 . S
Mn288 O312 2.385 . S
Mn288 O313 2.209 . S
Mn288 O314 2.094 . S
Mn289 O294 2.121 . S
Mn289 N296 2.257 . S
Mn289 N305 2.282 . S
Mn289 O313 2.215 . S
Mn289 O315 2.117 . S
C290 O312 1.234 . S
C290 O313 1.283 . S
C291 O303 1.281 . S
C291 O304 1.236 . S
C292 O314 1.240 . S
C292 O315 1.264 . S
O293 Mn288 2.095 . S
O293 C302 1.250 . S
O294 Mn289 2.121 . S
O294 C302 1.258 . S
C295 N296 1.326 . S
C295 C299 1.460 . S
C295 H301 0.929 . S
N296 Mn289 2.257 . S
N296 C295 1.326 . S
N296 C300 1.362 . S
C297 C298 1.258 . S
C297 C300 1.431 . S
C297 C317 1.449 . S
C298 C297 1.258 . S
C298 C299 1.477 . S
C298 H318 0.931 . S
C299 C295 1.460 . S
C299 C298 1.477 . S
C299 H319 0.930 . S
C300 N296 1.362 . S
C300 C297 1.431 . S
C300 C310 1.476 . S
H301 C295 0.929 . S
C302 O293 1.250 . S
C302 O294 1.258 . S
O303 Mn288 2.162 . S
O303 C291 1.281 . S
O304 Mn288 2.297 . S
O304 C291 1.236 . S
N305 Mn289 2.282 . S
N305 C306 1.328 . S
N305 C310 1.318 . S
C306 N305 1.328 . S
C306 C307 1.457 . S
C306 H311 0.929 . S
C307 C306 1.457 . S
C307 C308 1.291 . S
C307 H320 0.931 . S
C308 C307 1.291 . S
C308 C309 1.373 . S
C308 H321 0.929 . S
C309 C308 1.373 . S
C309 C310 1.396 . S
C309 C316 1.403 . S
C310 C300 1.476 . S
C310 N305 1.318 . S
C310 C309 1.396 . S
H311 C306 0.929 . S
O312 Mn288 2.385 . S
O312 C290 1.234 . S
O313 Mn288 2.209 . S
O313 Mn289 2.215 . S
O313 C290 1.283 . S
O314 Mn288 2.094 . S
O314 C292 1.240 . S
O315 Mn289 2.117 . S
O315 C292 1.264 . S
C316 C309 1.403 . S
C316 C317 1.399 . S
C316 H322 0.929 . S
C317 C297 1.449 . S
C317 C316 1.399 . S
C317 H323 0.930 . S
H318 C298 0.931 . S
H319 C299 0.930 . S
H320 C307 0.931 . S
H321 C308 0.929 . S
H322 C316 0.929 . S
H323 C317 0.930 . S
Mn324 O329 2.095 . S
Mn324 O339 2.162 . S
Mn324 O340 2.297 . S
Mn324 O348 2.385 . S
Mn324 O349 2.209 . S
Mn324 O350 2.094 . S
Mn325 O330 2.121 . S
Mn325 N332 2.257 . S
Mn325 N341 2.282 . S
Mn325 O349 2.215 . S
Mn325 O351 2.117 . S
C326 O348 1.234 . S
C326 O349 1.283 . S
C327 O339 1.281 . S
C327 O340 1.236 . S
C328 O350 1.240 . S
C328 O351 1.264 . S
O329 Mn324 2.095 . S
O329 C338 1.250 . S
O330 Mn325 2.121 . S
O330 C338 1.258 . S
C331 N332 1.326 . S
C331 C335 1.460 . S
C331 H337 0.929 . S
N332 Mn325 2.257 . S
N332 C331 1.326 . S
N332 C336 1.362 . S
C333 C334 1.258 . S
C333 C336 1.431 . S
C333 C353 1.449 . S
C334 C333 1.258 . S
C334 C335 1.477 . S
C334 H354 0.931 . S
C335 C331 1.460 . S
C335 C334 1.477 . S
C335 H355 0.930 . S
C336 N332 1.362 . S
C336 C333 1.431 . S
C336 C346 1.476 . S
H337 C331 0.929 . S
C338 O329 1.250 . S
C338 O330 1.258 . S
O339 Mn324 2.162 . S
O339 C327 1.281 . S
O340 Mn324 2.297 . S
O340 C327 1.236 . S
N341 Mn325 2.282 . S
N341 C342 1.328 . S
N341 C346 1.318 . S
C342 N341 1.328 . S
C342 C343 1.457 . S
C342 H347 0.929 . S
C343 C342 1.457 . S
C343 C344 1.291 . S
C343 H356 0.931 . S
C344 C343 1.291 . S
C344 C345 1.373 . S
C344 H357 0.929 . S
C345 C344 1.373 . S
C345 C346 1.396 . S
C345 C352 1.403 . S
C346 C336 1.476 . S
C346 N341 1.318 . S
C346 C345 1.396 . S
H347 C342 0.929 . S
O348 Mn324 2.385 . S
O348 C326 1.234 . S
O349 Mn324 2.209 . S
O349 Mn325 2.215 . S
O349 C326 1.283 . S
O350 Mn324 2.094 . S
O350 C328 1.240 . S
O351 Mn325 2.117 . S
O351 C328 1.264 . S
C352 C345 1.403 . S
C352 C353 1.399 . S
C352 H358 0.929 . S
C353 C333 1.449 . S
C353 C352 1.399 . S
C353 H359 0.930 . S
H354 C334 0.931 . S
H355 C335 0.930 . S
H356 C343 0.931 . S
H357 C344 0.929 . S
H358 C352 0.929 . S
H359 C353 0.930 . S
Mn360 O365 2.095 . S
Mn360 O375 2.162 . S
Mn360 O376 2.297 . S
Mn360 O384 2.385 . S
Mn360 O385 2.209 . S
Mn360 O386 2.094 . S
Mn361 O366 2.121 . S
Mn361 N368 2.257 . S
Mn361 N377 2.282 . S
Mn361 O385 2.215 . S
Mn361 O387 2.117 . S
C362 O384 1.234 . S
C362 O385 1.283 . S
C363 O375 1.281 . S
C363 O376 1.236 . S
C364 O386 1.240 . S
C364 O387 1.264 . S
O365 Mn360 2.095 . S
O365 C374 1.250 . S
O366 Mn361 2.121 . S
O366 C374 1.258 . S
C367 N368 1.326 . S
C367 C371 1.460 . S
C367 H373 0.929 . S
N368 Mn361 2.257 . S
N368 C367 1.326 . S
N368 C372 1.362 . S
C369 C370 1.258 . S
C369 C372 1.431 . S
C369 C389 1.449 . S
C370 C369 1.258 . S
C370 C371 1.477 . S
C370 H390 0.931 . S
C371 C367 1.460 . S
C371 C370 1.477 . S
C371 H391 0.930 . S
C372 N368 1.362 . S
C372 C369 1.431 . S
C372 C382 1.476 . S
H373 C367 0.929 . S
C374 O365 1.250 . S
C374 O366 1.258 . S
O375 Mn360 2.162 . S
O375 C363 1.281 . S
O376 Mn360 2.297 . S
O376 C363 1.236 . S
N377 Mn361 2.282 . S
N377 C378 1.328 . S
N377 C382 1.318 . S
C378 N377 1.328 . S
C378 C379 1.457 . S
C378 H383 0.929 . S
C379 C378 1.457 . S
C379 C380 1.291 . S
C379 H392 0.931 . S
C380 C379 1.291 . S
C380 C381 1.373 . S
C380 H393 0.929 . S
C381 C380 1.373 . S
C381 C382 1.396 . S
C381 C388 1.403 . S
C382 C372 1.476 . S
C382 N377 1.318 . S
C382 C381 1.396 . S
H383 C378 0.929 . S
O384 Mn360 2.385 . S
O384 C362 1.234 . S
O385 Mn360 2.209 . S
O385 Mn361 2.215 . S
O385 C362 1.283 . S
O386 Mn360 2.094 . S
O386 C364 1.240 . S
O387 Mn361 2.117 . S
O387 C364 1.264 . S
C388 C381 1.403 . S
C388 C389 1.399 . S
C388 H394 0.929 . S
C389 C369 1.449 . S
C389 C388 1.399 . S
C389 H395 0.930 . S
H390 C370 0.931 . S
H391 C371 0.930 . S
H392 C379 0.931 . S
H393 C380 0.929 . S
H394 C388 0.929 . S
H395 C389 0.930 . S
Mn396 O401 2.095 . S
Mn396 O411 2.162 . S
Mn396 O412 2.297 . S
Mn396 O420 2.385 . S
Mn396 O421 2.209 . S
Mn396 O422 2.094 . S
Mn397 O402 2.121 . S
Mn397 N404 2.257 . S
Mn397 N413 2.282 . S
Mn397 O421 2.215 . S
Mn397 O423 2.117 . S
C398 O420 1.234 . S
C398 O421 1.283 . S
C399 O411 1.281 . S
C399 O412 1.236 . S
C400 O422 1.240 . S
C400 O423 1.264 . S
O401 Mn396 2.095 . S
O401 C410 1.250 . S
O402 Mn397 2.121 . S
O402 C410 1.258 . S
C403 N404 1.326 . S
C403 C407 1.460 . S
C403 H409 0.929 . S
N404 Mn397 2.257 . S
N404 C403 1.326 . S
N404 C408 1.362 . S
C405 C406 1.258 . S
C405 C408 1.431 . S
C405 C425 1.449 . S
C406 C405 1.258 . S
C406 C407 1.477 . S
C406 H426 0.931 . S
C407 C403 1.460 . S
C407 C406 1.477 . S
C407 H427 0.930 . S
C408 N404 1.362 . S
C408 C405 1.431 . S
C408 C418 1.476 . S
H409 C403 0.929 . S
C410 O401 1.250 . S
C410 O402 1.258 . S
O411 Mn396 2.162 . S
O411 C399 1.281 . S
O412 Mn396 2.297 . S
O412 C399 1.236 . S
N413 Mn397 2.282 . S
N413 C414 1.328 . S
N413 C418 1.318 . S
C414 N413 1.328 . S
C414 C415 1.457 . S
C414 H419 0.929 . S
C415 C414 1.457 . S
C415 C416 1.291 . S
C415 H428 0.931 . S
C416 C415 1.291 . S
C416 C417 1.373 . S
C416 H429 0.929 . S
C417 C416 1.373 . S
C417 C418 1.396 . S
C417 C424 1.403 . S
C418 C408 1.476 . S
C418 N413 1.318 . S
C418 C417 1.396 . S
H419 C414 0.929 . S
O420 Mn396 2.385 . S
O420 C398 1.234 . S
O421 Mn396 2.209 . S
O421 Mn397 2.215 . S
O421 C398 1.283 . S
O422 Mn396 2.094 . S
O422 C400 1.240 . S
O423 Mn397 2.117 . S
O423 C400 1.264 . S
C424 C417 1.403 . S
C424 C425 1.399 . S
C424 H430 0.929 . S
C425 C405 1.449 . S
C425 C424 1.399 . S
C425 H431 0.930 . S
H426 C406 0.931 . S
H427 C407 0.930 . S
H428 C415 0.931 . S
H429 C416 0.929 . S
H430 C424 0.929 . S
H431 C425 0.930 . S
Mn432 O437 2.095 . S
Mn432 O447 2.162 . S
Mn432 O448 2.297 . S
Mn432 O456 2.385 . S
Mn432 O457 2.209 . S
Mn432 O458 2.094 . S
Mn433 O438 2.121 . S
Mn433 N440 2.257 . S
Mn433 N449 2.282 . S
Mn433 O457 2.215 . S
Mn433 O459 2.117 . S
C434 O456 1.234 . S
C434 O457 1.283 . S
C435 O447 1.281 . S
C435 O448 1.236 . S
C436 O458 1.240 . S
C436 O459 1.264 . S
O437 Mn432 2.095 . S
O437 C446 1.250 . S
O438 Mn433 2.121 . S
O438 C446 1.258 . S
C439 N440 1.326 . S
C439 C443 1.460 . S
C439 H445 0.929 . S
N440 Mn433 2.257 . S
N440 C439 1.326 . S
N440 C444 1.362 . S
C441 C442 1.258 . S
C441 C444 1.431 . S
C441 C461 1.449 . S
C442 C441 1.258 . S
C442 C443 1.477 . S
C442 H462 0.931 . S
C443 C439 1.460 . S
C443 C442 1.477 . S
C443 H463 0.930 . S
C444 N440 1.362 . S
C444 C441 1.431 . S
C444 C454 1.476 . S
H445 C439 0.929 . S
C446 O437 1.250 . S
C446 O438 1.258 . S
O447 Mn432 2.162 . S
O447 C435 1.281 . S
O448 Mn432 2.297 . S
O448 C435 1.236 . S
N449 Mn433 2.282 . S
N449 C450 1.328 . S
N449 C454 1.318 . S
C450 N449 1.328 . S
C450 C451 1.457 . S
C450 H455 0.929 . S
C451 C450 1.457 . S
C451 C452 1.291 . S
C451 H464 0.931 . S
C452 C451 1.291 . S
C452 C453 1.373 . S
C452 H465 0.929 . S
C453 C452 1.373 . S
C453 C454 1.396 . S
C453 C460 1.403 . S
C454 C444 1.476 . S
C454 N449 1.318 . S
C454 C453 1.396 . S
H455 C450 0.929 . S
O456 Mn432 2.385 . S
O456 C434 1.234 . S
O457 Mn432 2.209 . S
O457 Mn433 2.215 . S
O457 C434 1.283 . S
O458 Mn432 2.094 . S
O458 C436 1.240 . S
O459 Mn433 2.117 . S
O459 C436 1.264 . S
C460 C453 1.403 . S
C460 C461 1.399 . S
C460 H466 0.929 . S
C461 C441 1.449 . S
C461 C460 1.399 . S
C461 H467 0.930 . S
H462 C442 0.931 . S
H463 C443 0.930 . S
H464 C451 0.931 . S
H465 C452 0.929 . S
H466 C460 0.929 . S
H467 C461 0.930 . S
Mn468 O473 2.095 . S
Mn468 O483 2.162 . S
Mn468 O484 2.297 . S
Mn468 O492 2.385 . S
Mn468 O493 2.209 . S
Mn468 O494 2.094 . S
Mn469 O474 2.121 . S
Mn469 N476 2.257 . S
Mn469 N485 2.282 . S
Mn469 O493 2.215 . S
Mn469 O495 2.117 . S
C470 O492 1.234 . S
C470 O493 1.283 . S
C471 O483 1.281 . S
C471 O484 1.236 . S
C472 O494 1.240 . S
C472 O495 1.264 . S
O473 Mn468 2.095 . S
O473 C482 1.250 . S
O474 Mn469 2.121 . S
O474 C482 1.258 . S
C475 N476 1.326 . S
C475 C479 1.460 . S
C475 H481 0.929 . S
N476 Mn469 2.257 . S
N476 C475 1.326 . S
N476 C480 1.362 . S
C477 C478 1.258 . S
C477 C480 1.431 . S
C477 C497 1.449 . S
C478 C477 1.258 . S
C478 C479 1.477 . S
C478 H498 0.931 . S
C479 C475 1.460 . S
C479 C478 1.477 . S
C479 H499 0.930 . S
C480 N476 1.362 . S
C480 C477 1.431 . S
C480 C490 1.476 . S
H481 C475 0.929 . S
C482 O473 1.250 . S
C482 O474 1.258 . S
O483 Mn468 2.162 . S
O483 C471 1.281 . S
O484 Mn468 2.297 . S
O484 C471 1.236 . S
N485 Mn469 2.282 . S
N485 C486 1.328 . S
N485 C490 1.318 . S
C486 N485 1.328 . S
C486 C487 1.457 . S
C486 H491 0.929 . S
C487 C486 1.457 . S
C487 C488 1.291 . S
C487 H500 0.931 . S
C488 C487 1.291 . S
C488 C489 1.373 . S
C488 H501 0.929 . S
C489 C488 1.373 . S
C489 C490 1.396 . S
C489 C496 1.403 . S
C490 C480 1.476 . S
C490 N485 1.318 . S
C490 C489 1.396 . S
H491 C486 0.929 . S
O492 Mn468 2.385 . S
O492 C470 1.234 . S
O493 Mn468 2.209 . S
O493 Mn469 2.215 . S
O493 C470 1.283 . S
O494 Mn468 2.094 . S
O494 C472 1.240 . S
O495 Mn469 2.117 . S
O495 C472 1.264 . S
C496 C489 1.403 . S
C496 C497 1.399 . S
C496 H502 0.929 . S
C497 C477 1.449 . S
C497 C496 1.399 . S
C497 H503 0.930 . S
H498 C478 0.931 . S
H499 C479 0.930 . S
H500 C487 0.931 . S
H501 C488 0.929 . S
H502 C496 0.929 . S
H503 C497 0.930 . S
Mn504 O509 2.095 . S
Mn504 O519 2.162 . S
Mn504 O520 2.297 . S
Mn504 O528 2.385 . S
Mn504 O529 2.209 . S
Mn504 O530 2.094 . S
Mn505 O510 2.121 . S
Mn505 N512 2.257 . S
Mn505 N521 2.282 . S
Mn505 O529 2.215 . S
Mn505 O531 2.117 . S
C506 O528 1.234 . S
C506 O529 1.283 . S
C507 O519 1.281 . S
C507 O520 1.236 . S
C508 O530 1.240 . S
C508 O531 1.264 . S
O509 Mn504 2.095 . S
O509 C518 1.250 . S
O510 Mn505 2.121 . S
O510 C518 1.258 . S
C511 N512 1.326 . S
C511 C515 1.460 . S
C511 H517 0.929 . S
N512 Mn505 2.257 . S
N512 C511 1.326 . S
N512 C516 1.362 . S
C513 C514 1.258 . S
C513 C516 1.431 . S
C513 C533 1.449 . S
C514 C513 1.258 . S
C514 C515 1.477 . S
C514 H534 0.931 . S
C515 C511 1.460 . S
C515 C514 1.477 . S
C515 H535 0.930 . S
C516 N512 1.362 . S
C516 C513 1.431 . S
C516 C526 1.476 . S
H517 C511 0.929 . S
C518 O509 1.250 . S
C518 O510 1.258 . S
O519 Mn504 2.162 . S
O519 C507 1.281 . S
O520 Mn504 2.297 . S
O520 C507 1.236 . S
N521 Mn505 2.282 . S
N521 C522 1.328 . S
N521 C526 1.318 . S
C522 N521 1.328 . S
C522 C523 1.457 . S
C522 H527 0.929 . S
C523 C522 1.457 . S
C523 C524 1.291 . S
C523 H536 0.931 . S
C524 C523 1.291 . S
C524 C525 1.373 . S
C524 H537 0.929 . S
C525 C524 1.373 . S
C525 C526 1.396 . S
C525 C532 1.403 . S
C526 C516 1.476 . S
C526 N521 1.318 . S
C526 C525 1.396 . S
H527 C522 0.929 . S
O528 Mn504 2.385 . S
O528 C506 1.234 . S
O529 Mn504 2.209 . S
O529 Mn505 2.215 . S
O529 C506 1.283 . S
O530 Mn504 2.094 . S
O530 C508 1.240 . S
O531 Mn505 2.117 . S
O531 C508 1.264 . S
C532 C525 1.403 . S
C532 C533 1.399 . S
C532 H538 0.929 . S
C533 C513 1.449 . S
C533 C532 1.399 . S
C533 H539 0.930 . S
H534 C514 0.931 . S
H535 C515 0.930 . S
H536 C523 0.931 . S
H537 C524 0.929 . S
H538 C532 0.929 . S
H539 C533 0.930 . S
Mn540 O545 2.095 . S
Mn540 O555 2.162 . S
Mn540 O556 2.297 . S
Mn540 O564 2.385 . S
Mn540 O565 2.209 . S
Mn540 O566 2.094 . S
Mn541 O546 2.121 . S
Mn541 N548 2.257 . S
Mn541 N557 2.282 . S
Mn541 O565 2.215 . S
Mn541 O567 2.117 . S
C542 O564 1.234 . S
C542 O565 1.283 . S
C543 O555 1.281 . S
C543 O556 1.236 . S
C544 O566 1.240 . S
C544 O567 1.264 . S
O545 Mn540 2.095 . S
O545 C554 1.250 . S
O546 Mn541 2.121 . S
O546 C554 1.258 . S
C547 N548 1.326 . S
C547 C551 1.460 . S
C547 H553 0.929 . S
N548 Mn541 2.257 . S
N548 C547 1.326 . S
N548 C552 1.362 . S
C549 C550 1.258 . S
C549 C552 1.431 . S
C549 C569 1.449 . S
C550 C549 1.258 . S
C550 C551 1.477 . S
C550 H570 0.931 . S
C551 C547 1.460 . S
C551 C550 1.477 . S
C551 H571 0.930 . S
C552 N548 1.362 . S
C552 C549 1.431 . S
C552 C562 1.476 . S
H553 C547 0.929 . S
C554 O545 1.250 . S
C554 O546 1.258 . S
O555 Mn540 2.162 . S
O555 C543 1.281 . S
O556 Mn540 2.297 . S
O556 C543 1.236 . S
N557 Mn541 2.282 . S
N557 C558 1.328 . S
N557 C562 1.318 . S
C558 N557 1.328 . S
C558 C559 1.457 . S
C558 H563 0.929 . S
C559 C558 1.457 . S
C559 C560 1.291 . S
C559 H572 0.931 . S
C560 C559 1.291 . S
C560 C561 1.373 . S
C560 H573 0.929 . S
C561 C560 1.373 . S
C561 C562 1.396 . S
C561 C568 1.403 . S
C562 C552 1.476 . S
C562 N557 1.318 . S
C562 C561 1.396 . S
H563 C558 0.929 . S
O564 Mn540 2.385 . S
O564 C542 1.234 . S
O565 Mn540 2.209 . S
O565 Mn541 2.215 . S
O565 C542 1.283 . S
O566 Mn540 2.094 . S
O566 C544 1.240 . S
O567 Mn541 2.117 . S
O567 C544 1.264 . S
C568 C561 1.403 . S
C568 C569 1.399 . S
C568 H574 0.929 . S
C569 C549 1.449 . S
C569 C568 1.399 . S
C569 H575 0.930 . S
H570 C550 0.931 . S
H571 C551 0.930 . S
H572 C559 0.931 . S
H573 C560 0.929 . S
H574 C568 0.929 . S
H575 C569 0.930 . S
H576 C588 0.930 . S
H577 C590 0.930 . S
H578 C591 0.930 . S
H579 C595 0.959 . S
H580 C595 0.959 . S
H581 C595 0.961 . S
H582 C596 0.960 . S
H583 C596 0.961 . S
H584 C596 0.959 . S
H585 C599 0.929 . S
H586 C600 0.931 . S
H587 C602 0.930 . S
C588 H576 0.930 . S
C588 C589 1.399 . S
C588 C593 1.399 . S
C589 C588 1.399 . S
C589 C590 1.376 . S
C590 H577 0.930 . S
C590 C589 1.376 . S
C590 C591 1.388 . S
C591 H578 0.930 . S
C591 C590 1.388 . S
C591 C592 1.390 . S
C592 C591 1.390 . S
C592 C593 1.394 . S
C592 C598 1.465 . S
C593 C588 1.399 . S
C593 C592 1.394 . S
C593 C594 1.516 . S
C594 C593 1.516 . S
C594 C595 1.502 . S
C594 C596 1.561 . S
C594 C597 1.526 . S
C595 H579 0.959 . S
C595 H580 0.959 . S
C595 H581 0.961 . S
C595 C594 1.502 . S
C596 H582 0.960 . S
C596 H583 0.961 . S
C596 H584 0.959 . S
C596 C594 1.561 . S
C597 C594 1.526 . S
C597 C598 1.396 . S
C597 C602 1.390 . S
C598 C592 1.465 . S
C598 C597 1.396 . S
C598 C599 1.399 . S
C599 H585 0.929 . S
C599 C598 1.399 . S
C599 C600 1.385 . S
C600 H586 0.931 . S
C600 C599 1.385 . S
C600 C601 1.389 . S
C601 C600 1.389 . S
C601 C602 1.387 . S
C602 H587 0.930 . S
C602 C597 1.390 . S
C602 C601 1.387 . S
H603 C615 0.930 . S
H604 C617 0.930 . S
H605 C618 0.930 . S
H606 C622 0.959 . S
H607 C622 0.959 . S
H608 C622 0.961 . S
H609 C623 0.960 . S
H610 C623 0.961 . S
H611 C623 0.959 . S
H612 C626 0.929 . S
H613 C627 0.931 . S
H614 C629 0.930 . S
C615 H603 0.930 . S
C615 C616 1.399 . S
C615 C620 1.399 . S
C616 C615 1.399 . S
C616 C617 1.376 . S
C617 H604 0.930 . S
C617 C616 1.376 . S
C617 C618 1.388 . S
C618 H605 0.930 . S
C618 C617 1.388 . S
C618 C619 1.390 . S
C619 C618 1.390 . S
C619 C620 1.394 . S
C619 C625 1.465 . S
C620 C615 1.399 . S
C620 C619 1.394 . S
C620 C621 1.516 . S
C621 C620 1.516 . S
C621 C622 1.502 . S
C621 C623 1.561 . S
C621 C624 1.526 . S
C622 H606 0.959 . S
C622 H607 0.959 . S
C622 H608 0.961 . S
C622 C621 1.502 . S
C623 H609 0.960 . S
C623 H610 0.961 . S
C623 H611 0.959 . S
C623 C621 1.561 . S
C624 C621 1.526 . S
C624 C625 1.396 . S
C624 C629 1.390 . S
C625 C619 1.465 . S
C625 C624 1.396 . S
C625 C626 1.399 . S
C626 H612 0.929 . S
C626 C625 1.399 . S
C626 C627 1.385 . S
C627 H613 0.931 . S
C627 C626 1.385 . S
C627 C628 1.389 . S
C628 C627 1.389 . S
C628 C629 1.387 . S
C629 H614 0.930 . S
C629 C624 1.390 . S
C629 C628 1.387 . S
H630 C642 0.930 . S
H631 C644 0.930 . S
H632 C645 0.930 . S
H633 C649 0.959 . S
H634 C649 0.959 . S
H635 C649 0.961 . S
H636 C650 0.960 . S
H637 C650 0.961 . S
H638 C650 0.959 . S
H639 C653 0.929 . S
H640 C654 0.931 . S
H641 C656 0.930 . S
C642 H630 0.930 . S
C642 C643 1.399 . S
C642 C647 1.399 . S
C643 C642 1.399 . S
C643 C644 1.376 . S
C644 H631 0.930 . S
C644 C643 1.376 . S
C644 C645 1.388 . S
C645 H632 0.930 . S
C645 C644 1.388 . S
C645 C646 1.390 . S
C646 C645 1.390 . S
C646 C647 1.394 . S
C646 C652 1.465 . S
C647 C642 1.399 . S
C647 C646 1.394 . S
C647 C648 1.516 . S
C648 C647 1.516 . S
C648 C649 1.502 . S
C648 C650 1.561 . S
C648 C651 1.526 . S
C649 H633 0.959 . S
C649 H634 0.959 . S
C649 H635 0.961 . S
C649 C648 1.502 . S
C650 H636 0.960 . S
C650 H637 0.961 . S
C650 H638 0.959 . S
C650 C648 1.561 . S
C651 C648 1.526 . S
C651 C652 1.396 . S
C651 C656 1.390 . S
C652 C646 1.465 . S
C652 C651 1.396 . S
C652 C653 1.399 . S
C653 H639 0.929 . S
C653 C652 1.399 . S
C653 C654 1.385 . S
C654 H640 0.931 . S
C654 C653 1.385 . S
C654 C655 1.389 . S
C655 C654 1.389 . S
C655 C656 1.387 . S
C656 H641 0.930 . S
C656 C651 1.390 . S
C656 C655 1.387 . S
H657 C669 0.930 . S
H658 C671 0.930 . S
H659 C672 0.930 . S
H660 C676 0.959 . S
H661 C676 0.959 . S
H662 C676 0.961 . S
H663 C677 0.960 . S
H664 C677 0.961 . S
H665 C677 0.959 . S
H666 C680 0.929 . S
H667 C681 0.931 . S
H668 C683 0.930 . S
C669 H657 0.930 . S
C669 C670 1.399 . S
C669 C674 1.399 . S
C670 C669 1.399 . S
C670 C671 1.376 . S
C671 H658 0.930 . S
C671 C670 1.376 . S
C671 C672 1.388 . S
C672 H659 0.930 . S
C672 C671 1.388 . S
C672 C673 1.390 . S
C673 C672 1.390 . S
C673 C674 1.394 . S
C673 C679 1.465 . S
C674 C669 1.399 . S
C674 C673 1.394 . S
C674 C675 1.516 . S
C675 C674 1.516 . S
C675 C676 1.502 . S
C675 C677 1.561 . S
C675 C678 1.526 . S
C676 H660 0.959 . S
C676 H661 0.959 . S
C676 H662 0.961 . S
C676 C675 1.502 . S
C677 H663 0.960 . S
C677 H664 0.961 . S
C677 H665 0.959 . S
C677 C675 1.561 . S
C678 C675 1.526 . S
C678 C679 1.396 . S
C678 C683 1.390 . S
C679 C673 1.465 . S
C679 C678 1.396 . S
C679 C680 1.399 . S
C680 H666 0.929 . S
C680 C679 1.399 . S
C680 C681 1.385 . S
C681 H667 0.931 . S
C681 C680 1.385 . S
C681 C682 1.389 . S
C682 C681 1.389 . S
C682 C683 1.387 . S
C683 H668 0.930 . S
C683 C678 1.390 . S
C683 C682 1.387 . S
H684 C696 0.930 . S
H685 C698 0.930 . S
H686 C699 0.930 . S
H687 C703 0.959 . S
H688 C703 0.959 . S
H689 C703 0.961 . S
H690 C704 0.960 . S
H691 C704 0.961 . S
H692 C704 0.959 . S
H693 C707 0.929 . S
H694 C708 0.931 . S
H695 C710 0.930 . S
C696 H684 0.930 . S
C696 C697 1.399 . S
C696 C701 1.399 . S
C697 C696 1.399 . S
C697 C698 1.376 . S
C698 H685 0.930 . S
C698 C697 1.376 . S
C698 C699 1.388 . S
C699 H686 0.930 . S
C699 C698 1.388 . S
C699 C700 1.390 . S
C700 C699 1.390 . S
C700 C701 1.394 . S
C700 C706 1.465 . S
C701 C696 1.399 . S
C701 C700 1.394 . S
C701 C702 1.516 . S
C702 C701 1.516 . S
C702 C703 1.502 . S
C702 C704 1.561 . S
C702 C705 1.526 . S
C703 H687 0.959 . S
C703 H688 0.959 . S
C703 H689 0.961 . S
C703 C702 1.502 . S
C704 H690 0.960 . S
C704 H691 0.961 . S
C704 H692 0.959 . S
C704 C702 1.561 . S
C705 C702 1.526 . S
C705 C706 1.396 . S
C705 C710 1.390 . S
C706 C700 1.465 . S
C706 C705 1.396 . S
C706 C707 1.399 . S
C707 H693 0.929 . S
C707 C706 1.399 . S
C707 C708 1.385 . S
C708 H694 0.931 . S
C708 C707 1.385 . S
C708 C709 1.389 . S
C709 C708 1.389 . S
C709 C710 1.387 . S
C710 H695 0.930 . S
C710 C705 1.390 . S
C710 C709 1.387 . S
H711 C723 0.930 . S
H712 C725 0.930 . S
H713 C726 0.930 . S
H714 C730 0.959 . S
H715 C730 0.959 . S
H716 C730 0.961 . S
H717 C731 0.960 . S
H718 C731 0.961 . S
H719 C731 0.959 . S
H720 C734 0.929 . S
H721 C735 0.931 . S
H722 C737 0.930 . S
C723 H711 0.930 . S
C723 C724 1.399 . S
C723 C728 1.399 . S
C724 C723 1.399 . S
C724 C725 1.376 . S
C725 H712 0.930 . S
C725 C724 1.376 . S
C725 C726 1.388 . S
C726 H713 0.930 . S
C726 C725 1.388 . S
C726 C727 1.390 . S
C727 C726 1.390 . S
C727 C728 1.394 . S
C727 C733 1.465 . S
C728 C723 1.399 . S
C728 C727 1.394 . S
C728 C729 1.516 . S
C729 C728 1.516 . S
C729 C730 1.502 . S
C729 C731 1.561 . S
C729 C732 1.526 . S
C730 H714 0.959 . S
C730 H715 0.959 . S
C730 H716 0.961 . S
C730 C729 1.502 . S
C731 H717 0.960 . S
C731 H718 0.961 . S
C731 H719 0.959 . S
C731 C729 1.561 . S
C732 C729 1.526 . S
C732 C733 1.396 . S
C732 C737 1.390 . S
C733 C727 1.465 . S
C733 C732 1.396 . S
C733 C734 1.399 . S
C734 H720 0.929 . S
C734 C733 1.399 . S
C734 C735 1.385 . S
C735 H721 0.931 . S
C735 C734 1.385 . S
C735 C736 1.389 . S
C736 C735 1.389 . S
C736 C737 1.387 . S
C737 H722 0.930 . S
C737 C732 1.390 . S
C737 C736 1.387 . S
H738 C750 0.930 . S
H739 C752 0.930 . S
H740 C753 0.930 . S
H741 C757 0.959 . S
H742 C757 0.959 . S
H743 C757 0.961 . S
H744 C758 0.960 . S
H745 C758 0.961 . S
H746 C758 0.959 . S
H747 C761 0.929 . S
H748 C762 0.931 . S
H749 C764 0.930 . S
C750 H738 0.930 . S
C750 C751 1.399 . S
C750 C755 1.399 . S
C751 C750 1.399 . S
C751 C752 1.376 . S
C752 H739 0.930 . S
C752 C751 1.376 . S
C752 C753 1.388 . S
C753 H740 0.930 . S
C753 C752 1.388 . S
C753 C754 1.390 . S
C754 C753 1.390 . S
C754 C755 1.394 . S
C754 C760 1.465 . S
C755 C750 1.399 . S
C755 C754 1.394 . S
C755 C756 1.516 . S
C756 C755 1.516 . S
C756 C757 1.502 . S
C756 C758 1.561 . S
C756 C759 1.526 . S
C757 H741 0.959 . S
C757 H742 0.959 . S
C757 H743 0.961 . S
C757 C756 1.502 . S
C758 H744 0.960 . S
C758 H745 0.961 . S
C758 H746 0.959 . S
C758 C756 1.561 . S
C759 C756 1.526 . S
C759 C760 1.396 . S
C759 C764 1.390 . S
C760 C754 1.465 . S
C760 C759 1.396 . S
C760 C761 1.399 . S
C761 H747 0.929 . S
C761 C760 1.399 . S
C761 C762 1.385 . S
C762 H748 0.931 . S
C762 C761 1.385 . S
C762 C763 1.389 . S
C763 C762 1.389 . S
C763 C764 1.387 . S
C764 H749 0.930 . S
C764 C759 1.390 . S
C764 C763 1.387 . S
H765 C777 0.930 . S
H766 C779 0.930 . S
H767 C780 0.930 . S
H768 C784 0.959 . S
H769 C784 0.959 . S
H770 C784 0.961 . S
H771 C785 0.960 . S
H772 C785 0.961 . S
H773 C785 0.959 . S
H774 C788 0.929 . S
H775 C789 0.931 . S
H776 C791 0.930 . S
C777 H765 0.930 . S
C777 C778 1.399 . S
C777 C782 1.399 . S
C778 C777 1.399 . S
C778 C779 1.376 . S
C779 H766 0.930 . S
C779 C778 1.376 . S
C779 C780 1.388 . S
C780 H767 0.930 . S
C780 C779 1.388 . S
C780 C781 1.390 . S
C781 C780 1.390 . S
C781 C782 1.394 . S
C781 C787 1.465 . S
C782 C777 1.399 . S
C782 C781 1.394 . S
C782 C783 1.516 . S
C783 C782 1.516 . S
C783 C784 1.502 . S
C783 C785 1.561 . S
C783 C786 1.526 . S
C784 H768 0.959 . S
C784 H769 0.959 . S
C784 H770 0.961 . S
C784 C783 1.502 . S
C785 H771 0.960 . S
C785 H772 0.961 . S
C785 H773 0.959 . S
C785 C783 1.561 . S
C786 C783 1.526 . S
C786 C787 1.396 . S
C786 C791 1.390 . S
C787 C781 1.465 . S
C787 C786 1.396 . S
C787 C788 1.399 . S
C788 H774 0.929 . S
C788 C787 1.399 . S
C788 C789 1.385 . S
C789 H775 0.931 . S
C789 C788 1.385 . S
C789 C790 1.389 . S
C790 C789 1.389 . S
C790 C791 1.387 . S
C791 H776 0.930 . S
C791 C786 1.390 . S
C791 C790 1.387 . S
H792 C804 0.930 . S
H793 C806 0.930 . S
H794 C807 0.930 . S
H795 C811 0.959 . S
H796 C811 0.959 . S
H797 C811 0.961 . S
H798 C812 0.960 . S
H799 C812 0.961 . S
H800 C812 0.959 . S
H801 C815 0.929 1_565 S
H802 C816 0.931 . S
H803 C818 0.930 . S
C804 H792 0.930 . S
C804 C805 1.399 . S
C804 C809 1.399 . S
C805 C804 1.399 . S
C805 C806 1.376 . S
C806 H793 0.930 . S
C806 C805 1.376 . S
C806 C807 1.388 . S
C807 H794 0.930 . S
C807 C806 1.388 . S
C807 C808 1.390 . S
C808 C807 1.390 . S
C808 C809 1.394 . S
C808 C814 1.465 1_565 S
C809 C804 1.399 . S
C809 C808 1.394 . S
C809 C810 1.516 1_565 S
C810 C809 1.516 1_545 S
C810 C811 1.502 . S
C810 C812 1.561 . S
C810 C813 1.526 . S
C811 H795 0.959 . S
C811 H796 0.959 . S
C811 H797 0.961 . S
C811 C810 1.502 . S
C812 H798 0.960 . S
C812 H799 0.961 . S
C812 H800 0.959 . S
C812 C810 1.561 . S
C813 C810 1.526 . S
C813 C814 1.396 . S
C813 C818 1.390 . S
C814 C808 1.465 1_545 S
C814 C813 1.396 . S
C814 C815 1.399 . S
C815 H801 0.929 1_545 S
C815 C814 1.399 . S
C815 C816 1.385 . S
C816 H802 0.931 . S
C816 C815 1.385 . S
C816 C817 1.389 . S
C817 C816 1.389 . S
C817 C818 1.387 . S
C818 H803 0.930 . S
C818 C813 1.390 . S
C818 C817 1.387 . S
H819 C831 0.930 . S
H820 C833 0.930 . S
H821 C834 0.930 . S
H822 C838 0.959 . S
H823 C838 0.959 . S
H824 C838 0.961 . S
H825 C839 0.960 . S
H826 C839 0.961 . S
H827 C839 0.959 . S
H828 C842 0.929 . S
H829 C843 0.931 . S
H830 C845 0.930 . S
C831 H819 0.930 . S
C831 C832 1.399 . S
C831 C836 1.399 . S
C832 C831 1.399 . S
C832 C833 1.376 . S
C833 H820 0.930 . S
C833 C832 1.376 . S
C833 C834 1.388 . S
C834 H821 0.930 . S
C834 C833 1.388 . S
C834 C835 1.390 . S
C835 C834 1.390 . S
C835 C836 1.394 . S
C835 C841 1.465 . S
C836 C831 1.399 . S
C836 C835 1.394 . S
C836 C837 1.516 . S
C837 C836 1.516 . S
C837 C838 1.502 . S
C837 C839 1.561 . S
C837 C840 1.526 . S
C838 H822 0.959 . S
C838 H823 0.959 . S
C838 H824 0.961 . S
C838 C837 1.502 . S
C839 H825 0.960 . S
C839 H826 0.961 . S
C839 H827 0.959 . S
C839 C837 1.561 . S
C840 C837 1.526 . S
C840 C841 1.396 . S
C840 C845 1.390 . S
C841 C835 1.465 . S
C841 C840 1.396 . S
C841 C842 1.399 . S
C842 H828 0.929 . S
C842 C841 1.399 . S
C842 C843 1.385 . S
C843 H829 0.931 . S
C843 C842 1.385 . S
C843 C844 1.389 . S
C844 C843 1.389 . S
C844 C845 1.387 . S
C845 H830 0.930 . S
C845 C840 1.390 . S
C845 C844 1.387 . S
H846 C858 0.930 . S
H847 C860 0.930 . S
H848 C861 0.930 . S
H849 C865 0.959 . S
H850 C865 0.959 . S
H851 C865 0.961 . S
H852 C866 0.960 1_556 S
H853 C866 0.961 . S
H854 C866 0.959 . S
H855 C869 0.929 . S
H856 C870 0.931 . S
H857 C872 0.930 . S
C858 H846 0.930 . S
C858 C859 1.399 . S
C858 C863 1.399 . S
C859 C858 1.399 . S
C859 C860 1.376 . S
C860 H847 0.930 . S
C860 C859 1.376 . S
C860 C861 1.388 . S
C861 H848 0.930 . S
C861 C860 1.388 . S
C861 C862 1.390 . S
C862 C861 1.390 . S
C862 C863 1.394 . S
C862 C868 1.465 1_556 S
C863 C858 1.399 . S
C863 C862 1.394 . S
C863 C864 1.516 . S
C864 C863 1.516 . S
C864 C865 1.502 . S
C864 C866 1.561 1_556 S
C864 C867 1.526 1_556 S
C865 H849 0.959 . S
C865 H850 0.959 . S
C865 H851 0.961 . S
C865 C864 1.502 . S
C866 H852 0.960 1_554 S
C866 H853 0.961 . S
C866 H854 0.959 . S
C866 C864 1.561 1_554 S
C867 C864 1.526 1_554 S
C867 C868 1.396 . S
C867 C872 1.390 . S
C868 C862 1.465 1_554 S
C868 C867 1.396 . S
C868 C869 1.399 . S
C869 H855 0.929 . S
C869 C868 1.399 . S
C869 C870 1.385 . S
C870 H856 0.931 . S
C870 C869 1.385 . S
C870 C871 1.389 . S
C871 C870 1.389 . S
C871 C872 1.387 . S
C872 H857 0.930 . S
C872 C867 1.390 . S
C872 C871 1.387 . S
H873 C885 0.930 . S
H874 C887 0.930 . S
H875 C888 0.930 . S
H876 C892 0.959 . S
H877 C892 0.959 . S
H878 C892 0.961 . S
H879 C893 0.960 . S
H880 C893 0.961 . S
H881 C893 0.959 . S
H882 C896 0.929 . S
H883 C897 0.931 . S
H884 C899 0.930 . S
C885 H873 0.930 . S
C885 C886 1.399 . S
C885 C890 1.399 . S
C886 C885 1.399 . S
C886 C887 1.376 . S
C887 H874 0.930 . S
C887 C886 1.376 . S
C887 C888 1.388 . S
C888 H875 0.930 . S
C888 C887 1.388 . S
C888 C889 1.390 . S
C889 C888 1.390 . S
C889 C890 1.394 . S
C889 C895 1.465 1_554 S
C890 C885 1.399 . S
C890 C889 1.394 . S
C890 C891 1.516 . S
C891 C890 1.516 . S
C891 C892 1.502 . S
C891 C893 1.561 . S
C891 C894 1.526 1_554 S
C892 H876 0.959 . S
C892 H877 0.959 . S
C892 H878 0.961 . S
C892 C891 1.502 . S
C893 H879 0.960 . S
C893 H880 0.961 . S
C893 H881 0.959 . S
C893 C891 1.561 . S
C894 C891 1.526 1_556 S
C894 C895 1.396 . S
C894 C899 1.390 . S
C895 C889 1.465 1_556 S
C895 C894 1.396 . S
C895 C896 1.399 . S
C896 H882 0.929 . S
C896 C895 1.399 . S
C896 C897 1.385 . S
C897 H883 0.931 . S
C897 C896 1.385 . S
C897 C898 1.389 . S
C898 C897 1.389 . S
C898 C899 1.387 . S
C899 H884 0.930 . S
C899 C894 1.390 . S
C899 C898 1.387 . S
H900 C912 0.930 . S
H901 C914 0.930 . S
H902 C915 0.930 . S
H903 C919 0.959 . S
H904 C919 0.959 . S
H905 C919 0.961 . S
H906 C920 0.960 . S
H907 C920 0.961 . S
H908 C920 0.959 . S
H909 C923 0.929 . S
H910 C924 0.931 . S
H911 C926 0.930 . S
C912 H900 0.930 . S
C912 C913 1.399 . S
C912 C917 1.399 . S
C913 C912 1.399 . S
C913 C914 1.376 . S
C914 H901 0.930 . S
C914 C913 1.376 . S
C914 C915 1.388 . S
C915 H902 0.930 . S
C915 C914 1.388 . S
C915 C916 1.390 . S
C916 C915 1.390 . S
C916 C917 1.394 . S
C916 C922 1.465 . S
C917 C912 1.399 . S
C917 C916 1.394 . S
C917 C918 1.516 . S
C918 C917 1.516 . S
C918 C919 1.502 . S
C918 C920 1.561 . S
C918 C921 1.526 . S
C919 H903 0.959 . S
C919 H904 0.959 . S
C919 H905 0.961 . S
C919 C918 1.502 . S
C920 H906 0.960 . S
C920 H907 0.961 . S
C920 H908 0.959 . S
C920 C918 1.561 . S
C921 C918 1.526 . S
C921 C922 1.396 . S
C921 C926 1.390 . S
C922 C916 1.465 . S
C922 C921 1.396 . S
C922 C923 1.399 . S
C923 H909 0.929 . S
C923 C922 1.399 . S
C923 C924 1.385 . S
C924 H910 0.931 . S
C924 C923 1.385 . S
C924 C925 1.389 . S
C925 C924 1.389 . S
C925 C926 1.387 . S
C926 H911 0.930 . S
C926 C921 1.390 . S
C926 C925 1.387 . S
H927 C939 0.930 . S
H928 C941 0.930 . S
H929 C942 0.930 . S
H930 C946 0.959 . S
H931 C946 0.959 . S
H932 C946 0.961 . S
H933 C947 0.960 . S
H934 C947 0.961 . S
H935 C947 0.959 . S
H936 C950 0.929 . S
H937 C951 0.931 . S
H938 C953 0.930 . S
C939 H927 0.930 . S
C939 C940 1.399 . S
C939 C944 1.399 . S
C940 C939 1.399 . S
C940 C941 1.376 . S
C941 H928 0.930 . S
C941 C940 1.376 . S
C941 C942 1.388 . S
C942 H929 0.930 . S
C942 C941 1.388 . S
C942 C943 1.390 . S
C943 C942 1.390 . S
C943 C944 1.394 . S
C943 C949 1.465 . S
C944 C939 1.399 . S
C944 C943 1.394 . S
C944 C945 1.516 . S
C945 C944 1.516 . S
C945 C946 1.502 . S
C945 C947 1.561 . S
C945 C948 1.526 . S
C946 H930 0.959 . S
C946 H931 0.959 . S
C946 H932 0.961 . S
C946 C945 1.502 . S
C947 H933 0.960 . S
C947 H934 0.961 . S
C947 H935 0.959 . S
C947 C945 1.561 . S
C948 C945 1.526 . S
C948 C949 1.396 . S
C948 C953 1.390 . S
C949 C943 1.465 . S
C949 C948 1.396 . S
C949 C950 1.399 . S
C950 H936 0.929 . S
C950 C949 1.399 . S
C950 C951 1.385 . S
C951 H937 0.931 . S
C951 C950 1.385 . S
C951 C952 1.389 . S
C952 C951 1.389 . S
C952 C953 1.387 . S
C953 H938 0.930 . S
C953 C948 1.390 . S
C953 C952 1.387 . S
H954 C966 0.930 . S
H955 C968 0.930 . S
H956 C969 0.930 . S
H957 C973 0.959 . S
H958 C973 0.959 . S
H959 C973 0.961 . S
H960 C974 0.960 . S
H961 C974 0.961 . S
H962 C974 0.959 . S
H963 C977 0.943 . S
H964 C978 0.931 . S
H965 C980 0.930 . S
C966 H954 0.930 . S
C966 C967 1.399 . S
C966 C971 1.399 . S
C967 C966 1.399 . S
C967 C968 1.376 . S
C968 H955 0.930 . S
C968 C967 1.376 . S
C968 C969 1.388 . S
C969 H956 0.930 . S
C969 C968 1.388 . S
C969 C970 1.390 . S
C970 C969 1.390 . S
C970 C971 1.394 . S
C970 C976 1.481 . S
C971 C966 1.399 . S
C971 C970 1.394 . S
C971 C972 1.516 . S
C972 C971 1.516 . S
C972 C973 1.502 1_655 S
C972 C974 1.561 . S
C972 C975 1.526 1_655 S
C973 H957 0.959 . S
C973 H958 0.959 . S
C973 H959 0.961 . S
C973 C972 1.502 1_455 S
C974 H960 0.960 . S
C974 H961 0.961 . S
C974 H962 0.959 . S
C974 C972 1.561 . S
C975 C972 1.526 1_455 S
C975 C976 1.388 1_455 S
C975 C980 1.390 . S
C976 C970 1.481 . S
C976 C975 1.388 1_655 S
C976 C977 1.391 1_655 S
C977 H963 0.943 . S
C977 C976 1.391 1_455 S
C977 C978 1.385 . S
C978 H964 0.931 . S
C978 C977 1.385 . S
C978 C979 1.389 . S
C979 C978 1.389 . S
C979 C980 1.387 . S
C980 H965 0.930 . S
C980 C975 1.390 . S
C980 C979 1.387 . S
H981 C993 0.930 . S
H982 C995 0.930 . S
H983 C996 0.930 . S
H984 C1000 0.959 . S
H985 C1000 0.959 . S
H986 C1000 0.961 . S
H987 C1001 0.960 . S
H988 C1001 0.961 . S
H989 C1001 0.959 . S
H990 C1004 0.929 . S
H991 C1005 0.931 . S
H992 C1007 0.930 . S
C993 H981 0.930 . S
C993 C994 1.399 . S
C993 C998 1.399 . S
C994 C993 1.399 . S
C994 C995 1.376 . S
C995 H982 0.930 . S
C995 C994 1.376 . S
C995 C996 1.388 . S
C996 H983 0.930 . S
C996 C995 1.388 . S
C996 C997 1.390 . S
C997 C996 1.390 . S
C997 C998 1.394 . S
C997 C1003 1.465 1_655 S
C998 C993 1.399 . S
C998 C997 1.394 . S
C998 C999 1.516 1_655 S
C999 C998 1.516 1_455 S
C999 C1000 1.502 1_455 S
C999 C1001 1.561 . S
C999 C1002 1.526 . S
C1000 H984 0.959 . S
C1000 H985 0.959 . S
C1000 H986 0.961 . S
C1000 C999 1.502 1_655 S
C1001 H987 0.960 . S
C1001 H988 0.961 . S
C1001 H989 0.959 . S
C1001 C999 1.561 . S
C1002 C999 1.526 . S
C1002 C1003 1.396 . S
C1002 C1007 1.390 . S
C1003 C997 1.465 1_455 S
C1003 C1002 1.396 . S
C1003 C1004 1.399 . S
C1004 H990 0.929 . S
C1004 C1003 1.399 . S
C1004 C1005 1.385 . S
C1005 H991 0.931 . S
C1005 C1004 1.385 . S
C1005 C1006 1.389 . S
C1006 C1005 1.389 . S
C1006 C1007 1.387 . S
C1007 H992 0.930 . S
C1007 C1002 1.390 . S
C1007 C1006 1.387 . S
H1008 C1020 0.930 . S
H1009 C1022 0.930 . S
H1010 C1023 0.930 . S
H1011 C1027 0.959 . S
H1012 C1027 0.959 . S
H1013 C1027 0.961 . S
H1014 C1028 0.960 . S
H1015 C1028 0.961 . S
H1016 C1028 0.959 . S
H1017 C1031 0.929 . S
H1018 C1032 0.931 . S
H1019 C1034 0.930 . S
C1020 H1008 0.930 . S
C1020 C1021 1.399 . S
C1020 C1025 1.399 . S
C1021 C1020 1.399 . S
C1021 C1022 1.376 . S
C1022 H1009 0.930 . S
C1022 C1021 1.376 . S
C1022 C1023 1.388 . S
C1023 H1010 0.930 . S
C1023 C1022 1.388 . S
C1023 C1024 1.390 . S
C1024 C1023 1.390 . S
C1024 C1025 1.394 . S
C1024 C1030 1.465 . S
C1025 C1020 1.399 . S
C1025 C1024 1.394 . S
C1025 C1026 1.516 . S
C1026 C1025 1.516 . S
C1026 C1027 1.502 . S
C1026 C1028 1.561 . S
C1026 C1029 1.526 . S
C1027 H1011 0.959 . S
C1027 H1012 0.959 . S
C1027 H1013 0.961 . S
C1027 C1026 1.502 . S
C1028 H1014 0.960 . S
C1028 H1015 0.961 . S
C1028 H1016 0.959 . S
C1028 C1026 1.561 . S
C1029 C1026 1.526 . S
C1029 C1030 1.396 . S
C1029 C1034 1.390 . S
C1030 C1024 1.465 . S
C1030 C1029 1.396 . S
C1030 C1031 1.399 . S
C1031 H1017 0.929 . S
C1031 C1030 1.399 . S
C1031 C1032 1.385 . S
C1032 H1018 0.931 . S
C1032 C1031 1.385 . S
C1032 C1033 1.389 . S
C1033 C1032 1.389 . S
C1033 C1034 1.387 . S
C1034 H1019 0.930 . S
C1034 C1029 1.390 . S
C1034 C1033 1.387 . S
H1035 C1047 0.930 . S
H1036 C1049 0.930 . S
H1037 C1050 0.930 . S
H1038 C1054 0.959 . S
H1039 C1054 0.959 . S
H1040 C1054 0.961 . S
H1041 C1055 0.960 . S
H1042 C1055 0.961 . S
H1043 C1055 0.959 . S
H1044 C1058 0.929 . S
H1045 C1059 0.931 . S
H1046 C1061 0.930 . S
C1047 H1035 0.930 . S
C1047 C1048 1.399 . S
C1047 C1052 1.399 . S
C1048 C1047 1.399 . S
C1048 C1049 1.376 . S
C1049 H1036 0.930 . S
C1049 C1048 1.376 . S
C1049 C1050 1.388 . S
C1050 H1037 0.930 . S
C1050 C1049 1.388 . S
C1050 C1051 1.390 . S
C1051 C1050 1.390 . S
C1051 C1052 1.394 . S
C1051 C1057 1.465 1_545 S
C1052 C1047 1.399 . S
C1052 C1051 1.394 . S
C1052 C1053 1.516 . S
C1053 C1052 1.516 . S
C1053 C1054 1.502 . S
C1053 C1055 1.561 . S
C1053 C1056 1.526 . S
C1054 H1038 0.959 . S
C1054 H1039 0.959 . S
C1054 H1040 0.961 . S
C1054 C1053 1.502 . S
C1055 H1041 0.960 . S
C1055 H1042 0.961 . S
C1055 H1043 0.959 . S
C1055 C1053 1.561 . S
C1056 C1053 1.526 . S
C1056 C1057 1.396 1_545 S
C1056 C1061 1.390 1_545 S
C1057 C1051 1.465 1_565 S
C1057 C1056 1.396 1_565 S
C1057 C1058 1.399 . S
C1058 H1044 0.929 . S
C1058 C1057 1.399 . S
C1058 C1059 1.385 . S
C1059 H1045 0.931 . S
C1059 C1058 1.385 . S
C1059 C1060 1.389 . S
C1060 C1059 1.389 . S
C1060 C1061 1.387 . S
C1061 H1046 0.930 . S
C1061 C1056 1.390 1_565 S
C1061 C1060 1.387 . S
H1062 C1074 0.930 . S
H1063 C1076 0.930 . S
H1064 C1077 0.930 . S
H1065 C1081 0.959 . S
H1066 C1081 0.959 . S
H1067 C1081 0.961 . S
H1068 C1082 0.960 . S
H1069 C1082 0.961 . S
H1070 C1082 0.959 . S
H1071 C1085 0.929 . S
H1072 C1086 0.931 . S
H1073 C1088 0.930 . S
C1074 H1062 0.930 . S
C1074 C1075 1.399 . S
C1074 C1079 1.399 . S
C1075 C1074 1.399 . S
C1075 C1076 1.376 . S
C1076 H1063 0.930 . S
C1076 C1075 1.376 . S
C1076 C1077 1.388 . S
C1077 H1064 0.930 . S
C1077 C1076 1.388 . S
C1077 C1078 1.390 . S
C1078 C1077 1.390 . S
C1078 C1079 1.394 . S
C1078 C1084 1.465 . S
C1079 C1074 1.399 . S
C1079 C1078 1.394 . S
C1079 C1080 1.516 . S
C1080 C1079 1.516 . S
C1080 C1081 1.502 . S
C1080 C1082 1.561 . S
C1080 C1083 1.526 . S
C1081 H1065 0.959 . S
C1081 H1066 0.959 . S
C1081 H1067 0.961 . S
C1081 C1080 1.502 . S
C1082 H1068 0.960 . S
C1082 H1069 0.961 . S
C1082 H1070 0.959 . S
C1082 C1080 1.561 . S
C1083 C1080 1.526 . S
C1083 C1084 1.396 . S
C1083 C1088 1.390 . S
C1084 C1078 1.465 . S
C1084 C1083 1.396 . S
C1084 C1085 1.399 . S
C1085 H1071 0.929 . S
C1085 C1084 1.399 . S
C1085 C1086 1.385 . S
C1086 H1072 0.931 . S
C1086 C1085 1.385 . S
C1086 C1087 1.389 . S
C1087 C1086 1.389 . S
C1087 C1088 1.387 . S
C1088 H1073 0.930 . S
C1088 C1083 1.390 . S
C1088 C1087 1.387 . S
H1089 C1101 0.930 . S
H1090 C1103 0.930 . S
H1091 C1104 0.930 . S
H1092 C1108 0.959 . S
H1093 C1108 0.959 . S
H1094 C1108 0.961 . S
H1095 C1109 0.960 . S
H1096 C1109 0.961 . S
H1097 C1109 0.953 1_554 S
H1098 C1112 0.929 1_554 S
H1099 C1113 0.931 . S
H1100 C1115 0.930 . S
C1101 H1089 0.930 . S
C1101 C1102 1.399 . S
C1101 C1106 1.399 . S
C1102 C1101 1.399 . S
C1102 C1103 1.376 . S
C1103 H1090 0.930 . S
C1103 C1102 1.376 . S
C1103 C1104 1.388 . S
C1104 H1091 0.930 . S
C1104 C1103 1.388 . S
C1104 C1105 1.390 . S
C1105 C1104 1.390 . S
C1105 C1106 1.394 . S
C1105 C1111 1.455 1_554 S
C1106 C1101 1.399 . S
C1106 C1105 1.394 . S
C1106 C1107 1.516 1_554 S
C1107 C1106 1.516 1_556 S
C1107 C1108 1.502 . S
C1107 C1109 1.561 . S
C1107 C1110 1.526 . S
C1108 H1092 0.959 . S
C1108 H1093 0.959 . S
C1108 H1094 0.961 . S
C1108 C1107 1.502 . S
C1109 H1095 0.960 . S
C1109 H1096 0.961 . S
C1109 H1097 0.953 1_556 S
C1109 C1107 1.561 . S
C1110 C1107 1.526 . S
C1110 C1111 1.406 . S
C1110 C1115 1.390 . S
C1111 C1105 1.455 1_556 S
C1111 C1110 1.406 . S
C1111 C1112 1.400 . S
C1112 H1098 0.929 1_556 S
C1112 C1111 1.400 . S
C1112 C1113 1.385 . S
C1113 H1099 0.931 . S
C1113 C1112 1.385 . S
C1113 C1114 1.389 . S
C1114 C1113 1.389 . S
C1114 C1115 1.387 . S
C1115 H1100 0.930 . S
C1115 C1110 1.390 . S
C1115 C1114 1.387 . S
H1116 C1128 0.930 . S
H1117 C1130 0.930 . S
H1118 C1131 0.930 . S
H1119 C1135 0.959 . S
H1120 C1135 0.959 . S
H1121 C1135 0.961 . S
H1122 C1136 0.960 . S
H1123 C1136 0.961 . S
H1124 C1136 0.959 . S
H1125 C1139 0.929 . S
H1126 C1140 0.931 . S
H1127 C1142 0.930 . S
C1128 H1116 0.930 . S
C1128 C1129 1.399 . S
C1128 C1133 1.399 . S
C1129 C1128 1.399 . S
C1129 C1130 1.376 . S
C1130 H1117 0.930 . S
C1130 C1129 1.376 . S
C1130 C1131 1.388 . S
C1131 H1118 0.930 . S
C1131 C1130 1.388 . S
C1131 C1132 1.390 . S
C1132 C1131 1.390 . S
C1132 C1133 1.394 . S
C1132 C1138 1.465 1_556 S
C1133 C1128 1.399 . S
C1133 C1132 1.394 . S
C1133 C1134 1.515 . S
C1134 C1133 1.515 . S
C1134 C1135 1.500 . S
C1134 C1136 1.563 1_556 S
C1134 C1137 1.528 1_556 S
C1135 H1119 0.959 . S
C1135 H1120 0.959 . S
C1135 H1121 0.961 . S
C1135 C1134 1.500 . S
C1136 H1122 0.960 . S
C1136 H1123 0.961 . S
C1136 H1124 0.959 . S
C1136 C1134 1.563 1_554 S
C1137 C1134 1.528 1_554 S
C1137 C1138 1.396 . S
C1137 C1142 1.390 . S
C1138 C1132 1.465 1_554 S
C1138 C1137 1.396 . S
C1138 C1139 1.399 . S
C1139 H1125 0.929 . S
C1139 C1138 1.399 . S
C1139 C1140 1.385 . S
C1140 H1126 0.931 . S
C1140 C1139 1.385 . S
C1140 C1141 1.389 . S
C1141 C1140 1.389 . S
C1141 C1142 1.387 . S
C1142 H1127 0.930 . S
C1142 C1137 1.390 . S
C1142 C1141 1.387 . S
H1143 C1155 0.930 . S
H1144 C1157 0.930 . S
H1145 C1158 0.930 . S
H1146 C1162 0.959 . S
H1147 C1162 0.959 . S
H1148 C1162 0.961 . S
H1149 C1163 0.960 . S
H1150 C1163 0.961 . S
H1151 C1163 0.959 . S
H1152 C1166 0.929 . S
H1153 C1167 0.931 . S
H1154 C1169 0.930 . S
C1155 H1143 0.930 . S
C1155 C1156 1.399 . S
C1155 C1160 1.399 . S
C1156 C1155 1.399 . S
C1156 C1157 1.376 . S
C1157 H1144 0.930 . S
C1157 C1156 1.376 . S
C1157 C1158 1.388 . S
C1158 H1145 0.930 . S
C1158 C1157 1.388 . S
C1158 C1159 1.390 . S
C1159 C1158 1.390 . S
C1159 C1160 1.394 . S
C1159 C1165 1.465 . S
C1160 C1155 1.399 . S
C1160 C1159 1.394 . S
C1160 C1161 1.516 . S
C1161 C1160 1.516 . S
C1161 C1162 1.502 . S
C1161 C1163 1.561 . S
C1161 C1164 1.526 . S
C1162 H1146 0.959 . S
C1162 H1147 0.959 . S
C1162 H1148 0.961 . S
C1162 C1161 1.502 . S
C1163 H1149 0.960 . S
C1163 H1150 0.961 . S
C1163 H1151 0.959 . S
C1163 C1161 1.561 . S
C1164 C1161 1.526 . S
C1164 C1165 1.396 . S
C1164 C1169 1.390 . S
C1165 C1159 1.465 . S
C1165 C1164 1.396 . S
C1165 C1166 1.399 . S
C1166 H1152 0.929 . S
C1166 C1165 1.399 . S
C1166 C1167 1.385 . S
C1167 H1153 0.931 . S
C1167 C1166 1.385 . S
C1167 C1168 1.389 . S
C1168 C1167 1.389 . S
C1168 C1169 1.387 . S
C1169 H1154 0.930 . S
C1169 C1164 1.390 . S
C1169 C1168 1.387 . S
H1170 C1182 0.930 . S
H1171 C1184 0.930 . S
H1172 C1185 0.930 . S
H1173 C1189 0.959 . S
H1174 C1189 0.959 . S
H1175 C1189 0.961 . S
H1176 C1190 0.960 . S
H1177 C1190 0.961 . S
H1178 C1190 0.959 . S
H1179 C1193 0.929 . S
H1180 C1194 0.931 . S
H1181 C1196 0.930 . S
C1182 H1170 0.930 . S
C1182 C1183 1.399 . S
C1182 C1187 1.399 . S
C1183 C1182 1.399 . S
C1183 C1184 1.376 . S
C1184 H1171 0.930 . S
C1184 C1183 1.376 . S
C1184 C1185 1.388 . S
C1185 H1172 0.930 . S
C1185 C1184 1.388 . S
C1185 C1186 1.390 . S
C1186 C1185 1.390 . S
C1186 C1187 1.394 . S
C1186 C1192 1.465 . S
C1187 C1182 1.399 . S
C1187 C1186 1.394 . S
C1187 C1188 1.516 . S
C1188 C1187 1.516 . S
C1188 C1189 1.502 . S
C1188 C1190 1.561 . S
C1188 C1191 1.526 . S
C1189 H1173 0.959 . S
C1189 H1174 0.959 . S
C1189 H1175 0.961 . S
C1189 C1188 1.502 . S
C1190 H1176 0.960 . S
C1190 H1177 0.961 . S
C1190 H1178 0.959 . S
C1190 C1188 1.561 . S
C1191 C1188 1.526 . S
C1191 C1192 1.396 . S
C1191 C1196 1.390 . S
C1192 C1186 1.465 . S
C1192 C1191 1.396 . S
C1192 C1193 1.399 . S
C1193 H1179 0.929 . S
C1193 C1192 1.399 . S
C1193 C1194 1.385 . S
C1194 H1180 0.931 . S
C1194 C1193 1.385 . S
C1194 C1195 1.389 . S
C1195 C1194 1.389 . S
C1195 C1196 1.387 . S
C1196 H1181 0.930 . S
C1196 C1191 1.390 . S
C1196 C1195 1.387 . S
H1197 C1209 0.930 . S
H1198 C1211 0.930 . S
H1199 C1212 0.930 . S
H1200 C1216 0.959 . S
H1201 C1216 0.959 . S
H1202 C1216 0.961 . S
H1203 C1217 0.960 . S
H1204 C1217 0.961 . S
H1205 C1217 0.959 . S
H1206 C1220 0.929 . S
H1207 C1221 0.931 . S
H1208 C1223 0.930 . S
C1209 H1197 0.930 . S
C1209 C1210 1.399 . S
C1209 C1214 1.399 . S
C1210 C1209 1.399 . S
C1210 C1211 1.376 . S
C1211 H1198 0.930 . S
C1211 C1210 1.376 . S
C1211 C1212 1.388 . S
C1212 H1199 0.930 . S
C1212 C1211 1.388 . S
C1212 C1213 1.390 . S
C1213 C1212 1.390 . S
C1213 C1214 1.394 . S
C1213 C1219 1.465 1_455 S
C1214 C1209 1.399 . S
C1214 C1213 1.394 . S
C1214 C1215 1.515 . S
C1215 C1214 1.515 . S
C1215 C1216 1.501 . S
C1215 C1217 1.562 1_455 S
C1215 C1218 1.527 1_455 S
C1216 H1200 0.959 . S
C1216 H1201 0.959 . S
C1216 H1202 0.961 . S
C1216 C1215 1.501 . S
C1217 H1203 0.960 . S
C1217 H1204 0.961 . S
C1217 H1205 0.959 . S
C1217 C1215 1.562 1_655 S
C1218 C1215 1.527 1_655 S
C1218 C1219 1.396 . S
C1218 C1223 1.390 . S
C1219 C1213 1.465 1_655 S
C1219 C1218 1.396 . S
C1219 C1220 1.399 . S
C1220 H1206 0.929 . S
C1220 C1219 1.399 . S
C1220 C1221 1.385 . S
C1221 H1207 0.931 . S
C1221 C1220 1.385 . S
C1221 C1222 1.389 . S
C1222 C1221 1.389 . S
C1222 C1223 1.387 . S
C1223 H1208 0.930 . S
C1223 C1218 1.390 . S
C1223 C1222 1.387 . S
H1224 C1236 0.930 . S
H1225 C1238 0.930 . S
H1226 C1239 0.930 . S
H1227 C1243 0.959 . S
H1228 C1243 0.959 . S
H1229 C1243 0.961 . S
H1230 C1244 0.960 . S
H1231 C1244 0.961 . S
H1232 C1244 0.959 . S
H1233 C1247 0.929 . S
H1234 C1248 0.931 . S
H1235 C1250 0.930 . S
C1236 H1224 0.930 . S
C1236 C1237 1.399 . S
C1236 C1241 1.399 . S
C1237 C1236 1.399 . S
C1237 C1238 1.376 . S
C1238 H1225 0.930 . S
C1238 C1237 1.376 . S
C1238 C1239 1.388 . S
C1239 H1226 0.930 . S
C1239 C1238 1.388 . S
C1239 C1240 1.390 . S
C1240 C1239 1.390 . S
C1240 C1241 1.394 . S
C1240 C1246 1.465 1_455 S
C1241 C1236 1.399 . S
C1241 C1240 1.394 . S
C1241 C1242 1.516 . S
C1242 C1241 1.516 . S
C1242 C1243 1.502 . S
C1242 C1244 1.561 . S
C1242 C1245 1.526 1_455 S
C1243 H1227 0.959 . S
C1243 H1228 0.959 . S
C1243 H1229 0.961 . S
C1243 C1242 1.502 . S
C1244 H1230 0.960 . S
C1244 H1231 0.961 . S
C1244 H1232 0.959 . S
C1244 C1242 1.561 . S
C1245 C1242 1.526 1_655 S
C1245 C1246 1.396 . S
C1245 C1250 1.390 . S
C1246 C1240 1.465 1_655 S
C1246 C1245 1.396 . S
C1246 C1247 1.399 . S
C1247 H1233 0.929 . S
C1247 C1246 1.399 . S
C1247 C1248 1.385 . S
C1248 H1234 0.931 . S
C1248 C1247 1.385 . S
C1248 C1249 1.389 . S
C1249 C1248 1.389 . S
C1249 C1250 1.387 . S
C1250 H1235 0.930 . S
C1250 C1245 1.390 . S
C1250 C1249 1.387 . S
H1251 C1263 0.930 . S
H1252 C1265 0.930 . S
H1253 C1266 0.930 . S
H1254 C1270 0.959 . S
H1255 C1270 0.959 . S
H1256 C1270 0.961 . S
H1257 C1271 0.960 . S
H1258 C1271 0.961 . S
H1259 C1271 0.959 . S
H1260 C1274 0.929 . S
H1261 C1275 0.931 . S
H1262 C1277 0.930 . S
C1263 H1251 0.930 . S
C1263 C1264 1.399 . S
C1263 C1268 1.399 . S
C1264 C1263 1.399 . S
C1264 C1265 1.376 . S
C1265 H1252 0.930 . S
C1265 C1264 1.376 . S
C1265 C1266 1.388 . S
C1266 H1253 0.930 . S
C1266 C1265 1.388 . S
C1266 C1267 1.390 . S
C1267 C1266 1.390 . S
C1267 C1268 1.394 . S
C1267 C1273 1.465 . S
C1268 C1263 1.399 . S
C1268 C1267 1.394 . S
C1268 C1269 1.516 . S
C1269 C1268 1.516 . S
C1269 C1270 1.502 . S
C1269 C1271 1.561 . S
C1269 C1272 1.526 . S
C1270 H1254 0.959 . S
C1270 H1255 0.959 . S
C1270 H1256 0.961 . S
C1270 C1269 1.502 . S
C1271 H1257 0.960 . S
C1271 H1258 0.961 . S
C1271 H1259 0.959 . S
C1271 C1269 1.561 . S
C1272 C1269 1.526 . S
C1272 C1273 1.396 . S
C1272 C1277 1.390 . S
C1273 C1267 1.465 . S
C1273 C1272 1.396 . S
C1273 C1274 1.399 . S
C1274 H1260 0.929 . S
C1274 C1273 1.399 . S
C1274 C1275 1.385 . S
C1275 H1261 0.931 . S
C1275 C1274 1.385 . S
C1275 C1276 1.389 . S
C1276 C1275 1.389 . S
C1276 C1277 1.387 . S
C1277 H1262 0.930 . S
C1277 C1272 1.390 . S
C1277 C1276 1.387 . S
H1278 C1290 0.930 . S
H1279 C1292 0.930 . S
H1280 C1293 0.930 . S
H1281 C1297 0.959 . S
H1282 C1297 0.959 . S
H1283 C1297 0.961 . S
H1284 C1298 0.960 . S
H1285 C1298 0.961 . S
H1286 C1298 0.959 . S
H1287 C1301 0.929 . S
H1288 C1302 0.931 . S
H1289 C1304 0.930 . S
C1290 H1278 0.930 . S
C1290 C1291 1.399 . S
C1290 C1295 1.399 . S
C1291 C1290 1.399 . S
C1291 C1292 1.376 . S
C1292 H1279 0.930 . S
C1292 C1291 1.376 . S
C1292 C1293 1.388 . S
C1293 H1280 0.930 . S
C1293 C1292 1.388 . S
C1293 C1294 1.390 . S
C1294 C1293 1.390 . S
C1294 C1295 1.394 . S
C1294 C1300 1.465 . S
C1295 C1290 1.399 . S
C1295 C1294 1.394 . S
C1295 C1296 1.516 . S
C1296 C1295 1.516 . S
C1296 C1297 1.502 . S
C1296 C1298 1.561 . S
C1296 C1299 1.526 . S
C1297 H1281 0.959 . S
C1297 H1282 0.959 . S
C1297 H1283 0.961 . S
C1297 C1296 1.502 . S
C1298 H1284 0.960 . S
C1298 H1285 0.961 . S
C1298 H1286 0.959 . S
C1298 C1296 1.561 . S
C1299 C1296 1.526 . S
C1299 C1300 1.396 . S
C1299 C1304 1.390 . S
C1300 C1294 1.465 . S
C1300 C1299 1.396 . S
C1300 C1301 1.399 . S
C1301 H1287 0.929 . S
C1301 C1300 1.399 . S
C1301 C1302 1.385 . S
C1302 H1288 0.931 . S
C1302 C1301 1.385 . S
C1302 C1303 1.389 . S
C1303 C1302 1.389 . S
C1303 C1304 1.387 . S
C1304 H1289 0.930 . S
C1304 C1299 1.390 . S
C1304 C1303 1.387 . S
H1305 C1317 0.930 . S
H1306 C1319 0.930 . S
H1307 C1320 0.930 . S
H1308 C1324 0.959 . S
H1309 C1324 0.959 . S
H1310 C1324 0.961 . S
H1311 C1325 0.960 . S
H1312 C1325 0.961 . S
H1313 C1325 0.959 . S
H1314 C1328 0.929 . S
H1315 C1329 0.931 . S
H1316 C1331 0.930 . S
C1317 H1305 0.930 . S
C1317 C1318 1.399 . S
C1317 C1322 1.399 . S
C1318 C1317 1.399 . S
C1318 C1319 1.376 . S
C1319 H1306 0.930 . S
C1319 C1318 1.376 . S
C1319 C1320 1.388 . S
C1320 H1307 0.930 . S
C1320 C1319 1.388 . S
C1320 C1321 1.390 . S
C1321 C1320 1.390 . S
C1321 C1322 1.394 . S
C1321 C1327 1.465 1_545 S
C1322 C1317 1.399 . S
C1322 C1321 1.394 . S
C1322 C1323 1.516 1_545 S
C1323 C1322 1.516 1_565 S
C1323 C1324 1.502 . S
C1323 C1325 1.561 . S
C1323 C1326 1.526 . S
C1324 H1308 0.959 . S
C1324 H1309 0.959 . S
C1324 H1310 0.961 . S
C1324 C1323 1.502 . S
C1325 H1311 0.960 . S
C1325 H1312 0.961 . S
C1325 H1313 0.959 . S
C1325 C1323 1.561 . S
C1326 C1323 1.526 . S
C1326 C1327 1.396 . S
C1326 C1331 1.390 . S
C1327 C1321 1.465 1_565 S
C1327 C1326 1.396 . S
C1327 C1328 1.399 . S
C1328 H1314 0.929 . S
C1328 C1327 1.399 . S
C1328 C1329 1.385 . S
C1329 H1315 0.931 . S
C1329 C1328 1.385 . S
C1329 C1330 1.389 . S
C1330 C1329 1.389 . S
C1330 C1331 1.387 . S
C1331 H1316 0.930 . S
C1331 C1326 1.390 . S
C1331 C1330 1.387 . S
H1332 C1344 0.930 . S
H1333 C1346 0.930 . S
H1334 C1347 0.930 . S
H1335 C1351 0.959 . S
H1336 C1351 0.959 . S
H1337 C1351 0.961 . S
H1338 C1352 0.960 . S
H1339 C1352 0.961 . S
H1340 C1352 0.959 . S
H1341 C1355 0.929 . S
H1342 C1356 0.931 . S
H1343 C1358 0.930 . S
C1344 H1332 0.930 . S
C1344 C1345 1.399 . S
C1344 C1349 1.399 . S
C1345 C1344 1.399 . S
C1345 C1346 1.376 . S
C1346 H1333 0.930 . S
C1346 C1345 1.376 . S
C1346 C1347 1.388 . S
C1347 H1334 0.930 . S
C1347 C1346 1.388 . S
C1347 C1348 1.390 . S
C1348 C1347 1.390 . S
C1348 C1349 1.394 . S
C1348 C1354 1.465 . S
C1349 C1344 1.399 . S
C1349 C1348 1.394 . S
C1349 C1350 1.516 . S
C1350 C1349 1.516 . S
C1350 C1351 1.502 . S
C1350 C1352 1.561 . S
C1350 C1353 1.526 . S
C1351 H1335 0.959 . S
C1351 H1336 0.959 . S
C1351 H1337 0.961 . S
C1351 C1350 1.502 . S
C1352 H1338 0.960 . S
C1352 H1339 0.961 . S
C1352 H1340 0.959 . S
C1352 C1350 1.561 . S
C1353 C1350 1.526 . S
C1353 C1354 1.396 . S
C1353 C1358 1.390 . S
C1354 C1348 1.465 . S
C1354 C1353 1.396 . S
C1354 C1355 1.399 . S
C1355 H1341 0.929 . S
C1355 C1354 1.399 . S
C1355 C1356 1.385 . S
C1356 H1342 0.931 . S
C1356 C1355 1.385 . S
C1356 C1357 1.389 . S
C1357 C1356 1.389 . S
C1357 C1358 1.387 . S
C1358 H1343 0.930 . S
C1358 C1353 1.390 . S
C1358 C1357 1.387 . S
H1359 C1371 0.930 . S
H1360 C1373 0.930 . S
H1361 C1374 0.930 . S
H1362 C1378 0.959 . S
H1363 C1378 0.959 . S
H1364 C1378 0.961 . S
H1365 C1379 0.960 . S
H1366 C1379 0.961 . S
H1367 C1379 0.959 . S
H1368 C1382 0.929 . S
H1369 C1383 0.931 . S
H1370 C1385 0.930 . S
C1371 H1359 0.930 . S
C1371 C1372 1.399 . S
C1371 C1376 1.399 . S
C1372 C1371 1.399 . S
C1372 C1373 1.376 . S
C1373 H1360 0.930 . S
C1373 C1372 1.376 . S
C1373 C1374 1.388 . S
C1374 H1361 0.930 . S
C1374 C1373 1.388 . S
C1374 C1375 1.390 . S
C1375 C1374 1.390 . S
C1375 C1376 1.394 . S
C1375 C1381 1.465 . S
C1376 C1371 1.399 . S
C1376 C1375 1.394 . S
C1376 C1377 1.516 . S
C1377 C1376 1.516 . S
C1377 C1378 1.502 . S
C1377 C1379 1.561 . S
C1377 C1380 1.526 . S
C1378 H1362 0.959 . S
C1378 H1363 0.959 . S
C1378 H1364 0.961 . S
C1378 C1377 1.502 . S
C1379 H1365 0.960 . S
C1379 H1366 0.961 . S
C1379 H1367 0.959 . S
C1379 C1377 1.561 . S
C1380 C1377 1.526 . S
C1380 C1381 1.396 . S
C1380 C1385 1.390 . S
C1381 C1375 1.465 . S
C1381 C1380 1.396 . S
C1381 C1382 1.399 . S
C1382 H1368 0.929 . S
C1382 C1381 1.399 . S
C1382 C1383 1.385 . S
C1383 H1369 0.931 . S
C1383 C1382 1.385 . S
C1383 C1384 1.389 . S
C1384 C1383 1.389 . S
C1384 C1385 1.387 . S
C1385 H1370 0.930 . S
C1385 C1380 1.390 . S
C1385 C1384 1.387 . S
H1386 C1398 0.930 . S
H1387 C1400 0.930 . S
H1388 C1401 0.930 1_565 S
H1389 C1405 0.959 1_565 S
H1390 C1405 0.959 1_565 S
H1391 C1405 0.961 . S
H1392 C1406 0.960 . S
H1393 C1406 0.961 . S
H1394 C1406 0.959 . S
H1395 C1409 0.929 . S
H1396 C1410 0.931 . S
H1397 C1412 0.930 . S
C1398 H1386 0.930 . S
C1398 C1399 1.399 . S
C1398 C1403 1.399 . S
C1399 C1398 1.399 . S
C1399 C1400 1.376 . S
C1400 H1387 0.930 . S
C1400 C1399 1.376 . S
C1400 C1401 1.388 . S
C1401 H1388 0.930 1_545 S
C1401 C1400 1.388 . S
C1401 C1402 1.390 . S
C1402 C1401 1.390 . S
C1402 C1403 1.394 . S
C1402 C1408 1.465 1_545 S
C1403 C1398 1.399 . S
C1403 C1402 1.394 . S
C1403 C1404 1.516 . S
C1404 C1403 1.516 . S
C1404 C1405 1.502 . S
C1404 C1406 1.561 . S
C1404 C1407 1.526 1_545 S
C1405 H1389 0.959 1_545 S
C1405 H1390 0.959 1_545 S
C1405 H1391 0.961 . S
C1405 C1404 1.502 . S
C1406 H1392 0.960 . S
C1406 H1393 0.961 . S
C1406 H1394 0.959 . S
C1406 C1404 1.561 . S
C1407 C1404 1.526 1_565 S
C1407 C1408 1.396 . S
C1407 C1412 1.390 . S
C1408 C1402 1.465 1_565 S
C1408 C1407 1.396 . S
C1408 C1409 1.399 . S
C1409 H1395 0.929 . S
C1409 C1408 1.399 . S
C1409 C1410 1.385 . S
C1410 H1396 0.931 . S
C1410 C1409 1.385 . S
C1410 C1411 1.389 . S
C1411 C1410 1.389 . S
C1411 C1412 1.387 . S
C1412 H1397 0.930 . S
C1412 C1407 1.390 . S
C1412 C1411 1.387 . S
H1413 C1425 0.930 . S
H1414 C1427 0.930 . S
H1415 C1428 0.930 . S
H1416 C1432 0.959 . S
H1417 C1432 0.959 . S
H1418 C1432 0.961 . S
H1419 C1433 0.960 . S
H1420 C1433 0.961 . S
H1421 C1433 0.959 . S
H1422 C1436 0.929 . S
H1423 C1437 0.931 . S
H1424 C1439 0.930 . S
C1425 H1413 0.930 . S
C1425 C1426 1.399 . S
C1425 C1430 1.399 . S
C1426 C1425 1.399 . S
C1426 C1427 1.376 . S
C1427 H1414 0.930 . S
C1427 C1426 1.376 . S
C1427 C1428 1.388 . S
C1428 H1415 0.930 . S
C1428 C1427 1.388 . S
C1428 C1429 1.390 . S
C1429 C1428 1.390 . S
C1429 C1430 1.394 . S
C1429 C1435 1.465 . S
C1430 C1425 1.399 . S
C1430 C1429 1.394 . S
C1430 C1431 1.516 . S
C1431 C1430 1.516 . S
C1431 C1432 1.502 . S
C1431 C1433 1.561 . S
C1431 C1434 1.526 . S
C1432 H1416 0.959 . S
C1432 H1417 0.959 . S
C1432 H1418 0.961 . S
C1432 C1431 1.502 . S
C1433 H1419 0.960 . S
C1433 H1420 0.961 . S
C1433 H1421 0.959 . S
C1433 C1431 1.561 . S
C1434 C1431 1.526 . S
C1434 C1435 1.396 . S
C1434 C1439 1.390 . S
C1435 C1429 1.465 . S
C1435 C1434 1.396 . S
C1435 C1436 1.399 . S
C1436 H1422 0.929 . S
C1436 C1435 1.399 . S
C1436 C1437 1.385 . S
C1437 H1423 0.931 . S
C1437 C1436 1.385 . S
C1437 C1438 1.389 . S
C1438 C1437 1.389 . S
C1438 C1439 1.387 . S
C1439 H1424 0.930 . S
C1439 C1434 1.390 . S
C1439 C1438 1.387 . S
C589 C2 1.235 . S
C601 C470 1.233 . S
C616 C38 0.996 . S
C628 C326 0.978 . S
C643 C506 1.014 . S
C655 C74 1.035 . S
C670 C110 1.227 . S
C682 C542 1.223 . S
C697 C146 0.995 . S
C709 C218 1.009 . S
C724 C362 1.244 . S
C736 C182 1.245 . S
C751 C398 1.041 . S
C763 C254 1.020 . S
C778 C290 1.225 . S
C790 C434 1.230 . S
C805 C75 1.623 . S
C817 C14 1.564 . S
C832 C50 1.611 . S
C844 C122 1.685 . S
C859 C435 1.638 . S
C871 C3 1.640 . S
C886 C39 1.709 . S
C898 C400 1.700 . S
C913 C147 1.728 . S
C925 C76 1.727 . S
C940 C363 1.638 . S
C952 C111 1.639 . S
C967 C40 1.767 . S
C979 C4 1.778 . S
C994 C112 1.009 . S
C1006 C86 0.923 . S
C1021 C364 1.764 . S
C1033 C148 1.766 . S
C1048 C256 1.670 . S
C1060 C183 1.662 . S
C1075 C219 1.270 . S
C1087 C292 1.254 . S
C1102 C543 1.665 . S
C1114 C194 1.564 . S
C1129 C230 1.430 . S
C1141 C507 1.444 . S
C1156 C338 1.325 . S
C1168 C255 1.484 . S
C1183 C291 1.683 . S
C1195 C482 1.523 . S
C1210 C220 1.698 . S
C1222 C184 1.686 . S
C1237 C302 1.715 . S
C1249 C266 1.741 . S
C1264 C328 1.663 . S
C1276 C472 1.684 . S
C1291 C374 1.487 . S
C1303 C399 1.623 . S
C1318 C446 1.602 . S
C1330 C158 1.686 . S
C1345 C436 0.984 . S
C1357 C410 0.953 . S
C1372 C508 1.658 . S
C1384 C471 1.671 . S
C1399 C327 1.270 . S
C1411 C544 1.253 . S
C1426 C554 1.734 . S
C1438 C518 1.756 . S
