# Generated by pormake.
# Topology vmd, (6)-cn, num edge types: 1
# Building blocks:
#     Node 0, Type 0, BuildingBlock: IZENUY_clean_sbu_0, # of connection points: 6
#     Node 1, Type 0, BuildingBlock: IZENUY_clean_sbu_0, # of connection points: 6
#     Node 2, Type 0, BuildingBlock: IZENUY_clean_sbu_0, # of connection points: 6
#     Node 3, Type 0, BuildingBlock: IZENUY_clean_sbu_0, # of connection points: 6
#     Node 4, Type 0, BuildingBlock: IZENUY_clean_sbu_0, # of connection points: 6
#     Node 5, Type 0, BuildingBlock: IZENUY_clean_sbu_0, # of connection points: 6
#     Node 6, Type 0, BuildingBlock: IZENUY_clean_sbu_0, # of connection points: 6
#     Node 7, Type 0, BuildingBlock: IZENUY_clean_sbu_0, # of connection points: 6
#     Edge 8, Type (0, 0), BuildingBlock: KIFKEQ_clean_linker_1, # of connection points: 2
#     Edge 9, Type (0, 0), BuildingBlock: KIFKEQ_clean_linker_1, # of connection points: 2
#     Edge 10, Type (0, 0), BuildingBlock: KIFKEQ_clean_linker_1, # of connection points: 2
#     Edge 11, Type (0, 0), BuildingBlock: KIFKEQ_clean_linker_1, # of connection points: 2
#     Edge 12, Type (0, 0), BuildingBlock: KIFKEQ_clean_linker_1, # of connection points: 2
#     Edge 13, Type (0, 0), BuildingBlock: KIFKEQ_clean_linker_1, # of connection points: 2
#     Edge 14, Type (0, 0), BuildingBlock: KIFKEQ_clean_linker_1, # of connection points: 2
#     Edge 15, Type (0, 0), BuildingBlock: KIFKEQ_clean_linker_1, # of connection points: 2
#     Edge 16, Type (0, 0), BuildingBlock: KIFKEQ_clean_linker_1, # of connection points: 2
#     Edge 17, Type (0, 0), BuildingBlock: KIFKEQ_clean_linker_1, # of connection points: 2
#     Edge 18, Type (0, 0), BuildingBlock: KIFKEQ_clean_linker_1, # of connection points: 2
#     Edge 19, Type (0, 0), BuildingBlock: KIFKEQ_clean_linker_1, # of connection points: 2
#     Edge 20, Type (0, 0), BuildingBlock: KIFKEQ_clean_linker_1, # of connection points: 2
#     Edge 21, Type (0, 0), BuildingBlock: KIFKEQ_clean_linker_1, # of connection points: 2
#     Edge 22, Type (0, 0), BuildingBlock: KIFKEQ_clean_linker_1, # of connection points: 2
#     Edge 23, Type (0, 0), BuildingBlock: KIFKEQ_clean_linker_1, # of connection points: 2
#     Edge 24, Type (0, 0), BuildingBlock: KIFKEQ_clean_linker_1, # of connection points: 2
#     Edge 25, Type (0, 0), BuildingBlock: KIFKEQ_clean_linker_1, # of connection points: 2
#     Edge 26, Type (0, 0), BuildingBlock: KIFKEQ_clean_linker_1, # of connection points: 2
#     Edge 27, Type (0, 0), BuildingBlock: KIFKEQ_clean_linker_1, # of connection points: 2
#     Edge 28, Type (0, 0), BuildingBlock: KIFKEQ_clean_linker_1, # of connection points: 2
#     Edge 29, Type (0, 0), BuildingBlock: KIFKEQ_clean_linker_1, # of connection points: 2
#     Edge 30, Type (0, 0), BuildingBlock: KIFKEQ_clean_linker_1, # of connection points: 2
#     Edge 31, Type (0, 0), BuildingBlock: KIFKEQ_clean_linker_1, # of connection points: 2
# Relax obj value: 0.251
# Max RMSD: 0.249
# Mean RMSD: 0.249
data_MOF--net-vmd--node1-IZENUY_clean_sbu_0--edge1-KIFKEQ_clean_linker_1
_symmetry_space_group_name_H-M    P1
_symmetry_Int_Tables_number       1
_symmetry_cell_setting            triclinic
loop_
_symmetry_equiv_pos_as_xyz
'x, y, z'
_cell_length_a     47.823611
_cell_length_b     26.67458
_cell_length_c     29.004723
_cell_angle_alpha  89.779392
_cell_angle_beta   97.638391
_cell_angle_gamma 90.09715
loop_
_atom_site_label
_atom_site_type_symbol
_atom_site_fract_x
_atom_site_fract_y
_atom_site_fract_z
_atom_type_partial_charge
Fe0 Fe 0.16848 0.46305 0.26509 0.0
Fe1 Fe 0.16737 0.36738 0.32215 0.0
O2 O 0.18435 0.40581 0.2846 0.0
Fe3 Fe 0.2169 0.38807 0.26687 0.0
O4 O 0.23443 0.44543 0.28961 0.0
O5 O 0.20136 0.49531 0.2568 0.0
O6 O 0.1727 0.48682 0.32397 0.0
C7 C 0.16255 0.46511 0.35679 0.0
C8 C 0.18413 0.42689 0.18511 0.0
O9 O 0.15288 0.42073 0.35174 0.0
C10 C 0.19145 0.29634 0.26492 0.0
O11 O 0.13221 0.4425 0.26885 0.0
O12 O 0.13577 0.36147 0.27982 0.0
O13 O 0.20799 0.41507 0.20763 0.0
O14 O 0.164 0.44101 0.20604 0.0
C15 C 0.22198 0.35936 0.36282 0.0
O16 O 0.18014 0.30737 0.30076 0.0
O17 O 0.20232 0.3299 0.24244 0.0
C18 C 0.12103 0.39937 0.2667 0.0
O19 O 0.19702 0.37141 0.36657 0.0
O20 O 0.23057 0.35734 0.32314 0.0
C21 C 0.22654 0.48837 0.27503 0.0
Fe22 Fe 0.86112 0.46812 0.22597 0.0
Fe23 Fe 0.85915 0.36851 0.1747 0.0
O24 O 0.84476 0.40968 0.21294 0.0
Fe25 Fe 0.81423 0.39269 0.23774 0.0
O26 O 0.79473 0.4472 0.21341 0.0
O27 O 0.82858 0.50128 0.2347 0.0
O28 O 0.85434 0.48733 0.16595 0.0
C29 C 0.86295 0.46371 0.13312 0.0
C30 C 0.84977 0.44041 0.31158 0.0
O31 O 0.87204 0.41913 0.13921 0.0
C32 C 0.83954 0.30171 0.24118 0.0
O33 O 0.89685 0.44614 0.21955 0.0
O34 O 0.89254 0.3645 0.21274 0.0
O35 O 0.82557 0.42509 0.29347 0.0
O36 O 0.86845 0.45177 0.28652 0.0
C37 C 0.80333 0.35825 0.14409 0.0
O38 O 0.84777 0.31018 0.202 0.0
O39 O 0.8313 0.33738 0.2642 0.0
C40 C 0.90772 0.40271 0.22251 0.0
O41 O 0.82721 0.37091 0.13461 0.0
O42 O 0.79807 0.35699 0.18595 0.0
C43 C 0.80291 0.49178 0.2207 0.0
Fe44 Fe 0.81304 0.64535 0.73326 0.0
Fe45 Fe 0.8612 0.67734 0.67918 0.0
O46 O 0.84561 0.63137 0.71257 0.0
Fe47 Fe 0.86177 0.57188 0.72436 0.0
O48 O 0.83009 0.53725 0.70078 0.0
O49 O 0.79988 0.58122 0.73379 0.0
O50 O 0.79525 0.65174 0.67339 0.0
C51 C 0.80413 0.68048 0.64359 0.0
C52 C 0.844 0.60204 0.80965 0.0
O53 O 0.82761 0.70242 0.65223 0.0
C54 C 0.90933 0.63215 0.73103 0.0
O55 O 0.81947 0.71259 0.73808 0.0
O56 O 0.86338 0.72345 0.72596 0.0
O57 O 0.85271 0.56928 0.7834 0.0
O58 O 0.82923 0.63912 0.79348 0.0
C59 C 0.86723 0.59025 0.62986 0.0
O60 O 0.8977 0.66019 0.69904 0.0
O61 O 0.89535 0.59913 0.74924 0.0
C62 C 0.84196 0.73793 0.74349 0.0
O63 O 0.85977 0.63557 0.62997 0.0
O64 O 0.87328 0.56552 0.66712 0.0
C65 C 0.80619 0.54166 0.7141 0.0
Fe66 Fe 0.16999 0.55875 0.76674 0.0
Fe67 Fe 0.21678 0.63642 0.76099 0.0
O68 O 0.18589 0.61677 0.78355 0.0
Fe69 Fe 0.17071 0.65474 0.82343 0.0
O70 O 0.15754 0.60163 0.85523 0.0
O71 O 0.17614 0.53581 0.82595 0.0
O72 O 0.20292 0.52726 0.75751 0.0
C73 C 0.22844 0.53652 0.7728 0.0
C74 C 0.12269 0.62226 0.77216 0.0
O75 O 0.23636 0.58079 0.78275 0.0
C76 C 0.19083 0.72672 0.76187 0.0
O77 O 0.16341 0.57888 0.70691 0.0
O78 O 0.20633 0.60765 0.70327 0.0
O79 O 0.13769 0.66009 0.7847 0.0
O80 O 0.13382 0.57906 0.77274 0.0
C81 C 0.22614 0.6659 0.85661 0.0
O82 O 0.19978 0.69323 0.73713 0.0
O83 O 0.18209 0.71503 0.79997 0.0
C84 C 0.18232 0.59329 0.68339 0.0
O85 O 0.23205 0.66912 0.81516 0.0
O86 O 0.20231 0.65092 0.86452 0.0
C87 C 0.16708 0.55728 0.85959 0.0
Fe88 Fe 0.66845 0.96701 0.26792 0.0
Fe89 Fe 0.67012 0.86719 0.31995 0.0
O90 O 0.68502 0.90884 0.28231 0.0
Fe91 Fe 0.71631 0.89258 0.25946 0.0
O92 O 0.73504 0.94756 0.28426 0.0
O93 O 0.70115 1.00097 0.26095 0.0
O94 O 0.6738 0.98629 0.32798 0.0
C95 C 0.66543 0.96173 0.36069 0.0
C96 C 0.68176 0.93922 0.18345 0.0
O97 O 0.65638 0.91722 0.35434 0.0
C98 C 0.69117 0.80114 0.25498 0.0
O99 O 0.63255 0.94404 0.27213 0.0
O100 O 0.63737 0.8626 0.28067 0.0
O101 O 0.70583 0.92473 0.20302 0.0
O102 O 0.66251 0.95067 0.20726 0.0
C103 C 0.72552 0.85759 0.35355 0.0
O104 O 0.68221 0.80923 0.29357 0.0
O105 O 0.70006 0.83692 0.23257 0.0
C106 C 0.62208 0.90025 0.26904 0.0
O107 O 0.70134 0.87004 0.36143 0.0
O108 O 0.73179 0.85698 0.31223 0.0
C109 C 0.72675 0.99195 0.27602 0.0
Fe110 Fe 0.36329 0.96319 0.23584 0.0
Fe111 Fe 0.36323 0.86824 0.1781 0.0
O112 O 0.34676 0.90668 0.21596 0.0
Fe113 Fe 0.314 0.88949 0.23348 0.0
O114 O 0.29706 0.94736 0.21072 0.0
O115 O 0.33061 0.99653 0.24331 0.0
O116 O 0.35982 0.98766 0.17706 0.0
C117 C 0.36985 0.96596 0.14433 0.0
C118 C 0.34673 0.92758 0.31564 0.0
O119 O 0.37882 0.92121 0.14929 0.0
C120 C 0.3386 0.79726 0.23512 0.0
O121 O 0.39943 0.94097 0.23311 0.0
O122 O 0.39449 0.86035 0.22044 0.0
O123 O 0.32289 0.91601 0.2929 0.0
O124 O 0.36711 0.94078 0.29484 0.0
C125 C 0.30875 0.862 0.13721 0.0
O126 O 0.34959 0.80844 0.19891 0.0
O127 O 0.32811 0.83082 0.25787 0.0
C128 C 0.40969 0.89711 0.23519 0.0
O129 O 0.33371 0.87431 0.13361 0.0
O130 O 0.3002 0.85937 0.17696 0.0
C131 C 0.30532 0.99011 0.22516 0.0
Fe132 Fe 0.31601 0.13415 0.7387 0.0
Fe133 Fe 0.36197 0.15695 0.67708 0.0
O134 O 0.34743 0.11743 0.71681 0.0
Fe135 Fe 0.36432 0.06037 0.73413 0.0
O136 O 0.33196 0.02689 0.74427 0.0
O137 O 0.2979 0.07748 0.71579 0.0
O138 O 0.30034 0.16706 0.6849 0.0
C139 C 0.30641 0.16506 0.64361 0.0
C140 C 0.35115 0.09334 0.81688 0.0
O141 O 0.33054 0.15207 0.63582 0.0
C142 C 0.4105 0.12657 0.72844 0.0
O143 O 0.33169 0.19138 0.76315 0.0
O144 O 0.34971 0.21632 0.7012 0.0
O145 O 0.37058 0.08092 0.79374 0.0
O146 O 0.32678 0.10512 0.79647 0.0
C147 C 0.36666 0.05993 0.64097 0.0
O148 O 0.39494 0.16363 0.7157 0.0
O149 O 0.40008 0.08275 0.72769 0.0
C150 C 0.34052 0.22614 0.73936 0.0
O151 O 0.37574 0.1047 0.64511 0.0
O152 O 0.35838 0.03749 0.67503 0.0
C153 C 0.30637 0.03405 0.72798 0.0
Fe154 Fe 0.66875 0.16178 0.81645 0.0
Fe155 Fe 0.66983 0.06361 0.76327 0.0
O156 O 0.68621 0.12054 0.78233 0.0
Fe157 Fe 0.71999 0.13508 0.76769 0.0
O158 O 0.73223 0.16834 0.82302 0.0
O159 O 0.69692 0.15784 0.8634 0.0
O160 O 0.65223 0.11063 0.84666 0.0
C161 C 0.661 0.06587 0.85389 0.0
C162 C 0.69629 0.22779 0.75817 0.0
O163 O 0.67134 0.0421 0.82263 0.0
C164 C 0.68968 0.09474 0.68496 0.0
O165 O 0.63845 0.16776 0.77174 0.0
O166 O 0.63351 0.08671 0.76222 0.0
O167 O 0.70729 0.1921 0.73892 0.0
O168 O 0.68355 0.21994 0.79338 0.0
C169 C 0.72751 0.03543 0.7815 0.0
O170 O 0.66809 0.08356 0.70356 0.0
O171 O 0.71307 0.10494 0.70965 0.0
C172 C 0.62327 0.13055 0.75817 0.0
O173 O 0.70289 0.02892 0.76022 0.0
O174 O 0.73533 0.07848 0.79537 0.0
C175 C 0.72238 0.16778 0.86165 0.0
H176 H 0.29402 0.13335 0.55469 0.0
H177 H 0.28272 0.2571 0.64556 0.0
H178 H 0.27561 0.184 0.48733 0.0
H179 H 0.26614 0.30923 0.57848 0.0
H180 H 0.21293 0.37516 0.45173 0.0
H181 H 0.23095 0.32716 0.51971 0.0
H182 H 0.28759 0.24921 0.44 0.0
H183 H 0.26768 0.29539 0.37029 0.0
C184 C 0.28699 0.17122 0.56013 0.0
C185 C 0.28911 0.19107 0.60519 0.0
C186 C 0.27708 0.20072 0.52152 0.0
C187 C 0.26977 0.25123 0.52703 0.0
C188 C 0.27111 0.27042 0.57255 0.0
C189 C 0.2804 0.24047 0.61122 0.0
C190 C 0.22947 0.34814 0.44863 0.0
C191 C 0.23859 0.33862 0.40531 0.0
C192 C 0.24 0.32066 0.48799 0.0
C193 C 0.26049 0.28347 0.48561 0.0
C194 C 0.27119 0.27647 0.44297 0.0
C195 C 0.26024 0.30362 0.40311 0.0
H196 H 0.71214 0.14867 0.94945 0.0
H197 H 0.76769 0.23257 0.87186 0.0
H198 H 0.72902 0.19525 0.01894 0.0
H199 H 0.78607 0.27775 0.94277 0.0
H200 H 0.78807 0.39201 0.05664 0.0
H201 H 0.77037 0.34165 0.98907 0.0
H202 H 0.76473 0.21321 0.07899 0.0
H203 H 0.78104 0.26481 0.14655 0.0
C204 C 0.72859 0.17632 0.94757 0.0
C205 C 0.73833 0.18747 0.90496 0.0
C206 C 0.73839 0.20297 0.98767 0.0
C207 C 0.75854 0.24109 0.98651 0.0
C208 C 0.7699 0.24964 0.94464 0.0
C209 C 0.75982 0.22315 0.90415 0.0
C210 C 0.78197 0.35346 0.06186 0.0
C211 C 0.78529 0.33243 0.10666 0.0
C212 C 0.7725 0.32422 0.02312 0.0
C213 C 0.76672 0.27294 0.02825 0.0
C214 C 0.76876 0.2526 0.07355 0.0
C215 C 0.77779 0.2822 0.11243 0.0
H216 H 0.7522 0.76718 0.35293 0.0
H217 H 0.7352 0.88916 0.44232 0.0
H218 H 0.76773 0.71536 0.42145 0.0
H219 H 0.75133 0.83845 0.51059 0.0
H220 H 0.75295 0.72745 0.62535 0.0
H221 H 0.73472 0.76834 0.55155 0.0
H222 H 0.80289 0.704 0.48739 0.0
H223 H 0.82018 0.66244 0.56023 0.0
C224 C 0.75294 0.78352 0.38722 0.0
C225 C 0.74293 0.83232 0.39245 0.0
C226 C 0.76142 0.7537 0.42651 0.0
C227 C 0.7601 0.77229 0.47164 0.0
C228 C 0.75177 0.82228 0.4765 0.0
C229 C 0.74316 0.85179 0.43742 0.0
C230 C 0.76316 0.7205 0.59482 0.0
C231 C 0.78775 0.69158 0.59818 0.0
C232 C 0.75317 0.74464 0.55282 0.0
C233 C 0.76776 0.74041 0.51373 0.0
C234 C 0.79107 0.70814 0.5165 0.0
C235 C 0.80096 0.68415 0.55828 0.0
H236 H 0.26299 0.79772 0.12942 0.0
H237 H 0.31825 0.87766 0.04831 0.0
H238 H 0.24352 0.75129 0.0599 0.0
H239 H 0.30073 0.82936 0.9806 0.0
H240 H 0.25076 0.75763 0.85435 0.0
H241 H 0.26668 0.81026 0.92103 0.0
H242 H 0.25514 0.68619 0.01335 0.0
H243 H 0.23722 0.63523 0.94633 0.0
C244 C 0.27066 0.80593 0.09671 0.0
C245 C 0.29231 0.8411 0.09462 0.0
C246 C 0.25995 0.77861 0.05693 0.0
C247 C 0.27093 0.7855 0.01442 0.0
C248 C 0.29143 0.82285 0.01213 0.0
C249 C 0.30169 0.85054 0.05139 0.0
C250 C 0.25235 0.74141 0.8889 0.0
C251 C 0.2431 0.69228 0.89524 0.0
C252 C 0.26133 0.77164 0.92738 0.0
C253 C 0.26194 0.75298 0.97314 0.0
C254 C 0.25419 0.70265 0.97902 0.0
C255 C 0.24454 0.67293 0.94058 0.0
H256 H 0.30959 0.06563 0.28821 0.0
H257 H 0.25413 1.0066 0.17126 0.0
H258 H 0.27613 0.1326 0.29641 0.0
H259 H 0.22063 0.07515 0.179 0.0
H260 H 0.20074 0.25497 0.18225 0.0
H261 H 0.22419 0.17521 0.17122 0.0
H262 H 0.22441 0.14017 0.31657 0.0
H263 H 0.20055 0.21943 0.32756 0.0
C264 C 0.29027 0.06705 0.26406 0.0
C265 C 0.28461 0.03087 0.22887 0.0
C266 C 0.27096 0.10519 0.26911 0.0
C267 C 0.24566 0.10886 0.23863 0.0
C268 C 0.23995 0.07304 0.20309 0.0
C269 C 0.25908 0.03393 0.19866 0.0
C270 C 0.20495 0.22947 0.21151 0.0
C271 C 0.19878 0.24355 0.25578 0.0
C272 C 0.21837 0.18381 0.20515 0.0
C273 C 0.22636 0.15176 0.24312 0.0
C274 C 0.21861 0.16434 0.28674 0.0
C275 C 0.20471 0.20953 0.29293 0.0
H276 H 0.71713 0.09077 0.2901 0.0
H277 H 0.78299 0.98754 0.26566 0.0
H278 H 0.74974 0.16086 0.28744 0.0
H279 H 0.81563 0.05827 0.26207 0.0
H280 H 0.84004 0.21492 0.19001 0.0
H281 H 0.81644 0.13584 0.20411 0.0
H282 H 0.79625 0.19303 0.33457 0.0
H283 H 0.82006 0.27145 0.32123 0.0
C284 C 0.73865 0.08304 0.2845 0.0
C285 C 0.74747 0.03362 0.27816 0.0
C286 C 0.75737 0.12316 0.28317 0.0
C287 C 0.78525 0.11501 0.27462 0.0
C288 C 0.79425 0.06559 0.26866 0.0
C289 C 0.77563 0.02518 0.271 0.0
C290 C 0.83138 0.2101 0.2224 0.0
C291 C 0.83173 0.24995 0.25419 0.0
C292 C 0.8178 0.16479 0.23039 0.0
C293 C 0.80414 0.15864 0.2701 0.0
C294 C 0.80626 0.19701 0.30336 0.0
C295 C 0.82005 0.24191 0.2957 0.0
H296 H 0.82971 0.7704 0.82666 0.0
H297 H 0.84414 0.82129 0.69058 0.0
H298 H 0.80656 0.84998 0.83973 0.0
H299 H 0.82021 0.90033 0.703 0.0
H300 H 0.72796 0.96169 0.71728 0.0
H301 H 0.76402 0.89805 0.71247 0.0
H302 H 0.81158 0.95437 0.83847 0.0
H303 H 0.77567 0.01967 0.84271 0.0
C304 C 0.8292 0.79971 0.80058 0.0
C305 C 0.83913 0.79024 0.75799 0.0
C306 C 0.81577 0.84502 0.80789 0.0
C307 C 0.81142 0.88095 0.77219 0.0
C308 C 0.82337 0.87314 0.73105 0.0
C309 C 0.83737 0.82827 0.72417 0.0
C310 C 0.74604 0.96055 0.74408 0.0
C311 C 0.74889 0.99545 0.78059 0.0
C312 C 0.76684 0.92452 0.74097 0.0
C313 C 0.79071 0.92181 0.77477 0.0
C314 C 0.79346 0.95606 0.81179 0.0
C315 C 0.77291 0.99313 0.81428 0.0
H316 H 0.25493 0.01962 0.67459 0.0
H317 H 0.31111 0.95538 0.78831 0.0
H318 H 0.22145 0.95035 0.68046 0.0
H319 H 0.27756 0.88765 0.79482 0.0
H320 H 0.2002 0.80266 0.82512 0.0
H321 H 0.22498 0.88134 0.81544 0.0
H322 H 0.22539 0.84906 0.66996 0.0
H323 H 0.20116 0.76948 0.67968 0.0
C324 C 0.26003 0.99098 0.70092 0.0
C325 C 0.28572 0.99284 0.7308 0.0
C326 C 0.24092 0.95144 0.70424 0.0
C327 C 0.24682 0.91395 0.73839 0.0
C328 C 0.27231 0.91632 0.76855 0.0
C329 C 0.29162 0.95493 0.76451 0.0
C330 C 0.20477 0.81287 0.79072 0.0
C331 C 0.19881 0.77951 0.75322 0.0
C332 C 0.21917 0.85782 0.7853 0.0
C333 C 0.22731 0.87105 0.74205 0.0
C334 C 0.21929 0.83985 0.70365 0.0
C335 C 0.20541 0.79431 0.70926 0.0
H336 H 0.74682 0.48695 0.23224 0.0
H337 H 0.81227 0.59042 0.20504 0.0
H338 H 0.71415 0.55752 0.23537 0.0
H339 H 0.77969 0.66028 0.20739 0.0
H340 H 0.71019 0.77125 0.17477 0.0
H341 H 0.73344 0.69257 0.16123 0.0
H342 H 0.7133 0.63485 0.292 0.0
H343 H 0.69018 0.7141 0.30617 0.0
C344 C 0.75408 0.5246 0.22623 0.0
C345 C 0.78213 0.53319 0.21845 0.0
C346 C 0.73545 0.56491 0.22828 0.0
C347 C 0.74435 0.61432 0.22145 0.0
C348 C 0.77212 0.62258 0.21228 0.0
C349 C 0.79083 0.58259 0.21118 0.0
C350 C 0.71009 0.74152 0.2003 0.0
C351 C 0.6986 0.74942 0.24192 0.0
C352 C 0.72354 0.69648 0.19253 0.0
C353 C 0.72555 0.65791 0.22586 0.0
C354 C 0.71201 0.66395 0.26566 0.0
C355 C 0.69872 0.70936 0.27371 0.0
H356 H 0.32796 0.75618 0.31757 0.0
H357 H 0.3315 0.71947 0.17357 0.0
H358 H 0.30544 0.67536 0.32875 0.0
H359 H 0.30863 0.63911 0.18474 0.0
H360 H 0.22334 0.56192 0.20983 0.0
H361 H 0.25657 0.62954 0.20196 0.0
H362 H 0.31035 0.57543 0.3231 0.0
H363 H 0.27705 0.50614 0.33055 0.0
C364 C 0.32464 0.7303 0.28866 0.0
C365 C 0.33144 0.74436 0.24463 0.0
C366 C 0.3118 0.684 0.29513 0.0
C367 C 0.30506 0.6512 0.25752 0.0
C368 C 0.31347 0.66384 0.21428 0.0
C369 C 0.32676 0.70972 0.20799 0.0
C370 C 0.24227 0.56415 0.23482 0.0
C371 C 0.24748 0.52879 0.27103 0.0
C372 C 0.26145 0.60267 0.22997 0.0
C373 C 0.28615 0.60755 0.26167 0.0
C374 C 0.29149 0.57238 0.29809 0.0
C375 C 0.27249 0.53284 0.30234 0.0
H376 H 0.32294 0.25933 0.8196 0.0
H377 H 0.33964 0.31111 0.68453 0.0
H378 H 0.29951 0.3382 0.83165 0.0
H379 H 0.31642 0.39084 0.69734 0.0
H380 H 0.28428 0.54154 0.75917 0.0
H381 H 0.31687 0.47091 0.75462 0.0
H382 H 0.25192 0.36802 0.78472 0.0
H383 H 0.21941 0.43784 0.78822 0.0
C384 C 0.32228 0.28796 0.79288 0.0
C385 C 0.33295 0.27842 0.75078 0.0
C386 C 0.30874 0.33315 0.79984 0.0
C387 C 0.30581 0.37038 0.76522 0.0
C388 C 0.31845 0.36279 0.72468 0.0
C389 C 0.33182 0.31714 0.71743 0.0
C390 C 0.27715 0.50384 0.76528 0.0
C391 C 0.24929 0.4952 0.77408 0.0
C392 C 0.29571 0.4635 0.76238 0.0
C393 C 0.28695 0.41402 0.76947 0.0
C394 C 0.25936 0.40575 0.77951 0.0
C395 C 0.24071 0.44572 0.78135 0.0
H396 H 0.81371 0.44509 0.68438 0.0
H397 H 0.75387 0.53951 0.74219 0.0
H398 H 0.783 0.37279 0.69096 0.0
H399 H 0.72324 0.46761 0.74826 0.0
H400 H 0.69912 0.31362 0.81094 0.0
H401 H 0.72327 0.39162 0.79562 0.0
H402 H 0.73753 0.33542 0.66128 0.0
H403 H 0.71367 0.25764 0.67667 0.0
C404 C 0.79388 0.45064 0.69785 0.0
C405 C 0.78645 0.49822 0.71296 0.0
C406 C 0.77618 0.40919 0.70152 0.0
C407 C 0.75065 0.41426 0.72045 0.0
C408 C 0.74288 0.46211 0.73421 0.0
C409 C 0.76047 0.50347 0.7304 0.0
C410 C 0.70667 0.31851 0.77761 0.0
C411 C 0.70455 0.27922 0.74519 0.0
C412 C 0.72067 0.36317 0.76886 0.0
C413 C 0.73283 0.3695 0.72748 0.0
C414 C 0.72904 0.33143 0.69392 0.0
C415 C 0.71508 0.28699 0.70261 0.0
H416 H 0.08414 0.47418 0.27613 0.0
H417 H 0.08722 0.31705 0.24171 0.0
H418 H 0.03336 0.47112 0.26673 0.0
H419 H 0.03539 0.31445 0.22962 0.0
H420 H 0.94097 0.3225 0.25528 0.0
H421 H 0.99272 0.31828 0.26546 0.0
H422 H 0.99562 0.46781 0.20814 0.0
H423 H 0.94478 0.4728 0.20067 0.0
C424 C 0.07392 0.43899 0.26567 0.0
C425 C 0.08981 0.39599 0.25904 0.0
C426 C 0.0446 0.43728 0.26001 0.0
C427 C 0.03003 0.3928 0.24644 0.0
C428 C 0.04586 0.34935 0.24025 0.0
C429 C 0.07552 0.35087 0.24681 0.0
C430 C 0.95285 0.35441 0.2452 0.0
C431 C 0.93886 0.39834 0.22811 0.0
C432 C 0.98246 0.3519 0.25065 0.0
C433 C 0.99852 0.39303 0.23839 0.0
C434 C 0.9842 0.43599 0.21955 0.0
C435 C 0.9549 0.43883 0.21505 0.0
H436 H 0.09013 0.70663 0.77699 0.0
H437 H 0.08416 0.54704 0.75231 0.0
H438 H 0.03875 0.71127 0.77157 0.0
H439 H 0.03304 0.55188 0.74646 0.0
H440 H 0.94507 0.70325 0.70392 0.0
H441 H 0.99639 0.70258 0.71474 0.0
H442 H 0.99603 0.56647 0.79575 0.0
H443 H 0.94447 0.56664 0.78438 0.0
C444 C 0.07791 0.67263 0.77003 0.0
C445 C 0.09139 0.62646 0.76519 0.0
C446 C 0.04844 0.67529 0.76692 0.0
C447 C 0.03175 0.63183 0.75909 0.0
C448 C 0.04523 0.58591 0.75349 0.0
C449 C 0.0746 0.58326 0.75639 0.0
C450 C 0.95586 0.67336 0.72447 0.0
C451 C 0.94053 0.63473 0.74296 0.0
C452 C 0.98537 0.67316 0.73083 0.0
C453 C 1.00038 0.63424 0.75571 0.0
C454 C 0.9851 0.59658 0.77571 0.0
C455 C 0.95553 0.5969 0.76954 0.0
H456 H 0.4473 0.96459 0.27727 0.0
H457 H 0.44241 0.81701 0.21581 0.0
H458 H 0.49847 0.96137 0.28467 0.0
H459 H 0.49394 0.81421 0.22246 0.0
H460 H 0.59001 0.81679 0.28192 0.0
H461 H 0.53857 0.81202 0.27629 0.0
H462 H 0.53252 0.9662 0.23001 0.0
H463 H 0.58359 0.9713 0.2364 0.0
C464 C 0.45716 0.93126 0.26558 0.0
C465 C 0.44072 0.89131 0.24547 0.0
C466 C 0.48653 0.92959 0.26949 0.0
C467 C 0.5003 0.88801 0.2532 0.0
C468 C 0.48398 0.84682 0.23529 0.0
C469 C 0.45445 0.84842 0.2315 0.0
C470 C 0.57766 0.84948 0.27007 0.0
C471 C 0.59096 0.89464 0.26015 0.0
C472 C 0.54818 0.84671 0.26683 0.0
C473 C 0.53145 0.88901 0.25358 0.0
C474 C 0.54478 0.93331 0.24159 0.0
C475 C 0.57411 0.93612 0.2449 0.0
H476 H 0.59033 0.21171 0.77429 0.0
H477 H 0.58562 0.06152 0.71858 0.0
H478 H 0.53879 0.2143 0.76801 0.0
H479 H 0.53445 0.06449 0.71152 0.0
H480 H 0.44956 0.05651 0.76146 0.0
H481 H 0.50055 0.06171 0.76608 0.0
H482 H 0.49368 0.21438 0.71575 0.0
H483 H 0.44229 0.20949 0.71187 0.0
C484 C 0.57833 0.17966 0.75985 0.0
C485 C 0.59216 0.13616 0.74744 0.0
C486 C 0.54877 0.18114 0.75629 0.0
C487 C 0.53246 0.1392 0.74017 0.0
C488 C 0.54633 0.09695 0.72533 0.0
C489 C 0.57573 0.0954 0.72901 0.0
C490 C 0.45883 0.09139 0.75164 0.0
C491 C 0.44171 0.13241 0.73588 0.0
C492 C 0.48814 0.09424 0.75393 0.0
C493 C 0.50126 0.13813 0.74038 0.0
C494 C 0.48429 0.17998 0.72643 0.0
C495 C 0.45481 0.17716 0.72419 0.0
H496 H 0.1404 0.58411 0.93319 0.0
H497 H 0.19472 0.47038 0.88733 0.0
H498 H 0.14384 0.54385 0.00915 0.0
H499 H 0.19805 0.42996 0.9637 0.0
H500 H 0.22543 0.42877 0.12767 0.0
H501 H 0.21978 0.45339 0.04559 0.0
H502 H 0.12969 0.46433 0.04544 0.0
H503 H 0.13519 0.44008 0.12701 0.0
C504 C 0.15282 0.5502 0.93914 0.0
C505 C 0.16724 0.5304 0.90423 0.0
C506 C 0.15467 0.52699 0.98258 0.0
C507 C 0.17116 0.4837 0.99222 0.0
C508 C 0.1853 0.46341 0.95719 0.0
C509 C 0.18322 0.48638 0.91346 0.0
C510 C 0.20439 0.43547 0.10984 0.0
C511 C 0.18083 0.43334 0.13404 0.0
C512 C 0.20116 0.44946 0.06287 0.0
C513 C 0.17433 0.46151 0.03948 0.0
C514 C 0.15066 0.4562 0.06291 0.0
C515 C 0.15386 0.44219 0.10961 0.0
H516 H 0.81579 0.42289 0.37927 0.0
H517 H 0.8953 0.4899 0.35642 0.0
H518 H 0.82227 0.45554 0.45888 0.0
H519 H 0.90126 0.52271 0.43514 0.0
H520 H 0.87291 0.63289 0.54598 0.0
H521 H 0.8704 0.59089 0.47082 0.0
H522 H 0.85922 0.44839 0.53701 0.0
H523 H 0.86212 0.49013 0.6125 0.0
C524 C 0.83473 0.44395 0.3913 0.0
C525 C 0.85485 0.4542 0.36131 0.0
C526 C 0.83844 0.46247 0.43677 0.0
C527 C 0.86211 0.49197 0.45262 0.0
C528 C 0.8827 0.5005 0.42339 0.0
C529 C 0.87925 0.48149 0.37837 0.0
C530 C 0.87021 0.59257 0.54457 0.0
C531 C 0.86788 0.56474 0.58505 0.0
C532 C 0.86883 0.56859 0.50168 0.0
C533 C 0.86462 0.51654 0.49843 0.0
C534 C 0.8624 0.4886 0.53881 0.0
C535 C 0.8643 0.51245 0.58189 0.0
H536 H 0.88971 0.55637 0.85561 0.0
H537 H 0.81111 0.62631 0.87708 0.0
H538 H 0.89675 0.52838 0.93611 0.0
H539 H 0.81775 0.59691 0.95798 0.0
H540 H 0.84835 0.5607 0.11057 0.0
H541 H 0.84605 0.60119 0.03469 0.0
H542 H 0.87436 0.46408 0.97699 0.0
H543 H 0.87729 0.42394 0.05289 0.0
C544 C 0.87401 0.56604 0.8778 0.0
C545 C 0.84966 0.59285 0.86009 0.0
C546 C 0.87797 0.54976 0.92382 0.0
C547 C 0.85753 0.55945 0.95311 0.0
C548 C 0.83392 0.58893 0.93623 0.0
C549 C 0.83008 0.60575 0.89001 0.0
C550 C 0.85436 0.53932 0.08178 0.0
C551 C 0.86313 0.48909 0.0878 0.0
C552 C 0.85285 0.5625 0.03827 0.0
C553 C 0.86007 0.53595 -0.00011 0.0
C554 C 0.86913 0.4859 0.00607 0.0
C555 C 0.8707 0.46277 0.04954 0.0
H556 H 0.13791 0.43353 0.43149 0.0
H557 H 0.18661 0.55536 0.3838 0.0
H558 H 0.14124 0.47203 0.50787 0.0
H559 H 0.18964 0.59421 0.46045 0.0
H560 H 0.22093 0.59874 0.6214 0.0
H561 H 0.21383 0.57405 0.53965 0.0
H562 H 0.12578 0.54552 0.54851 0.0
H563 H 0.13281 0.5695 0.63002 0.0
C564 C 0.14896 0.46892 0.43706 0.0
C565 C 0.16198 0.49134 0.40151 0.0
C566 C 0.15076 0.49113 0.48083 0.0
C567 C 0.16571 0.53618 0.49017 0.0
C568 C 0.17818 0.55928 0.45435 0.0
C569 C 0.17625 0.53719 0.41039 0.0
C570 C 0.19997 0.58794 0.60571 0.0
C571 C 0.17756 0.58536 0.63245 0.0
C572 C 0.19589 0.57397 0.55883 0.0
C573 C 0.16931 0.55723 0.53786 0.0
C574 C 0.14661 0.55732 0.56396 0.0
C575 C 0.15067 0.57124 0.61066 0.0
H576 H 0.63926 0.10384 0.9292 0.0
H577 H 0.68199 0.97423 0.88314 0.0
H578 H 0.64315 0.06827 0.00734 0.0
H579 H 0.68565 0.93869 0.96125 0.0
H580 H 0.63303 0.97101 0.13211 0.0
H581 H 0.62594 0.99715 0.05106 0.0
H582 H 0.71239 0.9594 0.03873 0.0
H583 H 0.71961 0.93277 0.1202 0.0
C584 C 0.64907 0.06744 0.9355 0.0
C585 C 0.66025 0.0419 0.89984 0.0
C586 C 0.65126 0.04702 0.98028 0.0
C587 C 0.66481 1.00076 0.99044 0.0
C588 C 0.67538 0.97465 0.95457 0.0
C589 C 0.67304 0.99489 0.90973 0.0
C590 C 0.65055 0.96786 0.11218 0.0
C591 C 0.67703 0.95021 0.13289 0.0
C592 C 0.64646 0.98309 0.06573 0.0
C593 C 0.66865 0.9808 0.03869 0.0
C594 C 0.69483 0.96132 0.0587 0.0
C595 C 0.699 0.94622 0.10539 0.0
H596 H 0.33825 0.97378 0.61369 0.0
H597 H 0.39209 0.08775 0.56587 0.0
H598 H 0.33357 0.93425 0.53712 0.0
H599 H 0.38742 0.04814 0.48963 0.0
H600 H 0.39564 0.94082 0.37365 0.0
H601 H 0.4013 0.96715 0.45443 0.0
H602 H 0.31118 0.95841 0.4546 0.0
H603 H 0.3053 0.932 0.37302 0.0
C604 C 0.34937 0.99004 0.58706 0.0
C605 C 0.36567 0.0338 0.5959 0.0
C606 C 0.34648 0.96759 0.54319 0.0
C607 C 0.36016 0.98806 0.50755 0.0
C608 C 0.37689 0.03121 0.51666 0.0
C609 C 0.3795 0.05399 0.56027 0.0
C610 C 0.37697 0.9439 0.3909 0.0
C611 C 0.34993 0.93504 0.36662 0.0
C612 C 0.38027 0.95915 0.43717 0.0
C613 C 0.35667 0.9656 0.46049 0.0
C614 C 0.32974 0.95367 0.43736 0.0
C615 C 0.32638 0.93856 0.39071 0.0
H616 H 0.34582 0.05602 0.11641 0.0
H617 H 0.39535 0.93499 0.07064 0.0
H618 H 0.34309 0.09475 0.03946 0.0
H619 H 0.39237 0.97342 0.99398 0.0
H620 H 0.40071 0.07114 0.87101 0.0
H621 H 0.40762 0.04755 0.95281 0.0
H622 H 0.31918 0.07303 0.96027 0.0
H623 H 0.31219 0.09723 0.87826 0.0
C624 C 0.35646 0.03804 0.0902 0.0
C625 C 0.37082 0.9924 0.09965 0.0
C626 C 0.3547 0.06006 0.04607 0.0
C627 C 0.36746 0.0371 0.01071 0.0
C628 C 0.3826 0.99237 0.02067 0.0
C629 C 0.3842 0.97021 0.06459 0.0
C630 C 0.38274 0.07228 0.89012 0.0
C631 C 0.35578 0.0854 0.86787 0.0
C632 C 0.38673 0.05861 0.93698 0.0
C633 C 0.36389 0.05785 0.96278 0.0
C634 C 0.33722 0.07352 0.94131 0.0
C635 C 0.3332 0.08719 0.89428 0.0
H636 H 0.64662 0.11598 0.61737 0.0
H637 H 0.72952 0.04927 0.64073 0.0
H638 H 0.641 0.08723 0.53652 0.0
H639 H 0.72349 0.01923 0.56011 0.0
H640 H 0.6738 0.91386 0.44418 0.0
H641 H 0.68202 0.95205 0.52141 0.0
H642 H 0.66988 0.099 0.45937 0.0
H643 H 0.66244 0.06103 0.38179 0.0
C644 C 0.6638 0.09597 0.60483 0.0
C645 C 0.68855 0.08498 0.63492 0.0
C646 C 0.66057 0.07958 0.5588 0.0
C647 C 0.68174 0.05088 0.54259 0.0
C648 C 0.70689 0.04126 0.57215 0.0
C649 C 0.71042 0.05875 0.61793 0.0
C650 C 0.67257 0.95426 0.44706 0.0
C651 C 0.66728 0.98454 0.40715 0.0
C652 C 0.67759 0.97603 0.49108 0.0
C653 C 0.67679 0.02831 0.49592 0.0
C654 C 0.67069 0.05858 0.45623 0.0
C655 C 0.66636 0.03689 0.41208 0.0
loop_
_geom_bond_atom_site_label_1
_geom_bond_atom_site_label_2
_geom_bond_distance
_geom_bond_site_symmetry_2
_ccdc_geom_bond_type
Fe0 O2 1.918 . S
Fe0 O5 1.997 . S
Fe0 O6 2.002 . S
Fe0 O11 1.976 . S
Fe0 O14 1.996 . S
Fe1 O2 1.918 . S
Fe1 O9 1.997 . S
Fe1 O12 1.996 . S
Fe1 O16 1.976 . S
Fe1 O19 2.002 . S
O2 Fe0 1.918 . S
O2 Fe1 1.918 . S
O2 Fe3 1.918 . S
Fe3 O2 1.918 . S
Fe3 O4 2.002 . S
Fe3 O13 1.976 . S
Fe3 O17 1.996 . S
Fe3 O20 1.997 . S
O4 Fe3 2.002 . S
O4 C21 1.295 . S
O5 Fe0 1.997 . S
O5 C21 1.235 . S
O6 Fe0 2.002 . S
O6 C7 1.295 . S
C7 O6 1.295 . S
C7 O9 1.235 . S
C8 O13 1.287 . S
C8 O14 1.255 . S
O9 Fe1 1.997 . S
O9 C7 1.235 . S
C10 O16 1.287 . S
C10 O17 1.255 . S
O11 Fe0 1.976 . S
O11 C18 1.287 . S
O12 Fe1 1.996 . S
O12 C18 1.255 . S
O13 Fe3 1.976 . S
O13 C8 1.287 . S
O14 Fe0 1.996 . S
O14 C8 1.255 . S
C15 O19 1.295 . S
C15 O20 1.235 . S
O16 Fe1 1.976 . S
O16 C10 1.287 . S
O17 Fe3 1.996 . S
O17 C10 1.255 . S
C18 O11 1.287 . S
C18 O12 1.255 . S
O19 Fe1 2.002 . S
O19 C15 1.295 . S
O20 Fe3 1.997 . S
O20 C15 1.235 . S
C21 O4 1.295 . S
C21 O5 1.235 . S
Fe22 O24 1.918 . S
Fe22 O27 1.997 . S
Fe22 O28 2.002 . S
Fe22 O33 1.976 . S
Fe22 O36 1.996 . S
Fe23 O24 1.918 . S
Fe23 O31 1.997 . S
Fe23 O34 1.996 . S
Fe23 O38 1.976 . S
Fe23 O41 2.002 . S
O24 Fe22 1.918 . S
O24 Fe23 1.918 . S
O24 Fe25 1.918 . S
Fe25 O24 1.918 . S
Fe25 O26 2.002 . S
Fe25 O35 1.976 . S
Fe25 O39 1.996 . S
Fe25 O42 1.997 . S
O26 Fe25 2.002 . S
O26 C43 1.295 . S
O27 Fe22 1.997 . S
O27 C43 1.235 . S
O28 Fe22 2.002 . S
O28 C29 1.295 . S
C29 O28 1.295 . S
C29 O31 1.235 . S
C30 O35 1.287 . S
C30 O36 1.255 . S
O31 Fe23 1.997 . S
O31 C29 1.235 . S
C32 O38 1.287 . S
C32 O39 1.255 . S
O33 Fe22 1.976 . S
O33 C40 1.287 . S
O34 Fe23 1.996 . S
O34 C40 1.255 . S
O35 Fe25 1.976 . S
O35 C30 1.287 . S
O36 Fe22 1.996 . S
O36 C30 1.255 . S
C37 O41 1.295 . S
C37 O42 1.235 . S
O38 Fe23 1.976 . S
O38 C32 1.287 . S
O39 Fe25 1.996 . S
O39 C32 1.255 . S
C40 O33 1.287 . S
C40 O34 1.255 . S
O41 Fe23 2.002 . S
O41 C37 1.295 . S
O42 Fe25 1.997 . S
O42 C37 1.235 . S
C43 O26 1.295 . S
C43 O27 1.235 . S
Fe44 O46 1.918 . S
Fe44 O49 1.997 . S
Fe44 O50 2.002 . S
Fe44 O55 1.976 . S
Fe44 O58 1.996 . S
Fe45 O46 1.918 . S
Fe45 O53 1.997 . S
Fe45 O56 1.996 . S
Fe45 O60 1.976 . S
Fe45 O63 2.002 . S
O46 Fe44 1.918 . S
O46 Fe45 1.918 . S
O46 Fe47 1.918 . S
Fe47 O46 1.918 . S
Fe47 O48 2.002 . S
Fe47 O57 1.976 . S
Fe47 O61 1.996 . S
Fe47 O64 1.997 . S
O48 Fe47 2.002 . S
O48 C65 1.295 . S
O49 Fe44 1.997 . S
O49 C65 1.235 . S
O50 Fe44 2.002 . S
O50 C51 1.295 . S
C51 O50 1.295 . S
C51 O53 1.235 . S
C52 O57 1.287 . S
C52 O58 1.255 . S
O53 Fe45 1.997 . S
O53 C51 1.235 . S
C54 O60 1.287 . S
C54 O61 1.255 . S
O55 Fe44 1.976 . S
O55 C62 1.287 . S
O56 Fe45 1.996 . S
O56 C62 1.255 . S
O57 Fe47 1.976 . S
O57 C52 1.287 . S
O58 Fe44 1.996 . S
O58 C52 1.255 . S
C59 O63 1.295 . S
C59 O64 1.235 . S
O60 Fe45 1.976 . S
O60 C54 1.287 . S
O61 Fe47 1.996 . S
O61 C54 1.255 . S
C62 O55 1.287 . S
C62 O56 1.255 . S
O63 Fe45 2.002 . S
O63 C59 1.295 . S
O64 Fe47 1.997 . S
O64 C59 1.235 . S
C65 O48 1.295 . S
C65 O49 1.235 . S
Fe66 O68 1.918 . S
Fe66 O71 1.997 . S
Fe66 O72 2.002 . S
Fe66 O77 1.976 . S
Fe66 O80 1.996 . S
Fe67 O68 1.918 . S
Fe67 O75 1.997 . S
Fe67 O78 1.996 . S
Fe67 O82 1.976 . S
Fe67 O85 2.002 . S
O68 Fe66 1.918 . S
O68 Fe67 1.918 . S
O68 Fe69 1.918 . S
Fe69 O68 1.918 . S
Fe69 O70 2.002 . S
Fe69 O79 1.976 . S
Fe69 O83 1.996 . S
Fe69 O86 1.997 . S
O70 Fe69 2.002 . S
O70 C87 1.295 . S
O71 Fe66 1.997 . S
O71 C87 1.235 . S
O72 Fe66 2.002 . S
O72 C73 1.295 . S
C73 O72 1.295 . S
C73 O75 1.235 . S
C74 O79 1.287 . S
C74 O80 1.255 . S
O75 Fe67 1.997 . S
O75 C73 1.235 . S
C76 O82 1.287 . S
C76 O83 1.255 . S
O77 Fe66 1.976 . S
O77 C84 1.287 . S
O78 Fe67 1.996 . S
O78 C84 1.255 . S
O79 Fe69 1.976 . S
O79 C74 1.287 . S
O80 Fe66 1.996 . S
O80 C74 1.255 . S
C81 O85 1.295 . S
C81 O86 1.235 . S
O82 Fe67 1.976 . S
O82 C76 1.287 . S
O83 Fe69 1.996 . S
O83 C76 1.255 . S
C84 O77 1.287 . S
C84 O78 1.255 . S
O85 Fe67 2.002 . S
O85 C81 1.295 . S
O86 Fe69 1.997 . S
O86 C81 1.235 . S
C87 O70 1.295 . S
C87 O71 1.235 . S
Fe88 O90 1.918 . S
Fe88 O93 1.997 . S
Fe88 O94 2.002 . S
Fe88 O99 1.976 . S
Fe88 O102 1.996 . S
Fe89 O90 1.918 . S
Fe89 O97 1.997 . S
Fe89 O100 1.996 . S
Fe89 O104 1.976 . S
Fe89 O107 2.002 . S
O90 Fe88 1.918 . S
O90 Fe89 1.918 . S
O90 Fe91 1.918 . S
Fe91 O90 1.918 . S
Fe91 O92 2.002 . S
Fe91 O101 1.976 . S
Fe91 O105 1.996 . S
Fe91 O108 1.997 . S
O92 Fe91 2.002 . S
O92 C109 1.295 . S
O93 Fe88 1.997 . S
O93 C109 1.235 . S
O94 Fe88 2.002 . S
O94 C95 1.295 . S
C95 O94 1.295 . S
C95 O97 1.235 . S
C96 O101 1.287 . S
C96 O102 1.255 . S
O97 Fe89 1.997 . S
O97 C95 1.235 . S
C98 O104 1.287 . S
C98 O105 1.255 . S
O99 Fe88 1.976 . S
O99 C106 1.287 . S
O100 Fe89 1.996 . S
O100 C106 1.255 . S
O101 Fe91 1.976 . S
O101 C96 1.287 . S
O102 Fe88 1.996 . S
O102 C96 1.255 . S
C103 O107 1.295 . S
C103 O108 1.235 . S
O104 Fe89 1.976 . S
O104 C98 1.287 . S
O105 Fe91 1.996 . S
O105 C98 1.255 . S
C106 O99 1.287 . S
C106 O100 1.255 . S
O107 Fe89 2.002 . S
O107 C103 1.295 . S
O108 Fe91 1.997 . S
O108 C103 1.235 . S
C109 O92 1.295 . S
C109 O93 1.235 . S
Fe110 O112 1.918 . S
Fe110 O115 1.997 . S
Fe110 O116 2.002 . S
Fe110 O121 1.976 . S
Fe110 O124 1.996 . S
Fe111 O112 1.918 . S
Fe111 O119 1.997 . S
Fe111 O122 1.996 . S
Fe111 O126 1.976 . S
Fe111 O129 2.002 . S
O112 Fe110 1.918 . S
O112 Fe111 1.918 . S
O112 Fe113 1.918 . S
Fe113 O112 1.918 . S
Fe113 O114 2.002 . S
Fe113 O123 1.976 . S
Fe113 O127 1.996 . S
Fe113 O130 1.997 . S
O114 Fe113 2.002 . S
O114 C131 1.295 . S
O115 Fe110 1.997 . S
O115 C131 1.235 . S
O116 Fe110 2.002 . S
O116 C117 1.295 . S
C117 O116 1.295 . S
C117 O119 1.235 . S
C118 O123 1.287 . S
C118 O124 1.255 . S
O119 Fe111 1.997 . S
O119 C117 1.235 . S
C120 O126 1.287 . S
C120 O127 1.255 . S
O121 Fe110 1.976 . S
O121 C128 1.287 . S
O122 Fe111 1.996 . S
O122 C128 1.255 . S
O123 Fe113 1.976 . S
O123 C118 1.287 . S
O124 Fe110 1.996 . S
O124 C118 1.255 . S
C125 O129 1.295 . S
C125 O130 1.235 . S
O126 Fe111 1.976 . S
O126 C120 1.287 . S
O127 Fe113 1.996 . S
O127 C120 1.255 . S
C128 O121 1.287 . S
C128 O122 1.255 . S
O129 Fe111 2.002 . S
O129 C125 1.295 . S
O130 Fe113 1.997 . S
O130 C125 1.235 . S
C131 O114 1.295 . S
C131 O115 1.235 . S
Fe132 O134 1.918 . S
Fe132 O137 1.997 . S
Fe132 O138 2.002 . S
Fe132 O143 1.976 . S
Fe132 O146 1.996 . S
Fe133 O134 1.918 . S
Fe133 O141 1.997 . S
Fe133 O144 1.996 . S
Fe133 O148 1.976 . S
Fe133 O151 2.002 . S
O134 Fe132 1.918 . S
O134 Fe133 1.918 . S
O134 Fe135 1.918 . S
Fe135 O134 1.918 . S
Fe135 O136 2.002 . S
Fe135 O145 1.976 . S
Fe135 O149 1.996 . S
Fe135 O152 1.997 . S
O136 Fe135 2.002 . S
O136 C153 1.295 . S
O137 Fe132 1.997 . S
O137 C153 1.235 . S
O138 Fe132 2.002 . S
O138 C139 1.295 . S
C139 O138 1.295 . S
C139 O141 1.235 . S
C140 O145 1.287 . S
C140 O146 1.255 . S
O141 Fe133 1.997 . S
O141 C139 1.235 . S
C142 O148 1.287 . S
C142 O149 1.255 . S
O143 Fe132 1.976 . S
O143 C150 1.287 . S
O144 Fe133 1.996 . S
O144 C150 1.255 . S
O145 Fe135 1.976 . S
O145 C140 1.287 . S
O146 Fe132 1.996 . S
O146 C140 1.255 . S
C147 O151 1.295 . S
C147 O152 1.235 . S
O148 Fe133 1.976 . S
O148 C142 1.287 . S
O149 Fe135 1.996 . S
O149 C142 1.255 . S
C150 O143 1.287 . S
C150 O144 1.255 . S
O151 Fe133 2.002 . S
O151 C147 1.295 . S
O152 Fe135 1.997 . S
O152 C147 1.235 . S
C153 O136 1.295 . S
C153 O137 1.235 . S
Fe154 O156 1.918 . S
Fe154 O159 1.997 . S
Fe154 O160 2.002 . S
Fe154 O165 1.976 . S
Fe154 O168 1.996 . S
Fe155 O156 1.918 . S
Fe155 O163 1.997 . S
Fe155 O166 1.996 . S
Fe155 O170 1.976 . S
Fe155 O173 2.002 . S
O156 Fe154 1.918 . S
O156 Fe155 1.918 . S
O156 Fe157 1.918 . S
Fe157 O156 1.918 . S
Fe157 O158 2.002 . S
Fe157 O167 1.976 . S
Fe157 O171 1.996 . S
Fe157 O174 1.997 . S
O158 Fe157 2.002 . S
O158 C175 1.295 . S
O159 Fe154 1.997 . S
O159 C175 1.235 . S
O160 Fe154 2.002 . S
O160 C161 1.295 . S
C161 O160 1.295 . S
C161 O163 1.235 . S
C162 O167 1.287 . S
C162 O168 1.255 . S
O163 Fe155 1.997 . S
O163 C161 1.235 . S
C164 O170 1.287 . S
C164 O171 1.255 . S
O165 Fe154 1.976 . S
O165 C172 1.287 . S
O166 Fe155 1.996 . S
O166 C172 1.255 . S
O167 Fe157 1.976 . S
O167 C162 1.287 . S
O168 Fe154 1.996 . S
O168 C162 1.255 . S
C169 O173 1.295 . S
C169 O174 1.235 . S
O170 Fe155 1.976 . S
O170 C164 1.287 . S
O171 Fe157 1.996 . S
O171 C164 1.255 . S
C172 O165 1.287 . S
C172 O166 1.255 . S
O173 Fe155 2.002 . S
O173 C169 1.295 . S
O174 Fe157 1.997 . S
O174 C169 1.235 . S
C175 O158 1.295 . S
C175 O159 1.235 . S
H176 C184 0.950 . S
H177 C189 0.950 . S
H178 C186 0.950 . S
H179 C188 0.950 . S
H180 C190 0.950 . S
H181 C192 0.950 . S
H182 C194 0.950 . S
H183 C195 0.950 . S
C184 H176 0.950 . S
C184 C185 1.386 . S
C184 C186 1.391 . S
C185 C184 1.386 . S
C185 C189 1.393 . S
C186 H178 0.950 . S
C186 C184 1.391 . S
C186 C187 1.400 . S
C187 C186 1.400 . S
C187 C188 1.398 . S
C187 C193 1.491 . S
C188 H179 0.950 . S
C188 C187 1.398 . S
C188 C189 1.391 . S
C189 H177 0.950 . S
C189 C185 1.393 . S
C189 C188 1.391 . S
C190 H180 0.950 . S
C190 C191 1.386 . S
C190 C192 1.391 . S
C191 C190 1.386 . S
C191 C195 1.393 . S
C192 H181 0.950 . S
C192 C190 1.391 . S
C192 C193 1.400 . S
C193 C187 1.491 . S
C193 C192 1.400 . S
C193 C194 1.398 . S
C194 H182 0.950 . S
C194 C193 1.398 . S
C194 C195 1.391 . S
C195 H183 0.950 . S
C195 C191 1.393 . S
C195 C194 1.391 . S
H196 C204 0.950 . S
H197 C209 0.950 . S
H198 C206 0.950 1_554 S
H199 C208 0.950 . S
H200 C210 0.950 . S
H201 C212 0.950 1_556 S
H202 C214 0.950 . S
H203 C215 0.950 . S
C204 H196 0.950 . S
C204 C205 1.386 . S
C204 C206 1.391 . S
C205 C204 1.386 . S
C205 C209 1.393 . S
C206 H198 0.950 1_556 S
C206 C204 1.391 . S
C206 C207 1.400 . S
C207 C206 1.400 . S
C207 C208 1.398 . S
C207 C213 1.491 1_556 S
C208 H199 0.950 . S
C208 C207 1.398 . S
C208 C209 1.391 . S
C209 H197 0.950 . S
C209 C205 1.393 . S
C209 C208 1.391 . S
C210 H200 0.950 . S
C210 C211 1.386 . S
C210 C212 1.391 . S
C211 C210 1.386 . S
C211 C215 1.393 . S
C212 H201 0.950 1_554 S
C212 C210 1.391 . S
C212 C213 1.400 . S
C213 C207 1.491 1_554 S
C213 C212 1.400 . S
C213 C214 1.398 . S
C214 H202 0.950 . S
C214 C213 1.398 . S
C214 C215 1.391 . S
C215 H203 0.950 . S
C215 C211 1.393 . S
C215 C214 1.391 . S
H216 C224 0.950 . S
H217 C229 0.950 . S
H218 C226 0.950 . S
H219 C228 0.950 . S
H220 C230 0.950 . S
H221 C232 0.950 . S
H222 C234 0.950 . S
H223 C235 0.950 . S
C224 H216 0.950 . S
C224 C225 1.386 . S
C224 C226 1.391 . S
C225 C224 1.386 . S
C225 C229 1.393 . S
C226 H218 0.950 . S
C226 C224 1.391 . S
C226 C227 1.400 . S
C227 C226 1.400 . S
C227 C228 1.398 . S
C227 C233 1.491 . S
C228 H219 0.950 . S
C228 C227 1.398 . S
C228 C229 1.391 . S
C229 H217 0.950 . S
C229 C225 1.393 . S
C229 C228 1.391 . S
C230 H220 0.950 . S
C230 C231 1.386 . S
C230 C232 1.391 . S
C231 C230 1.386 . S
C231 C235 1.393 . S
C232 H221 0.950 . S
C232 C230 1.391 . S
C232 C233 1.400 . S
C233 C227 1.491 . S
C233 C232 1.400 . S
C233 C234 1.398 . S
C234 H222 0.950 . S
C234 C233 1.398 . S
C234 C235 1.391 . S
C235 H223 0.950 . S
C235 C231 1.393 . S
C235 C234 1.391 . S
H236 C244 0.950 . S
H237 C249 0.950 . S
H238 C246 0.950 . S
H239 C248 0.950 . S
H240 C250 0.950 . S
H241 C252 0.950 . S
H242 C254 0.950 . S
H243 C255 0.950 . S
C244 H236 0.950 . S
C244 C245 1.386 . S
C244 C246 1.391 . S
C245 C244 1.386 . S
C245 C249 1.393 . S
C246 H238 0.950 . S
C246 C244 1.391 . S
C246 C247 1.400 . S
C247 C246 1.400 . S
C247 C248 1.398 . S
C247 C253 1.491 1_554 S
C248 H239 0.950 . S
C248 C247 1.398 . S
C248 C249 1.391 . S
C249 H237 0.950 . S
C249 C245 1.393 . S
C249 C248 1.391 . S
C250 H240 0.950 . S
C250 C251 1.386 . S
C250 C252 1.391 . S
C251 C250 1.386 . S
C251 C255 1.393 . S
C252 H241 0.950 . S
C252 C250 1.391 . S
C252 C253 1.400 . S
C253 C247 1.491 1_556 S
C253 C252 1.400 . S
C253 C254 1.398 . S
C254 H242 0.950 . S
C254 C253 1.398 . S
C254 C255 1.391 . S
C255 H243 0.950 . S
C255 C251 1.393 . S
C255 C254 1.391 . S
H256 C264 0.950 . S
H257 C269 0.950 1_565 S
H258 C266 0.950 . S
H259 C268 0.950 . S
H260 C270 0.950 . S
H261 C272 0.950 . S
H262 C274 0.950 . S
H263 C275 0.950 . S
C264 H256 0.950 . S
C264 C265 1.386 . S
C264 C266 1.391 . S
C265 C264 1.386 . S
C265 C269 1.393 . S
C266 H258 0.950 . S
C266 C264 1.391 . S
C266 C267 1.400 . S
C267 C266 1.400 . S
C267 C268 1.398 . S
C267 C273 1.491 . S
C268 H259 0.950 . S
C268 C267 1.398 . S
C268 C269 1.391 . S
C269 H257 0.950 1_545 S
C269 C265 1.393 . S
C269 C268 1.391 . S
C270 H260 0.950 . S
C270 C271 1.386 . S
C270 C272 1.391 . S
C271 C270 1.386 . S
C271 C275 1.393 . S
C272 H261 0.950 . S
C272 C270 1.391 . S
C272 C273 1.400 . S
C273 C267 1.491 . S
C273 C272 1.400 . S
C273 C274 1.398 . S
C274 H262 0.950 . S
C274 C273 1.398 . S
C274 C275 1.391 . S
C275 H263 0.950 . S
C275 C271 1.393 . S
C275 C274 1.391 . S
H276 C284 0.950 . S
H277 C289 0.950 1_565 S
H278 C286 0.950 . S
H279 C288 0.950 . S
H280 C290 0.950 . S
H281 C292 0.950 . S
H282 C294 0.950 . S
H283 C295 0.950 . S
C284 H276 0.950 . S
C284 C285 1.386 . S
C284 C286 1.391 . S
C285 C284 1.386 . S
C285 C289 1.393 . S
C286 H278 0.950 . S
C286 C284 1.391 . S
C286 C287 1.400 . S
C287 C286 1.400 . S
C287 C288 1.398 . S
C287 C293 1.491 . S
C288 H279 0.950 . S
C288 C287 1.398 . S
C288 C289 1.391 . S
C289 H277 0.950 1_545 S
C289 C285 1.393 . S
C289 C288 1.391 . S
C290 H280 0.950 . S
C290 C291 1.386 . S
C290 C292 1.391 . S
C291 C290 1.386 . S
C291 C295 1.393 . S
C292 H281 0.950 . S
C292 C290 1.391 . S
C292 C293 1.400 . S
C293 C287 1.491 . S
C293 C292 1.400 . S
C293 C294 1.398 . S
C294 H282 0.950 . S
C294 C293 1.398 . S
C294 C295 1.391 . S
C295 H283 0.950 . S
C295 C291 1.393 . S
C295 C294 1.391 . S
H296 C304 0.950 . S
H297 C309 0.950 . S
H298 C306 0.950 . S
H299 C308 0.950 . S
H300 C310 0.950 . S
H301 C312 0.950 . S
H302 C314 0.950 . S
H303 C315 0.950 . S
C304 H296 0.950 . S
C304 C305 1.386 . S
C304 C306 1.391 . S
C305 C304 1.386 . S
C305 C309 1.393 . S
C306 H298 0.950 . S
C306 C304 1.391 . S
C306 C307 1.400 . S
C307 C306 1.400 . S
C307 C308 1.398 . S
C307 C313 1.491 . S
C308 H299 0.950 . S
C308 C307 1.398 . S
C308 C309 1.391 . S
C309 H297 0.950 . S
C309 C305 1.393 . S
C309 C308 1.391 . S
C310 H300 0.950 . S
C310 C311 1.386 . S
C310 C312 1.391 . S
C311 C310 1.386 . S
C311 C315 1.393 . S
C312 H301 0.950 . S
C312 C310 1.391 . S
C312 C313 1.400 . S
C313 C307 1.491 . S
C313 C312 1.400 . S
C313 C314 1.398 . S
C314 H302 0.950 . S
C314 C313 1.398 . S
C314 C315 1.391 . S
C315 H303 0.950 . S
C315 C311 1.393 . S
C315 C314 1.391 . S
H316 C324 0.950 1_545 S
H317 C329 0.950 . S
H318 C326 0.950 . S
H319 C328 0.950 . S
H320 C330 0.950 . S
H321 C332 0.950 . S
H322 C334 0.950 . S
H323 C335 0.950 . S
C324 H316 0.950 1_565 S
C324 C325 1.386 . S
C324 C326 1.391 . S
C325 C324 1.386 . S
C325 C329 1.393 . S
C326 H318 0.950 . S
C326 C324 1.391 . S
C326 C327 1.400 . S
C327 C326 1.400 . S
C327 C328 1.398 . S
C327 C333 1.491 . S
C328 H319 0.950 . S
C328 C327 1.398 . S
C328 C329 1.391 . S
C329 H317 0.950 . S
C329 C325 1.393 . S
C329 C328 1.391 . S
C330 H320 0.950 . S
C330 C331 1.386 . S
C330 C332 1.391 . S
C331 C330 1.386 . S
C331 C335 1.393 . S
C332 H321 0.950 . S
C332 C330 1.391 . S
C332 C333 1.400 . S
C333 C327 1.491 . S
C333 C332 1.400 . S
C333 C334 1.398 . S
C334 H322 0.950 . S
C334 C333 1.398 . S
C334 C335 1.391 . S
C335 H323 0.950 . S
C335 C331 1.393 . S
C335 C334 1.391 . S
H336 C344 0.950 . S
H337 C349 0.950 . S
H338 C346 0.950 . S
H339 C348 0.950 . S
H340 C350 0.950 . S
H341 C352 0.950 . S
H342 C354 0.950 . S
H343 C355 0.950 . S
C344 H336 0.950 . S
C344 C345 1.386 . S
C344 C346 1.391 . S
C345 C344 1.386 . S
C345 C349 1.393 . S
C346 H338 0.950 . S
C346 C344 1.391 . S
C346 C347 1.400 . S
C347 C346 1.400 . S
C347 C348 1.398 . S
C347 C353 1.491 . S
C348 H339 0.950 . S
C348 C347 1.398 . S
C348 C349 1.391 . S
C349 H337 0.950 . S
C349 C345 1.393 . S
C349 C348 1.391 . S
C350 H340 0.950 . S
C350 C351 1.386 . S
C350 C352 1.391 . S
C351 C350 1.386 . S
C351 C355 1.393 . S
C352 H341 0.950 . S
C352 C350 1.391 . S
C352 C353 1.400 . S
C353 C347 1.491 . S
C353 C352 1.400 . S
C353 C354 1.398 . S
C354 H342 0.950 . S
C354 C353 1.398 . S
C354 C355 1.391 . S
C355 H343 0.950 . S
C355 C351 1.393 . S
C355 C354 1.391 . S
H356 C364 0.950 . S
H357 C369 0.950 . S
H358 C366 0.950 . S
H359 C368 0.950 . S
H360 C370 0.950 . S
H361 C372 0.950 . S
H362 C374 0.950 . S
H363 C375 0.950 . S
C364 H356 0.950 . S
C364 C365 1.386 . S
C364 C366 1.391 . S
C365 C364 1.386 . S
C365 C369 1.393 . S
C366 H358 0.950 . S
C366 C364 1.391 . S
C366 C367 1.400 . S
C367 C366 1.400 . S
C367 C368 1.398 . S
C367 C373 1.491 . S
C368 H359 0.950 . S
C368 C367 1.398 . S
C368 C369 1.391 . S
C369 H357 0.950 . S
C369 C365 1.393 . S
C369 C368 1.391 . S
C370 H360 0.950 . S
C370 C371 1.386 . S
C370 C372 1.391 . S
C371 C370 1.386 . S
C371 C375 1.393 . S
C372 H361 0.950 . S
C372 C370 1.391 . S
C372 C373 1.400 . S
C373 C367 1.491 . S
C373 C372 1.400 . S
C373 C374 1.398 . S
C374 H362 0.950 . S
C374 C373 1.398 . S
C374 C375 1.391 . S
C375 H363 0.950 . S
C375 C371 1.393 . S
C375 C374 1.391 . S
H376 C384 0.950 . S
H377 C389 0.950 . S
H378 C386 0.950 . S
H379 C388 0.950 . S
H380 C390 0.950 . S
H381 C392 0.950 . S
H382 C394 0.950 . S
H383 C395 0.950 . S
C384 H376 0.950 . S
C384 C385 1.386 . S
C384 C386 1.391 . S
C385 C384 1.386 . S
C385 C389 1.393 . S
C386 H378 0.950 . S
C386 C384 1.391 . S
C386 C387 1.400 . S
C387 C386 1.400 . S
C387 C388 1.398 . S
C387 C393 1.491 . S
C388 H379 0.950 . S
C388 C387 1.398 . S
C388 C389 1.391 . S
C389 H377 0.950 . S
C389 C385 1.393 . S
C389 C388 1.391 . S
C390 H380 0.950 . S
C390 C391 1.386 . S
C390 C392 1.391 . S
C391 C390 1.386 . S
C391 C395 1.393 . S
C392 H381 0.950 . S
C392 C390 1.391 . S
C392 C393 1.400 . S
C393 C387 1.491 . S
C393 C392 1.400 . S
C393 C394 1.398 . S
C394 H382 0.950 . S
C394 C393 1.398 . S
C394 C395 1.391 . S
C395 H383 0.950 . S
C395 C391 1.393 . S
C395 C394 1.391 . S
H396 C404 0.950 . S
H397 C409 0.950 . S
H398 C406 0.950 . S
H399 C408 0.950 . S
H400 C410 0.950 . S
H401 C412 0.950 . S
H402 C414 0.950 . S
H403 C415 0.950 . S
C404 H396 0.950 . S
C404 C405 1.386 . S
C404 C406 1.391 . S
C405 C404 1.386 . S
C405 C409 1.393 . S
C406 H398 0.950 . S
C406 C404 1.391 . S
C406 C407 1.400 . S
C407 C406 1.400 . S
C407 C408 1.398 . S
C407 C413 1.491 . S
C408 H399 0.950 . S
C408 C407 1.398 . S
C408 C409 1.391 . S
C409 H397 0.950 . S
C409 C405 1.393 . S
C409 C408 1.391 . S
C410 H400 0.950 . S
C410 C411 1.386 . S
C410 C412 1.391 . S
C411 C410 1.386 . S
C411 C415 1.393 . S
C412 H401 0.950 . S
C412 C410 1.391 . S
C412 C413 1.400 . S
C413 C407 1.491 . S
C413 C412 1.400 . S
C413 C414 1.398 . S
C414 H402 0.950 . S
C414 C413 1.398 . S
C414 C415 1.391 . S
C415 H403 0.950 . S
C415 C411 1.393 . S
C415 C414 1.391 . S
H416 C424 0.950 . S
H417 C429 0.950 . S
H418 C426 0.950 . S
H419 C428 0.950 . S
H420 C430 0.950 . S
H421 C432 0.950 . S
H422 C434 0.950 . S
H423 C435 0.950 . S
C424 H416 0.950 . S
C424 C425 1.386 . S
C424 C426 1.391 . S
C425 C424 1.386 . S
C425 C429 1.393 . S
C426 H418 0.950 . S
C426 C424 1.391 . S
C426 C427 1.400 . S
C427 C426 1.400 . S
C427 C428 1.398 . S
C427 C433 1.491 1_455 S
C428 H419 0.950 . S
C428 C427 1.398 . S
C428 C429 1.391 . S
C429 H417 0.950 . S
C429 C425 1.393 . S
C429 C428 1.391 . S
C430 H420 0.950 . S
C430 C431 1.386 . S
C430 C432 1.391 . S
C431 C430 1.386 . S
C431 C435 1.393 . S
C432 H421 0.950 . S
C432 C430 1.391 . S
C432 C433 1.400 . S
C433 C427 1.491 1_655 S
C433 C432 1.400 . S
C433 C434 1.398 . S
C434 H422 0.950 . S
C434 C433 1.398 . S
C434 C435 1.391 . S
C435 H423 0.950 . S
C435 C431 1.393 . S
C435 C434 1.391 . S
H436 C444 0.950 . S
H437 C449 0.950 . S
H438 C446 0.950 . S
H439 C448 0.950 . S
H440 C450 0.950 . S
H441 C452 0.950 . S
H442 C454 0.950 . S
H443 C455 0.950 . S
C444 H436 0.950 . S
C444 C445 1.386 . S
C444 C446 1.391 . S
C445 C444 1.386 . S
C445 C449 1.393 . S
C446 H438 0.950 . S
C446 C444 1.391 . S
C446 C447 1.400 . S
C447 C446 1.400 . S
C447 C448 1.398 . S
C447 C453 1.491 1_455 S
C448 H439 0.950 . S
C448 C447 1.398 . S
C448 C449 1.391 . S
C449 H437 0.950 . S
C449 C445 1.393 . S
C449 C448 1.391 . S
C450 H440 0.950 . S
C450 C451 1.386 . S
C450 C452 1.391 . S
C451 C450 1.386 . S
C451 C455 1.393 . S
C452 H441 0.950 . S
C452 C450 1.391 . S
C452 C453 1.400 . S
C453 C447 1.491 1_655 S
C453 C452 1.400 . S
C453 C454 1.398 . S
C454 H442 0.950 . S
C454 C453 1.398 . S
C454 C455 1.391 . S
C455 H443 0.950 . S
C455 C451 1.393 . S
C455 C454 1.391 . S
H456 C464 0.950 . S
H457 C469 0.950 . S
H458 C466 0.950 . S
H459 C468 0.950 . S
H460 C470 0.950 . S
H461 C472 0.950 . S
H462 C474 0.950 . S
H463 C475 0.950 . S
C464 H456 0.950 . S
C464 C465 1.386 . S
C464 C466 1.391 . S
C465 C464 1.386 . S
C465 C469 1.393 . S
C466 H458 0.950 . S
C466 C464 1.391 . S
C466 C467 1.400 . S
C467 C466 1.400 . S
C467 C468 1.398 . S
C467 C473 1.491 . S
C468 H459 0.950 . S
C468 C467 1.398 . S
C468 C469 1.391 . S
C469 H457 0.950 . S
C469 C465 1.393 . S
C469 C468 1.391 . S
C470 H460 0.950 . S
C470 C471 1.386 . S
C470 C472 1.391 . S
C471 C470 1.386 . S
C471 C475 1.393 . S
C472 H461 0.950 . S
C472 C470 1.391 . S
C472 C473 1.400 . S
C473 C467 1.491 . S
C473 C472 1.400 . S
C473 C474 1.398 . S
C474 H462 0.950 . S
C474 C473 1.398 . S
C474 C475 1.391 . S
C475 H463 0.950 . S
C475 C471 1.393 . S
C475 C474 1.391 . S
H476 C484 0.950 . S
H477 C489 0.950 . S
H478 C486 0.950 . S
H479 C488 0.950 . S
H480 C490 0.950 . S
H481 C492 0.950 . S
H482 C494 0.950 . S
H483 C495 0.950 . S
C484 H476 0.950 . S
C484 C485 1.386 . S
C484 C486 1.391 . S
C485 C484 1.386 . S
C485 C489 1.393 . S
C486 H478 0.950 . S
C486 C484 1.391 . S
C486 C487 1.400 . S
C487 C486 1.400 . S
C487 C488 1.398 . S
C487 C493 1.491 . S
C488 H479 0.950 . S
C488 C487 1.398 . S
C488 C489 1.391 . S
C489 H477 0.950 . S
C489 C485 1.393 . S
C489 C488 1.391 . S
C490 H480 0.950 . S
C490 C491 1.386 . S
C490 C492 1.391 . S
C491 C490 1.386 . S
C491 C495 1.393 . S
C492 H481 0.950 . S
C492 C490 1.391 . S
C492 C493 1.400 . S
C493 C487 1.491 . S
C493 C492 1.400 . S
C493 C494 1.398 . S
C494 H482 0.950 . S
C494 C493 1.398 . S
C494 C495 1.391 . S
C495 H483 0.950 . S
C495 C491 1.393 . S
C495 C494 1.391 . S
H496 C504 0.950 . S
H497 C509 0.950 . S
H498 C506 0.950 . S
H499 C508 0.950 . S
H500 C510 0.950 . S
H501 C512 0.950 . S
H502 C514 0.950 . S
H503 C515 0.950 . S
C504 H496 0.950 . S
C504 C505 1.386 . S
C504 C506 1.391 1_556 S
C505 C504 1.386 . S
C505 C509 1.393 . S
C506 H498 0.950 . S
C506 C504 1.391 1_554 S
C506 C507 1.400 . S
C507 C506 1.400 . S
C507 C508 1.398 1_554 S
C507 C513 1.491 . S
C508 H499 0.950 . S
C508 C507 1.398 1_556 S
C508 C509 1.391 . S
C509 H497 0.950 . S
C509 C505 1.393 . S
C509 C508 1.391 . S
C510 H500 0.950 . S
C510 C511 1.386 . S
C510 C512 1.391 . S
C511 C510 1.386 . S
C511 C515 1.393 . S
C512 H501 0.950 . S
C512 C510 1.391 . S
C512 C513 1.400 . S
C513 C507 1.491 . S
C513 C512 1.400 . S
C513 C514 1.398 . S
C514 H502 0.950 . S
C514 C513 1.398 . S
C514 C515 1.391 . S
C515 H503 0.950 . S
C515 C511 1.393 . S
C515 C514 1.391 . S
H516 C524 0.950 . S
H517 C529 0.950 . S
H518 C526 0.950 . S
H519 C528 0.950 . S
H520 C530 0.950 . S
H521 C532 0.950 . S
H522 C534 0.950 . S
H523 C535 0.950 . S
C524 H516 0.950 . S
C524 C525 1.386 . S
C524 C526 1.391 . S
C525 C524 1.386 . S
C525 C529 1.393 . S
C526 H518 0.950 . S
C526 C524 1.391 . S
C526 C527 1.400 . S
C527 C526 1.400 . S
C527 C528 1.398 . S
C527 C533 1.491 . S
C528 H519 0.950 . S
C528 C527 1.398 . S
C528 C529 1.391 . S
C529 H517 0.950 . S
C529 C525 1.393 . S
C529 C528 1.391 . S
C530 H520 0.950 . S
C530 C531 1.386 . S
C530 C532 1.391 . S
C531 C530 1.386 . S
C531 C535 1.393 . S
C532 H521 0.950 . S
C532 C530 1.391 . S
C532 C533 1.400 . S
C533 C527 1.491 . S
C533 C532 1.400 . S
C533 C534 1.398 . S
C534 H522 0.950 . S
C534 C533 1.398 . S
C534 C535 1.391 . S
C535 H523 0.950 . S
C535 C531 1.393 . S
C535 C534 1.391 . S
H536 C544 0.950 . S
H537 C549 0.950 . S
H538 C546 0.950 . S
H539 C548 0.950 . S
H540 C550 0.950 . S
H541 C552 0.950 . S
H542 C554 0.950 . S
H543 C555 0.950 . S
C544 H536 0.950 . S
C544 C545 1.386 . S
C544 C546 1.391 . S
C545 C544 1.386 . S
C545 C549 1.393 . S
C546 H538 0.950 . S
C546 C544 1.391 . S
C546 C547 1.400 . S
C547 C546 1.400 . S
C547 C548 1.398 . S
C547 C553 1.491 . S
C548 H539 0.950 . S
C548 C547 1.398 . S
C548 C549 1.391 . S
C549 H537 0.950 . S
C549 C545 1.393 . S
C549 C548 1.391 . S
C550 H540 0.950 . S
C550 C551 1.386 . S
C550 C552 1.391 . S
C551 C550 1.386 . S
C551 C555 1.393 . S
C552 H541 0.950 . S
C552 C550 1.391 . S
C552 C553 1.400 1_554 S
C553 C547 1.491 . S
C553 C552 1.400 1_556 S
C553 C554 1.398 . S
C554 H542 0.950 . S
C554 C553 1.398 . S
C554 C555 1.391 1_556 S
C555 H543 0.950 . S
C555 C551 1.393 . S
C555 C554 1.391 1_554 S
H556 C564 0.950 . S
H557 C569 0.950 . S
H558 C566 0.950 . S
H559 C568 0.950 . S
H560 C570 0.950 . S
H561 C572 0.950 . S
H562 C574 0.950 . S
H563 C575 0.950 . S
C564 H556 0.950 . S
C564 C565 1.386 . S
C564 C566 1.391 . S
C565 C564 1.386 . S
C565 C569 1.393 . S
C566 H558 0.950 . S
C566 C564 1.391 . S
C566 C567 1.400 . S
C567 C566 1.400 . S
C567 C568 1.398 . S
C567 C573 1.491 . S
C568 H559 0.950 . S
C568 C567 1.398 . S
C568 C569 1.391 . S
C569 H557 0.950 . S
C569 C565 1.393 . S
C569 C568 1.391 . S
C570 H560 0.950 . S
C570 C571 1.386 . S
C570 C572 1.391 . S
C571 C570 1.386 . S
C571 C575 1.393 . S
C572 H561 0.950 . S
C572 C570 1.391 . S
C572 C573 1.400 . S
C573 C567 1.491 . S
C573 C572 1.400 . S
C573 C574 1.398 . S
C574 H562 0.950 . S
C574 C573 1.398 . S
C574 C575 1.391 . S
C575 H563 0.950 . S
C575 C571 1.393 . S
C575 C574 1.391 . S
H576 C584 0.950 . S
H577 C589 0.950 1_565 S
H578 C586 0.950 . S
H579 C588 0.950 . S
H580 C590 0.950 . S
H581 C592 0.950 . S
H582 C594 0.950 . S
H583 C595 0.950 . S
C584 H576 0.950 . S
C584 C585 1.386 . S
C584 C586 1.391 1_556 S
C585 C584 1.386 . S
C585 C589 1.393 . S
C586 H578 0.950 . S
C586 C584 1.391 1_554 S
C586 C587 1.400 . S
C587 C586 1.400 . S
C587 C588 1.398 1_544 S
C587 C593 1.491 1_545 S
C588 H579 0.950 . S
C588 C587 1.398 1_566 S
C588 C589 1.391 1_565 S
C589 H577 0.950 1_545 S
C589 C585 1.393 . S
C589 C588 1.391 1_545 S
C590 H580 0.950 . S
C590 C591 1.386 . S
C590 C592 1.391 . S
C591 C590 1.386 . S
C591 C595 1.393 . S
C592 H581 0.950 . S
C592 C590 1.391 . S
C592 C593 1.400 . S
C593 C587 1.491 1_565 S
C593 C592 1.400 . S
C593 C594 1.398 1_565 S
C594 H582 0.950 . S
C594 C593 1.398 1_545 S
C594 C595 1.391 1_545 S
C595 H583 0.950 . S
C595 C591 1.393 . S
C595 C594 1.391 1_565 S
H596 C604 0.950 . S
H597 C609 0.950 . S
H598 C606 0.950 1_565 S
H599 C608 0.950 . S
H600 C610 0.950 . S
H601 C612 0.957 . S
H602 C614 0.950 . S
H603 C615 0.950 . S
C604 H596 0.950 . S
C604 C605 1.386 . S
C604 C606 1.391 . S
C605 C604 1.386 . S
C605 C609 1.393 . S
C606 H598 0.950 1_545 S
C606 C604 1.391 . S
C606 C607 1.400 . S
C607 C606 1.400 . S
C607 C608 1.398 . S
C607 C613 1.491 1_545 S
C608 H599 0.950 . S
C608 C607 1.398 . S
C608 C609 1.391 . S
C609 H597 0.950 . S
C609 C605 1.393 . S
C609 C608 1.391 . S
C610 H600 0.950 . S
C610 C611 1.386 . S
C610 C612 1.391 . S
C611 C610 1.386 . S
C611 C615 1.393 . S
C612 H601 0.957 . S
C612 C610 1.391 . S
C612 C613 1.400 . S
C613 C607 1.491 1_565 S
C613 C612 1.400 . S
C613 C614 1.398 . S
C614 H602 0.950 . S
C614 C613 1.398 . S
C614 C615 1.391 . S
C615 H603 0.950 . S
C615 C611 1.393 . S
C615 C614 1.391 . S
H616 C624 0.950 1_545 S
H617 C629 0.950 . S
H618 C626 0.950 . S
H619 C628 0.950 . S
H620 C630 0.950 . S
H621 C632 0.950 . S
H622 C634 0.950 . S
H623 C635 0.950 . S
C624 H616 0.950 1_565 S
C624 C625 1.386 . S
C624 C626 1.391 1_565 S
C625 C624 1.386 . S
C625 C629 1.393 . S
C626 H618 0.950 . S
C626 C624 1.391 1_545 S
C626 C627 1.400 1_544 S
C627 C626 1.400 1_566 S
C627 C628 1.398 . S
C627 C633 1.491 1_565 S
C628 H619 0.950 . S
C628 C627 1.398 . S
C628 C629 1.391 1_556 S
C629 H617 0.950 . S
C629 C625 1.393 . S
C629 C628 1.391 1_554 S
C630 H620 0.950 . S
C630 C631 1.386 . S
C630 C632 1.391 1_545 S
C631 C630 1.386 . S
C631 C635 1.393 . S
C632 H621 0.950 . S
C632 C630 1.391 1_565 S
C632 C633 1.400 1_565 S
C633 C627 1.491 1_545 S
C633 C632 1.400 1_545 S
C633 C634 1.398 . S
C634 H622 0.950 . S
C634 C633 1.398 . S
C634 C635 1.391 . S
C635 H623 0.950 . S
C635 C631 1.393 . S
C635 C634 1.391 . S
H636 C644 0.950 . S
H637 C649 0.950 . S
H638 C646 0.950 . S
H639 C648 0.950 1_565 S
H640 C650 0.950 . S
H641 C652 0.950 . S
H642 C654 0.950 . S
H643 C655 0.950 . S
C644 H636 0.950 . S
C644 C645 1.386 . S
C644 C646 1.391 . S
C645 C644 1.386 . S
C645 C649 1.393 . S
C646 H638 0.950 . S
C646 C644 1.391 . S
C646 C647 1.400 . S
C647 C646 1.400 . S
C647 C648 1.398 . S
C647 C653 1.491 1_545 S
C648 H639 0.950 1_545 S
C648 C647 1.398 . S
C648 C649 1.391 . S
C649 H637 0.950 . S
C649 C645 1.393 . S
C649 C648 1.391 . S
C650 H640 0.950 . S
C650 C651 1.386 . S
C650 C652 1.391 . S
C651 C650 1.386 . S
C651 C655 1.393 . S
C652 H641 0.950 . S
C652 C650 1.391 . S
C652 C653 1.400 . S
C653 C647 1.491 1_565 S
C653 C652 1.400 . S
C653 C654 1.398 1_565 S
C654 H642 0.950 . S
C654 C653 1.398 1_545 S
C654 C655 1.391 1_545 S
C655 H643 0.950 . S
C655 C651 1.393 . S
C655 C654 1.391 1_565 S
C185 C139 1.023 . S
C191 C15 1.015 . S
C205 C175 1.039 . S
C211 C37 1.034 . S
C225 C103 1.030 . S
C231 C51 1.036 . S
C245 C125 1.015 . S
C251 C81 1.022 . S
C265 C131 1.607 1_545 S
C271 C10 1.551 . S
C285 C109 1.601 1_545 S
C291 C32 1.538 . S
C305 C62 1.570 . S
C311 C169 1.603 1_565 S
C325 C153 1.606 1_565 S
C331 C76 1.566 . S
C345 C43 1.589 . S
C351 C98 1.560 . S
C365 C120 1.550 . S
C371 C21 1.589 . S
C385 C150 1.574 . S
C391 C73 1.598 . S
C405 C65 1.595 . S
C411 C162 1.574 . S
C425 C18 1.429 . S
C431 C40 1.437 . S
C445 C74 1.439 . S
C451 C54 1.428 . S
C465 C128 1.432 . S
C471 C106 1.436 . S
C485 C172 1.437 . S
C491 C142 1.431 . S
C505 C87 1.421 . S
C511 C8 1.400 . S
C525 C30 1.405 . S
C531 C59 1.410 . S
C545 C52 1.414 . S
C551 C29 1.412 . S
C565 C7 1.409 . S
C571 C84 1.409 . S
C585 C161 1.421 . S
C591 C96 1.403 . S
C605 C147 1.413 . S
C611 C118 1.411 . S
C625 C117 1.420 . S
C631 C140 1.406 . S
C645 C164 1.412 . S
C651 C95 1.419 . S
