# Generated by pormake.
# Topology qtz-x, (6)-cn, num edge types: 1
# Building blocks:
#     Node 0, Type 0, BuildingBlock: BETGAK_clean_sbu_0, # of connection points: 6
#     Node 1, Type 0, BuildingBlock: BETGAK_clean_sbu_0, # of connection points: 6
#     Node 2, Type 0, BuildingBlock: BETGAK_clean_sbu_0, # of connection points: 6
#     Edge 3, Type (0, 0), BuildingBlock: EZIPEK_clean_linker_0, # of connection points: 2
#     Edge 4, Type (0, 0), BuildingBlock: EZIPEK_clean_linker_0, # of connection points: 2
#     Edge 5, Type (0, 0), BuildingBlock: EZIPEK_clean_linker_0, # of connection points: 2
#     Edge 6, Type (0, 0), BuildingBlock: EZIPEK_clean_linker_0, # of connection points: 2
#     Edge 7, Type (0, 0), BuildingBlock: EZIPEK_clean_linker_0, # of connection points: 2
#     Edge 8, Type (0, 0), BuildingBlock: EZIPEK_clean_linker_0, # of connection points: 2
#     Edge 9, Type (0, 0), BuildingBlock: EZIPEK_clean_linker_0, # of connection points: 2
#     Edge 10, Type (0, 0), BuildingBlock: EZIPEK_clean_linker_0, # of connection points: 2
#     Edge 11, Type (0, 0), BuildingBlock: EZIPEK_clean_linker_0, # of connection points: 2
# Relax obj value: 0.356
# Max RMSD: 0.308
# Mean RMSD: 0.274
data_MOF--net-qtz-x--node1-BETGAK_clean_sbu_0--edge1-EZIPEK_clean_linker_0
_symmetry_space_group_name_H-M    P1
_symmetry_Int_Tables_number       1
_symmetry_cell_setting            triclinic
loop_
_symmetry_equiv_pos_as_xyz
'x, y, z'
_cell_length_a     11.099503
_cell_length_b     11.143537
_cell_length_c     40.821788
_cell_angle_alpha  64.283813
_cell_angle_beta   116.93749
_cell_angle_gamma 121.86517
loop_
_atom_site_label
_atom_site_type_symbol
_atom_site_fract_x
_atom_site_fract_y
_atom_site_fract_z
_atom_type_partial_charge
La0 La 1.10044 0.60924 0.222 0.0
La1 La 0.4207 0.77023 0.21895 0.0
C2 C 0.87658 0.41027 0.24412 0.0
C3 C 0.82861 0.37622 0.2771 0.0
C4 C 0.74938 0.44342 0.27641 0.0
C5 C 0.71804 0.41595 0.30949 0.0
C6 C 0.76901 0.32409 0.34399 0.0
C7 C 0.84539 0.25583 0.34421 0.0
C8 C 0.8717 0.27875 0.31123 0.0
C9 C 0.20408 0.88841 0.22466 0.0
C10 C 0.37028 0.64683 0.29919 0.0
C11 C 0.65492 -0.01486 0.20658 0.0
C12 C 0.74455 0.03157 0.18251 0.0
C13 C 0.73979 0.92872 0.17043 0.0
C14 C 0.79853 -0.02428 0.14108 0.0
C15 C 0.86451 0.12555 0.12418 0.0
C16 C 0.88365 0.22841 0.13907 0.0
C17 C 0.81753 0.18139 0.16694 0.0
C18 C 0.32686 0.49166 0.21835 0.0
C19 C 0.15425 0.7225 0.14086 0.0
O20 O 0.87104 0.5256 0.21567 0.0
O21 O 1.00054 0.39966 0.25397 0.0
O22 O 1.06898 0.79076 0.22096 0.0
O23 O 0.27079 0.82761 0.22265 0.0
O24 O 0.22614 0.59564 0.2821 0.0
O25 O 0.46823 0.72018 0.28004 0.0
O26 O 0.65379 0.86941 0.23528 0.0
O27 O 0.52196 -0.0184 0.18744 0.0
O28 O 0.45881 0.59532 0.21927 0.0
O29 O 0.25388 0.54868 0.21965 0.0
O30 O 0.29837 0.779 0.15865 0.0
O31 O 1.05568 0.64265 0.16058 0.0
H32 H 0.7135 0.51825 0.2506 0.0
H33 H 0.65674 0.46832 0.30837 0.0
H34 H 0.88511 0.18384 0.37019 0.0
H35 H 0.92986 0.22221 0.31283 0.0
H36 H 0.68184 0.81258 0.18175 0.0
H37 H 0.78387 0.89527 0.12986 0.0
H38 H 0.93605 0.34415 0.12644 0.0
H39 H 0.81838 0.2618 0.17533 0.0
La40 La 0.91622 0.209 0.58169 0.0
La41 La 0.73327 0.92397 0.57977 0.0
C42 C 1.06035 0.46459 0.59099 0.0
C43 C 0.12004 0.53964 0.62031 0.0
C44 C 0.26215 0.65418 0.62405 0.0
C45 C 0.3289 0.72145 0.65349 0.0
C46 C 0.25467 0.67202 0.6799 0.0
C47 C 0.11148 0.55883 0.67595 0.0
C48 C 1.04433 0.49252 0.64628 0.0
C49 C 1.05782 0.092 0.57354 0.0
C50 C 0.86801 0.97009 0.66082 0.0
C51 C 0.60775 0.68195 0.56308 0.0
C52 C 0.56555 0.64294 0.52764 0.0
C53 C 0.4601 0.68174 0.49435 0.0
C54 C 0.43289 0.65767 0.46019 0.0
C55 C 0.51047 0.59475 0.45845 0.0
C56 C 0.60711 0.54602 0.49225 0.0
C57 C 0.63581 0.57145 0.52636 0.0
C58 C 0.58585 0.04023 0.58519 0.0
C59 C 0.76926 0.16949 0.50055 0.0
O60 O 0.12033 0.37854 0.59852 0.0
O61 O 0.91651 0.40611 0.57619 0.0
O62 O 1.05715 0.21948 0.55578 0.0
O63 O 0.9762 0.03037 0.5957 0.0
O64 O 0.9174 0.10998 0.64211 0.0
O65 O 0.79837 0.86924 0.64202 0.0
O66 O 0.53697 0.74624 0.56255 0.0
O67 O 0.7495 0.74348 0.57973 0.0
O68 O 0.58312 0.91071 0.60298 0.0
O69 O 0.67323 0.10384 0.56441 0.0
O70 O 0.70993 0.03054 0.5185 0.0
O71 O 0.85182 0.26691 0.52033 0.0
H72 H 0.32283 0.68846 0.60472 0.0
H73 H 0.43967 0.80831 0.65647 0.0
H74 H 1.05346 0.51968 0.69637 0.0
H75 H 0.93586 0.40244 0.64432 0.0
H76 H 0.40235 0.73564 0.49423 0.0
H77 H 0.35558 0.69377 0.43468 0.0
H78 H 0.66422 0.4928 0.49211 0.0
H79 H 0.71617 0.53878 0.55155 0.0
La80 La 0.92279 0.90237 0.88958 0.0
La81 La 1.07433 0.73279 0.91351 0.0
C82 C 0.77023 0.01083 0.88696 0.0
C83 C 0.78653 0.05375 0.91869 0.0
C84 C 0.88726 0.19476 0.92373 0.0
C85 C 0.92062 0.2287 0.95678 0.0
C86 C 0.85557 0.12195 0.98536 0.0
C87 C 0.7549 -0.01865 0.98058 0.0
C88 C 0.71976 0.94767 0.94741 0.0
C89 C 0.20524 0.0692 0.89058 0.0
C90 C 1.05035 0.77326 0.98019 0.0
C91 C 0.24411 0.64026 0.91718 0.0
C92 C 0.29981 0.66978 0.88667 0.0
C93 C 0.24086 0.55966 0.86874 0.0
C94 C 0.26832 0.59319 0.83503 0.0
C95 C 0.35655 0.737 0.81893 0.0
C96 C 0.42355 0.84506 0.83804 0.0
C97 C 0.39363 0.81231 0.87137 0.0
C98 C 0.78892 0.56812 0.91143 0.0
C99 C 0.94229 0.85692 0.82373 0.0
O100 O 0.88126 0.08755 0.87256 0.0
O101 O 0.72414 0.87092 0.89224 0.0
O102 O 1.09281 0.09304 0.86455 0.0
O103 O 0.15747 0.95368 0.91577 0.0
O104 O 0.96271 0.83602 0.95232 0.0
O105 O 0.11988 0.72875 0.97196 0.0
O106 O 1.10122 0.56508 0.9109 0.0
O107 O 0.29131 0.75122 0.93004 0.0
O108 O 0.9002 0.54181 0.93782 0.0
O109 O 0.83994 0.68338 0.8867 0.0
O110 O 1.05078 0.82139 0.85121 0.0
O111 O 0.85529 0.8756 0.83309 0.0
H112 H 0.94219 0.27803 0.90243 0.0
H113 H 0.99802 0.33722 0.96046 0.0
H114 H 0.70215 0.89841 1.00236 0.0
H115 H 0.64346 0.8373 0.94482 0.0
H116 H 0.1681 0.44904 0.87984 0.0
H117 H 0.2179 0.5074 0.821 0.0
H118 H 0.49472 0.95576 0.82643 0.0
H119 H 0.44039 0.89981 0.88442 0.0
C120 C 0.16605 0.0627 0.2412 0.0
C121 C 0.25184 0.04231 0.22797 0.0
C122 C 0.37539 0.31296 0.20591 0.0
C123 C 0.28664 0.33483 0.21796 0.0
N124 N 1.07061 0.22108 0.23787 0.0
N125 N 0.48378 0.15503 0.21549 0.0
C126 C 0.17548 0.20638 0.23342 0.0
C127 C 0.36948 0.16963 0.21528 0.0
N128 N 1.08269 0.94509 0.26381 0.0
N129 N 0.45782 0.42731 0.18272 0.0
H130 H 0.49441 0.05623 0.22948 0.0
H131 H 0.57781 0.2431 0.20834 0.0
H132 H 0.45153 0.5283 0.17098 0.0
H133 H 0.5149 0.41567 0.17065 0.0
H134 H 1.0262 0.95168 0.27706 0.0
H135 H 1.0866 0.84339 0.27384 0.0
H136 H 0.9844 0.13563 0.2489 0.0
H137 H 1.05463 0.31637 0.22291 0.0
C138 C 0.3052 -0.02158 0.55885 0.0
C139 C 0.45172 0.06751 0.57765 0.0
C140 C 0.33845 0.15806 0.59744 0.0
C141 C 0.19153 0.06804 0.5791 0.0
N142 N 1.03607 0.88432 0.54439 0.0
N143 N 0.60446 0.26919 0.60606 0.0
C144 C 0.17583 -0.02382 0.56031 0.0
C145 C 0.46676 0.16487 0.59442 0.0
N146 N 0.29051 0.90149 0.53777 0.0
N147 N 0.35571 0.23192 0.6197 0.0
H148 H 0.69761 0.27844 0.60309 0.0
H149 H 0.62468 0.35424 0.615 0.0
H150 H 0.26578 0.2232 0.62415 0.0
H151 H 0.45763 0.28816 0.63699 0.0
H152 H 0.19015 0.8401 0.52122 0.0
H153 H 0.38188 0.90768 0.53459 0.0
H154 H 1.01196 0.8042 0.53299 0.0
H155 H 0.94186 0.88272 0.54461 0.0
C156 C 0.39587 0.28636 0.91893 0.0
C157 C 0.35651 0.19433 0.89684 0.0
C158 C 0.59612 0.35296 0.88199 0.0
C159 C 0.63484 0.44643 0.90359 0.0
N160 N 0.5575 0.51935 0.93555 0.0
N161 N 0.40399 0.16016 0.8502 0.0
C162 C 0.53032 0.4178 0.92001 0.0
C163 C 0.45232 0.23394 0.87623 0.0
N164 N 0.30529 0.24742 0.93927 0.0
N165 N 0.69802 0.37643 0.8674 0.0
H166 H 0.30185 0.07082 0.84587 0.0
H167 H 0.4596 0.19311 0.83095 0.0
H168 H 0.80245 0.46318 0.87037 0.0
H169 H 0.68355 0.30522 0.85452 0.0
H170 H 0.33438 0.299 0.95939 0.0
H171 H 0.20368 0.15659 0.93798 0.0
H172 H 0.48308 0.51259 0.94576 0.0
H173 H 0.65126 0.61791 0.93539 0.0
C174 C 1.00703 0.16524 1.05018 0.0
C175 C 0.87853 0.16023 1.01867 0.0
C176 C 0.77353 0.19313 1.05371 0.0
C177 C 0.88802 0.17026 0.08712 0.0
N178 N 0.11883 0.14433 0.11808 0.0
N179 N 0.64031 0.17164 0.98915 0.0
C180 C 1.00812 0.1621 0.08548 0.0
C181 C 0.76353 0.17807 1.01983 0.0
N182 N 0.12645 0.17146 1.04639 0.0
N183 N 0.67267 0.22628 1.05449 0.0
H184 H 0.63163 0.16852 0.96299 0.0
H185 H 0.54312 0.16073 0.99019 0.0
H186 H 0.66962 0.22996 0.07911 0.0
H187 H 0.59718 0.26015 1.03022 0.0
H188 H 0.22963 0.19386 0.06679 0.0
H189 H 0.12604 0.166 1.02147 0.0
H190 H 0.20105 0.1203 0.12008 0.0
H191 H 0.12502 0.14912 0.14379 0.0
C192 C 0.70641 0.10775 0.4396 0.0
C193 C 0.75359 0.21412 0.45832 0.0
C194 C 0.80937 0.40302 0.39966 0.0
C195 C 0.74277 0.29325 0.38042 0.0
N196 N 0.57911 0.04208 0.37973 0.0
N197 N 0.80886 0.46745 0.4488 0.0
C198 C 0.67254 0.1463 0.39951 0.0
C199 C 0.79244 0.36336 0.43618 0.0
N200 N 0.71159 -0.02471 0.45958 0.0
N201 N 0.89369 0.54392 0.38417 0.0
H202 H 0.78313 0.44339 0.47296 0.0
H203 H 0.82865 0.57455 0.43241 0.0
H204 H 0.91025 0.57747 0.35785 0.0
H205 H 0.95778 0.6242 0.39912 0.0
H206 H 0.68297 0.90009 0.44603 0.0
H207 H 0.7689 0.95081 0.48821 0.0
H208 H 0.5182 0.9344 0.39249 0.0
H209 H 0.55116 0.06793 0.35014 0.0
C210 C 0.89654 0.00465 0.75426 0.0
C211 C 0.92119 0.88091 0.7821 0.0
C212 C 0.91249 0.81038 0.73062 0.0
C213 C 0.87757 0.92953 0.70262 0.0
N214 N 0.77846 0.09925 0.68879 0.0
N215 N 0.9199 0.64792 0.79436 0.0
C216 C 0.85325 0.01489 0.71481 0.0
C217 C 0.91989 0.77858 0.76955 0.0
N218 N 0.91977 0.11697 0.76508 0.0
N219 N 0.94416 0.73004 0.72068 0.0
H220 H 0.92286 0.61919 0.82252 0.0
H221 H 0.90255 0.5622 0.7862 0.0
H222 H 0.94329 0.74985 0.69325 0.0
H223 H 0.98562 0.65262 0.74037 0.0
H224 H 0.91745 0.21552 0.74579 0.0
H225 H 0.95806 0.11913 0.79335 0.0
H226 H 0.74619 0.15394 0.69633 0.0
H227 H 0.72999 0.09652 0.66042 0.0
C228 C 0.95283 0.66388 1.03768 0.0
C229 C 1.07232 0.75708 1.02128 0.0
C230 C 0.21864 0.85537 0.07783 0.0
C231 C 1.10995 0.74701 0.09737 0.0
N232 N 0.85402 0.57028 0.09051 0.0
N233 N 0.32802 0.92744 1.02905 0.0
C234 C 0.9707 0.65822 0.07562 0.0
C235 C 0.20774 0.84745 1.0425 0.0
N236 N 0.82139 0.5799 1.01667 0.0
N237 N 0.32537 -0.02386 0.0909 0.0
H238 H 0.32419 0.93209 1.00255 0.0
H239 H 0.43445 -0.02261 1.046 0.0
H240 H 0.32363 -0.00026 0.11271 0.0
H241 H 0.39964 0.06424 0.07622 0.0
H242 H 0.72115 0.52767 1.02276 0.0
H243 H 0.81333 0.56401 0.99231 0.0
H244 H 0.75908 0.48629 0.07962 0.0
H245 H 0.84667 0.58593 0.1127 0.0
C246 C 0.3395 0.4892 0.36451 0.0
C247 C 0.42147 0.62186 0.34167 0.0
C248 C 0.59547 0.69919 0.40021 0.0
C249 C 0.49281 0.58704 0.42067 0.0
N250 N 0.2627 0.37273 0.4218 0.0
N251 N 0.6189 0.86656 0.33915 0.0
C252 C 0.36329 0.48103 0.40265 0.0
C253 C 0.5486 0.7301 0.35987 0.0
N254 N 0.245 0.36846 0.35062 0.0
N255 N 0.73742 0.77655 0.41906 0.0
H256 H 0.57894 0.90333 0.30983 0.0
H257 H 0.70686 0.94999 0.3517 0.0
H258 H 0.77683 0.75342 0.44864 0.0
H259 H 0.81963 0.85135 0.40552 0.0
H260 H 0.19166 0.26631 0.36717 0.0
H261 H 0.23484 0.36577 0.32424 0.0
H262 H 0.1585 0.30243 0.40863 0.0
H263 H 0.28085 0.35867 0.4504 0.0
C264 C 0.44879 0.69572 0.78133 0.0
C265 C 0.3792 0.76919 0.78241 0.0
C266 C 0.28725 0.83419 0.71297 0.0
C267 C 0.32772 0.73277 0.71311 0.0
N268 N 0.46043 0.57836 0.74557 0.0
N269 N 0.26516 0.94049 0.74984 0.0
C270 C 0.41644 0.67015 0.74662 0.0
C271 C 0.31132 0.85148 0.74829 0.0
N272 N 0.54509 0.65043 0.81382 0.0
N273 N 0.21807 0.90599 0.67908 0.0
H274 H 0.27201 0.94866 0.7751 0.0
H275 H 0.22093 0.00889 0.72626 0.0
H276 H 0.19957 0.89298 0.65318 0.0
H277 H 0.18037 -0.02085 0.67597 0.0
H278 H 0.61065 0.60802 0.81463 0.0
H279 H 0.5703 0.67022 0.83941 0.0
H280 H 0.50954 0.51485 0.76967 0.0
H281 H 0.4425 0.56101 0.7203 0.0
loop_
_geom_bond_atom_site_label_1
_geom_bond_atom_site_label_2
_geom_bond_distance
_geom_bond_site_symmetry_2
_ccdc_geom_bond_type
La0 C2 2.928 . S
La0 O20 2.521 . S
La0 O21 2.628 . S
La0 O22 2.554 . S
La0 O23 2.757 1_655 S
La0 O24 2.470 1_655 S
La0 O29 2.482 . S
La0 O31 2.503 . S
La1 C11 2.928 . S
La1 O23 2.482 . S
La1 O25 2.503 . S
La1 O26 2.521 . S
La1 O27 2.628 1_565 S
La1 O28 2.554 . S
La1 O29 2.757 1_455 S
La1 O30 2.470 1_455 S
C2 La0 2.928 . S
C2 C3 1.503 . S
C2 O20 1.261 . S
C2 O21 1.243 . S
C3 C2 1.503 . S
C3 C4 1.394 . S
C3 C8 1.373 . S
C4 C3 1.394 . S
C4 C5 1.380 . S
C4 H32 0.930 . S
C5 C4 1.380 . S
C5 C6 1.376 . S
C5 H33 0.930 . S
C6 C5 1.376 . S
C6 C7 1.370 . S
C7 C6 1.370 . S
C7 C8 1.396 . S
C7 H34 0.929 . S
C8 C3 1.373 . S
C8 C7 1.396 . S
C8 H35 0.929 . S
C9 O22 1.240 . S
C9 O23 1.289 1_655 S
C10 O24 1.258 . S
C10 O25 1.256 . S
C11 La1 2.928 . S
C11 C12 1.503 1_565 S
C11 O26 1.261 . S
C11 O27 1.243 1_565 S
C12 C11 1.503 1_545 S
C12 C13 1.394 1_545 S
C12 C17 1.373 . S
C13 C12 1.394 1_565 S
C13 C14 1.380 1_565 S
C13 H36 0.930 . S
C14 C13 1.380 1_545 S
C14 C15 1.376 . S
C14 H37 0.930 . S
C15 C14 1.376 . S
C15 C16 1.370 . S
C16 C15 1.370 . S
C16 C17 1.396 . S
C16 H38 0.929 1_554 S
C17 C12 1.373 . S
C17 C16 1.396 . S
C17 H39 0.929 . S
C18 O28 1.240 . S
C18 O29 1.289 1_455 S
C19 O30 1.258 . S
C19 O31 1.256 . S
O20 La0 2.521 . S
O20 C2 1.261 . S
O21 La0 2.628 . S
O21 C2 1.243 . S
O22 La0 2.554 . S
O22 C9 1.240 . S
O23 La0 2.757 1_455 S
O23 La1 2.482 . S
O23 C9 1.289 1_455 S
O24 La0 2.470 1_455 S
O24 C10 1.258 . S
O25 La1 2.503 . S
O25 C10 1.256 . S
O26 La1 2.521 . S
O26 C11 1.261 . S
O27 La1 2.628 1_545 S
O27 C11 1.243 1_545 S
O28 La1 2.554 . S
O28 C18 1.240 . S
O29 La0 2.482 . S
O29 La1 2.757 1_655 S
O29 C18 1.289 1_655 S
O30 La1 2.470 1_655 S
O30 C19 1.258 . S
O31 La0 2.503 . S
O31 C19 1.256 . S
H32 C4 0.930 . S
H33 C5 0.930 . S
H34 C7 0.929 . S
H35 C8 0.929 . S
H36 C13 0.930 . S
H37 C14 0.930 . S
H38 C16 0.929 1_556 S
H39 C17 0.929 . S
La40 C42 2.928 1_655 S
La40 O60 2.521 1_655 S
La40 O61 2.628 . S
La40 O62 2.554 1_655 S
La40 O63 2.757 1_545 S
La40 O64 2.470 1_545 S
La40 O69 2.482 . S
La40 O71 2.503 . S
La41 C51 2.928 . S
La41 O63 2.482 . S
La41 O65 2.503 . S
La41 O66 2.521 . S
La41 O67 2.628 . S
La41 O68 2.554 . S
La41 O69 2.757 1_565 S
La41 O70 2.470 1_565 S
C42 La40 2.928 1_455 S
C42 C43 1.503 . S
C42 O60 1.261 . S
C42 O61 1.243 1_455 S
C43 C42 1.503 . S
C43 C44 1.394 . S
C43 C48 1.373 . S
C44 C43 1.394 . S
C44 C45 1.380 . S
C44 H72 0.930 . S
C45 C44 1.380 . S
C45 C46 1.376 . S
C45 H73 0.930 . S
C46 C45 1.376 . S
C46 C47 1.370 . S
C47 C46 1.370 . S
C47 C48 1.396 . S
C47 H74 0.929 1_455 S
C48 C43 1.373 . S
C48 C47 1.396 . S
C48 H75 0.929 1_455 S
C49 O62 1.240 . S
C49 O63 1.289 1_445 S
C50 O64 1.258 . S
C50 O65 1.256 . S
C51 La41 2.928 . S
C51 C52 1.503 . S
C51 O66 1.261 . S
C51 O67 1.243 . S
C52 C51 1.503 . S
C52 C53 1.394 . S
C52 C57 1.373 . S
C53 C52 1.394 . S
C53 C54 1.380 . S
C53 H76 0.930 . S
C54 C53 1.380 . S
C54 C55 1.376 . S
C54 H77 0.930 . S
C55 C54 1.376 . S
C55 C56 1.370 . S
C56 C55 1.370 . S
C56 C57 1.396 . S
C56 H78 0.929 . S
C57 C52 1.373 . S
C57 C56 1.396 . S
C57 H79 0.929 . S
C58 O68 1.240 . S
C58 O69 1.289 1_565 S
C59 O70 1.258 . S
C59 O71 1.256 . S
O60 La40 2.521 1_455 S
O60 C42 1.261 . S
O61 La40 2.628 . S
O61 C42 1.243 1_655 S
O62 La40 2.554 1_455 S
O62 C49 1.240 . S
O63 La40 2.757 1_565 S
O63 La41 2.482 . S
O63 C49 1.289 1_665 S
O64 La40 2.470 1_565 S
O64 C50 1.258 . S
O65 La41 2.503 . S
O65 C50 1.256 . S
O66 La41 2.521 . S
O66 C51 1.261 . S
O67 La41 2.628 . S
O67 C51 1.243 . S
O68 La41 2.554 . S
O68 C58 1.240 . S
O69 La40 2.482 . S
O69 La41 2.757 1_545 S
O69 C58 1.289 1_545 S
O70 La41 2.470 1_545 S
O70 C59 1.258 . S
O71 La40 2.503 . S
O71 C59 1.256 . S
H72 C44 0.930 . S
H73 C45 0.930 . S
H74 C47 0.929 1_655 S
H75 C48 0.929 1_655 S
H76 C53 0.930 . S
H77 C54 0.930 . S
H78 C56 0.929 . S
H79 C57 0.929 . S
La80 C82 2.928 . S
La80 O100 2.521 . S
La80 O101 2.628 . S
La80 O102 2.554 1_655 S
La80 O103 2.757 1_655 S
La80 O104 2.470 1_655 S
La80 O109 2.482 1_545 S
La80 O111 2.503 . S
La81 C91 2.928 . S
La81 O103 2.482 1_565 S
La81 O105 2.503 . S
La81 O106 2.521 . S
La81 O107 2.628 . S
La81 O108 2.554 1_455 S
La81 O109 2.757 1_455 S
La81 O110 2.470 1_455 S
C82 La80 2.928 . S
C82 C83 1.503 . S
C82 O100 1.261 . S
C82 O101 1.243 . S
C83 C82 1.503 . S
C83 C84 1.394 . S
C83 C88 1.373 . S
C84 C83 1.394 . S
C84 C85 1.380 . S
C84 H112 0.930 . S
C85 C84 1.380 . S
C85 C86 1.376 . S
C85 H113 0.930 . S
C86 C85 1.376 . S
C86 C87 1.370 . S
C87 C86 1.370 . S
C87 C88 1.396 . S
C87 H114 0.929 . S
C88 C83 1.373 . S
C88 C87 1.396 . S
C88 H115 0.929 1_545 S
C89 O102 1.240 . S
C89 O103 1.289 . S
C90 O104 1.258 1_565 S
C90 O105 1.256 . S
C91 La81 2.928 . S
C91 C92 1.503 . S
C91 O106 1.261 . S
C91 O107 1.243 . S
C92 C91 1.503 . S
C92 C93 1.394 . S
C92 C97 1.373 . S
C93 C92 1.394 . S
C93 C94 1.380 . S
C93 H116 0.930 . S
C94 C93 1.380 . S
C94 C95 1.376 . S
C94 H117 0.930 . S
C95 C94 1.376 . S
C95 C96 1.370 . S
C96 C95 1.370 . S
C96 C97 1.396 . S
C96 H118 0.929 . S
C97 C92 1.373 . S
C97 C96 1.396 . S
C97 H119 0.929 1_565 S
C98 O108 1.240 . S
C98 O109 1.289 . S
C99 O110 1.258 1_545 S
C99 O111 1.256 . S
O100 La80 2.521 . S
O100 C82 1.261 . S
O101 La80 2.628 . S
O101 C82 1.243 . S
O102 La80 2.554 1_455 S
O102 C89 1.240 . S
O103 La80 2.757 1_455 S
O103 La81 2.482 1_545 S
O103 C89 1.289 . S
O104 La80 2.470 1_455 S
O104 C90 1.258 1_545 S
O105 La81 2.503 . S
O105 C90 1.256 . S
O106 La81 2.521 . S
O106 C91 1.261 . S
O107 La81 2.628 . S
O107 C91 1.243 . S
O108 La81 2.554 1_655 S
O108 C98 1.240 . S
O109 La80 2.482 1_565 S
O109 La81 2.757 1_655 S
O109 C98 1.289 . S
O110 La81 2.470 1_655 S
O110 C99 1.258 1_565 S
O111 La80 2.503 . S
O111 C99 1.256 . S
H112 C84 0.930 . S
H113 C85 0.930 . S
H114 C87 0.929 . S
H115 C88 0.929 1_565 S
H116 C93 0.930 . S
H117 C94 0.930 . S
H118 C96 0.929 . S
H119 C97 0.929 1_545 S
C120 C121 1.363 1_655 S
C120 C126 1.379 . S
C120 N128 1.356 . S
C121 C120 1.363 1_455 S
C121 C127 1.363 . S
C122 C123 1.363 1_455 S
C122 C127 1.379 . S
C122 N129 1.356 . S
C123 C122 1.363 1_655 S
C123 C126 1.363 . S
N124 C126 1.356 . S
N124 H136 0.984 . S
N124 H137 0.985 . S
N125 C127 1.356 . S
N125 H130 0.984 . S
N125 H131 0.985 . S
C126 C120 1.379 . S
C126 C123 1.363 . S
C126 N124 1.356 . S
C127 C121 1.363 . S
C127 C122 1.379 . S
C127 N125 1.356 . S
N128 C120 1.356 . S
N128 H134 0.984 1_545 S
N128 H135 0.984 1_545 S
N129 C122 1.356 . S
N129 H132 0.984 . S
N129 H133 0.985 . S
H130 N125 0.984 . S
H131 N125 0.985 . S
H132 N129 0.984 . S
H133 N129 0.985 . S
H134 N128 0.984 1_565 S
H135 N128 0.984 1_565 S
H136 N124 0.984 . S
H137 N124 0.985 . S
C138 C139 1.365 . S
C138 C144 1.379 . S
C138 N146 1.356 . S
C139 C138 1.365 . S
C139 C145 1.356 1_565 S
C140 C141 1.363 . S
C140 C145 1.379 . S
C140 N147 1.356 . S
C141 C140 1.363 . S
C141 C144 1.363 1_545 S
N142 C144 1.356 . S
N142 H154 0.984 1_455 S
N142 H155 0.985 . S
N143 C145 1.356 . S
N143 H148 0.984 . S
N143 H149 0.985 . S
C144 C138 1.379 . S
C144 C141 1.363 1_565 S
C144 N142 1.356 . S
C145 C139 1.356 1_545 S
C145 C140 1.379 . S
C145 N143 1.356 . S
N146 C138 1.356 . S
N146 H152 0.984 . S
N146 H153 0.984 . S
N147 C140 1.356 . S
N147 H150 0.984 . S
N147 H151 0.985 . S
H148 N143 0.984 . S
H149 N143 0.985 . S
H150 N147 0.984 . S
H151 N147 0.985 . S
H152 N146 0.984 . S
H153 N146 0.984 . S
H154 N142 0.984 1_655 S
H155 N142 0.985 . S
C156 C157 1.363 . S
C156 C162 1.379 . S
C156 N164 1.356 . S
C157 C156 1.363 . S
C157 C163 1.363 . S
C158 C159 1.363 . S
C158 C163 1.379 . S
C158 N165 1.356 . S
C159 C158 1.363 . S
C159 C162 1.363 . S
N160 C162 1.356 . S
N160 H172 0.984 . S
N160 H173 0.985 . S
N161 C163 1.356 . S
N161 H166 0.984 . S
N161 H167 0.985 . S
C162 C156 1.379 . S
C162 C159 1.363 . S
C162 N160 1.356 . S
C163 C157 1.363 . S
C163 C158 1.379 . S
C163 N161 1.356 . S
N164 C156 1.356 . S
N164 H170 0.984 . S
N164 H171 0.984 . S
N165 C158 1.356 . S
N165 H168 0.984 . S
N165 H169 0.985 . S
H166 N161 0.984 . S
H167 N161 0.985 . S
H168 N165 0.984 . S
H169 N165 0.985 . S
H170 N164 0.984 . S
H171 N164 0.984 . S
H172 N160 0.984 . S
H173 N160 0.985 . S
C174 C175 1.363 . S
C174 C180 1.379 . S
C174 N182 1.356 . S
C175 C174 1.363 . S
C175 C181 1.363 . S
C176 C177 1.363 . S
C176 C181 1.379 . S
C176 N183 1.356 . S
C177 C176 1.363 . S
C177 C180 1.363 . S
N178 C180 1.356 1_554 S
N178 H190 0.984 . S
N178 H191 0.985 . S
N179 C181 1.356 . S
N179 H184 0.984 . S
N179 H185 0.985 . S
C180 C174 1.379 . S
C180 C177 1.363 . S
C180 N178 1.356 1_556 S
C181 C175 1.363 . S
C181 C176 1.379 . S
C181 N179 1.356 . S
N182 C174 1.356 . S
N182 H188 0.984 . S
N182 H189 0.984 . S
N183 C176 1.356 . S
N183 H186 0.984 . S
N183 H187 0.985 . S
H184 N179 0.984 . S
H185 N179 0.985 . S
H186 N183 0.984 . S
H187 N183 0.985 . S
H188 N182 0.984 . S
H189 N182 0.984 . S
H190 N178 0.984 . S
H191 N178 0.985 . S
C192 C193 1.363 . S
C192 C198 1.379 . S
C192 N200 1.356 . S
C193 C192 1.363 . S
C193 C199 1.363 . S
C194 C195 1.363 . S
C194 C199 1.379 . S
C194 N201 1.356 . S
C195 C194 1.363 . S
C195 C198 1.363 . S
N196 C198 1.356 . S
N196 H208 0.984 . S
N196 H209 0.985 . S
N197 C199 1.356 . S
N197 H202 0.984 . S
N197 H203 0.985 . S
C198 C192 1.379 . S
C198 C195 1.363 . S
C198 N196 1.356 . S
C199 C193 1.363 . S
C199 C194 1.379 . S
C199 N197 1.356 . S
N200 C192 1.356 . S
N200 H206 0.984 1_545 S
N200 H207 0.984 . S
N201 C194 1.356 . S
N201 H204 0.984 . S
N201 H205 0.985 . S
H202 N197 0.984 . S
H203 N197 0.985 . S
H204 N201 0.984 . S
H205 N201 0.985 . S
H206 N200 0.984 1_565 S
H207 N200 0.984 . S
H208 N196 0.984 . S
H209 N196 0.985 . S
C210 C211 1.363 . S
C210 C216 1.379 . S
C210 N218 1.356 . S
C211 C210 1.363 . S
C211 C217 1.363 1_545 S
C212 C213 1.363 . S
C212 C217 1.379 . S
C212 N219 1.356 . S
C213 C212 1.363 . S
C213 C216 1.363 1_565 S
N214 C216 1.356 . S
N214 H226 0.984 . S
N214 H227 0.985 . S
N215 C217 1.356 . S
N215 H220 0.984 . S
N215 H221 0.985 . S
C216 C210 1.379 . S
C216 C213 1.363 1_545 S
C216 N214 1.356 . S
C217 C211 1.363 1_565 S
C217 C212 1.379 . S
C217 N215 1.356 . S
N218 C210 1.356 . S
N218 H224 0.984 . S
N218 H225 0.984 . S
N219 C212 1.356 . S
N219 H222 0.984 . S
N219 H223 0.985 . S
H220 N215 0.984 . S
H221 N215 0.985 . S
H222 N219 0.984 . S
H223 N219 0.985 . S
H224 N218 0.984 . S
H225 N218 0.984 . S
H226 N214 0.984 . S
H227 N214 0.985 . S
C228 C229 1.363 1_655 S
C228 C234 1.379 . S
C228 N236 1.356 . S
C229 C228 1.363 1_455 S
C229 C235 1.369 . S
C230 C231 1.363 1_455 S
C230 C235 1.372 1_554 S
C230 N237 1.356 . S
C231 C230 1.363 1_655 S
C231 C234 1.363 1_554 S
N232 C234 1.356 . S
N232 H244 0.984 . S
N232 H245 0.985 1_556 S
N233 C235 1.360 1_545 S
N233 H238 0.984 . S
N233 H239 0.985 1_556 S
C234 C228 1.379 . S
C234 C231 1.363 1_556 S
C234 N232 1.356 . S
C235 C229 1.369 . S
C235 C230 1.372 1_556 S
C235 N233 1.360 1_565 S
N236 C228 1.356 . S
N236 H242 0.984 . S
N236 H243 0.984 . S
N237 C230 1.356 . S
N237 H240 0.984 . S
N237 H241 0.985 . S
H238 N233 0.984 . S
H239 N233 0.985 1_554 S
H240 N237 0.984 . S
H241 N237 0.985 . S
H242 N236 0.984 . S
H243 N236 0.984 . S
H244 N232 0.984 . S
H245 N232 0.985 1_554 S
C246 C247 1.363 . S
C246 C252 1.379 . S
C246 N254 1.356 . S
C247 C246 1.363 . S
C247 C253 1.363 . S
C248 C249 1.363 . S
C248 C253 1.379 . S
C248 N255 1.356 . S
C249 C248 1.363 . S
C249 C252 1.363 . S
N250 C252 1.356 . S
N250 H262 0.984 . S
N250 H263 0.985 . S
N251 C253 1.356 . S
N251 H256 0.984 . S
N251 H257 0.985 . S
C252 C246 1.379 . S
C252 C249 1.363 . S
C252 N250 1.356 . S
C253 C247 1.363 . S
C253 C248 1.379 . S
C253 N251 1.356 . S
N254 C246 1.356 . S
N254 H260 0.984 1_455 S
N254 H261 0.984 . S
N255 C248 1.356 . S
N255 H258 0.984 . S
N255 H259 0.985 . S
H256 N251 0.984 . S
H257 N251 0.985 . S
H258 N255 0.984 . S
H259 N255 0.985 . S
H260 N254 0.984 1_655 S
H261 N254 0.984 . S
H262 N250 0.984 . S
H263 N250 0.985 . S
C264 C265 1.363 . S
C264 C270 1.379 . S
C264 N272 1.356 . S
C265 C264 1.363 . S
C265 C271 1.363 . S
C266 C267 1.363 . S
C266 C271 1.379 . S
C266 N273 1.356 . S
C267 C266 1.363 . S
C267 C270 1.363 . S
N268 C270 1.356 . S
N268 H280 0.984 . S
N268 H281 0.985 . S
N269 C271 1.356 . S
N269 H274 0.984 . S
N269 H275 0.985 . S
C270 C264 1.379 . S
C270 C267 1.363 . S
C270 N268 1.356 . S
C271 C265 1.363 . S
C271 C266 1.379 . S
C271 N269 1.356 . S
N272 C264 1.356 . S
N272 H278 0.984 . S
N272 H279 0.984 . S
N273 C266 1.356 . S
N273 H276 0.984 . S
N273 H277 0.985 . S
H274 N269 0.984 . S
H275 N269 0.985 . S
H276 N273 0.984 . S
H277 N273 0.985 . S
H278 N272 0.984 . S
H279 N272 0.984 . S
H280 N268 0.984 . S
H281 N268 0.985 . S
C121 C9 1.973 1_445 S
C123 C18 1.973 1_655 S
C139 C58 2.043 . S
C141 C49 2.037 . S
C157 C89 1.641 . S
C159 C98 1.641 . S
C175 C86 0.990 . S
C177 C15 1.002 1_556 S
C193 C59 2.226 . S
C195 C6 2.114 . S
C211 C99 2.782 . S
C213 C50 2.803 . S
C229 C90 2.765 . S
C231 C19 2.625 . S
C247 C10 2.173 . S
C249 C55 1.931 . S
C265 C95 0.979 . S
C267 C46 1.015 . S
