# Generated by pormake.
# Topology snk, (6)-cn, num edge types: 1
# Building blocks:
#     Node 0, Type 0, BuildingBlock: BETGAK_clean_sbu_0, # of connection points: 6
#     Node 1, Type 0, BuildingBlock: BETGAK_clean_sbu_0, # of connection points: 6
#     Node 2, Type 0, BuildingBlock: BETGAK_clean_sbu_0, # of connection points: 6
#     Node 3, Type 0, BuildingBlock: BETGAK_clean_sbu_0, # of connection points: 6
#     Node 4, Type 0, BuildingBlock: BETGAK_clean_sbu_0, # of connection points: 6
#     Node 5, Type 0, BuildingBlock: BETGAK_clean_sbu_0, # of connection points: 6
#     Node 6, Type 0, BuildingBlock: BETGAK_clean_sbu_0, # of connection points: 6
#     Node 7, Type 0, BuildingBlock: BETGAK_clean_sbu_0, # of connection points: 6
#     Edge 8, Type (0, 0), None
#     Edge 9, Type (0, 0), None
#     Edge 10, Type (0, 0), None
#     Edge 11, Type (0, 0), None
#     Edge 12, Type (0, 0), None
#     Edge 13, Type (0, 0), None
#     Edge 14, Type (0, 0), None
#     Edge 15, Type (0, 0), None
#     Edge 16, Type (0, 0), None
#     Edge 17, Type (0, 0), None
#     Edge 18, Type (0, 0), None
#     Edge 19, Type (0, 0), None
#     Edge 20, Type (0, 0), None
#     Edge 21, Type (0, 0), None
#     Edge 22, Type (0, 0), None
#     Edge 23, Type (0, 0), None
#     Edge 24, Type (0, 0), None
#     Edge 25, Type (0, 0), None
#     Edge 26, Type (0, 0), None
#     Edge 27, Type (0, 0), None
#     Edge 28, Type (0, 0), None
#     Edge 29, Type (0, 0), None
#     Edge 30, Type (0, 0), None
#     Edge 31, Type (0, 0), None
# Relax obj value: 0.229
# Max RMSD: 0.303
# Mean RMSD: 0.256
data_MOF--net-snk--node1-BETGAK_clean_sbu_0--edge1-none
_symmetry_space_group_name_H-M    P1
_symmetry_Int_Tables_number       1
_symmetry_cell_setting            triclinic
loop_
_symmetry_equiv_pos_as_xyz
'x, y, z'
_cell_length_a     15.525593
_cell_length_b     15.524919
_cell_length_c     15.317599
_cell_angle_alpha  84.497071
_cell_angle_beta   95.502934
_cell_angle_gamma 88.301281
loop_
_atom_site_label
_atom_site_type_symbol
_atom_site_fract_x
_atom_site_fract_y
_atom_site_fract_z
_atom_type_partial_charge
La0 La 0.94289 0.89842 0.51653 0.0
La1 La -0.02683 0.02192 0.63646 0.0
C2 C 0.89082 0.85487 0.37035 0.0
C3 C 0.89561 0.90278 0.28399 0.0
C4 C -0.0241 0.92678 0.25731 0.0
C5 C -0.01777 -0.04026 0.17142 0.0
C6 C 0.90755 -0.02235 0.11353 0.0
C7 C 0.82585 -0.03546 0.14258 0.0
C8 C 0.81986 0.92755 0.22829 0.0
C9 C 0.05764 0.83532 0.65017 0.0
C10 C 0.08236 0.0411 0.47471 0.0
C11 C -0.01494 0.10107 0.77034 0.0
C12 C 0.96342 0.06911 0.85748 0.0
C13 C 0.93574 0.12734 0.91358 0.0
C14 C 0.9179 0.09698 0.99779 0.0
C15 C 0.91686 0.00819 1.0226 0.0
C16 C 0.94151 0.9492 0.9655 0.0
C17 C 0.96793 -0.02028 0.88449 0.0
C18 C 0.87339 0.08599 0.49327 0.0
C19 C 0.85946 0.8538 0.69016 0.0
O20 O 0.96382 0.82342 0.41394 0.0
O21 O 0.83965 0.89136 0.42022 0.0
O22 O 0.0032 0.7906 0.60493 0.0
O23 O 0.05164 0.91309 0.61446 0.0
O24 O 0.03173 -0.01887 0.44608 0.0
O25 O 0.07726 0.06473 0.55521 0.0
O26 O 0.91807 0.11038 0.71149 0.0
O27 O 0.05167 0.06212 0.74233 0.0
O28 O 0.93472 0.125 0.53356 0.0
O29 O 0.86841 0.01153 0.53541 0.0
O30 O 0.90363 0.92081 0.71391 0.0
O31 O 0.85879 0.83427 0.60819 0.0
H32 H 0.03491 0.91532 0.30089 0.0
H33 H 0.04589 -0.0313 0.15012 0.0
H34 H 0.76748 -0.01998 0.09848 0.0
H35 H 0.75648 0.91657 0.25003 0.0
H36 H 0.93272 0.196 0.89442 0.0
H37 H 0.91016 0.14265 1.04502 0.0
H38 H 0.94582 0.88036 0.98609 0.0
H39 H -0.00508 0.93374 0.84501 0.0
La40 La 0.15429 0.70281 0.88647 0.0
La41 La 0.27784 0.73311 0.76649 0.0
C42 C 0.0752 0.69093 1.02039 0.0
C43 C 0.10715 0.71266 0.1075 0.0
C44 C 0.04891 0.74043 0.16356 0.0
C45 C 0.07924 0.75833 0.24775 0.0
C46 C 0.16803 0.75936 0.2726 0.0
C47 C 0.22702 0.73466 0.21552 0.0
C48 C 0.19652 0.70817 0.13453 0.0
C49 C 0.09014 0.80276 0.74324 0.0
C50 C 0.32235 0.81656 0.94019 0.0
C51 C 0.32136 0.78531 0.62034 0.0
C52 C 0.27346 0.78055 0.53399 0.0
C53 C 0.24942 0.70028 0.5073 0.0
C54 C 0.21646 0.69396 0.42141 0.0
C55 C 0.19855 0.76866 0.36353 0.0
C56 C 0.21168 0.85036 0.3926 0.0
C57 C 0.24869 0.85632 0.4783 0.0
C58 C 0.34079 0.61857 0.90014 0.0
C59 C 0.13505 0.59365 0.72472 0.0
O60 O 0.06581 0.75788 0.9615 0.0
O61 O 0.1142 0.62433 0.99241 0.0
O62 O 0.05106 0.74154 0.78365 0.0
O63 O 0.16464 0.80749 0.78529 0.0
O64 O 0.25536 0.77236 0.96392 0.0
O65 O 0.3419 0.81725 0.85822 0.0
O66 O 0.35285 0.71229 0.6639 0.0
O67 O 0.28483 0.83642 0.67025 0.0
O68 O 0.38557 0.67297 0.85495 0.0
O69 O 0.26303 0.62433 0.8643 0.0
O70 O 0.19508 0.64422 0.6961 0.0
O71 O 0.11142 0.59877 0.80522 0.0
H72 H -0.01974 0.74344 0.14438 0.0
H73 H 0.03355 0.76612 0.29496 0.0
H74 H 0.29585 0.73039 0.23612 0.0
H75 H 0.24252 0.68115 0.09509 0.0
H76 H 0.26086 0.64125 0.55087 0.0
H77 H 0.2075 0.6303 0.4001 0.0
H78 H 0.1962 0.90873 0.34851 0.0
H79 H 0.25969 0.91969 0.50005 0.0
La80 La 0.50156 0.88024 0.14626 0.0
La81 La 0.47874 0.01958 1.01333 0.0
C82 C 0.53728 0.81062 0.29996 0.0
C83 C 0.53986 0.85327 0.38331 0.0
C84 C 0.46375 0.86682 0.4229 0.0
C85 C 0.46575 0.90501 0.50166 0.0
C86 C 0.54383 0.92807 0.54623 0.0
C87 C 0.61945 0.9212 0.50293 0.0
C88 C 0.61685 0.88581 0.42148 0.0
C89 C 0.38902 0.84268 1.01115 0.0
C90 C 0.37308 0.03846 0.17114 0.0
C91 C 0.49268 0.09138 0.86361 0.0
C92 C 0.51282 0.04328 0.7877 0.0
C93 C 0.59135 0.05165 0.74933 0.0
C94 C 0.60554 0.01183 0.67298 0.0
C95 C 0.54283 -0.04127 0.63655 0.0
C96 C 0.47585 0.93508 0.68834 0.0
C97 C 0.45993 -0.02256 0.76149 0.0
C98 C 0.57388 0.05992 0.15576 0.0
C99 C 0.59071 0.85373 0.98069 0.0
O100 O 0.46114 0.8062 0.25583 0.0
O101 O 0.59649 0.83253 0.24778 0.0
O102 O 0.43974 0.78751 1.06254 0.0
O103 O 0.39525 0.91547 1.0426 0.0
O104 O 0.42474 -0.02628 0.208 0.0
O105 O 0.37298 0.06484 0.08568 0.0
O106 O 0.55505 0.08881 0.92736 0.0
O107 O 0.41694 0.07969 0.89399 0.0
O108 O 0.52149 0.1126 0.10417 0.0
O109 O 0.57942 -0.01105 0.12055 0.0
O110 O 0.5349 0.91526 0.94682 0.0
O111 O 0.59896 0.83268 1.06658 0.0
H112 H 0.40206 0.84842 0.39272 0.0
H113 H 0.40537 0.9167 0.52793 0.0
H114 H 0.68118 0.94017 0.53249 0.0
H115 H 0.67586 0.88077 0.38998 0.0
H116 H 0.64125 0.09004 0.77686 0.0
H117 H 0.66405 0.025 0.64205 0.0
H118 H 0.43507 0.88392 0.67211 0.0
H119 H 0.40597 -0.04161 0.79744 0.0
La120 La 0.15663 0.19752 0.26328 0.0
La121 La 0.29594 0.17468 0.39619 0.0
C122 C 0.08488 0.18369 0.11349 0.0
C123 C 0.13296 0.16348 1.0376 0.0
C124 C 0.12447 0.08497 0.9992 0.0
C125 C 0.16427 0.07075 0.92284 0.0
C126 C 0.21749 0.13337 0.88647 0.0
C127 C 0.24127 0.20027 0.93832 0.0
C128 C 0.1989 0.21626 1.01144 0.0
C129 C 0.11602 0.10213 0.40552 0.0
C130 C 0.32237 0.08537 0.23067 0.0
C131 C 0.36561 0.13904 0.54988 0.0
C132 C 0.32296 0.13641 0.63323 0.0
C133 C 0.30946 0.2125 0.67288 0.0
C134 C 0.27127 0.21047 0.75164 0.0
C135 C 0.24814 0.13239 0.79615 0.0
C136 C 0.25494 0.05679 0.75279 0.0
C137 C 0.29035 0.05942 0.67134 0.0
C138 C 0.3333 0.28701 0.26095 0.0
C139 C 0.13759 0.30303 0.42111 0.0
O140 O 0.08733 0.12131 0.17723 0.0
O141 O 0.09669 0.2594 0.14391 0.0
O142 O 0.06343 0.1546 0.35392 0.0
O143 O 0.18715 0.09684 0.37061 0.0
O144 O 0.26084 0.14117 0.19677 0.0
O145 O 0.34344 0.0772 0.31655 0.0
O146 O 0.36996 0.21519 0.50574 0.0
O147 O 0.34378 0.0798 0.49771 0.0
O148 O 0.38853 0.23633 0.31228 0.0
O149 O 0.26062 0.28105 0.29269 0.0
O150 O 0.20235 0.25136 0.45795 0.0
O151 O 0.11126 0.3032 0.33564 0.0
H152 H 0.08603 0.03512 1.02672 0.0
H153 H 0.15101 0.01228 0.89187 0.0
H154 H 0.29254 0.24093 0.92215 0.0
H155 H 0.21801 0.27019 1.0474 0.0
H156 H 0.32792 0.27419 0.64275 0.0
H157 H 0.25962 0.27084 0.77796 0.0
H158 H 0.2359 -0.00493 0.7823 0.0
H159 H 0.29534 0.00042 0.63981 0.0
La160 La 0.65426 0.2028 0.38654 0.0
La161 La 0.77779 0.23307 0.26654 0.0
C162 C 0.57518 0.19089 0.52046 0.0
C163 C 0.60716 0.21261 0.60757 0.0
C164 C 0.54893 0.24036 0.66364 0.0
C165 C 0.5793 0.25826 0.74782 0.0
C166 C 0.66808 0.25929 0.77264 0.0
C167 C 0.72706 0.2346 0.71554 0.0
C168 C 0.69653 0.20811 0.63457 0.0
C169 C 0.59008 0.30288 0.24338 0.0
C170 C 0.8223 0.31657 0.44023 0.0
C171 C 0.82136 0.28525 0.12041 0.0
C172 C 0.77348 0.28049 1.03404 0.0
C173 C 0.74946 0.20022 1.00734 0.0
C174 C 0.71653 0.1939 0.92144 0.0
C175 C 0.69862 0.2686 0.86357 0.0
C176 C 0.71173 0.3503 0.89264 0.0
C177 C 0.74871 0.35626 0.97835 0.0
C178 C 0.84074 0.1187 0.40028 0.0
C179 C 0.63502 0.09363 0.22483 0.0
O180 O 0.56577 0.25785 0.46158 0.0
O181 O 0.61418 0.1243 0.49246 0.0
O182 O 0.55107 0.24156 0.28372 0.0
O183 O 0.66462 0.3075 0.28539 0.0
O184 O 0.75531 0.27239 0.46398 0.0
O185 O 0.84185 0.31724 0.35826 0.0
O186 O 0.85282 0.21222 0.16397 0.0
O187 O 0.78483 0.33638 0.1703 0.0
O188 O 0.88557 0.17298 0.35501 0.0
O189 O 0.76301 0.12433 0.3644 0.0
O190 O 0.69499 0.14423 0.19613 0.0
O191 O 0.61141 0.09874 0.30533 0.0
H192 H 0.48028 0.24338 0.64448 0.0
H193 H 0.53362 0.26604 0.79505 0.0
H194 H 0.79589 0.23032 0.73613 0.0
H195 H 0.74252 0.18109 0.59511 0.0
H196 H 0.7609 0.14119 1.05091 0.0
H197 H 0.70759 0.13024 0.90014 0.0
H198 H 0.69624 0.40867 0.84856 0.0
H199 H 0.75969 0.41963 1.00011 0.0
La200 La 0.65665 0.6975 0.76333 0.0
La201 La 0.79598 0.67467 0.89623 0.0
C202 C 0.58488 0.68364 0.61355 0.0
C203 C 0.63294 0.66345 0.53763 0.0
C204 C 0.6244 0.58498 0.49918 0.0
C205 C 0.66418 0.57078 0.42281 0.0
C206 C 0.71743 0.63338 0.38647 0.0
C207 C 0.74124 0.70025 0.43834 0.0
C208 C 0.69888 0.71623 0.51149 0.0
C209 C 0.61608 0.60222 0.90571 0.0
C210 C 0.82241 0.5854 0.7307 0.0
C211 C 0.86562 0.63902 1.04992 0.0
C212 C 0.82295 0.63641 0.13326 0.0
C213 C 0.80947 0.7125 0.17291 0.0
C214 C 0.77126 0.71048 0.25166 0.0
C215 C 0.74809 0.63241 0.29615 0.0
C216 C 0.75487 0.55681 0.25278 0.0
C217 C 0.7903 0.55942 0.17135 0.0
C218 C 0.83334 0.78708 0.76107 0.0
C219 C 0.63763 0.80304 0.92115 0.0
O220 O 0.5874 0.62125 0.6773 0.0
O221 O 0.59665 0.75935 0.64397 0.0
O222 O 0.56347 0.65456 0.85399 0.0
O223 O 0.68716 0.59687 0.87069 0.0
O224 O 0.7609 0.64122 0.69681 0.0
O225 O 0.84346 0.57719 0.81658 0.0
O226 O 0.87 0.71516 1.00578 0.0
O227 O 0.84379 0.57979 0.99775 0.0
O228 O 0.88856 0.73631 0.81232 0.0
O229 O 0.76063 0.78106 0.79275 0.0
O230 O 0.70242 0.75141 0.95799 0.0
O231 O 0.61128 0.80318 0.83568 0.0
H232 H 0.58594 0.53513 0.52668 0.0
H233 H 0.65088 0.51233 0.3918 0.0
H234 H 0.79252 0.7409 0.42219 0.0
H235 H 0.71801 0.77014 0.54747 0.0
H236 H 0.82796 0.77418 0.1428 0.0
H237 H 0.75962 0.77085 0.27798 0.0
H238 H 0.73581 0.49509 0.28229 0.0
H239 H 0.79528 0.50042 0.13982 0.0
La240 La 0.443 0.39838 1.01652 0.0
La241 La 0.47305 0.52197 0.13646 0.0
C242 C 0.39096 0.3548 0.87036 0.0
C243 C 0.39572 0.40272 0.784 0.0
C244 C 0.47599 0.42673 0.75728 0.0
C245 C 0.48228 0.45969 0.67139 0.0
C246 C 0.40756 0.47763 0.61354 0.0
C247 C 0.32588 0.46452 0.64264 0.0
C248 C 0.31994 0.42752 0.72835 0.0
C249 C 0.55755 0.3354 0.15031 0.0
C250 C 0.58239 0.54112 0.97481 0.0
C251 C 0.48485 0.60116 0.27032 0.0
C252 C 0.46327 0.56916 0.35747 0.0
C253 C 0.43562 0.62737 0.4136 0.0
C254 C 0.41784 0.59698 0.49782 0.0
C255 C 0.41682 0.50819 0.52261 0.0
C256 C 0.44145 0.44922 0.46547 0.0
C257 C 0.46781 0.47978 0.38445 0.0
C258 C 0.37345 0.5859 0.99313 0.0
C259 C 0.35944 0.35377 0.19009 0.0
O260 O 0.46398 0.32339 0.91394 0.0
O261 O 0.33976 0.39125 0.92023 0.0
O262 O 0.50332 0.29058 0.10496 0.0
O263 O 0.55161 0.41317 0.11457 0.0
O264 O 0.53186 0.48111 0.94612 0.0
O265 O 0.57718 0.56479 1.05528 0.0
O266 O 0.41785 0.61038 0.21149 0.0
O267 O 0.5515 0.56228 0.24231 0.0
O268 O 0.4346 0.62504 1.03354 0.0
O269 O 0.36843 0.51146 1.0353 0.0
O270 O 0.40348 0.42085 0.21388 0.0
O271 O 0.35888 0.3342 0.10814 0.0
H272 H 0.53502 0.41528 0.80084 0.0
H273 H 0.54593 0.46866 0.65006 0.0
H274 H 0.2675 0.48003 0.59858 0.0
H275 H 0.25658 0.41654 0.75012 0.0
H276 H 0.43259 0.69604 0.39446 0.0
H277 H 0.41012 0.64264 0.54507 0.0
H278 H 0.44577 0.38039 0.48605 0.0
H279 H 0.49478 0.43381 0.34494 0.0
La280 La 0.00158 0.38027 0.64624 0.0
La281 La -0.0213 0.51959 0.5133 0.0
C282 C 0.03733 0.31066 0.79994 0.0
C283 C 0.03989 0.35329 0.88329 0.0
C284 C 0.96377 0.36681 0.92288 0.0
C285 C 0.96576 0.40499 1.00164 0.0
C286 C 0.04382 0.42809 1.04621 0.0
C287 C 0.11945 0.42125 1.00291 0.0
C288 C 0.11687 0.38586 0.92146 0.0
C289 C 0.88899 0.34269 0.51117 0.0
C290 C 0.87311 0.53849 0.67116 0.0
C291 C -0.00744 0.59139 0.36356 0.0
C292 C 0.01273 0.5433 0.28766 0.0
C293 C 0.09126 0.55171 0.24929 0.0
C294 C 0.10547 0.51189 0.17295 0.0
C295 C 0.0428 0.45876 0.13652 0.0
C296 C -0.02417 0.43507 0.18831 0.0
C297 C 0.95988 0.47743 0.26146 0.0
C298 C 0.07398 0.55998 0.65557 0.0
C299 C 0.09068 0.35372 0.48066 0.0
O300 O 0.9612 0.3062 0.75581 0.0
O301 O 0.09652 0.33259 0.74776 0.0
O302 O 0.93972 0.28752 0.56255 0.0
O303 O 0.89523 0.41548 0.54262 0.0
O304 O 0.92482 0.47377 0.70801 0.0
O305 O 0.87298 0.56485 0.58569 0.0
O306 O 0.05494 0.58888 0.42731 0.0
O307 O 0.91685 0.57963 0.39397 0.0
O308 O 0.02145 0.61262 0.60412 0.0
O309 O 0.07946 0.48895 0.62045 0.0
O310 O 0.03487 0.41527 0.44679 0.0
O311 O 0.09893 0.33268 0.56654 0.0
H312 H 0.9021 0.34838 0.8927 0.0
H313 H 0.90537 0.41666 1.02791 0.0
H314 H 0.18117 0.44025 1.03247 0.0
H315 H 0.17589 0.38085 0.88997 0.0
H316 H 0.14113 0.59012 0.27682 0.0
H317 H 0.16398 0.52508 0.14202 0.0
H318 H 0.93508 0.38389 0.17209 0.0
H319 H 0.90592 0.45835 0.2974 0.0
loop_
_geom_bond_atom_site_label_1
_geom_bond_atom_site_label_2
_geom_bond_distance
_geom_bond_site_symmetry_2
_ccdc_geom_bond_type
La0 C2 2.928 1_655 S
La0 O20 2.521 1_655 S
La0 O21 2.628 . S
La0 O22 2.554 1_655 S
La0 O23 2.757 1_655 S
La0 O24 2.470 1_665 S
La0 O29 2.482 1_565 S
La0 O31 2.503 . S
La1 C11 2.928 1_455 S
La1 O23 2.482 1_545 S
La1 O25 2.503 . S
La1 O26 2.521 1_455 S
La1 O27 2.628 . S
La1 O28 2.554 1_455 S
La1 O29 2.757 1_455 S
La1 O30 2.470 1_445 S
C2 La0 2.928 1_455 S
C2 C3 1.503 . S
C2 O20 1.261 . S
C2 O21 1.243 1_455 S
C3 C2 1.503 . S
C3 C4 1.394 . S
C3 C8 1.373 . S
C4 C3 1.394 . S
C4 C5 1.380 . S
C4 H32 0.930 . S
C5 C4 1.380 . S
C5 C6 1.376 . S
C5 H33 0.930 . S
C6 C5 1.376 . S
C6 C7 1.370 . S
C7 C6 1.370 . S
C7 C8 1.396 . S
C7 H34 0.929 1_565 S
C8 C3 1.373 . S
C8 C7 1.396 . S
C8 H35 0.929 1_465 S
C9 O22 1.240 . S
C9 O23 1.289 . S
C10 O24 1.258 . S
C10 O25 1.256 . S
C11 La1 2.928 1_655 S
C11 C12 1.503 . S
C11 O26 1.261 . S
C11 O27 1.243 1_655 S
C12 C11 1.503 . S
C12 C13 1.394 . S
C12 C17 1.373 . S
C13 C12 1.394 . S
C13 C14 1.380 . S
C13 H36 0.930 . S
C14 C13 1.380 . S
C14 C15 1.376 . S
C14 H37 0.930 . S
C15 C14 1.376 . S
C15 C16 1.370 . S
C16 C15 1.370 . S
C16 C17 1.396 . S
C16 H38 0.929 1_545 S
C17 C12 1.373 . S
C17 C16 1.396 . S
C17 H39 0.929 1_645 S
C18 O28 1.240 . S
C18 O29 1.289 . S
C19 O30 1.258 . S
C19 O31 1.256 . S
O20 La0 2.521 1_455 S
O20 C2 1.261 . S
O21 La0 2.628 . S
O21 C2 1.243 1_655 S
O22 La0 2.554 1_455 S
O22 C9 1.240 . S
O23 La0 2.757 1_455 S
O23 La1 2.482 1_565 S
O23 C9 1.289 . S
O24 La0 2.470 1_445 S
O24 C10 1.258 . S
O25 La1 2.503 . S
O25 C10 1.256 . S
O26 La1 2.521 1_655 S
O26 C11 1.261 . S
O27 La1 2.628 . S
O27 C11 1.243 1_455 S
O28 La1 2.554 1_655 S
O28 C18 1.240 . S
O29 La0 2.482 1_545 S
O29 La1 2.757 1_655 S
O29 C18 1.289 . S
O30 La1 2.470 1_665 S
O30 C19 1.258 . S
O31 La0 2.503 . S
O31 C19 1.256 . S
H32 C4 0.930 . S
H33 C5 0.930 . S
H34 C7 0.929 1_545 S
H35 C8 0.929 1_645 S
H36 C13 0.930 . S
H37 C14 0.930 . S
H38 C16 0.929 1_565 S
H39 C17 0.929 1_465 S
La40 C42 2.928 . S
La40 O60 2.521 . S
La40 O61 2.628 . S
La40 O62 2.554 . S
La40 O63 2.757 . S
La40 O64 2.470 . S
La40 O69 2.482 . S
La40 O71 2.503 . S
La41 C51 2.928 . S
La41 O63 2.482 . S
La41 O65 2.503 . S
La41 O66 2.521 . S
La41 O67 2.628 . S
La41 O68 2.554 . S
La41 O69 2.757 . S
La41 O70 2.470 . S
C42 La40 2.928 . S
C42 C43 1.503 1_556 S
C42 O60 1.261 . S
C42 O61 1.243 . S
C43 C42 1.503 1_554 S
C43 C44 1.394 . S
C43 C48 1.373 . S
C44 C43 1.394 . S
C44 C45 1.380 . S
C44 H72 0.930 . S
C45 C44 1.380 . S
C45 C46 1.376 . S
C45 H73 0.930 . S
C46 C45 1.376 . S
C46 C47 1.370 . S
C47 C46 1.370 . S
C47 C48 1.396 . S
C47 H74 0.929 . S
C48 C43 1.373 . S
C48 C47 1.396 . S
C48 H75 0.929 . S
C49 O62 1.240 . S
C49 O63 1.289 . S
C50 O64 1.258 . S
C50 O65 1.256 . S
C51 La41 2.928 . S
C51 C52 1.503 . S
C51 O66 1.261 . S
C51 O67 1.243 . S
C52 C51 1.503 . S
C52 C53 1.394 . S
C52 C57 1.373 . S
C53 C52 1.394 . S
C53 C54 1.380 . S
C53 H76 0.930 . S
C54 C53 1.380 . S
C54 C55 1.376 . S
C54 H77 0.930 . S
C55 C54 1.376 . S
C55 C56 1.370 . S
C56 C55 1.370 . S
C56 C57 1.396 . S
C56 H78 0.929 . S
C57 C52 1.373 . S
C57 C56 1.396 . S
C57 H79 0.929 . S
C58 O68 1.240 . S
C58 O69 1.289 . S
C59 O70 1.258 . S
C59 O71 1.256 . S
O60 La40 2.521 . S
O60 C42 1.261 . S
O61 La40 2.628 . S
O61 C42 1.243 . S
O62 La40 2.554 . S
O62 C49 1.240 . S
O63 La40 2.757 . S
O63 La41 2.482 . S
O63 C49 1.289 . S
O64 La40 2.470 . S
O64 C50 1.258 . S
O65 La41 2.503 . S
O65 C50 1.256 . S
O66 La41 2.521 . S
O66 C51 1.261 . S
O67 La41 2.628 . S
O67 C51 1.243 . S
O68 La41 2.554 . S
O68 C58 1.240 . S
O69 La40 2.482 . S
O69 La41 2.757 . S
O69 C58 1.289 . S
O70 La41 2.470 . S
O70 C59 1.258 . S
O71 La40 2.503 . S
O71 C59 1.256 . S
H72 C44 0.930 . S
H73 C45 0.930 . S
H74 C47 0.929 . S
H75 C48 0.929 . S
H76 C53 0.930 . S
H77 C54 0.930 . S
H78 C56 0.929 . S
H79 C57 0.929 . S
La80 C82 2.928 . S
La80 O100 2.521 . S
La80 O101 2.628 . S
La80 O102 2.554 . S
La80 O103 2.757 1_554 S
La80 O104 2.470 1_565 S
La80 O109 2.482 1_565 S
La80 O111 2.503 . S
La81 C91 2.928 . S
La81 O103 2.482 1_545 S
La81 O105 2.503 . S
La81 O106 2.521 . S
La81 O107 2.628 . S
La81 O108 2.554 . S
La81 O109 2.757 1_556 S
La81 O110 2.470 1_545 S
C82 La80 2.928 . S
C82 C83 1.503 . S
C82 O100 1.261 . S
C82 O101 1.243 . S
C83 C82 1.503 . S
C83 C84 1.394 . S
C83 C88 1.373 . S
C84 C83 1.394 . S
C84 C85 1.380 . S
C84 H112 0.930 . S
C85 C84 1.380 . S
C85 C86 1.376 . S
C85 H113 0.930 . S
C86 C85 1.376 . S
C86 C87 1.370 . S
C87 C86 1.370 . S
C87 C88 1.396 . S
C87 H114 0.929 . S
C88 C83 1.373 . S
C88 C87 1.396 . S
C88 H115 0.929 . S
C89 O102 1.240 1_556 S
C89 O103 1.289 . S
C90 O104 1.258 . S
C90 O105 1.256 1_554 S
C91 La81 2.928 . S
C91 C92 1.503 . S
C91 O106 1.261 . S
C91 O107 1.243 . S
C92 C91 1.503 . S
C92 C93 1.394 . S
C92 C97 1.373 . S
C93 C92 1.394 . S
C93 C94 1.380 . S
C93 H116 0.930 . S
C94 C93 1.380 . S
C94 C95 1.376 . S
C94 H117 0.930 . S
C95 C94 1.376 . S
C95 C96 1.370 . S
C96 C95 1.370 . S
C96 C97 1.396 . S
C96 H118 0.929 . S
C97 C92 1.373 . S
C97 C96 1.396 . S
C97 H119 0.929 . S
C98 O108 1.240 1_554 S
C98 O109 1.289 . S
C99 O110 1.258 . S
C99 O111 1.256 1_556 S
O100 La80 2.521 . S
O100 C82 1.261 . S
O101 La80 2.628 . S
O101 C82 1.243 . S
O102 La80 2.554 . S
O102 C89 1.240 1_554 S
O103 La80 2.757 1_556 S
O103 La81 2.482 1_565 S
O103 C89 1.289 . S
O104 La80 2.470 1_545 S
O104 C90 1.258 . S
O105 La81 2.503 . S
O105 C90 1.256 1_556 S
O106 La81 2.521 . S
O106 C91 1.261 . S
O107 La81 2.628 . S
O107 C91 1.243 . S
O108 La81 2.554 . S
O108 C98 1.240 1_556 S
O109 La80 2.482 1_545 S
O109 La81 2.757 1_554 S
O109 C98 1.289 . S
O110 La81 2.470 1_565 S
O110 C99 1.258 . S
O111 La80 2.503 . S
O111 C99 1.256 1_554 S
H112 C84 0.930 . S
H113 C85 0.930 . S
H114 C87 0.929 . S
H115 C88 0.929 . S
H116 C93 0.930 . S
H117 C94 0.930 . S
H118 C96 0.929 . S
H119 C97 0.929 . S
La120 C122 2.928 1_554 S
La120 O140 2.521 . S
La120 O141 2.628 . S
La120 O142 2.554 . S
La120 O143 2.757 . S
La120 O144 2.470 . S
La120 O149 2.482 . S
La120 O151 2.503 . S
La121 C131 2.928 . S
La121 O143 2.482 . S
La121 O145 2.503 . S
La121 O146 2.521 . S
La121 O147 2.628 . S
La121 O148 2.554 . S
La121 O149 2.757 . S
La121 O150 2.470 . S
C122 La120 2.928 1_556 S
C122 C123 1.503 . S
C122 O140 1.261 1_556 S
C122 O141 1.243 1_556 S
C123 C122 1.503 . S
C123 C124 1.394 . S
C123 C128 1.373 . S
C124 C123 1.394 . S
C124 C125 1.380 . S
C124 H152 0.930 1_455 S
C125 C124 1.380 . S
C125 C126 1.376 . S
C125 H153 0.930 1_455 S
C126 C125 1.376 . S
C126 C127 1.370 . S
C127 C126 1.370 . S
C127 C128 1.396 . S
C127 H154 0.929 . S
C128 C123 1.373 . S
C128 C127 1.396 . S
C128 H155 0.929 . S
C129 O142 1.240 . S
C129 O143 1.289 . S
C130 O144 1.258 . S
C130 O145 1.256 . S
C131 La121 2.928 . S
C131 C132 1.503 . S
C131 O146 1.261 . S
C131 O147 1.243 . S
C132 C131 1.503 . S
C132 C133 1.394 . S
C132 C137 1.373 . S
C133 C132 1.394 . S
C133 C134 1.380 . S
C133 H156 0.930 . S
C134 C133 1.380 . S
C134 C135 1.376 . S
C134 H157 0.930 . S
C135 C134 1.376 . S
C135 C136 1.370 . S
C136 C135 1.370 . S
C136 C137 1.396 . S
C136 H158 0.929 . S
C137 C132 1.373 . S
C137 C136 1.396 . S
C137 H159 0.929 . S
C138 O148 1.240 . S
C138 O149 1.289 . S
C139 O150 1.258 . S
C139 O151 1.256 . S
O140 La120 2.521 . S
O140 C122 1.261 1_554 S
O141 La120 2.628 . S
O141 C122 1.243 1_554 S
O142 La120 2.554 . S
O142 C129 1.240 . S
O143 La120 2.757 . S
O143 La121 2.482 . S
O143 C129 1.289 . S
O144 La120 2.470 . S
O144 C130 1.258 . S
O145 La121 2.503 . S
O145 C130 1.256 . S
O146 La121 2.521 . S
O146 C131 1.261 . S
O147 La121 2.628 . S
O147 C131 1.243 . S
O148 La121 2.554 . S
O148 C138 1.240 . S
O149 La120 2.482 . S
O149 La121 2.757 . S
O149 C138 1.289 . S
O150 La121 2.470 . S
O150 C139 1.258 . S
O151 La120 2.503 . S
O151 C139 1.256 . S
H152 C124 0.930 1_655 S
H153 C125 0.930 1_655 S
H154 C127 0.929 . S
H155 C128 0.929 . S
H156 C133 0.930 . S
H157 C134 0.930 . S
H158 C136 0.929 . S
H159 C137 0.929 . S
La160 C162 2.928 . S
La160 O180 2.521 . S
La160 O181 2.628 . S
La160 O182 2.554 . S
La160 O183 2.757 . S
La160 O184 2.470 . S
La160 O189 2.482 . S
La160 O191 2.503 . S
La161 C171 2.928 . S
La161 O183 2.482 . S
La161 O185 2.503 . S
La161 O186 2.521 . S
La161 O187 2.628 . S
La161 O188 2.554 . S
La161 O189 2.757 . S
La161 O190 2.470 . S
C162 La160 2.928 . S
C162 C163 1.503 . S
C162 O180 1.261 . S
C162 O181 1.243 . S
C163 C162 1.503 . S
C163 C164 1.394 . S
C163 C168 1.373 . S
C164 C163 1.394 . S
C164 C165 1.380 . S
C164 H192 0.930 . S
C165 C164 1.380 . S
C165 C166 1.376 . S
C165 H193 0.930 . S
C166 C165 1.376 . S
C166 C167 1.370 . S
C167 C166 1.370 . S
C167 C168 1.396 . S
C167 H194 0.929 . S
C168 C163 1.373 . S
C168 C167 1.396 . S
C168 H195 0.929 . S
C169 O182 1.240 . S
C169 O183 1.289 . S
C170 O184 1.258 . S
C170 O185 1.256 . S
C171 La161 2.928 . S
C171 C172 1.503 1_554 S
C171 O186 1.261 . S
C171 O187 1.243 . S
C172 C171 1.503 1_556 S
C172 C173 1.394 . S
C172 C177 1.373 . S
C173 C172 1.394 . S
C173 C174 1.380 . S
C173 H196 0.930 . S
C174 C173 1.380 . S
C174 C175 1.376 . S
C174 H197 0.930 . S
C175 C174 1.376 . S
C175 C176 1.370 . S
C176 C175 1.370 . S
C176 C177 1.396 . S
C176 H198 0.929 . S
C177 C172 1.373 . S
C177 C176 1.396 . S
C177 H199 0.929 . S
C178 O188 1.240 . S
C178 O189 1.289 . S
C179 O190 1.258 . S
C179 O191 1.256 . S
O180 La160 2.521 . S
O180 C162 1.261 . S
O181 La160 2.628 . S
O181 C162 1.243 . S
O182 La160 2.554 . S
O182 C169 1.240 . S
O183 La160 2.757 . S
O183 La161 2.482 . S
O183 C169 1.289 . S
O184 La160 2.470 . S
O184 C170 1.258 . S
O185 La161 2.503 . S
O185 C170 1.256 . S
O186 La161 2.521 . S
O186 C171 1.261 . S
O187 La161 2.628 . S
O187 C171 1.243 . S
O188 La161 2.554 . S
O188 C178 1.240 . S
O189 La160 2.482 . S
O189 La161 2.757 . S
O189 C178 1.289 . S
O190 La161 2.470 . S
O190 C179 1.258 . S
O191 La160 2.503 . S
O191 C179 1.256 . S
H192 C164 0.930 . S
H193 C165 0.930 . S
H194 C167 0.929 . S
H195 C168 0.929 . S
H196 C173 0.930 . S
H197 C174 0.930 . S
H198 C176 0.929 . S
H199 C177 0.929 . S
La200 C202 2.928 . S
La200 O220 2.521 . S
La200 O221 2.628 . S
La200 O222 2.554 . S
La200 O223 2.757 . S
La200 O224 2.470 . S
La200 O229 2.482 . S
La200 O231 2.503 . S
La201 C211 2.928 1_556 S
La201 O223 2.482 . S
La201 O225 2.503 . S
La201 O226 2.521 . S
La201 O227 2.628 . S
La201 O228 2.554 . S
La201 O229 2.757 . S
La201 O230 2.470 . S
C202 La200 2.928 . S
C202 C203 1.503 . S
C202 O220 1.261 . S
C202 O221 1.243 . S
C203 C202 1.503 . S
C203 C204 1.394 . S
C203 C208 1.373 . S
C204 C203 1.394 . S
C204 C205 1.380 . S
C204 H232 0.930 . S
C205 C204 1.380 . S
C205 C206 1.376 . S
C205 H233 0.930 . S
C206 C205 1.376 . S
C206 C207 1.370 . S
C207 C206 1.370 . S
C207 C208 1.396 . S
C207 H234 0.929 . S
C208 C203 1.373 . S
C208 C207 1.396 . S
C208 H235 0.929 . S
C209 O222 1.240 . S
C209 O223 1.289 . S
C210 O224 1.258 . S
C210 O225 1.256 . S
C211 La201 2.928 1_554 S
C211 C212 1.503 . S
C211 O226 1.261 1_554 S
C211 O227 1.243 1_554 S
C212 C211 1.503 . S
C212 C213 1.394 . S
C212 C217 1.373 . S
C213 C212 1.394 . S
C213 C214 1.380 . S
C213 H236 0.930 1_655 S
C214 C213 1.380 . S
C214 C215 1.376 . S
C214 H237 0.930 1_655 S
C215 C214 1.376 . S
C215 C216 1.370 . S
C216 C215 1.370 . S
C216 C217 1.396 . S
C216 H238 0.929 . S
C217 C212 1.373 . S
C217 C216 1.396 . S
C217 H239 0.929 . S
C218 O228 1.240 . S
C218 O229 1.289 . S
C219 O230 1.258 . S
C219 O231 1.256 . S
O220 La200 2.521 . S
O220 C202 1.261 . S
O221 La200 2.628 . S
O221 C202 1.243 . S
O222 La200 2.554 . S
O222 C209 1.240 . S
O223 La200 2.757 . S
O223 La201 2.482 . S
O223 C209 1.289 . S
O224 La200 2.470 . S
O224 C210 1.258 . S
O225 La201 2.503 . S
O225 C210 1.256 . S
O226 La201 2.521 . S
O226 C211 1.261 1_556 S
O227 La201 2.628 . S
O227 C211 1.243 1_556 S
O228 La201 2.554 . S
O228 C218 1.240 . S
O229 La200 2.482 . S
O229 La201 2.757 . S
O229 C218 1.289 . S
O230 La201 2.470 . S
O230 C219 1.258 . S
O231 La200 2.503 . S
O231 C219 1.256 . S
H232 C204 0.930 . S
H233 C205 0.930 . S
H234 C207 0.929 . S
H235 C208 0.929 . S
H236 C213 0.930 1_455 S
H237 C214 0.930 1_455 S
H238 C216 0.929 . S
H239 C217 0.929 . S
La240 C242 2.928 . S
La240 O260 2.521 . S
La240 O261 2.628 . S
La240 O262 2.554 1_556 S
La240 O263 2.757 1_556 S
La240 O264 2.470 . S
La240 O269 2.482 . S
La240 O271 2.503 1_556 S
La241 C251 2.928 . S
La241 O263 2.482 . S
La241 O265 2.503 1_554 S
La241 O266 2.521 . S
La241 O267 2.628 . S
La241 O268 2.554 1_554 S
La241 O269 2.757 1_554 S
La241 O270 2.470 . S
C242 La240 2.928 . S
C242 C243 1.503 . S
C242 O260 1.261 . S
C242 O261 1.243 . S
C243 C242 1.503 . S
C243 C244 1.394 . S
C243 C248 1.373 . S
C244 C243 1.394 . S
C244 C245 1.380 . S
C244 H272 0.930 . S
C245 C244 1.380 . S
C245 C246 1.376 . S
C245 H273 0.930 . S
C246 C245 1.376 . S
C246 C247 1.370 . S
C247 C246 1.370 . S
C247 C248 1.396 . S
C247 H274 0.929 . S
C248 C243 1.373 . S
C248 C247 1.396 . S
C248 H275 0.929 . S
C249 O262 1.240 . S
C249 O263 1.289 . S
C250 O264 1.258 . S
C250 O265 1.256 . S
C251 La241 2.928 . S
C251 C252 1.503 . S
C251 O266 1.261 . S
C251 O267 1.243 . S
C252 C251 1.503 . S
C252 C253 1.394 . S
C252 C257 1.373 . S
C253 C252 1.394 . S
C253 C254 1.380 . S
C253 H276 0.930 . S
C254 C253 1.380 . S
C254 C255 1.376 . S
C254 H277 0.930 . S
C255 C254 1.376 . S
C255 C256 1.370 . S
C256 C255 1.370 . S
C256 C257 1.396 . S
C256 H278 0.929 . S
C257 C252 1.373 . S
C257 C256 1.396 . S
C257 H279 0.929 . S
C258 O268 1.240 . S
C258 O269 1.289 . S
C259 O270 1.258 . S
C259 O271 1.256 . S
O260 La240 2.521 . S
O260 C242 1.261 . S
O261 La240 2.628 . S
O261 C242 1.243 . S
O262 La240 2.554 1_554 S
O262 C249 1.240 . S
O263 La240 2.757 1_554 S
O263 La241 2.482 . S
O263 C249 1.289 . S
O264 La240 2.470 . S
O264 C250 1.258 . S
O265 La241 2.503 1_556 S
O265 C250 1.256 . S
O266 La241 2.521 . S
O266 C251 1.261 . S
O267 La241 2.628 . S
O267 C251 1.243 . S
O268 La241 2.554 1_556 S
O268 C258 1.240 . S
O269 La240 2.482 . S
O269 La241 2.757 1_556 S
O269 C258 1.289 . S
O270 La241 2.470 . S
O270 C259 1.258 . S
O271 La240 2.503 1_554 S
O271 C259 1.256 . S
H272 C244 0.930 . S
H273 C245 0.930 . S
H274 C247 0.929 . S
H275 C248 0.929 . S
H276 C253 0.930 . S
H277 C254 0.930 . S
H278 C256 0.929 . S
H279 C257 0.929 . S
La280 C282 2.928 1_455 S
La280 O300 2.521 1_455 S
La280 O301 2.628 . S
La280 O302 2.554 1_455 S
La280 O303 2.757 1_455 S
La280 O304 2.470 1_455 S
La280 O309 2.482 . S
La280 O311 2.503 . S
La281 C291 2.928 1_655 S
La281 O303 2.482 . S
La281 O305 2.503 . S
La281 O306 2.521 1_655 S
La281 O307 2.628 . S
La281 O308 2.554 1_655 S
La281 O309 2.757 1_655 S
La281 O310 2.470 1_655 S
C282 La280 2.928 1_655 S
C282 C283 1.503 . S
C282 O300 1.261 . S
C282 O301 1.243 1_655 S
C283 C282 1.503 . S
C283 C284 1.394 . S
C283 C288 1.373 . S
C284 C283 1.394 . S
C284 C285 1.380 . S
C284 H312 0.930 . S
C285 C284 1.380 . S
C285 C286 1.376 . S
C285 H313 0.930 . S
C286 C285 1.376 . S
C286 C287 1.370 . S
C287 C286 1.370 . S
C287 C288 1.396 . S
C287 H314 0.929 . S
C288 C283 1.373 . S
C288 C287 1.396 . S
C288 H315 0.929 1_655 S
C289 O302 1.240 . S
C289 O303 1.289 . S
C290 O304 1.258 . S
C290 O305 1.256 . S
C291 La281 2.928 1_455 S
C291 C292 1.503 . S
C291 O306 1.261 . S
C291 O307 1.243 1_455 S
C292 C291 1.503 . S
C292 C293 1.394 . S
C292 C297 1.373 . S
C293 C292 1.394 . S
C293 C294 1.380 . S
C293 H316 0.930 . S
C294 C293 1.380 . S
C294 C295 1.376 . S
C294 H317 0.930 . S
C295 C294 1.376 . S
C295 C296 1.370 . S
C296 C295 1.370 . S
C296 C297 1.396 . S
C296 H318 0.929 . S
C297 C292 1.373 . S
C297 C296 1.396 . S
C297 H319 0.929 1_455 S
C298 O308 1.240 . S
C298 O309 1.289 . S
C299 O310 1.258 . S
C299 O311 1.256 . S
O300 La280 2.521 1_655 S
O300 C282 1.261 . S
O301 La280 2.628 . S
O301 C282 1.243 1_455 S
O302 La280 2.554 1_655 S
O302 C289 1.240 . S
O303 La280 2.757 1_655 S
O303 La281 2.482 . S
O303 C289 1.289 . S
O304 La280 2.470 1_655 S
O304 C290 1.258 . S
O305 La281 2.503 . S
O305 C290 1.256 . S
O306 La281 2.521 1_455 S
O306 C291 1.261 . S
O307 La281 2.628 . S
O307 C291 1.243 1_655 S
O308 La281 2.554 1_455 S
O308 C298 1.240 . S
O309 La280 2.482 . S
O309 La281 2.757 1_455 S
O309 C298 1.289 . S
O310 La281 2.470 1_455 S
O310 C299 1.258 . S
O311 La280 2.503 . S
O311 C299 1.256 . S
H312 C284 0.930 . S
H313 C285 0.930 . S
H314 C287 0.929 . S
H315 C288 0.929 1_455 S
H316 C293 0.930 . S
H317 C294 0.930 . S
H318 C296 0.929 . S
H319 C297 0.929 1_655 S
C10 C129 2.335 . S
C9 C49 2.106 . S
C50 C89 2.335 . S
C90 C130 2.665 . S
C19 C218 2.335 . S
C18 C178 2.106 . S
C179 C98 2.335 . S
C219 C99 2.665 . S
C250 C209 2.335 . S
C169 C249 2.106 . S
C289 C170 2.335 . S
C210 C290 2.666 . S
C138 C259 2.335 . S
C258 C58 2.106 . S
C59 C298 2.335 . S
C139 C299 2.665 . S
C15 C6 4.013 1_646 S
C55 C46 4.014 . S
C95 C86 5.484 1_545 S
C126 C135 5.483 . S
C175 C166 4.013 . S
C206 C215 5.484 . S
C246 C255 4.013 . S
C286 C295 5.484 1_656 S
