# Generated by pormake.
# Topology wgj, (5)-cn, num edge types: 1
# Building blocks:
#     Node 0, Type 0, BuildingBlock: XOMCOT_clean_sbu_1, # of connection points: 5
#     Node 1, Type 0, BuildingBlock: XOMCOT_clean_sbu_1, # of connection points: 5
#     Node 2, Type 0, BuildingBlock: XOMCOT_clean_sbu_1, # of connection points: 5
#     Node 3, Type 0, BuildingBlock: XOMCOT_clean_sbu_1, # of connection points: 5
#     Node 4, Type 0, BuildingBlock: XOMCOT_clean_sbu_1, # of connection points: 5
#     Node 5, Type 0, BuildingBlock: XOMCOT_clean_sbu_1, # of connection points: 5
#     Node 6, Type 0, BuildingBlock: XOMCOT_clean_sbu_1, # of connection points: 5
#     Node 7, Type 0, BuildingBlock: XOMCOT_clean_sbu_1, # of connection points: 5
#     Node 8, Type 0, BuildingBlock: XOMCOT_clean_sbu_1, # of connection points: 5
#     Node 9, Type 0, BuildingBlock: XOMCOT_clean_sbu_1, # of connection points: 5
#     Node 10, Type 0, BuildingBlock: XOMCOT_clean_sbu_1, # of connection points: 5
#     Node 11, Type 0, BuildingBlock: XOMCOT_clean_sbu_1, # of connection points: 5
#     Node 12, Type 0, BuildingBlock: XOMCOT_clean_sbu_1, # of connection points: 5
#     Node 13, Type 0, BuildingBlock: XOMCOT_clean_sbu_1, # of connection points: 5
#     Node 14, Type 0, BuildingBlock: XOMCOT_clean_sbu_1, # of connection points: 5
#     Node 15, Type 0, BuildingBlock: XOMCOT_clean_sbu_1, # of connection points: 5
#     Node 16, Type 0, BuildingBlock: XOMCOT_clean_sbu_1, # of connection points: 5
#     Node 17, Type 0, BuildingBlock: XOMCOT_clean_sbu_1, # of connection points: 5
#     Node 18, Type 0, BuildingBlock: XOMCOT_clean_sbu_1, # of connection points: 5
#     Node 19, Type 0, BuildingBlock: XOMCOT_clean_sbu_1, # of connection points: 5
#     Node 20, Type 0, BuildingBlock: XOMCOT_clean_sbu_1, # of connection points: 5
#     Node 21, Type 0, BuildingBlock: XOMCOT_clean_sbu_1, # of connection points: 5
#     Node 22, Type 0, BuildingBlock: XOMCOT_clean_sbu_1, # of connection points: 5
#     Node 23, Type 0, BuildingBlock: XOMCOT_clean_sbu_1, # of connection points: 5
#     Node 24, Type 0, BuildingBlock: XOMCOT_clean_sbu_1, # of connection points: 5
#     Node 25, Type 0, BuildingBlock: XOMCOT_clean_sbu_1, # of connection points: 5
#     Node 26, Type 0, BuildingBlock: XOMCOT_clean_sbu_1, # of connection points: 5
#     Node 27, Type 0, BuildingBlock: XOMCOT_clean_sbu_1, # of connection points: 5
#     Node 28, Type 0, BuildingBlock: XOMCOT_clean_sbu_1, # of connection points: 5
#     Node 29, Type 0, BuildingBlock: XOMCOT_clean_sbu_1, # of connection points: 5
#     Node 30, Type 0, BuildingBlock: XOMCOT_clean_sbu_1, # of connection points: 5
#     Node 31, Type 0, BuildingBlock: XOMCOT_clean_sbu_1, # of connection points: 5
#     Edge 32, Type (0, 0), BuildingBlock: XIVTED_clean_linker_0, # of connection points: 2
#     Edge 33, Type (0, 0), BuildingBlock: XIVTED_clean_linker_0, # of connection points: 2
#     Edge 34, Type (0, 0), BuildingBlock: XIVTED_clean_linker_0, # of connection points: 2
#     Edge 35, Type (0, 0), BuildingBlock: XIVTED_clean_linker_0, # of connection points: 2
#     Edge 36, Type (0, 0), BuildingBlock: XIVTED_clean_linker_0, # of connection points: 2
#     Edge 37, Type (0, 0), BuildingBlock: XIVTED_clean_linker_0, # of connection points: 2
#     Edge 38, Type (0, 0), BuildingBlock: XIVTED_clean_linker_0, # of connection points: 2
#     Edge 39, Type (0, 0), BuildingBlock: XIVTED_clean_linker_0, # of connection points: 2
#     Edge 40, Type (0, 0), BuildingBlock: XIVTED_clean_linker_0, # of connection points: 2
#     Edge 41, Type (0, 0), BuildingBlock: XIVTED_clean_linker_0, # of connection points: 2
#     Edge 42, Type (0, 0), BuildingBlock: XIVTED_clean_linker_0, # of connection points: 2
#     Edge 43, Type (0, 0), BuildingBlock: XIVTED_clean_linker_0, # of connection points: 2
#     Edge 44, Type (0, 0), BuildingBlock: XIVTED_clean_linker_0, # of connection points: 2
#     Edge 45, Type (0, 0), BuildingBlock: XIVTED_clean_linker_0, # of connection points: 2
#     Edge 46, Type (0, 0), BuildingBlock: XIVTED_clean_linker_0, # of connection points: 2
#     Edge 47, Type (0, 0), BuildingBlock: XIVTED_clean_linker_0, # of connection points: 2
#     Edge 48, Type (0, 0), BuildingBlock: XIVTED_clean_linker_0, # of connection points: 2
#     Edge 49, Type (0, 0), BuildingBlock: XIVTED_clean_linker_0, # of connection points: 2
#     Edge 50, Type (0, 0), BuildingBlock: XIVTED_clean_linker_0, # of connection points: 2
#     Edge 51, Type (0, 0), BuildingBlock: XIVTED_clean_linker_0, # of connection points: 2
#     Edge 52, Type (0, 0), BuildingBlock: XIVTED_clean_linker_0, # of connection points: 2
#     Edge 53, Type (0, 0), BuildingBlock: XIVTED_clean_linker_0, # of connection points: 2
#     Edge 54, Type (0, 0), BuildingBlock: XIVTED_clean_linker_0, # of connection points: 2
#     Edge 55, Type (0, 0), BuildingBlock: XIVTED_clean_linker_0, # of connection points: 2
#     Edge 56, Type (0, 0), BuildingBlock: XIVTED_clean_linker_0, # of connection points: 2
#     Edge 57, Type (0, 0), BuildingBlock: XIVTED_clean_linker_0, # of connection points: 2
#     Edge 58, Type (0, 0), BuildingBlock: XIVTED_clean_linker_0, # of connection points: 2
#     Edge 59, Type (0, 0), BuildingBlock: XIVTED_clean_linker_0, # of connection points: 2
#     Edge 60, Type (0, 0), BuildingBlock: XIVTED_clean_linker_0, # of connection points: 2
#     Edge 61, Type (0, 0), BuildingBlock: XIVTED_clean_linker_0, # of connection points: 2
#     Edge 62, Type (0, 0), BuildingBlock: XIVTED_clean_linker_0, # of connection points: 2
#     Edge 63, Type (0, 0), BuildingBlock: XIVTED_clean_linker_0, # of connection points: 2
#     Edge 64, Type (0, 0), BuildingBlock: XIVTED_clean_linker_0, # of connection points: 2
#     Edge 65, Type (0, 0), BuildingBlock: XIVTED_clean_linker_0, # of connection points: 2
#     Edge 66, Type (0, 0), BuildingBlock: XIVTED_clean_linker_0, # of connection points: 2
#     Edge 67, Type (0, 0), BuildingBlock: XIVTED_clean_linker_0, # of connection points: 2
#     Edge 68, Type (0, 0), BuildingBlock: XIVTED_clean_linker_0, # of connection points: 2
#     Edge 69, Type (0, 0), BuildingBlock: XIVTED_clean_linker_0, # of connection points: 2
#     Edge 70, Type (0, 0), BuildingBlock: XIVTED_clean_linker_0, # of connection points: 2
#     Edge 71, Type (0, 0), BuildingBlock: XIVTED_clean_linker_0, # of connection points: 2
#     Edge 72, Type (0, 0), BuildingBlock: XIVTED_clean_linker_0, # of connection points: 2
#     Edge 73, Type (0, 0), BuildingBlock: XIVTED_clean_linker_0, # of connection points: 2
#     Edge 74, Type (0, 0), BuildingBlock: XIVTED_clean_linker_0, # of connection points: 2
#     Edge 75, Type (0, 0), BuildingBlock: XIVTED_clean_linker_0, # of connection points: 2
#     Edge 76, Type (0, 0), BuildingBlock: XIVTED_clean_linker_0, # of connection points: 2
#     Edge 77, Type (0, 0), BuildingBlock: XIVTED_clean_linker_0, # of connection points: 2
#     Edge 78, Type (0, 0), BuildingBlock: XIVTED_clean_linker_0, # of connection points: 2
#     Edge 79, Type (0, 0), BuildingBlock: XIVTED_clean_linker_0, # of connection points: 2
#     Edge 80, Type (0, 0), BuildingBlock: XIVTED_clean_linker_0, # of connection points: 2
#     Edge 81, Type (0, 0), BuildingBlock: XIVTED_clean_linker_0, # of connection points: 2
#     Edge 82, Type (0, 0), BuildingBlock: XIVTED_clean_linker_0, # of connection points: 2
#     Edge 83, Type (0, 0), BuildingBlock: XIVTED_clean_linker_0, # of connection points: 2
#     Edge 84, Type (0, 0), BuildingBlock: XIVTED_clean_linker_0, # of connection points: 2
#     Edge 85, Type (0, 0), BuildingBlock: XIVTED_clean_linker_0, # of connection points: 2
#     Edge 86, Type (0, 0), BuildingBlock: XIVTED_clean_linker_0, # of connection points: 2
#     Edge 87, Type (0, 0), BuildingBlock: XIVTED_clean_linker_0, # of connection points: 2
#     Edge 88, Type (0, 0), BuildingBlock: XIVTED_clean_linker_0, # of connection points: 2
#     Edge 89, Type (0, 0), BuildingBlock: XIVTED_clean_linker_0, # of connection points: 2
#     Edge 90, Type (0, 0), BuildingBlock: XIVTED_clean_linker_0, # of connection points: 2
#     Edge 91, Type (0, 0), BuildingBlock: XIVTED_clean_linker_0, # of connection points: 2
#     Edge 92, Type (0, 0), BuildingBlock: XIVTED_clean_linker_0, # of connection points: 2
#     Edge 93, Type (0, 0), BuildingBlock: XIVTED_clean_linker_0, # of connection points: 2
#     Edge 94, Type (0, 0), BuildingBlock: XIVTED_clean_linker_0, # of connection points: 2
#     Edge 95, Type (0, 0), BuildingBlock: XIVTED_clean_linker_0, # of connection points: 2
#     Edge 96, Type (0, 0), BuildingBlock: XIVTED_clean_linker_0, # of connection points: 2
#     Edge 97, Type (0, 0), BuildingBlock: XIVTED_clean_linker_0, # of connection points: 2
#     Edge 98, Type (0, 0), BuildingBlock: XIVTED_clean_linker_0, # of connection points: 2
#     Edge 99, Type (0, 0), BuildingBlock: XIVTED_clean_linker_0, # of connection points: 2
#     Edge 100, Type (0, 0), BuildingBlock: XIVTED_clean_linker_0, # of connection points: 2
#     Edge 101, Type (0, 0), BuildingBlock: XIVTED_clean_linker_0, # of connection points: 2
#     Edge 102, Type (0, 0), BuildingBlock: XIVTED_clean_linker_0, # of connection points: 2
#     Edge 103, Type (0, 0), BuildingBlock: XIVTED_clean_linker_0, # of connection points: 2
#     Edge 104, Type (0, 0), BuildingBlock: XIVTED_clean_linker_0, # of connection points: 2
#     Edge 105, Type (0, 0), BuildingBlock: XIVTED_clean_linker_0, # of connection points: 2
#     Edge 106, Type (0, 0), BuildingBlock: XIVTED_clean_linker_0, # of connection points: 2
#     Edge 107, Type (0, 0), BuildingBlock: XIVTED_clean_linker_0, # of connection points: 2
#     Edge 108, Type (0, 0), BuildingBlock: XIVTED_clean_linker_0, # of connection points: 2
#     Edge 109, Type (0, 0), BuildingBlock: XIVTED_clean_linker_0, # of connection points: 2
#     Edge 110, Type (0, 0), BuildingBlock: XIVTED_clean_linker_0, # of connection points: 2
#     Edge 111, Type (0, 0), BuildingBlock: XIVTED_clean_linker_0, # of connection points: 2
# Relax obj value: 0.253
# Max RMSD: 0.142
# Mean RMSD: 0.142
data_MOF--net-wgj--node1-XOMCOT_clean_sbu_1--edge1-XIVTED_clean_linker_0
_symmetry_space_group_name_H-M    P1
_symmetry_Int_Tables_number       1
_symmetry_cell_setting            triclinic
loop_
_symmetry_equiv_pos_as_xyz
'x, y, z'
_cell_length_a     67.821882
_cell_length_b     67.832132
_cell_length_c     30.582006
_cell_angle_alpha  89.983165
_cell_angle_beta   89.905286
_cell_angle_gamma 90.014027
loop_
_atom_site_label
_atom_site_type_symbol
_atom_site_fract_x
_atom_site_fract_y
_atom_site_fract_z
_atom_type_partial_charge
C0 C 0.18766 0.18228 0.27097 0.0
C1 C 0.20085 0.19549 0.25355 0.0
N2 N 0.21188 0.20283 0.28635 0.0
N3 N 0.19041 0.18116 0.3145 0.0
C4 C 0.20535 0.19373 0.32296 0.0
H5 H 0.17617 0.17466 0.25329 0.0
Co6 Co 0.17346 0.16785 0.35157 0.0
C7 C 0.19588 0.16266 0.43639 0.0
O8 O 0.17934 0.16514 0.45815 0.0
N9 N 0.15542 0.1541 0.38731 0.0
C10 C 0.14033 0.12941 0.42188 0.0
C11 C 0.15823 0.1367 0.40788 0.0
C12 C 0.13564 0.15676 0.38827 0.0
N13 N 0.12612 0.14196 0.40899 0.0
O14 O 0.17961 0.14355 0.32064 0.0
H15 H 0.17223 0.12914 0.41004 0.0
H16 H 0.12814 0.16856 0.37145 0.0
O17 O 0.19562 0.16353 0.39435 0.0
C18 C 0.16552 0.13801 0.29571 0.0
O19 O 0.14878 0.14771 0.29722 0.0
N20 N 0.16608 0.19236 0.37611 0.0
C21 C 0.15486 0.2318 0.38673 0.0
C22 C 0.16988 0.22361 0.41249 0.0
C23 C 0.17558 0.20394 0.40608 0.0
C24 C 0.15121 0.20009 0.35157 0.0
C25 C 0.14531 0.21966 0.35643 0.0
H26 H 0.18848 0.19885 0.423 0.0
H27 H 0.14461 0.19125 0.32607 0.0
H28 H 0.21051 0.19705 0.35558 0.0
H29 H 0.20183 0.19975 0.21952 0.0
H30 H 0.13783 0.11525 0.43729 0.0
H31 H 0.17801 0.23268 0.43537 0.0
H32 H 0.13374 0.22541 0.33564 0.0
C33 C 0.08379 0.93654 0.52317 0.0
C34 C 0.07078 0.94997 0.50594 0.0
N35 N 0.06475 0.96199 0.53838 0.0
N36 N 0.08606 0.94013 0.56616 0.0
C37 C 0.07439 0.95581 0.5745 0.0
H38 H 0.09046 0.92433 0.5059 0.0
Co39 Co 0.09991 0.92368 0.60311 0.0
C40 C 0.10577 0.94656 0.68657 0.0
O41 O 0.10315 0.93009 0.70847 0.0
N42 N 0.11433 0.90617 0.6388 0.0
C43 C 0.14038 0.89214 0.67021 0.0
C44 C 0.1322 0.90966 0.65662 0.0
C45 C 0.11216 0.88636 0.64153 0.0
N46 N 0.12783 0.87741 0.66023 0.0
O47 O 0.1237 0.9296 0.57004 0.0
H48 H 0.13944 0.92386 0.65693 0.0
H49 H 0.1003 0.87838 0.62609 0.0
O50 O 0.10479 0.94623 0.64455 0.0
C51 C 0.1291 0.91532 0.54542 0.0
O52 O 0.11972 0.89845 0.54852 0.0
N53 N 0.07572 0.91661 0.62997 0.0
C54 C 0.03606 0.90636 0.6432 0.0
C55 C 0.04443 0.92256 0.66493 0.0
C56 C 0.06419 0.9276 0.65749 0.0
C57 C 0.06782 0.9007 0.60913 0.0
C58 C 0.04821 0.89515 0.61569 0.0
H59 H 0.06939 0.9412 0.67134 0.0
H60 H 0.07643 0.89307 0.58463 0.0
H61 H 0.07251 0.96216 0.60665 0.0
H62 H 0.06533 0.95011 0.4727 0.0
H63 H 0.15492 0.89036 0.6842 0.0
H64 H 0.03558 0.93179 0.68614 0.0
H65 H 0.04233 0.88292 0.59704 0.0
C66 C 0.3301 0.83636 0.7698 0.0
C67 C 0.31664 0.8234 0.75251 0.0
N68 N 0.30564 0.8161 0.78549 0.0
N69 N 0.32751 0.83738 0.81341 0.0
C70 C 0.31245 0.82496 0.82206 0.0
H71 H 0.34171 0.84379 0.752 0.0
Co72 Co 0.34452 0.8505 0.85049 0.0
C73 C 0.32211 0.85558 0.93542 0.0
O74 O 0.33861 0.85285 0.95707 0.0
N75 N 0.3626 0.86408 0.88633 0.0
C76 C 0.37759 0.88862 0.92148 0.0
C77 C 0.35975 0.88144 0.90706 0.0
C78 C 0.38237 0.86135 0.88759 0.0
N79 N 0.39182 0.87605 0.9087 0.0
O80 O 0.33855 0.87489 0.8198 0.0
H81 H 0.34575 0.88903 0.90913 0.0
H82 H 0.38991 0.84955 0.8708 0.0
O83 O 0.32239 0.85488 0.89337 0.0
C84 C 0.3527 0.8804 0.79488 0.0
O85 O 0.36939 0.87062 0.79631 0.0
N86 N 0.35172 0.82588 0.87481 0.0
C87 C 0.3626 0.78632 0.885 0.0
C88 C 0.34752 0.79453 0.91064 0.0
C89 C 0.342 0.81426 0.90443 0.0
C90 C 0.36664 0.81812 0.85037 0.0
C91 C 0.37237 0.79848 0.85501 0.0
H92 H 0.32904 0.81937 0.92121 0.0
H93 H 0.37342 0.827 0.8251 0.0
H94 H 0.30707 0.82193 0.85468 0.0
H95 H 0.31585 0.81882 0.71866 0.0
H96 H 0.38005 0.90271 0.93716 0.0
H97 H 0.33922 0.78545 0.93327 0.0
H98 H 0.38399 0.79271 0.83431 0.0
C99 C 0.43404 0.08146 1.02295 0.0
C100 C 0.44692 0.068 1.00539 0.0
N101 N 0.45324 0.05612 0.03778 0.0
N102 N 0.43211 0.07802 0.06612 0.0
C103 C 0.44389 0.06242 0.07424 0.0
H104 H 0.42722 0.09359 1.00574 0.0
Co105 Co 0.41839 0.09463 0.10306 0.0
C106 C 0.41254 0.0722 0.18715 0.0
O107 O 0.41516 0.08883 0.20838 0.0
N108 N 0.40409 0.11232 0.1386 0.0
C109 C 0.37814 0.12662 0.16999 0.0
C110 C 0.3862 0.10901 0.15659 0.0
C111 C 0.4064 0.13212 0.141 0.0
N112 N 0.39079 0.14123 0.1597 0.0
O113 O 0.39449 0.08871 0.07045 0.0
H114 H 0.37886 0.09486 0.15717 0.0
H115 H 0.4183 0.13998 0.12533 0.0
O116 O 0.41351 0.07222 0.1451 0.0
C117 C 0.38917 0.10294 0.04563 0.0
O118 O 0.39877 0.11972 0.04813 0.0
N119 N 0.44265 0.10169 0.12947 0.0
C120 C 0.48223 0.11205 0.14323 0.0
C121 C 0.47378 0.09589 0.16501 0.0
C122 C 0.45408 0.09078 0.15727 0.0
C123 C 0.45064 0.11753 0.10845 0.0
C124 C 0.47021 0.12314 0.11526 0.0
H125 H 0.44885 0.0772 0.17121 0.0
H126 H 0.44212 0.12511 0.08376 0.0
H127 H 0.44607 0.0562 0.10643 0.0
H128 H 0.45212 0.06774 0.97191 0.0
H129 H 0.36362 0.12854 0.18407 0.0
H130 H 0.48252 0.08674 0.18656 0.0
H131 H 0.47617 0.13533 0.09655 0.0
C132 C 0.18601 0.83376 0.27835 0.0
C133 C 0.19942 0.82086 0.29594 0.0
N134 N 0.21149 0.81468 0.26369 0.0
N135 N 0.18965 0.83585 0.23529 0.0
C136 C 0.20532 0.82413 0.22728 0.0
H137 H 0.1738 0.84055 0.29545 0.0
Co138 Co 0.17323 0.84974 0.1983 0.0
C139 C 0.19621 0.85576 0.11485 0.0
O140 O 0.17975 0.85325 0.09291 0.0
N141 N 0.1557 0.86419 0.16264 0.0
C142 C 0.14158 0.89021 0.13125 0.0
C143 C 0.15913 0.88208 0.14478 0.0
C144 C 0.13589 0.86196 0.16 0.0
N145 N 0.12688 0.87762 0.1413 0.0
O146 O 0.17914 0.87352 0.23134 0.0
H147 H 0.17331 0.88937 0.14439 0.0
H148 H 0.12795 0.85008 0.1755 0.0
O149 O 0.19582 0.85465 0.15686 0.0
C150 C 0.16487 0.87903 0.25589 0.0
O151 O 0.14793 0.86977 0.25283 0.0
N152 N 0.16618 0.8256 0.1714 0.0
C153 C 0.15559 0.78615 0.1569 0.0
C154 C 0.17192 0.79452 0.13554 0.0
C155 C 0.17713 0.81417 0.14363 0.0
C156 C 0.15021 0.81768 0.19209 0.0
C157 C 0.14448 0.79818 0.18489 0.0
H158 H 0.19079 0.81936 0.12996 0.0
H159 H 0.14262 0.82618 0.21682 0.0
H160 H 0.21172 0.8221 0.19518 0.0
H161 H 0.19956 0.81561 0.32936 0.0
H162 H 0.13975 0.90474 0.11722 0.0
H163 H 0.18109 0.78575 0.11403 0.0
H164 H 0.13218 0.79227 0.20331 0.0
C165 C 0.43329 0.93667 0.53168 0.0
C166 C 0.44643 0.94962 0.55002 0.0
N167 N 0.45353 0.96138 0.51814 0.0
N168 N 0.43196 0.94027 0.48849 0.0
C169 C 0.44431 0.95553 0.48118 0.0
H170 H 0.42581 0.92477 0.54843 0.0
Co171 Co 0.41842 0.92392 0.45069 0.0
C172 C 0.41423 0.94636 0.36631 0.0
O173 O 0.41725 0.92971 0.34535 0.0
N174 N 0.40429 0.90647 0.41423 0.0
C175 C 0.37858 0.89265 0.38104 0.0
C176 C 0.38676 0.91011 0.39499 0.0
C177 C 0.40626 0.88663 0.41195 0.0
N178 N 0.39078 0.87781 0.39219 0.0
O179 O 0.39422 0.93029 0.48186 0.0
H180 H 0.37971 0.9244 0.39389 0.0
H181 H 0.41777 0.87855 0.42839 0.0
O182 O 0.41449 0.94636 0.4084 0.0
C183 C 0.38829 0.91614 0.50627 0.0
O184 O 0.3975 0.89914 0.504 0.0
N185 N 0.4429 0.91637 0.42592 0.0
C186 C 0.48252 0.90519 0.41665 0.0
C187 C 0.47491 0.92135 0.39344 0.0
C188 C 0.45513 0.92688 0.39897 0.0
C189 C 0.45005 0.90046 0.44802 0.0
C190 C 0.4696 0.89443 0.44337 0.0
H191 H 0.45047 0.94051 0.38428 0.0
H192 H 0.44082 0.89313 0.47186 0.0
H193 H 0.44736 0.96144 0.44905 0.0
H194 H 0.45082 0.94993 0.58401 0.0
H195 H 0.36425 0.891 0.36597 0.0
H196 H 0.48444 0.93047 0.37344 0.0
H197 H 0.4747 0.88185 0.46199 0.0
C198 C 0.33126 0.18312 0.78003 0.0
C199 C 0.31806 0.19619 0.79786 0.0
N200 N 0.30626 0.20286 0.76568 0.0
N201 N 0.32777 0.18142 0.73686 0.0
C202 C 0.31233 0.19348 0.72906 0.0
H203 H 0.34325 0.176 0.79708 0.0
Co204 Co 0.34448 0.16804 0.69943 0.0
C205 C 0.32163 0.16232 0.61563 0.0
O206 O 0.33806 0.16514 0.59366 0.0
N207 N 0.36234 0.15418 0.66342 0.0
C208 C 0.37726 0.12921 0.62942 0.0
C209 C 0.35942 0.13664 0.64347 0.0
C210 C 0.38213 0.15677 0.66197 0.0
N211 N 0.39154 0.14181 0.64165 0.0
O212 O 0.33886 0.14391 0.73154 0.0
H213 H 0.34541 0.12906 0.64192 0.0
H214 H 0.38974 0.16862 0.67834 0.0
O215 O 0.32201 0.16316 0.65768 0.0
C216 C 0.35316 0.13862 0.75616 0.0
O217 O 0.36983 0.14841 0.75376 0.0
N218 N 0.35129 0.1925 0.6735 0.0
C219 C 0.36162 0.2321 0.65989 0.0
C220 C 0.34566 0.22358 0.63758 0.0
C221 C 0.34056 0.20387 0.64525 0.0
C222 C 0.36689 0.20056 0.69513 0.0
C223 C 0.37248 0.22014 0.68843 0.0
H224 H 0.32714 0.19857 0.63078 0.0
H225 H 0.37432 0.19206 0.72008 0.0
H226 H 0.30646 0.19624 0.69679 0.0
H227 H 0.31761 0.20084 0.83169 0.0
H228 H 0.37967 0.11492 0.61458 0.0
H229 H 0.33668 0.23228 0.61559 0.0
H230 H 0.38449 0.22615 0.70755 0.0
C231 C 0.08532 0.081 0.03049 0.0
C232 C 0.07227 0.06757 0.04759 0.0
N233 N 0.06543 0.05631 1.01464 0.0
N234 N 0.08685 0.07814 0.98705 0.0
C235 C 0.07463 0.06295 0.97828 0.0
H236 H 0.09256 0.09272 0.04827 0.0
Co237 Co 0.10056 0.09483 0.95025 0.0
C238 C 0.10609 0.07232 0.86584 0.0
O239 O 0.10392 0.08889 0.8441 0.0
N240 N 0.11475 0.11255 0.91469 0.0
C241 C 0.14046 0.12702 0.88274 0.0
C242 C 0.13257 0.10935 0.89626 0.0
C243 C 0.11231 0.13234 0.91241 0.0
N244 N 0.12778 0.14155 0.89338 0.0
O245 O 0.12457 0.08851 0.98203 0.0
H246 H 0.13996 0.09523 0.89538 0.0
H247 H 0.10038 0.14007 0.92831 0.0
O248 O 0.10496 0.07257 0.90785 0.0
C249 C 0.13012 0.10262 1.00693 0.0
O250 O 0.12066 0.11948 1.00489 0.0
N251 N 0.07628 0.10234 0.92487 0.0
C252 C 0.03689 0.1136 0.91356 0.0
C253 C 0.04506 0.09832 0.88848 0.0
C254 C 0.06471 0.09262 0.89524 0.0
C255 C 0.06857 0.11749 0.94868 0.0
C256 C 0.04902 0.12341 0.94345 0.0
H257 H 0.06978 0.07953 0.87894 0.0
H258 H 0.07738 0.12426 0.974 0.0
H259 H 0.07205 0.05732 0.94572 0.0
H260 H 0.06736 0.06692 0.08125 0.0
H261 H 0.15489 0.12904 0.86826 0.0
H262 H 0.036 0.09 0.86594 0.0
H263 H 0.04327 0.13518 0.96373 0.0
C264 C 0.83015 0.83615 0.77636 0.0
C265 C 0.81651 0.82352 0.79416 0.0
N266 N 0.80443 0.81739 0.76198 0.0
N267 N 0.82664 0.83812 0.73325 0.0
C268 C 0.81077 0.82664 0.72544 0.0
H269 H 0.84251 0.84269 0.79332 0.0
Co270 Co 0.84361 0.85118 0.69586 0.0
C271 C 0.82172 0.8556 0.61114 0.0
O272 O 0.83833 0.85143 0.59097 0.0
N273 N 0.86167 0.86482 0.65977 0.0
C274 C 0.87624 0.89014 0.62645 0.0
C275 C 0.85851 0.8823 0.63983 0.0
C276 C 0.8815 0.86253 0.65843 0.0
N277 N 0.89077 0.87776 0.63861 0.0
O278 O 0.83807 0.87547 0.72737 0.0
H279 H 0.84436 0.88959 0.63792 0.0
H280 H 0.88924 0.85101 0.6756 0.0
O281 O 0.82143 0.85612 0.65321 0.0
C282 C 0.85234 0.88051 0.75236 0.0
O283 O 0.86883 0.87042 0.75042 0.0
N284 N 0.85035 0.82647 0.67071 0.0
C285 C 0.86065 0.78674 0.65849 0.0
C286 C 0.84421 0.79489 0.63733 0.0
C287 C 0.83911 0.81464 0.6444 0.0
C288 C 0.86636 0.81871 0.69146 0.0
C289 C 0.87195 0.79909 0.68533 0.0
H290 H 0.82532 0.81963 0.63111 0.0
H291 H 0.87408 0.82745 0.71549 0.0
H292 H 0.80445 0.82452 0.69337 0.0
H293 H 0.81631 0.81827 0.82758 0.0
H294 H 0.87829 0.90436 0.61107 0.0
H295 H 0.83485 0.7859 0.61675 0.0
H296 H 0.88433 0.79336 0.70371 0.0
C297 C 0.93319 0.08106 0.52851 0.0
C298 C 0.94635 0.06769 0.54537 0.0
N299 N 0.95296 0.05629 0.5124 0.0
N300 N 0.93139 0.07803 0.48519 0.0
C301 C 0.94354 0.06279 0.47627 0.0
H302 H 0.92608 0.09286 0.54632 0.0
Co303 Co 0.91748 0.09461 0.44865 0.0
C304 C 0.91211 0.07215 0.36422 0.0
O305 O 0.91435 0.08876 0.34265 0.0
N306 N 0.90304 0.11221 0.41336 0.0
C307 C 0.87705 0.12624 0.38178 0.0
C308 C 0.88529 0.1087 0.39504 0.0
C309 C 0.9051 0.13205 0.41131 0.0
N310 N 0.88944 0.141 0.39251 0.0
O311 O 0.89359 0.08811 0.4809 0.0
H312 H 0.87816 0.09445 0.39409 0.0
H313 H 0.91688 0.13998 0.4272 0.0
O314 O 0.91314 0.07232 0.40624 0.0
C315 C 0.88811 0.10218 0.50604 0.0
O316 O 0.89757 0.11904 0.50394 0.0
N317 N 0.94166 0.1023 0.42286 0.0
C318 C 0.98112 0.11351 0.41187 0.0
C319 C 0.97305 0.09811 0.38704 0.0
C320 C 0.95338 0.09244 0.39365 0.0
C321 C 0.94926 0.11761 0.4463 0.0
C322 C 0.96883 0.12351 0.44124 0.0
H323 H 0.94841 0.07923 0.37771 0.0
H324 H 0.94036 0.12448 0.47141 0.0
H325 H 0.9459 0.05701 0.44373 0.0
H326 H 0.95146 0.06718 0.57886 0.0
H327 H 0.86259 0.12799 0.36742 0.0
H328 H 0.98223 0.08965 0.36493 0.0
H329 H 0.9745 0.13537 0.46133 0.0
C330 C 0.68854 0.18251 0.28062 0.0
C331 C 0.70194 0.19556 0.29773 0.0
N332 N 0.71307 0.20263 0.26472 0.0
N333 N 0.69128 0.18121 0.23709 0.0
C334 C 0.70638 0.19357 0.2283 0.0
H335 H 0.67689 0.17515 0.29846 0.0
Co336 Co 0.67446 0.16767 0.20039 0.0
C337 C 0.69656 0.16253 0.11534 0.0
O338 O 0.67985 0.16491 0.09429 0.0
N339 N 0.6566 0.15361 0.16497 0.0
C340 C 0.6421 0.12798 0.13295 0.0
C341 C 0.65979 0.13587 0.14627 0.0
C342 C 0.6368 0.15602 0.16308 0.0
N343 N 0.62757 0.14059 0.14401 0.0
O344 O 0.68085 0.14352 0.2317 0.0
H345 H 0.67393 0.12852 0.14504 0.0
H346 H 0.62908 0.16788 0.17924 0.0
O347 O 0.6966 0.16343 0.15738 0.0
C348 C 0.66678 0.13795 0.2568 0.0
O349 O 0.64997 0.1475 0.2552 0.0
N350 N 0.66688 0.19206 0.17559 0.0
C351 C 0.65582 0.2316 0.16589 0.0
C352 C 0.67097 0.22354 0.14021 0.0
C353 C 0.67658 0.20381 0.14617 0.0
C354 C 0.65182 0.19966 0.19988 0.0
C355 C 0.646 0.21928 0.19548 0.0
H356 H 0.6896 0.19881 0.12948 0.0
H357 H 0.64507 0.19069 0.22503 0.0
H358 H 0.71189 0.19637 0.19569 0.0
H359 H 0.70264 0.20032 0.33147 0.0
H360 H 0.64009 0.11361 0.1183 0.0
H361 H 0.67928 0.23275 0.11786 0.0
H362 H 0.63434 0.22494 0.2162 0.0
C363 C 0.58606 0.9384 0.03018 0.0
C364 C 0.5732 0.95196 0.04743 0.0
N365 N 0.56622 0.96314 1.0145 0.0
N366 N 0.58735 0.9411 0.98665 0.0
C367 C 0.57515 0.95632 0.97797 0.0
H368 H 0.59327 0.92666 0.04794 0.0
Co369 Co 0.60063 0.92406 0.94993 0.0
C370 C 0.60557 0.94597 0.86444 0.0
O371 O 0.60284 0.92927 0.84348 0.0
N372 N 0.61442 0.90591 0.91456 0.0
C373 C 0.63914 0.89097 0.87979 0.0
C374 C 0.63177 0.90882 0.89378 0.0
C375 C 0.61189 0.88611 0.9138 0.0
N376 N 0.6267 0.87669 0.89293 0.0
O377 O 0.62493 0.93037 0.98063 0.0
H378 H 0.63923 0.92287 0.89135 0.0
H379 H 0.60014 0.87854 0.93075 0.0
O380 O 0.60494 0.94603 0.90651 0.0
C381 C 0.63036 0.91643 1.00613 0.0
O382 O 0.62059 0.89972 1.00523 0.0
N383 N 0.57608 0.91658 0.92564 0.0
C384 C 0.53662 0.9053 0.91511 0.0
C385 C 0.54472 0.92055 0.8898 0.0
C386 C 0.56438 0.92628 0.89621 0.0
C387 C 0.56841 0.90155 0.94989 0.0
C388 C 0.54884 0.8956 0.94505 0.0
H389 H 0.56938 0.93935 0.87972 0.0
H390 H 0.57729 0.89484 0.97519 0.0
H391 H 0.57236 0.96183 0.94538 0.0
H392 H 0.56848 0.95272 0.08121 0.0
H393 H 0.65327 0.88856 0.86414 0.0
H394 H 0.53559 0.92882 0.86728 0.0
H395 H 0.54314 0.88389 0.96557 0.0
C396 C 0.8297 0.18207 0.77036 0.0
C397 C 0.81603 0.19489 0.75339 0.0
N398 N 0.80504 0.20197 0.78659 0.0
N399 N 0.82724 0.18092 0.81399 0.0
C400 C 0.81205 0.19312 0.82297 0.0
H401 H 0.84134 0.17482 0.75232 0.0
Co402 Co 0.84446 0.16786 0.85067 0.0
C403 C 0.82258 0.16278 0.93618 0.0
O404 O 0.83923 0.16567 0.95713 0.0
N405 N 0.86272 0.15432 0.88609 0.0
C406 C 0.87784 0.12976 0.92095 0.0
C407 C 0.85995 0.13693 0.9068 0.0
C408 C 0.88249 0.15707 0.88706 0.0
N409 N 0.89202 0.14236 0.908 0.0
O410 O 0.83846 0.14346 0.82002 0.0
H411 H 0.84597 0.12933 0.90908 0.0
H412 H 0.88998 0.1689 0.87022 0.0
O413 O 0.82252 0.16337 0.89411 0.0
C414 C 0.85256 0.13814 0.79473 0.0
O415 O 0.86914 0.14812 0.79581 0.0
N416 N 0.85167 0.19251 0.87487 0.0
C417 C 0.8625 0.2321 0.88498 0.0
C418 C 0.84743 0.22387 0.9106 0.0
C419 C 0.84192 0.20414 0.90443 0.0
C420 C 0.86657 0.2003 0.85038 0.0
C421 C 0.87229 0.21995 0.85499 0.0
H422 H 0.82896 0.19901 0.92119 0.0
H423 H 0.87334 0.19144 0.8251 0.0
H424 H 0.80672 0.19599 0.85569 0.0
H425 H 0.81509 0.19954 0.7196 0.0
H426 H 0.88035 0.11567 0.93658 0.0
H427 H 0.83912 0.23294 0.93321 0.0
H428 H 0.88389 0.22574 0.83427 0.0
C429 C 0.58679 0.07964 0.51919 0.0
C430 C 0.5736 0.06653 0.50153 0.0
N431 N 0.56592 0.05564 0.53424 0.0
N432 N 0.58757 0.07697 0.56279 0.0
C433 C 0.57481 0.06214 0.57104 0.0
H434 H 0.59458 0.09108 0.50161 0.0
Co435 Co 0.60059 0.094 0.60002 0.0
C436 C 0.60537 0.07192 0.68531 0.0
O437 O 0.60267 0.08857 0.70643 0.0
N438 N 0.61407 0.11213 0.63587 0.0
C439 C 0.63861 0.12732 0.67056 0.0
C440 C 0.63145 0.1094 0.65653 0.0
C441 C 0.61129 0.13188 0.63684 0.0
N442 N 0.626 0.14147 0.65761 0.0
O443 O 0.6251 0.0879 0.56971 0.0
H444 H 0.63909 0.09544 0.65873 0.0
H445 H 0.59946 0.13931 0.61996 0.0
O446 O 0.60474 0.07192 0.64324 0.0
C447 C 0.63073 0.10201 0.54481 0.0
O448 O 0.62097 0.11872 0.54604 0.0
N449 N 0.57588 0.10132 0.62386 0.0
C450 C 0.53626 0.11224 0.63303 0.0
C451 C 0.54439 0.09738 0.65936 0.0
C452 C 0.56415 0.09183 0.65366 0.0
C453 C 0.5682 0.11607 0.59883 0.0
C454 C 0.54854 0.12181 0.60294 0.0
H455 H 0.56922 0.07902 0.67098 0.0
H456 H 0.57718 0.12268 0.57351 0.0
H457 H 0.57118 0.0571 0.60363 0.0
H458 H 0.56955 0.06557 0.46739 0.0
H459 H 0.65273 0.12989 0.686 0.0
H460 H 0.53522 0.08926 0.68213 0.0
H461 H 0.54283 0.13325 0.58174 0.0
C462 C 0.68894 0.83596 0.26683 0.0
C463 C 0.70273 0.82324 0.24991 0.0
N464 N 0.71375 0.81632 0.28311 0.0
N465 N 0.69135 0.83728 0.3105 0.0
C466 C 0.70663 0.82517 0.31939 0.0
H467 H 0.67723 0.84282 0.24849 0.0
Co468 Co 0.67433 0.84967 0.34959 0.0
C469 C 0.70411 0.86855 0.40955 0.0
O470 O 0.69637 0.88602 0.40256 0.0
N471 N 0.65641 0.86168 0.38833 0.0
C472 C 0.63958 0.87183 0.44676 0.0
C473 C 0.65744 0.86477 0.43191 0.0
C474 C 0.63763 0.86644 0.37795 0.0
N475 N 0.62711 0.8729 0.4126 0.0
O476 O 0.67946 0.8747 0.32033 0.0
H477 H 0.66996 0.86124 0.45226 0.0
H478 H 0.63125 0.86392 0.34618 0.0
O479 O 0.69665 0.85345 0.39068 0.0
C480 C 0.66692 0.87826 0.29012 0.0
O481 O 0.65247 0.86571 0.28399 0.0
N482 N 0.66807 0.82509 0.37357 0.0
C483 C 0.65769 0.78592 0.38986 0.0
C484 C 0.67301 0.79499 0.41341 0.0
C485 C 0.67792 0.81473 0.405 0.0
C486 C 0.65274 0.81677 0.35167 0.0
C487 C 0.64725 0.79727 0.35935 0.0
H488 H 0.6901 0.82127 0.42248 0.0
H489 H 0.64524 0.82517 0.32663 0.0
H490 H 0.71189 0.82225 0.3521 0.0
H491 H 0.70368 0.81848 0.2162 0.0
H492 H 0.63598 0.87544 0.4803 0.0
H493 H 0.68134 0.78683 0.43758 0.0
H494 H 0.63552 0.7909 0.33998 0.0
C495 C 0.93408 0.93684 1.01996 0.0
C496 C 0.94704 0.95031 1.00262 0.0
N497 N 0.95306 0.96234 0.03501 0.0
N498 N 0.93181 0.94043 0.06298 0.0
C499 C 0.94346 0.95613 0.07122 0.0
H500 H 0.92741 0.92463 1.00273 0.0
Co501 Co 0.91786 0.92398 0.09988 0.0
C502 C 0.91194 0.94679 0.18348 0.0
O503 O 0.91452 0.93028 0.20523 0.0
N504 N 0.90334 0.90646 0.13546 0.0
C505 C 0.87721 0.89255 0.16702 0.0
C506 C 0.88549 0.91003 0.15341 0.0
C507 C 0.90539 0.88663 0.13807 0.0
N508 N 0.88966 0.87776 0.15689 0.0
O509 O 0.89412 0.92995 0.06679 0.0
H510 H 0.87833 0.92427 0.15384 0.0
H511 H 0.9172 0.8786 0.12253 0.0
O512 O 0.91296 0.94651 0.14145 0.0
C513 C 0.8888 0.91572 0.04198 0.0
O514 O 0.89829 0.8989 0.04475 0.0
N515 N 0.94201 0.91686 0.12678 0.0
C516 C 0.98159 0.90651 0.1406 0.0
C517 C 0.97318 0.92276 0.16208 0.0
C518 C 0.95348 0.92787 0.15431 0.0
C519 C 0.94993 0.9009 0.10616 0.0
C520 C 0.96951 0.8953 0.11299 0.0
H521 H 0.94829 0.94151 0.16796 0.0
H522 H 0.94139 0.89324 0.08165 0.0
H523 H 0.94534 0.96249 0.10336 0.0
H524 H 0.95248 0.95049 0.96933 0.0
H525 H 0.86268 0.89085 0.18118 0.0
H526 H 0.98196 0.932 0.18338 0.0
H527 H 0.97542 0.88303 0.09451 0.0
C528 C 0.68816 0.68315 0.77073 0.0
C529 C 0.70139 0.69631 0.75324 0.0
N530 N 0.7126 0.70346 0.78594 0.0
N531 N 0.6911 0.68186 0.81417 0.0
C532 C 0.70613 0.69433 0.82254 0.0
H533 H 0.6765 0.6757 0.75321 0.0
Co534 Co 0.67456 0.66817 0.85134 0.0
C535 C 0.69724 0.66275 0.93541 0.0
O536 O 0.68068 0.66498 0.95723 0.0
N537 N 0.65698 0.65398 0.88724 0.0
C538 C 0.64265 0.62822 0.91926 0.0
C539 C 0.66027 0.63617 0.90554 0.0
C540 C 0.63719 0.65637 0.88981 0.0
N541 N 0.62806 0.64086 0.90886 0.0
O542 O 0.68079 0.64413 0.81941 0.0
H543 H 0.67442 0.62881 0.90614 0.0
H544 H 0.62939 0.66826 0.87403 0.0
O545 O 0.69697 0.66383 0.89339 0.0
C546 C 0.66658 0.63847 0.7949 0.0
O547 O 0.64966 0.6478 0.79752 0.0
N548 N 0.66708 0.69247 0.87682 0.0
C549 C 0.65588 0.73189 0.88804 0.0
C550 C 0.6712 0.72374 0.91297 0.0
C551 C 0.67687 0.70409 0.90626 0.0
C552 C 0.65188 0.70014 0.8532 0.0
C553 C 0.64598 0.7197 0.85837 0.0
H554 H 0.69 0.69904 0.9224 0.0
H555 H 0.64504 0.69129 0.82803 0.0
H556 H 0.71177 0.69715 0.855 0.0
H557 H 0.70191 0.70108 0.71949 0.0
H558 H 0.64071 0.61377 0.93364 0.0
H559 H 0.67958 0.73285 0.93533 0.0
H560 H 0.63418 0.72542 0.83821 0.0
C561 C 0.5854 0.43737 1.02188 0.0
C562 C 0.57231 0.45057 1.00421 0.0
N563 N 0.56537 0.46211 0.03663 0.0
N564 N 0.58687 0.44061 0.06519 0.0
C565 C 0.57464 0.4559 0.07324 0.0
H566 H 0.59271 0.42555 1.00458 0.0
Co567 Co 0.60022 0.4237 0.10214 0.0
C568 C 0.60578 0.44588 0.1868 0.0
O569 O 0.60282 0.42928 0.20797 0.0
N570 N 0.61407 0.40562 0.13761 0.0
C571 C 0.63899 0.39057 0.17137 0.0
C572 C 0.63158 0.40845 0.15769 0.0
C573 C 0.61147 0.38583 0.13858 0.0
N574 N 0.6264 0.37634 0.15876 0.0
O575 O 0.6244 0.4296 0.07039 0.0
H576 H 0.63915 0.42246 0.15965 0.0
H577 H 0.59964 0.37828 0.12202 0.0
O578 O 0.60503 0.44588 0.14473 0.0
C579 C 0.63004 0.4155 0.04553 0.0
O580 O 0.62061 0.39862 0.04755 0.0
N581 N 0.57573 0.41669 0.12772 0.0
C582 C 0.53608 0.40634 0.14069 0.0
C583 C 0.54456 0.42216 0.16353 0.0
C584 C 0.56429 0.42728 0.15617 0.0
C585 C 0.5677 0.4012 0.1056 0.0
C586 C 0.54809 0.3956 0.11198 0.0
H587 H 0.56956 0.44063 0.17103 0.0
H588 H 0.57625 0.39389 0.08052 0.0
H589 H 0.57168 0.46157 0.10563 0.0
H590 H 0.56782 0.45117 0.9703 0.0
H591 H 0.65324 0.38809 0.18626 0.0
H592 H 0.53582 0.43105 0.18569 0.0
H593 H 0.54211 0.3837 0.09247 0.0
C594 C 0.83085 0.33538 0.271 0.0
C595 C 0.81728 0.32257 0.25363 0.0
N596 N 0.80556 0.31612 0.28626 0.0
N597 N 0.82764 0.33713 0.3143 0.0
C598 C 0.81206 0.32533 0.32266 0.0
H599 H 0.84293 0.34222 0.25357 0.0
Co600 Co 0.84449 0.35047 0.35131 0.0
C601 C 0.8219 0.356 0.43561 0.0
O602 O 0.83836 0.35303 0.45727 0.0
N603 N 0.86246 0.36433 0.38699 0.0
C604 C 0.87734 0.38926 0.42109 0.0
C605 C 0.85951 0.38179 0.40727 0.0
C606 C 0.88226 0.36183 0.388 0.0
N607 N 0.89165 0.37677 0.40839 0.0
O608 O 0.83876 0.37461 0.31947 0.0
H609 H 0.84547 0.38928 0.40924 0.0
H610 H 0.88989 0.35008 0.37132 0.0
O611 O 0.8222 0.35532 0.39355 0.0
C612 C 0.85297 0.37989 0.29447 0.0
O613 O 0.86963 0.37009 0.29638 0.0
N614 N 0.85138 0.32599 0.37701 0.0
C615 C 0.86197 0.28647 0.39069 0.0
C616 C 0.84584 0.29483 0.41277 0.0
C617 C 0.84062 0.31451 0.4051 0.0
C618 C 0.86707 0.31803 0.3554 0.0
C619 C 0.87281 0.29851 0.36219 0.0
H620 H 0.82712 0.31972 0.41948 0.0
H621 H 0.87448 0.32658 0.33044 0.0
H622 H 0.80603 0.323 0.355 0.0
H623 H 0.81686 0.31749 0.2201 0.0
H624 H 0.87973 0.4035 0.43615 0.0
H625 H 0.83685 0.28604 0.43465 0.0
H626 H 0.88493 0.2926 0.34319 0.0
C627 C 0.93332 0.58099 0.52243 0.0
C628 C 0.9465 0.56762 0.50561 0.0
N629 N 0.95339 0.55651 0.53876 0.0
N630 N 0.93175 0.57824 0.56591 0.0
C631 C 0.94408 0.56317 0.57496 0.0
H632 H 0.92604 0.59262 0.50445 0.0
Co633 Co 0.91795 0.59497 0.60242 0.0
C634 C 0.91265 0.5728 0.68728 0.0
O635 O 0.9149 0.58949 0.70849 0.0
N636 N 0.90364 0.61273 0.63771 0.0
C637 C 0.87781 0.627 0.66957 0.0
C638 C 0.88587 0.60939 0.65624 0.0
C639 C 0.90589 0.63254 0.63971 0.0
N640 N 0.89033 0.64165 0.65868 0.0
O641 O 0.894 0.58845 0.57063 0.0
H642 H 0.87863 0.59519 0.65736 0.0
H643 H 0.91774 0.64036 0.6237 0.0
O644 O 0.91365 0.57281 0.64525 0.0
C645 C 0.88839 0.60248 0.54554 0.0
O646 O 0.8977 0.61943 0.54765 0.0
N647 N 0.9422 0.60269 0.62766 0.0
C648 C 0.98172 0.61379 0.63733 0.0
C649 C 0.97367 0.59862 0.66293 0.0
C650 C 0.95394 0.59299 0.657 0.0
C651 C 0.94977 0.61782 0.60354 0.0
C652 C 0.96939 0.62366 0.60794 0.0
H653 H 0.94895 0.57993 0.67355 0.0
H654 H 0.94082 0.62456 0.57842 0.0
H655 H 0.94667 0.55764 0.60762 0.0
H656 H 0.95148 0.56694 0.472 0.0
H657 H 0.86339 0.62889 0.68413 0.0
H658 H 0.98288 0.59027 0.68513 0.0
H659 H 0.97504 0.63535 0.58729 0.0
C660 C 0.6885 0.33598 0.78167 0.0
C661 C 0.70201 0.32304 0.79879 0.0
N662 N 0.71297 0.31582 0.76568 0.0
N663 N 0.69103 0.33707 0.73805 0.0
C664 C 0.7061 0.3247 0.72922 0.0
H665 H 0.67691 0.34338 0.79959 0.0
Co666 Co 0.67401 0.35026 0.70114 0.0
C667 C 0.69633 0.35533 0.61608 0.0
O668 O 0.67979 0.35264 0.59453 0.0
N669 N 0.65595 0.3639 0.66545 0.0
C670 C 0.64094 0.38848 0.63051 0.0
C671 C 0.65879 0.38128 0.64478 0.0
C672 C 0.63619 0.36117 0.66427 0.0
N673 N 0.62671 0.37589 0.64332 0.0
O674 O 0.68012 0.37459 0.7319 0.0
H675 H 0.67279 0.38887 0.64266 0.0
H676 H 0.62866 0.34934 0.68104 0.0
O677 O 0.6961 0.35461 0.65813 0.0
C678 C 0.66603 0.38023 0.75684 0.0
O679 O 0.64919 0.37071 0.75518 0.0
N680 N 0.6667 0.32567 0.67685 0.0
C681 C 0.65567 0.28613 0.66707 0.0
C682 C 0.67069 0.29427 0.64114 0.0
C683 C 0.6763 0.314 0.64714 0.0
C684 C 0.65181 0.31797 0.70152 0.0
C685 C 0.64601 0.29835 0.69708 0.0
H686 H 0.68921 0.31908 0.63014 0.0
H687 H 0.64514 0.32689 0.72685 0.0
H688 H 0.71144 0.32174 0.69654 0.0
H689 H 0.70287 0.31842 0.83261 0.0
H690 H 0.63845 0.4026 0.61494 0.0
H691 H 0.6789 0.28513 0.61848 0.0
H692 H 0.63443 0.29264 0.718 0.0
C693 C 0.93308 0.43689 0.02918 0.0
C694 C 0.94604 0.45011 0.04722 0.0
N695 N 0.9528 0.46197 1.01515 0.0
N696 N 0.93153 0.44042 0.98599 0.0
C697 C 0.94357 0.4559 0.97839 0.0
H698 H 0.9259 0.42487 0.04612 0.0
Co699 Co 0.91817 0.42375 0.94853 0.0
C700 C 0.91298 0.44633 0.86436 0.0
O701 O 0.91606 0.42982 0.84295 0.0
N702 N 0.90429 0.40592 0.91248 0.0
C703 C 0.87937 0.3913 0.87781 0.0
C704 C 0.88687 0.40902 0.8922 0.0
C705 C 0.90672 0.38612 0.91095 0.0
N706 N 0.8918 0.37689 0.89018 0.0
O707 O 0.89398 0.42956 0.98024 0.0
H708 H 0.87944 0.42311 0.89053 0.0
H709 H 0.91843 0.37836 0.92745 0.0
O710 O 0.91353 0.44616 0.90644 0.0
C711 C 0.88844 0.41532 1.00485 0.0
O712 O 0.89801 0.39853 1.0026 0.0
N713 N 0.94268 0.41678 0.92297 0.0
C714 C 0.98223 0.40615 0.90975 0.0
C715 C 0.97398 0.42232 0.88772 0.0
C716 C 0.95429 0.42757 0.8952 0.0
C717 C 0.95052 0.40101 0.94444 0.0
C718 C 0.97007 0.39526 0.93789 0.0
H719 H 0.94918 0.44113 0.88099 0.0
H720 H 0.94186 0.39356 0.96914 0.0
H721 H 0.9464 0.46184 0.94617 0.0
H722 H 0.95055 0.45054 0.08113 0.0
H723 H 0.86516 0.38904 0.86255 0.0
H724 H 0.98285 0.43133 0.86608 0.0
H725 H 0.97588 0.38309 0.95682 0.0
C726 C 0.83114 0.68316 0.27997 0.0
C727 C 0.8176 0.69609 0.2971 0.0
N728 N 0.80614 0.70267 0.26425 0.0
N729 N 0.82815 0.68146 0.23661 0.0
C730 C 0.81273 0.6934 0.22797 0.0
H731 H 0.84306 0.6762 0.29761 0.0
Co732 Co 0.84512 0.66814 0.19974 0.0
C733 C 0.82272 0.66248 0.11534 0.0
O734 O 0.83922 0.66539 0.09368 0.0
N735 N 0.86319 0.65433 0.16418 0.0
C736 C 0.87828 0.62948 0.13018 0.0
C737 C 0.86038 0.63684 0.14398 0.0
C738 C 0.88297 0.65697 0.16316 0.0
N739 N 0.89248 0.64209 0.14283 0.0
O740 O 0.83932 0.644 0.23161 0.0
H741 H 0.84638 0.62925 0.14202 0.0
H742 H 0.8905 0.6688 0.17976 0.0
O743 O 0.82293 0.66324 0.15739 0.0
C744 C 0.85345 0.63857 0.25656 0.0
O745 O 0.87023 0.64818 0.25452 0.0
N746 N 0.85205 0.69264 0.17403 0.0
C747 C 0.86257 0.73219 0.16044 0.0
C748 C 0.84662 0.72374 0.13799 0.0
C749 C 0.84144 0.70404 0.14561 0.0
C750 C 0.86758 0.70068 0.19597 0.0
C751 C 0.87328 0.72023 0.18924 0.0
H752 H 0.82806 0.69876 0.1309 0.0
H753 H 0.87488 0.69218 0.22109 0.0
H754 H 0.80691 0.69581 0.19552 0.0
H755 H 0.81705 0.70117 0.33063 0.0
H756 H 0.88078 0.61524 0.11516 0.0
H757 H 0.83774 0.73247 0.11585 0.0
H758 H 0.88526 0.7262 0.20849 0.0
C759 C 0.58466 0.58227 0.52871 0.0
C760 C 0.57143 0.56923 0.54656 0.0
N761 N 0.56497 0.55719 0.51457 0.0
N762 N 0.58667 0.57846 0.48574 0.0
C763 C 0.57464 0.56299 0.47805 0.0
H764 H 0.59179 0.5943 0.54565 0.0
Co765 Co 0.60084 0.59468 0.4487 0.0
C766 C 0.60644 0.57199 0.36498 0.0
O767 O 0.60403 0.58863 0.34362 0.0
N768 N 0.61561 0.61202 0.41312 0.0
C769 C 0.64205 0.62572 0.38235 0.0
C770 C 0.63348 0.60829 0.39544 0.0
C771 C 0.61381 0.63188 0.41078 0.0
N772 N 0.62973 0.64062 0.39249 0.0
O773 O 0.62452 0.58837 0.48173 0.0
H774 H 0.64048 0.59397 0.39499 0.0
H775 H 0.60206 0.64 0.42631 0.0
O776 O 0.60541 0.57209 0.40703 0.0
C777 C 0.6302 0.60254 0.50632 0.0
O778 O 0.6211 0.61958 0.50337 0.0
N779 N 0.57678 0.60215 0.42186 0.0
C780 C 0.53737 0.61313 0.4079 0.0
C781 C 0.54554 0.59675 0.38645 0.0
C782 C 0.56515 0.59133 0.39429 0.0
C783 C 0.56908 0.61822 0.44251 0.0
C784 C 0.5496 0.62414 0.43558 0.0
H785 H 0.57014 0.57761 0.38066 0.0
H786 H 0.57771 0.62573 0.46709 0.0
H787 H 0.57219 0.55681 0.44593 0.0
H788 H 0.56661 0.56898 0.5803 0.0
H789 H 0.65668 0.6273 0.36863 0.0
H790 H 0.53663 0.58765 0.36512 0.0
H791 H 0.54386 0.6365 0.45404 0.0
C792 C 0.33153 0.33465 0.27956 0.0
C793 C 0.31844 0.32147 0.29744 0.0
N794 N 0.30665 0.31472 0.26532 0.0
N795 N 0.32798 0.33635 0.23643 0.0
C796 C 0.31262 0.32417 0.22868 0.0
H797 H 0.34344 0.34193 0.2966 0.0
Co798 Co 0.34442 0.35018 0.19917 0.0
C799 C 0.3217 0.35602 0.11559 0.0
O800 O 0.33825 0.3535 0.09389 0.0
N801 N 0.36196 0.36454 0.16331 0.0
C802 C 0.37615 0.3905 0.13174 0.0
C803 C 0.35858 0.38245 0.14553 0.0
C804 C 0.38174 0.36221 0.16035 0.0
N805 N 0.39078 0.37782 0.14153 0.0
O806 O 0.33844 0.37405 0.23188 0.0
H807 H 0.34443 0.38979 0.14537 0.0
H808 H 0.38964 0.35028 0.1757 0.0
O809 O 0.3219 0.35494 0.15762 0.0
C810 C 0.35271 0.37973 0.25617 0.0
O811 O 0.36969 0.37053 0.25309 0.0
N812 N 0.35156 0.32597 0.17261 0.0
C813 C 0.36207 0.28644 0.15885 0.0
C814 C 0.34599 0.29486 0.13681 0.0
C815 C 0.34079 0.31453 0.14456 0.0
C816 C 0.36736 0.31804 0.19378 0.0
C817 C 0.37303 0.29849 0.187 0.0
H818 H 0.32726 0.31973 0.13042 0.0
H819 H 0.37485 0.3266 0.21852 0.0
H820 H 0.30669 0.32145 0.19646 0.0
H821 H 0.31804 0.31685 0.3313 0.0
H822 H 0.37803 0.40503 0.11772 0.0
H823 H 0.33695 0.28609 0.11507 0.0
H824 H 0.38516 0.29257 0.20588 0.0
C825 C 0.43382 0.58197 0.02917 0.0
C826 C 0.44689 0.56885 0.0472 0.0
N827 N 0.45364 0.55698 1.01518 0.0
N828 N 0.4322 0.57837 0.98603 0.0
C829 C 0.4443 0.56293 0.97845 0.0
H830 H 0.42663 0.59398 0.04608 0.0
Co831 Co 0.41876 0.59494 0.94847 0.0
C832 C 0.41331 0.57205 0.86474 0.0
O833 O 0.41625 0.58848 0.84287 0.0
N834 N 0.40481 0.61266 0.91231 0.0
C835 C 0.37979 0.62721 0.87789 0.0
C836 C 0.38734 0.60951 0.89231 0.0
C837 C 0.40724 0.63245 0.91057 0.0
N838 N 0.39225 0.64164 0.88995 0.0
O839 O 0.39463 0.58923 0.9805 0.0
H840 H 0.37989 0.59542 0.89091 0.0
H841 H 0.41899 0.64024 0.92688 0.0
O842 O 0.41401 0.57242 0.9068 0.0
C843 C 0.38918 0.60355 1.00495 0.0
O844 O 0.39883 0.62029 1.00245 0.0
N845 N 0.44321 0.60183 0.92253 0.0
C846 C 0.48282 0.6122 0.90913 0.0
C847 C 0.47441 0.59612 0.88707 0.0
C848 C 0.4547 0.59099 0.89465 0.0
C849 C 0.45115 0.61759 0.94385 0.0
C850 C 0.47074 0.6232 0.93724 0.0
H851 H 0.4495 0.57746 0.88049 0.0
H852 H 0.44256 0.6251 0.96856 0.0
H853 H 0.4471 0.55696 0.94627 0.0
H854 H 0.45147 0.5685 0.08107 0.0
H855 H 0.36552 0.62944 0.86286 0.0
H856 H 0.4832 0.58704 0.8654 0.0
H857 H 0.47666 0.63531 0.95617 0.0
C858 C 0.18885 0.6825 0.7788 0.0
C859 C 0.20254 0.69523 0.79602 0.0
N860 N 0.21394 0.70196 0.76312 0.0
N861 N 0.19168 0.68106 0.73532 0.0
C862 C 0.20715 0.69297 0.72669 0.0
H863 H 0.17694 0.67552 0.79652 0.0
Co864 Co 0.17444 0.66803 0.69856 0.0
C865 C 0.19645 0.66254 0.6135 0.0
O866 O 0.17988 0.66572 0.59241 0.0
N867 N 0.1561 0.6545 0.66318 0.0
C868 C 0.14075 0.62984 0.62911 0.0
C869 C 0.15874 0.63708 0.64256 0.0
C870 C 0.13632 0.65722 0.66278 0.0
N871 N 0.12665 0.64245 0.6424 0.0
O872 O 0.18011 0.64369 0.72971 0.0
H873 H 0.17269 0.62943 0.64007 0.0
H874 H 0.12892 0.66901 0.67984 0.0
O875 O 0.19644 0.66312 0.65556 0.0
C876 C 0.16597 0.63846 0.75495 0.0
O877 O 0.14945 0.64854 0.75387 0.0
N878 N 0.16765 0.69268 0.67354 0.0
C879 C 0.15737 0.73235 0.66094 0.0
C880 C 0.17319 0.72388 0.63799 0.0
C881 C 0.17826 0.70412 0.64513 0.0
C882 C 0.15223 0.70072 0.69594 0.0
C883 C 0.14666 0.72034 0.68973 0.0
H884 H 0.19156 0.69881 0.63005 0.0
H885 H 0.14492 0.69217 0.72102 0.0
H886 H 0.21287 0.69557 0.69418 0.0
H887 H 0.20322 0.70009 0.82969 0.0
H888 H 0.13813 0.61568 0.61387 0.0
H889 H 0.18207 0.73263 0.61582 0.0
H890 H 0.13477 0.72631 0.70935 0.0
C891 C 0.08632 0.43906 0.52932 0.0
C892 C 0.07344 0.45273 0.54614 0.0
N893 N 0.06651 0.46375 0.51287 0.0
N894 N 0.08765 0.44153 0.48572 0.0
C895 C 0.07551 0.45674 0.47661 0.0
H896 H 0.09346 0.42739 0.54741 0.0
Co897 Co 0.10068 0.42425 0.44904 0.0
C898 C 0.10566 0.44598 0.36344 0.0
O899 O 0.1027 0.4293 0.3426 0.0
N900 N 0.11419 0.40595 0.41359 0.0
C901 C 0.13873 0.3908 0.37863 0.0
C902 C 0.13157 0.4087 0.3928 0.0
C903 C 0.11141 0.38619 0.4126 0.0
N904 N 0.12611 0.37664 0.39162 0.0
O905 O 0.12509 0.43025 0.47955 0.0
H906 H 0.13919 0.42267 0.3905 0.0
H907 H 0.09957 0.37873 0.42947 0.0
O908 O 0.10515 0.4461 0.40551 0.0
C909 C 0.13028 0.41615 0.50488 0.0
O910 O 0.12016 0.39965 0.50387 0.0
N911 N 0.07602 0.41703 0.42506 0.0
C912 C 0.03635 0.40632 0.41597 0.0
C913 C 0.04452 0.42131 0.39002 0.0
C914 C 0.06431 0.42676 0.39568 0.0
C915 C 0.06829 0.40219 0.44977 0.0
C916 C 0.0486 0.39654 0.44567 0.0
H917 H 0.0694 0.43967 0.37875 0.0
H918 H 0.07722 0.39545 0.47492 0.0
H919 H 0.07277 0.46208 0.44386 0.0
H920 H 0.06864 0.45365 0.57985 0.0
H921 H 0.15283 0.38826 0.36297 0.0
H922 H 0.03537 0.42961 0.3676 0.0
H923 H 0.04286 0.385 0.46662 0.0
C924 C 0.33246 0.68474 0.27212 0.0
C925 C 0.31896 0.69757 0.25462 0.0
N926 N 0.30684 0.70361 0.28689 0.0
N927 N 0.32883 0.68255 0.31515 0.0
C928 C 0.31306 0.69414 0.32324 0.0
H929 H 0.34472 0.67808 0.25498 0.0
Co930 Co 0.34537 0.6687 0.35196 0.0
C931 C 0.32282 0.66297 0.43593 0.0
O932 O 0.33939 0.66577 0.45728 0.0
N933 N 0.36302 0.65426 0.3874 0.0
C934 C 0.37703 0.62822 0.41896 0.0
C935 C 0.35951 0.63648 0.40568 0.0
C936 C 0.38287 0.65629 0.38949 0.0
N937 N 0.39181 0.64061 0.40828 0.0
O938 O 0.33936 0.64488 0.31921 0.0
H939 H 0.34526 0.62933 0.40655 0.0
H940 H 0.39086 0.66802 0.37357 0.0
O941 O 0.32294 0.66383 0.39389 0.0
C942 C 0.35356 0.63954 0.2943 0.0
O943 O 0.37036 0.6491 0.29672 0.0
N944 N 0.35252 0.69287 0.37856 0.0
C945 C 0.36317 0.73236 0.39237 0.0
C946 C 0.34677 0.72413 0.41368 0.0
C947 C 0.34152 0.70446 0.40594 0.0
C948 C 0.36855 0.70067 0.35789 0.0
C949 C 0.37432 0.72018 0.36477 0.0
H950 H 0.32781 0.69936 0.41952 0.0
H951 H 0.37615 0.69207 0.33334 0.0
H952 H 0.30664 0.69607 0.35534 0.0
H953 H 0.3188 0.70289 0.22125 0.0
H954 H 0.37876 0.61373 0.43325 0.0
H955 H 0.33756 0.73302 0.43487 0.0
H956 H 0.38668 0.72599 0.34637 0.0
C957 C 0.08554 0.58058 1.01955 0.0
C958 C 0.07205 0.56764 1.00241 0.0
N959 N 0.06488 0.55647 0.03524 0.0
N960 N 0.08701 0.57754 0.06294 0.0
C961 C 0.07437 0.56266 0.07158 0.0
H962 H 0.09315 0.59209 1.00182 0.0
Co963 Co 0.10092 0.59409 0.09964 0.0
C964 C 0.1061 0.57183 0.1843 0.0
O965 O 0.10398 0.58856 0.20548 0.0
N966 N 0.11533 0.61169 0.135 0.0
C967 C 0.14127 0.62583 0.16656 0.0
C968 C 0.13311 0.60826 0.15328 0.0
C969 C 0.11319 0.63152 0.13709 0.0
N970 N 0.12881 0.64054 0.15587 0.0
O971 O 0.12487 0.58747 0.0678 0.0
H972 H 0.14029 0.59403 0.15422 0.0
H973 H 0.10137 0.63939 0.12122 0.0
O974 O 0.10503 0.57183 0.14229 0.0
C975 C 0.13051 0.60154 0.04283 0.0
O976 O 0.12112 0.61844 0.04481 0.0
N977 N 0.07672 0.60193 0.12503 0.0
C978 C 0.0373 0.61326 0.13526 0.0
C979 C 0.04529 0.59807 0.1608 0.0
C980 C 0.06496 0.59232 0.15458 0.0
C981 C 0.06922 0.61709 0.10099 0.0
C982 C 0.04965 0.62304 0.10565 0.0
H983 H 0.06988 0.57923 0.1711 0.0
H984 H 0.07819 0.62378 0.07576 0.0
H985 H 0.0713 0.5573 0.1042 0.0
H986 H 0.06751 0.56692 0.96855 0.0
H987 H 0.15573 0.62765 0.1809 0.0
H988 H 0.03606 0.5898 0.18317 0.0
H989 H 0.04403 0.63475 0.08504 0.0
C990 C 0.18632 0.33434 0.77112 0.0
C991 C 0.19928 0.32098 0.75349 0.0
N992 N 0.2112 0.31446 0.78563 0.0
N993 N 0.19007 0.33638 0.8141 0.0
C994 C 0.20543 0.32423 0.822 0.0
H995 H 0.17435 0.3415 0.75406 0.0
Co996 Co 0.17379 0.35048 0.85113 0.0
C997 C 0.19661 0.35639 0.93455 0.0
O998 O 0.18005 0.35403 0.95631 0.0
N999 N 0.15642 0.36514 0.88671 0.0
C1000 C 0.14258 0.39135 0.91796 0.0
C1001 C 0.16003 0.38302 0.90434 0.0
C1002 C 0.13659 0.36311 0.88952 0.0
N1003 N 0.12776 0.37889 0.90814 0.0
O1004 O 0.17997 0.37418 0.81796 0.0
H1005 H 0.17429 0.39017 0.90453 0.0
H1006 H 0.12854 0.35127 0.87419 0.0
O1007 O 0.19639 0.35521 0.89254 0.0
C1008 C 0.16577 0.37978 0.79341 0.0
O1009 O 0.1488 0.37054 0.79633 0.0
N1010 N 0.16647 0.32642 0.87821 0.0
C1011 C 0.15591 0.28692 0.89249 0.0
C1012 C 0.17207 0.29535 0.9142 0.0
C1013 C 0.1773 0.31499 0.90619 0.0
C1014 C 0.15054 0.31851 0.85747 0.0
C1015 C 0.14484 0.29897 0.86451 0.0
H1016 H 0.19091 0.32014 0.91999 0.0
H1017 H 0.143 0.32703 0.83275 0.0
H1018 H 0.2115 0.32174 0.85419 0.0
H1019 H 0.19952 0.31607 0.71984 0.0
H1020 H 0.14092 0.40592 0.93188 0.0
H1021 H 0.18118 0.28659 0.93583 0.0
H1022 H 0.13263 0.29304 0.8459 0.0
C1023 C 0.43378 0.43682 0.52094 0.0
C1024 C 0.44716 0.44984 0.50351 0.0
N1025 N 0.45419 0.46119 0.53612 0.0
N1026 N 0.43226 0.43999 0.56428 0.0
C1027 C 0.44476 0.45501 0.57262 0.0
H1028 H 0.42624 0.42522 0.50343 0.0
Co1029 Co 0.41833 0.42358 0.60133 0.0
C1030 C 0.41287 0.44632 0.68538 0.0
O1031 O 0.41483 0.42975 0.70723 0.0
N1032 N 0.40391 0.40611 0.63708 0.0
C1033 C 0.37797 0.39193 0.66876 0.0
C1034 C 0.38605 0.40951 0.65513 0.0
C1035 C 0.40621 0.38632 0.63971 0.0
N1036 N 0.39059 0.37728 0.65857 0.0
O1037 O 0.39443 0.43003 0.56928 0.0
H1038 H 0.37876 0.42368 0.65564 0.0
H1039 H 0.41813 0.37846 0.62412 0.0
O1040 O 0.41411 0.44602 0.64339 0.0
C1041 C 0.38864 0.41589 0.54474 0.0
O1042 O 0.39777 0.39886 0.54736 0.0
N1043 N 0.4425 0.4159 0.62696 0.0
C1044 C 0.48183 0.40448 0.63833 0.0
C1045 C 0.47372 0.41979 0.66339 0.0
C1046 C 0.4541 0.42558 0.6566 0.0
C1047 C 0.45013 0.40068 0.60327 0.0
C1048 C 0.46965 0.39467 0.60851 0.0
H1049 H 0.4491 0.43871 0.67283 0.0
H1050 H 0.44128 0.39392 0.57798 0.0
H1051 H 0.44773 0.46053 0.60513 0.0
H1052 H 0.45168 0.45054 0.4696 0.0
H1053 H 0.36347 0.39006 0.68296 0.0
H1054 H 0.48282 0.42809 0.68588 0.0
H1055 H 0.47535 0.38287 0.58826 0.0
H1056 H 0.16149 0.12535 0.0284 0.0
H1057 H 0.14251 0.10681 0.27448 0.0
H1058 H 0.12817 0.07502 0.07206 0.0
H1059 H 0.19331 0.13943 0.23083 0.0
H1060 H 0.13976 0.09187 0.20192 0.0
H1061 H 0.17638 0.12798 0.10101 0.0
C1062 C 0.15792 0.11436 0.05289 0.0
C1063 C 0.14377 0.09981 0.04409 0.0
C1064 C 0.15192 0.10179 0.20843 0.0
C1065 C 0.15997 0.10332 0.12814 0.0
C1066 C 0.15358 0.1102 0.25002 0.0
C1067 C 0.16829 0.12419 0.2588 0.0
C1068 C 0.16464 0.10795 0.17478 0.0
C1069 C 0.18195 0.12847 0.22561 0.0
C1070 C 0.16631 0.11594 0.0945 0.0
C1071 C 0.13926 0.08625 0.0773 0.0
N1072 N 0.1795 0.12078 0.18474 0.0
N1073 N 0.14695 0.08863 0.11818 0.0
H1074 H 0.12718 0.94331 0.48114 0.0
H1075 H 0.19294 0.87713 0.3199 0.0
H1076 H 0.15974 0.89197 0.52156 0.0
H1077 H 0.14158 0.90971 0.27976 0.0
H1078 H 0.18992 0.89167 0.39334 0.0
H1079 H 0.14159 0.94013 0.40757 0.0
C1080 C 0.13805 0.93193 0.47509 0.0
C1081 C 0.14241 0.91795 0.50748 0.0
C1082 C 0.17971 0.89612 0.368 0.0
C1083 C 0.15869 0.91404 0.4235 0.0
C1084 C 0.18159 0.88803 0.32597 0.0
C1085 C 0.16756 0.89235 0.29372 0.0
C1086 C 0.16384 0.90879 0.37754 0.0
C1087 C 0.15276 0.90612 0.30371 0.0
C1088 C 0.14608 0.92996 0.43299 0.0
C1089 C 0.15613 0.90312 0.49752 0.0
N1090 N 0.15118 0.91371 0.34476 0.0
N1091 N 0.16365 0.90144 0.45639 0.0
H1092 H 0.37598 0.91144 0.7737 0.0
H1093 H 0.35668 0.89368 0.52769 0.0
H1094 H 0.32486 0.87937 0.73027 0.0
H1095 H 0.39045 0.94362 0.57155 0.0
H1096 H 0.34178 0.89102 0.60039 0.0
H1097 H 0.37879 0.92654 0.70129 0.0
C1098 C 0.36486 0.9082 0.74932 0.0
C1099 C 0.35004 0.89431 0.75811 0.0
C1100 C 0.35195 0.90298 0.59391 0.0
C1101 C 0.35374 0.91076 0.67426 0.0
C1102 C 0.36035 0.90459 0.55225 0.0
C1103 C 0.37464 0.91902 0.54348 0.0
C1104 C 0.35841 0.91547 0.62762 0.0
C1105 C 0.37925 0.93248 0.57677 0.0
C1106 C 0.36655 0.91671 0.70782 0.0
C1107 C 0.33632 0.89024 0.72504 0.0
N1108 N 0.37155 0.93007 0.61769 0.0
N1109 N 0.33879 0.89803 0.68424 0.0
H1110 H 0.37654 0.10772 0.77755 0.0
H1111 H 0.358 0.12595 1.02415 0.0
H1112 H 0.32572 0.14012 0.82178 0.0
H1113 H 0.39114 0.07561 0.97998 0.0
H1114 H 0.34315 0.12881 0.95153 0.0
H1115 H 0.3796 0.09288 0.85019 0.0
C1116 C 0.36555 0.1111 0.80218 0.0
C1117 C 0.35072 0.12497 0.79351 0.0
C1118 C 0.35318 0.11673 0.95793 0.0
C1119 C 0.35471 0.10883 0.87758 0.0
C1120 C 0.36155 0.11501 0.99953 0.0
C1121 C 0.37562 0.10037 1.00821 0.0
C1122 C 0.35945 0.10415 0.92417 0.0
C1123 C 0.3801 0.0869 0.97484 0.0
C1124 C 0.36738 0.10274 0.8438 0.0
C1125 C 0.33716 0.12923 0.82691 0.0
N1126 N 0.37242 0.0894 0.93398 0.0
N1127 N 0.33977 0.12158 0.86778 0.0
H1128 H 0.87583 0.91136 0.77357 0.0
H1129 H 0.85758 0.8928 1.02033 0.0
H1130 H 0.82499 0.87905 0.8181 0.0
H1131 H 0.89096 0.94302 0.97626 0.0
H1132 H 0.84267 0.89008 0.94774 0.0
H1133 H 0.8791 0.92605 0.8463 0.0
C1134 C 0.86487 0.90799 0.79829 0.0
C1135 C 0.84996 0.89419 0.78966 0.0
C1136 C 0.85277 0.9021 0.95415 0.0
C1137 C 0.85421 0.91014 0.87384 0.0
C1138 C 0.86118 0.90374 0.99573 0.0
C1139 C 0.87532 0.91831 1.00444 0.0
C1140 C 0.85907 0.9147 0.92043 0.0
C1141 C 0.87986 0.93179 0.97109 0.0
C1142 C 0.86682 0.91626 0.83996 0.0
C1143 C 0.83647 0.8899 0.82318 0.0
N1144 N 0.87214 0.92937 0.93025 0.0
N1145 N 0.8392 0.89745 0.86409 0.0
H1146 H 0.87585 0.10712 0.77375 0.0
H1147 H 0.85648 0.12459 0.52743 0.0
H1148 H 0.82475 0.13912 0.73004 0.0
H1149 H 0.89046 0.07487 0.57165 0.0
H1150 H 0.84165 0.12734 0.60018 0.0
H1151 H 0.87873 0.092 0.70138 0.0
C1152 C 0.86475 0.11033 0.74933 0.0
C1153 C 0.84991 0.1242 0.75803 0.0
C1154 C 0.85185 0.11541 0.59378 0.0
C1155 C 0.8537 0.10775 0.67421 0.0
C1156 C 0.86021 0.11375 0.55209 0.0
C1157 C 0.87452 0.09933 0.54338 0.0
C1158 C 0.85838 0.103 0.62759 0.0
C1159 C 0.87923 0.08598 0.57682 0.0
C1160 C 0.86648 0.10182 0.70784 0.0
C1161 C 0.83622 0.12826 0.72488 0.0
N1162 N 0.87157 0.08843 0.61775 0.0
N1163 N 0.83873 0.12047 0.68411 0.0
H1164 H 0.64417 0.1064 0.2778 0.0
H1165 H 0.66197 0.12509 0.52402 0.0
H1166 H 0.6943 0.13979 0.322 0.0
H1167 H 0.62965 0.07423 0.47998 0.0
H1168 H 0.67713 0.12795 0.45164 0.0
H1169 H 0.64142 0.09136 0.35031 0.0
C1170 C 0.6551 0.10995 0.30238 0.0
C1171 C 0.66962 0.12417 0.29376 0.0
C1172 C 0.66723 0.11575 0.45803 0.0
C1173 C 0.66596 0.1078 0.37771 0.0
C1174 C 0.65869 0.11403 0.49952 0.0
C1175 C 0.64471 0.09927 0.50814 0.0
C1176 C 0.66122 0.10305 0.4243 0.0
C1177 C 0.64059 0.08563 0.47489 0.0
C1178 C 0.65344 0.10147 0.34393 0.0
C1179 C 0.68309 0.12865 0.32709 0.0
N1180 N 0.6484 0.08814 0.43412 0.0
N1181 N 0.68064 0.12088 0.36791 0.0
H1182 H 0.64396 0.91 0.27293 0.0
H1183 H 0.66249 0.89444 0.02573 0.0
H1184 H 0.69491 0.87858 0.22622 0.0
H1185 H 0.62809 0.94347 0.07224 0.0
H1186 H 0.67774 0.89154 0.09788 0.0
H1187 H 0.64083 0.92595 0.20142 0.0
C1188 C 0.65506 0.90719 0.24817 0.0
C1189 C 0.66994 0.89325 0.25574 0.0
C1190 C 0.66735 0.90337 0.09212 0.0
C1191 C 0.66577 0.91052 0.17281 0.0
C1192 C 0.65876 0.90512 0.05074 0.0
C1193 C 0.64422 0.91938 0.04286 0.0
C1194 C 0.66081 0.9155 0.12648 0.0
C1195 C 0.63949 0.93249 0.07677 0.0
C1196 C 0.65315 0.91613 0.20712 0.0
C1197 C 0.68348 0.88956 0.222 0.0
N1198 N 0.64738 0.92993 0.11741 0.0
N1199 N 0.6808 0.89775 0.18171 0.0
H1200 H 0.628 0.57456 0.5706 0.0
H1201 H 0.6947 0.64012 0.73072 0.0
H1202 H 0.66123 0.62544 0.52968 0.0
H1203 H 0.64333 0.60767 0.7718 0.0
H1204 H 0.6915 0.62556 0.65738 0.0
H1205 H 0.64262 0.5775 0.64392 0.0
C1206 C 0.63905 0.58578 0.57647 0.0
C1207 C 0.64354 0.5997 0.54403 0.0
C1208 C 0.68133 0.62113 0.6829 0.0
C1209 C 0.66006 0.60335 0.62774 0.0
C1210 C 0.68332 0.62923 0.72489 0.0
C1211 C 0.66933 0.62497 0.75738 0.0
C1212 C 0.66538 0.60853 0.67362 0.0
C1213 C 0.65449 0.61122 0.74768 0.0
C1214 C 0.6472 0.58762 0.61844 0.0
C1215 C 0.65751 0.61433 0.55377 0.0
N1216 N 0.65279 0.60363 0.70665 0.0
N1217 N 0.66514 0.61589 0.59477 0.0
H1218 H 0.69449 0.3787 0.82006 0.0
H1219 H 0.62842 0.444 0.9823 0.0
H1220 H 0.64287 0.41103 0.78055 0.0
H1221 H 0.66084 0.39238 1.02153 0.0
H1222 H 0.64304 0.44129 0.90885 0.0
H1223 H 0.69151 0.39312 0.89359 0.0
C1224 C 0.6831 0.38954 0.82626 0.0
C1225 C 0.66896 0.39379 0.79417 0.0
C1226 C 0.64746 0.43097 0.93401 0.0
C1227 C 0.6653 0.4101 0.87813 0.0
C1228 C 0.63931 0.43266 0.97606 0.0
C1229 C 0.64355 0.41845 1.00804 0.0
C1230 C 0.66009 0.41511 0.92418 0.0
C1231 C 0.65732 0.4037 0.99781 0.0
C1232 C 0.68124 0.39757 0.86835 0.0
C1233 C 0.65414 0.4075 0.80434 0.0
N1234 N 0.66496 0.40229 0.95674 0.0
N1235 N 0.65257 0.41502 0.84547 0.0
H1236 H 0.85733 0.39226 0.02676 0.0
H1237 H 0.87623 0.41086 0.27261 0.0
H1238 H 0.89018 0.44293 0.06993 0.0
H1239 H 0.82531 0.37836 0.22956 0.0
H1240 H 0.87902 0.42571 0.19991 0.0
H1241 H 0.84251 0.38951 0.09954 0.0
C1242 C 0.86081 0.40329 0.05119 0.0
C1243 C 0.87481 0.41798 0.0422 0.0
C1244 C 0.86683 0.41583 0.20659 0.0
C1245 C 0.85869 0.41434 0.12641 0.0
C1246 C 0.86515 0.40747 0.24824 0.0
C1247 C 0.85038 0.39356 0.25723 0.0
C1248 C 0.85406 0.40971 0.17309 0.0
C1249 C 0.83672 0.38927 0.22416 0.0
C1250 C 0.85246 0.40164 0.09288 0.0
C1251 C 0.87921 0.43159 0.07532 0.0
N1252 N 0.83918 0.39692 0.18324 0.0
N1253 N 0.87157 0.42915 0.11628 0.0
H1254 H 0.82486 0.63979 0.31973 0.0
H1255 H 0.89076 0.57435 0.48169 0.0
H1256 H 0.87696 0.60808 0.28048 0.0
H1257 H 0.85728 0.62517 0.52179 0.0
H1258 H 0.87656 0.57732 0.408 0.0
H1259 H 0.82762 0.62509 0.39306 0.0
C1260 C 0.83633 0.62903 0.32594 0.0
C1261 C 0.85064 0.62502 0.29399 0.0
C1262 C 0.87182 0.5874 0.43337 0.0
C1263 C 0.85405 0.6084 0.3777 0.0
C1264 C 0.87972 0.58554 0.47556 0.0
C1265 C 0.87506 0.59946 0.50789 0.0
C1266 C 0.85902 0.60314 0.42373 0.0
C1267 C 0.86112 0.61406 0.49781 0.0
C1268 C 0.83805 0.62085 0.36791 0.0
C1269 C 0.86556 0.61143 0.30417 0.0
N1270 N 0.85373 0.61564 0.45659 0.0
N1271 N 0.86699 0.60375 0.34517 0.0
H1272 H 0.39075 0.44395 0.48061 0.0
H1273 H 0.32452 0.37808 0.32021 0.0
H1274 H 0.35756 0.39304 0.52153 0.0
H1275 H 0.37605 0.41041 0.27964 0.0
H1276 H 0.32751 0.39276 0.39348 0.0
H1277 H 0.37625 0.4409 0.40721 0.0
C1278 C 0.37972 0.43271 0.47472 0.0
C1279 C 0.37523 0.41879 0.50718 0.0
C1280 C 0.33776 0.39713 0.36808 0.0
C1281 C 0.35885 0.41503 0.42338 0.0
C1282 C 0.3359 0.38895 0.32614 0.0
C1283 C 0.35 0.39315 0.29383 0.0
C1284 C 0.35369 0.40975 0.37748 0.0
C1285 C 0.36482 0.4069 0.30364 0.0
C1286 C 0.37164 0.43081 0.43271 0.0
C1287 C 0.36129 0.40414 0.49743 0.0
N1288 N 0.3664 0.41457 0.34462 0.0
N1289 N 0.35373 0.40252 0.45637 0.0
H1290 H 0.35821 0.62686 0.02641 0.0
H1291 H 0.37647 0.60829 0.27277 0.0
H1292 H 0.39067 0.57607 0.07038 0.0
H1293 H 0.3262 0.64153 0.22886 0.0
H1294 H 0.37926 0.59338 0.20015 0.0
H1295 H 0.34332 0.62985 0.09905 0.0
C1296 C 0.36159 0.61586 0.05099 0.0
C1297 C 0.3755 0.60106 0.04226 0.0
C1298 C 0.3672 0.60344 0.20661 0.0
C1299 C 0.3593 0.60498 0.12632 0.0
C1300 C 0.36553 0.61185 0.24821 0.0
C1301 C 0.35094 0.62596 0.25694 0.0
C1302 C 0.35462 0.60973 0.17292 0.0
C1303 C 0.33745 0.63045 0.22366 0.0
C1304 C 0.35319 0.61765 0.0926 0.0
C1305 C 0.37976 0.58749 0.07557 0.0
N1306 N 0.33991 0.62274 0.1828 0.0
N1307 N 0.37208 0.59006 0.11644 0.0
H1308 H 0.16234 0.62378 1.02198 0.0
H1309 H 0.14243 0.60757 0.77567 0.0
H1310 H 0.1281 0.57437 0.977 0.0
H1311 H 0.19384 0.63905 0.81949 0.0
H1312 H 0.13964 0.59209 0.84771 0.0
H1313 H 0.17714 0.62674 0.94924 0.0
C1314 C 0.15855 0.61304 0.99715 0.0
C1315 C 0.14416 0.59867 1.00563 0.0
C1316 C 0.15193 0.60187 0.84132 0.0
C1317 C 0.16026 0.60258 0.92146 0.0
C1318 C 0.15361 0.6106 0.80004 0.0
C1319 C 0.16852 0.62441 0.79149 0.0
C1320 C 0.16486 0.60754 0.87492 0.0
C1321 C 0.18232 0.62823 0.82455 0.0
C1322 C 0.16689 0.61481 0.95547 0.0
C1323 C 0.13938 0.58545 0.972 0.0
N1324 N 0.17987 0.62024 0.86515 0.0
N1325 N 0.14702 0.58803 0.93109 0.0
H1326 H 0.14315 0.41124 0.77199 0.0
H1327 H 0.16132 0.39283 0.52544 0.0
H1328 H 0.19309 0.37753 0.72766 0.0
H1329 H 0.12921 0.44375 0.56999 0.0
H1330 H 0.17626 0.38967 0.59789 0.0
H1331 H 0.14055 0.42627 0.69947 0.0
C1332 C 0.15405 0.40759 0.74735 0.0
C1333 C 0.16849 0.39331 0.75595 0.0
C1334 C 0.16647 0.40195 0.5916 0.0
C1335 C 0.16503 0.40971 0.67202 0.0
C1336 C 0.15806 0.40385 0.55008 0.0
C1337 C 0.14421 0.41872 0.54158 0.0
C1338 C 0.16044 0.41459 0.62547 0.0
C1339 C 0.14007 0.43228 0.57499 0.0
C1340 C 0.15249 0.41607 0.70581 0.0
C1341 C 0.18195 0.38872 0.72257 0.0
N1342 N 0.14775 0.4296 0.61578 0.0
N1343 N 0.1796 0.39652 0.68176 0.0
H1344 H 0.148 0.25486 0.4591 0.0
H1345 H 0.14301 0.35601 0.32583 0.0
H1346 H 0.15156 0.25748 0.31842 0.0
H1347 H 0.11729 0.34951 0.45397 0.0
H1348 H 0.14992 0.32049 0.32472 0.0
H1349 H 0.14042 0.29031 0.46041 0.0
C1350 C 0.14721 0.26291 0.42856 0.0
C1351 C 0.15026 0.25321 0.38859 0.0
C1352 C 0.14266 0.32683 0.35298 0.0
C1353 C 0.14183 0.29367 0.38982 0.0
C1354 C 0.13879 0.34706 0.35364 0.0
C1355 C 0.12945 0.35566 0.38986 0.0
C1356 C 0.13751 0.31514 0.3892 0.0
C1357 C 0.12424 0.34342 0.42512 0.0
C1358 C 0.1428 0.28307 0.42929 0.0
C1359 C 0.14904 0.26433 0.34991 0.0
N1360 N 0.12848 0.32381 0.42407 0.0
N1361 N 0.14504 0.28395 0.3515 0.0
H1362 H 0.92044 0.85078 0.64026 0.0
H1363 H 1.00552 0.93294 0.64411 0.0
H1364 H 0.90935 0.91339 0.63619 0.0
H1365 H 0.01723 0.87041 0.64673 0.0
H1366 H 0.97022 0.92595 0.64314 0.0
H1367 H 0.95585 0.85753 0.64339 0.0
C1368 C 0.92541 0.86594 0.64002 0.0
C1369 C 0.91178 0.88151 0.63794 0.0
C1370 C 0.98049 0.91374 0.64411 0.0
C1371 C 0.95242 0.88938 0.64143 0.0
C1372 C 1.0007 0.91772 0.64511 0.0
C1373 C 0.01447 0.90224 0.64569 0.0
C1374 C 0.97386 0.89411 0.64365 0.0
C1375 C 1.00721 0.88282 0.6459 0.0
C1376 C 0.94566 0.86979 0.6417 0.0
C1377 C 0.91919 0.90087 0.63717 0.0
N1378 N 0.98745 0.87932 0.64484 0.0
N1379 N 0.93894 0.90423 0.63904 0.0
H1380 H 0.3747 0.66196 0.82454 0.0
H1381 H 0.36925 0.76322 0.95731 0.0
H1382 H 0.40078 0.66893 0.95201 0.0
H1383 H 0.36589 0.76064 0.81664 0.0
H1384 H 0.37682 0.72778 0.95863 0.0
H1385 H 0.36738 0.69742 0.82336 0.0
C1386 C 0.3789 0.67099 0.85218 0.0
C1387 C 0.3885 0.66256 0.88821 0.0
C1388 C 0.37448 0.73502 0.92751 0.0
C1389 C 0.37996 0.70298 0.88748 0.0
C1390 C 0.37008 0.75518 0.92677 0.0
C1391 C 0.3671 0.76489 0.88681 0.0
C1392 C 0.3755 0.72443 0.88805 0.0
C1393 C 0.36835 0.75378 0.84813 0.0
C1394 C 0.37479 0.69119 0.85148 0.0
C1395 C 0.39366 0.67489 0.92329 0.0
N1396 N 0.37234 0.73415 0.84972 0.0
N1397 N 0.38919 0.69445 0.9222 0.0
H1398 H 0.51281 0.08556 0.14571 0.0
H1399 H 0.59794 0.16768 0.14382 0.0
H1400 H 0.50097 0.14808 0.14649 0.0
H1401 H 0.60889 0.10502 0.14227 0.0
H1402 H 0.56247 0.16102 0.14551 0.0
H1403 H 0.54808 0.0926 0.1462 0.0
C1404 C 0.51759 0.10079 0.1466 0.0
C1405 C 0.50379 0.11624 0.14627 0.0
C1406 C 0.57265 0.14874 0.14469 0.0
C1407 C 0.5444 0.12444 0.14591 0.0
C1408 C 0.59294 0.15254 0.14384 0.0
C1409 C 0.60655 0.13692 0.14283 0.0
C1410 C 0.56585 0.12916 0.14467 0.0
C1411 C 0.59909 0.11757 0.14239 0.0
C1412 C 0.53779 0.10481 0.14644 0.0
C1413 C 0.51101 0.13568 0.14636 0.0
N1414 N 0.57932 0.11428 0.14342 0.0
N1415 N 0.53078 0.13922 0.14613 0.0
H1416 H 0.16465 0.65873 0.15748 0.0
H1417 H 0.1194 0.76786 0.15236 0.0
H1418 H 0.10212 0.67055 0.15611 0.0
H1419 H 0.18177 0.75528 0.15477 0.0
H1420 H 0.11265 0.73241 0.15254 0.0
H1421 H 0.17102 0.69404 0.1564 0.0
C1422 C 0.15221 0.66869 0.15742 0.0
C1423 C 0.13277 0.6615 0.15703 0.0
C1424 C 0.12781 0.73741 0.15281 0.0
C1425 C 0.14005 0.70227 0.15502 0.0
C1426 C 0.13168 0.75767 0.15279 0.0
C1427 C 0.1512 0.76465 0.15347 0.0
C1428 C 0.14355 0.72395 0.15369 0.0
C1429 C 0.1665 0.75068 0.15354 0.0
C1430 C 0.15589 0.68894 0.15641 0.0
C1431 C 0.11733 0.67534 0.15602 0.0
N1432 N 0.16234 0.73106 0.15383 0.0
N1433 N 0.12131 0.69501 0.15506 0.0
H1434 H 0.50588 0.89381 0.48535 0.0
H1435 H 0.60533 0.88671 0.34451 0.0
H1436 H 0.5085 0.90635 0.34707 0.0
H1437 H 0.6015 0.8717 0.4814 0.0
H1438 H 0.57022 0.89472 0.34494 0.0
H1439 H 0.54099 0.88629 0.48447 0.0
C1440 C 0.51377 0.89479 0.45461 0.0
C1441 C 0.50404 0.90052 0.41607 0.0
C1442 C 0.57706 0.88968 0.3749 0.0
C1443 C 0.54464 0.89225 0.4151 0.0
C1444 C 0.59713 0.885 0.37465 0.0
C1445 C 0.60648 0.87837 0.41293 0.0
C1446 C 0.56614 0.88776 0.41371 0.0
C1447 C 0.59507 0.87688 0.45118 0.0
C1448 C 0.53392 0.89064 0.45425 0.0
C1449 C 0.51532 0.90207 0.37761 0.0
N1450 N 0.57554 0.88146 0.45054 0.0
N1451 N 0.53497 0.89792 0.37809 0.0
H1452 H 0.41754 0.34756 0.66058 0.0
H1453 H 0.33519 0.2627 0.65598 0.0
H1454 H 0.35491 0.35878 0.65926 0.0
H1455 H 0.39769 0.25076 0.65769 0.0
H1456 H 0.3423 0.29796 0.65551 0.0
H1457 H 0.41075 0.31213 0.65901 0.0
C1458 C 0.40237 0.34262 0.65997 0.0
C1459 C 0.3868 0.3563 0.66009 0.0
C1460 C 0.35448 0.28765 0.65582 0.0
C1461 C 0.3789 0.31564 0.65838 0.0
C1462 C 0.35043 0.26746 0.65566 0.0
C1463 C 0.36585 0.25364 0.65671 0.0
C1464 C 0.37413 0.29421 0.65708 0.0
C1465 C 0.38531 0.26082 0.65729 0.0
C1466 C 0.3985 0.32236 0.65918 0.0
C1467 C 0.36742 0.34892 0.65981 0.0
N1468 N 0.38888 0.28057 0.65751 0.0
N1469 N 0.36405 0.32917 0.65885 0.0
H1470 H 0.91258 0.12558 0.97394 0.0
H1471 H 0.01387 0.12 0.84099 0.0
H1472 H 0.91922 0.15103 0.84563 0.0
H1473 H 0.01116 0.11734 0.98175 0.0
H1474 H 0.9784 0.12757 0.83947 0.0
H1475 H 0.9481 0.11866 0.97517 0.0
C1476 C 0.92156 0.12974 0.94611 0.0
C1477 C 0.913 0.13901 0.90981 0.0
C1478 C 0.98563 0.1254 0.87065 0.0
C1479 C 0.95352 0.13093 0.91061 0.0
C1480 C 1.0058 0.12099 0.8715 0.0
C1481 C 0.01547 0.1182 0.91155 0.0
C1482 C 0.97501 0.12661 0.91009 0.0
C1483 C 1.00433 0.11966 0.95019 0.0
C1484 C 0.94179 0.12586 0.94684 0.0
C1485 C 0.92528 0.14414 0.87453 0.0
N1486 N 0.9847 0.12364 0.94849 0.0
N1487 N 0.94489 0.13989 0.87565 0.0
H1488 H 0.83438 0.75592 0.65822 0.0
H1489 H 0.91719 0.67151 0.65858 0.0
H1490 H 0.8968 0.76827 0.65416 0.0
H1491 H 0.8546 0.66003 0.66087 0.0
H1492 H 0.91023 0.70691 0.65687 0.0
H1493 H 0.84169 0.72073 0.65812 0.0
C1494 C 0.84964 0.75127 0.65671 0.0
C1495 C 0.86498 0.76519 0.65597 0.0
C1496 C 0.89803 0.69663 0.65785 0.0
C1497 C 0.8735 0.72467 0.65679 0.0
C1498 C 0.902 0.67638 0.65871 0.0
C1499 C 0.88649 0.66263 0.65991 0.0
C1500 C 0.8784 0.70326 0.6581 0.0
C1501 C 0.86708 0.66993 0.66058 0.0
C1502 C 0.85381 0.73111 0.65709 0.0
C1503 C 0.88448 0.75813 0.65513 0.0
N1504 N 0.86362 0.68966 0.65956 0.0
N1505 N 0.88817 0.7384 0.6556 0.0
H1506 H 1.00461 0.11958 0.33973 0.0
H1507 H 0.10525 0.125 0.47443 0.0
H1508 H 1.00646 0.11734 0.48057 0.0
H1509 H 0.09924 0.15054 0.3461 0.0
H1510 H 0.0697 0.11809 0.47504 0.0
H1511 H 0.04012 0.12694 0.33887 0.0
C1512 C 0.0125 0.12062 0.3704 0.0
C1513 C 1.00257 0.11801 0.41027 0.0
C1514 C 0.07616 0.1253 0.44685 0.0
C1515 C 0.0431 0.12617 0.40956 0.0
C1516 C 0.09641 0.12917 0.44647 0.0
C1517 C 0.10514 0.13849 0.41037 0.0
C1518 C 0.06461 0.13041 0.41045 0.0
C1519 C 0.09304 0.14362 0.37488 0.0
C1520 C 0.0327 0.1249 0.36992 0.0
C1521 C 0.0135 0.11952 0.44913 0.0
N1522 N 0.07342 0.13938 0.37566 0.0
N1523 N 0.03316 0.12337 0.4478 0.0
H1524 H 0.61735 0.3496 0.09589 0.0
H1525 H 0.65281 0.25676 0.23515 0.0
H1526 H 0.6439 0.3553 0.2232 0.0
H1527 H 0.64897 0.25527 0.09447 0.0
H1528 H 0.64543 0.29209 0.23364 0.0
H1529 H 0.62454 0.31418 0.09709 0.0
C1530 C 0.6245 0.34334 0.12431 0.0
C1531 C 0.62994 0.35537 0.15968 0.0
C1532 C 0.6462 0.28404 0.2031 0.0
C1533 C 0.63826 0.31489 0.16117 0.0
C1534 C 0.65029 0.26387 0.20393 0.0
C1535 C 0.65139 0.25306 0.16486 0.0
C1536 C 0.64289 0.29349 0.16294 0.0
C1537 C 0.64828 0.26308 0.1253 0.0
C1538 C 0.62877 0.32318 0.12478 0.0
C1539 C 0.63952 0.34655 0.19529 0.0
N1540 N 0.64401 0.28271 0.12535 0.0
N1541 N 0.64326 0.32683 0.19528 0.0
H1542 H 0.41225 0.89283 0.97486 0.0
H1543 H 0.51367 0.89879 0.84254 0.0
H1544 H 0.41915 0.86747 0.84657 0.0
H1545 H 0.51087 0.90137 0.98329 0.0
H1546 H 0.47825 0.89107 0.84089 0.0
H1547 H 0.44776 0.89981 0.97642 0.0
C1548 C 0.42128 0.88871 0.94711 0.0
C1549 C 0.4128 0.87944 0.91072 0.0
C1550 C 0.48544 0.89326 0.87211 0.0
C1551 C 0.45331 0.8876 0.91189 0.0
C1552 C 0.50559 0.89775 0.87303 0.0
C1553 C 0.51523 0.90058 0.91311 0.0
C1554 C 0.47479 0.89199 0.9115 0.0
C1555 C 0.50407 0.89904 0.95171 0.0
C1556 C 0.44151 0.89262 0.94803 0.0
C1557 C 0.42515 0.87436 0.87554 0.0
N1558 N 0.48445 0.89498 0.94994 0.0
N1559 N 0.44475 0.87865 0.87684 0.0
H1560 H 0.87446 0.35652 0.82457 0.0
H1561 H 0.86903 0.2552 0.95732 0.0
H1562 H 0.90025 0.34962 0.95236 0.0
H1563 H 0.86591 0.2578 0.81662 0.0
H1564 H 0.87651 0.29067 0.9587 0.0
H1565 H 0.86726 0.32103 0.8233 0.0
C1566 C 0.87862 0.3475 0.85227 0.0
C1567 C 0.8881 0.35596 0.88841 0.0
C1568 C 0.87424 0.28343 0.92755 0.0
C1569 C 0.8797 0.3155 0.88758 0.0
C1570 C 0.86989 0.26325 0.92679 0.0
C1571 C 0.867 0.25354 0.8868 0.0
C1572 C 0.87531 0.29403 0.8881 0.0
C1573 C 0.8683 0.26466 0.84813 0.0
C1574 C 0.87458 0.32728 0.85152 0.0
C1575 C 0.89321 0.34363 0.92355 0.0
N1576 N 0.87224 0.28431 0.84975 0.0
N1577 N 0.88882 0.32406 0.92241 0.0
H1578 H 0.41845 0.15098 0.70403 0.0
H1579 H 0.51094 0.11486 0.56399 0.0
H1580 H 0.4124 0.12412 0.57705 0.0
H1581 H 0.51273 0.11952 0.70454 0.0
H1582 H 0.47562 0.12228 0.56579 0.0
H1583 H 0.45385 0.14376 0.70237 0.0
C1584 C 0.42462 0.14376 0.67558 0.0
C1585 C 0.4125 0.13825 0.64044 0.0
C1586 C 0.48373 0.12167 0.59624 0.0
C1587 C 0.45297 0.12988 0.63843 0.0
C1588 C 0.5039 0.11757 0.59523 0.0
C1589 C 0.5148 0.11668 0.63419 0.0
C1590 C 0.47437 0.12522 0.63645 0.0
C1591 C 0.50486 0.12002 0.6738 0.0
C1592 C 0.44478 0.13948 0.67485 0.0
C1593 C 0.42123 0.12856 0.60479 0.0
N1594 N 0.48523 0.1243 0.67391 0.0
N1595 N 0.44095 0.1248 0.60455 0.0
H1596 H 0.62147 0.76781 0.39239 0.0
H1597 H 0.66585 0.65832 0.39341 0.0
H1598 H 0.68376 0.75511 0.39747 0.0
H1599 H 0.6035 0.67095 0.3902 0.0
H1600 H 0.67265 0.69361 0.39499 0.0
H1601 H 0.61458 0.73244 0.39307 0.0
C1602 C 0.63371 0.75759 0.3938 0.0
C1603 C 0.65324 0.7645 0.39473 0.0
C1604 C 0.65747 0.68868 0.3939 0.0
C1605 C 0.64544 0.72385 0.39547 0.0
C1606 C 0.65355 0.66846 0.39259 0.0
C1607 C 0.63402 0.66152 0.39154 0.0
C1608 C 0.64178 0.70219 0.3941 0.0
C1609 C 0.61876 0.67554 0.39141 0.0
C1610 C 0.62976 0.73737 0.39425 0.0
C1611 C 0.66847 0.75051 0.39717 0.0
N1612 N 0.62296 0.69516 0.39266 0.0
N1613 N 0.66425 0.73089 0.39719 0.0
H1614 H 0.01223 0.93299 0.1426 0.0
H1615 H 0.09712 0.85068 0.13954 0.0
H1616 H 1.00032 0.87048 0.1441 0.0
H1617 H 0.10838 0.91331 0.14028 0.0
H1618 H 0.0617 0.85748 0.14117 0.0
H1619 H 0.04749 0.92592 0.14283 0.0
C1620 C 0.01698 0.91776 0.14359 0.0
C1621 C 1.00316 0.90232 0.14354 0.0
C1622 C 0.07193 0.86973 0.14087 0.0
C1623 C 0.04377 0.89409 0.14285 0.0
C1624 C 0.09219 0.86586 0.14005 0.0
C1625 C 0.10589 0.88141 0.13978 0.0
C1626 C 0.06522 0.88933 0.1415 0.0
C1627 C 0.09852 0.90079 0.13988 0.0
C1628 C 0.03719 0.91373 0.14329 0.0
C1629 C 0.01037 0.88288 0.14374 0.0
N1630 N 0.07875 0.90417 0.14085 0.0
N1631 N 0.03013 0.87933 0.14334 0.0
H1632 H 0.64957 0.75504 0.96053 0.0
H1633 H 0.64369 0.85611 0.82714 0.0
H1634 H 0.65209 0.7575 0.81974 0.0
H1635 H 0.61824 0.84956 0.95554 0.0
H1636 H 0.65078 0.82062 0.82608 0.0
H1637 H 0.64199 0.7905 0.96192 0.0
C1638 C 0.64855 0.76305 0.92998 0.0
C1639 C 0.6513 0.75331 0.88996 0.0
C1640 C 0.64355 0.82695 0.8544 0.0
C1641 C 0.64289 0.79378 0.89127 0.0
C1642 C 0.63957 0.84716 0.85503 0.0
C1643 C 0.63024 0.85573 0.89129 0.0
C1644 C 0.63852 0.81525 0.89068 0.0
C1645 C 0.62518 0.84349 0.92665 0.0
C1646 C 0.64414 0.78322 0.93076 0.0
C1647 C 0.64981 0.76438 0.85128 0.0
N1648 N 0.62952 0.8239 0.92562 0.0
N1649 N 0.64583 0.78402 0.8529 0.0
H1650 H 0.42041 0.3508 0.13862 0.0
H1651 H 0.50554 0.43284 0.14497 0.0
H1652 H 0.40939 0.41345 0.14133 0.0
H1653 H 0.5173 0.37032 0.14175 0.0
H1654 H 0.47026 0.42584 0.14512 0.0
H1655 H 0.45587 0.35747 0.14009 0.0
C1656 C 0.4254 0.36595 0.13951 0.0
C1657 C 0.41178 0.38155 0.13983 0.0
C1658 C 0.48053 0.41363 0.14455 0.0
C1659 C 0.45246 0.38932 0.14143 0.0
C1660 C 0.50074 0.41761 0.14489 0.0
C1661 C 0.51451 0.40215 0.14354 0.0
C1662 C 0.47391 0.39401 0.1428 0.0
C1663 C 0.50727 0.38273 0.14242 0.0
C1664 C 0.44568 0.36975 0.14024 0.0
C1665 C 0.41921 0.40091 0.14044 0.0
N1666 N 0.48751 0.37922 0.14205 0.0
N1667 N 0.43898 0.40421 0.14135 0.0
H1668 H 0.85351 0.159 0.39115 0.0
H1669 H 0.89826 0.26838 0.39413 0.0
H1670 H 0.91599 0.17115 0.39195 0.0
H1671 H 0.83594 0.25548 0.39399 0.0
H1672 H 0.90518 0.23297 0.39421 0.0
H1673 H 0.84698 0.19428 0.39201 0.0
C1674 C 0.86591 0.16903 0.39105 0.0
C1675 C 0.88538 0.16194 0.39132 0.0
C1676 C 0.88999 0.23788 0.39437 0.0
C1677 C 0.87791 0.20267 0.39306 0.0
C1678 C 0.88602 0.25812 0.39423 0.0
C1679 C 0.86647 0.265 0.39412 0.0
C1680 C 0.87431 0.22434 0.39419 0.0
C1681 C 0.85124 0.25095 0.39474 0.0
C1682 C 0.86213 0.18926 0.39193 0.0
C1683 C 0.90075 0.17585 0.39212 0.0
N1684 N 0.85548 0.23135 0.39457 0.0
N1685 N 0.89669 0.19551 0.39294 0.0
H1686 H 1.00674 0.61686 0.56773 0.0
H1687 H 0.10017 0.65139 0.70602 0.0
H1688 H 1.00559 0.62042 0.70848 0.0
H1689 H 0.1053 0.62536 0.57797 0.0
H1690 H 0.0647 0.64441 0.70536 0.0
H1691 H 0.04209 0.62408 0.56876 0.0
C1692 C 0.01393 0.61929 0.59887 0.0
C1693 C 1.0032 0.61816 0.6381 0.0
C1694 C 0.07358 0.64026 0.67739 0.0
C1695 C 0.04368 0.62647 0.63947 0.0
C1696 C 0.09378 0.6444 0.67756 0.0
C1697 C 0.10566 0.63905 0.64182 0.0
C1698 C 0.06512 0.63097 0.64094 0.0
C1699 C 0.09666 0.62967 0.60617 0.0
C1700 C 0.03412 0.62328 0.59943 0.0
C1701 C 0.01334 0.62113 0.67754 0.0
N1702 N 0.07692 0.62604 0.60648 0.0
N1703 N 0.03299 0.62531 0.67723 0.0
H1704 H 0.65264 0.26072 0.73592 0.0
H1705 H 0.61698 0.1684 0.59505 0.0
H1706 H 0.6486 0.26275 0.5953 0.0
H1707 H 0.64312 0.16237 0.72271 0.0
H1708 H 0.62415 0.20383 0.59682 0.0
H1709 H 0.64503 0.22546 0.73388 0.0
C1710 C 0.65003 0.25374 0.7046 0.0
C1711 C 0.65114 0.26469 0.66571 0.0
C1712 C 0.62828 0.19475 0.62447 0.0
C1713 C 0.64238 0.22432 0.66317 0.0
C1714 C 0.62402 0.17458 0.62367 0.0
C1715 C 0.62938 0.16246 0.65895 0.0
C1716 C 0.63768 0.20293 0.66109 0.0
C1717 C 0.63882 0.17119 0.69484 0.0
C1718 C 0.64581 0.2336 0.70346 0.0
C1719 C 0.64792 0.25483 0.626 0.0
N1720 N 0.64256 0.19091 0.69513 0.0
N1721 N 0.64353 0.23522 0.62575 0.0
H1722 H 0.10973 0.41481 0.90906 0.0
H1723 H 1.00041 0.36989 0.90657 0.0
H1724 H 0.09764 0.35233 0.91014 0.0
H1725 H 0.0132 0.43222 0.907 0.0
H1726 H 0.03584 0.36304 0.90691 0.0
H1727 H 0.07443 0.4213 0.90843 0.0
C1728 C 0.09971 0.40241 0.90963 0.0
C1729 C 0.10682 0.38294 0.90976 0.0
C1730 C 0.03089 0.37821 0.90675 0.0
C1731 C 0.06608 0.39036 0.90827 0.0
C1732 C 0.01064 0.38214 0.90664 0.0
C1733 C 1.00373 0.40167 0.90668 0.0
C1734 C 0.04441 0.39391 0.90706 0.0
C1735 C 0.01776 0.41693 0.90628 0.0
C1736 C 0.07947 0.40616 0.90889 0.0
C1737 C 0.09292 0.36756 0.9096 0.0
N1738 N 0.03736 0.41273 0.90664 0.0
N1739 N 0.07326 0.37159 0.90886 0.0
H1740 H 0.85376 0.85967 0.1581 0.0
H1741 H 0.89882 0.75042 0.15771 0.0
H1742 H 0.91626 0.84769 0.1587 0.0
H1743 H 0.83646 0.76309 0.15634 0.0
H1744 H 0.90562 0.78585 0.15741 0.0
H1745 H 0.84731 0.82436 0.15784 0.0
C1746 C 0.86617 0.84967 0.15864 0.0
C1747 C 0.88563 0.85681 0.15855 0.0
C1748 C 0.89045 0.78088 0.15698 0.0
C1749 C 0.87826 0.81605 0.15751 0.0
C1750 C 0.88655 0.76063 0.15724 0.0
C1751 C 0.86702 0.75368 0.15698 0.0
C1752 C 0.87473 0.79437 0.15664 0.0
C1753 C 0.85175 0.76767 0.15589 0.0
C1754 C 0.86245 0.82942 0.1581 0.0
C1755 C 0.90104 0.84294 0.15835 0.0
N1756 N 0.85593 0.78729 0.15593 0.0
N1757 N 0.89703 0.82327 0.15785 0.0
H1758 H 0.51925 0.64944 0.4039 0.0
H1759 H 0.40984 0.60469 0.40987 0.0
H1760 H 0.50632 0.58714 0.40622 0.0
H1761 H 0.42197 0.66716 0.40845 0.0
H1762 H 0.44513 0.59817 0.40861 0.0
H1763 H 0.48382 0.65636 0.40456 0.0
C1764 C 0.50899 0.6372 0.40443 0.0
C1765 C 0.51587 0.61766 0.4049 0.0
C1766 C 0.44011 0.61332 0.40865 0.0
C1767 C 0.47519 0.62551 0.40568 0.0
C1768 C 0.41986 0.61709 0.40976 0.0
C1769 C 0.41276 0.63656 0.40939 0.0
C1770 C 0.45351 0.6291 0.40719 0.0
C1771 C 0.42668 0.65193 0.40833 0.0
C1772 C 0.48874 0.64118 0.40472 0.0
C1773 C 0.5018 0.60243 0.40512 0.0
N1774 N 0.44634 0.64787 0.40727 0.0
N1775 N 0.4822 0.60668 0.40567 0.0
H1776 H 0.41779 0.17091 0.16137 0.0
H1777 H 0.3356 0.25585 0.15588 0.0
H1778 H 0.35514 0.15978 0.16005 0.0
H1779 H 0.39812 0.26774 0.15642 0.0
H1780 H 0.34265 0.22059 0.15592 0.0
H1781 H 0.41108 0.20634 0.15924 0.0
C1782 C 0.40263 0.17587 0.16064 0.0
C1783 C 0.38704 0.16222 0.16092 0.0
C1784 C 0.35485 0.23089 0.15585 0.0
C1785 C 0.37922 0.20288 0.15858 0.0
C1786 C 0.35083 0.25108 0.15538 0.0
C1787 C 0.36628 0.26489 0.15595 0.0
C1788 C 0.37449 0.22431 0.15695 0.0
C1789 C 0.38572 0.25769 0.15637 0.0
C1790 C 0.3988 0.19613 0.15952 0.0
C1791 C 0.36768 0.16962 0.16048 0.0
N1792 N 0.38927 0.23794 0.15691 0.0
N1793 N 0.36435 0.18938 0.15922 0.0
H1794 H 0.59842 0.6679 0.91024 0.0
H1795 H 0.5134 0.58573 0.90632 0.0
H1796 H 0.60946 0.60524 0.91 0.0
H1797 H 0.50153 0.64824 0.9065 0.0
H1798 H 0.54866 0.59278 0.90616 0.0
H1799 H 0.56296 0.6612 0.9085 0.0
C1800 C 0.59343 0.65274 0.90984 0.0
C1801 C 0.60706 0.63714 0.91031 0.0
C1802 C 0.53836 0.60498 0.90606 0.0
C1803 C 0.56639 0.62935 0.9084 0.0
C1804 C 0.51817 0.60096 0.90572 0.0
C1805 C 0.50437 0.61641 0.90622 0.0
C1806 C 0.54496 0.62462 0.90697 0.0
C1807 C 0.51158 0.63585 0.90649 0.0
C1808 C 0.57316 0.64893 0.90894 0.0
C1809 C 0.59964 0.61778 0.91028 0.0
N1810 N 0.53134 0.63939 0.9069 0.0
N1811 N 0.57987 0.61447 0.90922 0.0
H1812 H 0.10104 0.84756 0.66281 0.0
H1813 H 0.18371 0.76305 0.65652 0.0
H1814 H 0.16361 0.8591 0.66035 0.0
H1815 H 0.12126 0.75088 0.65976 0.0
H1816 H 0.17648 0.79829 0.65627 0.0
H1817 H 0.10799 0.81217 0.66119 0.0
C1818 C 0.11623 0.8427 0.66194 0.0
C1819 C 0.13173 0.85645 0.66175 0.0
C1820 C 0.16434 0.78793 0.65688 0.0
C1821 C 0.13982 0.81584 0.65998 0.0
C1822 C 0.16846 0.76775 0.65659 0.0
C1823 C 0.15308 0.75388 0.658 0.0
C1824 C 0.14468 0.79442 0.6586 0.0
C1825 C 0.13361 0.76099 0.65906 0.0
C1826 C 0.12019 0.82246 0.66112 0.0
C1827 C 0.15115 0.84918 0.66114 0.0
N1828 N 0.12997 0.78072 0.65938 0.0
N1829 N 0.15461 0.82944 0.66015 0.0
H1830 H 0.91849 0.36793 0.34546 0.0
H1831 H 0.01107 0.40349 0.48519 0.0
H1832 H 0.91254 0.39428 0.47303 0.0
H1833 H 0.01278 0.39944 0.34453 0.0
H1834 H 0.97573 0.39613 0.48358 0.0
H1835 H 0.95388 0.37521 0.34681 0.0
C1836 C 0.92468 0.37506 0.37397 0.0
C1837 C 0.9126 0.3804 0.40937 0.0
C1838 C 0.98383 0.39686 0.45307 0.0
C1839 C 0.95305 0.38883 0.41103 0.0
C1840 C 1.004 0.40093 0.45396 0.0
C1841 C 0.01488 0.40196 0.41492 0.0
C1842 C 0.97445 0.39349 0.41288 0.0
C1843 C 1.00492 0.39881 0.37533 0.0
C1844 C 0.94483 0.37937 0.37452 0.0
C1845 C 0.92135 0.38997 0.44509 0.0
N1846 N 0.98528 0.39456 0.37533 0.0
N1847 N 0.94106 0.39376 0.44516 0.0
H1848 H 0.39941 0.75051 0.39724 0.0
H1849 H 0.35481 0.85989 0.38919 0.0
H1850 H 0.33711 0.76335 0.39332 0.0
H1851 H 0.41723 0.84762 0.39265 0.0
H1852 H 0.34819 0.8246 0.39038 0.0
H1853 H 0.40632 0.78591 0.39646 0.0
C1854 C 0.38717 0.76075 0.39634 0.0
C1855 C 0.36763 0.75385 0.39543 0.0
C1856 C 0.36335 0.8296 0.3908 0.0
C1857 C 0.37546 0.79452 0.39449 0.0
C1858 C 0.36717 0.84983 0.38973 0.0
C1859 C 0.38666 0.85688 0.39073 0.0
C1860 C 0.37908 0.81617 0.39287 0.0
C1861 C 0.40199 0.84294 0.39229 0.0
C1862 C 0.39113 0.78099 0.39597 0.0
C1863 C 0.35239 0.76789 0.39474 0.0
N1864 N 0.39788 0.8233 0.39332 0.0
N1865 N 0.35663 0.78749 0.39412 0.0
H1866 H 0.0122 0.6164 0.06602 0.0
H1867 H 0.91914 0.6511 0.2058 0.0
H1868 H 0.0136 0.62002 0.20674 0.0
H1869 H 0.9136 0.62477 0.07816 0.0
H1870 H 0.95459 0.64412 0.20445 0.0
H1871 H 0.97684 0.62363 0.06761 0.0
C1872 C 1.00506 0.61886 0.09726 0.0
C1873 C 0.01585 0.61773 0.13633 0.0
C1874 C 0.94562 0.6399 0.17672 0.0
C1875 C 0.97539 0.62604 0.13835 0.0
C1876 C 0.92544 0.64404 0.17728 0.0
C1877 C 0.91346 0.63861 0.14185 0.0
C1878 C 0.95397 0.63053 0.14019 0.0
C1879 C 0.92233 0.62914 0.10611 0.0
C1880 C 0.98487 0.62285 0.09815 0.0
C1881 C 1.0058 0.62073 0.17592 0.0
N1882 N 0.94207 0.62552 0.10604 0.0
N1883 N 0.98615 0.62491 0.17593 0.0
H1884 H 0.18245 0.25641 0.89503 0.0
H1885 H 0.10059 0.17108 0.89243 0.0
H1886 H 0.11989 0.2681 0.89555 0.0
H1887 H 0.16331 0.16033 0.89186 0.0
H1888 H 0.10714 0.20657 0.89403 0.0
H1889 H 0.17551 0.22115 0.89542 0.0
C1890 C 0.16723 0.2516 0.89585 0.0
C1891 C 0.15174 0.26536 0.8955 0.0
C1892 C 0.11946 0.19642 0.89345 0.0
C1893 C 0.14366 0.22474 0.89498 0.0
C1894 C 0.11573 0.17613 0.89264 0.0
C1895 C 0.13139 0.16257 0.89197 0.0
C1896 C 0.13901 0.20328 0.8937 0.0
C1897 C 0.15072 0.17009 0.89174 0.0
C1898 C 0.16327 0.2314 0.89563 0.0
C1899 C 0.13232 0.25809 0.89546 0.0
N1900 N 0.15395 0.18986 0.89272 0.0
N1901 N 0.12884 0.23832 0.89517 0.0
H1902 H 0.60613 0.39277 0.57751 0.0
H1903 H 0.50492 0.39807 0.71076 0.0
H1904 H 0.59956 0.36721 0.70573 0.0
H1905 H 0.50747 0.40074 0.56999 0.0
H1906 H 0.5404 0.39058 0.7121 0.0
H1907 H 0.57059 0.39963 0.57636 0.0
C1908 C 0.59717 0.38858 0.60533 0.0
C1909 C 0.60574 0.37928 0.64158 0.0
C1910 C 0.53314 0.39274 0.68095 0.0
C1911 C 0.56521 0.38731 0.64087 0.0
C1912 C 0.51296 0.39709 0.68021 0.0
C1913 C 0.50324 0.39987 0.64021 0.0
C1914 C 0.54372 0.39157 0.64147 0.0
C1915 C 0.51434 0.39843 0.60151 0.0
C1916 C 0.57692 0.39243 0.60465 0.0
C1917 C 0.59348 0.37412 0.67686 0.0
N1918 N 0.53398 0.39451 0.60311 0.0
N1919 N 0.57387 0.37834 0.67579 0.0
H1920 H 0.24239 0.21041 0.34126 0.0
H1921 H 0.27537 0.30783 0.21198 0.0
H1922 H 0.21325 0.23194 0.22535 0.0
H1923 H 0.30553 0.28531 0.32572 0.0
H1924 H 0.25218 0.28031 0.21676 0.0
H1925 H 0.26539 0.2381 0.33685 0.0
C1926 C 0.24081 0.22095 0.31494 0.0
C1927 C 0.2259 0.21876 0.28357 0.0
C1928 C 0.26386 0.28144 0.24073 0.0
C1929 C 0.2522 0.25048 0.27816 0.0
C1930 C 0.27715 0.29712 0.23791 0.0
C1931 C 0.29243 0.29897 0.26852 0.0
C1932 C 0.26588 0.26746 0.27437 0.0
C1933 C 0.29384 0.28473 0.30177 0.0
C1934 C 0.25398 0.23673 0.31232 0.0
C1935 C 0.22468 0.2328 0.24986 0.0
N1936 N 0.28077 0.26959 0.30374 0.0
N1937 N 0.23762 0.24805 0.24811 0.0
H1938 H 0.03976 0.97327 0.60326 0.0
H1939 H 0.97843 0.04566 0.44776 0.0
H1940 H 0.05394 0.98338 0.46748 0.0
H1941 H 0.96359 0.03445 0.58279 0.0
H1942 H 1.00606 0.0228 0.45413 0.0
H1943 H 0.01224 0.99624 0.5968 0.0
C1944 C 0.03725 0.9805 0.57222 0.0
C1945 C 0.04922 0.97641 0.53584 0.0
C1946 C 0.99672 0.0253 0.48235 0.0
C1947 C 0.01747 1.00249 0.52799 0.0
C1948 C 0.98082 0.03824 0.47862 0.0
C1949 C 0.96863 0.04199 0.51482 0.0
C1950 C 1.0005 0.01604 0.52256 0.0
C1951 C 0.97273 0.03219 0.55421 0.0
C1952 C 0.0214 0.99349 0.56843 0.0
C1953 C 0.04498 0.98595 0.49621 0.0
N1954 N 0.98831 0.0197 0.55705 0.0
N1955 N 0.02945 0.99851 0.49332 0.0
H1956 H 0.28304 0.8064 0.7157 0.0
H1957 H 0.23656 0.71157 0.83288 0.0
H1958 H 0.29645 0.78917 0.8482 0.0
H1959 H 0.22364 0.72847 0.69995 0.0
H1960 H 0.25871 0.73983 0.83903 0.0
H1961 H 0.26113 0.77798 0.70936 0.0
C1962 C 0.28136 0.79666 0.74349 0.0
C1963 C 0.29162 0.8002 0.78252 0.0
C1964 C 0.2511 0.73732 0.80844 0.0
C1965 C 0.26651 0.76761 0.77556 0.0
C1966 C 0.23842 0.7212 0.80495 0.0
C1967 C 0.22821 0.71764 0.76587 0.0
C1968 C 0.25356 0.75004 0.77262 0.0
C1969 C 0.23138 0.73047 0.73051 0.0
C1970 C 0.26882 0.78045 0.73988 0.0
C1971 C 0.28866 0.78721 0.81769 0.0
N1972 N 0.24371 0.74614 0.73481 0.0
N1973 N 0.27643 0.77146 0.8133 0.0
H1974 H 0.55663 0.98565 0.08458 0.0
H1975 H 0.46318 0.03426 0.96699 0.0
H1976 H 0.53975 0.97304 0.9515 0.0
H1977 H 0.47912 0.04543 0.10125 0.0
H1978 H 0.49122 0.01185 0.96052 0.0
H1979 H 0.52853 1.00793 0.091 0.0
C1980 C 0.54703 0.98758 0.05669 0.0
C1981 C 0.55056 0.97742 1.01748 0.0
C1982 C 0.48854 0.01914 0.99146 0.0
C1983 C 0.51834 1.00297 1.02453 0.0
C1984 C 0.47256 0.03196 0.99513 0.0
C1985 C 0.46879 0.04174 0.03469 0.0
C1986 C 0.50093 0.01612 0.02758 0.0
C1987 C 0.48129 0.03802 0.0703 0.0
C1988 C 0.531 1.00034 0.06034 0.0
C1989 C 0.53777 0.98073 0.98217 0.0
N1990 N 0.49684 0.02557 0.06583 0.0
N1991 N 0.5222 0.99317 0.9866 0.0
H1992 H 0.28548 0.71372 0.2155 0.0
H1993 H 0.23277 0.80451 0.33518 0.0
H1994 H 0.29493 0.72874 0.35095 0.0
H1995 H 0.2233 0.78943 0.19975 0.0
H1996 H 0.25565 0.77688 0.34157 0.0
H1997 H 0.26252 0.74128 0.20919 0.0
C1998 C 0.2827 0.7228 0.24394 0.0
C1999 C 0.29218 0.71891 0.28379 0.0
C2000 C 0.24862 0.77964 0.31041 0.0
C2001 C 0.26586 0.75052 0.27685 0.0
C2002 C 0.23552 0.7954 0.30677 0.0
C2003 C 0.22607 0.7993 0.26689 0.0
C2004 C 0.25231 0.76763 0.27392 0.0
C2005 C 0.23042 0.78716 0.23097 0.0
C2006 C 0.26956 0.73852 0.24035 0.0
C2007 C 0.2878 0.73101 0.31975 0.0
N2008 N 0.24316 0.77184 0.2354 0.0
N2009 N 0.27502 0.74631 0.31537 0.0
H2010 H 0.48253 0.96206 0.57941 0.0
H2011 H 0.53715 0.05473 0.47256 0.0
H2012 H 0.46127 0.99256 0.4649 0.0
H2013 H 0.55746 0.02535 0.5893 0.0
H2014 H 0.50953 0.03186 0.46877 0.0
H2015 H 0.5099 0.98516 0.58376 0.0
C2016 C 0.48345 0.97373 0.5554 0.0
C2017 C 0.46945 0.97537 0.52178 0.0
C2018 C 0.52004 0.03037 0.49519 0.0
C2019 C 0.50111 1.00177 0.52622 0.0
C2020 C 0.53594 0.04335 0.4972 0.0
C2021 C 0.54977 0.04191 0.53121 0.0
C2022 C 0.51788 0.01579 0.52738 0.0
C2023 C 0.54711 0.0271 0.56273 0.0
C2024 C 0.49923 0.98685 0.55774 0.0
C2025 C 0.47178 0.99059 0.4911 0.0
N2026 N 0.53149 0.0146 0.56002 0.0
N2027 N 0.4873 1.00319 0.49405 0.0
H2028 H 0.27477 0.20936 0.71279 0.0
H2029 H 0.24284 0.30808 0.8382 0.0
H2030 H 0.30537 0.23261 0.82517 0.0
H2031 H 0.21179 0.28442 0.72683 0.0
H2032 H 0.26596 0.28051 0.83399 0.0
H2033 H 0.25158 0.23687 0.71714 0.0
C2034 C 0.27663 0.22023 0.73834 0.0
C2035 C 0.29203 0.21859 0.76871 0.0
C2036 C 0.2541 0.28139 0.81041 0.0
C2037 C 0.26551 0.25011 0.77404 0.0
C2038 C 0.24085 0.29711 0.81291 0.0
C2039 C 0.22535 0.29866 0.78277 0.0
C2040 C 0.25182 0.26708 0.77758 0.0
C2041 C 0.22366 0.28408 0.75035 0.0
C2042 C 0.26335 0.23591 0.74093 0.0
C2043 C 0.29358 0.23303 0.80146 0.0
N2044 N 0.23669 0.26891 0.74868 0.0
N2045 N 0.28053 0.24818 0.80318 0.0
H2046 H 0.05529 0.03412 0.08492 0.0
H2047 H 0.96347 0.98398 0.96415 0.0
H2048 H 0.0395 0.046 0.95083 0.0
H2049 H 0.97827 0.97354 0.09936 0.0
H2050 H 0.99131 1.00669 0.95849 0.0
H2051 H 0.02733 0.01161 0.0906 0.0
C2052 C 0.04595 0.03199 0.05666 0.0
C2053 C 0.04976 0.04201 1.01737 0.0
C2054 C 0.98843 0.9995 0.98946 0.0
C2055 C 0.01771 0.01618 1.02357 0.0
C2056 C 0.97256 0.9865 0.99267 0.0
C2057 C 0.96852 0.97684 0.03226 0.0
C2058 C 1.00043 1.00283 0.02608 0.0
C2059 C 0.98065 0.98085 0.06835 0.0
C2060 C 0.03 0.0191 0.05989 0.0
C2061 C 0.03731 0.03844 0.98159 0.0
N2062 N 0.9961 0.99347 0.06433 0.0
N2063 N 0.02182 0.02587 0.9856 0.0
H2064 H 0.73462 0.71355 0.71537 0.0
H2065 H 0.78269 0.80733 0.83296 0.0
H2066 H 0.72232 0.73001 0.84895 0.0
H2067 H 0.79366 0.79157 0.69842 0.0
H2068 H 0.76044 0.77914 0.83954 0.0
H2069 H 0.75649 0.74197 0.70875 0.0
C2070 C 0.73652 0.72313 0.74333 0.0
C2071 C 0.72658 0.71938 0.78275 0.0
C2072 C 0.76764 0.7819 0.80852 0.0
C2073 C 0.75166 0.75197 0.77547 0.0
C2074 C 0.78036 0.79797 0.80478 0.0
C2075 C 0.79005 0.80183 0.76511 0.0
C2076 C 0.76463 0.76951 0.77235 0.0
C2077 C 0.78632 0.78935 0.72945 0.0
C2078 C 0.74905 0.73935 0.73956 0.0
C2079 C 0.72985 0.73215 0.81812 0.0
N2080 N 0.77397 0.77371 0.73399 0.0
N2081 N 0.74206 0.74791 0.81359 0.0
H2082 H 0.73548 0.21252 0.33466 0.0
H2083 H 0.78348 0.30615 0.21588 0.0
H2084 H 0.72273 0.22913 0.20145 0.0
H2085 H 0.79517 0.29014 0.34992 0.0
H2086 H 0.76113 0.27804 0.20987 0.0
H2087 H 0.7576 0.24077 0.34066 0.0
C2088 C 0.73734 0.2221 0.30665 0.0
C2089 C 0.7272 0.21844 0.26752 0.0
C2090 C 0.76852 0.28072 0.24066 0.0
C2091 C 0.75257 0.25083 0.27409 0.0
C2092 C 0.78131 0.29675 0.24407 0.0
C2093 C 0.79122 0.30052 0.28344 0.0
C2094 C 0.76566 0.26829 0.27685 0.0
C2095 C 0.78766 0.28798 0.31912 0.0
C2096 C 0.75001 0.23821 0.31006 0.0
C2097 C 0.73041 0.2312 0.23206 0.0
N2098 N 0.77523 0.27239 0.3149 0.0
N2099 N 0.74276 0.24686 0.23625 0.0
H2100 H 0.7358 0.30619 0.83514 0.0
H2101 H 0.78203 0.21146 0.71734 0.0
H2102 H 0.72209 0.28898 0.7028 0.0
H2103 H 0.79581 0.2287 0.84962 0.0
H2104 H 0.75983 0.23967 0.71153 0.0
H2105 H 0.75789 0.27789 0.84108 0.0
C2106 C 0.73745 0.29647 0.80731 0.0
C2107 C 0.72706 0.29998 0.76844 0.0
C2108 C 0.76765 0.23725 0.74189 0.0
C2109 C 0.75236 0.26754 0.77494 0.0
C2110 C 0.78036 0.22116 0.74519 0.0
C2111 C 0.79082 0.2177 0.78399 0.0
C2112 C 0.76539 0.25004 0.77764 0.0
C2113 C 0.78788 0.23062 0.81927 0.0
C2114 C 0.7501 0.28033 0.81068 0.0
C2115 C 0.72998 0.28703 0.7332 0.0
N2116 N 0.7755 0.24625 0.81518 0.0
N2117 N 0.7423 0.27136 0.73735 0.0
H2118 H 0.73679 0.80657 0.21391 0.0
H2119 H 0.78375 0.71287 0.33412 0.0
H2120 H 0.723 0.78983 0.34664 0.0
H2121 H 0.79645 0.72879 0.20039 0.0
H2122 H 0.76156 0.74113 0.33952 0.0
H2123 H 0.75907 0.7784 0.20861 0.0
C2124 C 0.73847 0.79699 0.24196 0.0
C2125 C 0.72798 0.80059 0.28074 0.0
C2126 C 0.76914 0.7384 0.30893 0.0
C2127 C 0.7535 0.7683 0.27499 0.0
C2128 C 0.78183 0.72229 0.30587 0.0
C2129 C 0.79196 0.71843 0.26676 0.0
C2130 C 0.76659 0.75082 0.27264 0.0
C2131 C 0.78875 0.731 0.23099 0.0
C2132 C 0.75122 0.78092 0.23895 0.0
C2133 C 0.73095 0.78782 0.31629 0.0
N2134 N 0.7764 0.74667 0.23485 0.0
N2135 N 0.74338 0.77222 0.31249 0.0
H2136 H 0.55828 0.49322 0.09037 0.0
H2137 H 0.46044 0.5255 0.96228 0.0
H2138 H 0.53595 0.46309 0.97644 0.0
H2139 H 0.48311 0.55607 0.07532 0.0
H2140 H 0.48796 0.50235 0.96711 0.0
H2141 H 0.53065 0.51628 0.08586 0.0
C2142 C 0.54758 0.49143 0.06446 0.0
C2143 C 0.54953 0.47622 0.03367 0.0
C2144 C 0.48687 0.5141 0.99093 0.0
C2145 C 0.51788 0.50259 0.02816 0.0
C2146 C 0.47118 0.52737 0.98808 0.0
C2147 C 0.46937 0.54276 1.01848 0.0
C2148 C 0.5009 0.51625 1.02436 0.0
C2149 C 0.48366 0.5443 0.05156 0.0
C2150 C 0.53184 0.50464 0.06179 0.0
C2151 C 0.5353 0.47475 1.00048 0.0
N2152 N 0.49881 0.53125 0.05354 0.0
N2153 N 0.52009 0.48773 0.99867 0.0
H2154 H 0.04027 0.47319 0.44906 0.0
H2155 H 0.97951 0.54699 0.60274 0.0
H2156 H 0.0564 0.4865 0.58229 0.0
H2157 H 0.96378 0.53408 0.4691 0.0
H2158 H 1.00745 0.5245 0.59631 0.0
H2159 H 0.01242 0.49575 0.45549 0.0
C2160 C 0.03812 0.48103 0.47951 0.0
C2161 C 0.05074 0.47794 0.51521 0.0
C2162 C 0.99786 0.52654 0.56841 0.0
C2163 C 0.0186 0.50356 0.52306 0.0
C2164 C 0.98177 0.53926 0.5722 0.0
C2165 C 0.96924 0.54242 0.53638 0.0
C2166 C 1.00145 0.5169 0.52854 0.0
C2167 C 0.97317 0.53226 0.49735 0.0
C2168 C 0.02209 0.49379 0.4833 0.0
C2169 C 0.04694 0.48825 0.55412 0.0
N2170 N 0.98893 0.51998 0.49446 0.0
N2171 N 0.03121 0.50057 0.55703 0.0
H2172 H 0.95958 0.49338 0.96203 0.0
H2173 H 0.05747 0.52573 0.08981 0.0
H2174 H 0.98214 0.46309 0.07557 0.0
H2175 H 0.03535 0.55561 0.97534 0.0
H2176 H 0.02965 0.50289 0.08583 0.0
H2177 H 0.98708 0.51659 0.96675 0.0
C2178 C 0.97029 0.49159 0.98792 0.0
C2179 C 0.96847 0.47626 1.01847 0.0
C2180 C 0.03091 0.51443 0.06153 0.0
C2181 C 0.99996 0.50282 1.02424 0.0
C2182 C 0.04677 0.52752 0.0639 0.0
C2183 C 0.04884 0.54258 0.03278 0.0
C2184 C 0.01698 0.51645 0.02786 0.0
C2185 C 0.03459 0.54406 0.99962 0.0
C2186 C 0.98596 0.50489 0.99071 0.0
C2187 C 0.9827 0.47482 0.05167 0.0
N2188 N 0.01928 0.53118 0.99808 0.0
N2189 N 0.99784 0.48788 0.05359 0.0
H2190 H 0.461 0.49229 0.58995 0.0
H2191 H 0.55882 0.52542 0.46215 0.0
H2192 H 0.48376 0.46229 0.47611 0.0
H2193 H 0.53518 0.55621 0.57409 0.0
H2194 H 0.53159 0.5019 0.46708 0.0
H2195 H 0.48842 0.5156 0.58538 0.0
C2196 C 0.47176 0.49057 0.56406 0.0
C2197 C 0.47 0.47534 0.5333 0.0
C2198 C 0.53241 0.51379 0.49062 0.0
C2199 C 0.50139 0.50201 0.5277 0.0
C2200 C 0.54792 0.52727 0.48771 0.0
C2201 C 0.54937 0.54282 0.51779 0.0
C2202 C 0.5182 0.51589 0.52381 0.0
C2203 C 0.53491 0.54432 0.55058 0.0
C2204 C 0.48738 0.50393 0.56135 0.0
C2205 C 0.48429 0.47397 0.50013 0.0
N2206 N 0.51994 0.53106 0.55265 0.0
N2207 N 0.49938 0.4871 0.49826 0.0
H2208 H 0.23441 0.16156 0.40578 0.0
H2209 H 0.2831 0.16157 0.6465 0.0
H2210 H 0.20052 0.16042 0.52525 0.0
H2211 H 0.31689 0.15965 0.52693 0.0
H2212 H 0.25268 0.16067 0.60288 0.0
H2213 H 0.26478 0.16042 0.44949 0.0
C2214 C 0.2333 0.16096 0.44108 0.0
C2215 C 0.21475 0.16109 0.46162 0.0
C2216 C 0.26677 0.16036 0.58621 0.0
C2217 C 0.2496 0.15991 0.51218 0.0
C2218 C 0.28417 0.16082 0.6112 0.0
C2219 C 0.30271 0.16069 0.59059 0.0
C2220 C 0.26781 0.1598 0.54016 0.0
C2221 C 0.30303 0.15983 0.54453 0.0
C2222 C 0.25068 0.16035 0.46613 0.0
C2223 C 0.21439 0.16038 0.5077 0.0
N2224 N 0.28597 0.15948 0.52106 0.0
N2225 N 0.23143 0.15988 0.53123 0.0
H2226 H 0.10679 0.03382 0.89645 0.0
H2227 H 0.1068 0.98505 0.65577 0.0
H2228 H 0.10852 0.06764 0.77701 0.0
H2229 H 0.10829 0.9513 0.77531 0.0
H2230 H 0.10786 0.01547 0.6994 0.0
H2231 H 0.10775 1.00343 0.85275 0.0
C2232 C 0.10748 0.0349 0.86115 0.0
C2233 C 0.10757 0.05344 0.84061 0.0
C2234 C 0.10804 1.00139 0.71606 0.0
C2235 C 0.10854 0.01857 0.79007 0.0
C2236 C 0.10747 0.98399 0.69107 0.0
C2237 C 0.10745 0.96546 0.71166 0.0
C2238 C 0.10853 1.00036 0.76211 0.0
C2239 C 0.10824 0.96514 0.75773 0.0
C2240 C 0.10799 0.01751 0.83611 0.0
C2241 C 0.10839 0.05378 0.79454 0.0
N2242 N 0.10869 0.98221 0.7812 0.0
N2243 N 0.10879 0.03672 0.77101 0.0
H2244 H 0.23469 0.85624 0.14564 0.0
H2245 H 0.28364 0.85721 0.90489 0.0
H2246 H 0.20104 0.85878 0.02618 0.0
H2247 H 0.3174 0.8574 1.02433 0.0
H2248 H 0.25323 0.85833 0.94866 0.0
H2249 H 0.26516 0.85723 0.102 0.0
C2250 C 0.23366 0.85713 0.11035 0.0
C2251 C 0.21515 0.85742 0.08978 0.0
C2252 C 0.26731 0.8582 0.96528 0.0
C2253 C 0.2501 0.85842 0.03932 0.0
C2254 C 0.28471 0.8576 0.94021 0.0
C2255 C 0.30323 0.8572 0.96072 0.0
C2256 C 0.26833 0.85836 1.01134 0.0
C2257 C 0.30355 0.85764 1.00681 0.0
C2258 C 0.25109 0.85765 0.08536 0.0
C2259 C 0.21487 0.85848 0.04374 0.0
N2260 N 0.28648 0.85814 0.03037 0.0
N2261 N 0.23197 0.85888 1.02026 0.0
H2262 H 0.41263 0.9501 0.27728 0.0
H2263 H 0.40913 0.06832 0.27591 0.0
H2264 H 0.412 0.9852 0.39489 0.0
H2265 H 0.41268 0.03331 0.15841 0.0
H2266 H 0.40861 0.0382 0.31941 0.0
H2267 H 0.41117 0.98017 0.23369 0.0
C2268 C 0.41212 0.96413 0.29413 0.0
C2269 C 0.41247 0.96497 0.34016 0.0
C2270 C 0.40944 0.03703 0.28415 0.0
C2271 C 0.41079 0.99983 0.28966 0.0
C2272 C 0.40971 0.0543 0.25905 0.0
C2273 C 0.41098 0.05351 0.2131 0.0
C2274 C 0.41043 0.01858 0.26349 0.0
C2275 C 0.41164 0.03475 0.19359 0.0
C2276 C 0.41129 0.98136 0.26899 0.0
C2277 C 0.41173 0.98372 0.35966 0.0
N2278 N 0.41141 0.0181 0.21883 0.0
N2279 N 0.41097 1.00034 0.33437 0.0
H2280 H 0.81442 0.83714 0.53394 0.0
H2281 H 0.71567 0.89425 0.47423 0.0
H2282 H 0.78704 0.87643 0.62667 0.0
H2283 H 0.7303 0.83773 0.41844 0.0
H2284 H 0.74306 0.89052 0.52604 0.0
H2285 H 0.78535 0.83961 0.48731 0.0
C2286 C 0.80227 0.84633 0.54459 0.0
C2287 C 0.80329 0.85666 0.58441 0.0
C2288 C 0.74022 0.87891 0.50257 0.0
C2289 C 0.76978 0.85976 0.53028 0.0
C2290 C 0.72464 0.88106 0.47273 0.0
C2291 C 0.72064 0.86631 0.44158 0.0
C2292 C 0.75225 0.86208 0.50084 0.0
C2293 C 0.73275 0.84949 0.44169 0.0
C2294 C 0.7856 0.84765 0.5179 0.0
C2295 C 0.78692 0.86818 0.59639 0.0
N2296 N 0.74807 0.84795 0.47041 0.0
N2297 N 0.77094 0.86962 0.56921 0.0
H2298 H 0.91115 0.03357 0.39438 0.0
H2299 H 0.91118 0.98536 0.1531 0.0
H2300 H 0.90981 0.06768 0.27534 0.0
H2301 H 0.90929 0.95134 0.27226 0.0
H2302 H 0.91024 0.01569 0.19709 0.0
H2303 H 0.91008 1.00328 0.35032 0.0
C2304 C 0.91052 0.03474 0.35909 0.0
C2305 C 0.91058 0.05333 0.33878 0.0
C2306 C 0.90996 1.00157 0.21359 0.0
C2307 C 0.90946 0.01858 0.28781 0.0
C2308 C 0.91044 0.98422 0.18839 0.0
C2309 C 0.91032 0.96565 0.20877 0.0
C2310 C 0.90939 1.00043 0.25963 0.0
C2311 C 0.90946 0.96523 0.25483 0.0
C2312 C 0.90995 0.01741 0.33385 0.0
C2313 C 0.90983 0.05378 0.29271 0.0
N2314 N 0.90909 0.98224 0.27851 0.0
N2315 N 0.90936 0.03678 0.26898 0.0
H2316 H 0.81875 0.16063 1.02519 0.0
H2317 H 0.70043 0.15981 0.02642 0.0
H2318 H 0.78372 0.1614 0.90757 0.0
H2319 H 0.73543 0.16196 0.14399 0.0
H2320 H 0.73059 0.15891 0.98291 0.0
H2321 H 0.78861 0.15963 0.06874 0.0
C2322 C 0.80472 0.16051 1.00833 0.0
C2323 C 0.80393 0.16112 0.96232 0.0
C2324 C 0.73174 0.15952 1.01819 0.0
C2325 C 0.76899 0.16 1.01275 0.0
C2326 C 0.71446 0.16003 0.04329 0.0
C2327 C 0.71524 0.16099 0.08927 0.0
C2328 C 0.75019 0.15998 0.03888 0.0
C2329 C 0.73399 0.16118 0.10879 0.0
C2330 C 0.78744 0.15996 0.03344 0.0
C2331 C 0.78517 0.16089 0.94279 0.0
N2332 N 0.75066 0.16073 0.08356 0.0
N2333 N 0.76851 0.1604 0.96804 0.0
H2334 H 0.60789 0.06806 0.77423 0.0
H2335 H 0.60778 0.94976 0.77541 0.0
H2336 H 0.60626 0.03303 0.65657 0.0
H2337 H 0.60666 0.98485 0.89302 0.0
H2338 H 0.60866 0.97987 0.73185 0.0
H2339 H 0.60887 0.03794 0.81769 0.0
C2340 C 0.60781 0.05404 0.75733 0.0
C2341 C 0.60696 0.05325 0.71134 0.0
C2342 C 0.60828 0.98106 0.76715 0.0
C2343 C 0.60807 0.01831 0.76169 0.0
C2344 C 0.6078 0.96379 0.79227 0.0
C2345 C 0.60712 0.96461 0.83829 0.0
C2346 C 0.60811 0.99952 0.78783 0.0
C2347 C 0.60721 0.98338 0.85779 0.0
C2348 C 0.60836 0.03677 0.7824 0.0
C2349 C 0.60694 0.03448 0.69178 0.0
N2350 N 0.60765 1.00002 0.83253 0.0
N2351 N 0.60744 0.01783 0.717 0.0
H2352 H 0.7358 0.66206 0.90484 0.0
H2353 H 0.78417 0.66113 0.1458 0.0
H2354 H 0.70183 0.66004 1.02417 0.0
H2355 H 0.81819 0.66034 0.02648 0.0
H2356 H 0.75385 0.66018 0.10194 0.0
H2357 H 0.76615 0.66092 0.94864 0.0
C2358 C 0.73467 0.66127 0.94013 0.0
C2359 C 0.71611 0.66116 0.96061 0.0
C2360 C 0.76797 0.66014 0.08537 0.0
C2361 C 0.75092 0.65997 1.01125 0.0
C2362 C 0.78532 0.66063 0.11049 0.0
C2363 C 0.80388 0.66082 0.09004 0.0
C2364 C 0.76909 0.65988 0.03931 0.0
C2365 C 0.8043 0.66025 0.04396 0.0
C2366 C 0.75203 0.66066 0.96521 0.0
C2367 C 0.71571 0.6602 1.00666 0.0
N2368 N 0.78728 0.65987 1.02034 0.0
N2369 N 0.73274 0.6597 0.03024 0.0
H2370 H 0.60819 0.44974 0.27572 0.0
H2371 H 0.60953 0.56801 0.2762 0.0
H2372 H 0.60717 0.48473 0.15792 0.0
H2373 H 0.6067 0.53313 0.39403 0.0
H2374 H 0.61035 0.53784 0.23295 0.0
H2375 H 0.60932 0.47988 0.3191 0.0
C2376 C 0.60829 0.46376 0.25878 0.0
C2377 C 0.60756 0.46454 0.21277 0.0
C2378 C 0.60961 0.53671 0.26823 0.0
C2379 C 0.60884 0.49948 0.26301 0.0
C2380 C 0.60916 0.554 0.29318 0.0
C2381 C 0.60802 0.55327 0.33916 0.0
C2382 C 0.60894 0.51828 0.28904 0.0
C2383 C 0.60763 0.53453 0.35883 0.0
C2384 C 0.60891 0.48103 0.28379 0.0
C2385 C 0.60777 0.48329 0.19314 0.0
N2386 N 0.60805 0.51785 0.33372 0.0
N2387 N 0.60834 0.49995 0.2183 0.0
H2388 H 0.73484 0.35678 0.64635 0.0
H2389 H 0.78338 0.35706 0.40519 0.0
H2390 H 0.7009 0.35753 0.52718 0.0
H2391 H 0.81726 0.35843 0.52442 0.0
H2392 H 0.753 0.35795 0.44911 0.0
H2393 H 0.76519 0.35806 0.60238 0.0
C2394 C 0.73372 0.35732 0.61105 0.0
C2395 C 0.71517 0.35703 0.59067 0.0
C2396 C 0.7671 0.35814 0.46565 0.0
C2397 C 0.74999 0.35839 0.53982 0.0
C2398 C 0.78448 0.35769 0.44049 0.0
C2399 C 0.80303 0.35766 0.46091 0.0
C2400 C 0.76818 0.35854 0.51169 0.0
C2401 C 0.80339 0.35838 0.50697 0.0
C2402 C 0.75108 0.35801 0.58586 0.0
C2403 C 0.71478 0.35769 0.5446 0.0
N2404 N 0.78634 0.35873 0.53062 0.0
N2405 N 0.73181 0.35828 0.52092 0.0
H2406 H 0.91049 0.45047 0.77554 0.0
H2407 H 0.91005 0.56876 0.77621 0.0
H2408 H 0.91178 0.4851 0.89381 0.0
H2409 H 0.91201 0.53401 0.65816 0.0
H2410 H 0.90914 0.53851 0.81933 0.0
H2411 H 0.90948 0.48073 0.73259 0.0
C2412 C 0.91048 0.46444 0.79268 0.0
C2413 C 0.91125 0.46508 0.83869 0.0
C2414 C 0.90971 0.53743 0.78403 0.0
C2415 C 0.91011 0.50017 0.78892 0.0
C2416 C 0.91021 0.55477 0.75916 0.0
C2417 C 0.91113 0.55409 0.71316 0.0
C2418 C 0.9101 0.51903 0.76309 0.0
C2419 C 0.91127 0.53537 0.69339 0.0
C2420 C 0.90992 0.48179 0.7679 0.0
C2421 C 0.91115 0.48377 0.85857 0.0
N2422 N 0.9108 0.51866 0.7184 0.0
N2423 N 0.91065 0.50051 0.83363 0.0
H2424 H 0.28309 0.35697 0.14577 0.0
H2425 H 0.23523 0.35688 0.90433 0.0
H2426 H 0.31733 0.35863 0.0268 0.0
H2427 H 0.20102 0.35924 1.02329 0.0
H2428 H 0.26549 0.35782 0.94846 0.0
H2429 H 0.25284 0.3581 0.10161 0.0
C2430 C 0.28429 0.35769 0.11049 0.0
C2431 C 0.3029 0.3577 0.09021 0.0
C2432 C 0.25134 0.35821 0.96488 0.0
C2433 C 0.26822 0.35885 0.03916 0.0
C2434 C 0.23403 0.35772 0.9396 0.0
C2435 C 0.21543 0.35797 0.95989 0.0
C2436 C 0.25013 0.35891 1.01091 0.0
C2437 C 0.21494 0.35897 1.00593 0.0
C2438 C 0.267 0.35829 0.0852 0.0
C2439 C 0.30341 0.35855 0.04415 0.0
N2440 N 0.23191 0.35933 0.02969 0.0
N2441 N 0.28644 0.35903 1.02038 0.0
H2442 H 0.4119 0.53356 0.89552 0.0
H2443 H 0.41273 0.48484 0.65477 0.0
H2444 H 0.41115 0.56734 0.77598 0.0
H2445 H 0.41001 0.45102 0.77413 0.0
H2446 H 0.41182 0.51523 0.69849 0.0
H2447 H 0.41084 0.50315 0.85182 0.0
C2448 C 0.41139 0.53464 0.86021 0.0
C2449 C 0.41162 0.55316 0.83963 0.0
C2450 C 0.41135 0.50114 0.71509 0.0
C2451 C 0.41054 0.51829 0.78911 0.0
C2452 C 0.41183 0.48376 0.69005 0.0
C2453 C 0.41145 0.46522 0.71056 0.0
C2454 C 0.41053 0.50009 0.76113 0.0
C2455 C 0.41038 0.46488 0.75661 0.0
C2456 C 0.41083 0.51724 0.83518 0.0
C2457 C 0.41103 0.55349 0.79355 0.0
N2458 N 0.41001 0.48193 0.78015 0.0
N2459 N 0.41058 0.53644 0.77004 0.0
H2460 H 0.31874 0.65988 0.52472 0.0
H2461 H 0.20043 0.66026 0.52454 0.0
H2462 H 0.28405 0.66206 0.4067 0.0
H2463 H 0.23521 0.66104 0.64251 0.0
H2464 H 0.23067 0.65927 0.48129 0.0
H2465 H 0.28848 0.65867 0.56781 0.0
C2466 C 0.30476 0.66003 0.50766 0.0
C2467 C 0.3041 0.66111 0.46169 0.0
C2468 C 0.23176 0.65959 0.5166 0.0
C2469 C 0.26902 0.65974 0.51159 0.0
C2470 C 0.21443 0.66013 0.54154 0.0
C2471 C 0.21512 0.66076 0.58755 0.0
C2472 C 0.25017 0.65966 0.5375 0.0
C2473 C 0.23384 0.66052 0.60727 0.0
C2474 C 0.28742 0.65934 0.53251 0.0
C2475 C 0.28539 0.66119 0.44191 0.0
N2476 N 0.25055 0.66005 0.5822 0.0
N2477 N 0.26866 0.66057 0.46691 0.0
H2478 H 0.10743 0.4497 0.27436 0.0
H2479 H 0.10927 0.56797 0.2731 0.0
H2480 H 0.10741 0.48483 0.39194 0.0
H2481 H 0.10606 0.53296 0.15556 0.0
H2482 H 0.1101 0.53784 0.31653 0.0
H2483 H 0.10844 0.47979 0.23074 0.0
C2484 C 0.10772 0.46374 0.2912 0.0
C2485 C 0.10731 0.46458 0.33722 0.0
C2486 C 0.10927 0.53667 0.28127 0.0
C2487 C 0.10845 0.49945 0.28672 0.0
C2488 C 0.10881 0.55394 0.25622 0.0
C2489 C 0.10757 0.55316 0.21028 0.0
C2490 C 0.10851 0.51822 0.26059 0.0
C2491 C 0.10707 0.5344 0.19074 0.0
C2492 C 0.10828 0.48098 0.26605 0.0
C2493 C 0.10775 0.48334 0.35671 0.0
N2494 N 0.1075 0.51774 0.21594 0.0
N2495 N 0.10825 0.49997 0.33143 0.0
loop_
_geom_bond_atom_site_label_1
_geom_bond_atom_site_label_2
_geom_bond_distance
_geom_bond_site_symmetry_2
_ccdc_geom_bond_type
C0 C1 1.351 . S
C0 N3 1.368 . S
C0 H5 0.931 . S
C1 C0 1.351 . S
C1 N2 1.373 . S
C1 H29 0.930 . S
N2 C1 1.373 . S
N2 C4 1.340 . S
N3 C0 1.368 . S
N3 C4 1.321 . S
N3 Co6 2.135 . S
C4 N2 1.340 . S
C4 N3 1.321 . S
C4 H28 0.930 . S
H5 C0 0.931 . S
Co6 N3 2.135 . S
Co6 N9 2.121 . S
Co6 O14 2.055 . S
Co6 O17 2.039 . S
Co6 N20 2.140 . S
C7 O8 1.227 . S
C7 O17 1.265 . S
O8 C7 1.227 . S
N9 Co6 2.121 . S
N9 C11 1.375 . S
N9 C12 1.313 . S
C10 C11 1.338 . S
C10 N13 1.377 . S
C10 H30 0.930 . S
C11 N9 1.375 . S
C11 C10 1.338 . S
C11 H15 0.931 . S
C12 N9 1.313 . S
C12 N13 1.344 . S
C12 H16 0.930 . S
N13 C10 1.377 . S
N13 C12 1.344 . S
O14 Co6 2.055 . S
O14 C18 1.253 . S
H15 C11 0.931 . S
H16 C12 0.930 . S
O17 Co6 2.039 . S
O17 C7 1.265 . S
C18 O14 1.253 . S
C18 O19 1.227 . S
O19 C18 1.227 . S
N20 Co6 2.140 . S
N20 C23 1.346 . S
N20 C24 1.345 . S
C21 C22 1.387 . S
C21 C25 1.391 . S
C22 C21 1.387 . S
C22 C23 1.369 . S
C22 H31 0.929 . S
C23 N20 1.346 . S
C23 C22 1.369 . S
C23 H26 0.928 . S
C24 N20 1.345 . S
C24 C25 1.371 . S
C24 H27 0.931 . S
C25 C21 1.391 . S
C25 C24 1.371 . S
C25 H32 0.930 . S
H26 C23 0.928 . S
H27 C24 0.931 . S
H28 C4 0.930 . S
H29 C1 0.930 . S
H30 C10 0.930 . S
H31 C22 0.929 . S
H32 C25 0.930 . S
C33 C34 1.351 . S
C33 N36 1.368 . S
C33 H38 0.931 . S
C34 C33 1.351 . S
C34 N35 1.373 . S
C34 H62 0.930 . S
N35 C34 1.373 . S
N35 C37 1.340 . S
N36 C33 1.368 . S
N36 C37 1.321 . S
N36 Co39 2.135 . S
C37 N35 1.340 . S
C37 N36 1.321 . S
C37 H61 0.930 . S
H38 C33 0.931 . S
Co39 N36 2.135 . S
Co39 N42 2.121 . S
Co39 O47 2.055 . S
Co39 O50 2.039 . S
Co39 N53 2.140 . S
C40 O41 1.227 . S
C40 O50 1.265 . S
O41 C40 1.227 . S
N42 Co39 2.121 . S
N42 C44 1.375 . S
N42 C45 1.313 . S
C43 C44 1.338 . S
C43 N46 1.377 . S
C43 H63 0.930 . S
C44 N42 1.375 . S
C44 C43 1.338 . S
C44 H48 0.931 . S
C45 N42 1.313 . S
C45 N46 1.344 . S
C45 H49 0.930 . S
N46 C43 1.377 . S
N46 C45 1.344 . S
O47 Co39 2.055 . S
O47 C51 1.253 . S
H48 C44 0.931 . S
H49 C45 0.930 . S
O50 Co39 2.039 . S
O50 C40 1.265 . S
C51 O47 1.253 . S
C51 O52 1.227 . S
O52 C51 1.227 . S
N53 Co39 2.140 . S
N53 C56 1.346 . S
N53 C57 1.345 . S
C54 C55 1.387 . S
C54 C58 1.391 . S
C55 C54 1.387 . S
C55 C56 1.369 . S
C55 H64 0.929 . S
C56 N53 1.346 . S
C56 C55 1.369 . S
C56 H59 0.928 . S
C57 N53 1.345 . S
C57 C58 1.371 . S
C57 H60 0.931 . S
C58 C54 1.391 . S
C58 C57 1.371 . S
C58 H65 0.930 . S
H59 C56 0.928 . S
H60 C57 0.931 . S
H61 C37 0.930 . S
H62 C34 0.930 . S
H63 C43 0.930 . S
H64 C55 0.929 . S
H65 C58 0.930 . S
C66 C67 1.351 . S
C66 N69 1.368 . S
C66 H71 0.931 . S
C67 C66 1.351 . S
C67 N68 1.373 . S
C67 H95 0.930 . S
N68 C67 1.373 . S
N68 C70 1.340 . S
N69 C66 1.368 . S
N69 C70 1.321 . S
N69 Co72 2.135 . S
C70 N68 1.340 . S
C70 N69 1.321 . S
C70 H94 0.930 . S
H71 C66 0.931 . S
Co72 N69 2.135 . S
Co72 N75 2.121 . S
Co72 O80 2.055 . S
Co72 O83 2.039 . S
Co72 N86 2.140 . S
C73 O74 1.227 . S
C73 O83 1.265 . S
O74 C73 1.227 . S
N75 Co72 2.121 . S
N75 C77 1.375 . S
N75 C78 1.313 . S
C76 C77 1.338 . S
C76 N79 1.377 . S
C76 H96 0.930 . S
C77 N75 1.375 . S
C77 C76 1.338 . S
C77 H81 0.931 . S
C78 N75 1.313 . S
C78 N79 1.344 . S
C78 H82 0.930 . S
N79 C76 1.377 . S
N79 C78 1.344 . S
O80 Co72 2.055 . S
O80 C84 1.253 . S
H81 C77 0.931 . S
H82 C78 0.930 . S
O83 Co72 2.039 . S
O83 C73 1.265 . S
C84 O80 1.253 . S
C84 O85 1.227 . S
O85 C84 1.227 . S
N86 Co72 2.140 . S
N86 C89 1.346 . S
N86 C90 1.345 . S
C87 C88 1.387 . S
C87 C91 1.391 . S
C88 C87 1.387 . S
C88 C89 1.369 . S
C88 H97 0.929 . S
C89 N86 1.346 . S
C89 C88 1.369 . S
C89 H92 0.928 . S
C90 N86 1.345 . S
C90 C91 1.371 . S
C90 H93 0.931 . S
C91 C87 1.391 . S
C91 C90 1.371 . S
C91 H98 0.930 . S
H92 C89 0.928 . S
H93 C90 0.931 . S
H94 C70 0.930 . S
H95 C67 0.930 . S
H96 C76 0.930 . S
H97 C88 0.929 . S
H98 C91 0.930 . S
C99 C100 1.354 . S
C99 N102 1.358 1_556 S
C99 H104 0.937 . S
C100 C99 1.354 . S
C100 N101 1.373 1_556 S
C100 H128 0.930 . S
N101 C100 1.373 1_554 S
N101 C103 1.340 . S
N102 C99 1.358 1_554 S
N102 C103 1.321 . S
N102 Co105 2.135 . S
C103 N101 1.340 . S
C103 N102 1.321 . S
C103 H127 0.930 . S
H104 C99 0.937 . S
Co105 N102 2.135 . S
Co105 N108 2.121 . S
Co105 O113 2.055 . S
Co105 O116 2.039 . S
Co105 N119 2.140 . S
C106 O107 1.227 . S
C106 O116 1.265 . S
O107 C106 1.227 . S
N108 Co105 2.121 . S
N108 C110 1.375 . S
N108 C111 1.313 . S
C109 C110 1.338 . S
C109 N112 1.377 . S
C109 H129 0.930 . S
C110 N108 1.375 . S
C110 C109 1.338 . S
C110 H114 0.931 . S
C111 N108 1.313 . S
C111 N112 1.344 . S
C111 H115 0.930 . S
N112 C109 1.377 . S
N112 C111 1.344 . S
O113 Co105 2.055 . S
O113 C117 1.253 . S
H114 C110 0.931 . S
H115 C111 0.930 . S
O116 Co105 2.039 . S
O116 C106 1.265 . S
C117 O113 1.253 . S
C117 O118 1.227 . S
O118 C117 1.227 . S
N119 Co105 2.140 . S
N119 C122 1.346 . S
N119 C123 1.345 . S
C120 C121 1.387 . S
C120 C124 1.391 . S
C121 C120 1.387 . S
C121 C122 1.369 . S
C121 H130 0.929 . S
C122 N119 1.346 . S
C122 C121 1.369 . S
C122 H125 0.928 . S
C123 N119 1.345 . S
C123 C124 1.371 . S
C123 H126 0.931 . S
C124 C120 1.391 . S
C124 C123 1.371 . S
C124 H131 0.930 . S
H125 C122 0.928 . S
H126 C123 0.931 . S
H127 C103 0.930 . S
H128 C100 0.930 . S
H129 C109 0.930 . S
H130 C121 0.929 . S
H131 C124 0.930 . S
C132 C133 1.351 . S
C132 N135 1.368 . S
C132 H137 0.931 . S
C133 C132 1.351 . S
C133 N134 1.373 . S
C133 H161 0.930 . S
N134 C133 1.373 . S
N134 C136 1.340 . S
N135 C132 1.368 . S
N135 C136 1.321 . S
N135 Co138 2.135 . S
C136 N134 1.340 . S
C136 N135 1.321 . S
C136 H160 0.930 . S
H137 C132 0.931 . S
Co138 N135 2.135 . S
Co138 N141 2.121 . S
Co138 O146 2.055 . S
Co138 O149 2.039 . S
Co138 N152 2.140 . S
C139 O140 1.227 . S
C139 O149 1.265 . S
O140 C139 1.227 . S
N141 Co138 2.121 . S
N141 C143 1.375 . S
N141 C144 1.313 . S
C142 C143 1.338 . S
C142 N145 1.377 . S
C142 H162 0.930 . S
C143 N141 1.375 . S
C143 C142 1.338 . S
C143 H147 0.931 . S
C144 N141 1.313 . S
C144 N145 1.344 . S
C144 H148 0.930 . S
N145 C142 1.377 . S
N145 C144 1.344 . S
O146 Co138 2.055 . S
O146 C150 1.253 . S
H147 C143 0.931 . S
H148 C144 0.930 . S
O149 Co138 2.039 . S
O149 C139 1.265 . S
C150 O146 1.253 . S
C150 O151 1.227 . S
O151 C150 1.227 . S
N152 Co138 2.140 . S
N152 C155 1.346 . S
N152 C156 1.345 . S
C153 C154 1.387 . S
C153 C157 1.391 . S
C154 C153 1.387 . S
C154 C155 1.369 . S
C154 H163 0.929 . S
C155 N152 1.346 . S
C155 C154 1.369 . S
C155 H158 0.928 . S
C156 N152 1.345 . S
C156 C157 1.371 . S
C156 H159 0.931 . S
C157 C153 1.391 . S
C157 C156 1.371 . S
C157 H164 0.930 . S
H158 C155 0.928 . S
H159 C156 0.931 . S
H160 C136 0.930 . S
H161 C133 0.930 . S
H162 C142 0.930 . S
H163 C154 0.929 . S
H164 C157 0.930 . S
C165 C166 1.351 . S
C165 N168 1.368 . S
C165 H170 0.931 . S
C166 C165 1.351 . S
C166 N167 1.373 . S
C166 H194 0.930 . S
N167 C166 1.373 . S
N167 C169 1.340 . S
N168 C165 1.368 . S
N168 C169 1.321 . S
N168 Co171 2.135 . S
C169 N167 1.340 . S
C169 N168 1.321 . S
C169 H193 0.930 . S
H170 C165 0.931 . S
Co171 N168 2.135 . S
Co171 N174 2.121 . S
Co171 O179 2.055 . S
Co171 O182 2.039 . S
Co171 N185 2.140 . S
C172 O173 1.227 . S
C172 O182 1.265 . S
O173 C172 1.227 . S
N174 Co171 2.121 . S
N174 C176 1.375 . S
N174 C177 1.313 . S
C175 C176 1.338 . S
C175 N178 1.377 . S
C175 H195 0.930 . S
C176 N174 1.375 . S
C176 C175 1.338 . S
C176 H180 0.931 . S
C177 N174 1.313 . S
C177 N178 1.344 . S
C177 H181 0.930 . S
N178 C175 1.377 . S
N178 C177 1.344 . S
O179 Co171 2.055 . S
O179 C183 1.253 . S
H180 C176 0.931 . S
H181 C177 0.930 . S
O182 Co171 2.039 . S
O182 C172 1.265 . S
C183 O179 1.253 . S
C183 O184 1.227 . S
O184 C183 1.227 . S
N185 Co171 2.140 . S
N185 C188 1.346 . S
N185 C189 1.345 . S
C186 C187 1.387 . S
C186 C190 1.391 . S
C187 C186 1.387 . S
C187 C188 1.369 . S
C187 H196 0.929 . S
C188 N185 1.346 . S
C188 C187 1.369 . S
C188 H191 0.928 . S
C189 N185 1.345 . S
C189 C190 1.371 . S
C189 H192 0.931 . S
C190 C186 1.391 . S
C190 C189 1.371 . S
C190 H197 0.930 . S
H191 C188 0.928 . S
H192 C189 0.931 . S
H193 C169 0.930 . S
H194 C166 0.930 . S
H195 C175 0.930 . S
H196 C187 0.929 . S
H197 C190 0.930 . S
C198 C199 1.351 . S
C198 N201 1.368 . S
C198 H203 0.931 . S
C199 C198 1.351 . S
C199 N200 1.373 . S
C199 H227 0.930 . S
N200 C199 1.373 . S
N200 C202 1.340 . S
N201 C198 1.368 . S
N201 C202 1.321 . S
N201 Co204 2.135 . S
C202 N200 1.340 . S
C202 N201 1.321 . S
C202 H226 0.930 . S
H203 C198 0.931 . S
Co204 N201 2.135 . S
Co204 N207 2.121 . S
Co204 O212 2.055 . S
Co204 O215 2.039 . S
Co204 N218 2.140 . S
C205 O206 1.227 . S
C205 O215 1.265 . S
O206 C205 1.227 . S
N207 Co204 2.121 . S
N207 C209 1.375 . S
N207 C210 1.313 . S
C208 C209 1.338 . S
C208 N211 1.377 . S
C208 H228 0.930 . S
C209 N207 1.375 . S
C209 C208 1.338 . S
C209 H213 0.931 . S
C210 N207 1.313 . S
C210 N211 1.344 . S
C210 H214 0.930 . S
N211 C208 1.377 . S
N211 C210 1.344 . S
O212 Co204 2.055 . S
O212 C216 1.253 . S
H213 C209 0.931 . S
H214 C210 0.930 . S
O215 Co204 2.039 . S
O215 C205 1.265 . S
C216 O212 1.253 . S
C216 O217 1.227 . S
O217 C216 1.227 . S
N218 Co204 2.140 . S
N218 C221 1.346 . S
N218 C222 1.345 . S
C219 C220 1.387 . S
C219 C223 1.391 . S
C220 C219 1.387 . S
C220 C221 1.369 . S
C220 H229 0.929 . S
C221 N218 1.346 . S
C221 C220 1.369 . S
C221 H224 0.928 . S
C222 N218 1.345 . S
C222 C223 1.371 . S
C222 H225 0.931 . S
C223 C219 1.391 . S
C223 C222 1.371 . S
C223 H230 0.930 . S
H224 C221 0.928 . S
H225 C222 0.931 . S
H226 C202 0.930 . S
H227 C199 0.930 . S
H228 C208 0.930 . S
H229 C220 0.929 . S
H230 C223 0.930 . S
C231 C232 1.354 . S
C231 N234 1.358 1_554 S
C231 H236 0.937 . S
C232 C231 1.354 . S
C232 N233 1.373 1_554 S
C232 H260 0.930 . S
N233 C232 1.373 1_556 S
N233 C235 1.340 . S
N234 C231 1.358 1_556 S
N234 C235 1.321 . S
N234 Co237 2.135 . S
C235 N233 1.340 . S
C235 N234 1.321 . S
C235 H259 0.930 . S
H236 C231 0.937 . S
Co237 N234 2.135 . S
Co237 N240 2.121 . S
Co237 O245 2.055 . S
Co237 O248 2.039 . S
Co237 N251 2.140 . S
C238 O239 1.227 . S
C238 O248 1.265 . S
O239 C238 1.227 . S
N240 Co237 2.121 . S
N240 C242 1.375 . S
N240 C243 1.313 . S
C241 C242 1.338 . S
C241 N244 1.377 . S
C241 H261 0.930 . S
C242 N240 1.375 . S
C242 C241 1.338 . S
C242 H246 0.931 . S
C243 N240 1.313 . S
C243 N244 1.344 . S
C243 H247 0.930 . S
N244 C241 1.377 . S
N244 C243 1.344 . S
O245 Co237 2.055 . S
O245 C249 1.253 . S
H246 C242 0.931 . S
H247 C243 0.930 . S
O248 Co237 2.039 . S
O248 C238 1.265 . S
C249 O245 1.253 . S
C249 O250 1.227 . S
O250 C249 1.227 . S
N251 Co237 2.140 . S
N251 C254 1.346 . S
N251 C255 1.345 . S
C252 C253 1.387 . S
C252 C256 1.391 . S
C253 C252 1.387 . S
C253 C254 1.369 . S
C253 H262 0.929 . S
C254 N251 1.346 . S
C254 C253 1.369 . S
C254 H257 0.928 . S
C255 N251 1.345 . S
C255 C256 1.371 . S
C255 H258 0.931 . S
C256 C252 1.391 . S
C256 C255 1.371 . S
C256 H263 0.930 . S
H257 C254 0.928 . S
H258 C255 0.931 . S
H259 C235 0.930 . S
H260 C232 0.930 . S
H261 C241 0.930 . S
H262 C253 0.929 . S
H263 C256 0.930 . S
C264 C265 1.351 . S
C264 N267 1.368 . S
C264 H269 0.931 . S
C265 C264 1.351 . S
C265 N266 1.373 . S
C265 H293 0.930 . S
N266 C265 1.373 . S
N266 C268 1.340 . S
N267 C264 1.368 . S
N267 C268 1.321 . S
N267 Co270 2.135 . S
C268 N266 1.340 . S
C268 N267 1.321 . S
C268 H292 0.930 . S
H269 C264 0.931 . S
Co270 N267 2.135 . S
Co270 N273 2.121 . S
Co270 O278 2.055 . S
Co270 O281 2.039 . S
Co270 N284 2.140 . S
C271 O272 1.227 . S
C271 O281 1.265 . S
O272 C271 1.227 . S
N273 Co270 2.121 . S
N273 C275 1.375 . S
N273 C276 1.313 . S
C274 C275 1.338 . S
C274 N277 1.377 . S
C274 H294 0.930 . S
C275 N273 1.375 . S
C275 C274 1.338 . S
C275 H279 0.931 . S
C276 N273 1.313 . S
C276 N277 1.344 . S
C276 H280 0.930 . S
N277 C274 1.377 . S
N277 C276 1.344 . S
O278 Co270 2.055 . S
O278 C282 1.253 . S
H279 C275 0.931 . S
H280 C276 0.930 . S
O281 Co270 2.039 . S
O281 C271 1.265 . S
C282 O278 1.253 . S
C282 O283 1.227 . S
O283 C282 1.227 . S
N284 Co270 2.140 . S
N284 C287 1.346 . S
N284 C288 1.345 . S
C285 C286 1.387 . S
C285 C289 1.391 . S
C286 C285 1.387 . S
C286 C287 1.369 . S
C286 H295 0.929 . S
C287 N284 1.346 . S
C287 C286 1.369 . S
C287 H290 0.928 . S
C288 N284 1.345 . S
C288 C289 1.371 . S
C288 H291 0.931 . S
C289 C285 1.391 . S
C289 C288 1.371 . S
C289 H296 0.930 . S
H290 C287 0.928 . S
H291 C288 0.931 . S
H292 C268 0.930 . S
H293 C265 0.930 . S
H294 C274 0.930 . S
H295 C286 0.929 . S
H296 C289 0.930 . S
C297 C298 1.351 . S
C297 N300 1.368 . S
C297 H302 0.931 . S
C298 C297 1.351 . S
C298 N299 1.373 . S
C298 H326 0.930 . S
N299 C298 1.373 . S
N299 C301 1.340 . S
N300 C297 1.368 . S
N300 C301 1.321 . S
N300 Co303 2.135 . S
C301 N299 1.340 . S
C301 N300 1.321 . S
C301 H325 0.930 . S
H302 C297 0.931 . S
Co303 N300 2.135 . S
Co303 N306 2.121 . S
Co303 O311 2.055 . S
Co303 O314 2.039 . S
Co303 N317 2.140 . S
C304 O305 1.227 . S
C304 O314 1.265 . S
O305 C304 1.227 . S
N306 Co303 2.121 . S
N306 C308 1.375 . S
N306 C309 1.313 . S
C307 C308 1.338 . S
C307 N310 1.377 . S
C307 H327 0.930 . S
C308 N306 1.375 . S
C308 C307 1.338 . S
C308 H312 0.931 . S
C309 N306 1.313 . S
C309 N310 1.344 . S
C309 H313 0.930 . S
N310 C307 1.377 . S
N310 C309 1.344 . S
O311 Co303 2.055 . S
O311 C315 1.253 . S
H312 C308 0.931 . S
H313 C309 0.930 . S
O314 Co303 2.039 . S
O314 C304 1.265 . S
C315 O311 1.253 . S
C315 O316 1.227 . S
O316 C315 1.227 . S
N317 Co303 2.140 . S
N317 C320 1.346 . S
N317 C321 1.345 . S
C318 C319 1.387 . S
C318 C322 1.391 . S
C319 C318 1.387 . S
C319 C320 1.369 . S
C319 H328 0.929 . S
C320 N317 1.346 . S
C320 C319 1.369 . S
C320 H323 0.928 . S
C321 N317 1.345 . S
C321 C322 1.371 . S
C321 H324 0.931 . S
C322 C318 1.391 . S
C322 C321 1.371 . S
C322 H329 0.930 . S
H323 C320 0.928 . S
H324 C321 0.931 . S
H325 C301 0.930 . S
H326 C298 0.930 . S
H327 C307 0.930 . S
H328 C319 0.929 . S
H329 C322 0.930 . S
C330 C331 1.351 . S
C330 N333 1.368 . S
C330 H335 0.931 . S
C331 C330 1.351 . S
C331 N332 1.373 . S
C331 H359 0.930 . S
N332 C331 1.373 . S
N332 C334 1.340 . S
N333 C330 1.368 . S
N333 C334 1.321 . S
N333 Co336 2.135 . S
C334 N332 1.340 . S
C334 N333 1.321 . S
C334 H358 0.930 . S
H335 C330 0.931 . S
Co336 N333 2.135 . S
Co336 N339 2.121 . S
Co336 O344 2.055 . S
Co336 O347 2.039 . S
Co336 N350 2.140 . S
C337 O338 1.227 . S
C337 O347 1.265 . S
O338 C337 1.227 . S
N339 Co336 2.121 . S
N339 C341 1.375 . S
N339 C342 1.313 . S
C340 C341 1.338 . S
C340 N343 1.377 . S
C340 H360 0.930 . S
C341 N339 1.375 . S
C341 C340 1.338 . S
C341 H345 0.931 . S
C342 N339 1.313 . S
C342 N343 1.344 . S
C342 H346 0.930 . S
N343 C340 1.377 . S
N343 C342 1.344 . S
O344 Co336 2.055 . S
O344 C348 1.253 . S
H345 C341 0.931 . S
H346 C342 0.930 . S
O347 Co336 2.039 . S
O347 C337 1.265 . S
C348 O344 1.253 . S
C348 O349 1.227 . S
O349 C348 1.227 . S
N350 Co336 2.140 . S
N350 C353 1.346 . S
N350 C354 1.345 . S
C351 C352 1.387 . S
C351 C355 1.391 . S
C352 C351 1.387 . S
C352 C353 1.369 . S
C352 H361 0.929 . S
C353 N350 1.346 . S
C353 C352 1.369 . S
C353 H356 0.928 . S
C354 N350 1.345 . S
C354 C355 1.371 . S
C354 H357 0.931 . S
C355 C351 1.391 . S
C355 C354 1.371 . S
C355 H362 0.930 . S
H356 C353 0.928 . S
H357 C354 0.931 . S
H358 C334 0.930 . S
H359 C331 0.930 . S
H360 C340 0.930 . S
H361 C352 0.929 . S
H362 C355 0.930 . S
C363 C364 1.354 . S
C363 N366 1.358 1_554 S
C363 H368 0.937 . S
C364 C363 1.354 . S
C364 N365 1.373 1_554 S
C364 H392 0.930 . S
N365 C364 1.373 1_556 S
N365 C367 1.340 . S
N366 C363 1.358 1_556 S
N366 C367 1.321 . S
N366 Co369 2.135 . S
C367 N365 1.340 . S
C367 N366 1.321 . S
C367 H391 0.930 . S
H368 C363 0.937 . S
Co369 N366 2.135 . S
Co369 N372 2.121 . S
Co369 O377 2.055 . S
Co369 O380 2.039 . S
Co369 N383 2.140 . S
C370 O371 1.227 . S
C370 O380 1.265 . S
O371 C370 1.227 . S
N372 Co369 2.121 . S
N372 C374 1.375 . S
N372 C375 1.313 . S
C373 C374 1.338 . S
C373 N376 1.377 . S
C373 H393 0.930 . S
C374 N372 1.375 . S
C374 C373 1.338 . S
C374 H378 0.931 . S
C375 N372 1.313 . S
C375 N376 1.344 . S
C375 H379 0.930 . S
N376 C373 1.377 . S
N376 C375 1.344 . S
O377 Co369 2.055 . S
O377 C381 1.253 . S
H378 C374 0.931 . S
H379 C375 0.930 . S
O380 Co369 2.039 . S
O380 C370 1.265 . S
C381 O377 1.253 . S
C381 O382 1.227 . S
O382 C381 1.227 . S
N383 Co369 2.140 . S
N383 C386 1.346 . S
N383 C387 1.345 . S
C384 C385 1.387 . S
C384 C388 1.391 . S
C385 C384 1.387 . S
C385 C386 1.369 . S
C385 H394 0.929 . S
C386 N383 1.346 . S
C386 C385 1.369 . S
C386 H389 0.928 . S
C387 N383 1.345 . S
C387 C388 1.371 . S
C387 H390 0.931 . S
C388 C384 1.391 . S
C388 C387 1.371 . S
C388 H395 0.930 . S
H389 C386 0.928 . S
H390 C387 0.931 . S
H391 C367 0.930 . S
H392 C364 0.930 . S
H393 C373 0.930 . S
H394 C385 0.929 . S
H395 C388 0.930 . S
C396 C397 1.351 . S
C396 N399 1.368 . S
C396 H401 0.931 . S
C397 C396 1.351 . S
C397 N398 1.373 . S
C397 H425 0.930 . S
N398 C397 1.373 . S
N398 C400 1.340 . S
N399 C396 1.368 . S
N399 C400 1.321 . S
N399 Co402 2.135 . S
C400 N398 1.340 . S
C400 N399 1.321 . S
C400 H424 0.930 . S
H401 C396 0.931 . S
Co402 N399 2.135 . S
Co402 N405 2.121 . S
Co402 O410 2.055 . S
Co402 O413 2.039 . S
Co402 N416 2.140 . S
C403 O404 1.227 . S
C403 O413 1.265 . S
O404 C403 1.227 . S
N405 Co402 2.121 . S
N405 C407 1.375 . S
N405 C408 1.313 . S
C406 C407 1.338 . S
C406 N409 1.377 . S
C406 H426 0.930 . S
C407 N405 1.375 . S
C407 C406 1.338 . S
C407 H411 0.931 . S
C408 N405 1.313 . S
C408 N409 1.344 . S
C408 H412 0.930 . S
N409 C406 1.377 . S
N409 C408 1.344 . S
O410 Co402 2.055 . S
O410 C414 1.253 . S
H411 C407 0.931 . S
H412 C408 0.930 . S
O413 Co402 2.039 . S
O413 C403 1.265 . S
C414 O410 1.253 . S
C414 O415 1.227 . S
O415 C414 1.227 . S
N416 Co402 2.140 . S
N416 C419 1.346 . S
N416 C420 1.345 . S
C417 C418 1.387 . S
C417 C421 1.391 . S
C418 C417 1.387 . S
C418 C419 1.369 . S
C418 H427 0.929 . S
C419 N416 1.346 . S
C419 C418 1.369 . S
C419 H422 0.928 . S
C420 N416 1.345 . S
C420 C421 1.371 . S
C420 H423 0.931 . S
C421 C417 1.391 . S
C421 C420 1.371 . S
C421 H428 0.930 . S
H422 C419 0.928 . S
H423 C420 0.931 . S
H424 C400 0.930 . S
H425 C397 0.930 . S
H426 C406 0.930 . S
H427 C418 0.929 . S
H428 C421 0.930 . S
C429 C430 1.351 . S
C429 N432 1.368 . S
C429 H434 0.931 . S
C430 C429 1.351 . S
C430 N431 1.373 . S
C430 H458 0.930 . S
N431 C430 1.373 . S
N431 C433 1.340 . S
N432 C429 1.368 . S
N432 C433 1.321 . S
N432 Co435 2.135 . S
C433 N431 1.340 . S
C433 N432 1.321 . S
C433 H457 0.930 . S
H434 C429 0.931 . S
Co435 N432 2.135 . S
Co435 N438 2.121 . S
Co435 O443 2.055 . S
Co435 O446 2.039 . S
Co435 N449 2.140 . S
C436 O437 1.227 . S
C436 O446 1.265 . S
O437 C436 1.227 . S
N438 Co435 2.121 . S
N438 C440 1.375 . S
N438 C441 1.313 . S
C439 C440 1.338 . S
C439 N442 1.377 . S
C439 H459 0.930 . S
C440 N438 1.375 . S
C440 C439 1.338 . S
C440 H444 0.931 . S
C441 N438 1.313 . S
C441 N442 1.344 . S
C441 H445 0.930 . S
N442 C439 1.377 . S
N442 C441 1.344 . S
O443 Co435 2.055 . S
O443 C447 1.253 . S
H444 C440 0.931 . S
H445 C441 0.930 . S
O446 Co435 2.039 . S
O446 C436 1.265 . S
C447 O443 1.253 . S
C447 O448 1.227 . S
O448 C447 1.227 . S
N449 Co435 2.140 . S
N449 C452 1.346 . S
N449 C453 1.345 . S
C450 C451 1.387 . S
C450 C454 1.391 . S
C451 C450 1.387 . S
C451 C452 1.369 . S
C451 H460 0.929 . S
C452 N449 1.346 . S
C452 C451 1.369 . S
C452 H455 0.928 . S
C453 N449 1.345 . S
C453 C454 1.371 . S
C453 H456 0.931 . S
C454 C450 1.391 . S
C454 C453 1.371 . S
C454 H461 0.930 . S
H455 C452 0.928 . S
H456 C453 0.931 . S
H457 C433 0.930 . S
H458 C430 0.930 . S
H459 C439 0.930 . S
H460 C451 0.929 . S
H461 C454 0.930 . S
C462 C463 1.351 . S
C462 N465 1.368 . S
C462 H467 0.931 . S
C463 C462 1.351 . S
C463 N464 1.373 . S
C463 H491 0.930 . S
N464 C463 1.373 . S
N464 C466 1.340 . S
N465 C462 1.368 . S
N465 C466 1.321 . S
N465 Co468 2.135 . S
C466 N464 1.340 . S
C466 N465 1.321 . S
C466 H490 0.930 . S
H467 C462 0.931 . S
Co468 N465 2.135 . S
Co468 N471 2.121 . S
Co468 O476 2.055 . S
Co468 O479 2.039 . S
Co468 N482 2.140 . S
C469 O470 1.227 . S
C469 O479 1.265 . S
O470 C469 1.227 . S
N471 Co468 2.121 . S
N471 C473 1.375 . S
N471 C474 1.313 . S
C472 C473 1.338 . S
C472 N475 1.377 . S
C472 H492 0.930 . S
C473 N471 1.375 . S
C473 C472 1.338 . S
C473 H477 0.931 . S
C474 N471 1.313 . S
C474 N475 1.344 . S
C474 H478 0.930 . S
N475 C472 1.377 . S
N475 C474 1.344 . S
O476 Co468 2.055 . S
O476 C480 1.253 . S
H477 C473 0.931 . S
H478 C474 0.930 . S
O479 Co468 2.039 . S
O479 C469 1.265 . S
C480 O476 1.253 . S
C480 O481 1.227 . S
O481 C480 1.227 . S
N482 Co468 2.140 . S
N482 C485 1.346 . S
N482 C486 1.345 . S
C483 C484 1.387 . S
C483 C487 1.391 . S
C484 C483 1.387 . S
C484 C485 1.369 . S
C484 H493 0.929 . S
C485 N482 1.346 . S
C485 C484 1.369 . S
C485 H488 0.928 . S
C486 N482 1.345 . S
C486 C487 1.371 . S
C486 H489 0.931 . S
C487 C483 1.391 . S
C487 C486 1.371 . S
C487 H494 0.930 . S
H488 C485 0.928 . S
H489 C486 0.931 . S
H490 C466 0.930 . S
H491 C463 0.930 . S
H492 C472 0.930 . S
H493 C484 0.929 . S
H494 C487 0.930 . S
C495 C496 1.354 . S
C495 N498 1.358 1_556 S
C495 H500 0.937 . S
C496 C495 1.354 . S
C496 N497 1.373 1_556 S
C496 H524 0.930 . S
N497 C496 1.373 1_554 S
N497 C499 1.340 . S
N498 C495 1.358 1_554 S
N498 C499 1.321 . S
N498 Co501 2.135 . S
C499 N497 1.340 . S
C499 N498 1.321 . S
C499 H523 0.930 . S
H500 C495 0.937 . S
Co501 N498 2.135 . S
Co501 N504 2.121 . S
Co501 O509 2.055 . S
Co501 O512 2.039 . S
Co501 N515 2.140 . S
C502 O503 1.227 . S
C502 O512 1.265 . S
O503 C502 1.227 . S
N504 Co501 2.121 . S
N504 C506 1.375 . S
N504 C507 1.313 . S
C505 C506 1.338 . S
C505 N508 1.377 . S
C505 H525 0.930 . S
C506 N504 1.375 . S
C506 C505 1.338 . S
C506 H510 0.931 . S
C507 N504 1.313 . S
C507 N508 1.344 . S
C507 H511 0.930 . S
N508 C505 1.377 . S
N508 C507 1.344 . S
O509 Co501 2.055 . S
O509 C513 1.253 . S
H510 C506 0.931 . S
H511 C507 0.930 . S
O512 Co501 2.039 . S
O512 C502 1.265 . S
C513 O509 1.253 . S
C513 O514 1.227 . S
O514 C513 1.227 . S
N515 Co501 2.140 . S
N515 C518 1.346 . S
N515 C519 1.345 . S
C516 C517 1.387 . S
C516 C520 1.391 . S
C517 C516 1.387 . S
C517 C518 1.369 . S
C517 H526 0.929 . S
C518 N515 1.346 . S
C518 C517 1.369 . S
C518 H521 0.928 . S
C519 N515 1.345 . S
C519 C520 1.371 . S
C519 H522 0.931 . S
C520 C516 1.391 . S
C520 C519 1.371 . S
C520 H527 0.930 . S
H521 C518 0.928 . S
H522 C519 0.931 . S
H523 C499 0.930 . S
H524 C496 0.930 . S
H525 C505 0.930 . S
H526 C517 0.929 . S
H527 C520 0.930 . S
C528 C529 1.351 . S
C528 N531 1.368 . S
C528 H533 0.931 . S
C529 C528 1.351 . S
C529 N530 1.373 . S
C529 H557 0.930 . S
N530 C529 1.373 . S
N530 C532 1.340 . S
N531 C528 1.368 . S
N531 C532 1.321 . S
N531 Co534 2.135 . S
C532 N530 1.340 . S
C532 N531 1.321 . S
C532 H556 0.930 . S
H533 C528 0.931 . S
Co534 N531 2.135 . S
Co534 N537 2.121 . S
Co534 O542 2.055 . S
Co534 O545 2.039 . S
Co534 N548 2.140 . S
C535 O536 1.227 . S
C535 O545 1.265 . S
O536 C535 1.227 . S
N537 Co534 2.121 . S
N537 C539 1.375 . S
N537 C540 1.313 . S
C538 C539 1.338 . S
C538 N541 1.377 . S
C538 H558 0.930 . S
C539 N537 1.375 . S
C539 C538 1.338 . S
C539 H543 0.931 . S
C540 N537 1.313 . S
C540 N541 1.344 . S
C540 H544 0.930 . S
N541 C538 1.377 . S
N541 C540 1.344 . S
O542 Co534 2.055 . S
O542 C546 1.253 . S
H543 C539 0.931 . S
H544 C540 0.930 . S
O545 Co534 2.039 . S
O545 C535 1.265 . S
C546 O542 1.253 . S
C546 O547 1.227 . S
O547 C546 1.227 . S
N548 Co534 2.140 . S
N548 C551 1.346 . S
N548 C552 1.345 . S
C549 C550 1.387 . S
C549 C553 1.391 . S
C550 C549 1.387 . S
C550 C551 1.369 . S
C550 H559 0.929 . S
C551 N548 1.346 . S
C551 C550 1.369 . S
C551 H554 0.928 . S
C552 N548 1.345 . S
C552 C553 1.371 . S
C552 H555 0.931 . S
C553 C549 1.391 . S
C553 C552 1.371 . S
C553 H560 0.930 . S
H554 C551 0.928 . S
H555 C552 0.931 . S
H556 C532 0.930 . S
H557 C529 0.930 . S
H558 C538 0.930 . S
H559 C550 0.929 . S
H560 C553 0.930 . S
C561 C562 1.354 . S
C561 N564 1.358 1_556 S
C561 H566 0.937 . S
C562 C561 1.354 . S
C562 N563 1.373 1_556 S
C562 H590 0.930 . S
N563 C562 1.373 1_554 S
N563 C565 1.340 . S
N564 C561 1.358 1_554 S
N564 C565 1.321 . S
N564 Co567 2.135 . S
C565 N563 1.340 . S
C565 N564 1.321 . S
C565 H589 0.930 . S
H566 C561 0.937 . S
Co567 N564 2.135 . S
Co567 N570 2.121 . S
Co567 O575 2.055 . S
Co567 O578 2.039 . S
Co567 N581 2.140 . S
C568 O569 1.227 . S
C568 O578 1.265 . S
O569 C568 1.227 . S
N570 Co567 2.121 . S
N570 C572 1.375 . S
N570 C573 1.313 . S
C571 C572 1.338 . S
C571 N574 1.377 . S
C571 H591 0.930 . S
C572 N570 1.375 . S
C572 C571 1.338 . S
C572 H576 0.931 . S
C573 N570 1.313 . S
C573 N574 1.344 . S
C573 H577 0.930 . S
N574 C571 1.377 . S
N574 C573 1.344 . S
O575 Co567 2.055 . S
O575 C579 1.253 . S
H576 C572 0.931 . S
H577 C573 0.930 . S
O578 Co567 2.039 . S
O578 C568 1.265 . S
C579 O575 1.253 . S
C579 O580 1.227 . S
O580 C579 1.227 . S
N581 Co567 2.140 . S
N581 C584 1.346 . S
N581 C585 1.345 . S
C582 C583 1.387 . S
C582 C586 1.391 . S
C583 C582 1.387 . S
C583 C584 1.369 . S
C583 H592 0.929 . S
C584 N581 1.346 . S
C584 C583 1.369 . S
C584 H587 0.928 . S
C585 N581 1.345 . S
C585 C586 1.371 . S
C585 H588 0.931 . S
C586 C582 1.391 . S
C586 C585 1.371 . S
C586 H593 0.930 . S
H587 C584 0.928 . S
H588 C585 0.931 . S
H589 C565 0.930 . S
H590 C562 0.930 . S
H591 C571 0.930 . S
H592 C583 0.929 . S
H593 C586 0.930 . S
C594 C595 1.351 . S
C594 N597 1.368 . S
C594 H599 0.931 . S
C595 C594 1.351 . S
C595 N596 1.373 . S
C595 H623 0.930 . S
N596 C595 1.373 . S
N596 C598 1.340 . S
N597 C594 1.368 . S
N597 C598 1.321 . S
N597 Co600 2.135 . S
C598 N596 1.340 . S
C598 N597 1.321 . S
C598 H622 0.930 . S
H599 C594 0.931 . S
Co600 N597 2.135 . S
Co600 N603 2.121 . S
Co600 O608 2.055 . S
Co600 O611 2.039 . S
Co600 N614 2.140 . S
C601 O602 1.227 . S
C601 O611 1.265 . S
O602 C601 1.227 . S
N603 Co600 2.121 . S
N603 C605 1.375 . S
N603 C606 1.313 . S
C604 C605 1.338 . S
C604 N607 1.377 . S
C604 H624 0.930 . S
C605 N603 1.375 . S
C605 C604 1.338 . S
C605 H609 0.931 . S
C606 N603 1.313 . S
C606 N607 1.344 . S
C606 H610 0.930 . S
N607 C604 1.377 . S
N607 C606 1.344 . S
O608 Co600 2.055 . S
O608 C612 1.253 . S
H609 C605 0.931 . S
H610 C606 0.930 . S
O611 Co600 2.039 . S
O611 C601 1.265 . S
C612 O608 1.253 . S
C612 O613 1.227 . S
O613 C612 1.227 . S
N614 Co600 2.140 . S
N614 C617 1.346 . S
N614 C618 1.345 . S
C615 C616 1.387 . S
C615 C619 1.391 . S
C616 C615 1.387 . S
C616 C617 1.369 . S
C616 H625 0.929 . S
C617 N614 1.346 . S
C617 C616 1.369 . S
C617 H620 0.928 . S
C618 N614 1.345 . S
C618 C619 1.371 . S
C618 H621 0.931 . S
C619 C615 1.391 . S
C619 C618 1.371 . S
C619 H626 0.930 . S
H620 C617 0.928 . S
H621 C618 0.931 . S
H622 C598 0.930 . S
H623 C595 0.930 . S
H624 C604 0.930 . S
H625 C616 0.929 . S
H626 C619 0.930 . S
C627 C628 1.351 . S
C627 N630 1.368 . S
C627 H632 0.931 . S
C628 C627 1.351 . S
C628 N629 1.373 . S
C628 H656 0.930 . S
N629 C628 1.373 . S
N629 C631 1.340 . S
N630 C627 1.368 . S
N630 C631 1.321 . S
N630 Co633 2.135 . S
C631 N629 1.340 . S
C631 N630 1.321 . S
C631 H655 0.930 . S
H632 C627 0.931 . S
Co633 N630 2.135 . S
Co633 N636 2.121 . S
Co633 O641 2.055 . S
Co633 O644 2.039 . S
Co633 N647 2.140 . S
C634 O635 1.227 . S
C634 O644 1.265 . S
O635 C634 1.227 . S
N636 Co633 2.121 . S
N636 C638 1.375 . S
N636 C639 1.313 . S
C637 C638 1.338 . S
C637 N640 1.377 . S
C637 H657 0.930 . S
C638 N636 1.375 . S
C638 C637 1.338 . S
C638 H642 0.931 . S
C639 N636 1.313 . S
C639 N640 1.344 . S
C639 H643 0.930 . S
N640 C637 1.377 . S
N640 C639 1.344 . S
O641 Co633 2.055 . S
O641 C645 1.253 . S
H642 C638 0.931 . S
H643 C639 0.930 . S
O644 Co633 2.039 . S
O644 C634 1.265 . S
C645 O641 1.253 . S
C645 O646 1.227 . S
O646 C645 1.227 . S
N647 Co633 2.140 . S
N647 C650 1.346 . S
N647 C651 1.345 . S
C648 C649 1.387 . S
C648 C652 1.391 . S
C649 C648 1.387 . S
C649 C650 1.369 . S
C649 H658 0.929 . S
C650 N647 1.346 . S
C650 C649 1.369 . S
C650 H653 0.928 . S
C651 N647 1.345 . S
C651 C652 1.371 . S
C651 H654 0.931 . S
C652 C648 1.391 . S
C652 C651 1.371 . S
C652 H659 0.930 . S
H653 C650 0.928 . S
H654 C651 0.931 . S
H655 C631 0.930 . S
H656 C628 0.930 . S
H657 C637 0.930 . S
H658 C649 0.929 . S
H659 C652 0.930 . S
C660 C661 1.351 . S
C660 N663 1.368 . S
C660 H665 0.931 . S
C661 C660 1.351 . S
C661 N662 1.373 . S
C661 H689 0.930 . S
N662 C661 1.373 . S
N662 C664 1.340 . S
N663 C660 1.368 . S
N663 C664 1.321 . S
N663 Co666 2.135 . S
C664 N662 1.340 . S
C664 N663 1.321 . S
C664 H688 0.930 . S
H665 C660 0.931 . S
Co666 N663 2.135 . S
Co666 N669 2.121 . S
Co666 O674 2.055 . S
Co666 O677 2.039 . S
Co666 N680 2.140 . S
C667 O668 1.227 . S
C667 O677 1.265 . S
O668 C667 1.227 . S
N669 Co666 2.121 . S
N669 C671 1.375 . S
N669 C672 1.313 . S
C670 C671 1.338 . S
C670 N673 1.377 . S
C670 H690 0.930 . S
C671 N669 1.375 . S
C671 C670 1.338 . S
C671 H675 0.931 . S
C672 N669 1.313 . S
C672 N673 1.344 . S
C672 H676 0.930 . S
N673 C670 1.377 . S
N673 C672 1.344 . S
O674 Co666 2.055 . S
O674 C678 1.253 . S
H675 C671 0.931 . S
H676 C672 0.930 . S
O677 Co666 2.039 . S
O677 C667 1.265 . S
C678 O674 1.253 . S
C678 O679 1.227 . S
O679 C678 1.227 . S
N680 Co666 2.140 . S
N680 C683 1.346 . S
N680 C684 1.345 . S
C681 C682 1.387 . S
C681 C685 1.391 . S
C682 C681 1.387 . S
C682 C683 1.369 . S
C682 H691 0.929 . S
C683 N680 1.346 . S
C683 C682 1.369 . S
C683 H686 0.928 . S
C684 N680 1.345 . S
C684 C685 1.371 . S
C684 H687 0.931 . S
C685 C681 1.391 . S
C685 C684 1.371 . S
C685 H692 0.930 . S
H686 C683 0.928 . S
H687 C684 0.931 . S
H688 C664 0.930 . S
H689 C661 0.930 . S
H690 C670 0.930 . S
H691 C682 0.929 . S
H692 C685 0.930 . S
C693 C694 1.354 . S
C693 N696 1.358 1_554 S
C693 H698 0.937 . S
C694 C693 1.354 . S
C694 N695 1.373 1_554 S
C694 H722 0.930 . S
N695 C694 1.373 1_556 S
N695 C697 1.340 . S
N696 C693 1.358 1_556 S
N696 C697 1.321 . S
N696 Co699 2.135 . S
C697 N695 1.340 . S
C697 N696 1.321 . S
C697 H721 0.930 . S
H698 C693 0.937 . S
Co699 N696 2.135 . S
Co699 N702 2.121 . S
Co699 O707 2.055 . S
Co699 O710 2.039 . S
Co699 N713 2.140 . S
C700 O701 1.227 . S
C700 O710 1.265 . S
O701 C700 1.227 . S
N702 Co699 2.121 . S
N702 C704 1.375 . S
N702 C705 1.313 . S
C703 C704 1.338 . S
C703 N706 1.377 . S
C703 H723 0.930 . S
C704 N702 1.375 . S
C704 C703 1.338 . S
C704 H708 0.931 . S
C705 N702 1.313 . S
C705 N706 1.344 . S
C705 H709 0.930 . S
N706 C703 1.377 . S
N706 C705 1.344 . S
O707 Co699 2.055 . S
O707 C711 1.253 . S
H708 C704 0.931 . S
H709 C705 0.930 . S
O710 Co699 2.039 . S
O710 C700 1.265 . S
C711 O707 1.253 . S
C711 O712 1.227 . S
O712 C711 1.227 . S
N713 Co699 2.140 . S
N713 C716 1.346 . S
N713 C717 1.345 . S
C714 C715 1.387 . S
C714 C718 1.391 . S
C715 C714 1.387 . S
C715 C716 1.369 . S
C715 H724 0.929 . S
C716 N713 1.346 . S
C716 C715 1.369 . S
C716 H719 0.928 . S
C717 N713 1.345 . S
C717 C718 1.371 . S
C717 H720 0.931 . S
C718 C714 1.391 . S
C718 C717 1.371 . S
C718 H725 0.930 . S
H719 C716 0.928 . S
H720 C717 0.931 . S
H721 C697 0.930 . S
H722 C694 0.930 . S
H723 C703 0.930 . S
H724 C715 0.929 . S
H725 C718 0.930 . S
C726 C727 1.351 . S
C726 N729 1.368 . S
C726 H731 0.931 . S
C727 C726 1.351 . S
C727 N728 1.373 . S
C727 H755 0.930 . S
N728 C727 1.373 . S
N728 C730 1.340 . S
N729 C726 1.368 . S
N729 C730 1.321 . S
N729 Co732 2.135 . S
C730 N728 1.340 . S
C730 N729 1.321 . S
C730 H754 0.930 . S
H731 C726 0.931 . S
Co732 N729 2.135 . S
Co732 N735 2.121 . S
Co732 O740 2.055 . S
Co732 O743 2.039 . S
Co732 N746 2.140 . S
C733 O734 1.227 . S
C733 O743 1.265 . S
O734 C733 1.227 . S
N735 Co732 2.121 . S
N735 C737 1.375 . S
N735 C738 1.313 . S
C736 C737 1.338 . S
C736 N739 1.377 . S
C736 H756 0.930 . S
C737 N735 1.375 . S
C737 C736 1.338 . S
C737 H741 0.931 . S
C738 N735 1.313 . S
C738 N739 1.344 . S
C738 H742 0.930 . S
N739 C736 1.377 . S
N739 C738 1.344 . S
O740 Co732 2.055 . S
O740 C744 1.253 . S
H741 C737 0.931 . S
H742 C738 0.930 . S
O743 Co732 2.039 . S
O743 C733 1.265 . S
C744 O740 1.253 . S
C744 O745 1.227 . S
O745 C744 1.227 . S
N746 Co732 2.140 . S
N746 C749 1.346 . S
N746 C750 1.345 . S
C747 C748 1.387 . S
C747 C751 1.391 . S
C748 C747 1.387 . S
C748 C749 1.369 . S
C748 H757 0.929 . S
C749 N746 1.346 . S
C749 C748 1.369 . S
C749 H752 0.928 . S
C750 N746 1.345 . S
C750 C751 1.371 . S
C750 H753 0.931 . S
C751 C747 1.391 . S
C751 C750 1.371 . S
C751 H758 0.930 . S
H752 C749 0.928 . S
H753 C750 0.931 . S
H754 C730 0.930 . S
H755 C727 0.930 . S
H756 C736 0.930 . S
H757 C748 0.929 . S
H758 C751 0.930 . S
C759 C760 1.351 . S
C759 N762 1.368 . S
C759 H764 0.931 . S
C760 C759 1.351 . S
C760 N761 1.373 . S
C760 H788 0.930 . S
N761 C760 1.373 . S
N761 C763 1.340 . S
N762 C759 1.368 . S
N762 C763 1.321 . S
N762 Co765 2.135 . S
C763 N761 1.340 . S
C763 N762 1.321 . S
C763 H787 0.930 . S
H764 C759 0.931 . S
Co765 N762 2.135 . S
Co765 N768 2.121 . S
Co765 O773 2.055 . S
Co765 O776 2.039 . S
Co765 N779 2.140 . S
C766 O767 1.227 . S
C766 O776 1.265 . S
O767 C766 1.227 . S
N768 Co765 2.121 . S
N768 C770 1.375 . S
N768 C771 1.313 . S
C769 C770 1.338 . S
C769 N772 1.377 . S
C769 H789 0.930 . S
C770 N768 1.375 . S
C770 C769 1.338 . S
C770 H774 0.931 . S
C771 N768 1.313 . S
C771 N772 1.344 . S
C771 H775 0.930 . S
N772 C769 1.377 . S
N772 C771 1.344 . S
O773 Co765 2.055 . S
O773 C777 1.253 . S
H774 C770 0.931 . S
H775 C771 0.930 . S
O776 Co765 2.039 . S
O776 C766 1.265 . S
C777 O773 1.253 . S
C777 O778 1.227 . S
O778 C777 1.227 . S
N779 Co765 2.140 . S
N779 C782 1.346 . S
N779 C783 1.345 . S
C780 C781 1.387 . S
C780 C784 1.391 . S
C781 C780 1.387 . S
C781 C782 1.369 . S
C781 H790 0.929 . S
C782 N779 1.346 . S
C782 C781 1.369 . S
C782 H785 0.928 . S
C783 N779 1.345 . S
C783 C784 1.371 . S
C783 H786 0.931 . S
C784 C780 1.391 . S
C784 C783 1.371 . S
C784 H791 0.930 . S
H785 C782 0.928 . S
H786 C783 0.931 . S
H787 C763 0.930 . S
H788 C760 0.930 . S
H789 C769 0.930 . S
H790 C781 0.929 . S
H791 C784 0.930 . S
C792 C793 1.351 . S
C792 N795 1.368 . S
C792 H797 0.931 . S
C793 C792 1.351 . S
C793 N794 1.373 . S
C793 H821 0.930 . S
N794 C793 1.373 . S
N794 C796 1.340 . S
N795 C792 1.368 . S
N795 C796 1.321 . S
N795 Co798 2.135 . S
C796 N794 1.340 . S
C796 N795 1.321 . S
C796 H820 0.930 . S
H797 C792 0.931 . S
Co798 N795 2.135 . S
Co798 N801 2.121 . S
Co798 O806 2.055 . S
Co798 O809 2.039 . S
Co798 N812 2.140 . S
C799 O800 1.227 . S
C799 O809 1.265 . S
O800 C799 1.227 . S
N801 Co798 2.121 . S
N801 C803 1.375 . S
N801 C804 1.313 . S
C802 C803 1.338 . S
C802 N805 1.377 . S
C802 H822 0.930 . S
C803 N801 1.375 . S
C803 C802 1.338 . S
C803 H807 0.931 . S
C804 N801 1.313 . S
C804 N805 1.344 . S
C804 H808 0.930 . S
N805 C802 1.377 . S
N805 C804 1.344 . S
O806 Co798 2.055 . S
O806 C810 1.253 . S
H807 C803 0.931 . S
H808 C804 0.930 . S
O809 Co798 2.039 . S
O809 C799 1.265 . S
C810 O806 1.253 . S
C810 O811 1.227 . S
O811 C810 1.227 . S
N812 Co798 2.140 . S
N812 C815 1.346 . S
N812 C816 1.345 . S
C813 C814 1.387 . S
C813 C817 1.391 . S
C814 C813 1.387 . S
C814 C815 1.369 . S
C814 H823 0.929 . S
C815 N812 1.346 . S
C815 C814 1.369 . S
C815 H818 0.928 . S
C816 N812 1.345 . S
C816 C817 1.371 . S
C816 H819 0.931 . S
C817 C813 1.391 . S
C817 C816 1.371 . S
C817 H824 0.930 . S
H818 C815 0.928 . S
H819 C816 0.931 . S
H820 C796 0.930 . S
H821 C793 0.930 . S
H822 C802 0.930 . S
H823 C814 0.929 . S
H824 C817 0.930 . S
C825 C826 1.354 . S
C825 N828 1.358 1_554 S
C825 H830 0.937 . S
C826 C825 1.354 . S
C826 N827 1.373 1_554 S
C826 H854 0.930 . S
N827 C826 1.373 1_556 S
N827 C829 1.340 . S
N828 C825 1.358 1_556 S
N828 C829 1.321 . S
N828 Co831 2.135 . S
C829 N827 1.340 . S
C829 N828 1.321 . S
C829 H853 0.930 . S
H830 C825 0.937 . S
Co831 N828 2.135 . S
Co831 N834 2.121 . S
Co831 O839 2.055 . S
Co831 O842 2.039 . S
Co831 N845 2.140 . S
C832 O833 1.227 . S
C832 O842 1.265 . S
O833 C832 1.227 . S
N834 Co831 2.121 . S
N834 C836 1.375 . S
N834 C837 1.313 . S
C835 C836 1.338 . S
C835 N838 1.377 . S
C835 H855 0.930 . S
C836 N834 1.375 . S
C836 C835 1.338 . S
C836 H840 0.931 . S
C837 N834 1.313 . S
C837 N838 1.344 . S
C837 H841 0.930 . S
N838 C835 1.377 . S
N838 C837 1.344 . S
O839 Co831 2.055 . S
O839 C843 1.253 . S
H840 C836 0.931 . S
H841 C837 0.930 . S
O842 Co831 2.039 . S
O842 C832 1.265 . S
C843 O839 1.253 . S
C843 O844 1.227 . S
O844 C843 1.227 . S
N845 Co831 2.140 . S
N845 C848 1.346 . S
N845 C849 1.345 . S
C846 C847 1.387 . S
C846 C850 1.391 . S
C847 C846 1.387 . S
C847 C848 1.369 . S
C847 H856 0.929 . S
C848 N845 1.346 . S
C848 C847 1.369 . S
C848 H851 0.928 . S
C849 N845 1.345 . S
C849 C850 1.371 . S
C849 H852 0.931 . S
C850 C846 1.391 . S
C850 C849 1.371 . S
C850 H857 0.930 . S
H851 C848 0.928 . S
H852 C849 0.931 . S
H853 C829 0.930 . S
H854 C826 0.930 . S
H855 C835 0.930 . S
H856 C847 0.929 . S
H857 C850 0.930 . S
C858 C859 1.351 . S
C858 N861 1.368 . S
C858 H863 0.931 . S
C859 C858 1.351 . S
C859 N860 1.373 . S
C859 H887 0.930 . S
N860 C859 1.373 . S
N860 C862 1.340 . S
N861 C858 1.368 . S
N861 C862 1.321 . S
N861 Co864 2.135 . S
C862 N860 1.340 . S
C862 N861 1.321 . S
C862 H886 0.930 . S
H863 C858 0.931 . S
Co864 N861 2.135 . S
Co864 N867 2.121 . S
Co864 O872 2.055 . S
Co864 O875 2.039 . S
Co864 N878 2.140 . S
C865 O866 1.227 . S
C865 O875 1.265 . S
O866 C865 1.227 . S
N867 Co864 2.121 . S
N867 C869 1.375 . S
N867 C870 1.313 . S
C868 C869 1.338 . S
C868 N871 1.377 . S
C868 H888 0.930 . S
C869 N867 1.375 . S
C869 C868 1.338 . S
C869 H873 0.931 . S
C870 N867 1.313 . S
C870 N871 1.344 . S
C870 H874 0.930 . S
N871 C868 1.377 . S
N871 C870 1.344 . S
O872 Co864 2.055 . S
O872 C876 1.253 . S
H873 C869 0.931 . S
H874 C870 0.930 . S
O875 Co864 2.039 . S
O875 C865 1.265 . S
C876 O872 1.253 . S
C876 O877 1.227 . S
O877 C876 1.227 . S
N878 Co864 2.140 . S
N878 C881 1.346 . S
N878 C882 1.345 . S
C879 C880 1.387 . S
C879 C883 1.391 . S
C880 C879 1.387 . S
C880 C881 1.369 . S
C880 H889 0.929 . S
C881 N878 1.346 . S
C881 C880 1.369 . S
C881 H884 0.928 . S
C882 N878 1.345 . S
C882 C883 1.371 . S
C882 H885 0.931 . S
C883 C879 1.391 . S
C883 C882 1.371 . S
C883 H890 0.930 . S
H884 C881 0.928 . S
H885 C882 0.931 . S
H886 C862 0.930 . S
H887 C859 0.930 . S
H888 C868 0.930 . S
H889 C880 0.929 . S
H890 C883 0.930 . S
C891 C892 1.351 . S
C891 N894 1.368 . S
C891 H896 0.931 . S
C892 C891 1.351 . S
C892 N893 1.373 . S
C892 H920 0.930 . S
N893 C892 1.373 . S
N893 C895 1.340 . S
N894 C891 1.368 . S
N894 C895 1.321 . S
N894 Co897 2.135 . S
C895 N893 1.340 . S
C895 N894 1.321 . S
C895 H919 0.930 . S
H896 C891 0.931 . S
Co897 N894 2.135 . S
Co897 N900 2.121 . S
Co897 O905 2.055 . S
Co897 O908 2.039 . S
Co897 N911 2.140 . S
C898 O899 1.227 . S
C898 O908 1.265 . S
O899 C898 1.227 . S
N900 Co897 2.121 . S
N900 C902 1.375 . S
N900 C903 1.313 . S
C901 C902 1.338 . S
C901 N904 1.377 . S
C901 H921 0.930 . S
C902 N900 1.375 . S
C902 C901 1.338 . S
C902 H906 0.931 . S
C903 N900 1.313 . S
C903 N904 1.344 . S
C903 H907 0.930 . S
N904 C901 1.377 . S
N904 C903 1.344 . S
O905 Co897 2.055 . S
O905 C909 1.253 . S
H906 C902 0.931 . S
H907 C903 0.930 . S
O908 Co897 2.039 . S
O908 C898 1.265 . S
C909 O905 1.253 . S
C909 O910 1.227 . S
O910 C909 1.227 . S
N911 Co897 2.140 . S
N911 C914 1.346 . S
N911 C915 1.345 . S
C912 C913 1.387 . S
C912 C916 1.391 . S
C913 C912 1.387 . S
C913 C914 1.369 . S
C913 H922 0.929 . S
C914 N911 1.346 . S
C914 C913 1.369 . S
C914 H917 0.928 . S
C915 N911 1.345 . S
C915 C916 1.371 . S
C915 H918 0.931 . S
C916 C912 1.391 . S
C916 C915 1.371 . S
C916 H923 0.930 . S
H917 C914 0.928 . S
H918 C915 0.931 . S
H919 C895 0.930 . S
H920 C892 0.930 . S
H921 C901 0.930 . S
H922 C913 0.929 . S
H923 C916 0.930 . S
C924 C925 1.351 . S
C924 N927 1.368 . S
C924 H929 0.931 . S
C925 C924 1.351 . S
C925 N926 1.373 . S
C925 H953 0.930 . S
N926 C925 1.373 . S
N926 C928 1.340 . S
N927 C924 1.368 . S
N927 C928 1.321 . S
N927 Co930 2.135 . S
C928 N926 1.340 . S
C928 N927 1.321 . S
C928 H952 0.930 . S
H929 C924 0.931 . S
Co930 N927 2.135 . S
Co930 N933 2.121 . S
Co930 O938 2.055 . S
Co930 O941 2.039 . S
Co930 N944 2.140 . S
C931 O932 1.227 . S
C931 O941 1.265 . S
O932 C931 1.227 . S
N933 Co930 2.121 . S
N933 C935 1.375 . S
N933 C936 1.313 . S
C934 C935 1.338 . S
C934 N937 1.377 . S
C934 H954 0.930 . S
C935 N933 1.375 . S
C935 C934 1.338 . S
C935 H939 0.931 . S
C936 N933 1.313 . S
C936 N937 1.344 . S
C936 H940 0.930 . S
N937 C934 1.377 . S
N937 C936 1.344 . S
O938 Co930 2.055 . S
O938 C942 1.253 . S
H939 C935 0.931 . S
H940 C936 0.930 . S
O941 Co930 2.039 . S
O941 C931 1.265 . S
C942 O938 1.253 . S
C942 O943 1.227 . S
O943 C942 1.227 . S
N944 Co930 2.140 . S
N944 C947 1.346 . S
N944 C948 1.345 . S
C945 C946 1.387 . S
C945 C949 1.391 . S
C946 C945 1.387 . S
C946 C947 1.369 . S
C946 H955 0.929 . S
C947 N944 1.346 . S
C947 C946 1.369 . S
C947 H950 0.928 . S
C948 N944 1.345 . S
C948 C949 1.371 . S
C948 H951 0.931 . S
C949 C945 1.391 . S
C949 C948 1.371 . S
C949 H956 0.930 . S
H950 C947 0.928 . S
H951 C948 0.931 . S
H952 C928 0.930 . S
H953 C925 0.930 . S
H954 C934 0.930 . S
H955 C946 0.929 . S
H956 C949 0.930 . S
C957 C958 1.354 . S
C957 N960 1.358 1_556 S
C957 H962 0.937 . S
C958 C957 1.354 . S
C958 N959 1.373 1_556 S
C958 H986 0.930 . S
N959 C958 1.373 1_554 S
N959 C961 1.340 . S
N960 C957 1.358 1_554 S
N960 C961 1.321 . S
N960 Co963 2.135 . S
C961 N959 1.340 . S
C961 N960 1.321 . S
C961 H985 0.930 . S
H962 C957 0.937 . S
Co963 N960 2.135 . S
Co963 N966 2.121 . S
Co963 O971 2.055 . S
Co963 O974 2.039 . S
Co963 N977 2.140 . S
C964 O965 1.227 . S
C964 O974 1.265 . S
O965 C964 1.227 . S
N966 Co963 2.121 . S
N966 C968 1.375 . S
N966 C969 1.313 . S
C967 C968 1.338 . S
C967 N970 1.377 . S
C967 H987 0.930 . S
C968 N966 1.375 . S
C968 C967 1.338 . S
C968 H972 0.931 . S
C969 N966 1.313 . S
C969 N970 1.344 . S
C969 H973 0.930 . S
N970 C967 1.377 . S
N970 C969 1.344 . S
O971 Co963 2.055 . S
O971 C975 1.253 . S
H972 C968 0.931 . S
H973 C969 0.930 . S
O974 Co963 2.039 . S
O974 C964 1.265 . S
C975 O971 1.253 . S
C975 O976 1.227 . S
O976 C975 1.227 . S
N977 Co963 2.140 . S
N977 C980 1.346 . S
N977 C981 1.345 . S
C978 C979 1.387 . S
C978 C982 1.391 . S
C979 C978 1.387 . S
C979 C980 1.369 . S
C979 H988 0.929 . S
C980 N977 1.346 . S
C980 C979 1.369 . S
C980 H983 0.928 . S
C981 N977 1.345 . S
C981 C982 1.371 . S
C981 H984 0.931 . S
C982 C978 1.391 . S
C982 C981 1.371 . S
C982 H989 0.930 . S
H983 C980 0.928 . S
H984 C981 0.931 . S
H985 C961 0.930 . S
H986 C958 0.930 . S
H987 C967 0.930 . S
H988 C979 0.929 . S
H989 C982 0.930 . S
C990 C991 1.351 . S
C990 N993 1.368 . S
C990 H995 0.931 . S
C991 C990 1.351 . S
C991 N992 1.373 . S
C991 H1019 0.930 . S
N992 C991 1.373 . S
N992 C994 1.340 . S
N993 C990 1.368 . S
N993 C994 1.321 . S
N993 Co996 2.135 . S
C994 N992 1.340 . S
C994 N993 1.321 . S
C994 H1018 0.930 . S
H995 C990 0.931 . S
Co996 N993 2.135 . S
Co996 N999 2.121 . S
Co996 O1004 2.055 . S
Co996 O1007 2.039 . S
Co996 N1010 2.140 . S
C997 O998 1.227 . S
C997 O1007 1.265 . S
O998 C997 1.227 . S
N999 Co996 2.121 . S
N999 C1001 1.375 . S
N999 C1002 1.313 . S
C1000 C1001 1.338 . S
C1000 N1003 1.377 . S
C1000 H1020 0.930 . S
C1001 N999 1.375 . S
C1001 C1000 1.338 . S
C1001 H1005 0.931 . S
C1002 N999 1.313 . S
C1002 N1003 1.344 . S
C1002 H1006 0.930 . S
N1003 C1000 1.377 . S
N1003 C1002 1.344 . S
O1004 Co996 2.055 . S
O1004 C1008 1.253 . S
H1005 C1001 0.931 . S
H1006 C1002 0.930 . S
O1007 Co996 2.039 . S
O1007 C997 1.265 . S
C1008 O1004 1.253 . S
C1008 O1009 1.227 . S
O1009 C1008 1.227 . S
N1010 Co996 2.140 . S
N1010 C1013 1.346 . S
N1010 C1014 1.345 . S
C1011 C1012 1.387 . S
C1011 C1015 1.391 . S
C1012 C1011 1.387 . S
C1012 C1013 1.369 . S
C1012 H1021 0.929 . S
C1013 N1010 1.346 . S
C1013 C1012 1.369 . S
C1013 H1016 0.928 . S
C1014 N1010 1.345 . S
C1014 C1015 1.371 . S
C1014 H1017 0.931 . S
C1015 C1011 1.391 . S
C1015 C1014 1.371 . S
C1015 H1022 0.930 . S
H1016 C1013 0.928 . S
H1017 C1014 0.931 . S
H1018 C994 0.930 . S
H1019 C991 0.930 . S
H1020 C1000 0.930 . S
H1021 C1012 0.929 . S
H1022 C1015 0.930 . S
C1023 C1024 1.351 . S
C1023 N1026 1.368 . S
C1023 H1028 0.931 . S
C1024 C1023 1.351 . S
C1024 N1025 1.373 . S
C1024 H1052 0.930 . S
N1025 C1024 1.373 . S
N1025 C1027 1.340 . S
N1026 C1023 1.368 . S
N1026 C1027 1.321 . S
N1026 Co1029 2.135 . S
C1027 N1025 1.340 . S
C1027 N1026 1.321 . S
C1027 H1051 0.930 . S
H1028 C1023 0.931 . S
Co1029 N1026 2.135 . S
Co1029 N1032 2.121 . S
Co1029 O1037 2.055 . S
Co1029 O1040 2.039 . S
Co1029 N1043 2.140 . S
C1030 O1031 1.227 . S
C1030 O1040 1.265 . S
O1031 C1030 1.227 . S
N1032 Co1029 2.121 . S
N1032 C1034 1.375 . S
N1032 C1035 1.313 . S
C1033 C1034 1.338 . S
C1033 N1036 1.377 . S
C1033 H1053 0.930 . S
C1034 N1032 1.375 . S
C1034 C1033 1.338 . S
C1034 H1038 0.931 . S
C1035 N1032 1.313 . S
C1035 N1036 1.344 . S
C1035 H1039 0.930 . S
N1036 C1033 1.377 . S
N1036 C1035 1.344 . S
O1037 Co1029 2.055 . S
O1037 C1041 1.253 . S
H1038 C1034 0.931 . S
H1039 C1035 0.930 . S
O1040 Co1029 2.039 . S
O1040 C1030 1.265 . S
C1041 O1037 1.253 . S
C1041 O1042 1.227 . S
O1042 C1041 1.227 . S
N1043 Co1029 2.140 . S
N1043 C1046 1.346 . S
N1043 C1047 1.345 . S
C1044 C1045 1.387 . S
C1044 C1048 1.391 . S
C1045 C1044 1.387 . S
C1045 C1046 1.369 . S
C1045 H1054 0.929 . S
C1046 N1043 1.346 . S
C1046 C1045 1.369 . S
C1046 H1049 0.928 . S
C1047 N1043 1.345 . S
C1047 C1048 1.371 . S
C1047 H1050 0.931 . S
C1048 C1044 1.391 . S
C1048 C1047 1.371 . S
C1048 H1055 0.930 . S
H1049 C1046 0.928 . S
H1050 C1047 0.931 . S
H1051 C1027 0.930 . S
H1052 C1024 0.930 . S
H1053 C1033 0.930 . S
H1054 C1045 0.929 . S
H1055 C1048 0.930 . S
H1056 C1062 0.930 . S
H1057 C1066 0.930 . S
H1058 C1071 0.929 . S
H1059 C1069 0.929 . S
H1060 C1064 0.929 . S
H1061 C1070 0.929 . S
C1062 H1056 0.930 . S
C1062 C1063 1.367 . S
C1062 C1070 1.378 . S
C1063 C1062 1.367 . S
C1063 C1071 1.433 . S
C1064 H1060 0.929 . S
C1064 C1066 1.378 . S
C1064 C1068 1.350 . S
C1065 C1068 1.463 . S
C1065 C1070 1.350 . S
C1065 N1073 1.427 . S
C1066 H1057 0.930 . S
C1066 C1064 1.378 . S
C1066 C1067 1.367 . S
C1067 C1066 1.367 . S
C1067 C1069 1.433 . S
C1068 C1064 1.350 . S
C1068 C1065 1.463 . S
C1068 N1072 1.427 . S
C1069 H1059 0.929 . S
C1069 C1067 1.433 . S
C1069 N1072 1.384 . S
C1070 H1061 0.929 . S
C1070 C1062 1.378 . S
C1070 C1065 1.350 . S
C1071 H1058 0.929 . S
C1071 C1063 1.433 . S
C1071 N1073 1.384 . S
N1072 C1068 1.427 . S
N1072 C1069 1.384 . S
N1073 C1065 1.427 . S
N1073 C1071 1.384 . S
H1074 C1080 0.930 . S
H1075 C1084 0.930 . S
H1076 C1089 0.929 . S
H1077 C1087 0.929 . S
H1078 C1082 0.929 . S
H1079 C1088 0.929 . S
C1080 H1074 0.930 . S
C1080 C1081 1.367 . S
C1080 C1088 1.378 . S
C1081 C1080 1.367 . S
C1081 C1089 1.433 . S
C1082 H1078 0.929 . S
C1082 C1084 1.378 . S
C1082 C1086 1.350 . S
C1083 C1086 1.463 . S
C1083 C1088 1.350 . S
C1083 N1091 1.427 . S
C1084 H1075 0.930 . S
C1084 C1082 1.378 . S
C1084 C1085 1.367 . S
C1085 C1084 1.367 . S
C1085 C1087 1.433 . S
C1086 C1082 1.350 . S
C1086 C1083 1.463 . S
C1086 N1090 1.427 . S
C1087 H1077 0.929 . S
C1087 C1085 1.433 . S
C1087 N1090 1.384 . S
C1088 H1079 0.929 . S
C1088 C1080 1.378 . S
C1088 C1083 1.350 . S
C1089 H1076 0.929 . S
C1089 C1081 1.433 . S
C1089 N1091 1.384 . S
N1090 C1086 1.427 . S
N1090 C1087 1.384 . S
N1091 C1083 1.427 . S
N1091 C1089 1.384 . S
H1092 C1098 0.930 . S
H1093 C1102 0.930 . S
H1094 C1107 0.929 . S
H1095 C1105 0.929 . S
H1096 C1100 0.929 . S
H1097 C1106 0.929 . S
C1098 H1092 0.930 . S
C1098 C1099 1.367 . S
C1098 C1106 1.378 . S
C1099 C1098 1.367 . S
C1099 C1107 1.433 . S
C1100 H1096 0.929 . S
C1100 C1102 1.378 . S
C1100 C1104 1.350 . S
C1101 C1104 1.463 . S
C1101 C1106 1.350 . S
C1101 N1109 1.427 . S
C1102 H1093 0.930 . S
C1102 C1100 1.378 . S
C1102 C1103 1.367 . S
C1103 C1102 1.367 . S
C1103 C1105 1.433 . S
C1104 C1100 1.350 . S
C1104 C1101 1.463 . S
C1104 N1108 1.427 . S
C1105 H1095 0.929 . S
C1105 C1103 1.433 . S
C1105 N1108 1.384 . S
C1106 H1097 0.929 . S
C1106 C1098 1.378 . S
C1106 C1101 1.350 . S
C1107 H1094 0.929 . S
C1107 C1099 1.433 . S
C1107 N1109 1.384 . S
N1108 C1104 1.427 . S
N1108 C1105 1.384 . S
N1109 C1101 1.427 . S
N1109 C1107 1.384 . S
H1110 C1116 0.930 . S
H1111 C1120 0.930 . S
H1112 C1125 0.929 . S
H1113 C1123 0.929 . S
H1114 C1118 0.929 . S
H1115 C1124 0.929 . S
C1116 H1110 0.930 . S
C1116 C1117 1.367 . S
C1116 C1124 1.378 . S
C1117 C1116 1.367 . S
C1117 C1125 1.433 . S
C1118 H1114 0.929 . S
C1118 C1120 1.378 . S
C1118 C1122 1.350 . S
C1119 C1122 1.463 . S
C1119 C1124 1.350 . S
C1119 N1127 1.427 . S
C1120 H1111 0.930 . S
C1120 C1118 1.378 . S
C1120 C1121 1.367 . S
C1121 C1120 1.367 . S
C1121 C1123 1.433 . S
C1122 C1118 1.350 . S
C1122 C1119 1.463 . S
C1122 N1126 1.427 . S
C1123 H1113 0.929 . S
C1123 C1121 1.433 . S
C1123 N1126 1.384 . S
C1124 H1115 0.929 . S
C1124 C1116 1.378 . S
C1124 C1119 1.350 . S
C1125 H1112 0.929 . S
C1125 C1117 1.433 . S
C1125 N1127 1.384 . S
N1126 C1122 1.427 . S
N1126 C1123 1.384 . S
N1127 C1119 1.427 . S
N1127 C1125 1.384 . S
H1128 C1134 0.930 . S
H1129 C1138 0.930 . S
H1130 C1143 0.929 . S
H1131 C1141 0.929 . S
H1132 C1136 0.929 . S
H1133 C1142 0.929 . S
C1134 H1128 0.930 . S
C1134 C1135 1.367 . S
C1134 C1142 1.378 . S
C1135 C1134 1.367 . S
C1135 C1143 1.433 . S
C1136 H1132 0.929 . S
C1136 C1138 1.378 . S
C1136 C1140 1.350 . S
C1137 C1140 1.463 . S
C1137 C1142 1.350 . S
C1137 N1145 1.427 . S
C1138 H1129 0.930 . S
C1138 C1136 1.378 . S
C1138 C1139 1.367 . S
C1139 C1138 1.367 . S
C1139 C1141 1.433 . S
C1140 C1136 1.350 . S
C1140 C1137 1.463 . S
C1140 N1144 1.427 . S
C1141 H1131 0.929 . S
C1141 C1139 1.433 . S
C1141 N1144 1.384 . S
C1142 H1133 0.929 . S
C1142 C1134 1.378 . S
C1142 C1137 1.350 . S
C1143 H1130 0.929 . S
C1143 C1135 1.433 . S
C1143 N1145 1.384 . S
N1144 C1140 1.427 . S
N1144 C1141 1.384 . S
N1145 C1137 1.427 . S
N1145 C1143 1.384 . S
H1146 C1152 0.930 . S
H1147 C1156 0.930 . S
H1148 C1161 0.929 . S
H1149 C1159 0.929 . S
H1150 C1154 0.929 . S
H1151 C1160 0.929 . S
C1152 H1146 0.930 . S
C1152 C1153 1.367 . S
C1152 C1160 1.378 . S
C1153 C1152 1.367 . S
C1153 C1161 1.433 . S
C1154 H1150 0.929 . S
C1154 C1156 1.378 . S
C1154 C1158 1.350 . S
C1155 C1158 1.463 . S
C1155 C1160 1.350 . S
C1155 N1163 1.427 . S
C1156 H1147 0.930 . S
C1156 C1154 1.378 . S
C1156 C1157 1.367 . S
C1157 C1156 1.367 . S
C1157 C1159 1.433 . S
C1158 C1154 1.350 . S
C1158 C1155 1.463 . S
C1158 N1162 1.427 . S
C1159 H1149 0.929 . S
C1159 C1157 1.433 . S
C1159 N1162 1.384 . S
C1160 H1151 0.929 . S
C1160 C1152 1.378 . S
C1160 C1155 1.350 . S
C1161 H1148 0.929 . S
C1161 C1153 1.433 . S
C1161 N1163 1.384 . S
N1162 C1158 1.427 . S
N1162 C1159 1.384 . S
N1163 C1155 1.427 . S
N1163 C1161 1.384 . S
H1164 C1170 0.930 . S
H1165 C1174 0.930 . S
H1166 C1179 0.929 . S
H1167 C1177 0.929 . S
H1168 C1172 0.929 . S
H1169 C1178 0.929 . S
C1170 H1164 0.930 . S
C1170 C1171 1.367 . S
C1170 C1178 1.378 . S
C1171 C1170 1.367 . S
C1171 C1179 1.433 . S
C1172 H1168 0.929 . S
C1172 C1174 1.378 . S
C1172 C1176 1.350 . S
C1173 C1176 1.463 . S
C1173 C1178 1.350 . S
C1173 N1181 1.427 . S
C1174 H1165 0.930 . S
C1174 C1172 1.378 . S
C1174 C1175 1.367 . S
C1175 C1174 1.367 . S
C1175 C1177 1.433 . S
C1176 C1172 1.350 . S
C1176 C1173 1.463 . S
C1176 N1180 1.427 . S
C1177 H1167 0.929 . S
C1177 C1175 1.433 . S
C1177 N1180 1.384 . S
C1178 H1169 0.929 . S
C1178 C1170 1.378 . S
C1178 C1173 1.350 . S
C1179 H1166 0.929 . S
C1179 C1171 1.433 . S
C1179 N1181 1.384 . S
N1180 C1176 1.427 . S
N1180 C1177 1.384 . S
N1181 C1173 1.427 . S
N1181 C1179 1.384 . S
H1182 C1188 0.930 . S
H1183 C1192 0.930 . S
H1184 C1197 0.929 . S
H1185 C1195 0.929 . S
H1186 C1190 0.929 . S
H1187 C1196 0.929 . S
C1188 H1182 0.930 . S
C1188 C1189 1.367 . S
C1188 C1196 1.378 . S
C1189 C1188 1.367 . S
C1189 C1197 1.433 . S
C1190 H1186 0.929 . S
C1190 C1192 1.378 . S
C1190 C1194 1.350 . S
C1191 C1194 1.463 . S
C1191 C1196 1.350 . S
C1191 N1199 1.427 . S
C1192 H1183 0.930 . S
C1192 C1190 1.378 . S
C1192 C1193 1.367 . S
C1193 C1192 1.367 . S
C1193 C1195 1.433 . S
C1194 C1190 1.350 . S
C1194 C1191 1.463 . S
C1194 N1198 1.427 . S
C1195 H1185 0.929 . S
C1195 C1193 1.433 . S
C1195 N1198 1.384 . S
C1196 H1187 0.929 . S
C1196 C1188 1.378 . S
C1196 C1191 1.350 . S
C1197 H1184 0.929 . S
C1197 C1189 1.433 . S
C1197 N1199 1.384 . S
N1198 C1194 1.427 . S
N1198 C1195 1.384 . S
N1199 C1191 1.427 . S
N1199 C1197 1.384 . S
H1200 C1206 0.930 . S
H1201 C1210 0.930 . S
H1202 C1215 0.929 . S
H1203 C1213 0.929 . S
H1204 C1208 0.929 . S
H1205 C1214 0.929 . S
C1206 H1200 0.930 . S
C1206 C1207 1.367 . S
C1206 C1214 1.378 . S
C1207 C1206 1.367 . S
C1207 C1215 1.433 . S
C1208 H1204 0.929 . S
C1208 C1210 1.378 . S
C1208 C1212 1.350 . S
C1209 C1212 1.463 . S
C1209 C1214 1.350 . S
C1209 N1217 1.427 . S
C1210 H1201 0.930 . S
C1210 C1208 1.378 . S
C1210 C1211 1.367 . S
C1211 C1210 1.367 . S
C1211 C1213 1.433 . S
C1212 C1208 1.350 . S
C1212 C1209 1.463 . S
C1212 N1216 1.427 . S
C1213 H1203 0.929 . S
C1213 C1211 1.433 . S
C1213 N1216 1.384 . S
C1214 H1205 0.929 . S
C1214 C1206 1.378 . S
C1214 C1209 1.350 . S
C1215 H1202 0.929 . S
C1215 C1207 1.433 . S
C1215 N1217 1.384 . S
N1216 C1212 1.427 . S
N1216 C1213 1.384 . S
N1217 C1209 1.427 . S
N1217 C1215 1.384 . S
H1218 C1224 0.930 . S
H1219 C1228 0.930 . S
H1220 C1233 0.929 . S
H1221 C1231 0.929 . S
H1222 C1226 0.929 . S
H1223 C1232 0.929 . S
C1224 H1218 0.930 . S
C1224 C1225 1.367 . S
C1224 C1232 1.378 . S
C1225 C1224 1.367 . S
C1225 C1233 1.433 . S
C1226 H1222 0.929 . S
C1226 C1228 1.378 . S
C1226 C1230 1.350 . S
C1227 C1230 1.463 . S
C1227 C1232 1.350 . S
C1227 N1235 1.427 . S
C1228 H1219 0.930 . S
C1228 C1226 1.378 . S
C1228 C1229 1.367 . S
C1229 C1228 1.367 . S
C1229 C1231 1.433 . S
C1230 C1226 1.350 . S
C1230 C1227 1.463 . S
C1230 N1234 1.427 . S
C1231 H1221 0.929 . S
C1231 C1229 1.433 . S
C1231 N1234 1.384 . S
C1232 H1223 0.929 . S
C1232 C1224 1.378 . S
C1232 C1227 1.350 . S
C1233 H1220 0.929 . S
C1233 C1225 1.433 . S
C1233 N1235 1.384 . S
N1234 C1230 1.427 . S
N1234 C1231 1.384 . S
N1235 C1227 1.427 . S
N1235 C1233 1.384 . S
H1236 C1242 0.930 . S
H1237 C1246 0.930 . S
H1238 C1251 0.929 . S
H1239 C1249 0.929 . S
H1240 C1244 0.929 . S
H1241 C1250 0.929 . S
C1242 H1236 0.930 . S
C1242 C1243 1.367 . S
C1242 C1250 1.378 . S
C1243 C1242 1.367 . S
C1243 C1251 1.433 . S
C1244 H1240 0.929 . S
C1244 C1246 1.378 . S
C1244 C1248 1.350 . S
C1245 C1248 1.463 . S
C1245 C1250 1.350 . S
C1245 N1253 1.427 . S
C1246 H1237 0.930 . S
C1246 C1244 1.378 . S
C1246 C1247 1.367 . S
C1247 C1246 1.367 . S
C1247 C1249 1.433 . S
C1248 C1244 1.350 . S
C1248 C1245 1.463 . S
C1248 N1252 1.427 . S
C1249 H1239 0.929 . S
C1249 C1247 1.433 . S
C1249 N1252 1.384 . S
C1250 H1241 0.929 . S
C1250 C1242 1.378 . S
C1250 C1245 1.350 . S
C1251 H1238 0.929 . S
C1251 C1243 1.433 . S
C1251 N1253 1.384 . S
N1252 C1248 1.427 . S
N1252 C1249 1.384 . S
N1253 C1245 1.427 . S
N1253 C1251 1.384 . S
H1254 C1260 0.930 . S
H1255 C1264 0.930 . S
H1256 C1269 0.929 . S
H1257 C1267 0.929 . S
H1258 C1262 0.929 . S
H1259 C1268 0.929 . S
C1260 H1254 0.930 . S
C1260 C1261 1.367 . S
C1260 C1268 1.378 . S
C1261 C1260 1.367 . S
C1261 C1269 1.433 . S
C1262 H1258 0.929 . S
C1262 C1264 1.378 . S
C1262 C1266 1.350 . S
C1263 C1266 1.463 . S
C1263 C1268 1.350 . S
C1263 N1271 1.427 . S
C1264 H1255 0.930 . S
C1264 C1262 1.378 . S
C1264 C1265 1.367 . S
C1265 C1264 1.367 . S
C1265 C1267 1.433 . S
C1266 C1262 1.350 . S
C1266 C1263 1.463 . S
C1266 N1270 1.427 . S
C1267 H1257 0.929 . S
C1267 C1265 1.433 . S
C1267 N1270 1.384 . S
C1268 H1259 0.929 . S
C1268 C1260 1.378 . S
C1268 C1263 1.350 . S
C1269 H1256 0.929 . S
C1269 C1261 1.433 . S
C1269 N1271 1.384 . S
N1270 C1266 1.427 . S
N1270 C1267 1.384 . S
N1271 C1263 1.427 . S
N1271 C1269 1.384 . S
H1272 C1278 0.930 . S
H1273 C1282 0.930 . S
H1274 C1287 0.929 . S
H1275 C1285 0.929 . S
H1276 C1280 0.929 . S
H1277 C1286 0.929 . S
C1278 H1272 0.930 . S
C1278 C1279 1.367 . S
C1278 C1286 1.378 . S
C1279 C1278 1.367 . S
C1279 C1287 1.433 . S
C1280 H1276 0.929 . S
C1280 C1282 1.378 . S
C1280 C1284 1.350 . S
C1281 C1284 1.463 . S
C1281 C1286 1.350 . S
C1281 N1289 1.427 . S
C1282 H1273 0.930 . S
C1282 C1280 1.378 . S
C1282 C1283 1.367 . S
C1283 C1282 1.367 . S
C1283 C1285 1.433 . S
C1284 C1280 1.350 . S
C1284 C1281 1.463 . S
C1284 N1288 1.427 . S
C1285 H1275 0.929 . S
C1285 C1283 1.433 . S
C1285 N1288 1.384 . S
C1286 H1277 0.929 . S
C1286 C1278 1.378 . S
C1286 C1281 1.350 . S
C1287 H1274 0.929 . S
C1287 C1279 1.433 . S
C1287 N1289 1.384 . S
N1288 C1284 1.427 . S
N1288 C1285 1.384 . S
N1289 C1281 1.427 . S
N1289 C1287 1.384 . S
H1290 C1296 0.930 . S
H1291 C1300 0.930 . S
H1292 C1305 0.929 . S
H1293 C1303 0.929 . S
H1294 C1298 0.929 . S
H1295 C1304 0.929 . S
C1296 H1290 0.930 . S
C1296 C1297 1.367 . S
C1296 C1304 1.378 . S
C1297 C1296 1.367 . S
C1297 C1305 1.433 . S
C1298 H1294 0.929 . S
C1298 C1300 1.378 . S
C1298 C1302 1.350 . S
C1299 C1302 1.463 . S
C1299 C1304 1.350 . S
C1299 N1307 1.427 . S
C1300 H1291 0.930 . S
C1300 C1298 1.378 . S
C1300 C1301 1.367 . S
C1301 C1300 1.367 . S
C1301 C1303 1.433 . S
C1302 C1298 1.350 . S
C1302 C1299 1.463 . S
C1302 N1306 1.427 . S
C1303 H1293 0.929 . S
C1303 C1301 1.433 . S
C1303 N1306 1.384 . S
C1304 H1295 0.929 . S
C1304 C1296 1.378 . S
C1304 C1299 1.350 . S
C1305 H1292 0.929 . S
C1305 C1297 1.433 . S
C1305 N1307 1.384 . S
N1306 C1302 1.427 . S
N1306 C1303 1.384 . S
N1307 C1299 1.427 . S
N1307 C1305 1.384 . S
H1308 C1314 0.930 . S
H1309 C1318 0.930 . S
H1310 C1323 0.929 . S
H1311 C1321 0.929 . S
H1312 C1316 0.929 . S
H1313 C1322 0.929 . S
C1314 H1308 0.930 . S
C1314 C1315 1.367 . S
C1314 C1322 1.378 . S
C1315 C1314 1.367 . S
C1315 C1323 1.433 . S
C1316 H1312 0.929 . S
C1316 C1318 1.378 . S
C1316 C1320 1.350 . S
C1317 C1320 1.463 . S
C1317 C1322 1.350 . S
C1317 N1325 1.427 . S
C1318 H1309 0.930 . S
C1318 C1316 1.378 . S
C1318 C1319 1.367 . S
C1319 C1318 1.367 . S
C1319 C1321 1.433 . S
C1320 C1316 1.350 . S
C1320 C1317 1.463 . S
C1320 N1324 1.427 . S
C1321 H1311 0.929 . S
C1321 C1319 1.433 . S
C1321 N1324 1.384 . S
C1322 H1313 0.929 . S
C1322 C1314 1.378 . S
C1322 C1317 1.350 . S
C1323 H1310 0.929 . S
C1323 C1315 1.433 . S
C1323 N1325 1.384 . S
N1324 C1320 1.427 . S
N1324 C1321 1.384 . S
N1325 C1317 1.427 . S
N1325 C1323 1.384 . S
H1326 C1332 0.930 . S
H1327 C1336 0.930 . S
H1328 C1341 0.929 . S
H1329 C1339 0.929 . S
H1330 C1334 0.929 . S
H1331 C1340 0.929 . S
C1332 H1326 0.930 . S
C1332 C1333 1.367 . S
C1332 C1340 1.378 . S
C1333 C1332 1.367 . S
C1333 C1341 1.433 . S
C1334 H1330 0.929 . S
C1334 C1336 1.378 . S
C1334 C1338 1.350 . S
C1335 C1338 1.463 . S
C1335 C1340 1.350 . S
C1335 N1343 1.427 . S
C1336 H1327 0.930 . S
C1336 C1334 1.378 . S
C1336 C1337 1.367 . S
C1337 C1336 1.367 . S
C1337 C1339 1.433 . S
C1338 C1334 1.350 . S
C1338 C1335 1.463 . S
C1338 N1342 1.427 . S
C1339 H1329 0.929 . S
C1339 C1337 1.433 . S
C1339 N1342 1.384 . S
C1340 H1331 0.929 . S
C1340 C1332 1.378 . S
C1340 C1335 1.350 . S
C1341 H1328 0.929 . S
C1341 C1333 1.433 . S
C1341 N1343 1.384 . S
N1342 C1338 1.427 . S
N1342 C1339 1.384 . S
N1343 C1335 1.427 . S
N1343 C1341 1.384 . S
H1344 C1350 0.930 . S
H1345 C1354 0.930 . S
H1346 C1359 0.929 . S
H1347 C1357 0.929 . S
H1348 C1352 0.929 . S
H1349 C1358 0.929 . S
C1350 H1344 0.930 . S
C1350 C1351 1.367 . S
C1350 C1358 1.378 . S
C1351 C1350 1.367 . S
C1351 C1359 1.433 . S
C1352 H1348 0.929 . S
C1352 C1354 1.378 . S
C1352 C1356 1.350 . S
C1353 C1356 1.463 . S
C1353 C1358 1.350 . S
C1353 N1361 1.427 . S
C1354 H1345 0.930 . S
C1354 C1352 1.378 . S
C1354 C1355 1.367 . S
C1355 C1354 1.367 . S
C1355 C1357 1.433 . S
C1356 C1352 1.350 . S
C1356 C1353 1.463 . S
C1356 N1360 1.427 . S
C1357 H1347 0.929 . S
C1357 C1355 1.433 . S
C1357 N1360 1.384 . S
C1358 H1349 0.929 . S
C1358 C1350 1.378 . S
C1358 C1353 1.350 . S
C1359 H1346 0.929 . S
C1359 C1351 1.433 . S
C1359 N1361 1.384 . S
N1360 C1356 1.427 . S
N1360 C1357 1.384 . S
N1361 C1353 1.427 . S
N1361 C1359 1.384 . S
H1362 C1368 0.930 . S
H1363 C1372 0.930 . S
H1364 C1377 0.929 . S
H1365 C1375 0.929 . S
H1366 C1370 0.929 . S
H1367 C1376 0.929 . S
C1368 H1362 0.930 . S
C1368 C1369 1.367 . S
C1368 C1376 1.378 . S
C1369 C1368 1.367 . S
C1369 C1377 1.433 . S
C1370 H1366 0.929 . S
C1370 C1372 1.378 . S
C1370 C1374 1.350 . S
C1371 C1374 1.463 . S
C1371 C1376 1.350 . S
C1371 N1379 1.427 . S
C1372 H1363 0.930 . S
C1372 C1370 1.378 . S
C1372 C1373 1.367 . S
C1373 C1372 1.367 . S
C1373 C1375 1.433 . S
C1374 C1370 1.350 . S
C1374 C1371 1.463 . S
C1374 N1378 1.427 . S
C1375 H1365 0.929 . S
C1375 C1373 1.433 . S
C1375 N1378 1.384 . S
C1376 H1367 0.929 . S
C1376 C1368 1.378 . S
C1376 C1371 1.350 . S
C1377 H1364 0.929 . S
C1377 C1369 1.433 . S
C1377 N1379 1.384 . S
N1378 C1374 1.427 . S
N1378 C1375 1.384 . S
N1379 C1371 1.427 . S
N1379 C1377 1.384 . S
H1380 C1386 0.930 . S
H1381 C1390 0.930 . S
H1382 C1395 0.929 . S
H1383 C1393 0.929 . S
H1384 C1388 0.929 . S
H1385 C1394 0.929 . S
C1386 H1380 0.930 . S
C1386 C1387 1.367 . S
C1386 C1394 1.378 . S
C1387 C1386 1.367 . S
C1387 C1395 1.433 . S
C1388 H1384 0.929 . S
C1388 C1390 1.378 . S
C1388 C1392 1.350 . S
C1389 C1392 1.463 . S
C1389 C1394 1.350 . S
C1389 N1397 1.427 . S
C1390 H1381 0.930 . S
C1390 C1388 1.378 . S
C1390 C1391 1.367 . S
C1391 C1390 1.367 . S
C1391 C1393 1.433 . S
C1392 C1388 1.350 . S
C1392 C1389 1.463 . S
C1392 N1396 1.427 . S
C1393 H1383 0.929 . S
C1393 C1391 1.433 . S
C1393 N1396 1.384 . S
C1394 H1385 0.929 . S
C1394 C1386 1.378 . S
C1394 C1389 1.350 . S
C1395 H1382 0.929 . S
C1395 C1387 1.433 . S
C1395 N1397 1.384 . S
N1396 C1392 1.427 . S
N1396 C1393 1.384 . S
N1397 C1389 1.427 . S
N1397 C1395 1.384 . S
H1398 C1404 0.930 . S
H1399 C1408 0.930 . S
H1400 C1413 0.929 . S
H1401 C1411 0.929 . S
H1402 C1406 0.929 . S
H1403 C1412 0.929 . S
C1404 H1398 0.930 . S
C1404 C1405 1.367 . S
C1404 C1412 1.378 . S
C1405 C1404 1.367 . S
C1405 C1413 1.433 . S
C1406 H1402 0.929 . S
C1406 C1408 1.378 . S
C1406 C1410 1.350 . S
C1407 C1410 1.463 . S
C1407 C1412 1.350 . S
C1407 N1415 1.427 . S
C1408 H1399 0.930 . S
C1408 C1406 1.378 . S
C1408 C1409 1.367 . S
C1409 C1408 1.367 . S
C1409 C1411 1.433 . S
C1410 C1406 1.350 . S
C1410 C1407 1.463 . S
C1410 N1414 1.427 . S
C1411 H1401 0.929 . S
C1411 C1409 1.433 . S
C1411 N1414 1.384 . S
C1412 H1403 0.929 . S
C1412 C1404 1.378 . S
C1412 C1407 1.350 . S
C1413 H1400 0.929 . S
C1413 C1405 1.433 . S
C1413 N1415 1.384 . S
N1414 C1410 1.427 . S
N1414 C1411 1.384 . S
N1415 C1407 1.427 . S
N1415 C1413 1.384 . S
H1416 C1422 0.930 . S
H1417 C1426 0.930 . S
H1418 C1431 0.929 . S
H1419 C1429 0.929 . S
H1420 C1424 0.929 . S
H1421 C1430 0.929 . S
C1422 H1416 0.930 . S
C1422 C1423 1.367 . S
C1422 C1430 1.378 . S
C1423 C1422 1.367 . S
C1423 C1431 1.433 . S
C1424 H1420 0.929 . S
C1424 C1426 1.378 . S
C1424 C1428 1.350 . S
C1425 C1428 1.463 . S
C1425 C1430 1.350 . S
C1425 N1433 1.427 . S
C1426 H1417 0.930 . S
C1426 C1424 1.378 . S
C1426 C1427 1.367 . S
C1427 C1426 1.367 . S
C1427 C1429 1.433 . S
C1428 C1424 1.350 . S
C1428 C1425 1.463 . S
C1428 N1432 1.427 . S
C1429 H1419 0.929 . S
C1429 C1427 1.433 . S
C1429 N1432 1.384 . S
C1430 H1421 0.929 . S
C1430 C1422 1.378 . S
C1430 C1425 1.350 . S
C1431 H1418 0.929 . S
C1431 C1423 1.433 . S
C1431 N1433 1.384 . S
N1432 C1428 1.427 . S
N1432 C1429 1.384 . S
N1433 C1425 1.427 . S
N1433 C1431 1.384 . S
H1434 C1440 0.930 . S
H1435 C1444 0.930 . S
H1436 C1449 0.929 . S
H1437 C1447 0.929 . S
H1438 C1442 0.929 . S
H1439 C1448 0.929 . S
C1440 H1434 0.930 . S
C1440 C1441 1.367 . S
C1440 C1448 1.378 . S
C1441 C1440 1.367 . S
C1441 C1449 1.433 . S
C1442 H1438 0.929 . S
C1442 C1444 1.378 . S
C1442 C1446 1.350 . S
C1443 C1446 1.463 . S
C1443 C1448 1.350 . S
C1443 N1451 1.427 . S
C1444 H1435 0.930 . S
C1444 C1442 1.378 . S
C1444 C1445 1.367 . S
C1445 C1444 1.367 . S
C1445 C1447 1.433 . S
C1446 C1442 1.350 . S
C1446 C1443 1.463 . S
C1446 N1450 1.427 . S
C1447 H1437 0.929 . S
C1447 C1445 1.433 . S
C1447 N1450 1.384 . S
C1448 H1439 0.929 . S
C1448 C1440 1.378 . S
C1448 C1443 1.350 . S
C1449 H1436 0.929 . S
C1449 C1441 1.433 . S
C1449 N1451 1.384 . S
N1450 C1446 1.427 . S
N1450 C1447 1.384 . S
N1451 C1443 1.427 . S
N1451 C1449 1.384 . S
H1452 C1458 0.930 . S
H1453 C1462 0.930 . S
H1454 C1467 0.929 . S
H1455 C1465 0.929 . S
H1456 C1460 0.929 . S
H1457 C1466 0.929 . S
C1458 H1452 0.930 . S
C1458 C1459 1.367 . S
C1458 C1466 1.378 . S
C1459 C1458 1.367 . S
C1459 C1467 1.433 . S
C1460 H1456 0.929 . S
C1460 C1462 1.378 . S
C1460 C1464 1.350 . S
C1461 C1464 1.463 . S
C1461 C1466 1.350 . S
C1461 N1469 1.427 . S
C1462 H1453 0.930 . S
C1462 C1460 1.378 . S
C1462 C1463 1.367 . S
C1463 C1462 1.367 . S
C1463 C1465 1.433 . S
C1464 C1460 1.350 . S
C1464 C1461 1.463 . S
C1464 N1468 1.427 . S
C1465 H1455 0.929 . S
C1465 C1463 1.433 . S
C1465 N1468 1.384 . S
C1466 H1457 0.929 . S
C1466 C1458 1.378 . S
C1466 C1461 1.350 . S
C1467 H1454 0.929 . S
C1467 C1459 1.433 . S
C1467 N1469 1.384 . S
N1468 C1464 1.427 . S
N1468 C1465 1.384 . S
N1469 C1461 1.427 . S
N1469 C1467 1.384 . S
H1470 C1476 0.930 . S
H1471 C1480 0.930 . S
H1472 C1485 0.929 . S
H1473 C1483 0.929 . S
H1474 C1478 0.929 . S
H1475 C1484 0.929 . S
C1476 H1470 0.930 . S
C1476 C1477 1.367 . S
C1476 C1484 1.378 . S
C1477 C1476 1.367 . S
C1477 C1485 1.433 . S
C1478 H1474 0.929 . S
C1478 C1480 1.378 . S
C1478 C1482 1.350 . S
C1479 C1482 1.463 . S
C1479 C1484 1.350 . S
C1479 N1487 1.427 . S
C1480 H1471 0.930 . S
C1480 C1478 1.378 . S
C1480 C1481 1.367 . S
C1481 C1480 1.367 . S
C1481 C1483 1.433 . S
C1482 C1478 1.350 . S
C1482 C1479 1.463 . S
C1482 N1486 1.427 . S
C1483 H1473 0.929 . S
C1483 C1481 1.433 . S
C1483 N1486 1.384 . S
C1484 H1475 0.929 . S
C1484 C1476 1.378 . S
C1484 C1479 1.350 . S
C1485 H1472 0.929 . S
C1485 C1477 1.433 . S
C1485 N1487 1.384 . S
N1486 C1482 1.427 . S
N1486 C1483 1.384 . S
N1487 C1479 1.427 . S
N1487 C1485 1.384 . S
H1488 C1494 0.930 . S
H1489 C1498 0.930 . S
H1490 C1503 0.929 . S
H1491 C1501 0.929 . S
H1492 C1496 0.929 . S
H1493 C1502 0.929 . S
C1494 H1488 0.930 . S
C1494 C1495 1.367 . S
C1494 C1502 1.378 . S
C1495 C1494 1.367 . S
C1495 C1503 1.433 . S
C1496 H1492 0.929 . S
C1496 C1498 1.378 . S
C1496 C1500 1.350 . S
C1497 C1500 1.463 . S
C1497 C1502 1.350 . S
C1497 N1505 1.427 . S
C1498 H1489 0.930 . S
C1498 C1496 1.378 . S
C1498 C1499 1.367 . S
C1499 C1498 1.367 . S
C1499 C1501 1.433 . S
C1500 C1496 1.350 . S
C1500 C1497 1.463 . S
C1500 N1504 1.427 . S
C1501 H1491 0.929 . S
C1501 C1499 1.433 . S
C1501 N1504 1.384 . S
C1502 H1493 0.929 . S
C1502 C1494 1.378 . S
C1502 C1497 1.350 . S
C1503 H1490 0.929 . S
C1503 C1495 1.433 . S
C1503 N1505 1.384 . S
N1504 C1500 1.427 . S
N1504 C1501 1.384 . S
N1505 C1497 1.427 . S
N1505 C1503 1.384 . S
H1506 C1512 0.930 . S
H1507 C1516 0.930 . S
H1508 C1521 0.929 . S
H1509 C1519 0.929 . S
H1510 C1514 0.929 . S
H1511 C1520 0.929 . S
C1512 H1506 0.930 . S
C1512 C1513 1.367 . S
C1512 C1520 1.378 . S
C1513 C1512 1.367 . S
C1513 C1521 1.433 . S
C1514 H1510 0.929 . S
C1514 C1516 1.378 . S
C1514 C1518 1.350 . S
C1515 C1518 1.463 . S
C1515 C1520 1.350 . S
C1515 N1523 1.427 . S
C1516 H1507 0.930 . S
C1516 C1514 1.378 . S
C1516 C1517 1.367 . S
C1517 C1516 1.367 . S
C1517 C1519 1.433 . S
C1518 C1514 1.350 . S
C1518 C1515 1.463 . S
C1518 N1522 1.427 . S
C1519 H1509 0.929 . S
C1519 C1517 1.433 . S
C1519 N1522 1.384 . S
C1520 H1511 0.929 . S
C1520 C1512 1.378 . S
C1520 C1515 1.350 . S
C1521 H1508 0.929 . S
C1521 C1513 1.433 . S
C1521 N1523 1.384 . S
N1522 C1518 1.427 . S
N1522 C1519 1.384 . S
N1523 C1515 1.427 . S
N1523 C1521 1.384 . S
H1524 C1530 0.930 . S
H1525 C1534 0.930 . S
H1526 C1539 0.929 . S
H1527 C1537 0.929 . S
H1528 C1532 0.929 . S
H1529 C1538 0.929 . S
C1530 H1524 0.930 . S
C1530 C1531 1.367 . S
C1530 C1538 1.378 . S
C1531 C1530 1.367 . S
C1531 C1539 1.433 . S
C1532 H1528 0.929 . S
C1532 C1534 1.378 . S
C1532 C1536 1.350 . S
C1533 C1536 1.463 . S
C1533 C1538 1.350 . S
C1533 N1541 1.427 . S
C1534 H1525 0.930 . S
C1534 C1532 1.378 . S
C1534 C1535 1.367 . S
C1535 C1534 1.367 . S
C1535 C1537 1.433 . S
C1536 C1532 1.350 . S
C1536 C1533 1.463 . S
C1536 N1540 1.427 . S
C1537 H1527 0.929 . S
C1537 C1535 1.433 . S
C1537 N1540 1.384 . S
C1538 H1529 0.929 . S
C1538 C1530 1.378 . S
C1538 C1533 1.350 . S
C1539 H1526 0.929 . S
C1539 C1531 1.433 . S
C1539 N1541 1.384 . S
N1540 C1536 1.427 . S
N1540 C1537 1.384 . S
N1541 C1533 1.427 . S
N1541 C1539 1.384 . S
H1542 C1548 0.930 . S
H1543 C1552 0.930 . S
H1544 C1557 0.929 . S
H1545 C1555 0.929 . S
H1546 C1550 0.929 . S
H1547 C1556 0.929 . S
C1548 H1542 0.930 . S
C1548 C1549 1.367 . S
C1548 C1556 1.378 . S
C1549 C1548 1.367 . S
C1549 C1557 1.433 . S
C1550 H1546 0.929 . S
C1550 C1552 1.378 . S
C1550 C1554 1.350 . S
C1551 C1554 1.463 . S
C1551 C1556 1.350 . S
C1551 N1559 1.427 . S
C1552 H1543 0.930 . S
C1552 C1550 1.378 . S
C1552 C1553 1.367 . S
C1553 C1552 1.367 . S
C1553 C1555 1.433 . S
C1554 C1550 1.350 . S
C1554 C1551 1.463 . S
C1554 N1558 1.427 . S
C1555 H1545 0.929 . S
C1555 C1553 1.433 . S
C1555 N1558 1.384 . S
C1556 H1547 0.929 . S
C1556 C1548 1.378 . S
C1556 C1551 1.350 . S
C1557 H1544 0.929 . S
C1557 C1549 1.433 . S
C1557 N1559 1.384 . S
N1558 C1554 1.427 . S
N1558 C1555 1.384 . S
N1559 C1551 1.427 . S
N1559 C1557 1.384 . S
H1560 C1566 0.930 . S
H1561 C1570 0.930 . S
H1562 C1575 0.929 . S
H1563 C1573 0.929 . S
H1564 C1568 0.929 . S
H1565 C1574 0.929 . S
C1566 H1560 0.930 . S
C1566 C1567 1.367 . S
C1566 C1574 1.378 . S
C1567 C1566 1.367 . S
C1567 C1575 1.433 . S
C1568 H1564 0.929 . S
C1568 C1570 1.378 . S
C1568 C1572 1.350 . S
C1569 C1572 1.463 . S
C1569 C1574 1.350 . S
C1569 N1577 1.427 . S
C1570 H1561 0.930 . S
C1570 C1568 1.378 . S
C1570 C1571 1.367 . S
C1571 C1570 1.367 . S
C1571 C1573 1.433 . S
C1572 C1568 1.350 . S
C1572 C1569 1.463 . S
C1572 N1576 1.427 . S
C1573 H1563 0.929 . S
C1573 C1571 1.433 . S
C1573 N1576 1.384 . S
C1574 H1565 0.929 . S
C1574 C1566 1.378 . S
C1574 C1569 1.350 . S
C1575 H1562 0.929 . S
C1575 C1567 1.433 . S
C1575 N1577 1.384 . S
N1576 C1572 1.427 . S
N1576 C1573 1.384 . S
N1577 C1569 1.427 . S
N1577 C1575 1.384 . S
H1578 C1584 0.930 . S
H1579 C1588 0.930 . S
H1580 C1593 0.929 . S
H1581 C1591 0.929 . S
H1582 C1586 0.929 . S
H1583 C1592 0.929 . S
C1584 H1578 0.930 . S
C1584 C1585 1.367 . S
C1584 C1592 1.378 . S
C1585 C1584 1.367 . S
C1585 C1593 1.433 . S
C1586 H1582 0.929 . S
C1586 C1588 1.378 . S
C1586 C1590 1.350 . S
C1587 C1590 1.463 . S
C1587 C1592 1.350 . S
C1587 N1595 1.427 . S
C1588 H1579 0.930 . S
C1588 C1586 1.378 . S
C1588 C1589 1.367 . S
C1589 C1588 1.367 . S
C1589 C1591 1.433 . S
C1590 C1586 1.350 . S
C1590 C1587 1.463 . S
C1590 N1594 1.427 . S
C1591 H1581 0.929 . S
C1591 C1589 1.433 . S
C1591 N1594 1.384 . S
C1592 H1583 0.929 . S
C1592 C1584 1.378 . S
C1592 C1587 1.350 . S
C1593 H1580 0.929 . S
C1593 C1585 1.433 . S
C1593 N1595 1.384 . S
N1594 C1590 1.427 . S
N1594 C1591 1.384 . S
N1595 C1587 1.427 . S
N1595 C1593 1.384 . S
H1596 C1602 0.930 . S
H1597 C1606 0.930 . S
H1598 C1611 0.929 . S
H1599 C1609 0.929 . S
H1600 C1604 0.929 . S
H1601 C1610 0.929 . S
C1602 H1596 0.930 . S
C1602 C1603 1.367 . S
C1602 C1610 1.378 . S
C1603 C1602 1.367 . S
C1603 C1611 1.433 . S
C1604 H1600 0.929 . S
C1604 C1606 1.378 . S
C1604 C1608 1.350 . S
C1605 C1608 1.463 . S
C1605 C1610 1.350 . S
C1605 N1613 1.427 . S
C1606 H1597 0.930 . S
C1606 C1604 1.378 . S
C1606 C1607 1.367 . S
C1607 C1606 1.367 . S
C1607 C1609 1.433 . S
C1608 C1604 1.350 . S
C1608 C1605 1.463 . S
C1608 N1612 1.427 . S
C1609 H1599 0.929 . S
C1609 C1607 1.433 . S
C1609 N1612 1.384 . S
C1610 H1601 0.929 . S
C1610 C1602 1.378 . S
C1610 C1605 1.350 . S
C1611 H1598 0.929 . S
C1611 C1603 1.433 . S
C1611 N1613 1.384 . S
N1612 C1608 1.427 . S
N1612 C1609 1.384 . S
N1613 C1605 1.427 . S
N1613 C1611 1.384 . S
H1614 C1620 0.930 . S
H1615 C1624 0.930 . S
H1616 C1629 0.929 . S
H1617 C1627 0.929 . S
H1618 C1622 0.929 . S
H1619 C1628 0.929 . S
C1620 H1614 0.930 . S
C1620 C1621 1.367 . S
C1620 C1628 1.378 . S
C1621 C1620 1.367 . S
C1621 C1629 1.433 . S
C1622 H1618 0.929 . S
C1622 C1624 1.378 . S
C1622 C1626 1.350 . S
C1623 C1626 1.463 . S
C1623 C1628 1.350 . S
C1623 N1631 1.427 . S
C1624 H1615 0.930 . S
C1624 C1622 1.378 . S
C1624 C1625 1.367 . S
C1625 C1624 1.367 . S
C1625 C1627 1.433 . S
C1626 C1622 1.350 . S
C1626 C1623 1.463 . S
C1626 N1630 1.427 . S
C1627 H1617 0.929 . S
C1627 C1625 1.433 . S
C1627 N1630 1.384 . S
C1628 H1619 0.929 . S
C1628 C1620 1.378 . S
C1628 C1623 1.350 . S
C1629 H1616 0.929 . S
C1629 C1621 1.433 . S
C1629 N1631 1.384 . S
N1630 C1626 1.427 . S
N1630 C1627 1.384 . S
N1631 C1623 1.427 . S
N1631 C1629 1.384 . S
H1632 C1638 0.930 . S
H1633 C1642 0.930 . S
H1634 C1647 0.929 . S
H1635 C1645 0.929 . S
H1636 C1640 0.929 . S
H1637 C1646 0.929 . S
C1638 H1632 0.930 . S
C1638 C1639 1.367 . S
C1638 C1646 1.378 . S
C1639 C1638 1.367 . S
C1639 C1647 1.433 . S
C1640 H1636 0.929 . S
C1640 C1642 1.378 . S
C1640 C1644 1.350 . S
C1641 C1644 1.463 . S
C1641 C1646 1.350 . S
C1641 N1649 1.427 . S
C1642 H1633 0.930 . S
C1642 C1640 1.378 . S
C1642 C1643 1.367 . S
C1643 C1642 1.367 . S
C1643 C1645 1.433 . S
C1644 C1640 1.350 . S
C1644 C1641 1.463 . S
C1644 N1648 1.427 . S
C1645 H1635 0.929 . S
C1645 C1643 1.433 . S
C1645 N1648 1.384 . S
C1646 H1637 0.929 . S
C1646 C1638 1.378 . S
C1646 C1641 1.350 . S
C1647 H1634 0.929 . S
C1647 C1639 1.433 . S
C1647 N1649 1.384 . S
N1648 C1644 1.427 . S
N1648 C1645 1.384 . S
N1649 C1641 1.427 . S
N1649 C1647 1.384 . S
H1650 C1656 0.930 . S
H1651 C1660 0.930 . S
H1652 C1665 0.929 . S
H1653 C1663 0.929 . S
H1654 C1658 0.929 . S
H1655 C1664 0.929 . S
C1656 H1650 0.930 . S
C1656 C1657 1.367 . S
C1656 C1664 1.378 . S
C1657 C1656 1.367 . S
C1657 C1665 1.433 . S
C1658 H1654 0.929 . S
C1658 C1660 1.378 . S
C1658 C1662 1.350 . S
C1659 C1662 1.463 . S
C1659 C1664 1.350 . S
C1659 N1667 1.427 . S
C1660 H1651 0.930 . S
C1660 C1658 1.378 . S
C1660 C1661 1.367 . S
C1661 C1660 1.367 . S
C1661 C1663 1.433 . S
C1662 C1658 1.350 . S
C1662 C1659 1.463 . S
C1662 N1666 1.427 . S
C1663 H1653 0.929 . S
C1663 C1661 1.433 . S
C1663 N1666 1.384 . S
C1664 H1655 0.929 . S
C1664 C1656 1.378 . S
C1664 C1659 1.350 . S
C1665 H1652 0.929 . S
C1665 C1657 1.433 . S
C1665 N1667 1.384 . S
N1666 C1662 1.427 . S
N1666 C1663 1.384 . S
N1667 C1659 1.427 . S
N1667 C1665 1.384 . S
H1668 C1674 0.930 . S
H1669 C1678 0.930 . S
H1670 C1683 0.929 . S
H1671 C1681 0.929 . S
H1672 C1676 0.929 . S
H1673 C1682 0.929 . S
C1674 H1668 0.930 . S
C1674 C1675 1.367 . S
C1674 C1682 1.378 . S
C1675 C1674 1.367 . S
C1675 C1683 1.433 . S
C1676 H1672 0.929 . S
C1676 C1678 1.378 . S
C1676 C1680 1.350 . S
C1677 C1680 1.463 . S
C1677 C1682 1.350 . S
C1677 N1685 1.427 . S
C1678 H1669 0.930 . S
C1678 C1676 1.378 . S
C1678 C1679 1.367 . S
C1679 C1678 1.367 . S
C1679 C1681 1.433 . S
C1680 C1676 1.350 . S
C1680 C1677 1.463 . S
C1680 N1684 1.427 . S
C1681 H1671 0.929 . S
C1681 C1679 1.433 . S
C1681 N1684 1.384 . S
C1682 H1673 0.929 . S
C1682 C1674 1.378 . S
C1682 C1677 1.350 . S
C1683 H1670 0.929 . S
C1683 C1675 1.433 . S
C1683 N1685 1.384 . S
N1684 C1680 1.427 . S
N1684 C1681 1.384 . S
N1685 C1677 1.427 . S
N1685 C1683 1.384 . S
H1686 C1692 0.930 . S
H1687 C1696 0.930 . S
H1688 C1701 0.929 . S
H1689 C1699 0.929 . S
H1690 C1694 0.929 . S
H1691 C1700 0.929 . S
C1692 H1686 0.930 . S
C1692 C1693 1.367 . S
C1692 C1700 1.378 . S
C1693 C1692 1.367 . S
C1693 C1701 1.433 . S
C1694 H1690 0.929 . S
C1694 C1696 1.378 . S
C1694 C1698 1.350 . S
C1695 C1698 1.463 . S
C1695 C1700 1.350 . S
C1695 N1703 1.427 . S
C1696 H1687 0.930 . S
C1696 C1694 1.378 . S
C1696 C1697 1.367 . S
C1697 C1696 1.367 . S
C1697 C1699 1.433 . S
C1698 C1694 1.350 . S
C1698 C1695 1.463 . S
C1698 N1702 1.427 . S
C1699 H1689 0.929 . S
C1699 C1697 1.433 . S
C1699 N1702 1.384 . S
C1700 H1691 0.929 . S
C1700 C1692 1.378 . S
C1700 C1695 1.350 . S
C1701 H1688 0.929 . S
C1701 C1693 1.433 . S
C1701 N1703 1.384 . S
N1702 C1698 1.427 . S
N1702 C1699 1.384 . S
N1703 C1695 1.427 . S
N1703 C1701 1.384 . S
H1704 C1710 0.930 . S
H1705 C1714 0.930 . S
H1706 C1719 0.929 . S
H1707 C1717 0.929 . S
H1708 C1712 0.929 . S
H1709 C1718 0.929 . S
C1710 H1704 0.930 . S
C1710 C1711 1.367 . S
C1710 C1718 1.378 . S
C1711 C1710 1.367 . S
C1711 C1719 1.433 . S
C1712 H1708 0.929 . S
C1712 C1714 1.378 . S
C1712 C1716 1.350 . S
C1713 C1716 1.463 . S
C1713 C1718 1.350 . S
C1713 N1721 1.427 . S
C1714 H1705 0.930 . S
C1714 C1712 1.378 . S
C1714 C1715 1.367 . S
C1715 C1714 1.367 . S
C1715 C1717 1.433 . S
C1716 C1712 1.350 . S
C1716 C1713 1.463 . S
C1716 N1720 1.427 . S
C1717 H1707 0.929 . S
C1717 C1715 1.433 . S
C1717 N1720 1.384 . S
C1718 H1709 0.929 . S
C1718 C1710 1.378 . S
C1718 C1713 1.350 . S
C1719 H1706 0.929 . S
C1719 C1711 1.433 . S
C1719 N1721 1.384 . S
N1720 C1716 1.427 . S
N1720 C1717 1.384 . S
N1721 C1713 1.427 . S
N1721 C1719 1.384 . S
H1722 C1728 0.930 . S
H1723 C1732 0.930 . S
H1724 C1737 0.929 . S
H1725 C1735 0.929 . S
H1726 C1730 0.929 . S
H1727 C1736 0.929 . S
C1728 H1722 0.930 . S
C1728 C1729 1.367 . S
C1728 C1736 1.378 . S
C1729 C1728 1.367 . S
C1729 C1737 1.433 . S
C1730 H1726 0.929 . S
C1730 C1732 1.378 . S
C1730 C1734 1.350 . S
C1731 C1734 1.463 . S
C1731 C1736 1.350 . S
C1731 N1739 1.427 . S
C1732 H1723 0.930 . S
C1732 C1730 1.378 . S
C1732 C1733 1.367 . S
C1733 C1732 1.367 . S
C1733 C1735 1.433 . S
C1734 C1730 1.350 . S
C1734 C1731 1.463 . S
C1734 N1738 1.427 . S
C1735 H1725 0.929 . S
C1735 C1733 1.433 . S
C1735 N1738 1.384 . S
C1736 H1727 0.929 . S
C1736 C1728 1.378 . S
C1736 C1731 1.350 . S
C1737 H1724 0.929 . S
C1737 C1729 1.433 . S
C1737 N1739 1.384 . S
N1738 C1734 1.427 . S
N1738 C1735 1.384 . S
N1739 C1731 1.427 . S
N1739 C1737 1.384 . S
H1740 C1746 0.930 . S
H1741 C1750 0.930 . S
H1742 C1755 0.929 . S
H1743 C1753 0.929 . S
H1744 C1748 0.929 . S
H1745 C1754 0.929 . S
C1746 H1740 0.930 . S
C1746 C1747 1.367 . S
C1746 C1754 1.378 . S
C1747 C1746 1.367 . S
C1747 C1755 1.433 . S
C1748 H1744 0.929 . S
C1748 C1750 1.378 . S
C1748 C1752 1.350 . S
C1749 C1752 1.463 . S
C1749 C1754 1.350 . S
C1749 N1757 1.427 . S
C1750 H1741 0.930 . S
C1750 C1748 1.378 . S
C1750 C1751 1.367 . S
C1751 C1750 1.367 . S
C1751 C1753 1.433 . S
C1752 C1748 1.350 . S
C1752 C1749 1.463 . S
C1752 N1756 1.427 . S
C1753 H1743 0.929 . S
C1753 C1751 1.433 . S
C1753 N1756 1.384 . S
C1754 H1745 0.929 . S
C1754 C1746 1.378 . S
C1754 C1749 1.350 . S
C1755 H1742 0.929 . S
C1755 C1747 1.433 . S
C1755 N1757 1.384 . S
N1756 C1752 1.427 . S
N1756 C1753 1.384 . S
N1757 C1749 1.427 . S
N1757 C1755 1.384 . S
H1758 C1764 0.930 . S
H1759 C1768 0.930 . S
H1760 C1773 0.929 . S
H1761 C1771 0.929 . S
H1762 C1766 0.929 . S
H1763 C1772 0.929 . S
C1764 H1758 0.930 . S
C1764 C1765 1.367 . S
C1764 C1772 1.378 . S
C1765 C1764 1.367 . S
C1765 C1773 1.433 . S
C1766 H1762 0.929 . S
C1766 C1768 1.378 . S
C1766 C1770 1.350 . S
C1767 C1770 1.463 . S
C1767 C1772 1.350 . S
C1767 N1775 1.427 . S
C1768 H1759 0.930 . S
C1768 C1766 1.378 . S
C1768 C1769 1.367 . S
C1769 C1768 1.367 . S
C1769 C1771 1.433 . S
C1770 C1766 1.350 . S
C1770 C1767 1.463 . S
C1770 N1774 1.427 . S
C1771 H1761 0.929 . S
C1771 C1769 1.433 . S
C1771 N1774 1.384 . S
C1772 H1763 0.929 . S
C1772 C1764 1.378 . S
C1772 C1767 1.350 . S
C1773 H1760 0.929 . S
C1773 C1765 1.433 . S
C1773 N1775 1.384 . S
N1774 C1770 1.427 . S
N1774 C1771 1.384 . S
N1775 C1767 1.427 . S
N1775 C1773 1.384 . S
H1776 C1782 0.930 . S
H1777 C1786 0.930 . S
H1778 C1791 0.929 . S
H1779 C1789 0.929 . S
H1780 C1784 0.929 . S
H1781 C1790 0.929 . S
C1782 H1776 0.930 . S
C1782 C1783 1.367 . S
C1782 C1790 1.378 . S
C1783 C1782 1.367 . S
C1783 C1791 1.433 . S
C1784 H1780 0.929 . S
C1784 C1786 1.378 . S
C1784 C1788 1.350 . S
C1785 C1788 1.463 . S
C1785 C1790 1.350 . S
C1785 N1793 1.427 . S
C1786 H1777 0.930 . S
C1786 C1784 1.378 . S
C1786 C1787 1.367 . S
C1787 C1786 1.367 . S
C1787 C1789 1.433 . S
C1788 C1784 1.350 . S
C1788 C1785 1.463 . S
C1788 N1792 1.427 . S
C1789 H1779 0.929 . S
C1789 C1787 1.433 . S
C1789 N1792 1.384 . S
C1790 H1781 0.929 . S
C1790 C1782 1.378 . S
C1790 C1785 1.350 . S
C1791 H1778 0.929 . S
C1791 C1783 1.433 . S
C1791 N1793 1.384 . S
N1792 C1788 1.427 . S
N1792 C1789 1.384 . S
N1793 C1785 1.427 . S
N1793 C1791 1.384 . S
H1794 C1800 0.930 . S
H1795 C1804 0.930 . S
H1796 C1809 0.929 . S
H1797 C1807 0.929 . S
H1798 C1802 0.929 . S
H1799 C1808 0.929 . S
C1800 H1794 0.930 . S
C1800 C1801 1.367 . S
C1800 C1808 1.378 . S
C1801 C1800 1.367 . S
C1801 C1809 1.433 . S
C1802 H1798 0.929 . S
C1802 C1804 1.378 . S
C1802 C1806 1.350 . S
C1803 C1806 1.463 . S
C1803 C1808 1.350 . S
C1803 N1811 1.427 . S
C1804 H1795 0.930 . S
C1804 C1802 1.378 . S
C1804 C1805 1.367 . S
C1805 C1804 1.367 . S
C1805 C1807 1.433 . S
C1806 C1802 1.350 . S
C1806 C1803 1.463 . S
C1806 N1810 1.427 . S
C1807 H1797 0.929 . S
C1807 C1805 1.433 . S
C1807 N1810 1.384 . S
C1808 H1799 0.929 . S
C1808 C1800 1.378 . S
C1808 C1803 1.350 . S
C1809 H1796 0.929 . S
C1809 C1801 1.433 . S
C1809 N1811 1.384 . S
N1810 C1806 1.427 . S
N1810 C1807 1.384 . S
N1811 C1803 1.427 . S
N1811 C1809 1.384 . S
H1812 C1818 0.930 . S
H1813 C1822 0.930 . S
H1814 C1827 0.929 . S
H1815 C1825 0.929 . S
H1816 C1820 0.929 . S
H1817 C1826 0.929 . S
C1818 H1812 0.930 . S
C1818 C1819 1.367 . S
C1818 C1826 1.378 . S
C1819 C1818 1.367 . S
C1819 C1827 1.433 . S
C1820 H1816 0.929 . S
C1820 C1822 1.378 . S
C1820 C1824 1.350 . S
C1821 C1824 1.463 . S
C1821 C1826 1.350 . S
C1821 N1829 1.427 . S
C1822 H1813 0.930 . S
C1822 C1820 1.378 . S
C1822 C1823 1.367 . S
C1823 C1822 1.367 . S
C1823 C1825 1.433 . S
C1824 C1820 1.350 . S
C1824 C1821 1.463 . S
C1824 N1828 1.427 . S
C1825 H1815 0.929 . S
C1825 C1823 1.433 . S
C1825 N1828 1.384 . S
C1826 H1817 0.929 . S
C1826 C1818 1.378 . S
C1826 C1821 1.350 . S
C1827 H1814 0.929 . S
C1827 C1819 1.433 . S
C1827 N1829 1.384 . S
N1828 C1824 1.427 . S
N1828 C1825 1.384 . S
N1829 C1821 1.427 . S
N1829 C1827 1.384 . S
H1830 C1836 0.930 . S
H1831 C1840 0.930 . S
H1832 C1845 0.929 . S
H1833 C1843 0.929 . S
H1834 C1838 0.929 . S
H1835 C1844 0.929 . S
C1836 H1830 0.930 . S
C1836 C1837 1.367 . S
C1836 C1844 1.378 . S
C1837 C1836 1.367 . S
C1837 C1845 1.433 . S
C1838 H1834 0.929 . S
C1838 C1840 1.378 . S
C1838 C1842 1.350 . S
C1839 C1842 1.463 . S
C1839 C1844 1.350 . S
C1839 N1847 1.427 . S
C1840 H1831 0.930 . S
C1840 C1838 1.378 . S
C1840 C1841 1.367 . S
C1841 C1840 1.367 . S
C1841 C1843 1.433 . S
C1842 C1838 1.350 . S
C1842 C1839 1.463 . S
C1842 N1846 1.427 . S
C1843 H1833 0.929 . S
C1843 C1841 1.433 . S
C1843 N1846 1.384 . S
C1844 H1835 0.929 . S
C1844 C1836 1.378 . S
C1844 C1839 1.350 . S
C1845 H1832 0.929 . S
C1845 C1837 1.433 . S
C1845 N1847 1.384 . S
N1846 C1842 1.427 . S
N1846 C1843 1.384 . S
N1847 C1839 1.427 . S
N1847 C1845 1.384 . S
H1848 C1854 0.930 . S
H1849 C1858 0.930 . S
H1850 C1863 0.929 . S
H1851 C1861 0.929 . S
H1852 C1856 0.929 . S
H1853 C1862 0.929 . S
C1854 H1848 0.930 . S
C1854 C1855 1.367 . S
C1854 C1862 1.378 . S
C1855 C1854 1.367 . S
C1855 C1863 1.433 . S
C1856 H1852 0.929 . S
C1856 C1858 1.378 . S
C1856 C1860 1.350 . S
C1857 C1860 1.463 . S
C1857 C1862 1.350 . S
C1857 N1865 1.427 . S
C1858 H1849 0.930 . S
C1858 C1856 1.378 . S
C1858 C1859 1.367 . S
C1859 C1858 1.367 . S
C1859 C1861 1.433 . S
C1860 C1856 1.350 . S
C1860 C1857 1.463 . S
C1860 N1864 1.427 . S
C1861 H1851 0.929 . S
C1861 C1859 1.433 . S
C1861 N1864 1.384 . S
C1862 H1853 0.929 . S
C1862 C1854 1.378 . S
C1862 C1857 1.350 . S
C1863 H1850 0.929 . S
C1863 C1855 1.433 . S
C1863 N1865 1.384 . S
N1864 C1860 1.427 . S
N1864 C1861 1.384 . S
N1865 C1857 1.427 . S
N1865 C1863 1.384 . S
H1866 C1872 0.930 . S
H1867 C1876 0.930 . S
H1868 C1881 0.929 . S
H1869 C1879 0.929 . S
H1870 C1874 0.929 . S
H1871 C1880 0.929 . S
C1872 H1866 0.930 . S
C1872 C1873 1.367 . S
C1872 C1880 1.378 . S
C1873 C1872 1.367 . S
C1873 C1881 1.433 . S
C1874 H1870 0.929 . S
C1874 C1876 1.378 . S
C1874 C1878 1.350 . S
C1875 C1878 1.463 . S
C1875 C1880 1.350 . S
C1875 N1883 1.427 . S
C1876 H1867 0.930 . S
C1876 C1874 1.378 . S
C1876 C1877 1.367 . S
C1877 C1876 1.367 . S
C1877 C1879 1.433 . S
C1878 C1874 1.350 . S
C1878 C1875 1.463 . S
C1878 N1882 1.427 . S
C1879 H1869 0.929 . S
C1879 C1877 1.433 . S
C1879 N1882 1.384 . S
C1880 H1871 0.929 . S
C1880 C1872 1.378 . S
C1880 C1875 1.350 . S
C1881 H1868 0.929 . S
C1881 C1873 1.433 . S
C1881 N1883 1.384 . S
N1882 C1878 1.427 . S
N1882 C1879 1.384 . S
N1883 C1875 1.427 . S
N1883 C1881 1.384 . S
H1884 C1890 0.930 . S
H1885 C1894 0.930 . S
H1886 C1899 0.929 . S
H1887 C1897 0.929 . S
H1888 C1892 0.929 . S
H1889 C1898 0.929 . S
C1890 H1884 0.930 . S
C1890 C1891 1.367 . S
C1890 C1898 1.378 . S
C1891 C1890 1.367 . S
C1891 C1899 1.433 . S
C1892 H1888 0.929 . S
C1892 C1894 1.378 . S
C1892 C1896 1.350 . S
C1893 C1896 1.463 . S
C1893 C1898 1.350 . S
C1893 N1901 1.427 . S
C1894 H1885 0.930 . S
C1894 C1892 1.378 . S
C1894 C1895 1.367 . S
C1895 C1894 1.367 . S
C1895 C1897 1.433 . S
C1896 C1892 1.350 . S
C1896 C1893 1.463 . S
C1896 N1900 1.427 . S
C1897 H1887 0.929 . S
C1897 C1895 1.433 . S
C1897 N1900 1.384 . S
C1898 H1889 0.929 . S
C1898 C1890 1.378 . S
C1898 C1893 1.350 . S
C1899 H1886 0.929 . S
C1899 C1891 1.433 . S
C1899 N1901 1.384 . S
N1900 C1896 1.427 . S
N1900 C1897 1.384 . S
N1901 C1893 1.427 . S
N1901 C1899 1.384 . S
H1902 C1908 0.930 . S
H1903 C1912 0.930 . S
H1904 C1917 0.929 . S
H1905 C1915 0.929 . S
H1906 C1910 0.929 . S
H1907 C1916 0.929 . S
C1908 H1902 0.930 . S
C1908 C1909 1.367 . S
C1908 C1916 1.378 . S
C1909 C1908 1.367 . S
C1909 C1917 1.433 . S
C1910 H1906 0.929 . S
C1910 C1912 1.378 . S
C1910 C1914 1.350 . S
C1911 C1914 1.463 . S
C1911 C1916 1.350 . S
C1911 N1919 1.427 . S
C1912 H1903 0.930 . S
C1912 C1910 1.378 . S
C1912 C1913 1.367 . S
C1913 C1912 1.367 . S
C1913 C1915 1.433 . S
C1914 C1910 1.350 . S
C1914 C1911 1.463 . S
C1914 N1918 1.427 . S
C1915 H1905 0.929 . S
C1915 C1913 1.433 . S
C1915 N1918 1.384 . S
C1916 H1907 0.929 . S
C1916 C1908 1.378 . S
C1916 C1911 1.350 . S
C1917 H1904 0.929 . S
C1917 C1909 1.433 . S
C1917 N1919 1.384 . S
N1918 C1914 1.427 . S
N1918 C1915 1.384 . S
N1919 C1911 1.427 . S
N1919 C1917 1.384 . S
H1920 C1926 0.930 . S
H1921 C1930 0.930 . S
H1922 C1935 0.929 . S
H1923 C1933 0.929 . S
H1924 C1928 0.929 . S
H1925 C1934 0.929 . S
C1926 H1920 0.930 . S
C1926 C1927 1.367 . S
C1926 C1934 1.378 . S
C1927 C1926 1.367 . S
C1927 C1935 1.433 . S
C1928 H1924 0.929 . S
C1928 C1930 1.378 . S
C1928 C1932 1.350 . S
C1929 C1932 1.463 . S
C1929 C1934 1.350 . S
C1929 N1937 1.427 . S
C1930 H1921 0.930 . S
C1930 C1928 1.378 . S
C1930 C1931 1.367 . S
C1931 C1930 1.367 . S
C1931 C1933 1.433 . S
C1932 C1928 1.350 . S
C1932 C1929 1.463 . S
C1932 N1936 1.427 . S
C1933 H1923 0.929 . S
C1933 C1931 1.433 . S
C1933 N1936 1.384 . S
C1934 H1925 0.929 . S
C1934 C1926 1.378 . S
C1934 C1929 1.350 . S
C1935 H1922 0.929 . S
C1935 C1927 1.433 . S
C1935 N1937 1.384 . S
N1936 C1932 1.427 . S
N1936 C1933 1.384 . S
N1937 C1929 1.427 . S
N1937 C1935 1.384 . S
H1938 C1944 0.930 . S
H1939 C1948 0.930 . S
H1940 C1953 0.929 . S
H1941 C1951 0.929 . S
H1942 C1946 0.929 . S
H1943 C1952 0.929 . S
C1944 H1938 0.930 . S
C1944 C1945 1.367 . S
C1944 C1952 1.378 . S
C1945 C1944 1.367 . S
C1945 C1953 1.433 . S
C1946 H1942 0.929 . S
C1946 C1948 1.378 . S
C1946 C1950 1.350 . S
C1947 C1950 1.463 1_465 S
C1947 C1952 1.350 . S
C1947 N1955 1.427 . S
C1948 H1939 0.930 . S
C1948 C1946 1.378 . S
C1948 C1949 1.367 . S
C1949 C1948 1.367 . S
C1949 C1951 1.433 . S
C1950 C1946 1.350 . S
C1950 C1947 1.463 1_645 S
C1950 N1954 1.427 . S
C1951 H1941 0.929 . S
C1951 C1949 1.433 . S
C1951 N1954 1.384 . S
C1952 H1943 0.929 . S
C1952 C1944 1.378 . S
C1952 C1947 1.350 . S
C1953 H1940 0.929 . S
C1953 C1945 1.433 . S
C1953 N1955 1.384 . S
N1954 C1950 1.427 . S
N1954 C1951 1.384 . S
N1955 C1947 1.427 . S
N1955 C1953 1.384 . S
H1956 C1962 0.930 . S
H1957 C1966 0.930 . S
H1958 C1971 0.929 . S
H1959 C1969 0.929 . S
H1960 C1964 0.929 . S
H1961 C1970 0.929 . S
C1962 H1956 0.930 . S
C1962 C1963 1.367 . S
C1962 C1970 1.378 . S
C1963 C1962 1.367 . S
C1963 C1971 1.433 . S
C1964 H1960 0.929 . S
C1964 C1966 1.378 . S
C1964 C1968 1.350 . S
C1965 C1968 1.463 . S
C1965 C1970 1.350 . S
C1965 N1973 1.427 . S
C1966 H1957 0.930 . S
C1966 C1964 1.378 . S
C1966 C1967 1.367 . S
C1967 C1966 1.367 . S
C1967 C1969 1.433 . S
C1968 C1964 1.350 . S
C1968 C1965 1.463 . S
C1968 N1972 1.427 . S
C1969 H1959 0.929 . S
C1969 C1967 1.433 . S
C1969 N1972 1.384 . S
C1970 H1961 0.929 . S
C1970 C1962 1.378 . S
C1970 C1965 1.350 . S
C1971 H1958 0.929 . S
C1971 C1963 1.433 . S
C1971 N1973 1.384 . S
N1972 C1968 1.427 . S
N1972 C1969 1.384 . S
N1973 C1965 1.427 . S
N1973 C1971 1.384 . S
H1974 C1980 0.930 . S
H1975 C1984 0.930 . S
H1976 C1989 0.929 . S
H1977 C1987 0.929 . S
H1978 C1982 0.929 . S
H1979 C1988 0.929 . S
C1980 H1974 0.930 . S
C1980 C1981 1.367 1_554 S
C1980 C1988 1.378 . S
C1981 C1980 1.367 1_556 S
C1981 C1989 1.433 . S
C1982 H1978 0.929 . S
C1982 C1984 1.378 . S
C1982 C1986 1.350 1_556 S
C1983 C1986 1.463 1_566 S
C1983 C1988 1.350 1_556 S
C1983 N1991 1.427 . S
C1984 H1975 0.930 . S
C1984 C1982 1.378 . S
C1984 C1985 1.367 1_556 S
C1985 C1984 1.367 1_554 S
C1985 C1987 1.433 . S
C1986 C1982 1.350 1_554 S
C1986 C1983 1.463 1_544 S
C1986 N1990 1.427 . S
C1987 H1977 0.929 . S
C1987 C1985 1.433 . S
C1987 N1990 1.384 . S
C1988 H1979 0.929 . S
C1988 C1980 1.378 . S
C1988 C1983 1.350 1_554 S
C1989 H1976 0.929 . S
C1989 C1981 1.433 . S
C1989 N1991 1.384 . S
N1990 C1986 1.427 . S
N1990 C1987 1.384 . S
N1991 C1983 1.427 . S
N1991 C1989 1.384 . S
H1992 C1998 0.930 . S
H1993 C2002 0.930 . S
H1994 C2007 0.929 . S
H1995 C2005 0.929 . S
H1996 C2000 0.929 . S
H1997 C2006 0.929 . S
C1998 H1992 0.930 . S
C1998 C1999 1.367 . S
C1998 C2006 1.378 . S
C1999 C1998 1.367 . S
C1999 C2007 1.433 . S
C2000 H1996 0.929 . S
C2000 C2002 1.378 . S
C2000 C2004 1.350 . S
C2001 C2004 1.463 . S
C2001 C2006 1.350 . S
C2001 N2009 1.427 . S
C2002 H1993 0.930 . S
C2002 C2000 1.378 . S
C2002 C2003 1.367 . S
C2003 C2002 1.367 . S
C2003 C2005 1.433 . S
C2004 C2000 1.350 . S
C2004 C2001 1.463 . S
C2004 N2008 1.427 . S
C2005 H1995 0.929 . S
C2005 C2003 1.433 . S
C2005 N2008 1.384 . S
C2006 H1997 0.929 . S
C2006 C1998 1.378 . S
C2006 C2001 1.350 . S
C2007 H1994 0.929 . S
C2007 C1999 1.433 . S
C2007 N2009 1.384 . S
N2008 C2004 1.427 . S
N2008 C2005 1.384 . S
N2009 C2001 1.427 . S
N2009 C2007 1.384 . S
H2010 C2016 0.930 . S
H2011 C2020 0.930 . S
H2012 C2025 0.929 1_545 S
H2013 C2023 0.929 1_565 S
H2014 C2018 0.929 . S
H2015 C2024 0.929 . S
C2016 H2010 0.930 . S
C2016 C2017 1.367 . S
C2016 C2024 1.378 . S
C2017 C2016 1.367 . S
C2017 C2025 1.433 . S
C2018 H2014 0.929 . S
C2018 C2020 1.378 . S
C2018 C2022 1.350 . S
C2019 C2022 1.463 1_565 S
C2019 C2024 1.350 . S
C2019 N2027 1.427 1_565 S
C2020 H2011 0.930 . S
C2020 C2018 1.378 . S
C2020 C2021 1.367 . S
C2021 C2020 1.367 . S
C2021 C2023 1.433 . S
C2022 C2018 1.350 . S
C2022 C2019 1.463 1_545 S
C2022 N2026 1.427 1_545 S
C2023 H2013 0.929 1_545 S
C2023 C2021 1.433 . S
C2023 N2026 1.384 1_545 S
C2024 H2015 0.929 . S
C2024 C2016 1.378 . S
C2024 C2019 1.350 . S
C2025 H2012 0.929 1_565 S
C2025 C2017 1.433 . S
C2025 N2027 1.384 1_565 S
N2026 C2022 1.427 1_565 S
N2026 C2023 1.384 1_565 S
N2027 C2019 1.427 1_545 S
N2027 C2025 1.384 1_545 S
H2028 C2034 0.930 . S
H2029 C2038 0.930 . S
H2030 C2043 0.929 . S
H2031 C2041 0.929 . S
H2032 C2036 0.929 . S
H2033 C2042 0.929 . S
C2034 H2028 0.930 . S
C2034 C2035 1.367 . S
C2034 C2042 1.378 . S
C2035 C2034 1.367 . S
C2035 C2043 1.433 . S
C2036 H2032 0.929 . S
C2036 C2038 1.378 . S
C2036 C2040 1.350 . S
C2037 C2040 1.463 . S
C2037 C2042 1.350 . S
C2037 N2045 1.427 . S
C2038 H2029 0.930 . S
C2038 C2036 1.378 . S
C2038 C2039 1.367 . S
C2039 C2038 1.367 . S
C2039 C2041 1.433 . S
C2040 C2036 1.350 . S
C2040 C2037 1.463 . S
C2040 N2044 1.427 . S
C2041 H2031 0.929 . S
C2041 C2039 1.433 . S
C2041 N2044 1.384 . S
C2042 H2033 0.929 . S
C2042 C2034 1.378 . S
C2042 C2037 1.350 . S
C2043 H2030 0.929 . S
C2043 C2035 1.433 . S
C2043 N2045 1.384 . S
N2044 C2040 1.427 . S
N2044 C2041 1.384 . S
N2045 C2037 1.427 . S
N2045 C2043 1.384 . S
H2046 C2052 0.930 . S
H2047 C2056 0.930 . S
H2048 C2061 0.929 . S
H2049 C2059 0.929 . S
H2050 C2054 0.929 1_545 S
H2051 C2060 0.929 1_565 S
C2052 H2046 0.930 . S
C2052 C2053 1.367 1_554 S
C2052 C2060 1.378 . S
C2053 C2052 1.367 1_556 S
C2053 C2061 1.433 . S
C2054 H2050 0.929 1_565 S
C2054 C2056 1.378 . S
C2054 C2058 1.350 1_556 S
C2055 C2058 1.463 1_446 S
C2055 C2060 1.350 1_556 S
C2055 N2063 1.427 . S
C2056 H2047 0.930 . S
C2056 C2054 1.378 . S
C2056 C2057 1.367 1_556 S
C2057 C2056 1.367 1_554 S
C2057 C2059 1.433 . S
C2058 C2054 1.350 1_554 S
C2058 C2055 1.463 1_664 S
C2058 N2062 1.427 . S
C2059 H2049 0.929 . S
C2059 C2057 1.433 . S
C2059 N2062 1.384 . S
C2060 H2051 0.929 1_545 S
C2060 C2052 1.378 . S
C2060 C2055 1.350 1_554 S
C2061 H2048 0.929 . S
C2061 C2053 1.433 . S
C2061 N2063 1.384 . S
N2062 C2058 1.427 . S
N2062 C2059 1.384 . S
N2063 C2055 1.427 . S
N2063 C2061 1.384 . S
H2064 C2070 0.930 . S
H2065 C2074 0.930 . S
H2066 C2079 0.929 . S
H2067 C2077 0.929 . S
H2068 C2072 0.929 . S
H2069 C2078 0.929 . S
C2070 H2064 0.930 . S
C2070 C2071 1.367 . S
C2070 C2078 1.378 . S
C2071 C2070 1.367 . S
C2071 C2079 1.433 . S
C2072 H2068 0.929 . S
C2072 C2074 1.378 . S
C2072 C2076 1.350 . S
C2073 C2076 1.463 . S
C2073 C2078 1.350 . S
C2073 N2081 1.427 . S
C2074 H2065 0.930 . S
C2074 C2072 1.378 . S
C2074 C2075 1.367 . S
C2075 C2074 1.367 . S
C2075 C2077 1.433 . S
C2076 C2072 1.350 . S
C2076 C2073 1.463 . S
C2076 N2080 1.427 . S
C2077 H2067 0.929 . S
C2077 C2075 1.433 . S
C2077 N2080 1.384 . S
C2078 H2069 0.929 . S
C2078 C2070 1.378 . S
C2078 C2073 1.350 . S
C2079 H2066 0.929 . S
C2079 C2071 1.433 . S
C2079 N2081 1.384 . S
N2080 C2076 1.427 . S
N2080 C2077 1.384 . S
N2081 C2073 1.427 . S
N2081 C2079 1.384 . S
H2082 C2088 0.930 . S
H2083 C2092 0.930 . S
H2084 C2097 0.929 . S
H2085 C2095 0.929 . S
H2086 C2090 0.929 . S
H2087 C2096 0.929 . S
C2088 H2082 0.930 . S
C2088 C2089 1.367 . S
C2088 C2096 1.378 . S
C2089 C2088 1.367 . S
C2089 C2097 1.433 . S
C2090 H2086 0.929 . S
C2090 C2092 1.378 . S
C2090 C2094 1.350 . S
C2091 C2094 1.463 . S
C2091 C2096 1.350 . S
C2091 N2099 1.427 . S
C2092 H2083 0.930 . S
C2092 C2090 1.378 . S
C2092 C2093 1.367 . S
C2093 C2092 1.367 . S
C2093 C2095 1.433 . S
C2094 C2090 1.350 . S
C2094 C2091 1.463 . S
C2094 N2098 1.427 . S
C2095 H2085 0.929 . S
C2095 C2093 1.433 . S
C2095 N2098 1.384 . S
C2096 H2087 0.929 . S
C2096 C2088 1.378 . S
C2096 C2091 1.350 . S
C2097 H2084 0.929 . S
C2097 C2089 1.433 . S
C2097 N2099 1.384 . S
N2098 C2094 1.427 . S
N2098 C2095 1.384 . S
N2099 C2091 1.427 . S
N2099 C2097 1.384 . S
H2100 C2106 0.930 . S
H2101 C2110 0.930 . S
H2102 C2115 0.929 . S
H2103 C2113 0.929 . S
H2104 C2108 0.929 . S
H2105 C2114 0.929 . S
C2106 H2100 0.930 . S
C2106 C2107 1.367 . S
C2106 C2114 1.378 . S
C2107 C2106 1.367 . S
C2107 C2115 1.433 . S
C2108 H2104 0.929 . S
C2108 C2110 1.378 . S
C2108 C2112 1.350 . S
C2109 C2112 1.463 . S
C2109 C2114 1.350 . S
C2109 N2117 1.427 . S
C2110 H2101 0.930 . S
C2110 C2108 1.378 . S
C2110 C2111 1.367 . S
C2111 C2110 1.367 . S
C2111 C2113 1.433 . S
C2112 C2108 1.350 . S
C2112 C2109 1.463 . S
C2112 N2116 1.427 . S
C2113 H2103 0.929 . S
C2113 C2111 1.433 . S
C2113 N2116 1.384 . S
C2114 H2105 0.929 . S
C2114 C2106 1.378 . S
C2114 C2109 1.350 . S
C2115 H2102 0.929 . S
C2115 C2107 1.433 . S
C2115 N2117 1.384 . S
N2116 C2112 1.427 . S
N2116 C2113 1.384 . S
N2117 C2109 1.427 . S
N2117 C2115 1.384 . S
H2118 C2124 0.930 . S
H2119 C2128 0.930 . S
H2120 C2133 0.929 . S
H2121 C2131 0.929 . S
H2122 C2126 0.929 . S
H2123 C2132 0.929 . S
C2124 H2118 0.930 . S
C2124 C2125 1.367 . S
C2124 C2132 1.378 . S
C2125 C2124 1.367 . S
C2125 C2133 1.433 . S
C2126 H2122 0.929 . S
C2126 C2128 1.378 . S
C2126 C2130 1.350 . S
C2127 C2130 1.463 . S
C2127 C2132 1.350 . S
C2127 N2135 1.427 . S
C2128 H2119 0.930 . S
C2128 C2126 1.378 . S
C2128 C2129 1.367 . S
C2129 C2128 1.367 . S
C2129 C2131 1.433 . S
C2130 C2126 1.350 . S
C2130 C2127 1.463 . S
C2130 N2134 1.427 . S
C2131 H2121 0.929 . S
C2131 C2129 1.433 . S
C2131 N2134 1.384 . S
C2132 H2123 0.929 . S
C2132 C2124 1.378 . S
C2132 C2127 1.350 . S
C2133 H2120 0.929 . S
C2133 C2125 1.433 . S
C2133 N2135 1.384 . S
N2134 C2130 1.427 . S
N2134 C2131 1.384 . S
N2135 C2127 1.427 . S
N2135 C2133 1.384 . S
H2136 C2142 0.930 . S
H2137 C2146 0.930 . S
H2138 C2151 0.929 . S
H2139 C2149 0.929 . S
H2140 C2144 0.929 . S
H2141 C2150 0.929 . S
C2142 H2136 0.930 . S
C2142 C2143 1.367 . S
C2142 C2150 1.378 . S
C2143 C2142 1.367 . S
C2143 C2151 1.433 1_554 S
C2144 H2140 0.929 . S
C2144 C2146 1.378 . S
C2144 C2148 1.350 . S
C2145 C2148 1.463 1_554 S
C2145 C2150 1.350 . S
C2145 N2153 1.427 1_554 S
C2146 H2137 0.930 . S
C2146 C2144 1.378 . S
C2146 C2147 1.367 . S
C2147 C2146 1.367 . S
C2147 C2149 1.433 1_556 S
C2148 C2144 1.350 . S
C2148 C2145 1.463 1_556 S
C2148 N2152 1.427 1_556 S
C2149 H2139 0.929 . S
C2149 C2147 1.433 1_554 S
C2149 N2152 1.384 . S
C2150 H2141 0.929 . S
C2150 C2142 1.378 . S
C2150 C2145 1.350 . S
C2151 H2138 0.929 . S
C2151 C2143 1.433 1_556 S
C2151 N2153 1.384 . S
N2152 C2148 1.427 1_554 S
N2152 C2149 1.384 . S
N2153 C2145 1.427 1_556 S
N2153 C2151 1.384 . S
H2154 C2160 0.930 . S
H2155 C2164 0.930 . S
H2156 C2169 0.929 . S
H2157 C2167 0.929 . S
H2158 C2162 0.929 1_455 S
H2159 C2168 0.929 1_655 S
C2160 H2154 0.930 . S
C2160 C2161 1.367 . S
C2160 C2168 1.378 . S
C2161 C2160 1.367 . S
C2161 C2169 1.433 . S
C2162 H2158 0.929 1_655 S
C2162 C2164 1.378 . S
C2162 C2166 1.350 . S
C2163 C2166 1.463 1_455 S
C2163 C2168 1.350 . S
C2163 N2171 1.427 . S
C2164 H2155 0.930 . S
C2164 C2162 1.378 . S
C2164 C2165 1.367 . S
C2165 C2164 1.367 . S
C2165 C2167 1.433 . S
C2166 C2162 1.350 . S
C2166 C2163 1.463 1_655 S
C2166 N2170 1.427 . S
C2167 H2157 0.929 . S
C2167 C2165 1.433 . S
C2167 N2170 1.384 . S
C2168 H2159 0.929 1_455 S
C2168 C2160 1.378 . S
C2168 C2163 1.350 . S
C2169 H2156 0.929 . S
C2169 C2161 1.433 . S
C2169 N2171 1.384 . S
N2170 C2166 1.427 . S
N2170 C2167 1.384 . S
N2171 C2163 1.427 . S
N2171 C2169 1.384 . S
H2172 C2178 0.930 . S
H2173 C2182 0.930 . S
H2174 C2187 0.929 1_554 S
H2175 C2185 0.929 1_556 S
H2176 C2180 0.929 . S
H2177 C2186 0.929 . S
C2178 H2172 0.930 . S
C2178 C2179 1.367 . S
C2178 C2186 1.378 . S
C2179 C2178 1.367 . S
C2179 C2187 1.433 . S
C2180 H2176 0.929 . S
C2180 C2182 1.378 . S
C2180 C2184 1.350 . S
C2181 C2184 1.463 1_656 S
C2181 C2186 1.350 . S
C2181 N2189 1.427 1_556 S
C2182 H2173 0.930 . S
C2182 C2180 1.378 . S
C2182 C2183 1.367 . S
C2183 C2182 1.367 . S
C2183 C2185 1.433 . S
C2184 C2180 1.350 . S
C2184 C2181 1.463 1_454 S
C2184 N2188 1.427 1_554 S
C2185 H2175 0.929 1_554 S
C2185 C2183 1.433 . S
C2185 N2188 1.384 1_554 S
C2186 H2177 0.929 . S
C2186 C2178 1.378 . S
C2186 C2181 1.350 . S
C2187 H2174 0.929 1_556 S
C2187 C2179 1.433 . S
C2187 N2189 1.384 1_556 S
N2188 C2184 1.427 1_556 S
N2188 C2185 1.384 1_556 S
N2189 C2181 1.427 1_554 S
N2189 C2187 1.384 1_554 S
H2190 C2196 0.930 . S
H2191 C2200 0.930 . S
H2192 C2205 0.929 . S
H2193 C2203 0.929 . S
H2194 C2198 0.929 . S
H2195 C2204 0.929 . S
C2196 H2190 0.930 . S
C2196 C2197 1.367 . S
C2196 C2204 1.378 . S
C2197 C2196 1.367 . S
C2197 C2205 1.433 . S
C2198 H2194 0.929 . S
C2198 C2200 1.378 . S
C2198 C2202 1.350 . S
C2199 C2202 1.463 . S
C2199 C2204 1.350 . S
C2199 N2207 1.427 . S
C2200 H2191 0.930 . S
C2200 C2198 1.378 . S
C2200 C2201 1.367 . S
C2201 C2200 1.367 . S
C2201 C2203 1.433 . S
C2202 C2198 1.350 . S
C2202 C2199 1.463 . S
C2202 N2206 1.427 . S
C2203 H2193 0.929 . S
C2203 C2201 1.433 . S
C2203 N2206 1.384 . S
C2204 H2195 0.929 . S
C2204 C2196 1.378 . S
C2204 C2199 1.350 . S
C2205 H2192 0.929 . S
C2205 C2197 1.433 . S
C2205 N2207 1.384 . S
N2206 C2202 1.427 . S
N2206 C2203 1.384 . S
N2207 C2199 1.427 . S
N2207 C2205 1.384 . S
H2208 C2214 0.930 . S
H2209 C2218 0.930 . S
H2210 C2223 0.929 . S
H2211 C2221 0.929 . S
H2212 C2216 0.929 . S
H2213 C2222 0.929 . S
C2214 H2208 0.930 . S
C2214 C2215 1.367 . S
C2214 C2222 1.378 . S
C2215 C2214 1.367 . S
C2215 C2223 1.433 . S
C2216 H2212 0.929 . S
C2216 C2218 1.378 . S
C2216 C2220 1.350 . S
C2217 C2220 1.463 . S
C2217 C2222 1.350 . S
C2217 N2225 1.427 . S
C2218 H2209 0.930 . S
C2218 C2216 1.378 . S
C2218 C2219 1.367 . S
C2219 C2218 1.367 . S
C2219 C2221 1.433 . S
C2220 C2216 1.350 . S
C2220 C2217 1.463 . S
C2220 N2224 1.427 . S
C2221 H2211 0.929 . S
C2221 C2219 1.433 . S
C2221 N2224 1.384 . S
C2222 H2213 0.929 . S
C2222 C2214 1.378 . S
C2222 C2217 1.350 . S
C2223 H2210 0.929 . S
C2223 C2215 1.433 . S
C2223 N2225 1.384 . S
N2224 C2220 1.427 . S
N2224 C2221 1.384 . S
N2225 C2217 1.427 . S
N2225 C2223 1.384 . S
H2226 C2232 0.930 . S
H2227 C2236 0.930 . S
H2228 C2241 0.929 . S
H2229 C2239 0.929 . S
H2230 C2234 0.929 1_545 S
H2231 C2240 0.929 1_565 S
C2232 H2226 0.930 . S
C2232 C2233 1.367 . S
C2232 C2240 1.378 . S
C2233 C2232 1.367 . S
C2233 C2241 1.433 . S
C2234 H2230 0.929 1_565 S
C2234 C2236 1.378 . S
C2234 C2238 1.350 . S
C2235 C2238 1.463 1_545 S
C2235 C2240 1.350 . S
C2235 N2243 1.427 . S
C2236 H2227 0.930 . S
C2236 C2234 1.378 . S
C2236 C2237 1.367 . S
C2237 C2236 1.367 . S
C2237 C2239 1.433 . S
C2238 C2234 1.350 . S
C2238 C2235 1.463 1_565 S
C2238 N2242 1.427 . S
C2239 H2229 0.929 . S
C2239 C2237 1.433 . S
C2239 N2242 1.384 . S
C2240 H2231 0.929 1_545 S
C2240 C2232 1.378 . S
C2240 C2235 1.350 . S
C2241 H2228 0.929 . S
C2241 C2233 1.433 . S
C2241 N2243 1.384 . S
N2242 C2238 1.427 . S
N2242 C2239 1.384 . S
N2243 C2235 1.427 . S
N2243 C2241 1.384 . S
H2244 C2250 0.930 . S
H2245 C2254 0.930 . S
H2246 C2259 0.929 . S
H2247 C2257 0.929 . S
H2248 C2252 0.929 . S
H2249 C2258 0.929 . S
C2250 H2244 0.930 . S
C2250 C2251 1.367 . S
C2250 C2258 1.378 . S
C2251 C2250 1.367 . S
C2251 C2259 1.433 . S
C2252 H2248 0.929 . S
C2252 C2254 1.378 . S
C2252 C2256 1.350 . S
C2253 C2256 1.463 1_554 S
C2253 C2258 1.350 . S
C2253 N2261 1.427 . S
C2254 H2245 0.930 . S
C2254 C2252 1.378 . S
C2254 C2255 1.367 . S
C2255 C2254 1.367 . S
C2255 C2257 1.433 . S
C2256 C2252 1.350 . S
C2256 C2253 1.463 1_556 S
C2256 N2260 1.427 . S
C2257 H2247 0.929 . S
C2257 C2255 1.433 . S
C2257 N2260 1.384 . S
C2258 H2249 0.929 . S
C2258 C2250 1.378 . S
C2258 C2253 1.350 . S
C2259 H2246 0.929 . S
C2259 C2251 1.433 . S
C2259 N2261 1.384 . S
N2260 C2256 1.427 . S
N2260 C2257 1.384 . S
N2261 C2253 1.427 . S
N2261 C2259 1.384 . S
H2262 C2268 0.930 . S
H2263 C2272 0.930 . S
H2264 C2277 0.929 . S
H2265 C2275 0.929 . S
H2266 C2270 0.929 . S
H2267 C2276 0.929 . S
C2268 H2262 0.930 . S
C2268 C2269 1.367 . S
C2268 C2276 1.378 . S
C2269 C2268 1.367 . S
C2269 C2277 1.433 . S
C2270 H2266 0.929 . S
C2270 C2272 1.378 . S
C2270 C2274 1.350 . S
C2271 C2274 1.463 1_565 S
C2271 C2276 1.350 . S
C2271 N2279 1.427 . S
C2272 H2263 0.930 . S
C2272 C2270 1.378 . S
C2272 C2273 1.367 . S
C2273 C2272 1.367 . S
C2273 C2275 1.433 . S
C2274 C2270 1.350 . S
C2274 C2271 1.463 1_545 S
C2274 N2278 1.427 . S
C2275 H2265 0.929 . S
C2275 C2273 1.433 . S
C2275 N2278 1.384 . S
C2276 H2267 0.929 . S
C2276 C2268 1.378 . S
C2276 C2271 1.350 . S
C2277 H2264 0.929 . S
C2277 C2269 1.433 . S
C2277 N2279 1.384 . S
N2278 C2274 1.427 . S
N2278 C2275 1.384 . S
N2279 C2271 1.427 . S
N2279 C2277 1.384 . S
H2280 C2286 0.930 . S
H2281 C2290 0.930 . S
H2282 C2295 0.929 . S
H2283 C2293 0.929 . S
H2284 C2288 0.929 . S
H2285 C2294 0.929 . S
C2286 H2280 0.930 . S
C2286 C2287 1.367 . S
C2286 C2294 1.378 . S
C2287 C2286 1.367 . S
C2287 C2295 1.433 . S
C2288 H2284 0.929 . S
C2288 C2290 1.378 . S
C2288 C2292 1.350 . S
C2289 C2292 1.463 . S
C2289 C2294 1.350 . S
C2289 N2297 1.427 . S
C2290 H2281 0.930 . S
C2290 C2288 1.378 . S
C2290 C2291 1.367 . S
C2291 C2290 1.367 . S
C2291 C2293 1.433 . S
C2292 C2288 1.350 . S
C2292 C2289 1.463 . S
C2292 N2296 1.427 . S
C2293 H2283 0.929 . S
C2293 C2291 1.433 . S
C2293 N2296 1.384 . S
C2294 H2285 0.929 . S
C2294 C2286 1.378 . S
C2294 C2289 1.350 . S
C2295 H2282 0.929 . S
C2295 C2287 1.433 . S
C2295 N2297 1.384 . S
N2296 C2292 1.427 . S
N2296 C2293 1.384 . S
N2297 C2289 1.427 . S
N2297 C2295 1.384 . S
H2298 C2304 0.930 . S
H2299 C2308 0.930 . S
H2300 C2313 0.929 . S
H2301 C2311 0.929 . S
H2302 C2306 0.929 1_545 S
H2303 C2312 0.929 1_565 S
C2304 H2298 0.930 . S
C2304 C2305 1.367 . S
C2304 C2312 1.378 . S
C2305 C2304 1.367 . S
C2305 C2313 1.433 . S
C2306 H2302 0.929 1_565 S
C2306 C2308 1.378 . S
C2306 C2310 1.350 . S
C2307 C2310 1.463 1_545 S
C2307 C2312 1.350 . S
C2307 N2315 1.427 . S
C2308 H2299 0.930 . S
C2308 C2306 1.378 . S
C2308 C2309 1.367 . S
C2309 C2308 1.367 . S
C2309 C2311 1.433 . S
C2310 C2306 1.350 . S
C2310 C2307 1.463 1_565 S
C2310 N2314 1.427 . S
C2311 H2301 0.929 . S
C2311 C2309 1.433 . S
C2311 N2314 1.384 . S
C2312 H2303 0.929 1_545 S
C2312 C2304 1.378 . S
C2312 C2307 1.350 . S
C2313 H2300 0.929 . S
C2313 C2305 1.433 . S
C2313 N2315 1.384 . S
N2314 C2310 1.427 . S
N2314 C2311 1.384 . S
N2315 C2307 1.427 . S
N2315 C2313 1.384 . S
H2316 C2322 0.930 . S
H2317 C2326 0.930 . S
H2318 C2331 0.929 . S
H2319 C2329 0.929 . S
H2320 C2324 0.929 . S
H2321 C2330 0.929 . S
C2322 H2316 0.930 . S
C2322 C2323 1.367 . S
C2322 C2330 1.378 1_556 S
C2323 C2322 1.367 . S
C2323 C2331 1.433 . S
C2324 H2320 0.929 . S
C2324 C2326 1.378 1_556 S
C2324 C2328 1.350 1_556 S
C2325 C2328 1.463 1_556 S
C2325 C2330 1.350 1_556 S
C2325 N2333 1.427 . S
C2326 H2317 0.930 . S
C2326 C2324 1.378 1_554 S
C2326 C2327 1.367 . S
C2327 C2326 1.367 . S
C2327 C2329 1.433 . S
C2328 C2324 1.350 1_554 S
C2328 C2325 1.463 1_554 S
C2328 N2332 1.427 . S
C2329 H2319 0.929 . S
C2329 C2327 1.433 . S
C2329 N2332 1.384 . S
C2330 H2321 0.929 . S
C2330 C2322 1.378 1_554 S
C2330 C2325 1.350 1_554 S
C2331 H2318 0.929 . S
C2331 C2323 1.433 . S
C2331 N2333 1.384 . S
N2332 C2328 1.427 . S
N2332 C2329 1.384 . S
N2333 C2325 1.427 . S
N2333 C2331 1.384 . S
H2334 C2340 0.930 . S
H2335 C2344 0.930 . S
H2336 C2349 0.929 . S
H2337 C2347 0.929 . S
H2338 C2342 0.929 . S
H2339 C2348 0.929 . S
C2340 H2334 0.930 . S
C2340 C2341 1.367 . S
C2340 C2348 1.378 . S
C2341 C2340 1.367 . S
C2341 C2349 1.433 . S
C2342 H2338 0.929 . S
C2342 C2344 1.378 . S
C2342 C2346 1.350 . S
C2343 C2346 1.463 1_545 S
C2343 C2348 1.350 . S
C2343 N2351 1.427 . S
C2344 H2335 0.930 . S
C2344 C2342 1.378 . S
C2344 C2345 1.367 . S
C2345 C2344 1.367 . S
C2345 C2347 1.433 . S
C2346 C2342 1.350 . S
C2346 C2343 1.463 1_565 S
C2346 N2350 1.427 . S
C2347 H2337 0.929 . S
C2347 C2345 1.433 . S
C2347 N2350 1.384 . S
C2348 H2339 0.929 . S
C2348 C2340 1.378 . S
C2348 C2343 1.350 . S
C2349 H2336 0.929 . S
C2349 C2341 1.433 . S
C2349 N2351 1.384 . S
N2350 C2346 1.427 . S
N2350 C2347 1.384 . S
N2351 C2343 1.427 . S
N2351 C2349 1.384 . S
H2352 C2358 0.930 . S
H2353 C2362 0.930 . S
H2354 C2367 0.929 . S
H2355 C2365 0.929 . S
H2356 C2360 0.929 . S
H2357 C2366 0.929 . S
C2358 H2352 0.930 . S
C2358 C2359 1.367 . S
C2358 C2366 1.378 . S
C2359 C2358 1.367 . S
C2359 C2367 1.433 . S
C2360 H2356 0.929 . S
C2360 C2362 1.378 . S
C2360 C2364 1.350 . S
C2361 C2364 1.463 1_556 S
C2361 C2366 1.350 . S
C2361 N2369 1.431 . S
C2362 H2353 0.930 . S
C2362 C2360 1.378 . S
C2362 C2363 1.367 . S
C2363 C2362 1.367 . S
C2363 C2365 1.433 . S
C2364 C2360 1.350 . S
C2364 C2361 1.463 1_554 S
C2364 N2368 1.431 . S
C2365 H2355 0.929 . S
C2365 C2363 1.433 . S
C2365 N2368 1.390 . S
C2366 H2357 0.929 . S
C2366 C2358 1.378 . S
C2366 C2361 1.350 . S
C2367 H2354 0.929 . S
C2367 C2359 1.433 . S
C2367 N2369 1.390 . S
N2368 C2364 1.431 . S
N2368 C2365 1.390 . S
N2369 C2361 1.431 . S
N2369 C2367 1.390 . S
H2370 C2376 0.930 . S
H2371 C2380 0.930 . S
H2372 C2385 0.929 . S
H2373 C2383 0.929 . S
H2374 C2378 0.929 . S
H2375 C2384 0.929 . S
C2376 H2370 0.930 . S
C2376 C2377 1.367 . S
C2376 C2384 1.378 . S
C2377 C2376 1.367 . S
C2377 C2385 1.433 . S
C2378 H2374 0.929 . S
C2378 C2380 1.378 . S
C2378 C2382 1.350 . S
C2379 C2382 1.463 . S
C2379 C2384 1.350 . S
C2379 N2387 1.427 . S
C2380 H2371 0.930 . S
C2380 C2378 1.378 . S
C2380 C2381 1.367 . S
C2381 C2380 1.367 . S
C2381 C2383 1.433 . S
C2382 C2378 1.350 . S
C2382 C2379 1.463 . S
C2382 N2386 1.427 . S
C2383 H2373 0.929 . S
C2383 C2381 1.433 . S
C2383 N2386 1.384 . S
C2384 H2375 0.929 . S
C2384 C2376 1.378 . S
C2384 C2379 1.350 . S
C2385 H2372 0.929 . S
C2385 C2377 1.433 . S
C2385 N2387 1.384 . S
N2386 C2382 1.427 . S
N2386 C2383 1.384 . S
N2387 C2379 1.427 . S
N2387 C2385 1.384 . S
H2388 C2394 0.930 . S
H2389 C2398 0.930 . S
H2390 C2403 0.929 . S
H2391 C2401 0.929 . S
H2392 C2396 0.929 . S
H2393 C2402 0.929 . S
C2394 H2388 0.930 . S
C2394 C2395 1.367 . S
C2394 C2402 1.378 . S
C2395 C2394 1.367 . S
C2395 C2403 1.433 . S
C2396 H2392 0.929 . S
C2396 C2398 1.378 . S
C2396 C2400 1.350 . S
C2397 C2400 1.463 . S
C2397 C2402 1.350 . S
C2397 N2405 1.427 . S
C2398 H2389 0.930 . S
C2398 C2396 1.378 . S
C2398 C2399 1.367 . S
C2399 C2398 1.367 . S
C2399 C2401 1.433 . S
C2400 C2396 1.350 . S
C2400 C2397 1.463 . S
C2400 N2404 1.427 . S
C2401 H2391 0.929 . S
C2401 C2399 1.433 . S
C2401 N2404 1.384 . S
C2402 H2393 0.929 . S
C2402 C2394 1.378 . S
C2402 C2397 1.350 . S
C2403 H2390 0.929 . S
C2403 C2395 1.433 . S
C2403 N2405 1.384 . S
N2404 C2400 1.427 . S
N2404 C2401 1.384 . S
N2405 C2397 1.427 . S
N2405 C2403 1.384 . S
H2406 C2412 0.930 . S
H2407 C2416 0.930 . S
H2408 C2421 0.929 . S
H2409 C2419 0.929 . S
H2410 C2414 0.929 . S
H2411 C2420 0.929 . S
C2412 H2406 0.930 . S
C2412 C2413 1.367 . S
C2412 C2420 1.378 . S
C2413 C2412 1.367 . S
C2413 C2421 1.433 . S
C2414 H2410 0.929 . S
C2414 C2416 1.378 . S
C2414 C2418 1.350 . S
C2415 C2418 1.463 . S
C2415 C2420 1.350 . S
C2415 N2423 1.427 . S
C2416 H2407 0.930 . S
C2416 C2414 1.378 . S
C2416 C2417 1.367 . S
C2417 C2416 1.367 . S
C2417 C2419 1.433 . S
C2418 C2414 1.350 . S
C2418 C2415 1.463 . S
C2418 N2422 1.427 . S
C2419 H2409 0.929 . S
C2419 C2417 1.433 . S
C2419 N2422 1.384 . S
C2420 H2411 0.929 . S
C2420 C2412 1.378 . S
C2420 C2415 1.350 . S
C2421 H2408 0.929 . S
C2421 C2413 1.433 . S
C2421 N2423 1.384 . S
N2422 C2418 1.427 . S
N2422 C2419 1.384 . S
N2423 C2415 1.427 . S
N2423 C2421 1.384 . S
H2424 C2430 0.930 . S
H2425 C2434 0.930 . S
H2426 C2439 0.929 . S
H2427 C2437 0.929 . S
H2428 C2432 0.929 . S
H2429 C2438 0.929 . S
C2430 H2424 0.930 . S
C2430 C2431 1.367 . S
C2430 C2438 1.378 . S
C2431 C2430 1.367 . S
C2431 C2439 1.433 . S
C2432 H2428 0.929 . S
C2432 C2434 1.378 . S
C2432 C2436 1.350 . S
C2433 C2436 1.463 1_554 S
C2433 C2438 1.350 . S
C2433 N2441 1.424 1_554 S
C2434 H2425 0.930 . S
C2434 C2432 1.378 . S
C2434 C2435 1.367 . S
C2435 C2434 1.367 . S
C2435 C2437 1.433 . S
C2436 C2432 1.350 . S
C2436 C2433 1.463 1_556 S
C2436 N2440 1.424 1_556 S
C2437 H2427 0.929 . S
C2437 C2435 1.433 . S
C2437 N2440 1.378 1_556 S
C2438 H2429 0.929 . S
C2438 C2430 1.378 . S
C2438 C2433 1.350 . S
C2439 H2426 0.929 . S
C2439 C2431 1.433 . S
C2439 N2441 1.378 1_554 S
N2440 C2436 1.424 1_554 S
N2440 C2437 1.378 1_554 S
N2441 C2433 1.424 1_556 S
N2441 C2439 1.378 1_556 S
H2442 C2448 0.930 . S
H2443 C2452 0.930 . S
H2444 C2457 0.929 . S
H2445 C2455 0.929 . S
H2446 C2450 0.929 . S
H2447 C2456 0.929 . S
C2448 H2442 0.930 . S
C2448 C2449 1.367 . S
C2448 C2456 1.378 . S
C2449 C2448 1.367 . S
C2449 C2457 1.433 . S
C2450 H2446 0.929 . S
C2450 C2452 1.378 . S
C2450 C2454 1.350 . S
C2451 C2454 1.463 . S
C2451 C2456 1.350 . S
C2451 N2459 1.427 . S
C2452 H2443 0.930 . S
C2452 C2450 1.378 . S
C2452 C2453 1.367 . S
C2453 C2452 1.367 . S
C2453 C2455 1.433 . S
C2454 C2450 1.350 . S
C2454 C2451 1.463 . S
C2454 N2458 1.427 . S
C2455 H2445 0.929 . S
C2455 C2453 1.433 . S
C2455 N2458 1.384 . S
C2456 H2447 0.929 . S
C2456 C2448 1.378 . S
C2456 C2451 1.350 . S
C2457 H2444 0.929 . S
C2457 C2449 1.433 . S
C2457 N2459 1.384 . S
N2458 C2454 1.427 . S
N2458 C2455 1.384 . S
N2459 C2451 1.427 . S
N2459 C2457 1.384 . S
H2460 C2466 0.930 . S
H2461 C2470 0.930 . S
H2462 C2475 0.929 . S
H2463 C2473 0.929 . S
H2464 C2468 0.929 . S
H2465 C2474 0.929 . S
C2466 H2460 0.930 . S
C2466 C2467 1.367 . S
C2466 C2474 1.378 . S
C2467 C2466 1.367 . S
C2467 C2475 1.433 . S
C2468 H2464 0.929 . S
C2468 C2470 1.378 . S
C2468 C2472 1.350 . S
C2469 C2472 1.463 . S
C2469 C2474 1.350 . S
C2469 N2477 1.427 . S
C2470 H2461 0.930 . S
C2470 C2468 1.378 . S
C2470 C2471 1.367 . S
C2471 C2470 1.367 . S
C2471 C2473 1.433 . S
C2472 C2468 1.350 . S
C2472 C2469 1.463 . S
C2472 N2476 1.427 . S
C2473 H2463 0.929 . S
C2473 C2471 1.433 . S
C2473 N2476 1.384 . S
C2474 H2465 0.929 . S
C2474 C2466 1.378 . S
C2474 C2469 1.350 . S
C2475 H2462 0.929 . S
C2475 C2467 1.433 . S
C2475 N2477 1.384 . S
N2476 C2472 1.427 . S
N2476 C2473 1.384 . S
N2477 C2469 1.427 . S
N2477 C2475 1.384 . S
H2478 C2484 0.930 . S
H2479 C2488 0.930 . S
H2480 C2493 0.929 . S
H2481 C2491 0.929 . S
H2482 C2486 0.929 . S
H2483 C2492 0.929 . S
C2484 H2478 0.930 . S
C2484 C2485 1.367 . S
C2484 C2492 1.378 . S
C2485 C2484 1.367 . S
C2485 C2493 1.433 . S
C2486 H2482 0.929 . S
C2486 C2488 1.378 . S
C2486 C2490 1.350 . S
C2487 C2490 1.463 . S
C2487 C2492 1.350 . S
C2487 N2495 1.427 . S
C2488 H2479 0.930 . S
C2488 C2486 1.378 . S
C2488 C2489 1.367 . S
C2489 C2488 1.367 . S
C2489 C2491 1.433 . S
C2490 C2486 1.350 . S
C2490 C2487 1.463 . S
C2490 N2494 1.427 . S
C2491 H2481 0.929 . S
C2491 C2489 1.433 . S
C2491 N2494 1.384 . S
C2492 H2483 0.929 . S
C2492 C2484 1.378 . S
C2492 C2487 1.350 . S
C2493 H2480 0.929 . S
C2493 C2485 1.433 . S
C2493 N2495 1.384 . S
N2494 C2490 1.427 . S
N2494 C2491 1.384 . S
N2495 C2487 1.427 . S
N2495 C2493 1.384 . S
C1063 C249 1.672 1_554 S
C1067 C18 1.678 . S
C1081 C51 1.677 . S
C1085 C150 1.676 . S
C1099 C84 1.676 . S
C1103 C183 1.674 . S
C1117 C216 1.674 . S
C1121 C117 1.675 1_556 S
C1135 C282 1.674 . S
C1139 C513 1.675 1_556 S
C1153 C414 1.678 . S
C1157 C315 1.672 . S
C1171 C348 1.677 . S
C1175 C447 1.673 . S
C1189 C480 1.678 . S
C1193 C381 1.672 1_554 S
C1207 C777 1.678 . S
C1211 C546 1.673 . S
C1225 C678 1.677 . S
C1229 C579 1.675 1_556 S
C1243 C711 1.673 1_554 S
C1247 C612 1.678 . S
C1261 C744 1.676 . S
C1265 C645 1.677 . S
C1279 C1041 1.678 . S
C1283 C810 1.674 . S
C1297 C843 1.673 1_554 S
C1301 C942 1.676 . S
C1315 C975 1.673 1_556 S
C1319 C876 1.676 . S
C1333 C1008 1.677 . S
C1337 C909 1.673 . S
C1351 C21 1.374 . S
C1355 N904 1.362 . S
C1369 N277 1.365 . S
C1373 C54 1.370 1_655 S
C1387 N838 1.359 . S
C1391 C87 1.370 . S
C1405 C120 1.369 . S
C1409 N343 1.364 . S
C1423 N970 1.365 . S
C1427 C153 1.376 . S
C1441 C186 1.370 . S
C1445 N475 1.366 . S
C1459 N1036 1.363 . S
C1463 C219 1.369 . S
C1477 N409 1.359 . S
C1481 C252 1.370 1_655 S
C1495 C285 1.369 . S
C1499 N640 1.364 . S
C1513 C318 1.371 1_455 S
C1517 N13 1.360 . S
C1531 N574 1.370 . S
C1535 C351 1.375 . S
C1549 N79 1.361 . S
C1553 C384 1.373 . S
C1567 N706 1.360 . S
C1571 C417 1.371 . S
C1585 N211 1.369 . S
C1589 C450 1.373 . S
C1603 C483 1.377 . S
C1607 N772 1.369 . S
C1621 C516 1.370 1_455 S
C1625 N145 1.365 . S
C1639 C549 1.374 . S
C1643 N376 1.362 . S
C1657 N805 1.361 . S
C1661 C582 1.368 . S
C1675 N310 1.368 . S
C1679 C615 1.377 . S
C1693 C648 1.373 1_455 S
C1697 N871 1.369 . S
C1711 C681 1.372 . S
C1715 N442 1.368 . S
C1729 N1003 1.370 . S
C1733 C714 1.376 1_455 S
C1747 N508 1.365 . S
C1751 C747 1.376 . S
C1765 C780 1.375 . S
C1769 N937 1.364 . S
C1783 N112 1.361 . S
C1787 C813 1.368 . S
C1801 N541 1.365 . S
C1805 C846 1.369 . S
C1819 N46 1.362 . S
C1823 C879 1.368 . S
C1837 N607 1.370 . S
C1841 C912 1.375 1_655 S
C1855 C945 1.377 . S
C1859 N178 1.367 . S
C1873 C978 1.374 1_655 S
C1877 N739 1.370 . S
C1891 C1011 1.369 . S
C1895 N244 1.363 . S
C1909 N673 1.359 . S
C1913 C1044 1.370 . S
C1927 N2 0.771 . S
C1931 N794 0.771 . S
C1945 N35 0.760 . S
C1949 N299 0.760 . S
C1963 N68 0.745 . S
C1967 N860 0.745 . S
C1981 N365 0.752 . S
C1985 N101 0.752 . S
C1999 N926 0.756 . S
C2003 N134 0.756 . S
C2017 N167 0.741 . S
C2021 N431 0.741 . S
C2035 N200 0.772 . S
C2039 N992 0.772 . S
C2053 N233 0.758 . S
C2057 N497 0.758 . S
C2071 N530 0.748 . S
C2075 N266 0.748 . S
C2089 N332 0.756 . S
C2093 N596 0.756 . S
C2107 N662 0.748 . S
C2111 N398 0.748 . S
C2125 N464 0.763 . S
C2129 N728 0.763 . S
C2143 N563 0.771 . S
C2147 N827 0.771 . S
C2161 N893 0.749 . S
C2165 N629 0.749 . S
C2179 N695 0.772 . S
C2183 N959 0.772 . S
C2197 N1025 0.771 . S
C2201 N761 0.771 . S
C2215 C7 1.772 . S
C2219 C205 1.762 . S
C2233 C238 1.763 . S
C2237 C40 1.769 . S
C2251 C139 1.762 . S
C2255 C73 1.773 . S
C2269 C172 1.774 . S
C2273 C106 1.764 . S
C2287 C271 1.766 . S
C2291 C469 1.773 . S
C2305 C304 1.769 . S
C2309 C502 1.764 . S
C2323 C403 1.770 . S
C2327 C337 1.771 . S
C2341 C436 1.769 . S
C2345 C370 1.771 . S
C2359 C535 1.764 . S
C2363 C733 1.768 . S
C2377 C568 1.773 . S
C2381 C766 1.766 . S
C2395 C667 1.766 . S
C2399 C601 1.766 . S
C2413 C700 1.770 . S
C2417 C634 1.770 . S
C2431 C799 1.767 . S
C2435 C997 1.764 . S
C2449 C832 1.770 . S
C2453 C1030 1.763 . S
C2467 C931 1.774 . S
C2471 C865 1.765 . S
C2485 C898 1.767 . S
C2489 C964 1.773 . S
