# Generated by pormake.
# Topology bcs, (6)-cn, num edge types: 1
# Building blocks:
#     Node 0, Type 0, BuildingBlock: JUFBIX_clean_sbu_0, # of connection points: 6
#     Node 1, Type 0, BuildingBlock: JUFBIX_clean_sbu_0, # of connection points: 6
#     Node 2, Type 0, BuildingBlock: JUFBIX_clean_sbu_0, # of connection points: 6
#     Node 3, Type 0, BuildingBlock: JUFBIX_clean_sbu_0, # of connection points: 6
#     Node 4, Type 0, BuildingBlock: JUFBIX_clean_sbu_0, # of connection points: 6
#     Node 5, Type 0, BuildingBlock: JUFBIX_clean_sbu_0, # of connection points: 6
#     Node 6, Type 0, BuildingBlock: JUFBIX_clean_sbu_0, # of connection points: 6
#     Node 7, Type 0, BuildingBlock: JUFBIX_clean_sbu_0, # of connection points: 6
#     Node 8, Type 0, BuildingBlock: JUFBIX_clean_sbu_0, # of connection points: 6
#     Node 9, Type 0, BuildingBlock: JUFBIX_clean_sbu_0, # of connection points: 6
#     Node 10, Type 0, BuildingBlock: JUFBIX_clean_sbu_0, # of connection points: 6
#     Node 11, Type 0, BuildingBlock: JUFBIX_clean_sbu_0, # of connection points: 6
#     Node 12, Type 0, BuildingBlock: JUFBIX_clean_sbu_0, # of connection points: 6
#     Node 13, Type 0, BuildingBlock: JUFBIX_clean_sbu_0, # of connection points: 6
#     Node 14, Type 0, BuildingBlock: JUFBIX_clean_sbu_0, # of connection points: 6
#     Node 15, Type 0, BuildingBlock: JUFBIX_clean_sbu_0, # of connection points: 6
#     Edge 16, Type (0, 0), BuildingBlock: XUDNAN_clean_linker_2, # of connection points: 2
#     Edge 17, Type (0, 0), BuildingBlock: XUDNAN_clean_linker_2, # of connection points: 2
#     Edge 18, Type (0, 0), BuildingBlock: XUDNAN_clean_linker_2, # of connection points: 2
#     Edge 19, Type (0, 0), BuildingBlock: XUDNAN_clean_linker_2, # of connection points: 2
#     Edge 20, Type (0, 0), BuildingBlock: XUDNAN_clean_linker_2, # of connection points: 2
#     Edge 21, Type (0, 0), BuildingBlock: XUDNAN_clean_linker_2, # of connection points: 2
#     Edge 22, Type (0, 0), BuildingBlock: XUDNAN_clean_linker_2, # of connection points: 2
#     Edge 23, Type (0, 0), BuildingBlock: XUDNAN_clean_linker_2, # of connection points: 2
#     Edge 24, Type (0, 0), BuildingBlock: XUDNAN_clean_linker_2, # of connection points: 2
#     Edge 25, Type (0, 0), BuildingBlock: XUDNAN_clean_linker_2, # of connection points: 2
#     Edge 26, Type (0, 0), BuildingBlock: XUDNAN_clean_linker_2, # of connection points: 2
#     Edge 27, Type (0, 0), BuildingBlock: XUDNAN_clean_linker_2, # of connection points: 2
#     Edge 28, Type (0, 0), BuildingBlock: XUDNAN_clean_linker_2, # of connection points: 2
#     Edge 29, Type (0, 0), BuildingBlock: XUDNAN_clean_linker_2, # of connection points: 2
#     Edge 30, Type (0, 0), BuildingBlock: XUDNAN_clean_linker_2, # of connection points: 2
#     Edge 31, Type (0, 0), BuildingBlock: XUDNAN_clean_linker_2, # of connection points: 2
#     Edge 32, Type (0, 0), BuildingBlock: XUDNAN_clean_linker_2, # of connection points: 2
#     Edge 33, Type (0, 0), BuildingBlock: XUDNAN_clean_linker_2, # of connection points: 2
#     Edge 34, Type (0, 0), BuildingBlock: XUDNAN_clean_linker_2, # of connection points: 2
#     Edge 35, Type (0, 0), BuildingBlock: XUDNAN_clean_linker_2, # of connection points: 2
#     Edge 36, Type (0, 0), BuildingBlock: XUDNAN_clean_linker_2, # of connection points: 2
#     Edge 37, Type (0, 0), BuildingBlock: XUDNAN_clean_linker_2, # of connection points: 2
#     Edge 38, Type (0, 0), BuildingBlock: XUDNAN_clean_linker_2, # of connection points: 2
#     Edge 39, Type (0, 0), BuildingBlock: XUDNAN_clean_linker_2, # of connection points: 2
#     Edge 40, Type (0, 0), BuildingBlock: XUDNAN_clean_linker_2, # of connection points: 2
#     Edge 41, Type (0, 0), BuildingBlock: XUDNAN_clean_linker_2, # of connection points: 2
#     Edge 42, Type (0, 0), BuildingBlock: XUDNAN_clean_linker_2, # of connection points: 2
#     Edge 43, Type (0, 0), BuildingBlock: XUDNAN_clean_linker_2, # of connection points: 2
#     Edge 44, Type (0, 0), BuildingBlock: XUDNAN_clean_linker_2, # of connection points: 2
#     Edge 45, Type (0, 0), BuildingBlock: XUDNAN_clean_linker_2, # of connection points: 2
#     Edge 46, Type (0, 0), BuildingBlock: XUDNAN_clean_linker_2, # of connection points: 2
#     Edge 47, Type (0, 0), BuildingBlock: XUDNAN_clean_linker_2, # of connection points: 2
#     Edge 48, Type (0, 0), BuildingBlock: XUDNAN_clean_linker_2, # of connection points: 2
#     Edge 49, Type (0, 0), BuildingBlock: XUDNAN_clean_linker_2, # of connection points: 2
#     Edge 50, Type (0, 0), BuildingBlock: XUDNAN_clean_linker_2, # of connection points: 2
#     Edge 51, Type (0, 0), BuildingBlock: XUDNAN_clean_linker_2, # of connection points: 2
#     Edge 52, Type (0, 0), BuildingBlock: XUDNAN_clean_linker_2, # of connection points: 2
#     Edge 53, Type (0, 0), BuildingBlock: XUDNAN_clean_linker_2, # of connection points: 2
#     Edge 54, Type (0, 0), BuildingBlock: XUDNAN_clean_linker_2, # of connection points: 2
#     Edge 55, Type (0, 0), BuildingBlock: XUDNAN_clean_linker_2, # of connection points: 2
#     Edge 56, Type (0, 0), BuildingBlock: XUDNAN_clean_linker_2, # of connection points: 2
#     Edge 57, Type (0, 0), BuildingBlock: XUDNAN_clean_linker_2, # of connection points: 2
#     Edge 58, Type (0, 0), BuildingBlock: XUDNAN_clean_linker_2, # of connection points: 2
#     Edge 59, Type (0, 0), BuildingBlock: XUDNAN_clean_linker_2, # of connection points: 2
#     Edge 60, Type (0, 0), BuildingBlock: XUDNAN_clean_linker_2, # of connection points: 2
#     Edge 61, Type (0, 0), BuildingBlock: XUDNAN_clean_linker_2, # of connection points: 2
#     Edge 62, Type (0, 0), BuildingBlock: XUDNAN_clean_linker_2, # of connection points: 2
#     Edge 63, Type (0, 0), BuildingBlock: XUDNAN_clean_linker_2, # of connection points: 2
# Relax obj value: 0.393
# Max RMSD: 0.295
# Mean RMSD: 0.241
data_MOF--net-bcs--node1-JUFBIX_clean_sbu_0--edge1-XUDNAN_clean_linker_2
_symmetry_space_group_name_H-M    P1
_symmetry_Int_Tables_number       1
_symmetry_cell_setting            triclinic
loop_
_symmetry_equiv_pos_as_xyz
'x, y, z'
_cell_length_a     35.584669
_cell_length_b     37.139864
_cell_length_c     36.276155
_cell_angle_alpha  98.375983
_cell_angle_beta   97.701304
_cell_angle_gamma 88.979872
loop_
_atom_site_label
_atom_site_type_symbol
_atom_site_fract_x
_atom_site_fract_y
_atom_site_fract_z
_atom_type_partial_charge
Co0 Co 0.98112 0.99286 1.00674 0.0
C1 C 0.97249 0.05774 0.05825 0.0
Co2 Co 0.02687 0.0325 1.00547 0.0
C3 C 0.93448 0.94285 0.03797 0.0
C4 C 0.92322 0.93761 0.97797 0.0
N5 N 0.94366 0.9573 1.00787 0.0
N6 N 0.90955 0.91477 0.02787 0.0
C7 C 0.9026 0.91145 0.99007 0.0
H8 H 0.94746 0.9514 0.06658 0.0
H9 H 0.92448 0.941 0.94904 0.0
C10 C 0.03543 0.9676 0.95376 0.0
N11 N 0.06379 0.06793 1.00274 0.0
C12 C 0.07597 0.07421 0.97031 0.0
C13 C 0.07972 0.09498 0.02874 0.0
N14 N 0.09874 0.10384 0.97478 0.0
C15 C 0.1011 0.11703 1.01169 0.0
C16 C 0.0502 0.98031 0.05739 0.0
O17 O 1.0048 0.95967 0.96629 0.0
O18 O 0.04957 0.99906 0.96633 0.0
O19 O 0.06054 1.00893 0.04489 0.0
O20 O 0.01605 0.96928 0.04566 0.0
O21 O 1.0027 0.06589 0.04508 0.0
H22 H 0.07524 0.09909 0.05797 0.0
H23 H 0.06687 0.05811 0.94334 0.0
O24 O 0.95882 0.02582 0.04664 0.0
O25 O 0.9465 0.01838 0.96696 0.0
O26 O 0.99389 0.05468 0.9668 0.0
C27 C 0.9594 0.04608 0.9546 0.0
H28 H 0.88472 0.89077 0.97231 0.0
H29 H 0.11707 0.14091 0.02544 0.0
Co30 Co 0.2814 0.77287 0.24516 0.0
C31 C 0.27372 0.81652 0.31359 0.0
Co32 Co 0.23195 0.75997 0.27177 0.0
C33 C 0.32747 0.79926 0.1935 0.0
C34 C 0.3603 0.78465 0.24304 0.0
N35 N 0.32435 0.78569 0.22566 0.0
N36 N 0.36392 0.80612 0.19026 0.0
C37 C 0.38463 0.79676 0.22118 0.0
H38 H 0.30369 0.80377 0.17275 0.0
H39 H 0.36846 0.77617 0.27025 0.0
C40 C 0.23987 0.71623 0.20377 0.0
N41 N 0.18912 0.74686 0.29168 0.0
C42 C 0.18794 0.72937 0.32172 0.0
C43 C 0.15274 0.74737 0.27547 0.0
N44 N 0.1525 0.71831 0.32452 0.0
C45 C 0.13025 0.73001 0.29556 0.0
C46 C 0.21491 0.81386 0.21916 0.0
O47 O 0.26974 0.73464 0.20413 0.0
O48 O 0.21979 0.72328 0.23032 0.0
O49 O 0.20026 0.7967 0.24226 0.0
O50 O 0.25007 0.80747 0.21663 0.0
O51 O 0.24467 0.79704 0.31362 0.0
H52 H 0.14336 0.75763 0.24937 0.0
H53 H 0.21289 0.72366 0.34044 0.0
O54 O 0.29279 0.81069 0.28611 0.0
O55 O 0.31245 0.73805 0.27405 0.0
O56 O 0.26465 0.72349 0.30029 0.0
C57 C 0.29999 0.71919 0.29676 0.0
H58 H 0.41517 0.79905 0.22765 0.0
H59 H 0.10027 0.72437 0.28787 0.0
Co60 Co 0.52097 0.98336 0.52183 0.0
C61 C 0.57341 0.04006 0.5315 0.0
Co62 Co 0.49941 0.03244 0.49862 0.0
C63 C 0.57909 0.93285 0.53968 0.0
C64 C 0.52687 0.91823 0.55684 0.0
N65 N 0.54217 0.94203 0.53837 0.0
N66 N 0.58797 0.90514 0.55939 0.0
C67 C 0.55501 0.89549 0.56984 0.0
H68 H 0.59959 0.94764 0.52819 0.0
H69 H 0.49784 0.91903 0.56276 0.0
C70 C 0.44668 0.97589 0.48907 0.0
N71 N 0.47968 0.07447 0.48292 0.0
C72 C 0.44543 0.08924 0.48753 0.0
C73 C 0.49811 0.09926 0.46818 0.0
N74 N 0.44227 0.12252 0.47705 0.0
C75 C 0.47513 0.12899 0.46469 0.0
C76 C 0.5288 0.98572 0.44615 0.0
O77 O 0.47377 0.95922 0.50584 0.0
O78 O 0.45151 1.00848 0.48366 0.0
O79 O 0.51248 0.01632 0.45086 0.0
O80 O 0.53575 0.96772 0.47358 0.0
O81 O 0.54702 0.05579 0.51302 0.0
H82 H 0.52668 0.09619 0.46108 0.0
H83 H 0.42363 0.07632 0.49921 0.0
O84 O 0.56799 1.0083 0.53853 0.0
O85 O 0.50636 0.99915 0.56966 0.0
O86 O 0.48695 0.04906 0.54712 0.0
C87 C 0.49296 0.03107 0.5745 0.0
H88 H 0.55198 0.87554 0.58823 0.0
H89 H 0.48169 0.15326 0.45348 0.0
Co90 Co 0.23731 0.28999 0.76486 0.0
C91 C 0.30543 0.28965 0.81271 0.0
Co92 Co 0.27383 0.24323 0.75075 0.0
C93 C 0.17409 0.33983 0.77218 0.0
C94 C 0.22808 0.36628 0.77935 0.0
N95 N 0.21157 0.33315 0.77356 0.0
N96 N 0.16667 0.3759 0.77649 0.0
C97 C 0.20062 0.39253 0.78113 0.0
H98 H 0.15273 0.31871 0.76805 0.0
H99 H 0.25828 0.37105 0.78207 0.0
C100 C 0.20538 0.24295 0.70354 0.0
N101 N 0.29999 0.20041 0.74207 0.0
C102 C 0.33751 0.19472 0.7425 0.0
C103 C 0.28435 0.16698 0.73585 0.0
N104 N 0.34609 0.15884 0.73665 0.0
C105 C 0.3124 0.14149 0.73244 0.0
C106 C 0.22035 0.2347 0.80207 0.0
O107 O 0.20016 0.27351 0.72291 0.0
O108 O 0.23563 0.22543 0.71122 0.0
O109 O 0.24767 0.22129 0.78519 0.0
O110 O 0.20927 0.26682 0.79762 0.0
O111 O 0.31221 0.26116 0.79074 0.0
H112 H 0.25435 0.16146 0.73381 0.0
H113 H 0.35782 0.21672 0.74684 0.0
O114 O 0.27413 0.30609 0.80683 0.0
O115 O 0.26541 0.31268 0.73247 0.0
O116 O 0.29991 0.26543 0.7157 0.0
C117 C 0.2908 0.29844 0.71342 0.0
H118 H 0.2054 0.42163 0.78705 0.0
H119 H 0.30768 0.11246 0.72626 0.0
Co120 Co 0.01862 0.01551 0.47915 0.0
C121 C 0.03121 0.07415 0.53494 0.0
Co122 Co 0.99655 1.00679 0.53115 0.0
C123 C 0.03317 0.04906 0.41576 0.0
C124 C 0.0566 0.99548 0.41474 0.0
N125 N 0.0367 0.02048 0.43496 0.0
N126 N 0.05029 0.04296 0.38442 0.0
C127 C 0.06511 1.00927 0.38371 0.0
H128 H 0.01917 0.07419 0.42517 0.0
H129 H 0.06463 0.96901 0.42228 0.0
C130 C 0.98388 0.9481 0.47544 0.0
N131 N 0.97823 1.00132 0.57545 0.0
C132 C 0.99813 1.00034 0.60972 0.0
C133 C 0.9418 0.99633 0.58012 0.0
N134 N 0.97562 0.99472 0.63543 0.0
C135 C 0.94012 0.99234 0.6169 0.0
C136 C 0.94411 0.03534 0.48027 0.0
O137 O 1.0016 0.9681 0.45799 0.0
O138 O 0.97883 0.95924 0.50923 0.0
O139 O 0.94952 0.02629 0.51291 0.0
O140 O 0.97127 0.0334 0.46071 0.0
O141 O 0.01449 0.05375 0.55286 0.0
H142 H 0.91805 0.99438 0.55795 0.0
H143 H 0.02865 1.00278 0.61559 0.0
O144 O 0.03528 0.06343 0.50078 0.0
O145 O 0.06634 0.99762 0.49778 0.0
O146 O 0.04377 0.98785 0.54877 0.0
C147 C 0.07148 0.98781 0.53011 0.0
H148 H 0.08106 0.99563 0.36237 0.0
H149 H 0.91501 0.9858 0.62849 0.0
Co150 Co 0.26208 0.7495 0.77521 0.0
C151 C 0.31222 0.80778 0.783 0.0
Co152 Co 0.25092 0.78485 0.73212 0.0
C153 C 0.26981 0.68831 0.81592 0.0
C154 C 0.26929 0.73952 0.85169 0.0
N155 N 0.26845 0.72447 0.81543 0.0
N156 N 0.27095 0.68025 0.85109 0.0
C157 C 0.27077 0.71238 0.87368 0.0
H158 H 0.27001 0.66831 0.79104 0.0
H159 H 0.26895 0.76844 0.86152 0.0
C160 C 0.20057 0.72731 0.72407 0.0
N161 N 0.2446 0.80965 0.69165 0.0
C162 C 0.24663 0.84561 0.69032 0.0
C163 C 0.24192 0.79365 0.65556 0.0
N164 N 0.24596 0.85251 0.65474 0.0
C165 C 0.24277 0.8199 0.63283 0.0
C166 C 0.30414 0.72353 0.71579 0.0
O167 O 0.22116 0.71854 0.75266 0.0
O168 O 0.20886 0.7552 0.71041 0.0
O169 O 0.2866 0.75125 0.7047 0.0
O170 O 0.29811 0.71624 0.74794 0.0
O171 O 0.292 0.81457 0.75341 0.0
H172 H 0.23985 0.76463 0.64637 0.0
H173 H 0.24886 0.86626 0.71488 0.0
O174 O 0.3038 0.7807 0.7981 0.0
O175 O 0.2255 0.78216 0.80197 0.0
O176 O 0.21567 0.81886 0.76013 0.0
C177 C 0.20861 0.81047 0.79159 0.0
H178 H 0.27331 0.71598 0.90407 0.0
H179 H 0.23969 0.81549 0.60241 0.0
Co180 Co 0.49527 0.01638 1.00678 0.0
C181 C 0.54392 0.03619 0.07189 0.0
Co182 Co 0.54577 0.98145 0.01196 0.0
C183 C 0.42853 0.04915 0.03054 0.0
C184 C 0.43863 0.06658 0.97904 0.0
N185 N 0.45179 0.04406 1.00388 0.0
N186 N 0.40165 0.07399 0.02365 0.0
C187 C 0.408 0.08558 0.99158 0.0
H188 H 0.43298 0.03705 0.05619 0.0
H189 H 0.45168 0.07042 0.95462 0.0
C190 C 0.49691 0.96187 0.94691 0.0
N191 N 0.58941 0.95422 0.01617 0.0
C192 C 0.62517 0.96702 0.02058 0.0
C193 C 0.59289 0.91778 0.01242 0.0
N194 N 0.65106 0.94008 0.01846 0.0
C195 C 0.63068 0.909 0.01373 0.0
C196 C 0.48775 0.95413 0.0418 0.0
O197 O 0.47818 0.98903 0.96005 0.0
O198 O 0.52787 0.95306 0.96518 0.0
O199 O 0.52203 0.9493 0.03652 0.0
O200 O 0.47042 0.98207 0.03165 0.0
O201 O 0.56308 1.00944 0.05869 0.0
H202 H 0.56939 0.89883 1.00682 0.0
H203 H 0.63185 0.99566 0.02323 0.0
O204 O 0.5128 0.04426 0.0536 0.0
O205 O 0.52036 0.04963 0.9818 0.0
O206 O 0.56977 1.01393 0.9865 0.0
C207 C 0.55419 0.04224 0.97557 0.0
H208 H 0.39279 0.10735 0.97923 0.0
H209 H 0.64178 0.88172 1.00808 0.0
Co210 Co 0.25404 0.26711 0.264 0.0
C211 C 0.25948 0.3375 0.30388 0.0
Co212 Co 0.31129 0.29141 0.27399 0.0
C213 C 0.18981 0.22116 0.26402 0.0
C214 C 0.17458 0.26748 0.23648 0.0
N215 N 0.20449 0.25079 0.25379 0.0
N216 N 0.15188 0.2188 0.25417 0.0
C217 C 0.1422 0.24789 0.23671 0.0
H218 H 0.20649 0.20262 0.27997 0.0
H219 H 0.17604 0.29283 0.22536 0.0
C220 C 0.30555 0.22096 0.23392 0.0
N221 N 0.36063 0.3082 0.28417 0.0
C222 C 0.37369 0.33959 0.27629 0.0
C223 C 0.39145 0.29164 0.29996 0.0
N224 N 0.41153 0.34336 0.28618 0.0
C225 C 0.42284 0.31316 0.30113 0.0
C226 C 0.2918 0.25485 0.33093 0.0
O227 O 0.27104 0.22296 0.23942 0.0
O228 O 0.32784 0.24746 0.24728 0.0
O229 O 0.31774 0.27171 0.3196 0.0
O230 O 0.26035 0.24853 0.31023 0.0
O231 O 0.29447 0.33492 0.30039 0.0
H232 H 0.39124 0.26527 0.30924 0.0
H233 H 0.35587 0.35855 0.26196 0.0
O234 O 0.23721 0.31155 0.28876 0.0
O235 O 0.24828 0.28532 0.21807 0.0
O236 O 0.30414 0.31148 0.22804 0.0
C237 C 0.27317 0.30354 0.20686 0.0
H238 H 0.11372 0.25496 0.22556 0.0
H239 H 0.45176 0.30665 0.3114 0.0
Co240 Co 0.52202 0.51266 0.96923 0.0
C241 C 0.53539 0.57806 0.01641 0.0
Co242 Co 0.50015 0.51426 0.02337 0.0
C243 C 0.53428 0.53924 0.902 0.0
C244 C 0.56012 0.48709 0.90504 0.0
N245 N 0.53842 0.51208 0.92309 0.0
N246 N 0.55301 0.53259 0.87187 0.0
C247 C 0.56955 0.49988 0.87366 0.0
H248 H 0.52 0.56461 0.91004 0.0
H249 H 0.56998 0.46208 0.91507 0.0
C250 C 0.48601 0.44887 0.97646 0.0
N251 N 0.48408 0.51589 0.0698 0.0
C252 C 0.49312 0.49275 0.09496 0.0
C253 C 0.46323 0.54215 0.08715 0.0
N254 N 0.47894 0.50357 0.12746 0.0
C255 C 0.45989 0.53458 0.12258 0.0
C256 C 0.44707 0.53492 0.96934 0.0
O257 O 0.50273 0.46459 0.9543 0.0
O258 O 0.48334 0.46531 1.00932 0.0
O259 O 0.45219 0.52967 1.00339 0.0
O260 O 0.47453 0.53066 0.95011 0.0
O261 O 0.51651 0.56289 0.03708 0.0
H262 H 0.45182 0.56565 0.07506 0.0
H263 H 0.50972 0.46834 0.08936 0.0
O264 O 0.54161 0.56094 0.98488 0.0
O265 O 0.56911 0.49467 0.98837 0.0
O266 O 0.54864 0.49874 0.04316 0.0
C267 C 0.57522 0.49193 0.02307 0.0
H268 H 0.58838 0.48699 0.85461 0.0
H269 H 0.44513 0.55094 0.1433 0.0
Co270 Co 0.7619 0.25072 0.27993 0.0
C271 C 0.80747 0.30927 0.27813 0.0
Co272 Co 0.74641 0.2775 0.2307 0.0
C273 C 0.77356 0.19552 0.32779 0.0
C274 C 0.77661 0.24944 0.3585 0.0
N275 N 0.77258 0.23087 0.32336 0.0
N276 N 0.77753 0.19133 0.36437 0.0
C277 C 0.77965 0.22514 0.38382 0.0
H278 H 0.77086 0.17332 0.30466 0.0
H279 H 0.77687 0.27879 0.36525 0.0
C280 C 0.70159 0.21795 0.23281 0.0
N281 N 0.73597 0.29737 0.1872 0.0
C282 C 0.73582 0.33266 0.18252 0.0
C283 C 0.73233 0.27859 0.15216 0.0
N284 N 0.73288 0.33656 0.1459 0.0
C285 C 0.73042 0.30266 0.12668 0.0
C286 C 0.80285 0.21985 0.21978 0.0
O287 O 0.7217 0.21774 0.26429 0.0
O288 O 0.70802 0.24172 0.21257 0.0
O289 O 0.78459 0.24589 0.20617 0.0
O290 O 0.79725 0.21527 0.25304 0.0
O291 O 0.78483 0.31341 0.24895 0.0
H292 H 0.73203 0.24922 0.14564 0.0
H293 H 0.73878 0.35499 0.2055 0.0
O294 O 0.80265 0.28311 0.2958 0.0
O295 O 0.72655 0.28616 0.30632 0.0
O296 O 0.70813 0.3093 0.25514 0.0
C297 C 0.70513 0.30872 0.28986 0.0
H298 H 0.78422 0.23176 0.41415 0.0
H299 H 0.72678 0.29582 0.09636 0.0
Co300 Co 0.97186 0.53858 0.5009 0.0
C301 C 0.02251 0.56168 0.56579 0.0
Co302 Co 0.02074 0.50273 0.51141 0.0
C303 C 0.91435 0.58257 0.52871 0.0
C304 C 0.90627 0.57839 0.46883 0.0
N305 N 0.92933 0.56769 0.49794 0.0
N306 N 0.88343 0.60255 0.52048 0.0
C307 C 0.87765 0.59991 0.48275 0.0
H308 H 0.92573 0.57855 0.55703 0.0
H309 H 0.91002 0.5711 0.43958 0.0
C310 C 0.9704 0.47989 0.44619 0.0
N311 N 0.06347 0.47423 0.51531 0.0
C312 C 0.08257 0.46255 0.48631 0.0
C313 C 0.08559 0.46543 0.54593 0.0
N314 N 0.11592 0.44727 0.49734 0.0
C315 C 0.1182 0.44897 0.53491 0.0
C316 C 0.96211 0.48215 0.54429 0.0
O317 O 0.95179 0.50816 0.45667 0.0
O318 O 1.00108 0.47279 0.46606 0.0
O319 O 0.99587 0.47318 0.53928 0.0
O320 O 0.9473 0.50936 0.5302 0.0
O321 O 0.04007 0.53255 0.55633 0.0
H322 H 0.07931 0.47214 0.57449 0.0
H323 H 0.07327 0.46736 0.45778 0.0
O324 O 0.99259 0.56922 0.54526 0.0
O325 O 0.99666 0.56756 0.47173 0.0
O326 O 0.04569 0.53264 0.48365 0.0
C327 C 0.03106 0.55932 0.46856 0.0
H328 H 0.85507 0.61313 0.46665 0.0
H329 H 0.14199 0.43982 0.55307 0.0
Co330 Co 0.74476 0.78206 0.25339 0.0
C331 C 0.81148 0.78125 0.30279 0.0
Co332 Co 0.77482 0.72987 0.24811 0.0
C333 C 0.68527 0.8338 0.26262 0.0
C334 C 0.73681 0.85919 0.25555 0.0
N335 N 0.72142 0.82661 0.25716 0.0
N336 N 0.67746 0.86963 0.26495 0.0
C337 C 0.70979 0.88574 0.26035 0.0
H338 H 0.6653 0.81319 0.26585 0.0
H339 H 0.76611 0.86349 0.25231 0.0
C340 C 0.70813 0.7313 0.19814 0.0
N341 N 0.79735 0.68464 0.24426 0.0
C342 C 0.83373 0.67506 0.24179 0.0
C343 C 0.7792 0.65321 0.24493 0.0
N344 N 0.83895 0.6388 0.24091 0.0
C345 C 0.80462 0.62509 0.24298 0.0
C346 C 0.72145 0.7351 0.30029 0.0
O347 O 0.70602 0.76365 0.21469 0.0
O348 O 0.73604 0.71162 0.20844 0.0
O349 O 0.74597 0.71491 0.28507 0.0
O350 O 0.71594 0.76669 0.29073 0.0
O351 O 0.81355 0.74831 0.28767 0.0
H352 H 0.74926 0.65085 0.24667 0.0
H353 H 0.85565 0.69423 0.23976 0.0
O354 O 0.78363 0.80068 0.29188 0.0
O355 O 0.77314 0.79706 0.21666 0.0
O356 O 0.80391 0.74548 0.21086 0.0
C357 C 0.79795 0.77721 0.20152 0.0
H358 H 0.71424 0.91479 0.26266 0.0
H359 H 0.79816 0.5967 0.24281 0.0
Co360 Co 0.77722 0.2708 0.74338 0.0
C361 C 0.77722 0.3154 0.81177 0.0
Co362 Co 0.73163 0.25829 0.77517 0.0
C363 C 0.82187 0.31488 0.70697 0.0
C364 C 0.84192 0.26001 0.70189 0.0
N365 N 0.81603 0.28216 0.71733 0.0
N366 N 0.84988 0.31409 0.68511 0.0
C367 C 0.8628 0.27956 0.68211 0.0
H368 H 0.8053 0.33877 0.71489 0.0
H369 H 0.84453 0.23125 0.70373 0.0
C370 C 0.73261 0.21331 0.70692 0.0
N371 N 0.69282 0.24675 0.80133 0.0
C372 C 0.68784 0.21425 0.81257 0.0
C373 C 0.6664 0.26859 0.81629 0.0
N374 N 0.65994 0.2149 0.83458 0.0
C375 C 0.64611 0.24908 0.83668 0.0
C376 C 0.70789 0.31078 0.72265 0.0
O377 O 0.76037 0.23324 0.704 0.0
O378 O 0.71622 0.21918 0.7363 0.0
O379 O 0.6969 0.29255 0.74697 0.0
O380 O 0.74258 0.30621 0.71707 0.0
O381 O 0.74761 0.29765 0.81412 0.0
H382 H 0.66308 0.29717 0.81378 0.0
H383 H 0.70503 0.19064 0.80528 0.0
O384 O 0.79413 0.30804 0.78292 0.0
O385 O 0.81121 0.23505 0.76992 0.0
O386 O 0.7668 0.22422 0.80269 0.0
C387 C 0.80075 0.21797 0.79534 0.0
H388 H 0.88458 0.26872 0.66546 0.0
H389 H 0.62419 0.25979 0.85321 0.0
Co390 Co 0.76584 0.78311 0.79457 0.0
C391 C 0.78669 0.84778 0.84158 0.0
Co392 Co 0.82455 0.80098 0.79492 0.0
C393 C 0.70163 0.73742 0.79241 0.0
C394 C 0.68517 0.79315 0.79315 0.0
N395 N 0.71558 0.77103 0.79315 0.0
N396 N 0.66365 0.73745 0.79229 0.0
C397 C 0.65322 0.77263 0.79271 0.0
H398 H 0.71937 0.71348 0.79209 0.0
H399 H 0.68626 0.82234 0.79395 0.0
C400 C 0.8043 0.73652 0.74735 0.0
N401 N 0.87505 0.81289 0.79733 0.0
C402 C 0.88919 0.84491 0.79227 0.0
C403 C 0.90569 0.7926 0.8067 0.0
N404 N 0.92751 0.84569 0.79819 0.0
C405 C 0.93798 0.81265 0.80718 0.0
C406 C 0.81256 0.75878 0.85038 0.0
O407 O 0.77202 0.74242 0.7582 0.0
O408 O 0.83181 0.7576 0.76189 0.0
O409 O 0.83678 0.77694 0.83797 0.0
O410 O 0.77904 0.75553 0.83357 0.0
O411 O 0.81741 0.84405 0.82748 0.0
H412 H 0.9046 0.76506 0.81295 0.0
H413 H 0.87143 0.86693 0.78364 0.0
O414 O 0.76043 0.82426 0.83118 0.0
O415 O 0.75241 0.8103 0.75564 0.0
O416 O 0.81106 0.82539 0.75192 0.0
C417 C 0.77593 0.82526 0.73929 0.0
H418 H 0.62479 0.78315 0.79373 0.0
H419 H 0.96683 0.80345 0.81352 0.0
Co420 Co 0.48239 0.49605 0.50501 0.0
C421 C 0.47731 0.56136 0.5582 0.0
Co422 Co 0.53168 0.53294 0.50753 0.0
C423 C 0.43232 0.45621 0.5408 0.0
C424 C 0.42697 0.43565 0.48223 0.0
N425 N 0.44405 0.46221 0.50809 0.0
N426 N 0.4088 0.42718 0.53665 0.0
C427 C 0.40539 0.41413 0.49966 0.0
H428 H 0.44241 0.47191 0.56773 0.0
H429 H 0.43093 0.43138 0.45286 0.0
C430 C 0.53667 0.46829 0.45394 0.0
N431 N 0.57183 0.5659 0.50404 0.0
C432 C 0.57182 0.59162 0.48065 0.0
C433 C 0.60901 0.56178 0.51622 0.0
N434 N 0.60718 0.60292 0.4773 0.0
C435 C 0.63054 0.5842 0.5 0.0
C436 C 0.54969 0.47929 0.55785 0.0
O437 O 0.50408 0.46204 0.46366 0.0
O438 O 0.55304 0.49809 0.46921 0.0
O439 O 0.564 0.50753 0.54797 0.0
O440 O 0.51544 0.47147 0.54323 0.0
O441 O 0.5089 0.56824 0.54668 0.0
H442 H 0.62026 0.54189 0.53375 0.0
H443 H 0.54663 0.60025 0.46416 0.0
O444 O 0.46209 0.53038 0.54515 0.0
O445 O 0.44887 0.52193 0.46652 0.0
O446 O 0.49852 0.55598 0.46787 0.0
C447 C 0.46351 0.54915 0.45515 0.0
H448 H 0.38867 0.39063 0.48614 0.0
H449 H 0.66119 0.58564 0.50372 0.0
Co450 Co 0.02696 0.47882 0.02576 0.0
C451 C 0.07592 0.5374 0.04172 0.0
Co452 Co 0.99943 0.52954 0.01224 0.0
C453 C 0.08575 0.42642 0.02855 0.0
C454 C 0.03651 0.40747 0.04798 0.0
N455 N 0.04977 0.43539 0.03358 0.0
N456 N 0.09613 0.39449 0.04023 0.0
C457 C 0.06503 0.38227 0.0522 0.0
H458 H 0.10453 0.44388 0.01798 0.0
H459 H 1.00867 0.40644 0.05664 0.0
C460 C 0.95045 0.47143 0.99601 0.0
N461 N 0.97845 0.57368 1.00432 0.0
C462 C 0.94473 0.58783 0.01206 0.0
C463 C 0.99658 0.60074 0.99274 0.0
N464 N 0.94183 0.62294 1.00673 0.0
C465 C 0.97416 0.63109 0.99435 0.0
C466 C 0.02747 0.49154 0.95215 0.0
O467 O 0.97992 0.45459 1.00817 0.0
O468 O 0.95194 0.50564 0.99633 0.0
O469 O 1.0102 0.52084 0.96184 0.0
O470 O 0.03844 0.47088 0.97637 0.0
O471 O 0.04653 0.55316 0.02827 0.0
H472 H 0.02449 0.59863 0.98393 0.0
H473 H 0.923 0.57294 0.02174 0.0
O474 O 0.07437 0.50359 0.04321 0.0
O475 O 0.01491 0.48666 0.07563 0.0
O476 O 0.9888 0.5381 0.06222 0.0
C477 C 0.99825 0.51623 0.08564 0.0
H478 H 0.06375 0.35828 0.06573 0.0
H479 H 0.98047 0.65686 0.98587 0.0
H480 H 0.18611 0.25304 0.86796 0.0
H481 H 0.21047 0.16199 0.78521 0.0
H482 H 0.18143 0.11996 0.8197 0.0
H483 H 0.20769 0.20485 0.94803 0.0
H484 H 0.1706 0.22546 0.9732 0.0
H485 H 0.19116 0.24994 0.94143 0.0
H486 H 0.1249 0.25811 0.90471 0.0
H487 H 0.10395 0.2342 0.93671 0.0
H488 H 0.09552 0.21871 0.88685 0.0
H489 H 0.15039 0.08693 0.86246 0.0
H490 H 0.12084 0.0646 0.91244 0.0
H491 H 0.11756 0.17497 0.97096 0.0
C492 C 0.18491 0.22431 0.85699 0.0
C493 C 0.2006 0.21096 0.82358 0.0
C494 C 0.19892 0.17302 0.81064 0.0
C495 C 0.18232 0.14882 0.83004 0.0
C496 C 0.16765 0.16255 0.86296 0.0
C497 C 0.16886 0.19934 0.87662 0.0
C498 C 0.1522 0.2062 0.91371 0.0
C499 C 0.18221 0.2226 0.94599 0.0
C500 C 0.11705 0.23077 0.91028 0.0
C501 C 0.14144 0.16763 0.91845 0.0
C502 C 0.15046 0.14306 0.88855 0.0
C503 C 0.14315 0.10595 0.88599 0.0
C504 C 0.12611 0.09348 0.91455 0.0
C505 C 0.11658 0.11778 0.94582 0.0
C506 C 0.12465 0.1555 0.94771 0.0
H507 H 0.04003 0.91909 0.09682 0.0
H508 H 0.12712 0.99168 0.07744 0.0
H509 H 0.17511 0.95853 0.11496 0.0
H510 H 0.08069 0.91058 0.19504 0.0
H511 H 0.06857 0.86319 0.1917 0.0
H512 H 0.0402 0.89205 0.16305 0.0
H513 H 0.05055 0.84801 0.10344 0.0
H514 H 0.07899 0.81904 0.13189 0.0
H515 H 0.09816 0.8363 0.09436 0.0
H516 H 0.21646 0.91517 0.15339 0.0
H517 H 0.24557 0.8696 0.19121 0.0
H518 H 0.13452 0.8238 0.19223 0.0
C519 C 0.06915 0.92829 0.10055 0.0
C520 C 0.07876 0.95905 0.08321 0.0
C521 C 0.11781 0.96904 0.08967 0.0
C522 C 0.14576 0.94998 0.11122 0.0
C523 C 0.13548 0.92018 0.12753 0.0
C524 C 0.09793 0.90949 0.12284 0.0
C525 C 0.09499 0.87661 0.14429 0.0
C526 C 0.06958 0.88617 0.17536 0.0
C527 C 0.07975 0.84299 0.11686 0.0
C528 C 0.1365 0.87041 0.16149 0.0
C529 C 0.15921 0.89593 0.15093 0.0
C530 C 0.19852 0.89548 0.16186 0.0
C531 C 0.21507 0.869 0.1837 0.0
C532 C 0.19331 0.84229 0.19605 0.0
C533 C 0.15282 0.84357 0.18441 0.0
H534 H 0.41279 0.97412 0.41748 0.0
H535 H 0.40474 0.93054 0.52053 0.0
H536 H 0.35111 0.89123 0.48808 0.0
H537 H 0.31072 0.96804 0.37669 0.0
H538 H 0.32226 0.95313 0.32999 0.0
H539 H 0.35407 0.98308 0.36308 0.0
H540 H 0.40895 0.93721 0.35371 0.0
H541 H 0.3774 0.9072 0.32074 0.0
H542 H 0.40317 0.89081 0.36123 0.0
H543 H 0.30192 0.85309 0.44273 0.0
H544 H 0.2678 0.8141 0.38761 0.0
H545 H 0.31322 0.87863 0.31339 0.0
C546 C 0.39871 0.95724 0.43345 0.0
C547 C 0.4119 0.95595 0.47165 0.0
C548 C 0.39434 0.93227 0.49137 0.0
C549 C 0.36386 0.91002 0.4732 0.0
C550 C 0.3519 0.91134 0.43515 0.0
C551 C 0.36915 0.9341 0.41542 0.0
C552 C 0.35525 0.9265 0.37373 0.0
C553 C 0.33432 0.95966 0.36008 0.0
C554 C 0.38814 0.91472 0.35104 0.0
C555 C 0.32815 0.89535 0.37287 0.0
C556 C 0.3257 0.88767 0.40864 0.0
C557 C 0.3034 0.85907 0.41464 0.0
C558 C 0.28399 0.83717 0.38323 0.0
C559 C 0.28786 0.84349 0.34638 0.0
C560 C 0.30962 0.87338 0.34131 0.0
H561 H 0.36274 0.08634 0.72452 0.0
H562 H 0.41283 0.19376 0.73433 0.0
H563 H 0.46828 0.16634 0.70861 0.0
H564 H 0.4578 0.03257 0.73372 0.0
H565 H 0.4366 0.99646 0.69892 0.0
H566 H 0.4083 0.02175 0.7315 0.0
H567 H 0.3605 0.03683 0.67549 0.0
H568 H 0.38862 1.01223 0.64295 0.0
H569 H 0.37718 0.05928 0.63987 0.0
H570 H 0.50608 0.13275 0.66452 0.0
H571 H 0.52352 0.09521 0.60761 0.0
H572 H 0.45039 1.00863 0.62379 0.0
C573 C 0.38562 0.10425 0.72238 0.0
C574 C 0.38235 0.14252 0.73061 0.0
C575 C 0.41378 0.16447 0.72792 0.0
C576 C 0.44589 0.14902 0.71356 0.0
C577 C 0.44655 0.11152 0.70249 0.0
C578 C 0.41751 0.08922 0.70744 0.0
C579 C 0.42112 0.05113 0.68659 0.0
C580 C 0.4316 0.02387 0.71434 0.0
C581 C 0.38473 0.03925 0.65963 0.0
C582 C 0.45393 0.05677 0.66552 0.0
C583 C 0.46927 0.09136 0.67642 0.0
C584 C 0.49534 0.10524 0.65669 0.0
C585 C 0.50478 0.08395 0.62425 0.0
C586 C 0.48826 0.04926 0.61202 0.0
C587 C 0.46394 0.03478 0.6336 0.0
H588 H 0.09469 0.98532 0.60391 0.0
H589 H 0.13421 0.97113 0.49477 0.0
H590 H 0.19675 0.95201 0.52362 0.0
H591 H 0.19319 1.01109 0.6618 0.0
H592 H 0.18157 0.98674 0.69829 0.0
H593 H 0.145 1.0104 0.67185 0.0
H594 H 0.10575 0.95099 0.65402 0.0
H595 H 0.14155 0.92747 0.68049 0.0
H596 H 0.12702 0.91066 0.6315 0.0
H597 H 0.24593 0.91956 0.55885 0.0
H598 H 0.27376 0.87223 0.59505 0.0
H599 H 0.20463 0.90838 0.68256 0.0
C600 C 0.11687 0.97902 0.58629 0.0
C601 C 0.1097 0.97914 0.54717 0.0
C602 C 0.13923 0.97099 0.52487 0.0
C603 C 0.17497 0.96064 0.54113 0.0
C604 C 0.18083 0.9595 0.57977 0.0
C605 C 0.15261 0.96891 0.60216 0.0
C606 C 0.16335 0.95933 0.64127 0.0
C607 C 0.17127 0.99395 0.67 0.0
C608 C 0.13265 0.93565 0.65238 0.0
C609 C 0.19956 0.93848 0.63582 0.0
C610 C 0.21031 0.94068 0.60085 0.0
C611 C 0.2386 0.91851 0.58667 0.0
C612 C 0.25414 0.89158 0.60728 0.0
C613 C 0.241 0.88689 0.64133 0.0
C614 C 0.21564 0.91226 0.65704 0.0
H615 H 0.36319 0.80184 0.846 0.0
H616 H 0.33512 0.86737 0.75622 0.0
H617 H 0.38763 0.90897 0.78379 0.0
H618 H 0.3826 0.87343 0.91799 0.0
H619 H 0.4217 0.85211 0.9435 0.0
H620 H 0.38533 0.82451 0.91395 0.0
H621 H 0.43635 0.79039 0.8775 0.0
H622 H 0.47292 0.8182 0.90689 0.0
H623 H 0.46831 0.81588 0.8565 0.0
H624 H 0.43518 0.9484 0.8253 0.0
H625 H 0.47592 0.98296 0.87892 0.0
H626 H 0.47708 0.89113 0.94014 0.0
C627 C 0.36858 0.82457 0.83182 0.0
C628 C 0.34506 0.83134 0.799 0.0
C629 C 0.35274 0.86158 0.78141 0.0
C630 C 0.38269 0.88528 0.79668 0.0
C631 C 0.40506 0.87817 0.82927 0.0
C632 C 0.39862 0.84847 0.84659 0.0
C633 C 0.4249 0.84891 0.88312 0.0
C634 C 0.40228 0.84982 0.9166 0.0
C635 C 0.45225 0.81641 0.88085 0.0
C636 C 0.44572 0.8844 0.88444 0.0
C637 C 0.43413 0.90058 0.8528 0.0
C638 C 0.44551 0.9356 0.84965 0.0
C639 C 0.46857 0.95499 0.88007 0.0
C640 C 0.48029 0.939 0.9127 0.0
C641 C 0.46965 0.90305 0.9146 0.0
H642 H 0.40539 0.14355 0.05637 0.0
H643 H 0.34949 0.04069 0.05402 0.0
H644 H 0.31783 0.06687 0.10886 0.0
H645 H 0.42706 0.16102 0.15431 0.0
H646 H 0.42043 0.20958 0.15804 0.0
H647 H 0.43439 0.18452 0.11573 0.0
H648 H 0.37631 0.20938 0.0759 0.0
H649 H 0.3627 0.23525 0.11799 0.0
H650 H 0.32948 0.20409 0.08818 0.0
H651 H 0.29355 0.10469 0.16468 0.0
H652 H 0.27914 0.15081 0.21758 0.0
H653 H 0.357 0.22612 0.18643 0.0
C654 C 0.38541 0.12715 0.06676 0.0
C655 C 0.37865 0.09067 0.05073 0.0
C656 C 0.35395 0.06905 0.06577 0.0
C657 C 0.33618 0.08361 0.09686 0.0
C658 C 0.3442 0.11955 0.1128 0.0
C659 C 0.36828 0.14101 0.09826 0.0
C660 C 0.3746 0.17778 0.12217 0.0
C661 C 0.41661 0.18354 0.13852 0.0
C662 C 0.35988 0.20843 0.09972 0.0
C663 C 0.35041 0.17368 0.15249 0.0
C664 C 0.33269 0.14013 0.14643 0.0
C665 C 0.30753 0.13092 0.16993 0.0
C666 C 0.29968 0.15709 0.19993 0.0
C667 C 0.31765 0.19154 0.20642 0.0
C668 C 0.34374 0.19958 0.18274 0.0
H669 H 0.11011 0.0478 0.34667 0.0
H670 H 1.0014 0.09632 0.36578 0.0
H671 H 1.01234 0.14344 0.32669 0.0
H672 H 0.15944 0.12782 0.35559 0.0
H673 H 0.18918 0.11296 0.31982 0.0
H674 H 0.17032 0.08021 0.34438 0.0
H675 H 0.13996 0.04429 0.28099 0.0
H676 H 0.15893 0.07693 0.25612 0.0
H677 H 0.10877 0.06738 0.24869 0.0
H678 H 0.03843 0.18874 0.2917 0.0
H679 H 0.07822 0.22966 0.26549 0.0
H680 H 0.16919 0.15032 0.26821 0.0
C681 C 0.08808 0.06764 0.34168 0.0
C682 C 0.05484 0.06836 0.35903 0.0
C683 C 0.02718 0.09549 0.35286 0.0
C684 C 0.033 0.1221 0.33047 0.0
C685 C 0.06651 0.121 0.31437 0.0
C686 C 0.09353 0.09437 0.31961 0.0
C687 C 0.12867 0.10112 0.30236 0.0
C688 C 0.16395 0.10582 0.33233 0.0
C689 C 0.1344 0.07061 0.27012 0.0
C690 C 0.11778 0.13644 0.28775 0.0
C691 C 0.08161 0.1472 0.29436 0.0
C692 C 0.06652 0.18029 0.28574 0.0
C693 C 0.08932 0.20331 0.27071 0.0
C694 C 0.12689 0.19322 0.26479 0.0
C695 C 0.14072 0.15891 0.27258 0.0
H696 H 0.81453 0.14305 0.19692 0.0
H697 H 0.85978 0.24915 0.19053 0.0
H698 H 0.90748 0.22008 0.15232 0.0
H699 H 0.90531 0.09232 0.19904 0.0
H700 H 0.88555 0.05239 0.16889 0.0
H701 H 0.85612 0.08081 0.19792 0.0
H702 H 0.80864 0.08831 0.13917 0.0
H703 H 0.83795 0.05993 0.11001 0.0
H704 H 0.82521 0.10502 0.09996 0.0
H705 H 0.95234 0.17913 0.11391 0.0
H706 H 0.98585 0.13161 0.07592 0.0
H707 H 0.91117 0.04984 0.1006 0.0
C708 C 0.83484 0.16018 0.188 0.0
C709 C 0.83317 0.19909 0.19805 0.0
C710 C 0.86006 0.21973 0.18421 0.0
C711 C 0.88756 0.20324 0.1622 0.0
C712 C 0.8884 0.16531 0.15271 0.0
C713 C 0.86245 0.14391 0.16485 0.0
C714 C 0.86866 0.10376 0.1486 0.0
C715 C 0.87955 0.08096 0.18051 0.0
C716 C 0.83298 0.08834 0.12291 0.0
C717 C 0.902 0.10594 0.12575 0.0
C718 C 0.91309 0.14186 0.12903 0.0
C719 C 0.94351 0.15103 0.11123 0.0
C720 C 0.96273 0.12347 0.08951 0.0
C721 C 0.95201 0.08617 0.08447 0.0
C722 C 0.92077 0.07771 0.10332 0.0
H723 H 1.00993 0.61574 0.4275 0.0
H724 H 0.10669 0.55101 0.46496 0.0
H725 H 0.14789 0.58592 0.43393 0.0
H726 H 0.0374 0.62235 0.33621 0.0
H727 H 0.02106 0.6685 0.33558 0.0
H728 H 0.99872 0.63893 0.36138 0.0
H729 H 1.01221 0.68592 0.42178 0.0
H730 H 0.03471 0.71558 0.39618 0.0
H731 H 0.06013 0.70135 0.43802 0.0
H732 H 0.17914 0.62723 0.39927 0.0
H733 H 0.198 0.67082 0.36029 0.0
H734 H 0.08193 0.70979 0.34437 0.0
C735 C 0.03977 0.60898 0.42918 0.0
C736 C 0.05496 0.5806 0.44885 0.0
C737 C 0.09421 0.57254 0.45016 0.0
C738 C 0.11799 0.59229 0.43266 0.0
C739 C 0.10226 0.62007 0.41369 0.0
C740 C 0.06408 0.62838 0.41156 0.0
C741 C 0.0546 0.65919 0.38855 0.0
C742 C 0.02627 0.64647 0.35334 0.0
C743 C 0.03952 0.69248 0.41258 0.0
C744 C 0.09341 0.66676 0.37821 0.0
C745 C 0.12044 0.64395 0.39322 0.0
C746 C 0.15827 0.6454 0.38747 0.0
C747 C 0.16879 0.6706 0.36544 0.0
C748 C 0.14163 0.69415 0.34922 0.0
C749 C 0.10343 0.69217 0.35607 0.0
H750 H 0.60871 0.84029 0.58097 0.0
H751 H 0.65174 0.9471 0.57355 0.0
H752 H 0.71237 0.93287 0.60954 0.0
H753 H 0.64037 0.84063 0.67183 0.0
H754 H 0.65266 0.79312 0.66929 0.0
H755 H 0.61698 0.80768 0.63481 0.0
H756 H 0.6543 0.77817 0.58147 0.0
H757 H 0.69023 0.76334 0.61598 0.0
H758 H 0.70322 0.79043 0.58227 0.0
H759 H 0.76307 0.91205 0.65727 0.0
H760 H 0.79753 0.88621 0.71173 0.0
H761 H 0.72081 0.79399 0.68791 0.0
C762 C 0.63134 0.86019 0.58593 0.0
C763 C 0.62546 0.8946 0.57421 0.0
C764 C 0.65566 0.92019 0.5815 0.0
C765 C 0.69033 0.91239 0.60206 0.0
C766 C 0.69459 0.87873 0.6147 0.0
C767 C 0.66599 0.85283 0.60643 0.0
C768 C 0.67523 0.82091 0.62744 0.0
C769 C 0.64451 0.81531 0.65231 0.0
C770 C 0.68111 0.78616 0.60015 0.0
C771 C 0.71213 0.83401 0.65071 0.0
C772 C 0.72359 0.86691 0.64242 0.0
C773 C 0.75491 0.88585 0.66339 0.0
C774 C 0.7743 0.87113 0.69421 0.0
C775 C 0.76151 0.83838 0.70382 0.0
C776 C 0.73104 0.81917 0.681 0.0
H777 H 0.48433 0.4073 0.9072 0.0
H778 H 0.43674 0.41513 0.01219 0.0
H779 H 0.38979 0.36794 0.98317 0.0
H780 H 0.4016 0.40174 0.84924 0.0
H781 H 0.41616 0.36924 0.8119 0.0
H782 H 0.45087 0.39802 0.84242 0.0
H783 H 0.48915 0.3415 0.85973 0.0
H784 H 0.45479 0.31239 0.82874 0.0
H785 H 0.46591 0.30604 0.87732 0.0
H786 H 0.34007 0.33103 0.9397 0.0
H787 H 0.29555 0.30086 0.88623 0.0
H788 H 0.37697 0.31305 0.81026 0.0
C789 C 0.46497 0.3981 0.92452 0.0
C790 C 0.46429 0.41493 0.96201 0.0
C791 C 0.43806 0.40253 0.98352 0.0
C792 C 0.41118 0.37572 0.96725 0.0
C793 C 0.41139 0.36101 0.92967 0.0
C794 C 0.43818 0.3711 0.90879 0.0
C795 C 0.43018 0.35348 0.86811 0.0
C796 C 0.42435 0.38234 0.84137 0.0
C797 C 0.4619 0.32676 0.85788 0.0
C798 C 0.39361 0.33353 0.86894 0.0
C799 C 0.38337 0.33808 0.90481 0.0
C800 C 0.34839 0.32616 0.91178 0.0
C801 C 0.32325 0.30926 0.88135 0.0
C802 C 0.33349 0.30401 0.84465 0.0
C803 C 0.36926 0.31574 0.83843 0.0
H804 H 0.84452 0.84664 0.30557 0.0
H805 H 0.84603 0.75316 0.36454 0.0
H806 H 0.89323 0.78437 0.4154 0.0
H807 H 0.94633 0.86555 0.3285 0.0
H808 H 0.9395 0.91408 0.33213 0.0
H809 H 0.90666 0.88379 0.30072 0.0
H810 H 0.85092 0.91348 0.33337 0.0
H811 H 0.88354 0.94377 0.36488 0.0
H812 H 0.85242 0.91533 0.38349 0.0
H813 H 0.93454 0.83017 0.46329 0.0
H814 H 0.97229 0.88258 0.49944 0.0
H815 H 0.9484 0.9417 0.40444 0.0
C816 C 0.85509 0.83269 0.3291 0.0
C817 C 0.84169 0.7978 0.33159 0.0
C818 C 0.85623 0.77998 0.36236 0.0
C819 C 0.88286 0.79752 0.3913 0.0
C820 C 0.89522 0.83232 0.38826 0.0
C821 C 0.88235 0.84928 0.35744 0.0
C822 C 0.90025 0.88632 0.36028 0.0
C823 C 0.92464 0.88748 0.32853 0.0
C824 C 0.86998 0.91649 0.36053 0.0
C825 C 0.92449 0.88813 0.39801 0.0
C826 C 0.92103 0.85702 0.41409 0.0
C827 C 0.93823 0.85424 0.45053 0.0
C828 C 0.95949 0.88402 0.47087 0.0
C829 C 0.96395 0.91557 0.45425 0.0
C830 C 0.94647 0.91735 0.41732 0.0
H831 H 0.41909 0.55356 0.60393 0.0
H832 H 0.48638 0.63604 0.56995 0.0
H833 H 0.45056 0.68391 0.60515 0.0
H834 H 0.32983 0.60244 0.60169 0.0
H835 H 0.31638 0.58809 0.64347 0.0
H836 H 0.34684 0.55974 0.61557 0.0
H837 H 0.39705 0.55981 0.6739 0.0
H838 H 0.36672 0.58806 0.70206 0.0
H839 H 0.41444 0.60254 0.70028 0.0
H840 H 0.40311 0.72464 0.64093 0.0
H841 H 0.35521 0.75337 0.67908 0.0
H842 H 0.32063 0.64698 0.69786 0.0
C843 C 0.42663 0.58169 0.6041 0.0
C844 C 0.4564 0.59027 0.58344 0.0
C845 C 0.46451 0.62788 0.58513 0.0
C846 C 0.44389 0.6556 0.60516 0.0
C847 C 0.4149 0.64629 0.62476 0.0
C848 C 0.40671 0.61011 0.62506 0.0
C849 C 0.37482 0.60782 0.64967 0.0
C850 C 0.3399 0.58835 0.6262 0.0
C851 C 0.38911 0.58839 0.68348 0.0
C852 C 0.36597 0.64817 0.66269 0.0
C853 C 0.38926 0.66976 0.64738 0.0
C854 C 0.38535 0.7077 0.65335 0.0
C855 C 0.35767 0.72399 0.67528 0.0
C856 C 0.33374 0.70323 0.69262 0.0
C857 C 0.33847 0.66432 0.68602 0.0
H858 H 0.5304 0.10422 0.94423 0.0
H859 H 0.62702 0.03247 0.96101 0.0
H860 H 0.66368 0.06877 0.92694 0.0
H861 H 0.54345 0.11851 0.85035 0.0
H862 H 0.52989 0.16578 0.85668 0.0
H863 H 0.51072 0.13453 0.88296 0.0
H864 H 0.53528 0.17563 0.94521 0.0
H865 H 0.55449 0.20703 0.91912 0.0
H866 H 0.58481 0.18779 0.95515 0.0
H867 H 0.69029 0.11186 0.891 0.0
H868 H 0.7057 0.16013 0.85587 0.0
H869 H 0.5925 0.20483 0.86052 0.0
C870 C 0.5593 0.09627 0.94082 0.0
C871 C 0.57573 0.06538 0.95546 0.0
C872 C 0.61365 0.05591 0.95023 0.0
C873 C 0.63482 0.07638 0.93083 0.0
C874 C 0.61784 0.10643 0.91664 0.0
C875 C 0.58102 0.11651 0.92136 0.0
C876 C 0.56985 0.15011 0.90297 0.0
C877 C 0.5365 0.14172 0.87136 0.0
C878 C 0.56057 0.18203 0.93237 0.0
C879 C 0.60616 0.15716 0.88729 0.0
C880 C 0.63335 0.13151 0.89554 0.0
C881 C 0.66916 0.13203 0.88419 0.0
C882 C 0.67755 0.15951 0.86388 0.0
C883 C 0.65029 0.18631 0.85491 0.0
C884 C 0.61408 0.18497 0.86697 0.0
H885 H 0.11731 0.32533 0.04651 0.0
H886 H 0.16122 0.43447 0.05321 0.0
H887 H 0.223 0.41516 0.08209 0.0
H888 H 0.14829 0.31444 0.13129 0.0
H889 H 0.16101 0.26698 0.12393 0.0
H890 H 0.12617 0.28445 0.09088 0.0
H891 H 0.16521 0.26123 0.03707 0.0
H892 H 0.20072 0.24354 0.07003 0.0
H893 H 0.2141 0.27469 0.04029 0.0
H894 H 0.27102 0.39117 0.12747 0.0
H895 H 0.29948 0.36431 0.18326 0.0
H896 H 0.22591 0.2705 0.14824 0.0
C897 C 0.14048 0.34466 0.05268 0.0
C898 C 0.13428 0.38129 0.04772 0.0
C899 C 0.16516 0.40605 0.05618 0.0
C900 C 0.20061 0.39528 0.07266 0.0
C901 C 0.20499 0.35957 0.08001 0.0
C902 C 0.17587 0.33433 0.06952 0.0
C903 C 0.18475 0.30009 0.08696 0.0
C904 C 0.15323 0.29105 0.10961 0.0
C905 C 0.19164 0.26799 0.05679 0.0
C906 C 0.22113 0.31168 0.11217 0.0
C907 C 0.23334 0.34542 0.10671 0.0
C908 C 0.26262 0.3642 0.13116 0.0
C909 C 0.27859 0.34889 0.16284 0.0
C910 C 0.26455 0.31558 0.16986 0.0
C911 C 0.23711 0.29601 0.14319 0.0
H912 H 0.62125 0.5488 0.85434 0.0
H913 H 0.50235 0.57753 0.83999 0.0
H914 H 0.51719 0.63003 0.80933 0.0
H915 H 0.65371 0.63548 0.88302 0.0
H916 H 0.69619 0.63072 0.8607 0.0
H917 H 0.6755 0.59147 0.87379 0.0
H918 H 0.67134 0.55883 0.80513 0.0
H919 H 0.69238 0.59801 0.79184 0.0
H920 H 0.6474 0.58075 0.76739 0.0
H921 H 0.5461 0.68314 0.78764 0.0
H922 H 0.58629 0.73347 0.77836 0.0
H923 H 0.68666 0.67127 0.8114 0.0
C924 C 0.59828 0.56531 0.84324 0.0
C925 C 0.56062 0.55895 0.84862 0.0
C926 C 0.53129 0.58195 0.83548 0.0
C927 C 0.53948 0.61165 0.81804 0.0
C928 C 0.57718 0.61796 0.81424 0.0
C929 C 0.60611 0.59536 0.82644 0.0
C930 C 0.64461 0.61065 0.82376 0.0
C931 C 0.66889 0.61749 0.86262 0.0
C932 C 0.66513 0.58556 0.79533 0.0
C933 C 0.63289 0.64593 0.80936 0.0
C934 C 0.59394 0.64935 0.80329 0.0
C935 C 0.57666 0.6806 0.79196 0.0
C936 C 0.59983 0.70926 0.78712 0.0
C937 C 0.63993 0.70678 0.79423 0.0
C938 C 0.65635 0.67427 0.80498 0.0
H939 H 0.69537 0.39598 0.17218 0.0
H940 H 0.7586 0.35043 0.08267 0.0
H941 H 0.73667 0.40015 0.04697 0.0
H942 H 0.6181 0.40849 0.12137 0.0
H943 H 0.60308 0.45111 0.14552 0.0
H944 H 0.63478 0.42245 0.17052 0.0
H945 H 0.68344 0.47516 0.18958 0.0
H946 H 0.65124 0.50432 0.16482 0.0
H947 H 0.69909 0.4982 0.15391 0.0
H948 H 0.69427 0.44058 0.01399 0.0
H949 H 0.63586 0.4688 0.98688 0.0
H950 H 0.59819 0.48817 0.09693 0.0
C951 C 0.70626 0.39789 0.14609 0.0
C952 C 0.72852 0.36972 0.13002 0.0
C953 C 0.74134 0.37191 0.0952 0.0
C954 C 0.72935 0.40026 0.07499 0.0
C955 C 0.70482 0.42625 0.09021 0.0
C956 C 0.69394 0.42576 0.12543 0.0
C957 C 0.6614 0.45161 0.13206 0.0
C958 C 0.62738 0.4322 0.14293 0.0
C959 C 0.6746 0.48426 0.16185 0.0
C960 C 0.6527 0.46312 0.09357 0.0
C961 C 0.67916 0.44968 0.07041 0.0
C962 C 0.67405 0.45228 0.03211 0.0
C963 C 0.6406 0.46802 0.01687 0.0
C964 C 0.6125 0.48029 0.03986 0.0
C965 C 0.61938 0.4791 0.07882 0.0
H966 H 0.90235 0.48312 0.40138 0.0
H967 H 1.00478 0.41848 0.41556 0.0
H968 H 0.97694 0.37174 0.36449 0.0
H969 H 0.83977 0.41374 0.39051 0.0
H970 H 0.80561 0.42997 0.35535 0.0
H971 H 0.83604 0.46172 0.38743 0.0
H972 H 0.8599 0.48633 0.3314 0.0
H973 H 0.82932 0.45462 0.299 0.0
H974 H 0.87943 0.45525 0.29593 0.0
H975 H 0.93464 0.32753 0.32221 0.0
H976 H 0.88072 0.28936 0.28937 0.0
H977 H 0.80611 0.38263 0.29942 0.0
C978 C 0.91934 0.45964 0.39297 0.0
C979 C 0.95568 0.4544 0.41246 0.0
C980 C 0.97685 0.42306 0.40105 0.0
C981 C 0.96138 0.39645 0.37189 0.0
C982 C 0.92498 0.40184 0.35407 0.0
C983 C 0.90434 0.43284 0.3638 0.0
C984 C 0.86434 0.43012 0.34308 0.0
C985 C 0.83473 0.4341 0.37075 0.0
C986 C 0.85788 0.45825 0.31572 0.0
C987 C 0.86501 0.39182 0.32206 0.0
C988 C 0.90053 0.37627 0.32832 0.0
C989 C 0.90706 0.33968 0.31604 0.0
C990 C 0.87638 0.31822 0.29759 0.0
C991 C 0.83988 0.33354 0.29138 0.0
C992 C 0.83422 0.37088 0.30281 0.0
H993 H 0.67097 0.59933 0.44178 0.0
H994 H 0.56802 0.6613 0.45466 0.0
H995 H 0.58636 0.70268 0.41229 0.0
H996 H 0.73261 0.67488 0.43793 0.0
H997 H 0.75812 0.65011 0.40263 0.0
H998 H 0.73739 0.62616 0.43472 0.0
H999 H 0.70026 0.58478 0.37852 0.0
H1000 H 0.72092 0.60858 0.34627 0.0
H1001 H 0.6701 0.60518 0.34322 0.0
H1002 H 0.61767 0.73898 0.36901 0.0
H1003 H 0.65568 0.7631 0.3256 0.0
H1004 H 0.7366 0.67555 0.33799 0.0
C1005 C 0.65238 0.62178 0.43601 0.0
C1006 C 0.61801 0.62707 0.4521 0.0
C1007 C 0.59433 0.65647 0.44285 0.0
C1008 C 0.60467 0.68027 0.41885 0.0
C1009 C 0.63873 0.67433 0.40362 0.0
C1010 C 0.66202 0.6455 0.41158 0.0
C1011 C 0.69639 0.6442 0.39047 0.0
C1012 C 0.73331 0.64913 0.41809 0.0
C1013 C 0.69693 0.60857 0.36299 0.0
C1014 C 0.68899 0.67683 0.36949 0.0
C1015 C 0.65578 0.69412 0.37775 0.0
C1016 C 0.64356 0.72538 0.36228 0.0
C1017 C 0.66547 0.73901 0.33762 0.0
C1018 C 0.69921 0.72133 0.32796 0.0
C1019 C 0.71092 0.68976 0.34442 0.0
H1020 H 0.85167 0.32078 0.83826 0.0
H1021 H 0.74246 0.36785 0.85737 0.0
H1022 H 0.77425 0.41254 0.90957 0.0
H1023 H 0.89049 0.3282 0.93692 0.0
H1024 H 0.93773 0.33758 0.92805 0.0
H1025 H 0.90596 0.31005 0.89261 0.0
H1026 H 0.9157 0.35348 0.84502 0.0
H1027 H 0.94684 0.38178 0.88028 0.0
H1028 H 0.9057 0.40131 0.85611 0.0
H1029 H 0.8204 0.45605 0.95547 0.0
H1030 H 0.87501 0.48946 0.9949 0.0
H1031 H 0.95162 0.40795 0.94949 0.0
C1032 C 0.83446 0.34053 0.85347 0.0
C1033 C 0.7948 0.34144 0.84369 0.0
C1034 C 0.77297 0.36703 0.86454 0.0
C1035 C 0.7908 0.39241 0.89409 0.0
C1036 C 0.83021 0.39094 0.90289 0.0
C1037 C 0.85157 0.36511 0.88353 0.0
C1038 C 0.89323 0.3684 0.89862 0.0
C1039 C 0.90769 0.33401 0.91503 0.0
C1040 C 0.91673 0.37673 0.86818 0.0
C1041 C 0.89231 0.4006 0.92913 0.0
C1042 C 0.85588 0.41369 0.93101 0.0
C1043 C 0.84887 0.44545 0.95485 0.0
C1044 C 0.87992 0.46423 0.9771 0.0
C1045 C 0.91719 0.45059 0.97589 0.0
C1046 C 0.92322 0.41821 0.95192 0.0
H1047 H 0.80607 0.84863 0.19025 0.0
H1048 H 0.83732 0.73831 0.14832 0.0
H1049 H 0.86928 0.76169 0.09991 0.0
H1050 H 0.78817 0.88164 0.10137 0.0
H1051 H 0.80838 0.92607 0.11833 0.0
H1052 H 0.78786 0.90116 0.1498 0.0
H1053 H 0.85051 0.90622 0.19534 0.0
H1054 H 0.87131 0.93165 0.16449 0.0
H1055 H 0.89411 0.89095 0.178 0.0
H1056 H 0.89512 0.79728 0.05362 0.0
H1057 H 0.91688 0.8418 0.01644 0.0
H1058 H 0.87367 0.92998 0.09084 0.0
C1059 C 0.8197 0.82931 0.17095 0.0
C1060 C 0.8189 0.79138 0.17319 0.0
C1061 C 0.83746 0.76733 0.14743 0.0
C1062 C 0.85563 0.78043 0.1197 0.0
C1063 C 0.85568 0.81788 0.1182 0.0
C1064 C 0.83858 0.84204 0.14348 0.0
C1065 C 0.84341 0.88107 0.13632 0.0
C1066 C 0.80466 0.89851 0.12583 0.0
C1067 C 0.86619 0.90381 0.17058 0.0
C1068 C 0.86579 0.8752 0.10296 0.0
C1069 C 0.87211 0.83844 0.09271 0.0
C1070 C 0.8906 0.82602 0.06171 0.0
C1071 C 0.90293 0.85153 0.04074 0.0
C1072 C 0.89761 0.88939 0.05101 0.0
C1073 C 0.87887 0.90129 0.08277 0.0
H1074 H 0.79001 0.17268 0.85201 0.0
H1075 H 0.87536 0.20181 0.78666 0.0
H1076 H 0.921 0.16127 0.81755 0.0
H1077 H 0.85503 0.16639 0.93885 0.0
H1078 H 0.83205 0.12763 0.95083 0.0
H1079 H 0.80511 0.15862 0.92369 0.0
H1080 H 0.78364 0.10521 0.87182 0.0
H1081 H 0.8106 0.07402 0.89871 0.0
H1082 H 0.81877 0.07625 0.85112 0.0
H1083 H 0.96003 0.11759 0.85697 0.0
H1084 H 0.98806 0.07626 0.90027 0.0
H1085 H 0.88033 0.07059 0.94261 0.0
C1086 C 0.81829 0.1706 0.84403 0.0
C1087 C 0.82815 0.19152 0.81597 0.0
C1088 C 0.86599 0.18699 0.80736 0.0
C1089 C 0.89255 0.16363 0.82506 0.0
C1090 C 0.88203 0.14372 0.85214 0.0
C1091 C 0.84569 0.14685 0.86169 0.0
C1092 C 0.84234 0.1221 0.89211 0.0
C1093 C 0.83306 0.14505 0.92854 0.0
C1094 C 0.81202 0.09265 0.87758 0.0
C1095 C 0.88228 0.10478 0.89823 0.0
C1096 C 0.9045 0.11797 0.87462 0.0
C1097 C 0.94248 0.1072 0.87523 0.0
C1098 C 0.95838 0.08323 0.90029 0.0
C1099 C 0.93722 0.06865 0.92541 0.0
C1100 C 0.89793 0.07987 0.92375 0.0
H1101 H 0.68764 0.15488 0.70942 0.0
H1102 H 0.74412 0.20855 0.63346 0.0
H1103 H 0.71462 0.16508 0.57977 0.0
H1104 H 0.69525 0.06125 0.65856 0.0
H1105 H 0.64942 0.0483 0.66832 0.0
H1106 H 0.67763 0.08162 0.70111 0.0
H1107 H 0.62194 0.12759 0.69731 0.0
H1108 H 0.59367 0.09435 0.66474 0.0
H1109 H 0.60151 0.13848 0.65204 0.0
H1110 H 0.67095 0.12251 0.53389 0.0
H1111 H 0.62077 0.07988 0.4999 0.0
H1112 H 0.59802 0.04995 0.60575 0.0
C1113 C 0.69429 0.15707 0.68155 0.0
C1114 C 0.71807 0.18507 0.67553 0.0
C1115 C 0.72612 0.18715 0.63869 0.0
C1116 C 0.70949 0.1626 0.60803 0.0
C1117 C 0.6856 0.13569 0.61482 0.0
C1118 C 0.67853 0.13237 0.65075 0.0
C1119 C 0.65066 0.10195 0.6503 0.0
C1120 C 0.66937 0.07147 0.67079 0.0
C1121 C 0.61484 0.11648 0.66708 0.0
C1122 C 0.64214 0.08954 0.60843 0.0
C1123 C 0.66246 0.10941 0.58837 0.0
C1124 C 0.65581 0.10592 0.54921 0.0
C1125 C 0.62739 0.08176 0.53015 0.0
C1126 C 0.6068 0.06101 0.55031 0.0
C1127 C 0.61472 0.06448 0.58977 0.0
H1128 H 0.55033 0.91653 0.4228 0.0
H1129 H 0.53381 0.0229 0.38717 0.0
H1130 H 0.56006 1.00009 0.32851 0.0
H1131 H 0.6366 0.90025 0.39643 0.0
H1132 H 0.63023 0.85218 0.38057 0.0
H1133 H 0.60305 0.87465 0.41536 0.0
H1134 H 0.54083 0.85191 0.37323 0.0
H1135 H 0.56807 0.82937 0.33814 0.0
H1136 H 0.53195 0.86173 0.32562 0.0
H1137 H 0.5993 0.96974 0.28105 0.0
H1138 H 0.6473 0.93374 0.24822 0.0
H1139 H 0.63594 0.8471 0.31409 0.0
C1140 C 0.55136 0.93476 0.40221 0.0
C1141 C 0.54028 0.97141 0.40943 0.0
C1142 C 0.54212 0.9946 0.38202 0.0
C1143 C 0.55676 0.98185 0.34856 0.0
C1144 C 0.56857 0.94573 0.34277 0.0
C1145 C 0.56549 0.92238 0.36866 0.0
C1146 C 0.58408 0.88619 0.35807 0.0
C1147 C 0.61534 0.87788 0.38945 0.0
C1148 C 0.55445 0.85549 0.34816 0.0
C1149 C 0.60038 0.89369 0.32361 0.0
C1150 C 0.59051 0.92786 0.31469 0.0
C1151 C 0.60635 0.94253 0.28702 0.0
C1152 C 0.63371 0.92209 0.26873 0.0
C1153 C 0.64489 0.88757 0.2784 0.0
C1154 C 0.62701 0.87286 0.30524 0.0
H1155 H 0.81755 0.13433 0.33669 0.0
H1156 H 0.75491 0.17528 0.42822 0.0
H1157 H 0.78056 0.12586 0.46285 0.0
H1158 H 0.81975 0.03197 0.35227 0.0
H1159 H 0.86752 0.0284 0.34078 0.0
H1160 H 0.83367 0.05714 0.31739 0.0
H1161 H 0.88009 0.11149 0.33773 0.0
H1162 H 0.91362 0.08345 0.36163 0.0
H1163 H 0.89674 0.12462 0.38699 0.0
H1164 H 0.82511 0.08522 0.49391 0.0
H1165 H 0.88439 0.0565 0.51863 0.0
H1166 H 0.92007 0.04301 0.40771 0.0
C1167 C 0.8076 0.13144 0.36302 0.0
C1168 C 0.78428 0.15818 0.37988 0.0
C1169 C 0.77285 0.15482 0.41504 0.0
C1170 C 0.78699 0.12667 0.43466 0.0
C1171 C 0.81231 0.10212 0.41851 0.0
C1172 C 0.82209 0.10387 0.38309 0.0
C1173 C 0.85556 0.07963 0.37528 0.0
C1174 C 0.84338 0.04736 0.34462 0.0
C1175 C 0.8884 0.10111 0.36486 0.0
C1176 C 0.86546 0.0671 0.41313 0.0
C1177 C 0.83929 0.07899 0.43716 0.0
C1178 C 0.84518 0.07477 0.47508 0.0
C1179 C 0.87905 0.05875 0.48895 0.0
C1180 C 0.90675 0.04796 0.46503 0.0
C1181 C 0.89924 0.05108 0.42652 0.0
H1182 H 0.64425 0.21658 0.17408 0.0
H1183 H 0.69506 0.15424 0.26026 0.0
H1184 H 0.6523 0.10296 0.23327 0.0
H1185 H 0.54527 0.17915 0.16799 0.0
H1186 H 0.53685 0.17922 0.11789 0.0
H1187 H 0.56743 0.21313 0.14725 0.0
H1188 H 0.62148 0.19435 0.10701 0.0
H1189 H 0.59119 0.1605 0.07766 0.0
H1190 H 0.63647 0.14748 0.10053 0.0
H1191 H 0.61414 0.05515 0.19045 0.0
H1192 H 0.57856 0.01545 0.13686 0.0
H1193 H 0.5478 0.10961 0.08162 0.0
C1194 C 0.64569 0.19245 0.18775 0.0
C1195 C 0.67293 0.1893 0.21915 0.0
C1196 C 0.67423 0.15727 0.23625 0.0
C1197 C 0.65001 0.12802 0.2212 0.0
C1198 C 0.62408 0.13159 0.18964 0.0
C1199 C 0.62121 0.16321 0.17349 0.0
C1200 C 0.59286 0.15899 0.13811 0.0
C1201 C 0.55857 0.18412 0.14313 0.0
C1202 C 0.61164 0.16571 0.10382 0.0
C1203 C 0.58195 0.11946 0.13577 0.0
C1204 C 0.60009 0.1042 0.16593 0.0
C1205 C 0.59867 0.06694 0.16736 0.0
C1206 C 0.57861 0.04463 0.13689 0.0
C1207 C 0.55989 0.05986 0.10597 0.0
C1208 C 0.56078 0.09773 0.1058 0.0
H1209 H 0.78475 0.83146 0.91023 0.0
H1210 H 0.78343 0.92199 0.84766 0.0
H1211 H 0.76896 0.9639 0.90357 0.0
H1212 H 0.71141 0.84634 0.94717 0.0
H1213 H 0.7259 0.83544 0.99386 0.0
H1214 H 0.75106 0.81642 0.95631 0.0
H1215 H 0.81417 0.84356 0.99317 0.0
H1216 H 0.78875 0.86216 0.03139 0.0
H1217 H 0.81721 0.89148 1.01086 0.0
H1218 H 0.73471 0.98983 0.95453 0.0
H1219 H 0.68145 0.99588 0.99069 0.0
H1220 H 0.70687 0.89033 0.02521 0.0
C1221 C 0.78302 0.86045 0.90925 0.0
C1222 C 0.78477 0.87395 0.87532 0.0
C1223 C 0.78211 0.91157 0.87384 0.0
C1224 C 0.77443 0.93546 0.90559 0.0
C1225 C 0.77072 0.92114 0.93855 0.0
C1226 C 0.77595 0.88444 0.94085 0.0
C1227 C 0.76332 0.87444 0.97625 0.0
C1228 C 0.73628 0.84129 0.96782 0.0
C1229 C 0.79791 0.86752 1.00459 0.0
C1230 C 0.74361 0.90941 0.98969 0.0
C1231 C 0.75058 0.93679 0.96921 0.0
C1232 C 0.72997 0.96909 0.97151 0.0
C1233 C 0.69939 0.97224 0.99226 0.0
C1234 C 0.68927 0.94294 1.01 0.0
C1235 C 0.71379 0.91279 1.01142 0.0
H1236 H 0.93732 1.00754 0.69506 0.0
H1237 H 0.03839 0.95703 0.65719 0.0
H1238 H 0.04817 0.92507 0.71247 0.0
H1239 H 0.96939 1.00478 0.80395 0.0
H1240 H 0.92109 0.99492 0.809 0.0
H1241 H 0.9308 0.02504 0.77664 0.0
H1242 H 0.88864 0.9849 0.72302 0.0
H1243 H 0.87923 0.95466 0.75477 0.0
H1244 H 0.89929 0.9371 0.71268 0.0
H1245 H 0.03467 0.88379 0.75575 0.0
H1246 H 1.00056 0.83944 0.78284 0.0
H1247 H 0.90887 0.91661 0.79668 0.0
C1248 C 0.96245 0.9911 0.69965 0.0
C1249 C 0.9871 0.98472 0.67209 0.0
C1250 C 0.01957 0.96281 0.67836 0.0
C1251 C 0.02529 0.94451 0.70978 0.0
C1252 C 0.99865 0.94896 0.73501 0.0
C1253 C 0.96831 0.97262 0.73087 0.0
C1254 C 0.93975 0.96735 0.75706 0.0
C1255 C 0.94032 0.99996 0.78853 0.0
C1256 C 0.89942 0.96055 0.73557 0.0
C1257 C 0.95601 0.93382 0.77248 0.0
C1258 C 0.99087 0.92462 0.7609 0.0
C1259 C 1.00806 0.89136 0.76609 0.0
C1260 C 0.98831 0.86614 0.7815 0.0
C1261 C 0.95154 0.8742 0.79128 0.0
C1262 C 0.93659 0.90938 0.78893 0.0
H1263 H 0.18898 0.8867 0.80839 0.0
H1264 H 0.15998 0.77954 0.82995 0.0
H1265 H 0.11246 0.80689 0.86918 0.0
H1266 H 0.18163 0.93224 0.90356 0.0
H1267 H 0.16173 0.97386 0.88939 0.0
H1268 H 0.1918 0.94627 0.8604 0.0
H1269 H 0.13889 0.94305 0.80376 0.0
H1270 H 0.10872 0.97062 0.83268 0.0
H1271 H 0.09246 0.92683 0.8081 0.0
H1272 H 0.06515 0.84601 0.90632 0.0
H1273 H 0.02922 0.89275 0.94283 0.0
H1274 H 0.09062 0.97727 0.90513 0.0
C1275 C 0.1724 0.86888 0.82102 0.0
C1276 C 0.17875 0.83016 0.81495 0.0
C1277 C 0.15636 0.80881 0.83331 0.0
C1278 C 0.12886 0.82429 0.85588 0.0
C1279 C 0.12346 0.86204 0.86141 0.0
C1280 C 0.145 0.88426 0.84491 0.0
C1281 C 0.13461 0.92432 0.85759 0.0
C1282 C 0.16953 0.94543 0.879 0.0
C1283 C 0.11768 0.94227 0.8235 0.0
C1284 C 0.10441 0.92111 0.88386 0.0
C1285 C 0.09792 0.88472 0.88482 0.0
C1286 C 0.07052 0.87451 0.90581 0.0
C1287 C 0.04984 0.90158 0.92661 0.0
C1288 C 0.05635 0.93942 0.92775 0.0
C1289 C 0.08442 0.94892 0.90557 0.0
H1290 H 0.9834 0.42077 0.57687 0.0
H1291 H 0.89029 0.49661 0.561 0.0
H1292 H 0.8524 0.46246 0.59633 0.0
H1293 H 0.9262 0.34042 0.56633 0.0
H1294 H 0.95568 0.31984 0.60194 0.0
H1295 H 0.97619 0.35067 0.57614 0.0
H1296 H 1.00238 0.39057 0.63865 0.0
H1297 H 0.98197 0.35984 0.66465 0.0
H1298 H 0.97033 0.40757 0.67163 0.0
H1299 H 0.82389 0.41982 0.6321 0.0
H1300 H 0.80636 0.37114 0.66581 0.0
H1301 H 0.91778 0.32271 0.65982 0.0
C1302 C 0.95509 0.43026 0.58092 0.0
C1303 C 0.93988 0.46144 0.56607 0.0
C1304 C 0.90265 0.47285 0.572 0.0
C1305 C 0.88085 0.45364 0.59209 0.0
C1306 C 0.8966 0.42303 0.60622 0.0
C1307 C 0.93284 0.41135 0.60098 0.0
C1308 C 0.94266 0.37725 0.61882 0.0
C1309 C 0.95065 0.34515 0.58902 0.0
C1310 C 0.97633 0.38424 0.65031 0.0
C1311 C 0.90616 0.3715 0.63459 0.0
C1312 C 0.88008 0.39835 0.6271 0.0
C1313 C 0.84419 0.39879 0.63841 0.0
C1314 C 0.83459 0.37105 0.65786 0.0
C1315 C 0.86073 0.34305 0.66593 0.0
C1316 C 0.89704 0.3435 0.65403 0.0
H1317 H 0.37438 0.10513 0.43832 0.0
H1318 H 0.43908 0.19177 0.5097 0.0
H1319 H 0.38942 0.23591 0.49295 0.0
H1320 H 0.35806 0.14475 0.3668 0.0
H1321 H 0.31027 0.13 0.34867 0.0
H1322 H 0.33967 0.10334 0.3782 0.0
H1323 H 0.28954 0.10736 0.42413 0.0
H1324 H 0.25951 0.13397 0.39426 0.0
H1325 H 0.27252 0.15119 0.44333 0.0
H1326 H 0.34932 0.27127 0.45363 0.0
H1327 H 0.32206 0.29478 0.39585 0.0
H1328 H 0.28055 0.18729 0.34712 0.0
C1329 C 0.37643 0.13308 0.45197 0.0
C1330 C 0.40966 0.14541 0.4756 0.0
C1331 C 0.41324 0.18219 0.49194 0.0
C1332 C 0.38506 0.20724 0.48271 0.0
C1333 C 0.35368 0.19496 0.45683 0.0
C1334 C 0.3488 0.15849 0.44204 0.0
C1335 C 0.31804 0.15349 0.40846 0.0
C1336 C 0.33243 0.13168 0.37352 0.0
C1337 C 0.28281 0.13545 0.41814 0.0
C1338 C 0.31016 0.19284 0.40366 0.0
C1339 C 0.3296 0.21631 0.43298 0.0
C1340 C 0.33278 0.2534 0.43134 0.0
C1341 C 0.31752 0.26651 0.39836 0.0
C1342 C 0.29907 0.24266 0.36771 0.0
C1343 C 0.29358 0.20593 0.37099 0.0
H1344 H 0.61103 0.58405 0.0333 0.0
H1345 H 0.50644 0.64406 0.04153 0.0
H1346 H 0.5417 0.69429 0.08389 0.0
H1347 H 0.64255 0.60118 0.12687 0.0
H1348 H 0.69233 0.60425 0.12302 0.0
H1349 H 0.66137 0.57751 0.08633 0.0
H1350 H 0.6818 0.61441 0.03696 0.0
H1351 H 0.71349 0.64092 0.0734 0.0
H1352 H 0.67821 0.66334 0.04428 0.0
H1353 H 0.58687 0.73402 0.13096 0.0
H1354 H 0.63753 0.75945 0.18079 0.0
H1355 H 0.71149 0.67028 0.14609 0.0
C1356 C 0.59606 0.6087 0.04251 0.0
C1357 C 0.55648 0.61124 0.03313 0.0
C1358 C 0.53704 0.64253 0.04754 0.0
C1359 C 0.55682 0.67098 0.07166 0.0
C1360 C 0.59581 0.66716 0.08157 0.0
C1361 C 0.61524 0.63675 0.06744 0.0
C1362 C 0.6557 0.63656 0.08677 0.0
C1363 C 0.66341 0.60289 0.10693 0.0
C1364 C 0.68397 0.63897 0.05868 0.0
C1365 C 0.65579 0.67116 0.11458 0.0
C1366 C 0.62126 0.6888 0.1106 0.0
C1367 C 0.61415 0.72066 0.13406 0.0
C1368 C 0.64306 0.73484 0.16233 0.0
C1369 C 0.6784 0.71679 0.16735 0.0
C1370 C 0.68477 0.68466 0.14296 0.0
H1371 H 0.17884 0.17471 0.69822 0.0
H1372 H 0.16434 0.27235 0.64551 0.0
H1373 H 0.11615 0.24047 0.596 0.0
H1374 H 0.16891 0.10939 0.61628 0.0
H1375 H 0.14234 0.07766 0.63583 0.0
H1376 H 0.17542 0.10837 0.66627 0.0
H1377 H 0.12205 0.13257 0.70542 0.0
H1378 H 0.08882 0.10185 0.67508 0.0
H1379 H 0.079 0.14997 0.68221 0.0
H1380 H 0.07417 0.19447 0.54882 0.0
H1381 H 0.03635 0.14176 0.51333 0.0
H1382 H 0.07382 0.07816 0.60244 0.0
C1383 C 0.1654 0.18934 0.67622 0.0
C1384 C 0.17533 0.22566 0.67508 0.0
C1385 C 0.15693 0.24438 0.64652 0.0
C1386 C 0.12971 0.22647 0.61838 0.0
C1387 C 0.12075 0.19032 0.62008 0.0
C1388 C 0.13757 0.17231 0.64881 0.0
C1389 C 0.12238 0.13406 0.6453 0.0
C1390 C 0.15415 0.10572 0.64063 0.0
C1391 C 0.10183 0.12936 0.679 0.0
C1392 C 0.09488 0.13294 0.60963 0.0
C1393 C 0.09457 0.16535 0.59504 0.0
C1394 C 0.07353 0.16931 0.56047 0.0
C1395 C 0.05223 0.13938 0.54051 0.0
C1396 C 0.05154 0.10652 0.55579 0.0
C1397 C 0.07295 0.10348 0.5908 0.0
H1398 H 0.70936 0.34874 0.36392 0.0
H1399 H 0.63149 0.32235 0.26136 0.0
H1400 H 0.58088 0.35698 0.29157 0.0
H1401 H 0.64186 0.34808 0.43122 0.0
H1402 H 0.66165 0.38727 0.46257 0.0
H1403 H 0.69142 0.35891 0.4339 0.0
H1404 H 0.7109 0.41492 0.40613 0.0
H1405 H 0.68132 0.44345 0.43485 0.0
H1406 H 0.67469 0.44268 0.38461 0.0
H1407 H 0.53554 0.39273 0.33597 0.0
H1408 H 0.50484 0.43211 0.38468 0.0
H1409 H 0.61262 0.44371 0.45659 0.0
C1410 C 0.68164 0.35012 0.34775 0.0
C1411 C 0.67499 0.33182 0.30972 0.0
C1412 C 0.63804 0.33552 0.29013 0.0
C1413 C 0.60875 0.35525 0.30733 0.0
C1414 C 0.61614 0.37273 0.34457 0.0
C1415 C 0.65208 0.37105 0.36429 0.0
C1416 C 0.65307 0.3944 0.40317 0.0
C1417 C 0.66258 0.37076 0.43458 0.0
C1418 C 0.68171 0.42572 0.40744 0.0
C1419 C 0.61224 0.40907 0.4025 0.0
C1420 C 0.59116 0.39556 0.36862 0.0
C1421 C 0.55228 0.40367 0.36223 0.0
C1422 C 0.53478 0.42616 0.39039 0.0
C1423 C 0.55571 0.44186 0.42497 0.0
C1424 C 0.59533 0.43285 0.43061 0.0
H1425 H 0.42444 0.96069 0.07962 0.0
H1426 H 0.5081 0.88346 0.03938 0.0
H1427 H 0.47991 0.83566 0.06708 0.0
H1428 H 0.42557 0.93051 0.1675 0.0
H1429 H 0.37554 0.93632 0.17002 0.0
H1430 H 0.39918 0.96398 0.14333 0.0
H1431 H 0.35117 0.94268 0.08432 0.0
H1432 H 0.3274 0.9148 0.11083 0.0
H1433 H 0.3447 0.89468 0.06803 0.0
H1434 H 0.44817 0.79785 0.10364 0.0
H1435 H 0.41415 0.77207 0.14892 0.0
H1436 H 0.34952 0.87148 0.16613 0.0
C1437 C 0.43629 0.93354 0.07617 0.0
C1438 C 0.46851 0.92584 0.05735 0.0
C1439 C 0.48363 0.89013 0.05388 0.0
C1440 C 0.46764 0.86263 0.06928 0.0
C1441 C 0.43642 0.87109 0.08818 0.0
C1442 C 0.42077 0.90557 0.09181 0.0
C1443 C 0.38897 0.90766 0.11617 0.0
C1444 C 0.39786 0.93631 0.15134 0.0
C1445 C 0.35079 0.91541 0.09347 0.0
C1446 C 0.39004 0.8693 0.12631 0.0
C1447 C 0.41745 0.84868 0.1094 0.0
C1448 C 0.42611 0.8134 0.1165 0.0
C1449 C 0.40676 0.79896 0.14212 0.0
C1450 C 0.37894 0.81957 0.16012 0.0
C1451 C 0.36995 0.85495 0.15168 0.0
H1452 H 0.87407 0.60723 0.96712 0.0
H1453 H 0.93899 0.69075 0.04283 0.0
H1454 H 0.89542 0.73739 0.02073 0.0
H1455 H 0.86951 0.64197 0.89576 0.0
H1456 H 0.82185 0.63246 0.87281 0.0
H1457 H 0.84309 0.60435 0.90588 0.0
H1458 H 0.78821 0.61727 0.94587 0.0
H1459 H 0.76566 0.64463 0.91201 0.0
H1460 H 0.77486 0.66356 0.96101 0.0
H1461 H 0.86769 0.77332 0.97462 0.0
H1462 H 0.84883 0.79603 0.91435 0.0
H1463 H 0.7976 0.69189 0.8667 0.0
C1464 C 0.87682 0.6351 0.98092 0.0
C1465 C 0.90921 0.64581 1.00665 0.0
C1466 C 0.9138 0.6824 0.0234 0.0
C1467 C 0.8891 0.709 1.01097 0.0
C1468 C 0.85984 0.69836 0.98205 0.0
C1469 C 0.85247 0.66198 0.96809 0.0
C1470 C 0.82526 0.65816 0.93174 0.0
C1471 C 0.84094 0.6328 0.89972 0.0
C1472 C 0.78617 0.64516 0.93805 0.0
C1473 C 0.82351 0.69731 0.92458 0.0
C1474 C 0.84244 0.72023 0.95462 0.0
C1475 C 0.85133 0.75606 0.95167 0.0
C1476 C 0.84115 0.76856 0.91721 0.0
C1477 C 0.82189 0.74546 0.88642 0.0
C1478 C 0.81177 0.70997 0.89043 0.0
H1479 H 0.42861 0.50513 0.17737 0.0
H1480 H 0.53571 0.45866 0.14999 0.0
H1481 H 0.5366 0.42025 0.20009 0.0
H1482 H 0.44695 0.49943 0.28276 0.0
H1483 H 0.39799 0.48785 0.2828 0.0
H1484 H 0.4104 0.51782 0.25141 0.0
H1485 H 0.375 0.47538 0.19476 0.0
H1486 H 0.36268 0.44539 0.22578 0.0
H1487 H 0.3879 0.42796 0.18707 0.0
H1488 H 0.5197 0.37897 0.24341 0.0
H1489 H 0.4853 0.33699 0.27362 0.0
H1490 H 0.39033 0.41178 0.27536 0.0
C1491 C 0.453 0.488 0.18294 0.0
C1492 C 0.4821 0.4849 0.15982 0.0
C1493 C 0.51296 0.46123 0.16717 0.0
C1494 C 0.51393 0.43965 0.1959 0.0
C1495 C 0.48405 0.44241 0.21735 0.0
C1496 C 0.4543 0.46629 0.21145 0.0
C1497 C 0.42301 0.46037 0.23434 0.0
C1498 C 0.4194 0.49333 0.26463 0.0
C1499 C 0.38495 0.45174 0.20896 0.0
C1500 C 0.43851 0.42767 0.25177 0.0
C1501 C 0.47424 0.41837 0.24262 0.0
C1502 C 0.49215 0.38649 0.25159 0.0
C1503 C 0.47235 0.36276 0.26885 0.0
C1504 C 0.43489 0.37092 0.27654 0.0
C1505 C 0.41877 0.40465 0.26955 0.0
H1506 H 0.42708 0.54577 0.89684 0.0
H1507 H 0.38261 0.54755 1.00276 0.0
H1508 H 0.32157 0.57032 0.97463 0.0
H1509 H 0.39556 0.62567 0.87923 0.0
H1510 H 0.38371 0.61465 0.82896 0.0
H1511 H 0.41883 0.58854 0.85344 0.0
H1512 H 0.38089 0.52954 0.82596 0.0
H1513 H 0.34525 0.55584 0.80153 0.0
H1514 H 0.33188 0.52622 0.83279 0.0
H1515 H 0.2734 0.60613 0.94186 0.0
H1516 H 0.2443 0.65522 0.90872 0.0
H1517 H 0.3183 0.62968 0.82322 0.0
C1518 C 0.40408 0.54991 0.91375 0.0
C1519 C 0.40949 0.54512 0.95192 0.0
C1520 C 0.37901 0.55115 0.97339 0.0
C1521 C 0.34408 0.56362 0.95751 0.0
C1522 C 0.34001 0.56933 0.92004 0.0
C1523 C 0.36916 0.56237 0.8983 0.0
C1524 C 0.36025 0.57667 0.86118 0.0
C1525 C 0.39139 0.60295 0.85544 0.0
C1526 C 0.35419 0.54518 0.82843 0.0
C1527 C 0.32338 0.59609 0.86709 0.0
C1528 C 0.31134 0.59022 0.90051 0.0
C1529 C 0.28172 0.61005 0.9151 0.0
C1530 C 0.26548 0.63796 0.89628 0.0
C1531 C 0.27914 0.6458 0.8635 0.0
C1532 C 0.30674 0.62328 0.84761 0.0
H1533 H 0.0878 0.55547 0.61375 0.0
H1534 H 0.99406 0.62858 0.58944 0.0
H1535 H 0.02663 0.67735 0.63512 0.0
H1536 H 0.11146 0.59459 0.71695 0.0
H1537 H 0.16149 0.58807 0.71483 0.0
H1538 H 0.12764 0.55693 0.68579 0.0
H1539 H 0.15621 0.56917 0.62676 0.0
H1540 H 0.18968 0.60066 0.65536 0.0
H1541 H 0.15855 0.61524 0.61692 0.0
H1542 H 0.07431 0.72081 0.67136 0.0
H1543 H 0.13165 0.75489 0.70268 0.0
H1544 H 0.19321 0.65361 0.70762 0.0
C1545 C 0.07359 0.58138 0.61896 0.0
C1546 C 0.03856 0.58833 0.59792 0.0
C1547 C 0.02096 0.62267 0.60519 0.0
C1548 C 0.03918 0.65054 0.63117 0.0
C1549 C 0.07456 0.64335 0.65013 0.0
C1550 C 0.09125 0.6094 0.64506 0.0
C1551 C 0.13089 0.60978 0.66641 0.0
C1552 C 0.13298 0.58593 0.69787 0.0
C1553 C 0.16055 0.59803 0.63976 0.0
C1554 C 0.13468 0.6497 0.68236 0.0
C1555 C 0.10173 0.66851 0.67283 0.0
C1556 C 0.09985 0.70632 0.6801 0.0
C1557 C 0.13252 0.72542 0.69752 0.0
C1558 C 0.16628 0.7066 0.70778 0.0
C1559 C 0.16724 0.66833 0.70079 0.0
H1560 H 0.32363 0.27937 0.64672 0.0
H1561 H 0.30124 0.3712 0.7295 0.0
H1562 H 0.32939 0.41267 0.69384 0.0
H1563 H 0.41373 0.31341 0.62585 0.0
H1564 H 0.40452 0.29741 0.57613 0.0
H1565 H 0.38428 0.27388 0.60889 0.0
H1566 H 0.31732 0.28175 0.57323 0.0
H1567 H 0.33745 0.30538 0.54052 0.0
H1568 H 0.30083 0.32669 0.56598 0.0
H1569 H 0.3593 0.44515 0.65005 0.0
H1570 H 0.38787 0.46694 0.59916 0.0
H1571 H 0.39001 0.35626 0.54127 0.0
C1572 C 0.32508 0.30815 0.65745 0.0
C1573 C 0.31017 0.32185 0.69123 0.0
C1574 C 0.31219 0.35985 0.70384 0.0
C1575 C 0.32827 0.38377 0.68375 0.0
C1576 C 0.34216 0.3697 0.65052 0.0
C1577 C 0.34069 0.33285 0.63717 0.0
C1578 C 0.35666 0.3256 0.59971 0.0
C1579 C 0.3919 0.30112 0.60285 0.0
C1580 C 0.32625 0.30886 0.56798 0.0
C1581 C 0.36716 0.36406 0.59435 0.0
C1582 C 0.35873 0.38888 0.62431 0.0
C1583 C 0.36606 0.42594 0.62645 0.0
C1584 C 0.38251 0.43811 0.59738 0.0
C1585 C 0.39142 0.41355 0.56604 0.0
C1586 C 0.38333 0.37589 0.56457 0.0
H1587 H 0.17239 0.71431 0.1604 0.0
H1588 H 0.27678 0.654 0.17846 0.0
H1589 H 0.2483 0.60159 0.13336 0.0
H1590 H 0.11051 0.64429 0.15739 0.0
H1591 H 0.07586 0.65779 0.12102 0.0
H1592 H 0.10622 0.69141 0.15066 0.0
H1593 H 0.12931 0.71172 0.09203 0.0
H1594 H 0.09866 0.6783 0.06207 0.0
H1595 H 0.14866 0.67845 0.05833 0.0
H1596 H 0.20348 0.55264 0.09428 0.0
H1597 H 0.14954 0.51459 0.05997 0.0
H1598 H 0.07738 0.61006 0.06475 0.0
C1599 C 0.18955 0.69042 0.15388 0.0
C1600 C 0.22668 0.68795 0.17231 0.0
C1601 C 0.2484 0.65631 0.16391 0.0
C1602 C 0.23238 0.6265 0.13854 0.0
C1603 C 0.19506 0.62938 0.12144 0.0
C1604 C 0.17433 0.66099 0.12821 0.0
C1605 C 0.13436 0.65702 0.10799 0.0
C1606 C 0.10504 0.66296 0.13594 0.0
C1607 C 0.12735 0.68291 0.07834 0.0
C1608 C 0.13519 0.61783 0.08983 0.0
C1609 C 0.17028 0.6021 0.09781 0.0
C1610 C 0.17622 0.56497 0.08702 0.0
C1611 C 0.14547 0.54355 0.06769 0.0
C1612 C 0.10952 0.55951 0.05912 0.0
C1613 C 0.10475 0.59718 0.06996 0.0
H1614 H 0.72021 0.36111 0.67104 0.0
H1615 H 0.63058 0.31894 0.72286 0.0
H1616 H 0.58407 0.35639 0.68867 0.0
H1617 H 0.68171 0.45464 0.67293 0.0
H1618 H 0.69495 0.46111 0.62809 0.0
H1619 H 0.72207 0.43086 0.65605 0.0
H1620 H 0.71155 0.3787 0.60051 0.0
H1621 H 0.68441 0.40873 0.57233 0.0
H1622 H 0.66393 0.36653 0.57909 0.0
H1623 H 0.5446 0.39785 0.64636 0.0
H1624 H 0.51732 0.43976 0.6033 0.0
H1625 H 0.62974 0.4609 0.57767 0.0
C1626 C 0.69081 0.35968 0.67538 0.0
C1627 C 0.68003 0.33597 0.70061 0.0
C1628 C 0.64072 0.33603 0.7045 0.0
C1629 C 0.61364 0.35755 0.68482 0.0
C1630 C 0.62506 0.38021 0.66054 0.0
C1631 C 0.66288 0.38169 0.65584 0.0
C1632 C 0.66712 0.40902 0.62806 0.0
C1633 C 0.69302 0.44079 0.64743 0.0
C1634 C 0.6827 0.38959 0.59291 0.0
C1635 C 0.62603 0.4225 0.61783 0.0
C1636 C 0.6024 0.40506 0.63697 0.0
C1637 C 0.56326 0.41163 0.63171 0.0
C1638 C 0.54777 0.43595 0.60677 0.0
C1639 C 0.57045 0.45511 0.58644 0.0
C1640 C 0.61077 0.44792 0.59268 0.0
H1641 H 0.84217 0.56917 0.20717 0.0
H1642 H 0.91196 0.66258 0.25753 0.0
H1643 H 0.968 0.63081 0.23542 0.0
H1644 H 0.92004 0.49637 0.21983 0.0
H1645 H 0.90136 0.47114 0.17504 0.0
H1646 H 0.86976 0.49622 0.2043 0.0
H1647 H 0.84326 0.53061 0.14914 0.0
H1648 H 0.8746 0.50591 0.11999 0.0
H1649 H 0.87557 0.55498 0.12736 0.0
H1650 H 1.01079 0.59738 0.19484 0.0
H1651 H 0.03595 0.56582 0.13857 0.0
H1652 H 0.93983 0.49273 0.11577 0.0
C1653 C 0.8695 0.58231 0.21518 0.0
C1654 C 0.87267 0.61836 0.23406 0.0
C1655 C 0.9088 0.63508 0.24278 0.0
C1656 C 0.94088 0.61701 0.23077 0.0
C1657 C 0.93641 0.58206 0.21057 0.0
C1658 C 0.90161 0.56466 0.20327 0.0
C1659 C 0.9026 0.53008 0.17561 0.0
C1660 C 0.89819 0.49646 0.19485 0.0
C1661 C 0.87226 0.53049 0.14101 0.0
C1662 C 0.9423 0.53253 0.16568 0.0
C1663 C 0.96188 0.56199 0.1872 0.0
C1664 C 0.99652 0.57342 0.17891 0.0
C1665 C 1.01063 0.55541 0.147 0.0
C1666 C 0.99015 0.52636 0.12407 0.0
C1667 C 0.95653 0.51385 0.13421 0.0
H1668 H 0.91483 0.643 0.58382 0.0
H1669 H 0.80704 0.6078 0.51965 0.0
H1670 H 0.77389 0.63586 0.57299 0.0
H1671 H 0.89484 0.6251 0.67175 0.0
H1672 H 0.91998 0.66428 0.6982 0.0
H1673 H 0.93445 0.64349 0.65433 0.0
H1674 H 0.92707 0.70495 0.62831 0.0
H1675 H 0.91349 0.72623 0.67238 0.0
H1676 H 0.88284 0.72932 0.62917 0.0
H1677 H 0.75395 0.66518 0.63568 0.0
H1678 H 0.74769 0.69997 0.69804 0.0
H1679 H 0.86985 0.71443 0.71976 0.0
C1680 C 0.88418 0.64157 0.58091 0.0
C1681 C 0.86328 0.62329 0.54799 0.0
C1682 C 0.82329 0.62207 0.54473 0.0
C1683 C 0.80444 0.63755 0.57494 0.0
C1684 C 0.82623 0.65417 0.60774 0.0
C1685 C 0.86521 0.65676 0.6105 0.0
C1686 C 0.88247 0.67596 0.64837 0.0
C1687 C 0.90952 0.65068 0.66939 0.0
C1688 C 0.90263 0.71121 0.6443 0.0
C1689 C 0.84712 0.68383 0.66687 0.0
C1690 C 0.81494 0.67087 0.64323 0.0
C1691 C 0.77896 0.67547 0.65433 0.0
C1692 C 0.77574 0.69499 0.68994 0.0
C1693 C 0.80834 0.70982 0.71379 0.0
C1694 C 0.84444 0.70329 0.7023 0.0
H1695 H 0.38307 0.56673 0.43788 0.0
H1696 H 0.49379 0.58991 0.40933 0.0
H1697 H 0.46463 0.63257 0.36809 0.0
H1698 H 0.32895 0.57382 0.34383 0.0
H1699 H 0.28853 0.59631 0.36196 0.0
H1700 H 0.31707 0.56609 0.38882 0.0
H1701 H 0.32768 0.61739 0.4453 0.0
H1702 H 0.29922 0.64774 0.41856 0.0
H1703 H 0.34694 0.66037 0.43917 0.0
H1704 H 0.42399 0.67453 0.32866 0.0
H1705 H 0.37669 0.71205 0.29625 0.0
H1706 H 0.28843 0.66722 0.34798 0.0
C1707 C 0.40125 0.58037 0.42263 0.0
C1708 C 0.44172 0.57367 0.4276 0.0
C1709 C 0.46335 0.59349 0.40695 0.0
C1710 C 0.44676 0.6182 0.38302 0.0
C1711 C 0.40754 0.62432 0.37907 0.0
C1712 C 0.38483 0.60606 0.39835 0.0
C1713 C 0.34332 0.61905 0.38921 0.0
C1714 C 0.31795 0.5869 0.36981 0.0
C1715 C 0.32839 0.6372 0.42521 0.0
C1716 C 0.34634 0.64717 0.36196 0.0
C1717 C 0.38395 0.64934 0.35665 0.0
C1718 C 0.39459 0.6728 0.33291 0.0
C1719 C 0.36695 0.69439 0.31428 0.0
C1720 C 0.32773 0.69375 0.31857 0.0
C1721 C 0.31768 0.66923 0.34333 0.0
H1722 H 0.11195 0.35094 0.81038 0.0
H1723 H 0.14368 0.4419 0.75903 0.0
H1724 H 0.0946 0.47965 0.78769 0.0
H1725 H 1.00475 0.37953 0.81525 0.0
H1726 H 1.00861 0.36285 0.85986 0.0
H1727 H 0.03372 0.34033 0.82307 0.0
H1728 H 0.09568 0.34824 0.87039 0.0
H1729 H 0.07084 0.37225 0.90607 0.0
H1730 H 0.11078 0.39343 0.892 0.0
H1731 H 0.05878 0.51169 0.83623 0.0
H1732 H 0.03822 0.53377 0.89817 0.0
H1733 H 0.03007 0.42234 0.91863 0.0
C1734 C 0.10684 0.37806 0.80332 0.0
C1735 C 0.13146 0.39363 0.78275 0.0
C1736 C 0.12507 0.42964 0.775 0.0
C1737 C 0.09704 0.45116 0.79091 0.0
C1738 C 0.07534 0.43603 0.81404 0.0
C1739 C 0.07931 0.39988 0.81951 0.0
C1740 C 0.05885 0.39206 0.8514 0.0
C1741 C 0.02441 0.36725 0.83648 0.0
C1742 C 0.08566 0.3756 0.88171 0.0
C1743 C 0.04652 0.4301 0.86561 0.0
C1744 C 0.05476 0.45493 0.84287 0.0
C1745 C 0.051 0.49241 0.85358 0.0
C1746 C 0.03959 0.50478 0.88882 0.0
C1747 C 0.03312 0.47963 0.91295 0.0
C1748 C 0.03507 0.44201 0.9005 0.0
H1749 H 0.18632 0.35705 0.30887 0.0
H1750 H 0.30162 0.38069 0.36177 0.0
H1751 H 0.27715 0.41537 0.41698 0.0
H1752 H 0.14297 0.44493 0.34883 0.0
H1753 H 0.10038 0.42156 0.35381 0.0
H1754 H 0.12726 0.40512 0.31607 0.0
H1755 H 0.1314 0.34178 0.33836 0.0
H1756 H 0.10564 0.35819 0.37678 0.0
H1757 H 0.15179 0.33806 0.38591 0.0
H1758 H 0.23995 0.43771 0.47069 0.0
H1759 H 0.19247 0.45377 0.51463 0.0
H1760 H 0.10263 0.41441 0.42581 0.0
C1761 C 0.20641 0.37073 0.33143 0.0
C1762 C 0.24577 0.36634 0.3311 0.0
C1763 C 0.27128 0.38416 0.3613 0.0
C1764 C 0.25765 0.40368 0.39289 0.0
C1765 C 0.21856 0.4055 0.39334 0.0
C1766 C 0.19331 0.39028 0.36294 0.0
C1767 C 0.15286 0.39336 0.37135 0.0
C1768 C 0.1295 0.41771 0.34601 0.0
C1769 C 0.13438 0.35561 0.3679 0.0
C1770 C 0.15935 0.41147 0.41168 0.0
C1771 C 0.19732 0.41845 0.42398 0.0
C1772 C 0.21007 0.43303 0.46113 0.0
C1773 C 0.18308 0.44159 0.48598 0.0
C1774 C 0.14403 0.43549 0.47337 0.0
C1775 C 0.13229 0.41992 0.4359 0.0
loop_
_geom_bond_atom_site_label_1
_geom_bond_atom_site_label_2
_geom_bond_distance
_geom_bond_site_symmetry_2
_ccdc_geom_bond_type
Co0 N5 2.057 . S
Co0 O17 2.021 1_554 S
Co0 O20 2.062 1_655 S
Co0 O24 2.117 1_565 S
Co0 O25 2.020 1_554 S
C1 O21 1.259 1_655 S
C1 O24 1.258 . S
Co2 N11 2.057 . S
Co2 O18 2.117 1_545 S
Co2 O19 2.020 1_556 S
Co2 O21 2.021 1_556 S
Co2 O26 2.062 1_455 S
C3 N5 1.316 . S
C3 N6 1.347 . S
C3 H8 0.932 . S
C4 N5 1.375 . S
C4 C7 1.350 . S
C4 H9 0.930 . S
N5 Co0 2.057 . S
N5 C3 1.316 . S
N5 C4 1.375 . S
N6 C3 1.347 . S
N6 C7 1.373 . S
C7 C4 1.350 . S
C7 N6 1.373 . S
C7 H28 0.931 . S
H8 C3 0.932 . S
H9 C4 0.930 . S
C10 O17 1.259 1_455 S
C10 O18 1.258 . S
N11 Co2 2.057 . S
N11 C12 1.316 . S
N11 C13 1.375 . S
C12 N11 1.316 . S
C12 N14 1.347 . S
C12 H23 0.932 1_556 S
C13 N11 1.375 . S
C13 C15 1.350 . S
C13 H22 0.930 . S
N14 C12 1.347 . S
N14 C15 1.373 . S
C15 C13 1.350 . S
C15 N14 1.373 . S
C15 H29 0.931 . S
C16 O19 1.256 1_565 S
C16 O20 1.255 . S
O17 Co0 2.021 1_556 S
O17 C10 1.259 1_655 S
O18 Co2 2.117 1_565 S
O18 C10 1.258 . S
O19 Co2 2.020 1_554 S
O19 C16 1.256 1_545 S
O20 Co0 2.062 1_455 S
O20 C16 1.255 . S
O21 C1 1.259 1_455 S
O21 Co2 2.021 1_554 S
H22 C13 0.930 . S
H23 C12 0.932 1_554 S
O24 Co0 2.117 1_545 S
O24 C1 1.258 . S
O25 Co0 2.020 1_556 S
O25 C27 1.256 1_565 S
O26 Co2 2.062 1_655 S
O26 C27 1.255 . S
C27 O25 1.256 1_545 S
C27 O26 1.255 . S
H28 C7 0.931 . S
H29 C15 0.931 . S
Co30 N35 2.057 . S
Co30 O47 2.021 . S
Co30 O50 2.062 . S
Co30 O54 2.117 . S
Co30 O55 2.020 . S
C31 O51 1.259 . S
C31 O54 1.258 . S
Co32 N41 2.057 . S
Co32 O48 2.117 . S
Co32 O49 2.020 . S
Co32 O51 2.021 . S
Co32 O56 2.062 . S
C33 N35 1.316 . S
C33 N36 1.347 . S
C33 H38 0.931 . S
C34 N35 1.375 . S
C34 C37 1.350 . S
C34 H39 0.930 . S
N35 Co30 2.057 . S
N35 C33 1.316 . S
N35 C34 1.375 . S
N36 C33 1.347 . S
N36 C37 1.373 . S
C37 C34 1.350 . S
C37 N36 1.373 . S
C37 H58 0.931 . S
H38 C33 0.931 . S
H39 C34 0.930 . S
C40 O47 1.259 . S
C40 O48 1.258 . S
N41 Co32 2.057 . S
N41 C42 1.316 . S
N41 C43 1.375 . S
C42 N41 1.316 . S
C42 N44 1.347 . S
C42 H53 0.931 . S
C43 N41 1.375 . S
C43 C45 1.350 . S
C43 H52 0.930 . S
N44 C42 1.347 . S
N44 C45 1.373 . S
C45 C43 1.350 . S
C45 N44 1.373 . S
C45 H59 0.931 . S
C46 O49 1.256 . S
C46 O50 1.255 . S
O47 Co30 2.021 . S
O47 C40 1.259 . S
O48 Co32 2.117 . S
O48 C40 1.258 . S
O49 Co32 2.020 . S
O49 C46 1.256 . S
O50 Co30 2.062 . S
O50 C46 1.255 . S
O51 C31 1.259 . S
O51 Co32 2.021 . S
H52 C43 0.930 . S
H53 C42 0.931 . S
O54 Co30 2.117 . S
O54 C31 1.258 . S
O55 Co30 2.020 . S
O55 C57 1.256 . S
O56 Co32 2.062 . S
O56 C57 1.255 . S
C57 O55 1.256 . S
C57 O56 1.255 . S
H58 C37 0.931 . S
H59 C45 0.931 . S
Co60 N65 2.057 . S
Co60 O77 2.021 . S
Co60 O80 2.062 . S
Co60 O84 2.117 1_565 S
Co60 O85 2.020 1_565 S
C61 O81 1.259 . S
C61 O84 1.258 . S
Co62 N71 2.057 . S
Co62 O78 2.117 1_545 S
Co62 O79 2.020 1_545 S
Co62 O81 2.021 . S
Co62 O86 2.062 . S
C63 N65 1.316 . S
C63 N66 1.347 . S
C63 H68 0.931 . S
C64 N65 1.375 . S
C64 C67 1.350 . S
C64 H69 0.930 . S
N65 Co60 2.057 . S
N65 C63 1.316 . S
N65 C64 1.375 . S
N66 C63 1.347 . S
N66 C67 1.373 . S
C67 C64 1.350 . S
C67 N66 1.373 . S
C67 H88 0.931 . S
H68 C63 0.931 . S
H69 C64 0.930 . S
C70 O77 1.259 . S
C70 O78 1.258 . S
N71 Co62 2.057 . S
N71 C72 1.316 . S
N71 C73 1.375 . S
C72 N71 1.316 . S
C72 N74 1.347 . S
C72 H83 0.931 . S
C73 N71 1.375 . S
C73 C75 1.350 . S
C73 H82 0.930 . S
N74 C72 1.347 . S
N74 C75 1.373 . S
C75 C73 1.350 . S
C75 N74 1.373 . S
C75 H89 0.931 . S
C76 O79 1.256 . S
C76 O80 1.255 . S
O77 Co60 2.021 . S
O77 C70 1.259 . S
O78 Co62 2.117 1_565 S
O78 C70 1.258 . S
O79 Co62 2.020 1_565 S
O79 C76 1.256 . S
O80 Co60 2.062 . S
O80 C76 1.255 . S
O81 C61 1.259 . S
O81 Co62 2.021 . S
H82 C73 0.930 . S
H83 C72 0.931 . S
O84 Co60 2.117 1_545 S
O84 C61 1.258 . S
O85 Co60 2.020 1_545 S
O85 C87 1.256 . S
O86 Co62 2.062 . S
O86 C87 1.255 . S
C87 O85 1.256 . S
C87 O86 1.255 . S
H88 C67 0.931 . S
H89 C75 0.931 . S
Co90 N95 2.057 . S
Co90 O107 2.021 . S
Co90 O110 2.062 . S
Co90 O114 2.117 . S
Co90 O115 2.020 . S
C91 O111 1.259 . S
C91 O114 1.258 . S
Co92 N101 2.057 . S
Co92 O108 2.117 . S
Co92 O109 2.020 . S
Co92 O111 2.021 . S
Co92 O116 2.062 . S
C93 N95 1.316 . S
C93 N96 1.347 . S
C93 H98 0.931 . S
C94 N95 1.375 . S
C94 C97 1.350 . S
C94 H99 0.930 . S
N95 Co90 2.057 . S
N95 C93 1.316 . S
N95 C94 1.375 . S
N96 C93 1.347 . S
N96 C97 1.373 . S
C97 C94 1.350 . S
C97 N96 1.373 . S
C97 H118 0.931 . S
H98 C93 0.931 . S
H99 C94 0.930 . S
C100 O107 1.259 . S
C100 O108 1.258 . S
N101 Co92 2.057 . S
N101 C102 1.316 . S
N101 C103 1.375 . S
C102 N101 1.316 . S
C102 N104 1.347 . S
C102 H113 0.931 . S
C103 N101 1.375 . S
C103 C105 1.350 . S
C103 H112 0.930 . S
N104 C102 1.347 . S
N104 C105 1.373 . S
C105 C103 1.350 . S
C105 N104 1.373 . S
C105 H119 0.931 . S
C106 O109 1.256 . S
C106 O110 1.255 . S
O107 Co90 2.021 . S
O107 C100 1.259 . S
O108 Co92 2.117 . S
O108 C100 1.258 . S
O109 Co92 2.020 . S
O109 C106 1.256 . S
O110 Co90 2.062 . S
O110 C106 1.255 . S
O111 C91 1.259 . S
O111 Co92 2.021 . S
H112 C103 0.930 . S
H113 C102 0.931 . S
O114 Co90 2.117 . S
O114 C91 1.258 . S
O115 Co90 2.020 . S
O115 C117 1.256 . S
O116 Co92 2.062 . S
O116 C117 1.255 . S
C117 O115 1.256 . S
C117 O116 1.255 . S
H118 C97 0.931 . S
H119 C105 0.931 . S
Co120 N125 2.057 . S
Co120 O137 2.021 1_445 S
Co120 O140 2.062 1_455 S
Co120 O144 2.117 . S
Co120 O145 2.020 1_545 S
C121 O141 1.259 . S
C121 O144 1.258 . S
Co122 N131 2.057 . S
Co122 O138 2.117 . S
Co122 O139 2.020 1_565 S
Co122 O141 2.021 1_665 S
Co122 O146 2.062 1_655 S
C123 N125 1.316 . S
C123 N126 1.347 . S
C123 H128 0.931 . S
C124 N125 1.375 . S
C124 C127 1.350 . S
C124 H129 0.930 . S
N125 Co120 2.057 . S
N125 C123 1.316 . S
N125 C124 1.375 . S
N126 C123 1.347 . S
N126 C127 1.373 . S
C127 C124 1.350 . S
C127 N126 1.373 . S
C127 H148 0.931 . S
H128 C123 0.931 . S
H129 C124 0.930 . S
C130 O137 1.259 . S
C130 O138 1.258 . S
N131 Co122 2.057 . S
N131 C132 1.316 . S
N131 C133 1.375 . S
C132 N131 1.316 . S
C132 N134 1.347 . S
C132 H143 0.931 . S
C133 N131 1.375 . S
C133 C135 1.350 . S
C133 H142 0.930 . S
N134 C132 1.347 . S
N134 C135 1.373 . S
C135 C133 1.350 . S
C135 N134 1.373 . S
C135 H149 0.931 . S
C136 O139 1.256 . S
C136 O140 1.255 . S
O137 Co120 2.021 1_665 S
O137 C130 1.259 . S
O138 Co122 2.117 . S
O138 C130 1.258 . S
O139 Co122 2.020 1_545 S
O139 C136 1.256 . S
O140 Co120 2.062 1_655 S
O140 C136 1.255 . S
O141 C121 1.259 . S
O141 Co122 2.021 1_445 S
H142 C133 0.930 . S
H143 C132 0.931 . S
O144 Co120 2.117 . S
O144 C121 1.258 . S
O145 Co120 2.020 1_565 S
O145 C147 1.256 . S
O146 Co122 2.062 1_455 S
O146 C147 1.255 . S
C147 O145 1.256 . S
C147 O146 1.255 . S
H148 C127 0.931 . S
H149 C135 0.931 . S
Co150 N155 2.057 . S
Co150 O167 2.021 . S
Co150 O170 2.062 . S
Co150 O174 2.117 . S
Co150 O175 2.020 . S
C151 O171 1.259 . S
C151 O174 1.258 . S
Co152 N161 2.057 . S
Co152 O168 2.117 . S
Co152 O169 2.020 . S
Co152 O171 2.021 . S
Co152 O176 2.062 . S
C153 N155 1.316 . S
C153 N156 1.347 . S
C153 H158 0.931 . S
C154 N155 1.375 . S
C154 C157 1.350 . S
C154 H159 0.930 . S
N155 Co150 2.057 . S
N155 C153 1.316 . S
N155 C154 1.375 . S
N156 C153 1.347 . S
N156 C157 1.373 . S
C157 C154 1.350 . S
C157 N156 1.373 . S
C157 H178 0.931 . S
H158 C153 0.931 . S
H159 C154 0.930 . S
C160 O167 1.259 . S
C160 O168 1.258 . S
N161 Co152 2.057 . S
N161 C162 1.316 . S
N161 C163 1.375 . S
C162 N161 1.316 . S
C162 N164 1.347 . S
C162 H173 0.931 . S
C163 N161 1.375 . S
C163 C165 1.350 . S
C163 H172 0.930 . S
N164 C162 1.347 . S
N164 C165 1.373 . S
C165 C163 1.350 . S
C165 N164 1.373 . S
C165 H179 0.931 . S
C166 O169 1.256 . S
C166 O170 1.255 . S
O167 Co150 2.021 . S
O167 C160 1.259 . S
O168 Co152 2.117 . S
O168 C160 1.258 . S
O169 Co152 2.020 . S
O169 C166 1.256 . S
O170 Co150 2.062 . S
O170 C166 1.255 . S
O171 C151 1.259 . S
O171 Co152 2.021 . S
H172 C163 0.930 . S
H173 C162 0.931 . S
O174 Co150 2.117 . S
O174 C151 1.258 . S
O175 Co150 2.020 . S
O175 C177 1.256 . S
O176 Co152 2.062 . S
O176 C177 1.255 . S
C177 O175 1.256 . S
C177 O176 1.255 . S
H178 C157 0.931 . S
H179 C165 0.931 . S
Co180 N185 2.057 . S
Co180 O197 2.021 1_544 S
Co180 O200 2.062 1_545 S
Co180 O204 2.117 . S
Co180 O205 2.020 1_554 S
C181 O201 1.259 . S
C181 O204 1.258 . S
Co182 N191 2.057 . S
Co182 O198 2.117 . S
Co182 O199 2.020 1_556 S
Co182 O201 2.021 1_566 S
Co182 O206 2.062 1_565 S
C183 N185 1.316 . S
C183 N186 1.347 . S
C183 H188 0.931 . S
C184 N185 1.375 . S
C184 C187 1.350 . S
C184 H189 0.930 . S
N185 Co180 2.057 . S
N185 C183 1.316 . S
N185 C184 1.375 . S
N186 C183 1.347 . S
N186 C187 1.373 . S
C187 C184 1.350 . S
C187 N186 1.373 . S
C187 H208 0.931 . S
H188 C183 0.931 . S
H189 C184 0.930 . S
C190 O197 1.259 . S
C190 O198 1.258 . S
N191 Co182 2.057 . S
N191 C192 1.316 . S
N191 C193 1.375 . S
C192 N191 1.316 . S
C192 N194 1.347 . S
C192 H203 0.931 . S
C193 N191 1.375 . S
C193 C195 1.350 . S
C193 H202 0.930 . S
N194 C192 1.347 . S
N194 C195 1.373 . S
C195 C193 1.350 . S
C195 N194 1.373 . S
C195 H209 0.931 . S
C196 O199 1.256 . S
C196 O200 1.255 . S
O197 Co180 2.021 1_566 S
O197 C190 1.259 . S
O198 Co182 2.117 . S
O198 C190 1.258 . S
O199 Co182 2.020 1_554 S
O199 C196 1.256 . S
O200 Co180 2.062 1_565 S
O200 C196 1.255 . S
O201 C181 1.259 . S
O201 Co182 2.021 1_544 S
H202 C193 0.930 . S
H203 C192 0.931 . S
O204 Co180 2.117 . S
O204 C181 1.258 . S
O205 Co180 2.020 1_556 S
O205 C207 1.256 . S
O206 Co182 2.062 1_545 S
O206 C207 1.255 . S
C207 O205 1.256 . S
C207 O206 1.255 . S
H208 C187 0.931 . S
H209 C195 0.931 . S
Co210 N215 2.057 . S
Co210 O227 2.021 . S
Co210 O230 2.062 . S
Co210 O234 2.117 . S
Co210 O235 2.020 . S
C211 O231 1.259 . S
C211 O234 1.258 . S
Co212 N221 2.057 . S
Co212 O228 2.117 . S
Co212 O229 2.020 . S
Co212 O231 2.021 . S
Co212 O236 2.062 . S
C213 N215 1.316 . S
C213 N216 1.347 . S
C213 H218 0.931 . S
C214 N215 1.375 . S
C214 C217 1.350 . S
C214 H219 0.930 . S
N215 Co210 2.057 . S
N215 C213 1.316 . S
N215 C214 1.375 . S
N216 C213 1.347 . S
N216 C217 1.373 . S
C217 C214 1.350 . S
C217 N216 1.373 . S
C217 H238 0.931 . S
H218 C213 0.931 . S
H219 C214 0.930 . S
C220 O227 1.259 . S
C220 O228 1.258 . S
N221 Co212 2.057 . S
N221 C222 1.316 . S
N221 C223 1.375 . S
C222 N221 1.316 . S
C222 N224 1.347 . S
C222 H233 0.931 . S
C223 N221 1.375 . S
C223 C225 1.350 . S
C223 H232 0.930 . S
N224 C222 1.347 . S
N224 C225 1.373 . S
C225 C223 1.350 . S
C225 N224 1.373 . S
C225 H239 0.931 . S
C226 O229 1.256 . S
C226 O230 1.255 . S
O227 Co210 2.021 . S
O227 C220 1.259 . S
O228 Co212 2.117 . S
O228 C220 1.258 . S
O229 Co212 2.020 . S
O229 C226 1.256 . S
O230 Co210 2.062 . S
O230 C226 1.255 . S
O231 C211 1.259 . S
O231 Co212 2.021 . S
H232 C223 0.930 . S
H233 C222 0.931 . S
O234 Co210 2.117 . S
O234 C211 1.258 . S
O235 Co210 2.020 . S
O235 C237 1.256 . S
O236 Co212 2.062 . S
O236 C237 1.255 . S
C237 O235 1.256 . S
C237 O236 1.255 . S
H238 C217 0.931 . S
H239 C225 0.931 . S
Co240 N245 2.057 . S
Co240 O257 2.021 . S
Co240 O260 2.062 . S
Co240 O264 2.117 1_556 S
Co240 O265 2.008 1_556 S
C241 O261 1.259 . S
C241 O264 1.258 . S
Co242 N251 2.057 . S
Co242 O258 2.117 1_554 S
Co242 O259 2.012 1_554 S
Co242 O261 2.021 . S
Co242 O266 2.062 . S
C243 N245 1.316 . S
C243 N246 1.347 . S
C243 H248 0.931 . S
C244 N245 1.375 . S
C244 C247 1.350 . S
C244 H249 0.930 . S
N245 Co240 2.057 . S
N245 C243 1.316 . S
N245 C244 1.375 . S
N246 C243 1.347 . S
N246 C247 1.373 . S
C247 C244 1.350 . S
C247 N246 1.373 . S
C247 H268 0.931 . S
H248 C243 0.931 . S
H249 C244 0.930 . S
C250 O257 1.259 . S
C250 O258 1.258 . S
N251 Co242 2.057 . S
N251 C252 1.316 . S
N251 C253 1.375 . S
C252 N251 1.316 . S
C252 N254 1.347 . S
C252 H263 0.931 . S
C253 N251 1.375 . S
C253 C255 1.350 . S
C253 H262 0.930 . S
N254 C252 1.347 . S
N254 C255 1.373 . S
C255 C253 1.350 . S
C255 N254 1.373 . S
C255 H269 0.931 . S
C256 O259 1.269 . S
C256 O260 1.255 . S
O257 Co240 2.021 . S
O257 C250 1.259 . S
O258 Co242 2.117 1_556 S
O258 C250 1.258 . S
O259 Co242 2.012 1_556 S
O259 C256 1.269 . S
O260 Co240 2.062 . S
O260 C256 1.255 . S
O261 C241 1.259 . S
O261 Co242 2.021 . S
H262 C253 0.930 . S
H263 C252 0.931 . S
O264 Co240 2.117 1_554 S
O264 C241 1.258 . S
O265 Co240 2.008 1_554 S
O265 C267 1.276 . S
O266 Co242 2.062 . S
O266 C267 1.255 . S
C267 O265 1.276 . S
C267 O266 1.255 . S
H268 C247 0.931 . S
H269 C255 0.931 . S
Co270 N275 2.057 . S
Co270 O287 2.021 . S
Co270 O290 2.062 . S
Co270 O294 2.117 . S
Co270 O295 2.020 . S
C271 O291 1.259 . S
C271 O294 1.258 . S
Co272 N281 2.057 . S
Co272 O288 2.117 . S
Co272 O289 2.020 . S
Co272 O291 2.021 . S
Co272 O296 2.062 . S
C273 N275 1.316 . S
C273 N276 1.347 . S
C273 H278 0.931 . S
C274 N275 1.375 . S
C274 C277 1.350 . S
C274 H279 0.930 . S
N275 Co270 2.057 . S
N275 C273 1.316 . S
N275 C274 1.375 . S
N276 C273 1.347 . S
N276 C277 1.373 . S
C277 C274 1.350 . S
C277 N276 1.373 . S
C277 H298 0.931 . S
H278 C273 0.931 . S
H279 C274 0.930 . S
C280 O287 1.259 . S
C280 O288 1.258 . S
N281 Co272 2.057 . S
N281 C282 1.316 . S
N281 C283 1.375 . S
C282 N281 1.316 . S
C282 N284 1.347 . S
C282 H293 0.931 . S
C283 N281 1.375 . S
C283 C285 1.350 . S
C283 H292 0.930 . S
N284 C282 1.347 . S
N284 C285 1.373 . S
C285 C283 1.350 . S
C285 N284 1.373 . S
C285 H299 0.931 . S
C286 O289 1.256 . S
C286 O290 1.255 . S
O287 Co270 2.021 . S
O287 C280 1.259 . S
O288 Co272 2.117 . S
O288 C280 1.258 . S
O289 Co272 2.020 . S
O289 C286 1.256 . S
O290 Co270 2.062 . S
O290 C286 1.255 . S
O291 C271 1.259 . S
O291 Co272 2.021 . S
H292 C283 0.930 . S
H293 C282 0.931 . S
O294 Co270 2.117 . S
O294 C271 1.258 . S
O295 Co270 2.020 . S
O295 C297 1.256 . S
O296 Co272 2.062 . S
O296 C297 1.255 . S
C297 O295 1.256 . S
C297 O296 1.255 . S
H298 C277 0.931 . S
H299 C285 0.931 . S
Co300 N305 2.057 . S
Co300 O317 2.021 . S
Co300 O320 2.062 . S
Co300 O324 2.117 1_655 S
Co300 O325 2.020 . S
C301 O321 1.259 . S
C301 O324 1.258 . S
Co302 N311 2.057 . S
Co302 O318 2.117 1_455 S
Co302 O319 2.020 . S
Co302 O321 2.021 . S
Co302 O326 2.062 . S
C303 N305 1.316 . S
C303 N306 1.347 . S
C303 H308 0.931 . S
C304 N305 1.375 . S
C304 C307 1.350 . S
C304 H309 0.930 . S
N305 Co300 2.057 . S
N305 C303 1.316 . S
N305 C304 1.375 . S
N306 C303 1.347 . S
N306 C307 1.373 . S
C307 C304 1.350 . S
C307 N306 1.373 . S
C307 H328 0.931 . S
H308 C303 0.931 . S
H309 C304 0.930 . S
C310 O317 1.259 . S
C310 O318 1.258 . S
N311 Co302 2.057 . S
N311 C312 1.316 . S
N311 C313 1.375 . S
C312 N311 1.316 . S
C312 N314 1.347 . S
C312 H323 0.931 . S
C313 N311 1.375 . S
C313 C315 1.350 . S
C313 H322 0.930 . S
N314 C312 1.347 . S
N314 C315 1.373 . S
C315 C313 1.350 . S
C315 N314 1.373 . S
C315 H329 0.931 . S
C316 O319 1.256 1_655 S
C316 O320 1.255 . S
O317 Co300 2.021 . S
O317 C310 1.259 . S
O318 Co302 2.117 1_655 S
O318 C310 1.258 . S
O319 Co302 2.020 . S
O319 C316 1.256 1_455 S
O320 Co300 2.062 . S
O320 C316 1.255 . S
O321 C301 1.259 . S
O321 Co302 2.021 . S
H322 C313 0.930 . S
H323 C312 0.931 . S
O324 Co300 2.117 1_455 S
O324 C301 1.258 . S
O325 Co300 2.020 . S
O325 C327 1.256 1_655 S
O326 Co302 2.062 . S
O326 C327 1.255 . S
C327 O325 1.256 1_455 S
C327 O326 1.255 . S
H328 C307 0.931 . S
H329 C315 0.931 . S
Co330 N335 2.057 . S
Co330 O347 2.021 . S
Co330 O350 2.062 . S
Co330 O354 2.117 . S
Co330 O355 2.020 . S
C331 O351 1.259 . S
C331 O354 1.258 . S
Co332 N341 2.057 . S
Co332 O348 2.117 . S
Co332 O349 2.020 . S
Co332 O351 2.021 . S
Co332 O356 2.062 . S
C333 N335 1.316 . S
C333 N336 1.347 . S
C333 H338 0.931 . S
C334 N335 1.375 . S
C334 C337 1.350 . S
C334 H339 0.930 . S
N335 Co330 2.057 . S
N335 C333 1.316 . S
N335 C334 1.375 . S
N336 C333 1.347 . S
N336 C337 1.373 . S
C337 C334 1.350 . S
C337 N336 1.373 . S
C337 H358 0.931 . S
H338 C333 0.931 . S
H339 C334 0.930 . S
C340 O347 1.259 . S
C340 O348 1.258 . S
N341 Co332 2.057 . S
N341 C342 1.316 . S
N341 C343 1.375 . S
C342 N341 1.316 . S
C342 N344 1.347 . S
C342 H353 0.931 . S
C343 N341 1.375 . S
C343 C345 1.350 . S
C343 H352 0.930 . S
N344 C342 1.347 . S
N344 C345 1.373 . S
C345 C343 1.350 . S
C345 N344 1.373 . S
C345 H359 0.931 . S
C346 O349 1.256 . S
C346 O350 1.255 . S
O347 Co330 2.021 . S
O347 C340 1.259 . S
O348 Co332 2.117 . S
O348 C340 1.258 . S
O349 Co332 2.020 . S
O349 C346 1.256 . S
O350 Co330 2.062 . S
O350 C346 1.255 . S
O351 C331 1.259 . S
O351 Co332 2.021 . S
H352 C343 0.930 . S
H353 C342 0.931 . S
O354 Co330 2.117 . S
O354 C331 1.258 . S
O355 Co330 2.020 . S
O355 C357 1.256 . S
O356 Co332 2.062 . S
O356 C357 1.255 . S
C357 O355 1.256 . S
C357 O356 1.255 . S
H358 C337 0.931 . S
H359 C345 0.931 . S
Co360 N365 2.057 . S
Co360 O377 2.021 . S
Co360 O380 2.062 . S
Co360 O384 2.117 . S
Co360 O385 2.020 . S
C361 O381 1.259 . S
C361 O384 1.258 . S
Co362 N371 2.057 . S
Co362 O378 2.117 . S
Co362 O379 2.020 . S
Co362 O381 2.021 . S
Co362 O386 2.062 . S
C363 N365 1.316 . S
C363 N366 1.347 . S
C363 H368 0.931 . S
C364 N365 1.375 . S
C364 C367 1.350 . S
C364 H369 0.930 . S
N365 Co360 2.057 . S
N365 C363 1.316 . S
N365 C364 1.375 . S
N366 C363 1.347 . S
N366 C367 1.373 . S
C367 C364 1.350 . S
C367 N366 1.373 . S
C367 H388 0.931 . S
H368 C363 0.931 . S
H369 C364 0.930 . S
C370 O377 1.259 . S
C370 O378 1.258 . S
N371 Co362 2.057 . S
N371 C372 1.316 . S
N371 C373 1.375 . S
C372 N371 1.316 . S
C372 N374 1.347 . S
C372 H383 0.931 . S
C373 N371 1.375 . S
C373 C375 1.350 . S
C373 H382 0.930 . S
N374 C372 1.347 . S
N374 C375 1.373 . S
C375 C373 1.350 . S
C375 N374 1.373 . S
C375 H389 0.931 . S
C376 O379 1.256 . S
C376 O380 1.255 . S
O377 Co360 2.021 . S
O377 C370 1.259 . S
O378 Co362 2.117 . S
O378 C370 1.258 . S
O379 Co362 2.020 . S
O379 C376 1.256 . S
O380 Co360 2.062 . S
O380 C376 1.255 . S
O381 C361 1.259 . S
O381 Co362 2.021 . S
H382 C373 0.930 . S
H383 C372 0.931 . S
O384 Co360 2.117 . S
O384 C361 1.258 . S
O385 Co360 2.020 . S
O385 C387 1.256 . S
O386 Co362 2.062 . S
O386 C387 1.255 . S
C387 O385 1.256 . S
C387 O386 1.255 . S
H388 C367 0.931 . S
H389 C375 0.931 . S
Co390 N395 2.057 . S
Co390 O407 2.021 . S
Co390 O410 2.062 . S
Co390 O414 2.117 . S
Co390 O415 2.020 . S
C391 O411 1.259 . S
C391 O414 1.258 . S
Co392 N401 2.057 . S
Co392 O408 2.117 . S
Co392 O409 2.020 . S
Co392 O411 2.021 . S
Co392 O416 2.062 . S
C393 N395 1.316 . S
C393 N396 1.347 . S
C393 H398 0.931 . S
C394 N395 1.375 . S
C394 C397 1.350 . S
C394 H399 0.930 . S
N395 Co390 2.057 . S
N395 C393 1.316 . S
N395 C394 1.375 . S
N396 C393 1.347 . S
N396 C397 1.373 . S
C397 C394 1.350 . S
C397 N396 1.373 . S
C397 H418 0.931 . S
H398 C393 0.931 . S
H399 C394 0.930 . S
C400 O407 1.259 . S
C400 O408 1.258 . S
N401 Co392 2.057 . S
N401 C402 1.316 . S
N401 C403 1.375 . S
C402 N401 1.316 . S
C402 N404 1.347 . S
C402 H413 0.931 . S
C403 N401 1.375 . S
C403 C405 1.350 . S
C403 H412 0.930 . S
N404 C402 1.347 . S
N404 C405 1.373 . S
C405 C403 1.350 . S
C405 N404 1.373 . S
C405 H419 0.931 . S
C406 O409 1.256 . S
C406 O410 1.255 . S
O407 Co390 2.021 . S
O407 C400 1.259 . S
O408 Co392 2.117 . S
O408 C400 1.258 . S
O409 Co392 2.020 . S
O409 C406 1.256 . S
O410 Co390 2.062 . S
O410 C406 1.255 . S
O411 C391 1.259 . S
O411 Co392 2.021 . S
H412 C403 0.930 . S
H413 C402 0.931 . S
O414 Co390 2.117 . S
O414 C391 1.258 . S
O415 Co390 2.020 . S
O415 C417 1.256 . S
O416 Co392 2.062 . S
O416 C417 1.255 . S
C417 O415 1.256 . S
C417 O416 1.255 . S
H418 C397 0.931 . S
H419 C405 0.931 . S
Co420 N425 2.057 . S
Co420 O437 2.021 . S
Co420 O440 2.062 . S
Co420 O444 2.117 . S
Co420 O445 2.020 . S
C421 O441 1.259 . S
C421 O444 1.258 . S
Co422 N431 2.057 . S
Co422 O438 2.117 . S
Co422 O439 2.020 . S
Co422 O441 2.021 . S
Co422 O446 2.062 . S
C423 N425 1.316 . S
C423 N426 1.347 . S
C423 H428 0.931 . S
C424 N425 1.375 . S
C424 C427 1.350 . S
C424 H429 0.930 . S
N425 Co420 2.057 . S
N425 C423 1.316 . S
N425 C424 1.375 . S
N426 C423 1.347 . S
N426 C427 1.373 . S
C427 C424 1.350 . S
C427 N426 1.373 . S
C427 H448 0.931 . S
H428 C423 0.931 . S
H429 C424 0.930 . S
C430 O437 1.259 . S
C430 O438 1.258 . S
N431 Co422 2.057 . S
N431 C432 1.316 . S
N431 C433 1.375 . S
C432 N431 1.316 . S
C432 N434 1.347 . S
C432 H443 0.931 . S
C433 N431 1.375 . S
C433 C435 1.350 . S
C433 H442 0.930 . S
N434 C432 1.347 . S
N434 C435 1.373 . S
C435 C433 1.350 . S
C435 N434 1.373 . S
C435 H449 0.931 . S
C436 O439 1.256 . S
C436 O440 1.255 . S
O437 Co420 2.021 . S
O437 C430 1.259 . S
O438 Co422 2.117 . S
O438 C430 1.258 . S
O439 Co422 2.020 . S
O439 C436 1.256 . S
O440 Co420 2.062 . S
O440 C436 1.255 . S
O441 C421 1.259 . S
O441 Co422 2.021 . S
H442 C433 0.930 . S
H443 C432 0.931 . S
O444 Co420 2.117 . S
O444 C421 1.258 . S
O445 Co420 2.020 . S
O445 C447 1.256 . S
O446 Co422 2.062 . S
O446 C447 1.255 . S
C447 O445 1.256 . S
C447 O446 1.255 . S
H448 C427 0.931 . S
H449 C435 0.931 . S
Co450 N455 2.057 . S
Co450 O467 2.021 1_454 S
Co450 O470 2.062 1_554 S
Co450 O474 2.117 . S
Co450 O475 2.020 1_455 S
C451 O471 1.259 . S
C451 O474 1.258 . S
Co452 N461 2.057 . S
Co452 O468 2.117 . S
Co452 O469 2.020 1_655 S
Co452 O471 2.021 1_656 S
Co452 O476 2.062 1_556 S
C453 N455 1.316 . S
C453 N456 1.347 . S
C453 H458 0.931 . S
C454 N455 1.375 . S
C454 C457 1.350 . S
C454 H459 0.930 . S
N455 Co450 2.057 . S
N455 C453 1.316 . S
N455 C454 1.375 . S
N456 C453 1.347 . S
N456 C457 1.373 . S
C457 C454 1.350 . S
C457 N456 1.373 . S
C457 H478 0.931 . S
H458 C453 0.931 . S
H459 C454 0.930 . S
C460 O467 1.259 . S
C460 O468 1.258 . S
N461 Co452 2.057 . S
N461 C462 1.316 . S
N461 C463 1.375 . S
C462 N461 1.316 . S
C462 N464 1.347 . S
C462 H473 0.931 . S
C463 N461 1.375 . S
C463 C465 1.350 . S
C463 H472 0.930 . S
N464 C462 1.347 . S
N464 C465 1.373 . S
C465 C463 1.350 . S
C465 N464 1.373 . S
C465 H479 0.931 . S
C466 O469 1.256 . S
C466 O470 1.255 . S
O467 Co450 2.021 1_656 S
O467 C460 1.259 . S
O468 Co452 2.117 . S
O468 C460 1.258 . S
O469 Co452 2.020 1_455 S
O469 C466 1.256 . S
O470 Co450 2.062 1_556 S
O470 C466 1.255 . S
O471 C451 1.259 . S
O471 Co452 2.021 1_454 S
H472 C463 0.930 . S
H473 C462 0.931 . S
O474 Co450 2.117 . S
O474 C451 1.258 . S
O475 Co450 2.020 1_655 S
O475 C477 1.256 . S
O476 Co452 2.062 1_554 S
O476 C477 1.255 . S
C477 O475 1.256 . S
C477 O476 1.255 . S
H478 C457 0.931 . S
H479 C465 0.931 . S
H480 C492 0.930 . S
H481 C494 0.930 . S
H482 C495 0.930 . S
H483 C499 0.959 . S
H484 C499 0.959 . S
H485 C499 0.961 . S
H486 C500 0.960 . S
H487 C500 0.961 . S
H488 C500 0.959 . S
H489 C503 0.929 . S
H490 C504 0.931 . S
H491 C506 0.930 . S
C492 H480 0.930 . S
C492 C493 1.399 . S
C492 C497 1.399 . S
C493 C492 1.399 . S
C493 C494 1.376 . S
C494 H481 0.930 . S
C494 C493 1.376 . S
C494 C495 1.388 . S
C495 H482 0.930 . S
C495 C494 1.388 . S
C495 C496 1.390 . S
C496 C495 1.390 . S
C496 C497 1.394 . S
C496 C502 1.465 . S
C497 C492 1.399 . S
C497 C496 1.394 . S
C497 C498 1.516 . S
C498 C497 1.516 . S
C498 C499 1.502 . S
C498 C500 1.561 . S
C498 C501 1.526 . S
C499 H483 0.959 . S
C499 H484 0.959 . S
C499 H485 0.961 . S
C499 C498 1.502 . S
C500 H486 0.960 . S
C500 H487 0.961 . S
C500 H488 0.959 . S
C500 C498 1.561 . S
C501 C498 1.526 . S
C501 C502 1.396 . S
C501 C506 1.390 . S
C502 C496 1.465 . S
C502 C501 1.396 . S
C502 C503 1.399 . S
C503 H489 0.929 . S
C503 C502 1.399 . S
C503 C504 1.385 . S
C504 H490 0.931 . S
C504 C503 1.385 . S
C504 C505 1.389 . S
C505 C504 1.389 . S
C505 C506 1.387 . S
C506 H491 0.930 . S
C506 C501 1.390 . S
C506 C505 1.387 . S
H507 C519 0.930 . S
H508 C521 0.930 . S
H509 C522 0.930 . S
H510 C526 0.959 . S
H511 C526 0.959 . S
H512 C526 0.961 . S
H513 C527 0.960 . S
H514 C527 0.961 . S
H515 C527 0.959 . S
H516 C530 0.929 . S
H517 C531 0.931 . S
H518 C533 0.930 . S
C519 H507 0.930 . S
C519 C520 1.399 . S
C519 C524 1.399 . S
C520 C519 1.399 . S
C520 C521 1.376 . S
C521 H508 0.930 . S
C521 C520 1.376 . S
C521 C522 1.388 . S
C522 H509 0.930 . S
C522 C521 1.388 . S
C522 C523 1.390 . S
C523 C522 1.390 . S
C523 C524 1.394 . S
C523 C529 1.465 . S
C524 C519 1.399 . S
C524 C523 1.394 . S
C524 C525 1.516 . S
C525 C524 1.516 . S
C525 C526 1.502 . S
C525 C527 1.561 . S
C525 C528 1.526 . S
C526 H510 0.959 . S
C526 H511 0.959 . S
C526 H512 0.961 . S
C526 C525 1.502 . S
C527 H513 0.960 . S
C527 H514 0.961 . S
C527 H515 0.959 . S
C527 C525 1.561 . S
C528 C525 1.526 . S
C528 C529 1.396 . S
C528 C533 1.390 . S
C529 C523 1.465 . S
C529 C528 1.396 . S
C529 C530 1.399 . S
C530 H516 0.929 . S
C530 C529 1.399 . S
C530 C531 1.385 . S
C531 H517 0.931 . S
C531 C530 1.385 . S
C531 C532 1.389 . S
C532 C531 1.389 . S
C532 C533 1.387 . S
C533 H518 0.930 . S
C533 C528 1.390 . S
C533 C532 1.387 . S
H534 C546 0.930 . S
H535 C548 0.930 . S
H536 C549 0.930 . S
H537 C553 0.959 . S
H538 C553 0.959 . S
H539 C553 0.961 . S
H540 C554 0.960 . S
H541 C554 0.961 . S
H542 C554 0.959 . S
H543 C557 0.929 . S
H544 C558 0.931 . S
H545 C560 0.930 . S
C546 H534 0.930 . S
C546 C547 1.399 . S
C546 C551 1.399 . S
C547 C546 1.399 . S
C547 C548 1.376 . S
C548 H535 0.930 . S
C548 C547 1.376 . S
C548 C549 1.388 . S
C549 H536 0.930 . S
C549 C548 1.388 . S
C549 C550 1.390 . S
C550 C549 1.390 . S
C550 C551 1.394 . S
C550 C556 1.465 . S
C551 C546 1.399 . S
C551 C550 1.394 . S
C551 C552 1.516 . S
C552 C551 1.516 . S
C552 C553 1.502 . S
C552 C554 1.561 . S
C552 C555 1.526 . S
C553 H537 0.959 . S
C553 H538 0.959 . S
C553 H539 0.961 . S
C553 C552 1.502 . S
C554 H540 0.960 . S
C554 H541 0.961 . S
C554 H542 0.959 . S
C554 C552 1.561 . S
C555 C552 1.526 . S
C555 C556 1.396 . S
C555 C560 1.390 . S
C556 C550 1.465 . S
C556 C555 1.396 . S
C556 C557 1.399 . S
C557 H543 0.929 . S
C557 C556 1.399 . S
C557 C558 1.385 . S
C558 H544 0.931 . S
C558 C557 1.385 . S
C558 C559 1.389 . S
C559 C558 1.389 . S
C559 C560 1.387 . S
C560 H545 0.930 . S
C560 C555 1.390 . S
C560 C559 1.387 . S
H561 C573 0.930 . S
H562 C575 0.930 . S
H563 C576 0.930 . S
H564 C580 0.959 . S
H565 C580 0.959 . S
H566 C580 0.961 . S
H567 C581 0.960 . S
H568 C581 0.961 . S
H569 C581 0.959 . S
H570 C584 0.929 . S
H571 C585 0.931 . S
H572 C587 0.930 . S
C573 H561 0.930 . S
C573 C574 1.399 . S
C573 C578 1.399 . S
C574 C573 1.399 . S
C574 C575 1.376 . S
C575 H562 0.930 . S
C575 C574 1.376 . S
C575 C576 1.388 . S
C576 H563 0.930 . S
C576 C575 1.388 . S
C576 C577 1.390 . S
C577 C576 1.390 . S
C577 C578 1.394 . S
C577 C583 1.465 . S
C578 C573 1.399 . S
C578 C577 1.394 . S
C578 C579 1.516 . S
C579 C578 1.516 . S
C579 C580 1.502 . S
C579 C581 1.561 . S
C579 C582 1.526 . S
C580 H564 0.959 . S
C580 H565 0.959 . S
C580 H566 0.961 . S
C580 C579 1.502 . S
C581 H567 0.960 . S
C581 H568 0.961 . S
C581 H569 0.959 . S
C581 C579 1.561 . S
C582 C579 1.526 . S
C582 C583 1.396 . S
C582 C587 1.390 . S
C583 C577 1.465 . S
C583 C582 1.396 . S
C583 C584 1.399 . S
C584 H570 0.929 . S
C584 C583 1.399 . S
C584 C585 1.385 . S
C585 H571 0.931 . S
C585 C584 1.385 . S
C585 C586 1.389 . S
C586 C585 1.389 . S
C586 C587 1.387 . S
C587 H572 0.930 . S
C587 C582 1.390 . S
C587 C586 1.387 . S
H588 C600 0.930 . S
H589 C602 0.930 . S
H590 C603 0.930 . S
H591 C607 0.959 . S
H592 C607 0.959 . S
H593 C607 0.961 . S
H594 C608 0.960 . S
H595 C608 0.961 . S
H596 C608 0.959 . S
H597 C611 0.929 . S
H598 C612 0.931 . S
H599 C614 0.930 . S
C600 H588 0.930 . S
C600 C601 1.399 . S
C600 C605 1.399 . S
C601 C600 1.399 . S
C601 C602 1.376 . S
C602 H589 0.930 . S
C602 C601 1.376 . S
C602 C603 1.388 . S
C603 H590 0.930 . S
C603 C602 1.388 . S
C603 C604 1.390 . S
C604 C603 1.390 . S
C604 C605 1.394 . S
C604 C610 1.465 . S
C605 C600 1.399 . S
C605 C604 1.394 . S
C605 C606 1.516 . S
C606 C605 1.516 . S
C606 C607 1.502 . S
C606 C608 1.561 . S
C606 C609 1.526 . S
C607 H591 0.959 . S
C607 H592 0.959 . S
C607 H593 0.961 . S
C607 C606 1.502 . S
C608 H594 0.960 . S
C608 H595 0.961 . S
C608 H596 0.959 . S
C608 C606 1.561 . S
C609 C606 1.526 . S
C609 C610 1.396 . S
C609 C614 1.390 . S
C610 C604 1.465 . S
C610 C609 1.396 . S
C610 C611 1.399 . S
C611 H597 0.929 . S
C611 C610 1.399 . S
C611 C612 1.385 . S
C612 H598 0.931 . S
C612 C611 1.385 . S
C612 C613 1.389 . S
C613 C612 1.389 . S
C613 C614 1.387 . S
C614 H599 0.930 . S
C614 C609 1.390 . S
C614 C613 1.387 . S
H615 C627 0.930 . S
H616 C629 0.930 . S
H617 C630 0.930 . S
H618 C634 0.959 . S
H619 C634 0.959 . S
H620 C634 0.961 . S
H621 C635 0.960 . S
H622 C635 0.961 . S
H623 C635 0.959 . S
H624 C638 0.929 . S
H625 C639 0.931 . S
H626 C641 0.930 . S
C627 H615 0.930 . S
C627 C628 1.399 . S
C627 C632 1.399 . S
C628 C627 1.399 . S
C628 C629 1.376 . S
C629 H616 0.930 . S
C629 C628 1.376 . S
C629 C630 1.388 . S
C630 H617 0.930 . S
C630 C629 1.388 . S
C630 C631 1.390 . S
C631 C630 1.390 . S
C631 C632 1.394 . S
C631 C637 1.465 . S
C632 C627 1.399 . S
C632 C631 1.394 . S
C632 C633 1.516 . S
C633 C632 1.516 . S
C633 C634 1.502 . S
C633 C635 1.561 . S
C633 C636 1.526 . S
C634 H618 0.959 . S
C634 H619 0.959 . S
C634 H620 0.961 . S
C634 C633 1.502 . S
C635 H621 0.960 . S
C635 H622 0.961 . S
C635 H623 0.959 . S
C635 C633 1.561 . S
C636 C633 1.526 . S
C636 C637 1.396 . S
C636 C641 1.390 . S
C637 C631 1.465 . S
C637 C636 1.396 . S
C637 C638 1.399 . S
C638 H624 0.929 . S
C638 C637 1.399 . S
C638 C639 1.385 . S
C639 H625 0.931 . S
C639 C638 1.385 . S
C639 C640 1.389 . S
C640 C639 1.389 . S
C640 C641 1.387 . S
C641 H626 0.930 . S
C641 C636 1.390 . S
C641 C640 1.387 . S
H642 C654 0.930 . S
H643 C656 0.930 . S
H644 C657 0.930 . S
H645 C661 0.959 . S
H646 C661 0.959 . S
H647 C661 0.961 . S
H648 C662 0.960 . S
H649 C662 0.961 . S
H650 C662 0.959 . S
H651 C665 0.929 . S
H652 C666 0.931 . S
H653 C668 0.930 . S
C654 H642 0.930 . S
C654 C655 1.399 . S
C654 C659 1.399 . S
C655 C654 1.399 . S
C655 C656 1.376 . S
C656 H643 0.930 . S
C656 C655 1.376 . S
C656 C657 1.388 . S
C657 H644 0.930 . S
C657 C656 1.388 . S
C657 C658 1.390 . S
C658 C657 1.390 . S
C658 C659 1.394 . S
C658 C664 1.465 . S
C659 C654 1.399 . S
C659 C658 1.394 . S
C659 C660 1.516 . S
C660 C659 1.516 . S
C660 C661 1.502 . S
C660 C662 1.561 . S
C660 C663 1.526 . S
C661 H645 0.959 . S
C661 H646 0.959 . S
C661 H647 0.961 . S
C661 C660 1.502 . S
C662 H648 0.960 . S
C662 H649 0.961 . S
C662 H650 0.959 . S
C662 C660 1.561 . S
C663 C660 1.526 . S
C663 C664 1.396 . S
C663 C668 1.390 . S
C664 C658 1.465 . S
C664 C663 1.396 . S
C664 C665 1.399 . S
C665 H651 0.929 . S
C665 C664 1.399 . S
C665 C666 1.385 . S
C666 H652 0.931 . S
C666 C665 1.385 . S
C666 C667 1.389 . S
C667 C666 1.389 . S
C667 C668 1.387 . S
C668 H653 0.930 . S
C668 C663 1.390 . S
C668 C667 1.387 . S
H669 C681 0.930 . S
H670 C683 0.930 . S
H671 C684 0.930 . S
H672 C688 0.959 . S
H673 C688 0.959 . S
H674 C688 0.961 . S
H675 C689 0.960 . S
H676 C689 0.961 . S
H677 C689 0.959 . S
H678 C692 0.929 . S
H679 C693 0.931 . S
H680 C695 0.930 . S
C681 H669 0.930 . S
C681 C682 1.399 . S
C681 C686 1.399 . S
C682 C681 1.399 . S
C682 C683 1.376 . S
C683 H670 0.930 . S
C683 C682 1.376 . S
C683 C684 1.388 . S
C684 H671 0.930 . S
C684 C683 1.388 . S
C684 C685 1.390 . S
C685 C684 1.390 . S
C685 C686 1.394 . S
C685 C691 1.465 . S
C686 C681 1.399 . S
C686 C685 1.394 . S
C686 C687 1.516 . S
C687 C686 1.516 . S
C687 C688 1.502 . S
C687 C689 1.561 . S
C687 C690 1.526 . S
C688 H672 0.959 . S
C688 H673 0.959 . S
C688 H674 0.961 . S
C688 C687 1.502 . S
C689 H675 0.960 . S
C689 H676 0.961 . S
C689 H677 0.959 . S
C689 C687 1.561 . S
C690 C687 1.526 . S
C690 C691 1.396 . S
C690 C695 1.390 . S
C691 C685 1.465 . S
C691 C690 1.396 . S
C691 C692 1.399 . S
C692 H678 0.929 . S
C692 C691 1.399 . S
C692 C693 1.385 . S
C693 H679 0.931 . S
C693 C692 1.385 . S
C693 C694 1.389 . S
C694 C693 1.389 . S
C694 C695 1.387 . S
C695 H680 0.930 . S
C695 C690 1.390 . S
C695 C694 1.387 . S
H696 C708 0.930 . S
H697 C710 0.930 . S
H698 C711 0.930 . S
H699 C715 0.959 . S
H700 C715 0.959 . S
H701 C715 0.961 . S
H702 C716 0.960 . S
H703 C716 0.961 . S
H704 C716 0.959 . S
H705 C719 0.929 . S
H706 C720 0.931 . S
H707 C722 0.930 . S
C708 H696 0.930 . S
C708 C709 1.399 . S
C708 C713 1.399 . S
C709 C708 1.399 . S
C709 C710 1.376 . S
C710 H697 0.930 . S
C710 C709 1.376 . S
C710 C711 1.388 . S
C711 H698 0.930 . S
C711 C710 1.388 . S
C711 C712 1.390 . S
C712 C711 1.390 . S
C712 C713 1.394 . S
C712 C718 1.465 . S
C713 C708 1.399 . S
C713 C712 1.394 . S
C713 C714 1.516 . S
C714 C713 1.516 . S
C714 C715 1.502 . S
C714 C716 1.561 . S
C714 C717 1.526 . S
C715 H699 0.959 . S
C715 H700 0.959 . S
C715 H701 0.961 . S
C715 C714 1.502 . S
C716 H702 0.960 . S
C716 H703 0.961 . S
C716 H704 0.959 . S
C716 C714 1.561 . S
C717 C714 1.526 . S
C717 C718 1.396 . S
C717 C722 1.390 . S
C718 C712 1.465 . S
C718 C717 1.396 . S
C718 C719 1.399 . S
C719 H705 0.929 . S
C719 C718 1.399 . S
C719 C720 1.385 . S
C720 H706 0.931 . S
C720 C719 1.385 . S
C720 C721 1.389 . S
C721 C720 1.389 . S
C721 C722 1.387 . S
C722 H707 0.930 . S
C722 C717 1.390 . S
C722 C721 1.387 . S
H723 C735 0.930 . S
H724 C737 0.930 . S
H725 C738 0.930 . S
H726 C742 0.959 . S
H727 C742 0.959 . S
H728 C742 0.961 . S
H729 C743 0.960 . S
H730 C743 0.961 . S
H731 C743 0.959 . S
H732 C746 0.929 . S
H733 C747 0.931 . S
H734 C749 0.930 . S
C735 H723 0.930 . S
C735 C736 1.399 . S
C735 C740 1.399 . S
C736 C735 1.399 . S
C736 C737 1.376 . S
C737 H724 0.930 . S
C737 C736 1.376 . S
C737 C738 1.388 . S
C738 H725 0.930 . S
C738 C737 1.388 . S
C738 C739 1.390 . S
C739 C738 1.390 . S
C739 C740 1.394 . S
C739 C745 1.465 . S
C740 C735 1.399 . S
C740 C739 1.394 . S
C740 C741 1.516 . S
C741 C740 1.516 . S
C741 C742 1.502 . S
C741 C743 1.561 . S
C741 C744 1.526 . S
C742 H726 0.959 . S
C742 H727 0.959 . S
C742 H728 0.961 . S
C742 C741 1.502 . S
C743 H729 0.960 . S
C743 H730 0.961 . S
C743 H731 0.959 . S
C743 C741 1.561 . S
C744 C741 1.526 . S
C744 C745 1.396 . S
C744 C749 1.390 . S
C745 C739 1.465 . S
C745 C744 1.396 . S
C745 C746 1.399 . S
C746 H732 0.929 . S
C746 C745 1.399 . S
C746 C747 1.385 . S
C747 H733 0.931 . S
C747 C746 1.385 . S
C747 C748 1.389 . S
C748 C747 1.389 . S
C748 C749 1.387 . S
C749 H734 0.930 . S
C749 C744 1.390 . S
C749 C748 1.387 . S
H750 C762 0.930 . S
H751 C764 0.930 . S
H752 C765 0.930 . S
H753 C769 0.959 . S
H754 C769 0.959 . S
H755 C769 0.961 . S
H756 C770 0.960 . S
H757 C770 0.961 . S
H758 C770 0.959 . S
H759 C773 0.929 . S
H760 C774 0.931 . S
H761 C776 0.930 . S
C762 H750 0.930 . S
C762 C763 1.399 . S
C762 C767 1.399 . S
C763 C762 1.399 . S
C763 C764 1.376 . S
C764 H751 0.930 . S
C764 C763 1.376 . S
C764 C765 1.388 . S
C765 H752 0.930 . S
C765 C764 1.388 . S
C765 C766 1.390 . S
C766 C765 1.390 . S
C766 C767 1.394 . S
C766 C772 1.465 . S
C767 C762 1.399 . S
C767 C766 1.394 . S
C767 C768 1.516 . S
C768 C767 1.516 . S
C768 C769 1.502 . S
C768 C770 1.561 . S
C768 C771 1.526 . S
C769 H753 0.959 . S
C769 H754 0.959 . S
C769 H755 0.961 . S
C769 C768 1.502 . S
C770 H756 0.960 . S
C770 H757 0.961 . S
C770 H758 0.959 . S
C770 C768 1.561 . S
C771 C768 1.526 . S
C771 C772 1.396 . S
C771 C776 1.390 . S
C772 C766 1.465 . S
C772 C771 1.396 . S
C772 C773 1.399 . S
C773 H759 0.929 . S
C773 C772 1.399 . S
C773 C774 1.385 . S
C774 H760 0.931 . S
C774 C773 1.385 . S
C774 C775 1.389 . S
C775 C774 1.389 . S
C775 C776 1.387 . S
C776 H761 0.930 . S
C776 C771 1.390 . S
C776 C775 1.387 . S
H777 C789 0.930 . S
H778 C791 0.930 . S
H779 C792 0.930 . S
H780 C796 0.959 . S
H781 C796 0.959 . S
H782 C796 0.961 . S
H783 C797 0.960 . S
H784 C797 0.961 . S
H785 C797 0.959 . S
H786 C800 0.929 . S
H787 C801 0.931 . S
H788 C803 0.930 . S
C789 H777 0.930 . S
C789 C790 1.399 . S
C789 C794 1.399 . S
C790 C789 1.399 . S
C790 C791 1.376 . S
C791 H778 0.930 . S
C791 C790 1.376 . S
C791 C792 1.388 . S
C792 H779 0.930 . S
C792 C791 1.388 . S
C792 C793 1.390 . S
C793 C792 1.390 . S
C793 C794 1.394 . S
C793 C799 1.465 . S
C794 C789 1.399 . S
C794 C793 1.394 . S
C794 C795 1.516 . S
C795 C794 1.516 . S
C795 C796 1.502 . S
C795 C797 1.561 . S
C795 C798 1.526 . S
C796 H780 0.959 . S
C796 H781 0.959 . S
C796 H782 0.961 . S
C796 C795 1.502 . S
C797 H783 0.960 . S
C797 H784 0.961 . S
C797 H785 0.959 . S
C797 C795 1.561 . S
C798 C795 1.526 . S
C798 C799 1.396 . S
C798 C803 1.390 . S
C799 C793 1.465 . S
C799 C798 1.396 . S
C799 C800 1.399 . S
C800 H786 0.929 . S
C800 C799 1.399 . S
C800 C801 1.385 . S
C801 H787 0.931 . S
C801 C800 1.385 . S
C801 C802 1.389 . S
C802 C801 1.389 . S
C802 C803 1.387 . S
C803 H788 0.930 . S
C803 C798 1.390 . S
C803 C802 1.387 . S
H804 C816 0.930 . S
H805 C818 0.930 . S
H806 C819 0.930 . S
H807 C823 0.959 . S
H808 C823 0.959 . S
H809 C823 0.961 . S
H810 C824 0.960 . S
H811 C824 0.961 . S
H812 C824 0.959 . S
H813 C827 0.929 . S
H814 C828 0.931 . S
H815 C830 0.930 . S
C816 H804 0.930 . S
C816 C817 1.399 . S
C816 C821 1.399 . S
C817 C816 1.399 . S
C817 C818 1.376 . S
C818 H805 0.930 . S
C818 C817 1.376 . S
C818 C819 1.388 . S
C819 H806 0.930 . S
C819 C818 1.388 . S
C819 C820 1.390 . S
C820 C819 1.390 . S
C820 C821 1.394 . S
C820 C826 1.465 . S
C821 C816 1.399 . S
C821 C820 1.394 . S
C821 C822 1.516 . S
C822 C821 1.516 . S
C822 C823 1.502 . S
C822 C824 1.561 . S
C822 C825 1.526 . S
C823 H807 0.959 . S
C823 H808 0.959 . S
C823 H809 0.961 . S
C823 C822 1.502 . S
C824 H810 0.960 . S
C824 H811 0.961 . S
C824 H812 0.959 . S
C824 C822 1.561 . S
C825 C822 1.526 . S
C825 C826 1.396 . S
C825 C830 1.390 . S
C826 C820 1.465 . S
C826 C825 1.396 . S
C826 C827 1.399 . S
C827 H813 0.929 . S
C827 C826 1.399 . S
C827 C828 1.385 . S
C828 H814 0.931 . S
C828 C827 1.385 . S
C828 C829 1.389 . S
C829 C828 1.389 . S
C829 C830 1.387 . S
C830 H815 0.930 . S
C830 C825 1.390 . S
C830 C829 1.387 . S
H831 C843 0.930 . S
H832 C845 0.930 . S
H833 C846 0.930 . S
H834 C850 0.959 . S
H835 C850 0.959 . S
H836 C850 0.961 . S
H837 C851 0.960 . S
H838 C851 0.961 . S
H839 C851 0.959 . S
H840 C854 0.929 . S
H841 C855 0.931 . S
H842 C857 0.930 . S
C843 H831 0.930 . S
C843 C844 1.399 . S
C843 C848 1.399 . S
C844 C843 1.399 . S
C844 C845 1.376 . S
C845 H832 0.930 . S
C845 C844 1.376 . S
C845 C846 1.388 . S
C846 H833 0.930 . S
C846 C845 1.388 . S
C846 C847 1.390 . S
C847 C846 1.390 . S
C847 C848 1.394 . S
C847 C853 1.465 . S
C848 C843 1.399 . S
C848 C847 1.394 . S
C848 C849 1.516 . S
C849 C848 1.516 . S
C849 C850 1.502 . S
C849 C851 1.561 . S
C849 C852 1.526 . S
C850 H834 0.959 . S
C850 H835 0.959 . S
C850 H836 0.961 . S
C850 C849 1.502 . S
C851 H837 0.960 . S
C851 H838 0.961 . S
C851 H839 0.959 . S
C851 C849 1.561 . S
C852 C849 1.526 . S
C852 C853 1.396 . S
C852 C857 1.390 . S
C853 C847 1.465 . S
C853 C852 1.396 . S
C853 C854 1.399 . S
C854 H840 0.929 . S
C854 C853 1.399 . S
C854 C855 1.385 . S
C855 H841 0.931 . S
C855 C854 1.385 . S
C855 C856 1.389 . S
C856 C855 1.389 . S
C856 C857 1.387 . S
C857 H842 0.930 . S
C857 C852 1.390 . S
C857 C856 1.387 . S
H858 C870 0.930 . S
H859 C872 0.930 . S
H860 C873 0.930 . S
H861 C877 0.959 . S
H862 C877 0.959 . S
H863 C877 0.961 . S
H864 C878 0.960 . S
H865 C878 0.961 . S
H866 C878 0.959 . S
H867 C881 0.929 . S
H868 C882 0.931 . S
H869 C884 0.930 . S
C870 H858 0.930 . S
C870 C871 1.399 . S
C870 C875 1.399 . S
C871 C870 1.399 . S
C871 C872 1.376 . S
C872 H859 0.930 . S
C872 C871 1.376 . S
C872 C873 1.388 . S
C873 H860 0.930 . S
C873 C872 1.388 . S
C873 C874 1.390 . S
C874 C873 1.390 . S
C874 C875 1.394 . S
C874 C880 1.465 . S
C875 C870 1.399 . S
C875 C874 1.394 . S
C875 C876 1.516 . S
C876 C875 1.516 . S
C876 C877 1.502 . S
C876 C878 1.561 . S
C876 C879 1.526 . S
C877 H861 0.959 . S
C877 H862 0.959 . S
C877 H863 0.961 . S
C877 C876 1.502 . S
C878 H864 0.960 . S
C878 H865 0.961 . S
C878 H866 0.959 . S
C878 C876 1.561 . S
C879 C876 1.526 . S
C879 C880 1.396 . S
C879 C884 1.390 . S
C880 C874 1.465 . S
C880 C879 1.396 . S
C880 C881 1.399 . S
C881 H867 0.929 . S
C881 C880 1.399 . S
C881 C882 1.385 . S
C882 H868 0.931 . S
C882 C881 1.385 . S
C882 C883 1.389 . S
C883 C882 1.389 . S
C883 C884 1.387 . S
C884 H869 0.930 . S
C884 C879 1.390 . S
C884 C883 1.387 . S
H885 C897 0.930 . S
H886 C899 0.930 . S
H887 C900 0.930 . S
H888 C904 0.959 . S
H889 C904 0.959 . S
H890 C904 0.961 . S
H891 C905 0.960 . S
H892 C905 0.961 . S
H893 C905 0.959 . S
H894 C908 0.929 . S
H895 C909 0.931 . S
H896 C911 0.930 . S
C897 H885 0.930 . S
C897 C898 1.399 . S
C897 C902 1.399 . S
C898 C897 1.399 . S
C898 C899 1.376 . S
C899 H886 0.930 . S
C899 C898 1.376 . S
C899 C900 1.388 . S
C900 H887 0.930 . S
C900 C899 1.388 . S
C900 C901 1.390 . S
C901 C900 1.390 . S
C901 C902 1.394 . S
C901 C907 1.465 . S
C902 C897 1.399 . S
C902 C901 1.394 . S
C902 C903 1.516 . S
C903 C902 1.516 . S
C903 C904 1.502 . S
C903 C905 1.561 . S
C903 C906 1.526 . S
C904 H888 0.959 . S
C904 H889 0.959 . S
C904 H890 0.961 . S
C904 C903 1.502 . S
C905 H891 0.960 . S
C905 H892 0.961 . S
C905 H893 0.959 . S
C905 C903 1.561 . S
C906 C903 1.526 . S
C906 C907 1.396 . S
C906 C911 1.390 . S
C907 C901 1.465 . S
C907 C906 1.396 . S
C907 C908 1.399 . S
C908 H894 0.929 . S
C908 C907 1.399 . S
C908 C909 1.385 . S
C909 H895 0.931 . S
C909 C908 1.385 . S
C909 C910 1.389 . S
C910 C909 1.389 . S
C910 C911 1.387 . S
C911 H896 0.930 . S
C911 C906 1.390 . S
C911 C910 1.387 . S
H912 C924 0.930 . S
H913 C926 0.930 . S
H914 C927 0.930 . S
H915 C931 0.959 . S
H916 C931 0.959 . S
H917 C931 0.961 . S
H918 C932 0.960 . S
H919 C932 0.961 . S
H920 C932 0.959 . S
H921 C935 0.929 . S
H922 C936 0.931 . S
H923 C938 0.930 . S
C924 H912 0.930 . S
C924 C925 1.399 . S
C924 C929 1.399 . S
C925 C924 1.399 . S
C925 C926 1.376 . S
C926 H913 0.930 . S
C926 C925 1.376 . S
C926 C927 1.388 . S
C927 H914 0.930 . S
C927 C926 1.388 . S
C927 C928 1.390 . S
C928 C927 1.390 . S
C928 C929 1.394 . S
C928 C934 1.465 . S
C929 C924 1.399 . S
C929 C928 1.394 . S
C929 C930 1.516 . S
C930 C929 1.516 . S
C930 C931 1.502 . S
C930 C932 1.561 . S
C930 C933 1.526 . S
C931 H915 0.959 . S
C931 H916 0.959 . S
C931 H917 0.961 . S
C931 C930 1.502 . S
C932 H918 0.960 . S
C932 H919 0.961 . S
C932 H920 0.959 . S
C932 C930 1.561 . S
C933 C930 1.526 . S
C933 C934 1.396 . S
C933 C938 1.390 . S
C934 C928 1.465 . S
C934 C933 1.396 . S
C934 C935 1.399 . S
C935 H921 0.929 . S
C935 C934 1.399 . S
C935 C936 1.385 . S
C936 H922 0.931 . S
C936 C935 1.385 . S
C936 C937 1.389 . S
C937 C936 1.389 . S
C937 C938 1.387 . S
C938 H923 0.930 . S
C938 C933 1.390 . S
C938 C937 1.387 . S
H939 C951 0.930 . S
H940 C953 0.930 . S
H941 C954 0.930 . S
H942 C958 0.959 . S
H943 C958 0.959 . S
H944 C958 0.961 . S
H945 C959 0.960 . S
H946 C959 0.961 . S
H947 C959 0.959 . S
H948 C962 0.929 . S
H949 C963 0.931 1_556 S
H950 C965 0.930 . S
C951 H939 0.930 . S
C951 C952 1.399 . S
C951 C956 1.399 . S
C952 C951 1.399 . S
C952 C953 1.376 . S
C953 H940 0.930 . S
C953 C952 1.376 . S
C953 C954 1.388 . S
C954 H941 0.930 . S
C954 C953 1.388 . S
C954 C955 1.390 . S
C955 C954 1.390 . S
C955 C956 1.394 . S
C955 C961 1.465 . S
C956 C951 1.399 . S
C956 C955 1.394 . S
C956 C957 1.516 . S
C957 C956 1.516 . S
C957 C958 1.502 . S
C957 C959 1.561 . S
C957 C960 1.526 . S
C958 H942 0.959 . S
C958 H943 0.959 . S
C958 H944 0.961 . S
C958 C957 1.502 . S
C959 H945 0.960 . S
C959 H946 0.961 . S
C959 H947 0.959 . S
C959 C957 1.561 . S
C960 C957 1.526 . S
C960 C961 1.396 . S
C960 C965 1.390 . S
C961 C955 1.465 . S
C961 C960 1.396 . S
C961 C962 1.399 . S
C962 H948 0.929 . S
C962 C961 1.399 . S
C962 C963 1.385 . S
C963 H949 0.931 1_554 S
C963 C962 1.385 . S
C963 C964 1.389 . S
C964 C963 1.389 . S
C964 C965 1.387 . S
C965 H950 0.930 . S
C965 C960 1.390 . S
C965 C964 1.387 . S
H966 C978 0.930 . S
H967 C980 0.930 . S
H968 C981 0.930 . S
H969 C985 0.959 . S
H970 C985 0.959 . S
H971 C985 0.961 . S
H972 C986 0.960 . S
H973 C986 0.961 . S
H974 C986 0.959 . S
H975 C989 0.929 . S
H976 C990 0.931 . S
H977 C992 0.930 . S
C978 H966 0.930 . S
C978 C979 1.399 . S
C978 C983 1.399 . S
C979 C978 1.399 . S
C979 C980 1.376 . S
C980 H967 0.930 . S
C980 C979 1.376 . S
C980 C981 1.388 . S
C981 H968 0.930 . S
C981 C980 1.388 . S
C981 C982 1.390 . S
C982 C981 1.390 . S
C982 C983 1.394 . S
C982 C988 1.465 . S
C983 C978 1.399 . S
C983 C982 1.394 . S
C983 C984 1.516 . S
C984 C983 1.516 . S
C984 C985 1.502 . S
C984 C986 1.561 . S
C984 C987 1.526 . S
C985 H969 0.959 . S
C985 H970 0.959 . S
C985 H971 0.961 . S
C985 C984 1.502 . S
C986 H972 0.960 . S
C986 H973 0.961 . S
C986 H974 0.959 . S
C986 C984 1.561 . S
C987 C984 1.526 . S
C987 C988 1.396 . S
C987 C992 1.390 . S
C988 C982 1.465 . S
C988 C987 1.396 . S
C988 C989 1.399 . S
C989 H975 0.929 . S
C989 C988 1.399 . S
C989 C990 1.385 . S
C990 H976 0.931 . S
C990 C989 1.385 . S
C990 C991 1.389 . S
C991 C990 1.389 . S
C991 C992 1.387 . S
C992 H977 0.930 . S
C992 C987 1.390 . S
C992 C991 1.387 . S
H993 C1005 0.930 . S
H994 C1007 0.930 . S
H995 C1008 0.930 . S
H996 C1012 0.959 . S
H997 C1012 0.959 . S
H998 C1012 0.961 . S
H999 C1013 0.960 . S
H1000 C1013 0.961 . S
H1001 C1013 0.959 . S
H1002 C1016 0.929 . S
H1003 C1017 0.931 . S
H1004 C1019 0.930 . S
C1005 H993 0.930 . S
C1005 C1006 1.399 . S
C1005 C1010 1.399 . S
C1006 C1005 1.399 . S
C1006 C1007 1.376 . S
C1007 H994 0.930 . S
C1007 C1006 1.376 . S
C1007 C1008 1.388 . S
C1008 H995 0.930 . S
C1008 C1007 1.388 . S
C1008 C1009 1.390 . S
C1009 C1008 1.390 . S
C1009 C1010 1.394 . S
C1009 C1015 1.465 . S
C1010 C1005 1.399 . S
C1010 C1009 1.394 . S
C1010 C1011 1.516 . S
C1011 C1010 1.516 . S
C1011 C1012 1.502 . S
C1011 C1013 1.561 . S
C1011 C1014 1.526 . S
C1012 H996 0.959 . S
C1012 H997 0.959 . S
C1012 H998 0.961 . S
C1012 C1011 1.502 . S
C1013 H999 0.960 . S
C1013 H1000 0.961 . S
C1013 H1001 0.959 . S
C1013 C1011 1.561 . S
C1014 C1011 1.526 . S
C1014 C1015 1.396 . S
C1014 C1019 1.390 . S
C1015 C1009 1.465 . S
C1015 C1014 1.396 . S
C1015 C1016 1.399 . S
C1016 H1002 0.929 . S
C1016 C1015 1.399 . S
C1016 C1017 1.385 . S
C1017 H1003 0.931 . S
C1017 C1016 1.385 . S
C1017 C1018 1.389 . S
C1018 C1017 1.389 . S
C1018 C1019 1.387 . S
C1019 H1004 0.930 . S
C1019 C1014 1.390 . S
C1019 C1018 1.387 . S
H1020 C1032 0.930 . S
H1021 C1034 0.930 . S
H1022 C1035 0.930 . S
H1023 C1039 0.959 . S
H1024 C1039 0.959 . S
H1025 C1039 0.961 . S
H1026 C1040 0.960 . S
H1027 C1040 0.961 . S
H1028 C1040 0.959 . S
H1029 C1043 0.929 . S
H1030 C1044 0.931 . S
H1031 C1046 0.930 . S
C1032 H1020 0.930 . S
C1032 C1033 1.399 . S
C1032 C1037 1.399 . S
C1033 C1032 1.399 . S
C1033 C1034 1.376 . S
C1034 H1021 0.930 . S
C1034 C1033 1.376 . S
C1034 C1035 1.388 . S
C1035 H1022 0.930 . S
C1035 C1034 1.388 . S
C1035 C1036 1.390 . S
C1036 C1035 1.390 . S
C1036 C1037 1.394 . S
C1036 C1042 1.465 . S
C1037 C1032 1.399 . S
C1037 C1036 1.394 . S
C1037 C1038 1.516 . S
C1038 C1037 1.516 . S
C1038 C1039 1.502 . S
C1038 C1040 1.561 . S
C1038 C1041 1.526 . S
C1039 H1023 0.959 . S
C1039 H1024 0.959 . S
C1039 H1025 0.961 . S
C1039 C1038 1.502 . S
C1040 H1026 0.960 . S
C1040 H1027 0.961 . S
C1040 H1028 0.959 . S
C1040 C1038 1.561 . S
C1041 C1038 1.526 . S
C1041 C1042 1.396 . S
C1041 C1046 1.390 . S
C1042 C1036 1.465 . S
C1042 C1041 1.396 . S
C1042 C1043 1.399 . S
C1043 H1029 0.929 . S
C1043 C1042 1.399 . S
C1043 C1044 1.385 . S
C1044 H1030 0.931 . S
C1044 C1043 1.385 . S
C1044 C1045 1.389 . S
C1045 C1044 1.389 . S
C1045 C1046 1.387 . S
C1046 H1031 0.930 . S
C1046 C1041 1.390 . S
C1046 C1045 1.387 . S
H1047 C1059 0.930 . S
H1048 C1061 0.930 . S
H1049 C1062 0.930 . S
H1050 C1066 0.959 . S
H1051 C1066 0.959 . S
H1052 C1066 0.961 . S
H1053 C1067 0.960 . S
H1054 C1067 0.961 . S
H1055 C1067 0.959 . S
H1056 C1070 0.929 . S
H1057 C1071 0.931 . S
H1058 C1073 0.930 . S
C1059 H1047 0.930 . S
C1059 C1060 1.399 . S
C1059 C1064 1.399 . S
C1060 C1059 1.399 . S
C1060 C1061 1.376 . S
C1061 H1048 0.930 . S
C1061 C1060 1.376 . S
C1061 C1062 1.388 . S
C1062 H1049 0.930 . S
C1062 C1061 1.388 . S
C1062 C1063 1.390 . S
C1063 C1062 1.390 . S
C1063 C1064 1.394 . S
C1063 C1069 1.465 . S
C1064 C1059 1.399 . S
C1064 C1063 1.394 . S
C1064 C1065 1.516 . S
C1065 C1064 1.516 . S
C1065 C1066 1.502 . S
C1065 C1067 1.561 . S
C1065 C1068 1.526 . S
C1066 H1050 0.959 . S
C1066 H1051 0.959 . S
C1066 H1052 0.961 . S
C1066 C1065 1.502 . S
C1067 H1053 0.960 . S
C1067 H1054 0.961 . S
C1067 H1055 0.959 . S
C1067 C1065 1.561 . S
C1068 C1065 1.526 . S
C1068 C1069 1.396 . S
C1068 C1073 1.390 . S
C1069 C1063 1.465 . S
C1069 C1068 1.396 . S
C1069 C1070 1.399 . S
C1070 H1056 0.929 . S
C1070 C1069 1.399 . S
C1070 C1071 1.385 . S
C1071 H1057 0.931 . S
C1071 C1070 1.385 . S
C1071 C1072 1.389 . S
C1072 C1071 1.389 . S
C1072 C1073 1.387 . S
C1073 H1058 0.930 . S
C1073 C1068 1.390 . S
C1073 C1072 1.387 . S
H1074 C1086 0.930 . S
H1075 C1088 0.930 . S
H1076 C1089 0.930 . S
H1077 C1093 0.959 . S
H1078 C1093 0.959 . S
H1079 C1093 0.961 . S
H1080 C1094 0.960 . S
H1081 C1094 0.961 . S
H1082 C1094 0.959 . S
H1083 C1097 0.929 . S
H1084 C1098 0.931 . S
H1085 C1100 0.930 . S
C1086 H1074 0.930 . S
C1086 C1087 1.399 . S
C1086 C1091 1.399 . S
C1087 C1086 1.399 . S
C1087 C1088 1.376 . S
C1088 H1075 0.930 . S
C1088 C1087 1.376 . S
C1088 C1089 1.388 . S
C1089 H1076 0.930 . S
C1089 C1088 1.388 . S
C1089 C1090 1.390 . S
C1090 C1089 1.390 . S
C1090 C1091 1.394 . S
C1090 C1096 1.465 . S
C1091 C1086 1.399 . S
C1091 C1090 1.394 . S
C1091 C1092 1.516 . S
C1092 C1091 1.516 . S
C1092 C1093 1.502 . S
C1092 C1094 1.561 . S
C1092 C1095 1.526 . S
C1093 H1077 0.959 . S
C1093 H1078 0.959 . S
C1093 H1079 0.961 . S
C1093 C1092 1.502 . S
C1094 H1080 0.960 . S
C1094 H1081 0.961 . S
C1094 H1082 0.959 . S
C1094 C1092 1.561 . S
C1095 C1092 1.526 . S
C1095 C1096 1.396 . S
C1095 C1100 1.390 . S
C1096 C1090 1.465 . S
C1096 C1095 1.396 . S
C1096 C1097 1.399 . S
C1097 H1083 0.929 . S
C1097 C1096 1.399 . S
C1097 C1098 1.385 . S
C1098 H1084 0.931 . S
C1098 C1097 1.385 . S
C1098 C1099 1.389 . S
C1099 C1098 1.389 . S
C1099 C1100 1.387 . S
C1100 H1085 0.930 . S
C1100 C1095 1.390 . S
C1100 C1099 1.387 . S
H1101 C1113 0.930 . S
H1102 C1115 0.930 . S
H1103 C1116 0.930 . S
H1104 C1120 0.959 . S
H1105 C1120 0.959 . S
H1106 C1120 0.961 . S
H1107 C1121 0.960 . S
H1108 C1121 0.961 . S
H1109 C1121 0.959 . S
H1110 C1124 0.929 . S
H1111 C1125 0.931 . S
H1112 C1127 0.930 . S
C1113 H1101 0.930 . S
C1113 C1114 1.399 . S
C1113 C1118 1.399 . S
C1114 C1113 1.399 . S
C1114 C1115 1.376 . S
C1115 H1102 0.930 . S
C1115 C1114 1.376 . S
C1115 C1116 1.388 . S
C1116 H1103 0.930 . S
C1116 C1115 1.388 . S
C1116 C1117 1.390 . S
C1117 C1116 1.390 . S
C1117 C1118 1.394 . S
C1117 C1123 1.465 . S
C1118 C1113 1.399 . S
C1118 C1117 1.394 . S
C1118 C1119 1.516 . S
C1119 C1118 1.516 . S
C1119 C1120 1.502 . S
C1119 C1121 1.561 . S
C1119 C1122 1.526 . S
C1120 H1104 0.959 . S
C1120 H1105 0.959 . S
C1120 H1106 0.961 . S
C1120 C1119 1.502 . S
C1121 H1107 0.960 . S
C1121 H1108 0.961 . S
C1121 H1109 0.959 . S
C1121 C1119 1.561 . S
C1122 C1119 1.526 . S
C1122 C1123 1.396 . S
C1122 C1127 1.390 . S
C1123 C1117 1.465 . S
C1123 C1122 1.396 . S
C1123 C1124 1.399 . S
C1124 H1110 0.929 . S
C1124 C1123 1.399 . S
C1124 C1125 1.385 . S
C1125 H1111 0.931 . S
C1125 C1124 1.385 . S
C1125 C1126 1.389 . S
C1126 C1125 1.389 . S
C1126 C1127 1.387 . S
C1127 H1112 0.930 . S
C1127 C1122 1.390 . S
C1127 C1126 1.387 . S
H1128 C1140 0.930 . S
H1129 C1142 0.930 . S
H1130 C1143 0.930 . S
H1131 C1147 0.959 . S
H1132 C1147 0.959 . S
H1133 C1147 0.961 . S
H1134 C1148 0.960 . S
H1135 C1148 0.961 . S
H1136 C1148 0.959 . S
H1137 C1151 0.929 . S
H1138 C1152 0.931 . S
H1139 C1154 0.930 . S
C1140 H1128 0.930 . S
C1140 C1141 1.399 . S
C1140 C1145 1.399 . S
C1141 C1140 1.399 . S
C1141 C1142 1.376 . S
C1142 H1129 0.930 . S
C1142 C1141 1.376 . S
C1142 C1143 1.388 . S
C1143 H1130 0.930 . S
C1143 C1142 1.388 . S
C1143 C1144 1.390 . S
C1144 C1143 1.390 . S
C1144 C1145 1.394 . S
C1144 C1150 1.465 . S
C1145 C1140 1.399 . S
C1145 C1144 1.394 . S
C1145 C1146 1.516 . S
C1146 C1145 1.516 . S
C1146 C1147 1.502 . S
C1146 C1148 1.561 . S
C1146 C1149 1.526 . S
C1147 H1131 0.959 . S
C1147 H1132 0.959 . S
C1147 H1133 0.961 . S
C1147 C1146 1.502 . S
C1148 H1134 0.960 . S
C1148 H1135 0.961 . S
C1148 H1136 0.959 . S
C1148 C1146 1.561 . S
C1149 C1146 1.526 . S
C1149 C1150 1.396 . S
C1149 C1154 1.390 . S
C1150 C1144 1.465 . S
C1150 C1149 1.396 . S
C1150 C1151 1.399 . S
C1151 H1137 0.929 . S
C1151 C1150 1.399 . S
C1151 C1152 1.385 . S
C1152 H1138 0.931 . S
C1152 C1151 1.385 . S
C1152 C1153 1.389 . S
C1153 C1152 1.389 . S
C1153 C1154 1.387 . S
C1154 H1139 0.930 . S
C1154 C1149 1.390 . S
C1154 C1153 1.387 . S
H1155 C1167 0.930 . S
H1156 C1169 0.930 . S
H1157 C1170 0.930 . S
H1158 C1174 0.959 . S
H1159 C1174 0.959 . S
H1160 C1174 0.961 . S
H1161 C1175 0.960 . S
H1162 C1175 0.961 . S
H1163 C1175 0.959 . S
H1164 C1178 0.929 . S
H1165 C1179 0.931 . S
H1166 C1181 0.930 . S
C1167 H1155 0.930 . S
C1167 C1168 1.399 . S
C1167 C1172 1.399 . S
C1168 C1167 1.399 . S
C1168 C1169 1.376 . S
C1169 H1156 0.930 . S
C1169 C1168 1.376 . S
C1169 C1170 1.388 . S
C1170 H1157 0.930 . S
C1170 C1169 1.388 . S
C1170 C1171 1.390 . S
C1171 C1170 1.390 . S
C1171 C1172 1.394 . S
C1171 C1177 1.465 . S
C1172 C1167 1.399 . S
C1172 C1171 1.394 . S
C1172 C1173 1.516 . S
C1173 C1172 1.516 . S
C1173 C1174 1.502 . S
C1173 C1175 1.561 . S
C1173 C1176 1.526 . S
C1174 H1158 0.959 . S
C1174 H1159 0.959 . S
C1174 H1160 0.961 . S
C1174 C1173 1.502 . S
C1175 H1161 0.960 . S
C1175 H1162 0.961 . S
C1175 H1163 0.959 . S
C1175 C1173 1.561 . S
C1176 C1173 1.526 . S
C1176 C1177 1.396 . S
C1176 C1181 1.390 . S
C1177 C1171 1.465 . S
C1177 C1176 1.396 . S
C1177 C1178 1.399 . S
C1178 H1164 0.929 . S
C1178 C1177 1.399 . S
C1178 C1179 1.385 . S
C1179 H1165 0.931 . S
C1179 C1178 1.385 . S
C1179 C1180 1.389 . S
C1180 C1179 1.389 . S
C1180 C1181 1.387 . S
C1181 H1166 0.930 . S
C1181 C1176 1.390 . S
C1181 C1180 1.387 . S
H1182 C1194 0.930 . S
H1183 C1196 0.930 . S
H1184 C1197 0.930 . S
H1185 C1201 0.959 . S
H1186 C1201 0.959 . S
H1187 C1201 0.961 . S
H1188 C1202 0.960 . S
H1189 C1202 0.961 . S
H1190 C1202 0.959 . S
H1191 C1205 0.929 . S
H1192 C1206 0.931 . S
H1193 C1208 0.930 . S
C1194 H1182 0.930 . S
C1194 C1195 1.399 . S
C1194 C1199 1.399 . S
C1195 C1194 1.399 . S
C1195 C1196 1.376 . S
C1196 H1183 0.930 . S
C1196 C1195 1.376 . S
C1196 C1197 1.388 . S
C1197 H1184 0.930 . S
C1197 C1196 1.388 . S
C1197 C1198 1.390 . S
C1198 C1197 1.390 . S
C1198 C1199 1.394 . S
C1198 C1204 1.465 . S
C1199 C1194 1.399 . S
C1199 C1198 1.394 . S
C1199 C1200 1.516 . S
C1200 C1199 1.516 . S
C1200 C1201 1.502 . S
C1200 C1202 1.561 . S
C1200 C1203 1.526 . S
C1201 H1185 0.959 . S
C1201 H1186 0.959 . S
C1201 H1187 0.961 . S
C1201 C1200 1.502 . S
C1202 H1188 0.960 . S
C1202 H1189 0.961 . S
C1202 H1190 0.959 . S
C1202 C1200 1.561 . S
C1203 C1200 1.526 . S
C1203 C1204 1.396 . S
C1203 C1208 1.390 . S
C1204 C1198 1.465 . S
C1204 C1203 1.396 . S
C1204 C1205 1.399 . S
C1205 H1191 0.929 . S
C1205 C1204 1.399 . S
C1205 C1206 1.385 . S
C1206 H1192 0.931 . S
C1206 C1205 1.385 . S
C1206 C1207 1.389 . S
C1207 C1206 1.389 . S
C1207 C1208 1.387 . S
C1208 H1193 0.930 . S
C1208 C1203 1.390 . S
C1208 C1207 1.387 . S
H1209 C1221 0.930 . S
H1210 C1223 0.930 . S
H1211 C1224 0.930 . S
H1212 C1228 0.959 . S
H1213 C1228 0.959 . S
H1214 C1228 0.961 . S
H1215 C1229 0.960 . S
H1216 C1229 0.961 . S
H1217 C1229 0.959 . S
H1218 C1232 0.929 . S
H1219 C1233 0.931 . S
H1220 C1235 0.930 . S
C1221 H1209 0.930 . S
C1221 C1222 1.399 . S
C1221 C1226 1.399 . S
C1222 C1221 1.399 . S
C1222 C1223 1.376 . S
C1223 H1210 0.930 . S
C1223 C1222 1.376 . S
C1223 C1224 1.388 . S
C1224 H1211 0.930 . S
C1224 C1223 1.388 . S
C1224 C1225 1.390 . S
C1225 C1224 1.390 . S
C1225 C1226 1.394 . S
C1225 C1231 1.465 . S
C1226 C1221 1.399 . S
C1226 C1225 1.394 . S
C1226 C1227 1.516 . S
C1227 C1226 1.516 . S
C1227 C1228 1.502 . S
C1227 C1229 1.561 . S
C1227 C1230 1.526 . S
C1228 H1212 0.959 . S
C1228 H1213 0.959 . S
C1228 H1214 0.961 . S
C1228 C1227 1.502 . S
C1229 H1215 0.960 . S
C1229 H1216 0.961 . S
C1229 H1217 0.959 . S
C1229 C1227 1.561 . S
C1230 C1227 1.526 . S
C1230 C1231 1.396 . S
C1230 C1235 1.390 . S
C1231 C1225 1.465 . S
C1231 C1230 1.396 . S
C1231 C1232 1.399 . S
C1232 H1218 0.929 . S
C1232 C1231 1.399 . S
C1232 C1233 1.385 . S
C1233 H1219 0.931 . S
C1233 C1232 1.385 . S
C1233 C1234 1.389 . S
C1234 C1233 1.389 . S
C1234 C1235 1.387 . S
C1235 H1220 0.930 . S
C1235 C1230 1.390 . S
C1235 C1234 1.387 . S
H1236 C1248 0.930 . S
H1237 C1250 0.930 . S
H1238 C1251 0.930 . S
H1239 C1255 0.959 . S
H1240 C1255 0.959 . S
H1241 C1255 0.961 . S
H1242 C1256 0.960 . S
H1243 C1256 0.961 . S
H1244 C1256 0.959 . S
H1245 C1259 0.929 . S
H1246 C1260 0.931 . S
H1247 C1262 0.930 . S
C1248 H1236 0.930 . S
C1248 C1249 1.399 . S
C1248 C1253 1.399 . S
C1249 C1248 1.399 . S
C1249 C1250 1.376 . S
C1250 H1237 0.930 . S
C1250 C1249 1.376 . S
C1250 C1251 1.388 . S
C1251 H1238 0.930 . S
C1251 C1250 1.388 . S
C1251 C1252 1.390 . S
C1252 C1251 1.390 . S
C1252 C1253 1.394 . S
C1252 C1258 1.465 . S
C1253 C1248 1.399 . S
C1253 C1252 1.394 . S
C1253 C1254 1.516 . S
C1254 C1253 1.516 . S
C1254 C1255 1.502 . S
C1254 C1256 1.561 . S
C1254 C1257 1.526 . S
C1255 H1239 0.959 . S
C1255 H1240 0.959 . S
C1255 H1241 0.961 . S
C1255 C1254 1.502 . S
C1256 H1242 0.960 . S
C1256 H1243 0.961 . S
C1256 H1244 0.959 . S
C1256 C1254 1.561 . S
C1257 C1254 1.526 . S
C1257 C1258 1.396 . S
C1257 C1262 1.390 . S
C1258 C1252 1.465 . S
C1258 C1257 1.396 . S
C1258 C1259 1.399 . S
C1259 H1245 0.929 . S
C1259 C1258 1.399 . S
C1259 C1260 1.385 . S
C1260 H1246 0.931 . S
C1260 C1259 1.385 . S
C1260 C1261 1.389 . S
C1261 C1260 1.389 . S
C1261 C1262 1.387 . S
C1262 H1247 0.930 . S
C1262 C1257 1.390 . S
C1262 C1261 1.387 . S
H1263 C1275 0.930 . S
H1264 C1277 0.930 . S
H1265 C1278 0.930 . S
H1266 C1282 0.959 . S
H1267 C1282 0.959 . S
H1268 C1282 0.961 . S
H1269 C1283 0.960 . S
H1270 C1283 0.961 . S
H1271 C1283 0.959 . S
H1272 C1286 0.929 . S
H1273 C1287 0.931 . S
H1274 C1289 0.930 . S
C1275 H1263 0.930 . S
C1275 C1276 1.399 . S
C1275 C1280 1.399 . S
C1276 C1275 1.399 . S
C1276 C1277 1.376 . S
C1277 H1264 0.930 . S
C1277 C1276 1.376 . S
C1277 C1278 1.388 . S
C1278 H1265 0.930 . S
C1278 C1277 1.388 . S
C1278 C1279 1.390 . S
C1279 C1278 1.390 . S
C1279 C1280 1.394 . S
C1279 C1285 1.465 . S
C1280 C1275 1.399 . S
C1280 C1279 1.394 . S
C1280 C1281 1.516 . S
C1281 C1280 1.516 . S
C1281 C1282 1.502 . S
C1281 C1283 1.561 . S
C1281 C1284 1.526 . S
C1282 H1266 0.959 . S
C1282 H1267 0.959 . S
C1282 H1268 0.961 . S
C1282 C1281 1.502 . S
C1283 H1269 0.960 . S
C1283 H1270 0.961 . S
C1283 H1271 0.959 . S
C1283 C1281 1.561 . S
C1284 C1281 1.526 . S
C1284 C1285 1.396 . S
C1284 C1289 1.390 . S
C1285 C1279 1.465 . S
C1285 C1284 1.396 . S
C1285 C1286 1.399 . S
C1286 H1272 0.929 . S
C1286 C1285 1.399 . S
C1286 C1287 1.385 . S
C1287 H1273 0.931 . S
C1287 C1286 1.385 . S
C1287 C1288 1.389 . S
C1288 C1287 1.389 . S
C1288 C1289 1.387 . S
C1289 H1274 0.930 . S
C1289 C1284 1.390 . S
C1289 C1288 1.387 . S
H1290 C1302 0.930 . S
H1291 C1304 0.930 . S
H1292 C1305 0.930 . S
H1293 C1309 0.959 . S
H1294 C1309 0.959 . S
H1295 C1309 0.961 . S
H1296 C1310 0.960 . S
H1297 C1310 0.961 . S
H1298 C1310 0.959 . S
H1299 C1313 0.929 . S
H1300 C1314 0.931 . S
H1301 C1316 0.930 . S
C1302 H1290 0.930 . S
C1302 C1303 1.399 . S
C1302 C1307 1.399 . S
C1303 C1302 1.399 . S
C1303 C1304 1.376 . S
C1304 H1291 0.930 . S
C1304 C1303 1.376 . S
C1304 C1305 1.388 . S
C1305 H1292 0.930 . S
C1305 C1304 1.388 . S
C1305 C1306 1.390 . S
C1306 C1305 1.390 . S
C1306 C1307 1.394 . S
C1306 C1312 1.465 . S
C1307 C1302 1.399 . S
C1307 C1306 1.394 . S
C1307 C1308 1.516 . S
C1308 C1307 1.516 . S
C1308 C1309 1.502 . S
C1308 C1310 1.561 . S
C1308 C1311 1.526 . S
C1309 H1293 0.959 . S
C1309 H1294 0.959 . S
C1309 H1295 0.961 . S
C1309 C1308 1.502 . S
C1310 H1296 0.960 . S
C1310 H1297 0.961 . S
C1310 H1298 0.959 . S
C1310 C1308 1.561 . S
C1311 C1308 1.526 . S
C1311 C1312 1.396 . S
C1311 C1316 1.390 . S
C1312 C1306 1.465 . S
C1312 C1311 1.396 . S
C1312 C1313 1.399 . S
C1313 H1299 0.929 . S
C1313 C1312 1.399 . S
C1313 C1314 1.385 . S
C1314 H1300 0.931 . S
C1314 C1313 1.385 . S
C1314 C1315 1.389 . S
C1315 C1314 1.389 . S
C1315 C1316 1.387 . S
C1316 H1301 0.930 . S
C1316 C1311 1.390 . S
C1316 C1315 1.387 . S
H1317 C1329 0.930 . S
H1318 C1331 0.930 . S
H1319 C1332 0.930 . S
H1320 C1336 0.959 . S
H1321 C1336 0.959 . S
H1322 C1336 0.961 . S
H1323 C1337 0.960 . S
H1324 C1337 0.961 . S
H1325 C1337 0.959 . S
H1326 C1340 0.929 . S
H1327 C1341 0.931 . S
H1328 C1343 0.930 . S
C1329 H1317 0.930 . S
C1329 C1330 1.399 . S
C1329 C1334 1.399 . S
C1330 C1329 1.399 . S
C1330 C1331 1.376 . S
C1331 H1318 0.930 . S
C1331 C1330 1.376 . S
C1331 C1332 1.388 . S
C1332 H1319 0.930 . S
C1332 C1331 1.388 . S
C1332 C1333 1.390 . S
C1333 C1332 1.390 . S
C1333 C1334 1.394 . S
C1333 C1339 1.465 . S
C1334 C1329 1.399 . S
C1334 C1333 1.394 . S
C1334 C1335 1.516 . S
C1335 C1334 1.516 . S
C1335 C1336 1.502 . S
C1335 C1337 1.561 . S
C1335 C1338 1.526 . S
C1336 H1320 0.959 . S
C1336 H1321 0.959 . S
C1336 H1322 0.961 . S
C1336 C1335 1.502 . S
C1337 H1323 0.960 . S
C1337 H1324 0.961 . S
C1337 H1325 0.959 . S
C1337 C1335 1.561 . S
C1338 C1335 1.526 . S
C1338 C1339 1.396 . S
C1338 C1343 1.390 . S
C1339 C1333 1.465 . S
C1339 C1338 1.396 . S
C1339 C1340 1.399 . S
C1340 H1326 0.929 . S
C1340 C1339 1.399 . S
C1340 C1341 1.385 . S
C1341 H1327 0.931 . S
C1341 C1340 1.385 . S
C1341 C1342 1.389 . S
C1342 C1341 1.389 . S
C1342 C1343 1.387 . S
C1343 H1328 0.930 . S
C1343 C1338 1.390 . S
C1343 C1342 1.387 . S
H1344 C1356 0.930 . S
H1345 C1358 0.930 . S
H1346 C1359 0.930 . S
H1347 C1363 0.959 . S
H1348 C1363 0.959 . S
H1349 C1363 0.961 . S
H1350 C1364 0.960 . S
H1351 C1364 0.961 . S
H1352 C1364 0.959 . S
H1353 C1367 0.929 . S
H1354 C1368 0.931 . S
H1355 C1370 0.930 . S
C1356 H1344 0.930 . S
C1356 C1357 1.399 . S
C1356 C1361 1.399 . S
C1357 C1356 1.399 . S
C1357 C1358 1.376 . S
C1358 H1345 0.930 . S
C1358 C1357 1.376 . S
C1358 C1359 1.388 . S
C1359 H1346 0.930 . S
C1359 C1358 1.388 . S
C1359 C1360 1.390 . S
C1360 C1359 1.390 . S
C1360 C1361 1.394 . S
C1360 C1366 1.465 . S
C1361 C1356 1.399 . S
C1361 C1360 1.394 . S
C1361 C1362 1.516 . S
C1362 C1361 1.516 . S
C1362 C1363 1.502 . S
C1362 C1364 1.561 . S
C1362 C1365 1.526 . S
C1363 H1347 0.959 . S
C1363 H1348 0.959 . S
C1363 H1349 0.961 . S
C1363 C1362 1.502 . S
C1364 H1350 0.960 . S
C1364 H1351 0.961 . S
C1364 H1352 0.959 . S
C1364 C1362 1.561 . S
C1365 C1362 1.526 . S
C1365 C1366 1.396 . S
C1365 C1370 1.390 . S
C1366 C1360 1.465 . S
C1366 C1365 1.396 . S
C1366 C1367 1.399 . S
C1367 H1353 0.929 . S
C1367 C1366 1.399 . S
C1367 C1368 1.385 . S
C1368 H1354 0.931 . S
C1368 C1367 1.385 . S
C1368 C1369 1.389 . S
C1369 C1368 1.389 . S
C1369 C1370 1.387 . S
C1370 H1355 0.930 . S
C1370 C1365 1.390 . S
C1370 C1369 1.387 . S
H1371 C1383 0.930 . S
H1372 C1385 0.930 . S
H1373 C1386 0.930 . S
H1374 C1390 0.959 . S
H1375 C1390 0.959 . S
H1376 C1390 0.961 . S
H1377 C1391 0.960 . S
H1378 C1391 0.961 . S
H1379 C1391 0.959 . S
H1380 C1394 0.929 . S
H1381 C1395 0.931 . S
H1382 C1397 0.930 . S
C1383 H1371 0.930 . S
C1383 C1384 1.399 . S
C1383 C1388 1.399 . S
C1384 C1383 1.399 . S
C1384 C1385 1.376 . S
C1385 H1372 0.930 . S
C1385 C1384 1.376 . S
C1385 C1386 1.388 . S
C1386 H1373 0.930 . S
C1386 C1385 1.388 . S
C1386 C1387 1.390 . S
C1387 C1386 1.390 . S
C1387 C1388 1.394 . S
C1387 C1393 1.465 . S
C1388 C1383 1.399 . S
C1388 C1387 1.394 . S
C1388 C1389 1.516 . S
C1389 C1388 1.516 . S
C1389 C1390 1.502 . S
C1389 C1391 1.561 . S
C1389 C1392 1.526 . S
C1390 H1374 0.959 . S
C1390 H1375 0.959 . S
C1390 H1376 0.961 . S
C1390 C1389 1.502 . S
C1391 H1377 0.960 . S
C1391 H1378 0.961 . S
C1391 H1379 0.959 . S
C1391 C1389 1.561 . S
C1392 C1389 1.526 . S
C1392 C1393 1.396 . S
C1392 C1397 1.390 . S
C1393 C1387 1.465 . S
C1393 C1392 1.396 . S
C1393 C1394 1.399 . S
C1394 H1380 0.929 . S
C1394 C1393 1.399 . S
C1394 C1395 1.385 . S
C1395 H1381 0.931 . S
C1395 C1394 1.385 . S
C1395 C1396 1.389 . S
C1396 C1395 1.389 . S
C1396 C1397 1.387 . S
C1397 H1382 0.930 . S
C1397 C1392 1.390 . S
C1397 C1396 1.387 . S
H1398 C1410 0.930 . S
H1399 C1412 0.930 . S
H1400 C1413 0.930 . S
H1401 C1417 0.959 . S
H1402 C1417 0.959 . S
H1403 C1417 0.961 . S
H1404 C1418 0.960 . S
H1405 C1418 0.961 . S
H1406 C1418 0.959 . S
H1407 C1421 0.929 . S
H1408 C1422 0.931 . S
H1409 C1424 0.930 . S
C1410 H1398 0.930 . S
C1410 C1411 1.399 . S
C1410 C1415 1.399 . S
C1411 C1410 1.399 . S
C1411 C1412 1.376 . S
C1412 H1399 0.930 . S
C1412 C1411 1.376 . S
C1412 C1413 1.388 . S
C1413 H1400 0.930 . S
C1413 C1412 1.388 . S
C1413 C1414 1.390 . S
C1414 C1413 1.390 . S
C1414 C1415 1.394 . S
C1414 C1420 1.465 . S
C1415 C1410 1.399 . S
C1415 C1414 1.394 . S
C1415 C1416 1.516 . S
C1416 C1415 1.516 . S
C1416 C1417 1.502 . S
C1416 C1418 1.561 . S
C1416 C1419 1.526 . S
C1417 H1401 0.959 . S
C1417 H1402 0.959 . S
C1417 H1403 0.961 . S
C1417 C1416 1.502 . S
C1418 H1404 0.960 . S
C1418 H1405 0.961 . S
C1418 H1406 0.959 . S
C1418 C1416 1.561 . S
C1419 C1416 1.526 . S
C1419 C1420 1.396 . S
C1419 C1424 1.390 . S
C1420 C1414 1.465 . S
C1420 C1419 1.396 . S
C1420 C1421 1.399 . S
C1421 H1407 0.929 . S
C1421 C1420 1.399 . S
C1421 C1422 1.385 . S
C1422 H1408 0.931 . S
C1422 C1421 1.385 . S
C1422 C1423 1.389 . S
C1423 C1422 1.389 . S
C1423 C1424 1.387 . S
C1424 H1409 0.930 . S
C1424 C1419 1.390 . S
C1424 C1423 1.387 . S
H1425 C1437 0.930 . S
H1426 C1439 0.930 . S
H1427 C1440 0.930 . S
H1428 C1444 0.959 . S
H1429 C1444 0.959 . S
H1430 C1444 0.961 . S
H1431 C1445 0.960 . S
H1432 C1445 0.961 . S
H1433 C1445 0.959 . S
H1434 C1448 0.929 . S
H1435 C1449 0.931 . S
H1436 C1451 0.930 . S
C1437 H1425 0.930 . S
C1437 C1438 1.399 . S
C1437 C1442 1.399 . S
C1438 C1437 1.399 . S
C1438 C1439 1.376 . S
C1439 H1426 0.930 . S
C1439 C1438 1.376 . S
C1439 C1440 1.388 . S
C1440 H1427 0.930 . S
C1440 C1439 1.388 . S
C1440 C1441 1.390 . S
C1441 C1440 1.390 . S
C1441 C1442 1.394 . S
C1441 C1447 1.465 . S
C1442 C1437 1.399 . S
C1442 C1441 1.394 . S
C1442 C1443 1.516 . S
C1443 C1442 1.516 . S
C1443 C1444 1.502 . S
C1443 C1445 1.561 . S
C1443 C1446 1.526 . S
C1444 H1428 0.959 . S
C1444 H1429 0.959 . S
C1444 H1430 0.961 . S
C1444 C1443 1.502 . S
C1445 H1431 0.960 . S
C1445 H1432 0.961 . S
C1445 H1433 0.959 . S
C1445 C1443 1.561 . S
C1446 C1443 1.526 . S
C1446 C1447 1.396 . S
C1446 C1451 1.390 . S
C1447 C1441 1.465 . S
C1447 C1446 1.396 . S
C1447 C1448 1.399 . S
C1448 H1434 0.929 . S
C1448 C1447 1.399 . S
C1448 C1449 1.385 . S
C1449 H1435 0.931 . S
C1449 C1448 1.385 . S
C1449 C1450 1.389 . S
C1450 C1449 1.389 . S
C1450 C1451 1.387 . S
C1451 H1436 0.930 . S
C1451 C1446 1.390 . S
C1451 C1450 1.387 . S
H1452 C1464 0.930 . S
H1453 C1466 0.930 . S
H1454 C1467 0.930 . S
H1455 C1471 0.959 . S
H1456 C1471 0.959 . S
H1457 C1471 0.961 . S
H1458 C1472 0.960 . S
H1459 C1472 0.961 . S
H1460 C1472 0.959 . S
H1461 C1475 0.929 . S
H1462 C1476 0.931 . S
H1463 C1478 0.930 . S
C1464 H1452 0.930 . S
C1464 C1465 1.399 . S
C1464 C1469 1.399 . S
C1465 C1464 1.399 . S
C1465 C1466 1.376 . S
C1466 H1453 0.930 . S
C1466 C1465 1.376 . S
C1466 C1467 1.388 . S
C1467 H1454 0.930 . S
C1467 C1466 1.388 . S
C1467 C1468 1.390 . S
C1468 C1467 1.390 . S
C1468 C1469 1.394 . S
C1468 C1474 1.465 . S
C1469 C1464 1.399 . S
C1469 C1468 1.394 . S
C1469 C1470 1.516 . S
C1470 C1469 1.516 . S
C1470 C1471 1.502 . S
C1470 C1472 1.561 . S
C1470 C1473 1.526 . S
C1471 H1455 0.959 . S
C1471 H1456 0.959 . S
C1471 H1457 0.961 . S
C1471 C1470 1.502 . S
C1472 H1458 0.960 . S
C1472 H1459 0.961 . S
C1472 H1460 0.959 . S
C1472 C1470 1.561 . S
C1473 C1470 1.526 . S
C1473 C1474 1.396 . S
C1473 C1478 1.390 . S
C1474 C1468 1.465 . S
C1474 C1473 1.396 . S
C1474 C1475 1.399 . S
C1475 H1461 0.929 . S
C1475 C1474 1.399 . S
C1475 C1476 1.385 . S
C1476 H1462 0.931 . S
C1476 C1475 1.385 . S
C1476 C1477 1.389 . S
C1477 C1476 1.389 . S
C1477 C1478 1.387 . S
C1478 H1463 0.930 . S
C1478 C1473 1.390 . S
C1478 C1477 1.387 . S
H1479 C1491 0.930 . S
H1480 C1493 0.930 . S
H1481 C1494 0.930 . S
H1482 C1498 0.959 . S
H1483 C1498 0.959 . S
H1484 C1498 0.961 . S
H1485 C1499 0.960 . S
H1486 C1499 0.961 . S
H1487 C1499 0.959 . S
H1488 C1502 0.929 . S
H1489 C1503 0.931 . S
H1490 C1505 0.930 . S
C1491 H1479 0.930 . S
C1491 C1492 1.399 . S
C1491 C1496 1.399 . S
C1492 C1491 1.399 . S
C1492 C1493 1.376 . S
C1493 H1480 0.930 . S
C1493 C1492 1.376 . S
C1493 C1494 1.388 . S
C1494 H1481 0.930 . S
C1494 C1493 1.388 . S
C1494 C1495 1.390 . S
C1495 C1494 1.390 . S
C1495 C1496 1.394 . S
C1495 C1501 1.465 . S
C1496 C1491 1.399 . S
C1496 C1495 1.394 . S
C1496 C1497 1.516 . S
C1497 C1496 1.516 . S
C1497 C1498 1.502 . S
C1497 C1499 1.561 . S
C1497 C1500 1.526 . S
C1498 H1482 0.959 . S
C1498 H1483 0.959 . S
C1498 H1484 0.961 . S
C1498 C1497 1.502 . S
C1499 H1485 0.960 . S
C1499 H1486 0.961 . S
C1499 H1487 0.959 . S
C1499 C1497 1.561 . S
C1500 C1497 1.526 . S
C1500 C1501 1.396 . S
C1500 C1505 1.390 . S
C1501 C1495 1.465 . S
C1501 C1500 1.396 . S
C1501 C1502 1.399 . S
C1502 H1488 0.929 . S
C1502 C1501 1.399 . S
C1502 C1503 1.385 . S
C1503 H1489 0.931 . S
C1503 C1502 1.385 . S
C1503 C1504 1.389 . S
C1504 C1503 1.389 . S
C1504 C1505 1.387 . S
C1505 H1490 0.930 . S
C1505 C1500 1.390 . S
C1505 C1504 1.387 . S
H1506 C1518 0.930 . S
H1507 C1520 0.930 . S
H1508 C1521 0.930 . S
H1509 C1525 0.959 . S
H1510 C1525 0.959 . S
H1511 C1525 0.961 . S
H1512 C1526 0.960 . S
H1513 C1526 0.961 . S
H1514 C1526 0.959 . S
H1515 C1529 0.929 . S
H1516 C1530 0.931 . S
H1517 C1532 0.930 . S
C1518 H1506 0.930 . S
C1518 C1519 1.399 . S
C1518 C1523 1.399 . S
C1519 C1518 1.399 . S
C1519 C1520 1.376 . S
C1520 H1507 0.930 . S
C1520 C1519 1.376 . S
C1520 C1521 1.388 . S
C1521 H1508 0.930 . S
C1521 C1520 1.388 . S
C1521 C1522 1.390 . S
C1522 C1521 1.390 . S
C1522 C1523 1.394 . S
C1522 C1528 1.465 . S
C1523 C1518 1.399 . S
C1523 C1522 1.394 . S
C1523 C1524 1.516 . S
C1524 C1523 1.516 . S
C1524 C1525 1.502 . S
C1524 C1526 1.561 . S
C1524 C1527 1.526 . S
C1525 H1509 0.959 . S
C1525 H1510 0.959 . S
C1525 H1511 0.961 . S
C1525 C1524 1.502 . S
C1526 H1512 0.960 . S
C1526 H1513 0.961 . S
C1526 H1514 0.959 . S
C1526 C1524 1.561 . S
C1527 C1524 1.526 . S
C1527 C1528 1.396 . S
C1527 C1532 1.390 . S
C1528 C1522 1.465 . S
C1528 C1527 1.396 . S
C1528 C1529 1.399 . S
C1529 H1515 0.929 . S
C1529 C1528 1.399 . S
C1529 C1530 1.385 . S
C1530 H1516 0.931 . S
C1530 C1529 1.385 . S
C1530 C1531 1.389 . S
C1531 C1530 1.389 . S
C1531 C1532 1.387 . S
C1532 H1517 0.930 . S
C1532 C1527 1.390 . S
C1532 C1531 1.387 . S
H1533 C1545 0.930 . S
H1534 C1547 0.930 . S
H1535 C1548 0.930 . S
H1536 C1552 0.959 . S
H1537 C1552 0.959 . S
H1538 C1552 0.961 . S
H1539 C1553 0.960 . S
H1540 C1553 0.961 . S
H1541 C1553 0.959 . S
H1542 C1556 0.929 . S
H1543 C1557 0.931 . S
H1544 C1559 0.930 . S
C1545 H1533 0.930 . S
C1545 C1546 1.399 . S
C1545 C1550 1.399 . S
C1546 C1545 1.399 . S
C1546 C1547 1.376 . S
C1547 H1534 0.930 . S
C1547 C1546 1.376 . S
C1547 C1548 1.388 . S
C1548 H1535 0.930 . S
C1548 C1547 1.388 . S
C1548 C1549 1.390 . S
C1549 C1548 1.390 . S
C1549 C1550 1.394 . S
C1549 C1555 1.465 . S
C1550 C1545 1.399 . S
C1550 C1549 1.394 . S
C1550 C1551 1.516 . S
C1551 C1550 1.516 . S
C1551 C1552 1.502 . S
C1551 C1553 1.561 . S
C1551 C1554 1.526 . S
C1552 H1536 0.959 . S
C1552 H1537 0.959 . S
C1552 H1538 0.961 . S
C1552 C1551 1.502 . S
C1553 H1539 0.960 . S
C1553 H1540 0.961 . S
C1553 H1541 0.959 . S
C1553 C1551 1.561 . S
C1554 C1551 1.526 . S
C1554 C1555 1.396 . S
C1554 C1559 1.390 . S
C1555 C1549 1.465 . S
C1555 C1554 1.396 . S
C1555 C1556 1.399 . S
C1556 H1542 0.929 . S
C1556 C1555 1.399 . S
C1556 C1557 1.385 . S
C1557 H1543 0.931 . S
C1557 C1556 1.385 . S
C1557 C1558 1.389 . S
C1558 C1557 1.389 . S
C1558 C1559 1.387 . S
C1559 H1544 0.930 . S
C1559 C1554 1.390 . S
C1559 C1558 1.387 . S
H1560 C1572 0.930 . S
H1561 C1574 0.930 . S
H1562 C1575 0.930 . S
H1563 C1579 0.959 . S
H1564 C1579 0.959 . S
H1565 C1579 0.961 . S
H1566 C1580 0.960 . S
H1567 C1580 0.961 . S
H1568 C1580 0.959 . S
H1569 C1583 0.929 . S
H1570 C1584 0.931 . S
H1571 C1586 0.930 . S
C1572 H1560 0.930 . S
C1572 C1573 1.399 . S
C1572 C1577 1.399 . S
C1573 C1572 1.399 . S
C1573 C1574 1.376 . S
C1574 H1561 0.930 . S
C1574 C1573 1.376 . S
C1574 C1575 1.388 . S
C1575 H1562 0.930 . S
C1575 C1574 1.388 . S
C1575 C1576 1.390 . S
C1576 C1575 1.390 . S
C1576 C1577 1.394 . S
C1576 C1582 1.465 . S
C1577 C1572 1.399 . S
C1577 C1576 1.394 . S
C1577 C1578 1.516 . S
C1578 C1577 1.516 . S
C1578 C1579 1.502 . S
C1578 C1580 1.561 . S
C1578 C1581 1.526 . S
C1579 H1563 0.959 . S
C1579 H1564 0.959 . S
C1579 H1565 0.961 . S
C1579 C1578 1.502 . S
C1580 H1566 0.960 . S
C1580 H1567 0.961 . S
C1580 H1568 0.959 . S
C1580 C1578 1.561 . S
C1581 C1578 1.526 . S
C1581 C1582 1.396 . S
C1581 C1586 1.390 . S
C1582 C1576 1.465 . S
C1582 C1581 1.396 . S
C1582 C1583 1.399 . S
C1583 H1569 0.929 . S
C1583 C1582 1.399 . S
C1583 C1584 1.385 . S
C1584 H1570 0.931 . S
C1584 C1583 1.385 . S
C1584 C1585 1.389 . S
C1585 C1584 1.389 . S
C1585 C1586 1.387 . S
C1586 H1571 0.930 . S
C1586 C1581 1.390 . S
C1586 C1585 1.387 . S
H1587 C1599 0.930 . S
H1588 C1601 0.930 . S
H1589 C1602 0.930 . S
H1590 C1606 0.959 . S
H1591 C1606 0.959 . S
H1592 C1606 0.961 . S
H1593 C1607 0.960 . S
H1594 C1607 0.961 . S
H1595 C1607 0.959 . S
H1596 C1610 0.929 . S
H1597 C1611 0.931 . S
H1598 C1613 0.930 . S
C1599 H1587 0.930 . S
C1599 C1600 1.399 . S
C1599 C1604 1.399 . S
C1600 C1599 1.399 . S
C1600 C1601 1.376 . S
C1601 H1588 0.930 . S
C1601 C1600 1.376 . S
C1601 C1602 1.388 . S
C1602 H1589 0.930 . S
C1602 C1601 1.388 . S
C1602 C1603 1.390 . S
C1603 C1602 1.390 . S
C1603 C1604 1.394 . S
C1603 C1609 1.465 . S
C1604 C1599 1.399 . S
C1604 C1603 1.394 . S
C1604 C1605 1.516 . S
C1605 C1604 1.516 . S
C1605 C1606 1.502 . S
C1605 C1607 1.561 . S
C1605 C1608 1.526 . S
C1606 H1590 0.959 . S
C1606 H1591 0.959 . S
C1606 H1592 0.961 . S
C1606 C1605 1.502 . S
C1607 H1593 0.960 . S
C1607 H1594 0.961 . S
C1607 H1595 0.959 . S
C1607 C1605 1.561 . S
C1608 C1605 1.526 . S
C1608 C1609 1.396 . S
C1608 C1613 1.390 . S
C1609 C1603 1.465 . S
C1609 C1608 1.396 . S
C1609 C1610 1.399 . S
C1610 H1596 0.929 . S
C1610 C1609 1.399 . S
C1610 C1611 1.385 . S
C1611 H1597 0.931 . S
C1611 C1610 1.385 . S
C1611 C1612 1.389 . S
C1612 C1611 1.389 . S
C1612 C1613 1.387 . S
C1613 H1598 0.930 . S
C1613 C1608 1.390 . S
C1613 C1612 1.387 . S
H1614 C1626 0.930 . S
H1615 C1628 0.930 . S
H1616 C1629 0.930 . S
H1617 C1633 0.959 . S
H1618 C1633 0.959 . S
H1619 C1633 0.961 . S
H1620 C1634 0.960 . S
H1621 C1634 0.961 . S
H1622 C1634 0.959 . S
H1623 C1637 0.929 . S
H1624 C1638 0.931 . S
H1625 C1640 0.930 . S
C1626 H1614 0.930 . S
C1626 C1627 1.399 . S
C1626 C1631 1.399 . S
C1627 C1626 1.399 . S
C1627 C1628 1.376 . S
C1628 H1615 0.930 . S
C1628 C1627 1.376 . S
C1628 C1629 1.388 . S
C1629 H1616 0.930 . S
C1629 C1628 1.388 . S
C1629 C1630 1.390 . S
C1630 C1629 1.390 . S
C1630 C1631 1.394 . S
C1630 C1636 1.465 . S
C1631 C1626 1.399 . S
C1631 C1630 1.394 . S
C1631 C1632 1.516 . S
C1632 C1631 1.516 . S
C1632 C1633 1.502 . S
C1632 C1634 1.561 . S
C1632 C1635 1.526 . S
C1633 H1617 0.959 . S
C1633 H1618 0.959 . S
C1633 H1619 0.961 . S
C1633 C1632 1.502 . S
C1634 H1620 0.960 . S
C1634 H1621 0.961 . S
C1634 H1622 0.959 . S
C1634 C1632 1.561 . S
C1635 C1632 1.526 . S
C1635 C1636 1.396 . S
C1635 C1640 1.390 . S
C1636 C1630 1.465 . S
C1636 C1635 1.396 . S
C1636 C1637 1.399 . S
C1637 H1623 0.929 . S
C1637 C1636 1.399 . S
C1637 C1638 1.385 . S
C1638 H1624 0.931 . S
C1638 C1637 1.385 . S
C1638 C1639 1.389 . S
C1639 C1638 1.389 . S
C1639 C1640 1.387 . S
C1640 H1625 0.930 . S
C1640 C1635 1.390 . S
C1640 C1639 1.387 . S
H1641 C1653 0.930 . S
H1642 C1655 0.930 . S
H1643 C1656 0.930 . S
H1644 C1660 0.959 . S
H1645 C1660 0.959 . S
H1646 C1660 0.961 . S
H1647 C1661 0.960 . S
H1648 C1661 0.961 . S
H1649 C1661 0.959 . S
H1650 C1664 0.929 . S
H1651 C1665 0.931 . S
H1652 C1667 0.930 . S
C1653 H1641 0.930 . S
C1653 C1654 1.399 . S
C1653 C1658 1.399 . S
C1654 C1653 1.399 . S
C1654 C1655 1.376 . S
C1655 H1642 0.930 . S
C1655 C1654 1.376 . S
C1655 C1656 1.388 . S
C1656 H1643 0.930 . S
C1656 C1655 1.388 . S
C1656 C1657 1.390 . S
C1657 C1656 1.390 . S
C1657 C1658 1.394 . S
C1657 C1663 1.465 . S
C1658 C1653 1.399 . S
C1658 C1657 1.394 . S
C1658 C1659 1.516 . S
C1659 C1658 1.516 . S
C1659 C1660 1.502 . S
C1659 C1661 1.561 . S
C1659 C1662 1.526 . S
C1660 H1644 0.959 . S
C1660 H1645 0.959 . S
C1660 H1646 0.961 . S
C1660 C1659 1.502 . S
C1661 H1647 0.960 . S
C1661 H1648 0.961 . S
C1661 H1649 0.959 . S
C1661 C1659 1.561 . S
C1662 C1659 1.526 . S
C1662 C1663 1.396 . S
C1662 C1667 1.390 . S
C1663 C1657 1.465 . S
C1663 C1662 1.396 . S
C1663 C1664 1.399 . S
C1664 H1650 0.929 . S
C1664 C1663 1.399 . S
C1664 C1665 1.385 . S
C1665 H1651 0.931 . S
C1665 C1664 1.385 . S
C1665 C1666 1.389 . S
C1666 C1665 1.389 . S
C1666 C1667 1.387 . S
C1667 H1652 0.930 . S
C1667 C1662 1.390 . S
C1667 C1666 1.387 . S
H1668 C1680 0.930 . S
H1669 C1682 0.930 . S
H1670 C1683 0.930 . S
H1671 C1687 0.959 . S
H1672 C1687 0.959 . S
H1673 C1687 0.961 . S
H1674 C1688 0.960 . S
H1675 C1688 0.961 . S
H1676 C1688 0.959 . S
H1677 C1691 0.929 . S
H1678 C1692 0.931 . S
H1679 C1694 0.930 . S
C1680 H1668 0.930 . S
C1680 C1681 1.399 . S
C1680 C1685 1.399 . S
C1681 C1680 1.399 . S
C1681 C1682 1.376 . S
C1682 H1669 0.930 . S
C1682 C1681 1.376 . S
C1682 C1683 1.388 . S
C1683 H1670 0.930 . S
C1683 C1682 1.388 . S
C1683 C1684 1.390 . S
C1684 C1683 1.390 . S
C1684 C1685 1.394 . S
C1684 C1690 1.465 . S
C1685 C1680 1.399 . S
C1685 C1684 1.394 . S
C1685 C1686 1.516 . S
C1686 C1685 1.516 . S
C1686 C1687 1.502 . S
C1686 C1688 1.561 . S
C1686 C1689 1.526 . S
C1687 H1671 0.959 . S
C1687 H1672 0.959 . S
C1687 H1673 0.961 . S
C1687 C1686 1.502 . S
C1688 H1674 0.960 . S
C1688 H1675 0.961 . S
C1688 H1676 0.959 . S
C1688 C1686 1.561 . S
C1689 C1686 1.526 . S
C1689 C1690 1.396 . S
C1689 C1694 1.390 . S
C1690 C1684 1.465 . S
C1690 C1689 1.396 . S
C1690 C1691 1.399 . S
C1691 H1677 0.929 . S
C1691 C1690 1.399 . S
C1691 C1692 1.385 . S
C1692 H1678 0.931 . S
C1692 C1691 1.385 . S
C1692 C1693 1.389 . S
C1693 C1692 1.389 . S
C1693 C1694 1.387 . S
C1694 H1679 0.930 . S
C1694 C1689 1.390 . S
C1694 C1693 1.387 . S
H1695 C1707 0.930 . S
H1696 C1709 0.930 . S
H1697 C1710 0.930 . S
H1698 C1714 0.959 . S
H1699 C1714 0.959 . S
H1700 C1714 0.961 . S
H1701 C1715 0.960 . S
H1702 C1715 0.961 . S
H1703 C1715 0.959 . S
H1704 C1718 0.929 . S
H1705 C1719 0.931 . S
H1706 C1721 0.930 . S
C1707 H1695 0.930 . S
C1707 C1708 1.399 . S
C1707 C1712 1.399 . S
C1708 C1707 1.399 . S
C1708 C1709 1.376 . S
C1709 H1696 0.930 . S
C1709 C1708 1.376 . S
C1709 C1710 1.388 . S
C1710 H1697 0.930 . S
C1710 C1709 1.388 . S
C1710 C1711 1.390 . S
C1711 C1710 1.390 . S
C1711 C1712 1.394 . S
C1711 C1717 1.465 . S
C1712 C1707 1.399 . S
C1712 C1711 1.394 . S
C1712 C1713 1.516 . S
C1713 C1712 1.516 . S
C1713 C1714 1.502 . S
C1713 C1715 1.561 . S
C1713 C1716 1.526 . S
C1714 H1698 0.959 . S
C1714 H1699 0.959 . S
C1714 H1700 0.961 . S
C1714 C1713 1.502 . S
C1715 H1701 0.960 . S
C1715 H1702 0.961 . S
C1715 H1703 0.959 . S
C1715 C1713 1.561 . S
C1716 C1713 1.526 . S
C1716 C1717 1.396 . S
C1716 C1721 1.390 . S
C1717 C1711 1.465 . S
C1717 C1716 1.396 . S
C1717 C1718 1.399 . S
C1718 H1704 0.929 . S
C1718 C1717 1.399 . S
C1718 C1719 1.385 . S
C1719 H1705 0.931 . S
C1719 C1718 1.385 . S
C1719 C1720 1.389 . S
C1720 C1719 1.389 . S
C1720 C1721 1.387 . S
C1721 H1706 0.930 . S
C1721 C1716 1.390 . S
C1721 C1720 1.387 . S
H1722 C1734 0.930 . S
H1723 C1736 0.930 . S
H1724 C1737 0.930 . S
H1725 C1741 0.959 . S
H1726 C1741 0.959 . S
H1727 C1741 0.961 . S
H1728 C1742 0.960 . S
H1729 C1742 0.961 . S
H1730 C1742 0.959 . S
H1731 C1745 0.929 . S
H1732 C1746 0.931 . S
H1733 C1748 0.930 . S
C1734 H1722 0.930 . S
C1734 C1735 1.399 . S
C1734 C1739 1.399 . S
C1735 C1734 1.399 . S
C1735 C1736 1.376 . S
C1736 H1723 0.930 . S
C1736 C1735 1.376 . S
C1736 C1737 1.388 . S
C1737 H1724 0.930 . S
C1737 C1736 1.388 . S
C1737 C1738 1.390 . S
C1738 C1737 1.390 . S
C1738 C1739 1.394 . S
C1738 C1744 1.465 . S
C1739 C1734 1.399 . S
C1739 C1738 1.394 . S
C1739 C1740 1.516 . S
C1740 C1739 1.516 . S
C1740 C1741 1.502 . S
C1740 C1742 1.561 . S
C1740 C1743 1.526 . S
C1741 H1725 0.959 . S
C1741 H1726 0.959 . S
C1741 H1727 0.961 . S
C1741 C1740 1.502 . S
C1742 H1728 0.960 . S
C1742 H1729 0.961 . S
C1742 H1730 0.959 . S
C1742 C1740 1.561 . S
C1743 C1740 1.526 . S
C1743 C1744 1.396 . S
C1743 C1748 1.390 . S
C1744 C1738 1.465 . S
C1744 C1743 1.396 . S
C1744 C1745 1.399 . S
C1745 H1731 0.929 . S
C1745 C1744 1.399 . S
C1745 C1746 1.385 . S
C1746 H1732 0.931 . S
C1746 C1745 1.385 . S
C1746 C1747 1.389 . S
C1747 C1746 1.389 . S
C1747 C1748 1.387 . S
C1748 H1733 0.930 . S
C1748 C1743 1.390 . S
C1748 C1747 1.387 . S
H1749 C1761 0.930 . S
H1750 C1763 0.930 . S
H1751 C1764 0.930 . S
H1752 C1768 0.959 . S
H1753 C1768 0.959 . S
H1754 C1768 0.961 . S
H1755 C1769 0.960 . S
H1756 C1769 0.961 . S
H1757 C1769 0.959 . S
H1758 C1772 0.929 . S
H1759 C1773 0.931 . S
H1760 C1775 0.930 . S
C1761 H1749 0.930 . S
C1761 C1762 1.399 . S
C1761 C1766 1.399 . S
C1762 C1761 1.399 . S
C1762 C1763 1.376 . S
C1763 H1750 0.930 . S
C1763 C1762 1.376 . S
C1763 C1764 1.388 . S
C1764 H1751 0.930 . S
C1764 C1763 1.388 . S
C1764 C1765 1.390 . S
C1765 C1764 1.390 . S
C1765 C1766 1.394 . S
C1765 C1771 1.465 . S
C1766 C1761 1.399 . S
C1766 C1765 1.394 . S
C1766 C1767 1.516 . S
C1767 C1766 1.516 . S
C1767 C1768 1.502 . S
C1767 C1769 1.561 . S
C1767 C1770 1.526 . S
C1768 H1752 0.959 . S
C1768 H1753 0.959 . S
C1768 H1754 0.961 . S
C1768 C1767 1.502 . S
C1769 H1755 0.960 . S
C1769 H1756 0.961 . S
C1769 H1757 0.959 . S
C1769 C1767 1.561 . S
C1770 C1767 1.526 . S
C1770 C1771 1.396 . S
C1770 C1775 1.390 . S
C1771 C1765 1.465 . S
C1771 C1770 1.396 . S
C1771 C1772 1.399 . S
C1772 H1758 0.929 . S
C1772 C1771 1.399 . S
C1772 C1773 1.385 . S
C1773 H1759 0.931 . S
C1773 C1772 1.385 . S
C1773 C1774 1.389 . S
C1774 C1773 1.389 . S
C1774 C1775 1.387 . S
C1775 H1760 0.930 . S
C1775 C1770 1.390 . S
C1775 C1774 1.387 . S
C493 C106 1.637 . S
C505 N14 1.459 . S
C520 C16 2.280 . S
C532 C46 2.279 . S
C547 C70 1.144 . S
C559 C31 1.131 . S
C574 N104 0.668 . S
C586 C87 0.788 . S
C601 C147 0.883 . S
C613 N164 0.753 . S
C628 C151 1.145 . S
C640 C190 1.162 . S
C655 N186 0.720 . S
C667 C220 0.771 . S
C682 N126 0.298 . S
C694 N216 0.301 . S
C709 C286 2.137 . S
C721 C1 2.127 . S
C736 C327 1.568 . S
C748 N44 1.539 . S
C763 N66 0.786 . S
C775 C417 0.829 . S
C790 C250 1.148 . S
C802 C91 1.174 . S
C817 C331 1.177 . S
C829 C130 1.153 . S
C844 C421 2.129 . S
C856 C166 2.137 . S
C871 C207 1.593 . S
C883 N374 1.446 . S
C898 N456 0.825 . S
C910 C237 0.855 . S
C925 N246 0.306 . S
C937 N396 0.308 . S
C952 N284 0.862 . S
C964 C267 0.874 . S
C979 C310 1.128 . S
C991 C271 1.150 . S
C1006 N434 1.560 . S
C1018 C346 1.614 . S
C1033 C361 1.139 . S
C1045 C460 1.134 . S
C1060 C357 1.615 . S
C1072 N6 1.564 . S
C1087 C387 2.292 . S
C1099 C27 2.259 . S
C1114 C370 1.145 . S
C1126 C61 1.137 . S
C1141 C76 0.725 . S
C1153 N336 0.837 . S
C1168 N276 0.774 . S
C1180 C136 0.887 . S
C1195 C280 1.133 . S
C1207 C181 1.156 . S
C1222 C391 0.795 . S
C1234 N194 0.735 . S
C1249 N134 0.285 . S
C1261 N404 0.355 . S
C1276 C177 2.137 . S
C1288 C10 2.126 . S
C1303 C316 1.560 . S
C1315 N366 1.543 . S
C1330 N74 0.887 . S
C1342 C226 0.900 . S
C1357 C241 1.173 . S
C1369 C340 1.159 . S
C1384 C100 1.177 . S
C1396 C121 1.154 . S
C1411 C297 2.118 . S
C1423 C430 2.121 . S
C1438 C196 1.602 . S
C1450 N36 1.457 . S
C1465 N464 0.900 . S
C1477 C406 0.856 . S
C1492 N254 0.260 . S
C1504 N224 0.325 . S
C1519 C256 0.821 . S
C1531 N156 0.912 . S
C1546 C301 1.129 . S
C1558 C160 1.157 . S
C1573 C117 1.645 . S
C1585 N426 1.483 . S
C1600 C40 1.149 . S
C1612 C451 1.127 . S
C1627 C376 2.276 . S
C1639 C436 2.254 . S
C1654 N344 0.701 . S
C1666 C477 0.770 . S
C1681 N306 0.712 . S
C1693 C400 0.742 . S
C1708 C447 2.255 . S
C1720 C57 2.290 . S
C1735 N96 0.849 . S
C1747 C466 0.720 . S
C1762 C211 0.743 . S
C1774 N314 0.715 . S
