# Generated by pormake.
# Topology wjg, (4)-cn, num edge types: 1
# Building blocks:
#     Node 0, Type 0, BuildingBlock: QUQFOY_clean_sbu_1, # of connection points: 4
#     Node 1, Type 0, BuildingBlock: QUQFOY_clean_sbu_1, # of connection points: 4
#     Node 2, Type 0, BuildingBlock: QUQFOY_clean_sbu_1, # of connection points: 4
#     Node 3, Type 0, BuildingBlock: QUQFOY_clean_sbu_1, # of connection points: 4
#     Node 4, Type 0, BuildingBlock: QUQFOY_clean_sbu_1, # of connection points: 4
#     Node 5, Type 0, BuildingBlock: QUQFOY_clean_sbu_1, # of connection points: 4
#     Node 6, Type 0, BuildingBlock: QUQFOY_clean_sbu_1, # of connection points: 4
#     Node 7, Type 0, BuildingBlock: QUQFOY_clean_sbu_1, # of connection points: 4
#     Node 8, Type 0, BuildingBlock: QUQFOY_clean_sbu_1, # of connection points: 4
#     Node 9, Type 0, BuildingBlock: QUQFOY_clean_sbu_1, # of connection points: 4
#     Node 10, Type 0, BuildingBlock: QUQFOY_clean_sbu_1, # of connection points: 4
#     Node 11, Type 0, BuildingBlock: QUQFOY_clean_sbu_1, # of connection points: 4
#     Edge 12, Type (0, 0), BuildingBlock: MIFKUJ_clean_linker_0, # of connection points: 2
#     Edge 13, Type (0, 0), BuildingBlock: MIFKUJ_clean_linker_0, # of connection points: 2
#     Edge 14, Type (0, 0), BuildingBlock: MIFKUJ_clean_linker_0, # of connection points: 2
#     Edge 15, Type (0, 0), BuildingBlock: MIFKUJ_clean_linker_0, # of connection points: 2
#     Edge 16, Type (0, 0), BuildingBlock: MIFKUJ_clean_linker_0, # of connection points: 2
#     Edge 17, Type (0, 0), BuildingBlock: MIFKUJ_clean_linker_0, # of connection points: 2
#     Edge 18, Type (0, 0), BuildingBlock: MIFKUJ_clean_linker_0, # of connection points: 2
#     Edge 19, Type (0, 0), BuildingBlock: MIFKUJ_clean_linker_0, # of connection points: 2
#     Edge 20, Type (0, 0), BuildingBlock: MIFKUJ_clean_linker_0, # of connection points: 2
#     Edge 21, Type (0, 0), BuildingBlock: MIFKUJ_clean_linker_0, # of connection points: 2
#     Edge 22, Type (0, 0), BuildingBlock: MIFKUJ_clean_linker_0, # of connection points: 2
#     Edge 23, Type (0, 0), BuildingBlock: MIFKUJ_clean_linker_0, # of connection points: 2
#     Edge 24, Type (0, 0), BuildingBlock: MIFKUJ_clean_linker_0, # of connection points: 2
#     Edge 25, Type (0, 0), BuildingBlock: MIFKUJ_clean_linker_0, # of connection points: 2
#     Edge 26, Type (0, 0), BuildingBlock: MIFKUJ_clean_linker_0, # of connection points: 2
#     Edge 27, Type (0, 0), BuildingBlock: MIFKUJ_clean_linker_0, # of connection points: 2
#     Edge 28, Type (0, 0), BuildingBlock: MIFKUJ_clean_linker_0, # of connection points: 2
#     Edge 29, Type (0, 0), BuildingBlock: MIFKUJ_clean_linker_0, # of connection points: 2
#     Edge 30, Type (0, 0), BuildingBlock: MIFKUJ_clean_linker_0, # of connection points: 2
#     Edge 31, Type (0, 0), BuildingBlock: MIFKUJ_clean_linker_0, # of connection points: 2
#     Edge 32, Type (0, 0), BuildingBlock: MIFKUJ_clean_linker_0, # of connection points: 2
#     Edge 33, Type (0, 0), BuildingBlock: MIFKUJ_clean_linker_0, # of connection points: 2
#     Edge 34, Type (0, 0), BuildingBlock: MIFKUJ_clean_linker_0, # of connection points: 2
#     Edge 35, Type (0, 0), BuildingBlock: MIFKUJ_clean_linker_0, # of connection points: 2
# Relax obj value: 0.303
# Max RMSD: 0.127
# Mean RMSD: 0.125
data_MOF--net-wjg--node1-QUQFOY_clean_sbu_1--edge1-MIFKUJ_clean_linker_0
_symmetry_space_group_name_H-M    P1
_symmetry_Int_Tables_number       1
_symmetry_cell_setting            triclinic
loop_
_symmetry_equiv_pos_as_xyz
'x, y, z'
_cell_length_a     44.036578
_cell_length_b     43.884602
_cell_length_c     52.286683
_cell_angle_alpha  90.081194
_cell_angle_beta   89.931962
_cell_angle_gamma 120.11741
loop_
_atom_site_label
_atom_site_type_symbol
_atom_site_fract_x
_atom_site_fract_y
_atom_site_fract_z
_atom_type_partial_charge
O0 O 0.13307 0.33251 0.32365 0.0
Cd1 Cd 0.11222 0.36391 0.33166 0.0
Cd2 Cd 0.18175 0.41594 0.33013 0.0
O3 O 0.18514 0.37581 0.31229 0.0
O4 O 0.06538 0.34236 0.31479 0.0
O5 O 0.11093 0.39342 0.30286 0.0
C6 C 0.07905 0.36832 0.29879 0.0
C7 C 0.23039 0.47273 0.32392 0.0
C8 C 0.16357 0.34305 0.31475 0.0
C9 C 0.14226 0.39259 0.38162 0.0
O10 O 0.17023 0.40899 0.36855 0.0
O11 O 0.11283 0.37391 0.37054 0.0
O12 O 0.23314 0.44775 0.33422 0.0
O13 O 0.19983 0.46544 0.31584 0.0
O14 O 0.7952 0.11696 0.65276 0.0
Cd15 Cd 0.74534 0.10535 0.6621 0.0
Cd16 Cd 0.77211 0.17249 0.65297 0.0
O17 O 0.80729 0.16509 0.63164 0.0
O18 O 0.71006 0.05902 0.64711 0.0
O19 O 0.71923 0.11063 0.63286 0.0
C20 C 0.70413 0.0768 0.63008 0.0
C21 C 0.75911 0.21694 0.64415 0.0
C22 C 0.81563 0.1424 0.63838 0.0
C23 C 0.76178 0.14713 0.70797 0.0
O24 O 0.77798 0.17153 0.69176 0.0
O25 O 0.74109 0.11576 0.70038 0.0
O26 O 0.7905 0.22383 0.64921 0.0
O27 O 0.73526 0.18429 0.64148 0.0
O28 O 0.57779 0.72871 0.04403 0.0
Cd29 Cd 0.57057 0.74149 1.00765 0.0
Cd30 Cd 0.63075 0.73836 1.00235 0.0
O31 O 0.62491 0.72367 0.04048 0.0
O32 O 0.52898 0.74566 0.01659 0.0
O33 O 0.52678 0.70888 0.987 0.0
C34 C 0.51088 0.72146 1.00025 0.0
C35 C 0.62826 0.70422 0.96729 0.0
C36 C 0.60072 0.72312 0.05413 0.0
C37 C 0.63784 0.80881 0.99526 0.0
O38 O 0.65424 0.79197 0.99746 0.0
O39 O 0.60454 0.79283 0.99675 0.0
O40 O 0.65551 0.71878 0.98201 0.0
O41 O 0.60167 0.70783 0.97318 0.0
O42 O 0.87586 0.66711 0.33301 0.0
Cd43 Cd 0.88137 0.62332 0.3352 0.0
Cd44 Cd 0.81438 0.59133 0.32485 0.0
O45 O 0.82743 0.64003 0.31011 0.0
O46 O 0.92567 0.63167 0.31788 0.0
O47 O 0.87232 0.59792 0.30196 0.0
C48 C 0.90595 0.61302 0.29908 0.0
C49 C 0.77046 0.53788 0.30803 0.0
C50 C 0.8523 0.66822 0.31969 0.0
C51 C 0.83678 0.58933 0.37912 0.0
O52 O 0.81385 0.58847 0.36398 0.0
O53 O 0.86736 0.59839 0.37075 0.0
O54 O 0.76348 0.56095 0.31714 0.0
O55 O 0.80299 0.54635 0.30637 0.0
O56 O 0.19601 0.88288 0.6762 0.0
Cd57 Cd 0.24942 0.9059 0.67981 0.0
Cd58 Cd 0.2347 0.83838 0.6808 0.0
O59 O 0.18554 0.82873 0.6699 0.0
O60 O 0.27189 0.95016 0.65933 0.0
O61 O 0.27692 0.90355 0.64996 0.0
C62 C 0.28304 0.93475 0.64398 0.0
C63 C 0.24942 0.7952 0.67098 0.0
C64 C 0.17469 0.8506 0.67155 0.0
C65 C 0.25905 0.88349 0.72983 0.0
O66 O 0.24777 0.85447 0.71808 0.0
O67 O 0.26485 0.91101 0.7177 0.0
O68 O 0.22499 0.78963 0.6869 0.0
O69 O 0.26487 0.82503 0.65923 0.0
O70 O 0.4014 0.26017 0.05365 0.0
Cd71 Cd 0.41957 0.25149 0.01984 0.0
Cd72 Cd 0.35692 0.24809 1.00508 0.0
O73 O 0.35131 0.257 0.04337 0.0
O74 O 0.46191 0.25338 0.03499 0.0
O75 O 0.46553 0.28805 1.0033 0.0
C76 C 0.48108 0.27829 0.01944 0.0
C77 C 0.35352 0.27919 0.96993 0.0
C78 C 0.37366 0.26025 0.06016 0.0
C79 C 0.36132 0.1822 0.99996 0.0
O80 O 0.34275 0.19673 0.99775 0.0
O81 O 0.39306 0.19994 1.00731 0.0
O82 O 0.32591 0.25764 0.98274 0.0
O83 O 0.38364 0.28494 0.97817 0.0
O84 O 0.68822 0.8868 0.35385 0.0
Cd85 Cd 0.64942 0.89887 0.34783 0.0
Cd86 Cd 0.60679 0.82969 0.35302 0.0
O87 O 0.65167 0.83406 0.36928 0.0
O88 O 0.65999 0.94328 0.36605 0.0
O89 O 0.61792 0.89007 0.37784 0.0
C90 C 0.63596 0.92356 0.38235 0.0
C91 C 0.55147 0.78495 0.36639 0.0
C92 C 0.68283 0.85852 0.3645 0.0
C93 C 0.61768 0.86256 0.30006 0.0
O94 O 0.60727 0.83541 0.31394 0.0
O95 O 0.63355 0.89321 0.30994 0.0
O96 O 0.5738 0.7781 0.35593 0.0
O97 O 0.56118 0.81751 0.37083 0.0
O98 O 0.78729 0.65385 0.69505 0.0
Cd99 Cd 0.73737 0.61158 0.69033 0.0
Cd100 Cd 0.77002 0.57861 0.70068 0.0
O101 O 0.80346 0.62428 0.72006 0.0
O102 O 0.7019 0.62236 0.70539 0.0
O103 O 0.71649 0.58539 0.72277 0.0
C104 C 0.69972 0.60251 0.72443 0.0
C105 C 0.75586 0.52219 0.71373 0.0
C106 C 0.80938 0.65334 0.71041 0.0
C107 C 0.75277 0.58324 0.64584 0.0
O108 O 0.77429 0.58245 0.66157 0.0
O109 O 0.72873 0.58888 0.65402 0.0
O110 O 0.78758 0.54568 0.70803 0.0
O111 O 0.73241 0.53162 0.7142 0.0
O112 O 0.13156 0.73318 0.9712 0.0
Cd113 Cd 0.15453 0.74067 1.00644 0.0
Cd114 Cd 0.09408 0.7432 0.01684 0.0
O115 O 0.08308 0.73487 0.97809 0.0
O116 O 0.1977 0.74379 0.992 0.0
O117 O 0.16603 0.70468 0.02137 0.0
C118 C 0.19241 0.7176 1.00593 0.0
C119 C 0.06167 0.7069 0.05067 0.0
C120 C 0.10427 0.73255 0.96278 0.0
C121 C 0.16174 0.809 0.02628 0.0
O122 O 0.12855 0.79494 0.02541 0.0
O123 O 0.17639 0.79107 0.0211 0.0
O124 O 0.05106 0.7254 0.0384 0.0
O125 O 0.08983 0.70752 0.04273 0.0
O126 O 0.32057 0.13339 0.37396 0.0
Cd127 Cd 0.34868 0.11086 0.36099 0.0
Cd128 Cd 0.40066 0.17928 0.36265 0.0
O129 O 0.36613 0.18251 0.38758 0.0
O130 O 0.32727 0.06329 0.37683 0.0
O131 O 0.38047 0.1071 0.38663 0.0
C132 C 0.35482 0.07561 0.39124 0.0
C133 C 0.45946 0.22538 0.3638 0.0
C134 C 0.33309 0.16247 0.38585 0.0
C135 C 0.36816 0.14316 0.31118 0.0
O136 O 0.38503 0.17037 0.32504 0.0
O137 O 0.35347 0.11269 0.32135 0.0
O138 O 0.43392 0.23064 0.35896 0.0
O139 O 0.45176 0.19377 0.36968 0.0
O140 O 0.19161 0.33771 0.69429 0.0
Cd141 Cd 0.24329 0.35675 0.68563 0.0
Cd142 Cd 0.24014 0.41693 0.66994 0.0
O143 O 0.18788 0.38203 0.6779 0.0
O144 O 0.25564 0.32597 0.70588 0.0
O145 O 0.28022 0.38334 0.71256 0.0
C146 C 0.27625 0.35324 0.71941 0.0
C147 C 0.25518 0.47653 0.66991 0.0
C148 C 0.17346 0.35156 0.68794 0.0
C149 C 0.25782 0.37754 0.63061 0.0
O150 O 0.25922 0.40586 0.63769 0.0
O151 O 0.25105 0.35313 0.64665 0.0
O152 O 0.23443 0.45447 0.65327 0.0
O153 O 0.26708 0.46485 0.68755 0.0
O154 O 0.85653 0.26584 0.96774 0.0
Cd155 Cd 0.83119 0.25429 1.00242 0.0
Cd156 Cd 0.88946 0.25053 0.01538 0.0
O157 O 0.90149 0.25859 0.97663 0.0
O158 O 0.79002 0.25789 0.99111 0.0
O159 O 0.82404 0.28971 0.02288 0.0
C160 C 0.79735 0.28141 1.00835 0.0
C161 C 0.92447 0.28456 0.04943 0.0
C162 C 0.88323 0.26426 0.96053 0.0
C163 C 0.82078 0.18429 0.02087 0.0
O164 O 0.85379 0.19915 0.02386 0.0
O165 O 0.80682 0.20184 0.013 0.0
O166 O 0.93174 0.26366 0.03684 0.0
O167 O 0.89837 0.2878 0.04159 0.0
H168 H 0.29856 0.49114 0.32958 0.0
H169 H 0.34795 0.54951 0.33854 0.0
H170 H 0.28145 0.59461 0.32844 0.0
H171 H 0.23133 0.53566 0.31925 0.0
H172 H 0.35305 0.63638 0.30825 0.0
H173 H 0.29335 0.58094 0.38599 0.0
H174 H 0.26426 0.5311 0.41601 0.0
H175 H 0.3604 0.52958 0.42481 0.0
H176 H 0.38996 0.57907 0.39451 0.0
H177 H 0.49207 0.79003 0.36683 0.0
H178 H 0.43146 0.74109 0.36275 0.0
H179 H 0.46802 0.66679 0.36904 0.0
H180 H 0.5284 0.71534 0.37277 0.0
H181 H 0.40396 0.64487 0.39448 0.0
H182 H 0.4597 0.69074 0.31238 0.0
H183 H 0.49018 0.7378 0.28041 0.0
H184 H 0.40264 0.75532 0.2787 0.0
H185 H 0.3719 0.70877 0.31106 0.0
C186 C 0.29446 0.51349 0.32876 0.0
C187 C 0.26098 0.5088 0.324 0.0
C188 C 0.32273 0.54682 0.33396 0.0
C189 C 0.31811 0.57616 0.33469 0.0
C190 C 0.28538 0.57215 0.32812 0.0
C191 C 0.25687 0.53855 0.3228 0.0
C192 C 0.34713 0.61013 0.34421 0.0
C193 C 0.36366 0.63867 0.32732 0.0
C194 C 0.3612 0.61274 0.36899 0.0
C195 C 0.34384 0.58367 0.38787 0.0
C196 C 0.30827 0.5699 0.39425 0.0
C197 C 0.29169 0.5417 0.41131 0.0
C198 C 0.31046 0.52717 0.42229 0.0
C199 C 0.3459 0.54089 0.4163 0.0
C200 C 0.3626 0.56906 0.39921 0.0
C201 C 0.487 0.76324 0.36811 0.0
C202 C 0.51488 0.75641 0.36999 0.0
C203 C 0.45245 0.73537 0.36562 0.0
C204 C 0.44539 0.7004 0.36533 0.0
C205 C 0.47293 0.69359 0.36922 0.0
C206 C 0.50741 0.72134 0.37131 0.0
C207 C 0.41024 0.67092 0.35838 0.0
C208 C 0.39269 0.64308 0.37571 0.0
C209 C 0.3954 0.66888 0.33397 0.0
C210 C 0.41372 0.69664 0.31439 0.0
C211 C 0.44709 0.70485 0.30536 0.0
C212 C 0.46439 0.73138 0.28714 0.0
C213 C 0.44839 0.74959 0.27758 0.0
C214 C 0.41503 0.74125 0.28617 0.0
C215 C 0.39766 0.71481 0.30446 0.0
H216 H 0.46182 0.77011 0.26347 0.0
H217 H 0.29755 0.5053 0.43547 0.0
H218 H 0.80461 0.28697 0.65011 0.0
H219 H 0.79051 0.33144 0.6639 0.0
H220 H 0.68005 0.25643 0.65677 0.0
H221 H 0.69387 0.21101 0.64334 0.0
H222 H 0.71211 0.33662 0.63861 0.0
H223 H 0.69598 0.26063 0.70998 0.0
H224 H 0.71213 0.22558 0.73774 0.0
H225 H 0.8089 0.31872 0.75724 0.0
H226 H 0.79362 0.35427 0.72923 0.0
H227 H 0.69094 0.46405 0.70726 0.0
H228 H 0.67857 0.40401 0.6985 0.0
H229 H 0.78675 0.43614 0.71396 0.0
H230 H 0.79929 0.49601 0.72264 0.0
H231 H 0.74131 0.36803 0.73014 0.0
H232 H 0.7633 0.44102 0.6549 0.0
H233 H 0.7517 0.47825 0.62584 0.0
H234 H 0.64722 0.39238 0.61269 0.0
H235 H 0.65807 0.35481 0.64203 0.0
C236 C 0.77727 0.27996 0.65085 0.0
C237 C 0.75033 0.2453 0.64587 0.0
C238 C 0.76931 0.30544 0.65882 0.0
C239 C 0.73431 0.29695 0.66169 0.0
C240 C 0.70724 0.26329 0.65473 0.0
C241 C 0.7152 0.23748 0.64698 0.0
C242 C 0.72684 0.32278 0.67406 0.0
C243 C 0.71739 0.34288 0.65878 0.0
C244 C 0.73455 0.33125 0.70025 0.0
C245 C 0.74377 0.31006 0.71731 0.0
C246 C 0.72086 0.2736 0.71998 0.0
C247 C 0.72983 0.25364 0.73579 0.0
C248 C 0.76156 0.26991 0.74916 0.0
C249 C 0.78435 0.30617 0.74682 0.0
C250 C 0.77553 0.32624 0.73101 0.0
C251 C 0.71179 0.45802 0.70964 0.0
C252 C 0.74618 0.48479 0.71538 0.0
C253 C 0.70472 0.42376 0.70447 0.0
C254 C 0.73189 0.41583 0.70517 0.0
C255 C 0.76543 0.44174 0.71324 0.0
C256 C 0.77258 0.47597 0.71816 0.0
C257 C 0.72692 0.38224 0.69465 0.0
C258 C 0.73458 0.36097 0.71021 0.0
C259 C 0.71777 0.37283 0.66867 0.0
C260 C 0.71132 0.39528 0.6509 0.0
C261 C 0.73776 0.43019 0.64597 0.0
C262 C 0.73134 0.45133 0.62944 0.0
C263 C 0.6987 0.43773 0.6175 0.0
C264 C 0.67245 0.40291 0.62201 0.0
C265 C 0.67872 0.38169 0.63859 0.0
H266 H 0.69378 0.45413 0.60469 0.0
H267 H 0.76844 0.25442 0.76137 0.0
H268 H 0.46756 0.71957 0.03745 0.0
H269 H 0.40619 0.7037 0.03362 0.0
H270 H 0.40727 0.67961 0.95374 0.0
H271 H 0.46912 0.69477 0.95764 0.0
H272 H 0.38501 0.73087 0.96702 0.0
H273 H 0.35844 0.61402 0.98771 0.0
H274 H 0.36379 0.56895 0.01215 0.0
H275 H 0.32893 0.59727 0.08015 0.0
H276 H 0.32385 0.6429 0.05623 0.0
H277 H 0.21581 0.70481 0.96196 0.0
H278 H 0.26209 0.69015 0.9567 0.0
H279 H 0.27063 0.68646 0.03878 0.0
H280 H 0.22238 0.69884 0.04396 0.0
H281 H 0.285 0.64106 0.01808 0.0
H282 H 0.32287 0.76314 1.00254 0.0
H283 H 0.3208 0.81254 0.98182 0.0
H284 H 0.33874 0.77992 0.90863 0.0
H285 H 0.34047 0.73002 0.92889 0.0
C286 C 0.45463 0.71042 0.01912 0.0
C287 C 0.47303 0.70856 0.99778 0.0
C288 C 0.41953 0.70116 0.01703 0.0
C289 C 0.40225 0.69031 0.99346 0.0
C290 C 0.42024 0.6877 0.97213 0.0
C291 C 0.45539 0.6963 0.97436 0.0
C292 C 0.36657 0.68524 0.9911 0.0
C293 C 0.36277 0.71062 0.97754 0.0
C294 C 0.33818 0.65964 1.00571 0.0
C295 C 0.34093 0.63203 0.02017 0.0
C296 C 0.35215 0.61083 1.00792 0.0
C297 C 0.35509 0.58514 0.02168 0.0
C298 C 0.34675 0.58028 0.0477 0.0
C299 C 0.33537 0.60106 0.06 0.0
C300 C 0.3324 0.6268 0.04633 0.0
C301 C 0.22703 0.69997 0.97884 0.0
C302 C 0.21596 0.70318 1.00337 0.0
C303 C 0.25358 0.69182 0.97583 0.0
C304 C 0.27064 0.68832 0.99733 0.0
C305 C 0.25801 0.68927 0.02189 0.0
C306 C 0.23055 0.69637 0.02489 0.0
C307 C 0.3035 0.68702 0.99424 0.0
C308 C 0.30687 0.66073 1.00696 0.0
C309 C 0.33194 0.71238 0.97936 0.0
C310 C 0.33145 0.74266 0.96719 0.0
C311 C 0.32622 0.76642 0.98201 0.0
C312 C 0.32513 0.79452 0.97036 0.0
C313 C 0.32962 0.79935 0.94393 0.0
C314 C 0.33528 0.77613 0.9291 0.0
C315 C 0.33633 0.74795 0.94065 0.0
H316 H 0.32869 0.82107 0.93493 0.0
H317 H 0.34905 0.56039 0.05832 0.0
H318 H 0.5199 0.22148 0.36077 0.0
H319 H 0.57803 0.26855 0.34668 0.0
H320 H 0.53877 0.34085 0.343 0.0
H321 H 0.48127 0.29455 0.35698 0.0
H322 H 0.57091 0.33842 0.29808 0.0
H323 H 0.59263 0.34704 0.39 0.0
H324 H 0.59715 0.32397 0.43194 0.0
H325 H 0.67457 0.30151 0.40174 0.0
H326 H 0.67015 0.32407 0.3595 0.0
H327 H 0.70084 0.51515 0.30316 0.0
H328 H 0.6526 0.45469 0.30631 0.0
H329 H 0.72635 0.41722 0.30724 0.0
H330 H 0.77508 0.4781 0.30425 0.0
H331 H 0.68211 0.39208 0.34728 0.0
H332 H 0.66904 0.39475 0.25784 0.0
H333 H 0.66527 0.41844 0.216 0.0
H334 H 0.57234 0.41888 0.24033 0.0
H335 H 0.5758 0.39569 0.28247 0.0
C336 C 0.52396 0.24763 0.35747 0.0
C337 C 0.49596 0.25425 0.35984 0.0
C338 C 0.55708 0.2744 0.34931 0.0
C339 C 0.5625 0.30803 0.34349 0.0
C340 C 0.53501 0.31497 0.34707 0.0
C341 C 0.50217 0.28846 0.35521 0.0
C342 C 0.59611 0.33608 0.33269 0.0
C343 C 0.59528 0.35023 0.3088 0.0
C344 C 0.62816 0.35037 0.34618 0.0
C345 C 0.6307 0.33676 0.37153 0.0
C346 C 0.61035 0.33685 0.39224 0.0
C347 C 0.61296 0.32395 0.41608 0.0
C348 C 0.63603 0.31115 0.41948 0.0
C349 C 0.65664 0.31134 0.39906 0.0
C350 C 0.6541 0.32419 0.37518 0.0
C351 C 0.70682 0.49403 0.3033 0.0
C352 C 0.74176 0.5014 0.30356 0.0
C353 C 0.67917 0.45939 0.30503 0.0
C354 C 0.68583 0.43136 0.30698 0.0
C355 C 0.72064 0.43845 0.30574 0.0
C356 C 0.74842 0.47322 0.30383 0.0
C357 C 0.65653 0.39556 0.31317 0.0
C358 C 0.65809 0.37981 0.33614 0.0
C359 C 0.62511 0.37967 0.29877 0.0
C360 C 0.62278 0.39357 0.2734 0.0
C361 C 0.64792 0.40011 0.25435 0.0
C362 C 0.64582 0.41343 0.23056 0.0
C363 C 0.6186 0.42019 0.22552 0.0
C364 C 0.5934 0.4136 0.24426 0.0
C365 C 0.59538 0.4003 0.26809 0.0
H366 H 0.61703 0.4305 0.20708 0.0
H367 H 0.63803 0.3012 0.43795 0.0
H368 H 0.25008 0.75253 0.70763 0.0
H369 H 0.2634 0.70508 0.70306 0.0
H370 H 0.28471 0.72893 0.62282 0.0
H371 H 0.27256 0.77779 0.62752 0.0
H372 H 0.22843 0.65369 0.64123 0.0
H373 H 0.34937 0.74314 0.64877 0.0
H374 H 0.39993 0.79513 0.66801 0.0
H375 H 0.38355 0.73892 0.73853 0.0
H376 H 0.3325 0.68674 0.71985 0.0
H377 H 0.25646 0.51161 0.62711 0.0
H378 H 0.26646 0.57131 0.62373 0.0
H379 H 0.28396 0.58516 0.70518 0.0
H380 H 0.27544 0.52548 0.70847 0.0
H381 H 0.32601 0.64516 0.68133 0.0
H382 H 0.20303 0.56077 0.6785 0.0
H383 H 0.14929 0.50834 0.66305 0.0
H384 H 0.16522 0.5544 0.58832 0.0
H385 H 0.21936 0.60694 0.60325 0.0
C386 C 0.25805 0.74798 0.68906 0.0
C387 C 0.26009 0.76855 0.66785 0.0
C388 C 0.26585 0.72106 0.68654 0.0
C389 C 0.27516 0.71375 0.66267 0.0
C390 C 0.2778 0.73452 0.64144 0.0
C391 C 0.27088 0.76227 0.64411 0.0
C392 C 0.27854 0.6821 0.65995 0.0
C393 C 0.2502 0.65196 0.64932 0.0
C394 C 0.30625 0.67977 0.6716 0.0
C395 C 0.33689 0.71111 0.68296 0.0
C396 C 0.35631 0.74197 0.66847 0.0
C397 C 0.38512 0.77146 0.67925 0.0
C398 C 0.3949 0.77036 0.70449 0.0
C399 C 0.37592 0.73974 0.71899 0.0
C400 C 0.34707 0.71019 0.70829 0.0
C401 C 0.2628 0.52749 0.64429 0.0
C402 C 0.26466 0.51381 0.66814 0.0
C403 C 0.26846 0.5616 0.64232 0.0
C404 C 0.27505 0.5824 0.66427 0.0
C405 C 0.2787 0.56947 0.68799 0.0
C406 C 0.27373 0.53541 0.68989 0.0
C407 C 0.27579 0.61654 0.66258 0.0
C408 C 0.30461 0.64698 0.67267 0.0
C409 C 0.24808 0.61908 0.65092 0.0
C410 C 0.21545 0.5876 0.64191 0.0
C411 C 0.19521 0.5596 0.65872 0.0
C412 C 0.16467 0.52988 0.65007 0.0
C413 C 0.15391 0.52799 0.6247 0.0
C414 C 0.17363 0.55587 0.60795 0.0
C415 C 0.20424 0.58564 0.6165 0.0
H416 H 0.13025 0.50496 0.61804 0.0
H417 H 0.41723 0.79321 0.71281 0.0
H418 H 0.78432 0.30785 0.05191 0.0
H419 H 0.7386 0.32386 0.0575 0.0
H420 H 0.71403 0.30606 0.97711 0.0
H421 H 0.75895 0.28958 0.97153 0.0
H422 H 0.70953 0.36461 0.99832 0.0
H423 H 0.67053 0.24029 0.01388 0.0
H424 H 0.67395 0.19242 0.03589 0.0
H425 H 0.65957 0.22967 0.10835 0.0
H426 H 0.65658 0.2781 0.08673 0.0
H427 H 0.52771 0.3023 0.97957 0.0
H428 H 0.58965 0.31845 0.98126 0.0
H429 H 0.58277 0.30724 0.06345 0.0
H430 H 0.52065 0.2892 0.06155 0.0
H431 H 0.60859 0.27183 0.04679 0.0
H432 H 0.6356 0.3894 0.03107 0.0
H433 H 0.63259 0.43789 1.00976 0.0
H434 H 0.67016 0.41679 0.93994 0.0
H435 H 0.67294 0.36783 0.96072 0.0
C436 C 0.76971 0.30823 0.03538 0.0
C437 C 0.77475 0.29707 0.01137 0.0
C438 C 0.7437 0.31738 0.03857 0.0
C439 C 0.72292 0.31597 0.01771 0.0
C440 C 0.72988 0.30746 0.9934 0.0
C441 C 0.75534 0.29777 0.9903 0.0
C442 C 0.69075 0.31811 0.0215 0.0
C443 C 0.68737 0.34451 1.00897 0.0
C444 C 0.66225 0.29223 0.0358 0.0
C445 C 0.6638 0.26302 0.04875 0.0
C446 C 0.6684 0.23842 0.03452 0.0
C447 C 0.67021 0.21118 0.04692 0.0
C448 C 0.6671 0.20808 0.07352 0.0
C449 C 0.66207 0.23216 0.08776 0.0
C450 C 0.66031 0.25951 0.07545 0.0
C451 C 0.53976 0.30404 0.99798 0.0
C452 C 0.51951 0.29422 0.02039 0.0
C453 C 0.57521 0.31348 0.99899 0.0
C454 C 0.59109 0.31421 0.02254 0.0
C455 C 0.57119 0.30664 0.04505 0.0
C456 C 0.53571 0.29638 0.04396 0.0
C457 C 0.62679 0.31843 0.02351 0.0
C458 C 0.6308 0.29281 0.03673 0.0
C459 C 0.65585 0.34531 1.01005 0.0
C460 C 0.65423 0.37475 0.99743 0.0
C461 C 0.64297 0.39491 0.01112 0.0
C462 C 0.64135 0.42252 0.99914 0.0
C463 C 0.65112 0.43037 0.9735 0.0
C464 C 0.66259 0.41067 0.9598 0.0
C465 C 0.66424 0.38301 0.97168 0.0
H466 H 0.64985 0.45176 0.96427 0.0
H467 H 0.66849 0.18696 0.08308 0.0
H468 H 0.12562 0.27109 0.31823 0.0
H469 H 0.14919 0.23306 0.32979 0.0
H470 H 0.25455 0.32068 0.32103 0.0
H471 H 0.23136 0.35842 0.30867 0.0
H472 H 0.25384 0.26256 0.31002 0.0
H473 H 0.20909 0.30309 0.37716 0.0
H474 H 0.1642 0.31077 0.39983 0.0
H475 H 0.10164 0.19889 0.41038 0.0
H476 H 0.14564 0.19048 0.38702 0.0
H477 H 0.3522 0.23089 0.39576 0.0
H478 H 0.31596 0.257 0.38653 0.0
H479 H 0.22521 0.15355 0.37802 0.0
H480 H 0.26131 0.12697 0.38694 0.0
H481 H 0.21455 0.21425 0.3974 0.0
H482 H 0.26745 0.17839 0.32978 0.0
H483 H 0.31775 0.17799 0.30938 0.0
H484 H 0.37177 0.29072 0.30322 0.0
H485 H 0.32216 0.29188 0.32418 0.0
C486 C 0.15379 0.28193 0.31786 0.0
C487 C 0.17664 0.31799 0.31317 0.0
C488 C 0.16721 0.26021 0.32464 0.0
C489 C 0.20358 0.27441 0.32719 0.0
C490 C 0.22636 0.30927 0.31952 0.0
C491 C 0.21301 0.33087 0.31242 0.0
C492 C 0.218 0.25481 0.34072 0.0
C493 C 0.24518 0.252 0.32909 0.0
C494 C 0.20682 0.24118 0.36575 0.0
C495 C 0.18048 0.24615 0.38007 0.0
C496 C 0.18564 0.28013 0.38417 0.0
C497 C 0.16037 0.28461 0.39714 0.0
C498 C 0.13013 0.25535 0.40658 0.0
C499 C 0.12507 0.22153 0.40303 0.0
C500 C 0.15012 0.21689 0.38985 0.0
C501 C 0.32425 0.21355 0.39311 0.0
C502 C 0.3098 0.17686 0.39126 0.0
C503 C 0.30359 0.22859 0.3878 0.0
C504 C 0.26827 0.2071 0.38098 0.0
C505 C 0.25256 0.17045 0.38306 0.0
C506 C 0.27328 0.15534 0.38811 0.0
C507 C 0.25031 0.22238 0.36666 0.0
C508 C 0.22263 0.22435 0.37816 0.0
C509 C 0.26163 0.23614 0.34179 0.0
C510 C 0.29128 0.23526 0.32893 0.0
C511 C 0.29029 0.20314 0.32449 0.0
C512 C 0.31866 0.20277 0.31276 0.0
C513 C 0.34801 0.23434 0.30516 0.0
C514 C 0.34905 0.26631 0.30921 0.0
C515 C 0.32083 0.26683 0.32101 0.0
H516 H 0.36993 0.23413 0.29603 0.0
H517 H 0.11063 0.25888 0.41667 0.0
H518 H 0.84798 0.1112 0.66239 0.0
H519 H 0.91096 0.13859 0.66976 0.0
H520 H 0.92988 0.2203 0.61565 0.0
H521 H 0.86679 0.1935 0.60841 0.0
H522 H 0.9844 0.19963 0.61893 0.0
H523 H 0.91396 0.23373 0.67138 0.0
H524 H 0.86439 0.2199 0.7003 0.0
H525 H 0.90399 0.17503 0.75453 0.0
H526 H 0.95337 0.18781 0.7256 0.0
H527 H 0.12749 0.35979 0.65827 0.0
H528 H 0.06632 0.31559 0.64985 0.0
H529 H 0.07077 0.2487 0.70826 0.0
H530 H 0.13258 0.29234 0.71623 0.0
H531 H 0.00549 0.2537 0.70537 0.0
H532 H 0.08204 0.22984 0.65723 0.0
H533 H 0.13105 0.24134 0.62861 0.0
H534 H 0.07975 0.26113 0.56647 0.0
H535 H 0.03145 0.25207 0.59511 0.0
C536 C 0.86551 0.13422 0.65126 0.0
C537 C 0.85236 0.15076 0.63531 0.0
C538 C 0.90152 0.14983 0.65557 0.0
C539 C 0.92475 0.18179 0.64368 0.0
C540 C 0.91215 0.19571 0.62512 0.0
C541 C 0.87609 0.18037 0.62103 0.0
C542 C 0.96063 0.20379 0.65368 0.0
C543 C 0.98919 0.21163 0.63774 0.0
C544 C 0.96648 0.2184 0.67859 0.0
C545 C 0.93709 0.21126 0.69616 0.0
C546 C 0.91191 0.22058 0.68935 0.0
C547 C 0.88386 0.21296 0.70575 0.0
C548 C 0.88098 0.19648 0.7292 0.0
C549 C 0.9062 0.18768 0.73632 0.0
C550 C 0.9342 0.19507 0.71991 0.0
C551 C 0.11526 0.33607 0.66976 0.0
C552 C 0.13488 0.32934 0.68773 0.0
C553 C 0.08043 0.3108 0.66481 0.0
C554 C 0.06447 0.2788 0.67814 0.0
C555 C 0.0829 0.27323 0.69769 0.0
C556 C 0.11809 0.29817 0.70223 0.0
C557 C 0.0294 0.25044 0.6703 0.0
C558 C 0.00093 0.24141 0.68667 0.0
C559 C 0.02373 0.23452 0.64584 0.0
C560 C 0.05332 0.24101 0.62859 0.0
C561 C 0.08157 0.23761 0.63767 0.0
C562 C 0.10928 0.2437 0.62141 0.0
C563 C 0.10872 0.25237 0.5958 0.0
C564 C 0.08037 0.25484 0.5864 0.0
C565 C 0.0529 0.24946 0.6027 0.0
H566 H 0.13011 0.25691 0.5832 0.0
H567 H 0.85927 0.19064 0.74189 0.0
H568 H 0.84161 0.13857 0.03751 0.0
H569 H 0.80894 0.07443 0.03422 0.0
H570 H 0.71895 0.07801 1.00561 0.0
H571 H 0.7512 0.14218 1.0092 0.0
H572 H 0.69947 0.02257 0.0372 0.0
H573 H 0.77463 0.07248 0.96447 0.0
H574 H 0.83073 0.10987 0.9422 0.0
H575 H 0.87461 0.05182 0.97671 0.0
H576 H 0.81891 0.0144 0.9995 0.0
H577 H 0.61305 0.85259 0.98215 0.0
H578 H 0.64325 0.91661 0.98668 0.0
H579 H 0.73646 0.91688 0.01239 0.0
H580 H 0.7068 0.853 1.00714 0.0
H581 H 0.75353 0.97078 0.98174 0.0
H582 H 0.67722 0.92219 0.05592 0.0
H583 H 0.62059 0.88651 0.0782 0.0
H584 H 0.57776 0.94232 0.03905 0.0
H585 H 0.6341 0.97846 0.01667 0.0
C586 C 0.81466 0.12574 0.03095 0.0
C587 C 0.79917 0.14555 0.02331 0.0
C588 C 0.7961 0.08908 0.02895 0.0
C589 C 0.76185 0.0716 0.01909 0.0
C590 C 0.74547 0.09106 0.01309 0.0
C591 C 0.76397 0.12775 0.01516 0.0
C592 C 0.74389 0.03333 0.01367 0.0
C593 C 0.71109 0.01125 0.02487 0.0
C594 C 0.75926 0.01861 0.99774 0.0
C595 C 0.79271 0.04086 0.98389 0.0
C596 C 0.79633 0.06785 0.96746 0.0
C597 C 0.82804 0.08903 0.95472 0.0
C598 C 0.85624 0.08328 0.95809 0.0
C599 C 0.85275 0.05627 0.97415 0.0
C600 C 0.82111 0.03506 0.98697 0.0
C601 C 0.64015 0.86635 0.9884 0.0
C602 C 0.65751 0.84772 0.99435 0.0
C603 C 0.65727 0.9029 0.99122 0.0
C604 C 0.69183 0.92143 1.00049 0.0
C605 C 0.70972 0.90309 1.00534 0.0
C606 C 0.69277 0.86658 1.00223 0.0
C607 C 0.70922 0.95983 1.00554 0.0
C608 C 0.74192 0.98202 0.99415 0.0
C609 C 0.69363 0.97468 0.02115 0.0
C610 C 0.65973 0.95276 0.03446 0.0
C611 C 0.65563 0.92665 0.05195 0.0
C612 C 0.62364 0.90641 0.06462 0.0
C613 C 0.59557 0.91197 0.05991 0.0
C614 C 0.59949 0.93797 0.04264 0.0
C615 C 0.63147 0.95843 0.03003 0.0
H616 H 0.57084 0.89623 0.06971 0.0
H617 H 0.88077 0.0997 0.94821 0.0
H618 H 0.6868 0.81145 0.39643 0.0
H619 H 0.7281 0.7898 0.39319 0.0
H620 H 0.78361 0.86492 0.33307 0.0
H621 H 0.74371 0.88785 0.33729 0.0
H622 H 0.73072 0.75647 0.35545 0.0
H623 H 0.86376 0.87644 0.32201 0.0
H624 H 0.9011 0.93955 0.33216 0.0
H625 H 0.85536 0.92198 0.40709 0.0
H626 H 0.8181 0.8587 0.39755 0.0
H627 H 0.81262 0.68424 0.28834 0.0
H628 H 0.79554 0.7284 0.29664 0.0
H629 H 0.8666 0.76754 0.36079 0.0
H630 H 0.88484 0.72448 0.35201 0.0
H631 H 0.85943 0.81953 0.34091 0.0
H632 H 0.78344 0.70174 0.3697 0.0
H633 H 0.74771 0.63719 0.36519 0.0
H634 H 0.68115 0.64898 0.31097 0.0
H635 H 0.71687 0.71367 0.31486 0.0
C636 C 0.70858 0.82413 0.38318 0.0
C637 C 0.71192 0.85117 0.36702 0.0
C638 C 0.73208 0.81165 0.38123 0.0
C639 C 0.75893 0.8255 0.36276 0.0
C640 C 0.76362 0.85411 0.34779 0.0
C641 C 0.74063 0.86715 0.35016 0.0
C642 C 0.77849 0.80694 0.35664 0.0
C643 C 0.75892 0.77042 0.35251 0.0
C644 C 0.81536 0.82483 0.35297 0.0
C645 C 0.83791 0.86284 0.35896 0.0
C646 C 0.86178 0.886 0.3407 0.0
C647 C 0.88291 0.92182 0.34634 0.0
C648 C 0.88053 0.93478 0.37023 0.0
C649 C 0.85708 0.91193 0.38856 0.0
C650 C 0.83591 0.87609 0.38303 0.0
C651 C 0.8255 0.70304 0.30365 0.0
C652 C 0.8495 0.7004 0.31985 0.0
C653 C 0.81564 0.72819 0.30844 0.0
C654 C 0.82897 0.75044 0.32985 0.0
C655 C 0.85574 0.75042 0.34432 0.0
C656 C 0.8661 0.72568 0.33926 0.0
C657 C 0.8114 0.76957 0.33932 0.0
C658 C 0.83129 0.80592 0.34403 0.0
C659 C 0.77493 0.75144 0.34449 0.0
C660 C 0.75301 0.71254 0.3424 0.0
C661 C 0.76129 0.69056 0.35672 0.0
C662 C 0.74105 0.65396 0.35427 0.0
C663 C 0.71223 0.639 0.33776 0.0
C664 C 0.70352 0.66062 0.32373 0.0
C665 C 0.72374 0.69725 0.32605 0.0
H666 H 0.69659 0.61065 0.33588 0.0
H667 H 0.8969 0.96252 0.37455 0.0
H668 H 0.1417 0.88279 0.69297 0.0
H669 H 0.07934 0.85631 0.70241 0.0
H670 H 0.0588 0.7626 0.66113 0.0
H671 H 0.12158 0.78836 0.65273 0.0
H672 H 0.0208 0.83304 0.68121 0.0
H673 H -0.00246 0.69057 0.68768 0.0
H674 H 0.03072 0.66076 0.69855 0.0
H675 H 0.10167 0.74931 0.74447 0.0
H676 H 0.06866 0.77948 0.73401 0.0
H677 H 0.84172 0.7065 0.67612 0.0
H678 H 0.90408 0.74858 0.67343 0.0
H679 H 0.92004 0.71357 0.74676 0.0
H680 H 0.85755 0.66939 0.74859 0.0
H681 H 0.96278 0.71228 0.71723 0.0
H682 H 0.93589 0.80181 0.73381 0.0
H683 H 0.90519 0.83561 0.7303 0.0
H684 H 0.93791 0.85999 0.652 0.0
H685 H 0.96842 0.82593 0.65491 0.0
C686 C 0.12385 0.85677 0.68548 0.0
C687 C 0.13657 0.83745 0.67234 0.0
C688 C 0.08814 0.84162 0.69095 0.0
C689 C 0.06444 0.80703 0.68319 0.0
C690 C 0.07674 0.78887 0.66814 0.0
C691 C 0.11257 0.80372 0.6631 0.0
C692 C 0.02736 0.78933 0.69199 0.0
C693 C 0.00806 0.80666 0.68914 0.0
C694 C 0.01109 0.75552 0.7034 0.0
C695 C 0.03089 0.73742 0.70985 0.0
C696 C 0.02017 0.70362 0.70014 0.0
C697 C 0.03896 0.68669 0.7062 0.0
C698 C 0.06838 0.70321 0.7221 0.0
C699 C 0.079 0.73665 0.73204 0.0
C700 C 0.06031 0.7537 0.72602 0.0
C701 C 0.8583 0.70841 0.69205 0.0
C702 C 0.84483 0.68448 0.7125 0.0
C703 C 0.89411 0.73275 0.69056 0.0
C704 C 0.91703 0.73452 0.70992 0.0
C705 C 0.90303 0.71256 0.73144 0.0
C706 C 0.86729 0.68747 0.73258 0.0
C707 C 0.95567 0.7556 0.70597 0.0
C708 C 0.97539 0.73885 0.70964 0.0
C709 C 0.97262 0.79055 0.69646 0.0
C710 C 0.95428 0.8111 0.69455 0.0
C711 C 0.93634 0.81416 0.71579 0.0
C712 C 0.919 0.83341 0.71391 0.0
C713 C 0.91955 0.84989 0.69093 0.0
C714 C 0.9375 0.84721 0.66979 0.0
C715 C 0.95488 0.82798 0.67156 0.0
H716 H 0.9061 0.86478 0.68952 0.0
H717 H 0.08288 0.69006 0.72677 0.0
H718 H 0.29299 0.1358 0.9878 0.0
H719 H 0.26222 0.07193 0.99267 0.0
H720 H 0.35956 0.07664 0.01227 0.0
H721 H 0.39079 0.14076 1.00753 0.0
H722 H 0.31286 0.01783 0.9801 0.0
H723 H 0.31173 0.07559 0.05878 0.0
H724 H 0.30093 0.11648 0.08427 0.0
H725 H 0.19179 0.05891 0.06416 0.0
H726 H 0.20199 0.01801 0.03806 0.0
H727 H 0.23301 0.84755 0.03242 0.0
H728 H 0.27005 0.9115 0.02977 0.0
H729 H 0.17775 0.92153 0.02354 0.0
H730 H 0.14053 0.85778 0.02694 0.0
H731 H 0.22531 0.97385 0.05052 0.0
H732 H 0.22352 0.92231 0.96922 0.0
H733 H 0.22963 0.88204 0.93962 0.0
H734 H 0.33788 0.92661 0.96091 0.0
H735 H 0.3324 0.96741 0.99063 0.0
C736 C 0.30809 0.1233 0.99263 0.0
C737 C 0.34431 0.14347 0.99761 0.0
C738 C 0.2904 0.0868 0.99547 0.0
C739 C 0.30859 0.06982 1.00329 0.0
C740 C 0.34511 0.08942 1.00637 0.0
C741 C 0.36288 0.12604 1.00363 0.0
C742 C 0.28899 0.03212 1.01021 0.0
C743 C 0.29415 0.0082 0.99576 0.0
C744 C 0.26394 0.01966 0.03021 0.0
C745 C 0.25769 0.0439 0.04628 0.0
C746 C 0.28547 0.07177 0.05963 0.0
C747 C 0.27946 0.09495 0.07421 0.0
C748 C 0.24575 0.09035 0.07583 0.0
C749 C 0.21791 0.06248 0.06289 0.0
C750 C 0.22378 0.03928 0.04819 0.0
C751 C 0.22056 0.8634 0.03102 0.0
C752 C 0.18381 0.84754 0.02961 0.0
C753 C 0.24179 0.89994 0.02931 0.0
C754 C 0.22667 0.92119 0.02578 0.0
C755 C 0.18999 0.90562 0.02609 0.0
C756 C 0.16873 0.86912 0.02806 0.0
C757 C 0.24889 0.95931 0.02029 0.0
C758 C 0.24428 0.9834 0.03503 0.0
C759 C 0.27387 0.97186 1.00019 0.0
C760 C 0.27745 0.94759 0.98232 0.0
C761 C 0.24857 0.92337 0.96769 0.0
C762 C 0.25193 0.90047 0.95087 0.0
C763 C 0.28405 0.90153 0.9485 0.0
C764 C 0.31298 0.92574 0.96282 0.0
C765 C 0.3098 0.94885 0.97959 0.0
H766 H 0.28655 0.88368 0.9355 0.0
H767 H 0.24119 0.10836 0.08714 0.0
H768 H 0.97526 0.27648 0.07302 0.0
H769 H 0.00138 0.29813 0.11495 0.0
H770 H 0.94389 0.35346 0.12229 0.0
H771 H 0.91667 0.33084 0.08049 0.0
H772 H 0.04176 0.35776 0.13654 0.0
H773 H 0.92188 0.35389 0.18486 0.0
H774 H 0.85738 0.32299 0.18053 0.0
H775 H 0.85836 0.23482 0.14569 0.0
H776 H 0.92277 0.26501 0.15011 0.0
H777 H 0.09798 0.41987 0.26235 0.0
H778 H 0.07128 0.41391 0.22022 0.0
H779 H 0.99214 0.30716 0.23843 0.0
H780 H 0.01776 0.31345 0.28075 0.0
H781 H 0.96311 0.33373 0.21107 0.0
H782 H 0.06977 0.32913 0.20349 0.0
H783 H 0.13316 0.35124 0.20847 0.0
H784 H 0.15671 0.44158 0.1626 0.0
H785 H 0.0934 0.42018 0.15761 0.0
C786 C 0.96837 0.29355 0.08339 0.0
C787 C 0.94363 0.30169 0.07341 0.0
C788 C 0.98344 0.30601 0.10743 0.0
C789 C 0.9743 0.32705 0.1221 0.0
C790 C 0.9509 0.3367 0.11164 0.0
C791 C 0.93552 0.32393 0.08762 0.0
C792 C 0.98823 0.33738 0.14868 0.0
C793 C 0.02453 0.35276 0.15278 0.0
C794 C 0.96589 0.33042 0.17008 0.0
C795 C 0.92715 0.31192 0.16752 0.0
C796 C 0.9083 0.32788 0.17633 0.0
C797 C 0.87176 0.31049 0.17386 0.0
C798 C 0.8538 0.27702 0.16275 0.0
C799 C 0.87231 0.2608 0.15419 0.0
C800 C 0.90883 0.27806 0.15665 0.0
C801 C 0.07448 0.39538 0.25756 0.0
C802 C 0.06017 0.36707 0.27491 0.0
C803 C 0.05936 0.39189 0.23335 0.0
C804 C 0.03009 0.35977 0.22579 0.0
C805 C 0.01472 0.33219 0.24364 0.0
C806 C 0.02949 0.33583 0.26792 0.0
C807 C 0.01661 0.35385 0.19895 0.0
C808 C 0.98041 0.33931 0.19478 0.0
C809 C 0.03889 0.36045 0.17755 0.0
C810 C 0.07691 0.37327 0.18042 0.0
C811 C 0.08849 0.35382 0.19461 0.0
C812 C 0.12439 0.36621 0.19741 0.0
C813 C 0.14895 0.39785 0.18592 0.0
C814 C 0.13765 0.41712 0.17153 0.0
C815 C 0.10177 0.40487 0.1687 0.0
H816 H 0.17673 0.4074 0.18812 0.0
H817 H 0.82552 0.26362 0.16084 0.0
H818 H 0.66122 0.00625 0.62082 0.0
H819 H 0.63859 0.97792 0.5794 0.0
H820 H 0.683 0.07999 0.54357 0.0
H821 H 0.70419 0.10834 0.58507 0.0
H822 H 0.62579 0.03772 0.51971 0.0
H823 H 0.72655 0.03066 0.54572 0.0
H824 H 0.76183 0.01578 0.57419 0.0
H825 H 0.68314 0.90625 0.57013 0.0
H826 H 0.64716 0.92056 0.54188 0.0
H827 H 0.66432 0.99304 0.39579 0.0
H828 H 0.66489 0.01681 0.43833 0.0
H829 H 0.60059 0.91137 0.4673 0.0
H830 H 0.59948 0.88741 0.42481 0.0
H831 H 0.66297 0.95217 0.4949 0.0
H832 H 0.56587 0.96204 0.46357 0.0
H833 H 0.53505 0.98023 0.43331 0.0
H834 H 0.61287 0.08881 0.44506 0.0
H835 H 0.64446 0.07124 0.47512 0.0
C836 C 0.66545 0.02264 0.60422 0.0
C837 C 0.68477 0.05956 0.60624 0.0
C838 C 0.65275 0.00642 0.58046 0.0
C839 C 0.65994 0.02675 0.55811 0.0
C840 C 0.67723 0.06361 0.56041 0.0
C841 C 0.68936 0.07984 0.58422 0.0
C842 C 0.65185 0.00991 0.53225 0.0
C843 C 0.63415 0.0192 0.51428 0.0
C844 C 0.66239 0.98542 0.52502 0.0
C845 C 0.68399 0.97673 0.54194 0.0
C846 C 0.71666 0.00344 0.55105 0.0
C847 C 0.7368 0.9951 0.56712 0.0
C848 C 0.72469 0.96011 0.57403 0.0
C849 C 0.69245 0.93336 0.56481 0.0
C850 C 0.67218 0.94156 0.54876 0.0
C851 C 0.64968 0.97493 0.41108 0.0
C852 C 0.63191 0.93831 0.40688 0.0
C853 C 0.64999 0.98857 0.43539 0.0
C854 C 0.63279 0.96586 0.45602 0.0
C855 C 0.61402 0.92937 0.45167 0.0
C856 C 0.6133 0.91574 0.42731 0.0
C857 C 0.63698 0.97999 0.48247 0.0
C858 C 0.65421 0.97034 0.50049 0.0
C859 C 0.62667 0.00464 0.48949 0.0
C860 C 0.6077 0.01529 0.47143 0.0
C861 C 0.57659 0.98978 0.45953 0.0
C862 C 0.55895 -1e-05 0.44245 0.0
C863 C 0.57204 0.03565 0.43722 0.0
C864 C 0.60278 0.06119 0.44911 0.0
C865 C 0.62054 0.05112 0.4662 0.0
H866 H 0.55834 0.0435 0.42399 0.0
H867 H 0.74032 0.95371 0.58647 0.0
H868 H 0.66686 0.67262 0.95724 0.0
H869 H 0.67202 0.6479 0.91666 0.0
H870 H 0.59783 0.67252 0.88227 0.0
H871 H 0.59102 0.69526 0.92336 0.0
H872 H 0.58747 0.61542 0.86218 0.0
H873 H 0.69164 0.72629 0.87556 0.0
H874 H 0.74416 0.77115 0.89841 0.0
H875 H 0.78656 0.70184 0.89895 0.0
H876 H 0.73406 0.65637 0.87638 0.0
H877 H 0.65726 0.63063 0.73345 0.0
H878 H 0.63781 0.64026 0.77515 0.0
H879 H 0.68569 0.58728 0.81234 0.0
H880 H 0.7046 0.57694 0.77086 0.0
H881 H 0.70823 0.65765 0.83022 0.0
H882 H 0.60171 0.54809 0.81305 0.0
H883 H 0.54972 0.50775 0.7876 0.0
H884 H 0.51286 0.58159 0.79069 0.0
H885 H 0.56492 0.62261 0.81586 0.0
C886 C 0.65131 0.67233 0.9411 0.0
C887 C 0.62871 0.68609 0.94345 0.0
C888 C 0.65449 0.65845 0.91779 0.0
C889 C 0.63616 0.65923 0.89599 0.0
C890 C 0.61247 0.6717 0.89863 0.0
C891 C 0.60859 0.68475 0.92216 0.0
C892 C 0.64266 0.64828 0.87038 0.0
C893 C 0.61392 0.62503 0.85514 0.0
C894 C 0.67712 0.6605 0.86097 0.0
C895 C 0.70876 0.6878 0.87451 0.0
C896 C 0.71206 0.72053 0.88071 0.0
C897 C 0.74183 0.74608 0.89359 0.0
C898 C 0.76863 0.73932 0.90019 0.0
C899 C 0.76575 0.70702 0.89386 0.0
C900 C 0.73601 0.68136 0.88101 0.0
C901 C 0.66292 0.62028 0.75045 0.0
C902 C 0.68254 0.60305 0.74878 0.0
C903 C 0.6518 0.62583 0.77427 0.0
C904 C 0.66042 0.61459 0.79686 0.0
C905 C 0.67877 0.59618 0.79515 0.0
C906 C 0.68941 0.59015 0.77137 0.0
C907 C 0.65315 0.62471 0.82233 0.0
C908 C 0.68183 0.648 0.83742 0.0
C909 C 0.61873 0.61324 0.83121 0.0
C910 C 0.58741 0.58858 0.81612 0.0
C911 C 0.5827 0.55588 0.80809 0.0
C912 C 0.55317 0.53285 0.79377 0.0
C913 C 0.52805 0.54214 0.78747 0.0
C914 C 0.53236 0.57444 0.79555 0.0
C915 C 0.56186 0.59758 0.80987 0.0
H916 H 0.5052 0.52427 0.77639 0.0
H917 H 0.79167 0.75913 0.91016 0.0
H918 H 0.99326 0.68198 0.06403 0.0
H919 H 0.9656 0.658 0.10535 0.0
H920 H 0.06254 0.66822 0.13318 0.0
H921 H 0.0896 0.69024 0.09129 0.0
H922 H 0.0126 0.61355 0.15405 0.0
H923 H 0.03574 0.73153 0.14551 0.0
H924 H 0.03435 0.78164 0.12545 0.0
H925 H 0.9218 0.72578 0.13004 0.0
H926 H 0.92249 0.67512 0.14984 0.0
H927 H 0.97496 0.63595 0.28712 0.0
H928 H 0.0005 0.64369 0.24418 0.0
H929 H 0.89736 0.59896 0.21093 0.0
H930 H 0.87156 0.59034 0.25357 0.0
H931 H 0.95106 0.67029 0.1938 0.0
H932 H 0.93193 0.55265 0.20552 0.0
H933 H 0.93818 0.50681 0.22811 0.0
H934 H 0.0503 0.56881 0.221 0.0
H935 H 0.04475 0.61528 0.19869 0.0
C936 C 0.00848 0.67855 0.07884 0.0
C937 C 0.04366 0.6882 0.07447 0.0
C938 C 0.99275 0.66512 0.10257 0.0
C939 C 0.01221 0.66227 0.12281 0.0
C940 C 0.0469 0.67031 0.11804 0.0
C941 C 0.06239 0.68292 0.09406 0.0
C942 C 0.99695 0.65253 0.14912 0.0
C943 C -0.0005 0.62629 0.16277 0.0
C944 C 0.9797 0.66896 0.16076 0.0
C945 C 0.97916 0.6994 0.14892 0.0
C946 C 0.01068 0.72984 0.14208 0.0
C947 C 0.01002 0.75835 0.13078 0.0
C948 C 0.978 0.75686 0.12641 0.0
C949 C 0.94658 0.72688 0.1334 0.0
C950 C 0.94709 0.69827 0.14468 0.0
C951 C 0.95765 0.627 0.2707 0.0
C952 C 0.92121 0.61257 0.27381 0.0
C953 C 0.97229 0.63146 0.24619 0.0
C954 C 0.95081 0.62199 0.2244 0.0
C955 C 0.91438 0.60642 0.2275 0.0
C956 C 0.89968 0.60139 0.25194 0.0
C957 C 0.96639 0.63118 0.19837 0.0
C958 C 0.96408 0.65755 0.18491 0.0
C959 C 0.98458 0.61554 0.18729 0.0
C960 C 0.98793 0.58762 0.20069 0.0
C961 C 0.95794 0.55668 0.20901 0.0
C962 C 0.96135 0.53054 0.22171 0.0
C963 C 0.99462 0.53494 0.22606 0.0
C964 C 0.02455 0.56546 0.21766 0.0
C965 C 0.02128 0.59169 0.20497 0.0
H966 H -0.00279 0.51467 0.23588 0.0
H967 H 0.97755 0.77896 0.11766 0.0
H968 H 0.29958 0.01648 0.41151 0.0
H969 H 0.29568 0.9917 0.45383 0.0
H970 H 0.40573 0.06513 0.46624 0.0
H971 H 0.40938 0.09124 0.42417 0.0
H972 H 0.31987 0.96001 0.48007 0.0
H973 H 0.42042 0.09068 0.52817 0.0
H974 H 0.44663 0.15475 0.52176 0.0
H975 H 0.3548 0.13729 0.48075 0.0
H976 H 0.32792 0.0732 0.4872 0.0
H977 H 0.31959 0.91617 0.61087 0.0
H978 H 0.34097 0.93979 0.56801 0.0
H979 H 0.30231 0.01212 0.57741 0.0
H980 H 0.28274 0.98999 0.62051 0.0
H981 H 0.35845 0.04421 0.55261 0.0
H982 H 0.25629 0.9289 0.54372 0.0
H983 H 0.22069 0.8646 0.5499 0.0
H984 H 0.2997 0.85091 0.51216 0.0
H985 H 0.33596 0.91521 0.50603 0.0
C986 C 0.32317 0.02705 0.42302 0.0
C987 C 0.35472 0.05616 0.41451 0.0
C988 C 0.3209 0.01275 0.44731 0.0
C989 C 0.35018 0.02696 0.46363 0.0
C990 C 0.38247 0.05424 0.45436 0.0
C991 C 0.38463 0.06898 0.43017 0.0
C992 C 0.34593 0.01481 0.49078 0.0
C993 C 0.3286 0.97848 0.49591 0.0
C994 C 0.35664 0.03868 0.51164 0.0
C995 C 0.37241 0.07717 0.50789 0.0
C996 C 0.40583 0.10056 0.51784 0.0
C997 C 0.42079 0.13686 0.5142 0.0
C998 C 0.40245 0.15007 0.50077 0.0
C999 C 0.36904 0.12702 0.49106 0.0
C1000 C 0.35394 0.09071 0.49469 0.0
C1001 C 0.31616 0.93748 0.6039 0.0
C1002 C 0.29936 0.95112 0.6191 0.0
C1003 C 0.32814 0.9508 0.57928 0.0
C1004 C 0.32266 0.97733 0.56906 0.0
C1005 C 0.30698 0.99172 0.58466 0.0
C1006 C 0.29569 0.97896 0.6094 0.0
C1007 C 0.33181 0.98936 0.54194 0.0
C1008 C 0.35019 0.0257 0.53681 0.0
C1009 C 0.32076 0.96546 0.52107 0.0
C1010 C 0.299 0.92685 0.52469 0.0
C1011 C 0.26616 0.91218 0.5369 0.0
C1012 C 0.24585 0.87574 0.54037 0.0
C1013 C 0.25798 0.85369 0.53151 0.0
C1014 C 0.29038 0.86803 0.51907 0.0
C1015 C 0.31082 0.90445 0.51558 0.0
H1016 H 0.24222 0.82549 0.53421 0.0
H1017 H 0.4141 0.17817 0.49794 0.0
H1018 H 0.40556 0.33201 0.94098 0.0
H1019 H 0.39966 0.35136 0.89804 0.0
H1020 H 0.28842 0.27778 0.89967 0.0
H1021 H 0.29376 0.25903 0.94258 0.0
H1022 H 0.34018 0.27918 0.85432 0.0
H1023 H 0.29583 0.34484 0.90381 0.0
H1024 H 0.30324 0.38848 0.93664 0.0
H1025 H 0.39549 0.46755 0.89817 0.0
H1026 H 0.38886 0.42416 0.86532 0.0
H1027 H 0.25436 0.29335 0.74692 0.0
H1028 H 0.27462 0.28682 0.78863 0.0
H1029 H 0.35406 0.39699 0.78831 0.0
H1030 H 0.33205 0.40409 0.74693 0.0
H1031 H 0.3293 0.38331 0.83266 0.0
H1032 H 0.37208 0.32501 0.78034 0.0
H1033 H 0.37135 0.28455 0.74726 0.0
H1034 H 0.29315 0.19598 0.78956 0.0
H1035 H 0.29304 0.23591 0.82274 0.0
C1036 C 0.37977 0.3204 0.93236 0.0
C1037 C 0.35013 0.29401 0.94526 0.0
C1038 C 0.37647 0.33146 0.90784 0.0
C1039 C 0.34361 0.31595 0.89575 0.0
C1040 C 0.31398 0.29011 0.90873 0.0
C1041 C 0.31712 0.27954 0.93332 0.0
C1042 C 0.34004 0.32486 0.86897 0.0
C1043 C 0.33761 0.30182 0.84947 0.0
C1044 C 0.3383 0.35522 0.86265 0.0
C1045 C 0.34214 0.38117 0.88235 0.0
C1046 C 0.31792 0.37141 0.90254 0.0
C1047 C 0.32191 0.39613 0.9211 0.0
C1048 C 0.34989 0.43073 0.91955 0.0
C1049 C 0.37387 0.44072 0.89939 0.0
C1050 C 0.37001 0.41609 0.88079 0.0
C1051 C 0.27648 0.31615 0.75551 0.0
C1052 C 0.29179 0.3492 0.74345 0.0
C1053 C 0.28827 0.31234 0.77943 0.0
C1054 C 0.31656 0.34117 0.79163 0.0
C1055 C 0.3323 0.37421 0.7794 0.0
C1056 C 0.31986 0.37824 0.75565 0.0
C1057 C 0.32816 0.33687 0.81762 0.0
C1058 C 0.33228 0.36083 0.83712 0.0
C1059 C 0.33239 0.30772 0.82384 0.0
C1060 C 0.33242 0.28352 0.80397 0.0
C1061 C 0.35457 0.29692 0.78252 0.0
C1062 C 0.35432 0.27407 0.76375 0.0
C1063 C 0.33218 0.23773 0.76629 0.0
C1064 C 0.31028 0.22414 0.78762 0.0
C1065 C 0.31041 0.24687 0.80644 0.0
H1066 H 0.33202 0.22008 0.75173 0.0
H1067 H 0.35293 0.44983 0.93393 0.0
H1068 H 0.19128 0.44445 0.41149 0.0
H1069 H 0.20919 0.43793 0.45434 0.0
H1070 H 0.12242 0.33127 0.45766 0.0
H1071 H 0.104 0.33782 0.41462 0.0
H1072 H 0.13865 0.36952 0.50553 0.0
H1073 H 0.19948 0.34436 0.438 0.0
H1074 H 0.23427 0.36065 0.39814 0.0
H1075 H 0.31646 0.45288 0.43463 0.0
H1076 H 0.28182 0.43761 0.47449 0.0
H1077 H 0.20853 0.31821 0.60664 0.0
H1078 H 0.18703 0.31623 0.56313 0.0
H1079 H 0.2746 0.4202 0.54876 0.0
H1080 H 0.29575 0.4225 0.59233 0.0
H1081 H 0.25634 0.38017 0.50583 0.0
H1082 H 0.20306 0.41056 0.57146 0.0
H1083 H 0.1703 0.40687 0.61058 0.0
H1084 H 0.07702 0.32038 0.57874 0.0
H1085 H 0.10976 0.32188 0.54003 0.0
C1086 C 0.17531 0.41995 0.42165 0.0
C1087 C 0.14624 0.39162 0.40968 0.0
C1088 C 0.18575 0.41618 0.44607 0.0
C1089 C 0.16764 0.38385 0.45894 0.0
C1090 C 0.13687 0.3564 0.44798 0.0
C1091 C 0.1262 0.36025 0.42349 0.0
C1092 C 0.18271 0.378 0.48262 0.0
C1093 C 0.16397 0.37095 0.5056 0.0
C1094 C 0.21653 0.38156 0.48277 0.0
C1095 C 0.23797 0.3899 0.45915 0.0
C1096 C 0.22492 0.36814 0.43746 0.0
C1097 C 0.2446 0.37719 0.41489 0.0
C1098 C 0.27755 0.40772 0.41387 0.0
C1099 C 0.29095 0.42922 0.43545 0.0
C1100 C 0.27131 0.42037 0.45804 0.0
C1101 C 0.22416 0.33988 0.59379 0.0
C1102 C 0.25397 0.37046 0.60283 0.0
C1103 C 0.21152 0.33896 0.56904 0.0
C1104 C 0.22879 0.36839 0.55288 0.0
C1105 C 0.26073 0.39727 0.56091 0.0
C1106 C 0.27301 0.39844 0.58575 0.0
C1107 C 0.21198 0.3709 0.52891 0.0
C1108 C 0.23058 0.37774 0.50583 0.0
C1109 C 0.17848 0.3683 0.52891 0.0
C1110 C 0.15922 0.36577 0.55296 0.0
C1111 C 0.17587 0.38998 0.57304 0.0
C1112 C 0.15726 0.38829 0.59518 0.0
C1113 C 0.12168 0.36312 0.59725 0.0
C1114 C 0.10471 0.33948 0.57725 0.0
C1115 C 0.12337 0.34057 0.55528 0.0
H1116 H 0.10712 0.3622 0.61419 0.0
H1117 H 0.29269 0.41471 0.39636 0.0
H1118 H 0.89001 0.21295 0.93704 0.0
H1119 H 0.87294 0.19308 0.89309 0.0
H1120 H 0.86535 0.28563 0.87739 0.0
H1121 H 0.87994 0.30405 0.92198 0.0
H1122 H 0.8093 0.23428 0.8634 0.0
H1123 H 0.92796 0.26419 0.84784 0.0
H1124 H 0.98386 0.26532 0.85491 0.0
H1125 H 0.93141 0.15289 0.84638 0.0
H1126 H 0.87508 0.15102 0.83959 0.0
H1127 H 0.7842 0.21079 0.72984 0.0
H1128 H 0.80806 0.22987 0.77262 0.0
H1129 H 0.78421 0.12434 0.79081 0.0
H1130 H 0.76033 0.10487 0.74745 0.0
H1131 H 0.85466 0.17899 0.80329 0.0
H1132 H 0.73549 0.15324 0.8166 0.0
H1133 H 0.68311 0.15723 0.80575 0.0
H1134 H 0.74222 0.26956 0.81512 0.0
H1135 H 0.79512 0.26632 0.82563 0.0
C1136 C 0.88619 0.22981 0.92389 0.0
C1137 C 0.88662 0.26023 0.93282 0.0
C1138 C 0.87626 0.21834 0.89867 0.0
C1139 C 0.86765 0.2377 0.88166 0.0
C1140 C 0.8714 0.26989 0.89007 0.0
C1141 C 0.88028 0.28077 0.91547 0.0
C1142 C 0.85073 0.22257 0.85644 0.0
C1143 C 0.81975 0.22277 0.85018 0.0
C1144 C 0.86342 0.20644 0.83926 0.0
C1145 C 0.89722 0.20744 0.84348 0.0
C1146 C 0.92828 0.23967 0.8477 0.0
C1147 C 0.96006 0.24045 0.85161 0.0
C1148 C 0.96117 0.20919 0.85117 0.0
C1149 C 0.93051 0.17708 0.84676 0.0
C1150 C 0.89865 0.17615 0.84285 0.0
C1151 C 0.78344 0.1914 0.74303 0.0
C1152 C 0.77017 0.15622 0.73531 0.0
C1153 C 0.79713 0.20241 0.76749 0.0
C1154 C 0.7978 0.17854 0.78493 0.0
C1155 C 0.78388 0.14315 0.7776 0.0
C1156 C 0.76987 0.13197 0.75299 0.0
C1157 C 0.81389 0.19128 0.8105 0.0
C1158 C 0.84449 0.19052 0.81675 0.0
C1159 C 0.8014 0.20767 0.82744 0.0
C1160 C 0.76933 0.20953 0.82177 0.0
C1161 C 0.73737 0.17881 0.81623 0.0
C1162 C 0.70758 0.18094 0.81014 0.0
C1163 C 0.70935 0.21363 0.80972 0.0
C1164 C 0.74087 0.24425 0.81551 0.0
C1165 C 0.77076 0.24227 0.82154 0.0
H1166 H 0.68629 0.21524 0.80492 0.0
H1167 H 0.98581 0.20985 0.8542 0.0
H1168 H 0.55911 0.82333 0.27178 0.0
H1169 H 0.5571 0.79991 0.22893 0.0
H1170 H 0.6701 0.86204 0.22425 0.0
H1171 H 0.67174 0.88733 0.26641 0.0
H1172 H 0.64494 0.85422 0.1784 0.0
H1173 H 0.62447 0.77368 0.24759 0.0
H1174 H 0.59427 0.74074 0.28658 0.0
H1175 H 0.49683 0.68684 0.24553 0.0
H1176 H 0.52638 0.71979 0.20636 0.0
H1177 H 0.65952 0.74858 0.08399 0.0
H1178 H 0.66448 0.77003 0.12794 0.0
H1179 H 0.55205 0.72413 0.13157 0.0
H1180 H 0.54693 0.70251 0.08787 0.0
H1181 H 0.58025 0.72341 0.1785 0.0
H1182 H 0.60244 0.80481 0.10895 0.0
H1183 H 0.63417 0.83653 0.07004 0.0
H1184 H 0.73051 0.88944 0.11245 0.0
H1185 H 0.69962 0.85691 0.15141 0.0
C1186 C 0.58331 0.83311 0.26106 0.0
C1187 C 0.61553 0.85732 0.27218 0.0
C1188 C 0.58226 0.8193 0.23676 0.0
C1189 C 0.61358 0.8281 0.22371 0.0
C1190 C 0.64559 0.85452 0.23396 0.0
C1191 C 0.64652 0.86918 0.25798 0.0
C1192 C 0.61319 0.80759 0.20079 0.0
C1193 C 0.63117 0.82565 0.17858 0.0
C1194 C 0.59514 0.77018 0.20083 0.0
C1195 C 0.5776 0.74935 0.2241 0.0
C1196 C 0.5966 0.75481 0.24689 0.0
C1197 C 0.57959 0.73617 0.26903 0.0
C1198 C 0.54365 0.71173 0.26854 0.0
C1199 C 0.52468 0.70574 0.24587 0.0
C1200 C 0.54155 0.72436 0.22369 0.0
C1201 C 0.63575 0.74165 0.09456 0.0
C1202 C 0.60286 0.72419 0.08239 0.0
C1203 C 0.63865 0.75427 0.1196 0.0
C1204 C 0.6087 0.74949 0.13276 0.0
C1205 C 0.57554 0.72842 0.12171 0.0
C1206 C 0.57264 0.71599 0.09672 0.0
C1207 C 0.61183 0.77005 0.15622 0.0
C1208 C 0.59429 0.75199 0.17848 0.0
C1209 C 0.63051 0.80742 0.15625 0.0
C1210 C 0.64878 0.82806 0.13306 0.0
C1211 C 0.63044 0.82299 0.10996 0.0
C1212 C 0.6483 0.84104 0.08787 0.0
C1213 C 0.68433 0.86496 0.08877 0.0
C1214 C 0.7026 0.87085 0.11177 0.0
C1215 C 0.68496 0.8525 0.13384 0.0
H1216 H 0.69809 0.87896 0.07165 0.0
H1217 H 0.53048 0.69745 0.28572 0.0
H1218 H 0.87997 0.59909 0.42045 0.0
H1219 H 0.86385 0.59348 0.46598 0.0
H1220 H 0.75656 0.55859 0.44524 0.0
H1221 H 0.77211 0.56382 0.40024 0.0
H1222 H 0.78235 0.61272 0.47995 0.0
H1223 H 0.77744 0.50111 0.46899 0.0
H1224 H 0.80112 0.46261 0.45727 0.0
H1225 H 0.88306 0.514 0.51301 0.0
H1226 H 0.86012 0.55314 0.52483 0.0
H1227 H 0.70797 0.57208 0.60529 0.0
H1228 H 0.71937 0.56802 0.55974 0.0
H1229 H 0.822 0.58467 0.57863 0.0
H1230 H 0.81031 0.58715 0.62364 0.0
H1231 H 0.79699 0.53805 0.54414 0.0
H1232 H 0.80625 0.65155 0.55397 0.0
H1233 H 0.78608 0.69302 0.56554 0.0
H1234 H 0.7009 0.64249 0.51215 0.0
H1235 H 0.72034 0.60043 0.50049 0.0
C1236 C 0.85288 0.58968 0.42563 0.0
C1237 C 0.82746 0.58215 0.40664 0.0
C1238 C 0.8437 0.58654 0.45163 0.0
C1239 C 0.80899 0.57579 0.45898 0.0
C1240 C 0.78351 0.56719 0.44004 0.0
C1241 C 0.79254 0.57014 0.41425 0.0
C1242 C 0.79913 0.57493 0.48628 0.0
C1243 C 0.78517 0.59609 0.49396 0.0
C1244 C 0.80355 0.55388 0.50464 0.0
C1245 C 0.81727 0.53028 0.49761 0.0
C1246 C 0.80068 0.5044 0.4786 0.0
C1247 C 0.81393 0.48242 0.47197 0.0
C1248 C 0.84363 0.48592 0.48434 0.0
C1249 C 0.86008 0.51135 0.50342 0.0
C1250 C 0.84695 0.53341 0.51011 0.0
C1251 C 0.73284 0.57468 0.59966 0.0
C1252 C 0.75817 0.57997 0.61815 0.0
C1253 C 0.73945 0.57255 0.57361 0.0
C1254 C 0.77182 0.57649 0.5656 0.0
C1255 C 0.7968 0.58137 0.58416 0.0
C1256 C 0.79003 0.5829 0.61002 0.0
C1257 C 0.78037 0.57611 0.53801 0.0
C1258 C 0.79408 0.5547 0.53021 0.0
C1259 C 0.77625 0.59739 0.51958 0.0
C1260 C 0.76451 0.62261 0.52658 0.0
C1261 C 0.78306 0.64912 0.54484 0.0
C1262 C 0.77179 0.67276 0.55139 0.0
C1263 C 0.74216 0.67032 0.53964 0.0
C1264 C 0.7238 0.6443 0.52127 0.0
C1265 C 0.73494 0.62057 0.51467 0.0
H1266 H 0.73348 0.68864 0.54473 0.0
H1267 H 0.85385 0.46888 0.47919 0.0
H1268 H 0.12342 0.70413 0.92429 0.0
H1269 H 0.14816 0.73333 0.88358 0.0
H1270 H 0.11293 0.80722 0.89875 0.0
H1271 H 0.08745 0.77756 0.93936 0.0
H1272 H 0.11593 0.79532 0.84619 0.0
H1273 H 0.18874 0.82395 0.92049 0.0
H1274 H 0.21452 0.81101 0.95781 0.0
H1275 H 0.26307 0.76968 0.90828 0.0
H1276 H 0.23717 0.78195 0.87065 0.0
H1277 H 0.24014 0.92016 0.76229 0.0
H1278 H 0.2143 0.89979 0.80479 0.0
H1279 H 0.24417 0.82004 0.80274 0.0
H1280 H 0.27043 0.84063 0.7607 0.0
H1281 H 0.24425 0.84071 0.85103 0.0
H1282 H 0.16676 0.80637 0.77743 0.0
H1283 H 0.1414 0.81936 0.73981 0.0
H1284 H 0.10104 0.8701 0.78808 0.0
H1285 H 0.12715 0.85844 0.82589 0.0
C1286 C 0.11927 0.72541 0.91832 0.0
C1287 C 0.10374 0.73873 0.93508 0.0
C1288 C 0.13379 0.74235 0.89517 0.0
C1289 C 0.13343 0.77317 0.88859 0.0
C1290 C 0.11382 0.78369 0.90361 0.0
C1291 C 0.09892 0.76647 0.92673 0.0
C1292 C 0.1577 0.79694 0.86854 0.0
C1293 C 0.14401 0.80563 0.84739 0.0
C1294 C 0.19444 0.81036 0.87012 0.0
C1295 C 0.21079 0.8037 0.89272 0.0
C1296 C 0.2048 0.81198 0.91754 0.0
C1297 C 0.21943 0.80475 0.93877 0.0
C1298 C 0.2404 0.78949 0.93542 0.0
C1299 C 0.24685 0.78153 0.91084 0.0
C1300 C 0.23222 0.78866 0.88955 0.0
C1301 C 0.24278 0.89949 0.77148 0.0
C1302 C 0.25698 0.88173 0.75807 0.0
C1303 C 0.22755 0.88752 0.79563 0.0
C1304 C 0.22629 0.85763 0.80658 0.0
C1305 C 0.24443 0.84286 0.7946 0.0
C1306 C 0.25958 0.85477 0.77056 0.0
C1307 C 0.20245 0.8386 0.82838 0.0
C1308 C 0.21621 0.83074 0.84993 0.0
C1309 C 0.16581 0.82586 0.82712 0.0
C1310 C 0.1493 0.83194 0.80445 0.0
C1311 C 0.1527 0.82053 0.78 0.0
C1312 C 0.13827 0.82772 0.75864 0.0
C1313 C 0.1197 0.84561 0.76157 0.0
C1314 C 0.11551 0.85633 0.78585 0.0
C1315 C 0.13021 0.84954 0.80724 0.0
H1316 H 0.10845 0.85107 0.74507 0.0
H1317 H 0.25165 0.78385 0.95187 0.0
H1318 H 0.40436 0.20397 0.2845 0.0
H1319 H 0.39213 0.21746 0.24204 0.0
H1320 H 0.31073 0.10937 0.23203 0.0
H1321 H 0.32169 0.09562 0.27565 0.0
H1322 H 0.37386 0.15457 0.18991 0.0
H1323 H 0.27314 0.14302 0.23392 0.0
H1324 H 0.23876 0.15133 0.26763 0.0
H1325 H 0.29983 0.26343 0.25786 0.0
H1326 H 0.33503 0.25585 0.22436 0.0
H1327 H 0.30862 0.22419 0.08256 0.0
H1328 H 0.29702 0.19961 0.12598 0.0
H1329 H 0.4076 0.25974 0.143 0.0
H1330 H 0.41934 0.28441 0.09996 0.0
H1331 H 0.31528 0.22538 0.17931 0.0
H1332 H 0.42937 0.19794 0.1629 0.0
H1333 H 0.46059 0.18998 0.12661 0.0
H1334 H 0.36855 0.15256 0.07986 0.0
H1335 H 0.3366 0.15968 0.11606 0.0
C1336 C 0.38376 0.18283 0.27343 0.0
C1337 C 0.36371 0.14871 0.28371 0.0
C1338 C 0.37678 0.19074 0.24913 0.0
C1339 C 0.35012 0.16464 0.23416 0.0
C1340 C 0.33112 0.12999 0.24356 0.0
C1341 C 0.33765 0.12211 0.26832 0.0
C1342 C 0.34363 0.17438 0.20848 0.0
C1343 C 0.36056 0.16954 0.18748 0.0
C1344 C 0.32629 0.19395 0.20539 0.0
C1345 C 0.30687 0.19883 0.22671 0.0
C1346 C 0.27964 0.16947 0.23923 0.0
C1347 C 0.25984 0.17404 0.25818 0.0
C1348 C 0.2669 0.20786 0.26468 0.0
C1349 C 0.29421 0.23723 0.25261 0.0
C1350 C 0.31412 0.23281 0.23367 0.0
C1351 C 0.33023 0.23344 0.09595 0.0
C1352 C 0.36495 0.25603 0.08777 0.0
C1353 C 0.32358 0.21913 0.12069 0.0
C1354 C 0.35157 0.22725 0.13744 0.0
C1355 C 0.3857 0.25274 0.13022 0.0
C1356 C 0.39234 0.267 0.10564 0.0
C1357 C 0.34628 0.20632 0.16101 0.0
C1358 C 0.32776 0.20962 0.1816 0.0
C1359 C 0.36195 0.18509 0.16372 0.0
C1360 C 0.38065 0.17956 0.14215 0.0
C1361 C 0.4157 0.18774 0.14495 0.0
C1362 C 0.43354 0.18342 0.12439 0.0
C1363 C 0.41658 0.17084 0.10094 0.0
C1364 C 0.38167 0.16236 0.09803 0.0
C1365 C 0.3637 0.16653 0.11855 0.0
H1366 H 0.43048 0.16763 0.08502 0.0
H1367 H 0.25127 0.2113 0.27913 0.0
loop_
_geom_bond_atom_site_label_1
_geom_bond_atom_site_label_2
_geom_bond_distance
_geom_bond_site_symmetry_2
_ccdc_geom_bond_type
O0 Cd1 2.223 . S
O0 C8 1.315 . S
Cd1 O0 2.223 . S
Cd1 O4 2.297 . S
Cd1 O5 2.439 . S
Cd1 O11 2.240 . S
Cd2 O3 2.240 . S
Cd2 O10 2.223 . S
Cd2 O12 2.297 . S
Cd2 O13 2.439 . S
O3 Cd2 2.240 . S
O3 C8 1.279 . S
O4 Cd1 2.297 . S
O4 C6 1.247 . S
O5 Cd1 2.439 . S
O5 C6 1.208 . S
C6 O4 1.247 . S
C6 O5 1.208 . S
C7 O12 1.247 . S
C7 O13 1.208 . S
C8 O0 1.315 . S
C8 O3 1.279 . S
C9 O10 1.315 . S
C9 O11 1.279 . S
O10 Cd2 2.223 . S
O10 C9 1.315 . S
O11 Cd1 2.240 . S
O11 C9 1.279 . S
O12 Cd2 2.297 . S
O12 C7 1.247 . S
O13 Cd2 2.439 . S
O13 C7 1.208 . S
O14 Cd15 2.223 . S
O14 C22 1.315 . S
Cd15 O14 2.223 . S
Cd15 O18 2.297 . S
Cd15 O19 2.439 . S
Cd15 O25 2.240 . S
Cd16 O17 2.240 . S
Cd16 O24 2.223 . S
Cd16 O26 2.297 . S
Cd16 O27 2.439 . S
O17 Cd16 2.240 . S
O17 C22 1.279 . S
O18 Cd15 2.297 . S
O18 C20 1.247 . S
O19 Cd15 2.439 . S
O19 C20 1.208 . S
C20 O18 1.247 . S
C20 O19 1.208 . S
C21 O26 1.247 . S
C21 O27 1.208 . S
C22 O14 1.315 . S
C22 O17 1.279 . S
C23 O24 1.315 . S
C23 O25 1.279 . S
O24 Cd16 2.223 . S
O24 C23 1.315 . S
O25 Cd15 2.240 . S
O25 C23 1.279 . S
O26 Cd16 2.297 . S
O26 C21 1.247 . S
O27 Cd16 2.439 . S
O27 C21 1.208 . S
O28 Cd29 2.223 . S
O28 C36 1.315 . S
Cd29 O28 2.223 . S
Cd29 O32 2.297 . S
Cd29 O33 2.439 1_554 S
Cd29 O39 2.240 1_554 S
Cd30 O31 2.240 . S
Cd30 O38 2.223 . S
Cd30 O40 2.297 1_554 S
Cd30 O41 2.439 1_554 S
O31 Cd30 2.240 . S
O31 C36 1.279 . S
O32 Cd29 2.297 . S
O32 C34 1.247 . S
O33 Cd29 2.439 1_556 S
O33 C34 1.208 1_556 S
C34 O32 1.247 . S
C34 O33 1.208 1_554 S
C35 O40 1.247 . S
C35 O41 1.208 . S
C36 O28 1.315 . S
C36 O31 1.279 . S
C37 O38 1.308 1_556 S
C37 O39 1.289 . S
O38 Cd30 2.223 . S
O38 C37 1.308 1_554 S
O39 Cd29 2.240 1_556 S
O39 C37 1.289 . S
O40 Cd30 2.297 1_556 S
O40 C35 1.247 . S
O41 Cd30 2.439 1_556 S
O41 C35 1.208 . S
O42 Cd43 2.223 . S
O42 C50 1.315 . S
Cd43 O42 2.223 . S
Cd43 O46 2.297 . S
Cd43 O47 2.439 . S
Cd43 O53 2.240 . S
Cd44 O45 2.240 . S
Cd44 O52 2.223 . S
Cd44 O54 2.297 . S
Cd44 O55 2.439 . S
O45 Cd44 2.240 . S
O45 C50 1.279 . S
O46 Cd43 2.297 . S
O46 C48 1.247 . S
O47 Cd43 2.439 . S
O47 C48 1.208 . S
C48 O46 1.247 . S
C48 O47 1.208 . S
C49 O54 1.247 . S
C49 O55 1.208 . S
C50 O42 1.315 . S
C50 O45 1.279 . S
C51 O52 1.315 . S
C51 O53 1.279 . S
O52 Cd44 2.223 . S
O52 C51 1.315 . S
O53 Cd43 2.240 . S
O53 C51 1.279 . S
O54 Cd44 2.297 . S
O54 C49 1.247 . S
O55 Cd44 2.439 . S
O55 C49 1.208 . S
O56 Cd57 2.223 . S
O56 C64 1.315 . S
Cd57 O56 2.223 . S
Cd57 O60 2.297 . S
Cd57 O61 2.439 . S
Cd57 O67 2.240 . S
Cd58 O59 2.240 . S
Cd58 O66 2.223 . S
Cd58 O68 2.297 . S
Cd58 O69 2.439 . S
O59 Cd58 2.240 . S
O59 C64 1.279 . S
O60 Cd57 2.297 . S
O60 C62 1.247 . S
O61 Cd57 2.439 . S
O61 C62 1.208 . S
C62 O60 1.247 . S
C62 O61 1.208 . S
C63 O68 1.247 . S
C63 O69 1.208 . S
C64 O56 1.315 . S
C64 O59 1.279 . S
C65 O66 1.315 . S
C65 O67 1.279 . S
O66 Cd58 2.223 . S
O66 C65 1.315 . S
O67 Cd57 2.240 . S
O67 C65 1.279 . S
O68 Cd58 2.297 . S
O68 C63 1.247 . S
O69 Cd58 2.439 . S
O69 C63 1.208 . S
O70 Cd71 2.223 . S
O70 C78 1.315 . S
Cd71 O70 2.223 . S
Cd71 O74 2.297 . S
Cd71 O75 2.439 1_554 S
Cd71 O81 2.240 1_554 S
Cd72 O73 2.240 . S
Cd72 O80 2.223 . S
Cd72 O82 2.297 1_554 S
Cd72 O83 2.439 1_554 S
O73 Cd72 2.240 . S
O73 C78 1.279 . S
O74 Cd71 2.297 . S
O74 C76 1.247 . S
O75 Cd71 2.439 1_556 S
O75 C76 1.208 1_556 S
C76 O74 1.247 . S
C76 O75 1.208 1_554 S
C77 O82 1.247 . S
C77 O83 1.208 . S
C78 O70 1.315 . S
C78 O73 1.279 . S
C79 O80 1.308 1_556 S
C79 O81 1.289 . S
O80 Cd72 2.223 . S
O80 C79 1.308 1_554 S
O81 Cd71 2.240 1_556 S
O81 C79 1.289 . S
O82 Cd72 2.297 1_556 S
O82 C77 1.247 . S
O83 Cd72 2.439 1_556 S
O83 C77 1.208 . S
O84 Cd85 2.223 . S
O84 C92 1.315 . S
Cd85 O84 2.223 . S
Cd85 O88 2.297 . S
Cd85 O89 2.439 . S
Cd85 O95 2.240 . S
Cd86 O87 2.240 . S
Cd86 O94 2.223 . S
Cd86 O96 2.297 . S
Cd86 O97 2.439 . S
O87 Cd86 2.240 . S
O87 C92 1.279 . S
O88 Cd85 2.297 . S
O88 C90 1.247 . S
O89 Cd85 2.439 . S
O89 C90 1.208 . S
C90 O88 1.247 . S
C90 O89 1.208 . S
C91 O96 1.247 . S
C91 O97 1.208 . S
C92 O84 1.315 . S
C92 O87 1.279 . S
C93 O94 1.315 . S
C93 O95 1.279 . S
O94 Cd86 2.223 . S
O94 C93 1.315 . S
O95 Cd85 2.240 . S
O95 C93 1.279 . S
O96 Cd86 2.297 . S
O96 C91 1.247 . S
O97 Cd86 2.439 . S
O97 C91 1.208 . S
O98 Cd99 2.223 . S
O98 C106 1.315 . S
Cd99 O98 2.223 . S
Cd99 O102 2.297 . S
Cd99 O103 2.439 . S
Cd99 O109 2.240 . S
Cd100 O101 2.240 . S
Cd100 O108 2.223 . S
Cd100 O110 2.297 . S
Cd100 O111 2.439 . S
O101 Cd100 2.240 . S
O101 C106 1.279 . S
O102 Cd99 2.297 . S
O102 C104 1.247 . S
O103 Cd99 2.439 . S
O103 C104 1.208 . S
C104 O102 1.247 . S
C104 O103 1.208 . S
C105 O110 1.247 . S
C105 O111 1.208 . S
C106 O98 1.315 . S
C106 O101 1.279 . S
C107 O108 1.315 . S
C107 O109 1.279 . S
O108 Cd100 2.223 . S
O108 C107 1.315 . S
O109 Cd99 2.240 . S
O109 C107 1.279 . S
O110 Cd100 2.297 . S
O110 C105 1.247 . S
O111 Cd100 2.439 . S
O111 C105 1.208 . S
O112 Cd113 2.223 . S
O112 C120 1.315 . S
Cd113 O112 2.223 . S
Cd113 O116 2.297 . S
Cd113 O117 2.439 1_556 S
Cd113 O123 2.240 1_556 S
Cd114 O115 2.240 . S
Cd114 O122 2.223 . S
Cd114 O124 2.297 1_556 S
Cd114 O125 2.439 1_556 S
O115 Cd114 2.240 . S
O115 C120 1.279 . S
O116 Cd113 2.297 . S
O116 C118 1.247 . S
O117 Cd113 2.439 1_554 S
O117 C118 1.208 1_554 S
C118 O116 1.247 . S
C118 O117 1.208 1_556 S
C119 O124 1.247 . S
C119 O125 1.208 . S
C120 O112 1.315 . S
C120 O115 1.279 . S
C121 O122 1.308 1_554 S
C121 O123 1.289 . S
O122 Cd114 2.223 . S
O122 C121 1.308 1_556 S
O123 Cd113 2.240 1_554 S
O123 C121 1.289 . S
O124 Cd114 2.297 1_554 S
O124 C119 1.247 . S
O125 Cd114 2.439 1_554 S
O125 C119 1.208 . S
O126 Cd127 2.223 . S
O126 C134 1.315 . S
Cd127 O126 2.223 . S
Cd127 O130 2.297 . S
Cd127 O131 2.439 . S
Cd127 O137 2.240 . S
Cd128 O129 2.240 . S
Cd128 O136 2.223 . S
Cd128 O138 2.297 . S
Cd128 O139 2.439 . S
O129 Cd128 2.240 . S
O129 C134 1.279 . S
O130 Cd127 2.297 . S
O130 C132 1.247 . S
O131 Cd127 2.439 . S
O131 C132 1.208 . S
C132 O130 1.247 . S
C132 O131 1.208 . S
C133 O138 1.247 . S
C133 O139 1.208 . S
C134 O126 1.315 . S
C134 O129 1.279 . S
C135 O136 1.315 . S
C135 O137 1.279 . S
O136 Cd128 2.223 . S
O136 C135 1.315 . S
O137 Cd127 2.240 . S
O137 C135 1.279 . S
O138 Cd128 2.297 . S
O138 C133 1.247 . S
O139 Cd128 2.439 . S
O139 C133 1.208 . S
O140 Cd141 2.223 . S
O140 C148 1.315 . S
Cd141 O140 2.223 . S
Cd141 O144 2.297 . S
Cd141 O145 2.439 . S
Cd141 O151 2.240 . S
Cd142 O143 2.240 . S
Cd142 O150 2.223 . S
Cd142 O152 2.297 . S
Cd142 O153 2.439 . S
O143 Cd142 2.240 . S
O143 C148 1.279 . S
O144 Cd141 2.297 . S
O144 C146 1.247 . S
O145 Cd141 2.439 . S
O145 C146 1.208 . S
C146 O144 1.247 . S
C146 O145 1.208 . S
C147 O152 1.247 . S
C147 O153 1.208 . S
C148 O140 1.315 . S
C148 O143 1.279 . S
C149 O150 1.315 . S
C149 O151 1.279 . S
O150 Cd142 2.223 . S
O150 C149 1.315 . S
O151 Cd141 2.240 . S
O151 C149 1.279 . S
O152 Cd142 2.297 . S
O152 C147 1.247 . S
O153 Cd142 2.439 . S
O153 C147 1.208 . S
O154 Cd155 2.223 . S
O154 C162 1.315 . S
Cd155 O154 2.223 . S
Cd155 O158 2.297 . S
Cd155 O159 2.439 1_556 S
Cd155 O165 2.240 1_556 S
Cd156 O157 2.240 . S
Cd156 O164 2.223 . S
Cd156 O166 2.297 1_556 S
Cd156 O167 2.439 1_556 S
O157 Cd156 2.240 . S
O157 C162 1.279 . S
O158 Cd155 2.297 . S
O158 C160 1.247 . S
O159 Cd155 2.439 1_554 S
O159 C160 1.208 1_554 S
C160 O158 1.247 . S
C160 O159 1.208 1_556 S
C161 O166 1.247 . S
C161 O167 1.208 . S
C162 O154 1.315 . S
C162 O157 1.279 . S
C163 O164 1.308 1_554 S
C163 O165 1.289 . S
O164 Cd156 2.223 . S
O164 C163 1.308 1_556 S
O165 Cd155 2.240 1_554 S
O165 C163 1.289 . S
O166 Cd156 2.297 1_554 S
O166 C161 1.247 . S
O167 Cd156 2.439 1_554 S
O167 C161 1.208 . S
H168 C186 0.951 . S
H169 C188 0.951 . S
H170 C190 0.950 . S
H171 C191 0.950 . S
H172 C193 0.950 . S
H173 C196 0.950 . S
H174 C197 0.950 . S
H175 C199 0.950 . S
H176 C200 0.950 . S
H177 C201 0.951 . S
H178 C203 0.951 . S
H179 C205 0.950 . S
H180 C206 0.950 . S
H181 C208 0.950 . S
H182 C211 0.950 . S
H183 C212 0.950 . S
H184 C214 0.950 . S
H185 C215 0.950 . S
C186 H168 0.951 . S
C186 C187 1.366 . S
C186 C188 1.388 . S
C187 C186 1.366 . S
C187 C191 1.385 . S
C188 H169 0.951 . S
C188 C186 1.388 . S
C188 C189 1.366 . S
C189 C188 1.366 . S
C189 C190 1.414 . S
C189 C192 1.499 . S
C190 H170 0.950 . S
C190 C189 1.414 . S
C190 C191 1.374 . S
C191 H171 0.950 . S
C191 C187 1.385 . S
C191 C190 1.374 . S
C192 C189 1.499 . S
C192 C193 1.373 . S
C192 C194 1.389 . S
C193 H172 0.950 . S
C193 C192 1.373 . S
C193 C209 1.377 . S
C194 C192 1.389 . S
C194 C195 1.524 . S
C194 C208 1.377 . S
C195 C194 1.524 . S
C195 C196 1.397 . S
C195 C200 1.363 . S
C196 H173 0.950 . S
C196 C195 1.397 . S
C196 C197 1.334 . S
C197 H174 0.950 . S
C197 C196 1.334 . S
C197 C198 1.287 . S
C198 C197 1.287 . S
C198 C199 1.524 . S
C198 H217 0.913 . S
C199 H175 0.950 . S
C199 C198 1.524 . S
C199 C200 1.415 . S
C200 H176 0.950 . S
C200 C195 1.363 . S
C200 C199 1.415 . S
C201 H177 0.951 . S
C201 C202 1.366 . S
C201 C203 1.388 . S
C202 C201 1.366 . S
C202 C206 1.385 . S
C203 H178 0.951 . S
C203 C201 1.388 . S
C203 C204 1.366 . S
C204 C203 1.366 . S
C204 C205 1.414 . S
C204 C207 1.499 . S
C205 H179 0.950 . S
C205 C204 1.414 . S
C205 C206 1.374 . S
C206 H180 0.950 . S
C206 C202 1.385 . S
C206 C205 1.374 . S
C207 C204 1.499 . S
C207 C208 1.373 . S
C207 C209 1.389 . S
C208 H181 0.950 . S
C208 C194 1.377 . S
C208 C207 1.373 . S
C209 C193 1.377 . S
C209 C207 1.389 . S
C209 C210 1.524 . S
C210 C209 1.524 . S
C210 C211 1.397 . S
C210 C215 1.363 . S
C211 H182 0.950 . S
C211 C210 1.397 . S
C211 C212 1.334 . S
C212 H183 0.950 . S
C212 C211 1.334 . S
C212 C213 1.287 . S
C213 C212 1.287 . S
C213 C214 1.524 . S
C213 H216 0.999 . S
C214 H184 0.950 . S
C214 C213 1.524 . S
C214 C215 1.415 . S
C215 H185 0.950 . S
C215 C210 1.363 . S
C215 C214 1.415 . S
H216 C213 0.999 . S
H217 C198 0.913 . S
H218 C236 0.951 . S
H219 C238 0.951 . S
H220 C240 0.950 . S
H221 C241 0.950 . S
H222 C243 0.950 . S
H223 C246 0.950 . S
H224 C247 0.950 . S
H225 C249 0.950 . S
H226 C250 0.950 . S
H227 C251 0.951 . S
H228 C253 0.951 . S
H229 C255 0.950 . S
H230 C256 0.950 . S
H231 C258 0.950 . S
H232 C261 0.950 . S
H233 C262 0.950 . S
H234 C264 0.950 . S
H235 C265 0.950 . S
C236 H218 0.951 . S
C236 C237 1.366 . S
C236 C238 1.388 . S
C237 C236 1.366 . S
C237 C241 1.385 . S
C238 H219 0.951 . S
C238 C236 1.388 . S
C238 C239 1.366 . S
C239 C238 1.366 . S
C239 C240 1.414 . S
C239 C242 1.499 . S
C240 H220 0.950 . S
C240 C239 1.414 . S
C240 C241 1.374 . S
C241 H221 0.950 . S
C241 C237 1.385 . S
C241 C240 1.374 . S
C242 C239 1.499 . S
C242 C243 1.373 . S
C242 C244 1.389 . S
C243 H222 0.950 . S
C243 C242 1.373 . S
C243 C259 1.377 . S
C244 C242 1.389 . S
C244 C245 1.524 . S
C244 C258 1.377 . S
C245 C244 1.524 . S
C245 C246 1.397 . S
C245 C250 1.363 . S
C246 H223 0.950 . S
C246 C245 1.397 . S
C246 C247 1.334 . S
C247 H224 0.950 . S
C247 C246 1.334 . S
C247 C248 1.287 . S
C248 C247 1.287 . S
C248 C249 1.524 . S
C248 H267 0.913 . S
C249 H225 0.950 . S
C249 C248 1.524 . S
C249 C250 1.415 . S
C250 H226 0.950 . S
C250 C245 1.363 . S
C250 C249 1.415 . S
C251 H227 0.951 . S
C251 C252 1.366 . S
C251 C253 1.388 . S
C252 C251 1.366 . S
C252 C256 1.385 . S
C253 H228 0.951 . S
C253 C251 1.388 . S
C253 C254 1.366 . S
C254 C253 1.366 . S
C254 C255 1.414 . S
C254 C257 1.499 . S
C255 H229 0.950 . S
C255 C254 1.414 . S
C255 C256 1.374 . S
C256 H230 0.950 . S
C256 C252 1.385 . S
C256 C255 1.374 . S
C257 C254 1.499 . S
C257 C258 1.373 . S
C257 C259 1.389 . S
C258 H231 0.950 . S
C258 C244 1.377 . S
C258 C257 1.373 . S
C259 C243 1.377 . S
C259 C257 1.389 . S
C259 C260 1.524 . S
C260 C259 1.524 . S
C260 C261 1.397 . S
C260 C265 1.363 . S
C261 H232 0.950 . S
C261 C260 1.397 . S
C261 C262 1.334 . S
C262 H233 0.950 . S
C262 C261 1.334 . S
C262 C263 1.287 . S
C263 C262 1.287 . S
C263 C264 1.524 . S
C263 H266 0.999 . S
C264 H234 0.950 . S
C264 C263 1.524 . S
C264 C265 1.415 . S
C265 H235 0.950 . S
C265 C260 1.363 . S
C265 C264 1.415 . S
H266 C263 0.999 . S
H267 C248 0.913 . S
H268 C286 0.951 . S
H269 C288 0.951 . S
H270 C290 0.950 . S
H271 C291 0.950 . S
H272 C293 0.950 . S
H273 C296 0.950 1_556 S
H274 C297 0.974 . S
H275 C299 0.950 . S
H276 C300 0.950 . S
H277 C301 0.951 . S
H278 C303 0.951 . S
H279 C305 0.950 . S
H280 C306 0.950 . S
H281 C308 0.950 . S
H282 C311 0.950 1_554 S
H283 C312 0.950 . S
H284 C314 0.950 . S
H285 C315 0.950 . S
C286 H268 0.951 . S
C286 C287 1.380 . S
C286 C288 1.388 . S
C287 C286 1.380 . S
C287 C291 1.370 1_554 S
C288 H269 0.951 . S
C288 C286 1.388 . S
C288 C289 1.363 1_554 S
C289 C288 1.363 1_556 S
C289 C290 1.417 . S
C289 C292 1.499 . S
C290 H270 0.950 . S
C290 C289 1.417 . S
C290 C291 1.374 . S
C291 H271 0.950 . S
C291 C287 1.370 1_556 S
C291 C290 1.374 . S
C292 C289 1.499 . S
C292 C293 1.373 . S
C292 C294 1.389 1_556 S
C293 H272 0.950 . S
C293 C292 1.373 . S
C293 C309 1.377 . S
C294 C292 1.389 1_554 S
C294 C295 1.524 . S
C294 C308 1.377 . S
C295 C294 1.524 . S
C295 C296 1.397 . S
C295 C300 1.363 . S
C296 H273 0.950 1_554 S
C296 C295 1.397 . S
C296 C297 1.334 . S
C297 H274 0.974 . S
C297 C296 1.334 . S
C297 C298 1.287 . S
C298 C297 1.287 . S
C298 C299 1.524 . S
C298 H317 0.913 . S
C299 H275 0.950 . S
C299 C298 1.524 . S
C299 C300 1.415 . S
C300 H276 0.950 . S
C300 C295 1.363 . S
C300 C299 1.415 . S
C301 H277 0.951 . S
C301 C302 1.389 . S
C301 C303 1.388 . S
C302 C301 1.389 . S
C302 C306 1.361 1_556 S
C303 H278 0.951 . S
C303 C301 1.388 . S
C303 C304 1.363 . S
C304 C303 1.363 . S
C304 C305 1.417 1_556 S
C304 C307 1.498 1_556 S
C305 H279 0.950 . S
C305 C304 1.417 1_554 S
C305 C306 1.374 . S
C306 H280 0.950 . S
C306 C302 1.361 1_554 S
C306 C305 1.374 . S
C307 C304 1.498 1_554 S
C307 C308 1.391 . S
C307 C309 1.372 1_554 S
C308 H281 0.950 . S
C308 C294 1.377 . S
C308 C307 1.391 . S
C309 C293 1.377 . S
C309 C307 1.372 1_556 S
C309 C310 1.524 . S
C310 C309 1.524 . S
C310 C311 1.397 . S
C310 C315 1.363 . S
C311 H282 0.950 1_556 S
C311 C310 1.397 . S
C311 C312 1.334 . S
C312 H283 0.950 . S
C312 C311 1.334 . S
C312 C313 1.287 . S
C313 C312 1.287 . S
C313 C314 1.524 . S
C313 H316 0.999 . S
C314 H284 0.950 . S
C314 C313 1.524 . S
C314 C315 1.415 . S
C315 H285 0.950 . S
C315 C310 1.363 . S
C315 C314 1.415 . S
H316 C313 0.999 . S
H317 C298 0.913 . S
H318 C336 0.951 . S
H319 C338 0.951 . S
H320 C340 0.950 . S
H321 C341 0.950 . S
H322 C343 0.950 . S
H323 C346 0.950 . S
H324 C347 0.950 . S
H325 C349 0.950 . S
H326 C350 0.950 . S
H327 C351 0.951 . S
H328 C353 0.951 . S
H329 C355 0.950 . S
H330 C356 0.950 . S
H331 C358 0.950 . S
H332 C361 0.950 . S
H333 C362 0.950 . S
H334 C364 0.950 . S
H335 C365 0.950 . S
C336 H318 0.951 . S
C336 C337 1.366 . S
C336 C338 1.388 . S
C337 C336 1.366 . S
C337 C341 1.385 . S
C338 H319 0.951 . S
C338 C336 1.388 . S
C338 C339 1.366 . S
C339 C338 1.366 . S
C339 C340 1.414 . S
C339 C342 1.499 . S
C340 H320 0.950 . S
C340 C339 1.414 . S
C340 C341 1.374 . S
C341 H321 0.950 . S
C341 C337 1.385 . S
C341 C340 1.374 . S
C342 C339 1.499 . S
C342 C343 1.373 . S
C342 C344 1.389 . S
C343 H322 0.950 . S
C343 C342 1.373 . S
C343 C359 1.377 . S
C344 C342 1.389 . S
C344 C345 1.524 . S
C344 C358 1.377 . S
C345 C344 1.524 . S
C345 C346 1.397 . S
C345 C350 1.363 . S
C346 H323 0.950 . S
C346 C345 1.397 . S
C346 C347 1.334 . S
C347 H324 0.950 . S
C347 C346 1.334 . S
C347 C348 1.287 . S
C348 C347 1.287 . S
C348 C349 1.524 . S
C348 H367 0.913 . S
C349 H325 0.950 . S
C349 C348 1.524 . S
C349 C350 1.415 . S
C350 H326 0.950 . S
C350 C345 1.363 . S
C350 C349 1.415 . S
C351 H327 0.951 . S
C351 C352 1.366 . S
C351 C353 1.388 . S
C352 C351 1.366 . S
C352 C356 1.385 . S
C353 H328 0.951 . S
C353 C351 1.388 . S
C353 C354 1.366 . S
C354 C353 1.366 . S
C354 C355 1.414 . S
C354 C357 1.499 . S
C355 H329 0.950 . S
C355 C354 1.414 . S
C355 C356 1.374 . S
C356 H330 0.950 . S
C356 C352 1.385 . S
C356 C355 1.374 . S
C357 C354 1.499 . S
C357 C358 1.373 . S
C357 C359 1.389 . S
C358 H331 0.950 . S
C358 C344 1.377 . S
C358 C357 1.373 . S
C359 C343 1.377 . S
C359 C357 1.389 . S
C359 C360 1.524 . S
C360 C359 1.524 . S
C360 C361 1.397 . S
C360 C365 1.363 . S
C361 H332 0.950 . S
C361 C360 1.397 . S
C361 C362 1.334 . S
C362 H333 0.950 . S
C362 C361 1.334 . S
C362 C363 1.287 . S
C363 C362 1.287 . S
C363 C364 1.524 . S
C363 H366 0.999 . S
C364 H334 0.950 . S
C364 C363 1.524 . S
C364 C365 1.415 . S
C365 H335 0.950 . S
C365 C360 1.363 . S
C365 C364 1.415 . S
H366 C363 0.999 . S
H367 C348 0.913 . S
H368 C386 0.951 . S
H369 C388 0.951 . S
H370 C390 0.950 . S
H371 C391 0.950 . S
H372 C393 0.950 . S
H373 C396 0.950 . S
H374 C397 0.950 . S
H375 C399 0.950 . S
H376 C400 0.950 . S
H377 C401 0.951 . S
H378 C403 0.951 . S
H379 C405 0.950 . S
H380 C406 0.950 . S
H381 C408 0.950 . S
H382 C411 0.950 . S
H383 C412 0.950 . S
H384 C414 0.950 . S
H385 C415 0.950 . S
C386 H368 0.951 . S
C386 C387 1.366 . S
C386 C388 1.388 . S
C387 C386 1.366 . S
C387 C391 1.385 . S
C388 H369 0.951 . S
C388 C386 1.388 . S
C388 C389 1.366 . S
C389 C388 1.366 . S
C389 C390 1.414 . S
C389 C392 1.499 . S
C390 H370 0.950 . S
C390 C389 1.414 . S
C390 C391 1.374 . S
C391 H371 0.950 . S
C391 C387 1.385 . S
C391 C390 1.374 . S
C392 C389 1.499 . S
C392 C393 1.373 . S
C392 C394 1.389 . S
C393 H372 0.950 . S
C393 C392 1.373 . S
C393 C409 1.377 . S
C394 C392 1.389 . S
C394 C395 1.524 . S
C394 C408 1.377 . S
C395 C394 1.524 . S
C395 C396 1.397 . S
C395 C400 1.363 . S
C396 H373 0.950 . S
C396 C395 1.397 . S
C396 C397 1.334 . S
C397 H374 0.950 . S
C397 C396 1.334 . S
C397 C398 1.287 . S
C398 C397 1.287 . S
C398 C399 1.524 . S
C398 H417 0.913 . S
C399 H375 0.950 . S
C399 C398 1.524 . S
C399 C400 1.415 . S
C400 H376 0.950 . S
C400 C395 1.363 . S
C400 C399 1.415 . S
C401 H377 0.951 . S
C401 C402 1.366 . S
C401 C403 1.388 . S
C402 C401 1.366 . S
C402 C406 1.385 . S
C403 H378 0.951 . S
C403 C401 1.388 . S
C403 C404 1.366 . S
C404 C403 1.366 . S
C404 C405 1.414 . S
C404 C407 1.499 . S
C405 H379 0.950 . S
C405 C404 1.414 . S
C405 C406 1.374 . S
C406 H380 0.950 . S
C406 C402 1.385 . S
C406 C405 1.374 . S
C407 C404 1.499 . S
C407 C408 1.373 . S
C407 C409 1.389 . S
C408 H381 0.950 . S
C408 C394 1.377 . S
C408 C407 1.373 . S
C409 C393 1.377 . S
C409 C407 1.389 . S
C409 C410 1.524 . S
C410 C409 1.524 . S
C410 C411 1.397 . S
C410 C415 1.363 . S
C411 H382 0.950 . S
C411 C410 1.397 . S
C411 C412 1.334 . S
C412 H383 0.950 . S
C412 C411 1.334 . S
C412 C413 1.287 . S
C413 C412 1.287 . S
C413 C414 1.524 . S
C413 H416 0.999 . S
C414 H384 0.950 . S
C414 C413 1.524 . S
C414 C415 1.415 . S
C415 H385 0.950 . S
C415 C410 1.363 . S
C415 C414 1.415 . S
H416 C413 0.999 . S
H417 C398 0.913 . S
H418 C436 0.951 . S
H419 C438 0.951 . S
H420 C440 0.950 . S
H421 C441 0.950 . S
H422 C443 0.950 . S
H423 C446 0.950 1_556 S
H424 C447 0.950 . S
H425 C449 0.950 . S
H426 C450 0.950 . S
H427 C451 0.951 . S
H428 C453 0.951 . S
H429 C455 0.950 . S
H430 C456 0.950 . S
H431 C458 0.950 . S
H432 C461 0.950 1_554 S
H433 C462 0.950 . S
H434 C464 0.950 . S
H435 C465 0.950 . S
C436 H418 0.951 . S
C436 C437 1.351 1_554 S
C436 C438 1.388 . S
C437 C436 1.351 1_556 S
C437 C441 1.400 . S
C438 H419 0.951 . S
C438 C436 1.388 . S
C438 C439 1.352 1_554 S
C439 C438 1.352 1_556 S
C439 C440 1.428 . S
C439 C442 1.499 . S
C440 H420 0.950 . S
C440 C439 1.428 . S
C440 C441 1.374 . S
C441 H421 0.950 . S
C441 C437 1.400 . S
C441 C440 1.374 . S
C442 C439 1.499 . S
C442 C443 1.373 . S
C442 C444 1.389 1_556 S
C443 H422 0.950 . S
C443 C442 1.373 . S
C443 C459 1.377 . S
C444 C442 1.389 1_554 S
C444 C445 1.524 . S
C444 C458 1.377 . S
C445 C444 1.524 . S
C445 C446 1.397 . S
C445 C450 1.363 . S
C446 H423 0.950 1_554 S
C446 C445 1.397 . S
C446 C447 1.334 . S
C447 H424 0.950 . S
C447 C446 1.334 . S
C447 C448 1.287 . S
C448 C447 1.287 . S
C448 C449 1.524 . S
C448 H467 0.913 . S
C449 H425 0.950 . S
C449 C448 1.524 . S
C449 C450 1.415 . S
C450 H426 0.950 . S
C450 C445 1.363 . S
C450 C449 1.415 . S
C451 H427 0.951 . S
C451 C452 1.341 1_556 S
C451 C453 1.388 . S
C452 C451 1.341 1_554 S
C452 C456 1.409 . S
C453 H428 0.951 . S
C453 C451 1.388 . S
C453 C454 1.343 1_556 S
C454 C453 1.343 1_554 S
C454 C455 1.437 . S
C454 C457 1.499 . S
C455 H429 0.950 . S
C455 C454 1.437 . S
C455 C456 1.374 . S
C456 H430 0.950 . S
C456 C452 1.409 . S
C456 C455 1.374 . S
C457 C454 1.499 . S
C457 C458 1.373 . S
C457 C459 1.389 1_554 S
C458 H431 0.950 . S
C458 C444 1.377 . S
C458 C457 1.373 . S
C459 C443 1.377 . S
C459 C457 1.389 1_556 S
C459 C460 1.524 . S
C460 C459 1.524 . S
C460 C461 1.397 . S
C460 C465 1.363 . S
C461 H432 0.950 1_556 S
C461 C460 1.397 . S
C461 C462 1.334 . S
C462 H433 0.950 . S
C462 C461 1.334 . S
C462 C463 1.287 . S
C463 C462 1.287 . S
C463 C464 1.524 . S
C463 H466 0.999 . S
C464 H434 0.950 . S
C464 C463 1.524 . S
C464 C465 1.415 . S
C465 H435 0.950 . S
C465 C460 1.363 . S
C465 C464 1.415 . S
H466 C463 0.999 . S
H467 C448 0.913 . S
H468 C486 0.951 . S
H469 C488 0.951 . S
H470 C490 0.950 . S
H471 C491 0.950 . S
H472 C493 0.950 . S
H473 C496 0.950 . S
H474 C497 0.950 . S
H475 C499 0.950 . S
H476 C500 0.950 . S
H477 C501 0.951 . S
H478 C503 0.951 . S
H479 C505 0.950 . S
H480 C506 0.950 . S
H481 C508 0.950 . S
H482 C511 0.950 . S
H483 C512 0.950 . S
H484 C514 0.950 . S
H485 C515 0.950 . S
C486 H468 0.951 . S
C486 C487 1.366 . S
C486 C488 1.388 . S
C487 C486 1.366 . S
C487 C491 1.385 . S
C488 H469 0.951 . S
C488 C486 1.388 . S
C488 C489 1.366 . S
C489 C488 1.366 . S
C489 C490 1.414 . S
C489 C492 1.499 . S
C490 H470 0.950 . S
C490 C489 1.414 . S
C490 C491 1.374 . S
C491 H471 0.950 . S
C491 C487 1.385 . S
C491 C490 1.374 . S
C492 C489 1.499 . S
C492 C493 1.373 . S
C492 C494 1.389 . S
C493 H472 0.950 . S
C493 C492 1.373 . S
C493 C509 1.377 . S
C494 C492 1.389 . S
C494 C495 1.524 . S
C494 C508 1.377 . S
C495 C494 1.524 . S
C495 C496 1.397 . S
C495 C500 1.363 . S
C496 H473 0.950 . S
C496 C495 1.397 . S
C496 C497 1.334 . S
C497 H474 0.950 . S
C497 C496 1.334 . S
C497 C498 1.287 . S
C498 C497 1.287 . S
C498 C499 1.524 . S
C498 H517 0.913 . S
C499 H475 0.950 . S
C499 C498 1.524 . S
C499 C500 1.415 . S
C500 H476 0.950 . S
C500 C495 1.363 . S
C500 C499 1.415 . S
C501 H477 0.951 . S
C501 C502 1.366 . S
C501 C503 1.388 . S
C502 C501 1.366 . S
C502 C506 1.385 . S
C503 H478 0.951 . S
C503 C501 1.388 . S
C503 C504 1.366 . S
C504 C503 1.366 . S
C504 C505 1.414 . S
C504 C507 1.499 . S
C505 H479 0.950 . S
C505 C504 1.414 . S
C505 C506 1.374 . S
C506 H480 0.950 . S
C506 C502 1.385 . S
C506 C505 1.374 . S
C507 C504 1.499 . S
C507 C508 1.373 . S
C507 C509 1.389 . S
C508 H481 0.950 . S
C508 C494 1.377 . S
C508 C507 1.373 . S
C509 C493 1.377 . S
C509 C507 1.389 . S
C509 C510 1.524 . S
C510 C509 1.524 . S
C510 C511 1.397 . S
C510 C515 1.363 . S
C511 H482 0.950 . S
C511 C510 1.397 . S
C511 C512 1.334 . S
C512 H483 0.950 . S
C512 C511 1.334 . S
C512 C513 1.287 . S
C513 C512 1.287 . S
C513 C514 1.524 . S
C513 H516 0.999 . S
C514 H484 0.950 . S
C514 C513 1.524 . S
C514 C515 1.415 . S
C515 H485 0.950 . S
C515 C510 1.363 . S
C515 C514 1.415 . S
H516 C513 0.999 . S
H517 C498 0.913 . S
H518 C536 0.951 . S
H519 C538 0.951 . S
H520 C540 0.950 . S
H521 C541 0.950 . S
H522 C543 0.950 . S
H523 C546 0.950 . S
H524 C547 0.950 . S
H525 C549 0.950 . S
H526 C550 0.950 1_455 S
H527 C551 0.951 . S
H528 C553 0.951 . S
H529 C555 0.950 . S
H530 C556 0.950 . S
H531 C558 0.950 . S
H532 C561 0.950 . S
H533 C562 0.950 . S
H534 C564 0.950 . S
H535 C565 0.950 . S
C536 H518 0.951 . S
C536 C537 1.366 . S
C536 C538 1.388 . S
C537 C536 1.366 . S
C537 C541 1.385 . S
C538 H519 0.951 . S
C538 C536 1.388 . S
C538 C539 1.366 . S
C539 C538 1.366 . S
C539 C540 1.414 . S
C539 C542 1.499 . S
C540 H520 0.950 . S
C540 C539 1.414 . S
C540 C541 1.374 . S
C541 H521 0.950 . S
C541 C537 1.385 . S
C541 C540 1.374 . S
C542 C539 1.499 . S
C542 C543 1.373 . S
C542 C544 1.389 . S
C543 H522 0.950 . S
C543 C542 1.373 . S
C543 C559 1.377 1_655 S
C544 C542 1.389 . S
C544 C545 1.524 . S
C544 C558 1.377 1_655 S
C545 C544 1.524 . S
C545 C546 1.397 . S
C545 C550 1.363 . S
C546 H523 0.950 . S
C546 C545 1.397 . S
C546 C547 1.334 . S
C547 H524 0.950 . S
C547 C546 1.334 . S
C547 C548 1.287 . S
C548 C547 1.287 . S
C548 C549 1.524 . S
C548 H567 0.913 . S
C549 H525 0.950 . S
C549 C548 1.524 . S
C549 C550 1.415 . S
C550 H526 0.950 1_655 S
C550 C545 1.363 . S
C550 C549 1.415 . S
C551 H527 0.951 . S
C551 C552 1.366 . S
C551 C553 1.388 . S
C552 C551 1.366 . S
C552 C556 1.385 . S
C553 H528 0.951 . S
C553 C551 1.388 . S
C553 C554 1.366 . S
C554 C553 1.366 . S
C554 C555 1.414 . S
C554 C557 1.499 . S
C555 H529 0.950 . S
C555 C554 1.414 . S
C555 C556 1.374 . S
C556 H530 0.950 . S
C556 C552 1.385 . S
C556 C555 1.374 . S
C557 C554 1.499 . S
C557 C558 1.373 . S
C557 C559 1.389 . S
C558 H531 0.950 . S
C558 C544 1.377 1_455 S
C558 C557 1.373 . S
C559 C543 1.377 1_455 S
C559 C557 1.389 . S
C559 C560 1.524 . S
C560 C559 1.524 . S
C560 C561 1.397 . S
C560 C565 1.363 . S
C561 H532 0.950 . S
C561 C560 1.397 . S
C561 C562 1.334 . S
C562 H533 0.950 . S
C562 C561 1.334 . S
C562 C563 1.287 . S
C563 C562 1.287 . S
C563 C564 1.524 . S
C563 H566 0.999 . S
C564 H534 0.950 . S
C564 C563 1.524 . S
C564 C565 1.415 . S
C565 H535 0.950 . S
C565 C560 1.363 . S
C565 C564 1.415 . S
H566 C563 0.999 . S
H567 C548 0.913 . S
H568 C586 0.951 . S
H569 C588 0.951 . S
H570 C590 0.950 . S
H571 C591 0.950 . S
H572 C593 0.950 . S
H573 C596 0.950 . S
H574 C597 0.950 . S
H575 C599 0.950 . S
H576 C600 0.950 . S
H577 C601 0.951 . S
H578 C603 0.951 . S
H579 C605 0.950 . S
H580 C606 0.950 . S
H581 C608 0.950 . S
H582 C611 0.950 . S
H583 C612 0.950 . S
H584 C614 0.950 . S
H585 C615 0.950 . S
C586 H568 0.951 . S
C586 C587 1.365 . S
C586 C588 1.388 . S
C587 C586 1.365 . S
C587 C591 1.386 1_554 S
C588 H569 0.951 . S
C588 C586 1.388 . S
C588 C589 1.366 1_554 S
C589 C588 1.366 1_556 S
C589 C590 1.414 . S
C589 C592 1.499 . S
C590 H570 0.950 . S
C590 C589 1.414 . S
C590 C591 1.374 . S
C591 H571 0.950 . S
C591 C587 1.386 1_556 S
C591 C590 1.374 . S
C592 C589 1.499 . S
C592 C593 1.373 1_556 S
C592 C594 1.389 . S
C593 H572 0.950 . S
C593 C592 1.373 1_554 S
C593 C609 1.377 1_545 S
C594 C592 1.389 . S
C594 C595 1.524 . S
C594 C608 1.377 1_545 S
C595 C594 1.524 . S
C595 C596 1.397 . S
C595 C600 1.363 . S
C596 H573 0.950 . S
C596 C595 1.397 . S
C596 C597 1.334 . S
C597 H574 0.950 . S
C597 C596 1.334 . S
C597 C598 1.287 . S
C598 C597 1.287 . S
C598 C599 1.524 . S
C598 H617 0.913 . S
C599 H575 0.950 . S
C599 C598 1.524 . S
C599 C600 1.415 . S
C600 H576 0.950 . S
C600 C595 1.363 . S
C600 C599 1.415 . S
C601 H577 0.951 . S
C601 C602 1.365 1_556 S
C601 C603 1.388 . S
C602 C601 1.365 1_554 S
C602 C606 1.386 . S
C603 H578 0.951 . S
C603 C601 1.388 . S
C603 C604 1.366 1_556 S
C604 C603 1.366 1_554 S
C604 C605 1.414 . S
C604 C607 1.499 . S
C605 H579 0.950 . S
C605 C604 1.414 . S
C605 C606 1.374 . S
C606 H580 0.950 . S
C606 C602 1.386 . S
C606 C605 1.374 . S
C607 C604 1.499 . S
C607 C608 1.373 1_554 S
C607 C609 1.389 . S
C608 H581 0.950 . S
C608 C594 1.377 1_565 S
C608 C607 1.373 1_556 S
C609 C593 1.377 1_565 S
C609 C607 1.389 . S
C609 C610 1.524 . S
C610 C609 1.524 . S
C610 C611 1.397 . S
C610 C615 1.363 . S
C611 H582 0.950 . S
C611 C610 1.397 . S
C611 C612 1.334 . S
C612 H583 0.950 . S
C612 C611 1.334 . S
C612 C613 1.287 . S
C613 C612 1.287 . S
C613 C614 1.524 . S
C613 H616 0.999 . S
C614 H584 0.950 . S
C614 C613 1.524 . S
C614 C615 1.415 . S
C615 H585 0.950 . S
C615 C610 1.363 . S
C615 C614 1.415 . S
H616 C613 0.999 . S
H617 C598 0.913 . S
H618 C636 0.951 . S
H619 C638 0.951 . S
H620 C640 0.950 . S
H621 C641 0.950 . S
H622 C643 0.950 . S
H623 C646 0.950 . S
H624 C647 0.950 . S
H625 C649 0.950 . S
H626 C650 0.950 . S
H627 C651 0.951 . S
H628 C653 0.951 . S
H629 C655 0.950 . S
H630 C656 0.950 . S
H631 C658 0.950 . S
H632 C661 0.950 . S
H633 C662 0.950 . S
H634 C664 0.950 . S
H635 C665 0.950 . S
C636 H618 0.951 . S
C636 C637 1.366 . S
C636 C638 1.388 . S
C637 C636 1.366 . S
C637 C641 1.385 . S
C638 H619 0.951 . S
C638 C636 1.388 . S
C638 C639 1.366 . S
C639 C638 1.366 . S
C639 C640 1.414 . S
C639 C642 1.499 . S
C640 H620 0.950 . S
C640 C639 1.414 . S
C640 C641 1.374 . S
C641 H621 0.950 . S
C641 C637 1.385 . S
C641 C640 1.374 . S
C642 C639 1.499 . S
C642 C643 1.373 . S
C642 C644 1.389 . S
C643 H622 0.950 . S
C643 C642 1.373 . S
C643 C659 1.377 . S
C644 C642 1.389 . S
C644 C645 1.524 . S
C644 C658 1.377 . S
C645 C644 1.524 . S
C645 C646 1.397 . S
C645 C650 1.363 . S
C646 H623 0.950 . S
C646 C645 1.397 . S
C646 C647 1.334 . S
C647 H624 0.950 . S
C647 C646 1.334 . S
C647 C648 1.287 . S
C648 C647 1.287 . S
C648 C649 1.524 . S
C648 H667 0.913 . S
C649 H625 0.950 . S
C649 C648 1.524 . S
C649 C650 1.415 . S
C650 H626 0.950 . S
C650 C645 1.363 . S
C650 C649 1.415 . S
C651 H627 0.951 . S
C651 C652 1.366 . S
C651 C653 1.388 . S
C652 C651 1.366 . S
C652 C656 1.385 . S
C653 H628 0.951 . S
C653 C651 1.388 . S
C653 C654 1.366 . S
C654 C653 1.366 . S
C654 C655 1.414 . S
C654 C657 1.499 . S
C655 H629 0.950 . S
C655 C654 1.414 . S
C655 C656 1.374 . S
C656 H630 0.950 . S
C656 C652 1.385 . S
C656 C655 1.374 . S
C657 C654 1.499 . S
C657 C658 1.373 . S
C657 C659 1.389 . S
C658 H631 0.950 . S
C658 C644 1.377 . S
C658 C657 1.373 . S
C659 C643 1.377 . S
C659 C657 1.389 . S
C659 C660 1.524 . S
C660 C659 1.524 . S
C660 C661 1.397 . S
C660 C665 1.363 . S
C661 H632 0.950 . S
C661 C660 1.397 . S
C661 C662 1.334 . S
C662 H633 0.950 . S
C662 C661 1.334 . S
C662 C663 1.287 . S
C663 C662 1.287 . S
C663 C664 1.524 . S
C663 H666 0.999 . S
C664 H634 0.950 . S
C664 C663 1.524 . S
C664 C665 1.415 . S
C665 H635 0.950 . S
C665 C660 1.363 . S
C665 C664 1.415 . S
H666 C663 0.999 . S
H667 C648 0.913 . S
H668 C686 0.951 . S
H669 C688 0.951 . S
H670 C690 0.950 . S
H671 C691 0.950 . S
H672 C693 0.950 . S
H673 C696 0.950 . S
H674 C697 0.950 . S
H675 C699 0.950 . S
H676 C700 0.920 1_655 S
H677 C701 0.951 . S
H678 C703 0.951 . S
H679 C705 0.950 . S
H680 C706 0.950 . S
H681 C708 0.950 . S
H682 C711 0.950 . S
H683 C712 0.950 . S
H684 C714 0.950 . S
H685 C715 0.950 . S
C686 H668 0.951 . S
C686 C687 1.366 . S
C686 C688 1.388 . S
C687 C686 1.366 . S
C687 C691 1.385 . S
C688 H669 0.951 . S
C688 C686 1.388 . S
C688 C689 1.366 . S
C689 C688 1.366 . S
C689 C690 1.414 . S
C689 C692 1.499 . S
C690 H670 0.950 . S
C690 C689 1.414 . S
C690 C691 1.374 . S
C691 H671 0.950 . S
C691 C687 1.385 . S
C691 C690 1.374 . S
C692 C689 1.499 . S
C692 C693 1.373 . S
C692 C694 1.389 . S
C693 H672 0.950 . S
C693 C692 1.373 . S
C693 C709 1.377 1_455 S
C694 C692 1.389 . S
C694 C695 1.524 . S
C694 C708 1.377 1_455 S
C695 C694 1.524 . S
C695 C696 1.397 . S
C695 C700 1.363 . S
C696 H673 0.950 . S
C696 C695 1.397 . S
C696 C697 1.334 . S
C697 H674 0.950 . S
C697 C696 1.334 . S
C697 C698 1.287 . S
C698 C697 1.287 . S
C698 C699 1.524 . S
C698 H717 0.913 . S
C699 H675 0.950 . S
C699 C698 1.524 . S
C699 C700 1.415 . S
C700 H676 0.920 1_455 S
C700 C695 1.363 . S
C700 C699 1.415 . S
C701 H677 0.951 . S
C701 C702 1.366 . S
C701 C703 1.388 . S
C702 C701 1.366 . S
C702 C706 1.385 . S
C703 H678 0.951 . S
C703 C701 1.388 . S
C703 C704 1.366 . S
C704 C703 1.366 . S
C704 C705 1.414 . S
C704 C707 1.499 . S
C705 H679 0.950 . S
C705 C704 1.414 . S
C705 C706 1.374 . S
C706 H680 0.950 . S
C706 C702 1.385 . S
C706 C705 1.374 . S
C707 C704 1.499 . S
C707 C708 1.373 . S
C707 C709 1.389 . S
C708 H681 0.950 . S
C708 C694 1.377 1_655 S
C708 C707 1.373 . S
C709 C693 1.377 1_655 S
C709 C707 1.389 . S
C709 C710 1.524 . S
C710 C709 1.524 . S
C710 C711 1.397 . S
C710 C715 1.363 . S
C711 H682 0.950 . S
C711 C710 1.397 . S
C711 C712 1.334 . S
C712 H683 0.950 . S
C712 C711 1.334 . S
C712 C713 1.287 . S
C713 C712 1.287 . S
C713 C714 1.524 . S
C713 H716 0.999 . S
C714 H684 0.950 . S
C714 C713 1.524 . S
C714 C715 1.415 . S
C715 H685 0.950 . S
C715 C710 1.363 . S
C715 C714 1.415 . S
H716 C713 0.999 . S
H717 C698 0.913 . S
H718 C736 0.951 . S
H719 C738 0.951 . S
H720 C740 0.950 . S
H721 C741 0.950 . S
H722 C743 0.950 . S
H723 C746 0.950 . S
H724 C747 0.950 . S
H725 C749 0.950 . S
H726 C750 0.950 . S
H727 C751 0.951 . S
H728 C753 0.951 . S
H729 C755 0.950 . S
H730 C756 0.950 . S
H731 C758 0.950 . S
H732 C761 0.950 . S
H733 C762 0.950 . S
H734 C764 0.950 . S
H735 C765 0.950 . S
C736 H718 0.951 . S
C736 C737 1.364 . S
C736 C738 1.388 . S
C737 C736 1.364 . S
C737 C741 1.386 1_556 S
C738 H719 0.951 . S
C738 C736 1.388 . S
C738 C739 1.366 1_556 S
C739 C738 1.366 1_554 S
C739 C740 1.414 . S
C739 C742 1.499 . S
C740 H720 0.950 . S
C740 C739 1.414 . S
C740 C741 1.374 . S
C741 H721 0.950 . S
C741 C737 1.386 1_554 S
C741 C740 1.374 . S
C742 C739 1.499 . S
C742 C743 1.373 1_554 S
C742 C744 1.389 . S
C743 H722 0.950 . S
C743 C742 1.373 1_556 S
C743 C759 1.377 1_545 S
C744 C742 1.389 . S
C744 C745 1.524 . S
C744 C758 1.377 1_545 S
C745 C744 1.524 . S
C745 C746 1.397 . S
C745 C750 1.363 . S
C746 H723 0.950 . S
C746 C745 1.397 . S
C746 C747 1.334 . S
C747 H724 0.950 . S
C747 C746 1.334 . S
C747 C748 1.287 . S
C748 C747 1.287 . S
C748 C749 1.524 . S
C748 H767 0.913 . S
C749 H725 0.950 . S
C749 C748 1.524 . S
C749 C750 1.415 . S
C750 H726 0.950 . S
C750 C745 1.363 . S
C750 C749 1.415 . S
C751 H727 0.951 . S
C751 C752 1.364 1_554 S
C751 C753 1.388 . S
C752 C751 1.364 1_556 S
C752 C756 1.386 . S
C753 H728 0.951 . S
C753 C751 1.388 . S
C753 C754 1.366 1_554 S
C754 C753 1.366 1_556 S
C754 C755 1.414 . S
C754 C757 1.499 . S
C755 H729 0.950 . S
C755 C754 1.414 . S
C755 C756 1.374 . S
C756 H730 0.950 . S
C756 C752 1.386 . S
C756 C755 1.374 . S
C757 C754 1.499 . S
C757 C758 1.373 1_556 S
C757 C759 1.389 . S
C758 H731 0.950 . S
C758 C744 1.377 1_565 S
C758 C757 1.373 1_554 S
C759 C743 1.377 1_565 S
C759 C757 1.389 . S
C759 C760 1.524 . S
C760 C759 1.524 . S
C760 C761 1.397 . S
C760 C765 1.363 . S
C761 H732 0.950 . S
C761 C760 1.397 . S
C761 C762 1.334 . S
C762 H733 0.950 . S
C762 C761 1.334 . S
C762 C763 1.287 . S
C763 C762 1.287 . S
C763 C764 1.524 . S
C763 H766 0.999 . S
C764 H734 0.950 . S
C764 C763 1.524 . S
C764 C765 1.415 . S
C765 H735 0.950 . S
C765 C760 1.363 . S
C765 C764 1.415 . S
H766 C763 0.999 . S
H767 C748 0.913 . S
H768 C786 0.951 . S
H769 C788 0.951 . S
H770 C790 0.950 . S
H771 C791 0.950 . S
H772 C793 0.950 . S
H773 C796 0.950 . S
H774 C797 0.950 . S
H775 C799 0.950 . S
H776 C800 0.950 . S
H777 C801 0.951 . S
H778 C803 0.951 . S
H779 C805 0.950 . S
H780 C806 0.950 . S
H781 C808 0.950 . S
H782 C811 0.950 . S
H783 C812 0.950 . S
H784 C814 0.950 . S
H785 C815 0.950 . S
C786 H768 0.951 . S
C786 C787 1.366 . S
C786 C788 1.388 . S
C787 C786 1.366 . S
C787 C791 1.385 . S
C788 H769 0.951 . S
C788 C786 1.388 . S
C788 C789 1.366 . S
C789 C788 1.366 . S
C789 C790 1.414 . S
C789 C792 1.499 . S
C790 H770 0.950 . S
C790 C789 1.414 . S
C790 C791 1.374 . S
C791 H771 0.950 . S
C791 C787 1.385 . S
C791 C790 1.374 . S
C792 C789 1.499 . S
C792 C793 1.373 1_655 S
C792 C794 1.389 . S
C793 H772 0.950 . S
C793 C792 1.373 1_455 S
C793 C809 1.377 . S
C794 C792 1.389 . S
C794 C795 1.524 . S
C794 C808 1.377 . S
C795 C794 1.524 . S
C795 C796 1.397 . S
C795 C800 1.363 . S
C796 H773 0.950 . S
C796 C795 1.397 . S
C796 C797 1.334 . S
C797 H774 0.950 . S
C797 C796 1.334 . S
C797 C798 1.287 . S
C798 C797 1.287 . S
C798 C799 1.524 . S
C798 H817 0.913 . S
C799 H775 0.950 . S
C799 C798 1.524 . S
C799 C800 1.415 . S
C800 H776 0.950 . S
C800 C795 1.363 . S
C800 C799 1.415 . S
C801 H777 0.951 . S
C801 C802 1.366 . S
C801 C803 1.388 . S
C802 C801 1.366 . S
C802 C806 1.385 . S
C803 H778 0.951 . S
C803 C801 1.388 . S
C803 C804 1.366 . S
C804 C803 1.366 . S
C804 C805 1.414 . S
C804 C807 1.499 . S
C805 H779 0.950 . S
C805 C804 1.414 . S
C805 C806 1.374 . S
C806 H780 0.950 . S
C806 C802 1.385 . S
C806 C805 1.374 . S
C807 C804 1.499 . S
C807 C808 1.373 1_455 S
C807 C809 1.389 . S
C808 H781 0.950 . S
C808 C794 1.377 . S
C808 C807 1.373 1_655 S
C809 C793 1.377 . S
C809 C807 1.389 . S
C809 C810 1.524 . S
C810 C809 1.524 . S
C810 C811 1.397 . S
C810 C815 1.363 . S
C811 H782 0.950 . S
C811 C810 1.397 . S
C811 C812 1.334 . S
C812 H783 0.950 . S
C812 C811 1.334 . S
C812 C813 1.287 . S
C813 C812 1.287 . S
C813 C814 1.524 . S
C813 H816 0.999 . S
C814 H784 0.950 . S
C814 C813 1.524 . S
C814 C815 1.415 . S
C815 H785 0.950 . S
C815 C810 1.363 . S
C815 C814 1.415 . S
H816 C813 0.999 . S
H817 C798 0.913 . S
H818 C836 0.951 . S
H819 C838 0.951 1_565 S
H820 C840 0.950 . S
H821 C841 0.950 . S
H822 C843 0.950 . S
H823 C846 0.950 . S
H824 C847 0.950 1_545 S
H825 C849 0.950 . S
H826 C850 0.950 . S
H827 C851 0.951 . S
H828 C853 0.951 1_545 S
H829 C855 0.950 . S
H830 C856 0.950 . S
H831 C858 0.950 . S
H832 C861 0.950 . S
H833 C862 0.950 1_565 S
H834 C864 0.950 . S
H835 C865 0.950 . S
C836 H818 0.951 . S
C836 C837 1.366 . S
C836 C838 1.388 . S
C837 C836 1.366 . S
C837 C841 1.385 . S
C838 H819 0.951 1_545 S
C838 C836 1.388 . S
C838 C839 1.366 . S
C839 C838 1.366 . S
C839 C840 1.414 . S
C839 C842 1.499 . S
C840 H820 0.950 . S
C840 C839 1.414 . S
C840 C841 1.374 . S
C841 H821 0.950 . S
C841 C837 1.385 . S
C841 C840 1.374 . S
C842 C839 1.499 . S
C842 C843 1.373 . S
C842 C844 1.389 1_545 S
C843 H822 0.950 . S
C843 C842 1.373 . S
C843 C859 1.377 . S
C844 C842 1.389 1_565 S
C844 C845 1.524 . S
C844 C858 1.377 . S
C845 C844 1.524 . S
C845 C846 1.397 1_565 S
C845 C850 1.363 . S
C846 H823 0.950 . S
C846 C845 1.397 1_545 S
C846 C847 1.334 1_545 S
C847 H824 0.950 1_565 S
C847 C846 1.334 1_565 S
C847 C848 1.287 . S
C848 C847 1.287 . S
C848 C849 1.524 . S
C848 H867 0.913 . S
C849 H825 0.950 . S
C849 C848 1.524 . S
C849 C850 1.415 . S
C850 H826 0.950 . S
C850 C845 1.363 . S
C850 C849 1.415 . S
C851 H827 0.951 . S
C851 C852 1.366 . S
C851 C853 1.388 . S
C852 C851 1.366 . S
C852 C856 1.385 . S
C853 H828 0.951 1_565 S
C853 C851 1.388 . S
C853 C854 1.366 . S
C854 C853 1.366 . S
C854 C855 1.414 . S
C854 C857 1.499 . S
C855 H829 0.950 . S
C855 C854 1.414 . S
C855 C856 1.374 . S
C856 H830 0.950 . S
C856 C852 1.385 . S
C856 C855 1.374 . S
C857 C854 1.499 . S
C857 C858 1.373 . S
C857 C859 1.389 1_565 S
C858 H831 0.950 . S
C858 C844 1.377 . S
C858 C857 1.373 . S
C859 C843 1.377 . S
C859 C857 1.389 1_545 S
C859 C860 1.524 . S
C860 C859 1.524 . S
C860 C861 1.397 1_545 S
C860 C865 1.363 . S
C861 H832 0.950 . S
C861 C860 1.397 1_565 S
C861 C862 1.334 1_565 S
C862 H833 0.950 1_545 S
C862 C861 1.334 1_545 S
C862 C863 1.287 . S
C863 C862 1.287 . S
C863 C864 1.524 . S
C863 H866 0.999 . S
C864 H834 0.950 . S
C864 C863 1.524 . S
C864 C865 1.415 . S
C865 H835 0.950 . S
C865 C860 1.363 . S
C865 C864 1.415 . S
H866 C863 0.999 . S
H867 C848 0.913 . S
H868 C886 0.951 . S
H869 C888 0.951 . S
H870 C890 0.950 . S
H871 C891 0.950 . S
H872 C893 0.950 . S
H873 C896 0.950 . S
H874 C897 0.950 . S
H875 C899 0.950 . S
H876 C900 0.950 . S
H877 C901 0.951 . S
H878 C903 0.951 . S
H879 C905 0.950 . S
H880 C906 0.950 . S
H881 C908 0.950 . S
H882 C911 0.950 . S
H883 C912 0.950 . S
H884 C914 0.950 . S
H885 C915 0.950 . S
C886 H868 0.951 . S
C886 C887 1.366 . S
C886 C888 1.388 . S
C887 C886 1.366 . S
C887 C891 1.385 . S
C888 H869 0.951 . S
C888 C886 1.388 . S
C888 C889 1.366 . S
C889 C888 1.366 . S
C889 C890 1.414 . S
C889 C892 1.499 . S
C890 H870 0.950 . S
C890 C889 1.414 . S
C890 C891 1.374 . S
C891 H871 0.950 . S
C891 C887 1.385 . S
C891 C890 1.374 . S
C892 C889 1.499 . S
C892 C893 1.373 . S
C892 C894 1.389 . S
C893 H872 0.950 . S
C893 C892 1.373 . S
C893 C909 1.377 . S
C894 C892 1.389 . S
C894 C895 1.524 . S
C894 C908 1.377 . S
C895 C894 1.524 . S
C895 C896 1.397 . S
C895 C900 1.363 . S
C896 H873 0.950 . S
C896 C895 1.397 . S
C896 C897 1.334 . S
C897 H874 0.950 . S
C897 C896 1.334 . S
C897 C898 1.287 . S
C898 C897 1.287 . S
C898 C899 1.524 . S
C898 H917 0.913 . S
C899 H875 0.950 . S
C899 C898 1.524 . S
C899 C900 1.415 . S
C900 H876 0.950 . S
C900 C895 1.363 . S
C900 C899 1.415 . S
C901 H877 0.951 . S
C901 C902 1.366 . S
C901 C903 1.388 . S
C902 C901 1.366 . S
C902 C906 1.385 . S
C903 H878 0.951 . S
C903 C901 1.388 . S
C903 C904 1.366 . S
C904 C903 1.366 . S
C904 C905 1.414 . S
C904 C907 1.499 . S
C905 H879 0.950 . S
C905 C904 1.414 . S
C905 C906 1.374 . S
C906 H880 0.950 . S
C906 C902 1.385 . S
C906 C905 1.374 . S
C907 C904 1.499 . S
C907 C908 1.373 . S
C907 C909 1.389 . S
C908 H881 0.950 . S
C908 C894 1.377 . S
C908 C907 1.373 . S
C909 C893 1.377 . S
C909 C907 1.389 . S
C909 C910 1.524 . S
C910 C909 1.524 . S
C910 C911 1.397 . S
C910 C915 1.363 . S
C911 H882 0.950 . S
C911 C910 1.397 . S
C911 C912 1.334 . S
C912 H883 0.950 . S
C912 C911 1.334 . S
C912 C913 1.287 . S
C913 C912 1.287 . S
C913 C914 1.524 . S
C913 H916 0.999 . S
C914 H884 0.950 . S
C914 C913 1.524 . S
C914 C915 1.415 . S
C915 H885 0.950 . S
C915 C910 1.363 . S
C915 C914 1.415 . S
H916 C913 0.999 . S
H917 C898 0.913 . S
H918 C936 0.951 . S
H919 C938 0.951 1_655 S
H920 C940 0.950 . S
H921 C941 0.950 . S
H922 C943 0.950 . S
H923 C946 0.950 . S
H924 C947 0.950 . S
H925 C949 0.950 . S
H926 C950 0.950 . S
H927 C951 0.951 . S
H928 C953 0.951 1_455 S
H929 C955 0.950 . S
H930 C956 0.950 . S
H931 C958 0.950 . S
H932 C961 0.950 . S
H933 C962 0.950 . S
H934 C964 0.950 . S
H935 C965 0.950 . S
C936 H918 0.951 . S
C936 C937 1.366 . S
C936 C938 1.388 . S
C937 C936 1.366 . S
C937 C941 1.385 . S
C938 H919 0.951 1_455 S
C938 C936 1.388 . S
C938 C939 1.366 . S
C939 C938 1.366 . S
C939 C940 1.414 . S
C939 C942 1.499 . S
C940 H920 0.950 . S
C940 C939 1.414 . S
C940 C941 1.374 . S
C941 H921 0.950 . S
C941 C937 1.385 . S
C941 C940 1.374 . S
C942 C939 1.499 . S
C942 C943 1.373 . S
C942 C944 1.389 . S
C943 H922 0.950 . S
C943 C942 1.373 . S
C943 C959 1.377 . S
C944 C942 1.389 . S
C944 C945 1.524 . S
C944 C958 1.377 1_455 S
C945 C944 1.524 . S
C945 C946 1.397 . S
C945 C950 1.363 1_455 S
C946 H923 0.950 . S
C946 C945 1.397 . S
C946 C947 1.334 . S
C947 H924 0.950 . S
C947 C946 1.334 . S
C947 C948 1.287 . S
C948 C947 1.287 . S
C948 C949 1.524 1_455 S
C948 H967 0.913 . S
C949 H925 0.950 . S
C949 C948 1.524 1_655 S
C949 C950 1.415 . S
C950 H926 0.950 . S
C950 C945 1.363 1_655 S
C950 C949 1.415 . S
C951 H927 0.951 . S
C951 C952 1.366 . S
C951 C953 1.388 . S
C952 C951 1.366 . S
C952 C956 1.385 . S
C953 H928 0.951 1_655 S
C953 C951 1.388 . S
C953 C954 1.366 . S
C954 C953 1.366 . S
C954 C955 1.414 . S
C954 C957 1.499 . S
C955 H929 0.950 . S
C955 C954 1.414 . S
C955 C956 1.374 . S
C956 H930 0.950 . S
C956 C952 1.385 . S
C956 C955 1.374 . S
C957 C954 1.499 . S
C957 C958 1.373 . S
C957 C959 1.389 1_655 S
C958 H931 0.950 . S
C958 C944 1.377 1_655 S
C958 C957 1.373 . S
C959 C943 1.377 . S
C959 C957 1.389 1_455 S
C959 C960 1.524 . S
C960 C959 1.524 . S
C960 C961 1.397 1_455 S
C960 C965 1.363 . S
C961 H932 0.950 . S
C961 C960 1.397 1_655 S
C961 C962 1.334 . S
C962 H933 0.950 . S
C962 C961 1.334 . S
C962 C963 1.287 . S
C963 C962 1.287 . S
C963 C964 1.524 1_655 S
C963 H966 0.999 . S
C964 H934 0.950 . S
C964 C963 1.524 1_455 S
C964 C965 1.415 . S
C965 H935 0.950 . S
C965 C960 1.363 . S
C965 C964 1.415 . S
H966 C963 0.999 . S
H967 C948 0.913 . S
H968 C986 0.951 . S
H969 C988 0.951 . S
H970 C990 0.950 . S
H971 C991 0.950 . S
H972 C993 0.950 . S
H973 C996 0.950 . S
H974 C997 0.950 . S
H975 C999 0.950 . S
H976 C1000 0.950 . S
H977 C1001 0.951 . S
H978 C1003 0.951 . S
H979 C1005 0.950 . S
H980 C1006 0.950 . S
H981 C1008 0.950 . S
H982 C1011 0.950 . S
H983 C1012 0.950 . S
H984 C1014 0.950 . S
H985 C1015 0.950 . S
C986 H968 0.951 . S
C986 C987 1.366 . S
C986 C988 1.388 . S
C987 C986 1.366 . S
C987 C991 1.385 . S
C988 H969 0.951 . S
C988 C986 1.388 . S
C988 C989 1.366 . S
C989 C988 1.366 . S
C989 C990 1.414 . S
C989 C992 1.499 . S
C990 H970 0.950 . S
C990 C989 1.414 . S
C990 C991 1.374 . S
C991 H971 0.950 . S
C991 C987 1.385 . S
C991 C990 1.374 . S
C992 C989 1.499 . S
C992 C993 1.373 1_545 S
C992 C994 1.389 . S
C993 H972 0.950 . S
C993 C992 1.373 1_565 S
C993 C1009 1.377 . S
C994 C992 1.389 . S
C994 C995 1.524 . S
C994 C1008 1.377 . S
C995 C994 1.524 . S
C995 C996 1.397 . S
C995 C1000 1.363 . S
C996 H973 0.950 . S
C996 C995 1.397 . S
C996 C997 1.334 . S
C997 H974 0.950 . S
C997 C996 1.334 . S
C997 C998 1.287 . S
C998 C997 1.287 . S
C998 C999 1.524 . S
C998 H1017 0.913 . S
C999 H975 0.950 . S
C999 C998 1.524 . S
C999 C1000 1.415 . S
C1000 H976 0.950 . S
C1000 C995 1.363 . S
C1000 C999 1.415 . S
C1001 H977 0.951 . S
C1001 C1002 1.366 . S
C1001 C1003 1.388 . S
C1002 C1001 1.366 . S
C1002 C1006 1.385 . S
C1003 H978 0.951 . S
C1003 C1001 1.388 . S
C1003 C1004 1.366 . S
C1004 C1003 1.366 . S
C1004 C1005 1.414 . S
C1004 C1007 1.499 . S
C1005 H979 0.950 . S
C1005 C1004 1.414 . S
C1005 C1006 1.374 . S
C1006 H980 0.950 . S
C1006 C1002 1.385 . S
C1006 C1005 1.374 . S
C1007 C1004 1.499 . S
C1007 C1008 1.373 1_565 S
C1007 C1009 1.389 . S
C1008 H981 0.950 . S
C1008 C994 1.377 . S
C1008 C1007 1.373 1_545 S
C1009 C993 1.377 . S
C1009 C1007 1.389 . S
C1009 C1010 1.524 . S
C1010 C1009 1.524 . S
C1010 C1011 1.397 . S
C1010 C1015 1.363 . S
C1011 H982 0.950 . S
C1011 C1010 1.397 . S
C1011 C1012 1.334 . S
C1012 H983 0.950 . S
C1012 C1011 1.334 . S
C1012 C1013 1.287 . S
C1013 C1012 1.287 . S
C1013 C1014 1.524 . S
C1013 H1016 0.999 . S
C1014 H984 0.950 . S
C1014 C1013 1.524 . S
C1014 C1015 1.415 . S
C1015 H985 0.950 . S
C1015 C1010 1.363 . S
C1015 C1014 1.415 . S
H1016 C1013 0.999 . S
H1017 C998 0.913 . S
H1018 C1036 0.951 . S
H1019 C1038 0.951 . S
H1020 C1040 0.950 . S
H1021 C1041 0.950 . S
H1022 C1043 0.950 . S
H1023 C1046 0.950 . S
H1024 C1047 0.950 . S
H1025 C1049 0.950 . S
H1026 C1050 0.950 . S
H1027 C1051 0.951 . S
H1028 C1053 0.951 . S
H1029 C1055 0.950 . S
H1030 C1056 0.950 . S
H1031 C1058 0.950 . S
H1032 C1061 0.950 . S
H1033 C1062 0.950 . S
H1034 C1064 0.950 . S
H1035 C1065 0.950 . S
C1036 H1018 0.951 . S
C1036 C1037 1.366 . S
C1036 C1038 1.388 . S
C1037 C1036 1.366 . S
C1037 C1041 1.385 . S
C1038 H1019 0.951 . S
C1038 C1036 1.388 . S
C1038 C1039 1.366 . S
C1039 C1038 1.366 . S
C1039 C1040 1.414 . S
C1039 C1042 1.499 . S
C1040 H1020 0.950 . S
C1040 C1039 1.414 . S
C1040 C1041 1.374 . S
C1041 H1021 0.950 . S
C1041 C1037 1.385 . S
C1041 C1040 1.374 . S
C1042 C1039 1.499 . S
C1042 C1043 1.373 . S
C1042 C1044 1.389 . S
C1043 H1022 0.950 . S
C1043 C1042 1.373 . S
C1043 C1059 1.377 . S
C1044 C1042 1.389 . S
C1044 C1045 1.524 . S
C1044 C1058 1.377 . S
C1045 C1044 1.524 . S
C1045 C1046 1.397 . S
C1045 C1050 1.363 . S
C1046 H1023 0.950 . S
C1046 C1045 1.397 . S
C1046 C1047 1.334 . S
C1047 H1024 0.950 . S
C1047 C1046 1.334 . S
C1047 C1048 1.287 . S
C1048 C1047 1.287 . S
C1048 C1049 1.524 . S
C1048 H1067 0.913 . S
C1049 H1025 0.950 . S
C1049 C1048 1.524 . S
C1049 C1050 1.415 . S
C1050 H1026 0.950 . S
C1050 C1045 1.363 . S
C1050 C1049 1.415 . S
C1051 H1027 0.951 . S
C1051 C1052 1.366 . S
C1051 C1053 1.388 . S
C1052 C1051 1.366 . S
C1052 C1056 1.385 . S
C1053 H1028 0.951 . S
C1053 C1051 1.388 . S
C1053 C1054 1.366 . S
C1054 C1053 1.366 . S
C1054 C1055 1.414 . S
C1054 C1057 1.499 . S
C1055 H1029 0.950 . S
C1055 C1054 1.414 . S
C1055 C1056 1.374 . S
C1056 H1030 0.950 . S
C1056 C1052 1.385 . S
C1056 C1055 1.374 . S
C1057 C1054 1.499 . S
C1057 C1058 1.373 . S
C1057 C1059 1.389 . S
C1058 H1031 0.950 . S
C1058 C1044 1.377 . S
C1058 C1057 1.373 . S
C1059 C1043 1.377 . S
C1059 C1057 1.389 . S
C1059 C1060 1.524 . S
C1060 C1059 1.524 . S
C1060 C1061 1.397 . S
C1060 C1065 1.363 . S
C1061 H1032 0.950 . S
C1061 C1060 1.397 . S
C1061 C1062 1.334 . S
C1062 H1033 0.950 . S
C1062 C1061 1.334 . S
C1062 C1063 1.287 . S
C1063 C1062 1.287 . S
C1063 C1064 1.524 . S
C1063 H1066 0.999 . S
C1064 H1034 0.950 . S
C1064 C1063 1.524 . S
C1064 C1065 1.415 . S
C1065 H1035 0.950 . S
C1065 C1060 1.363 . S
C1065 C1064 1.415 . S
H1066 C1063 0.999 . S
H1067 C1048 0.913 . S
H1068 C1086 0.951 . S
H1069 C1088 0.951 . S
H1070 C1090 0.950 . S
H1071 C1091 0.950 . S
H1072 C1093 0.950 . S
H1073 C1096 0.950 . S
H1074 C1097 0.950 . S
H1075 C1099 0.950 . S
H1076 C1100 0.950 . S
H1077 C1101 0.951 . S
H1078 C1103 0.951 . S
H1079 C1105 0.950 . S
H1080 C1106 0.950 . S
H1081 C1108 0.950 . S
H1082 C1111 0.950 . S
H1083 C1112 0.950 . S
H1084 C1114 0.950 . S
H1085 C1115 0.950 . S
C1086 H1068 0.951 . S
C1086 C1087 1.366 . S
C1086 C1088 1.388 . S
C1087 C1086 1.366 . S
C1087 C1091 1.385 . S
C1088 H1069 0.951 . S
C1088 C1086 1.388 . S
C1088 C1089 1.366 . S
C1089 C1088 1.366 . S
C1089 C1090 1.414 . S
C1089 C1092 1.499 . S
C1090 H1070 0.950 . S
C1090 C1089 1.414 . S
C1090 C1091 1.374 . S
C1091 H1071 0.950 . S
C1091 C1087 1.385 . S
C1091 C1090 1.374 . S
C1092 C1089 1.499 . S
C1092 C1093 1.373 . S
C1092 C1094 1.389 . S
C1093 H1072 0.950 . S
C1093 C1092 1.373 . S
C1093 C1109 1.377 . S
C1094 C1092 1.389 . S
C1094 C1095 1.524 . S
C1094 C1108 1.377 . S
C1095 C1094 1.524 . S
C1095 C1096 1.397 . S
C1095 C1100 1.363 . S
C1096 H1073 0.950 . S
C1096 C1095 1.397 . S
C1096 C1097 1.334 . S
C1097 H1074 0.950 . S
C1097 C1096 1.334 . S
C1097 C1098 1.287 . S
C1098 C1097 1.287 . S
C1098 C1099 1.524 . S
C1098 H1117 0.913 . S
C1099 H1075 0.950 . S
C1099 C1098 1.524 . S
C1099 C1100 1.415 . S
C1100 H1076 0.950 . S
C1100 C1095 1.363 . S
C1100 C1099 1.415 . S
C1101 H1077 0.951 . S
C1101 C1102 1.366 . S
C1101 C1103 1.388 . S
C1102 C1101 1.366 . S
C1102 C1106 1.385 . S
C1103 H1078 0.951 . S
C1103 C1101 1.388 . S
C1103 C1104 1.366 . S
C1104 C1103 1.366 . S
C1104 C1105 1.414 . S
C1104 C1107 1.499 . S
C1105 H1079 0.950 . S
C1105 C1104 1.414 . S
C1105 C1106 1.374 . S
C1106 H1080 0.950 . S
C1106 C1102 1.385 . S
C1106 C1105 1.374 . S
C1107 C1104 1.499 . S
C1107 C1108 1.373 . S
C1107 C1109 1.389 . S
C1108 H1081 0.950 . S
C1108 C1094 1.377 . S
C1108 C1107 1.373 . S
C1109 C1093 1.377 . S
C1109 C1107 1.389 . S
C1109 C1110 1.524 . S
C1110 C1109 1.524 . S
C1110 C1111 1.397 . S
C1110 C1115 1.363 . S
C1111 H1082 0.950 . S
C1111 C1110 1.397 . S
C1111 C1112 1.334 . S
C1112 H1083 0.950 . S
C1112 C1111 1.334 . S
C1112 C1113 1.287 . S
C1113 C1112 1.287 . S
C1113 C1114 1.524 . S
C1113 H1116 0.999 . S
C1114 H1084 0.950 . S
C1114 C1113 1.524 . S
C1114 C1115 1.415 . S
C1115 H1085 0.950 . S
C1115 C1110 1.363 . S
C1115 C1114 1.415 . S
H1116 C1113 0.999 . S
H1117 C1098 0.913 . S
H1118 C1136 0.951 . S
H1119 C1138 0.951 . S
H1120 C1140 0.950 . S
H1121 C1141 0.950 . S
H1122 C1143 0.950 . S
H1123 C1146 0.950 . S
H1124 C1147 0.950 . S
H1125 C1149 0.950 . S
H1126 C1150 0.950 . S
H1127 C1151 0.951 . S
H1128 C1153 0.951 . S
H1129 C1155 0.950 . S
H1130 C1156 0.950 . S
H1131 C1158 0.950 . S
H1132 C1161 0.950 . S
H1133 C1162 0.950 . S
H1134 C1164 0.950 . S
H1135 C1165 0.950 . S
C1136 H1118 0.951 . S
C1136 C1137 1.366 . S
C1136 C1138 1.388 . S
C1137 C1136 1.366 . S
C1137 C1141 1.385 . S
C1138 H1119 0.951 . S
C1138 C1136 1.388 . S
C1138 C1139 1.366 . S
C1139 C1138 1.366 . S
C1139 C1140 1.414 . S
C1139 C1142 1.499 . S
C1140 H1120 0.950 . S
C1140 C1139 1.414 . S
C1140 C1141 1.374 . S
C1141 H1121 0.950 . S
C1141 C1137 1.385 . S
C1141 C1140 1.374 . S
C1142 C1139 1.499 . S
C1142 C1143 1.373 . S
C1142 C1144 1.389 . S
C1143 H1122 0.950 . S
C1143 C1142 1.373 . S
C1143 C1159 1.377 . S
C1144 C1142 1.389 . S
C1144 C1145 1.524 . S
C1144 C1158 1.377 . S
C1145 C1144 1.524 . S
C1145 C1146 1.397 . S
C1145 C1150 1.363 . S
C1146 H1123 0.950 . S
C1146 C1145 1.397 . S
C1146 C1147 1.334 . S
C1147 H1124 0.950 . S
C1147 C1146 1.334 . S
C1147 C1148 1.287 . S
C1148 C1147 1.287 . S
C1148 C1149 1.524 . S
C1148 H1167 0.913 . S
C1149 H1125 0.950 . S
C1149 C1148 1.524 . S
C1149 C1150 1.415 . S
C1150 H1126 0.950 . S
C1150 C1145 1.363 . S
C1150 C1149 1.415 . S
C1151 H1127 0.951 . S
C1151 C1152 1.366 . S
C1151 C1153 1.388 . S
C1152 C1151 1.366 . S
C1152 C1156 1.385 . S
C1153 H1128 0.951 . S
C1153 C1151 1.388 . S
C1153 C1154 1.366 . S
C1154 C1153 1.366 . S
C1154 C1155 1.414 . S
C1154 C1157 1.499 . S
C1155 H1129 0.950 . S
C1155 C1154 1.414 . S
C1155 C1156 1.374 . S
C1156 H1130 0.950 . S
C1156 C1152 1.385 . S
C1156 C1155 1.374 . S
C1157 C1154 1.499 . S
C1157 C1158 1.373 . S
C1157 C1159 1.389 . S
C1158 H1131 0.950 . S
C1158 C1144 1.377 . S
C1158 C1157 1.373 . S
C1159 C1143 1.377 . S
C1159 C1157 1.389 . S
C1159 C1160 1.524 . S
C1160 C1159 1.524 . S
C1160 C1161 1.397 . S
C1160 C1165 1.363 . S
C1161 H1132 0.950 . S
C1161 C1160 1.397 . S
C1161 C1162 1.334 . S
C1162 H1133 0.950 . S
C1162 C1161 1.334 . S
C1162 C1163 1.287 . S
C1163 C1162 1.287 . S
C1163 C1164 1.524 . S
C1163 H1166 0.999 . S
C1164 H1134 0.950 . S
C1164 C1163 1.524 . S
C1164 C1165 1.415 . S
C1165 H1135 0.950 . S
C1165 C1160 1.363 . S
C1165 C1164 1.415 . S
H1166 C1163 0.999 . S
H1167 C1148 0.913 . S
H1168 C1186 0.951 . S
H1169 C1188 0.951 . S
H1170 C1190 0.950 . S
H1171 C1191 0.950 . S
H1172 C1193 0.950 . S
H1173 C1196 0.950 . S
H1174 C1197 0.950 . S
H1175 C1199 0.950 . S
H1176 C1200 0.950 . S
H1177 C1201 0.951 . S
H1178 C1203 0.951 . S
H1179 C1205 0.950 . S
H1180 C1206 0.950 . S
H1181 C1208 0.950 . S
H1182 C1211 0.950 . S
H1183 C1212 0.950 . S
H1184 C1214 0.950 . S
H1185 C1215 0.950 . S
C1186 H1168 0.951 . S
C1186 C1187 1.366 . S
C1186 C1188 1.388 . S
C1187 C1186 1.366 . S
C1187 C1191 1.385 . S
C1188 H1169 0.951 . S
C1188 C1186 1.388 . S
C1188 C1189 1.366 . S
C1189 C1188 1.366 . S
C1189 C1190 1.414 . S
C1189 C1192 1.499 . S
C1190 H1170 0.950 . S
C1190 C1189 1.414 . S
C1190 C1191 1.374 . S
C1191 H1171 0.950 . S
C1191 C1187 1.385 . S
C1191 C1190 1.374 . S
C1192 C1189 1.499 . S
C1192 C1193 1.373 . S
C1192 C1194 1.389 . S
C1193 H1172 0.950 . S
C1193 C1192 1.373 . S
C1193 C1209 1.377 . S
C1194 C1192 1.389 . S
C1194 C1195 1.524 . S
C1194 C1208 1.377 . S
C1195 C1194 1.524 . S
C1195 C1196 1.397 . S
C1195 C1200 1.363 . S
C1196 H1173 0.950 . S
C1196 C1195 1.397 . S
C1196 C1197 1.334 . S
C1197 H1174 0.950 . S
C1197 C1196 1.334 . S
C1197 C1198 1.287 . S
C1198 C1197 1.287 . S
C1198 C1199 1.524 . S
C1198 H1217 0.913 . S
C1199 H1175 0.950 . S
C1199 C1198 1.524 . S
C1199 C1200 1.415 . S
C1200 H1176 0.950 . S
C1200 C1195 1.363 . S
C1200 C1199 1.415 . S
C1201 H1177 0.951 . S
C1201 C1202 1.366 . S
C1201 C1203 1.388 . S
C1202 C1201 1.366 . S
C1202 C1206 1.385 . S
C1203 H1178 0.951 . S
C1203 C1201 1.388 . S
C1203 C1204 1.366 . S
C1204 C1203 1.366 . S
C1204 C1205 1.414 . S
C1204 C1207 1.499 . S
C1205 H1179 0.950 . S
C1205 C1204 1.414 . S
C1205 C1206 1.374 . S
C1206 H1180 0.950 . S
C1206 C1202 1.385 . S
C1206 C1205 1.374 . S
C1207 C1204 1.499 . S
C1207 C1208 1.373 . S
C1207 C1209 1.389 . S
C1208 H1181 0.950 . S
C1208 C1194 1.377 . S
C1208 C1207 1.373 . S
C1209 C1193 1.377 . S
C1209 C1207 1.389 . S
C1209 C1210 1.524 . S
C1210 C1209 1.524 . S
C1210 C1211 1.397 . S
C1210 C1215 1.363 . S
C1211 H1182 0.950 . S
C1211 C1210 1.397 . S
C1211 C1212 1.334 . S
C1212 H1183 0.950 . S
C1212 C1211 1.334 . S
C1212 C1213 1.287 . S
C1213 C1212 1.287 . S
C1213 C1214 1.524 . S
C1213 H1216 0.999 . S
C1214 H1184 0.950 . S
C1214 C1213 1.524 . S
C1214 C1215 1.415 . S
C1215 H1185 0.950 . S
C1215 C1210 1.363 . S
C1215 C1214 1.415 . S
H1216 C1213 0.999 . S
H1217 C1198 0.913 . S
H1218 C1236 0.951 . S
H1219 C1238 0.951 . S
H1220 C1240 0.950 . S
H1221 C1241 0.950 . S
H1222 C1243 0.950 . S
H1223 C1246 0.950 . S
H1224 C1247 0.950 . S
H1225 C1249 0.950 . S
H1226 C1250 0.950 . S
H1227 C1251 0.951 . S
H1228 C1253 0.951 . S
H1229 C1255 0.950 . S
H1230 C1256 0.950 . S
H1231 C1258 0.950 . S
H1232 C1261 0.950 . S
H1233 C1262 0.950 . S
H1234 C1264 0.950 . S
H1235 C1265 0.950 . S
C1236 H1218 0.951 . S
C1236 C1237 1.366 . S
C1236 C1238 1.388 . S
C1237 C1236 1.366 . S
C1237 C1241 1.385 . S
C1238 H1219 0.951 . S
C1238 C1236 1.388 . S
C1238 C1239 1.366 . S
C1239 C1238 1.366 . S
C1239 C1240 1.414 . S
C1239 C1242 1.499 . S
C1240 H1220 0.950 . S
C1240 C1239 1.414 . S
C1240 C1241 1.374 . S
C1241 H1221 0.950 . S
C1241 C1237 1.385 . S
C1241 C1240 1.374 . S
C1242 C1239 1.499 . S
C1242 C1243 1.373 . S
C1242 C1244 1.389 . S
C1243 H1222 0.950 . S
C1243 C1242 1.373 . S
C1243 C1259 1.377 . S
C1244 C1242 1.389 . S
C1244 C1245 1.524 . S
C1244 C1258 1.377 . S
C1245 C1244 1.524 . S
C1245 C1246 1.397 . S
C1245 C1250 1.363 . S
C1246 H1223 0.950 . S
C1246 C1245 1.397 . S
C1246 C1247 1.334 . S
C1247 H1224 0.950 . S
C1247 C1246 1.334 . S
C1247 C1248 1.287 . S
C1248 C1247 1.287 . S
C1248 C1249 1.524 . S
C1248 H1267 0.913 . S
C1249 H1225 0.950 . S
C1249 C1248 1.524 . S
C1249 C1250 1.415 . S
C1250 H1226 0.950 . S
C1250 C1245 1.363 . S
C1250 C1249 1.415 . S
C1251 H1227 0.951 . S
C1251 C1252 1.366 . S
C1251 C1253 1.388 . S
C1252 C1251 1.366 . S
C1252 C1256 1.385 . S
C1253 H1228 0.951 . S
C1253 C1251 1.388 . S
C1253 C1254 1.366 . S
C1254 C1253 1.366 . S
C1254 C1255 1.414 . S
C1254 C1257 1.499 . S
C1255 H1229 0.950 . S
C1255 C1254 1.414 . S
C1255 C1256 1.374 . S
C1256 H1230 0.950 . S
C1256 C1252 1.385 . S
C1256 C1255 1.374 . S
C1257 C1254 1.499 . S
C1257 C1258 1.373 . S
C1257 C1259 1.389 . S
C1258 H1231 0.950 . S
C1258 C1244 1.377 . S
C1258 C1257 1.373 . S
C1259 C1243 1.377 . S
C1259 C1257 1.389 . S
C1259 C1260 1.524 . S
C1260 C1259 1.524 . S
C1260 C1261 1.397 . S
C1260 C1265 1.363 . S
C1261 H1232 0.950 . S
C1261 C1260 1.397 . S
C1261 C1262 1.334 . S
C1262 H1233 0.950 . S
C1262 C1261 1.334 . S
C1262 C1263 1.287 . S
C1263 C1262 1.287 . S
C1263 C1264 1.524 . S
C1263 H1266 0.999 . S
C1264 H1234 0.950 . S
C1264 C1263 1.524 . S
C1264 C1265 1.415 . S
C1265 H1235 0.950 . S
C1265 C1260 1.363 . S
C1265 C1264 1.415 . S
H1266 C1263 0.999 . S
H1267 C1248 0.913 . S
H1268 C1286 0.951 . S
H1269 C1288 0.951 . S
H1270 C1290 0.950 . S
H1271 C1291 0.950 . S
H1272 C1293 0.950 . S
H1273 C1296 0.950 . S
H1274 C1297 0.950 . S
H1275 C1299 0.950 . S
H1276 C1300 0.950 . S
H1277 C1301 0.951 . S
H1278 C1303 0.951 . S
H1279 C1305 0.950 . S
H1280 C1306 0.950 . S
H1281 C1308 0.950 . S
H1282 C1311 0.950 . S
H1283 C1312 0.950 . S
H1284 C1314 0.950 . S
H1285 C1315 0.950 . S
C1286 H1268 0.951 . S
C1286 C1287 1.366 . S
C1286 C1288 1.388 . S
C1287 C1286 1.366 . S
C1287 C1291 1.385 . S
C1288 H1269 0.951 . S
C1288 C1286 1.388 . S
C1288 C1289 1.366 . S
C1289 C1288 1.366 . S
C1289 C1290 1.414 . S
C1289 C1292 1.499 . S
C1290 H1270 0.950 . S
C1290 C1289 1.414 . S
C1290 C1291 1.374 . S
C1291 H1271 0.950 . S
C1291 C1287 1.385 . S
C1291 C1290 1.374 . S
C1292 C1289 1.499 . S
C1292 C1293 1.373 . S
C1292 C1294 1.389 . S
C1293 H1272 0.950 . S
C1293 C1292 1.373 . S
C1293 C1309 1.377 . S
C1294 C1292 1.389 . S
C1294 C1295 1.524 . S
C1294 C1308 1.377 . S
C1295 C1294 1.524 . S
C1295 C1296 1.397 . S
C1295 C1300 1.363 . S
C1296 H1273 0.950 . S
C1296 C1295 1.397 . S
C1296 C1297 1.334 . S
C1297 H1274 0.950 . S
C1297 C1296 1.334 . S
C1297 C1298 1.287 . S
C1298 C1297 1.287 . S
C1298 C1299 1.524 . S
C1298 H1317 0.913 . S
C1299 H1275 0.950 . S
C1299 C1298 1.524 . S
C1299 C1300 1.415 . S
C1300 H1276 0.950 . S
C1300 C1295 1.363 . S
C1300 C1299 1.415 . S
C1301 H1277 0.951 . S
C1301 C1302 1.366 . S
C1301 C1303 1.388 . S
C1302 C1301 1.366 . S
C1302 C1306 1.385 . S
C1303 H1278 0.951 . S
C1303 C1301 1.388 . S
C1303 C1304 1.366 . S
C1304 C1303 1.366 . S
C1304 C1305 1.414 . S
C1304 C1307 1.499 . S
C1305 H1279 0.950 . S
C1305 C1304 1.414 . S
C1305 C1306 1.374 . S
C1306 H1280 0.950 . S
C1306 C1302 1.385 . S
C1306 C1305 1.374 . S
C1307 C1304 1.499 . S
C1307 C1308 1.373 . S
C1307 C1309 1.389 . S
C1308 H1281 0.950 . S
C1308 C1294 1.377 . S
C1308 C1307 1.373 . S
C1309 C1293 1.377 . S
C1309 C1307 1.389 . S
C1309 C1310 1.524 . S
C1310 C1309 1.524 . S
C1310 C1311 1.397 . S
C1310 C1315 1.363 . S
C1311 H1282 0.950 . S
C1311 C1310 1.397 . S
C1311 C1312 1.334 . S
C1312 H1283 0.950 . S
C1312 C1311 1.334 . S
C1312 C1313 1.287 . S
C1313 C1312 1.287 . S
C1313 C1314 1.524 . S
C1313 H1316 0.999 . S
C1314 H1284 0.950 . S
C1314 C1313 1.524 . S
C1314 C1315 1.415 . S
C1315 H1285 0.950 . S
C1315 C1310 1.363 . S
C1315 C1314 1.415 . S
H1316 C1313 0.999 . S
H1317 C1298 0.913 . S
H1318 C1336 0.951 . S
H1319 C1338 0.951 . S
H1320 C1340 0.950 . S
H1321 C1341 0.950 . S
H1322 C1343 0.950 . S
H1323 C1346 0.950 . S
H1324 C1347 0.950 . S
H1325 C1349 0.950 . S
H1326 C1350 0.950 . S
H1327 C1351 0.951 . S
H1328 C1353 0.951 . S
H1329 C1355 0.950 . S
H1330 C1356 0.950 . S
H1331 C1358 0.950 . S
H1332 C1361 0.950 . S
H1333 C1362 0.950 . S
H1334 C1364 0.950 . S
H1335 C1365 0.950 . S
C1336 H1318 0.951 . S
C1336 C1337 1.366 . S
C1336 C1338 1.388 . S
C1337 C1336 1.366 . S
C1337 C1341 1.385 . S
C1338 H1319 0.951 . S
C1338 C1336 1.388 . S
C1338 C1339 1.366 . S
C1339 C1338 1.366 . S
C1339 C1340 1.414 . S
C1339 C1342 1.499 . S
C1340 H1320 0.950 . S
C1340 C1339 1.414 . S
C1340 C1341 1.374 . S
C1341 H1321 0.950 . S
C1341 C1337 1.385 . S
C1341 C1340 1.374 . S
C1342 C1339 1.499 . S
C1342 C1343 1.373 . S
C1342 C1344 1.389 . S
C1343 H1322 0.950 . S
C1343 C1342 1.373 . S
C1343 C1359 1.377 . S
C1344 C1342 1.389 . S
C1344 C1345 1.524 . S
C1344 C1358 1.377 . S
C1345 C1344 1.524 . S
C1345 C1346 1.397 . S
C1345 C1350 1.363 . S
C1346 H1323 0.950 . S
C1346 C1345 1.397 . S
C1346 C1347 1.334 . S
C1347 H1324 0.950 . S
C1347 C1346 1.334 . S
C1347 C1348 1.287 . S
C1348 C1347 1.287 . S
C1348 C1349 1.524 . S
C1348 H1367 0.913 . S
C1349 H1325 0.950 . S
C1349 C1348 1.524 . S
C1349 C1350 1.415 . S
C1350 H1326 0.950 . S
C1350 C1345 1.363 . S
C1350 C1349 1.415 . S
C1351 H1327 0.951 . S
C1351 C1352 1.366 . S
C1351 C1353 1.388 . S
C1352 C1351 1.366 . S
C1352 C1356 1.385 . S
C1353 H1328 0.951 . S
C1353 C1351 1.388 . S
C1353 C1354 1.366 . S
C1354 C1353 1.366 . S
C1354 C1355 1.414 . S
C1354 C1357 1.499 . S
C1355 H1329 0.950 . S
C1355 C1354 1.414 . S
C1355 C1356 1.374 . S
C1356 H1330 0.950 . S
C1356 C1352 1.385 . S
C1356 C1355 1.374 . S
C1357 C1354 1.499 . S
C1357 C1358 1.373 . S
C1357 C1359 1.389 . S
C1358 H1331 0.950 . S
C1358 C1344 1.377 . S
C1358 C1357 1.373 . S
C1359 C1343 1.377 . S
C1359 C1357 1.389 . S
C1359 C1360 1.524 . S
C1360 C1359 1.524 . S
C1360 C1361 1.397 . S
C1360 C1365 1.363 . S
C1361 H1332 0.950 . S
C1361 C1360 1.397 . S
C1361 C1362 1.334 . S
C1362 H1333 0.950 . S
C1362 C1361 1.334 . S
C1362 C1363 1.287 . S
C1363 C1362 1.287 . S
C1363 C1364 1.524 . S
C1363 H1366 0.999 . S
C1364 H1334 0.950 . S
C1364 C1363 1.524 . S
C1364 C1365 1.415 . S
C1365 H1335 0.950 . S
C1365 C1360 1.363 . S
C1365 C1364 1.415 . S
H1366 C1363 0.999 . S
H1367 C1348 0.913 . S
C187 C7 1.657 . S
C202 C91 1.663 . S
C237 C21 1.663 . S
C252 C105 1.657 . S
C287 C34 1.568 . S
C302 C118 1.570 . S
C337 C133 1.663 . S
C352 C49 1.657 . S
C387 C63 1.662 . S
C402 C147 1.657 . S
C437 C160 1.570 . S
C452 C76 1.568 . S
C487 C8 1.388 . S
C502 C134 1.389 . S
C537 C22 1.389 . S
C552 C148 1.389 . S
C587 C163 1.305 . S
C602 C37 1.305 1_554 S
C637 C92 1.389 . S
C652 C50 1.389 . S
C687 C64 1.389 . S
C702 C106 1.389 . S
C737 C79 1.305 . S
C752 C121 1.305 1_556 S
C787 C161 1.530 . S
C802 C6 1.524 . S
C837 C20 1.713 . S
C852 C90 1.712 . S
C887 C35 1.530 . S
C902 C104 1.524 . S
C937 C119 1.530 . S
C952 C48 1.524 . S
C987 C132 1.712 . S
C1002 C62 1.712 . S
C1037 C77 1.530 . S
C1052 C146 1.524 . S
C1087 C9 0.786 . S
C1102 C149 0.786 . S
C1137 C162 0.944 . S
C1152 C23 0.950 . S
C1187 C93 0.946 . S
C1202 C36 0.950 . S
C1237 C51 0.785 . S
C1252 C107 0.784 . S
C1287 C120 0.946 . S
C1302 C65 0.951 . S
C1337 C135 0.945 . S
C1352 C78 0.951 . S
