# Generated by pormake.
# Topology vby, (6)-cn, num edge types: 1
# Building blocks:
#     Node 0, Type 0, BuildingBlock: BETFEN_clean_sbu_0, # of connection points: 6
#     Node 1, Type 0, BuildingBlock: BETFEN_clean_sbu_0, # of connection points: 6
#     Node 2, Type 0, BuildingBlock: BETFEN_clean_sbu_0, # of connection points: 6
#     Node 3, Type 0, BuildingBlock: BETFEN_clean_sbu_0, # of connection points: 6
#     Node 4, Type 0, BuildingBlock: BETFEN_clean_sbu_0, # of connection points: 6
#     Node 5, Type 0, BuildingBlock: BETFEN_clean_sbu_0, # of connection points: 6
#     Node 6, Type 0, BuildingBlock: BETFEN_clean_sbu_0, # of connection points: 6
#     Node 7, Type 0, BuildingBlock: BETFEN_clean_sbu_0, # of connection points: 6
#     Edge 8, Type (0, 0), BuildingBlock: ZUJKAS_clean_linker_0, # of connection points: 2
#     Edge 9, Type (0, 0), BuildingBlock: ZUJKAS_clean_linker_0, # of connection points: 2
#     Edge 10, Type (0, 0), BuildingBlock: ZUJKAS_clean_linker_0, # of connection points: 2
#     Edge 11, Type (0, 0), BuildingBlock: ZUJKAS_clean_linker_0, # of connection points: 2
#     Edge 12, Type (0, 0), BuildingBlock: ZUJKAS_clean_linker_0, # of connection points: 2
#     Edge 13, Type (0, 0), BuildingBlock: ZUJKAS_clean_linker_0, # of connection points: 2
#     Edge 14, Type (0, 0), BuildingBlock: ZUJKAS_clean_linker_0, # of connection points: 2
#     Edge 15, Type (0, 0), BuildingBlock: ZUJKAS_clean_linker_0, # of connection points: 2
#     Edge 16, Type (0, 0), BuildingBlock: ZUJKAS_clean_linker_0, # of connection points: 2
#     Edge 17, Type (0, 0), BuildingBlock: ZUJKAS_clean_linker_0, # of connection points: 2
#     Edge 18, Type (0, 0), BuildingBlock: ZUJKAS_clean_linker_0, # of connection points: 2
#     Edge 19, Type (0, 0), BuildingBlock: ZUJKAS_clean_linker_0, # of connection points: 2
#     Edge 20, Type (0, 0), BuildingBlock: ZUJKAS_clean_linker_0, # of connection points: 2
#     Edge 21, Type (0, 0), BuildingBlock: ZUJKAS_clean_linker_0, # of connection points: 2
#     Edge 22, Type (0, 0), BuildingBlock: ZUJKAS_clean_linker_0, # of connection points: 2
#     Edge 23, Type (0, 0), BuildingBlock: ZUJKAS_clean_linker_0, # of connection points: 2
#     Edge 24, Type (0, 0), BuildingBlock: ZUJKAS_clean_linker_0, # of connection points: 2
#     Edge 25, Type (0, 0), BuildingBlock: ZUJKAS_clean_linker_0, # of connection points: 2
#     Edge 26, Type (0, 0), BuildingBlock: ZUJKAS_clean_linker_0, # of connection points: 2
#     Edge 27, Type (0, 0), BuildingBlock: ZUJKAS_clean_linker_0, # of connection points: 2
#     Edge 28, Type (0, 0), BuildingBlock: ZUJKAS_clean_linker_0, # of connection points: 2
#     Edge 29, Type (0, 0), BuildingBlock: ZUJKAS_clean_linker_0, # of connection points: 2
#     Edge 30, Type (0, 0), BuildingBlock: ZUJKAS_clean_linker_0, # of connection points: 2
#     Edge 31, Type (0, 0), BuildingBlock: ZUJKAS_clean_linker_0, # of connection points: 2
# Relax obj value: 0.194
# Max RMSD: 0.210
# Mean RMSD: 0.210
data_MOF--net-vby--node1-BETFEN_clean_sbu_0--edge1-ZUJKAS_clean_linker_0
_symmetry_space_group_name_H-M    P1
_symmetry_Int_Tables_number       1
_symmetry_cell_setting            triclinic
loop_
_symmetry_equiv_pos_as_xyz
'x, y, z'
_cell_length_a     20.22003
_cell_length_b     121.43279
_cell_length_c     38.277926
_cell_angle_alpha  89.979196
_cell_angle_beta   94.300537
_cell_angle_gamma 90.015279
loop_
_atom_site_label
_atom_site_type_symbol
_atom_site_fract_x
_atom_site_fract_y
_atom_site_fract_z
_atom_type_partial_charge
Pr0 Pr 0.07139 0.37391 0.0088 0.0
Pr1 Pr 0.07562 0.40009 0.0223 0.0
C2 C 0.07414 0.35367 0.97961 0.0
C3 C 0.10394 0.34261 0.98517 0.0
C4 C 0.12068 0.33845 0.01892 0.0
C5 C 0.14624 0.32775 0.02343 0.0
C6 C 0.15564 0.32098 0.99427 0.0
C7 C 0.13971 0.32531 0.96053 0.0
C8 C 0.11416 0.33598 0.95608 0.0
C9 C 0.08929 0.37813 0.08154 0.0
C10 C 0.21447 0.38671 0.02212 0.0
C11 C 0.07163 0.42114 0.04531 0.0
C12 C 0.05054 0.43263 0.03775 0.0
C13 C 0.05236 0.43725 0.00418 0.0
C14 C 0.0396 0.44851 0.99876 0.0
C15 C 1.02487 0.4554 0.02681 0.0
C16 C 1.02128 0.45062 0.06015 0.0
C17 C 0.03396 0.43938 0.06549 0.0
C18 C 0.07773 0.39352 0.95202 0.0
C19 C 0.92836 0.38718 0.01484 0.0
O20 O 0.11353 0.36169 0.97139 0.0
O21 O 1.02982 0.35673 1.00094 0.0
O22 O 0.08461 0.38503 0.05704 0.0
O23 O 0.08754 0.36828 0.06836 0.0
O24 O 0.18351 0.39421 0.03984 0.0
O25 O 0.18131 0.3793 1.00254 0.0
O26 O 1.02664 0.41382 0.05185 0.0
O27 O 0.11939 0.41715 0.02787 0.0
O28 O 0.04313 0.38914 0.97438 0.0
O29 O 0.10902 0.40207 0.96521 0.0
O30 O 0.95777 0.37786 0.00693 0.0
O31 O 0.96133 0.39644 0.02209 0.0
H32 H 0.11329 0.34341 0.04181 0.0
H33 H 0.15729 0.3247 0.0498 0.0
H34 H 0.14729 0.32046 0.93742 0.0
H35 H 0.10186 0.33904 0.92979 0.0
H36 H 0.06504 0.43222 0.9823 0.0
H37 H 0.04184 0.45184 0.97263 0.0
H38 H 1.01104 0.45562 0.08251 0.0
H39 H 0.03286 0.43602 0.09168 0.0
Pr40 Pr 0.99675 0.63042 0.00462 0.0
Pr41 Pr 0.99732 0.65668 0.01714 0.0
C42 C 1.01659 0.60932 0.98555 0.0
C43 C 1.00204 0.59744 0.98947 0.0
C44 C 0.99839 0.5925 0.0225 0.0
C45 C 0.99319 0.58101 0.02552 0.0
C46 C 0.99198 0.57422 0.99562 0.0
C47 C 0.99329 0.57927 0.96256 0.0
C48 C 0.99827 0.59073 0.95957 0.0
C49 C 0.98638 0.63729 0.07401 0.0
C50 C 0.13964 0.64437 0.00962 0.0
C51 C 0.99033 0.677 0.04523 0.0
C52 C 0.9594 0.68797 0.03882 0.0
C53 C 0.96021 0.69332 0.00625 0.0
C54 C 0.93353 0.70393 1.0015 0.0
C55 C 0.90514 0.70943 0.02913 0.0
C56 C 0.90362 0.70396 0.06152 0.0
C57 C 0.93051 0.69338 0.06628 0.0
C58 C 0.99061 0.65225 0.94448 0.0
C59 C 0.85312 0.64294 0.00457 0.0
O60 O 0.05125 0.61426 0.01123 0.0
O61 O 0.97204 0.61568 0.96909 0.0
O62 O 1.02329 0.64165 0.05262 0.0
O63 O 0.95568 0.62876 0.06013 0.0
O64 O 0.1105 0.65263 0.0249 0.0
O65 O 0.10535 0.63602 0.9953 0.0
O66 O 0.95148 0.66888 0.0533 0.0
O67 O 0.03676 0.67399 0.02507 0.0
O68 O 0.99224 0.64538 0.9691 0.0
O69 O 0.99065 0.66213 0.95747 0.0
O70 O 0.88413 0.63428 0.99263 0.0
O71 O 0.88547 0.65154 0.01862 0.0
H72 H 1.00147 0.59748 0.04603 0.0
H73 H 0.99269 0.57743 0.05141 0.0
H74 H 0.99131 0.57435 0.93892 0.0
H75 H 1.00118 0.59433 0.93383 0.0
H76 H 0.98185 0.68933 0.9845 0.0
H77 H 0.93481 0.7078 0.97607 0.0
H78 H 0.88299 0.70796 0.08353 0.0
H79 H 0.92954 0.68947 0.09168 0.0
Pr80 Pr 0.06741 0.62948 0.52225 0.0
Pr81 Pr 0.06568 0.65681 0.50449 0.0
C82 C 0.06772 0.60939 0.55256 0.0
C83 C 0.058 0.59746 0.545 0.0
C84 C 0.09797 0.59173 0.52256 0.0
C85 C 0.09079 0.58033 0.51779 0.0
C86 C 0.04342 0.57436 0.53527 0.0
C87 C 1.00281 0.58016 0.55725 0.0
C88 C 1.01017 0.59155 0.5621 0.0
C89 C 0.05529 0.63384 0.44941 0.0
C90 C 0.92424 0.64322 0.5116 0.0
C91 C 0.06812 0.67678 0.47358 0.0
C92 C 0.09603 0.68797 0.47926 0.0
C93 C 0.10877 0.69237 0.51305 0.0
C94 C 0.13361 0.70311 0.51763 0.0
C95 C 0.14653 0.70968 0.48852 0.0
C96 C 0.13418 0.70516 0.45477 0.0
C97 C 0.10923 0.69445 0.45024 0.0
C98 C 0.07425 0.65241 0.5773 0.0
C99 C 0.21014 0.64344 0.51818 0.0
O100 O 1.01527 0.61576 0.54983 0.0
O101 O 0.12118 0.61414 0.54227 0.0
O102 O 0.05919 0.64062 0.47428 0.0
O103 O 0.05787 0.62394 0.46241 0.0
O104 O 0.95391 0.65143 0.49595 0.0
O105 O 0.95745 0.635 0.52759 0.0
O106 O 0.1098 0.66888 0.46731 0.0
O107 O 1.02161 0.67369 0.49361 0.0
O108 O 0.07232 0.64563 0.55243 0.0
O109 O 0.07369 0.66231 0.56432 0.0
O110 O 0.17967 0.63472 0.53049 0.0
O111 O 0.17794 0.6521 0.50435 0.0
H112 H 0.13531 0.59603 0.50893 0.0
H113 H 0.12235 0.57618 0.50031 0.0
H114 H 0.96638 0.57586 0.57149 0.0
H115 H 0.9791 0.59573 0.57979 0.0
H116 H 0.09937 0.68751 0.53589 0.0
H117 H 0.14327 0.70623 0.54401 0.0
H118 H 0.14259 0.70998 0.43171 0.0
H119 H 0.09964 0.69124 0.42393 0.0
Pr120 Pr 0.99994 0.37318 0.51916 0.0
Pr121 Pr 1.0001 0.39949 0.50642 0.0
C122 C 0.99274 0.35288 0.54747 0.0
C123 C 0.9613 0.34194 0.54135 0.0
C124 C 0.95664 0.33696 0.5081 0.0
C125 C 0.92959 0.32637 0.50346 0.0
C126 C 0.90631 0.32053 0.53192 0.0
C127 C 0.91023 0.32564 0.56503 0.0
C128 C 0.93746 0.3362 0.56965 0.0
C129 C 0.9925 0.37768 0.44657 0.0
C130 C 0.85617 0.38702 0.50624 0.0
C131 C 1.02133 0.4206 0.48784 0.0
C132 C 1.00775 0.43247 0.49259 0.0
C133 C 0.99918 0.437 0.52572 0.0
C134 C 0.99458 0.44846 0.52996 0.0
C135 C 0.99863 0.45563 0.50118 0.0
C136 C 1.00533 0.45097 0.46793 0.0
C137 C 1.0098 0.43955 0.46375 0.0
C138 C 0.98872 0.39256 0.57563 0.0
C139 C 0.14244 0.38539 0.51092 0.0
O140 O 0.95441 0.36104 0.5557 0.0
O141 O 0.03867 0.35582 0.52689 0.0
O142 O 0.99477 0.38449 0.47131 0.0
O143 O 0.99173 0.36777 0.45933 0.0
O144 O 0.88742 0.39565 0.49411 0.0
O145 O 0.88829 0.37844 0.52057 0.0
O146 O 0.05614 0.4155 0.51313 0.0
O147 O 0.97575 0.4144 0.47152 0.0
O148 O 1.02616 0.38826 0.55442 0.0
O149 O 0.95795 0.40106 0.56167 0.0
O150 O 0.11333 0.37716 0.5264 0.0
O151 O 0.10818 0.39374 0.49663 0.0
H152 H 0.97431 0.34122 0.48573 0.0
H153 H 0.92659 0.32277 0.4775 0.0
H154 H 0.89366 0.32138 0.58765 0.0
H155 H 0.94074 0.33984 0.59557 0.0
H156 H 0.99751 0.43171 0.54844 0.0
H157 H 0.9884 0.4517 0.55586 0.0
H158 H 1.00963 0.45617 0.44522 0.0
H159 H 1.01711 0.43625 0.43801 0.0
Pr160 Pr 0.56387 0.87376 0.00679 0.0
Pr161 Pr 0.56439 0.90006 0.02124 0.0
C162 C 0.57116 0.85361 0.97758 0.0
C163 C 0.60209 0.84263 0.98376 0.0
C164 C 0.60172 0.83726 0.01631 0.0
C165 C 0.6284 0.82665 0.0209 0.0
C166 C 0.65637 0.82116 0.99311 0.0
C167 C 0.65749 0.82665 0.96073 0.0
C168 C 0.63058 0.83723 0.95614 0.0
C169 C 0.5704 0.87792 0.07954 0.0
C170 C 0.7079 0.88749 0.02124 0.0
C171 C 0.54217 0.92105 0.04071 0.0
C172 C 0.55074 0.93303 0.03478 0.0
C173 C 0.61292 0.93826 0.03909 0.0
C174 C 0.61782 0.94977 0.03631 0.0
C175 C 0.56062 0.9563 0.02947 0.0
C176 C 0.49884 0.95097 0.02445 0.0
C177 C 0.49402 0.93953 0.02715 0.0
C178 C 0.57495 0.89355 0.95161 0.0
C179 C 0.42201 0.88595 0.01612 0.0
O180 O 0.61016 0.86177 0.9701 0.0
O181 O 0.52434 0.85651 0.99765 0.0
O182 O 0.56925 0.8848 0.05506 0.0
O183 O 0.57 0.86806 0.06637 0.0
O184 O 0.67668 0.896 0.03408 0.0
O185 O 0.67569 0.87905 0.00601 0.0
O186 O 0.50289 0.91563 0.01806 0.0
O187 O 0.59231 0.91518 0.05414 0.0
O188 O 0.53797 0.88911 0.97271 0.0
O189 O 0.60521 0.90207 0.96579 0.0
O190 O 0.45072 0.87792 0.99951 0.0
O191 O 0.45676 0.89408 0.03147 0.0
H192 H 0.58042 0.84124 0.03818 0.0
H193 H 0.62745 0.82276 0.04632 0.0
H194 H 0.67781 0.82267 0.93861 0.0
H195 H 0.63123 0.84117 0.93075 0.0
H196 H 0.65756 0.9335 0.04522 0.0
H197 H 0.66617 0.95359 0.04055 0.0
H198 H 0.45387 0.95567 0.01855 0.0
H199 H 0.4454 0.93574 0.0239 0.0
Pr200 Pr 0.48846 0.13032 0.00449 0.0
Pr201 Pr 0.49232 0.15656 0.01884 0.0
C202 C 0.4963 0.1094 0.98062 0.0
C203 C 0.51331 0.09781 0.98919 0.0
C204 C 0.50026 0.09304 0.02141 0.0
C205 C 0.51171 0.08177 0.02743 0.0
C206 C 0.53643 0.07504 1.00137 0.0
C207 C 0.55068 0.07996 0.96946 0.0
C208 C 0.53924 0.09119 0.9635 0.0
C209 C 0.48568 0.13658 0.075 0.0
C210 C 0.63502 0.14349 0.01205 0.0
C211 C 0.48859 0.17674 0.04822 0.0
C212 C 0.45787 0.18774 0.04283 0.0
C213 C 0.44055 0.1919 0.00913 0.0
C214 C 0.41438 0.20256 0.00475 0.0
C215 C 0.40492 0.2093 0.03397 0.0
C216 C 0.42135 0.20497 0.06766 0.0
C217 C 0.44751 0.19433 0.07199 0.0
C218 C 0.47751 0.15237 0.94593 0.0
C219 C 0.34841 0.14377 1.00367 0.0
O220 O 0.54461 0.11652 0.97935 0.0
O221 O 0.44329 0.11354 0.99318 0.0
O222 O 0.51978 0.14118 0.05285 0.0
O223 O 0.45614 0.1279 0.06161 0.0
O224 O 0.60581 0.15238 0.02375 0.0
O225 O 0.60121 0.13464 1.00107 0.0
O226 O 0.44999 0.16863 0.05665 0.0
O227 O 0.53275 0.1738 0.02663 0.0
O228 O 0.48105 0.14551 0.97051 0.0
O229 O 0.47977 0.16223 0.9591 0.0
O230 O 0.37987 0.13593 0.98757 0.0
O231 O 0.38107 0.15146 0.02235 0.0
H232 H 0.4803 0.09799 0.0417 0.0
H233 H 0.50102 0.07833 0.0525 0.0
H234 H 0.56877 0.07506 0.94856 0.0
H235 H 0.5492 0.09467 0.93835 0.0
H236 H 0.44803 0.18697 0.98619 0.0
H237 H 0.40296 0.20561 0.9784 0.0
H238 H 0.41373 0.20979 0.09082 0.0
H239 H 0.46025 0.19128 0.09824 0.0
Pr240 Pr 0.56608 0.1297 0.52107 0.0
Pr241 Pr 0.56596 0.156 0.50825 0.0
C242 C 0.54605 0.10859 0.54016 0.0
C243 C 0.56054 0.0967 0.53637 0.0
C244 C 0.56456 0.09174 0.50341 0.0
C245 C 0.56966 0.08025 0.50048 0.0
C246 C 0.57037 0.07347 0.53041 0.0
C247 C 0.56865 0.07854 0.56341 0.0
C248 C 0.5638 0.09 0.56631 0.0
C249 C 0.5764 0.13656 0.45172 0.0
C250 C 0.4235 0.14373 0.51641 0.0
C251 C 0.57253 0.17631 0.47996 0.0
C252 C 0.6036 0.18727 0.48613 0.0
C253 C 0.60801 0.19225 0.51939 0.0
C254 C 0.63473 0.20286 0.52408 0.0
C255 C 0.65794 0.20873 0.49566 0.0
C256 C 0.65423 0.20363 0.46254 0.0
C257 C 0.62732 0.19305 0.45787 0.0
C258 C 0.57385 0.15156 0.58086 0.0
C259 C 0.70986 0.14219 0.52072 0.0
O260 O 0.51169 0.11353 0.51434 0.0
O261 O 0.59041 0.11496 0.55673 0.0
O262 O 0.53943 0.14092 0.47305 0.0
O263 O 0.60738 0.12807 0.46565 0.0
O264 O 0.45263 0.15199 0.50108 0.0
O265 O 0.45772 0.13536 0.5306 0.0
O266 O 0.61115 0.16818 0.47174 0.0
O267 O 0.52666 0.17332 0.50051 0.0
O268 O 0.5714 0.14471 0.55619 0.0
O269 O 0.57454 0.16145 0.56799 0.0
O270 O 0.67879 0.13356 0.53291 0.0
O271 O 0.67759 0.15077 0.50649 0.0
H272 H 0.56186 0.09672 0.47984 0.0
H273 H 0.57047 0.07665 0.47463 0.0
H274 H 0.57025 0.07363 0.58707 0.0
H275 H 0.56057 0.09362 0.592 0.0
H276 H 0.59041 0.18797 0.54174 0.0
H277 H 0.63757 0.20645 0.55005 0.0
H278 H 0.67074 0.20791 0.43994 0.0
H279 H 0.62421 0.18941 0.43194 0.0
Pr280 Pr 0.49296 0.87474 0.51754 0.0
Pr281 Pr 0.48349 0.89908 0.50393 0.0
C282 C 0.48394 0.85357 0.53913 0.0
C283 C 0.44736 0.84305 0.53333 0.0
C284 C 0.4321 0.83878 0.49953 0.0
C285 C 0.40305 0.82833 0.49499 0.0
C286 C 0.38846 0.8219 0.52412 0.0
C287 C 0.40239 0.82635 0.55785 0.0
C288 C 0.43154 0.83678 0.56235 0.0
C289 C 0.50068 0.88022 0.44688 0.0
C290 C 0.34411 0.88607 0.50229 0.0
C291 C 0.48818 0.92035 0.48255 0.0
C292 C 0.51066 0.93178 0.49004 0.0
C293 C 0.5088 0.93647 0.52351 0.0
C294 C 0.522 0.94773 0.52874 0.0
C295 C 0.53719 0.95456 0.5006 0.0
C296 C 0.54101 0.9497 0.4674 0.0
C297 C 0.5279 0.93846 0.46224 0.0
C298 C 0.48287 0.8935 0.57526 0.0
C299 C 0.63257 0.88756 0.5164 0.0
O300 O 0.45403 0.86172 0.55376 0.0
O301 O 0.52187 0.8568 0.51492 0.0
O302 O 0.46024 0.88452 0.46652 0.0
O303 O 0.53542 0.87255 0.463 0.0
O304 O 0.37438 0.89413 0.48687 0.0
O305 O 0.37879 0.87837 0.51968 0.0
O306 O 0.5314 0.91296 0.47428 0.0
O307 O 0.44203 0.91635 0.50101 0.0
O308 O 0.52046 0.88932 0.55408 0.0
O309 O 0.44606 0.9011 0.56022 0.0
O310 O 0.60316 0.87953 0.53257 0.0
O311 O 0.5971 0.89529 0.49946 0.0
H312 H 0.44357 0.84344 0.47662 0.0
H313 H 0.39218 0.82527 0.46862 0.0
H314 H 0.3927 0.82163 0.58093 0.0
H315 H 0.44325 0.83984 0.58868 0.0
H316 H 0.4956 0.93151 0.54545 0.0
H317 H 0.51961 0.95111 0.55479 0.0
H318 H 0.55162 0.95465 0.44497 0.0
H319 H 0.52898 0.93506 0.43611 0.0
H320 H 0.29044 0.38148 0.96895 0.0
H321 H 0.41113 0.38185 0.96908 0.0
H322 H 0.42515 0.39197 0.07749 0.0
H323 H 0.30371 0.39238 0.07651 0.0
H324 H 0.51159 0.40254 0.04732 0.0
H325 H 0.53816 0.35953 0.00458 0.0
H326 H 0.48764 0.36699 0.9723 0.0
H327 H 0.45964 0.36501 0.01556 0.0
C328 C 0.31934 0.38375 0.99285 0.0
C329 C 0.28777 0.3868 0.02284 0.0
C330 C 0.38853 0.38385 0.99303 0.0
C331 C 0.42798 0.38657 0.02363 0.0
C332 C 0.39624 0.38974 0.05357 0.0
H333 H 0.85089 0.37074 0.03758 0.0
H334 H 0.73098 0.37094 0.04225 0.0
C335 C 0.32681 0.38997 0.05306 0.0
C336 C 0.50202 0.38641 0.02405 0.0
H337 H 0.63271 0.37115 0.99945 0.0
C338 C 0.53805 0.3956 0.03722 0.0
C339 C 0.53736 0.3773 0.01163 0.0
C340 C 0.50365 0.36662 1.00064 0.0
C341 C 0.60768 0.39604 0.03773 0.0
C342 C 0.64253 0.38726 0.02292 0.0
C343 C 0.60653 0.37799 0.01032 0.0
C344 C 0.71616 0.38736 0.02079 0.0
C345 C 0.64278 0.40578 0.0552 0.0
C346 C 0.7486 0.39645 0.00695 0.0
C347 C 0.81763 0.39647 0.00537 0.0
C348 C 0.85539 0.38721 0.01618 0.0
C349 C 0.82294 0.37797 0.0289 0.0
C350 C 0.75428 0.37809 0.03155 0.0
H351 H 0.61298 0.40945 0.07547 0.0
H352 H 0.69199 0.40343 0.06782 0.0
H353 H 0.6498 0.41224 0.03531 0.0
H354 H 0.72063 0.40354 0.99708 0.0
H355 H 0.84133 0.40365 0.99503 0.0
H356 H 0.21726 0.62843 0.98281 0.0
H357 H 0.33787 0.62819 0.9818 0.0
H358 H 0.34938 0.65998 0.03204 0.0
H359 H 0.22865 0.66023 0.03372 0.0
H360 H 0.42142 0.64247 0.95043 0.0
H361 H 0.48016 0.64188 0.09435 0.0
H362 H 0.39789 0.63922 0.07454 0.0
H363 H 0.42787 0.65312 0.07931 0.0
C364 C 0.24527 0.63538 0.99377 0.0
C365 C 0.21302 0.64433 0.00856 0.0
C366 C 0.31436 0.63522 0.99311 0.0
C367 C 0.35287 0.64398 0.00733 0.0
C368 C 0.32087 0.65301 0.02162 0.0
H369 H 0.77257 0.65916 0.02712 0.0
H370 H 0.65183 0.65921 0.02635 0.0
C371 C 0.2517 0.65317 0.02236 0.0
C372 C 0.42636 0.6437 0.00668 0.0
H373 H 0.5707 0.64443 0.05915 0.0
C374 C 0.45408 0.64284 0.97421 0.0
C375 C 0.46898 0.64416 0.03772 0.0
C376 C 0.44236 0.64454 0.07349 0.0
C377 C 0.52317 0.64269 0.97189 0.0
C378 C 0.56574 0.64323 1.00291 0.0
C379 C 0.53803 0.64404 0.03538 0.0
C380 C 0.63922 0.64316 1.00234 0.0
C381 C 0.55002 0.64222 0.93619 0.0
C382 C 0.67255 0.63407 0.98924 0.0
C383 C 0.74194 0.634 0.98959 0.0
C384 C 0.77939 0.64301 1.00323 0.0
C385 C 0.74562 0.65208 0.01634 0.0
C386 C 0.67643 0.65213 0.01599 0.0
H387 H 0.51186 0.64454 0.91507 0.0
H388 H 0.59342 0.64777 0.93488 0.0
H389 H 0.56645 0.63369 0.93106 0.0
H390 H 0.64497 0.62696 0.97918 0.0
H391 H 0.76615 0.62685 0.97947 0.0
H392 H 0.84456 0.62749 0.53814 0.0
H393 H 0.72392 0.62757 0.53887 0.0
H394 H 0.71575 0.65911 0.487 0.0
H395 H 0.83649 0.65904 0.48559 0.0
H396 H 0.64293 0.6422 0.5699 0.0
H397 H 0.58098 0.64141 0.42628 0.0
H398 H 0.66331 0.63855 0.44565 0.0
H399 H 0.63484 0.65253 0.44064 0.0
C400 C 0.81729 0.63444 0.52666 0.0
C401 C 0.85058 0.64324 0.51162 0.0
C402 C 0.74814 0.63447 0.52717 0.0
C403 C 0.7105 0.64326 0.51254 0.0
C404 C 0.74348 0.65211 0.49775 0.0
H405 H 0.29108 0.65955 0.49479 0.0
H406 H 0.41181 0.65942 0.49482 0.0
C407 C 0.81271 0.65208 0.49714 0.0
C408 C 0.63698 0.64328 0.51361 0.0
H409 H 0.49163 0.64443 0.46198 0.0
C410 C 0.60984 0.64263 0.54629 0.0
C411 C 0.59372 0.64384 0.4828 0.0
C412 C 0.61953 0.64402 0.44683 0.0
C413 C 0.54085 0.64275 0.54905 0.0
C414 C 0.49765 0.64335 0.51826 0.0
C415 C 0.52475 0.64399 0.48558 0.0
C416 C 0.42418 0.64343 0.51931 0.0
C417 C 0.51483 0.64248 0.58497 0.0
C418 C 0.39066 0.63445 0.53293 0.0
C419 C 0.32133 0.63448 0.53301 0.0
C420 C 0.28396 0.64348 0.51928 0.0
C421 C 0.3179 0.65247 0.50568 0.0
C422 C 0.38711 0.65242 0.50559 0.0
H423 H 0.55362 0.64481 0.60575 0.0
H424 H 0.47189 0.64812 0.58636 0.0
H425 H 0.498 0.634 0.59056 0.0
H426 H 0.41805 0.62733 0.54306 0.0
H427 H 0.29709 0.62739 0.54351 0.0
H428 H 0.77543 0.37088 0.52916 0.0
H429 H 0.65471 0.37082 0.52819 0.0
H430 H 0.64802 0.40293 0.47999 0.0
H431 H 0.76927 0.40305 0.48049 0.0
H432 H 0.57336 0.38567 0.5604 0.0
H433 H 0.51515 0.38516 0.41627 0.0
H434 H 0.59665 0.38199 0.43627 0.0
H435 H 0.56958 0.39606 0.43206 0.0
C436 C 0.74855 0.37793 0.51811 0.0
C437 C 0.7824 0.38697 0.50478 0.0
C438 C 0.67934 0.37787 0.51764 0.0
C439 C 0.64216 0.3868 0.50366 0.0
C440 C 0.67557 0.39585 0.49033 0.0
H441 H 0.2198 0.40123 0.48334 0.0
H442 H 0.34037 0.40151 0.48224 0.0
C443 C 0.745 0.39593 0.4908 0.0
C444 C 0.56864 0.38672 0.50413 0.0
H445 H 0.42449 0.38722 0.45146 0.0
C446 C 0.54078 0.38598 0.53658 0.0
C447 C 0.52618 0.38714 0.47304 0.0
C448 C 0.55319 0.38754 0.43738 0.0
C449 C 0.47171 0.3858 0.53884 0.0
C450 C 0.42919 0.38614 0.50774 0.0
C451 C 0.45706 0.38693 0.47529 0.0
C452 C 0.35568 0.38581 0.50832 0.0
C453 C 0.44495 0.38551 0.57459 0.0
C454 C 0.32382 0.37681 0.52292 0.0
C455 C 0.25465 0.37663 0.52372 0.0
C456 C 0.21581 0.38541 0.50966 0.0
C457 C 0.24792 0.39432 0.49452 0.0
C458 C 0.31699 0.3945 0.49381 0.0
H459 H 0.48258 0.38826 0.5954 0.0
H460 H 0.40032 0.3908 0.57541 0.0
H461 H 0.43067 0.37693 0.58066 0.0
H462 H 0.35245 0.36989 0.53359 0.0
H463 H 0.23172 0.3696 0.53536 0.0
H464 H 0.78866 0.87156 0.99706 0.0
H465 H 0.90941 0.87153 0.99806 0.0
H466 H 0.91622 0.90319 0.04906 0.0
H467 H 0.79496 0.90328 0.04853 0.0
H468 H 0.99082 0.88666 0.96713 0.0
H469 H 0.04937 0.88498 0.11113 0.0
H470 H 0.9678 0.88196 0.09095 0.0
H471 H 0.99497 0.89599 0.09627 0.0
C472 C 0.81558 0.87852 0.00874 0.0
C473 C 0.78172 0.88742 0.02283 0.0
C474 C 0.88481 0.87848 0.00922 0.0
C475 C 0.92206 0.88729 0.02399 0.0
C476 C 0.88865 0.8962 0.03811 0.0
H477 H 0.34515 0.90152 0.0454 0.0
H478 H 0.22458 0.90182 0.04667 0.0
C479 C 0.8192 0.89626 0.03762 0.0
C480 C 0.99562 0.88724 0.02346 0.0
H481 H 0.13994 0.88735 0.07606 0.0
C482 C 1.02344 0.88678 0.99095 0.0
C483 C 0.03819 0.88743 0.05454 0.0
C484 C 1.01129 0.88752 0.09025 0.0
C485 C 0.09252 0.88665 0.98863 0.0
C486 C 0.13515 0.88674 0.01972 0.0
C487 C 0.10733 0.88726 0.05224 0.0
C488 C 0.20871 0.8864 0.01905 0.0
C489 C 0.11915 0.88666 0.95284 0.0
C490 C 0.24031 0.87754 1.00354 0.0
C491 C 0.30947 0.87735 1.00264 0.0
C492 C 0.34863 0.88598 0.01752 0.0
C493 C 0.3168 0.89474 0.03359 0.0
C494 C 0.24771 0.89493 0.03439 0.0
H495 H 0.08154 0.88962 0.93232 0.0
H496 H 0.16396 0.89193 0.95244 0.0
H497 H 0.13307 0.87814 0.94596 0.0
H498 H 0.21148 0.87073 0.99223 0.0
H499 H 0.33216 0.87044 0.99028 0.0
H500 H 0.26689 0.15927 0.02972 0.0
H501 H 0.14605 0.15889 0.02958 0.0
H502 H 0.14116 0.12805 0.97375 0.0
H503 H 0.26234 0.12829 0.97392 0.0
H504 H 0.04856 0.15788 0.9722 0.0
H505 H 0.03588 0.12157 0.05983 0.0
H506 H 0.11172 0.12912 0.05543 0.0
H507 H 0.08215 0.11956 0.02205 0.0
C508 C 0.24031 0.15239 0.01734 0.0
C509 C 0.27463 0.14377 1.00199 0.0
C510 C 0.17109 0.1522 0.01727 0.0
C511 C 0.13457 0.14337 1.00213 0.0
C512 C 0.1684 0.13485 0.98615 0.0
H513 H 0.71317 0.12729 0.98679 0.0
H514 H 0.83343 0.12742 0.98357 0.0
C515 C 0.23772 0.13505 0.98608 0.0
C516 C 0.06113 0.14312 1.00308 0.0
H517 H 0.93391 0.12877 0.03567 0.0
C518 C 1.02345 0.15153 0.98611 0.0
C519 C 1.02842 0.13481 0.02119 0.0
C520 C 0.06646 0.12579 0.04094 0.0
C521 C 0.95393 0.15179 0.98636 0.0
C522 C 0.9212 0.14354 0.00479 0.0
C523 C 0.95892 0.13509 0.02159 0.0
C524 C 0.84793 0.14353 0.00699 0.0
C525 C 0.91611 0.16076 0.96624 0.0
C526 C 0.8159 0.15247 0.02177 0.0
C527 C 0.74695 0.15245 0.02359 0.0
C528 C 0.70848 0.14343 0.01094 0.0
C529 C 0.74095 0.1344 0.99674 0.0
C530 C 0.80986 0.13445 0.99487 0.0
H531 H 0.9457 0.16443 0.94587 0.0
H532 H 0.86887 0.15758 0.9534 0.0
H533 H 0.90419 0.16741 0.9846 0.0
H534 H 0.84428 0.15946 0.0321 0.0
H535 H 0.7239 0.15952 0.03492 0.0
H536 H 0.34589 0.12783 0.54352 0.0
H537 H 0.22528 0.12758 0.54448 0.0
H538 H 0.21375 0.15931 0.49387 0.0
H539 H 0.33449 0.15958 0.49223 0.0
H540 H 0.14132 0.14186 0.57553 0.0
H541 H 0.08357 0.1411 0.43155 0.0
H542 H 0.16574 0.13848 0.45155 0.0
H543 H 0.13567 0.15237 0.44654 0.0
C544 C 0.31788 0.13477 0.53247 0.0
C545 C 0.35013 0.14371 0.51758 0.0
C546 C 0.24879 0.1346 0.5331 0.0
C547 C 0.21027 0.14334 0.51875 0.0
C548 C 0.24227 0.15236 0.5044 0.0
H549 H 0.79051 0.15837 0.4979 0.0
H550 H 0.91126 0.15843 0.49887 0.0
C551 C 0.31144 0.15253 0.50368 0.0
C552 C 0.13676 0.14303 0.51928 0.0
H553 H 0.99274 0.14365 0.46653 0.0
C554 C 0.10881 0.1422 0.55169 0.0
C555 C 0.09433 0.14344 0.48815 0.0
C556 C 0.1212 0.14379 0.45244 0.0
C557 C 0.03968 0.14202 0.55388 0.0
C558 C 0.99731 0.14251 0.52277 0.0
C559 C 1.02525 0.14329 0.49036 0.0
C560 C 0.9238 0.14242 0.5232 0.0
C561 C 1.01259 0.14158 0.58953 0.0
C562 C 0.89041 0.13335 0.5364 0.0
C563 C 0.82101 0.13328 0.53594 0.0
C564 C 0.7836 0.14225 0.52208 0.0
C565 C 0.81742 0.15131 0.50885 0.0
C566 C 0.88663 0.15137 0.50931 0.0
H567 H 0.05058 0.14394 0.61068 0.0
H568 H 0.9691 0.14712 0.59068 0.0
H569 H 0.99622 0.13306 0.59475 0.0
H570 H 0.91798 0.12626 0.54664 0.0
H571 H 0.79677 0.12614 0.54617 0.0
H572 H 0.71027 0.90255 0.48488 0.0
H573 H 0.83069 0.90214 0.48181 0.0
H574 H 0.84202 0.87256 0.54432 0.0
H575 H 0.72163 0.87282 0.54725 0.0
H576 H 0.93295 0.90252 0.53545 0.0
H577 H 0.93935 0.86387 0.45837 0.0
H578 H 0.86368 0.87142 0.4632 0.0
H579 H 0.89757 0.86268 0.49798 0.0
C580 C 0.73829 0.89596 0.49807 0.0
C581 C 0.70605 0.88768 0.51617 0.0
C582 C 0.80719 0.89574 0.49626 0.0
C583 C 0.8453 0.88721 0.51229 0.0
C584 C 0.81352 0.87909 0.53109 0.0
H585 H 0.26487 0.87098 0.53226 0.0
H586 H 0.14424 0.87143 0.53414 0.0
C587 C 0.74463 0.8793 0.53294 0.0
C588 C 0.9183 0.88688 0.50959 0.0
H589 H 0.04312 0.87118 0.48027 0.0
C590 C 0.95704 0.8957 0.52324 0.0
C591 C 0.9497 0.87797 0.49365 0.0
C592 C 0.9105 0.86849 0.47716 0.0
C593 C 1.02639 0.89574 0.52205 0.0
C594 C 0.05781 0.88682 0.50616 0.0
C595 C 1.01904 0.87801 0.49245 0.0
C596 C 0.13092 0.88642 0.50386 0.0
C597 C 0.06556 0.90521 0.53862 0.0
C598 C 0.16353 0.89455 0.48552 0.0
C599 C 0.23259 0.89433 0.48438 0.0
C600 C 0.27049 0.88591 0.5014 0.0
C601 C 0.23741 0.8776 0.51891 0.0
C602 C 0.16836 0.87784 0.52004 0.0
H603 H 0.03659 0.90984 0.55731 0.0
H604 H 0.11221 0.90226 0.55272 0.0
H605 H 0.07879 0.911 0.51784 0.0
H606 H 0.13557 0.90112 0.47217 0.0
H607 H 0.25626 0.90083 0.47049 0.0
H608 H 0.92195 0.56117 0.03881 0.0
H609 H 0.92508 0.54104 0.04438 0.0
H610 H 0.06494 0.53932 0.96496 0.0
H611 H 0.06318 0.55938 0.95972 0.0
H612 H 0.8953 0.52457 0.99146 0.0
H613 H 0.156 0.52177 0.04743 0.0
H614 H 0.10957 0.53449 0.04642 0.0
H615 H 0.14483 0.5296 0.00759 0.0
C616 C 0.95377 0.55652 0.02272 0.0
C617 C 0.99234 0.56194 0.99882 0.0
C618 C 0.95521 0.545 0.0258 0.0
C619 C 0.99585 0.53866 0.0054 0.0
C620 C 0.03389 0.54403 0.98134 0.0
H621 H 0.09345 0.46933 0.98588 0.0
H622 H 0.08248 0.4893 0.9798 0.0
C623 C 0.03225 0.55552 0.97812 0.0
C624 C 0.99831 0.52643 0.00895 0.0
H625 H 0.10327 0.50499 0.03022 0.0
C626 C 0.94063 0.52028 1.00015 0.0
C627 C 0.05752 0.52083 0.02016 0.0
C628 C 0.12043 0.52699 0.03126 0.0
C629 C 0.94096 0.50868 1.00141 0.0
C630 C 1.0003 0.50307 0.01253 0.0
C631 C 0.05782 0.50925 0.02158 0.0
C632 C 1.0041 0.4908 0.015 0.0
C633 C 0.87821 0.50256 0.98982 0.0
C634 C 0.96374 0.48492 0.0368 0.0
C635 C 0.96939 0.47345 0.04006 0.0
C636 C 1.01603 0.46757 0.02182 0.0
C637 C 0.05618 0.4735 0.99988 0.0
C638 C 0.05039 0.48496 0.9966 0.0
H639 H 0.8437 0.50775 0.97292 0.0
H640 H 0.88928 0.49496 0.97521 0.0
H641 H 0.85238 0.50015 0.01323 0.0
H642 H 0.92854 0.48922 0.05185 0.0
H643 H 0.93723 0.4692 0.05699 0.0
H644 H 0.94041 0.47138 0.45714 0.0
H645 H 0.94686 0.49141 0.46306 0.0
H646 H 0.06248 0.48784 0.56164 0.0
H647 H 0.05727 0.46779 0.55575 0.0
H648 H 0.96198 0.5038 0.56322 0.0
H649 H 0.11248 0.51011 0.44946 0.0
H650 H 0.03724 0.50248 0.43965 0.0
H651 H 0.10182 0.49676 0.46899 0.0
C652 C 0.96769 0.47482 0.48 0.0
C653 C 0.99872 0.46788 0.50583 0.0
C654 C 0.97128 0.4863 0.48334 0.0
C655 C 1.0061 0.49116 0.51251 0.0
C656 C 0.03551 0.48429 0.53882 0.0
H657 H 0.1432 0.5591 0.53227 0.0
H658 H 0.13323 0.53908 0.52712 0.0
C659 C 0.0321 0.4728 0.53549 0.0
C660 C 1.012 0.50338 0.51557 0.0
H661 H 0.07146 0.52616 0.47568 0.0
C662 C 0.98595 0.50869 0.5441 0.0
C663 C 0.04413 0.50976 0.4909 0.0
C664 C 0.07611 0.50451 0.46068 0.0
C665 C 0.99023 0.5202 0.54833 0.0
C666 C 1.02062 0.52662 0.52309 0.0
C667 C 0.04757 0.52128 0.49485 0.0
C668 C 1.02609 0.53886 0.52581 0.0
C669 C 0.96333 0.52533 0.58024 0.0
C670 C 0.96919 0.54549 0.52621 0.0
C671 C 0.97472 0.55697 0.52907 0.0
C672 C 0.03732 0.56213 0.53129 0.0
C673 C 0.09415 0.55547 0.53024 0.0
C674 C 0.08856 0.54399 0.52747 0.0
H675 H 0.9582 0.51918 0.60136 0.0
H676 H 0.99589 0.53211 0.59073 0.0
H677 H 0.91346 0.5288 0.5729 0.0
H678 H 0.92033 0.54179 0.52405 0.0
H679 H 0.92981 0.56183 0.52914 0.0
H680 H 0.65294 0.96932 0.99976 0.0
H681 H 0.65675 0.98951 0.99728 0.0
H682 H 0.47993 0.99126 0.05331 0.0
H683 H 0.47678 0.9712 0.05675 0.0
H684 H 0.56173 1.00391 0.96666 0.0
H685 H 0.60366 1.01246 0.10874 0.0
H686 H 0.61546 0.99897 0.09039 0.0
H687 H 0.53351 1.00371 0.09806 0.0
C688 C 0.61541 0.97401 0.01199 0.0
C689 C 0.56452 0.96859 0.02842 0.0
C690 C 0.61744 0.98555 0.01038 0.0
C691 C 0.56915 0.99194 0.02552 0.0
C692 C 0.51847 0.98656 0.04199 0.0
H693 H 0.45628 0.06066 0.03433 0.0
H694 H 0.46786 0.04068 0.04034 0.0
C695 C 0.51629 0.97505 0.04353 0.0
C696 C 0.56993 1.0042 0.02302 0.0
H697 H 0.57129 0.02774 0.07216 0.0
C698 C 0.56453 1.00912 0.98972 0.0
C699 C 0.5734 1.01102 0.05311 0.0
C700 C 0.58247 1.00629 0.0896 0.0
C701 C 0.56039 0.02063 0.98569 0.0
C702 C 0.56286 0.02745 0.01579 0.0
C703 C 0.56916 0.02253 0.04909 0.0
C704 C 0.55776 0.03968 0.01324 0.0
C705 C 0.55119 0.02538 0.94921 0.0
C706 C 0.60527 0.04584 0.99673 0.0
C707 C 0.59906 0.0573 0.99345 0.0
C708 C 0.54527 0.06289 0.00673 0.0
C709 C 0.49871 0.0567 0.02408 0.0
C710 C 0.50504 0.04525 0.02737 0.0
H711 H 0.53419 0.01906 0.92958 0.0
H712 H 0.51466 0.03222 0.94809 0.0
H713 H 0.59923 0.02871 0.9417 0.0
H714 H 0.64726 0.04179 0.98634 0.0
H715 H 0.63663 0.06178 0.98056 0.0
H716 H 0.64075 0.06038 0.4875 0.0
H717 H 0.63758 0.04024 0.48207 0.0
H718 H 0.49691 0.03858 0.5611 0.0
H719 H 0.4987 0.05863 0.5662 0.0
H720 H 0.66689 0.02379 0.53499 0.0
H721 H 0.40642 0.02096 0.47875 0.0
H722 H 0.45281 0.03368 0.47979 0.0
H723 H 0.41732 0.02879 0.51857 0.0
C724 C 0.60874 0.05574 0.50354 0.0
C725 C 0.56996 0.06118 0.52728 0.0
C726 C 0.60728 0.04421 0.50054 0.0
C727 C 0.56639 0.03788 0.52086 0.0
C728 C 0.52814 0.04327 0.54477 0.0
H729 H 0.46842 0.96858 0.54112 0.0
H730 H 0.47943 0.98855 0.54683 0.0
C731 C 0.52981 0.05476 0.54792 0.0
C732 C 0.56393 0.02565 0.51741 0.0
H733 H 0.45899 1.00418 0.49623 0.0
C734 C 0.62158 0.0195 0.5263 0.0
C735 C 0.50475 0.02003 0.50618 0.0
C736 C 0.44188 0.02618 0.49496 0.0
C737 C 0.62122 1.0079 0.52514 0.0
C738 C 0.5619 1.00227 0.51403 0.0
C739 C 0.50443 1.00845 0.50488 0.0
C740 C 0.55804 0.98999 0.51175 0.0
C741 C 0.68393 1.00178 0.53686 0.0
C742 C 0.5985 0.98407 0.49012 0.0
C743 C 0.59282 0.97259 0.48708 0.0
C744 C 0.54607 0.96674 0.50536 0.0
C745 C 0.5058 0.97272 0.5271 0.0
C746 C 0.51162 0.98419 0.53017 0.0
H747 H 0.71843 1.00699 0.5537 0.0
H748 H 0.67279 0.9942 0.55156 0.0
H749 H 0.7098 0.99935 0.5135 0.0
H750 H 0.63381 0.98834 0.47505 0.0
H751 H 0.62507 0.96831 0.47028 0.0
H752 H 0.11683 0.30252 0.95651 0.0
H753 H 0.15903 0.28373 0.96365 0.0
H754 H 0.2941 0.29433 0.04952 0.0
H755 H 0.25263 0.31319 0.04239 0.0
H756 H 0.28646 0.27567 0.95912 0.0
H757 H 0.20285 0.26806 0.09176 0.0
H758 H 0.17302 0.27951 0.06494 0.0
H759 H 0.25306 0.28017 0.08871 0.0
C760 C 0.15584 0.30091 0.97681 0.0
C761 C 0.18113 0.30944 0.9989 0.0
C762 C 0.1797 0.29011 0.98097 0.0
C763 C 0.22911 0.28754 0.00745 0.0
C764 C 0.25488 0.29603 0.0294 0.0
H765 H 0.44331 0.22777 0.07176 0.0
H766 H 0.40065 0.24654 0.06468 0.0
C767 C 0.23104 0.30684 0.02528 0.0
C768 C 0.25456 0.27603 0.0115 0.0
H769 H 0.27297 0.25454 0.06927 0.0
C770 C 0.28322 0.27104 0.98315 0.0
C771 C 0.25048 0.26995 0.04287 0.0
C772 C 0.21767 0.27463 0.07373 0.0
C773 C 0.30893 0.26026 0.98552 0.0
C774 C 0.30488 0.25419 0.01689 0.0
C775 C 0.2762 0.25918 0.04523 0.0
C776 C 0.33047 0.24269 0.02096 0.0
C777 C 0.34173 0.25558 0.95466 0.0
C778 C 0.30478 0.23418 0.99905 0.0
C779 C 0.32887 0.22339 1.00314 0.0
C780 C 0.37899 0.22081 0.02945 0.0
C781 C 0.40416 0.22936 0.05152 0.0
C782 C 0.38003 0.24014 0.0474 0.0
H783 H 0.35642 0.26215 0.93658 0.0
H784 H 0.38645 0.25072 0.96345 0.0
H785 H 0.30638 0.25003 0.93973 0.0
H786 H 0.26546 0.23586 0.97897 0.0
H787 H 0.30738 0.21702 0.98604 0.0
H788 H 0.60448 0.8038 0.02821 0.0
H789 H 0.64778 0.78503 0.03476 0.0
H790 H 0.81091 0.79362 0.97374 0.0
H791 H 0.76899 0.81248 0.96783 0.0
H792 H 0.66952 0.76962 0.98256 0.0
H793 H 0.90482 0.77927 0.06049 0.0
H794 H 0.83742 0.789 0.05464 0.0
H795 H 0.89236 0.78694 0.02041 0.0
C796 C 0.65013 0.80176 0.0166 0.0
C797 C 0.68332 0.80972 0.99762 0.0
C798 C 0.67458 0.79098 0.02017 0.0
C799 C 0.73313 0.78791 0.00515 0.0
C800 C 0.7663 0.79581 0.98611 0.0
H801 H 0.95732 0.72677 0.99406 0.0
H802 H 0.91407 0.74555 0.98734 0.0
C803 C 0.7418 0.80658 0.98242 0.0
C804 C 0.75844 0.77638 0.00861 0.0
H805 H 0.89209 0.76097 0.03927 0.0
C806 C 0.71805 0.76773 0.99512 0.0
C807 C 0.82187 0.77388 0.02491 0.0
C808 C 0.86651 0.78274 0.04125 0.0
C809 C 0.73974 0.75671 0.99691 0.0
C810 C 0.80317 0.75421 0.01322 0.0
C811 C 0.84356 0.76286 0.0267 0.0
C812 C 0.82843 0.74268 0.01674 0.0
C813 C 0.69511 0.74786 0.98055 0.0
C814 C 0.79508 0.73478 0.03572 0.0
C815 C 0.81955 0.72401 0.03949 0.0
C816 C 0.87818 0.72087 0.02447 0.0
C817 C 0.91155 0.72882 0.00553 0.0
C818 C 0.88712 0.7396 1.00188 0.0
H819 H 0.65695 0.75133 0.96122 0.0
H820 H 0.72421 0.74157 0.96725 0.0
H821 H 0.66906 0.74368 1.00136 0.0
H822 H 0.75036 0.73698 0.04798 0.0
H823 H 0.79221 0.71812 0.05404 0.0
H824 H 0.24001 0.72024 0.45199 0.0
H825 H 0.27957 0.73922 0.45861 0.0
H826 H 0.15066 0.74434 0.54184 0.0
H827 H 0.11063 0.72538 0.53533 0.0
H828 H 0.21003 0.7587 0.45117 0.0
H829 H 0.32724 0.75527 0.58645 0.0
H830 H 0.30243 0.74337 0.56046 0.0
H831 H 0.2418 0.75113 0.58215 0.0
C832 C 0.21983 0.72539 0.47167 0.0
C833 C 0.17212 0.72121 0.49318 0.0
C834 C 0.24277 0.73625 0.47551 0.0
C835 C 0.21895 0.7432 0.50107 0.0
C836 C 0.17112 0.73909 0.5225 0.0
H837 H 0.29348 0.81178 0.56088 0.0
H838 H 0.25149 0.79292 0.55455 0.0
C839 C 0.14822 0.72822 0.51872 0.0
C840 C 0.2428 0.75483 0.50456 0.0
H841 H 0.31898 0.77323 0.5621 0.0
C842 C 0.23411 0.76186 0.47539 0.0
C843 C 0.2741 0.759 0.53618 0.0
C844 C 0.28759 0.75179 0.56802 0.0
C845 C 0.25479 0.77293 0.47711 0.0
C846 C 0.28627 0.7771 0.50869 0.0
C847 C 0.29479 0.77008 0.5379 0.0
C848 C 0.3112 0.78866 0.51196 0.0
C849 C 0.24132 0.78014 0.44525 0.0
C850 C 0.35928 0.79258 0.49036 0.0
C851 C 0.38353 0.80337 0.49396 0.0
C852 C 0.36075 0.81051 0.51948 0.0
C853 C 0.31272 0.80653 0.54116 0.0
C854 C 0.28842 0.79574 0.53749 0.0
H855 H 0.20112 0.77672 0.42704 0.0
H856 H 0.22727 0.7886 0.4528 0.0
H857 H 0.28687 0.78068 0.43088 0.0
H858 H 0.37899 0.78723 0.47105 0.0
H859 H 0.42141 0.80604 0.47727 0.0
H860 H 0.95202 0.30366 0.4923 0.0
H861 H 0.90857 0.28489 0.48574 0.0
H862 H 0.75734 0.29252 0.55554 0.0
H863 H 0.79924 0.31137 0.56149 0.0
H864 H 0.89674 0.2689 0.5372 0.0
H865 H 0.64978 0.27888 0.47196 0.0
H866 H 0.71693 0.28871 0.47564 0.0
H867 H 0.66875 0.2861 0.51239 0.0
C868 C 0.90886 0.30141 0.50585 0.0
C869 C 0.87905 0.3091 0.52732 0.0
C870 C 0.88435 0.29063 0.50226 0.0
C871 C 0.82908 0.28729 0.51976 0.0
C872 C 0.79928 0.29492 0.54126 0.0
H873 H 0.61181 0.22556 0.53531 0.0
H874 H 0.65497 0.24435 0.542 0.0
C875 C 0.82384 0.30569 0.54494 0.0
C876 C 0.80388 0.27575 0.51632 0.0
H877 H 0.66682 0.26039 0.49071 0.0
C878 C 0.84657 0.26704 0.52686 0.0
C879 C 0.73831 0.27329 0.50294 0.0
C880 C 0.69087 0.28222 0.48977 0.0
C881 C 0.82524 0.256 0.52498 0.0
C882 C 0.7597 0.25354 0.51158 0.0
C883 C 0.71699 0.26225 0.50105 0.0
C884 C 0.73459 0.242 0.50803 0.0
C885 C 0.87268 0.24708 0.53817 0.0
C886 C 0.76455 0.23439 0.48651 0.0
C887 C 0.74016 0.22361 0.48276 0.0
C888 C 0.68495 0.22017 0.50032 0.0
C889 C 0.65497 0.22783 0.5218 0.0
C890 C 0.67931 0.23862 0.52546 0.0
H891 H 0.91368 0.25041 0.55604 0.0
H892 H 0.84659 0.24057 0.55223 0.0
H893 H 0.89495 0.24321 0.51556 0.0
H894 H 0.8065 0.23682 0.47228 0.0
H895 H 0.7649 0.21795 0.4662 0.0
H896 H 0.05672 0.39755 0.11281 0.0
H897 H 0.04244 0.40062 0.17542 0.0
H898 H 0.10278 0.36717 0.19798 0.0
H899 H 0.11603 0.36402 0.13573 0.0
H900 H 0.95331 0.38625 0.21726 0.0
H901 H 0.21654 0.38753 0.27042 0.0
H902 H 0.19116 0.39076 0.22528 0.0
H903 H 0.19529 0.37668 0.23958 0.0
C904 C 0.06785 0.39092 0.13126 0.0
C905 C 0.08765 0.38055 0.11943 0.0
C906 C 0.05945 0.39267 0.16695 0.0
C907 C 0.07198 0.38414 0.19139 0.0
C908 C 0.09349 0.37389 0.17966 0.0
H909 H 0.96808 0.36377 0.39175 0.0
H910 H 0.98402 0.3671 0.32989 0.0
C911 C 0.10096 0.3721 0.14407 0.0
C912 C 0.05904 0.38559 0.22889 0.0
H913 H 0.1352 0.38505 0.31173 0.0
C914 C 0.99308 0.38617 0.23791 0.0
C915 C 0.11094 0.38551 0.25581 0.0
C916 C 0.18261 0.38517 0.24747 0.0
C917 C 0.97767 0.38614 0.27318 0.0
C918 C 1.02947 0.38555 0.30007 0.0
C919 C 0.09552 0.38549 0.29108 0.0
C920 C 1.01583 0.38399 0.3374 0.0
C921 C 0.90603 0.38644 0.28157 0.0
C922 C 1.02803 0.39242 0.36222 0.0
C923 C 1.01807 0.39057 0.3977 0.0
C924 C 0.99695 0.3802 0.40892 0.0
C925 C 0.98421 0.37185 0.3839 0.0
C926 C 0.99324 0.37374 0.34853 0.0
H927 H 0.87272 0.389 0.25861 0.0
H928 H 0.89084 0.3781 0.28978 0.0
H929 H 0.8994 0.39218 0.30363 0.0
H930 H 0.0458 0.40037 0.35418 0.0
H931 H 1.02876 0.39713 0.41646 0.0
H932 H 0.06791 0.65194 0.11127 0.0
H933 H 0.08112 0.65426 0.17521 0.0
H934 H 0.92857 0.63002 0.18702 0.0
H935 H 0.91494 0.62772 0.12338 0.0
H936 H 0.91904 0.6487 0.23119 0.0
H937 H 0.17317 0.63087 0.24047 0.0
H938 H 0.15957 0.64239 0.21133 0.0
H939 H 0.11757 0.62961 0.20154 0.0
C940 C 0.03683 0.64718 0.12751 0.0
C941 C 0.99078 0.63957 0.11227 0.0
C942 C 0.04464 0.64848 0.16407 0.0
C943 C 1.00652 0.6422 0.18604 0.0
C944 C 0.95872 0.63493 0.1707 0.0
H945 H 0.05854 0.6192 0.39633 0.0
H946 H 0.04841 0.62268 0.33337 0.0
C947 C 0.95108 0.63361 0.13427 0.0
C948 C 1.01776 0.64278 0.22501 0.0
H949 H 0.12965 0.63611 0.29322 0.0
C950 C 0.96536 0.64608 0.24478 0.0
C951 C 0.07799 0.63925 0.24278 0.0
C952 C 0.13529 0.63524 0.2231 0.0
C953 C 0.97118 0.64577 0.2817 0.0
C954 C 1.03112 0.6421 0.29942 0.0
C955 C 0.08392 0.63901 0.27966 0.0
C956 C 0.03788 0.64032 0.33812 0.0
C957 C 0.91223 0.6489 0.30149 0.0
C958 C 0.03587 0.64911 0.36202 0.0
C959 C 0.04195 0.64713 0.39836 0.0
C960 C 0.04996 0.63633 0.4113 0.0
C961 C 0.05232 0.62761 0.38726 0.0
C962 C 0.04665 0.62959 0.35119 0.0
H963 H 0.86644 0.64991 0.28385 0.0
H964 H 0.9031 0.64255 0.32147 0.0
H965 H 0.92262 0.6568 0.31536 0.0
H966 H 1.02993 0.65748 0.3526 0.0
H967 H 0.03999 0.654 0.41626 0.0
H968 H 0.99533 0.66709 0.8919 0.0
H969 H 1.01246 0.66373 0.83036 0.0
H970 H 1.01692 0.62875 0.84951 0.0
H971 H 1.00003 0.63209 0.91181 0.0
H972 H 0.12824 0.65097 0.80654 0.0
H973 H 0.88067 0.63417 0.75986 0.0
H974 H 0.89124 0.64287 0.79816 0.0
H975 H 0.92155 0.62901 0.80006 0.0
C976 C 0.99936 0.65866 0.88307 0.0
C977 C 0.99623 0.64985 0.90675 0.0
C978 C 1.00927 0.65676 0.84784 0.0
C979 C 1.01574 0.646 0.83523 0.0
C980 C 1.01149 0.63712 0.8586 0.0
H981 H 0.05856 0.63232 0.60971 0.0
H982 H 0.0493 0.629 0.67279 0.0
C983 C 1.00189 0.63903 0.89414 0.0
C984 C 1.02972 0.64432 0.79792 0.0
H985 H 0.95621 0.63764 0.71729 0.0
C986 C 0.09095 0.6479 0.78709 0.0
C987 C 0.98135 0.64024 0.77258 0.0
C988 C 0.91476 0.63636 0.78293 0.0
C989 C 0.10428 0.64787 0.75156 0.0
C990 C 0.05445 0.64443 0.72588 0.0
C991 C 0.99436 0.64032 0.73687 0.0
C992 C 0.06151 0.64612 0.68769 0.0
C993 C 0.17148 0.65169 0.74182 0.0
C994 C 0.07075 0.65681 0.67498 0.0
C995 C 0.07604 0.6587 0.63929 0.0
C996 C 0.07186 0.64995 0.6152 0.0
C997 C 0.06251 0.6392 0.62772 0.0
C998 C 0.05698 0.63732 0.66369 0.0
H999 H 0.20991 0.65045 0.76378 0.0
H1000 H 0.18697 0.64727 0.7184 0.0
H1001 H 0.16925 0.66063 0.73583 0.0
H1002 H 0.0729 0.66378 0.6927 0.0
H1003 H 0.08267 0.66708 0.63052 0.0
H1004 H 0.08076 0.38019 0.61483 0.0
H1005 H 0.09314 0.37851 0.67885 0.0
H1006 H 0.91651 0.39802 0.68654 0.0
H1007 H 0.90557 0.40005 0.62285 0.0
H1008 H 1.01094 0.40563 0.72962 0.0
H1009 H 1.00281 0.36049 0.74864 0.0
H1010 H 0.066 0.36456 0.72079 0.0
H1011 H 0.98008 0.36689 0.70691 0.0
C1012 C 0.04407 0.38397 0.6302 0.0
C1013 C 0.99231 0.39029 0.61383 0.0
C1014 C 0.05091 0.38295 0.66685 0.0
C1015 C 1.00535 0.38803 0.68779 0.0
C1016 C 0.9524 0.39401 0.67117 0.0
H1017 H 0.98504 0.38057 0.91519 0.0
H1018 H 0.96738 0.37878 0.85117 0.0
C1019 C 0.94608 0.39516 0.63469 0.0
C1020 C 1.01537 0.38793 0.72691 0.0
H1021 H 0.04058 0.3712 0.79874 0.0
C1022 C 1.01698 0.39807 0.74464 0.0
C1023 C 1.02249 0.3781 0.74684 0.0
C1024 C 1.01708 0.36689 0.72986 0.0
C1025 C 1.02631 0.39869 0.78134 0.0
C1026 C 0.03658 0.3889 0.80116 0.0
C1027 C 0.03371 0.37872 0.78361 0.0
C1028 C 0.05033 0.38916 0.84005 0.0
C1029 C 1.02372 0.40986 0.79848 0.0
C1030 C 0.10409 0.39525 0.85526 0.0
C1031 C 0.11373 0.39638 0.89166 0.0
C1032 C 0.07057 0.39128 0.9138 0.0
C1033 C 1.01893 0.38465 0.89877 0.0
C1034 C 1.00885 0.38362 0.8622 0.0
H1035 H 0.99577 0.4159 0.78126 0.0
H1036 H 1.00016 0.40939 0.82372 0.0
H1037 H 0.07494 0.41305 0.80371 0.0
H1038 H 0.13802 0.39934 0.8389 0.0
H1039 H 0.15451 0.40142 0.90246 0.0
H1040 H 0.5616 0.86317 0.1321 0.0
H1041 H 0.54335 0.86679 0.1934 0.0
H1042 H 0.54453 0.90173 0.17337 0.0
H1043 H 0.56273 0.89813 0.11146 0.0
H1044 H 0.62314 0.89453 0.23622 0.0
H1045 H 0.3668 0.87811 0.22962 0.0
H1046 H 0.42524 0.86897 0.21162 0.0
H1047 H 0.4075 0.88207 0.19108 0.0
C1048 C 0.55816 0.87163 0.1407 0.0
C1049 C 0.56342 0.88037 0.11698 0.0
C1050 C 0.54729 0.87369 0.17571 0.0
C1051 C 0.54139 0.88452 0.18784 0.0
C1052 C 0.54836 0.8933 0.16447 0.0
H1053 H 0.41841 0.89323 0.40348 0.0
H1054 H 0.42565 0.89635 0.34023 0.0
C1055 C 0.5589 0.89124 0.1292 0.0
C1056 C 0.52904 0.88649 0.22513 0.0
H1057 H 0.42215 0.87988 0.28698 0.0
C1058 C 0.57873 0.8915 0.24725 0.0
C1059 C 0.47066 0.88268 0.23946 0.0
C1060 C 0.41415 0.87775 0.21669 0.0
C1061 C 0.57332 0.89219 0.28362 0.0
C1062 C 0.51704 0.88766 0.29825 0.0
C1063 C 0.46553 0.88327 0.27585 0.0
C1064 C 0.51373 0.8864 0.33674 0.0
C1065 C 0.62861 0.89754 0.30619 0.0
C1066 C 0.56028 0.87971 0.35562 0.0
C1067 C 0.5559 0.87786 0.39137 0.0
C1068 C 0.50478 0.88264 0.40916 0.0
C1069 C 0.45835 0.88945 0.39043 0.0
C1070 C 0.46248 0.89123 0.35438 0.0
H1071 H 0.65686 0.90346 0.29091 0.0
H1072 H 0.60914 0.90194 0.32869 0.0
H1073 H 0.66361 0.89109 0.31666 0.0
H1074 H 0.59941 0.87571 0.34251 0.0
H1075 H 0.59248 0.87258 0.40504 0.0
H1076 H 0.40762 0.1286 0.12379 0.0
H1077 H 0.42184 0.13069 0.18738 0.0
H1078 H 0.59403 0.15106 0.17667 0.0
H1079 H 0.57822 0.14931 0.1127 0.0
H1080 H 0.51929 0.12364 0.22947 0.0
H1081 H 0.5039 0.16878 0.24719 0.0
H1082 H 0.48061 0.16217 0.20588 0.0
H1083 H 0.56652 0.16488 0.21879 0.0
C1084 C 0.4479 0.13367 0.13496 0.0
C1085 C 0.4918 0.13879 0.11325 0.0
C1086 C 0.45611 0.13485 0.17138 0.0
C1087 C 0.50872 0.14111 0.18712 0.0
C1088 C 0.55209 0.1464 0.16537 0.0
H1089 H 0.65702 0.12874 0.40363 0.0
H1090 H 0.64345 0.13062 0.33987 0.0
C1091 C 0.5433 0.14534 0.12875 0.0
C1092 C 0.52036 0.14134 0.22619 0.0
H1093 H 0.54303 0.15835 0.29745 0.0
C1094 C 0.52417 0.13125 0.24424 0.0
C1095 C 0.52602 0.15125 0.24579 0.0
C1096 C 0.51838 0.16239 0.22848 0.0
C1097 C 0.53374 0.13076 0.28096 0.0
C1098 C 0.54213 0.14065 0.30048 0.0
C1099 C 0.53757 0.15076 0.28257 0.0
C1100 C 0.55457 0.14057 0.33948 0.0
C1101 C 0.53296 0.11962 0.29844 0.0
C1102 C 0.51153 0.14607 0.36083 0.0
C1103 C 0.52002 0.14518 0.39748 0.0
C1104 C 0.57154 0.13872 0.41343 0.0
C1105 C 0.61633 0.13366 0.3921 0.0
C1106 C 0.60832 0.13466 0.35559 0.0
H1107 H 0.50647 0.1134 0.28131 0.0
H1108 H 0.58469 0.11672 0.30404 0.0
H1109 H 0.50881 0.12002 0.32352 0.0
H1110 H 0.47002 0.15076 0.34913 0.0
H1111 H 0.48485 0.14921 0.41322 0.0
H1112 H 0.45422 0.16649 0.89143 0.0
H1113 H 0.46759 0.16312 0.8293 0.0
H1114 H 0.52265 0.12948 0.85269 0.0
H1115 H 0.50824 0.13277 0.91518 0.0
H1116 H 0.61402 0.14344 0.81036 0.0
H1117 H 0.35044 0.14288 0.75756 0.0
H1118 H 0.37322 0.15372 0.78818 0.0
H1119 H 0.37567 0.13967 0.80274 0.0
C1120 C 0.46824 0.15832 0.8833 0.0
C1121 C 0.47996 0.14988 0.90813 0.0
C1122 C 0.47577 0.15641 0.84778 0.0
C1123 C 0.49575 0.14604 0.83631 0.0
C1124 C 0.50685 0.13753 0.86096 0.0
H1125 H 0.53678 0.13222 0.61143 0.0
H1126 H 0.51999 0.12915 0.67385 0.0
C1127 C 0.4984 0.1394 0.89658 0.0
C1128 C 0.50835 0.1444 0.79885 0.0
H1129 H 0.43184 0.1449 0.71608 0.0
C1130 C 0.57417 0.14357 0.78975 0.0
C1131 C 0.45633 0.14456 0.77199 0.0
C1132 C 0.38478 0.14517 0.78042 0.0
C1133 C 0.58938 0.14342 0.75446 0.0
C1134 C 0.53754 0.14408 0.72762 0.0
C1135 C 0.47156 0.14439 0.7367 0.0
C1136 C 0.55115 0.14552 0.69023 0.0
C1137 C 0.66091 0.14286 0.74596 0.0
C1138 C 0.57436 0.15569 0.67884 0.0
C1139 C 0.58326 0.15748 0.64341 0.0
C1140 C 0.56976 0.1491 0.61858 0.0
C1141 C 0.54808 0.13879 0.63005 0.0
C1142 C 0.53825 0.13705 0.66561 0.0
H1143 H 0.69407 0.14029 0.76898 0.0
H1144 H 0.66678 0.13702 0.7241 0.0
H1145 H 0.67693 0.15112 0.73742 0.0
H1146 H 0.58414 0.16236 0.69733 0.0
H1147 H 0.59983 0.16551 0.63537 0.0
H1148 H 0.40437 0.9016 0.62398 0.0
H1149 H 0.42074 0.90005 0.68777 0.0
H1150 H 0.59665 0.88059 0.67749 0.0
H1151 H 0.57925 0.88185 0.61347 0.0
H1152 H 0.52424 0.87254 0.72873 0.0
H1153 H 0.557 0.91752 0.74646 0.0
H1154 H 0.47899 0.91406 0.72374 0.0
H1155 H 0.55503 0.91105 0.70401 0.0
C1156 C 0.44639 0.89695 0.63531 0.0
C1157 C 0.49095 0.89195 0.61375 0.0
C1158 C 0.45594 0.89613 0.67181 0.0
C1159 C 0.51089 0.89044 0.68756 0.0
C1160 C 0.55419 0.8851 0.66601 0.0
H1161 H 0.65575 0.90164 0.90415 0.0
H1162 H 0.64364 0.89978 0.8404 0.0
C1163 C 0.54427 0.88584 0.62943 0.0
C1164 C 0.52377 0.89026 0.72644 0.0
H1165 H 0.54565 0.90702 0.79802 0.0
C1166 C 0.52923 0.88008 0.7439 0.0
C1167 C 0.53151 0.90008 0.74627 0.0
C1168 C 0.53104 0.91129 0.72916 0.0
C1169 C 0.54094 0.87946 0.7806 0.0
C1170 C 0.54585 0.8893 0.80052 0.0
C1171 C 0.54136 0.89946 0.78293 0.0
C1172 C 0.55657 0.88937 0.83954 0.0
C1173 C 0.54934 0.86828 0.7975 0.0
C1174 C 0.51236 0.884 0.86058 0.0
C1175 C 0.51985 0.88494 0.8972 0.0
C1176 C 0.57091 0.89143 0.9134 0.0
C1177 C 0.61582 0.8966 0.8924 0.0
C1178 C 0.60883 0.89556 0.85593 0.0
H1179 H 0.56458 0.86199 0.77859 0.0
H1180 H 0.58686 0.86849 0.82021 0.0
H1181 H 0.5013 0.86561 0.80694 0.0
H1182 H 0.47069 0.8794 0.8487 0.0
H1183 H 0.4842 0.88092 0.91271 0.0
loop_
_geom_bond_atom_site_label_1
_geom_bond_atom_site_label_2
_geom_bond_distance
_geom_bond_site_symmetry_2
_ccdc_geom_bond_type
Pr0 C2 2.880 . S
Pr0 O20 2.562 1_554 S
Pr0 O21 2.490 . S
Pr0 O22 2.695 . S
Pr0 O23 2.512 . S
Pr0 O25 2.437 . S
Pr0 O28 2.436 1_554 S
Pr0 O30 2.438 1_455 S
Pr1 C11 2.880 . S
Pr1 O22 2.436 . S
Pr1 O24 2.438 . S
Pr1 O26 2.562 . S
Pr1 O27 2.490 1_554 S
Pr1 O28 2.695 1_554 S
Pr1 O29 2.512 1_554 S
Pr1 O31 2.437 1_454 S
C2 Pr0 2.880 . S
C2 C3 1.491 . S
C2 O20 1.254 1_554 S
C2 O21 1.225 . S
C3 C2 1.491 . S
C3 C4 1.392 . S
C3 C8 1.356 1_554 S
C4 C3 1.392 . S
C4 C5 1.368 . S
C4 H32 0.929 . S
C5 C4 1.368 . S
C5 C6 1.386 . S
C5 H33 0.929 . S
C6 C5 1.386 . S
C6 C7 1.373 1_554 S
C7 C6 1.373 1_556 S
C7 C8 1.409 . S
C7 H34 0.931 . S
C8 C3 1.356 1_556 S
C8 C7 1.409 . S
C8 H35 0.930 . S
C9 O22 1.270 . S
C9 O23 1.248 . S
C10 O24 1.267 . S
C10 O25 1.278 . S
C11 Pr1 2.880 . S
C11 C12 1.491 1_455 S
C11 O26 1.254 . S
C11 O27 1.225 1_554 S
C12 C11 1.491 1_655 S
C12 C13 1.392 1_554 S
C12 C17 1.356 . S
C13 C12 1.392 1_556 S
C13 C14 1.368 . S
C13 H36 0.929 . S
C14 C13 1.368 . S
C14 C15 1.386 1_556 S
C14 H37 0.929 . S
C15 C14 1.386 1_554 S
C15 C16 1.373 . S
C16 C15 1.373 . S
C16 C17 1.409 . S
C16 H38 0.931 . S
C17 C12 1.356 . S
C17 C16 1.409 . S
C17 H39 0.930 . S
C18 O28 1.270 . S
C18 O29 1.248 . S
C19 O30 1.267 . S
C19 O31 1.278 1_554 S
O20 Pr0 2.562 1_556 S
O20 C2 1.254 1_556 S
O21 Pr0 2.490 . S
O21 C2 1.225 . S
O22 Pr0 2.695 . S
O22 Pr1 2.436 . S
O22 C9 1.270 . S
O23 Pr0 2.512 . S
O23 C9 1.248 . S
O24 Pr1 2.438 . S
O24 C10 1.267 . S
O25 Pr0 2.437 . S
O25 C10 1.278 . S
O26 Pr1 2.562 . S
O26 C11 1.254 . S
O27 Pr1 2.490 1_556 S
O27 C11 1.225 1_556 S
O28 Pr0 2.436 1_556 S
O28 Pr1 2.695 1_556 S
O28 C18 1.270 . S
O29 Pr1 2.512 1_556 S
O29 C18 1.248 . S
O30 Pr0 2.438 1_655 S
O30 C19 1.267 . S
O31 Pr1 2.437 1_656 S
O31 C19 1.278 1_556 S
H32 C4 0.929 . S
H33 C5 0.929 . S
H34 C7 0.931 . S
H35 C8 0.930 . S
H36 C13 0.929 . S
H37 C14 0.929 . S
H38 C16 0.931 . S
H39 C17 0.930 . S
Pr40 C42 2.880 . S
Pr40 O60 2.562 1_554 S
Pr40 O61 2.490 . S
Pr40 O62 2.695 . S
Pr40 O63 2.512 . S
Pr40 O65 2.437 1_655 S
Pr40 O68 2.436 1_554 S
Pr40 O70 2.438 . S
Pr41 C51 2.880 . S
Pr41 O62 2.436 . S
Pr41 O64 2.438 1_655 S
Pr41 O66 2.562 . S
Pr41 O67 2.490 1_554 S
Pr41 O68 2.695 1_554 S
Pr41 O69 2.512 1_554 S
Pr41 O71 2.437 1_554 S
C42 Pr40 2.880 . S
C42 C43 1.491 1_655 S
C42 O60 1.254 1_554 S
C42 O61 1.225 . S
C43 C42 1.491 1_455 S
C43 C44 1.392 . S
C43 C48 1.356 1_554 S
C44 C43 1.392 . S
C44 C45 1.368 . S
C44 H72 0.929 . S
C45 C44 1.368 . S
C45 C46 1.386 . S
C45 H73 0.929 . S
C46 C45 1.386 . S
C46 C47 1.373 1_554 S
C47 C46 1.373 1_556 S
C47 C48 1.409 . S
C47 H74 0.931 . S
C48 C43 1.356 1_556 S
C48 C47 1.409 . S
C48 H75 0.930 . S
C49 O62 1.270 . S
C49 O63 1.248 . S
C50 O64 1.267 . S
C50 O65 1.278 . S
C51 Pr41 2.880 . S
C51 C52 1.491 . S
C51 O66 1.254 . S
C51 O67 1.225 1_554 S
C52 C51 1.491 . S
C52 C53 1.392 1_554 S
C52 C57 1.356 . S
C53 C52 1.392 1_556 S
C53 C54 1.368 . S
C53 H76 0.929 . S
C54 C53 1.368 . S
C54 C55 1.386 1_556 S
C54 H77 0.929 . S
C55 C54 1.386 1_554 S
C55 C56 1.373 . S
C56 C55 1.373 . S
C56 C57 1.409 . S
C56 H78 0.931 . S
C57 C52 1.356 . S
C57 C56 1.409 . S
C57 H79 0.930 . S
C58 O68 1.270 . S
C58 O69 1.248 . S
C59 O70 1.267 . S
C59 O71 1.278 1_554 S
O60 Pr40 2.562 1_556 S
O60 C42 1.254 1_556 S
O61 Pr40 2.490 . S
O61 C42 1.225 . S
O62 Pr40 2.695 . S
O62 Pr41 2.436 . S
O62 C49 1.270 . S
O63 Pr40 2.512 . S
O63 C49 1.248 . S
O64 Pr41 2.438 1_455 S
O64 C50 1.267 . S
O65 Pr40 2.437 1_455 S
O65 C50 1.278 . S
O66 Pr41 2.562 . S
O66 C51 1.254 . S
O67 Pr41 2.490 1_556 S
O67 C51 1.225 1_556 S
O68 Pr40 2.436 1_556 S
O68 Pr41 2.695 1_556 S
O68 C58 1.270 . S
O69 Pr41 2.512 1_556 S
O69 C58 1.248 . S
O70 Pr40 2.438 . S
O70 C59 1.267 . S
O71 Pr41 2.437 1_556 S
O71 C59 1.278 1_556 S
H72 C44 0.929 . S
H73 C45 0.929 . S
H74 C47 0.931 . S
H75 C48 0.930 . S
H76 C53 0.929 . S
H77 C54 0.929 . S
H78 C56 0.931 . S
H79 C57 0.930 . S
Pr80 C82 2.880 . S
Pr80 O100 2.562 . S
Pr80 O101 2.490 . S
Pr80 O102 2.695 . S
Pr80 O103 2.512 . S
Pr80 O105 2.437 1_455 S
Pr80 O108 2.436 . S
Pr80 O110 2.438 . S
Pr81 C91 2.880 . S
Pr81 O102 2.436 . S
Pr81 O104 2.438 1_455 S
Pr81 O106 2.562 . S
Pr81 O107 2.490 . S
Pr81 O108 2.695 . S
Pr81 O109 2.512 . S
Pr81 O111 2.437 . S
C82 Pr80 2.880 . S
C82 C83 1.491 1_455 S
C82 O100 1.254 . S
C82 O101 1.225 . S
C83 C82 1.491 1_655 S
C83 C84 1.392 . S
C83 C88 1.356 . S
C84 C83 1.392 . S
C84 C85 1.368 . S
C84 H112 0.929 . S
C85 C84 1.368 . S
C85 C86 1.386 . S
C85 H113 0.929 . S
C86 C85 1.386 . S
C86 C87 1.373 . S
C87 C86 1.373 . S
C87 C88 1.409 . S
C87 H114 0.931 . S
C88 C83 1.356 . S
C88 C87 1.409 . S
C88 H115 0.930 . S
C89 O102 1.270 . S
C89 O103 1.248 . S
C90 O104 1.267 . S
C90 O105 1.278 . S
C91 Pr81 2.880 . S
C91 C92 1.491 . S
C91 O106 1.254 . S
C91 O107 1.225 . S
C92 C91 1.491 . S
C92 C93 1.392 . S
C92 C97 1.356 . S
C93 C92 1.392 . S
C93 C94 1.368 . S
C93 H116 0.929 . S
C94 C93 1.368 . S
C94 C95 1.386 . S
C94 H117 0.929 . S
C95 C94 1.386 . S
C95 C96 1.373 . S
C96 C95 1.373 . S
C96 C97 1.409 . S
C96 H118 0.931 . S
C97 C92 1.356 . S
C97 C96 1.409 . S
C97 H119 0.930 . S
C98 O108 1.270 . S
C98 O109 1.248 . S
C99 O110 1.267 . S
C99 O111 1.278 . S
O100 Pr80 2.562 . S
O100 C82 1.254 . S
O101 Pr80 2.490 . S
O101 C82 1.225 . S
O102 Pr80 2.695 . S
O102 Pr81 2.436 . S
O102 C89 1.270 . S
O103 Pr80 2.512 . S
O103 C89 1.248 . S
O104 Pr81 2.438 1_655 S
O104 C90 1.267 . S
O105 Pr80 2.437 1_655 S
O105 C90 1.278 . S
O106 Pr81 2.562 . S
O106 C91 1.254 . S
O107 Pr81 2.490 . S
O107 C91 1.225 . S
O108 Pr80 2.436 . S
O108 Pr81 2.695 . S
O108 C98 1.270 . S
O109 Pr81 2.512 . S
O109 C98 1.248 . S
O110 Pr80 2.438 . S
O110 C99 1.267 . S
O111 Pr81 2.437 . S
O111 C99 1.278 . S
H112 C84 0.929 . S
H113 C85 0.929 . S
H114 C87 0.931 . S
H115 C88 0.930 . S
H116 C93 0.929 . S
H117 C94 0.929 . S
H118 C96 0.931 . S
H119 C97 0.930 . S
Pr120 C122 2.880 . S
Pr120 O140 2.562 . S
Pr120 O141 2.490 . S
Pr120 O142 2.695 . S
Pr120 O143 2.512 . S
Pr120 O145 2.437 . S
Pr120 O148 2.436 . S
Pr120 O150 2.438 1_655 S
Pr121 C131 2.880 . S
Pr121 O142 2.436 . S
Pr121 O144 2.438 . S
Pr121 O146 2.562 . S
Pr121 O147 2.490 . S
Pr121 O148 2.695 . S
Pr121 O149 2.512 . S
Pr121 O151 2.437 1_655 S
C122 Pr120 2.880 . S
C122 C123 1.491 . S
C122 O140 1.254 . S
C122 O141 1.225 . S
C123 C122 1.491 . S
C123 C124 1.392 . S
C123 C128 1.356 . S
C124 C123 1.392 . S
C124 C125 1.368 . S
C124 H152 0.929 . S
C125 C124 1.368 . S
C125 C126 1.386 . S
C125 H153 0.929 . S
C126 C125 1.386 . S
C126 C127 1.373 . S
C127 C126 1.373 . S
C127 C128 1.409 . S
C127 H154 0.931 . S
C128 C123 1.356 . S
C128 C127 1.409 . S
C128 H155 0.930 . S
C129 O142 1.270 . S
C129 O143 1.248 . S
C130 O144 1.267 . S
C130 O145 1.278 . S
C131 Pr121 2.880 . S
C131 C132 1.491 1_655 S
C131 O146 1.254 . S
C131 O147 1.225 . S
C132 C131 1.491 1_455 S
C132 C133 1.392 . S
C132 C137 1.356 . S
C133 C132 1.392 . S
C133 C134 1.368 . S
C133 H156 0.929 . S
C134 C133 1.368 . S
C134 C135 1.386 . S
C134 H157 0.929 . S
C135 C134 1.386 . S
C135 C136 1.373 . S
C136 C135 1.373 . S
C136 C137 1.409 . S
C136 H158 0.931 . S
C137 C132 1.356 . S
C137 C136 1.409 . S
C137 H159 0.930 . S
C138 O148 1.270 . S
C138 O149 1.248 . S
C139 O150 1.267 . S
C139 O151 1.278 . S
O140 Pr120 2.562 . S
O140 C122 1.254 . S
O141 Pr120 2.490 . S
O141 C122 1.225 . S
O142 Pr120 2.695 . S
O142 Pr121 2.436 . S
O142 C129 1.270 . S
O143 Pr120 2.512 . S
O143 C129 1.248 . S
O144 Pr121 2.438 . S
O144 C130 1.267 . S
O145 Pr120 2.437 . S
O145 C130 1.278 . S
O146 Pr121 2.562 . S
O146 C131 1.254 . S
O147 Pr121 2.490 . S
O147 C131 1.225 . S
O148 Pr120 2.436 . S
O148 Pr121 2.695 . S
O148 C138 1.270 . S
O149 Pr121 2.512 . S
O149 C138 1.248 . S
O150 Pr120 2.438 1_455 S
O150 C139 1.267 . S
O151 Pr121 2.437 1_455 S
O151 C139 1.278 . S
H152 C124 0.929 . S
H153 C125 0.929 . S
H154 C127 0.931 . S
H155 C128 0.930 . S
H156 C133 0.929 . S
H157 C134 0.929 . S
H158 C136 0.931 . S
H159 C137 0.930 . S
Pr160 C162 2.880 . S
Pr160 O180 2.562 1_554 S
Pr160 O181 2.490 . S
Pr160 O182 2.695 . S
Pr160 O183 2.512 . S
Pr160 O185 2.437 . S
Pr160 O188 2.436 1_554 S
Pr160 O190 2.438 . S
Pr161 C171 2.880 . S
Pr161 O182 2.436 . S
Pr161 O184 2.438 . S
Pr161 O186 2.562 . S
Pr161 O187 2.490 1_554 S
Pr161 O188 2.695 1_554 S
Pr161 O189 2.512 1_554 S
Pr161 O191 2.437 1_554 S
C162 Pr160 2.880 . S
C162 C163 1.491 . S
C162 O180 1.254 1_554 S
C162 O181 1.225 . S
C163 C162 1.491 . S
C163 C164 1.392 . S
C163 C168 1.356 1_554 S
C164 C163 1.392 . S
C164 C165 1.368 . S
C164 H192 0.929 . S
C165 C164 1.368 . S
C165 C166 1.386 . S
C165 H193 0.929 . S
C166 C165 1.386 . S
C166 C167 1.373 1_554 S
C167 C166 1.373 1_556 S
C167 C168 1.409 . S
C167 H194 0.931 . S
C168 C163 1.356 1_556 S
C168 C167 1.409 . S
C168 H195 0.930 . S
C169 O182 1.270 . S
C169 O183 1.248 . S
C170 O184 1.267 . S
C170 O185 1.278 . S
C171 Pr161 2.880 . S
C171 C172 1.491 . S
C171 O186 1.254 . S
C171 O187 1.225 1_554 S
C172 C171 1.491 . S
C172 C173 1.392 1_554 S
C172 C177 1.356 . S
C173 C172 1.392 1_556 S
C173 C174 1.368 . S
C173 H196 0.929 . S
C174 C173 1.368 . S
C174 C175 1.386 1_556 S
C174 H197 0.929 . S
C175 C174 1.386 1_554 S
C175 C176 1.373 . S
C176 C175 1.373 . S
C176 C177 1.409 . S
C176 H198 0.931 . S
C177 C172 1.356 . S
C177 C176 1.409 . S
C177 H199 0.930 . S
C178 O188 1.270 . S
C178 O189 1.248 . S
C179 O190 1.267 . S
C179 O191 1.278 1_554 S
O180 Pr160 2.562 1_556 S
O180 C162 1.254 1_556 S
O181 Pr160 2.490 . S
O181 C162 1.225 . S
O182 Pr160 2.695 . S
O182 Pr161 2.436 . S
O182 C169 1.270 . S
O183 Pr160 2.512 . S
O183 C169 1.248 . S
O184 Pr161 2.438 . S
O184 C170 1.267 . S
O185 Pr160 2.437 . S
O185 C170 1.278 . S
O186 Pr161 2.562 . S
O186 C171 1.254 . S
O187 Pr161 2.490 1_556 S
O187 C171 1.225 1_556 S
O188 Pr160 2.436 1_556 S
O188 Pr161 2.695 1_556 S
O188 C178 1.270 . S
O189 Pr161 2.512 1_556 S
O189 C178 1.248 . S
O190 Pr160 2.438 . S
O190 C179 1.267 . S
O191 Pr161 2.437 1_556 S
O191 C179 1.278 1_556 S
H192 C164 0.929 . S
H193 C165 0.929 . S
H194 C167 0.931 . S
H195 C168 0.930 . S
H196 C173 0.929 . S
H197 C174 0.929 . S
H198 C176 0.931 . S
H199 C177 0.930 . S
Pr200 C202 2.880 . S
Pr200 O220 2.562 1_554 S
Pr200 O221 2.490 . S
Pr200 O222 2.695 . S
Pr200 O223 2.512 . S
Pr200 O225 2.437 . S
Pr200 O228 2.436 1_554 S
Pr200 O230 2.438 . S
Pr201 C211 2.880 . S
Pr201 O222 2.436 . S
Pr201 O224 2.438 . S
Pr201 O226 2.562 . S
Pr201 O227 2.490 1_554 S
Pr201 O228 2.695 1_554 S
Pr201 O229 2.512 1_554 S
Pr201 O231 2.437 1_554 S
C202 Pr200 2.880 . S
C202 C203 1.491 . S
C202 O220 1.254 1_554 S
C202 O221 1.225 . S
C203 C202 1.491 . S
C203 C204 1.392 . S
C203 C208 1.356 1_554 S
C204 C203 1.392 . S
C204 C205 1.368 . S
C204 H232 0.929 . S
C205 C204 1.368 . S
C205 C206 1.386 . S
C205 H233 0.929 . S
C206 C205 1.386 . S
C206 C207 1.373 1_554 S
C207 C206 1.373 1_556 S
C207 C208 1.409 . S
C207 H234 0.931 . S
C208 C203 1.356 1_556 S
C208 C207 1.409 . S
C208 H235 0.930 . S
C209 O222 1.270 . S
C209 O223 1.248 . S
C210 O224 1.267 . S
C210 O225 1.278 . S
C211 Pr201 2.880 . S
C211 C212 1.491 . S
C211 O226 1.254 . S
C211 O227 1.225 1_554 S
C212 C211 1.491 . S
C212 C213 1.392 1_554 S
C212 C217 1.356 . S
C213 C212 1.392 1_556 S
C213 C214 1.368 . S
C213 H236 0.929 . S
C214 C213 1.368 . S
C214 C215 1.386 1_556 S
C214 H237 0.929 . S
C215 C214 1.386 1_554 S
C215 C216 1.373 . S
C216 C215 1.373 . S
C216 C217 1.409 . S
C216 H238 0.931 . S
C217 C212 1.356 . S
C217 C216 1.409 . S
C217 H239 0.930 . S
C218 O228 1.270 . S
C218 O229 1.248 . S
C219 O230 1.267 . S
C219 O231 1.278 1_554 S
O220 Pr200 2.562 1_556 S
O220 C202 1.254 1_556 S
O221 Pr200 2.490 . S
O221 C202 1.225 . S
O222 Pr200 2.695 . S
O222 Pr201 2.436 . S
O222 C209 1.270 . S
O223 Pr200 2.512 . S
O223 C209 1.248 . S
O224 Pr201 2.438 . S
O224 C210 1.267 . S
O225 Pr200 2.437 . S
O225 C210 1.278 . S
O226 Pr201 2.562 . S
O226 C211 1.254 . S
O227 Pr201 2.490 1_556 S
O227 C211 1.225 1_556 S
O228 Pr200 2.436 1_556 S
O228 Pr201 2.695 1_556 S
O228 C218 1.270 . S
O229 Pr201 2.512 1_556 S
O229 C218 1.248 . S
O230 Pr200 2.438 . S
O230 C219 1.267 . S
O231 Pr201 2.437 1_556 S
O231 C219 1.278 1_556 S
H232 C204 0.929 . S
H233 C205 0.929 . S
H234 C207 0.931 . S
H235 C208 0.930 . S
H236 C213 0.929 . S
H237 C214 0.929 . S
H238 C216 0.931 . S
H239 C217 0.930 . S
Pr240 C242 2.880 . S
Pr240 O260 2.562 . S
Pr240 O261 2.490 . S
Pr240 O262 2.695 . S
Pr240 O263 2.512 . S
Pr240 O265 2.437 . S
Pr240 O268 2.436 . S
Pr240 O270 2.438 . S
Pr241 C251 2.880 . S
Pr241 O262 2.436 . S
Pr241 O264 2.438 . S
Pr241 O266 2.562 . S
Pr241 O267 2.490 . S
Pr241 O268 2.695 . S
Pr241 O269 2.512 . S
Pr241 O271 2.437 . S
C242 Pr240 2.880 . S
C242 C243 1.491 . S
C242 O260 1.254 . S
C242 O261 1.225 . S
C243 C242 1.491 . S
C243 C244 1.392 . S
C243 C248 1.356 . S
C244 C243 1.392 . S
C244 C245 1.368 . S
C244 H272 0.929 . S
C245 C244 1.368 . S
C245 C246 1.386 . S
C245 H273 0.929 . S
C246 C245 1.386 . S
C246 C247 1.373 . S
C247 C246 1.373 . S
C247 C248 1.409 . S
C247 H274 0.931 . S
C248 C243 1.356 . S
C248 C247 1.409 . S
C248 H275 0.930 . S
C249 O262 1.270 . S
C249 O263 1.248 . S
C250 O264 1.267 . S
C250 O265 1.278 . S
C251 Pr241 2.880 . S
C251 C252 1.491 . S
C251 O266 1.254 . S
C251 O267 1.225 . S
C252 C251 1.491 . S
C252 C253 1.392 . S
C252 C257 1.356 . S
C253 C252 1.392 . S
C253 C254 1.368 . S
C253 H276 0.929 . S
C254 C253 1.368 . S
C254 C255 1.386 . S
C254 H277 0.929 . S
C255 C254 1.386 . S
C255 C256 1.373 . S
C256 C255 1.373 . S
C256 C257 1.409 . S
C256 H278 0.931 . S
C257 C252 1.356 . S
C257 C256 1.409 . S
C257 H279 0.930 . S
C258 O268 1.270 . S
C258 O269 1.248 . S
C259 O270 1.267 . S
C259 O271 1.278 . S
O260 Pr240 2.562 . S
O260 C242 1.254 . S
O261 Pr240 2.490 . S
O261 C242 1.225 . S
O262 Pr240 2.695 . S
O262 Pr241 2.436 . S
O262 C249 1.270 . S
O263 Pr240 2.512 . S
O263 C249 1.248 . S
O264 Pr241 2.438 . S
O264 C250 1.267 . S
O265 Pr240 2.437 . S
O265 C250 1.278 . S
O266 Pr241 2.562 . S
O266 C251 1.254 . S
O267 Pr241 2.490 . S
O267 C251 1.225 . S
O268 Pr240 2.436 . S
O268 Pr241 2.695 . S
O268 C258 1.270 . S
O269 Pr241 2.512 . S
O269 C258 1.248 . S
O270 Pr240 2.438 . S
O270 C259 1.267 . S
O271 Pr241 2.437 . S
O271 C259 1.278 . S
H272 C244 0.929 . S
H273 C245 0.929 . S
H274 C247 0.931 . S
H275 C248 0.930 . S
H276 C253 0.929 . S
H277 C254 0.929 . S
H278 C256 0.931 . S
H279 C257 0.930 . S
Pr280 C282 2.880 . S
Pr280 O300 2.562 . S
Pr280 O301 2.490 . S
Pr280 O302 2.695 . S
Pr280 O303 2.512 . S
Pr280 O305 2.437 . S
Pr280 O308 2.436 . S
Pr280 O310 2.438 . S
Pr281 C291 2.880 . S
Pr281 O302 2.436 . S
Pr281 O304 2.438 . S
Pr281 O306 2.562 . S
Pr281 O307 2.490 . S
Pr281 O308 2.695 . S
Pr281 O309 2.512 . S
Pr281 O311 2.437 . S
C282 Pr280 2.880 . S
C282 C283 1.491 . S
C282 O300 1.254 . S
C282 O301 1.225 . S
C283 C282 1.491 . S
C283 C284 1.392 . S
C283 C288 1.356 . S
C284 C283 1.392 . S
C284 C285 1.368 . S
C284 H312 0.929 . S
C285 C284 1.368 . S
C285 C286 1.386 . S
C285 H313 0.929 . S
C286 C285 1.386 . S
C286 C287 1.373 . S
C287 C286 1.373 . S
C287 C288 1.409 . S
C287 H314 0.931 . S
C288 C283 1.356 . S
C288 C287 1.409 . S
C288 H315 0.930 . S
C289 O302 1.270 . S
C289 O303 1.248 . S
C290 O304 1.267 . S
C290 O305 1.278 . S
C291 Pr281 2.880 . S
C291 C292 1.491 . S
C291 O306 1.254 . S
C291 O307 1.225 . S
C292 C291 1.491 . S
C292 C293 1.392 . S
C292 C297 1.356 . S
C293 C292 1.392 . S
C293 C294 1.368 . S
C293 H316 0.929 . S
C294 C293 1.368 . S
C294 C295 1.386 . S
C294 H317 0.929 . S
C295 C294 1.386 . S
C295 C296 1.373 . S
C296 C295 1.373 . S
C296 C297 1.409 . S
C296 H318 0.931 . S
C297 C292 1.356 . S
C297 C296 1.409 . S
C297 H319 0.930 . S
C298 O308 1.270 . S
C298 O309 1.248 . S
C299 O310 1.267 . S
C299 O311 1.278 . S
O300 Pr280 2.562 . S
O300 C282 1.254 . S
O301 Pr280 2.490 . S
O301 C282 1.225 . S
O302 Pr280 2.695 . S
O302 Pr281 2.436 . S
O302 C289 1.270 . S
O303 Pr280 2.512 . S
O303 C289 1.248 . S
O304 Pr281 2.438 . S
O304 C290 1.267 . S
O305 Pr280 2.437 . S
O305 C290 1.278 . S
O306 Pr281 2.562 . S
O306 C291 1.254 . S
O307 Pr281 2.490 . S
O307 C291 1.225 . S
O308 Pr280 2.436 . S
O308 Pr281 2.695 . S
O308 C298 1.270 . S
O309 Pr281 2.512 . S
O309 C298 1.248 . S
O310 Pr280 2.438 . S
O310 C299 1.267 . S
O311 Pr281 2.437 . S
O311 C299 1.278 . S
H312 C284 0.929 . S
H313 C285 0.929 . S
H314 C287 0.931 . S
H315 C288 0.930 . S
H316 C293 0.929 . S
H317 C294 0.929 . S
H318 C296 0.931 . S
H319 C297 0.930 . S
H320 C328 0.929 . S
H321 C330 0.930 . S
H322 C332 0.930 . S
H323 C335 0.929 . S
H324 C338 0.930 . S
H325 C340 0.960 . S
H326 C340 0.960 . S
H327 C340 0.960 . S
C328 H320 0.929 . S
C328 C329 1.377 1_556 S
C328 C330 1.384 . S
C329 C328 1.377 1_554 S
C329 C335 1.390 . S
C330 H321 0.930 . S
C330 C328 1.384 . S
C330 C331 1.372 1_556 S
C331 C330 1.372 1_554 S
C331 C332 1.400 . S
C331 C336 1.490 . S
C332 H322 0.930 . S
C332 C331 1.400 . S
C332 C335 1.386 . S
H333 C349 0.930 . S
H334 C350 0.931 . S
C335 H323 0.929 . S
C335 C329 1.390 . S
C335 C332 1.386 . S
C336 C331 1.490 . S
C336 C338 1.395 1_554 S
C336 C339 1.403 . S
H337 C343 0.930 . S
C338 H324 0.930 . S
C338 C336 1.395 1_556 S
C338 C341 1.403 . S
C339 C336 1.403 . S
C339 C340 1.524 . S
C339 C343 1.400 . S
C340 H325 0.960 . S
C340 H326 0.960 . S
C340 H327 0.960 . S
C340 C339 1.524 . S
C341 C338 1.403 . S
C341 C342 1.392 1_556 S
C341 C345 1.495 . S
C342 C341 1.392 1_554 S
C342 C343 1.385 . S
C342 C344 1.478 . S
C343 H337 0.930 . S
C343 C339 1.400 . S
C343 C342 1.385 . S
C344 C342 1.478 . S
C344 C346 1.381 1_554 S
C344 C350 1.383 . S
C345 C341 1.495 . S
C345 H351 0.959 . S
C345 H352 0.961 1_556 S
C345 H353 0.960 . S
C346 C344 1.381 1_556 S
C346 C347 1.394 . S
C346 H354 0.930 . S
C347 C346 1.394 . S
C347 C348 1.383 1_556 S
C347 H355 0.929 . S
C348 C347 1.383 1_554 S
C348 C349 1.377 . S
C349 H333 0.930 . S
C349 C348 1.377 . S
C349 C350 1.379 . S
C350 H334 0.931 . S
C350 C344 1.383 . S
C350 C349 1.379 . S
H351 C345 0.959 . S
H352 C345 0.961 1_554 S
H353 C345 0.960 . S
H354 C346 0.930 . S
H355 C347 0.929 . S
H356 C364 0.929 . S
H357 C366 0.930 . S
H358 C368 0.930 . S
H359 C371 0.929 . S
H360 C374 0.930 . S
H361 C376 0.960 . S
H362 C376 0.960 . S
H363 C376 0.960 . S
C364 H356 0.929 . S
C364 C365 1.377 1_556 S
C364 C366 1.384 . S
C365 C364 1.377 1_554 S
C365 C371 1.390 . S
C366 H357 0.930 . S
C366 C364 1.384 . S
C366 C367 1.372 1_556 S
C367 C366 1.372 1_554 S
C367 C368 1.400 . S
C367 C372 1.490 . S
C368 H358 0.930 . S
C368 C367 1.400 . S
C368 C371 1.386 . S
H369 C385 0.930 . S
H370 C386 0.931 . S
C371 H359 0.929 . S
C371 C365 1.390 . S
C371 C368 1.386 . S
C372 C367 1.490 . S
C372 C374 1.395 1_554 S
C372 C375 1.403 . S
H373 C379 0.930 . S
C374 H360 0.930 . S
C374 C372 1.395 1_556 S
C374 C377 1.403 . S
C375 C372 1.403 . S
C375 C376 1.524 . S
C375 C379 1.400 . S
C376 H361 0.960 . S
C376 H362 0.960 . S
C376 H363 0.960 . S
C376 C375 1.524 . S
C377 C374 1.403 . S
C377 C378 1.392 1_556 S
C377 C381 1.495 . S
C378 C377 1.392 1_554 S
C378 C379 1.385 . S
C378 C380 1.478 . S
C379 H373 0.930 . S
C379 C375 1.400 . S
C379 C378 1.385 . S
C380 C378 1.478 . S
C380 C382 1.381 1_554 S
C380 C386 1.383 . S
C381 C377 1.495 . S
C381 H387 0.959 . S
C381 H388 0.961 . S
C381 H389 0.960 . S
C382 C380 1.381 1_556 S
C382 C383 1.394 . S
C382 H390 0.930 . S
C383 C382 1.394 . S
C383 C384 1.383 1_556 S
C383 H391 0.929 . S
C384 C383 1.383 1_554 S
C384 C385 1.377 . S
C385 H369 0.930 . S
C385 C384 1.377 . S
C385 C386 1.379 . S
C386 H370 0.931 . S
C386 C380 1.383 . S
C386 C385 1.379 . S
H387 C381 0.959 . S
H388 C381 0.961 . S
H389 C381 0.960 . S
H390 C382 0.930 . S
H391 C383 0.929 . S
H392 C400 0.929 . S
H393 C402 0.930 . S
H394 C404 0.930 . S
H395 C407 0.929 . S
H396 C410 0.930 . S
H397 C412 0.960 . S
H398 C412 0.960 . S
H399 C412 0.960 . S
C400 H392 0.929 . S
C400 C401 1.377 . S
C400 C402 1.384 . S
C401 C400 1.377 . S
C401 C407 1.390 . S
C402 H393 0.930 . S
C402 C400 1.384 . S
C402 C403 1.372 . S
C403 C402 1.372 . S
C403 C404 1.400 . S
C403 C408 1.490 . S
C404 H394 0.930 . S
C404 C403 1.400 . S
C404 C407 1.386 . S
H405 C421 0.930 . S
H406 C422 0.931 . S
C407 H395 0.929 . S
C407 C401 1.390 . S
C407 C404 1.386 . S
C408 C403 1.490 . S
C408 C410 1.395 . S
C408 C411 1.403 . S
H409 C415 0.930 . S
C410 H396 0.930 . S
C410 C408 1.395 . S
C410 C413 1.403 . S
C411 C408 1.403 . S
C411 C412 1.524 . S
C411 C415 1.400 . S
C412 H397 0.960 . S
C412 H398 0.960 . S
C412 H399 0.960 . S
C412 C411 1.524 . S
C413 C410 1.403 . S
C413 C414 1.392 . S
C413 C417 1.495 . S
C414 C413 1.392 . S
C414 C415 1.385 . S
C414 C416 1.478 . S
C415 H409 0.930 . S
C415 C411 1.400 . S
C415 C414 1.385 . S
C416 C414 1.478 . S
C416 C418 1.381 . S
C416 C422 1.383 . S
C417 C413 1.495 . S
C417 H423 0.959 . S
C417 H424 0.961 . S
C417 H425 0.960 . S
C418 C416 1.381 . S
C418 C419 1.394 . S
C418 H426 0.930 . S
C419 C418 1.394 . S
C419 C420 1.383 . S
C419 H427 0.929 . S
C420 C419 1.383 . S
C420 C421 1.377 . S
C421 H405 0.930 . S
C421 C420 1.377 . S
C421 C422 1.379 . S
C422 H406 0.931 . S
C422 C416 1.383 . S
C422 C421 1.379 . S
H423 C417 0.959 . S
H424 C417 0.961 . S
H425 C417 0.960 . S
H426 C418 0.930 . S
H427 C419 0.929 . S
H428 C436 0.929 . S
H429 C438 0.930 . S
H430 C440 0.930 . S
H431 C443 0.929 . S
H432 C446 0.930 . S
H433 C448 0.960 . S
H434 C448 0.960 . S
H435 C448 0.960 . S
C436 H428 0.929 . S
C436 C437 1.377 . S
C436 C438 1.384 . S
C437 C436 1.377 . S
C437 C443 1.390 . S
C438 H429 0.930 . S
C438 C436 1.384 . S
C438 C439 1.372 . S
C439 C438 1.372 . S
C439 C440 1.400 . S
C439 C444 1.490 . S
C440 H430 0.930 . S
C440 C439 1.400 . S
C440 C443 1.386 . S
H441 C457 0.930 . S
H442 C458 0.931 . S
C443 H431 0.929 . S
C443 C437 1.390 . S
C443 C440 1.386 . S
C444 C439 1.490 . S
C444 C446 1.395 . S
C444 C447 1.403 . S
H445 C451 0.930 . S
C446 H432 0.930 . S
C446 C444 1.395 . S
C446 C449 1.403 . S
C447 C444 1.403 . S
C447 C448 1.524 . S
C447 C451 1.400 . S
C448 H433 0.960 . S
C448 H434 0.960 . S
C448 H435 0.960 . S
C448 C447 1.524 . S
C449 C446 1.403 . S
C449 C450 1.392 . S
C449 C453 1.495 . S
C450 C449 1.392 . S
C450 C451 1.385 . S
C450 C452 1.478 . S
C451 H445 0.930 . S
C451 C447 1.400 . S
C451 C450 1.385 . S
C452 C450 1.478 . S
C452 C454 1.381 . S
C452 C458 1.383 . S
C453 C449 1.495 . S
C453 H459 0.959 . S
C453 H460 0.961 . S
C453 H461 0.960 . S
C454 C452 1.381 . S
C454 C455 1.394 . S
C454 H462 0.930 . S
C455 C454 1.394 . S
C455 C456 1.383 . S
C455 H463 0.929 . S
C456 C455 1.383 . S
C456 C457 1.377 . S
C457 H441 0.930 . S
C457 C456 1.377 . S
C457 C458 1.379 . S
C458 H442 0.931 . S
C458 C452 1.383 . S
C458 C457 1.379 . S
H459 C453 0.959 . S
H460 C453 0.961 . S
H461 C453 0.960 . S
H462 C454 0.930 . S
H463 C455 0.929 . S
H464 C472 0.929 . S
H465 C474 0.930 . S
H466 C476 0.930 . S
H467 C479 0.929 . S
H468 C482 0.930 1_655 S
H469 C484 0.960 . S
H470 C484 0.960 1_655 S
H471 C484 0.960 1_655 S
C472 H464 0.929 . S
C472 C473 1.377 1_556 S
C472 C474 1.384 . S
C473 C472 1.377 1_554 S
C473 C479 1.390 . S
C474 H465 0.930 . S
C474 C472 1.384 . S
C474 C475 1.372 1_556 S
C475 C474 1.372 1_554 S
C475 C476 1.400 . S
C475 C480 1.490 . S
C476 H466 0.930 . S
C476 C475 1.400 . S
C476 C479 1.386 . S
H477 C493 0.930 . S
H478 C494 0.931 . S
C479 H467 0.929 . S
C479 C473 1.390 . S
C479 C476 1.386 . S
C480 C475 1.490 . S
C480 C482 1.395 1_654 S
C480 C483 1.403 1_655 S
H481 C487 0.930 . S
C482 H468 0.930 1_455 S
C482 C480 1.395 1_456 S
C482 C485 1.403 . S
C483 C480 1.403 1_455 S
C483 C484 1.524 . S
C483 C487 1.400 . S
C484 H469 0.960 . S
C484 H470 0.960 1_455 S
C484 H471 0.960 1_455 S
C484 C483 1.524 . S
C485 C482 1.403 . S
C485 C486 1.392 1_556 S
C485 C489 1.495 . S
C486 C485 1.392 1_554 S
C486 C487 1.385 . S
C486 C488 1.478 . S
C487 H481 0.930 . S
C487 C483 1.400 . S
C487 C486 1.385 . S
C488 C486 1.478 . S
C488 C490 1.381 1_554 S
C488 C494 1.383 . S
C489 C485 1.495 . S
C489 H495 0.959 . S
C489 H496 0.961 . S
C489 H497 0.960 . S
C490 C488 1.381 1_556 S
C490 C491 1.394 . S
C490 H498 0.930 . S
C491 C490 1.394 . S
C491 C492 1.383 1_556 S
C491 H499 0.929 . S
C492 C491 1.383 1_554 S
C492 C493 1.377 . S
C493 H477 0.930 . S
C493 C492 1.377 . S
C493 C494 1.379 . S
C494 H478 0.931 . S
C494 C488 1.383 . S
C494 C493 1.379 . S
H495 C489 0.959 . S
H496 C489 0.961 . S
H497 C489 0.960 . S
H498 C490 0.930 . S
H499 C491 0.929 . S
H500 C508 0.929 . S
H501 C510 0.930 . S
H502 C512 0.930 . S
H503 C515 0.929 . S
H504 C518 0.930 . S
H505 C520 0.960 1_655 S
H506 C520 0.960 1_554 S
H507 C520 0.960 . S
C508 H500 0.929 . S
C508 C509 1.377 . S
C508 C510 1.384 . S
C509 C508 1.377 . S
C509 C515 1.390 1_554 S
C510 H501 0.930 . S
C510 C508 1.384 . S
C510 C511 1.372 . S
C511 C510 1.372 . S
C511 C512 1.400 1_554 S
C511 C516 1.490 . S
C512 H502 0.930 . S
C512 C511 1.400 1_556 S
C512 C515 1.386 . S
H513 C529 0.930 . S
H514 C530 0.931 . S
C515 H503 0.929 . S
C515 C509 1.390 1_556 S
C515 C512 1.386 . S
C516 C511 1.490 . S
C516 C518 1.395 1_455 S
C516 C519 1.403 1_455 S
H517 C523 0.931 1_556 S
C518 H504 0.930 . S
C518 C516 1.395 1_655 S
C518 C521 1.403 . S
C519 C516 1.403 1_655 S
C519 C520 1.524 1_654 S
C519 C523 1.400 . S
C520 H505 0.960 1_455 S
C520 H506 0.960 1_556 S
C520 H507 0.960 . S
C520 C519 1.524 1_456 S
C521 C518 1.403 . S
C521 C522 1.392 . S
C521 C525 1.495 . S
C522 C521 1.392 . S
C522 C523 1.385 . S
C522 C524 1.478 . S
C523 H517 0.931 1_554 S
C523 C519 1.400 . S
C523 C522 1.385 . S
C524 C522 1.478 . S
C524 C526 1.381 . S
C524 C530 1.383 1_554 S
C525 C521 1.495 . S
C525 H531 0.959 . S
C525 H532 0.961 . S
C525 H533 0.960 . S
C526 C524 1.381 . S
C526 C527 1.394 . S
C526 H534 0.930 . S
C527 C526 1.394 . S
C527 C528 1.383 . S
C527 H535 0.929 . S
C528 C527 1.383 . S
C528 C529 1.377 1_554 S
C529 H513 0.930 . S
C529 C528 1.377 1_556 S
C529 C530 1.379 . S
C530 H514 0.931 . S
C530 C524 1.383 1_556 S
C530 C529 1.379 . S
H531 C525 0.959 . S
H532 C525 0.961 . S
H533 C525 0.960 . S
H534 C526 0.930 . S
H535 C527 0.929 . S
H536 C544 0.929 . S
H537 C546 0.930 . S
H538 C548 0.930 . S
H539 C551 0.929 . S
H540 C554 0.930 . S
H541 C556 0.960 . S
H542 C556 0.960 . S
H543 C556 0.960 . S
C544 H536 0.929 . S
C544 C545 1.377 . S
C544 C546 1.384 . S
C545 C544 1.377 . S
C545 C551 1.390 . S
C546 H537 0.930 . S
C546 C544 1.384 . S
C546 C547 1.372 . S
C547 C546 1.372 . S
C547 C548 1.400 . S
C547 C552 1.490 . S
C548 H538 0.930 . S
C548 C547 1.400 . S
C548 C551 1.386 . S
H549 C565 0.930 . S
H550 C566 0.931 . S
C551 H539 0.929 . S
C551 C545 1.390 . S
C551 C548 1.386 . S
C552 C547 1.490 . S
C552 C554 1.395 . S
C552 C555 1.403 . S
H553 C559 0.930 . S
C554 H540 0.930 . S
C554 C552 1.395 . S
C554 C557 1.403 . S
C555 C552 1.403 . S
C555 C556 1.524 . S
C555 C559 1.400 . S
C556 H541 0.960 . S
C556 H542 0.960 . S
C556 H543 0.960 . S
C556 C555 1.524 . S
C557 C554 1.403 . S
C557 C558 1.392 1_455 S
C557 C561 1.495 1_455 S
C558 C557 1.392 1_655 S
C558 C559 1.385 1_655 S
C558 C560 1.478 . S
C559 H553 0.930 . S
C559 C555 1.400 . S
C559 C558 1.385 1_455 S
C560 C558 1.478 . S
C560 C562 1.381 . S
C560 C566 1.383 . S
C561 C557 1.495 1_655 S
C561 H567 0.959 1_655 S
C561 H568 0.961 . S
C561 H569 0.960 . S
C562 C560 1.381 . S
C562 C563 1.394 . S
C562 H570 0.930 . S
C563 C562 1.394 . S
C563 C564 1.383 . S
C563 H571 0.929 . S
C564 C563 1.383 . S
C564 C565 1.377 . S
C565 H549 0.930 . S
C565 C564 1.377 . S
C565 C566 1.379 . S
C566 H550 0.931 . S
C566 C560 1.383 . S
C566 C565 1.379 . S
H567 C561 0.959 1_455 S
H568 C561 0.961 . S
H569 C561 0.960 . S
H570 C562 0.930 . S
H571 C563 0.929 . S
H572 C580 0.929 . S
H573 C582 0.930 . S
H574 C584 0.930 . S
H575 C587 0.929 . S
H576 C590 0.930 . S
H577 C592 0.960 . S
H578 C592 0.960 . S
H579 C592 0.960 . S
C580 H572 0.929 . S
C580 C581 1.377 . S
C580 C582 1.384 . S
C581 C580 1.377 . S
C581 C587 1.390 . S
C582 H573 0.930 . S
C582 C580 1.384 . S
C582 C583 1.372 . S
C583 C582 1.372 . S
C583 C584 1.400 . S
C583 C588 1.490 . S
C584 H574 0.930 . S
C584 C583 1.400 . S
C584 C587 1.386 . S
H585 C601 0.930 . S
H586 C602 0.931 . S
C587 H575 0.929 . S
C587 C581 1.390 . S
C587 C584 1.386 . S
C588 C583 1.490 . S
C588 C590 1.395 . S
C588 C591 1.403 . S
H589 C595 0.930 . S
C590 H576 0.930 . S
C590 C588 1.395 . S
C590 C593 1.403 . S
C591 C588 1.403 . S
C591 C592 1.524 . S
C591 C595 1.400 . S
C592 H577 0.960 . S
C592 H578 0.960 . S
C592 H579 0.960 . S
C592 C591 1.524 . S
C593 C590 1.403 . S
C593 C594 1.392 1_655 S
C593 C597 1.495 1_655 S
C594 C593 1.392 1_455 S
C594 C595 1.385 1_455 S
C594 C596 1.478 . S
C595 H589 0.930 . S
C595 C591 1.400 . S
C595 C594 1.385 1_655 S
C596 C594 1.478 . S
C596 C598 1.381 . S
C596 C602 1.383 . S
C597 C593 1.495 1_455 S
C597 H603 0.959 1_455 S
C597 H604 0.961 . S
C597 H605 0.960 . S
C598 C596 1.381 . S
C598 C599 1.394 . S
C598 H606 0.930 . S
C599 C598 1.394 . S
C599 C600 1.383 . S
C599 H607 0.929 . S
C600 C599 1.383 . S
C600 C601 1.377 . S
C601 H585 0.930 . S
C601 C600 1.377 . S
C601 C602 1.379 . S
C602 H586 0.931 . S
C602 C596 1.383 . S
C602 C601 1.379 . S
H603 C597 0.959 1_655 S
H604 C597 0.961 . S
H605 C597 0.960 . S
H606 C598 0.930 . S
H607 C599 0.929 . S
H608 C616 0.929 . S
H609 C618 0.930 1_655 S
H610 C620 0.930 . S
H611 C623 0.929 . S
H612 C626 0.930 . S
H613 C628 0.960 . S
H614 C628 0.960 . S
H615 C628 0.960 . S
C616 H608 0.929 . S
C616 C617 1.377 . S
C616 C618 1.384 . S
C617 C616 1.377 . S
C617 C623 1.390 1_554 S
C618 H609 0.930 1_455 S
C618 C616 1.384 . S
C618 C619 1.372 . S
C619 C618 1.372 . S
C619 C620 1.400 1_554 S
C619 C624 1.490 . S
C620 H610 0.930 . S
C620 C619 1.400 1_556 S
C620 C623 1.386 . S
H621 C637 0.930 . S
H622 C638 0.931 1_455 S
C623 H611 0.929 . S
C623 C617 1.390 1_556 S
C623 C620 1.386 . S
C624 C619 1.490 . S
C624 C626 1.395 1_454 S
C624 C627 1.403 . S
H625 C631 0.930 . S
C626 H612 0.930 . S
C626 C624 1.395 1_656 S
C626 C629 1.403 . S
C627 C624 1.403 . S
C627 C628 1.524 . S
C627 C631 1.400 . S
C628 H613 0.960 . S
C628 H614 0.960 . S
C628 H615 0.960 . S
C628 C627 1.524 . S
C629 C626 1.403 . S
C629 C630 1.392 1_556 S
C629 C633 1.495 . S
C630 C629 1.392 1_554 S
C630 C631 1.385 1_655 S
C630 C632 1.478 . S
C631 H625 0.930 . S
C631 C627 1.400 . S
C631 C630 1.385 1_455 S
C632 C630 1.478 . S
C632 C634 1.381 . S
C632 C638 1.383 1_554 S
C633 C629 1.495 . S
C633 H639 0.959 . S
C633 H640 0.961 . S
C633 H641 0.960 . S
C634 C632 1.381 . S
C634 C635 1.394 . S
C634 H642 0.930 . S
C635 C634 1.394 . S
C635 C636 1.383 . S
C635 H643 0.929 . S
C636 C635 1.383 . S
C636 C637 1.377 1_554 S
C637 H621 0.930 . S
C637 C636 1.377 1_556 S
C637 C638 1.379 . S
C638 H622 0.931 1_655 S
C638 C632 1.383 1_556 S
C638 C637 1.379 . S
H639 C633 0.959 . S
H640 C633 0.961 . S
H641 C633 0.960 . S
H642 C634 0.930 . S
H643 C635 0.929 . S
H644 C652 0.929 1_655 S
H645 C654 0.930 . S
H646 C656 0.930 . S
H647 C659 0.929 . S
H648 C662 0.930 . S
H649 C664 0.960 . S
H650 C664 0.960 . S
H651 C664 0.960 . S
C652 H644 0.929 1_455 S
C652 C653 1.377 . S
C652 C654 1.384 1_455 S
C653 C652 1.377 . S
C653 C659 1.390 . S
C654 H645 0.930 . S
C654 C652 1.384 1_655 S
C654 C655 1.372 1_655 S
C655 C654 1.372 1_455 S
C655 C656 1.400 . S
C655 C660 1.490 . S
C656 H646 0.930 . S
C656 C655 1.400 . S
C656 C659 1.386 . S
H657 C673 0.930 1_455 S
H658 C674 0.931 1_455 S
C659 H647 0.929 . S
C659 C653 1.390 . S
C659 C656 1.386 . S
C660 C655 1.490 . S
C660 C662 1.395 1_455 S
C660 C663 1.403 . S
H661 C667 0.930 . S
C662 H648 0.930 . S
C662 C660 1.395 1_655 S
C662 C665 1.403 . S
C663 C660 1.403 . S
C663 C664 1.524 . S
C663 C667 1.400 . S
C664 H649 0.960 . S
C664 H650 0.960 . S
C664 H651 0.960 . S
C664 C663 1.524 . S
C665 C662 1.403 . S
C665 C666 1.392 . S
C665 C669 1.495 . S
C666 C665 1.392 . S
C666 C667 1.385 1_655 S
C666 C668 1.478 . S
C667 H661 0.930 . S
C667 C663 1.400 . S
C667 C666 1.385 1_455 S
C668 C666 1.478 . S
C668 C670 1.381 . S
C668 C674 1.383 . S
C669 C665 1.495 . S
C669 H675 0.959 . S
C669 H676 0.961 . S
C669 H677 0.960 . S
C670 C668 1.381 . S
C670 C671 1.394 . S
C670 H678 0.930 . S
C671 C670 1.394 . S
C671 C672 1.383 . S
C671 H679 0.929 . S
C672 C671 1.383 . S
C672 C673 1.377 . S
C673 H657 0.930 1_655 S
C673 C672 1.377 . S
C673 C674 1.379 . S
C674 H658 0.931 1_655 S
C674 C668 1.383 . S
C674 C673 1.379 . S
H675 C669 0.959 . S
H676 C669 0.961 . S
H677 C669 0.960 . S
H678 C670 0.930 . S
H679 C671 0.929 . S
H680 C688 0.929 . S
H681 C690 0.930 . S
H682 C692 0.930 . S
H683 C695 0.929 . S
H684 C698 0.930 . S
H685 C700 0.960 . S
H686 C700 0.960 . S
H687 C700 0.960 . S
C688 H680 0.929 . S
C688 C689 1.377 1_556 S
C688 C690 1.384 . S
C689 C688 1.377 1_554 S
C689 C695 1.390 . S
C690 H681 0.930 . S
C690 C688 1.384 . S
C690 C691 1.372 1_556 S
C691 C690 1.372 1_554 S
C691 C692 1.400 . S
C691 C696 1.490 . S
C692 H682 0.930 . S
C692 C691 1.400 . S
C692 C695 1.386 . S
H693 C709 0.930 . S
H694 C710 0.931 . S
C695 H683 0.929 . S
C695 C689 1.390 . S
C695 C692 1.386 . S
C696 C691 1.490 . S
C696 C698 1.395 1_554 S
C696 C699 1.403 . S
H697 C703 0.930 . S
C698 H684 0.930 . S
C698 C696 1.395 1_556 S
C698 C701 1.403 1_565 S
C699 C696 1.403 . S
C699 C700 1.524 . S
C699 C703 1.400 1_565 S
C700 H685 0.960 . S
C700 H686 0.960 . S
C700 H687 0.960 . S
C700 C699 1.524 . S
C701 C698 1.403 1_545 S
C701 C702 1.392 1_556 S
C701 C705 1.495 . S
C702 C701 1.392 1_554 S
C702 C703 1.385 . S
C702 C704 1.479 . S
C703 H697 0.930 . S
C703 C699 1.400 1_545 S
C703 C702 1.385 . S
C704 C702 1.479 . S
C704 C706 1.367 1_554 S
C704 C710 1.396 . S
C705 C701 1.495 . S
C705 H711 0.959 . S
C705 H712 0.961 . S
C705 H713 0.960 . S
C706 C704 1.367 1_556 S
C706 C707 1.394 . S
C706 H714 0.930 . S
C707 C706 1.394 . S
C707 C708 1.363 1_556 S
C707 H715 0.929 . S
C708 C707 1.363 1_554 S
C708 C709 1.397 . S
C709 H693 0.930 . S
C709 C708 1.397 . S
C709 C710 1.379 . S
C710 H694 0.931 . S
C710 C704 1.396 . S
C710 C709 1.379 . S
H711 C705 0.959 . S
H712 C705 0.961 . S
H713 C705 0.960 . S
H714 C706 0.930 . S
H715 C707 0.929 . S
H716 C724 0.929 . S
H717 C726 0.930 . S
H718 C728 0.930 . S
H719 C731 0.929 . S
H720 C734 0.930 . S
H721 C736 0.960 . S
H722 C736 0.960 . S
H723 C736 0.960 . S
C724 H716 0.929 . S
C724 C725 1.377 . S
C724 C726 1.384 . S
C725 C724 1.377 . S
C725 C731 1.390 . S
C726 H717 0.930 . S
C726 C724 1.384 . S
C726 C727 1.372 . S
C727 C726 1.372 . S
C727 C728 1.400 . S
C727 C732 1.490 . S
C728 H718 0.930 . S
C728 C727 1.400 . S
C728 C731 1.386 . S
H729 C745 0.930 . S
H730 C746 0.931 . S
C731 H719 0.929 . S
C731 C725 1.390 . S
C731 C728 1.386 . S
C732 C727 1.490 . S
C732 C734 1.395 . S
C732 C735 1.403 . S
H733 C739 0.930 . S
C734 H720 0.930 . S
C734 C732 1.395 . S
C734 C737 1.403 1_545 S
C735 C732 1.403 . S
C735 C736 1.524 . S
C735 C739 1.400 1_545 S
C736 H721 0.960 . S
C736 H722 0.960 . S
C736 H723 0.960 . S
C736 C735 1.524 . S
C737 C734 1.403 1_565 S
C737 C738 1.392 . S
C737 C741 1.495 . S
C738 C737 1.392 . S
C738 C739 1.385 . S
C738 C740 1.478 . S
C739 H733 0.930 . S
C739 C735 1.400 1_565 S
C739 C738 1.385 . S
C740 C738 1.478 . S
C740 C742 1.381 . S
C740 C746 1.383 . S
C741 C737 1.495 . S
C741 H747 0.959 . S
C741 H748 0.961 . S
C741 H749 0.960 . S
C742 C740 1.381 . S
C742 C743 1.394 . S
C742 H750 0.930 . S
C743 C742 1.394 . S
C743 C744 1.383 . S
C743 H751 0.929 . S
C744 C743 1.383 . S
C744 C745 1.377 . S
C745 H729 0.930 . S
C745 C744 1.377 . S
C745 C746 1.379 . S
C746 H730 0.931 . S
C746 C740 1.383 . S
C746 C745 1.379 . S
H747 C741 0.959 . S
H748 C741 0.961 . S
H749 C741 0.960 . S
H750 C742 0.930 . S
H751 C743 0.929 . S
H752 C760 0.929 . S
H753 C762 0.930 . S
H754 C764 0.930 . S
H755 C767 0.929 . S
H756 C770 0.930 . S
H757 C772 0.960 . S
H758 C772 0.960 . S
H759 C772 0.960 . S
C760 H752 0.929 . S
C760 C761 1.377 1_556 S
C760 C762 1.384 . S
C761 C760 1.377 1_554 S
C761 C767 1.390 . S
C762 H753 0.930 . S
C762 C760 1.384 . S
C762 C763 1.372 1_556 S
C763 C762 1.372 1_554 S
C763 C764 1.400 . S
C763 C768 1.490 . S
C764 H754 0.930 . S
C764 C763 1.400 . S
C764 C767 1.386 . S
H765 C781 0.930 . S
H766 C782 0.931 . S
C767 H755 0.929 . S
C767 C761 1.390 . S
C767 C764 1.386 . S
C768 C763 1.490 . S
C768 C770 1.395 1_554 S
C768 C771 1.403 . S
H769 C775 0.930 . S
C770 H756 0.930 . S
C770 C768 1.395 1_556 S
C770 C773 1.403 . S
C771 C768 1.403 . S
C771 C772 1.524 . S
C771 C775 1.400 . S
C772 H757 0.960 . S
C772 H758 0.960 . S
C772 H759 0.960 . S
C772 C771 1.524 . S
C773 C770 1.403 . S
C773 C774 1.392 1_556 S
C773 C777 1.495 . S
C774 C773 1.392 1_554 S
C774 C775 1.385 . S
C774 C776 1.478 . S
C775 H769 0.930 . S
C775 C771 1.400 . S
C775 C774 1.385 . S
C776 C774 1.478 . S
C776 C778 1.381 1_554 S
C776 C782 1.383 . S
C777 C773 1.495 . S
C777 H783 0.959 . S
C777 H784 0.961 . S
C777 H785 0.960 . S
C778 C776 1.381 1_556 S
C778 C779 1.394 . S
C778 H786 0.930 . S
C779 C778 1.394 . S
C779 C780 1.384 1_556 S
C779 H787 0.929 . S
C780 C779 1.384 1_554 S
C780 C781 1.377 . S
C781 H765 0.930 . S
C781 C780 1.377 . S
C781 C782 1.379 . S
C782 H766 0.931 . S
C782 C776 1.383 . S
C782 C781 1.379 . S
H783 C777 0.959 . S
H784 C777 0.961 . S
H785 C777 0.960 . S
H786 C778 0.930 . S
H787 C779 0.929 . S
H788 C796 0.929 . S
H789 C798 0.930 . S
H790 C800 0.930 . S
H791 C803 0.929 1_556 S
H792 C806 0.930 . S
H793 C808 0.960 . S
H794 C808 0.960 . S
H795 C808 0.960 . S
C796 H788 0.929 . S
C796 C797 1.377 . S
C796 C798 1.384 . S
C797 C796 1.377 . S
C797 C803 1.390 . S
C798 H789 0.930 . S
C798 C796 1.384 . S
C798 C799 1.372 . S
C799 C798 1.372 . S
C799 C800 1.400 . S
C799 C804 1.490 . S
C800 H790 0.930 . S
C800 C799 1.400 . S
C800 C803 1.386 . S
H801 C817 0.930 . S
H802 C818 0.931 1_556 S
C803 H791 0.929 1_554 S
C803 C797 1.390 . S
C803 C800 1.386 . S
C804 C799 1.490 . S
C804 C806 1.395 1_554 S
C804 C807 1.403 . S
H805 C811 0.930 . S
C806 H792 0.930 . S
C806 C804 1.395 1_556 S
C806 C809 1.403 . S
C807 C804 1.403 . S
C807 C808 1.524 . S
C807 C811 1.400 . S
C808 H793 0.960 . S
C808 H794 0.960 . S
C808 H795 0.960 . S
C808 C807 1.524 . S
C809 C806 1.403 . S
C809 C810 1.392 1_556 S
C809 C813 1.495 . S
C810 C809 1.392 1_554 S
C810 C811 1.385 . S
C810 C812 1.478 . S
C811 H805 0.930 . S
C811 C807 1.400 . S
C811 C810 1.385 . S
C812 C810 1.478 . S
C812 C814 1.381 . S
C812 C818 1.383 . S
C813 C809 1.495 . S
C813 H819 0.959 . S
C813 H820 0.961 . S
C813 H821 0.960 . S
C814 C812 1.381 . S
C814 C815 1.394 . S
C814 H822 0.930 . S
C815 C814 1.394 . S
C815 C816 1.383 . S
C815 H823 0.929 . S
C816 C815 1.383 . S
C816 C817 1.377 . S
C817 H801 0.930 . S
C817 C816 1.377 . S
C817 C818 1.379 . S
C818 H802 0.931 1_554 S
C818 C812 1.383 . S
C818 C817 1.379 . S
H819 C813 0.959 . S
H820 C813 0.961 . S
H821 C813 0.960 . S
H822 C814 0.930 . S
H823 C815 0.929 . S
H824 C832 0.929 . S
H825 C834 0.930 . S
H826 C836 0.930 . S
H827 C839 0.929 . S
H828 C842 0.930 . S
H829 C844 0.960 . S
H830 C844 0.960 . S
H831 C844 0.960 . S
C832 H824 0.929 . S
C832 C833 1.377 . S
C832 C834 1.384 . S
C833 C832 1.377 . S
C833 C839 1.390 . S
C834 H825 0.930 . S
C834 C832 1.384 . S
C834 C835 1.372 . S
C835 C834 1.372 . S
C835 C836 1.400 . S
C835 C840 1.490 . S
C836 H826 0.930 . S
C836 C835 1.400 . S
C836 C839 1.386 . S
H837 C853 0.930 . S
H838 C854 0.931 . S
C839 H827 0.929 . S
C839 C833 1.390 . S
C839 C836 1.386 . S
C840 C835 1.490 . S
C840 C842 1.395 . S
C840 C843 1.403 . S
H841 C847 0.930 . S
C842 H828 0.930 . S
C842 C840 1.395 . S
C842 C845 1.403 . S
C843 C840 1.403 . S
C843 C844 1.524 . S
C843 C847 1.400 . S
C844 H829 0.960 . S
C844 H830 0.960 . S
C844 H831 0.960 . S
C844 C843 1.524 . S
C845 C842 1.403 . S
C845 C846 1.392 . S
C845 C849 1.495 . S
C846 C845 1.392 . S
C846 C847 1.385 . S
C846 C848 1.478 . S
C847 H841 0.930 . S
C847 C843 1.400 . S
C847 C846 1.385 . S
C848 C846 1.478 . S
C848 C850 1.381 . S
C848 C854 1.383 . S
C849 C845 1.495 . S
C849 H855 0.959 . S
C849 H856 0.961 . S
C849 H857 0.960 . S
C850 C848 1.381 . S
C850 C851 1.394 . S
C850 H858 0.930 . S
C851 C850 1.394 . S
C851 C852 1.383 . S
C851 H859 0.929 . S
C852 C851 1.383 . S
C852 C853 1.377 . S
C853 H837 0.930 . S
C853 C852 1.377 . S
C853 C854 1.379 . S
C854 H838 0.931 . S
C854 C848 1.383 . S
C854 C853 1.379 . S
H855 C849 0.959 . S
H856 C849 0.961 . S
H857 C849 0.960 . S
H858 C850 0.930 . S
H859 C851 0.929 . S
H860 C868 0.929 . S
H861 C870 0.930 . S
H862 C872 0.930 . S
H863 C875 0.929 . S
H864 C878 0.930 . S
H865 C880 0.960 . S
H866 C880 0.960 . S
H867 C880 0.960 . S
C868 H860 0.929 . S
C868 C869 1.377 . S
C868 C870 1.384 . S
C869 C868 1.377 . S
C869 C875 1.390 . S
C870 H861 0.930 . S
C870 C868 1.384 . S
C870 C871 1.372 . S
C871 C870 1.372 . S
C871 C872 1.400 . S
C871 C876 1.490 . S
C872 H862 0.930 . S
C872 C871 1.400 . S
C872 C875 1.386 . S
H873 C889 0.930 . S
H874 C890 0.931 . S
C875 H863 0.929 . S
C875 C869 1.390 . S
C875 C872 1.386 . S
C876 C871 1.490 . S
C876 C878 1.395 . S
C876 C879 1.403 . S
H877 C883 0.930 . S
C878 H864 0.930 . S
C878 C876 1.395 . S
C878 C881 1.403 . S
C879 C876 1.403 . S
C879 C880 1.524 . S
C879 C883 1.400 . S
C880 H865 0.960 . S
C880 H866 0.960 . S
C880 H867 0.960 . S
C880 C879 1.524 . S
C881 C878 1.403 . S
C881 C882 1.392 . S
C881 C885 1.495 . S
C882 C881 1.392 . S
C882 C883 1.385 . S
C882 C884 1.478 . S
C883 H877 0.930 . S
C883 C879 1.400 . S
C883 C882 1.385 . S
C884 C882 1.478 . S
C884 C886 1.381 . S
C884 C890 1.383 . S
C885 C881 1.495 . S
C885 H891 0.959 . S
C885 H892 0.961 . S
C885 H893 0.960 . S
C886 C884 1.381 . S
C886 C887 1.394 . S
C886 H894 0.930 . S
C887 C886 1.394 . S
C887 C888 1.383 . S
C887 H895 0.929 . S
C888 C887 1.383 . S
C888 C889 1.377 . S
C889 H873 0.930 . S
C889 C888 1.377 . S
C889 C890 1.379 . S
C890 H874 0.931 . S
C890 C884 1.383 . S
C890 C889 1.379 . S
H891 C885 0.959 . S
H892 C885 0.961 . S
H893 C885 0.960 . S
H894 C886 0.930 . S
H895 C887 0.929 . S
H896 C904 0.929 . S
H897 C906 0.930 . S
H898 C908 0.930 . S
H899 C911 0.929 . S
H900 C914 0.930 . S
H901 C916 0.960 . S
H902 C916 0.960 . S
H903 C916 0.960 . S
C904 H896 0.929 . S
C904 C905 1.377 . S
C904 C906 1.384 . S
C905 C904 1.377 . S
C905 C911 1.390 . S
C906 H897 0.930 . S
C906 C904 1.384 . S
C906 C907 1.372 . S
C907 C906 1.372 . S
C907 C908 1.400 . S
C907 C912 1.490 . S
C908 H898 0.930 . S
C908 C907 1.400 . S
C908 C911 1.386 . S
H909 C925 0.930 . S
H910 C926 0.931 . S
C911 H899 0.929 . S
C911 C905 1.390 . S
C911 C908 1.386 . S
C912 C907 1.490 . S
C912 C914 1.395 1_455 S
C912 C915 1.403 . S
H913 C919 0.930 . S
C914 H900 0.930 . S
C914 C912 1.395 1_655 S
C914 C917 1.403 . S
C915 C912 1.403 . S
C915 C916 1.524 . S
C915 C919 1.400 . S
C916 H901 0.960 . S
C916 H902 0.960 . S
C916 H903 0.960 . S
C916 C915 1.524 . S
C917 C914 1.403 . S
C917 C918 1.392 . S
C917 C921 1.495 . S
C918 C917 1.392 . S
C918 C919 1.385 1_655 S
C918 C920 1.478 . S
C919 H913 0.930 . S
C919 C915 1.400 . S
C919 C918 1.385 1_455 S
C920 C918 1.478 . S
C920 C922 1.381 . S
C920 C926 1.383 . S
C921 C917 1.495 . S
C921 H927 0.959 . S
C921 H928 0.961 . S
C921 H929 0.960 . S
C922 C920 1.381 . S
C922 C923 1.394 . S
C922 H930 0.930 . S
C923 C922 1.394 . S
C923 C924 1.383 . S
C923 H931 0.929 . S
C924 C923 1.383 . S
C924 C925 1.377 . S
C925 H909 0.930 . S
C925 C924 1.377 . S
C925 C926 1.379 . S
C926 H910 0.931 . S
C926 C920 1.383 . S
C926 C925 1.379 . S
H927 C921 0.959 . S
H928 C921 0.961 . S
H929 C921 0.960 . S
H930 C922 0.930 . S
H931 C923 0.929 . S
H932 C940 0.929 . S
H933 C942 0.930 . S
H934 C944 0.930 1_455 S
H935 C947 0.932 . S
H936 C950 0.930 . S
H937 C952 0.960 . S
H938 C952 0.960 . S
H939 C952 0.960 . S
C940 H932 0.929 . S
C940 C941 1.377 . S
C940 C942 1.384 . S
C941 C940 1.377 . S
C941 C947 1.390 . S
C942 H933 0.930 . S
C942 C940 1.384 . S
C942 C943 1.372 . S
C943 C942 1.372 . S
C943 C944 1.400 . S
C943 C948 1.490 . S
C944 H934 0.930 1_655 S
C944 C943 1.400 . S
C944 C947 1.386 . S
H945 C961 0.930 . S
H946 C962 0.931 . S
C947 H935 0.932 . S
C947 C941 1.390 . S
C947 C944 1.386 . S
C948 C943 1.490 . S
C948 C950 1.395 . S
C948 C951 1.403 1_655 S
H949 C955 0.930 . S
C950 H936 0.930 . S
C950 C948 1.395 . S
C950 C953 1.403 . S
C951 C948 1.403 1_455 S
C951 C952 1.524 . S
C951 C955 1.400 . S
C952 H937 0.960 . S
C952 H938 0.960 . S
C952 H939 0.960 . S
C952 C951 1.524 . S
C953 C950 1.403 . S
C953 C954 1.384 1_655 S
C953 C957 1.495 . S
C954 C953 1.384 1_455 S
C954 C955 1.393 . S
C954 C956 1.479 . S
C955 H949 0.930 . S
C955 C951 1.400 . S
C955 C954 1.393 . S
C956 C954 1.479 . S
C956 C958 1.381 1_455 S
C956 C962 1.383 . S
C957 C953 1.495 . S
C957 H963 0.959 . S
C957 H964 0.961 . S
C957 H965 0.960 . S
C958 C956 1.381 1_655 S
C958 C959 1.394 1_655 S
C958 H966 0.930 . S
C959 C958 1.394 1_455 S
C959 C960 1.383 . S
C959 H967 0.929 . S
C960 C959 1.383 . S
C960 C961 1.377 . S
C961 H945 0.930 . S
C961 C960 1.377 . S
C961 C962 1.379 . S
C962 H946 0.931 . S
C962 C956 1.383 . S
C962 C961 1.379 . S
H963 C957 0.959 . S
H964 C957 0.961 . S
H965 C957 0.960 . S
H966 C958 0.930 . S
H967 C959 0.929 . S
H968 C976 0.929 . S
H969 C978 0.930 . S
H970 C980 0.930 1_455 S
H971 C983 0.929 1_455 S
H972 C986 0.930 . S
H973 C988 0.960 . S
H974 C988 0.960 . S
H975 C988 0.960 . S
C976 H968 0.929 . S
C976 C977 1.377 . S
C976 C978 1.384 . S
C977 C976 1.377 . S
C977 C983 1.390 . S
C978 H969 0.930 . S
C978 C976 1.384 . S
C978 C979 1.372 . S
C979 C978 1.372 . S
C979 C980 1.400 . S
C979 C984 1.490 . S
C980 H970 0.930 1_655 S
C980 C979 1.400 . S
C980 C983 1.386 . S
H981 C997 0.930 . S
H982 C998 0.931 . S
C983 H971 0.929 1_655 S
C983 C977 1.390 . S
C983 C980 1.386 . S
C984 C979 1.490 . S
C984 C986 1.395 1_655 S
C984 C987 1.403 . S
H985 C991 0.930 . S
C986 H972 0.930 . S
C986 C984 1.395 1_455 S
C986 C989 1.403 . S
C987 C984 1.403 . S
C987 C988 1.524 . S
C987 C991 1.400 . S
C988 H973 0.960 . S
C988 H974 0.960 . S
C988 H975 0.960 . S
C988 C987 1.524 . S
C989 C986 1.403 . S
C989 C990 1.392 . S
C989 C993 1.495 . S
C990 C989 1.392 . S
C990 C991 1.385 1_455 S
C990 C992 1.478 . S
C991 H985 0.930 . S
C991 C987 1.400 . S
C991 C990 1.385 1_655 S
C992 C990 1.478 . S
C992 C994 1.385 . S
C992 C998 1.383 . S
C993 C989 1.495 . S
C993 H999 0.959 . S
C993 H1000 0.961 . S
C993 H1001 0.960 . S
C994 C992 1.385 . S
C994 C995 1.397 . S
C994 H1002 0.924 1_455 S
C995 C994 1.397 . S
C995 C996 1.383 . S
C995 H1003 0.929 1_455 S
C996 C995 1.383 . S
C996 C997 1.377 . S
C997 H981 0.930 . S
C997 C996 1.377 . S
C997 C998 1.379 . S
C998 H982 0.931 . S
C998 C992 1.383 . S
C998 C997 1.379 . S
H999 C993 0.959 . S
H1000 C993 0.961 . S
H1001 C993 0.960 . S
H1002 C994 0.924 1_655 S
H1003 C995 0.929 1_655 S
H1004 C1012 0.929 . S
H1005 C1014 0.930 . S
H1006 C1016 0.930 . S
H1007 C1019 0.929 . S
H1008 C1022 0.930 . S
H1009 C1024 0.960 . S
H1010 C1024 0.960 . S
H1011 C1024 0.960 . S
C1012 H1004 0.929 . S
C1012 C1013 1.377 1_455 S
C1012 C1014 1.384 . S
C1013 C1012 1.377 1_655 S
C1013 C1019 1.390 . S
C1014 H1005 0.930 . S
C1014 C1012 1.384 . S
C1014 C1015 1.372 1_455 S
C1015 C1014 1.372 1_655 S
C1015 C1016 1.400 . S
C1015 C1020 1.490 . S
C1016 H1006 0.930 . S
C1016 C1015 1.400 . S
C1016 C1019 1.386 . S
H1017 C1033 0.930 1_655 S
H1018 C1034 0.931 . S
C1019 H1007 0.929 . S
C1019 C1013 1.390 . S
C1019 C1016 1.386 . S
C1020 C1015 1.490 . S
C1020 C1022 1.395 1_655 S
C1020 C1023 1.403 . S
H1021 C1027 0.930 . S
C1022 H1008 0.930 . S
C1022 C1020 1.395 1_455 S
C1022 C1025 1.403 . S
C1023 C1020 1.403 . S
C1023 C1024 1.524 . S
C1023 C1027 1.400 . S
C1024 H1009 0.960 . S
C1024 H1010 0.960 . S
C1024 H1011 0.960 . S
C1024 C1023 1.524 . S
C1025 C1022 1.403 . S
C1025 C1026 1.392 . S
C1025 C1029 1.495 . S
C1026 C1025 1.392 . S
C1026 C1027 1.385 1_455 S
C1026 C1028 1.478 . S
C1027 H1021 0.930 . S
C1027 C1023 1.400 . S
C1027 C1026 1.385 1_655 S
C1028 C1026 1.478 . S
C1028 C1030 1.381 . S
C1028 C1034 1.383 1_455 S
C1029 C1025 1.495 . S
C1029 H1035 0.959 . S
C1029 H1036 0.961 . S
C1029 H1037 0.960 . S
C1030 C1028 1.381 . S
C1030 C1031 1.394 . S
C1030 H1038 0.930 . S
C1031 C1030 1.394 . S
C1031 C1032 1.383 . S
C1031 H1039 0.929 . S
C1032 C1031 1.383 . S
C1032 C1033 1.377 . S
C1033 H1017 0.930 1_455 S
C1033 C1032 1.377 . S
C1033 C1034 1.379 1_455 S
C1034 H1018 0.931 . S
C1034 C1028 1.383 1_655 S
C1034 C1033 1.379 1_655 S
H1035 C1029 0.959 . S
H1036 C1029 0.961 . S
H1037 C1029 0.960 . S
H1038 C1030 0.930 . S
H1039 C1031 0.929 . S
H1040 C1048 0.929 . S
H1041 C1050 0.930 . S
H1042 C1052 0.930 . S
H1043 C1055 0.929 . S
H1044 C1058 0.930 . S
H1045 C1060 0.960 . S
H1046 C1060 0.960 . S
H1047 C1060 0.960 . S
C1048 H1040 0.929 . S
C1048 C1049 1.377 . S
C1048 C1050 1.384 . S
C1049 C1048 1.377 . S
C1049 C1055 1.390 . S
C1050 H1041 0.930 . S
C1050 C1048 1.384 . S
C1050 C1051 1.372 . S
C1051 C1050 1.372 . S
C1051 C1052 1.400 . S
C1051 C1056 1.490 . S
C1052 H1042 0.930 . S
C1052 C1051 1.400 . S
C1052 C1055 1.386 . S
H1053 C1069 0.930 . S
H1054 C1070 0.931 . S
C1055 H1043 0.929 . S
C1055 C1049 1.390 . S
C1055 C1052 1.386 . S
C1056 C1051 1.490 . S
C1056 C1058 1.395 . S
C1056 C1059 1.403 . S
H1057 C1063 0.930 . S
C1058 H1044 0.930 . S
C1058 C1056 1.395 . S
C1058 C1061 1.403 . S
C1059 C1056 1.403 . S
C1059 C1060 1.524 . S
C1059 C1063 1.400 . S
C1060 H1045 0.960 . S
C1060 H1046 0.960 . S
C1060 H1047 0.960 . S
C1060 C1059 1.524 . S
C1061 C1058 1.403 . S
C1061 C1062 1.392 . S
C1061 C1065 1.495 . S
C1062 C1061 1.392 . S
C1062 C1063 1.385 . S
C1062 C1064 1.478 . S
C1063 H1057 0.930 . S
C1063 C1059 1.400 . S
C1063 C1062 1.385 . S
C1064 C1062 1.478 . S
C1064 C1066 1.381 . S
C1064 C1070 1.383 . S
C1065 C1061 1.495 . S
C1065 H1071 0.959 . S
C1065 H1072 0.961 . S
C1065 H1073 0.960 . S
C1066 C1064 1.381 . S
C1066 C1067 1.394 . S
C1066 H1074 0.930 . S
C1067 C1066 1.394 . S
C1067 C1068 1.383 . S
C1067 H1075 0.929 . S
C1068 C1067 1.383 . S
C1068 C1069 1.377 . S
C1069 H1053 0.930 . S
C1069 C1068 1.377 . S
C1069 C1070 1.379 . S
C1070 H1054 0.931 . S
C1070 C1064 1.383 . S
C1070 C1069 1.379 . S
H1071 C1065 0.959 . S
H1072 C1065 0.961 . S
H1073 C1065 0.960 . S
H1074 C1066 0.930 . S
H1075 C1067 0.929 . S
H1076 C1084 0.929 . S
H1077 C1086 0.930 . S
H1078 C1088 0.930 . S
H1079 C1091 0.929 . S
H1080 C1094 0.930 . S
H1081 C1096 0.960 . S
H1082 C1096 0.960 . S
H1083 C1096 0.960 . S
C1084 H1076 0.929 . S
C1084 C1085 1.377 . S
C1084 C1086 1.384 . S
C1085 C1084 1.377 . S
C1085 C1091 1.390 . S
C1086 H1077 0.930 . S
C1086 C1084 1.384 . S
C1086 C1087 1.372 . S
C1087 C1086 1.372 . S
C1087 C1088 1.400 . S
C1087 C1092 1.490 . S
C1088 H1078 0.930 . S
C1088 C1087 1.400 . S
C1088 C1091 1.386 . S
H1089 C1105 0.930 . S
H1090 C1106 0.931 . S
C1091 H1079 0.929 . S
C1091 C1085 1.390 . S
C1091 C1088 1.386 . S
C1092 C1087 1.490 . S
C1092 C1094 1.395 . S
C1092 C1095 1.403 . S
H1093 C1099 0.930 . S
C1094 H1080 0.930 . S
C1094 C1092 1.395 . S
C1094 C1097 1.403 . S
C1095 C1092 1.403 . S
C1095 C1096 1.524 . S
C1095 C1099 1.400 . S
C1096 H1081 0.960 . S
C1096 H1082 0.960 . S
C1096 H1083 0.960 . S
C1096 C1095 1.524 . S
C1097 C1094 1.403 . S
C1097 C1098 1.392 . S
C1097 C1101 1.495 . S
C1098 C1097 1.392 . S
C1098 C1099 1.385 . S
C1098 C1100 1.478 . S
C1099 H1093 0.930 . S
C1099 C1095 1.400 . S
C1099 C1098 1.385 . S
C1100 C1098 1.478 . S
C1100 C1102 1.381 . S
C1100 C1106 1.383 . S
C1101 C1097 1.495 . S
C1101 H1107 0.959 . S
C1101 H1108 0.961 . S
C1101 H1109 0.960 . S
C1102 C1100 1.381 . S
C1102 C1103 1.394 . S
C1102 H1110 0.930 . S
C1103 C1102 1.394 . S
C1103 C1104 1.383 . S
C1103 H1111 0.929 . S
C1104 C1103 1.383 . S
C1104 C1105 1.377 . S
C1105 H1089 0.930 . S
C1105 C1104 1.377 . S
C1105 C1106 1.379 . S
C1106 H1090 0.931 . S
C1106 C1100 1.383 . S
C1106 C1105 1.379 . S
H1107 C1101 0.959 . S
H1108 C1101 0.961 . S
H1109 C1101 0.960 . S
H1110 C1102 0.930 . S
H1111 C1103 0.929 . S
H1112 C1120 0.929 . S
H1113 C1122 0.930 . S
H1114 C1124 0.930 . S
H1115 C1127 0.929 . S
H1116 C1130 0.930 . S
H1117 C1132 0.960 . S
H1118 C1132 0.960 . S
H1119 C1132 0.960 . S
C1120 H1112 0.929 . S
C1120 C1121 1.377 . S
C1120 C1122 1.384 . S
C1121 C1120 1.377 . S
C1121 C1127 1.390 . S
C1122 H1113 0.930 . S
C1122 C1120 1.384 . S
C1122 C1123 1.372 . S
C1123 C1122 1.372 . S
C1123 C1124 1.400 . S
C1123 C1128 1.490 . S
C1124 H1114 0.930 . S
C1124 C1123 1.400 . S
C1124 C1127 1.386 . S
H1125 C1141 0.930 . S
H1126 C1142 0.931 . S
C1127 H1115 0.929 . S
C1127 C1121 1.390 . S
C1127 C1124 1.386 . S
C1128 C1123 1.490 . S
C1128 C1130 1.395 . S
C1128 C1131 1.403 . S
H1129 C1135 0.930 . S
C1130 H1116 0.930 . S
C1130 C1128 1.395 . S
C1130 C1133 1.403 . S
C1131 C1128 1.403 . S
C1131 C1132 1.524 . S
C1131 C1135 1.400 . S
C1132 H1117 0.960 . S
C1132 H1118 0.960 . S
C1132 H1119 0.960 . S
C1132 C1131 1.524 . S
C1133 C1130 1.403 . S
C1133 C1134 1.392 . S
C1133 C1137 1.495 . S
C1134 C1133 1.392 . S
C1134 C1135 1.385 . S
C1134 C1136 1.478 . S
C1135 H1129 0.930 . S
C1135 C1131 1.400 . S
C1135 C1134 1.385 . S
C1136 C1134 1.478 . S
C1136 C1138 1.381 . S
C1136 C1142 1.383 . S
C1137 C1133 1.495 . S
C1137 H1143 0.959 . S
C1137 H1144 0.961 . S
C1137 H1145 0.960 . S
C1138 C1136 1.381 . S
C1138 C1139 1.394 . S
C1138 H1146 0.930 . S
C1139 C1138 1.394 . S
C1139 C1140 1.383 . S
C1139 H1147 0.929 . S
C1140 C1139 1.383 . S
C1140 C1141 1.377 . S
C1141 H1125 0.930 . S
C1141 C1140 1.377 . S
C1141 C1142 1.379 . S
C1142 H1126 0.931 . S
C1142 C1136 1.383 . S
C1142 C1141 1.379 . S
H1143 C1137 0.959 . S
H1144 C1137 0.961 . S
H1145 C1137 0.960 . S
H1146 C1138 0.930 . S
H1147 C1139 0.929 . S
H1148 C1156 0.929 . S
H1149 C1158 0.930 . S
H1150 C1160 0.930 . S
H1151 C1163 0.929 . S
H1152 C1166 0.930 . S
H1153 C1168 0.960 . S
H1154 C1168 0.960 . S
H1155 C1168 0.960 . S
C1156 H1148 0.929 . S
C1156 C1157 1.377 . S
C1156 C1158 1.384 . S
C1157 C1156 1.377 . S
C1157 C1163 1.390 . S
C1158 H1149 0.930 . S
C1158 C1156 1.384 . S
C1158 C1159 1.372 . S
C1159 C1158 1.372 . S
C1159 C1160 1.400 . S
C1159 C1164 1.490 . S
C1160 H1150 0.930 . S
C1160 C1159 1.400 . S
C1160 C1163 1.386 . S
H1161 C1177 0.930 . S
H1162 C1178 0.931 . S
C1163 H1151 0.929 . S
C1163 C1157 1.390 . S
C1163 C1160 1.386 . S
C1164 C1159 1.490 . S
C1164 C1166 1.395 . S
C1164 C1167 1.403 . S
H1165 C1171 0.930 . S
C1166 H1152 0.930 . S
C1166 C1164 1.395 . S
C1166 C1169 1.403 . S
C1167 C1164 1.403 . S
C1167 C1168 1.524 . S
C1167 C1171 1.400 . S
C1168 H1153 0.960 . S
C1168 H1154 0.960 . S
C1168 H1155 0.960 . S
C1168 C1167 1.524 . S
C1169 C1166 1.403 . S
C1169 C1170 1.392 . S
C1169 C1173 1.495 . S
C1170 C1169 1.392 . S
C1170 C1171 1.385 . S
C1170 C1172 1.478 . S
C1171 H1165 0.930 . S
C1171 C1167 1.400 . S
C1171 C1170 1.385 . S
C1172 C1170 1.478 . S
C1172 C1174 1.381 . S
C1172 C1178 1.383 . S
C1173 C1169 1.495 . S
C1173 H1179 0.959 . S
C1173 H1180 0.961 . S
C1173 H1181 0.960 . S
C1174 C1172 1.381 . S
C1174 C1175 1.394 . S
C1174 H1182 0.930 . S
C1175 C1174 1.394 . S
C1175 C1176 1.383 . S
C1175 H1183 0.929 . S
C1176 C1175 1.383 . S
C1176 C1177 1.377 . S
C1177 H1161 0.930 . S
C1177 C1176 1.377 . S
C1177 C1178 1.379 . S
C1178 H1162 0.931 . S
C1178 C1172 1.383 . S
C1178 C1177 1.379 . S
H1179 C1173 0.959 . S
H1180 C1173 0.961 . S
H1181 C1173 0.960 . S
H1182 C1174 0.930 . S
H1183 C1175 0.929 . S
C329 C10 2.362 . S
C348 C19 2.366 . S
C365 C50 2.362 . S
C384 C59 2.355 . S
C401 C90 2.358 . S
C420 C99 2.341 . S
C437 C130 2.362 . S
C456 C139 2.357 . S
C473 C170 2.362 . S
C492 C179 2.358 . S
C509 C219 2.359 . S
C528 C210 2.341 . S
C545 C250 2.358 . S
C564 C259 2.341 . S
C581 C299 2.361 . S
C600 C290 2.349 . S
C617 C46 2.467 . S
C636 C15 2.477 . S
C653 C135 2.467 . S
C672 C86 2.479 . S
C689 C175 2.463 . S
C708 C206 2.449 . S
C725 C246 2.466 . S
C744 C295 2.471 . S
C761 C6 1.744 . S
C780 C215 1.739 . S
C797 C166 1.745 . S
C816 C55 1.749 . S
C833 C95 1.750 . S
C852 C286 1.744 . S
C869 C126 1.746 . S
C888 C255 1.753 . S
C905 C9 1.606 . S
C924 C129 1.620 . S
C941 C49 1.476 . S
C960 C89 1.462 . S
C977 C58 1.604 . S
C996 C98 1.583 . S
C1013 C138 1.477 . S
C1032 C18 1.453 . S
C1049 C169 1.597 . S
C1068 C289 1.601 . S
C1085 C209 1.474 . S
C1104 C249 1.442 . S
C1121 C218 1.600 . S
C1140 C258 1.606 . S
C1157 C298 1.466 . S
C1176 C178 1.483 . S
