# Generated by pormake.
# Topology uol, (4)-cn, num edge types: 1
# Building blocks:
#     Node 0, Type 0, BuildingBlock: ESEHIV_clean_sbu_0, # of connection points: 4
#     Node 1, Type 0, BuildingBlock: ESEHIV_clean_sbu_0, # of connection points: 4
#     Node 2, Type 0, BuildingBlock: ESEHIV_clean_sbu_0, # of connection points: 4
#     Node 3, Type 0, BuildingBlock: ESEHIV_clean_sbu_0, # of connection points: 4
#     Node 4, Type 0, BuildingBlock: ESEHIV_clean_sbu_0, # of connection points: 4
#     Node 5, Type 0, BuildingBlock: ESEHIV_clean_sbu_0, # of connection points: 4
#     Node 6, Type 0, BuildingBlock: ESEHIV_clean_sbu_0, # of connection points: 4
#     Node 7, Type 0, BuildingBlock: ESEHIV_clean_sbu_0, # of connection points: 4
#     Node 8, Type 0, BuildingBlock: ESEHIV_clean_sbu_0, # of connection points: 4
#     Node 9, Type 0, BuildingBlock: ESEHIV_clean_sbu_0, # of connection points: 4
#     Node 10, Type 0, BuildingBlock: ESEHIV_clean_sbu_0, # of connection points: 4
#     Node 11, Type 0, BuildingBlock: ESEHIV_clean_sbu_0, # of connection points: 4
#     Edge 12, Type (0, 0), None
#     Edge 13, Type (0, 0), None
#     Edge 14, Type (0, 0), None
#     Edge 15, Type (0, 0), None
#     Edge 16, Type (0, 0), None
#     Edge 17, Type (0, 0), None
#     Edge 18, Type (0, 0), None
#     Edge 19, Type (0, 0), None
#     Edge 20, Type (0, 0), None
#     Edge 21, Type (0, 0), None
#     Edge 22, Type (0, 0), None
#     Edge 23, Type (0, 0), None
#     Edge 24, Type (0, 0), None
#     Edge 25, Type (0, 0), None
#     Edge 26, Type (0, 0), None
#     Edge 27, Type (0, 0), None
#     Edge 28, Type (0, 0), None
#     Edge 29, Type (0, 0), None
#     Edge 30, Type (0, 0), None
#     Edge 31, Type (0, 0), None
#     Edge 32, Type (0, 0), None
#     Edge 33, Type (0, 0), None
#     Edge 34, Type (0, 0), None
#     Edge 35, Type (0, 0), None
# Relax obj value: 0.186
# Max RMSD: 0.239
# Mean RMSD: 0.239
data_MOF--net-uol--node1-ESEHIV_clean_sbu_0--edge1-none
_symmetry_space_group_name_H-M    P1
_symmetry_Int_Tables_number       1
_symmetry_cell_setting            triclinic
loop_
_symmetry_equiv_pos_as_xyz
'x, y, z'
_cell_length_a     19.43323
_cell_length_b     19.433569
_cell_length_c     24.530651
_cell_angle_alpha  89.999973
_cell_angle_beta   90.000016
_cell_angle_gamma 120.00193
loop_
_atom_site_label
_atom_site_type_symbol
_atom_site_fract_x
_atom_site_fract_y
_atom_site_fract_z
_atom_type_partial_charge
Cu0 Cu 0.18557 0.36433 0.07746 0.0
N1 N 0.2689 0.3951 0.12683 0.0
N2 N 0.36122 0.38298 0.17279 0.0
C3 C 0.32131 0.36903 0.12542 0.0
C4 C 0.33322 0.41914 0.20544 0.0
C5 C 0.27633 0.4268 0.17686 0.0
O6 O 0.22403 0.34708 1.00812 0.0
C7 C 1.02793 0.26013 0.11813 0.0
O8 O 1.00898 0.31004 0.09616 0.0
H9 H 0.32341 0.33243 0.09297 0.0
H10 H 0.23788 0.44669 0.19352 0.0
N11 N 0.16284 0.44668 0.06828 0.0
N12 N 0.14701 0.55098 0.08421 0.0
C13 C 0.15559 0.49231 0.1067 0.0
C14 C 0.15776 0.47729 0.02017 0.0
C15 C 0.14817 0.54195 0.02982 0.0
C16 C 0.22363 0.28374 0.99443 0.0
O17 O 0.18754 0.22056 0.02564 0.0
H18 H 0.15872 0.48413 0.14995 0.0
H19 H 0.16327 0.45556 0.98075 0.0
O20 O 0.09699 0.26983 0.11037 0.0
H21 H 0.3477 0.43243 0.24816 0.0
H22 H 0.14474 0.58035 0.99934 0.0
Cu23 Cu 0.85815 0.16711 0.24413 0.0
N24 N 0.91071 0.25044 0.2935 0.0
N25 N 1.01515 0.34276 0.33946 0.0
C26 C 0.98919 0.30286 0.29209 0.0
C27 C 0.95099 0.31476 0.37211 0.0
C28 C 0.88643 0.25786 0.34353 0.0
O29 O 0.91386 0.20558 0.17479 0.0
C30 C 0.80471 1.00947 0.2848 0.0
O31 O 0.73585 0.99052 0.26284 0.0
H32 H 1.02789 0.30496 0.25964 0.0
H33 H 0.8281 0.21942 0.36019 0.0
N34 N 0.75307 0.14437 0.23495 0.0
N35 N 0.63293 0.12854 0.25088 0.0
C36 C 0.70019 0.13713 0.27337 0.0
C37 C 0.71737 0.13928 0.18683 0.0
C38 C 0.64312 0.1297 0.19648 0.0
C39 C 0.97679 0.20516 0.16109 0.0
O40 O 1.00389 0.16906 0.19229 0.0
H41 H 0.7115 0.14026 0.31661 0.0
H42 H 0.74461 0.14479 0.14742 0.0
O43 O 0.86408 0.07854 0.27704 0.0
H44 H 0.95218 0.32924 0.41483 0.0
H45 H 0.60128 0.12626 0.166 0.0
Cu46 Cu 0.72796 0.83969 0.4108 0.0
N47 N 0.69719 0.89225 0.46017 0.0
N48 N 0.7093 0.99668 0.50613 0.0
C49 C 0.72326 0.97073 0.45876 0.0
C50 C 0.67314 0.93252 0.53878 0.0
C51 C 0.66549 0.86797 0.5102 0.0
O52 O 0.74521 0.89541 0.34145 0.0
C53 C 0.83216 0.78625 0.45147 0.0
O54 O 0.78225 0.7174 0.4295 0.0
H55 H 0.75986 1.00943 0.42631 0.0
H56 H 0.6456 0.80963 0.52686 0.0
N57 N 0.64562 0.73462 0.40162 0.0
N58 N 0.54131 0.61447 0.41754 0.0
C59 C 0.59999 0.68173 0.44003 0.0
C60 C 0.615 0.69891 0.3535 0.0
C61 C 0.55035 0.62467 0.36315 0.0
C62 C 0.80855 0.95834 0.32776 0.0
O63 O 0.87175 0.98545 0.35896 0.0
H64 H 0.60816 0.69304 0.48328 0.0
H65 H 0.63673 0.72616 0.31408 0.0
O66 O 0.82246 0.84562 0.4437 0.0
H67 H 0.65985 0.93371 0.5815 0.0
H68 H 0.51194 0.58283 0.33267 0.0
Cu69 Cu 0.92518 0.70949 0.57747 0.0
N70 N 0.84184 0.67872 0.62684 0.0
N71 N 0.74953 0.69085 0.6728 0.0
C72 C 0.78943 0.7048 0.62543 0.0
C73 C 0.77752 0.65469 0.70545 0.0
C74 C 0.83442 0.64702 0.67687 0.0
O75 O 0.88671 0.72674 0.50812 0.0
C76 C 0.08282 0.81369 0.61814 0.0
O77 O 0.10176 0.76378 0.59617 0.0
H78 H 0.78734 0.7414 0.59298 0.0
H79 H 0.87286 0.62713 0.69353 0.0
N80 N 0.9479 0.62714 0.56829 0.0
N81 N 0.96373 0.52284 0.58421 0.0
C82 C 0.95515 0.58151 0.6067 0.0
C83 C 0.95298 0.59653 0.52017 0.0
C84 C 0.96257 0.53188 0.52982 0.0
C85 C 0.88713 0.79009 0.49443 0.0
O86 O 0.92323 0.85329 0.52563 0.0
H87 H 0.95202 0.58969 0.64995 0.0
H88 H 0.94747 0.61827 0.48075 0.0
O89 O 1.01375 0.80399 0.61037 0.0
H90 H 0.76305 0.6414 0.74817 0.0
H91 H 0.966 0.49347 0.49934 0.0
Cu92 Cu 0.2526 0.90671 0.74414 0.0
N93 N 0.20003 0.82338 0.79351 0.0
N94 N 0.09559 0.73106 0.83946 0.0
C95 C 0.12155 0.77096 0.7921 0.0
C96 C 0.15975 0.75906 0.87212 0.0
C97 C 0.22431 0.81596 0.84354 0.0
O98 O 0.19688 0.86824 0.67479 0.0
C99 C 0.30603 0.06435 0.78481 0.0
O100 O 0.37489 0.0833 0.76284 0.0
H101 H 0.08285 0.76887 0.75965 0.0
H102 H 0.28265 0.8544 0.8602 0.0
N103 N 0.35767 0.92944 0.73496 0.0
N104 N 0.47781 0.94528 0.75088 0.0
C105 C 0.41055 0.93669 0.77337 0.0
C106 C 0.39338 0.93453 0.68684 0.0
C107 C 0.46762 0.94412 0.69649 0.0
C108 C 0.13395 0.86866 0.6611 0.0
O109 O 0.10685 0.90476 0.6923 0.0
H110 H 0.39925 0.93356 0.81662 0.0
H111 H 0.36613 0.92902 0.64743 0.0
O112 O 0.24667 0.99528 0.77704 0.0
H113 H 0.15856 0.74458 0.91484 0.0
H114 H 0.50946 0.94756 0.66601 0.0
Cu115 Cu 0.38278 0.23413 0.9108 0.0
N116 N 0.41356 0.18157 0.96018 0.0
N117 N 0.40145 0.07714 1.00613 0.0
C118 C 0.38749 0.10309 0.95876 0.0
C119 C 0.43761 0.1413 0.03878 0.0
C120 C 0.44527 0.20585 1.0102 0.0
O121 O 0.36554 0.17841 0.84146 0.0
C122 C 0.27859 0.28757 0.95146 0.0
O123 O 0.32848 0.35642 0.92948 0.0
H124 H 0.35089 0.06439 0.92631 0.0
H125 H 0.46516 0.26419 0.02686 0.0
N126 N 0.46513 0.3392 0.90162 0.0
N127 N 0.56944 0.45935 0.91755 0.0
C128 C 0.51076 0.39209 0.94004 0.0
C129 C 0.49575 0.3749 0.8535 0.0
C130 C 0.5604 0.44915 0.86315 0.0
C131 C 0.30219 0.11548 0.82777 0.0
O132 O 0.23899 0.08837 0.85897 0.0
H133 H 0.50258 0.38079 0.98328 0.0
H134 H 0.47402 0.34765 0.81409 0.0
O135 O 0.28829 0.2282 0.94371 0.0
H136 H 0.45091 0.14011 0.0815 0.0
H137 H 0.59881 0.49099 0.83267 0.0
Cu138 Cu 0.72807 0.90644 0.78537 0.0
N139 N 0.69735 0.82293 0.73616 0.0
N140 N 0.70982 0.73081 0.69027 0.0
C141 C 0.72399 0.77098 0.73753 0.0
C142 C 0.6728 0.75801 0.65775 0.0
C143 C 0.66495 0.81483 0.6863 0.0
O144 O 0.74546 0.86827 0.85479 0.0
C145 C 0.83229 0.0641 0.74475 0.0
O146 O 0.78257 0.08314 0.76691 0.0
H147 H 0.76103 0.76937 0.76984 0.0
H148 H 0.64428 0.85269 0.66973 0.0
N149 N 0.64567 0.92909 0.79449 0.0
N150 N 0.54144 0.94505 0.77857 0.0
C151 C 0.60016 0.93653 0.75607 0.0
C152 C 0.61498 0.93405 0.84261 0.0
C153 C 0.55039 0.94375 0.83296 0.0
C154 C 0.80883 0.86868 0.86841 0.0
O155 O 0.87191 0.90463 0.83709 0.0
H156 H 0.60849 0.93365 0.71282 0.0
H157 H 0.63664 0.92843 0.88202 0.0
O158 O 0.82247 0.99496 0.75236 0.0
H159 H 0.65891 0.74297 0.61515 0.0
H160 H 0.512 0.9472 0.86344 0.0
Cu161 Cu 0.85854 0.7096 0.95204 0.0
N162 N 0.91133 0.67888 0.90283 0.0
N163 N 1.01592 0.69135 0.85694 0.0
C164 C 0.98992 0.70552 0.90419 0.0
C165 C 0.9517 0.65433 0.82442 0.0
C166 C 0.88702 0.64648 0.85297 0.0
O167 O 0.9141 0.727 0.02146 0.0
C168 C 0.80511 0.81383 0.91142 0.0
O169 O 0.73634 0.76412 0.93359 0.0
H170 H 1.02858 0.74256 0.93651 0.0
H171 H 0.8285 0.62581 0.83639 0.0
N172 N 0.75348 0.62721 0.96116 0.0
N173 N 0.6333 0.52298 0.94523 0.0
C174 C 0.70053 0.5817 0.92273 0.0
C175 C 0.71783 0.59651 1.00927 0.0
C176 C 0.64354 0.53193 0.99962 0.0
C177 C 0.97706 0.79036 0.03508 0.0
O178 O 1.0042 0.85344 1.00375 0.0
H179 H 0.71175 0.59003 0.87948 0.0
H180 H 0.74511 0.61818 0.04869 0.0
O181 O 0.86442 0.804 0.91902 0.0
H182 H 0.95285 0.64044 0.78182 0.0
H183 H 0.60169 0.49354 0.0301 0.0
Cu184 Cu 0.18586 0.84007 0.1187 0.0
N185 N 0.26937 0.89287 0.06949 0.0
N186 N 0.36149 0.99746 0.0236 0.0
C187 C 0.32132 0.97146 0.07086 0.0
C188 C 0.3343 0.93325 0.99109 0.0
C189 C 0.27747 0.86857 0.01963 0.0
O190 O 0.22402 0.89564 0.18812 0.0
C191 C 1.02819 0.78664 0.07809 0.0
O192 O 1.00913 0.71788 0.10025 0.0
H193 H 0.32293 1.01012 0.10318 0.0
H194 H 0.23962 0.81004 1.00306 0.0
N195 N 0.1632 0.73502 0.12782 0.0
N196 N 0.14724 0.61484 0.11189 0.0
C197 C 0.15575 0.68207 0.0894 0.0
C198 C 0.15824 0.69937 0.17594 0.0
C199 C 0.14854 0.62509 0.16629 0.0
C200 C 0.2236 0.95859 0.20174 0.0
O201 O 0.18766 0.98572 0.17041 0.0
H202 H 0.15864 0.69329 0.04614 0.0
H203 H 0.16385 0.72665 0.21535 0.0
O204 O 0.09734 0.84595 0.08569 0.0
H205 H 0.34934 0.9344 0.94849 0.0
H206 H 0.14508 0.58324 0.19677 0.0
Cu207 Cu 0.38268 0.16739 0.28536 0.0
N208 N 0.4134 0.2509 0.23616 0.0
N209 N 0.40093 0.34302 0.19026 0.0
C210 C 0.38675 0.30284 0.23752 0.0
C211 C 0.43795 0.31583 0.15775 0.0
C212 C 0.4458 0.259 0.1863 0.0
O213 O 0.36528 0.20555 0.35478 0.0
C214 C 0.27845 1.00972 0.24475 0.0
O215 O 0.32816 0.99067 0.26692 0.0
H216 H 0.34971 0.30446 0.26984 0.0
H217 H 0.46648 0.22115 0.16972 0.0
N218 N 0.46508 0.14474 0.29449 0.0
N219 N 0.5693 0.12878 0.27856 0.0
C220 C 0.51058 0.13729 0.25606 0.0
C221 C 0.49577 0.13978 0.3426 0.0
C222 C 0.56035 0.13008 0.33296 0.0
C223 C 0.30191 0.20514 0.36841 0.0
O224 O 0.23884 0.1692 0.33708 0.0
H225 H 0.50225 0.14017 0.21281 0.0
H226 H 0.47411 0.1454 0.38202 0.0
O227 O 0.28828 0.07887 0.25235 0.0
H228 H 0.45184 0.33086 0.11515 0.0
H229 H 0.59875 0.12663 0.36343 0.0
Cu230 Cu 0.25221 0.36422 0.45203 0.0
N231 N 0.19942 0.39494 0.40282 0.0
N232 N 0.09482 0.38247 0.35693 0.0
C233 C 0.12082 0.3683 0.40419 0.0
C234 C 0.15904 0.4195 0.32441 0.0
C235 C 0.22372 0.42734 0.35296 0.0
O236 O 0.19664 0.34683 0.52145 0.0
C237 C 0.30563 0.25999 0.41142 0.0
O238 O 0.3744 0.3097 0.43358 0.0
H239 H 0.08216 0.33126 0.4365 0.0
H240 H 0.28225 0.44801 0.33639 0.0
N241 N 0.35726 0.44661 0.46115 0.0
N242 N 0.47745 0.55084 0.44522 0.0
C243 C 0.41021 0.49212 0.42273 0.0
C244 C 0.39292 0.47731 0.50927 0.0
C245 C 0.4672 0.54189 0.49962 0.0
C246 C 0.13368 0.28346 0.53507 0.0
O247 O 0.10655 0.22038 0.50375 0.0
H248 H 0.39899 0.48379 0.37947 0.0
H249 H 0.36563 0.45564 0.54868 0.0
O250 O 0.24632 0.26982 0.41902 0.0
H251 H 0.15789 0.43338 0.28181 0.0
H252 H 0.50905 0.58028 0.5301 0.0
Cu253 Cu 0.92489 0.23375 0.6187 0.0
N254 N 0.84137 0.18095 0.56949 0.0
N255 N 0.74926 0.07636 0.5236 0.0
C256 C 0.78943 0.10236 0.57086 0.0
C257 C 0.77645 0.14057 0.49108 0.0
C258 C 0.83327 0.20525 0.51963 0.0
O259 O 0.88672 0.17818 0.68812 0.0
C260 C 0.08255 0.28718 0.57808 0.0
O261 O 0.10161 0.35595 0.60025 0.0
H262 H 0.78782 0.0637 0.60317 0.0
H263 H 0.87113 0.26378 0.50306 0.0
N264 N 0.94755 0.3388 0.62782 0.0
N265 N 0.9635 0.45898 0.61189 0.0
C266 C 0.95499 0.39175 0.5894 0.0
C267 C 0.95251 0.37445 0.67594 0.0
C268 C 0.9622 0.44873 0.66629 0.0
C269 C 0.88716 0.11524 0.70174 0.0
O270 O 0.92311 0.0881 0.67043 0.0
H271 H 0.9521 0.38053 0.54614 0.0
H272 H 0.94689 0.34717 0.71535 0.0
O273 O 1.01341 0.22787 0.58569 0.0
H274 H 0.76141 0.13942 0.44848 0.0
H275 H 0.96566 0.49058 0.69677 0.0
loop_
_geom_bond_atom_site_label_1
_geom_bond_atom_site_label_2
_geom_bond_distance
_geom_bond_site_symmetry_2
_ccdc_geom_bond_type
Cu0 N1 1.999 . S
Cu0 O6 1.974 . S
Cu0 N11 1.985 . S
Cu0 O20 1.959 . S
N1 Cu0 1.999 . S
N1 C3 1.263 . S
N1 C5 1.389 . S
N2 C3 1.358 . S
N2 C4 1.400 . S
C3 N1 1.263 . S
C3 N2 1.358 . S
C3 H9 0.930 . S
C4 N2 1.400 . S
C4 C5 1.351 . S
C4 H21 0.930 . S
C5 N1 1.389 . S
C5 C4 1.351 . S
C5 H10 0.930 . S
O6 Cu0 1.974 . S
O6 C16 1.282 . S
C7 O8 1.261 . S
C7 O20 1.251 1_655 S
O8 C7 1.261 . S
H9 C3 0.930 . S
H10 C5 0.930 . S
N11 Cu0 1.985 . S
N11 C13 1.335 . S
N11 C14 1.390 . S
N12 C13 1.345 . S
N12 C15 1.336 . S
C13 N11 1.335 . S
C13 N12 1.345 . S
C13 H18 0.930 . S
C14 N11 1.390 . S
C14 C15 1.346 . S
C14 H19 0.930 1_554 S
C15 N12 1.336 . S
C15 C14 1.346 . S
C15 H22 0.929 1_554 S
C16 O6 1.282 . S
C16 O17 1.216 1_554 S
O17 C16 1.216 1_556 S
H18 C13 0.930 . S
H19 C14 0.930 1_556 S
O20 Cu0 1.959 . S
O20 C7 1.251 1_455 S
H21 C4 0.930 . S
H22 C15 0.929 1_556 S
Cu23 N24 1.999 . S
Cu23 O29 1.974 . S
Cu23 N34 1.985 . S
Cu23 O43 1.959 . S
N24 Cu23 1.999 . S
N24 C26 1.263 . S
N24 C28 1.389 . S
N25 C26 1.358 . S
N25 C27 1.400 . S
C26 N24 1.263 . S
C26 N25 1.358 . S
C26 H32 0.930 . S
C27 N25 1.400 . S
C27 C28 1.351 . S
C27 H44 0.930 . S
C28 N24 1.389 . S
C28 C27 1.351 . S
C28 H33 0.930 . S
O29 Cu23 1.974 . S
O29 C39 1.282 . S
C30 O31 1.261 . S
C30 O43 1.251 1_565 S
O31 C30 1.261 . S
H32 C26 0.930 . S
H33 C28 0.930 . S
N34 Cu23 1.985 . S
N34 C36 1.335 . S
N34 C37 1.390 . S
N35 C36 1.345 . S
N35 C38 1.336 . S
C36 N34 1.335 . S
C36 N35 1.345 . S
C36 H41 0.930 . S
C37 N34 1.390 . S
C37 C38 1.346 . S
C37 H42 0.930 . S
C38 N35 1.336 . S
C38 C37 1.346 . S
C38 H45 0.929 . S
C39 O29 1.282 . S
C39 O40 1.216 . S
O40 C39 1.216 . S
H41 C36 0.930 . S
H42 C37 0.930 . S
O43 Cu23 1.959 . S
O43 C30 1.251 1_545 S
H44 C27 0.930 . S
H45 C38 0.929 . S
Cu46 N47 1.999 . S
Cu46 O52 1.974 . S
Cu46 N57 1.985 . S
Cu46 O66 1.959 . S
N47 Cu46 1.999 . S
N47 C49 1.263 . S
N47 C51 1.389 . S
N48 C49 1.358 . S
N48 C50 1.400 . S
C49 N47 1.263 . S
C49 N48 1.358 . S
C49 H55 0.930 . S
C50 N48 1.400 . S
C50 C51 1.351 . S
C50 H67 0.930 . S
C51 N47 1.389 . S
C51 C50 1.351 . S
C51 H56 0.930 . S
O52 Cu46 1.974 . S
O52 C62 1.282 . S
C53 O54 1.261 . S
C53 O66 1.251 . S
O54 C53 1.261 . S
H55 C49 0.930 . S
H56 C51 0.930 . S
N57 Cu46 1.985 . S
N57 C59 1.335 . S
N57 C60 1.390 . S
N58 C59 1.345 . S
N58 C61 1.336 . S
C59 N57 1.335 . S
C59 N58 1.345 . S
C59 H64 0.930 . S
C60 N57 1.390 . S
C60 C61 1.346 . S
C60 H65 0.930 . S
C61 N58 1.336 . S
C61 C60 1.346 . S
C61 H68 0.929 . S
C62 O52 1.282 . S
C62 O63 1.216 . S
O63 C62 1.216 . S
H64 C59 0.930 . S
H65 C60 0.930 . S
O66 Cu46 1.959 . S
O66 C53 1.251 . S
H67 C50 0.930 . S
H68 C61 0.929 . S
Cu69 N70 1.999 . S
Cu69 O75 1.974 . S
Cu69 N80 1.985 . S
Cu69 O89 1.959 . S
N70 Cu69 1.999 . S
N70 C72 1.263 . S
N70 C74 1.389 . S
N71 C72 1.358 . S
N71 C73 1.400 . S
C72 N70 1.263 . S
C72 N71 1.358 . S
C72 H78 0.930 . S
C73 N71 1.400 . S
C73 C74 1.351 . S
C73 H90 0.930 . S
C74 N70 1.389 . S
C74 C73 1.351 . S
C74 H79 0.930 . S
O75 Cu69 1.974 . S
O75 C85 1.282 . S
C76 O77 1.261 . S
C76 O89 1.251 1_455 S
O77 C76 1.261 . S
H78 C72 0.930 . S
H79 C74 0.930 . S
N80 Cu69 1.985 . S
N80 C82 1.335 . S
N80 C83 1.390 . S
N81 C82 1.345 . S
N81 C84 1.336 . S
C82 N80 1.335 . S
C82 N81 1.345 . S
C82 H87 0.930 . S
C83 N80 1.390 . S
C83 C84 1.346 . S
C83 H88 0.930 . S
C84 N81 1.336 . S
C84 C83 1.346 . S
C84 H91 0.929 . S
C85 O75 1.282 . S
C85 O86 1.216 . S
O86 C85 1.216 . S
H87 C82 0.930 . S
H88 C83 0.930 . S
O89 Cu69 1.959 . S
O89 C76 1.251 1_655 S
H90 C73 0.930 . S
H91 C84 0.929 . S
Cu92 N93 1.999 . S
Cu92 O98 1.974 . S
Cu92 N103 1.985 . S
Cu92 O112 1.959 . S
N93 Cu92 1.999 . S
N93 C95 1.263 . S
N93 C97 1.389 . S
N94 C95 1.358 . S
N94 C96 1.400 . S
C95 N93 1.263 . S
C95 N94 1.358 . S
C95 H101 0.930 . S
C96 N94 1.400 . S
C96 C97 1.351 . S
C96 H113 0.930 . S
C97 N93 1.389 . S
C97 C96 1.351 . S
C97 H102 0.930 . S
O98 Cu92 1.974 . S
O98 C108 1.282 . S
C99 O100 1.261 . S
C99 O112 1.251 1_545 S
O100 C99 1.261 . S
H101 C95 0.930 . S
H102 C97 0.930 . S
N103 Cu92 1.985 . S
N103 C105 1.335 . S
N103 C106 1.390 . S
N104 C105 1.345 . S
N104 C107 1.336 . S
C105 N103 1.335 . S
C105 N104 1.345 . S
C105 H110 0.930 . S
C106 N103 1.390 . S
C106 C107 1.346 . S
C106 H111 0.930 . S
C107 N104 1.336 . S
C107 C106 1.346 . S
C107 H114 0.929 . S
C108 O98 1.282 . S
C108 O109 1.216 . S
O109 C108 1.216 . S
H110 C105 0.930 . S
H111 C106 0.930 . S
O112 Cu92 1.959 . S
O112 C99 1.251 1_565 S
H113 C96 0.930 . S
H114 C107 0.929 . S
Cu115 N116 1.999 . S
Cu115 O121 1.974 . S
Cu115 N126 1.985 . S
Cu115 O135 1.959 . S
N116 Cu115 1.999 . S
N116 C118 1.263 . S
N116 C120 1.389 1_556 S
N117 C118 1.358 . S
N117 C119 1.400 1_556 S
C118 N116 1.263 . S
C118 N117 1.358 . S
C118 H124 0.930 . S
C119 N117 1.400 1_554 S
C119 C120 1.351 . S
C119 H136 0.930 . S
C120 N116 1.389 1_554 S
C120 C119 1.351 . S
C120 H125 0.930 . S
O121 Cu115 1.974 . S
O121 C131 1.282 . S
C122 O123 1.261 . S
C122 O135 1.251 . S
O123 C122 1.261 . S
H124 C118 0.930 . S
H125 C120 0.930 . S
N126 Cu115 1.985 . S
N126 C128 1.335 . S
N126 C129 1.390 . S
N127 C128 1.345 . S
N127 C130 1.336 . S
C128 N126 1.335 . S
C128 N127 1.345 . S
C128 H133 0.930 . S
C129 N126 1.390 . S
C129 C130 1.346 . S
C129 H134 0.930 . S
C130 N127 1.336 . S
C130 C129 1.346 . S
C130 H137 0.929 . S
C131 O121 1.282 . S
C131 O132 1.216 . S
O132 C131 1.216 . S
H133 C128 0.930 . S
H134 C129 0.930 . S
O135 Cu115 1.959 . S
O135 C122 1.251 . S
H136 C119 0.930 . S
H137 C130 0.929 . S
Cu138 N139 1.999 . S
Cu138 O144 1.974 . S
Cu138 N149 1.985 . S
Cu138 O158 1.959 . S
N139 Cu138 1.999 . S
N139 C141 1.263 . S
N139 C143 1.389 . S
N140 C141 1.358 . S
N140 C142 1.400 . S
C141 N139 1.263 . S
C141 N140 1.358 . S
C141 H147 0.930 . S
C142 N140 1.400 . S
C142 C143 1.351 . S
C142 H159 0.930 . S
C143 N139 1.389 . S
C143 C142 1.351 . S
C143 H148 0.930 . S
O144 Cu138 1.974 . S
O144 C154 1.282 . S
C145 O146 1.261 . S
C145 O158 1.251 1_545 S
O146 C145 1.261 . S
H147 C141 0.930 . S
H148 C143 0.930 . S
N149 Cu138 1.985 . S
N149 C151 1.335 . S
N149 C152 1.390 . S
N150 C151 1.345 . S
N150 C153 1.336 . S
C151 N149 1.335 . S
C151 N150 1.345 . S
C151 H156 0.930 . S
C152 N149 1.390 . S
C152 C153 1.346 . S
C152 H157 0.930 . S
C153 N150 1.336 . S
C153 C152 1.346 . S
C153 H160 0.929 . S
C154 O144 1.282 . S
C154 O155 1.216 . S
O155 C154 1.216 . S
H156 C151 0.930 . S
H157 C152 0.930 . S
O158 Cu138 1.959 . S
O158 C145 1.251 1_565 S
H159 C142 0.930 . S
H160 C153 0.929 . S
Cu161 N162 1.999 . S
Cu161 O167 1.974 . S
Cu161 N172 1.985 . S
Cu161 O181 1.959 . S
N162 Cu161 1.999 . S
N162 C164 1.263 . S
N162 C166 1.389 . S
N163 C164 1.358 . S
N163 C165 1.400 . S
C164 N162 1.263 . S
C164 N163 1.358 . S
C164 H170 0.930 . S
C165 N163 1.400 . S
C165 C166 1.351 . S
C165 H182 0.930 . S
C166 N162 1.389 . S
C166 C165 1.351 . S
C166 H171 0.930 . S
O167 Cu161 1.974 . S
O167 C177 1.282 . S
C168 O169 1.261 . S
C168 O181 1.251 . S
O169 C168 1.261 . S
H170 C164 0.930 . S
H171 C166 0.930 . S
N172 Cu161 1.985 . S
N172 C174 1.335 . S
N172 C175 1.390 . S
N173 C174 1.345 . S
N173 C176 1.336 . S
C174 N172 1.335 . S
C174 N173 1.345 . S
C174 H179 0.930 . S
C175 N172 1.390 . S
C175 C176 1.346 . S
C175 H180 0.930 1_556 S
C176 N173 1.336 . S
C176 C175 1.346 . S
C176 H183 0.929 1_556 S
C177 O167 1.282 . S
C177 O178 1.216 1_556 S
O178 C177 1.216 1_554 S
H179 C174 0.930 . S
H180 C175 0.930 1_554 S
O181 Cu161 1.959 . S
O181 C168 1.251 . S
H182 C165 0.930 . S
H183 C176 0.929 1_554 S
Cu184 N185 1.999 . S
Cu184 O190 1.974 . S
Cu184 N195 1.985 . S
Cu184 O204 1.959 . S
N185 Cu184 1.999 . S
N185 C187 1.263 . S
N185 C189 1.389 1_554 S
N186 C187 1.358 . S
N186 C188 1.400 1_554 S
C187 N185 1.263 . S
C187 N186 1.358 . S
C187 H193 0.930 . S
C188 N186 1.400 1_556 S
C188 C189 1.351 . S
C188 H205 0.930 . S
C189 N185 1.389 1_556 S
C189 C188 1.351 . S
C189 H194 0.930 . S
O190 Cu184 1.974 . S
O190 C200 1.282 . S
C191 O192 1.261 . S
C191 O204 1.251 1_655 S
O192 C191 1.261 . S
H193 C187 0.930 . S
H194 C189 0.930 . S
N195 Cu184 1.985 . S
N195 C197 1.335 . S
N195 C198 1.390 . S
N196 C197 1.345 . S
N196 C199 1.336 . S
C197 N195 1.335 . S
C197 N196 1.345 . S
C197 H202 0.930 . S
C198 N195 1.390 . S
C198 C199 1.346 . S
C198 H203 0.930 . S
C199 N196 1.336 . S
C199 C198 1.346 . S
C199 H206 0.929 . S
C200 O190 1.282 . S
C200 O201 1.216 . S
O201 C200 1.216 . S
H202 C197 0.930 . S
H203 C198 0.930 . S
O204 Cu184 1.959 . S
O204 C191 1.251 1_455 S
H205 C188 0.930 . S
H206 C199 0.929 . S
Cu207 N208 1.999 . S
Cu207 O213 1.974 . S
Cu207 N218 1.985 . S
Cu207 O227 1.959 . S
N208 Cu207 1.999 . S
N208 C210 1.263 . S
N208 C212 1.389 . S
N209 C210 1.358 . S
N209 C211 1.400 . S
C210 N208 1.263 . S
C210 N209 1.358 . S
C210 H216 0.930 . S
C211 N209 1.400 . S
C211 C212 1.351 . S
C211 H228 0.930 . S
C212 N208 1.389 . S
C212 C211 1.351 . S
C212 H217 0.930 . S
O213 Cu207 1.974 . S
O213 C223 1.282 . S
C214 O215 1.261 . S
C214 O227 1.251 1_565 S
O215 C214 1.261 . S
H216 C210 0.930 . S
H217 C212 0.930 . S
N218 Cu207 1.985 . S
N218 C220 1.335 . S
N218 C221 1.390 . S
N219 C220 1.345 . S
N219 C222 1.336 . S
C220 N218 1.335 . S
C220 N219 1.345 . S
C220 H225 0.930 . S
C221 N218 1.390 . S
C221 C222 1.346 . S
C221 H226 0.930 . S
C222 N219 1.336 . S
C222 C221 1.346 . S
C222 H229 0.929 . S
C223 O213 1.282 . S
C223 O224 1.216 . S
O224 C223 1.216 . S
H225 C220 0.930 . S
H226 C221 0.930 . S
O227 Cu207 1.959 . S
O227 C214 1.251 1_545 S
H228 C211 0.930 . S
H229 C222 0.929 . S
Cu230 N231 1.999 . S
Cu230 O236 1.974 . S
Cu230 N241 1.985 . S
Cu230 O250 1.959 . S
N231 Cu230 1.999 . S
N231 C233 1.263 . S
N231 C235 1.389 . S
N232 C233 1.358 . S
N232 C234 1.400 . S
C233 N231 1.263 . S
C233 N232 1.358 . S
C233 H239 0.930 . S
C234 N232 1.400 . S
C234 C235 1.351 . S
C234 H251 0.930 . S
C235 N231 1.389 . S
C235 C234 1.351 . S
C235 H240 0.930 . S
O236 Cu230 1.974 . S
O236 C246 1.282 . S
C237 O238 1.261 . S
C237 O250 1.251 . S
O238 C237 1.261 . S
H239 C233 0.930 . S
H240 C235 0.930 . S
N241 Cu230 1.985 . S
N241 C243 1.335 . S
N241 C244 1.390 . S
N242 C243 1.345 . S
N242 C245 1.336 . S
C243 N241 1.335 . S
C243 N242 1.345 . S
C243 H248 0.930 . S
C244 N241 1.390 . S
C244 C245 1.346 . S
C244 H249 0.930 . S
C245 N242 1.336 . S
C245 C244 1.346 . S
C245 H252 0.929 . S
C246 O236 1.282 . S
C246 O247 1.216 . S
O247 C246 1.216 . S
H248 C243 0.930 . S
H249 C244 0.930 . S
O250 Cu230 1.959 . S
O250 C237 1.251 . S
H251 C234 0.930 . S
H252 C245 0.929 . S
Cu253 N254 1.999 . S
Cu253 O259 1.974 . S
Cu253 N264 1.985 . S
Cu253 O273 1.959 . S
N254 Cu253 1.999 . S
N254 C256 1.263 . S
N254 C258 1.389 . S
N255 C256 1.358 . S
N255 C257 1.400 . S
C256 N254 1.263 . S
C256 N255 1.358 . S
C256 H262 0.930 . S
C257 N255 1.400 . S
C257 C258 1.351 . S
C257 H274 0.930 . S
C258 N254 1.389 . S
C258 C257 1.351 . S
C258 H263 0.930 . S
O259 Cu253 1.974 . S
O259 C269 1.282 . S
C260 O261 1.261 . S
C260 O273 1.251 1_455 S
O261 C260 1.261 . S
H262 C256 0.930 . S
H263 C258 0.930 . S
N264 Cu253 1.985 . S
N264 C266 1.335 . S
N264 C267 1.390 . S
N265 C266 1.345 . S
N265 C268 1.336 . S
C266 N264 1.335 . S
C266 N265 1.345 . S
C266 H271 0.930 . S
C267 N264 1.390 . S
C267 C268 1.346 . S
C267 H272 0.930 . S
C268 N265 1.336 . S
C268 C267 1.346 . S
C268 H275 0.929 . S
C269 O259 1.282 . S
C269 O270 1.216 . S
O270 C269 1.216 . S
H271 C266 0.930 . S
H272 C267 0.930 . S
O273 Cu253 1.959 . S
O273 C260 1.251 1_655 S
H274 C257 0.930 . S
H275 C268 0.929 . S
N196 N12 2.579 . S
N35 N219 2.579 . S
N58 N242 2.578 . S
N81 N265 2.578 . S
N150 N104 2.578 . S
N127 N173 2.578 . S
N209 N2 1.097 . S
N25 N232 1.097 1_655 S
N255 N48 1.097 1_545 S
N71 N140 1.097 . S
N163 N94 1.097 1_655 S
N186 N117 1.097 1_564 S
C16 C122 2.236 1_554 S
C39 C7 2.236 . S
C30 C62 2.236 . S
C85 C53 2.236 . S
C108 C76 2.236 . S
C131 C99 2.236 . S
C154 C168 2.236 . S
C177 C191 2.236 1_556 S
C200 C214 2.236 . S
C223 C237 2.236 . S
C246 C260 2.236 . S
C145 C269 2.236 . S
