# Generated by pormake.
# Topology vbk, (5)-cn, num edge types: 1
# Building blocks:
#     Node 0, Type 0, BuildingBlock: BEQFEK_clean_sbu_0, # of connection points: 5
#     Node 1, Type 0, BuildingBlock: BEQFEK_clean_sbu_0, # of connection points: 5
#     Node 2, Type 0, BuildingBlock: BEQFEK_clean_sbu_0, # of connection points: 5
#     Node 3, Type 0, BuildingBlock: BEQFEK_clean_sbu_0, # of connection points: 5
#     Node 4, Type 0, BuildingBlock: BEQFEK_clean_sbu_0, # of connection points: 5
#     Node 5, Type 0, BuildingBlock: BEQFEK_clean_sbu_0, # of connection points: 5
#     Node 6, Type 0, BuildingBlock: BEQFEK_clean_sbu_0, # of connection points: 5
#     Node 7, Type 0, BuildingBlock: BEQFEK_clean_sbu_0, # of connection points: 5
#     Node 8, Type 0, BuildingBlock: BEQFEK_clean_sbu_0, # of connection points: 5
#     Node 9, Type 0, BuildingBlock: BEQFEK_clean_sbu_0, # of connection points: 5
#     Node 10, Type 0, BuildingBlock: BEQFEK_clean_sbu_0, # of connection points: 5
#     Node 11, Type 0, BuildingBlock: BEQFEK_clean_sbu_0, # of connection points: 5
#     Node 12, Type 0, BuildingBlock: BEQFEK_clean_sbu_0, # of connection points: 5
#     Node 13, Type 0, BuildingBlock: BEQFEK_clean_sbu_0, # of connection points: 5
#     Node 14, Type 0, BuildingBlock: BEQFEK_clean_sbu_0, # of connection points: 5
#     Node 15, Type 0, BuildingBlock: BEQFEK_clean_sbu_0, # of connection points: 5
#     Edge 16, Type (0, 0), BuildingBlock: TEMPAE_clean_linker_10, # of connection points: 2
#     Edge 17, Type (0, 0), BuildingBlock: TEMPAE_clean_linker_10, # of connection points: 2
#     Edge 18, Type (0, 0), BuildingBlock: TEMPAE_clean_linker_10, # of connection points: 2
#     Edge 19, Type (0, 0), BuildingBlock: TEMPAE_clean_linker_10, # of connection points: 2
#     Edge 20, Type (0, 0), BuildingBlock: TEMPAE_clean_linker_10, # of connection points: 2
#     Edge 21, Type (0, 0), BuildingBlock: TEMPAE_clean_linker_10, # of connection points: 2
#     Edge 22, Type (0, 0), BuildingBlock: TEMPAE_clean_linker_10, # of connection points: 2
#     Edge 23, Type (0, 0), BuildingBlock: TEMPAE_clean_linker_10, # of connection points: 2
#     Edge 24, Type (0, 0), BuildingBlock: TEMPAE_clean_linker_10, # of connection points: 2
#     Edge 25, Type (0, 0), BuildingBlock: TEMPAE_clean_linker_10, # of connection points: 2
#     Edge 26, Type (0, 0), BuildingBlock: TEMPAE_clean_linker_10, # of connection points: 2
#     Edge 27, Type (0, 0), BuildingBlock: TEMPAE_clean_linker_10, # of connection points: 2
#     Edge 28, Type (0, 0), BuildingBlock: TEMPAE_clean_linker_10, # of connection points: 2
#     Edge 29, Type (0, 0), BuildingBlock: TEMPAE_clean_linker_10, # of connection points: 2
#     Edge 30, Type (0, 0), BuildingBlock: TEMPAE_clean_linker_10, # of connection points: 2
#     Edge 31, Type (0, 0), BuildingBlock: TEMPAE_clean_linker_10, # of connection points: 2
#     Edge 32, Type (0, 0), BuildingBlock: TEMPAE_clean_linker_10, # of connection points: 2
#     Edge 33, Type (0, 0), BuildingBlock: TEMPAE_clean_linker_10, # of connection points: 2
#     Edge 34, Type (0, 0), BuildingBlock: TEMPAE_clean_linker_10, # of connection points: 2
#     Edge 35, Type (0, 0), BuildingBlock: TEMPAE_clean_linker_10, # of connection points: 2
#     Edge 36, Type (0, 0), BuildingBlock: TEMPAE_clean_linker_10, # of connection points: 2
#     Edge 37, Type (0, 0), BuildingBlock: TEMPAE_clean_linker_10, # of connection points: 2
#     Edge 38, Type (0, 0), BuildingBlock: TEMPAE_clean_linker_10, # of connection points: 2
#     Edge 39, Type (0, 0), BuildingBlock: TEMPAE_clean_linker_10, # of connection points: 2
#     Edge 40, Type (0, 0), BuildingBlock: TEMPAE_clean_linker_10, # of connection points: 2
#     Edge 41, Type (0, 0), BuildingBlock: TEMPAE_clean_linker_10, # of connection points: 2
#     Edge 42, Type (0, 0), BuildingBlock: TEMPAE_clean_linker_10, # of connection points: 2
#     Edge 43, Type (0, 0), BuildingBlock: TEMPAE_clean_linker_10, # of connection points: 2
#     Edge 44, Type (0, 0), BuildingBlock: TEMPAE_clean_linker_10, # of connection points: 2
#     Edge 45, Type (0, 0), BuildingBlock: TEMPAE_clean_linker_10, # of connection points: 2
#     Edge 46, Type (0, 0), BuildingBlock: TEMPAE_clean_linker_10, # of connection points: 2
#     Edge 47, Type (0, 0), BuildingBlock: TEMPAE_clean_linker_10, # of connection points: 2
#     Edge 48, Type (0, 0), BuildingBlock: TEMPAE_clean_linker_10, # of connection points: 2
#     Edge 49, Type (0, 0), BuildingBlock: TEMPAE_clean_linker_10, # of connection points: 2
#     Edge 50, Type (0, 0), BuildingBlock: TEMPAE_clean_linker_10, # of connection points: 2
#     Edge 51, Type (0, 0), BuildingBlock: TEMPAE_clean_linker_10, # of connection points: 2
#     Edge 52, Type (0, 0), BuildingBlock: TEMPAE_clean_linker_10, # of connection points: 2
#     Edge 53, Type (0, 0), BuildingBlock: TEMPAE_clean_linker_10, # of connection points: 2
#     Edge 54, Type (0, 0), BuildingBlock: TEMPAE_clean_linker_10, # of connection points: 2
#     Edge 55, Type (0, 0), BuildingBlock: TEMPAE_clean_linker_10, # of connection points: 2
# Relax obj value: 0.035
# Max RMSD: 0.067
# Mean RMSD: 0.067
data_MOF--net-vbk--node1-BEQFEK_clean_sbu_0--edge1-TEMPAE_clean_linker_10
_symmetry_space_group_name_H-M    P1
_symmetry_Int_Tables_number       1
_symmetry_cell_setting            triclinic
loop_
_symmetry_equiv_pos_as_xyz
'x, y, z'
_cell_length_a     77.699083
_cell_length_b     42.392009
_cell_length_c     27.130143
_cell_angle_alpha  89.994877
_cell_angle_beta   90.005442
_cell_angle_gamma 89.982944
loop_
_atom_site_label
_atom_site_type_symbol
_atom_site_fract_x
_atom_site_fract_y
_atom_site_fract_z
_atom_type_partial_charge
Co0 Co 0.09914 0.14948 0.14346 0.0
Co1 Co 0.13983 0.14907 0.1479 0.0
C2 C 0.12059 0.09514 0.10546 0.0
O3 O 0.10631 0.10941 0.11171 0.0
O4 O 0.13478 0.10689 0.12007 0.0
C5 C 0.06485 0.12497 0.16076 0.0
O6 O 0.07294 0.09824 0.16872 0.0
C7 C 0.17561 0.13491 0.18134 0.0
C8 C 0.18952 0.17543 0.14911 0.0
C9 C 0.19186 0.14834 0.17676 0.0
N10 N 0.16419 0.15343 0.15761 0.0
N11 N 0.17266 0.17751 0.13837 0.0
C12 C 0.1712 0.10409 0.20499 0.0
H13 H 0.15737 0.09847 0.19967 0.0
H14 H 0.17407 0.10505 0.24499 0.0
H15 H 0.17928 0.08513 0.18885 0.0
C16 C 0.10377 0.16557 0.2484 0.0
N17 N 0.11023 0.15598 0.20485 0.0
N18 N 0.12717 0.15685 0.20673 0.0
C19 C 0.13199 0.16751 0.25147 0.0
C20 C 0.11734 0.17315 0.2794 0.0
C21 C 0.08505 0.1716 0.2574 0.0
H22 H 0.07994 0.18729 0.22811 0.0
H23 H 0.07796 0.14894 0.25539 0.0
H24 H 0.08275 0.18258 0.29393 0.0
O25 O 0.10505 0.18423 0.09813 0.0
O26 O 0.13359 0.18105 0.09754 0.0
H27 H 0.15616 0.19009 0.23735 0.0
H28 H 0.15098 0.18645 0.30221 0.0
C29 C 0.15017 0.17477 0.26572 0.0
H30 H 0.15756 0.1525 0.2676 0.0
H31 H 0.16692 0.19546 0.11781 0.0
O32 O 0.07358 0.1495 0.15054 0.0
C33 C 0.11962 0.19332 0.08212 0.0
Co34 Co 0.40308 0.84716 0.65266 0.0
Co35 Co 0.36252 0.84277 0.6568 0.0
C36 C 0.37958 0.89792 0.61193 0.0
O37 O 0.39428 0.88551 0.6193 0.0
O38 O 0.36577 0.88484 0.62673 0.0
C39 C 0.43751 0.86722 0.6318 0.0
O40 O 0.43023 0.87898 0.59214 0.0
C41 C 0.32555 0.853 0.68272 0.0
C42 C 0.31543 0.80501 0.66983 0.0
C43 C 0.31056 0.83495 0.68489 0.0
N44 N 0.33857 0.83432 0.66757 0.0
N45 N 0.33235 0.80576 0.65979 0.0
C46 C 0.32743 0.88747 0.69327 0.0
H47 H 0.33856 0.89743 0.67313 0.0
H48 H 0.32973 0.89084 0.73328 0.0
H49 H 0.31555 0.90041 0.68285 0.0
C50 C 0.3989 0.83191 0.75784 0.0
N51 N 0.39217 0.84018 0.71396 0.0
N52 N 0.37529 0.83816 0.71608 0.0
C53 C 0.37074 0.82846 0.76156 0.0
C54 C 0.38554 0.82414 0.78949 0.0
C55 C 0.41775 0.82721 0.76656 0.0
H56 H 0.42304 0.81128 0.73785 0.0
H57 H 0.42443 0.85024 0.76311 0.0
H58 H 0.42041 0.8171 0.80349 0.0
O59 O 0.39895 0.81102 0.6083 0.0
O60 O 0.37034 0.81094 0.60783 0.0
H61 H 0.34785 0.80079 0.75519 0.0
H62 H 0.35186 0.81548 0.81675 0.0
C63 C 0.35268 0.82112 0.77688 0.0
H64 H 0.34434 0.84172 0.76912 0.0
H65 H 0.33972 0.78665 0.64782 0.0
O66 O 0.42828 0.85233 0.66271 0.0
C67 C 0.38469 0.80013 0.59258 0.0
Co68 Co 0.09827 0.8484 0.85219 0.0
Co69 Co 0.13877 0.84725 0.84561 0.0
C70 C 0.12099 0.90078 0.89243 0.0
O71 O 0.10656 0.88709 0.88583 0.0
O72 O 0.13502 0.88909 0.87636 0.0
C73 C 0.06477 0.87491 0.83119 0.0
O74 O 0.07351 0.89951 0.81561 0.0
C75 C 0.176 0.85721 0.82007 0.0
C76 C 0.18528 0.80827 0.82906 0.0
C77 C 0.19067 0.83836 0.81654 0.0
N78 N 0.16265 0.83881 0.83364 0.0
N79 N 0.16838 0.80968 0.83906 0.0
C80 C 0.1747 0.89207 0.81232 0.0
H81 H 0.16371 0.90192 0.83327 0.0
H82 H 0.1725 0.89687 0.77262 0.0
H83 H 0.1868 0.90393 0.82375 0.0
C84 C 0.10199 0.83392 0.7462 0.0
N85 N 0.10871 0.84262 0.7899 0.0
N86 N 0.12563 0.84231 0.7869 0.0
C87 C 0.13017 0.83365 0.74093 0.0
C88 C 0.11538 0.82795 0.71369 0.0
C89 C 0.0833 0.82704 0.73822 0.0
H90 H 0.07811 0.81378 0.77019 0.0
H91 H 0.07618 0.84965 0.73545 0.0
H92 H 0.08111 0.81326 0.70403 0.0
O93 O 0.10347 0.81225 0.89493 0.0
O94 O 0.13198 0.81476 0.89468 0.0
H95 H 0.15376 0.80776 0.74331 0.0
H96 H 0.14908 0.825 0.68386 0.0
C97 C 0.14833 0.82868 0.72431 0.0
H98 H 0.15618 0.84954 0.73424 0.0
H99 H 0.16069 0.79061 0.84936 0.0
O100 O 0.07286 0.85089 0.84697 0.0
C101 C 0.11802 0.80249 0.90997 0.0
Co102 Co 0.40104 0.14233 0.35622 0.0
Co103 Co 0.3605 0.14767 0.35769 0.0
C104 C 0.3781 0.09159 0.39854 0.0
O105 O 0.39274 0.10394 0.38996 0.0
O106 O 0.36413 0.10493 0.38552 0.0
C107 C 0.43626 0.131 0.37904 0.0
O108 O 0.42987 0.12778 0.42361 0.0
C109 C 0.32389 0.13831 0.32913 0.0
C110 C 0.31249 0.18266 0.35663 0.0
C111 C 0.30841 0.15508 0.33166 0.0
N112 N 0.33631 0.15554 0.35099 0.0
N113 N 0.32932 0.18181 0.3678 0.0
C114 C 0.32734 0.10758 0.30389 0.0
H115 H 0.34137 0.1043 0.2981 0.0
H116 H 0.32054 0.10662 0.26794 0.0
H117 H 0.32261 0.088 0.32739 0.0
C118 C 0.39537 0.15802 0.25208 0.0
N119 N 0.38918 0.14985 0.29659 0.0
N120 N 0.37233 0.15326 0.29688 0.0
C121 C 0.36731 0.16429 0.25252 0.0
C122 C 0.38173 0.16743 0.22263 0.0
C123 C 0.41415 0.16115 0.24082 0.0
H124 H 0.42015 0.1775 0.26775 0.0
H125 H 0.42044 0.1378 0.24506 0.0
H126 H 0.41645 0.17009 0.20297 0.0
O127 O 0.3977 0.17821 0.40153 0.0
O128 O 0.36914 0.17887 0.40651 0.0
H129 H 0.34446 0.19049 0.26921 0.0
H130 H 0.3485 0.18594 0.20386 0.0
C131 C 0.34932 0.17426 0.24035 0.0
H132 H 0.34092 0.15319 0.23951 0.0
H133 H 0.33613 0.1995 0.38608 0.0
O134 O 0.42611 0.13731 0.34364 0.0
C135 C 0.38384 0.18929 0.41962 0.0
Co136 Co 0.9011 0.85364 0.84946 0.0
Co137 Co 0.8612 0.84088 0.85262 0.0
C138 C 0.8764 0.90061 0.89202 0.0
O139 O 0.89153 0.89245 0.87916 0.0
O140 O 0.86341 0.88292 0.88439 0.0
C141 C 0.93559 0.8741 0.86696 0.0
O142 O 0.92883 0.88486 0.90806 0.0
C143 C 0.82433 0.84827 0.82841 0.0
C144 C 0.81539 0.79896 0.83492 0.0
C145 C 0.8101 0.82898 0.82172 0.0
N146 N 0.8375 0.83031 0.84429 0.0
N147 N 0.83195 0.801 0.84901 0.0
C148 C 0.82597 0.8823 0.81473 0.0
H149 H 0.83966 0.8885 0.80819 0.0
H150 H 0.8182 0.88759 0.78138 0.0
H151 H 0.82101 0.89697 0.84548 0.0
C152 C 0.8957 0.83727 0.74495 0.0
N153 N 0.88956 0.84383 0.79022 0.0
N154 N 0.87285 0.83879 0.79103 0.0
C155 C 0.86786 0.82868 0.74613 0.0
C156 C 0.88215 0.82741 0.71554 0.0
C157 C 0.91445 0.8366 0.73236 0.0
H158 H 0.92122 0.82032 0.75787 0.0
H159 H 0.91996 0.8605 0.73765 0.0
H160 H 0.91668 0.8289 0.69381 0.0
O161 O 0.89906 0.81843 0.89754 0.0
O162 O 0.87094 0.80908 0.8979 0.0
H163 H 0.84651 0.79761 0.7569 0.0
H164 H 0.8489 0.81124 0.69416 0.0
C165 C 0.85003 0.81805 0.73351 0.0
H166 H 0.84085 0.83747 0.74082 0.0
H167 H 0.83969 0.7821 0.85979 0.0
O168 O 0.92594 0.86014 0.8361 0.0
C169 C 0.88609 0.80287 0.9129 0.0
Co170 Co 0.59956 0.14566 0.3522 0.0
Co171 Co 0.63978 0.15579 0.34935 0.0
C172 C 0.62385 0.0967 0.39026 0.0
O173 O 0.60861 0.10569 0.37995 0.0
O174 O 0.63694 0.11375 0.38064 0.0
C175 C 0.56536 0.11799 0.33996 0.0
O176 O 0.5734 0.09078 0.33698 0.0
C177 C 0.67581 0.14756 0.31493 0.0
C178 C 0.68759 0.19112 0.34412 0.0
C179 C 0.69126 0.16437 0.31659 0.0
N180 N 0.66377 0.16398 0.3398 0.0
N181 N 0.67098 0.18978 0.35754 0.0
C182 C 0.672 0.11756 0.28803 0.0
H183 H 0.65789 0.1144 0.28373 0.0
H184 H 0.67828 0.11762 0.25129 0.0
H185 H 0.67707 0.09736 0.3096 0.0
C186 C 0.60341 0.16266 0.24716 0.0
N187 N 0.61026 0.15531 0.29127 0.0
N188 N 0.62705 0.15962 0.28963 0.0
C189 C 0.63134 0.17013 0.24432 0.0
C190 C 0.61654 0.17196 0.21587 0.0
C191 C 0.58451 0.1632 0.23662 0.0
H192 H 0.57902 0.13952 0.24403 0.0
H193 H 0.58183 0.16984 0.19779 0.0
H194 H 0.57813 0.18024 0.26172 0.0
O195 O 0.60356 0.18011 0.40037 0.0
O196 O 0.63174 0.18797 0.3964 0.0
H197 H 0.64807 0.19794 0.19739 0.0
H198 H 0.65745 0.16275 0.22261 0.0
C199 C 0.6487 0.18273 0.23063 0.0
H200 H 0.65411 0.19657 0.2616 0.0
H201 H 0.66448 0.20684 0.37806 0.0
O202 O 0.5741 0.14313 0.3451 0.0
C203 C 0.61702 0.19488 0.41384 0.0
Co204 Co 0.90011 0.14304 0.14797 0.0
Co205 Co 0.86004 0.15419 0.14001 0.0
C206 C 0.87681 0.09457 0.10422 0.0
O207 O 0.89177 0.10321 0.11792 0.0
O208 O 0.86366 0.112 0.11072 0.0
C209 C 0.93534 0.13242 0.12755 0.0
O210 O 0.92896 0.12878 0.08305 0.0
C211 C 0.82368 0.14398 0.1672 0.0
C212 C 0.8111 0.18485 0.13174 0.0
C213 C 0.80782 0.15838 0.16014 0.0
N214 N 0.83579 0.16135 0.14434 0.0
N215 N 0.82815 0.18564 0.12301 0.0
C216 C 0.82716 0.11322 0.19239 0.0
H217 H 0.84068 0.10573 0.18647 0.0
H218 H 0.82482 0.1155 0.23252 0.0
H219 H 0.81821 0.09496 0.17815 0.0
C220 C 0.89295 0.15983 0.25161 0.0
N221 N 0.88752 0.15285 0.20577 0.0
N222 N 0.87091 0.15864 0.20242 0.0
C223 C 0.86535 0.17036 0.2458 0.0
C224 C 0.87908 0.17109 0.27852 0.0
C225 C 0.91144 0.15953 0.26701 0.0
H226 H 0.91873 0.17665 0.24418 0.0
H227 H 0.91695 0.13578 0.26019 0.0
H228 H 0.91299 0.16571 0.30651 0.0
O229 O 0.89783 0.17792 0.09896 0.0
O230 O 0.86959 0.18545 0.09383 0.0
H231 H 0.84367 0.19792 0.22245 0.0
H232 H 0.84698 0.19767 0.28849 0.0
C233 C 0.84767 0.18333 0.25438 0.0
H234 H 0.8385 0.16354 0.25825 0.0
H235 H 0.83458 0.20284 0.10259 0.0
O236 O 0.92511 0.13847 0.16288 0.0
C237 C 0.88488 0.1923 0.08081 0.0
Co238 Co 0.60077 0.85533 0.64455 0.0
Co239 Co 0.64091 0.84499 0.6465 0.0
C240 C 0.62525 0.90368 0.60448 0.0
O241 O 0.61006 0.89477 0.61566 0.0
O242 O 0.63842 0.88674 0.61384 0.0
C243 C 0.56664 0.88191 0.66581 0.0
O244 O 0.57461 0.90761 0.68035 0.0
C245 C 0.6777 0.85293 0.67393 0.0
C246 C 0.68638 0.80332 0.67027 0.0
C247 C 0.69172 0.83343 0.6826 0.0
N248 N 0.66457 0.83498 0.65774 0.0
N249 N 0.67 0.80548 0.65473 0.0
C250 C 0.67625 0.88726 0.68575 0.0
H251 H 0.66253 0.89426 0.68929 0.0
H252 H 0.68329 0.89274 0.72032 0.0
H253 H 0.6822 0.9011 0.65551 0.0
C254 C 0.6049 0.83934 0.75024 0.0
N255 N 0.61147 0.8463 0.70556 0.0
N256 N 0.6283 0.84259 0.70667 0.0
C257 C 0.63293 0.83327 0.75229 0.0
C258 C 0.6183 0.83091 0.78128 0.0
C259 C 0.58606 0.83704 0.76099 0.0
H260 H 0.57964 0.82295 0.73185 0.0
H261 H 0.5804 0.86106 0.76051 0.0
H262 H 0.58358 0.82613 0.79749 0.0
O263 O 0.60444 0.82028 0.59754 0.0
O264 O 0.63261 0.81241 0.60033 0.0
H265 H 0.65508 0.80362 0.74579 0.0
H266 H 0.65166 0.8189 0.80714 0.0
C267 C 0.65084 0.82447 0.76724 0.0
H268 H 0.65963 0.84436 0.75933 0.0
H269 H 0.66226 0.78656 0.64411 0.0
O270 O 0.5754 0.85841 0.65111 0.0
C271 C 0.6178 0.80534 0.58376 0.0
Co272 Co 0.60065 0.64836 0.14375 0.0
Co273 Co 0.6411 0.656 0.14712 0.0
C274 C 0.62464 0.59988 0.10081 0.0
O275 O 0.60962 0.61053 0.10968 0.0
O276 O 0.63816 0.61443 0.1145 0.0
C277 C 0.56732 0.61983 0.16421 0.0
O278 O 0.57615 0.59463 0.17667 0.0
C279 C 0.67804 0.64605 0.17401 0.0
C280 C 0.68807 0.69418 0.16191 0.0
C281 C 0.69296 0.66427 0.17712 0.0
N282 N 0.66504 0.66462 0.15833 0.0
N283 N 0.67122 0.69326 0.15094 0.0
C284 C 0.67617 0.61154 0.18432 0.0
H285 H 0.66514 0.60159 0.16372 0.0
H286 H 0.67371 0.60805 0.22422 0.0
H287 H 0.68812 0.59871 0.17424 0.0
C288 C 0.60489 0.6624 0.24982 0.0
N289 N 0.61152 0.65517 0.20535 0.0
N290 N 0.62838 0.65843 0.20687 0.0
C291 C 0.63296 0.66781 0.25246 0.0
C292 C 0.61826 0.67062 0.28113 0.0
C293 C 0.58603 0.66585 0.25974 0.0
H294 H 0.58004 0.68041 0.23039 0.0
H295 H 0.57994 0.64221 0.25885 0.0
H296 H 0.58353 0.67683 0.29616 0.0
O297 O 0.60455 0.68468 0.10021 0.0
O298 O 0.63299 0.68936 0.10093 0.0
H299 H 0.65517 0.69715 0.24445 0.0
H300 H 0.65165 0.68327 0.30669 0.0
C301 C 0.65086 0.67686 0.2671 0.0
H302 H 0.65964 0.65679 0.26019 0.0
H303 H 0.66387 0.71233 0.13879 0.0
O304 O 0.57529 0.64451 0.15058 0.0
C305 C 0.61824 0.69831 0.08586 0.0
Co306 Co 0.90588 0.34869 0.63956 0.0
Co307 Co 0.86572 0.34453 0.65491 0.0
C308 C 0.88118 0.39921 0.60365 0.0
O309 O 0.89608 0.38692 0.60804 0.0
O310 O 0.8678 0.38627 0.62192 0.0
C311 C 0.9396 0.37693 0.65037 0.0
O312 O 0.93102 0.40268 0.6614 0.0
C313 C 0.82942 0.35465 0.68746 0.0
C314 C 0.82106 0.30506 0.6952 0.0
C315 C 0.81562 0.33587 0.70168 0.0
N316 N 0.84247 0.33564 0.67372 0.0
N317 N 0.83724 0.30609 0.67782 0.0
C318 C 0.8307 0.38978 0.69053 0.0
H319 H 0.84425 0.39696 0.69708 0.0
H320 H 0.8223 0.39907 0.72028 0.0
H321 H 0.82644 0.40009 0.65498 0.0
C322 C 0.90528 0.33461 0.7461 0.0
N323 N 0.89723 0.34238 0.70384 0.0
N324 N 0.88048 0.34178 0.71097 0.0
C325 C 0.87741 0.33445 0.75855 0.0
C326 C 0.893 0.3296 0.78229 0.0
C327 C 0.92424 0.32909 0.75034 0.0
H328 H 0.92858 0.31336 0.7201 0.0
H329 H 0.93105 0.35193 0.74633 0.0
H330 H 0.92772 0.31857 0.78646 0.0
O331 O 0.90008 0.31266 0.59757 0.0
O332 O 0.87169 0.31114 0.6057 0.0
H333 H 0.85483 0.30597 0.76424 0.0
H334 H 0.86036 0.32622 0.82038 0.0
C335 C 0.85993 0.32831 0.77963 0.0
H336 H 0.85111 0.34778 0.76948 0.0
H337 H 0.84494 0.28653 0.67004 0.0
O338 O 0.93136 0.35183 0.64043 0.0
C339 C 0.88557 0.30072 0.58662 0.0
Co340 Co 0.60248 0.3541 0.85207 0.0
Co341 Co 0.64291 0.34789 0.849 0.0
C342 C 0.62661 0.40399 0.89291 0.0
O343 O 0.61179 0.39202 0.88538 0.0
O344 O 0.64036 0.39045 0.87841 0.0
C345 C 0.56763 0.36687 0.87809 0.0
O346 O 0.57446 0.37007 0.92213 0.0
C347 C 0.67991 0.35598 0.82324 0.0
C348 C 0.68855 0.30633 0.82601 0.0
C349 C 0.69405 0.33659 0.81507 0.0
N350 N 0.66662 0.33782 0.83781 0.0
N351 N 0.672 0.30828 0.8401 0.0
C352 C 0.67852 0.39053 0.81289 0.0
H353 H 0.66496 0.39705 0.80503 0.0
H354 H 0.68687 0.3972 0.78137 0.0
H355 H 0.68286 0.40382 0.84586 0.0
C356 C 0.60664 0.33876 0.74704 0.0
N357 N 0.61336 0.34661 0.79111 0.0
N358 N 0.63022 0.34403 0.78929 0.0
C359 C 0.63476 0.33458 0.74366 0.0
C360 C 0.61999 0.3308 0.71551 0.0
C361 C 0.58776 0.3347 0.73796 0.0
H362 H 0.58226 0.31887 0.76648 0.0
H363 H 0.5813 0.35793 0.74142 0.0
H364 H 0.58511 0.32479 0.7009 0.0
O365 O 0.60596 0.31783 0.89628 0.0
O366 O 0.63455 0.31649 0.8982 0.0
H367 H 0.65729 0.30578 0.74789 0.0
H368 H 0.65357 0.32273 0.68775 0.0
C369 C 0.65276 0.32708 0.72802 0.0
H370 H 0.66132 0.34706 0.73746 0.0
H371 H 0.66417 0.28924 0.84966 0.0
O372 O 0.57737 0.36011 0.84198 0.0
C373 C 0.61996 0.30632 0.91272 0.0
Co374 Co 0.90414 0.64518 0.35387 0.0
Co375 Co 0.86364 0.65094 0.34858 0.0
C376 C 0.8804 0.59515 0.39477 0.0
O377 O 0.89527 0.60675 0.3868 0.0
O378 O 0.86672 0.609 0.3804 0.0
C379 C 0.93787 0.61743 0.33617 0.0
O380 O 0.92937 0.59148 0.3257 0.0
C381 C 0.82652 0.64196 0.32158 0.0
C382 C 0.81716 0.69065 0.33281 0.0
C383 C 0.81185 0.66088 0.31827 0.0
N384 N 0.83978 0.66003 0.33683 0.0
N385 N 0.834 0.68901 0.34366 0.0
C386 C 0.8279 0.60731 0.31192 0.0
H387 H 0.83883 0.59703 0.33268 0.0
H388 H 0.83028 0.60342 0.27207 0.0
H389 H 0.81579 0.59513 0.32229 0.0
C390 C 0.90041 0.66055 0.24813 0.0
N391 N 0.89358 0.65231 0.29193 0.0
N392 N 0.87669 0.65459 0.28948 0.0
C393 C 0.87228 0.66427 0.24388 0.0
C394 C 0.88714 0.66845 0.21623 0.0
C395 C 0.91928 0.66514 0.23963 0.0
H396 H 0.92475 0.67978 0.2697 0.0
H397 H 0.92578 0.64185 0.24059 0.0
H398 H 0.92192 0.67659 0.20365 0.0
O399 O 0.89972 0.68103 0.39799 0.0
O400 O 0.87123 0.68385 0.39606 0.0
H401 H 0.84957 0.69254 0.24931 0.0
H402 H 0.85357 0.6772 0.18817 0.0
C403 C 0.85429 0.67188 0.22817 0.0
H404 H 0.84581 0.65155 0.23622 0.0
H405 H 0.84162 0.70784 0.35536 0.0
O406 O 0.92956 0.64217 0.34777 0.0
C407 C 0.8857 0.69361 0.41201 0.0
Co408 Co 0.40428 0.35065 0.8583 0.0
Co409 Co 0.36406 0.34131 0.85378 0.0
C410 C 0.37995 0.40002 0.89524 0.0
O411 O 0.39518 0.39064 0.8858 0.0
O412 O 0.3668 0.38333 0.88489 0.0
C413 C 0.43829 0.37862 0.84598 0.0
O414 O 0.43008 0.4056 0.84195 0.0
C415 C 0.32804 0.34968 0.81963 0.0
C416 C 0.31641 0.30555 0.84722 0.0
C417 C 0.31263 0.33273 0.8209 0.0
N418 N 0.34016 0.33294 0.84363 0.0
N419 N 0.33304 0.30678 0.86038 0.0
C420 C 0.33173 0.38013 0.79385 0.0
H421 H 0.34582 0.38337 0.7892 0.0
H422 H 0.3253 0.38069 0.75734 0.0
H423 H 0.32676 0.39995 0.81643 0.0
C424 C 0.40086 0.33366 0.75314 0.0
N425 N 0.39384 0.34116 0.79696 0.0
N426 N 0.37703 0.33732 0.79458 0.0
C427 C 0.37288 0.32706 0.74905 0.0
C428 C 0.38781 0.32478 0.72125 0.0
C429 C 0.4198 0.33269 0.74338 0.0
H430 H 0.42537 0.35635 0.7504 0.0
H431 H 0.42264 0.32564 0.70483 0.0
H432 H 0.42598 0.31581 0.76916 0.0
O433 O 0.40005 0.31619 0.90632 0.0
O434 O 0.37183 0.30933 0.90138 0.0
H435 H 0.35597 0.30075 0.70046 0.0
H436 H 0.34681 0.33551 0.72785 0.0
C437 C 0.35545 0.31516 0.73457 0.0
H438 H 0.34995 0.3007 0.76473 0.0
H439 H 0.33962 0.28944 0.88014 0.0
O440 O 0.42972 0.35336 0.85186 0.0
C441 C 0.38638 0.30194 0.9194 0.0
Co442 Co 0.10173 0.64254 0.34764 0.0
Co443 Co 0.14151 0.65686 0.35005 0.0
C444 C 0.1268 0.59668 0.39004 0.0
O445 O 0.11153 0.60404 0.37745 0.0
O446 O 0.1395 0.61496 0.38196 0.0
C447 C 0.06719 0.62493 0.36899 0.0
O448 O 0.07399 0.61841 0.41216 0.0
C449 C 0.17796 0.65011 0.32119 0.0
C450 C 0.18885 0.69473 0.34931 0.0
C451 C 0.19323 0.66738 0.32414 0.0
N452 N 0.16537 0.66674 0.34323 0.0
N453 N 0.17201 0.69323 0.36033 0.0
C454 C 0.17484 0.6194 0.29555 0.0
H455 H 0.16086 0.61588 0.28905 0.0
H456 H 0.18185 0.61865 0.25994 0.0
H457 H 0.17951 0.59983 0.31918 0.0
C458 C 0.10685 0.65845 0.243 0.0
N459 N 0.11318 0.65251 0.2882 0.0
N460 N 0.12981 0.65856 0.28862 0.0
C461 C 0.13451 0.66889 0.24356 0.0
C462 C 0.12016 0.66873 0.21316 0.0
C463 C 0.08815 0.65699 0.23005 0.0
H464 H 0.08312 0.63312 0.23861 0.0
H465 H 0.08594 0.66221 0.19046 0.0
H466 H 0.08096 0.67423 0.25294 0.0
O467 O 0.10362 0.67792 0.39551 0.0
O468 O 0.1316 0.68863 0.39486 0.0
H469 H 0.15119 0.69741 0.19754 0.0
H470 H 0.1612 0.66399 0.22644 0.0
C471 C 0.15167 0.68311 0.23178 0.0
H472 H 0.15601 0.69823 0.2627 0.0
H473 H 0.16499 0.71052 0.3789 0.0
O474 O 0.07686 0.63542 0.33496 0.0
C475 C 0.11642 0.69418 0.41021 0.0
Co476 Co 0.40319 0.63891 0.15502 0.0
Co477 Co 0.36315 0.65053 0.15317 0.0
C478 C 0.37905 0.59136 0.11271 0.0
O479 O 0.39416 0.59966 0.12537 0.0
O480 O 0.36601 0.60881 0.12095 0.0
C481 C 0.43784 0.621 0.13487 0.0
O482 O 0.43093 0.61141 0.09327 0.0
C483 C 0.32689 0.64218 0.18372 0.0
C484 C 0.31467 0.68338 0.1481 0.0
C485 C 0.3112 0.65727 0.17706 0.0
N486 N 0.33909 0.65879 0.15992 0.0
N487 N 0.33166 0.68332 0.13864 0.0
C488 C 0.33006 0.61138 0.20903 0.0
H489 H 0.34371 0.6041 0.20491 0.0
H490 H 0.32692 0.61339 0.24875 0.0
H491 H 0.32148 0.59308 0.19314 0.0
C492 C 0.39801 0.65537 0.2595 0.0
N493 N 0.39167 0.64838 0.21466 0.0
N494 N 0.37493 0.65336 0.21448 0.0
C495 C 0.37017 0.6641 0.25928 0.0
C496 C 0.38461 0.66528 0.28934 0.0
C497 C 0.41677 0.65542 0.27192 0.0
H498 H 0.4223 0.63185 0.26388 0.0
H499 H 0.419 0.66127 0.31129 0.0
H500 H 0.4235 0.67291 0.24834 0.0
O501 O 0.4005 0.67409 0.10692 0.0
O502 O 0.37232 0.68283 0.10811 0.0
H503 H 0.35324 0.6929 0.30411 0.0
H504 H 0.34369 0.65816 0.27793 0.0
C505 C 0.35284 0.67766 0.27086 0.0
H506 H 0.34807 0.69165 0.23917 0.0
H507 H 0.33819 0.70004 0.1175 0.0
O508 O 0.42821 0.63345 0.16737 0.0
C509 C 0.38732 0.68942 0.09239 0.0
Co510 Co 0.10377 0.35764 0.647 0.0
Co511 Co 0.14371 0.34547 0.64473 0.0
C512 C 0.12801 0.40535 0.60633 0.0
O513 O 0.11286 0.39715 0.61863 0.0
O514 O 0.14094 0.38755 0.61398 0.0
C515 C 0.06919 0.37162 0.62308 0.0
O516 O 0.07626 0.3769 0.57987 0.0
C517 C 0.17977 0.3545 0.67566 0.0
C518 C 0.1925 0.31418 0.6391 0.0
C519 C 0.19564 0.34019 0.66862 0.0
N520 N 0.16778 0.33759 0.65154 0.0
N521 N 0.1755 0.31357 0.62971 0.0
C522 C 0.17621 0.38496 0.70158 0.0
H523 H 0.16263 0.3923 0.69606 0.0
H524 H 0.17869 0.38233 0.7416 0.0
H525 H 0.18503 0.4035 0.68754 0.0
C526 C 0.10888 0.34011 0.75104 0.0
N527 N 0.11523 0.34739 0.70634 0.0
N528 N 0.13193 0.34207 0.70592 0.0
C529 C 0.13667 0.33084 0.75041 0.0
C530 C 0.12226 0.32962 0.78053 0.0
C531 C 0.09014 0.34055 0.76366 0.0
H532 H 0.08474 0.36418 0.75528 0.0
H533 H 0.08793 0.335 0.80314 0.0
H534 H 0.08327 0.32306 0.74042 0.0
O535 O 0.10644 0.32306 0.59805 0.0
O536 O 0.13457 0.31372 0.59857 0.0
H537 H 0.15344 0.30093 0.79395 0.0
H538 H 0.16316 0.33607 0.76965 0.0
C539 C 0.15395 0.31684 0.7615 0.0
H540 H 0.15872 0.30345 0.72919 0.0
H541 H 0.16917 0.29682 0.60814 0.0
O542 O 0.07874 0.36316 0.65873 0.0
C543 C 0.11949 0.30768 0.58281 0.0
C544 C 0.22336 0.13914 0.16995 0.0
C545 C 0.20843 0.13875 0.19889 0.0
C546 C 0.23971 0.13628 0.19146 0.0
C547 C 0.24118 0.13379 0.24335 0.0
C548 C 0.22608 0.13163 0.27248 0.0
C549 C 0.20985 0.13404 0.24982 0.0
C550 C 0.25543 0.13819 0.1589 0.0
C551 C 0.22704 0.12944 0.32793 0.0
C552 C 0.2853 0.11774 0.30025 0.0
C553 C 0.29123 0.14849 0.30937 0.0
C554 C 0.26904 0.1124 0.27877 0.0
C555 C 0.2583 0.13838 0.26722 0.0
C556 C 0.26404 0.16936 0.27745 0.0
C557 C 0.28038 0.17399 0.29808 0.0
C558 C 0.26337 0.07903 0.26826 0.0
C559 C 0.25297 0.1978 0.26623 0.0
H560 H 0.22225 0.1429 0.13054 0.0
H561 H 0.19836 0.13458 0.27244 0.0
H562 H 0.26173 0.16146 0.16391 0.0
H563 H 0.26492 0.11979 0.16929 0.0
H564 H 0.25216 0.13537 0.11928 0.0
H565 H 0.21441 0.12318 0.34449 0.0
H566 H 0.23671 0.11166 0.33941 0.0
H567 H 0.23116 0.15254 0.34313 0.0
H568 H 0.29313 0.09773 0.31049 0.0
H569 H 0.28471 0.19789 0.30498 0.0
H570 H 0.26051 0.07633 0.22841 0.0
H571 H 0.25133 0.07376 0.28862 0.0
H572 H 0.27329 0.0614 0.27882 0.0
H573 H 0.2505 0.19922 0.22602 0.0
H574 H 0.25905 0.22023 0.27826 0.0
H575 H 0.24032 0.19553 0.28484 0.0
C576 C 0.22215 0.82823 0.82046 0.0
C577 C 0.20852 0.84617 0.80134 0.0
C578 C 0.2389 0.83124 0.80202 0.0
C579 C 0.24223 0.85296 0.76357 0.0
C580 C 0.22876 0.87245 0.74589 0.0
C581 C 0.212 0.86859 0.76461 0.0
C582 C 0.25282 0.80979 0.82178 0.0
C583 C 0.23186 0.89619 0.70541 0.0
C584 C 0.28993 0.86531 0.73894 0.0
C585 C 0.29289 0.84351 0.70093 0.0
C586 C 0.27326 0.8703 0.75764 0.0
C587 C 0.25933 0.85249 0.73873 0.0
C588 C 0.26215 0.83131 0.69923 0.0
C589 C 0.27885 0.82719 0.68078 0.0
C590 C 0.27073 0.89339 0.79934 0.0
C591 C 0.24771 0.81159 0.67822 0.0
H592 H 0.21959 0.81094 0.84899 0.0
H593 H 0.20157 0.882 0.74854 0.0
H594 H 0.25703 0.79329 0.79239 0.0
H595 H 0.26423 0.82376 0.83302 0.0
H596 H 0.2484 0.79572 0.85392 0.0
H597 H 0.22088 0.91277 0.7012 0.0
H598 H 0.24372 0.90997 0.71287 0.0
H599 H 0.23376 0.88367 0.66992 0.0
H600 H 0.30065 0.87737 0.75594 0.0
H601 H 0.281 0.81036 0.65133 0.0
H602 H 0.26848 0.88029 0.83414 0.0
H603 H 0.25924 0.90835 0.79257 0.0
H604 H 0.28211 0.9089 0.80447 0.0
H605 H 0.24305 0.79482 0.70666 0.0
H606 H 0.2518 0.79789 0.64534 0.0
H607 H 0.23669 0.82681 0.66774 0.0
C608 C 0.71318 0.82374 0.74832 0.0
C609 C 0.70821 0.84093 0.70668 0.0
C610 C 0.72967 0.82713 0.76849 0.0
C611 C 0.74164 0.84755 0.74549 0.0
C612 C 0.73641 0.86608 0.70462 0.0
C613 C 0.71961 0.86277 0.68593 0.0
C614 C 0.73455 0.80747 0.81278 0.0
C615 C 0.74886 0.88773 0.67863 0.0
C616 C 0.78324 0.8615 0.81641 0.0
C617 C 0.79339 0.83664 0.7988 0.0
C618 C 0.7665 0.86634 0.79805 0.0
C619 C 0.76005 0.8462 0.76066 0.0
C620 C 0.77073 0.82223 0.74097 0.0
C621 C 0.78717 0.81748 0.76079 0.0
C622 C 0.75542 0.89176 0.82057 0.0
C623 C 0.76453 0.80065 0.70037 0.0
H624 H 0.70424 0.80703 0.76449 0.0
H625 H 0.71571 0.87589 0.65348 0.0
H626 H 0.74375 0.78881 0.80146 0.0
H627 H 0.74104 0.82227 0.84092 0.0
H628 H 0.72319 0.79597 0.82997 0.0
H629 H 0.74225 0.90358 0.65206 0.0
H630 H 0.75604 0.90232 0.7056 0.0
H631 H 0.75843 0.87338 0.65818 0.0
H632 H 0.78806 0.87616 0.84609 0.0
H633 H 0.79514 0.79845 0.74689 0.0
H634 H 0.7451 0.88067 0.84292 0.0
H635 H 0.74906 0.90594 0.79144 0.0
H636 H 0.76294 0.9078 0.84473 0.0
H637 H 0.75424 0.78502 0.71473 0.0
H638 H 0.77504 0.78564 0.68547 0.0
H639 H 0.75895 0.81463 0.6697 0.0
C640 C 0.7187 0.18432 0.28084 0.0
C641 C 0.70808 0.15847 0.29192 0.0
C642 C 0.73488 0.18026 0.25903 0.0
C643 C 0.74067 0.14953 0.24732 0.0
C644 C 0.73007 0.12323 0.25808 0.0
C645 C 0.71398 0.12798 0.28083 0.0
C646 C 0.74582 0.209 0.24871 0.0
C647 C 0.7358 0.09012 0.24587 0.0
C648 C 0.77616 0.15145 0.15165 0.0
C649 C 0.79089 0.15018 0.18131 0.0
C650 C 0.75966 0.1487 0.17229 0.0
C651 C 0.75788 0.14545 0.224 0.0
C652 C 0.77278 0.14272 0.25383 0.0
C653 C 0.78914 0.14504 0.23205 0.0
C654 C 0.74413 0.15122 0.13909 0.0
C655 C 0.77149 0.13981 0.30916 0.0
H656 H 0.71434 0.20802 0.28919 0.0
H657 H 0.70632 0.1077 0.29074 0.0
H658 H 0.75842 0.20676 0.26763 0.0
H659 H 0.74842 0.21084 0.20862 0.0
H660 H 0.73958 0.23121 0.2611 0.0
H661 H 0.72575 0.07231 0.25444 0.0
H662 H 0.7391 0.08841 0.20616 0.0
H663 H 0.74759 0.08423 0.26699 0.0
H664 H 0.77754 0.15552 0.11239 0.0
H665 H 0.80048 0.145 0.25527 0.0
H666 H 0.73778 0.17438 0.14483 0.0
H667 H 0.73459 0.13265 0.14823 0.0
H668 H 0.74763 0.14912 0.09952 0.0
H669 H 0.76696 0.16253 0.32482 0.0
H670 H 0.78406 0.13383 0.32629 0.0
H671 H 0.76196 0.1215 0.3195 0.0
C672 C 0.72465 0.67287 0.1759 0.0
C673 C 0.71054 0.65603 0.19453 0.0
C674 C 0.74119 0.66906 0.19568 0.0
C675 C 0.7438 0.64763 0.23499 0.0
C676 C 0.72981 0.62938 0.25246 0.0
C677 C 0.71329 0.63406 0.23245 0.0
C678 C 0.75568 0.68928 0.17619 0.0
C679 C 0.73211 0.60602 0.29393 0.0
C680 C 0.79096 0.63153 0.26355 0.0
C681 C 0.79412 0.65345 0.30125 0.0
C682 C 0.77436 0.62788 0.24354 0.0
C683 C 0.76073 0.6471 0.26085 0.0
C684 C 0.76373 0.66841 0.30008 0.0
C685 C 0.78033 0.67119 0.31983 0.0
C686 C 0.77162 0.60459 0.20221 0.0
C687 C 0.74963 0.68959 0.31946 0.0
H688 H 0.72267 0.68986 0.14656 0.0
H689 H 0.7025 0.62161 0.24836 0.0
H690 H 0.76003 0.70579 0.20539 0.0
H691 H 0.76686 0.67437 0.16602 0.0
H692 H 0.75178 0.70329 0.14344 0.0
H693 H 0.72073 0.5904 0.29819 0.0
H694 H 0.74367 0.59119 0.28753 0.0
H695 H 0.73411 0.61889 0.32905 0.0
H696 H 0.80152 0.61833 0.24778 0.0
H697 H 0.78262 0.68813 0.34905 0.0
H698 H 0.76985 0.61751 0.16702 0.0
H699 H 0.7598 0.59052 0.20872 0.0
H700 H 0.7827 0.58825 0.19802 0.0
H701 H 0.74561 0.70634 0.29019 0.0
H702 H 0.75378 0.70338 0.35217 0.0
H703 H 0.73816 0.67545 0.32966 0.0
C704 C 0.79234 0.32877 0.76321 0.0
C705 C 0.7987 0.34496 0.7221 0.0
C706 C 0.77539 0.33316 0.77937 0.0
C707 C 0.76435 0.35369 0.75295 0.0
C708 C 0.77097 0.37134 0.71281 0.0
C709 C 0.78818 0.36692 0.69802 0.0
C710 C 0.76901 0.31432 0.82294 0.0
C711 C 0.75959 0.39318 0.68337 0.0
C712 C 0.71826 0.32507 0.75821 0.0
C713 C 0.71117 0.34447 0.79471 0.0
C714 C 0.73522 0.32933 0.74198 0.0
C715 C 0.74552 0.35313 0.76364 0.0
C716 C 0.7382 0.37369 0.79915 0.0
C717 C 0.72101 0.36924 0.81407 0.0
C718 C 0.74235 0.30722 0.70338 0.0
C719 C 0.7488 0.39909 0.82353 0.0
H720 H 0.80055 0.31192 0.78202 0.0
H721 H 0.79306 0.3792 0.66588 0.0
H722 H 0.76194 0.32975 0.84903 0.0
H723 H 0.75991 0.29591 0.81004 0.0
H724 H 0.77968 0.30256 0.84308 0.0
H725 H 0.76717 0.40859 0.65834 0.0
H726 H 0.75056 0.37898 0.66077 0.0
H727 H 0.75174 0.40822 0.70815 0.0
H728 H 0.71059 0.30606 0.74295 0.0
H729 H 0.71558 0.38405 0.84268 0.0
H730 H 0.75207 0.29143 0.72041 0.0
H731 H 0.74891 0.32075 0.67383 0.0
H732 H 0.73217 0.29237 0.68638 0.0
H733 H 0.75822 0.38801 0.84894 0.0
H734 H 0.74071 0.41576 0.84499 0.0
H735 H 0.75623 0.41257 0.79568 0.0
C736 C 0.21442 0.3528 0.74059 0.0
C737 C 0.21255 0.34849 0.68971 0.0
C738 C 0.23083 0.35504 0.76203 0.0
C739 C 0.24564 0.35314 0.73168 0.0
C740 C 0.24372 0.35088 0.6799 0.0
C741 C 0.22718 0.34814 0.6596 0.0
C742 C 0.2323 0.35689 0.81743 0.0
C743 C 0.25915 0.34931 0.64618 0.0
C744 C 0.28972 0.36972 0.78787 0.0
C745 C 0.29572 0.33904 0.79709 0.0
C746 C 0.27352 0.37484 0.76603 0.0
C747 C 0.26293 0.34871 0.7543 0.0
C748 C 0.26883 0.31778 0.76413 0.0
C749 C 0.28511 0.31336 0.78507 0.0
C750 C 0.26767 0.40816 0.75577 0.0
C751 C 0.2579 0.2892 0.75268 0.0
H752 H 0.20314 0.35222 0.76405 0.0
H753 H 0.22569 0.34476 0.6202 0.0
H754 H 0.2369 0.3339 0.8319 0.0
H755 H 0.24183 0.37504 0.8284 0.0
H756 H 0.21977 0.36247 0.83513 0.0
H757 H 0.25551 0.35228 0.60685 0.0
H758 H 0.26866 0.36777 0.65609 0.0
H759 H 0.26558 0.3261 0.65044 0.0
H760 H 0.2974 0.38982 0.79857 0.0
H761 H 0.28956 0.28953 0.79198 0.0
H762 H 0.25594 0.41348 0.77754 0.0
H763 H 0.26422 0.41072 0.71629 0.0
H764 H 0.27771 0.42585 0.765 0.0
H765 H 0.24536 0.29097 0.77203 0.0
H766 H 0.26422 0.26678 0.76378 0.0
H767 H 0.25517 0.28816 0.71258 0.0
C768 C 0.21666 0.63035 0.29438 0.0
C769 C 0.21053 0.66107 0.30265 0.0
C770 C 0.23303 0.62514 0.27374 0.0
C771 C 0.2437 0.65121 0.26236 0.0
C772 C 0.23776 0.68218 0.27175 0.0
C773 C 0.22128 0.68669 0.29145 0.0
C774 C 0.23892 0.59178 0.26401 0.0
C775 C 0.24879 0.71069 0.26077 0.0
C776 C 0.29225 0.64584 0.24913 0.0
C777 C 0.2942 0.6497 0.19819 0.0
C778 C 0.27579 0.64439 0.2705 0.0
C779 C 0.26103 0.64662 0.24002 0.0
C780 C 0.26302 0.64854 0.18822 0.0
C781 C 0.2796 0.65049 0.16799 0.0
C782 C 0.27426 0.6429 0.32592 0.0
C783 C 0.24763 0.65043 0.15435 0.0
H784 H 0.2089 0.61028 0.30471 0.0
H785 H 0.21677 0.71055 0.29779 0.0
H786 H 0.24225 0.58896 0.22448 0.0
H787 H 0.25073 0.58668 0.28555 0.0
H788 H 0.22894 0.57408 0.27378 0.0
H789 H 0.24251 0.73312 0.27194 0.0
H790 H 0.26129 0.70873 0.28032 0.0
H791 H 0.25161 0.71183 0.22073 0.0
H792 H 0.30352 0.64612 0.27264 0.0
H793 H 0.28116 0.65357 0.12856 0.0
H794 H 0.2646 0.62501 0.33705 0.0
H795 H 0.26977 0.66606 0.34001 0.0
H796 H 0.28673 0.63718 0.34383 0.0
H797 H 0.23805 0.63206 0.16405 0.0
H798 H 0.25129 0.64753 0.11503 0.0
H799 H 0.24128 0.6737 0.15875 0.0
C800 C 0.96133 0.13613 0.18247 0.0
C801 C 0.95421 0.13042 0.13576 0.0
C802 C 0.97924 0.13515 0.18999 0.0
C803 C 0.99029 0.12826 0.14987 0.0
C804 C 0.98316 0.12214 0.10281 0.0
C805 C 0.96525 0.1233 0.09634 0.0
C806 C 0.98636 0.14179 0.24072 0.0
C807 C 0.99448 0.11464 0.05908 0.0
C808 C 0.0371 0.15458 0.15098 0.0
C809 C 0.04574 0.12627 0.16137 0.0
C810 C 0.01904 0.15574 0.14845 0.0
C811 C 0.00935 0.12793 0.15658 0.0
C812 C 0.01796 0.09948 0.16845 0.0
C813 C 0.03604 0.09898 0.17068 0.0
C814 C 0.01036 0.18656 0.13574 0.0
C815 C 0.0081 0.06934 0.17752 0.0
H816 H 0.95292 0.14166 0.21316 0.0
H817 H 0.9599 0.11879 0.06013 0.0
H818 H 0.99432 0.12163 0.25337 0.0
H819 H 0.99486 0.16279 0.23943 0.0
H820 H 0.97604 0.14609 0.26826 0.0
H821 H 0.9869 0.10993 0.02513 0.0
H822 H 0.00332 0.13465 0.05181 0.0
H823 H 0.00255 0.09368 0.06715 0.0
H824 H 0.04445 0.17583 0.14393 0.0
H825 H 0.04257 0.07701 0.17892 0.0
H826 H 1.00054 0.19247 0.16395 0.0
H827 H 0.00358 0.18429 0.09993 0.0
H828 H 0.01965 0.2064 0.1331 0.0
H829 H 0.99818 0.07312 0.20633 0.0
H830 H 0.01662 0.04967 0.18923 0.0
H831 H 1.00129 0.06221 0.14335 0.0
C832 C 0.53935 0.85453 0.6424 0.0
C833 C 0.54757 0.88029 0.66483 0.0
C834 C 0.52136 0.85296 0.63919 0.0
C835 C 0.51127 0.87759 0.65929 0.0
C836 C 0.51943 0.90336 0.68291 0.0
C837 C 0.53751 0.90448 0.6852 0.0
C838 C 0.51316 0.82517 0.61342 0.0
C839 C 0.50908 0.9299 0.7052 0.0
C840 C 0.46644 0.88693 0.60535 0.0
C841 C 0.45627 0.87097 0.64005 0.0
C842 C 0.48429 0.88992 0.61181 0.0
C843 C 0.49219 0.87667 0.65403 0.0
C844 C 0.48197 0.8611 0.68974 0.0
C845 C 0.46414 0.85841 0.6823 0.0
C846 C 0.49475 0.90664 0.57284 0.0
C847 C 0.48992 0.84675 0.73531 0.0
H848 H 0.54699 0.83572 0.62649 0.0
H849 H 0.54375 0.92437 0.70281 0.0
H850 H 0.504 0.81318 0.63856 0.0
H851 H 0.50571 0.83349 0.58104 0.0
H852 H 0.52282 0.80765 0.60065 0.0
H853 H 0.51734 0.94754 0.72413 0.0
H854 H 0.50162 0.94207 0.67598 0.0
H855 H 0.49969 0.92037 0.73214 0.0
H856 H 0.46049 0.89684 0.5727 0.0
H857 H 0.45638 0.84616 0.70944 0.0
H858 H 0.50398 0.88988 0.55588 0.0
H859 H 0.50239 0.92591 0.58974 0.0
H860 H 0.48657 0.91681 0.54324 0.0
H861 H 0.4988 0.82743 0.72461 0.0
H862 H 0.48009 0.83706 0.7609 0.0
H863 H 0.49765 0.86467 0.75524 0.0
C864 C 0.96506 0.89137 0.89263 0.0
C865 C 0.95435 0.87673 0.85788 0.0
C866 C 0.98297 0.89243 0.88594 0.0
C867 C 0.99035 0.87853 0.84346 0.0
C868 C 0.97958 0.86449 0.80756 0.0
C869 C 0.9617 0.86375 0.81519 0.0
C870 C 0.99403 0.90768 0.92503 0.0
C871 C 0.98696 0.8495 0.76171 0.0
C872 C 0.0365 0.90082 0.81207 0.0
C873 C 0.0457 0.87539 0.83217 0.0
C874 C 0.01845 0.90193 0.8146 0.0
C875 C 0.0094 0.87714 0.8381 0.0
C876 C 0.0186 0.85122 0.85783 0.0
C877 C 0.0366 0.85061 0.85447 0.0
C878 C 0.00906 0.92981 0.79276 0.0
C879 C 0.00943 0.82437 0.88334 0.0
H880 H 0.9595 0.90159 0.9256 0.0
H881 H 0.95353 0.85249 0.78802 0.0
H882 H 0.00257 0.88971 0.94195 0.0
H883 H 0.00241 0.92594 0.90827 0.0
H884 H 0.98624 0.91882 0.95464 0.0
H885 H 0.97679 0.84135 0.73592 0.0
H886 H 0.9954 0.8665 0.74214 0.0
H887 H 0.99505 0.82896 0.77206 0.0
H888 H 0.04342 0.91999 0.79457 0.0
H889 H 0.04357 0.83085 0.87012 0.0
H890 H 0.00209 0.9427 0.82222 0.0
H891 H 0.9993 0.9216 0.7658 0.0
H892 H 0.01792 0.9465 0.77396 0.0
H893 H 0.00234 0.83341 0.9159 0.0
H894 H 0.01844 0.80563 0.89578 0.0
H895 H 0.99982 0.81368 0.85815 0.0
C896 C 0.53639 0.09191 0.33518 0.0
C897 C 0.54627 0.11943 0.34036 0.0
C898 C 0.51834 0.09286 0.33853 0.0
C899 C 0.50997 0.12198 0.34753 0.0
C900 C 0.51984 0.14992 0.35162 0.0
C901 C 0.53783 0.14833 0.34785 0.0
C902 C 0.50826 0.06259 0.33359 0.0
C903 C 0.51142 0.18144 0.36131 0.0
C904 C 0.46197 0.13107 0.32294 0.0
C905 C 0.45505 0.12783 0.37048 0.0
C906 C 0.47979 0.12873 0.31473 0.0
C907 C 0.49097 0.12313 0.35501 0.0
C908 C 0.48405 0.11952 0.40297 0.0
C909 C 0.4662 0.12187 0.41009 0.0
C910 C 0.48667 0.13261 0.26304 0.0
C911 C 0.49553 0.1136 0.44693 0.0
H912 H 0.54277 0.0695 0.32918 0.0
H913 H 0.54532 0.16975 0.35178 0.0
H914 H 0.50163 0.05728 0.36884 0.0
H915 H 0.49817 0.06519 0.30492 0.0
H916 H 0.51658 0.04223 0.32382 0.0
H917 H 0.52084 0.20114 0.36149 0.0
H918 H 0.50151 0.18634 0.33287 0.0
H919 H 0.50478 0.1809 0.39751 0.0
H920 H 0.45347 0.13561 0.29206 0.0
H921 H 0.461 0.11929 0.44694 0.0
H922 H 0.49442 0.11168 0.25258 0.0
H923 H 0.49533 0.1534 0.26139 0.0
H924 H 0.47624 0.13579 0.23548 0.0
H925 H 0.50337 0.09206 0.44083 0.0
H926 H 0.48811 0.11066 0.48162 0.0
H927 H 0.5046 0.13359 0.45162 0.0
C928 C 0.46423 0.63012 0.18622 0.0
C929 C 0.45668 0.61855 0.14282 0.0
C930 C 0.48215 0.62933 0.193 0.0
C931 C 0.49278 0.6167 0.15548 0.0
C932 C 0.48521 0.6043 0.11215 0.0
C933 C 0.46727 0.60537 0.10635 0.0
C934 C 0.48974 0.64269 0.23979 0.0
C935 C 0.49611 0.59062 0.07129 0.0
C936 C 0.53899 0.64501 0.14482 0.0
C937 C 0.54822 0.61941 0.16427 0.0
C938 C 0.52096 0.64455 0.14239 0.0
C939 C 0.51187 0.61796 0.1602 0.0
C940 C 0.52106 0.59232 0.18091 0.0
C941 C 0.53914 0.5933 0.18252 0.0
C942 C 0.51165 0.67231 0.11982 0.0
C943 C 0.51181 0.56369 0.20067 0.0
H944 H 0.45615 0.64025 0.2147 0.0
H945 H 0.46157 0.59625 0.07279 0.0
H946 H 0.49826 0.62502 0.25756 0.0
H947 H 0.49777 0.66356 0.23094 0.0
H948 H 0.47968 0.64991 0.26661 0.0
H949 H 0.4882 0.58064 0.04095 0.0
H950 H 0.50457 0.60921 0.05581 0.0
H951 H 0.50456 0.57175 0.086 0.0
H952 H 0.54587 0.66531 0.13061 0.0
H953 H 0.54616 0.57349 0.19783 0.0
H954 H 0.50215 0.68199 0.14634 0.0
H955 H 0.5044 0.66451 0.08676 0.0
H956 H 0.52058 0.69152 0.1088 0.0
H957 H 0.50217 0.57089 0.22867 0.0
H958 H 0.52077 0.54639 0.21765 0.0
H959 H 0.50471 0.55183 0.17041 0.0
C960 C 0.04257 0.36752 0.67504 0.0
C961 C 0.05029 0.37437 0.62951 0.0
C962 C 0.02462 0.36887 0.68087 0.0
C963 C 0.01414 0.37725 0.64021 0.0
C964 C 0.02188 0.38473 0.59444 0.0
C965 C 0.03984 0.38321 0.58966 0.0
C966 C 0.01684 0.36078 0.73028 0.0
C967 C 0.01115 0.39377 0.55021 0.0
C968 C 0.9677 0.34943 0.63651 0.0
C969 C 0.95869 0.37694 0.64932 0.0
C970 C 0.98574 0.34914 0.63407 0.0
C971 C 0.99504 0.377 0.64482 0.0
C972 C 0.98607 0.40473 0.65849 0.0
C973 C 0.96799 0.40438 0.66053 0.0
C974 C 0.99483 0.31909 0.61929 0.0
C975 C 0.99555 0.43486 0.67038 0.0
H976 H 0.05054 0.36073 0.70608 0.0
H977 H 0.04568 0.38863 0.55437 0.0
H978 H 0.00852 0.38038 0.74321 0.0
H979 H 0.00855 0.33959 0.72668 0.0
H980 H 0.02679 0.35604 0.75875 0.0
H981 H 0.01917 0.39998 0.51774 0.0
H982 H 0.00257 0.37391 0.53996 0.0
H983 H 0.0028 0.4142 0.5593 0.0
H984 H 0.96065 0.32807 0.62791 0.0
H985 H 0.96116 0.42571 0.67061 0.0
H986 H 0.0042 0.31214 0.64817 0.0
H987 H 0.00219 0.32301 0.58479 0.0
H988 H 0.98574 0.29923 0.6133 0.0
H989 H 0.00502 0.43063 0.70027 0.0
H990 H 0.98672 0.45409 0.68201 0.0
H991 H 0.00287 0.4429 0.63758 0.0
C992 C 0.466 0.34892 0.85407 0.0
C993 C 0.45738 0.37759 0.84615 0.0
C994 C 0.48402 0.34768 0.85715 0.0
C995 C 0.49371 0.37575 0.85194 0.0
C996 C 0.48514 0.40465 0.84271 0.0
C997 C 0.46707 0.40524 0.84004 0.0
C998 C 0.49266 0.3164 0.8671 0.0
C999 C 0.49504 0.43503 0.83661 0.0
C1000 C 0.53802 0.37661 0.91122 0.0
C1001 C 0.54879 0.37028 0.87091 0.0
C1002 C 0.52011 0.37894 0.90538 0.0
C1003 C 0.51276 0.37492 0.85803 0.0
C1004 C 0.52356 0.36904 0.81702 0.0
C1005 C 0.54144 0.36675 0.82395 0.0
C1006 C 0.50903 0.38518 0.95006 0.0
C1007 C 0.51621 0.36472 0.76595 0.0
H1008 H 0.45865 0.3274 0.85873 0.0
H1009 H 0.46055 0.42747 0.83373 0.0
H1010 H 0.5023 0.31129 0.83802 0.0
H1011 H 0.49965 0.31745 0.90273 0.0
H1012 H 0.48332 0.29658 0.86861 0.0
H1013 H 0.48654 0.45523 0.82723 0.0
H1014 H 0.502 0.44063 0.87124 0.0
H1015 H 0.50485 0.43242 0.80718 0.0
H1016 H 0.54356 0.37943 0.94762 0.0
H1017 H 0.54965 0.36193 0.79254 0.0
H1018 H 0.50011 0.3651 0.95599 0.0
H1019 H 0.50103 0.40651 0.944 0.0
H1020 H 0.51677 0.38862 0.98406 0.0
H1021 H 0.50766 0.34377 0.76529 0.0
H1022 H 0.5264 0.36155 0.73764 0.0
H1023 H 0.50825 0.38545 0.75575 0.0
C1024 C 0.96584 0.64494 0.35162 0.0
C1025 C 0.95696 0.61779 0.33646 0.0
C1026 C 0.98387 0.64535 0.35452 0.0
C1027 C 0.99331 0.61799 0.34171 0.0
C1028 C 0.98448 0.59073 0.32528 0.0
C1029 C 0.9664 0.59092 0.32297 0.0
C1030 C 0.99279 0.67488 0.37233 0.0
C1031 C 0.99412 0.56119 0.31097 0.0
C1032 C 0.04098 0.62965 0.31546 0.0
C1033 C 0.04841 0.62144 0.36086 0.0
C1034 C 0.0231 0.62789 0.30823 0.0
C1035 C 0.01238 0.61773 0.34735 0.0
C1036 C 0.01984 0.60874 0.39285 0.0
C1037 C 0.03774 0.61069 0.39905 0.0
C1038 C 0.01564 0.63759 0.25913 0.0
C1039 C 0.00885 0.59777 0.43547 0.0
H1040 H 0.95869 0.66586 0.36204 0.0
H1041 H 0.95967 0.56988 0.31102 0.0
H1042 H 0.99991 0.6698 0.40688 0.0
H1043 H 0.00234 0.68287 0.34464 0.0
H1044 H 0.98361 0.69447 0.37946 0.0
H1045 H 0.98543 0.5425 0.29672 0.0
H1046 H 0.00385 0.56669 0.28231 0.0
H1047 H 1.00115 0.55178 0.34341 0.0
H1048 H 0.04912 0.6379 0.28567 0.0
H1049 H 0.04335 0.60419 0.43419 0.0
H1050 H 0.00734 0.65867 0.26399 0.0
H1051 H 0.0074 0.61848 0.24419 0.0
H1052 H 0.02577 0.64323 0.23162 0.0
H1053 H 1.00013 0.61709 0.4472 0.0
H1054 H 0.01669 0.59032 0.46769 0.0
H1055 H 1.00065 0.57768 0.42389 0.0
C1056 C 0.1329 0.04213 0.08553 0.0
C1057 C 0.12081 0.06589 0.07609 0.0
C1058 C 0.13346 0.01479 0.0563 0.0
C1059 C 0.1221 0.01185 0.01571 0.0
C1060 C 0.11008 0.0361 0.00561 0.0
C1061 C 0.10939 0.06257 0.03646 0.0
C1062 C 0.14604 0.98892 0.06919 0.0
C1063 C 0.09808 0.03426 0.96189 0.0
C1064 C 0.13318 0.95367 0.91379 0.0
C1065 C 0.12145 0.92937 0.92332 0.0
C1066 C 0.13353 0.98083 0.94348 0.0
C1067 C 0.12232 0.98302 0.98457 0.0
C1068 C 0.11079 0.95806 0.99499 0.0
C1069 C 0.11029 0.93179 0.96372 0.0
C1070 C 0.14559 0.00743 0.93033 0.0
C1071 C 0.09901 0.95905 0.03927 0.0
H1072 H 0.14173 0.04475 0.11621 0.0
H1073 H 0.10022 0.0812 0.02863 0.0
H1074 H 0.13899 0.96655 0.07579 0.0
H1075 H 0.15496 0.98476 0.03797 0.0
H1076 H 0.15374 0.99461 0.10253 0.0
H1077 H 0.09019 0.05595 0.95757 0.0
H1078 H 0.10558 0.03051 0.92758 0.0
H1079 H 0.08928 0.01384 0.96602 0.0
H1080 H 0.1418 0.95174 0.8825 0.0
H1081 H 0.1014 0.91273 0.97156 0.0
H1082 H 0.15444 0.01232 0.96149 0.0
H1083 H 0.1381 0.0293 0.92351 0.0
H1084 H 0.15339 0.00211 0.89704 0.0
H1085 H 0.1066 0.96347 0.07323 0.0
H1086 H 0.09167 0.93676 0.04402 0.0
H1087 H 0.0897 0.97873 0.03541 0.0
C1088 C 0.38945 0.92953 0.54048 0.0
C1089 C 0.37852 0.92648 0.58127 0.0
C1090 C 0.38833 0.95574 0.50925 0.0
C1091 C 0.37643 0.98002 0.52019 0.0
C1092 C 0.36543 0.97718 0.56164 0.0
C1093 C 0.36638 0.95003 0.59123 0.0
C1094 C 0.39991 0.95744 0.46459 0.0
C1095 C 0.35302 0.00312 0.5754 0.0
C1096 C 0.38877 0.05985 0.4688 0.0
C1097 C 0.37742 0.0629 0.42897 0.0
C1098 C 0.38811 0.0335 0.49983 0.0
C1099 C 0.37624 0.00907 0.48963 0.0
C1100 C 0.36481 0.0119 0.44912 0.0
C1101 C 0.36531 0.03919 0.41974 0.0
C1102 C 0.40014 0.03184 0.54352 0.0
C1103 C 0.35239 0.98581 0.43616 0.0
H1104 H 0.39864 0.91099 0.53234 0.0
H1105 H 0.35794 0.94755 0.62282 0.0
H1106 H 0.39214 0.96196 0.43098 0.0
H1107 H 0.40906 0.97734 0.46859 0.0
H1108 H 0.40741 0.93541 0.45912 0.0
H1109 H 0.34528 0.99712 0.60854 0.0
H1110 H 0.36024 0.0252 0.58281 0.0
H1111 H 0.34412 0.00798 0.54435 0.0
H1112 H 0.39795 0.0785 0.47638 0.0
H1113 H 0.35655 0.04167 0.38888 0.0
H1114 H 0.40931 0.01202 0.53872 0.0
H1115 H 0.39273 0.02722 0.57774 0.0
H1116 H 0.40764 0.05392 0.54845 0.0
H1117 H 0.35963 0.96382 0.4282 0.0
H1118 H 0.34435 0.99174 0.40359 0.0
H1119 H 0.34379 0.98081 0.46782 0.0
C1120 C 0.88513 0.95576 0.91145 0.0
C1121 C 0.87427 0.93003 0.92031 0.0
C1122 C 0.88439 0.98277 0.94119 0.0
C1123 C 0.87292 0.98355 0.98173 0.0
C1124 C 0.86175 0.95775 0.99046 0.0
C1125 C 0.86238 0.93145 0.95909 0.0
C1126 C 0.89611 0.01023 0.92975 0.0
C1127 C 0.84969 0.95738 0.03407 0.0
C1128 C 0.88602 0.03958 0.08417 0.0
C1129 C 0.87488 0.06503 0.07603 0.0
C1130 C 0.88503 0.01231 0.05497 0.0
C1131 C 0.87301 0.01102 0.01572 0.0
C1132 C 0.86163 0.03656 0.0077 0.0
C1133 C 0.86252 0.06308 0.03849 0.0
C1134 C 0.89704 0.98513 0.06555 0.0
C1135 C 0.849 0.03646 0.96537 0.0
H1136 H 0.89429 0.95466 0.88134 0.0
H1137 H 0.85413 0.91136 0.96634 0.0
H1138 H 0.88854 0.03237 0.92729 0.0
H1139 H 0.90559 0.01328 0.95994 0.0
H1140 H 0.90324 0.00689 0.89464 0.0
H1141 H 0.84153 0.93586 0.03495 0.0
H1142 H 0.85725 0.95851 0.06874 0.0
H1143 H 0.84118 0.97838 0.03334 0.0
H1144 H 0.89552 0.04103 0.11334 0.0
H1145 H 0.85403 0.08291 0.03176 0.0
H1146 H 0.90619 0.98216 0.03453 0.0
H1147 H 0.88963 0.96285 0.06888 0.0
H1148 H 0.90453 0.98874 0.09995 0.0
H1149 H 0.85611 0.0353 0.92994 0.0
H1150 H 0.8407 0.05781 0.96507 0.0
H1151 H 0.84064 0.0153 0.96726 0.0
C1152 C 0.61503 0.04169 0.41119 0.0
C1153 C 0.6262 0.0672 0.41833 0.0
C1154 C 0.61622 0.01461 0.44075 0.0
C1155 C 0.62844 0.01359 0.47949 0.0
C1156 C 0.63989 0.03918 0.48644 0.0
C1157 C 0.63881 0.06549 0.45519 0.0
C1158 C 0.60416 0.98736 0.43115 0.0
C1159 C 0.65272 0.03941 0.52824 0.0
C1160 C 0.61653 0.95884 0.58476 0.0
C1161 C 0.62734 0.93302 0.57595 0.0
C1162 C 0.61729 0.98579 0.55483 0.0
C1163 C 0.62867 0.98635 0.51404 0.0
C1164 C 0.63976 0.96043 0.50536 0.0
C1165 C 0.63916 0.93425 0.537 0.0
C1166 C 0.60567 0.0134 0.5663 0.0
C1167 C 0.65168 0.95974 0.46142 0.0
H1168 H 0.60532 0.04299 0.38256 0.0
H1169 H 0.64731 0.08541 0.46115 0.0
H1170 H 0.61154 0.96502 0.42818 0.0
H1171 H 0.5951 0.98475 0.46247 0.0
H1172 H 0.59656 0.99066 0.39686 0.0
H1173 H 0.66108 0.06066 0.52759 0.0
H1174 H 0.64577 0.03874 0.56397 0.0
H1175 H 0.661 0.01813 0.52664 0.0
H1176 H 0.60742 0.95787 0.615 0.0
H1177 H 0.64736 0.91407 0.52981 0.0
H1178 H 0.59602 0.01625 0.53653 0.0
H1179 H 0.61329 0.03552 0.56797 0.0
H1180 H 0.59875 0.01036 0.60181 0.0
H1181 H 0.644 0.96056 0.42696 0.0
H1182 H 0.65985 0.93823 0.46075 0.0
H1183 H 0.66017 0.98076 0.46146 0.0
C1184 C 0.63868 0.54837 0.08111 0.0
C1185 C 0.62631 0.57137 0.07029 0.0
C1186 C 0.63995 0.52089 0.05237 0.0
C1187 C 0.62903 0.51714 0.01091 0.0
C1188 C 0.61699 0.54099 0.99889 0.0
C1189 C 0.61555 0.56754 0.02932 0.0
C1190 C 0.65251 0.49546 0.0673 0.0
C1191 C 0.6055 0.53834 0.95417 0.0
C1192 C 0.63994 0.45619 0.91283 0.0
C1193 C 0.62775 0.43277 0.92308 0.0
C1194 C 0.64062 0.48388 0.94129 0.0
C1195 C 0.62928 0.48745 0.98186 0.0
C1196 C 0.61741 0.46322 0.99328 0.0
C1197 C 0.61658 0.43645 0.9632 0.0
C1198 C 0.65305 0.50967 0.92707 0.0
C1199 C 0.60546 0.46567 0.03706 0.0
H1200 H 0.64698 0.55146 0.11288 0.0
H1201 H 0.60618 0.58565 0.02057 0.0
H1202 H 0.64537 0.47358 0.07657 0.0
H1203 H 0.66124 0.48976 0.03622 0.0
H1204 H 0.66041 0.50243 0.09964 0.0
H1205 H 0.59804 0.56029 0.94738 0.0
H1206 H 0.61329 0.53301 0.92093 0.0
H1207 H 0.59629 0.51861 0.95919 0.0
H1208 H 0.64856 0.45325 0.88174 0.0
H1209 H 0.60734 0.41804 0.97158 0.0
H1210 H 0.66148 0.51567 0.95868 0.0
H1211 H 0.64578 0.53134 0.91729 0.0
H1212 H 0.66126 0.50291 0.89526 0.0
H1213 H 0.6129 0.47121 0.07089 0.0
H1214 H 0.5981 0.44357 0.04334 0.0
H1215 H 0.59617 0.48519 0.03125 0.0
C1216 C 0.88942 0.43068 0.53028 0.0
C1217 C 0.8794 0.42773 0.57295 0.0
C1218 C 0.88811 0.45733 0.50002 0.0
C1219 C 0.87693 0.4822 0.5137 0.0
C1220 C 0.86668 0.4793 0.55671 0.0
C1221 C 0.86781 0.45174 0.58544 0.0
C1222 C 0.89888 0.45904 0.45373 0.0
C1223 C 0.85502 0.50573 0.5733 0.0
C1224 C 0.89073 0.56174 0.4639 0.0
C1225 C 0.87908 0.56638 0.42514 0.0
C1226 C 0.88965 0.5351 0.49428 0.0
C1227 C 0.87697 0.51194 0.48461 0.0
C1228 C 0.86515 0.51647 0.44543 0.0
C1229 C 0.86615 0.544 0.41663 0.0
C1230 C 0.90219 0.53163 0.53649 0.0
C1231 C 0.85182 0.49182 0.43302 0.0
H1232 H 0.89819 0.41184 0.52018 0.0
H1233 H 0.86006 0.44939 0.61847 0.0
H1234 H 0.89067 0.4651 0.42161 0.0
H1235 H 0.90867 0.47793 0.45746 0.0
H1236 H 0.90563 0.43648 0.4459 0.0
H1237 H 0.84743 0.49931 0.60652 0.0
H1238 H 0.86286 0.52692 0.58187 0.0
H1239 H 0.84601 0.51232 0.54333 0.0
H1240 H 0.90056 0.57932 0.47104 0.0
H1241 H 0.85714 0.54763 0.38663 0.0
H1242 H 0.91085 0.51129 0.5296 0.0
H1243 H 0.89516 0.52678 0.57128 0.0
H1244 H 0.91023 0.55304 0.5417 0.0
H1245 H 0.85833 0.46954 0.42232 0.0
H1246 H 0.84328 0.49933 0.40235 0.0
H1247 H 0.84378 0.48658 0.46578 0.0
C1248 C 0.38904 0.45471 0.917 0.0
C1249 C 0.37765 0.42945 0.92342 0.0
C1250 C 0.38795 0.48161 0.94697 0.0
C1251 C 0.37561 0.48266 0.98536 0.0
C1252 C 0.36393 0.45735 0.99153 0.0
C1253 C 0.36491 0.43124 0.95989 0.0
C1254 C 0.40026 0.5086 0.9382 0.0
C1255 C 0.35094 0.45717 0.03295 0.0
C1256 C 0.38752 0.5362 0.09209 0.0
C1257 C 0.37692 0.56233 0.08347 0.0
C1258 C 0.38669 0.50954 0.06155 0.0
C1259 C 0.37547 0.50961 0.02038 0.0
C1260 C 0.36461 0.53587 0.01184 0.0
C1261 C 0.36526 0.56174 0.04405 0.0
C1262 C 0.39807 0.48156 0.0728 0.0
C1263 C 0.35287 0.53723 0.96753 0.0
H1264 H 0.39886 0.45333 0.88867 0.0
H1265 H 0.35624 0.4115 0.96528 0.0
H1266 H 0.39308 0.53116 0.93546 0.0
H1267 H 0.40924 0.51071 0.9698 0.0
H1268 H 0.40794 0.50536 0.90404 0.0
H1269 H 0.34241 0.43617 0.03166 0.0
H1270 H 0.35777 0.45736 0.06889 0.0
H1271 H 0.34285 0.47869 0.03151 0.0
H1272 H 0.3965 0.53668 0.12268 0.0
H1273 H 0.35723 0.58217 0.03699 0.0
H1274 H 0.4078 0.4787 0.04323 0.0
H1275 H 0.39029 0.45962 0.07385 0.0
H1276 H 0.4049 0.48414 0.10855 0.0
H1277 H 0.36069 0.53643 0.9333 0.0
H1278 H 0.34489 0.55897 0.96696 0.0
H1279 H 0.34421 0.51646 0.96693 0.0
C1280 C 0.11893 0.54133 0.41096 0.0
C1281 C 0.12951 0.56759 0.41869 0.0
C1282 C 0.12024 0.51464 0.44124 0.0
C1283 C 0.13201 0.51475 0.48112 0.0
C1284 C 0.14294 0.54102 0.48853 0.0
C1285 C 0.14174 0.56699 0.45667 0.0
C1286 C 0.10873 0.48665 0.43127 0.0
C1287 C 0.1553 0.54233 0.53143 0.0
C1288 C 0.11933 0.46041 0.58587 0.0
C1289 C 0.13036 0.43476 0.57819 0.0
C1290 C 0.12031 0.48729 0.55589 0.0
C1291 C 0.13221 0.48797 0.51635 0.0
C1292 C 0.14361 0.46236 0.50907 0.0
C1293 C 0.14272 0.4362 0.54063 0.0
C1294 C 0.10829 0.51458 0.56571 0.0
C1295 C 0.15613 0.46187 0.46652 0.0
H1296 H 0.10953 0.54177 0.38142 0.0
H1297 H 0.14978 0.58749 0.463 0.0
H1298 H 0.11648 0.46468 0.42961 0.0
H1299 H 0.09936 0.4839 0.4618 0.0
H1300 H 0.10148 0.48916 0.3962 0.0
H1301 H 0.16346 0.56384 0.53067 0.0
H1302 H 0.14796 0.54204 0.56652 0.0
H1303 H 0.16379 0.5213 0.53146 0.0
H1304 H 0.10982 0.45932 0.61509 0.0
H1305 H 0.15112 0.41619 0.53432 0.0
H1306 H 0.09892 0.51679 0.53504 0.0
H1307 H 0.11564 0.537 0.56751 0.0
H1308 H 0.10102 0.51161 0.60066 0.0
H1309 H 0.14891 0.46171 0.43123 0.0
H1310 H 0.1647 0.4409 0.46748 0.0
H1311 H 0.16421 0.48343 0.46674 0.0
C1312 C 0.11269 0.28345 0.82931 0.0
C1313 C 0.1208 0.31285 0.82776 0.0
C1314 C 0.11233 0.26583 0.87296 0.0
C1315 C 0.12002 0.27831 0.91611 0.0
C1316 C 0.12779 0.30853 0.91491 0.0
C1317 C 0.1283 0.32532 0.87033 0.0
C1318 C 0.10424 0.23344 0.87247 0.0
C1319 C 0.13579 0.32283 0.96041 0.0
C1320 C 0.10651 0.23786 0.03466 0.0
C1321 C 0.12034 0.2172 0.04252 0.0
C1322 C 0.10659 0.25903 0.99488 0.0
C1323 C 0.12062 0.2589 0.96162 0.0
C1324 C 0.13478 0.2386 0.97004 0.0
C1325 C 0.13456 0.21825 0.01074 0.0
C1326 C 0.09146 0.28092 0.98771 0.0
C1327 C 0.14984 0.23735 0.93484 0.0
H1328 H 0.10708 0.27389 0.7959 0.0
H1329 H 0.1346 0.34811 0.8686 0.0
H1330 H 0.11406 0.21541 0.88197 0.0
H1331 H 0.09394 0.23199 0.90068 0.0
H1332 H 0.09862 0.22743 0.836 0.0
H1333 H 0.14007 0.34752 0.9542 0.0
H1334 H 0.12644 0.32253 0.99133 0.0
H1335 H 0.14707 0.30861 0.972 0.0
H1336 H 0.09557 0.23733 0.05943 0.0
H1337 H 0.14525 0.20223 0.01651 0.0
H1338 H 0.08433 0.27419 0.9539 0.0
H1339 H 0.09601 0.30552 0.98257 0.0
H1340 H 0.08241 0.28028 0.0194 0.0
H1341 H 0.14535 0.22929 0.8981 0.0
H1342 H 0.16013 0.22113 0.94773 0.0
H1343 H 0.15544 0.2612 0.92997 0.0
C1344 C 0.39932 0.75761 0.54398 0.0
C1345 C 0.38471 0.77615 0.55299 0.0
C1346 C 0.39984 0.73662 0.50395 0.0
C1347 C 0.38557 0.73479 0.47162 0.0
C1348 C 0.37064 0.7529 0.48124 0.0
C1349 C 0.37032 0.77308 0.52213 0.0
C1350 C 0.41581 0.71706 0.49549 0.0
C1351 C 0.35528 0.75207 0.44709 0.0
C1352 C 0.39299 0.71219 0.33818 0.0
C1353 C 0.38604 0.68181 0.3368 0.0
C1354 C 0.39322 0.72948 0.38218 0.0
C1355 C 0.3866 0.71569 0.42581 0.0
C1356 C 0.38007 0.6845 0.42473 0.0
C1357 C 0.37965 0.66801 0.37986 0.0
C1358 C 0.39997 0.76289 0.38156 0.0
C1359 C 0.37321 0.66884 0.47067 0.0
H1360 H 0.41042 0.7597 0.56798 0.0
H1361 H 0.35901 0.78747 0.52871 0.0
H1362 H 0.41231 0.6919 0.49028 0.0
H1363 H 0.42235 0.725 0.46133 0.0
H1364 H 0.42505 0.71888 0.5266 0.0
H1365 H 0.34444 0.76672 0.46081 0.0
H1366 H 0.35909 0.76083 0.41011 0.0
H1367 H 0.35068 0.7275 0.44241 0.0
H1368 H 0.39777 0.72272 0.30442 0.0
H1369 H 0.37425 0.64445 0.37826 0.0
H1370 H 0.4104 0.76564 0.40912 0.0
H1371 H 0.38952 0.77947 0.39188 0.0
H1372 H 0.40503 0.76979 0.3448 0.0
H1373 H 0.38281 0.67049 0.50087 0.0
H1374 H 0.37003 0.6436 0.46448 0.0
H1375 H 0.36143 0.6812 0.48327 0.0
C1376 C 0.10465 0.75806 0.95698 0.0
C1377 C 0.11872 0.7781 0.94877 0.0
C1378 C 0.10459 0.73688 0.99671 0.0
C1379 C 0.11875 0.73637 0.02954 0.0
C1380 C 0.13321 0.75583 0.0205 0.0
C1381 C 0.13309 0.77621 0.97985 0.0
C1382 C 0.08915 0.71586 0.00456 0.0
C1383 C 0.14842 0.75636 0.05519 0.0
C1384 C 0.11091 0.71432 0.16282 0.0
C1385 C 0.11859 0.68456 0.16525 0.0
C1386 C 0.11061 0.73121 0.11849 0.0
C1387 C 0.1179 0.7176 0.07561 0.0
C1388 C 0.12516 0.68698 0.0777 0.0
C1389 C 0.12563 0.67092 0.12292 0.0
C1390 C 0.10305 0.76404 0.11799 0.0
C1391 C 0.13272 0.67152 0.03251 0.0
H1392 H 0.09358 0.75923 0.93271 0.0
H1393 H 0.14398 0.79173 0.97378 0.0
H1394 H 0.09331 0.69113 0.01069 0.0
H1395 H 0.08208 0.72351 0.038 0.0
H1396 H 0.08015 0.71649 0.97275 0.0
H1397 H 0.15901 0.77163 0.0415 0.0
H1398 H 0.14426 0.76524 0.09179 0.0
H1399 H 0.15351 0.73218 0.06069 0.0
H1400 H 0.10564 0.72475 0.19606 0.0
H1401 H 0.13159 0.64784 0.12538 0.0
H1402 H 0.09272 0.76568 0.0899 0.0
H1403 H 0.11314 0.78136 0.10773 0.0
H1404 H 0.09762 0.77088 0.15433 0.0
H1405 H 0.12333 0.67218 0.0017 0.0
H1406 H 0.13645 0.64661 0.03941 0.0
H1407 H 0.1443 0.6847 0.02038 0.0
C1408 C 0.39666 0.27837 0.67186 0.0
C1409 C 0.3896 0.30867 0.67353 0.0
C1410 C 0.39653 0.26092 0.62801 0.0
C1411 C 0.38941 0.27446 0.58483 0.0
C1412 C 0.38296 0.30571 0.58601 0.0
C1413 C 0.38291 0.32234 0.63074 0.0
C1414 C 0.40322 0.22747 0.62852 0.0
C1415 C 0.3756 0.32114 0.54051 0.0
C1416 C 0.39973 0.23135 0.46578 0.0
C1417 C 0.3848 0.21324 0.45913 0.0
C1418 C 0.40115 0.25249 0.50542 0.0
C1419 C 0.38749 0.25492 0.53974 0.0
C1420 C 0.37227 0.23717 0.5326 0.0
C1421 C 0.37103 0.21682 0.49206 0.0
C1422 C 0.4174 0.27165 0.51124 0.0
C1423 C 0.35753 0.2387 0.56888 0.0
H1424 H 0.40164 0.26787 0.70543 0.0
H1425 H 0.37739 0.34581 0.63255 0.0
H1426 H 0.39252 0.21088 0.62059 0.0
H1427 H 0.41304 0.2242 0.59928 0.0
H1428 H 0.40903 0.22099 0.66455 0.0
H1429 H 0.37294 0.34663 0.54629 0.0
H1430 H 0.38462 0.31854 0.50905 0.0
H1431 H 0.3634 0.30931 0.53006 0.0
H1432 H 0.41035 0.22886 0.44017 0.0
H1433 H 0.35949 0.20278 0.48728 0.0
H1434 H 0.42441 0.26392 0.54474 0.0
H1435 H 0.41419 0.29696 0.51616 0.0
H1436 H 0.42612 0.2692 0.47902 0.0
H1437 H 0.36195 0.23042 0.60557 0.0
H1438 H 0.34641 0.22401 0.55725 0.0
H1439 H 0.3531 0.2634 0.57331 0.0
C1440 C 0.89606 0.67202 0.12791 0.0
C1441 C 0.88862 0.68598 0.16949 0.0
C1442 C 0.89704 0.68856 0.08309 0.0
C1443 C 0.89059 0.71979 0.08041 0.0
C1444 C 0.88343 0.73411 0.12288 0.0
C1445 C 0.88249 0.71696 0.16688 0.0
C1446 C 0.90464 0.6725 0.03849 0.0
C1447 C 0.87655 0.76744 0.12173 0.0
C1448 C 0.90335 0.77773 0.98032 0.0
C1449 C 0.88836 0.77852 0.95152 0.0
C1450 C 0.90464 0.75752 0.02117 0.0
C1451 C 0.89069 0.73744 0.03307 0.0
C1452 C 0.87597 0.73678 0.00236 0.0
C1453 C 0.87495 0.75744 0.96212 0.0
C1454 C 0.92051 0.75901 0.05322 0.0
C1455 C 0.86091 0.71541 0.01346 0.0
H1456 H 0.90083 0.64803 0.13035 0.0
H1457 H 0.87695 0.72775 0.19946 0.0
H1458 H 0.89471 0.67035 0.0093 0.0
H1459 H 0.91528 0.68692 0.02313 0.0
H1460 H 0.90966 0.64859 0.04718 0.0
H1461 H 0.872 0.77546 0.15847 0.0
H1462 H 0.88669 0.78388 0.10874 0.0
H1463 H 0.86567 0.76903 0.09536 0.0
H1464 H 0.91378 0.79393 0.97236 0.0
H1465 H 0.8634 0.75762 0.93968 0.0
H1466 H 0.92544 0.73495 0.06087 0.0
H1467 H 0.91716 0.76986 0.08919 0.0
H1468 H 0.93095 0.77314 0.03603 0.0
H1469 H 0.8654 0.69092 0.01996 0.0
H1470 H 0.85131 0.71519 0.98311 0.0
H1471 H 0.85441 0.72348 0.04762 0.0
C1472 C 0.60117 0.22125 0.48279 0.0
C1473 C 0.61581 0.2193 0.45266 0.0
C1474 C 0.60072 0.2418 0.52332 0.0
C1475 C 0.61518 0.26105 0.53352 0.0
C1476 C 0.62957 0.26048 0.50161 0.0
C1477 C 0.62976 0.23949 0.46172 0.0
C1478 C 0.58519 0.24159 0.55676 0.0
C1479 C 0.64514 0.28096 0.51096 0.0
C1480 C 0.61124 0.32743 0.62711 0.0
C1481 C 0.61856 0.31336 0.66875 0.0
C1482 C 0.60998 0.31071 0.58254 0.0
C1483 C 0.61603 0.2792 0.58024 0.0
C1484 C 0.62322 0.26488 0.62266 0.0
C1485 C 0.62445 0.28222 0.6664 0.0
C1486 C 0.60238 0.32676 0.53791 0.0
C1487 C 0.62966 0.23125 0.62187 0.0
H1488 H 0.59033 0.20576 0.47601 0.0
H1489 H 0.64103 0.2384 0.43824 0.0
H1490 H 0.58876 0.23121 0.59289 0.0
H1491 H 0.58067 0.26601 0.56376 0.0
H1492 H 0.57437 0.2277 0.54108 0.0
H1493 H 0.65444 0.28024 0.47988 0.0
H1494 H 0.64117 0.30579 0.51713 0.0
H1495 H 0.65181 0.27285 0.54483 0.0
H1496 H 0.60667 0.35155 0.62938 0.0
H1497 H 0.62992 0.27138 0.69904 0.0
H1498 H 0.59122 0.3131 0.52404 0.0
H1499 H 0.61205 0.32753 0.50784 0.0
H1500 H 0.59811 0.35122 0.54602 0.0
H1501 H 0.61916 0.21514 0.61027 0.0
H1502 H 0.63451 0.22345 0.65841 0.0
H1503 H 0.64021 0.22887 0.59459 0.0
C1504 C 0.87346 0.22599 0.01278 0.0
C1505 C 0.88747 0.21618 0.04163 0.0
C1506 C 0.87576 0.24653 0.97286 0.0
C1507 C 0.89243 0.25799 0.9619 0.0
C1508 C 0.90653 0.24925 0.99201 0.0
C1509 C 0.90391 0.22819 0.03132 0.0
C1510 C 0.86041 0.25497 0.94126 0.0
C1511 C 0.92442 0.26151 0.98193 0.0
C1512 C 0.89873 0.28015 0.82795 0.0
C1513 C 0.89533 0.31251 0.82903 0.0
C1514 C 0.89858 0.26229 0.87141 0.0
C1515 C 0.8951 0.27739 0.91692 0.0
C1516 C 0.89253 0.31047 0.91832 0.0
C1517 C 0.89248 0.32766 0.87406 0.0
C1518 C 0.90114 0.22704 0.8682 0.0
C1519 C 0.88905 0.32744 0.96619 0.0
H1520 H 0.86071 0.21682 0.02035 0.0
H1521 H 0.91478 0.22092 0.05366 0.0
H1522 H 0.859 0.28096 0.93888 0.0
H1523 H 0.8624 0.24606 0.90322 0.0
H1524 H 0.84822 0.2449 0.95576 0.0
H1525 H 0.93368 0.25479 0.01133 0.0
H1526 H 0.92914 0.25198 0.94633 0.0
H1527 H 0.92423 0.28759 0.97862 0.0
H1528 H 0.90076 0.2686 0.79275 0.0
H1529 H 0.88978 0.35276 0.87443 0.0
H1530 H 0.88902 0.21486 0.87853 0.0
H1531 H 0.91121 0.2193 0.89451 0.0
H1532 H 0.90488 0.21932 0.83056 0.0
H1533 H 0.87611 0.32089 0.98007 0.0
H1534 H 0.88954 0.35348 0.96181 0.0
H1535 H 0.89855 0.32029 0.99461 0.0
C1536 C 0.60098 0.77723 0.51845 0.0
C1537 C 0.61629 0.78068 0.54534 0.0
C1538 C 0.60006 0.75665 0.47805 0.0
C1539 C 0.61477 0.73896 0.46454 0.0
C1540 C 0.62993 0.74093 0.49328 0.0
C1541 C 0.63054 0.76186 0.53324 0.0
C1542 C 0.58369 0.75524 0.44816 0.0
C1543 C 0.64582 0.72216 0.4803 0.0
C1544 C 0.61089 0.67275 0.3706 0.0
C1545 C 0.6168 0.68785 0.32803 0.0
C1546 C 0.61002 0.6891 0.41559 0.0
C1547 C 0.61499 0.72124 0.41735 0.0
C1548 C 0.62061 0.73663 0.37391 0.0
C1549 C 0.62149 0.71966 0.32976 0.0
C1550 C 0.60409 0.67194 0.46126 0.0
C1551 C 0.62584 0.77095 0.37411 0.0
H1552 H 0.58988 0.79158 0.52764 0.0
H1553 H 0.64236 0.76409 0.55416 0.0
H1554 H 0.58588 0.76637 0.41167 0.0
H1555 H 0.57987 0.7304 0.44144 0.0
H1556 H 0.57286 0.76766 0.46659 0.0
H1557 H 0.65586 0.72368 0.50936 0.0
H1558 H 0.64249 0.69699 0.47446 0.0
H1559 H 0.65134 0.73116 0.44529 0.0
H1560 H 0.60724 0.6481 0.36877 0.0
H1561 H 0.62588 0.73123 0.29639 0.0
H1562 H 0.59302 0.68449 0.47809 0.0
H1563 H 0.61458 0.67166 0.489 0.0
H1564 H 0.60021 0.64723 0.45335 0.0
H1565 H 0.61516 0.78571 0.38839 0.0
H1566 H 0.6294 0.77957 0.3368 0.0
H1567 H 0.63701 0.77438 0.39901 0.0
C1568 C 0.6016 0.72784 0.02192 0.0
C1569 C 0.61704 0.72328 0.04786 0.0
C1570 C 0.60082 0.74833 0.98143 0.0
C1571 C 0.61577 0.76493 0.96692 0.0
C1572 C 0.63108 0.76202 0.99485 0.0
C1573 C 0.63157 0.74106 0.03485 0.0
C1574 C 0.58429 0.7506 0.95233 0.0
C1575 C 0.64721 0.77974 0.98088 0.0
C1576 C 0.62142 0.78238 0.83112 0.0
C1577 C 0.61698 0.81429 0.82874 0.0
C1578 C 0.62092 0.76605 0.8759 0.0
C1579 C 0.61598 0.78222 0.91934 0.0
C1580 C 0.61133 0.81451 0.91697 0.0
C1581 C 0.61178 0.8302 0.87135 0.0
C1582 C 0.62575 0.73153 0.87671 0.0
C1583 C 0.60615 0.83249 0.96262 0.0
H1584 H 0.59029 0.71428 0.03175 0.0
H1585 H 0.64349 0.73796 0.05505 0.0
H1586 H 0.58088 0.77562 0.94544 0.0
H1587 H 0.58606 0.73915 0.91589 0.0
H1588 H 0.57336 0.73897 0.97145 0.0
H1589 H 0.65732 0.77797 0.00972 0.0
H1590 H 0.65245 0.77003 0.946 0.0
H1591 H 0.64427 0.80502 0.97441 0.0
H1592 H 0.62534 0.77023 0.79777 0.0
H1593 H 0.60838 0.85496 0.86905 0.0
H1594 H 0.615 0.71738 0.89205 0.0
H1595 H 0.63707 0.72788 0.90101 0.0
H1596 H 0.62891 0.72236 0.83943 0.0
H1597 H 0.59497 0.8209 0.98047 0.0
H1598 H 0.60272 0.85738 0.95438 0.0
H1599 H 0.61686 0.83227 0.98966 0.0
C1600 C 0.87758 0.21993 0.32863 0.0
C1601 C 0.87974 0.18723 0.32652 0.0
C1602 C 0.87837 0.23594 0.37372 0.0
C1603 C 0.88135 0.2187 0.41763 0.0
C1604 C 0.88348 0.18553 0.41559 0.0
C1605 C 0.88274 0.17015 0.36977 0.0
C1606 C 0.87619 0.27135 0.37426 0.0
C1607 C 0.88661 0.16641 0.46165 0.0
C1608 C 0.89968 0.2678 0.52167 0.0
C1609 C 0.88475 0.27619 0.54774 0.0
C1610 C 0.89886 0.24787 0.48052 0.0
C1611 C 0.88274 0.23581 0.46524 0.0
C1612 C 0.86777 0.24266 0.493 0.0
C1613 C 0.86894 0.26286 0.53388 0.0
C1614 C 0.91511 0.24117 0.45181 0.0
C1615 C 0.85039 0.22991 0.47812 0.0
H1616 H 0.87542 0.23297 0.2948 0.0
H1617 H 0.88445 0.1448 0.36767 0.0
H1618 H 0.8653 0.27797 0.39857 0.0
H1619 H 0.88794 0.28261 0.38948 0.0
H1620 H 0.87377 0.28112 0.3369 0.0
H1621 H 0.88746 0.14073 0.45389 0.0
H1622 H 0.89876 0.17409 0.47946 0.0
H1623 H 0.87608 0.1705 0.48852 0.0
H1624 H 0.91198 0.2778 0.53216 0.0
H1625 H 0.85736 0.26897 0.554 0.0
H1626 H 0.91433 0.25271 0.41516 0.0
H1627 H 0.91655 0.21546 0.44538 0.0
H1628 H 0.9268 0.24993 0.471 0.0
H1629 H 0.84627 0.24109 0.44307 0.0
H1630 H 0.84039 0.23452 0.50649 0.0
H1631 H 0.85115 0.20411 0.47153 0.0
C1632 C 0.60792 0.21835 0.16603 0.0
C1633 C 0.61488 0.18797 0.16802 0.0
C1634 C 0.60813 0.23562 0.122 0.0
C1635 C 0.6152 0.22182 0.07895 0.0
C1636 C 0.62158 0.19053 0.0805 0.0
C1637 C 0.62157 0.17408 0.12541 0.0
C1638 C 0.60152 0.26913 0.12212 0.0
C1639 C 0.62886 0.1748 0.03515 0.0
C1640 C 0.60441 0.26419 0.95959 0.0
C1641 C 0.61929 0.28232 0.95221 0.0
C1642 C 0.60317 0.24324 -0.00048 0.0
C1643 C 0.61697 0.24103 0.03343 0.0
C1644 C 0.63216 0.25874 0.02551 0.0
C1645 C 0.63321 0.27889 0.98465 0.0
C1646 C 0.58696 0.22409 0.00613 0.0
C1647 C 0.64703 0.25748 0.06135 0.0
H1648 H 0.60295 0.22901 0.19947 0.0
H1649 H 0.62702 0.15056 0.12748 0.0
H1650 H 0.61221 0.28558 0.11346 0.0
H1651 H 0.59157 0.27223 0.09321 0.0
H1652 H 0.5959 0.27593 0.15824 0.0
H1653 H 0.6316 0.14939 0.04134 0.0
H1654 H 0.61975 0.1771 0.00384 0.0
H1655 H 0.641 0.18665 0.02421 0.0
H1656 H 0.59367 0.26657 0.93437 0.0
H1657 H 0.64471 0.29298 0.97931 0.0
H1658 H 0.58003 0.23211 0.03961 0.0
H1659 H 0.5902 0.19883 0.01154 0.0
H1660 H 0.57814 0.22623 0.97406 0.0
H1661 H 0.64276 0.26612 0.09798 0.0
H1662 H 0.65812 0.272 0.04905 0.0
H1663 H 0.65145 0.2328 0.06623 0.0
C1664 C 0.87112 0.73507 0.46272 0.0
C1665 C 0.88613 0.71848 0.45028 0.0
C1666 C 0.87091 0.75606 0.50267 0.0
C1667 C 0.88601 0.76028 0.53109 0.0
C1668 C 0.90141 0.74484 0.51726 0.0
C1669 C 0.90131 0.72424 0.47684 0.0
C1670 C 0.85429 0.77248 0.51596 0.0
C1671 C 0.91775 0.74859 0.54688 0.0
C1672 C 0.88819 0.82662 0.62522 0.0
C1673 C 0.88338 0.81067 0.66818 0.0
C1674 C 0.88905 0.8106 0.57995 0.0
C1675 C 0.8852 0.77795 0.57826 0.0
C1676 C 0.88056 0.7618 0.62197 0.0
C1677 C 0.87965 0.77843 0.66642 0.0
C1678 C 0.89391 0.82857 0.534 0.0
C1679 C 0.87655 0.72692 0.62183 0.0
H1680 H 0.85939 0.73104 0.44206 0.0
H1681 H 0.91299 0.7116 0.46744 0.0
H1682 H 0.84923 0.76264 0.55098 0.0
H1683 H 0.85656 0.79803 0.52192 0.0
H1684 H 0.84431 0.76958 0.487 0.0
H1685 H 0.92901 0.73757 0.52844 0.0
H1686 H 0.92057 0.77391 0.55322 0.0
H1687 H 0.91607 0.7374 0.58354 0.0
H1688 H 0.89107 0.85161 0.62705 0.0
H1689 H 0.87608 0.76624 0.70004 0.0
H1690 H 0.88339 0.82692 0.50648 0.0
H1691 H 0.90554 0.81795 0.51703 0.0
H1692 H 0.89652 0.85387 0.54163 0.0
H1693 H 0.86548 0.72213 0.5971 0.0
H1694 H 0.8734 0.71789 0.65919 0.0
H1695 H 0.88772 0.7135 0.60735 0.0
C1696 C 0.40188 0.27417 0.98776 0.0
C1697 C 0.3871 0.27766 0.95856 0.0
C1698 C 0.40194 0.25386 0.0286 0.0
C1699 C 0.3869 0.23652 0.04019 0.0
C1700 C 0.37228 0.23866 0.00933 0.0
C1701 C 0.37253 0.25927 0.96898 0.0
C1702 C 0.41777 0.2522 0.06077 0.0
C1703 C 0.35606 0.22031 0.02027 0.0
C1704 C 0.38915 0.16972 0.13334 0.0
C1705 C 0.38294 0.18469 0.17569 0.0
C1706 C 0.39061 0.18629 0.08873 0.0
C1707 C 0.38586 0.21853 0.08701 0.0
C1708 C 0.37975 0.23374 0.13009 0.0
C1709 C 0.37838 0.21657 0.17398 0.0
C1710 C 0.39711 0.16935 0.04348 0.0
C1711 C 0.37465 0.26813 0.12981 0.0
H1712 H 0.41321 0.28823 0.97992 0.0
H1713 H 0.36112 0.26153 0.94629 0.0
H1714 H 0.41496 0.26306 0.0971 0.0
H1715 H 0.42144 0.22729 0.0676 0.0
H1716 H 0.42892 0.26468 0.04412 0.0
H1717 H 0.34643 0.22227 0.99014 0.0
H1718 H 0.3591 0.19501 0.0261 0.0
H1719 H 0.35015 0.22925 0.05478 0.0
H1720 H 0.39278 0.14504 0.13519 0.0
H1721 H 0.37383 0.2281 0.20721 0.0
H1722 H 0.40867 0.18148 0.02881 0.0
H1723 H 0.38717 0.16997 0.01414 0.0
H1724 H 0.40045 0.14435 0.0512 0.0
H1725 H 0.38565 0.28284 0.11755 0.0
H1726 H 0.37042 0.27647 0.16669 0.0
H1727 H 0.364 0.27196 0.10324 0.0
C1728 C 0.10562 0.82397 0.62619 0.0
C1729 C 0.11426 0.81085 0.66651 0.0
C1730 C 0.10461 0.80759 0.58125 0.0
C1731 C 0.11222 0.77733 0.57724 0.0
C1732 C 0.12072 0.76389 0.61839 0.0
C1733 C 0.12168 0.78091 0.6625 0.0
C1734 C 0.09561 0.82274 0.538 0.0
C1735 C 0.12884 0.73154 0.61583 0.0
C1736 C 0.09954 0.71778 0.47956 0.0
C1737 C 0.11398 0.71856 0.44857 0.0
C1738 C 0.09834 0.73798 0.52043 0.0
C1739 C 0.11178 0.75969 0.52997 0.0
C1740 C 0.12582 0.76197 0.49694 0.0
C1741 C 0.12681 0.74123 0.45683 0.0
C1742 C 0.08324 0.73468 0.55506 0.0
C1743 C 0.14027 0.78516 0.50544 0.0
H1744 H 0.09984 0.84715 0.62975 0.0
H1745 H 0.12814 0.77071 0.69416 0.0
H1746 H 0.10482 0.82572 0.50707 0.0
H1747 H 0.08509 0.80727 0.52466 0.0
H1748 H 0.09012 0.84617 0.54745 0.0
H1749 H 0.13448 0.72414 0.65164 0.0
H1750 H 0.1191 0.71382 0.60455 0.0
H1751 H 0.13916 0.73137 0.58758 0.0
H1752 H 0.08958 0.70032 0.4734 0.0
H1753 H 0.1379 0.74222 0.43263 0.0
H1754 H 0.07762 0.75811 0.56354 0.0
H1755 H 0.08769 0.72431 0.5904 0.0
H1756 H 0.07299 0.71931 0.53963 0.0
H1757 H 0.13504 0.80903 0.51298 0.0
H1758 H 0.14914 0.78659 0.47339 0.0
H1759 H 0.14782 0.77787 0.53826 0.0
C1760 C 0.39471 0.82079 0.87756 0.0
C1761 C 0.38695 0.80685 0.83645 0.0
C1762 C 0.39606 0.80424 0.92227 0.0
C1763 C 0.38964 0.77302 0.92533 0.0
C1764 C 0.38203 0.75879 0.88343 0.0
C1765 C 0.38074 0.77596 0.8395 0.0
C1766 C 0.40413 0.8202 0.96629 0.0
C1767 C 0.37516 0.72547 0.88503 0.0
C1768 C 0.40375 0.71488 0.02363 0.0
C1769 C 0.38913 0.71394 0.0539 0.0
C1770 C 0.40449 0.73519 0.9828 0.0
C1771 C 0.39035 0.75522 0.97245 0.0
C1772 C 0.37603 0.75575 0.00465 0.0
C1773 C 0.37555 0.73499 0.04482 0.0
C1774 C 0.41994 0.73386 0.94913 0.0
C1775 C 0.3608 0.77706 0.99523 0.0
H1776 H 0.39956 0.84471 0.87476 0.0
H1777 H 0.37495 0.76517 0.80727 0.0
H1778 H 0.39459 0.82188 0.99661 0.0
H1779 H 0.41508 0.80596 0.98018 0.0
H1780 H 0.40883 0.8443 0.95748 0.0
H1781 H 0.37009 0.71761 0.84875 0.0
H1782 H 0.38547 0.70897 0.89669 0.0
H1783 H 0.36465 0.72379 0.91259 0.0
H1784 H 0.41429 0.69869 0.03042 0.0
H1785 H 0.36429 0.73469 0.06841 0.0
H1786 H 0.42476 0.75796 0.94124 0.0
H1787 H 0.41615 0.72316 0.91342 0.0
H1788 H 0.4306 0.71968 0.96509 0.0
H1789 H 0.36517 0.80159 0.9884 0.0
H1790 H 0.35159 0.77717 0.02654 0.0
H1791 H 0.35389 0.76904 0.96171 0.0
C1792 C 0.10952 0.17686 0.36834 0.0
C1793 C 0.1163 0.1909 0.32594 0.0
C1794 C 0.10883 0.1936 0.41298 0.0
C1795 C 0.1149 0.2251 0.41463 0.0
C1796 C 0.12141 0.23948 0.37135 0.0
C1797 C 0.12205 0.22213 0.32749 0.0
C1798 C 0.10189 0.17751 0.45844 0.0
C1799 C 0.12787 0.27308 0.37147 0.0
C1800 C 0.10221 0.28241 0.51562 0.0
C1801 C 0.11738 0.28369 0.54363 0.0
C1802 C 0.10091 0.26236 0.47462 0.0
C1803 C 0.11504 0.24297 0.4617 0.0
C1804 C 0.13 0.24289 0.49142 0.0
C1805 C 0.13102 0.26335 0.5319 0.0
C1806 C 0.08477 0.26318 0.44364 0.0
C1807 C 0.14527 0.22227 0.47915 0.0
H1808 H 0.105 0.15269 0.36663 0.0
H1809 H 0.12708 0.23293 0.29423 0.0
H1810 H 0.11212 0.17608 0.4869 0.0
H1811 H 0.09118 0.1915 0.47434 0.0
H1812 H 0.09717 0.15329 0.45057 0.0
H1813 H 0.13197 0.28105 0.33427 0.0
H1814 H 0.11765 0.28918 0.38502 0.0
H1815 H 0.13897 0.27527 0.39696 0.0
H1816 H 0.0916 0.29803 0.52444 0.0
H1817 H 0.14272 0.26392 0.55367 0.0
H1818 H 0.08 0.23891 0.43674 0.0
H1819 H 0.08771 0.27387 0.40727 0.0
H1820 H 0.07433 0.27709 0.46131 0.0
H1821 H 0.14109 0.19752 0.4734 0.0
H1822 H 0.15522 0.2227 0.50856 0.0
H1823 H 0.15124 0.23046 0.44426 0.0
loop_
_geom_bond_atom_site_label_1
_geom_bond_atom_site_label_2
_geom_bond_distance
_geom_bond_site_symmetry_2
_ccdc_geom_bond_type
Co0 O3 1.970 . S
Co0 N17 1.989 . S
Co0 O25 1.967 . S
Co0 O32 1.920 . S
Co1 O4 1.966 . S
Co1 N10 2.022 . S
Co1 N18 1.993 . S
Co1 O26 1.941 . S
C2 O3 1.258 . S
C2 O4 1.263 . S
O3 Co0 1.970 . S
O3 C2 1.258 . S
O4 Co1 1.966 . S
O4 C2 1.263 . S
C5 O6 1.235 . S
C5 O32 1.289 . S
O6 C5 1.235 . S
C7 C9 1.400 . S
C7 N10 1.351 . S
C7 C12 1.501 . S
C8 C9 1.387 . S
C8 N11 1.341 . S
C9 C7 1.400 . S
C9 C8 1.387 . S
N10 Co1 2.022 . S
N10 C7 1.351 . S
N10 N11 1.365 . S
N11 C8 1.341 . S
N11 N10 1.365 . S
N11 H31 0.862 . S
C12 C7 1.501 . S
C12 H13 0.961 . S
C12 H14 0.961 . S
C12 H15 0.960 . S
H13 C12 0.961 . S
H14 C12 0.961 . S
H15 C12 0.960 . S
C16 N17 1.342 . S
C16 C20 1.401 . S
C16 C21 1.499 . S
N17 Co0 1.989 . S
N17 C16 1.342 . S
N17 N18 1.388 . S
N18 Co1 1.993 . S
N18 N17 1.388 . S
N18 C19 1.346 . S
C19 N18 1.346 . S
C19 C20 1.396 . S
C19 C29 1.510 . S
C20 C16 1.401 . S
C20 C19 1.396 . S
C21 C16 1.499 . S
C21 H22 0.959 . S
C21 H23 0.960 . S
C21 H24 0.961 . S
H22 C21 0.959 . S
H23 C21 0.960 . S
H24 C21 0.961 . S
O25 Co0 1.967 . S
O25 C33 1.258 . S
O26 Co1 1.941 . S
O26 C33 1.266 . S
H27 C29 0.959 . S
H28 C29 0.961 . S
C29 C19 1.510 . S
C29 H27 0.959 . S
C29 H28 0.961 . S
C29 H30 0.960 . S
H30 C29 0.960 . S
H31 N11 0.862 . S
O32 Co0 1.920 . S
O32 C5 1.289 . S
C33 O25 1.258 . S
C33 O26 1.266 . S
Co34 O37 1.970 . S
Co34 N51 1.989 . S
Co34 O59 1.967 . S
Co34 O66 1.920 . S
Co35 O38 1.966 . S
Co35 N44 2.022 . S
Co35 N52 1.993 . S
Co35 O60 1.941 . S
C36 O37 1.258 . S
C36 O38 1.263 . S
O37 Co34 1.970 . S
O37 C36 1.258 . S
O38 Co35 1.966 . S
O38 C36 1.263 . S
C39 O40 1.235 . S
C39 O66 1.289 . S
O40 C39 1.235 . S
C41 C43 1.400 . S
C41 N44 1.351 . S
C41 C46 1.501 . S
C42 C43 1.387 . S
C42 N45 1.341 . S
C43 C41 1.400 . S
C43 C42 1.387 . S
N44 Co35 2.022 . S
N44 C41 1.351 . S
N44 N45 1.365 . S
N45 C42 1.341 . S
N45 N44 1.365 . S
N45 H65 0.862 . S
C46 C41 1.501 . S
C46 H47 0.961 . S
C46 H48 0.961 . S
C46 H49 0.960 . S
H47 C46 0.961 . S
H48 C46 0.961 . S
H49 C46 0.960 . S
C50 N51 1.342 . S
C50 C54 1.401 . S
C50 C55 1.499 . S
N51 Co34 1.989 . S
N51 C50 1.342 . S
N51 N52 1.388 . S
N52 Co35 1.993 . S
N52 N51 1.388 . S
N52 C53 1.346 . S
C53 N52 1.346 . S
C53 C54 1.396 . S
C53 C63 1.510 . S
C54 C50 1.401 . S
C54 C53 1.396 . S
C55 C50 1.499 . S
C55 H56 0.959 . S
C55 H57 0.960 . S
C55 H58 0.961 . S
H56 C55 0.959 . S
H57 C55 0.960 . S
H58 C55 0.961 . S
O59 Co34 1.967 . S
O59 C67 1.258 . S
O60 Co35 1.941 . S
O60 C67 1.266 . S
H61 C63 0.959 . S
H62 C63 0.961 . S
C63 C53 1.510 . S
C63 H61 0.959 . S
C63 H62 0.961 . S
C63 H64 0.960 . S
H64 C63 0.960 . S
H65 N45 0.862 . S
O66 Co34 1.920 . S
O66 C39 1.289 . S
C67 O59 1.258 . S
C67 O60 1.266 . S
Co68 O71 1.970 . S
Co68 N85 1.989 . S
Co68 O93 1.967 . S
Co68 O100 1.920 . S
Co69 O72 1.966 . S
Co69 N78 2.022 . S
Co69 N86 1.993 . S
Co69 O94 1.941 . S
C70 O71 1.258 . S
C70 O72 1.263 . S
O71 Co68 1.970 . S
O71 C70 1.258 . S
O72 Co69 1.966 . S
O72 C70 1.263 . S
C73 O74 1.235 . S
C73 O100 1.289 . S
O74 C73 1.235 . S
C75 C77 1.400 . S
C75 N78 1.351 . S
C75 C80 1.501 . S
C76 C77 1.387 . S
C76 N79 1.341 . S
C77 C75 1.400 . S
C77 C76 1.387 . S
N78 Co69 2.022 . S
N78 C75 1.351 . S
N78 N79 1.365 . S
N79 C76 1.341 . S
N79 N78 1.365 . S
N79 H99 0.862 . S
C80 C75 1.501 . S
C80 H81 0.961 . S
C80 H82 0.961 . S
C80 H83 0.960 . S
H81 C80 0.961 . S
H82 C80 0.961 . S
H83 C80 0.960 . S
C84 N85 1.342 . S
C84 C88 1.401 . S
C84 C89 1.499 . S
N85 Co68 1.989 . S
N85 C84 1.342 . S
N85 N86 1.388 . S
N86 Co69 1.993 . S
N86 N85 1.388 . S
N86 C87 1.346 . S
C87 N86 1.346 . S
C87 C88 1.396 . S
C87 C97 1.510 . S
C88 C84 1.401 . S
C88 C87 1.396 . S
C89 C84 1.499 . S
C89 H90 0.959 . S
C89 H91 0.960 . S
C89 H92 0.961 . S
H90 C89 0.959 . S
H91 C89 0.960 . S
H92 C89 0.961 . S
O93 Co68 1.967 . S
O93 C101 1.258 . S
O94 Co69 1.941 . S
O94 C101 1.266 . S
H95 C97 0.959 . S
H96 C97 0.961 . S
C97 C87 1.510 . S
C97 H95 0.959 . S
C97 H96 0.961 . S
C97 H98 0.960 . S
H98 C97 0.960 . S
H99 N79 0.862 . S
O100 Co68 1.920 . S
O100 C73 1.289 . S
C101 O93 1.258 . S
C101 O94 1.266 . S
Co102 O105 1.970 . S
Co102 N119 1.989 . S
Co102 O127 1.967 . S
Co102 O134 1.920 . S
Co103 O106 1.966 . S
Co103 N112 2.022 . S
Co103 N120 1.993 . S
Co103 O128 1.941 . S
C104 O105 1.258 . S
C104 O106 1.263 . S
O105 Co102 1.970 . S
O105 C104 1.258 . S
O106 Co103 1.966 . S
O106 C104 1.263 . S
C107 O108 1.235 . S
C107 O134 1.289 . S
O108 C107 1.235 . S
C109 C111 1.400 . S
C109 N112 1.351 . S
C109 C114 1.501 . S
C110 C111 1.387 . S
C110 N113 1.341 . S
C111 C109 1.400 . S
C111 C110 1.387 . S
N112 Co103 2.022 . S
N112 C109 1.351 . S
N112 N113 1.365 . S
N113 C110 1.341 . S
N113 N112 1.365 . S
N113 H133 0.862 . S
C114 C109 1.501 . S
C114 H115 0.961 . S
C114 H116 0.961 . S
C114 H117 0.960 . S
H115 C114 0.961 . S
H116 C114 0.961 . S
H117 C114 0.960 . S
C118 N119 1.342 . S
C118 C122 1.401 . S
C118 C123 1.499 . S
N119 Co102 1.989 . S
N119 C118 1.342 . S
N119 N120 1.388 . S
N120 Co103 1.993 . S
N120 N119 1.388 . S
N120 C121 1.346 . S
C121 N120 1.346 . S
C121 C122 1.396 . S
C121 C131 1.510 . S
C122 C118 1.401 . S
C122 C121 1.396 . S
C123 C118 1.499 . S
C123 H124 0.959 . S
C123 H125 0.960 . S
C123 H126 0.961 . S
H124 C123 0.959 . S
H125 C123 0.960 . S
H126 C123 0.961 . S
O127 Co102 1.967 . S
O127 C135 1.258 . S
O128 Co103 1.941 . S
O128 C135 1.266 . S
H129 C131 0.959 . S
H130 C131 0.961 . S
C131 C121 1.510 . S
C131 H129 0.959 . S
C131 H130 0.961 . S
C131 H132 0.960 . S
H132 C131 0.960 . S
H133 N113 0.862 . S
O134 Co102 1.920 . S
O134 C107 1.289 . S
C135 O127 1.258 . S
C135 O128 1.266 . S
Co136 O139 1.970 . S
Co136 N153 1.989 . S
Co136 O161 1.967 . S
Co136 O168 1.920 . S
Co137 O140 1.966 . S
Co137 N146 2.022 . S
Co137 N154 1.993 . S
Co137 O162 1.941 . S
C138 O139 1.258 . S
C138 O140 1.263 . S
O139 Co136 1.970 . S
O139 C138 1.258 . S
O140 Co137 1.966 . S
O140 C138 1.263 . S
C141 O142 1.235 . S
C141 O168 1.289 . S
O142 C141 1.235 . S
C143 C145 1.400 . S
C143 N146 1.351 . S
C143 C148 1.501 . S
C144 C145 1.387 . S
C144 N147 1.341 . S
C145 C143 1.400 . S
C145 C144 1.387 . S
N146 Co137 2.022 . S
N146 C143 1.351 . S
N146 N147 1.365 . S
N147 C144 1.341 . S
N147 N146 1.365 . S
N147 H167 0.862 . S
C148 C143 1.501 . S
C148 H149 0.961 . S
C148 H150 0.961 . S
C148 H151 0.960 . S
H149 C148 0.961 . S
H150 C148 0.961 . S
H151 C148 0.960 . S
C152 N153 1.342 . S
C152 C156 1.401 . S
C152 C157 1.499 . S
N153 Co136 1.989 . S
N153 C152 1.342 . S
N153 N154 1.388 . S
N154 Co137 1.993 . S
N154 N153 1.388 . S
N154 C155 1.346 . S
C155 N154 1.346 . S
C155 C156 1.396 . S
C155 C165 1.510 . S
C156 C152 1.401 . S
C156 C155 1.396 . S
C157 C152 1.499 . S
C157 H158 0.959 . S
C157 H159 0.960 . S
C157 H160 0.961 . S
H158 C157 0.959 . S
H159 C157 0.960 . S
H160 C157 0.961 . S
O161 Co136 1.967 . S
O161 C169 1.258 . S
O162 Co137 1.941 . S
O162 C169 1.266 . S
H163 C165 0.959 . S
H164 C165 0.961 . S
C165 C155 1.510 . S
C165 H163 0.959 . S
C165 H164 0.961 . S
C165 H166 0.960 . S
H166 C165 0.960 . S
H167 N147 0.862 . S
O168 Co136 1.920 . S
O168 C141 1.289 . S
C169 O161 1.258 . S
C169 O162 1.266 . S
Co170 O173 1.970 . S
Co170 N187 1.989 . S
Co170 O195 1.967 . S
Co170 O202 1.920 . S
Co171 O174 1.966 . S
Co171 N180 2.022 . S
Co171 N188 1.993 . S
Co171 O196 1.941 . S
C172 O173 1.258 . S
C172 O174 1.263 . S
O173 Co170 1.970 . S
O173 C172 1.258 . S
O174 Co171 1.966 . S
O174 C172 1.263 . S
C175 O176 1.235 . S
C175 O202 1.289 . S
O176 C175 1.235 . S
C177 C179 1.400 . S
C177 N180 1.351 . S
C177 C182 1.501 . S
C178 C179 1.387 . S
C178 N181 1.341 . S
C179 C177 1.400 . S
C179 C178 1.387 . S
N180 Co171 2.022 . S
N180 C177 1.351 . S
N180 N181 1.365 . S
N181 C178 1.341 . S
N181 N180 1.365 . S
N181 H201 0.862 . S
C182 C177 1.501 . S
C182 H183 0.961 . S
C182 H184 0.961 . S
C182 H185 0.960 . S
H183 C182 0.961 . S
H184 C182 0.961 . S
H185 C182 0.960 . S
C186 N187 1.342 . S
C186 C190 1.401 . S
C186 C191 1.499 . S
N187 Co170 1.989 . S
N187 C186 1.342 . S
N187 N188 1.388 . S
N188 Co171 1.993 . S
N188 N187 1.388 . S
N188 C189 1.346 . S
C189 N188 1.346 . S
C189 C190 1.396 . S
C189 C199 1.510 . S
C190 C186 1.401 . S
C190 C189 1.396 . S
C191 C186 1.499 . S
C191 H192 0.959 . S
C191 H193 0.960 . S
C191 H194 0.961 . S
H192 C191 0.959 . S
H193 C191 0.960 . S
H194 C191 0.961 . S
O195 Co170 1.967 . S
O195 C203 1.258 . S
O196 Co171 1.941 . S
O196 C203 1.266 . S
H197 C199 0.959 . S
H198 C199 0.961 . S
C199 C189 1.510 . S
C199 H197 0.959 . S
C199 H198 0.961 . S
C199 H200 0.960 . S
H200 C199 0.960 . S
H201 N181 0.862 . S
O202 Co170 1.920 . S
O202 C175 1.289 . S
C203 O195 1.258 . S
C203 O196 1.266 . S
Co204 O207 1.970 . S
Co204 N221 1.989 . S
Co204 O229 1.967 . S
Co204 O236 1.920 . S
Co205 O208 1.966 . S
Co205 N214 2.022 . S
Co205 N222 1.993 . S
Co205 O230 1.941 . S
C206 O207 1.258 . S
C206 O208 1.263 . S
O207 Co204 1.970 . S
O207 C206 1.258 . S
O208 Co205 1.966 . S
O208 C206 1.263 . S
C209 O210 1.235 . S
C209 O236 1.289 . S
O210 C209 1.235 . S
C211 C213 1.400 . S
C211 N214 1.351 . S
C211 C216 1.501 . S
C212 C213 1.387 . S
C212 N215 1.341 . S
C213 C211 1.400 . S
C213 C212 1.387 . S
N214 Co205 2.022 . S
N214 C211 1.351 . S
N214 N215 1.365 . S
N215 C212 1.341 . S
N215 N214 1.365 . S
N215 H235 0.862 . S
C216 C211 1.501 . S
C216 H217 0.961 . S
C216 H218 0.961 . S
C216 H219 0.960 . S
H217 C216 0.961 . S
H218 C216 0.961 . S
H219 C216 0.960 . S
C220 N221 1.342 . S
C220 C224 1.401 . S
C220 C225 1.499 . S
N221 Co204 1.989 . S
N221 C220 1.342 . S
N221 N222 1.388 . S
N222 Co205 1.993 . S
N222 N221 1.388 . S
N222 C223 1.346 . S
C223 N222 1.346 . S
C223 C224 1.396 . S
C223 C233 1.510 . S
C224 C220 1.401 . S
C224 C223 1.396 . S
C225 C220 1.499 . S
C225 H226 0.959 . S
C225 H227 0.960 . S
C225 H228 0.961 . S
H226 C225 0.959 . S
H227 C225 0.960 . S
H228 C225 0.961 . S
O229 Co204 1.967 . S
O229 C237 1.258 . S
O230 Co205 1.941 . S
O230 C237 1.266 . S
H231 C233 0.959 . S
H232 C233 0.961 . S
C233 C223 1.510 . S
C233 H231 0.959 . S
C233 H232 0.961 . S
C233 H234 0.960 . S
H234 C233 0.960 . S
H235 N215 0.862 . S
O236 Co204 1.920 . S
O236 C209 1.289 . S
C237 O229 1.258 . S
C237 O230 1.266 . S
Co238 O241 1.970 . S
Co238 N255 1.989 . S
Co238 O263 1.967 . S
Co238 O270 1.920 . S
Co239 O242 1.966 . S
Co239 N248 2.022 . S
Co239 N256 1.993 . S
Co239 O264 1.941 . S
C240 O241 1.258 . S
C240 O242 1.263 . S
O241 Co238 1.970 . S
O241 C240 1.258 . S
O242 Co239 1.966 . S
O242 C240 1.263 . S
C243 O244 1.235 . S
C243 O270 1.289 . S
O244 C243 1.235 . S
C245 C247 1.400 . S
C245 N248 1.351 . S
C245 C250 1.501 . S
C246 C247 1.387 . S
C246 N249 1.341 . S
C247 C245 1.400 . S
C247 C246 1.387 . S
N248 Co239 2.022 . S
N248 C245 1.351 . S
N248 N249 1.365 . S
N249 C246 1.341 . S
N249 N248 1.365 . S
N249 H269 0.862 . S
C250 C245 1.501 . S
C250 H251 0.961 . S
C250 H252 0.961 . S
C250 H253 0.960 . S
H251 C250 0.961 . S
H252 C250 0.961 . S
H253 C250 0.960 . S
C254 N255 1.342 . S
C254 C258 1.401 . S
C254 C259 1.499 . S
N255 Co238 1.989 . S
N255 C254 1.342 . S
N255 N256 1.388 . S
N256 Co239 1.993 . S
N256 N255 1.388 . S
N256 C257 1.346 . S
C257 N256 1.346 . S
C257 C258 1.396 . S
C257 C267 1.510 . S
C258 C254 1.401 . S
C258 C257 1.396 . S
C259 C254 1.499 . S
C259 H260 0.959 . S
C259 H261 0.960 . S
C259 H262 0.961 . S
H260 C259 0.959 . S
H261 C259 0.960 . S
H262 C259 0.961 . S
O263 Co238 1.967 . S
O263 C271 1.258 . S
O264 Co239 1.941 . S
O264 C271 1.266 . S
H265 C267 0.959 . S
H266 C267 0.961 . S
C267 C257 1.510 . S
C267 H265 0.959 . S
C267 H266 0.961 . S
C267 H268 0.960 . S
H268 C267 0.960 . S
H269 N249 0.862 . S
O270 Co238 1.920 . S
O270 C243 1.289 . S
C271 O263 1.258 . S
C271 O264 1.266 . S
Co272 O275 1.970 . S
Co272 N289 1.989 . S
Co272 O297 1.967 . S
Co272 O304 1.920 . S
Co273 O276 1.966 . S
Co273 N282 2.022 . S
Co273 N290 1.993 . S
Co273 O298 1.941 . S
C274 O275 1.258 . S
C274 O276 1.263 . S
O275 Co272 1.970 . S
O275 C274 1.258 . S
O276 Co273 1.966 . S
O276 C274 1.263 . S
C277 O278 1.235 . S
C277 O304 1.289 . S
O278 C277 1.235 . S
C279 C281 1.400 . S
C279 N282 1.351 . S
C279 C284 1.501 . S
C280 C281 1.387 . S
C280 N283 1.341 . S
C281 C279 1.400 . S
C281 C280 1.387 . S
N282 Co273 2.022 . S
N282 C279 1.351 . S
N282 N283 1.365 . S
N283 C280 1.341 . S
N283 N282 1.365 . S
N283 H303 0.862 . S
C284 C279 1.501 . S
C284 H285 0.961 . S
C284 H286 0.961 . S
C284 H287 0.960 . S
H285 C284 0.961 . S
H286 C284 0.961 . S
H287 C284 0.960 . S
C288 N289 1.342 . S
C288 C292 1.401 . S
C288 C293 1.499 . S
N289 Co272 1.989 . S
N289 C288 1.342 . S
N289 N290 1.388 . S
N290 Co273 1.993 . S
N290 N289 1.388 . S
N290 C291 1.346 . S
C291 N290 1.346 . S
C291 C292 1.396 . S
C291 C301 1.510 . S
C292 C288 1.401 . S
C292 C291 1.396 . S
C293 C288 1.499 . S
C293 H294 0.959 . S
C293 H295 0.960 . S
C293 H296 0.961 . S
H294 C293 0.959 . S
H295 C293 0.960 . S
H296 C293 0.961 . S
O297 Co272 1.967 . S
O297 C305 1.258 . S
O298 Co273 1.941 . S
O298 C305 1.266 . S
H299 C301 0.959 . S
H300 C301 0.961 . S
C301 C291 1.510 . S
C301 H299 0.959 . S
C301 H300 0.961 . S
C301 H302 0.960 . S
H302 C301 0.960 . S
H303 N283 0.862 . S
O304 Co272 1.920 . S
O304 C277 1.289 . S
C305 O297 1.258 . S
C305 O298 1.266 . S
Co306 O309 1.970 . S
Co306 N323 1.989 . S
Co306 O331 1.967 . S
Co306 O338 1.920 . S
Co307 O310 1.966 . S
Co307 N316 2.022 . S
Co307 N324 1.993 . S
Co307 O332 1.941 . S
C308 O309 1.258 . S
C308 O310 1.263 . S
O309 Co306 1.970 . S
O309 C308 1.258 . S
O310 Co307 1.966 . S
O310 C308 1.263 . S
C311 O312 1.235 . S
C311 O338 1.289 . S
O312 C311 1.235 . S
C313 C315 1.400 . S
C313 N316 1.351 . S
C313 C318 1.501 . S
C314 C315 1.387 . S
C314 N317 1.341 . S
C315 C313 1.400 . S
C315 C314 1.387 . S
N316 Co307 2.022 . S
N316 C313 1.351 . S
N316 N317 1.365 . S
N317 C314 1.341 . S
N317 N316 1.365 . S
N317 H337 0.862 . S
C318 C313 1.501 . S
C318 H319 0.961 . S
C318 H320 0.961 . S
C318 H321 0.960 . S
H319 C318 0.961 . S
H320 C318 0.961 . S
H321 C318 0.960 . S
C322 N323 1.342 . S
C322 C326 1.401 . S
C322 C327 1.499 . S
N323 Co306 1.989 . S
N323 C322 1.342 . S
N323 N324 1.388 . S
N324 Co307 1.993 . S
N324 N323 1.388 . S
N324 C325 1.346 . S
C325 N324 1.346 . S
C325 C326 1.396 . S
C325 C335 1.510 . S
C326 C322 1.401 . S
C326 C325 1.396 . S
C327 C322 1.499 . S
C327 H328 0.959 . S
C327 H329 0.960 . S
C327 H330 0.961 . S
H328 C327 0.959 . S
H329 C327 0.960 . S
H330 C327 0.961 . S
O331 Co306 1.967 . S
O331 C339 1.258 . S
O332 Co307 1.941 . S
O332 C339 1.266 . S
H333 C335 0.959 . S
H334 C335 0.961 . S
C335 C325 1.510 . S
C335 H333 0.959 . S
C335 H334 0.961 . S
C335 H336 0.960 . S
H336 C335 0.960 . S
H337 N317 0.862 . S
O338 Co306 1.920 . S
O338 C311 1.289 . S
C339 O331 1.258 . S
C339 O332 1.266 . S
Co340 O343 1.970 . S
Co340 N357 1.989 . S
Co340 O365 1.967 . S
Co340 O372 1.920 . S
Co341 O344 1.966 . S
Co341 N350 2.022 . S
Co341 N358 1.993 . S
Co341 O366 1.941 . S
C342 O343 1.258 . S
C342 O344 1.263 . S
O343 Co340 1.970 . S
O343 C342 1.258 . S
O344 Co341 1.966 . S
O344 C342 1.263 . S
C345 O346 1.235 . S
C345 O372 1.289 . S
O346 C345 1.235 . S
C347 C349 1.400 . S
C347 N350 1.351 . S
C347 C352 1.501 . S
C348 C349 1.387 . S
C348 N351 1.341 . S
C349 C347 1.400 . S
C349 C348 1.387 . S
N350 Co341 2.022 . S
N350 C347 1.351 . S
N350 N351 1.365 . S
N351 C348 1.341 . S
N351 N350 1.365 . S
N351 H371 0.862 . S
C352 C347 1.501 . S
C352 H353 0.961 . S
C352 H354 0.961 . S
C352 H355 0.960 . S
H353 C352 0.961 . S
H354 C352 0.961 . S
H355 C352 0.960 . S
C356 N357 1.342 . S
C356 C360 1.401 . S
C356 C361 1.499 . S
N357 Co340 1.989 . S
N357 C356 1.342 . S
N357 N358 1.388 . S
N358 Co341 1.993 . S
N358 N357 1.388 . S
N358 C359 1.346 . S
C359 N358 1.346 . S
C359 C360 1.396 . S
C359 C369 1.510 . S
C360 C356 1.401 . S
C360 C359 1.396 . S
C361 C356 1.499 . S
C361 H362 0.959 . S
C361 H363 0.960 . S
C361 H364 0.961 . S
H362 C361 0.959 . S
H363 C361 0.960 . S
H364 C361 0.961 . S
O365 Co340 1.967 . S
O365 C373 1.258 . S
O366 Co341 1.941 . S
O366 C373 1.266 . S
H367 C369 0.959 . S
H368 C369 0.961 . S
C369 C359 1.510 . S
C369 H367 0.959 . S
C369 H368 0.961 . S
C369 H370 0.960 . S
H370 C369 0.960 . S
H371 N351 0.862 . S
O372 Co340 1.920 . S
O372 C345 1.289 . S
C373 O365 1.258 . S
C373 O366 1.266 . S
Co374 O377 1.970 . S
Co374 N391 1.989 . S
Co374 O399 1.967 . S
Co374 O406 1.920 . S
Co375 O378 1.966 . S
Co375 N384 2.022 . S
Co375 N392 1.993 . S
Co375 O400 1.941 . S
C376 O377 1.258 . S
C376 O378 1.263 . S
O377 Co374 1.970 . S
O377 C376 1.258 . S
O378 Co375 1.966 . S
O378 C376 1.263 . S
C379 O380 1.235 . S
C379 O406 1.289 . S
O380 C379 1.235 . S
C381 C383 1.400 . S
C381 N384 1.351 . S
C381 C386 1.501 . S
C382 C383 1.387 . S
C382 N385 1.341 . S
C383 C381 1.400 . S
C383 C382 1.387 . S
N384 Co375 2.022 . S
N384 C381 1.351 . S
N384 N385 1.365 . S
N385 C382 1.341 . S
N385 N384 1.365 . S
N385 H405 0.862 . S
C386 C381 1.501 . S
C386 H387 0.961 . S
C386 H388 0.961 . S
C386 H389 0.960 . S
H387 C386 0.961 . S
H388 C386 0.961 . S
H389 C386 0.960 . S
C390 N391 1.342 . S
C390 C394 1.401 . S
C390 C395 1.499 . S
N391 Co374 1.989 . S
N391 C390 1.342 . S
N391 N392 1.388 . S
N392 Co375 1.993 . S
N392 N391 1.388 . S
N392 C393 1.346 . S
C393 N392 1.346 . S
C393 C394 1.396 . S
C393 C403 1.510 . S
C394 C390 1.401 . S
C394 C393 1.396 . S
C395 C390 1.499 . S
C395 H396 0.959 . S
C395 H397 0.960 . S
C395 H398 0.961 . S
H396 C395 0.959 . S
H397 C395 0.960 . S
H398 C395 0.961 . S
O399 Co374 1.967 . S
O399 C407 1.258 . S
O400 Co375 1.941 . S
O400 C407 1.266 . S
H401 C403 0.959 . S
H402 C403 0.961 . S
C403 C393 1.510 . S
C403 H401 0.959 . S
C403 H402 0.961 . S
C403 H404 0.960 . S
H404 C403 0.960 . S
H405 N385 0.862 . S
O406 Co374 1.920 . S
O406 C379 1.289 . S
C407 O399 1.258 . S
C407 O400 1.266 . S
Co408 O411 1.970 . S
Co408 N425 1.989 . S
Co408 O433 1.967 . S
Co408 O440 1.920 . S
Co409 O412 1.966 . S
Co409 N418 2.022 . S
Co409 N426 1.993 . S
Co409 O434 1.941 . S
C410 O411 1.258 . S
C410 O412 1.263 . S
O411 Co408 1.970 . S
O411 C410 1.258 . S
O412 Co409 1.966 . S
O412 C410 1.263 . S
C413 O414 1.235 . S
C413 O440 1.289 . S
O414 C413 1.235 . S
C415 C417 1.400 . S
C415 N418 1.351 . S
C415 C420 1.501 . S
C416 C417 1.387 . S
C416 N419 1.341 . S
C417 C415 1.400 . S
C417 C416 1.387 . S
N418 Co409 2.022 . S
N418 C415 1.351 . S
N418 N419 1.365 . S
N419 C416 1.341 . S
N419 N418 1.365 . S
N419 H439 0.862 . S
C420 C415 1.501 . S
C420 H421 0.961 . S
C420 H422 0.961 . S
C420 H423 0.960 . S
H421 C420 0.961 . S
H422 C420 0.961 . S
H423 C420 0.960 . S
C424 N425 1.342 . S
C424 C428 1.401 . S
C424 C429 1.499 . S
N425 Co408 1.989 . S
N425 C424 1.342 . S
N425 N426 1.388 . S
N426 Co409 1.993 . S
N426 N425 1.388 . S
N426 C427 1.346 . S
C427 N426 1.346 . S
C427 C428 1.396 . S
C427 C437 1.510 . S
C428 C424 1.401 . S
C428 C427 1.396 . S
C429 C424 1.499 . S
C429 H430 0.959 . S
C429 H431 0.960 . S
C429 H432 0.961 . S
H430 C429 0.959 . S
H431 C429 0.960 . S
H432 C429 0.961 . S
O433 Co408 1.967 . S
O433 C441 1.258 . S
O434 Co409 1.941 . S
O434 C441 1.266 . S
H435 C437 0.959 . S
H436 C437 0.961 . S
C437 C427 1.510 . S
C437 H435 0.959 . S
C437 H436 0.961 . S
C437 H438 0.960 . S
H438 C437 0.960 . S
H439 N419 0.862 . S
O440 Co408 1.920 . S
O440 C413 1.289 . S
C441 O433 1.258 . S
C441 O434 1.266 . S
Co442 O445 1.970 . S
Co442 N459 1.989 . S
Co442 O467 1.967 . S
Co442 O474 1.920 . S
Co443 O446 1.966 . S
Co443 N452 2.022 . S
Co443 N460 1.993 . S
Co443 O468 1.941 . S
C444 O445 1.258 . S
C444 O446 1.263 . S
O445 Co442 1.970 . S
O445 C444 1.258 . S
O446 Co443 1.966 . S
O446 C444 1.263 . S
C447 O448 1.235 . S
C447 O474 1.289 . S
O448 C447 1.235 . S
C449 C451 1.400 . S
C449 N452 1.351 . S
C449 C454 1.501 . S
C450 C451 1.387 . S
C450 N453 1.341 . S
C451 C449 1.400 . S
C451 C450 1.387 . S
N452 Co443 2.022 . S
N452 C449 1.351 . S
N452 N453 1.365 . S
N453 C450 1.341 . S
N453 N452 1.365 . S
N453 H473 0.862 . S
C454 C449 1.501 . S
C454 H455 0.961 . S
C454 H456 0.961 . S
C454 H457 0.960 . S
H455 C454 0.961 . S
H456 C454 0.961 . S
H457 C454 0.960 . S
C458 N459 1.342 . S
C458 C462 1.401 . S
C458 C463 1.499 . S
N459 Co442 1.989 . S
N459 C458 1.342 . S
N459 N460 1.388 . S
N460 Co443 1.993 . S
N460 N459 1.388 . S
N460 C461 1.346 . S
C461 N460 1.346 . S
C461 C462 1.396 . S
C461 C471 1.510 . S
C462 C458 1.401 . S
C462 C461 1.396 . S
C463 C458 1.499 . S
C463 H464 0.959 . S
C463 H465 0.960 . S
C463 H466 0.961 . S
H464 C463 0.959 . S
H465 C463 0.960 . S
H466 C463 0.961 . S
O467 Co442 1.967 . S
O467 C475 1.258 . S
O468 Co443 1.941 . S
O468 C475 1.266 . S
H469 C471 0.959 . S
H470 C471 0.961 . S
C471 C461 1.510 . S
C471 H469 0.959 . S
C471 H470 0.961 . S
C471 H472 0.960 . S
H472 C471 0.960 . S
H473 N453 0.862 . S
O474 Co442 1.920 . S
O474 C447 1.289 . S
C475 O467 1.258 . S
C475 O468 1.266 . S
Co476 O479 1.970 . S
Co476 N493 1.989 . S
Co476 O501 1.967 . S
Co476 O508 1.920 . S
Co477 O480 1.966 . S
Co477 N486 2.022 . S
Co477 N494 1.993 . S
Co477 O502 1.941 . S
C478 O479 1.258 . S
C478 O480 1.263 . S
O479 Co476 1.970 . S
O479 C478 1.258 . S
O480 Co477 1.966 . S
O480 C478 1.263 . S
C481 O482 1.235 . S
C481 O508 1.289 . S
O482 C481 1.235 . S
C483 C485 1.400 . S
C483 N486 1.351 . S
C483 C488 1.501 . S
C484 C485 1.387 . S
C484 N487 1.341 . S
C485 C483 1.400 . S
C485 C484 1.387 . S
N486 Co477 2.022 . S
N486 C483 1.351 . S
N486 N487 1.365 . S
N487 C484 1.341 . S
N487 N486 1.365 . S
N487 H507 0.862 . S
C488 C483 1.501 . S
C488 H489 0.961 . S
C488 H490 0.961 . S
C488 H491 0.960 . S
H489 C488 0.961 . S
H490 C488 0.961 . S
H491 C488 0.960 . S
C492 N493 1.342 . S
C492 C496 1.401 . S
C492 C497 1.499 . S
N493 Co476 1.989 . S
N493 C492 1.342 . S
N493 N494 1.388 . S
N494 Co477 1.993 . S
N494 N493 1.388 . S
N494 C495 1.346 . S
C495 N494 1.346 . S
C495 C496 1.396 . S
C495 C505 1.510 . S
C496 C492 1.401 . S
C496 C495 1.396 . S
C497 C492 1.499 . S
C497 H498 0.959 . S
C497 H499 0.960 . S
C497 H500 0.961 . S
H498 C497 0.959 . S
H499 C497 0.960 . S
H500 C497 0.961 . S
O501 Co476 1.967 . S
O501 C509 1.258 . S
O502 Co477 1.941 . S
O502 C509 1.266 . S
H503 C505 0.959 . S
H504 C505 0.961 . S
C505 C495 1.510 . S
C505 H503 0.959 . S
C505 H504 0.961 . S
C505 H506 0.960 . S
H506 C505 0.960 . S
H507 N487 0.862 . S
O508 Co476 1.920 . S
O508 C481 1.289 . S
C509 O501 1.258 . S
C509 O502 1.266 . S
Co510 O513 1.970 . S
Co510 N527 1.989 . S
Co510 O535 1.967 . S
Co510 O542 1.920 . S
Co511 O514 1.966 . S
Co511 N520 2.022 . S
Co511 N528 1.993 . S
Co511 O536 1.941 . S
C512 O513 1.258 . S
C512 O514 1.263 . S
O513 Co510 1.970 . S
O513 C512 1.258 . S
O514 Co511 1.966 . S
O514 C512 1.263 . S
C515 O516 1.235 . S
C515 O542 1.289 . S
O516 C515 1.235 . S
C517 C519 1.400 . S
C517 N520 1.351 . S
C517 C522 1.501 . S
C518 C519 1.387 . S
C518 N521 1.341 . S
C519 C517 1.400 . S
C519 C518 1.387 . S
N520 Co511 2.022 . S
N520 C517 1.351 . S
N520 N521 1.365 . S
N521 C518 1.341 . S
N521 N520 1.365 . S
N521 H541 0.862 . S
C522 C517 1.501 . S
C522 H523 0.961 . S
C522 H524 0.961 . S
C522 H525 0.960 . S
H523 C522 0.961 . S
H524 C522 0.961 . S
H525 C522 0.960 . S
C526 N527 1.342 . S
C526 C530 1.401 . S
C526 C531 1.499 . S
N527 Co510 1.989 . S
N527 C526 1.342 . S
N527 N528 1.388 . S
N528 Co511 1.993 . S
N528 N527 1.388 . S
N528 C529 1.346 . S
C529 N528 1.346 . S
C529 C530 1.396 . S
C529 C539 1.510 . S
C530 C526 1.401 . S
C530 C529 1.396 . S
C531 C526 1.499 . S
C531 H532 0.959 . S
C531 H533 0.960 . S
C531 H534 0.961 . S
H532 C531 0.959 . S
H533 C531 0.960 . S
H534 C531 0.961 . S
O535 Co510 1.967 . S
O535 C543 1.258 . S
O536 Co511 1.941 . S
O536 C543 1.266 . S
H537 C539 0.959 . S
H538 C539 0.961 . S
C539 C529 1.510 . S
C539 H537 0.959 . S
C539 H538 0.961 . S
C539 H540 0.960 . S
H540 C539 0.960 . S
H541 N521 0.862 . S
O542 Co510 1.920 . S
O542 C515 1.289 . S
C543 O535 1.258 . S
C543 O536 1.266 . S
C544 C545 1.391 . S
C544 C546 1.394 . S
C544 H560 0.931 . S
C545 C544 1.391 . S
C545 C549 1.376 . S
C546 C544 1.394 . S
C546 C547 1.369 . S
C546 C550 1.531 . S
C547 C546 1.369 . S
C547 C548 1.410 . S
C547 C555 1.503 . S
C548 C547 1.410 . S
C548 C549 1.392 . S
C548 C551 1.511 . S
C549 C545 1.376 . S
C549 C548 1.392 . S
C549 H561 0.929 . S
C550 C546 1.531 . S
C550 H562 0.960 . S
C550 H563 0.962 . S
C550 H564 0.960 . S
C551 C548 1.511 . S
C551 H565 0.961 . S
C551 H566 0.961 . S
C551 H567 0.961 . S
C552 C553 1.370 . S
C552 C554 1.363 . S
C552 H568 0.931 . S
C553 C552 1.370 . S
C553 C557 1.408 . S
C554 C552 1.363 . S
C554 C555 1.370 . S
C554 C558 1.524 . S
C555 C547 1.503 . S
C555 C554 1.370 . S
C555 C556 1.403 . S
C556 C555 1.403 . S
C556 C557 1.404 . S
C556 C559 1.539 . S
C557 C553 1.408 . S
C557 C556 1.404 . S
C557 H569 0.930 . S
C558 C554 1.524 . S
C558 H570 0.956 . S
C558 H571 0.961 . S
C558 H572 0.961 . S
C559 C556 1.539 . S
C559 H573 0.958 . S
C559 H574 0.961 . S
C559 H575 0.960 . S
H560 C544 0.931 . S
H561 C549 0.929 . S
H562 C550 0.960 . S
H563 C550 0.962 . S
H564 C550 0.960 . S
H565 C551 0.961 . S
H566 C551 0.961 . S
H567 C551 0.961 . S
H568 C552 0.931 . S
H569 C557 0.930 . S
H570 C558 0.956 . S
H571 C558 0.961 . S
H572 C558 0.961 . S
H573 C559 0.958 . S
H574 C559 0.961 . S
H575 C559 0.960 . S
C576 C577 1.391 . S
C576 C578 1.394 . S
C576 H592 0.931 . S
C577 C576 1.391 . S
C577 C581 1.376 . S
C578 C576 1.394 . S
C578 C579 1.369 . S
C578 C582 1.531 . S
C579 C578 1.369 . S
C579 C580 1.410 . S
C579 C587 1.503 . S
C580 C579 1.410 . S
C580 C581 1.392 . S
C580 C583 1.511 . S
C581 C577 1.376 . S
C581 C580 1.392 . S
C581 H593 0.929 . S
C582 C578 1.531 . S
C582 H594 0.960 . S
C582 H595 0.962 . S
C582 H596 0.960 . S
C583 C580 1.511 . S
C583 H597 0.961 . S
C583 H598 0.961 . S
C583 H599 0.961 . S
C584 C585 1.370 . S
C584 C586 1.363 . S
C584 H600 0.931 . S
C585 C584 1.370 . S
C585 C589 1.408 . S
C586 C584 1.363 . S
C586 C587 1.370 . S
C586 C590 1.524 . S
C587 C579 1.503 . S
C587 C586 1.370 . S
C587 C588 1.403 . S
C588 C587 1.403 . S
C588 C589 1.404 . S
C588 C591 1.539 . S
C589 C585 1.408 . S
C589 C588 1.404 . S
C589 H601 0.930 . S
C590 C586 1.524 . S
C590 H602 0.956 . S
C590 H603 0.961 . S
C590 H604 0.961 . S
C591 C588 1.539 . S
C591 H605 0.958 . S
C591 H606 0.961 . S
C591 H607 0.960 . S
H592 C576 0.931 . S
H593 C581 0.929 . S
H594 C582 0.960 . S
H595 C582 0.962 . S
H596 C582 0.960 . S
H597 C583 0.961 . S
H598 C583 0.961 . S
H599 C583 0.961 . S
H600 C584 0.931 . S
H601 C589 0.930 . S
H602 C590 0.956 . S
H603 C590 0.961 . S
H604 C590 0.961 . S
H605 C591 0.958 . S
H606 C591 0.961 . S
H607 C591 0.960 . S
C608 C609 1.391 . S
C608 C610 1.394 . S
C608 H624 0.931 . S
C609 C608 1.391 . S
C609 C613 1.376 . S
C610 C608 1.394 . S
C610 C611 1.369 . S
C610 C614 1.531 . S
C611 C610 1.369 . S
C611 C612 1.410 . S
C611 C619 1.503 . S
C612 C611 1.410 . S
C612 C613 1.392 . S
C612 C615 1.511 . S
C613 C609 1.376 . S
C613 C612 1.392 . S
C613 H625 0.929 . S
C614 C610 1.531 . S
C614 H626 0.960 . S
C614 H627 0.962 . S
C614 H628 0.960 . S
C615 C612 1.511 . S
C615 H629 0.961 . S
C615 H630 0.961 . S
C615 H631 0.961 . S
C616 C617 1.370 . S
C616 C618 1.363 . S
C616 H632 0.931 . S
C617 C616 1.370 . S
C617 C621 1.408 . S
C618 C616 1.363 . S
C618 C619 1.370 . S
C618 C622 1.524 . S
C619 C611 1.503 . S
C619 C618 1.370 . S
C619 C620 1.403 . S
C620 C619 1.403 . S
C620 C621 1.404 . S
C620 C623 1.539 . S
C621 C617 1.408 . S
C621 C620 1.404 . S
C621 H633 0.930 . S
C622 C618 1.524 . S
C622 H634 0.956 . S
C622 H635 0.961 . S
C622 H636 0.961 . S
C623 C620 1.539 . S
C623 H637 0.958 . S
C623 H638 0.961 . S
C623 H639 0.960 . S
H624 C608 0.931 . S
H625 C613 0.929 . S
H626 C614 0.960 . S
H627 C614 0.962 . S
H628 C614 0.960 . S
H629 C615 0.961 . S
H630 C615 0.961 . S
H631 C615 0.961 . S
H632 C616 0.931 . S
H633 C621 0.930 . S
H634 C622 0.956 . S
H635 C622 0.961 . S
H636 C622 0.961 . S
H637 C623 0.958 . S
H638 C623 0.961 . S
H639 C623 0.960 . S
C640 C641 1.391 . S
C640 C642 1.394 . S
C640 H656 0.931 . S
C641 C640 1.391 . S
C641 C645 1.376 . S
C642 C640 1.394 . S
C642 C643 1.369 . S
C642 C646 1.531 . S
C643 C642 1.369 . S
C643 C644 1.410 . S
C643 C651 1.503 . S
C644 C643 1.410 . S
C644 C645 1.392 . S
C644 C647 1.511 . S
C645 C641 1.376 . S
C645 C644 1.392 . S
C645 H657 0.929 . S
C646 C642 1.531 . S
C646 H658 0.960 . S
C646 H659 0.962 . S
C646 H660 0.960 . S
C647 C644 1.511 . S
C647 H661 0.961 . S
C647 H662 0.961 . S
C647 H663 0.961 . S
C648 C649 1.370 . S
C648 C650 1.363 . S
C648 H664 0.931 . S
C649 C648 1.370 . S
C649 C653 1.408 . S
C650 C648 1.363 . S
C650 C651 1.370 . S
C650 C654 1.524 . S
C651 C643 1.503 . S
C651 C650 1.370 . S
C651 C652 1.403 . S
C652 C651 1.403 . S
C652 C653 1.404 . S
C652 C655 1.539 . S
C653 C649 1.408 . S
C653 C652 1.404 . S
C653 H665 0.930 . S
C654 C650 1.524 . S
C654 H666 0.956 . S
C654 H667 0.961 . S
C654 H668 0.961 . S
C655 C652 1.539 . S
C655 H669 0.958 . S
C655 H670 0.961 . S
C655 H671 0.960 . S
H656 C640 0.931 . S
H657 C645 0.929 . S
H658 C646 0.960 . S
H659 C646 0.962 . S
H660 C646 0.960 . S
H661 C647 0.961 . S
H662 C647 0.961 . S
H663 C647 0.961 . S
H664 C648 0.931 . S
H665 C653 0.930 . S
H666 C654 0.956 . S
H667 C654 0.961 . S
H668 C654 0.961 . S
H669 C655 0.958 . S
H670 C655 0.961 . S
H671 C655 0.960 . S
C672 C673 1.391 . S
C672 C674 1.394 . S
C672 H688 0.931 . S
C673 C672 1.391 . S
C673 C677 1.376 . S
C674 C672 1.394 . S
C674 C675 1.369 . S
C674 C678 1.531 . S
C675 C674 1.369 . S
C675 C676 1.410 . S
C675 C683 1.503 . S
C676 C675 1.410 . S
C676 C677 1.392 . S
C676 C679 1.511 . S
C677 C673 1.376 . S
C677 C676 1.392 . S
C677 H689 0.929 . S
C678 C674 1.531 . S
C678 H690 0.960 . S
C678 H691 0.962 . S
C678 H692 0.960 . S
C679 C676 1.511 . S
C679 H693 0.961 . S
C679 H694 0.961 . S
C679 H695 0.961 . S
C680 C681 1.370 . S
C680 C682 1.363 . S
C680 H696 0.931 . S
C681 C680 1.370 . S
C681 C685 1.408 . S
C682 C680 1.363 . S
C682 C683 1.370 . S
C682 C686 1.524 . S
C683 C675 1.503 . S
C683 C682 1.370 . S
C683 C684 1.403 . S
C684 C683 1.403 . S
C684 C685 1.404 . S
C684 C687 1.539 . S
C685 C681 1.408 . S
C685 C684 1.404 . S
C685 H697 0.930 . S
C686 C682 1.524 . S
C686 H698 0.956 . S
C686 H699 0.961 . S
C686 H700 0.961 . S
C687 C684 1.539 . S
C687 H701 0.958 . S
C687 H702 0.961 . S
C687 H703 0.960 . S
H688 C672 0.931 . S
H689 C677 0.929 . S
H690 C678 0.960 . S
H691 C678 0.962 . S
H692 C678 0.960 . S
H693 C679 0.961 . S
H694 C679 0.961 . S
H695 C679 0.961 . S
H696 C680 0.931 . S
H697 C685 0.930 . S
H698 C686 0.956 . S
H699 C686 0.961 . S
H700 C686 0.961 . S
H701 C687 0.958 . S
H702 C687 0.961 . S
H703 C687 0.960 . S
C704 C705 1.391 . S
C704 C706 1.394 . S
C704 H720 0.931 . S
C705 C704 1.391 . S
C705 C709 1.376 . S
C706 C704 1.394 . S
C706 C707 1.369 . S
C706 C710 1.531 . S
C707 C706 1.369 . S
C707 C708 1.410 . S
C707 C715 1.503 . S
C708 C707 1.410 . S
C708 C709 1.392 . S
C708 C711 1.511 . S
C709 C705 1.376 . S
C709 C708 1.392 . S
C709 H721 0.929 . S
C710 C706 1.531 . S
C710 H722 0.960 . S
C710 H723 0.962 . S
C710 H724 0.960 . S
C711 C708 1.511 . S
C711 H725 0.961 . S
C711 H726 0.961 . S
C711 H727 0.961 . S
C712 C713 1.370 . S
C712 C714 1.363 . S
C712 H728 0.931 . S
C713 C712 1.370 . S
C713 C717 1.408 . S
C714 C712 1.363 . S
C714 C715 1.370 . S
C714 C718 1.524 . S
C715 C707 1.503 . S
C715 C714 1.370 . S
C715 C716 1.403 . S
C716 C715 1.403 . S
C716 C717 1.404 . S
C716 C719 1.539 . S
C717 C713 1.408 . S
C717 C716 1.404 . S
C717 H729 0.930 . S
C718 C714 1.524 . S
C718 H730 0.956 . S
C718 H731 0.961 . S
C718 H732 0.961 . S
C719 C716 1.539 . S
C719 H733 0.958 . S
C719 H734 0.961 . S
C719 H735 0.960 . S
H720 C704 0.931 . S
H721 C709 0.929 . S
H722 C710 0.960 . S
H723 C710 0.962 . S
H724 C710 0.960 . S
H725 C711 0.961 . S
H726 C711 0.961 . S
H727 C711 0.961 . S
H728 C712 0.931 . S
H729 C717 0.930 . S
H730 C718 0.956 . S
H731 C718 0.961 . S
H732 C718 0.961 . S
H733 C719 0.958 . S
H734 C719 0.961 . S
H735 C719 0.960 . S
C736 C737 1.391 . S
C736 C738 1.394 . S
C736 H752 0.931 . S
C737 C736 1.391 . S
C737 C741 1.376 . S
C738 C736 1.394 . S
C738 C739 1.369 . S
C738 C742 1.531 . S
C739 C738 1.369 . S
C739 C740 1.410 . S
C739 C747 1.503 . S
C740 C739 1.410 . S
C740 C741 1.392 . S
C740 C743 1.511 . S
C741 C737 1.376 . S
C741 C740 1.392 . S
C741 H753 0.929 . S
C742 C738 1.531 . S
C742 H754 0.960 . S
C742 H755 0.962 . S
C742 H756 0.960 . S
C743 C740 1.511 . S
C743 H757 0.961 . S
C743 H758 0.961 . S
C743 H759 0.961 . S
C744 C745 1.370 . S
C744 C746 1.363 . S
C744 H760 0.931 . S
C745 C744 1.370 . S
C745 C749 1.408 . S
C746 C744 1.363 . S
C746 C747 1.370 . S
C746 C750 1.524 . S
C747 C739 1.503 . S
C747 C746 1.370 . S
C747 C748 1.403 . S
C748 C747 1.403 . S
C748 C749 1.404 . S
C748 C751 1.539 . S
C749 C745 1.408 . S
C749 C748 1.404 . S
C749 H761 0.930 . S
C750 C746 1.524 . S
C750 H762 0.956 . S
C750 H763 0.961 . S
C750 H764 0.961 . S
C751 C748 1.539 . S
C751 H765 0.958 . S
C751 H766 0.961 . S
C751 H767 0.960 . S
H752 C736 0.931 . S
H753 C741 0.929 . S
H754 C742 0.960 . S
H755 C742 0.962 . S
H756 C742 0.960 . S
H757 C743 0.961 . S
H758 C743 0.961 . S
H759 C743 0.961 . S
H760 C744 0.931 . S
H761 C749 0.930 . S
H762 C750 0.956 . S
H763 C750 0.961 . S
H764 C750 0.961 . S
H765 C751 0.958 . S
H766 C751 0.961 . S
H767 C751 0.960 . S
C768 C769 1.391 . S
C768 C770 1.394 . S
C768 H784 0.931 . S
C769 C768 1.391 . S
C769 C773 1.376 . S
C770 C768 1.394 . S
C770 C771 1.369 . S
C770 C774 1.531 . S
C771 C770 1.369 . S
C771 C772 1.410 . S
C771 C779 1.503 . S
C772 C771 1.410 . S
C772 C773 1.392 . S
C772 C775 1.511 . S
C773 C769 1.376 . S
C773 C772 1.392 . S
C773 H785 0.929 . S
C774 C770 1.531 . S
C774 H786 0.960 . S
C774 H787 0.962 . S
C774 H788 0.960 . S
C775 C772 1.511 . S
C775 H789 0.961 . S
C775 H790 0.961 . S
C775 H791 0.961 . S
C776 C777 1.370 . S
C776 C778 1.363 . S
C776 H792 0.931 . S
C777 C776 1.370 . S
C777 C781 1.408 . S
C778 C776 1.363 . S
C778 C779 1.370 . S
C778 C782 1.524 . S
C779 C771 1.503 . S
C779 C778 1.370 . S
C779 C780 1.403 . S
C780 C779 1.403 . S
C780 C781 1.404 . S
C780 C783 1.539 . S
C781 C777 1.408 . S
C781 C780 1.404 . S
C781 H793 0.930 . S
C782 C778 1.524 . S
C782 H794 0.956 . S
C782 H795 0.961 . S
C782 H796 0.961 . S
C783 C780 1.539 . S
C783 H797 0.958 . S
C783 H798 0.961 . S
C783 H799 0.960 . S
H784 C768 0.931 . S
H785 C773 0.929 . S
H786 C774 0.960 . S
H787 C774 0.962 . S
H788 C774 0.960 . S
H789 C775 0.961 . S
H790 C775 0.961 . S
H791 C775 0.961 . S
H792 C776 0.931 . S
H793 C781 0.930 . S
H794 C782 0.956 . S
H795 C782 0.961 . S
H796 C782 0.961 . S
H797 C783 0.958 . S
H798 C783 0.961 . S
H799 C783 0.960 . S
C800 C801 1.391 . S
C800 C802 1.394 . S
C800 H816 0.931 . S
C801 C800 1.391 . S
C801 C805 1.376 . S
C802 C800 1.394 . S
C802 C803 1.369 . S
C802 C806 1.531 . S
C803 C802 1.369 . S
C803 C804 1.410 . S
C803 C811 1.503 1_655 S
C804 C803 1.410 . S
C804 C805 1.392 . S
C804 C807 1.511 . S
C805 C801 1.376 . S
C805 C804 1.392 . S
C805 H817 0.929 . S
C806 C802 1.531 . S
C806 H818 0.960 1_655 S
C806 H819 0.962 . S
C806 H820 0.960 . S
C807 C804 1.511 . S
C807 H821 0.961 . S
C807 H822 0.961 1_655 S
C807 H823 0.961 . S
C808 C809 1.370 . S
C808 C810 1.363 . S
C808 H824 0.931 . S
C809 C808 1.370 . S
C809 C813 1.408 . S
C810 C808 1.363 . S
C810 C811 1.370 . S
C810 C814 1.524 . S
C811 C803 1.503 1_455 S
C811 C810 1.370 . S
C811 C812 1.403 . S
C812 C811 1.403 . S
C812 C813 1.404 . S
C812 C815 1.539 . S
C813 C809 1.408 . S
C813 C812 1.404 . S
C813 H825 0.930 . S
C814 C810 1.524 . S
C814 H826 0.983 . S
C814 H827 0.918 1_455 S
C814 H828 0.961 . S
C815 C812 1.539 . S
C815 H829 0.958 . S
C815 H830 0.961 . S
C815 H831 0.968 . S
H816 C800 0.931 . S
H817 C805 0.929 . S
H818 C806 0.960 1_455 S
H819 C806 0.962 . S
H820 C806 0.960 . S
H821 C807 0.961 . S
H822 C807 0.961 1_455 S
H823 C807 0.961 . S
H824 C808 0.931 . S
H825 C813 0.930 . S
H826 C814 0.983 . S
H827 C814 0.918 1_655 S
H828 C814 0.961 . S
H829 C815 0.958 . S
H830 C815 0.961 . S
H831 C815 0.968 . S
C832 C833 1.391 . S
C832 C834 1.394 . S
C832 H848 0.931 . S
C833 C832 1.391 . S
C833 C837 1.376 . S
C834 C832 1.394 . S
C834 C835 1.369 . S
C834 C838 1.531 . S
C835 C834 1.369 . S
C835 C836 1.410 . S
C835 C843 1.503 . S
C836 C835 1.410 . S
C836 C837 1.392 . S
C836 C839 1.511 . S
C837 C833 1.376 . S
C837 C836 1.392 . S
C837 H849 0.929 . S
C838 C834 1.531 . S
C838 H850 0.960 . S
C838 H851 0.962 . S
C838 H852 0.960 . S
C839 C836 1.511 . S
C839 H853 0.961 . S
C839 H854 0.961 . S
C839 H855 0.961 . S
C840 C841 1.370 . S
C840 C842 1.363 . S
C840 H856 0.931 . S
C841 C840 1.370 . S
C841 C845 1.408 . S
C842 C840 1.363 . S
C842 C843 1.370 . S
C842 C846 1.524 . S
C843 C835 1.503 . S
C843 C842 1.370 . S
C843 C844 1.403 . S
C844 C843 1.403 . S
C844 C845 1.404 . S
C844 C847 1.539 . S
C845 C841 1.408 . S
C845 C844 1.404 . S
C845 H857 0.930 . S
C846 C842 1.524 . S
C846 H858 0.956 . S
C846 H859 0.961 . S
C846 H860 0.961 . S
C847 C844 1.539 . S
C847 H861 0.958 . S
C847 H862 0.961 . S
C847 H863 0.960 . S
H848 C832 0.931 . S
H849 C837 0.929 . S
H850 C838 0.960 . S
H851 C838 0.962 . S
H852 C838 0.960 . S
H853 C839 0.961 . S
H854 C839 0.961 . S
H855 C839 0.961 . S
H856 C840 0.931 . S
H857 C845 0.930 . S
H858 C846 0.956 . S
H859 C846 0.961 . S
H860 C846 0.961 . S
H861 C847 0.958 . S
H862 C847 0.961 . S
H863 C847 0.960 . S
C864 C865 1.391 . S
C864 C866 1.394 . S
C864 H880 0.931 . S
C865 C864 1.391 . S
C865 C869 1.376 . S
C866 C864 1.394 . S
C866 C867 1.369 . S
C866 C870 1.531 . S
C867 C866 1.369 . S
C867 C868 1.410 . S
C867 C875 1.503 1_655 S
C868 C867 1.410 . S
C868 C869 1.392 . S
C868 C871 1.511 . S
C869 C865 1.376 . S
C869 C868 1.392 . S
C869 H881 0.929 . S
C870 C866 1.531 . S
C870 H882 0.960 1_655 S
C870 H883 0.962 . S
C870 H884 0.960 . S
C871 C868 1.511 . S
C871 H885 0.961 . S
C871 H886 0.961 1_655 S
C871 H887 0.961 . S
C872 C873 1.370 . S
C872 C874 1.363 . S
C872 H888 0.931 . S
C873 C872 1.370 . S
C873 C877 1.408 . S
C874 C872 1.363 . S
C874 C875 1.370 . S
C874 C878 1.524 . S
C875 C867 1.503 1_455 S
C875 C874 1.370 . S
C875 C876 1.403 . S
C876 C875 1.403 . S
C876 C877 1.404 . S
C876 C879 1.539 . S
C877 C873 1.408 . S
C877 C876 1.404 . S
C877 H889 0.930 . S
C878 C874 1.524 . S
C878 H890 0.983 . S
C878 H891 0.918 1_455 S
C878 H892 0.961 . S
C879 C876 1.539 . S
C879 H893 0.958 . S
C879 H894 0.961 . S
C879 H895 0.969 . S
H880 C864 0.931 . S
H881 C869 0.929 . S
H882 C870 0.960 1_455 S
H883 C870 0.962 . S
H884 C870 0.960 . S
H885 C871 0.961 . S
H886 C871 0.961 1_455 S
H887 C871 0.961 . S
H888 C872 0.931 . S
H889 C877 0.930 . S
H890 C878 0.983 . S
H891 C878 0.918 1_655 S
H892 C878 0.961 . S
H893 C879 0.958 . S
H894 C879 0.961 . S
H895 C879 0.969 . S
C896 C897 1.391 . S
C896 C898 1.394 . S
C896 H912 0.931 . S
C897 C896 1.391 . S
C897 C901 1.376 . S
C898 C896 1.394 . S
C898 C899 1.369 . S
C898 C902 1.531 . S
C899 C898 1.369 . S
C899 C900 1.410 . S
C899 C907 1.503 . S
C900 C899 1.410 . S
C900 C901 1.392 . S
C900 C903 1.511 . S
C901 C897 1.376 . S
C901 C900 1.392 . S
C901 H913 0.929 . S
C902 C898 1.531 . S
C902 H914 0.960 . S
C902 H915 0.962 . S
C902 H916 0.960 . S
C903 C900 1.511 . S
C903 H917 0.961 . S
C903 H918 0.961 . S
C903 H919 0.961 . S
C904 C905 1.370 . S
C904 C906 1.363 . S
C904 H920 0.931 . S
C905 C904 1.370 . S
C905 C909 1.408 . S
C906 C904 1.363 . S
C906 C907 1.370 . S
C906 C910 1.524 . S
C907 C899 1.503 . S
C907 C906 1.370 . S
C907 C908 1.403 . S
C908 C907 1.403 . S
C908 C909 1.404 . S
C908 C911 1.539 . S
C909 C905 1.408 . S
C909 C908 1.404 . S
C909 H921 0.930 . S
C910 C906 1.524 . S
C910 H922 0.956 . S
C910 H923 0.961 . S
C910 H924 0.961 . S
C911 C908 1.539 . S
C911 H925 0.958 . S
C911 H926 0.961 . S
C911 H927 0.960 . S
H912 C896 0.931 . S
H913 C901 0.929 . S
H914 C902 0.960 . S
H915 C902 0.962 . S
H916 C902 0.960 . S
H917 C903 0.961 . S
H918 C903 0.961 . S
H919 C903 0.961 . S
H920 C904 0.931 . S
H921 C909 0.930 . S
H922 C910 0.956 . S
H923 C910 0.961 . S
H924 C910 0.961 . S
H925 C911 0.958 . S
H926 C911 0.961 . S
H927 C911 0.960 . S
C928 C929 1.391 . S
C928 C930 1.394 . S
C928 H944 0.931 . S
C929 C928 1.391 . S
C929 C933 1.376 . S
C930 C928 1.394 . S
C930 C931 1.369 . S
C930 C934 1.531 . S
C931 C930 1.369 . S
C931 C932 1.410 . S
C931 C939 1.503 . S
C932 C931 1.410 . S
C932 C933 1.392 . S
C932 C935 1.511 . S
C933 C929 1.376 . S
C933 C932 1.392 . S
C933 H945 0.929 . S
C934 C930 1.531 . S
C934 H946 0.960 . S
C934 H947 0.962 . S
C934 H948 0.960 . S
C935 C932 1.511 . S
C935 H949 0.961 . S
C935 H950 0.961 . S
C935 H951 0.961 . S
C936 C937 1.370 . S
C936 C938 1.363 . S
C936 H952 0.931 . S
C937 C936 1.370 . S
C937 C941 1.408 . S
C938 C936 1.363 . S
C938 C939 1.370 . S
C938 C942 1.524 . S
C939 C931 1.503 . S
C939 C938 1.370 . S
C939 C940 1.403 . S
C940 C939 1.403 . S
C940 C941 1.404 . S
C940 C943 1.539 . S
C941 C937 1.408 . S
C941 C940 1.404 . S
C941 H953 0.930 . S
C942 C938 1.524 . S
C942 H954 0.956 . S
C942 H955 0.961 . S
C942 H956 0.961 . S
C943 C940 1.539 . S
C943 H957 0.958 . S
C943 H958 0.961 . S
C943 H959 0.960 . S
H944 C928 0.931 . S
H945 C933 0.929 . S
H946 C934 0.960 . S
H947 C934 0.962 . S
H948 C934 0.960 . S
H949 C935 0.961 . S
H950 C935 0.961 . S
H951 C935 0.961 . S
H952 C936 0.931 . S
H953 C941 0.930 . S
H954 C942 0.956 . S
H955 C942 0.961 . S
H956 C942 0.961 . S
H957 C943 0.958 . S
H958 C943 0.961 . S
H959 C943 0.960 . S
C960 C961 1.391 . S
C960 C962 1.394 . S
C960 H976 0.931 . S
C961 C960 1.391 . S
C961 C965 1.376 . S
C962 C960 1.394 . S
C962 C963 1.369 . S
C962 C966 1.531 . S
C963 C962 1.369 . S
C963 C964 1.410 . S
C963 C971 1.503 1_455 S
C964 C963 1.410 . S
C964 C965 1.392 . S
C964 C967 1.511 . S
C965 C961 1.376 . S
C965 C964 1.392 . S
C965 H977 0.929 . S
C966 C962 1.531 . S
C966 H978 0.960 1_455 S
C966 H979 0.962 . S
C966 H980 0.960 . S
C967 C964 1.511 . S
C967 H981 0.961 . S
C967 H982 0.961 1_455 S
C967 H983 0.961 . S
C968 C969 1.370 . S
C968 C970 1.363 . S
C968 H984 0.931 . S
C969 C968 1.370 . S
C969 C973 1.408 . S
C970 C968 1.363 . S
C970 C971 1.370 . S
C970 C974 1.524 . S
C971 C963 1.503 1_655 S
C971 C970 1.370 . S
C971 C972 1.403 . S
C972 C971 1.403 . S
C972 C973 1.404 . S
C972 C975 1.539 . S
C973 C969 1.408 . S
C973 C972 1.404 . S
C973 H985 0.930 . S
C974 C970 1.524 . S
C974 H986 0.983 . S
C974 H987 0.918 1_655 S
C974 H988 0.961 . S
C975 C972 1.539 . S
C975 H989 0.958 . S
C975 H990 0.961 . S
C975 H991 0.968 . S
H976 C960 0.931 . S
H977 C965 0.929 . S
H978 C966 0.960 1_655 S
H979 C966 0.962 . S
H980 C966 0.960 . S
H981 C967 0.961 . S
H982 C967 0.961 1_655 S
H983 C967 0.961 . S
H984 C968 0.931 . S
H985 C973 0.930 . S
H986 C974 0.983 . S
H987 C974 0.918 1_455 S
H988 C974 0.961 . S
H989 C975 0.958 . S
H990 C975 0.961 . S
H991 C975 0.968 . S
C992 C993 1.391 . S
C992 C994 1.394 . S
C992 H1008 0.931 . S
C993 C992 1.391 . S
C993 C997 1.376 . S
C994 C992 1.394 . S
C994 C995 1.369 . S
C994 C998 1.531 . S
C995 C994 1.369 . S
C995 C996 1.410 . S
C995 C1003 1.503 . S
C996 C995 1.410 . S
C996 C997 1.392 . S
C996 C999 1.511 . S
C997 C993 1.376 . S
C997 C996 1.392 . S
C997 H1009 0.929 . S
C998 C994 1.531 . S
C998 H1010 0.960 . S
C998 H1011 0.962 . S
C998 H1012 0.960 . S
C999 C996 1.511 . S
C999 H1013 0.961 . S
C999 H1014 0.961 . S
C999 H1015 0.961 . S
C1000 C1001 1.370 . S
C1000 C1002 1.363 . S
C1000 H1016 0.931 . S
C1001 C1000 1.370 . S
C1001 C1005 1.408 . S
C1002 C1000 1.363 . S
C1002 C1003 1.370 . S
C1002 C1006 1.524 . S
C1003 C995 1.503 . S
C1003 C1002 1.370 . S
C1003 C1004 1.403 . S
C1004 C1003 1.403 . S
C1004 C1005 1.404 . S
C1004 C1007 1.539 . S
C1005 C1001 1.408 . S
C1005 C1004 1.404 . S
C1005 H1017 0.930 . S
C1006 C1002 1.524 . S
C1006 H1018 0.956 . S
C1006 H1019 0.961 . S
C1006 H1020 0.961 . S
C1007 C1004 1.539 . S
C1007 H1021 0.958 . S
C1007 H1022 0.961 . S
C1007 H1023 0.960 . S
H1008 C992 0.931 . S
H1009 C997 0.929 . S
H1010 C998 0.960 . S
H1011 C998 0.962 . S
H1012 C998 0.960 . S
H1013 C999 0.961 . S
H1014 C999 0.961 . S
H1015 C999 0.961 . S
H1016 C1000 0.931 . S
H1017 C1005 0.930 . S
H1018 C1006 0.956 . S
H1019 C1006 0.961 . S
H1020 C1006 0.961 . S
H1021 C1007 0.958 . S
H1022 C1007 0.961 . S
H1023 C1007 0.960 . S
C1024 C1025 1.391 . S
C1024 C1026 1.394 . S
C1024 H1040 0.931 . S
C1025 C1024 1.391 . S
C1025 C1029 1.376 . S
C1026 C1024 1.394 . S
C1026 C1027 1.369 . S
C1026 C1030 1.531 . S
C1027 C1026 1.369 . S
C1027 C1028 1.410 . S
C1027 C1035 1.503 1_655 S
C1028 C1027 1.410 . S
C1028 C1029 1.392 . S
C1028 C1031 1.511 . S
C1029 C1025 1.376 . S
C1029 C1028 1.392 . S
C1029 H1041 0.929 . S
C1030 C1026 1.531 . S
C1030 H1042 0.960 1_655 S
C1030 H1043 0.962 . S
C1030 H1044 0.960 . S
C1031 C1028 1.511 . S
C1031 H1045 0.961 . S
C1031 H1046 0.961 1_655 S
C1031 H1047 0.961 . S
C1032 C1033 1.370 . S
C1032 C1034 1.363 . S
C1032 H1048 0.931 . S
C1033 C1032 1.370 . S
C1033 C1037 1.408 . S
C1034 C1032 1.363 . S
C1034 C1035 1.370 . S
C1034 C1038 1.524 . S
C1035 C1027 1.503 1_455 S
C1035 C1034 1.370 . S
C1035 C1036 1.403 . S
C1036 C1035 1.403 . S
C1036 C1037 1.404 . S
C1036 C1039 1.539 . S
C1037 C1033 1.408 . S
C1037 C1036 1.404 . S
C1037 H1049 0.930 . S
C1038 C1034 1.524 . S
C1038 H1050 0.983 . S
C1038 H1051 0.918 1_455 S
C1038 H1052 0.961 . S
C1039 C1036 1.539 . S
C1039 H1053 0.958 . S
C1039 H1054 0.961 . S
C1039 H1055 0.968 . S
H1040 C1024 0.931 . S
H1041 C1029 0.929 . S
H1042 C1030 0.960 1_455 S
H1043 C1030 0.962 . S
H1044 C1030 0.960 . S
H1045 C1031 0.961 . S
H1046 C1031 0.961 1_455 S
H1047 C1031 0.961 . S
H1048 C1032 0.931 . S
H1049 C1037 0.930 . S
H1050 C1038 0.983 . S
H1051 C1038 0.918 1_655 S
H1052 C1038 0.961 . S
H1053 C1039 0.958 . S
H1054 C1039 0.961 . S
H1055 C1039 0.968 . S
C1056 C1057 1.391 . S
C1056 C1058 1.394 . S
C1056 H1072 0.931 . S
C1057 C1056 1.391 . S
C1057 C1061 1.376 . S
C1058 C1056 1.394 . S
C1058 C1059 1.369 . S
C1058 C1062 1.531 1_545 S
C1059 C1058 1.369 . S
C1059 C1060 1.410 . S
C1059 C1067 1.503 1_544 S
C1060 C1059 1.410 . S
C1060 C1061 1.392 . S
C1060 C1063 1.511 1_554 S
C1061 C1057 1.376 . S
C1061 C1060 1.392 . S
C1061 H1073 0.929 . S
C1062 C1058 1.531 1_565 S
C1062 H1074 0.960 . S
C1062 H1075 0.962 . S
C1062 H1076 0.960 . S
C1063 C1060 1.511 1_556 S
C1063 H1077 0.961 . S
C1063 H1078 0.961 . S
C1063 H1079 0.961 . S
C1064 C1065 1.370 . S
C1064 C1066 1.363 . S
C1064 H1080 0.931 . S
C1065 C1064 1.370 . S
C1065 C1069 1.408 . S
C1066 C1064 1.363 . S
C1066 C1067 1.370 . S
C1066 C1070 1.524 . S
C1067 C1059 1.503 1_566 S
C1067 C1066 1.370 . S
C1067 C1068 1.403 . S
C1068 C1067 1.403 . S
C1068 C1069 1.404 . S
C1068 C1071 1.539 . S
C1069 C1065 1.408 . S
C1069 C1068 1.404 . S
C1069 H1081 0.930 . S
C1070 C1066 1.524 . S
C1070 H1082 0.956 1_556 S
C1070 H1083 0.961 1_565 S
C1070 H1084 0.961 . S
C1071 C1068 1.539 . S
C1071 H1085 0.958 1_556 S
C1071 H1086 0.961 . S
C1071 H1087 0.945 1_565 S
H1072 C1056 0.931 . S
H1073 C1061 0.929 . S
H1074 C1062 0.960 . S
H1075 C1062 0.962 . S
H1076 C1062 0.960 . S
H1077 C1063 0.961 . S
H1078 C1063 0.961 . S
H1079 C1063 0.961 . S
H1080 C1064 0.931 . S
H1081 C1069 0.930 . S
H1082 C1070 0.956 1_554 S
H1083 C1070 0.961 1_545 S
H1084 C1070 0.961 . S
H1085 C1071 0.958 1_554 S
H1086 C1071 0.961 . S
H1087 C1071 0.945 1_545 S
C1088 C1089 1.391 . S
C1088 C1090 1.394 . S
C1088 H1104 0.931 . S
C1089 C1088 1.391 . S
C1089 C1093 1.376 . S
C1090 C1088 1.394 . S
C1090 C1091 1.369 . S
C1090 C1094 1.531 . S
C1091 C1090 1.369 . S
C1091 C1092 1.410 . S
C1091 C1099 1.503 1_565 S
C1092 C1091 1.410 . S
C1092 C1093 1.392 . S
C1092 C1095 1.511 1_565 S
C1093 C1089 1.376 . S
C1093 C1092 1.392 . S
C1093 H1105 0.929 . S
C1094 C1090 1.531 . S
C1094 H1106 0.960 . S
C1094 H1107 0.962 . S
C1094 H1108 0.960 . S
C1095 C1092 1.511 1_545 S
C1095 H1109 0.961 . S
C1095 H1110 0.961 . S
C1095 H1111 0.961 . S
C1096 C1097 1.370 . S
C1096 C1098 1.363 . S
C1096 H1112 0.931 . S
C1097 C1096 1.370 . S
C1097 C1101 1.408 . S
C1098 C1096 1.363 . S
C1098 C1099 1.370 . S
C1098 C1102 1.524 . S
C1099 C1091 1.503 1_545 S
C1099 C1098 1.370 . S
C1099 C1100 1.403 . S
C1100 C1099 1.403 . S
C1100 C1101 1.404 . S
C1100 C1103 1.539 1_545 S
C1101 C1097 1.408 . S
C1101 C1100 1.404 . S
C1101 H1113 0.930 . S
C1102 C1098 1.524 . S
C1102 H1114 0.956 . S
C1102 H1115 0.961 . S
C1102 H1116 0.961 . S
C1103 C1100 1.539 1_565 S
C1103 H1117 0.958 . S
C1103 H1118 0.961 . S
C1103 H1119 0.960 . S
H1104 C1088 0.931 . S
H1105 C1093 0.929 . S
H1106 C1094 0.960 . S
H1107 C1094 0.962 . S
H1108 C1094 0.960 . S
H1109 C1095 0.961 . S
H1110 C1095 0.961 . S
H1111 C1095 0.961 . S
H1112 C1096 0.931 . S
H1113 C1101 0.930 . S
H1114 C1102 0.956 . S
H1115 C1102 0.961 . S
H1116 C1102 0.961 . S
H1117 C1103 0.958 . S
H1118 C1103 0.961 . S
H1119 C1103 0.960 . S
C1120 C1121 1.391 . S
C1120 C1122 1.394 . S
C1120 H1136 0.931 . S
C1121 C1120 1.391 . S
C1121 C1125 1.376 . S
C1122 C1120 1.394 . S
C1122 C1123 1.369 . S
C1122 C1126 1.531 . S
C1123 C1122 1.369 . S
C1123 C1124 1.410 . S
C1123 C1131 1.503 1_566 S
C1124 C1123 1.410 . S
C1124 C1125 1.392 . S
C1124 C1127 1.511 . S
C1125 C1121 1.376 . S
C1125 C1124 1.392 . S
C1125 H1137 0.929 . S
C1126 C1122 1.531 . S
C1126 H1138 0.960 1_565 S
C1126 H1139 0.981 . S
C1126 H1140 0.960 . S
C1127 C1124 1.511 . S
C1127 H1141 0.961 . S
C1127 H1142 0.971 1_556 S
C1127 H1143 0.961 1_565 S
C1128 C1129 1.370 . S
C1128 C1130 1.363 . S
C1128 H1144 0.931 . S
C1129 C1128 1.370 . S
C1129 C1133 1.408 . S
C1130 C1128 1.363 . S
C1130 C1131 1.370 . S
C1130 C1134 1.524 1_545 S
C1131 C1123 1.503 1_544 S
C1131 C1130 1.370 . S
C1131 C1132 1.403 1_554 S
C1132 C1131 1.403 1_556 S
C1132 C1133 1.404 1_556 S
C1132 C1135 1.539 . S
C1133 C1129 1.408 . S
C1133 C1132 1.404 1_554 S
C1133 H1145 0.930 . S
C1134 C1130 1.524 1_565 S
C1134 H1146 0.956 . S
C1134 H1147 0.961 . S
C1134 H1148 0.961 . S
C1135 C1132 1.539 . S
C1135 H1149 0.958 . S
C1135 H1150 0.961 . S
C1135 H1151 0.960 . S
H1136 C1120 0.931 . S
H1137 C1125 0.929 . S
H1138 C1126 0.960 1_545 S
H1139 C1126 0.981 . S
H1140 C1126 0.960 . S
H1141 C1127 0.961 . S
H1142 C1127 0.971 1_554 S
H1143 C1127 0.961 1_545 S
H1144 C1128 0.931 . S
H1145 C1133 0.930 . S
H1146 C1134 0.956 . S
H1147 C1134 0.961 . S
H1148 C1134 0.961 . S
H1149 C1135 0.958 . S
H1150 C1135 0.961 . S
H1151 C1135 0.960 . S
C1152 C1153 1.391 . S
C1152 C1154 1.394 . S
C1152 H1168 0.931 . S
C1153 C1152 1.391 . S
C1153 C1157 1.376 . S
C1154 C1152 1.394 . S
C1154 C1155 1.369 . S
C1154 C1158 1.531 . S
C1155 C1154 1.369 . S
C1155 C1156 1.410 . S
C1155 C1163 1.503 1_545 S
C1156 C1155 1.410 . S
C1156 C1157 1.392 . S
C1156 C1159 1.511 . S
C1157 C1153 1.376 . S
C1157 C1156 1.392 . S
C1157 H1169 0.929 . S
C1158 C1154 1.531 . S
C1158 H1170 0.960 1_545 S
C1158 H1171 0.962 . S
C1158 H1172 0.960 . S
C1159 C1156 1.511 . S
C1159 H1173 0.961 . S
C1159 H1174 0.961 1_545 S
C1159 H1175 0.961 1_545 S
C1160 C1161 1.370 . S
C1160 C1162 1.363 . S
C1160 H1176 0.931 . S
C1161 C1160 1.370 . S
C1161 C1165 1.408 . S
C1162 C1160 1.363 . S
C1162 C1163 1.370 . S
C1162 C1166 1.524 1_565 S
C1163 C1155 1.503 1_565 S
C1163 C1162 1.370 . S
C1163 C1164 1.403 . S
C1164 C1163 1.403 . S
C1164 C1165 1.404 . S
C1164 C1167 1.539 . S
C1165 C1161 1.408 . S
C1165 C1164 1.404 . S
C1165 H1177 0.930 . S
C1166 C1162 1.524 1_545 S
C1166 H1178 0.956 . S
C1166 H1179 0.961 . S
C1166 H1180 0.961 . S
C1167 C1164 1.539 . S
C1167 H1181 0.958 . S
C1167 H1182 0.961 . S
C1167 H1183 0.960 . S
H1168 C1152 0.931 . S
H1169 C1157 0.929 . S
H1170 C1158 0.960 1_565 S
H1171 C1158 0.962 . S
H1172 C1158 0.960 . S
H1173 C1159 0.961 . S
H1174 C1159 0.961 1_565 S
H1175 C1159 0.961 1_565 S
H1176 C1160 0.931 . S
H1177 C1165 0.930 . S
H1178 C1166 0.956 . S
H1179 C1166 0.961 . S
H1180 C1166 0.961 . S
H1181 C1167 0.958 . S
H1182 C1167 0.961 . S
H1183 C1167 0.960 . S
C1184 C1185 1.391 . S
C1184 C1186 1.394 . S
C1184 H1200 0.931 . S
C1185 C1184 1.391 . S
C1185 C1189 1.376 . S
C1186 C1184 1.394 . S
C1186 C1187 1.369 . S
C1186 C1190 1.531 . S
C1187 C1186 1.369 . S
C1187 C1188 1.410 . S
C1187 C1195 1.503 1_554 S
C1188 C1187 1.410 . S
C1188 C1189 1.392 . S
C1188 C1191 1.511 1_554 S
C1189 C1185 1.376 . S
C1189 C1188 1.392 . S
C1189 H1201 0.929 . S
C1190 C1186 1.531 . S
C1190 H1202 0.960 . S
C1190 H1203 0.962 . S
C1190 H1204 0.960 . S
C1191 C1188 1.511 1_556 S
C1191 H1205 0.961 . S
C1191 H1206 0.961 . S
C1191 H1207 0.961 . S
C1192 C1193 1.370 . S
C1192 C1194 1.363 . S
C1192 H1208 0.931 . S
C1193 C1192 1.370 . S
C1193 C1197 1.408 . S
C1194 C1192 1.363 . S
C1194 C1195 1.370 . S
C1194 C1198 1.524 . S
C1195 C1187 1.503 1_556 S
C1195 C1194 1.370 . S
C1195 C1196 1.403 . S
C1196 C1195 1.403 . S
C1196 C1197 1.404 . S
C1196 C1199 1.539 . S
C1197 C1193 1.408 . S
C1197 C1196 1.404 . S
C1197 H1209 0.930 . S
C1198 C1194 1.524 . S
C1198 H1210 0.956 1_556 S
C1198 H1211 0.961 . S
C1198 H1212 0.961 . S
C1199 C1196 1.539 . S
C1199 H1213 0.958 1_556 S
C1199 H1214 0.961 . S
C1199 H1215 0.959 . S
H1200 C1184 0.931 . S
H1201 C1189 0.929 . S
H1202 C1190 0.960 . S
H1203 C1190 0.962 . S
H1204 C1190 0.960 . S
H1205 C1191 0.961 . S
H1206 C1191 0.961 . S
H1207 C1191 0.961 . S
H1208 C1192 0.931 . S
H1209 C1197 0.930 . S
H1210 C1198 0.956 1_554 S
H1211 C1198 0.961 . S
H1212 C1198 0.961 . S
H1213 C1199 0.958 1_554 S
H1214 C1199 0.961 . S
H1215 C1199 0.959 . S
C1216 C1217 1.391 . S
C1216 C1218 1.394 . S
C1216 H1232 0.931 . S
C1217 C1216 1.391 . S
C1217 C1221 1.376 . S
C1218 C1216 1.394 . S
C1218 C1219 1.369 . S
C1218 C1222 1.531 . S
C1219 C1218 1.369 . S
C1219 C1220 1.410 . S
C1219 C1227 1.503 . S
C1220 C1219 1.410 . S
C1220 C1221 1.392 . S
C1220 C1223 1.511 . S
C1221 C1217 1.376 . S
C1221 C1220 1.392 . S
C1221 H1233 0.929 . S
C1222 C1218 1.531 . S
C1222 H1234 0.960 . S
C1222 H1235 0.962 . S
C1222 H1236 0.960 . S
C1223 C1220 1.511 . S
C1223 H1237 0.961 . S
C1223 H1238 0.961 . S
C1223 H1239 0.961 . S
C1224 C1225 1.370 . S
C1224 C1226 1.363 . S
C1224 H1240 0.931 . S
C1225 C1224 1.370 . S
C1225 C1229 1.408 . S
C1226 C1224 1.363 . S
C1226 C1227 1.370 . S
C1226 C1230 1.524 . S
C1227 C1219 1.503 . S
C1227 C1226 1.370 . S
C1227 C1228 1.403 . S
C1228 C1227 1.403 . S
C1228 C1229 1.404 . S
C1228 C1231 1.539 . S
C1229 C1225 1.408 . S
C1229 C1228 1.404 . S
C1229 H1241 0.930 . S
C1230 C1226 1.524 . S
C1230 H1242 0.956 . S
C1230 H1243 0.961 . S
C1230 H1244 0.961 . S
C1231 C1228 1.539 . S
C1231 H1245 0.958 . S
C1231 H1246 0.961 . S
C1231 H1247 0.960 . S
H1232 C1216 0.931 . S
H1233 C1221 0.929 . S
H1234 C1222 0.960 . S
H1235 C1222 0.962 . S
H1236 C1222 0.960 . S
H1237 C1223 0.961 . S
H1238 C1223 0.961 . S
H1239 C1223 0.961 . S
H1240 C1224 0.931 . S
H1241 C1229 0.930 . S
H1242 C1230 0.956 . S
H1243 C1230 0.961 . S
H1244 C1230 0.961 . S
H1245 C1231 0.958 . S
H1246 C1231 0.961 . S
H1247 C1231 0.960 . S
C1248 C1249 1.391 . S
C1248 C1250 1.394 . S
C1248 H1264 0.931 . S
C1249 C1248 1.391 . S
C1249 C1253 1.376 . S
C1250 C1248 1.394 . S
C1250 C1251 1.369 . S
C1250 C1254 1.531 . S
C1251 C1250 1.369 . S
C1251 C1252 1.410 . S
C1251 C1259 1.503 1_556 S
C1252 C1251 1.410 . S
C1252 C1253 1.392 . S
C1252 C1255 1.511 1_556 S
C1253 C1249 1.376 . S
C1253 C1252 1.392 . S
C1253 H1265 0.929 . S
C1254 C1250 1.531 . S
C1254 H1266 0.960 . S
C1254 H1267 0.962 . S
C1254 H1268 0.960 . S
C1255 C1252 1.511 1_554 S
C1255 H1269 0.961 . S
C1255 H1270 0.961 . S
C1255 H1271 0.961 . S
C1256 C1257 1.370 . S
C1256 C1258 1.363 . S
C1256 H1272 0.931 . S
C1257 C1256 1.370 . S
C1257 C1261 1.408 . S
C1258 C1256 1.363 . S
C1258 C1259 1.370 . S
C1258 C1262 1.524 . S
C1259 C1251 1.503 1_554 S
C1259 C1258 1.370 . S
C1259 C1260 1.403 . S
C1260 C1259 1.403 . S
C1260 C1261 1.404 . S
C1260 C1263 1.539 1_554 S
C1261 C1257 1.408 . S
C1261 C1260 1.404 . S
C1261 H1273 0.930 . S
C1262 C1258 1.524 . S
C1262 H1274 0.956 . S
C1262 H1275 0.961 . S
C1262 H1276 0.961 . S
C1263 C1260 1.539 1_556 S
C1263 H1277 0.958 . S
C1263 H1278 0.961 . S
C1263 H1279 0.960 . S
H1264 C1248 0.931 . S
H1265 C1253 0.929 . S
H1266 C1254 0.960 . S
H1267 C1254 0.962 . S
H1268 C1254 0.960 . S
H1269 C1255 0.961 . S
H1270 C1255 0.961 . S
H1271 C1255 0.961 . S
H1272 C1256 0.931 . S
H1273 C1261 0.930 . S
H1274 C1262 0.956 . S
H1275 C1262 0.961 . S
H1276 C1262 0.961 . S
H1277 C1263 0.958 . S
H1278 C1263 0.961 . S
H1279 C1263 0.960 . S
C1280 C1281 1.391 . S
C1280 C1282 1.394 . S
C1280 H1296 0.931 . S
C1281 C1280 1.391 . S
C1281 C1285 1.376 . S
C1282 C1280 1.394 . S
C1282 C1283 1.369 . S
C1282 C1286 1.531 . S
C1283 C1282 1.369 . S
C1283 C1284 1.410 . S
C1283 C1291 1.503 . S
C1284 C1283 1.410 . S
C1284 C1285 1.392 . S
C1284 C1287 1.511 . S
C1285 C1281 1.376 . S
C1285 C1284 1.392 . S
C1285 H1297 0.929 . S
C1286 C1282 1.531 . S
C1286 H1298 0.960 . S
C1286 H1299 0.962 . S
C1286 H1300 0.960 . S
C1287 C1284 1.511 . S
C1287 H1301 0.961 . S
C1287 H1302 0.961 . S
C1287 H1303 0.961 . S
C1288 C1289 1.370 . S
C1288 C1290 1.363 . S
C1288 H1304 0.931 . S
C1289 C1288 1.370 . S
C1289 C1293 1.408 . S
C1290 C1288 1.363 . S
C1290 C1291 1.370 . S
C1290 C1294 1.524 . S
C1291 C1283 1.503 . S
C1291 C1290 1.370 . S
C1291 C1292 1.403 . S
C1292 C1291 1.403 . S
C1292 C1293 1.404 . S
C1292 C1295 1.539 . S
C1293 C1289 1.408 . S
C1293 C1292 1.404 . S
C1293 H1305 0.930 . S
C1294 C1290 1.524 . S
C1294 H1306 0.956 . S
C1294 H1307 0.961 . S
C1294 H1308 0.961 . S
C1295 C1292 1.539 . S
C1295 H1309 0.958 . S
C1295 H1310 0.961 . S
C1295 H1311 0.960 . S
H1296 C1280 0.931 . S
H1297 C1285 0.929 . S
H1298 C1286 0.960 . S
H1299 C1286 0.962 . S
H1300 C1286 0.960 . S
H1301 C1287 0.961 . S
H1302 C1287 0.961 . S
H1303 C1287 0.961 . S
H1304 C1288 0.931 . S
H1305 C1293 0.930 . S
H1306 C1294 0.956 . S
H1307 C1294 0.961 . S
H1308 C1294 0.961 . S
H1309 C1295 0.958 . S
H1310 C1295 0.961 . S
H1311 C1295 0.960 . S
C1312 C1313 1.391 . S
C1312 C1314 1.394 . S
C1312 H1328 0.931 . S
C1313 C1312 1.391 . S
C1313 C1317 1.376 . S
C1314 C1312 1.394 . S
C1314 C1315 1.369 . S
C1314 C1318 1.531 . S
C1315 C1314 1.369 . S
C1315 C1316 1.410 . S
C1315 C1323 1.503 . S
C1316 C1315 1.410 . S
C1316 C1317 1.392 . S
C1316 C1319 1.511 . S
C1317 C1313 1.376 . S
C1317 C1316 1.392 . S
C1317 H1329 0.929 . S
C1318 C1314 1.531 . S
C1318 H1330 0.960 . S
C1318 H1331 0.962 . S
C1318 H1332 0.960 . S
C1319 C1316 1.511 . S
C1319 H1333 0.961 . S
C1319 H1334 0.961 . S
C1319 H1335 0.961 . S
C1320 C1321 1.370 . S
C1320 C1322 1.363 1_554 S
C1320 H1336 0.931 . S
C1321 C1320 1.370 . S
C1321 C1325 1.408 1_554 S
C1322 C1320 1.363 1_556 S
C1322 C1323 1.370 . S
C1322 C1326 1.524 . S
C1323 C1315 1.503 . S
C1323 C1322 1.370 . S
C1323 C1324 1.403 . S
C1324 C1323 1.403 . S
C1324 C1325 1.404 . S
C1324 C1327 1.539 . S
C1325 C1321 1.408 1_556 S
C1325 C1324 1.404 . S
C1325 H1337 0.930 . S
C1326 C1322 1.524 . S
C1326 H1338 0.956 . S
C1326 H1339 0.961 . S
C1326 H1340 0.961 1_556 S
C1327 C1324 1.539 . S
C1327 H1341 0.958 . S
C1327 H1342 0.961 . S
C1327 H1343 0.960 . S
H1328 C1312 0.931 . S
H1329 C1317 0.929 . S
H1330 C1318 0.960 . S
H1331 C1318 0.962 . S
H1332 C1318 0.960 . S
H1333 C1319 0.961 . S
H1334 C1319 0.961 . S
H1335 C1319 0.961 . S
H1336 C1320 0.931 . S
H1337 C1325 0.930 . S
H1338 C1326 0.956 . S
H1339 C1326 0.961 . S
H1340 C1326 0.961 1_554 S
H1341 C1327 0.958 . S
H1342 C1327 0.961 . S
H1343 C1327 0.960 . S
C1344 C1345 1.391 . S
C1344 C1346 1.394 . S
C1344 H1360 0.931 . S
C1345 C1344 1.391 . S
C1345 C1349 1.376 . S
C1346 C1344 1.394 . S
C1346 C1347 1.369 . S
C1346 C1350 1.531 . S
C1347 C1346 1.369 . S
C1347 C1348 1.410 . S
C1347 C1355 1.503 . S
C1348 C1347 1.410 . S
C1348 C1349 1.392 . S
C1348 C1351 1.511 . S
C1349 C1345 1.376 . S
C1349 C1348 1.392 . S
C1349 H1361 0.929 . S
C1350 C1346 1.531 . S
C1350 H1362 0.960 . S
C1350 H1363 0.962 . S
C1350 H1364 0.960 . S
C1351 C1348 1.511 . S
C1351 H1365 0.961 . S
C1351 H1366 0.961 . S
C1351 H1367 0.961 . S
C1352 C1353 1.370 . S
C1352 C1354 1.363 . S
C1352 H1368 0.931 . S
C1353 C1352 1.370 . S
C1353 C1357 1.408 . S
C1354 C1352 1.363 . S
C1354 C1355 1.370 . S
C1354 C1358 1.524 . S
C1355 C1347 1.503 . S
C1355 C1354 1.370 . S
C1355 C1356 1.403 . S
C1356 C1355 1.403 . S
C1356 C1357 1.404 . S
C1356 C1359 1.539 . S
C1357 C1353 1.408 . S
C1357 C1356 1.404 . S
C1357 H1369 0.930 . S
C1358 C1354 1.524 . S
C1358 H1370 0.956 . S
C1358 H1371 0.961 . S
C1358 H1372 0.961 . S
C1359 C1356 1.539 . S
C1359 H1373 0.958 . S
C1359 H1374 0.961 . S
C1359 H1375 0.960 . S
H1360 C1344 0.931 . S
H1361 C1349 0.929 . S
H1362 C1350 0.960 . S
H1363 C1350 0.962 . S
H1364 C1350 0.960 . S
H1365 C1351 0.961 . S
H1366 C1351 0.961 . S
H1367 C1351 0.961 . S
H1368 C1352 0.931 . S
H1369 C1357 0.930 . S
H1370 C1358 0.956 . S
H1371 C1358 0.961 . S
H1372 C1358 0.961 . S
H1373 C1359 0.958 . S
H1374 C1359 0.961 . S
H1375 C1359 0.960 . S
C1376 C1377 1.391 . S
C1376 C1378 1.394 1_556 S
C1376 H1392 0.931 . S
C1377 C1376 1.391 . S
C1377 C1381 1.376 1_556 S
C1378 C1376 1.394 1_554 S
C1378 C1379 1.369 . S
C1378 C1382 1.531 . S
C1379 C1378 1.369 . S
C1379 C1380 1.410 . S
C1379 C1387 1.503 . S
C1380 C1379 1.410 . S
C1380 C1381 1.392 . S
C1380 C1383 1.511 . S
C1381 C1377 1.376 1_554 S
C1381 C1380 1.392 . S
C1381 H1393 0.929 . S
C1382 C1378 1.531 . S
C1382 H1394 0.960 . S
C1382 H1395 0.962 . S
C1382 H1396 0.960 1_554 S
C1383 C1380 1.511 . S
C1383 H1397 0.961 . S
C1383 H1398 0.961 . S
C1383 H1399 0.961 . S
C1384 C1385 1.370 . S
C1384 C1386 1.363 . S
C1384 H1400 0.931 . S
C1385 C1384 1.370 . S
C1385 C1389 1.408 . S
C1386 C1384 1.363 . S
C1386 C1387 1.370 . S
C1386 C1390 1.524 . S
C1387 C1379 1.503 . S
C1387 C1386 1.370 . S
C1387 C1388 1.403 . S
C1388 C1387 1.403 . S
C1388 C1389 1.404 . S
C1388 C1391 1.539 . S
C1389 C1385 1.408 . S
C1389 C1388 1.404 . S
C1389 H1401 0.930 . S
C1390 C1386 1.524 . S
C1390 H1402 0.956 . S
C1390 H1403 0.961 . S
C1390 H1404 0.961 . S
C1391 C1388 1.539 . S
C1391 H1405 0.958 . S
C1391 H1406 0.961 . S
C1391 H1407 0.960 . S
H1392 C1376 0.931 . S
H1393 C1381 0.929 . S
H1394 C1382 0.960 . S
H1395 C1382 0.962 . S
H1396 C1382 0.960 1_556 S
H1397 C1383 0.961 . S
H1398 C1383 0.961 . S
H1399 C1383 0.961 . S
H1400 C1384 0.931 . S
H1401 C1389 0.930 . S
H1402 C1390 0.956 . S
H1403 C1390 0.961 . S
H1404 C1390 0.961 . S
H1405 C1391 0.958 . S
H1406 C1391 0.961 . S
H1407 C1391 0.960 . S
C1408 C1409 1.391 . S
C1408 C1410 1.394 . S
C1408 H1424 0.931 . S
C1409 C1408 1.391 . S
C1409 C1413 1.376 . S
C1410 C1408 1.394 . S
C1410 C1411 1.369 . S
C1410 C1414 1.531 . S
C1411 C1410 1.369 . S
C1411 C1412 1.410 . S
C1411 C1419 1.503 . S
C1412 C1411 1.410 . S
C1412 C1413 1.392 . S
C1412 C1415 1.511 . S
C1413 C1409 1.376 . S
C1413 C1412 1.392 . S
C1413 H1425 0.929 . S
C1414 C1410 1.531 . S
C1414 H1426 0.960 . S
C1414 H1427 0.962 . S
C1414 H1428 0.960 . S
C1415 C1412 1.511 . S
C1415 H1429 0.961 . S
C1415 H1430 0.961 . S
C1415 H1431 0.961 . S
C1416 C1417 1.370 . S
C1416 C1418 1.363 . S
C1416 H1432 0.931 . S
C1417 C1416 1.370 . S
C1417 C1421 1.408 . S
C1418 C1416 1.363 . S
C1418 C1419 1.370 . S
C1418 C1422 1.524 . S
C1419 C1411 1.503 . S
C1419 C1418 1.370 . S
C1419 C1420 1.403 . S
C1420 C1419 1.403 . S
C1420 C1421 1.404 . S
C1420 C1423 1.539 . S
C1421 C1417 1.408 . S
C1421 C1420 1.404 . S
C1421 H1433 0.930 . S
C1422 C1418 1.524 . S
C1422 H1434 0.956 . S
C1422 H1435 0.961 . S
C1422 H1436 0.961 . S
C1423 C1420 1.539 . S
C1423 H1437 0.958 . S
C1423 H1438 0.961 . S
C1423 H1439 0.960 . S
H1424 C1408 0.931 . S
H1425 C1413 0.929 . S
H1426 C1414 0.960 . S
H1427 C1414 0.962 . S
H1428 C1414 0.960 . S
H1429 C1415 0.961 . S
H1430 C1415 0.961 . S
H1431 C1415 0.961 . S
H1432 C1416 0.931 . S
H1433 C1421 0.930 . S
H1434 C1422 0.956 . S
H1435 C1422 0.961 . S
H1436 C1422 0.961 . S
H1437 C1423 0.958 . S
H1438 C1423 0.961 . S
H1439 C1423 0.960 . S
C1440 C1441 1.391 . S
C1440 C1442 1.394 . S
C1440 H1456 0.931 . S
C1441 C1440 1.391 . S
C1441 C1445 1.376 . S
C1442 C1440 1.394 . S
C1442 C1443 1.369 . S
C1442 C1446 1.531 . S
C1443 C1442 1.369 . S
C1443 C1444 1.410 . S
C1443 C1451 1.503 . S
C1444 C1443 1.410 . S
C1444 C1445 1.392 . S
C1444 C1447 1.511 . S
C1445 C1441 1.376 . S
C1445 C1444 1.392 . S
C1445 H1457 0.929 . S
C1446 C1442 1.531 . S
C1446 H1458 0.960 . S
C1446 H1459 0.962 . S
C1446 H1460 0.960 . S
C1447 C1444 1.511 . S
C1447 H1461 0.961 . S
C1447 H1462 0.961 . S
C1447 H1463 0.961 . S
C1448 C1449 1.370 1_554 S
C1448 C1450 1.363 . S
C1448 H1464 0.931 . S
C1449 C1448 1.370 1_556 S
C1449 C1453 1.408 . S
C1450 C1448 1.363 . S
C1450 C1451 1.370 . S
C1450 C1454 1.524 . S
C1451 C1443 1.503 . S
C1451 C1450 1.370 . S
C1451 C1452 1.403 . S
C1452 C1451 1.403 . S
C1452 C1453 1.404 1_554 S
C1452 C1455 1.539 . S
C1453 C1449 1.408 . S
C1453 C1452 1.404 1_556 S
C1453 H1465 0.930 . S
C1454 C1450 1.524 . S
C1454 H1466 0.956 . S
C1454 H1467 0.961 . S
C1454 H1468 0.961 . S
C1455 C1452 1.539 . S
C1455 H1469 0.959 . S
C1455 H1470 0.961 . S
C1455 H1471 0.960 . S
H1456 C1440 0.931 . S
H1457 C1445 0.929 . S
H1458 C1446 0.960 . S
H1459 C1446 0.962 . S
H1460 C1446 0.960 . S
H1461 C1447 0.961 . S
H1462 C1447 0.961 . S
H1463 C1447 0.961 . S
H1464 C1448 0.931 . S
H1465 C1453 0.930 . S
H1466 C1454 0.956 . S
H1467 C1454 0.961 . S
H1468 C1454 0.961 . S
H1469 C1455 0.959 . S
H1470 C1455 0.961 . S
H1471 C1455 0.960 . S
C1472 C1473 1.391 . S
C1472 C1474 1.394 . S
C1472 H1488 0.931 . S
C1473 C1472 1.391 . S
C1473 C1477 1.376 . S
C1474 C1472 1.394 . S
C1474 C1475 1.369 . S
C1474 C1478 1.531 . S
C1475 C1474 1.369 . S
C1475 C1476 1.410 . S
C1475 C1483 1.503 . S
C1476 C1475 1.410 . S
C1476 C1477 1.392 . S
C1476 C1479 1.511 . S
C1477 C1473 1.376 . S
C1477 C1476 1.392 . S
C1477 H1489 0.929 . S
C1478 C1474 1.531 . S
C1478 H1490 0.960 . S
C1478 H1491 0.962 . S
C1478 H1492 0.960 . S
C1479 C1476 1.511 . S
C1479 H1493 0.961 . S
C1479 H1494 0.961 . S
C1479 H1495 0.961 . S
C1480 C1481 1.370 . S
C1480 C1482 1.363 . S
C1480 H1496 0.931 . S
C1481 C1480 1.370 . S
C1481 C1485 1.408 . S
C1482 C1480 1.363 . S
C1482 C1483 1.370 . S
C1482 C1486 1.524 . S
C1483 C1475 1.503 . S
C1483 C1482 1.370 . S
C1483 C1484 1.403 . S
C1484 C1483 1.403 . S
C1484 C1485 1.404 . S
C1484 C1487 1.539 . S
C1485 C1481 1.408 . S
C1485 C1484 1.404 . S
C1485 H1497 0.930 . S
C1486 C1482 1.524 . S
C1486 H1498 0.956 . S
C1486 H1499 0.961 . S
C1486 H1500 0.961 . S
C1487 C1484 1.539 . S
C1487 H1501 0.958 . S
C1487 H1502 0.961 . S
C1487 H1503 0.960 . S
H1488 C1472 0.931 . S
H1489 C1477 0.929 . S
H1490 C1478 0.960 . S
H1491 C1478 0.962 . S
H1492 C1478 0.960 . S
H1493 C1479 0.961 . S
H1494 C1479 0.961 . S
H1495 C1479 0.961 . S
H1496 C1480 0.931 . S
H1497 C1485 0.930 . S
H1498 C1486 0.956 . S
H1499 C1486 0.961 . S
H1500 C1486 0.961 . S
H1501 C1487 0.958 . S
H1502 C1487 0.961 . S
H1503 C1487 0.960 . S
C1504 C1505 1.391 . S
C1504 C1506 1.394 1_554 S
C1504 H1520 0.931 . S
C1505 C1504 1.391 . S
C1505 C1509 1.376 . S
C1506 C1504 1.394 1_556 S
C1506 C1507 1.369 . S
C1506 C1510 1.531 . S
C1507 C1506 1.369 . S
C1507 C1508 1.410 . S
C1507 C1515 1.503 . S
C1508 C1507 1.410 . S
C1508 C1509 1.392 1_556 S
C1508 C1511 1.511 . S
C1509 C1505 1.376 . S
C1509 C1508 1.392 1_554 S
C1509 H1521 0.929 . S
C1510 C1506 1.531 . S
C1510 H1522 0.960 . S
C1510 H1523 0.962 . S
C1510 H1524 0.960 . S
C1511 C1508 1.511 . S
C1511 H1525 0.961 . S
C1511 H1526 0.961 . S
C1511 H1527 0.961 . S
C1512 C1513 1.370 . S
C1512 C1514 1.363 . S
C1512 H1528 0.931 . S
C1513 C1512 1.370 . S
C1513 C1517 1.408 . S
C1514 C1512 1.363 . S
C1514 C1515 1.370 . S
C1514 C1518 1.524 . S
C1515 C1507 1.503 . S
C1515 C1514 1.370 . S
C1515 C1516 1.403 . S
C1516 C1515 1.403 . S
C1516 C1517 1.404 . S
C1516 C1519 1.539 . S
C1517 C1513 1.408 . S
C1517 C1516 1.404 . S
C1517 H1529 0.930 . S
C1518 C1514 1.524 . S
C1518 H1530 0.956 . S
C1518 H1531 0.961 . S
C1518 H1532 0.961 . S
C1519 C1516 1.539 . S
C1519 H1533 0.958 . S
C1519 H1534 0.961 . S
C1519 H1535 0.960 . S
H1520 C1504 0.931 . S
H1521 C1509 0.929 . S
H1522 C1510 0.960 . S
H1523 C1510 0.962 . S
H1524 C1510 0.960 . S
H1525 C1511 0.961 . S
H1526 C1511 0.961 . S
H1527 C1511 0.961 . S
H1528 C1512 0.931 . S
H1529 C1517 0.930 . S
H1530 C1518 0.956 . S
H1531 C1518 0.961 . S
H1532 C1518 0.961 . S
H1533 C1519 0.958 . S
H1534 C1519 0.961 . S
H1535 C1519 0.960 . S
C1536 C1537 1.391 . S
C1536 C1538 1.394 . S
C1536 H1552 0.931 . S
C1537 C1536 1.391 . S
C1537 C1541 1.376 . S
C1538 C1536 1.394 . S
C1538 C1539 1.369 . S
C1538 C1542 1.531 . S
C1539 C1538 1.369 . S
C1539 C1540 1.410 . S
C1539 C1547 1.503 . S
C1540 C1539 1.410 . S
C1540 C1541 1.392 . S
C1540 C1543 1.511 . S
C1541 C1537 1.376 . S
C1541 C1540 1.392 . S
C1541 H1553 0.929 . S
C1542 C1538 1.531 . S
C1542 H1554 0.960 . S
C1542 H1555 0.962 . S
C1542 H1556 0.960 . S
C1543 C1540 1.511 . S
C1543 H1557 0.961 . S
C1543 H1558 0.961 . S
C1543 H1559 0.961 . S
C1544 C1545 1.370 . S
C1544 C1546 1.363 . S
C1544 H1560 0.931 . S
C1545 C1544 1.370 . S
C1545 C1549 1.408 . S
C1546 C1544 1.363 . S
C1546 C1547 1.370 . S
C1546 C1550 1.524 . S
C1547 C1539 1.503 . S
C1547 C1546 1.370 . S
C1547 C1548 1.403 . S
C1548 C1547 1.403 . S
C1548 C1549 1.404 . S
C1548 C1551 1.539 . S
C1549 C1545 1.408 . S
C1549 C1548 1.404 . S
C1549 H1561 0.930 . S
C1550 C1546 1.524 . S
C1550 H1562 0.956 . S
C1550 H1563 0.961 . S
C1550 H1564 0.961 . S
C1551 C1548 1.539 . S
C1551 H1565 0.958 . S
C1551 H1566 0.961 . S
C1551 H1567 0.960 . S
H1552 C1536 0.931 . S
H1553 C1541 0.929 . S
H1554 C1542 0.960 . S
H1555 C1542 0.962 . S
H1556 C1542 0.960 . S
H1557 C1543 0.961 . S
H1558 C1543 0.961 . S
H1559 C1543 0.961 . S
H1560 C1544 0.931 . S
H1561 C1549 0.930 . S
H1562 C1550 0.956 . S
H1563 C1550 0.961 . S
H1564 C1550 0.961 . S
H1565 C1551 0.958 . S
H1566 C1551 0.961 . S
H1567 C1551 0.960 . S
C1568 C1569 1.391 1_556 S
C1568 C1570 1.394 . S
C1568 H1584 0.931 . S
C1569 C1568 1.391 1_554 S
C1569 C1573 1.376 . S
C1570 C1568 1.394 . S
C1570 C1571 1.369 . S
C1570 C1574 1.531 . S
C1571 C1570 1.369 . S
C1571 C1572 1.410 . S
C1571 C1579 1.503 . S
C1572 C1571 1.410 . S
C1572 C1573 1.392 1_556 S
C1572 C1575 1.511 . S
C1573 C1569 1.376 . S
C1573 C1572 1.392 1_554 S
C1573 H1585 0.929 . S
C1574 C1570 1.531 . S
C1574 H1586 0.960 . S
C1574 H1587 0.962 . S
C1574 H1588 0.960 . S
C1575 C1572 1.511 . S
C1575 H1589 0.961 1_556 S
C1575 H1590 0.961 . S
C1575 H1591 0.961 1_556 S
C1576 C1577 1.370 . S
C1576 C1578 1.363 . S
C1576 H1592 0.931 . S
C1577 C1576 1.370 . S
C1577 C1581 1.408 . S
C1578 C1576 1.363 . S
C1578 C1579 1.370 . S
C1578 C1582 1.524 . S
C1579 C1571 1.503 . S
C1579 C1578 1.370 . S
C1579 C1580 1.403 . S
C1580 C1579 1.403 . S
C1580 C1581 1.404 . S
C1580 C1583 1.539 . S
C1581 C1577 1.408 . S
C1581 C1580 1.404 . S
C1581 H1593 0.930 . S
C1582 C1578 1.524 . S
C1582 H1594 0.956 . S
C1582 H1595 0.961 . S
C1582 H1596 0.961 . S
C1583 C1580 1.539 . S
C1583 H1597 0.958 . S
C1583 H1598 0.961 . S
C1583 H1599 0.960 . S
H1584 C1568 0.931 . S
H1585 C1573 0.929 . S
H1586 C1574 0.960 . S
H1587 C1574 0.962 . S
H1588 C1574 0.960 . S
H1589 C1575 0.961 1_554 S
H1590 C1575 0.961 . S
H1591 C1575 0.961 1_554 S
H1592 C1576 0.931 . S
H1593 C1581 0.930 . S
H1594 C1582 0.956 . S
H1595 C1582 0.961 . S
H1596 C1582 0.961 . S
H1597 C1583 0.958 . S
H1598 C1583 0.961 . S
H1599 C1583 0.960 . S
C1600 C1601 1.391 . S
C1600 C1602 1.394 . S
C1600 H1616 0.931 . S
C1601 C1600 1.391 . S
C1601 C1605 1.376 . S
C1602 C1600 1.394 . S
C1602 C1603 1.369 . S
C1602 C1606 1.531 . S
C1603 C1602 1.369 . S
C1603 C1604 1.410 . S
C1603 C1611 1.503 . S
C1604 C1603 1.410 . S
C1604 C1605 1.392 . S
C1604 C1607 1.511 . S
C1605 C1601 1.376 . S
C1605 C1604 1.392 . S
C1605 H1617 0.929 . S
C1606 C1602 1.531 . S
C1606 H1618 0.960 . S
C1606 H1619 0.962 . S
C1606 H1620 0.960 . S
C1607 C1604 1.511 . S
C1607 H1621 0.961 . S
C1607 H1622 0.961 . S
C1607 H1623 0.961 . S
C1608 C1609 1.370 . S
C1608 C1610 1.363 . S
C1608 H1624 0.931 . S
C1609 C1608 1.370 . S
C1609 C1613 1.408 . S
C1610 C1608 1.363 . S
C1610 C1611 1.370 . S
C1610 C1614 1.524 . S
C1611 C1603 1.503 . S
C1611 C1610 1.370 . S
C1611 C1612 1.403 . S
C1612 C1611 1.403 . S
C1612 C1613 1.404 . S
C1612 C1615 1.539 . S
C1613 C1609 1.408 . S
C1613 C1612 1.404 . S
C1613 H1625 0.930 . S
C1614 C1610 1.524 . S
C1614 H1626 0.956 . S
C1614 H1627 0.961 . S
C1614 H1628 0.961 . S
C1615 C1612 1.539 . S
C1615 H1629 0.958 . S
C1615 H1630 0.961 . S
C1615 H1631 0.960 . S
H1616 C1600 0.931 . S
H1617 C1605 0.929 . S
H1618 C1606 0.960 . S
H1619 C1606 0.962 . S
H1620 C1606 0.960 . S
H1621 C1607 0.961 . S
H1622 C1607 0.961 . S
H1623 C1607 0.961 . S
H1624 C1608 0.931 . S
H1625 C1613 0.930 . S
H1626 C1614 0.956 . S
H1627 C1614 0.961 . S
H1628 C1614 0.961 . S
H1629 C1615 0.958 . S
H1630 C1615 0.961 . S
H1631 C1615 0.960 . S
C1632 C1633 1.391 . S
C1632 C1634 1.394 . S
C1632 H1648 0.931 . S
C1633 C1632 1.391 . S
C1633 C1637 1.376 . S
C1634 C1632 1.394 . S
C1634 C1635 1.369 . S
C1634 C1638 1.531 . S
C1635 C1634 1.369 . S
C1635 C1636 1.410 . S
C1635 C1643 1.503 . S
C1636 C1635 1.410 . S
C1636 C1637 1.392 . S
C1636 C1639 1.511 . S
C1637 C1633 1.376 . S
C1637 C1636 1.392 . S
C1637 H1649 0.929 . S
C1638 C1634 1.531 . S
C1638 H1650 0.960 . S
C1638 H1651 0.962 . S
C1638 H1652 0.960 . S
C1639 C1636 1.511 . S
C1639 H1653 0.961 . S
C1639 H1654 0.961 . S
C1639 H1655 0.961 . S
C1640 C1641 1.370 . S
C1640 C1642 1.363 1_556 S
C1640 H1656 0.931 . S
C1641 C1640 1.370 . S
C1641 C1645 1.408 1_556 S
C1642 C1640 1.363 1_554 S
C1642 C1643 1.370 . S
C1642 C1646 1.524 . S
C1643 C1635 1.503 . S
C1643 C1642 1.370 . S
C1643 C1644 1.403 . S
C1644 C1643 1.403 . S
C1644 C1645 1.404 . S
C1644 C1647 1.539 . S
C1645 C1641 1.408 1_554 S
C1645 C1644 1.404 . S
C1645 H1657 0.930 . S
C1646 C1642 1.524 . S
C1646 H1658 0.956 . S
C1646 H1659 0.961 . S
C1646 H1660 0.961 1_554 S
C1647 C1644 1.539 . S
C1647 H1661 0.958 . S
C1647 H1662 0.961 . S
C1647 H1663 0.960 . S
H1648 C1632 0.931 . S
H1649 C1637 0.929 . S
H1650 C1638 0.960 . S
H1651 C1638 0.962 . S
H1652 C1638 0.960 . S
H1653 C1639 0.961 . S
H1654 C1639 0.961 . S
H1655 C1639 0.961 . S
H1656 C1640 0.931 . S
H1657 C1645 0.930 . S
H1658 C1646 0.956 . S
H1659 C1646 0.961 . S
H1660 C1646 0.961 1_556 S
H1661 C1647 0.958 . S
H1662 C1647 0.961 . S
H1663 C1647 0.960 . S
C1664 C1665 1.391 . S
C1664 C1666 1.394 . S
C1664 H1680 0.931 . S
C1665 C1664 1.391 . S
C1665 C1669 1.376 . S
C1666 C1664 1.394 . S
C1666 C1667 1.369 . S
C1666 C1670 1.531 . S
C1667 C1666 1.369 . S
C1667 C1668 1.410 . S
C1667 C1675 1.503 . S
C1668 C1667 1.410 . S
C1668 C1669 1.392 . S
C1668 C1671 1.511 . S
C1669 C1665 1.376 . S
C1669 C1668 1.392 . S
C1669 H1681 0.929 . S
C1670 C1666 1.531 . S
C1670 H1682 0.960 . S
C1670 H1683 0.962 . S
C1670 H1684 0.960 . S
C1671 C1668 1.511 . S
C1671 H1685 0.961 . S
C1671 H1686 0.961 . S
C1671 H1687 0.961 . S
C1672 C1673 1.370 . S
C1672 C1674 1.363 . S
C1672 H1688 0.931 . S
C1673 C1672 1.370 . S
C1673 C1677 1.408 . S
C1674 C1672 1.363 . S
C1674 C1675 1.370 . S
C1674 C1678 1.524 . S
C1675 C1667 1.503 . S
C1675 C1674 1.370 . S
C1675 C1676 1.403 . S
C1676 C1675 1.403 . S
C1676 C1677 1.404 . S
C1676 C1679 1.539 . S
C1677 C1673 1.408 . S
C1677 C1676 1.404 . S
C1677 H1689 0.930 . S
C1678 C1674 1.524 . S
C1678 H1690 0.956 . S
C1678 H1691 0.961 . S
C1678 H1692 0.961 . S
C1679 C1676 1.539 . S
C1679 H1693 0.958 . S
C1679 H1694 0.961 . S
C1679 H1695 0.960 . S
H1680 C1664 0.931 . S
H1681 C1669 0.929 . S
H1682 C1670 0.960 . S
H1683 C1670 0.962 . S
H1684 C1670 0.960 . S
H1685 C1671 0.961 . S
H1686 C1671 0.961 . S
H1687 C1671 0.961 . S
H1688 C1672 0.931 . S
H1689 C1677 0.930 . S
H1690 C1678 0.956 . S
H1691 C1678 0.961 . S
H1692 C1678 0.961 . S
H1693 C1679 0.958 . S
H1694 C1679 0.961 . S
H1695 C1679 0.960 . S
C1696 C1697 1.391 1_554 S
C1696 C1698 1.394 . S
C1696 H1712 0.931 . S
C1697 C1696 1.391 1_556 S
C1697 C1701 1.376 . S
C1698 C1696 1.394 . S
C1698 C1699 1.369 . S
C1698 C1702 1.531 . S
C1699 C1698 1.369 . S
C1699 C1700 1.410 . S
C1699 C1707 1.503 . S
C1700 C1699 1.410 . S
C1700 C1701 1.392 1_554 S
C1700 C1703 1.511 . S
C1701 C1697 1.376 . S
C1701 C1700 1.392 1_556 S
C1701 H1713 0.929 . S
C1702 C1698 1.531 . S
C1702 H1714 0.960 . S
C1702 H1715 0.962 . S
C1702 H1716 0.960 . S
C1703 C1700 1.511 . S
C1703 H1717 0.961 1_554 S
C1703 H1718 0.961 . S
C1703 H1719 0.961 . S
C1704 C1705 1.370 . S
C1704 C1706 1.363 . S
C1704 H1720 0.931 . S
C1705 C1704 1.370 . S
C1705 C1709 1.408 . S
C1706 C1704 1.363 . S
C1706 C1707 1.370 . S
C1706 C1710 1.524 . S
C1707 C1699 1.503 . S
C1707 C1706 1.370 . S
C1707 C1708 1.403 . S
C1708 C1707 1.403 . S
C1708 C1709 1.404 . S
C1708 C1711 1.539 . S
C1709 C1705 1.408 . S
C1709 C1708 1.404 . S
C1709 H1721 0.930 . S
C1710 C1706 1.524 . S
C1710 H1722 0.956 . S
C1710 H1723 0.961 . S
C1710 H1724 0.961 . S
C1711 C1708 1.539 . S
C1711 H1725 0.958 . S
C1711 H1726 0.961 . S
C1711 H1727 0.960 . S
H1712 C1696 0.931 . S
H1713 C1701 0.929 . S
H1714 C1702 0.960 . S
H1715 C1702 0.962 . S
H1716 C1702 0.960 . S
H1717 C1703 0.961 1_556 S
H1718 C1703 0.961 . S
H1719 C1703 0.961 . S
H1720 C1704 0.931 . S
H1721 C1709 0.930 . S
H1722 C1710 0.956 . S
H1723 C1710 0.961 . S
H1724 C1710 0.961 . S
H1725 C1711 0.958 . S
H1726 C1711 0.961 . S
H1727 C1711 0.960 . S
C1728 C1729 1.391 . S
C1728 C1730 1.394 . S
C1728 H1744 0.931 . S
C1729 C1728 1.391 . S
C1729 C1733 1.376 . S
C1730 C1728 1.394 . S
C1730 C1731 1.369 . S
C1730 C1734 1.531 . S
C1731 C1730 1.369 . S
C1731 C1732 1.410 . S
C1731 C1739 1.503 . S
C1732 C1731 1.410 . S
C1732 C1733 1.392 . S
C1732 C1735 1.511 . S
C1733 C1729 1.376 . S
C1733 C1732 1.392 . S
C1733 H1745 0.929 . S
C1734 C1730 1.531 . S
C1734 H1746 0.960 . S
C1734 H1747 0.962 . S
C1734 H1748 0.960 . S
C1735 C1732 1.511 . S
C1735 H1749 0.961 . S
C1735 H1750 0.961 . S
C1735 H1751 0.961 . S
C1736 C1737 1.370 . S
C1736 C1738 1.363 . S
C1736 H1752 0.931 . S
C1737 C1736 1.370 . S
C1737 C1741 1.408 . S
C1738 C1736 1.363 . S
C1738 C1739 1.370 . S
C1738 C1742 1.524 . S
C1739 C1731 1.503 . S
C1739 C1738 1.370 . S
C1739 C1740 1.403 . S
C1740 C1739 1.403 . S
C1740 C1741 1.404 . S
C1740 C1743 1.539 . S
C1741 C1737 1.408 . S
C1741 C1740 1.404 . S
C1741 H1753 0.930 . S
C1742 C1738 1.524 . S
C1742 H1754 0.956 . S
C1742 H1755 0.961 . S
C1742 H1756 0.961 . S
C1743 C1740 1.539 . S
C1743 H1757 0.958 . S
C1743 H1758 0.961 . S
C1743 H1759 0.960 . S
H1744 C1728 0.931 . S
H1745 C1733 0.929 . S
H1746 C1734 0.960 . S
H1747 C1734 0.962 . S
H1748 C1734 0.960 . S
H1749 C1735 0.961 . S
H1750 C1735 0.961 . S
H1751 C1735 0.961 . S
H1752 C1736 0.931 . S
H1753 C1741 0.930 . S
H1754 C1742 0.956 . S
H1755 C1742 0.961 . S
H1756 C1742 0.961 . S
H1757 C1743 0.958 . S
H1758 C1743 0.961 . S
H1759 C1743 0.960 . S
C1760 C1761 1.391 . S
C1760 C1762 1.394 . S
C1760 H1776 0.931 . S
C1761 C1760 1.391 . S
C1761 C1765 1.376 . S
C1762 C1760 1.394 . S
C1762 C1763 1.369 . S
C1762 C1766 1.531 . S
C1763 C1762 1.369 . S
C1763 C1764 1.410 . S
C1763 C1771 1.503 . S
C1764 C1763 1.410 . S
C1764 C1765 1.392 . S
C1764 C1767 1.511 . S
C1765 C1761 1.376 . S
C1765 C1764 1.392 . S
C1765 H1777 0.929 . S
C1766 C1762 1.531 . S
C1766 H1778 0.960 . S
C1766 H1779 0.962 . S
C1766 H1780 0.960 . S
C1767 C1764 1.511 . S
C1767 H1781 0.961 . S
C1767 H1782 0.961 . S
C1767 H1783 0.961 . S
C1768 C1769 1.370 1_556 S
C1768 C1770 1.363 . S
C1768 H1784 0.931 . S
C1769 C1768 1.370 1_554 S
C1769 C1773 1.408 . S
C1770 C1768 1.363 . S
C1770 C1771 1.370 . S
C1770 C1774 1.524 . S
C1771 C1763 1.503 . S
C1771 C1770 1.370 . S
C1771 C1772 1.403 . S
C1772 C1771 1.403 . S
C1772 C1773 1.404 1_556 S
C1772 C1775 1.539 . S
C1773 C1769 1.408 . S
C1773 C1772 1.404 1_554 S
C1773 H1785 0.930 . S
C1774 C1770 1.524 . S
C1774 H1786 0.956 . S
C1774 H1787 0.961 . S
C1774 H1788 0.961 . S
C1775 C1772 1.539 . S
C1775 H1789 0.958 1_556 S
C1775 H1790 0.961 1_556 S
C1775 H1791 0.960 . S
H1776 C1760 0.931 . S
H1777 C1765 0.929 . S
H1778 C1766 0.960 . S
H1779 C1766 0.962 . S
H1780 C1766 0.960 . S
H1781 C1767 0.961 . S
H1782 C1767 0.961 . S
H1783 C1767 0.961 . S
H1784 C1768 0.931 . S
H1785 C1773 0.930 . S
H1786 C1774 0.956 . S
H1787 C1774 0.961 . S
H1788 C1774 0.961 . S
H1789 C1775 0.958 1_554 S
H1790 C1775 0.961 1_554 S
H1791 C1775 0.960 . S
C1792 C1793 1.391 . S
C1792 C1794 1.394 . S
C1792 H1808 0.931 . S
C1793 C1792 1.391 . S
C1793 C1797 1.376 . S
C1794 C1792 1.394 . S
C1794 C1795 1.369 . S
C1794 C1798 1.531 . S
C1795 C1794 1.369 . S
C1795 C1796 1.410 . S
C1795 C1803 1.503 . S
C1796 C1795 1.410 . S
C1796 C1797 1.392 . S
C1796 C1799 1.511 . S
C1797 C1793 1.376 . S
C1797 C1796 1.392 . S
C1797 H1809 0.929 . S
C1798 C1794 1.531 . S
C1798 H1810 0.960 . S
C1798 H1811 0.962 . S
C1798 H1812 0.960 . S
C1799 C1796 1.511 . S
C1799 H1813 0.961 . S
C1799 H1814 0.961 . S
C1799 H1815 0.961 . S
C1800 C1801 1.370 . S
C1800 C1802 1.363 . S
C1800 H1816 0.931 . S
C1801 C1800 1.370 . S
C1801 C1805 1.408 . S
C1802 C1800 1.363 . S
C1802 C1803 1.370 . S
C1802 C1806 1.524 . S
C1803 C1795 1.503 . S
C1803 C1802 1.370 . S
C1803 C1804 1.403 . S
C1804 C1803 1.403 . S
C1804 C1805 1.404 . S
C1804 C1807 1.539 . S
C1805 C1801 1.408 . S
C1805 C1804 1.404 . S
C1805 H1817 0.930 . S
C1806 C1802 1.524 . S
C1806 H1818 0.956 . S
C1806 H1819 0.961 . S
C1806 H1820 0.961 . S
C1807 C1804 1.539 . S
C1807 H1821 0.958 . S
C1807 H1822 0.961 . S
C1807 H1823 0.960 . S
H1808 C1792 0.931 . S
H1809 C1797 0.929 . S
H1810 C1798 0.960 . S
H1811 C1798 0.962 . S
H1812 C1798 0.960 . S
H1813 C1799 0.961 . S
H1814 C1799 0.961 . S
H1815 C1799 0.961 . S
H1816 C1800 0.931 . S
H1817 C1805 0.930 . S
H1818 C1806 0.956 . S
H1819 C1806 0.961 . S
H1820 C1806 0.961 . S
H1821 C1807 0.958 . S
H1822 C1807 0.961 . S
H1823 C1807 0.960 . S
C545 C9 1.431 . S
C553 C111 1.456 . S
C577 C77 1.439 . S
C585 C43 1.455 . S
C609 C247 1.435 . S
C617 C145 1.465 . S
C641 C179 1.460 . S
C649 C213 1.477 . S
C673 C281 1.442 . S
C681 C383 1.456 . S
C705 C315 1.500 . S
C713 C349 1.481 . S
C737 C519 1.432 . S
C745 C417 1.462 . S
C769 C451 1.480 . S
C777 C485 1.465 . S
C801 C209 1.476 . S
C809 C5 1.488 . S
C833 C243 1.498 . S
C841 C39 1.496 . S
C865 C141 1.494 . S
C873 C73 1.496 . S
C897 C175 1.488 . S
C905 C107 1.493 . S
C929 C481 1.486 . S
C937 C277 1.491 . S
C961 C515 1.476 . S
C969 C311 1.487 . S
C993 C413 1.490 . S
C1001 C345 1.493 . S
C1025 C379 1.482 . S
C1033 C447 1.489 . S
C1057 C2 1.537 . S
C1065 C70 1.541 . S
C1089 C36 1.532 . S
C1097 C104 1.548 . S
C1121 C138 1.554 . S
C1129 C206 1.538 . S
C1153 C172 1.553 . S
C1161 C240 1.538 . S
C1185 C274 1.537 . S
C1193 C342 1.541 . S
C1217 C308 1.541 . S
C1225 C376 1.546 . S
C1249 C410 1.551 . S
C1257 C478 1.542 . S
C1281 C444 1.547 . S
C1289 C512 1.545 . S
C1313 C530 1.351 . S
C1321 C33 1.358 . S
C1345 C67 1.353 . S
C1353 C496 1.359 . S
C1377 C101 1.354 . S
C1385 C462 1.359 . S
C1409 C428 1.351 . S
C1417 C135 1.359 . S
C1441 C394 1.357 . S
C1449 C169 1.358 . S
C1473 C203 1.353 . S
C1481 C360 1.358 . S
C1505 C237 1.356 . S
C1513 C326 1.361 . S
C1537 C271 1.356 . S
C1545 C292 1.358 . S
C1569 C305 1.359 . S
C1577 C258 1.361 . S
C1601 C224 1.359 . S
C1609 C339 1.360 . S
C1633 C190 1.351 . S
C1641 C373 1.359 . S
C1665 C407 1.355 . S
C1673 C156 1.358 . S
C1697 C441 1.354 . S
C1705 C122 1.358 . S
C1729 C88 1.354 . S
C1737 C475 1.358 . S
C1761 C54 1.358 . S
C1769 C509 1.359 . S
C1793 C20 1.357 . S
C1801 C543 1.359 . S
