# Generated by pormake.
# Topology reo, (8)-cn, num edge types: 1
# Building blocks:
#     Node 0, Type 0, BuildingBlock: LIZSOE_clean_sbu_0, # of connection points: 8
#     Node 1, Type 0, BuildingBlock: LIZSOE_clean_sbu_0, # of connection points: 8
#     Node 2, Type 0, BuildingBlock: LIZSOE_clean_sbu_0, # of connection points: 8
#     Edge 3, Type (0, 0), BuildingBlock: XIVTED_clean_linker_0, # of connection points: 2
#     Edge 4, Type (0, 0), BuildingBlock: XIVTED_clean_linker_0, # of connection points: 2
#     Edge 5, Type (0, 0), BuildingBlock: XIVTED_clean_linker_0, # of connection points: 2
#     Edge 6, Type (0, 0), BuildingBlock: XIVTED_clean_linker_0, # of connection points: 2
#     Edge 7, Type (0, 0), BuildingBlock: XIVTED_clean_linker_0, # of connection points: 2
#     Edge 8, Type (0, 0), BuildingBlock: XIVTED_clean_linker_0, # of connection points: 2
#     Edge 9, Type (0, 0), BuildingBlock: XIVTED_clean_linker_0, # of connection points: 2
#     Edge 10, Type (0, 0), BuildingBlock: XIVTED_clean_linker_0, # of connection points: 2
#     Edge 11, Type (0, 0), BuildingBlock: XIVTED_clean_linker_0, # of connection points: 2
#     Edge 12, Type (0, 0), BuildingBlock: XIVTED_clean_linker_0, # of connection points: 2
#     Edge 13, Type (0, 0), BuildingBlock: XIVTED_clean_linker_0, # of connection points: 2
#     Edge 14, Type (0, 0), BuildingBlock: XIVTED_clean_linker_0, # of connection points: 2
# Relax obj value: 0.295
# Max RMSD: 0.276
# Mean RMSD: 0.239
data_MOF--net-reo--node1-LIZSOE_clean_sbu_0--edge1-XIVTED_clean_linker_0
_symmetry_space_group_name_H-M    P1
_symmetry_Int_Tables_number       1
_symmetry_cell_setting            triclinic
loop_
_symmetry_equiv_pos_as_xyz
'x, y, z'
_cell_length_a     28.621773
_cell_length_b     23.738037
_cell_length_c     19.935051
_cell_angle_alpha  91.036001
_cell_angle_beta   103.22182
_cell_angle_gamma 112.79148
loop_
_atom_site_label
_atom_site_type_symbol
_atom_site_fract_x
_atom_site_fract_y
_atom_site_fract_z
_atom_type_partial_charge
Co0 Co 0.09379 0.02224 0.46924 0.0
N1 N 0.15733 0.06294 0.4447 0.0
C2 C 0.18986 0.12194 0.46838 0.0
N3 N 0.23271 0.08613 0.41177 0.0
C4 C 0.18462 0.04188 0.41067 0.0
C5 C 0.23537 0.13623 0.44811 0.0
Co6 Co 0.91724 0.01627 0.64203 0.0
N7 N 0.85314 0.9838 0.66658 0.0
N8 N 0.78689 0.97902 0.71302 0.0
C9 C 0.77012 0.92879 0.66678 0.0
C10 C 0.8108 0.93148 0.639 0.0
C11 C 0.83766 0.01142 0.71235 0.0
Co12 Co 0.00376 0.01812 0.55286 0.0
C13 C 0.96222 0.10195 0.62309 0.0
H14 H 0.80915 0.89814 0.59988 0.0
O15 O 0.03197 0.97768 0.48656 0.0
O16 O 0.93417 0.98672 0.48227 0.0
O17 O 0.02086 0.09766 0.50885 0.0
O18 O 0.0739 0.0499 0.62396 0.0
O19 O 0.12915 0.04897 0.5615 0.0
O20 O 0.88101 0.98642 0.54826 0.0
O21 O 0.97848 0.05669 0.62263 0.0
O22 O 0.92732 0.94226 0.65706 0.0
O23 O 0.08014 0.0943 0.45657 0.0
O24 O 0.05469 0.99292 0.38498 0.0
O25 O 0.98474 0.9386 0.59846 0.0
O26 O 0.91397 0.0876 0.62524 0.0
C27 C 0.05215 0.12084 0.47075 0.0
C28 C 0.87208 0.07332 0.75259 0.0
H29 H 0.8631 0.10916 0.72416 0.0
H30 H 0.86519 0.07662 0.80463 0.0
H31 H 0.91396 0.08256 0.75836 0.0
C32 C 0.8887 0.97716 0.48967 0.0
C33 C 0.11987 0.05801 0.61906 0.0
H34 H 0.18192 0.15221 0.50105 0.0
H35 H 0.17939 0.94977 0.41344 0.0
H36 H 0.17614 0.97553 0.32861 0.0
H37 H 0.12045 0.95493 0.36568 0.0
C38 C 0.16373 0.97692 0.37721 0.0
C39 C 0.02159 0.96039 0.41904 0.0
C40 C 0.95476 0.91584 0.63921 0.0
H41 H 0.26885 0.18006 0.46122 0.0
H42 H 0.73087 0.89289 0.65345 0.0
Co43 Co 0.50427 0.13785 0.06946 0.0
N44 N 0.50032 0.19864 1.01374 0.0
C45 C 0.50093 0.19555 0.94635 0.0
N46 N 0.47148 0.26668 0.9622 0.0
C47 C 0.48168 0.2422 1.02177 0.0
C48 C 0.48293 0.23697 0.91447 0.0
Co49 Co 0.48919 0.87809 1.01409 0.0
N50 N 0.48483 0.7996 1.02844 0.0
N51 N 0.50278 0.7162 0.04512 0.0
C52 C 0.45042 0.6976 1.02597 0.0
C53 C 0.43951 0.74904 1.01648 0.0
C54 C 0.52295 0.77795 0.0454 0.0
Co55 Co 0.50329 0.02062 0.0614 0.0
C56 C 0.53148 0.94467 0.96318 0.0
H57 H 0.40095 0.74941 0.99922 0.0
O58 O 0.50521 0.08393 0.12967 0.0
O59 O 0.56019 1.00775 0.13162 0.0
O60 O 0.55931 0.07993 1.02326 0.0
O61 O 0.4446 0.03266 0.99052 0.0
O62 O 0.43215 0.10307 0.05065 0.0
O63 O 0.54599 0.91109 0.09577 0.0
O64 O 0.49872 0.95383 0.99449 0.0
O65 O 0.4433 0.87017 0.06988 0.0
O66 O 0.57607 0.16854 0.08219 0.0
O67 O 0.51311 0.1795 0.15069 0.0
O68 O 0.44859 0.96333 0.10118 0.0
O69 O 0.53201 0.89041 0.95968 0.0
C70 C 0.58972 0.13543 0.047 0.0
C71 C 0.58089 0.81596 0.05641 0.0
H72 H 0.59072 0.86312 0.0426 0.0
H73 H 0.60096 0.81876 0.11173 0.0
H74 H 0.59754 0.79295 1.02538 0.0
C75 C 0.57142 0.96047 0.13754 0.0
C76 C 0.41544 0.06026 1.00098 0.0
H77 H 0.50911 0.16121 0.92061 0.0
H78 H 0.43986 0.2109 0.10037 0.0
H79 H 0.44505 0.28563 0.07893 0.0
H80 H 0.50158 0.27676 0.12926 0.0
C81 C 0.46596 0.25463 0.08582 0.0
C82 C 0.50705 0.12712 0.17291 0.0
C83 C 0.43005 0.90562 0.10217 0.0
H84 H 0.47473 0.24129 0.85949 0.0
H85 H 0.42231 0.65016 1.01697 0.0
Co86 Co 0.10548 0.47717 1.03393 0.0
N87 N 0.17115 0.47486 0.06037 0.0
C88 C 0.20853 0.49759 0.12059 0.0
N89 N 0.24026 0.45404 0.05409 0.0
C90 C 0.19132 0.44789 1.02111 0.0
C91 C 0.25125 0.48548 0.11654 0.0
Co92 Co 0.91043 0.54946 0.06235 0.0
N93 N 0.84007 0.53714 1.03395 0.0
N94 N 0.76674 0.55448 1.01593 0.0
C95 C 0.75294 0.49378 1.00243 0.0
C96 C 0.79755 0.48313 1.01417 0.0
C97 C 0.81989 0.57991 1.03516 0.0
Co98 Co 0.01098 0.51874 0.04894 0.0
C99 C 0.95786 0.55969 0.15356 0.0
H100 H 0.7979 0.4379 1.01156 0.0
O101 O 0.04501 0.4765 0.99974 0.0
O102 O 0.99423 0.56199 0.9638 0.0
O103 O 0.07439 0.59336 0.08813 0.0
O104 O 0.02642 0.47492 0.13446 0.0
O105 O 0.08877 0.44525 0.11529 0.0
O106 O 0.92206 0.57468 0.97577 0.0
O107 O 0.9754 0.56202 0.09729 0.0
O108 O 0.889 0.46784 1.02821 0.0
O109 O 0.13441 0.55771 0.0814 0.0
O110 O 0.11365 0.50771 0.9534 0.0
O111 O 0.95052 0.44232 1.009 0.0
O112 O 0.90793 0.52827 0.14721 0.0
C113 C 0.12145 0.59942 0.10104 0.0
C114 C 0.85329 0.64698 0.05645 0.0
H115 H 0.89157 0.65918 0.04373 0.0
H116 H 0.83319 0.67543 1.03054 0.0
H117 H 0.86105 0.65694 0.11347 0.0
C118 C 0.95715 0.58118 0.94291 0.0
C119 C 0.05726 0.44642 0.15118 0.0
H120 H 0.20472 0.52061 0.16491 0.0
H121 H 0.12096 0.38985 0.94611 0.0
H122 H 0.17937 0.38737 0.92906 0.0
H123 H 0.1649 0.45318 0.91293 0.0
C124 C 0.16271 0.41735 0.94842 0.0
C125 C 0.06295 0.48245 0.94396 0.0
C126 C 0.90354 0.42927 1.00614 0.0
H127 H 0.28723 0.49764 0.15687 0.0
H128 H 0.71313 0.4591 0.98885 0.0
H129 H 0.97529 0.38605 0.21268 0.0
H130 H 0.13193 0.19981 0.42183 0.0
H131 H 0.13705 0.42115 0.22761 0.0
H132 H 0.97732 0.17127 0.43983 0.0
H133 H 0.13333 0.28439 0.35474 0.0
H134 H 0.97386 0.31228 0.29925 0.0
C135 C 0.01075 0.37941 0.23506 0.0
C136 C 0.05632 0.41004 0.21222 0.0
C137 C 0.09906 0.26032 0.37359 0.0
C138 C 0.05472 0.32486 0.3106 0.0
C139 C 0.09828 0.21164 0.41239 0.0
C140 C 0.0545 0.17779 0.43711 0.0
C141 C 0.05535 0.27577 0.35754 0.0
C142 C 0.01216 0.19608 0.42243 0.0
C143 C 0.00979 0.33687 0.28414 0.0
C144 C 0.10078 0.3986 0.24271 0.0
N145 N 0.01336 0.24325 0.38302 0.0
N146 N 0.09867 0.35709 0.28935 0.0
H147 H 0.88856 0.0324 0.37059 0.0
H148 H 0.57891 0.86872 0.21284 0.0
H149 H 0.78715 0.89706 0.47242 0.0
H150 H 0.66833 0.05571 0.18342 0.0
H151 H 0.65734 0.86749 0.29295 0.0
H152 H 0.81072 0.02872 0.28338 0.0
C153 C 0.85001 1.00055 0.37331 0.0
C154 C 0.84417 0.96457 0.42839 0.0
C155 C 0.65975 0.9089 0.26925 0.0
C156 C 0.75542 0.96084 0.32991 0.0
C157 C 0.61506 0.90973 0.2238 0.0
C158 C 0.61713 0.96259 0.19198 0.0
C159 C 0.70731 0.96086 0.28195 0.0
C160 C 0.665 0.01434 0.20758 0.0
C161 C 0.80571 0.99924 0.32432 0.0
C162 C 0.79331 0.92532 0.43063 0.0
N163 N 0.70843 0.01203 0.25102 0.0
N164 N 0.75093 0.9244 0.38212 0.0
H165 H 0.97111 0.9151 0.28409 0.0
H166 H 0.96181 0.57355 0.29321 0.0
H167 H 0.01994 0.85449 0.47993 0.0
H168 H 0.99202 0.67962 0.12326 0.0
H169 H 0.97105 0.66643 0.36236 0.0
H170 H 0.96086 0.81857 0.22409 0.0
C171 C 0.97766 0.88047 0.31494 0.0
C172 C 0.9957 0.89359 0.38785 0.0
C173 C 0.97659 0.66965 0.31041 0.0
C174 C 0.98537 0.78167 0.31799 0.0
C175 C 0.97203 0.61668 0.27103 0.0
C176 C 0.97766 0.61839 0.20243 0.0
C177 C 0.98493 0.72493 0.28054 0.0
C178 C 0.98886 0.6757 0.17621 0.0
C179 C 0.97283 0.82558 0.28027 0.0
C180 C 0.0048 0.84664 0.42407 0.0
N181 N 0.99128 0.72577 0.21454 0.0
N182 N -0.00021 0.79324 0.38897 0.0
H183 H 0.51382 0.2093 0.27521 0.0
H184 H 0.26614 0.99211 0.40207 0.0
H185 H 0.44224 0.01498 0.20554 0.0
H186 H 0.29709 0.17836 0.35696 0.0
H187 H 0.34018 0.99611 0.35644 0.0
H188 H 0.44879 0.19486 0.34091 0.0
C189 C 0.48542 0.16307 0.27526 0.0
C190 C 0.48281 0.11347 0.23274 0.0
C191 C 0.33042 0.03586 0.3566 0.0
C192 C 0.40733 0.09686 0.30765 0.0
C193 C 0.28753 0.03336 0.38155 0.0
C194 C 0.27423 0.08464 0.38219 0.0
C195 C 0.36123 0.09063 0.33442 0.0
C196 C 0.30565 0.13777 0.3579 0.0
C197 C 0.4478 0.15507 0.31216 0.0
C198 C 0.44522 0.05468 0.236 0.0
N199 N 0.34756 0.13946 0.33561 0.0
N200 N 0.40823 0.04802 0.27165 0.0
H201 H 0.87644 0.83518 0.68951 0.0
H202 H 0.0382 0.64803 0.88293 0.0
H203 H 0.02964 0.86568 0.6639 0.0
H204 H 0.87482 0.60365 0.86809 0.0
H205 H 0.0374 0.72437 0.80047 0.0
H206 H 0.87658 0.7485 0.75289 0.0
C207 C 0.91009 0.82339 0.69664 0.0
C208 C 0.95308 0.85829 0.67092 0.0
C209 C 0.00161 0.6972 0.81464 0.0
C210 C 0.9539 0.75809 0.7456 0.0
C211 C 0.00193 0.65315 0.86139 0.0
C212 C 0.95656 0.61901 0.88316 0.0
C213 C 0.95567 0.70748 0.78957 0.0
C214 C 0.91099 0.62874 0.85374 0.0
C215 C 0.91016 0.77355 0.7331 0.0
C216 C 0.99542 0.84008 0.68219 0.0
N217 N 0.91193 0.67199 0.80951 0.0
N218 N 0.99505 0.79183 0.71927 0.0
H219 H 0.39003 0.02178 0.86234 0.0
H220 H 0.11662 0.05186 0.75686 0.0
H221 H 0.33316 0.08558 1.018 0.0
H222 H 0.22275 0.0887 0.6243 0.0
H223 H 0.18718 0.05063 0.85385 0.0
H224 H 0.31757 0.02642 0.77274 0.0
C225 C 0.36172 0.03555 0.87777 0.0
C226 C 0.36756 0.05323 0.94763 0.0
C227 C 0.19478 0.05958 0.80348 0.0
C228 C 0.28492 0.05914 0.84551 0.0
C229 C 0.15478 0.06081 0.74835 0.0
C230 C 0.16341 0.06972 0.68197 0.0
C231 C 0.24308 0.06618 0.79148 0.0
C232 C 0.21373 0.08074 0.67407 0.0
C233 C 0.32078 0.03893 0.82664 0.0
C234 C 0.33003 0.0716 0.96458 0.0
N235 N 0.25119 0.07767 0.72766 0.0
N236 N 0.29016 0.074 0.91386 0.0
H237 H 0.00384 0.36019 0.95117 0.0
H238 H 0.97714 0.2143 0.57597 0.0
H239 H 0.07052 0.48144 0.8083 0.0
H240 H 0.01627 0.13169 0.75892 0.0
H241 H -0.00158 0.30982 0.65001 0.0
H242 H 0.98895 0.27169 0.8708 0.0
C243 C 0.01352 0.36846 0.9018 0.0
C244 C 0.03798 0.42918 0.88669 0.0
C245 C 0.00369 0.27134 0.67386 0.0
C246 C 0.02163 0.3267 0.79407 0.0
C247 C 0.99266 0.2171 0.63142 0.0
C248 C 0.99672 0.16499 0.66059 0.0
C249 C 0.01664 0.27303 0.74659 0.0
C250 C 0.01433 0.17096 0.73352 0.0
C251 C 0.00598 0.31765 0.85645 0.0
C252 C 0.05093 0.43588 0.82214 0.0
N253 N 0.02233 0.22292 0.77369 0.0
N254 N 0.04255 0.38567 0.77845 0.0
H255 H 0.63398 1.0005 1.02739 0.0
H256 H 0.69487 0.98785 0.65834 0.0
H257 H 0.52205 0.98363 0.83488 0.0
H258 H 0.80432 1.00229 0.85266 0.0
H259 H 0.63646 1.0049 0.722 0.0
H260 H 0.70289 0.02567 0.9661 0.0
C261 C 0.62449 1.0058 0.97269 0.0
C262 C 0.57228 0.99149 0.93666 0.0
C263 C 0.67368 1.00556 0.75086 0.0
C264 C 0.65056 0.0157 0.86454 0.0
C265 C 0.70689 0.99567 0.71449 0.0
C266 C 0.75486 0.99473 0.75025 0.0
C267 C 0.68808 0.01371 0.82388 0.0
C268 C 0.76842 1.00439 0.82304 0.0
C269 C 0.66371 0.01859 0.93723 0.0
C270 C 0.56195 0.99599 0.86509 0.0
N271 N 0.73515 0.01304 0.85735 0.0
N272 N 0.60038 1.00632 0.83115 0.0
H273 H 0.33905 0.51964 0.0453 0.0
H274 H 0.36822 0.2201 0.90356 0.0
H275 H 0.21849 0.33609 1.01102 0.0
H276 H 0.50075 0.38789 0.99623 0.0
H277 H 0.30933 0.27035 0.91416 0.0
H278 H 0.3964 0.47922 1.00471 0.0
C279 C 0.32472 0.47092 1.02859 0.0
C280 C 0.2739 0.43112 1.02989 0.0
C281 C 0.35131 0.29676 0.93069 0.0
C282 C 0.3384 0.38472 0.98337 0.0
C283 C 0.38469 0.26839 0.92355 0.0
C284 C 0.43897 0.30043 0.94855 0.0
C285 C 0.3726 0.3575 0.9633 0.0
C286 C 0.45894 0.36235 0.9758 0.0
C287 C 0.35715 0.44795 1.00526 0.0
C288 C 0.25698 0.36828 1.00876 0.0
N289 N 0.42569 0.38885 0.98331 0.0
N290 N 0.28907 0.34701 0.98611 0.0
H291 H 0.20422 0.61144 0.20695 0.0
H292 H 0.35296 0.94211 0.1157 0.0
H293 H 0.13085 0.71675 0.08458 0.0
H294 H 0.41741 0.8081 0.17513 0.0
H295 H 0.27614 0.88195 0.15745 0.0
H296 H 0.28333 0.70513 0.25009 0.0
C297 C 0.20483 0.65461 0.18978 0.0
C298 C 0.16273 0.65654 0.1394 0.0
C299 C 0.30792 0.8669 0.16331 0.0
C300 C 0.25222 0.76303 0.18794 0.0
C301 C 0.35148 0.9009 0.13933 0.0
C302 C 0.39012 0.87832 0.13992 0.0
C303 C 0.30367 0.81052 0.18782 0.0
C304 C 0.38726 0.82558 0.17177 0.0
C305 C 0.24951 0.70807 0.21508 0.0
C306 C 0.16365 0.71363 0.12172 0.0
N307 N 0.34418 0.7928 0.19353 0.0
N308 N 0.20865 0.76482 0.14437 0.0
H309 H 0.67777 0.11314 0.07948 0.0
H310 H 0.81869 0.39848 0.89797 0.0
H311 H 0.60637 0.22036 0.95759 0.0
H312 H 0.9001 0.32204 0.05393 0.0
H313 H 0.73974 0.30384 0.88031 0.0
H314 H 0.75666 0.16293 0.0373 0.0
C315 C 0.67879 0.14678 0.04328 0.0
C316 C 0.6366 0.1639 1.02253 0.0
C317 C 0.77523 0.30684 0.91697 0.0
C318 C 0.72503 0.21982 0.97384 0.0
C319 C 0.82012 0.3606 0.92672 0.0
C320 C 0.86458 0.36778 0.97884 0.0
C321 C 0.77494 0.26164 0.96157 0.0
C322 C 0.86562 0.31788 1.01426 0.0
C323 C 0.7233 0.17464 1.01885 0.0
C324 C 0.63875 0.20698 0.97543 0.0
N325 N 0.82056 0.26712 1.00661 0.0
N326 N 0.68257 0.23397 0.95303 0.0
H327 H 0.67954 0.53592 0.9171 0.0
H328 H 0.57774 0.71491 0.15386 0.0
H329 H 0.76843 0.6295 0.1213 0.0
H330 H 0.49552 0.63541 0.94311 0.0
H331 H 0.64345 0.67393 0.14791 0.0
H332 H 0.60885 0.56626 0.928 0.0
C333 C 0.68437 0.56402 0.96366 0.0
C334 C 0.73 0.58141 1.01777 0.0
C335 C 0.61063 0.66452 0.10325 0.0
C336 C 0.64914 0.61484 1.03178 0.0
C337 C 0.57302 0.68723 0.10704 0.0
C338 C 0.53177 0.67843 0.04878 0.0
C339 C 0.6067 0.63288 0.04061 0.0
C340 C 0.52683 0.64258 0.98905 0.0
C341 C 0.644 0.58082 0.97022 0.0
C342 C 0.73442 0.61679 0.07771 0.0
N343 N 0.56435 0.62169 0.98611 0.0
N344 N 0.69432 0.63223 0.08325 0.0
loop_
_geom_bond_atom_site_label_1
_geom_bond_atom_site_label_2
_geom_bond_distance
_geom_bond_site_symmetry_2
_ccdc_geom_bond_type
Co0 N1 2.034 . S
Co0 O15 2.262 1_545 S
Co0 O19 1.958 . S
Co0 O23 1.950 . S
Co0 O24 2.057 1_545 S
N1 Co0 2.034 . S
N1 C2 1.366 . S
N1 C4 1.332 . S
C2 N1 1.366 . S
C2 C5 1.377 . S
C2 H34 0.931 . S
N3 C4 1.346 . S
N3 C5 1.337 . S
C4 N1 1.332 . S
C4 N3 1.346 . S
C4 C38 1.361 . S
C5 C2 1.377 . S
C5 N3 1.337 . S
C5 H41 0.930 . S
Co6 N7 2.034 . S
Co6 O20 1.950 . S
Co6 O21 2.262 1_565 S
Co6 O22 1.958 . S
Co6 O26 2.057 1_565 S
N7 Co6 2.034 . S
N7 C10 1.366 . S
N7 C11 1.332 . S
N8 C9 1.337 . S
N8 C11 1.346 . S
C9 N8 1.337 . S
C9 C10 1.377 . S
C9 H42 0.930 . S
C10 N7 1.366 . S
C10 C9 1.377 . S
C10 H14 0.931 . S
C11 N7 1.332 . S
C11 N8 1.346 . S
C11 C28 1.361 1_565 S
Co12 O15 2.097 1_545 S
Co12 O16 2.065 1_445 S
Co12 O17 2.065 . S
Co12 O18 2.042 . S
Co12 O21 2.097 1_455 S
Co12 O25 2.042 1_445 S
C13 O21 1.253 . S
C13 O26 1.263 . S
H14 C10 0.931 . S
O15 Co0 2.262 1_565 S
O15 Co12 2.097 1_565 S
O15 C39 1.253 . S
O16 Co12 2.065 1_665 S
O16 C32 1.221 . S
O17 Co12 2.065 . S
O17 C27 1.221 . S
O18 Co12 2.042 . S
O18 C33 1.237 . S
O19 Co0 1.958 . S
O19 C33 1.278 . S
O20 Co6 1.950 . S
O20 C32 1.277 . S
O21 Co6 2.262 1_545 S
O21 Co12 2.097 1_655 S
O21 C13 1.253 . S
O22 Co6 1.958 . S
O22 C40 1.278 . S
O23 Co0 1.950 . S
O23 C27 1.277 . S
O24 Co0 2.057 1_565 S
O24 C39 1.263 . S
O25 Co12 2.042 1_665 S
O25 C40 1.237 . S
O26 Co6 2.057 1_545 S
O26 C13 1.263 . S
C27 O17 1.221 . S
C27 O23 1.277 . S
C28 C11 1.361 1_545 S
C28 H29 0.960 . S
C28 H30 0.961 . S
C28 H31 0.961 . S
H29 C28 0.960 . S
H30 C28 0.961 . S
H31 C28 0.961 . S
C32 O16 1.221 . S
C32 O20 1.277 . S
C33 O18 1.237 . S
C33 O19 1.278 . S
H34 C2 0.931 . S
H35 C38 0.961 . S
H36 C38 0.961 . S
H37 C38 0.960 . S
C38 C4 1.361 . S
C38 H35 0.961 . S
C38 H36 0.961 . S
C38 H37 0.960 . S
C39 O15 1.253 . S
C39 O24 1.263 . S
C40 O22 1.278 . S
C40 O25 1.237 . S
H41 C5 0.930 . S
H42 C9 0.930 . S
Co43 N44 2.034 1_554 S
Co43 O58 2.262 . S
Co43 O62 1.958 1_554 S
Co43 O66 1.950 . S
Co43 O67 2.057 . S
N44 Co43 2.034 1_556 S
N44 C45 1.366 . S
N44 C47 1.332 1_556 S
C45 N44 1.366 . S
C45 C48 1.377 . S
C45 H77 0.931 . S
N46 C47 1.346 . S
N46 C48 1.337 1_554 S
C47 N44 1.332 1_554 S
C47 N46 1.346 . S
C47 C81 1.361 . S
C48 C45 1.377 . S
C48 N46 1.337 1_556 S
C48 H84 0.930 . S
Co49 N50 2.034 . S
Co49 O63 1.950 . S
Co49 O64 2.262 1_554 S
Co49 O65 1.958 1_554 S
Co49 O69 2.057 1_554 S
N50 Co49 2.034 . S
N50 C53 1.366 . S
N50 C54 1.332 . S
N51 C52 1.337 . S
N51 C54 1.346 . S
C52 N51 1.337 . S
C52 C53 1.377 . S
C52 H85 0.930 . S
C53 N50 1.366 . S
C53 C52 1.377 . S
C53 H57 0.931 . S
C54 N50 1.332 . S
C54 N51 1.346 . S
C54 C71 1.361 . S
Co55 O58 2.097 . S
Co55 O59 2.065 . S
Co55 O60 2.065 . S
Co55 O61 2.042 1_554 S
Co55 O64 2.097 1_544 S
Co55 O68 2.042 1_545 S
C56 O64 1.253 . S
C56 O69 1.263 . S
H57 C53 0.931 . S
O58 Co43 2.262 . S
O58 Co55 2.097 . S
O58 C82 1.253 . S
O59 Co55 2.065 . S
O59 C75 1.221 1_545 S
O60 Co55 2.065 . S
O60 C70 1.221 . S
O61 Co55 2.042 1_556 S
O61 C76 1.237 . S
O62 Co43 1.958 1_556 S
O62 C76 1.278 . S
O63 Co49 1.950 . S
O63 C75 1.277 . S
O64 Co49 2.262 1_556 S
O64 Co55 2.097 1_566 S
O64 C56 1.253 . S
O65 Co49 1.958 1_556 S
O65 C83 1.278 1_556 S
O66 Co43 1.950 . S
O66 C70 1.277 . S
O67 Co43 2.057 . S
O67 C82 1.263 . S
O68 Co55 2.042 1_565 S
O68 C83 1.237 . S
O69 Co49 2.057 1_556 S
O69 C56 1.263 . S
C70 O60 1.221 . S
C70 O66 1.277 . S
C71 C54 1.361 . S
C71 H72 0.960 . S
C71 H73 0.961 . S
C71 H74 0.961 . S
H72 C71 0.960 . S
H73 C71 0.961 . S
H74 C71 0.961 . S
C75 O59 1.221 1_565 S
C75 O63 1.277 . S
C76 O61 1.237 . S
C76 O62 1.278 . S
H77 C45 0.931 . S
H78 C81 0.961 . S
H79 C81 0.961 . S
H80 C81 0.960 . S
C81 C47 1.361 . S
C81 H78 0.961 . S
C81 H79 0.961 . S
C81 H80 0.960 . S
C82 O58 1.253 . S
C82 O67 1.263 . S
C83 O65 1.278 1_554 S
C83 O68 1.237 . S
H84 C48 0.930 . S
H85 C52 0.930 . S
Co86 N87 2.034 . S
Co86 O101 2.262 1_554 S
Co86 O105 1.958 . S
Co86 O109 1.950 . S
Co86 O110 2.057 1_554 S
N87 Co86 2.034 . S
N87 C88 1.366 . S
N87 C90 1.332 . S
C88 N87 1.366 . S
C88 C91 1.377 . S
C88 H120 0.931 . S
N89 C90 1.346 . S
N89 C91 1.337 . S
C90 N87 1.332 . S
C90 N89 1.346 . S
C90 C124 1.361 1_554 S
C91 C88 1.377 . S
C91 N89 1.337 . S
C91 H127 0.930 . S
Co92 N93 2.034 1_554 S
Co92 O106 1.950 1_554 S
Co92 O107 2.262 . S
Co92 O108 1.958 . S
Co92 O112 2.057 . S
N93 Co92 2.034 1_556 S
N93 C96 1.366 . S
N93 C97 1.332 . S
N94 C95 1.337 . S
N94 C97 1.346 . S
C95 N94 1.337 . S
C95 C96 1.377 . S
C95 H128 0.930 . S
C96 N93 1.366 . S
C96 C95 1.377 . S
C96 H100 0.931 . S
C97 N93 1.332 . S
C97 N94 1.346 . S
C97 C114 1.361 . S
Co98 O101 2.097 1_554 S
Co98 O102 2.065 1_454 S
Co98 O103 2.065 . S
Co98 O104 2.042 . S
Co98 O107 2.097 1_455 S
Co98 O111 2.042 1_454 S
C99 O107 1.253 . S
C99 O112 1.263 . S
H100 C96 0.931 . S
O101 Co86 2.262 1_556 S
O101 Co98 2.097 1_556 S
O101 C125 1.253 . S
O102 Co98 2.065 1_656 S
O102 C118 1.221 . S
O103 Co98 2.065 . S
O103 C113 1.221 . S
O104 Co98 2.042 . S
O104 C119 1.237 . S
O105 Co86 1.958 . S
O105 C119 1.278 . S
O106 Co92 1.950 1_556 S
O106 C118 1.277 . S
O107 Co92 2.262 . S
O107 Co98 2.097 1_655 S
O107 C99 1.253 . S
O108 Co92 1.958 . S
O108 C126 1.278 1_554 S
O109 Co86 1.950 . S
O109 C113 1.277 . S
O110 Co86 2.057 1_556 S
O110 C125 1.263 . S
O111 Co98 2.042 1_656 S
O111 C126 1.237 . S
O112 Co92 2.057 . S
O112 C99 1.263 . S
C113 O103 1.221 . S
C113 O109 1.277 . S
C114 C97 1.361 . S
C114 H115 0.960 . S
C114 H116 0.961 . S
C114 H117 0.961 1_556 S
H115 C114 0.960 . S
H116 C114 0.961 . S
H117 C114 0.961 1_554 S
C118 O102 1.221 . S
C118 O106 1.277 . S
C119 O104 1.237 . S
C119 O105 1.278 . S
H120 C88 0.931 . S
H121 C124 0.961 . S
H122 C124 0.961 . S
H123 C124 0.960 . S
C124 C90 1.361 1_556 S
C124 H121 0.961 . S
C124 H122 0.961 . S
C124 H123 0.960 . S
C125 O101 1.253 . S
C125 O110 1.263 . S
C126 O108 1.278 1_556 S
C126 O111 1.237 . S
H127 C91 0.930 . S
H128 C95 0.930 . S
H129 C135 0.930 . S
H130 C139 0.930 . S
H131 C144 0.929 . S
H132 C142 0.929 . S
H133 C137 0.929 . S
H134 C143 0.929 . S
C135 H129 0.930 . S
C135 C136 1.367 . S
C135 C143 1.378 . S
C136 C135 1.367 . S
C136 C144 1.433 . S
C137 H133 0.929 . S
C137 C139 1.378 . S
C137 C141 1.350 . S
C138 C141 1.463 . S
C138 C143 1.350 . S
C138 N146 1.427 . S
C139 H130 0.930 . S
C139 C137 1.378 . S
C139 C140 1.367 . S
C140 C139 1.367 . S
C140 C142 1.433 . S
C141 C137 1.350 . S
C141 C138 1.463 . S
C141 N145 1.427 . S
C142 H132 0.929 . S
C142 C140 1.433 . S
C142 N145 1.384 . S
C143 H134 0.929 . S
C143 C135 1.378 . S
C143 C138 1.350 . S
C144 H131 0.929 . S
C144 C136 1.433 . S
C144 N146 1.384 . S
N145 C141 1.427 . S
N145 C142 1.384 . S
N146 C138 1.427 . S
N146 C144 1.384 . S
H147 C153 0.930 . S
H148 C157 0.930 . S
H149 C162 0.929 . S
H150 C160 0.929 . S
H151 C155 0.929 . S
H152 C161 0.929 . S
C153 H147 0.930 . S
C153 C154 1.367 1_545 S
C153 C161 1.378 . S
C154 C153 1.367 1_565 S
C154 C162 1.433 . S
C155 H151 0.929 . S
C155 C157 1.378 . S
C155 C159 1.350 . S
C156 C159 1.463 . S
C156 C161 1.350 1_565 S
C156 N164 1.427 . S
C157 H148 0.930 . S
C157 C155 1.378 . S
C157 C158 1.357 1_565 S
C158 C157 1.357 1_545 S
C158 C160 1.438 . S
C159 C155 1.350 . S
C159 C156 1.463 . S
C159 N163 1.427 1_565 S
C160 H150 0.929 . S
C160 C158 1.438 . S
C160 N163 1.384 . S
C161 H152 0.929 . S
C161 C153 1.378 . S
C161 C156 1.350 1_545 S
C162 H149 0.929 . S
C162 C154 1.433 . S
C162 N164 1.384 . S
N163 C159 1.427 1_545 S
N163 C160 1.384 . S
N164 C156 1.427 . S
N164 C162 1.384 . S
H165 C171 0.930 . S
H166 C175 0.930 . S
H167 C180 0.929 . S
H168 C178 0.929 . S
H169 C173 0.929 . S
H170 C179 0.929 . S
C171 H165 0.930 . S
C171 C172 1.367 . S
C171 C179 1.378 . S
C172 C171 1.367 . S
C172 C180 1.433 1_655 S
C173 H169 0.929 . S
C173 C175 1.378 . S
C173 C177 1.350 . S
C174 C177 1.463 . S
C174 C179 1.350 1_455 S
C174 N182 1.427 . S
C175 H166 0.930 . S
C175 C173 1.378 . S
C175 C176 1.367 . S
C176 C175 1.367 . S
C176 C178 1.433 1_455 S
C177 C173 1.350 . S
C177 C174 1.463 . S
C177 N181 1.427 1_455 S
C178 H168 0.929 . S
C178 C176 1.433 1_655 S
C178 N181 1.384 . S
C179 H170 0.929 . S
C179 C171 1.378 . S
C179 C174 1.350 1_655 S
C180 H167 0.929 . S
C180 C172 1.433 1_455 S
C180 N182 1.384 . S
N181 C177 1.427 1_655 S
N181 C178 1.384 . S
N182 C174 1.427 . S
N182 C180 1.384 . S
H183 C189 0.930 . S
H184 C193 0.930 1_565 S
H185 C198 0.929 . S
H186 C196 0.929 . S
H187 C191 0.929 1_565 S
H188 C197 0.929 . S
C189 H183 0.930 . S
C189 C190 1.367 . S
C189 C197 1.378 . S
C190 C189 1.367 . S
C190 C198 1.433 1_545 S
C191 H187 0.929 1_545 S
C191 C193 1.378 . S
C191 C195 1.350 . S
C192 C195 1.463 . S
C192 C197 1.350 . S
C192 N200 1.427 1_545 S
C193 H184 0.930 1_545 S
C193 C191 1.378 . S
C193 C194 1.367 . S
C194 C193 1.367 . S
C194 C196 1.433 . S
C195 C191 1.350 . S
C195 C192 1.463 . S
C195 N199 1.427 . S
C196 H186 0.929 . S
C196 C194 1.433 . S
C196 N199 1.384 . S
C197 H188 0.929 . S
C197 C189 1.378 . S
C197 C192 1.350 . S
C198 H185 0.929 . S
C198 C190 1.433 1_565 S
C198 N200 1.384 . S
N199 C195 1.427 . S
N199 C196 1.384 . S
N200 C192 1.427 1_565 S
N200 C198 1.384 . S
H201 C207 0.930 . S
H202 C211 0.930 . S
H203 C216 0.929 . S
H204 C214 0.929 . S
H205 C209 0.929 . S
H206 C215 0.929 . S
C207 H201 0.930 . S
C207 C208 1.367 . S
C207 C215 1.378 . S
C208 C207 1.367 . S
C208 C216 1.433 . S
C209 H205 0.929 . S
C209 C211 1.378 . S
C209 C213 1.350 . S
C210 C213 1.463 . S
C210 C215 1.350 . S
C210 N218 1.427 . S
C211 H202 0.930 . S
C211 C209 1.378 . S
C211 C212 1.367 . S
C212 C211 1.367 . S
C212 C214 1.433 . S
C213 C209 1.350 . S
C213 C210 1.463 . S
C213 N217 1.427 . S
C214 H204 0.929 . S
C214 C212 1.433 . S
C214 N217 1.384 . S
C215 H206 0.929 . S
C215 C207 1.378 . S
C215 C210 1.350 . S
C216 H203 0.929 . S
C216 C208 1.433 . S
C216 N218 1.384 . S
N217 C213 1.427 . S
N217 C214 1.384 . S
N218 C210 1.427 . S
N218 C216 1.384 . S
H219 C225 0.930 . S
H220 C229 0.930 . S
H221 C234 0.929 . S
H222 C232 0.929 . S
H223 C227 0.929 . S
H224 C233 0.929 . S
C225 H219 0.930 . S
C225 C226 1.367 . S
C225 C233 1.378 . S
C226 C225 1.367 . S
C226 C234 1.433 1_545 S
C227 H223 0.929 . S
C227 C229 1.378 . S
C227 C231 1.350 1_565 S
C228 C231 1.463 . S
C228 C233 1.350 . S
C228 N236 1.427 1_545 S
C229 H220 0.930 . S
C229 C227 1.378 . S
C229 C230 1.367 1_565 S
C230 C229 1.367 1_545 S
C230 C232 1.433 . S
C231 C227 1.350 1_545 S
C231 C228 1.463 . S
C231 N235 1.427 . S
C232 H222 0.929 . S
C232 C230 1.433 . S
C232 N235 1.384 . S
C233 H224 0.929 . S
C233 C225 1.378 . S
C233 C228 1.350 . S
C234 H221 0.929 . S
C234 C226 1.433 1_565 S
C234 N236 1.384 . S
N235 C231 1.427 . S
N235 C232 1.384 . S
N236 C228 1.427 1_565 S
N236 C234 1.384 . S
H237 C243 0.930 . S
H238 C247 0.930 . S
H239 C252 0.929 . S
H240 C250 0.929 . S
H241 C245 0.929 . S
H242 C251 0.929 . S
C243 H237 0.930 . S
C243 C244 1.367 1_655 S
C243 C251 1.378 . S
C244 C243 1.367 1_455 S
C244 C252 1.433 . S
C245 H241 0.929 . S
C245 C247 1.378 . S
C245 C249 1.350 . S
C246 C249 1.463 . S
C246 C251 1.350 1_455 S
C246 N254 1.427 . S
C247 H238 0.930 . S
C247 C245 1.378 . S
C247 C248 1.367 . S
C248 C247 1.367 . S
C248 C250 1.433 1_455 S
C249 C245 1.350 . S
C249 C246 1.463 . S
C249 N253 1.427 1_455 S
C250 H240 0.929 . S
C250 C248 1.433 1_655 S
C250 N253 1.384 . S
C251 H242 0.929 . S
C251 C243 1.378 . S
C251 C246 1.350 1_655 S
C252 H239 0.929 . S
C252 C244 1.433 . S
C252 N254 1.384 . S
N253 C249 1.427 1_655 S
N253 C250 1.384 . S
N254 C246 1.427 . S
N254 C252 1.384 . S
H255 C261 0.930 . S
H256 C265 0.930 . S
H257 C270 0.929 . S
H258 C268 0.929 . S
H259 C263 0.929 . S
H260 C269 0.929 . S
C261 H255 0.930 . S
C261 C262 1.367 1_545 S
C261 C269 1.378 . S
C262 C261 1.367 1_565 S
C262 C270 1.433 . S
C263 H259 0.929 . S
C263 C265 1.378 . S
C263 C267 1.350 . S
C264 C267 1.463 . S
C264 C269 1.350 1_565 S
C264 N272 1.427 . S
C265 H256 0.930 . S
C265 C263 1.378 . S
C265 C266 1.367 . S
C266 C265 1.367 . S
C266 C268 1.433 1_565 S
C267 C263 1.350 . S
C267 C264 1.463 . S
C267 N271 1.427 1_565 S
C268 H258 0.929 . S
C268 C266 1.433 1_545 S
C268 N271 1.384 . S
C269 H260 0.929 . S
C269 C261 1.378 . S
C269 C264 1.350 1_545 S
C270 H257 0.929 . S
C270 C262 1.433 . S
C270 N272 1.384 . S
N271 C267 1.427 1_545 S
N271 C268 1.384 . S
N272 C264 1.427 . S
N272 C270 1.384 . S
H273 C279 0.924 1_556 S
H274 C283 0.930 . S
H275 C288 0.929 . S
H276 C286 0.929 . S
H277 C281 0.929 . S
H278 C287 0.931 . S
C279 H273 0.924 1_554 S
C279 C280 1.376 . S
C279 C287 1.374 1_554 S
C280 C279 1.376 . S
C280 C288 1.433 . S
C281 H277 0.929 . S
C281 C283 1.378 . S
C281 C285 1.350 . S
C282 C285 1.463 . S
C282 C287 1.348 1_554 S
C282 N290 1.427 . S
C283 H274 0.930 . S
C283 C281 1.378 . S
C283 C284 1.367 . S
C284 C283 1.367 . S
C284 C286 1.433 1_554 S
C285 C281 1.350 . S
C285 C282 1.463 . S
C285 N289 1.427 1_554 S
C286 H276 0.929 . S
C286 C284 1.433 1_556 S
C286 N289 1.384 . S
C287 H278 0.931 . S
C287 C279 1.374 1_556 S
C287 C282 1.348 1_556 S
C288 H275 0.929 . S
C288 C280 1.433 . S
C288 N290 1.384 . S
N289 C285 1.427 1_556 S
N289 C286 1.384 . S
N290 C282 1.427 . S
N290 C288 1.384 . S
H291 C297 0.930 . S
H292 C301 0.930 . S
H293 C306 0.929 . S
H294 C304 0.929 . S
H295 C299 0.929 . S
H296 C305 0.929 . S
C297 H291 0.930 . S
C297 C298 1.367 . S
C297 C305 1.378 . S
C298 C297 1.367 . S
C298 C306 1.433 1_554 S
C299 H295 0.929 . S
C299 C301 1.378 . S
C299 C303 1.350 1_556 S
C300 C303 1.463 . S
C300 C305 1.350 . S
C300 N308 1.427 1_554 S
C301 H292 0.930 . S
C301 C299 1.378 . S
C301 C302 1.367 . S
C302 C301 1.367 . S
C302 C304 1.433 1_556 S
C303 C299 1.350 1_554 S
C303 C300 1.463 . S
C303 N307 1.427 . S
C304 H294 0.929 . S
C304 C302 1.433 1_554 S
C304 N307 1.384 . S
C305 H296 0.929 . S
C305 C297 1.378 . S
C305 C300 1.350 . S
C306 H293 0.929 . S
C306 C298 1.433 1_556 S
C306 N308 1.384 . S
N307 C303 1.427 . S
N307 C304 1.384 . S
N308 C300 1.427 1_556 S
N308 C306 1.384 . S
H309 C315 0.930 . S
H310 C319 0.930 . S
H311 C324 0.929 . S
H312 C322 0.929 . S
H313 C317 0.929 . S
H314 C323 0.929 . S
C315 H309 0.930 . S
C315 C316 1.367 . S
C315 C323 1.378 . S
C316 C315 1.367 . S
C316 C324 1.433 1_554 S
C317 H313 0.929 . S
C317 C319 1.378 . S
C317 C321 1.350 1_556 S
C318 C321 1.463 . S
C318 C323 1.350 . S
C318 N326 1.427 1_554 S
C319 H310 0.930 . S
C319 C317 1.378 . S
C319 C320 1.367 . S
C320 C319 1.367 . S
C320 C322 1.433 1_556 S
C321 C317 1.350 1_554 S
C321 C318 1.463 . S
C321 N325 1.427 . S
C322 H312 0.929 . S
C322 C320 1.433 1_554 S
C322 N325 1.384 . S
C323 H314 0.929 . S
C323 C315 1.378 . S
C323 C318 1.350 . S
C324 H311 0.929 . S
C324 C316 1.433 1_556 S
C324 N326 1.384 . S
N325 C321 1.427 . S
N325 C322 1.384 . S
N326 C318 1.427 1_556 S
N326 C324 1.384 . S
H327 C333 0.930 . S
H328 C337 0.930 . S
H329 C342 0.929 . S
H330 C340 0.929 . S
H331 C335 0.929 . S
H332 C341 0.929 . S
C333 H327 0.930 . S
C333 C334 1.367 . S
C333 C341 1.378 . S
C334 C333 1.367 . S
C334 C342 1.433 1_556 S
C335 H331 0.929 . S
C335 C337 1.378 . S
C335 C339 1.350 . S
C336 C339 1.463 1_556 S
C336 C341 1.350 . S
C336 N344 1.427 1_556 S
C337 H328 0.930 . S
C337 C335 1.378 . S
C337 C338 1.367 . S
C338 C337 1.367 . S
C338 C340 1.433 1_554 S
C339 C335 1.350 . S
C339 C336 1.463 1_554 S
C339 N343 1.427 1_554 S
C340 H330 0.929 . S
C340 C338 1.433 1_556 S
C340 N343 1.384 . S
C341 H332 0.929 . S
C341 C333 1.378 . S
C341 C336 1.350 . S
C342 H329 0.929 . S
C342 C334 1.433 1_554 S
C342 N344 1.384 . S
N343 C339 1.427 1_556 S
N343 C340 1.384 . S
N344 C336 1.427 1_554 S
N344 C342 1.384 . S
C136 C119 1.786 . S
C140 C27 1.873 . S
C154 C32 1.442 . S
C158 C75 1.377 1_545 S
C172 C39 1.817 1_655 S
C176 C99 1.787 1_455 S
C190 C82 1.097 . S
C194 N3 1.295 . S
C208 C40 1.853 . S
C212 C118 1.801 . S
C226 C76 1.160 . S
C230 C33 1.205 . S
C244 C125 1.836 . S
C248 C13 1.892 1_455 S
C262 C56 1.094 . S
C266 N8 1.233 . S
C280 N89 0.689 . S
C284 N46 0.686 . S
C298 C113 0.633 . S
C302 C83 0.639 1_556 S
C316 C70 0.638 . S
C320 C126 0.634 . S
C334 N94 0.595 . S
C338 N51 0.586 . S
