# Generated by pormake.
# Topology smu, (6)-cn, num edge types: 1
# Building blocks:
#     Node 0, Type 0, BuildingBlock: BETFEN_clean_sbu_0, # of connection points: 6
#     Node 1, Type 0, BuildingBlock: BETFEN_clean_sbu_0, # of connection points: 6
#     Node 2, Type 0, BuildingBlock: BETFEN_clean_sbu_0, # of connection points: 6
#     Node 3, Type 0, BuildingBlock: BETFEN_clean_sbu_0, # of connection points: 6
#     Node 4, Type 0, BuildingBlock: BETFEN_clean_sbu_0, # of connection points: 6
#     Node 5, Type 0, BuildingBlock: BETFEN_clean_sbu_0, # of connection points: 6
#     Edge 6, Type (0, 0), None
#     Edge 7, Type (0, 0), None
#     Edge 8, Type (0, 0), None
#     Edge 9, Type (0, 0), None
#     Edge 10, Type (0, 0), None
#     Edge 11, Type (0, 0), None
#     Edge 12, Type (0, 0), None
#     Edge 13, Type (0, 0), None
#     Edge 14, Type (0, 0), None
#     Edge 15, Type (0, 0), None
#     Edge 16, Type (0, 0), None
#     Edge 17, Type (0, 0), None
#     Edge 18, Type (0, 0), None
#     Edge 19, Type (0, 0), None
#     Edge 20, Type (0, 0), None
#     Edge 21, Type (0, 0), None
#     Edge 22, Type (0, 0), None
#     Edge 23, Type (0, 0), None
# Relax obj value: 0.253
# Max RMSD: 0.392
# Mean RMSD: 0.392
data_MOF--net-smu--node1-BETFEN_clean_sbu_0--edge1-none
_symmetry_space_group_name_H-M    P1
_symmetry_Int_Tables_number       1
_symmetry_cell_setting            triclinic
loop_
_symmetry_equiv_pos_as_xyz
'x, y, z'
_cell_length_a     22.869606
_cell_length_b     22.867588
_cell_length_c     12.248737
_cell_angle_alpha  90.002133
_cell_angle_beta   89.994668
_cell_angle_gamma 119.99478
loop_
_atom_site_label
_atom_site_type_symbol
_atom_site_fract_x
_atom_site_fract_y
_atom_site_fract_z
_atom_type_partial_charge
Pr0 Pr 0.34899 0.13362 0.25766 0.0
Pr1 Pr 0.44559 0.09808 0.22835 0.0
C2 C 0.29373 0.21247 0.24601 0.0
C3 C 0.2634 0.25573 0.23942 0.0
C4 C 0.25451 0.28557 0.33332 0.0
C5 C 0.22074 0.32228 0.32708 0.0
C6 C 0.19649 0.33011 0.22629 0.0
C7 C 0.21266 0.30694 0.13108 0.0
C8 C 0.24446 0.26876 0.13802 0.0
C9 C 0.35598 0.0678 0.44349 0.0
C10 C 0.28355 0.9795 0.22535 0.0
C11 C 0.56422 0.09911 0.24122 0.0
C12 C 0.63821 0.1484 0.24265 0.0
C13 C 0.67611 0.16552 0.14513 0.0
C14 C 0.74666 0.20669 0.14684 0.0
C15 C 0.78099 0.23076 0.24625 0.0
C16 C 0.74323 0.21513 0.34325 0.0
C17 C 0.67265 0.17504 0.34148 0.0
C18 C 0.3718 0.0525 0.04294 0.0
C19 C 0.49585 0.25516 0.25162 0.0
O20 O 0.33231 0.21095 0.16862 0.0
O21 O 0.27896 0.16859 0.3247 0.0
O22 O 0.40671 0.11378 0.39219 0.0
O23 O 0.29887 0.05857 0.40544 0.0
O24 O 0.34397 0.99097 0.25951 0.0
O25 O 0.27378 1.02943 0.19877 0.0
O26 O 0.52801 0.09424 0.32729 0.0
O27 O 0.5325 0.09344 0.14995 0.0
O28 O 0.3843 0.10921 0.08755 0.0
O29 O 0.39918 1.02197 0.0922 0.0
O30 O 0.44598 0.22846 0.3201 0.0
O31 O 0.49944 0.21429 0.18073 0.0
H32 H 0.27123 0.27832 0.41169 0.0
H33 H 0.20703 0.3377 0.402 0.0
H34 H 0.19233 0.31017 0.05284 0.0
H35 H 0.24992 0.2455 0.06519 0.0
H36 H 0.65148 0.1453 0.06756 0.0
H37 H 0.77459 0.21648 0.07118 0.0
H38 H 0.76859 0.23261 0.4211 0.0
H39 H 0.64538 0.16306 0.41805 0.0
Pr40 Pr 0.87319 0.76172 0.25766 0.0
Pr41 Pr 0.74105 0.66511 0.22835 0.0
C42 C 1.0073 0.81699 0.24604 0.0
C43 C 0.08088 0.84733 0.23942 0.0
C44 C 0.11961 0.85622 0.33332 0.0
C45 C 0.19009 0.88998 0.32707 0.0
C46 C 0.22214 0.91417 0.22625 0.0
C47 C 0.18283 0.89807 0.13103 0.0
C48 C 0.11286 0.86629 0.13799 0.0
C49 C 0.80036 0.75473 0.44347 0.0
C50 C 0.7845 0.82716 0.22538 0.0
C51 C 0.62344 0.54649 0.24123 0.0
C52 C 0.59873 0.4725 0.24267 0.0
C53 C 0.57796 0.4346 0.14516 0.0
C54 C 0.54857 0.36404 0.14688 0.0
C55 C 0.53829 0.32971 0.24629 0.0
C56 C 0.56042 0.36747 0.34329 0.0
C57 C 0.59091 0.43805 0.34151 0.0
C58 C 0.76926 0.73892 0.04293 0.0
C59 C 0.84784 0.61485 0.25163 0.0
O60 O 0.96721 0.77837 0.1687 0.0
O61 O 0.97817 0.83176 0.32472 0.0
O62 O 0.79562 0.70399 0.39218 0.0
O63 O 0.84826 0.81185 0.40543 0.0
O64 O 0.73556 0.76673 0.25953 0.0
O65 O 0.84419 0.83692 0.19876 0.0
O66 O 0.65477 0.5827 0.32729 0.0
O67 O 0.64951 0.57821 0.14995 0.0
O68 O 0.81347 0.72642 0.08754 0.0
O69 O 0.71136 0.71153 0.09221 0.0
O70 O 0.87099 0.6647 0.32013 0.0
O71 O 0.80341 0.61127 0.18072 0.0
H72 H 0.09564 0.83951 0.4117 0.0
H73 H 0.21921 0.90369 0.40197 0.0
H74 H 0.2064 0.91841 0.0528 0.0
H75 H 0.08414 0.86086 0.06519 0.0
H76 H 0.58239 0.45924 0.06758 0.0
H77 H 0.53044 0.33611 0.07122 0.0
H78 H 0.55251 0.3421 0.42114 0.0
H79 H 0.6062 0.46533 0.41807 0.0
Pr80 Pr 0.97707 0.23753 0.25763 0.0
Pr81 Pr 1.01261 0.36968 0.22837 0.0
C82 C 0.89825 0.10342 0.24596 0.0
C83 C 0.85501 1.02983 0.2394 0.0
C84 C 0.8252 0.99111 0.33334 0.0
C85 C 0.78846 0.92063 0.32712 0.0
C86 C 0.78057 0.88856 0.2263 0.0
C87 C 0.80376 0.92786 0.13106 0.0
C88 C 0.84196 0.99784 0.138 0.0
C89 C 1.04289 0.31033 0.44346 0.0
C90 C 0.13118 0.32622 0.22535 0.0
C91 C 1.01162 0.48731 0.2413 0.0
C92 C 0.96234 0.51202 0.24272 0.0
C93 C 0.94521 0.53277 0.14519 0.0
C94 C 0.90403 0.56215 0.1469 0.0
C95 C 0.87997 0.57242 0.24631 0.0
C96 C 0.8956 0.55031 0.34332 0.0
C97 C 0.9357 0.51983 0.34155 0.0
C98 C 1.05819 0.34147 0.04293 0.0
C99 C 0.85554 0.26286 0.25157 0.0
O100 O 0.89977 0.14351 0.16856 0.0
O101 O 0.9421 0.13254 0.32467 0.0
O102 O 0.99691 0.31509 0.39219 0.0
O103 O 1.05211 0.26244 0.40539 0.0
O104 O 0.1197 0.37516 0.25954 0.0
O105 O 0.08126 0.26653 0.19872 0.0
O106 O 1.01646 0.45594 0.32735 0.0
O107 O 1.01732 0.46128 0.15001 0.0
O108 O 1.00149 0.29727 0.08753 0.0
O109 O 0.08872 0.39938 0.0922 0.0
O110 O 0.88222 0.23968 0.32006 0.0
O111 O 0.89641 0.30736 0.18074 0.0
H112 H 0.83248 1.01509 0.41171 0.0
H113 H 0.77305 0.8915 0.40204 0.0
H114 H 0.8005 0.90428 0.05284 0.0
H115 H 0.86521 1.02654 0.06517 0.0
H116 H 0.96542 0.52834 0.06762 0.0
H117 H 0.89424 0.58028 0.07123 0.0
H118 H 0.87813 0.55822 0.42117 0.0
H119 H 0.9477 0.50455 0.41812 0.0
Pr120 Pr 0.12029 0.42333 0.7286 0.0
Pr121 Pr 0.15589 0.32684 0.7579 0.0
C122 C 0.12136 0.54199 0.74177 0.0
C123 C 0.17063 0.61599 0.74308 0.0
C124 C 0.18757 0.65385 0.64554 0.0
C125 C 0.2287 0.72442 0.64716 0.0
C126 C 0.2529 0.75879 0.74649 0.0
C127 C 0.23746 0.72107 0.84351 0.0
C128 C 0.19741 0.65048 0.84183 0.0
C129 C 0.0748 0.34986 0.54282 0.0
C130 C 0.27737 0.47374 0.75181 0.0
C131 C 0.2347 0.27157 0.74621 0.0
C132 C 0.27792 0.24124 0.73953 0.0
C133 C 0.30774 0.23231 0.8334 0.0
C134 C 0.34442 0.19851 0.8271 0.0
C135 C 0.35221 0.17426 0.72628 0.0
C136 C 0.32906 0.19047 0.63109 0.0
C137 C 0.29095 0.22232 0.63808 0.0
C138 C 0.08994 0.33378 0.94344 0.0
C139 C 1.00173 0.26151 0.72531 0.0
O140 O 0.11663 0.5058 0.82778 0.0
O141 O 0.11556 0.51025 0.65046 0.0
O142 O 0.1313 0.36182 0.58757 0.0
O143 O 1.04442 0.37736 0.59217 0.0
O144 O 0.25069 0.4239 0.82033 0.0
O145 O 0.23648 0.47725 0.68088 0.0
O146 O 0.23332 0.3103 0.66897 0.0
O147 O 0.1907 0.25666 0.82477 0.0
O148 O 0.1361 0.38447 0.8923 0.0
O149 O 0.08065 0.27663 0.90544 0.0
O150 O 1.01318 0.32188 0.75967 0.0
O151 O 1.05168 0.25177 0.69872 0.0
H152 H 0.16723 0.62919 0.56803 0.0
H153 H 0.23833 0.75232 0.57149 0.0
H154 H 0.25504 0.74647 0.92131 0.0
H155 H 0.18557 0.62323 0.91841 0.0
H156 H 0.30051 0.24902 0.91179 0.0
H157 H 0.35982 0.18477 0.90199 0.0
H158 H 0.33228 0.17014 0.55284 0.0
H159 H 0.26772 0.22784 0.56528 0.0
Pr160 Pr 0.39161 0.99043 0.72864 0.0
Pr161 Pr 0.25949 0.95479 0.75793 0.0
C162 C 0.50919 0.98938 0.74182 0.0
C163 C 0.53393 0.94012 0.74312 0.0
C164 C 0.55485 0.92318 0.64558 0.0
C165 C 0.58429 0.88205 0.64719 0.0
C166 C 0.59445 0.85784 0.74652 0.0
C167 C 0.57217 0.87328 0.84355 0.0
C168 C 0.54163 0.91333 0.84187 0.0
C169 C 0.36361 1.03589 0.54285 0.0
C170 C 0.28493 0.83333 0.75178 0.0
C171 C 0.12541 0.876 0.74622 0.0
C172 C 1.05185 0.83279 0.73955 0.0
C173 C 1.01309 0.80297 0.83342 0.0
C174 C 0.94262 0.7663 0.8271 0.0
C175 C 0.9106 0.75853 0.72628 0.0
C176 C 0.94996 0.78168 0.6311 0.0
C177 C 1.01993 0.8198 0.6381 0.0
C178 C 0.33237 1.02076 0.94345 0.0
C179 C 0.34832 0.10896 0.72532 0.0
O180 O 0.47771 0.99409 0.82782 0.0
O181 O 0.48328 0.99521 0.65051 0.0
O182 O 0.31909 0.97939 0.58762 0.0
O183 O 0.42149 0.0663 0.59217 0.0
O184 O 0.26175 0.85999 0.82034 0.0
O185 O 0.32935 0.87424 0.68089 0.0
O186 O 0.16552 0.87738 0.66898 0.0
O187 O 0.1545 0.91997 0.82481 0.0
O188 O 0.3369 0.97459 0.89231 0.0
O189 O 0.2845 1.03003 0.90547 0.0
O190 O 0.39723 0.09753 0.7597 0.0
O191 O 0.28864 0.05901 0.69872 0.0
H192 H 0.55052 0.94352 0.56807 0.0
H193 H 0.60255 0.87241 0.57152 0.0
H194 H 0.57999 0.8557 0.92134 0.0
H195 H 0.52623 0.92518 0.91845 0.0
H196 H 1.03702 0.81019 0.91182 0.0
H197 H 0.91347 0.75088 0.90199 0.0
H198 H 0.92644 0.77848 0.55285 0.0
H199 H 1.04868 0.84303 0.5653 0.0
Pr200 Pr 0.68737 0.71911 0.72864 0.0
Pr201 Pr 0.78385 0.85124 0.75792 0.0
C202 C 0.56872 0.60154 0.74183 0.0
C203 C 0.49472 0.57679 0.74314 0.0
C204 C 0.45687 0.55588 0.64559 0.0
C205 C 0.3863 0.52644 0.64721 0.0
C206 C 0.35192 0.51624 0.74654 0.0
C207 C 0.38963 0.53852 0.84357 0.0
C208 C 0.46021 0.56906 0.84189 0.0
C209 C 0.76084 0.74711 0.54284 0.0
C210 C 0.63697 0.82582 0.7518 0.0
C211 C 0.83916 0.98533 0.74622 0.0
C212 C 0.86952 0.0589 0.73955 0.0
C213 C 0.87846 0.09765 0.83344 0.0
C214 C 0.91225 0.16813 0.82713 0.0
C215 C 0.93642 0.20013 0.72627 0.0
C216 C 0.92027 0.1608 0.63107 0.0
C217 C 0.88844 0.09082 0.63809 0.0
C218 C 0.77694 0.77835 0.94344 0.0
C219 C 0.84919 0.7624 0.7253 0.0
O220 O 0.6049 0.63302 0.82783 0.0
O221 O 0.60046 0.62745 0.65052 0.0
O222 O 0.74886 0.79164 0.58761 0.0
O223 O 0.73335 0.68923 0.59217 0.0
O224 O 0.6868 0.84899 0.82034 0.0
O225 O 0.63345 0.78139 0.6809 0.0
O226 O 0.80043 0.94523 0.66898 0.0
O227 O 0.85403 0.95623 0.8248 0.0
O228 O 0.72624 0.77382 0.89232 0.0
O229 O 0.83407 0.82622 0.90544 0.0
O230 O 0.78884 0.71349 0.75969 0.0
O231 O 0.85891 0.82209 0.69868 0.0
H232 H 0.48154 0.56023 0.56808 0.0
H233 H 0.35841 0.50819 0.57153 0.0
H234 H 0.36422 0.53068 0.92137 0.0
H235 H 0.48745 0.58446 0.91848 0.0
H236 H 0.86177 0.07371 0.91184 0.0
H237 H 0.92599 0.19729 0.90201 0.0
H238 H 0.9406 0.18434 0.55283 0.0
H239 H 0.88294 0.06207 0.5653 0.0
loop_
_geom_bond_atom_site_label_1
_geom_bond_atom_site_label_2
_geom_bond_distance
_geom_bond_site_symmetry_2
_ccdc_geom_bond_type
Pr0 C2 2.880 . S
Pr0 O20 2.562 . S
Pr0 O21 2.490 . S
Pr0 O22 2.695 . S
Pr0 O23 2.512 . S
Pr0 O25 2.437 . S
Pr0 O28 2.436 . S
Pr0 O30 2.438 . S
Pr1 C11 2.880 . S
Pr1 O22 2.436 . S
Pr1 O24 2.438 1_545 S
Pr1 O26 2.562 . S
Pr1 O27 2.490 . S
Pr1 O28 2.695 . S
Pr1 O29 2.512 . S
Pr1 O31 2.437 . S
C2 Pr0 2.880 . S
C2 C3 1.491 . S
C2 O20 1.254 . S
C2 O21 1.225 . S
C3 C2 1.491 . S
C3 C4 1.392 . S
C3 C8 1.356 . S
C4 C3 1.392 . S
C4 C5 1.364 1_455 S
C4 H32 0.929 . S
C5 C4 1.364 1_655 S
C5 C6 1.388 . S
C5 H33 0.931 . S
C6 C5 1.388 . S
C6 C7 1.373 . S
C7 C6 1.373 . S
C7 C8 1.409 1_655 S
C7 H34 0.931 . S
C8 C3 1.356 . S
C8 C7 1.409 1_455 S
C8 H35 0.930 . S
C9 O22 1.270 . S
C9 O23 1.248 . S
C10 O24 1.267 . S
C10 O25 1.278 1_565 S
C11 Pr1 2.880 . S
C11 C12 1.491 . S
C11 O26 1.254 . S
C11 O27 1.225 . S
C12 C11 1.491 . S
C12 C13 1.392 . S
C12 C17 1.356 . S
C13 C12 1.392 . S
C13 C14 1.368 . S
C13 H36 0.929 . S
C14 C13 1.368 . S
C14 C15 1.386 . S
C14 H37 0.929 . S
C15 C14 1.386 . S
C15 C16 1.373 . S
C16 C15 1.373 . S
C16 C17 1.409 . S
C16 H38 0.931 . S
C17 C12 1.356 . S
C17 C16 1.409 . S
C17 H39 0.930 . S
C18 O28 1.270 . S
C18 O29 1.248 . S
C19 O30 1.267 . S
C19 O31 1.278 . S
O20 Pr0 2.562 . S
O20 C2 1.254 . S
O21 Pr0 2.490 . S
O21 C2 1.225 . S
O22 Pr0 2.695 . S
O22 Pr1 2.436 . S
O22 C9 1.270 . S
O23 Pr0 2.512 . S
O23 C9 1.248 . S
O24 Pr1 2.438 1_565 S
O24 C10 1.267 . S
O25 Pr0 2.437 . S
O25 C10 1.278 1_545 S
O26 Pr1 2.562 . S
O26 C11 1.254 . S
O27 Pr1 2.490 . S
O27 C11 1.225 . S
O28 Pr0 2.436 . S
O28 Pr1 2.695 . S
O28 C18 1.270 . S
O29 Pr1 2.512 . S
O29 C18 1.248 . S
O30 Pr0 2.438 . S
O30 C19 1.267 . S
O31 Pr1 2.437 . S
O31 C19 1.278 . S
H32 C4 0.929 . S
H33 C5 0.931 . S
H34 C7 0.931 . S
H35 C8 0.930 . S
H36 C13 0.929 . S
H37 C14 0.929 . S
H38 C16 0.931 . S
H39 C17 0.930 . S
Pr40 C42 2.880 . S
Pr40 O60 2.562 . S
Pr40 O61 2.490 . S
Pr40 O62 2.695 . S
Pr40 O63 2.512 . S
Pr40 O65 2.437 . S
Pr40 O68 2.436 . S
Pr40 O70 2.438 . S
Pr41 C51 2.880 . S
Pr41 O62 2.436 . S
Pr41 O64 2.438 . S
Pr41 O66 2.562 . S
Pr41 O67 2.490 . S
Pr41 O68 2.695 . S
Pr41 O69 2.512 . S
Pr41 O71 2.437 . S
C42 Pr40 2.880 . S
C42 C43 1.491 1_655 S
C42 O60 1.254 . S
C42 O61 1.225 . S
C43 C42 1.491 1_455 S
C43 C44 1.392 . S
C43 C48 1.356 . S
C44 C43 1.392 . S
C44 C45 1.366 1_565 S
C44 H72 0.929 . S
C45 C44 1.366 1_545 S
C45 C46 1.389 . S
C45 H73 0.929 . S
C46 C45 1.389 . S
C46 C47 1.373 . S
C47 C46 1.373 . S
C47 C48 1.409 1_545 S
C47 H74 0.931 . S
C48 C43 1.356 . S
C48 C47 1.409 1_565 S
C48 H75 0.930 . S
C49 O62 1.270 . S
C49 O63 1.248 . S
C50 O64 1.267 . S
C50 O65 1.278 . S
C51 Pr41 2.880 . S
C51 C52 1.491 . S
C51 O66 1.254 . S
C51 O67 1.225 . S
C52 C51 1.491 . S
C52 C53 1.392 . S
C52 C57 1.356 . S
C53 C52 1.392 . S
C53 C54 1.368 . S
C53 H76 0.929 . S
C54 C53 1.368 . S
C54 C55 1.386 . S
C54 H77 0.929 . S
C55 C54 1.386 . S
C55 C56 1.373 . S
C56 C55 1.373 . S
C56 C57 1.409 . S
C56 H78 0.931 . S
C57 C52 1.356 . S
C57 C56 1.409 . S
C57 H79 0.930 . S
C58 O68 1.270 . S
C58 O69 1.248 . S
C59 O70 1.267 . S
C59 O71 1.278 . S
O60 Pr40 2.562 . S
O60 C42 1.254 . S
O61 Pr40 2.490 . S
O61 C42 1.225 . S
O62 Pr40 2.695 . S
O62 Pr41 2.436 . S
O62 C49 1.270 . S
O63 Pr40 2.512 . S
O63 C49 1.248 . S
O64 Pr41 2.438 . S
O64 C50 1.267 . S
O65 Pr40 2.437 . S
O65 C50 1.278 . S
O66 Pr41 2.562 . S
O66 C51 1.254 . S
O67 Pr41 2.490 . S
O67 C51 1.225 . S
O68 Pr40 2.436 . S
O68 Pr41 2.695 . S
O68 C58 1.270 . S
O69 Pr41 2.512 . S
O69 C58 1.248 . S
O70 Pr40 2.438 . S
O70 C59 1.267 . S
O71 Pr41 2.437 . S
O71 C59 1.278 . S
H72 C44 0.929 . S
H73 C45 0.929 . S
H74 C47 0.931 . S
H75 C48 0.930 . S
H76 C53 0.929 . S
H77 C54 0.929 . S
H78 C56 0.931 . S
H79 C57 0.930 . S
Pr80 C82 2.880 . S
Pr80 O100 2.562 . S
Pr80 O101 2.490 . S
Pr80 O102 2.695 . S
Pr80 O103 2.512 . S
Pr80 O105 2.437 . S
Pr80 O108 2.436 . S
Pr80 O110 2.438 . S
Pr81 C91 2.880 . S
Pr81 O102 2.436 . S
Pr81 O104 2.438 1_655 S
Pr81 O106 2.562 . S
Pr81 O107 2.490 . S
Pr81 O108 2.695 . S
Pr81 O109 2.512 . S
Pr81 O111 2.437 . S
C82 Pr80 2.880 . S
C82 C83 1.491 1_545 S
C82 O100 1.254 . S
C82 O101 1.225 . S
C83 C82 1.491 1_565 S
C83 C84 1.392 . S
C83 C88 1.356 . S
C84 C83 1.392 . S
C84 C85 1.368 . S
C84 H112 0.929 . S
C85 C84 1.368 . S
C85 C86 1.386 . S
C85 H113 0.929 . S
C86 C85 1.386 . S
C86 C87 1.373 . S
C87 C86 1.373 . S
C87 C88 1.409 . S
C87 H114 0.931 . S
C88 C83 1.356 . S
C88 C87 1.409 . S
C88 H115 0.930 . S
C89 O102 1.270 . S
C89 O103 1.248 . S
C90 O104 1.267 . S
C90 O105 1.278 1_455 S
C91 Pr81 2.880 . S
C91 C92 1.491 . S
C91 O106 1.254 . S
C91 O107 1.225 . S
C92 C91 1.491 . S
C92 C93 1.392 . S
C92 C97 1.356 . S
C93 C92 1.392 . S
C93 C94 1.368 . S
C93 H116 0.929 . S
C94 C93 1.368 . S
C94 C95 1.386 . S
C94 H117 0.929 . S
C95 C94 1.386 . S
C95 C96 1.373 . S
C96 C95 1.373 . S
C96 C97 1.409 . S
C96 H118 0.931 . S
C97 C92 1.356 . S
C97 C96 1.409 . S
C97 H119 0.930 . S
C98 O108 1.270 . S
C98 O109 1.248 . S
C99 O110 1.267 . S
C99 O111 1.278 . S
O100 Pr80 2.562 . S
O100 C82 1.254 . S
O101 Pr80 2.490 . S
O101 C82 1.225 . S
O102 Pr80 2.695 . S
O102 Pr81 2.436 . S
O102 C89 1.270 . S
O103 Pr80 2.512 . S
O103 C89 1.248 . S
O104 Pr81 2.438 1_455 S
O104 C90 1.267 . S
O105 Pr80 2.437 . S
O105 C90 1.278 1_655 S
O106 Pr81 2.562 . S
O106 C91 1.254 . S
O107 Pr81 2.490 . S
O107 C91 1.225 . S
O108 Pr80 2.436 . S
O108 Pr81 2.695 . S
O108 C98 1.270 . S
O109 Pr81 2.512 . S
O109 C98 1.248 . S
O110 Pr80 2.438 . S
O110 C99 1.267 . S
O111 Pr81 2.437 . S
O111 C99 1.278 . S
H112 C84 0.929 . S
H113 C85 0.929 . S
H114 C87 0.931 . S
H115 C88 0.930 . S
H116 C93 0.929 . S
H117 C94 0.929 . S
H118 C96 0.931 . S
H119 C97 0.930 . S
Pr120 C122 2.880 . S
Pr120 O140 2.562 . S
Pr120 O141 2.490 . S
Pr120 O142 2.695 . S
Pr120 O143 2.512 . S
Pr120 O145 2.437 . S
Pr120 O148 2.436 . S
Pr120 O150 2.438 1_455 S
Pr121 C131 2.880 . S
Pr121 O142 2.436 . S
Pr121 O144 2.438 . S
Pr121 O146 2.562 . S
Pr121 O147 2.490 . S
Pr121 O148 2.695 . S
Pr121 O149 2.512 . S
Pr121 O151 2.437 . S
C122 Pr120 2.880 . S
C122 C123 1.491 . S
C122 O140 1.254 . S
C122 O141 1.225 . S
C123 C122 1.491 . S
C123 C124 1.392 . S
C123 C128 1.356 . S
C124 C123 1.392 . S
C124 C125 1.368 . S
C124 H152 0.929 . S
C125 C124 1.368 . S
C125 C126 1.386 . S
C125 H153 0.929 . S
C126 C125 1.386 . S
C126 C127 1.373 . S
C127 C126 1.373 . S
C127 C128 1.409 . S
C127 H154 0.931 . S
C128 C123 1.356 . S
C128 C127 1.409 . S
C128 H155 0.930 . S
C129 O142 1.270 . S
C129 O143 1.248 . S
C130 O144 1.267 . S
C130 O145 1.278 . S
C131 Pr121 2.880 . S
C131 C132 1.491 . S
C131 O146 1.254 . S
C131 O147 1.225 . S
C132 C131 1.491 . S
C132 C133 1.392 . S
C132 C137 1.356 . S
C133 C132 1.392 . S
C133 C134 1.364 1_545 S
C133 H156 0.929 . S
C134 C133 1.364 1_565 S
C134 C135 1.388 . S
C134 H157 0.931 . S
C135 C134 1.388 . S
C135 C136 1.373 . S
C136 C135 1.373 . S
C136 C137 1.409 1_565 S
C136 H158 0.931 . S
C137 C132 1.356 . S
C137 C136 1.409 1_545 S
C137 H159 0.930 . S
C138 O148 1.270 . S
C138 O149 1.248 . S
C139 O150 1.267 . S
C139 O151 1.278 1_655 S
O140 Pr120 2.562 . S
O140 C122 1.254 . S
O141 Pr120 2.490 . S
O141 C122 1.225 . S
O142 Pr120 2.695 . S
O142 Pr121 2.436 . S
O142 C129 1.270 . S
O143 Pr120 2.512 . S
O143 C129 1.248 . S
O144 Pr121 2.438 . S
O144 C130 1.267 . S
O145 Pr120 2.437 . S
O145 C130 1.278 . S
O146 Pr121 2.562 . S
O146 C131 1.254 . S
O147 Pr121 2.490 . S
O147 C131 1.225 . S
O148 Pr120 2.436 . S
O148 Pr121 2.695 . S
O148 C138 1.270 . S
O149 Pr121 2.512 . S
O149 C138 1.248 . S
O150 Pr120 2.438 1_655 S
O150 C139 1.267 . S
O151 Pr121 2.437 . S
O151 C139 1.278 1_455 S
H152 C124 0.929 . S
H153 C125 0.929 . S
H154 C127 0.931 . S
H155 C128 0.930 . S
H156 C133 0.929 . S
H157 C134 0.931 . S
H158 C136 0.931 . S
H159 C137 0.930 . S
Pr160 C162 2.880 . S
Pr160 O180 2.562 . S
Pr160 O181 2.490 . S
Pr160 O182 2.695 . S
Pr160 O183 2.512 . S
Pr160 O185 2.437 . S
Pr160 O188 2.436 . S
Pr160 O190 2.438 1_565 S
Pr161 C171 2.880 . S
Pr161 O182 2.436 . S
Pr161 O184 2.438 . S
Pr161 O186 2.562 . S
Pr161 O187 2.490 . S
Pr161 O188 2.695 . S
Pr161 O189 2.512 . S
Pr161 O191 2.437 . S
C162 Pr160 2.880 . S
C162 C163 1.491 . S
C162 O180 1.254 . S
C162 O181 1.225 . S
C163 C162 1.491 . S
C163 C164 1.392 . S
C163 C168 1.356 . S
C164 C163 1.392 . S
C164 C165 1.368 . S
C164 H192 0.929 . S
C165 C164 1.368 . S
C165 C166 1.386 . S
C165 H193 0.929 . S
C166 C165 1.386 . S
C166 C167 1.373 . S
C167 C166 1.373 . S
C167 C168 1.409 . S
C167 H194 0.931 . S
C168 C163 1.356 . S
C168 C167 1.409 . S
C168 H195 0.930 . S
C169 O182 1.270 . S
C169 O183 1.248 . S
C170 O184 1.267 . S
C170 O185 1.278 . S
C171 Pr161 2.880 . S
C171 C172 1.491 1_455 S
C171 O186 1.254 . S
C171 O187 1.225 . S
C172 C171 1.491 1_655 S
C172 C173 1.392 . S
C172 C177 1.356 . S
C173 C172 1.392 . S
C173 C174 1.368 . S
C173 H196 0.929 . S
C174 C173 1.368 . S
C174 C175 1.386 . S
C174 H197 0.929 . S
C175 C174 1.386 . S
C175 C176 1.373 . S
C176 C175 1.373 . S
C176 C177 1.409 . S
C176 H198 0.931 . S
C177 C172 1.356 . S
C177 C176 1.409 . S
C177 H199 0.930 . S
C178 O188 1.270 . S
C178 O189 1.248 . S
C179 O190 1.267 . S
C179 O191 1.278 1_545 S
O180 Pr160 2.562 . S
O180 C162 1.254 . S
O181 Pr160 2.490 . S
O181 C162 1.225 . S
O182 Pr160 2.695 . S
O182 Pr161 2.436 . S
O182 C169 1.270 . S
O183 Pr160 2.512 . S
O183 C169 1.248 . S
O184 Pr161 2.438 . S
O184 C170 1.267 . S
O185 Pr160 2.437 . S
O185 C170 1.278 . S
O186 Pr161 2.562 . S
O186 C171 1.254 . S
O187 Pr161 2.490 . S
O187 C171 1.225 . S
O188 Pr160 2.436 . S
O188 Pr161 2.695 . S
O188 C178 1.270 . S
O189 Pr161 2.512 . S
O189 C178 1.248 . S
O190 Pr160 2.438 1_545 S
O190 C179 1.267 . S
O191 Pr161 2.437 . S
O191 C179 1.278 1_565 S
H192 C164 0.929 . S
H193 C165 0.929 . S
H194 C167 0.931 . S
H195 C168 0.930 . S
H196 C173 0.929 . S
H197 C174 0.929 . S
H198 C176 0.931 . S
H199 C177 0.930 . S
Pr200 C202 2.880 . S
Pr200 O220 2.562 . S
Pr200 O221 2.490 . S
Pr200 O222 2.695 . S
Pr200 O223 2.512 . S
Pr200 O225 2.437 . S
Pr200 O228 2.436 . S
Pr200 O230 2.438 . S
Pr201 C211 2.880 . S
Pr201 O222 2.436 . S
Pr201 O224 2.438 . S
Pr201 O226 2.562 . S
Pr201 O227 2.490 . S
Pr201 O228 2.695 . S
Pr201 O229 2.512 . S
Pr201 O231 2.437 . S
C202 Pr200 2.880 . S
C202 C203 1.491 . S
C202 O220 1.254 . S
C202 O221 1.225 . S
C203 C202 1.491 . S
C203 C204 1.392 . S
C203 C208 1.356 . S
C204 C203 1.392 . S
C204 C205 1.368 . S
C204 H232 0.929 . S
C205 C204 1.368 . S
C205 C206 1.386 . S
C205 H233 0.929 . S
C206 C205 1.386 . S
C206 C207 1.373 . S
C207 C206 1.373 . S
C207 C208 1.409 . S
C207 H234 0.931 . S
C208 C203 1.356 . S
C208 C207 1.409 . S
C208 H235 0.930 . S
C209 O222 1.270 . S
C209 O223 1.248 . S
C210 O224 1.267 . S
C210 O225 1.278 . S
C211 Pr201 2.880 . S
C211 C212 1.491 1_565 S
C211 O226 1.254 . S
C211 O227 1.225 . S
C212 C211 1.491 1_545 S
C212 C213 1.392 . S
C212 C217 1.356 . S
C213 C212 1.392 . S
C213 C214 1.366 1_655 S
C213 H236 0.929 . S
C214 C213 1.366 1_455 S
C214 C215 1.389 . S
C214 H237 0.929 . S
C215 C214 1.389 . S
C215 C216 1.373 . S
C216 C215 1.373 . S
C216 C217 1.409 1_455 S
C216 H238 0.931 . S
C217 C212 1.356 . S
C217 C216 1.409 1_655 S
C217 H239 0.930 . S
C218 O228 1.270 . S
C218 O229 1.248 . S
C219 O230 1.267 . S
C219 O231 1.278 . S
O220 Pr200 2.562 . S
O220 C202 1.254 . S
O221 Pr200 2.490 . S
O221 C202 1.225 . S
O222 Pr200 2.695 . S
O222 Pr201 2.436 . S
O222 C209 1.270 . S
O223 Pr200 2.512 . S
O223 C209 1.248 . S
O224 Pr201 2.438 . S
O224 C210 1.267 . S
O225 Pr200 2.437 . S
O225 C210 1.278 . S
O226 Pr201 2.562 . S
O226 C211 1.254 . S
O227 Pr201 2.490 . S
O227 C211 1.225 . S
O228 Pr200 2.436 . S
O228 Pr201 2.695 . S
O228 C218 1.270 . S
O229 Pr201 2.512 . S
O229 C218 1.248 . S
O230 Pr200 2.438 . S
O230 C219 1.267 . S
O231 Pr201 2.437 . S
O231 C219 1.278 . S
H232 C204 0.929 . S
H233 C205 0.929 . S
H234 C207 0.931 . S
H235 C208 0.930 . S
H236 C213 0.929 . S
H237 C214 0.929 . S
H238 C216 0.931 . S
H239 C217 0.930 . S
C178 C18 4.484 1_566 S
C209 C49 4.484 . S
C98 C138 4.484 1_654 S
C9 C169 4.484 1_545 S
C218 C58 4.484 1_556 S
C89 C129 4.484 1_655 S
C15 C99 2.753 . S
C55 C19 2.753 . S
C95 C59 2.753 . S
C126 C170 2.753 . S
C166 C210 2.753 . S
C130 C206 2.753 . S
C6 C90 2.744 1_655 S
C46 C10 2.744 1_545 S
C86 C50 2.744 . S
C135 C179 2.744 1_565 S
C175 C219 2.744 . S
C139 C215 2.744 1_655 S
