# Generated by pormake.
# Topology wiq, (6)-cn, num edge types: 1
# Building blocks:
#     Node 0, Type 0, BuildingBlock: OJICUG_clean_sbu_0, # of connection points: 6
#     Node 1, Type 0, BuildingBlock: OJICUG_clean_sbu_0, # of connection points: 6
#     Node 2, Type 0, BuildingBlock: OJICUG_clean_sbu_0, # of connection points: 6
#     Node 3, Type 0, BuildingBlock: OJICUG_clean_sbu_0, # of connection points: 6
#     Node 4, Type 0, BuildingBlock: OJICUG_clean_sbu_0, # of connection points: 6
#     Node 5, Type 0, BuildingBlock: OJICUG_clean_sbu_0, # of connection points: 6
#     Node 6, Type 0, BuildingBlock: OJICUG_clean_sbu_0, # of connection points: 6
#     Node 7, Type 0, BuildingBlock: OJICUG_clean_sbu_0, # of connection points: 6
#     Node 8, Type 0, BuildingBlock: OJICUG_clean_sbu_0, # of connection points: 6
#     Node 9, Type 0, BuildingBlock: OJICUG_clean_sbu_0, # of connection points: 6
#     Node 10, Type 0, BuildingBlock: OJICUG_clean_sbu_0, # of connection points: 6
#     Node 11, Type 0, BuildingBlock: OJICUG_clean_sbu_0, # of connection points: 6
#     Node 12, Type 0, BuildingBlock: OJICUG_clean_sbu_0, # of connection points: 6
#     Node 13, Type 0, BuildingBlock: OJICUG_clean_sbu_0, # of connection points: 6
#     Node 14, Type 0, BuildingBlock: OJICUG_clean_sbu_0, # of connection points: 6
#     Node 15, Type 0, BuildingBlock: OJICUG_clean_sbu_0, # of connection points: 6
#     Node 16, Type 0, BuildingBlock: OJICUG_clean_sbu_0, # of connection points: 6
#     Node 17, Type 0, BuildingBlock: OJICUG_clean_sbu_0, # of connection points: 6
#     Node 18, Type 0, BuildingBlock: OJICUG_clean_sbu_0, # of connection points: 6
#     Node 19, Type 0, BuildingBlock: OJICUG_clean_sbu_0, # of connection points: 6
#     Node 20, Type 0, BuildingBlock: OJICUG_clean_sbu_0, # of connection points: 6
#     Node 21, Type 0, BuildingBlock: OJICUG_clean_sbu_0, # of connection points: 6
#     Node 22, Type 0, BuildingBlock: OJICUG_clean_sbu_0, # of connection points: 6
#     Node 23, Type 0, BuildingBlock: OJICUG_clean_sbu_0, # of connection points: 6
#     Node 24, Type 0, BuildingBlock: OJICUG_clean_sbu_0, # of connection points: 6
#     Node 25, Type 0, BuildingBlock: OJICUG_clean_sbu_0, # of connection points: 6
#     Node 26, Type 0, BuildingBlock: OJICUG_clean_sbu_0, # of connection points: 6
#     Node 27, Type 0, BuildingBlock: OJICUG_clean_sbu_0, # of connection points: 6
#     Node 28, Type 0, BuildingBlock: OJICUG_clean_sbu_0, # of connection points: 6
#     Node 29, Type 0, BuildingBlock: OJICUG_clean_sbu_0, # of connection points: 6
#     Node 30, Type 0, BuildingBlock: OJICUG_clean_sbu_0, # of connection points: 6
#     Node 31, Type 0, BuildingBlock: OJICUG_clean_sbu_0, # of connection points: 6
#     Edge 32, Type (0, 0), BuildingBlock: CIFDUS_clean_linker_0, # of connection points: 2
#     Edge 33, Type (0, 0), BuildingBlock: CIFDUS_clean_linker_0, # of connection points: 2
#     Edge 34, Type (0, 0), BuildingBlock: CIFDUS_clean_linker_0, # of connection points: 2
#     Edge 35, Type (0, 0), BuildingBlock: CIFDUS_clean_linker_0, # of connection points: 2
#     Edge 36, Type (0, 0), BuildingBlock: CIFDUS_clean_linker_0, # of connection points: 2
#     Edge 37, Type (0, 0), BuildingBlock: CIFDUS_clean_linker_0, # of connection points: 2
#     Edge 38, Type (0, 0), BuildingBlock: CIFDUS_clean_linker_0, # of connection points: 2
#     Edge 39, Type (0, 0), BuildingBlock: CIFDUS_clean_linker_0, # of connection points: 2
#     Edge 40, Type (0, 0), BuildingBlock: CIFDUS_clean_linker_0, # of connection points: 2
#     Edge 41, Type (0, 0), BuildingBlock: CIFDUS_clean_linker_0, # of connection points: 2
#     Edge 42, Type (0, 0), BuildingBlock: CIFDUS_clean_linker_0, # of connection points: 2
#     Edge 43, Type (0, 0), BuildingBlock: CIFDUS_clean_linker_0, # of connection points: 2
#     Edge 44, Type (0, 0), BuildingBlock: CIFDUS_clean_linker_0, # of connection points: 2
#     Edge 45, Type (0, 0), BuildingBlock: CIFDUS_clean_linker_0, # of connection points: 2
#     Edge 46, Type (0, 0), BuildingBlock: CIFDUS_clean_linker_0, # of connection points: 2
#     Edge 47, Type (0, 0), BuildingBlock: CIFDUS_clean_linker_0, # of connection points: 2
#     Edge 48, Type (0, 0), BuildingBlock: CIFDUS_clean_linker_0, # of connection points: 2
#     Edge 49, Type (0, 0), BuildingBlock: CIFDUS_clean_linker_0, # of connection points: 2
#     Edge 50, Type (0, 0), BuildingBlock: CIFDUS_clean_linker_0, # of connection points: 2
#     Edge 51, Type (0, 0), BuildingBlock: CIFDUS_clean_linker_0, # of connection points: 2
#     Edge 52, Type (0, 0), BuildingBlock: CIFDUS_clean_linker_0, # of connection points: 2
#     Edge 53, Type (0, 0), BuildingBlock: CIFDUS_clean_linker_0, # of connection points: 2
#     Edge 54, Type (0, 0), BuildingBlock: CIFDUS_clean_linker_0, # of connection points: 2
#     Edge 55, Type (0, 0), BuildingBlock: CIFDUS_clean_linker_0, # of connection points: 2
#     Edge 56, Type (0, 0), BuildingBlock: CIFDUS_clean_linker_0, # of connection points: 2
#     Edge 57, Type (0, 0), BuildingBlock: CIFDUS_clean_linker_0, # of connection points: 2
#     Edge 58, Type (0, 0), BuildingBlock: CIFDUS_clean_linker_0, # of connection points: 2
#     Edge 59, Type (0, 0), BuildingBlock: CIFDUS_clean_linker_0, # of connection points: 2
#     Edge 60, Type (0, 0), BuildingBlock: CIFDUS_clean_linker_0, # of connection points: 2
#     Edge 61, Type (0, 0), BuildingBlock: CIFDUS_clean_linker_0, # of connection points: 2
#     Edge 62, Type (0, 0), BuildingBlock: CIFDUS_clean_linker_0, # of connection points: 2
#     Edge 63, Type (0, 0), BuildingBlock: CIFDUS_clean_linker_0, # of connection points: 2
#     Edge 64, Type (0, 0), BuildingBlock: CIFDUS_clean_linker_0, # of connection points: 2
#     Edge 65, Type (0, 0), BuildingBlock: CIFDUS_clean_linker_0, # of connection points: 2
#     Edge 66, Type (0, 0), BuildingBlock: CIFDUS_clean_linker_0, # of connection points: 2
#     Edge 67, Type (0, 0), BuildingBlock: CIFDUS_clean_linker_0, # of connection points: 2
#     Edge 68, Type (0, 0), BuildingBlock: CIFDUS_clean_linker_0, # of connection points: 2
#     Edge 69, Type (0, 0), BuildingBlock: CIFDUS_clean_linker_0, # of connection points: 2
#     Edge 70, Type (0, 0), BuildingBlock: CIFDUS_clean_linker_0, # of connection points: 2
#     Edge 71, Type (0, 0), BuildingBlock: CIFDUS_clean_linker_0, # of connection points: 2
#     Edge 72, Type (0, 0), BuildingBlock: CIFDUS_clean_linker_0, # of connection points: 2
#     Edge 73, Type (0, 0), BuildingBlock: CIFDUS_clean_linker_0, # of connection points: 2
#     Edge 74, Type (0, 0), BuildingBlock: CIFDUS_clean_linker_0, # of connection points: 2
#     Edge 75, Type (0, 0), BuildingBlock: CIFDUS_clean_linker_0, # of connection points: 2
#     Edge 76, Type (0, 0), BuildingBlock: CIFDUS_clean_linker_0, # of connection points: 2
#     Edge 77, Type (0, 0), BuildingBlock: CIFDUS_clean_linker_0, # of connection points: 2
#     Edge 78, Type (0, 0), BuildingBlock: CIFDUS_clean_linker_0, # of connection points: 2
#     Edge 79, Type (0, 0), BuildingBlock: CIFDUS_clean_linker_0, # of connection points: 2
#     Edge 80, Type (0, 0), BuildingBlock: CIFDUS_clean_linker_0, # of connection points: 2
#     Edge 81, Type (0, 0), BuildingBlock: CIFDUS_clean_linker_0, # of connection points: 2
#     Edge 82, Type (0, 0), BuildingBlock: CIFDUS_clean_linker_0, # of connection points: 2
#     Edge 83, Type (0, 0), BuildingBlock: CIFDUS_clean_linker_0, # of connection points: 2
#     Edge 84, Type (0, 0), BuildingBlock: CIFDUS_clean_linker_0, # of connection points: 2
#     Edge 85, Type (0, 0), BuildingBlock: CIFDUS_clean_linker_0, # of connection points: 2
#     Edge 86, Type (0, 0), BuildingBlock: CIFDUS_clean_linker_0, # of connection points: 2
#     Edge 87, Type (0, 0), BuildingBlock: CIFDUS_clean_linker_0, # of connection points: 2
#     Edge 88, Type (0, 0), BuildingBlock: CIFDUS_clean_linker_0, # of connection points: 2
#     Edge 89, Type (0, 0), BuildingBlock: CIFDUS_clean_linker_0, # of connection points: 2
#     Edge 90, Type (0, 0), BuildingBlock: CIFDUS_clean_linker_0, # of connection points: 2
#     Edge 91, Type (0, 0), BuildingBlock: CIFDUS_clean_linker_0, # of connection points: 2
#     Edge 92, Type (0, 0), BuildingBlock: CIFDUS_clean_linker_0, # of connection points: 2
#     Edge 93, Type (0, 0), BuildingBlock: CIFDUS_clean_linker_0, # of connection points: 2
#     Edge 94, Type (0, 0), BuildingBlock: CIFDUS_clean_linker_0, # of connection points: 2
#     Edge 95, Type (0, 0), BuildingBlock: CIFDUS_clean_linker_0, # of connection points: 2
#     Edge 96, Type (0, 0), BuildingBlock: CIFDUS_clean_linker_0, # of connection points: 2
#     Edge 97, Type (0, 0), BuildingBlock: CIFDUS_clean_linker_0, # of connection points: 2
#     Edge 98, Type (0, 0), BuildingBlock: CIFDUS_clean_linker_0, # of connection points: 2
#     Edge 99, Type (0, 0), BuildingBlock: CIFDUS_clean_linker_0, # of connection points: 2
#     Edge 100, Type (0, 0), BuildingBlock: CIFDUS_clean_linker_0, # of connection points: 2
#     Edge 101, Type (0, 0), BuildingBlock: CIFDUS_clean_linker_0, # of connection points: 2
#     Edge 102, Type (0, 0), BuildingBlock: CIFDUS_clean_linker_0, # of connection points: 2
#     Edge 103, Type (0, 0), BuildingBlock: CIFDUS_clean_linker_0, # of connection points: 2
#     Edge 104, Type (0, 0), BuildingBlock: CIFDUS_clean_linker_0, # of connection points: 2
#     Edge 105, Type (0, 0), BuildingBlock: CIFDUS_clean_linker_0, # of connection points: 2
#     Edge 106, Type (0, 0), BuildingBlock: CIFDUS_clean_linker_0, # of connection points: 2
#     Edge 107, Type (0, 0), BuildingBlock: CIFDUS_clean_linker_0, # of connection points: 2
#     Edge 108, Type (0, 0), BuildingBlock: CIFDUS_clean_linker_0, # of connection points: 2
#     Edge 109, Type (0, 0), BuildingBlock: CIFDUS_clean_linker_0, # of connection points: 2
#     Edge 110, Type (0, 0), BuildingBlock: CIFDUS_clean_linker_0, # of connection points: 2
#     Edge 111, Type (0, 0), BuildingBlock: CIFDUS_clean_linker_0, # of connection points: 2
#     Edge 112, Type (0, 0), BuildingBlock: CIFDUS_clean_linker_0, # of connection points: 2
#     Edge 113, Type (0, 0), BuildingBlock: CIFDUS_clean_linker_0, # of connection points: 2
#     Edge 114, Type (0, 0), BuildingBlock: CIFDUS_clean_linker_0, # of connection points: 2
#     Edge 115, Type (0, 0), BuildingBlock: CIFDUS_clean_linker_0, # of connection points: 2
#     Edge 116, Type (0, 0), BuildingBlock: CIFDUS_clean_linker_0, # of connection points: 2
#     Edge 117, Type (0, 0), BuildingBlock: CIFDUS_clean_linker_0, # of connection points: 2
#     Edge 118, Type (0, 0), BuildingBlock: CIFDUS_clean_linker_0, # of connection points: 2
#     Edge 119, Type (0, 0), BuildingBlock: CIFDUS_clean_linker_0, # of connection points: 2
#     Edge 120, Type (0, 0), BuildingBlock: CIFDUS_clean_linker_0, # of connection points: 2
#     Edge 121, Type (0, 0), BuildingBlock: CIFDUS_clean_linker_0, # of connection points: 2
#     Edge 122, Type (0, 0), BuildingBlock: CIFDUS_clean_linker_0, # of connection points: 2
#     Edge 123, Type (0, 0), BuildingBlock: CIFDUS_clean_linker_0, # of connection points: 2
#     Edge 124, Type (0, 0), BuildingBlock: CIFDUS_clean_linker_0, # of connection points: 2
#     Edge 125, Type (0, 0), BuildingBlock: CIFDUS_clean_linker_0, # of connection points: 2
#     Edge 126, Type (0, 0), BuildingBlock: CIFDUS_clean_linker_0, # of connection points: 2
#     Edge 127, Type (0, 0), BuildingBlock: CIFDUS_clean_linker_0, # of connection points: 2
# Relax obj value: 0.240
# Max RMSD: 0.192
# Mean RMSD: 0.192
data_MOF--net-wiq--node1-OJICUG_clean_sbu_0--edge1-CIFDUS_clean_linker_0
_symmetry_space_group_name_H-M    P1
_symmetry_Int_Tables_number       1
_symmetry_cell_setting            triclinic
loop_
_symmetry_equiv_pos_as_xyz
'x, y, z'
_cell_length_a     44.436547
_cell_length_b     44.452969
_cell_length_c     49.438515
_cell_angle_alpha  90.006965
_cell_angle_beta   90.104991
_cell_angle_gamma 90.141707
loop_
_atom_site_label
_atom_site_type_symbol
_atom_site_fract_x
_atom_site_fract_y
_atom_site_fract_z
_atom_type_partial_charge
Sc0 Sc 0.11756 0.18435 0.24972 0.0
Sc1 Sc 0.15103 0.14688 0.30372 0.0
Sc2 Sc 0.09513 0.11294 0.26552 0.0
O3 O 0.12233 0.14804 0.27266 0.0
C4 C 0.05244 0.16624 0.26372 0.0
C5 C 0.12501 0.21432 0.30699 0.0
C6 C 0.0953 0.11281 0.32753 0.0
C7 C 0.18824 0.18436 0.26101 0.0
C8 C 0.10761 0.13657 0.20636 0.0
C9 C 0.15565 0.08174 0.27409 0.0
O10 O 0.07021 0.17688 0.24609 0.0
O11 O 0.14217 0.19316 0.31518 0.0
O12 O 0.09598 0.09694 0.30636 0.0
O13 O 0.16411 0.19441 0.25078 0.0
O14 O 0.09085 0.12242 0.22285 0.0
O15 O 0.16187 0.09941 0.29398 0.0
O16 O 0.12471 0.15789 0.21401 0.0
O17 O 0.1886 0.16346 0.27893 0.0
O18 O 0.13405 0.08648 0.25763 0.0
O19 O 0.11068 0.21304 0.28463 0.0
O20 O 0.05712 0.14106 0.27513 0.0
O21 O 0.11387 0.13438 0.33067 0.0
Sc22 Sc 0.12007 0.84527 0.50822 0.0
Sc23 Sc 0.10588 0.90492 0.55351 0.0
Sc24 Sc 0.05872 0.8922 0.49873 0.0
O25 O 0.09472 0.87997 0.52042 0.0
C26 C 0.10177 0.87128 0.45076 0.0
C27 C 0.16747 0.89839 0.52236 0.0
C28 C 0.07544 0.95363 0.51536 0.0
C29 C 0.1276 0.83953 0.57169 0.0
C30 C 0.05207 0.82196 0.50048 0.0
C31 C 0.03685 0.89712 0.5609 0.0
O32 O 0.11994 0.85713 0.46591 0.0
O33 O 0.14958 0.91491 0.53616 0.0
O34 O 0.07838 0.9355 0.49611 0.0
O35 O 0.12357 0.82781 0.54856 0.0
O36 O 0.04051 0.84805 0.49947 0.0
O37 O 0.06302 0.89448 0.57125 0.0
O38 O 0.08036 0.81725 0.5028 0.0
O39 O 0.12518 0.86764 0.57577 0.0
O40 O 0.03265 0.90103 0.53553 0.0
O41 O 0.16041 0.87247 0.51298 0.0
O42 O 0.07855 0.8843 0.45984 0.0
O43 O 0.08476 0.94627 0.53875 0.0
Sc44 Sc 0.39846 0.87895 0.76695 0.0
Sc45 Sc 0.3383 0.86584 0.81168 0.0
Sc46 Sc 0.35643 0.81393 0.76205 0.0
O47 O 0.36525 0.85277 0.78071 0.0
C48 C 0.37531 0.85419 0.71155 0.0
C49 C 0.34403 0.9253 0.77739 0.0
C50 C 0.29355 0.82965 0.7729 0.0
C51 C 0.40337 0.89 0.82955 0.0
C52 C 0.42616 0.81206 0.76513 0.0
C53 C 0.34703 0.79847 0.82532 0.0
O54 O 0.38513 0.87598 0.7255 0.0
O55 O 0.32717 0.90758 0.79104 0.0
O56 O 0.31324 0.83196 0.75492 0.0
O57 O 0.41522 0.88456 0.80679 0.0
O58 O 0.40112 0.7984 0.76738 0.0
O59 O 0.34912 0.82564 0.83322 0.0
O60 O 0.42845 0.84063 0.76287 0.0
O61 O 0.37506 0.88806 0.8336 0.0
O62 O 0.34502 0.79138 0.8003 0.0
O63 O 0.37062 0.91861 0.76981 0.0
O64 O 0.36677 0.82959 0.72202 0.0
O65 O 0.29851 0.84108 0.79617 0.0
Sc66 Sc 0.38217 0.14968 0.00766 0.0
Sc67 Sc 0.39336 0.08938 0.05238 0.0
Sc68 Sc 0.44233 0.10139 0.99913 0.0
O69 O 0.40639 0.1145 0.02015 0.0
C70 C 0.39968 0.12203 0.95091 0.0
C71 C 0.33329 0.0977 0.01936 0.0
C72 C 0.42552 0.04082 0.0153 0.0
C73 C 0.37318 0.15579 0.07023 0.0
C74 C 0.45075 0.17112 -0.00012 0.0
C75 C 0.46201 0.09675 0.06208 0.0
O76 O 0.38144 0.13611 0.96598 0.0
O77 O 0.35089 0.07949 0.03179 0.0
O78 O 0.42128 0.05884 0.99624 0.0
O79 O 0.38022 0.16749 0.04772 0.0
O80 O 0.46185 0.14484 8e-05 0.0
O81 O 0.43558 0.09957 0.07193 0.0
O82 O 0.42252 0.17641 0.00126 0.0
O83 O 0.37275 0.12735 0.0738 0.0
O84 O 0.46685 0.0925 0.03683 0.0
O85 O 0.34065 0.12457 0.0129 0.0
O86 O 0.42333 0.10967 0.95994 0.0
O87 O 0.41585 0.0479 0.03864 0.0
Sc88 Sc 0.13663 0.80012 0.2402 0.0
Sc89 Sc 0.16498 0.85466 0.19516 0.0
Sc90 Sc 0.10339 0.87137 0.23803 0.0
O91 O 0.13521 0.8422 0.22452 0.0
C92 C 0.067 0.80989 0.23373 0.0
C93 C 0.15094 0.78677 0.17775 0.0
C94 C 0.1022 0.88243 0.17417 0.0
C95 C 0.20564 0.81624 0.2367 0.0
C96 C 0.12212 0.83979 0.29292 0.0
C97 C 0.16036 0.91479 0.23047 0.0
O98 O 0.09019 0.79354 0.23399 0.0
O99 O 0.15891 0.81364 0.17264 0.0
O100 O 0.09076 0.88311 0.19767 0.0
O101 O 0.18314 0.80326 0.24713 0.0
O102 O 0.11262 0.86233 0.27972 0.0
O103 O 0.17411 0.89807 0.21363 0.0
O104 O 0.13044 0.81556 0.28146 0.0
O105 O 0.20348 0.83493 0.21705 0.0
O106 O 0.13506 0.9079 0.2407 0.0
O107 O 0.1431 0.77837 0.20131 0.0
O108 O 0.06756 0.83826 0.23689 0.0
O109 O 0.12911 0.87353 0.16985 0.0
Sc110 Sc 0.45072 0.87841 0.50437 0.0
Sc111 Sc 0.40087 0.89734 0.45128 0.0
Sc112 Sc 0.38085 0.84277 0.50039 0.0
O113 O 0.41072 0.87302 0.48529 0.0
C114 C 0.44231 0.80774 0.50787 0.0
C115 C 0.47069 0.88146 0.44232 0.0
C116 C 0.37424 0.8324 0.43681 0.0
C117 C 0.43521 0.94559 0.48801 0.0
C118 C 0.40692 0.87151 0.55454 0.0
C119 C 0.33781 0.8966 0.48306 0.0
O120 O 0.4576 0.83172 0.5092 0.0
O121 O 0.44495 0.88989 0.43385 0.0
O122 O 0.37057 0.82534 0.46141 0.0
O123 O 0.4482 0.92535 0.50159 0.0
O124 O 0.38763 0.85639 0.54137 0.0
O125 O 0.3551 0.90688 0.46464 0.0
O126 O 0.43066 0.88203 0.54383 0.0
O127 O 0.4168 0.93984 0.4688 0.0
O128 O 0.34473 0.87454 0.49815 0.0
O129 O 0.4759 0.87574 0.46711 0.0
O130 O 0.41404 0.80754 0.50391 0.0
O131 O 0.38552 0.85751 0.4295 0.0
Sc132 Sc 0.35412 0.20039 0.74679 0.0
Sc133 Sc 0.34194 0.15231 0.69277 0.0
Sc134 Sc 0.40025 0.13826 0.73916 0.0
O135 O 0.36619 0.16376 0.72598 0.0
C136 C 0.42422 0.20615 0.74654 0.0
C137 C 0.34999 0.22102 0.68435 0.0
C138 C 0.40813 0.12995 0.67641 0.0
C139 C 0.29208 0.18136 0.73099 0.0
C140 C 0.37256 0.1572 0.79535 0.0
C141 C 0.34752 0.09097 0.72427 0.0
O142 O 0.39835 0.21817 0.74561 0.0
O143 O 0.35315 0.19467 0.67459 0.0
O144 O 0.41926 0.13496 0.69961 0.0
O145 O 0.31047 0.18153 0.75029 0.0
O146 O 0.38563 0.13811 0.78044 0.0
O147 O 0.331 0.10896 0.71056 0.0
O148 O 0.36186 0.18154 0.78615 0.0
O149 O 0.30043 0.17385 0.70731 0.0
O150 O 0.37354 0.09786 0.73346 0.0
O151 O 0.34526 0.22569 0.70952 0.0
O152 O 0.42845 0.1777 0.74578 0.0
O153 O 0.38003 0.13217 0.67164 0.0
Sc154 Sc 0.05498 0.10835 0.00011 0.0
Sc155 Sc 0.10276 0.09835 0.94521 0.0
Sc156 Sc 0.11186 0.15952 0.98864 0.0
O157 O 0.08924 0.12287 0.97759 0.0
C158 C 0.04285 0.17712 0.99943 0.0
C159 C 0.03327 0.10059 0.93767 0.0
C160 C 0.1136 0.16586 0.92604 0.0
C161 C 0.07506 0.04861 0.98414 0.0
C162 C 0.10014 0.13188 0.04588 0.0
C163 C 0.16302 0.11128 0.9766 0.0
O164 O 0.03258 0.15046 0.999 0.0
O165 O 0.05915 0.105 0.92704 0.0
O166 O 0.10753 0.17659 0.94906 0.0
O167 O 0.07865 0.06725 0.00288 0.0
O168 O 0.11733 0.14552 0.02955 0.0
O169 O 0.1463 0.09147 0.96515 0.0
O170 O 0.07572 0.11934 0.03845 0.0
O171 O 0.08374 0.05575 0.96047 0.0
O172 O 0.15461 0.1384 0.98034 0.0
O173 O 0.02955 0.09686 0.9632 0.0
O174 O 0.07084 0.18336 0.99788 0.0
O175 O 0.11925 0.13795 0.92252 0.0
Sc176 Sc 0.90716 0.87026 0.74502 0.0
Sc177 Sc 0.85267 0.84901 0.69636 0.0
Sc178 Sc 0.86803 0.80275 0.75211 0.0
O179 O 0.87599 0.84085 0.73111 0.0
C180 C 0.93878 0.80625 0.75162 0.0
C181 C 0.91802 0.87578 0.68153 0.0
C182 C 0.8642 0.77956 0.69046 0.0
C183 C 0.85247 0.91271 0.72674 0.0
C184 C 0.88124 0.848 0.80088 0.0
C185 C 0.80331 0.81678 0.73502 0.0
O186 O 0.9399 0.83491 0.75096 0.0
O187 O 0.89155 0.86773 0.67449 0.0
O188 O 0.86274 0.77552 0.71592 0.0
O189 O 0.87671 0.90733 0.73964 0.0
O190 O 0.8722 0.82307 0.79141 0.0
O191 O 0.81123 0.82799 0.71226 0.0
O192 O 0.89305 0.86816 0.78626 0.0
O193 O 0.83998 0.89388 0.7106 0.0
O194 O 0.82158 0.81276 0.75426 0.0
O195 O 0.92616 0.87659 0.70605 0.0
O196 O 0.91433 0.79144 0.75148 0.0
O197 O 0.86414 0.80565 0.6798 0.0
Sc198 Sc 0.87395 0.15218 0.48768 0.0
Sc199 Sc 0.89458 0.09343 0.44351 0.0
Sc200 Sc 0.939 0.11096 0.49901 0.0
O201 O 0.90263 0.11955 0.47648 0.0
C202 C 0.93879 0.18164 0.49691 0.0
C203 C 0.86875 0.15712 0.42424 0.0
C204 C 0.96302 0.10722 0.43755 0.0
C205 C 0.83212 0.09507 0.47375 0.0
C206 C 0.89213 0.12707 0.54531 0.0
C207 C 0.92822 0.04741 0.48257 0.0
O208 O 0.9103 0.18382 0.49437 0.0
O209 O 0.87279 0.12909 0.42044 0.0
O210 O 0.9666 0.10471 0.46309 0.0
O211 O 0.83626 0.12211 0.48167 0.0
O212 O 0.91695 0.11665 0.53702 0.0
O213 O 0.91856 0.05422 0.45915 0.0
O214 O 0.87335 0.1399 0.52982 0.0
O215 O 0.85187 0.07953 0.46117 0.0
O216 O 0.92511 0.06548 0.5019 0.0
O217 O 0.87121 0.16913 0.44738 0.0
O218 O 0.95255 0.15669 0.49819 0.0
O219 O 0.93716 0.10687 0.4262 0.0
Sc220 Sc 0.5876 0.12378 0.247 0.0
Sc221 Sc 0.64305 0.14672 0.20042 0.0
Sc222 Sc 0.61938 0.19448 0.25294 0.0
O223 O 0.61721 0.15476 0.23342 0.0
C224 C 0.5498 0.18217 0.25274 0.0
C225 C 0.58109 0.11516 0.18316 0.0
C226 C 0.62069 0.21515 0.19169 0.0
C227 C 0.64416 0.08367 0.23375 0.0
C228 C 0.61356 0.15164 0.30208 0.0
C229 C 0.68786 0.18688 0.23571 0.0
O230 O 0.55101 0.15529 0.24423 0.0
O231 O 0.60452 0.13023 0.17687 0.0
O232 O 0.61151 0.21892 0.21587 0.0
O233 O 0.62228 0.09044 0.24916 0.0
O234 O 0.62789 0.17305 0.29098 0.0
O235 O 0.6845 0.16495 0.21914 0.0
O236 O 0.59591 0.13441 0.28895 0.0
O237 O 0.65327 0.10068 0.21441 0.0
O238 O 0.66596 0.19901 0.24761 0.0
O239 O 0.5746 0.10907 0.20751 0.0
O240 O 0.57267 0.19605 0.26154 0.0
O241 O 0.63391 0.19115 0.18387 0.0
Sc242 Sc 0.62393 0.84819 0.98789 0.0
Sc243 Sc 0.612 0.90708 0.94193 0.0
Sc244 Sc 0.55948 0.89104 0.99164 0.0
O245 O 0.59818 0.88113 0.97322 0.0
C246 C 0.55656 0.82132 0.99026 0.0
C247 C 0.63586 0.84103 0.92576 0.0
C248 C 0.54478 0.89985 0.92819 0.0
C249 C 0.67049 0.90215 0.97772 0.0
C250 C 0.59936 0.8737 0.04252 0.0
C251 C 0.57638 0.95354 0.97938 0.0
O252 O 0.58511 0.81898 0.99263 0.0
O253 O 0.63395 0.86925 0.92096 0.0
O254 O 0.53781 0.90232 0.95316 0.0
O255 O 0.66406 0.87531 0.98475 0.0
O256 O 0.57455 0.88146 0.032 0.0
O257 O 0.58774 0.9475 0.95632 0.0
O258 O 0.62097 0.8635 0.02868 0.0
O259 O 0.65303 0.91877 0.96364 0.0
O260 O 0.57786 0.93439 0.99797 0.0
O261 O 0.62995 0.82975 0.94868 0.0
O262 O 0.54312 0.84633 0.98717 0.0
O263 O 0.57179 0.89631 0.92027 0.0
Sc264 Sc 0.90165 0.12842 0.75583 0.0
Sc265 Sc 0.84581 0.14115 0.80455 0.0
Sc266 Sc 0.86111 0.19439 0.75526 0.0
O267 O 0.87031 0.15468 0.77232 0.0
C268 C 0.93053 0.19501 0.75437 0.0
C269 C 0.91245 0.11593 0.81783 0.0
C270 C 0.85494 0.20795 0.81919 0.0
C271 C 0.84815 0.08178 0.7696 0.0
C272 C 0.8749 0.15546 0.70276 0.0
C273 C 0.7985 0.17846 0.76801 0.0
O274 O 0.9318 0.16663 0.7502 0.0
O275 O 0.8846 0.11864 0.82407 0.0
O276 O 0.85118 0.21581 0.79452 0.0
O277 O 0.87395 0.08862 0.76009 0.0
O278 O 0.86949 0.18045 0.71413 0.0
O279 O 0.80502 0.16657 0.79092 0.0
O280 O 0.88377 0.13267 0.71588 0.0
O281 O 0.83272 0.09952 0.78447 0.0
O282 O 0.81726 0.1775 0.74912 0.0
O283 O 0.92219 0.12142 0.79423 0.0
O284 O 0.90623 0.20885 0.75957 0.0
O285 O 0.85853 0.18066 0.82601 0.0
Sc286 Sc 0.55451 0.10466 0.51186 0.0
Sc287 Sc 0.6112 0.08942 0.55776 0.0
Sc288 Sc 0.61544 0.15229 0.51526 0.0
O289 O 0.59324 0.11661 0.52898 0.0
C290 C 0.59001 0.12767 0.46006 0.0
C291 C 0.57361 0.044 0.52221 0.0
C292 C 0.66501 0.09997 0.51812 0.0
C293 C 0.54522 0.09615 0.57622 0.0
C294 C 0.54627 0.17379 0.51607 0.0
C295 C 0.63322 0.15466 0.5762 0.0
O296 O 0.56712 0.11592 0.47118 0.0
O297 O 0.58616 0.04895 0.54489 0.0
O298 O 0.65713 0.12739 0.51501 0.0
O299 O 0.53635 0.09261 0.55173 0.0
O300 O 0.57451 0.1788 0.51376 0.0
O301 O 0.63523 0.12611 0.578 0.0
O302 O 0.5349 0.14761 0.51762 0.0
O303 O 0.57294 0.09886 0.5826 0.0
O304 O 0.62239 0.16766 0.55554 0.0
O305 O 0.57635 0.0635 0.50422 0.0
O306 O 0.61084 0.14021 0.47353 0.0
O307 O 0.64963 0.08075 0.53162 0.0
Sc308 Sc 0.64515 0.80388 0.2463 0.0
Sc309 Sc 0.65245 0.84969 0.30292 0.0
Sc310 Sc 0.59628 0.86387 0.25416 0.0
O311 O 0.63043 0.83887 0.26812 0.0
C312 C 0.6278 0.84851 0.19876 0.0
C313 C 0.70474 0.82124 0.26684 0.0
C314 C 0.64637 0.91249 0.27298 0.0
C315 C 0.64705 0.7803 0.30796 0.0
C316 C 0.57515 0.79552 0.24316 0.0
C317 C 0.58441 0.86857 0.31691 0.0
O318 O 0.63961 0.82458 0.20761 0.0
O319 O 0.6957 0.82992 0.29001 0.0
O320 O 0.62145 0.90491 0.2619 0.0
O321 O 0.65235 0.77706 0.28274 0.0
O322 O 0.5698 0.82371 0.24538 0.0
O323 O 0.61217 0.86666 0.32325 0.0
O324 O 0.60149 0.78445 0.24407 0.0
O325 O 0.64259 0.80589 0.31889 0.0
O326 O 0.57516 0.86523 0.29284 0.0
O327 O 0.68792 0.82485 0.24672 0.0
O328 O 0.61254 0.86599 0.21353 0.0
O329 O 0.66234 0.89458 0.28737 0.0
Sc330 Sc 0.94887 0.8958 0.00898 0.0
Sc331 Sc 0.89523 0.9061 0.05893 0.0
Sc332 Sc 0.88862 0.84714 0.01213 0.0
O333 O 0.9114 0.88186 0.02733 0.0
C334 C 0.91107 0.87538 0.95742 0.0
C335 C 0.92809 0.95577 0.02329 0.0
C336 C 0.83868 0.89815 0.02109 0.0
C337 C 0.9627 0.90173 0.07324 0.0
C338 C 0.9579 0.82651 0.00986 0.0
C339 C 0.87418 0.83859 0.07351 0.0
O340 O 0.93439 0.88693 0.96807 0.0
O341 O 0.9179 0.94838 0.04644 0.0
O342 O 0.84689 0.87169 0.01436 0.0
O343 O 0.96965 0.9062 0.0484 0.0
O344 O 0.92963 0.82134 0.0084 0.0
O345 O 0.87388 0.86681 0.07854 0.0
O346 O 0.96914 0.85276 0.01173 0.0
O347 O 0.93572 0.89683 0.08092 0.0
O348 O 0.88293 0.82814 0.05106 0.0
O349 O 0.92613 0.93716 0.00438 0.0
O350 O 0.89126 0.86193 0.97122 0.0
O351 O 0.85442 0.91571 0.03603 0.0
Sc352 Sc 0.62702 0.69256 0.74787 0.0
Sc353 Sc 0.65006 0.64927 0.8032 0.0
Sc354 Sc 0.58815 0.62652 0.76311 0.0
O355 O 0.62155 0.65604 0.77154 0.0
C356 C 0.55656 0.69042 0.75637 0.0
C357 C 0.63836 0.71854 0.80819 0.0
C358 C 0.58823 0.62212 0.82669 0.0
C359 C 0.69335 0.68095 0.75898 0.0
C360 C 0.60677 0.64417 0.7038 0.0
C361 C 0.64567 0.5848 0.77502 0.0
O362 O 0.58106 0.70446 0.75234 0.0
O363 O 0.63997 0.69293 0.81972 0.0
O364 O 0.57533 0.62199 0.80394 0.0
O365 O 0.67297 0.68208 0.74125 0.0
O366 O 0.59575 0.62611 0.72081 0.0
O367 O 0.66126 0.60443 0.78793 0.0
O368 O 0.61826 0.66929 0.71038 0.0
O369 O 0.68836 0.67113 0.78283 0.0
O370 O 0.61908 0.58948 0.76629 0.0
O371 O 0.63654 0.72154 0.78254 0.0
O372 O 0.5551 0.66199 0.75959 0.0
O373 O 0.61562 0.62993 0.82987 0.0
Sc374 Sc 0.61164 0.34366 0.00504 0.0
Sc375 Sc 0.59481 0.39957 0.05308 0.0
Sc376 Sc 0.55235 0.3928 0.99439 0.0
O377 O 0.58605 0.37792 0.01777 0.0
C378 C 0.59956 0.37483 0.94887 0.0
C379 C 0.65919 0.39267 0.02693 0.0
C380 C 0.57166 0.45278 0.01496 0.0
C381 C 0.61202 0.33128 0.06779 0.0
C382 C 0.54394 0.32312 0.99121 0.0
C383 C 0.52529 0.39593 0.05485 0.0
O384 O 0.61671 0.36028 0.96459 0.0
O385 O 0.64053 0.40908 0.03992 0.0
O386 O 0.57342 0.43568 0.99479 0.0
O387 O 0.61015 0.3222 0.04355 0.0
O388 O 0.53262 0.34933 0.99214 0.0
O389 O 0.55005 0.3906 0.06693 0.0
O390 O 0.57206 0.3179 0.99397 0.0
O391 O 0.60984 0.35898 0.07419 0.0
O392 O 0.52361 0.40108 0.02947 0.0
O393 O 0.65225 0.36782 0.01558 0.0
O394 O 0.57492 0.38617 0.95661 0.0
O395 O 0.57713 0.44287 0.03863 0.0
Sc396 Sc 0.91124 0.36409 0.25702 0.0
Sc397 Sc 0.84879 0.35854 0.30038 0.0
Sc398 Sc 0.86456 0.30156 0.25429 0.0
O399 O 0.87544 0.34137 0.27088 0.0
C400 C 0.88807 0.33615 0.2019 0.0
C401 C 0.85904 0.414 0.26103 0.0
C402 C 0.80219 0.32076 0.26342 0.0
C403 C 0.91456 0.38173 0.31887 0.0
C404 C 0.93404 0.29604 0.26261 0.0
C405 C 0.85325 0.29188 0.31822 0.0
O406 O 0.90048 0.35706 0.2153 0.0
O407 O 0.84115 0.39918 0.27642 0.0
O408 O 0.82182 0.31953 0.24525 0.0
O409 O 0.92671 0.37446 0.29669 0.0
O410 O 0.90801 0.28426 0.26201 0.0
O411 O 0.85642 0.31946 0.32457 0.0
O412 O 0.93892 0.32411 0.25912 0.0
O413 O 0.88615 0.38016 0.32261 0.0
O414 O 0.85145 0.28299 0.29366 0.0
O415 O 0.88523 0.40488 0.25443 0.0
O416 O 0.87601 0.31354 0.21323 0.0
O417 O 0.80785 0.33485 0.28542 0.0
Sc418 Sc 0.89023 0.64745 0.51003 0.0
Sc419 Sc 0.89853 0.59001 0.55801 0.0
Sc420 Sc 0.95104 0.59946 0.50685 0.0
O421 O 0.91348 0.61312 0.52537 0.0
C422 C 0.91188 0.61872 0.45569 0.0
C423 C 0.83959 0.59748 0.52308 0.0
C424 C 0.92827 0.53874 0.52117 0.0
C425 C 0.87898 0.65805 0.57189 0.0
C426 C 0.9596 0.66876 0.50681 0.0
C427 C 0.96636 0.59325 0.57064 0.0
O428 O 0.89164 0.63105 0.46972 0.0
O429 O 0.85597 0.58066 0.53803 0.0
O430 O 0.92973 0.55716 0.50198 0.0
O431 O 0.8857 0.66773 0.54859 0.0
O432 O 0.97075 0.6427 0.50983 0.0
O433 O 0.93975 0.599 0.57851 0.0
O434 O 0.93131 0.67366 0.50465 0.0
O435 O 0.87939 0.63007 0.57784 0.0
O436 O 0.97284 0.58878 0.54574 0.0
O437 O 0.84822 0.62299 0.51403 0.0
O438 O 0.93601 0.60865 0.46603 0.0
O439 O 0.91941 0.54727 0.54449 0.0
Sc440 Sc 0.64763 0.30593 0.74215 0.0
Sc441 Sc 0.65712 0.3584 0.691 0.0
Sc442 Sc 0.59965 0.36656 0.73886 0.0
O443 O 0.63374 0.34329 0.72346 0.0
C444 C 0.57854 0.29694 0.74245 0.0
C445 C 0.65376 0.29093 0.67836 0.0
C446 C 0.58885 0.37768 0.67672 0.0
C447 C 0.70721 0.32605 0.72753 0.0
C448 C 0.62874 0.34483 0.79327 0.0
C449 C 0.64953 0.4174 0.72552 0.0
O450 O 0.60458 0.28569 0.73937 0.0
O451 O 0.64761 0.31747 0.67057 0.0
O452 O 0.57929 0.3707 0.70005 0.0
O453 O 0.6889 0.32896 0.74651 0.0
O454 O 0.61639 0.36526 0.77935 0.0
O455 O 0.66667 0.40086 0.71104 0.0
O456 O 0.63845 0.3207 0.7828 0.0
O457 O 0.69983 0.33625 0.70425 0.0
O458 O 0.62395 0.40874 0.73445 0.0
O459 O 0.65864 0.28438 0.70322 0.0
O460 O 0.57372 0.32527 0.74448 0.0
O461 O 0.61696 0.37793 0.67102 0.0
Sc462 Sc 0.93873 0.39629 0.99319 0.0
Sc463 Sc 0.88504 0.41 0.94386 0.0
Sc464 Sc 0.87783 0.34814 0.98793 0.0
O465 O 0.90075 0.38394 0.97459 0.0
C466 C 0.94695 0.32688 0.98875 0.0
C467 C 0.95269 0.40581 0.92966 0.0
C468 C 0.86528 0.34397 0.92511 0.0
C469 C 0.91836 0.45749 0.98172 0.0
C470 C 0.90169 0.37205 0.04406 0.0
C471 C 0.82732 0.39953 0.97953 0.0
O472 O 0.95814 0.35321 0.98806 0.0
O473 O 0.92559 0.4021 0.9219 0.0
O474 O 0.87217 0.33194 0.94754 0.0
O475 O 0.91717 0.43796 -4e-05 0.0
O476 O 0.88124 0.35947 0.03013 0.0
O477 O 0.84335 0.41769 0.9655 0.0
O478 O 0.92431 0.38479 0.03338 0.0
O479 O 0.90696 0.45146 0.95868 0.0
O480 O 0.83613 0.37333 0.98668 0.0
O481 O 0.95989 0.40881 0.95459 0.0
O482 O 0.9187 0.32156 0.99025 0.0
O483 O 0.86486 0.3724 0.92183 0.0
Sc484 Sc 0.85673 0.69368 0.2533 0.0
Sc485 Sc 0.85292 0.64752 0.19639 0.0
Sc486 Sc 0.90993 0.63787 0.24478 0.0
O487 O 0.87416 0.66023 0.23116 0.0
C488 C 0.92575 0.70726 0.25574 0.0
C489 C 0.85565 0.71696 0.19098 0.0
C490 C 0.92167 0.63197 0.18225 0.0
C491 C 0.7993 0.67422 0.23137 0.0
C492 C 0.87787 0.65056 0.3008 0.0
C493 C 0.86149 0.58677 0.22865 0.0
O494 O 0.89872 0.71634 0.25696 0.0
O495 O 0.86144 0.69153 0.18007 0.0
O496 O 0.93044 0.63752 0.20607 0.0
O497 O 0.81576 0.66952 0.25148 0.0
O498 O 0.89519 0.63546 0.28577 0.0
O499 O 0.84439 0.60338 0.21404 0.0
O500 O 0.86276 0.67271 0.29211 0.0
O501 O 0.80891 0.66631 0.20822 0.0
O502 O 0.88679 0.59544 0.23835 0.0
O503 O 0.84947 0.71995 0.21617 0.0
O504 O 0.93333 0.67987 0.25185 0.0
O505 O 0.89378 0.63069 0.17615 0.0
Sc506 Sc 0.56491 0.60708 0.49802 0.0
Sc507 Sc 0.61025 0.5935 0.44256 0.0
Sc508 Sc 0.62843 0.65035 0.48864 0.0
O509 O 0.6011 0.61759 0.47616 0.0
C510 C 0.56221 0.67657 0.49956 0.0
C511 C 0.5418 0.60286 0.43621 0.0
C512 C 0.63294 0.65993 0.42656 0.0
C513 C 0.57967 0.54473 0.482 0.0
C514 C 0.61185 0.62404 0.54471 0.0
C515 C 0.6734 0.59755 0.47054 0.0
O516 O 0.54862 0.65169 0.49629 0.0
O517 O 0.56777 0.60637 0.42581 0.0
O518 O 0.62773 0.67039 0.44989 0.0
O519 O 0.5823 0.56286 0.50137 0.0
O520 O 0.63192 0.63343 0.52868 0.0
O521 O 0.65386 0.58069 0.45897 0.0
O522 O 0.5858 0.61614 0.5367 0.0
O523 O 0.58698 0.55276 0.45807 0.0
O524 O 0.66779 0.62405 0.479 0.0
O525 O 0.53806 0.59795 0.46151 0.0
O526 O 0.59087 0.67909 0.4996 0.0
O527 O 0.63113 0.63183 0.4212 0.0
Sc528 Sc 0.39616 0.37243 0.23267 0.0
Sc529 Sc 0.33734 0.36111 0.18627 0.0
Sc530 Sc 0.3529 0.30804 0.23583 0.0
O531 O 0.363 0.34702 0.21782 0.0
C532 C 0.42255 0.30512 0.23496 0.0
C533 C 0.40307 0.38612 0.17095 0.0
C534 C 0.34697 0.29403 0.17178 0.0
C535 C 0.34257 0.41966 0.22188 0.0
C536 C 0.37098 0.34746 0.28738 0.0
C537 C 0.29104 0.32347 0.22237 0.0
O538 O 0.42531 0.33365 0.23711 0.0
O539 O 0.37489 0.38427 0.16606 0.0
O540 O 0.34336 0.28635 0.19655 0.0
O541 O 0.36897 0.41245 0.22967 0.0
O542 O 0.36178 0.32311 0.27671 0.0
O543 O 0.29681 0.33566 0.19958 0.0
O544 O 0.38157 0.36892 0.27353 0.0
O545 O 0.32566 0.40241 0.20764 0.0
O546 O 0.30962 0.32624 0.24127 0.0
O547 O 0.41442 0.37899 0.19356 0.0
O548 O 0.3974 0.29187 0.23215 0.0
O549 O 0.3493 0.32142 0.16452 0.0
Sc550 Sc 0.37333 0.65584 0.99102 0.0
Sc551 Sc 0.39675 0.59729 0.94744 0.0
Sc552 Sc 0.4407 0.61829 0.00275 0.0
O553 O 0.40359 0.62416 0.98018 0.0
C554 C 0.43641 0.689 0.99942 0.0
C555 C 0.36935 0.66044 0.92722 0.0
C556 C 0.46531 0.61273 0.94192 0.0
C557 C 0.33337 0.59759 0.97711 0.0
C558 C 0.39245 0.6311 0.04844 0.0
C559 C 0.42981 0.55233 0.98867 0.0
O560 O 0.40784 0.68977 0.99717 0.0
O561 O 0.37586 0.63286 0.92321 0.0
O562 O 0.46887 0.61282 0.96747 0.0
O563 O 0.33694 0.62438 0.98571 0.0
O564 O 0.41812 0.62286 0.04037 0.0
O565 O 0.41992 0.55848 0.96511 0.0
O566 O 0.37319 0.64321 0.03298 0.0
O567 O 0.35338 0.58306 0.96392 0.0
O568 O 0.43139 0.57182 0.00708 0.0
O569 O 0.36955 0.6721 0.95061 0.0
O570 O 0.4512 0.6647 0.00098 0.0
O571 O 0.43965 0.61013 0.93051 0.0
Sc572 Sc 0.10439 0.62497 0.7366 0.0
Sc573 Sc 0.16551 0.63975 0.69364 0.0
Sc574 Sc 0.14261 0.69241 0.74094 0.0
O575 O 0.13681 0.65241 0.72336 0.0
C576 C 0.07301 0.69005 0.7366 0.0
C577 C 0.10258 0.61166 0.67416 0.0
C578 C 0.15292 0.70552 0.67733 0.0
C579 C 0.16187 0.58172 0.72923 0.0
C580 C 0.1243 0.65263 0.79216 0.0
C581 C 0.2072 0.67964 0.73258 0.0
O582 O 0.07215 0.66149 0.73944 0.0
O583 O 0.131 0.61452 0.67135 0.0
O584 O 0.15389 0.71398 0.70208 0.0
O585 O 0.13447 0.58696 0.73528 0.0
O586 O 0.13182 0.67743 0.78133 0.0
O587 O 0.20325 0.6672 0.70956 0.0
O588 O 0.11632 0.62993 0.77836 0.0
O589 O 0.17846 0.59996 0.71595 0.0
O590 O 0.18683 0.67839 0.75007 0.0
O591 O 0.08928 0.6175 0.69623 0.0
O592 O 0.09731 0.70486 0.73399 0.0
O593 O 0.15283 0.67796 0.67056 0.0
Sc594 Sc 0.12568 0.34237 0.48555 0.0
Sc595 Sc 0.10369 0.40333 0.44405 0.0
Sc596 Sc 0.06046 0.38244 0.49964 0.0
O597 O 0.0966 0.37557 0.47614 0.0
C598 C 0.06085 0.3122 0.49387 0.0
C599 C 0.12773 0.33984 0.42166 0.0
C600 C 0.03432 0.39266 0.43904 0.0
C601 C 0.16863 0.39866 0.47161 0.0
C602 C 0.10854 0.36327 0.54449 0.0
C603 C 0.07362 0.44758 0.48792 0.0
O604 O 0.08939 0.31033 0.49146 0.0
O605 O 0.12167 0.3676 0.41824 0.0
O606 O 0.03139 0.39222 0.46477 0.0
O607 O 0.16358 0.3722 0.48048 0.0
O608 O 0.08304 0.37329 0.53734 0.0
O609 O 0.08206 0.44232 0.46371 0.0
O610 O 0.12728 0.3527 0.52777 0.0
O611 O 0.14893 0.41444 0.45903 0.0
O612 O 0.07451 0.42749 0.50578 0.0
O613 O 0.12824 0.32745 0.44471 0.0
O614 O 0.04691 0.33699 0.49578 0.0
O615 O 0.05997 0.39321 0.42758 0.0
Sc616 Sc 0.4025 0.63296 0.25659 0.0
Sc617 Sc 0.35133 0.64509 0.30979 0.0
Sc618 Sc 0.35365 0.6928 0.25422 0.0
O619 O 0.37054 0.65755 0.274 0.0
C620 C 0.42268 0.7017 0.24531 0.0
C621 C 0.42004 0.62495 0.31788 0.0
C622 C 0.35906 0.71354 0.31675 0.0
C623 C 0.3531 0.58447 0.27681 0.0
C624 C 0.36514 0.65012 0.2043 0.0
C625 C 0.29807 0.67685 0.2792 0.0
O626 O 0.42811 0.67344 0.24685 0.0
O627 O 0.3928 0.62536 0.32597 0.0
O628 O 0.35113 0.71786 0.29219 0.0
O629 O 0.37768 0.5919 0.26512 0.0
O630 O 0.35455 0.6738 0.21467 0.0
O631 O 0.30761 0.66733 0.30186 0.0
O632 O 0.38189 0.63224 0.21737 0.0
O633 O 0.33836 0.60195 0.29254 0.0
O634 O 0.31265 0.66952 0.25872 0.0
O635 O 0.42716 0.63061 0.29358 0.0
O636 O 0.39656 0.71287 0.24828 0.0
O637 O 0.36433 0.68752 0.32654 0.0
Sc638 Sc 0.05527 0.60286 0.99865 0.0
Sc639 Sc 0.10641 0.58938 0.05005 0.0
Sc640 Sc 0.11618 0.65085 0.00639 0.0
O641 O 0.09228 0.61534 0.01875 0.0
C642 C 0.09551 0.6253 0.9494 0.0
C643 C 0.07241 0.54188 0.01308 0.0
C644 C 0.16442 0.59765 0.01419 0.0
C645 C 0.03829 0.59706 0.06199 0.0
C646 C 0.04769 0.67277 0.00215 0.0
C647 C 0.12809 0.65474 0.06902 0.0
O648 O 0.07261 0.61202 0.95898 0.0
O649 O 0.08302 0.54844 0.03623 0.0
O650 O 0.15701 0.62468 0.00841 0.0
O651 O 0.03233 0.59257 0.03693 0.0
O652 O 0.07599 0.67782 0.00317 0.0
O653 O 0.12821 0.62625 0.0718 0.0
O654 O 0.03624 0.64656 0.00121 0.0
O655 O 0.0652 0.59999 0.07081 0.0
O656 O 0.12101 0.66727 0.04688 0.0
O657 O 0.07588 0.56034 0.99423 0.0
O658 O 0.11415 0.63945 0.96415 0.0
O659 O 0.14782 0.57966 0.02798 0.0
Sc660 Sc 0.13383 0.31364 0.74911 0.0
Sc661 Sc 0.15238 0.35418 0.80635 0.0
Sc662 Sc 0.09427 0.37883 0.76371 0.0
O663 O 0.1263 0.34901 0.77316 0.0
C664 C 0.11609 0.36304 0.70499 0.0
C665 C 0.19788 0.32516 0.76338 0.0
C666 C 0.15188 0.41877 0.78087 0.0
C667 C 0.13923 0.28609 0.80881 0.0
C668 C 0.06355 0.3146 0.75287 0.0
C669 C 0.08927 0.38024 0.82725 0.0
O670 O 0.12474 0.33698 0.71193 0.0
O671 O 0.19099 0.33093 0.78787 0.0
O672 O 0.12504 0.41551 0.772 0.0
O673 O 0.14373 0.28377 0.78338 0.0
O674 O 0.06212 0.34322 0.75507 0.0
O675 O 0.11716 0.37494 0.83099 0.0
O676 O 0.08817 0.30012 0.75208 0.0
O677 O 0.13736 0.31139 0.82073 0.0
O678 O 0.07731 0.37932 0.80399 0.0
O679 O 0.17894 0.32842 0.74468 0.0
O680 O 0.10663 0.3822 0.7219 0.0
O681 O 0.16703 0.39791 0.79227 0.0
Sc682 Sc 0.44783 0.3928 0.49245 0.0
Sc683 Sc 0.40056 0.40351 0.54765 0.0
Sc684 Sc 0.38501 0.34715 0.49943 0.0
O685 O 0.41121 0.38047 0.51344 0.0
C686 C 0.40442 0.37514 0.44351 0.0
C687 C 0.43076 0.45436 0.51011 0.0
C688 C 0.33827 0.39957 0.51572 0.0
C689 C 0.46969 0.39578 0.5551 0.0
C690 C 0.45236 0.32258 0.49214 0.0
C691 C 0.3773 0.33684 0.56231 0.0
O692 O 0.4285 0.38647 0.45286 0.0
O693 O 0.42255 0.44552 0.53355 0.0
O694 O 0.34519 0.37445 0.50483 0.0
O695 O 0.47386 0.40026 0.52979 0.0
O696 O 0.42391 0.31849 0.49344 0.0
O697 O 0.38099 0.36443 0.56872 0.0
O698 O 0.46481 0.34832 0.49243 0.0
O699 O 0.44349 0.39237 0.56518 0.0
O700 O 0.38069 0.32756 0.53833 0.0
O701 O 0.42968 0.43674 0.4903 0.0
O702 O 0.38554 0.36161 0.45828 0.0
O703 O 0.35631 0.41472 0.53083 0.0
H704 H 0.17784 0.05368 0.22991 0.0
H705 H 0.16109 0.04152 0.31501 0.0
H706 H 0.16517 0.98695 0.30971 0.0
H707 H 0.16346 0.94303 0.27904 0.0
H708 H 0.18197 0.95521 0.1942 0.0
H709 H 0.18777 0.00941 0.20117 0.0
C710 C 0.17634 0.03907 0.24744 0.0
C711 C 0.16905 0.05145 0.27277 0.0
C712 C 0.17845 0.00774 0.24415 0.0
C713 C 0.167 0.03246 0.29538 0.0
C714 C 0.16891 0.00124 0.29226 0.0
C715 C 0.16969 0.95752 0.26229 0.0
C716 C 0.17192 0.94534 0.2361 0.0
C717 C 0.1731 0.98863 0.2665 0.0
C718 C 0.1802 0.96413 0.21453 0.0
C719 C 0.18328 0.99515 0.21848 0.0
H720 H 0.30734 0.91104 0.5286 0.0
H721 H 0.29797 0.90455 0.44204 0.0
H722 H 0.24316 0.90766 0.44623 0.0
H723 H 0.19802 0.90398 0.47529 0.0
H724 H 0.20739 0.91325 0.56163 0.0
H725 H 0.26211 0.91768 0.5569 0.0
C726 C 0.29327 0.91131 0.51065 0.0
C727 C 0.30652 0.90743 0.48507 0.0
C728 C 0.26183 0.91316 0.51325 0.0
C729 C 0.28822 0.90779 0.4619 0.0
C730 C 0.25688 0.90921 0.46433 0.0
C731 C 0.21208 0.90781 0.49293 0.0
C732 C 0.19895 0.9081 0.51878 0.0
C733 C 0.24343 0.91067 0.48998 0.0
C734 C 0.21715 0.91313 0.54156 0.0
C735 C 0.2484 0.91544 0.53886 0.0
H736 H 0.33159 0.06511 0.77166 0.0
H737 H 0.34312 0.04695 0.68675 0.0
H738 H 0.33929 0.99277 0.69533 0.0
H739 H 0.34029 0.95084 0.72804 0.0
H740 H 0.32673 0.96871 0.81275 0.0
H741 H 0.32308 0.02276 0.80335 0.0
C742 C 0.33227 0.04922 0.75501 0.0
C743 C 0.33752 0.05975 0.72862 0.0
C744 C 0.32995 0.01816 0.76016 0.0
C745 C 0.33872 0.03919 0.70715 0.0
C746 C 0.3368 0.00826 0.7121 0.0
C747 C 0.33558 0.96657 0.74426 0.0
C748 C 0.33378 0.95603 0.77102 0.0
C749 C 0.33347 0.9975 0.73864 0.0
C750 C 0.32785 0.97642 0.79199 0.0
C751 C 0.32608 0.00731 0.78663 0.0
H752 H 0.28168 0.10939 0.04549 0.0
H753 H 0.31681 0.06756 0.97381 0.0
H754 H 0.26593 0.06453 0.95443 0.0
H755 H 0.21198 0.08037 0.95569 0.0
H756 H 0.17873 0.1241 0.02752 0.0
H757 H 0.2277 0.11938 0.04909 0.0
C758 C 0.27795 0.09863 0.02606 0.0
C759 C 0.3027 0.08815 0.01131 0.0
C760 C 0.24883 0.09776 0.01485 0.0
C761 C 0.29786 0.07509 0.98578 0.0
C762 C 0.26882 0.07372 0.97458 0.0
C763 C 0.21541 0.08818 0.97624 0.0
C764 C 0.19182 0.10288 0.98986 0.0
C765 C 0.24416 0.08591 0.98856 0.0
C766 C 0.19663 0.11307 0.01647 0.0
C767 C 0.22466 0.11039 0.02888 0.0
H768 H 0.83581 0.94181 0.77242 0.0
H769 H 0.84527 0.95333 0.68636 0.0
H770 H 0.84122 0.00799 0.6916 0.0
H771 H 0.8434 0.05245 0.7217 0.0
H772 H 0.8313 0.04094 0.80751 0.0
H773 H 0.82742 0.98636 0.80145 0.0
C774 C 0.83587 0.9563 0.75476 0.0
C775 C 0.84077 0.94369 0.72903 0.0
C776 C 0.83346 0.98768 0.75798 0.0
C777 C 0.8411 0.96256 0.70629 0.0
C778 C 0.83915 0.99383 0.70934 0.0
C779 C 0.83896 0.03799 0.73891 0.0
C780 C 0.83776 0.05056 0.76503 0.0
C781 C 0.83653 0.00666 0.7352 0.0
C782 C 0.83205 0.03174 0.78723 0.0
C783 C 0.83011 0.00052 0.78378 0.0
H784 H 0.78026 0.10179 0.44671 0.0
H785 H 0.81867 0.06166 0.51794 0.0
H786 H 0.76833 0.05479 0.53731 0.0
H787 H 0.71418 0.06893 0.53706 0.0
H788 H 0.6773 0.11175 0.46616 0.0
H789 H 0.72571 0.10833 0.44338 0.0
C790 C 0.77738 0.09038 0.46595 0.0
C791 C 0.80284 0.08178 0.48075 0.0
C792 C 0.74854 0.08752 0.47723 0.0
C793 C 0.79916 0.06782 0.50601 0.0
C794 C 0.77042 0.06429 0.51721 0.0
C795 C 0.71666 0.07661 0.51636 0.0
C796 C 0.69241 0.09087 0.50339 0.0
C797 C 0.745 0.07529 0.50352 0.0
C798 C 0.69584 0.10099 0.47662 0.0
C799 C 0.72352 0.0991 0.46358 0.0
H800 H 0.65659 0.05296 0.27998 0.0
H801 H 0.65529 0.04384 0.1932 0.0
H802 H 0.65876 0.9891 0.19756 0.0
H803 H 0.65407 0.94371 0.22635 0.0
H804 H 0.65805 0.95278 0.31302 0.0
H805 H 0.6619 0.00759 0.30855 0.0
C806 C 0.65807 0.03901 0.26203 0.0
C807 C 0.65558 0.05244 0.23629 0.0
C808 C 0.66005 0.00751 0.26473 0.0
C809 C 0.65749 0.03413 0.21321 0.0
C810 C 0.65908 0.00276 0.21572 0.0
C811 C 0.6566 0.95772 0.24418 0.0
C812 C 0.65562 0.94435 0.27 0.0
C813 C 0.65917 0.98918 0.24139 0.0
C814 C 0.65895 0.9626 0.29298 0.0
C815 C 0.66093 0.99393 0.2904 0.0
H816 H 0.78749 0.91779 0.04598 0.0
H817 H 0.82683 0.90056 0.96794 0.0
H818 H 0.77782 0.90626 0.94618 0.0
H819 H 0.72272 0.90737 0.95033 0.0
H820 H 0.68258 0.92041 0.02857 0.0
H821 H 0.73246 0.92571 0.04923 0.0
C822 C 0.78532 0.91629 0.02416 0.0
C823 C 0.81055 0.90881 0.00852 0.0
C824 C 0.75675 0.91855 0.01184 0.0
C825 C 0.80756 0.90634 0.9803 0.0
C826 C 0.77955 0.90945 0.96786 0.0
C827 C 0.72504 0.91256 0.97168 0.0
C828 C 0.69927 0.91401 0.98791 0.0
C829 C 0.7538 0.91434 0.98353 0.0
C830 C 0.7023 0.91978 0.01571 0.0
C831 C 0.73079 0.92247 0.02755 0.0
H832 H 0.66204 0.55798 0.7282 0.0
H833 H 0.65181 0.54221 0.81362 0.0
H834 H 0.6547 0.48779 0.80615 0.0
H835 H 0.65248 0.4449 0.77434 0.0
H836 H 0.66518 0.46047 0.68912 0.0
H837 H 0.66938 0.51473 0.69732 0.0
C838 C 0.66165 0.54257 0.74522 0.0
C839 C 0.65706 0.55393 0.77146 0.0
C840 C 0.66324 0.51133 0.74069 0.0
C841 C 0.65595 0.5339 0.79336 0.0
C842 C 0.6572 0.5028 0.78902 0.0
C843 C 0.65692 0.46019 0.7577 0.0
C844 C 0.65832 0.44889 0.73115 0.0
C845 C 0.65969 0.49127 0.76266 0.0
C846 C 0.66417 0.46874 0.70972 0.0
C847 C 0.66638 0.49975 0.7144 0.0
H848 H 0.79908 0.38752 0.02662 0.0
H849 H 0.78611 0.43032 0.94927 0.0
H850 H 0.73228 0.43596 0.95878 0.0
H851 H 0.688 0.42205 0.98663 0.0
H852 H 0.70161 0.37985 0.06407 0.0
H853 H 0.75617 0.381 0.05733 0.0
C854 C 0.78451 0.39857 0.01207 0.0
C855 C 0.79635 0.40812 0.98714 0.0
C856 C 0.75374 0.40176 0.01774 0.0
C857 C 0.77744 0.42279 0.96859 0.0
C858 C 0.74666 0.42584 0.97397 0.0
C859 C 0.7031 0.41413 0.00235 0.0
C860 C 0.69112 0.40121 0.02594 0.0
C861 C 0.73441 0.41456 0.99812 0.0
C862 C 0.71057 0.39035 0.04601 0.0
C863 C 0.74168 0.39072 0.04201 0.0
H864 H 0.84222 0.46403 0.28878 0.0
H865 H 0.85825 0.43027 0.20846 0.0
H866 H 0.85571 0.48129 0.1901 0.0
H867 H 0.8565 0.53619 0.19792 0.0
H868 H 0.84543 0.57001 0.27888 0.0
H869 H 0.83813 0.51884 0.29595 0.0
C870 C 0.84413 0.46788 0.26718 0.0
C871 C 0.85008 0.44352 0.24993 0.0
C872 C 0.84397 0.49749 0.25693 0.0
C873 C 0.85338 0.44876 0.22205 0.0
C874 C 0.85216 0.47794 0.21157 0.0
C875 C 0.8516 0.53225 0.21912 0.0
C876 C 0.85114 0.55666 0.23712 0.0
C877 C 0.84856 0.50261 0.22893 0.0
C878 C 0.84555 0.55143 0.26468 0.0
C879 C 0.84156 0.52218 0.27446 0.0
H880 H 0.70002 0.57632 0.51579 0.0
H881 H 0.71698 0.59958 0.43266 0.0
H882 H 0.7713 0.59897 0.44114 0.0
H883 H 0.81315 0.5993 0.4739 0.0
H884 H 0.7967 0.57481 0.5569 0.0
H885 H 0.74301 0.56802 0.5469 0.0
C886 C 0.71575 0.58003 0.49936 0.0
C887 C 0.70475 0.58754 0.47355 0.0
C888 C 0.74692 0.58 0.50455 0.0
C889 C 0.72511 0.59311 0.4525 0.0
C890 C 0.75611 0.59316 0.45746 0.0
C891 C 0.79784 0.59188 0.48963 0.0
C892 C 0.80864 0.58789 0.51615 0.0
C893 C 0.76717 0.58779 0.48364 0.0
C894 C 0.7888 0.57798 0.53635 0.0
C895 C 0.75812 0.57426 0.53065 0.0
H896 H 0.33995 0.44447 0.27159 0.0
H897 H 0.32582 0.46411 0.18722 0.0
H898 H 0.32475 0.51814 0.19729 0.0
H899 H 0.33581 0.55961 0.22933 0.0
H900 H 0.34793 0.53983 0.31393 0.0
H901 H 0.34151 0.48597 0.30478 0.0
C902 C 0.3356 0.46061 0.25559 0.0
C903 C 0.3329 0.45048 0.22872 0.0
C904 C 0.33512 0.49154 0.26159 0.0
C905 C 0.32753 0.47144 0.20807 0.0
C906 C 0.3273 0.50232 0.21381 0.0
C907 C 0.33617 0.54347 0.2458 0.0
C908 C 0.34237 0.55344 0.27225 0.0
C909 C 0.33222 0.51263 0.24035 0.0
C910 C 0.34293 0.53255 0.29349 0.0
C911 C 0.33948 0.5018 0.2882 0.0
H912 H 0.28273 0.59404 0.94713 0.0
H913 H 0.31976 0.57225 0.02512 0.0
H914 H 0.26911 0.56484 0.04344 0.0
H915 H 0.21428 0.5742 0.03915 0.0
H916 H 0.17814 0.59932 0.96146 0.0
H917 H 0.22787 0.59521 0.94102 0.0
C918 C 0.2796 0.58634 0.96777 0.0
C919 C 0.30475 0.58315 0.98467 0.0
C920 C 0.25038 0.58328 0.97836 0.0
C921 C 0.3006 0.57418 0.01165 0.0
C922 C 0.27163 0.57034 0.02221 0.0
C923 C 0.21726 0.57769 0.01761 0.0
C924 C 0.19273 0.58712 0.00181 0.0
C925 C 0.24628 0.57619 0.00608 0.0
C926 C 0.19683 0.59209 0.97398 0.0
C927 C 0.22528 0.58989 0.96229 0.0
H928 H 0.16059 0.55735 0.77883 0.0
H929 H 0.18757 0.53961 0.69676 0.0
H930 H 0.19221 0.48585 0.70709 0.0
H931 H 0.17866 0.44351 0.7373 0.0
H932 H 0.15117 0.46178 0.81914 0.0
H933 H 0.15718 0.51585 0.81145 0.0
C934 C 0.1685 0.54175 0.76353 0.0
C935 C 0.17354 0.55208 0.73709 0.0
C936 C 0.17069 0.51104 0.76958 0.0
C937 C 0.18376 0.53198 0.71728 0.0
C938 C 0.1861 0.50127 0.72314 0.0
C939 C 0.17523 0.45941 0.75366 0.0
C940 C 0.1647 0.44905 0.77876 0.0
C941 C 0.17824 0.49042 0.74888 0.0
C942 C 0.15968 0.46951 0.79981 0.0
C943 C 0.16282 0.50036 0.79532 0.0
H944 H 0.19777 0.41158 0.51842 0.0
H945 H 0.20981 0.40789 0.43208 0.0
H946 H 0.26452 0.41109 0.43793 0.0
H947 H 0.30885 0.40709 0.46811 0.0
H948 H 0.29698 0.41326 0.55437 0.0
H949 H 0.24237 0.41746 0.54822 0.0
C950 C 0.2124 0.41262 0.5009 0.0
C951 C 0.19986 0.40976 0.47482 0.0
C952 C 0.24385 0.41449 0.50449 0.0
C953 C 0.21896 0.41061 0.45227 0.0
C954 C 0.25025 0.41207 0.45566 0.0
C955 C 0.29431 0.41027 0.48547 0.0
C956 C 0.30685 0.40981 0.51168 0.0
C957 C 0.26297 0.41291 0.48171 0.0
C958 C 0.28786 0.41385 0.53404 0.0
C959 C 0.25662 0.41597 0.53051 0.0
H960 H 0.28821 0.2825 0.26299 0.0
H961 H 0.24741 0.30485 0.18617 0.0
H962 H 0.21578 0.25967 0.18931 0.0
H963 H 0.19814 0.21581 0.21509 0.0
H964 H 0.23827 0.19472 0.29236 0.0
H965 H 0.27342 0.2368 0.28689 0.0
C966 C 0.27234 0.27779 0.24684 0.0
C967 C 0.26985 0.29759 0.2245 0.0
C968 C 0.25484 0.25159 0.24854 0.0
C969 C 0.24947 0.29045 0.20374 0.0
C970 C 0.23164 0.26445 0.20543 0.0
C971 C 0.21503 0.21999 0.23053 0.0
C972 C 0.21544 0.2022 0.25426 0.0
C973 C 0.23406 0.24503 0.22782 0.0
C974 C 0.23762 0.20775 0.27385 0.0
C975 C 0.2573 0.23219 0.27094 0.0
H976 H 0.96162 0.0357 0.52731 0.0
H977 H 0.94981 0.00884 0.44391 0.0
H978 H 0.99654 0.98012 0.44615 0.0
H979 H 0.04136 0.96473 0.47097 0.0
H980 H 0.05324 0.9915 0.55438 0.0
H981 H 0.00628 0.01992 0.55229 0.0
C982 C 0.96892 0.02326 0.50964 0.0
C983 C 0.95214 0.02452 0.4854 0.0
C984 C 0.99627 0.00777 0.51075 0.0
C985 C 0.9621 0.00816 0.46284 0.0
C986 C 0.98904 0.9921 0.46399 0.0
C987 C 0.034 0.97704 0.4887 0.0
C988 C 0.05093 0.97594 0.51285 0.0
C989 C 0.00656 0.99234 0.48766 0.0
C990 C 0.04085 0.99209 0.5355 0.0
C991 C 0.01379 0.00799 0.53442 0.0
H992 H 0.2813 0.79954 0.72656 0.0
H993 H 0.25969 0.80087 0.81174 0.0
H994 H 0.2346 0.75205 0.80709 0.0
H995 H 0.22046 0.70869 0.77926 0.0
H996 H 0.24219 0.70745 0.69412 0.0
H997 H 0.26776 0.75596 0.69891 0.0
C998 C 0.27082 0.78942 0.74416 0.0
C999 C 0.27235 0.80405 0.76953 0.0
C1000 C 0.25763 0.76091 0.74157 0.0
C1001 C 0.25855 0.79045 0.79196 0.0
C1002 C 0.24468 0.76229 0.78938 0.0
C1003 C 0.23115 0.71875 0.76173 0.0
C1004 C 0.22936 0.70432 0.73629 0.0
C1005 C 0.24462 0.74714 0.76441 0.0
C1006 C 0.24349 0.71773 0.71395 0.0
C1007 C 0.25762 0.74575 0.7166 0.0
H1008 H 0.45732 0.02865 0.96969 0.0
H1009 H 0.45461 0.00919 0.05531 0.0
H1010 H 0.50344 0.9843 0.05201 0.0
H1011 H 0.54683 0.96885 0.02518 0.0
H1012 H 0.54916 0.98704 0.93937 0.0
H1013 H 0.50108 0.01348 0.94285 0.0
C1014 C 0.46716 0.01871 0.98767 0.0
C1015 C 0.45207 0.02076 0.01277 0.0
C1016 C 0.49558 0.00517 0.98578 0.0
C1017 C 0.46539 0.00772 0.03572 0.0
C1018 C 0.49354 0.99386 0.03391 0.0
C1019 C 0.53712 0.97893 0.00719 0.0
C1020 C 0.55175 0.97588 0.98198 0.0
C1021 C 0.50894 0.99283 0.00913 0.0
C1022 C 0.53873 0.98925 0.95904 0.0
C1023 C 0.51096 0.00393 0.96096 0.0
H1024 H 0.22076 0.79534 0.28609 0.0
H1025 H 0.2544 0.80477 0.20474 0.0
H1026 H 0.28801 0.76205 0.21198 0.0
H1027 H 0.29929 0.71666 0.23761 0.0
H1028 H 0.26325 0.70446 0.31801 0.0
H1029 H 0.23782 0.75327 0.31448 0.0
C1030 C 0.23632 0.78871 0.27028 0.0
C1031 C 0.23471 0.80282 0.24469 0.0
C1032 C 0.25377 0.76278 0.27393 0.0
C1033 C 0.2552 0.7944 0.22456 0.0
C1034 C 0.27385 0.76947 0.2285 0.0
C1035 C 0.28594 0.72449 0.25454 0.0
C1036 C 0.28248 0.70636 0.27786 0.0
C1037 C 0.27177 0.75247 0.25243 0.0
C1038 C 0.26573 0.71755 0.29967 0.0
C1039 C 0.25147 0.74556 0.29772 0.0
H1040 H 0.45371 0.96966 0.53495 0.0
H1041 H 0.44913 0.98723 0.4493 0.0
H1042 H 0.4933 0.02 0.4528 0.0
H1043 H 0.53813 0.03508 0.47836 0.0
H1044 H 0.54543 0.0132 0.56331 0.0
H1045 H 0.4962 0.98857 0.5615 0.0
C1046 C 0.46175 0.98163 0.51723 0.0
C1047 C 0.44855 0.97567 0.49181 0.0
C1048 C 0.48871 0.99787 0.51896 0.0
C1049 C 0.45879 0.9915 0.46907 0.0
C1050 C 0.4846 0.00949 0.47096 0.0
C1051 C 0.52909 0.02485 0.49655 0.0
C1052 C 0.54581 0.02557 0.52088 0.0
C1053 C 0.5007 0.01118 0.49544 0.0
C1054 C 0.53348 0.01242 0.54421 0.0
C1055 C 0.5051 0.99881 0.54328 0.0
H1056 H 0.20556 0.27127 0.78663 0.0
H1057 H 0.24028 0.32925 0.7242 0.0
H1058 H 0.26866 0.28719 0.70493 0.0
H1059 H 0.28261 0.23369 0.70554 0.0
H1060 H 0.24765 0.17579 0.76792 0.0
H1061 H 0.21858 0.21756 0.7866 0.0
C1062 C 0.22007 0.27482 0.7693 0.0
C1063 C 0.22172 0.30342 0.75731 0.0
C1064 C 0.23482 0.25023 0.75751 0.0
C1065 C 0.2396 0.30759 0.73422 0.0
C1066 C 0.2552 0.28343 0.72288 0.0
C1067 C 0.26765 0.23002 0.72255 0.0
C1068 C 0.26647 0.20158 0.73492 0.0
C1069 C 0.25242 0.25452 0.73402 0.0
C1070 C 0.248 0.19729 0.7576 0.0
C1071 C 0.23201 0.22133 0.76864 0.0
H1072 H 0.95607 0.97238 0.97717 0.0
H1073 H 0.95659 0.98854 0.06333 0.0
H1074 H 0.00395 0.01645 0.05887 0.0
H1075 H 0.04605 0.03404 0.03077 0.0
H1076 H 0.04584 0.01599 0.94485 0.0
H1077 H 0.99807 0.98926 0.94937 0.0
C1078 C 0.96627 0.98224 0.99506 0.0
C1079 C 0.95263 0.97832 0.02061 0.0
C1080 C 0.99404 0.99692 0.99252 0.0
C1081 C 0.96627 0.99143 0.04341 0.0
C1082 C 0.99362 0.00696 0.0409 0.0
C1083 C 0.03582 0.02395 0.01301 0.0
C1084 C 0.04971 0.02707 0.98744 0.0
C1085 C 0.00797 0.00926 0.01564 0.0
C1086 C 0.03597 0.01377 0.96477 0.0
C1087 C 0.0084 0.99885 0.96729 0.0
H1088 H 0.7049 0.73316 0.78379 0.0
H1089 H 0.73605 0.67525 0.71995 0.0
H1090 H 0.76949 0.71524 0.70345 0.0
H1091 H 0.78962 0.76686 0.70735 0.0
H1092 H 0.75813 0.82469 0.77112 0.0
H1093 H 0.72368 0.78524 0.7867 0.0
C1094 C 0.71978 0.72907 0.7668 0.0
C1095 C 0.71913 0.70094 0.75377 0.0
C1096 C 0.73762 0.75265 0.75666 0.0
C1097 C 0.7372 0.69633 0.7309 0.0
C1098 C 0.75577 0.71939 0.72116 0.0
C1099 C 0.77423 0.77119 0.72392 0.0
C1100 C 0.77551 0.799 0.73749 0.0
C1101 C 0.75577 0.74781 0.73361 0.0
C1102 C 0.75663 0.80387 0.75979 0.0
C1103 C 0.73753 0.78106 0.76907 0.0
H1104 H 0.70529 0.21823 0.27967 0.0
H1105 H 0.73379 0.19493 0.19898 0.0
H1106 H 0.77093 0.2359 0.20022 0.0
H1107 H 0.79114 0.28121 0.22236 0.0
H1108 H 0.76048 0.30578 0.30229 0.0
H1109 H 0.72674 0.2622 0.30246 0.0
C1110 C 0.72007 0.22165 0.26249 0.0
C1111 C 0.7167 0.20344 0.23919 0.0
C1112 C 0.73989 0.24627 0.26275 0.0
C1113 C 0.73614 0.20816 0.21726 0.0
C1114 C 0.75689 0.23205 0.21778 0.0
C1115 C 0.77694 0.27734 0.23984 0.0
C1116 C 0.77822 0.29723 0.26225 0.0
C1117 C 0.7581 0.25187 0.24003 0.0
C1118 C 0.75973 0.29136 0.28464 0.0
C1119 C 0.74074 0.26616 0.28488 0.0
H1120 H 0.77859 0.20372 0.72143 0.0
H1121 H 0.76848 0.20931 0.80815 0.0
H1122 H 0.74197 0.25725 0.80297 0.0
H1123 H 0.72452 0.29871 0.7741 0.0
H1124 H 0.73539 0.2934 0.68741 0.0
H1125 H 0.76064 0.24482 0.69255 0.0
C1126 C 0.77019 0.21511 0.73929 0.0
C1127 C 0.77551 0.20265 0.76524 0.0
C1128 C 0.75627 0.24326 0.73621 0.0
C1129 C 0.76437 0.2179 0.78798 0.0
C1130 C 0.74972 0.24564 0.78501 0.0
C1131 C 0.7327 0.28718 0.75624 0.0
C1132 C 0.72816 0.30004 0.73032 0.0
C1133 C 0.74624 0.25882 0.75929 0.0
C1134 C 0.73893 0.28453 0.70757 0.0
C1135 C 0.75291 0.25646 0.7105 0.0
H1136 H 0.78289 0.70392 0.27709 0.0
H1137 H 0.76916 0.70357 0.19052 0.0
H1138 H 0.74191 0.75113 0.19387 0.0
H1139 H 0.72294 0.79292 0.22106 0.0
H1140 H 0.73608 0.79305 0.30769 0.0
H1141 H 0.76421 0.74598 0.30428 0.0
C1142 C 0.7737 0.71398 0.25888 0.0
C1143 C 0.77807 0.69994 0.23353 0.0
C1144 C 0.75882 0.74171 0.26086 0.0
C1145 C 0.76596 0.71355 0.2103 0.0
C1146 C 0.75071 0.74097 0.21217 0.0
C1147 C 0.73224 0.78296 0.23927 0.0
C1148 C 0.72731 0.79671 0.26467 0.0
C1149 C 0.74738 0.7554 0.23728 0.0
C1150 C 0.73967 0.78329 0.28789 0.0
C1151 C 0.7554 0.75612 0.28598 0.0
H1152 H 0.51956 0.46223 0.04119 0.0
H1153 H 0.57627 0.49742 0.97799 0.0
H1154 H 0.53456 0.52797 0.96098 0.0
H1155 H 0.48147 0.54288 0.96305 0.0
H1156 H 0.42471 0.5081 0.02629 0.0
H1157 H 0.46639 0.47736 0.04338 0.0
C1158 C 0.52299 0.47733 0.02423 0.0
C1159 C 0.55109 0.47824 0.01122 0.0
C1160 C 0.49848 0.49342 0.0137 0.0
C1161 C 0.55504 0.49713 0.98874 0.0
C1162 C 0.53104 0.51399 0.97866 0.0
C1163 C 0.478 0.52764 0.97992 0.0
C1164 C 0.44988 0.52667 0.99279 0.0
C1165 C 0.50248 0.51162 0.99051 0.0
C1166 C 0.44592 0.50814 0.0155 0.0
C1167 C 0.46991 0.49123 0.02562 0.0
H1168 H 0.01922 0.45369 0.46539 0.0
H1169 H 0.07777 0.49124 0.52618 0.0
H1170 H 0.03526 0.51845 0.54609 0.0
H1171 H 0.98114 0.53033 0.54667 0.0
H1172 H 0.92281 0.49278 0.48569 0.0
H1173 H 0.96503 0.46461 0.46663 0.0
C1174 C 0.0228 0.46866 0.48243 0.0
C1175 C 0.05176 0.4715 0.49367 0.0
C1176 C 0.99797 0.48264 0.49467 0.0
C1177 C 0.05589 0.48979 0.51655 0.0
C1178 C 0.03146 0.50466 0.52831 0.0
C1179 C 0.97751 0.51519 0.52979 0.0
C1180 C 0.94875 0.51306 0.51797 0.0
C1181 C 0.00229 0.50071 0.51789 0.0
C1182 C 0.94453 0.49396 0.49564 0.0
C1183 C 0.96883 0.47856 0.4843 0.0
H1184 H 0.0379 0.53147 0.96866 0.0
H1185 H 0.04561 0.5088 0.05341 0.0
H1186 H 0.9963 0.48443 0.05169 0.0
H1187 H 0.95106 0.47048 0.02651 0.0
H1188 H 0.94366 0.49217 0.94156 0.0
H1189 H 0.99235 0.51784 0.94353 0.0
C1190 C 0.02905 0.52093 0.98677 0.0
C1191 C 0.04564 0.52196 0.01117 0.0
C1192 C 0.00038 0.50775 0.98584 0.0
C1193 C 0.03361 0.50815 0.03433 0.0
C1194 C 0.00521 0.49458 0.03344 0.0
C1195 C 0.95981 0.48114 0.00841 0.0
C1196 C 0.94361 0.47926 0.98385 0.0
C1197 C 0.98829 0.49465 0.00941 0.0
C1198 C 0.95539 0.49341 0.96075 0.0
C1199 C 0.98347 0.50767 0.96178 0.0
H1200 H 0.52557 0.53958 0.45759 0.0
H1201 H 0.58161 0.49983 0.51903 0.0
H1202 H 0.53829 0.47195 0.5368 0.0
H1203 H 0.48406 0.46031 0.53567 0.0
H1204 H 0.42803 0.50046 0.47443 0.0
H1205 H 0.47123 0.5287 0.45699 0.0
C1206 C 0.52843 0.52418 0.47438 0.0
C1207 C 0.55694 0.52103 0.48648 0.0
C1208 C 0.50308 0.50971 0.48545 0.0
C1209 C 0.56009 0.50177 0.50883 0.0
C1210 C 0.5352 0.48643 0.51937 0.0
C1211 C 0.48114 0.47604 0.51911 0.0
C1212 C 0.4527 0.479 0.50684 0.0
C1213 C 0.50645 0.4908 0.50825 0.0
C1214 C 0.44948 0.49864 0.48476 0.0
C1215 C 0.47433 0.51416 0.47438 0.0
H1216 H 0.16306 0.23224 0.34675 0.0
H1217 H 0.08154 0.25842 0.30557 0.0
H1218 H 0.077 0.30228 0.33531 0.0
H1219 H 0.09445 0.33115 0.37565 0.0
H1220 H 0.17525 0.30301 0.41675 0.0
H1221 H 0.18216 0.26243 0.38415 0.0
C1222 C 0.14425 0.24749 0.34419 0.0
C1223 C 0.12246 0.2417 0.32416 0.0
C1224 C 0.14183 0.27259 0.36127 0.0
C1225 C 0.09858 0.26215 0.3209 0.0
C1226 C 0.09598 0.28729 0.33792 0.0
C1227 C 0.11395 0.31659 0.3769 0.0
C1228 C 0.1345 0.32016 0.39839 0.0
C1229 C 0.11729 0.29256 0.35844 0.0
C1230 C 0.15931 0.30076 0.40025 0.0
C1231 C 0.16313 0.27742 0.38175 0.0
H1232 H 0.03564 0.90534 0.6152 0.0
H1233 H 0.97816 0.8837 0.54756 0.0
H1234 H 0.93561 0.87618 0.57835 0.0
H1235 H 0.91534 0.87322 0.62534 0.0
H1236 H 0.97443 0.89649 0.6918 0.0
H1237 H 0.01518 0.9058 0.6607 0.0
C1238 C 0.0138 0.89909 0.60709 0.0
C1239 C 0.01027 0.89488 0.5791 0.0
C1240 C 0.98949 0.89492 0.62482 0.0
C1241 C 0.9816 0.88715 0.56903 0.0
C1242 C 0.95723 0.88272 0.58667 0.0
C1243 C 0.93703 0.88058 0.63297 0.0
C1244 C 0.94151 0.88373 0.6611 0.0
C1245 C 0.96096 0.88618 0.61474 0.0
C1246 C 0.96996 0.89347 0.67043 0.0
C1247 C 0.99355 0.89889 0.65261 0.0
H1248 H 0.35877 0.73791 0.81962 0.0
H1249 H 0.3346 0.80529 0.87867 0.0
H1250 H 0.33722 0.76805 0.91449 0.0
H1251 H 0.34895 0.71769 0.92976 0.0
H1252 H 0.375 0.64943 0.87235 0.0
H1253 H 0.36862 0.68556 0.83526 0.0
C1254 C 0.3538 0.74433 0.84029 0.0
C1255 C 0.34672 0.77454 0.84635 0.0
C1256 C 0.35573 0.72269 0.86116 0.0
C1257 C 0.34043 0.78241 0.87332 0.0
C1258 C 0.34186 0.76108 0.89391 0.0
C1259 C 0.35313 0.71044 0.90916 0.0
C1260 C 0.36268 0.68079 0.90401 0.0
C1261 C 0.34994 0.73134 0.88814 0.0
C1262 C 0.36763 0.67204 0.87702 0.0
C1263 C 0.36411 0.69277 0.85579 0.0
H1264 H 0.58158 0.1253 0.1278 0.0
H1265 H 0.52847 0.08509 0.19152 0.0
H1266 H 0.48778 0.07566 0.16007 0.0
H1267 H 0.46531 0.08112 0.11514 0.0
H1268 H 0.51805 0.11854 0.05022 0.0
H1269 H 0.5604 0.12651 0.08121 0.0
C1270 C 0.56128 0.11415 0.13473 0.0
C1271 C 0.55833 0.10634 0.16226 0.0
C1272 C 0.53754 0.1084 0.1163 0.0
C1273 C 0.53169 0.0917 0.17064 0.0
C1274 C 0.50814 0.08627 0.15263 0.0
C1275 C 0.48613 0.09088 0.10775 0.0
C1276 C 0.48838 0.09942 0.08048 0.0
C1277 C 0.51054 0.09498 0.12556 0.0
C1278 C 0.5157 0.11167 0.07114 0.0
C1279 C 0.53993 0.11635 0.08889 0.0
H1280 H 0.14208 0.71423 0.06813 0.0
H1281 H 0.12931 0.63987 0.12305 0.0
H1282 H 0.13588 0.67383 0.16164 0.0
H1283 H 0.14286 0.72538 0.17977 0.0
H1284 H 0.15608 0.79898 0.12391 0.0
H1285 H 0.15168 0.76455 0.08592 0.0
C1286 C 0.14088 0.70531 0.08852 0.0
C1287 C 0.13503 0.67448 0.09258 0.0
C1288 C 0.1446 0.72493 0.11057 0.0
C1289 C 0.13388 0.66343 0.11923 0.0
C1290 C 0.13748 0.68291 0.14135 0.0
C1291 C 0.1449 0.73388 0.1593 0.0
C1292 C 0.14967 0.76491 0.1549 0.0
C1293 C 0.14246 0.71381 0.13727 0.0
C1294 C 0.15245 0.77534 0.12812 0.0
C1295 C 0.14988 0.75564 0.10626 0.0
H1296 H 0.46931 0.89301 0.38817 0.0
H1297 H 0.52879 0.86301 0.45177 0.0
H1298 H 0.56968 0.85778 0.41917 0.0
H1299 H 0.58843 0.86051 0.37203 0.0
H1300 H 0.52788 0.88997 0.30899 0.0
H1301 H 0.48796 0.89673 0.34191 0.0
C1302 C 0.49118 0.88534 0.39502 0.0
C1303 C 0.49574 0.87837 0.42249 0.0
C1304 C 0.51464 0.88231 0.37618 0.0
C1305 C 0.52443 0.86853 0.43079 0.0
C1306 C 0.54794 0.86554 0.41213 0.0
C1307 C 0.56659 0.86869 0.36557 0.0
C1308 C 0.5613 0.8746 0.33797 0.0
C1309 C 0.54331 0.87226 0.3847 0.0
C1310 C 0.5327 0.88499 0.33 0.0
C1311 C 0.50973 0.8889 0.34884 0.0
H1312 H 0.3739 0.3416 0.61836 0.0
H1313 H 0.36128 0.27901 0.55227 0.0
H1314 H 0.35077 0.23893 0.58377 0.0
H1315 H 0.34724 0.22019 0.62964 0.0
H1316 H 0.35876 0.28084 0.69696 0.0
H1317 H 0.36717 0.32273 0.66558 0.0
C1318 C 0.36863 0.31927 0.61089 0.0
C1319 C 0.36883 0.31362 0.58279 0.0
C1320 C 0.36241 0.2957 0.62935 0.0
C1321 C 0.36176 0.28436 0.57364 0.0
C1322 C 0.35563 0.26117 0.59168 0.0
C1323 C 0.35146 0.24256 0.63757 0.0
C1324 C 0.3526 0.24717 0.66566 0.0
C1325 C 0.35629 0.26643 0.61951 0.0
C1326 C 0.35775 0.27653 0.67542 0.0
C1327 C 0.36268 0.30052 0.65746 0.0
H1328 H 0.91015 0.1189 0.87395 0.0
H1329 H 0.96757 0.0927 0.80761 0.0
H1330 H 0.00911 0.08471 0.83856 0.0
H1331 H 0.03093 0.08858 0.88377 0.0
H1332 H 0.97468 0.11316 0.95114 0.0
H1333 H 0.93133 0.11804 0.92076 0.0
C1334 C 0.93158 0.11095 0.86637 0.0
C1335 C 0.93557 0.10688 0.83828 0.0
C1336 C 0.95592 0.10633 0.88448 0.0
C1337 C 0.96369 0.09654 0.82897 0.0
C1338 C 0.98766 0.09191 0.84668 0.0
C1339 C 0.00916 0.09482 0.89189 0.0
C1340 C 0.00626 0.10075 0.91969 0.0
C1341 C 0.9843 0.0974 0.87436 0.0
C1342 C 0.97767 0.10842 0.92982 0.0
C1343 C 0.95282 0.11133 0.91241 0.0
H1344 H 0.88435 0.65652 0.62762 0.0
H1345 H 0.85476 0.71245 0.56134 0.0
H1346 H 0.84719 0.75436 0.59195 0.0
H1347 H 0.85179 0.77662 0.63675 0.0
H1348 H 0.88053 0.72192 0.70401 0.0
H1349 H 0.88544 0.6784 0.67401 0.0
C1350 C 0.87578 0.67772 0.62003 0.0
C1351 C 0.87049 0.68128 0.59211 0.0
C1352 C 0.87161 0.70223 0.63787 0.0
C1353 C 0.85944 0.70905 0.58263 0.0
C1354 C 0.85509 0.73317 0.60013 0.0
C1355 C 0.85912 0.7552 0.64492 0.0
C1356 C 0.86608 0.75274 0.67255 0.0
C1357 C 0.86171 0.73026 0.62765 0.0
C1358 C 0.87508 0.72457 0.68278 0.0
C1359 C 0.87793 0.69962 0.66562 0.0
H1360 H 0.97314 0.08415 0.38761 0.0
H1361 H 0.01432 0.13808 0.44997 0.0
H1362 H 0.05941 0.14458 0.42209 0.0
H1363 H 0.08693 0.13553 0.37911 0.0
H1364 H 0.04584 0.07834 0.31869 0.0
H1365 H 0.00153 0.07243 0.3466 0.0
C1366 C 0.99198 0.09736 0.39503 0.0
C1367 C 0.99031 0.1108 0.42065 0.0
C1368 C 0.01811 0.10032 0.37924 0.0
C1369 C 0.0151 0.12747 0.43025 0.0
C1370 C 0.04088 0.13122 0.41431 0.0
C1371 C 0.06842 0.12156 0.37222 0.0
C1372 C 0.07002 0.10747 0.34673 0.0
C1373 C 0.04269 0.11777 0.38867 0.0
C1374 C 0.04564 0.08939 0.33821 0.0
C1375 C 0.02001 0.08605 0.35412 0.0
H1376 H 0.59626 0.33247 0.12157 0.0
H1377 H 0.6393 0.2774 0.06106 0.0
H1378 H 0.64555 0.23701 0.09371 0.0
H1379 H 0.63812 0.21655 0.13892 0.0
H1380 H 0.5942 0.27027 0.19989 0.0
H1381 H 0.58887 0.31158 0.16765 0.0
C1382 C 0.60725 0.31173 0.11567 0.0
C1383 C 0.61726 0.30806 0.08886 0.0
C1384 C 0.61043 0.28813 0.13456 0.0
C1385 C 0.63119 0.28086 0.08148 0.0
C1386 C 0.6348 0.25766 0.10015 0.0
C1387 C 0.62733 0.23723 0.14527 0.0
C1388 C 0.61663 0.24011 0.1719 0.0
C1389 C 0.62429 0.26091 0.12665 0.0
C1390 C 0.6027 0.26725 0.17956 0.0
C1391 C 0.59968 0.291 0.16112 0.0
H1392 H 0.46194 0.9051 0.82534 0.0
H1393 H 0.39241 0.88944 0.8846 0.0
H1394 H 0.43003 0.89291 0.92091 0.0
H1395 H 0.48359 0.89604 0.93516 0.0
H1396 H 0.55212 0.9088 0.87425 0.0
H1397 H 0.51382 0.91039 0.83923 0.0
C1398 C 0.45477 0.90261 0.84619 0.0
C1399 C 0.42437 0.89668 0.85216 0.0
C1400 C 0.47646 0.90369 0.86667 0.0
C1401 C 0.41563 0.89403 0.87938 0.0
C1402 C 0.43719 0.89577 0.90012 0.0
C1403 C 0.49009 0.89935 0.91425 0.0
C1404 C 0.52081 0.90196 0.9074 0.0
C1405 C 0.46782 0.89987 0.89393 0.0
C1406 C 0.52879 0.90632 0.88017 0.0
C1407 C 0.50687 0.90737 0.86007 0.0
H1408 H 0.85816 0.28357 0.92682 0.0
H1409 H 0.85958 0.35803 0.87084 0.0
H1410 H 0.85534 0.32279 0.8328 0.0
H1411 H 0.85417 0.2701 0.81546 0.0
H1412 H 0.85418 0.19701 0.87319 0.0
H1413 H 0.8551 0.23252 0.91024 0.0
C1414 C 0.85738 0.29232 0.90635 0.0
C1415 C 0.85937 0.32351 0.90182 0.0
C1416 C 0.85546 0.27205 0.88471 0.0
C1417 C 0.85804 0.33416 0.87503 0.0
C1418 C 0.85578 0.31398 0.85323 0.0
C1419 C 0.85424 0.26199 0.83614 0.0
C1420 C 0.85438 0.23074 0.84129 0.0
C1421 C 0.85496 0.28275 0.8578 0.0
C1422 C 0.85436 0.22077 0.86834 0.0
C1423 C 0.85481 0.2411 0.88971 0.0
H1424 H 0.48413 0.10239 0.57092 0.0
H1425 H 0.55482 0.09589 0.63077 0.0
H1426 H 0.51847 0.10466 0.66665 0.0
H1427 H 0.46751 0.1166 0.68106 0.0
H1428 H 0.39629 0.12405 0.62193 0.0
H1429 H 0.43204 0.11234 0.58581 0.0
C1430 C 0.49156 0.10254 0.59182 0.0
C1431 C 0.52232 0.09856 0.59801 0.0
C1432 C 0.47051 0.10798 0.61252 0.0
C1433 C 0.53142 0.09899 0.62528 0.0
C1434 C 0.51063 0.10406 0.64588 0.0
C1435 C 0.45962 0.11564 0.66031 0.0
C1436 C 0.42917 0.12146 0.65431 0.0
C1437 C 0.48025 0.10903 0.63971 0.0
C1438 C 0.41955 0.11976 0.62722 0.0
C1439 C 0.44001 0.11309 0.60653 0.0
H1440 H 0.66305 0.77657 0.36043 0.0
H1441 H 0.62906 0.72323 0.29428 0.0
H1442 H 0.62375 0.67968 0.32442 0.0
H1443 H 0.6253 0.65801 0.37099 0.0
H1444 H 0.66104 0.71268 0.43584 0.0
H1445 H 0.66943 0.75401 0.40484 0.0
C1446 C 0.6546 0.75537 0.35258 0.0
C1447 C 0.64608 0.75322 0.32535 0.0
C1448 C 0.65189 0.73053 0.36986 0.0
C1449 C 0.63572 0.72544 0.31528 0.0
C1450 C 0.6326 0.70056 0.33252 0.0
C1451 C 0.63539 0.67878 0.37814 0.0
C1452 C 0.64197 0.68232 0.40583 0.0
C1453 C 0.64017 0.70294 0.36004 0.0
C1454 C 0.65515 0.70943 0.41476 0.0
C1455 C 0.66002 0.7332 0.39705 0.0
H1456 H 0.0446 0.90209 0.17719 0.0
H1457 H 0.11303 0.87843 0.11912 0.0
H1458 H 0.07637 0.88431 0.08233 0.0
H1459 H 0.02354 0.8925 0.06715 0.0
H1460 H 0.95575 0.91307 0.12682 0.0
H1461 H 0.99358 0.91187 0.1624 0.0
C1462 C 0.05183 0.89842 0.15651 0.0
C1463 C 0.08171 0.88967 0.15111 0.0
C1464 C 0.03054 0.901 0.13567 0.0
C1465 C 0.0903 0.88523 0.12401 0.0
C1466 C 0.06925 0.88842 0.10295 0.0
C1467 C 0.01715 0.897 0.08791 0.0
C1468 C 0.9867 0.9027 0.09424 0.0
C1469 C 0.0391 0.89573 0.10859 0.0
C1470 C 0.97884 0.90833 0.12131 0.0
C1471 C 0.00051 0.90773 0.14172 0.0
H1472 H 0.66278 0.72484 0.85817 0.0
H1473 H 0.61495 0.77418 0.79663 0.0
H1474 H 0.61282 0.81831 0.82629 0.0
H1475 H 0.621 0.84147 0.87163 0.0
H1476 H 0.66926 0.79103 0.93227 0.0
H1477 H 0.67523 0.74923 0.901 0.0
C1478 C 0.65196 0.74527 0.85118 0.0
C1479 C 0.63866 0.74601 0.82537 0.0
C1480 C 0.65103 0.77056 0.86821 0.0
C1481 C 0.62526 0.77292 0.81647 0.0
C1482 C 0.62402 0.79819 0.83344 0.0
C1483 C 0.63347 0.82163 0.87767 0.0
C1484 C 0.64452 0.81935 0.90432 0.0
C1485 C 0.63642 0.79716 0.85959 0.0
C1486 C 0.66035 0.79331 0.91195 0.0
C1487 C 0.66368 0.76928 0.89412 0.0
H1488 H 0.51933 0.41714 0.10553 0.0
H1489 H 0.46887 0.37651 0.04058 0.0
H1490 H 0.4244 0.37287 0.06984 0.0
H1491 H 0.40174 0.37662 0.11585 0.0
H1492 H 0.45341 0.41849 0.17965 0.0
H1493 H 0.49512 0.4268 0.14883 0.0
C1494 C 0.49851 0.40769 0.09773 0.0
C1495 C 0.49746 0.39661 0.07119 0.0
C1496 C 0.47316 0.40595 0.1145 0.0
C1497 C 0.4702 0.38504 0.06108 0.0
C1498 C 0.44482 0.3829 0.07781 0.0
C1499 C 0.42184 0.38823 0.12272 0.0
C1500 C 0.42461 0.39654 0.1501 0.0
C1501 C 0.44621 0.39268 0.10483 0.0
C1502 C 0.45086 0.41149 0.15877 0.0
C1503 C 0.47482 0.4162 0.14119 0.0
H1504 H 0.85492 0.21644 0.42592 0.0
H1505 H 0.86902 0.14339 0.36983 0.0
H1506 H 0.86372 0.17834 0.33183 0.0
H1507 H 0.85829 0.23044 0.31474 0.0
H1508 H 0.84568 0.30282 0.37195 0.0
H1509 H 0.84724 0.2672 0.40919 0.0
C1510 C 0.85667 0.20795 0.40542 0.0
C1511 C 0.86258 0.17726 0.40086 0.0
C1512 C 0.85405 0.22814 0.38378 0.0
C1513 C 0.8645 0.16686 0.37403 0.0
C1514 C 0.86158 0.18688 0.35227 0.0
C1515 C 0.8556 0.23838 0.33533 0.0
C1516 C 0.85207 0.2694 0.34043 0.0
C1517 C 0.85684 0.21769 0.35691 0.0
C1518 C 0.84868 0.2792 0.36731 0.0
C1519 C 0.84953 0.25882 0.38871 0.0
H1520 H 0.02776 0.60048 0.56539 0.0
H1521 H 0.95812 0.58065 0.62363 0.0
H1522 H 0.99489 0.58116 0.65995 0.0
H1523 H 0.04538 0.5913 0.67601 0.0
H1524 H 0.11591 0.61362 0.61958 0.0
H1525 H 0.08048 0.6074 0.5818 0.0
C1526 C 0.02078 0.59595 0.58599 0.0
C1527 C 0.99007 0.59096 0.59174 0.0
C1528 C 0.04218 0.59675 0.60717 0.0
C1529 C 0.98143 0.58505 0.61859 0.0
C1530 C 0.00248 0.58524 0.63945 0.0
C1531 C 0.05324 0.59458 0.65545 0.0
C1532 C 0.08324 0.60325 0.65074 0.0
C1533 C 0.03271 0.59174 0.63408 0.0
C1534 C 0.09296 0.60692 0.62386 0.0
C1535 C 0.07262 0.60358 0.60225 0.0
H1536 H 0.65123 0.21228 0.5731 0.0
H1537 H 0.6358 0.14096 0.63056 0.0
H1538 H 0.64339 0.17653 0.66802 0.0
H1539 H 0.64926 0.22941 0.68402 0.0
H1540 H 0.66303 0.29966 0.62487 0.0
H1541 H 0.66121 0.26298 0.58863 0.0
C1542 C 0.64979 0.20436 0.59383 0.0
C1543 C 0.64259 0.17414 0.59904 0.0
C1544 C 0.65358 0.22488 0.61501 0.0
C1545 C 0.64134 0.16416 0.626 0.0
C1546 C 0.64545 0.18454 0.64741 0.0
C1547 C 0.65223 0.23655 0.66322 0.0
C1548 C 0.65576 0.26737 0.65722 0.0
C1549 C 0.65079 0.21519 0.64213 0.0
C1550 C 0.65971 0.27623 0.63014 0.0
C1551 C 0.65877 0.25525 0.60931 0.0
H1552 H 0.01302 0.39334 0.93519 0.0
H1553 H 0.94569 0.4189 0.87645 0.0
H1554 H 0.98254 0.41507 0.84036 0.0
H1555 H 0.03241 0.40163 0.82485 0.0
H1556 H 0.10056 0.37438 0.88206 0.0
H1557 H 0.06496 0.38204 0.91933 0.0
C1558 C 0.00657 0.39844 0.91453 0.0
C1559 C 0.97649 0.40623 0.90859 0.0
C1560 C 0.02794 0.39573 0.89355 0.0
C1561 C 0.96851 0.41259 0.88166 0.0
C1562 C 0.9896 0.41043 0.86094 0.0
C1563 C 0.03971 0.39741 0.84545 0.0
C1564 C 0.06916 0.38715 0.85051 0.0
C1565 C 0.01915 0.40149 0.86658 0.0
C1566 C 0.07807 0.38225 0.87748 0.0
C1567 C 0.05766 0.38653 0.8988 0.0
H1568 H 0.87672 0.84062 0.12953 0.0
H1569 H 0.84864 0.78497 0.06243 0.0
H1570 H 0.83937 0.74314 0.09277 0.0
H1571 H 0.84325 0.72048 0.13749 0.0
H1572 H 0.86977 0.77483 0.20569 0.0
H1573 H 0.87542 0.81873 0.17606 0.0
C1574 C 0.86801 0.81954 0.12171 0.0
C1575 C 0.86386 0.81593 0.09362 0.0
C1576 C 0.86279 0.79506 0.13944 0.0
C1577 C 0.85255 0.78834 0.08386 0.0
C1578 C 0.84722 0.76427 0.1012 0.0
C1579 C 0.8501 0.74197 0.14592 0.0
C1580 C 0.85645 0.74425 0.17366 0.0
C1581 C 0.85305 0.76707 0.12886 0.0
C1582 C 0.86479 0.77243 0.18434 0.0
C1583 C 0.86811 0.79755 0.16738 0.0
H1584 H 0.54165 0.60596 0.38143 0.0
H1585 H 0.48166 0.60345 0.44994 0.0
H1586 H 0.43836 0.60897 0.4196 0.0
H1587 H 0.41769 0.61661 0.3733 0.0
H1588 H 0.47932 0.61854 0.30573 0.0
H1589 H 0.52146 0.61113 0.33606 0.0
C1590 C 0.51914 0.60653 0.38987 0.0
C1591 C 0.51509 0.60454 0.41803 0.0
C1592 C 0.49445 0.60971 0.3724 0.0
C1593 C 0.48559 0.60504 0.42838 0.0
C1594 C 0.46076 0.60824 0.41101 0.0
C1595 C 0.4403 0.61519 0.36521 0.0
C1596 C 0.44505 0.61838 0.33713 0.0
C1597 C 0.46492 0.61091 0.38293 0.0
C1598 C 0.47468 0.61641 0.32714 0.0
C1599 C 0.49899 0.61214 0.34451 0.0
H1600 H 0.36158 0.21538 0.06657 0.0
H1601 H 0.3679 0.14345 0.12488 0.0
H1602 H 0.35903 0.17947 0.16164 0.0
H1603 H 0.35187 0.2323 0.17724 0.0
H1604 H 0.34623 0.30299 0.11739 0.0
H1605 H 0.35244 0.26648 0.08146 0.0
C1606 C 0.36098 0.20737 0.08729 0.0
C1607 C 0.36567 0.17666 0.09285 0.0
C1608 C 0.35607 0.22811 0.10819 0.0
C1609 C 0.36439 0.16691 0.11991 0.0
C1610 C 0.35941 0.18755 0.14097 0.0
C1611 C 0.35176 0.23967 0.15634 0.0
C1612 C 0.34877 0.27058 0.15026 0.0
C1613 C 0.35555 0.21835 0.13538 0.0
C1614 C 0.3487 0.27955 0.12293 0.0
C1615 C 0.35225 0.25863 0.10222 0.0
H1616 H 0.4795 0.58076 0.89737 0.0
H1617 H 0.51201 0.6516 0.94925 0.0
H1618 H 0.55599 0.65875 0.92002 0.0
H1619 H 0.58283 0.64749 0.87709 0.0
H1620 H 0.55026 0.57512 0.82676 0.0
H1621 H 0.50938 0.56532 0.85824 0.0
C1622 C 0.49631 0.59767 0.90223 0.0
C1623 C 0.49238 0.616 0.92498 0.0
C1624 C 0.52174 0.60116 0.88574 0.0
C1625 C 0.51457 0.6374 0.93159 0.0
C1626 C 0.53971 0.64146 0.91494 0.0
C1627 C 0.5673 0.62905 0.87356 0.0
C1628 C 0.56939 0.6122 0.84959 0.0
C1629 C 0.54334 0.62375 0.89166 0.0
C1630 C 0.54894 0.58851 0.84504 0.0
C1631 C 0.52541 0.58301 0.86291 0.0
H1632 H 0.14513 0.76687 0.681 0.0
H1633 H 0.15765 0.69486 0.62335 0.0
H1634 H 0.15218 0.72998 0.58622 0.0
H1635 H 0.14171 0.78027 0.5696 0.0
H1636 H 0.12876 0.85319 0.62601 0.0
H1637 H 0.13678 0.81865 0.66389 0.0
C1638 C 0.1469 0.75893 0.66033 0.0
C1639 C 0.15158 0.7281 0.65518 0.0
C1640 C 0.14356 0.77937 0.63871 0.0
C1641 C 0.15383 0.71831 0.62815 0.0
C1642 C 0.15071 0.73841 0.60675 0.0
C1643 C 0.14072 0.78877 0.59014 0.0
C1644 C 0.13442 0.8193 0.59484 0.0
C1645 C 0.14519 0.76886 0.61176 0.0
C1646 C 0.13354 0.8298 0.62171 0.0
C1647 C 0.13805 0.81002 0.64342 0.0
H1648 H 0.91271 0.3702 0.37389 0.0
H1649 H 0.96446 0.41539 0.31224 0.0
H1650 H 0.00526 0.42397 0.34417 0.0
H1651 H 0.02867 0.41448 0.38804 0.0
H1652 H 0.97814 0.37003 0.45079 0.0
H1653 H 0.93474 0.36546 0.42029 0.0
C1654 C 0.93259 0.38259 0.36773 0.0
C1655 C 0.9355 0.39198 0.34059 0.0
C1656 C 0.95654 0.38713 0.38629 0.0
C1657 C 0.96164 0.40773 0.3329 0.0
C1658 C 0.98513 0.41255 0.35113 0.0
C1659 C 0.00811 0.40394 0.39516 0.0
C1660 C 0.0069 0.39226 0.42158 0.0
C1661 C 0.98325 0.40157 0.3776 0.0
C1662 C 0.9798 0.37916 0.43053 0.0
C1663 C 0.95495 0.37648 0.41304 0.0
H1664 H 0.38032 0.83455 0.38134 0.0
H1665 H 0.35154 0.77667 0.44677 0.0
H1666 H 0.34424 0.73551 0.41549 0.0
H1667 H 0.34822 0.71458 0.37026 0.0
H1668 H 0.37458 0.77137 0.30369 0.0
H1669 H 0.38048 0.81414 0.33463 0.0
C1670 C 0.37217 0.81304 0.38869 0.0
C1671 C 0.36688 0.80887 0.41652 0.0
C1672 C 0.36776 0.78907 0.37044 0.0
C1673 C 0.3561 0.78076 0.42558 0.0
C1674 C 0.35192 0.75699 0.4077 0.0
C1675 C 0.35528 0.73633 0.36252 0.0
C1676 C 0.36136 0.73978 0.33491 0.0
C1677 C 0.35815 0.76072 0.38023 0.0
C1678 C 0.36985 0.76821 0.325 0.0
C1679 C 0.37327 0.79262 0.34266 0.0
H1680 H 0.91724 0.60893 0.13006 0.0
H1681 H 0.9811 0.64429 0.18807 0.0
H1682 H 0.02198 0.63555 0.15692 0.0
H1683 H 0.04053 0.61826 0.11347 0.0
H1684 H 0.97834 0.58355 0.05401 0.0
H1685 H 0.93644 0.59147 0.08532 0.0
C1686 C 0.94006 0.61479 0.13581 0.0
C1687 C 0.94575 0.62709 0.16165 0.0
C1688 C 0.96407 0.60968 0.11756 0.0
C1689 C 0.97569 0.63452 0.16859 0.0
C1690 C 0.99933 0.62957 0.15072 0.0
C1691 C 0.01788 0.61214 0.10732 0.0
C1692 C 0.0128 0.60019 0.08138 0.0
C1693 C 0.99387 0.61707 0.12524 0.0
C1694 C 0.98308 0.59279 0.07384 0.0
C1695 C 0.95901 0.59737 0.09176 0.0
H1696 H 0.10368 0.27978 0.85201 0.0
H1697 H 0.16639 0.23078 0.80258 0.0
H1698 H 0.16306 0.18748 0.83346 0.0
H1699 H 0.14445 0.16517 0.87703 0.0
H1700 H 0.08004 0.21587 0.9239 0.0
H1701 H 0.08168 0.25644 0.89146 0.0
C1702 C 0.11659 0.25958 0.84792 0.0
C1703 C 0.13571 0.25865 0.82546 0.0
C1704 C 0.11425 0.23497 0.86541 0.0
C1705 C 0.15172 0.23208 0.81999 0.0
C1706 C 0.14982 0.20737 0.83766 0.0
C1707 C 0.13054 0.18492 0.87984 0.0
C1708 C 0.11273 0.18764 0.90328 0.0
C1709 C 0.13148 0.20872 0.86081 0.0
C1710 C 0.09458 0.21334 0.90646 0.0
C1711 C 0.09537 0.23668 0.88787 0.0
H1712 H 0.59251 0.37901 0.62041 0.0
H1713 H 0.53136 0.39413 0.6869 0.0
H1714 H 0.49015 0.40152 0.65561 0.0
H1715 H 0.47002 0.40118 0.60985 0.0
H1716 H 0.52949 0.38753 0.54217 0.0
H1717 H 0.5723 0.38237 0.57319 0.0
C1718 C 0.57028 0.3843 0.62799 0.0
C1719 C 0.56531 0.38556 0.6562 0.0
C1720 C 0.54605 0.3886 0.60964 0.0
C1721 C 0.53613 0.3925 0.66547 0.0
C1722 C 0.51232 0.3968 0.64754 0.0
C1723 C 0.49233 0.39714 0.60176 0.0
C1724 C 0.49629 0.39444 0.57364 0.0
C1725 C 0.51682 0.39437 0.61965 0.0
C1726 C 0.5256 0.38965 0.56371 0.0
C1727 C 0.55016 0.38663 0.58149 0.0
H1728 H 0.05475 0.22531 0.26858 0.0
H1729 H 0.99398 0.14994 0.27545 0.0
H1730 H 0.9512 0.18485 0.27869 0.0
H1731 H 0.93171 0.23614 0.2732 0.0
H1732 H 0.99373 0.31062 0.26374 0.0
H1733 H 0.03602 0.27625 0.26802 0.0
C1734 C 0.03215 0.21649 0.27115 0.0
C1735 C 0.02711 0.18534 0.27115 0.0
C1736 C 0.00819 0.23639 0.27214 0.0
C1737 C 0.99806 0.17397 0.27516 0.0
C1738 C 0.97378 0.19387 0.27678 0.0
C1739 C 0.95446 0.24495 0.27216 0.0
C1740 C 0.9596 0.27582 0.26743 0.0
C1741 C 0.97861 0.22505 0.27419 0.0
C1742 C 0.98918 0.28693 0.26684 0.0
C1743 C 0.01334 0.26733 0.26935 0.0
H1744 H 0.06559 0.76279 0.50696 0.0
H1745 H 0.99137 0.82331 0.4921 0.0
H1746 H 0.95634 0.78128 0.49255 0.0
H1747 H 0.94646 0.72762 0.49801 0.0
H1748 H 0.02061 0.66711 0.51317 0.0
H1749 H 0.05581 0.70899 0.5117 0.0
C1750 C 0.0418 0.7668 0.50367 0.0
C1751 C 0.03122 0.79615 0.49958 0.0
C1752 C 0.02164 0.74259 0.50408 0.0
C1753 C 0.00023 0.80093 0.4954 0.0
C1754 C 0.98009 0.77692 0.49565 0.0
C1755 C 0.9703 0.72356 0.50099 0.0
C1756 C 0.98077 0.69429 0.50573 0.0
C1757 C 0.99052 0.7477 0.50016 0.0
C1758 C 0.01182 0.68944 0.50947 0.0
C1759 C 0.03205 0.71336 0.50864 0.0
H1760 H 0.4295 0.75117 0.7666 0.0
H1761 H 0.48454 0.83134 0.76149 0.0
H1762 H 0.52959 0.80036 0.75824 0.0
H1763 H 0.55293 0.75109 0.75623 0.0
H1764 H 0.49823 0.67071 0.76118 0.0
H1765 H 0.45305 0.70165 0.76506 0.0
C1766 C 0.45132 0.76198 0.76484 0.0
C1767 C 0.45362 0.79357 0.7642 0.0
C1768 C 0.47703 0.74411 0.76283 0.0
C1769 C 0.4821 0.80709 0.76197 0.0
C1770 C 0.50786 0.78942 0.76007 0.0
C1771 C 0.53116 0.74017 0.75803 0.0
C1772 C 0.52895 0.70858 0.75825 0.0
C1773 C 0.50549 0.75797 0.76032 0.0
C1774 C 0.50055 0.69497 0.76087 0.0
C1775 C 0.47475 0.71262 0.76312 0.0
H1776 H 0.43791 0.22947 0.98843 0.0
H1777 H 0.51149 0.16935 0.0068 0.0
H1778 H 0.54701 0.21081 0.00367 0.0
H1779 H 0.55708 0.26413 0.9975 0.0
H1780 H 0.48374 0.32477 0.97986 0.0
H1781 H 0.44833 0.28287 0.98065 0.0
C1782 C 0.4617 0.22546 0.99178 0.0
C1783 C 0.47197 0.19644 0.99791 0.0
C1784 C 0.48211 0.24938 0.98997 0.0
C1785 C 0.50293 0.19151 0.00197 0.0
C1786 C 0.52332 0.21518 0.0002 0.0
C1787 C 0.53342 0.2682 0.99351 0.0
C1788 C 0.52309 0.29751 0.98878 0.0
C1789 C 0.51313 0.24419 0.99437 0.0
C1790 C 0.49231 0.30238 0.98371 0.0
C1791 C 0.47199 0.27848 0.98423 0.0
H1792 H 0.97087 0.71001 0.22062 0.0
H1793 H 0.93124 0.75661 0.2881 0.0
H1794 H 0.9697 0.7962 0.28481 0.0
H1795 H 0.01683 0.8152 0.26431 0.0
H1796 H 0.05491 0.7681 0.19626 0.0
H1797 H 0.01405 0.73146 0.19741 0.0
C1798 C 0.97092 0.72873 0.23473 0.0
C1799 C 0.94919 0.73023 0.25505 0.0
C1800 C 0.9923 0.75152 0.23217 0.0
C1801 C 0.94843 0.75498 0.27266 0.0
C1802 C 0.97016 0.77761 0.27063 0.0
C1803 C 0.01548 0.79743 0.2493 0.0
C1804 C 0.03854 0.79403 0.2303 0.0
C1805 C 0.99238 0.77596 0.25058 0.0
C1806 C 0.03714 0.77086 0.21105 0.0
C1807 C 0.01406 0.74981 0.21187 0.0
H1808 H 0.50149 0.68052 0.49541 0.0
H1809 H 0.58112 0.733 0.51353 0.0
H1810 H 0.55008 0.77749 0.52023 0.0
H1811 H 0.50132 0.80152 0.5191 0.0
H1812 H 0.42158 0.75023 0.49895 0.0
H1813 H 0.45204 0.70458 0.49561 0.0
C1814 C 0.51213 0.70164 0.50093 0.0
C1815 C 0.54363 0.70349 0.50383 0.0
C1816 C 0.49424 0.7271 0.50457 0.0
C1817 C 0.55698 0.73102 0.51098 0.0
C1818 C 0.53926 0.75641 0.51491 0.0
C1819 C 0.49038 0.78039 0.51409 0.0
C1820 C 0.45922 0.77933 0.50901 0.0
C1821 C 0.50798 0.75469 0.5115 0.0
C1822 C 0.44552 0.75165 0.50291 0.0
C1823 C 0.46293 0.72564 0.50084 0.0
H1824 H 0.48343 0.19178 0.74167 0.0
H1825 H 0.42344 0.26679 0.75467 0.0
H1826 H 0.46587 0.30131 0.75496 0.0
H1827 H 0.51969 0.31057 0.75041 0.0
H1828 H 0.57985 0.23578 0.73702 0.0
H1829 H 0.53757 0.20098 0.73809 0.0
C1830 C 0.47965 0.21563 0.74474 0.0
C1831 C 0.45031 0.22659 0.74803 0.0
C1832 C 0.50413 0.23552 0.74474 0.0
C1833 C 0.4458 0.25765 0.75193 0.0
C1834 C 0.47004 0.2775 0.75212 0.0
C1835 C 0.52361 0.28667 0.74777 0.0
C1836 C 0.55287 0.27591 0.74359 0.0
C1837 C 0.49925 0.26671 0.74832 0.0
C1838 C 0.55752 0.24479 0.74027 0.0
C1839 C 0.53337 0.22479 0.74086 0.0
H1840 H 0.93531 0.26867 0.00179 0.0
H1841 H 0.00633 0.32849 0.97555 0.0
H1842 H 0.04236 0.28752 0.97763 0.0
H1843 H 0.05381 0.23516 0.98692 0.0
H1844 H 0.98319 0.1747 0.01264 0.0
H1845 H 0.94686 0.21574 0.01086 0.0
C1846 C 0.95861 0.27268 0.99636 0.0
C1847 C 0.96812 0.30155 0.98864 0.0
C1848 C 0.97932 0.24909 0.9977 0.0
C1849 C 0.99844 0.30648 0.98177 0.0
C1850 C 0.01911 0.28311 0.98294 0.0
C1851 C 0.03054 0.23097 0.99241 0.0
C1852 C 0.02123 0.20204 4e-05 0.0
C1853 C 0.00981 0.25443 0.99105 0.0
C1854 C 0.99091 0.19687 0.00672 0.0
C1855 C 0.97012 0.22026 0.00565 0.0
H1856 H 0.06773 0.75042 0.74099 0.0
H1857 H 0.01521 0.66854 0.73657 0.0
H1858 H 0.96906 0.69762 0.74195 0.0
H1859 H 0.94413 0.74579 0.74796 0.0
H1860 H 0.99665 0.8277 0.75234 0.0
H1861 H 0.0428 0.79859 0.74723 0.0
C1862 C 0.04622 0.73882 0.74101 0.0
C1863 C 0.04489 0.70733 0.7383 0.0
C1864 C 0.01997 0.75554 0.74438 0.0
C1865 C 0.01683 0.69275 0.73861 0.0
C1866 C 0.99048 0.70933 0.74175 0.0
C1867 C 0.96563 0.75741 0.748 0.0
C1868 C 0.96694 0.78892 0.75058 0.0
C1869 C 0.99189 0.74067 0.74478 0.0
C1870 C 0.99502 0.80348 0.75046 0.0
C1871 C 0.02137 0.78688 0.74743 0.0
H1872 H 0.00024 0.3087 0.49701 0.0
H1873 H 0.08019 0.25369 0.49201 0.0
H1874 H 0.04901 0.20837 0.49303 0.0
H1875 H 0.99952 0.18489 0.49499 0.0
H1876 H 0.91965 0.24006 0.49963 0.0
H1877 H 0.95089 0.2853 0.49917 0.0
C1878 C 0.01102 0.28685 0.4962 0.0
C1879 C 0.04255 0.28458 0.49448 0.0
C1880 C 0.9931 0.26109 0.49677 0.0
C1881 C 0.05598 0.25605 0.49335 0.0
C1882 C 0.0382 0.23017 0.49395 0.0
C1883 C 0.98882 0.20677 0.49608 0.0
C1884 C 0.95727 0.20912 0.49744 0.0
C1885 C 0.00678 0.23252 0.49565 0.0
C1886 C 0.94387 0.23765 0.49858 0.0
C1887 C 0.96169 0.26348 0.49831 0.0
H1888 H 0.42527 0.24428 0.23072 0.0
H1889 H 0.48016 0.32327 0.24507 0.0
H1890 H 0.5238 0.29144 0.25282 0.0
H1891 H 0.54572 0.24218 0.25634 0.0
H1892 H 0.49232 0.16249 0.24121 0.0
H1893 H 0.44801 0.19415 0.2333 0.0
C1894 C 0.44678 0.25461 0.23547 0.0
C1895 C 0.44942 0.28613 0.23751 0.0
C1896 C 0.4717 0.23623 0.24008 0.0
C1897 C 0.47749 0.29911 0.24344 0.0
C1898 C 0.5024 0.28095 0.24799 0.0
C1899 C 0.52438 0.23146 0.25164 0.0
C1900 C 0.52216 0.19996 0.24975 0.0
C1901 C 0.49958 0.24959 0.24665 0.0
C1902 C 0.49446 0.18669 0.24304 0.0
C1903 C 0.46927 0.20475 0.2384 0.0
H1904 H 0.49546 0.81752 0.99065 0.0
H1905 H 0.57611 0.76332 0.99387 0.0
H1906 H 0.54563 0.71802 0.99787 0.0
H1907 H 0.49688 0.69405 0.0003 0.0
H1908 H 0.41563 0.7472 0.99662 0.0
H1909 H 0.44599 0.79307 0.99318 0.0
C1910 C 0.50643 0.79581 0.99216 0.0
C1911 C 0.53806 0.79385 0.99196 0.0
C1912 C 0.4888 0.76983 0.99454 0.0
C1913 C 0.55184 0.76553 0.994 0.0
C1914 C 0.53445 0.73961 0.99632 0.0
C1915 C 0.48559 0.7156 0.9989 0.0
C1916 C 0.45397 0.71717 0.99879 0.0
C1917 C 0.503 0.74157 0.99667 0.0
C1918 C 0.43993 0.74537 0.99683 0.0
C1919 C 0.45726 0.77155 0.99478 0.0
H1920 H 0.93513 0.25567 0.75711 0.0
H1921 H 0.98828 0.17498 0.74779 0.0
H1922 H 0.034 0.20538 0.74551 0.0
H1923 H 0.05855 0.25428 0.74709 0.0
H1924 H 0.00555 0.33499 0.75692 0.0
H1925 H 0.95966 0.30472 0.75788 0.0
C1926 C 0.95667 0.2446 0.7546 0.0
C1927 C 0.95829 0.21305 0.75273 0.0
C1928 C 0.98274 0.26211 0.75332 0.0
C1929 C 0.9864 0.19921 0.7493 0.0
C1930 C 0.01253 0.21655 0.748 0.0
C1931 C 0.03701 0.2654 0.74936 0.0
C1932 C 0.03551 0.29688 0.75202 0.0
C1933 C 0.01089 0.24796 0.7501 0.0
C1934 C 0.00735 0.31081 0.75483 0.0
C1935 C 0.98113 0.29353 0.75545 0.0
H1936 H 0.44044 0.26715 0.51212 0.0
H1937 H 0.50958 0.32003 0.47321 0.0
H1938 H 0.54526 0.27891 0.47838 0.0
H1939 H 0.5571 0.22862 0.49477 0.0
H1940 H 0.48825 0.17548 0.53379 0.0
H1941 H 0.4522 0.21632 0.52805 0.0
C1942 C 0.46318 0.26945 0.50442 0.0
C1943 C 0.47241 0.29643 0.4923 0.0
C1944 C 0.48372 0.24596 0.50785 0.0
C1945 C 0.50203 0.29938 0.4827 0.0
C1946 C 0.52247 0.27599 0.48573 0.0
C1947 C 0.53431 0.2261 0.50228 0.0
C1948 C 0.52536 0.19925 0.51476 0.0
C1949 C 0.51366 0.24937 0.49859 0.0
C1950 C 0.49563 0.19606 0.52407 0.0
C1951 C 0.47499 0.21929 0.52073 0.0
H1952 H 0.48228 0.68855 0.24127 0.0
H1953 H 0.41974 0.76286 0.24058 0.0
H1954 H 0.46134 0.79839 0.23836 0.0
H1955 H 0.51543 0.80862 0.23953 0.0
H1956 H 0.57788 0.73422 0.24076 0.0
H1957 H 0.53628 0.6987 0.2397 0.0
C1958 C 0.47769 0.71248 0.24039 0.0
C1959 C 0.44792 0.72291 0.24135 0.0
C1960 C 0.5017 0.73292 0.23935 0.0
C1961 C 0.44245 0.75408 0.24005 0.0
C1962 C 0.46622 0.77451 0.23882 0.0
C1963 C 0.51998 0.78466 0.23939 0.0
C1964 C 0.54975 0.77424 0.24047 0.0
C1965 C 0.49594 0.7642 0.23894 0.0
C1966 C 0.55519 0.74302 0.24007 0.0
C1967 C 0.5314 0.72258 0.23949 0.0
H1968 H 0.94355 0.76775 0.00325 0.0
H1969 H 0.01914 0.82787 0.0148 0.0
H1970 H 0.05359 0.78546 0.01306 0.0
H1971 H 0.06221 0.73161 0.00836 0.0
H1972 H 0.98653 0.67155 0.997 0.0
H1973 H 0.95214 0.71398 0.99857 0.0
C1974 C 0.96754 0.77164 0.00542 0.0
C1975 C 0.97871 0.8009 0.00911 0.0
C1976 C 0.98723 0.74728 0.0044 0.0
C1977 C 0.0099 0.80553 0.01187 0.0
C1978 C 0.02966 0.78133 0.01089 0.0
C1979 C 0.03822 0.72776 0.00613 0.0
C1980 C 0.02701 0.6985 0.00254 0.0
C1981 C 0.01854 0.75215 0.00713 0.0
C1982 C 0.99581 0.69389 -0.0002 0.0
C1983 C 0.97609 0.71811 0.0007 0.0
H1984 H 0.07114 0.10362 0.08708 0.0
H1985 H 0.14723 0.16123 0.06998 0.0
H1986 H 0.15731 0.16641 0.11817 0.0
H1987 H 0.14237 0.15761 0.1652 0.0
H1988 H 0.06633 0.09988 0.18212 0.0
H1989 H 0.05863 0.09168 0.13395 0.0
C1990 C 0.09007 0.11715 0.09384 0.0
C1991 C 0.10806 0.13235 0.07491 0.0
C1992 C 0.09571 0.12019 0.12158 0.0
C1993 C 0.13277 0.14946 0.08408 0.0
C1994 C 0.13857 0.15251 0.11167 0.0
C1995 C 0.12422 0.14311 0.15837 0.0
C1996 C 0.10476 0.12975 0.17725 0.0
C1997 C 0.1198 0.13849 0.1306 0.0
C1998 C 0.08158 0.11065 0.16805 0.0
C1999 C 0.07709 0.10595 0.14048 0.0
H2000 H 0.13138 0.82955 0.42043 0.0
H2001 H 0.08217 0.91291 0.41458 0.0
H2002 H 0.08534 0.91101 0.36537 0.0
H2003 H 0.09952 0.88458 0.32416 0.0
H2004 H 0.14681 0.8 0.32924 0.0
H2005 H 0.14688 0.80349 0.37861 0.0
C2006 C 0.12173 0.84749 0.40837 0.0
C2007 C 0.10656 0.87134 0.42115 0.0
C2008 C 0.12299 0.84589 0.37997 0.0
C2009 C 0.09385 0.89424 0.40524 0.0
C2010 C 0.09561 0.89316 0.3771 0.0
C2011 C 0.11001 0.8669 0.33596 0.0
C2012 C 0.12302 0.84199 0.32289 0.0
C2013 C 0.10968 0.86887 0.36426 0.0
C2014 C 0.13644 0.81935 0.33869 0.0
C2015 C 0.13655 0.82136 0.36695 0.0
H2016 H 0.40925 0.89154 0.68064 0.0
H2017 H 0.34071 0.82266 0.67603 0.0
H2018 H 0.34282 0.82407 0.62677 0.0
H2019 H 0.36639 0.84211 0.58553 0.0
H2020 H 0.43712 0.90881 0.58959 0.0
H2021 H 0.43168 0.91116 0.63876 0.0
C2022 C 0.39454 0.87711 0.66882 0.0
C2023 C 0.37498 0.85692 0.68189 0.0
C2024 C 0.39636 0.87752 0.64053 0.0
C2025 C 0.35616 0.83819 0.66639 0.0
C2026 C 0.35732 0.839 0.63826 0.0
C2027 C 0.38046 0.85744 0.59705 0.0
C2028 C 0.40224 0.87514 0.58391 0.0
C2029 C 0.37771 0.85816 0.62518 0.0
C2030 C 0.42031 0.89479 0.59924 0.0
C2031 C 0.41722 0.89614 0.62733 0.0
H2032 H 0.40209 0.11423 0.824 0.0
H2033 H 0.3395 0.18777 0.83292 0.0
H2034 H 0.34028 0.1814 0.8819 0.0
H2035 H 0.36167 0.15764 0.92222 0.0
H2036 H 0.42601 0.08565 0.9133 0.0
H2037 H 0.42131 0.08862 0.86422 0.0
C2038 C 0.38836 0.12869 0.8366 0.0
C2039 C 0.37099 0.15161 0.82479 0.0
C2040 C 0.3893 0.12529 0.86476 0.0
C2041 C 0.35333 0.17012 0.84147 0.0
C2042 C 0.35372 0.1665 0.8695 0.0
C2043 C 0.37438 0.14232 0.90957 0.0
C2044 C 0.39432 0.12163 0.92142 0.0
C2045 C 0.37208 0.14455 0.88137 0.0
C2046 C 0.41069 0.102 0.9047 0.0
C2047 C 0.40804 0.10367 0.87663 0.0
H2048 H 0.87054 0.84418 0.92744 0.0
H2049 H 0.94294 0.90877 0.92066 0.0
H2050 H 0.93805 0.90794 0.87142 0.0
H2051 H 0.91541 0.88647 0.83046 0.0
H2052 H 0.84503 0.81978 0.83751 0.0
H2053 H 0.84679 0.82411 0.88673 0.0
C2054 C 0.88515 0.8583 0.91528 0.0
C2055 C 0.90721 0.87638 0.92774 0.0
C2056 C 0.8826 0.8573 0.88707 0.0
C2057 C 0.92593 0.89446 0.91158 0.0
C2058 C 0.92313 0.89403 0.88344 0.0
C2059 C 0.90016 0.87318 0.84274 0.0
C2060 C 0.88015 0.85279 0.83038 0.0
C2061 C 0.90184 0.8752 0.87099 0.0
C2062 C 0.86074 0.83551 0.84657 0.0
C2063 C 0.86176 0.83796 0.87468 0.0
H2064 H 0.86261 0.16795 0.5761 0.0
H2065 H 0.90912 0.08298 0.5799 0.0
H2066 H 0.90561 0.0832 0.62915 0.0
H2067 H 0.8934 0.10945 0.67094 0.0
H2068 H 0.84976 0.1961 0.66774 0.0
H2069 H 0.84804 0.19329 0.61841 0.0
C2070 C 0.87144 0.14927 0.58775 0.0
C2071 C 0.88613 0.12552 0.57453 0.0
C2072 C 0.87024 0.15003 0.61612 0.0
C2073 C 0.89786 0.10158 0.58976 0.0
C2074 C 0.89593 0.10172 0.61787 0.0
C2075 C 0.88326 0.12766 0.65953 0.0
C2076 C 0.87198 0.15306 0.67304 0.0
C2077 C 0.88284 0.12617 0.63126 0.0
C2078 C 0.8589 0.17639 0.65786 0.0
C2079 C 0.85785 0.1748 0.62964 0.0
H2080 H 0.63062 0.15708 0.42846 0.0
H2081 H 0.55432 0.09673 0.42465 0.0
H2082 H 0.55648 0.09725 0.37543 0.0
H2083 H 0.57819 0.11666 0.33372 0.0
H2084 H 0.65328 0.17846 0.3371 0.0
H2085 H 0.65353 0.17525 0.38642 0.0
C2086 C 0.61454 0.1439 0.4169 0.0
C2087 C 0.5922 0.12708 0.43026 0.0
C2088 C 0.61566 0.14455 0.38858 0.0
C2089 C 0.57159 0.11011 0.41492 0.0
C2090 C 0.57283 0.11032 0.38676 0.0
C2091 C 0.59485 0.12924 0.34516 0.0
C2092 C 0.6156 0.14787 0.33171 0.0
C2093 C 0.59451 0.12774 0.37341 0.0
C2094 C 0.63694 0.16406 0.34694 0.0
C2095 C 0.63708 0.16227 0.37513 0.0
H2096 H 0.59036 0.88316 0.16898 0.0
H2097 H 0.66961 0.82751 0.16324 0.0
H2098 H 0.66917 0.83271 0.11409 0.0
H2099 H 0.64374 0.8492 0.07293 0.0
H2100 H 0.56273 0.90238 0.07854 0.0
H2101 H 0.56652 0.90208 0.12777 0.0
C2102 C 0.60782 0.87258 0.15701 0.0
C2103 C 0.62985 0.85483 0.16963 0.0
C2104 C 0.60693 0.87493 0.12881 0.0
C2105 C 0.65224 0.84108 0.1539 0.0
C2106 C 0.65199 0.84401 0.12584 0.0
C2107 C 0.62704 0.86098 0.08487 0.0
C2108 C 0.60282 0.87549 0.07211 0.0
C2109 C 0.62901 0.86024 0.11309 0.0
C2110 C 0.58142 0.89071 0.0879 0.0
C2111 C 0.58358 0.89061 0.11603 0.0
H2112 H 0.57808 0.60124 0.58558 0.0
H2113 H 0.65936 0.65169 0.56958 0.0
H2114 H 0.66529 0.66201 0.61764 0.0
H2115 H 0.64529 0.66006 0.66385 0.0
H2116 H 0.56481 0.60859 0.67989 0.0
H2117 H 0.56065 0.59548 0.63214 0.0
C2118 C 0.59728 0.6142 0.59262 0.0
C2119 C 0.61795 0.62599 0.57398 0.0
C2120 C 0.60053 0.62023 0.62025 0.0
C2121 C 0.64297 0.64241 0.58347 0.0
C2122 C 0.64633 0.64852 0.61096 0.0
C2123 C 0.62689 0.64598 0.65681 0.0
C2124 C 0.6052 0.63564 0.67514 0.0
C2125 C 0.62484 0.63818 0.62943 0.0
C2126 C 0.58175 0.6169 0.66602 0.0
C2127 C 0.57933 0.60939 0.63877 0.0
H2128 H 0.60442 0.38989 0.82299 0.0
H2129 H 0.65667 0.30844 0.83031 0.0
H2130 H 0.65516 0.31263 0.87952 0.0
H2131 H 0.63508 0.33686 0.92028 0.0
H2132 H 0.58044 0.41658 0.91248 0.0
H2133 H 0.58717 0.41577 0.86352 0.0
C2134 C 0.61575 0.37315 0.83527 0.0
C2135 C 0.63033 0.34869 0.82294 0.0
C2136 C 0.6143 0.37534 0.86347 0.0
C2137 C 0.64501 0.32735 0.83925 0.0
C2138 C 0.64418 0.32972 0.86741 0.0
C2139 C 0.62509 0.35435 0.90789 0.0
C2140 C 0.60713 0.37662 0.91991 0.0
C2141 C 0.62833 0.35326 0.87971 0.0
C2142 C 0.59414 0.39903 0.90363 0.0
C2143 C 0.59794 0.39857 0.87566 0.0
H2144 H 0.87113 0.33146 0.07489 0.0
H2145 H 0.92944 0.40907 0.08029 0.0
H2146 H 0.93008 0.40486 0.12948 0.0
H2147 H 0.91536 0.37852 0.17073 0.0
H2148 H 0.85837 0.29985 0.16569 0.0
H2149 H 0.85614 0.30505 0.11654 0.0
C2150 C 0.88372 0.34763 0.08686 0.0
C2151 C 0.90015 0.37059 0.07393 0.0
C2152 C 0.88449 0.34474 0.11516 0.0
C2153 C 0.91666 0.39114 0.08971 0.0
C2154 C 0.91708 0.38874 0.11785 0.0
C2155 C 0.90242 0.36245 0.15896 0.0
C2156 C 0.88712 0.33878 0.17199 0.0
C2157 C 0.90133 0.36547 0.13075 0.0
C2158 C 0.87051 0.31821 0.15626 0.0
C2159 C 0.86913 0.32122 0.12813 0.0
H2160 H 0.86623 0.64363 0.42708 0.0
H2161 H 0.94795 0.59221 0.41756 0.0
H2162 H 0.94275 0.59518 0.36842 0.0
H2163 H 0.91732 0.6158 0.32861 0.0
H2164 H 0.83721 0.66957 0.33851 0.0
H2165 H 0.83945 0.66196 0.38737 0.0
C2166 C 0.88286 0.63281 0.41435 0.0
C2167 C 0.90764 0.61796 0.42603 0.0
C2168 C 0.88009 0.63513 0.38625 0.0
C2169 C 0.9288 0.60399 0.40913 0.0
C2170 C 0.92585 0.60569 0.38104 0.0
C2171 C 0.90009 0.62557 0.34138 0.0
C2172 C 0.87724 0.64342 0.32994 0.0
C2173 C 0.90192 0.62172 0.36944 0.0
C2174 C 0.85518 0.65595 0.34682 0.0
C2175 C 0.85645 0.65163 0.37474 0.0
H2176 H 0.36701 0.33915 0.41453 0.0
H2177 H 0.42979 0.41291 0.40636 0.0
H2178 H 0.42314 0.41202 0.35731 0.0
H2179 H 0.40179 0.38859 0.31694 0.0
H2180 H 0.34123 0.31295 0.32473 0.0
H2181 H 0.34465 0.31642 0.374 0.0
C2182 C 0.37901 0.35527 0.40206 0.0
C2183 C 0.3989 0.37606 0.41406 0.0
C2184 C 0.3756 0.35418 0.37389 0.0
C2185 C 0.41448 0.39658 0.3976 0.0
C2186 C 0.41067 0.39609 0.36958 0.0
C2187 C 0.38906 0.373 0.32935 0.0
C2188 C 0.37129 0.3505 0.31715 0.0
C2189 C 0.39163 0.37472 0.35753 0.0
C2190 C 0.35517 0.33038 0.3336 0.0
C2191 C 0.35712 0.33236 0.36176 0.0
H2192 H 0.39213 0.60822 0.17299 0.0
H2193 H 0.32786 0.68091 0.17001 0.0
H2194 H 0.32775 0.67882 0.12071 0.0
H2195 H 0.3513 0.66113 0.07871 0.0
H2196 H 0.41784 0.5906 0.08248 0.0
H2197 H 0.41148 0.58701 0.13123 0.0
C2198 C 0.37768 0.62329 0.16163 0.0
C2199 C 0.36054 0.64507 0.17512 0.0
C2200 C 0.37842 0.62265 0.13339 0.0
C2201 C 0.34168 0.6642 0.16007 0.0
C2202 C 0.34164 0.6631 0.13188 0.0
C2203 C 0.36403 0.64469 0.09019 0.0
C2204 C 0.38542 0.62663 0.07719 0.0
C2205 C 0.36081 0.6432 0.11834 0.0
C2206 C 0.40167 0.60524 0.09219 0.0
C2207 C 0.39801 0.60308 0.12004 0.0
H2208 H 0.12911 0.66404 0.91935 0.0
H2209 H 0.07183 0.58574 0.91292 0.0
H2210 H 0.07708 0.58641 0.86381 0.0
H2211 H 0.09608 0.61037 0.82268 0.0
H2212 H 0.15136 0.69012 0.82878 0.0
H2213 H 0.14877 0.68764 0.87807 0.0
C2214 C 0.11798 0.64697 0.90722 0.0
C2215 C 0.10007 0.62492 0.91979 0.0
C2216 C 0.1206 0.64781 0.87894 0.0
C2217 C 0.0856 0.6031 0.90375 0.0
C2218 C 0.0886 0.60343 0.87567 0.0
C2219 C 0.10777 0.6271 0.83476 0.0
C2220 C 0.12385 0.65041 0.82203 0.0
C2221 C 0.10576 0.62587 0.86304 0.0
C2222 C 0.13867 0.67202 0.83804 0.0
C2223 C 0.13724 0.67061 0.86623 0.0
H2224 H 0.08438 0.39707 0.58478 0.0
H2225 H 0.15006 0.32774 0.56943 0.0
H2226 H 0.1598 0.32315 0.6178 0.0
H2227 H 0.14703 0.33614 0.66449 0.0
H2228 H 0.08213 0.4061 0.68008 0.0
H2229 H 0.07506 0.41341 0.63153 0.0
C2230 C 0.10092 0.38107 0.59203 0.0
C2231 C 0.11616 0.36251 0.57357 0.0
C2232 C 0.10656 0.37864 0.61988 0.0
C2233 C 0.13794 0.34225 0.58321 0.0
C2234 C 0.14348 0.33953 0.61088 0.0
C2235 C 0.13152 0.35317 0.65727 0.0
C2236 C 0.11486 0.37027 0.67585 0.0
C2237 C 0.12753 0.35721 0.62939 0.0
C2238 C 0.09522 0.39259 0.6662 0.0
C2239 C 0.09102 0.39667 0.63844 0.0
loop_
_geom_bond_atom_site_label_1
_geom_bond_atom_site_label_2
_geom_bond_distance
_geom_bond_site_symmetry_2
_ccdc_geom_bond_type
Sc0 O3 2.025 . S
Sc0 O10 2.105 . S
Sc0 O13 2.105 . S
Sc0 O16 2.105 . S
Sc0 O19 2.105 . S
Sc1 O3 2.025 . S
Sc1 O11 2.105 . S
Sc1 O15 2.105 . S
Sc1 O17 2.105 . S
Sc1 O21 2.105 . S
Sc2 O3 2.025 . S
Sc2 O12 2.105 . S
Sc2 O14 2.105 . S
Sc2 O18 2.105 . S
Sc2 O20 2.105 . S
O3 Sc0 2.025 . S
O3 Sc1 2.025 . S
O3 Sc2 2.025 . S
C4 O10 1.268 . S
C4 O20 1.268 . S
C5 O11 1.268 . S
C5 O19 1.268 . S
C6 O12 1.268 . S
C6 O21 1.268 . S
C7 O13 1.268 . S
C7 O17 1.268 . S
C8 O14 1.268 . S
C8 O16 1.268 . S
C9 O15 1.268 . S
C9 O18 1.268 . S
O10 Sc0 2.105 . S
O10 C4 1.268 . S
O11 Sc1 2.105 . S
O11 C5 1.268 . S
O12 Sc2 2.105 . S
O12 C6 1.268 . S
O13 Sc0 2.105 . S
O13 C7 1.268 . S
O14 Sc2 2.105 . S
O14 C8 1.268 . S
O15 Sc1 2.105 . S
O15 C9 1.268 . S
O16 Sc0 2.105 . S
O16 C8 1.268 . S
O17 Sc1 2.105 . S
O17 C7 1.268 . S
O18 Sc2 2.105 . S
O18 C9 1.268 . S
O19 Sc0 2.105 . S
O19 C5 1.268 . S
O20 Sc2 2.105 . S
O20 C4 1.268 . S
O21 Sc1 2.105 . S
O21 C6 1.268 . S
Sc22 O25 2.025 . S
Sc22 O32 2.105 . S
Sc22 O35 2.105 . S
Sc22 O38 2.105 . S
Sc22 O41 2.105 . S
Sc23 O25 2.025 . S
Sc23 O33 2.105 . S
Sc23 O37 2.105 . S
Sc23 O39 2.105 . S
Sc23 O43 2.105 . S
Sc24 O25 2.025 . S
Sc24 O34 2.105 . S
Sc24 O36 2.105 . S
Sc24 O40 2.105 . S
Sc24 O42 2.105 . S
O25 Sc22 2.025 . S
O25 Sc23 2.025 . S
O25 Sc24 2.025 . S
C26 O32 1.268 . S
C26 O42 1.268 . S
C27 O33 1.268 . S
C27 O41 1.268 . S
C28 O34 1.268 . S
C28 O43 1.268 . S
C29 O35 1.268 . S
C29 O39 1.268 . S
C30 O36 1.268 . S
C30 O38 1.268 . S
C31 O37 1.268 . S
C31 O40 1.268 . S
O32 Sc22 2.105 . S
O32 C26 1.268 . S
O33 Sc23 2.105 . S
O33 C27 1.268 . S
O34 Sc24 2.105 . S
O34 C28 1.268 . S
O35 Sc22 2.105 . S
O35 C29 1.268 . S
O36 Sc24 2.105 . S
O36 C30 1.268 . S
O37 Sc23 2.105 . S
O37 C31 1.268 . S
O38 Sc22 2.105 . S
O38 C30 1.268 . S
O39 Sc23 2.105 . S
O39 C29 1.268 . S
O40 Sc24 2.105 . S
O40 C31 1.268 . S
O41 Sc22 2.105 . S
O41 C27 1.268 . S
O42 Sc24 2.105 . S
O42 C26 1.268 . S
O43 Sc23 2.105 . S
O43 C28 1.268 . S
Sc44 O47 2.025 . S
Sc44 O54 2.105 . S
Sc44 O57 2.105 . S
Sc44 O60 2.105 . S
Sc44 O63 2.105 . S
Sc45 O47 2.025 . S
Sc45 O55 2.105 . S
Sc45 O59 2.105 . S
Sc45 O61 2.105 . S
Sc45 O65 2.105 . S
Sc46 O47 2.025 . S
Sc46 O56 2.105 . S
Sc46 O58 2.105 . S
Sc46 O62 2.105 . S
Sc46 O64 2.105 . S
O47 Sc44 2.025 . S
O47 Sc45 2.025 . S
O47 Sc46 2.025 . S
C48 O54 1.268 . S
C48 O64 1.268 . S
C49 O55 1.268 . S
C49 O63 1.268 . S
C50 O56 1.268 . S
C50 O65 1.268 . S
C51 O57 1.268 . S
C51 O61 1.268 . S
C52 O58 1.268 . S
C52 O60 1.268 . S
C53 O59 1.268 . S
C53 O62 1.268 . S
O54 Sc44 2.105 . S
O54 C48 1.268 . S
O55 Sc45 2.105 . S
O55 C49 1.268 . S
O56 Sc46 2.105 . S
O56 C50 1.268 . S
O57 Sc44 2.105 . S
O57 C51 1.268 . S
O58 Sc46 2.105 . S
O58 C52 1.268 . S
O59 Sc45 2.105 . S
O59 C53 1.268 . S
O60 Sc44 2.105 . S
O60 C52 1.268 . S
O61 Sc45 2.105 . S
O61 C51 1.268 . S
O62 Sc46 2.105 . S
O62 C53 1.268 . S
O63 Sc44 2.105 . S
O63 C49 1.268 . S
O64 Sc46 2.105 . S
O64 C48 1.268 . S
O65 Sc45 2.105 . S
O65 C50 1.268 . S
Sc66 O69 2.025 . S
Sc66 O76 2.105 1_554 S
Sc66 O79 2.105 . S
Sc66 O82 2.105 . S
Sc66 O85 2.105 . S
Sc67 O69 2.025 . S
Sc67 O77 2.105 . S
Sc67 O81 2.105 . S
Sc67 O83 2.105 . S
Sc67 O87 2.105 . S
Sc68 O69 2.025 . S
Sc68 O78 2.105 . S
Sc68 O80 2.105 . S
Sc68 O84 2.105 . S
Sc68 O86 2.105 1_554 S
O69 Sc66 2.025 . S
O69 Sc67 2.025 . S
O69 Sc68 2.025 . S
C70 O76 1.268 . S
C70 O86 1.268 . S
C71 O77 1.268 . S
C71 O85 1.268 . S
C72 O78 1.268 . S
C72 O87 1.268 . S
C73 O79 1.268 . S
C73 O83 1.268 . S
C74 O80 1.268 . S
C74 O82 1.268 . S
C75 O81 1.268 . S
C75 O84 1.268 . S
O76 Sc66 2.105 1_556 S
O76 C70 1.268 . S
O77 Sc67 2.105 . S
O77 C71 1.268 . S
O78 Sc68 2.105 . S
O78 C72 1.268 . S
O79 Sc66 2.105 . S
O79 C73 1.268 . S
O80 Sc68 2.105 . S
O80 C74 1.268 . S
O81 Sc67 2.105 . S
O81 C75 1.268 . S
O82 Sc66 2.105 . S
O82 C74 1.268 . S
O83 Sc67 2.105 . S
O83 C73 1.268 . S
O84 Sc68 2.105 . S
O84 C75 1.268 . S
O85 Sc66 2.105 . S
O85 C71 1.268 . S
O86 Sc68 2.105 1_556 S
O86 C70 1.268 . S
O87 Sc67 2.105 . S
O87 C72 1.268 . S
Sc88 O91 2.025 . S
Sc88 O98 2.105 . S
Sc88 O101 2.105 . S
Sc88 O104 2.105 . S
Sc88 O107 2.105 . S
Sc89 O91 2.025 . S
Sc89 O99 2.105 . S
Sc89 O103 2.105 . S
Sc89 O105 2.105 . S
Sc89 O109 2.105 . S
Sc90 O91 2.025 . S
Sc90 O100 2.105 . S
Sc90 O102 2.105 . S
Sc90 O106 2.105 . S
Sc90 O108 2.105 . S
O91 Sc88 2.025 . S
O91 Sc89 2.025 . S
O91 Sc90 2.025 . S
C92 O98 1.268 . S
C92 O108 1.268 . S
C93 O99 1.268 . S
C93 O107 1.268 . S
C94 O100 1.268 . S
C94 O109 1.268 . S
C95 O101 1.268 . S
C95 O105 1.268 . S
C96 O102 1.268 . S
C96 O104 1.268 . S
C97 O103 1.268 . S
C97 O106 1.268 . S
O98 Sc88 2.105 . S
O98 C92 1.268 . S
O99 Sc89 2.105 . S
O99 C93 1.268 . S
O100 Sc90 2.105 . S
O100 C94 1.268 . S
O101 Sc88 2.105 . S
O101 C95 1.268 . S
O102 Sc90 2.105 . S
O102 C96 1.268 . S
O103 Sc89 2.105 . S
O103 C97 1.268 . S
O104 Sc88 2.105 . S
O104 C96 1.268 . S
O105 Sc89 2.105 . S
O105 C95 1.268 . S
O106 Sc90 2.105 . S
O106 C97 1.268 . S
O107 Sc88 2.105 . S
O107 C93 1.268 . S
O108 Sc90 2.105 . S
O108 C92 1.268 . S
O109 Sc89 2.105 . S
O109 C94 1.268 . S
Sc110 O113 2.025 . S
Sc110 O120 2.105 . S
Sc110 O123 2.105 . S
Sc110 O126 2.105 . S
Sc110 O129 2.105 . S
Sc111 O113 2.025 . S
Sc111 O121 2.105 . S
Sc111 O125 2.105 . S
Sc111 O127 2.105 . S
Sc111 O131 2.105 . S
Sc112 O113 2.025 . S
Sc112 O122 2.105 . S
Sc112 O124 2.105 . S
Sc112 O128 2.105 . S
Sc112 O130 2.105 . S
O113 Sc110 2.025 . S
O113 Sc111 2.025 . S
O113 Sc112 2.025 . S
C114 O120 1.268 . S
C114 O130 1.268 . S
C115 O121 1.268 . S
C115 O129 1.268 . S
C116 O122 1.268 . S
C116 O131 1.268 . S
C117 O123 1.268 . S
C117 O127 1.268 . S
C118 O124 1.268 . S
C118 O126 1.268 . S
C119 O125 1.268 . S
C119 O128 1.268 . S
O120 Sc110 2.105 . S
O120 C114 1.268 . S
O121 Sc111 2.105 . S
O121 C115 1.268 . S
O122 Sc112 2.105 . S
O122 C116 1.268 . S
O123 Sc110 2.105 . S
O123 C117 1.268 . S
O124 Sc112 2.105 . S
O124 C118 1.268 . S
O125 Sc111 2.105 . S
O125 C119 1.268 . S
O126 Sc110 2.105 . S
O126 C118 1.268 . S
O127 Sc111 2.105 . S
O127 C117 1.268 . S
O128 Sc112 2.105 . S
O128 C119 1.268 . S
O129 Sc110 2.105 . S
O129 C115 1.268 . S
O130 Sc112 2.105 . S
O130 C114 1.268 . S
O131 Sc111 2.105 . S
O131 C116 1.268 . S
Sc132 O135 2.025 . S
Sc132 O142 2.105 . S
Sc132 O145 2.105 . S
Sc132 O148 2.105 . S
Sc132 O151 2.105 . S
Sc133 O135 2.025 . S
Sc133 O143 2.105 . S
Sc133 O147 2.105 . S
Sc133 O149 2.105 . S
Sc133 O153 2.105 . S
Sc134 O135 2.025 . S
Sc134 O144 2.105 . S
Sc134 O146 2.105 . S
Sc134 O150 2.105 . S
Sc134 O152 2.105 . S
O135 Sc132 2.025 . S
O135 Sc133 2.025 . S
O135 Sc134 2.025 . S
C136 O142 1.268 . S
C136 O152 1.268 . S
C137 O143 1.268 . S
C137 O151 1.268 . S
C138 O144 1.268 . S
C138 O153 1.268 . S
C139 O145 1.268 . S
C139 O149 1.268 . S
C140 O146 1.268 . S
C140 O148 1.268 . S
C141 O147 1.268 . S
C141 O150 1.268 . S
O142 Sc132 2.105 . S
O142 C136 1.268 . S
O143 Sc133 2.105 . S
O143 C137 1.268 . S
O144 Sc134 2.105 . S
O144 C138 1.268 . S
O145 Sc132 2.105 . S
O145 C139 1.268 . S
O146 Sc134 2.105 . S
O146 C140 1.268 . S
O147 Sc133 2.105 . S
O147 C141 1.268 . S
O148 Sc132 2.105 . S
O148 C140 1.268 . S
O149 Sc133 2.105 . S
O149 C139 1.268 . S
O150 Sc134 2.105 . S
O150 C141 1.268 . S
O151 Sc132 2.105 . S
O151 C137 1.268 . S
O152 Sc134 2.105 . S
O152 C136 1.268 . S
O153 Sc133 2.105 . S
O153 C138 1.268 . S
Sc154 O157 2.025 . S
Sc154 O164 2.105 . S
Sc154 O167 2.105 . S
Sc154 O170 2.105 1_556 S
Sc154 O173 2.105 . S
Sc155 O157 2.025 . S
Sc155 O165 2.105 . S
Sc155 O169 2.105 . S
Sc155 O171 2.105 . S
Sc155 O175 2.105 . S
Sc156 O157 2.025 . S
Sc156 O166 2.105 . S
Sc156 O168 2.105 1_556 S
Sc156 O172 2.105 . S
Sc156 O174 2.105 . S
O157 Sc154 2.025 . S
O157 Sc155 2.025 . S
O157 Sc156 2.025 . S
C158 O164 1.268 . S
C158 O174 1.268 . S
C159 O165 1.268 . S
C159 O173 1.268 . S
C160 O166 1.268 . S
C160 O175 1.268 . S
C161 O167 1.268 . S
C161 O171 1.268 . S
C162 O168 1.268 . S
C162 O170 1.268 . S
C163 O169 1.268 . S
C163 O172 1.268 . S
O164 Sc154 2.105 . S
O164 C158 1.268 . S
O165 Sc155 2.105 . S
O165 C159 1.268 . S
O166 Sc156 2.105 . S
O166 C160 1.268 . S
O167 Sc154 2.105 . S
O167 C161 1.268 . S
O168 Sc156 2.105 1_554 S
O168 C162 1.268 . S
O169 Sc155 2.105 . S
O169 C163 1.268 . S
O170 Sc154 2.105 1_554 S
O170 C162 1.268 . S
O171 Sc155 2.105 . S
O171 C161 1.268 . S
O172 Sc156 2.105 . S
O172 C163 1.268 . S
O173 Sc154 2.105 . S
O173 C159 1.268 . S
O174 Sc156 2.105 . S
O174 C158 1.268 . S
O175 Sc155 2.105 . S
O175 C160 1.268 . S
Sc176 O179 2.025 . S
Sc176 O186 2.105 . S
Sc176 O189 2.105 . S
Sc176 O192 2.105 . S
Sc176 O195 2.105 . S
Sc177 O179 2.025 . S
Sc177 O187 2.105 . S
Sc177 O191 2.105 . S
Sc177 O193 2.105 . S
Sc177 O197 2.105 . S
Sc178 O179 2.025 . S
Sc178 O188 2.105 . S
Sc178 O190 2.105 . S
Sc178 O194 2.105 . S
Sc178 O196 2.105 . S
O179 Sc176 2.025 . S
O179 Sc177 2.025 . S
O179 Sc178 2.025 . S
C180 O186 1.268 . S
C180 O196 1.268 . S
C181 O187 1.268 . S
C181 O195 1.268 . S
C182 O188 1.268 . S
C182 O197 1.268 . S
C183 O189 1.268 . S
C183 O193 1.268 . S
C184 O190 1.268 . S
C184 O192 1.268 . S
C185 O191 1.268 . S
C185 O194 1.268 . S
O186 Sc176 2.105 . S
O186 C180 1.268 . S
O187 Sc177 2.105 . S
O187 C181 1.268 . S
O188 Sc178 2.105 . S
O188 C182 1.268 . S
O189 Sc176 2.105 . S
O189 C183 1.268 . S
O190 Sc178 2.105 . S
O190 C184 1.268 . S
O191 Sc177 2.105 . S
O191 C185 1.268 . S
O192 Sc176 2.105 . S
O192 C184 1.268 . S
O193 Sc177 2.105 . S
O193 C183 1.268 . S
O194 Sc178 2.105 . S
O194 C185 1.268 . S
O195 Sc176 2.105 . S
O195 C181 1.268 . S
O196 Sc178 2.105 . S
O196 C180 1.268 . S
O197 Sc177 2.105 . S
O197 C182 1.268 . S
Sc198 O201 2.025 . S
Sc198 O208 2.105 . S
Sc198 O211 2.105 . S
Sc198 O214 2.105 . S
Sc198 O217 2.105 . S
Sc199 O201 2.025 . S
Sc199 O209 2.105 . S
Sc199 O213 2.105 . S
Sc199 O215 2.105 . S
Sc199 O219 2.105 . S
Sc200 O201 2.025 . S
Sc200 O210 2.105 . S
Sc200 O212 2.105 . S
Sc200 O216 2.105 . S
Sc200 O218 2.105 . S
O201 Sc198 2.025 . S
O201 Sc199 2.025 . S
O201 Sc200 2.025 . S
C202 O208 1.268 . S
C202 O218 1.268 . S
C203 O209 1.268 . S
C203 O217 1.268 . S
C204 O210 1.268 . S
C204 O219 1.268 . S
C205 O211 1.268 . S
C205 O215 1.268 . S
C206 O212 1.268 . S
C206 O214 1.268 . S
C207 O213 1.268 . S
C207 O216 1.268 . S
O208 Sc198 2.105 . S
O208 C202 1.268 . S
O209 Sc199 2.105 . S
O209 C203 1.268 . S
O210 Sc200 2.105 . S
O210 C204 1.268 . S
O211 Sc198 2.105 . S
O211 C205 1.268 . S
O212 Sc200 2.105 . S
O212 C206 1.268 . S
O213 Sc199 2.105 . S
O213 C207 1.268 . S
O214 Sc198 2.105 . S
O214 C206 1.268 . S
O215 Sc199 2.105 . S
O215 C205 1.268 . S
O216 Sc200 2.105 . S
O216 C207 1.268 . S
O217 Sc198 2.105 . S
O217 C203 1.268 . S
O218 Sc200 2.105 . S
O218 C202 1.268 . S
O219 Sc199 2.105 . S
O219 C204 1.268 . S
Sc220 O223 2.025 . S
Sc220 O230 2.105 . S
Sc220 O233 2.105 . S
Sc220 O236 2.105 . S
Sc220 O239 2.105 . S
Sc221 O223 2.025 . S
Sc221 O231 2.105 . S
Sc221 O235 2.105 . S
Sc221 O237 2.105 . S
Sc221 O241 2.105 . S
Sc222 O223 2.025 . S
Sc222 O232 2.105 . S
Sc222 O234 2.105 . S
Sc222 O238 2.105 . S
Sc222 O240 2.105 . S
O223 Sc220 2.025 . S
O223 Sc221 2.025 . S
O223 Sc222 2.025 . S
C224 O230 1.268 . S
C224 O240 1.268 . S
C225 O231 1.268 . S
C225 O239 1.268 . S
C226 O232 1.268 . S
C226 O241 1.268 . S
C227 O233 1.268 . S
C227 O237 1.268 . S
C228 O234 1.268 . S
C228 O236 1.268 . S
C229 O235 1.268 . S
C229 O238 1.268 . S
O230 Sc220 2.105 . S
O230 C224 1.268 . S
O231 Sc221 2.105 . S
O231 C225 1.268 . S
O232 Sc222 2.105 . S
O232 C226 1.268 . S
O233 Sc220 2.105 . S
O233 C227 1.268 . S
O234 Sc222 2.105 . S
O234 C228 1.268 . S
O235 Sc221 2.105 . S
O235 C229 1.268 . S
O236 Sc220 2.105 . S
O236 C228 1.268 . S
O237 Sc221 2.105 . S
O237 C227 1.268 . S
O238 Sc222 2.105 . S
O238 C229 1.268 . S
O239 Sc220 2.105 . S
O239 C225 1.268 . S
O240 Sc222 2.105 . S
O240 C224 1.268 . S
O241 Sc221 2.105 . S
O241 C226 1.268 . S
Sc242 O245 2.025 . S
Sc242 O252 2.105 . S
Sc242 O255 2.105 . S
Sc242 O258 2.105 1_556 S
Sc242 O261 2.105 . S
Sc243 O245 2.025 . S
Sc243 O253 2.105 . S
Sc243 O257 2.105 . S
Sc243 O259 2.105 . S
Sc243 O263 2.105 . S
Sc244 O245 2.025 . S
Sc244 O254 2.105 . S
Sc244 O256 2.105 1_556 S
Sc244 O260 2.105 . S
Sc244 O262 2.105 . S
O245 Sc242 2.025 . S
O245 Sc243 2.025 . S
O245 Sc244 2.025 . S
C246 O252 1.268 . S
C246 O262 1.268 . S
C247 O253 1.268 . S
C247 O261 1.268 . S
C248 O254 1.268 . S
C248 O263 1.268 . S
C249 O255 1.268 . S
C249 O259 1.268 . S
C250 O256 1.268 . S
C250 O258 1.268 . S
C251 O257 1.268 . S
C251 O260 1.268 . S
O252 Sc242 2.105 . S
O252 C246 1.268 . S
O253 Sc243 2.105 . S
O253 C247 1.268 . S
O254 Sc244 2.105 . S
O254 C248 1.268 . S
O255 Sc242 2.105 . S
O255 C249 1.268 . S
O256 Sc244 2.105 1_554 S
O256 C250 1.268 . S
O257 Sc243 2.105 . S
O257 C251 1.268 . S
O258 Sc242 2.105 1_554 S
O258 C250 1.268 . S
O259 Sc243 2.105 . S
O259 C249 1.268 . S
O260 Sc244 2.105 . S
O260 C251 1.268 . S
O261 Sc242 2.105 . S
O261 C247 1.268 . S
O262 Sc244 2.105 . S
O262 C246 1.268 . S
O263 Sc243 2.105 . S
O263 C248 1.268 . S
Sc264 O267 2.025 . S
Sc264 O274 2.105 . S
Sc264 O277 2.105 . S
Sc264 O280 2.105 . S
Sc264 O283 2.105 . S
Sc265 O267 2.025 . S
Sc265 O275 2.105 . S
Sc265 O279 2.105 . S
Sc265 O281 2.105 . S
Sc265 O285 2.105 . S
Sc266 O267 2.025 . S
Sc266 O276 2.105 . S
Sc266 O278 2.105 . S
Sc266 O282 2.105 . S
Sc266 O284 2.105 . S
O267 Sc264 2.025 . S
O267 Sc265 2.025 . S
O267 Sc266 2.025 . S
C268 O274 1.268 . S
C268 O284 1.268 . S
C269 O275 1.268 . S
C269 O283 1.268 . S
C270 O276 1.268 . S
C270 O285 1.268 . S
C271 O277 1.268 . S
C271 O281 1.268 . S
C272 O278 1.268 . S
C272 O280 1.268 . S
C273 O279 1.268 . S
C273 O282 1.268 . S
O274 Sc264 2.105 . S
O274 C268 1.268 . S
O275 Sc265 2.105 . S
O275 C269 1.268 . S
O276 Sc266 2.105 . S
O276 C270 1.268 . S
O277 Sc264 2.105 . S
O277 C271 1.268 . S
O278 Sc266 2.105 . S
O278 C272 1.268 . S
O279 Sc265 2.105 . S
O279 C273 1.268 . S
O280 Sc264 2.105 . S
O280 C272 1.268 . S
O281 Sc265 2.105 . S
O281 C271 1.268 . S
O282 Sc266 2.105 . S
O282 C273 1.268 . S
O283 Sc264 2.105 . S
O283 C269 1.268 . S
O284 Sc266 2.105 . S
O284 C268 1.268 . S
O285 Sc265 2.105 . S
O285 C270 1.268 . S
Sc286 O289 2.025 . S
Sc286 O296 2.105 . S
Sc286 O299 2.105 . S
Sc286 O302 2.105 . S
Sc286 O305 2.105 . S
Sc287 O289 2.025 . S
Sc287 O297 2.105 . S
Sc287 O301 2.105 . S
Sc287 O303 2.105 . S
Sc287 O307 2.105 . S
Sc288 O289 2.025 . S
Sc288 O298 2.105 . S
Sc288 O300 2.105 . S
Sc288 O304 2.105 . S
Sc288 O306 2.105 . S
O289 Sc286 2.025 . S
O289 Sc287 2.025 . S
O289 Sc288 2.025 . S
C290 O296 1.268 . S
C290 O306 1.268 . S
C291 O297 1.268 . S
C291 O305 1.268 . S
C292 O298 1.268 . S
C292 O307 1.268 . S
C293 O299 1.268 . S
C293 O303 1.268 . S
C294 O300 1.268 . S
C294 O302 1.268 . S
C295 O301 1.268 . S
C295 O304 1.268 . S
O296 Sc286 2.105 . S
O296 C290 1.268 . S
O297 Sc287 2.105 . S
O297 C291 1.268 . S
O298 Sc288 2.105 . S
O298 C292 1.268 . S
O299 Sc286 2.105 . S
O299 C293 1.268 . S
O300 Sc288 2.105 . S
O300 C294 1.268 . S
O301 Sc287 2.105 . S
O301 C295 1.268 . S
O302 Sc286 2.105 . S
O302 C294 1.268 . S
O303 Sc287 2.105 . S
O303 C293 1.268 . S
O304 Sc288 2.105 . S
O304 C295 1.268 . S
O305 Sc286 2.105 . S
O305 C291 1.268 . S
O306 Sc288 2.105 . S
O306 C290 1.268 . S
O307 Sc287 2.105 . S
O307 C292 1.268 . S
Sc308 O311 2.025 . S
Sc308 O318 2.105 . S
Sc308 O321 2.105 . S
Sc308 O324 2.105 . S
Sc308 O327 2.105 . S
Sc309 O311 2.025 . S
Sc309 O319 2.105 . S
Sc309 O323 2.105 . S
Sc309 O325 2.105 . S
Sc309 O329 2.105 . S
Sc310 O311 2.025 . S
Sc310 O320 2.105 . S
Sc310 O322 2.105 . S
Sc310 O326 2.105 . S
Sc310 O328 2.105 . S
O311 Sc308 2.025 . S
O311 Sc309 2.025 . S
O311 Sc310 2.025 . S
C312 O318 1.268 . S
C312 O328 1.268 . S
C313 O319 1.268 . S
C313 O327 1.268 . S
C314 O320 1.268 . S
C314 O329 1.268 . S
C315 O321 1.268 . S
C315 O325 1.268 . S
C316 O322 1.268 . S
C316 O324 1.268 . S
C317 O323 1.268 . S
C317 O326 1.268 . S
O318 Sc308 2.105 . S
O318 C312 1.268 . S
O319 Sc309 2.105 . S
O319 C313 1.268 . S
O320 Sc310 2.105 . S
O320 C314 1.268 . S
O321 Sc308 2.105 . S
O321 C315 1.268 . S
O322 Sc310 2.105 . S
O322 C316 1.268 . S
O323 Sc309 2.105 . S
O323 C317 1.268 . S
O324 Sc308 2.105 . S
O324 C316 1.268 . S
O325 Sc309 2.105 . S
O325 C315 1.268 . S
O326 Sc310 2.105 . S
O326 C317 1.268 . S
O327 Sc308 2.105 . S
O327 C313 1.268 . S
O328 Sc310 2.105 . S
O328 C312 1.268 . S
O329 Sc309 2.105 . S
O329 C314 1.268 . S
Sc330 O333 2.025 . S
Sc330 O340 2.105 1_554 S
Sc330 O343 2.105 . S
Sc330 O346 2.105 . S
Sc330 O349 2.105 . S
Sc331 O333 2.025 . S
Sc331 O341 2.105 . S
Sc331 O345 2.105 . S
Sc331 O347 2.105 . S
Sc331 O351 2.105 . S
Sc332 O333 2.025 . S
Sc332 O342 2.105 . S
Sc332 O344 2.105 . S
Sc332 O348 2.105 . S
Sc332 O350 2.105 1_554 S
O333 Sc330 2.025 . S
O333 Sc331 2.025 . S
O333 Sc332 2.025 . S
C334 O340 1.268 . S
C334 O350 1.268 . S
C335 O341 1.268 . S
C335 O349 1.268 . S
C336 O342 1.268 . S
C336 O351 1.268 . S
C337 O343 1.268 . S
C337 O347 1.268 . S
C338 O344 1.268 . S
C338 O346 1.268 . S
C339 O345 1.268 . S
C339 O348 1.268 . S
O340 Sc330 2.105 1_556 S
O340 C334 1.268 . S
O341 Sc331 2.105 . S
O341 C335 1.268 . S
O342 Sc332 2.105 . S
O342 C336 1.268 . S
O343 Sc330 2.105 . S
O343 C337 1.268 . S
O344 Sc332 2.105 . S
O344 C338 1.268 . S
O345 Sc331 2.105 . S
O345 C339 1.268 . S
O346 Sc330 2.105 . S
O346 C338 1.268 . S
O347 Sc331 2.105 . S
O347 C337 1.268 . S
O348 Sc332 2.105 . S
O348 C339 1.268 . S
O349 Sc330 2.105 . S
O349 C335 1.268 . S
O350 Sc332 2.105 1_556 S
O350 C334 1.268 . S
O351 Sc331 2.105 . S
O351 C336 1.268 . S
Sc352 O355 2.025 . S
Sc352 O362 2.105 . S
Sc352 O365 2.105 . S
Sc352 O368 2.105 . S
Sc352 O371 2.105 . S
Sc353 O355 2.025 . S
Sc353 O363 2.105 . S
Sc353 O367 2.105 . S
Sc353 O369 2.105 . S
Sc353 O373 2.105 . S
Sc354 O355 2.025 . S
Sc354 O364 2.105 . S
Sc354 O366 2.105 . S
Sc354 O370 2.105 . S
Sc354 O372 2.105 . S
O355 Sc352 2.025 . S
O355 Sc353 2.025 . S
O355 Sc354 2.025 . S
C356 O362 1.268 . S
C356 O372 1.268 . S
C357 O363 1.268 . S
C357 O371 1.268 . S
C358 O364 1.268 . S
C358 O373 1.268 . S
C359 O365 1.268 . S
C359 O369 1.268 . S
C360 O366 1.268 . S
C360 O368 1.268 . S
C361 O367 1.268 . S
C361 O370 1.268 . S
O362 Sc352 2.105 . S
O362 C356 1.268 . S
O363 Sc353 2.105 . S
O363 C357 1.268 . S
O364 Sc354 2.105 . S
O364 C358 1.268 . S
O365 Sc352 2.105 . S
O365 C359 1.268 . S
O366 Sc354 2.105 . S
O366 C360 1.268 . S
O367 Sc353 2.105 . S
O367 C361 1.268 . S
O368 Sc352 2.105 . S
O368 C360 1.268 . S
O369 Sc353 2.105 . S
O369 C359 1.268 . S
O370 Sc354 2.105 . S
O370 C361 1.268 . S
O371 Sc352 2.105 . S
O371 C357 1.268 . S
O372 Sc354 2.105 . S
O372 C356 1.268 . S
O373 Sc353 2.105 . S
O373 C358 1.268 . S
Sc374 O377 2.025 . S
Sc374 O384 2.105 1_554 S
Sc374 O387 2.105 . S
Sc374 O390 2.105 . S
Sc374 O393 2.105 . S
Sc375 O377 2.025 . S
Sc375 O385 2.105 . S
Sc375 O389 2.105 . S
Sc375 O391 2.105 . S
Sc375 O395 2.105 . S
Sc376 O377 2.025 . S
Sc376 O386 2.105 . S
Sc376 O388 2.105 . S
Sc376 O392 2.105 . S
Sc376 O394 2.105 1_554 S
O377 Sc374 2.025 . S
O377 Sc375 2.025 . S
O377 Sc376 2.025 . S
C378 O384 1.268 . S
C378 O394 1.268 . S
C379 O385 1.268 . S
C379 O393 1.268 . S
C380 O386 1.268 . S
C380 O395 1.268 . S
C381 O387 1.268 . S
C381 O391 1.268 . S
C382 O388 1.268 . S
C382 O390 1.268 . S
C383 O389 1.268 . S
C383 O392 1.268 . S
O384 Sc374 2.105 1_556 S
O384 C378 1.268 . S
O385 Sc375 2.105 . S
O385 C379 1.268 . S
O386 Sc376 2.105 . S
O386 C380 1.268 . S
O387 Sc374 2.105 . S
O387 C381 1.268 . S
O388 Sc376 2.105 . S
O388 C382 1.268 . S
O389 Sc375 2.105 . S
O389 C383 1.268 . S
O390 Sc374 2.105 . S
O390 C382 1.268 . S
O391 Sc375 2.105 . S
O391 C381 1.268 . S
O392 Sc376 2.105 . S
O392 C383 1.268 . S
O393 Sc374 2.105 . S
O393 C379 1.268 . S
O394 Sc376 2.105 1_556 S
O394 C378 1.268 . S
O395 Sc375 2.105 . S
O395 C380 1.268 . S
Sc396 O399 2.025 . S
Sc396 O406 2.105 . S
Sc396 O409 2.105 . S
Sc396 O412 2.105 . S
Sc396 O415 2.105 . S
Sc397 O399 2.025 . S
Sc397 O407 2.105 . S
Sc397 O411 2.105 . S
Sc397 O413 2.105 . S
Sc397 O417 2.105 . S
Sc398 O399 2.025 . S
Sc398 O408 2.105 . S
Sc398 O410 2.105 . S
Sc398 O414 2.105 . S
Sc398 O416 2.105 . S
O399 Sc396 2.025 . S
O399 Sc397 2.025 . S
O399 Sc398 2.025 . S
C400 O406 1.268 . S
C400 O416 1.268 . S
C401 O407 1.268 . S
C401 O415 1.268 . S
C402 O408 1.268 . S
C402 O417 1.268 . S
C403 O409 1.268 . S
C403 O413 1.268 . S
C404 O410 1.268 . S
C404 O412 1.268 . S
C405 O411 1.268 . S
C405 O414 1.268 . S
O406 Sc396 2.105 . S
O406 C400 1.268 . S
O407 Sc397 2.105 . S
O407 C401 1.268 . S
O408 Sc398 2.105 . S
O408 C402 1.268 . S
O409 Sc396 2.105 . S
O409 C403 1.268 . S
O410 Sc398 2.105 . S
O410 C404 1.268 . S
O411 Sc397 2.105 . S
O411 C405 1.268 . S
O412 Sc396 2.105 . S
O412 C404 1.268 . S
O413 Sc397 2.105 . S
O413 C403 1.268 . S
O414 Sc398 2.105 . S
O414 C405 1.268 . S
O415 Sc396 2.105 . S
O415 C401 1.268 . S
O416 Sc398 2.105 . S
O416 C400 1.268 . S
O417 Sc397 2.105 . S
O417 C402 1.268 . S
Sc418 O421 2.025 . S
Sc418 O428 2.105 . S
Sc418 O431 2.105 . S
Sc418 O434 2.105 . S
Sc418 O437 2.105 . S
Sc419 O421 2.025 . S
Sc419 O429 2.105 . S
Sc419 O433 2.105 . S
Sc419 O435 2.105 . S
Sc419 O439 2.105 . S
Sc420 O421 2.025 . S
Sc420 O430 2.105 . S
Sc420 O432 2.105 . S
Sc420 O436 2.105 . S
Sc420 O438 2.105 . S
O421 Sc418 2.025 . S
O421 Sc419 2.025 . S
O421 Sc420 2.025 . S
C422 O428 1.268 . S
C422 O438 1.268 . S
C423 O429 1.268 . S
C423 O437 1.268 . S
C424 O430 1.268 . S
C424 O439 1.268 . S
C425 O431 1.268 . S
C425 O435 1.268 . S
C426 O432 1.268 . S
C426 O434 1.268 . S
C427 O433 1.268 . S
C427 O436 1.268 . S
O428 Sc418 2.105 . S
O428 C422 1.268 . S
O429 Sc419 2.105 . S
O429 C423 1.268 . S
O430 Sc420 2.105 . S
O430 C424 1.268 . S
O431 Sc418 2.105 . S
O431 C425 1.268 . S
O432 Sc420 2.105 . S
O432 C426 1.268 . S
O433 Sc419 2.105 . S
O433 C427 1.268 . S
O434 Sc418 2.105 . S
O434 C426 1.268 . S
O435 Sc419 2.105 . S
O435 C425 1.268 . S
O436 Sc420 2.105 . S
O436 C427 1.268 . S
O437 Sc418 2.105 . S
O437 C423 1.268 . S
O438 Sc420 2.105 . S
O438 C422 1.268 . S
O439 Sc419 2.105 . S
O439 C424 1.268 . S
Sc440 O443 2.025 . S
Sc440 O450 2.105 . S
Sc440 O453 2.105 . S
Sc440 O456 2.105 . S
Sc440 O459 2.105 . S
Sc441 O443 2.025 . S
Sc441 O451 2.105 . S
Sc441 O455 2.105 . S
Sc441 O457 2.105 . S
Sc441 O461 2.105 . S
Sc442 O443 2.025 . S
Sc442 O452 2.105 . S
Sc442 O454 2.105 . S
Sc442 O458 2.105 . S
Sc442 O460 2.105 . S
O443 Sc440 2.025 . S
O443 Sc441 2.025 . S
O443 Sc442 2.025 . S
C444 O450 1.268 . S
C444 O460 1.268 . S
C445 O451 1.268 . S
C445 O459 1.268 . S
C446 O452 1.268 . S
C446 O461 1.268 . S
C447 O453 1.268 . S
C447 O457 1.268 . S
C448 O454 1.268 . S
C448 O456 1.268 . S
C449 O455 1.268 . S
C449 O458 1.268 . S
O450 Sc440 2.105 . S
O450 C444 1.268 . S
O451 Sc441 2.105 . S
O451 C445 1.268 . S
O452 Sc442 2.105 . S
O452 C446 1.268 . S
O453 Sc440 2.105 . S
O453 C447 1.268 . S
O454 Sc442 2.105 . S
O454 C448 1.268 . S
O455 Sc441 2.105 . S
O455 C449 1.268 . S
O456 Sc440 2.105 . S
O456 C448 1.268 . S
O457 Sc441 2.105 . S
O457 C447 1.268 . S
O458 Sc442 2.105 . S
O458 C449 1.268 . S
O459 Sc440 2.105 . S
O459 C445 1.268 . S
O460 Sc442 2.105 . S
O460 C444 1.268 . S
O461 Sc441 2.105 . S
O461 C446 1.268 . S
Sc462 O465 2.025 . S
Sc462 O472 2.105 . S
Sc462 O475 2.105 . S
Sc462 O478 2.105 1_556 S
Sc462 O481 2.105 . S
Sc463 O465 2.025 . S
Sc463 O473 2.105 . S
Sc463 O477 2.105 . S
Sc463 O479 2.105 . S
Sc463 O483 2.105 . S
Sc464 O465 2.025 . S
Sc464 O474 2.105 . S
Sc464 O476 2.105 1_556 S
Sc464 O480 2.105 . S
Sc464 O482 2.105 . S
O465 Sc462 2.025 . S
O465 Sc463 2.025 . S
O465 Sc464 2.025 . S
C466 O472 1.268 . S
C466 O482 1.268 . S
C467 O473 1.268 . S
C467 O481 1.268 . S
C468 O474 1.268 . S
C468 O483 1.268 . S
C469 O475 1.268 . S
C469 O479 1.268 . S
C470 O476 1.268 . S
C470 O478 1.268 . S
C471 O477 1.268 . S
C471 O480 1.268 . S
O472 Sc462 2.105 . S
O472 C466 1.268 . S
O473 Sc463 2.105 . S
O473 C467 1.268 . S
O474 Sc464 2.105 . S
O474 C468 1.268 . S
O475 Sc462 2.105 . S
O475 C469 1.268 . S
O476 Sc464 2.105 1_554 S
O476 C470 1.268 . S
O477 Sc463 2.105 . S
O477 C471 1.268 . S
O478 Sc462 2.105 1_554 S
O478 C470 1.268 . S
O479 Sc463 2.105 . S
O479 C469 1.268 . S
O480 Sc464 2.105 . S
O480 C471 1.268 . S
O481 Sc462 2.105 . S
O481 C467 1.268 . S
O482 Sc464 2.105 . S
O482 C466 1.268 . S
O483 Sc463 2.105 . S
O483 C468 1.268 . S
Sc484 O487 2.025 . S
Sc484 O494 2.105 . S
Sc484 O497 2.105 . S
Sc484 O500 2.105 . S
Sc484 O503 2.105 . S
Sc485 O487 2.025 . S
Sc485 O495 2.105 . S
Sc485 O499 2.105 . S
Sc485 O501 2.105 . S
Sc485 O505 2.105 . S
Sc486 O487 2.025 . S
Sc486 O496 2.105 . S
Sc486 O498 2.105 . S
Sc486 O502 2.105 . S
Sc486 O504 2.105 . S
O487 Sc484 2.025 . S
O487 Sc485 2.025 . S
O487 Sc486 2.025 . S
C488 O494 1.268 . S
C488 O504 1.268 . S
C489 O495 1.268 . S
C489 O503 1.268 . S
C490 O496 1.268 . S
C490 O505 1.268 . S
C491 O497 1.268 . S
C491 O501 1.268 . S
C492 O498 1.268 . S
C492 O500 1.268 . S
C493 O499 1.268 . S
C493 O502 1.268 . S
O494 Sc484 2.105 . S
O494 C488 1.268 . S
O495 Sc485 2.105 . S
O495 C489 1.268 . S
O496 Sc486 2.105 . S
O496 C490 1.268 . S
O497 Sc484 2.105 . S
O497 C491 1.268 . S
O498 Sc486 2.105 . S
O498 C492 1.268 . S
O499 Sc485 2.105 . S
O499 C493 1.268 . S
O500 Sc484 2.105 . S
O500 C492 1.268 . S
O501 Sc485 2.105 . S
O501 C491 1.268 . S
O502 Sc486 2.105 . S
O502 C493 1.268 . S
O503 Sc484 2.105 . S
O503 C489 1.268 . S
O504 Sc486 2.105 . S
O504 C488 1.268 . S
O505 Sc485 2.105 . S
O505 C490 1.268 . S
Sc506 O509 2.025 . S
Sc506 O516 2.105 . S
Sc506 O519 2.105 . S
Sc506 O522 2.105 . S
Sc506 O525 2.105 . S
Sc507 O509 2.025 . S
Sc507 O517 2.105 . S
Sc507 O521 2.105 . S
Sc507 O523 2.105 . S
Sc507 O527 2.105 . S
Sc508 O509 2.025 . S
Sc508 O518 2.105 . S
Sc508 O520 2.105 . S
Sc508 O524 2.105 . S
Sc508 O526 2.105 . S
O509 Sc506 2.025 . S
O509 Sc507 2.025 . S
O509 Sc508 2.025 . S
C510 O516 1.268 . S
C510 O526 1.268 . S
C511 O517 1.268 . S
C511 O525 1.268 . S
C512 O518 1.268 . S
C512 O527 1.268 . S
C513 O519 1.268 . S
C513 O523 1.268 . S
C514 O520 1.268 . S
C514 O522 1.268 . S
C515 O521 1.268 . S
C515 O524 1.268 . S
O516 Sc506 2.105 . S
O516 C510 1.268 . S
O517 Sc507 2.105 . S
O517 C511 1.268 . S
O518 Sc508 2.105 . S
O518 C512 1.268 . S
O519 Sc506 2.105 . S
O519 C513 1.268 . S
O520 Sc508 2.105 . S
O520 C514 1.268 . S
O521 Sc507 2.105 . S
O521 C515 1.268 . S
O522 Sc506 2.105 . S
O522 C514 1.268 . S
O523 Sc507 2.105 . S
O523 C513 1.268 . S
O524 Sc508 2.105 . S
O524 C515 1.268 . S
O525 Sc506 2.105 . S
O525 C511 1.268 . S
O526 Sc508 2.105 . S
O526 C510 1.268 . S
O527 Sc507 2.105 . S
O527 C512 1.268 . S
Sc528 O531 2.025 . S
Sc528 O538 2.105 . S
Sc528 O541 2.105 . S
Sc528 O544 2.105 . S
Sc528 O547 2.105 . S
Sc529 O531 2.025 . S
Sc529 O539 2.105 . S
Sc529 O543 2.105 . S
Sc529 O545 2.105 . S
Sc529 O549 2.105 . S
Sc530 O531 2.025 . S
Sc530 O540 2.105 . S
Sc530 O542 2.105 . S
Sc530 O546 2.105 . S
Sc530 O548 2.105 . S
O531 Sc528 2.025 . S
O531 Sc529 2.025 . S
O531 Sc530 2.025 . S
C532 O538 1.268 . S
C532 O548 1.268 . S
C533 O539 1.268 . S
C533 O547 1.268 . S
C534 O540 1.268 . S
C534 O549 1.268 . S
C535 O541 1.268 . S
C535 O545 1.268 . S
C536 O542 1.268 . S
C536 O544 1.268 . S
C537 O543 1.268 . S
C537 O546 1.268 . S
O538 Sc528 2.105 . S
O538 C532 1.268 . S
O539 Sc529 2.105 . S
O539 C533 1.268 . S
O540 Sc530 2.105 . S
O540 C534 1.268 . S
O541 Sc528 2.105 . S
O541 C535 1.268 . S
O542 Sc530 2.105 . S
O542 C536 1.268 . S
O543 Sc529 2.105 . S
O543 C537 1.268 . S
O544 Sc528 2.105 . S
O544 C536 1.268 . S
O545 Sc529 2.105 . S
O545 C535 1.268 . S
O546 Sc530 2.105 . S
O546 C537 1.268 . S
O547 Sc528 2.105 . S
O547 C533 1.268 . S
O548 Sc530 2.105 . S
O548 C532 1.268 . S
O549 Sc529 2.105 . S
O549 C534 1.268 . S
Sc550 O553 2.025 . S
Sc550 O560 2.105 . S
Sc550 O563 2.105 . S
Sc550 O566 2.105 1_556 S
Sc550 O569 2.105 . S
Sc551 O553 2.025 . S
Sc551 O561 2.105 . S
Sc551 O565 2.105 . S
Sc551 O567 2.105 . S
Sc551 O571 2.105 . S
Sc552 O553 2.025 . S
Sc552 O562 2.105 . S
Sc552 O564 2.105 1_556 S
Sc552 O568 2.105 . S
Sc552 O570 2.105 . S
O553 Sc550 2.025 . S
O553 Sc551 2.025 . S
O553 Sc552 2.025 . S
C554 O560 1.268 . S
C554 O570 1.268 . S
C555 O561 1.268 . S
C555 O569 1.268 . S
C556 O562 1.268 . S
C556 O571 1.268 . S
C557 O563 1.268 . S
C557 O567 1.268 . S
C558 O564 1.268 . S
C558 O566 1.268 . S
C559 O565 1.268 . S
C559 O568 1.268 . S
O560 Sc550 2.105 . S
O560 C554 1.268 . S
O561 Sc551 2.105 . S
O561 C555 1.268 . S
O562 Sc552 2.105 . S
O562 C556 1.268 . S
O563 Sc550 2.105 . S
O563 C557 1.268 . S
O564 Sc552 2.105 1_554 S
O564 C558 1.268 . S
O565 Sc551 2.105 . S
O565 C559 1.268 . S
O566 Sc550 2.105 1_554 S
O566 C558 1.268 . S
O567 Sc551 2.105 . S
O567 C557 1.268 . S
O568 Sc552 2.105 . S
O568 C559 1.268 . S
O569 Sc550 2.105 . S
O569 C555 1.268 . S
O570 Sc552 2.105 . S
O570 C554 1.268 . S
O571 Sc551 2.105 . S
O571 C556 1.268 . S
Sc572 O575 2.025 . S
Sc572 O582 2.105 . S
Sc572 O585 2.105 . S
Sc572 O588 2.105 . S
Sc572 O591 2.105 . S
Sc573 O575 2.025 . S
Sc573 O583 2.105 . S
Sc573 O587 2.105 . S
Sc573 O589 2.105 . S
Sc573 O593 2.105 . S
Sc574 O575 2.025 . S
Sc574 O584 2.105 . S
Sc574 O586 2.105 . S
Sc574 O590 2.105 . S
Sc574 O592 2.105 . S
O575 Sc572 2.025 . S
O575 Sc573 2.025 . S
O575 Sc574 2.025 . S
C576 O582 1.268 . S
C576 O592 1.268 . S
C577 O583 1.268 . S
C577 O591 1.268 . S
C578 O584 1.268 . S
C578 O593 1.268 . S
C579 O585 1.268 . S
C579 O589 1.268 . S
C580 O586 1.268 . S
C580 O588 1.268 . S
C581 O587 1.268 . S
C581 O590 1.268 . S
O582 Sc572 2.105 . S
O582 C576 1.268 . S
O583 Sc573 2.105 . S
O583 C577 1.268 . S
O584 Sc574 2.105 . S
O584 C578 1.268 . S
O585 Sc572 2.105 . S
O585 C579 1.268 . S
O586 Sc574 2.105 . S
O586 C580 1.268 . S
O587 Sc573 2.105 . S
O587 C581 1.268 . S
O588 Sc572 2.105 . S
O588 C580 1.268 . S
O589 Sc573 2.105 . S
O589 C579 1.268 . S
O590 Sc574 2.105 . S
O590 C581 1.268 . S
O591 Sc572 2.105 . S
O591 C577 1.268 . S
O592 Sc574 2.105 . S
O592 C576 1.268 . S
O593 Sc573 2.105 . S
O593 C578 1.268 . S
Sc594 O597 2.025 . S
Sc594 O604 2.105 . S
Sc594 O607 2.105 . S
Sc594 O610 2.105 . S
Sc594 O613 2.105 . S
Sc595 O597 2.025 . S
Sc595 O605 2.105 . S
Sc595 O609 2.105 . S
Sc595 O611 2.105 . S
Sc595 O615 2.105 . S
Sc596 O597 2.025 . S
Sc596 O606 2.105 . S
Sc596 O608 2.105 . S
Sc596 O612 2.105 . S
Sc596 O614 2.105 . S
O597 Sc594 2.025 . S
O597 Sc595 2.025 . S
O597 Sc596 2.025 . S
C598 O604 1.268 . S
C598 O614 1.268 . S
C599 O605 1.268 . S
C599 O613 1.268 . S
C600 O606 1.268 . S
C600 O615 1.268 . S
C601 O607 1.268 . S
C601 O611 1.268 . S
C602 O608 1.268 . S
C602 O610 1.268 . S
C603 O609 1.268 . S
C603 O612 1.268 . S
O604 Sc594 2.105 . S
O604 C598 1.268 . S
O605 Sc595 2.105 . S
O605 C599 1.268 . S
O606 Sc596 2.105 . S
O606 C600 1.268 . S
O607 Sc594 2.105 . S
O607 C601 1.268 . S
O608 Sc596 2.105 . S
O608 C602 1.268 . S
O609 Sc595 2.105 . S
O609 C603 1.268 . S
O610 Sc594 2.105 . S
O610 C602 1.268 . S
O611 Sc595 2.105 . S
O611 C601 1.268 . S
O612 Sc596 2.105 . S
O612 C603 1.268 . S
O613 Sc594 2.105 . S
O613 C599 1.268 . S
O614 Sc596 2.105 . S
O614 C598 1.268 . S
O615 Sc595 2.105 . S
O615 C600 1.268 . S
Sc616 O619 2.025 . S
Sc616 O626 2.105 . S
Sc616 O629 2.105 . S
Sc616 O632 2.105 . S
Sc616 O635 2.105 . S
Sc617 O619 2.025 . S
Sc617 O627 2.105 . S
Sc617 O631 2.105 . S
Sc617 O633 2.105 . S
Sc617 O637 2.105 . S
Sc618 O619 2.025 . S
Sc618 O628 2.105 . S
Sc618 O630 2.105 . S
Sc618 O634 2.105 . S
Sc618 O636 2.105 . S
O619 Sc616 2.025 . S
O619 Sc617 2.025 . S
O619 Sc618 2.025 . S
C620 O626 1.268 . S
C620 O636 1.268 . S
C621 O627 1.268 . S
C621 O635 1.268 . S
C622 O628 1.268 . S
C622 O637 1.268 . S
C623 O629 1.268 . S
C623 O633 1.268 . S
C624 O630 1.268 . S
C624 O632 1.268 . S
C625 O631 1.268 . S
C625 O634 1.268 . S
O626 Sc616 2.105 . S
O626 C620 1.268 . S
O627 Sc617 2.105 . S
O627 C621 1.268 . S
O628 Sc618 2.105 . S
O628 C622 1.268 . S
O629 Sc616 2.105 . S
O629 C623 1.268 . S
O630 Sc618 2.105 . S
O630 C624 1.268 . S
O631 Sc617 2.105 . S
O631 C625 1.268 . S
O632 Sc616 2.105 . S
O632 C624 1.268 . S
O633 Sc617 2.105 . S
O633 C623 1.268 . S
O634 Sc618 2.105 . S
O634 C625 1.268 . S
O635 Sc616 2.105 . S
O635 C621 1.268 . S
O636 Sc618 2.105 . S
O636 C620 1.268 . S
O637 Sc617 2.105 . S
O637 C622 1.268 . S
Sc638 O641 2.025 . S
Sc638 O648 2.105 1_554 S
Sc638 O651 2.105 . S
Sc638 O654 2.105 . S
Sc638 O657 2.105 . S
Sc639 O641 2.025 . S
Sc639 O649 2.105 . S
Sc639 O653 2.105 . S
Sc639 O655 2.105 . S
Sc639 O659 2.105 . S
Sc640 O641 2.025 . S
Sc640 O650 2.105 . S
Sc640 O652 2.105 . S
Sc640 O656 2.105 . S
Sc640 O658 2.105 1_554 S
O641 Sc638 2.025 . S
O641 Sc639 2.025 . S
O641 Sc640 2.025 . S
C642 O648 1.268 . S
C642 O658 1.268 . S
C643 O649 1.268 . S
C643 O657 1.268 . S
C644 O650 1.268 . S
C644 O659 1.268 . S
C645 O651 1.268 . S
C645 O655 1.268 . S
C646 O652 1.268 . S
C646 O654 1.268 . S
C647 O653 1.268 . S
C647 O656 1.268 . S
O648 Sc638 2.105 1_556 S
O648 C642 1.268 . S
O649 Sc639 2.105 . S
O649 C643 1.268 . S
O650 Sc640 2.105 . S
O650 C644 1.268 . S
O651 Sc638 2.105 . S
O651 C645 1.268 . S
O652 Sc640 2.105 . S
O652 C646 1.268 . S
O653 Sc639 2.105 . S
O653 C647 1.268 . S
O654 Sc638 2.105 . S
O654 C646 1.268 . S
O655 Sc639 2.105 . S
O655 C645 1.268 . S
O656 Sc640 2.105 . S
O656 C647 1.268 . S
O657 Sc638 2.105 . S
O657 C643 1.268 . S
O658 Sc640 2.105 1_556 S
O658 C642 1.268 . S
O659 Sc639 2.105 . S
O659 C644 1.268 . S
Sc660 O663 2.025 . S
Sc660 O670 2.105 . S
Sc660 O673 2.105 . S
Sc660 O676 2.105 . S
Sc660 O679 2.105 . S
Sc661 O663 2.025 . S
Sc661 O671 2.105 . S
Sc661 O675 2.105 . S
Sc661 O677 2.105 . S
Sc661 O681 2.105 . S
Sc662 O663 2.025 . S
Sc662 O672 2.105 . S
Sc662 O674 2.105 . S
Sc662 O678 2.105 . S
Sc662 O680 2.105 . S
O663 Sc660 2.025 . S
O663 Sc661 2.025 . S
O663 Sc662 2.025 . S
C664 O670 1.268 . S
C664 O680 1.268 . S
C665 O671 1.268 . S
C665 O679 1.268 . S
C666 O672 1.268 . S
C666 O681 1.268 . S
C667 O673 1.268 . S
C667 O677 1.268 . S
C668 O674 1.268 . S
C668 O676 1.268 . S
C669 O675 1.268 . S
C669 O678 1.268 . S
O670 Sc660 2.105 . S
O670 C664 1.268 . S
O671 Sc661 2.105 . S
O671 C665 1.268 . S
O672 Sc662 2.105 . S
O672 C666 1.268 . S
O673 Sc660 2.105 . S
O673 C667 1.268 . S
O674 Sc662 2.105 . S
O674 C668 1.268 . S
O675 Sc661 2.105 . S
O675 C669 1.268 . S
O676 Sc660 2.105 . S
O676 C668 1.268 . S
O677 Sc661 2.105 . S
O677 C667 1.268 . S
O678 Sc662 2.105 . S
O678 C669 1.268 . S
O679 Sc660 2.105 . S
O679 C665 1.268 . S
O680 Sc662 2.105 . S
O680 C664 1.268 . S
O681 Sc661 2.105 . S
O681 C666 1.268 . S
Sc682 O685 2.025 . S
Sc682 O692 2.105 . S
Sc682 O695 2.105 . S
Sc682 O698 2.105 . S
Sc682 O701 2.105 . S
Sc683 O685 2.025 . S
Sc683 O693 2.105 . S
Sc683 O697 2.105 . S
Sc683 O699 2.105 . S
Sc683 O703 2.105 . S
Sc684 O685 2.025 . S
Sc684 O694 2.105 . S
Sc684 O696 2.105 . S
Sc684 O700 2.105 . S
Sc684 O702 2.105 . S
O685 Sc682 2.025 . S
O685 Sc683 2.025 . S
O685 Sc684 2.025 . S
C686 O692 1.268 . S
C686 O702 1.268 . S
C687 O693 1.268 . S
C687 O701 1.268 . S
C688 O694 1.268 . S
C688 O703 1.268 . S
C689 O695 1.268 . S
C689 O699 1.268 . S
C690 O696 1.268 . S
C690 O698 1.268 . S
C691 O697 1.268 . S
C691 O700 1.268 . S
O692 Sc682 2.105 . S
O692 C686 1.268 . S
O693 Sc683 2.105 . S
O693 C687 1.268 . S
O694 Sc684 2.105 . S
O694 C688 1.268 . S
O695 Sc682 2.105 . S
O695 C689 1.268 . S
O696 Sc684 2.105 . S
O696 C690 1.268 . S
O697 Sc683 2.105 . S
O697 C691 1.268 . S
O698 Sc682 2.105 . S
O698 C690 1.268 . S
O699 Sc683 2.105 . S
O699 C689 1.268 . S
O700 Sc684 2.105 . S
O700 C691 1.268 . S
O701 Sc682 2.105 . S
O701 C687 1.268 . S
O702 Sc684 2.105 . S
O702 C686 1.268 . S
O703 Sc683 2.105 . S
O703 C688 1.268 . S
H704 C710 0.930 . S
H705 C713 0.930 . S
H706 C714 0.930 . S
H707 C715 0.930 . S
H708 C718 0.930 . S
H709 C719 0.930 . S
C710 H704 0.930 . S
C710 C711 1.355 . S
C710 C712 1.415 . S
C711 C710 1.355 . S
C711 C713 1.419 . S
C712 C710 1.415 . S
C712 C717 1.425 1_545 S
C712 C719 1.409 1_545 S
C713 H705 0.930 . S
C713 C711 1.419 . S
C713 C714 1.362 . S
C714 H706 0.930 . S
C714 C713 1.362 . S
C714 C717 1.409 1_545 S
C715 H707 0.930 . S
C715 C716 1.355 . S
C715 C717 1.415 . S
C716 C715 1.355 . S
C716 C718 1.419 . S
C717 C712 1.425 1_565 S
C717 C714 1.409 1_565 S
C717 C715 1.415 . S
C718 H708 0.930 . S
C718 C716 1.419 . S
C718 C719 1.362 . S
C719 H709 0.930 . S
C719 C712 1.409 1_565 S
C719 C718 1.362 . S
H720 C726 0.930 . S
H721 C729 0.930 . S
H722 C730 0.930 . S
H723 C731 0.930 . S
H724 C734 0.930 . S
H725 C735 0.930 . S
C726 H720 0.930 . S
C726 C727 1.355 . S
C726 C728 1.415 . S
C727 C726 1.355 . S
C727 C729 1.419 . S
C728 C726 1.415 . S
C728 C733 1.425 . S
C728 C735 1.409 . S
C729 H721 0.930 . S
C729 C727 1.419 . S
C729 C730 1.362 . S
C730 H722 0.930 . S
C730 C729 1.362 . S
C730 C733 1.409 . S
C731 H723 0.930 . S
C731 C732 1.355 . S
C731 C733 1.415 . S
C732 C731 1.355 . S
C732 C734 1.419 . S
C733 C728 1.425 . S
C733 C730 1.409 . S
C733 C731 1.415 . S
C734 H724 0.930 . S
C734 C732 1.419 . S
C734 C735 1.362 . S
C735 H725 0.930 . S
C735 C728 1.409 . S
C735 C734 1.362 . S
H736 C742 0.930 . S
H737 C745 0.930 . S
H738 C746 0.930 . S
H739 C747 0.930 . S
H740 C750 0.930 . S
H741 C751 0.930 . S
C742 H736 0.930 . S
C742 C743 1.355 . S
C742 C744 1.415 . S
C743 C742 1.355 . S
C743 C745 1.419 . S
C744 C742 1.415 . S
C744 C749 1.425 1_545 S
C744 C751 1.409 1_545 S
C745 H737 0.930 . S
C745 C743 1.419 . S
C745 C746 1.362 . S
C746 H738 0.930 . S
C746 C745 1.362 . S
C746 C749 1.409 1_545 S
C747 H739 0.930 . S
C747 C748 1.355 . S
C747 C749 1.415 . S
C748 C747 1.355 . S
C748 C750 1.419 . S
C749 C744 1.425 1_565 S
C749 C746 1.409 1_565 S
C749 C747 1.415 . S
C750 H740 0.930 . S
C750 C748 1.419 . S
C750 C751 1.362 . S
C751 H741 0.930 . S
C751 C744 1.409 1_565 S
C751 C750 1.362 . S
H752 C758 0.930 . S
H753 C761 0.930 . S
H754 C762 0.930 . S
H755 C763 0.930 . S
H756 C766 0.930 . S
H757 C767 0.930 . S
C758 H752 0.930 . S
C758 C759 1.355 . S
C758 C760 1.415 . S
C759 C758 1.355 . S
C759 C761 1.419 1_554 S
C760 C758 1.415 . S
C760 C765 1.425 1_554 S
C760 C767 1.409 . S
C761 H753 0.930 . S
C761 C759 1.419 1_556 S
C761 C762 1.362 . S
C762 H754 0.930 . S
C762 C761 1.362 . S
C762 C765 1.409 . S
C763 H755 0.930 . S
C763 C764 1.355 . S
C763 C765 1.415 . S
C764 C763 1.355 . S
C764 C766 1.419 1_556 S
C765 C760 1.425 1_556 S
C765 C762 1.409 . S
C765 C763 1.415 . S
C766 H756 0.930 . S
C766 C764 1.419 1_554 S
C766 C767 1.362 . S
C767 H757 0.930 . S
C767 C760 1.409 . S
C767 C766 1.362 . S
H768 C774 0.930 . S
H769 C777 0.930 . S
H770 C778 0.930 . S
H771 C779 0.930 . S
H772 C782 0.930 . S
H773 C783 0.930 . S
C774 H768 0.930 . S
C774 C775 1.355 . S
C774 C776 1.415 . S
C775 C774 1.355 . S
C775 C777 1.419 . S
C776 C774 1.415 . S
C776 C781 1.425 1_565 S
C776 C783 1.409 1_565 S
C777 H769 0.930 . S
C777 C775 1.419 . S
C777 C778 1.362 . S
C778 H770 0.930 . S
C778 C777 1.362 . S
C778 C781 1.409 1_565 S
C779 H771 0.930 . S
C779 C780 1.355 . S
C779 C781 1.415 . S
C780 C779 1.355 . S
C780 C782 1.419 . S
C781 C776 1.425 1_545 S
C781 C778 1.409 1_545 S
C781 C779 1.415 . S
C782 H772 0.930 . S
C782 C780 1.419 . S
C782 C783 1.362 . S
C783 H773 0.930 . S
C783 C776 1.409 1_545 S
C783 C782 1.362 . S
H784 C790 0.930 . S
H785 C793 0.930 . S
H786 C794 0.930 . S
H787 C795 0.930 . S
H788 C798 0.930 . S
H789 C799 0.930 . S
C790 H784 0.930 . S
C790 C791 1.355 . S
C790 C792 1.415 . S
C791 C790 1.355 . S
C791 C793 1.419 . S
C792 C790 1.415 . S
C792 C797 1.425 . S
C792 C799 1.409 . S
C793 H785 0.930 . S
C793 C791 1.419 . S
C793 C794 1.362 . S
C794 H786 0.930 . S
C794 C793 1.362 . S
C794 C797 1.409 . S
C795 H787 0.930 . S
C795 C796 1.355 . S
C795 C797 1.415 . S
C796 C795 1.355 . S
C796 C798 1.419 . S
C797 C792 1.425 . S
C797 C794 1.409 . S
C797 C795 1.415 . S
C798 H788 0.930 . S
C798 C796 1.419 . S
C798 C799 1.362 . S
C799 H789 0.930 . S
C799 C792 1.409 . S
C799 C798 1.362 . S
H800 C806 0.930 . S
H801 C809 0.930 . S
H802 C810 0.930 1_565 S
H803 C811 0.930 . S
H804 C814 0.930 . S
H805 C815 0.930 1_545 S
C806 H800 0.930 . S
C806 C807 1.355 . S
C806 C808 1.415 . S
C807 C806 1.355 . S
C807 C809 1.419 . S
C808 C806 1.415 . S
C808 C813 1.425 1_545 S
C808 C815 1.409 1_545 S
C809 H801 0.930 . S
C809 C807 1.419 . S
C809 C810 1.362 . S
C810 H802 0.930 1_545 S
C810 C809 1.362 . S
C810 C813 1.409 1_545 S
C811 H803 0.930 . S
C811 C812 1.355 . S
C811 C813 1.415 . S
C812 C811 1.355 . S
C812 C814 1.419 . S
C813 C808 1.425 1_565 S
C813 C810 1.409 1_565 S
C813 C811 1.415 . S
C814 H804 0.930 . S
C814 C812 1.419 . S
C814 C815 1.362 . S
C815 H805 0.930 1_565 S
C815 C808 1.409 1_565 S
C815 C814 1.362 . S
H816 C822 0.930 . S
H817 C825 0.930 . S
H818 C826 0.930 . S
H819 C827 0.930 . S
H820 C830 0.930 . S
H821 C831 0.930 . S
C822 H816 0.930 . S
C822 C823 1.355 . S
C822 C824 1.415 . S
C823 C822 1.355 . S
C823 C825 1.419 1_554 S
C824 C822 1.415 . S
C824 C829 1.425 1_554 S
C824 C831 1.409 . S
C825 H817 0.930 . S
C825 C823 1.419 1_556 S
C825 C826 1.362 . S
C826 H818 0.930 . S
C826 C825 1.362 . S
C826 C829 1.409 . S
C827 H819 0.930 . S
C827 C828 1.355 . S
C827 C829 1.415 . S
C828 C827 1.355 . S
C828 C830 1.419 1_556 S
C829 C824 1.425 1_556 S
C829 C826 1.409 . S
C829 C827 1.415 . S
C830 H820 0.930 . S
C830 C828 1.419 1_554 S
C830 C831 1.362 . S
C831 H821 0.930 . S
C831 C824 1.409 . S
C831 C830 1.362 . S
H832 C838 0.930 . S
H833 C841 0.930 . S
H834 C842 0.930 . S
H835 C843 0.930 . S
H836 C846 0.930 . S
H837 C847 0.930 . S
C838 H832 0.930 . S
C838 C839 1.355 . S
C838 C840 1.415 . S
C839 C838 1.355 . S
C839 C841 1.419 . S
C840 C838 1.415 . S
C840 C845 1.425 . S
C840 C847 1.409 . S
C841 H833 0.930 . S
C841 C839 1.419 . S
C841 C842 1.362 . S
C842 H834 0.930 . S
C842 C841 1.362 . S
C842 C845 1.409 . S
C843 H835 0.930 . S
C843 C844 1.355 . S
C843 C845 1.415 . S
C844 C843 1.355 . S
C844 C846 1.419 . S
C845 C840 1.425 . S
C845 C842 1.409 . S
C845 C843 1.415 . S
C846 H836 0.930 . S
C846 C844 1.419 . S
C846 C847 1.362 . S
C847 H837 0.930 . S
C847 C840 1.409 . S
C847 C846 1.362 . S
H848 C854 0.930 . S
H849 C857 0.930 . S
H850 C858 0.930 . S
H851 C859 0.930 . S
H852 C862 0.930 . S
H853 C863 0.930 . S
C854 H848 0.930 . S
C854 C855 1.355 1_554 S
C854 C856 1.415 . S
C855 C854 1.355 1_556 S
C855 C857 1.419 . S
C856 C854 1.415 . S
C856 C861 1.425 1_554 S
C856 C863 1.409 . S
C857 H849 0.930 . S
C857 C855 1.419 . S
C857 C858 1.362 . S
C858 H850 0.930 . S
C858 C857 1.362 . S
C858 C861 1.409 . S
C859 H851 0.930 . S
C859 C860 1.355 1_556 S
C859 C861 1.415 . S
C860 C859 1.355 1_554 S
C860 C862 1.419 . S
C861 C856 1.425 1_556 S
C861 C858 1.409 . S
C861 C859 1.415 . S
C862 H852 0.930 . S
C862 C860 1.419 . S
C862 C863 1.362 . S
C863 H853 0.930 . S
C863 C856 1.409 . S
C863 C862 1.362 . S
H864 C870 0.930 . S
H865 C873 0.930 . S
H866 C874 0.930 . S
H867 C875 0.930 . S
H868 C878 0.930 . S
H869 C879 0.930 . S
C870 H864 0.930 . S
C870 C871 1.355 . S
C870 C872 1.415 . S
C871 C870 1.355 . S
C871 C873 1.419 . S
C872 C870 1.415 . S
C872 C877 1.425 . S
C872 C879 1.409 . S
C873 H865 0.930 . S
C873 C871 1.419 . S
C873 C874 1.362 . S
C874 H866 0.930 . S
C874 C873 1.362 . S
C874 C877 1.409 . S
C875 H867 0.930 . S
C875 C876 1.355 . S
C875 C877 1.415 . S
C876 C875 1.355 . S
C876 C878 1.419 . S
C877 C872 1.425 . S
C877 C874 1.409 . S
C877 C875 1.415 . S
C878 H868 0.930 . S
C878 C876 1.419 . S
C878 C879 1.362 . S
C879 H869 0.930 . S
C879 C872 1.409 . S
C879 C878 1.362 . S
H880 C886 0.930 . S
H881 C889 0.930 . S
H882 C890 0.930 . S
H883 C891 0.930 . S
H884 C894 0.930 . S
H885 C895 0.930 . S
C886 H880 0.930 . S
C886 C887 1.355 . S
C886 C888 1.415 . S
C887 C886 1.355 . S
C887 C889 1.419 . S
C888 C886 1.415 . S
C888 C893 1.425 . S
C888 C895 1.409 . S
C889 H881 0.930 . S
C889 C887 1.419 . S
C889 C890 1.362 . S
C890 H882 0.930 . S
C890 C889 1.362 . S
C890 C893 1.409 . S
C891 H883 0.930 . S
C891 C892 1.355 . S
C891 C893 1.415 . S
C892 C891 1.355 . S
C892 C894 1.419 . S
C893 C888 1.425 . S
C893 C890 1.409 . S
C893 C891 1.415 . S
C894 H884 0.930 . S
C894 C892 1.419 . S
C894 C895 1.362 . S
C895 H885 0.930 . S
C895 C888 1.409 . S
C895 C894 1.362 . S
H896 C902 0.930 . S
H897 C905 0.930 . S
H898 C906 0.930 . S
H899 C907 0.930 . S
H900 C910 0.930 . S
H901 C911 0.930 . S
C902 H896 0.930 . S
C902 C903 1.355 . S
C902 C904 1.415 . S
C903 C902 1.355 . S
C903 C905 1.419 . S
C904 C902 1.415 . S
C904 C909 1.425 . S
C904 C911 1.409 . S
C905 H897 0.930 . S
C905 C903 1.419 . S
C905 C906 1.362 . S
C906 H898 0.930 . S
C906 C905 1.362 . S
C906 C909 1.409 . S
C907 H899 0.930 . S
C907 C908 1.355 . S
C907 C909 1.415 . S
C908 C907 1.355 . S
C908 C910 1.419 . S
C909 C904 1.425 . S
C909 C906 1.409 . S
C909 C907 1.415 . S
C910 H900 0.930 . S
C910 C908 1.419 . S
C910 C911 1.362 . S
C911 H901 0.930 . S
C911 C904 1.409 . S
C911 C910 1.362 . S
H912 C918 0.930 . S
H913 C921 0.930 . S
H914 C922 0.930 . S
H915 C923 0.930 . S
H916 C926 0.930 . S
H917 C927 0.930 . S
C918 H912 0.930 . S
C918 C919 1.355 . S
C918 C920 1.415 . S
C919 C918 1.355 . S
C919 C921 1.419 1_556 S
C920 C918 1.415 . S
C920 C925 1.425 1_556 S
C920 C927 1.409 . S
C921 H913 0.930 . S
C921 C919 1.419 1_554 S
C921 C922 1.362 . S
C922 H914 0.930 . S
C922 C921 1.362 . S
C922 C925 1.409 . S
C923 H915 0.930 . S
C923 C924 1.355 . S
C923 C925 1.415 . S
C924 C923 1.355 . S
C924 C926 1.419 1_554 S
C925 C920 1.425 1_554 S
C925 C922 1.409 . S
C925 C923 1.415 . S
C926 H916 0.930 . S
C926 C924 1.419 1_556 S
C926 C927 1.362 . S
C927 H917 0.930 . S
C927 C920 1.409 . S
C927 C926 1.362 . S
H928 C934 0.930 . S
H929 C937 0.930 . S
H930 C938 0.930 . S
H931 C939 0.930 . S
H932 C942 0.930 . S
H933 C943 0.930 . S
C934 H928 0.930 . S
C934 C935 1.355 . S
C934 C936 1.415 . S
C935 C934 1.355 . S
C935 C937 1.419 . S
C936 C934 1.415 . S
C936 C941 1.425 . S
C936 C943 1.409 . S
C937 H929 0.930 . S
C937 C935 1.419 . S
C937 C938 1.362 . S
C938 H930 0.930 . S
C938 C937 1.362 . S
C938 C941 1.409 . S
C939 H931 0.930 . S
C939 C940 1.355 . S
C939 C941 1.415 . S
C940 C939 1.355 . S
C940 C942 1.419 . S
C941 C936 1.425 . S
C941 C938 1.409 . S
C941 C939 1.415 . S
C942 H932 0.930 . S
C942 C940 1.419 . S
C942 C943 1.362 . S
C943 H933 0.930 . S
C943 C936 1.409 . S
C943 C942 1.362 . S
H944 C950 0.930 . S
H945 C953 0.930 . S
H946 C954 0.930 . S
H947 C955 0.930 . S
H948 C958 0.930 . S
H949 C959 0.930 . S
C950 H944 0.930 . S
C950 C951 1.355 . S
C950 C952 1.415 . S
C951 C950 1.355 . S
C951 C953 1.419 . S
C952 C950 1.415 . S
C952 C957 1.425 . S
C952 C959 1.409 . S
C953 H945 0.930 . S
C953 C951 1.419 . S
C953 C954 1.362 . S
C954 H946 0.930 . S
C954 C953 1.362 . S
C954 C957 1.409 . S
C955 H947 0.930 . S
C955 C956 1.355 . S
C955 C957 1.415 . S
C956 C955 1.355 . S
C956 C958 1.419 . S
C957 C952 1.425 . S
C957 C954 1.409 . S
C957 C955 1.415 . S
C958 H948 0.930 . S
C958 C956 1.419 . S
C958 C959 1.362 . S
C959 H949 0.930 . S
C959 C952 1.409 . S
C959 C958 1.362 . S
H960 C966 0.930 . S
H961 C969 0.930 . S
H962 C970 0.930 . S
H963 C971 0.930 . S
H964 C974 0.930 . S
H965 C975 0.930 . S
C966 H960 0.930 . S
C966 C967 1.355 . S
C966 C968 1.415 . S
C967 C966 1.355 . S
C967 C969 1.419 . S
C968 C966 1.415 . S
C968 C973 1.425 . S
C968 C975 1.409 . S
C969 H961 0.930 . S
C969 C967 1.419 . S
C969 C970 1.362 . S
C970 H962 0.930 . S
C970 C969 1.362 . S
C970 C973 1.409 . S
C971 H963 0.930 . S
C971 C972 1.355 . S
C971 C973 1.415 . S
C972 C971 1.355 . S
C972 C974 1.419 . S
C973 C968 1.425 . S
C973 C970 1.409 . S
C973 C971 1.415 . S
C974 H964 0.930 . S
C974 C972 1.419 . S
C974 C975 1.362 . S
C975 H965 0.930 . S
C975 C968 1.409 . S
C975 C974 1.362 . S
H976 C982 0.930 . S
H977 C985 0.930 . S
H978 C986 0.930 . S
H979 C987 0.930 . S
H980 C990 0.930 . S
H981 C991 0.930 . S
C982 H976 0.930 . S
C982 C983 1.355 . S
C982 C984 1.415 1_655 S
C983 C982 1.355 . S
C983 C985 1.419 1_545 S
C984 C982 1.415 1_455 S
C984 C989 1.425 1_445 S
C984 C991 1.409 . S
C985 H977 0.930 . S
C985 C983 1.419 1_565 S
C985 C986 1.362 . S
C986 H978 0.930 . S
C986 C985 1.362 . S
C986 C989 1.409 . S
C987 H979 0.930 . S
C987 C988 1.355 . S
C987 C989 1.415 1_455 S
C988 C987 1.355 . S
C988 C990 1.419 1_565 S
C989 C984 1.425 1_665 S
C989 C986 1.409 . S
C989 C987 1.415 1_655 S
C990 H980 0.930 . S
C990 C988 1.419 1_545 S
C990 C991 1.362 . S
C991 H981 0.930 . S
C991 C984 1.409 . S
C991 C990 1.362 . S
H992 C998 0.930 . S
H993 C1001 0.930 . S
H994 C1002 0.930 . S
H995 C1003 0.930 . S
H996 C1006 0.930 . S
H997 C1007 0.930 . S
C998 H992 0.930 . S
C998 C999 1.355 . S
C998 C1000 1.415 . S
C999 C998 1.355 . S
C999 C1001 1.419 . S
C1000 C998 1.415 . S
C1000 C1005 1.425 . S
C1000 C1007 1.409 . S
C1001 H993 0.930 . S
C1001 C999 1.419 . S
C1001 C1002 1.362 . S
C1002 H994 0.930 . S
C1002 C1001 1.362 . S
C1002 C1005 1.409 . S
C1003 H995 0.930 . S
C1003 C1004 1.355 . S
C1003 C1005 1.415 . S
C1004 C1003 1.355 . S
C1004 C1006 1.419 . S
C1005 C1000 1.425 . S
C1005 C1002 1.409 . S
C1005 C1003 1.415 . S
C1006 H996 0.930 . S
C1006 C1004 1.419 . S
C1006 C1007 1.362 . S
C1007 H997 0.930 . S
C1007 C1000 1.409 . S
C1007 C1006 1.362 . S
H1008 C1014 0.930 . S
H1009 C1017 0.930 . S
H1010 C1018 0.930 . S
H1011 C1019 0.930 . S
H1012 C1022 0.930 . S
H1013 C1023 0.930 . S
C1014 H1008 0.930 . S
C1014 C1015 1.355 1_556 S
C1014 C1016 1.415 1_545 S
C1015 C1014 1.355 1_554 S
C1015 C1017 1.419 . S
C1016 C1014 1.415 1_565 S
C1016 C1021 1.425 1_566 S
C1016 C1023 1.409 . S
C1017 H1009 0.930 . S
C1017 C1015 1.419 . S
C1017 C1018 1.362 . S
C1018 H1010 0.930 . S
C1018 C1017 1.362 . S
C1018 C1021 1.409 . S
C1019 H1011 0.930 . S
C1019 C1020 1.355 1_554 S
C1019 C1021 1.415 1_565 S
C1020 C1019 1.355 1_556 S
C1020 C1022 1.419 . S
C1021 C1016 1.425 1_544 S
C1021 C1018 1.409 . S
C1021 C1019 1.415 1_545 S
C1022 H1012 0.930 . S
C1022 C1020 1.419 . S
C1022 C1023 1.362 . S
C1023 H1013 0.930 . S
C1023 C1016 1.409 . S
C1023 C1022 1.362 . S
H1024 C1030 0.930 . S
H1025 C1033 0.930 . S
H1026 C1034 0.930 . S
H1027 C1035 0.930 . S
H1028 C1038 0.930 . S
H1029 C1039 0.930 . S
C1030 H1024 0.930 . S
C1030 C1031 1.355 . S
C1030 C1032 1.415 . S
C1031 C1030 1.355 . S
C1031 C1033 1.419 . S
C1032 C1030 1.415 . S
C1032 C1037 1.425 . S
C1032 C1039 1.409 . S
C1033 H1025 0.930 . S
C1033 C1031 1.419 . S
C1033 C1034 1.362 . S
C1034 H1026 0.930 . S
C1034 C1033 1.362 . S
C1034 C1037 1.409 . S
C1035 H1027 0.930 . S
C1035 C1036 1.355 . S
C1035 C1037 1.415 . S
C1036 C1035 1.355 . S
C1036 C1038 1.419 . S
C1037 C1032 1.425 . S
C1037 C1034 1.409 . S
C1037 C1035 1.415 . S
C1038 H1028 0.930 . S
C1038 C1036 1.419 . S
C1038 C1039 1.362 . S
C1039 H1029 0.930 . S
C1039 C1032 1.409 . S
C1039 C1038 1.362 . S
H1040 C1046 0.930 . S
H1041 C1049 0.930 . S
H1042 C1050 0.930 . S
H1043 C1051 0.930 . S
H1044 C1054 0.930 . S
H1045 C1055 0.930 . S
C1046 H1040 0.930 . S
C1046 C1047 1.355 . S
C1046 C1048 1.415 1_565 S
C1047 C1046 1.355 . S
C1047 C1049 1.419 . S
C1048 C1046 1.415 1_545 S
C1048 C1053 1.425 1_545 S
C1048 C1055 1.409 . S
C1049 H1041 0.930 . S
C1049 C1047 1.419 . S
C1049 C1050 1.362 . S
C1050 H1042 0.930 . S
C1050 C1049 1.362 . S
C1050 C1053 1.409 . S
C1051 H1043 0.930 . S
C1051 C1052 1.355 . S
C1051 C1053 1.415 1_545 S
C1052 C1051 1.355 . S
C1052 C1054 1.419 . S
C1053 C1048 1.425 1_565 S
C1053 C1050 1.409 . S
C1053 C1051 1.415 1_565 S
C1054 H1044 0.930 . S
C1054 C1052 1.419 . S
C1054 C1055 1.362 . S
C1055 H1045 0.930 . S
C1055 C1048 1.409 . S
C1055 C1054 1.362 . S
H1056 C1062 0.930 . S
H1057 C1065 0.930 . S
H1058 C1066 0.930 . S
H1059 C1067 0.930 . S
H1060 C1070 0.930 . S
H1061 C1071 0.930 . S
C1062 H1056 0.930 . S
C1062 C1063 1.355 . S
C1062 C1064 1.415 . S
C1063 C1062 1.355 . S
C1063 C1065 1.419 . S
C1064 C1062 1.415 . S
C1064 C1069 1.425 . S
C1064 C1071 1.409 . S
C1065 H1057 0.930 . S
C1065 C1063 1.419 . S
C1065 C1066 1.362 . S
C1066 H1058 0.930 . S
C1066 C1065 1.362 . S
C1066 C1069 1.409 . S
C1067 H1059 0.930 . S
C1067 C1068 1.355 . S
C1067 C1069 1.415 . S
C1068 C1067 1.355 . S
C1068 C1070 1.419 . S
C1069 C1064 1.425 . S
C1069 C1066 1.409 . S
C1069 C1067 1.415 . S
C1070 H1060 0.930 . S
C1070 C1068 1.419 . S
C1070 C1071 1.362 . S
C1071 H1061 0.930 . S
C1071 C1064 1.409 . S
C1071 C1070 1.362 . S
H1072 C1078 0.930 . S
H1073 C1081 0.930 . S
H1074 C1082 0.930 . S
H1075 C1083 0.930 . S
H1076 C1086 0.930 . S
H1077 C1087 0.930 . S
C1078 H1072 0.930 . S
C1078 C1079 1.355 . S
C1078 C1080 1.422 1_655 S
C1079 C1078 1.355 . S
C1079 C1081 1.419 1_565 S
C1080 C1078 1.422 1_455 S
C1080 C1085 1.423 1_464 S
C1080 C1087 1.405 1_554 S
C1081 H1073 0.930 . S
C1081 C1079 1.419 1_545 S
C1081 C1082 1.362 . S
C1082 H1074 0.930 . S
C1082 C1081 1.362 . S
C1082 C1085 1.405 1_554 S
C1083 H1075 0.930 . S
C1083 C1084 1.355 . S
C1083 C1085 1.422 1_455 S
C1084 C1083 1.355 . S
C1084 C1086 1.419 1_545 S
C1085 C1080 1.423 1_646 S
C1085 C1082 1.405 1_556 S
C1085 C1083 1.422 1_655 S
C1086 H1076 0.930 . S
C1086 C1084 1.419 1_565 S
C1086 C1087 1.362 . S
C1087 H1077 0.930 . S
C1087 C1080 1.405 1_556 S
C1087 C1086 1.362 . S
H1088 C1094 0.930 . S
H1089 C1097 0.930 . S
H1090 C1098 0.930 . S
H1091 C1099 0.930 . S
H1092 C1102 0.930 . S
H1093 C1103 0.930 . S
C1094 H1088 0.930 . S
C1094 C1095 1.355 . S
C1094 C1096 1.415 . S
C1095 C1094 1.355 . S
C1095 C1097 1.419 . S
C1096 C1094 1.415 . S
C1096 C1101 1.425 . S
C1096 C1103 1.409 . S
C1097 H1089 0.930 . S
C1097 C1095 1.419 . S
C1097 C1098 1.362 . S
C1098 H1090 0.930 . S
C1098 C1097 1.362 . S
C1098 C1101 1.409 . S
C1099 H1091 0.930 . S
C1099 C1100 1.355 . S
C1099 C1101 1.415 . S
C1100 C1099 1.355 . S
C1100 C1102 1.419 . S
C1101 C1096 1.425 . S
C1101 C1098 1.409 . S
C1101 C1099 1.415 . S
C1102 H1092 0.930 . S
C1102 C1100 1.419 . S
C1102 C1103 1.362 . S
C1103 H1093 0.930 . S
C1103 C1096 1.409 . S
C1103 C1102 1.362 . S
H1104 C1110 0.930 . S
H1105 C1113 0.930 . S
H1106 C1114 0.930 . S
H1107 C1115 0.930 . S
H1108 C1118 0.930 . S
H1109 C1119 0.930 . S
C1110 H1104 0.930 . S
C1110 C1111 1.355 . S
C1110 C1112 1.415 . S
C1111 C1110 1.355 . S
C1111 C1113 1.419 . S
C1112 C1110 1.415 . S
C1112 C1117 1.425 . S
C1112 C1119 1.409 . S
C1113 H1105 0.930 . S
C1113 C1111 1.419 . S
C1113 C1114 1.362 . S
C1114 H1106 0.930 . S
C1114 C1113 1.362 . S
C1114 C1117 1.409 . S
C1115 H1107 0.930 . S
C1115 C1116 1.355 . S
C1115 C1117 1.415 . S
C1116 C1115 1.355 . S
C1116 C1118 1.419 . S
C1117 C1112 1.425 . S
C1117 C1114 1.409 . S
C1117 C1115 1.415 . S
C1118 H1108 0.930 . S
C1118 C1116 1.419 . S
C1118 C1119 1.362 . S
C1119 H1109 0.930 . S
C1119 C1112 1.409 . S
C1119 C1118 1.362 . S
H1120 C1126 0.930 . S
H1121 C1129 0.930 . S
H1122 C1130 0.930 . S
H1123 C1131 0.930 . S
H1124 C1134 0.930 . S
H1125 C1135 0.930 . S
C1126 H1120 0.930 . S
C1126 C1127 1.355 . S
C1126 C1128 1.415 . S
C1127 C1126 1.355 . S
C1127 C1129 1.419 . S
C1128 C1126 1.415 . S
C1128 C1133 1.425 . S
C1128 C1135 1.409 . S
C1129 H1121 0.930 . S
C1129 C1127 1.419 . S
C1129 C1130 1.362 . S
C1130 H1122 0.930 . S
C1130 C1129 1.362 . S
C1130 C1133 1.409 . S
C1131 H1123 0.930 . S
C1131 C1132 1.355 . S
C1131 C1133 1.415 . S
C1132 C1131 1.355 . S
C1132 C1134 1.419 . S
C1133 C1128 1.425 . S
C1133 C1130 1.409 . S
C1133 C1131 1.415 . S
C1134 H1124 0.930 . S
C1134 C1132 1.419 . S
C1134 C1135 1.362 . S
C1135 H1125 0.930 . S
C1135 C1128 1.409 . S
C1135 C1134 1.362 . S
H1136 C1142 0.930 . S
H1137 C1145 0.930 . S
H1138 C1146 0.930 . S
H1139 C1147 0.930 . S
H1140 C1150 0.930 . S
H1141 C1151 0.930 . S
C1142 H1136 0.930 . S
C1142 C1143 1.355 . S
C1142 C1144 1.415 . S
C1143 C1142 1.355 . S
C1143 C1145 1.419 . S
C1144 C1142 1.415 . S
C1144 C1149 1.425 . S
C1144 C1151 1.409 . S
C1145 H1137 0.930 . S
C1145 C1143 1.419 . S
C1145 C1146 1.362 . S
C1146 H1138 0.930 . S
C1146 C1145 1.362 . S
C1146 C1149 1.409 . S
C1147 H1139 0.930 . S
C1147 C1148 1.355 . S
C1147 C1149 1.415 . S
C1148 C1147 1.355 . S
C1148 C1150 1.419 . S
C1149 C1144 1.425 . S
C1149 C1146 1.409 . S
C1149 C1147 1.415 . S
C1150 H1140 0.930 . S
C1150 C1148 1.419 . S
C1150 C1151 1.362 . S
C1151 H1141 0.930 . S
C1151 C1144 1.409 . S
C1151 C1150 1.362 . S
H1152 C1158 0.930 . S
H1153 C1161 0.930 . S
H1154 C1162 0.930 . S
H1155 C1163 0.930 . S
H1156 C1166 0.930 . S
H1157 C1167 0.930 . S
C1158 H1152 0.930 . S
C1158 C1159 1.355 . S
C1158 C1160 1.415 . S
C1159 C1158 1.355 . S
C1159 C1161 1.419 1_554 S
C1160 C1158 1.415 . S
C1160 C1165 1.425 1_554 S
C1160 C1167 1.409 . S
C1161 H1153 0.930 . S
C1161 C1159 1.419 1_556 S
C1161 C1162 1.362 . S
C1162 H1154 0.930 . S
C1162 C1161 1.362 . S
C1162 C1165 1.409 . S
C1163 H1155 0.930 . S
C1163 C1164 1.355 . S
C1163 C1165 1.415 . S
C1164 C1163 1.355 . S
C1164 C1166 1.419 1_556 S
C1165 C1160 1.425 1_556 S
C1165 C1162 1.409 . S
C1165 C1163 1.415 . S
C1166 H1156 0.930 . S
C1166 C1164 1.419 1_554 S
C1166 C1167 1.362 . S
C1167 H1157 0.930 . S
C1167 C1160 1.409 . S
C1167 C1166 1.362 . S
H1168 C1174 0.930 . S
H1169 C1177 0.930 . S
H1170 C1178 0.930 1_655 S
H1171 C1179 0.930 . S
H1172 C1182 0.930 . S
H1173 C1183 0.930 1_455 S
C1174 H1168 0.930 . S
C1174 C1175 1.355 . S
C1174 C1176 1.415 . S
C1175 C1174 1.355 . S
C1175 C1177 1.419 . S
C1176 C1174 1.415 . S
C1176 C1181 1.425 1_455 S
C1176 C1183 1.409 1_455 S
C1177 H1169 0.930 . S
C1177 C1175 1.419 . S
C1177 C1178 1.362 . S
C1178 H1170 0.930 1_455 S
C1178 C1177 1.362 . S
C1178 C1181 1.409 1_455 S
C1179 H1171 0.930 . S
C1179 C1180 1.355 . S
C1179 C1181 1.415 . S
C1180 C1179 1.355 . S
C1180 C1182 1.419 . S
C1181 C1176 1.425 1_655 S
C1181 C1178 1.409 1_655 S
C1181 C1179 1.415 . S
C1182 H1172 0.930 . S
C1182 C1180 1.419 . S
C1182 C1183 1.362 . S
C1183 H1173 0.930 1_655 S
C1183 C1176 1.409 1_655 S
C1183 C1182 1.362 . S
H1184 C1190 0.930 . S
H1185 C1193 0.930 . S
H1186 C1194 0.928 1_556 S
H1187 C1195 0.930 . S
H1188 C1198 0.930 . S
H1189 C1199 0.928 1_554 S
C1190 H1184 0.930 . S
C1190 C1191 1.355 . S
C1190 C1192 1.415 1_455 S
C1191 C1190 1.355 . S
C1191 C1193 1.419 . S
C1192 C1190 1.415 1_655 S
C1192 C1197 1.425 1_654 S
C1192 C1199 1.406 1_554 S
C1193 H1185 0.930 . S
C1193 C1191 1.419 . S
C1193 C1194 1.369 . S
C1194 H1186 0.928 1_554 S
C1194 C1193 1.369 . S
C1194 C1197 1.406 1_554 S
C1195 H1187 0.930 . S
C1195 C1196 1.355 . S
C1195 C1197 1.415 1_655 S
C1196 C1195 1.355 . S
C1196 C1198 1.419 . S
C1197 C1192 1.425 1_456 S
C1197 C1194 1.406 1_556 S
C1197 C1195 1.415 1_455 S
C1198 H1188 0.930 . S
C1198 C1196 1.419 . S
C1198 C1199 1.369 . S
C1199 H1189 0.928 1_556 S
C1199 C1192 1.406 1_556 S
C1199 C1198 1.369 . S
H1200 C1206 0.930 . S
H1201 C1209 0.930 . S
H1202 C1210 0.930 . S
H1203 C1211 0.930 . S
H1204 C1214 0.930 . S
H1205 C1215 0.930 . S
C1206 H1200 0.930 . S
C1206 C1207 1.355 . S
C1206 C1208 1.415 . S
C1207 C1206 1.355 . S
C1207 C1209 1.419 . S
C1208 C1206 1.415 . S
C1208 C1213 1.425 . S
C1208 C1215 1.409 . S
C1209 H1201 0.930 . S
C1209 C1207 1.419 . S
C1209 C1210 1.362 . S
C1210 H1202 0.930 . S
C1210 C1209 1.362 . S
C1210 C1213 1.409 . S
C1211 H1203 0.930 . S
C1211 C1212 1.355 . S
C1211 C1213 1.415 . S
C1212 C1211 1.355 . S
C1212 C1214 1.419 . S
C1213 C1208 1.425 . S
C1213 C1210 1.409 . S
C1213 C1211 1.415 . S
C1214 H1204 0.930 . S
C1214 C1212 1.419 . S
C1214 C1215 1.362 . S
C1215 H1205 0.930 . S
C1215 C1208 1.409 . S
C1215 C1214 1.362 . S
H1216 C1222 0.930 . S
H1217 C1225 0.930 . S
H1218 C1226 0.930 . S
H1219 C1227 0.930 . S
H1220 C1230 0.930 . S
H1221 C1231 0.930 . S
C1222 H1216 0.930 . S
C1222 C1223 1.355 . S
C1222 C1224 1.415 . S
C1223 C1222 1.355 . S
C1223 C1225 1.419 . S
C1224 C1222 1.415 . S
C1224 C1229 1.425 . S
C1224 C1231 1.409 . S
C1225 H1217 0.930 . S
C1225 C1223 1.419 . S
C1225 C1226 1.362 . S
C1226 H1218 0.930 . S
C1226 C1225 1.362 . S
C1226 C1229 1.409 . S
C1227 H1219 0.930 . S
C1227 C1228 1.355 . S
C1227 C1229 1.415 . S
C1228 C1227 1.355 . S
C1228 C1230 1.419 . S
C1229 C1224 1.425 . S
C1229 C1226 1.409 . S
C1229 C1227 1.415 . S
C1230 H1220 0.930 . S
C1230 C1228 1.419 . S
C1230 C1231 1.362 . S
C1231 H1221 0.930 . S
C1231 C1224 1.409 . S
C1231 C1230 1.362 . S
H1232 C1238 0.930 . S
H1233 C1241 0.930 . S
H1234 C1242 0.930 . S
H1235 C1243 0.930 . S
H1236 C1246 0.930 . S
H1237 C1247 0.957 . S
C1238 H1232 0.930 . S
C1238 C1239 1.355 . S
C1238 C1240 1.415 1_455 S
C1239 C1238 1.355 . S
C1239 C1241 1.419 1_455 S
C1240 C1238 1.415 1_655 S
C1240 C1245 1.425 . S
C1240 C1247 1.409 . S
C1241 H1233 0.930 . S
C1241 C1239 1.419 1_655 S
C1241 C1242 1.362 . S
C1242 H1234 0.930 . S
C1242 C1241 1.362 . S
C1242 C1245 1.409 . S
C1243 H1235 0.930 . S
C1243 C1244 1.355 . S
C1243 C1245 1.415 . S
C1244 C1243 1.355 . S
C1244 C1246 1.419 . S
C1245 C1240 1.425 . S
C1245 C1242 1.409 . S
C1245 C1243 1.415 . S
C1246 H1236 0.930 . S
C1246 C1244 1.419 . S
C1246 C1247 1.362 . S
C1247 H1237 0.957 . S
C1247 C1240 1.409 . S
C1247 C1246 1.362 . S
H1248 C1254 0.930 . S
H1249 C1257 0.930 . S
H1250 C1258 0.930 . S
H1251 C1259 0.930 . S
H1252 C1262 0.930 . S
H1253 C1263 0.930 . S
C1254 H1248 0.930 . S
C1254 C1255 1.355 . S
C1254 C1256 1.415 . S
C1255 C1254 1.355 . S
C1255 C1257 1.419 . S
C1256 C1254 1.415 . S
C1256 C1261 1.425 . S
C1256 C1263 1.409 . S
C1257 H1249 0.930 . S
C1257 C1255 1.419 . S
C1257 C1258 1.362 . S
C1258 H1250 0.930 . S
C1258 C1257 1.362 . S
C1258 C1261 1.409 . S
C1259 H1251 0.930 . S
C1259 C1260 1.355 . S
C1259 C1261 1.415 . S
C1260 C1259 1.355 . S
C1260 C1262 1.419 . S
C1261 C1256 1.425 . S
C1261 C1258 1.409 . S
C1261 C1259 1.415 . S
C1262 H1252 0.930 . S
C1262 C1260 1.419 . S
C1262 C1263 1.362 . S
C1263 H1253 0.930 . S
C1263 C1256 1.409 . S
C1263 C1262 1.362 . S
H1264 C1270 0.930 . S
H1265 C1273 0.930 . S
H1266 C1274 0.930 . S
H1267 C1275 0.930 . S
H1268 C1278 0.930 . S
H1269 C1279 0.930 . S
C1270 H1264 0.930 . S
C1270 C1271 1.355 . S
C1270 C1272 1.415 . S
C1271 C1270 1.355 . S
C1271 C1273 1.419 . S
C1272 C1270 1.415 . S
C1272 C1277 1.425 . S
C1272 C1279 1.409 . S
C1273 H1265 0.930 . S
C1273 C1271 1.419 . S
C1273 C1274 1.362 . S
C1274 H1266 0.930 . S
C1274 C1273 1.362 . S
C1274 C1277 1.409 . S
C1275 H1267 0.930 . S
C1275 C1276 1.355 . S
C1275 C1277 1.415 . S
C1276 C1275 1.355 . S
C1276 C1278 1.419 . S
C1277 C1272 1.425 . S
C1277 C1274 1.409 . S
C1277 C1275 1.415 . S
C1278 H1268 0.930 . S
C1278 C1276 1.419 . S
C1278 C1279 1.362 . S
C1279 H1269 0.930 . S
C1279 C1272 1.409 . S
C1279 C1278 1.362 . S
H1280 C1286 0.930 . S
H1281 C1289 0.930 . S
H1282 C1290 0.930 . S
H1283 C1291 0.930 . S
H1284 C1294 0.930 . S
H1285 C1295 0.930 . S
C1286 H1280 0.930 . S
C1286 C1287 1.355 . S
C1286 C1288 1.415 . S
C1287 C1286 1.355 . S
C1287 C1289 1.419 . S
C1288 C1286 1.415 . S
C1288 C1293 1.425 . S
C1288 C1295 1.409 . S
C1289 H1281 0.930 . S
C1289 C1287 1.419 . S
C1289 C1290 1.362 . S
C1290 H1282 0.930 . S
C1290 C1289 1.362 . S
C1290 C1293 1.409 . S
C1291 H1283 0.930 . S
C1291 C1292 1.355 . S
C1291 C1293 1.415 . S
C1292 C1291 1.355 . S
C1292 C1294 1.419 . S
C1293 C1288 1.425 . S
C1293 C1290 1.409 . S
C1293 C1291 1.415 . S
C1294 H1284 0.930 . S
C1294 C1292 1.419 . S
C1294 C1295 1.362 . S
C1295 H1285 0.930 . S
C1295 C1288 1.409 . S
C1295 C1294 1.362 . S
H1296 C1302 0.930 . S
H1297 C1305 0.930 . S
H1298 C1306 0.930 . S
H1299 C1307 0.930 . S
H1300 C1310 0.930 . S
H1301 C1311 0.930 . S
C1302 H1296 0.930 . S
C1302 C1303 1.355 . S
C1302 C1304 1.415 . S
C1303 C1302 1.355 . S
C1303 C1305 1.419 . S
C1304 C1302 1.415 . S
C1304 C1309 1.425 . S
C1304 C1311 1.409 . S
C1305 H1297 0.930 . S
C1305 C1303 1.419 . S
C1305 C1306 1.362 . S
C1306 H1298 0.930 . S
C1306 C1305 1.362 . S
C1306 C1309 1.409 . S
C1307 H1299 0.930 . S
C1307 C1308 1.355 . S
C1307 C1309 1.415 . S
C1308 C1307 1.355 . S
C1308 C1310 1.419 . S
C1309 C1304 1.425 . S
C1309 C1306 1.409 . S
C1309 C1307 1.415 . S
C1310 H1300 0.930 . S
C1310 C1308 1.419 . S
C1310 C1311 1.362 . S
C1311 H1301 0.930 . S
C1311 C1304 1.409 . S
C1311 C1310 1.362 . S
H1312 C1318 0.930 . S
H1313 C1321 0.930 . S
H1314 C1322 0.930 . S
H1315 C1323 0.930 . S
H1316 C1326 0.930 . S
H1317 C1327 0.930 . S
C1318 H1312 0.930 . S
C1318 C1319 1.355 . S
C1318 C1320 1.415 . S
C1319 C1318 1.355 . S
C1319 C1321 1.419 . S
C1320 C1318 1.415 . S
C1320 C1325 1.425 . S
C1320 C1327 1.409 . S
C1321 H1313 0.930 . S
C1321 C1319 1.419 . S
C1321 C1322 1.362 . S
C1322 H1314 0.930 . S
C1322 C1321 1.362 . S
C1322 C1325 1.409 . S
C1323 H1315 0.930 . S
C1323 C1324 1.355 . S
C1323 C1325 1.415 . S
C1324 C1323 1.355 . S
C1324 C1326 1.419 . S
C1325 C1320 1.425 . S
C1325 C1322 1.409 . S
C1325 C1323 1.415 . S
C1326 H1316 0.930 . S
C1326 C1324 1.419 . S
C1326 C1327 1.362 . S
C1327 H1317 0.930 . S
C1327 C1320 1.409 . S
C1327 C1326 1.362 . S
H1328 C1334 0.930 . S
H1329 C1337 0.930 . S
H1330 C1338 0.930 . S
H1331 C1339 0.930 . S
H1332 C1342 0.930 . S
H1333 C1343 0.930 . S
C1334 H1328 0.930 . S
C1334 C1335 1.355 . S
C1334 C1336 1.415 . S
C1335 C1334 1.355 . S
C1335 C1337 1.419 . S
C1336 C1334 1.415 . S
C1336 C1341 1.425 . S
C1336 C1343 1.409 . S
C1337 H1329 0.930 . S
C1337 C1335 1.419 . S
C1337 C1338 1.362 . S
C1338 H1330 0.930 . S
C1338 C1337 1.362 . S
C1338 C1341 1.409 . S
C1339 H1331 0.930 . S
C1339 C1340 1.355 . S
C1339 C1341 1.415 1_455 S
C1340 C1339 1.355 . S
C1340 C1342 1.419 1_455 S
C1341 C1336 1.425 . S
C1341 C1338 1.409 . S
C1341 C1339 1.415 1_655 S
C1342 H1332 0.930 . S
C1342 C1340 1.419 1_655 S
C1342 C1343 1.362 . S
C1343 H1333 0.930 . S
C1343 C1336 1.409 . S
C1343 C1342 1.362 . S
H1344 C1350 0.930 . S
H1345 C1353 0.930 . S
H1346 C1354 0.930 . S
H1347 C1355 0.930 . S
H1348 C1358 0.930 . S
H1349 C1359 0.930 . S
C1350 H1344 0.930 . S
C1350 C1351 1.355 . S
C1350 C1352 1.415 . S
C1351 C1350 1.355 . S
C1351 C1353 1.419 . S
C1352 C1350 1.415 . S
C1352 C1357 1.425 . S
C1352 C1359 1.409 . S
C1353 H1345 0.930 . S
C1353 C1351 1.419 . S
C1353 C1354 1.362 . S
C1354 H1346 0.930 . S
C1354 C1353 1.362 . S
C1354 C1357 1.409 . S
C1355 H1347 0.930 . S
C1355 C1356 1.355 . S
C1355 C1357 1.415 . S
C1356 C1355 1.355 . S
C1356 C1358 1.419 . S
C1357 C1352 1.425 . S
C1357 C1354 1.409 . S
C1357 C1355 1.415 . S
C1358 H1348 0.930 . S
C1358 C1356 1.419 . S
C1358 C1359 1.362 . S
C1359 H1349 0.930 . S
C1359 C1352 1.409 . S
C1359 C1358 1.362 . S
H1360 C1366 0.930 . S
H1361 C1369 0.930 . S
H1362 C1370 0.930 . S
H1363 C1371 0.930 . S
H1364 C1374 0.930 . S
H1365 C1375 0.930 1_655 S
C1366 H1360 0.930 . S
C1366 C1367 1.355 . S
C1366 C1368 1.415 1_655 S
C1367 C1366 1.355 . S
C1367 C1369 1.419 1_655 S
C1368 C1366 1.415 1_455 S
C1368 C1373 1.425 . S
C1368 C1375 1.409 . S
C1369 H1361 0.930 . S
C1369 C1367 1.419 1_455 S
C1369 C1370 1.362 . S
C1370 H1362 0.930 . S
C1370 C1369 1.362 . S
C1370 C1373 1.409 . S
C1371 H1363 0.930 . S
C1371 C1372 1.355 . S
C1371 C1373 1.415 . S
C1372 C1371 1.355 . S
C1372 C1374 1.419 . S
C1373 C1368 1.425 . S
C1373 C1370 1.409 . S
C1373 C1371 1.415 . S
C1374 H1364 0.930 . S
C1374 C1372 1.419 . S
C1374 C1375 1.362 . S
C1375 H1365 0.930 1_455 S
C1375 C1368 1.409 . S
C1375 C1374 1.362 . S
H1376 C1382 0.930 . S
H1377 C1385 0.930 . S
H1378 C1386 0.930 . S
H1379 C1387 0.930 . S
H1380 C1390 0.930 . S
H1381 C1391 0.930 . S
C1382 H1376 0.930 . S
C1382 C1383 1.355 . S
C1382 C1384 1.415 . S
C1383 C1382 1.355 . S
C1383 C1385 1.419 . S
C1384 C1382 1.415 . S
C1384 C1389 1.425 . S
C1384 C1391 1.409 . S
C1385 H1377 0.930 . S
C1385 C1383 1.419 . S
C1385 C1386 1.362 . S
C1386 H1378 0.930 . S
C1386 C1385 1.362 . S
C1386 C1389 1.409 . S
C1387 H1379 0.930 . S
C1387 C1388 1.355 . S
C1387 C1389 1.415 . S
C1388 C1387 1.355 . S
C1388 C1390 1.419 . S
C1389 C1384 1.425 . S
C1389 C1386 1.409 . S
C1389 C1387 1.415 . S
C1390 H1380 0.930 . S
C1390 C1388 1.419 . S
C1390 C1391 1.362 . S
C1391 H1381 0.930 . S
C1391 C1384 1.409 . S
C1391 C1390 1.362 . S
H1392 C1398 0.930 . S
H1393 C1401 0.930 . S
H1394 C1402 0.930 . S
H1395 C1403 0.930 . S
H1396 C1406 0.930 . S
H1397 C1407 0.930 . S
C1398 H1392 0.930 . S
C1398 C1399 1.355 . S
C1398 C1400 1.415 . S
C1399 C1398 1.355 . S
C1399 C1401 1.419 . S
C1400 C1398 1.415 . S
C1400 C1405 1.425 . S
C1400 C1407 1.409 . S
C1401 H1393 0.930 . S
C1401 C1399 1.419 . S
C1401 C1402 1.362 . S
C1402 H1394 0.930 . S
C1402 C1401 1.362 . S
C1402 C1405 1.409 . S
C1403 H1395 0.930 . S
C1403 C1404 1.355 . S
C1403 C1405 1.415 . S
C1404 C1403 1.355 . S
C1404 C1406 1.419 . S
C1405 C1400 1.425 . S
C1405 C1402 1.409 . S
C1405 C1403 1.415 . S
C1406 H1396 0.930 . S
C1406 C1404 1.419 . S
C1406 C1407 1.362 . S
C1407 H1397 0.930 . S
C1407 C1400 1.409 . S
C1407 C1406 1.362 . S
H1408 C1414 0.930 . S
H1409 C1417 0.930 . S
H1410 C1418 0.930 . S
H1411 C1419 0.930 . S
H1412 C1422 0.930 . S
H1413 C1423 0.930 . S
C1414 H1408 0.930 . S
C1414 C1415 1.355 . S
C1414 C1416 1.415 . S
C1415 C1414 1.355 . S
C1415 C1417 1.419 . S
C1416 C1414 1.415 . S
C1416 C1421 1.425 . S
C1416 C1423 1.409 . S
C1417 H1409 0.930 . S
C1417 C1415 1.419 . S
C1417 C1418 1.362 . S
C1418 H1410 0.930 . S
C1418 C1417 1.362 . S
C1418 C1421 1.409 . S
C1419 H1411 0.930 . S
C1419 C1420 1.355 . S
C1419 C1421 1.415 . S
C1420 C1419 1.355 . S
C1420 C1422 1.419 . S
C1421 C1416 1.425 . S
C1421 C1418 1.409 . S
C1421 C1419 1.415 . S
C1422 H1412 0.930 . S
C1422 C1420 1.419 . S
C1422 C1423 1.362 . S
C1423 H1413 0.930 . S
C1423 C1416 1.409 . S
C1423 C1422 1.362 . S
H1424 C1430 0.930 . S
H1425 C1433 0.930 . S
H1426 C1434 0.930 . S
H1427 C1435 0.930 . S
H1428 C1438 0.930 . S
H1429 C1439 0.930 . S
C1430 H1424 0.930 . S
C1430 C1431 1.355 . S
C1430 C1432 1.415 . S
C1431 C1430 1.355 . S
C1431 C1433 1.419 . S
C1432 C1430 1.415 . S
C1432 C1437 1.425 . S
C1432 C1439 1.409 . S
C1433 H1425 0.930 . S
C1433 C1431 1.419 . S
C1433 C1434 1.362 . S
C1434 H1426 0.930 . S
C1434 C1433 1.362 . S
C1434 C1437 1.409 . S
C1435 H1427 0.930 . S
C1435 C1436 1.355 . S
C1435 C1437 1.415 . S
C1436 C1435 1.355 . S
C1436 C1438 1.419 . S
C1437 C1432 1.425 . S
C1437 C1434 1.409 . S
C1437 C1435 1.415 . S
C1438 H1428 0.930 . S
C1438 C1436 1.419 . S
C1438 C1439 1.362 . S
C1439 H1429 0.930 . S
C1439 C1432 1.409 . S
C1439 C1438 1.362 . S
H1440 C1446 0.930 . S
H1441 C1449 0.930 . S
H1442 C1450 0.930 . S
H1443 C1451 0.930 . S
H1444 C1454 0.930 . S
H1445 C1455 0.930 . S
C1446 H1440 0.930 . S
C1446 C1447 1.355 . S
C1446 C1448 1.415 . S
C1447 C1446 1.355 . S
C1447 C1449 1.419 . S
C1448 C1446 1.415 . S
C1448 C1453 1.425 . S
C1448 C1455 1.409 . S
C1449 H1441 0.930 . S
C1449 C1447 1.419 . S
C1449 C1450 1.362 . S
C1450 H1442 0.930 . S
C1450 C1449 1.362 . S
C1450 C1453 1.409 . S
C1451 H1443 0.930 . S
C1451 C1452 1.355 . S
C1451 C1453 1.415 . S
C1452 C1451 1.355 . S
C1452 C1454 1.419 . S
C1453 C1448 1.425 . S
C1453 C1450 1.409 . S
C1453 C1451 1.415 . S
C1454 H1444 0.930 . S
C1454 C1452 1.419 . S
C1454 C1455 1.362 . S
C1455 H1445 0.930 . S
C1455 C1448 1.409 . S
C1455 C1454 1.362 . S
H1456 C1462 0.930 . S
H1457 C1465 0.930 . S
H1458 C1466 0.930 . S
H1459 C1467 0.930 . S
H1460 C1470 0.930 . S
H1461 C1471 0.930 . S
C1462 H1456 0.930 . S
C1462 C1463 1.355 . S
C1462 C1464 1.415 . S
C1463 C1462 1.355 . S
C1463 C1465 1.419 . S
C1464 C1462 1.415 . S
C1464 C1469 1.425 . S
C1464 C1471 1.409 1_455 S
C1465 H1457 0.930 . S
C1465 C1463 1.419 . S
C1465 C1466 1.362 . S
C1466 H1458 0.930 . S
C1466 C1465 1.362 . S
C1466 C1469 1.409 . S
C1467 H1459 0.930 . S
C1467 C1468 1.355 1_455 S
C1467 C1469 1.415 . S
C1468 C1467 1.355 1_655 S
C1468 C1470 1.419 . S
C1469 C1464 1.425 . S
C1469 C1466 1.409 . S
C1469 C1467 1.415 . S
C1470 H1460 0.930 . S
C1470 C1468 1.419 . S
C1470 C1471 1.362 . S
C1471 H1461 0.930 . S
C1471 C1464 1.409 1_655 S
C1471 C1470 1.362 . S
H1472 C1478 0.930 . S
H1473 C1481 0.930 . S
H1474 C1482 0.930 . S
H1475 C1483 0.930 . S
H1476 C1486 0.930 . S
H1477 C1487 0.930 . S
C1478 H1472 0.930 . S
C1478 C1479 1.355 . S
C1478 C1480 1.415 . S
C1479 C1478 1.355 . S
C1479 C1481 1.419 . S
C1480 C1478 1.415 . S
C1480 C1485 1.425 . S
C1480 C1487 1.409 . S
C1481 H1473 0.930 . S
C1481 C1479 1.419 . S
C1481 C1482 1.362 . S
C1482 H1474 0.930 . S
C1482 C1481 1.362 . S
C1482 C1485 1.409 . S
C1483 H1475 0.930 . S
C1483 C1484 1.355 . S
C1483 C1485 1.415 . S
C1484 C1483 1.355 . S
C1484 C1486 1.419 . S
C1485 C1480 1.425 . S
C1485 C1482 1.409 . S
C1485 C1483 1.415 . S
C1486 H1476 0.930 . S
C1486 C1484 1.419 . S
C1486 C1487 1.362 . S
C1487 H1477 0.930 . S
C1487 C1480 1.409 . S
C1487 C1486 1.362 . S
H1488 C1494 0.930 . S
H1489 C1497 0.930 . S
H1490 C1498 0.930 . S
H1491 C1499 0.930 . S
H1492 C1502 0.930 . S
H1493 C1503 0.930 . S
C1494 H1488 0.930 . S
C1494 C1495 1.355 . S
C1494 C1496 1.415 . S
C1495 C1494 1.355 . S
C1495 C1497 1.419 . S
C1496 C1494 1.415 . S
C1496 C1501 1.425 . S
C1496 C1503 1.409 . S
C1497 H1489 0.930 . S
C1497 C1495 1.419 . S
C1497 C1498 1.362 . S
C1498 H1490 0.930 . S
C1498 C1497 1.362 . S
C1498 C1501 1.409 . S
C1499 H1491 0.930 . S
C1499 C1500 1.355 . S
C1499 C1501 1.415 . S
C1500 C1499 1.355 . S
C1500 C1502 1.419 . S
C1501 C1496 1.425 . S
C1501 C1498 1.409 . S
C1501 C1499 1.415 . S
C1502 H1492 0.930 . S
C1502 C1500 1.419 . S
C1502 C1503 1.362 . S
C1503 H1493 0.930 . S
C1503 C1496 1.409 . S
C1503 C1502 1.362 . S
H1504 C1510 0.930 . S
H1505 C1513 0.930 . S
H1506 C1514 0.930 . S
H1507 C1515 0.930 . S
H1508 C1518 0.930 . S
H1509 C1519 0.930 . S
C1510 H1504 0.930 . S
C1510 C1511 1.355 . S
C1510 C1512 1.415 . S
C1511 C1510 1.355 . S
C1511 C1513 1.419 . S
C1512 C1510 1.415 . S
C1512 C1517 1.425 . S
C1512 C1519 1.409 . S
C1513 H1505 0.930 . S
C1513 C1511 1.419 . S
C1513 C1514 1.362 . S
C1514 H1506 0.930 . S
C1514 C1513 1.362 . S
C1514 C1517 1.409 . S
C1515 H1507 0.930 . S
C1515 C1516 1.355 . S
C1515 C1517 1.415 . S
C1516 C1515 1.355 . S
C1516 C1518 1.419 . S
C1517 C1512 1.425 . S
C1517 C1514 1.409 . S
C1517 C1515 1.415 . S
C1518 H1508 0.930 . S
C1518 C1516 1.419 . S
C1518 C1519 1.362 . S
C1519 H1509 0.930 . S
C1519 C1512 1.409 . S
C1519 C1518 1.362 . S
H1520 C1526 0.930 . S
H1521 C1529 0.930 . S
H1522 C1530 0.930 . S
H1523 C1531 0.930 . S
H1524 C1534 0.930 . S
H1525 C1535 0.930 . S
C1526 H1520 0.930 . S
C1526 C1527 1.355 1_455 S
C1526 C1528 1.415 . S
C1527 C1526 1.355 1_655 S
C1527 C1529 1.419 . S
C1528 C1526 1.415 . S
C1528 C1533 1.425 . S
C1528 C1535 1.409 . S
C1529 H1521 0.930 . S
C1529 C1527 1.419 . S
C1529 C1530 1.362 . S
C1530 H1522 0.930 . S
C1530 C1529 1.362 . S
C1530 C1533 1.409 1_655 S
C1531 H1523 0.930 . S
C1531 C1532 1.355 . S
C1531 C1533 1.415 . S
C1532 C1531 1.355 . S
C1532 C1534 1.419 . S
C1533 C1528 1.425 . S
C1533 C1530 1.409 1_455 S
C1533 C1531 1.415 . S
C1534 H1524 0.930 . S
C1534 C1532 1.419 . S
C1534 C1535 1.362 . S
C1535 H1525 0.930 . S
C1535 C1528 1.409 . S
C1535 C1534 1.362 . S
H1536 C1542 0.930 . S
H1537 C1545 0.930 . S
H1538 C1546 0.930 . S
H1539 C1547 0.930 . S
H1540 C1550 0.930 . S
H1541 C1551 0.930 . S
C1542 H1536 0.930 . S
C1542 C1543 1.355 . S
C1542 C1544 1.415 . S
C1543 C1542 1.355 . S
C1543 C1545 1.419 . S
C1544 C1542 1.415 . S
C1544 C1549 1.425 . S
C1544 C1551 1.409 . S
C1545 H1537 0.930 . S
C1545 C1543 1.419 . S
C1545 C1546 1.362 . S
C1546 H1538 0.930 . S
C1546 C1545 1.362 . S
C1546 C1549 1.409 . S
C1547 H1539 0.930 . S
C1547 C1548 1.355 . S
C1547 C1549 1.415 . S
C1548 C1547 1.355 . S
C1548 C1550 1.419 . S
C1549 C1544 1.425 . S
C1549 C1546 1.409 . S
C1549 C1547 1.415 . S
C1550 H1540 0.930 . S
C1550 C1548 1.419 . S
C1550 C1551 1.362 . S
C1551 H1541 0.930 . S
C1551 C1544 1.409 . S
C1551 C1550 1.362 . S
H1552 C1558 0.930 . S
H1553 C1561 0.930 . S
H1554 C1562 0.930 . S
H1555 C1563 0.930 . S
H1556 C1566 0.930 . S
H1557 C1567 0.930 . S
C1558 H1552 0.930 . S
C1558 C1559 1.355 1_455 S
C1558 C1560 1.415 . S
C1559 C1558 1.355 1_655 S
C1559 C1561 1.419 . S
C1560 C1558 1.415 . S
C1560 C1565 1.425 . S
C1560 C1567 1.409 . S
C1561 H1553 0.930 . S
C1561 C1559 1.419 . S
C1561 C1562 1.362 1_655 S
C1562 H1554 0.930 . S
C1562 C1561 1.362 1_455 S
C1562 C1565 1.409 . S
C1563 H1555 0.930 . S
C1563 C1564 1.355 . S
C1563 C1565 1.415 . S
C1564 C1563 1.355 . S
C1564 C1566 1.419 . S
C1565 C1560 1.425 . S
C1565 C1562 1.409 . S
C1565 C1563 1.415 . S
C1566 H1556 0.930 . S
C1566 C1564 1.419 . S
C1566 C1567 1.362 . S
C1567 H1557 0.930 . S
C1567 C1560 1.409 . S
C1567 C1566 1.362 . S
H1568 C1574 0.930 . S
H1569 C1577 0.930 . S
H1570 C1578 0.930 . S
H1571 C1579 0.930 . S
H1572 C1582 0.930 . S
H1573 C1583 0.930 . S
C1574 H1568 0.930 . S
C1574 C1575 1.355 . S
C1574 C1576 1.415 . S
C1575 C1574 1.355 . S
C1575 C1577 1.419 . S
C1576 C1574 1.415 . S
C1576 C1581 1.425 . S
C1576 C1583 1.409 . S
C1577 H1569 0.930 . S
C1577 C1575 1.419 . S
C1577 C1578 1.362 . S
C1578 H1570 0.930 . S
C1578 C1577 1.362 . S
C1578 C1581 1.409 . S
C1579 H1571 0.930 . S
C1579 C1580 1.355 . S
C1579 C1581 1.415 . S
C1580 C1579 1.355 . S
C1580 C1582 1.419 . S
C1581 C1576 1.425 . S
C1581 C1578 1.409 . S
C1581 C1579 1.415 . S
C1582 H1572 0.930 . S
C1582 C1580 1.419 . S
C1582 C1583 1.362 . S
C1583 H1573 0.930 . S
C1583 C1576 1.409 . S
C1583 C1582 1.362 . S
H1584 C1590 0.930 . S
H1585 C1593 0.930 . S
H1586 C1594 0.930 . S
H1587 C1595 0.930 . S
H1588 C1598 0.930 . S
H1589 C1599 0.930 . S
C1590 H1584 0.930 . S
C1590 C1591 1.355 . S
C1590 C1592 1.415 . S
C1591 C1590 1.355 . S
C1591 C1593 1.419 . S
C1592 C1590 1.415 . S
C1592 C1597 1.425 . S
C1592 C1599 1.409 . S
C1593 H1585 0.930 . S
C1593 C1591 1.419 . S
C1593 C1594 1.362 . S
C1594 H1586 0.930 . S
C1594 C1593 1.362 . S
C1594 C1597 1.409 . S
C1595 H1587 0.930 . S
C1595 C1596 1.355 . S
C1595 C1597 1.415 . S
C1596 C1595 1.355 . S
C1596 C1598 1.419 . S
C1597 C1592 1.425 . S
C1597 C1594 1.409 . S
C1597 C1595 1.415 . S
C1598 H1588 0.930 . S
C1598 C1596 1.419 . S
C1598 C1599 1.362 . S
C1599 H1589 0.930 . S
C1599 C1592 1.409 . S
C1599 C1598 1.362 . S
H1600 C1606 0.930 . S
H1601 C1609 0.930 . S
H1602 C1610 0.930 . S
H1603 C1611 0.930 . S
H1604 C1614 0.930 . S
H1605 C1615 0.930 . S
C1606 H1600 0.930 . S
C1606 C1607 1.355 . S
C1606 C1608 1.415 . S
C1607 C1606 1.355 . S
C1607 C1609 1.419 . S
C1608 C1606 1.415 . S
C1608 C1613 1.425 . S
C1608 C1615 1.409 . S
C1609 H1601 0.930 . S
C1609 C1607 1.419 . S
C1609 C1610 1.362 . S
C1610 H1602 0.930 . S
C1610 C1609 1.362 . S
C1610 C1613 1.409 . S
C1611 H1603 0.930 . S
C1611 C1612 1.355 . S
C1611 C1613 1.415 . S
C1612 C1611 1.355 . S
C1612 C1614 1.419 . S
C1613 C1608 1.425 . S
C1613 C1610 1.409 . S
C1613 C1611 1.415 . S
C1614 H1604 0.930 . S
C1614 C1612 1.419 . S
C1614 C1615 1.362 . S
C1615 H1605 0.930 . S
C1615 C1608 1.409 . S
C1615 C1614 1.362 . S
H1616 C1622 0.930 . S
H1617 C1625 0.930 . S
H1618 C1626 0.930 . S
H1619 C1627 0.930 . S
H1620 C1630 0.930 . S
H1621 C1631 0.930 . S
C1622 H1616 0.930 . S
C1622 C1623 1.355 . S
C1622 C1624 1.415 . S
C1623 C1622 1.355 . S
C1623 C1625 1.419 . S
C1624 C1622 1.415 . S
C1624 C1629 1.425 . S
C1624 C1631 1.409 . S
C1625 H1617 0.930 . S
C1625 C1623 1.419 . S
C1625 C1626 1.362 . S
C1626 H1618 0.930 . S
C1626 C1625 1.362 . S
C1626 C1629 1.409 . S
C1627 H1619 0.930 . S
C1627 C1628 1.355 . S
C1627 C1629 1.415 . S
C1628 C1627 1.355 . S
C1628 C1630 1.419 . S
C1629 C1624 1.425 . S
C1629 C1626 1.409 . S
C1629 C1627 1.415 . S
C1630 H1620 0.930 . S
C1630 C1628 1.419 . S
C1630 C1631 1.362 . S
C1631 H1621 0.930 . S
C1631 C1624 1.409 . S
C1631 C1630 1.362 . S
H1632 C1638 0.930 . S
H1633 C1641 0.930 . S
H1634 C1642 0.930 . S
H1635 C1643 0.930 . S
H1636 C1646 0.930 . S
H1637 C1647 0.930 . S
C1638 H1632 0.930 . S
C1638 C1639 1.355 . S
C1638 C1640 1.415 . S
C1639 C1638 1.355 . S
C1639 C1641 1.419 . S
C1640 C1638 1.415 . S
C1640 C1645 1.425 . S
C1640 C1647 1.409 . S
C1641 H1633 0.930 . S
C1641 C1639 1.419 . S
C1641 C1642 1.362 . S
C1642 H1634 0.930 . S
C1642 C1641 1.362 . S
C1642 C1645 1.409 . S
C1643 H1635 0.930 . S
C1643 C1644 1.355 . S
C1643 C1645 1.415 . S
C1644 C1643 1.355 . S
C1644 C1646 1.419 . S
C1645 C1640 1.425 . S
C1645 C1642 1.409 . S
C1645 C1643 1.415 . S
C1646 H1636 0.930 . S
C1646 C1644 1.419 . S
C1646 C1647 1.362 . S
C1647 H1637 0.930 . S
C1647 C1640 1.409 . S
C1647 C1646 1.362 . S
H1648 C1654 0.930 . S
H1649 C1657 0.930 . S
H1650 C1658 0.930 1_455 S
H1651 C1659 0.930 . S
H1652 C1662 0.930 . S
H1653 C1663 0.930 . S
C1654 H1648 0.930 . S
C1654 C1655 1.355 . S
C1654 C1656 1.415 . S
C1655 C1654 1.355 . S
C1655 C1657 1.419 . S
C1656 C1654 1.415 . S
C1656 C1661 1.425 . S
C1656 C1663 1.409 . S
C1657 H1649 0.930 . S
C1657 C1655 1.419 . S
C1657 C1658 1.362 . S
C1658 H1650 0.930 1_655 S
C1658 C1657 1.362 . S
C1658 C1661 1.409 . S
C1659 H1651 0.930 . S
C1659 C1660 1.355 . S
C1659 C1661 1.415 1_455 S
C1660 C1659 1.355 . S
C1660 C1662 1.419 1_455 S
C1661 C1656 1.425 . S
C1661 C1658 1.409 . S
C1661 C1659 1.415 1_655 S
C1662 H1652 0.930 . S
C1662 C1660 1.419 1_655 S
C1662 C1663 1.362 . S
C1663 H1653 0.930 . S
C1663 C1656 1.409 . S
C1663 C1662 1.362 . S
H1664 C1670 0.930 . S
H1665 C1673 0.930 . S
H1666 C1674 0.930 . S
H1667 C1675 0.930 . S
H1668 C1678 0.930 . S
H1669 C1679 0.930 . S
C1670 H1664 0.930 . S
C1670 C1671 1.355 . S
C1670 C1672 1.415 . S
C1671 C1670 1.355 . S
C1671 C1673 1.419 . S
C1672 C1670 1.415 . S
C1672 C1677 1.425 . S
C1672 C1679 1.409 . S
C1673 H1665 0.930 . S
C1673 C1671 1.419 . S
C1673 C1674 1.362 . S
C1674 H1666 0.930 . S
C1674 C1673 1.362 . S
C1674 C1677 1.409 . S
C1675 H1667 0.930 . S
C1675 C1676 1.355 . S
C1675 C1677 1.415 . S
C1676 C1675 1.355 . S
C1676 C1678 1.419 . S
C1677 C1672 1.425 . S
C1677 C1674 1.409 . S
C1677 C1675 1.415 . S
C1678 H1668 0.930 . S
C1678 C1676 1.419 . S
C1678 C1679 1.362 . S
C1679 H1669 0.930 . S
C1679 C1672 1.409 . S
C1679 C1678 1.362 . S
H1680 C1686 0.930 . S
H1681 C1689 0.930 . S
H1682 C1690 0.930 . S
H1683 C1691 0.930 . S
H1684 C1694 0.930 1_455 S
H1685 C1695 0.930 . S
C1686 H1680 0.930 . S
C1686 C1687 1.355 . S
C1686 C1688 1.415 . S
C1687 C1686 1.355 . S
C1687 C1689 1.419 . S
C1688 C1686 1.415 . S
C1688 C1693 1.425 . S
C1688 C1695 1.409 . S
C1689 H1681 0.930 . S
C1689 C1687 1.419 . S
C1689 C1690 1.362 . S
C1690 H1682 0.930 . S
C1690 C1689 1.362 . S
C1690 C1693 1.409 . S
C1691 H1683 0.930 . S
C1691 C1692 1.355 . S
C1691 C1693 1.415 1_455 S
C1692 C1691 1.355 . S
C1692 C1694 1.419 1_455 S
C1693 C1688 1.425 . S
C1693 C1690 1.409 . S
C1693 C1691 1.415 1_655 S
C1694 H1684 0.930 1_655 S
C1694 C1692 1.419 1_655 S
C1694 C1695 1.362 . S
C1695 H1685 0.930 . S
C1695 C1688 1.409 . S
C1695 C1694 1.362 . S
H1696 C1702 0.930 . S
H1697 C1705 0.930 . S
H1698 C1706 0.930 . S
H1699 C1707 0.930 . S
H1700 C1710 0.930 . S
H1701 C1711 0.930 . S
C1702 H1696 0.930 . S
C1702 C1703 1.355 . S
C1702 C1704 1.415 . S
C1703 C1702 1.355 . S
C1703 C1705 1.419 . S
C1704 C1702 1.415 . S
C1704 C1709 1.425 . S
C1704 C1711 1.409 . S
C1705 H1697 0.930 . S
C1705 C1703 1.419 . S
C1705 C1706 1.362 . S
C1706 H1698 0.930 . S
C1706 C1705 1.362 . S
C1706 C1709 1.409 . S
C1707 H1699 0.930 . S
C1707 C1708 1.355 . S
C1707 C1709 1.415 . S
C1708 C1707 1.355 . S
C1708 C1710 1.419 . S
C1709 C1704 1.425 . S
C1709 C1706 1.409 . S
C1709 C1707 1.415 . S
C1710 H1700 0.930 . S
C1710 C1708 1.419 . S
C1710 C1711 1.362 . S
C1711 H1701 0.930 . S
C1711 C1704 1.409 . S
C1711 C1710 1.362 . S
H1712 C1718 0.930 . S
H1713 C1721 0.930 . S
H1714 C1722 0.930 . S
H1715 C1723 0.930 . S
H1716 C1726 0.930 . S
H1717 C1727 0.930 . S
C1718 H1712 0.930 . S
C1718 C1719 1.355 . S
C1718 C1720 1.415 . S
C1719 C1718 1.355 . S
C1719 C1721 1.419 . S
C1720 C1718 1.415 . S
C1720 C1725 1.425 . S
C1720 C1727 1.409 . S
C1721 H1713 0.930 . S
C1721 C1719 1.419 . S
C1721 C1722 1.362 . S
C1722 H1714 0.930 . S
C1722 C1721 1.362 . S
C1722 C1725 1.409 . S
C1723 H1715 0.930 . S
C1723 C1724 1.355 . S
C1723 C1725 1.415 . S
C1724 C1723 1.355 . S
C1724 C1726 1.419 . S
C1725 C1720 1.425 . S
C1725 C1722 1.409 . S
C1725 C1723 1.415 . S
C1726 H1716 0.930 . S
C1726 C1724 1.419 . S
C1726 C1727 1.362 . S
C1727 H1717 0.930 . S
C1727 C1720 1.409 . S
C1727 C1726 1.362 . S
H1728 C1734 0.930 . S
H1729 C1737 0.930 . S
H1730 C1738 0.930 . S
H1731 C1739 0.930 . S
H1732 C1742 0.930 . S
H1733 C1743 0.930 . S
C1734 H1728 0.930 . S
C1734 C1735 1.355 . S
C1734 C1736 1.415 . S
C1735 C1734 1.355 . S
C1735 C1737 1.419 . S
C1736 C1734 1.415 . S
C1736 C1741 1.425 1_455 S
C1736 C1743 1.409 . S
C1737 H1729 0.930 . S
C1737 C1735 1.419 . S
C1737 C1738 1.362 1_455 S
C1738 H1730 0.930 . S
C1738 C1737 1.362 1_655 S
C1738 C1741 1.409 . S
C1739 H1731 0.930 . S
C1739 C1740 1.355 . S
C1739 C1741 1.415 . S
C1740 C1739 1.355 . S
C1740 C1742 1.419 . S
C1741 C1736 1.425 1_655 S
C1741 C1738 1.409 . S
C1741 C1739 1.415 . S
C1742 H1732 0.930 . S
C1742 C1740 1.419 . S
C1742 C1743 1.362 1_655 S
C1743 H1733 0.930 . S
C1743 C1736 1.409 . S
C1743 C1742 1.362 1_455 S
H1744 C1750 0.930 . S
H1745 C1753 0.930 . S
H1746 C1754 0.930 . S
H1747 C1755 0.930 . S
H1748 C1758 0.930 . S
H1749 C1759 0.930 . S
C1750 H1744 0.930 . S
C1750 C1751 1.355 . S
C1750 C1752 1.415 . S
C1751 C1750 1.355 . S
C1751 C1753 1.419 . S
C1752 C1750 1.415 . S
C1752 C1757 1.425 1_455 S
C1752 C1759 1.409 . S
C1753 H1745 0.930 . S
C1753 C1751 1.419 . S
C1753 C1754 1.362 1_455 S
C1754 H1746 0.930 . S
C1754 C1753 1.362 1_655 S
C1754 C1757 1.409 . S
C1755 H1747 0.930 . S
C1755 C1756 1.355 . S
C1755 C1757 1.415 . S
C1756 C1755 1.355 . S
C1756 C1758 1.419 . S
C1757 C1752 1.425 1_655 S
C1757 C1754 1.409 . S
C1757 C1755 1.415 . S
C1758 H1748 0.930 . S
C1758 C1756 1.419 . S
C1758 C1759 1.362 1_655 S
C1759 H1749 0.930 . S
C1759 C1752 1.409 . S
C1759 C1758 1.362 1_455 S
H1760 C1766 0.930 . S
H1761 C1769 0.930 . S
H1762 C1770 0.930 . S
H1763 C1771 0.930 . S
H1764 C1774 0.930 . S
H1765 C1775 0.930 . S
C1766 H1760 0.930 . S
C1766 C1767 1.355 . S
C1766 C1768 1.415 . S
C1767 C1766 1.355 . S
C1767 C1769 1.419 . S
C1768 C1766 1.415 . S
C1768 C1773 1.425 . S
C1768 C1775 1.409 . S
C1769 H1761 0.930 . S
C1769 C1767 1.419 . S
C1769 C1770 1.362 . S
C1770 H1762 0.930 . S
C1770 C1769 1.362 . S
C1770 C1773 1.409 . S
C1771 H1763 0.930 . S
C1771 C1772 1.355 . S
C1771 C1773 1.415 . S
C1772 C1771 1.355 . S
C1772 C1774 1.419 . S
C1773 C1768 1.425 . S
C1773 C1770 1.409 . S
C1773 C1771 1.415 . S
C1774 H1764 0.930 . S
C1774 C1772 1.419 . S
C1774 C1775 1.362 . S
C1775 H1765 0.930 . S
C1775 C1768 1.409 . S
C1775 C1774 1.362 . S
H1776 C1782 0.930 . S
H1777 C1785 0.930 . S
H1778 C1786 0.930 . S
H1779 C1787 0.930 . S
H1780 C1790 0.930 . S
H1781 C1791 0.930 . S
C1782 H1776 0.930 . S
C1782 C1783 1.355 . S
C1782 C1784 1.415 . S
C1783 C1782 1.355 . S
C1783 C1785 1.419 . S
C1784 C1782 1.415 . S
C1784 C1789 1.425 . S
C1784 C1791 1.409 . S
C1785 H1777 0.930 . S
C1785 C1783 1.419 . S
C1785 C1786 1.362 . S
C1786 H1778 0.930 . S
C1786 C1785 1.362 . S
C1786 C1789 1.409 . S
C1787 H1779 0.930 . S
C1787 C1788 1.355 . S
C1787 C1789 1.415 . S
C1788 C1787 1.355 . S
C1788 C1790 1.419 . S
C1789 C1784 1.425 . S
C1789 C1786 1.409 . S
C1789 C1787 1.415 . S
C1790 H1780 0.930 . S
C1790 C1788 1.419 . S
C1790 C1791 1.362 . S
C1791 H1781 0.930 . S
C1791 C1784 1.409 . S
C1791 C1790 1.362 . S
H1792 C1798 0.930 . S
H1793 C1801 0.930 . S
H1794 C1802 0.930 . S
H1795 C1803 0.930 . S
H1796 C1806 0.930 . S
H1797 C1807 0.930 . S
C1798 H1792 0.930 . S
C1798 C1799 1.355 . S
C1798 C1800 1.415 1_655 S
C1799 C1798 1.355 . S
C1799 C1801 1.419 . S
C1800 C1798 1.415 1_455 S
C1800 C1805 1.425 1_455 S
C1800 C1807 1.409 . S
C1801 H1793 0.930 . S
C1801 C1799 1.419 . S
C1801 C1802 1.362 . S
C1802 H1794 0.930 . S
C1802 C1801 1.362 . S
C1802 C1805 1.409 . S
C1803 H1795 0.930 . S
C1803 C1804 1.355 . S
C1803 C1805 1.415 1_455 S
C1804 C1803 1.355 . S
C1804 C1806 1.419 . S
C1805 C1800 1.425 1_655 S
C1805 C1802 1.409 . S
C1805 C1803 1.415 1_655 S
C1806 H1796 0.930 . S
C1806 C1804 1.419 . S
C1806 C1807 1.362 . S
C1807 H1797 0.930 . S
C1807 C1800 1.409 . S
C1807 C1806 1.362 . S
H1808 C1814 0.930 . S
H1809 C1817 0.930 . S
H1810 C1818 0.930 . S
H1811 C1819 0.930 . S
H1812 C1822 0.930 . S
H1813 C1823 0.930 . S
C1814 H1808 0.930 . S
C1814 C1815 1.355 . S
C1814 C1816 1.415 . S
C1815 C1814 1.355 . S
C1815 C1817 1.419 . S
C1816 C1814 1.415 . S
C1816 C1821 1.425 . S
C1816 C1823 1.409 . S
C1817 H1809 0.930 . S
C1817 C1815 1.419 . S
C1817 C1818 1.362 . S
C1818 H1810 0.930 . S
C1818 C1817 1.362 . S
C1818 C1821 1.409 . S
C1819 H1811 0.930 . S
C1819 C1820 1.355 . S
C1819 C1821 1.415 . S
C1820 C1819 1.355 . S
C1820 C1822 1.419 . S
C1821 C1816 1.425 . S
C1821 C1818 1.409 . S
C1821 C1819 1.415 . S
C1822 H1812 0.930 . S
C1822 C1820 1.419 . S
C1822 C1823 1.362 . S
C1823 H1813 0.930 . S
C1823 C1816 1.409 . S
C1823 C1822 1.362 . S
H1824 C1830 0.930 . S
H1825 C1833 0.930 . S
H1826 C1834 0.930 . S
H1827 C1835 0.930 . S
H1828 C1838 0.930 . S
H1829 C1839 0.930 . S
C1830 H1824 0.930 . S
C1830 C1831 1.355 . S
C1830 C1832 1.415 . S
C1831 C1830 1.355 . S
C1831 C1833 1.419 . S
C1832 C1830 1.415 . S
C1832 C1837 1.425 . S
C1832 C1839 1.409 . S
C1833 H1825 0.930 . S
C1833 C1831 1.419 . S
C1833 C1834 1.362 . S
C1834 H1826 0.930 . S
C1834 C1833 1.362 . S
C1834 C1837 1.409 . S
C1835 H1827 0.930 . S
C1835 C1836 1.355 . S
C1835 C1837 1.415 . S
C1836 C1835 1.355 . S
C1836 C1838 1.419 . S
C1837 C1832 1.425 . S
C1837 C1834 1.409 . S
C1837 C1835 1.415 . S
C1838 H1828 0.930 . S
C1838 C1836 1.419 . S
C1838 C1839 1.362 . S
C1839 H1829 0.930 . S
C1839 C1832 1.409 . S
C1839 C1838 1.362 . S
H1840 C1846 0.930 . S
H1841 C1849 0.930 1_455 S
H1842 C1850 0.930 . S
H1843 C1851 0.930 . S
H1844 C1854 0.930 1_655 S
H1845 C1855 0.930 . S
C1846 H1840 0.930 . S
C1846 C1847 1.355 . S
C1846 C1848 1.415 . S
C1847 C1846 1.355 . S
C1847 C1849 1.419 . S
C1848 C1846 1.415 . S
C1848 C1853 1.425 1_655 S
C1848 C1855 1.409 . S
C1849 H1841 0.930 1_655 S
C1849 C1847 1.419 . S
C1849 C1850 1.362 1_655 S
C1850 H1842 0.930 . S
C1850 C1849 1.362 1_455 S
C1850 C1853 1.409 . S
C1851 H1843 0.930 . S
C1851 C1852 1.355 . S
C1851 C1853 1.415 . S
C1852 C1851 1.355 . S
C1852 C1854 1.419 . S
C1853 C1848 1.425 1_455 S
C1853 C1850 1.409 . S
C1853 C1851 1.415 . S
C1854 H1844 0.930 1_455 S
C1854 C1852 1.419 . S
C1854 C1855 1.362 1_455 S
C1855 H1845 0.930 . S
C1855 C1848 1.409 . S
C1855 C1854 1.362 1_655 S
H1856 C1862 0.930 . S
H1857 C1865 0.930 . S
H1858 C1866 0.930 . S
H1859 C1867 0.930 . S
H1860 C1870 0.930 . S
H1861 C1871 0.930 . S
C1862 H1856 0.930 . S
C1862 C1863 1.355 . S
C1862 C1864 1.415 . S
C1863 C1862 1.355 . S
C1863 C1865 1.419 . S
C1864 C1862 1.415 . S
C1864 C1869 1.425 1_455 S
C1864 C1871 1.409 . S
C1865 H1857 0.930 . S
C1865 C1863 1.419 . S
C1865 C1866 1.362 1_455 S
C1866 H1858 0.930 . S
C1866 C1865 1.362 1_655 S
C1866 C1869 1.409 . S
C1867 H1859 0.930 . S
C1867 C1868 1.355 . S
C1867 C1869 1.415 . S
C1868 C1867 1.355 . S
C1868 C1870 1.419 . S
C1869 C1864 1.425 1_655 S
C1869 C1866 1.409 . S
C1869 C1867 1.415 . S
C1870 H1860 0.930 . S
C1870 C1868 1.419 . S
C1870 C1871 1.362 1_655 S
C1871 H1861 0.930 . S
C1871 C1864 1.409 . S
C1871 C1870 1.362 1_455 S
H1872 C1878 0.928 . S
H1873 C1881 0.930 . S
H1874 C1882 0.930 . S
H1875 C1883 0.928 . S
H1876 C1886 0.930 . S
H1877 C1887 0.930 . S
C1878 H1872 0.928 . S
C1878 C1879 1.355 . S
C1878 C1880 1.415 1_455 S
C1879 C1878 1.355 . S
C1879 C1881 1.419 . S
C1880 C1878 1.415 1_655 S
C1880 C1885 1.425 1_655 S
C1880 C1887 1.409 . S
C1881 H1873 0.930 . S
C1881 C1879 1.419 . S
C1881 C1882 1.362 . S
C1882 H1874 0.930 . S
C1882 C1881 1.362 . S
C1882 C1885 1.409 . S
C1883 H1875 0.928 . S
C1883 C1884 1.355 . S
C1883 C1885 1.415 1_655 S
C1884 C1883 1.355 . S
C1884 C1886 1.419 . S
C1885 C1880 1.425 1_455 S
C1885 C1882 1.409 . S
C1885 C1883 1.415 1_455 S
C1886 H1876 0.930 . S
C1886 C1884 1.419 . S
C1886 C1887 1.362 . S
C1887 H1877 0.930 . S
C1887 C1880 1.409 . S
C1887 C1886 1.362 . S
H1888 C1894 0.930 . S
H1889 C1897 0.930 . S
H1890 C1898 0.930 . S
H1891 C1899 0.930 . S
H1892 C1902 0.930 . S
H1893 C1903 0.930 . S
C1894 H1888 0.930 . S
C1894 C1895 1.355 . S
C1894 C1896 1.415 . S
C1895 C1894 1.355 . S
C1895 C1897 1.419 . S
C1896 C1894 1.415 . S
C1896 C1901 1.425 . S
C1896 C1903 1.409 . S
C1897 H1889 0.930 . S
C1897 C1895 1.419 . S
C1897 C1898 1.362 . S
C1898 H1890 0.930 . S
C1898 C1897 1.362 . S
C1898 C1901 1.409 . S
C1899 H1891 0.930 . S
C1899 C1900 1.355 . S
C1899 C1901 1.415 . S
C1900 C1899 1.355 . S
C1900 C1902 1.419 . S
C1901 C1896 1.425 . S
C1901 C1898 1.409 . S
C1901 C1899 1.415 . S
C1902 H1892 0.930 . S
C1902 C1900 1.419 . S
C1902 C1903 1.362 . S
C1903 H1893 0.930 . S
C1903 C1896 1.409 . S
C1903 C1902 1.362 . S
H1904 C1910 0.930 . S
H1905 C1913 0.930 . S
H1906 C1914 0.930 . S
H1907 C1915 0.930 . S
H1908 C1918 0.930 . S
H1909 C1919 0.930 . S
C1910 H1904 0.930 . S
C1910 C1911 1.355 . S
C1910 C1912 1.415 . S
C1911 C1910 1.355 . S
C1911 C1913 1.419 . S
C1912 C1910 1.415 . S
C1912 C1917 1.425 . S
C1912 C1919 1.409 . S
C1913 H1905 0.930 . S
C1913 C1911 1.419 . S
C1913 C1914 1.362 . S
C1914 H1906 0.930 . S
C1914 C1913 1.362 . S
C1914 C1917 1.409 . S
C1915 H1907 0.930 . S
C1915 C1916 1.355 . S
C1915 C1917 1.415 . S
C1916 C1915 1.355 . S
C1916 C1918 1.419 . S
C1917 C1912 1.425 . S
C1917 C1914 1.409 . S
C1917 C1915 1.415 . S
C1918 H1908 0.930 . S
C1918 C1916 1.419 . S
C1918 C1919 1.362 . S
C1919 H1909 0.930 . S
C1919 C1912 1.409 . S
C1919 C1918 1.362 . S
H1920 C1926 0.930 . S
H1921 C1929 0.930 . S
H1922 C1930 0.930 . S
H1923 C1931 0.930 . S
H1924 C1934 0.930 . S
H1925 C1935 0.930 . S
C1926 H1920 0.930 . S
C1926 C1927 1.355 . S
C1926 C1928 1.415 . S
C1927 C1926 1.355 . S
C1927 C1929 1.419 . S
C1928 C1926 1.415 . S
C1928 C1933 1.425 1_655 S
C1928 C1935 1.409 . S
C1929 H1921 0.930 . S
C1929 C1927 1.419 . S
C1929 C1930 1.362 1_655 S
C1930 H1922 0.930 . S
C1930 C1929 1.362 1_455 S
C1930 C1933 1.409 . S
C1931 H1923 0.930 . S
C1931 C1932 1.355 . S
C1931 C1933 1.415 . S
C1932 C1931 1.355 . S
C1932 C1934 1.419 . S
C1933 C1928 1.425 1_455 S
C1933 C1930 1.409 . S
C1933 C1931 1.415 . S
C1934 H1924 0.930 . S
C1934 C1932 1.419 . S
C1934 C1935 1.362 1_455 S
C1935 H1925 0.930 . S
C1935 C1928 1.409 . S
C1935 C1934 1.362 1_655 S
H1936 C1942 0.930 . S
H1937 C1945 0.930 . S
H1938 C1946 0.930 . S
H1939 C1947 0.930 . S
H1940 C1950 0.930 . S
H1941 C1951 0.930 . S
C1942 H1936 0.930 . S
C1942 C1943 1.355 . S
C1942 C1944 1.415 . S
C1943 C1942 1.355 . S
C1943 C1945 1.419 . S
C1944 C1942 1.415 . S
C1944 C1949 1.425 . S
C1944 C1951 1.409 . S
C1945 H1937 0.930 . S
C1945 C1943 1.419 . S
C1945 C1946 1.362 . S
C1946 H1938 0.930 . S
C1946 C1945 1.362 . S
C1946 C1949 1.409 . S
C1947 H1939 0.930 . S
C1947 C1948 1.355 . S
C1947 C1949 1.415 . S
C1948 C1947 1.355 . S
C1948 C1950 1.419 . S
C1949 C1944 1.425 . S
C1949 C1946 1.409 . S
C1949 C1947 1.415 . S
C1950 H1940 0.930 . S
C1950 C1948 1.419 . S
C1950 C1951 1.362 . S
C1951 H1941 0.930 . S
C1951 C1944 1.409 . S
C1951 C1950 1.362 . S
H1952 C1958 0.930 . S
H1953 C1961 0.930 . S
H1954 C1962 0.930 . S
H1955 C1963 0.930 . S
H1956 C1966 0.930 . S
H1957 C1967 0.930 . S
C1958 H1952 0.930 . S
C1958 C1959 1.355 . S
C1958 C1960 1.415 . S
C1959 C1958 1.355 . S
C1959 C1961 1.419 . S
C1960 C1958 1.415 . S
C1960 C1965 1.425 . S
C1960 C1967 1.409 . S
C1961 H1953 0.930 . S
C1961 C1959 1.419 . S
C1961 C1962 1.362 . S
C1962 H1954 0.930 . S
C1962 C1961 1.362 . S
C1962 C1965 1.409 . S
C1963 H1955 0.930 . S
C1963 C1964 1.355 . S
C1963 C1965 1.415 . S
C1964 C1963 1.355 . S
C1964 C1966 1.419 . S
C1965 C1960 1.425 . S
C1965 C1962 1.409 . S
C1965 C1963 1.415 . S
C1966 H1956 0.930 . S
C1966 C1964 1.419 . S
C1966 C1967 1.362 . S
C1967 H1957 0.930 . S
C1967 C1960 1.409 . S
C1967 C1966 1.362 . S
H1968 C1974 0.930 . S
H1969 C1977 0.930 1_455 S
H1970 C1978 0.930 . S
H1971 C1979 0.930 . S
H1972 C1982 0.930 1_655 S
H1973 C1983 0.930 . S
C1974 H1968 0.930 . S
C1974 C1975 1.355 . S
C1974 C1976 1.415 . S
C1975 C1974 1.355 . S
C1975 C1977 1.419 . S
C1976 C1974 1.415 . S
C1976 C1981 1.425 1_655 S
C1976 C1983 1.409 . S
C1977 H1969 0.930 1_655 S
C1977 C1975 1.419 . S
C1977 C1978 1.362 1_655 S
C1978 H1970 0.930 . S
C1978 C1977 1.362 1_455 S
C1978 C1981 1.409 . S
C1979 H1971 0.930 . S
C1979 C1980 1.355 . S
C1979 C1981 1.415 . S
C1980 C1979 1.355 . S
C1980 C1982 1.419 . S
C1981 C1976 1.425 1_455 S
C1981 C1978 1.409 . S
C1981 C1979 1.415 . S
C1982 H1972 0.930 1_455 S
C1982 C1980 1.419 . S
C1982 C1983 1.362 1_455 S
C1983 H1973 0.930 . S
C1983 C1976 1.409 . S
C1983 C1982 1.362 1_655 S
H1984 C1990 0.930 . S
H1985 C1993 0.930 . S
H1986 C1994 0.930 . S
H1987 C1995 0.930 . S
H1988 C1998 0.930 . S
H1989 C1999 0.930 . S
C1990 H1984 0.930 . S
C1990 C1991 1.355 . S
C1990 C1992 1.415 . S
C1991 C1990 1.355 . S
C1991 C1993 1.419 . S
C1992 C1990 1.415 . S
C1992 C1997 1.425 . S
C1992 C1999 1.409 . S
C1993 H1985 0.930 . S
C1993 C1991 1.419 . S
C1993 C1994 1.362 . S
C1994 H1986 0.930 . S
C1994 C1993 1.362 . S
C1994 C1997 1.409 . S
C1995 H1987 0.930 . S
C1995 C1996 1.355 . S
C1995 C1997 1.415 . S
C1996 C1995 1.355 . S
C1996 C1998 1.419 . S
C1997 C1992 1.425 . S
C1997 C1994 1.409 . S
C1997 C1995 1.415 . S
C1998 H1988 0.930 . S
C1998 C1996 1.419 . S
C1998 C1999 1.362 . S
C1999 H1989 0.930 . S
C1999 C1992 1.409 . S
C1999 C1998 1.362 . S
H2000 C2006 0.930 . S
H2001 C2009 0.930 . S
H2002 C2010 0.930 . S
H2003 C2011 0.930 . S
H2004 C2014 0.930 . S
H2005 C2015 0.930 . S
C2006 H2000 0.930 . S
C2006 C2007 1.355 . S
C2006 C2008 1.415 . S
C2007 C2006 1.355 . S
C2007 C2009 1.419 . S
C2008 C2006 1.415 . S
C2008 C2013 1.425 . S
C2008 C2015 1.409 . S
C2009 H2001 0.930 . S
C2009 C2007 1.419 . S
C2009 C2010 1.362 . S
C2010 H2002 0.930 . S
C2010 C2009 1.362 . S
C2010 C2013 1.409 . S
C2011 H2003 0.930 . S
C2011 C2012 1.355 . S
C2011 C2013 1.415 . S
C2012 C2011 1.355 . S
C2012 C2014 1.419 . S
C2013 C2008 1.425 . S
C2013 C2010 1.409 . S
C2013 C2011 1.415 . S
C2014 H2004 0.930 . S
C2014 C2012 1.419 . S
C2014 C2015 1.362 . S
C2015 H2005 0.930 . S
C2015 C2008 1.409 . S
C2015 C2014 1.362 . S
H2016 C2022 0.930 . S
H2017 C2025 0.930 . S
H2018 C2026 0.930 . S
H2019 C2027 0.930 . S
H2020 C2030 0.930 . S
H2021 C2031 0.930 . S
C2022 H2016 0.930 . S
C2022 C2023 1.355 . S
C2022 C2024 1.415 . S
C2023 C2022 1.355 . S
C2023 C2025 1.419 . S
C2024 C2022 1.415 . S
C2024 C2029 1.425 . S
C2024 C2031 1.409 . S
C2025 H2017 0.930 . S
C2025 C2023 1.419 . S
C2025 C2026 1.362 . S
C2026 H2018 0.930 . S
C2026 C2025 1.362 . S
C2026 C2029 1.409 . S
C2027 H2019 0.930 . S
C2027 C2028 1.355 . S
C2027 C2029 1.415 . S
C2028 C2027 1.355 . S
C2028 C2030 1.419 . S
C2029 C2024 1.425 . S
C2029 C2026 1.409 . S
C2029 C2027 1.415 . S
C2030 H2020 0.930 . S
C2030 C2028 1.419 . S
C2030 C2031 1.362 . S
C2031 H2021 0.930 . S
C2031 C2024 1.409 . S
C2031 C2030 1.362 . S
H2032 C2038 0.930 . S
H2033 C2041 0.930 . S
H2034 C2042 0.930 . S
H2035 C2043 0.930 . S
H2036 C2046 0.930 . S
H2037 C2047 0.930 . S
C2038 H2032 0.930 . S
C2038 C2039 1.355 . S
C2038 C2040 1.415 . S
C2039 C2038 1.355 . S
C2039 C2041 1.419 . S
C2040 C2038 1.415 . S
C2040 C2045 1.425 . S
C2040 C2047 1.409 . S
C2041 H2033 0.930 . S
C2041 C2039 1.419 . S
C2041 C2042 1.362 . S
C2042 H2034 0.930 . S
C2042 C2041 1.362 . S
C2042 C2045 1.409 . S
C2043 H2035 0.930 . S
C2043 C2044 1.355 . S
C2043 C2045 1.415 . S
C2044 C2043 1.355 . S
C2044 C2046 1.419 . S
C2045 C2040 1.425 . S
C2045 C2042 1.409 . S
C2045 C2043 1.415 . S
C2046 H2036 0.930 . S
C2046 C2044 1.419 . S
C2046 C2047 1.362 . S
C2047 H2037 0.930 . S
C2047 C2040 1.409 . S
C2047 C2046 1.362 . S
H2048 C2054 0.930 . S
H2049 C2057 0.930 . S
H2050 C2058 0.930 . S
H2051 C2059 0.930 . S
H2052 C2062 0.930 . S
H2053 C2063 0.930 . S
C2054 H2048 0.930 . S
C2054 C2055 1.355 . S
C2054 C2056 1.415 . S
C2055 C2054 1.355 . S
C2055 C2057 1.419 . S
C2056 C2054 1.415 . S
C2056 C2061 1.425 . S
C2056 C2063 1.409 . S
C2057 H2049 0.930 . S
C2057 C2055 1.419 . S
C2057 C2058 1.362 . S
C2058 H2050 0.930 . S
C2058 C2057 1.362 . S
C2058 C2061 1.409 . S
C2059 H2051 0.930 . S
C2059 C2060 1.355 . S
C2059 C2061 1.415 . S
C2060 C2059 1.355 . S
C2060 C2062 1.419 . S
C2061 C2056 1.425 . S
C2061 C2058 1.409 . S
C2061 C2059 1.415 . S
C2062 H2052 0.930 . S
C2062 C2060 1.419 . S
C2062 C2063 1.362 . S
C2063 H2053 0.930 . S
C2063 C2056 1.409 . S
C2063 C2062 1.362 . S
H2064 C2070 0.930 . S
H2065 C2073 0.930 . S
H2066 C2074 0.930 . S
H2067 C2075 0.930 . S
H2068 C2078 0.930 . S
H2069 C2079 0.930 . S
C2070 H2064 0.930 . S
C2070 C2071 1.355 . S
C2070 C2072 1.415 . S
C2071 C2070 1.355 . S
C2071 C2073 1.419 . S
C2072 C2070 1.415 . S
C2072 C2077 1.425 . S
C2072 C2079 1.409 . S
C2073 H2065 0.930 . S
C2073 C2071 1.419 . S
C2073 C2074 1.362 . S
C2074 H2066 0.930 . S
C2074 C2073 1.362 . S
C2074 C2077 1.409 . S
C2075 H2067 0.930 . S
C2075 C2076 1.355 . S
C2075 C2077 1.415 . S
C2076 C2075 1.355 . S
C2076 C2078 1.419 . S
C2077 C2072 1.425 . S
C2077 C2074 1.409 . S
C2077 C2075 1.415 . S
C2078 H2068 0.930 . S
C2078 C2076 1.419 . S
C2078 C2079 1.362 . S
C2079 H2069 0.930 . S
C2079 C2072 1.409 . S
C2079 C2078 1.362 . S
H2080 C2086 0.930 . S
H2081 C2089 0.930 . S
H2082 C2090 0.930 . S
H2083 C2091 0.930 . S
H2084 C2094 0.930 . S
H2085 C2095 0.930 . S
C2086 H2080 0.930 . S
C2086 C2087 1.355 . S
C2086 C2088 1.415 . S
C2087 C2086 1.355 . S
C2087 C2089 1.419 . S
C2088 C2086 1.415 . S
C2088 C2093 1.425 . S
C2088 C2095 1.409 . S
C2089 H2081 0.930 . S
C2089 C2087 1.419 . S
C2089 C2090 1.362 . S
C2090 H2082 0.930 . S
C2090 C2089 1.362 . S
C2090 C2093 1.409 . S
C2091 H2083 0.930 . S
C2091 C2092 1.355 . S
C2091 C2093 1.415 . S
C2092 C2091 1.355 . S
C2092 C2094 1.419 . S
C2093 C2088 1.425 . S
C2093 C2090 1.409 . S
C2093 C2091 1.415 . S
C2094 H2084 0.930 . S
C2094 C2092 1.419 . S
C2094 C2095 1.362 . S
C2095 H2085 0.930 . S
C2095 C2088 1.409 . S
C2095 C2094 1.362 . S
H2096 C2102 0.930 . S
H2097 C2105 0.930 . S
H2098 C2106 0.930 . S
H2099 C2107 0.930 . S
H2100 C2110 0.930 . S
H2101 C2111 0.930 . S
C2102 H2096 0.930 . S
C2102 C2103 1.355 . S
C2102 C2104 1.415 . S
C2103 C2102 1.355 . S
C2103 C2105 1.419 . S
C2104 C2102 1.415 . S
C2104 C2109 1.425 . S
C2104 C2111 1.409 . S
C2105 H2097 0.930 . S
C2105 C2103 1.419 . S
C2105 C2106 1.362 . S
C2106 H2098 0.930 . S
C2106 C2105 1.362 . S
C2106 C2109 1.409 . S
C2107 H2099 0.930 . S
C2107 C2108 1.355 . S
C2107 C2109 1.415 . S
C2108 C2107 1.355 . S
C2108 C2110 1.419 . S
C2109 C2104 1.425 . S
C2109 C2106 1.409 . S
C2109 C2107 1.415 . S
C2110 H2100 0.930 . S
C2110 C2108 1.419 . S
C2110 C2111 1.362 . S
C2111 H2101 0.930 . S
C2111 C2104 1.409 . S
C2111 C2110 1.362 . S
H2112 C2118 0.930 . S
H2113 C2121 0.930 . S
H2114 C2122 0.930 . S
H2115 C2123 0.930 . S
H2116 C2126 0.930 . S
H2117 C2127 0.930 . S
C2118 H2112 0.930 . S
C2118 C2119 1.355 . S
C2118 C2120 1.415 . S
C2119 C2118 1.355 . S
C2119 C2121 1.419 . S
C2120 C2118 1.415 . S
C2120 C2125 1.425 . S
C2120 C2127 1.409 . S
C2121 H2113 0.930 . S
C2121 C2119 1.419 . S
C2121 C2122 1.362 . S
C2122 H2114 0.930 . S
C2122 C2121 1.362 . S
C2122 C2125 1.409 . S
C2123 H2115 0.930 . S
C2123 C2124 1.355 . S
C2123 C2125 1.415 . S
C2124 C2123 1.355 . S
C2124 C2126 1.419 . S
C2125 C2120 1.425 . S
C2125 C2122 1.409 . S
C2125 C2123 1.415 . S
C2126 H2116 0.930 . S
C2126 C2124 1.419 . S
C2126 C2127 1.362 . S
C2127 H2117 0.930 . S
C2127 C2120 1.409 . S
C2127 C2126 1.362 . S
H2128 C2134 0.930 . S
H2129 C2137 0.930 . S
H2130 C2138 0.930 . S
H2131 C2139 0.930 . S
H2132 C2142 0.930 . S
H2133 C2143 0.930 . S
C2134 H2128 0.930 . S
C2134 C2135 1.355 . S
C2134 C2136 1.415 . S
C2135 C2134 1.355 . S
C2135 C2137 1.419 . S
C2136 C2134 1.415 . S
C2136 C2141 1.425 . S
C2136 C2143 1.409 . S
C2137 H2129 0.930 . S
C2137 C2135 1.419 . S
C2137 C2138 1.362 . S
C2138 H2130 0.930 . S
C2138 C2137 1.362 . S
C2138 C2141 1.409 . S
C2139 H2131 0.930 . S
C2139 C2140 1.355 . S
C2139 C2141 1.415 . S
C2140 C2139 1.355 . S
C2140 C2142 1.419 . S
C2141 C2136 1.425 . S
C2141 C2138 1.409 . S
C2141 C2139 1.415 . S
C2142 H2132 0.930 . S
C2142 C2140 1.419 . S
C2142 C2143 1.362 . S
C2143 H2133 0.930 . S
C2143 C2136 1.409 . S
C2143 C2142 1.362 . S
H2144 C2150 0.930 . S
H2145 C2153 0.930 . S
H2146 C2154 0.930 . S
H2147 C2155 0.930 . S
H2148 C2158 0.930 . S
H2149 C2159 0.930 . S
C2150 H2144 0.930 . S
C2150 C2151 1.355 . S
C2150 C2152 1.415 . S
C2151 C2150 1.355 . S
C2151 C2153 1.419 . S
C2152 C2150 1.415 . S
C2152 C2157 1.425 . S
C2152 C2159 1.409 . S
C2153 H2145 0.930 . S
C2153 C2151 1.419 . S
C2153 C2154 1.362 . S
C2154 H2146 0.930 . S
C2154 C2153 1.362 . S
C2154 C2157 1.409 . S
C2155 H2147 0.930 . S
C2155 C2156 1.355 . S
C2155 C2157 1.415 . S
C2156 C2155 1.355 . S
C2156 C2158 1.419 . S
C2157 C2152 1.425 . S
C2157 C2154 1.409 . S
C2157 C2155 1.415 . S
C2158 H2148 0.930 . S
C2158 C2156 1.419 . S
C2158 C2159 1.362 . S
C2159 H2149 0.930 . S
C2159 C2152 1.409 . S
C2159 C2158 1.362 . S
H2160 C2166 0.930 . S
H2161 C2169 0.930 . S
H2162 C2170 0.930 . S
H2163 C2171 0.930 . S
H2164 C2174 0.930 . S
H2165 C2175 0.930 . S
C2166 H2160 0.930 . S
C2166 C2167 1.355 . S
C2166 C2168 1.415 . S
C2167 C2166 1.355 . S
C2167 C2169 1.419 . S
C2168 C2166 1.415 . S
C2168 C2173 1.425 . S
C2168 C2175 1.409 . S
C2169 H2161 0.930 . S
C2169 C2167 1.419 . S
C2169 C2170 1.362 . S
C2170 H2162 0.930 . S
C2170 C2169 1.362 . S
C2170 C2173 1.409 . S
C2171 H2163 0.930 . S
C2171 C2172 1.355 . S
C2171 C2173 1.415 . S
C2172 C2171 1.355 . S
C2172 C2174 1.419 . S
C2173 C2168 1.425 . S
C2173 C2170 1.409 . S
C2173 C2171 1.415 . S
C2174 H2164 0.930 . S
C2174 C2172 1.419 . S
C2174 C2175 1.362 . S
C2175 H2165 0.930 . S
C2175 C2168 1.409 . S
C2175 C2174 1.362 . S
H2176 C2182 0.930 . S
H2177 C2185 0.930 . S
H2178 C2186 0.930 . S
H2179 C2187 0.930 . S
H2180 C2190 0.930 . S
H2181 C2191 0.930 . S
C2182 H2176 0.930 . S
C2182 C2183 1.355 . S
C2182 C2184 1.415 . S
C2183 C2182 1.355 . S
C2183 C2185 1.419 . S
C2184 C2182 1.415 . S
C2184 C2189 1.425 . S
C2184 C2191 1.409 . S
C2185 H2177 0.930 . S
C2185 C2183 1.419 . S
C2185 C2186 1.362 . S
C2186 H2178 0.930 . S
C2186 C2185 1.362 . S
C2186 C2189 1.409 . S
C2187 H2179 0.930 . S
C2187 C2188 1.355 . S
C2187 C2189 1.415 . S
C2188 C2187 1.355 . S
C2188 C2190 1.419 . S
C2189 C2184 1.425 . S
C2189 C2186 1.409 . S
C2189 C2187 1.415 . S
C2190 H2180 0.930 . S
C2190 C2188 1.419 . S
C2190 C2191 1.362 . S
C2191 H2181 0.930 . S
C2191 C2184 1.409 . S
C2191 C2190 1.362 . S
H2192 C2198 0.930 . S
H2193 C2201 0.930 . S
H2194 C2202 0.930 . S
H2195 C2203 0.930 . S
H2196 C2206 0.930 . S
H2197 C2207 0.930 . S
C2198 H2192 0.930 . S
C2198 C2199 1.355 . S
C2198 C2200 1.415 . S
C2199 C2198 1.355 . S
C2199 C2201 1.419 . S
C2200 C2198 1.415 . S
C2200 C2205 1.425 . S
C2200 C2207 1.409 . S
C2201 H2193 0.930 . S
C2201 C2199 1.419 . S
C2201 C2202 1.362 . S
C2202 H2194 0.930 . S
C2202 C2201 1.362 . S
C2202 C2205 1.409 . S
C2203 H2195 0.930 . S
C2203 C2204 1.355 . S
C2203 C2205 1.415 . S
C2204 C2203 1.355 . S
C2204 C2206 1.419 . S
C2205 C2200 1.425 . S
C2205 C2202 1.409 . S
C2205 C2203 1.415 . S
C2206 H2196 0.930 . S
C2206 C2204 1.419 . S
C2206 C2207 1.362 . S
C2207 H2197 0.930 . S
C2207 C2200 1.409 . S
C2207 C2206 1.362 . S
H2208 C2214 0.930 . S
H2209 C2217 0.930 . S
H2210 C2218 0.930 . S
H2211 C2219 0.930 . S
H2212 C2222 0.930 . S
H2213 C2223 0.930 . S
C2214 H2208 0.930 . S
C2214 C2215 1.355 . S
C2214 C2216 1.415 . S
C2215 C2214 1.355 . S
C2215 C2217 1.419 . S
C2216 C2214 1.415 . S
C2216 C2221 1.425 . S
C2216 C2223 1.409 . S
C2217 H2209 0.930 . S
C2217 C2215 1.419 . S
C2217 C2218 1.362 . S
C2218 H2210 0.930 . S
C2218 C2217 1.362 . S
C2218 C2221 1.409 . S
C2219 H2211 0.930 . S
C2219 C2220 1.355 . S
C2219 C2221 1.415 . S
C2220 C2219 1.355 . S
C2220 C2222 1.419 . S
C2221 C2216 1.425 . S
C2221 C2218 1.409 . S
C2221 C2219 1.415 . S
C2222 H2212 0.930 . S
C2222 C2220 1.419 . S
C2222 C2223 1.362 . S
C2223 H2213 0.930 . S
C2223 C2216 1.409 . S
C2223 C2222 1.362 . S
H2224 C2230 0.930 . S
H2225 C2233 0.930 . S
H2226 C2234 0.930 . S
H2227 C2235 0.930 . S
H2228 C2238 0.930 . S
H2229 C2239 0.930 . S
C2230 H2224 0.930 . S
C2230 C2231 1.355 . S
C2230 C2232 1.415 . S
C2231 C2230 1.355 . S
C2231 C2233 1.419 . S
C2232 C2230 1.415 . S
C2232 C2237 1.425 . S
C2232 C2239 1.409 . S
C2233 H2225 0.930 . S
C2233 C2231 1.419 . S
C2233 C2234 1.362 . S
C2234 H2226 0.930 . S
C2234 C2233 1.362 . S
C2234 C2237 1.409 . S
C2235 H2227 0.930 . S
C2235 C2236 1.355 . S
C2235 C2237 1.415 . S
C2236 C2235 1.355 . S
C2236 C2238 1.419 . S
C2237 C2232 1.425 . S
C2237 C2234 1.409 . S
C2237 C2235 1.415 . S
C2238 H2228 0.930 . S
C2238 C2236 1.419 . S
C2238 C2239 1.362 . S
C2239 H2229 0.930 . S
C2239 C2232 1.409 . S
C2239 C2238 1.362 . S
C711 C9 1.949 . S
C716 C97 1.914 . S
C727 C119 1.919 . S
C732 C27 1.965 . S
C743 C141 1.954 . S
C748 C49 1.913 . S
C759 C71 1.959 . S
C764 C163 1.937 . S
C775 C183 1.956 . S
C780 C271 1.913 . S
C791 C205 1.930 . S
C796 C292 1.963 . S
C807 C227 1.930 . S
C812 C314 1.927 . S
C823 C336 1.923 . S
C828 C249 1.965 . S
C839 C361 1.962 . S
C844 C449 1.914 . S
C855 C471 1.922 . S
C860 C379 1.936 . S
C871 C401 1.963 . S
C876 C493 1.915 . S
C887 C515 1.927 . S
C892 C423 1.930 . S
C903 C535 1.925 . S
C908 C623 1.932 . S
C919 C557 1.937 . S
C924 C644 1.959 . S
C935 C579 1.913 . S
C940 C666 1.959 . S
C951 C601 1.914 . S
C956 C688 1.962 . S
C967 C537 1.629 . S
C972 C7 1.629 . S
C983 C207 1.639 . S
C988 C28 1.639 . S
C999 C50 1.560 . S
C1004 C581 1.560 . S
C1015 C72 1.559 . S
C1020 C251 1.559 . S
C1031 C95 1.617 . S
C1036 C625 1.617 . S
C1047 C117 1.565 . S
C1052 C291 1.565 . S
C1063 C665 1.569 . S
C1068 C139 1.569 . S
C1079 C335 1.635 . S
C1084 C161 1.635 . S
C1095 C359 1.537 . S
C1100 C185 1.537 . S
C1111 C229 1.611 . S
C1116 C402 1.611 . S
C1127 C273 1.541 . S
C1132 C447 1.541 . S
C1143 C491 1.647 . S
C1148 C313 1.647 . S
C1159 C380 1.613 . S
C1164 C559 1.613 . S
C1175 C603 1.592 . S
C1180 C424 1.592 . S
C1191 C643 1.636 . S
C1196 C469 1.636 . S
C1207 C513 1.644 . S
C1212 C687 1.644 . S
C1223 C5 1.075 . S
C1228 C599 1.065 . S
C1239 C31 1.070 . S
C1244 C181 1.070 . S
C1255 C53 1.078 . S
C1260 C555 1.072 . S
C1271 C225 1.071 . S
C1276 C75 1.069 . S
C1287 C647 1.080 . S
C1292 C93 1.073 . S
C1303 C115 1.077 . S
C1308 C317 1.067 . S
C1319 C691 1.066 . S
C1324 C137 1.072 . S
C1335 C269 1.076 . S
C1340 C159 1.069 . S
C1351 C425 1.074 . S
C1356 C182 1.069 . S
C1367 C204 1.071 . S
C1372 C6 1.068 . S
C1383 C381 1.067 . S
C1388 C226 1.077 . S
C1399 C51 1.080 . S
C1404 C248 1.074 . S
C1415 C468 1.081 . S
C1420 C270 1.071 . S
C1431 C293 1.076 . S
C1436 C138 1.077 . S
C1447 C315 1.073 . S
C1452 C512 1.065 . S
C1463 C94 1.080 . S
C1468 C337 1.074 . S
C1479 C357 1.078 . S
C1484 C247 1.068 . S
C1495 C383 1.072 . S
C1500 C533 1.067 . S
C1511 C203 1.080 . S
C1516 C405 1.071 . S
C1527 C427 1.073 . S
C1532 C577 1.080 . S
C1543 C295 1.075 . S
C1548 C445 1.077 . S
C1559 C467 1.069 . S
C1564 C669 1.077 . S
C1575 C339 1.067 . S
C1580 C489 1.071 . S
C1591 C511 1.074 . S
C1596 C621 1.065 . S
C1607 C73 1.073 . S
C1612 C534 1.069 . S
C1623 C556 1.071 . S
C1628 C358 1.068 . S
C1639 C578 1.077 . S
C1644 C29 1.076 . S
C1655 C403 1.065 . S
C1660 C600 1.074 . S
C1671 C116 1.068 . S
C1676 C622 1.071 . S
C1687 C490 1.074 . S
C1692 C645 1.069 . S
C1703 C667 1.069 . S
C1708 C160 1.073 . S
C1719 C446 1.066 . S
C1724 C689 1.073 . S
C1735 C4 0.656 . S
C1740 C404 0.658 . S
C1751 C30 0.603 . S
C1756 C426 0.659 . S
C1767 C52 0.660 . S
C1772 C356 0.654 . S
C1783 C74 0.616 . S
C1788 C382 0.629 . S
C1799 C488 0.612 . S
C1804 C92 0.635 . S
C1815 C510 0.668 . S
C1820 C114 0.642 . S
C1831 C136 0.609 . S
C1836 C444 0.640 . S
C1847 C466 0.618 . S
C1852 C158 0.628 . S
C1863 C576 0.643 . S
C1868 C180 0.668 . S
C1879 C598 0.660 . S
C1884 C202 0.654 . S
C1895 C532 0.611 . S
C1900 C224 0.672 . S
C1911 C246 0.642 . S
C1916 C554 0.669 . S
C1927 C268 0.649 . S
C1932 C668 0.664 . S
C1943 C690 0.630 . S
C1948 C294 0.616 . S
C1959 C620 0.617 . S
C1964 C316 0.629 . S
C1975 C338 0.639 . S
C1980 C646 0.610 . S
C1991 C162 1.726 . S
C1996 C8 1.695 . S
C2007 C26 1.705 . S
C2012 C96 1.743 . S
C2023 C48 1.747 . S
C2028 C118 1.714 . S
C2039 C140 1.707 . S
C2044 C70 1.745 . S
C2055 C334 1.747 . S
C2060 C184 1.721 . S
C2071 C206 1.746 . S
C2076 C272 1.726 . S
C2087 C290 1.697 . S
C2092 C228 1.734 . S
C2103 C312 1.727 . S
C2108 C250 1.746 . S
C2119 C514 1.702 . S
C2124 C360 1.705 . S
C2135 C448 1.744 . S
C2140 C378 1.730 . S
C2151 C470 1.722 . S
C2156 C400 1.747 . S
C2167 C422 1.710 . S
C2172 C492 1.746 . S
C2183 C686 1.701 . S
C2188 C536 1.740 . S
C2199 C624 1.718 . S
C2204 C558 1.747 . S
C2215 C642 1.697 . S
C2220 C580 1.733 . S
C2231 C602 1.695 . S
C2236 C664 1.728 . S
