# Generated by pormake.
# Topology una, (4)-cn, num edge types: 1
# Building blocks:
#     Node 0, Type 0, BuildingBlock: UXUYUI_clean_sbu_0, # of connection points: 4
#     Node 1, Type 0, BuildingBlock: UXUYUI_clean_sbu_0, # of connection points: 4
#     Node 2, Type 0, BuildingBlock: UXUYUI_clean_sbu_0, # of connection points: 4
#     Node 3, Type 0, BuildingBlock: UXUYUI_clean_sbu_0, # of connection points: 4
#     Node 4, Type 0, BuildingBlock: UXUYUI_clean_sbu_0, # of connection points: 4
#     Node 5, Type 0, BuildingBlock: UXUYUI_clean_sbu_0, # of connection points: 4
#     Node 6, Type 0, BuildingBlock: UXUYUI_clean_sbu_0, # of connection points: 4
#     Node 7, Type 0, BuildingBlock: UXUYUI_clean_sbu_0, # of connection points: 4
#     Node 8, Type 0, BuildingBlock: UXUYUI_clean_sbu_0, # of connection points: 4
#     Node 9, Type 0, BuildingBlock: UXUYUI_clean_sbu_0, # of connection points: 4
#     Node 10, Type 0, BuildingBlock: UXUYUI_clean_sbu_0, # of connection points: 4
#     Node 11, Type 0, BuildingBlock: UXUYUI_clean_sbu_0, # of connection points: 4
#     Edge 12, Type (0, 0), BuildingBlock: TEMPAE_clean_linker_10, # of connection points: 2
#     Edge 13, Type (0, 0), BuildingBlock: TEMPAE_clean_linker_10, # of connection points: 2
#     Edge 14, Type (0, 0), BuildingBlock: TEMPAE_clean_linker_10, # of connection points: 2
#     Edge 15, Type (0, 0), BuildingBlock: TEMPAE_clean_linker_10, # of connection points: 2
#     Edge 16, Type (0, 0), BuildingBlock: TEMPAE_clean_linker_10, # of connection points: 2
#     Edge 17, Type (0, 0), BuildingBlock: TEMPAE_clean_linker_10, # of connection points: 2
#     Edge 18, Type (0, 0), BuildingBlock: TEMPAE_clean_linker_10, # of connection points: 2
#     Edge 19, Type (0, 0), BuildingBlock: TEMPAE_clean_linker_10, # of connection points: 2
#     Edge 20, Type (0, 0), BuildingBlock: TEMPAE_clean_linker_10, # of connection points: 2
#     Edge 21, Type (0, 0), BuildingBlock: TEMPAE_clean_linker_10, # of connection points: 2
#     Edge 22, Type (0, 0), BuildingBlock: TEMPAE_clean_linker_10, # of connection points: 2
#     Edge 23, Type (0, 0), BuildingBlock: TEMPAE_clean_linker_10, # of connection points: 2
#     Edge 24, Type (0, 0), BuildingBlock: TEMPAE_clean_linker_10, # of connection points: 2
#     Edge 25, Type (0, 0), BuildingBlock: TEMPAE_clean_linker_10, # of connection points: 2
#     Edge 26, Type (0, 0), BuildingBlock: TEMPAE_clean_linker_10, # of connection points: 2
#     Edge 27, Type (0, 0), BuildingBlock: TEMPAE_clean_linker_10, # of connection points: 2
#     Edge 28, Type (0, 0), BuildingBlock: TEMPAE_clean_linker_10, # of connection points: 2
#     Edge 29, Type (0, 0), BuildingBlock: TEMPAE_clean_linker_10, # of connection points: 2
#     Edge 30, Type (0, 0), BuildingBlock: TEMPAE_clean_linker_10, # of connection points: 2
#     Edge 31, Type (0, 0), BuildingBlock: TEMPAE_clean_linker_10, # of connection points: 2
#     Edge 32, Type (0, 0), BuildingBlock: TEMPAE_clean_linker_10, # of connection points: 2
#     Edge 33, Type (0, 0), BuildingBlock: TEMPAE_clean_linker_10, # of connection points: 2
#     Edge 34, Type (0, 0), BuildingBlock: TEMPAE_clean_linker_10, # of connection points: 2
#     Edge 35, Type (0, 0), BuildingBlock: TEMPAE_clean_linker_10, # of connection points: 2
# Relax obj value: 0.208
# Max RMSD: 0.213
# Mean RMSD: 0.213
data_MOF--net-una--node1-UXUYUI_clean_sbu_0--edge1-TEMPAE_clean_linker_10
_symmetry_space_group_name_H-M    P1
_symmetry_Int_Tables_number       1
_symmetry_cell_setting            triclinic
loop_
_symmetry_equiv_pos_as_xyz
'x, y, z'
_cell_length_a     83.54212
_cell_length_b     83.543241
_cell_length_c     32.513327
_cell_angle_alpha  90.003389
_cell_angle_beta   89.998372
_cell_angle_gamma 119.99948
loop_
_atom_site_label
_atom_site_type_symbol
_atom_site_fract_x
_atom_site_fract_y
_atom_site_fract_z
_atom_type_partial_charge
Li0 Li 0.12755 0.44975 0.05013 0.0
Li1 Li 0.1324 0.42513 0.07254 0.0
Li2 Li 0.14035 0.43687 0.00323 0.0
Li3 Li 0.1074 0.41719 0.02409 0.0
C4 C 0.16221 0.46639 0.07418 0.0
N5 N 0.18364 0.49963 0.1142 0.0
C6 C 0.16544 0.46668 0.11644 0.0
C7 C 0.16994 0.483 0.05226 0.0
C8 C 0.17632 0.48363 0.1361 0.0
C9 C 0.1807 0.49966 0.07307 0.0
C10 C 0.10034 0.41769 0.11515 0.0
C11 C 0.07753 0.38956 0.14802 0.0
N12 N 0.08086 0.39878 0.18434 0.0
C13 C 0.10346 0.42691 0.15273 0.0
C14 C 0.08721 0.39889 0.11266 0.0
C15 C 0.0935 0.41709 0.18739 0.0
C16 C 0.1235 0.4806 0.03448 0.0
N17 N 0.12739 0.47178 0.06458 0.0
C18 C 0.13212 0.49524 0.11314 0.0
C19 C 0.13137 0.47858 0.10354 0.0
C20 C 0.12855 0.50486 0.0824 0.0
C21 C 0.12403 0.49724 0.04271 0.0
H22 H 0.11999 0.47473 0.004 0.0
H23 H 0.13429 0.47125 0.12701 0.0
C24 C 0.15971 0.42093 0.10754 0.0
N25 N 0.14195 0.41644 0.11514 0.0
C26 C 0.1693 0.41615 0.13528 0.0
C27 C 0.14221 0.40216 0.17869 0.0
C28 C 0.13298 0.4069 0.14954 0.0
C29 C 0.16074 0.40701 0.17198 0.0
H30 H 0.16647 0.42835 0.07976 0.0
H31 H 0.1188 0.40309 0.15485 0.0
C32 C 0.1217 0.44583 0.95249 0.0
N33 N 0.12744 0.45484 0.86997 0.0
C34 C 0.11038 0.43304 0.92284 0.0
C35 C 0.13586 0.46324 0.94018 0.0
C36 C 0.11352 0.43786 0.88127 0.0
C37 C 0.13857 0.46751 0.89831 0.0
C38 C 0.13123 0.39745 0.02983 0.0
C39 C 0.14799 0.39927 0.01672 0.0
C40 C 0.1192 0.38227 0.05384 0.0
C41 C 0.15255 0.38593 0.02827 0.0
C42 C 0.12427 0.36924 0.0648 0.0
N43 N 0.1407 0.37133 0.05192 0.0
C44 C 0.17481 0.45554 0.96228 0.0
C45 C 0.15063 0.43068 0.92551 0.0
C46 C 0.18711 0.45892 0.93001 0.0
N47 N 0.15696 0.44168 0.95929 0.0
C48 C 0.16239 0.43368 0.89238 0.0
C49 C 0.18089 0.44792 0.89449 0.0
H50 H 0.17952 0.46385 0.98984 0.0
H51 H 0.13646 0.41951 0.92447 0.0
C52 C 0.07141 0.40585 -0.0009 0.0
N53 N 0.08386 0.40006 0.00367 0.0
C54 C 0.05494 0.39491 0.97796 0.0
C55 C 0.06412 0.3719 0.96832 0.0
C56 C 0.08049 0.38337 0.98939 0.0
C57 C 0.05128 0.37783 0.96148 0.0
H58 H 0.07471 0.41937 0.01018 0.0
H59 H 0.09082 0.37929 0.99298 0.0
O60 O 0.15148 0.44996 0.05439 0.0
O61 O 0.10972 0.42715 0.08078 0.0
O62 O 0.1191 0.44124 0.99332 0.0
O63 O 0.12672 0.41058 0.0196 0.0
H64 H 0.15944 0.45401 0.13403 0.0
H65 H 0.16748 0.48305 0.01961 0.0
H66 H 0.17888 0.48406 0.16881 0.0
H67 H 0.18666 0.51262 0.05653 0.0
H68 H 0.06738 0.375 0.14659 0.0
H69 H 0.11351 0.44146 0.15517 0.0
H70 H 0.08452 0.39155 0.08383 0.0
H71 H 0.09583 0.42403 0.21672 0.0
H72 H 0.13578 0.50067 0.14408 0.0
H73 H 0.12079 0.50398 0.01831 0.0
H74 H 0.18337 0.41976 0.12809 0.0
H75 H 0.13504 0.39522 0.20661 0.0
H76 H 0.09942 0.41947 0.93171 0.0
H77 H 0.14482 0.47325 0.9627 0.0
H78 H 0.10492 0.42808 0.85798 0.0
H79 H 0.14956 0.48088 0.88834 0.0
H80 H 0.15748 0.41097 0.9982 0.0
H81 H 0.1062 0.38068 0.06432 0.0
H82 H 0.16552 0.38722 0.01856 0.0
H83 H 0.11517 0.3575 0.08363 0.0
H84 H 0.2013 0.47002 0.93273 0.0
H85 H 0.15718 0.42468 0.86581 0.0
H86 H 0.04563 0.40021 0.97284 0.0
H87 H 0.06177 0.35877 0.95657 0.0
Li88 Li 0.67812 0.13055 0.21808 0.0
Li89 Li 0.70671 0.1335 0.24156 0.0
Li90 Li 0.70527 0.14513 0.17373 0.0
Li91 Li 0.69087 0.1123 0.18767 0.0
C92 C 0.71636 0.17072 0.23762 0.0
N93 N 0.74651 0.20452 0.25805 0.0
C94 C 0.73429 0.17439 0.22891 0.0
C95 C 0.7138 0.18427 0.25668 0.0
C96 C 0.74933 0.19155 0.23952 0.0
C97 C 0.72921 0.20127 0.26674 0.0
C98 C 0.68078 0.10615 0.28463 0.0
C99 C 0.68585 0.08925 0.33828 0.0
N100 N 0.67982 0.09701 0.36662 0.0
C101 C 0.67445 0.11381 0.31422 0.0
C102 C 0.68637 0.09364 0.29666 0.0
C103 C 0.67413 0.10907 0.35553 0.0
C104 C 0.63995 0.117 0.21444 0.0
N105 N 0.65595 0.13024 0.23167 0.0
C106 C 0.64003 0.14343 0.26611 0.0
C107 C 0.65632 0.14332 0.25713 0.0
C108 C 0.62329 0.13002 0.24843 0.0
C109 C 0.62337 0.11666 0.22234 0.0
H110 H 0.64014 0.10679 0.19428 0.0
H111 H 0.66928 0.15368 0.27031 0.0
C112 C 0.73769 0.13792 0.28794 0.0
N113 N 0.72229 0.13953 0.28858 0.0
C114 C 0.75078 0.14567 0.31936 0.0
C115 C 0.73156 0.156 0.35216 0.0
C116 C 0.71888 0.14807 0.32015 0.0
C117 C 0.74799 0.15525 0.3515 0.0
H118 H 0.74033 0.13147 0.26211 0.0
H119 H 0.70681 0.14965 0.31927 0.0
C120 C 0.67186 0.13268 0.1345 0.0
N121 N 0.65501 0.14677 0.08483 0.0
C122 C 0.66197 0.1229 0.09976 0.0
C123 C 0.67323 0.14965 0.14396 0.0
C124 C 0.65353 0.13025 0.07503 0.0
C125 C 0.6646 0.15653 0.11847 0.0
C126 C 0.72667 0.12206 0.17826 0.0
C127 C 0.7391 0.1286 0.14536 0.0
C128 C 0.72357 0.10616 0.1992 0.0
C129 C 0.74797 0.11892 0.13352 0.0
C130 C 0.73269 0.09685 0.18643 0.0
N131 N 0.74459 0.10335 0.15408 0.0
C132 C 0.72217 0.18056 0.1328 0.0
C133 C 0.71988 0.15497 0.09609 0.0
C134 C 0.73121 0.19228 0.09963 0.0
N135 N 0.7171 0.16237 0.13067 0.0
C136 C 0.7289 0.16615 0.06237 0.0
C137 C 0.73491 0.18511 0.0641 0.0
H138 H 0.71929 0.18602 0.16014 0.0
H139 H 0.71514 0.14034 0.0949 0.0
C140 C 0.67219 0.07328 0.1765 0.0
N141 N 0.68435 0.08999 0.16015 0.0
C142 C 0.66603 0.05723 0.15307 0.0
C143 C 0.68556 0.07595 0.09723 0.0
C144 C 0.69112 0.09159 0.12147 0.0
C145 C 0.67252 0.05849 0.11256 0.0
H146 H 0.66682 0.07251 0.20716 0.0
H147 H 0.70056 0.10512 0.10913 0.0
O148 O 0.70134 0.15389 0.22844 0.0
O149 O 0.68144 0.11085 0.24411 0.0
O150 O 0.6802 0.12564 0.15887 0.0
O151 O 0.71764 0.13122 0.1899 0.0
H152 H 0.73665 0.16417 0.21422 0.0
H153 H 0.70005 0.18168 0.26371 0.0
H154 H 0.76326 0.19454 0.23303 0.0
H155 H 0.72741 0.21186 0.28152 0.0
H156 H 0.69021 0.07964 0.34805 0.0
H157 H 0.67005 0.1235 0.30547 0.0
H158 H 0.69098 0.0873 0.27414 0.0
H159 H 0.66941 0.11501 0.37879 0.0
H160 H 0.64058 0.15407 0.28608 0.0
H161 H 0.61073 0.10597 0.20847 0.0
H162 H 0.76323 0.14472 0.3178 0.0
H163 H 0.72901 0.16356 0.37585 0.0
H164 H 0.66083 0.10976 0.09201 0.0
H165 H 0.68087 0.15745 0.17066 0.0
H166 H 0.64582 0.12282 0.04805 0.0
H167 H 0.66554 0.16963 0.12543 0.0
H168 H 0.74198 0.14109 0.12927 0.0
H169 H 0.71411 0.10101 0.22486 0.0
H170 H 0.75758 0.1238 0.10803 0.0
H171 H 0.73029 0.08444 0.20221 0.0
H172 H 0.73559 0.20683 0.10208 0.0
H173 H 0.73112 0.16001 0.03519 0.0
H174 H 0.65578 0.04411 0.16597 0.0
H175 H 0.69118 0.07758 0.06651 0.0
Li176 Li 0.56937 0.70454 0.4084 0.0
Li177 Li 0.54407 0.67562 0.38244 0.0
Li178 Li 0.57486 0.68941 0.35213 0.0
Li179 Li 0.55537 0.70304 0.34157 0.0
C180 C 0.57276 0.67891 0.44723 0.0
N181 N 0.58362 0.6783 0.52718 0.0
C182 C 0.5595 0.67003 0.47796 0.0
C183 C 0.59153 0.68734 0.45705 0.0
C184 C 0.56528 0.66991 0.51822 0.0
C185 C 0.59675 0.68693 0.49769 0.0
C186 C 0.53505 0.70851 0.39319 0.0
C187 C 0.51103 0.71324 0.36486 0.0
N188 N 0.51884 0.73012 0.3832 0.0
C189 C 0.54285 0.72592 0.41169 0.0
C190 C 0.519 0.7021 0.36958 0.0
C191 C 0.53443 0.73662 0.40633 0.0
C192 C 0.59489 0.7357 0.45516 0.0
N193 N 0.57874 0.71932 0.45615 0.0
C194 C 0.57161 0.7261 0.52265 0.0
C195 C 0.56731 0.71419 0.48927 0.0
C196 C 0.58772 0.74352 0.52167 0.0
C197 C 0.59975 0.74807 0.488 0.0
H198 H 0.60347 0.73963 0.428 0.0
H199 H 0.55433 0.70129 0.48869 0.0
C200 C 0.52503 0.63771 0.40172 0.0
N201 N 0.52305 0.65281 0.39733 0.0
C202 C 0.50976 0.62055 0.41119 0.0
C203 C 0.49076 0.63486 0.41161 0.0
C204 C 0.50642 0.65175 0.40247 0.0
C205 C 0.49229 0.61894 0.41606 0.0
H206 H 0.53848 0.63902 0.39763 0.0
H207 H 0.50526 0.66398 0.39904 0.0
C208 C 0.59865 0.72475 0.33779 0.0
N209 N 0.63252 0.74174 0.2985 0.0
C210 C 0.60039 0.73227 0.29853 0.0
C211 C 0.61416 0.72598 0.35717 0.0
C212 C 0.61763 0.74079 0.27917 0.0
C213 C 0.63115 0.73457 0.33676 0.0
C214 C 0.53885 0.66147 0.30918 0.0
C215 C 0.54477 0.64862 0.30418 0.0
C216 C 0.52037 0.65616 0.30162 0.0
C217 C 0.53206 0.63063 0.29181 0.0
C218 C 0.50809 0.63802 0.2894 0.0
N219 N 0.51414 0.62574 0.28479 0.0
C220 C 0.59869 0.67445 0.34247 0.0
C221 C 0.59446 0.68882 0.28388 0.0
C222 C 0.60911 0.66881 0.31937 0.0
N223 N 0.59151 0.6841 0.32427 0.0
C224 C 0.60506 0.68382 0.2599 0.0
C225 C 0.61218 0.67327 0.27727 0.0
H226 H 0.59572 0.67052 0.37445 0.0
H227 H 0.58812 0.69606 0.27003 0.0
C228 C 0.55768 0.73518 0.30921 0.0
N229 N 0.54978 0.71665 0.30338 0.0
C230 C 0.55519 0.74605 0.28029 0.0
C231 C 0.5361 0.71849 0.24043 0.0
C232 C 0.53906 0.70815 0.27004 0.0
C233 C 0.54448 0.73773 0.2451 0.0
H234 H 0.5663 0.74154 0.33589 0.0
H235 H 0.53321 0.69345 0.26588 0.0
O236 O 0.56739 0.67942 0.40776 0.0
O237 O 0.54328 0.69795 0.39741 0.0
O238 O 0.58185 0.71616 0.35707 0.0
O239 O 0.55095 0.67901 0.32239 0.0
H240 H 0.54492 0.66351 0.47092 0.0
H241 H 0.60195 0.69419 0.43359 0.0
H242 H 0.55518 0.66319 0.54237 0.0
H243 H 0.61123 0.69347 0.50578 0.0
H244 H 0.4987 0.7085 0.34642 0.0
H245 H 0.55537 0.73126 0.42962 0.0
H246 H 0.51298 0.68885 0.35426 0.0
H247 H 0.54035 0.75014 0.42039 0.0
H248 H 0.56204 0.72206 0.5482 0.0
H249 H 0.61218 0.76146 0.48592 0.0
H250 H 0.51166 0.60873 0.41494 0.0
H251 H 0.47756 0.63426 0.41449 0.0
H252 H 0.58853 0.73136 0.28294 0.0
H253 H 0.61306 0.72021 0.3875 0.0
H254 H 0.61916 0.74659 0.2487 0.0
H255 H 0.64325 0.73553 0.35131 0.0
H256 H 0.55895 0.6524 0.31019 0.0
H257 H 0.51547 0.66583 0.30594 0.0
H258 H 0.53644 0.62052 0.28799 0.0
H259 H 0.49372 0.63369 0.2838 0.0
H260 H 0.61402 0.66043 0.33396 0.0
H261 H 0.60729 0.68786 0.22785 0.0
H262 H 0.56179 0.76084 0.28504 0.0
H263 H 0.52797 0.71161 0.2134 0.0
Li264 Li 0.87253 0.55164 0.55743 0.0
Li265 Li 0.8656 0.57538 0.57459 0.0
Li266 Li 0.85813 0.56237 0.5069 0.0
Li267 Li 0.89095 0.58312 0.5287 0.0
C268 C 0.83426 0.53153 0.55834 0.0
N269 N 0.80711 0.49473 0.55644 0.0
C270 C 0.82053 0.52438 0.58855 0.0
C271 C 0.83422 0.51997 0.52724 0.0
C272 C 0.8069 0.50573 0.58703 0.0
C273 C 0.82037 0.5014 0.52678 0.0
C274 C 0.88999 0.57143 0.62783 0.0
C275 C 0.90796 0.57444 0.68841 0.0
N276 N 0.89211 0.56332 0.70936 0.0
C277 C 0.87388 0.56004 0.64997 0.0
C278 C 0.90717 0.5787 0.64717 0.0
C279 C 0.87524 0.5561 0.69115 0.0
C280 C 0.88591 0.52695 0.55415 0.0
N281 N 0.87386 0.53058 0.57442 0.0
C282 C 0.86277 0.50297 0.61407 0.0
C283 C 0.86255 0.51912 0.60428 0.0
C284 C 0.87466 0.49851 0.59273 0.0
C285 C 0.88648 0.51088 0.56268 0.0
H286 H 0.8948 0.53637 0.53066 0.0
H287 H 0.85312 0.52231 0.62009 0.0
C288 C 0.83748 0.57866 0.60911 0.0
N289 N 0.85556 0.58413 0.6152 0.0
C290 C 0.82803 0.58349 0.63707 0.0
C291 C 0.856 0.59951 0.67746 0.0
C292 C 0.86506 0.59467 0.64807 0.0
C293 C 0.83712 0.59365 0.67243 0.0
H294 H 0.83037 0.57042 0.58241 0.0
H295 H 0.87952 0.59897 0.65191 0.0
C296 C 0.88265 0.55486 0.46075 0.0
N297 N 0.88877 0.54697 0.38167 0.0
C298 C 0.89168 0.56907 0.43203 0.0
C299 C 0.8769 0.53664 0.44929 0.0
C300 C 0.89459 0.5648 0.3922 0.0
C301 C 0.88007 0.53293 0.40915 0.0
C302 C 0.8663 0.60188 0.5299 0.0
C303 C 0.84942 0.59966 0.51641 0.0
C304 C 0.87813 0.61729 0.55354 0.0
C305 C 0.84458 0.61287 0.52717 0.0
C306 C 0.87277 0.63018 0.56369 0.0
N307 N 0.85624 0.62772 0.55043 0.0
C308 C 0.82284 0.54534 0.46768 0.0
C309 C 0.84836 0.56509 0.42573 0.0
C310 C 0.81064 0.54206 0.43528 0.0
N311 N 0.84136 0.55646 0.4622 0.0
C312 C 0.83667 0.56223 0.39252 0.0
C313 C 0.81752 0.55061 0.39711 0.0
H314 H 0.8174 0.53939 0.49741 0.0
H315 H 0.86296 0.57472 0.4228 0.0
C316 C 0.92688 0.59459 0.50413 0.0
N317 N 0.91441 0.60038 0.50833 0.0
C318 C 0.94311 0.60519 0.48194 0.0
C319 C 0.93373 0.62796 0.47071 0.0
C320 C 0.9176 0.61682 0.49287 0.0
C321 C 0.9465 0.62193 0.46402 0.0
H322 H 0.92369 0.58122 0.51604 0.0
H323 H 0.90723 0.62087 0.49599 0.0
O324 O 0.84792 0.54965 0.56 0.0
O325 O 0.88911 0.57552 0.58742 0.0
O326 O 0.87998 0.5588 0.50022 0.0
O327 O 0.87109 0.58888 0.52048 0.0
H328 H 0.82047 0.53316 0.61299 0.0
H329 H 0.84471 0.52533 0.50365 0.0
H330 H 0.79619 0.5 0.61021 0.0
H331 H 0.82016 0.49231 0.50284 0.0
H332 H 0.92116 0.57998 0.70375 0.0
H333 H 0.86045 0.55432 0.63567 0.0
H334 H 0.91977 0.58755 0.63043 0.0
H335 H 0.86288 0.54731 0.70863 0.0
H336 H 0.85365 0.49404 0.63798 0.0
H337 H 0.89573 0.50794 0.54511 0.0
H338 H 0.81365 0.57909 0.63122 0.0
H339 H 0.86356 0.60723 0.70435 0.0
H340 H 0.89616 0.58324 0.44013 0.0
H341 H 0.87015 0.52546 0.47116 0.0
H342 H 0.90146 0.57567 0.36964 0.0
H343 H 0.87567 0.51889 0.39989 0.0
H344 H 0.8401 0.58777 0.49816 0.0
H345 H 0.89118 0.61912 0.56445 0.0
H346 H 0.83152 0.61129 0.51715 0.0
H347 H 0.88171 0.64211 0.58223 0.0
H348 H 0.79595 0.53309 0.44022 0.0
H349 H 0.84252 0.56957 0.36404 0.0
H350 H 0.95237 0.59982 0.47699 0.0
H351 H 0.93589 0.64084 0.4578 0.0
Li352 Li 0.29163 0.86231 0.73677 0.0
Li353 Li 0.32142 0.86818 0.71695 0.0
Li354 Li 0.30923 0.88926 0.69641 0.0
Li355 Li 0.29515 0.85693 0.66739 0.0
C356 C 0.3174 0.88468 0.79318 0.0
N357 N 0.32015 0.88506 0.87784 0.0
C358 C 0.31741 0.86998 0.81365 0.0
C359 C 0.31883 0.89959 0.81566 0.0
C360 C 0.31879 0.87042 0.8565 0.0
C361 C 0.3202 0.89952 0.85848 0.0
C362 C 0.30194 0.83065 0.70276 0.0
C363 C 0.31699 0.82014 0.65543 0.0
N364 N 0.30997 0.80396 0.67653 0.0
C365 C 0.29486 0.8139 0.72394 0.0
C366 C 0.31309 0.83379 0.66818 0.0
C367 C 0.29908 0.80059 0.71022 0.0
C368 C 0.26355 0.83324 0.77911 0.0
N369 N 0.27389 0.85196 0.77983 0.0
C370 C 0.25777 0.85328 0.83931 0.0
C371 C 0.27118 0.86211 0.80883 0.0
C372 C 0.24717 0.83389 0.83973 0.0
C373 C 0.25008 0.82388 0.80885 0.0
H374 H 0.2657 0.82555 0.75511 0.0
H375 H 0.27933 0.87702 0.8082 0.0
C376 C 0.35984 0.88514 0.72333 0.0
N377 N 0.34394 0.86895 0.73042 0.0
C378 C 0.37695 0.88663 0.73141 0.0
C379 C 0.361 0.85483 0.75425 0.0
C380 C 0.34421 0.85405 0.74642 0.0
C381 C 0.3776 0.87124 0.74653 0.0
H382 H 0.35918 0.89682 0.711 0.0
H383 H 0.33144 0.84153 0.75315 0.0
C384 C 0.2659 0.86608 0.70131 0.0
N385 N 0.23134 0.85662 0.73121 0.0
C386 C 0.25085 0.84847 0.69385 0.0
C387 C 0.26337 0.87892 0.72369 0.0
C388 C 0.23349 0.84394 0.70933 0.0
C389 C 0.24578 0.87386 0.73859 0.0
C390 C 0.33052 0.88525 0.62679 0.0
C391 C 0.32565 0.89535 0.60043 0.0
C392 C 0.34569 0.88317 0.61721 0.0
C393 C 0.33608 0.90324 0.56493 0.0
C394 C 0.35574 0.89123 0.58135 0.0
N395 N 0.35078 0.90103 0.5562 0.0
C396 C 0.33606 0.92527 0.68003 0.0
C397 C 0.30562 0.91893 0.6651 0.0
C398 C 0.34356 0.94222 0.65984 0.0
N399 N 0.31746 0.91388 0.68119 0.0
C400 C 0.31254 0.93591 0.64504 0.0
C401 C 0.33173 0.94742 0.64106 0.0
H402 H 0.34506 0.92062 0.6924 0.0
H403 H 0.29091 0.90933 0.66546 0.0
C404 C 0.27246 0.82353 0.62572 0.0
N405 N 0.28348 0.84206 0.62033 0.0
C406 C 0.26307 0.81216 0.59245 0.0
C407 C 0.27593 0.83921 0.54883 0.0
C408 C 0.28526 0.85003 0.58291 0.0
C409 C 0.26469 0.82002 0.55348 0.0
H410 H 0.27063 0.81758 0.65605 0.0
H411 H 0.29358 0.86481 0.5796 0.0
O412 O 0.31572 0.88436 0.75135 0.0
O413 O 0.29788 0.84376 0.71618 0.0
O414 O 0.28308 0.8706 0.68729 0.0
O415 O 0.32088 0.87792 0.66248 0.0
H416 H 0.31611 0.85825 0.79668 0.0
H417 H 0.31877 0.91104 0.80017 0.0
H418 H 0.31873 0.85911 0.8728 0.0
H419 H 0.32127 0.91095 0.87633 0.0
H420 H 0.32558 0.8224 0.62871 0.0
H421 H 0.28625 0.81124 0.75084 0.0
H422 H 0.31861 0.84655 0.65118 0.0
H423 H 0.29372 0.78759 0.72637 0.0
H424 H 0.25593 0.86148 0.86263 0.0
H425 H 0.24193 0.80894 0.80756 0.0
H426 H 0.38953 0.89952 0.72516 0.0
H427 H 0.36102 0.84279 0.76659 0.0
H428 H 0.25262 0.83836 0.6767 0.0
H429 H 0.27493 0.89255 0.73006 0.0
H430 H 0.22174 0.83033 0.70406 0.0
H431 H 0.24363 0.88361 0.75623 0.0
H432 H 0.31389 0.89701 0.60717 0.0
H433 H 0.34969 0.87543 0.63725 0.0
H434 H 0.33247 0.91111 0.54433 0.0
H435 H 0.36751 0.88972 0.57357 0.0
H436 H 0.35843 0.95081 0.6574 0.0
H437 H 0.30304 0.93942 0.63047 0.0
H438 H 0.25419 0.79746 0.59737 0.0
H439 H 0.27742 0.84576 0.51922 0.0
Li440 Li 0.45248 0.32019 0.88418 0.0
Li441 Li 0.42771 0.29058 0.90371 0.0
Li442 Li 0.43966 0.29552 0.83499 0.0
Li443 Li 0.41999 0.30865 0.85772 0.0
C444 C 0.46901 0.30198 0.90574 0.0
N445 N 0.50217 0.31362 0.94603 0.0
C446 C 0.46921 0.29876 0.94789 0.0
C447 C 0.48568 0.31109 0.88409 0.0
C448 C 0.48611 0.30474 0.96768 0.0
C449 C 0.5023 0.3169 0.90502 0.0
C450 C 0.42179 0.3137 0.95233 0.0
C451 C 0.39671 0.31125 0.99375 0.0
N452 N 0.40597 0.31141 0.0283 0.0
C453 C 0.43109 0.31392 0.98824 0.0
C454 C 0.40448 0.3124 0.95503 0.0
C455 C 0.42284 0.3127 0.02636 0.0
C456 C 0.4829 0.35567 0.87094 0.0
N457 N 0.4744 0.34234 0.90002 0.0
C458 C 0.49748 0.36087 0.94951 0.0
C459 C 0.4812 0.34475 0.93893 0.0
C460 C 0.50672 0.37476 0.91988 0.0
C461 C 0.49913 0.37203 0.88021 0.0
H462 H 0.47703 0.35365 0.84052 0.0
H463 H 0.47413 0.33411 0.96171 0.0
C464 C 0.4245 0.25947 0.94058 0.0
N465 N 0.41781 0.27127 0.94414 0.0
C466 C 0.4185 0.24445 0.96702 0.0
C467 C 0.39841 0.2536 0.00011 0.0
C468 C 0.40459 0.26832 0.97243 0.0
C469 C 0.40549 0.24153 0.99757 0.0
H470 H 0.43457 0.26177 0.91703 0.0
H471 H 0.39867 0.27718 0.97344 0.0
C472 C 0.44918 0.32377 0.78694 0.0
N473 N 0.45885 0.32776 0.70474 0.0
C474 C 0.43673 0.3228 0.75699 0.0
C475 C 0.46662 0.32694 0.77511 0.0
C476 C 0.44186 0.32483 0.71559 0.0
C477 C 0.47122 0.32886 0.7334 0.0
C478 C 0.39872 0.26621 0.8616 0.0
C479 C 0.39922 0.25 0.85407 0.0
C480 C 0.38338 0.2653 0.88107 0.0
C481 C 0.38435 0.23308 0.86661 0.0
C482 C 0.36878 0.2481 0.89309 0.0
N483 N 0.36958 0.23249 0.88572 0.0
C484 C 0.45822 0.28096 0.78805 0.0
C485 C 0.43116 0.2785 0.75828 0.0
C486 C 0.4605 0.2719 0.75441 0.0
N487 N 0.44373 0.28405 0.78924 0.0
C488 C 0.4329 0.26942 0.72412 0.0
C489 C 0.44765 0.26588 0.72203 0.0
H490 H 0.46782 0.28526 0.81345 0.0
H491 H 0.41971 0.28106 0.76034 0.0
C492 C 0.40555 0.33239 0.84814 0.0
N493 N 0.40293 0.31541 0.83879 0.0
C494 C 0.39482 0.33876 0.82907 0.0
C495 C 0.37868 0.30982 0.79203 0.0
C496 C 0.38963 0.30397 0.81201 0.0
C497 C 0.3815 0.3276 0.79976 0.0
H498 H 0.4164 0.34121 0.8693 0.0
H499 H 0.38817 0.29069 0.80462 0.0
O500 O 0.45262 0.29634 0.88581 0.0
O501 O 0.42973 0.31516 0.91474 0.0
O502 O 0.44424 0.32135 0.82757 0.0
O503 O 0.41336 0.28294 0.85072 0.0
H504 H 0.4565 0.29197 0.96534 0.0
H505 H 0.48582 0.31384 0.85156 0.0
H506 H 0.48647 0.3024 0.00031 0.0
H507 H 0.5153 0.32405 0.88868 0.0
H508 H 0.38331 0.3102 0.99631 0.0
H509 H 0.4444 0.31473 0.98671 0.0
H510 H 0.39709 0.31221 0.92755 0.0
H511 H 0.42983 0.31274 0.0544 0.0
H512 H 0.5029 0.3623 0.98039 0.0
H513 H 0.50554 0.38252 0.85664 0.0
H514 H 0.42433 0.23546 0.96425 0.0
H515 H 0.38816 0.25158 0.02303 0.0
H516 H 0.4232 0.32041 0.76553 0.0
H517 H 0.47641 0.32768 0.79787 0.0
H518 H 0.43233 0.32402 0.69207 0.0
H519 H 0.48461 0.33117 0.7238 0.0
H520 H 0.41106 0.25054 0.83913 0.0
H521 H 0.38287 0.27777 0.88732 0.0
H522 H 0.38459 0.22042 0.86126 0.0
H523 H 0.35686 0.24718 0.90845 0.0
H524 H 0.47191 0.26921 0.75424 0.0
H525 H 0.4228 0.26519 0.69962 0.0
H526 H 0.39728 0.35246 0.83635 0.0
H527 H 0.36878 0.30087 0.76924 0.0
Li528 Li 0.57896 0.88655 0.87549 0.0
Li529 Li 0.56027 0.85527 0.89507 0.0
Li530 Li 0.57285 0.86138 0.82779 0.0
Li531 Li 0.54746 0.8676 0.84729 0.0
C532 C 0.60527 0.87592 0.87228 0.0
N533 N 0.64264 0.89239 0.85554 0.0
C534 C 0.61662 0.87185 0.89641 0.0
C535 C 0.61294 0.88839 0.8396 0.0
C536 C 0.63547 0.88031 0.88746 0.0
C537 C 0.63186 0.89656 0.83165 0.0
C538 C 0.55773 0.88164 0.94425 0.0
C539 C 0.55063 0.89565 0.00097 0.0
N540 N 0.56406 0.89518 0.0237 0.0
C541 C 0.57148 0.88132 0.96817 0.0
C542 C 0.54723 0.88888 0.96072 0.0
C543 C 0.57446 0.88822 0.00827 0.0
C544 C 0.59079 0.92389 0.88708 0.0
N545 N 0.59539 0.91072 0.89493 0.0
C546 C 0.61971 0.9311 0.93983 0.0
C547 C 0.60962 0.91401 0.92045 0.0
C548 C 0.61484 0.94472 0.93351 0.0
C549 C 0.60038 0.94111 0.90626 0.0
H550 H 0.57915 0.9207 0.8673 0.0
H551 H 0.61256 0.90313 0.92753 0.0
C552 C 0.56473 0.83043 0.94418 0.0
N553 N 0.55435 0.83865 0.93973 0.0
C554 C 0.56135 0.81825 0.97663 0.0
C555 C 0.5365 0.82312 -0.0009 0.0
C556 C 0.54041 0.83526 0.96622 0.0
C557 C 0.54709 0.81449 0.00471 0.0
H558 H 0.57572 0.83343 0.92254 0.0
H559 H 0.53231 0.84195 0.96168 0.0
C560 C 0.5703 0.8897 0.77865 0.0
N561 N 0.5684 0.90135 0.70022 0.0
C562 C 0.55526 0.87861 0.75328 0.0
C563 C 0.58428 0.90678 0.76431 0.0
C564 C 0.55457 0.88472 0.71368 0.0
C565 C 0.58311 0.9124 0.72449 0.0
C566 C 0.53719 0.82574 0.85521 0.0
C567 C 0.5438 0.81366 0.84693 0.0
C568 C 0.52082 0.81945 0.87754 0.0
C569 C 0.53399 0.7955 0.8614 0.0
C570 C 0.51141 0.80119 0.89149 0.0
N571 N 0.51814 0.7897 0.88323 0.0
C572 C 0.59172 0.84367 0.80006 0.0
C573 C 0.5792 0.85283 0.74569 0.0
C574 C 0.5975 0.83479 0.77253 0.0
N575 N 0.5826 0.85232 0.78641 0.0
C576 C 0.58456 0.84395 0.71707 0.0
C577 C 0.59352 0.83444 0.73047 0.0
H578 H 0.59383 0.84295 0.83263 0.0
H579 H 0.57166 0.85941 0.73542 0.0
C580 C 0.52767 0.88551 0.82748 0.0
N581 N 0.52641 0.86867 0.82983 0.0
C582 C 0.51225 0.88689 0.8164 0.0
C583 C 0.49459 0.85358 0.81054 0.0
C584 C 0.51042 0.85287 0.82097 0.0
C585 C 0.49542 0.87075 0.80844 0.0
H586 H 0.54063 0.89783 0.83462 0.0
H587 H 0.50992 0.83971 0.82223 0.0
O588 O 0.58678 0.86765 0.88095 0.0
O589 O 0.55474 0.8753 0.90461 0.0
O590 O 0.57104 0.88428 0.81795 0.0
O591 O 0.54685 0.8437 0.84208 0.0
H592 H 0.6109 0.86224 0.92183 0.0
H593 H 0.60446 0.89174 0.82051 0.0
H594 H 0.64441 0.87728 0.9059 0.0
H595 H 0.63796 0.90622 0.80647 0.0
H596 H 0.54261 0.9013 0.0141 0.0
H597 H 0.57984 0.87589 0.9559 0.0
H598 H 0.53661 0.88931 0.94249 0.0
H599 H 0.58507 0.88808 0.02708 0.0
H600 H 0.63056 0.93328 0.96123 0.0
H601 H 0.59626 0.95132 0.90066 0.0
H602 H 0.57005 0.81214 0.98014 0.0
H603 H 0.52526 0.82045 0.01976 0.0
H604 H 0.54436 0.8653 0.76382 0.0
H605 H 0.59591 0.91561 0.78379 0.0
H606 H 0.54307 0.87624 0.69362 0.0
H607 H 0.59386 0.92557 0.71293 0.0
H608 H 0.55641 0.81826 0.82968 0.0
H609 H 0.51566 0.82868 0.8849 0.0
H610 H 0.539 0.78603 0.85535 0.0
H611 H 0.49882 0.79619 0.90913 0.0
H612 H 0.6045 0.82779 0.78427 0.0
H613 H 0.58087 0.84377 0.68508 0.0
H614 H 0.51333 0.90035 0.81512 0.0
H615 H 0.48185 0.84088 0.80409 0.0
Li616 Li 0.7056 0.56197 0.06191 0.0
Li617 Li 0.69108 0.57891 0.04372 0.0
Li618 Li 0.67912 0.54753 0.01802 0.0
Li619 Li 0.70917 0.57344 0.99388 0.0
C620 C 0.67774 0.55889 0.1153 0.0
N621 N 0.67262 0.56621 0.19559 0.0
C622 C 0.69223 0.57336 0.13689 0.0
C623 C 0.66065 0.54818 0.1345 0.0
C624 C 0.68936 0.57683 0.17746 0.0
C625 C 0.65834 0.55209 0.17513 0.0
C626 C 0.72746 0.60639 0.0349 0.0
C627 C 0.73089 0.63199 0.9939 0.0
N628 N 0.74684 0.64342 0.01418 0.0
C629 C 0.7439 0.61838 0.05526 0.0
C630 C 0.72089 0.61323 0.00389 0.0
C631 C 0.75349 0.63705 0.04437 0.0
C632 C 0.73735 0.56798 0.10271 0.0
N633 N 0.71863 0.55763 0.10401 0.0
C634 C 0.71987 0.54238 0.16497 0.0
C635 C 0.70976 0.54487 0.13401 0.0
C636 C 0.73926 0.55309 0.16481 0.0
C637 C 0.748 0.56588 0.13286 0.0
H638 H 0.74398 0.57788 0.07814 0.0
H639 H 0.69483 0.53673 0.13401 0.0
C640 C 0.66497 0.58955 0.05954 0.0
N641 N 0.68312 0.59497 0.06456 0.0
C642 C 0.65744 0.59912 0.07921 0.0
C643 C 0.6876 0.62006 0.10753 0.0
C644 C 0.69448 0.60993 0.08786 0.0
C645 C 0.6688 0.61445 0.10391 0.0
H646 H 0.65621 0.57736 0.0415 0.0
H647 H 0.70867 0.61355 0.09281 0.0
C648 C 0.70958 0.53711 0.02275 0.0
N649 N 0.72362 0.51545 0.05125 0.0
C650 C 0.72773 0.54177 0.01345 0.0
C651 C 0.69852 0.52138 0.0463 0.0
C652 C 0.73459 0.53066 0.02822 0.0
C653 C 0.70588 0.51062 0.06047 0.0
C654 C 0.6775 0.56552 0.94683 0.0
C655 C 0.67859 0.55131 0.92667 0.0
C656 C 0.66966 0.57472 0.92667 0.0
C657 C 0.67185 0.54658 0.88656 0.0
C658 C 0.66311 0.5696 0.88652 0.0
N659 N 0.66432 0.55575 0.86747 0.0
C660 C 0.64082 0.52415 0.0132 0.0
C661 C 0.65815 0.51111 0.98628 0.0
C662 C 0.62428 0.50802 0.00422 0.0
N663 N 0.65727 0.52534 0.00425 0.0
C664 C 0.64196 0.4947 0.97697 0.0
C665 C 0.62474 0.493 0.98605 0.0
H666 H 0.64061 0.53573 0.02752 0.0
H667 H 0.67144 0.51252 0.97911 0.0
C668 C 0.74468 0.58955 0.96503 0.0
N669 N 0.72726 0.58378 0.95141 0.0
C670 C 0.75941 0.59625 0.93753 0.0
C671 C 0.73812 0.59138 0.88226 0.0
C672 C 0.72383 0.58514 0.91106 0.0
C673 C 0.75617 0.59668 0.89526 0.0
H674 H 0.74706 0.58855 0.99738 0.0
H675 H 0.71003 0.58101 0.90083 0.0
O676 O 0.68003 0.5554 0.07526 0.0
O677 O 0.7181 0.58804 0.04521 0.0
O678 O 0.70275 0.54807 0.00948 0.0
O679 O 0.68354 0.57016 0.98648 0.0
H680 H 0.70552 0.58189 0.12249 0.0
H681 H 0.64928 0.537 0.11809 0.0
H682 H 0.70044 0.58799 0.19451 0.0
H683 H 0.64518 0.54392 0.19038 0.0
H684 H 0.72597 0.63746 0.97001 0.0
H685 H 0.74919 0.61328 0.07924 0.0
H686 H 0.70825 0.60422 0.98765 0.0
H687 H 0.76623 0.64649 0.05991 0.0
H688 H 0.71258 0.53248 0.18921 0.0
H689 H 0.76292 0.57418 0.13115 0.0
H690 H 0.64285 0.59441 0.07582 0.0
H691 H 0.69668 0.63162 0.12696 0.0
H692 H 0.73647 0.55387 0.99521 0.0
H693 H 0.68451 0.5177 0.0542 0.0
H694 H 0.74864 0.53414 0.02141 0.0
H695 H 0.69753 0.49848 0.079 0.0
H696 H 0.68477 0.54415 0.94153 0.0
H697 H 0.66862 0.58568 0.94196 0.0
H698 H 0.67266 0.53565 0.87057 0.0
H699 H 0.65702 0.57662 0.87053 0.0
H700 H 0.61128 0.5072 0.01201 0.0
H701 H 0.64289 0.48352 0.96246 0.0
H702 H 0.77312 0.60063 0.94927 0.0
H703 H 0.73484 0.59133 0.85003 0.0
Li704 Li 0.14061 0.70307 0.22379 0.0
Li705 Li 0.10888 0.68921 0.20357 0.0
Li706 Li 0.12879 0.67761 0.17608 0.0
Li707 Li 0.13325 0.70838 0.15603 0.0
C708 C 0.12244 0.66726 0.2641 0.0
N709 N 0.12552 0.64667 0.32696 0.0
C710 C 0.11164 0.66337 0.29956 0.0
C711 C 0.13473 0.66055 0.26057 0.0
C712 C 0.11343 0.65299 0.33102 0.0
C713 C 0.1361 0.6502 0.29268 0.0
C714 C 0.1228 0.72295 0.24212 0.0
C715 C 0.11745 0.74593 0.27405 0.0
N716 N 0.11381 0.73663 0.31031 0.0
C717 C 0.11898 0.71362 0.27972 0.0
C718 C 0.12201 0.73923 0.23924 0.0
C719 C 0.11448 0.72076 0.31382 0.0
C720 C 0.16771 0.73455 0.26235 0.0
N721 N 0.15785 0.71589 0.26718 0.0
C722 C 0.1726 0.71822 0.33165 0.0
C723 C 0.1601 0.7076 0.30095 0.0
C724 C 0.18298 0.73748 0.32724 0.0
C725 C 0.18054 0.74566 0.29194 0.0
H726 H 0.16548 0.74081 0.23547 0.0
H727 H 0.15218 0.69284 0.30455 0.0
C728 C 0.07528 0.66409 0.23835 0.0
N729 N 0.0847 0.68141 0.22249 0.0
C730 C 0.05862 0.6582 0.25887 0.0
C731 C 0.06111 0.68774 0.24409 0.0
C732 C 0.0778 0.69308 0.22398 0.0
C733 C 0.05153 0.67024 0.26278 0.0
H734 H 0.08114 0.65512 0.23658 0.0
H735 H 0.08555 0.70677 0.21087 0.0
C736 C 0.1704 0.71145 0.18009 0.0
N737 N 0.2074 0.73192 0.20061 0.0
C738 C 0.18088 0.7299 0.1677 0.0
C739 C 0.1788 0.70335 0.20243 0.0
C740 C 0.19955 0.74003 0.17848 0.0
C741 C 0.1975 0.71395 0.21266 0.0
C742 C 0.09848 0.68452 0.12145 0.0
C743 C 0.08756 0.67031 0.09406 0.0
C744 C 0.09618 0.69994 0.12444 0.0
C745 C 0.07448 0.67177 0.07004 0.0
C746 C 0.08295 0.70088 0.09991 0.0
N747 N 0.07246 0.68689 0.07344 0.0
C748 C 0.1135 0.63964 0.16393 0.0
C749 C 0.14488 0.65754 0.14355 0.0
C750 C 0.11341 0.62333 0.15428 0.0
N751 N 0.12911 0.65624 0.15866 0.0
C752 C 0.14544 0.64157 0.13364 0.0
C753 C 0.12959 0.62417 0.13926 0.0
H754 H 0.10124 0.63912 0.17643 0.0
H755 H 0.15709 0.67097 0.13985 0.0
C756 C 0.14548 0.74346 0.12213 0.0
N757 N 0.14079 0.72578 0.11305 0.0
C758 C 0.15348 0.7572 0.0922 0.0
C759 C 0.15104 0.73407 0.04383 0.0
C760 C 0.14306 0.72077 0.07472 0.0
C761 C 0.15676 0.75265 0.0527 0.0
H762 H 0.14371 0.74701 0.15309 0.0
H763 H 0.13936 0.7066 0.06869 0.0
O764 O 0.12065 0.67721 0.23278 0.0
O765 O 0.12701 0.71613 0.20803 0.0
O766 O 0.15199 0.70144 0.17064 0.0
O767 O 0.11131 0.68322 0.14516 0.0
H768 H 0.10197 0.66834 0.30284 0.0
H769 H 0.14322 0.66339 0.23354 0.0
H770 H 0.10519 0.64993 0.35864 0.0
H771 H 0.1456 0.64499 0.29037 0.0
H772 H 0.11676 0.7585 0.27221 0.0
H773 H 0.11948 0.70103 0.28263 0.0
H774 H 0.12476 0.74656 0.21034 0.0
H775 H 0.1115 0.71366 0.34306 0.0
H776 H 0.17419 0.71145 0.35849 0.0
H777 H 0.18814 0.76051 0.28776 0.0
H778 H 0.05186 0.64469 0.27319 0.0
H779 H 0.05599 0.69734 0.24583 0.0
H780 H 0.17465 0.7364 0.15033 0.0
H781 H 0.17096 0.68909 0.21209 0.0
H782 H 0.20779 0.75435 0.16935 0.0
H783 H 0.20414 0.7079 0.23022 0.0
H784 H 0.08918 0.65827 0.09143 0.0
H785 H 0.10449 0.71108 0.14547 0.0
H786 H 0.06592 0.66087 0.0487 0.0
H787 H 0.08102 0.71273 0.10193 0.0
H788 H 0.10097 0.61019 0.15954 0.0
H789 H 0.15812 0.64281 0.12174 0.0
H790 H 0.15758 0.77132 0.10021 0.0
H791 H 0.15357 0.73 0.01401 0.0
Li792 Li 0.43701 0.1438 0.38684 0.0
Li793 Li 0.41891 0.11122 0.37472 0.0
Li794 Li 0.45051 0.12971 0.34435 0.0
Li795 Li 0.42387 0.13316 0.31976 0.0
C796 C 0.44175 0.12208 0.44471 0.0
N797 N 0.43806 0.11575 0.5285 0.0
C798 C 0.42636 0.1205 0.46545 0.0
C799 C 0.45528 0.1205 0.4666 0.0
C800 C 0.42473 0.11727 0.5078 0.0
C801 C 0.45316 0.11729 0.50895 0.0
C802 C 0.39201 0.12245 0.37522 0.0
C803 C 0.36142 0.1052 0.34612 0.0
N804 N 0.35422 0.10769 0.38144 0.0
C805 C 0.38431 0.12493 0.41115 0.0
C806 C 0.38049 0.11256 0.34236 0.0
C807 C 0.36517 0.11731 0.41374 0.0
C808 C 0.43131 0.16977 0.42867 0.0
N809 N 0.4427 0.16258 0.42626 0.0
C810 C 0.46091 0.18135 0.48221 0.0
C811 C 0.45743 0.16821 0.45181 0.0
C812 C 0.44914 0.18877 0.48603 0.0
C813 C 0.43431 0.18298 0.45846 0.0
H814 H 0.41976 0.16505 0.40773 0.0
H815 H 0.46635 0.16235 0.44884 0.0
C816 C 0.41335 0.07945 0.41268 0.0
N817 N 0.40374 0.08773 0.39999 0.0
C818 C 0.40488 0.06366 0.43717 0.0
C819 C 0.37635 0.06435 0.43273 0.0
C820 C 0.38546 0.08032 0.40878 0.0
C821 C 0.38625 0.05616 0.44808 0.0
H822 H 0.42784 0.08557 0.40506 0.0
H823 H 0.37798 0.08696 0.39849 0.0
C824 C 0.46033 0.17073 0.34056 0.0
N825 N 0.4814 0.20771 0.36046 0.0
C826 C 0.4533 0.18261 0.33433 0.0
C827 C 0.47809 0.17764 0.35664 0.0
C828 C 0.46416 0.20126 0.34467 0.0
C829 C 0.48852 0.19639 0.36656 0.0
C830 C 0.41877 0.09944 0.28545 0.0
C831 C 0.4292 0.10042 0.25096 0.0
C832 C 0.39992 0.08642 0.28668 0.0
C833 C 0.42046 0.08865 0.21769 0.0
C834 C 0.39169 0.07489 0.25281 0.0
N835 N 0.40204 0.07625 0.21928 0.0
C836 C 0.47693 0.11864 0.35144 0.0
C837 C 0.48256 0.13987 0.29737 0.0
C838 C 0.49306 0.11834 0.34195 0.0
N839 N 0.4721 0.12936 0.32929 0.0
C840 C 0.49881 0.13998 0.28675 0.0
C841 C 0.50429 0.12915 0.30928 0.0
H842 H 0.46828 0.11043 0.37668 0.0
H843 H 0.47828 0.14822 0.28031 0.0
C844 C 0.40446 0.14807 0.28024 0.0
N845 N 0.41458 0.13968 0.27329 0.0
C846 C 0.39932 0.15537 0.2476 0.0
C847 C 0.41529 0.14545 0.20119 0.0
C848 C 0.41998 0.13819 0.23473 0.0
C849 C 0.40507 0.15443 0.20758 0.0
H850 H 0.40103 0.1498 0.31136 0.0
H851 H 0.42864 0.13216 0.2302 0.0
O852 O 0.4436 0.12512 0.40317 0.0
O853 O 0.41076 0.13 0.37221 0.0
O854 O 0.4497 0.15234 0.33186 0.0
O855 O 0.42714 0.11078 0.31833 0.0
H856 H 0.41576 0.12168 0.44905 0.0
H857 H 0.46729 0.12173 0.451 0.0
H858 H 0.41288 0.11598 0.52421 0.0
H859 H 0.46352 0.11602 0.52628 0.0
H860 H 0.35235 0.0975 0.32095 0.0
H861 H 0.39302 0.13264 0.4368 0.0
H862 H 0.38618 0.11061 0.31423 0.0
H863 H 0.35902 0.11907 0.4414 0.0
H864 H 0.4726 0.18561 0.5026 0.0
H865 H 0.4248 0.1882 0.46066 0.0
H866 H 0.41288 0.05756 0.44807 0.0
H867 H 0.36195 0.05893 0.44062 0.0
H868 H 0.43952 0.17741 0.32209 0.0
H869 H 0.48366 0.16857 0.36186 0.0
H870 H 0.45887 0.21061 0.34027 0.0
H871 H 0.50226 0.20193 0.37926 0.0
H872 H 0.44387 0.11028 0.24981 0.0
H873 H 0.39175 0.08513 0.3136 0.0
H874 H 0.42833 0.08936 0.19064 0.0
H875 H 0.37709 0.0648 0.25325 0.0
H876 H 0.49687 0.10998 0.36045 0.0
H877 H 0.50692 0.14834 0.26104 0.0
H878 H 0.39183 0.16257 0.2539 0.0
H879 H 0.42008 0.14458 0.17076 0.0
Li880 Li 0.29162 0.43575 0.55993 0.0
Li881 Li 0.30491 0.41746 0.54474 0.0
Li882 Li 0.31896 0.44786 0.5155 0.0
Li883 Li 0.28795 0.42274 0.49288 0.0
C884 C 0.32313 0.43774 0.6092 0.0
N885 N 0.3358 0.42857 0.67877 0.0
C886 C 0.31113 0.42873 0.64201 0.0
C887 C 0.3416 0.4422 0.6119 0.0
C888 C 0.3178 0.42419 0.67689 0.0
C889 C 0.34773 0.43741 0.6473 0.0
C890 C 0.26813 0.39093 0.53748 0.0
C891 C 0.2632 0.36382 0.5004 0.0
N892 N 0.24717 0.35351 0.52143 0.0
C893 C 0.25161 0.38007 0.5587 0.0
C894 C 0.27399 0.38275 0.50804 0.0
C895 C 0.24121 0.36117 0.55016 0.0
C896 C 0.26029 0.43147 0.5994 0.0
N897 N 0.27903 0.4415 0.60025 0.0
C898 C 0.27847 0.45751 0.66055 0.0
C899 C 0.28826 0.45448 0.62965 0.0
C900 C 0.25908 0.44693 0.66115 0.0
C901 C 0.24997 0.43396 0.62974 0.0
H902 H 0.25339 0.42131 0.57543 0.0
H903 H 0.3032 0.46221 0.62948 0.0
C904 C 0.32701 0.40124 0.55913 0.0
N905 N 0.31081 0.40042 0.56897 0.0
C906 C 0.33306 0.39106 0.58174 0.0
C907 C 0.30528 0.37889 0.62289 0.0
C908 C 0.29977 0.38928 0.59955 0.0
C909 C 0.32232 0.38006 0.61474 0.0
H910 H 0.33562 0.4105 0.53509 0.0
H911 H 0.28715 0.3892 0.60728 0.0
C912 C 0.28962 0.46054 0.51625 0.0
N913 N 0.27657 0.48371 0.53989 0.0
C914 C 0.27205 0.45681 0.50398 0.0
C915 C 0.30058 0.4761 0.54039 0.0
C916 C 0.26569 0.46868 0.51629 0.0
C917 C 0.29374 0.48764 0.55205 0.0
C918 C 0.3187 0.42778 0.44696 0.0
C919 C 0.31905 0.44254 0.42582 0.0
C920 C 0.32487 0.41697 0.42738 0.0
C921 C 0.32556 0.4462 0.38538 0.0
C922 C 0.33123 0.42105 0.38687 0.0
N923 N 0.33145 0.43546 0.36689 0.0
C924 C 0.35733 0.46791 0.50233 0.0
C925 C 0.3418 0.4842 0.48507 0.0
C926 C 0.37432 0.4831 0.49135 0.0
N927 N 0.34159 0.46884 0.49949 0.0
C928 C 0.35846 0.49972 0.4739 0.0
C929 C 0.37504 0.49935 0.47719 0.0
H930 H 0.35665 0.45533 0.51301 0.0
H931 H 0.32903 0.48442 0.48216 0.0
C932 C 0.25259 0.40804 0.46367 0.0
N933 N 0.26978 0.41259 0.45042 0.0
C934 C 0.23803 0.40221 0.4359 0.0
C935 C 0.25893 0.40526 0.38117 0.0
C936 C 0.27304 0.41071 0.41023 0.0
C937 C 0.24123 0.40137 0.39375 0.0
H938 H 0.25032 0.4095 0.49586 0.0
H939 H 0.28663 0.41393 0.40026 0.0
O940 O 0.31673 0.44186 0.57433 0.0
O941 O 0.27833 0.40947 0.54559 0.0
O942 O 0.29591 0.44884 0.5054 0.0
O943 O 0.31288 0.42411 0.48696 0.0
H944 H 0.29672 0.42491 0.64023 0.0
H945 H 0.35107 0.44916 0.58681 0.0
H946 H 0.30862 0.41707 0.70234 0.0
H947 H 0.36196 0.44068 0.64971 0.0
H948 H 0.26757 0.35732 0.47771 0.0
H949 H 0.24687 0.38619 0.58154 0.0
H950 H 0.28669 0.39086 0.4912 0.0
H951 H 0.22839 0.35261 0.56637 0.0
H952 H 0.28597 0.46755 0.68444 0.0
H953 H 0.23503 0.4257 0.62892 0.0
H954 H 0.3464 0.3925 0.57481 0.0
H955 H 0.29654 0.37047 0.64787 0.0
H956 H 0.26339 0.44488 0.48522 0.0
H957 H 0.3141 0.47904 0.55071 0.0
H958 H 0.2521 0.46593 0.50712 0.0
H959 H 0.30202 0.49965 0.57098 0.0
H960 H 0.3142 0.45098 0.44016 0.0
H961 H 0.32478 0.40557 0.4434 0.0
H962 H 0.32587 0.45754 0.36865 0.0
H963 H 0.33604 0.41278 0.37134 0.0
H964 H 0.3867 0.48207 0.49364 0.0
H965 H 0.35835 0.51197 0.46345 0.0
H966 H 0.22454 0.3989 0.44729 0.0
H967 H 0.26214 0.40491 0.34904 0.0
Li968 Li 0.88662 0.30867 0.70639 0.0
Li969 Li 0.85468 0.29618 0.72411 0.0
Li970 Li 0.86241 0.29094 0.65666 0.0
Li971 Li 0.86861 0.32235 0.67785 0.0
C972 C 0.8707 0.27373 0.74081 0.0
N973 N 0.8782 0.25694 0.80526 0.0
C974 C 0.87356 0.2812 0.78036 0.0
C975 C 0.87164 0.25771 0.73401 0.0
C976 C 0.87732 0.27251 0.81256 0.0
C977 C 0.87546 0.24943 0.767 0.0
C978 C 0.87467 0.33085 0.76853 0.0
C979 C 0.86464 0.35033 0.80096 0.0
N980 N 0.87396 0.35081 0.83566 0.0
C981 C 0.88429 0.33169 0.80443 0.0
C982 C 0.86489 0.34038 0.76668 0.0
C983 C 0.88369 0.34178 0.83807 0.0
C984 C 0.9201 0.33289 0.74194 0.0
N985 N 0.91034 0.31542 0.727 0.0
C986 C 0.93344 0.30863 0.75009 0.0
C987 C 0.9168 0.3034 0.72978 0.0
C988 C 0.94344 0.32637 0.76751 0.0
C989 C 0.93671 0.33867 0.76255 0.0
H990 H 0.91462 0.34214 0.7391 0.0
H991 H 0.90884 0.28964 0.71719 0.0
C992 C 0.82793 0.26517 0.76641 0.0
N993 N 0.83649 0.28395 0.76634 0.0
C994 C 0.81509 0.25497 0.79686 0.0
C995 C 0.81958 0.28353 0.82602 0.0
C996 C 0.83227 0.29317 0.79486 0.0
C997 C 0.81099 0.26419 0.82754 0.0
H998 H 0.83125 0.25812 0.74296 0.0
H999 H 0.83869 0.30797 0.7937 0.0
C1000 C 0.89812 0.31355 0.62495 0.0
N1001 N 0.92371 0.30971 0.5786 0.0
C1002 C 0.90987 0.32762 0.59813 0.0
C1003 C 0.89936 0.29753 0.62822 0.0
C1004 C 0.92272 0.32541 0.57494 0.0
C1005 C 0.9124 0.29585 0.60453 0.0
C1006 C 0.82655 0.29185 0.68114 0.0
C1007 C 0.81435 0.27299 0.67526 0.0
C1008 C 0.82019 0.30288 0.69883 0.0
C1009 C 0.79596 0.2654 0.68773 0.0
C1010 C 0.8017 0.29477 0.7109 0.0
N1011 N 0.79008 0.27635 0.70519 0.0
C1012 C 0.84588 0.25553 0.6231 0.0
C1013 C 0.85552 0.27946 0.5736 0.0
C1014 C 0.83758 0.2421 0.5926 0.0
N1015 N 0.85432 0.27374 0.61315 0.0
C1016 C 0.84742 0.26649 0.54207 0.0
C1017 C 0.83794 0.24753 0.55156 0.0
H1018 H 0.84493 0.25145 0.65497 0.0
H1019 H 0.86226 0.29408 0.56678 0.0
C1020 C 0.88456 0.36069 0.67626 0.0
N1021 N 0.87022 0.34475 0.66143 0.0
C1022 C 0.88564 0.37758 0.66797 0.0
C1023 C 0.85763 0.36138 0.6277 0.0
C1024 C 0.85696 0.34474 0.63722 0.0
C1025 C 0.87198 0.37801 0.6437 0.0
H1026 H 0.89489 0.36019 0.69542 0.0
H1027 H 0.8457 0.3318 0.626 0.0
O1028 O 0.86726 0.28213 0.70859 0.0
O1029 O 0.87546 0.32136 0.73494 0.0
O1030 O 0.88552 0.31559 0.64789 0.0
O1031 O 0.84472 0.29941 0.67032 0.0
H1032 H 0.87279 0.29351 0.78616 0.0
H1033 H 0.86958 0.25182 0.70349 0.0
H1034 H 0.87955 0.27815 0.84333 0.0
H1035 H 0.87628 0.23705 0.76216 0.0
H1036 H 0.85702 0.35765 0.8 0.0
H1037 H 0.89223 0.32471 0.80632 0.0
H1038 H 0.85732 0.33989 0.73932 0.0
H1039 H 0.89103 0.34249 0.86605 0.0
H1040 H 0.93827 0.29882 0.75268 0.0
H1041 H 0.9438 0.35238 0.7759 0.0
H1042 H 0.80883 0.24006 0.79705 0.0
H1043 H 0.81654 0.29112 0.84873 0.0
H1044 H 0.90907 0.34012 0.5953 0.0
H1045 H 0.8904 0.28649 0.6488 0.0
H1046 H 0.93192 0.33619 0.55405 0.0
H1047 H 0.91352 0.28353 0.60676 0.0
H1048 H 0.81908 0.26426 0.66169 0.0
H1049 H 0.82946 0.3175 0.70351 0.0
H1050 H 0.78639 0.25079 0.68367 0.0
H1051 H 0.7966 0.30311 0.72488 0.0
H1052 H 0.83019 0.22766 0.60137 0.0
H1053 H 0.84816 0.27125 0.51076 0.0
H1054 H 0.897 0.39016 0.68051 0.0
H1055 H 0.84679 0.36119 0.60907 0.0
C1056 C 0.1901 0.41651 0.21046 0.0
C1057 C 0.17142 0.40345 0.2037 0.0
C1058 C 0.20038 0.41382 0.24085 0.0
C1059 C 0.19171 0.39787 0.26593 0.0
C1060 C 0.17294 0.3845 0.25921 0.0
C1061 C 0.16304 0.38738 0.22795 0.0
C1062 C 0.22043 0.42837 0.24685 0.0
C1063 C 0.16321 0.36743 0.28572 0.0
C1064 C 0.22507 0.38857 0.32623 0.0
C1065 C 0.22672 0.39812 0.36295 0.0
C1066 C 0.21299 0.38752 0.29494 0.0
C1067 C 0.20216 0.39602 0.30079 0.0
C1068 C 0.20293 0.4047 0.33867 0.0
C1069 C 0.21531 0.4058 0.36907 0.0
C1070 C 0.2126 0.37822 0.25484 0.0
C1071 C 0.19145 0.41378 0.34626 0.0
H1072 H 0.19665 0.42916 0.19265 0.0
H1073 H 0.1487 0.37708 0.22265 0.0
H1074 H 0.22225 0.43504 0.27732 0.0
H1075 H 0.22924 0.42191 0.24638 0.0
H1076 H 0.22544 0.43926 0.22279 0.0
H1077 H 0.1489 0.35785 0.27502 0.0
H1078 H 0.17105 0.35994 0.28599 0.0
H1079 H 0.1626 0.37149 0.31793 0.0
H1080 H 0.23355 0.38228 0.32147 0.0
H1081 H 0.21661 0.41348 0.39693 0.0
H1082 H 0.21904 0.38883 0.23035 0.0
H1083 H 0.19815 0.36856 0.24532 0.0
H1084 H 0.22019 0.37048 0.25684 0.0
H1085 H 0.19666 0.42633 0.32685 0.0
H1086 H 0.19193 0.41789 0.37894 0.0
H1087 H 0.17683 0.40433 0.33758 0.0
C1088 C 0.81606 0.23669 0.49213 0.0
C1089 C 0.8271 0.23352 0.51968 0.0
C1090 C 0.80434 0.22301 0.46435 0.0
C1091 C 0.8036 0.20571 0.46408 0.0
C1092 C 0.81511 0.20259 0.49088 0.0
C1093 C 0.82672 0.21654 0.51846 0.0
C1094 C 0.79225 0.22686 0.43625 0.0
C1095 C 0.81481 0.18437 0.49115 0.0
C1096 C 0.75839 0.1667 0.42323 0.0
C1097 C 0.7628 0.16603 0.38189 0.0
C1098 C 0.77182 0.17892 0.45093 0.0
C1099 C 0.7901 0.19071 0.43694 0.0
C1100 C 0.79489 0.18934 0.39587 0.0
C1101 C 0.78116 0.17704 0.36879 0.0
C1102 C 0.76619 0.17991 0.49458 0.0
C1103 C 0.81424 0.20163 0.37987 0.0
H1104 H 0.81606 0.24965 0.49332 0.0
H1105 H 0.83536 0.2141 0.53941 0.0
H1106 H 0.79439 0.2243 0.40378 0.0
H1107 H 0.77749 0.21735 0.4437 0.0
H1108 H 0.79509 0.24131 0.439 0.0
H1109 H 0.8255 0.1846 0.51185 0.0
H1110 H 0.80105 0.17322 0.50141 0.0
H1111 H 0.81707 0.18081 0.45962 0.0
H1112 H 0.74428 0.15802 0.43364 0.0
H1113 H 0.78465 0.17676 0.33679 0.0
H1114 H 0.76695 0.1934 0.49967 0.0
H1115 H 0.77583 0.179 0.51666 0.0
H1116 H 0.75191 0.1687 0.50156 0.0
H1117 H 0.81704 0.21606 0.37767 0.0
H1118 H 0.81629 0.19725 0.34898 0.0
H1119 H 0.82457 0.20164 0.40134 0.0
C1120 C 0.57625 0.76028 0.56489 0.0
C1121 C 0.59086 0.75751 0.55343 0.0
C1122 C 0.5788 0.77372 0.59392 0.0
C1123 C 0.5964 0.78464 0.61212 0.0
C1124 C 0.61126 0.78198 0.60066 0.0
C1125 C 0.60833 0.76847 0.57119 0.0
C1126 C 0.56263 0.77623 0.60504 0.0
C1127 C 0.63015 0.79329 0.61973 0.0
C1128 C 0.6025 0.82856 0.66072 0.0
C1129 C 0.59705 0.8228 0.7014 0.0
C1130 C 0.60341 0.81662 0.63167 0.0
C1131 C 0.59888 0.79855 0.64369 0.0
C1132 C 0.59449 0.79306 0.68523 0.0
C1133 C 0.59351 0.8052 0.71351 0.0
C1134 C 0.60816 0.82297 0.58762 0.0
C1135 C 0.58967 0.77393 0.69931 0.0
H1136 H 0.56283 0.75211 0.55055 0.0
H1137 H 0.61963 0.76632 0.56235 0.0
H1138 H 0.55956 0.77363 0.63836 0.0
H1139 H 0.56611 0.79068 0.59891 0.0
H1140 H 0.54993 0.7668 0.58752 0.0
H1141 H 0.64031 0.78971 0.60702 0.0
H1142 H 0.6354 0.80823 0.61452 0.0
H1143 H 0.62924 0.79107 0.65349 0.0
H1144 H 0.60559 0.84226 0.6513 0.0
H1145 H 0.58905 0.80048 0.74467 0.0
H1146 H 0.59565 0.81535 0.56817 0.0
H1147 H 0.61874 0.81986 0.57565 0.0
H1148 H 0.61338 0.83801 0.58424 0.0
H1149 H 0.57604 0.76364 0.68647 0.0
H1150 H 0.58896 0.77266 0.73336 0.0
H1151 H 0.59999 0.77035 0.68782 0.0
C1152 C 0.8084 0.58338 0.71382 0.0
C1153 C 0.8266 0.59709 0.70474 0.0
C1154 C 0.79822 0.58598 0.74458 0.0
C1155 C 0.80655 0.60254 0.7677 0.0
C1156 C 0.82486 0.61653 0.75876 0.0
C1157 C 0.83466 0.61368 0.72716 0.0
C1158 C 0.77866 0.57074 0.75301 0.0
C1159 C 0.83423 0.63425 0.78319 0.0
C1160 C 0.77187 0.60989 0.82754 0.0
C1161 C 0.7711 0.60101 0.86478 0.0
C1162 C 0.78421 0.61156 0.79628 0.0
C1163 C 0.79623 0.60445 0.80271 0.0
C1164 C 0.79648 0.59674 0.84125 0.0
C1165 C 0.78379 0.59492 0.8716 0.0
C1166 C 0.78349 0.6198 0.75548 0.0
C1167 C 0.80928 0.58921 0.84953 0.0
H1168 H 0.80215 0.57033 0.69749 0.0
H1169 H 0.84863 0.62444 0.72009 0.0
H1170 H 0.77782 0.56499 0.78421 0.0
H1171 H 0.76908 0.57631 0.75224 0.0
H1172 H 0.77381 0.55928 0.73037 0.0
H1173 H 0.84815 0.64418 0.77093 0.0
H1174 H 0.82565 0.64097 0.78314 0.0
H1175 H 0.83571 0.63115 0.81569 0.0
H1176 H 0.76245 0.61505 0.82227 0.0
H1177 H 0.78324 0.58781 0.89989 0.0
H1178 H 0.77707 0.60864 0.73214 0.0
H1179 H 0.79761 0.62978 0.74458 0.0
H1180 H 0.77529 0.62692 0.75719 0.0
H1181 H 0.80452 0.57622 0.83195 0.0
H1182 H 0.8097 0.58621 0.88267 0.0
H1183 H 0.82352 0.59914 0.83915 0.0
C1184 C 0.22089 0.82963 0.88472 0.0
C1185 C 0.23336 0.82393 0.87244 0.0
C1186 C 0.2073 0.81966 0.91451 0.0
C1187 C 0.20627 0.8037 0.93231 0.0
C1188 C 0.21904 0.7981 0.92046 0.0
C1189 C 0.23242 0.8083 0.89075 0.0
C1190 C 0.19392 0.82601 0.92652 0.0
C1191 C 0.21849 0.78124 0.93896 0.0
C1192 C 0.18386 0.78338 0.03466 0.0
C1193 C 0.16776 0.76731 0.02222 0.0
C1194 C 0.19596 0.7961 0.00569 0.0
C1195 C 0.19189 0.79261 0.9633 0.0
C1196 C 0.17508 0.77706 0.95066 0.0
C1197 C 0.16321 0.76457 0.98032 0.0
C1198 C 0.21373 0.81255 0.02039 0.0
C1199 C 0.1702 0.77295 0.90572 0.0
H1200 H 0.22151 0.84164 0.87039 0.0
H1201 H 0.24225 0.80404 0.88186 0.0
H1202 H 0.17961 0.81515 0.91877 0.0
H1203 H 0.1944 0.82823 0.96024 0.0
H1204 H 0.19694 0.83902 0.91073 0.0
H1205 H 0.22951 0.77885 0.92653 0.0
H1206 H 0.22011 0.78278 0.97284 0.0
H1207 H 0.2049 0.7688 0.93272 0.0
H1208 H 0.18758 0.78552 0.06694 0.0
H1209 H 0.15062 0.75233 0.97061 0.0
H1210 H 0.21623 0.82531 0.00433 0.0
H1211 H 0.22549 0.81039 0.01313 0.0
H1212 H 0.21362 0.8147 0.05409 0.0
H1213 H 0.17225 0.7855 0.88942 0.0
H1214 H 0.15569 0.76172 0.9012 0.0
H1215 H 0.1795 0.76868 0.89118 0.0
C1216 C 0.41711 0.17652 0.14893 0.0
C1217 C 0.40215 0.16452 0.17368 0.0
C1218 C 0.41526 0.18772 0.11948 0.0
C1219 C 0.39797 0.18675 0.11435 0.0
C1220 C 0.38261 0.17417 0.13821 0.0
C1221 C 0.38493 0.16329 0.16793 0.0
C1222 C 0.43203 0.20109 0.0949 0.0
C1223 C 0.3639 0.17253 0.13301 0.0
C1224 C 0.40224 0.23059 0.06998 0.0
C1225 C 0.40029 0.22654 0.02787 0.0
C1226 C 0.40048 0.21735 0.09888 0.0
C1227 C 0.39642 0.1996 0.08523 0.0
C1228 C 0.3931 0.19505 0.04298 0.0
C1229 C 0.39526 0.20866 0.0147 0.0
C1230 C 0.40428 0.2228 0.14363 0.0
C1231 C 0.38835 0.17616 0.02737 0.0
H1232 H 0.4305 0.1777 0.15375 0.0
H1233 H 0.37333 0.15394 0.18695 0.0
H1234 H 0.4291 0.19868 0.06151 0.0
H1235 H 0.43539 0.21548 0.10149 0.0
H1236 H 0.44436 0.19983 0.10201 0.0
H1237 H 0.35304 0.161 0.15139 0.0
H1238 H 0.36458 0.18559 0.14274 0.0
H1239 H 0.35975 0.17032 0.10016 0.0
H1240 H 0.40624 0.24447 0.08009 0.0
H1241 H 0.39356 0.2055 0.98209 0.0
H1242 H 0.41742 0.22354 0.15293 0.0
H1243 H 0.39317 0.21226 0.16333 0.0
H1244 H 0.40545 0.23643 0.14971 0.0
H1245 H 0.40074 0.17457 0.02923 0.0
H1246 H 0.38353 0.17398 0.99493 0.0
H1247 H 0.37744 0.16518 0.04672 0.0
C1248 C 0.1221 0.52516 0.12813 0.0
C1249 C 0.12949 0.52274 0.09148 0.0
C1250 C 0.1225 0.54183 0.13651 0.0
C1251 C 0.13043 0.5564 0.10749 0.0
C1252 C 0.13812 0.55413 0.07068 0.0
C1253 C 0.13759 0.53734 0.06316 0.0
C1254 C 0.11419 0.54376 0.17614 0.0
C1255 C 0.14676 0.56938 0.03907 0.0
C1256 C 0.11521 0.59225 0.10975 0.0
C1257 C 0.12999 0.60695 0.13038 0.0
C1258 C 0.11522 0.57574 0.10196 0.0
C1259 C 0.13035 0.57388 0.11524 0.0
C1260 C 0.14535 0.5887 0.13593 0.0
C1261 C 0.145 0.60508 0.1432 0.0
C1262 C 0.09904 0.56028 0.07954 0.0
C1263 C 0.16168 0.58718 0.15071 0.0
H1264 H 0.11565 0.51387 0.14995 0.0
H1265 H 0.14361 0.53567 0.0351 0.0
H1266 H 0.12459 0.55599 0.19354 0.0
H1267 H 0.10247 0.54605 0.16926 0.0
H1268 H 0.10909 0.53136 0.19607 0.0
H1269 H 0.15236 0.56549 0.01229 0.0
H1270 H 0.13634 0.57288 0.02782 0.0
H1271 H 0.15814 0.58205 0.05325 0.0
H1272 H 0.10369 0.59372 0.09936 0.0
H1273 H 0.15634 0.61631 0.15965 0.0
H1274 H 0.09249 0.54771 0.09905 0.0
H1275 H 0.1039 0.55673 0.05107 0.0
H1276 H 0.0884 0.56397 0.07112 0.0
H1277 H 0.15697 0.57557 0.17282 0.0
H1278 H 0.17232 0.60004 0.16593 0.0
H1279 H 0.16818 0.58409 0.12445 0.0
C1280 C 0.59353 0.12741 0.22489 0.0
C1281 C 0.60584 0.13002 0.25695 0.0
C1282 C 0.57696 0.12733 0.23247 0.0
C1283 C 0.57257 0.12986 0.27312 0.0
C1284 C 0.58494 0.13251 0.30563 0.0
C1285 C 0.60145 0.13261 0.29713 0.0
C1286 C 0.56418 0.1246 0.19697 0.0
C1287 C 0.58067 0.13513 0.34942 0.0
C1288 C 0.53779 0.14592 0.28945 0.0
C1289 C 0.5217 0.12929 0.29917 0.0
C1290 C 0.55442 0.14629 0.28064 0.0
C1291 C 0.55499 0.12964 0.28171 0.0
C1292 C 0.53879 0.1128 0.29127 0.0
C1293 C 0.52234 0.11282 0.29981 0.0
C1294 C 0.57141 0.16452 0.27056 0.0
C1295 C 0.53886 0.09477 0.29262 0.0
H1296 H 0.59698 0.12564 0.1937 0.0
H1297 H 0.61083 0.13442 0.32207 0.0
H1298 H 0.55046 0.11221 0.20244 0.0
H1299 H 0.56201 0.13663 0.19457 0.0
H1300 H 0.56966 0.12289 0.16717 0.0
H1301 H 0.59179 0.13712 0.37113 0.0
H1302 H 0.57873 0.14731 0.35144 0.0
H1303 H 0.56754 0.12291 0.35943 0.0
H1304 H 0.53747 0.15873 0.28945 0.0
H1305 H 0.50991 0.09989 0.30671 0.0
H1306 H 0.57692 0.16371 0.24006 0.0
H1307 H 0.5824 0.1676 0.29356 0.0
H1308 H 0.56856 0.17616 0.27016 0.0
H1309 H 0.54316 0.09205 0.26234 0.0
H1310 H 0.52509 0.08287 0.30055 0.0
H1311 H 0.54906 0.09563 0.31568 0.0
C1312 C 0.40863 0.52122 0.49123 0.0
C1313 C 0.39298 0.51595 0.46659 0.0
C1314 C 0.42539 0.5374 0.4828 0.0
C1315 C 0.42648 0.54864 0.44915 0.0
C1316 C 0.41086 0.54321 0.42365 0.0
C1317 C 0.39433 0.5269 0.43258 0.0
C1318 C 0.44181 0.54268 0.5105 0.0
C1319 C 0.41149 0.55486 0.3875 0.0
C1320 C 0.46217 0.5997 0.4527 0.0
C1321 C 0.47571 0.60078 0.42548 0.0
C1322 C 0.44614 0.5828 0.46078 0.0
C1323 C 0.44367 0.56651 0.44163 0.0
C1324 C 0.45742 0.56739 0.41477 0.0
C1325 C 0.47323 0.58453 0.40681 0.0
C1326 C 0.43174 0.58242 0.48948 0.0
C1327 C 0.45533 0.55026 0.39407 0.0
H1328 H 0.40766 0.51297 0.51783 0.0
H1329 H 0.38241 0.52274 0.41295 0.0
H1330 H 0.454 0.5452 0.49197 0.0
H1331 H 0.44549 0.55574 0.52682 0.0
H1332 H 0.43905 0.53186 0.53375 0.0
H1333 H 0.39831 0.54841 0.36996 0.0
H1334 H 0.4144 0.56864 0.39847 0.0
H1335 H 0.42284 0.55713 0.36632 0.0
H1336 H 0.46412 0.6121 0.46787 0.0
H1337 H 0.48348 0.58524 0.38532 0.0
H1338 H 0.42937 0.57293 0.51556 0.0
H1339 H 0.41839 0.57707 0.473 0.0
H1340 H 0.43579 0.59632 0.502 0.0
H1341 H 0.45302 0.53965 0.41747 0.0
H1342 H 0.46764 0.55317 0.37546 0.0
H1343 H 0.44304 0.54424 0.37366 0.0
C1344 C 0.89082 0.48018 0.60082 0.0
C1345 C 0.87437 0.48086 0.60094 0.0
C1346 C 0.89065 0.4635 0.60743 0.0
C1347 C 0.87364 0.44714 0.61484 0.0
C1348 C 0.85701 0.44773 0.61541 0.0
C1349 C 0.85756 0.46455 0.60819 0.0
C1350 C 0.90866 0.46337 0.6064 0.0
C1351 C 0.83862 0.43058 0.62352 0.0
C1352 C 0.87024 0.40066 0.59624 0.0
C1353 C 0.87244 0.39571 0.63612 0.0
C1354 C 0.87076 0.41746 0.58879 0.0
C1355 C 0.87325 0.4294 0.62214 0.0
C1356 C 0.87531 0.42436 0.66253 0.0
C1357 C 0.875 0.40761 0.66899 0.0
C1358 C 0.86875 0.42249 0.54524 0.0
C1359 C 0.87769 0.43659 0.69894 0.0
H1360 H 0.90389 0.49274 0.59584 0.0
H1361 H 0.84474 0.46485 0.60762 0.0
H1362 H 0.91107 0.45867 0.63647 0.0
H1363 H 0.90797 0.45346 0.58278 0.0
H1364 H 0.92065 0.47722 0.59945 0.0
H1365 H 0.82701 0.43347 0.62387 0.0
H1366 H 0.83582 0.42006 0.59953 0.0
H1367 H 0.83898 0.42446 0.65354 0.0
H1368 H 0.8684 0.39151 0.57079 0.0
H1369 H 0.87646 0.40366 0.69992 0.0
H1370 H 0.88107 0.43581 0.53661 0.0
H1371 H 0.85656 0.4244 0.54291 0.0
H1372 H 0.86712 0.41178 0.52271 0.0
H1373 H 0.89022 0.45033 0.69479 0.0
H1374 H 0.87896 0.43057 0.7284 0.0
H1375 H 0.86571 0.43884 0.70113 0.0
C1376 C 0.39905 0.85894 0.73672 0.0
C1377 C 0.3955 0.87219 0.75408 0.0
C1378 C 0.41578 0.85936 0.74424 0.0
C1379 C 0.42906 0.87313 0.77046 0.0
C1380 C 0.42555 0.88661 0.78792 0.0
C1381 C 0.40885 0.88609 0.77914 0.0
C1382 C 0.41917 0.84497 0.72441 0.0
C1383 C 0.43923 0.90127 0.81666 0.0
C1384 C 0.46257 0.86142 0.82237 0.0
C1385 C 0.47862 0.8717 0.799 0.0
C1386 C 0.44646 0.86208 0.81393 0.0
C1387 C 0.44632 0.87298 0.78074 0.0
C1388 C 0.46251 0.88337 0.75696 0.0
C1389 C 0.47857 0.88277 0.76671 0.0
C1390 C 0.42959 0.8511 0.8405 0.0
C1391 C 0.46275 0.89484 0.72083 0.0
H1392 H 0.38875 0.84831 0.71701 0.0
H1393 H 0.40599 0.89625 0.79273 0.0
H1394 H 0.4324 0.85178 0.70714 0.0
H1395 H 0.42042 0.83623 0.74846 0.0
H1396 H 0.40789 0.83587 0.70301 0.0
H1397 H 0.43453 0.91091 0.82712 0.0
H1398 H 0.44136 0.89464 0.84407 0.0
H1399 H 0.45282 0.90938 0.80127 0.0
H1400 H 0.46273 0.85301 0.84761 0.0
H1401 H 0.491 0.89063 0.74856 0.0
H1402 H 0.41808 0.84056 0.82159 0.0
H1403 H 0.42491 0.86035 0.85353 0.0
H1404 H 0.43225 0.84398 0.8662 0.0
H1405 H 0.45225 0.88585 0.69788 0.0
H1406 H 0.47647 0.90214 0.70553 0.0
H1407 H 0.45904 0.90524 0.73105 0.0
C1408 C 0.52616 0.40076 0.96826 0.0
C1409 C 0.52413 0.39202 0.93019 0.0
C1410 C 0.54248 0.41714 0.97816 0.0
C1411 C 0.55707 0.42504 0.94919 0.0
C1412 C 0.55513 0.41631 0.91076 0.0
C1413 C 0.53872 0.39987 0.90179 0.0
C1414 C 0.54407 0.42605 0.01951 0.0
C1415 C 0.57039 0.42433 0.87908 0.0
C1416 C 0.59245 0.47611 0.95836 0.0
C1417 C 0.60736 0.4756 0.97681 0.0
C1418 C 0.57598 0.45975 0.94922 0.0
C1419 C 0.57436 0.44249 0.95902 0.0
C1420 C 0.58933 0.44189 0.97787 0.0
C1421 C 0.60567 0.45846 0.98644 0.0
C1422 C 0.56037 0.46093 0.92879 0.0
C1423 C 0.58805 0.42375 0.98907 0.0
H1424 H 0.51487 0.39493 0.99015 0.0
H1425 H 0.53739 0.39306 0.87258 0.0
H1426 H 0.5563 0.42751 0.03629 0.0
H1427 H 0.54617 0.44015 0.01524 0.0
H1428 H 0.5316 0.41797 0.03888 0.0
H1429 H 0.56663 0.41592 0.85051 0.0
H1430 H 0.57371 0.43857 0.87096 0.0
H1431 H 0.58314 0.42529 0.89197 0.0
H1432 H 0.59378 0.48933 0.95045 0.0
H1433 H 0.61708 0.45802 0.00118 0.0
H1434 H 0.54775 0.45397 0.94811 0.0
H1435 H 0.55701 0.45361 0.8988 0.0
H1436 H 0.56379 0.47544 0.92343 0.0
H1437 H 0.5763 0.4159 0.01038 0.0
H1438 H 0.60088 0.42568 0.00389 0.0
H1439 H 0.58536 0.41516 0.96109 0.0
C1440 C 0.23453 0.43273 0.71462 0.0
C1441 C 0.2484 0.44867 0.69539 0.0
C1442 C 0.22427 0.43395 0.74726 0.0
C1443 C 0.2279 0.45155 0.76083 0.0
C1444 C 0.2419 0.46772 0.74161 0.0
C1445 C 0.25208 0.46609 0.70915 0.0
C1446 C 0.20957 0.41639 0.76728 0.0
C1447 C 0.24602 0.4867 0.75515 0.0
C1448 C 0.18835 0.45073 0.81952 0.0
C1449 C 0.19374 0.45074 0.86034 0.0
C1450 C 0.19977 0.45186 0.78673 0.0
C1451 C 0.21686 0.45284 0.79507 0.0
C1452 C 0.22265 0.45349 0.83626 0.0
C1453 C 0.21102 0.4525 0.86846 0.0
C1454 C 0.19323 0.45133 0.74319 0.0
C1455 C 0.24072 0.45438 0.84632 0.0
H1456 H 0.23188 0.41926 0.70444 0.0
H1457 H 0.26274 0.47842 0.69412 0.0
H1458 H 0.21253 0.41654 0.80059 0.0
H1459 H 0.19589 0.41545 0.76444 0.0
H1460 H 0.20865 0.40381 0.75334 0.0
H1461 H 0.25741 0.49789 0.73711 0.0
H1462 H 0.23347 0.48794 0.75175 0.0
H1463 H 0.24987 0.48877 0.78818 0.0
H1464 H 0.17509 0.44962 0.81326 0.0
H1465 H 0.21514 0.45235 0.90002 0.0
H1466 H 0.1905 0.43828 0.72815 0.0
H1467 H 0.2041 0.4629 0.72502 0.0
H1468 H 0.18039 0.45219 0.74196 0.0
H1469 H 0.24015 0.4414 0.83632 0.0
H1470 H 0.24387 0.45627 0.87976 0.0
H1471 H 0.25226 0.4659 0.8294 0.0
C1472 C 0.75956 0.19559 0.01062 0.0
C1473 C 0.74537 0.19732 0.02927 0.0
C1474 C 0.76963 0.20691 0.97758 0.0
C1475 C 0.76537 0.22028 0.96276 0.0
C1476 C 0.75106 0.22212 0.98141 0.0
C1477 C 0.74125 0.21064 0.01461 0.0
C1478 C 0.7849 0.20464 0.9587 0.0
C1479 C 0.7461 0.23616 0.96619 0.0
C1480 C 0.80351 0.25977 0.90253 0.0
C1481 C 0.79845 0.25371 0.8619 0.0
C1482 C 0.79255 0.24929 0.93567 0.0
C1483 C 0.77611 0.2324 0.92793 0.0
C1484 C 0.77061 0.22651 0.88693 0.0
C1485 C 0.7819 0.23723 0.85436 0.0
C1486 C 0.79892 0.25594 0.979 0.0
C1487 C 0.75309 0.20864 0.8775 0.0
H1488 H 0.76296 0.18549 0.02227 0.0
H1489 H 0.73018 0.21189 0.02875 0.0
H1490 H 0.78209 0.20127 0.92554 0.0
H1491 H 0.79824 0.2178 0.96101 0.0
H1492 H 0.78643 0.19356 0.97386 0.0
H1493 H 0.73452 0.23575 0.98388 0.0
H1494 H 0.75828 0.25027 0.96848 0.0
H1495 H 0.74212 0.23362 0.93326 0.0
H1496 H 0.8164 0.27241 0.90849 0.0
H1497 H 0.77785 0.23263 0.82294 0.0
H1498 H 0.8022 0.24618 0.99492 0.0
H1499 H 0.78775 0.25629 0.9967 0.0
H1500 H 0.81139 0.26994 0.97971 0.0
H1501 H 0.75432 0.19681 0.88908 0.0
H1502 H 0.7501 0.20671 0.844 0.0
H1503 H 0.74117 0.20826 0.89347 0.0
C1504 C 0.55912 0.76492 0.1981 0.0
C1505 C 0.54313 0.74917 0.21202 0.0
C1506 C 0.55843 0.77529 0.16503 0.0
C1507 C 0.5413 0.76985 0.14561 0.0
C1508 C 0.52501 0.75422 0.16015 0.0
C1509 C 0.52614 0.74398 0.19311 0.0
C1510 C 0.57614 0.79179 0.15014 0.0
C1511 C 0.50648 0.74816 0.14046 0.0
C1512 C 0.54037 0.80674 0.07947 0.0
C1513 C 0.54378 0.80208 0.04027 0.0
C1514 C 0.53873 0.79591 0.11392 0.0
C1515 C 0.54071 0.78016 0.10902 0.0
C1516 C 0.5435 0.77501 0.06935 0.0
C1517 C 0.54492 0.78599 0.03543 0.0
C1518 C 0.53563 0.80174 0.15574 0.0
C1519 C 0.54568 0.7583 0.06292 0.0
H1520 H 0.57232 0.76881 0.21228 0.0
H1521 H 0.51374 0.73188 0.20409 0.0
H1522 H 0.57893 0.78945 0.11798 0.0
H1523 H 0.57477 0.80432 0.1502 0.0
H1524 H 0.58822 0.7945 0.16943 0.0
H1525 H 0.495 0.7363 0.15684 0.0
H1526 H 0.50366 0.7598 0.13997 0.0
H1527 H 0.50663 0.74407 0.10806 0.0
H1528 H 0.53964 0.81924 0.08353 0.0
H1529 H 0.54719 0.78212 0.00509 0.0
H1530 H 0.54814 0.80634 0.17498 0.0
H1531 H 0.52401 0.78989 0.1717 0.0
H1532 H 0.53257 0.81322 0.15379 0.0
H1533 H 0.55834 0.76039 0.07881 0.0
H1534 H 0.54671 0.75559 0.02985 0.0
H1535 H 0.5338 0.74585 0.07654 0.0
C1536 C 0.78864 0.54907 0.37079 0.0
C1537 C 0.80479 0.54837 0.36297 0.0
C1538 C 0.77719 0.54839 0.33854 0.0
C1539 C 0.78208 0.54708 0.29752 0.0
C1540 C 0.79803 0.54578 0.28948 0.0
C1541 C 0.8092 0.54642 0.32234 0.0
C1542 C 0.76026 0.5498 0.34829 0.0
C1543 C 0.80364 0.54434 0.24609 0.0
C1544 C 0.7458 0.53397 0.21415 0.0
C1545 C 0.75033 0.55137 0.19836 0.0
C1546 C 0.75605 0.53231 0.24636 0.0
C1547 C 0.77122 0.54842 0.26295 0.0
C1548 C 0.77593 0.56599 0.24696 0.0
C1549 C 0.76539 0.56725 0.21498 0.0
C1550 C 0.75063 0.51336 0.26278 0.0
C1551 C 0.79202 0.5835 0.2639 0.0
H1552 H 0.78528 0.5508 0.40206 0.0
H1553 H 0.82153 0.54561 0.31621 0.0
H1554 H 0.76202 0.56297 0.33597 0.0
H1555 H 0.74789 0.53839 0.33322 0.0
H1556 H 0.75763 0.5493 0.38188 0.0
H1557 H 0.81574 0.54221 0.24525 0.0
H1558 H 0.79197 0.53274 0.22969 0.0
H1559 H 0.80719 0.55719 0.22895 0.0
H1560 H 0.7343 0.52163 0.2011 0.0
H1561 H 0.76878 0.58075 0.20341 0.0
H1562 H 0.74718 0.51256 0.29595 0.0
H1563 H 0.76242 0.51083 0.26001 0.0
H1564 H 0.73856 0.5022 0.24627 0.0
H1565 H 0.78971 0.58496 0.29695 0.0
H1566 H 0.7941 0.59604 0.24739 0.0
H1567 H 0.80492 0.58281 0.26161 0.0
C1568 C 0.21389 0.76288 0.35 0.0
C1569 C 0.19586 0.74911 0.3599 0.0
C1570 C 0.22602 0.77443 0.38057 0.0
C1571 C 0.2198 0.7723 0.42177 0.0
C1572 C 0.20163 0.75832 0.43193 0.0
C1573 C 0.1899 0.74679 0.40085 0.0
C1574 C 0.24539 0.789 0.36875 0.0
C1575 C 0.19443 0.7558 0.47545 0.0
C1576 C 0.25399 0.79182 0.50999 0.0
C1577 C 0.25402 0.80829 0.51835 0.0
C1578 C 0.24325 0.78016 0.47793 0.0
C1579 C 0.2321 0.785 0.45419 0.0
C1580 C 0.23224 0.80172 0.46225 0.0
C1581 C 0.24331 0.81324 0.49412 0.0
C1582 C 0.24365 0.76257 0.46979 0.0
C1583 C 0.22034 0.80721 0.43793 0.0
H1584 H 0.21852 0.76454 0.31833 0.0
H1585 H 0.17588 0.73626 0.40838 0.0
H1586 H 0.24747 0.80294 0.37533 0.0
H1587 H 0.25561 0.78738 0.38742 0.0
H1588 H 0.24832 0.7883 0.33566 0.0
H1589 H 0.18003 0.74412 0.47826 0.0
H1590 H 0.20339 0.75326 0.49645 0.0
H1591 H 0.19483 0.76863 0.48603 0.0
H1592 H 0.26241 0.78809 0.52856 0.0
H1593 H 0.24318 0.82588 0.5009 0.0
H1594 H 0.24723 0.76205 0.43714 0.0
H1595 H 0.22975 0.75043 0.47523 0.0
H1596 H 0.25376 0.76129 0.48969 0.0
H1597 H 0.22353 0.80781 0.40466 0.0
H1598 H 0.22233 0.82085 0.44756 0.0
H1599 H 0.20555 0.79665 0.4419 0.0
C1600 C 0.43344 0.23976 0.67187 0.0
C1601 C 0.44922 0.25544 0.68686 0.0
C1602 C 0.43458 0.22963 0.6388 0.0
C1603 C 0.45194 0.23531 0.62028 0.0
C1604 C 0.46795 0.25111 0.63526 0.0
C1605 C 0.4664 0.261 0.66846 0.0
C1606 C 0.4172 0.21278 0.6238 0.0
C1607 C 0.48668 0.25758 0.61617 0.0
C1608 C 0.45512 0.19818 0.55995 0.0
C1609 C 0.45169 0.20177 0.51976 0.0
C1610 C 0.4559 0.2094 0.59286 0.0
C1611 C 0.45321 0.22457 0.58531 0.0
C1612 C 0.45043 0.22868 0.5446 0.0
C1613 C 0.44968 0.2172 0.51229 0.0
C1614 C 0.45885 0.20456 0.63589 0.0
C1615 C 0.44761 0.24482 0.53535 0.0
H1616 H 0.42017 0.23522 0.68642 0.0
H1617 H 0.4786 0.27322 0.67972 0.0
H1618 H 0.41488 0.21445 0.59086 0.0
H1619 H 0.41874 0.20037 0.6263 0.0
H1620 H 0.40478 0.21026 0.6415 0.0
H1621 H 0.49777 0.27013 0.63147 0.0
H1622 H 0.49023 0.24646 0.61802 0.0
H1623 H 0.48635 0.26068 0.58309 0.0
H1624 H 0.45649 0.18615 0.56594 0.0
H1625 H 0.44728 0.22017 0.48116 0.0
H1626 H 0.44619 0.20023 0.65447 0.0
H1627 H 0.47028 0.21683 0.65115 0.0
H1628 H 0.46211 0.19319 0.63617 0.0
H1629 H 0.43453 0.24243 0.5496 0.0
H1630 H 0.44698 0.24693 0.50178 0.0
H1631 H 0.45898 0.25769 0.54888 0.0
C1632 C 0.0365 0.35889 0.89835 0.0
C1633 C 0.0349 0.36709 0.93466 0.0
C1634 C 0.02175 0.35039 0.8705 0.0
C1635 C 0.0051 0.35031 0.87891 0.0
C1636 C 0.00314 0.35793 0.91616 0.0
C1637 C 0.01803 0.36613 0.9437 0.0
C1638 C 0.02427 0.34221 0.83129 0.0
C1639 C 0.98558 0.35812 0.92619 0.0
C1640 C 0.97522 0.3499 0.79085 0.0
C1641 C 0.96019 0.33181 0.79283 0.0
C1642 C 0.99016 0.35593 0.81802 0.0
C1643 C 0.99019 0.34351 0.84756 0.0
C1644 C 0.97552 0.32498 0.84845 0.0
C1645 C 0.96063 0.31937 0.82118 0.0
C1646 C 0.00558 0.37581 0.81609 0.0
C1647 C 0.97521 0.31129 0.87919 0.0
H1648 H 0.04954 0.35975 0.89078 0.0
H1649 H 0.01657 0.37213 0.97201 0.0
H1650 H 0.01242 0.32805 0.82652 0.0
H1651 H 0.02466 0.3507 0.80467 0.0
H1652 H 0.03724 0.34157 0.83146 0.0
H1653 H 0.98593 0.3637 0.95739 0.0
H1654 H 0.98343 0.36674 0.90334 0.0
H1655 H 0.9735 0.34394 0.92421 0.0
H1656 H 0.97514 0.35949 0.7685 0.0
H1657 H 0.94899 0.30542 0.82322 0.0
H1658 H 0.0191 0.37646 0.81266 0.0
H1659 H 0.00605 0.38294 0.84526 0.0
H1660 H 0.00384 0.38349 0.7902 0.0
H1661 H 0.9885 0.31131 0.87851 0.0
H1662 H 0.96377 0.29701 0.87322 0.0
H1663 H 0.97354 0.31536 0.91067 0.0
C1664 C 0.61309 0.96776 0.97917 0.0
C1665 C 0.62388 0.96201 0.95776 0.0
C1666 C 0.62131 0.98344 0.00445 0.0
C1667 C 0.6408 0.99371 0.00794 0.0
C1668 C 0.65179 0.98812 0.9859 0.0
C1669 C 0.64318 0.97222 0.96126 0.0
C1670 C 0.60913 0.98887 0.02786 0.0
C1671 C 0.67263 0.99891 0.9884 0.0
C1672 C 0.66137 0.04327 0.04396 0.0
C1673 C 0.66501 0.04192 0.08559 0.0
C1674 C 0.65389 0.02777 0.01815 0.0
C1675 C 0.64964 0.0104 0.03447 0.0
C1676 C 0.65332 0.00889 0.07636 0.0
C1677 C 0.66106 0.0247 0.10139 0.0
C1678 C 0.65025 0.02994 0.97356 0.0
C1679 C 0.64884 0.99053 0.09487 0.0
H1680 H 0.59815 0.95968 0.97699 0.0
H1681 H 0.65151 0.96778 0.94456 0.0
H1682 H 0.6117 0.98896 0.06137 0.0
H1683 H 0.61252 0.00307 0.0192 0.0
H1684 H 0.5942 0.97932 0.02194 0.0
H1685 H 0.67917 0.99285 0.96887 0.0
H1686 H 0.67781 0.0134 0.97858 0.0
H1687 H 0.67713 -0.00066 0.02068 0.0
H1688 H 0.66401 0.05642 0.0316 0.0
H1689 H 0.66404 0.02356 0.13335 0.0
H1690 H 0.6352 0.02177 0.96721 0.0
H1691 H 0.65712 0.02449 0.95331 0.0
H1692 H 0.65524 0.04458 0.96517 0.0
H1693 H 0.63381 0.98061 0.092 0.0
H1694 H 0.65273 0.99173 0.12786 0.0
H1695 H 0.65618 0.98461 0.07785 0.0
C1696 C 0.66911 0.64307 0.12745 0.0
C1697 C 0.66088 0.62379 0.12811 0.0
C1698 C 0.66195 0.65205 0.15126 0.0
C1699 C 0.64644 0.64145 0.17679 0.0
C1700 C 0.63821 0.62197 0.1778 0.0
C1701 C 0.64546 0.61335 0.15316 0.0
C1702 C 0.67085 0.67282 0.14886 0.0
C1703 C 0.62182 0.61023 0.20511 0.0
C1704 C 0.63654 0.66439 0.26632 0.0
C1705 C 0.62172 0.66602 0.25098 0.0
C1706 C 0.6449 0.65662 0.24234 0.0
C1707 C 0.63848 0.65063 0.20184 0.0
C1708 C 0.62388 0.65268 0.18577 0.0
C1709 C 0.61555 0.66013 0.21065 0.0
C1710 C 0.66033 0.65446 0.26062 0.0
C1711 C 0.61678 0.64662 0.14254 0.0
H1712 H 0.68103 0.6511 0.10794 0.0
H1713 H 0.6393 0.59845 0.15411 0.0
H1714 H 0.66056 0.67664 0.13839 0.0
H1715 H 0.67564 0.67899 0.17978 0.0
H1716 H 0.68282 0.67902 0.12745 0.0
H1717 H 0.61738 0.59531 0.20312 0.0
H1718 H 0.62529 0.61473 0.23759 0.0
H1719 H 0.60999 0.61205 0.19638 0.0
H1720 H 0.6416 0.66913 0.29717 0.0
H1721 H 0.60386 0.66092 0.19868 0.0
H1722 H 0.67286 0.66155 0.24106 0.0
H1723 H 0.6562 0.63961 0.26155 0.0
H1724 H 0.66396 0.66015 0.29229 0.0
H1725 H 0.62837 0.65301 0.12024 0.0
H1726 H 0.60624 0.65037 0.13371 0.0
H1727 H 0.61053 0.63141 0.13986 0.0
C1728 C 0.0202 0.64678 0.28871 0.0
C1729 C 0.03504 0.665 0.28882 0.0
C1730 C 0.00558 0.64107 0.31668 0.0
C1731 C 0.00571 0.65396 0.34514 0.0
C1732 C 0.02017 0.67257 0.34415 0.0
C1733 C 0.03473 0.67786 0.31613 0.0
C1734 C 0.99036 0.62108 0.3168 0.0
C1735 C 0.02064 0.68673 0.37373 0.0
C1736 C 0.96012 0.63934 0.39862 0.0
C1737 C 0.9624 0.63208 0.43568 0.0
C1738 C 0.97438 0.64721 0.36948 0.0
C1739 C 0.99122 0.64761 0.37738 0.0
C1740 C 0.99386 0.6409 0.41528 0.0
C1741 C 0.97945 0.63331 0.44407 0.0
C1742 C 0.97116 0.65441 0.32957 0.0
C1743 C 0.01165 0.64109 0.42478 0.0
H1744 H 0.02019 0.63686 0.26721 0.0
H1745 H 0.04624 0.69191 0.31678 0.0
H1746 H 0.99043 0.61458 0.34651 0.0
H1747 H 0.97669 0.62014 0.31385 0.0
H1748 H 0.9919 0.61302 0.29148 0.0
H1749 H 0.03187 0.70095 0.36637 0.0
H1750 H 0.00724 0.6865 0.3733 0.0
H1751 H 0.02276 0.68332 0.40549 0.0
H1752 H 0.94692 0.63822 0.39157 0.0
H1753 H 0.98141 0.62801 0.4729 0.0
H1754 H 0.97061 0.64545 0.30379 0.0
H1755 H 0.98276 0.66854 0.32326 0.0
H1756 H 0.95805 0.65478 0.3299 0.0
H1757 H 0.01361 0.63213 0.40257 0.0
H1758 H 0.01181 0.63614 0.45641 0.0
H1759 H 0.0236 0.65528 0.42133 0.0
C1760 C 0.3604 0.0249 0.4678 0.0
C1761 C 0.3775 0.04044 0.477 0.0
C1762 C 0.35226 0.00979 0.49483 0.0
C1763 C 0.36134 0.01046 0.53213 0.0
C1764 C 0.3784 0.02633 0.54195 0.0
C1765 C 0.38635 0.04109 0.5141 0.0
C1766 C 0.33418 0.99296 0.48308 0.0
C1767 C 0.38836 0.02765 0.58167 0.0
C1768 C 0.33382 0.97698 0.61781 0.0
C1769 C 0.33937 0.96377 0.61386 0.0
C1770 C 0.34088 0.99233 0.59142 0.0
C1771 C 0.35348 0.99423 0.56004 0.0
C1772 C 0.3589 0.98075 0.55566 0.0
C1773 C 0.35186 0.96574 0.58283 0.0
C1774 C 0.33502 0.00659 0.59732 0.0
C1775 C 0.37207 0.98213 0.52219 0.0
H1776 H 0.35362 0.02441 0.43902 0.0
H1777 H 0.39945 0.05326 0.52146 0.0
H1778 H 0.33613 0.98081 0.48023 0.0
H1779 H 0.32373 0.98975 0.50748 0.0
H1780 H 0.32866 0.99486 0.45352 0.0
H1781 H 0.40101 0.04136 0.58563 0.0
H1782 H 0.37906 0.02514 0.60824 0.0
H1783 H 0.39237 0.01684 0.58242 0.0
H1784 H 0.32414 0.9754 0.64185 0.0
H1785 H 0.35587 0.95531 0.57934 0.0
H1786 H 0.32846 0.00789 0.56882 0.0
H1787 H 0.34733 0.02031 0.60339 0.0
H1788 H 0.32514 0.00309 0.62321 0.0
H1789 H 0.36656 0.98289 0.49166 0.0
H1790 H 0.37446 0.97019 0.52228 0.0
H1791 H 0.38557 0.995 0.52609 0.0
C1792 C 0.3381 0.36164 0.62632 0.0
C1793 C 0.32945 0.37096 0.64239 0.0
C1794 C 0.34569 0.3538 0.65245 0.0
C1795 C 0.34469 0.35544 0.6956 0.0
C1796 C 0.33572 0.36458 0.71199 0.0
C1797 C 0.32821 0.37224 0.68517 0.0
C1798 C 0.35509 0.34406 0.63389 0.0
C1799 C 0.3345 0.36673 0.75782 0.0
C1800 C 0.35297 0.32361 0.76458 0.0
C1801 C 0.37164 0.33495 0.77506 0.0
C1802 C 0.34395 0.33012 0.7389 0.0
C1803 C 0.35382 0.3484 0.72356 0.0
C1804 C 0.37256 0.36001 0.7346 0.0
C1805 C 0.38125 0.35312 0.76008 0.0
C1806 C 0.32393 0.31737 0.72777 0.0
C1807 C 0.38353 0.37962 0.71894 0.0
H1808 H 0.33894 0.3605 0.59327 0.0
H1809 H 0.32181 0.37971 0.69774 0.0
H1810 H 0.36994 0.35148 0.64233 0.0
H1811 H 0.34894 0.32984 0.64641 0.0
H1812 H 0.35395 0.34325 0.59982 0.0
H1813 H 0.32624 0.37339 0.7656 0.0
H1814 H 0.32818 0.35304 0.77312 0.0
H1815 H 0.34859 0.37525 0.77074 0.0
H1816 H 0.34541 0.30962 0.77639 0.0
H1817 H 0.39577 0.36187 0.76735 0.0
H1818 H 0.32254 0.31541 0.69394 0.0
H1819 H 0.3155 0.32364 0.7371 0.0
H1820 H 0.31817 0.30361 0.74264 0.0
H1821 H 0.38431 0.3796 0.68488 0.0
H1822 H 0.39781 0.38703 0.73144 0.0
H1823 H 0.37651 0.38745 0.72739 0.0
loop_
_geom_bond_atom_site_label_1
_geom_bond_atom_site_label_2
_geom_bond_distance
_geom_bond_site_symmetry_2
_ccdc_geom_bond_type
Li0 N17 1.990 . S
Li0 O60 1.956 . S
Li0 O61 1.970 . S
Li0 O62 1.961 1_554 S
Li1 N25 1.990 . S
Li1 O60 1.970 . S
Li1 O61 1.956 . S
Li1 O63 1.961 . S
Li2 N47 1.990 . S
Li2 O60 1.961 1_556 S
Li2 O62 1.956 . S
Li2 O63 1.970 1_556 S
Li3 N53 1.990 . S
Li3 O61 1.961 . S
Li3 O62 1.970 1_554 S
Li3 O63 1.956 . S
C4 C6 1.348 . S
C4 C7 1.356 . S
C4 O60 1.325 . S
N5 C8 1.314 . S
N5 C9 1.279 . S
C6 C4 1.348 . S
C6 C8 1.353 . S
C6 H64 0.929 . S
C7 C4 1.356 . S
C7 C9 1.358 . S
C7 H65 0.926 1_554 S
C8 N5 1.314 . S
C8 C6 1.353 . S
C8 H66 0.930 . S
C9 N5 1.279 . S
C9 C7 1.358 . S
C9 H67 0.930 . S
C10 C13 1.348 . S
C10 C14 1.356 . S
C10 O61 1.325 . S
C11 N12 1.279 . S
C11 C14 1.358 . S
C11 H68 0.930 . S
N12 C11 1.279 . S
N12 C15 1.314 . S
C13 C10 1.348 . S
C13 C15 1.353 . S
C13 H69 0.929 . S
C14 C10 1.356 . S
C14 C11 1.358 . S
C14 H70 0.930 . S
C15 N12 1.314 . S
C15 C13 1.353 . S
C15 H71 0.930 . S
C16 N17 1.314 . S
C16 C21 1.353 . S
C16 H22 0.930 . S
N17 Li0 1.990 . S
N17 C16 1.314 . S
N17 C19 1.279 . S
C18 C19 1.358 . S
C18 C20 1.356 . S
C18 H72 0.930 . S
C19 N17 1.279 . S
C19 C18 1.358 . S
C19 H23 0.930 . S
C20 C18 1.356 . S
C20 C21 1.348 . S
C21 C16 1.353 . S
C21 C20 1.348 . S
C21 H73 0.929 . S
H22 C16 0.930 . S
H23 C19 0.930 . S
C24 N25 1.314 . S
C24 C26 1.353 . S
C24 H30 0.930 . S
N25 Li1 1.990 . S
N25 C24 1.314 . S
N25 C28 1.279 . S
C26 C24 1.353 . S
C26 C29 1.348 . S
C26 H74 0.929 . S
C27 C28 1.358 . S
C27 C29 1.356 . S
C27 H75 0.930 . S
C28 N25 1.279 . S
C28 C27 1.358 . S
C28 H31 0.930 . S
C29 C26 1.348 . S
C29 C27 1.356 . S
H30 C24 0.930 . S
H31 C28 0.930 . S
C32 C34 1.348 . S
C32 C35 1.356 . S
C32 O62 1.325 . S
N33 C36 1.314 . S
N33 C37 1.279 . S
C34 C32 1.348 . S
C34 C36 1.353 . S
C34 H76 0.929 . S
C35 C32 1.356 . S
C35 C37 1.358 . S
C35 H77 0.930 . S
C36 N33 1.314 . S
C36 C34 1.353 . S
C36 H78 0.930 . S
C37 N33 1.279 . S
C37 C35 1.358 . S
C37 H79 0.930 . S
C38 C39 1.348 1_554 S
C38 C40 1.356 . S
C38 O63 1.325 . S
C39 C38 1.348 1_556 S
C39 C41 1.353 . S
C39 H80 0.929 . S
C40 C38 1.356 . S
C40 C42 1.358 . S
C40 H81 0.930 . S
C41 C39 1.353 . S
C41 N43 1.328 . S
C41 H82 0.930 . S
C42 C40 1.358 . S
C42 N43 1.262 1_554 S
C42 H83 0.930 . S
N43 C41 1.328 . S
N43 C42 1.262 1_556 S
C44 C46 1.353 . S
C44 N47 1.314 . S
C44 H50 0.930 . S
C45 N47 1.279 . S
C45 C48 1.358 . S
C45 H51 0.930 . S
C46 C44 1.353 . S
C46 C49 1.348 . S
C46 H84 0.929 . S
N47 Li2 1.990 . S
N47 C44 1.314 . S
N47 C45 1.279 . S
C48 C45 1.358 . S
C48 C49 1.356 . S
C48 H85 0.930 . S
C49 C46 1.348 . S
C49 C48 1.356 . S
H50 C44 0.930 . S
H51 C45 0.930 . S
C52 N53 1.314 . S
C52 C54 1.353 . S
C52 H58 0.930 . S
N53 Li3 1.990 . S
N53 C52 1.314 . S
N53 C56 1.279 1_554 S
C54 C52 1.353 . S
C54 C57 1.348 1_554 S
C54 H86 0.929 . S
C55 C56 1.358 . S
C55 C57 1.356 . S
C55 H87 0.930 . S
C56 N53 1.279 1_556 S
C56 C55 1.358 . S
C56 H59 0.930 . S
C57 C54 1.348 1_556 S
C57 C55 1.356 . S
H58 C52 0.930 . S
H59 C56 0.930 . S
O60 Li0 1.956 . S
O60 Li1 1.970 . S
O60 Li2 1.961 1_554 S
O60 C4 1.325 . S
O61 Li0 1.970 . S
O61 Li1 1.956 . S
O61 Li3 1.961 . S
O61 C10 1.325 . S
O62 Li0 1.961 1_556 S
O62 Li2 1.956 . S
O62 Li3 1.970 1_556 S
O62 C32 1.325 . S
O63 Li1 1.961 . S
O63 Li2 1.970 1_554 S
O63 Li3 1.956 . S
O63 C38 1.325 . S
H64 C6 0.929 . S
H65 C7 0.926 1_556 S
H66 C8 0.930 . S
H67 C9 0.930 . S
H68 C11 0.930 . S
H69 C13 0.929 . S
H70 C14 0.930 . S
H71 C15 0.930 . S
H72 C18 0.930 . S
H73 C21 0.929 . S
H74 C26 0.929 . S
H75 C27 0.930 . S
H76 C34 0.929 . S
H77 C35 0.930 . S
H78 C36 0.930 . S
H79 C37 0.930 . S
H80 C39 0.929 . S
H81 C40 0.930 . S
H82 C41 0.930 . S
H83 C42 0.930 . S
H84 C46 0.929 . S
H85 C48 0.930 . S
H86 C54 0.929 . S
H87 C55 0.930 . S
Li88 N105 1.990 . S
Li88 O148 1.956 . S
Li88 O149 1.970 . S
Li88 O150 1.961 . S
Li89 N113 1.990 . S
Li89 O148 1.970 . S
Li89 O149 1.956 . S
Li89 O151 1.961 . S
Li90 N135 1.990 . S
Li90 O148 1.961 . S
Li90 O150 1.956 . S
Li90 O151 1.970 . S
Li91 N141 1.990 . S
Li91 O149 1.961 . S
Li91 O150 1.970 . S
Li91 O151 1.956 . S
C92 C94 1.348 . S
C92 C95 1.356 . S
C92 O148 1.325 . S
N93 C96 1.314 . S
N93 C97 1.279 . S
C94 C92 1.348 . S
C94 C96 1.353 . S
C94 H152 0.929 . S
C95 C92 1.356 . S
C95 C97 1.358 . S
C95 H153 0.930 . S
C96 N93 1.314 . S
C96 C94 1.353 . S
C96 H154 0.930 . S
C97 N93 1.279 . S
C97 C95 1.358 . S
C97 H155 0.930 . S
C98 C101 1.348 . S
C98 C102 1.356 . S
C98 O149 1.325 . S
C99 N100 1.279 . S
C99 C102 1.358 . S
C99 H156 0.930 . S
N100 C99 1.279 . S
N100 C103 1.314 . S
C101 C98 1.348 . S
C101 C103 1.353 . S
C101 H157 0.929 . S
C102 C98 1.356 . S
C102 C99 1.358 . S
C102 H158 0.930 . S
C103 N100 1.314 . S
C103 C101 1.353 . S
C103 H159 0.930 . S
C104 N105 1.314 . S
C104 C109 1.353 . S
C104 H110 0.930 . S
N105 Li88 1.990 . S
N105 C104 1.314 . S
N105 C107 1.279 . S
C106 C107 1.358 . S
C106 C108 1.356 . S
C106 H160 0.930 . S
C107 N105 1.279 . S
C107 C106 1.358 . S
C107 H111 0.930 . S
C108 C106 1.356 . S
C108 C109 1.348 . S
C109 C104 1.353 . S
C109 C108 1.348 . S
C109 H161 0.929 . S
H110 C104 0.930 . S
H111 C107 0.930 . S
C112 N113 1.314 . S
C112 C114 1.353 . S
C112 H118 0.930 . S
N113 Li89 1.990 . S
N113 C112 1.314 . S
N113 C116 1.279 . S
C114 C112 1.353 . S
C114 C117 1.348 . S
C114 H162 0.929 . S
C115 C116 1.358 . S
C115 C117 1.356 . S
C115 H163 0.930 . S
C116 N113 1.279 . S
C116 C115 1.358 . S
C116 H119 0.930 . S
C117 C114 1.348 . S
C117 C115 1.356 . S
H118 C112 0.930 . S
H119 C116 0.930 . S
C120 C122 1.348 . S
C120 C123 1.356 . S
C120 O150 1.325 . S
N121 C124 1.314 . S
N121 C125 1.279 . S
C122 C120 1.348 . S
C122 C124 1.353 . S
C122 H164 0.929 . S
C123 C120 1.356 . S
C123 C125 1.358 . S
C123 H165 0.930 . S
C124 N121 1.314 . S
C124 C122 1.353 . S
C124 H166 0.930 . S
C125 N121 1.279 . S
C125 C123 1.358 . S
C125 H167 0.930 . S
C126 C127 1.348 . S
C126 C128 1.356 . S
C126 O151 1.325 . S
C127 C126 1.348 . S
C127 C129 1.353 . S
C127 H168 0.929 . S
C128 C126 1.356 . S
C128 C130 1.358 . S
C128 H169 0.930 . S
C129 C127 1.353 . S
C129 N131 1.314 . S
C129 H170 0.930 . S
C130 C128 1.358 . S
C130 N131 1.279 . S
C130 H171 0.930 . S
N131 C129 1.314 . S
N131 C130 1.279 . S
C132 C134 1.353 . S
C132 N135 1.314 . S
C132 H138 0.930 . S
C133 N135 1.279 . S
C133 C136 1.358 . S
C133 H139 0.930 . S
C134 C132 1.353 . S
C134 C137 1.348 . S
C134 H172 0.929 . S
N135 Li90 1.990 . S
N135 C132 1.314 . S
N135 C133 1.279 . S
C136 C133 1.358 . S
C136 C137 1.356 . S
C136 H173 0.930 . S
C137 C134 1.348 . S
C137 C136 1.356 . S
H138 C132 0.930 . S
H139 C133 0.930 . S
C140 N141 1.314 . S
C140 C142 1.353 . S
C140 H146 0.930 . S
N141 Li91 1.990 . S
N141 C140 1.314 . S
N141 C144 1.279 . S
C142 C140 1.353 . S
C142 C145 1.348 . S
C142 H174 0.929 . S
C143 C144 1.358 . S
C143 C145 1.356 . S
C143 H175 0.930 . S
C144 N141 1.279 . S
C144 C143 1.358 . S
C144 H147 0.930 . S
C145 C142 1.348 . S
C145 C143 1.356 . S
H146 C140 0.930 . S
H147 C144 0.930 . S
O148 Li88 1.956 . S
O148 Li89 1.970 . S
O148 Li90 1.961 . S
O148 C92 1.325 . S
O149 Li88 1.970 . S
O149 Li89 1.956 . S
O149 Li91 1.961 . S
O149 C98 1.325 . S
O150 Li88 1.961 . S
O150 Li90 1.956 . S
O150 Li91 1.970 . S
O150 C120 1.325 . S
O151 Li89 1.961 . S
O151 Li90 1.970 . S
O151 Li91 1.956 . S
O151 C126 1.325 . S
H152 C94 0.929 . S
H153 C95 0.930 . S
H154 C96 0.930 . S
H155 C97 0.930 . S
H156 C99 0.930 . S
H157 C101 0.929 . S
H158 C102 0.930 . S
H159 C103 0.930 . S
H160 C106 0.930 . S
H161 C109 0.929 . S
H162 C114 0.929 . S
H163 C115 0.930 . S
H164 C122 0.929 . S
H165 C123 0.930 . S
H166 C124 0.930 . S
H167 C125 0.930 . S
H168 C127 0.929 . S
H169 C128 0.930 . S
H170 C129 0.930 . S
H171 C130 0.930 . S
H172 C134 0.929 . S
H173 C136 0.930 . S
H174 C142 0.929 . S
H175 C143 0.930 . S
Li176 N193 1.990 . S
Li176 O236 1.956 . S
Li176 O237 1.970 . S
Li176 O238 1.961 . S
Li177 N201 1.990 . S
Li177 O236 1.970 . S
Li177 O237 1.956 . S
Li177 O239 1.961 . S
Li178 N223 1.990 . S
Li178 O236 1.961 . S
Li178 O238 1.956 . S
Li178 O239 1.970 . S
Li179 N229 1.990 . S
Li179 O237 1.961 . S
Li179 O238 1.970 . S
Li179 O239 1.956 . S
C180 C182 1.348 . S
C180 C183 1.356 . S
C180 O236 1.325 . S
N181 C184 1.314 . S
N181 C185 1.279 . S
C182 C180 1.348 . S
C182 C184 1.353 . S
C182 H240 0.929 . S
C183 C180 1.356 . S
C183 C185 1.358 . S
C183 H241 0.930 . S
C184 N181 1.314 . S
C184 C182 1.353 . S
C184 H242 0.930 . S
C185 N181 1.279 . S
C185 C183 1.358 . S
C185 H243 0.930 . S
C186 C189 1.348 . S
C186 C190 1.356 . S
C186 O237 1.325 . S
C187 N188 1.279 . S
C187 C190 1.358 . S
C187 H244 0.930 . S
N188 C187 1.279 . S
N188 C191 1.314 . S
C189 C186 1.348 . S
C189 C191 1.353 . S
C189 H245 0.929 . S
C190 C186 1.356 . S
C190 C187 1.358 . S
C190 H246 0.930 . S
C191 N188 1.314 . S
C191 C189 1.353 . S
C191 H247 0.930 . S
C192 N193 1.314 . S
C192 C197 1.353 . S
C192 H198 0.930 . S
N193 Li176 1.990 . S
N193 C192 1.314 . S
N193 C195 1.279 . S
C194 C195 1.358 . S
C194 C196 1.356 . S
C194 H248 0.930 . S
C195 N193 1.279 . S
C195 C194 1.358 . S
C195 H199 0.930 . S
C196 C194 1.356 . S
C196 C197 1.348 . S
C197 C192 1.353 . S
C197 C196 1.348 . S
C197 H249 0.929 . S
H198 C192 0.930 . S
H199 C195 0.930 . S
C200 N201 1.314 . S
C200 C202 1.353 . S
C200 H206 0.930 . S
N201 Li177 1.990 . S
N201 C200 1.314 . S
N201 C204 1.279 . S
C202 C200 1.353 . S
C202 C205 1.348 . S
C202 H250 0.929 . S
C203 C204 1.358 . S
C203 C205 1.356 . S
C203 H251 0.930 . S
C204 N201 1.279 . S
C204 C203 1.358 . S
C204 H207 0.930 . S
C205 C202 1.348 . S
C205 C203 1.356 . S
H206 C200 0.930 . S
H207 C204 0.930 . S
C208 C210 1.348 . S
C208 C211 1.356 . S
C208 O238 1.325 . S
N209 C212 1.314 . S
N209 C213 1.279 . S
C210 C208 1.348 . S
C210 C212 1.353 . S
C210 H252 0.929 . S
C211 C208 1.356 . S
C211 C213 1.358 . S
C211 H253 0.930 . S
C212 N209 1.314 . S
C212 C210 1.353 . S
C212 H254 0.930 . S
C213 N209 1.279 . S
C213 C211 1.358 . S
C213 H255 0.930 . S
C214 C215 1.348 . S
C214 C216 1.356 . S
C214 O239 1.325 . S
C215 C214 1.348 . S
C215 C217 1.353 . S
C215 H256 0.929 . S
C216 C214 1.356 . S
C216 C218 1.358 . S
C216 H257 0.930 . S
C217 C215 1.353 . S
C217 N219 1.314 . S
C217 H258 0.930 . S
C218 C216 1.358 . S
C218 N219 1.279 . S
C218 H259 0.930 . S
N219 C217 1.314 . S
N219 C218 1.279 . S
C220 C222 1.353 . S
C220 N223 1.314 . S
C220 H226 0.930 . S
C221 N223 1.279 . S
C221 C224 1.358 . S
C221 H227 0.930 . S
C222 C220 1.353 . S
C222 C225 1.348 . S
C222 H260 0.929 . S
N223 Li178 1.990 . S
N223 C220 1.314 . S
N223 C221 1.279 . S
C224 C221 1.358 . S
C224 C225 1.356 . S
C224 H261 0.930 . S
C225 C222 1.348 . S
C225 C224 1.356 . S
H226 C220 0.930 . S
H227 C221 0.930 . S
C228 N229 1.314 . S
C228 C230 1.353 . S
C228 H234 0.930 . S
N229 Li179 1.990 . S
N229 C228 1.314 . S
N229 C232 1.279 . S
C230 C228 1.353 . S
C230 C233 1.348 . S
C230 H262 0.929 . S
C231 C232 1.358 . S
C231 C233 1.356 . S
C231 H263 0.930 . S
C232 N229 1.279 . S
C232 C231 1.358 . S
C232 H235 0.930 . S
C233 C230 1.348 . S
C233 C231 1.356 . S
H234 C228 0.930 . S
H235 C232 0.930 . S
O236 Li176 1.956 . S
O236 Li177 1.970 . S
O236 Li178 1.961 . S
O236 C180 1.325 . S
O237 Li176 1.970 . S
O237 Li177 1.956 . S
O237 Li179 1.961 . S
O237 C186 1.325 . S
O238 Li176 1.961 . S
O238 Li178 1.956 . S
O238 Li179 1.970 . S
O238 C208 1.325 . S
O239 Li177 1.961 . S
O239 Li178 1.970 . S
O239 Li179 1.956 . S
O239 C214 1.325 . S
H240 C182 0.929 . S
H241 C183 0.930 . S
H242 C184 0.930 . S
H243 C185 0.930 . S
H244 C187 0.930 . S
H245 C189 0.929 . S
H246 C190 0.930 . S
H247 C191 0.930 . S
H248 C194 0.930 . S
H249 C197 0.929 . S
H250 C202 0.929 . S
H251 C203 0.930 . S
H252 C210 0.929 . S
H253 C211 0.930 . S
H254 C212 0.930 . S
H255 C213 0.930 . S
H256 C215 0.929 . S
H257 C216 0.930 . S
H258 C217 0.930 . S
H259 C218 0.930 . S
H260 C222 0.929 . S
H261 C224 0.930 . S
H262 C230 0.929 . S
H263 C231 0.930 . S
Li264 N281 1.990 . S
Li264 O324 1.956 . S
Li264 O325 1.970 . S
Li264 O326 1.961 . S
Li265 N289 1.990 . S
Li265 O324 1.970 . S
Li265 O325 1.956 . S
Li265 O327 1.961 . S
Li266 N311 1.990 . S
Li266 O324 1.961 . S
Li266 O326 1.956 . S
Li266 O327 1.970 . S
Li267 N317 1.990 . S
Li267 O325 1.961 . S
Li267 O326 1.970 . S
Li267 O327 1.956 . S
C268 C270 1.348 . S
C268 C271 1.356 . S
C268 O324 1.325 . S
N269 C272 1.314 . S
N269 C273 1.279 . S
C270 C268 1.348 . S
C270 C272 1.353 . S
C270 H328 0.929 . S
C271 C268 1.356 . S
C271 C273 1.358 . S
C271 H329 0.930 . S
C272 N269 1.314 . S
C272 C270 1.353 . S
C272 H330 0.930 . S
C273 N269 1.279 . S
C273 C271 1.358 . S
C273 H331 0.930 . S
C274 C277 1.348 . S
C274 C278 1.356 . S
C274 O325 1.325 . S
C275 N276 1.279 . S
C275 C278 1.358 . S
C275 H332 0.930 . S
N276 C275 1.279 . S
N276 C279 1.314 . S
C277 C274 1.348 . S
C277 C279 1.353 . S
C277 H333 0.929 . S
C278 C274 1.356 . S
C278 C275 1.358 . S
C278 H334 0.930 . S
C279 N276 1.314 . S
C279 C277 1.353 . S
C279 H335 0.930 . S
C280 N281 1.314 . S
C280 C285 1.353 . S
C280 H286 0.930 . S
N281 Li264 1.990 . S
N281 C280 1.314 . S
N281 C283 1.279 . S
C282 C283 1.358 . S
C282 C284 1.356 . S
C282 H336 0.930 . S
C283 N281 1.279 . S
C283 C282 1.358 . S
C283 H287 0.930 . S
C284 C282 1.356 . S
C284 C285 1.348 . S
C285 C280 1.353 . S
C285 C284 1.348 . S
C285 H337 0.929 . S
H286 C280 0.930 . S
H287 C283 0.930 . S
C288 N289 1.314 . S
C288 C290 1.353 . S
C288 H294 0.930 . S
N289 Li265 1.990 . S
N289 C288 1.314 . S
N289 C292 1.279 . S
C290 C288 1.353 . S
C290 C293 1.348 . S
C290 H338 0.929 . S
C291 C292 1.358 . S
C291 C293 1.356 . S
C291 H339 0.930 . S
C292 N289 1.279 . S
C292 C291 1.358 . S
C292 H295 0.930 . S
C293 C290 1.348 . S
C293 C291 1.356 . S
H294 C288 0.930 . S
H295 C292 0.930 . S
C296 C298 1.348 . S
C296 C299 1.356 . S
C296 O326 1.325 . S
N297 C300 1.314 . S
N297 C301 1.279 . S
C298 C296 1.348 . S
C298 C300 1.353 . S
C298 H340 0.929 . S
C299 C296 1.356 . S
C299 C301 1.358 . S
C299 H341 0.930 . S
C300 N297 1.314 . S
C300 C298 1.353 . S
C300 H342 0.930 . S
C301 N297 1.279 . S
C301 C299 1.358 . S
C301 H343 0.930 . S
C302 C303 1.348 . S
C302 C304 1.356 . S
C302 O327 1.325 . S
C303 C302 1.348 . S
C303 C305 1.353 . S
C303 H344 0.929 . S
C304 C302 1.356 . S
C304 C306 1.358 . S
C304 H345 0.930 . S
C305 C303 1.353 . S
C305 N307 1.314 . S
C305 H346 0.930 . S
C306 C304 1.358 . S
C306 N307 1.279 . S
C306 H347 0.930 . S
N307 C305 1.314 . S
N307 C306 1.279 . S
C308 C310 1.353 . S
C308 N311 1.314 . S
C308 H314 0.930 . S
C309 N311 1.279 . S
C309 C312 1.358 . S
C309 H315 0.930 . S
C310 C308 1.353 . S
C310 C313 1.348 . S
C310 H348 0.929 . S
N311 Li266 1.990 . S
N311 C308 1.314 . S
N311 C309 1.279 . S
C312 C309 1.358 . S
C312 C313 1.356 . S
C312 H349 0.930 . S
C313 C310 1.348 . S
C313 C312 1.356 . S
H314 C308 0.930 . S
H315 C309 0.930 . S
C316 N317 1.314 . S
C316 C318 1.353 . S
C316 H322 0.930 . S
N317 Li267 1.990 . S
N317 C316 1.314 . S
N317 C320 1.279 . S
C318 C316 1.353 . S
C318 C321 1.348 . S
C318 H350 0.929 . S
C319 C320 1.358 . S
C319 C321 1.356 . S
C319 H351 0.930 . S
C320 N317 1.279 . S
C320 C319 1.358 . S
C320 H323 0.930 . S
C321 C318 1.348 . S
C321 C319 1.356 . S
H322 C316 0.930 . S
H323 C320 0.930 . S
O324 Li264 1.956 . S
O324 Li265 1.970 . S
O324 Li266 1.961 . S
O324 C268 1.325 . S
O325 Li264 1.970 . S
O325 Li265 1.956 . S
O325 Li267 1.961 . S
O325 C274 1.325 . S
O326 Li264 1.961 . S
O326 Li266 1.956 . S
O326 Li267 1.970 . S
O326 C296 1.325 . S
O327 Li265 1.961 . S
O327 Li266 1.970 . S
O327 Li267 1.956 . S
O327 C302 1.325 . S
H328 C270 0.929 . S
H329 C271 0.930 . S
H330 C272 0.930 . S
H331 C273 0.930 . S
H332 C275 0.930 . S
H333 C277 0.929 . S
H334 C278 0.930 . S
H335 C279 0.930 . S
H336 C282 0.930 . S
H337 C285 0.929 . S
H338 C290 0.929 . S
H339 C291 0.930 . S
H340 C298 0.929 . S
H341 C299 0.930 . S
H342 C300 0.930 . S
H343 C301 0.930 . S
H344 C303 0.929 . S
H345 C304 0.930 . S
H346 C305 0.930 . S
H347 C306 0.930 . S
H348 C310 0.929 . S
H349 C312 0.930 . S
H350 C318 0.929 . S
H351 C319 0.930 . S
Li352 N369 1.990 . S
Li352 O412 1.956 . S
Li352 O413 1.970 . S
Li352 O414 1.961 . S
Li353 N377 1.990 . S
Li353 O412 1.970 . S
Li353 O413 1.956 . S
Li353 O415 1.961 . S
Li354 N399 1.990 . S
Li354 O412 1.961 . S
Li354 O414 1.956 . S
Li354 O415 1.970 . S
Li355 N405 1.990 . S
Li355 O413 1.961 . S
Li355 O414 1.970 . S
Li355 O415 1.956 . S
C356 C358 1.348 . S
C356 C359 1.356 . S
C356 O412 1.325 . S
N357 C360 1.314 . S
N357 C361 1.279 . S
C358 C356 1.348 . S
C358 C360 1.353 . S
C358 H416 0.929 . S
C359 C356 1.356 . S
C359 C361 1.358 . S
C359 H417 0.930 . S
C360 N357 1.314 . S
C360 C358 1.353 . S
C360 H418 0.930 . S
C361 N357 1.279 . S
C361 C359 1.358 . S
C361 H419 0.930 . S
C362 C365 1.348 . S
C362 C366 1.356 . S
C362 O413 1.325 . S
C363 N364 1.279 . S
C363 C366 1.358 . S
C363 H420 0.930 . S
N364 C363 1.279 . S
N364 C367 1.314 . S
C365 C362 1.348 . S
C365 C367 1.353 . S
C365 H421 0.929 . S
C366 C362 1.356 . S
C366 C363 1.358 . S
C366 H422 0.930 . S
C367 N364 1.314 . S
C367 C365 1.353 . S
C367 H423 0.930 . S
C368 N369 1.314 . S
C368 C373 1.353 . S
C368 H374 0.930 . S
N369 Li352 1.990 . S
N369 C368 1.314 . S
N369 C371 1.279 . S
C370 C371 1.358 . S
C370 C372 1.356 . S
C370 H424 0.930 . S
C371 N369 1.279 . S
C371 C370 1.358 . S
C371 H375 0.930 . S
C372 C370 1.356 . S
C372 C373 1.348 . S
C373 C368 1.353 . S
C373 C372 1.348 . S
C373 H425 0.929 . S
H374 C368 0.930 . S
H375 C371 0.930 . S
C376 N377 1.314 . S
C376 C378 1.353 . S
C376 H382 0.930 . S
N377 Li353 1.990 . S
N377 C376 1.314 . S
N377 C380 1.279 . S
C378 C376 1.353 . S
C378 C381 1.348 . S
C378 H426 0.929 . S
C379 C380 1.358 . S
C379 C381 1.356 . S
C379 H427 0.930 . S
C380 N377 1.279 . S
C380 C379 1.358 . S
C380 H383 0.930 . S
C381 C378 1.348 . S
C381 C379 1.356 . S
H382 C376 0.930 . S
H383 C380 0.930 . S
C384 C386 1.348 . S
C384 C387 1.356 . S
C384 O414 1.325 . S
N385 C388 1.314 . S
N385 C389 1.279 . S
C386 C384 1.348 . S
C386 C388 1.353 . S
C386 H428 0.929 . S
C387 C384 1.356 . S
C387 C389 1.358 . S
C387 H429 0.930 . S
C388 N385 1.314 . S
C388 C386 1.353 . S
C388 H430 0.930 . S
C389 N385 1.279 . S
C389 C387 1.358 . S
C389 H431 0.930 . S
C390 C391 1.348 . S
C390 C392 1.356 . S
C390 O415 1.325 . S
C391 C390 1.348 . S
C391 C393 1.353 . S
C391 H432 0.929 . S
C392 C390 1.356 . S
C392 C394 1.358 . S
C392 H433 0.930 . S
C393 C391 1.353 . S
C393 N395 1.314 . S
C393 H434 0.930 . S
C394 C392 1.358 . S
C394 N395 1.279 . S
C394 H435 0.930 . S
N395 C393 1.314 . S
N395 C394 1.279 . S
C396 C398 1.353 . S
C396 N399 1.314 . S
C396 H402 0.930 . S
C397 N399 1.279 . S
C397 C400 1.358 . S
C397 H403 0.930 . S
C398 C396 1.353 . S
C398 C401 1.348 . S
C398 H436 0.929 . S
N399 Li354 1.990 . S
N399 C396 1.314 . S
N399 C397 1.279 . S
C400 C397 1.358 . S
C400 C401 1.356 . S
C400 H437 0.930 . S
C401 C398 1.348 . S
C401 C400 1.356 . S
H402 C396 0.930 . S
H403 C397 0.930 . S
C404 N405 1.314 . S
C404 C406 1.353 . S
C404 H410 0.930 . S
N405 Li355 1.990 . S
N405 C404 1.314 . S
N405 C408 1.279 . S
C406 C404 1.353 . S
C406 C409 1.348 . S
C406 H438 0.929 . S
C407 C408 1.358 . S
C407 C409 1.356 . S
C407 H439 0.930 . S
C408 N405 1.279 . S
C408 C407 1.358 . S
C408 H411 0.930 . S
C409 C406 1.348 . S
C409 C407 1.356 . S
H410 C404 0.930 . S
H411 C408 0.930 . S
O412 Li352 1.956 . S
O412 Li353 1.970 . S
O412 Li354 1.961 . S
O412 C356 1.325 . S
O413 Li352 1.970 . S
O413 Li353 1.956 . S
O413 Li355 1.961 . S
O413 C362 1.325 . S
O414 Li352 1.961 . S
O414 Li354 1.956 . S
O414 Li355 1.970 . S
O414 C384 1.325 . S
O415 Li353 1.961 . S
O415 Li354 1.970 . S
O415 Li355 1.956 . S
O415 C390 1.325 . S
H416 C358 0.929 . S
H417 C359 0.930 . S
H418 C360 0.930 . S
H419 C361 0.930 . S
H420 C363 0.930 . S
H421 C365 0.929 . S
H422 C366 0.930 . S
H423 C367 0.930 . S
H424 C370 0.930 . S
H425 C373 0.929 . S
H426 C378 0.929 . S
H427 C379 0.930 . S
H428 C386 0.929 . S
H429 C387 0.930 . S
H430 C388 0.930 . S
H431 C389 0.930 . S
H432 C391 0.929 . S
H433 C392 0.930 . S
H434 C393 0.930 . S
H435 C394 0.930 . S
H436 C398 0.929 . S
H437 C400 0.930 . S
H438 C406 0.929 . S
H439 C407 0.930 . S
Li440 N457 1.990 . S
Li440 O500 1.956 . S
Li440 O501 1.970 . S
Li440 O502 1.961 . S
Li441 N465 1.990 . S
Li441 O500 1.970 . S
Li441 O501 1.956 . S
Li441 O503 1.961 . S
Li442 N487 1.990 . S
Li442 O500 1.961 . S
Li442 O502 1.956 . S
Li442 O503 1.970 . S
Li443 N493 1.990 . S
Li443 O501 1.961 . S
Li443 O502 1.970 . S
Li443 O503 1.956 . S
C444 C446 1.348 . S
C444 C447 1.356 . S
C444 O500 1.325 . S
N445 C448 1.314 . S
N445 C449 1.279 . S
C446 C444 1.348 . S
C446 C448 1.353 . S
C446 H504 0.929 . S
C447 C444 1.356 . S
C447 C449 1.358 . S
C447 H505 0.930 . S
C448 N445 1.314 . S
C448 C446 1.353 . S
C448 H506 0.930 . S
C449 N445 1.279 . S
C449 C447 1.358 . S
C449 H507 0.930 . S
C450 C453 1.348 . S
C450 C454 1.356 . S
C450 O501 1.325 . S
C451 N452 1.279 1_556 S
C451 C454 1.358 . S
C451 H508 0.930 . S
N452 C451 1.279 1_554 S
N452 C455 1.314 1_554 S
C453 C450 1.348 . S
C453 C455 1.353 . S
C453 H509 0.929 . S
C454 C450 1.356 . S
C454 C451 1.358 . S
C454 H510 0.930 . S
C455 N452 1.314 1_556 S
C455 C453 1.353 . S
C455 H511 0.930 1_556 S
C456 N457 1.314 . S
C456 C461 1.353 . S
C456 H462 0.930 . S
N457 Li440 1.990 . S
N457 C456 1.314 . S
N457 C459 1.279 . S
C458 C459 1.358 . S
C458 C460 1.356 . S
C458 H512 0.930 . S
C459 N457 1.279 . S
C459 C458 1.358 . S
C459 H463 0.930 . S
C460 C458 1.356 . S
C460 C461 1.348 . S
C461 C456 1.353 . S
C461 C460 1.348 . S
C461 H513 0.929 . S
H462 C456 0.930 . S
H463 C459 0.930 . S
C464 N465 1.314 . S
C464 C466 1.353 . S
C464 H470 0.930 . S
N465 Li441 1.990 . S
N465 C464 1.314 . S
N465 C468 1.279 . S
C466 C464 1.353 . S
C466 C469 1.348 1_556 S
C466 H514 0.929 . S
C467 C468 1.358 1_554 S
C467 C469 1.356 . S
C467 H515 0.930 . S
C468 N465 1.279 . S
C468 C467 1.358 1_556 S
C468 H471 0.930 . S
C469 C466 1.348 1_554 S
C469 C467 1.356 . S
H470 C464 0.930 . S
H471 C468 0.930 . S
C472 C474 1.348 . S
C472 C475 1.356 . S
C472 O502 1.325 . S
N473 C476 1.314 . S
N473 C477 1.279 . S
C474 C472 1.348 . S
C474 C476 1.353 . S
C474 H516 0.929 . S
C475 C472 1.356 . S
C475 C477 1.358 . S
C475 H517 0.930 . S
C476 N473 1.314 . S
C476 C474 1.353 . S
C476 H518 0.930 . S
C477 N473 1.279 . S
C477 C475 1.358 . S
C477 H519 0.930 . S
C478 C479 1.348 . S
C478 C480 1.356 . S
C478 O503 1.325 . S
C479 C478 1.348 . S
C479 C481 1.353 . S
C479 H520 0.929 . S
C480 C478 1.356 . S
C480 C482 1.358 . S
C480 H521 0.930 . S
C481 C479 1.353 . S
C481 N483 1.314 . S
C481 H522 0.930 . S
C482 C480 1.358 . S
C482 N483 1.279 . S
C482 H523 0.930 . S
N483 C481 1.314 . S
N483 C482 1.279 . S
C484 C486 1.353 . S
C484 N487 1.314 . S
C484 H490 0.930 . S
C485 N487 1.279 . S
C485 C488 1.358 . S
C485 H491 0.930 . S
C486 C484 1.353 . S
C486 C489 1.348 . S
C486 H524 0.929 . S
N487 Li442 1.990 . S
N487 C484 1.314 . S
N487 C485 1.279 . S
C488 C485 1.358 . S
C488 C489 1.356 . S
C488 H525 0.930 . S
C489 C486 1.348 . S
C489 C488 1.356 . S
H490 C484 0.930 . S
H491 C485 0.930 . S
C492 N493 1.314 . S
C492 C494 1.353 . S
C492 H498 0.930 . S
N493 Li443 1.990 . S
N493 C492 1.314 . S
N493 C496 1.279 . S
C494 C492 1.353 . S
C494 C497 1.348 . S
C494 H526 0.929 . S
C495 C496 1.358 . S
C495 C497 1.356 . S
C495 H527 0.930 . S
C496 N493 1.279 . S
C496 C495 1.358 . S
C496 H499 0.930 . S
C497 C494 1.348 . S
C497 C495 1.356 . S
H498 C492 0.930 . S
H499 C496 0.930 . S
O500 Li440 1.956 . S
O500 Li441 1.970 . S
O500 Li442 1.961 . S
O500 C444 1.325 . S
O501 Li440 1.970 . S
O501 Li441 1.956 . S
O501 Li443 1.961 . S
O501 C450 1.325 . S
O502 Li440 1.961 . S
O502 Li442 1.956 . S
O502 Li443 1.970 . S
O502 C472 1.325 . S
O503 Li441 1.961 . S
O503 Li442 1.970 . S
O503 Li443 1.956 . S
O503 C478 1.325 . S
H504 C446 0.929 . S
H505 C447 0.930 . S
H506 C448 0.930 . S
H507 C449 0.930 . S
H508 C451 0.930 . S
H509 C453 0.929 . S
H510 C454 0.930 . S
H511 C455 0.930 1_554 S
H512 C458 0.930 . S
H513 C461 0.929 . S
H514 C466 0.929 . S
H515 C467 0.930 . S
H516 C474 0.929 . S
H517 C475 0.930 . S
H518 C476 0.930 . S
H519 C477 0.930 . S
H520 C479 0.929 . S
H521 C480 0.930 . S
H522 C481 0.930 . S
H523 C482 0.930 . S
H524 C486 0.929 . S
H525 C488 0.930 . S
H526 C494 0.929 . S
H527 C495 0.930 . S
Li528 N545 1.990 . S
Li528 O588 1.956 . S
Li528 O589 1.970 . S
Li528 O590 1.961 . S
Li529 N553 1.990 . S
Li529 O588 1.970 . S
Li529 O589 1.956 . S
Li529 O591 1.961 . S
Li530 N575 1.990 . S
Li530 O588 1.961 . S
Li530 O590 1.956 . S
Li530 O591 1.970 . S
Li531 N581 1.990 . S
Li531 O589 1.961 . S
Li531 O590 1.970 . S
Li531 O591 1.956 . S
C532 C534 1.348 . S
C532 C535 1.356 . S
C532 O588 1.325 . S
N533 C536 1.314 . S
N533 C537 1.279 . S
C534 C532 1.348 . S
C534 C536 1.353 . S
C534 H592 0.929 . S
C535 C532 1.356 . S
C535 C537 1.358 . S
C535 H593 0.930 . S
C536 N533 1.314 . S
C536 C534 1.353 . S
C536 H594 0.930 . S
C537 N533 1.279 . S
C537 C535 1.358 . S
C537 H595 0.930 . S
C538 C541 1.348 . S
C538 C542 1.356 . S
C538 O589 1.325 . S
C539 N540 1.279 . S
C539 C542 1.358 1_554 S
C539 H596 0.930 . S
N540 C539 1.279 . S
N540 C543 1.314 . S
C541 C538 1.348 . S
C541 C543 1.353 1_556 S
C541 H597 0.929 . S
C542 C538 1.356 . S
C542 C539 1.358 1_556 S
C542 H598 0.930 . S
C543 N540 1.314 . S
C543 C541 1.353 1_554 S
C543 H599 0.930 . S
C544 N545 1.314 . S
C544 C549 1.353 . S
C544 H550 0.930 . S
N545 Li528 1.990 . S
N545 C544 1.314 . S
N545 C547 1.279 . S
C546 C547 1.358 . S
C546 C548 1.356 . S
C546 H600 0.930 . S
C547 N545 1.279 . S
C547 C546 1.358 . S
C547 H551 0.930 . S
C548 C546 1.356 . S
C548 C549 1.348 . S
C549 C544 1.353 . S
C549 C548 1.348 . S
C549 H601 0.929 . S
H550 C544 0.930 . S
H551 C547 0.930 . S
C552 N553 1.314 . S
C552 C554 1.353 . S
C552 H558 0.930 . S
N553 Li529 1.990 . S
N553 C552 1.314 . S
N553 C556 1.279 . S
C554 C552 1.353 . S
C554 C557 1.348 1_556 S
C554 H602 0.929 . S
C555 C556 1.358 1_554 S
C555 C557 1.356 . S
C555 H603 0.930 . S
C556 N553 1.279 . S
C556 C555 1.358 1_556 S
C556 H559 0.930 1_556 S
C557 C554 1.348 1_554 S
C557 C555 1.356 . S
H558 C552 0.930 . S
H559 C556 0.930 1_554 S
C560 C562 1.348 . S
C560 C563 1.356 . S
C560 O590 1.325 . S
N561 C564 1.314 . S
N561 C565 1.279 . S
C562 C560 1.348 . S
C562 C564 1.353 . S
C562 H604 0.929 . S
C563 C560 1.356 . S
C563 C565 1.358 . S
C563 H605 0.930 . S
C564 N561 1.314 . S
C564 C562 1.353 . S
C564 H606 0.930 . S
C565 N561 1.279 . S
C565 C563 1.358 . S
C565 H607 0.930 . S
C566 C567 1.348 . S
C566 C568 1.356 . S
C566 O591 1.325 . S
C567 C566 1.348 . S
C567 C569 1.353 . S
C567 H608 0.929 . S
C568 C566 1.356 . S
C568 C570 1.358 . S
C568 H609 0.930 . S
C569 C567 1.353 . S
C569 N571 1.314 . S
C569 H610 0.930 . S
C570 C568 1.358 . S
C570 N571 1.279 . S
C570 H611 0.930 . S
N571 C569 1.314 . S
N571 C570 1.279 . S
C572 C574 1.353 . S
C572 N575 1.314 . S
C572 H578 0.930 . S
C573 N575 1.279 . S
C573 C576 1.358 . S
C573 H579 0.930 . S
C574 C572 1.353 . S
C574 C577 1.348 . S
C574 H612 0.929 . S
N575 Li530 1.990 . S
N575 C572 1.314 . S
N575 C573 1.279 . S
C576 C573 1.358 . S
C576 C577 1.356 . S
C576 H613 0.930 . S
C577 C574 1.348 . S
C577 C576 1.356 . S
H578 C572 0.930 . S
H579 C573 0.930 . S
C580 N581 1.314 . S
C580 C582 1.353 . S
C580 H586 0.930 . S
N581 Li531 1.990 . S
N581 C580 1.314 . S
N581 C584 1.279 . S
C582 C580 1.353 . S
C582 C585 1.348 . S
C582 H614 0.929 . S
C583 C584 1.358 . S
C583 C585 1.356 . S
C583 H615 0.930 . S
C584 N581 1.279 . S
C584 C583 1.358 . S
C584 H587 0.930 . S
C585 C582 1.348 . S
C585 C583 1.356 . S
H586 C580 0.930 . S
H587 C584 0.930 . S
O588 Li528 1.956 . S
O588 Li529 1.970 . S
O588 Li530 1.961 . S
O588 C532 1.325 . S
O589 Li528 1.970 . S
O589 Li529 1.956 . S
O589 Li531 1.961 . S
O589 C538 1.325 . S
O590 Li528 1.961 . S
O590 Li530 1.956 . S
O590 Li531 1.970 . S
O590 C560 1.325 . S
O591 Li529 1.961 . S
O591 Li530 1.970 . S
O591 Li531 1.956 . S
O591 C566 1.325 . S
H592 C534 0.929 . S
H593 C535 0.930 . S
H594 C536 0.930 . S
H595 C537 0.930 . S
H596 C539 0.930 . S
H597 C541 0.929 . S
H598 C542 0.930 . S
H599 C543 0.930 . S
H600 C546 0.930 . S
H601 C549 0.929 . S
H602 C554 0.929 . S
H603 C555 0.930 . S
H604 C562 0.929 . S
H605 C563 0.930 . S
H606 C564 0.930 . S
H607 C565 0.930 . S
H608 C567 0.929 . S
H609 C568 0.930 . S
H610 C569 0.930 . S
H611 C570 0.930 . S
H612 C574 0.929 . S
H613 C576 0.930 . S
H614 C582 0.929 . S
H615 C583 0.930 . S
Li616 N633 1.990 . S
Li616 O676 1.956 . S
Li616 O677 1.970 . S
Li616 O678 1.961 . S
Li617 N641 1.990 . S
Li617 O676 1.970 . S
Li617 O677 1.956 . S
Li617 O679 1.965 . S
Li618 N663 1.990 . S
Li618 O676 1.961 . S
Li618 O678 1.956 . S
Li618 O679 1.973 . S
Li619 N669 1.990 . S
Li619 O677 1.961 1_556 S
Li619 O678 1.970 1_556 S
Li619 O679 1.956 1_556 S
C620 C622 1.348 . S
C620 C623 1.356 . S
C620 O676 1.325 . S
N621 C624 1.314 . S
N621 C625 1.279 . S
C622 C620 1.348 . S
C622 C624 1.353 . S
C622 H680 0.929 . S
C623 C620 1.356 . S
C623 C625 1.358 . S
C623 H681 0.930 . S
C624 N621 1.314 . S
C624 C622 1.353 . S
C624 H682 0.930 . S
C625 N621 1.279 . S
C625 C623 1.358 . S
C625 H683 0.930 . S
C626 C629 1.348 . S
C626 C630 1.356 . S
C626 O677 1.325 . S
C627 N628 1.279 . S
C627 C630 1.358 . S
C627 H684 0.930 . S
N628 C627 1.279 . S
N628 C631 1.314 . S
C629 C626 1.348 . S
C629 C631 1.353 . S
C629 H685 0.929 . S
C630 C626 1.356 . S
C630 C627 1.358 . S
C630 H686 0.930 . S
C631 N628 1.314 . S
C631 C629 1.353 . S
C631 H687 0.930 . S
C632 N633 1.314 . S
C632 C637 1.353 . S
C632 H638 0.930 . S
N633 Li616 1.990 . S
N633 C632 1.314 . S
N633 C635 1.279 . S
C634 C635 1.358 . S
C634 C636 1.356 . S
C634 H688 0.930 . S
C635 N633 1.279 . S
C635 C634 1.358 . S
C635 H639 0.930 . S
C636 C634 1.356 . S
C636 C637 1.348 . S
C637 C632 1.353 . S
C637 C636 1.348 . S
C637 H689 0.929 . S
H638 C632 0.930 . S
H639 C635 0.930 . S
C640 N641 1.314 . S
C640 C642 1.353 . S
C640 H646 0.930 . S
N641 Li617 1.990 . S
N641 C640 1.314 . S
N641 C644 1.279 . S
C642 C640 1.353 . S
C642 C645 1.348 . S
C642 H690 0.929 . S
C643 C644 1.358 . S
C643 C645 1.356 . S
C643 H691 0.930 . S
C644 N641 1.279 . S
C644 C643 1.358 . S
C644 H647 0.930 . S
C645 C642 1.348 . S
C645 C643 1.356 . S
H646 C640 0.930 . S
H647 C644 0.930 . S
C648 C650 1.348 1_554 S
C648 C651 1.356 . S
C648 O678 1.325 . S
N649 C652 1.321 . S
N649 C653 1.270 1_556 S
C650 C648 1.348 1_556 S
C650 C652 1.353 . S
C650 H692 0.929 . S
C651 C648 1.356 . S
C651 C653 1.358 . S
C651 H693 0.930 . S
C652 N649 1.321 . S
C652 C650 1.353 . S
C652 H694 0.930 . S
C653 N649 1.270 1_554 S
C653 C651 1.358 . S
C653 H695 0.930 . S
C654 C655 1.348 . S
C654 C656 1.356 . S
C654 O679 1.321 1_556 S
C655 C654 1.348 . S
C655 C657 1.353 . S
C655 H696 0.929 . S
C656 C654 1.356 . S
C656 C658 1.358 . S
C656 H697 0.930 . S
C657 C655 1.353 . S
C657 N659 1.314 . S
C657 H698 0.930 . S
C658 C656 1.358 . S
C658 N659 1.279 . S
C658 H699 0.930 . S
N659 C657 1.314 . S
N659 C658 1.279 . S
C660 C662 1.353 . S
C660 N663 1.314 . S
C660 H666 0.930 . S
C661 N663 1.279 . S
C661 C664 1.358 1_554 S
C661 H667 0.930 1_554 S
C662 C660 1.353 . S
C662 C665 1.348 . S
C662 H700 0.929 . S
N663 Li618 1.990 . S
N663 C660 1.314 . S
N663 C661 1.279 . S
C664 C661 1.358 1_556 S
C664 C665 1.356 1_556 S
C664 H701 0.930 . S
C665 C662 1.348 . S
C665 C664 1.356 1_554 S
H666 C660 0.930 . S
H667 C661 0.930 1_556 S
C668 N669 1.314 . S
C668 C670 1.353 . S
C668 H674 0.930 . S
N669 Li619 1.990 . S
N669 C668 1.314 . S
N669 C672 1.279 . S
C670 C668 1.353 . S
C670 C673 1.348 . S
C670 H702 0.929 . S
C671 C672 1.358 . S
C671 C673 1.356 . S
C671 H703 0.930 . S
C672 N669 1.279 . S
C672 C671 1.358 . S
C672 H675 0.930 . S
C673 C670 1.348 . S
C673 C671 1.356 . S
H674 C668 0.930 . S
H675 C672 0.930 . S
O676 Li616 1.956 . S
O676 Li617 1.970 . S
O676 Li618 1.961 . S
O676 C620 1.325 . S
O677 Li616 1.970 . S
O677 Li617 1.956 . S
O677 Li619 1.961 1_554 S
O677 C626 1.325 . S
O678 Li616 1.961 . S
O678 Li618 1.956 . S
O678 Li619 1.970 1_554 S
O678 C648 1.325 . S
O679 Li617 1.965 . S
O679 Li618 1.973 . S
O679 Li619 1.956 1_554 S
O679 C654 1.321 1_554 S
H680 C622 0.929 . S
H681 C623 0.930 . S
H682 C624 0.930 . S
H683 C625 0.930 . S
H684 C627 0.930 . S
H685 C629 0.929 . S
H686 C630 0.930 . S
H687 C631 0.930 . S
H688 C634 0.930 . S
H689 C637 0.929 . S
H690 C642 0.929 . S
H691 C643 0.930 . S
H692 C650 0.929 . S
H693 C651 0.930 . S
H694 C652 0.930 . S
H695 C653 0.930 . S
H696 C655 0.929 . S
H697 C656 0.930 . S
H698 C657 0.930 . S
H699 C658 0.930 . S
H700 C662 0.929 . S
H701 C664 0.930 . S
H702 C670 0.929 . S
H703 C671 0.930 . S
Li704 N721 1.990 . S
Li704 O764 1.956 . S
Li704 O765 1.970 . S
Li704 O766 1.961 . S
Li705 N729 1.990 . S
Li705 O764 1.970 . S
Li705 O765 1.956 . S
Li705 O767 1.961 . S
Li706 N751 1.990 . S
Li706 O764 1.961 . S
Li706 O766 1.956 . S
Li706 O767 1.970 . S
Li707 N757 1.990 . S
Li707 O765 1.961 . S
Li707 O766 1.970 . S
Li707 O767 1.956 . S
C708 C710 1.348 . S
C708 C711 1.356 . S
C708 O764 1.325 . S
N709 C712 1.314 . S
N709 C713 1.279 . S
C710 C708 1.348 . S
C710 C712 1.353 . S
C710 H768 0.929 . S
C711 C708 1.356 . S
C711 C713 1.358 . S
C711 H769 0.930 . S
C712 N709 1.314 . S
C712 C710 1.353 . S
C712 H770 0.930 . S
C713 N709 1.279 . S
C713 C711 1.358 . S
C713 H771 0.930 . S
C714 C717 1.348 . S
C714 C718 1.356 . S
C714 O765 1.325 . S
C715 N716 1.279 . S
C715 C718 1.358 . S
C715 H772 0.930 . S
N716 C715 1.279 . S
N716 C719 1.314 . S
C717 C714 1.348 . S
C717 C719 1.353 . S
C717 H773 0.929 . S
C718 C714 1.356 . S
C718 C715 1.358 . S
C718 H774 0.930 . S
C719 N716 1.314 . S
C719 C717 1.353 . S
C719 H775 0.930 . S
C720 N721 1.314 . S
C720 C725 1.353 . S
C720 H726 0.930 . S
N721 Li704 1.990 . S
N721 C720 1.314 . S
N721 C723 1.279 . S
C722 C723 1.358 . S
C722 C724 1.356 . S
C722 H776 0.930 . S
C723 N721 1.279 . S
C723 C722 1.358 . S
C723 H727 0.930 . S
C724 C722 1.356 . S
C724 C725 1.348 . S
C725 C720 1.353 . S
C725 C724 1.348 . S
C725 H777 0.929 . S
H726 C720 0.930 . S
H727 C723 0.930 . S
C728 N729 1.314 . S
C728 C730 1.353 . S
C728 H734 0.930 . S
N729 Li705 1.990 . S
N729 C728 1.314 . S
N729 C732 1.279 . S
C730 C728 1.353 . S
C730 C733 1.348 . S
C730 H778 0.929 . S
C731 C732 1.358 . S
C731 C733 1.356 . S
C731 H779 0.930 . S
C732 N729 1.279 . S
C732 C731 1.358 . S
C732 H735 0.930 . S
C733 C730 1.348 . S
C733 C731 1.356 . S
H734 C728 0.930 . S
H735 C732 0.930 . S
C736 C738 1.348 . S
C736 C739 1.356 . S
C736 O766 1.325 . S
N737 C740 1.314 . S
N737 C741 1.279 . S
C738 C736 1.348 . S
C738 C740 1.353 . S
C738 H780 0.929 . S
C739 C736 1.356 . S
C739 C741 1.358 . S
C739 H781 0.930 . S
C740 N737 1.314 . S
C740 C738 1.353 . S
C740 H782 0.930 . S
C741 N737 1.279 . S
C741 C739 1.358 . S
C741 H783 0.930 . S
C742 C743 1.348 . S
C742 C744 1.356 . S
C742 O767 1.325 . S
C743 C742 1.348 . S
C743 C745 1.353 . S
C743 H784 0.929 . S
C744 C742 1.356 . S
C744 C746 1.358 . S
C744 H785 0.930 . S
C745 C743 1.353 . S
C745 N747 1.314 . S
C745 H786 0.930 . S
C746 C744 1.358 . S
C746 N747 1.279 . S
C746 H787 0.930 . S
N747 C745 1.314 . S
N747 C746 1.279 . S
C748 C750 1.353 . S
C748 N751 1.314 . S
C748 H754 0.930 . S
C749 N751 1.279 . S
C749 C752 1.358 . S
C749 H755 0.930 . S
C750 C748 1.353 . S
C750 C753 1.348 . S
C750 H788 0.929 . S
N751 Li706 1.990 . S
N751 C748 1.314 . S
N751 C749 1.279 . S
C752 C749 1.358 . S
C752 C753 1.356 . S
C752 H789 0.930 . S
C753 C750 1.348 . S
C753 C752 1.356 . S
H754 C748 0.930 . S
H755 C749 0.930 . S
C756 N757 1.314 . S
C756 C758 1.353 . S
C756 H762 0.930 . S
N757 Li707 1.990 . S
N757 C756 1.314 . S
N757 C760 1.279 . S
C758 C756 1.353 . S
C758 C761 1.348 . S
C758 H790 0.929 . S
C759 C760 1.358 . S
C759 C761 1.356 . S
C759 H791 0.930 . S
C760 N757 1.279 . S
C760 C759 1.358 . S
C760 H763 0.930 . S
C761 C758 1.348 . S
C761 C759 1.356 . S
H762 C756 0.930 . S
H763 C760 0.930 . S
O764 Li704 1.956 . S
O764 Li705 1.970 . S
O764 Li706 1.961 . S
O764 C708 1.325 . S
O765 Li704 1.970 . S
O765 Li705 1.956 . S
O765 Li707 1.961 . S
O765 C714 1.325 . S
O766 Li704 1.961 . S
O766 Li706 1.956 . S
O766 Li707 1.970 . S
O766 C736 1.325 . S
O767 Li705 1.961 . S
O767 Li706 1.970 . S
O767 Li707 1.956 . S
O767 C742 1.325 . S
H768 C710 0.929 . S
H769 C711 0.930 . S
H770 C712 0.930 . S
H771 C713 0.930 . S
H772 C715 0.930 . S
H773 C717 0.929 . S
H774 C718 0.930 . S
H775 C719 0.930 . S
H776 C722 0.930 . S
H777 C725 0.929 . S
H778 C730 0.929 . S
H779 C731 0.930 . S
H780 C738 0.929 . S
H781 C739 0.930 . S
H782 C740 0.930 . S
H783 C741 0.930 . S
H784 C743 0.929 . S
H785 C744 0.930 . S
H786 C745 0.930 . S
H787 C746 0.930 . S
H788 C750 0.929 . S
H789 C752 0.930 . S
H790 C758 0.929 . S
H791 C759 0.930 . S
Li792 N809 1.990 . S
Li792 O852 1.956 . S
Li792 O853 1.970 . S
Li792 O854 1.961 . S
Li793 N817 1.990 . S
Li793 O852 1.970 . S
Li793 O853 1.956 . S
Li793 O855 1.961 . S
Li794 N839 1.990 . S
Li794 O852 1.961 . S
Li794 O854 1.956 . S
Li794 O855 1.970 . S
Li795 N845 1.990 . S
Li795 O853 1.961 . S
Li795 O854 1.970 . S
Li795 O855 1.956 . S
C796 C798 1.348 . S
C796 C799 1.356 . S
C796 O852 1.325 . S
N797 C800 1.314 . S
N797 C801 1.279 . S
C798 C796 1.348 . S
C798 C800 1.353 . S
C798 H856 0.929 . S
C799 C796 1.356 . S
C799 C801 1.358 . S
C799 H857 0.930 . S
C800 N797 1.314 . S
C800 C798 1.353 . S
C800 H858 0.930 . S
C801 N797 1.279 . S
C801 C799 1.358 . S
C801 H859 0.930 . S
C802 C805 1.348 . S
C802 C806 1.356 . S
C802 O853 1.325 . S
C803 N804 1.279 . S
C803 C806 1.358 . S
C803 H860 0.930 . S
N804 C803 1.279 . S
N804 C807 1.314 . S
C805 C802 1.348 . S
C805 C807 1.353 . S
C805 H861 0.929 . S
C806 C802 1.356 . S
C806 C803 1.358 . S
C806 H862 0.930 . S
C807 N804 1.314 . S
C807 C805 1.353 . S
C807 H863 0.930 . S
C808 N809 1.314 . S
C808 C813 1.353 . S
C808 H814 0.930 . S
N809 Li792 1.990 . S
N809 C808 1.314 . S
N809 C811 1.279 . S
C810 C811 1.358 . S
C810 C812 1.356 . S
C810 H864 0.930 . S
C811 N809 1.279 . S
C811 C810 1.358 . S
C811 H815 0.930 . S
C812 C810 1.356 . S
C812 C813 1.348 . S
C813 C808 1.353 . S
C813 C812 1.348 . S
C813 H865 0.929 . S
H814 C808 0.930 . S
H815 C811 0.930 . S
C816 N817 1.314 . S
C816 C818 1.353 . S
C816 H822 0.930 . S
N817 Li793 1.990 . S
N817 C816 1.314 . S
N817 C820 1.279 . S
C818 C816 1.353 . S
C818 C821 1.348 . S
C818 H866 0.929 . S
C819 C820 1.358 . S
C819 C821 1.356 . S
C819 H867 0.930 . S
C820 N817 1.279 . S
C820 C819 1.358 . S
C820 H823 0.930 . S
C821 C818 1.348 . S
C821 C819 1.356 . S
H822 C816 0.930 . S
H823 C820 0.930 . S
C824 C826 1.348 . S
C824 C827 1.356 . S
C824 O854 1.325 . S
N825 C828 1.314 . S
N825 C829 1.279 . S
C826 C824 1.348 . S
C826 C828 1.353 . S
C826 H868 0.929 . S
C827 C824 1.356 . S
C827 C829 1.358 . S
C827 H869 0.930 . S
C828 N825 1.314 . S
C828 C826 1.353 . S
C828 H870 0.930 . S
C829 N825 1.279 . S
C829 C827 1.358 . S
C829 H871 0.930 . S
C830 C831 1.348 . S
C830 C832 1.356 . S
C830 O855 1.325 . S
C831 C830 1.348 . S
C831 C833 1.353 . S
C831 H872 0.929 . S
C832 C830 1.356 . S
C832 C834 1.358 . S
C832 H873 0.930 . S
C833 C831 1.353 . S
C833 N835 1.314 . S
C833 H874 0.930 . S
C834 C832 1.358 . S
C834 N835 1.279 . S
C834 H875 0.930 . S
N835 C833 1.314 . S
N835 C834 1.279 . S
C836 C838 1.353 . S
C836 N839 1.314 . S
C836 H842 0.930 . S
C837 N839 1.279 . S
C837 C840 1.358 . S
C837 H843 0.930 . S
C838 C836 1.353 . S
C838 C841 1.348 . S
C838 H876 0.929 . S
N839 Li794 1.990 . S
N839 C836 1.314 . S
N839 C837 1.279 . S
C840 C837 1.358 . S
C840 C841 1.356 . S
C840 H877 0.930 . S
C841 C838 1.348 . S
C841 C840 1.356 . S
H842 C836 0.930 . S
H843 C837 0.930 . S
C844 N845 1.314 . S
C844 C846 1.353 . S
C844 H850 0.930 . S
N845 Li795 1.990 . S
N845 C844 1.314 . S
N845 C848 1.279 . S
C846 C844 1.353 . S
C846 C849 1.348 . S
C846 H878 0.929 . S
C847 C848 1.358 . S
C847 C849 1.356 . S
C847 H879 0.930 . S
C848 N845 1.279 . S
C848 C847 1.358 . S
C848 H851 0.930 . S
C849 C846 1.348 . S
C849 C847 1.356 . S
H850 C844 0.930 . S
H851 C848 0.930 . S
O852 Li792 1.956 . S
O852 Li793 1.970 . S
O852 Li794 1.961 . S
O852 C796 1.325 . S
O853 Li792 1.970 . S
O853 Li793 1.956 . S
O853 Li795 1.961 . S
O853 C802 1.325 . S
O854 Li792 1.961 . S
O854 Li794 1.956 . S
O854 Li795 1.970 . S
O854 C824 1.325 . S
O855 Li793 1.961 . S
O855 Li794 1.970 . S
O855 Li795 1.956 . S
O855 C830 1.325 . S
H856 C798 0.929 . S
H857 C799 0.930 . S
H858 C800 0.930 . S
H859 C801 0.930 . S
H860 C803 0.930 . S
H861 C805 0.929 . S
H862 C806 0.930 . S
H863 C807 0.930 . S
H864 C810 0.930 . S
H865 C813 0.929 . S
H866 C818 0.929 . S
H867 C819 0.930 . S
H868 C826 0.929 . S
H869 C827 0.930 . S
H870 C828 0.930 . S
H871 C829 0.930 . S
H872 C831 0.929 . S
H873 C832 0.930 . S
H874 C833 0.930 . S
H875 C834 0.930 . S
H876 C838 0.929 . S
H877 C840 0.930 . S
H878 C846 0.929 . S
H879 C847 0.930 . S
Li880 N897 1.990 . S
Li880 O940 1.956 . S
Li880 O941 1.970 . S
Li880 O942 1.961 . S
Li881 N905 1.990 . S
Li881 O940 1.970 . S
Li881 O941 1.956 . S
Li881 O943 1.961 . S
Li882 N927 1.990 . S
Li882 O940 1.961 . S
Li882 O942 1.956 . S
Li882 O943 1.970 . S
Li883 N933 1.990 . S
Li883 O941 1.961 . S
Li883 O942 1.970 . S
Li883 O943 1.956 . S
C884 C886 1.348 . S
C884 C887 1.356 . S
C884 O940 1.325 . S
N885 C888 1.314 . S
N885 C889 1.279 . S
C886 C884 1.348 . S
C886 C888 1.353 . S
C886 H944 0.929 . S
C887 C884 1.356 . S
C887 C889 1.358 . S
C887 H945 0.930 . S
C888 N885 1.314 . S
C888 C886 1.353 . S
C888 H946 0.930 . S
C889 N885 1.279 . S
C889 C887 1.358 . S
C889 H947 0.930 . S
C890 C893 1.348 . S
C890 C894 1.356 . S
C890 O941 1.325 . S
C891 N892 1.279 . S
C891 C894 1.358 . S
C891 H948 0.930 . S
N892 C891 1.279 . S
N892 C895 1.314 . S
C893 C890 1.348 . S
C893 C895 1.353 . S
C893 H949 0.929 . S
C894 C890 1.356 . S
C894 C891 1.358 . S
C894 H950 0.930 . S
C895 N892 1.314 . S
C895 C893 1.353 . S
C895 H951 0.930 . S
C896 N897 1.314 . S
C896 C901 1.353 . S
C896 H902 0.930 . S
N897 Li880 1.990 . S
N897 C896 1.314 . S
N897 C899 1.279 . S
C898 C899 1.358 . S
C898 C900 1.356 . S
C898 H952 0.930 . S
C899 N897 1.279 . S
C899 C898 1.358 . S
C899 H903 0.930 . S
C900 C898 1.356 . S
C900 C901 1.348 . S
C901 C896 1.353 . S
C901 C900 1.348 . S
C901 H953 0.929 . S
H902 C896 0.930 . S
H903 C899 0.930 . S
C904 N905 1.314 . S
C904 C906 1.353 . S
C904 H910 0.930 . S
N905 Li881 1.990 . S
N905 C904 1.314 . S
N905 C908 1.279 . S
C906 C904 1.353 . S
C906 C909 1.348 . S
C906 H954 0.929 . S
C907 C908 1.358 . S
C907 C909 1.356 . S
C907 H955 0.930 . S
C908 N905 1.279 . S
C908 C907 1.358 . S
C908 H911 0.930 . S
C909 C906 1.348 . S
C909 C907 1.356 . S
H910 C904 0.930 . S
H911 C908 0.930 . S
C912 C914 1.348 . S
C912 C915 1.356 . S
C912 O942 1.325 . S
N913 C916 1.314 . S
N913 C917 1.279 . S
C914 C912 1.348 . S
C914 C916 1.353 . S
C914 H956 0.929 . S
C915 C912 1.356 . S
C915 C917 1.358 . S
C915 H957 0.930 . S
C916 N913 1.314 . S
C916 C914 1.353 . S
C916 H958 0.930 . S
C917 N913 1.279 . S
C917 C915 1.358 . S
C917 H959 0.930 . S
C918 C919 1.348 . S
C918 C920 1.356 . S
C918 O943 1.325 . S
C919 C918 1.348 . S
C919 C921 1.353 . S
C919 H960 0.929 . S
C920 C918 1.356 . S
C920 C922 1.358 . S
C920 H961 0.930 . S
C921 C919 1.353 . S
C921 N923 1.314 . S
C921 H962 0.930 . S
C922 C920 1.358 . S
C922 N923 1.279 . S
C922 H963 0.930 . S
N923 C921 1.314 . S
N923 C922 1.279 . S
C924 C926 1.353 . S
C924 N927 1.314 . S
C924 H930 0.930 . S
C925 N927 1.279 . S
C925 C928 1.358 . S
C925 H931 0.930 . S
C926 C924 1.353 . S
C926 C929 1.348 . S
C926 H964 0.929 . S
N927 Li882 1.990 . S
N927 C924 1.314 . S
N927 C925 1.279 . S
C928 C925 1.358 . S
C928 C929 1.356 . S
C928 H965 0.930 . S
C929 C926 1.348 . S
C929 C928 1.356 . S
H930 C924 0.930 . S
H931 C925 0.930 . S
C932 N933 1.314 . S
C932 C934 1.353 . S
C932 H938 0.930 . S
N933 Li883 1.990 . S
N933 C932 1.314 . S
N933 C936 1.279 . S
C934 C932 1.353 . S
C934 C937 1.348 . S
C934 H966 0.929 . S
C935 C936 1.358 . S
C935 C937 1.356 . S
C935 H967 0.930 . S
C936 N933 1.279 . S
C936 C935 1.358 . S
C936 H939 0.930 . S
C937 C934 1.348 . S
C937 C935 1.356 . S
H938 C932 0.930 . S
H939 C936 0.930 . S
O940 Li880 1.956 . S
O940 Li881 1.970 . S
O940 Li882 1.961 . S
O940 C884 1.325 . S
O941 Li880 1.970 . S
O941 Li881 1.956 . S
O941 Li883 1.961 . S
O941 C890 1.325 . S
O942 Li880 1.961 . S
O942 Li882 1.956 . S
O942 Li883 1.970 . S
O942 C912 1.325 . S
O943 Li881 1.961 . S
O943 Li882 1.970 . S
O943 Li883 1.956 . S
O943 C918 1.325 . S
H944 C886 0.929 . S
H945 C887 0.930 . S
H946 C888 0.930 . S
H947 C889 0.930 . S
H948 C891 0.930 . S
H949 C893 0.929 . S
H950 C894 0.930 . S
H951 C895 0.930 . S
H952 C898 0.930 . S
H953 C901 0.929 . S
H954 C906 0.929 . S
H955 C907 0.930 . S
H956 C914 0.929 . S
H957 C915 0.930 . S
H958 C916 0.930 . S
H959 C917 0.930 . S
H960 C919 0.929 . S
H961 C920 0.930 . S
H962 C921 0.930 . S
H963 C922 0.930 . S
H964 C926 0.929 . S
H965 C928 0.930 . S
H966 C934 0.929 . S
H967 C935 0.930 . S
Li968 N985 1.990 . S
Li968 O1028 1.956 . S
Li968 O1029 1.970 . S
Li968 O1030 1.961 . S
Li969 N993 1.990 . S
Li969 O1028 1.970 . S
Li969 O1029 1.956 . S
Li969 O1031 1.961 . S
Li970 N1015 1.990 . S
Li970 O1028 1.961 . S
Li970 O1030 1.956 . S
Li970 O1031 1.970 . S
Li971 N1021 1.990 . S
Li971 O1029 1.961 . S
Li971 O1030 1.970 . S
Li971 O1031 1.956 . S
C972 C974 1.348 . S
C972 C975 1.356 . S
C972 O1028 1.325 . S
N973 C976 1.314 . S
N973 C977 1.279 . S
C974 C972 1.348 . S
C974 C976 1.353 . S
C974 H1032 0.929 . S
C975 C972 1.356 . S
C975 C977 1.358 . S
C975 H1033 0.930 . S
C976 N973 1.314 . S
C976 C974 1.353 . S
C976 H1034 0.930 . S
C977 N973 1.279 . S
C977 C975 1.358 . S
C977 H1035 0.930 . S
C978 C981 1.348 . S
C978 C982 1.356 . S
C978 O1029 1.325 . S
C979 N980 1.279 . S
C979 C982 1.358 . S
C979 H1036 0.930 . S
N980 C979 1.279 . S
N980 C983 1.314 . S
C981 C978 1.348 . S
C981 C983 1.353 . S
C981 H1037 0.929 . S
C982 C978 1.356 . S
C982 C979 1.358 . S
C982 H1038 0.930 . S
C983 N980 1.314 . S
C983 C981 1.353 . S
C983 H1039 0.930 . S
C984 N985 1.314 . S
C984 C989 1.353 . S
C984 H990 0.930 . S
N985 Li968 1.990 . S
N985 C984 1.314 . S
N985 C987 1.279 . S
C986 C987 1.358 . S
C986 C988 1.356 . S
C986 H1040 0.930 . S
C987 N985 1.279 . S
C987 C986 1.358 . S
C987 H991 0.930 . S
C988 C986 1.356 . S
C988 C989 1.348 . S
C989 C984 1.353 . S
C989 C988 1.348 . S
C989 H1041 0.929 . S
H990 C984 0.930 . S
H991 C987 0.930 . S
C992 N993 1.314 . S
C992 C994 1.353 . S
C992 H998 0.930 . S
N993 Li969 1.990 . S
N993 C992 1.314 . S
N993 C996 1.279 . S
C994 C992 1.353 . S
C994 C997 1.348 . S
C994 H1042 0.929 . S
C995 C996 1.358 . S
C995 C997 1.356 . S
C995 H1043 0.930 . S
C996 N993 1.279 . S
C996 C995 1.358 . S
C996 H999 0.930 . S
C997 C994 1.348 . S
C997 C995 1.356 . S
H998 C992 0.930 . S
H999 C996 0.930 . S
C1000 C1002 1.348 . S
C1000 C1003 1.356 . S
C1000 O1030 1.325 . S
N1001 C1004 1.314 . S
N1001 C1005 1.279 . S
C1002 C1000 1.348 . S
C1002 C1004 1.353 . S
C1002 H1044 0.929 . S
C1003 C1000 1.356 . S
C1003 C1005 1.358 . S
C1003 H1045 0.930 . S
C1004 N1001 1.314 . S
C1004 C1002 1.353 . S
C1004 H1046 0.930 . S
C1005 N1001 1.279 . S
C1005 C1003 1.358 . S
C1005 H1047 0.930 . S
C1006 C1007 1.348 . S
C1006 C1008 1.356 . S
C1006 O1031 1.325 . S
C1007 C1006 1.348 . S
C1007 C1009 1.353 . S
C1007 H1048 0.929 . S
C1008 C1006 1.356 . S
C1008 C1010 1.358 . S
C1008 H1049 0.930 . S
C1009 C1007 1.353 . S
C1009 N1011 1.314 . S
C1009 H1050 0.930 . S
C1010 C1008 1.358 . S
C1010 N1011 1.279 . S
C1010 H1051 0.930 . S
N1011 C1009 1.314 . S
N1011 C1010 1.279 . S
C1012 C1014 1.353 . S
C1012 N1015 1.314 . S
C1012 H1018 0.930 . S
C1013 N1015 1.279 . S
C1013 C1016 1.358 . S
C1013 H1019 0.930 . S
C1014 C1012 1.353 . S
C1014 C1017 1.348 . S
C1014 H1052 0.929 . S
N1015 Li970 1.990 . S
N1015 C1012 1.314 . S
N1015 C1013 1.279 . S
C1016 C1013 1.358 . S
C1016 C1017 1.356 . S
C1016 H1053 0.930 . S
C1017 C1014 1.348 . S
C1017 C1016 1.356 . S
H1018 C1012 0.930 . S
H1019 C1013 0.930 . S
C1020 N1021 1.314 . S
C1020 C1022 1.353 . S
C1020 H1026 0.930 . S
N1021 Li971 1.990 . S
N1021 C1020 1.314 . S
N1021 C1024 1.279 . S
C1022 C1020 1.353 . S
C1022 C1025 1.348 . S
C1022 H1054 0.929 . S
C1023 C1024 1.358 . S
C1023 C1025 1.356 . S
C1023 H1055 0.930 . S
C1024 N1021 1.279 . S
C1024 C1023 1.358 . S
C1024 H1027 0.930 . S
C1025 C1022 1.348 . S
C1025 C1023 1.356 . S
H1026 C1020 0.930 . S
H1027 C1024 0.930 . S
O1028 Li968 1.956 . S
O1028 Li969 1.970 . S
O1028 Li970 1.961 . S
O1028 C972 1.325 . S
O1029 Li968 1.970 . S
O1029 Li969 1.956 . S
O1029 Li971 1.961 . S
O1029 C978 1.325 . S
O1030 Li968 1.961 . S
O1030 Li970 1.956 . S
O1030 Li971 1.970 . S
O1030 C1000 1.325 . S
O1031 Li969 1.961 . S
O1031 Li970 1.970 . S
O1031 Li971 1.956 . S
O1031 C1006 1.325 . S
H1032 C974 0.929 . S
H1033 C975 0.930 . S
H1034 C976 0.930 . S
H1035 C977 0.930 . S
H1036 C979 0.930 . S
H1037 C981 0.929 . S
H1038 C982 0.930 . S
H1039 C983 0.930 . S
H1040 C986 0.930 . S
H1041 C989 0.929 . S
H1042 C994 0.929 . S
H1043 C995 0.930 . S
H1044 C1002 0.929 . S
H1045 C1003 0.930 . S
H1046 C1004 0.930 . S
H1047 C1005 0.930 . S
H1048 C1007 0.929 . S
H1049 C1008 0.930 . S
H1050 C1009 0.930 . S
H1051 C1010 0.930 . S
H1052 C1014 0.929 . S
H1053 C1016 0.930 . S
H1054 C1022 0.929 . S
H1055 C1023 0.930 . S
C1056 C1057 1.391 . S
C1056 C1058 1.394 . S
C1056 H1072 0.931 . S
C1057 C1056 1.391 . S
C1057 C1061 1.376 . S
C1058 C1056 1.394 . S
C1058 C1059 1.369 . S
C1058 C1062 1.531 . S
C1059 C1058 1.369 . S
C1059 C1060 1.410 . S
C1059 C1067 1.503 . S
C1060 C1059 1.410 . S
C1060 C1061 1.392 . S
C1060 C1063 1.511 . S
C1061 C1057 1.376 . S
C1061 C1060 1.392 . S
C1061 H1073 0.929 . S
C1062 C1058 1.531 . S
C1062 H1074 0.960 . S
C1062 H1075 0.962 . S
C1062 H1076 0.960 . S
C1063 C1060 1.511 . S
C1063 H1077 0.961 . S
C1063 H1078 0.961 . S
C1063 H1079 0.961 . S
C1064 C1065 1.370 . S
C1064 C1066 1.363 . S
C1064 H1080 0.931 . S
C1065 C1064 1.370 . S
C1065 C1069 1.408 . S
C1066 C1064 1.363 . S
C1066 C1067 1.370 . S
C1066 C1070 1.524 . S
C1067 C1059 1.503 . S
C1067 C1066 1.370 . S
C1067 C1068 1.403 . S
C1068 C1067 1.403 . S
C1068 C1069 1.404 . S
C1068 C1071 1.539 . S
C1069 C1065 1.408 . S
C1069 C1068 1.404 . S
C1069 H1081 0.930 . S
C1070 C1066 1.524 . S
C1070 H1082 0.956 . S
C1070 H1083 0.961 . S
C1070 H1084 0.961 . S
C1071 C1068 1.539 . S
C1071 H1085 0.958 . S
C1071 H1086 0.961 . S
C1071 H1087 0.960 . S
H1072 C1056 0.931 . S
H1073 C1061 0.929 . S
H1074 C1062 0.960 . S
H1075 C1062 0.962 . S
H1076 C1062 0.960 . S
H1077 C1063 0.961 . S
H1078 C1063 0.961 . S
H1079 C1063 0.961 . S
H1080 C1064 0.931 . S
H1081 C1069 0.930 . S
H1082 C1070 0.956 . S
H1083 C1070 0.961 . S
H1084 C1070 0.961 . S
H1085 C1071 0.958 . S
H1086 C1071 0.961 . S
H1087 C1071 0.960 . S
C1088 C1089 1.391 . S
C1088 C1090 1.394 . S
C1088 H1104 0.931 . S
C1089 C1088 1.391 . S
C1089 C1093 1.376 . S
C1090 C1088 1.394 . S
C1090 C1091 1.369 . S
C1090 C1094 1.531 . S
C1091 C1090 1.369 . S
C1091 C1092 1.410 . S
C1091 C1099 1.503 . S
C1092 C1091 1.410 . S
C1092 C1093 1.392 . S
C1092 C1095 1.511 . S
C1093 C1089 1.376 . S
C1093 C1092 1.392 . S
C1093 H1105 0.929 . S
C1094 C1090 1.531 . S
C1094 H1106 0.960 . S
C1094 H1107 0.962 . S
C1094 H1108 0.960 . S
C1095 C1092 1.511 . S
C1095 H1109 0.961 . S
C1095 H1110 0.961 . S
C1095 H1111 0.961 . S
C1096 C1097 1.370 . S
C1096 C1098 1.363 . S
C1096 H1112 0.931 . S
C1097 C1096 1.370 . S
C1097 C1101 1.408 . S
C1098 C1096 1.363 . S
C1098 C1099 1.370 . S
C1098 C1102 1.524 . S
C1099 C1091 1.503 . S
C1099 C1098 1.370 . S
C1099 C1100 1.403 . S
C1100 C1099 1.403 . S
C1100 C1101 1.404 . S
C1100 C1103 1.539 . S
C1101 C1097 1.408 . S
C1101 C1100 1.404 . S
C1101 H1113 0.930 . S
C1102 C1098 1.524 . S
C1102 H1114 0.956 . S
C1102 H1115 0.961 . S
C1102 H1116 0.961 . S
C1103 C1100 1.539 . S
C1103 H1117 0.958 . S
C1103 H1118 0.961 . S
C1103 H1119 0.960 . S
H1104 C1088 0.931 . S
H1105 C1093 0.929 . S
H1106 C1094 0.960 . S
H1107 C1094 0.962 . S
H1108 C1094 0.960 . S
H1109 C1095 0.961 . S
H1110 C1095 0.961 . S
H1111 C1095 0.961 . S
H1112 C1096 0.931 . S
H1113 C1101 0.930 . S
H1114 C1102 0.956 . S
H1115 C1102 0.961 . S
H1116 C1102 0.961 . S
H1117 C1103 0.958 . S
H1118 C1103 0.961 . S
H1119 C1103 0.960 . S
C1120 C1121 1.391 . S
C1120 C1122 1.394 . S
C1120 H1136 0.931 . S
C1121 C1120 1.391 . S
C1121 C1125 1.376 . S
C1122 C1120 1.394 . S
C1122 C1123 1.369 . S
C1122 C1126 1.531 . S
C1123 C1122 1.369 . S
C1123 C1124 1.410 . S
C1123 C1131 1.503 . S
C1124 C1123 1.410 . S
C1124 C1125 1.392 . S
C1124 C1127 1.511 . S
C1125 C1121 1.376 . S
C1125 C1124 1.392 . S
C1125 H1137 0.929 . S
C1126 C1122 1.531 . S
C1126 H1138 0.960 . S
C1126 H1139 0.962 . S
C1126 H1140 0.960 . S
C1127 C1124 1.511 . S
C1127 H1141 0.961 . S
C1127 H1142 0.961 . S
C1127 H1143 0.961 . S
C1128 C1129 1.370 . S
C1128 C1130 1.363 . S
C1128 H1144 0.931 . S
C1129 C1128 1.370 . S
C1129 C1133 1.408 . S
C1130 C1128 1.363 . S
C1130 C1131 1.370 . S
C1130 C1134 1.524 . S
C1131 C1123 1.503 . S
C1131 C1130 1.370 . S
C1131 C1132 1.403 . S
C1132 C1131 1.403 . S
C1132 C1133 1.404 . S
C1132 C1135 1.539 . S
C1133 C1129 1.408 . S
C1133 C1132 1.404 . S
C1133 H1145 0.930 . S
C1134 C1130 1.524 . S
C1134 H1146 0.956 . S
C1134 H1147 0.961 . S
C1134 H1148 0.961 . S
C1135 C1132 1.539 . S
C1135 H1149 0.958 . S
C1135 H1150 0.961 . S
C1135 H1151 0.960 . S
H1136 C1120 0.931 . S
H1137 C1125 0.929 . S
H1138 C1126 0.960 . S
H1139 C1126 0.962 . S
H1140 C1126 0.960 . S
H1141 C1127 0.961 . S
H1142 C1127 0.961 . S
H1143 C1127 0.961 . S
H1144 C1128 0.931 . S
H1145 C1133 0.930 . S
H1146 C1134 0.956 . S
H1147 C1134 0.961 . S
H1148 C1134 0.961 . S
H1149 C1135 0.958 . S
H1150 C1135 0.961 . S
H1151 C1135 0.960 . S
C1152 C1153 1.391 . S
C1152 C1154 1.394 . S
C1152 H1168 0.931 . S
C1153 C1152 1.391 . S
C1153 C1157 1.376 . S
C1154 C1152 1.394 . S
C1154 C1155 1.369 . S
C1154 C1158 1.531 . S
C1155 C1154 1.369 . S
C1155 C1156 1.410 . S
C1155 C1163 1.503 . S
C1156 C1155 1.410 . S
C1156 C1157 1.392 . S
C1156 C1159 1.511 . S
C1157 C1153 1.376 . S
C1157 C1156 1.392 . S
C1157 H1169 0.929 . S
C1158 C1154 1.531 . S
C1158 H1170 0.960 . S
C1158 H1171 0.962 . S
C1158 H1172 0.960 . S
C1159 C1156 1.511 . S
C1159 H1173 0.961 . S
C1159 H1174 0.961 . S
C1159 H1175 0.961 . S
C1160 C1161 1.370 . S
C1160 C1162 1.363 . S
C1160 H1176 0.931 . S
C1161 C1160 1.370 . S
C1161 C1165 1.408 . S
C1162 C1160 1.363 . S
C1162 C1163 1.370 . S
C1162 C1166 1.524 . S
C1163 C1155 1.503 . S
C1163 C1162 1.370 . S
C1163 C1164 1.403 . S
C1164 C1163 1.403 . S
C1164 C1165 1.404 . S
C1164 C1167 1.539 . S
C1165 C1161 1.408 . S
C1165 C1164 1.404 . S
C1165 H1177 0.930 . S
C1166 C1162 1.524 . S
C1166 H1178 0.956 . S
C1166 H1179 0.961 . S
C1166 H1180 0.961 . S
C1167 C1164 1.539 . S
C1167 H1181 0.958 . S
C1167 H1182 0.961 . S
C1167 H1183 0.960 . S
H1168 C1152 0.931 . S
H1169 C1157 0.929 . S
H1170 C1158 0.960 . S
H1171 C1158 0.962 . S
H1172 C1158 0.960 . S
H1173 C1159 0.961 . S
H1174 C1159 0.961 . S
H1175 C1159 0.961 . S
H1176 C1160 0.931 . S
H1177 C1165 0.930 . S
H1178 C1166 0.956 . S
H1179 C1166 0.961 . S
H1180 C1166 0.961 . S
H1181 C1167 0.958 . S
H1182 C1167 0.961 . S
H1183 C1167 0.960 . S
C1184 C1185 1.391 . S
C1184 C1186 1.394 . S
C1184 H1200 0.931 . S
C1185 C1184 1.391 . S
C1185 C1189 1.376 . S
C1186 C1184 1.394 . S
C1186 C1187 1.369 . S
C1186 C1190 1.531 . S
C1187 C1186 1.369 . S
C1187 C1188 1.410 . S
C1187 C1195 1.503 . S
C1188 C1187 1.410 . S
C1188 C1189 1.392 . S
C1188 C1191 1.511 . S
C1189 C1185 1.376 . S
C1189 C1188 1.392 . S
C1189 H1201 0.929 . S
C1190 C1186 1.531 . S
C1190 H1202 0.960 . S
C1190 H1203 0.962 . S
C1190 H1204 0.960 . S
C1191 C1188 1.511 . S
C1191 H1205 0.961 . S
C1191 H1206 0.961 . S
C1191 H1207 0.961 . S
C1192 C1193 1.370 . S
C1192 C1194 1.363 . S
C1192 H1208 0.931 . S
C1193 C1192 1.370 . S
C1193 C1197 1.408 1_554 S
C1194 C1192 1.363 . S
C1194 C1195 1.370 1_554 S
C1194 C1198 1.524 . S
C1195 C1187 1.503 . S
C1195 C1194 1.370 1_556 S
C1195 C1196 1.403 . S
C1196 C1195 1.403 . S
C1196 C1197 1.404 . S
C1196 C1199 1.539 . S
C1197 C1193 1.408 1_556 S
C1197 C1196 1.404 . S
C1197 H1209 0.930 . S
C1198 C1194 1.524 . S
C1198 H1210 0.956 . S
C1198 H1211 0.961 . S
C1198 H1212 0.961 . S
C1199 C1196 1.539 . S
C1199 H1213 0.958 . S
C1199 H1214 0.961 . S
C1199 H1215 0.960 . S
H1200 C1184 0.931 . S
H1201 C1189 0.929 . S
H1202 C1190 0.960 . S
H1203 C1190 0.962 . S
H1204 C1190 0.960 . S
H1205 C1191 0.961 . S
H1206 C1191 0.961 . S
H1207 C1191 0.961 . S
H1208 C1192 0.931 . S
H1209 C1197 0.930 . S
H1210 C1198 0.956 . S
H1211 C1198 0.961 . S
H1212 C1198 0.961 . S
H1213 C1199 0.958 . S
H1214 C1199 0.961 . S
H1215 C1199 0.960 . S
C1216 C1217 1.391 . S
C1216 C1218 1.394 . S
C1216 H1232 0.931 . S
C1217 C1216 1.391 . S
C1217 C1221 1.376 . S
C1218 C1216 1.394 . S
C1218 C1219 1.369 . S
C1218 C1222 1.531 . S
C1219 C1218 1.369 . S
C1219 C1220 1.410 . S
C1219 C1227 1.503 . S
C1220 C1219 1.410 . S
C1220 C1221 1.392 . S
C1220 C1223 1.511 . S
C1221 C1217 1.376 . S
C1221 C1220 1.392 . S
C1221 H1233 0.929 . S
C1222 C1218 1.531 . S
C1222 H1234 0.960 . S
C1222 H1235 0.962 . S
C1222 H1236 0.960 . S
C1223 C1220 1.511 . S
C1223 H1237 0.961 . S
C1223 H1238 0.961 . S
C1223 H1239 0.961 . S
C1224 C1225 1.370 . S
C1224 C1226 1.363 . S
C1224 H1240 0.931 . S
C1225 C1224 1.370 . S
C1225 C1229 1.408 . S
C1226 C1224 1.363 . S
C1226 C1227 1.370 . S
C1226 C1230 1.524 . S
C1227 C1219 1.503 . S
C1227 C1226 1.370 . S
C1227 C1228 1.403 . S
C1228 C1227 1.403 . S
C1228 C1229 1.404 . S
C1228 C1231 1.539 . S
C1229 C1225 1.408 . S
C1229 C1228 1.404 . S
C1229 H1241 0.930 . S
C1230 C1226 1.524 . S
C1230 H1242 0.956 . S
C1230 H1243 0.961 . S
C1230 H1244 0.961 . S
C1231 C1228 1.539 . S
C1231 H1245 0.958 . S
C1231 H1246 0.961 . S
C1231 H1247 0.960 . S
H1232 C1216 0.931 . S
H1233 C1221 0.929 . S
H1234 C1222 0.960 . S
H1235 C1222 0.962 . S
H1236 C1222 0.960 . S
H1237 C1223 0.961 . S
H1238 C1223 0.961 . S
H1239 C1223 0.961 . S
H1240 C1224 0.931 . S
H1241 C1229 0.930 . S
H1242 C1230 0.956 . S
H1243 C1230 0.961 . S
H1244 C1230 0.961 . S
H1245 C1231 0.958 . S
H1246 C1231 0.961 . S
H1247 C1231 0.960 . S
C1248 C1249 1.391 . S
C1248 C1250 1.394 . S
C1248 H1264 0.931 . S
C1249 C1248 1.391 . S
C1249 C1253 1.376 . S
C1250 C1248 1.394 . S
C1250 C1251 1.369 . S
C1250 C1254 1.531 . S
C1251 C1250 1.369 . S
C1251 C1252 1.410 . S
C1251 C1259 1.503 . S
C1252 C1251 1.410 . S
C1252 C1253 1.392 . S
C1252 C1255 1.511 . S
C1253 C1249 1.376 . S
C1253 C1252 1.392 . S
C1253 H1265 0.929 . S
C1254 C1250 1.531 . S
C1254 H1266 0.960 . S
C1254 H1267 0.962 . S
C1254 H1268 0.960 . S
C1255 C1252 1.511 . S
C1255 H1269 0.961 . S
C1255 H1270 0.961 . S
C1255 H1271 0.961 . S
C1256 C1257 1.370 . S
C1256 C1258 1.363 . S
C1256 H1272 0.931 . S
C1257 C1256 1.370 . S
C1257 C1261 1.408 . S
C1258 C1256 1.363 . S
C1258 C1259 1.370 . S
C1258 C1262 1.524 . S
C1259 C1251 1.503 . S
C1259 C1258 1.370 . S
C1259 C1260 1.403 . S
C1260 C1259 1.403 . S
C1260 C1261 1.404 . S
C1260 C1263 1.539 . S
C1261 C1257 1.408 . S
C1261 C1260 1.404 . S
C1261 H1273 0.930 . S
C1262 C1258 1.524 . S
C1262 H1274 0.956 . S
C1262 H1275 0.961 . S
C1262 H1276 0.961 . S
C1263 C1260 1.539 . S
C1263 H1277 0.958 . S
C1263 H1278 0.961 . S
C1263 H1279 0.960 . S
H1264 C1248 0.931 . S
H1265 C1253 0.929 . S
H1266 C1254 0.960 . S
H1267 C1254 0.962 . S
H1268 C1254 0.960 . S
H1269 C1255 0.961 . S
H1270 C1255 0.961 . S
H1271 C1255 0.961 . S
H1272 C1256 0.931 . S
H1273 C1261 0.930 . S
H1274 C1262 0.956 . S
H1275 C1262 0.961 . S
H1276 C1262 0.961 . S
H1277 C1263 0.958 . S
H1278 C1263 0.961 . S
H1279 C1263 0.960 . S
C1280 C1281 1.391 . S
C1280 C1282 1.394 . S
C1280 H1296 0.931 . S
C1281 C1280 1.391 . S
C1281 C1285 1.376 . S
C1282 C1280 1.394 . S
C1282 C1283 1.369 . S
C1282 C1286 1.531 . S
C1283 C1282 1.369 . S
C1283 C1284 1.410 . S
C1283 C1291 1.503 . S
C1284 C1283 1.410 . S
C1284 C1285 1.392 . S
C1284 C1287 1.511 . S
C1285 C1281 1.376 . S
C1285 C1284 1.392 . S
C1285 H1297 0.929 . S
C1286 C1282 1.531 . S
C1286 H1298 0.960 . S
C1286 H1299 0.962 . S
C1286 H1300 0.960 . S
C1287 C1284 1.511 . S
C1287 H1301 0.961 . S
C1287 H1302 0.961 . S
C1287 H1303 0.961 . S
C1288 C1289 1.370 . S
C1288 C1290 1.363 . S
C1288 H1304 0.931 . S
C1289 C1288 1.370 . S
C1289 C1293 1.408 . S
C1290 C1288 1.363 . S
C1290 C1291 1.370 . S
C1290 C1294 1.524 . S
C1291 C1283 1.503 . S
C1291 C1290 1.370 . S
C1291 C1292 1.403 . S
C1292 C1291 1.403 . S
C1292 C1293 1.404 . S
C1292 C1295 1.539 . S
C1293 C1289 1.408 . S
C1293 C1292 1.404 . S
C1293 H1305 0.930 . S
C1294 C1290 1.524 . S
C1294 H1306 0.956 . S
C1294 H1307 0.961 . S
C1294 H1308 0.961 . S
C1295 C1292 1.539 . S
C1295 H1309 0.958 . S
C1295 H1310 0.961 . S
C1295 H1311 0.960 . S
H1296 C1280 0.931 . S
H1297 C1285 0.929 . S
H1298 C1286 0.960 . S
H1299 C1286 0.962 . S
H1300 C1286 0.960 . S
H1301 C1287 0.961 . S
H1302 C1287 0.961 . S
H1303 C1287 0.961 . S
H1304 C1288 0.931 . S
H1305 C1293 0.930 . S
H1306 C1294 0.956 . S
H1307 C1294 0.961 . S
H1308 C1294 0.961 . S
H1309 C1295 0.958 . S
H1310 C1295 0.961 . S
H1311 C1295 0.960 . S
C1312 C1313 1.391 . S
C1312 C1314 1.394 . S
C1312 H1328 0.931 . S
C1313 C1312 1.391 . S
C1313 C1317 1.376 . S
C1314 C1312 1.394 . S
C1314 C1315 1.369 . S
C1314 C1318 1.531 . S
C1315 C1314 1.369 . S
C1315 C1316 1.410 . S
C1315 C1323 1.503 . S
C1316 C1315 1.410 . S
C1316 C1317 1.392 . S
C1316 C1319 1.511 . S
C1317 C1313 1.376 . S
C1317 C1316 1.392 . S
C1317 H1329 0.929 . S
C1318 C1314 1.531 . S
C1318 H1330 0.960 . S
C1318 H1331 0.962 . S
C1318 H1332 0.960 . S
C1319 C1316 1.511 . S
C1319 H1333 0.961 . S
C1319 H1334 0.961 . S
C1319 H1335 0.961 . S
C1320 C1321 1.370 . S
C1320 C1322 1.363 . S
C1320 H1336 0.931 . S
C1321 C1320 1.370 . S
C1321 C1325 1.408 . S
C1322 C1320 1.363 . S
C1322 C1323 1.370 . S
C1322 C1326 1.524 . S
C1323 C1315 1.503 . S
C1323 C1322 1.370 . S
C1323 C1324 1.403 . S
C1324 C1323 1.403 . S
C1324 C1325 1.404 . S
C1324 C1327 1.539 . S
C1325 C1321 1.408 . S
C1325 C1324 1.404 . S
C1325 H1337 0.930 . S
C1326 C1322 1.524 . S
C1326 H1338 0.956 . S
C1326 H1339 0.961 . S
C1326 H1340 0.961 . S
C1327 C1324 1.539 . S
C1327 H1341 0.958 . S
C1327 H1342 0.961 . S
C1327 H1343 0.960 . S
H1328 C1312 0.931 . S
H1329 C1317 0.929 . S
H1330 C1318 0.960 . S
H1331 C1318 0.962 . S
H1332 C1318 0.960 . S
H1333 C1319 0.961 . S
H1334 C1319 0.961 . S
H1335 C1319 0.961 . S
H1336 C1320 0.931 . S
H1337 C1325 0.930 . S
H1338 C1326 0.956 . S
H1339 C1326 0.961 . S
H1340 C1326 0.961 . S
H1341 C1327 0.958 . S
H1342 C1327 0.961 . S
H1343 C1327 0.960 . S
C1344 C1345 1.391 . S
C1344 C1346 1.394 . S
C1344 H1360 0.931 . S
C1345 C1344 1.391 . S
C1345 C1349 1.376 . S
C1346 C1344 1.394 . S
C1346 C1347 1.369 . S
C1346 C1350 1.531 . S
C1347 C1346 1.369 . S
C1347 C1348 1.410 . S
C1347 C1355 1.503 . S
C1348 C1347 1.410 . S
C1348 C1349 1.392 . S
C1348 C1351 1.511 . S
C1349 C1345 1.376 . S
C1349 C1348 1.392 . S
C1349 H1361 0.929 . S
C1350 C1346 1.531 . S
C1350 H1362 0.960 . S
C1350 H1363 0.962 . S
C1350 H1364 0.960 . S
C1351 C1348 1.511 . S
C1351 H1365 0.961 . S
C1351 H1366 0.961 . S
C1351 H1367 0.961 . S
C1352 C1353 1.370 . S
C1352 C1354 1.363 . S
C1352 H1368 0.931 . S
C1353 C1352 1.370 . S
C1353 C1357 1.408 . S
C1354 C1352 1.363 . S
C1354 C1355 1.370 . S
C1354 C1358 1.524 . S
C1355 C1347 1.503 . S
C1355 C1354 1.370 . S
C1355 C1356 1.403 . S
C1356 C1355 1.403 . S
C1356 C1357 1.404 . S
C1356 C1359 1.539 . S
C1357 C1353 1.408 . S
C1357 C1356 1.404 . S
C1357 H1369 0.930 . S
C1358 C1354 1.524 . S
C1358 H1370 0.956 . S
C1358 H1371 0.961 . S
C1358 H1372 0.961 . S
C1359 C1356 1.539 . S
C1359 H1373 0.958 . S
C1359 H1374 0.961 . S
C1359 H1375 0.960 . S
H1360 C1344 0.931 . S
H1361 C1349 0.929 . S
H1362 C1350 0.960 . S
H1363 C1350 0.962 . S
H1364 C1350 0.960 . S
H1365 C1351 0.961 . S
H1366 C1351 0.961 . S
H1367 C1351 0.961 . S
H1368 C1352 0.931 . S
H1369 C1357 0.930 . S
H1370 C1358 0.956 . S
H1371 C1358 0.961 . S
H1372 C1358 0.961 . S
H1373 C1359 0.958 . S
H1374 C1359 0.961 . S
H1375 C1359 0.960 . S
C1376 C1377 1.391 . S
C1376 C1378 1.394 . S
C1376 H1392 0.931 . S
C1377 C1376 1.391 . S
C1377 C1381 1.376 . S
C1378 C1376 1.394 . S
C1378 C1379 1.369 . S
C1378 C1382 1.531 . S
C1379 C1378 1.369 . S
C1379 C1380 1.410 . S
C1379 C1387 1.503 . S
C1380 C1379 1.410 . S
C1380 C1381 1.392 . S
C1380 C1383 1.511 . S
C1381 C1377 1.376 . S
C1381 C1380 1.392 . S
C1381 H1393 0.929 . S
C1382 C1378 1.531 . S
C1382 H1394 0.960 . S
C1382 H1395 0.962 . S
C1382 H1396 0.960 . S
C1383 C1380 1.511 . S
C1383 H1397 0.961 . S
C1383 H1398 0.961 . S
C1383 H1399 0.961 . S
C1384 C1385 1.370 . S
C1384 C1386 1.363 . S
C1384 H1400 0.931 . S
C1385 C1384 1.370 . S
C1385 C1389 1.408 . S
C1386 C1384 1.363 . S
C1386 C1387 1.370 . S
C1386 C1390 1.524 . S
C1387 C1379 1.503 . S
C1387 C1386 1.370 . S
C1387 C1388 1.403 . S
C1388 C1387 1.403 . S
C1388 C1389 1.404 . S
C1388 C1391 1.539 . S
C1389 C1385 1.408 . S
C1389 C1388 1.404 . S
C1389 H1401 0.930 . S
C1390 C1386 1.524 . S
C1390 H1402 0.956 . S
C1390 H1403 0.961 . S
C1390 H1404 0.961 . S
C1391 C1388 1.539 . S
C1391 H1405 0.958 . S
C1391 H1406 0.961 . S
C1391 H1407 0.960 . S
H1392 C1376 0.931 . S
H1393 C1381 0.929 . S
H1394 C1382 0.960 . S
H1395 C1382 0.962 . S
H1396 C1382 0.960 . S
H1397 C1383 0.961 . S
H1398 C1383 0.961 . S
H1399 C1383 0.961 . S
H1400 C1384 0.931 . S
H1401 C1389 0.930 . S
H1402 C1390 0.956 . S
H1403 C1390 0.961 . S
H1404 C1390 0.961 . S
H1405 C1391 0.958 . S
H1406 C1391 0.961 . S
H1407 C1391 0.960 . S
C1408 C1409 1.391 . S
C1408 C1410 1.394 . S
C1408 H1424 0.931 . S
C1409 C1408 1.391 . S
C1409 C1413 1.376 . S
C1410 C1408 1.394 . S
C1410 C1411 1.369 . S
C1410 C1414 1.531 1_556 S
C1411 C1410 1.369 . S
C1411 C1412 1.410 . S
C1411 C1419 1.503 . S
C1412 C1411 1.410 . S
C1412 C1413 1.392 . S
C1412 C1415 1.511 . S
C1413 C1409 1.376 . S
C1413 C1412 1.392 . S
C1413 H1425 0.929 . S
C1414 C1410 1.531 1_554 S
C1414 H1426 0.960 . S
C1414 H1427 0.962 . S
C1414 H1428 0.960 . S
C1415 C1412 1.511 . S
C1415 H1429 0.961 . S
C1415 H1430 0.961 . S
C1415 H1431 0.961 . S
C1416 C1417 1.370 . S
C1416 C1418 1.363 . S
C1416 H1432 0.931 . S
C1417 C1416 1.370 . S
C1417 C1421 1.408 1_556 S
C1418 C1416 1.363 . S
C1418 C1419 1.370 . S
C1418 C1422 1.524 . S
C1419 C1411 1.503 . S
C1419 C1418 1.370 . S
C1419 C1420 1.403 . S
C1420 C1419 1.403 . S
C1420 C1421 1.404 1_556 S
C1420 C1423 1.539 1_556 S
C1421 C1417 1.408 1_554 S
C1421 C1420 1.404 1_554 S
C1421 H1433 0.930 . S
C1422 C1418 1.524 . S
C1422 H1434 0.956 . S
C1422 H1435 0.961 . S
C1422 H1436 0.961 . S
C1423 C1420 1.539 1_554 S
C1423 H1437 0.958 . S
C1423 H1438 0.961 . S
C1423 H1439 0.960 1_554 S
H1424 C1408 0.931 . S
H1425 C1413 0.929 . S
H1426 C1414 0.960 . S
H1427 C1414 0.962 . S
H1428 C1414 0.960 . S
H1429 C1415 0.961 . S
H1430 C1415 0.961 . S
H1431 C1415 0.961 . S
H1432 C1416 0.931 . S
H1433 C1421 0.930 . S
H1434 C1422 0.956 . S
H1435 C1422 0.961 . S
H1436 C1422 0.961 . S
H1437 C1423 0.958 . S
H1438 C1423 0.961 . S
H1439 C1423 0.960 1_556 S
C1440 C1441 1.391 . S
C1440 C1442 1.394 . S
C1440 H1456 0.931 . S
C1441 C1440 1.391 . S
C1441 C1445 1.376 . S
C1442 C1440 1.394 . S
C1442 C1443 1.369 . S
C1442 C1446 1.531 . S
C1443 C1442 1.369 . S
C1443 C1444 1.410 . S
C1443 C1451 1.503 . S
C1444 C1443 1.410 . S
C1444 C1445 1.392 . S
C1444 C1447 1.511 . S
C1445 C1441 1.376 . S
C1445 C1444 1.392 . S
C1445 H1457 0.929 . S
C1446 C1442 1.531 . S
C1446 H1458 0.960 . S
C1446 H1459 0.962 . S
C1446 H1460 0.960 . S
C1447 C1444 1.511 . S
C1447 H1461 0.961 . S
C1447 H1462 0.961 . S
C1447 H1463 0.961 . S
C1448 C1449 1.370 . S
C1448 C1450 1.363 . S
C1448 H1464 0.931 . S
C1449 C1448 1.370 . S
C1449 C1453 1.408 . S
C1450 C1448 1.363 . S
C1450 C1451 1.370 . S
C1450 C1454 1.524 . S
C1451 C1443 1.503 . S
C1451 C1450 1.370 . S
C1451 C1452 1.403 . S
C1452 C1451 1.403 . S
C1452 C1453 1.404 . S
C1452 C1455 1.539 . S
C1453 C1449 1.408 . S
C1453 C1452 1.404 . S
C1453 H1465 0.930 . S
C1454 C1450 1.524 . S
C1454 H1466 0.956 . S
C1454 H1467 0.961 . S
C1454 H1468 0.961 . S
C1455 C1452 1.539 . S
C1455 H1469 0.958 . S
C1455 H1470 0.961 . S
C1455 H1471 0.960 . S
H1456 C1440 0.931 . S
H1457 C1445 0.929 . S
H1458 C1446 0.960 . S
H1459 C1446 0.962 . S
H1460 C1446 0.960 . S
H1461 C1447 0.961 . S
H1462 C1447 0.961 . S
H1463 C1447 0.961 . S
H1464 C1448 0.931 . S
H1465 C1453 0.930 . S
H1466 C1454 0.956 . S
H1467 C1454 0.961 . S
H1468 C1454 0.961 . S
H1469 C1455 0.958 . S
H1470 C1455 0.961 . S
H1471 C1455 0.960 . S
C1472 C1473 1.391 . S
C1472 C1474 1.394 1_554 S
C1472 H1488 0.931 . S
C1473 C1472 1.391 . S
C1473 C1477 1.376 . S
C1474 C1472 1.394 1_556 S
C1474 C1475 1.369 . S
C1474 C1478 1.531 . S
C1475 C1474 1.369 . S
C1475 C1476 1.410 . S
C1475 C1483 1.503 . S
C1476 C1475 1.410 . S
C1476 C1477 1.392 1_556 S
C1476 C1479 1.511 . S
C1477 C1473 1.376 . S
C1477 C1476 1.392 1_554 S
C1477 H1489 0.929 . S
C1478 C1474 1.531 . S
C1478 H1490 0.960 . S
C1478 H1491 0.962 . S
C1478 H1492 0.960 . S
C1479 C1476 1.511 . S
C1479 H1493 0.961 1_556 S
C1479 H1494 0.961 . S
C1479 H1495 0.961 . S
C1480 C1481 1.370 . S
C1480 C1482 1.363 . S
C1480 H1496 0.931 . S
C1481 C1480 1.370 . S
C1481 C1485 1.408 . S
C1482 C1480 1.363 . S
C1482 C1483 1.370 . S
C1482 C1486 1.524 . S
C1483 C1475 1.503 . S
C1483 C1482 1.370 . S
C1483 C1484 1.403 . S
C1484 C1483 1.403 . S
C1484 C1485 1.404 . S
C1484 C1487 1.539 . S
C1485 C1481 1.408 . S
C1485 C1484 1.404 . S
C1485 H1497 0.930 . S
C1486 C1482 1.524 . S
C1486 H1498 0.956 . S
C1486 H1499 0.961 1_556 S
C1486 H1500 0.961 . S
C1487 C1484 1.539 . S
C1487 H1501 0.958 . S
C1487 H1502 0.961 . S
C1487 H1503 0.960 . S
H1488 C1472 0.931 . S
H1489 C1477 0.929 . S
H1490 C1478 0.960 . S
H1491 C1478 0.962 . S
H1492 C1478 0.960 . S
H1493 C1479 0.961 1_554 S
H1494 C1479 0.961 . S
H1495 C1479 0.961 . S
H1496 C1480 0.931 . S
H1497 C1485 0.930 . S
H1498 C1486 0.956 . S
H1499 C1486 0.961 1_554 S
H1500 C1486 0.961 . S
H1501 C1487 0.958 . S
H1502 C1487 0.961 . S
H1503 C1487 0.960 . S
C1504 C1505 1.391 . S
C1504 C1506 1.394 . S
C1504 H1520 0.931 . S
C1505 C1504 1.391 . S
C1505 C1509 1.376 . S
C1506 C1504 1.394 . S
C1506 C1507 1.369 . S
C1506 C1510 1.531 . S
C1507 C1506 1.369 . S
C1507 C1508 1.410 . S
C1507 C1515 1.503 . S
C1508 C1507 1.410 . S
C1508 C1509 1.392 . S
C1508 C1511 1.511 . S
C1509 C1505 1.376 . S
C1509 C1508 1.392 . S
C1509 H1521 0.929 . S
C1510 C1506 1.531 . S
C1510 H1522 0.960 . S
C1510 H1523 0.962 . S
C1510 H1524 0.960 . S
C1511 C1508 1.511 . S
C1511 H1525 0.961 . S
C1511 H1526 0.961 . S
C1511 H1527 0.961 . S
C1512 C1513 1.370 . S
C1512 C1514 1.363 . S
C1512 H1528 0.931 . S
C1513 C1512 1.370 . S
C1513 C1517 1.408 . S
C1514 C1512 1.363 . S
C1514 C1515 1.370 . S
C1514 C1518 1.524 . S
C1515 C1507 1.503 . S
C1515 C1514 1.370 . S
C1515 C1516 1.403 . S
C1516 C1515 1.403 . S
C1516 C1517 1.404 . S
C1516 C1519 1.539 . S
C1517 C1513 1.408 . S
C1517 C1516 1.404 . S
C1517 H1529 0.930 1_554 S
C1518 C1514 1.524 . S
C1518 H1530 0.956 . S
C1518 H1531 0.961 . S
C1518 H1532 0.961 . S
C1519 C1516 1.539 . S
C1519 H1533 0.958 . S
C1519 H1534 0.961 . S
C1519 H1535 0.960 . S
H1520 C1504 0.931 . S
H1521 C1509 0.929 . S
H1522 C1510 0.960 . S
H1523 C1510 0.962 . S
H1524 C1510 0.960 . S
H1525 C1511 0.961 . S
H1526 C1511 0.961 . S
H1527 C1511 0.961 . S
H1528 C1512 0.931 . S
H1529 C1517 0.930 1_556 S
H1530 C1518 0.956 . S
H1531 C1518 0.961 . S
H1532 C1518 0.961 . S
H1533 C1519 0.958 . S
H1534 C1519 0.961 . S
H1535 C1519 0.960 . S
C1536 C1537 1.391 . S
C1536 C1538 1.394 . S
C1536 H1552 0.931 . S
C1537 C1536 1.391 . S
C1537 C1541 1.376 . S
C1538 C1536 1.394 . S
C1538 C1539 1.369 . S
C1538 C1542 1.531 . S
C1539 C1538 1.369 . S
C1539 C1540 1.410 . S
C1539 C1547 1.503 . S
C1540 C1539 1.410 . S
C1540 C1541 1.392 . S
C1540 C1543 1.511 . S
C1541 C1537 1.376 . S
C1541 C1540 1.392 . S
C1541 H1553 0.929 . S
C1542 C1538 1.531 . S
C1542 H1554 0.960 . S
C1542 H1555 0.962 . S
C1542 H1556 0.960 . S
C1543 C1540 1.511 . S
C1543 H1557 0.961 . S
C1543 H1558 0.961 . S
C1543 H1559 0.961 . S
C1544 C1545 1.370 . S
C1544 C1546 1.363 . S
C1544 H1560 0.931 . S
C1545 C1544 1.370 . S
C1545 C1549 1.408 . S
C1546 C1544 1.363 . S
C1546 C1547 1.370 . S
C1546 C1550 1.524 . S
C1547 C1539 1.503 . S
C1547 C1546 1.370 . S
C1547 C1548 1.403 . S
C1548 C1547 1.403 . S
C1548 C1549 1.404 . S
C1548 C1551 1.539 . S
C1549 C1545 1.408 . S
C1549 C1548 1.404 . S
C1549 H1561 0.930 . S
C1550 C1546 1.524 . S
C1550 H1562 0.956 . S
C1550 H1563 0.961 . S
C1550 H1564 0.961 . S
C1551 C1548 1.539 . S
C1551 H1565 0.958 . S
C1551 H1566 0.961 . S
C1551 H1567 0.960 . S
H1552 C1536 0.931 . S
H1553 C1541 0.929 . S
H1554 C1542 0.960 . S
H1555 C1542 0.962 . S
H1556 C1542 0.960 . S
H1557 C1543 0.961 . S
H1558 C1543 0.961 . S
H1559 C1543 0.961 . S
H1560 C1544 0.931 . S
H1561 C1549 0.930 . S
H1562 C1550 0.956 . S
H1563 C1550 0.961 . S
H1564 C1550 0.961 . S
H1565 C1551 0.958 . S
H1566 C1551 0.961 . S
H1567 C1551 0.960 . S
C1568 C1569 1.391 . S
C1568 C1570 1.394 . S
C1568 H1584 0.931 . S
C1569 C1568 1.391 . S
C1569 C1573 1.376 . S
C1570 C1568 1.394 . S
C1570 C1571 1.369 . S
C1570 C1574 1.531 . S
C1571 C1570 1.369 . S
C1571 C1572 1.410 . S
C1571 C1579 1.503 . S
C1572 C1571 1.410 . S
C1572 C1573 1.392 . S
C1572 C1575 1.511 . S
C1573 C1569 1.376 . S
C1573 C1572 1.392 . S
C1573 H1585 0.929 . S
C1574 C1570 1.531 . S
C1574 H1586 0.960 . S
C1574 H1587 0.962 . S
C1574 H1588 0.960 . S
C1575 C1572 1.511 . S
C1575 H1589 0.961 . S
C1575 H1590 0.961 . S
C1575 H1591 0.961 . S
C1576 C1577 1.370 . S
C1576 C1578 1.363 . S
C1576 H1592 0.931 . S
C1577 C1576 1.370 . S
C1577 C1581 1.408 . S
C1578 C1576 1.363 . S
C1578 C1579 1.370 . S
C1578 C1582 1.524 . S
C1579 C1571 1.503 . S
C1579 C1578 1.370 . S
C1579 C1580 1.403 . S
C1580 C1579 1.403 . S
C1580 C1581 1.404 . S
C1580 C1583 1.539 . S
C1581 C1577 1.408 . S
C1581 C1580 1.404 . S
C1581 H1593 0.930 . S
C1582 C1578 1.524 . S
C1582 H1594 0.956 . S
C1582 H1595 0.961 . S
C1582 H1596 0.961 . S
C1583 C1580 1.539 . S
C1583 H1597 0.958 . S
C1583 H1598 0.961 . S
C1583 H1599 0.960 . S
H1584 C1568 0.931 . S
H1585 C1573 0.929 . S
H1586 C1574 0.960 . S
H1587 C1574 0.962 . S
H1588 C1574 0.960 . S
H1589 C1575 0.961 . S
H1590 C1575 0.961 . S
H1591 C1575 0.961 . S
H1592 C1576 0.931 . S
H1593 C1581 0.930 . S
H1594 C1582 0.956 . S
H1595 C1582 0.961 . S
H1596 C1582 0.961 . S
H1597 C1583 0.958 . S
H1598 C1583 0.961 . S
H1599 C1583 0.960 . S
C1600 C1601 1.391 . S
C1600 C1602 1.394 . S
C1600 H1616 0.931 . S
C1601 C1600 1.391 . S
C1601 C1605 1.376 . S
C1602 C1600 1.394 . S
C1602 C1603 1.369 . S
C1602 C1606 1.531 . S
C1603 C1602 1.369 . S
C1603 C1604 1.410 . S
C1603 C1611 1.503 . S
C1604 C1603 1.410 . S
C1604 C1605 1.392 . S
C1604 C1607 1.511 . S
C1605 C1601 1.376 . S
C1605 C1604 1.392 . S
C1605 H1617 0.929 . S
C1606 C1602 1.531 . S
C1606 H1618 0.960 . S
C1606 H1619 0.962 . S
C1606 H1620 0.960 . S
C1607 C1604 1.511 . S
C1607 H1621 0.961 . S
C1607 H1622 0.961 . S
C1607 H1623 0.961 . S
C1608 C1609 1.370 . S
C1608 C1610 1.363 . S
C1608 H1624 0.931 . S
C1609 C1608 1.370 . S
C1609 C1613 1.408 . S
C1610 C1608 1.363 . S
C1610 C1611 1.370 . S
C1610 C1614 1.524 . S
C1611 C1603 1.503 . S
C1611 C1610 1.370 . S
C1611 C1612 1.403 . S
C1612 C1611 1.403 . S
C1612 C1613 1.404 . S
C1612 C1615 1.539 . S
C1613 C1609 1.408 . S
C1613 C1612 1.404 . S
C1613 H1625 0.930 . S
C1614 C1610 1.524 . S
C1614 H1626 0.956 . S
C1614 H1627 0.961 . S
C1614 H1628 0.961 . S
C1615 C1612 1.539 . S
C1615 H1629 0.958 . S
C1615 H1630 0.961 . S
C1615 H1631 0.960 . S
H1616 C1600 0.931 . S
H1617 C1605 0.929 . S
H1618 C1606 0.960 . S
H1619 C1606 0.962 . S
H1620 C1606 0.960 . S
H1621 C1607 0.961 . S
H1622 C1607 0.961 . S
H1623 C1607 0.961 . S
H1624 C1608 0.931 . S
H1625 C1613 0.930 . S
H1626 C1614 0.956 . S
H1627 C1614 0.961 . S
H1628 C1614 0.961 . S
H1629 C1615 0.958 . S
H1630 C1615 0.961 . S
H1631 C1615 0.960 . S
C1632 C1633 1.391 . S
C1632 C1634 1.394 . S
C1632 H1648 0.931 . S
C1633 C1632 1.391 . S
C1633 C1637 1.376 . S
C1634 C1632 1.394 . S
C1634 C1635 1.369 . S
C1634 C1638 1.531 . S
C1635 C1634 1.369 . S
C1635 C1636 1.410 . S
C1635 C1643 1.503 1_455 S
C1636 C1635 1.410 . S
C1636 C1637 1.392 . S
C1636 C1639 1.511 1_455 S
C1637 C1633 1.376 . S
C1637 C1636 1.392 . S
C1637 H1649 0.929 . S
C1638 C1634 1.531 . S
C1638 H1650 0.960 . S
C1638 H1651 0.962 . S
C1638 H1652 0.960 . S
C1639 C1636 1.511 1_655 S
C1639 H1653 0.961 . S
C1639 H1654 0.961 . S
C1639 H1655 0.961 . S
C1640 C1641 1.370 . S
C1640 C1642 1.363 . S
C1640 H1656 0.931 . S
C1641 C1640 1.370 . S
C1641 C1645 1.408 . S
C1642 C1640 1.363 . S
C1642 C1643 1.370 . S
C1642 C1646 1.524 1_655 S
C1643 C1635 1.503 1_655 S
C1643 C1642 1.370 . S
C1643 C1644 1.403 . S
C1644 C1643 1.403 . S
C1644 C1645 1.404 . S
C1644 C1647 1.539 . S
C1645 C1641 1.408 . S
C1645 C1644 1.404 . S
C1645 H1657 0.930 . S
C1646 C1642 1.524 1_455 S
C1646 H1658 0.956 . S
C1646 H1659 0.961 . S
C1646 H1660 0.961 . S
C1647 C1644 1.539 . S
C1647 H1661 0.958 . S
C1647 H1662 0.961 . S
C1647 H1663 0.960 . S
H1648 C1632 0.931 . S
H1649 C1637 0.929 . S
H1650 C1638 0.960 . S
H1651 C1638 0.962 . S
H1652 C1638 0.960 . S
H1653 C1639 0.961 . S
H1654 C1639 0.961 . S
H1655 C1639 0.961 . S
H1656 C1640 0.931 . S
H1657 C1645 0.930 . S
H1658 C1646 0.956 . S
H1659 C1646 0.961 . S
H1660 C1646 0.961 . S
H1661 C1647 0.958 . S
H1662 C1647 0.961 . S
H1663 C1647 0.960 . S
C1664 C1665 1.391 . S
C1664 C1666 1.394 1_556 S
C1664 H1680 0.931 . S
C1665 C1664 1.391 . S
C1665 C1669 1.376 . S
C1666 C1664 1.394 1_554 S
C1666 C1667 1.369 . S
C1666 C1670 1.531 . S
C1667 C1666 1.369 . S
C1667 C1668 1.410 1_554 S
C1667 C1675 1.503 1_565 S
C1668 C1667 1.410 1_556 S
C1668 C1669 1.392 . S
C1668 C1671 1.511 1_565 S
C1669 C1665 1.376 . S
C1669 C1668 1.392 . S
C1669 H1681 0.929 . S
C1670 C1666 1.531 . S
C1670 H1682 0.960 . S
C1670 H1683 0.962 . S
C1670 H1684 0.960 . S
C1671 C1668 1.511 1_545 S
C1671 H1685 0.961 . S
C1671 H1686 0.961 1_556 S
C1671 H1687 1.015 1_556 S
C1672 C1673 1.370 . S
C1672 C1674 1.363 . S
C1672 H1688 0.931 . S
C1673 C1672 1.370 . S
C1673 C1677 1.408 . S
C1674 C1672 1.363 . S
C1674 C1675 1.370 . S
C1674 C1678 1.524 . S
C1675 C1667 1.503 1_545 S
C1675 C1674 1.370 . S
C1675 C1676 1.403 . S
C1676 C1675 1.403 . S
C1676 C1677 1.404 . S
C1676 C1679 1.539 1_545 S
C1677 C1673 1.408 . S
C1677 C1676 1.404 . S
C1677 H1689 0.930 . S
C1678 C1674 1.524 . S
C1678 H1690 0.956 . S
C1678 H1691 0.961 1_554 S
C1678 H1692 0.961 . S
C1679 C1676 1.539 1_565 S
C1679 H1693 0.958 . S
C1679 H1694 0.961 . S
C1679 H1695 0.960 . S
H1680 C1664 0.931 . S
H1681 C1669 0.929 . S
H1682 C1670 0.960 . S
H1683 C1670 0.962 . S
H1684 C1670 0.960 . S
H1685 C1671 0.961 . S
H1686 C1671 0.961 1_554 S
H1687 C1671 1.015 1_554 S
H1688 C1672 0.931 . S
H1689 C1677 0.930 . S
H1690 C1678 0.956 . S
H1691 C1678 0.961 1_556 S
H1692 C1678 0.961 . S
H1693 C1679 0.958 . S
H1694 C1679 0.961 . S
H1695 C1679 0.960 . S
C1696 C1697 1.391 . S
C1696 C1698 1.394 . S
C1696 H1712 0.931 . S
C1697 C1696 1.391 . S
C1697 C1701 1.376 . S
C1698 C1696 1.394 . S
C1698 C1699 1.369 . S
C1698 C1702 1.531 . S
C1699 C1698 1.369 . S
C1699 C1700 1.410 . S
C1699 C1707 1.503 . S
C1700 C1699 1.410 . S
C1700 C1701 1.392 . S
C1700 C1703 1.511 . S
C1701 C1697 1.376 . S
C1701 C1700 1.392 . S
C1701 H1713 0.929 . S
C1702 C1698 1.531 . S
C1702 H1714 0.960 . S
C1702 H1715 0.962 . S
C1702 H1716 0.960 . S
C1703 C1700 1.511 . S
C1703 H1717 0.961 . S
C1703 H1718 0.961 . S
C1703 H1719 0.961 . S
C1704 C1705 1.370 . S
C1704 C1706 1.363 . S
C1704 H1720 0.931 . S
C1705 C1704 1.370 . S
C1705 C1709 1.408 . S
C1706 C1704 1.363 . S
C1706 C1707 1.370 . S
C1706 C1710 1.524 . S
C1707 C1699 1.503 . S
C1707 C1706 1.370 . S
C1707 C1708 1.403 . S
C1708 C1707 1.403 . S
C1708 C1709 1.404 . S
C1708 C1711 1.539 . S
C1709 C1705 1.408 . S
C1709 C1708 1.404 . S
C1709 H1721 0.930 . S
C1710 C1706 1.524 . S
C1710 H1722 0.956 . S
C1710 H1723 0.961 . S
C1710 H1724 0.961 . S
C1711 C1708 1.539 . S
C1711 H1725 0.958 . S
C1711 H1726 0.961 . S
C1711 H1727 0.960 . S
H1712 C1696 0.931 . S
H1713 C1701 0.929 . S
H1714 C1702 0.960 . S
H1715 C1702 0.962 . S
H1716 C1702 0.960 . S
H1717 C1703 0.961 . S
H1718 C1703 0.961 . S
H1719 C1703 0.961 . S
H1720 C1704 0.931 . S
H1721 C1709 0.930 . S
H1722 C1710 0.956 . S
H1723 C1710 0.961 . S
H1724 C1710 0.961 . S
H1725 C1711 0.958 . S
H1726 C1711 0.961 . S
H1727 C1711 0.960 . S
C1728 C1729 1.391 . S
C1728 C1730 1.394 . S
C1728 H1744 0.931 . S
C1729 C1728 1.391 . S
C1729 C1733 1.376 . S
C1730 C1728 1.394 . S
C1730 C1731 1.369 . S
C1730 C1734 1.531 1_455 S
C1731 C1730 1.369 . S
C1731 C1732 1.410 . S
C1731 C1739 1.503 1_455 S
C1732 C1731 1.410 . S
C1732 C1733 1.392 . S
C1732 C1735 1.511 . S
C1733 C1729 1.376 . S
C1733 C1732 1.392 . S
C1733 H1745 0.929 . S
C1734 C1730 1.531 1_655 S
C1734 H1746 0.960 . S
C1734 H1747 0.962 . S
C1734 H1748 0.960 . S
C1735 C1732 1.511 . S
C1735 H1749 0.961 . S
C1735 H1750 0.961 . S
C1735 H1751 0.961 . S
C1736 C1737 1.370 . S
C1736 C1738 1.363 . S
C1736 H1752 0.931 . S
C1737 C1736 1.370 . S
C1737 C1741 1.408 . S
C1738 C1736 1.363 . S
C1738 C1739 1.370 . S
C1738 C1742 1.524 . S
C1739 C1731 1.503 1_655 S
C1739 C1738 1.370 . S
C1739 C1740 1.403 . S
C1740 C1739 1.403 . S
C1740 C1741 1.404 . S
C1740 C1743 1.539 1_655 S
C1741 C1737 1.408 . S
C1741 C1740 1.404 . S
C1741 H1753 0.930 . S
C1742 C1738 1.524 . S
C1742 H1754 0.956 . S
C1742 H1755 0.961 . S
C1742 H1756 0.961 . S
C1743 C1740 1.539 1_455 S
C1743 H1757 0.958 . S
C1743 H1758 0.961 . S
C1743 H1759 0.960 . S
H1744 C1728 0.931 . S
H1745 C1733 0.929 . S
H1746 C1734 0.960 . S
H1747 C1734 0.962 . S
H1748 C1734 0.960 . S
H1749 C1735 0.961 . S
H1750 C1735 0.961 . S
H1751 C1735 0.961 . S
H1752 C1736 0.931 . S
H1753 C1741 0.930 . S
H1754 C1742 0.956 . S
H1755 C1742 0.961 . S
H1756 C1742 0.961 . S
H1757 C1743 0.958 . S
H1758 C1743 0.961 . S
H1759 C1743 0.960 . S
C1760 C1761 1.391 . S
C1760 C1762 1.432 . S
C1760 H1776 0.931 . S
C1761 C1760 1.391 . S
C1761 C1765 1.376 . S
C1762 C1760 1.432 . S
C1762 C1763 1.364 . S
C1762 C1766 1.500 1_545 S
C1763 C1762 1.364 . S
C1763 C1764 1.410 . S
C1763 C1771 1.503 1_545 S
C1764 C1763 1.410 . S
C1764 C1765 1.392 . S
C1764 C1767 1.511 . S
C1765 C1761 1.376 . S
C1765 C1764 1.392 . S
C1765 H1777 0.929 . S
C1766 C1762 1.500 1_565 S
C1766 H1778 0.960 . S
C1766 H1779 0.962 . S
C1766 H1780 0.960 . S
C1767 C1764 1.511 . S
C1767 H1781 0.961 . S
C1767 H1782 0.961 . S
C1767 H1783 0.961 . S
C1768 C1769 1.370 . S
C1768 C1770 1.363 . S
C1768 H1784 0.931 . S
C1769 C1768 1.370 . S
C1769 C1773 1.408 . S
C1770 C1768 1.363 . S
C1770 C1771 1.370 . S
C1770 C1774 1.524 1_565 S
C1771 C1763 1.503 1_565 S
C1771 C1770 1.370 . S
C1771 C1772 1.403 . S
C1772 C1771 1.403 . S
C1772 C1773 1.404 . S
C1772 C1775 1.539 . S
C1773 C1769 1.408 . S
C1773 C1772 1.404 . S
C1773 H1785 0.930 . S
C1774 C1770 1.524 1_545 S
C1774 H1786 0.956 . S
C1774 H1787 0.961 . S
C1774 H1788 0.961 . S
C1775 C1772 1.539 . S
C1775 H1789 0.958 . S
C1775 H1790 0.961 . S
C1775 H1791 0.960 . S
H1776 C1760 0.931 . S
H1777 C1765 0.929 . S
H1778 C1766 0.960 . S
H1779 C1766 0.962 . S
H1780 C1766 0.960 . S
H1781 C1767 0.961 . S
H1782 C1767 0.961 . S
H1783 C1767 0.961 . S
H1784 C1768 0.931 . S
H1785 C1773 0.930 . S
H1786 C1774 0.956 . S
H1787 C1774 0.961 . S
H1788 C1774 0.961 . S
H1789 C1775 0.958 . S
H1790 C1775 0.961 . S
H1791 C1775 0.960 . S
C1792 C1793 1.391 . S
C1792 C1794 1.394 . S
C1792 H1808 0.931 . S
C1793 C1792 1.391 . S
C1793 C1797 1.376 . S
C1794 C1792 1.394 . S
C1794 C1795 1.369 . S
C1794 C1798 1.531 . S
C1795 C1794 1.369 . S
C1795 C1796 1.410 . S
C1795 C1803 1.503 . S
C1796 C1795 1.410 . S
C1796 C1797 1.392 . S
C1796 C1799 1.511 . S
C1797 C1793 1.376 . S
C1797 C1796 1.392 . S
C1797 H1809 0.929 . S
C1798 C1794 1.531 . S
C1798 H1810 0.960 . S
C1798 H1811 0.962 . S
C1798 H1812 0.960 . S
C1799 C1796 1.511 . S
C1799 H1813 0.961 . S
C1799 H1814 0.961 . S
C1799 H1815 0.961 . S
C1800 C1801 1.370 . S
C1800 C1802 1.363 . S
C1800 H1816 0.931 . S
C1801 C1800 1.370 . S
C1801 C1805 1.408 . S
C1802 C1800 1.363 . S
C1802 C1803 1.370 . S
C1802 C1806 1.524 . S
C1803 C1795 1.503 . S
C1803 C1802 1.370 . S
C1803 C1804 1.403 . S
C1804 C1803 1.403 . S
C1804 C1805 1.404 . S
C1804 C1807 1.539 . S
C1805 C1801 1.408 . S
C1805 C1804 1.404 . S
C1805 H1817 0.930 . S
C1806 C1802 1.524 . S
C1806 H1818 0.956 . S
C1806 H1819 0.961 . S
C1806 H1820 0.961 . S
C1807 C1804 1.539 . S
C1807 H1821 0.958 . S
C1807 H1822 0.961 . S
C1807 H1823 0.960 . S
H1808 C1792 0.931 . S
H1809 C1797 0.929 . S
H1810 C1798 0.960 . S
H1811 C1798 0.962 . S
H1812 C1798 0.960 . S
H1813 C1799 0.961 . S
H1814 C1799 0.961 . S
H1815 C1799 0.961 . S
H1816 C1800 0.931 . S
H1817 C1805 0.930 . S
H1818 C1806 0.956 . S
H1819 C1806 0.961 . S
H1820 C1806 0.961 . S
H1821 C1807 0.958 . S
H1822 C1807 0.961 . S
H1823 C1807 0.960 . S
C1057 C29 1.288 . S
C1065 C937 1.280 . S
C1089 C1017 1.318 . S
C1097 C117 1.287 . S
C1121 C196 1.315 . S
C1129 C577 1.285 . S
C1153 C293 1.298 . S
C1161 C673 1.280 . S
C1185 C372 1.269 . S
C1193 C761 1.303 . S
C1217 C849 1.319 . S
C1225 C469 1.288 . S
C1249 C20 1.637 . S
C1257 C753 1.648 . S
C1281 C108 1.636 . S
C1289 C841 1.646 . S
C1313 C929 1.634 . S
C1321 C205 1.647 . S
C1345 C284 1.634 . S
C1353 C1025 1.649 . S
C1377 C381 1.647 . S
C1385 C585 1.642 . S
C1409 C460 1.637 . S
C1417 C665 1.648 1_556 S
C1441 C900 0.556 . S
C1449 C49 0.557 . S
C1473 C137 0.565 . S
C1481 C997 0.561 . S
C1505 C233 0.563 . S
C1513 C557 0.560 . S
C1537 C313 0.555 . S
C1545 C636 0.556 . S
C1569 C724 0.555 . S
C1577 C409 0.556 . S
C1601 C489 0.565 . S
C1609 C812 0.561 . S
C1633 C57 1.774 . S
C1641 C988 1.744 . S
C1665 C548 1.730 . S
C1673 C145 1.763 . S
C1697 C645 1.770 . S
C1705 C225 1.739 . S
C1729 C733 1.719 . S
C1737 C321 1.759 . S
C1761 C821 1.756 . S
C1769 C401 1.742 . S
C1793 C909 1.731 . S
C1801 C497 1.752 . S
