# Generated by pormake.
# Topology snz, (6)-cn, num edge types: 1
# Building blocks:
#     Node 0, Type 0, BuildingBlock: KUMJIN_clean_sbu_1, # of connection points: 6
#     Node 1, Type 0, BuildingBlock: KUMJIN_clean_sbu_1, # of connection points: 6
#     Node 2, Type 0, BuildingBlock: KUMJIN_clean_sbu_1, # of connection points: 6
#     Node 3, Type 0, BuildingBlock: KUMJIN_clean_sbu_1, # of connection points: 6
#     Node 4, Type 0, BuildingBlock: KUMJIN_clean_sbu_1, # of connection points: 6
#     Node 5, Type 0, BuildingBlock: KUMJIN_clean_sbu_1, # of connection points: 6
#     Node 6, Type 0, BuildingBlock: KUMJIN_clean_sbu_1, # of connection points: 6
#     Node 7, Type 0, BuildingBlock: KUMJIN_clean_sbu_1, # of connection points: 6
#     Node 8, Type 0, BuildingBlock: KUMJIN_clean_sbu_1, # of connection points: 6
#     Edge 9, Type (0, 0), BuildingBlock: UVAHIK_clean_linker_0, # of connection points: 2
#     Edge 10, Type (0, 0), BuildingBlock: UVAHIK_clean_linker_0, # of connection points: 2
#     Edge 11, Type (0, 0), BuildingBlock: UVAHIK_clean_linker_0, # of connection points: 2
#     Edge 12, Type (0, 0), BuildingBlock: UVAHIK_clean_linker_0, # of connection points: 2
#     Edge 13, Type (0, 0), BuildingBlock: UVAHIK_clean_linker_0, # of connection points: 2
#     Edge 14, Type (0, 0), BuildingBlock: UVAHIK_clean_linker_0, # of connection points: 2
#     Edge 15, Type (0, 0), BuildingBlock: UVAHIK_clean_linker_0, # of connection points: 2
#     Edge 16, Type (0, 0), BuildingBlock: UVAHIK_clean_linker_0, # of connection points: 2
#     Edge 17, Type (0, 0), BuildingBlock: UVAHIK_clean_linker_0, # of connection points: 2
#     Edge 18, Type (0, 0), BuildingBlock: UVAHIK_clean_linker_0, # of connection points: 2
#     Edge 19, Type (0, 0), BuildingBlock: UVAHIK_clean_linker_0, # of connection points: 2
#     Edge 20, Type (0, 0), BuildingBlock: UVAHIK_clean_linker_0, # of connection points: 2
#     Edge 21, Type (0, 0), BuildingBlock: UVAHIK_clean_linker_0, # of connection points: 2
#     Edge 22, Type (0, 0), BuildingBlock: UVAHIK_clean_linker_0, # of connection points: 2
#     Edge 23, Type (0, 0), BuildingBlock: UVAHIK_clean_linker_0, # of connection points: 2
#     Edge 24, Type (0, 0), BuildingBlock: UVAHIK_clean_linker_0, # of connection points: 2
#     Edge 25, Type (0, 0), BuildingBlock: UVAHIK_clean_linker_0, # of connection points: 2
#     Edge 26, Type (0, 0), BuildingBlock: UVAHIK_clean_linker_0, # of connection points: 2
#     Edge 27, Type (0, 0), BuildingBlock: UVAHIK_clean_linker_0, # of connection points: 2
#     Edge 28, Type (0, 0), BuildingBlock: UVAHIK_clean_linker_0, # of connection points: 2
#     Edge 29, Type (0, 0), BuildingBlock: UVAHIK_clean_linker_0, # of connection points: 2
#     Edge 30, Type (0, 0), BuildingBlock: UVAHIK_clean_linker_0, # of connection points: 2
#     Edge 31, Type (0, 0), BuildingBlock: UVAHIK_clean_linker_0, # of connection points: 2
#     Edge 32, Type (0, 0), BuildingBlock: UVAHIK_clean_linker_0, # of connection points: 2
#     Edge 33, Type (0, 0), BuildingBlock: UVAHIK_clean_linker_0, # of connection points: 2
#     Edge 34, Type (0, 0), BuildingBlock: UVAHIK_clean_linker_0, # of connection points: 2
#     Edge 35, Type (0, 0), BuildingBlock: UVAHIK_clean_linker_0, # of connection points: 2
# Relax obj value: 0.173
# Max RMSD: 0.155
# Mean RMSD: 0.106
data_MOF--net-snz--node1-KUMJIN_clean_sbu_1--edge1-UVAHIK_clean_linker_0
_symmetry_space_group_name_H-M    P1
_symmetry_Int_Tables_number       1
_symmetry_cell_setting            triclinic
loop_
_symmetry_equiv_pos_as_xyz
'x, y, z'
_cell_length_a     80.875555
_cell_length_b     68.154312
_cell_length_c     21.01712
_cell_angle_alpha  96.201584
_cell_angle_beta   95.506963
_cell_angle_gamma 120.56821
loop_
_atom_site_label
_atom_site_type_symbol
_atom_site_fract_x
_atom_site_fract_y
_atom_site_fract_z
_atom_type_partial_charge
Eu0 Eu 0.01983 0.49061 0.16072 0.0
C1 C 0.10966 0.52401 0.14349 0.0
N2 N 0.09346 0.50304 0.11768 0.0
C3 C 0.10785 0.49982 1.02571 0.0
C4 C 0.12558 0.53395 0.11031 0.0
C5 C 0.09248 0.49061 0.06051 0.0
C6 C 0.1244 0.52168 0.0504 0.0
C7 C 0.12759 0.55659 0.23342 0.0
C8 C 0.11067 0.53517 0.2045 0.0
C9 C 0.14324 0.56683 0.19967 0.0
C10 C 0.14224 0.55554 0.13833 0.0
Eu11 Eu 0.06775 0.48978 0.17729 0.0
N12 N 0.09523 0.52494 0.23594 0.0
C13 C 0.12839 0.56698 0.29574 0.0
C14 C 0.09628 0.53454 0.29788 0.0
C15 C 0.11275 0.55579 0.3283 0.0
H16 H 0.07985 0.47349 1.04207 0.0
H17 H 0.11333 0.56358 0.37681 0.0
H18 H 0.00123 0.47909 0.29918 0.0
H19 H 0.98551 0.44172 0.91175 0.0
H20 H 0.08431 0.52628 0.32356 0.0
H21 H 0.14111 0.58346 0.31948 0.0
H22 H 0.00812 0.47576 0.99476 0.0
H23 H 0.10696 0.49002 0.98005 0.0
H24 H 0.1563 0.58335 0.22098 0.0
H25 H 0.15456 0.56351 0.11336 0.0
H26 H 0.9746 0.44686 0.33756 0.0
H27 H 0.13632 0.52873 1.02344 0.0
H28 H 0.95953 0.40648 0.9434 0.0
N29 N 0.99358 0.46119 0.20141 0.0
C30 C 0.98015 0.44185 0.15773 0.0
C31 C 0.97611 0.44511 0.28697 0.0
C32 C 0.96446 0.42304 0.17768 0.0
C33 C 0.99143 0.46328 0.26504 0.0
C34 C 0.96269 0.4248 0.24328 0.0
N35 N 0.99715 0.45952 0.0748 0.0
C36 C 0.99784 0.46028 1.01038 0.0
C37 C 0.9681 0.42127 1.04607 0.0
C38 C 0.98199 0.441 0.09267 0.0
C39 C 0.96984 0.42131 0.98057 0.0
C40 C 0.98456 0.44109 0.96258 0.0
H41 H 0.95083 0.41075 0.26045 0.0
H42 H 0.93894 0.38851 0.14624 0.0
H43 H 0.94215 0.38694 1.03098 0.0
O44 O 0.01067 0.50981 0.104 0.0
O45 O 0.01983 0.45733 0.16935 0.0
O46 O 0.04188 0.46035 0.10706 0.0
O47 O 0.00114 0.50244 0.19511 0.0
O48 O 0.03671 0.50121 0.0714 0.0
O49 O 0.05502 0.48402 0.06731 0.0
O50 O 0.06208 0.46069 0.22647 0.0
O51 O 0.07157 0.52539 0.1756 0.0
O52 O 0.04611 0.52345 0.21973 0.0
O53 O 0.08883 0.4788 0.1889 0.0
O54 O 0.05596 0.48845 0.27646 0.0
O55 O 0.03282 0.49899 0.27173 0.0
C56 C 0.02536 0.44756 0.12612 0.0
C57 C 0.97969 0.50431 0.11435 0.0
C58 C 0.95744 0.51446 0.0606 0.0
C59 C 0.94175 0.49203 0.06143 0.0
C60 C 0.96371 0.48209 0.11391 0.0
C61 C 0.94491 0.47603 0.08763 0.0
C62 C 0.9765 0.52051 0.08764 0.0
C63 C 0.0462 0.49348 1.03766 0.0
C64 C -0.00042 0.51076 0.14359 0.0
C65 C 0.95097 0.40318 0.13166 0.0
C66 C 0.9528 0.40229 0.06605 0.0
C67 C 0.06347 0.53552 0.20478 0.0
C68 C 0.07582 0.43905 0.18805 0.0
C69 C 0.08352 0.40867 0.19533 0.0
C70 C 0.0733 0.39825 0.13107 0.0
C71 C 0.0656 0.42803 0.12469 0.0
C72 C 0.0847 0.42932 0.22345 0.0
C73 C 0.06434 0.40775 0.09656 0.0
C74 C 0.04438 0.4937 0.30582 0.0
C75 C 0.07796 0.46126 0.21571 0.0
H76 H 0.92689 0.48687 1.04257 0.0
H77 H 0.96568 0.46944 0.13459 0.0
H78 H 0.93268 0.45889 0.08801 0.0
H79 H 0.98882 0.53764 0.08746 0.0
H80 H 0.07249 0.38291 0.1065 0.0
H81 H 0.05885 0.43532 0.09655 0.0
H82 H 0.09244 0.43783 0.27261 0.0
H83 H 0.05659 0.3995 0.0473 0.0
Eu84 Eu 0.53388 0.50558 1.00715 0.0
C85 C 0.59156 0.46809 0.08005 0.0
N86 N 0.59506 0.48983 0.09726 0.0
C87 C 0.61448 0.49507 0.19845 0.0
C88 C 0.59908 0.45874 0.12261 0.0
C89 C 0.60681 0.50365 0.15452 0.0
C90 C 0.6104 0.47241 0.1828 0.0
C91 C 0.57863 0.43367 0.99739 0.0
C92 C 0.58149 0.45574 1.01806 0.0
C93 C 0.58532 0.42386 1.04069 0.0
C94 C 0.59553 0.43636 0.10311 0.0
Eu95 Eu 0.58017 0.50201 1.02237 0.0
N96 N 0.57536 0.46576 0.97694 0.0
C97 C 0.5696 0.42239 0.9332 0.0
C98 C 0.56766 0.45547 0.91318 0.0
C99 C 0.56434 0.43348 0.89072 0.0
H100 H 0.61003 0.52122 0.16641 0.0
H101 H 0.5577 0.42508 0.84067 0.0
H102 H 0.50299 0.48266 0.86575 0.0
H103 H 0.55462 0.58376 0.18039 0.0
H104 H 0.56341 0.46378 0.87999 0.0
H105 H 0.56708 0.40539 0.91554 0.0
H106 H 0.55133 0.54615 0.14459 0.0
H107 H 0.62353 0.50593 0.2443 0.0
H108 H 0.5831 0.40684 1.02582 0.0
H109 H 0.60103 0.4288 0.13537 0.0
H110 H 0.4862 0.49426 0.78708 0.0
H111 H 0.61643 0.46585 0.21683 0.0
H112 H 0.5413 0.59981 0.10493 0.0
N113 N 0.51612 0.51443 0.93257 0.0
C114 C 0.51802 0.53541 0.94764 0.0
C115 C 0.49514 0.50602 0.83197 0.0
C116 C 0.50867 0.54272 0.90458 0.0
C117 C 0.50462 0.4995 0.8764 0.0
C118 C 0.4973 0.52781 0.84585 0.0
N119 N 0.53669 0.54106 0.04896 0.0
C120 C 0.54534 0.55281 0.11114 0.0
C121 C 0.53003 0.57052 1.02635 0.0
C122 C 0.52858 0.54912 1.0077 0.0
C123 C 0.53981 0.58325 0.08883 0.0
C124 C 0.54729 0.57422 0.13163 0.0
H125 H 0.48989 0.53279 0.81145 0.0
H126 H 0.50369 0.57039 0.88941 0.0
H127 H 0.52238 0.59474 0.99605 0.0
O128 O 0.51784 0.47756 0.05972 0.0
O129 O 0.56293 0.53946 1.01665 0.0
O130 O 0.58398 0.5343 0.08242 0.0
O131 O 0.50347 0.4934 1.01361 0.0
O132 O 0.54527 0.50711 0.11608 0.0
O133 O 0.57325 0.50535 0.12737 0.0
O134 O 0.59965 0.53009 0.97501 0.0
O135 O 0.55054 0.46793 1.00909 0.0
O136 O 0.53051 0.47449 0.94331 0.0
O137 O 0.61011 0.51053 1.02074 0.0
O138 O 0.56995 0.50297 0.91452 0.0
O139 O 0.5411 0.50289 0.90234 0.0
C140 C 0.57881 0.54797 0.06001 0.0
C141 C 0.48374 0.45417 1.02395 0.0
C142 C 0.45325 0.42261 1.04646 0.0
C143 C 0.4504 0.40964 0.98523 0.0
C144 C 0.48038 0.44119 0.96257 0.0
C145 C 0.46386 0.41895 0.94357 0.0
C146 C 0.47009 0.44493 0.06554 0.0
C147 C 0.55903 0.50599 0.15308 0.0
C148 C 0.50152 0.47717 1.04571 0.0
C149 C 0.51065 0.56439 0.92202 0.0
C150 C 0.5213 0.57826 0.98275 0.0
C151 C 0.53487 0.46014 0.96504 0.0
C152 C 0.63333 0.54961 1.01912 0.0
C153 C 0.66748 0.5774 1.01398 0.0
C154 C 0.66862 0.59117 0.07116 0.0
C155 C 0.635 0.56343 0.07668 0.0
C156 C 0.64966 0.5565 0.98817 0.0
C157 C 0.65251 0.58416 0.10228 0.0
C158 C 0.55591 0.50355 0.87728 0.0
C159 C 0.61464 0.52803 0.99134 0.0
H160 H 0.43756 0.39248 0.96901 0.0
H161 H 0.49053 0.44829 0.92951 0.0
H162 H 0.46141 0.40894 0.89627 0.0
H163 H 0.47271 0.45502 0.11301 0.0
H164 H 0.68212 0.60718 0.09261 0.0
H165 H 0.62277 0.55812 0.10185 0.0
H166 H 0.64843 0.54576 0.94381 0.0
H167 H 0.65364 0.59478 0.14663 0.0
Eu168 Eu 0.57864 0.08657 0.97282 0.0
C169 C 0.51086 0.97722 0.84408 0.0
N170 N 0.51107 0.99727 0.84537 0.0
C171 C 0.49002 0.98226 0.74156 0.0
C172 C 0.50041 0.95887 0.79043 0.0
C173 C 0.50047 0.99987 0.79615 0.0
C174 C 0.49016 0.96175 0.73834 0.0
C175 C 0.51896 0.9533 0.901 0.0
C176 C 0.52008 0.97453 0.89848 0.0
C177 C 0.50931 0.9353 0.84656 0.0
C178 C 0.50006 0.93808 0.79136 0.0
Eu179 Eu 0.53032 0.02684 0.93635 0.0
N180 N 0.52904 0.99214 0.95052 0.0
C181 C 0.52697 0.95054 0.95893 0.0
C182 C 0.53578 0.98904 1.00837 0.0
C183 C 0.53513 0.96836 1.01317 0.0
H184 H 0.50038 0.01576 0.79874 0.0
H185 H 0.54098 0.96621 0.05861 0.0
H186 H 0.6065 0.10182 0.119 0.0
H187 H 0.56349 0.1402 0.83008 0.0
H188 H 0.54217 0.00273 0.05048 0.0
H189 H 0.52643 0.93451 0.96285 0.0
H190 H 0.56456 0.10582 0.84808 0.0
H191 H 0.48187 0.9845 0.70206 0.0
H192 H 0.50846 0.91894 0.84733 0.0
H193 H 0.49225 0.92384 0.75038 0.0
H194 H 0.62279 0.13495 0.21108 0.0
H195 H 0.48196 0.94807 0.69617 0.0
H196 H 0.57668 0.17372 0.91976 0.0
N197 N 0.59563 0.11788 0.06112 0.0
C198 C 0.59493 0.1371 0.05542 0.0
C199 C 0.61497 0.13577 0.16767 0.0
C200 C 0.60404 0.15642 0.10664 0.0
C201 C 0.60578 0.11709 0.11551 0.0
C202 C 0.61396 0.15546 0.16346 0.0
N203 N 0.57795 0.11931 0.94779 0.0
C204 C 0.57053 0.12028 0.88775 0.0
C205 C 0.58562 0.15798 0.98862 0.0
C206 C 0.58586 0.13786 0.99707 0.0
C207 C 0.57721 0.15861 0.92811 0.0
C208 C 0.5698 0.13976 0.87731 0.0
H209 H 0.62114 0.16994 0.20389 0.0
H210 H 0.6101 0.19115 0.13804 0.0
H211 H 0.59394 0.1925 1.03475 0.0
O212 O 0.59586 0.07726 0.91637 0.0
O213 O 0.55032 0.08711 0.96579 0.0
O214 O 0.52874 0.05456 0.89105 0.0
O215 O 0.60971 0.11136 0.976 0.0
O216 O 0.56791 0.07325 0.86014 0.0
O217 O 0.53892 0.03752 0.8364 0.0
O218 O 0.5155 0.03792 0.99929 0.0
O219 O 0.55832 0.02615 0.94338 0.0
O220 O 0.57991 0.05863 1.0182 0.0
O221 O 0.49992 0.00284 0.94289 0.0
O222 O 0.54193 0.03891 0.04904 0.0
O223 O 0.56946 0.07598 0.07263 0.0
C224 C 0.53433 0.07531 0.92153 0.0
C225 C 0.6291 0.09477 0.96453 0.0
C226 C 0.66017 0.09739 0.95457 0.0
C227 C 0.65959 0.08882 1.01278 0.0
C228 C 0.62928 0.08679 1.02313 0.0
C229 C 0.64433 0.08371 1.04686 0.0
C230 C 0.64481 0.10045 0.93053 0.0
C231 C 0.55376 0.05515 0.81685 0.0
C232 C 0.61235 0.09678 0.93945 0.0
C233 C 0.60331 0.1762 0.09908 0.0
C234 C 0.5941 0.17697 1.04025 0.0
C235 C 0.57374 0.03745 0.9896 0.0
C236 C 0.48111 0.01891 0.97086 0.0
C237 C 0.45042 0.0115 1.00267 0.0
C238 C 0.44736 0.02108 0.95 0.0
C239 C 0.47756 0.02783 0.91781 0.0
C240 C 0.46749 0.01061 1.01287 0.0
C241 C 0.46083 0.02911 0.90782 0.0
C242 C 0.5553 0.05765 0.09232 0.0
C243 C 0.4989 0.01802 0.98318 0.0
H244 H 0.67116 0.08639 1.03251 0.0
H245 H 0.61771 0.0829 0.05056 0.0
H246 H 0.64419 0.07736 0.09196 0.0
H247 H 0.64493 0.10682 0.88542 0.0
H248 H 0.43434 0.02189 0.94058 0.0
H249 H 0.48766 0.03367 0.88418 0.0
H250 H 0.47026 0.00363 0.05379 0.0
H251 H 0.45822 0.03618 0.86696 0.0
Eu252 Eu 0.68218 0.84319 0.28603 0.0
C253 C 0.77276 0.87942 0.37005 0.0
N254 N 0.76054 0.87253 0.31242 0.0
C255 C 0.78502 0.90453 0.27146 0.0
C256 C 0.7914 0.89981 0.38168 0.0
C257 C 0.76674 0.88406 0.26211 0.0
C258 C 0.79724 0.91272 0.33198 0.0
C259 C 0.78042 0.87003 0.47249 0.0
C260 C 0.76733 0.86483 0.41498 0.0
C261 C 0.79847 0.8911 0.48642 0.0
C262 C 0.80394 0.906 0.44112 0.0
Eu263 Eu 0.72913 0.83904 0.30369 0.0
N264 N 0.74999 0.84444 0.39938 0.0
C265 C 0.77537 0.85339 0.51251 0.0
C266 C 0.74562 0.82746 0.4355 0.0
C267 C 0.75808 0.83179 0.49315 0.0
H268 H 0.75735 0.87787 0.21523 0.0
H269 H 0.75433 0.81854 0.52267 0.0
H270 H 0.68053 0.87202 0.42208 0.0
H271 H 0.62073 0.76863 0.11958 0.0
H272 H 0.73219 0.8108 0.42042 0.0
H273 H 0.78505 0.85669 0.55704 0.0
H274 H 0.65341 0.80421 0.15121 0.0
H275 H 0.78963 0.91399 0.23205 0.0
H276 H 0.80862 0.89559 0.53083 0.0
H277 H 0.81821 0.92177 0.45132 0.0
H278 H 0.65863 0.86564 0.5025 0.0
H279 H 0.81143 0.92851 0.33897 0.0
H280 H 0.59866 0.75549 0.20002 0.0
N281 N 0.66151 0.83888 0.36281 0.0
C282 C 0.64379 0.81903 0.3517 0.0
C283 C 0.6543 0.85233 0.46045 0.0
C284 C 0.63082 0.81457 0.39607 0.0
C285 C 0.6666 0.85595 0.41475 0.0
C286 C 0.63646 0.83136 0.45167 0.0
N287 N 0.65033 0.81027 0.24955 0.0
C288 C 0.64399 0.79844 0.18692 0.0
C289 C 0.61909 0.78423 0.27695 0.0
C290 C 0.63803 0.80414 0.29309 0.0
C291 C 0.61308 0.77094 0.21435 0.0
C292 C 0.62546 0.77834 0.16876 0.0
H293 H 0.62692 0.82862 0.48696 0.0
H294 H 0.60228 0.79014 0.41595 0.0
H295 H 0.592 0.76349 0.31147 0.0
O296 O 0.69353 0.87522 0.24639 0.0
O297 O 0.68096 0.81054 0.2408 0.0
O298 O 0.70055 0.80951 0.32205 0.0
O299 O 0.66322 0.85593 0.25565 0.0
O300 O 0.68993 0.83658 0.18421 0.0
O301 O 0.72209 0.84575 0.19987 0.0
O302 O 0.74824 0.82546 0.29007 0.0
O303 O 0.73108 0.8729 0.29231 0.0
O304 O 0.70949 0.87141 0.35488 0.0
O305 O 0.72037 0.80961 0.2268 0.0
O306 O 0.71924 0.83967 0.4056 0.0
O307 O 0.69047 0.84002 0.39414 0.0
C308 C 0.68527 0.79844 0.27563 0.0
C309 C 0.67838 0.89659 0.26925 0.0
C310 C 0.66958 0.92604 0.26107 0.0
C311 C 0.67966 0.93672 0.32535 0.0
C312 C 0.68867 0.90809 0.33228 0.0
C313 C 0.68921 0.92793 0.36013 0.0
C314 C 0.66891 0.90564 0.23354 0.0
C315 C 0.70607 0.84124 0.16063 0.0
C316 C 0.67718 0.87491 0.24165 0.0
C317 C 0.61237 0.79403 0.38213 0.0
C318 C 0.60652 0.77885 0.32265 0.0
C319 C 0.72647 0.88318 0.33726 0.0
C320 C 0.73138 0.78448 0.25266 0.0
C321 C 0.74037 0.75891 0.29927 0.0
C322 C 0.72286 0.73963 0.26395 0.0
C323 C 0.71424 0.76476 0.21699 0.0
C324 C 0.74461 0.7814 0.2932 0.0
C325 C 0.71 0.74258 0.22299 0.0
C326 C 0.7047 0.83962 0.43129 0.0
C327 C 0.73538 0.80792 0.24548 0.0
H328 H 0.68004 0.95183 0.34953 0.0
H329 H 0.69622 0.90164 0.3602 0.0
H330 H 0.69699 0.9365 0.40921 0.0
H331 H 0.66126 0.89693 0.1844 0.0
H332 H 0.71928 0.72217 0.26695 0.0
H333 H 0.704 0.76644 0.18436 0.0
H334 H 0.75803 0.79637 0.3204 0.0
H335 H 0.69668 0.72757 0.19552 0.0
Eu336 Eu 0.17072 0.83081 0.41554 0.0
C337 C 0.23312 0.80196 0.50634 0.0
N338 N 0.23498 0.82299 0.51527 0.0
C339 C 0.2531 0.83241 0.62271 0.0
C340 C 0.2406 0.79487 0.55632 0.0
C341 C 0.24567 0.8387 0.57115 0.0
C342 C 0.25024 0.81021 0.6157 0.0
C343 C 0.2254 0.7678 0.43105 0.0
C344 C 0.22557 0.78862 0.44491 0.0
C345 C 0.23149 0.75975 0.48163 0.0
C346 C 0.23908 0.77327 0.54428 0.0
Eu347 Eu 0.21997 0.83155 0.4292 0.0
N348 N 0.22039 0.79733 0.3972 0.0
C349 C 0.22018 0.75646 0.36628 0.0
C350 C 0.21709 0.78754 0.33348 0.0
C351 C 0.21647 0.76668 0.31711 0.0
H352 H 0.24794 0.85592 0.57643 0.0
H353 H 0.21313 0.75853 0.26666 0.0
H354 H 0.17349 0.8573 0.28678 0.0
H355 H 0.15771 0.85452 0.65596 0.0
H356 H 0.21423 0.79541 0.2953 0.0
H357 H 0.21986 0.74042 0.35351 0.0
H358 H 0.15544 0.82781 0.56227 0.0
H359 H 0.26106 0.84468 0.66765 0.0
H360 H 0.2312 0.74362 0.4722 0.0
H361 H 0.24449 0.76735 0.58226 0.0
H362 H 0.18054 0.89532 0.26483 0.0
H363 H 0.25619 0.80544 0.6554 0.0
H364 H 0.17018 0.89557 0.6489 0.0
N365 N 0.17552 0.86611 0.38876 0.0
C366 C 0.17723 0.88202 0.43806 0.0
C367 C 0.17983 0.89189 0.31389 0.0
C368 C 0.18129 0.90403 0.42765 0.0
C369 C 0.17591 0.87034 0.32662 0.0
C370 C 0.18286 0.90895 0.3648 0.0
N371 N 0.16904 0.85399 0.50531 0.0
C372 C 0.16201 0.84593 0.55966 0.0
C373 C 0.17501 0.89162 0.54998 0.0
C374 C 0.17422 0.87589 0.49843 0.0
C375 C 0.16979 0.88404 0.6082 0.0
C376 C 0.1628 0.86092 0.61245 0.0
H377 H 0.18594 0.92565 0.35481 0.0
H378 H 0.18666 0.93733 0.47302 0.0
H379 H 0.18108 0.92642 0.58024 0.0
O380 O 0.14093 0.82208 0.42366 0.0
O381 O 0.20023 0.8631 0.4123 0.0
O382 O 0.21881 0.85977 0.49118 0.0
O383 O 0.14612 0.80745 0.33766 0.0
O384 O 0.17766 0.8208 0.51444 0.0
O385 O 0.21065 0.83396 0.53196 0.0
O386 O 0.23678 0.86143 0.38368 0.0
O387 O 0.19194 0.79912 0.37473 0.0
O388 O 0.17032 0.79856 0.43638 0.0
O389 O 0.2508 0.84483 0.42554 0.0
O390 O 0.20818 0.82972 0.32102 0.0
O391 O 0.17786 0.82618 0.31083 0.0
C392 C 0.21414 0.87289 0.46354 0.0
C393 C 0.11646 0.78345 0.37452 0.0
C394 C 0.08529 0.7589 0.40964 0.0
C395 C 0.08586 0.73927 0.38487 0.0
C396 C 0.11648 0.76342 0.35005 0.0
C397 C 0.10129 0.74156 0.35526 0.0
C398 C 0.10065 0.78104 0.40378 0.0
C399 C 0.19399 0.82689 0.55483 0.0
C400 C 0.13298 0.80675 0.37034 0.0
C401 C 0.18326 0.92021 0.47984 0.0
C402 C 0.18014 0.91402 0.54093 0.0
C403 C 0.17586 0.78746 0.39785 0.0
C404 C 0.27066 0.88472 0.42157 0.0
C405 C 0.30184 0.91647 0.40399 0.0
C406 C 0.30349 0.92946 0.46366 0.0
C407 C 0.27271 0.89776 0.48128 0.0
C408 C 0.28527 0.89402 0.38334 0.0
C409 C 0.28904 0.92009 0.50203 0.0
C410 C 0.19277 0.82767 0.28435 0.0
C411 C 0.25302 0.86182 0.39687 0.0
H412 H 0.07418 0.72202 0.38765 0.0
H413 H 0.12827 0.76456 0.32694 0.0
H414 H 0.10149 0.72628 0.33623 0.0
H415 H 0.1005 0.79635 0.42295 0.0
H416 H 0.31609 0.94673 0.48107 0.0
H417 H 0.26165 0.89072 0.51144 0.0
H418 H 0.28352 0.88394 0.33685 0.0
H419 H 0.29049 0.93018 0.54798 0.0
Eu420 Eu 0.22366 0.30722 0.50896 0.0
C421 C 0.15875 0.19691 0.38954 0.0
N422 N 0.15808 0.21617 0.38421 0.0
C423 C 0.13858 0.19838 0.27787 0.0
C424 C 0.14955 0.17762 0.33822 0.0
C425 C 0.14786 0.21703 0.33013 0.0
C426 C 0.13957 0.17866 0.28167 0.0
C427 C 0.16808 0.17591 0.45576 0.0
C428 C 0.16788 0.19608 0.44766 0.0
C429 C 0.15952 0.15696 0.40401 0.0
C430 C 0.15026 0.1578 0.3454 0.0
Eu431 Eu 0.17524 0.24742 0.4726 0.0
N432 N 0.17588 0.2146 0.49706 0.0
C433 C 0.17653 0.1752 0.5161 0.0
C434 C 0.18332 0.21355 0.55695 0.0
C435 C 0.184 0.19401 0.56706 0.0
H436 H 0.14716 0.23232 0.32696 0.0
H437 H 0.19033 0.1935 0.61416 0.0
H438 H 0.25362 0.31918 0.64761 0.0
H439 H 0.212 0.36673 0.38431 0.0
H440 H 0.18934 0.22799 0.59672 0.0
H441 H 0.17703 0.16006 0.52419 0.0
H442 H 0.21154 0.33067 0.39343 0.0
H443 H 0.13071 0.19926 0.23469 0.0
H444 H 0.15966 0.14139 0.40923 0.0
H445 H 0.1434 0.14288 0.30635 0.0
H446 H 0.27148 0.35061 0.74419 0.0
H447 H 0.13232 0.16421 0.24118 0.0
H448 H 0.22569 0.39835 0.47998 0.0
N449 N 0.24232 0.33695 0.60011 0.0
C450 C 0.24204 0.35669 0.60083 0.0
C451 C 0.26319 0.35251 0.70432 0.0
C452 C 0.25211 0.37512 0.65442 0.0
C453 C 0.25311 0.3348 0.64978 0.0
C454 C 0.26251 0.37266 0.70701 0.0
N455 N 0.22422 0.34143 0.49382 0.0
C456 C 0.21756 0.34433 0.4355 0.0
C457 C 0.23345 0.38002 0.54278 0.0
C458 C 0.23276 0.35905 0.54586 0.0
C459 C 0.22547 0.38253 0.48433 0.0
C460 C 0.2178 0.36475 0.43014 0.0
H461 H 0.27043 0.38641 0.74914 0.0
H462 H 0.25948 0.40988 0.69385 0.0
H463 H 0.24319 0.4142 0.59599 0.0
O464 O 0.23931 0.29724 0.44682 0.0
O465 O 0.19555 0.30768 0.50248 0.0
O466 O 0.17401 0.27537 0.42715 0.0
O467 O 0.25398 0.3321 0.50389 0.0
O468 O 0.21217 0.29477 0.3963 0.0
O469 O 0.18428 0.258 0.37267 0.0
O470 O 0.15815 0.25685 0.52944 0.0
O471 O 0.20347 0.24674 0.47914 0.0
O472 O 0.22548 0.27939 0.55309 0.0
O473 O 0.14421 0.22266 0.47019 0.0
O474 O 0.18615 0.26075 0.58518 0.0
O475 O 0.21532 0.29629 0.60891 0.0
C476 C 0.18014 0.29648 0.45619 0.0
C477 C 0.27371 0.31727 0.47713 0.0
C478 C 0.30482 0.32563 0.44705 0.0
C479 C 0.30811 0.31657 0.50063 0.0
C480 C 0.27753 0.30895 0.53119 0.0
C481 C 0.29456 0.30838 0.54249 0.0
C482 C 0.28743 0.32578 0.43549 0.0
C483 C 0.19862 0.27616 0.35301 0.0
C484 C 0.25561 0.31742 0.46372 0.0
C485 C 0.25198 0.3956 0.65292 0.0
C486 C 0.24268 0.39805 0.59719 0.0
C487 C 0.21964 0.25854 0.52263 0.0
C488 C 0.12481 0.23918 0.48224 0.0
C489 C 0.09355 0.23601 0.49276 0.0
C490 C 0.09394 0.24452 0.43448 0.0
C491 C 0.12446 0.24716 0.42375 0.0
C492 C 0.10913 0.23327 0.51649 0.0
C493 C 0.10921 0.24993 0.40026 0.0
C494 C 0.20044 0.27873 0.62846 0.0
C495 C 0.14165 0.23728 0.50685 0.0
H496 H 0.32138 0.31632 0.51103 0.0
H497 H 0.26738 0.30307 0.56463 0.0
H498 H 0.29736 0.30175 0.58413 0.0
H499 H 0.28451 0.33238 0.39389 0.0
H500 H 0.08218 0.24662 0.41464 0.0
H501 H 0.13602 0.25123 0.39616 0.0
H502 H 0.10918 0.22691 0.56155 0.0
H503 H 0.1092 0.25624 0.35515 0.0
Eu504 Eu 0.3678 0.16415 0.80747 0.0
C505 C 0.42623 0.16856 0.64377 0.0
N506 N 0.41956 0.18329 0.65088 0.0
C507 C 0.45202 0.21594 0.65993 0.0
C508 C 0.44629 0.1772 0.64566 0.0
C509 C 0.43204 0.20666 0.65777 0.0
C510 C 0.45919 0.20117 0.65408 0.0
C511 C 0.41971 0.12925 0.62937 0.0
C512 C 0.41301 0.14476 0.63596 0.0
C513 C 0.43968 0.13787 0.63161 0.0
C514 C 0.45291 0.16175 0.63959 0.0
Eu515 Eu 0.38541 0.16559 0.64098 0.0
N516 N 0.39369 0.13676 0.63462 0.0
C517 C 0.40611 0.10545 0.6198 0.0
C518 C 0.38032 0.11352 0.62018 0.0
C519 C 0.38631 0.09755 0.61424 0.0
H520 H 0.42668 0.21826 0.66018 0.0
H521 H 0.37559 0.07915 0.60364 0.0
H522 H 0.34908 0.11343 0.85771 0.0
H523 H 0.34305 0.22551 0.81794 0.0
H524 H 0.36503 0.10708 0.60968 0.0
H525 H 0.41069 0.09301 0.61458 0.0
H526 H 0.36625 0.2126 0.80389 0.0
H527 H 0.46185 0.23449 0.66547 0.0
H528 H 0.44504 0.12619 0.62686 0.0
H529 H 0.46828 0.16811 0.64111 0.0
H530 H 0.31841 0.0851 0.89148 0.0
H531 H 0.47469 0.20844 0.65567 0.0
H532 H 0.31082 0.19869 0.84506 0.0
N533 N 0.34001 0.13722 0.84528 0.0
C534 C 0.32614 0.14263 0.85085 0.0
C535 C 0.32038 0.10118 0.87998 0.0
C536 C 0.3086 0.12723 0.87085 0.0
C537 C 0.33763 0.11711 0.86058 0.0
C538 C 0.30574 0.10618 0.88472 0.0
N539 N 0.34705 0.17865 0.82093 0.0
C540 C 0.35221 0.2008 0.81567 0.0
C541 C 0.31619 0.1707 0.84768 0.0
C542 C 0.32984 0.16404 0.83901 0.0
C543 C 0.32094 0.19295 0.83894 0.0
C544 C 0.33912 0.20815 0.82366 0.0
H545 H 0.29243 0.09385 0.90011 0.0
H546 H 0.28104 0.12181 0.89235 0.0
H547 H 0.28773 0.15989 0.87234 0.0
O548 O 0.39589 0.18629 0.87159 0.0
O549 O 0.34838 0.16605 0.72486 0.0
O550 O 0.36603 0.18093 0.6433 0.0
O551 O 0.36973 0.16729 0.91294 0.0
O552 O 0.39064 0.19986 0.7903 0.0
O553 O 0.39393 0.20226 0.6826 0.0
O554 O 0.37161 0.14556 0.54289 0.0
O555 O 0.40399 0.16973 0.73723 0.0
O556 O 0.38199 0.14325 0.78821 0.0
O557 O 0.39606 0.18062 0.55582 0.0
O558 O 0.35494 0.13505 0.64617 0.0
O559 O 0.35798 0.12867 0.7504 0.0
C560 C 0.35119 0.17615 0.67351 0.0
C561 C 0.39397 0.20539 0.96732 0.0
C562 C 0.41909 0.24012 1.04346 0.0
C563 C 0.40649 0.24863 1.04287 0.0
C564 C 0.38142 0.21392 0.9687 0.0
C565 C 0.38777 0.23557 1.00562 0.0
C566 C 0.41279 0.21859 1.00453 0.0
C567 C 0.39782 0.21189 0.7443 0.0
C568 C 0.38819 0.1836 0.92419 0.0
C569 C 0.29466 0.13347 0.87738 0.0
C570 C 0.29847 0.15516 0.86594 0.0
C571 C 0.39931 0.15332 0.77198 0.0
C572 C 0.39644 0.15218 0.48164 0.0
C573 C 0.42634 0.16025 0.44191 0.0
C574 C 0.4192 0.13638 0.42908 0.0
C575 C 0.38942 0.1283 0.46699 0.0
C576 C 0.41491 0.16801 0.46849 0.0
C577 C 0.40083 0.12054 0.44154 0.0
C578 C 0.34923 0.12121 0.68923 0.0
C579 C 0.38558 0.16066 0.51671 0.0
H580 H 0.41097 0.26515 0.07234 0.0
H581 H 0.36674 0.20391 0.94143 0.0
H582 H 0.37805 0.24209 1.00607 0.0
H583 H 0.42228 0.2117 1.00466 0.0
H584 H 0.42772 0.12998 0.40863 0.0
H585 H 0.37528 0.11558 0.47659 0.0
H586 H 0.42029 0.1864 0.4782 0.0
H587 H 0.39539 0.10217 0.43134 0.0
Eu588 Eu 0.86933 0.17771 0.66027 0.0
C589 C 0.91324 0.13376 0.78333 0.0
N590 N 0.89373 0.12541 0.77195 0.0
C591 C 0.88698 0.08729 0.73251 0.0
C592 C 0.92033 0.11901 0.76863 0.0
C593 C 0.88058 0.10251 0.74786 0.0
C594 C 0.90693 0.09557 0.74271 0.0
C595 C 0.94646 0.16622 0.82083 0.0
C596 C 0.9262 0.15727 0.80854 0.0
C597 C 0.95352 0.15155 0.80587 0.0
C598 C 0.94051 0.12805 0.77976 0.0
Eu599 Eu 0.88455 0.1525 0.79978 0.0
N600 N 0.91904 0.17134 0.82111 0.0
C601 C 0.95909 0.18962 0.84859 0.0
C602 C 0.93125 0.1937 0.85271 0.0
C603 C 0.9514 0.2033 0.8656 0.0
H604 H 0.86514 0.09583 0.74171 0.0
H605 H 0.96098 0.22115 0.88989 0.0
H606 H 0.88417 0.23186 0.73048 0.0
H607 H 0.79548 0.10518 0.55421 0.0
H608 H 0.92565 0.20407 0.87073 0.0
H609 H 0.97472 0.19711 0.85888 0.0
H610 H 0.83123 0.12626 0.57463 0.0
H611 H 0.87651 0.06914 0.71324 0.0
H612 H 0.96904 0.1582 0.81462 0.0
H613 H 0.94621 0.11697 0.76853 0.0
H614 H 0.86971 0.25482 0.76393 0.0
H615 H 0.91183 0.08372 0.73074 0.0
H616 H 0.77848 0.12447 0.59321 0.0
N617 N 0.85681 0.2009 0.69427 0.0
C618 C 0.83709 0.19075 0.6809 0.0
C619 C 0.86037 0.23678 0.74104 0.0
C620 C 0.82821 0.20325 0.69891 0.0
C621 C 0.86852 0.22368 0.72266 0.0
C622 C 0.84013 0.2265 0.72946 0.0
N623 N 0.83474 0.156 0.63337 0.0
C624 C 0.82415 0.13432 0.59621 0.0
C625 C 0.80524 0.15654 0.63733 0.0
C626 C 0.82575 0.16759 0.6507 0.0
C627 C 0.79426 0.13357 0.60428 0.0
C628 C 0.80378 0.12256 0.58262 0.0
H629 H 0.83386 0.23668 0.74404 0.0
H630 H 0.80071 0.2014 0.70067 0.0
H631 H 0.78061 0.16054 0.64673 0.0
O632 O 0.86274 0.1718 0.55385 0.0
O633 O 0.85736 0.17625 0.75531 0.0
O634 O 0.85288 0.14273 0.78384 0.0
O635 O 0.88095 0.20666 0.60854 0.0
O636 O 0.8637 0.14075 0.63413 0.0
O637 O 0.85704 0.12614 0.72883 0.0
O638 O 0.88535 0.16233 0.90238 0.0
O639 O 0.8982 0.15446 0.70879 0.0
O640 O 0.90055 0.18577 0.67044 0.0
O641 O 0.88133 0.12898 0.86767 0.0
O642 O 0.89229 0.19022 0.82539 0.0
O643 O 0.89695 0.20457 0.73001 0.0
C644 C 0.84693 0.15728 0.77849 0.0
C645 C 0.86274 0.20251 0.50923 0.0
C646 C 0.8666 0.22895 0.43461 0.0
C647 C 0.84656 0.22066 0.42745 0.0
C648 C 0.84278 0.19451 0.50247 0.0
C649 C 0.83476 0.20366 0.46181 0.0
C650 C 0.87453 0.21982 0.47591 0.0
C651 C 0.85515 0.12307 0.66497 0.0
C652 C 0.87208 0.19385 0.55165 0.0
C653 C 0.80779 0.19213 0.68668 0.0
C654 C 0.79634 0.16884 0.65616 0.0
C655 C 0.90742 0.17238 0.68056 0.0
C656 C 0.90445 0.15164 0.96385 0.0
C657 C 0.93384 0.18206 1.0384 0.0
C658 C 0.94072 0.16693 1.04102 0.0
C659 C 0.91162 0.13673 0.96639 0.0
C660 C 0.91564 0.17417 1.00062 0.0
C661 C 0.92964 0.14437 1.00491 0.0
C662 C 0.89995 0.20771 0.79384 0.0
C663 C 0.88659 0.14507 0.91808 0.0
H664 H 0.84005 0.2272 0.39509 0.0
H665 H 0.83343 0.18121 0.5281 0.0
H666 H 0.81934 0.19738 0.45634 0.0
H667 H 0.88991 0.22569 0.48063 0.0
H668 H 0.95458 0.17255 0.07089 0.0
H669 H 0.9035 0.11934 0.93788 0.0
H670 H 0.91018 0.18577 1.00003 0.0
H671 H 0.93507 0.1328 1.00655 0.0
Eu672 Eu 0.89293 0.70051 0.76558 0.0
C673 C 0.83118 0.59218 0.68886 0.0
N674 N 0.8504 0.60418 0.68401 0.0
C675 C 0.85462 0.57494 0.72275 0.0
C676 C 0.823 0.57105 0.71191 0.0
C677 C 0.86207 0.59572 0.69927 0.0
C678 C 0.83503 0.5626 0.72941 0.0
C679 C 0.79956 0.58872 0.67454 0.0
C680 C 0.81957 0.60098 0.67044 0.0
C681 C 0.79145 0.56778 0.69792 0.0
C682 C 0.80313 0.55898 0.71661 0.0
Eu683 Eu 0.86153 0.63933 0.6459 0.0
N684 N 0.82788 0.62167 0.64964 0.0
C685 C 0.78828 0.59797 0.65543 0.0
C686 C 0.81679 0.63032 0.62881 0.0
C687 C 0.79692 0.61876 0.63207 0.0
H688 H 0.87706 0.60476 0.69225 0.0
H689 H 0.78825 0.62587 0.61631 0.0
H690 H 0.89386 0.73751 0.67134 0.0
H691 H 0.95391 0.69724 0.89174 0.0
H692 H 0.82306 0.64605 0.60943 0.0
H693 H 0.77289 0.58911 0.6581 0.0
H694 H 0.92055 0.68952 0.87197 0.0
H695 H 0.86396 0.56836 0.73521 0.0
H696 H 0.77614 0.55822 0.70173 0.0
H697 H 0.79663 0.54276 0.7344 0.0
H698 H 0.91774 0.76855 0.61954 0.0
H699 H 0.82929 0.54645 0.74742 0.0
H700 H 0.97843 0.72328 0.83095 0.0
N701 N 0.91454 0.73016 0.71407 0.0
C702 C 0.93341 0.73579 0.72436 0.0
C703 C 0.92231 0.75943 0.64872 0.0
C704 C 0.94748 0.75333 0.69569 0.0
C705 C 0.90885 0.74189 0.67791 0.0
C706 C 0.94168 0.7651 0.65734 0.0
N707 N 0.92495 0.70769 0.79268 0.0
C708 C 0.93059 0.6995 0.84154 0.0
C709 C 0.95828 0.72985 0.77592 0.0
C710 C 0.93867 0.72397 0.7637 0.0
C711 C 0.96354 0.71925 0.8203 0.0
C712 C 0.94973 0.70444 0.85443 0.0
H713 H 0.95206 0.77862 0.63438 0.0
H714 H 0.97772 0.77164 0.68328 0.0
H715 H 0.98719 0.75117 0.7537 0.0
O716 O 0.89607 0.7108 0.86989 0.0
O717 O 0.89785 0.69532 0.66122 0.0
O718 O 0.8941 0.65976 0.64681 0.0
O719 O 0.8988 0.73482 0.80667 0.0
O720 O 0.88967 0.66813 0.80156 0.0
O721 O 0.88898 0.64662 0.70837 0.0
O722 O 0.85935 0.63958 0.54225 0.0
O723 O 0.85161 0.64281 0.74213 0.0
O724 O 0.86057 0.68092 0.77016 0.0
O725 O 0.85424 0.60847 0.57689 0.0
O726 O 0.85799 0.66838 0.61399 0.0
O727 O 0.86739 0.69777 0.7026 0.0
C728 C 0.90366 0.68147 0.63976 0.0
C729 C 0.91751 0.75027 0.91323 0.0
C730 C 0.93225 0.76579 1.02728 0.0
C731 C 0.95027 0.78057 1.00977 0.0
C732 C 0.93548 0.76537 0.89552 0.0
C733 C 0.95174 0.78065 0.94384 0.0
C734 C 0.91596 0.75107 0.97875 0.0
C735 C 0.89291 0.65263 0.77191 0.0
C736 C 0.90053 0.73183 0.86631 0.0
C737 C 0.96678 0.75846 0.70568 0.0
C738 C 0.97215 0.74671 0.74551 0.0
C739 C 0.84867 0.65874 0.76963 0.0
C740 C 0.83641 0.60428 0.47455 0.0
C741 C 0.82246 0.60078 0.3633 0.0
C742 C 0.80385 0.5848 0.37455 0.0
C743 C 0.81782 0.58796 0.4857 0.0
C744 C 0.83861 0.61008 0.41313 0.0
C745 C 0.80164 0.57811 0.43546 0.0
C746 C 0.85848 0.68701 0.64254 0.0
C747 C 0.85351 0.61771 0.52653 0.0
H748 H 0.96313 0.79157 1.04672 0.0
H749 H 0.93706 0.76501 0.84493 0.0
H750 H 0.96564 0.79203 0.93017 0.0
H751 H 0.90219 0.7389 0.99226 0.0
H752 H 0.79116 0.57783 0.33686 0.0
H753 H 0.81574 0.58329 0.53316 0.0
H754 H 0.85291 0.62316 0.4052 0.0
H755 H 0.78729 0.56577 0.44433 0.0
C756 C 0.05432 0.48393 0.92416 0.0
C757 C 0.04625 0.49428 0.96277 0.0
C758 C 0.05422 0.48416 0.85573 0.0
C759 C 0.03257 0.49812 0.70365 0.0
H760 H 0.06941 0.48904 0.62085 0.0
C761 C 0.03454 0.502 0.41747 0.0
C762 C 0.04484 0.49429 0.38134 0.0
C763 C 0.03475 0.50217 0.4862 0.0
C764 C 0.05867 0.49141 0.64141 0.0
H765 H 0.03155 0.51318 0.95294 0.0
H766 H 0.03131 0.51362 0.8363 0.0
H767 H 0.06962 0.48903 0.73647 0.0
H768 H 0.06364 0.48064 0.39574 0.0
H769 H 0.06389 0.48062 0.51195 0.0
H770 H 0.02154 0.50041 0.60876 0.0
C771 C 0.03779 0.50499 0.85871 0.0
C772 C 0.0588 0.49139 0.71002 0.0
C773 C 0.03801 0.50486 0.9274 0.0
C774 C 0.05542 0.48686 0.41934 0.0
C775 C 0.05559 0.48696 0.48801 0.0
C776 C 0.03238 0.49804 0.63494 0.0
C777 C 0.04593 0.49466 0.81992 0.0
C778 C 0.04576 0.49475 0.74418 0.0
C779 C 0.04525 0.49461 0.52463 0.0
C780 C 0.04543 0.49469 0.60064 0.0
H781 H 0.06069 0.47522 0.94677 0.0
H782 H 0.06051 0.47555 0.83073 0.0
H783 H 0.02189 0.50052 0.72467 0.0
H784 H 0.02621 0.50816 0.39257 0.0
H785 H 0.02659 0.50861 0.50901 0.0
C786 C 0.57067 0.50268 0.77175 0.0
C787 C 0.55616 0.50359 0.80276 0.0
C788 C 0.57099 0.50296 0.7036 0.0
C789 C 0.54052 0.49887 0.54027 0.0
H790 H 0.58825 0.51649 0.4742 0.0
C791 C 0.54461 0.50771 0.25897 0.0
C792 C 0.55893 0.50632 0.22783 0.0
C793 C 0.54428 0.50747 0.32715 0.0
C794 C 0.57452 0.5112 0.49033 0.0
H795 H 0.53048 0.50571 0.78061 0.0
H796 H 0.53103 0.50643 0.66492 0.0
H797 H 0.58768 0.51584 0.58943 0.0
H798 H 0.58419 0.5034 0.24993 0.0
H799 H 0.58365 0.50285 0.36558 0.0
H800 H 0.52738 0.49427 0.44111 0.0
C801 C 0.54228 0.50511 0.69265 0.0
C802 C 0.57419 0.51081 0.55842 0.0
C803 C 0.54198 0.50481 0.76075 0.0
C804 C 0.57288 0.50471 0.26979 0.0
C805 C 0.57258 0.50449 0.3379 0.0
C806 C 0.54086 0.49928 0.47218 0.0
C807 C 0.55681 0.50422 0.66123 0.0
C808 C 0.55717 0.50463 0.58623 0.0
C809 C 0.55825 0.50582 0.36941 0.0
C810 C 0.55787 0.50545 0.44439 0.0
H811 H 0.582 0.50167 0.80035 0.0
H812 H 0.58247 0.50189 0.68425 0.0
H813 H 0.52679 0.49358 0.55636 0.0
H814 H 0.53343 0.50898 0.23042 0.0
H815 H 0.53295 0.50887 0.34664 0.0
C816 C 0.56823 0.07449 0.71828 0.0
C817 C 0.55388 0.05537 0.74235 0.0
C818 C 0.56838 0.07474 0.65008 0.0
C819 C 0.5377 0.041 0.47654 0.0
H820 H 0.58504 0.08363 0.41838 0.0
C821 C 0.54133 0.03786 0.19085 0.0
C822 C 0.55527 0.05734 0.16682 0.0
C823 C 0.54116 0.03759 0.25904 0.0
C824 C 0.57142 0.0716 0.43244 0.0
H825 H 0.52831 0.02116 0.70761 0.0
H826 H 0.52858 0.02135 0.59157 0.0
H827 H 0.58477 0.08324 0.53384 0.0
H828 H 0.58005 0.09212 0.20169 0.0
H829 H 0.5798 0.09181 0.31772 0.0
H830 H 0.52438 0.02933 0.37501 0.0
C831 C 0.53983 0.03668 0.62514 0.0
C832 C 0.57125 0.07137 0.50064 0.0
C833 C 0.53968 0.03648 0.69335 0.0
C834 C 0.56903 0.07652 0.21586 0.0
C835 C 0.5689 0.07626 0.28405 0.0
C836 C 0.53788 0.04121 0.40832 0.0
C837 C 0.55419 0.05583 0.60066 0.0
C838 C 0.55438 0.05607 0.52554 0.0
C839 C 0.55494 0.05679 0.30843 0.0
C840 C 0.55475 0.05653 0.38348 0.0
H841 H 0.57955 0.08964 0.75249 0.0
H842 H 0.57974 0.09022 0.63652 0.0
H843 H 0.52407 0.02897 0.49049 0.0
H844 H 0.53034 0.02249 0.15661 0.0
H845 H 0.53013 0.02188 0.27269 0.0
C846 C 0.72145 0.84534 0.55093 0.0
C847 C 0.70465 0.83962 0.50611 0.0
C848 C 0.72157 0.84547 0.61941 0.0
C849 C 0.69106 0.84176 0.75711 0.0
H850 H 0.73065 0.83727 0.8614 0.0
C851 C 0.68929 0.8359 1.04125 0.0
C852 C 0.706 0.84108 0.08568 0.0
C853 C 0.68912 0.83572 0.97269 0.0
C854 C 0.71943 0.83883 0.83444 0.0
H855 H 0.67449 0.82931 0.50415 0.0
H856 H 0.67456 0.82953 0.6207 0.0
H857 H 0.73033 0.83696 0.74548 0.0
H858 H 0.73589 0.85024 0.08689 0.0
H859 H 0.73576 0.85019 0.97042 0.0
H860 H 0.68017 0.84365 0.84604 0.0
C861 C 0.68806 0.83428 0.60352 0.0
C862 C 0.71924 0.83865 0.76585 0.0
C863 C 0.68796 0.83413 0.53494 0.0
C864 C 0.72253 0.84606 0.05646 0.0
C865 C 0.72238 0.84588 0.98785 0.0
C866 C 0.69126 0.84196 0.82572 0.0
C867 C 0.70488 0.83994 0.64866 0.0
C868 C 0.70505 0.84011 0.72425 0.0
C869 C 0.70566 0.84071 0.94302 0.0
C870 C 0.70545 0.84051 0.86735 0.0
H871 H 0.7349 0.85024 0.53326 0.0
H872 H 0.73517 0.8504 0.64957 0.0
H873 H 0.67984 0.8433 0.73005 0.0
H874 H 0.67604 0.83182 0.05945 0.0
H875 H 0.67562 0.83127 0.94287 0.0
C876 C 0.17625 0.81411 0.65505 0.0
C877 C 0.19372 0.82632 0.6295 0.0
C878 C 0.17601 0.81408 0.72345 0.0
C879 C 0.20988 0.83312 0.89406 0.0
H880 H 0.16194 0.81398 0.96002 0.0
C881 C 0.20761 0.82777 0.17832 0.0
C882 C 0.19236 0.82687 0.20896 0.0
C883 C 0.20764 0.82756 0.10982 0.0
C884 C 0.17573 0.81962 0.94403 0.0
H885 H 0.22489 0.84841 0.66248 0.0
H886 H 0.22462 0.84844 0.77852 0.0
H887 H 0.16234 0.81429 0.84465 0.0
H888 H 0.16492 0.82506 0.18512 0.0
H889 H 0.16498 0.82495 0.06866 0.0
H890 H 0.22337 0.83893 0.99349 0.0
C891 C 0.21074 0.83838 0.74594 0.0
C892 C 0.17592 0.81956 0.87555 0.0
C893 C 0.21095 0.83839 0.67754 0.0
C894 C 0.17709 0.82571 0.16579 0.0
C895 C 0.17712 0.82554 0.09717 0.0
C896 C 0.20969 0.8332 0.9625 0.0
C897 C 0.19325 0.82625 0.77194 0.0
C898 C 0.19301 0.8263 0.84753 0.0
C899 C 0.19244 0.8265 0.06619 0.0
C900 C 0.19261 0.82644 0.99055 0.0
H901 H 0.16246 0.80415 0.62181 0.0
H902 H 0.16198 0.80402 0.73779 0.0
H903 H 0.22359 0.83835 0.87795 0.0
H904 H 0.21982 0.82865 0.20758 0.0
H905 H 0.21982 0.82801 0.09133 0.0
C906 C 0.18586 0.25942 0.72699 0.0
C907 C 0.20033 0.27847 0.70297 0.0
C908 C 0.18568 0.25916 0.79518 0.0
C909 C 0.21644 0.29265 0.9688 0.0
H910 H 0.16891 0.25048 1.02686 0.0
C911 C 0.21281 0.29582 0.25452 0.0
C912 C 0.19868 0.27647 0.2785 0.0
C913 C 0.21301 0.29609 0.18634 0.0
C914 C 0.18258 0.26237 1.01284 0.0
H915 H 0.22604 0.31255 0.73786 0.0
H916 H 0.22573 0.31234 0.85386 0.0
H917 H 0.16924 0.25087 0.91142 0.0
H918 H 0.17359 0.24192 0.24354 0.0
H919 H 0.17389 0.24222 0.12753 0.0
H920 H 0.22976 0.30418 0.07032 0.0
C921 C 0.21442 0.29706 0.82024 0.0
C922 C 0.18278 0.26261 0.94464 0.0
C923 C 0.21459 0.29728 0.75204 0.0
C924 C 0.18476 0.25741 0.22941 0.0
C925 C 0.18492 0.25767 0.16123 0.0
C926 C 0.21623 0.29244 1.03701 0.0
C927 C 0.19995 0.27799 0.84466 0.0
C928 C 0.19972 0.27775 0.91977 0.0
C929 C 0.19907 0.27702 0.13689 0.0
C930 C 0.19929 0.27728 0.06183 0.0
H931 H 0.17448 0.24434 0.69274 0.0
H932 H 0.17423 0.24374 0.8087 0.0
H933 H 0.23012 0.30455 0.95486 0.0
H934 H 0.22393 0.31109 0.28879 0.0
H935 H 0.22419 0.31171 0.17275 0.0
C936 C 0.45789 0.19869 0.46017 0.0
C937 C 0.44461 0.17695 0.42103 0.0
C938 C 0.47237 0.21635 0.4339 0.0
C939 C 0.48255 0.25282 0.35176 0.0
H940 H 0.48576 0.23567 0.174 0.0
C941 C 0.43749 0.2586 0.15612 0.0
C942 C 0.4376 0.25187 0.09085 0.0
C943 C 0.4528 0.26353 0.2044 0.0
C944 C 0.48562 0.24155 0.22372 0.0
H945 H 0.43738 0.15581 0.32627 0.0
H946 H 0.46161 0.18618 0.27985 0.0
H947 H 0.48923 0.21499 0.25498 0.0
H948 H 0.45512 0.24861 1.02363 0.0
H949 H 0.48231 0.25798 0.10787 0.0
H950 H 0.47956 0.27986 0.32097 0.0
C951 C 0.46156 0.19006 0.33108 0.0
C952 C 0.48727 0.22924 0.27038 0.0
C953 C 0.44737 0.17241 0.35761 0.0
C954 C 0.45446 0.25313 0.07396 0.0
C955 C 0.47001 0.25844 0.12239 0.0
C956 C 0.48184 0.26584 0.3058 0.0
C957 C 0.47348 0.21274 0.36751 0.0
C958 C 0.48298 0.23266 0.33246 0.0
C959 C 0.46872 0.26197 0.18863 0.0
C960 C 0.48057 0.25823 0.23955 0.0
H961 H 0.45635 0.20244 0.5099 0.0
H962 H 0.4817 0.23324 0.46446 0.0
H963 H 0.48016 0.257 0.39981 0.0
H964 H 0.42472 0.25783 0.17076 0.0
H965 H 0.4509 0.26609 0.25423 0.0
C966 C 0.87397 0.23894 0.32631 0.0
C967 C 0.87916 0.245 0.39416 0.0
C968 C 0.88804 0.24934 0.28743 0.0
C969 C 0.91995 0.26936 0.20976 0.0
H970 H 0.96269 0.26466 0.28983 0.0
C971 C 0.94641 0.22442 0.05228 0.0
C972 C 0.94424 0.20541 0.0792 0.0
C973 C 0.94949 0.24415 0.09229 0.0
C974 C 0.95101 0.26627 0.26656 0.0
H975 H 0.90217 0.26889 0.47452 0.0
H976 H 0.92666 0.28768 0.40657 0.0
H977 H 0.94355 0.27266 0.35763 0.0
H978 H 0.94625 0.19322 0.16868 0.0
H979 H 0.95106 0.22697 0.23832 0.0
H980 H 0.92578 0.25996 0.11852 0.0
C981 C 0.91197 0.27434 0.38321 0.0
C982 C 0.94009 0.27121 0.30566 0.0
C983 C 0.89794 0.26369 0.42215 0.0
C984 C 0.94785 0.20764 0.14684 0.0
C985 C 0.95068 0.22721 0.18681 0.0
C986 C 0.9306 0.26392 0.17063 0.0
C987 C 0.90755 0.26615 0.31572 0.0
C988 C 0.92337 0.2708 0.27744 0.0
C989 C 0.95006 0.24494 0.15969 0.0
C990 C 0.94514 0.26028 0.19866 0.0
H991 H 0.8596 0.22454 0.30355 0.0
H992 H 0.88392 0.24236 0.23583 0.0
H993 H 0.90772 0.26997 0.18645 0.0
H994 H 0.94397 0.22318 1.00001 0.0
H995 H 0.94959 0.25776 0.0698 0.0
C996 C 0.82092 0.6278 0.29749 0.0
C997 C 0.82572 0.61096 0.30422 0.0
C998 C 0.83164 0.64556 0.26384 0.0
C999 C 0.8716 0.66757 0.16596 0.0
H1000 H 0.88855 0.72684 0.27318 0.0
C1001 C 0.93628 0.74728 0.1162 0.0
C1002 C 0.93018 0.76165 0.09404 0.0
C1003 C 0.92559 0.73175 0.15553 0.0
C1004 C 0.88398 0.71039 0.24314 0.0
H1005 H 0.84345 0.59747 0.27489 0.0
H1006 H 0.86204 0.62813 0.21586 0.0
H1007 H 0.8619 0.69124 0.29793 0.0
H1008 H 0.91071 0.77431 0.10435 0.0
H1009 H 0.8924 0.7477 0.17476 0.0
H1010 H 0.89392 0.6867 0.11203 0.0
C1011 C 0.85016 0.62794 0.23617 0.0
C1012 C 0.86852 0.69003 0.25645 0.0
C1013 C 0.83941 0.6102 0.26953 0.0
C1014 C 0.91569 0.76341 0.12129 0.0
C1015 C 0.90508 0.74799 0.16101 0.0
C1016 C 0.88716 0.68785 0.15322 0.0
C1017 C 0.84726 0.64663 0.23675 0.0
C1018 C 0.86219 0.66836 0.21809 0.0
C1019 C 0.90895 0.73077 0.17363 0.0
C1020 C 0.89358 0.70942 0.19192 0.0
H1021 H 0.81053 0.62881 0.32448 0.0
H1022 H 0.82871 0.65939 0.26351 0.0
H1023 H 0.86696 0.65126 0.13499 0.0
H1024 H 0.94735 0.74558 0.09548 0.0
H1025 H 0.92906 0.71888 0.16586 0.0
C1026 C 0.15668 0.29918 0.375 0.0
C1027 C 0.17003 0.3084 0.43383 0.0
C1028 C 0.14739 0.31046 0.35314 0.0
C1029 C 0.13834 0.35847 0.40591 0.0
H1030 H 0.1226 0.35023 0.22014 0.0
C1031 C 0.1109 0.41173 0.27509 0.0
C1032 C 0.09309 0.39801 0.23107 0.0
C1033 C 0.12041 0.40158 0.30402 0.0
C1034 C 0.12688 0.35266 0.27219 0.0
H1035 H 0.18424 0.33712 0.51535 0.0
H1036 H 0.16908 0.35752 0.47556 0.0
H1037 H 0.13936 0.33172 0.26079 0.0
H1038 H 0.07092 0.36239 0.18714 0.0
H1039 H 0.08795 0.34516 0.23477 0.0
H1040 H 0.12641 0.38035 0.41609 0.0
C1041 C 0.16506 0.34103 0.44721 0.0
C1042 C 0.13637 0.34183 0.29584 0.0
C1043 C 0.17397 0.3294 0.46991 0.0
C1044 C 0.08487 0.37379 0.21878 0.0
C1045 C 0.09455 0.36378 0.24652 0.0
C1046 C 0.12921 0.36975 0.38199 0.0
C1047 C 0.15157 0.33177 0.38832 0.0
C1048 C 0.14204 0.34421 0.36322 0.0
C1049 C 0.11252 0.37754 0.28885 0.0
C1050 C 0.12315 0.3667 0.31489 0.0
H1051 H 0.15348 0.28328 0.34516 0.0
H1052 H 0.13684 0.30225 0.30845 0.0
H1053 H 0.14211 0.36062 0.45804 0.0
H1054 H 0.11788 0.4304 0.28568 0.0
H1055 H 0.13427 0.41263 0.33647 0.0
C1056 C 0.58822 0.58869 0.04941 0.0
C1057 C 0.59079 0.57362 0.08418 0.0
C1058 C 0.59914 0.61274 0.07165 0.0
C1059 C 0.62822 0.65817 0.21906 0.0
H1060 H 0.64758 0.6987 0.09349 0.0
C1061 C 0.67761 0.75902 0.2968 0.0
C1062 C 0.67497 0.77265 0.25598 0.0
C1063 C 0.66803 0.73481 0.27755 0.0
C1064 C 0.64209 0.68775 0.12938 0.0
H1065 H 0.60666 0.57231 0.17112 0.0
H1066 H 0.62589 0.61434 0.20967 0.0
H1067 H 0.62972 0.65688 0.05743 0.0
H1068 H 0.66041 0.77121 0.16199 0.0
H1069 H 0.64335 0.72939 0.12954 0.0
H1070 H 0.64034 0.68907 0.29093 0.0
C1071 C 0.61538 0.60749 0.16495 0.0
C1072 C 0.63184 0.66362 0.10855 0.0
C1073 C 0.60448 0.58335 0.14245 0.0
C1074 C 0.66257 0.76138 0.19539 0.0
C1075 C 0.65298 0.73725 0.17623 0.0
C1076 C 0.63839 0.68236 0.23991 0.0
C1077 C 0.61294 0.62258 0.12969 0.0
C1078 C 0.62458 0.64841 0.15289 0.0
C1079 C 0.65557 0.72349 0.21676 0.0
C1080 C 0.64535 0.69759 0.1953 0.0
H1081 H 0.57771 0.58191 1.00467 0.0
H1082 H 0.59654 0.62364 1.04363 0.0
H1083 H 0.62274 0.64709 0.25468 0.0
H1084 H 0.68717 0.76708 0.34362 0.0
H1085 H 0.67073 0.72504 0.30993 0.0
C1086 C 0.42987 0.9806 0.06447 0.0
C1087 C 0.4357 1.00214 1.04611 0.0
C1088 C 0.4156 0.97145 0.10367 0.0
C1089 C 0.39193 0.98778 0.22223 0.0
H1090 H 0.35031 0.92321 0.17488 0.0
C1091 C 0.32534 0.94929 0.35324 0.0
C1092 C 0.31728 0.92635 0.36326 0.0
C1093 C 0.33981 0.95855 0.31479 0.0
C1094 C 0.36196 0.94119 0.18953 0.0
H1095 H 0.43138 0.03113 0.05569 0.0
H1096 H 0.40653 0.0152 0.12439 0.0
H1097 H 0.37569 0.93932 0.10871 0.0
H1098 H 0.31837 0.89526 0.34164 0.0
H1099 H 0.34385 0.91146 0.27583 0.0
H1100 H 0.37848 0.98965 0.3036 0.0
C1101 C 0.41299 0.00539 0.10836 0.0
C1102 C 0.3765 0.95043 0.15137 0.0
C1103 C 0.42711 0.01443 0.06858 0.0
C1104 C 0.3241 0.9129 0.33415 0.0
C1105 C 0.33869 0.92221 0.2962 0.0
C1106 C 0.3775 0.97849 0.26078 0.0
C1107 C 0.40697 0.98372 0.12604 0.0
C1108 C 0.39163 0.97385 0.16714 0.0
C1109 C 0.34674 0.94516 0.2858 0.0
C1110 C 0.36225 0.95506 0.24491 0.0
H1111 H 0.43608 0.97061 0.04754 0.0
H1112 H 0.41141 0.95481 0.11686 0.0
H1113 H 0.40353 0.00581 0.23617 0.0
H1114 H 0.32022 0.96001 0.37426 0.0
H1115 H 0.34533 0.97612 0.30706 0.0
C1116 C 0.50835 0.07624 0.84753 0.0
C1117 C 0.52195 0.08527 0.90587 0.0
C1118 C 0.49566 0.08421 0.8342 0.0
C1119 C 0.48724 0.13262 0.88504 0.0
H1120 H 0.43496 0.08822 0.79124 0.0
C1121 C 0.43365 0.16132 0.79479 0.0
C1122 C 0.41351 0.14624 0.79213 0.0
C1123 C 0.44692 0.15424 0.80958 0.0
C1124 C 0.4494 0.10091 0.81811 0.0
H1125 H 0.53329 0.11068 0.99479 0.0
H1126 H 0.51108 0.12446 0.97216 0.0
H1127 H 0.45767 0.0756 0.81612 0.0
H1128 H 0.39168 0.11196 0.80507 0.0
H1129 H 0.41472 0.09978 0.83282 0.0
H1130 H 0.47873 0.15777 0.88887 0.0
C1131 C 0.5102 0.11118 0.93625 0.0
C1132 C 0.46265 0.09369 0.8316 0.0
C1133 C 0.52297 0.1032 0.9495 0.0
C1134 C 0.40707 0.12406 0.80659 0.0
C1135 C 0.42035 0.11697 0.82172 0.0
C1136 C 0.47395 0.13982 0.8718 0.0
C1137 C 0.49611 0.1016 0.87867 0.0
C1138 C 0.48187 0.10942 0.86506 0.0
C1139 C 0.44053 0.13187 0.82305 0.0
C1140 C 0.45477 0.12412 0.83793 0.0
H1141 H 0.50734 0.06272 0.81209 0.0
H1142 H 0.4855 0.07671 0.78857 0.0
H1143 H 0.50186 0.14542 0.91031 0.0
H1144 H 0.4392 0.17864 0.78471 0.0
H1145 H 0.46219 0.16624 0.80906 0.0
C1146 C 0.92455 0.25013 0.79985 0.0
C1147 C 0.91269 0.23197 0.83129 0.0
C1148 C 0.93642 0.27296 0.83404 0.0
C1149 C 0.95797 0.3088 1.00258 0.0
H1150 H 0.96704 0.35869 0.91024 0.0
C1151 C 0.99885 0.40646 0.12875 0.0
C1152 C 0.01254 0.42255 0.0959 0.0
C1153 C 0.98645 0.38306 0.09889 0.0
C1154 C 0.96481 0.345 0.93672 0.0
H1155 H 0.90434 0.22385 0.92438 0.0
H1156 H 0.9246 0.2637 0.98377 0.0
H1157 H 0.94581 0.31867 0.85474 0.0
H1158 H 0.02401 0.42652 1.00605 0.0
H1159 H 0.00239 0.38593 0.95395 0.0
H1160 H 0.97676 0.33546 0.08508 0.0
C1161 C 0.92501 0.26029 0.93262 0.0
C1162 C 0.95264 0.32189 0.90471 0.0
C1163 C 0.91323 0.23734 0.89837 0.0
C1164 C 0.01366 0.41461 1.03281 0.0
C1165 C 0.00113 0.39135 1.0027 0.0
C1166 C 0.97 0.33198 1.03485 0.0
C1167 C 0.93674 0.27857 0.90092 0.0
C1168 C 0.94919 0.30333 0.93667 0.0
C1169 C 0.98729 0.37521 1.03515 0.0
C1170 C 0.97379 0.35042 1.0021 0.0
H1171 H 0.92481 0.24671 0.74852 0.0
H1172 H 0.94553 0.28619 0.80776 0.0
H1173 H 0.95596 0.29521 1.02912 0.0
H1174 H 0.99768 0.41198 0.17753 0.0
H1175 H 0.97591 0.37121 0.12524 0.0
C1176 C 0.8206 0.6288 0.81431 0.0
C1177 C 0.83076 0.65107 0.79874 0.0
C1178 C 0.80283 0.62065 0.83623 0.0
C1179 C 0.76242 0.6321 0.84261 0.0
H1180 H 0.74844 0.59081 0.96762 0.0
C1181 C 0.69665 0.60808 0.97501 0.0
C1182 C 0.68504 0.58489 0.98261 0.0
C1183 C 0.71388 0.61563 0.94977 0.0
C1184 C 0.75203 0.60212 0.93215 0.0
H1185 H 0.83049 0.68262 0.79663 0.0
H1186 H 0.79991 0.66885 0.83748 0.0
H1187 H 0.77986 0.60562 0.9324 0.0
H1188 H 0.68239 0.55138 0.96887 0.0
H1189 H 0.71259 0.56458 0.92497 0.0
H1190 H 0.73469 0.62895 0.84379 0.0
C1191 C 0.80533 0.65729 0.83068 0.0
C1192 C 0.77008 0.61063 0.91176 0.0
C1193 C 0.82305 0.66535 0.80806 0.0
C1194 C 0.69093 0.56931 0.96325 0.0
C1195 C 0.70832 0.57693 0.9387 0.0
C1196 C 0.74445 0.62377 0.86353 0.0
C1197 C 0.79482 0.6347 0.84439 0.0
C1198 C 0.77557 0.62575 0.86662 0.0
C1199 C 0.72009 0.60024 0.9321 0.0
C1200 C 0.73902 0.60867 0.90854 0.0
H1201 H 0.82625 0.61744 0.80872 0.0
H1202 H 0.79518 0.60308 0.84538 0.0
H1203 H 0.76586 0.6433 0.80687 0.0
H1204 H 0.69245 0.62048 0.98902 0.0
H1205 H 0.72264 0.6337 0.94574 0.0
C1206 C 0.8987 0.63742 0.87083 0.0
C1207 C 0.90244 0.6426 0.80896 0.0
C1208 C 0.90639 0.62569 0.90148 0.0
C1209 C 0.93055 0.60784 0.96774 0.0
H1210 H 0.93343 0.56177 0.85204 0.0
C1211 C 0.96307 0.55465 0.06093 0.0
C1212 C 0.95352 0.53113 1.03157 0.0
C1213 C 0.95813 0.56963 1.03556 0.0
C1214 C 0.9326 0.57439 0.88538 0.0
H1215 H 0.91817 0.641 0.73275 0.0
H1216 H 0.93212 0.62168 0.78658 0.0
H1217 H 0.92187 0.58475 0.80727 0.0
H1218 H 0.93179 0.50531 0.95074 0.0
H1219 H 0.92284 0.5309 0.90818 0.0
H1220 H 0.94051 0.59653 1.04612 0.0
C1221 C 0.92264 0.62562 0.81077 0.0
C1222 C 0.92622 0.58793 0.85948 0.0
C1223 C 0.91476 0.63692 0.77997 0.0
C1224 C 0.93928 0.52318 0.97541 0.0
C1225 C 0.9343 0.53804 0.95035 0.0
C1226 C 0.93681 0.59409 0.99382 0.0
C1227 C 0.91817 0.61919 0.87115 0.0
C1228 C 0.92511 0.60492 0.90009 0.0
C1229 C 0.94356 0.56147 0.98007 0.0
C1230 C 0.93781 0.57704 0.95295 0.0
H1231 H 0.88924 0.64159 0.89426 0.0
H1232 H 0.90251 0.62099 0.94779 0.0
H1233 H 0.93007 0.62083 1.00066 0.0
H1234 H 0.97403 0.56138 0.10445 0.0
H1235 H 0.96578 0.58761 0.0594 0.0
C1236 C 0.50944 0.42637 0.87905 0.0
C1237 C 0.52161 0.43466 0.94028 0.0
C1238 C 0.49641 0.40251 0.85648 0.0
C1239 C 0.48423 0.34359 0.89024 0.0
H1240 H 0.43567 0.32298 0.77568 0.0
C1241 C 0.42009 0.24731 0.83058 0.0
C1242 C 0.41135 0.23762 0.76475 0.0
C1243 C 0.43351 0.27119 0.85047 0.0
C1244 C 0.44923 0.32843 0.80726 0.0
H1245 H 0.52979 0.42411 1.02528 0.0
H1246 H 0.50672 0.38273 0.98758 0.0
H1247 H 0.45876 0.36431 0.81419 0.0
H1248 H 0.40983 0.24597 0.6686 0.0
H1249 H 0.43291 0.28782 0.70372 0.0
H1250 H 0.47415 0.30748 0.885 0.0
C1251 C 0.5074 0.39449 0.95577 0.0
C1252 C 0.46264 0.35228 0.82928 0.0
C1253 C 0.52064 0.41837 0.97787 0.0
C1254 C 0.41622 0.25271 0.7196 0.0
C1255 C 0.42943 0.27674 0.73979 0.0
C1256 C 0.47065 0.31975 0.86915 0.0
C1257 C 0.49493 0.38605 0.89467 0.0
C1258 C 0.48047 0.36038 0.8711 0.0
C1259 C 0.43842 0.28629 0.80546 0.0
C1260 C 0.45297 0.3118 0.82723 0.0
H1261 H 0.50998 0.43839 0.84831 0.0
H1262 H 0.48761 0.39705 0.80861 0.0
H1263 H 0.49781 0.34875 0.92102 0.0
H1264 H 0.41685 0.23639 0.86702 0.0
H1265 H 0.43995 0.27787 0.90146 0.0
C1266 C 0.82358 0.16889 0.81287 0.0
C1267 C 0.82763 0.15146 0.79519 0.0
C1268 C 0.80504 0.16322 0.82522 0.0
C1269 C 0.76091 0.1167 0.87349 0.0
H1270 H 0.73547 0.14732 0.80623 0.0
C1271 C 0.68205 0.08618 0.9066 0.0
C1272 C 0.67707 0.10295 0.9209 0.0
C1273 C 0.69964 0.09203 0.88554 0.0
C1274 C 0.74241 0.13875 0.82611 0.0
H1275 H 0.81534 0.11435 0.77775 0.0
H1276 H 0.78319 0.10445 0.8005 0.0
H1277 H 0.76776 0.15789 0.78291 0.0
H1278 H 0.68645 0.13892 0.92237 0.0
H1279 H 0.71744 0.14941 0.88671 0.0
H1280 H 0.73603 0.09796 0.918 0.0
C1281 C 0.79432 0.12256 0.8046 0.0
C1282 C 0.76097 0.14482 0.81259 0.0
C1283 C 0.81279 0.12823 0.79168 0.0
C1284 C 0.68978 0.12556 0.91098 0.0
C1285 C 0.70759 0.13154 0.89059 0.0
C1286 C 0.7425 0.11079 0.88743 0.0
C1287 C 0.79014 0.13995 0.82133 0.0
C1288 C 0.77043 0.13378 0.83587 0.0
C1289 C 0.71304 0.11496 0.87914 0.0
C1290 C 0.73283 0.12156 0.86368 0.0
H1291 H 0.8348 0.18697 0.81733 0.0
H1292 H 0.80247 0.1771 0.83881 0.0
H1293 H 0.76787 0.10813 0.89329 0.0
H1294 H 0.6725 0.06857 0.9135 0.0
H1295 H 0.70286 0.07853 0.87544 0.0
C1296 C 0.57966 0.00432 0.97757 0.0
C1297 C 0.58368 0.02547 1.01292 0.0
C1298 C 0.58839 0.99261 1.00127 0.0
C1299 C 0.61639 0.99186 0.15434 0.0
H1300 H 0.62677 0.95313 1.03659 0.0
C1301 C 0.6679 0.96053 0.2361 0.0
C1302 C 0.65986 0.93635 0.22446 0.0
C1303 C 0.65815 0.97029 0.20731 0.0
C1304 C 0.62383 0.96378 0.06999 0.0
H1305 H 0.60017 0.05077 0.10131 0.0
H1306 H 0.61646 0.03163 0.13981 0.0
H1307 H 0.61127 0.97282 0.99272 0.0
H1308 H 0.63535 0.90373 0.16986 0.0
H1309 H 0.61881 0.92107 0.11726 0.0
H1310 H 0.62983 0.98357 0.2313 0.0
C1311 C 0.606 0.02339 0.09491 0.0
C1312 C 0.61483 0.97504 1.04496 0.0
C1313 C 0.59692 0.03475 0.07201 0.0
C1314 C 0.64217 0.92239 0.18003 0.0
C1315 C 0.63259 0.93228 0.15005 0.0
C1316 C 0.62574 0.98104 0.1791 0.0
C1317 C 0.60173 1.00193 0.06049 0.0
C1318 C 0.61103 0.98941 0.08674 0.0
C1319 C 0.64029 0.9563 0.16455 0.0
C1320 C 0.62964 0.96694 0.13732 0.0
H1321 H 0.56949 0.99655 0.93193 0.0
H1322 H 0.58432 0.97602 0.97346 0.0
H1323 H 0.6133 1.00206 0.18868 0.0
H1324 H 0.68177 0.97211 0.26798 0.0
H1325 H 0.66463 0.98889 0.21855 0.0
C1326 C 0.14898 0.74794 0.41279 0.0
C1327 C 0.16369 0.76159 0.37853 0.0
C1328 C 0.13779 0.72362 0.39447 0.0
C1329 C 0.12511 0.67523 0.25627 0.0
H1330 H 0.1068 0.6368 0.38716 0.0
C1331 C 0.09183 0.57537 0.20024 0.0
C1332 C 0.0749 0.56136 0.22539 0.0
C1333 C 0.10244 0.59963 0.21932 0.0
C1334 C 0.11167 0.64725 0.34984 0.0
H1335 H 0.17737 0.76002 0.29609 0.0
H1336 H 0.15901 0.71811 0.26679 0.0
H1337 H 0.12538 0.67891 0.41933 0.0
H1338 H 0.05616 0.5622 0.29146 0.0
H1339 H 0.07471 0.60434 0.32493 0.0
H1340 H 0.11174 0.64345 0.18711 0.0
C1341 C 0.15572 0.72596 0.30726 0.0
C1342 C 0.12231 0.67155 0.36827 0.0
C1343 C 0.16666 0.7502 0.32504 0.0
C1344 C 0.06905 0.57234 0.27073 0.0
C1345 C 0.07979 0.59657 0.29036 0.0
C1346 C 0.11469 0.65097 0.23804 0.0
C1347 C 0.14103 0.71214 0.34149 0.0
C1348 C 0.12928 0.68603 0.32184 0.0
C1349 C 0.09659 0.61062 0.26466 0.0
C1350 C 0.10781 0.63658 0.28448 0.0
H1351 H 0.14608 0.75605 0.45385 0.0
H1352 H 0.12642 0.71389 0.42155 0.0
H1353 H 0.12967 0.68547 0.21842 0.0
H1354 H 0.09683 0.56763 0.16529 0.0
H1355 H 0.1154 0.60978 0.19896 0.0
C1356 C 0.43056 0.38992 0.09918 0.0
C1357 C 0.43855 0.41292 0.08975 0.0
C1358 C 0.41633 0.38059 0.13839 0.0
C1359 C 0.39406 0.39736 0.26489 0.0
H1360 H 0.35255 0.33277 0.21557 0.0
C1361 C 0.32531 0.35675 0.38586 0.0
C1362 C 0.31965 0.33526 0.40419 0.0
C1363 C 0.33978 0.36622 0.34751 0.0
C1364 C 0.36413 0.35079 0.23023 0.0
H1365 H 0.43775 0.44411 0.11374 0.0
H1366 H 0.41262 0.42776 0.1808 0.0
H1367 H 0.37781 0.34938 0.14916 0.0
H1368 H 0.32447 0.30665 0.39546 0.0
H1369 H 0.34961 0.32309 0.32795 0.0
H1370 H 0.38001 0.39875 0.34526 0.0
C1371 C 0.41765 0.41702 0.15937 0.0
C1372 C 0.3787 0.36034 0.19231 0.0
C1373 C 0.43205 0.42642 0.12072 0.0
C1374 C 0.3286 0.3233 0.3825 0.0
C1375 C 0.34289 0.33264 0.34347 0.0
C1376 C 0.37936 0.38785 0.30237 0.0
C1377 C 0.40953 0.39393 0.16867 0.0
C1378 C 0.39393 0.38376 0.20916 0.0
C1379 C 0.34875 0.35429 0.3259 0.0
C1380 C 0.36425 0.36444 0.2856 0.0
H1381 H 0.43545 0.37917 0.07665 0.0
H1382 H 0.41079 0.36294 0.14535 0.0
H1383 H 0.40568 0.41531 0.28029 0.0
H1384 H 0.31881 0.36647 0.40223 0.0
H1385 H 0.34386 0.38285 0.33437 0.0
C1386 C 0.84557 0.71359 0.63866 0.0
C1387 C 0.84762 0.69592 0.60656 0.0
C1388 C 0.83495 0.72169 0.60624 0.0
C1389 C 0.81567 0.72485 0.44302 0.0
H1390 H 0.78057 0.73516 0.5346 0.0
C1391 C 0.77398 0.76629 0.3368 0.0
C1392 C 0.75405 0.75503 0.34103 0.0
C1393 C 0.78624 0.76048 0.37067 0.0
C1394 C 0.79028 0.73235 0.50823 0.0
H1395 H 0.84022 0.67322 0.51418 0.0
H1396 H 0.82168 0.68742 0.45752 0.0
H1397 H 0.79991 0.72156 0.58839 0.0
H1398 H 0.73162 0.72961 0.38639 0.0
H1399 H 0.75292 0.71962 0.44555 0.0
H1400 H 0.80577 0.73536 0.36246 0.0
C1401 C 0.8284 0.69505 0.50796 0.0
C1402 C 0.8015 0.72472 0.5393 0.0
C1403 C 0.83896 0.68682 0.5406 0.0
C1404 C 0.74687 0.7385 0.38176 0.0
C1405 C 0.75912 0.73287 0.41601 0.0
C1406 C 0.80453 0.73267 0.41206 0.0
C1407 C 0.82612 0.71247 0.54058 0.0
C1408 C 0.8143 0.72076 0.50708 0.0
C1409 C 0.77891 0.7435 0.4102 0.0
C1410 C 0.79158 0.73637 0.44413 0.0
H1411 H 0.85202 0.72114 0.68933 0.0
H1412 H 0.83376 0.73533 0.63269 0.0
H1413 H 0.82549 0.72218 0.41694 0.0
H1414 H 0.77992 0.77899 0.30552 0.0
H1415 H 0.80146 0.76919 0.36565 0.0
C1416 C 0.33097 0.07961 0.70658 0.0
C1417 C 0.33396 0.09599 0.66649 0.0
C1418 C 0.31751 0.05583 0.68396 0.0
C1419 C 0.27466 0.01351 0.55435 0.0
H1420 H 0.28846 0.96992 0.60464 0.0
C1421 C 0.22808 0.91411 0.44393 0.0
C1422 C 0.2265 0.89861 0.48549 0.0
C1423 C 0.24064 0.93823 0.46481 0.0
C1424 C 0.28416 0.98174 0.59064 0.0
H1425 H 0.32475 0.0998 0.57067 0.0
H1426 H 0.30142 0.05848 0.53124 0.0
H1427 H 0.31092 0.01128 0.64342 0.0
H1428 H 0.23661 0.89652 0.58231 0.0
H1429 H 0.25823 0.93816 0.61866 0.0
H1430 H 0.24784 0.98384 0.50154 0.0
C1431 C 0.30934 0.06402 0.58063 0.0
C1432 C 0.29714 0.00562 0.61304 0.0
C1433 C 0.32285 0.08781 0.60324 0.0
C1434 C 0.23755 0.90789 0.5487 0.0
C1435 C 0.2501 0.93188 0.56947 0.0
C1436 C 0.26163 0.98956 0.53199 0.0
C1437 C 0.30655 0.04756 0.62041 0.0
C1438 C 0.2926 0.02195 0.59563 0.0
C1439 C 0.25205 0.94752 0.52779 0.0
C1440 C 0.2661 0.97324 0.55011 0.0
H1441 H 0.33931 0.08505 0.75525 0.0
H1442 H 0.31569 0.0439 0.71663 0.0
H1443 H 0.27045 0.02539 0.54023 0.0
H1444 H 0.21999 0.90759 0.3947 0.0
H1445 H 0.24177 0.94955 0.43089 0.0
C1446 C 0.9317 0.16135 0.65347 0.0
C1447 C 0.92658 0.17822 0.66225 0.0
C1448 C 0.95022 0.1672 0.64058 0.0
C1449 C 0.00063 0.21826 0.64955 0.0
H1450 H 0.00641 0.17505 0.53219 0.0
C1451 C 0.07008 0.24553 0.53625 0.0
C1452 C 0.0766 0.22999 0.52674 0.0
C1453 C 0.05265 0.23901 0.55938 0.0
C1454 C 0.00514 0.18722 0.56585 0.0
H1455 H 0.93691 0.21444 0.66255 0.0
H1456 H 0.96888 0.22452 0.63796 0.0
H1457 H 0.97429 0.1641 0.5569 0.0
H1458 H 0.07008 0.19556 0.53598 0.0
H1459 H 0.03951 0.18406 0.57663 0.0
H1460 H 0.03144 0.24154 0.65728 0.0
C1461 C 0.95881 0.20682 0.6428 0.0
C1462 C 0.98664 0.18093 0.5801 0.0
C1463 C 0.94032 0.20098 0.65606 0.0
C1464 C 0.06554 0.20798 0.54322 0.0
C1465 C 0.04791 0.20133 0.56578 0.0
C1466 C 0.01909 0.22457 0.63501 0.0
C1467 C 0.96414 0.19007 0.63532 0.0
C1468 C 0.98403 0.19644 0.62172 0.0
C1469 C 0.04107 0.21665 0.57325 0.0
C1470 C 0.02161 0.20924 0.59247 0.0
H1471 H 0.92139 0.14357 0.65684 0.0
H1472 H 0.9537 0.15378 0.63583 0.0
H1473 H -0.00058 0.23053 0.68298 0.0
H1474 H 0.07827 0.26263 0.52414 0.0
H1475 H 0.04787 0.25125 0.56391 0.0
C1476 C 0.31835 0.17244 0.66806 0.0
C1477 C 0.33703 0.18308 0.65086 0.0
C1478 C 0.30542 0.17982 0.6512 0.0
C1479 C 0.30396 0.23039 0.60691 0.0
H1480 H 0.24851 0.18595 0.55281 0.0
C1481 C 0.24708 0.25868 0.59176 0.0
C1482 C 0.23191 0.24832 0.53742 0.0
C1483 C 0.25958 0.25034 0.60356 0.0
C1484 C 0.26395 0.19863 0.56748 0.0
H1485 H 0.35653 0.20986 0.60149 0.0
H1486 H 0.33397 0.22272 0.57188 0.0
H1487 H 0.27085 0.17232 0.57493 0.0
H1488 H 0.21742 0.21994 0.45499 0.0
H1489 H 0.23895 0.20506 0.47631 0.0
H1490 H 0.29706 0.25671 0.59965 0.0
C1491 C 0.32935 0.20868 0.59888 0.0
C1492 C 0.2768 0.19081 0.5808 0.0
C1493 C 0.34226 0.20114 0.61531 0.0
C1494 C 0.22904 0.22857 0.49696 0.0
C1495 C 0.2414 0.21999 0.50931 0.0
C1496 C 0.29109 0.23822 0.5943 0.0
C1497 C 0.31073 0.1982 0.6168 0.0
C1498 C 0.29703 0.20655 0.60087 0.0
C1499 C 0.25709 0.23099 0.56225 0.0
C1500 C 0.27086 0.22249 0.57455 0.0
H1501 H 0.31372 0.15845 0.6953 0.0
H1502 H 0.29138 0.17143 0.66665 0.0
H1503 H 0.31935 0.24311 0.62272 0.0
H1504 H 0.24946 0.27348 0.62526 0.0
H1505 H 0.27115 0.25901 0.64563 0.0
C1506 C 0.75481 0.92349 0.33694 0.0
C1507 C 0.74009 0.90803 0.36806 0.0
C1508 C 0.76739 0.94691 0.36625 0.0
C1509 C 0.77181 0.9923 0.49707 0.0
H1510 H 0.82614 0.02565 0.4776 0.0
C1511 C 0.8283 0.08153 0.65671 0.0
C1512 C 0.84226 0.09887 0.62745 0.0
C1513 C 0.816 0.05878 0.62257 0.0
C1514 C 0.81096 0.01669 0.483 0.0
H1515 H 0.72712 0.90522 0.4547 0.0
H1516 H 0.74905 0.94566 0.50614 0.0
H1517 H 0.80469 0.98518 0.42401 0.0
H1518 H 0.85414 0.1056 0.53874 0.0
H1519 H 0.8327 0.06569 0.47898 0.0
H1520 H 0.77816 0.02366 0.55692 0.0
C1521 C 0.75081 0.93997 0.45853 0.0
C1522 C 0.79858 0.99339 0.45209 0.0
C1523 C 0.73824 0.91662 0.42913 0.0
C1524 C 0.84358 0.09272 0.56283 0.0
C1525 C 0.83135 0.06979 0.52871 0.0
C1526 C 0.78419 0.01548 0.52826 0.0
C1527 C 0.76557 0.95559 0.42755 0.0
C1528 C 0.77881 0.98073 0.459 0.0
C1529 C 0.8173 0.0525 0.55805 0.0
C1530 C 0.80399 0.028 0.52217 0.0
H1531 H 0.75631 0.91764 0.28914 0.0
H1532 H 0.77827 0.95831 0.34003 0.0
H1533 H 0.75664 0.98353 0.50253 0.0
H1534 H 0.82675 0.08556 0.70625 0.0
H1535 H 0.80559 0.04597 0.64722 0.0
C1536 C 0.92802 0.70855 0.57769 0.0
C1537 C 0.92226 0.69092 0.61481 0.0
C1538 C 0.94622 0.71841 0.55771 0.0
C1539 C 0.99508 0.72594 0.59799 0.0
H1540 H 0.00026 0.73817 0.4228 0.0
C1541 C 0.06152 0.74005 0.48423 0.0
C1542 C 0.06854 0.75577 0.44116 0.0
C1543 C 0.04466 0.73509 0.50909 0.0
C1544 C 0.99917 0.73524 0.47226 0.0
H1545 H 0.9308 0.66945 0.65908 0.0
H1546 H 0.96242 0.68643 0.62417 0.0
H1547 H 0.9687 0.72343 0.45751 0.0
H1548 H 0.06357 0.77915 0.39209 0.0
H1549 H 0.03407 0.77062 0.43606 0.0
H1550 H 0.02544 0.73742 0.61259 0.0
C1551 C 0.95307 0.69293 0.61101 0.0
C1552 C 0.98103 0.72673 0.49214 0.0
C1553 C 0.93484 0.68297 0.63038 0.0
C1554 C 0.0586 0.76703 0.42534 0.0
C1555 C 0.04158 0.76195 0.45001 0.0
C1556 C 0.01319 0.73444 0.57816 0.0
C1557 C 0.95909 0.7109 0.5748 0.0
C1558 C 0.97867 0.72156 0.55489 0.0
C1559 C 0.03425 0.74567 0.4916 0.0
C1560 C 0.01542 0.73882 0.51464 0.0
H1561 H 0.91855 0.71493 0.56486 0.0
H1562 H 0.9504 0.7323 0.53029 0.0
H1563 H 0.99392 0.7227 0.64718 0.0
H1564 H 0.06894 0.73124 0.49797 0.0
H1565 H 0.03941 0.72231 0.5404 0.0
loop_
_geom_bond_atom_site_label_1
_geom_bond_atom_site_label_2
_geom_bond_distance
_geom_bond_site_symmetry_2
_ccdc_geom_bond_type
Eu0 N29 2.600 . S
Eu0 N35 2.562 . S
Eu0 O44 2.462 . S
Eu0 O45 2.373 . S
Eu0 O47 2.432 . S
Eu0 O48 2.291 1_655 S
Eu0 O52 2.335 1_655 S
Eu0 O55 2.372 1_655 S
Eu0 C64 2.787 . S
C1 N2 1.365 . S
C1 C4 1.405 . S
C1 C8 1.448 . S
N2 C1 1.365 . S
N2 C5 1.319 . S
N2 Eu11 2.600 . S
C3 C5 1.397 . S
C3 C6 1.367 . S
C3 H23 0.931 1_554 S
C4 C1 1.405 . S
C4 C6 1.403 . S
C4 C10 1.439 . S
C5 N2 1.319 . S
C5 C3 1.397 . S
C5 H16 0.930 . S
C6 C3 1.367 . S
C6 C4 1.403 . S
C6 H27 0.929 . S
C7 C8 1.430 . S
C7 C9 1.387 . S
C7 C13 1.404 . S
C8 C1 1.448 . S
C8 C7 1.430 . S
C8 N12 1.351 . S
C9 C7 1.387 . S
C9 C10 1.374 . S
C9 H24 0.931 . S
C10 C4 1.439 . S
C10 C9 1.374 . S
C10 H25 0.931 . S
Eu11 N2 2.600 . S
Eu11 N12 2.562 . S
Eu11 O46 2.335 . S
Eu11 O49 2.372 . S
Eu11 O50 2.462 . S
Eu11 O51 2.373 . S
Eu11 O53 2.432 . S
Eu11 O54 2.291 . S
Eu11 C75 2.787 . S
N12 C8 1.351 . S
N12 Eu11 2.562 . S
N12 C14 1.325 . S
C13 C7 1.404 . S
C13 C15 1.366 . S
C13 H21 0.930 . S
C14 N12 1.325 . S
C14 C15 1.416 . S
C14 H20 0.929 . S
C15 C13 1.366 . S
C15 C14 1.416 . S
C15 H17 0.930 . S
H16 C5 0.930 . S
H17 C15 0.930 . S
H18 C33 0.930 . S
H19 C40 0.930 . S
H20 C14 0.929 . S
H21 C13 0.930 . S
H22 C36 0.929 . S
H23 C3 0.931 1_556 S
H24 C9 0.931 . S
H25 C10 0.931 . S
H26 C31 0.931 . S
H27 C6 0.929 . S
H28 C39 0.930 . S
N29 Eu0 2.600 . S
N29 C30 1.365 . S
N29 C33 1.319 . S
C30 N29 1.365 . S
C30 C32 1.405 . S
C30 C38 1.448 . S
C31 H26 0.931 . S
C31 C33 1.397 . S
C31 C34 1.367 . S
C32 C30 1.405 . S
C32 C34 1.403 . S
C32 C65 1.439 . S
C33 H18 0.930 . S
C33 N29 1.319 . S
C33 C31 1.397 . S
C34 C31 1.367 . S
C34 C32 1.403 . S
C34 H41 0.929 . S
N35 Eu0 2.562 . S
N35 C36 1.325 1_554 S
N35 C38 1.351 . S
C36 H22 0.929 . S
C36 N35 1.325 1_556 S
C36 C40 1.416 . S
C37 C38 1.430 . S
C37 C39 1.404 1_554 S
C37 C66 1.387 . S
C38 C30 1.448 . S
C38 N35 1.351 . S
C38 C37 1.430 . S
C39 H28 0.930 . S
C39 C37 1.404 1_556 S
C39 C40 1.366 . S
C40 H19 0.930 . S
C40 C36 1.416 . S
C40 C39 1.366 . S
H41 C34 0.929 . S
H42 C65 0.931 . S
H43 C66 0.931 . S
O44 Eu0 2.462 . S
O44 C64 1.252 . S
O45 Eu0 2.373 . S
O45 C56 1.249 . S
O46 Eu11 2.335 . S
O46 C56 1.264 1_455 S
O47 Eu0 2.432 . S
O47 C64 1.268 . S
O48 Eu0 2.291 1_455 S
O48 C63 1.255 . S
O49 Eu11 2.372 . S
O49 C63 1.257 . S
O50 Eu11 2.462 . S
O50 C75 1.252 . S
O51 Eu11 2.373 . S
O51 C67 1.249 . S
O52 Eu0 2.335 1_455 S
O52 C67 1.264 . S
O53 Eu11 2.432 . S
O53 C75 1.268 . S
O54 Eu11 2.291 . S
O54 C74 1.255 . S
O55 Eu0 2.372 1_455 S
O55 C74 1.257 . S
C56 O45 1.249 . S
C56 O46 1.264 1_655 S
C57 C60 1.382 . S
C57 C62 1.390 . S
C57 C64 1.506 . S
C58 C59 1.398 . S
C58 C62 1.392 . S
C59 C58 1.398 . S
C59 C61 1.372 . S
C59 H76 0.931 . S
C60 C57 1.382 . S
C60 C61 1.390 . S
C60 H77 0.931 . S
C61 C59 1.372 . S
C61 C60 1.390 . S
C61 H78 0.929 . S
C62 C57 1.390 . S
C62 C58 1.392 . S
C62 H79 0.930 . S
C63 O48 1.255 . S
C63 O49 1.257 . S
C64 Eu0 2.787 . S
C64 O44 1.252 . S
C64 O47 1.268 . S
C64 C57 1.506 . S
C65 C32 1.439 . S
C65 H42 0.931 . S
C65 C66 1.374 . S
C66 C37 1.387 . S
C66 H43 0.931 . S
C66 C65 1.374 . S
C67 O51 1.249 . S
C67 O52 1.264 . S
C68 C71 1.382 . S
C68 C72 1.390 . S
C68 C75 1.506 . S
C69 C70 1.398 . S
C69 C72 1.392 . S
C70 C69 1.398 . S
C70 C73 1.372 . S
C70 H80 0.931 . S
C71 C68 1.382 . S
C71 C73 1.390 . S
C71 H81 0.931 . S
C72 C68 1.390 . S
C72 C69 1.392 . S
C72 H82 0.930 . S
C73 C70 1.372 . S
C73 C71 1.390 . S
C73 H83 0.929 . S
C74 O54 1.255 . S
C74 O55 1.257 . S
C75 Eu11 2.787 . S
C75 O50 1.252 . S
C75 O53 1.268 . S
C75 C68 1.506 . S
H76 C59 0.931 . S
H77 C60 0.931 . S
H78 C61 0.929 . S
H79 C62 0.930 . S
H80 C70 0.931 . S
H81 C71 0.931 . S
H82 C72 0.930 . S
H83 C73 0.929 . S
Eu84 N113 2.600 . S
Eu84 N119 2.562 . S
Eu84 O128 2.462 . S
Eu84 O129 2.373 . S
Eu84 O131 2.432 . S
Eu84 O132 2.291 . S
Eu84 O136 2.335 . S
Eu84 O139 2.372 1_554 S
Eu84 C148 2.787 . S
C85 N86 1.365 . S
C85 C88 1.405 . S
C85 C92 1.448 . S
N86 C85 1.365 . S
N86 C89 1.319 . S
N86 Eu95 2.600 . S
C87 C89 1.397 . S
C87 C90 1.367 . S
C87 H107 0.931 . S
C88 C85 1.405 . S
C88 C90 1.403 . S
C88 C94 1.439 . S
C89 N86 1.319 . S
C89 C87 1.397 . S
C89 H100 0.930 . S
C90 C87 1.367 . S
C90 C88 1.403 . S
C90 H111 0.929 . S
C91 C92 1.422 1_556 S
C91 C93 1.378 1_556 S
C91 C97 1.421 . S
C92 C85 1.448 . S
C92 C91 1.422 1_554 S
C92 N96 1.351 . S
C93 C91 1.378 1_554 S
C93 C94 1.374 . S
C93 H108 0.931 . S
C94 C88 1.439 . S
C94 C93 1.374 . S
C94 H109 0.931 . S
Eu95 N86 2.600 . S
Eu95 N96 2.562 . S
Eu95 O130 2.335 . S
Eu95 O133 2.372 . S
Eu95 O134 2.462 . S
Eu95 O135 2.373 . S
Eu95 O137 2.432 . S
Eu95 O138 2.291 1_554 S
Eu95 C159 2.787 . S
N96 C92 1.351 . S
N96 Eu95 2.562 . S
N96 C98 1.325 1_554 S
C97 C91 1.421 . S
C97 C99 1.366 . S
C97 H105 0.930 . S
C98 N96 1.325 1_556 S
C98 C99 1.416 . S
C98 H104 0.929 . S
C99 C97 1.366 . S
C99 C98 1.416 . S
C99 H101 0.930 . S
H100 C89 0.930 . S
H101 C99 0.930 . S
H102 C117 0.930 . S
H103 C124 0.930 . S
H104 C98 0.929 . S
H105 C97 0.930 . S
H106 C120 0.929 . S
H107 C87 0.931 . S
H108 C93 0.931 . S
H109 C94 0.931 . S
H110 C115 0.931 . S
H111 C90 0.929 . S
H112 C123 0.930 . S
N113 Eu84 2.600 . S
N113 C114 1.365 . S
N113 C117 1.319 1_554 S
C114 N113 1.365 . S
C114 C116 1.405 . S
C114 C122 1.448 . S
C115 H110 0.931 . S
C115 C117 1.397 . S
C115 C118 1.367 . S
C116 C114 1.405 . S
C116 C118 1.403 1_554 S
C116 C149 1.439 . S
C117 H102 0.930 . S
C117 N113 1.319 1_556 S
C117 C115 1.397 . S
C118 C115 1.367 . S
C118 C116 1.403 1_556 S
C118 H125 0.929 . S
N119 Eu84 2.562 . S
N119 C120 1.325 . S
N119 C122 1.351 . S
C120 H106 0.929 . S
C120 N119 1.325 . S
C120 C124 1.416 . S
C121 C122 1.430 . S
C121 C123 1.404 . S
C121 C150 1.387 . S
C122 C114 1.448 . S
C122 N119 1.351 . S
C122 C121 1.430 . S
C123 H112 0.930 . S
C123 C121 1.404 . S
C123 C124 1.366 . S
C124 H103 0.930 . S
C124 C120 1.416 . S
C124 C123 1.366 . S
H125 C118 0.929 . S
H126 C149 0.931 . S
H127 C150 0.931 . S
O128 Eu84 2.462 . S
O128 C148 1.252 . S
O129 Eu84 2.373 . S
O129 C140 1.249 . S
O130 Eu95 2.335 . S
O130 C140 1.264 . S
O131 Eu84 2.432 . S
O131 C148 1.268 . S
O132 Eu84 2.291 . S
O132 C147 1.255 . S
O133 Eu95 2.372 . S
O133 C147 1.257 . S
O134 Eu95 2.462 . S
O134 C159 1.252 . S
O135 Eu95 2.373 . S
O135 C151 1.249 . S
O136 Eu84 2.335 . S
O136 C151 1.264 . S
O137 Eu95 2.432 . S
O137 C159 1.268 . S
O138 Eu95 2.291 1_556 S
O138 C158 1.255 . S
O139 Eu84 2.372 1_556 S
O139 C158 1.257 . S
C140 O129 1.249 . S
C140 O130 1.264 . S
C141 C144 1.382 . S
C141 C146 1.390 . S
C141 C148 1.506 . S
C142 C143 1.398 . S
C142 C146 1.392 . S
C143 C142 1.398 . S
C143 C145 1.372 . S
C143 H160 0.931 . S
C144 C141 1.382 . S
C144 C145 1.390 . S
C144 H161 0.931 1_554 S
C145 C143 1.372 . S
C145 C144 1.390 . S
C145 H162 0.942 . S
C146 C141 1.390 . S
C146 C142 1.392 . S
C146 H163 0.930 . S
C147 O132 1.255 . S
C147 O133 1.257 . S
C148 Eu84 2.787 . S
C148 O128 1.252 . S
C148 O131 1.268 . S
C148 C141 1.506 . S
C149 C116 1.439 . S
C149 H126 0.931 . S
C149 C150 1.374 . S
C150 C121 1.387 . S
C150 H127 0.931 . S
C150 C149 1.374 . S
C151 O135 1.249 . S
C151 O136 1.264 . S
C152 C155 1.382 . S
C152 C156 1.390 . S
C152 C159 1.506 . S
C153 C154 1.398 . S
C153 C156 1.392 . S
C154 C153 1.398 . S
C154 C157 1.372 . S
C154 H164 0.931 . S
C155 C152 1.382 . S
C155 C157 1.390 . S
C155 H165 0.931 . S
C156 C152 1.390 . S
C156 C153 1.392 . S
C156 H166 0.930 1_554 S
C157 C154 1.372 . S
C157 C155 1.390 . S
C157 H167 0.929 . S
C158 O138 1.255 . S
C158 O139 1.257 . S
C159 Eu95 2.787 . S
C159 O134 1.252 . S
C159 O137 1.268 . S
C159 C152 1.506 . S
H160 C143 0.931 . S
H161 C144 0.931 1_556 S
H162 C145 0.942 . S
H163 C146 0.930 . S
H164 C154 0.931 . S
H165 C155 0.931 . S
H166 C156 0.930 1_556 S
H167 C157 0.929 . S
Eu168 N197 2.600 . S
Eu168 N203 2.562 1_554 S
Eu168 O212 2.462 1_554 S
Eu168 O213 2.373 . S
Eu168 O215 2.432 . S
Eu168 O216 2.291 1_554 S
Eu168 O220 2.335 . S
Eu168 O223 2.372 . S
Eu168 C232 2.787 . S
C169 N170 1.365 . S
C169 C172 1.405 . S
C169 C176 1.448 1_556 S
N170 C169 1.365 . S
N170 C173 1.319 . S
N170 Eu179 2.600 1_565 S
C171 C173 1.397 . S
C171 C174 1.367 . S
C171 H191 0.931 . S
C172 C169 1.405 . S
C172 C174 1.403 . S
C172 C178 1.439 . S
C173 N170 1.319 . S
C173 C171 1.397 . S
C173 H184 0.930 1_565 S
C174 C171 1.367 . S
C174 C172 1.403 . S
C174 H195 0.929 . S
C175 C176 1.430 . S
C175 C177 1.387 1_554 S
C175 C181 1.404 . S
C176 C169 1.448 1_554 S
C176 C175 1.430 . S
C176 N180 1.355 1_565 S
C177 C175 1.387 1_556 S
C177 C178 1.374 . S
C177 H192 0.931 1_556 S
C178 C172 1.439 . S
C178 C177 1.374 . S
C178 H193 0.931 . S
Eu179 N170 2.600 1_545 S
Eu179 N180 2.558 1_556 S
Eu179 O214 2.335 . S
Eu179 O217 2.372 . S
Eu179 O218 2.462 1_556 S
Eu179 O219 2.373 . S
Eu179 O221 2.432 . S
Eu179 O222 2.291 1_556 S
Eu179 C243 2.787 1_556 S
N180 C176 1.355 1_545 S
N180 Eu179 2.558 1_554 S
N180 C182 1.325 . S
C181 C175 1.404 . S
C181 C183 1.366 . S
C181 H189 0.930 . S
C182 N180 1.325 . S
C182 C183 1.416 1_545 S
C182 H188 0.929 . S
C183 C181 1.366 . S
C183 C182 1.416 1_565 S
C183 H185 0.930 . S
H184 C173 0.930 1_545 S
H185 C183 0.930 . S
H186 C201 0.930 . S
H187 C208 0.930 . S
H188 C182 0.929 . S
H189 C181 0.930 . S
H190 C204 0.929 . S
H191 C171 0.931 . S
H192 C177 0.931 1_554 S
H193 C178 0.931 . S
H194 C199 0.931 . S
H195 C174 0.929 . S
H196 C207 0.930 . S
N197 Eu168 2.600 . S
N197 C198 1.365 . S
N197 C201 1.319 . S
C198 N197 1.365 . S
C198 C200 1.405 . S
C198 C206 1.448 . S
C199 H194 0.931 . S
C199 C201 1.397 . S
C199 C202 1.367 . S
C200 C198 1.405 . S
C200 C202 1.403 . S
C200 C233 1.439 . S
C201 H186 0.930 . S
C201 N197 1.319 . S
C201 C199 1.397 . S
C202 C199 1.367 . S
C202 C200 1.403 . S
C202 H209 0.929 . S
N203 Eu168 2.562 1_556 S
N203 C204 1.325 . S
N203 C206 1.351 1_556 S
C204 H190 0.929 . S
C204 N203 1.325 . S
C204 C208 1.416 . S
C205 C206 1.430 1_556 S
C205 C207 1.404 . S
C205 C234 1.387 1_556 S
C206 C198 1.448 . S
C206 N203 1.351 1_554 S
C206 C205 1.430 1_554 S
C207 H196 0.930 . S
C207 C205 1.404 . S
C207 C208 1.366 . S
C208 H187 0.930 . S
C208 C204 1.416 . S
C208 C207 1.366 . S
H209 C202 0.929 . S
H210 C233 0.931 . S
H211 C234 0.931 . S
O212 Eu168 2.462 1_556 S
O212 C232 1.252 1_556 S
O213 Eu168 2.373 . S
O213 C224 1.249 . S
O214 Eu179 2.335 . S
O214 C224 1.264 1_556 S
O215 Eu168 2.432 . S
O215 C232 1.268 . S
O216 Eu168 2.291 1_556 S
O216 C231 1.255 . S
O217 Eu179 2.372 . S
O217 C231 1.257 . S
O218 Eu179 2.462 1_554 S
O218 C243 1.252 . S
O219 Eu179 2.373 . S
O219 C235 1.249 1_556 S
O220 Eu168 2.335 . S
O220 C235 1.264 . S
O221 Eu179 2.432 . S
O221 C243 1.268 1_556 S
O222 Eu179 2.291 1_554 S
O222 C242 1.255 . S
O223 Eu168 2.372 . S
O223 C242 1.257 . S
C224 O213 1.249 . S
C224 O214 1.264 1_554 S
C225 C228 1.382 . S
C225 C230 1.390 1_554 S
C225 C232 1.506 . S
C226 C227 1.398 1_556 S
C226 C230 1.392 . S
C227 C226 1.398 1_554 S
C227 C229 1.372 . S
C227 H244 0.931 . S
C228 C225 1.382 . S
C228 C229 1.390 . S
C228 H245 0.931 . S
C229 C227 1.372 . S
C229 C228 1.390 . S
C229 H246 0.929 . S
C230 C225 1.390 1_556 S
C230 C226 1.392 . S
C230 H247 0.930 . S
C231 O216 1.255 . S
C231 O217 1.257 . S
C232 Eu168 2.787 . S
C232 O212 1.252 1_554 S
C232 O215 1.268 . S
C232 C225 1.506 . S
C233 C200 1.439 . S
C233 H210 0.931 . S
C233 C234 1.374 . S
C234 C205 1.387 1_554 S
C234 H211 0.931 . S
C234 C233 1.374 . S
C235 O219 1.249 1_554 S
C235 O220 1.264 . S
C236 C239 1.382 1_544 S
C236 C240 1.390 . S
C236 C243 1.506 . S
C237 C238 1.395 1_545 S
C237 C240 1.389 . S
C238 C237 1.395 1_565 S
C238 C241 1.372 1_554 S
C238 H248 0.931 . S
C239 C236 1.382 1_566 S
C239 C241 1.390 . S
C239 H249 0.931 . S
C240 C236 1.390 . S
C240 C237 1.389 . S
C240 H250 0.930 . S
C241 C238 1.372 1_556 S
C241 C239 1.390 . S
C241 H251 0.929 . S
C242 O222 1.255 . S
C242 O223 1.257 . S
C243 Eu179 2.787 1_554 S
C243 O218 1.252 . S
C243 O221 1.268 1_554 S
C243 C236 1.506 . S
H244 C227 0.931 . S
H245 C228 0.931 . S
H246 C229 0.929 . S
H247 C230 0.930 . S
H248 C238 0.931 . S
H249 C239 0.931 . S
H250 C240 0.930 . S
H251 C241 0.929 . S
Eu252 N281 2.600 . S
Eu252 N287 2.562 . S
Eu252 O296 2.462 . S
Eu252 O297 2.373 . S
Eu252 O299 2.432 . S
Eu252 O300 2.291 . S
Eu252 O304 2.335 . S
Eu252 O307 2.372 . S
Eu252 C316 2.787 . S
C253 N254 1.365 . S
C253 C256 1.405 . S
C253 C260 1.448 . S
N254 C253 1.365 . S
N254 C257 1.319 . S
N254 Eu263 2.600 . S
C255 C257 1.397 . S
C255 C258 1.367 . S
C255 H275 0.931 . S
C256 C253 1.405 . S
C256 C258 1.403 . S
C256 C262 1.439 . S
C257 N254 1.319 . S
C257 C255 1.397 . S
C257 H268 0.930 . S
C258 C255 1.367 . S
C258 C256 1.403 . S
C258 H279 0.929 . S
C259 C260 1.430 . S
C259 C261 1.387 . S
C259 C265 1.404 . S
C260 C253 1.448 . S
C260 C259 1.430 . S
C260 N264 1.351 . S
C261 C259 1.387 . S
C261 C262 1.374 . S
C261 H276 0.931 . S
C262 C256 1.439 . S
C262 C261 1.374 . S
C262 H277 0.931 . S
Eu263 N254 2.600 . S
Eu263 N264 2.562 . S
Eu263 O298 2.335 . S
Eu263 O301 2.372 . S
Eu263 O302 2.462 . S
Eu263 O303 2.373 . S
Eu263 O305 2.432 . S
Eu263 O306 2.291 . S
Eu263 C327 2.787 . S
N264 C260 1.351 . S
N264 Eu263 2.562 . S
N264 C266 1.325 . S
C265 C259 1.404 . S
C265 C267 1.366 . S
C265 H273 0.930 . S
C266 N264 1.325 . S
C266 C267 1.416 . S
C266 H272 0.929 . S
C267 C265 1.366 . S
C267 C266 1.416 . S
C267 H269 0.930 . S
H268 C257 0.930 . S
H269 C267 0.930 . S
H270 C285 0.930 . S
H271 C292 0.930 1_556 S
H272 C266 0.929 . S
H273 C265 0.930 . S
H274 C288 0.929 . S
H275 C255 0.931 . S
H276 C261 0.931 . S
H277 C262 0.931 . S
H278 C283 0.931 . S
H279 C258 0.929 . S
H280 C291 0.930 . S
N281 Eu252 2.600 . S
N281 C282 1.365 . S
N281 C285 1.319 . S
C282 N281 1.365 . S
C282 C284 1.405 . S
C282 C290 1.448 . S
C283 H278 0.931 . S
C283 C285 1.397 . S
C283 C286 1.367 . S
C284 C282 1.405 . S
C284 C286 1.403 . S
C284 C317 1.439 . S
C285 H270 0.930 . S
C285 N281 1.319 . S
C285 C283 1.397 . S
C286 C283 1.367 . S
C286 C284 1.403 . S
C286 H293 0.929 . S
N287 Eu252 2.562 . S
N287 C288 1.325 . S
N287 C290 1.351 . S
C288 H274 0.929 . S
C288 N287 1.325 . S
C288 C292 1.416 . S
C289 C290 1.430 . S
C289 C291 1.404 . S
C289 C318 1.387 . S
C290 C282 1.448 . S
C290 N287 1.351 . S
C290 C289 1.430 . S
C291 H280 0.930 . S
C291 C289 1.404 . S
C291 C292 1.366 . S
C292 H271 0.930 1_554 S
C292 C288 1.416 . S
C292 C291 1.366 . S
H293 C286 0.929 . S
H294 C317 0.931 . S
H295 C318 0.931 . S
O296 Eu252 2.462 . S
O296 C316 1.252 . S
O297 Eu252 2.373 . S
O297 C308 1.249 . S
O298 Eu263 2.335 . S
O298 C308 1.264 . S
O299 Eu252 2.432 . S
O299 C316 1.268 . S
O300 Eu252 2.291 . S
O300 C315 1.255 . S
O301 Eu263 2.372 . S
O301 C315 1.257 . S
O302 Eu263 2.462 . S
O302 C327 1.252 . S
O303 Eu263 2.373 . S
O303 C319 1.249 . S
O304 Eu252 2.335 . S
O304 C319 1.264 . S
O305 Eu263 2.432 . S
O305 C327 1.268 . S
O306 Eu263 2.291 . S
O306 C326 1.255 . S
O307 Eu252 2.372 . S
O307 C326 1.257 . S
C308 O297 1.249 . S
C308 O298 1.264 . S
C309 C312 1.382 . S
C309 C314 1.390 . S
C309 C316 1.506 . S
C310 C311 1.398 . S
C310 C314 1.392 . S
C311 C310 1.398 . S
C311 C313 1.372 . S
C311 H328 0.931 . S
C312 C309 1.382 . S
C312 C313 1.390 . S
C312 H329 0.931 . S
C313 C311 1.372 . S
C313 C312 1.390 . S
C313 H330 0.929 . S
C314 C309 1.390 . S
C314 C310 1.392 . S
C314 H331 0.930 . S
C315 O300 1.255 . S
C315 O301 1.257 . S
C316 Eu252 2.787 . S
C316 O296 1.252 . S
C316 O299 1.268 . S
C316 C309 1.506 . S
C317 C284 1.439 . S
C317 H294 0.931 . S
C317 C318 1.374 . S
C318 C289 1.387 . S
C318 H295 0.931 . S
C318 C317 1.374 . S
C319 O303 1.249 . S
C319 O304 1.264 . S
C320 C323 1.382 . S
C320 C324 1.390 . S
C320 C327 1.506 . S
C321 C322 1.398 . S
C321 C324 1.392 . S
C322 C321 1.398 . S
C322 C325 1.372 . S
C322 H332 0.931 . S
C323 C320 1.382 . S
C323 C325 1.390 . S
C323 H333 0.931 . S
C324 C320 1.390 . S
C324 C321 1.392 . S
C324 H334 0.930 . S
C325 C322 1.372 . S
C325 C323 1.390 . S
C325 H335 0.929 . S
C326 O306 1.255 . S
C326 O307 1.257 . S
C327 Eu263 2.787 . S
C327 O302 1.252 . S
C327 O305 1.268 . S
C327 C320 1.506 . S
H328 C311 0.931 . S
H329 C312 0.931 . S
H330 C313 0.929 . S
H331 C314 0.930 . S
H332 C322 0.931 . S
H333 C323 0.931 . S
H334 C324 0.930 . S
H335 C325 0.929 . S
Eu336 N365 2.600 . S
Eu336 N371 2.562 . S
Eu336 O380 2.462 . S
Eu336 O381 2.373 . S
Eu336 O383 2.432 . S
Eu336 O384 2.291 . S
Eu336 O388 2.335 . S
Eu336 O391 2.372 . S
Eu336 C400 2.787 . S
C337 N338 1.365 . S
C337 C340 1.405 . S
C337 C344 1.448 . S
N338 C337 1.365 . S
N338 C341 1.319 . S
N338 Eu347 2.600 . S
C339 C341 1.397 . S
C339 C342 1.367 . S
C339 H359 0.931 . S
C340 C337 1.405 . S
C340 C342 1.403 . S
C340 C346 1.439 . S
C341 N338 1.319 . S
C341 C339 1.397 . S
C341 H352 0.930 . S
C342 C339 1.367 . S
C342 C340 1.403 . S
C342 H363 0.929 . S
C343 C344 1.430 . S
C343 C345 1.387 . S
C343 C349 1.404 . S
C344 C337 1.448 . S
C344 C343 1.430 . S
C344 N348 1.351 . S
C345 C343 1.387 . S
C345 C346 1.374 . S
C345 H360 0.931 . S
C346 C340 1.439 . S
C346 C345 1.374 . S
C346 H361 0.931 . S
Eu347 N338 2.600 . S
Eu347 N348 2.562 . S
Eu347 O382 2.335 . S
Eu347 O385 2.372 . S
Eu347 O386 2.462 . S
Eu347 O387 2.373 . S
Eu347 O389 2.432 . S
Eu347 O390 2.291 . S
Eu347 C411 2.787 . S
N348 C344 1.351 . S
N348 Eu347 2.562 . S
N348 C350 1.325 . S
C349 C343 1.404 . S
C349 C351 1.366 . S
C349 H357 0.930 . S
C350 N348 1.325 . S
C350 C351 1.416 . S
C350 H356 0.929 . S
C351 C349 1.366 . S
C351 C350 1.416 . S
C351 H353 0.930 . S
H352 C341 0.930 . S
H353 C351 0.930 . S
H354 C369 0.930 . S
H355 C376 0.930 . S
H356 C350 0.929 . S
H357 C349 0.930 . S
H358 C372 0.929 . S
H359 C339 0.931 . S
H360 C345 0.931 . S
H361 C346 0.931 . S
H362 C367 0.931 . S
H363 C342 0.929 . S
H364 C375 0.930 . S
N365 Eu336 2.600 . S
N365 C366 1.365 . S
N365 C369 1.319 . S
C366 N365 1.365 . S
C366 C368 1.405 . S
C366 C374 1.448 . S
C367 H362 0.931 . S
C367 C369 1.397 . S
C367 C370 1.367 . S
C368 C366 1.405 . S
C368 C370 1.403 . S
C368 C401 1.439 . S
C369 H354 0.930 . S
C369 N365 1.319 . S
C369 C367 1.397 . S
C370 C367 1.367 . S
C370 C368 1.403 . S
C370 H377 0.929 . S
N371 Eu336 2.562 . S
N371 C372 1.325 . S
N371 C374 1.351 . S
C372 H358 0.929 . S
C372 N371 1.325 . S
C372 C376 1.416 . S
C373 C374 1.430 . S
C373 C375 1.404 . S
C373 C402 1.387 . S
C374 C366 1.448 . S
C374 N371 1.351 . S
C374 C373 1.430 . S
C375 H364 0.930 . S
C375 C373 1.404 . S
C375 C376 1.366 . S
C376 H355 0.930 . S
C376 C372 1.416 . S
C376 C375 1.366 . S
H377 C370 0.929 . S
H378 C401 0.931 . S
H379 C402 0.931 . S
O380 Eu336 2.462 . S
O380 C400 1.252 . S
O381 Eu336 2.373 . S
O381 C392 1.249 . S
O382 Eu347 2.335 . S
O382 C392 1.264 . S
O383 Eu336 2.432 . S
O383 C400 1.268 . S
O384 Eu336 2.291 . S
O384 C399 1.255 . S
O385 Eu347 2.372 . S
O385 C399 1.257 . S
O386 Eu347 2.462 . S
O386 C411 1.252 . S
O387 Eu347 2.373 . S
O387 C403 1.249 . S
O388 Eu336 2.335 . S
O388 C403 1.264 . S
O389 Eu347 2.432 . S
O389 C411 1.268 . S
O390 Eu347 2.291 . S
O390 C410 1.255 . S
O391 Eu336 2.372 . S
O391 C410 1.257 . S
C392 O381 1.249 . S
C392 O382 1.264 . S
C393 C396 1.382 . S
C393 C398 1.390 . S
C393 C400 1.506 . S
C394 C395 1.398 . S
C394 C398 1.392 . S
C395 C394 1.398 . S
C395 C397 1.372 . S
C395 H412 0.931 . S
C396 C393 1.382 . S
C396 C397 1.390 . S
C396 H413 0.931 . S
C397 C395 1.372 . S
C397 C396 1.390 . S
C397 H414 0.929 . S
C398 C393 1.390 . S
C398 C394 1.392 . S
C398 H415 0.930 . S
C399 O384 1.255 . S
C399 O385 1.257 . S
C400 Eu336 2.787 . S
C400 O380 1.252 . S
C400 O383 1.268 . S
C400 C393 1.506 . S
C401 C368 1.439 . S
C401 H378 0.931 . S
C401 C402 1.374 . S
C402 C373 1.387 . S
C402 H379 0.931 . S
C402 C401 1.374 . S
C403 O387 1.249 . S
C403 O388 1.264 . S
C404 C407 1.382 . S
C404 C408 1.390 . S
C404 C411 1.506 . S
C405 C406 1.398 . S
C405 C408 1.392 . S
C406 C405 1.398 . S
C406 C409 1.372 . S
C406 H416 0.931 . S
C407 C404 1.382 . S
C407 C409 1.390 . S
C407 H417 0.931 . S
C408 C404 1.390 . S
C408 C405 1.392 . S
C408 H418 0.930 . S
C409 C406 1.372 . S
C409 C407 1.390 . S
C409 H419 0.929 . S
C410 O390 1.255 . S
C410 O391 1.257 . S
C411 Eu347 2.787 . S
C411 O386 1.252 . S
C411 O389 1.268 . S
C411 C404 1.506 . S
H412 C395 0.931 . S
H413 C396 0.931 . S
H414 C397 0.929 . S
H415 C398 0.930 . S
H416 C406 0.931 . S
H417 C407 0.931 . S
H418 C408 0.930 . S
H419 C409 0.929 . S
Eu420 N449 2.600 . S
Eu420 N455 2.562 . S
Eu420 O464 2.462 . S
Eu420 O465 2.373 . S
Eu420 O467 2.432 . S
Eu420 O468 2.291 . S
Eu420 O472 2.335 . S
Eu420 O475 2.372 . S
Eu420 C484 2.787 . S
C421 N422 1.365 . S
C421 C424 1.405 . S
C421 C428 1.448 . S
N422 C421 1.365 . S
N422 C425 1.319 . S
N422 Eu431 2.600 . S
C423 C425 1.397 . S
C423 C426 1.367 . S
C423 H443 0.931 . S
C424 C421 1.405 . S
C424 C426 1.403 . S
C424 C430 1.439 . S
C425 N422 1.319 . S
C425 C423 1.397 . S
C425 H436 0.930 . S
C426 C423 1.367 . S
C426 C424 1.403 . S
C426 H447 0.929 . S
C427 C428 1.430 . S
C427 C429 1.387 . S
C427 C433 1.404 . S
C428 C421 1.448 . S
C428 C427 1.430 . S
C428 N432 1.351 . S
C429 C427 1.387 . S
C429 C430 1.374 . S
C429 H444 0.931 . S
C430 C424 1.439 . S
C430 C429 1.374 . S
C430 H445 0.931 . S
Eu431 N422 2.600 . S
Eu431 N432 2.562 . S
Eu431 O466 2.335 . S
Eu431 O469 2.372 . S
Eu431 O470 2.462 . S
Eu431 O471 2.373 . S
Eu431 O473 2.432 . S
Eu431 O474 2.291 . S
Eu431 C495 2.787 . S
N432 C428 1.351 . S
N432 Eu431 2.562 . S
N432 C434 1.325 . S
C433 C427 1.404 . S
C433 C435 1.366 . S
C433 H441 0.930 . S
C434 N432 1.325 . S
C434 C435 1.416 . S
C434 H440 0.929 . S
C435 C433 1.366 . S
C435 C434 1.416 . S
C435 H437 0.930 . S
H436 C425 0.930 . S
H437 C435 0.930 . S
H438 C453 0.930 . S
H439 C460 0.930 . S
H440 C434 0.929 . S
H441 C433 0.930 . S
H442 C456 0.929 . S
H443 C423 0.931 . S
H444 C429 0.931 . S
H445 C430 0.931 . S
H446 C451 0.931 . S
H447 C426 0.929 . S
H448 C459 0.930 . S
N449 Eu420 2.600 . S
N449 C450 1.365 . S
N449 C453 1.319 . S
C450 N449 1.365 . S
C450 C452 1.405 . S
C450 C458 1.448 . S
C451 H446 0.931 . S
C451 C453 1.397 . S
C451 C454 1.367 . S
C452 C450 1.405 . S
C452 C454 1.403 . S
C452 C485 1.439 . S
C453 H438 0.930 . S
C453 N449 1.319 . S
C453 C451 1.397 . S
C454 C451 1.367 . S
C454 C452 1.403 . S
C454 H461 0.929 . S
N455 Eu420 2.562 . S
N455 C456 1.325 . S
N455 C458 1.351 . S
C456 H442 0.929 . S
C456 N455 1.325 . S
C456 C460 1.416 . S
C457 C458 1.430 . S
C457 C459 1.404 . S
C457 C486 1.387 . S
C458 C450 1.448 . S
C458 N455 1.351 . S
C458 C457 1.430 . S
C459 H448 0.930 . S
C459 C457 1.404 . S
C459 C460 1.366 . S
C460 H439 0.930 . S
C460 C456 1.416 . S
C460 C459 1.366 . S
H461 C454 0.929 . S
H462 C485 0.931 . S
H463 C486 0.931 . S
O464 Eu420 2.462 . S
O464 C484 1.252 . S
O465 Eu420 2.373 . S
O465 C476 1.249 . S
O466 Eu431 2.335 . S
O466 C476 1.264 . S
O467 Eu420 2.432 . S
O467 C484 1.268 . S
O468 Eu420 2.291 . S
O468 C483 1.255 . S
O469 Eu431 2.372 . S
O469 C483 1.257 . S
O470 Eu431 2.462 . S
O470 C495 1.252 . S
O471 Eu431 2.373 . S
O471 C487 1.249 . S
O472 Eu420 2.335 . S
O472 C487 1.264 . S
O473 Eu431 2.432 . S
O473 C495 1.268 . S
O474 Eu431 2.291 . S
O474 C494 1.255 . S
O475 Eu420 2.372 . S
O475 C494 1.257 . S
C476 O465 1.249 . S
C476 O466 1.264 . S
C477 C480 1.382 . S
C477 C482 1.390 . S
C477 C484 1.506 . S
C478 C479 1.398 . S
C478 C482 1.392 . S
C479 C478 1.398 . S
C479 C481 1.372 . S
C479 H496 0.931 . S
C480 C477 1.382 . S
C480 C481 1.390 . S
C480 H497 0.931 . S
C481 C479 1.372 . S
C481 C480 1.390 . S
C481 H498 0.929 . S
C482 C477 1.390 . S
C482 C478 1.392 . S
C482 H499 0.930 . S
C483 O468 1.255 . S
C483 O469 1.257 . S
C484 Eu420 2.787 . S
C484 O464 1.252 . S
C484 O467 1.268 . S
C484 C477 1.506 . S
C485 C452 1.439 . S
C485 H462 0.931 . S
C485 C486 1.374 . S
C486 C457 1.387 . S
C486 H463 0.931 . S
C486 C485 1.374 . S
C487 O471 1.249 . S
C487 O472 1.264 . S
C488 C491 1.382 . S
C488 C492 1.390 . S
C488 C495 1.506 . S
C489 C490 1.398 . S
C489 C492 1.392 . S
C490 C489 1.398 . S
C490 C493 1.372 . S
C490 H500 0.931 . S
C491 C488 1.382 . S
C491 C493 1.390 . S
C491 H501 0.931 . S
C492 C488 1.390 . S
C492 C489 1.392 . S
C492 H502 0.930 . S
C493 C490 1.372 . S
C493 C491 1.390 . S
C493 H503 0.929 . S
C494 O474 1.255 . S
C494 O475 1.257 . S
C495 Eu431 2.787 . S
C495 O470 1.252 . S
C495 O473 1.268 . S
C495 C488 1.506 . S
H496 C479 0.931 . S
H497 C480 0.931 . S
H498 C481 0.929 . S
H499 C482 0.930 . S
H500 C490 0.931 . S
H501 C491 0.931 . S
H502 C492 0.930 . S
H503 C493 0.929 . S
Eu504 N533 2.600 . S
Eu504 N539 2.562 . S
Eu504 O548 2.462 . S
Eu504 O549 2.373 . S
Eu504 O551 2.432 . S
Eu504 O552 2.291 . S
Eu504 O556 2.335 . S
Eu504 O559 2.372 . S
Eu504 C568 2.787 . S
C505 N506 1.365 . S
C505 C508 1.405 . S
C505 C512 1.448 . S
N506 C505 1.365 . S
N506 C509 1.319 . S
N506 Eu515 2.600 . S
C507 C509 1.397 . S
C507 C510 1.367 . S
C507 H527 0.931 . S
C508 C505 1.405 . S
C508 C510 1.403 . S
C508 C514 1.439 . S
C509 N506 1.319 . S
C509 C507 1.397 . S
C509 H520 0.930 . S
C510 C507 1.367 . S
C510 C508 1.403 . S
C510 H531 0.929 . S
C511 C512 1.430 . S
C511 C513 1.387 . S
C511 C517 1.404 . S
C512 C505 1.448 . S
C512 C511 1.430 . S
C512 N516 1.351 . S
C513 C511 1.387 . S
C513 C514 1.374 . S
C513 H528 0.931 . S
C514 C508 1.439 . S
C514 C513 1.374 . S
C514 H529 0.931 . S
Eu515 N506 2.600 . S
Eu515 N516 2.562 . S
Eu515 O550 2.335 . S
Eu515 O553 2.372 . S
Eu515 O554 2.462 . S
Eu515 O555 2.373 . S
Eu515 O557 2.432 . S
Eu515 O558 2.291 . S
Eu515 C579 2.787 . S
N516 C512 1.351 . S
N516 Eu515 2.562 . S
N516 C518 1.325 . S
C517 C511 1.404 . S
C517 C519 1.366 . S
C517 H525 0.930 . S
C518 N516 1.325 . S
C518 C519 1.416 . S
C518 H524 0.929 . S
C519 C517 1.366 . S
C519 C518 1.416 . S
C519 H521 0.930 . S
H520 C509 0.930 . S
H521 C519 0.930 . S
H522 C537 0.930 . S
H523 C544 0.930 . S
H524 C518 0.929 . S
H525 C517 0.930 . S
H526 C540 0.929 . S
H527 C507 0.931 . S
H528 C513 0.931 . S
H529 C514 0.931 . S
H530 C535 0.931 . S
H531 C510 0.929 . S
H532 C543 0.930 . S
N533 Eu504 2.600 . S
N533 C534 1.365 . S
N533 C537 1.319 . S
C534 N533 1.365 . S
C534 C536 1.405 . S
C534 C542 1.448 . S
C535 H530 0.931 . S
C535 C537 1.397 . S
C535 C538 1.367 . S
C536 C534 1.405 . S
C536 C538 1.403 . S
C536 C569 1.439 . S
C537 H522 0.930 . S
C537 N533 1.319 . S
C537 C535 1.397 . S
C538 C535 1.367 . S
C538 C536 1.403 . S
C538 H545 0.929 . S
N539 Eu504 2.562 . S
N539 C540 1.325 . S
N539 C542 1.351 . S
C540 H526 0.929 . S
C540 N539 1.325 . S
C540 C544 1.416 . S
C541 C542 1.430 . S
C541 C543 1.404 . S
C541 C570 1.387 . S
C542 C534 1.448 . S
C542 N539 1.351 . S
C542 C541 1.430 . S
C543 H532 0.930 . S
C543 C541 1.404 . S
C543 C544 1.366 . S
C544 H523 0.930 . S
C544 C540 1.416 . S
C544 C543 1.366 . S
H545 C538 0.929 . S
H546 C569 0.931 . S
H547 C570 0.931 . S
O548 Eu504 2.462 . S
O548 C568 1.252 . S
O549 Eu504 2.373 . S
O549 C560 1.249 . S
O550 Eu515 2.335 . S
O550 C560 1.264 . S
O551 Eu504 2.432 . S
O551 C568 1.268 . S
O552 Eu504 2.291 . S
O552 C567 1.255 . S
O553 Eu515 2.372 . S
O553 C567 1.257 . S
O554 Eu515 2.462 . S
O554 C579 1.252 . S
O555 Eu515 2.373 . S
O555 C571 1.249 . S
O556 Eu504 2.335 . S
O556 C571 1.264 . S
O557 Eu515 2.432 . S
O557 C579 1.268 . S
O558 Eu515 2.291 . S
O558 C578 1.255 . S
O559 Eu504 2.372 . S
O559 C578 1.257 . S
C560 O549 1.249 . S
C560 O550 1.264 . S
C561 C564 1.382 . S
C561 C566 1.390 . S
C561 C568 1.506 . S
C562 C563 1.398 . S
C562 C566 1.392 1_554 S
C563 C562 1.398 . S
C563 C565 1.372 . S
C563 H580 0.931 . S
C564 C561 1.382 . S
C564 C565 1.390 1_556 S
C564 H581 0.931 . S
C565 C563 1.372 . S
C565 C564 1.390 1_554 S
C565 H582 0.929 . S
C566 C561 1.390 . S
C566 C562 1.392 1_556 S
C566 H583 0.930 . S
C567 O552 1.255 . S
C567 O553 1.257 . S
C568 Eu504 2.787 . S
C568 O548 1.252 . S
C568 O551 1.268 . S
C568 C561 1.506 . S
C569 C536 1.439 . S
C569 H546 0.931 . S
C569 C570 1.374 . S
C570 C541 1.387 . S
C570 H547 0.931 . S
C570 C569 1.374 . S
C571 O555 1.249 . S
C571 O556 1.264 . S
C572 C575 1.382 . S
C572 C576 1.390 . S
C572 C579 1.506 . S
C573 C574 1.398 . S
C573 C576 1.392 . S
C574 C573 1.398 . S
C574 C577 1.372 . S
C574 H584 0.931 . S
C575 C572 1.382 . S
C575 C577 1.390 . S
C575 H585 0.931 . S
C576 C572 1.390 . S
C576 C573 1.392 . S
C576 H586 0.930 . S
C577 C574 1.372 . S
C577 C575 1.390 . S
C577 H587 0.929 . S
C578 O558 1.255 . S
C578 O559 1.257 . S
C579 Eu515 2.787 . S
C579 O554 1.252 . S
C579 O557 1.268 . S
C579 C572 1.506 . S
H580 C563 0.931 . S
H581 C564 0.931 . S
H582 C565 0.929 . S
H583 C566 0.930 . S
H584 C574 0.931 . S
H585 C575 0.931 . S
H586 C576 0.930 . S
H587 C577 0.929 . S
Eu588 N617 2.600 . S
Eu588 N623 2.562 . S
Eu588 O632 2.462 . S
Eu588 O633 2.373 . S
Eu588 O635 2.432 . S
Eu588 O636 2.291 . S
Eu588 O640 2.335 . S
Eu588 O643 2.372 . S
Eu588 C652 2.787 . S
C589 N590 1.365 . S
C589 C592 1.405 . S
C589 C596 1.448 . S
N590 C589 1.365 . S
N590 C593 1.319 . S
N590 Eu599 2.600 . S
C591 C593 1.397 . S
C591 C594 1.367 . S
C591 H611 0.931 . S
C592 C589 1.405 . S
C592 C594 1.403 . S
C592 C598 1.439 . S
C593 N590 1.319 . S
C593 C591 1.397 . S
C593 H604 0.930 . S
C594 C591 1.367 . S
C594 C592 1.403 . S
C594 H615 0.929 . S
C595 C596 1.430 . S
C595 C597 1.387 . S
C595 C601 1.404 . S
C596 C589 1.448 . S
C596 C595 1.430 . S
C596 N600 1.351 . S
C597 C595 1.387 . S
C597 C598 1.374 . S
C597 H612 0.931 . S
C598 C592 1.439 . S
C598 C597 1.374 . S
C598 H613 0.931 . S
Eu599 N590 2.600 . S
Eu599 N600 2.562 . S
Eu599 O634 2.335 . S
Eu599 O637 2.372 . S
Eu599 O638 2.462 . S
Eu599 O639 2.373 . S
Eu599 O641 2.432 . S
Eu599 O642 2.291 . S
Eu599 C663 2.787 . S
N600 C596 1.351 . S
N600 Eu599 2.562 . S
N600 C602 1.325 . S
C601 C595 1.404 . S
C601 C603 1.366 . S
C601 H609 0.930 . S
C602 N600 1.325 . S
C602 C603 1.416 . S
C602 H608 0.929 . S
C603 C601 1.366 . S
C603 C602 1.416 . S
C603 H605 0.930 . S
H604 C593 0.930 . S
H605 C603 0.930 . S
H606 C621 0.930 . S
H607 C628 0.930 . S
H608 C602 0.929 . S
H609 C601 0.930 . S
H610 C624 0.929 . S
H611 C591 0.931 . S
H612 C597 0.931 . S
H613 C598 0.931 . S
H614 C619 0.931 . S
H615 C594 0.929 . S
H616 C627 0.930 . S
N617 Eu588 2.600 . S
N617 C618 1.365 . S
N617 C621 1.319 . S
C618 N617 1.365 . S
C618 C620 1.405 . S
C618 C626 1.448 . S
C619 H614 0.931 . S
C619 C621 1.397 . S
C619 C622 1.367 . S
C620 C618 1.405 . S
C620 C622 1.403 . S
C620 C653 1.439 . S
C621 H606 0.930 . S
C621 N617 1.319 . S
C621 C619 1.397 . S
C622 C619 1.367 . S
C622 C620 1.403 . S
C622 H629 0.929 . S
N623 Eu588 2.562 . S
N623 C624 1.325 . S
N623 C626 1.351 . S
C624 H610 0.929 . S
C624 N623 1.325 . S
C624 C628 1.416 . S
C625 C626 1.430 . S
C625 C627 1.404 . S
C625 C654 1.387 . S
C626 C618 1.448 . S
C626 N623 1.351 . S
C626 C625 1.430 . S
C627 H616 0.930 . S
C627 C625 1.404 . S
C627 C628 1.366 . S
C628 H607 0.930 . S
C628 C624 1.416 . S
C628 C627 1.366 . S
H629 C622 0.929 . S
H630 C653 0.931 . S
H631 C654 0.931 . S
O632 Eu588 2.462 . S
O632 C652 1.252 . S
O633 Eu588 2.373 . S
O633 C644 1.249 . S
O634 Eu599 2.335 . S
O634 C644 1.264 . S
O635 Eu588 2.432 . S
O635 C652 1.268 . S
O636 Eu588 2.291 . S
O636 C651 1.255 . S
O637 Eu599 2.372 . S
O637 C651 1.257 . S
O638 Eu599 2.462 . S
O638 C663 1.252 . S
O639 Eu599 2.373 . S
O639 C655 1.249 . S
O640 Eu588 2.335 . S
O640 C655 1.264 . S
O641 Eu599 2.432 . S
O641 C663 1.268 . S
O642 Eu599 2.291 . S
O642 C662 1.255 . S
O643 Eu588 2.372 . S
O643 C662 1.257 . S
C644 O633 1.249 . S
C644 O634 1.264 . S
C645 C648 1.382 . S
C645 C650 1.390 . S
C645 C652 1.506 . S
C646 C647 1.398 . S
C646 C650 1.392 . S
C647 C646 1.398 . S
C647 C649 1.372 . S
C647 H664 0.931 . S
C648 C645 1.382 . S
C648 C649 1.390 . S
C648 H665 0.931 . S
C649 C647 1.372 . S
C649 C648 1.390 . S
C649 H666 0.929 . S
C650 C645 1.390 . S
C650 C646 1.392 . S
C650 H667 0.930 . S
C651 O636 1.255 . S
C651 O637 1.257 . S
C652 Eu588 2.787 . S
C652 O632 1.252 . S
C652 O635 1.268 . S
C652 C645 1.506 . S
C653 C620 1.439 . S
C653 H630 0.931 . S
C653 C654 1.374 . S
C654 C625 1.387 . S
C654 H631 0.931 . S
C654 C653 1.374 . S
C655 O639 1.249 . S
C655 O640 1.264 . S
C656 C659 1.382 . S
C656 C660 1.390 . S
C656 C663 1.506 . S
C657 C658 1.398 . S
C657 C660 1.392 1_554 S
C658 C657 1.398 . S
C658 C661 1.372 1_554 S
C658 H668 0.931 . S
C659 C656 1.382 . S
C659 C661 1.390 . S
C659 H669 0.931 . S
C660 C656 1.390 . S
C660 C657 1.392 1_556 S
C660 H670 0.930 . S
C661 C658 1.372 1_556 S
C661 C659 1.390 . S
C661 H671 0.929 1_556 S
C662 O642 1.255 . S
C662 O643 1.257 . S
C663 Eu599 2.787 . S
C663 O638 1.252 . S
C663 O641 1.268 . S
C663 C656 1.506 . S
H664 C647 0.931 . S
H665 C648 0.931 . S
H666 C649 0.929 . S
H667 C650 0.930 . S
H668 C658 0.931 . S
H669 C659 0.931 . S
H670 C660 0.930 . S
H671 C661 0.929 1_554 S
Eu672 N701 2.600 . S
Eu672 N707 2.562 . S
Eu672 O716 2.462 . S
Eu672 O717 2.373 . S
Eu672 O719 2.432 . S
Eu672 O720 2.291 . S
Eu672 O724 2.335 . S
Eu672 O727 2.372 . S
Eu672 C736 2.787 . S
C673 N674 1.365 . S
C673 C676 1.405 . S
C673 C680 1.448 . S
N674 C673 1.365 . S
N674 C677 1.319 . S
N674 Eu683 2.600 . S
C675 C677 1.397 . S
C675 C678 1.367 . S
C675 H695 0.931 . S
C676 C673 1.405 . S
C676 C678 1.403 . S
C676 C682 1.439 . S
C677 N674 1.319 . S
C677 C675 1.397 . S
C677 H688 0.930 . S
C678 C675 1.367 . S
C678 C676 1.403 . S
C678 H699 0.929 . S
C679 C680 1.430 . S
C679 C681 1.387 . S
C679 C685 1.404 . S
C680 C673 1.448 . S
C680 C679 1.430 . S
C680 N684 1.351 . S
C681 C679 1.387 . S
C681 C682 1.374 . S
C681 H696 0.931 . S
C682 C676 1.439 . S
C682 C681 1.374 . S
C682 H697 0.931 . S
Eu683 N674 2.600 . S
Eu683 N684 2.562 . S
Eu683 O718 2.335 . S
Eu683 O721 2.372 . S
Eu683 O722 2.462 . S
Eu683 O723 2.373 . S
Eu683 O725 2.432 . S
Eu683 O726 2.291 . S
Eu683 C747 2.787 . S
N684 C680 1.351 . S
N684 Eu683 2.562 . S
N684 C686 1.325 . S
C685 C679 1.404 . S
C685 C687 1.366 . S
C685 H693 0.930 . S
C686 N684 1.325 . S
C686 C687 1.416 . S
C686 H692 0.929 . S
C687 C685 1.366 . S
C687 C686 1.416 . S
C687 H689 0.930 . S
H688 C677 0.930 . S
H689 C687 0.930 . S
H690 C705 0.930 . S
H691 C712 0.930 . S
H692 C686 0.929 . S
H693 C685 0.930 . S
H694 C708 0.929 . S
H695 C675 0.931 . S
H696 C681 0.931 . S
H697 C682 0.931 . S
H698 C703 0.931 . S
H699 C678 0.929 . S
H700 C711 0.930 . S
N701 Eu672 2.600 . S
N701 C702 1.365 . S
N701 C705 1.319 . S
C702 N701 1.365 . S
C702 C704 1.405 . S
C702 C710 1.448 . S
C703 H698 0.931 . S
C703 C705 1.397 . S
C703 C706 1.367 . S
C704 C702 1.405 . S
C704 C706 1.403 . S
C704 C737 1.439 . S
C705 H690 0.930 . S
C705 N701 1.319 . S
C705 C703 1.397 . S
C706 C703 1.367 . S
C706 C704 1.403 . S
C706 H713 0.929 . S
N707 Eu672 2.562 . S
N707 C708 1.325 . S
N707 C710 1.351 . S
C708 H694 0.929 . S
C708 N707 1.325 . S
C708 C712 1.416 . S
C709 C710 1.430 . S
C709 C711 1.404 . S
C709 C738 1.387 . S
C710 C702 1.448 . S
C710 N707 1.351 . S
C710 C709 1.430 . S
C711 H700 0.930 . S
C711 C709 1.404 . S
C711 C712 1.366 . S
C712 H691 0.930 . S
C712 C708 1.416 . S
C712 C711 1.366 . S
H713 C706 0.929 . S
H714 C737 0.931 . S
H715 C738 0.931 . S
O716 Eu672 2.462 . S
O716 C736 1.252 . S
O717 Eu672 2.373 . S
O717 C728 1.249 . S
O718 Eu683 2.335 . S
O718 C728 1.264 . S
O719 Eu672 2.432 . S
O719 C736 1.268 . S
O720 Eu672 2.291 . S
O720 C735 1.255 . S
O721 Eu683 2.372 . S
O721 C735 1.257 . S
O722 Eu683 2.462 . S
O722 C747 1.252 . S
O723 Eu683 2.373 . S
O723 C739 1.249 . S
O724 Eu672 2.335 . S
O724 C739 1.264 . S
O725 Eu683 2.432 . S
O725 C747 1.268 . S
O726 Eu683 2.291 . S
O726 C746 1.255 . S
O727 Eu672 2.372 . S
O727 C746 1.257 . S
C728 O717 1.249 . S
C728 O718 1.264 . S
C729 C732 1.382 . S
C729 C734 1.390 . S
C729 C736 1.506 . S
C730 C731 1.398 . S
C730 C734 1.392 1_554 S
C731 C730 1.398 . S
C731 C733 1.372 . S
C731 H748 0.931 . S
C732 C729 1.382 . S
C732 C733 1.390 1_556 S
C732 H749 0.931 . S
C733 C731 1.372 . S
C733 C732 1.390 1_554 S
C733 H750 0.929 . S
C734 C729 1.390 . S
C734 C730 1.392 1_556 S
C734 H751 0.930 . S
C735 O720 1.255 . S
C735 O721 1.257 . S
C736 Eu672 2.787 . S
C736 O716 1.252 . S
C736 O719 1.268 . S
C736 C729 1.506 . S
C737 C704 1.439 . S
C737 H714 0.931 . S
C737 C738 1.374 . S
C738 C709 1.387 . S
C738 H715 0.931 . S
C738 C737 1.374 . S
C739 O723 1.249 . S
C739 O724 1.264 . S
C740 C743 1.382 . S
C740 C744 1.390 . S
C740 C747 1.506 . S
C741 C742 1.398 . S
C741 C744 1.392 . S
C742 C741 1.398 . S
C742 C745 1.372 . S
C742 H752 0.931 . S
C743 C740 1.382 . S
C743 C745 1.390 . S
C743 H753 0.931 . S
C744 C740 1.390 . S
C744 C741 1.392 . S
C744 H754 0.930 . S
C745 C742 1.372 . S
C745 C743 1.390 . S
C745 H755 0.929 . S
C746 O726 1.255 . S
C746 O727 1.257 . S
C747 Eu683 2.787 . S
C747 O722 1.252 . S
C747 O725 1.268 . S
C747 C740 1.506 . S
H748 C731 0.931 . S
H749 C732 0.931 . S
H750 C733 0.929 . S
H751 C734 0.930 . S
H752 C742 0.931 . S
H753 C743 0.931 . S
H754 C744 0.930 . S
H755 C745 0.929 . S
C756 C757 1.349 . S
C756 C758 1.327 . S
C756 H781 0.950 . S
C757 C756 1.349 . S
C757 C773 1.349 . S
C758 C756 1.327 . S
C758 C777 1.429 . S
C758 H782 0.950 . S
C759 C776 1.574 1_455 S
C759 C778 1.371 . S
C759 H783 0.946 1_455 S
H760 C764 0.949 . S
C761 C762 1.367 . S
C761 C763 1.325 . S
C761 H784 0.937 1_455 S
C762 C761 1.367 . S
C762 C774 1.349 . S
C763 C761 1.325 . S
C763 C779 1.435 . S
C763 H785 0.940 1_455 S
C764 H760 0.949 . S
C764 C772 1.574 . S
C764 C780 1.368 . S
H765 C773 0.950 1_655 S
H766 C771 0.950 1_655 S
H767 C772 0.949 . S
H768 C774 0.950 . S
H769 C775 0.950 . S
H770 C776 0.948 . S
C771 H766 0.950 1_455 S
C771 C773 1.327 . S
C771 C777 1.429 . S
C772 C764 1.574 . S
C772 H767 0.949 . S
C772 C778 1.368 . S
C773 C757 1.349 . S
C773 H765 0.950 1_455 S
C773 C771 1.327 . S
C774 C762 1.349 . S
C774 H768 0.950 . S
C774 C775 1.327 . S
C775 H769 0.950 . S
C775 C774 1.327 . S
C775 C779 1.429 . S
C776 C759 1.574 1_655 S
C776 H770 0.948 . S
C776 C780 1.370 1_655 S
C777 C758 1.429 . S
C777 C771 1.429 . S
C777 C778 1.523 . S
C778 C759 1.371 . S
C778 C772 1.368 . S
C778 C777 1.523 . S
C779 C763 1.435 . S
C779 C775 1.429 . S
C779 C780 1.523 . S
C780 C764 1.368 . S
C780 C776 1.370 1_455 S
C780 C779 1.523 . S
H781 C756 0.950 . S
H782 C758 0.950 . S
H783 C759 0.946 1_655 S
H784 C761 0.937 1_655 S
H785 C763 0.940 1_655 S
C786 C787 1.349 . S
C786 C788 1.327 . S
C786 H811 0.950 . S
C787 C786 1.349 . S
C787 C803 1.349 . S
C788 C786 1.327 . S
C788 C807 1.429 . S
C788 H812 0.950 . S
C789 C806 1.574 . S
C789 C808 1.368 . S
C789 H813 0.949 . S
H790 C794 0.949 . S
C791 C792 1.349 . S
C791 C793 1.327 . S
C791 H814 0.950 . S
C792 C791 1.349 . S
C792 C804 1.349 . S
C793 C791 1.327 . S
C793 C809 1.429 . S
C793 H815 0.950 . S
C794 H790 0.949 . S
C794 C802 1.574 . S
C794 C810 1.368 . S
H795 C803 0.950 . S
H796 C801 0.950 . S
H797 C802 0.949 . S
H798 C804 0.950 . S
H799 C805 0.950 . S
H800 C806 0.949 . S
C801 H796 0.950 . S
C801 C803 1.327 . S
C801 C807 1.429 . S
C802 C794 1.574 . S
C802 H797 0.949 . S
C802 C808 1.368 . S
C803 C787 1.349 . S
C803 H795 0.950 . S
C803 C801 1.327 . S
C804 C792 1.349 . S
C804 H798 0.950 . S
C804 C805 1.327 . S
C805 H799 0.950 . S
C805 C804 1.327 . S
C805 C809 1.429 . S
C806 C789 1.574 . S
C806 H800 0.949 . S
C806 C810 1.368 . S
C807 C788 1.429 . S
C807 C801 1.429 . S
C807 C808 1.523 . S
C808 C789 1.368 . S
C808 C802 1.368 . S
C808 C807 1.523 . S
C809 C793 1.429 . S
C809 C805 1.429 . S
C809 C810 1.523 . S
C810 C794 1.368 . S
C810 C806 1.368 . S
C810 C809 1.523 . S
H811 C786 0.950 . S
H812 C788 0.950 . S
H813 C789 0.949 . S
H814 C791 0.950 . S
H815 C793 0.950 . S
C816 C817 1.349 . S
C816 C818 1.327 . S
C816 H841 0.950 . S
C817 C816 1.349 . S
C817 C833 1.349 . S
C818 C816 1.327 . S
C818 C837 1.429 . S
C818 H842 0.950 . S
C819 C836 1.574 . S
C819 C838 1.368 . S
C819 H843 0.949 . S
H820 C824 0.949 . S
C821 C822 1.349 . S
C821 C823 1.327 . S
C821 H844 0.950 . S
C822 C821 1.349 . S
C822 C834 1.349 . S
C823 C821 1.327 . S
C823 C839 1.429 . S
C823 H845 0.950 . S
C824 H820 0.949 . S
C824 C832 1.574 . S
C824 C840 1.368 . S
H825 C833 0.950 . S
H826 C831 0.950 . S
H827 C832 0.949 . S
H828 C834 0.950 . S
H829 C835 0.950 . S
H830 C836 0.949 . S
C831 H826 0.950 . S
C831 C833 1.327 . S
C831 C837 1.429 . S
C832 C824 1.574 . S
C832 H827 0.949 . S
C832 C838 1.368 . S
C833 C817 1.349 . S
C833 H825 0.950 . S
C833 C831 1.327 . S
C834 C822 1.349 . S
C834 H828 0.950 . S
C834 C835 1.327 . S
C835 H829 0.950 . S
C835 C834 1.327 . S
C835 C839 1.429 . S
C836 C819 1.574 . S
C836 H830 0.949 . S
C836 C840 1.368 . S
C837 C818 1.429 . S
C837 C831 1.429 . S
C837 C838 1.523 . S
C838 C819 1.368 . S
C838 C832 1.368 . S
C838 C837 1.523 . S
C839 C823 1.429 . S
C839 C835 1.429 . S
C839 C840 1.523 . S
C840 C824 1.368 . S
C840 C836 1.368 . S
C840 C839 1.523 . S
H841 C816 0.950 . S
H842 C818 0.950 . S
H843 C819 0.949 . S
H844 C821 0.950 . S
H845 C823 0.950 . S
C846 C847 1.349 . S
C846 C848 1.327 . S
C846 H871 0.950 . S
C847 C846 1.349 . S
C847 C863 1.349 . S
C848 C846 1.327 . S
C848 C867 1.429 . S
C848 H872 0.950 . S
C849 C866 1.574 . S
C849 C868 1.368 . S
C849 H873 0.949 . S
H850 C854 0.949 . S
C851 C852 1.349 . S
C851 C853 1.327 . S
C851 H874 0.950 . S
C852 C851 1.349 . S
C852 C864 1.349 . S
C853 C851 1.327 . S
C853 C869 1.429 . S
C853 H875 0.950 . S
C854 H850 0.949 . S
C854 C862 1.574 . S
C854 C870 1.368 . S
H855 C863 0.950 . S
H856 C861 0.950 . S
H857 C862 0.949 . S
H858 C864 0.950 . S
H859 C865 0.950 . S
H860 C866 0.949 . S
C861 H856 0.950 . S
C861 C863 1.327 . S
C861 C867 1.429 . S
C862 C854 1.574 . S
C862 H857 0.949 . S
C862 C868 1.368 . S
C863 C847 1.349 . S
C863 H855 0.950 . S
C863 C861 1.327 . S
C864 C852 1.349 . S
C864 H858 0.950 . S
C864 C865 1.327 . S
C865 H859 0.950 . S
C865 C864 1.327 . S
C865 C869 1.429 . S
C866 C849 1.574 . S
C866 H860 0.949 . S
C866 C870 1.368 . S
C867 C848 1.429 . S
C867 C861 1.429 . S
C867 C868 1.523 . S
C868 C849 1.368 . S
C868 C862 1.368 . S
C868 C867 1.523 . S
C869 C853 1.429 . S
C869 C865 1.429 . S
C869 C870 1.523 . S
C870 C854 1.368 . S
C870 C866 1.368 . S
C870 C869 1.523 . S
H871 C846 0.950 . S
H872 C848 0.950 . S
H873 C849 0.949 . S
H874 C851 0.950 . S
H875 C853 0.950 . S
C876 C877 1.349 . S
C876 C878 1.327 . S
C876 H901 0.950 . S
C877 C876 1.349 . S
C877 C893 1.349 . S
C878 C876 1.327 . S
C878 C897 1.429 . S
C878 H902 0.950 . S
C879 C896 1.574 . S
C879 C898 1.368 . S
C879 H903 0.949 . S
H880 C884 0.949 . S
C881 C882 1.349 1_556 S
C881 C883 1.327 . S
C881 H904 0.950 1_556 S
C882 C881 1.349 1_554 S
C882 C894 1.349 . S
C883 C881 1.327 . S
C883 C899 1.429 . S
C883 H905 0.950 . S
C884 H880 0.949 . S
C884 C892 1.574 . S
C884 C900 1.368 . S
H885 C893 0.950 . S
H886 C891 0.950 . S
H887 C892 0.949 . S
H888 C894 0.950 . S
H889 C895 0.950 . S
H890 C896 0.949 . S
C891 H886 0.950 . S
C891 C893 1.327 . S
C891 C897 1.429 . S
C892 C884 1.574 . S
C892 H887 0.949 . S
C892 C898 1.368 . S
C893 C877 1.349 . S
C893 H885 0.950 . S
C893 C891 1.327 . S
C894 C882 1.349 . S
C894 H888 0.950 . S
C894 C895 1.327 1_554 S
C895 H889 0.950 . S
C895 C894 1.327 1_556 S
C895 C899 1.429 . S
C896 C879 1.574 . S
C896 H890 0.949 . S
C896 C900 1.368 . S
C897 C878 1.429 . S
C897 C891 1.429 . S
C897 C898 1.523 . S
C898 C879 1.368 . S
C898 C892 1.368 . S
C898 C897 1.523 . S
C899 C883 1.429 . S
C899 C895 1.429 . S
C899 C900 1.523 . S
C900 C884 1.368 . S
C900 C896 1.368 . S
C900 C899 1.523 . S
H901 C876 0.950 . S
H902 C878 0.950 . S
H903 C879 0.949 . S
H904 C881 0.950 1_554 S
H905 C883 0.950 . S
C906 C907 1.349 . S
C906 C908 1.327 . S
C906 H931 0.950 . S
C907 C906 1.349 . S
C907 C923 1.349 . S
C908 C906 1.327 . S
C908 C927 1.429 . S
C908 H932 0.950 . S
C909 C926 1.574 . S
C909 C928 1.368 . S
C909 H933 0.949 . S
H910 C914 0.949 . S
C911 C912 1.349 . S
C911 C913 1.327 . S
C911 H934 0.950 . S
C912 C911 1.349 . S
C912 C924 1.349 . S
C913 C911 1.327 . S
C913 C929 1.429 1_554 S
C913 H935 0.950 1_554 S
C914 H910 0.949 . S
C914 C922 1.574 . S
C914 C930 1.368 . S
H915 C923 0.950 . S
H916 C921 0.950 . S
H917 C922 0.949 . S
H918 C924 0.950 . S
H919 C925 0.950 . S
H920 C926 0.949 . S
C921 H916 0.950 . S
C921 C923 1.327 . S
C921 C927 1.429 . S
C922 C914 1.574 . S
C922 H917 0.949 . S
C922 C928 1.368 . S
C923 C907 1.349 . S
C923 H915 0.950 . S
C923 C921 1.327 . S
C924 C912 1.349 . S
C924 H918 0.950 . S
C924 C925 1.327 1_554 S
C925 H919 0.950 . S
C925 C924 1.327 1_556 S
C925 C929 1.429 . S
C926 C909 1.574 . S
C926 H920 0.949 . S
C926 C930 1.368 . S
C927 C908 1.429 . S
C927 C921 1.429 . S
C927 C928 1.523 . S
C928 C909 1.368 . S
C928 C922 1.368 . S
C928 C927 1.523 . S
C929 C913 1.429 1_556 S
C929 C925 1.429 . S
C929 C930 1.523 . S
C930 C914 1.368 . S
C930 C926 1.368 . S
C930 C929 1.523 . S
H931 C906 0.950 . S
H932 C908 0.950 . S
H933 C909 0.949 . S
H934 C911 0.950 . S
H935 C913 0.950 1_556 S
C936 C937 1.349 . S
C936 C938 1.327 . S
C936 H961 0.950 . S
C937 C936 1.349 . S
C937 C953 1.349 . S
C938 C936 1.327 . S
C938 C957 1.429 . S
C938 H962 0.950 . S
C939 C956 1.574 . S
C939 C958 1.368 . S
C939 H963 0.949 . S
H940 C944 0.949 . S
C941 C942 1.349 1_554 S
C941 C943 1.327 . S
C941 H964 0.950 . S
C942 C941 1.349 1_556 S
C942 C954 1.349 . S
C943 C941 1.327 . S
C943 C959 1.429 . S
C943 H965 0.950 . S
C944 H940 0.949 . S
C944 C952 1.574 . S
C944 C960 1.368 . S
H945 C953 0.950 . S
H946 C951 0.950 . S
H947 C952 0.949 . S
H948 C954 0.950 . S
H949 C955 0.950 . S
H950 C956 0.949 . S
C951 H946 0.950 . S
C951 C953 1.327 . S
C951 C957 1.429 . S
C952 C944 1.574 . S
C952 H947 0.949 . S
C952 C958 1.368 . S
C953 C937 1.349 . S
C953 H945 0.950 . S
C953 C951 1.327 . S
C954 C942 1.349 . S
C954 H948 0.950 . S
C954 C955 1.327 1_556 S
C955 H949 0.950 . S
C955 C954 1.327 1_554 S
C955 C959 1.429 . S
C956 C939 1.574 . S
C956 H950 0.949 . S
C956 C960 1.368 . S
C957 C938 1.429 . S
C957 C951 1.429 . S
C957 C958 1.523 . S
C958 C939 1.368 . S
C958 C952 1.368 . S
C958 C957 1.523 . S
C959 C943 1.429 . S
C959 C955 1.429 . S
C959 C960 1.523 . S
C960 C944 1.368 . S
C960 C956 1.368 . S
C960 C959 1.523 . S
H961 C936 0.950 . S
H962 C938 0.950 . S
H963 C939 0.949 . S
H964 C941 0.950 . S
H965 C943 0.950 . S
C966 C967 1.349 . S
C966 C968 1.327 . S
C966 H991 0.950 . S
C967 C966 1.349 . S
C967 C983 1.349 . S
C968 C966 1.327 . S
C968 C987 1.429 . S
C968 H992 0.950 . S
C969 C986 1.574 . S
C969 C988 1.368 . S
C969 H993 0.949 . S
H970 C974 0.949 . S
C971 C972 1.349 . S
C971 C973 1.327 1_556 S
C971 H994 0.950 . S
C972 C971 1.349 . S
C972 C984 1.349 . S
C973 C971 1.327 1_554 S
C973 C989 1.429 . S
C973 H995 0.950 . S
C974 H970 0.949 . S
C974 C982 1.574 . S
C974 C990 1.368 . S
H975 C983 0.950 . S
H976 C981 0.950 . S
H977 C982 0.949 . S
H978 C984 0.950 . S
H979 C985 0.950 . S
H980 C986 0.949 . S
C981 H976 0.950 . S
C981 C983 1.327 . S
C981 C987 1.429 . S
C982 C974 1.574 . S
C982 H977 0.949 . S
C982 C988 1.368 . S
C983 C967 1.349 . S
C983 H975 0.950 . S
C983 C981 1.327 . S
C984 C972 1.349 . S
C984 H978 0.950 . S
C984 C985 1.327 1_556 S
C985 H979 0.950 . S
C985 C984 1.327 1_554 S
C985 C989 1.429 . S
C986 C969 1.574 . S
C986 H980 0.949 . S
C986 C990 1.368 . S
C987 C968 1.429 . S
C987 C981 1.429 . S
C987 C988 1.523 . S
C988 C969 1.368 . S
C988 C982 1.368 . S
C988 C987 1.523 . S
C989 C973 1.429 . S
C989 C985 1.429 . S
C989 C990 1.523 . S
C990 C974 1.368 . S
C990 C986 1.368 . S
C990 C989 1.523 . S
H991 C966 0.950 . S
H992 C968 0.950 . S
H993 C969 0.949 . S
H994 C971 0.950 . S
H995 C973 0.950 . S
C996 C997 1.349 . S
C996 C998 1.327 . S
C996 H1021 0.950 . S
C997 C996 1.349 . S
C997 C1013 1.349 . S
C998 C996 1.327 . S
C998 C1017 1.429 . S
C998 H1022 0.950 . S
C999 C1016 1.574 . S
C999 C1018 1.368 . S
C999 H1023 0.949 . S
H1000 C1004 0.949 . S
C1001 C1002 1.349 . S
C1001 C1003 1.327 1_556 S
C1001 H1024 0.950 . S
C1002 C1001 1.349 . S
C1002 C1014 1.349 1_556 S
C1003 C1001 1.327 1_554 S
C1003 C1019 1.429 . S
C1003 H1025 0.950 . S
C1004 H1000 0.949 . S
C1004 C1012 1.574 . S
C1004 C1020 1.368 . S
H1005 C1013 0.950 . S
H1006 C1011 0.950 . S
H1007 C1012 0.949 . S
H1008 C1014 0.950 . S
H1009 C1015 0.950 . S
H1010 C1016 0.949 . S
C1011 H1006 0.950 . S
C1011 C1013 1.327 . S
C1011 C1017 1.429 . S
C1012 C1004 1.574 . S
C1012 H1007 0.949 . S
C1012 C1018 1.368 . S
C1013 C997 1.349 . S
C1013 H1005 0.950 . S
C1013 C1011 1.327 . S
C1014 C1002 1.349 1_554 S
C1014 H1008 0.950 . S
C1014 C1015 1.327 . S
C1015 H1009 0.950 . S
C1015 C1014 1.327 . S
C1015 C1019 1.429 . S
C1016 C999 1.574 . S
C1016 H1010 0.949 . S
C1016 C1020 1.368 . S
C1017 C998 1.429 . S
C1017 C1011 1.429 . S
C1017 C1018 1.523 . S
C1018 C999 1.368 . S
C1018 C1012 1.368 . S
C1018 C1017 1.523 . S
C1019 C1003 1.429 . S
C1019 C1015 1.429 . S
C1019 C1020 1.523 . S
C1020 C1004 1.368 . S
C1020 C1016 1.368 . S
C1020 C1019 1.523 . S
H1021 C996 0.950 . S
H1022 C998 0.950 . S
H1023 C999 0.949 . S
H1024 C1001 0.950 . S
H1025 C1003 0.950 . S
C1026 C1027 1.349 . S
C1026 C1028 1.327 . S
C1026 H1051 0.950 . S
C1027 C1026 1.349 . S
C1027 C1043 1.349 . S
C1028 C1026 1.327 . S
C1028 C1047 1.429 . S
C1028 H1052 0.950 . S
C1029 C1046 1.574 . S
C1029 C1048 1.368 . S
C1029 H1053 0.949 . S
H1030 C1034 0.949 . S
C1031 C1032 1.349 . S
C1031 C1033 1.327 . S
C1031 H1054 0.950 . S
C1032 C1031 1.349 . S
C1032 C1044 1.349 . S
C1033 C1031 1.327 . S
C1033 C1049 1.429 . S
C1033 H1055 0.950 . S
C1034 H1030 0.949 . S
C1034 C1042 1.574 . S
C1034 C1050 1.368 . S
H1035 C1043 0.950 . S
H1036 C1041 0.950 . S
H1037 C1042 0.949 . S
H1038 C1044 0.950 . S
H1039 C1045 0.950 . S
H1040 C1046 0.949 . S
C1041 H1036 0.950 . S
C1041 C1043 1.327 . S
C1041 C1047 1.429 . S
C1042 C1034 1.574 . S
C1042 H1037 0.949 . S
C1042 C1048 1.368 . S
C1043 C1027 1.349 . S
C1043 H1035 0.950 . S
C1043 C1041 1.327 . S
C1044 C1032 1.349 . S
C1044 H1038 0.950 . S
C1044 C1045 1.327 . S
C1045 H1039 0.950 . S
C1045 C1044 1.327 . S
C1045 C1049 1.429 . S
C1046 C1029 1.574 . S
C1046 H1040 0.949 . S
C1046 C1050 1.368 . S
C1047 C1028 1.429 . S
C1047 C1041 1.429 . S
C1047 C1048 1.523 . S
C1048 C1029 1.368 . S
C1048 C1042 1.368 . S
C1048 C1047 1.523 . S
C1049 C1033 1.429 . S
C1049 C1045 1.429 . S
C1049 C1050 1.523 . S
C1050 C1034 1.368 . S
C1050 C1046 1.368 . S
C1050 C1049 1.523 . S
H1051 C1026 0.950 . S
H1052 C1028 0.950 . S
H1053 C1029 0.949 . S
H1054 C1031 0.950 . S
H1055 C1033 0.950 . S
C1056 C1057 1.349 . S
C1056 C1058 1.327 . S
C1056 H1081 0.950 . S
C1057 C1056 1.349 . S
C1057 C1073 1.349 . S
C1058 C1056 1.327 . S
C1058 C1077 1.429 . S
C1058 H1082 0.950 . S
C1059 C1076 1.574 . S
C1059 C1078 1.368 . S
C1059 H1083 0.949 . S
H1060 C1064 0.949 . S
C1061 C1062 1.349 . S
C1061 C1063 1.327 . S
C1061 H1084 0.950 . S
C1062 C1061 1.349 . S
C1062 C1074 1.349 . S
C1063 C1061 1.327 . S
C1063 C1079 1.429 . S
C1063 H1085 0.950 . S
C1064 H1060 0.949 . S
C1064 C1072 1.574 . S
C1064 C1080 1.368 . S
H1065 C1073 0.950 . S
H1066 C1071 0.950 . S
H1067 C1072 0.949 . S
H1068 C1074 0.950 . S
H1069 C1075 0.950 . S
H1070 C1076 0.949 . S
C1071 H1066 0.950 . S
C1071 C1073 1.327 . S
C1071 C1077 1.429 . S
C1072 C1064 1.574 . S
C1072 H1067 0.949 . S
C1072 C1078 1.368 . S
C1073 C1057 1.349 . S
C1073 H1065 0.950 . S
C1073 C1071 1.327 . S
C1074 C1062 1.349 . S
C1074 H1068 0.950 . S
C1074 C1075 1.327 . S
C1075 H1069 0.950 . S
C1075 C1074 1.327 . S
C1075 C1079 1.429 . S
C1076 C1059 1.574 . S
C1076 H1070 0.949 . S
C1076 C1080 1.368 . S
C1077 C1058 1.429 . S
C1077 C1071 1.429 . S
C1077 C1078 1.523 . S
C1078 C1059 1.368 . S
C1078 C1072 1.368 . S
C1078 C1077 1.523 . S
C1079 C1063 1.429 . S
C1079 C1075 1.429 . S
C1079 C1080 1.523 . S
C1080 C1064 1.368 . S
C1080 C1076 1.368 . S
C1080 C1079 1.523 . S
H1081 C1056 0.950 . S
H1082 C1058 0.950 . S
H1083 C1059 0.949 . S
H1084 C1061 0.950 . S
H1085 C1063 0.950 . S
C1086 C1087 1.349 . S
C1086 C1088 1.327 . S
C1086 H1111 0.950 . S
C1087 C1086 1.349 . S
C1087 C1103 1.349 1_565 S
C1088 C1086 1.327 . S
C1088 C1107 1.429 . S
C1088 H1112 0.950 . S
C1089 C1106 1.574 . S
C1089 C1108 1.368 . S
C1089 H1113 0.949 . S
H1090 C1094 0.949 . S
C1091 C1092 1.349 . S
C1091 C1093 1.327 . S
C1091 H1114 0.950 . S
C1092 C1091 1.349 . S
C1092 C1104 1.349 . S
C1093 C1091 1.327 . S
C1093 C1109 1.429 . S
C1093 H1115 0.950 . S
C1094 H1090 0.949 . S
C1094 C1102 1.574 . S
C1094 C1110 1.368 . S
H1095 C1103 0.950 . S
H1096 C1101 0.950 1_545 S
H1097 C1102 0.949 . S
H1098 C1104 0.950 . S
H1099 C1105 0.950 . S
H1100 C1106 0.949 . S
C1101 H1096 0.950 1_565 S
C1101 C1103 1.327 1_565 S
C1101 C1107 1.429 . S
C1102 C1094 1.574 . S
C1102 H1097 0.949 . S
C1102 C1108 1.368 . S
C1103 C1087 1.349 1_545 S
C1103 H1095 0.950 . S
C1103 C1101 1.327 1_545 S
C1104 C1092 1.349 . S
C1104 H1098 0.950 . S
C1104 C1105 1.327 . S
C1105 H1099 0.950 . S
C1105 C1104 1.327 . S
C1105 C1109 1.429 . S
C1106 C1089 1.574 . S
C1106 H1100 0.949 . S
C1106 C1110 1.368 . S
C1107 C1088 1.429 . S
C1107 C1101 1.429 . S
C1107 C1108 1.523 . S
C1108 C1089 1.368 . S
C1108 C1102 1.368 . S
C1108 C1107 1.523 . S
C1109 C1093 1.429 . S
C1109 C1105 1.429 . S
C1109 C1110 1.523 . S
C1110 C1094 1.368 . S
C1110 C1106 1.368 . S
C1110 C1109 1.523 . S
H1111 C1086 0.950 . S
H1112 C1088 0.950 . S
H1113 C1089 0.949 . S
H1114 C1091 0.950 . S
H1115 C1093 0.950 . S
C1116 C1117 1.349 . S
C1116 C1118 1.327 . S
C1116 H1141 0.950 . S
C1117 C1116 1.349 . S
C1117 C1133 1.349 . S
C1118 C1116 1.327 . S
C1118 C1137 1.429 . S
C1118 H1142 0.950 . S
C1119 C1136 1.574 . S
C1119 C1138 1.368 . S
C1119 H1143 0.949 . S
H1120 C1124 0.949 . S
C1121 C1122 1.349 . S
C1121 C1123 1.327 . S
C1121 H1144 0.950 . S
C1122 C1121 1.349 . S
C1122 C1134 1.349 . S
C1123 C1121 1.327 . S
C1123 C1139 1.429 . S
C1123 H1145 0.950 . S
C1124 H1120 0.949 . S
C1124 C1132 1.574 . S
C1124 C1140 1.368 . S
H1125 C1133 0.950 . S
H1126 C1131 0.950 . S
H1127 C1132 0.949 . S
H1128 C1134 0.950 . S
H1129 C1135 0.950 . S
H1130 C1136 0.949 . S
C1131 H1126 0.950 . S
C1131 C1133 1.327 . S
C1131 C1137 1.429 . S
C1132 C1124 1.574 . S
C1132 H1127 0.949 . S
C1132 C1138 1.368 . S
C1133 C1117 1.349 . S
C1133 H1125 0.950 . S
C1133 C1131 1.327 . S
C1134 C1122 1.349 . S
C1134 H1128 0.950 . S
C1134 C1135 1.327 . S
C1135 H1129 0.950 . S
C1135 C1134 1.327 . S
C1135 C1139 1.429 . S
C1136 C1119 1.574 . S
C1136 H1130 0.949 . S
C1136 C1140 1.368 . S
C1137 C1118 1.429 . S
C1137 C1131 1.429 . S
C1137 C1138 1.523 . S
C1138 C1119 1.368 . S
C1138 C1132 1.368 . S
C1138 C1137 1.523 . S
C1139 C1123 1.429 . S
C1139 C1135 1.429 . S
C1139 C1140 1.523 . S
C1140 C1124 1.368 . S
C1140 C1136 1.368 . S
C1140 C1139 1.523 . S
H1141 C1116 0.950 . S
H1142 C1118 0.950 . S
H1143 C1119 0.949 . S
H1144 C1121 0.950 . S
H1145 C1123 0.950 . S
C1146 C1147 1.349 . S
C1146 C1148 1.327 . S
C1146 H1171 0.950 . S
C1147 C1146 1.349 . S
C1147 C1163 1.349 . S
C1148 C1146 1.327 . S
C1148 C1167 1.429 . S
C1148 H1172 0.950 . S
C1149 C1166 1.574 . S
C1149 C1168 1.368 . S
C1149 H1173 0.949 . S
H1150 C1154 0.949 . S
C1151 C1152 1.349 . S
C1151 C1153 1.327 . S
C1151 H1174 0.950 . S
C1152 C1151 1.349 . S
C1152 C1164 1.349 . S
C1153 C1151 1.327 . S
C1153 C1169 1.429 . S
C1153 H1175 0.950 . S
C1154 H1150 0.949 . S
C1154 C1162 1.574 . S
C1154 C1170 1.368 . S
H1155 C1163 0.950 . S
H1156 C1161 0.950 . S
H1157 C1162 0.949 . S
H1158 C1164 0.950 . S
H1159 C1165 0.950 . S
H1160 C1166 0.949 1_554 S
C1161 H1156 0.950 . S
C1161 C1163 1.327 . S
C1161 C1167 1.429 . S
C1162 C1154 1.574 . S
C1162 H1157 0.949 . S
C1162 C1168 1.368 . S
C1163 C1147 1.349 . S
C1163 H1155 0.950 . S
C1163 C1161 1.327 . S
C1164 C1152 1.349 . S
C1164 H1158 0.950 . S
C1164 C1165 1.327 1_554 S
C1165 H1159 0.950 . S
C1165 C1164 1.327 1_556 S
C1165 C1169 1.429 1_556 S
C1166 C1149 1.574 . S
C1166 H1160 0.949 1_556 S
C1166 C1170 1.368 . S
C1167 C1148 1.429 . S
C1167 C1161 1.429 . S
C1167 C1168 1.523 . S
C1168 C1149 1.368 . S
C1168 C1162 1.368 . S
C1168 C1167 1.523 . S
C1169 C1153 1.429 . S
C1169 C1165 1.429 1_554 S
C1169 C1170 1.523 1_554 S
C1170 C1154 1.368 . S
C1170 C1166 1.368 . S
C1170 C1169 1.523 1_556 S
H1171 C1146 0.950 . S
H1172 C1148 0.950 . S
H1173 C1149 0.949 . S
H1174 C1151 0.950 . S
H1175 C1153 0.950 . S
C1176 C1177 1.349 . S
C1176 C1178 1.327 . S
C1176 H1201 0.950 . S
C1177 C1176 1.349 . S
C1177 C1193 1.349 . S
C1178 C1176 1.327 . S
C1178 C1197 1.429 . S
C1178 H1202 0.950 . S
C1179 C1196 1.574 . S
C1179 C1198 1.368 . S
C1179 H1203 0.949 . S
H1180 C1184 0.949 . S
C1181 C1182 1.349 . S
C1181 C1183 1.327 . S
C1181 H1204 0.950 . S
C1182 C1181 1.349 . S
C1182 C1194 1.349 . S
C1183 C1181 1.327 . S
C1183 C1199 1.429 . S
C1183 H1205 0.950 . S
C1184 H1180 0.949 . S
C1184 C1192 1.574 . S
C1184 C1200 1.368 . S
H1185 C1193 0.950 . S
H1186 C1191 0.950 . S
H1187 C1192 0.949 . S
H1188 C1194 0.950 . S
H1189 C1195 0.950 . S
H1190 C1196 0.949 . S
C1191 H1186 0.950 . S
C1191 C1193 1.327 . S
C1191 C1197 1.429 . S
C1192 C1184 1.574 . S
C1192 H1187 0.949 . S
C1192 C1198 1.368 . S
C1193 C1177 1.349 . S
C1193 H1185 0.950 . S
C1193 C1191 1.327 . S
C1194 C1182 1.349 . S
C1194 H1188 0.950 . S
C1194 C1195 1.327 . S
C1195 H1189 0.950 . S
C1195 C1194 1.327 . S
C1195 C1199 1.429 . S
C1196 C1179 1.574 . S
C1196 H1190 0.949 . S
C1196 C1200 1.368 . S
C1197 C1178 1.429 . S
C1197 C1191 1.429 . S
C1197 C1198 1.523 . S
C1198 C1179 1.368 . S
C1198 C1192 1.368 . S
C1198 C1197 1.523 . S
C1199 C1183 1.429 . S
C1199 C1195 1.429 . S
C1199 C1200 1.523 . S
C1200 C1184 1.368 . S
C1200 C1196 1.368 . S
C1200 C1199 1.523 . S
H1201 C1176 0.950 . S
H1202 C1178 0.950 . S
H1203 C1179 0.949 . S
H1204 C1181 0.950 . S
H1205 C1183 0.950 . S
C1206 C1207 1.349 . S
C1206 C1208 1.327 . S
C1206 H1231 0.950 . S
C1207 C1206 1.349 . S
C1207 C1223 1.349 . S
C1208 C1206 1.327 . S
C1208 C1227 1.429 . S
C1208 H1232 0.950 . S
C1209 C1226 1.574 . S
C1209 C1228 1.368 . S
C1209 H1233 0.949 . S
H1210 C1214 0.949 . S
C1211 C1212 1.349 . S
C1211 C1213 1.327 1_554 S
C1211 H1234 0.950 . S
C1212 C1211 1.349 . S
C1212 C1224 1.349 1_554 S
C1213 C1211 1.327 1_556 S
C1213 C1229 1.429 . S
C1213 H1235 0.950 . S
C1214 H1210 0.949 . S
C1214 C1222 1.574 . S
C1214 C1230 1.368 . S
H1215 C1223 0.950 . S
H1216 C1221 0.950 . S
H1217 C1222 0.949 . S
H1218 C1224 0.950 . S
H1219 C1225 0.950 . S
H1220 C1226 0.949 . S
C1221 H1216 0.950 . S
C1221 C1223 1.327 . S
C1221 C1227 1.429 . S
C1222 C1214 1.574 . S
C1222 H1217 0.949 . S
C1222 C1228 1.368 . S
C1223 C1207 1.349 . S
C1223 H1215 0.950 . S
C1223 C1221 1.327 . S
C1224 C1212 1.349 1_556 S
C1224 H1218 0.950 . S
C1224 C1225 1.327 . S
C1225 H1219 0.950 . S
C1225 C1224 1.327 . S
C1225 C1229 1.429 . S
C1226 C1209 1.574 . S
C1226 H1220 0.949 . S
C1226 C1230 1.368 . S
C1227 C1208 1.429 . S
C1227 C1221 1.429 . S
C1227 C1228 1.523 . S
C1228 C1209 1.368 . S
C1228 C1222 1.368 . S
C1228 C1227 1.523 . S
C1229 C1213 1.429 . S
C1229 C1225 1.429 . S
C1229 C1230 1.523 . S
C1230 C1214 1.368 . S
C1230 C1226 1.368 . S
C1230 C1229 1.523 . S
H1231 C1206 0.950 . S
H1232 C1208 0.950 . S
H1233 C1209 0.949 . S
H1234 C1211 0.950 . S
H1235 C1213 0.950 . S
C1236 C1237 1.349 . S
C1236 C1238 1.327 1_554 S
C1236 H1261 0.950 . S
C1237 C1236 1.349 . S
C1237 C1253 1.349 1_554 S
C1238 C1236 1.327 1_556 S
C1238 C1257 1.429 . S
C1238 H1262 0.950 . S
C1239 C1256 1.574 . S
C1239 C1258 1.368 . S
C1239 H1263 0.949 . S
H1240 C1244 0.949 . S
C1241 C1242 1.349 . S
C1241 C1243 1.327 . S
C1241 H1264 0.950 . S
C1242 C1241 1.349 . S
C1242 C1254 1.349 . S
C1243 C1241 1.327 . S
C1243 C1259 1.429 . S
C1243 H1265 0.950 . S
C1244 H1240 0.949 . S
C1244 C1252 1.574 . S
C1244 C1260 1.368 . S
H1245 C1253 0.950 . S
H1246 C1251 0.950 . S
H1247 C1252 0.949 . S
H1248 C1254 0.950 . S
H1249 C1255 0.950 . S
H1250 C1256 0.949 . S
C1251 H1246 0.950 . S
C1251 C1253 1.327 . S
C1251 C1257 1.429 . S
C1252 C1244 1.574 . S
C1252 H1247 0.949 . S
C1252 C1258 1.368 . S
C1253 C1237 1.349 1_556 S
C1253 H1245 0.950 . S
C1253 C1251 1.327 . S
C1254 C1242 1.349 . S
C1254 H1248 0.950 . S
C1254 C1255 1.327 . S
C1255 H1249 0.950 . S
C1255 C1254 1.327 . S
C1255 C1259 1.429 . S
C1256 C1239 1.574 . S
C1256 H1250 0.949 . S
C1256 C1260 1.368 . S
C1257 C1238 1.429 . S
C1257 C1251 1.429 . S
C1257 C1258 1.523 . S
C1258 C1239 1.368 . S
C1258 C1252 1.368 . S
C1258 C1257 1.523 . S
C1259 C1243 1.429 . S
C1259 C1255 1.429 . S
C1259 C1260 1.523 . S
C1260 C1244 1.368 . S
C1260 C1256 1.368 . S
C1260 C1259 1.523 . S
H1261 C1236 0.950 . S
H1262 C1238 0.950 . S
H1263 C1239 0.949 . S
H1264 C1241 0.950 . S
H1265 C1243 0.950 . S
C1266 C1267 1.349 . S
C1266 C1268 1.327 . S
C1266 H1291 0.950 . S
C1267 C1266 1.349 . S
C1267 C1283 1.349 . S
C1268 C1266 1.327 . S
C1268 C1287 1.429 . S
C1268 H1292 0.950 . S
C1269 C1286 1.574 . S
C1269 C1288 1.368 . S
C1269 H1293 0.949 . S
H1270 C1274 0.949 . S
C1271 C1272 1.349 . S
C1271 C1273 1.327 . S
C1271 H1294 0.950 . S
C1272 C1271 1.349 . S
C1272 C1284 1.349 . S
C1273 C1271 1.327 . S
C1273 C1289 1.429 . S
C1273 H1295 0.950 . S
C1274 H1270 0.949 . S
C1274 C1282 1.574 . S
C1274 C1290 1.368 . S
H1275 C1283 0.950 . S
H1276 C1281 0.950 . S
H1277 C1282 0.949 . S
H1278 C1284 0.950 . S
H1279 C1285 0.950 . S
H1280 C1286 0.949 . S
C1281 H1276 0.950 . S
C1281 C1283 1.327 . S
C1281 C1287 1.429 . S
C1282 C1274 1.574 . S
C1282 H1277 0.949 . S
C1282 C1288 1.368 . S
C1283 C1267 1.349 . S
C1283 H1275 0.950 . S
C1283 C1281 1.327 . S
C1284 C1272 1.349 . S
C1284 H1278 0.950 . S
C1284 C1285 1.327 . S
C1285 H1279 0.950 . S
C1285 C1284 1.327 . S
C1285 C1289 1.429 . S
C1286 C1269 1.574 . S
C1286 H1280 0.949 . S
C1286 C1290 1.368 . S
C1287 C1268 1.429 . S
C1287 C1281 1.429 . S
C1287 C1288 1.523 . S
C1288 C1269 1.368 . S
C1288 C1282 1.368 . S
C1288 C1287 1.523 . S
C1289 C1273 1.429 . S
C1289 C1285 1.429 . S
C1289 C1290 1.523 . S
C1290 C1274 1.368 . S
C1290 C1286 1.368 . S
C1290 C1289 1.523 . S
H1291 C1266 0.950 . S
H1292 C1268 0.950 . S
H1293 C1269 0.949 . S
H1294 C1271 0.950 . S
H1295 C1273 0.950 . S
C1296 C1297 1.346 1_556 S
C1296 C1298 1.327 1_546 S
C1296 H1321 0.953 . S
C1297 C1296 1.346 1_554 S
C1297 C1313 1.349 . S
C1298 C1296 1.327 1_564 S
C1298 C1317 1.429 1_565 S
C1298 H1322 0.950 1_554 S
C1299 C1316 1.574 1_545 S
C1299 C1318 1.368 1_545 S
C1299 H1323 0.949 . S
H1300 C1304 0.949 1_556 S
C1301 C1302 1.349 . S
C1301 C1303 1.327 . S
C1301 H1324 0.950 . S
C1302 C1301 1.349 . S
C1302 C1314 1.349 . S
C1303 C1301 1.327 . S
C1303 C1319 1.429 . S
C1303 H1325 0.950 . S
C1304 H1300 0.949 1_554 S
C1304 C1312 1.574 . S
C1304 C1320 1.368 . S
H1305 C1313 0.950 . S
H1306 C1311 0.950 . S
H1307 C1312 0.949 1_556 S
H1308 C1314 0.950 . S
H1309 C1315 0.950 . S
H1310 C1316 0.949 . S
C1311 H1306 0.950 . S
C1311 C1313 1.327 . S
C1311 C1317 1.429 . S
C1312 C1304 1.574 . S
C1312 H1307 0.949 1_554 S
C1312 C1318 1.368 . S
C1313 C1297 1.349 . S
C1313 H1305 0.950 . S
C1313 C1311 1.327 . S
C1314 C1302 1.349 . S
C1314 H1308 0.950 . S
C1314 C1315 1.327 . S
C1315 H1309 0.950 . S
C1315 C1314 1.327 . S
C1315 C1319 1.429 . S
C1316 C1299 1.574 1_565 S
C1316 H1310 0.949 . S
C1316 C1320 1.368 . S
C1317 C1298 1.429 1_545 S
C1317 C1311 1.429 . S
C1317 C1318 1.523 1_545 S
C1318 C1299 1.368 1_565 S
C1318 C1312 1.368 . S
C1318 C1317 1.523 1_565 S
C1319 C1303 1.429 . S
C1319 C1315 1.429 . S
C1319 C1320 1.523 . S
C1320 C1304 1.368 . S
C1320 C1316 1.368 . S
C1320 C1319 1.523 . S
H1321 C1296 0.953 . S
H1322 C1298 0.950 1_556 S
H1323 C1299 0.949 . S
H1324 C1301 0.950 . S
H1325 C1303 0.950 . S
C1326 C1327 1.349 . S
C1326 C1328 1.327 . S
C1326 H1351 0.950 . S
C1327 C1326 1.349 . S
C1327 C1343 1.349 . S
C1328 C1326 1.327 . S
C1328 C1347 1.429 . S
C1328 H1352 0.950 . S
C1329 C1346 1.574 . S
C1329 C1348 1.368 . S
C1329 H1353 0.949 . S
H1330 C1334 0.949 . S
C1331 C1332 1.349 . S
C1331 C1333 1.327 . S
C1331 H1354 0.950 . S
C1332 C1331 1.349 . S
C1332 C1344 1.349 . S
C1333 C1331 1.327 . S
C1333 C1349 1.429 . S
C1333 H1355 0.950 . S
C1334 H1330 0.949 . S
C1334 C1342 1.574 . S
C1334 C1350 1.368 . S
H1335 C1343 0.950 . S
H1336 C1341 0.950 . S
H1337 C1342 0.949 . S
H1338 C1344 0.950 . S
H1339 C1345 0.950 . S
H1340 C1346 0.949 . S
C1341 H1336 0.950 . S
C1341 C1343 1.327 . S
C1341 C1347 1.429 . S
C1342 C1334 1.574 . S
C1342 H1337 0.949 . S
C1342 C1348 1.368 . S
C1343 C1327 1.349 . S
C1343 H1335 0.950 . S
C1343 C1341 1.327 . S
C1344 C1332 1.349 . S
C1344 H1338 0.950 . S
C1344 C1345 1.327 . S
C1345 H1339 0.950 . S
C1345 C1344 1.327 . S
C1345 C1349 1.429 . S
C1346 C1329 1.574 . S
C1346 H1340 0.949 . S
C1346 C1350 1.368 . S
C1347 C1328 1.429 . S
C1347 C1341 1.429 . S
C1347 C1348 1.523 . S
C1348 C1329 1.368 . S
C1348 C1342 1.368 . S
C1348 C1347 1.523 . S
C1349 C1333 1.429 . S
C1349 C1345 1.429 . S
C1349 C1350 1.523 . S
C1350 C1334 1.368 . S
C1350 C1346 1.368 . S
C1350 C1349 1.523 . S
H1351 C1326 0.950 . S
H1352 C1328 0.950 . S
H1353 C1329 0.949 . S
H1354 C1331 0.950 . S
H1355 C1333 0.950 . S
C1356 C1357 1.349 . S
C1356 C1358 1.327 . S
C1356 H1381 0.950 . S
C1357 C1356 1.349 . S
C1357 C1373 1.349 . S
C1358 C1356 1.327 . S
C1358 C1377 1.429 . S
C1358 H1382 0.950 . S
C1359 C1376 1.574 . S
C1359 C1378 1.368 . S
C1359 H1383 0.949 . S
H1360 C1364 0.949 . S
C1361 C1362 1.349 . S
C1361 C1363 1.327 . S
C1361 H1384 0.950 . S
C1362 C1361 1.349 . S
C1362 C1374 1.349 . S
C1363 C1361 1.327 . S
C1363 C1379 1.429 . S
C1363 H1385 0.950 . S
C1364 H1360 0.949 . S
C1364 C1372 1.574 . S
C1364 C1380 1.368 . S
H1365 C1373 0.950 . S
H1366 C1371 0.950 . S
H1367 C1372 0.949 . S
H1368 C1374 0.950 . S
H1369 C1375 0.950 . S
H1370 C1376 0.949 . S
C1371 H1366 0.950 . S
C1371 C1373 1.327 . S
C1371 C1377 1.429 . S
C1372 C1364 1.574 . S
C1372 H1367 0.949 . S
C1372 C1378 1.368 . S
C1373 C1357 1.349 . S
C1373 H1365 0.950 . S
C1373 C1371 1.327 . S
C1374 C1362 1.349 . S
C1374 H1368 0.950 . S
C1374 C1375 1.327 . S
C1375 H1369 0.950 . S
C1375 C1374 1.327 . S
C1375 C1379 1.429 . S
C1376 C1359 1.574 . S
C1376 H1370 0.949 . S
C1376 C1380 1.368 . S
C1377 C1358 1.429 . S
C1377 C1371 1.429 . S
C1377 C1378 1.523 . S
C1378 C1359 1.368 . S
C1378 C1372 1.368 . S
C1378 C1377 1.523 . S
C1379 C1363 1.429 . S
C1379 C1375 1.429 . S
C1379 C1380 1.523 . S
C1380 C1364 1.368 . S
C1380 C1376 1.368 . S
C1380 C1379 1.523 . S
H1381 C1356 0.950 . S
H1382 C1358 0.950 . S
H1383 C1359 0.949 . S
H1384 C1361 0.950 . S
H1385 C1363 0.950 . S
C1386 C1387 1.349 . S
C1386 C1388 1.327 . S
C1386 H1411 0.950 . S
C1387 C1386 1.349 . S
C1387 C1403 1.349 . S
C1388 C1386 1.327 . S
C1388 C1407 1.429 . S
C1388 H1412 0.950 . S
C1389 C1406 1.574 . S
C1389 C1408 1.368 . S
C1389 H1413 0.949 . S
H1390 C1394 0.949 . S
C1391 C1392 1.349 . S
C1391 C1393 1.327 . S
C1391 H1414 0.950 . S
C1392 C1391 1.349 . S
C1392 C1404 1.349 . S
C1393 C1391 1.327 . S
C1393 C1409 1.429 . S
C1393 H1415 0.950 . S
C1394 H1390 0.949 . S
C1394 C1402 1.574 . S
C1394 C1410 1.368 . S
H1395 C1403 0.950 . S
H1396 C1401 0.950 . S
H1397 C1402 0.949 . S
H1398 C1404 0.950 . S
H1399 C1405 0.950 . S
H1400 C1406 0.949 . S
C1401 H1396 0.950 . S
C1401 C1403 1.327 . S
C1401 C1407 1.429 . S
C1402 C1394 1.574 . S
C1402 H1397 0.949 . S
C1402 C1408 1.368 . S
C1403 C1387 1.349 . S
C1403 H1395 0.950 . S
C1403 C1401 1.327 . S
C1404 C1392 1.349 . S
C1404 H1398 0.950 . S
C1404 C1405 1.327 . S
C1405 H1399 0.950 . S
C1405 C1404 1.327 . S
C1405 C1409 1.429 . S
C1406 C1389 1.574 . S
C1406 H1400 0.949 . S
C1406 C1410 1.368 . S
C1407 C1388 1.429 . S
C1407 C1401 1.429 . S
C1407 C1408 1.523 . S
C1408 C1389 1.368 . S
C1408 C1402 1.368 . S
C1408 C1407 1.523 . S
C1409 C1393 1.429 . S
C1409 C1405 1.429 . S
C1409 C1410 1.523 . S
C1410 C1394 1.368 . S
C1410 C1406 1.368 . S
C1410 C1409 1.523 . S
H1411 C1386 0.950 . S
H1412 C1388 0.950 . S
H1413 C1389 0.949 . S
H1414 C1391 0.950 . S
H1415 C1393 0.950 . S
C1416 C1417 1.349 . S
C1416 C1418 1.327 . S
C1416 H1441 0.950 . S
C1417 C1416 1.349 . S
C1417 C1433 1.349 . S
C1418 C1416 1.327 . S
C1418 C1437 1.429 . S
C1418 H1442 0.950 . S
C1419 C1436 1.574 1_545 S
C1419 C1438 1.368 . S
C1419 H1443 0.949 . S
H1420 C1424 0.949 . S
C1421 C1422 1.349 . S
C1421 C1423 1.327 . S
C1421 H1444 0.950 . S
C1422 C1421 1.349 . S
C1422 C1434 1.349 . S
C1423 C1421 1.327 . S
C1423 C1439 1.429 . S
C1423 H1445 0.950 . S
C1424 H1420 0.949 . S
C1424 C1432 1.574 1_565 S
C1424 C1440 1.368 . S
H1425 C1433 0.950 . S
H1426 C1431 0.950 . S
H1427 C1432 0.949 . S
H1428 C1434 0.950 . S
H1429 C1435 0.950 . S
H1430 C1436 0.949 . S
C1431 H1426 0.950 . S
C1431 C1433 1.327 . S
C1431 C1437 1.429 . S
C1432 C1424 1.574 1_545 S
C1432 H1427 0.949 . S
C1432 C1438 1.368 . S
C1433 C1417 1.349 . S
C1433 H1425 0.950 . S
C1433 C1431 1.327 . S
C1434 C1422 1.349 . S
C1434 H1428 0.950 . S
C1434 C1435 1.327 . S
C1435 H1429 0.950 . S
C1435 C1434 1.327 . S
C1435 C1439 1.429 . S
C1436 C1419 1.574 1_565 S
C1436 H1430 0.949 . S
C1436 C1440 1.368 . S
C1437 C1418 1.429 . S
C1437 C1431 1.429 . S
C1437 C1438 1.523 . S
C1438 C1419 1.368 . S
C1438 C1432 1.368 . S
C1438 C1437 1.523 . S
C1439 C1423 1.429 . S
C1439 C1435 1.429 . S
C1439 C1440 1.523 . S
C1440 C1424 1.368 . S
C1440 C1436 1.368 . S
C1440 C1439 1.523 . S
H1441 C1416 0.950 . S
H1442 C1418 0.950 . S
H1443 C1419 0.949 . S
H1444 C1421 0.950 . S
H1445 C1423 0.950 . S
C1446 C1447 1.349 . S
C1446 C1448 1.327 . S
C1446 H1471 0.950 . S
C1447 C1446 1.349 . S
C1447 C1463 1.349 . S
C1448 C1446 1.327 . S
C1448 C1467 1.429 . S
C1448 H1472 0.950 . S
C1449 C1466 1.574 1_655 S
C1449 C1468 1.368 . S
C1449 H1473 0.949 . S
H1450 C1454 0.949 . S
C1451 C1452 1.349 . S
C1451 C1453 1.327 . S
C1451 H1474 0.950 . S
C1452 C1451 1.349 . S
C1452 C1464 1.349 . S
C1453 C1451 1.327 . S
C1453 C1469 1.429 . S
C1453 H1475 0.950 . S
C1454 H1450 0.949 . S
C1454 C1462 1.574 . S
C1454 C1470 1.368 1_655 S
H1455 C1463 0.950 . S
H1456 C1461 0.950 . S
H1457 C1462 0.949 . S
H1458 C1464 0.950 . S
H1459 C1465 0.950 . S
H1460 C1466 0.949 . S
C1461 H1456 0.950 . S
C1461 C1463 1.327 . S
C1461 C1467 1.429 . S
C1462 C1454 1.574 . S
C1462 H1457 0.949 . S
C1462 C1468 1.368 . S
C1463 C1447 1.349 . S
C1463 H1455 0.950 . S
C1463 C1461 1.327 . S
C1464 C1452 1.349 . S
C1464 H1458 0.950 . S
C1464 C1465 1.327 . S
C1465 H1459 0.950 . S
C1465 C1464 1.327 . S
C1465 C1469 1.429 . S
C1466 C1449 1.574 1_455 S
C1466 H1460 0.949 . S
C1466 C1470 1.368 . S
C1467 C1448 1.429 . S
C1467 C1461 1.429 . S
C1467 C1468 1.523 . S
C1468 C1449 1.368 . S
C1468 C1462 1.368 . S
C1468 C1467 1.523 . S
C1469 C1453 1.429 . S
C1469 C1465 1.429 . S
C1469 C1470 1.523 . S
C1470 C1454 1.368 1_455 S
C1470 C1466 1.368 . S
C1470 C1469 1.523 . S
H1471 C1446 0.950 . S
H1472 C1448 0.950 . S
H1473 C1449 0.949 . S
H1474 C1451 0.950 . S
H1475 C1453 0.950 . S
C1476 C1477 1.349 . S
C1476 C1478 1.327 . S
C1476 H1501 0.950 . S
C1477 C1476 1.349 . S
C1477 C1493 1.349 . S
C1478 C1476 1.327 . S
C1478 C1497 1.429 . S
C1478 H1502 0.950 . S
C1479 C1496 1.574 . S
C1479 C1498 1.368 . S
C1479 H1503 0.949 . S
H1480 C1484 0.949 . S
C1481 C1482 1.349 . S
C1481 C1483 1.327 . S
C1481 H1504 0.950 . S
C1482 C1481 1.349 . S
C1482 C1494 1.349 . S
C1483 C1481 1.327 . S
C1483 C1499 1.429 . S
C1483 H1505 0.950 . S
C1484 H1480 0.949 . S
C1484 C1492 1.574 . S
C1484 C1500 1.368 . S
H1485 C1493 0.950 . S
H1486 C1491 0.950 . S
H1487 C1492 0.949 . S
H1488 C1494 0.950 . S
H1489 C1495 0.950 . S
H1490 C1496 0.949 . S
C1491 H1486 0.950 . S
C1491 C1493 1.327 . S
C1491 C1497 1.429 . S
C1492 C1484 1.574 . S
C1492 H1487 0.949 . S
C1492 C1498 1.368 . S
C1493 C1477 1.349 . S
C1493 H1485 0.950 . S
C1493 C1491 1.327 . S
C1494 C1482 1.349 . S
C1494 H1488 0.950 . S
C1494 C1495 1.327 . S
C1495 H1489 0.950 . S
C1495 C1494 1.327 . S
C1495 C1499 1.429 . S
C1496 C1479 1.574 . S
C1496 H1490 0.949 . S
C1496 C1500 1.368 . S
C1497 C1478 1.429 . S
C1497 C1491 1.429 . S
C1497 C1498 1.523 . S
C1498 C1479 1.368 . S
C1498 C1492 1.368 . S
C1498 C1497 1.523 . S
C1499 C1483 1.429 . S
C1499 C1495 1.429 . S
C1499 C1500 1.523 . S
C1500 C1484 1.368 . S
C1500 C1496 1.368 . S
C1500 C1499 1.523 . S
H1501 C1476 0.950 . S
H1502 C1478 0.950 . S
H1503 C1479 0.949 . S
H1504 C1481 0.950 . S
H1505 C1483 0.950 . S
C1506 C1507 1.349 . S
C1506 C1508 1.327 . S
C1506 H1531 0.950 . S
C1507 C1506 1.349 . S
C1507 C1523 1.349 . S
C1508 C1506 1.327 . S
C1508 C1527 1.429 . S
C1508 H1532 0.950 . S
C1509 C1526 1.534 1_565 S
C1509 C1528 1.405 . S
C1509 H1533 0.955 . S
H1510 C1514 0.949 . S
C1511 C1512 1.349 . S
C1511 C1513 1.327 . S
C1511 H1534 0.950 . S
C1512 C1511 1.349 . S
C1512 C1524 1.349 . S
C1513 C1511 1.327 . S
C1513 C1529 1.429 . S
C1513 H1535 0.950 . S
C1514 H1510 0.949 . S
C1514 C1522 1.574 . S
C1514 C1530 1.368 . S
H1515 C1523 0.950 . S
H1516 C1521 0.950 . S
H1517 C1522 0.949 1_565 S
H1518 C1524 0.950 . S
H1519 C1525 0.950 . S
H1520 C1526 0.949 . S
C1521 H1516 0.950 . S
C1521 C1523 1.327 . S
C1521 C1527 1.429 . S
C1522 C1514 1.574 . S
C1522 H1517 0.949 1_545 S
C1522 C1528 1.368 1_545 S
C1523 C1507 1.349 . S
C1523 H1515 0.950 . S
C1523 C1521 1.327 . S
C1524 C1512 1.349 . S
C1524 H1518 0.950 . S
C1524 C1525 1.327 . S
C1525 H1519 0.950 . S
C1525 C1524 1.327 . S
C1525 C1529 1.429 . S
C1526 C1509 1.534 1_545 S
C1526 H1520 0.949 . S
C1526 C1530 1.368 . S
C1527 C1508 1.429 . S
C1527 C1521 1.429 . S
C1527 C1528 1.523 . S
C1528 C1509 1.405 . S
C1528 C1522 1.368 1_565 S
C1528 C1527 1.523 . S
C1529 C1513 1.429 . S
C1529 C1525 1.429 . S
C1529 C1530 1.523 . S
C1530 C1514 1.368 . S
C1530 C1526 1.368 . S
C1530 C1529 1.523 . S
H1531 C1506 0.950 . S
H1532 C1508 0.950 . S
H1533 C1509 0.955 . S
H1534 C1511 0.950 . S
H1535 C1513 0.950 . S
C1536 C1537 1.349 . S
C1536 C1538 1.327 . S
C1536 H1561 0.950 . S
C1537 C1536 1.349 . S
C1537 C1553 1.349 . S
C1538 C1536 1.327 . S
C1538 C1557 1.429 . S
C1538 H1562 0.950 . S
C1539 C1556 1.574 1_655 S
C1539 C1558 1.368 . S
C1539 H1563 0.949 . S
H1540 C1544 0.949 . S
C1541 C1542 1.349 . S
C1541 C1543 1.327 . S
C1541 H1564 0.950 . S
C1542 C1541 1.349 . S
C1542 C1554 1.349 . S
C1543 C1541 1.327 . S
C1543 C1559 1.429 . S
C1543 H1565 0.950 . S
C1544 H1540 0.949 . S
C1544 C1552 1.574 . S
C1544 C1560 1.368 1_655 S
H1545 C1553 0.950 . S
H1546 C1551 0.950 . S
H1547 C1552 0.949 . S
H1548 C1554 0.950 . S
H1549 C1555 0.950 . S
H1550 C1556 0.949 . S
C1551 H1546 0.950 . S
C1551 C1553 1.327 . S
C1551 C1557 1.429 . S
C1552 C1544 1.574 . S
C1552 H1547 0.949 . S
C1552 C1558 1.368 . S
C1553 C1537 1.349 . S
C1553 H1545 0.950 . S
C1553 C1551 1.327 . S
C1554 C1542 1.349 . S
C1554 H1548 0.950 . S
C1554 C1555 1.327 . S
C1555 H1549 0.950 . S
C1555 C1554 1.327 . S
C1555 C1559 1.429 . S
C1556 C1539 1.574 1_455 S
C1556 H1550 0.949 . S
C1556 C1560 1.368 . S
C1557 C1538 1.429 . S
C1557 C1551 1.429 . S
C1557 C1558 1.523 . S
C1558 C1539 1.368 . S
C1558 C1552 1.368 . S
C1558 C1557 1.523 . S
C1559 C1543 1.429 . S
C1559 C1555 1.429 . S
C1559 C1560 1.523 . S
C1560 C1544 1.368 1_455 S
C1560 C1556 1.368 . S
C1560 C1559 1.523 . S
H1561 C1536 0.950 . S
H1562 C1538 0.950 . S
H1563 C1539 0.949 . S
H1564 C1541 0.950 . S
H1565 C1543 0.950 . S
C757 C63 3.393 1_556 S
C762 C74 3.393 . S
C787 C158 3.406 . S
C792 C147 3.406 . S
C817 C231 3.426 . S
C822 C242 3.426 . S
C847 C326 3.393 . S
C852 C315 3.393 1_556 S
C877 C399 3.406 . S
C882 C410 3.406 . S
C907 C494 3.426 . S
C912 C483 3.426 . S
C937 C573 2.247 . S
C942 C562 2.247 1_556 S
C967 C646 2.249 . S
C972 C657 2.249 1_556 S
C997 C741 1.912 . S
C1002 C730 1.912 1_556 S
C1027 C476 1.719 . S
C1032 C69 1.461 . S
C1057 C140 2.127 . S
C1062 C308 2.124 . S
C1087 C237 1.157 1_565 S
C1092 C405 1.151 . S
C1117 C224 2.161 1_556 S
C1122 C571 2.161 . S
C1147 C662 1.430 . S
C1152 C56 1.440 . S
C1177 C739 1.240 . S
C1182 C153 1.191 1_556 S
C1207 C735 0.935 . S
C1212 C58 0.907 . S
C1237 C151 1.748 . S
C1242 C567 1.728 . S
C1267 C644 1.669 . S
C1272 C226 1.590 . S
C1297 C235 1.719 . S
C1302 C310 1.461 . S
C1327 C403 2.127 . S
C1332 C67 2.123 . S
C1357 C142 1.151 . S
C1362 C478 1.152 . S
C1387 C746 0.935 . S
C1392 C321 0.907 . S
C1417 C578 1.729 . S
C1422 C392 1.748 . S
C1447 C655 1.670 . S
C1452 C489 1.590 . S
C1477 C560 2.160 . S
C1482 C487 2.160 . S
C1507 C319 1.440 . S
C1512 C651 1.430 . S
C1537 C728 1.240 . S
C1542 C394 1.191 . S
