# Generated by pormake.
# Topology smc, (6)-cn, num edge types: 1
# Building blocks:
#     Node 0, Type 0, BuildingBlock: KUMBOL_clean_sbu_1, # of connection points: 6
#     Node 1, Type 0, BuildingBlock: KUMBOL_clean_sbu_1, # of connection points: 6
#     Node 2, Type 0, BuildingBlock: KUMBOL_clean_sbu_1, # of connection points: 6
#     Node 3, Type 0, BuildingBlock: KUMBOL_clean_sbu_1, # of connection points: 6
#     Node 4, Type 0, BuildingBlock: KUMBOL_clean_sbu_1, # of connection points: 6
#     Node 5, Type 0, BuildingBlock: KUMBOL_clean_sbu_1, # of connection points: 6
#     Node 6, Type 0, BuildingBlock: KUMBOL_clean_sbu_1, # of connection points: 6
#     Node 7, Type 0, BuildingBlock: KUMBOL_clean_sbu_1, # of connection points: 6
#     Node 8, Type 0, BuildingBlock: KUMBOL_clean_sbu_1, # of connection points: 6
#     Edge 9, Type (0, 0), BuildingBlock: MIFKUJ_clean_linker_0, # of connection points: 2
#     Edge 10, Type (0, 0), BuildingBlock: MIFKUJ_clean_linker_0, # of connection points: 2
#     Edge 11, Type (0, 0), BuildingBlock: MIFKUJ_clean_linker_0, # of connection points: 2
#     Edge 12, Type (0, 0), BuildingBlock: MIFKUJ_clean_linker_0, # of connection points: 2
#     Edge 13, Type (0, 0), BuildingBlock: MIFKUJ_clean_linker_0, # of connection points: 2
#     Edge 14, Type (0, 0), BuildingBlock: MIFKUJ_clean_linker_0, # of connection points: 2
#     Edge 15, Type (0, 0), BuildingBlock: MIFKUJ_clean_linker_0, # of connection points: 2
#     Edge 16, Type (0, 0), BuildingBlock: MIFKUJ_clean_linker_0, # of connection points: 2
#     Edge 17, Type (0, 0), BuildingBlock: MIFKUJ_clean_linker_0, # of connection points: 2
#     Edge 18, Type (0, 0), BuildingBlock: MIFKUJ_clean_linker_0, # of connection points: 2
#     Edge 19, Type (0, 0), BuildingBlock: MIFKUJ_clean_linker_0, # of connection points: 2
#     Edge 20, Type (0, 0), BuildingBlock: MIFKUJ_clean_linker_0, # of connection points: 2
#     Edge 21, Type (0, 0), BuildingBlock: MIFKUJ_clean_linker_0, # of connection points: 2
#     Edge 22, Type (0, 0), BuildingBlock: MIFKUJ_clean_linker_0, # of connection points: 2
#     Edge 23, Type (0, 0), BuildingBlock: MIFKUJ_clean_linker_0, # of connection points: 2
#     Edge 24, Type (0, 0), BuildingBlock: MIFKUJ_clean_linker_0, # of connection points: 2
#     Edge 25, Type (0, 0), BuildingBlock: MIFKUJ_clean_linker_0, # of connection points: 2
#     Edge 26, Type (0, 0), BuildingBlock: MIFKUJ_clean_linker_0, # of connection points: 2
#     Edge 27, Type (0, 0), BuildingBlock: MIFKUJ_clean_linker_0, # of connection points: 2
#     Edge 28, Type (0, 0), BuildingBlock: MIFKUJ_clean_linker_0, # of connection points: 2
#     Edge 29, Type (0, 0), BuildingBlock: MIFKUJ_clean_linker_0, # of connection points: 2
#     Edge 30, Type (0, 0), BuildingBlock: MIFKUJ_clean_linker_0, # of connection points: 2
#     Edge 31, Type (0, 0), BuildingBlock: MIFKUJ_clean_linker_0, # of connection points: 2
#     Edge 32, Type (0, 0), BuildingBlock: MIFKUJ_clean_linker_0, # of connection points: 2
#     Edge 33, Type (0, 0), BuildingBlock: MIFKUJ_clean_linker_0, # of connection points: 2
#     Edge 34, Type (0, 0), BuildingBlock: MIFKUJ_clean_linker_0, # of connection points: 2
#     Edge 35, Type (0, 0), BuildingBlock: MIFKUJ_clean_linker_0, # of connection points: 2
# Relax obj value: 0.159
# Max RMSD: 0.300
# Mean RMSD: 0.300
data_MOF--net-smc--node1-KUMBOL_clean_sbu_1--edge1-MIFKUJ_clean_linker_0
_symmetry_space_group_name_H-M    P1
_symmetry_Int_Tables_number       1
_symmetry_cell_setting            triclinic
loop_
_symmetry_equiv_pos_as_xyz
'x, y, z'
_cell_length_a     47.20317
_cell_length_b     47.133661
_cell_length_c     53.009875
_cell_angle_alpha  90.039663
_cell_angle_beta   89.911688
_cell_angle_gamma 120.04797
loop_
_atom_site_label
_atom_site_type_symbol
_atom_site_fract_x
_atom_site_fract_y
_atom_site_fract_z
_atom_type_partial_charge
C0 C 0.0361 0.54942 0.01596 0.0
C1 C 0.04362 0.56781 0.97245 0.0
C2 C 0.03025 0.54214 0.99033 0.0
C3 C 0.06346 0.60035 0.98054 0.0
C4 C 0.05629 0.58202 0.02409 0.0
C5 C 0.06988 0.60741 1.00625 0.0
N6 N 0.02349 0.5243 0.03286 0.0
C7 C 0.02901 0.53004 0.05811 0.0
C8 C 0.0626 0.58809 0.04993 0.0
C9 C 0.04883 0.562 0.067 0.0
Gd10 Gd 0.04166 0.42376 1.00552 0.0
Gd11 Gd 0.99036 0.47175 0.01626 0.0
N12 N 0.01174 0.51019 0.98291 0.0
C13 C 0.03662 0.56008 0.94693 0.0
C14 C 1.00291 0.50303 0.95816 0.0
C15 C 0.01582 0.52763 0.93981 0.0
H16 H 0.98496 0.47875 0.95226 0.0
H17 H 0.00912 0.5216 0.92021 0.0
H18 H 0.08231 0.43138 0.06024 0.0
H19 H 0.01829 0.50985 0.07131 0.0
H20 H 0.0761 0.39738 0.09748 0.0
H21 H 0.04646 0.57907 0.93264 0.0
H22 H 0.07411 0.62025 0.96701 0.0
H23 H 1.00303 0.37113 0.95797 0.0
H24 H 0.07811 0.6128 0.05688 0.0
H25 H 0.05349 0.5665 0.08701 0.0
H26 H 0.99083 0.29004 0.07423 0.0
H27 H 0.08549 0.6326 0.01212 0.0
H28 H 0.95344 0.27403 0.98873 0.0
H29 H 0.96646 0.31126 0.95241 0.0
N30 N 0.00892 0.36746 0.99733 0.0
C31 C 1.00363 0.34722 0.0173 0.0
C32 C 0.99711 0.35494 0.97394 0.0
C33 C 0.96931 0.30017 0.99133 0.0
C34 C 0.97674 0.32115 0.9707 0.0
C35 C 0.9832 0.31302 0.01488 0.0
H36 H 0.96197 0.2664 0.03438 0.0
N37 N 0.04073 0.39361 0.04127 0.0
C38 C 0.01959 0.36074 0.03996 0.0
C39 C 0.03549 0.35383 0.08186 0.0
C40 C 0.01596 0.34007 0.06047 0.0
C41 C 0.0626 0.40623 0.06071 0.0
C42 C 0.05958 0.38688 0.08166 0.0
O43 O 0.0453 0.49793 0.02041 0.0
O44 O 0.06274 0.47544 0.99029 0.0
O45 O 0.09341 0.43718 1.00925 0.0
O46 O 0.06449 0.4097 0.97652 0.0
O47 O 0.97632 0.43731 0.98216 0.0
O48 O 0.02624 0.44313 0.97266 0.0
O49 O 0.98557 0.39268 1.00738 0.0
O50 O 0.96692 0.4206 0.03218 0.0
O51 O 0.94739 0.4725 1.00215 0.0
O52 O 0.96093 0.48351 0.04115 0.0
O53 O 0.04887 0.45224 0.04196 0.0
O54 O 1.00005 0.45079 0.05196 0.0
C55 C 0.06687 0.50059 1.00369 0.0
C56 C 0.99556 0.43237 0.96684 0.0
C57 C 0.12065 0.42122 0.97714 0.0
C58 C 0.17918 0.43908 0.97491 0.0
C59 C 0.14041 0.39635 0.94688 0.0
C60 C 0.11475 0.39865 0.95771 0.0
C61 C 0.17232 0.4164 0.9553 0.0
C62 C 0.15307 0.44154 0.98573 0.0
C63 C 0.09258 0.42294 0.98797 0.0
C64 C 0.99425 0.30618 0.05854 0.0
C65 C 0.9779 0.2927 0.03581 0.0
H66 H 0.03341 0.33882 0.09801 0.0
C67 C 0.96322 0.39352 0.02193 0.0
C68 C 0.0269 0.45021 0.05848 0.0
C69 C 0.90558 0.46516 0.03072 0.0
C70 C 0.85528 0.4683 0.03432 0.0
C71 C 0.85645 0.41939 0.04803 0.0
C72 C 0.88924 0.43354 0.04095 0.0
C73 C 0.83965 0.43658 0.04491 0.0
C74 C 0.88857 0.48241 0.02734 0.0
C75 C 0.94043 0.48076 0.02369 0.0
H76 H 0.13555 0.37892 0.93188 0.0
H77 H 0.09016 0.38258 0.95091 0.0
H78 H 0.19178 0.41429 0.94625 0.0
H79 H 0.15789 0.45887 1.00084 0.0
H80 H 0.844 0.39502 0.0561 0.0
H81 H 0.90192 0.41995 0.04357 0.0
H82 H 0.81442 0.42502 0.05109 0.0
H83 H 0.90125 0.50663 0.01896 0.0
C84 C 0.46908 0.50849 0.01452 0.0
C85 C 0.45562 0.49569 0.97038 0.0
C86 C 0.479 0.50782 0.98999 0.0
C87 C 0.42286 0.4862 0.97558 0.0
C88 C 0.43589 0.49734 0.02006 0.0
C89 C 0.41299 0.48685 1.00038 0.0
N90 N 0.4917 0.51898 0.03316 0.0
C91 C 0.48282 0.51727 0.05785 0.0
C92 C 0.42667 0.49652 0.04529 0.0
C93 C 0.45022 0.50634 0.06429 0.0
Gd94 Gd 0.59654 0.63595 1.00403 0.0
Gd95 Gd 0.54583 0.53737 0.02142 0.0
N96 N 0.51081 0.51646 0.98568 0.0
C97 C 0.46545 0.49185 0.94636 0.0
C98 C 0.51915 0.50866 0.963 0.0
C99 C 0.49713 0.49754 0.94284 0.0
H100 H 0.54243 0.51005 0.96017 0.0
H101 H 0.50438 0.49253 0.92475 0.0
H102 H 0.65979 0.67129 0.0436 0.0
H103 H 0.50107 0.52469 0.07251 0.0
H104 H 0.71897 0.71153 0.04238 0.0
H105 H 0.44828 0.48267 0.93081 0.0
H106 H 0.40473 0.47724 0.96068 0.0
H107 H 0.5671 0.6404 0.94851 0.0
H108 H 0.40139 0.48779 0.05036 0.0
H109 H 0.44326 0.50538 0.08386 0.0
H110 H 0.73954 0.74547 0.95558 0.0
H111 H 0.38747 0.47858 1.00419 0.0
H112 H 0.64703 0.70289 0.89995 0.0
H113 H 0.58756 0.66639 0.90677 0.0
N114 N 0.61458 0.66021 0.96427 0.0
C115 C 0.647 0.68138 0.96132 0.0
C116 C 0.59313 0.65577 0.94542 0.0
C117 C 0.63819 0.69118 0.9181 0.0
C118 C 0.60461 0.67064 0.92189 0.0
C119 C 0.65981 0.69745 0.93816 0.0
H120 H 0.70385 0.73245 0.91841 0.0
N121 N 0.653 0.67401 1.00428 0.0
C122 C 0.6669 0.68869 0.98211 0.0
C123 C 0.71945 0.7201 1.00242 0.0
C124 C 0.70046 0.71225 0.98052 0.0
C125 C 0.6711 0.68249 0.02589 0.0
C126 C 0.70463 0.70529 0.02525 0.0
O127 O 0.52736 0.57248 0.02911 0.0
O128 O 0.54413 0.60123 0.99292 0.0
O129 O 0.57425 0.65146 0.03318 0.0
O130 O 0.59204 0.67907 0.99856 0.0
O131 O 0.57768 0.55294 0.98595 0.0
O132 O 0.57087 0.59576 0.97532 0.0
O133 O 0.63242 0.61694 1.01016 0.0
O134 O 0.60085 0.56049 0.01878 0.0
O135 O 0.5247 0.48435 0.02067 0.0
O136 O 0.55523 0.51197 0.05176 0.0
O137 O 0.60328 0.62092 0.04332 0.0
O138 O 0.55787 0.57151 0.05527 0.0
C139 C 0.52214 0.58776 1.01073 0.0
C140 C 0.58185 0.57593 0.96977 0.0
C141 C 0.58819 0.70785 0.0334 0.0
C142 C 0.58129 0.75565 0.03998 0.0
C143 C 0.62566 0.75217 0.06055 0.0
C144 C 0.6155 0.72176 0.04931 0.0
C145 C 0.60883 0.76904 0.05591 0.0
C146 C 0.57121 0.72488 0.02873 0.0
C147 C 0.57803 0.67666 0.02018 0.0
C148 C 0.71375 0.72752 0.95727 0.0
C149 C 0.69346 0.72006 0.9361 0.0
H150 H 0.74537 0.73794 1.00198 0.0
C151 C 0.62924 0.5878 0.01516 0.0
C152 C 0.58196 0.60154 0.06041 0.0
C153 C 0.55479 0.4627 0.04004 0.0
C154 C 0.55028 0.40887 0.03375 0.0
C155 C 0.60343 0.4575 0.04101 0.0
C156 C 0.58875 0.47677 0.04298 0.0
C157 C 0.58446 0.42391 0.03635 0.0
C158 C 0.53556 0.42855 0.03573 0.0
C159 C 0.53917 0.48327 0.04111 0.0
H160 H 0.64682 0.76284 0.07281 0.0
H161 H 0.6292 0.70936 0.05275 0.0
H162 H 0.61757 0.79276 0.06466 0.0
H163 H 0.55009 0.71407 0.01637 0.0
H164 H 0.62967 0.46865 0.04318 0.0
H165 H 0.60402 0.5027 0.04678 0.0
H166 H 0.59655 0.40955 0.03522 0.0
H167 H 0.5093 0.41746 0.03353 0.0
C168 C 0.52276 1.0006 0.02774 0.0
C169 C 0.54026 0.99751 0.98531 0.0
C170 C 0.52486 0.00865 1.00231 0.0
C171 C 0.552 0.97714 0.99398 0.0
C172 C 0.53539 0.98095 0.03664 0.0
C173 C 0.54964 0.96895 0.01957 0.0
N174 N 0.50785 0.01153 0.04376 0.0
C175 C 0.50577 1.00491 0.06896 0.0
C176 C 0.533 0.97366 0.06243 0.0
C177 C 0.51826 0.98583 0.07868 0.0
Gd178 Gd 0.39319 0.98708 0.99977 0.0
Gd179 Gd 0.48802 0.04365 0.02621 0.0
N180 N 0.51312 0.02834 0.99439 0.0
C181 C 0.54434 0.00798 0.96023 0.0
C182 C 0.52046 0.04138 0.97062 0.0
C183 C 0.53508 0.0306 0.95302 0.0
H184 H 0.51632 0.06098 0.96511 0.0
H185 H 0.53995 0.04041 0.93404 0.0
H186 H 0.35147 1.00119 0.0443 0.0
H187 H 0.49425 0.01425 0.08149 0.0
H188 H 0.31405 0.02355 0.04744 0.0
H189 H 0.55602 0.99997 0.94661 0.0
H190 H 0.56351 0.96808 0.9811 0.0
H191 H 0.39588 0.97084 0.93893 0.0
H192 H 0.54238 0.95861 0.06997 0.0
H193 H 0.51639 0.98041 0.09865 0.0
H194 H 0.2983 0.04455 0.96132 0.0
H195 H 0.55907 0.95345 0.026 0.0
H196 H 0.34417 0.00824 0.89671 0.0
H197 H 0.37639 0.97995 0.89796 0.0
N198 N 0.37484 0.99374 0.96029 0.0
C199 C 0.35572 0.00766 0.96012 0.0
C200 C 0.38161 0.98302 0.93844 0.0
C201 C 0.35245 1.00411 0.91467 0.0
C202 C 0.37057 0.98807 0.9153 0.0
C203 C 0.34431 0.01363 0.9373 0.0
H204 H 0.31551 0.0329 0.92058 0.0
N205 N 0.35626 0.00646 1.00444 0.0
C206 C 0.34596 0.0141 0.98296 0.0
C207 C 0.31358 0.03086 1.00732 0.0
C208 C 0.32464 0.02687 0.98377 0.0
C209 C 0.34412 0.00852 0.02737 0.0
C210 C 0.32302 0.02122 0.02919 0.0
O211 O 0.45769 0.98865 0.03178 0.0
O212 O 0.43277 0.9741 0.9938 0.0
O213 O 0.36286 0.94311 0.02218 0.0
O214 O 0.35993 0.9412 0.98155 0.0
O215 O 0.47334 0.05928 0.98999 0.0
O216 O 0.43841 0.00803 0.97589 0.0
O217 O 0.40654 0.03981 1.00913 0.0
O218 O 0.45805 0.0684 0.02862 0.0
O219 O 0.53721 0.08535 0.02047 0.0
O220 O 0.5149 0.07648 0.05711 0.0
O221 O 0.3996 0.99038 0.04223 0.0
O222 O 0.45162 0.02672 0.05886 0.0
C223 C 0.44546 0.96749 0.01329 0.0
C224 C 0.45454 0.03968 0.97199 0.0
C225 C 0.31213 0.90484 1.00323 0.0
C226 C 0.26308 0.85008 1.00224 0.0
C227 C 0.2589 0.89931 0.99645 0.0
C228 C 0.29263 0.91904 0.99914 0.0
C229 C 0.24427 0.86524 0.99757 0.0
C230 C 0.29731 0.87052 1.00525 0.0
C231 C 0.34807 0.92524 1.00246 0.0
C232 C 0.31443 0.0344 0.96111 0.0
C233 C 0.32427 0.0278 0.9379 0.0
H234 H 0.29715 0.0406 1.00877 0.0
C235 C 0.42999 0.06539 0.02124 0.0
C236 C 0.41984 1.00531 0.06128 0.0
C237 C 0.57289 0.09998 0.05567 0.0
C238 C 0.63304 0.12948 0.056 0.0
C239 C 0.60214 0.08913 0.08848 0.0
C240 C 0.57284 0.08333 0.07768 0.0
C241 C 0.63196 0.11192 0.07778 0.0
C242 C 0.60321 0.12339 0.04502 0.0
C243 C 0.54157 0.09358 0.04412 0.0
H244 H 0.24406 0.91044 0.9928 0.0
H245 H 0.30356 0.9453 0.99726 0.0
H246 H 0.21823 0.85098 0.99415 0.0
H247 H 0.31274 0.86003 1.0088 0.0
H248 H 0.60175 0.07612 0.10542 0.0
H249 H 0.5502 0.06601 0.0868 0.0
H250 H 0.6543 0.11637 0.08699 0.0
H251 H 0.60356 0.13663 0.02821 0.0
C252 C 0.67094 0.86349 0.3663 0.0
C253 C 0.67333 0.88744 0.32534 0.0
C254 C 0.66621 0.85988 0.34032 0.0
C255 C 0.68669 0.91855 0.33654 0.0
C256 C 0.68386 0.89461 0.37766 0.0
C257 C 0.69206 0.92214 0.3626 0.0
N258 N 0.66335 0.83658 0.38047 0.0
C259 C 0.6668 0.83869 0.40606 0.0
C260 C 0.68817 0.89713 0.40386 0.0
C261 C 0.67943 0.86901 0.41812 0.0
Gd262 Gd 0.70492 0.75599 0.33717 0.0
Gd263 Gd 0.64072 0.78666 0.35905 0.0
N264 N 0.65343 0.82941 0.32988 0.0
C265 C 0.66576 0.88284 0.29966 0.0
C266 C 0.64417 0.82477 0.30509 0.0
C267 C 0.65088 0.85136 0.28957 0.0
H268 H 0.63007 0.80071 0.29711 0.0
H269 H 0.6436 0.8474 0.26994 0.0
H270 H 0.682 0.71251 0.39147 0.0
H271 H 0.65956 0.81695 0.41721 0.0
H272 H 0.66406 0.65633 0.40551 0.0
H273 H 0.66997 0.9032 0.28769 0.0
H274 H 0.69255 0.93995 0.32523 0.0
H275 H 0.71749 0.75709 0.27524 0.0
H276 H 0.698 0.9206 0.41327 0.0
H277 H 0.68229 0.87066 0.43842 0.0
H278 H 0.667 0.60106 0.33038 0.0
H279 H 0.7022 0.94627 0.37096 0.0
H280 H 0.69957 0.6622 0.25312 0.0
H281 H 0.71509 0.71907 0.24199 0.0
N282 N 0.7005 0.72114 0.30409 0.0
C283 C 0.69123 0.68979 0.31055 0.0
C284 C 0.70892 0.73176 0.27986 0.0
C285 C 0.69921 0.67832 0.26752 0.0
C286 C 0.70813 0.71047 0.26116 0.0
C287 C 0.69053 0.66754 0.29244 0.0
H288 H 0.68186 0.61834 0.28635 0.0
N289 N 0.68622 0.70285 0.35286 0.0
C290 C 0.68398 0.68037 0.33566 0.0
C291 C 0.66732 0.63946 0.36844 0.0
C292 C 0.67476 0.64815 0.34305 0.0
C293 C 0.6798 0.69471 0.37776 0.0
C294 C 0.66974 0.66282 0.38583 0.0
O295 O 0.69493 0.82137 0.36291 0.0
O296 O 0.71314 0.80664 0.32827 0.0
O297 O 0.74993 0.76962 0.35783 0.0
O298 O 0.7508 0.77237 0.31723 0.0
O299 O 0.63107 0.75936 0.32135 0.0
O300 O 0.68344 0.77531 0.30833 0.0
O301 O 0.65099 0.7153 0.33756 0.0
O302 O 0.63518 0.73758 0.36834 0.0
O303 O 0.59476 0.78604 0.35101 0.0
O304 O 0.60281 0.77187 0.38741 0.0
O305 O 0.70729 0.77083 0.37829 0.0
O306 O 0.66094 0.77213 0.39274 0.0
C307 C 0.71755 0.82811 0.34586 0.0
C308 C 0.65174 0.76063 0.30383 0.0
C309 C 0.78945 0.76139 0.33625 0.0
C310 C 0.84491 0.76886 0.33587 0.0
C311 C 0.79713 0.71517 0.32776 0.0
C312 C 0.77653 0.72802 0.33116 0.0
C313 C 0.83094 0.73535 0.32971 0.0
C314 C 0.82362 0.7817 0.33897 0.0
C315 C 0.76756 0.77535 0.33749 0.0
C316 C 0.67373 0.62583 0.32501 0.0
C317 C 0.68199 0.63563 0.29986 0.0
H318 H 0.65994 0.61488 0.37484 0.0
C319 C 0.62795 0.7138 0.35246 0.0
C320 C 0.68888 0.77232 0.39653 0.0
C321 C 0.57557 0.80274 0.38676 0.0
C322 C 0.54966 0.837 0.38632 0.0
C323 C 0.57653 0.83308 0.42425 0.0
C324 C 0.58444 0.81182 0.4121 0.0
C325 C 0.55932 0.84552 0.41159 0.0
C326 C 0.55776 0.81526 0.37396 0.0
C327 C 0.58493 0.78017 0.37429 0.0
H328 H 0.78685 0.68945 0.32329 0.0
H329 H 0.75057 0.71194 0.32944 0.0
H330 H 0.846 0.72449 0.32604 0.0
H331 H 0.83336 0.80732 0.34355 0.0
H332 H 0.58353 0.83974 0.44374 0.0
H333 H 0.59756 0.80247 0.42276 0.0
H334 H 0.55291 0.86134 0.42192 0.0
H335 H 0.55051 0.80834 0.35452 0.0
C336 C 0.14424 0.84044 0.35782 0.0
C337 C 0.12279 0.82097 0.31593 0.0
C338 C 0.14959 0.83616 0.33267 0.0
C339 C 0.0911 0.8114 0.32457 0.0
C340 C 0.11236 0.8302 0.36671 0.0
C341 C 0.08589 0.81595 0.34989 0.0
N342 N 0.17027 0.85476 0.37363 0.0
C343 C 0.16621 0.85803 0.39875 0.0
C344 C 0.10805 0.83455 0.39228 0.0
C345 C 0.13508 0.84833 0.40841 0.0
Gd346 Gd 0.26616 0.96656 0.32905 0.0
Gd347 Gd 0.22152 0.87026 0.35632 0.0
N348 N 0.18062 0.84564 0.32483 0.0
C349 C 0.12847 0.81506 0.29112 0.0
C350 C 0.18552 0.83693 0.30128 0.0
C351 C 0.15986 0.82251 0.28393 0.0
H352 H 0.20876 0.83985 0.29571 0.0
H353 H 0.16419 0.81644 0.26515 0.0
H354 H 0.32574 0.00956 0.37034 0.0
H355 H 0.18716 0.86862 0.41118 0.0
H356 H 0.38585 0.04674 0.37028 0.0
H357 H 0.10858 0.80353 0.27769 0.0
H358 H 0.07035 0.8 0.31189 0.0
H359 H 0.24213 0.95856 0.26931 0.0
H360 H 0.08395 0.82711 0.39979 0.0
H361 H 0.13195 0.85147 0.42825 0.0
H362 H 0.41491 0.05899 0.28237 0.0
H363 H 0.06126 0.80812 0.35632 0.0
H364 H 0.32709 0.01058 0.22244 0.0
H365 H 0.26691 0.97639 0.22688 0.0
N366 N 0.28782 0.98213 0.2883 0.0
C367 C 0.3207 1.00164 0.28633 0.0
C368 C 0.26841 0.97339 0.26741 0.0
C369 C 0.31633 1.00279 0.24101 0.0
C370 C 0.28235 0.98353 0.24344 0.0
C371 C 0.33597 0.0122 0.26262 0.0
H372 H 0.38242 0.04034 0.24328 0.0
N373 N 0.32284 1.003 0.33058 0.0
C374 C 0.33886 0.01226 0.30821 0.0
C375 C 0.3901 0.04548 0.32985 0.0
C376 C 0.37297 0.03355 0.30717 0.0
C377 C 0.33902 0.01607 0.35269 0.0
C378 C 0.37295 0.03706 0.35269 0.0
O379 O 0.20146 0.90471 0.3615 0.0
O380 O 0.21355 0.92792 0.32296 0.0
O381 O 0.25161 0.99565 0.35218 0.0
O382 O 0.25563 1.00182 0.31179 0.0
O383 O 0.2508 0.88149 0.31952 0.0
O384 O 0.23935 0.92025 0.30659 0.0
O385 O 0.30347 0.95133 0.34092 0.0
O386 O 0.27603 0.89522 0.35144 0.0
O387 O 0.20681 0.81786 0.35443 0.0
O388 O 0.22824 0.8461 0.38867 0.0
O389 O 0.26479 0.96088 0.37146 0.0
O390 O 0.24445 0.90785 0.38818 0.0
C391 C 0.19409 0.91754 0.34252 0.0
C392 C 0.25313 0.90263 0.30225 0.0
C393 C 0.26481 0.04778 0.33524 0.0
C394 C 0.25836 0.09649 0.3354 0.0
C395 C 0.31246 0.10183 0.33124 0.0
C396 C 0.2987 0.06795 0.33265 0.0
C397 C 0.2926 0.11596 0.33219 0.0
C398 C 0.24479 0.06205 0.33705 0.0
C399 C 0.24982 0.01192 0.33293 0.0
C400 C 0.38865 0.04291 0.28359 0.0
C401 C 0.37016 0.03232 0.26134 0.0
H402 H 0.41635 0.06185 0.32988 0.0
C403 C 0.30276 0.92376 0.3474 0.0
C404 C 0.25786 0.94021 0.39049 0.0
C405 C 0.21288 0.78842 0.39063 0.0
C406 C 0.19801 0.73028 0.39197 0.0
C407 C 0.22042 0.76495 0.42911 0.0
C408 C 0.22291 0.79162 0.41592 0.0
C409 C 0.2081 0.73464 0.41734 0.0
C410 C 0.2001 0.75741 0.37866 0.0
C411 C 0.21571 0.81773 0.37758 0.0
H412 H 0.33863 0.11722 0.32873 0.0
H413 H 0.31442 0.05747 0.33089 0.0
H414 H 0.30437 0.14222 0.32977 0.0
H415 H 0.21869 0.04608 0.33938 0.0
H416 H 0.22805 0.76778 0.44863 0.0
H417 H 0.23261 0.81482 0.4257 0.0
H418 H 0.2062 0.71437 0.4283 0.0
H419 H 0.19234 0.75453 0.35915 0.0
C420 C 0.18034 0.32009 0.34578 0.0
C421 C 0.19479 0.31708 0.30233 0.0
C422 C 0.18116 0.32868 0.32056 0.0
C423 C 0.2065 0.29616 0.30964 0.0
C424 C 0.19239 0.29936 0.35321 0.0
C425 C 0.20529 0.28732 0.33499 0.0
N426 N 0.16732 0.33163 0.36305 0.0
C427 C 0.16688 0.32476 0.38811 0.0
C428 C 0.19111 0.29133 0.37878 0.0
C429 C 0.1784 0.30418 0.39631 0.0
Gd430 Gd 0.05219 0.31415 0.33041 0.0
Gd431 Gd 0.14993 0.36694 0.34792 0.0
N432 N 0.16949 0.34892 0.31396 0.0
C433 C 0.19687 0.32734 0.27733 0.0
C434 C 0.17441 0.36128 0.29001 0.0
C435 C 0.18714 0.34996 0.27125 0.0
H436 H 0.16992 0.38085 0.28521 0.0
H437 H 0.19026 0.35939 0.25221 0.0
H438 H 0.01834 0.33135 0.37949 0.0
H439 H 0.15729 0.33493 0.40168 0.0
H440 H 0.98205 0.35442 0.38676 0.0
H441 H 0.20708 0.31893 0.26279 0.0
H442 H 0.21677 0.28687 0.29583 0.0
H443 H 0.04857 0.29793 0.26942 0.0
H444 H 0.20007 0.27544 0.38521 0.0
H445 H 0.17759 0.29835 0.41614 0.0
H446 H 0.95368 0.3714 0.30325 0.0
H447 H 0.2145 0.27124 0.34032 0.0
H448 H 0.99116 0.33372 0.23366 0.0
H449 H 0.02485 0.30657 0.23107 0.0
N450 N 0.0295 0.32045 0.29337 0.0
C451 C 0.01036 0.33421 0.29553 0.0
C452 C 0.03419 0.30994 0.27067 0.0
C453 C 1.00178 0.33005 0.25053 0.0
C454 C 0.02062 0.31477 0.24891 0.0
C455 C 0.99614 0.33968 0.27412 0.0
H456 H 0.96526 0.35842 0.26077 0.0
N457 N 0.01698 0.33451 0.33954 0.0
C458 C 1.00379 0.34139 0.31938 0.0
C459 C 0.97549 0.35965 0.34713 0.0
C460 C 0.9829 0.35443 0.32257 0.0
C461 C 0.00863 0.33802 0.36356 0.0
C462 C 0.98813 0.35106 0.36771 0.0
O463 O 0.11703 0.31222 0.35371 0.0
O464 O 0.08814 0.29893 0.31755 0.0
O465 O 0.03091 0.26953 0.35295 0.0
O466 O 0.01001 0.26969 0.31672 0.0
O467 O 0.1323 0.38351 0.3136 0.0
O468 O 0.09283 0.33269 0.30212 0.0
O469 O 0.06888 0.3673 0.34174 0.0
O470 O 0.12464 0.3961 0.35248 0.0
O471 O 0.19933 0.40589 0.3385 0.0
O472 O 0.18385 0.39666 0.37733 0.0
O473 O 0.06449 0.31849 0.37181 0.0
O474 O 0.11883 0.35561 0.38351 0.0
C475 C 0.10297 0.29173 0.33506 0.0
C476 C 0.10959 0.36408 0.2975 0.0
C477 C 0.97459 0.23137 0.34664 0.0
C478 C 0.92803 0.17614 0.35348 0.0
C479 C 0.92454 0.22438 0.36514 0.0
C480 C 0.95649 0.24484 0.35672 0.0
C481 C 0.91033 0.19036 0.36347 0.0
C482 C 0.96039 0.19709 0.3451 0.0
C483 C 0.00779 0.25263 0.33667 0.0
C484 C 0.9696 0.36113 0.30122 0.0
C485 C 0.97621 0.35376 0.27703 0.0
H486 H 0.95954 0.36965 0.35039 0.0
C487 C 0.09576 0.39374 0.34979 0.0
C488 C 0.08765 0.33447 0.38874 0.0
C489 C 0.22691 0.4503 0.3671 0.0
C490 C 0.28063 0.50089 0.3668 0.0
C491 C 0.23389 0.49872 0.38862 0.0
C492 C 0.21397 0.46615 0.38142 0.0
C493 C 0.26692 0.51576 0.38182 0.0
C494 C 0.25994 0.46791 0.35938 0.0
C495 C 0.20736 0.41481 0.36178 0.0
H496 H 0.91058 0.23494 0.37275 0.0
H497 H 0.9669 0.2711 0.35783 0.0
H498 H 0.88522 0.17524 0.36963 0.0
H499 H 0.97464 0.18685 0.33745 0.0
H500 H 0.22384 0.51065 0.40001 0.0
H501 H 0.18873 0.45314 0.38759 0.0
H502 H 0.28166 0.54047 0.38887 0.0
H503 H 0.26933 0.45551 0.34783 0.0
C504 C 0.35703 0.20466 0.69806 0.0
C505 C 0.36301 0.22871 0.65659 0.0
C506 C 0.35126 0.20082 0.67223 0.0
C507 C 0.38132 0.26017 0.66712 0.0
C508 C 0.37523 0.23619 0.70873 0.0
C509 C 0.38739 0.2639 0.69311 0.0
N510 N 0.34638 0.17738 0.71258 0.0
C511 C 0.35217 0.17981 0.73793 0.0
C512 C 0.38135 0.23889 0.73471 0.0
C513 C 0.36971 0.21058 0.74937 0.0
Gd514 Gd 0.37385 0.08799 0.67187 0.0
Gd515 Gd 0.31683 0.12679 0.69198 0.0
N516 N 0.33412 0.16995 0.66243 0.0
C517 C 0.35561 0.22422 0.63087 0.0
C518 C 0.32455 0.16574 0.63775 0.0
C519 C 0.33578 0.19262 0.62152 0.0
H520 H 0.30727 0.14199 0.63047 0.0
H521 H 0.32857 0.18897 0.60187 0.0
H522 H 0.35369 0.04926 0.72833 0.0
H523 H 0.34298 0.15798 0.74935 0.0
H524 H 0.33112 0.99344 0.7448 0.0
H525 H 0.36414 0.245 0.61824 0.0
H526 H 0.39075 0.28181 0.65533 0.0
H527 H 0.38168 0.08273 0.60953 0.0
H528 H 0.39523 0.26269 0.7436 0.0
H529 H 0.37429 0.21245 0.76947 0.0
H530 H 0.31776 0.92832 0.67145 0.0
H531 H 0.40164 0.28832 0.70092 0.0
H532 H 0.35063 0.9827 0.59157 0.0
H533 H 0.37396 0.04017 0.57834 0.0
N534 N 0.36476 0.04944 0.64037 0.0
C535 C 0.35274 0.01801 0.6482 0.0
C536 C 0.37193 0.05761 0.61555 0.0
C537 C 0.35439 1.00117 0.60543 0.0
C538 C 0.36732 0.03367 0.59782 0.0
C539 C 0.34688 0.99294 0.63086 0.0
H540 H 0.32941 0.94106 0.62634 0.0
N541 N 0.35258 0.03561 0.68998 0.0
C542 C 0.3465 0.01087 0.67371 0.0
C543 C 0.32794 0.97216 0.70822 0.0
C544 C 0.33381 0.97844 0.68239 0.0
C545 C 0.34781 0.02973 0.71528 0.0
C546 C 0.33515 0.99796 0.72474 0.0
O547 O 0.37186 0.15665 0.69542 0.0
O548 O 0.38682 0.13949 0.66053 0.0
O549 O 0.41904 0.10054 0.69171 0.0
O550 O 0.41765 0.09886 0.65095 0.0
O551 O 0.30497 0.0983 0.65437 0.0
O552 O 0.35618 0.10937 0.6419 0.0
O553 O 0.31862 0.05089 0.67304 0.0
O554 O 0.30412 0.07573 0.70297 0.0
O555 O 0.2717 0.1269 0.68213 0.0
O556 O 0.28211 0.12239 0.72075 0.0
O557 O 0.37891 0.10667 0.71229 0.0
O558 O 0.33136 0.10619 0.72547 0.0
C559 C 0.39301 0.16212 0.67748 0.0
C560 C 0.32496 0.09756 0.63709 0.0
C561 C 0.45679 0.08938 0.67056 0.0
C562 C 0.51223 0.09757 0.6674 0.0
C563 C 0.46448 0.04245 0.66746 0.0
C564 C 0.44372 0.0554 0.66962 0.0
C565 C 0.49837 0.06324 0.66616 0.0
C566 C 0.49093 0.11035 0.66969 0.0
C567 C 0.43528 0.10357 0.67099 0.0
C568 C 0.32753 0.95337 0.66511 0.0
C569 C 0.33413 0.96062 0.63943 0.0
H570 H 0.31816 0.94757 0.71563 0.0
C571 C 0.29614 0.05123 0.68763 0.0
C572 C 0.35947 0.10712 0.73011 0.0
C573 C 0.25549 0.15297 0.71304 0.0
C574 C 0.22081 0.17804 0.71072 0.0
C575 C 0.26676 0.19969 0.73961 0.0
C576 C 0.27412 0.1759 0.73183 0.0
C577 C 0.24028 0.20075 0.7292 0.0
C578 C 0.22858 0.15419 0.70243 0.0
C579 C 0.26353 0.12732 0.70549 0.0
H580 H 0.45426 0.01616 0.66644 0.0
H581 H 0.41753 0.03896 0.67023 0.0
H582 H 0.5136 0.05229 0.66373 0.0
H583 H 0.50074 0.13659 0.67079 0.0
H584 H 0.2814 0.21712 0.75406 0.0
H585 H 0.29416 0.17526 0.74096 0.0
H586 H 0.23469 0.21917 0.7358 0.0
H587 H 0.21351 0.13644 0.68827 0.0
C588 C 0.81817 0.16521 0.68842 0.0
C589 C 0.79655 0.1486 0.64613 0.0
C590 C 0.82332 0.16655 0.66243 0.0
C591 C 0.76491 0.12988 0.65617 0.0
C592 C 0.78626 0.1472 0.69846 0.0
C593 C 0.7597 0.12955 0.68218 0.0
N594 N 0.8443 0.18226 0.70387 0.0
C595 C 0.84045 0.1822 0.7294 0.0
C596 C 0.78202 0.1474 0.72459 0.0
C597 C 0.80923 0.16502 0.74012 0.0
Gd598 Gd 0.93256 0.30364 0.67178 0.0
Gd599 Gd 0.89546 0.2075 0.68427 0.0
N600 N 0.85438 0.18464 0.65318 0.0
C601 C 0.80246 0.14916 0.62023 0.0
C602 C 0.86028 0.1835 0.62807 0.0
C603 C 0.83445 0.16656 0.6112 0.0
H604 H 0.88473 0.19395 0.62083 0.0
H605 H 0.83935 0.166 0.5913 0.0
H606 H 0.96984 0.32276 0.72876 0.0
H607 H 0.86149 0.19507 0.74153 0.0
H608 H 0.02595 0.35391 0.74547 0.0
H609 H 0.78269 0.13536 0.60713 0.0
H610 H 0.74431 0.1151 0.64403 0.0
H611 H 0.93762 0.32056 0.61068 0.0
H612 H 0.75786 0.13395 0.73298 0.0
H613 H 0.8062 0.16511 0.76035 0.0
H614 H 0.09287 0.40082 0.67184 0.0
H615 H 0.73505 0.11524 0.68955 0.0
H616 H 0.03898 0.38108 0.59176 0.0
H617 H 0.98023 0.35 0.57912 0.0
N618 N 0.97125 0.33323 0.64087 0.0
C619 C 1.00285 0.35084 0.64865 0.0
C620 C 0.96303 0.33346 0.61633 0.0
C621 C 0.02015 0.36785 0.60575 0.0
C622 C 0.9873 0.3505 0.59842 0.0
C623 C 0.02827 0.36847 0.63121 0.0
H624 H 0.08066 0.3998 0.6266 0.0
N625 N 0.9845 0.33395 0.69046 0.0
C626 C 0.00969 0.35159 0.6742 0.0
C627 C 0.04803 0.3702 0.70883 0.0
C628 C 0.04219 0.36976 0.68291 0.0
C629 C 0.98989 0.33541 0.71583 0.0
C630 C 0.02173 0.35325 0.72536 0.0
O631 O 0.86427 0.23136 0.68813 0.0
O632 O 0.8829 0.26741 0.65559 0.0
O633 O 0.90904 0.32686 0.6918 0.0
O634 O 0.93602 0.34862 0.65774 0.0
O635 O 0.92802 0.23092 0.6491 0.0
O636 O 0.91383 0.2692 0.63879 0.0
O637 O 0.96961 0.28552 0.67586 0.0
O638 O 0.94525 0.23893 0.70063 0.0
O639 O 0.90106 0.16805 0.66812 0.0
O640 O 0.88912 0.16655 0.7075 0.0
O641 O 0.91314 0.28555 0.711 0.0
O642 O 0.91352 0.23748 0.72075 0.0
C643 C 0.85878 0.24709 0.67023 0.0
C644 C 0.92792 0.2522 0.63285 0.0
C645 C 0.88882 0.35243 0.66454 0.0
C646 C 0.85618 0.37969 0.66307 0.0
C647 C 0.84184 0.33217 0.63667 0.0
C648 C 0.86845 0.33037 0.64605 0.0
C649 C 0.83558 0.35646 0.6452 0.0
C650 C 0.88294 0.37754 0.6728 0.0
C651 C 0.91633 0.34924 0.67457 0.0
C652 C 0.06771 0.38687 0.66553 0.0
C653 C 0.06076 0.38625 0.63975 0.0
H654 H 0.07267 0.38385 0.71628 0.0
C655 C 0.97101 0.26286 0.68965 0.0
C656 C 0.91321 0.26454 0.72737 0.0
C657 C 0.91101 0.13309 0.69435 0.0
C658 C 0.90966 0.08026 0.69624 0.0
C659 C 0.95873 0.13112 0.70849 0.0
C660 C 0.94327 0.14908 0.70312 0.0
C661 C 0.94213 0.09708 0.70524 0.0
C662 C 0.89441 0.09884 0.69075 0.0
C663 C 0.89386 0.15134 0.68898 0.0
H664 H 0.82622 0.31488 0.62249 0.0
H665 H 0.87339 0.31196 0.63863 0.0
H666 H 0.81508 0.35769 0.63724 0.0
H667 H 0.89896 0.39515 0.68667 0.0
H668 H 0.98362 0.14361 0.71546 0.0
H669 H 0.95633 0.17533 0.70591 0.0
H670 H 0.95469 0.08397 0.71027 0.0
H671 H 0.86965 0.08684 0.68348 0.0
C672 C 0.87674 0.70347 0.70876 0.0
C673 C 0.90129 0.70044 0.66934 0.0
C674 C 0.87767 0.7047 0.68253 0.0
C675 C 0.92396 0.69532 0.68279 0.0
C676 C 0.89942 0.69824 0.7223 0.0
C677 C 0.9231 0.69434 0.70919 0.0
N678 N 0.85349 0.7071 0.72103 0.0
C679 C 0.85168 0.70617 0.74672 0.0
C680 C 0.8977 0.6972 0.74868 0.0
C681 C 0.87365 0.70107 0.76093 0.0
Gd682 Gd 0.7238 0.65197 0.67219 0.0
Gd683 Gd 0.82098 0.72004 0.6959 0.0
N684 N 0.85506 0.70923 0.66994 0.0
C685 C 0.90127 0.70113 0.64298 0.0
C686 C 0.85528 0.71023 0.64421 0.0
C687 C 0.87814 0.70599 0.63039 0.0
H688 H 0.83836 0.71467 0.63402 0.0
H689 H 0.87804 0.70675 0.60998 0.0
H690 H 0.69321 0.67072 0.72254 0.0
H691 H 0.83394 0.71033 0.7564 0.0
H692 H 0.64991 0.68434 0.73148 0.0
H693 H 0.91896 0.69789 0.63217 0.0
H694 H 0.94223 0.692 0.67294 0.0
H695 H 0.72236 0.63956 0.61012 0.0
H696 H 0.9149 0.69361 0.75978 0.0
H697 H 0.87231 0.70058 0.78132 0.0
H698 H 0.6016 0.67846 0.65057 0.0
H699 H 0.94078 0.6904 0.71928 0.0
H700 H 0.64558 0.65189 0.57858 0.0
H701 H 0.69054 0.63979 0.57299 0.0
N702 N 0.69528 0.6511 0.63603 0.0
C703 C 0.6708 0.65792 0.63958 0.0
C704 C 0.70261 0.64469 0.61256 0.0
C705 C 0.65931 0.65165 0.59486 0.0
C706 C 0.68468 0.64479 0.59162 0.0
C707 C 0.65212 0.65838 0.61903 0.0
H708 H 0.61252 0.66629 0.60766 0.0
N709 N 0.68401 0.66551 0.68308 0.0
C710 C 0.66491 0.66521 0.66377 0.0
C711 C 0.63451 0.67957 0.69271 0.0
C712 C 0.63981 0.67255 0.66805 0.0
C713 C 0.67839 0.67133 0.70728 0.0
C714 C 0.65386 0.67893 0.71239 0.0
O715 O 0.8077 0.66693 0.69485 0.0
O716 O 0.76983 0.65015 0.66344 0.0
O717 O 0.70212 0.60709 0.69423 0.0
O718 O 0.69281 0.60472 0.65418 0.0
O719 O 0.80453 0.73048 0.65786 0.0
O720 O 0.76703 0.67799 0.64568 0.0
O721 O 0.73293 0.70464 0.67548 0.0
O722 O 0.77221 0.71528 0.70284 0.0
O723 O 0.86185 0.76914 0.68741 0.0
O724 O 0.83871 0.75864 0.72382 0.0
O725 O 0.73423 0.6518 0.71409 0.0
O726 O 0.78605 0.69254 0.72897 0.0
C727 C 0.78611 0.6435 0.68031 0.0
C728 C 0.78247 0.70992 0.64161 0.0
C729 C 0.65078 0.56485 0.67986 0.0
C730 C 0.60508 0.50838 0.68262 0.0
C731 C 0.59677 0.55421 0.69214 0.0
C732 C 0.6297 0.57625 0.68726 0.0
C733 C 0.58457 0.52055 0.69006 0.0
C734 C 0.63831 0.5308 0.67727 0.0
C735 C 0.68575 0.58839 0.67525 0.0
C736 C 0.62095 0.67278 0.64766 0.0
C737 C 0.62714 0.66581 0.62322 0.0
H738 H 0.61552 0.68544 0.69677 0.0
C739 C 0.75715 0.72639 0.68921 0.0
C740 C 0.75619 0.66649 0.73224 0.0
C741 C 0.89632 0.79441 0.72329 0.0
C742 C 0.95624 0.82927 0.72303 0.0
C743 C 0.92758 0.80388 0.762 0.0
C744 C 0.89773 0.78977 0.74942 0.0
C745 C 0.95656 0.82353 0.74899 0.0
C746 C 0.92597 0.81425 0.71006 0.0
C747 C 0.86381 0.77924 0.71053 0.0
H748 H 0.58064 0.56326 0.69764 0.0
H749 H 0.63868 0.60217 0.68939 0.0
H750 H 0.5589 0.50395 0.69401 0.0
H751 H 0.65448 0.52181 0.67163 0.0
H752 H 0.92821 0.79985 0.78204 0.0
H753 H 0.8757 0.77525 0.76035 0.0
H754 H 0.97943 0.83446 0.75931 0.0
H755 H 0.92546 0.81865 0.69005 0.0
H756 H 0.48663 0.5785 0.96768 0.0
H757 H 0.42869 0.56219 0.96498 0.0
H758 H 0.42588 0.57312 0.04569 0.0
H759 H 0.48317 0.58736 0.04844 0.0
H760 H 0.37795 0.52026 0.03542 0.0
H761 H 0.41682 0.62491 0.99953 0.0
H762 H 0.44904 0.67197 0.97138 0.0
H763 H 0.40019 0.61228 0.90688 0.0
H764 H 0.36799 0.5647 0.93461 0.0
H765 H 0.21309 0.50529 0.98539 0.0
H766 H 0.27154 0.5392 0.99567 0.0
H767 H 0.28171 0.45325 0.99286 0.0
H768 H 0.22366 0.41944 0.98361 0.0
H769 H 0.32488 0.55235 0.96962 0.0
H770 H 0.33814 0.45799 0.0325 0.0
H771 H 0.3061 0.41572 0.06428 0.0
H772 H 0.25119 0.46351 0.08123 0.0
H773 H 0.28326 0.50639 0.04984 0.0
C774 C 0.47377 0.57818 0.98471 0.0
C775 C 0.48926 0.58408 1.00827 0.0
C776 C 0.4406 0.56897 0.98319 0.0
C777 C 0.42259 0.56656 1.00512 0.0
C778 C 0.43889 0.57451 0.02847 0.0
C779 C 0.47172 0.58284 0.03005 0.0
C780 C 0.38631 0.55268 1.0041 0.0
C781 C 0.36654 0.52748 0.02103 0.0
C782 C 0.37095 0.5626 0.98596 0.0
C783 C 0.39013 0.59116 0.96916 0.0
C784 C 0.41309 0.62175 0.97933 0.0
C785 C 0.43134 0.64853 0.96345 0.0
C786 C 0.4267 0.6451 0.93736 0.0
C787 C 0.40376 0.61489 0.9271 0.0
C788 C 0.38547 0.58802 0.94289 0.0
C789 C 0.22771 0.49361 0.9875 0.0
C790 C 0.21369 0.45966 0.9836 0.0
C791 C 0.26118 0.51305 0.99311 0.0
C792 C 0.28113 0.49882 0.99519 0.0
C793 C 0.26692 0.46486 0.99174 0.0
C794 C 0.23367 0.44553 0.98622 0.0
C795 C 0.31697 0.51913 1.00021 0.0
C796 C 0.33653 0.54545 0.98407 0.0
C797 C 0.33225 0.51089 0.01955 0.0
C798 C 0.31299 0.4853 0.03864 0.0
C799 C 0.31937 0.45961 0.04309 0.0
C800 C 0.30117 0.43551 0.06103 0.0
C801 C 0.27656 0.43688 0.07472 0.0
C802 C 0.27018 0.46241 0.07055 0.0
C803 C 0.28834 0.4866 0.05266 0.0
H804 H 0.26248 0.41818 0.08859 0.0
H805 H 0.44085 0.66586 0.9251 0.0
H806 H 0.45573 0.93738 0.97263 0.0
H807 H 0.47312 0.89617 0.97369 0.0
H808 H 0.46846 0.89512 0.05501 0.0
H809 H 0.45026 0.93521 0.0539 0.0
H810 H 0.52623 0.89962 0.99177 0.0
H811 H 0.45334 0.82421 0.07985 0.0
H812 H 0.39928 0.80468 0.0995 0.0
H813 H 0.35954 0.80952 0.02788 0.0
H814 H 0.41321 0.82861 1.00773 0.0
H815 H 0.56483 0.78882 0.07416 0.0
H816 H 0.53707 0.81997 0.06637 0.0
H817 H 0.53009 0.79615 0.98729 0.0
H818 H 0.5576 0.76445 0.99498 0.0
H819 H 0.47433 0.79974 0.04513 0.0
H820 H 0.54333 0.8687 0.95581 0.0
H821 H 0.59655 0.88773 0.9348 0.0
H822 H 0.64155 0.8939 1.00648 0.0
H823 H 0.58875 0.87539 0.02792 0.0
C824 C 0.45758 0.92762 0.99065 0.0
C825 C 0.45158 0.93948 0.01318 0.0
C826 C 0.46786 0.90432 0.99128 0.0
C827 C 0.47189 0.89211 0.01443 0.0
C828 C 0.46493 0.90339 0.03685 0.0
C829 C 0.45468 0.92654 0.03621 0.0
C830 C 0.48492 0.86896 0.01549 0.0
C831 C 0.51444 0.87743 1.00303 0.0
C832 C 0.46996 0.8401 0.03042 0.0
C833 C 0.43742 0.8281 0.04233 0.0
C834 C 0.43303 0.82093 0.06827 0.0
C835 C 0.40246 0.80998 0.0795 0.0
C836 C 0.37602 0.80595 0.06496 0.0
C837 C 0.38007 0.81275 0.03914 0.0
C838 C 0.41057 0.82368 0.02781 0.0
C839 C 0.55731 0.79 0.05509 0.0
C840 C 0.56343 0.77393 0.03522 0.0
C841 C 0.54129 0.80778 0.0507 0.0
C842 C 0.53155 0.81055 0.02625 0.0
C843 C 0.53746 0.79448 1.00632 0.0
C844 C 0.55303 0.77619 0.01078 0.0
C845 C 0.51572 0.83074 0.02174 0.0
C846 C 0.48576 0.82171 0.03361 0.0
C847 C 0.53004 0.85882 1.00603 0.0
C848 C 0.56198 0.87019 0.9934 0.0
C849 C 0.56461 0.87416 0.96707 0.0
C850 C 0.5947 0.88488 0.95509 0.0
C851 C 0.62238 0.89187 0.96928 0.0
C852 C 0.62005 0.88831 0.9955 0.0
C853 C 0.59004 0.87764 1.00757 0.0
H854 H 0.64564 0.90015 0.95997 0.0
H855 H 0.35239 0.7975 0.0737 0.0
H856 H 0.19943 0.80487 0.01577 0.0
H857 H 0.17223 0.74586 0.01393 0.0
H858 H 0.26289 0.75106 0.99238 0.0
H859 H 0.28944 0.81046 0.9906 0.0
H860 H 0.22054 0.7044 0.96892 0.0
H861 H 0.22547 0.72999 0.05582 0.0
H862 H 0.219 0.75514 0.09459 0.0
H863 H 0.11486 0.70459 0.08392 0.0
H864 H 0.12073 0.67951 0.04488 0.0
H865 H 0.1084 0.53555 0.041 0.0
H866 H 0.15006 0.59348 0.04016 0.0
H867 H 0.13001 0.59765 0.96113 0.0
H868 H 0.09055 0.53878 0.96167 0.0
H869 H 0.14236 0.63966 0.03673 0.0
H870 H 0.18639 0.6653 0.93203 0.0
H871 H 0.20076 0.63905 0.89795 0.0
H872 H 0.22201 0.58522 0.95272 0.0
H873 H 0.2082 0.61146 0.98712 0.0
C874 C 0.21374 0.79387 1.00998 0.0
C875 C 0.24698 0.81328 1.00315 0.0
C876 C 0.1981 0.75967 1.00956 0.0
C877 C 0.21548 0.74351 1.00369 0.0
C878 C 0.24872 0.76264 0.99712 0.0
C879 C 0.26415 0.79696 0.99658 0.0
C880 C 0.19877 0.70682 1.00408 0.0
C881 C 0.20366 0.69029 0.9839 0.0
C882 C 0.17728 0.68795 0.02385 0.0
C883 C 0.1736 0.7031 0.04728 0.0
C884 C 0.20121 0.72442 0.06164 0.0
C885 C 0.19764 0.73865 0.08368 0.0
C886 C 0.16655 0.73153 0.09168 0.0
C887 C 0.13894 0.71012 0.07768 0.0
C888 C 0.14237 0.69587 0.0556 0.0
C889 C 0.11407 0.54865 0.02322 0.0
C890 C 0.09675 0.5328 1.00132 0.0
C891 C 0.13756 0.58192 0.02278 0.0
C892 C 0.14343 0.60047 1.00062 0.0
C893 C 0.12692 0.58413 0.97838 0.0
C894 C 0.10425 0.55041 0.97864 0.0
C895 C 0.16413 0.63707 1.00162 0.0
C896 C 0.15968 0.65364 0.02195 0.0
C897 C 0.18731 0.65579 0.98273 0.0
C898 C 0.19597 0.64015 0.96214 0.0
C899 C 0.19427 0.64798 0.9368 0.0
C900 C 0.20229 0.63307 0.91743 0.0
C901 C 0.2122 0.61042 0.92317 0.0
C902 C 0.21422 0.60269 0.9483 0.0
C903 C 0.20626 0.61754 0.96774 0.0
H904 H 0.21836 0.59889 0.90814 0.0
H905 H 0.16384 0.74256 0.10875 0.0
H906 H 0.40353 0.092 0.98901 0.0
H907 H 0.41596 0.14936 0.98937 0.0
H908 H 0.46328 0.16373 0.06154 0.0
H909 H 0.45226 0.1074 0.06074 0.0
H910 H 0.40908 0.19458 0.01889 0.0
H911 H 0.53679 0.23173 0.05993 0.0
H912 H 0.57403 0.20924 0.06202 0.0
H913 H 0.53285 0.15541 0.99362 0.0
H914 H 0.49589 0.1781 0.99081 0.0
H915 H 0.49358 0.36336 0.05738 0.0
H916 H 0.46543 0.30352 0.05325 0.0
H917 H 0.53434 0.31283 0.99571 0.0
H918 H 0.56282 0.37238 1.00025 0.0
H919 H 0.52898 0.26923 0.02632 0.0
H920 H 0.45084 0.28724 0.9834 0.0
H921 H 0.41289 0.30825 0.97716 0.0
H922 H 0.35562 0.25198 0.04055 0.0
H923 H 0.3935 0.23096 0.04739 0.0
C924 C 0.41586 0.10722 1.00521 0.0
C925 C 0.42769 0.09548 0.02453 0.0
C926 C 0.42294 0.14001 1.00542 0.0
C927 C 0.44146 0.16123 0.02515 0.0
C928 C 0.44972 0.14819 0.0458 0.0
C929 C 0.44326 0.11587 0.04537 0.0
C930 C 0.4558 0.19753 0.02308 0.0
C931 C 0.43527 0.21096 0.02053 0.0
C932 C 0.49012 0.21902 0.02442 0.0
C933 C 0.51337 0.20645 0.0253 0.0
C934 C 0.53589 0.21534 0.04521 0.0
C935 C 0.55692 0.20252 0.04654 0.0
C936 C 0.55575 0.18085 0.028 0.0
C937 C 0.53371 0.17215 1.00799 0.0
C938 C 0.51273 0.18502 1.00651 0.0
C939 C 0.50235 0.35263 0.04356 0.0
C940 C 0.53058 0.3727 0.02926 0.0
C941 C 0.4862 0.31832 0.04116 0.0
C942 C 0.49756 0.30331 0.02408 0.0
C943 C 0.52509 0.32352 1.00918 0.0
C944 C 0.54139 0.35767 0.01177 0.0
C945 C 0.48228 0.26672 0.02274 0.0
C946 C 0.50275 0.25309 0.02463 0.0
C947 C 0.44805 0.24522 0.02009 0.0
C948 C 0.4252 0.25776 0.01604 0.0
C949 C 0.4303 0.27954 0.99613 0.0
C950 C 0.40878 0.29142 0.99247 0.0
C951 C 0.38191 0.28152 1.00849 0.0
C952 C 0.37647 0.25966 0.02817 0.0
C953 C 0.39794 0.24773 0.03194 0.0
H954 H 0.36527 0.29075 1.00562 0.0
H955 H 0.57195 0.17086 0.02913 0.0
H956 H 0.68752 0.12399 0.04934 0.0
H957 H 0.74316 0.16764 0.03996 0.0
H958 H 0.70843 0.23587 0.03021 0.0
H959 H 0.65241 0.19213 0.03984 0.0
H960 H 0.75948 0.24662 0.99577 0.0
H961 H 0.73769 0.23361 0.08506 0.0
H962 H 0.71898 0.20219 0.12472 0.0
H963 H 0.7922 0.1741 0.11713 0.0
H964 H 0.81101 0.20494 0.07719 0.0
H965 H 0.919 0.37984 0.05978 0.0
H966 H 0.86298 0.33398 0.06252 0.0
H967 H 0.87778 0.29295 0.99438 0.0
H968 H 0.93335 0.33972 0.99092 0.0
H969 H 0.83584 0.26966 0.06728 0.0
H970 H 0.80701 0.25579 0.96119 0.0
H971 H 0.82744 0.28946 0.92261 0.0
H972 H 0.85554 0.37653 0.966 0.0
H973 H 0.83488 0.34337 1.00474 0.0
C974 C 0.69159 0.14819 0.04493 0.0
C975 C 0.66555 0.15467 0.04577 0.0
C976 C 0.72344 0.17311 0.03948 0.0
C977 C 0.73011 0.20518 0.03477 0.0
C978 C 0.70389 0.21132 0.03382 0.0
C979 C 0.67186 0.18628 0.03929 0.0
C980 C 0.76468 0.23258 0.03339 0.0
C981 C 0.77618 0.25162 0.01137 0.0
C982 C 0.7865 0.2395 0.05384 0.0
C983 C 0.77555 0.22133 0.07803 0.0
C984 C 0.74965 0.22054 0.09177 0.0
C985 C 0.73904 0.20286 0.1143 0.0
C986 C 0.75434 0.18609 0.12341 0.0
C987 C 0.78035 0.18706 0.11003 0.0
C988 C 0.791 0.20465 0.08746 0.0
C989 C 0.91039 0.36102 0.04538 0.0
C990 C 0.93075 0.3635 0.02508 0.0
C991 C 0.87836 0.33467 0.04707 0.0
C992 C 0.86587 0.31012 0.0285 0.0
C993 C 0.88661 0.31178 1.00877 0.0
C994 C 0.91863 0.33831 1.007 0.0
C995 C 0.83091 0.28349 0.02954 0.0
C996 C 0.81925 0.2646 0.05158 0.0
C997 C 0.80896 0.27711 1.00925 0.0
C998 C 0.81958 0.29708 0.98587 0.0
C999 C 0.81724 0.28208 0.96244 0.0
C1000 C 0.82895 0.30109 0.94056 0.0
C1001 C 0.84287 0.33511 0.94187 0.0
C1002 C 0.84483 0.35018 0.96502 0.0
C1003 C 0.83311 0.33129 0.98694 0.0
H1004 H 0.8521 0.34979 0.92494 0.0
H1005 H 0.74609 0.17241 0.14086 0.0
H1006 H 0.87719 0.53475 0.0387 0.0
H1007 H 0.84603 0.56293 0.03254 0.0
H1008 H 0.75955 0.47036 0.01637 0.0
H1009 H 0.79079 0.44248 0.02088 0.0
H1010 H 0.76207 0.51212 0.9849 0.0
H1011 H 0.77557 0.51441 0.0753 0.0
H1012 H 0.80684 0.52792 0.11503 0.0
H1013 H 0.85432 0.63036 0.09671 0.0
H1014 H 0.82359 0.6174 0.05671 0.0
H1015 H 0.62825 0.53042 1.0077 0.0
H1016 H 0.67257 0.51909 1.00884 0.0
H1017 H 0.74177 0.62209 0.01814 0.0
H1018 H 0.69613 0.63365 0.01874 0.0
H1019 H 0.75645 0.58548 0.04934 0.0
H1020 H 0.73774 0.58056 0.95927 0.0
H1021 H 0.7055 0.56393 0.91988 0.0
H1022 H 0.66408 0.46273 0.94003 0.0
H1023 H 0.69678 0.47861 0.97912 0.0
C1024 C 0.85164 0.52038 0.03352 0.0
C1025 C 0.83664 0.48611 0.03049 0.0
C1026 C 0.83366 0.53656 0.03034 0.0
C1027 C 0.80012 0.51887 0.02434 0.0
C1028 C 0.78529 0.48477 0.02108 0.0
C1029 C 0.80323 0.46869 0.02398 0.0
C1030 C 0.78022 0.53537 0.02088 0.0
C1031 C 0.76082 0.52801 0.99914 0.0
C1032 C 0.77913 0.55712 0.0389 0.0
C1033 C 0.79761 0.56491 0.06289 0.0
C1034 C 0.79288 0.5398 0.07966 0.0
C1035 C 0.81046 0.54736 0.10223 0.0
C1036 C 0.83263 0.57997 0.10835 0.0
C1037 C 0.83719 0.6051 0.09192 0.0
C1038 C 0.8197 0.59767 0.0693 0.0
C1039 C 0.6527 0.5509 1.0105 0.0
C1040 C 0.65824 0.58295 0.01395 0.0
C1041 C 0.67835 0.54434 1.01055 0.0
C1042 C 0.71084 0.56966 0.01313 0.0
C1043 C 0.71691 0.60202 0.01605 0.0
C1044 C 0.69083 0.60866 0.01631 0.0
C1045 C 0.73757 0.56124 0.01378 0.0
C1046 C 0.75824 0.57011 0.03492 0.0
C1047 C 0.73958 0.54042 0.99541 0.0
C1048 C 0.71958 0.53082 0.97211 0.0
C1049 C 0.72165 0.5548 0.9553 0.0
C1050 C 0.70336 0.54551 0.93304 0.0
C1051 C 0.68251 0.51239 0.92759 0.0
C1052 C 0.68019 0.48839 0.94427 0.0
C1053 C 0.6988 0.4975 0.96638 0.0
H1054 H 0.66828 0.50534 0.91038 0.0
H1055 H 0.84621 0.58578 0.12584 0.0
H1056 H 0.88878 0.75025 0.35193 0.0
H1057 H 0.94776 0.78209 0.35268 0.0
H1058 H 0.94428 0.86828 0.33027 0.0
H1059 H 0.8849 0.8354 0.3263 0.0
H1060 H 0.99196 0.87209 0.30815 0.0
H1061 H 0.96254 0.85187 0.39414 0.0
H1062 H 0.93516 0.82064 0.43258 0.0
H1063 H 0.98427 0.76517 0.42494 0.0
H1064 H 0.01157 0.79572 0.38625 0.0
H1065 H 0.15919 0.92352 0.38073 0.0
H1066 H 0.10161 0.90859 0.38049 0.0
H1067 H 0.0951 0.88161 0.30189 0.0
H1068 H 0.15337 0.89932 0.30176 0.0
H1069 H 0.0527 0.85623 0.37771 0.0
H1070 H 0.03064 0.87524 0.27205 0.0
H1071 H 0.05913 0.91528 0.23799 0.0
H1072 H 0.11502 0.98961 0.29283 0.0
H1073 H 0.08656 0.95017 0.32722 0.0
C1074 C 0.90024 0.77578 0.34656 0.0
C1075 C 0.88142 0.7898 0.33867 0.0
C1076 C 0.93434 0.79433 0.34763 0.0
C1077 C 0.95093 0.82801 0.34215 0.0
C1078 C 0.93233 0.8424 0.33472 0.0
C1079 C 0.89809 0.82353 0.33282 0.0
C1080 C 0.98756 0.84766 0.34353 0.0
C1081 C 1.00519 0.86878 0.32349 0.0
C1082 C 1.0053 0.84447 0.36386 0.0
C1083 C 0.98891 0.82594 0.38715 0.0
C1084 C 0.96733 0.83286 0.40055 0.0
C1085 C 0.95184 0.81529 0.4224 0.0
C1086 C 0.95792 0.79089 0.43116 0.0
C1087 C 0.97956 0.78406 0.41812 0.0
C1088 C 0.99508 0.80152 0.39623 0.0
C1089 C 0.14559 0.91537 0.36324 0.0
C1090 C 0.16068 0.91274 0.34124 0.0
C1091 C 0.11255 0.90653 0.36312 0.0
C1092 C 0.09353 0.89396 0.34115 0.0
C1093 C 0.10903 0.89214 0.31895 0.0
C1094 C 0.14242 0.90211 0.31887 0.0
C1095 C 0.05721 0.88023 0.34211 0.0
C1096 C 0.03959 0.86004 0.36254 0.0
C1097 C 0.03967 0.88566 0.32281 0.0
C1098 C 0.05662 0.90964 0.30221 0.0
C1099 C 0.04888 0.90017 0.27685 0.0
C1100 C 0.06506 0.92275 0.25748 0.0
C1101 C 0.08893 0.95494 0.26324 0.0
C1102 C 0.0966 0.96464 0.28839 0.0
C1103 C 0.08048 0.94217 0.30782 0.0
H1104 H 0.10144 0.97237 0.24822 0.0
H1105 H 0.9459 0.77732 0.44808 0.0
H1106 H 0.11897 0.26816 0.29352 0.0
H1107 H 0.1385 0.22894 0.29341 0.0
H1108 H 0.11373 0.20921 0.37245 0.0
H1109 H 0.09764 0.25095 0.37293 0.0
H1110 H 0.16625 0.2151 0.36984 0.0
H1111 H 0.0743 0.1508 0.31806 0.0
H1112 H 0.03558 0.13782 0.28288 0.0
H1113 H 0.1127 0.16074 0.22958 0.0
H1114 H 0.152 0.17427 0.26443 0.0
H1115 H 0.19288 0.0702 0.32191 0.0
H1116 H 0.15962 0.09627 0.32347 0.0
H1117 H 0.24347 0.18622 0.34853 0.0
H1118 H 0.27539 0.15932 0.35064 0.0
H1119 H 0.1556 0.13921 0.30105 0.0
H1120 H 0.22728 0.23654 0.37933 0.0
H1121 H 0.25643 0.24109 0.41904 0.0
H1122 H 0.20228 0.13646 0.42764 0.0
H1123 H 0.17247 0.1313 0.38817 0.0
C1124 C 0.11702 0.25478 0.31066 0.0
C1125 C 0.107 0.26263 0.33326 0.0
C1126 C 0.12802 0.23208 0.31061 0.0
C1127 C 0.12769 0.21559 0.33292 0.0
C1128 C 0.11498 0.22173 0.355 0.0
C1129 C 0.10537 0.24537 0.35526 0.0
C1130 C 0.14336 0.19462 0.33408 0.0
C1131 C 0.16349 0.1983 0.35482 0.0
C1132 C 0.13966 0.17196 0.31492 0.0
C1133 C 0.11614 0.16379 0.29387 0.0
C1134 C 0.08305 0.15327 0.29883 0.0
C1135 C 0.06099 0.14578 0.27895 0.0
C1136 C 0.07169 0.14851 0.25401 0.0
C1137 C 0.10446 0.15866 0.2489 0.0
C1138 C 0.12663 0.16619 0.26872 0.0
C1139 C 0.20419 0.09519 0.32861 0.0
C1140 C 0.2373 0.11223 0.33622 0.0
C1141 C 0.18507 0.11038 0.32904 0.0
C1142 C 0.19857 0.1433 0.33654 0.0
C1143 C 0.23176 0.16056 0.34346 0.0
C1144 C 0.25047 0.14511 0.344 0.0
C1145 C 0.17839 0.15984 0.3368 0.0
C1146 C 0.15776 0.15559 0.31624 0.0
C1147 C 0.18011 0.18064 0.35683 0.0
C1148 C 0.19787 0.18353 0.38065 0.0
C1149 C 0.2215 0.21451 0.38974 0.0
C1150 C 0.23816 0.2172 0.4122 0.0
C1151 C 0.23129 0.18907 0.42581 0.0
C1152 C 0.20767 0.15821 0.41703 0.0
C1153 C 0.1909 0.15539 0.3946 0.0
H1154 H 0.24423 0.19121 0.44318 0.0
H1155 H 0.05458 0.14272 0.23864 0.0
H1156 H 0.88609 0.12974 0.38708 0.0
H1157 H 0.85783 0.07039 0.3829 0.0
H1158 H 0.90712 0.07979 0.31219 0.0
H1159 H 0.93421 0.13954 0.31552 0.0
H1160 H 0.84587 0.03512 0.30749 0.0
H1161 H 0.92767 0.05329 0.36747 0.0
H1162 H 0.96137 0.07597 0.40568 0.0
H1163 H 0.87557 0.02566 0.45208 0.0
H1164 H 0.84127 1.00304 0.41414 0.0
H1165 H 0.76356 0.85859 0.30805 0.0
H1166 H 0.8074 0.91621 0.30656 0.0
H1167 H 0.77709 0.93252 0.37943 0.0
H1168 H 0.73572 0.87513 0.38186 0.0
H1169 H 0.83864 0.96372 0.37874 0.0
H1170 H 0.75704 0.95498 0.31602 0.0
H1171 H 0.7254 0.93441 0.27658 0.0
H1172 H 0.81414 0.96666 0.23466 0.0
H1173 H 0.84638 0.98771 0.27378 0.0
C1174 C 0.89084 0.11933 0.3705 0.0
C1175 C 0.91245 0.13968 0.3516 0.0
C1176 C 0.87495 0.08522 0.36832 0.0
C1177 C 0.88066 0.07038 0.34742 0.0
C1178 C 0.9024 0.09055 0.32857 0.0
C1179 C 0.91815 0.12479 0.33065 0.0
C1180 C 0.86283 0.03391 0.34496 0.0
C1181 C 0.84476 0.01951 0.32294 0.0
C1182 C 0.8613 0.01331 0.36499 0.0
C1183 C 0.88187 0.02661 0.38792 0.0
C1184 C 0.91596 0.04721 0.38581 0.0
C1185 C 0.93517 0.06004 0.40743 0.0
C1186 C 0.92061 0.0523 0.43129 0.0
C1187 C 0.88681 0.03164 0.43358 0.0
C1188 C 0.86748 0.01876 0.41203 0.0
C1189 C 0.76655 0.87447 0.32382 0.0
C1190 C 0.74552 0.86232 0.34481 0.0
C1191 C 0.79141 0.90756 0.32285 0.0
C1192 C 0.79528 0.92923 0.34263 0.0
C1193 C 0.77479 0.91666 0.36381 0.0
C1194 C 0.75067 0.88371 0.36503 0.0
C1195 C 0.82024 0.96498 0.34183 0.0
C1196 C 0.83997 0.9793 0.3632 0.0
C1197 C 0.82349 0.98545 0.32113 0.0
C1198 C 0.80402 0.97254 0.2978 0.0
C1199 C 0.76973 0.95749 0.2984 0.0
C1200 C 0.75172 0.94578 0.27613 0.0
C1201 C 0.76768 0.94896 0.2532 0.0
C1202 C 0.80178 0.9641 0.25244 0.0
C1203 C 0.81994 0.97602 0.27463 0.0
H1204 H 0.75363 0.93983 0.236 0.0
H1205 H 0.93553 0.06227 0.448 0.0
H1206 H 0.14304 0.69429 0.36233 0.0
H1207 H 0.11945 0.63678 0.34908 0.0
H1208 H 0.20062 0.63357 0.38342 0.0
H1209 H 0.22466 0.6908 0.39554 0.0
H1210 H 0.18629 0.59991 0.34316 0.0
H1211 H 0.12169 0.60404 0.41266 0.0
H1212 H 0.08605 0.62093 0.43407 0.0
H1213 H 0.01466 0.57663 0.37516 0.0
H1214 H 0.0501 0.55982 0.35325 0.0
H1215 H 0.1335 0.44148 0.38297 0.0
H1216 H 0.14385 0.49748 0.38449 0.0
H1217 H 0.06832 0.47354 0.32918 0.0
H1218 H 0.05805 0.41681 0.32728 0.0
H1219 H 0.07387 0.51956 0.37153 0.0
H1220 H 0.13812 0.50617 0.30749 0.0
H1221 H 0.1744 0.4868 0.29119 0.0
H1222 H 0.24896 0.54884 0.3438 0.0
H1223 H 0.21261 0.56747 0.36124 0.0
C1224 C 0.15615 0.68147 0.36652 0.0
C1225 C 0.18556 0.69714 0.3803 0.0
C1226 C 0.14243 0.64839 0.35922 0.0
C1227 C 0.15776 0.63027 0.36569 0.0
C1228 C 0.188 0.6466 0.37823 0.0
C1229 C 0.2017 0.67945 0.38534 0.0
C1230 C 0.1424 0.59417 0.36049 0.0
C1231 C 0.1617 0.58247 0.3494 0.0
C1232 C 0.10998 0.571 0.36803 0.0
C1233 C 0.0887 0.58107 0.38117 0.0
C1234 C 0.09849 0.59813 0.40419 0.0
C1235 C 0.07832 0.60765 0.41642 0.0
C1236 C 0.04816 0.59996 0.40594 0.0
C1237 C 0.03807 0.58264 0.38323 0.0
C1238 C 0.05818 0.57311 0.3709 0.0
C1239 C 0.11877 0.44789 0.37127 0.0
C1240 C 0.09554 0.42481 0.35452 0.0
C1241 C 0.12466 0.47999 0.37225 0.0
C1242 C 0.10738 0.49 0.35659 0.0
C1243 C 0.08214 0.46642 0.34132 0.0
C1244 C 0.07624 0.43399 0.34028 0.0
C1245 C 0.11819 0.52566 0.35497 0.0
C1246 C 0.09816 0.53715 0.36478 0.0
C1247 C 0.15019 0.54871 0.34667 0.0
C1248 C 0.17244 0.53804 0.33583 0.0
C1249 C 0.1621 0.51541 0.31581 0.0
C1250 C 0.18266 0.50448 0.30641 0.0
C1251 C 0.21389 0.5164 0.31659 0.0
C1252 C 0.22466 0.5394 0.3361 0.0
C1253 C 0.20405 0.55011 0.34578 0.0
H1254 H 0.2298 0.50793 0.30929 0.0
H1255 H 0.03257 0.60735 0.41544 0.0
H1256 H 0.32243 0.47671 0.35622 0.0
H1257 H 0.38043 0.50724 0.34657 0.0
H1258 H 0.37995 0.59805 0.35507 0.0
H1259 H 0.32131 0.56786 0.361 0.0
H1260 H 0.42031 0.6098 0.32294 0.0
H1261 H 0.40669 0.55752 0.40335 0.0
H1262 H 0.38623 0.51164 0.43359 0.0
H1263 H 0.43229 0.46836 0.39085 0.0
H1264 H 0.45273 0.51384 0.36019 0.0
H1265 H 0.57644 0.70638 0.3805 0.0
H1266 H 0.51897 0.66521 0.37635 0.0
H1267 H 0.54253 0.61795 0.317 0.0
H1268 H 0.60092 0.65997 0.32064 0.0
H1269 H 0.4934 0.5802 0.36875 0.0
H1270 H 0.5101 0.64393 0.28981 0.0
H1271 H 0.53261 0.69727 0.26803 0.0
H1272 H 0.48305 0.72722 0.32023 0.0
H1273 H 0.4599 0.67398 0.34213 0.0
C1274 C 0.33419 0.50313 0.35537 0.0
C1275 C 0.31645 0.51944 0.35994 0.0
C1276 C 0.3679 0.52074 0.35036 0.0
C1277 C 0.38533 0.55523 0.35091 0.0
C1278 C 0.36758 0.57153 0.3547 0.0
C1279 C 0.33372 0.55399 0.35869 0.0
C1280 C 0.42192 0.57452 0.34806 0.0
C1281 C 0.436 0.60299 0.333 0.0
C1282 C 0.44315 0.56618 0.36097 0.0
C1283 C 0.43086 0.53882 0.37932 0.0
C1284 C 0.41226 0.53809 0.40032 0.0
C1285 C 0.40069 0.51219 0.41754 0.0
C1286 C 0.40785 0.48704 0.41409 0.0
C1287 C 0.42669 0.48781 0.39345 0.0
C1288 C 0.43828 0.51364 0.37616 0.0
C1289 C 0.5697 0.68731 0.36654 0.0
C1290 C 0.59343 0.68669 0.3508 0.0
C1291 C 0.53671 0.66371 0.36426 0.0
C1292 C 0.52652 0.63865 0.34637 0.0
C1293 C 0.55002 0.63716 0.33096 0.0
C1294 C 0.5833 0.66112 0.33309 0.0
C1295 C 0.491 0.61487 0.34387 0.0
C1296 C 0.47729 0.586 0.35818 0.0
C1297 C 0.4701 0.62349 0.33122 0.0
C1298 C 0.48335 0.65505 0.3176 0.0
C1299 C 0.50406 0.66192 0.29664 0.0
C1300 C 0.51691 0.6921 0.28427 0.0
C1301 C 0.50943 0.71564 0.29282 0.0
C1302 C 0.48882 0.70896 0.31362 0.0
C1303 C 0.47568 0.67874 0.32592 0.0
H1304 H 0.51954 0.73903 0.28328 0.0
H1305 H 0.39888 0.46701 0.42744 0.0
H1306 H 0.36535 0.96753 0.36493 0.0
H1307 H 0.41206 0.9577 0.36695 0.0
H1308 H 0.35471 0.86555 0.32835 0.0
H1309 H 0.30866 0.87488 0.32672 0.0
H1310 H 0.38036 0.85662 0.36958 0.0
H1311 H 0.41777 0.9328 0.30073 0.0
H1312 H 0.4334 0.98564 0.28033 0.0
H1313 H 0.51186 0.03543 0.33334 0.0
H1314 H 0.49625 0.98293 0.35439 0.0
H1315 H 0.4953 0.80486 0.35576 0.0
H1316 H 0.45794 0.82416 0.34294 0.0
H1317 H 0.52125 0.91778 0.37771 0.0
H1318 H 0.55938 0.89932 0.38926 0.0
H1319 H 0.49372 0.92773 0.33862 0.0
H1320 H 0.45378 0.8532 0.40934 0.0
H1321 H 0.43679 0.80111 0.43154 0.0
H1322 H 0.36215 0.74917 0.37605 0.0
H1323 H 0.379 0.80093 0.35334 0.0
C1324 C 0.36306 0.94549 0.35661 0.0
C1325 C 0.33316 0.92174 0.3461 0.0
C1326 C 0.38969 0.93982 0.35777 0.0
C1327 C 0.38684 0.91059 0.34805 0.0
C1328 C 0.35749 0.88795 0.33637 0.0
C1329 C 0.33111 0.89339 0.33546 0.0
C1330 C 0.41322 0.90207 0.35098 0.0
C1331 C 0.40503 0.87206 0.36249 0.0
C1332 C 0.44569 0.92243 0.34232 0.0
C1333 C 0.45565 0.95392 0.32928 0.0
C1334 C 0.43825 0.95503 0.30812 0.0
C1335 C 0.44709 0.98492 0.29645 0.0
C1336 C 0.47358 0.01388 0.30556 0.0
C1337 C 0.49133 0.01298 0.32631 0.0
C1338 C 0.48248 0.98315 0.33813 0.0
C1339 C 0.50175 0.82985 0.36002 0.0
C1340 C 0.53006 0.85022 0.37405 0.0
C1341 C 0.48014 0.84081 0.35294 0.0
C1342 C 0.48612 0.87218 0.36004 0.0
C1343 C 0.51569 0.89338 0.37222 0.0
C1344 C 0.5374 0.88261 0.37904 0.0
C1345 C 0.46061 0.88199 0.35687 0.0
C1346 C 0.46898 0.91225 0.34554 0.0
C1347 C 0.42817 0.86195 0.36577 0.0
C1348 C 0.41786 0.83087 0.37952 0.0
C1349 C 0.43387 0.83064 0.40181 0.0
C1350 C 0.42426 0.80118 0.41448 0.0
C1351 C 0.39846 0.77184 0.40517 0.0
C1352 C 0.38216 0.77191 0.38321 0.0
C1353 C 0.39172 0.80129 0.37044 0.0
H1354 H 0.39106 0.74906 0.41501 0.0
H1355 H 0.48038 0.03701 0.29651 0.0
H1356 H 0.80852 0.22067 0.70386 0.0
H1357 H 0.75132 0.20388 0.69691 0.0
H1358 H 0.77472 0.24402 0.62171 0.0
H1359 H 0.83147 0.25723 0.62756 0.0
H1360 H 0.72244 0.24019 0.68615 0.0
H1361 H 0.73066 0.21714 0.59346 0.0
H1362 H 0.7498 0.1963 0.55851 0.0
H1363 H 0.71851 0.10656 0.59903 0.0
H1364 H 0.70054 0.12765 0.63465 0.0
H1365 H 0.54723 0.15896 0.64544 0.0
H1366 H 0.60678 0.19381 0.64213 0.0
H1367 H 0.61945 0.12086 0.68118 0.0
H1368 H 0.56036 0.08673 0.68604 0.0
H1369 H 0.65309 0.15077 0.62674 0.0
H1370 H 0.63664 0.17348 0.71573 0.0
H1371 H 0.6108 0.19318 0.74623 0.0
H1372 H 0.65135 0.28488 0.70675 0.0
H1373 H 0.67712 0.2655 0.67584 0.0
C1374 C 0.80143 0.2253 0.68559 0.0
C1375 C 0.82461 0.23989 0.66615 0.0
C1376 C 0.76863 0.21592 0.6817 0.0
C1377 C 0.75808 0.22159 0.65846 0.0
C1378 C 0.78151 0.23767 0.63935 0.0
C1379 C 0.81432 0.24613 0.64298 0.0
C1380 C 0.72259 0.21056 0.65511 0.0
C1381 C 0.70744 0.22107 0.67277 0.0
C1382 C 0.70257 0.18604 0.63745 0.0
C1383 C 0.71597 0.17463 0.6172 0.0
C1384 C 0.72899 0.19345 0.59525 0.0
C1385 C 0.73943 0.18154 0.57527 0.0
C1386 C 0.7359 0.15033 0.57673 0.0
C1387 C 0.72175 0.13096 0.5981 0.0
C1388 C 0.71184 0.14304 0.6183 0.0
C1389 C 0.56256 0.15049 0.65382 0.0
C1390 C 0.5486 0.11969 0.6659 0.0
C1391 C 0.59664 0.17042 0.65169 0.0
C1392 C 0.6174 0.15979 0.66131 0.0
C1393 C 0.60376 0.12937 0.67349 0.0
C1394 C 0.56984 0.10974 0.67604 0.0
C1395 C 0.65343 0.17965 0.65823 0.0
C1396 C 0.66834 0.17057 0.63955 0.0
C1397 C 0.67315 0.20607 0.67438 0.0
C1398 C 0.65848 0.21794 0.69337 0.0
C1399 C 0.63984 0.19775 0.71347 0.0
C1400 C 0.62527 0.20887 0.73085 0.0
C1401 C 0.62935 0.24023 0.72838 0.0
C1402 C 0.64818 0.26059 0.70862 0.0
C1403 C 0.6628 0.24957 0.69119 0.0
H1404 H 0.61799 0.24878 0.74182 0.0
H1405 H 0.74375 0.14102 0.56118 0.0
H1406 H 0.79877 0.37404 0.67946 0.0
H1407 H 0.78569 0.41778 0.68474 0.0
H1408 H 0.88553 0.48972 0.66661 0.0
H1409 H 0.89889 0.44588 0.66213 0.0
H1410 H 0.86405 0.51353 0.70142 0.0
H1411 H 0.82127 0.45995 0.62211 0.0
H1412 H 0.7889 0.41293 0.59397 0.0
H1413 H 0.70082 0.39285 0.63275 0.0
H1414 H 0.73276 0.43949 0.66136 0.0
H1415 H 0.84005 0.64309 0.66313 0.0
H1416 H 0.85056 0.59743 0.66254 0.0
H1417 H 0.75208 0.5326 0.68856 0.0
H1418 H 0.74186 0.57896 0.68951 0.0
H1419 H 0.77096 0.50426 0.65144 0.0
H1420 H 0.81507 0.56107 0.72932 0.0
H1421 H 0.84875 0.60827 0.75695 0.0
H1422 H 0.93582 0.62346 0.71925 0.0
H1423 H 0.90264 0.57672 0.69107 0.0
C1424 C 0.81804 0.39926 0.67701 0.0
C1425 C 0.84983 0.40655 0.67027 0.0
C1426 C 0.81048 0.42426 0.67982 0.0
C1427 C 0.83434 0.45713 0.67538 0.0
C1428 C 0.86657 0.4646 0.66998 0.0
C1429 C 0.87426 0.43955 0.66751 0.0
C1430 C 0.82546 0.48347 0.6755 0.0
C1431 C 0.84393 0.51161 0.69024 0.0
C1432 C 0.79873 0.48088 0.66135 0.0
C1433 C 0.77945 0.45301 0.64403 0.0
C1434 C 0.79503 0.44537 0.62474 0.0
C1435 C 0.77676 0.41881 0.60869 0.0
C1436 C 0.74284 0.39987 0.61161 0.0
C1437 C 0.72711 0.40751 0.63053 0.0
C1438 C 0.74527 0.43402 0.64666 0.0
C1439 C 0.82075 0.61923 0.66882 0.0
C1440 C 0.79037 0.61472 0.67669 0.0
C1441 C 0.8267 0.59303 0.66843 0.0
C1442 C 0.80235 0.5616 0.67601 0.0
C1443 C 0.77134 0.55665 0.68278 0.0
C1444 C 0.76544 0.58307 0.68321 0.0
C1445 C 0.80971 0.53431 0.6772 0.0
C1446 C 0.79097 0.50606 0.66269 0.0
C1447 C 0.83638 0.53694 0.69137 0.0
C1448 C 0.85633 0.56545 0.708 0.0
C1449 C 0.84137 0.57465 0.72676 0.0
C1450 C 0.86037 0.60128 0.74255 0.0
C1451 C 0.89439 0.6187 0.73994 0.0
C1452 C 0.90947 0.60981 0.72133 0.0
C1453 C 0.89058 0.58327 0.70544 0.0
H1454 H 0.90911 0.63903 0.75237 0.0
H1455 H 0.72873 0.3793 0.59917 0.0
H1456 H 0.6077 0.47288 0.64248 0.0
H1457 H 0.5788 0.4128 0.63807 0.0
H1458 H 0.542 0.40263 0.71399 0.0
H1459 H 0.57039 0.46235 0.71832 0.0
H1460 H 0.56415 0.35802 0.7019 0.0
H1461 H 0.4946 0.39749 0.66708 0.0
H1462 H 0.48261 0.43072 0.63776 0.0
H1463 H 0.49934 0.38385 0.5746 0.0
H1464 H 0.51188 0.35065 0.60359 0.0
H1465 H 0.42248 0.2055 0.71549 0.0
H1466 H 0.46501 0.26275 0.71267 0.0
H1467 H 0.47238 0.2523 0.63243 0.0
H1468 H 0.42834 0.19469 0.63511 0.0
H1469 H 0.47185 0.30672 0.64133 0.0
H1470 H 0.53485 0.26249 0.67388 0.0
H1471 H 0.5493 0.22951 0.70143 0.0
H1472 H 0.54883 0.28445 0.76591 0.0
H1473 H 0.53409 0.31759 0.73879 0.0
C1474 C 0.59386 0.45774 0.65832 0.0
C1475 C 0.5912 0.47227 0.68071 0.0
C1476 C 0.57722 0.42347 0.65575 0.0
C1477 C 0.55803 0.40318 0.67565 0.0
C1478 C 0.55662 0.41772 0.69838 0.0
C1479 C 0.57277 0.45185 0.70081 0.0
C1480 C 0.53798 0.36689 0.67267 0.0
C1481 C 0.54391 0.34675 0.68871 0.0
C1482 C 0.5123 0.3521 0.65484 0.0
C1483 C 0.50456 0.37191 0.63748 0.0
C1484 C 0.49599 0.39448 0.64694 0.0
C1485 C 0.48904 0.41327 0.63039 0.0
C1486 C 0.49031 0.40948 0.60433 0.0
C1487 C 0.49843 0.38681 0.59479 0.0
C1488 C 0.50545 0.368 0.61127 0.0
C1489 C 0.43326 0.21526 0.69722 0.0
C1490 C 0.42191 0.19558 0.6755 0.0
C1491 C 0.45791 0.24804 0.69566 0.0
C1492 C 0.47247 0.26198 0.67239 0.0
C1493 C 0.4617 0.24216 0.65064 0.0
C1494 C 0.43674 0.20918 0.6522 0.0
C1495 C 0.49753 0.29762 0.67095 0.0
C1496 C 0.49248 0.31775 0.65417 0.0
C1497 C 0.52443 0.31236 0.68781 0.0
C1498 C 0.53317 0.29242 0.70429 0.0
C1499 C 0.53761 0.2674 0.69396 0.0
C1500 C 0.54591 0.24871 0.70949 0.0
C1501 C 0.54992 0.25484 0.7354 0.0
C1502 C 0.54572 0.27973 0.74583 0.0
C1503 C 0.53747 0.29853 0.73037 0.0
H1504 H 0.55632 0.24034 0.7474 0.0
H1505 H 0.48492 0.42404 0.59155 0.0
H1506 H 0.74558 0.76282 0.65403 0.0
H1507 H 0.76829 0.82248 0.65396 0.0
H1508 H 0.81478 0.82959 0.72542 0.0
H1509 H 0.79142 0.77031 0.72596 0.0
H1510 H 0.79062 0.86936 0.72493 0.0
H1511 H 0.85496 0.84376 0.67072 0.0
H1512 H 0.86447 0.81601 0.63507 0.0
H1513 H 0.8363 0.86718 0.58301 0.0
H1514 H 0.82553 0.89445 0.61841 0.0
H1515 H 0.9346 0.0405 0.68234 0.0
H1516 H 0.90632 0.98085 0.68043 0.0
H1517 H 0.81529 0.97659 0.69897 0.0
H1518 H 0.84374 0.03605 0.70285 0.0
H1519 H 0.86183 0.93501 0.65393 0.0
H1520 H 0.76529 0.90902 0.73179 0.0
H1521 H 0.75957 0.93465 0.77061 0.0
H1522 H 0.86389 0.98665 0.78032 0.0
H1523 H 0.87019 0.96102 0.74175 0.0
C1524 C 0.76058 0.77708 0.6697 0.0
C1525 C 0.76774 0.7619 0.68955 0.0
C1526 C 0.77364 0.81123 0.66961 0.0
C1527 C 0.79393 0.83077 0.68939 0.0
C1528 C 0.79956 0.81529 0.70979 0.0
C1529 C 0.78656 0.78134 0.70988 0.0
C1530 C 0.81026 0.86735 0.68874 0.0
C1531 C 0.80593 0.88366 0.70927 0.0
C1532 C 0.83118 0.88623 0.66871 0.0
C1533 C 0.83877 0.8707 0.64731 0.0
C1534 C 0.85041 0.84885 0.6517 0.0
C1535 C 0.85603 0.83318 0.63152 0.0
C1536 C 0.85078 0.83966 0.60679 0.0
C1537 C 0.84023 0.86207 0.60219 0.0
C1538 C 0.8343 0.87761 0.62232 0.0
C1539 C 0.90864 0.02701 0.68643 0.0
C1540 C 0.89177 0.04358 0.69314 0.0
C1541 C 0.89234 0.99269 0.68496 0.0
C1542 C 0.85862 0.97383 0.68994 0.0
C1543 C 0.84142 0.9903 0.69557 0.0
C1544 C 0.85778 0.02459 0.69743 0.0
C1545 C 0.84175 0.93707 0.68998 0.0
C1546 C 0.84613 0.92071 0.66941 0.0
C1547 C 0.82175 0.91808 0.71038 0.0
C1548 C 0.8182 0.93338 0.73373 0.0
C1549 C 0.78699 0.92585 0.74226 0.0
C1550 C 0.78365 0.94039 0.76421 0.0
C1551 C 0.81135 0.96236 0.77787 0.0
C1552 C 0.84246 0.96973 0.76967 0.0
C1553 C 0.84593 0.95523 0.74775 0.0
H1554 H 0.80871 0.97361 0.79485 0.0
H1555 H 0.85503 0.82742 0.59119 0.0
H1556 H 0.99908 0.89197 0.73621 0.0
H1557 H 0.05508 0.92673 0.72138 0.0
H1558 H 0.04221 0.85251 0.66757 0.0
H1559 H 0.98564 0.81726 0.68272 0.0
H1560 H 0.09897 0.87462 0.69397 0.0
H1561 H 0.04992 0.92473 0.6474 0.0
H1562 H 0.01539 0.94939 0.63961 0.0
H1563 H 0.07274 0.02667 0.69196 0.0
H1564 H 0.10729 1.00219 0.70044 0.0
H1565 H 0.26699 0.99385 0.6594 0.0
H1566 H 0.20814 0.9536 0.6565 0.0
H1567 H 0.18778 0.00864 0.71141 0.0
H1568 H 0.24552 0.04881 0.71389 0.0
H1569 H 0.14655 0.99245 0.67342 0.0
H1570 H 0.18813 0.93628 0.72549 0.0
H1571 H 0.2235 0.91256 0.73338 0.0
H1572 H 0.1805 0.84757 0.67036 0.0
H1573 H 0.14521 0.87128 0.66188 0.0
C1574 C 0.00795 0.88332 0.72085 0.0
C1575 C 0.98793 0.85199 0.71052 0.0
C1576 C 0.04001 0.90325 0.71233 0.0
C1577 C 0.053 0.89247 0.69318 0.0
C1578 C 0.03277 0.86146 0.6823 0.0
C1579 C 1.00038 0.84147 0.69076 0.0
C1580 C 0.08826 0.91311 0.686 0.0
C1581 C 0.10926 0.90021 0.68889 0.0
C1582 C 0.10196 0.94666 0.6796 0.0
C1583 C 0.08113 0.96146 0.67465 0.0
C1584 C 0.05503 0.94683 0.65742 0.0
C1585 C 0.03547 0.96081 0.65286 0.0
C1586 C 0.04185 0.98955 0.66531 0.0
C1587 C 0.06782 1.0044 0.68234 0.0
C1588 C 0.08743 0.99049 0.68701 0.0
C1589 C 0.24991 0.99734 0.67078 0.0
C1590 C 0.26114 0.02481 0.68671 0.0
C1591 C 0.21626 0.97423 0.6692 0.0
C1592 C 0.19331 0.97805 0.68369 0.0
C1593 C 0.20474 1.00516 0.69984 0.0
C1594 C 0.23803 0.02812 0.70135 0.0
C1595 C 0.15731 0.95434 0.6825 0.0
C1596 C 0.13616 0.9667 0.67799 0.0
C1597 C 0.14356 0.92042 0.68748 0.0
C1598 C 0.16432 0.9058 0.69287 0.0
C1599 C 0.18637 0.91707 0.71322 0.0
C1600 C 0.20639 0.90362 0.71781 0.0
C1601 C 0.20432 0.87864 0.70233 0.0
C1602 C 0.18213 0.86697 0.6823 0.0
C1603 C 0.16211 0.8804 0.6776 0.0
H1604 H 0.21986 0.86828 0.7059 0.0
H1605 H 0.0267 1.00035 0.66173 0.0
H1606 H 0.16242 0.15484 0.7342 0.0
H1607 H 0.12018 0.169 0.72514 0.0
H1608 H 0.1733 0.22165 0.65865 0.0
H1609 H 0.21591 0.2077 0.66807 0.0
H1610 H 0.15766 0.2588 0.6857 0.0
H1611 H 0.09837 0.1494 0.65542 0.0
H1612 H 0.07388 0.08932 0.65542 0.0
H1613 H 0.01372 0.08176 0.71878 0.0
H1614 H 0.03842 0.14184 0.71961 0.0
H1615 H 0.02417 0.28936 0.65735 0.0
H1616 H 0.06753 0.27495 0.65554 0.0
H1617 H 0.03044 0.21884 0.72406 0.0
H1618 H 0.98723 0.23262 0.72571 0.0
H1619 H 0.03776 0.18292 0.68851 0.0
H1620 H 0.10258 0.29304 0.72149 0.0
H1621 H 0.12508 0.35284 0.72009 0.0
H1622 H 0.17318 0.35814 0.64998 0.0
H1623 H 0.15045 0.29823 0.65073 0.0
C1624 C 0.16441 0.16843 0.71717 0.0
C1625 C 0.19195 0.17953 0.70149 0.0
C1626 C 0.14033 0.17666 0.71202 0.0
C1627 C 0.14325 0.19626 0.69106 0.0
C1628 C 0.17033 0.20644 0.67488 0.0
C1629 C 0.19446 0.19814 0.68005 0.0
C1630 C 0.11945 0.20811 0.6874 0.0
C1631 C 0.13143 0.24208 0.68584 0.0
C1632 C 0.08512 0.1865 0.68789 0.0
C1633 C 0.07052 0.15028 0.6877 0.0
C1634 C 0.08021 0.135 0.66955 0.0
C1635 C 0.06625 0.10091 0.66939 0.0
C1636 C 0.04233 0.08174 0.68713 0.0
C1637 C 0.03231 0.09663 0.70508 0.0
C1638 C 0.04629 0.13072 0.70541 0.0
C1639 C 0.02562 0.27436 0.67219 0.0
C1640 C 1.00171 0.26142 0.69129 0.0
C1641 C 0.0504 0.2661 0.67114 0.0
C1642 C 0.05201 0.24529 0.68947 0.0
C1643 C 0.02948 0.23441 0.70945 0.0
C1644 C 1.00482 0.2425 0.71043 0.0
C1645 C 0.07601 0.23348 0.68769 0.0
C1646 C 0.06401 0.19951 0.68815 0.0
C1647 C 0.11022 0.25502 0.68615 0.0
C1648 C 0.12454 0.29111 0.68603 0.0
C1649 C 0.11779 0.30693 0.70569 0.0
C1650 C 0.13059 0.34084 0.70502 0.0
C1651 C 0.15047 0.35927 0.68493 0.0
C1652 C 0.15772 0.34382 0.66551 0.0
C1653 C 0.1449 0.30989 0.66605 0.0
H1654 H 0.16033 0.38552 0.68442 0.0
H1655 H 0.03151 0.05536 0.68693 0.0
H1656 H 0.08069 0.40118 0.29046 0.0
H1657 H 0.06502 0.41549 0.25038 0.0
H1658 H 0.11281 0.37163 0.21005 0.0
H1659 H 0.12496 0.35413 0.24993 0.0
H1660 H 0.09941 0.45388 0.21424 0.0
H1661 H 0.09399 0.35022 0.17164 0.0
H1662 H 0.07217 0.29062 0.16891 0.0
H1663 H 0.97556 0.27333 0.18471 0.0
H1664 H 0.99731 0.33289 0.18863 0.0
H1665 H 0.08536 0.4844 0.08273 0.0
H1666 H 0.09946 0.47335 0.12462 0.0
H1667 H 0.99848 0.39983 0.13695 0.0
H1668 H 0.98443 0.4107 0.09483 0.0
H1669 H 0.03786 0.37579 0.14555 0.0
H1670 H 0.03647 0.47286 0.17059 0.0
H1671 H 0.05196 0.5311 0.16796 0.0
H1672 H 0.15272 0.55971 0.18004 0.0
H1673 H 0.1379 0.50161 0.18237 0.0
C1674 C 0.08767 0.39452 0.27295 0.0
C1675 C 0.1042 0.37671 0.27333 0.0
C1676 C 0.07849 0.40246 0.24994 0.0
C1677 C 0.08617 0.39336 0.22664 0.0
C1678 C 0.10417 0.37692 0.22723 0.0
C1679 C 0.11225 0.36791 0.25022 0.0
C1680 C 0.07749 0.40352 0.20216 0.0
C1681 C 0.08603 0.43663 0.19926 0.0
C1682 C 0.05982 0.38144 0.18217 0.0
C1683 C 0.04781 0.34585 0.18284 0.0
C1684 C 0.06848 0.33365 0.17602 0.0
C1685 C 0.05603 0.29988 0.17383 0.0
C1686 C 0.02262 0.27811 0.17729 0.0
C1687 C 1.00155 0.29013 0.18261 0.0
C1688 C 0.01403 0.32386 0.18516 0.0
C1689 C 0.06604 0.46645 0.09467 0.0
C1690 C 0.03379 0.44835 0.08554 0.0
C1691 C 0.07412 0.46019 0.11866 0.0
C1692 C 0.05009 0.43574 0.1341 0.0
C1693 C 0.01751 0.41881 0.12545 0.0
C1694 C 0.00939 0.42522 0.10148 0.0
C1695 C 0.05935 0.42567 0.15807 0.0
C1696 C 0.05116 0.39287 0.16068 0.0
C1697 C 0.07718 0.44792 0.17766 0.0
C1698 C 0.0861 0.48286 0.17643 0.0
C1699 C 0.06197 0.49156 0.17249 0.0
C1700 C 0.07062 0.52455 0.17108 0.0
C1701 C 0.10331 0.54909 0.17377 0.0
C1702 C 0.12741 0.54068 0.17794 0.0
C1703 C 0.11889 0.50772 0.17932 0.0
H1704 H 0.10996 0.57462 0.17267 0.0
H1705 H 0.01297 0.252 0.17537 0.0
H1706 H 0.59011 0.70948 0.29345 0.0
H1707 H 0.57019 0.6786 0.25402 0.0
H1708 H 0.6639 0.74046 0.21929 0.0
H1709 H 0.68297 0.77333 0.25794 0.0
H1710 H 0.59927 0.72383 0.19121 0.0
H1711 H 0.64935 0.63888 0.21352 0.0
H1712 H 0.65159 0.6034 0.24666 0.0
H1713 H 0.56542 0.59494 0.28126 0.0
H1714 H 0.56086 0.62754 0.24691 0.0
H1715 H 0.62425 0.66363 0.0776 0.0
H1716 H 0.62823 0.68619 0.11956 0.0
H1717 H 0.55122 0.59232 0.1456 0.0
H1718 H 0.54712 0.56937 0.1033 0.0
H1719 H 0.59643 0.61787 0.18063 0.0
H1720 H 0.53647 0.6537 0.13599 0.0
H1721 H 0.51865 0.6771 0.10226 0.0
H1722 H 0.6031 0.77175 0.11469 0.0
H1723 H 0.62212 0.74872 0.148 0.0
C1724 C 0.60652 0.71658 0.27742 0.0
C1725 C 0.63871 0.7432 0.27928 0.0
C1726 C 0.59525 0.69838 0.25497 0.0
C1727 C 0.61606 0.70583 0.23398 0.0
C1728 C 0.64764 0.73339 0.23542 0.0
C1729 C 0.65865 0.75205 0.25764 0.0
C1730 C 0.6048 0.68648 0.20996 0.0
C1731 C 0.59877 0.70073 0.18887 0.0
C1732 C 0.60234 0.6554 0.20702 0.0
C1733 C 0.60587 0.63732 0.22846 0.0
C1734 C 0.6311 0.62974 0.22836 0.0
C1735 C 0.63246 0.60965 0.24714 0.0
C1736 C 0.60918 0.59764 0.26646 0.0
C1737 C 0.58389 0.60487 0.26661 0.0
C1738 C 0.58182 0.62406 0.24741 0.0
C1739 C 0.60821 0.64754 0.09214 0.0
C1740 C 0.58541 0.6145 0.08678 0.0
C1741 C 0.61037 0.66066 0.11627 0.0
C1742 C 0.58979 0.64122 0.13592 0.0
C1743 C 0.5674 0.60799 0.13087 0.0
C1744 C 0.56508 0.59485 0.10658 0.0
C1745 C 0.59209 0.65582 0.1616 0.0
C1746 C 0.59674 0.6409 0.18289 0.0
C1747 C 0.59138 0.68532 0.165 0.0
C1748 C 0.58092 0.69937 0.14438 0.0
C1749 C 0.55157 0.67941 0.13129 0.0
C1750 C 0.54121 0.6926 0.11227 0.0
C1751 C 0.55971 0.72585 0.10636 0.0
C1752 C 0.5888 0.74597 0.11931 0.0
C1753 C 0.59945 0.73283 0.13823 0.0
H1754 H 0.55138 0.73598 0.0918 0.0
H1755 H 0.61048 0.58234 0.28111 0.0
H1756 H 0.35642 0.96057 0.07372 0.0
H1757 H 0.33197 0.94319 0.11514 0.0
H1758 H 0.42446 0.00926 0.14998 0.0
H1759 H 0.44973 0.0268 0.10803 0.0
H1760 H 0.39331 0.94968 0.17453 0.0
H1761 H 0.36373 0.02825 0.148 0.0
H1762 H 0.34247 0.0533 0.11827 0.0
H1763 H 0.24876 0.96508 0.11834 0.0
H1764 H 0.26962 0.9393 0.14778 0.0
H1765 H 0.31956 0.93304 0.29598 0.0
H1766 H 0.35018 0.94979 0.25658 0.0
H1767 H 0.2596 0.90025 0.21488 0.0
H1768 H 0.22894 0.88539 0.25468 0.0
H1769 H 0.29301 0.95426 0.19435 0.0
H1770 H 0.32297 0.87531 0.22083 0.0
H1771 H 0.34476 0.85011 0.24996 0.0
H1772 H 0.43818 0.93865 0.24994 0.0
H1773 H 0.41671 0.96472 0.22139 0.0
C1774 C 0.37186 0.97176 0.09002 0.0
C1775 C 0.40524 0.99555 0.08721 0.0
C1776 C 0.35763 0.96167 0.11389 0.0
C1777 C 0.37608 0.97514 0.1359 0.0
C1778 C 0.40956 0.9985 0.13335 0.0
C1779 C 0.42397 0.00868 0.10929 0.0
C1780 C 0.35988 0.96482 0.16128 0.0
C1781 C 0.3717 0.95119 0.17909 0.0
C1782 C 0.33121 0.96604 0.16718 0.0
C1783 C 0.31833 0.98175 0.14995 0.0
C1784 C 0.33864 0.01413 0.14158 0.0
C1785 C 0.32666 0.02846 0.12478 0.0
C1786 C 0.29431 0.01077 0.11637 0.0
C1787 C 0.27383 0.97875 0.12485 0.0
C1788 C 0.2857 0.96427 0.14162 0.0
C1789 C 0.30619 0.92489 0.27848 0.0
C1790 C 0.27181 0.90746 0.27849 0.0
C1791 C 0.32383 0.93447 0.25573 0.0
C1792 C 0.30755 0.926 0.23231 0.0
C1793 C 0.27306 0.90731 0.23246 0.0
C1794 C 0.25544 0.89848 0.25524 0.0
C1795 C 0.32602 0.93853 0.20782 0.0
C1796 C 0.31465 0.95271 0.19006 0.0
C1797 C 0.35512 0.93782 0.20209 0.0
C1798 C 0.36812 0.92207 0.21913 0.0
C1799 C 0.34808 0.8895 0.2272 0.0
C1800 C 0.36037 0.87508 0.24364 0.0
C1801 C 0.39279 0.89281 0.25187 0.0
C1802 C 0.41303 0.92498 0.24362 0.0
C1803 C 0.4008 0.93961 0.22734 0.0
H1804 H 0.40225 0.88162 0.26462 0.0
H1805 H 0.2851 0.02188 0.10332 0.0
H1806 H 0.45516 0.01652 0.92503 0.0
H1807 H 0.44157 0.03253 0.88503 0.0
H1808 H 0.43453 0.10983 0.923 0.0
H1809 H 0.44741 0.093 0.96322 0.0
H1810 H 0.38599 0.08253 0.89366 0.0
H1811 H 0.49935 0.12248 0.87951 0.0
H1812 H 0.55057 0.12055 0.87774 0.0
H1813 H 0.5085 0.04425 0.82207 0.0
H1814 H 0.45686 0.0454 0.82376 0.0
H1815 H 0.42062 0.14058 0.75009 0.0
H1816 H 0.43868 0.13504 0.79202 0.0
H1817 H 0.33924 0.06271 0.81117 0.0
H1818 H 0.32099 0.07015 0.76967 0.0
H1819 H 0.44315 0.09162 0.81299 0.0
H1820 H 0.32675 0.05107 0.87397 0.0
H1821 H 0.28053 0.06135 0.8774 0.0
H1822 H 0.33771 0.15471 0.84116 0.0
H1823 H 0.38446 0.14523 0.83792 0.0
C1824 C 0.45109 0.03719 0.92475 0.0
C1825 C 0.45157 0.05303 0.94733 0.0
C1826 C 0.44354 0.04658 0.90176 0.0
C1827 C 0.4369 0.07255 0.90063 0.0
C1828 C 0.43906 0.08946 0.92315 0.0
C1829 C 0.44662 0.08 0.94617 0.0
C1830 C 0.42651 0.08108 0.87627 0.0
C1831 C 0.39868 0.08472 0.87606 0.0
C1832 C 0.44306 0.08451 0.85311 0.0
C1833 C 0.47414 0.08386 0.85191 0.0
C1834 C 0.50096 0.10515 0.867 0.0
C1835 C 0.53007 0.10421 0.866 0.0
C1836 C 0.53276 0.08224 0.84984 0.0
C1837 C 0.50637 0.06123 0.8346 0.0
C1838 C 0.47718 0.06204 0.83554 0.0
C1839 C 0.40252 0.12403 0.76348 0.0
C1840 C 0.36932 0.10608 0.75665 0.0
C1841 C 0.4129 0.12061 0.78749 0.0
C1842 C 0.39053 0.09852 0.80527 0.0
C1843 C 0.35717 0.08065 0.7984 0.0
C1844 C 0.34664 0.08482 0.77456 0.0
C1845 C 0.40257 0.09323 0.83025 0.0
C1846 C 0.43059 0.08985 0.83057 0.0
C1847 C 0.38689 0.09128 0.85361 0.0
C1848 C 0.35897 0.09727 0.8555 0.0
C1849 C 0.32949 0.07385 0.86684 0.0
C1850 C 0.3032 0.07953 0.86874 0.0
C1851 C 0.30614 0.10861 0.85942 0.0
C1852 C 0.33543 0.13214 0.84828 0.0
C1853 C 0.36182 0.12661 0.8464 0.0
H1854 H 0.28575 0.11295 0.86088 0.0
H1855 H 0.55532 0.08154 0.8491 0.0
H1856 H 0.93424 0.38032 0.95727 0.0
H1857 H 0.91629 0.34518 0.91973 0.0
H1858 H 0.00941 0.40884 0.88417 0.0
H1859 H 0.02806 0.44214 0.92235 0.0
H1860 H 0.90348 0.34665 0.8751 0.0
H1861 H 0.03235 0.37397 0.84169 0.0
H1862 H 0.0852 0.38596 0.86008 0.0
H1863 H 0.03685 0.33885 0.92913 0.0
H1864 H 0.9837 0.32623 0.91088 0.0
H1865 H 0.9015 0.31118 0.74692 0.0
H1866 H 0.91077 0.33283 0.78936 0.0
H1867 H 0.93742 0.26176 0.81295 0.0
H1868 H 0.92932 0.24044 0.76953 0.0
H1869 H 0.979 0.31781 0.83198 0.0
H1870 H 0.86361 0.25839 0.83215 0.0
H1871 H 0.80758 0.23854 0.81662 0.0
H1872 H 0.82318 0.33638 0.81964 0.0
H1873 H 0.87951 0.35694 0.83482 0.0
C1874 C 0.95077 0.38678 0.94136 0.0
C1875 C 0.98268 0.41384 0.94287 0.0
C1876 C 0.94054 0.36661 0.91983 0.0
C1877 C 0.96172 0.37346 0.89903 0.0
C1878 C 0.99289 0.40181 0.90011 0.0
C1879 C 1.00345 0.42127 0.92188 0.0
C1880 C 0.95131 0.35142 0.8762 0.0
C1881 C 0.92007 0.34034 0.86582 0.0
C1882 C 0.97223 0.34193 0.86413 0.0
C1883 C 1.00413 0.34945 0.87508 0.0
C1884 C 0.03301 0.3661 0.86076 0.0
C1885 C 0.06301 0.37303 0.87114 0.0
C1886 C 0.0644 0.36326 0.89577 0.0
C1887 C 0.03579 0.34653 0.91008 0.0
C1888 C 1.00574 0.33953 0.89976 0.0
C1889 C 0.90905 0.29971 0.76103 0.0
C1890 C 0.91473 0.27394 0.75454 0.0
C1891 C 0.91409 0.3121 0.78557 0.0
C1892 C 0.92439 0.29882 0.80475 0.0
C1893 C 0.92937 0.27249 0.7986 0.0
C1894 C 0.92449 0.26009 0.77378 0.0
C1895 C 0.9317 0.31404 0.83057 0.0
C1896 C 0.96236 0.3239 0.84145 0.0
C1897 C 0.90984 0.32146 0.84353 0.0
C1898 C 0.8759 0.30924 0.83448 0.0
C1899 C 0.85519 0.27572 0.82934 0.0
C1900 C 0.82335 0.26433 0.82062 0.0
C1901 C 0.81184 0.28619 0.81711 0.0
C1902 C 0.83213 0.31948 0.82236 0.0
C1903 C 0.86401 0.33101 0.83106 0.0
H1904 H 0.78719 0.27732 0.81035 0.0
H1905 H 0.08764 0.36854 0.90368 0.0
H1906 H 0.71441 0.60427 0.74806 0.0
H1907 H 0.68789 0.58629 0.78912 0.0
H1908 H 0.7414 0.68589 0.81627 0.0
H1909 H 0.76939 0.70368 0.77535 0.0
H1910 H 0.73463 0.64762 0.85343 0.0
H1911 H 0.65762 0.64694 0.79346 0.0
H1912 H 0.6254 0.63168 0.75414 0.0
H1913 H 0.58149 0.52987 0.77338 0.0
H1914 H 0.61347 0.54443 0.81283 0.0
H1915 H 0.56969 0.59567 0.92477 0.0
H1916 H 0.60257 0.61032 0.88637 0.0
H1917 H 0.66103 0.57284 0.91877 0.0
H1918 H 0.63029 0.56163 0.95842 0.0
H1919 H 0.61351 0.58115 0.85219 0.0
H1920 H 0.74378 0.61746 0.88841 0.0
H1921 H 0.77452 0.63234 0.92828 0.0
H1922 H 0.71177 0.6654 0.95839 0.0
H1923 H 0.68227 0.65347 0.91795 0.0
C1924 C 0.72091 0.6223 0.76289 0.0
C1925 C 0.74388 0.65546 0.75835 0.0
C1926 C 0.70546 0.61203 0.78639 0.0
C1927 C 0.71164 0.63478 0.8058 0.0
C1928 C 0.73584 0.66774 0.80169 0.0
C1929 C 0.75193 0.67794 0.77827 0.0
C1930 C 0.69197 0.62436 0.82981 0.0
C1931 C 0.70813 0.63306 0.85322 0.0
C1932 C 0.65729 0.60554 0.82972 0.0
C1933 C 0.6381 0.59677 0.806 0.0
C1934 C 0.64123 0.62129 0.78924 0.0
C1935 C 0.62302 0.61278 0.76694 0.0
C1936 C 0.60153 0.57987 0.76124 0.0
C1937 C 0.59817 0.55535 0.77783 0.0
C1938 C 0.61626 0.56372 0.80019 0.0
C1939 C 0.59029 0.5916 0.92402 0.0
C1940 C 0.59853 0.57931 0.94515 0.0
C1941 C 0.60874 0.59932 0.90178 0.0
C1942 C 0.63532 0.59382 0.89967 0.0
C1943 C 0.64166 0.57863 0.92007 0.0
C1944 C 0.62376 0.57184 0.94268 0.0
C1945 C 0.65602 0.60425 0.87614 0.0
C1946 C 0.64002 0.5956 0.85267 0.0
C1947 C 0.69085 0.6234 0.87636 0.0
C1948 C 0.71014 0.6337 0.90019 0.0
C1949 C 0.73687 0.62859 0.90329 0.0
C1950 C 0.75428 0.63676 0.92597 0.0
C1951 C 0.74507 0.64985 0.94586 0.0
C1952 C 0.71899 0.65558 0.94287 0.0
C1953 C 0.70207 0.64833 0.91998 0.0
H1954 H 0.75811 0.65552 0.96361 0.0
H1955 H 0.58732 0.57338 0.74406 0.0
H1956 H 0.75021 0.78879 0.4126 0.0
H1957 H 0.76743 0.78246 0.45448 0.0
H1958 H 0.66925 0.74572 0.4823 0.0
H1959 H 0.65197 0.75303 0.44027 0.0
H1960 H 0.7111 0.78348 0.51679 0.0
H1961 H 0.70193 0.69358 0.46717 0.0
H1962 H 0.71294 0.66808 0.43061 0.0
H1963 H 0.81587 0.72242 0.44646 0.0
H1964 H 0.80553 0.74828 0.48313 0.0
H1965 H 0.72878 0.71405 0.62935 0.0
H1966 H 0.71392 0.7265 0.58891 0.0
H1967 H 0.80928 0.75232 0.55968 0.0
H1968 H 0.82261 0.73605 0.59996 0.0
H1969 H 0.76935 0.72092 0.52545 0.0
H1970 H 0.77871 0.81176 0.57474 0.0
H1971 H 0.76752 0.83793 0.61079 0.0
H1972 H 0.66455 0.78195 0.59567 0.0
H1973 H 0.67508 0.75581 0.55929 0.0
C1974 C 0.73218 0.77949 0.4276 0.0
C1975 C 0.69954 0.77115 0.42287 0.0
C1976 C 0.74209 0.77565 0.45163 0.0
C1977 C 0.71955 0.7627 0.47163 0.0
C1978 C 0.68717 0.7555 0.46725 0.0
C1979 C 0.67728 0.75974 0.44317 0.0
C1980 C 0.72982 0.75652 0.49691 0.0
C1981 C 0.72351 0.76948 0.51867 0.0
C1982 C 0.74679 0.73892 0.4996 0.0
C1983 C 0.75298 0.72306 0.47776 0.0
C1984 C 0.72693 0.7002 0.46279 0.0
C1985 C 0.73304 0.68569 0.44205 0.0
C1986 C 0.76507 0.69377 0.43613 0.0
C1987 C 0.79107 0.71622 0.45104 0.0
C1988 C 0.78509 0.73074 0.47185 0.0
C1989 C 0.74638 0.72173 0.61426 0.0
C1990 C 0.77628 0.72267 0.61774 0.0
C1991 C 0.73819 0.72983 0.59107 0.0
C1992 C 0.76048 0.74098 0.57084 0.0
C1993 C 0.7913 0.7436 0.57471 0.0
C1994 C 0.79908 0.73448 0.59787 0.0
C1995 C 0.75096 0.74816 0.54551 0.0
C1996 C 0.75723 0.7352 0.52366 0.0
C1997 C 0.734 0.76583 0.54274 0.0
C1998 C 0.72769 0.78175 0.56442 0.0
C1999 C 0.7537 0.80503 0.57916 0.0
C2000 C 0.74748 0.81984 0.59962 0.0
C2001 C 0.71539 0.81144 0.60564 0.0
C2002 C 0.68941 0.78842 0.59102 0.0
C2003 C 0.69549 0.77374 0.57038 0.0
H2004 H 0.71069 0.82286 0.62158 0.0
H2005 H 0.76974 0.68255 0.42003 0.0
H2006 H 0.25521 0.91191 0.43714 0.0
H2007 H 0.26466 0.93762 0.47892 0.0
H2008 H 0.28215 0.02779 0.4443 0.0
H2009 H 0.27428 1.00305 0.40297 0.0
H2010 H 0.32347 0.04381 0.47869 0.0
H2011 H 0.20776 0.97022 0.47709 0.0
H2012 H 0.15715 0.91682 0.47242 0.0
H2013 H 0.18557 0.8784 0.53472 0.0
H2014 H 0.23663 0.93144 0.5395 0.0
H2015 H 0.3245 0.12536 0.59172 0.0
H2016 H 0.3089 0.09872 0.55038 0.0
H2017 H 0.28536 0.00646 0.58486 0.0
H2018 H 0.29765 0.0326 0.62625 0.0
H2019 H 0.24645 0.99162 0.54992 0.0
H2020 H 0.36401 0.06839 0.54966 0.0
H2021 H 0.41375 0.12281 0.55273 0.0
H2022 H 0.37945 0.15736 0.49157 0.0
H2023 H 0.32942 0.10313 0.48852 0.0
C2024 C 0.26122 0.93725 0.43842 0.0
C2025 C 0.26398 0.95518 0.41639 0.0
C2026 C 0.26638 0.95196 0.46245 0.0
C2027 C 0.27376 0.98479 0.46514 0.0
C2028 C 0.27665 1.00259 0.4431 0.0
C2029 C 0.272 0.98816 0.41923 0.0
C2030 C 0.2789 1.00108 0.49058 0.0
C2031 C 0.30634 0.03244 0.49414 0.0
C2032 C 0.25701 0.98649 0.51113 0.0
C2033 C 0.22617 0.9547 0.50848 0.0
C2034 C 0.20331 0.95032 0.48969 0.0
C2035 C 0.17454 0.92012 0.48703 0.0
C2036 C 0.16819 0.89421 0.50322 0.0
C2037 C 0.19056 0.89848 0.52216 0.0
C2038 C 0.21941 0.92861 0.52486 0.0
C2039 C 0.31514 0.09923 0.59049 0.0
C2040 C 0.31207 0.08106 0.61235 0.0
C2041 C 0.30684 0.08398 0.56667 0.0
C2042 C 0.29696 0.05048 0.56387 0.0
C2043 C 0.29292 0.03224 0.586 0.0
C2044 C 0.3 0.04724 0.60986 0.0
C2045 C 0.29131 0.03435 0.53821 0.0
C2046 C 0.26368 1.00301 0.53454 0.0
C2047 C 0.31281 0.0492 0.51737 0.0
C2048 C 0.34292 0.08178 0.51912 0.0
C2049 C 0.36712 0.08764 0.53703 0.0
C2050 C 0.39532 0.11845 0.53874 0.0
C2051 C 0.39974 0.14358 0.52239 0.0
C2052 C 0.37598 0.13789 0.50427 0.0
C2053 C 0.34771 0.10711 0.50256 0.0
H2054 H 0.42158 0.16744 0.52372 0.0
H2055 H 0.14591 0.87085 0.50113 0.0
H2056 H 0.98844 0.25996 0.62267 0.0
H2057 H 0.01933 0.27782 0.58293 0.0
H2058 H 0.93621 0.27482 0.54673 0.0
H2059 H 0.90647 0.25958 0.58681 0.0
H2060 H 1.00716 0.24726 0.53876 0.0
H2061 H 0.947 0.31277 0.51591 0.0
H2062 H 0.93338 0.35607 0.52408 0.0
H2063 H 0.03172 0.42065 0.54914 0.0
H2064 H 0.04534 0.37703 0.54218 0.0
H2065 H 0.03733 0.27736 0.40677 0.0
H2066 H 0.0155 0.26439 0.44946 0.0
H2067 H 0.09053 0.35975 0.47458 0.0
H2068 H 0.11292 0.373 0.43141 0.0
H2069 H 0.02859 0.34512 0.48908 0.0
H2070 H 0.0925 0.29278 0.49332 0.0
H2071 H 0.11261 0.25625 0.47898 0.0
H2072 H 0.01553 0.17331 0.48484 0.0
H2073 H 0.99471 0.20942 0.49885 0.0
C2074 C 0.97693 0.26342 0.60625 0.0
C2075 C 0.94514 0.25869 0.60801 0.0
C2076 C 0.99468 0.2739 0.58349 0.0
C2077 C 0.98096 0.27943 0.56171 0.0
C2078 C 0.94851 0.27306 0.56328 0.0
C2079 C 0.93108 0.26337 0.58616 0.0
C2080 C 0.99949 0.28863 0.53707 0.0
C2081 C 0.01164 0.26865 0.52796 0.0
C2082 C 1.00615 0.3168 0.52264 0.0
C2083 C 0.99646 0.34085 0.53029 0.0
C2084 C 0.96519 0.33559 0.52439 0.0
C2085 C 0.95761 0.36036 0.52845 0.0
C2086 C 0.98151 0.39094 0.53753 0.0
C2087 C 0.01308 0.39684 0.54245 0.0
C2088 C 0.02062 0.37196 0.53873 0.0
C2089 C 0.04951 0.29563 0.42134 0.0
C2090 C 0.07684 0.32642 0.41553 0.0
C2091 C 0.03705 0.28797 0.44588 0.0
C2092 C 0.05139 0.31091 0.4654 0.0
C2093 C 0.07909 0.34154 0.45987 0.0
C2094 C 0.09195 0.34909 0.43522 0.0
C2095 C 0.03568 0.30364 0.49091 0.0
C2096 C 0.02413 0.32382 0.50005 0.0
C2097 C 0.02953 0.27572 0.50519 0.0
C2098 C 0.042 0.25387 0.49696 0.0
C2099 C 0.07538 0.26679 0.49137 0.0
C2100 C 0.08692 0.24615 0.48333 0.0
C2101 C 0.06535 0.21249 0.48095 0.0
C2102 C 0.0322 0.19939 0.48667 0.0
C2103 C 0.02053 0.21993 0.4947 0.0
H2104 H 0.07433 0.19655 0.47472 0.0
H2105 H 0.97567 0.41017 0.54047 0.0
loop_
_geom_bond_atom_site_label_1
_geom_bond_atom_site_label_2
_geom_bond_distance
_geom_bond_site_symmetry_2
_ccdc_geom_bond_type
C0 C2 1.422 . S
C0 C4 1.415 . S
C0 N6 1.374 1_455 S
C1 C2 1.439 . S
C1 C3 1.447 . S
C1 C13 1.376 1_554 S
C2 C0 1.422 . S
C2 C1 1.439 . S
C2 N12 1.359 1_454 S
C3 C1 1.447 . S
C3 C5 1.329 . S
C3 H22 0.930 . S
C4 C0 1.415 . S
C4 C5 1.437 . S
C4 C8 1.413 . S
C5 C3 1.329 . S
C5 C4 1.437 . S
C5 H27 0.929 . S
N6 C0 1.374 1_655 S
N6 C7 1.334 1_655 S
N6 Gd11 2.619 . S
C7 N6 1.334 1_455 S
C7 C9 1.378 . S
C7 H19 0.929 1_455 S
C8 C4 1.413 . S
C8 C9 1.348 . S
C8 H24 0.931 . S
C9 C7 1.378 . S
C9 C8 1.348 . S
C9 H25 0.930 . S
Gd10 N30 2.622 . S
Gd10 N37 2.570 1_556 S
Gd10 O44 2.353 . S
Gd10 O45 2.468 1_556 S
Gd10 O46 2.427 . S
Gd10 O48 2.388 . S
Gd10 O49 2.386 1_455 S
Gd10 O53 2.307 1_556 S
Gd10 C63 2.805 . S
Gd11 N6 2.619 . S
Gd11 N12 2.570 1_554 S
Gd11 O43 2.386 1_655 S
Gd11 O47 2.307 1_554 S
Gd11 O50 2.353 . S
Gd11 O51 2.468 1_554 S
Gd11 O52 2.427 . S
Gd11 O54 2.388 . S
Gd11 C75 2.805 . S
N12 C2 1.359 1_656 S
N12 Gd11 2.570 1_556 S
N12 C14 1.343 . S
C13 C1 1.376 1_556 S
C13 C15 1.321 . S
C13 H21 0.931 . S
C14 N12 1.343 . S
C14 C15 1.390 1_655 S
C14 H16 0.931 . S
C15 C13 1.321 . S
C15 C14 1.390 1_455 S
C15 H17 0.930 . S
H16 C14 0.931 . S
H17 C15 0.930 . S
H18 C41 0.931 . S
H19 C7 0.929 1_655 S
H20 C42 0.930 . S
H21 C13 0.931 . S
H22 C3 0.930 . S
H23 C32 0.929 . S
H24 C8 0.931 . S
H25 C9 0.930 . S
H26 C64 0.930 . S
H27 C5 0.929 . S
H28 C33 0.931 . S
H29 C34 0.930 . S
N30 Gd10 2.622 . S
N30 C31 1.369 . S
N30 C32 1.338 . S
C31 N30 1.369 . S
C31 C35 1.415 1_455 S
C31 C38 1.422 . S
C32 H23 0.929 . S
C32 N30 1.338 . S
C32 C34 1.378 1_455 S
C33 H28 0.931 . S
C33 C34 1.348 . S
C33 C35 1.413 . S
C34 H29 0.930 . S
C34 C32 1.378 1_655 S
C34 C33 1.348 . S
C35 C31 1.415 1_655 S
C35 C33 1.413 . S
C35 C65 1.437 . S
H36 C65 0.929 . S
N37 Gd10 2.570 1_554 S
N37 C38 1.359 1_554 S
N37 C41 1.343 . S
C38 C31 1.422 . S
C38 N37 1.359 1_556 S
C38 C40 1.421 1_456 S
C39 C40 1.422 . S
C39 C42 1.321 1_655 S
C39 H66 0.931 . S
C40 C38 1.421 1_654 S
C40 C39 1.422 . S
C40 C64 1.417 1_554 S
C41 H18 0.931 . S
C41 N37 1.343 . S
C41 C42 1.390 . S
C42 H20 0.930 . S
C42 C39 1.321 1_455 S
C42 C41 1.390 . S
O43 Gd11 2.386 1_455 S
O43 C55 1.265 1_554 S
O44 Gd10 2.353 . S
O44 C55 1.242 . S
O45 Gd10 2.468 1_554 S
O45 C63 1.263 1_554 S
O46 Gd10 2.427 . S
O46 C63 1.252 . S
O47 Gd11 2.307 1_556 S
O47 C56 1.261 . S
O48 Gd10 2.388 . S
O48 C56 1.252 1_455 S
O49 Gd10 2.386 1_655 S
O49 C67 1.265 1_556 S
O50 Gd11 2.353 . S
O50 C67 1.242 . S
O51 Gd11 2.468 1_556 S
O51 C75 1.263 1_556 S
O52 Gd11 2.427 . S
O52 C75 1.252 . S
O53 Gd10 2.307 1_554 S
O53 C68 1.261 . S
O54 Gd11 2.388 . S
O54 C68 1.252 1_655 S
C55 O43 1.265 1_556 S
C55 O44 1.242 . S
C56 O47 1.261 . S
C56 O48 1.252 1_655 S
C57 C60 1.394 . S
C57 C62 1.370 1_556 S
C57 C63 1.500 . S
C58 C61 1.383 1_554 S
C58 C62 1.395 . S
C59 C60 1.396 . S
C59 C61 1.365 . S
C59 H76 0.929 . S
C60 C57 1.394 . S
C60 C59 1.396 . S
C60 H77 0.930 . S
C61 C58 1.383 1_556 S
C61 C59 1.365 . S
C61 H78 0.931 . S
C62 C57 1.370 1_554 S
C62 C58 1.395 . S
C62 H79 0.930 . S
C63 Gd10 2.805 . S
C63 O45 1.263 1_556 S
C63 O46 1.252 . S
C63 C57 1.500 . S
C64 H26 0.930 . S
C64 C40 1.417 1_556 S
C64 C65 1.329 . S
C65 C35 1.437 . S
C65 H36 0.929 . S
C65 C64 1.329 . S
H66 C39 0.931 . S
C67 O49 1.265 1_554 S
C67 O50 1.242 . S
C68 O53 1.261 . S
C68 O54 1.252 1_455 S
C69 C72 1.394 . S
C69 C74 1.370 1_554 S
C69 C75 1.500 . S
C70 C73 1.383 1_556 S
C70 C74 1.395 . S
C71 C72 1.396 . S
C71 C73 1.365 . S
C71 H80 0.929 . S
C72 C69 1.394 . S
C72 C71 1.396 . S
C72 H81 0.930 . S
C73 C70 1.383 1_554 S
C73 C71 1.365 . S
C73 H82 0.931 . S
C74 C69 1.370 1_556 S
C74 C70 1.395 . S
C74 H83 0.930 . S
C75 Gd11 2.805 . S
C75 O51 1.263 1_554 S
C75 O52 1.252 . S
C75 C69 1.500 . S
H76 C59 0.929 . S
H77 C60 0.930 . S
H78 C61 0.931 . S
H79 C62 0.930 . S
H80 C71 0.929 . S
H81 C72 0.930 . S
H82 C73 0.931 . S
H83 C74 0.930 . S
C84 C86 1.422 . S
C84 C88 1.415 . S
C84 N90 1.369 . S
C85 C86 1.438 . S
C85 C87 1.446 . S
C85 C97 1.377 1_554 S
C86 C84 1.422 . S
C86 C85 1.438 . S
C86 N96 1.359 1_554 S
C87 C85 1.446 . S
C87 C89 1.329 . S
C87 H106 0.930 . S
C88 C84 1.415 . S
C88 C89 1.437 . S
C88 C92 1.413 . S
C89 C87 1.329 . S
C89 C88 1.437 . S
C89 H111 0.929 . S
N90 C84 1.369 . S
N90 C91 1.338 . S
N90 Gd95 2.622 . S
C91 N90 1.338 . S
C91 C93 1.378 . S
C91 H103 0.929 . S
C92 C88 1.413 . S
C92 C93 1.348 . S
C92 H108 0.931 . S
C93 C91 1.378 . S
C93 C92 1.348 . S
C93 H109 0.930 . S
Gd94 N114 2.622 . S
Gd94 N121 2.570 1_556 S
Gd94 O128 2.353 . S
Gd94 O129 2.468 1_556 S
Gd94 O130 2.427 . S
Gd94 O132 2.388 . S
Gd94 O133 2.386 . S
Gd94 O137 2.307 1_556 S
Gd94 C147 2.805 . S
Gd95 N90 2.622 . S
Gd95 N96 2.570 1_554 S
Gd95 O127 2.386 . S
Gd95 O131 2.307 1_554 S
Gd95 O134 2.353 . S
Gd95 O135 2.468 1_554 S
Gd95 O136 2.427 . S
Gd95 O138 2.388 . S
Gd95 C159 2.805 . S
N96 C86 1.359 1_556 S
N96 Gd95 2.570 1_556 S
N96 C98 1.343 . S
C97 C85 1.377 1_556 S
C97 C99 1.321 . S
C97 H105 0.931 . S
C98 N96 1.343 . S
C98 C99 1.390 . S
C98 H100 0.931 . S
C99 C97 1.321 . S
C99 C98 1.390 . S
C99 H101 0.930 . S
H100 C98 0.931 . S
H101 C99 0.930 . S
H102 C125 0.931 . S
H103 C91 0.929 . S
H104 C126 0.930 . S
H105 C97 0.931 . S
H106 C87 0.930 . S
H107 C116 0.929 . S
H108 C92 0.931 . S
H109 C93 0.930 . S
H110 C148 0.930 . S
H111 C89 0.929 . S
H112 C117 0.931 . S
H113 C118 0.930 . S
N114 Gd94 2.622 . S
N114 C115 1.369 . S
N114 C116 1.338 . S
C115 N114 1.369 . S
C115 C119 1.415 . S
C115 C122 1.422 . S
C116 H107 0.929 . S
C116 N114 1.338 . S
C116 C118 1.378 . S
C117 H112 0.931 . S
C117 C118 1.348 . S
C117 C119 1.413 . S
C118 H113 0.930 . S
C118 C116 1.378 . S
C118 C117 1.348 . S
C119 C115 1.415 . S
C119 C117 1.413 . S
C119 C149 1.437 . S
H120 C149 0.929 . S
N121 Gd94 2.570 1_554 S
N121 C122 1.359 1_554 S
N121 C125 1.343 . S
C122 C115 1.422 . S
C122 N121 1.359 1_556 S
C122 C124 1.421 1_556 S
C123 C124 1.422 . S
C123 C126 1.321 . S
C123 H150 0.931 . S
C124 C122 1.421 1_554 S
C124 C123 1.422 . S
C124 C148 1.417 1_554 S
C125 H102 0.931 . S
C125 N121 1.343 . S
C125 C126 1.390 . S
C126 H104 0.930 . S
C126 C123 1.321 . S
C126 C125 1.390 . S
O127 Gd95 2.386 . S
O127 C139 1.265 1_554 S
O128 Gd94 2.353 . S
O128 C139 1.242 . S
O129 Gd94 2.468 1_554 S
O129 C147 1.263 1_554 S
O130 Gd94 2.427 . S
O130 C147 1.252 . S
O131 Gd95 2.307 1_556 S
O131 C140 1.261 . S
O132 Gd94 2.388 . S
O132 C140 1.252 . S
O133 Gd94 2.386 . S
O133 C151 1.265 1_556 S
O134 Gd95 2.353 . S
O134 C151 1.242 . S
O135 Gd95 2.468 1_556 S
O135 C159 1.263 1_556 S
O136 Gd95 2.427 . S
O136 C159 1.252 . S
O137 Gd94 2.307 1_554 S
O137 C152 1.261 . S
O138 Gd95 2.388 . S
O138 C152 1.252 . S
C139 O127 1.265 1_556 S
C139 O128 1.242 . S
C140 O131 1.261 . S
C140 O132 1.252 . S
C141 C144 1.394 . S
C141 C146 1.370 1_556 S
C141 C147 1.500 . S
C142 C145 1.383 1_554 S
C142 C146 1.395 . S
C143 C144 1.396 . S
C143 C145 1.365 . S
C143 H160 0.929 . S
C144 C141 1.394 . S
C144 C143 1.396 . S
C144 H161 0.930 . S
C145 C142 1.383 1_556 S
C145 C143 1.365 . S
C145 H162 0.931 . S
C146 C141 1.370 1_554 S
C146 C142 1.395 . S
C146 H163 0.930 . S
C147 Gd94 2.805 . S
C147 O129 1.263 1_556 S
C147 O130 1.252 . S
C147 C141 1.500 . S
C148 H110 0.930 . S
C148 C124 1.417 1_556 S
C148 C149 1.329 . S
C149 C119 1.437 . S
C149 H120 0.929 . S
C149 C148 1.329 . S
H150 C123 0.931 . S
C151 O133 1.265 1_554 S
C151 O134 1.242 . S
C152 O137 1.261 . S
C152 O138 1.252 . S
C153 C156 1.394 . S
C153 C158 1.370 1_554 S
C153 C159 1.500 . S
C154 C157 1.383 1_556 S
C154 C158 1.395 . S
C155 C156 1.396 . S
C155 C157 1.365 . S
C155 H164 0.929 . S
C156 C153 1.394 . S
C156 C155 1.396 . S
C156 H165 0.930 . S
C157 C154 1.383 1_554 S
C157 C155 1.365 . S
C157 H166 0.931 . S
C158 C153 1.370 1_556 S
C158 C154 1.395 . S
C158 H167 0.930 . S
C159 Gd95 2.805 . S
C159 O135 1.263 1_554 S
C159 O136 1.252 . S
C159 C153 1.500 . S
H160 C143 0.929 . S
H161 C144 0.930 . S
H162 C145 0.931 . S
H163 C146 0.930 . S
H164 C155 0.929 . S
H165 C156 0.930 . S
H166 C157 0.931 . S
H167 C158 0.930 . S
C168 C170 1.422 . S
C168 C172 1.409 1_545 S
C168 N174 1.375 . S
C169 C170 1.439 1_565 S
C169 C171 1.447 . S
C169 C181 1.376 1_554 S
C170 C168 1.422 . S
C170 C169 1.439 1_545 S
C170 N180 1.359 1_554 S
C171 C169 1.447 . S
C171 C173 1.329 . S
C171 H190 0.930 . S
C172 C168 1.409 1_565 S
C172 C173 1.437 . S
C172 C176 1.413 . S
C173 C171 1.329 . S
C173 C172 1.437 . S
C173 H195 0.929 . S
N174 C168 1.375 . S
N174 C175 1.338 . S
N174 Gd179 2.622 . S
C175 N174 1.338 . S
C175 C177 1.378 1_545 S
C175 H187 0.929 . S
C176 C172 1.413 . S
C176 C177 1.348 . S
C176 H192 0.931 . S
C177 C175 1.378 1_565 S
C177 C176 1.348 . S
C177 H193 0.930 . S
Gd178 N198 2.622 . S
Gd178 N205 2.570 1_556 S
Gd178 O212 2.353 . S
Gd178 O213 2.468 1_556 S
Gd178 O214 2.427 . S
Gd178 O216 2.388 . S
Gd178 O217 2.386 1_565 S
Gd178 O221 2.307 1_556 S
Gd178 C231 2.805 . S
Gd179 N174 2.622 . S
Gd179 N180 2.570 1_554 S
Gd179 O211 2.386 1_545 S
Gd179 O215 2.307 1_554 S
Gd179 O218 2.353 . S
Gd179 O219 2.468 1_554 S
Gd179 O220 2.427 . S
Gd179 O222 2.388 . S
Gd179 C243 2.805 . S
N180 C170 1.359 1_556 S
N180 Gd179 2.570 1_556 S
N180 C182 1.343 . S
C181 C169 1.376 1_556 S
C181 C183 1.321 1_565 S
C181 H189 0.931 . S
C182 N180 1.343 . S
C182 C183 1.390 . S
C182 H184 0.931 . S
C183 C181 1.321 1_545 S
C183 C182 1.390 . S
C183 H185 0.930 . S
H184 C182 0.931 . S
H185 C183 0.930 . S
H186 C209 0.931 . S
H187 C175 0.929 . S
H188 C210 0.930 . S
H189 C181 0.931 . S
H190 C171 0.930 . S
H191 C200 0.948 . S
H192 C176 0.931 . S
H193 C177 0.930 . S
H194 C232 0.930 . S
H195 C173 0.929 . S
H196 C201 0.931 . S
H197 C202 0.930 . S
N198 Gd178 2.622 . S
N198 C199 1.369 1_565 S
N198 C200 1.337 . S
C199 N198 1.369 1_545 S
C199 C203 1.415 . S
C199 C206 1.422 . S
C200 H191 0.948 . S
C200 N198 1.337 . S
C200 C202 1.361 1_565 S
C201 H196 0.931 . S
C201 C202 1.348 . S
C201 C203 1.413 . S
C202 H197 0.930 . S
C202 C200 1.361 1_545 S
C202 C201 1.348 . S
C203 C199 1.415 . S
C203 C201 1.413 . S
C203 C233 1.437 . S
H204 C233 0.929 . S
N205 Gd178 2.570 1_554 S
N205 C206 1.359 1_564 S
N205 C209 1.343 . S
C206 C199 1.422 . S
C206 N205 1.359 1_546 S
C206 C208 1.421 1_556 S
C207 C208 1.422 . S
C207 C210 1.321 . S
C207 H234 0.931 . S
C208 C206 1.421 1_554 S
C208 C207 1.422 . S
C208 C232 1.417 1_554 S
C209 H186 0.931 . S
C209 N205 1.343 . S
C209 C210 1.390 1_565 S
C210 H188 0.930 . S
C210 C207 1.321 . S
C210 C209 1.390 1_545 S
O211 Gd179 2.386 1_565 S
O211 C223 1.265 1_554 S
O212 Gd178 2.353 . S
O212 C223 1.242 . S
O213 Gd178 2.468 1_554 S
O213 C231 1.263 1_554 S
O214 Gd178 2.427 . S
O214 C231 1.252 . S
O215 Gd179 2.307 1_556 S
O215 C224 1.261 . S
O216 Gd178 2.388 . S
O216 C224 1.252 1_565 S
O217 Gd178 2.386 1_545 S
O217 C235 1.265 1_556 S
O218 Gd179 2.353 . S
O218 C235 1.242 . S
O219 Gd179 2.468 1_556 S
O219 C243 1.263 1_556 S
O220 Gd179 2.427 . S
O220 C243 1.252 . S
O221 Gd178 2.307 1_554 S
O221 C236 1.261 . S
O222 Gd179 2.388 . S
O222 C236 1.252 1_545 S
C223 O211 1.265 1_556 S
C223 O212 1.242 . S
C224 O215 1.261 . S
C224 O216 1.252 1_545 S
C225 C228 1.394 . S
C225 C230 1.370 1_556 S
C225 C231 1.500 . S
C226 C229 1.383 1_554 S
C226 C230 1.395 . S
C227 C228 1.396 . S
C227 C229 1.365 . S
C227 H244 0.929 . S
C228 C225 1.394 . S
C228 C227 1.396 . S
C228 H245 0.930 . S
C229 C226 1.383 1_556 S
C229 C227 1.365 . S
C229 H246 0.931 . S
C230 C225 1.370 1_554 S
C230 C226 1.395 . S
C230 H247 0.930 . S
C231 Gd178 2.805 . S
C231 O213 1.263 1_556 S
C231 O214 1.252 . S
C231 C225 1.500 . S
C232 H194 0.930 . S
C232 C208 1.417 1_556 S
C232 C233 1.329 . S
C233 C203 1.437 . S
C233 H204 0.929 . S
C233 C232 1.329 . S
H234 C207 0.931 . S
C235 O217 1.265 1_554 S
C235 O218 1.242 . S
C236 O221 1.261 . S
C236 O222 1.252 1_565 S
C237 C240 1.394 . S
C237 C242 1.370 1_554 S
C237 C243 1.500 . S
C238 C241 1.383 1_556 S
C238 C242 1.395 . S
C239 C240 1.396 . S
C239 C241 1.365 . S
C239 H248 0.929 . S
C240 C237 1.394 . S
C240 C239 1.396 . S
C240 H249 0.930 . S
C241 C238 1.383 1_554 S
C241 C239 1.365 . S
C241 H250 0.931 . S
C242 C237 1.370 1_556 S
C242 C238 1.395 . S
C242 H251 0.930 . S
C243 Gd179 2.805 . S
C243 O219 1.263 1_554 S
C243 O220 1.252 . S
C243 C237 1.500 . S
H244 C227 0.929 . S
H245 C228 0.930 . S
H246 C229 0.931 . S
H247 C230 0.930 . S
H248 C239 0.929 . S
H249 C240 0.930 . S
H250 C241 0.931 . S
H251 C242 0.930 . S
C252 C254 1.422 . S
C252 C256 1.415 . S
C252 N258 1.369 . S
C253 C254 1.421 . S
C253 C255 1.417 . S
C253 C265 1.422 . S
C254 C252 1.422 . S
C254 C253 1.421 . S
C254 N264 1.359 . S
C255 C253 1.417 . S
C255 C257 1.329 . S
C255 H274 0.930 . S
C256 C252 1.415 . S
C256 C257 1.437 . S
C256 C260 1.413 . S
C257 C255 1.329 . S
C257 C256 1.437 . S
C257 H279 0.929 . S
N258 C252 1.369 . S
N258 C259 1.338 . S
N258 Gd263 2.622 . S
C259 N258 1.338 . S
C259 C261 1.378 . S
C259 H271 0.929 . S
C260 C256 1.413 . S
C260 C261 1.348 . S
C260 H276 0.931 . S
C261 C259 1.378 . S
C261 C260 1.348 . S
C261 H277 0.930 . S
Gd262 N282 2.622 . S
Gd262 N289 2.570 . S
Gd262 O296 2.353 . S
Gd262 O297 2.468 . S
Gd262 O298 2.427 . S
Gd262 O300 2.388 . S
Gd262 O301 2.386 . S
Gd262 O305 2.307 . S
Gd262 C315 2.805 . S
Gd263 N258 2.622 . S
Gd263 N264 2.570 . S
Gd263 O295 2.386 . S
Gd263 O299 2.307 . S
Gd263 O302 2.353 . S
Gd263 O303 2.468 . S
Gd263 O304 2.427 . S
Gd263 O306 2.388 . S
Gd263 C327 2.805 . S
N264 C254 1.359 . S
N264 Gd263 2.570 . S
N264 C266 1.343 . S
C265 C253 1.422 . S
C265 C267 1.321 . S
C265 H273 0.931 . S
C266 N264 1.343 . S
C266 C267 1.390 . S
C266 H268 0.931 . S
C267 C265 1.321 . S
C267 C266 1.390 . S
C267 H269 0.930 . S
H268 C266 0.931 . S
H269 C267 0.930 . S
H270 C293 0.931 . S
H271 C259 0.929 . S
H272 C294 0.930 . S
H273 C265 0.931 . S
H274 C255 0.930 . S
H275 C284 0.929 . S
H276 C260 0.931 . S
H277 C261 0.930 . S
H278 C316 0.930 . S
H279 C257 0.929 . S
H280 C285 0.931 . S
H281 C286 0.930 . S
N282 Gd262 2.622 . S
N282 C283 1.369 . S
N282 C284 1.338 . S
C283 N282 1.369 . S
C283 C287 1.415 . S
C283 C290 1.422 . S
C284 H275 0.929 . S
C284 N282 1.338 . S
C284 C286 1.378 . S
C285 H280 0.931 . S
C285 C286 1.348 . S
C285 C287 1.413 . S
C286 H281 0.930 . S
C286 C284 1.378 . S
C286 C285 1.348 . S
C287 C283 1.415 . S
C287 C285 1.413 . S
C287 C317 1.437 . S
H288 C317 0.929 . S
N289 Gd262 2.570 . S
N289 C290 1.359 . S
N289 C293 1.343 . S
C290 C283 1.422 . S
C290 N289 1.359 . S
C290 C292 1.421 . S
C291 C292 1.422 . S
C291 C294 1.321 . S
C291 H318 0.931 . S
C292 C290 1.421 . S
C292 C291 1.422 . S
C292 C316 1.417 . S
C293 H270 0.931 . S
C293 N289 1.343 . S
C293 C294 1.390 . S
C294 H272 0.930 . S
C294 C291 1.321 . S
C294 C293 1.390 . S
O295 Gd263 2.386 . S
O295 C307 1.265 . S
O296 Gd262 2.353 . S
O296 C307 1.242 . S
O297 Gd262 2.468 . S
O297 C315 1.263 . S
O298 Gd262 2.427 . S
O298 C315 1.252 . S
O299 Gd263 2.307 . S
O299 C308 1.261 . S
O300 Gd262 2.388 . S
O300 C308 1.252 . S
O301 Gd262 2.386 . S
O301 C319 1.265 . S
O302 Gd263 2.353 . S
O302 C319 1.242 . S
O303 Gd263 2.468 . S
O303 C327 1.263 . S
O304 Gd263 2.427 . S
O304 C327 1.252 . S
O305 Gd262 2.307 . S
O305 C320 1.261 . S
O306 Gd263 2.388 . S
O306 C320 1.252 . S
C307 O295 1.265 . S
C307 O296 1.242 . S
C308 O299 1.261 . S
C308 O300 1.252 . S
C309 C312 1.394 . S
C309 C314 1.370 . S
C309 C315 1.500 . S
C310 C313 1.383 . S
C310 C314 1.395 . S
C311 C312 1.396 . S
C311 C313 1.365 . S
C311 H328 0.929 . S
C312 C309 1.394 . S
C312 C311 1.396 . S
C312 H329 0.930 . S
C313 C310 1.383 . S
C313 C311 1.365 . S
C313 H330 0.931 . S
C314 C309 1.370 . S
C314 C310 1.395 . S
C314 H331 0.930 . S
C315 Gd262 2.805 . S
C315 O297 1.263 . S
C315 O298 1.252 . S
C315 C309 1.500 . S
C316 H278 0.930 . S
C316 C292 1.417 . S
C316 C317 1.329 . S
C317 C287 1.437 . S
C317 H288 0.929 . S
C317 C316 1.329 . S
H318 C291 0.931 . S
C319 O301 1.265 . S
C319 O302 1.242 . S
C320 O305 1.261 . S
C320 O306 1.252 . S
C321 C324 1.394 . S
C321 C326 1.370 . S
C321 C327 1.500 . S
C322 C325 1.383 . S
C322 C326 1.395 . S
C323 C324 1.396 . S
C323 C325 1.365 . S
C323 H332 0.929 . S
C324 C321 1.394 . S
C324 C323 1.396 . S
C324 H333 0.930 . S
C325 C322 1.383 . S
C325 C323 1.365 . S
C325 H334 0.931 . S
C326 C321 1.370 . S
C326 C322 1.395 . S
C326 H335 0.930 . S
C327 Gd263 2.805 . S
C327 O303 1.263 . S
C327 O304 1.252 . S
C327 C321 1.500 . S
H328 C311 0.929 . S
H329 C312 0.930 . S
H330 C313 0.931 . S
H331 C314 0.930 . S
H332 C323 0.929 . S
H333 C324 0.930 . S
H334 C325 0.931 . S
H335 C326 0.930 . S
C336 C338 1.422 . S
C336 C340 1.415 . S
C336 N342 1.369 . S
C337 C338 1.421 . S
C337 C339 1.417 . S
C337 C349 1.422 . S
C338 C336 1.422 . S
C338 C337 1.421 . S
C338 N348 1.359 . S
C339 C337 1.417 . S
C339 C341 1.329 . S
C339 H358 0.930 . S
C340 C336 1.415 . S
C340 C341 1.437 . S
C340 C344 1.413 . S
C341 C339 1.329 . S
C341 C340 1.437 . S
C341 H363 0.929 . S
N342 C336 1.369 . S
N342 C343 1.338 . S
N342 Gd347 2.622 . S
C343 N342 1.338 . S
C343 C345 1.378 . S
C343 H355 0.929 . S
C344 C340 1.413 . S
C344 C345 1.348 . S
C344 H360 0.931 . S
C345 C343 1.378 . S
C345 C344 1.348 . S
C345 H361 0.930 . S
Gd346 N366 2.622 . S
Gd346 N373 2.570 . S
Gd346 O380 2.353 . S
Gd346 O381 2.468 . S
Gd346 O382 2.427 . S
Gd346 O384 2.388 . S
Gd346 O385 2.386 . S
Gd346 O389 2.307 . S
Gd346 C399 2.805 . S
Gd347 N342 2.622 . S
Gd347 N348 2.570 . S
Gd347 O379 2.386 . S
Gd347 O383 2.307 . S
Gd347 O386 2.353 . S
Gd347 O387 2.468 . S
Gd347 O388 2.427 . S
Gd347 O390 2.388 . S
Gd347 C411 2.805 . S
N348 C338 1.359 . S
N348 Gd347 2.570 . S
N348 C350 1.343 . S
C349 C337 1.422 . S
C349 C351 1.321 . S
C349 H357 0.931 . S
C350 N348 1.343 . S
C350 C351 1.390 . S
C350 H352 0.931 . S
C351 C349 1.321 . S
C351 C350 1.390 . S
C351 H353 0.930 . S
H352 C350 0.931 . S
H353 C351 0.930 . S
H354 C377 0.931 . S
H355 C343 0.929 . S
H356 C378 0.934 . S
H357 C349 0.931 . S
H358 C339 0.930 . S
H359 C368 0.929 . S
H360 C344 0.931 . S
H361 C345 0.930 . S
H362 C400 0.930 . S
H363 C341 0.929 . S
H364 C369 0.931 . S
H365 C370 0.930 . S
N366 Gd346 2.622 . S
N366 C367 1.369 . S
N366 C368 1.338 . S
C367 N366 1.369 . S
C367 C371 1.415 . S
C367 C374 1.422 . S
C368 H359 0.929 . S
C368 N366 1.338 . S
C368 C370 1.378 . S
C369 H364 0.931 . S
C369 C370 1.348 . S
C369 C371 1.413 . S
C370 H365 0.930 . S
C370 C368 1.378 . S
C370 C369 1.348 . S
C371 C367 1.415 . S
C371 C369 1.413 . S
C371 C401 1.437 1_565 S
H372 C401 0.929 . S
N373 Gd346 2.570 . S
N373 C374 1.359 . S
N373 C377 1.343 . S
C374 C367 1.422 . S
C374 N373 1.359 . S
C374 C376 1.421 1_565 S
C375 C376 1.422 . S
C375 C378 1.322 . S
C375 H402 0.931 . S
C376 C374 1.421 1_545 S
C376 C375 1.422 . S
C376 C400 1.417 . S
C377 H354 0.931 . S
C377 N373 1.343 . S
C377 C378 1.387 1_565 S
C378 H356 0.934 . S
C378 C375 1.322 . S
C378 C377 1.387 1_545 S
O379 Gd347 2.386 . S
O379 C391 1.265 . S
O380 Gd346 2.353 . S
O380 C391 1.242 . S
O381 Gd346 2.468 . S
O381 C399 1.263 . S
O382 Gd346 2.427 . S
O382 C399 1.252 . S
O383 Gd347 2.307 . S
O383 C392 1.261 . S
O384 Gd346 2.388 . S
O384 C392 1.252 . S
O385 Gd346 2.386 . S
O385 C403 1.265 . S
O386 Gd347 2.353 . S
O386 C403 1.242 . S
O387 Gd347 2.468 . S
O387 C411 1.263 . S
O388 Gd347 2.427 . S
O388 C411 1.252 . S
O389 Gd346 2.307 . S
O389 C404 1.261 . S
O390 Gd347 2.388 . S
O390 C404 1.252 . S
C391 O379 1.265 . S
C391 O380 1.242 . S
C392 O383 1.261 . S
C392 O384 1.252 . S
C393 C396 1.394 . S
C393 C398 1.370 . S
C393 C399 1.500 1_545 S
C394 C397 1.383 . S
C394 C398 1.395 . S
C395 C396 1.396 . S
C395 C397 1.365 . S
C395 H412 0.929 . S
C396 C393 1.394 . S
C396 C395 1.396 . S
C396 H413 0.930 . S
C397 C394 1.383 . S
C397 C395 1.365 . S
C397 H414 0.931 . S
C398 C393 1.370 . S
C398 C394 1.395 . S
C398 H415 0.930 . S
C399 Gd346 2.805 . S
C399 O381 1.263 . S
C399 O382 1.252 . S
C399 C393 1.500 1_565 S
C400 H362 0.930 . S
C400 C376 1.417 . S
C400 C401 1.329 . S
C401 C371 1.437 1_545 S
C401 H372 0.929 . S
C401 C400 1.329 . S
H402 C375 0.931 . S
C403 O385 1.265 . S
C403 O386 1.242 . S
C404 O389 1.261 . S
C404 O390 1.252 . S
C405 C408 1.394 . S
C405 C410 1.370 . S
C405 C411 1.500 . S
C406 C409 1.383 . S
C406 C410 1.395 . S
C407 C408 1.396 . S
C407 C409 1.365 . S
C407 H416 0.929 . S
C408 C405 1.394 . S
C408 C407 1.396 . S
C408 H417 0.930 . S
C409 C406 1.383 . S
C409 C407 1.365 . S
C409 H418 0.931 . S
C410 C405 1.370 . S
C410 C406 1.395 . S
C410 H419 0.930 . S
C411 Gd347 2.805 . S
C411 O387 1.263 . S
C411 O388 1.252 . S
C411 C405 1.500 . S
H412 C395 0.929 . S
H413 C396 0.930 . S
H414 C397 0.931 . S
H415 C398 0.930 . S
H416 C407 0.929 . S
H417 C408 0.930 . S
H418 C409 0.931 . S
H419 C410 0.930 . S
C420 C422 1.422 . S
C420 C424 1.415 . S
C420 N426 1.369 . S
C421 C422 1.421 . S
C421 C423 1.417 . S
C421 C433 1.422 . S
C422 C420 1.422 . S
C422 C421 1.421 . S
C422 N432 1.359 . S
C423 C421 1.417 . S
C423 C425 1.329 . S
C423 H442 0.930 . S
C424 C420 1.415 . S
C424 C425 1.437 . S
C424 C428 1.413 . S
C425 C423 1.329 . S
C425 C424 1.437 . S
C425 H447 0.929 . S
N426 C420 1.369 . S
N426 C427 1.338 . S
N426 Gd431 2.622 . S
C427 N426 1.338 . S
C427 C429 1.378 . S
C427 H439 0.929 . S
C428 C424 1.413 . S
C428 C429 1.348 . S
C428 H444 0.931 . S
C429 C427 1.378 . S
C429 C428 1.348 . S
C429 H445 0.930 . S
Gd430 N450 2.622 . S
Gd430 N457 2.570 . S
Gd430 O464 2.353 . S
Gd430 O465 2.468 . S
Gd430 O466 2.427 . S
Gd430 O468 2.388 . S
Gd430 O469 2.386 . S
Gd430 O473 2.307 . S
Gd430 C483 2.805 . S
Gd431 N426 2.622 . S
Gd431 N432 2.570 . S
Gd431 O463 2.386 . S
Gd431 O467 2.307 . S
Gd431 O470 2.353 . S
Gd431 O471 2.468 . S
Gd431 O472 2.427 . S
Gd431 O474 2.388 . S
Gd431 C495 2.805 . S
N432 C422 1.359 . S
N432 Gd431 2.570 . S
N432 C434 1.343 . S
C433 C421 1.422 . S
C433 C435 1.321 . S
C433 H441 0.931 . S
C434 N432 1.343 . S
C434 C435 1.390 . S
C434 H436 0.931 . S
C435 C433 1.321 . S
C435 C434 1.390 . S
C435 H437 0.930 . S
H436 C434 0.931 . S
H437 C435 0.930 . S
H438 C461 0.931 . S
H439 C427 0.929 . S
H440 C462 0.930 . S
H441 C433 0.931 . S
H442 C423 0.930 . S
H443 C452 0.929 . S
H444 C428 0.931 . S
H445 C429 0.930 . S
H446 C484 0.930 . S
H447 C425 0.929 . S
H448 C453 0.931 . S
H449 C454 0.930 . S
N450 Gd430 2.622 . S
N450 C451 1.369 . S
N450 C452 1.338 . S
C451 N450 1.369 . S
C451 C455 1.415 . S
C451 C458 1.422 . S
C452 H443 0.929 . S
C452 N450 1.338 . S
C452 C454 1.378 . S
C453 H448 0.931 . S
C453 C454 1.348 . S
C453 C455 1.413 . S
C454 H449 0.930 . S
C454 C452 1.378 . S
C454 C453 1.348 . S
C455 C451 1.415 . S
C455 C453 1.413 . S
C455 C485 1.437 1_455 S
H456 C485 0.929 . S
N457 Gd430 2.570 . S
N457 C458 1.359 . S
N457 C461 1.343 . S
C458 C451 1.422 . S
C458 N457 1.359 . S
C458 C460 1.456 . S
C459 C460 1.418 1_655 S
C459 C462 1.321 1_655 S
C459 H486 0.931 . S
C460 C458 1.456 . S
C460 C459 1.418 1_455 S
C460 C484 1.390 1_455 S
C461 H438 0.931 . S
C461 N457 1.343 . S
C461 C462 1.390 . S
C462 H440 0.930 . S
C462 C459 1.321 1_455 S
C462 C461 1.390 . S
O463 Gd431 2.386 . S
O463 C475 1.265 . S
O464 Gd430 2.353 . S
O464 C475 1.242 . S
O465 Gd430 2.468 . S
O465 C483 1.263 . S
O466 Gd430 2.427 . S
O466 C483 1.252 . S
O467 Gd431 2.307 . S
O467 C476 1.261 . S
O468 Gd430 2.388 . S
O468 C476 1.252 . S
O469 Gd430 2.386 . S
O469 C487 1.265 . S
O470 Gd431 2.353 . S
O470 C487 1.242 . S
O471 Gd431 2.468 . S
O471 C495 1.263 . S
O472 Gd431 2.427 . S
O472 C495 1.252 . S
O473 Gd430 2.307 . S
O473 C488 1.261 . S
O474 Gd431 2.388 . S
O474 C488 1.252 . S
C475 O463 1.265 . S
C475 O464 1.242 . S
C476 O467 1.261 . S
C476 O468 1.252 . S
C477 C480 1.394 . S
C477 C482 1.370 . S
C477 C483 1.500 1_655 S
C478 C481 1.383 . S
C478 C482 1.395 . S
C479 C480 1.396 . S
C479 C481 1.365 . S
C479 H496 0.929 . S
C480 C477 1.394 . S
C480 C479 1.396 . S
C480 H497 0.930 . S
C481 C478 1.383 . S
C481 C479 1.365 . S
C481 H498 0.931 . S
C482 C477 1.370 . S
C482 C478 1.395 . S
C482 H499 0.930 . S
C483 Gd430 2.805 . S
C483 O465 1.263 . S
C483 O466 1.252 . S
C483 C477 1.500 1_455 S
C484 H446 0.930 . S
C484 C460 1.390 1_655 S
C484 C485 1.329 . S
C485 C455 1.437 1_655 S
C485 H456 0.929 . S
C485 C484 1.329 . S
H486 C459 0.931 . S
C487 O469 1.265 . S
C487 O470 1.242 . S
C488 O473 1.261 . S
C488 O474 1.252 . S
C489 C492 1.394 . S
C489 C494 1.370 . S
C489 C495 1.500 . S
C490 C493 1.383 . S
C490 C494 1.395 . S
C491 C492 1.396 . S
C491 C493 1.365 . S
C491 H500 0.929 . S
C492 C489 1.394 . S
C492 C491 1.396 . S
C492 H501 0.930 . S
C493 C490 1.383 . S
C493 C491 1.365 . S
C493 H502 0.931 . S
C494 C489 1.370 . S
C494 C490 1.395 . S
C494 H503 0.930 . S
C495 Gd431 2.805 . S
C495 O471 1.263 . S
C495 O472 1.252 . S
C495 C489 1.500 . S
H496 C479 0.929 . S
H497 C480 0.930 . S
H498 C481 0.931 . S
H499 C482 0.930 . S
H500 C491 0.929 . S
H501 C492 0.930 . S
H502 C493 0.931 . S
H503 C494 0.930 . S
C504 C506 1.422 . S
C504 C508 1.415 . S
C504 N510 1.369 . S
C505 C506 1.421 . S
C505 C507 1.417 . S
C505 C517 1.422 . S
C506 C504 1.422 . S
C506 C505 1.421 . S
C506 N516 1.359 . S
C507 C505 1.417 . S
C507 C509 1.329 . S
C507 H526 0.930 . S
C508 C504 1.415 . S
C508 C509 1.437 . S
C508 C512 1.413 . S
C509 C507 1.329 . S
C509 C508 1.437 . S
C509 H531 0.929 . S
N510 C504 1.369 . S
N510 C511 1.338 . S
N510 Gd515 2.622 . S
C511 N510 1.338 . S
C511 C513 1.378 . S
C511 H523 0.929 . S
C512 C508 1.413 . S
C512 C513 1.348 . S
C512 H528 0.931 . S
C513 C511 1.378 . S
C513 C512 1.348 . S
C513 H529 0.930 . S
Gd514 N534 2.622 . S
Gd514 N541 2.570 . S
Gd514 O548 2.353 . S
Gd514 O549 2.468 . S
Gd514 O550 2.427 . S
Gd514 O552 2.388 . S
Gd514 O553 2.386 . S
Gd514 O557 2.307 . S
Gd514 C567 2.805 . S
Gd515 N510 2.622 . S
Gd515 N516 2.570 . S
Gd515 O547 2.386 . S
Gd515 O551 2.307 . S
Gd515 O554 2.353 . S
Gd515 O555 2.468 . S
Gd515 O556 2.427 . S
Gd515 O558 2.388 . S
Gd515 C579 2.805 . S
N516 C506 1.359 . S
N516 Gd515 2.570 . S
N516 C518 1.343 . S
C517 C505 1.422 . S
C517 C519 1.321 . S
C517 H525 0.931 . S
C518 N516 1.343 . S
C518 C519 1.390 . S
C518 H520 0.931 . S
C519 C517 1.321 . S
C519 C518 1.390 . S
C519 H521 0.930 . S
H520 C518 0.931 . S
H521 C519 0.930 . S
H522 C545 0.931 . S
H523 C511 0.929 . S
H524 C546 0.930 . S
H525 C517 0.931 . S
H526 C507 0.930 . S
H527 C536 0.929 . S
H528 C512 0.931 . S
H529 C513 0.930 . S
H530 C568 0.930 . S
H531 C509 0.929 . S
H532 C537 0.931 1_565 S
H533 C538 0.930 . S
N534 Gd514 2.622 . S
N534 C535 1.369 . S
N534 C536 1.338 . S
C535 N534 1.369 . S
C535 C539 1.415 . S
C535 C542 1.422 . S
C536 H527 0.929 . S
C536 N534 1.338 . S
C536 C538 1.378 . S
C537 H532 0.931 1_545 S
C537 C538 1.348 . S
C537 C539 1.413 . S
C538 H533 0.930 . S
C538 C536 1.378 . S
C538 C537 1.348 . S
C539 C535 1.415 . S
C539 C537 1.413 . S
C539 C569 1.437 1_545 S
H540 C569 0.929 . S
N541 Gd514 2.570 . S
N541 C542 1.359 . S
N541 C545 1.343 . S
C542 C535 1.422 . S
C542 N541 1.359 . S
C542 C544 1.394 1_545 S
C543 C544 1.426 . S
C543 C546 1.321 1_565 S
C543 H570 0.931 . S
C544 C542 1.394 1_565 S
C544 C543 1.426 . S
C544 C568 1.439 . S
C545 H522 0.931 . S
C545 N541 1.343 . S
C545 C546 1.390 . S
C546 H524 0.930 . S
C546 C543 1.321 1_545 S
C546 C545 1.390 . S
O547 Gd515 2.386 . S
O547 C559 1.265 . S
O548 Gd514 2.353 . S
O548 C559 1.242 . S
O549 Gd514 2.468 . S
O549 C567 1.263 . S
O550 Gd514 2.427 . S
O550 C567 1.252 . S
O551 Gd515 2.307 . S
O551 C560 1.261 . S
O552 Gd514 2.388 . S
O552 C560 1.252 . S
O553 Gd514 2.386 . S
O553 C571 1.265 . S
O554 Gd515 2.353 . S
O554 C571 1.242 . S
O555 Gd515 2.468 . S
O555 C579 1.263 . S
O556 Gd515 2.427 . S
O556 C579 1.252 . S
O557 Gd514 2.307 . S
O557 C572 1.261 . S
O558 Gd515 2.388 . S
O558 C572 1.252 . S
C559 O547 1.265 . S
C559 O548 1.242 . S
C560 O551 1.261 . S
C560 O552 1.252 . S
C561 C564 1.394 . S
C561 C566 1.370 . S
C561 C567 1.500 . S
C562 C565 1.383 . S
C562 C566 1.395 . S
C563 C564 1.396 . S
C563 C565 1.365 . S
C563 H580 0.929 . S
C564 C561 1.394 . S
C564 C563 1.396 . S
C564 H581 0.930 . S
C565 C562 1.383 . S
C565 C563 1.365 . S
C565 H582 0.931 . S
C566 C561 1.370 . S
C566 C562 1.395 . S
C566 H583 0.930 . S
C567 Gd514 2.805 . S
C567 O549 1.263 . S
C567 O550 1.252 . S
C567 C561 1.500 . S
C568 H530 0.930 . S
C568 C544 1.439 . S
C568 C569 1.329 . S
C569 C539 1.437 1_565 S
C569 H540 0.929 . S
C569 C568 1.329 . S
H570 C543 0.931 . S
C571 O553 1.265 . S
C571 O554 1.242 . S
C572 O557 1.261 . S
C572 O558 1.252 . S
C573 C576 1.394 . S
C573 C578 1.370 . S
C573 C579 1.500 . S
C574 C577 1.383 . S
C574 C578 1.395 . S
C575 C576 1.396 . S
C575 C577 1.365 . S
C575 H584 0.929 . S
C576 C573 1.394 . S
C576 C575 1.396 . S
C576 H585 0.930 . S
C577 C574 1.383 . S
C577 C575 1.365 . S
C577 H586 0.931 . S
C578 C573 1.370 . S
C578 C574 1.395 . S
C578 H587 0.930 . S
C579 Gd515 2.805 . S
C579 O555 1.263 . S
C579 O556 1.252 . S
C579 C573 1.500 . S
H580 C563 0.929 . S
H581 C564 0.930 . S
H582 C565 0.931 . S
H583 C566 0.930 . S
H584 C575 0.929 . S
H585 C576 0.930 . S
H586 C577 0.931 . S
H587 C578 0.930 . S
C588 C590 1.422 . S
C588 C592 1.415 . S
C588 N594 1.369 . S
C589 C590 1.421 . S
C589 C591 1.417 . S
C589 C601 1.422 . S
C590 C588 1.422 . S
C590 C589 1.421 . S
C590 N600 1.359 . S
C591 C589 1.417 . S
C591 C593 1.329 . S
C591 H610 0.930 . S
C592 C588 1.415 . S
C592 C593 1.437 . S
C592 C596 1.413 . S
C593 C591 1.329 . S
C593 C592 1.437 . S
C593 H615 0.929 . S
N594 C588 1.369 . S
N594 C595 1.338 . S
N594 Gd599 2.622 . S
C595 N594 1.338 . S
C595 C597 1.378 . S
C595 H607 0.929 . S
C596 C592 1.413 . S
C596 C597 1.348 . S
C596 H612 0.931 . S
C597 C595 1.378 . S
C597 C596 1.348 . S
C597 H613 0.930 . S
Gd598 N618 2.622 . S
Gd598 N625 2.570 . S
Gd598 O632 2.353 . S
Gd598 O633 2.468 . S
Gd598 O634 2.427 . S
Gd598 O636 2.388 . S
Gd598 O637 2.386 . S
Gd598 O641 2.307 . S
Gd598 C651 2.805 . S
Gd599 N594 2.622 . S
Gd599 N600 2.570 . S
Gd599 O631 2.386 . S
Gd599 O635 2.307 . S
Gd599 O638 2.353 . S
Gd599 O639 2.468 . S
Gd599 O640 2.427 . S
Gd599 O642 2.388 . S
Gd599 C663 2.805 . S
N600 C590 1.359 . S
N600 Gd599 2.570 . S
N600 C602 1.343 . S
C601 C589 1.422 . S
C601 C603 1.321 . S
C601 H609 0.931 . S
C602 N600 1.343 . S
C602 C603 1.390 . S
C602 H604 0.931 . S
C603 C601 1.321 . S
C603 C602 1.390 . S
C603 H605 0.930 . S
H604 C602 0.931 . S
H605 C603 0.930 . S
H606 C629 0.931 . S
H607 C595 0.929 . S
H608 C630 0.930 . S
H609 C601 0.931 . S
H610 C591 0.930 . S
H611 C620 0.929 . S
H612 C596 0.931 . S
H613 C597 0.930 . S
H614 C652 0.930 . S
H615 C593 0.929 . S
H616 C621 0.931 1_455 S
H617 C622 0.930 . S
N618 Gd598 2.622 . S
N618 C619 1.369 . S
N618 C620 1.338 . S
C619 N618 1.369 . S
C619 C623 1.415 1_655 S
C619 C626 1.422 . S
C620 H611 0.929 . S
C620 N618 1.338 . S
C620 C622 1.378 . S
C621 H616 0.931 1_655 S
C621 C622 1.348 . S
C621 C623 1.413 1_655 S
C622 H617 0.930 . S
C622 C620 1.378 . S
C622 C621 1.348 . S
C623 C619 1.415 1_455 S
C623 C621 1.413 1_455 S
C623 C653 1.437 . S
H624 C653 0.929 . S
N625 Gd598 2.570 . S
N625 C626 1.359 . S
N625 C629 1.343 . S
C626 C619 1.422 . S
C626 N625 1.359 . S
C626 C628 1.421 1_655 S
C627 C628 1.422 . S
C627 C630 1.321 1_455 S
C627 H654 0.931 . S
C628 C626 1.421 1_455 S
C628 C627 1.422 . S
C628 C652 1.417 . S
C629 H606 0.931 . S
C629 N625 1.343 . S
C629 C630 1.390 . S
C630 H608 0.930 . S
C630 C627 1.321 1_655 S
C630 C629 1.390 . S
O631 Gd599 2.386 . S
O631 C643 1.265 . S
O632 Gd598 2.353 . S
O632 C643 1.242 . S
O633 Gd598 2.468 . S
O633 C651 1.263 . S
O634 Gd598 2.427 . S
O634 C651 1.252 . S
O635 Gd599 2.307 . S
O635 C644 1.261 . S
O636 Gd598 2.388 . S
O636 C644 1.252 . S
O637 Gd598 2.386 . S
O637 C655 1.265 . S
O638 Gd599 2.353 . S
O638 C655 1.242 . S
O639 Gd599 2.468 . S
O639 C663 1.263 . S
O640 Gd599 2.427 . S
O640 C663 1.252 . S
O641 Gd598 2.307 . S
O641 C656 1.261 . S
O642 Gd599 2.388 . S
O642 C656 1.252 . S
C643 O631 1.265 . S
C643 O632 1.242 . S
C644 O635 1.261 . S
C644 O636 1.252 . S
C645 C648 1.394 . S
C645 C650 1.370 . S
C645 C651 1.500 . S
C646 C649 1.383 . S
C646 C650 1.395 . S
C647 C648 1.396 . S
C647 C649 1.365 . S
C647 H664 0.929 . S
C648 C645 1.394 . S
C648 C647 1.396 . S
C648 H665 0.930 . S
C649 C646 1.383 . S
C649 C647 1.365 . S
C649 H666 0.931 . S
C650 C645 1.370 . S
C650 C646 1.395 . S
C650 H667 0.930 . S
C651 Gd598 2.805 . S
C651 O633 1.263 . S
C651 O634 1.252 . S
C651 C645 1.500 . S
C652 H614 0.930 . S
C652 C628 1.417 . S
C652 C653 1.329 . S
C653 C623 1.437 . S
C653 H624 0.929 . S
C653 C652 1.329 . S
H654 C627 0.931 . S
C655 O637 1.265 . S
C655 O638 1.242 . S
C656 O641 1.261 . S
C656 O642 1.252 . S
C657 C660 1.394 . S
C657 C662 1.370 . S
C657 C663 1.500 . S
C658 C661 1.383 . S
C658 C662 1.395 . S
C659 C660 1.396 . S
C659 C661 1.365 . S
C659 H668 0.929 . S
C660 C657 1.394 . S
C660 C659 1.396 . S
C660 H669 0.930 . S
C661 C658 1.383 . S
C661 C659 1.365 . S
C661 H670 0.931 . S
C662 C657 1.370 . S
C662 C658 1.395 . S
C662 H671 0.930 . S
C663 Gd599 2.805 . S
C663 O639 1.263 . S
C663 O640 1.252 . S
C663 C657 1.500 . S
H664 C647 0.929 . S
H665 C648 0.930 . S
H666 C649 0.931 . S
H667 C650 0.930 . S
H668 C659 0.929 . S
H669 C660 0.930 . S
H670 C661 0.931 . S
H671 C662 0.930 . S
C672 C674 1.422 . S
C672 C676 1.415 . S
C672 N678 1.369 . S
C673 C674 1.421 . S
C673 C675 1.417 . S
C673 C685 1.422 . S
C674 C672 1.422 . S
C674 C673 1.421 . S
C674 N684 1.359 . S
C675 C673 1.417 . S
C675 C677 1.329 . S
C675 H694 0.930 . S
C676 C672 1.415 . S
C676 C677 1.437 . S
C676 C680 1.413 . S
C677 C675 1.329 . S
C677 C676 1.437 . S
C677 H699 0.929 . S
N678 C672 1.369 . S
N678 C679 1.338 . S
N678 Gd683 2.622 . S
C679 N678 1.338 . S
C679 C681 1.378 . S
C679 H691 0.929 . S
C680 C676 1.413 . S
C680 C681 1.348 . S
C680 H696 0.931 . S
C681 C679 1.378 . S
C681 C680 1.348 . S
C681 H697 0.930 . S
Gd682 N702 2.622 . S
Gd682 N709 2.570 . S
Gd682 O716 2.353 . S
Gd682 O717 2.468 . S
Gd682 O718 2.427 . S
Gd682 O720 2.388 . S
Gd682 O721 2.386 . S
Gd682 O725 2.307 . S
Gd682 C735 2.805 . S
Gd683 N678 2.622 . S
Gd683 N684 2.570 . S
Gd683 O715 2.386 . S
Gd683 O719 2.307 . S
Gd683 O722 2.353 . S
Gd683 O723 2.468 . S
Gd683 O724 2.427 . S
Gd683 O726 2.388 . S
Gd683 C747 2.805 . S
N684 C674 1.359 . S
N684 Gd683 2.570 . S
N684 C686 1.343 . S
C685 C673 1.422 . S
C685 C687 1.321 . S
C685 H693 0.931 . S
C686 N684 1.343 . S
C686 C687 1.390 . S
C686 H688 0.931 . S
C687 C685 1.321 . S
C687 C686 1.390 . S
C687 H689 0.930 . S
H688 C686 0.931 . S
H689 C687 0.930 . S
H690 C713 0.931 . S
H691 C679 0.929 . S
H692 C714 0.930 . S
H693 C685 0.931 . S
H694 C675 0.930 . S
H695 C704 0.929 . S
H696 C680 0.931 . S
H697 C681 0.930 . S
H698 C736 0.930 . S
H699 C677 0.929 . S
H700 C705 0.931 . S
H701 C706 0.930 . S
N702 Gd682 2.622 . S
N702 C703 1.369 . S
N702 C704 1.338 . S
C703 N702 1.369 . S
C703 C707 1.415 . S
C703 C710 1.422 . S
C704 H695 0.929 . S
C704 N702 1.338 . S
C704 C706 1.378 . S
C705 H700 0.931 . S
C705 C706 1.348 . S
C705 C707 1.413 . S
C706 H701 0.930 . S
C706 C704 1.378 . S
C706 C705 1.348 . S
C707 C703 1.415 . S
C707 C705 1.413 . S
C707 C737 1.437 . S
H708 C737 0.929 . S
N709 Gd682 2.570 . S
N709 C710 1.359 . S
N709 C713 1.343 . S
C710 C703 1.422 . S
C710 N709 1.359 . S
C710 C712 1.421 . S
C711 C712 1.422 . S
C711 C714 1.321 . S
C711 H738 0.931 . S
C712 C710 1.421 . S
C712 C711 1.422 . S
C712 C736 1.417 . S
C713 H690 0.931 . S
C713 N709 1.343 . S
C713 C714 1.390 . S
C714 H692 0.930 . S
C714 C711 1.321 . S
C714 C713 1.390 . S
O715 Gd683 2.386 . S
O715 C727 1.265 . S
O716 Gd682 2.353 . S
O716 C727 1.242 . S
O717 Gd682 2.468 . S
O717 C735 1.263 . S
O718 Gd682 2.427 . S
O718 C735 1.252 . S
O719 Gd683 2.307 . S
O719 C728 1.261 . S
O720 Gd682 2.388 . S
O720 C728 1.252 . S
O721 Gd682 2.386 . S
O721 C739 1.265 . S
O722 Gd683 2.353 . S
O722 C739 1.242 . S
O723 Gd683 2.468 . S
O723 C747 1.263 . S
O724 Gd683 2.427 . S
O724 C747 1.252 . S
O725 Gd682 2.307 . S
O725 C740 1.261 . S
O726 Gd683 2.388 . S
O726 C740 1.252 . S
C727 O715 1.265 . S
C727 O716 1.242 . S
C728 O719 1.261 . S
C728 O720 1.252 . S
C729 C732 1.394 . S
C729 C734 1.370 . S
C729 C735 1.500 . S
C730 C733 1.383 . S
C730 C734 1.395 . S
C731 C732 1.396 . S
C731 C733 1.365 . S
C731 H748 0.929 . S
C732 C729 1.394 . S
C732 C731 1.396 . S
C732 H749 0.930 . S
C733 C730 1.383 . S
C733 C731 1.365 . S
C733 H750 0.931 . S
C734 C729 1.370 . S
C734 C730 1.395 . S
C734 H751 0.930 . S
C735 Gd682 2.805 . S
C735 O717 1.263 . S
C735 O718 1.252 . S
C735 C729 1.500 . S
C736 H698 0.930 . S
C736 C712 1.417 . S
C736 C737 1.329 . S
C737 C707 1.437 . S
C737 H708 0.929 . S
C737 C736 1.329 . S
H738 C711 0.931 . S
C739 O721 1.265 . S
C739 O722 1.242 . S
C740 O725 1.261 . S
C740 O726 1.252 . S
C741 C744 1.394 . S
C741 C746 1.370 . S
C741 C747 1.500 . S
C742 C745 1.383 . S
C742 C746 1.395 . S
C743 C744 1.396 . S
C743 C745 1.365 . S
C743 H752 0.929 . S
C744 C741 1.394 . S
C744 C743 1.396 . S
C744 H753 0.930 . S
C745 C742 1.383 . S
C745 C743 1.365 . S
C745 H754 0.931 . S
C746 C741 1.370 . S
C746 C742 1.395 . S
C746 H755 0.930 . S
C747 Gd683 2.805 . S
C747 O723 1.263 . S
C747 O724 1.252 . S
C747 C741 1.500 . S
H748 C731 0.929 . S
H749 C732 0.930 . S
H750 C733 0.931 . S
H751 C734 0.930 . S
H752 C743 0.929 . S
H753 C744 0.930 . S
H754 C745 0.931 . S
H755 C746 0.930 . S
H756 C774 0.951 . S
H757 C776 0.951 . S
H758 C778 0.950 . S
H759 C779 0.950 . S
H760 C781 0.950 . S
H761 C784 0.950 . S
H762 C785 0.950 . S
H763 C787 0.950 . S
H764 C788 0.950 . S
H765 C789 0.951 . S
H766 C791 0.951 . S
H767 C793 0.950 . S
H768 C794 0.950 . S
H769 C796 0.950 . S
H770 C799 0.950 . S
H771 C800 0.950 . S
H772 C802 0.950 . S
H773 C803 0.950 . S
C774 H756 0.951 . S
C774 C775 1.366 . S
C774 C776 1.388 . S
C775 C774 1.366 . S
C775 C779 1.385 1_556 S
C776 H757 0.951 . S
C776 C774 1.388 . S
C776 C777 1.364 1_556 S
C777 C776 1.364 1_554 S
C777 C778 1.415 . S
C777 C780 1.499 . S
C778 H758 0.950 . S
C778 C777 1.415 . S
C778 C779 1.374 . S
C779 H759 0.950 . S
C779 C775 1.385 1_554 S
C779 C778 1.374 . S
C780 C777 1.499 . S
C780 C781 1.373 . S
C780 C782 1.389 1_554 S
C781 H760 0.950 . S
C781 C780 1.373 . S
C781 C797 1.377 . S
C782 C780 1.389 1_556 S
C782 C783 1.524 . S
C782 C796 1.377 . S
C783 C782 1.524 . S
C783 C784 1.397 . S
C783 C788 1.363 . S
C784 H761 0.950 . S
C784 C783 1.397 . S
C784 C785 1.334 . S
C785 H762 0.950 . S
C785 C784 1.334 . S
C785 C786 1.287 . S
C786 C785 1.287 . S
C786 C787 1.524 . S
C786 H805 0.913 . S
C787 H763 0.950 . S
C787 C786 1.524 . S
C787 C788 1.415 . S
C788 H764 0.950 . S
C788 C783 1.363 . S
C788 C787 1.415 . S
C789 H765 0.951 . S
C789 C790 1.366 . S
C789 C791 1.388 . S
C790 C789 1.366 . S
C790 C794 1.385 . S
C791 H766 0.951 . S
C791 C789 1.388 . S
C791 C792 1.366 . S
C792 C791 1.366 . S
C792 C793 1.414 . S
C792 C795 1.499 . S
C793 H767 0.950 . S
C793 C792 1.414 . S
C793 C794 1.374 . S
C794 H768 0.950 . S
C794 C790 1.385 . S
C794 C793 1.374 . S
C795 C792 1.499 . S
C795 C796 1.373 1_554 S
C795 C797 1.389 . S
C796 H769 0.950 . S
C796 C782 1.377 . S
C796 C795 1.373 1_556 S
C797 C781 1.377 . S
C797 C795 1.389 . S
C797 C798 1.524 . S
C798 C797 1.524 . S
C798 C799 1.397 . S
C798 C803 1.363 . S
C799 H770 0.950 . S
C799 C798 1.397 . S
C799 C800 1.334 . S
C800 H771 0.950 . S
C800 C799 1.334 . S
C800 C801 1.287 . S
C801 C800 1.287 . S
C801 C802 1.524 . S
C801 H804 0.999 . S
C802 H772 0.950 . S
C802 C801 1.524 . S
C802 C803 1.415 . S
C803 H773 0.950 . S
C803 C798 1.363 . S
C803 C802 1.415 . S
H804 C801 0.999 . S
H805 C786 0.913 . S
H806 C824 0.951 . S
H807 C826 0.951 . S
H808 C828 0.950 . S
H809 C829 0.950 . S
H810 C831 0.950 . S
H811 C834 0.950 . S
H812 C835 0.950 . S
H813 C837 0.950 . S
H814 C838 0.950 . S
H815 C839 0.951 . S
H816 C841 0.951 . S
H817 C843 0.950 . S
H818 C844 0.950 . S
H819 C846 0.950 . S
H820 C849 0.950 . S
H821 C850 0.950 . S
H822 C852 0.950 . S
H823 C853 0.950 . S
C824 H806 0.951 . S
C824 C825 1.366 . S
C824 C826 1.388 . S
C825 C824 1.366 . S
C825 C829 1.385 1_556 S
C826 H807 0.951 . S
C826 C824 1.388 . S
C826 C827 1.366 1_556 S
C827 C826 1.366 1_554 S
C827 C828 1.414 . S
C827 C830 1.499 . S
C828 H808 0.950 . S
C828 C827 1.414 . S
C828 C829 1.374 . S
C829 H809 0.950 . S
C829 C825 1.385 1_554 S
C829 C828 1.374 . S
C830 C827 1.499 . S
C830 C831 1.373 1_554 S
C830 C832 1.389 . S
C831 H810 0.950 . S
C831 C830 1.373 1_556 S
C831 C847 1.377 . S
C832 C830 1.389 . S
C832 C833 1.524 . S
C832 C846 1.377 . S
C833 C832 1.524 . S
C833 C834 1.397 . S
C833 C838 1.363 . S
C834 H811 0.950 . S
C834 C833 1.397 . S
C834 C835 1.334 . S
C835 H812 0.950 . S
C835 C834 1.334 . S
C835 C836 1.287 . S
C836 C835 1.287 . S
C836 C837 1.524 . S
C836 H855 0.913 . S
C837 H813 0.950 . S
C837 C836 1.524 . S
C837 C838 1.415 . S
C838 H814 0.950 . S
C838 C833 1.363 . S
C838 C837 1.415 . S
C839 H815 0.951 . S
C839 C840 1.366 . S
C839 C841 1.388 . S
C840 C839 1.366 . S
C840 C844 1.385 . S
C841 H816 0.951 . S
C841 C839 1.388 . S
C841 C842 1.366 . S
C842 C841 1.366 . S
C842 C843 1.414 . S
C842 C845 1.499 . S
C843 H817 0.950 . S
C843 C842 1.414 . S
C843 C844 1.374 . S
C844 H818 0.950 . S
C844 C840 1.385 . S
C844 C843 1.374 . S
C845 C842 1.499 . S
C845 C846 1.373 . S
C845 C847 1.389 1_554 S
C846 H819 0.950 . S
C846 C832 1.377 . S
C846 C845 1.373 . S
C847 C831 1.377 . S
C847 C845 1.389 1_556 S
C847 C848 1.524 . S
C848 C847 1.524 . S
C848 C849 1.397 . S
C848 C853 1.363 . S
C849 H820 0.950 . S
C849 C848 1.397 . S
C849 C850 1.334 . S
C850 H821 0.950 . S
C850 C849 1.334 . S
C850 C851 1.287 . S
C851 C850 1.287 . S
C851 C852 1.524 . S
C851 H854 0.999 . S
C852 H822 0.950 . S
C852 C851 1.524 . S
C852 C853 1.415 . S
C853 H823 0.950 . S
C853 C848 1.363 . S
C853 C852 1.415 . S
H854 C851 0.999 . S
H855 C836 0.913 . S
H856 C874 0.951 . S
H857 C876 0.951 . S
H858 C878 0.950 . S
H859 C879 0.950 . S
H860 C881 0.950 . S
H861 C884 0.950 . S
H862 C885 0.950 . S
H863 C887 0.950 . S
H864 C888 0.950 . S
H865 C889 0.951 . S
H866 C891 0.951 . S
H867 C893 0.953 . S
H868 C894 0.950 . S
H869 C896 0.950 . S
H870 C899 0.950 . S
H871 C900 0.950 . S
H872 C902 0.950 . S
H873 C903 0.950 . S
C874 H856 0.951 . S
C874 C875 1.366 . S
C874 C876 1.388 . S
C875 C874 1.366 . S
C875 C879 1.385 . S
C876 H857 0.951 . S
C876 C874 1.388 . S
C876 C877 1.366 . S
C877 C876 1.366 . S
C877 C878 1.414 . S
C877 C880 1.499 . S
C878 H858 0.950 . S
C878 C877 1.414 . S
C878 C879 1.374 . S
C879 H859 0.950 . S
C879 C875 1.385 . S
C879 C878 1.374 . S
C880 C877 1.499 . S
C880 C881 1.373 1_554 S
C880 C882 1.389 . S
C881 H860 0.950 . S
C881 C880 1.373 1_556 S
C881 C897 1.377 . S
C882 C880 1.389 . S
C882 C883 1.524 . S
C882 C896 1.377 . S
C883 C882 1.524 . S
C883 C884 1.397 . S
C883 C888 1.363 . S
C884 H861 0.950 . S
C884 C883 1.397 . S
C884 C885 1.334 . S
C885 H862 0.950 . S
C885 C884 1.334 . S
C885 C886 1.287 . S
C886 C885 1.287 . S
C886 C887 1.524 . S
C886 H905 0.913 . S
C887 H863 0.950 . S
C887 C886 1.524 . S
C887 C888 1.415 . S
C888 H864 0.950 . S
C888 C883 1.363 . S
C888 C887 1.415 . S
C889 H865 0.951 . S
C889 C890 1.366 . S
C889 C891 1.388 . S
C890 C889 1.366 . S
C890 C894 1.385 . S
C891 H866 0.951 . S
C891 C889 1.388 . S
C891 C892 1.365 1_556 S
C892 C891 1.365 1_554 S
C892 C893 1.414 . S
C892 C895 1.499 . S
C893 H867 0.953 . S
C893 C892 1.414 . S
C893 C894 1.372 1_554 S
C894 H868 0.950 . S
C894 C890 1.385 . S
C894 C893 1.372 1_556 S
C895 C892 1.499 . S
C895 C896 1.373 . S
C895 C897 1.389 1_554 S
C896 H869 0.950 . S
C896 C882 1.377 . S
C896 C895 1.373 . S
C897 C881 1.377 . S
C897 C895 1.389 1_556 S
C897 C898 1.524 . S
C898 C897 1.524 . S
C898 C899 1.397 . S
C898 C903 1.363 . S
C899 H870 0.950 . S
C899 C898 1.397 . S
C899 C900 1.334 . S
C900 H871 0.950 . S
C900 C899 1.334 . S
C900 C901 1.287 . S
C901 C900 1.287 . S
C901 C902 1.524 . S
C901 H904 0.999 . S
C902 H872 0.950 . S
C902 C901 1.524 . S
C902 C903 1.415 . S
C903 H873 0.950 . S
C903 C898 1.363 . S
C903 C902 1.415 . S
H904 C901 0.999 . S
H905 C886 0.913 . S
H906 C924 0.951 . S
H907 C926 0.951 . S
H908 C928 0.950 . S
H909 C929 0.950 . S
H910 C931 0.950 . S
H911 C934 0.950 . S
H912 C935 0.950 . S
H913 C937 0.950 . S
H914 C938 0.950 . S
H915 C939 0.951 . S
H916 C941 0.951 . S
H917 C943 0.950 . S
H918 C944 0.950 . S
H919 C946 0.950 . S
H920 C949 0.950 . S
H921 C950 0.950 . S
H922 C952 0.950 . S
H923 C953 0.950 . S
C924 H906 0.951 . S
C924 C925 1.366 1_556 S
C924 C926 1.388 . S
C925 C924 1.366 1_554 S
C925 C929 1.385 . S
C926 H907 0.951 . S
C926 C924 1.388 . S
C926 C927 1.366 1_556 S
C927 C926 1.366 1_554 S
C927 C928 1.414 . S
C927 C930 1.499 . S
C928 H908 0.950 . S
C928 C927 1.414 . S
C928 C929 1.374 . S
C929 H909 0.950 . S
C929 C925 1.385 . S
C929 C928 1.374 . S
C930 C927 1.499 . S
C930 C931 1.373 . S
C930 C932 1.389 1_554 S
C931 H910 0.950 . S
C931 C930 1.373 . S
C931 C947 1.377 1_554 S
C932 C930 1.389 1_556 S
C932 C933 1.524 . S
C932 C946 1.377 . S
C933 C932 1.524 . S
C933 C934 1.397 1_556 S
C933 C938 1.363 . S
C934 H911 0.950 . S
C934 C933 1.397 1_554 S
C934 C935 1.334 . S
C935 H912 0.950 . S
C935 C934 1.334 . S
C935 C936 1.290 . S
C936 C935 1.290 . S
C936 C937 1.520 1_554 S
C936 H955 0.913 . S
C937 H913 0.950 . S
C937 C936 1.520 1_556 S
C937 C938 1.415 . S
C938 H914 0.950 . S
C938 C933 1.363 . S
C938 C937 1.415 . S
C939 H915 0.951 . S
C939 C940 1.366 1_554 S
C939 C941 1.388 . S
C940 C939 1.366 1_556 S
C940 C944 1.385 . S
C941 H916 0.951 . S
C941 C939 1.388 . S
C941 C942 1.366 1_554 S
C942 C941 1.366 1_556 S
C942 C943 1.414 . S
C942 C945 1.499 . S
C943 H917 0.950 . S
C943 C942 1.414 . S
C943 C944 1.374 . S
C944 H918 0.950 . S
C944 C940 1.385 . S
C944 C943 1.374 . S
C945 C942 1.499 . S
C945 C946 1.373 . S
C945 C947 1.389 . S
C946 H919 0.950 . S
C946 C932 1.377 . S
C946 C945 1.373 . S
C947 C931 1.377 1_556 S
C947 C945 1.389 . S
C947 C948 1.524 . S
C948 C947 1.524 . S
C948 C949 1.397 . S
C948 C953 1.363 1_556 S
C949 H920 0.950 . S
C949 C948 1.397 . S
C949 C950 1.334 . S
C950 H921 0.950 . S
C950 C949 1.334 . S
C950 C951 1.287 . S
C951 C950 1.287 . S
C951 C952 1.524 1_556 S
C951 H954 0.999 . S
C952 H922 0.950 . S
C952 C951 1.524 1_554 S
C952 C953 1.415 . S
C953 H923 0.950 . S
C953 C948 1.363 1_554 S
C953 C952 1.415 . S
H954 C951 0.999 . S
H955 C936 0.913 . S
H956 C974 0.946 1_554 S
H957 C976 0.951 1_554 S
H958 C978 0.950 . S
H959 C979 0.950 . S
H960 C981 0.950 . S
H961 C984 0.950 . S
H962 C985 0.950 . S
H963 C987 0.950 . S
H964 C988 0.950 . S
H965 C989 0.951 . S
H966 C991 0.951 . S
H967 C993 0.950 . S
H968 C994 0.950 . S
H969 C996 0.950 . S
H970 C999 0.950 . S
H971 C1000 0.950 . S
H972 C1002 0.950 . S
H973 C1003 0.950 . S
C974 H956 0.946 1_556 S
C974 C975 1.366 . S
C974 C976 1.388 . S
C975 C974 1.366 . S
C975 C979 1.385 . S
C976 H957 0.951 1_556 S
C976 C974 1.388 . S
C976 C977 1.366 . S
C977 C976 1.366 . S
C977 C978 1.414 . S
C977 C980 1.499 . S
C978 H958 0.950 . S
C978 C977 1.414 . S
C978 C979 1.374 . S
C979 H959 0.950 . S
C979 C975 1.385 . S
C979 C978 1.374 . S
C980 C977 1.499 . S
C980 C981 1.373 . S
C980 C982 1.389 1_556 S
C981 H960 0.950 . S
C981 C980 1.373 . S
C981 C997 1.377 . S
C982 C980 1.389 1_554 S
C982 C983 1.524 . S
C982 C996 1.377 . S
C983 C982 1.524 . S
C983 C984 1.397 . S
C983 C988 1.363 . S
C984 H961 0.950 . S
C984 C983 1.397 . S
C984 C985 1.334 . S
C985 H962 0.950 . S
C985 C984 1.334 . S
C985 C986 1.287 . S
C986 C985 1.287 . S
C986 C987 1.524 . S
C986 H1005 0.913 . S
C987 H963 0.950 . S
C987 C986 1.524 . S
C987 C988 1.415 . S
C988 H964 0.950 . S
C988 C983 1.363 . S
C988 C987 1.415 . S
C989 H965 0.951 . S
C989 C990 1.366 1_556 S
C989 C991 1.388 . S
C990 C989 1.366 1_554 S
C990 C994 1.385 . S
C991 H966 0.951 . S
C991 C989 1.388 . S
C991 C992 1.366 1_556 S
C992 C991 1.366 1_554 S
C992 C993 1.414 . S
C992 C995 1.499 1_554 S
C993 H967 0.950 . S
C993 C992 1.414 . S
C993 C994 1.374 . S
C994 H968 0.950 . S
C994 C990 1.385 . S
C994 C993 1.374 . S
C995 C992 1.499 1_556 S
C995 C996 1.373 1_556 S
C995 C997 1.389 . S
C996 H969 0.950 . S
C996 C982 1.377 . S
C996 C995 1.373 1_554 S
C997 C981 1.377 . S
C997 C995 1.389 . S
C997 C998 1.524 . S
C998 C997 1.524 . S
C998 C999 1.397 . S
C998 C1003 1.363 . S
C999 H970 0.950 . S
C999 C998 1.397 . S
C999 C1000 1.334 . S
C1000 H971 0.950 . S
C1000 C999 1.334 . S
C1000 C1001 1.287 . S
C1001 C1000 1.287 . S
C1001 C1002 1.524 . S
C1001 H1004 0.999 . S
C1002 H972 0.950 . S
C1002 C1001 1.524 . S
C1002 C1003 1.415 . S
C1003 H973 0.950 . S
C1003 C998 1.363 . S
C1003 C1002 1.415 . S
H1004 C1001 0.999 . S
H1005 C986 0.913 . S
H1006 C1024 0.949 1_554 S
H1007 C1026 0.951 1_554 S
H1008 C1028 0.950 . S
H1009 C1029 0.950 . S
H1010 C1031 0.950 . S
H1011 C1034 0.950 . S
H1012 C1035 0.950 . S
H1013 C1037 0.950 . S
H1014 C1038 0.950 . S
H1015 C1039 0.951 . S
H1016 C1041 0.951 . S
H1017 C1043 0.950 . S
H1018 C1044 0.950 . S
H1019 C1046 0.950 . S
H1020 C1049 0.950 . S
H1021 C1050 0.950 . S
H1022 C1052 0.950 . S
H1023 C1053 0.950 . S
C1024 H1006 0.949 1_556 S
C1024 C1025 1.366 . S
C1024 C1026 1.388 . S
C1025 C1024 1.366 . S
C1025 C1029 1.385 . S
C1026 H1007 0.951 1_556 S
C1026 C1024 1.388 . S
C1026 C1027 1.366 . S
C1027 C1026 1.366 . S
C1027 C1028 1.414 . S
C1027 C1030 1.499 . S
C1028 H1008 0.950 . S
C1028 C1027 1.414 . S
C1028 C1029 1.374 . S
C1029 H1009 0.950 . S
C1029 C1025 1.385 . S
C1029 C1028 1.374 . S
C1030 C1027 1.499 . S
C1030 C1031 1.373 . S
C1030 C1032 1.389 1_556 S
C1031 H1010 0.950 . S
C1031 C1030 1.373 . S
C1031 C1047 1.377 . S
C1032 C1030 1.389 1_554 S
C1032 C1033 1.524 . S
C1032 C1046 1.377 . S
C1033 C1032 1.524 . S
C1033 C1034 1.397 . S
C1033 C1038 1.363 . S
C1034 H1011 0.950 . S
C1034 C1033 1.397 . S
C1034 C1035 1.334 . S
C1035 H1012 0.950 . S
C1035 C1034 1.334 . S
C1035 C1036 1.287 . S
C1036 C1035 1.287 . S
C1036 C1037 1.524 . S
C1036 H1055 0.913 . S
C1037 H1013 0.950 . S
C1037 C1036 1.524 . S
C1037 C1038 1.415 . S
C1038 H1014 0.950 . S
C1038 C1033 1.363 . S
C1038 C1037 1.415 . S
C1039 H1015 0.951 . S
C1039 C1040 1.366 1_556 S
C1039 C1041 1.388 . S
C1040 C1039 1.366 1_554 S
C1040 C1044 1.385 . S
C1041 H1016 0.951 . S
C1041 C1039 1.388 . S
C1041 C1042 1.366 1_556 S
C1042 C1041 1.366 1_554 S
C1042 C1043 1.414 . S
C1042 C1045 1.499 1_554 S
C1043 H1017 0.950 . S
C1043 C1042 1.414 . S
C1043 C1044 1.374 . S
C1044 H1018 0.950 . S
C1044 C1040 1.385 . S
C1044 C1043 1.374 . S
C1045 C1042 1.499 1_556 S
C1045 C1046 1.373 1_556 S
C1045 C1047 1.389 . S
C1046 H1019 0.950 . S
C1046 C1032 1.377 . S
C1046 C1045 1.373 1_554 S
C1047 C1031 1.377 . S
C1047 C1045 1.389 . S
C1047 C1048 1.524 . S
C1048 C1047 1.524 . S
C1048 C1049 1.397 . S
C1048 C1053 1.363 . S
C1049 H1020 0.950 . S
C1049 C1048 1.397 . S
C1049 C1050 1.334 . S
C1050 H1021 0.950 . S
C1050 C1049 1.334 . S
C1050 C1051 1.287 . S
C1051 C1050 1.287 . S
C1051 C1052 1.524 . S
C1051 H1054 0.999 . S
C1052 H1022 0.950 . S
C1052 C1051 1.524 . S
C1052 C1053 1.415 . S
C1053 H1023 0.950 . S
C1053 C1048 1.363 . S
C1053 C1052 1.415 . S
H1054 C1051 0.999 . S
H1055 C1036 0.913 . S
H1056 C1074 0.951 . S
H1057 C1076 0.951 . S
H1058 C1078 0.950 . S
H1059 C1079 0.950 . S
H1060 C1081 0.950 . S
H1061 C1084 0.950 . S
H1062 C1085 0.950 . S
H1063 C1087 0.950 . S
H1064 C1088 0.950 . S
H1065 C1089 0.951 . S
H1066 C1091 0.951 . S
H1067 C1093 0.950 . S
H1068 C1094 0.950 . S
H1069 C1096 0.950 . S
H1070 C1099 0.950 . S
H1071 C1100 0.950 . S
H1072 C1102 0.950 . S
H1073 C1103 0.950 . S
C1074 H1056 0.951 . S
C1074 C1075 1.366 . S
C1074 C1076 1.388 . S
C1075 C1074 1.366 . S
C1075 C1079 1.385 . S
C1076 H1057 0.951 . S
C1076 C1074 1.388 . S
C1076 C1077 1.366 . S
C1077 C1076 1.366 . S
C1077 C1078 1.414 . S
C1077 C1080 1.499 . S
C1078 H1058 0.950 . S
C1078 C1077 1.414 . S
C1078 C1079 1.374 . S
C1079 H1059 0.950 . S
C1079 C1075 1.385 . S
C1079 C1078 1.374 . S
C1080 C1077 1.499 . S
C1080 C1081 1.373 . S
C1080 C1082 1.389 . S
C1081 H1060 0.950 . S
C1081 C1080 1.373 . S
C1081 C1097 1.377 1_655 S
C1082 C1080 1.389 . S
C1082 C1083 1.524 . S
C1082 C1096 1.377 1_655 S
C1083 C1082 1.524 . S
C1083 C1084 1.397 . S
C1083 C1088 1.363 . S
C1084 H1061 0.950 . S
C1084 C1083 1.397 . S
C1084 C1085 1.334 . S
C1085 H1062 0.950 . S
C1085 C1084 1.334 . S
C1085 C1086 1.287 . S
C1086 C1085 1.287 . S
C1086 C1087 1.524 . S
C1086 H1105 0.913 . S
C1087 H1063 0.950 . S
C1087 C1086 1.524 . S
C1087 C1088 1.415 . S
C1088 H1064 0.950 . S
C1088 C1083 1.363 . S
C1088 C1087 1.415 . S
C1089 H1065 0.951 . S
C1089 C1090 1.366 . S
C1089 C1091 1.388 . S
C1090 C1089 1.366 . S
C1090 C1094 1.385 . S
C1091 H1066 0.951 . S
C1091 C1089 1.388 . S
C1091 C1092 1.366 . S
C1092 C1091 1.366 . S
C1092 C1093 1.414 . S
C1092 C1095 1.499 . S
C1093 H1067 0.950 . S
C1093 C1092 1.414 . S
C1093 C1094 1.374 . S
C1094 H1068 0.950 . S
C1094 C1090 1.385 . S
C1094 C1093 1.374 . S
C1095 C1092 1.499 . S
C1095 C1096 1.373 . S
C1095 C1097 1.389 . S
C1096 H1069 0.950 . S
C1096 C1082 1.377 1_455 S
C1096 C1095 1.373 . S
C1097 C1081 1.377 1_455 S
C1097 C1095 1.389 . S
C1097 C1098 1.524 . S
C1098 C1097 1.524 . S
C1098 C1099 1.397 . S
C1098 C1103 1.363 . S
C1099 H1070 0.950 . S
C1099 C1098 1.397 . S
C1099 C1100 1.334 . S
C1100 H1071 0.950 . S
C1100 C1099 1.334 . S
C1100 C1101 1.287 . S
C1101 C1100 1.287 . S
C1101 C1102 1.524 . S
C1101 H1104 0.999 . S
C1102 H1072 0.950 . S
C1102 C1101 1.524 . S
C1102 C1103 1.415 . S
C1103 H1073 0.950 . S
C1103 C1098 1.363 . S
C1103 C1102 1.415 . S
H1104 C1101 0.999 . S
H1105 C1086 0.913 . S
H1106 C1124 0.951 . S
H1107 C1126 0.951 . S
H1108 C1128 0.950 . S
H1109 C1129 0.950 . S
H1110 C1131 0.950 . S
H1111 C1134 0.950 . S
H1112 C1135 0.950 . S
H1113 C1137 0.950 . S
H1114 C1138 0.950 . S
H1115 C1139 0.951 . S
H1116 C1141 0.951 . S
H1117 C1143 0.950 . S
H1118 C1144 0.950 . S
H1119 C1146 0.950 . S
H1120 C1149 0.950 . S
H1121 C1150 0.950 . S
H1122 C1152 0.950 . S
H1123 C1153 0.950 . S
C1124 H1106 0.951 . S
C1124 C1125 1.366 . S
C1124 C1126 1.388 . S
C1125 C1124 1.366 . S
C1125 C1129 1.385 . S
C1126 H1107 0.951 . S
C1126 C1124 1.388 . S
C1126 C1127 1.366 . S
C1127 C1126 1.366 . S
C1127 C1128 1.414 . S
C1127 C1130 1.499 . S
C1128 H1108 0.950 . S
C1128 C1127 1.414 . S
C1128 C1129 1.374 . S
C1129 H1109 0.950 . S
C1129 C1125 1.385 . S
C1129 C1128 1.374 . S
C1130 C1127 1.499 . S
C1130 C1131 1.373 . S
C1130 C1132 1.389 . S
C1131 H1110 0.950 . S
C1131 C1130 1.373 . S
C1131 C1147 1.377 . S
C1132 C1130 1.389 . S
C1132 C1133 1.524 . S
C1132 C1146 1.377 . S
C1133 C1132 1.524 . S
C1133 C1134 1.397 . S
C1133 C1138 1.363 . S
C1134 H1111 0.950 . S
C1134 C1133 1.397 . S
C1134 C1135 1.334 . S
C1135 H1112 0.950 . S
C1135 C1134 1.334 . S
C1135 C1136 1.287 . S
C1136 C1135 1.287 . S
C1136 C1137 1.524 . S
C1136 H1155 0.913 . S
C1137 H1113 0.950 . S
C1137 C1136 1.524 . S
C1137 C1138 1.415 . S
C1138 H1114 0.950 . S
C1138 C1133 1.363 . S
C1138 C1137 1.415 . S
C1139 H1115 0.951 . S
C1139 C1140 1.366 . S
C1139 C1141 1.388 . S
C1140 C1139 1.366 . S
C1140 C1144 1.385 . S
C1141 H1116 0.951 . S
C1141 C1139 1.388 . S
C1141 C1142 1.366 . S
C1142 C1141 1.366 . S
C1142 C1143 1.414 . S
C1142 C1145 1.499 . S
C1143 H1117 0.950 . S
C1143 C1142 1.414 . S
C1143 C1144 1.374 . S
C1144 H1118 0.950 . S
C1144 C1140 1.385 . S
C1144 C1143 1.374 . S
C1145 C1142 1.499 . S
C1145 C1146 1.373 . S
C1145 C1147 1.389 . S
C1146 H1119 0.950 . S
C1146 C1132 1.377 . S
C1146 C1145 1.373 . S
C1147 C1131 1.377 . S
C1147 C1145 1.389 . S
C1147 C1148 1.524 . S
C1148 C1147 1.524 . S
C1148 C1149 1.397 . S
C1148 C1153 1.363 . S
C1149 H1120 0.950 . S
C1149 C1148 1.397 . S
C1149 C1150 1.334 . S
C1150 H1121 0.950 . S
C1150 C1149 1.334 . S
C1150 C1151 1.287 . S
C1151 C1150 1.287 . S
C1151 C1152 1.524 . S
C1151 H1154 0.999 . S
C1152 H1122 0.950 . S
C1152 C1151 1.524 . S
C1152 C1153 1.415 . S
C1153 H1123 0.950 . S
C1153 C1148 1.363 . S
C1153 C1152 1.415 . S
H1154 C1151 0.999 . S
H1155 C1136 0.913 . S
H1156 C1174 0.951 . S
H1157 C1176 0.951 . S
H1158 C1178 0.950 . S
H1159 C1179 0.950 . S
H1160 C1181 0.950 . S
H1161 C1184 0.950 . S
H1162 C1185 0.950 . S
H1163 C1187 0.950 . S
H1164 C1188 0.950 . S
H1165 C1189 0.951 . S
H1166 C1191 0.951 . S
H1167 C1193 0.950 . S
H1168 C1194 0.950 . S
H1169 C1196 0.950 1_565 S
H1170 C1199 0.950 . S
H1171 C1200 0.950 . S
H1172 C1202 0.950 . S
H1173 C1203 0.950 . S
C1174 H1156 0.951 . S
C1174 C1175 1.366 . S
C1174 C1176 1.388 . S
C1175 C1174 1.366 . S
C1175 C1179 1.385 . S
C1176 H1157 0.951 . S
C1176 C1174 1.388 . S
C1176 C1177 1.366 . S
C1177 C1176 1.366 . S
C1177 C1178 1.414 . S
C1177 C1180 1.499 . S
C1178 H1158 0.950 . S
C1178 C1177 1.414 . S
C1178 C1179 1.374 . S
C1179 H1159 0.950 . S
C1179 C1175 1.385 . S
C1179 C1178 1.374 . S
C1180 C1177 1.499 . S
C1180 C1181 1.373 . S
C1180 C1182 1.389 . S
C1181 H1160 0.950 . S
C1181 C1180 1.373 . S
C1181 C1197 1.377 . S
C1182 C1180 1.389 . S
C1182 C1183 1.524 . S
C1182 C1196 1.377 . S
C1183 C1182 1.524 . S
C1183 C1184 1.397 . S
C1183 C1188 1.363 . S
C1184 H1161 0.950 . S
C1184 C1183 1.397 . S
C1184 C1185 1.334 . S
C1185 H1162 0.950 . S
C1185 C1184 1.334 . S
C1185 C1186 1.287 . S
C1186 C1185 1.287 . S
C1186 C1187 1.524 . S
C1186 H1205 0.913 . S
C1187 H1163 0.950 . S
C1187 C1186 1.524 . S
C1187 C1188 1.415 . S
C1188 H1164 0.950 . S
C1188 C1183 1.363 . S
C1188 C1187 1.415 . S
C1189 H1165 0.951 . S
C1189 C1190 1.366 . S
C1189 C1191 1.388 . S
C1190 C1189 1.366 . S
C1190 C1194 1.385 . S
C1191 H1166 0.951 . S
C1191 C1189 1.388 . S
C1191 C1192 1.366 . S
C1192 C1191 1.366 . S
C1192 C1193 1.414 . S
C1192 C1195 1.499 . S
C1193 H1167 0.950 . S
C1193 C1192 1.414 . S
C1193 C1194 1.374 . S
C1194 H1168 0.950 . S
C1194 C1190 1.385 . S
C1194 C1193 1.374 . S
C1195 C1192 1.499 . S
C1195 C1196 1.373 1_565 S
C1195 C1197 1.389 1_565 S
C1196 H1169 0.950 1_545 S
C1196 C1182 1.377 . S
C1196 C1195 1.373 1_545 S
C1197 C1181 1.377 . S
C1197 C1195 1.389 1_545 S
C1197 C1198 1.524 1_545 S
C1198 C1197 1.524 1_565 S
C1198 C1199 1.397 . S
C1198 C1203 1.363 . S
C1199 H1170 0.950 . S
C1199 C1198 1.397 . S
C1199 C1200 1.334 . S
C1200 H1171 0.950 . S
C1200 C1199 1.334 . S
C1200 C1201 1.287 . S
C1201 C1200 1.287 . S
C1201 C1202 1.524 . S
C1201 H1204 0.999 . S
C1202 H1172 0.950 . S
C1202 C1201 1.524 . S
C1202 C1203 1.415 . S
C1203 H1173 0.950 . S
C1203 C1198 1.363 . S
C1203 C1202 1.415 . S
H1204 C1201 0.999 . S
H1205 C1186 0.913 . S
H1206 C1224 0.951 . S
H1207 C1226 0.951 . S
H1208 C1228 0.950 . S
H1209 C1229 0.950 . S
H1210 C1231 0.950 . S
H1211 C1234 0.950 . S
H1212 C1235 0.950 . S
H1213 C1237 0.950 . S
H1214 C1238 0.950 . S
H1215 C1239 0.951 . S
H1216 C1241 0.951 . S
H1217 C1243 0.950 . S
H1218 C1244 0.950 . S
H1219 C1246 0.950 . S
H1220 C1249 0.950 . S
H1221 C1250 0.950 . S
H1222 C1252 0.950 . S
H1223 C1253 0.950 . S
C1224 H1206 0.951 . S
C1224 C1225 1.366 . S
C1224 C1226 1.388 . S
C1225 C1224 1.366 . S
C1225 C1229 1.385 . S
C1226 H1207 0.951 . S
C1226 C1224 1.388 . S
C1226 C1227 1.366 . S
C1227 C1226 1.366 . S
C1227 C1228 1.414 . S
C1227 C1230 1.499 . S
C1228 H1208 0.950 . S
C1228 C1227 1.414 . S
C1228 C1229 1.374 . S
C1229 H1209 0.950 . S
C1229 C1225 1.385 . S
C1229 C1228 1.374 . S
C1230 C1227 1.499 . S
C1230 C1231 1.373 . S
C1230 C1232 1.389 . S
C1231 H1210 0.950 . S
C1231 C1230 1.373 . S
C1231 C1247 1.377 . S
C1232 C1230 1.389 . S
C1232 C1233 1.524 . S
C1232 C1246 1.377 . S
C1233 C1232 1.524 . S
C1233 C1234 1.397 . S
C1233 C1238 1.363 . S
C1234 H1211 0.950 . S
C1234 C1233 1.397 . S
C1234 C1235 1.334 . S
C1235 H1212 0.950 . S
C1235 C1234 1.334 . S
C1235 C1236 1.287 . S
C1236 C1235 1.287 . S
C1236 C1237 1.524 . S
C1236 H1255 0.913 . S
C1237 H1213 0.950 . S
C1237 C1236 1.524 . S
C1237 C1238 1.415 . S
C1238 H1214 0.950 . S
C1238 C1233 1.363 . S
C1238 C1237 1.415 . S
C1239 H1215 0.951 . S
C1239 C1240 1.366 . S
C1239 C1241 1.388 . S
C1240 C1239 1.366 . S
C1240 C1244 1.385 . S
C1241 H1216 0.951 . S
C1241 C1239 1.388 . S
C1241 C1242 1.366 . S
C1242 C1241 1.366 . S
C1242 C1243 1.414 . S
C1242 C1245 1.499 . S
C1243 H1217 0.950 . S
C1243 C1242 1.414 . S
C1243 C1244 1.374 . S
C1244 H1218 0.950 . S
C1244 C1240 1.385 . S
C1244 C1243 1.374 . S
C1245 C1242 1.499 . S
C1245 C1246 1.373 . S
C1245 C1247 1.389 . S
C1246 H1219 0.950 . S
C1246 C1232 1.377 . S
C1246 C1245 1.373 . S
C1247 C1231 1.377 . S
C1247 C1245 1.389 . S
C1247 C1248 1.524 . S
C1248 C1247 1.524 . S
C1248 C1249 1.397 . S
C1248 C1253 1.363 . S
C1249 H1220 0.950 . S
C1249 C1248 1.397 . S
C1249 C1250 1.334 . S
C1250 H1221 0.950 . S
C1250 C1249 1.334 . S
C1250 C1251 1.287 . S
C1251 C1250 1.287 . S
C1251 C1252 1.524 . S
C1251 H1254 0.999 . S
C1252 H1222 0.950 . S
C1252 C1251 1.524 . S
C1252 C1253 1.415 . S
C1253 H1223 0.950 . S
C1253 C1248 1.363 . S
C1253 C1252 1.415 . S
H1254 C1251 0.999 . S
H1255 C1236 0.913 . S
H1256 C1274 0.951 . S
H1257 C1276 0.951 . S
H1258 C1278 0.950 . S
H1259 C1279 0.950 . S
H1260 C1281 0.950 . S
H1261 C1284 0.950 . S
H1262 C1285 0.950 . S
H1263 C1287 0.950 . S
H1264 C1288 0.950 . S
H1265 C1289 0.951 . S
H1266 C1291 0.951 . S
H1267 C1293 0.950 . S
H1268 C1294 0.950 . S
H1269 C1296 0.950 . S
H1270 C1299 0.950 . S
H1271 C1300 0.950 . S
H1272 C1302 0.950 . S
H1273 C1303 0.950 . S
C1274 H1256 0.951 . S
C1274 C1275 1.366 . S
C1274 C1276 1.388 . S
C1275 C1274 1.366 . S
C1275 C1279 1.385 . S
C1276 H1257 0.951 . S
C1276 C1274 1.388 . S
C1276 C1277 1.366 . S
C1277 C1276 1.366 . S
C1277 C1278 1.414 . S
C1277 C1280 1.499 . S
C1278 H1258 0.950 . S
C1278 C1277 1.414 . S
C1278 C1279 1.374 . S
C1279 H1259 0.950 . S
C1279 C1275 1.385 . S
C1279 C1278 1.374 . S
C1280 C1277 1.499 . S
C1280 C1281 1.373 . S
C1280 C1282 1.389 . S
C1281 H1260 0.950 . S
C1281 C1280 1.373 . S
C1281 C1297 1.377 . S
C1282 C1280 1.389 . S
C1282 C1283 1.524 . S
C1282 C1296 1.377 . S
C1283 C1282 1.524 . S
C1283 C1284 1.397 . S
C1283 C1288 1.363 . S
C1284 H1261 0.950 . S
C1284 C1283 1.397 . S
C1284 C1285 1.334 . S
C1285 H1262 0.950 . S
C1285 C1284 1.334 . S
C1285 C1286 1.287 . S
C1286 C1285 1.287 . S
C1286 C1287 1.524 . S
C1286 H1305 0.913 . S
C1287 H1263 0.950 . S
C1287 C1286 1.524 . S
C1287 C1288 1.415 . S
C1288 H1264 0.950 . S
C1288 C1283 1.363 . S
C1288 C1287 1.415 . S
C1289 H1265 0.951 . S
C1289 C1290 1.366 . S
C1289 C1291 1.388 . S
C1290 C1289 1.366 . S
C1290 C1294 1.385 . S
C1291 H1266 0.951 . S
C1291 C1289 1.388 . S
C1291 C1292 1.366 . S
C1292 C1291 1.366 . S
C1292 C1293 1.414 . S
C1292 C1295 1.499 . S
C1293 H1267 0.950 . S
C1293 C1292 1.414 . S
C1293 C1294 1.374 . S
C1294 H1268 0.950 . S
C1294 C1290 1.385 . S
C1294 C1293 1.374 . S
C1295 C1292 1.499 . S
C1295 C1296 1.373 . S
C1295 C1297 1.389 . S
C1296 H1269 0.950 . S
C1296 C1282 1.377 . S
C1296 C1295 1.373 . S
C1297 C1281 1.377 . S
C1297 C1295 1.389 . S
C1297 C1298 1.524 . S
C1298 C1297 1.524 . S
C1298 C1299 1.397 . S
C1298 C1303 1.363 . S
C1299 H1270 0.950 . S
C1299 C1298 1.397 . S
C1299 C1300 1.334 . S
C1300 H1271 0.950 . S
C1300 C1299 1.334 . S
C1300 C1301 1.287 . S
C1301 C1300 1.287 . S
C1301 C1302 1.524 . S
C1301 H1304 0.999 . S
C1302 H1272 0.950 . S
C1302 C1301 1.524 . S
C1302 C1303 1.415 . S
C1303 H1273 0.950 . S
C1303 C1298 1.363 . S
C1303 C1302 1.415 . S
H1304 C1301 0.999 . S
H1305 C1286 0.913 . S
H1306 C1324 0.951 . S
H1307 C1326 0.951 . S
H1308 C1328 0.950 . S
H1309 C1329 0.950 . S
H1310 C1331 0.950 . S
H1311 C1334 0.950 . S
H1312 C1335 0.950 . S
H1313 C1337 0.950 . S
H1314 C1338 0.950 . S
H1315 C1339 0.951 . S
H1316 C1341 0.951 . S
H1317 C1343 0.950 . S
H1318 C1344 0.950 . S
H1319 C1346 0.950 . S
H1320 C1349 0.950 . S
H1321 C1350 0.950 . S
H1322 C1352 0.950 . S
H1323 C1353 0.950 . S
C1324 H1306 0.951 . S
C1324 C1325 1.366 . S
C1324 C1326 1.388 . S
C1325 C1324 1.366 . S
C1325 C1329 1.385 . S
C1326 H1307 0.951 . S
C1326 C1324 1.388 . S
C1326 C1327 1.366 . S
C1327 C1326 1.366 . S
C1327 C1328 1.414 . S
C1327 C1330 1.499 . S
C1328 H1308 0.950 . S
C1328 C1327 1.414 . S
C1328 C1329 1.374 . S
C1329 H1309 0.950 . S
C1329 C1325 1.385 . S
C1329 C1328 1.374 . S
C1330 C1327 1.499 . S
C1330 C1331 1.373 . S
C1330 C1332 1.389 . S
C1331 H1310 0.950 . S
C1331 C1330 1.373 . S
C1331 C1347 1.377 . S
C1332 C1330 1.389 . S
C1332 C1333 1.524 . S
C1332 C1346 1.377 . S
C1333 C1332 1.524 . S
C1333 C1334 1.397 . S
C1333 C1338 1.363 . S
C1334 H1311 0.950 . S
C1334 C1333 1.397 . S
C1334 C1335 1.334 . S
C1335 H1312 0.950 . S
C1335 C1334 1.334 . S
C1335 C1336 1.287 . S
C1336 C1335 1.287 . S
C1336 C1337 1.524 . S
C1336 H1355 0.913 . S
C1337 H1313 0.950 . S
C1337 C1336 1.524 . S
C1337 C1338 1.415 . S
C1338 H1314 0.950 . S
C1338 C1333 1.363 . S
C1338 C1337 1.415 . S
C1339 H1315 0.951 . S
C1339 C1340 1.366 . S
C1339 C1341 1.388 . S
C1340 C1339 1.366 . S
C1340 C1344 1.385 . S
C1341 H1316 0.951 . S
C1341 C1339 1.388 . S
C1341 C1342 1.366 . S
C1342 C1341 1.366 . S
C1342 C1343 1.414 . S
C1342 C1345 1.499 . S
C1343 H1317 0.950 . S
C1343 C1342 1.414 . S
C1343 C1344 1.374 . S
C1344 H1318 0.950 . S
C1344 C1340 1.385 . S
C1344 C1343 1.374 . S
C1345 C1342 1.499 . S
C1345 C1346 1.373 . S
C1345 C1347 1.389 . S
C1346 H1319 0.950 . S
C1346 C1332 1.377 . S
C1346 C1345 1.373 . S
C1347 C1331 1.377 . S
C1347 C1345 1.389 . S
C1347 C1348 1.524 . S
C1348 C1347 1.524 . S
C1348 C1349 1.397 . S
C1348 C1353 1.363 . S
C1349 H1320 0.950 . S
C1349 C1348 1.397 . S
C1349 C1350 1.334 . S
C1350 H1321 0.950 . S
C1350 C1349 1.334 . S
C1350 C1351 1.287 . S
C1351 C1350 1.287 . S
C1351 C1352 1.524 . S
C1351 H1354 0.999 . S
C1352 H1322 0.950 . S
C1352 C1351 1.524 . S
C1352 C1353 1.415 . S
C1353 H1323 0.950 . S
C1353 C1348 1.363 . S
C1353 C1352 1.415 . S
H1354 C1351 0.999 . S
H1355 C1336 0.913 . S
H1356 C1374 0.951 . S
H1357 C1376 0.951 . S
H1358 C1378 0.950 . S
H1359 C1379 0.950 . S
H1360 C1381 0.950 . S
H1361 C1384 0.950 . S
H1362 C1385 0.950 . S
H1363 C1387 0.950 . S
H1364 C1388 0.950 . S
H1365 C1389 0.951 . S
H1366 C1391 0.951 . S
H1367 C1393 0.950 . S
H1368 C1394 0.950 . S
H1369 C1396 0.950 . S
H1370 C1399 0.950 . S
H1371 C1400 0.950 . S
H1372 C1402 0.950 . S
H1373 C1403 0.950 . S
C1374 H1356 0.951 . S
C1374 C1375 1.366 . S
C1374 C1376 1.388 . S
C1375 C1374 1.366 . S
C1375 C1379 1.385 . S
C1376 H1357 0.951 . S
C1376 C1374 1.388 . S
C1376 C1377 1.366 . S
C1377 C1376 1.366 . S
C1377 C1378 1.414 . S
C1377 C1380 1.499 . S
C1378 H1358 0.950 . S
C1378 C1377 1.414 . S
C1378 C1379 1.374 . S
C1379 H1359 0.950 . S
C1379 C1375 1.385 . S
C1379 C1378 1.374 . S
C1380 C1377 1.499 . S
C1380 C1381 1.373 . S
C1380 C1382 1.389 . S
C1381 H1360 0.950 . S
C1381 C1380 1.373 . S
C1381 C1397 1.377 . S
C1382 C1380 1.389 . S
C1382 C1383 1.524 . S
C1382 C1396 1.377 . S
C1383 C1382 1.524 . S
C1383 C1384 1.397 . S
C1383 C1388 1.363 . S
C1384 H1361 0.950 . S
C1384 C1383 1.397 . S
C1384 C1385 1.334 . S
C1385 H1362 0.950 . S
C1385 C1384 1.334 . S
C1385 C1386 1.287 . S
C1386 C1385 1.287 . S
C1386 C1387 1.524 . S
C1386 H1405 0.913 . S
C1387 H1363 0.950 . S
C1387 C1386 1.524 . S
C1387 C1388 1.415 . S
C1388 H1364 0.950 . S
C1388 C1383 1.363 . S
C1388 C1387 1.415 . S
C1389 H1365 0.951 . S
C1389 C1390 1.366 . S
C1389 C1391 1.388 . S
C1390 C1389 1.366 . S
C1390 C1394 1.385 . S
C1391 H1366 0.951 . S
C1391 C1389 1.388 . S
C1391 C1392 1.366 . S
C1392 C1391 1.366 . S
C1392 C1393 1.414 . S
C1392 C1395 1.499 . S
C1393 H1367 0.950 . S
C1393 C1392 1.414 . S
C1393 C1394 1.374 . S
C1394 H1368 0.950 . S
C1394 C1390 1.385 . S
C1394 C1393 1.374 . S
C1395 C1392 1.499 . S
C1395 C1396 1.373 . S
C1395 C1397 1.389 . S
C1396 H1369 0.950 . S
C1396 C1382 1.377 . S
C1396 C1395 1.373 . S
C1397 C1381 1.377 . S
C1397 C1395 1.389 . S
C1397 C1398 1.524 . S
C1398 C1397 1.524 . S
C1398 C1399 1.397 . S
C1398 C1403 1.363 . S
C1399 H1370 0.950 . S
C1399 C1398 1.397 . S
C1399 C1400 1.334 . S
C1400 H1371 0.950 . S
C1400 C1399 1.334 . S
C1400 C1401 1.287 . S
C1401 C1400 1.287 . S
C1401 C1402 1.524 . S
C1401 H1404 0.999 . S
C1402 H1372 0.950 . S
C1402 C1401 1.524 . S
C1402 C1403 1.415 . S
C1403 H1373 0.950 . S
C1403 C1398 1.363 . S
C1403 C1402 1.415 . S
H1404 C1401 0.999 . S
H1405 C1386 0.913 . S
H1406 C1424 0.951 . S
H1407 C1426 0.951 . S
H1408 C1428 0.950 . S
H1409 C1429 0.950 . S
H1410 C1431 0.950 . S
H1411 C1434 0.950 . S
H1412 C1435 0.950 . S
H1413 C1437 0.950 . S
H1414 C1438 0.950 . S
H1415 C1439 0.951 . S
H1416 C1441 0.951 . S
H1417 C1443 0.950 . S
H1418 C1444 0.950 . S
H1419 C1446 0.950 . S
H1420 C1449 0.950 . S
H1421 C1450 0.950 . S
H1422 C1452 0.950 . S
H1423 C1453 0.950 . S
C1424 H1406 0.951 . S
C1424 C1425 1.366 . S
C1424 C1426 1.388 . S
C1425 C1424 1.366 . S
C1425 C1429 1.385 . S
C1426 H1407 0.951 . S
C1426 C1424 1.388 . S
C1426 C1427 1.366 . S
C1427 C1426 1.366 . S
C1427 C1428 1.414 . S
C1427 C1430 1.499 . S
C1428 H1408 0.950 . S
C1428 C1427 1.414 . S
C1428 C1429 1.374 . S
C1429 H1409 0.950 . S
C1429 C1425 1.385 . S
C1429 C1428 1.374 . S
C1430 C1427 1.499 . S
C1430 C1431 1.373 . S
C1430 C1432 1.389 . S
C1431 H1410 0.950 . S
C1431 C1430 1.373 . S
C1431 C1447 1.377 . S
C1432 C1430 1.389 . S
C1432 C1433 1.524 . S
C1432 C1446 1.377 . S
C1433 C1432 1.524 . S
C1433 C1434 1.397 . S
C1433 C1438 1.363 . S
C1434 H1411 0.950 . S
C1434 C1433 1.397 . S
C1434 C1435 1.334 . S
C1435 H1412 0.950 . S
C1435 C1434 1.334 . S
C1435 C1436 1.287 . S
C1436 C1435 1.287 . S
C1436 C1437 1.524 . S
C1436 H1455 0.913 . S
C1437 H1413 0.950 . S
C1437 C1436 1.524 . S
C1437 C1438 1.415 . S
C1438 H1414 0.950 . S
C1438 C1433 1.363 . S
C1438 C1437 1.415 . S
C1439 H1415 0.951 . S
C1439 C1440 1.366 . S
C1439 C1441 1.388 . S
C1440 C1439 1.366 . S
C1440 C1444 1.385 . S
C1441 H1416 0.951 . S
C1441 C1439 1.388 . S
C1441 C1442 1.366 . S
C1442 C1441 1.366 . S
C1442 C1443 1.414 . S
C1442 C1445 1.499 . S
C1443 H1417 0.950 . S
C1443 C1442 1.414 . S
C1443 C1444 1.374 . S
C1444 H1418 0.950 . S
C1444 C1440 1.385 . S
C1444 C1443 1.374 . S
C1445 C1442 1.499 . S
C1445 C1446 1.373 . S
C1445 C1447 1.389 . S
C1446 H1419 0.950 . S
C1446 C1432 1.377 . S
C1446 C1445 1.373 . S
C1447 C1431 1.377 . S
C1447 C1445 1.389 . S
C1447 C1448 1.524 . S
C1448 C1447 1.524 . S
C1448 C1449 1.397 . S
C1448 C1453 1.363 . S
C1449 H1420 0.950 . S
C1449 C1448 1.397 . S
C1449 C1450 1.334 . S
C1450 H1421 0.950 . S
C1450 C1449 1.334 . S
C1450 C1451 1.287 . S
C1451 C1450 1.287 . S
C1451 C1452 1.524 . S
C1451 H1454 0.999 . S
C1452 H1422 0.950 . S
C1452 C1451 1.524 . S
C1452 C1453 1.415 . S
C1453 H1423 0.950 . S
C1453 C1448 1.363 . S
C1453 C1452 1.415 . S
H1454 C1451 0.999 . S
H1455 C1436 0.913 . S
H1456 C1474 0.951 . S
H1457 C1476 0.951 . S
H1458 C1478 0.950 . S
H1459 C1479 0.950 . S
H1460 C1481 0.950 . S
H1461 C1484 0.950 . S
H1462 C1485 0.950 . S
H1463 C1487 0.950 . S
H1464 C1488 0.950 . S
H1465 C1489 0.951 . S
H1466 C1491 0.951 . S
H1467 C1493 0.950 . S
H1468 C1494 0.950 . S
H1469 C1496 0.950 . S
H1470 C1499 0.950 . S
H1471 C1500 0.950 . S
H1472 C1502 0.950 . S
H1473 C1503 0.950 . S
C1474 H1456 0.951 . S
C1474 C1475 1.366 . S
C1474 C1476 1.388 . S
C1475 C1474 1.366 . S
C1475 C1479 1.385 . S
C1476 H1457 0.951 . S
C1476 C1474 1.388 . S
C1476 C1477 1.366 . S
C1477 C1476 1.366 . S
C1477 C1478 1.414 . S
C1477 C1480 1.499 . S
C1478 H1458 0.950 . S
C1478 C1477 1.414 . S
C1478 C1479 1.374 . S
C1479 H1459 0.950 . S
C1479 C1475 1.385 . S
C1479 C1478 1.374 . S
C1480 C1477 1.499 . S
C1480 C1481 1.373 . S
C1480 C1482 1.389 . S
C1481 H1460 0.950 . S
C1481 C1480 1.373 . S
C1481 C1497 1.377 . S
C1482 C1480 1.389 . S
C1482 C1483 1.524 . S
C1482 C1496 1.377 . S
C1483 C1482 1.524 . S
C1483 C1484 1.397 . S
C1483 C1488 1.363 . S
C1484 H1461 0.950 . S
C1484 C1483 1.397 . S
C1484 C1485 1.334 . S
C1485 H1462 0.950 . S
C1485 C1484 1.334 . S
C1485 C1486 1.287 . S
C1486 C1485 1.287 . S
C1486 C1487 1.524 . S
C1486 H1505 0.913 . S
C1487 H1463 0.950 . S
C1487 C1486 1.524 . S
C1487 C1488 1.415 . S
C1488 H1464 0.950 . S
C1488 C1483 1.363 . S
C1488 C1487 1.415 . S
C1489 H1465 0.951 . S
C1489 C1490 1.366 . S
C1489 C1491 1.388 . S
C1490 C1489 1.366 . S
C1490 C1494 1.385 . S
C1491 H1466 0.951 . S
C1491 C1489 1.388 . S
C1491 C1492 1.366 . S
C1492 C1491 1.366 . S
C1492 C1493 1.414 . S
C1492 C1495 1.499 . S
C1493 H1467 0.950 . S
C1493 C1492 1.414 . S
C1493 C1494 1.374 . S
C1494 H1468 0.950 . S
C1494 C1490 1.385 . S
C1494 C1493 1.374 . S
C1495 C1492 1.499 . S
C1495 C1496 1.373 . S
C1495 C1497 1.389 . S
C1496 H1469 0.950 . S
C1496 C1482 1.377 . S
C1496 C1495 1.373 . S
C1497 C1481 1.377 . S
C1497 C1495 1.389 . S
C1497 C1498 1.524 . S
C1498 C1497 1.524 . S
C1498 C1499 1.397 . S
C1498 C1503 1.363 . S
C1499 H1470 0.950 . S
C1499 C1498 1.397 . S
C1499 C1500 1.334 . S
C1500 H1471 0.950 . S
C1500 C1499 1.334 . S
C1500 C1501 1.287 . S
C1501 C1500 1.287 . S
C1501 C1502 1.524 . S
C1501 H1504 0.999 . S
C1502 H1472 0.950 . S
C1502 C1501 1.524 . S
C1502 C1503 1.415 . S
C1503 H1473 0.950 . S
C1503 C1498 1.363 . S
C1503 C1502 1.415 . S
H1504 C1501 0.999 . S
H1505 C1486 0.913 . S
H1506 C1524 0.951 . S
H1507 C1526 0.951 . S
H1508 C1528 0.950 . S
H1509 C1529 0.950 . S
H1510 C1531 0.950 . S
H1511 C1534 0.950 . S
H1512 C1535 0.950 . S
H1513 C1537 0.950 . S
H1514 C1538 0.950 . S
H1515 C1539 0.951 . S
H1516 C1541 0.951 . S
H1517 C1543 0.950 . S
H1518 C1544 0.950 1_545 S
H1519 C1546 0.950 . S
H1520 C1549 0.950 . S
H1521 C1550 0.950 . S
H1522 C1552 0.950 . S
H1523 C1553 0.950 . S
C1524 H1506 0.951 . S
C1524 C1525 1.366 . S
C1524 C1526 1.388 . S
C1525 C1524 1.366 . S
C1525 C1529 1.385 . S
C1526 H1507 0.951 . S
C1526 C1524 1.388 . S
C1526 C1527 1.366 . S
C1527 C1526 1.366 . S
C1527 C1528 1.414 . S
C1527 C1530 1.499 . S
C1528 H1508 0.950 . S
C1528 C1527 1.414 . S
C1528 C1529 1.374 . S
C1529 H1509 0.950 . S
C1529 C1525 1.385 . S
C1529 C1528 1.374 . S
C1530 C1527 1.499 . S
C1530 C1531 1.373 . S
C1530 C1532 1.389 . S
C1531 H1510 0.950 . S
C1531 C1530 1.373 . S
C1531 C1547 1.377 . S
C1532 C1530 1.389 . S
C1532 C1533 1.524 . S
C1532 C1546 1.377 . S
C1533 C1532 1.524 . S
C1533 C1534 1.397 . S
C1533 C1538 1.363 . S
C1534 H1511 0.950 . S
C1534 C1533 1.397 . S
C1534 C1535 1.334 . S
C1535 H1512 0.950 . S
C1535 C1534 1.334 . S
C1535 C1536 1.287 . S
C1536 C1535 1.287 . S
C1536 C1537 1.524 . S
C1536 H1555 0.913 . S
C1537 H1513 0.950 . S
C1537 C1536 1.524 . S
C1537 C1538 1.415 . S
C1538 H1514 0.950 . S
C1538 C1533 1.363 . S
C1538 C1537 1.415 . S
C1539 H1515 0.951 . S
C1539 C1540 1.366 . S
C1539 C1541 1.388 1_545 S
C1540 C1539 1.366 . S
C1540 C1544 1.385 1_545 S
C1541 H1516 0.951 . S
C1541 C1539 1.388 1_565 S
C1541 C1542 1.366 . S
C1542 C1541 1.366 . S
C1542 C1543 1.414 . S
C1542 C1545 1.499 . S
C1543 H1517 0.950 . S
C1543 C1542 1.414 . S
C1543 C1544 1.374 . S
C1544 H1518 0.950 1_565 S
C1544 C1540 1.385 1_565 S
C1544 C1543 1.374 . S
C1545 C1542 1.499 . S
C1545 C1546 1.373 . S
C1545 C1547 1.389 . S
C1546 H1519 0.950 . S
C1546 C1532 1.377 . S
C1546 C1545 1.373 . S
C1547 C1531 1.377 . S
C1547 C1545 1.389 . S
C1547 C1548 1.524 . S
C1548 C1547 1.524 . S
C1548 C1549 1.397 . S
C1548 C1553 1.363 . S
C1549 H1520 0.950 . S
C1549 C1548 1.397 . S
C1549 C1550 1.334 . S
C1550 H1521 0.950 . S
C1550 C1549 1.334 . S
C1550 C1551 1.287 . S
C1551 C1550 1.287 . S
C1551 C1552 1.524 . S
C1551 H1554 0.999 . S
C1552 H1522 0.950 . S
C1552 C1551 1.524 . S
C1552 C1553 1.415 . S
C1553 H1523 0.950 . S
C1553 C1548 1.363 . S
C1553 C1552 1.415 . S
H1554 C1551 0.999 . S
H1555 C1536 0.913 . S
H1556 C1574 0.951 . S
H1557 C1576 0.951 . S
H1558 C1578 0.950 . S
H1559 C1579 0.950 . S
H1560 C1581 0.950 . S
H1561 C1584 0.950 . S
H1562 C1585 0.950 . S
H1563 C1587 0.950 . S
H1564 C1588 0.950 . S
H1565 C1589 0.951 . S
H1566 C1591 0.951 1_565 S
H1567 C1593 0.950 . S
H1568 C1594 0.950 . S
H1569 C1596 0.950 1_545 S
H1570 C1599 0.950 . S
H1571 C1600 0.950 . S
H1572 C1602 0.950 . S
H1573 C1603 0.950 . S
C1574 H1556 0.951 . S
C1574 C1575 1.366 . S
C1574 C1576 1.388 1_655 S
C1575 C1574 1.366 . S
C1575 C1579 1.385 1_655 S
C1576 H1557 0.951 . S
C1576 C1574 1.388 1_455 S
C1576 C1577 1.366 . S
C1577 C1576 1.366 . S
C1577 C1578 1.414 . S
C1577 C1580 1.499 . S
C1578 H1558 0.950 . S
C1578 C1577 1.414 . S
C1578 C1579 1.374 . S
C1579 H1559 0.950 . S
C1579 C1575 1.385 1_455 S
C1579 C1578 1.374 . S
C1580 C1577 1.499 . S
C1580 C1581 1.373 . S
C1580 C1582 1.389 . S
C1581 H1560 0.950 . S
C1581 C1580 1.373 . S
C1581 C1597 1.377 . S
C1582 C1580 1.389 . S
C1582 C1583 1.524 . S
C1582 C1596 1.377 . S
C1583 C1582 1.524 . S
C1583 C1584 1.397 . S
C1583 C1588 1.363 1_565 S
C1584 H1561 0.950 . S
C1584 C1583 1.397 . S
C1584 C1585 1.334 . S
C1585 H1562 0.950 . S
C1585 C1584 1.334 . S
C1585 C1586 1.287 1_565 S
C1586 C1585 1.287 1_545 S
C1586 C1587 1.524 . S
C1586 H1605 0.913 . S
C1587 H1563 0.950 . S
C1587 C1586 1.524 . S
C1587 C1588 1.415 . S
C1588 H1564 0.950 . S
C1588 C1583 1.363 1_545 S
C1588 C1587 1.415 . S
C1589 H1565 0.951 . S
C1589 C1590 1.366 . S
C1589 C1591 1.388 . S
C1590 C1589 1.366 . S
C1590 C1594 1.385 . S
C1591 H1566 0.951 1_545 S
C1591 C1589 1.388 . S
C1591 C1592 1.366 . S
C1592 C1591 1.366 . S
C1592 C1593 1.414 . S
C1592 C1595 1.499 1_545 S
C1593 H1567 0.950 . S
C1593 C1592 1.414 . S
C1593 C1594 1.374 . S
C1594 H1568 0.950 . S
C1594 C1590 1.385 . S
C1594 C1593 1.374 . S
C1595 C1592 1.499 1_565 S
C1595 C1596 1.373 . S
C1595 C1597 1.389 . S
C1596 H1569 0.950 1_565 S
C1596 C1582 1.377 . S
C1596 C1595 1.373 . S
C1597 C1581 1.377 . S
C1597 C1595 1.389 . S
C1597 C1598 1.524 . S
C1598 C1597 1.524 . S
C1598 C1599 1.397 . S
C1598 C1603 1.363 . S
C1599 H1570 0.950 . S
C1599 C1598 1.397 . S
C1599 C1600 1.334 . S
C1600 H1571 0.950 . S
C1600 C1599 1.334 . S
C1600 C1601 1.287 . S
C1601 C1600 1.287 . S
C1601 C1602 1.524 . S
C1601 H1604 0.999 . S
C1602 H1572 0.950 . S
C1602 C1601 1.524 . S
C1602 C1603 1.415 . S
C1603 H1573 0.950 . S
C1603 C1598 1.363 . S
C1603 C1602 1.415 . S
H1604 C1601 0.999 . S
H1605 C1586 0.913 . S
H1606 C1624 0.951 . S
H1607 C1626 0.951 . S
H1608 C1628 0.950 . S
H1609 C1629 0.950 . S
H1610 C1631 0.950 . S
H1611 C1634 0.950 . S
H1612 C1635 0.950 . S
H1613 C1637 0.950 . S
H1614 C1638 0.950 . S
H1615 C1639 0.951 . S
H1616 C1641 0.950 . S
H1617 C1643 0.950 1_455 S
H1618 C1644 0.950 . S
H1619 C1646 0.950 . S
H1620 C1649 0.950 . S
H1621 C1650 0.950 . S
H1622 C1652 0.950 . S
H1623 C1653 0.950 . S
C1624 H1606 0.951 . S
C1624 C1625 1.366 . S
C1624 C1626 1.388 . S
C1625 C1624 1.366 . S
C1625 C1629 1.385 . S
C1626 H1607 0.951 . S
C1626 C1624 1.388 . S
C1626 C1627 1.366 . S
C1627 C1626 1.366 . S
C1627 C1628 1.414 . S
C1627 C1630 1.499 . S
C1628 H1608 0.950 . S
C1628 C1627 1.414 . S
C1628 C1629 1.374 . S
C1629 H1609 0.950 . S
C1629 C1625 1.385 . S
C1629 C1628 1.374 . S
C1630 C1627 1.499 . S
C1630 C1631 1.373 . S
C1630 C1632 1.389 . S
C1631 H1610 0.950 . S
C1631 C1630 1.373 . S
C1631 C1647 1.377 . S
C1632 C1630 1.389 . S
C1632 C1633 1.524 . S
C1632 C1646 1.377 . S
C1633 C1632 1.524 . S
C1633 C1634 1.397 . S
C1633 C1638 1.363 . S
C1634 H1611 0.950 . S
C1634 C1633 1.397 . S
C1634 C1635 1.334 . S
C1635 H1612 0.950 . S
C1635 C1634 1.334 . S
C1635 C1636 1.287 . S
C1636 C1635 1.287 . S
C1636 C1637 1.524 . S
C1636 H1655 0.913 . S
C1637 H1613 0.950 . S
C1637 C1636 1.524 . S
C1637 C1638 1.415 . S
C1638 H1614 0.950 . S
C1638 C1633 1.363 . S
C1638 C1637 1.415 . S
C1639 H1615 0.951 . S
C1639 C1640 1.366 . S
C1639 C1641 1.388 . S
C1640 C1639 1.366 . S
C1640 C1644 1.385 . S
C1641 H1616 0.950 . S
C1641 C1639 1.388 . S
C1641 C1642 1.366 1_655 S
C1642 C1641 1.366 1_455 S
C1642 C1643 1.414 1_455 S
C1642 C1645 1.499 . S
C1643 H1617 0.950 1_655 S
C1643 C1642 1.414 1_655 S
C1643 C1644 1.374 . S
C1644 H1618 0.950 . S
C1644 C1640 1.385 . S
C1644 C1643 1.374 . S
C1645 C1642 1.499 . S
C1645 C1646 1.373 . S
C1645 C1647 1.389 . S
C1646 H1619 0.950 . S
C1646 C1632 1.377 . S
C1646 C1645 1.373 . S
C1647 C1631 1.377 . S
C1647 C1645 1.389 . S
C1647 C1648 1.524 . S
C1648 C1647 1.524 . S
C1648 C1649 1.397 . S
C1648 C1653 1.363 . S
C1649 H1620 0.950 . S
C1649 C1648 1.397 . S
C1649 C1650 1.334 . S
C1650 H1621 0.950 . S
C1650 C1649 1.334 . S
C1650 C1651 1.287 . S
C1651 C1650 1.287 . S
C1651 C1652 1.524 . S
C1651 H1654 0.999 . S
C1652 H1622 0.950 . S
C1652 C1651 1.524 . S
C1652 C1653 1.415 . S
C1653 H1623 0.950 . S
C1653 C1648 1.363 . S
C1653 C1652 1.415 . S
H1654 C1651 0.999 . S
H1655 C1636 0.913 . S
H1656 C1674 0.951 . S
H1657 C1676 0.951 . S
H1658 C1678 0.950 . S
H1659 C1679 0.950 . S
H1660 C1681 0.950 . S
H1661 C1684 0.950 . S
H1662 C1685 0.950 . S
H1663 C1687 0.950 . S
H1664 C1688 0.950 . S
H1665 C1689 0.951 . S
H1666 C1691 0.951 . S
H1667 C1693 0.950 . S
H1668 C1694 0.950 . S
H1669 C1696 0.950 . S
H1670 C1699 0.950 . S
H1671 C1700 0.950 . S
H1672 C1702 0.950 . S
H1673 C1703 0.950 . S
C1674 H1656 0.951 . S
C1674 C1675 1.366 . S
C1674 C1676 1.388 . S
C1675 C1674 1.366 . S
C1675 C1679 1.385 . S
C1676 H1657 0.951 . S
C1676 C1674 1.388 . S
C1676 C1677 1.366 . S
C1677 C1676 1.366 . S
C1677 C1678 1.414 . S
C1677 C1680 1.499 . S
C1678 H1658 0.950 . S
C1678 C1677 1.414 . S
C1678 C1679 1.374 . S
C1679 H1659 0.950 . S
C1679 C1675 1.385 . S
C1679 C1678 1.374 . S
C1680 C1677 1.499 . S
C1680 C1681 1.373 . S
C1680 C1682 1.389 . S
C1681 H1660 0.950 . S
C1681 C1680 1.373 . S
C1681 C1697 1.377 . S
C1682 C1680 1.389 . S
C1682 C1683 1.524 . S
C1682 C1696 1.377 . S
C1683 C1682 1.524 . S
C1683 C1684 1.397 . S
C1683 C1688 1.363 . S
C1684 H1661 0.950 . S
C1684 C1683 1.397 . S
C1684 C1685 1.334 . S
C1685 H1662 0.950 . S
C1685 C1684 1.334 . S
C1685 C1686 1.287 1_455 S
C1686 C1685 1.287 1_655 S
C1686 C1687 1.524 . S
C1686 H1705 0.913 . S
C1687 H1663 0.950 . S
C1687 C1686 1.524 . S
C1687 C1688 1.415 1_655 S
C1688 H1664 0.950 . S
C1688 C1683 1.363 . S
C1688 C1687 1.415 1_455 S
C1689 H1665 0.951 . S
C1689 C1690 1.366 . S
C1689 C1691 1.388 . S
C1690 C1689 1.366 . S
C1690 C1694 1.385 . S
C1691 H1666 0.951 . S
C1691 C1689 1.388 . S
C1691 C1692 1.366 . S
C1692 C1691 1.366 . S
C1692 C1693 1.414 . S
C1692 C1695 1.499 . S
C1693 H1667 0.950 . S
C1693 C1692 1.414 . S
C1693 C1694 1.374 . S
C1694 H1668 0.950 . S
C1694 C1690 1.385 . S
C1694 C1693 1.374 . S
C1695 C1692 1.499 . S
C1695 C1696 1.373 . S
C1695 C1697 1.389 . S
C1696 H1669 0.950 . S
C1696 C1682 1.377 . S
C1696 C1695 1.373 . S
C1697 C1681 1.377 . S
C1697 C1695 1.389 . S
C1697 C1698 1.524 . S
C1698 C1697 1.524 . S
C1698 C1699 1.397 . S
C1698 C1703 1.363 . S
C1699 H1670 0.950 . S
C1699 C1698 1.397 . S
C1699 C1700 1.334 . S
C1700 H1671 0.950 . S
C1700 C1699 1.334 . S
C1700 C1701 1.287 . S
C1701 C1700 1.287 . S
C1701 C1702 1.524 . S
C1701 H1704 0.999 . S
C1702 H1672 0.950 . S
C1702 C1701 1.524 . S
C1702 C1703 1.415 . S
C1703 H1673 0.950 . S
C1703 C1698 1.363 . S
C1703 C1702 1.415 . S
H1704 C1701 0.999 . S
H1705 C1686 0.913 . S
H1706 C1724 0.951 . S
H1707 C1726 0.951 . S
H1708 C1728 0.950 . S
H1709 C1729 0.950 . S
H1710 C1731 0.950 . S
H1711 C1734 0.950 . S
H1712 C1735 0.950 . S
H1713 C1737 0.950 . S
H1714 C1738 0.950 . S
H1715 C1739 0.951 . S
H1716 C1741 0.951 . S
H1717 C1743 0.950 . S
H1718 C1744 0.950 . S
H1719 C1746 0.950 . S
H1720 C1749 0.950 . S
H1721 C1750 0.950 . S
H1722 C1752 0.950 . S
H1723 C1753 0.950 . S
C1724 H1706 0.951 . S
C1724 C1725 1.366 . S
C1724 C1726 1.388 . S
C1725 C1724 1.366 . S
C1725 C1729 1.385 . S
C1726 H1707 0.951 . S
C1726 C1724 1.388 . S
C1726 C1727 1.366 . S
C1727 C1726 1.366 . S
C1727 C1728 1.414 . S
C1727 C1730 1.499 . S
C1728 H1708 0.950 . S
C1728 C1727 1.414 . S
C1728 C1729 1.374 . S
C1729 H1709 0.950 . S
C1729 C1725 1.385 . S
C1729 C1728 1.374 . S
C1730 C1727 1.499 . S
C1730 C1731 1.373 . S
C1730 C1732 1.389 . S
C1731 H1710 0.950 . S
C1731 C1730 1.373 . S
C1731 C1747 1.377 . S
C1732 C1730 1.389 . S
C1732 C1733 1.524 . S
C1732 C1746 1.377 . S
C1733 C1732 1.524 . S
C1733 C1734 1.397 . S
C1733 C1738 1.363 . S
C1734 H1711 0.950 . S
C1734 C1733 1.397 . S
C1734 C1735 1.334 . S
C1735 H1712 0.950 . S
C1735 C1734 1.334 . S
C1735 C1736 1.287 . S
C1736 C1735 1.287 . S
C1736 C1737 1.524 . S
C1736 H1755 0.913 . S
C1737 H1713 0.950 . S
C1737 C1736 1.524 . S
C1737 C1738 1.415 . S
C1738 H1714 0.950 . S
C1738 C1733 1.363 . S
C1738 C1737 1.415 . S
C1739 H1715 0.951 . S
C1739 C1740 1.366 . S
C1739 C1741 1.388 . S
C1740 C1739 1.366 . S
C1740 C1744 1.385 . S
C1741 H1716 0.951 . S
C1741 C1739 1.388 . S
C1741 C1742 1.366 . S
C1742 C1741 1.366 . S
C1742 C1743 1.414 . S
C1742 C1745 1.499 . S
C1743 H1717 0.950 . S
C1743 C1742 1.414 . S
C1743 C1744 1.374 . S
C1744 H1718 0.950 . S
C1744 C1740 1.385 . S
C1744 C1743 1.374 . S
C1745 C1742 1.499 . S
C1745 C1746 1.373 . S
C1745 C1747 1.389 . S
C1746 H1719 0.950 . S
C1746 C1732 1.377 . S
C1746 C1745 1.373 . S
C1747 C1731 1.377 . S
C1747 C1745 1.389 . S
C1747 C1748 1.524 . S
C1748 C1747 1.524 . S
C1748 C1749 1.397 . S
C1748 C1753 1.363 . S
C1749 H1720 0.950 . S
C1749 C1748 1.397 . S
C1749 C1750 1.334 . S
C1750 H1721 0.950 . S
C1750 C1749 1.334 . S
C1750 C1751 1.287 . S
C1751 C1750 1.287 . S
C1751 C1752 1.524 . S
C1751 H1754 0.999 . S
C1752 H1722 0.950 . S
C1752 C1751 1.524 . S
C1752 C1753 1.415 . S
C1753 H1723 0.950 . S
C1753 C1748 1.363 . S
C1753 C1752 1.415 . S
H1754 C1751 0.999 . S
H1755 C1736 0.913 . S
H1756 C1774 0.951 . S
H1757 C1776 0.951 . S
H1758 C1778 0.950 . S
H1759 C1779 0.950 1_545 S
H1760 C1781 0.950 . S
H1761 C1784 0.950 . S
H1762 C1785 0.950 . S
H1763 C1787 0.950 . S
H1764 C1788 0.950 . S
H1765 C1789 0.951 . S
H1766 C1791 0.951 . S
H1767 C1793 0.950 . S
H1768 C1794 0.950 . S
H1769 C1796 0.950 . S
H1770 C1799 0.950 . S
H1771 C1800 0.950 . S
H1772 C1802 0.950 1_545 S
H1773 C1803 0.950 . S
C1774 H1756 0.951 . S
C1774 C1775 1.366 . S
C1774 C1776 1.388 . S
C1775 C1774 1.366 . S
C1775 C1779 1.385 . S
C1776 H1757 0.951 . S
C1776 C1774 1.388 . S
C1776 C1777 1.366 . S
C1777 C1776 1.366 . S
C1777 C1778 1.414 . S
C1777 C1780 1.499 . S
C1778 H1758 0.950 . S
C1778 C1777 1.414 . S
C1778 C1779 1.374 . S
C1779 H1759 0.950 1_565 S
C1779 C1775 1.385 . S
C1779 C1778 1.374 . S
C1780 C1777 1.499 . S
C1780 C1781 1.373 . S
C1780 C1782 1.389 . S
C1781 H1760 0.950 . S
C1781 C1780 1.373 . S
C1781 C1797 1.377 . S
C1782 C1780 1.389 . S
C1782 C1783 1.524 . S
C1782 C1796 1.377 . S
C1783 C1782 1.524 . S
C1783 C1784 1.397 . S
C1783 C1788 1.363 . S
C1784 H1761 0.950 . S
C1784 C1783 1.397 . S
C1784 C1785 1.334 . S
C1785 H1762 0.950 . S
C1785 C1784 1.334 . S
C1785 C1786 1.287 . S
C1786 C1785 1.287 . S
C1786 C1787 1.524 . S
C1786 H1805 0.913 . S
C1787 H1763 0.950 . S
C1787 C1786 1.524 . S
C1787 C1788 1.415 . S
C1788 H1764 0.950 . S
C1788 C1783 1.363 . S
C1788 C1787 1.415 . S
C1789 H1765 0.951 . S
C1789 C1790 1.366 . S
C1789 C1791 1.388 . S
C1790 C1789 1.366 . S
C1790 C1794 1.385 . S
C1791 H1766 0.951 . S
C1791 C1789 1.388 . S
C1791 C1792 1.366 . S
C1792 C1791 1.366 . S
C1792 C1793 1.414 . S
C1792 C1795 1.499 . S
C1793 H1767 0.950 . S
C1793 C1792 1.414 . S
C1793 C1794 1.374 . S
C1794 H1768 0.950 . S
C1794 C1790 1.385 . S
C1794 C1793 1.374 . S
C1795 C1792 1.499 . S
C1795 C1796 1.373 . S
C1795 C1797 1.389 . S
C1796 H1769 0.950 . S
C1796 C1782 1.377 . S
C1796 C1795 1.373 . S
C1797 C1781 1.377 . S
C1797 C1795 1.389 . S
C1797 C1798 1.524 . S
C1798 C1797 1.524 . S
C1798 C1799 1.397 . S
C1798 C1803 1.363 . S
C1799 H1770 0.950 . S
C1799 C1798 1.397 . S
C1799 C1800 1.334 . S
C1800 H1771 0.950 . S
C1800 C1799 1.334 . S
C1800 C1801 1.287 . S
C1801 C1800 1.287 . S
C1801 C1802 1.524 . S
C1801 H1804 0.999 . S
C1802 H1772 0.950 1_565 S
C1802 C1801 1.524 . S
C1802 C1803 1.415 . S
C1803 H1773 0.950 . S
C1803 C1798 1.363 . S
C1803 C1802 1.415 . S
H1804 C1801 0.999 . S
H1805 C1786 0.913 . S
H1806 C1824 0.951 1_565 S
H1807 C1826 0.951 . S
H1808 C1828 0.950 . S
H1809 C1829 0.950 . S
H1810 C1831 0.950 . S
H1811 C1834 0.950 . S
H1812 C1835 0.940 . S
H1813 C1837 0.950 . S
H1814 C1838 0.950 . S
H1815 C1839 0.951 . S
H1816 C1841 0.951 . S
H1817 C1843 0.950 . S
H1818 C1844 0.950 . S
H1819 C1846 0.950 . S
H1820 C1849 0.950 . S
H1821 C1850 0.950 . S
H1822 C1852 0.950 . S
H1823 C1853 0.950 . S
C1824 H1806 0.951 1_545 S
C1824 C1825 1.366 . S
C1824 C1826 1.388 . S
C1825 C1824 1.366 . S
C1825 C1829 1.385 . S
C1826 H1807 0.951 . S
C1826 C1824 1.388 . S
C1826 C1827 1.366 . S
C1827 C1826 1.366 . S
C1827 C1828 1.414 . S
C1827 C1830 1.499 . S
C1828 H1808 0.950 . S
C1828 C1827 1.414 . S
C1828 C1829 1.374 . S
C1829 H1809 0.950 . S
C1829 C1825 1.385 . S
C1829 C1828 1.374 . S
C1830 C1827 1.499 . S
C1830 C1831 1.373 . S
C1830 C1832 1.389 . S
C1831 H1810 0.950 . S
C1831 C1830 1.373 . S
C1831 C1847 1.377 . S
C1832 C1830 1.389 . S
C1832 C1833 1.524 . S
C1832 C1846 1.377 . S
C1833 C1832 1.524 . S
C1833 C1834 1.397 . S
C1833 C1838 1.363 1_545 S
C1834 H1811 0.950 . S
C1834 C1833 1.397 . S
C1834 C1835 1.334 1_545 S
C1835 H1812 0.940 . S
C1835 C1834 1.334 1_565 S
C1835 C1836 1.287 . S
C1836 C1835 1.287 . S
C1836 C1837 1.524 . S
C1836 H1855 0.913 . S
C1837 H1813 0.950 . S
C1837 C1836 1.524 . S
C1837 C1838 1.415 . S
C1838 H1814 0.950 . S
C1838 C1833 1.363 1_565 S
C1838 C1837 1.415 . S
C1839 H1815 0.951 . S
C1839 C1840 1.366 . S
C1839 C1841 1.388 . S
C1840 C1839 1.366 . S
C1840 C1844 1.385 . S
C1841 H1816 0.951 . S
C1841 C1839 1.388 . S
C1841 C1842 1.366 . S
C1842 C1841 1.366 . S
C1842 C1843 1.414 . S
C1842 C1845 1.499 . S
C1843 H1817 0.950 . S
C1843 C1842 1.414 . S
C1843 C1844 1.374 . S
C1844 H1818 0.950 . S
C1844 C1840 1.385 . S
C1844 C1843 1.374 . S
C1845 C1842 1.499 . S
C1845 C1846 1.373 . S
C1845 C1847 1.389 . S
C1846 H1819 0.950 . S
C1846 C1832 1.377 . S
C1846 C1845 1.373 . S
C1847 C1831 1.377 . S
C1847 C1845 1.389 . S
C1847 C1848 1.524 . S
C1848 C1847 1.524 . S
C1848 C1849 1.397 . S
C1848 C1853 1.363 . S
C1849 H1820 0.950 . S
C1849 C1848 1.397 . S
C1849 C1850 1.334 . S
C1850 H1821 0.950 . S
C1850 C1849 1.334 . S
C1850 C1851 1.287 . S
C1851 C1850 1.287 . S
C1851 C1852 1.524 . S
C1851 H1854 0.999 . S
C1852 H1822 0.950 . S
C1852 C1851 1.524 . S
C1852 C1853 1.415 . S
C1853 H1823 0.950 . S
C1853 C1848 1.363 . S
C1853 C1852 1.415 . S
H1854 C1851 0.999 . S
H1855 C1836 0.913 . S
H1856 C1874 0.951 . S
H1857 C1876 0.951 . S
H1858 C1878 0.950 . S
H1859 C1879 0.950 . S
H1860 C1881 0.950 . S
H1861 C1884 0.950 . S
H1862 C1885 0.950 . S
H1863 C1887 0.950 . S
H1864 C1888 0.950 . S
H1865 C1889 0.951 . S
H1866 C1891 0.951 . S
H1867 C1893 0.950 . S
H1868 C1894 0.950 . S
H1869 C1896 0.950 . S
H1870 C1899 0.950 . S
H1871 C1900 0.950 . S
H1872 C1902 0.950 . S
H1873 C1903 0.950 . S
C1874 H1856 0.951 . S
C1874 C1875 1.366 . S
C1874 C1876 1.388 . S
C1875 C1874 1.366 . S
C1875 C1879 1.385 . S
C1876 H1857 0.951 . S
C1876 C1874 1.388 . S
C1876 C1877 1.366 . S
C1877 C1876 1.366 . S
C1877 C1878 1.414 . S
C1877 C1880 1.499 . S
C1878 H1858 0.950 . S
C1878 C1877 1.414 . S
C1878 C1879 1.374 . S
C1879 H1859 0.950 . S
C1879 C1875 1.385 . S
C1879 C1878 1.374 . S
C1880 C1877 1.499 . S
C1880 C1881 1.373 . S
C1880 C1882 1.389 . S
C1881 H1860 0.950 . S
C1881 C1880 1.373 . S
C1881 C1897 1.377 . S
C1882 C1880 1.389 . S
C1882 C1883 1.524 . S
C1882 C1896 1.377 . S
C1883 C1882 1.524 . S
C1883 C1884 1.397 1_655 S
C1883 C1888 1.363 . S
C1884 H1861 0.950 . S
C1884 C1883 1.397 1_455 S
C1884 C1885 1.334 . S
C1885 H1862 0.950 . S
C1885 C1884 1.334 . S
C1885 C1886 1.287 . S
C1886 C1885 1.287 . S
C1886 C1887 1.524 . S
C1886 H1905 0.913 . S
C1887 H1863 0.950 . S
C1887 C1886 1.524 . S
C1887 C1888 1.415 1_455 S
C1888 H1864 0.950 . S
C1888 C1883 1.363 . S
C1888 C1887 1.415 1_655 S
C1889 H1865 0.951 . S
C1889 C1890 1.366 . S
C1889 C1891 1.388 . S
C1890 C1889 1.366 . S
C1890 C1894 1.385 . S
C1891 H1866 0.951 . S
C1891 C1889 1.388 . S
C1891 C1892 1.366 . S
C1892 C1891 1.366 . S
C1892 C1893 1.414 . S
C1892 C1895 1.499 . S
C1893 H1867 0.950 . S
C1893 C1892 1.414 . S
C1893 C1894 1.374 . S
C1894 H1868 0.950 . S
C1894 C1890 1.385 . S
C1894 C1893 1.374 . S
C1895 C1892 1.499 . S
C1895 C1896 1.373 . S
C1895 C1897 1.389 . S
C1896 H1869 0.950 . S
C1896 C1882 1.377 . S
C1896 C1895 1.373 . S
C1897 C1881 1.377 . S
C1897 C1895 1.389 . S
C1897 C1898 1.524 . S
C1898 C1897 1.524 . S
C1898 C1899 1.397 . S
C1898 C1903 1.363 . S
C1899 H1870 0.950 . S
C1899 C1898 1.397 . S
C1899 C1900 1.334 . S
C1900 H1871 0.950 . S
C1900 C1899 1.334 . S
C1900 C1901 1.287 . S
C1901 C1900 1.287 . S
C1901 C1902 1.524 . S
C1901 H1904 0.999 . S
C1902 H1872 0.950 . S
C1902 C1901 1.524 . S
C1902 C1903 1.415 . S
C1903 H1873 0.950 . S
C1903 C1898 1.363 . S
C1903 C1902 1.415 . S
H1904 C1901 0.999 . S
H1905 C1886 0.913 . S
H1906 C1924 0.951 . S
H1907 C1926 0.951 . S
H1908 C1928 0.950 . S
H1909 C1929 0.950 . S
H1910 C1931 0.950 . S
H1911 C1934 0.950 . S
H1912 C1935 0.950 . S
H1913 C1937 0.950 . S
H1914 C1938 0.950 . S
H1915 C1939 0.951 . S
H1916 C1941 0.951 . S
H1917 C1943 0.950 . S
H1918 C1944 0.950 . S
H1919 C1946 0.950 . S
H1920 C1949 0.950 . S
H1921 C1950 0.950 . S
H1922 C1952 0.950 . S
H1923 C1953 0.950 . S
C1924 H1906 0.951 . S
C1924 C1925 1.366 . S
C1924 C1926 1.388 . S
C1925 C1924 1.366 . S
C1925 C1929 1.385 . S
C1926 H1907 0.951 . S
C1926 C1924 1.388 . S
C1926 C1927 1.366 . S
C1927 C1926 1.366 . S
C1927 C1928 1.414 . S
C1927 C1930 1.499 . S
C1928 H1908 0.950 . S
C1928 C1927 1.414 . S
C1928 C1929 1.374 . S
C1929 H1909 0.950 . S
C1929 C1925 1.385 . S
C1929 C1928 1.374 . S
C1930 C1927 1.499 . S
C1930 C1931 1.373 . S
C1930 C1932 1.389 . S
C1931 H1910 0.950 . S
C1931 C1930 1.373 . S
C1931 C1947 1.377 . S
C1932 C1930 1.389 . S
C1932 C1933 1.524 . S
C1932 C1946 1.377 . S
C1933 C1932 1.524 . S
C1933 C1934 1.397 . S
C1933 C1938 1.363 . S
C1934 H1911 0.950 . S
C1934 C1933 1.397 . S
C1934 C1935 1.334 . S
C1935 H1912 0.950 . S
C1935 C1934 1.334 . S
C1935 C1936 1.287 . S
C1936 C1935 1.287 . S
C1936 C1937 1.524 . S
C1936 H1955 0.913 . S
C1937 H1913 0.950 . S
C1937 C1936 1.524 . S
C1937 C1938 1.415 . S
C1938 H1914 0.950 . S
C1938 C1933 1.363 . S
C1938 C1937 1.415 . S
C1939 H1915 0.951 . S
C1939 C1940 1.366 . S
C1939 C1941 1.388 . S
C1940 C1939 1.366 . S
C1940 C1944 1.385 . S
C1941 H1916 0.951 . S
C1941 C1939 1.388 . S
C1941 C1942 1.366 . S
C1942 C1941 1.366 . S
C1942 C1943 1.414 . S
C1942 C1945 1.499 . S
C1943 H1917 0.950 . S
C1943 C1942 1.414 . S
C1943 C1944 1.374 . S
C1944 H1918 0.950 . S
C1944 C1940 1.385 . S
C1944 C1943 1.374 . S
C1945 C1942 1.499 . S
C1945 C1946 1.373 . S
C1945 C1947 1.389 . S
C1946 H1919 0.950 . S
C1946 C1932 1.377 . S
C1946 C1945 1.373 . S
C1947 C1931 1.377 . S
C1947 C1945 1.389 . S
C1947 C1948 1.524 . S
C1948 C1947 1.524 . S
C1948 C1949 1.397 . S
C1948 C1953 1.363 . S
C1949 H1920 0.950 . S
C1949 C1948 1.397 . S
C1949 C1950 1.334 . S
C1950 H1921 0.950 . S
C1950 C1949 1.334 . S
C1950 C1951 1.287 . S
C1951 C1950 1.287 . S
C1951 C1952 1.524 . S
C1951 H1954 0.999 . S
C1952 H1922 0.950 . S
C1952 C1951 1.524 . S
C1952 C1953 1.415 . S
C1953 H1923 0.950 . S
C1953 C1948 1.363 . S
C1953 C1952 1.415 . S
H1954 C1951 0.999 . S
H1955 C1936 0.913 . S
H1956 C1974 0.951 . S
H1957 C1976 0.951 . S
H1958 C1978 0.950 . S
H1959 C1979 0.950 . S
H1960 C1981 0.950 . S
H1961 C1984 0.950 . S
H1962 C1985 0.950 . S
H1963 C1987 0.950 . S
H1964 C1988 0.950 . S
H1965 C1989 0.951 . S
H1966 C1991 0.951 . S
H1967 C1993 0.950 . S
H1968 C1994 0.950 . S
H1969 C1996 0.950 . S
H1970 C1999 0.950 . S
H1971 C2000 0.950 . S
H1972 C2002 0.950 . S
H1973 C2003 0.950 . S
C1974 H1956 0.951 . S
C1974 C1975 1.366 . S
C1974 C1976 1.388 . S
C1975 C1974 1.366 . S
C1975 C1979 1.385 . S
C1976 H1957 0.951 . S
C1976 C1974 1.388 . S
C1976 C1977 1.366 . S
C1977 C1976 1.366 . S
C1977 C1978 1.414 . S
C1977 C1980 1.499 . S
C1978 H1958 0.950 . S
C1978 C1977 1.414 . S
C1978 C1979 1.374 . S
C1979 H1959 0.950 . S
C1979 C1975 1.385 . S
C1979 C1978 1.374 . S
C1980 C1977 1.499 . S
C1980 C1981 1.373 . S
C1980 C1982 1.389 . S
C1981 H1960 0.950 . S
C1981 C1980 1.373 . S
C1981 C1997 1.377 . S
C1982 C1980 1.389 . S
C1982 C1983 1.524 . S
C1982 C1996 1.377 . S
C1983 C1982 1.524 . S
C1983 C1984 1.397 . S
C1983 C1988 1.363 . S
C1984 H1961 0.950 . S
C1984 C1983 1.397 . S
C1984 C1985 1.334 . S
C1985 H1962 0.950 . S
C1985 C1984 1.334 . S
C1985 C1986 1.287 . S
C1986 C1985 1.287 . S
C1986 C1987 1.524 . S
C1986 H2005 0.913 . S
C1987 H1963 0.950 . S
C1987 C1986 1.524 . S
C1987 C1988 1.415 . S
C1988 H1964 0.950 . S
C1988 C1983 1.363 . S
C1988 C1987 1.415 . S
C1989 H1965 0.951 . S
C1989 C1990 1.366 . S
C1989 C1991 1.388 . S
C1990 C1989 1.366 . S
C1990 C1994 1.385 . S
C1991 H1966 0.951 . S
C1991 C1989 1.388 . S
C1991 C1992 1.366 . S
C1992 C1991 1.366 . S
C1992 C1993 1.414 . S
C1992 C1995 1.499 . S
C1993 H1967 0.950 . S
C1993 C1992 1.414 . S
C1993 C1994 1.374 . S
C1994 H1968 0.950 . S
C1994 C1990 1.385 . S
C1994 C1993 1.374 . S
C1995 C1992 1.499 . S
C1995 C1996 1.373 . S
C1995 C1997 1.389 . S
C1996 H1969 0.950 . S
C1996 C1982 1.377 . S
C1996 C1995 1.373 . S
C1997 C1981 1.377 . S
C1997 C1995 1.389 . S
C1997 C1998 1.524 . S
C1998 C1997 1.524 . S
C1998 C1999 1.397 . S
C1998 C2003 1.363 . S
C1999 H1970 0.950 . S
C1999 C1998 1.397 . S
C1999 C2000 1.334 . S
C2000 H1971 0.950 . S
C2000 C1999 1.334 . S
C2000 C2001 1.287 . S
C2001 C2000 1.287 . S
C2001 C2002 1.524 . S
C2001 H2004 0.999 . S
C2002 H1972 0.950 . S
C2002 C2001 1.524 . S
C2002 C2003 1.415 . S
C2003 H1973 0.950 . S
C2003 C1998 1.363 . S
C2003 C2002 1.415 . S
H2004 C2001 0.999 . S
H2005 C1986 0.913 . S
H2006 C2024 0.951 . S
H2007 C2026 0.951 . S
H2008 C2028 0.950 1_545 S
H2009 C2029 0.950 . S
H2010 C2031 0.950 . S
H2011 C2034 0.950 . S
H2012 C2035 0.950 . S
H2013 C2037 0.950 . S
H2014 C2038 0.950 . S
H2015 C2039 0.951 . S
H2016 C2041 0.951 . S
H2017 C2043 0.950 . S
H2018 C2044 0.950 . S
H2019 C2046 0.950 . S
H2020 C2049 0.950 . S
H2021 C2050 0.950 . S
H2022 C2052 0.950 . S
H2023 C2053 0.950 . S
C2024 H2006 0.951 . S
C2024 C2025 1.366 . S
C2024 C2026 1.388 . S
C2025 C2024 1.366 . S
C2025 C2029 1.385 . S
C2026 H2007 0.951 . S
C2026 C2024 1.388 . S
C2026 C2027 1.366 . S
C2027 C2026 1.366 . S
C2027 C2028 1.414 . S
C2027 C2030 1.500 1_565 S
C2028 H2008 0.950 1_565 S
C2028 C2027 1.414 . S
C2028 C2029 1.374 . S
C2029 H2009 0.950 . S
C2029 C2025 1.385 . S
C2029 C2028 1.374 . S
C2030 C2027 1.500 1_545 S
C2030 C2031 1.372 . S
C2030 C2032 1.390 1_545 S
C2031 H2010 0.950 . S
C2031 C2030 1.372 . S
C2031 C2047 1.377 . S
C2032 C2030 1.390 1_565 S
C2032 C2033 1.524 . S
C2032 C2046 1.377 1_565 S
C2033 C2032 1.524 . S
C2033 C2034 1.397 . S
C2033 C2038 1.363 . S
C2034 H2011 0.950 . S
C2034 C2033 1.397 . S
C2034 C2035 1.334 . S
C2035 H2012 0.950 . S
C2035 C2034 1.334 . S
C2035 C2036 1.287 . S
C2036 C2035 1.287 . S
C2036 C2037 1.524 . S
C2036 H2055 0.913 . S
C2037 H2013 0.950 . S
C2037 C2036 1.524 . S
C2037 C2038 1.415 . S
C2038 H2014 0.950 . S
C2038 C2033 1.363 . S
C2038 C2037 1.415 . S
C2039 H2015 0.951 . S
C2039 C2040 1.366 . S
C2039 C2041 1.388 . S
C2040 C2039 1.366 . S
C2040 C2044 1.385 . S
C2041 H2016 0.951 . S
C2041 C2039 1.388 . S
C2041 C2042 1.366 . S
C2042 C2041 1.366 . S
C2042 C2043 1.414 . S
C2042 C2045 1.499 . S
C2043 H2017 0.950 . S
C2043 C2042 1.414 . S
C2043 C2044 1.374 . S
C2044 H2018 0.950 . S
C2044 C2040 1.385 . S
C2044 C2043 1.374 . S
C2045 C2042 1.499 . S
C2045 C2046 1.373 . S
C2045 C2047 1.389 . S
C2046 H2019 0.950 . S
C2046 C2032 1.377 1_545 S
C2046 C2045 1.373 . S
C2047 C2031 1.377 . S
C2047 C2045 1.389 . S
C2047 C2048 1.524 . S
C2048 C2047 1.524 . S
C2048 C2049 1.397 . S
C2048 C2053 1.363 . S
C2049 H2020 0.950 . S
C2049 C2048 1.397 . S
C2049 C2050 1.334 . S
C2050 H2021 0.950 . S
C2050 C2049 1.334 . S
C2050 C2051 1.287 . S
C2051 C2050 1.287 . S
C2051 C2052 1.524 . S
C2051 H2054 0.999 . S
C2052 H2022 0.950 . S
C2052 C2051 1.524 . S
C2052 C2053 1.415 . S
C2053 H2023 0.950 . S
C2053 C2048 1.363 . S
C2053 C2052 1.415 . S
H2054 C2051 0.999 . S
H2055 C2036 0.913 . S
H2056 C2074 0.951 . S
H2057 C2076 0.951 . S
H2058 C2078 0.950 . S
H2059 C2079 0.950 . S
H2060 C2081 0.950 . S
H2061 C2084 0.950 . S
H2062 C2085 0.950 . S
H2063 C2087 0.950 . S
H2064 C2088 0.950 . S
H2065 C2089 0.951 . S
H2066 C2091 0.955 . S
H2067 C2093 0.950 . S
H2068 C2094 0.950 . S
H2069 C2096 0.950 . S
H2070 C2099 0.950 . S
H2071 C2100 0.950 . S
H2072 C2102 0.950 . S
H2073 C2103 0.950 . S
C2074 H2056 0.951 . S
C2074 C2075 1.366 . S
C2074 C2076 1.388 . S
C2075 C2074 1.366 . S
C2075 C2079 1.385 . S
C2076 H2057 0.951 . S
C2076 C2074 1.388 . S
C2076 C2077 1.366 . S
C2077 C2076 1.366 . S
C2077 C2078 1.414 . S
C2077 C2080 1.499 . S
C2078 H2058 0.950 . S
C2078 C2077 1.414 . S
C2078 C2079 1.374 . S
C2079 H2059 0.950 . S
C2079 C2075 1.385 . S
C2079 C2078 1.374 . S
C2080 C2077 1.499 . S
C2080 C2081 1.373 . S
C2080 C2082 1.389 . S
C2081 H2060 0.950 . S
C2081 C2080 1.373 . S
C2081 C2097 1.377 . S
C2082 C2080 1.389 . S
C2082 C2083 1.524 . S
C2082 C2096 1.377 1_655 S
C2083 C2082 1.524 . S
C2083 C2084 1.397 . S
C2083 C2088 1.363 1_655 S
C2084 H2061 0.950 . S
C2084 C2083 1.397 . S
C2084 C2085 1.334 . S
C2085 H2062 0.950 . S
C2085 C2084 1.334 . S
C2085 C2086 1.287 . S
C2086 C2085 1.287 . S
C2086 C2087 1.524 1_655 S
C2086 H2105 0.913 . S
C2087 H2063 0.950 . S
C2087 C2086 1.524 1_455 S
C2087 C2088 1.415 . S
C2088 H2064 0.950 . S
C2088 C2083 1.363 1_455 S
C2088 C2087 1.415 . S
C2089 H2065 0.951 . S
C2089 C2090 1.366 . S
C2089 C2091 1.388 . S
C2090 C2089 1.366 . S
C2090 C2094 1.385 . S
C2091 H2066 0.955 . S
C2091 C2089 1.388 . S
C2091 C2092 1.366 . S
C2092 C2091 1.366 . S
C2092 C2093 1.414 . S
C2092 C2095 1.499 . S
C2093 H2067 0.950 . S
C2093 C2092 1.414 . S
C2093 C2094 1.374 . S
C2094 H2068 0.950 . S
C2094 C2090 1.385 . S
C2094 C2093 1.374 . S
C2095 C2092 1.499 . S
C2095 C2096 1.373 . S
C2095 C2097 1.389 1_455 S
C2096 H2069 0.950 . S
C2096 C2082 1.377 1_455 S
C2096 C2095 1.373 . S
C2097 C2081 1.377 . S
C2097 C2095 1.389 1_655 S
C2097 C2098 1.524 . S
C2098 C2097 1.524 . S
C2098 C2099 1.397 1_655 S
C2098 C2103 1.363 . S
C2099 H2070 0.950 . S
C2099 C2098 1.397 1_455 S
C2099 C2100 1.334 . S
C2100 H2071 0.950 . S
C2100 C2099 1.334 . S
C2100 C2101 1.287 1_455 S
C2101 C2100 1.287 1_655 S
C2101 C2102 1.524 . S
C2101 H2104 0.999 . S
C2102 H2072 0.950 . S
C2102 C2101 1.524 . S
C2102 C2103 1.415 . S
C2103 H2073 0.950 . S
C2103 C2098 1.363 . S
C2103 C2102 1.415 . S
H2104 C2101 0.999 . S
H2105 C2086 0.913 . S
C775 C139 1.090 . S
C790 C58 0.967 . S
C825 C223 1.090 . S
C840 C142 0.970 . S
C875 C226 0.967 . S
C890 C55 1.089 . S
C925 C235 1.419 . S
C940 C154 1.222 . S
C975 C238 1.223 . S
C990 C67 1.419 . S
C1025 C70 1.223 . S
C1040 C151 1.419 . S
C1075 C310 0.967 . S
C1090 C391 1.089 . S
C1125 C475 1.089 . S
C1140 C394 0.967 . S
C1175 C478 0.967 . S
C1190 C307 1.089 . S
C1225 C406 1.223 . S
C1240 C487 1.420 . S
C1275 C490 1.223 . S
C1290 C319 1.420 . S
C1325 C403 1.419 . S
C1340 C322 1.223 . S
C1375 C643 1.090 . S
C1390 C562 0.967 . S
C1425 C646 0.969 . S
C1440 C727 1.090 . S
C1475 C730 0.970 . S
C1490 C559 1.091 . S
C1525 C739 1.419 . S
C1540 C658 1.223 . S
C1575 C742 1.221 . S
C1590 C571 1.418 . S
C1625 C574 1.222 . S
C1640 C655 1.419 . S
C1675 C476 2.461 . S
C1690 C68 2.586 . S
C1725 C308 2.460 . S
C1740 C152 2.586 . S
C1775 C236 2.586 . S
C1790 C392 2.461 . S
C1825 C224 2.460 . S
C1840 C572 2.586 . S
C1875 C56 2.460 . S
C1890 C656 2.585 . S
C1925 C740 2.586 . S
C1940 C140 2.461 . S
C1975 C320 2.586 . S
C1990 C728 2.460 . S
C2025 C404 2.585 . S
C2040 C560 2.460 . S
C2075 C644 2.461 . S
C2090 C488 2.586 . S
