# Generated by pormake.
# Topology tfs, (6)-cn, num edge types: 1
# Building blocks:
#     Node 0, Type 0, BuildingBlock: BETDIP_clean_sbu_0, # of connection points: 6
#     Node 1, Type 0, BuildingBlock: BETDIP_clean_sbu_0, # of connection points: 6
#     Node 2, Type 0, BuildingBlock: BETDIP_clean_sbu_0, # of connection points: 6
#     Node 3, Type 0, BuildingBlock: BETDIP_clean_sbu_0, # of connection points: 6
#     Node 4, Type 0, BuildingBlock: BETDIP_clean_sbu_0, # of connection points: 6
#     Node 5, Type 0, BuildingBlock: BETDIP_clean_sbu_0, # of connection points: 6
#     Edge 6, Type (0, 0), BuildingBlock: XUDNAN_clean_linker_2, # of connection points: 2
#     Edge 7, Type (0, 0), BuildingBlock: XUDNAN_clean_linker_2, # of connection points: 2
#     Edge 8, Type (0, 0), BuildingBlock: XUDNAN_clean_linker_2, # of connection points: 2
#     Edge 9, Type (0, 0), BuildingBlock: XUDNAN_clean_linker_2, # of connection points: 2
#     Edge 10, Type (0, 0), BuildingBlock: XUDNAN_clean_linker_2, # of connection points: 2
#     Edge 11, Type (0, 0), BuildingBlock: XUDNAN_clean_linker_2, # of connection points: 2
#     Edge 12, Type (0, 0), BuildingBlock: XUDNAN_clean_linker_2, # of connection points: 2
#     Edge 13, Type (0, 0), BuildingBlock: XUDNAN_clean_linker_2, # of connection points: 2
#     Edge 14, Type (0, 0), BuildingBlock: XUDNAN_clean_linker_2, # of connection points: 2
#     Edge 15, Type (0, 0), BuildingBlock: XUDNAN_clean_linker_2, # of connection points: 2
#     Edge 16, Type (0, 0), BuildingBlock: XUDNAN_clean_linker_2, # of connection points: 2
#     Edge 17, Type (0, 0), BuildingBlock: XUDNAN_clean_linker_2, # of connection points: 2
#     Edge 18, Type (0, 0), BuildingBlock: XUDNAN_clean_linker_2, # of connection points: 2
#     Edge 19, Type (0, 0), BuildingBlock: XUDNAN_clean_linker_2, # of connection points: 2
#     Edge 20, Type (0, 0), BuildingBlock: XUDNAN_clean_linker_2, # of connection points: 2
#     Edge 21, Type (0, 0), BuildingBlock: XUDNAN_clean_linker_2, # of connection points: 2
#     Edge 22, Type (0, 0), BuildingBlock: XUDNAN_clean_linker_2, # of connection points: 2
#     Edge 23, Type (0, 0), BuildingBlock: XUDNAN_clean_linker_2, # of connection points: 2
# Relax obj value: 0.580
# Max RMSD: 0.300
# Mean RMSD: 0.300
data_MOF--net-tfs--node1-BETDIP_clean_sbu_0--edge1-XUDNAN_clean_linker_2
_symmetry_space_group_name_H-M    P1
_symmetry_Int_Tables_number       1
_symmetry_cell_setting            triclinic
loop_
_symmetry_equiv_pos_as_xyz
'x, y, z'
_cell_length_a     55.315677
_cell_length_b     55.187384
_cell_length_c     14.334505
_cell_angle_alpha  90.019046
_cell_angle_beta   89.856768
_cell_angle_gamma 120.09734
loop_
_atom_site_label
_atom_site_type_symbol
_atom_site_fract_x
_atom_site_fract_y
_atom_site_fract_z
_atom_type_partial_charge
Tb0 Tb 0.19522 0.44516 0.99038 0.0
Tb1 Tb 0.20888 0.40018 0.95249 0.0
C2 C 0.19148 0.48517 0.05968 0.0
C3 C 0.20206 0.51479 0.03561 0.0
C4 C 0.20116 0.53296 0.10214 0.0
C5 C 0.20758 0.56007 0.07672 0.0
C6 C 0.21474 0.56933 0.98399 0.0
C7 C 0.21692 0.55147 0.91863 0.0
C8 C 0.21073 0.52449 0.94428 0.0
C9 C 0.19367 0.43383 0.81113 0.0
C10 C 0.25935 0.46015 0.97264 0.0
C11 C 0.21217 0.35884 0.89393 0.0
C12 C 0.22934 0.34542 0.90334 0.0
C13 C 0.23047 0.3297 0.82844 0.0
C14 C 0.24436 0.31455 0.83732 0.0
C15 C 0.25743 0.3147 0.92162 0.0
C16 C 0.25705 0.33125 0.99585 0.0
C17 C 0.24309 0.34646 0.98684 0.0
C18 C 0.20809 0.41287 0.13112 0.0
C19 C 0.14623 0.38581 0.9604 0.0
O20 O 0.20984 0.47834 0.08705 0.0
O21 O 0.17352 0.467 1.00087 0.0
O22 O 0.21088 0.43372 0.86905 0.0
O23 O 0.17956 0.44371 0.85156 0.0
O24 O 0.24119 0.4682 0.99551 0.0
O25 O 0.25136 0.43432 0.94632 0.0
O26 O 0.19757 0.35806 0.96698 0.0
O27 O 0.22343 0.38299 0.85079 0.0
O28 O 0.19187 0.41117 0.06751 0.0
O29 O 0.22505 0.40529 0.09733 0.0
O30 O 0.16477 0.38184 0.91493 0.0
O31 O 0.15461 0.40796 0.01457 0.0
H32 H 0.19448 0.52583 0.17293 0.0
H33 H 0.20552 0.57323 0.12847 0.0
H34 H 0.22271 0.55812 0.84697 0.0
H35 H 0.2117 0.51082 0.89194 0.0
H36 H 0.22007 0.32869 0.76335 0.0
H37 H 0.24472 0.30254 0.77809 0.0
H38 H 0.26679 0.33177 0.06183 0.0
H39 H 0.24249 0.35849 0.04563 0.0
Tb40 Tb 0.74754 0.19428 0.06536 0.0
Tb41 Tb 0.80667 0.20968 0.03037 0.0
C42 C 0.70363 0.19008 0.13308 0.0
C43 C 0.68463 0.20025 0.10628 0.0
C44 C 0.66705 0.20192 0.17335 0.0
C45 C 0.64624 0.20781 0.14633 0.0
C46 C 0.6426 0.21181 0.05167 0.0
C47 C 0.66123 0.21158 0.98533 0.0
C48 C 0.68221 0.20603 1.01249 0.0
C49 C 0.75779 0.1913 0.88749 0.0
C50 C 0.79483 0.259 0.03896 0.0
C51 C 0.8518 0.21394 0.97396 0.0
C52 C 0.88244 0.23185 0.97968 0.0
C53 C 0.89839 0.2188 0.99081 0.0
C54 C 0.9275 0.23439 0.98725 0.0
C55 C 0.94137 0.26348 0.97215 0.0
C56 C 0.92544 0.27683 0.96512 0.0
C57 C 0.89613 0.2611 0.96855 0.0
C58 C 0.79271 0.20995 0.20775 0.0
C59 C 0.75945 0.14611 0.04522 0.0
O60 O 0.72869 0.20892 0.16052 0.0
O61 O 0.70406 0.17178 0.07614 0.0
O62 O 0.77463 0.2095 0.94421 0.0
O63 O 0.73383 0.17669 0.92811 0.0
O64 O 0.76873 0.24024 0.06124 0.0
O65 O 0.81366 0.25176 0.01856 0.0
O66 O 0.83885 0.20054 0.04984 0.0
O67 O 0.83788 0.22342 0.92759 0.0
O68 O 0.77867 0.19297 0.14503 0.0
O69 O 0.81718 0.22729 0.17388 0.0
O70 O 0.78222 0.16458 1.00012 0.0
O71 O 0.74494 0.15449 0.09515 0.0
H72 H 0.66867 0.19755 0.24603 0.0
H73 H 0.63204 0.2077 0.19873 0.0
H74 H 0.659 0.21484 0.91206 0.0
H75 H 0.69578 0.20509 0.95972 0.0
H76 H 0.88828 0.19629 0.99985 0.0
H77 H 0.93918 0.22356 0.99458 0.0
H78 H 0.93555 0.2992 0.95323 0.0
H79 H 0.88424 0.27168 0.96012 0.0
Tb80 Tb 0.55329 0.73896 0.10519 0.0
Tb81 Tb 0.59245 0.80305 0.0734 0.0
C82 C 0.52838 0.68809 0.14942 0.0
C83 C 0.50111 0.66348 0.12922 0.0
C84 C 0.4967 0.63677 0.14966 0.0
C85 C 0.47149 0.61296 0.12607 0.0
C86 C 0.45023 0.61549 0.08142 0.0
C87 C 0.45456 0.64241 0.06253 0.0
C88 C 0.47988 0.66624 0.08597 0.0
C89 C 0.55247 0.75749 0.93461 0.0
C90 C 0.52794 0.77796 0.11962 0.0
C91 C 0.62148 0.85085 1.00225 0.0
C92 C 0.63521 0.88112 0.02512 0.0
C93 C 0.6252 0.89787 0.9868 0.0
C94 C 0.64064 0.92711 0.99529 0.0
C95 C 0.66659 0.94015 0.04102 0.0
C96 C 0.67597 0.92335 0.0828 0.0
C97 C 0.66048 0.89421 0.07511 0.0
C98 C 0.58624 0.78963 0.25597 0.0
C99 C 0.61768 0.76322 0.07542 0.0
O100 O 0.52813 0.7076 0.20093 0.0
O101 O 0.54535 0.69838 0.07785 0.0
O102 O 0.57366 0.76613 0.98646 0.0
O103 O 0.53151 0.73694 0.97682 0.0
O104 O 0.52638 0.75458 0.14997 0.0
O105 O 0.55027 0.7978 0.07509 0.0
O106 O 0.63184 0.8366 0.04149 0.0
O107 O 0.59408 0.83645 0.99663 0.0
O108 O 0.57752 0.77476 0.18462 0.0
O109 O 0.60079 0.81503 0.22472 0.0
O110 O 0.61958 0.78618 0.0395 0.0
O111 O 0.59487 0.74426 0.11868 0.0
H112 H 0.51291 0.6343 0.18296 0.0
H113 H 0.46864 0.59255 0.14282 0.0
H114 H 0.43869 0.64502 0.02752 0.0
H115 H 0.48306 0.68679 0.06916 0.0
H116 H 0.60599 0.88844 0.94696 0.0
H117 H 0.63299 0.93957 0.96193 0.0
H118 H 0.69574 0.93282 0.11938 0.0
H119 H 0.66898 0.88209 0.10532 0.0
Tb120 Tb 0.81122 0.56099 0.03038 0.0
Tb121 Tb 0.79355 0.603 0.99118 0.0
C122 C 0.82144 0.52622 0.10842 0.0
C123 C 0.81792 0.49812 0.09825 0.0
C124 C 0.79576 0.4766 0.04809 0.0
C125 C 0.79487 0.45096 0.03408 0.0
C126 C 0.81632 0.44683 0.0689 0.0
C127 C 0.83795 0.46827 0.12097 0.0
C128 C 0.83869 0.49359 0.13553 0.0
C129 C 0.81244 0.57186 0.85048 0.0
C130 C 0.74598 0.54073 1.007 0.0
C131 C 0.78705 0.64235 0.93201 0.0
C132 C 0.76929 0.65492 0.9448 0.0
C133 C 0.76872 0.6721 0.87402 0.0
C134 C 0.75443 0.68672 0.88707 0.0
C135 C 0.74042 0.68449 0.97146 0.0
C136 C 0.74018 0.66641 0.04127 0.0
C137 C 0.75458 0.65177 0.02812 0.0
C138 C 0.79502 0.59094 0.17032 0.0
C139 C 0.85716 0.62204 0.99819 0.0
O140 O 0.79946 0.5284 0.12794 0.0
O141 O 0.83778 0.54463 0.04682 0.0
O142 O 0.79467 0.5709 0.9084 0.0
O143 O 0.82734 0.56294 0.89115 0.0
O144 O 0.76524 0.53439 0.03253 0.0
O145 O 0.75252 0.56635 0.98189 0.0
O146 O 0.80325 0.64471 1.00185 0.0
O147 O 0.7757 0.61765 0.89272 0.0
O148 O 0.81168 0.5938 0.10645 0.0
O149 O 0.77698 0.597 0.13644 0.0
O150 O 0.83782 0.6243 0.95168 0.0
O151 O 0.84987 0.60036 0.05366 0.0
H152 H 0.7796 0.47981 0.01831 0.0
H153 H 0.77799 0.43477 0.99355 0.0
H154 H 0.85452 0.46554 0.14983 0.0
H155 H 0.85593 0.50997 0.17441 0.0
H156 H 0.7799 0.67473 0.80919 0.0
H157 H 0.75457 0.7 0.83121 0.0
H158 H 0.72967 0.66431 0.10715 0.0
H159 H 0.75482 0.6386 0.08369 0.0
Tb160 Tb 0.26075 0.81772 0.95923 0.0
Tb161 Tb 0.19849 0.78929 0.93617 0.0
C162 C 0.31113 0.83645 1.00128 0.0
C163 C 0.3302 0.8276 0.03844 0.0
C164 C 0.35811 0.84802 0.05404 0.0
C165 C 0.37768 0.84025 0.07896 0.0
C166 C 0.36965 0.81184 0.08869 0.0
C167 C 0.34137 0.7914 0.07567 0.0
C168 C 0.32179 0.79922 0.05051 0.0
C169 C 0.2432 0.82114 0.7885 0.0
C170 C 0.22844 0.75313 0.92436 0.0
C171 C 0.148 0.75918 0.89127 0.0
C172 C 0.11883 0.75122 0.91265 0.0
C173 C 0.09883 0.72262 0.91416 0.0
C174 C 0.07065 0.71366 0.92908 0.0
C175 C 0.06167 0.73313 0.94302 0.0
C176 C 0.08183 0.76192 0.94269 0.0
C177 C 0.11022 0.77091 0.92768 0.0
C178 C 0.21655 0.80076 0.11037 0.0
C179 C 0.23224 0.85408 0.96251 0.0
O180 O 0.29276 0.83669 0.05889 0.0
O181 O 0.30061 0.82649 0.91899 0.0
O182 O 0.23259 0.80053 0.84296 0.0
O183 O 0.26534 0.84046 0.82902 0.0
O184 O 0.25116 0.77425 0.96052 0.0
O185 O 0.20704 0.7559 0.89817 0.0
O186 O 0.1647 0.78375 0.85345 0.0
O187 O 0.1606 0.75189 0.95285 0.0
O188 O 0.22591 0.79236 0.04607 0.0
O189 O 0.19484 0.80128 0.07991 0.0
O190 O 0.21076 0.83345 0.91799 0.0
O191 O 0.25178 0.85028 1.00133 0.0
H192 H 0.36496 0.87002 0.04468 0.0
H193 H 0.39916 0.85651 0.08993 0.0
H194 H 0.33455 0.76932 0.08191 0.0
H195 H 0.30033 0.78315 0.03809 0.0
H196 H 0.10498 0.70707 0.90202 0.0
H197 H 0.05579 0.6914 0.92689 0.0
H198 H 0.07568 0.77748 0.95394 0.0
H199 H 0.12528 0.79313 0.927 0.0
Tb200 Tb 0.44203 0.25774 0.03084 0.0
Tb201 Tb 0.40509 0.19502 0.99999 0.0
C202 C 0.47426 0.30568 0.09763 0.0
C203 C 0.50253 0.32988 0.08307 0.0
C204 C 0.52523 0.32693 0.05399 0.0
C205 C 0.55151 0.35075 0.03812 0.0
C206 C 0.55533 0.37778 0.05018 0.0
C207 C 0.53262 0.38042 0.08114 0.0
C208 C 0.50657 0.35676 0.09736 0.0
C209 C 0.42905 0.24233 0.85359 0.0
C210 C 0.47213 0.22308 0.99914 0.0
C211 C 0.3828 0.1448 0.94745 0.0
C212 C 0.36001 0.1155 0.96044 0.0
C213 C 0.33164 0.10694 0.94785 0.0
C214 C 0.31123 0.07837 0.9522 0.0
C215 C 0.31884 0.05787 0.96883 0.0
C216 C 0.34728 0.06679 0.98248 0.0
C217 C 0.36748 0.09514 0.97845 0.0
C218 C 0.40473 0.21176 0.17449 0.0
C219 C 0.37831 0.23281 1.00629 0.0
O220 O 0.47219 0.28261 0.13044 0.0
O221 O 0.45619 0.30084 0.03153 0.0
O222 O 0.43329 0.22948 0.91752 0.0
O223 O 0.43547 0.2668 0.88525 0.0
O224 O 0.47552 0.24823 0.01422 0.0
O225 O 0.44714 0.20053 0.98813 0.0
O226 O 0.37744 0.16319 0.90883 0.0
O227 O 0.40123 0.15556 0.01452 0.0
O228 O 0.42506 0.22128 0.11859 0.0
O229 O 0.38427 0.19031 0.1342 0.0
O230 O 0.37763 0.21127 0.96274 0.0
O231 O 0.40007 0.25019 0.05744 0.0
H232 H 0.52258 0.30634 0.04244 0.0
H233 H 0.56859 0.34806 0.01399 0.0
H234 H 0.53495 0.40089 0.09261 0.0
H235 H 0.4894 0.35949 0.12027 0.0
H236 H 0.32527 0.12218 0.93327 0.0
H237 H 0.28954 0.07233 0.94201 0.0
H238 H 0.35419 0.0518 0.99313 0.0
H239 H 0.38925 0.10112 0.98688 0.0
H240 H 0.37672 0.27972 0.06048 0.0
H241 H 0.3277 0.19963 0.92153 0.0
H242 H 0.29055 0.21103 0.89148 0.0
H243 H 0.31831 0.28277 0.16799 0.0
H244 H 0.33401 0.31997 0.14959 0.0
H245 H 0.35581 0.30465 0.16586 0.0
H246 H 0.38093 0.32627 1.00935 0.0
H247 H 0.35918 0.34157 0.9924 0.0
H248 H 0.36061 0.31902 0.90425 0.0
H249 H 0.25971 0.23207 0.87035 0.0
H250 H 0.23746 0.26108 0.85898 0.0
H251 H 0.30715 0.32805 1.00827 0.0
C252 C 0.358 0.26434 0.02496 0.0
C253 C 0.35509 0.23866 0.99385 0.0
C254 C 0.33041 0.21938 0.94633 0.0
C255 C 0.30917 0.22567 0.92901 0.0
C256 C 0.31291 0.25133 0.95954 0.0
C257 C 0.33669 0.27034 1.00665 0.0
C258 C 0.33613 0.29697 0.02832 0.0
C259 C 0.33605 0.30133 0.13424 0.0
C260 C 0.36067 0.32246 0.98072 0.0
C261 C 0.30844 0.2901 0.9851 0.0
C262 C 0.29532 0.26361 0.94628 0.0
C263 C 0.26979 0.25283 0.90057 0.0
C264 C 0.25742 0.26959 0.89385 0.0
C265 C 0.27059 0.29697 0.93216 0.0
C266 C 0.29637 0.30715 0.97907 0.0
H267 H 0.10075 0.38603 0.04093 0.0
H268 H 0.1235 0.33799 0.85698 0.0
H269 H 0.07391 0.3026 0.839 0.0
H270 H 0.04419 0.32688 0.15739 0.0
H271 H 0.02216 0.34224 0.16469 0.0
H272 H 0.05959 0.36441 0.16286 0.0
H273 H 0.05578 0.39107 0.02018 0.0
H274 H 0.01832 0.36895 0.02148 0.0
H275 H 0.0378 0.3718 0.91705 0.0
H276 H 0.02258 0.27204 0.84145 0.0
H277 H 0.97161 0.24769 0.86426 0.0
H278 H 0.98068 0.31465 0.04622 0.0
C279 C 0.09527 0.36809 0.99677 0.0
C280 C 0.11613 0.36486 0.95042 0.0
C281 C 0.10804 0.34104 0.8933 0.0
C282 C 0.07986 0.32076 0.88248 0.0
C283 C 0.05989 0.32452 0.92898 0.0
C284 C 0.06709 0.34754 0.98493 0.0
C285 C 0.04122 0.34616 0.02735 0.0
C286 C 0.04183 0.34484 0.13443 0.0
C287 C 0.0381 0.37097 0.99453 0.0
C288 C 0.01848 0.31872 0.98671 0.0
C289 C 0.02986 0.30669 0.9302 0.0
C290 C 0.01338 0.2812 0.88562 0.0
C291 C 0.98445 0.26745 0.89947 0.0
C292 C 0.97215 0.27913 0.95757 0.0
C293 C 0.98946 0.30529 1.00104 0.0
H294 H 0.70781 0.10121 0.08742 0.0
H295 H 0.79078 0.12289 0.99142 0.0
H296 H 0.77609 0.07268 0.98283 0.0
H297 H 0.69469 0.0415 0.22801 0.0
H298 H 0.65837 0.02116 0.19607 0.0
H299 H 0.67555 0.05884 0.19734 0.0
H300 H 0.66127 0.05869 0.02527 0.0
H301 H 0.64405 0.02102 0.02341 0.0
H302 H 0.67066 0.04126 0.93822 0.0
H303 H 0.75282 0.02044 0.98656 0.0
H304 H 0.7217 0.9692 0.99406 0.0
H305 H 0.65306 0.98085 0.08152 0.0
C306 C 0.72293 0.09538 0.06511 0.0
C307 C 0.75051 0.11597 0.04057 0.0
C308 C 0.76955 0.1075 1.0105 0.0
C309 C 0.76142 0.07903 1.00562 0.0
C310 C 0.7341 0.05927 0.03015 0.0
C311 C 0.71505 0.06701 0.05862 0.0
C312 C 0.68671 0.04149 0.0782 0.0
C313 C 0.67835 0.04071 0.18102 0.0
C314 C 0.66436 0.04057 1.01233 0.0
C315 C 0.69284 0.01821 0.05651 0.0
C316 C 0.72039 0.029 0.02968 0.0
C317 C 0.73121 0.01174 1.00738 0.0
C318 C 0.71342 0.98268 1.01232 0.0
C319 C 0.68502 0.97107 0.03868 0.0
C320 C 0.67464 0.98915 0.06072 0.0
H321 H 0.68926 0.66851 0.05224 0.0
H322 H 0.76128 0.73957 0.92568 0.0
H323 H 0.73866 0.76804 0.94498 0.0
H324 H 0.63785 0.68017 0.94869 0.0
H325 H 0.61542 0.66978 0.04985 0.0
H326 H 0.6378 0.6553 0.03031 0.0
H327 H 0.6598 0.67231 0.19374 0.0
H328 H 0.63744 0.68683 0.21378 0.0
H329 H 0.67479 0.70876 0.22395 0.0
H330 H 0.70746 0.78826 0.97145 0.0
H331 H 0.66972 0.79869 1.00313 0.0
H332 H 0.61829 0.7148 0.11503 0.0
C333 C 0.70043 0.69017 0.0298 0.0
C334 C 0.727 0.70174 0.98696 0.0
C335 C 0.74074 0.73009 0.95737 0.0
C336 C 0.72815 0.74651 0.96866 0.0
C337 C 0.70185 0.73439 1.01012 0.0
C338 C 0.68815 0.70689 0.04049 0.0
C339 C 0.65961 0.69871 0.08001 0.0
C340 C 0.6363 0.67457 0.02384 0.0
C341 C 0.65782 0.69122 0.18406 0.0
C342 C 0.6593 0.72578 0.06597 0.0
C343 C 0.68392 0.74613 0.02597 0.0
C344 C 0.68816 0.77256 1.00346 0.0
C345 C 0.66657 0.77827 0.02164 0.0
C346 C 0.64104 0.75765 0.06194 0.0
C347 C 0.63761 0.73116 0.08504 0.0
H348 H 0.02218 0.68707 0.04017 0.0
H349 H 0.03201 0.75599 0.86707 0.0
H350 H 0.98093 0.73668 0.8709 0.0
H351 H 0.96182 0.63474 0.92983 0.0
H352 H 0.94564 0.61533 0.03488 0.0
H353 H 0.98311 0.63609 0.02697 0.0
H354 H 0.98426 0.66309 0.1764 0.0
H355 H 0.94676 0.64229 0.18505 0.0
H356 H 0.96358 0.67996 0.18184 0.0
H357 H 0.92837 0.70752 0.8819 0.0
H358 H 0.87871 0.67182 0.90381 0.0
H359 H 0.90319 0.62159 0.06814 0.0
C360 C 0.01367 0.69826 1.00355 0.0
C361 C 0.03124 0.72314 0.95335 0.0
C362 C 0.01914 0.73718 0.9072 0.0
C363 C 0.99009 0.72626 0.90849 0.0
C364 C 0.97338 0.70135 0.95668 0.0
C365 C 0.98476 0.68764 1.004 0.0
C366 C 0.96217 0.66054 0.0469 0.0
C367 C 0.96326 0.63519 1.00725 0.0
C368 C 0.96432 0.66155 0.1539 0.0
C369 C 0.93625 0.66081 0.01469 0.0
C370 C 0.94316 0.6846 0.96316 0.0
C371 C 0.92274 0.68897 0.92294 0.0
C372 C 0.89456 0.6685 0.93559 0.0
C373 C 0.88698 0.64391 0.98799 0.0
C374 C 0.90823 0.64023 0.0284 0.0
H375 H 0.26781 0.89798 0.07271 0.0
H376 H 0.20675 0.87553 0.85187 0.0
H377 H 0.2187 0.92511 0.84007 0.0
H378 H 0.25733 0.95327 0.18019 0.0
H379 H 0.29399 0.97469 0.20624 0.0
H380 H 0.27799 0.93709 0.20442 0.0
H381 H 0.31481 0.9412 0.08369 0.0
H382 H 0.33079 0.97871 0.08454 0.0
H383 H 0.31902 0.95984 0.97609 0.0
H384 H 0.24191 0.97846 0.84004 0.0
H385 H 0.27309 0.02965 0.85379 0.0
H386 H 0.31741 0.01631 0.07918 0.0
C387 C 0.25649 0.90331 0.02303 0.0
C388 C 0.23628 0.8828 0.96327 0.0
C389 C 0.22212 0.89079 0.899 0.0
C390 C 0.22882 0.91893 0.89171 0.0
C391 C 0.24944 0.93876 0.95012 0.0
C392 C 0.26278 0.93115 0.01538 0.0
C393 C 0.28531 0.95646 0.06618 0.0
C394 C 0.27822 0.95531 0.17044 0.0
C395 C 0.31418 0.9592 0.05169 0.0
C396 C 0.28337 0.9797 0.01707 0.0
C397 C 0.2624 0.96915 0.95096 0.0
C398 C 0.25803 0.98687 0.89284 0.0
C399 C 0.2758 0.016 0.90154 0.0
C400 C 0.29781 0.02724 0.96765 0.0
C401 C 0.30101 0.00861 0.02734 0.0
H402 H 0.25222 0.72935 0.03188 0.0
H403 H 0.19969 0.71461 0.78984 0.0
H404 H 0.19381 0.66745 0.77231 0.0
H405 H 0.2856 0.68952 0.95266 0.0
H406 H 0.2847 0.67559 0.06714 0.0
H407 H 0.28738 0.70936 0.05495 0.0
H408 H 0.24337 0.6926 0.15848 0.0
H409 H 0.24049 0.65879 0.17072 0.0
H410 H 0.2114 0.6614 0.12656 0.0
H411 H 0.19188 0.6215 0.78413 0.0
H412 H 0.19129 0.5782 0.83049 0.0
H413 H 0.24304 0.6211 0.07005 0.0
C414 C 0.23994 0.71634 0.97423 0.0
C415 C 0.22662 0.72568 0.91154 0.0
C416 C 0.21011 0.70786 0.83841 0.0
C417 C 0.20675 0.6811 0.82768 0.0
C418 C 0.21979 0.67231 0.89127 0.0
C419 C 0.2359 0.68927 0.96356 0.0
C420 C 0.24571 0.67378 0.0265 0.0
C421 C 0.27775 0.68791 0.02521 0.0
C422 C 0.23457 0.67151 0.12647 0.0
C423 C 0.23223 0.64538 0.97897 0.0
C424 C 0.2178 0.64523 0.90021 0.0
C425 C 0.20326 0.6214 0.84528 0.0
C426 C 0.20317 0.59693 0.87194 0.0
C427 C 0.21725 0.59628 0.95351 0.0
C428 C 0.23209 0.62096 1.00734 0.0
H429 H 0.52287 0.25237 0.08657 0.0
H430 H 0.47691 0.18645 0.88471 0.0
H431 H 0.5175 0.17967 0.86645 0.0
H432 H 0.59273 0.2805 0.9816 0.0
H433 H 0.60981 0.28628 0.09299 0.0
H434 H 0.57838 0.28828 0.08268 0.0
H435 H 0.55512 0.25102 0.2131 0.0
H436 H 0.58642 0.24889 0.22372 0.0
H437 H 0.55346 0.2177 0.20091 0.0
H438 H 0.56188 0.17873 0.87355 0.0
H439 H 0.60598 0.18061 0.91597 0.0
H440 H 0.62256 0.245 0.12076 0.0
C441 C 0.52162 0.23686 0.03748 0.0
C442 C 0.49694 0.22007 0.9864 0.0
C443 C 0.49569 0.19951 0.92441 0.0
C444 C 0.51866 0.19563 0.91316 0.0
C445 C 0.54261 0.21227 0.96521 0.0
C446 C 0.54421 0.23229 0.02685 0.0
C447 C 0.57153 0.24559 0.0802 0.0
C448 C 0.58916 0.27703 0.05802 0.0
C449 C 0.56631 0.24048 0.18572 0.0
C450 C 0.58476 0.22954 0.04002 0.0
C451 C 0.56793 0.21086 0.9724 0.0
C452 C 0.57534 0.19337 0.92597 0.0
C453 C 0.60046 0.19468 0.95021 0.0
C454 C 0.61768 0.21304 0.02118 0.0
C455 C 0.60977 0.23082 0.06614 0.0
H456 H 0.39629 0.6052 0.09877 0.0
H457 H 0.44482 0.56825 0.99984 0.0
H458 H 0.40132 0.52518 0.95711 0.0
H459 H 0.34083 0.54329 0.19901 0.0
H460 H 0.31372 0.5505 0.16492 0.0
H461 H 0.34868 0.57897 0.18441 0.0
H462 H 0.34969 0.59787 0.0181 0.0
H463 H 0.31468 0.56947 0.99822 0.0
H464 H 0.3424 0.57509 0.9191 0.0
H465 H 0.3529 0.48574 0.92979 0.0
H466 H 0.30242 0.45219 0.91957 0.0
H467 H 0.28498 0.51472 0.03463 0.0
C468 C 0.39776 0.58818 0.06701 0.0
C469 C 0.42396 0.59004 0.05302 0.0
C470 C 0.42498 0.56714 1.01246 0.0
C471 C 0.40041 0.54267 0.98735 0.0
C472 C 0.37495 0.54142 1.00293 0.0
C473 C 0.3734 0.56354 0.04159 0.0
C474 C 0.34329 0.55641 0.05319 0.0
C475 C 0.33622 0.55734 0.15652 0.0
C476 C 0.33716 0.57587 0.99358 0.0
C477 C 0.3282 0.52673 0.01592 0.0
C478 C 0.34689 0.51858 0.98694 0.0
C479 C 0.33803 0.49191 0.9518 0.0
C480 C 0.30927 0.47298 0.94643 0.0
C481 C 0.28965 0.48076 0.97616 0.0
C482 C 0.29937 0.50811 1.01087 0.0
H483 H 0.77399 0.39203 0.0887 0.0
H484 H 0.86079 0.44318 1.00549 0.0
H485 H 0.86418 0.40064 0.98399 0.0
H486 H 0.78272 0.34265 0.21991 0.0
H487 H 0.75004 0.31268 0.18568 0.0
H488 H 0.75356 0.34693 0.1881 0.0
H489 H 0.73836 0.34162 0.01498 0.0
H490 H 0.7346 0.30725 1.01232 0.0
H491 H 0.75689 0.33338 0.92863 0.0
H492 H 0.85917 0.35318 0.97957 0.0
H493 H 0.84572 0.30339 0.98929 0.0
H494 H 0.7621 0.2825 0.07586 0.0
C495 C 0.79352 0.39416 0.06437 0.0
C496 C 0.81716 0.42088 0.04894 0.0
C497 C 0.84251 0.42291 0.01851 0.0
C498 C 0.84461 0.39888 1.00574 0.0
C499 C 0.82116 0.3729 0.0235 0.0
C500 C 0.79604 0.3703 0.05169 0.0
C501 C 0.7744 0.33987 0.06959 0.0
C502 C 0.76462 0.33528 0.1719 0.0
C503 C 0.7496 0.32995 1.00235 0.0
C504 C 0.79144 0.32592 0.04817 0.0
C505 C 0.8183 0.34537 0.02129 0.0
C506 C 0.83813 0.3377 0.99994 0.0
C507 C 0.83029 0.30933 1.00593 0.0
C508 C 0.80284 0.28893 0.03327 0.0
C509 C 0.78322 0.29749 0.05449 0.0
H510 H 0.42242 0.83386 0.01454 0.0
H511 H 0.36488 0.77119 0.20979 0.0
H512 H 0.39998 0.75718 0.24301 0.0
H513 H 0.4505 0.79339 0.92106 0.0
H514 H 0.48559 0.82255 0.90978 0.0
H515 H 0.45632 0.82827 0.90355 0.0
H516 H 0.47731 0.86446 0.03762 0.0
H517 H 0.50664 0.85882 0.04435 0.0
H518 H 0.48583 0.85434 0.14678 0.0
H519 H 0.44065 0.74935 0.25256 0.0
H520 H 0.48375 0.74712 0.23548 0.0
H521 H 0.51546 0.81531 0.03478 0.0
C522 C 0.41733 0.81745 0.0653 0.0
C523 C 0.3909 0.80367 0.1099 0.0
C524 C 0.38486 0.78188 0.17426 0.0
C525 C 0.40473 0.77391 0.19402 0.0
C526 C 0.43054 0.78794 0.14885 0.0
C527 C 0.43689 0.80922 0.08574 0.0
C528 C 0.46588 0.82032 0.04473 0.0
C529 C 0.46447 0.81585 0.93849 0.0
C530 C 0.48504 0.85133 0.06991 0.0
C531 C 0.47478 0.80182 0.09429 0.0
C532 C 0.45409 0.78339 0.15425 0.0
C533 C 0.45704 0.76373 0.20607 0.0
C534 C 0.48163 0.76262 0.19562 0.0
C535 C 0.50306 0.78104 0.13369 0.0
C536 C 0.49962 0.80111 0.08324 0.0
H537 H 0.72072 0.48621 0.07431 0.0
H538 H 0.70349 0.54462 0.92636 0.0
H539 H 0.65399 0.50852 0.91528 0.0
H540 H 0.67138 0.42366 0.94563 0.0
H541 H 0.66073 0.40119 0.04672 0.0
H542 H 0.69546 0.43119 0.04054 0.0
H543 H 0.68728 0.44945 0.19709 0.0
H544 H 0.65259 0.41948 0.20391 0.0
H545 H 0.65754 0.45431 0.20939 0.0
H546 H 0.60648 0.46729 0.92192 0.0
H547 H 0.56271 0.42311 0.95146 0.0
H548 H 0.609 0.39044 0.09749 0.0
C549 C 0.70655 0.49133 0.03915 0.0
C550 C 0.71616 0.51838 1.00122 0.0
C551 C 0.69681 0.52421 0.95638 0.0
C552 C 0.66857 0.50377 0.94928 0.0
C553 C 0.65978 0.47747 0.98744 0.0
C554 C 0.67805 0.4711 0.03182 0.0
C555 C 0.66263 0.44133 0.06954 0.0
C556 C 0.67318 0.42328 0.0228 0.0
C557 C 0.66516 0.44114 0.17632 0.0
C558 C 0.63288 0.43219 0.04004 0.0
C559 C 0.6319 0.45341 0.99222 0.0
C560 C 0.60693 0.45049 0.95935 0.0
C561 C 0.58215 0.42536 0.97693 0.0
C562 C 0.58235 0.40339 0.0274 0.0
C563 C 0.6082 0.40676 0.05812 0.0
H564 H 0.22809 0.42295 0.69326 0.0
H565 H 0.15712 0.43644 0.69584 0.0
H566 H 0.15465 0.43339 0.52588 0.0
H567 H 0.26002 0.4624 0.48159 0.0
H568 H 0.27051 0.43855 0.43654 0.0
H569 H 0.26746 0.44159 0.56067 0.0
H570 H 0.23307 0.38823 0.57208 0.0
H571 H 0.23616 0.38501 0.44807 0.0
H572 H 0.20223 0.37247 0.50015 0.0
H573 H 0.15965 0.43087 0.35915 0.0
H574 H 0.16992 0.42514 0.19709 0.0
H575 H 0.23677 0.41129 0.28978 0.0
C576 C 0.21204 0.42512 0.65765 0.0
C577 C 0.19295 0.43021 0.70832 0.0
C578 C 0.17216 0.43281 0.65917 0.0
C579 C 0.17052 0.43111 0.5622 0.0
C580 C 0.18968 0.42656 0.51413 0.0
C581 C 0.20992 0.42329 0.55924 0.0
C582 C 0.22743 0.41816 0.48804 0.0
C583 C 0.25818 0.44157 0.49197 0.0
C584 C 0.22455 0.38924 0.50299 0.0
C585 C 0.21377 0.41921 0.39684 0.0
C586 C 0.19217 0.42429 0.41474 0.0
C587 C 0.17637 0.42667 0.34391 0.0
C588 C 0.18242 0.42339 0.25181 0.0
C589 C 0.204 0.41757 0.23042 0.0
C590 C 0.22009 0.41566 0.30406 0.0
H591 H 0.80256 0.22712 0.77055 0.0
H592 H 0.71883 0.15451 0.77127 0.0
H593 H 0.71921 0.15328 0.60091 0.0
H594 H 0.79416 0.25989 0.56345 0.0
H595 H 0.82859 0.27143 0.5172 0.0
H596 H 0.82263 0.26744 0.64137 0.0
H597 H 0.84246 0.23381 0.64755 0.0
H598 H 0.84868 0.23787 0.52352 0.0
H599 H 0.82778 0.20341 0.57309 0.0
H600 H 0.7264 0.15984 0.43444 0.0
H601 H 0.74229 0.17125 0.2727 0.0
H602 H 0.82274 0.23857 0.36719 0.0
C603 C 0.78447 0.21096 0.73443 0.0
C604 C 0.76052 0.19106 0.78459 0.0
C605 C 0.7373 0.17015 0.7349 0.0
C606 C 0.73724 0.16924 0.63776 0.0
C607 C 0.76071 0.18923 0.59024 0.0
C608 C 0.78411 0.20953 0.63595 0.0
C609 C 0.80658 0.2279 0.5653 0.0
C610 C 0.81339 0.25848 0.57227 0.0
C611 C 0.83294 0.2256 0.57814 0.0
C612 C 0.79191 0.21463 0.47365 0.0
C613 C 0.76536 0.19253 0.49093 0.0
C614 C 0.74723 0.17694 0.41967 0.0
C615 C 0.75651 0.18365 0.32774 0.0
C616 C 0.78383 0.20564 0.30694 0.0
C617 C 0.80176 0.22161 0.38101 0.0
H618 H 0.59555 0.79576 0.81884 0.0
H619 H 0.51021 0.7261 0.81634 0.0
H620 H 0.51027 0.72688 0.64521 0.0
H621 H 0.5861 0.83219 0.61846 0.0
H622 H 0.62069 0.84439 0.57261 0.0
H623 H 0.61432 0.83881 0.69626 0.0
H624 H 0.63455 0.80549 0.69503 0.0
H625 H 0.64077 0.81078 0.57128 0.0
H626 H 0.61993 0.77583 0.61725 0.0
H627 H 0.51988 0.7322 0.47588 0.0
H628 H 0.5368 0.7459 0.31517 0.0
H629 H 0.61474 0.81447 0.41864 0.0
C630 C 0.57686 0.78089 0.78199 0.0
C631 C 0.55294 0.76069 0.83142 0.0
C632 C 0.52884 0.74169 0.78059 0.0
C633 C 0.52865 0.74188 0.68302 0.0
C634 C 0.55256 0.76155 0.63628 0.0
C635 C 0.57609 0.7811 0.68349 0.0
C636 C 0.59863 0.80029 0.61456 0.0
C637 C 0.60532 0.83073 0.62617 0.0
C638 C 0.62503 0.79795 0.62519 0.0
C639 C 0.58413 0.78807 0.52189 0.0
C640 C 0.55768 0.76554 0.53677 0.0
C641 C 0.54048 0.74996 0.46322 0.0
C642 C 0.55038 0.75773 0.3718 0.0
C643 C 0.57707 0.78109 0.35391 0.0
C644 C 0.59415 0.79655 0.43023 0.0
H645 H 0.77637 0.58045 0.73397 0.0
H646 H 0.84962 0.57073 0.73321 0.0
H647 H 0.85157 0.57363 0.56292 0.0
H648 H 0.74506 0.54011 0.5234 0.0
H649 H 0.73299 0.56277 0.47924 0.0
H650 H 0.73659 0.56005 0.60317 0.0
H651 H 0.76912 0.61375 0.61343 0.0
H652 H 0.76549 0.61665 0.48963 0.0
H653 H 0.79974 0.63062 0.54012 0.0
H654 H 0.84605 0.57602 0.39608 0.0
H655 H 0.83495 0.58114 0.23472 0.0
H656 H 0.7658 0.59096 0.33086 0.0
C657 C 0.7928 0.57905 0.69757 0.0
C658 C 0.81274 0.57511 0.74741 0.0
C659 C 0.83397 0.57349 0.6972 0.0
C660 C 0.83531 0.57511 0.60006 0.0
C661 C 0.81536 0.57857 0.55285 0.0
C662 C 0.7946 0.5808 0.59902 0.0
C663 C 0.77622 0.58485 0.52871 0.0
C664 C 0.74591 0.56049 0.53397 0.0
C665 C 0.77774 0.61316 0.54389 0.0
C666 C 0.79002 0.58446 0.43671 0.0
C667 C 0.81245 0.58063 0.4535 0.0
C668 C 0.82864 0.57919 0.38178 0.0
C669 C 0.8221 0.58211 0.29001 0.0
C670 C 0.7996 0.58658 0.26964 0.0
C671 C 0.78314 0.58758 0.34421 0.0
H672 H 0.19859 0.81972 0.25695 0.0
H673 H 0.25441 0.78863 0.18541 0.0
H674 H 0.26764 0.79124 0.35112 0.0
H675 H 0.24366 0.86868 0.43668 0.0
H676 H 0.21478 0.86271 0.51067 0.0
H677 H 0.21026 0.85916 0.38599 0.0
H678 H 0.16877 0.80866 0.40759 0.0
H679 H 0.17324 0.81199 0.53221 0.0
H680 H 0.17386 0.78357 0.47235 0.0
H681 H 0.27311 0.79495 0.52426 0.0
H682 H 0.27228 0.80183 0.69464 0.0
H683 H 0.21386 0.83155 0.65566 0.0
C684 C 0.21371 0.81363 0.27636 0.0
C685 C 0.22543 0.80386 0.20875 0.0
C686 C 0.24521 0.79617 0.23629 0.0
C687 C 0.25283 0.79756 0.33017 0.0
C688 C 0.24066 0.80694 0.39543 0.0
C689 C 0.22174 0.81513 0.36986 0.0
C690 C 0.21182 0.82443 0.45416 0.0
C691 C 0.22066 0.85559 0.4464 0.0
C692 C 0.18003 0.80606 0.46733 0.0
C693 C 0.22761 0.81957 0.53135 0.0
C694 C 0.2442 0.80956 0.49563 0.0
C695 C 0.26041 0.80299 0.55296 0.0
C696 C 0.25979 0.8069 0.64931 0.0
C697 C 0.24312 0.81726 0.68714 0.0
C698 C 0.22682 0.82368 0.62772 0.0
H699 H 0.43112 0.2728 0.69727 0.0
H700 H 0.41727 0.19168 0.78639 0.0
H701 H 0.40933 0.17547 0.62336 0.0
H702 H 0.38069 0.24842 0.50941 0.0
H703 H 0.40238 0.27685 0.43169 0.0
H704 H 0.40598 0.28206 0.5561 0.0
H705 H 0.45871 0.29856 0.54283 0.0
H706 H 0.45526 0.29333 0.4184 0.0
H707 H 0.46949 0.27617 0.48743 0.0
H708 H 0.4017 0.16734 0.45307 0.0
H709 H 0.39733 0.16849 0.28203 0.0
H710 H 0.41952 0.25572 0.29666 0.0
C711 C 0.42625 0.2516 0.6822 0.0
C712 C 0.42424 0.23326 0.75478 0.0
C713 C 0.41832 0.20585 0.7323 0.0
C714 C 0.41393 0.1965 0.63975 0.0
C715 C 0.41599 0.21496 0.56984 0.0
C716 C 0.42226 0.24202 0.5894 0.0
C717 C 0.4241 0.25772 0.49999 0.0
C718 C 0.40196 0.26679 0.49928 0.0
C719 C 0.45365 0.28294 0.48639 0.0
C720 C 0.41767 0.23516 0.42754 0.0
C721 C 0.41286 0.21063 0.46996 0.0
C722 C 0.40562 0.18646 0.41895 0.0
C723 C 0.40314 0.1873 0.32198 0.0
C724 C 0.40823 0.21219 0.27664 0.0
C725 C 0.41579 0.23653 0.32992 0.0
loop_
_geom_bond_atom_site_label_1
_geom_bond_atom_site_label_2
_geom_bond_distance
_geom_bond_site_symmetry_2
_ccdc_geom_bond_type
Tb0 C2 2.809 1_556 S
Tb0 O20 2.484 1_556 S
Tb0 O21 2.440 . S
Tb0 O22 2.658 . S
Tb0 O23 2.409 . S
Tb0 O24 2.378 . S
Tb0 O28 2.325 1_556 S
Tb0 O31 2.341 . S
Tb1 C11 2.809 1_554 S
Tb1 O22 2.325 1_554 S
Tb1 O25 2.341 . S
Tb1 O26 2.484 1_554 S
Tb1 O27 2.440 . S
Tb1 O28 2.658 . S
Tb1 O29 2.409 . S
Tb1 O30 2.378 . S
C2 Tb0 2.809 1_554 S
C2 C3 1.514 . S
C2 O20 1.248 . S
C2 O21 1.266 1_554 S
C3 C2 1.514 . S
C3 C4 1.359 . S
C3 C8 1.348 1_554 S
C4 C3 1.359 . S
C4 C5 1.380 . S
C4 H32 0.929 . S
C5 C4 1.380 . S
C5 C6 1.347 . S
C5 H33 0.931 . S
C6 C5 1.347 . S
C6 C7 1.369 1_554 S
C7 C6 1.369 1_556 S
C7 C8 1.408 . S
C7 H34 0.930 . S
C8 C3 1.348 1_556 S
C8 C7 1.408 . S
C8 H35 0.930 . S
C9 O22 1.281 . S
C9 O23 1.254 . S
C10 O24 1.236 . S
C10 O25 1.266 1_556 S
C11 Tb1 2.809 1_556 S
C11 C12 1.514 . S
C11 O26 1.248 . S
C11 O27 1.266 1_556 S
C12 C11 1.514 . S
C12 C13 1.359 . S
C12 C17 1.348 1_556 S
C13 C12 1.359 . S
C13 C14 1.380 . S
C13 H36 0.929 . S
C14 C13 1.380 . S
C14 C15 1.347 . S
C14 H37 0.931 . S
C15 C14 1.347 . S
C15 C16 1.369 1_556 S
C16 C15 1.369 1_554 S
C16 C17 1.408 . S
C16 H38 0.930 . S
C17 C12 1.348 1_554 S
C17 C16 1.408 . S
C17 H39 0.930 . S
C18 O28 1.281 . S
C18 O29 1.254 . S
C19 O30 1.236 . S
C19 O31 1.266 1_554 S
O20 Tb0 2.484 1_554 S
O20 C2 1.248 . S
O21 Tb0 2.440 . S
O21 C2 1.266 1_556 S
O22 Tb0 2.658 . S
O22 Tb1 2.325 1_556 S
O22 C9 1.281 . S
O23 Tb0 2.409 . S
O23 C9 1.254 . S
O24 Tb0 2.378 . S
O24 C10 1.236 . S
O25 Tb1 2.341 . S
O25 C10 1.266 1_554 S
O26 Tb1 2.484 1_556 S
O26 C11 1.248 . S
O27 Tb1 2.440 . S
O27 C11 1.266 1_554 S
O28 Tb0 2.325 1_554 S
O28 Tb1 2.658 . S
O28 C18 1.281 . S
O29 Tb1 2.409 . S
O29 C18 1.254 . S
O30 Tb1 2.378 . S
O30 C19 1.236 . S
O31 Tb0 2.341 . S
O31 C19 1.266 1_556 S
H32 C4 0.929 . S
H33 C5 0.931 . S
H34 C7 0.930 . S
H35 C8 0.930 . S
H36 C13 0.929 . S
H37 C14 0.931 . S
H38 C16 0.930 . S
H39 C17 0.930 . S
Tb40 C42 2.809 1_556 S
Tb40 O60 2.484 1_556 S
Tb40 O61 2.440 . S
Tb40 O62 2.658 . S
Tb40 O63 2.409 . S
Tb40 O64 2.378 . S
Tb40 O68 2.325 1_556 S
Tb40 O71 2.341 . S
Tb41 C51 2.809 1_554 S
Tb41 O62 2.325 1_554 S
Tb41 O65 2.341 . S
Tb41 O66 2.484 1_554 S
Tb41 O67 2.440 . S
Tb41 O68 2.658 . S
Tb41 O69 2.409 . S
Tb41 O70 2.378 . S
C42 Tb40 2.809 1_554 S
C42 C43 1.514 . S
C42 O60 1.248 . S
C42 O61 1.266 1_554 S
C43 C42 1.514 . S
C43 C44 1.359 . S
C43 C48 1.348 1_554 S
C44 C43 1.359 . S
C44 C45 1.380 . S
C44 H72 0.929 . S
C45 C44 1.380 . S
C45 C46 1.347 . S
C45 H73 0.931 . S
C46 C45 1.347 . S
C46 C47 1.369 1_554 S
C47 C46 1.369 1_556 S
C47 C48 1.408 . S
C47 H74 0.930 . S
C48 C43 1.348 1_556 S
C48 C47 1.408 . S
C48 H75 0.930 . S
C49 O62 1.281 . S
C49 O63 1.254 . S
C50 O64 1.236 . S
C50 O65 1.266 1_556 S
C51 Tb41 2.809 1_556 S
C51 C52 1.514 . S
C51 O66 1.248 . S
C51 O67 1.266 1_556 S
C52 C51 1.514 . S
C52 C53 1.359 . S
C52 C57 1.348 1_556 S
C53 C52 1.359 . S
C53 C54 1.380 . S
C53 H76 0.929 . S
C54 C53 1.380 . S
C54 C55 1.347 . S
C54 H77 0.931 . S
C55 C54 1.347 . S
C55 C56 1.369 1_556 S
C56 C55 1.369 1_554 S
C56 C57 1.408 . S
C56 H78 0.930 . S
C57 C52 1.348 1_554 S
C57 C56 1.408 . S
C57 H79 0.930 . S
C58 O68 1.281 . S
C58 O69 1.254 . S
C59 O70 1.236 . S
C59 O71 1.266 1_554 S
O60 Tb40 2.484 1_554 S
O60 C42 1.248 . S
O61 Tb40 2.440 . S
O61 C42 1.266 1_556 S
O62 Tb40 2.658 . S
O62 Tb41 2.325 1_556 S
O62 C49 1.281 . S
O63 Tb40 2.409 . S
O63 C49 1.254 . S
O64 Tb40 2.378 . S
O64 C50 1.236 . S
O65 Tb41 2.341 . S
O65 C50 1.266 1_554 S
O66 Tb41 2.484 1_556 S
O66 C51 1.248 . S
O67 Tb41 2.440 . S
O67 C51 1.266 1_554 S
O68 Tb40 2.325 1_554 S
O68 Tb41 2.658 . S
O68 C58 1.281 . S
O69 Tb41 2.409 . S
O69 C58 1.254 . S
O70 Tb41 2.378 . S
O70 C59 1.236 . S
O71 Tb40 2.341 . S
O71 C59 1.266 1_556 S
H72 C44 0.929 . S
H73 C45 0.931 . S
H74 C47 0.930 . S
H75 C48 0.930 . S
H76 C53 0.929 . S
H77 C54 0.931 . S
H78 C56 0.930 . S
H79 C57 0.930 . S
Tb80 C82 2.809 1_556 S
Tb80 O100 2.484 1_556 S
Tb80 O101 2.440 . S
Tb80 O102 2.658 . S
Tb80 O103 2.409 . S
Tb80 O104 2.378 . S
Tb80 O108 2.325 1_556 S
Tb80 O111 2.341 . S
Tb81 C91 2.809 1_554 S
Tb81 O102 2.325 1_554 S
Tb81 O105 2.341 . S
Tb81 O106 2.484 1_554 S
Tb81 O107 2.440 . S
Tb81 O108 2.658 . S
Tb81 O109 2.409 . S
Tb81 O110 2.378 . S
C82 Tb80 2.809 1_554 S
C82 C83 1.514 . S
C82 O100 1.248 . S
C82 O101 1.266 1_554 S
C83 C82 1.514 . S
C83 C84 1.359 . S
C83 C88 1.348 1_554 S
C84 C83 1.359 . S
C84 C85 1.380 . S
C84 H112 0.929 . S
C85 C84 1.380 . S
C85 C86 1.347 . S
C85 H113 0.931 . S
C86 C85 1.347 . S
C86 C87 1.369 1_554 S
C87 C86 1.369 1_556 S
C87 C88 1.408 . S
C87 H114 0.930 . S
C88 C83 1.348 1_556 S
C88 C87 1.408 . S
C88 H115 0.930 . S
C89 O102 1.281 . S
C89 O103 1.254 . S
C90 O104 1.236 . S
C90 O105 1.266 1_556 S
C91 Tb81 2.809 1_556 S
C91 C92 1.514 . S
C91 O106 1.248 . S
C91 O107 1.266 1_556 S
C92 C91 1.514 . S
C92 C93 1.359 . S
C92 C97 1.348 1_556 S
C93 C92 1.359 . S
C93 C94 1.380 . S
C93 H116 0.929 . S
C94 C93 1.380 . S
C94 C95 1.347 . S
C94 H117 0.931 . S
C95 C94 1.347 . S
C95 C96 1.369 1_556 S
C96 C95 1.369 1_554 S
C96 C97 1.408 . S
C96 H118 0.930 . S
C97 C92 1.348 1_554 S
C97 C96 1.408 . S
C97 H119 0.930 . S
C98 O108 1.281 . S
C98 O109 1.254 . S
C99 O110 1.236 . S
C99 O111 1.266 1_554 S
O100 Tb80 2.484 1_554 S
O100 C82 1.248 . S
O101 Tb80 2.440 . S
O101 C82 1.266 1_556 S
O102 Tb80 2.658 . S
O102 Tb81 2.325 1_556 S
O102 C89 1.281 . S
O103 Tb80 2.409 . S
O103 C89 1.254 . S
O104 Tb80 2.378 . S
O104 C90 1.236 . S
O105 Tb81 2.341 . S
O105 C90 1.266 1_554 S
O106 Tb81 2.484 1_556 S
O106 C91 1.248 . S
O107 Tb81 2.440 . S
O107 C91 1.266 1_554 S
O108 Tb80 2.325 1_554 S
O108 Tb81 2.658 . S
O108 C98 1.281 . S
O109 Tb81 2.409 . S
O109 C98 1.254 . S
O110 Tb81 2.378 . S
O110 C99 1.236 . S
O111 Tb80 2.341 . S
O111 C99 1.266 1_556 S
H112 C84 0.929 . S
H113 C85 0.931 . S
H114 C87 0.930 . S
H115 C88 0.930 . S
H116 C93 0.929 . S
H117 C94 0.931 . S
H118 C96 0.930 . S
H119 C97 0.930 . S
Tb120 C122 2.809 1_556 S
Tb120 O140 2.484 1_556 S
Tb120 O141 2.440 . S
Tb120 O142 2.658 . S
Tb120 O143 2.409 . S
Tb120 O144 2.378 . S
Tb120 O148 2.325 1_556 S
Tb120 O151 2.341 . S
Tb121 C131 2.809 1_554 S
Tb121 O142 2.325 1_554 S
Tb121 O145 2.341 . S
Tb121 O146 2.484 1_554 S
Tb121 O147 2.440 . S
Tb121 O148 2.658 . S
Tb121 O149 2.409 . S
Tb121 O150 2.378 . S
C122 Tb120 2.809 1_554 S
C122 C123 1.514 . S
C122 O140 1.248 . S
C122 O141 1.266 1_554 S
C123 C122 1.514 . S
C123 C124 1.359 . S
C123 C128 1.348 1_554 S
C124 C123 1.359 . S
C124 C125 1.380 . S
C124 H152 0.929 . S
C125 C124 1.380 . S
C125 C126 1.347 . S
C125 H153 0.931 . S
C126 C125 1.347 . S
C126 C127 1.369 1_554 S
C127 C126 1.369 1_556 S
C127 C128 1.408 . S
C127 H154 0.930 . S
C128 C123 1.348 1_556 S
C128 C127 1.408 . S
C128 H155 0.930 . S
C129 O142 1.281 . S
C129 O143 1.254 . S
C130 O144 1.236 . S
C130 O145 1.266 1_556 S
C131 Tb121 2.809 1_556 S
C131 C132 1.514 . S
C131 O146 1.248 . S
C131 O147 1.266 1_556 S
C132 C131 1.514 . S
C132 C133 1.359 . S
C132 C137 1.348 1_556 S
C133 C132 1.359 . S
C133 C134 1.380 . S
C133 H156 0.929 . S
C134 C133 1.380 . S
C134 C135 1.347 . S
C134 H157 0.931 . S
C135 C134 1.347 . S
C135 C136 1.369 1_556 S
C136 C135 1.369 1_554 S
C136 C137 1.408 . S
C136 H158 0.930 . S
C137 C132 1.348 1_554 S
C137 C136 1.408 . S
C137 H159 0.930 . S
C138 O148 1.281 . S
C138 O149 1.254 . S
C139 O150 1.236 . S
C139 O151 1.266 1_554 S
O140 Tb120 2.484 1_554 S
O140 C122 1.248 . S
O141 Tb120 2.440 . S
O141 C122 1.266 1_556 S
O142 Tb120 2.658 . S
O142 Tb121 2.325 1_556 S
O142 C129 1.281 . S
O143 Tb120 2.409 . S
O143 C129 1.254 . S
O144 Tb120 2.378 . S
O144 C130 1.236 . S
O145 Tb121 2.341 . S
O145 C130 1.266 1_554 S
O146 Tb121 2.484 1_556 S
O146 C131 1.248 . S
O147 Tb121 2.440 . S
O147 C131 1.266 1_554 S
O148 Tb120 2.325 1_554 S
O148 Tb121 2.658 . S
O148 C138 1.281 . S
O149 Tb121 2.409 . S
O149 C138 1.254 . S
O150 Tb121 2.378 . S
O150 C139 1.236 . S
O151 Tb120 2.341 . S
O151 C139 1.266 1_556 S
H152 C124 0.929 . S
H153 C125 0.931 . S
H154 C127 0.930 . S
H155 C128 0.930 . S
H156 C133 0.929 . S
H157 C134 0.931 . S
H158 C136 0.930 . S
H159 C137 0.930 . S
Tb160 C162 2.809 1_556 S
Tb160 O180 2.484 1_556 S
Tb160 O181 2.440 . S
Tb160 O182 2.658 . S
Tb160 O183 2.409 . S
Tb160 O184 2.378 . S
Tb160 O188 2.325 1_556 S
Tb160 O191 2.341 . S
Tb161 C171 2.809 1_554 S
Tb161 O182 2.325 1_554 S
Tb161 O185 2.341 . S
Tb161 O186 2.484 1_554 S
Tb161 O187 2.440 . S
Tb161 O188 2.658 . S
Tb161 O189 2.409 . S
Tb161 O190 2.378 . S
C162 Tb160 2.809 1_554 S
C162 C163 1.514 . S
C162 O180 1.248 . S
C162 O181 1.266 1_554 S
C163 C162 1.514 . S
C163 C164 1.359 . S
C163 C168 1.348 1_554 S
C164 C163 1.359 . S
C164 C165 1.380 . S
C164 H192 0.929 . S
C165 C164 1.380 . S
C165 C166 1.347 . S
C165 H193 0.931 . S
C166 C165 1.347 . S
C166 C167 1.369 1_554 S
C167 C166 1.369 1_556 S
C167 C168 1.408 . S
C167 H194 0.930 . S
C168 C163 1.348 1_556 S
C168 C167 1.408 . S
C168 H195 0.930 . S
C169 O182 1.281 . S
C169 O183 1.254 . S
C170 O184 1.236 . S
C170 O185 1.266 1_556 S
C171 Tb161 2.809 1_556 S
C171 C172 1.514 . S
C171 O186 1.248 . S
C171 O187 1.266 1_556 S
C172 C171 1.514 . S
C172 C173 1.359 . S
C172 C177 1.348 1_556 S
C173 C172 1.359 . S
C173 C174 1.380 . S
C173 H196 0.929 . S
C174 C173 1.380 . S
C174 C175 1.347 . S
C174 H197 0.931 . S
C175 C174 1.347 . S
C175 C176 1.369 1_556 S
C176 C175 1.369 1_554 S
C176 C177 1.408 . S
C176 H198 0.930 . S
C177 C172 1.348 1_554 S
C177 C176 1.408 . S
C177 H199 0.930 . S
C178 O188 1.281 . S
C178 O189 1.254 . S
C179 O190 1.236 . S
C179 O191 1.266 1_554 S
O180 Tb160 2.484 1_554 S
O180 C162 1.248 . S
O181 Tb160 2.440 . S
O181 C162 1.266 1_556 S
O182 Tb160 2.658 . S
O182 Tb161 2.325 1_556 S
O182 C169 1.281 . S
O183 Tb160 2.409 . S
O183 C169 1.254 . S
O184 Tb160 2.378 . S
O184 C170 1.236 . S
O185 Tb161 2.341 . S
O185 C170 1.266 1_554 S
O186 Tb161 2.484 1_556 S
O186 C171 1.248 . S
O187 Tb161 2.440 . S
O187 C171 1.266 1_554 S
O188 Tb160 2.325 1_554 S
O188 Tb161 2.658 . S
O188 C178 1.281 . S
O189 Tb161 2.409 . S
O189 C178 1.254 . S
O190 Tb161 2.378 . S
O190 C179 1.236 . S
O191 Tb160 2.341 . S
O191 C179 1.266 1_556 S
H192 C164 0.929 . S
H193 C165 0.931 . S
H194 C167 0.930 . S
H195 C168 0.930 . S
H196 C173 0.929 . S
H197 C174 0.931 . S
H198 C176 0.930 . S
H199 C177 0.930 . S
Tb200 C202 2.809 1_556 S
Tb200 O220 2.484 1_556 S
Tb200 O221 2.440 . S
Tb200 O222 2.658 . S
Tb200 O223 2.409 . S
Tb200 O224 2.378 . S
Tb200 O228 2.325 1_556 S
Tb200 O231 2.341 . S
Tb201 C211 2.809 1_554 S
Tb201 O222 2.325 1_554 S
Tb201 O225 2.341 . S
Tb201 O226 2.484 1_554 S
Tb201 O227 2.440 . S
Tb201 O228 2.658 . S
Tb201 O229 2.409 . S
Tb201 O230 2.378 . S
C202 Tb200 2.809 1_554 S
C202 C203 1.514 . S
C202 O220 1.248 . S
C202 O221 1.266 1_554 S
C203 C202 1.514 . S
C203 C204 1.359 . S
C203 C208 1.348 1_554 S
C204 C203 1.359 . S
C204 C205 1.380 . S
C204 H232 0.929 . S
C205 C204 1.380 . S
C205 C206 1.347 . S
C205 H233 0.931 . S
C206 C205 1.347 . S
C206 C207 1.369 1_554 S
C207 C206 1.369 1_556 S
C207 C208 1.408 . S
C207 H234 0.930 . S
C208 C203 1.348 1_556 S
C208 C207 1.408 . S
C208 H235 0.930 . S
C209 O222 1.281 . S
C209 O223 1.254 . S
C210 O224 1.236 . S
C210 O225 1.266 1_556 S
C211 Tb201 2.809 1_556 S
C211 C212 1.514 . S
C211 O226 1.248 . S
C211 O227 1.266 1_556 S
C212 C211 1.514 . S
C212 C213 1.359 . S
C212 C217 1.348 1_556 S
C213 C212 1.359 . S
C213 C214 1.380 . S
C213 H236 0.929 . S
C214 C213 1.380 . S
C214 C215 1.347 . S
C214 H237 0.931 . S
C215 C214 1.347 . S
C215 C216 1.369 1_556 S
C216 C215 1.369 1_554 S
C216 C217 1.408 . S
C216 H238 0.930 . S
C217 C212 1.348 1_554 S
C217 C216 1.408 . S
C217 H239 0.930 . S
C218 O228 1.281 . S
C218 O229 1.254 . S
C219 O230 1.236 . S
C219 O231 1.266 1_554 S
O220 Tb200 2.484 1_554 S
O220 C202 1.248 . S
O221 Tb200 2.440 . S
O221 C202 1.266 1_556 S
O222 Tb200 2.658 . S
O222 Tb201 2.325 1_556 S
O222 C209 1.281 . S
O223 Tb200 2.409 . S
O223 C209 1.254 . S
O224 Tb200 2.378 . S
O224 C210 1.236 . S
O225 Tb201 2.341 . S
O225 C210 1.266 1_554 S
O226 Tb201 2.484 1_556 S
O226 C211 1.248 . S
O227 Tb201 2.440 . S
O227 C211 1.266 1_554 S
O228 Tb200 2.325 1_554 S
O228 Tb201 2.658 . S
O228 C218 1.281 . S
O229 Tb201 2.409 . S
O229 C218 1.254 . S
O230 Tb201 2.378 . S
O230 C219 1.236 . S
O231 Tb200 2.341 . S
O231 C219 1.266 1_556 S
H232 C204 0.929 . S
H233 C205 0.931 . S
H234 C207 0.930 . S
H235 C208 0.930 . S
H236 C213 0.929 . S
H237 C214 0.931 . S
H238 C216 0.930 . S
H239 C217 0.930 . S
H240 C252 0.930 . S
H241 C254 0.930 . S
H242 C255 0.930 . S
H243 C259 0.959 . S
H244 C259 0.959 . S
H245 C259 0.961 . S
H246 C260 0.960 . S
H247 C260 0.961 . S
H248 C260 0.959 . S
H249 C263 0.929 . S
H250 C264 0.931 . S
H251 C266 0.930 1_554 S
C252 H240 0.930 . S
C252 C253 1.399 1_554 S
C252 C257 1.399 . S
C253 C252 1.399 1_556 S
C253 C254 1.376 . S
C254 H241 0.930 . S
C254 C253 1.376 . S
C254 C255 1.388 . S
C255 H242 0.930 . S
C255 C254 1.388 . S
C255 C256 1.390 . S
C256 C255 1.390 . S
C256 C257 1.394 1_556 S
C256 C262 1.465 . S
C257 C252 1.399 . S
C257 C256 1.394 1_554 S
C257 C258 1.516 . S
C258 C257 1.516 . S
C258 C259 1.502 . S
C258 C260 1.561 1_554 S
C258 C261 1.526 1_554 S
C259 H243 0.959 . S
C259 H244 0.959 . S
C259 H245 0.961 . S
C259 C258 1.502 . S
C260 H246 0.960 . S
C260 H247 0.961 . S
C260 H248 0.959 . S
C260 C258 1.561 1_556 S
C261 C258 1.526 1_556 S
C261 C262 1.396 . S
C261 C266 1.390 . S
C262 C256 1.465 . S
C262 C261 1.396 . S
C262 C263 1.399 . S
C263 H249 0.929 . S
C263 C262 1.399 . S
C263 C264 1.385 . S
C264 H250 0.931 . S
C264 C263 1.385 . S
C264 C265 1.389 . S
C265 C264 1.389 . S
C265 C266 1.387 . S
C266 H251 0.930 1_556 S
C266 C261 1.390 . S
C266 C265 1.387 . S
H267 C279 0.930 . S
H268 C281 0.930 . S
H269 C282 0.930 . S
H270 C286 0.959 . S
H271 C286 0.959 . S
H272 C286 0.961 . S
H273 C287 0.960 . S
H274 C287 0.961 . S
H275 C287 0.959 . S
H276 C290 0.929 . S
H277 C291 0.931 . S
H278 C293 0.925 1_655 S
C279 H267 0.930 . S
C279 C280 1.399 1_554 S
C279 C284 1.399 . S
C280 C279 1.399 1_556 S
C280 C281 1.376 . S
C281 H268 0.930 . S
C281 C280 1.376 . S
C281 C282 1.388 . S
C282 H269 0.930 . S
C282 C281 1.388 . S
C282 C283 1.390 . S
C283 C282 1.390 . S
C283 C284 1.394 1_556 S
C283 C289 1.465 . S
C284 C279 1.399 . S
C284 C283 1.394 1_554 S
C284 C285 1.516 . S
C285 C284 1.516 . S
C285 C286 1.502 . S
C285 C287 1.561 . S
C285 C288 1.526 . S
C286 H270 0.959 . S
C286 H271 0.959 . S
C286 H272 0.961 . S
C286 C285 1.502 . S
C287 H273 0.960 . S
C287 H274 0.961 . S
C287 H275 0.959 . S
C287 C285 1.561 . S
C288 C285 1.526 . S
C288 C289 1.396 1_554 S
C288 C293 1.409 . S
C289 C283 1.465 . S
C289 C288 1.396 1_556 S
C289 C290 1.399 . S
C290 H276 0.929 . S
C290 C289 1.399 . S
C290 C291 1.385 1_455 S
C291 H277 0.931 . S
C291 C290 1.385 1_655 S
C291 C292 1.389 . S
C292 C291 1.389 . S
C292 C293 1.373 1_656 S
C293 H278 0.925 1_455 S
C293 C288 1.409 . S
C293 C292 1.373 1_454 S
H294 C306 0.930 . S
H295 C308 0.930 . S
H296 C309 0.930 . S
H297 C313 0.959 . S
H298 C313 0.959 . S
H299 C313 0.961 . S
H300 C314 0.960 . S
H301 C314 0.961 . S
H302 C314 0.959 . S
H303 C317 0.929 . S
H304 C318 0.931 . S
H305 C320 0.930 . S
C306 H294 0.930 . S
C306 C307 1.399 1_556 S
C306 C311 1.399 . S
C307 C306 1.399 1_554 S
C307 C308 1.376 . S
C308 H295 0.930 . S
C308 C307 1.376 . S
C308 C309 1.388 . S
C309 H296 0.930 . S
C309 C308 1.388 . S
C309 C310 1.390 . S
C310 C309 1.390 . S
C310 C311 1.394 1_554 S
C310 C316 1.465 . S
C311 C306 1.399 . S
C311 C310 1.394 1_556 S
C311 C312 1.516 . S
C312 C311 1.516 . S
C312 C313 1.502 . S
C312 C314 1.561 . S
C312 C315 1.526 . S
C313 H297 0.959 . S
C313 H298 0.959 . S
C313 H299 0.961 . S
C313 C312 1.502 . S
C314 H300 0.960 . S
C314 H301 0.961 . S
C314 H302 0.959 . S
C314 C312 1.561 . S
C315 C312 1.526 . S
C315 C316 1.396 1_556 S
C315 C320 1.390 1_545 S
C316 C310 1.465 . S
C316 C315 1.396 1_554 S
C316 C317 1.399 . S
C317 H303 0.929 . S
C317 C316 1.399 . S
C317 C318 1.385 1_545 S
C318 H304 0.931 . S
C318 C317 1.385 1_565 S
C318 C319 1.389 1_554 S
C319 C318 1.389 1_556 S
C319 C320 1.387 . S
C320 H305 0.930 . S
C320 C315 1.390 1_565 S
C320 C319 1.387 . S
H321 C333 0.930 . S
H322 C335 0.930 . S
H323 C336 0.930 . S
H324 C340 0.959 . S
H325 C340 0.959 . S
H326 C340 0.961 . S
H327 C341 0.960 . S
H328 C341 0.961 . S
H329 C341 0.959 . S
H330 C344 0.929 . S
H331 C345 0.931 . S
H332 C347 0.930 . S
C333 H321 0.930 . S
C333 C334 1.399 1_554 S
C333 C338 1.399 . S
C334 C333 1.399 1_556 S
C334 C335 1.376 . S
C335 H322 0.930 . S
C335 C334 1.376 . S
C335 C336 1.388 . S
C336 H323 0.930 . S
C336 C335 1.388 . S
C336 C337 1.390 . S
C337 C336 1.390 . S
C337 C338 1.394 1_556 S
C337 C343 1.465 . S
C338 C333 1.399 . S
C338 C337 1.394 1_554 S
C338 C339 1.516 . S
C339 C338 1.516 . S
C339 C340 1.502 . S
C339 C341 1.561 . S
C339 C342 1.526 . S
C340 H324 0.959 . S
C340 H325 0.959 . S
C340 H326 0.961 . S
C340 C339 1.502 . S
C341 H327 0.960 . S
C341 H328 0.961 . S
C341 H329 0.959 . S
C341 C339 1.561 . S
C342 C339 1.526 . S
C342 C343 1.396 1_554 S
C342 C347 1.390 . S
C343 C337 1.465 . S
C343 C342 1.396 1_556 S
C343 C344 1.399 . S
C344 H330 0.929 . S
C344 C343 1.399 . S
C344 C345 1.385 . S
C345 H331 0.931 . S
C345 C344 1.385 . S
C345 C346 1.389 . S
C346 C345 1.389 . S
C346 C347 1.387 1_556 S
C347 H332 0.930 . S
C347 C342 1.390 . S
C347 C346 1.387 1_554 S
H348 C360 0.930 . S
H349 C362 0.930 . S
H350 C363 0.930 . S
H351 C367 0.959 . S
H352 C367 0.959 . S
H353 C367 0.961 . S
H354 C368 0.960 . S
H355 C368 0.961 . S
H356 C368 0.959 . S
H357 C371 0.929 . S
H358 C372 0.931 . S
H359 C374 0.930 . S
C360 H348 0.930 . S
C360 C361 1.399 1_655 S
C360 C365 1.399 . S
C361 C360 1.399 1_455 S
C361 C362 1.376 1_556 S
C362 H349 0.930 . S
C362 C361 1.376 1_554 S
C362 C363 1.388 1_455 S
C363 H350 0.930 . S
C363 C362 1.388 1_655 S
C363 C364 1.390 . S
C364 C363 1.390 . S
C364 C365 1.394 1_554 S
C364 C370 1.465 . S
C365 C360 1.399 . S
C365 C364 1.394 1_556 S
C365 C366 1.516 . S
C366 C365 1.516 . S
C366 C367 1.502 . S
C366 C368 1.561 . S
C366 C369 1.526 . S
C367 H351 0.959 . S
C367 H352 0.959 . S
C367 H353 0.961 . S
C367 C366 1.502 . S
C368 H354 0.960 . S
C368 H355 0.961 . S
C368 H356 0.959 . S
C368 C366 1.561 . S
C369 C366 1.526 . S
C369 C370 1.396 1_556 S
C369 C374 1.390 . S
C370 C364 1.465 . S
C370 C369 1.396 1_554 S
C370 C371 1.399 . S
C371 H357 0.929 . S
C371 C370 1.399 . S
C371 C372 1.385 . S
C372 H358 0.931 . S
C372 C371 1.385 . S
C372 C373 1.389 . S
C373 C372 1.389 . S
C373 C374 1.387 1_554 S
C374 H359 0.930 . S
C374 C369 1.390 . S
C374 C373 1.387 1_556 S
H375 C387 0.930 . S
H376 C389 0.930 . S
H377 C390 0.930 . S
H378 C394 0.959 . S
H379 C394 0.959 . S
H380 C394 0.961 . S
H381 C395 0.960 . S
H382 C395 0.961 . S
H383 C395 0.959 . S
H384 C398 0.929 . S
H385 C399 0.931 . S
H386 C401 0.930 1_545 S
C387 H375 0.930 . S
C387 C388 1.399 1_554 S
C387 C392 1.399 . S
C388 C387 1.399 1_556 S
C388 C389 1.376 . S
C389 H376 0.930 . S
C389 C388 1.376 . S
C389 C390 1.388 . S
C390 H377 0.930 . S
C390 C389 1.388 . S
C390 C391 1.390 . S
C391 C390 1.390 . S
C391 C392 1.394 1_556 S
C391 C397 1.465 . S
C392 C387 1.399 . S
C392 C391 1.394 1_554 S
C392 C393 1.516 . S
C393 C392 1.516 . S
C393 C394 1.502 . S
C393 C395 1.561 . S
C393 C396 1.526 . S
C394 H378 0.959 . S
C394 H379 0.959 . S
C394 H380 0.961 . S
C394 C393 1.502 . S
C395 H381 0.960 . S
C395 H382 0.961 . S
C395 H383 0.959 . S
C395 C393 1.561 . S
C396 C393 1.526 . S
C396 C397 1.396 1_554 S
C396 C401 1.389 . S
C397 C391 1.465 . S
C397 C396 1.396 1_556 S
C397 C398 1.399 . S
C398 H384 0.929 . S
C398 C397 1.399 . S
C398 C399 1.385 1_565 S
C399 H385 0.931 . S
C399 C398 1.385 1_545 S
C399 C400 1.389 . S
C400 C399 1.389 . S
C400 C401 1.387 1_546 S
C401 H386 0.930 1_565 S
C401 C396 1.389 . S
C401 C400 1.387 1_564 S
H402 C414 0.930 . S
H403 C416 0.930 . S
H404 C417 0.930 . S
H405 C421 0.959 . S
H406 C421 0.959 . S
H407 C421 0.961 . S
H408 C422 0.960 . S
H409 C422 0.961 . S
H410 C422 0.959 . S
H411 C425 0.929 . S
H412 C426 0.931 . S
H413 C428 0.930 . S
C414 H402 0.930 . S
C414 C415 1.399 1_554 S
C414 C419 1.399 . S
C415 C414 1.399 1_556 S
C415 C416 1.376 . S
C416 H403 0.930 . S
C416 C415 1.376 . S
C416 C417 1.388 . S
C417 H404 0.930 . S
C417 C416 1.388 . S
C417 C418 1.390 . S
C418 C417 1.390 . S
C418 C419 1.394 1_556 S
C418 C424 1.465 . S
C419 C414 1.399 . S
C419 C418 1.394 1_554 S
C419 C420 1.516 . S
C420 C419 1.516 . S
C420 C421 1.502 . S
C420 C422 1.561 . S
C420 C423 1.526 . S
C421 H405 0.959 . S
C421 H406 0.959 . S
C421 H407 0.961 . S
C421 C420 1.502 . S
C422 H408 0.960 . S
C422 H409 0.961 . S
C422 H410 0.959 . S
C422 C420 1.561 . S
C423 C420 1.526 . S
C423 C424 1.396 1_554 S
C423 C428 1.390 . S
C424 C418 1.465 . S
C424 C423 1.396 1_556 S
C424 C425 1.399 . S
C425 H411 0.929 . S
C425 C424 1.399 . S
C425 C426 1.385 . S
C426 H412 0.931 . S
C426 C425 1.385 . S
C426 C427 1.389 1_556 S
C427 C426 1.389 1_554 S
C427 C428 1.387 . S
C428 H413 0.930 . S
C428 C423 1.390 . S
C428 C427 1.387 . S
H429 C441 0.930 . S
H430 C443 0.930 . S
H431 C444 0.930 . S
H432 C448 0.959 . S
H433 C448 0.959 . S
H434 C448 0.961 . S
H435 C449 0.960 . S
H436 C449 0.961 . S
H437 C449 0.959 . S
H438 C452 0.929 . S
H439 C453 0.931 . S
H440 C455 0.930 . S
C441 H429 0.930 . S
C441 C442 1.399 1_556 S
C441 C446 1.399 . S
C442 C441 1.399 1_554 S
C442 C443 1.376 . S
C443 H430 0.930 . S
C443 C442 1.376 . S
C443 C444 1.388 . S
C444 H431 0.930 . S
C444 C443 1.388 . S
C444 C445 1.390 . S
C445 C444 1.390 . S
C445 C446 1.394 1_554 S
C445 C451 1.465 . S
C446 C441 1.399 . S
C446 C445 1.394 1_556 S
C446 C447 1.516 . S
C447 C446 1.516 . S
C447 C448 1.502 . S
C447 C449 1.561 . S
C447 C450 1.526 . S
C448 H432 0.959 . S
C448 H433 0.959 . S
C448 H434 0.961 . S
C448 C447 1.502 . S
C449 H435 0.960 . S
C449 H436 0.961 . S
C449 H437 0.959 . S
C449 C447 1.561 . S
C450 C447 1.526 . S
C450 C451 1.396 1_556 S
C450 C455 1.390 . S
C451 C445 1.465 . S
C451 C450 1.396 1_554 S
C451 C452 1.399 . S
C452 H438 0.929 . S
C452 C451 1.399 . S
C452 C453 1.385 . S
C453 H439 0.931 . S
C453 C452 1.385 . S
C453 C454 1.389 . S
C454 C453 1.389 . S
C454 C455 1.387 1_554 S
C455 H440 0.930 . S
C455 C450 1.390 . S
C455 C454 1.387 1_556 S
H456 C468 0.930 . S
H457 C470 0.930 . S
H458 C471 0.930 . S
H459 C475 0.959 . S
H460 C475 0.959 . S
H461 C475 0.961 . S
H462 C476 0.960 . S
H463 C476 0.961 . S
H464 C476 0.959 . S
H465 C479 0.929 . S
H466 C480 0.931 . S
H467 C482 0.930 . S
C468 H456 0.930 . S
C468 C469 1.399 1_556 S
C468 C473 1.399 . S
C469 C468 1.399 1_554 S
C469 C470 1.376 . S
C470 H457 0.930 . S
C470 C469 1.376 . S
C470 C471 1.388 . S
C471 H458 0.930 . S
C471 C470 1.388 . S
C471 C472 1.390 . S
C472 C471 1.390 . S
C472 C473 1.394 1_554 S
C472 C478 1.465 . S
C473 C468 1.399 . S
C473 C472 1.394 1_556 S
C473 C474 1.516 . S
C474 C473 1.516 . S
C474 C475 1.502 . S
C474 C476 1.561 . S
C474 C477 1.526 . S
C475 H459 0.959 . S
C475 H460 0.959 . S
C475 H461 0.961 . S
C475 C474 1.502 . S
C476 H462 0.960 . S
C476 H463 0.961 . S
C476 H464 0.959 . S
C476 C474 1.561 . S
C477 C474 1.526 . S
C477 C478 1.396 1_556 S
C477 C482 1.390 . S
C478 C472 1.465 . S
C478 C477 1.396 1_554 S
C478 C479 1.399 . S
C479 H465 0.929 . S
C479 C478 1.399 . S
C479 C480 1.385 . S
C480 H466 0.931 . S
C480 C479 1.385 . S
C480 C481 1.389 . S
C481 C480 1.389 . S
C481 C482 1.387 1_554 S
C482 H467 0.930 . S
C482 C477 1.390 . S
C482 C481 1.387 1_556 S
H483 C495 0.930 . S
H484 C497 0.930 . S
H485 C498 0.930 . S
H486 C502 0.959 . S
H487 C502 0.959 . S
H488 C502 0.961 . S
H489 C503 0.960 . S
H490 C503 0.961 . S
H491 C503 0.959 . S
H492 C506 0.929 . S
H493 C507 0.931 . S
H494 C509 0.930 . S
C495 H483 0.930 . S
C495 C496 1.399 . S
C495 C500 1.399 . S
C496 C495 1.399 . S
C496 C497 1.376 1_554 S
C497 H484 0.930 . S
C497 C496 1.376 1_556 S
C497 C498 1.388 . S
C498 H485 0.930 . S
C498 C497 1.388 . S
C498 C499 1.390 . S
C499 C498 1.390 . S
C499 C500 1.394 1_556 S
C499 C505 1.465 . S
C500 C495 1.399 . S
C500 C499 1.394 1_554 S
C500 C501 1.516 . S
C501 C500 1.516 . S
C501 C502 1.502 . S
C501 C503 1.561 . S
C501 C504 1.526 . S
C502 H486 0.959 . S
C502 H487 0.959 . S
C502 H488 0.961 . S
C502 C501 1.502 . S
C503 H489 0.960 . S
C503 H490 0.961 . S
C503 H491 0.959 . S
C503 C501 1.561 . S
C504 C501 1.526 . S
C504 C505 1.396 1_554 S
C504 C509 1.390 . S
C505 C499 1.465 . S
C505 C504 1.396 1_556 S
C505 C506 1.399 . S
C506 H492 0.929 . S
C506 C505 1.399 . S
C506 C507 1.385 . S
C507 H493 0.931 . S
C507 C506 1.385 . S
C507 C508 1.389 . S
C508 C507 1.389 . S
C508 C509 1.387 1_556 S
C509 H494 0.930 . S
C509 C504 1.390 . S
C509 C508 1.387 1_554 S
H510 C522 0.930 . S
H511 C524 0.930 . S
H512 C525 0.930 . S
H513 C529 0.959 1_556 S
H514 C529 0.959 . S
H515 C529 0.961 . S
H516 C530 0.960 . S
H517 C530 0.961 . S
H518 C530 0.959 . S
H519 C533 0.929 . S
H520 C534 0.931 . S
H521 C536 0.930 . S
C522 H510 0.930 . S
C522 C523 1.399 . S
C522 C527 1.399 . S
C523 C522 1.399 . S
C523 C524 1.376 1_554 S
C524 H511 0.930 . S
C524 C523 1.376 1_556 S
C524 C525 1.388 . S
C525 H512 0.930 . S
C525 C524 1.388 . S
C525 C526 1.390 1_556 S
C526 C525 1.390 1_554 S
C526 C527 1.394 . S
C526 C532 1.465 1_554 S
C527 C522 1.399 . S
C527 C526 1.394 . S
C527 C528 1.516 . S
C528 C527 1.516 . S
C528 C529 1.502 . S
C528 C530 1.561 . S
C528 C531 1.526 . S
C529 H513 0.959 1_554 S
C529 H514 0.959 . S
C529 H515 0.961 . S
C529 C528 1.502 . S
C530 H516 0.960 . S
C530 H517 0.961 . S
C530 H518 0.959 . S
C530 C528 1.561 . S
C531 C528 1.526 . S
C531 C532 1.396 1_554 S
C531 C536 1.390 . S
C532 C526 1.465 1_556 S
C532 C531 1.396 1_556 S
C532 C533 1.399 . S
C533 H519 0.929 . S
C533 C532 1.399 . S
C533 C534 1.385 . S
C534 H520 0.931 . S
C534 C533 1.385 . S
C534 C535 1.389 . S
C535 C534 1.389 . S
C535 C536 1.387 1_556 S
C536 H521 0.930 . S
C536 C531 1.390 . S
C536 C535 1.387 1_554 S
H537 C549 0.930 . S
H538 C551 0.930 . S
H539 C552 0.930 . S
H540 C556 0.959 . S
H541 C556 0.959 . S
H542 C556 0.961 . S
H543 C557 0.960 . S
H544 C557 0.961 . S
H545 C557 0.959 . S
H546 C560 0.929 . S
H547 C561 0.931 . S
H548 C563 0.930 . S
C549 H537 0.930 . S
C549 C550 1.399 1_554 S
C549 C554 1.399 . S
C550 C549 1.399 1_556 S
C550 C551 1.376 . S
C551 H538 0.930 . S
C551 C550 1.376 . S
C551 C552 1.388 . S
C552 H539 0.930 . S
C552 C551 1.388 . S
C552 C553 1.390 . S
C553 C552 1.390 . S
C553 C554 1.394 1_556 S
C553 C559 1.465 . S
C554 C549 1.399 . S
C554 C553 1.394 1_554 S
C554 C555 1.516 . S
C555 C554 1.516 . S
C555 C556 1.502 . S
C555 C557 1.561 . S
C555 C558 1.526 . S
C556 H540 0.959 . S
C556 H541 0.959 . S
C556 H542 0.961 . S
C556 C555 1.502 . S
C557 H543 0.960 . S
C557 H544 0.961 . S
C557 H545 0.959 . S
C557 C555 1.561 . S
C558 C555 1.526 . S
C558 C559 1.396 1_554 S
C558 C563 1.390 . S
C559 C553 1.465 . S
C559 C558 1.396 1_556 S
C559 C560 1.399 . S
C560 H546 0.929 . S
C560 C559 1.399 . S
C560 C561 1.385 . S
C561 H547 0.931 . S
C561 C560 1.385 . S
C561 C562 1.389 1_556 S
C562 C561 1.389 1_554 S
C562 C563 1.387 . S
C563 H548 0.930 . S
C563 C558 1.390 . S
C563 C562 1.387 . S
H564 C576 0.930 . S
H565 C578 0.930 . S
H566 C579 0.930 . S
H567 C583 0.959 . S
H568 C583 0.959 . S
H569 C583 0.961 . S
H570 C584 0.960 . S
H571 C584 0.961 . S
H572 C584 0.959 . S
H573 C587 0.929 . S
H574 C588 0.931 . S
H575 C590 0.930 . S
C576 H564 0.930 . S
C576 C577 1.399 . S
C576 C581 1.399 . S
C577 C576 1.399 . S
C577 C578 1.376 . S
C578 H565 0.930 . S
C578 C577 1.376 . S
C578 C579 1.388 . S
C579 H566 0.930 . S
C579 C578 1.388 . S
C579 C580 1.390 . S
C580 C579 1.390 . S
C580 C581 1.394 . S
C580 C586 1.465 . S
C581 C576 1.399 . S
C581 C580 1.394 . S
C581 C582 1.516 . S
C582 C581 1.516 . S
C582 C583 1.502 . S
C582 C584 1.561 . S
C582 C585 1.526 . S
C583 H567 0.959 . S
C583 H568 0.959 . S
C583 H569 0.961 . S
C583 C582 1.502 . S
C584 H570 0.960 . S
C584 H571 0.961 . S
C584 H572 0.959 . S
C584 C582 1.561 . S
C585 C582 1.526 . S
C585 C586 1.396 . S
C585 C590 1.390 . S
C586 C580 1.465 . S
C586 C585 1.396 . S
C586 C587 1.399 . S
C587 H573 0.929 . S
C587 C586 1.399 . S
C587 C588 1.385 . S
C588 H574 0.931 . S
C588 C587 1.385 . S
C588 C589 1.389 . S
C589 C588 1.389 . S
C589 C590 1.387 . S
C590 H575 0.930 . S
C590 C585 1.390 . S
C590 C589 1.387 . S
H591 C603 0.930 . S
H592 C605 0.930 . S
H593 C606 0.930 . S
H594 C610 0.959 . S
H595 C610 0.959 . S
H596 C610 0.961 . S
H597 C611 0.960 . S
H598 C611 0.961 . S
H599 C611 0.959 . S
H600 C614 0.929 . S
H601 C615 0.931 . S
H602 C617 0.930 . S
C603 H591 0.930 . S
C603 C604 1.399 . S
C603 C608 1.399 . S
C604 C603 1.399 . S
C604 C605 1.376 . S
C605 H592 0.930 . S
C605 C604 1.376 . S
C605 C606 1.388 . S
C606 H593 0.930 . S
C606 C605 1.388 . S
C606 C607 1.390 . S
C607 C606 1.390 . S
C607 C608 1.394 . S
C607 C613 1.465 . S
C608 C603 1.399 . S
C608 C607 1.394 . S
C608 C609 1.516 . S
C609 C608 1.516 . S
C609 C610 1.502 . S
C609 C611 1.561 . S
C609 C612 1.526 . S
C610 H594 0.959 . S
C610 H595 0.959 . S
C610 H596 0.961 . S
C610 C609 1.502 . S
C611 H597 0.960 . S
C611 H598 0.961 . S
C611 H599 0.959 . S
C611 C609 1.561 . S
C612 C609 1.526 . S
C612 C613 1.396 . S
C612 C617 1.390 . S
C613 C607 1.465 . S
C613 C612 1.396 . S
C613 C614 1.399 . S
C614 H600 0.929 . S
C614 C613 1.399 . S
C614 C615 1.385 . S
C615 H601 0.931 . S
C615 C614 1.385 . S
C615 C616 1.389 . S
C616 C615 1.389 . S
C616 C617 1.387 . S
C617 H602 0.930 . S
C617 C612 1.390 . S
C617 C616 1.387 . S
H618 C630 0.930 . S
H619 C632 0.930 . S
H620 C633 0.930 . S
H621 C637 0.959 . S
H622 C637 0.959 . S
H623 C637 0.961 . S
H624 C638 0.960 . S
H625 C638 0.961 . S
H626 C638 0.959 . S
H627 C641 0.929 . S
H628 C642 0.931 . S
H629 C644 0.930 . S
C630 H618 0.930 . S
C630 C631 1.399 . S
C630 C635 1.399 . S
C631 C630 1.399 . S
C631 C632 1.376 . S
C632 H619 0.930 . S
C632 C631 1.376 . S
C632 C633 1.388 . S
C633 H620 0.930 . S
C633 C632 1.388 . S
C633 C634 1.390 . S
C634 C633 1.390 . S
C634 C635 1.394 . S
C634 C640 1.465 . S
C635 C630 1.399 . S
C635 C634 1.394 . S
C635 C636 1.516 . S
C636 C635 1.516 . S
C636 C637 1.502 . S
C636 C638 1.561 . S
C636 C639 1.526 . S
C637 H621 0.959 . S
C637 H622 0.959 . S
C637 H623 0.961 . S
C637 C636 1.502 . S
C638 H624 0.960 . S
C638 H625 0.961 . S
C638 H626 0.959 . S
C638 C636 1.561 . S
C639 C636 1.526 . S
C639 C640 1.396 . S
C639 C644 1.390 . S
C640 C634 1.465 . S
C640 C639 1.396 . S
C640 C641 1.399 . S
C641 H627 0.929 . S
C641 C640 1.399 . S
C641 C642 1.385 . S
C642 H628 0.931 . S
C642 C641 1.385 . S
C642 C643 1.389 . S
C643 C642 1.389 . S
C643 C644 1.387 . S
C644 H629 0.930 . S
C644 C639 1.390 . S
C644 C643 1.387 . S
H645 C657 0.930 . S
H646 C659 0.930 . S
H647 C660 0.930 . S
H648 C664 0.959 . S
H649 C664 0.959 . S
H650 C664 0.961 . S
H651 C665 0.960 . S
H652 C665 0.961 . S
H653 C665 0.959 . S
H654 C668 0.929 . S
H655 C669 0.931 . S
H656 C671 0.930 . S
C657 H645 0.930 . S
C657 C658 1.399 . S
C657 C662 1.399 . S
C658 C657 1.399 . S
C658 C659 1.376 . S
C659 H646 0.930 . S
C659 C658 1.376 . S
C659 C660 1.388 . S
C660 H647 0.930 . S
C660 C659 1.388 . S
C660 C661 1.390 . S
C661 C660 1.390 . S
C661 C662 1.394 . S
C661 C667 1.465 . S
C662 C657 1.399 . S
C662 C661 1.394 . S
C662 C663 1.516 . S
C663 C662 1.516 . S
C663 C664 1.502 . S
C663 C665 1.561 . S
C663 C666 1.526 . S
C664 H648 0.959 . S
C664 H649 0.959 . S
C664 H650 0.961 . S
C664 C663 1.502 . S
C665 H651 0.960 . S
C665 H652 0.961 . S
C665 H653 0.959 . S
C665 C663 1.561 . S
C666 C663 1.526 . S
C666 C667 1.396 . S
C666 C671 1.390 . S
C667 C661 1.465 . S
C667 C666 1.396 . S
C667 C668 1.399 . S
C668 H654 0.929 . S
C668 C667 1.399 . S
C668 C669 1.385 . S
C669 H655 0.931 . S
C669 C668 1.385 . S
C669 C670 1.389 . S
C670 C669 1.389 . S
C670 C671 1.387 . S
C671 H656 0.930 . S
C671 C666 1.390 . S
C671 C670 1.387 . S
H672 C684 0.930 . S
H673 C686 0.930 . S
H674 C687 0.930 . S
H675 C691 0.959 . S
H676 C691 0.959 . S
H677 C691 0.961 . S
H678 C692 0.960 . S
H679 C692 0.961 . S
H680 C692 0.959 . S
H681 C695 0.929 . S
H682 C696 0.931 . S
H683 C698 0.930 . S
C684 H672 0.930 . S
C684 C685 1.399 . S
C684 C689 1.399 . S
C685 C684 1.399 . S
C685 C686 1.376 . S
C686 H673 0.930 . S
C686 C685 1.376 . S
C686 C687 1.388 . S
C687 H674 0.930 . S
C687 C686 1.388 . S
C687 C688 1.390 . S
C688 C687 1.390 . S
C688 C689 1.394 . S
C688 C694 1.465 . S
C689 C684 1.399 . S
C689 C688 1.394 . S
C689 C690 1.516 . S
C690 C689 1.516 . S
C690 C691 1.502 . S
C690 C692 1.561 . S
C690 C693 1.526 . S
C691 H675 0.959 . S
C691 H676 0.959 . S
C691 H677 0.961 . S
C691 C690 1.502 . S
C692 H678 0.960 . S
C692 H679 0.961 . S
C692 H680 0.959 . S
C692 C690 1.561 . S
C693 C690 1.526 . S
C693 C694 1.396 . S
C693 C698 1.390 . S
C694 C688 1.465 . S
C694 C693 1.396 . S
C694 C695 1.399 . S
C695 H681 0.929 . S
C695 C694 1.399 . S
C695 C696 1.385 . S
C696 H682 0.931 . S
C696 C695 1.385 . S
C696 C697 1.389 . S
C697 C696 1.389 . S
C697 C698 1.387 . S
C698 H683 0.930 . S
C698 C693 1.390 . S
C698 C697 1.387 . S
H699 C711 0.930 . S
H700 C713 0.930 . S
H701 C714 0.930 . S
H702 C718 0.959 . S
H703 C718 0.959 . S
H704 C718 0.961 . S
H705 C719 0.960 . S
H706 C719 0.961 . S
H707 C719 0.959 . S
H708 C722 0.929 . S
H709 C723 0.931 . S
H710 C725 0.930 . S
C711 H699 0.930 . S
C711 C712 1.399 . S
C711 C716 1.399 . S
C712 C711 1.399 . S
C712 C713 1.376 . S
C713 H700 0.930 . S
C713 C712 1.376 . S
C713 C714 1.388 . S
C714 H701 0.930 . S
C714 C713 1.388 . S
C714 C715 1.390 . S
C715 C714 1.390 . S
C715 C716 1.394 . S
C715 C721 1.465 . S
C716 C711 1.399 . S
C716 C715 1.394 . S
C716 C717 1.516 . S
C717 C716 1.516 . S
C717 C718 1.502 . S
C717 C719 1.561 . S
C717 C720 1.526 . S
C718 H702 0.959 . S
C718 H703 0.959 . S
C718 H704 0.961 . S
C718 C717 1.502 . S
C719 H705 0.960 . S
C719 H706 0.961 . S
C719 H707 0.959 . S
C719 C717 1.561 . S
C720 C717 1.526 . S
C720 C721 1.396 . S
C720 C725 1.390 . S
C721 C715 1.465 . S
C721 C720 1.396 . S
C721 C722 1.399 . S
C722 H708 0.929 . S
C722 C721 1.399 . S
C722 C723 1.385 . S
C723 H709 0.931 . S
C723 C722 1.385 . S
C723 C724 1.389 . S
C724 C723 1.389 . S
C724 C725 1.387 . S
C725 H710 0.930 . S
C725 C720 1.390 . S
C725 C724 1.387 . S
C253 C219 1.924 1_556 S
C265 C15 1.752 . S
C280 C19 1.907 1_556 S
C292 C55 1.700 . S
C307 C59 1.918 . S
C319 C95 1.736 . S
C334 C135 1.757 . S
C346 C99 1.926 1_556 S
C361 C175 1.667 . S
C373 C139 1.895 . S
C388 C179 1.908 1_556 S
C400 C215 1.705 . S
C415 C170 1.926 . S
C427 C6 1.921 . S
C442 C210 1.944 1_554 S
C454 C46 1.938 . S
C469 C86 1.930 . S
C481 C10 1.940 1_554 S
C496 C126 1.933 . S
C508 C50 1.930 . S
C523 C166 1.940 . S
C535 C90 1.936 . S
C550 C130 1.926 . S
C562 C206 1.927 . S
C577 C9 1.390 . S
C589 C18 1.471 . S
C604 C49 1.453 . S
C616 C58 1.428 . S
C631 C89 1.404 . S
C643 C98 1.471 . S
C658 C129 1.468 . S
C670 C138 1.409 . S
C685 C178 1.390 . S
C697 C169 1.472 . S
C712 C209 1.470 . S
C724 C218 1.392 . S
