# Generated by pormake.
# Topology msp, (4)-cn, num edge types: 1
# Building blocks:
#     Node 0, Type 0, BuildingBlock: GALJAG_clean_sbu_0, # of connection points: 4
#     Node 1, Type 0, BuildingBlock: GALJAG_clean_sbu_0, # of connection points: 4
#     Node 2, Type 0, BuildingBlock: GALJAG_clean_sbu_0, # of connection points: 4
#     Node 3, Type 0, BuildingBlock: GALJAG_clean_sbu_0, # of connection points: 4
#     Node 4, Type 0, BuildingBlock: GALJAG_clean_sbu_0, # of connection points: 4
#     Node 5, Type 0, BuildingBlock: GALJAG_clean_sbu_0, # of connection points: 4
#     Node 6, Type 0, BuildingBlock: GALJAG_clean_sbu_0, # of connection points: 4
#     Node 7, Type 0, BuildingBlock: GALJAG_clean_sbu_0, # of connection points: 4
#     Edge 8, Type (0, 0), BuildingBlock: XUDNAN_clean_linker_2, # of connection points: 2
#     Edge 9, Type (0, 0), BuildingBlock: XUDNAN_clean_linker_2, # of connection points: 2
#     Edge 10, Type (0, 0), BuildingBlock: XUDNAN_clean_linker_2, # of connection points: 2
#     Edge 11, Type (0, 0), BuildingBlock: XUDNAN_clean_linker_2, # of connection points: 2
#     Edge 12, Type (0, 0), BuildingBlock: XUDNAN_clean_linker_2, # of connection points: 2
#     Edge 13, Type (0, 0), BuildingBlock: XUDNAN_clean_linker_2, # of connection points: 2
#     Edge 14, Type (0, 0), BuildingBlock: XUDNAN_clean_linker_2, # of connection points: 2
#     Edge 15, Type (0, 0), BuildingBlock: XUDNAN_clean_linker_2, # of connection points: 2
#     Edge 16, Type (0, 0), BuildingBlock: XUDNAN_clean_linker_2, # of connection points: 2
#     Edge 17, Type (0, 0), BuildingBlock: XUDNAN_clean_linker_2, # of connection points: 2
#     Edge 18, Type (0, 0), BuildingBlock: XUDNAN_clean_linker_2, # of connection points: 2
#     Edge 19, Type (0, 0), BuildingBlock: XUDNAN_clean_linker_2, # of connection points: 2
#     Edge 20, Type (0, 0), BuildingBlock: XUDNAN_clean_linker_2, # of connection points: 2
#     Edge 21, Type (0, 0), BuildingBlock: XUDNAN_clean_linker_2, # of connection points: 2
#     Edge 22, Type (0, 0), BuildingBlock: XUDNAN_clean_linker_2, # of connection points: 2
#     Edge 23, Type (0, 0), BuildingBlock: XUDNAN_clean_linker_2, # of connection points: 2
# Relax obj value: 0.108
# Max RMSD: 0.183
# Mean RMSD: 0.183
data_MOF--net-msp--node1-GALJAG_clean_sbu_0--edge1-XUDNAN_clean_linker_2
_symmetry_space_group_name_H-M    P1
_symmetry_Int_Tables_number       1
_symmetry_cell_setting            triclinic
loop_
_symmetry_equiv_pos_as_xyz
'x, y, z'
_cell_length_a     21.63114
_cell_length_b     21.336702
_cell_length_c     43.402788
_cell_angle_alpha  89.935266
_cell_angle_beta   99.690621
_cell_angle_gamma 90.089405
loop_
_atom_site_label
_atom_site_type_symbol
_atom_site_fract_x
_atom_site_fract_y
_atom_site_fract_z
_atom_type_partial_charge
In0 In 0.05682 0.25697 0.38075 0.0
O1 O 0.97227 0.21316 0.34888 0.0
O2 O 0.98824 0.31137 0.34589 0.0
C3 C 0.11507 0.16437 0.41638 0.0
C4 C 0.14128 0.27078 0.34262 0.0
C5 C 0.02888 0.32838 0.42794 0.0
O6 O 0.05687 0.16164 0.40579 0.0
O7 O 0.1425 0.21237 0.40841 0.0
O8 O 0.06921 0.34523 0.41158 0.0
O9 O 0.00227 0.2769 0.41992 0.0
C10 C 0.95535 0.26468 0.33558 0.0
O11 O 0.13228 0.31293 0.36196 0.0
O12 O 0.10746 0.22241 0.34263 0.0
In13 In 0.42985 0.2918 0.62593 0.0
O14 O 0.51678 0.25133 0.65714 0.0
O15 O 0.50219 0.34986 0.65745 0.0
C16 C 0.37353 0.19089 0.59638 0.0
C17 C 0.34845 0.30927 0.66551 0.0
C18 C 0.44999 0.35752 0.57503 0.0
O19 O 0.43257 0.19412 0.60379 0.0
O20 O 0.34405 0.23783 0.60383 0.0
O21 O 0.41481 0.37808 0.59326 0.0
O22 O 0.47488 0.30525 0.58286 0.0
C23 C 0.53548 0.304 0.66843 0.0
O24 O 0.35353 0.34827 0.64399 0.0
O25 O 0.38465 0.26257 0.66694 0.0
In26 In 0.97449 0.72596 0.63193 0.0
O27 O 0.9135 0.6951 0.66763 0.0
O28 O 0.94506 0.7899 0.66817 0.0
C29 C 0.9849 0.62313 0.59693 0.0
C30 C 0.09051 0.74458 0.66407 0.0
C31 C 0.90194 0.79516 0.58825 0.0
O32 O 0.95351 0.62302 0.61904 0.0
O33 O 0.01196 0.67431 0.59319 0.0
O34 O 0.96073 0.80288 0.59443 0.0
O35 O 0.88072 0.75317 0.60408 0.0
C36 C 0.91406 0.74891 0.68 0.0
O37 O 0.06384 0.78357 0.64422 0.0
O38 O 0.05948 0.69528 0.66677 0.0
In39 In 0.52736 0.74036 0.3662 0.0
O40 O 0.4506 0.80984 0.34569 0.0
O41 O 0.43951 0.71455 0.33198 0.0
C42 C 0.5951 0.81958 0.40763 0.0
C43 C 0.60371 0.72361 0.32391 0.0
C44 C 0.50913 0.64236 0.40359 0.0
O45 O 0.54046 0.80227 0.41014 0.0
O46 O 0.61425 0.79897 0.38383 0.0
O47 O 0.53997 0.6376 0.38145 0.0
O48 O 0.48656 0.69606 0.40647 0.0
C49 C 0.41805 0.76945 0.32898 0.0
O50 O 0.59912 0.68382 0.34507 0.0
O51 O 0.56927 0.77137 0.32396 0.0
In52 In 0.55695 0.76704 0.87639 0.0
O53 O 0.62979 0.82551 0.85677 0.0
O54 O 0.60524 0.73528 0.83699 0.0
C55 C 0.52999 0.83332 0.92543 0.0
C56 C 0.45332 0.77562 0.83267 0.0
C57 C 0.62023 0.67415 0.90949 0.0
O58 O 0.56795 0.85343 0.90846 0.0
O59 O 0.50515 0.78116 0.9171 0.0
O60 O 0.56203 0.66922 0.89918 0.0
O61 O 0.64502 0.72471 0.90273 0.0
C62 C 0.63814 0.78426 0.83686 0.0
O63 O 0.47128 0.72369 0.84523 0.0
O64 O 0.48622 0.82224 0.84308 0.0
In65 In 0.94867 0.7688 0.12092 0.0
O66 O 0.04469 0.73748 0.14603 0.0
O67 O 0.01663 0.83224 0.15159 0.0
C68 C 0.89165 0.67387 0.08734 0.0
C69 C 0.88311 0.7548 0.16762 0.0
C70 C 0.95929 0.84188 0.07138 0.0
O71 O 0.95082 0.67545 0.09511 0.0
O72 O 0.86246 0.71963 0.09643 0.0
O73 O 0.92451 0.85792 0.09088 0.0
O74 O 0.98824 0.7909 0.07755 0.0
C75 C 0.05767 0.79027 0.1589 0.0
O76 O 0.87374 0.80164 0.14925 0.0
O77 O 0.92511 0.71727 0.16221 0.0
In78 In 0.47463 0.21411 0.13647 0.0
O79 O 0.41526 0.18145 0.17258 0.0
O80 O 0.44674 0.27636 0.17368 0.0
C81 C 0.48644 0.11389 0.10004 0.0
C82 C 0.59137 0.23286 0.16772 0.0
C83 C 0.39879 0.28281 0.0939 0.0
O84 O 0.45661 0.11107 0.12272 0.0
O85 O 0.51122 0.16637 0.09649 0.0
O86 O 0.45726 0.29276 0.10004 0.0
O87 O 0.3794 0.23899 0.10931 0.0
C88 C 0.41642 0.23478 0.18551 0.0
O89 O 0.56386 0.27217 0.14827 0.0
O90 O 0.56076 0.1833 0.17046 0.0
In91 In 0.01121 0.24922 0.87047 0.0
O92 O 0.07308 0.21784 0.83522 0.0
O93 O 0.03936 0.31201 0.83339 0.0
C94 C 0.99866 0.14534 0.90466 0.0
C95 C 0.89612 0.27254 0.83824 0.0
C96 C 0.08679 0.31528 0.91425 0.0
O97 O 0.02716 0.14452 0.88145 0.0
O98 O 0.9759 0.19781 0.90997 0.0
O99 O 0.0278 0.31695 0.91217 0.0
O100 O 0.10677 0.28119 0.89442 0.0
C101 C 0.07132 0.27116 0.82211 0.0
O102 O 0.9252 0.31163 0.85731 0.0
O103 O 0.92401 0.22104 0.83662 0.0
H104 H 0.07639 0.44306 0.44958 0.0
H105 H 0.95019 0.29445 0.46795 0.0
H106 H 0.92816 0.3517 0.51422 0.0
H107 H 0.14036 0.47685 0.53023 0.0
H108 H 0.14397 0.56028 0.52423 0.0
H109 H 0.15077 0.50731 0.49268 0.0
H110 H 0.05789 0.56272 0.45768 0.0
H111 H 0.05105 0.61605 0.48905 0.0
H112 H 0.98413 0.57053 0.47142 0.0
H113 H 0.91956 0.42497 0.55859 0.0
H114 H 0.92153 0.51179 0.59646 0.0
H115 H 0.05213 0.61328 0.54903 0.0
C116 C 0.04412 0.42264 0.46335 0.0
C117 C 0.01502 0.36427 0.45515 0.0
C118 C 0.97298 0.33915 0.47373 0.0
C119 C 0.96028 0.37121 0.50014 0.0
C120 C 0.98989 0.42847 0.50768 0.0
C121 C 0.0307 0.45418 0.48978 0.0
C122 C 0.05528 0.51707 0.50271 0.0
C123 C 0.12684 0.51523 0.51308 0.0
C124 C 0.03591 0.56969 0.47879 0.0
C125 C 0.02165 0.52276 0.53053 0.0
C126 C 0.98449 0.47097 0.53311 0.0
C127 C 0.94855 0.46576 0.55684 0.0
C128 C 0.95006 0.5152 0.57828 0.0
C129 C 0.98699 0.56919 0.57573 0.0
C130 C 0.02355 0.57253 0.55165 0.0
H131 H 0.45375 0.64507 0.45614 0.0
H132 H 0.54945 0.52165 0.40019 0.0
H133 H 0.54188 0.43523 0.4373 0.0
H134 H 0.52763 0.58724 0.53046 0.0
H135 H 0.45876 0.59399 0.54852 0.0
H136 H 0.46914 0.64559 0.51691 0.0
H137 H 0.36154 0.61074 0.48602 0.0
H138 H 0.35073 0.55911 0.51757 0.0
H139 H 0.34635 0.52857 0.47855 0.0
H140 H 0.52768 0.3636 0.48119 0.0
H141 H 0.50658 0.3103 0.52874 0.0
H142 H 0.41908 0.47925 0.55662 0.0
C143 C 0.47258 0.59968 0.45155 0.0
C144 C 0.50203 0.58998 0.42518 0.0
C145 C 0.5266 0.5301 0.42017 0.0
C146 C 0.5225 0.48074 0.44112 0.0
C147 C 0.49367 0.49197 0.46698 0.0
C148 C 0.46896 0.54985 0.47227 0.0
C149 C 0.44178 0.54974 0.50234 0.0
C150 C 0.4764 0.59694 0.52595 0.0
C151 C 0.37089 0.5628 0.49571 0.0
C152 C 0.45526 0.48276 0.51317 0.0
C153 C 0.48527 0.4504 0.49238 0.0
C154 C 0.50398 0.38836 0.49756 0.0
C155 C 0.4919 0.35855 0.52471 0.0
C156 C 0.46116 0.39057 0.54641 0.0
C157 C 0.44233 0.45347 0.5404 0.0
H158 H 0.54806 0.11149 0.04993 0.0
H159 H 0.43039 0.99854 0.09998 0.0
H160 H 0.42976 0.91404 0.06093 0.0
H161 H 0.47467 0.06917 0.97335 0.0
H162 H 0.54633 0.06777 0.95734 0.0
H163 H 0.53982 0.11815 0.98989 0.0
H164 H 0.63882 0.06722 0.02208 0.0
H165 H 0.64591 0.01695 0.98954 0.0
H166 H 0.64166 0.98336 0.02726 0.0
H167 H 0.43826 0.84411 0.0152 0.0
H168 H 0.4587 0.79141 0.96737 0.0
H169 H 0.57192 0.94965 0.94729 0.0
C170 C 0.52264 0.06873 0.05288 0.0
C171 C 0.48933 0.06145 0.07804 0.0
C172 C 0.45639 0.00497 0.08096 0.0
C173 C 0.45569 0.95683 0.05886 0.0
C174 C 0.48835 0.96589 0.0341 0.0
C175 C 0.52158 0.02025 0.0311 0.0
C176 C 0.55199 0.01868 0.00208 0.0
C177 C 0.52667 0.07158 0.97933 0.0
C178 C 0.62386 0.02171 0.01077 0.0
C179 C 0.53034 0.95504 0.98905 0.0
C180 C 0.4936 0.92544 0.00786 0.0
C181 C 0.46721 0.8667 1.00039 0.0
C182 C 0.47896 0.83725 0.97311 0.0
C183 C 0.51693 0.8664 0.9536 0.0
C184 C 0.54283 0.92614 0.96176 0.0
H185 H 0.92187 0.96379 0.05563 0.0
H186 H 0.01271 0.80155 0.02279 0.0
H187 H 0.02866 0.85986 0.97584 0.0
H188 H 0.84312 0.01682 0.97886 0.0
H189 H 0.85558 0.09876 0.98795 0.0
H190 H 0.84838 0.04356 0.01861 0.0
H191 H 0.95574 0.07998 0.04918 0.0
H192 H 0.96323 0.13524 0.01863 0.0
H193 H 0.02389 0.07805 0.03033 0.0
H194 H 0.03869 0.93608 0.93324 0.0
H195 H 0.04226 0.02654 0.89791 0.0
H196 H 0.94573 0.14013 0.95778 0.0
C197 C 0.94459 0.94052 0.0384 0.0
C198 C 0.96605 0.87808 0.04294 0.0
C199 C 0.99607 0.84941 0.01996 0.0
C200 C 0.00524 0.88207 0.9931 0.0
C201 C 0.98425 0.94362 0.98941 0.0
C202 C 0.95455 0.97273 0.01136 0.0
C203 C 0.9385 0.04007 0.00199 0.0
C204 C 0.86715 0.05039 0.99653 0.0
C205 C 0.97237 0.08603 0.02649 0.0
C206 C 0.96425 0.04411 0.97159 0.0
C207 C 0.9902 0.98784 0.96472 0.0
C208 C 0.0182 0.98037 0.93825 0.0
C209 C 0.02004 0.03196 0.91832 0.0
C210 C 0.99412 0.09025 0.92498 0.0
C211 C 0.96559 0.09604 0.95192 0.0
H212 H 0.65843 0.15573 0.21162 0.0
H213 H 0.65963 0.34108 0.17036 0.0
H214 H 0.75427 0.36804 0.2083 0.0
H215 H 0.70297 0.20213 0.28999 0.0
H216 H 0.75226 0.13527 0.30163 0.0
H217 H 0.68729 0.12841 0.2699 0.0
H218 H 0.76214 0.08957 0.23328 0.0
H219 H 0.82734 0.09562 0.26499 0.0
H220 H 0.82966 0.13611 0.22873 0.0
H221 H 0.84285 0.37779 0.25289 0.0
H222 H 0.92558 0.3675 0.29911 0.0
H223 H 0.8691 0.17486 0.31113 0.0
C224 C 0.67923 0.20163 0.21024 0.0
C225 C 0.65183 0.24635 0.18802 0.0
C226 C 0.68006 0.30605 0.1871 0.0
C227 C 0.73369 0.32183 0.20859 0.0
C228 C 0.75868 0.27719 0.23065 0.0
C229 C 0.73295 0.21805 0.23143 0.0
C230 C 0.76822 0.17936 0.25804 0.0
C231 C 0.7251 0.16019 0.28126 0.0
C232 C 0.79866 0.12176 0.2455 0.0
C233 C 0.81719 0.22642 0.27242 0.0
C234 C 0.81066 0.28253 0.25623 0.0
C235 C 0.84887 0.33391 0.26557 0.0
C236 C 0.89553 0.32765 0.29196 0.0
C237 C 0.90383 0.27034 0.30867 0.0
C238 C 0.864 0.21912 0.29874 0.0
H239 H 0.6177 0.21359 0.69548 0.0
H240 H 0.57358 0.41145 0.6999 0.0
H241 H 0.65811 0.4239 0.7453 0.0
H242 H 0.65381 0.1866 0.77806 0.0
H243 H 0.71798 0.134 0.77571 0.0
H244 H 0.65408 0.14023 0.74338 0.0
H245 H 0.73223 0.16754 0.70618 0.0
H246 H 0.79639 0.16067 0.73832 0.0
H247 H 0.7861 0.23193 0.71571 0.0
H248 H 0.74565 0.41464 0.79094 0.0
H249 H 0.83647 0.38586 0.83099 0.0
H250 H 0.82497 0.19469 0.79636 0.0
C251 C 0.62609 0.25956 0.70591 0.0
C252 C 0.58905 0.31153 0.69421 0.0
C253 C 0.60147 0.37098 0.70846 0.0
C254 C 0.64919 0.3785 0.73434 0.0
C255 C 0.68427 0.3262 0.74562 0.0
C256 C 0.67385 0.26802 0.73169 0.0
C257 C 0.71921 0.21976 0.74806 0.0
C258 C 0.68416 0.16704 0.76214 0.0
C259 C 0.76096 0.19345 0.72574 0.0
C260 C 0.75658 0.25992 0.77336 0.0
C261 C 0.73537 0.32106 0.77169 0.0
C262 C 0.76275 0.36691 0.79249 0.0
C263 C 0.81407 0.35008 0.81525 0.0
C264 C 0.83759 0.28808 0.81683 0.0
C265 C 0.80783 0.24241 0.79582 0.0
H266 H 0.15749 0.66704 0.70783 0.0
H267 H 0.15741 0.85364 0.66784 0.0
H268 H 0.25086 0.8809 0.70647 0.0
H269 H 0.2004 0.71149 0.78678 0.0
H270 H 0.25043 0.64499 0.79806 0.0
H271 H 0.18582 0.63826 0.76613 0.0
H272 H 0.26155 0.60182 0.72945 0.0
H273 H 0.3264 0.6077 0.76135 0.0
H274 H 0.32863 0.64951 0.72544 0.0
H275 H 0.33846 0.89056 0.75144 0.0
H276 H 0.42153 0.87968 0.79745 0.0
H277 H 0.36746 0.68572 0.80786 0.0
C278 C 0.17774 0.71331 0.70691 0.0
C279 C 0.15033 0.75828 0.68482 0.0
C280 C 0.17787 0.81843 0.68446 0.0
C281 C 0.23078 0.83439 0.70636 0.0
C282 C 0.2558 0.78948 0.72826 0.0
C283 C 0.23082 0.7299 0.72849 0.0
C284 C 0.26631 0.69081 0.75488 0.0
C285 C 0.22315 0.6702 0.77781 0.0
C286 C 0.29759 0.63412 0.742 0.0
C287 C 0.3146 0.7381 0.76972 0.0
C288 C 0.30741 0.79472 0.75401 0.0
C289 C 0.345 0.84631 0.76376 0.0
C290 C 0.39184 0.83969 0.79003 0.0
C291 C 0.40101 0.78181 0.80619 0.0
C292 C 0.36165 0.73044 0.7959 0.0
H293 H 0.3469 0.69013 0.28819 0.0
H294 H 0.36444 0.88508 0.3168 0.0
H295 H 0.27574 0.91244 0.27513 0.0
H296 H 0.31169 0.71833 0.2061 0.0
H297 H 0.25643 0.65462 0.19844 0.0
H298 H 0.32 0.65013 0.23101 0.0
H299 H 0.24091 0.63158 0.26882 0.0
H300 H 0.17714 0.63528 0.23634 0.0
H301 H 0.1779 0.68656 0.26938 0.0
H302 H 0.1858 0.91818 0.22997 0.0
H303 H 0.09848 0.9015 0.18614 0.0
H304 H 0.14165 0.70288 0.18673 0.0
C305 C 0.33177 0.73852 0.28589 0.0
C306 C 0.36231 0.78553 0.30576 0.0
C307 C 0.34143 0.84834 0.30188 0.0
C308 C 0.29131 0.86432 0.27823 0.0
C309 C 0.26284 0.81689 0.25872 0.0
C310 C 0.28211 0.75524 0.26242 0.0
C311 C 0.24388 0.71312 0.23835 0.0
C312 C 0.2855 0.68225 0.21723 0.0
C313 C 0.20781 0.66374 0.25417 0.0
C314 C 0.19994 0.76069 0.22049 0.0
C315 C 0.21166 0.82029 0.23257 0.0
C316 C 0.17628 0.87175 0.22029 0.0
C317 C 0.12693 0.86183 0.19535 0.0
C318 C 0.11358 0.80096 0.18295 0.0
C319 C 0.15117 0.75002 0.1955 0.0
H320 H 0.33206 0.16105 0.20998 0.0
H321 H 0.42619 0.34152 0.22018 0.0
H322 H 0.36824 0.36928 0.26249 0.0
H323 H 0.18278 0.21683 0.2214 0.0
H324 H 0.16422 0.14908 0.24297 0.0
H325 H 0.21573 0.14153 0.21464 0.0
H326 H 0.30162 0.09381 0.25696 0.0
H327 H 0.25026 0.10099 0.28541 0.0
H328 H 0.3271 0.13626 0.29275 0.0
H329 H 0.29768 0.37933 0.30237 0.0
H330 H 0.219 0.37024 0.33742 0.0
H331 H 0.16989 0.18409 0.30092 0.0
C332 C 0.34092 0.20607 0.22138 0.0
C333 C 0.38369 0.24907 0.21188 0.0
C334 C 0.3936 0.30784 0.22711 0.0
C335 C 0.36099 0.32406 0.25119 0.0
C336 C 0.31857 0.28103 0.25977 0.0
C337 C 0.30848 0.22319 0.24542 0.0
C338 C 0.25871 0.18649 0.25844 0.0
C339 C 0.20201 0.1727 0.23283 0.0
C340 C 0.28608 0.1258 0.27434 0.0
C341 C 0.24219 0.23296 0.28213 0.0
C342 C 0.27743 0.28708 0.28263 0.0
C343 C 0.26991 0.33709 0.30231 0.0
C344 C 0.22511 0.33158 0.32207 0.0
C345 C 0.18842 0.27657 0.32185 0.0
C346 C 0.19729 0.22675 0.30161 0.0
H347 H 0.32206 0.22414 0.7085 0.0
H348 H 0.27049 0.40865 0.67052 0.0
H349 H 0.19251 0.41795 0.70598 0.0
H350 H 0.1665 0.17488 0.71655 0.0
H351 H 0.19199 0.13281 0.75247 0.0
H352 H 0.24388 0.14102 0.72432 0.0
H353 H 0.32849 0.1905 0.76671 0.0
H354 H 0.27698 0.18229 0.79502 0.0
H355 H 0.30891 0.25806 0.78803 0.0
H356 H 0.12147 0.40732 0.74592 0.0
H357 H 0.06193 0.3782 0.78749 0.0
H358 H 0.15852 0.19935 0.79875 0.0
C359 C 0.29448 0.26661 0.70766 0.0
C360 C 0.30234 0.31584 0.68683 0.0
C361 C 0.26517 0.37046 0.68633 0.0
C362 C 0.22081 0.37608 0.70634 0.0
C363 C 0.2141 0.32651 0.72652 0.0
C364 C 0.24985 0.2728 0.7273 0.0
C365 C 0.23344 0.22627 0.75108 0.0
C366 C 0.2074 0.16514 0.73515 0.0
C367 C 0.29034 0.21357 0.77673 0.0
C368 C 0.18298 0.26233 0.76375 0.0
C369 C 0.17261 0.32003 0.74925 0.0
C370 C 0.12904 0.36221 0.75734 0.0
C371 C 0.09547 0.34519 0.781 0.0
C372 C 0.10546 0.28641 0.79628 0.0
C373 C 0.14955 0.24436 0.78733 0.0
H374 H 0.66768 0.69788 0.79537 0.0
H375 H 0.71222 0.88605 0.83017 0.0
H376 H 0.7896 0.89641 0.79446 0.0
H377 H 0.82482 0.65388 0.78748 0.0
H378 H 0.80039 0.60939 0.75224 0.0
H379 H 0.74876 0.61689 0.78054 0.0
H380 H 0.66178 0.6614 0.73776 0.0
H381 H 0.71303 0.65389 0.70931 0.0
H382 H 0.67842 0.72871 0.71536 0.0
H383 H 0.86047 0.88656 0.75449 0.0
H384 H 0.92015 0.85787 0.71295 0.0
H385 H 0.83029 0.67518 0.7048 0.0
C386 C 0.69366 0.74133 0.79549 0.0
C387 C 0.68398 0.7913 0.81547 0.0
C388 C 0.71896 0.84728 0.81501 0.0
C389 C 0.76298 0.85352 0.79485 0.0
C390 C 0.77145 0.80323 0.77549 0.0
C391 C 0.73781 0.74821 0.77566 0.0
C392 C 0.75553 0.7013 0.75247 0.0
C393 C 0.78408 0.64186 0.76919 0.0
C394 C 0.69881 0.68542 0.72723 0.0
C395 C 0.80427 0.73866 0.73905 0.0
C396 C 0.81273 0.79731 0.75268 0.0
C397 C 0.85441 0.84073 0.74374 0.0
C398 C 0.88805 0.82396 0.72012 0.0
C399 C 0.87993 0.76424 0.70574 0.0
C400 C 0.83776 0.72098 0.71553 0.0
H401 H 0.78675 0.82413 0.18555 0.0
H402 H 0.89793 0.65546 0.20712 0.0
H403 H 0.83758 0.62902 0.24847 0.0
H404 H 0.77332 0.86112 0.26578 0.0
H405 H 0.6937 0.88875 0.25616 0.0
H406 H 0.74568 0.89521 0.22795 0.0
H407 H 0.66609 0.83388 0.18772 0.0
H408 H 0.614 0.82698 0.21586 0.0
H409 H 0.63962 0.75766 0.19795 0.0
H410 H 0.76537 0.61887 0.28683 0.0
H411 H 0.68697 0.62845 0.3218 0.0
H412 H 0.62213 0.80365 0.27664 0.0
C413 C 0.79841 0.78183 0.19908 0.0
C414 C 0.84705 0.74188 0.19303 0.0
C415 C 0.86091 0.68687 0.21125 0.0
C416 C 0.82683 0.67127 0.23482 0.0
C417 C 0.77899 0.71116 0.24007 0.0
C418 C 0.7648 0.76548 0.22293 0.0
C419 C 0.71107 0.80007 0.23374 0.0
C420 C 0.73223 0.86514 0.24668 0.0
C421 C 0.65434 0.80491 0.20724 0.0
C422 C 0.69754 0.75653 0.25949 0.0
C423 C 0.73722 0.70547 0.26261 0.0
C424 C 0.73398 0.65867 0.2847 0.0
C425 C 0.68925 0.66443 0.30441 0.0
C426 C 0.6485 0.71668 0.30193 0.0
C427 C 0.65262 0.7631 0.27904 0.0
H428 H 0.40151 0.15374 0.54122 0.0
H429 H 0.26809 0.12805 0.60378 0.0
H430 H 0.19385 0.07874 0.56144 0.0
H431 H 0.30624 0.21644 0.48712 0.0
H432 H 0.33313 0.18492 0.45318 0.0
H433 H 0.38573 0.18887 0.48953 0.0
H434 H 0.40632 0.06959 0.48727 0.0
H435 H 0.35353 0.0653 0.45042 0.0
H436 H 0.34138 0.01543 0.48241 0.0
H437 H 0.12377 0.06628 0.51158 0.0
H438 H 0.06469 0.10014 0.46071 0.0
H439 H 0.23906 0.14007 0.42831 0.0
C440 C 0.3584 0.13344 0.54626 0.0
C441 C 0.34083 0.14269 0.57568 0.0
C442 C 0.28269 0.11961 0.58146 0.0
C443 C 0.24034 0.09143 0.55749 0.0
C444 C 0.25655 0.0875 0.52775 0.0
C445 C 0.31477 0.10741 0.5221 0.0
C446 C 0.31514 0.11375 0.48736 0.0
C447 C 0.33617 0.17989 0.47885 0.0
C448 C 0.35654 0.06297 0.47621 0.0
C449 C 0.24652 0.10183 0.47467 0.0
C450 C 0.21422 0.08311 0.49807 0.0
C451 C 0.14877 0.07888 0.49288 0.0
C452 C 0.1154 0.09805 0.46384 0.0
C453 C 0.14766 0.12245 0.44079 0.0
C454 C 0.21374 0.12056 0.44559 0.0
H455 H 0.77467 0.7948 0.57668 0.0
H456 H 0.937 0.86711 0.5417 0.0
H457 H 0.86796 0.90499 0.4941 0.0
H458 H 0.70348 0.73105 0.51039 0.0
H459 H 0.62386 0.749 0.5145 0.0
H460 H 0.68307 0.74253 0.5486 0.0
H461 H 0.65679 0.85442 0.56566 0.0
H462 H 0.59713 0.86123 0.53139 0.0
H463 H 0.65843 0.91924 0.53913 0.0
H464 H 0.78678 0.91106 0.44633 0.0
H465 H 0.70062 0.88642 0.40308 0.0
H466 H 0.58935 0.8149 0.46951 0.0
C467 C 0.79541 0.82064 0.55949 0.0
C468 C 0.86101 0.82819 0.56277 0.0
C469 C 0.88673 0.86134 0.53968 0.0
C470 C 0.8478 0.88319 0.51265 0.0
C471 C 0.78333 0.87258 0.50947 0.0
C472 C 0.7572 0.84293 0.53256 0.0
C473 C 0.68818 0.82947 0.5219 0.0
C474 C 0.6739 0.75887 0.52395 0.0
C475 C 0.64775 0.86844 0.54064 0.0
C476 C 0.68054 0.85174 0.48838 0.0
C477 C 0.73557 0.87782 0.48183 0.0
C478 C 0.74284 0.89283 0.45137 0.0
C479 C 0.69373 0.87863 0.42693 0.0
C480 C 0.63816 0.84989 0.43316 0.0
C481 C 0.63052 0.83894 0.46431 0.0
H482 H 0.91542 0.65138 0.02971 0.0
H483 H 0.7891 0.60499 0.09344 0.0
H484 H 0.71272 0.56282 0.04978 0.0
H485 H 0.81396 0.72226 0.98116 0.0
H486 H 0.83858 0.70079 0.94491 0.0
H487 H 0.8938 0.69878 0.98047 0.0
H488 H 0.91769 0.58213 0.97107 0.0
H489 H 0.8624 0.5839 0.93498 0.0
H490 H 0.85454 0.52596 0.96434 0.0
H491 H 0.63927 0.55841 1.00045 0.0
H492 H 0.57572 0.59948 0.95211 0.0
H493 H 0.74518 0.65558 0.91889 0.0
C494 C 0.87353 0.62803 0.03446 0.0
C495 C 0.85854 0.62925 0.06473 0.0
C496 C 0.8018 0.6025 0.07037 0.0
C497 C 0.75824 0.57842 0.04564 0.0
C498 C 0.77183 0.58238 0.01538 0.0
C499 C 0.82867 0.60613 0.00971 0.0
C500 C 0.82593 0.62083 0.97535 0.0
C501 C 0.84402 0.6897 0.97023 0.0
C502 C 0.8676 0.57548 0.96057 0.0
C503 C 0.75719 0.60834 0.96328 0.0
C504 C 0.7275 0.5829 0.98627 0.0
C505 C 0.66227 0.57636 0.98197 0.0
C506 C 0.62636 0.59968 0.95439 0.0
C507 C 0.65591 0.63037 0.93195 0.0
C508 C 0.72192 0.63133 0.93566 0.0
H509 H 0.27137 0.27756 0.08224 0.0
H510 H 0.43091 0.35907 0.04828 0.0
H511 H 0.36044 0.39758 0.00131 0.0
H512 H 0.20054 0.21725 0.01428 0.0
H513 H 0.12074 0.23219 0.01913 0.0
H514 H 0.1807 0.22404 0.05286 0.0
H515 H 0.15224 0.33307 0.07269 0.0
H516 H 0.09183 0.34154 0.03884 0.0
H517 H 0.15183 0.40062 0.04767 0.0
H518 H 0.27898 0.40389 0.95373 0.0
H519 H 0.19193 0.38191 0.9104 0.0
H520 H 0.0828 0.3032 0.9759 0.0
C521 C 0.29114 0.3054 0.06541 0.0
C522 C 0.35646 0.31551 0.06881 0.0
C523 C 0.38089 0.35129 0.04618 0.0
C524 C 0.34116 0.37347 0.01949 0.0
C525 C 0.2771 0.36055 0.01621 0.0
C526 C 0.25206 0.32825 0.03886 0.0
C527 C 0.18322 0.31377 0.02818 0.0
C528 C 0.17063 0.24263 0.02862 0.0
C529 C 0.14237 0.3494 0.04803 0.0
C530 C 0.17436 0.33921 0.99517 0.0
C531 C 0.22885 0.36693 0.98887 0.0
C532 C 0.23534 0.38469 0.95865 0.0
C533 C 0.18581 0.37208 0.9342 0.0
C534 C 0.13038 0.34291 0.94021 0.0
C535 C 0.12371 0.32833 0.97112 0.0
loop_
_geom_bond_atom_site_label_1
_geom_bond_atom_site_label_2
_geom_bond_distance
_geom_bond_site_symmetry_2
_ccdc_geom_bond_type
In0 O1 2.294 1_455 S
In0 O2 2.326 1_455 S
In0 O6 2.266 . S
In0 O7 2.326 . S
In0 O8 2.266 . S
In0 O9 2.326 1_455 S
In0 O11 2.294 . S
In0 O12 2.326 . S
O1 In0 2.294 1_655 S
O1 C10 1.240 . S
O2 In0 2.326 1_655 S
O2 C10 1.252 . S
C3 O6 1.252 . S
C3 O7 1.260 . S
C4 O11 1.240 . S
C4 O12 1.252 . S
C5 O8 1.252 . S
C5 O9 1.260 1_455 S
O6 In0 2.266 . S
O6 C3 1.252 . S
O7 In0 2.326 . S
O7 C3 1.260 . S
O8 In0 2.266 . S
O8 C5 1.252 . S
O9 In0 2.326 1_655 S
O9 C5 1.260 1_655 S
C10 O1 1.240 . S
C10 O2 1.252 . S
O11 In0 2.294 . S
O11 C4 1.240 . S
O12 In0 2.326 . S
O12 C4 1.252 . S
In13 O14 2.294 . S
In13 O15 2.326 . S
In13 O19 2.266 . S
In13 O20 2.326 . S
In13 O21 2.266 . S
In13 O22 2.326 . S
In13 O24 2.294 . S
In13 O25 2.326 . S
O14 In13 2.294 . S
O14 C23 1.240 . S
O15 In13 2.326 . S
O15 C23 1.252 . S
C16 O19 1.252 . S
C16 O20 1.260 . S
C17 O24 1.240 . S
C17 O25 1.252 . S
C18 O21 1.252 . S
C18 O22 1.260 . S
O19 In13 2.266 . S
O19 C16 1.252 . S
O20 In13 2.326 . S
O20 C16 1.260 . S
O21 In13 2.266 . S
O21 C18 1.252 . S
O22 In13 2.326 . S
O22 C18 1.260 . S
C23 O14 1.240 . S
C23 O15 1.252 . S
O24 In13 2.294 . S
O24 C17 1.240 . S
O25 In13 2.326 . S
O25 C17 1.252 . S
In26 O27 2.294 . S
In26 O28 2.326 . S
In26 O32 2.266 . S
In26 O33 2.326 1_655 S
In26 O34 2.266 . S
In26 O35 2.326 . S
In26 O37 2.294 1_655 S
In26 O38 2.326 1_655 S
O27 In26 2.294 . S
O27 C36 1.240 . S
O28 In26 2.326 . S
O28 C36 1.252 . S
C29 O32 1.252 . S
C29 O33 1.260 1_655 S
C30 O37 1.240 . S
C30 O38 1.252 . S
C31 O34 1.252 . S
C31 O35 1.260 . S
O32 In26 2.266 . S
O32 C29 1.252 . S
O33 In26 2.326 1_455 S
O33 C29 1.260 1_455 S
O34 In26 2.266 . S
O34 C31 1.252 . S
O35 In26 2.326 . S
O35 C31 1.260 . S
C36 O27 1.240 . S
C36 O28 1.252 . S
O37 In26 2.294 1_455 S
O37 C30 1.240 . S
O38 In26 2.326 1_455 S
O38 C30 1.252 . S
In39 O40 2.294 . S
In39 O41 2.326 . S
In39 O45 2.266 . S
In39 O46 2.326 . S
In39 O47 2.266 . S
In39 O48 2.326 . S
In39 O50 2.294 . S
In39 O51 2.326 . S
O40 In39 2.294 . S
O40 C49 1.240 . S
O41 In39 2.326 . S
O41 C49 1.252 . S
C42 O45 1.252 . S
C42 O46 1.260 . S
C43 O50 1.240 . S
C43 O51 1.252 . S
C44 O47 1.252 . S
C44 O48 1.260 . S
O45 In39 2.266 . S
O45 C42 1.252 . S
O46 In39 2.326 . S
O46 C42 1.260 . S
O47 In39 2.266 . S
O47 C44 1.252 . S
O48 In39 2.326 . S
O48 C44 1.260 . S
C49 O40 1.240 . S
C49 O41 1.252 . S
O50 In39 2.294 . S
O50 C43 1.240 . S
O51 In39 2.326 . S
O51 C43 1.252 . S
In52 O53 2.294 . S
In52 O54 2.326 . S
In52 O58 2.266 . S
In52 O59 2.326 . S
In52 O60 2.266 . S
In52 O61 2.326 . S
In52 O63 2.294 . S
In52 O64 2.326 . S
O53 In52 2.294 . S
O53 C62 1.240 . S
O54 In52 2.326 . S
O54 C62 1.252 . S
C55 O58 1.252 . S
C55 O59 1.260 . S
C56 O63 1.240 . S
C56 O64 1.252 . S
C57 O60 1.252 . S
C57 O61 1.260 . S
O58 In52 2.266 . S
O58 C55 1.252 . S
O59 In52 2.326 . S
O59 C55 1.260 . S
O60 In52 2.266 . S
O60 C57 1.252 . S
O61 In52 2.326 . S
O61 C57 1.260 . S
C62 O53 1.240 . S
C62 O54 1.252 . S
O63 In52 2.294 . S
O63 C56 1.240 . S
O64 In52 2.326 . S
O64 C56 1.252 . S
In65 O66 2.294 1_655 S
In65 O67 2.326 1_655 S
In65 O71 2.266 . S
In65 O72 2.326 . S
In65 O73 2.266 . S
In65 O74 2.326 1_655 S
In65 O76 2.294 . S
In65 O77 2.326 . S
O66 In65 2.294 1_455 S
O66 C75 1.240 . S
O67 In65 2.326 1_455 S
O67 C75 1.252 . S
C68 O71 1.252 . S
C68 O72 1.260 . S
C69 O76 1.240 . S
C69 O77 1.252 . S
C70 O73 1.252 . S
C70 O74 1.260 1_655 S
O71 In65 2.266 . S
O71 C68 1.252 . S
O72 In65 2.326 . S
O72 C68 1.260 . S
O73 In65 2.266 . S
O73 C70 1.252 . S
O74 In65 2.326 1_455 S
O74 C70 1.260 1_455 S
C75 O66 1.240 . S
C75 O67 1.252 . S
O76 In65 2.294 . S
O76 C69 1.240 . S
O77 In65 2.326 . S
O77 C69 1.252 . S
In78 O79 2.294 . S
In78 O80 2.326 . S
In78 O84 2.266 . S
In78 O85 2.326 . S
In78 O86 2.266 . S
In78 O87 2.326 . S
In78 O89 2.294 . S
In78 O90 2.326 . S
O79 In78 2.294 . S
O79 C88 1.240 . S
O80 In78 2.326 . S
O80 C88 1.252 . S
C81 O84 1.252 . S
C81 O85 1.260 . S
C82 O89 1.240 . S
C82 O90 1.252 . S
C83 O86 1.252 . S
C83 O87 1.260 . S
O84 In78 2.266 . S
O84 C81 1.252 . S
O85 In78 2.326 . S
O85 C81 1.260 . S
O86 In78 2.266 . S
O86 C83 1.252 . S
O87 In78 2.326 . S
O87 C83 1.260 . S
C88 O79 1.240 . S
C88 O80 1.252 . S
O89 In78 2.294 . S
O89 C82 1.240 . S
O90 In78 2.326 . S
O90 C82 1.252 . S
In91 O92 2.294 . S
In91 O93 2.326 . S
In91 O97 2.266 . S
In91 O98 2.326 1_455 S
In91 O99 2.266 . S
In91 O100 2.326 . S
In91 O102 2.294 1_455 S
In91 O103 2.326 1_455 S
O92 In91 2.294 . S
O92 C101 1.240 . S
O93 In91 2.326 . S
O93 C101 1.252 . S
C94 O97 1.252 . S
C94 O98 1.260 1_455 S
C95 O102 1.240 . S
C95 O103 1.252 . S
C96 O99 1.252 . S
C96 O100 1.260 . S
O97 In91 2.266 . S
O97 C94 1.252 . S
O98 In91 2.326 1_655 S
O98 C94 1.260 1_655 S
O99 In91 2.266 . S
O99 C96 1.252 . S
O100 In91 2.326 . S
O100 C96 1.260 . S
C101 O92 1.240 . S
C101 O93 1.252 . S
O102 In91 2.294 1_655 S
O102 C95 1.240 . S
O103 In91 2.326 1_655 S
O103 C95 1.252 . S
H104 C116 0.930 . S
H105 C118 0.930 . S
H106 C119 0.930 . S
H107 C123 0.959 . S
H108 C123 0.959 . S
H109 C123 0.961 . S
H110 C124 0.960 . S
H111 C124 0.961 . S
H112 C124 0.959 . S
H113 C127 0.929 . S
H114 C128 0.931 . S
H115 C130 0.930 . S
C116 H104 0.930 . S
C116 C117 1.387 1_455 S
C116 C121 1.399 . S
C117 C116 1.387 1_655 S
C117 C118 1.395 . S
C118 H105 0.930 . S
C118 C117 1.395 . S
C118 C119 1.388 . S
C119 H106 0.930 . S
C119 C118 1.388 . S
C119 C120 1.390 . S
C120 C119 1.390 . S
C120 C121 1.394 1_655 S
C120 C126 1.465 . S
C121 C116 1.399 . S
C121 C120 1.394 1_455 S
C121 C122 1.516 . S
C122 C121 1.516 . S
C122 C123 1.502 . S
C122 C124 1.561 . S
C122 C125 1.526 . S
C123 H107 0.959 . S
C123 H108 0.959 . S
C123 H109 0.961 . S
C123 C122 1.502 . S
C124 H110 0.960 . S
C124 H111 0.961 . S
C124 H112 0.959 . S
C124 C122 1.561 . S
C125 C122 1.526 . S
C125 C126 1.396 1_455 S
C125 C130 1.390 . S
C126 C120 1.465 . S
C126 C125 1.396 1_655 S
C126 C127 1.399 . S
C127 H113 0.929 . S
C127 C126 1.399 . S
C127 C128 1.385 . S
C128 H114 0.931 . S
C128 C127 1.385 . S
C128 C129 1.389 . S
C129 C128 1.389 . S
C129 C130 1.387 1_655 S
C130 H115 0.930 . S
C130 C125 1.390 . S
C130 C129 1.387 1_455 S
H131 C143 0.930 . S
H132 C145 0.930 . S
H133 C146 0.930 . S
H134 C150 0.959 . S
H135 C150 0.959 . S
H136 C150 0.961 . S
H137 C151 0.960 . S
H138 C151 0.961 . S
H139 C151 0.959 . S
H140 C154 0.929 . S
H141 C155 0.931 . S
H142 C157 0.930 . S
C143 H131 0.930 . S
C143 C144 1.399 . S
C143 C148 1.399 . S
C144 C143 1.399 . S
C144 C145 1.376 . S
C145 H132 0.930 . S
C145 C144 1.376 . S
C145 C146 1.388 . S
C146 H133 0.930 . S
C146 C145 1.388 . S
C146 C147 1.390 . S
C147 C146 1.390 . S
C147 C148 1.394 . S
C147 C153 1.465 . S
C148 C143 1.399 . S
C148 C147 1.394 . S
C148 C149 1.516 . S
C149 C148 1.516 . S
C149 C150 1.502 . S
C149 C151 1.561 . S
C149 C152 1.526 . S
C150 H134 0.959 . S
C150 H135 0.959 . S
C150 H136 0.961 . S
C150 C149 1.502 . S
C151 H137 0.960 . S
C151 H138 0.961 . S
C151 H139 0.959 . S
C151 C149 1.561 . S
C152 C149 1.526 . S
C152 C153 1.396 . S
C152 C157 1.390 . S
C153 C147 1.465 . S
C153 C152 1.396 . S
C153 C154 1.399 . S
C154 H140 0.929 . S
C154 C153 1.399 . S
C154 C155 1.385 . S
C155 H141 0.931 . S
C155 C154 1.385 . S
C155 C156 1.389 . S
C156 C155 1.389 . S
C156 C157 1.387 . S
C157 H142 0.930 . S
C157 C152 1.390 . S
C157 C156 1.387 . S
H158 C170 0.930 . S
H159 C172 0.930 . S
H160 C173 0.930 . S
H161 C177 0.959 . S
H162 C177 0.959 . S
H163 C177 0.961 . S
H164 C178 0.960 . S
H165 C178 0.961 . S
H166 C178 0.959 . S
H167 C181 0.929 1_554 S
H168 C182 0.931 . S
H169 C184 0.930 . S
C170 H158 0.930 . S
C170 C171 1.399 . S
C170 C175 1.399 . S
C171 C170 1.399 . S
C171 C172 1.376 . S
C172 H159 0.930 . S
C172 C171 1.376 . S
C172 C173 1.388 1_545 S
C173 H160 0.930 . S
C173 C172 1.388 1_565 S
C173 C174 1.390 . S
C174 C173 1.390 . S
C174 C175 1.394 1_565 S
C174 C180 1.465 1_554 S
C175 C170 1.399 . S
C175 C174 1.394 1_545 S
C175 C176 1.516 1_554 S
C176 C175 1.516 1_556 S
C176 C177 1.502 . S
C176 C178 1.561 . S
C176 C179 1.526 1_545 S
C177 H161 0.959 . S
C177 H162 0.959 . S
C177 H163 0.961 . S
C177 C176 1.502 . S
C178 H164 0.960 . S
C178 H165 0.961 . S
C178 H166 0.959 . S
C178 C176 1.561 . S
C179 C176 1.526 1_565 S
C179 C180 1.396 . S
C179 C184 1.390 . S
C180 C174 1.465 1_556 S
C180 C179 1.396 . S
C180 C181 1.399 . S
C181 H167 0.929 1_556 S
C181 C180 1.399 . S
C181 C182 1.385 . S
C182 H168 0.931 . S
C182 C181 1.385 . S
C182 C183 1.389 . S
C183 C182 1.389 . S
C183 C184 1.387 . S
C184 H169 0.930 . S
C184 C179 1.390 . S
C184 C183 1.387 . S
H185 C197 0.930 . S
H186 C199 0.930 . S
H187 C200 0.930 1_556 S
H188 C204 0.959 . S
H189 C204 0.959 . S
H190 C204 0.961 . S
H191 C205 0.960 . S
H192 C205 0.961 . S
H193 C205 0.959 . S
H194 C208 0.929 . S
H195 C209 0.931 . S
H196 C211 0.930 . S
C197 H185 0.930 . S
C197 C198 1.403 . S
C197 C202 1.399 . S
C198 C197 1.403 . S
C198 C199 1.368 1_655 S
C199 H186 0.930 . S
C199 C198 1.368 1_455 S
C199 C200 1.388 . S
C200 H187 0.930 1_554 S
C200 C199 1.388 . S
C200 C201 1.390 . S
C201 C200 1.390 . S
C201 C202 1.394 1_455 S
C201 C207 1.474 1_554 S
C202 C197 1.399 . S
C202 C201 1.394 1_655 S
C202 C203 1.516 1_565 S
C203 C202 1.516 1_545 S
C203 C204 1.502 . S
C203 C205 1.561 1_655 S
C203 C206 1.526 1_554 S
C204 H188 0.959 . S
C204 H189 0.959 . S
C204 H190 0.961 . S
C204 C203 1.502 . S
C205 H191 0.960 . S
C205 H192 0.961 . S
C205 H193 0.959 . S
C205 C203 1.561 1_455 S
C206 C203 1.526 1_556 S
C206 C207 1.383 1_645 S
C206 C211 1.390 . S
C207 C201 1.474 1_556 S
C207 C206 1.383 1_465 S
C207 C208 1.401 . S
C208 H194 0.929 . S
C208 C207 1.401 . S
C208 C209 1.385 1_565 S
C209 H195 0.931 . S
C209 C208 1.385 1_545 S
C209 C210 1.389 . S
C210 C209 1.389 . S
C210 C211 1.387 1_455 S
C211 H196 0.930 . S
C211 C206 1.390 . S
C211 C210 1.387 1_655 S
H212 C224 0.930 . S
H213 C226 0.930 . S
H214 C227 0.930 . S
H215 C231 0.959 . S
H216 C231 0.959 . S
H217 C231 0.961 . S
H218 C232 0.960 . S
H219 C232 0.961 . S
H220 C232 0.959 . S
H221 C235 0.929 . S
H222 C236 0.931 . S
H223 C238 0.930 . S
C224 H212 0.930 . S
C224 C225 1.399 . S
C224 C229 1.399 . S
C225 C224 1.399 . S
C225 C226 1.376 . S
C226 H213 0.930 . S
C226 C225 1.376 . S
C226 C227 1.388 . S
C227 H214 0.930 . S
C227 C226 1.388 . S
C227 C228 1.390 . S
C228 C227 1.390 . S
C228 C229 1.394 . S
C228 C234 1.465 . S
C229 C224 1.399 . S
C229 C228 1.394 . S
C229 C230 1.516 . S
C230 C229 1.516 . S
C230 C231 1.502 . S
C230 C232 1.561 . S
C230 C233 1.526 . S
C231 H215 0.959 . S
C231 H216 0.959 . S
C231 H217 0.961 . S
C231 C230 1.502 . S
C232 H218 0.960 . S
C232 H219 0.961 . S
C232 H220 0.959 . S
C232 C230 1.561 . S
C233 C230 1.526 . S
C233 C234 1.396 . S
C233 C238 1.390 . S
C234 C228 1.465 . S
C234 C233 1.396 . S
C234 C235 1.399 . S
C235 H221 0.929 . S
C235 C234 1.399 . S
C235 C236 1.385 . S
C236 H222 0.931 . S
C236 C235 1.385 . S
C236 C237 1.389 . S
C237 C236 1.389 . S
C237 C238 1.387 . S
C238 H223 0.930 . S
C238 C233 1.390 . S
C238 C237 1.387 . S
H239 C251 0.930 . S
H240 C253 0.930 . S
H241 C254 0.930 . S
H242 C258 0.959 . S
H243 C258 0.959 . S
H244 C258 0.961 . S
H245 C259 0.960 . S
H246 C259 0.961 . S
H247 C259 0.959 . S
H248 C262 0.929 . S
H249 C263 0.931 . S
H250 C265 0.930 . S
C251 H239 0.930 . S
C251 C252 1.399 . S
C251 C256 1.399 . S
C252 C251 1.399 . S
C252 C253 1.376 . S
C253 H240 0.930 . S
C253 C252 1.376 . S
C253 C254 1.388 . S
C254 H241 0.930 . S
C254 C253 1.388 . S
C254 C255 1.390 . S
C255 C254 1.390 . S
C255 C256 1.394 . S
C255 C261 1.465 . S
C256 C251 1.399 . S
C256 C255 1.394 . S
C256 C257 1.516 . S
C257 C256 1.516 . S
C257 C258 1.502 . S
C257 C259 1.561 . S
C257 C260 1.526 . S
C258 H242 0.959 . S
C258 H243 0.959 . S
C258 H244 0.961 . S
C258 C257 1.502 . S
C259 H245 0.960 . S
C259 H246 0.961 . S
C259 H247 0.959 . S
C259 C257 1.561 . S
C260 C257 1.526 . S
C260 C261 1.396 . S
C260 C265 1.390 . S
C261 C255 1.465 . S
C261 C260 1.396 . S
C261 C262 1.399 . S
C262 H248 0.929 . S
C262 C261 1.399 . S
C262 C263 1.385 . S
C263 H249 0.931 . S
C263 C262 1.385 . S
C263 C264 1.389 . S
C264 C263 1.389 . S
C264 C265 1.387 . S
C265 H250 0.930 . S
C265 C260 1.390 . S
C265 C264 1.387 . S
H266 C278 0.930 . S
H267 C280 0.930 . S
H268 C281 0.930 . S
H269 C285 0.959 . S
H270 C285 0.959 . S
H271 C285 0.961 . S
H272 C286 0.960 . S
H273 C286 0.961 . S
H274 C286 0.959 . S
H275 C289 0.929 . S
H276 C290 0.931 . S
H277 C292 0.930 . S
C278 H266 0.930 . S
C278 C279 1.399 . S
C278 C283 1.399 . S
C279 C278 1.399 . S
C279 C280 1.376 . S
C280 H267 0.930 . S
C280 C279 1.376 . S
C280 C281 1.388 . S
C281 H268 0.930 . S
C281 C280 1.388 . S
C281 C282 1.390 . S
C282 C281 1.390 . S
C282 C283 1.394 . S
C282 C288 1.465 . S
C283 C278 1.399 . S
C283 C282 1.394 . S
C283 C284 1.516 . S
C284 C283 1.516 . S
C284 C285 1.502 . S
C284 C286 1.561 . S
C284 C287 1.526 . S
C285 H269 0.959 . S
C285 H270 0.959 . S
C285 H271 0.961 . S
C285 C284 1.502 . S
C286 H272 0.960 . S
C286 H273 0.961 . S
C286 H274 0.959 . S
C286 C284 1.561 . S
C287 C284 1.526 . S
C287 C288 1.396 . S
C287 C292 1.390 . S
C288 C282 1.465 . S
C288 C287 1.396 . S
C288 C289 1.399 . S
C289 H275 0.929 . S
C289 C288 1.399 . S
C289 C290 1.385 . S
C290 H276 0.931 . S
C290 C289 1.385 . S
C290 C291 1.389 . S
C291 C290 1.389 . S
C291 C292 1.387 . S
C292 H277 0.930 . S
C292 C287 1.390 . S
C292 C291 1.387 . S
H293 C305 0.930 . S
H294 C307 0.930 . S
H295 C308 0.930 . S
H296 C312 0.959 . S
H297 C312 0.959 . S
H298 C312 0.961 . S
H299 C313 0.960 . S
H300 C313 0.961 . S
H301 C313 0.959 . S
H302 C316 0.929 . S
H303 C317 0.931 . S
H304 C319 0.930 . S
C305 H293 0.930 . S
C305 C306 1.399 . S
C305 C310 1.399 . S
C306 C305 1.399 . S
C306 C307 1.376 . S
C307 H294 0.930 . S
C307 C306 1.376 . S
C307 C308 1.388 . S
C308 H295 0.930 . S
C308 C307 1.388 . S
C308 C309 1.390 . S
C309 C308 1.390 . S
C309 C310 1.394 . S
C309 C315 1.465 . S
C310 C305 1.399 . S
C310 C309 1.394 . S
C310 C311 1.516 . S
C311 C310 1.516 . S
C311 C312 1.502 . S
C311 C313 1.561 . S
C311 C314 1.526 . S
C312 H296 0.959 . S
C312 H297 0.959 . S
C312 H298 0.961 . S
C312 C311 1.502 . S
C313 H299 0.960 . S
C313 H300 0.961 . S
C313 H301 0.959 . S
C313 C311 1.561 . S
C314 C311 1.526 . S
C314 C315 1.396 . S
C314 C319 1.390 . S
C315 C309 1.465 . S
C315 C314 1.396 . S
C315 C316 1.399 . S
C316 H302 0.929 . S
C316 C315 1.399 . S
C316 C317 1.385 . S
C317 H303 0.931 . S
C317 C316 1.385 . S
C317 C318 1.389 . S
C318 C317 1.389 . S
C318 C319 1.387 . S
C319 H304 0.930 . S
C319 C314 1.390 . S
C319 C318 1.387 . S
H320 C332 0.930 . S
H321 C334 0.930 . S
H322 C335 0.930 . S
H323 C339 0.959 . S
H324 C339 0.959 . S
H325 C339 0.961 . S
H326 C340 0.960 . S
H327 C340 0.961 . S
H328 C340 0.959 . S
H329 C343 0.929 . S
H330 C344 0.931 . S
H331 C346 0.930 . S
C332 H320 0.930 . S
C332 C333 1.399 . S
C332 C337 1.399 . S
C333 C332 1.399 . S
C333 C334 1.376 . S
C334 H321 0.930 . S
C334 C333 1.376 . S
C334 C335 1.388 . S
C335 H322 0.930 . S
C335 C334 1.388 . S
C335 C336 1.390 . S
C336 C335 1.390 . S
C336 C337 1.394 . S
C336 C342 1.465 . S
C337 C332 1.399 . S
C337 C336 1.394 . S
C337 C338 1.516 . S
C338 C337 1.516 . S
C338 C339 1.502 . S
C338 C340 1.561 . S
C338 C341 1.526 . S
C339 H323 0.959 . S
C339 H324 0.959 . S
C339 H325 0.961 . S
C339 C338 1.502 . S
C340 H326 0.960 . S
C340 H327 0.961 . S
C340 H328 0.959 . S
C340 C338 1.561 . S
C341 C338 1.526 . S
C341 C342 1.396 . S
C341 C346 1.390 . S
C342 C336 1.465 . S
C342 C341 1.396 . S
C342 C343 1.399 . S
C343 H329 0.929 . S
C343 C342 1.399 . S
C343 C344 1.385 . S
C344 H330 0.931 . S
C344 C343 1.385 . S
C344 C345 1.389 . S
C345 C344 1.389 . S
C345 C346 1.387 . S
C346 H331 0.930 . S
C346 C341 1.390 . S
C346 C345 1.387 . S
H347 C359 0.930 . S
H348 C361 0.930 . S
H349 C362 0.930 . S
H350 C366 0.959 . S
H351 C366 0.959 . S
H352 C366 0.961 . S
H353 C367 0.960 . S
H354 C367 0.961 . S
H355 C367 0.959 . S
H356 C370 0.929 . S
H357 C371 0.931 . S
H358 C373 0.930 . S
C359 H347 0.930 . S
C359 C360 1.399 . S
C359 C364 1.399 . S
C360 C359 1.399 . S
C360 C361 1.376 . S
C361 H348 0.930 . S
C361 C360 1.376 . S
C361 C362 1.388 . S
C362 H349 0.930 . S
C362 C361 1.388 . S
C362 C363 1.390 . S
C363 C362 1.390 . S
C363 C364 1.394 . S
C363 C369 1.465 . S
C364 C359 1.399 . S
C364 C363 1.394 . S
C364 C365 1.516 . S
C365 C364 1.516 . S
C365 C366 1.502 . S
C365 C367 1.561 . S
C365 C368 1.526 . S
C366 H350 0.959 . S
C366 H351 0.959 . S
C366 H352 0.961 . S
C366 C365 1.502 . S
C367 H353 0.960 . S
C367 H354 0.961 . S
C367 H355 0.959 . S
C367 C365 1.561 . S
C368 C365 1.526 . S
C368 C369 1.396 . S
C368 C373 1.390 . S
C369 C363 1.465 . S
C369 C368 1.396 . S
C369 C370 1.399 . S
C370 H356 0.929 . S
C370 C369 1.399 . S
C370 C371 1.385 . S
C371 H357 0.931 . S
C371 C370 1.385 . S
C371 C372 1.389 . S
C372 C371 1.389 . S
C372 C373 1.387 . S
C373 H358 0.930 . S
C373 C368 1.390 . S
C373 C372 1.387 . S
H374 C386 0.930 . S
H375 C388 0.930 . S
H376 C389 0.930 . S
H377 C393 0.959 . S
H378 C393 0.959 . S
H379 C393 0.961 . S
H380 C394 0.960 . S
H381 C394 0.961 . S
H382 C394 0.959 . S
H383 C397 0.929 . S
H384 C398 0.931 . S
H385 C400 0.930 . S
C386 H374 0.930 . S
C386 C387 1.399 . S
C386 C391 1.399 . S
C387 C386 1.399 . S
C387 C388 1.376 . S
C388 H375 0.930 . S
C388 C387 1.376 . S
C388 C389 1.388 . S
C389 H376 0.930 . S
C389 C388 1.388 . S
C389 C390 1.390 . S
C390 C389 1.390 . S
C390 C391 1.394 . S
C390 C396 1.465 . S
C391 C386 1.399 . S
C391 C390 1.394 . S
C391 C392 1.516 . S
C392 C391 1.516 . S
C392 C393 1.502 . S
C392 C394 1.561 . S
C392 C395 1.526 . S
C393 H377 0.959 . S
C393 H378 0.959 . S
C393 H379 0.961 . S
C393 C392 1.502 . S
C394 H380 0.960 . S
C394 H381 0.961 . S
C394 H382 0.959 . S
C394 C392 1.561 . S
C395 C392 1.526 . S
C395 C396 1.396 . S
C395 C400 1.390 . S
C396 C390 1.465 . S
C396 C395 1.396 . S
C396 C397 1.399 . S
C397 H383 0.929 . S
C397 C396 1.399 . S
C397 C398 1.385 . S
C398 H384 0.931 . S
C398 C397 1.385 . S
C398 C399 1.389 . S
C399 C398 1.389 . S
C399 C400 1.387 . S
C400 H385 0.930 . S
C400 C395 1.390 . S
C400 C399 1.387 . S
H401 C413 0.930 . S
H402 C415 0.930 . S
H403 C416 0.930 . S
H404 C420 0.959 . S
H405 C420 0.959 . S
H406 C420 0.961 . S
H407 C421 0.960 . S
H408 C421 0.961 . S
H409 C421 0.959 . S
H410 C424 0.929 . S
H411 C425 0.931 . S
H412 C427 0.930 . S
C413 H401 0.930 . S
C413 C414 1.399 . S
C413 C418 1.399 . S
C414 C413 1.399 . S
C414 C415 1.376 . S
C415 H402 0.930 . S
C415 C414 1.376 . S
C415 C416 1.388 . S
C416 H403 0.930 . S
C416 C415 1.388 . S
C416 C417 1.390 . S
C417 C416 1.390 . S
C417 C418 1.394 . S
C417 C423 1.465 . S
C418 C413 1.399 . S
C418 C417 1.394 . S
C418 C419 1.516 . S
C419 C418 1.516 . S
C419 C420 1.502 . S
C419 C421 1.561 . S
C419 C422 1.526 . S
C420 H404 0.959 . S
C420 H405 0.959 . S
C420 H406 0.961 . S
C420 C419 1.502 . S
C421 H407 0.960 . S
C421 H408 0.961 . S
C421 H409 0.959 . S
C421 C419 1.561 . S
C422 C419 1.526 . S
C422 C423 1.396 . S
C422 C427 1.390 . S
C423 C417 1.465 . S
C423 C422 1.396 . S
C423 C424 1.399 . S
C424 H410 0.929 . S
C424 C423 1.399 . S
C424 C425 1.385 . S
C425 H411 0.931 . S
C425 C424 1.385 . S
C425 C426 1.389 . S
C426 C425 1.389 . S
C426 C427 1.387 . S
C427 H412 0.930 . S
C427 C422 1.390 . S
C427 C426 1.387 . S
H428 C440 0.930 . S
H429 C442 0.930 . S
H430 C443 0.930 . S
H431 C447 0.959 . S
H432 C447 0.959 . S
H433 C447 0.961 . S
H434 C448 0.960 . S
H435 C448 0.961 . S
H436 C448 0.959 . S
H437 C451 0.929 . S
H438 C452 0.931 . S
H439 C454 0.930 . S
C440 H428 0.930 . S
C440 C441 1.399 . S
C440 C445 1.399 . S
C441 C440 1.399 . S
C441 C442 1.376 . S
C442 H429 0.930 . S
C442 C441 1.376 . S
C442 C443 1.388 . S
C443 H430 0.930 . S
C443 C442 1.388 . S
C443 C444 1.390 . S
C444 C443 1.390 . S
C444 C445 1.394 . S
C444 C450 1.465 . S
C445 C440 1.399 . S
C445 C444 1.394 . S
C445 C446 1.516 . S
C446 C445 1.516 . S
C446 C447 1.502 . S
C446 C448 1.561 . S
C446 C449 1.526 . S
C447 H431 0.959 . S
C447 H432 0.959 . S
C447 H433 0.961 . S
C447 C446 1.502 . S
C448 H434 0.960 . S
C448 H435 0.961 . S
C448 H436 0.959 . S
C448 C446 1.561 . S
C449 C446 1.526 . S
C449 C450 1.396 . S
C449 C454 1.390 . S
C450 C444 1.465 . S
C450 C449 1.396 . S
C450 C451 1.399 . S
C451 H437 0.929 . S
C451 C450 1.399 . S
C451 C452 1.385 . S
C452 H438 0.931 . S
C452 C451 1.385 . S
C452 C453 1.389 . S
C453 C452 1.389 . S
C453 C454 1.387 . S
C454 H439 0.930 . S
C454 C449 1.390 . S
C454 C453 1.387 . S
H455 C467 0.930 . S
H456 C469 0.930 . S
H457 C470 0.930 . S
H458 C474 0.959 . S
H459 C474 0.959 . S
H460 C474 0.961 . S
H461 C475 0.960 . S
H462 C475 0.961 . S
H463 C475 0.959 . S
H464 C478 0.929 . S
H465 C479 0.931 . S
H466 C481 0.930 . S
C467 H455 0.930 . S
C467 C468 1.399 . S
C467 C472 1.399 . S
C468 C467 1.399 . S
C468 C469 1.376 . S
C469 H456 0.930 . S
C469 C468 1.376 . S
C469 C470 1.388 . S
C470 H457 0.930 . S
C470 C469 1.388 . S
C470 C471 1.390 . S
C471 C470 1.390 . S
C471 C472 1.394 . S
C471 C477 1.465 . S
C472 C467 1.399 . S
C472 C471 1.394 . S
C472 C473 1.516 . S
C473 C472 1.516 . S
C473 C474 1.502 . S
C473 C475 1.561 . S
C473 C476 1.526 . S
C474 H458 0.959 . S
C474 H459 0.959 . S
C474 H460 0.961 . S
C474 C473 1.502 . S
C475 H461 0.960 . S
C475 H462 0.961 . S
C475 H463 0.959 . S
C475 C473 1.561 . S
C476 C473 1.526 . S
C476 C477 1.396 . S
C476 C481 1.390 . S
C477 C471 1.465 . S
C477 C476 1.396 . S
C477 C478 1.399 . S
C478 H464 0.929 . S
C478 C477 1.399 . S
C478 C479 1.385 . S
C479 H465 0.931 . S
C479 C478 1.385 . S
C479 C480 1.389 . S
C480 C479 1.389 . S
C480 C481 1.387 . S
C481 H466 0.930 . S
C481 C476 1.390 . S
C481 C480 1.387 . S
H482 C494 0.930 . S
H483 C496 0.930 . S
H484 C497 0.930 . S
H485 C501 0.959 . S
H486 C501 0.959 1_556 S
H487 C501 0.961 . S
H488 C502 0.960 . S
H489 C502 0.961 . S
H490 C502 0.959 . S
H491 C505 0.929 . S
H492 C506 0.931 . S
H493 C508 0.930 . S
C494 H482 0.930 . S
C494 C495 1.399 . S
C494 C499 1.399 . S
C495 C494 1.399 . S
C495 C496 1.376 . S
C496 H483 0.930 . S
C496 C495 1.376 . S
C496 C497 1.388 . S
C497 H484 0.930 . S
C497 C496 1.388 . S
C497 C498 1.390 . S
C498 C497 1.390 . S
C498 C499 1.394 . S
C498 C504 1.465 1_554 S
C499 C494 1.399 . S
C499 C498 1.394 . S
C499 C500 1.516 1_554 S
C500 C499 1.516 1_556 S
C500 C501 1.502 1_556 S
C500 C502 1.561 . S
C500 C503 1.526 . S
C501 H485 0.959 . S
C501 H486 0.959 1_554 S
C501 H487 0.961 . S
C501 C500 1.502 1_554 S
C502 H488 0.960 . S
C502 H489 0.961 . S
C502 H490 0.959 . S
C502 C500 1.561 . S
C503 C500 1.526 . S
C503 C504 1.396 . S
C503 C508 1.390 . S
C504 C498 1.465 1_556 S
C504 C503 1.396 . S
C504 C505 1.399 . S
C505 H491 0.929 . S
C505 C504 1.399 . S
C505 C506 1.385 . S
C506 H492 0.931 . S
C506 C505 1.385 . S
C506 C507 1.389 . S
C507 C506 1.389 . S
C507 C508 1.387 . S
C508 H493 0.930 . S
C508 C503 1.390 . S
C508 C507 1.387 . S
H509 C521 0.930 . S
H510 C523 0.930 . S
H511 C524 0.930 . S
H512 C528 0.959 . S
H513 C528 0.959 . S
H514 C528 0.961 1_554 S
H515 C529 0.960 . S
H516 C529 0.961 . S
H517 C529 0.959 . S
H518 C532 0.929 . S
H519 C533 0.931 . S
H520 C535 0.930 . S
C521 H509 0.930 . S
C521 C522 1.399 . S
C521 C526 1.399 . S
C522 C521 1.399 . S
C522 C523 1.376 . S
C523 H510 0.930 . S
C523 C522 1.376 . S
C523 C524 1.388 . S
C524 H511 0.930 . S
C524 C523 1.388 . S
C524 C525 1.390 . S
C525 C524 1.390 . S
C525 C526 1.394 . S
C525 C531 1.465 1_554 S
C526 C521 1.399 . S
C526 C525 1.394 . S
C526 C527 1.516 . S
C527 C526 1.516 . S
C527 C528 1.502 1_554 S
C527 C529 1.561 . S
C527 C530 1.526 1_554 S
C528 H512 0.959 . S
C528 H513 0.959 . S
C528 H514 0.961 1_556 S
C528 C527 1.502 1_556 S
C529 H515 0.960 . S
C529 H516 0.961 . S
C529 H517 0.959 . S
C529 C527 1.561 . S
C530 C527 1.526 1_556 S
C530 C531 1.396 . S
C530 C535 1.390 . S
C531 C525 1.465 1_556 S
C531 C530 1.396 . S
C531 C532 1.399 . S
C532 H518 0.929 . S
C532 C531 1.399 . S
C532 C533 1.385 . S
C533 H519 0.931 . S
C533 C532 1.385 . S
C533 C534 1.389 . S
C534 C533 1.389 . S
C534 C535 1.387 . S
C535 H520 0.930 . S
C535 C530 1.390 . S
C535 C534 1.387 . S
C117 C5 1.552 1_655 S
C129 C29 1.530 . S
C144 C44 1.562 . S
C156 C18 1.524 . S
C171 C81 1.561 . S
C183 C55 1.526 . S
C198 C70 1.547 . S
C210 C94 1.548 . S
C225 C82 1.760 . S
C237 C10 1.710 . S
C252 C23 1.728 . S
C264 C95 1.753 . S
C279 C30 1.765 . S
C291 C56 1.709 . S
C306 C49 1.754 . S
C318 C75 1.727 . S
C333 C88 1.572 . S
C345 C4 1.558 . S
C360 C17 1.569 . S
C372 C101 1.564 . S
C387 C62 1.567 . S
C399 C36 1.565 . S
C414 C69 1.566 . S
C426 C43 1.562 . S
C441 C16 0.504 . S
C453 C3 0.533 . S
C468 C31 0.632 . S
C480 C42 0.654 . S
C495 C68 0.656 . S
C507 C57 0.649 . S
C522 C83 0.644 . S
C534 C96 0.648 . S
